Mass spectrum: 7,8-Dihydroparasiloxanthin; FAB-EBEB; MS2; m/z: 572.46; [M]+*
Name: 7,8-Dihydroparasiloxanthin
Class: Natural Product
Formula: C40H60O2
Exact mass: 572.45933
SMILES: CC(C1)=C(CCC(C)=CC=CC(C)=CC=CC=C(C)C=CC=C(CCC(=C(C)2)C(CC(O)C2)(C)C)C)C(CC(O)1)(C)C
InChI: InChI=1S/C40H60O2/c1-29(17-13-19-31(3)21-23-37-33(5)25-35(41)27-39(37,7)8)15-11-12-16-30(2)18-14-20-32(4)22-24-38-34(6)26-36(42)28-40(38,9)10/h11-20,35-36,41-42H,21-28H2,1-10H3/b12-11+,17-13+,18-14+,29-15+,30-16+,31-19+,32-20+/t35-,36-/m1/s1
Instrument: JMS-HX/HX 110A, JEOL
Instrument type: FAB-EBEB
Ms type: MS2
Ion mode: POSITIVE
Collision energy: 3 kV
Ionization: FAB
Base peak: 572.5145
Precursor m/z: 572.46
Precursor type: [M]+*
m/z	relative intensity	assigned
0.0229	0	
2.0518	0	
8.7422	0	
11.9383	0	
13.9552	1	
14.9681	2	
15.9625	0	
18.9400	0	
22.9066	1	
24.9211	0	
25.9383	3	
26.9553	17	
27.9513	2	
28.9597	12	
29.2514	0	
29.8922	0	
30.9459	2	
35.9394	0	
36.1488	0	
36.9217	1	
37.2861	0	
37.5196	0	
37.9362	4	
38.2339	0	
38.9396	31	
39.4151	0	
39.9597	5	
40.5923	0	
40.9535	73	
41.1492	0	
41.9524	1	
42.9538	67	
43.3266	0	
43.7528	0	
43.9552	2	
44.9446	3	
47.8561	0	
48.5796	0	
48.8998	1	
49.5535	0	
49.9287	9	
50.9388	17	
51.1922	0	
51.3849	0	
51.9411	7	
52.3364	0	
52.9427	37	
53.9418	1	
54.2890	0	
54.9558	90	
55.2077	0	
55.9654	2	
56.3200	0	
56.9688	40	
57.9591	1	
58.4751	1	
58.9547	6	
59.1705	0	
59.9554	0	
60.9182	1	
61.3633	0	
61.9196	4	
62.9401	12	
63.0973	0	
63.4929	0	
63.9371	3	
64.2569	0	
64.5883	0	
64.9426	23	
65.6655	0	
65.9403	5	
66.0567	1	
66.4998	0	
66.5770	0	
66.6903	0	
66.9549	95	
67.5777	0	
67.9514	2	
68.6310	0	
68.9680	175	
69.2536	0	
69.9747	2	
70.9564	13	
71.9988	0	
72.8282	0	
72.9804	1	
73.6737	1	
73.9484	3	
74.9496	4	
75.0558	2	
75.4613	1	
75.5712	0	
75.6933	0	
75.8452	1	
75.9633	2	
76.1101	1	
76.1951	0	
76.3379	0	
76.4417	0	
76.5286	0	
76.6166	0	
76.9394	76	
77.1088	2	
77.2490	1	
77.3519	0	
77.4460	1	
77.5882	1	
77.9400	20	
78.1890	0	
78.2863	0	
78.9630	89	
79.1781	0	
79.3521	1	
79.5657	0	
79.9649	13	
80.2791	0	
80.9703	111	
81.1925	1	
81.4669	0	
81.9654	3	
82.9799	38	
83.1915	0	
83.9329	1	
83.9961	0	
84.9617	17	
85.9466	2	
86.0526	1	
86.9237	1	
87.9483	2	
88.2155	0	
88.5547	0	
88.7349	1	
88.9441	8	
89.2319	1	
89.4354	0	
89.5924	0	
89.7162	0	
89.9592	3	
90.1443	1	
90.3034	1	
90.4716	1	
90.6345	2	
90.9586	147	
91.2659	0	
91.3885	0	
91.4831	0	
91.6166	0	
91.9669	18	
92.1559	1	
92.2562	0	
92.3765	1	
92.4854	1	
92.9812	197	
93.2882	0	
93.4442	0	
93.5228	0	
93.6392	0	
93.7416	0	
93.9990	15	
94.4637	0	
95.0070	95	
95.5027	0	
95.7425	0	
96.0032	3	
96.9806	39	
97.9919	1	
98.9905	2	
99.3793	0	
99.8610	0	
99.9671	2	
100.5438	0	
100.6840	1	
100.9430	2	
101.0747	0	
101.1873	0	
101.3005	0	
101.5227	0	
101.6911	0	
101.9685	4	
102.2077	0	
102.3899	1	
102.5648	0	
102.9693	23	
103.2369	0	
103.3412	1	
103.5344	0	
103.6220	1	
103.9757	9	
104.3265	0	
104.5051	1	
104.6663	1	
104.9877	189	
105.2512	1	
105.4064	1	
105.6309	1	
105.9921	18	
107.0066	197	
107.2798	1	
107.3984	0	
108.0085	10	
108.5798	1	
109.0208	228	
109.3470	3	
109.5117	1	
109.6388	0	
110.0079	4	
110.1916	0	
110.4858	1	
110.6182	1	
110.7054	0	
111.0074	45	
111.3050	0	
111.4502	0	
111.8594	0	
111.9864	1	
112.2770	0	
112.3796	0	
112.5854	0	
112.7031	1	
112.9953	1	
113.2416	1	
113.3759	0	
113.5051	1	
113.7409	1	
113.9377	1	
114.0645	1	
114.3195	0	
114.4470	1	
114.5739	0	
114.9548	47	
115.2183	1	
115.4193	0	
115.5584	1	
115.7077	1	
115.9658	20	
116.2291	1	
116.5299	1	
116.9778	63	
117.3962	0	
117.6118	1	
117.9792	15	
118.2839	0	
118.4134	0	
118.9801	170	
119.3584	1	
119.4984	1	
119.5785	0	
119.9851	43	
120.2659	1	
120.6002	0	
121.0011	74	
121.3460	0	
121.5074	0	
121.9674	5	
122.2445	1	
122.5485	1	
123.0002	24	
123.2687	0	
123.6704	1	
123.7753	1	
124.0063	2	
124.3181	0	
124.7369	0	
124.9452	2	
125.1746	0	
125.6985	0	
125.9449	2	
126.3293	0	
126.4943	0	
126.9497	16	
127.1553	1	
127.3649	2	
127.4832	2	
127.9514	55	
128.2325	1	
128.4810	1	
128.9633	80	
129.2596	0	
129.3769	0	
129.4774	0	
129.9578	32	
130.3854	1	
130.5184	1	
130.9644	112	
131.2576	1	
131.3978	0	
131.5361	1	
131.6608	2	
131.9717	50	
132.3661	1	
132.5408	1	
132.9885	198	
133.2934	2	
133.9852	15	
134.1291	2	
135.0019	455	
135.2368	5	
135.5693	2	
135.6804	2	
136.0060	7	
136.1477	2	
136.4124	1	
136.5587	0	
136.7500	1	
136.9966	11	
137.3317	0	
137.5238	0	
137.9224	2	
138.5362	1	
138.9815	7	
139.3187	0	
139.6300	0	
139.9648	2	
140.2142	0	
140.3860	1	
140.4663	0	
140.6335	2	
140.9563	34	
141.1864	1	
141.3112	0	
141.4100	0	
141.5100	0	
141.9685	38	
142.3604	1	
142.4482	0	
142.9726	94	
143.5307	1	
143.9770	31	
144.2845	1	
144.4977	2	
144.9930	151	
145.4439	1	
145.9962	26	
146.5849	0	
147.0069	29	
147.2785	0	
147.4383	0	
147.6600	0	
147.9910	2	
148.2346	0	
149.0169	9	
149.2297	0	
149.4419	0	
149.6442	0	
149.8130	0	
149.9765	0	
150.0846	1	
150.4335	2	
150.6024	0	
151.0043	16	
151.2762	0	
151.4426	0	
151.9597	14	
152.2088	2	
152.3647	1	
152.5471	0	
153.0112	35	
153.2645	1	
153.4093	1	
153.6997	0	
153.9935	12	
154.3026	1	
154.5826	2	
155.0071	48	
155.3277	1	
155.4410	1	
155.6332	1	
156.0223	26	
156.2663	2	
156.4812	1	
156.6297	1	
157.0258	82	
157.3370	0	
157.4963	1	
157.5879	0	
158.0215	22	
158.4153	1	
158.5017	1	
159.0373	64	
159.3670	1	
159.5392	1	
160.0473	6	
160.6854	0	
161.0562	10	
161.3451	1	
161.6541	0	
162.0525	3	
162.4823	0	
163.0536	5	
163.2230	1	
163.4618	0	
163.6613	1	
163.8728	0	
164.0449	2	
164.1770	1	
164.3239	1	
164.5201	0	
165.0122	27	
165.5366	1	
165.7063	1	
166.0344	13	
166.2771	1	
166.4027	0	
166.5846	1	
167.0179	22	
167.2788	1	
167.3839	1	
167.4568	0	
168.0315	11	
168.3710	1	
169.0363	42	
169.4495	0	
170.0492	19	
170.3818	1	
170.5535	0	
171.0628	52	
171.4732	1	
171.6678	0	
171.7849	1	
172.0825	8	
172.2537	0	
172.5026	0	
173.0648	18	
173.6841	1	
174.0578	4	
174.7673	0	
175.0937	9	
175.2781	1	
175.6884	1	
176.0486	2	
176.4155	0	
177.0389	9	
177.2483	1	
177.3477	1	
177.5847	1	
177.7002	1	
178.0172	11	
178.4229	0	
178.6184	0	
178.7548	1	
179.0390	27	
179.5009	1	
180.0173	10	
180.2197	1	
180.4033	1	
180.5439	1	
181.0243	29	
181.2861	1	
181.5184	0	
182.0341	13	
182.2604	0	
182.5453	1	
183.0337	46	
183.4192	1	
183.6322	1	
184.0542	10	
185.0261	28	
185.4505	1	
185.6874	0	
186.0444	8	
186.4083	0	
186.6609	0	
187.0628	11	
187.2850	1	
187.3701	0	
187.5667	1	
188.0438	2	
188.2966	0	
188.6218	0	
189.0471	8	
189.2730	1	
189.3725	0	
189.7709	1	
190.0246	4	
190.1397	2	
190.3393	0	
190.5471	1	
191.0122	8	
191.3595	0	
191.5228	1	
191.9949	7	
192.2035	1	
192.4285	0	
192.6494	1	
193.0262	14	
193.5170	0	
193.7591	1	
194.0412	10	
194.4597	0	
195.0242	33	
195.2807	1	
195.4036	0	
195.6154	1	
195.7301	1	
196.0458	11	
196.4722	0	
197.0421	40	
197.3281	1	
197.4660	1	
197.6115	0	
198.0539	11	
198.4053	1	
198.5882	0	
199.0594	32	
199.2825	1	
199.5777	1	
199.7805	0	
199.9036	2	
200.0887	5	
200.3003	1	
200.4820	0	
201.0572	4	
201.6175	0	
201.7891	1	
202.0262	3	
202.2448	1	
202.4860	0	
203.0426	7	
203.3193	1	
203.4843	1	
203.8074	1	
204.0242	2	
204.2192	1	
204.7484	1	
205.0178	6	
206.0229	7	
206.3922	0	
206.6045	1	
206.7943	2	
207.0394	16	
207.3610	0	
207.8132	2	
208.0577	6	
208.3508	0	
208.5387	1	
208.6576	0	
209.0260	25	
209.4149	1	
209.5961	2	
210.0494	11	
210.3968	1	
210.5692	0	
211.0453	30	
211.3360	1	
211.6057	1	
211.7350	0	
212.0772	8	
212.3927	0	
213.1021	5	
213.8000	0	
213.9548	1	
214.0815	0	
214.1699	0	
214.6653	1	
214.8325	0	
215.0333	3	
215.4371	1	
215.6119	0	
215.9862	1	
216.2290	0	
216.4025	1	
216.7207	2	
217.0397	3	
217.2167	1	
217.3951	0	
217.6119	0	
218.0868	3	
218.3332	0	
218.7691	0	
219.0650	6	
219.5333	0	
219.6830	0	
219.8423	1	
220.0992	3	
220.3706	1	
220.4942	0	
220.6049	0	
221.0604	11	
221.6817	0	
222.0907	3	
222.2406	1	
223.0878	15	
223.5673	0	
223.8362	1	
224.1101	5	
224.4927	0	
225.0894	10	
225.3654	0	
225.5672	0	
225.7434	0	
225.9094	1	
226.1242	2	
226.2461	1	
226.6180	0	
227.0451	2	
227.3420	1	
227.4474	1	
227.9760	1	
228.1862	1	
228.5466	0	
228.8472	1	
229.0837	4	
229.2227	1	
229.6336	0	
230.0625	2	
230.2126	1	
231.0485	2	
231.2951	1	
232.0363	1	
232.1582	1	
232.8335	0	
233.0361	3	
233.1616	2	
233.6696	1	
234.1109	2	
234.5998	1	
234.7770	0	
235.0826	7	
235.2164	5	
235.8724	1	
236.1112	4	
236.2595	1	
236.6618	1	
237.1208	10	
237.3500	0	
237.5130	0	
237.7215	0	
237.9631	1	
238.1392	1	
238.2801	1	
238.4693	0	
238.8636	1	
239.1586	3	
239.5254	1	
240.0139	1	
240.1597	1	
240.2876	0	
240.4624	0	
240.8965	1	
240.9649	0	
241.1501	1	
242.1305	1	
242.7931	1	
243.0033	1	
243.1784	2	
243.6613	1	
244.0716	1	
245.0114	1	
245.1900	2	
245.4088	0	
245.7646	0	
245.8609	0	
246.1011	1	
246.4993	0	
247.1310	3	
247.2612	0	
247.7503	1	
247.8480	1	
248.0191	2	
248.2118	2	
248.7191	0	
249.0601	3	
249.2396	2	
249.6437	0	
249.7651	1	
250.1409	6	
250.2934	2	
250.4890	0	
250.7074	0	
251.1388	28	
251.4350	1	
251.7464	1	
252.1426	3	
252.4285	1	
252.6602	1	
252.8941	2	
253.1946	6	
253.4223	0	
253.6402	1	
253.9214	0	
254.1054	1	
254.2435	1	
254.3254	1	
254.8733	0	
255.0342	1	
255.1937	1	
255.4219	0	
255.8054	0	
255.9469	1	
256.0663	0	
256.2605	1	
256.3972	0	
257.1465	1	
258.1813	1	
258.5617	0	
259.1436	1	
259.3081	1	
260.0665	1	
260.2679	0	
260.5909	1	
261.0786	2	
261.2043	1	
261.9075	0	
262.0125	0	
262.1779	1	
262.2953	0	
262.7033	1	
262.8111	1	
263.1670	5	
263.5757	0	
263.9568	2	
264.1320	6	
264.2961	2	
265.1669	40	
265.4994	1	
265.6531	1	
266.1666	53	
266.5869	2	
266.7420	1	
267.1770	4	
267.6259	0	
267.8250	0	
267.9768	0	
268.1578	1	
268.5658	1	
268.9856	1	
269.1527	0	
269.3108	1	
269.4278	0	
269.9724	0	
270.1111	1	
270.2211	1	
271.0878	1	
271.2195	1	
271.3386	1	
271.9839	0	
272.1671	0	
272.8272	0	
272.9324	0	
273.1023	1	
273.2138	0	
273.3141	0	
273.6491	0	
274.0128	1	
274.2350	1	
275.0879	1	
275.2725	1	
275.4147	0	
276.1333	1	
276.5906	0	
276.9057	0	
276.9984	0	
277.1371	1	
277.3142	1	
277.9411	0	
278.1476	1	
278.3052	1	
279.0487	1	
279.2824	3	
280.2264	4	
280.5844	0	
281.2599	1	
281.4052	1	
281.8337	0	
282.2596	1	
282.4125	1	
282.6394	0	
282.8838	1	
283.2413	1	
284.1226	0	
284.2428	0	
284.3412	0	
284.9874	1	
285.1900	2	
285.3067	1	
285.9551	0	
286.2220	1	
286.9657	0	
287.0999	0	
287.2431	1	
287.8024	0	
288.1261	1	
288.2631	1	
288.4016	1	
288.9148	0	
289.1711	2	
289.3387	1	
290.1366	0	
290.6826	1	
291.0659	0	
291.2196	1	
291.3195	1	
291.4752	1	
292.2658	0	
293.1712	1	
293.2837	1	
293.7616	0	
294.1439	2	
294.2794	0	
295.2013	0	
295.3439	1	
296.1751	0	
296.8904	0	
297.0092	1	
297.3302	0	
298.0037	0	
298.1499	1	
298.5206	0	
299.0837	0	
299.2327	1	
300.2508	1	
301.1242	1	
302.2434	0	
302.3303	0	
303.1431	1	
303.8917	0	
304.0920	0	
304.3497	0	
304.9213	0	
305.1363	1	
305.2533	0	
307.0742	0	
307.3160	1	
308.0652	1	
308.1599	0	
308.2608	0	
309.1406	0	
309.2724	1	
310.1537	1	
310.2729	1	
311.1131	1	
311.3102	1	
312.2950	0	
312.5532	1	
313.1664	0	
313.2786	0	
314.0414	1	
314.2632	0	
315.2100	0	
316.0242	0	
316.2391	1	
316.4609	1	
316.7010	1	
316.9384	0	
317.0788	0	
317.2045	0	
317.3344	0	
318.2045	1	
319.1759	4	
319.3403	1	
319.4759	1	
319.6192	0	
319.8398	0	
320.1840	1	
320.3857	1	
320.5909	0	
321.1186	0	
321.2816	0	
323.0148	0	
323.1821	0	
323.4141	0	
324.2634	0	
324.3731	0	
325.3498	2	
327.1941	3	
327.3643	2	
328.2170	0	
328.7863	1	
328.9692	1	
329.1381	1	
329.3901	1	
329.9672	0	
330.2853	0	
330.9611	1	
331.0392	0	
331.3095	1	
331.4454	1	
332.1797	0	
332.2805	0	
332.3860	2	
333.2811	0	
335.4082	1	
336.5245	0	
336.9744	0	
337.1917	1	
337.3365	1	
338.2871	1	
338.4608	0	
338.9819	0	
339.2077	3	
339.3891	3	
339.6852	0	
339.9187	0	
340.2409	0	
340.4097	1	
340.8508	1	
341.2082	1	
341.6789	0	
342.2628	0	
342.5098	0	
343.5711	0	
344.1398	0	
345.1076	1	
345.3681	1	
346.0891	1	
346.2700	0	
346.3742	1	
346.4960	0	
347.0664	1	
347.2347	1	
348.0150	0	
348.4263	1	
349.1384	1	
349.2941	0	
350.2036	1	
351.1815	2	
351.3274	1	
351.4887	1	
351.6628	0	
352.1998	1	
352.7128	0	
353.2457	1	
353.3479	0	
354.3291	1	
354.9185	1	
355.3359	1	
355.4720	0	
356.2532	0	
356.3893	0	
356.6658	0	
356.8103	0	
357.3520	0	
358.2287	0	
358.4495	0	
358.6145	1	
358.7217	0	
358.9729	1	
359.2692	0	
359.4011	1	
359.5505	0	
359.8290	1	
360.0686	0	
360.6270	0	
360.8631	0	
361.2861	0	
361.4384	0	
362.1851	0	
362.2852	0	
362.5208	0	
363.0567	0	
363.2894	1	
364.1922	0	
364.3961	1	
365.2425	2	
367.3147	0	
369.2300	1	
370.2500	1	
370.7321	1	
371.0752	1	
371.1861	1	
371.2969	1	
373.1328	1	
373.3828	2	
373.9558	0	
374.1751	0	
374.3402	1	
375.3354	2	
376.2222	1	
376.3372	1	
376.7929	1	
377.0745	0	
377.2748	1	
377.4188	1	
377.6841	1	
378.1653	1	
379.2874	0	
380.8509	0	
381.2561	1	
383.2047	0	
384.2180	0	
385.5218	0	
385.7068	1	
386.1526	0	
386.3807	1	
387.2433	0	
387.5146	1	
387.6763	0	
388.5009	0	
389.0612	1	
389.3318	3	
389.6788	1	
390.3198	1	
391.2287	1	
391.8280	0	
393.0192	1	
393.3571	1	
395.0476	0	
395.4196	0	
396.1883	1	
396.9535	0	
397.2123	1	
397.5002	1	
397.9416	1	
398.1340	1	
398.5082	1	
399.0670	0	
399.2821	1	
399.3762	0	
399.5814	2	
399.7745	0	
400.0207	1	
400.1594	1	
400.2478	1	
400.3801	0	
400.5641	0	
400.6603	0	
400.8471	0	
401.0445	2	
401.3955	3	
401.5717	0	
402.0685	0	
402.3777	2	
402.7273	1	
403.3643	4	
403.5915	2	
403.7274	0	
403.9553	1	
404.3106	7	
405.3802	3	
405.8037	0	
406.1943	0	
406.4663	1	
408.2641	1	
409.3239	0	
410.0242	0	
410.8015	1	
411.0305	0	
411.2474	0	
411.4135	0	
412.2065	0	
412.9168	0	
413.3099	0	
413.5686	1	
413.7495	0	
414.3999	0	
414.5830	0	
414.6799	0	
415.0532	0	
415.2992	1	
415.5813	0	
415.9263	1	
416.1646	1	
416.4142	1	
416.5952	1	
416.7508	1	
417.0040	2	
417.3321	7	
417.4693	6	
417.6185	1	
417.9190	3	
418.3434	26	
419.3526	283	
420.0041	4	
420.2573	5	
420.4165	3	
420.8713	2	
421.0453	3	
421.2965	2	
421.4790	2	
421.7408	1	
421.9665	1	
422.1723	0	
422.4339	0	
422.6027	0	
422.7440	1	
422.9934	1	
423.1015	1	
423.3685	0	
423.7034	1	
423.8200	0	
423.9458	1	
424.2362	0	
424.5987	1	
424.9336	0	
425.8664	1	
426.2904	0	
426.9801	0	
427.2572	0	
428.2757	0	
428.5811	0	
430.4523	0	
431.1183	1	
431.3297	1	
431.5849	0	
432.1562	1	
432.2701	1	
432.4363	2	
433.3117	6	
433.4376	3	
433.9298	0	
434.1533	0	
435.2623	1	
435.8670	0	
436.9925	0	
438.0020	0	
438.6578	0	
439.2317	0	
440.3900	0	
442.9866	0	
444.1375	0	
444.3449	1	
444.4652	0	
445.1929	0	
446.4050	0	
449.5482	0	
458.1609	0	
458.3506	1	
458.5141	0	
458.8737	0	
459.1971	0	
459.3861	1	
459.4937	0	
459.8059	0	
459.9425	1	
460.3036	0	
462.1019	0	
469.3088	0	
471.2260	0	
471.4236	1	
471.5101	0	
471.9373	0	
472.1393	1	
472.4029	2	
473.4474	1	
474.0724	0	
474.3601	1	
475.8811	0	
478.8575	0	
479.3942	1	
479.4736	1	
480.0557	1	
480.2039	1	
480.4719	1	
481.2355	0	
486.1929	0	
486.3260	1	
486.5398	1	
488.4306	1	
491.2232	1	
491.3224	1	
492.3367	1	
492.5464	1	
492.8248	1	
493.3469	1	
493.5077	2	
493.5998	1	
493.8031	0	
494.4153	0	
495.2229	1	
496.1008	1	
498.4676	0	
498.7127	1	
500.1776	0	
503.3432	0	
503.6388	1	
504.2620	1	
509.9528	0	
511.0691	1	
511.4956	1	
512.2159	1	
512.4833	1	
512.6085	1	
513.6967	1	
514.2097	1	
514.4630	1	
514.5649	0	
514.8033	0	
515.5641	0	
515.9214	1	
517.8577	1	
522.1032	0	
524.5605	0	
526.4142	1	
527.2158	1	
527.3531	1	
527.6732	0	
528.2936	1	
528.6526	1	
529.3381	1	
529.5187	1	
530.3644	0	
530.5159	0	
531.0202	1	
532.4609	1	
532.9291	0	
533.1749	0	
533.6013	1	
534.3629	0	
534.5399	0	
535.6784	0	
536.6398	1	
537.4695	1	
538.1752	0	
538.5585	1	
538.7512	0	
539.2550	1	
539.4222	2	
539.6235	1	
539.7263	1	
540.3286	1	
540.5674	0	
540.9507	0	
541.1867	1	
541.3589	1	
542.3929	6	
542.6771	2	
543.2654	1	
543.4199	1	
543.9401	1	
544.2831	1	
544.7892	1	
545.1039	1	
545.5952	1	
545.9418	0	
546.5769	1	
547.0349	1	
547.1433	0	
547.5786	1	
547.6891	1	
548.0670	1	
548.5384	0	
548.7284	1	
548.9688	1	
550.2527	0	
550.4044	1	
550.5186	0	
550.7561	0	
550.9291	1	
551.2397	1	
551.6963	1	
551.8665	1	
552.0409	0	
552.3904	1	
552.5698	1	
552.8762	2	
553.0804	1	
553.4371	3	
553.8363	1	
554.5312	20	
554.7581	13	
555.1927	2	
555.3477	3	
555.4893	2	
555.8128	2	
556.3254	4	
556.5540	2	
556.7246	1	
557.4631	9	
557.7087	6	
557.8864	1	
558.1470	2	
558.2426	1	
558.4819	2	
558.5937	1	
558.8160	2	
559.0695	2	
559.2288	0	
559.3549	1	
559.6353	2	
560.1252	4	
560.3433	1	
560.4658	0	
560.6357	1	
560.7710	1	
560.8765	1	
561.0719	2	
561.2907	0	
561.5570	1	
561.7971	1	
562.0676	1	
562.4535	2	
562.6078	1	
562.7714	0	
562.9725	1	
563.1156	2	
563.3465	2	
563.6609	3	
563.8387	2	
564.0787	1	
564.4669	2	
564.7615	3	
565.3784	2	
565.7020	3	
566.2191	3	
566.4648	3	
566.9188	4	
567.6172	7	
567.8835	3	
568.3575	7	
568.9114	10	
572.5145	999	
573.2860	150	
573.9216	70	
574.5685	35	
575.1573	20	
575.7496	15	
576.3173	7	
