Mass spectrum: Dehydro fucoxanthin acetate; FAB-EBEB; MS2; m/z: 682.42; [M]*+
Name: Dehydro fucoxanthin acetate
Class: Natural Product; Carotenoid
Formula: C44H58O6
Exact mass: 682.42334
SMILES: C(C=C(C=CC=C(C(=O)CC(C(C)(C)3)(O2)C(CC(OC(C)=O)C3)2C)C)C)=CC=C(C=CC=C(C)C=C=C(C1=C)C(CC(C1)OC(C)=O)(C)C)C
InChI: InChI=1S/C44H58O6/c1-30(19-15-20-32(3)23-24-39-34(5)25-37(48-35(6)45)26-41(39,8)9)17-13-14-18-31(2)21-16-22-33(4)40(47)29-44-42(10,11)27-38(49-36(7)46)28-43(44,12)50-44/h13-23,37-38H,5,25-29H2,1-4,6-12H3/b14-13+,19-15+,21-16+,30-17+,31-18+,32-20+,33-22+/t24?,37-,38+,43-,44+/m1/s1
Instrument: JMS-HX/HX 110A, JEOL
Instrument type: FAB-EBEB
Ms type: MS2
Ion mode: POSITIVE
Collision energy: 3 kV
Ionization: FAB
Base peak: 682.3963
Precursor m/z: 682.42
Precursor type: [M]+*
m/z	relative intensity
1.6069	0
14.0017	1
14.9969	3
22.8617	1
24.9601	0
25.9953	1
26.9886	9
27.9688	1
28.9994	6
30.9748	0
32.7989	0
36.9929	2
37.9837	3
38.9919	29
39.9906	2
40.1154	0
41.0112	46
42.0043	2
42.5487	0
42.9858	422
43.2239	0
43.9647	0
45.0027	3
46.7348	0
48.9800	1
49.9832	7
50.7810	1
50.9839	19
51.1847	0
51.9950	6
52.9938	33
54.0074	1
55.0143	58
56.0341	1
57.0185	14
58.0364	1
58.9929	6
60.0397	0
60.9957	3
61.9881	8
62.9776	14
63.2539	0
63.8368	0
63.9976	3
64.9943	27
65.9991	7
66.5249	0
67.0077	42
67.9908	2
68.7025	0
69.0057	67
69.8001	0
70.0163	2
70.9989	17
72.0042	1
72.1247	0
73.0146	1
73.9615	5
74.9838	7
75.1710	2
75.4274	1
75.6574	1
75.9811	4
76.3724	0
76.5533	0
76.9926	81
77.4192	1
77.5206	0
77.9915	14
78.4998	0
78.6130	1
79.0057	65
79.3372	0
80.0152	5
80.6321	0
80.7251	0
81.0192	62
81.2724	1
82.0270	2
82.4524	0
83.0284	33
83.5122	0
84.0233	2
84.8046	0
85.0190	22
85.9930	3
86.9882	5
87.7334	0
88.0006	1
88.1687	1
88.9681	11
89.2113	0
89.3322	0
89.4214	0
89.6891	1
89.8039	0
90.0047	3
90.1681	1
90.2575	0
90.4190	1
91.0093	138
91.3823	0
92.0326	13
92.3335	0
92.4853	0
92.6268	0
93.0314	122
93.4133	2
94.0382	7
94.3356	0
94.4812	1
95.0265	77
95.8154	1
96.0347	4
96.4130	0
96.7875	0
97.0361	9
97.7198	0
97.9899	2
99.0104	4
100.0290	2
101.0059	5
101.2254	1
101.4194	1
101.7160	0
102.0169	10
102.2191	0
102.4085	1
102.7278	1
103.0208	38
103.4704	1
103.5711	0
104.0283	18
104.2835	1
105.0379	190
105.2944	1
105.5223	0
105.7489	0
106.0474	13
106.3439	0
107.0532	92
107.4971	1
107.7671	1
108.0350	9
108.2895	1
108.4748	1
108.6515	1
109.0758	471
109.3712	2
109.6725	0
110.0427	4
110.6253	0
111.0375	19
111.9724	2
112.1419	1
112.5078	1
113.0141	6
113.2818	1
113.4808	0
113.9726	4
114.2125	1
114.4772	1
115.0092	85
115.2758	1
115.3953	0
115.5833	0
116.0201	34
116.4060	1
116.6090	1
117.0282	74
117.2416	1
117.3790	0
117.5370	1
118.0454	16
118.3412	1
118.5690	0
119.0402	204
119.2668	2
119.4883	1
120.0293	18
120.3252	1
120.5303	1
121.0471	149
121.3016	2
121.7308	0
122.0158	12
123.0309	27
123.2804	0
124.0189	3
124.3426	0
124.6236	0
125.0328	6
125.2607	0
125.3659	0
125.9919	7
126.2951	1
126.6088	1
127.0006	32
127.3577	1
127.9967	112
128.2866	2
128.6124	2
129.0120	118
129.5162	0
130.0192	45
130.3764	1
130.5905	1
131.0174	91
131.3310	1
131.5379	1
131.7269	0
132.0304	20
132.3624	2
132.5800	1
133.0336	101
133.3390	1
133.6259	1
133.7803	1
134.0089	7
134.4377	1
134.6268	1
135.0417	209
135.5335	1
136.0099	8
136.3196	0
136.4970	0
136.6963	1
137.0319	79
137.3563	0
137.8308	1
138.0086	4
138.1291	2
138.2452	0
138.9857	25
140.0199	6
140.1664	4
140.3349	2
140.5602	1
140.9874	71
141.3293	1
141.4238	0
142.0056	73
142.3080	1
142.4491	0
142.6386	0
143.0126	144
143.2478	2
143.4991	0
143.6335	0
144.0200	26
145.0188	126
145.2652	1
145.4638	1
145.6495	1
145.7857	0
146.0171	16
146.2859	1
146.5769	1
147.0227	106
147.5977	1
148.0348	11
148.4974	1
148.6646	0
149.0244	28
149.2941	1
149.7321	0
150.0035	6
150.2322	0
150.5574	1
151.0312	37
151.2984	1
151.5060	2
151.9903	41
152.2754	1
152.4840	2
152.9956	53
153.5005	2
153.9920	26
154.4129	1
155.0286	107
155.3592	2
155.4585	1
155.6308	1
156.0286	51
156.3665	1
156.4712	1
156.6483	1
157.0404	124
157.5143	2
158.0293	21
158.5014	1
159.0315	86
159.3396	1
159.5968	1
160.0301	14
160.4374	0
160.6322	0
161.0452	51
161.2934	1
161.4250	0
161.7693	1
161.9040	2
162.0704	6
162.3817	1
162.5807	1
163.0611	21
163.3060	1
163.4385	1
163.6432	1
164.0588	5
164.3319	2
165.0171	100
166.0066	30
166.4029	0
166.5560	1
167.0435	69
167.3562	1
167.6597	1
168.0628	32
168.2465	2
168.5066	1
168.6919	2
169.0619	91
169.4570	2
169.5856	1
170.0729	41
170.3310	2
170.5549	1
171.0862	85
171.4078	1
171.4906	1
172.0786	23
172.2793	2
172.4473	1
172.6833	1
173.0960	74
173.4142	2
173.5347	0
173.8530	2
174.1135	6
174.3717	0
174.5494	0
175.0833	16
175.4796	1
175.5940	0
176.0343	9
176.6015	0
177.0585	16
177.3008	2
178.0584	56
178.4073	1
178.6858	1
179.0669	111
179.4293	1
180.0683	40
180.3457	1
180.6050	2
181.0760	88
181.4155	2
181.7473	1
182.0806	34
182.4282	0
182.5279	0
182.6393	0
183.0867	98
183.4911	2
183.7417	2
184.0755	27
184.4417	1
184.6468	0
185.1028	49
185.4535	1
186.0844	11
186.5715	3
186.7069	2
187.0927	23
187.6006	0
188.0725	5
188.3365	1
189.0452	39
189.4103	2
189.6453	2
190.0461	13
190.2371	2
190.4746	2
191.0343	38
191.5895	1
192.0398	43
192.3780	2
192.5432	4
193.0562	90
193.3931	1
194.0733	42
194.4017	1
194.6059	1
195.0706	105
195.3707	2
195.4728	1
195.5861	0
196.0700	38
196.3901	1
196.6921	2
197.0678	84
197.4713	2
197.6236	1
198.0804	24
198.3089	2
198.4978	1
199.0842	63
199.4637	2
200.0704	13
200.3032	2
200.4954	2
200.6329	2
200.7338	1
201.0763	14
201.2448	4
201.5659	3
202.0152	35
202.3810	2
203.0310	41
203.3334	1
203.4949	2
203.6709	0
204.0307	17
204.2847	2
205.0406	47
205.5728	17
206.0686	38
206.2934	2
206.6259	3
207.0582	77
207.3781	1
208.0491	33
208.4243	1
208.6191	2
209.0654	74
209.3417	1
209.6053	1
209.7331	1
210.0854	25
210.4003	2
210.5010	2
210.6265	1
211.0589	62
211.4075	2
211.6826	1
212.0777	14
212.5546	2
213.0659	45
213.5526	2
214.0282	6
215.0022	46
215.4429	3
216.0353	23
216.3119	1
216.5131	2
217.0456	45
217.3055	1
218.0509	26
218.3944	1
219.0591	55
219.4004	2
219.5538	2
220.0454	36
220.5508	1
221.0651	67
222.0347	23
222.4192	1
222.6540	2
223.0885	56
223.4385	1
223.6904	1
224.0510	14
224.2893	1
224.5478	1
225.0954	25
226.0250	9
226.3748	1
226.4892	0
227.0688	18
227.4404	1
227.6815	1
228.0203	13
228.2687	1
228.4301	1
228.6616	2
229.0432	40
229.4484	1
229.6946	1
230.0724	23
230.6093	1
231.0673	57
231.5140	1
232.0788	27
233.0835	59
233.5630	0
234.0984	27
234.5481	3
235.1121	48
235.6252	4
235.7992	1
236.0972	14
236.5457	2
237.1118	40
237.7437	1
238.1139	7
238.3214	2
238.5451	2
238.7915	3
239.1149	28
239.3938	2
239.6127	1
240.0417	7
240.4561	2
240.6784	2
241.0719	18
241.4873	1
241.6724	1
241.8201	2
242.0831	8
242.3063	2
242.4797	1
242.5623	0
243.1029	28
243.4733	0
243.8203	3
244.1041	19
244.5614	2
245.1170	42
245.4415	2
245.5787	1
246.1142	26
246.3528	2
247.0972	46
247.6339	2
248.1171	20
248.3737	3
248.6288	1
249.1366	56
249.5299	1
250.1305	16
250.4354	2
250.5630	1
250.6841	1
251.1370	29
251.5184	1
252.0553	12
252.4694	1
253.0943	21
253.4166	1
253.6046	1
253.7308	2
254.0914	7
254.4276	1
254.6556	1
255.1117	17
255.5067	1
255.7030	0
256.0875	9
256.5764	1
257.1086	26
257.5708	1
258.0958	12
258.4048	1
258.5875	1
259.1193	40
259.5557	1
260.1137	15
260.5405	1
261.1363	50
261.5061	1
261.7086	1
262.1437	12
262.6068	1
263.1426	57
263.6139	1
264.1385	11
264.4368	2
264.5275	1
265.1356	19
265.5018	2
265.6776	1
265.8084	1
266.1396	11
266.4855	1
267.1275	16
267.5701	1
268.1158	7
268.4579	1
268.5675	1
269.0946	21
269.4769	1
269.7013	1
270.1180	8
270.4378	1
270.6104	0
271.1216	15
271.5224	0
271.7769	1
272.1107	10
272.3955	0
272.6393	2
273.1443	21
273.5234	1
273.7321	0
274.1169	13
274.5075	1
274.6198	1
275.1529	31
275.3864	2
275.5469	2
276.1573	12
276.6899	2
277.1497	19
277.5997	2
277.7087	2
277.8875	1
278.1867	7
278.6049	1
279.1281	10
279.4168	2
279.5816	0
279.8277	2
280.1657	5
280.4406	1
281.1134	14
281.4622	2
281.6805	4
282.1706	8
282.3356	1
282.7141	1
283.1386	16
283.5254	1
283.6896	3
284.1422	6
284.4683	2
284.6926	2
285.1453	20
285.5586	0
285.7575	3
286.1257	9
286.4577	1
286.6920	0
287.1590	21
287.3752	2
287.5043	0
288.1638	7
288.4155	1
288.5561	3
288.7247	2
289.1615	21
289.6460	1
290.1647	8
290.5429	2
290.7353	2
291.1555	14
291.4614	1
292.0544	5
292.5232	0
292.6993	1
293.1386	9
293.5171	2
293.6916	0
293.9171	0
294.1672	3
294.3212	1
294.4306	0
294.5854	1
295.1303	12
295.5222	1
295.6770	1
296.0797	7
296.3226	2
296.5161	1
297.1643	17
297.7204	1
298.1504	6
298.3803	1
298.5105	1
298.7042	1
298.9151	1
299.1986	21
299.7632	1
300.1515	6
300.2892	3
300.4540	1
300.7921	1
301.1656	10
301.4353	2
301.6192	1
301.8179	2
302.0711	4
302.2716	3
303.1518	12
303.5750	0
304.0206	1
304.2913	4
304.5009	1
305.1803	10
305.6822	1
306.0504	4
306.2948	1
306.4806	1
306.8555	1
307.1700	7
307.4577	2
307.5971	1
307.7636	1
308.0967	5
308.2691	4
308.8150	0
309.1762	14
309.4385	1
309.6489	1
309.7867	1
310.1521	6
310.5283	1
311.1612	15
311.5557	1
311.7265	3
312.1788	6
312.3356	2
312.7575	1
313.1760	16
313.4766	1
313.6070	1
313.8118	1
314.1867	4
314.3759	1
314.5121	1
314.7624	2
315.1803	16
315.5537	2
315.7115	1
315.8676	1
316.2105	4
316.5402	1
316.7947	0
317.1360	9
317.3351	5
317.8467	2
318.1674	4
318.3931	1
318.8304	1
319.1603	7
319.3778	2
319.5002	1
319.8938	1
320.1526	3
320.3213	1
320.8060	2
321.1476	8
321.5265	1
321.6249	1
322.1478	4
322.6939	0
322.8048	1
323.1606	8
323.3891	3
323.5885	1
323.8376	1
324.1679	5
324.3790	2
324.6091	0
325.1481	12
325.6383	2
326.2287	5
326.5028	1
326.7488	1
327.1679	13
327.4487	0
327.5937	1
327.7362	1
328.1239	5
328.3203	3
328.6119	1
328.8241	1
329.2061	14
329.7406	1
329.9743	2
330.2653	5
330.4998	2
330.7154	2
331.1879	8
331.5453	1
331.7235	0
332.0204	3
332.1638	2
332.3670	1
332.6000	1
333.1424	4
333.4087	1
333.5273	0
333.7131	0
334.1594	3
334.6870	1
334.7858	0
335.1508	11
335.6869	0
336.1467	6
336.3882	1
336.7235	1
337.1468	10
337.3286	3
337.5262	1
337.6690	0
338.1763	5
338.4594	1
338.8571	1
339.2342	8
339.4476	2
339.6943	1
340.1794	3
340.4236	1
340.5016	1
340.8214	0
341.1870	10
341.5417	2
342.1575	4
342.3461	3
342.5970	1
342.6893	0
343.1339	5
343.3251	5
344.1314	3
344.3517	0
344.5071	0
344.8588	0
345.1964	5
345.4184	2
345.7219	1
346.2117	3
346.4246	1
346.8163	2
347.1100	5
347.2830	2
347.4102	1
347.6040	1
347.9909	3
348.1906	1
348.5167	1
348.6523	1
348.7654	1
349.1998	7
349.3404	3
349.6450	1
349.8289	2
350.1318	2
350.3141	2
350.5796	1
351.1881	8
351.4820	0
352.1863	5
352.6301	1
353.2138	10
353.6801	0
354.2195	4
354.5419	1
354.6367	0
355.2400	6
355.6207	1
355.8185	0
355.9740	1
356.2325	3
356.7263	1
357.2027	6
357.4488	1
357.6717	0
357.9818	1
358.1282	1
358.2696	2
358.3527	1
359.0555	1
359.3391	2
359.8141	1
360.0029	1
360.2042	1
360.6934	1
360.9330	1
361.2225	2
361.3923	1
361.7967	1
362.0064	1
362.2444	1
362.4707	1
362.5923	1
363.1066	6
363.4687	1
364.0006	1
364.1779	2
364.5575	2
364.6857	1
364.8814	0
365.2061	10
365.5025	0
365.7981	1
366.1704	3
366.4435	1
367.2131	12
367.6995	0
367.8195	0
368.0261	3
368.2102	4
368.3710	1
368.6817	1
368.8242	1
368.9150	0
369.2566	15
369.5474	1
369.9332	1
370.2582	2
370.5282	1
371.1883	5
371.7709	1
372.0477	1
372.3111	2
372.5303	1
372.7446	1
373.1790	2
373.5408	0
374.0103	1
374.1729	1
374.3597	1
375.1828	8
375.3596	2
375.7975	1
375.9961	3
376.1112	3
376.3055	2
376.4540	1
376.8945	1
377.2516	4
377.4527	1
377.9625	0
378.1861	2
378.2921	1
378.4306	1
378.5574	0
378.7686	1
379.1983	7
379.3928	3
380.2458	4
380.4612	1
380.6849	1
380.8828	1
381.2350	9
381.6007	2
381.8462	0
382.2603	4
382.4666	1
382.6160	1
382.7012	0
383.2264	10
383.6013	0
383.9517	1
384.2513	3
384.6735	1
385.2635	8
385.3596	4
385.9814	1
386.2343	1
386.6750	1
387.2193	2
387.5591	1
387.7779	1
388.2755	1
388.6437	1
389.1832	4
389.2892	2
389.4688	2
389.7060	2
390.2155	3
390.4410	1
390.8820	1
391.2278	4
391.6664	1
392.1602	2
392.2905	3
392.4718	2
392.8896	1
393.0132	1
393.2689	3
393.4653	2
393.6926	1
393.8764	0
394.2115	2
394.3595	2
394.8609	1
395.2137	9
395.4861	2
396.2861	5
396.5286	1
396.7250	1
396.9474	1
397.2317	6
397.4700	1
397.9341	0
398.1347	3
398.3421	2
398.7076	0
399.2389	8
399.6790	1
399.9981	3
400.2603	4
400.5728	2
400.7699	1
401.0731	3
401.2369	5
401.3923	1
401.6086	1
402.1442	1
402.8536	0
403.2363	5
403.3867	1
403.5321	1
404.2692	2
404.7782	1
405.1644	2
406.2068	1
406.3832	1
406.8146	1
406.9157	0
407.2159	1
407.3773	2
408.2628	2
408.5320	1
408.7637	1
409.2144	6
409.5222	1
410.2566	5
410.5819	1
411.2687	15
411.6494	1
412.1020	2
412.2886	2
412.4935	0
413.2190	4
413.5027	1
414.1738	2
414.3420	2
415.1974	3
415.4284	0
415.6360	1
416.3031	1
416.4094	1
416.6204	0
417.0858	1
417.3445	3
418.1257	1
418.3451	1
418.9991	1
419.1389	1
419.3692	1
420.1505	2
420.4655	1
421.3139	1
421.6071	1
421.7520	1
422.0637	1
422.2580	3
422.3443	1
422.8637	1
423.2726	3
423.4469	1
423.9161	1
424.2990	4
424.7875	1
424.9861	0
425.1077	1
425.3650	2
425.5611	1
426.2022	6
426.3900	3
426.7680	1
426.9624	2
427.2575	8
427.4268	4
427.7722	1
428.1394	4
428.3138	4
428.4722	1
428.7506	1
428.8671	1
429.0465	1
429.2880	1
429.5949	1
429.7140	1
430.0552	0
430.2900	3
431.3710	2
431.5219	1
431.8692	1
432.1577	0
432.2953	1
432.4077	0
433.3069	1
433.7115	0
434.2622	1
435.1805	2
435.5330	0
435.8477	1
436.0294	1
436.2689	3
437.3481	3
437.5717	0
437.7777	1
438.0080	1
438.2349	1
438.4401	1
438.5799	0
438.9719	1
439.2382	1
439.4568	1
440.4811	0
440.6713	1
440.9946	2
441.2032	4
441.3682	1
441.4855	0
441.8726	2
442.1524	5
442.3643	4
442.6283	1
442.8427	1
443.2793	10
443.4603	3
443.7401	1
443.9781	0
444.2471	3
444.4264	2
444.7080	0
445.3005	1
446.0800	0
446.4094	2
447.2107	1
448.0029	0
448.7088	1
449.2781	1
449.8667	1
450.0864	1
450.2189	1
450.5149	0
451.0641	1
451.3476	2
451.6570	1
452.0247	1
452.5614	1
453.0220	2
453.3076	1
453.5622	1
454.1619	1
454.4141	0
455.1813	3
455.3899	2
455.6287	1
456.1388	0
456.3156	1
456.9398	1
457.3118	8
458.0030	1
458.2117	1
458.3801	1
458.6483	1
459.2860	22
459.7494	1
460.2179	2
460.9278	0
461.2321	1
461.3251	0
462.4970	0
462.8969	0
463.3035	3
463.7151	0
464.2626	1
464.9334	1
465.1539	0
465.2898	1
465.5984	1
466.0219	1
466.1090	0
466.3958	0
467.2865	1
468.2091	1
468.4968	0
468.6839	0
469.2451	3
469.4531	1
470.2123	7
470.5102	2
470.6704	1
471.2233	13
471.8912	1
472.1580	2
472.3653	0
472.5558	1
472.7194	0
472.9015	0
473.0828	1
473.4084	1
474.0529	1
474.3768	1
475.1935	2
475.2984	1
475.4998	0
476.0631	2
476.1789	1
477.1250	3
477.3617	2
477.5598	1
478.1148	1
478.5699	0
478.8965	0
479.3507	2
479.5421	1
480.2097	1
480.9647	0
481.2754	0
481.5021	1
481.6348	1
481.8616	1
482.1992	0
482.8006	1
483.2491	1
483.3995	2
483.5641	1
483.8363	0
484.0690	1
484.2479	4
484.3571	2
485.0199	1
485.2451	3
485.4047	2
486.0289	1
486.2297	1
486.3835	1
486.8708	0
487.1540	2
489.1405	1
489.3061	2
490.1878	1
490.5789	1
490.9030	1
491.3857	1
491.5150	1
492.0313	0
492.3965	1
493.1270	1
493.3411	1
493.4796	1
494.1085	1
494.3185	0
495.2800	2
495.4664	1
495.9879	1
496.2592	1
496.4675	1
496.8538	0
497.3040	1
497.5770	1
498.3624	1
499.0772	1
499.2133	1
500.2920	3
500.4533	1
501.2641	3
501.4775	1
501.5783	0
501.8901	1
502.0691	1
502.2111	1
502.4346	1
502.5295	0
502.8371	1
503.1883	1
503.3883	2
503.5589	1
503.9858	0
504.3640	1
504.5204	0
505.1692	0
505.3524	1
505.5272	1
505.7138	1
505.8155	0
506.3140	1
506.9973	0
507.3126	3
507.4025	1
507.5505	1
507.7422	1
508.0793	1
508.3802	0
509.2033	1
509.3067	0
509.4665	1
509.8322	1
510.0626	1
510.4014	2
511.0547	1
511.2768	0
511.4231	0
511.7376	0
511.8721	0
512.1782	2
512.2917	0
512.9031	1
513.3279	1
513.7786	0
514.1731	1
514.4280	1
514.5314	1
514.8998	1
515.2051	2
515.3330	1
515.4920	1
516.2146	1
516.3525	0
516.5797	1
516.8674	1
517.0861	1
517.2594	0
518.0738	1
518.2168	2
518.3237	1
519.2139	2
519.4074	3
519.6705	0
520.2198	1
520.4114	1
521.1851	1
521.4540	1
521.9186	1
522.1589	1
522.5420	1
522.9058	1
523.0814	0
523.3621	2
523.6376	1
523.7839	1
524.2141	1
524.9216	1
525.1452	2
525.3200	1
526.2075	1
526.3983	2
526.8000	1
527.2396	2
527.4043	2
527.9783	1
528.1129	1
528.3246	1
528.5818	2
529.0248	0
529.2947	4
529.4847	1
529.5822	0
529.8453	1
530.0387	1
530.2842	3
530.4246	1
530.5910	1
530.8373	0
530.9819	1
531.2341	2
531.3199	1
531.5427	2
531.9118	1
532.2178	1
533.1158	1
533.2521	1
533.5489	1
533.8903	0
534.3461	1
535.2972	1
535.4578	2
535.8262	1
536.3350	4
536.4772	1
536.6917	2
537.0634	2
537.2745	1
537.4427	1
537.8911	1
538.1484	2
538.3074	1
538.7019	0
538.8424	1
539.2218	3
539.4615	0
540.1665	3
540.3406	3
540.4904	1
540.7268	1
541.1104	1
541.4142	1
541.6270	1
542.2168	2
542.3456	1
542.5105	2
542.8538	1
543.1011	1
543.4285	1
543.6742	1
544.1420	2
544.2405	1
544.4231	1
544.6057	1
544.9348	1
545.2419	3
545.4894	1
545.6257	1
545.9699	1
546.3259	1
546.4926	2
546.8351	1
546.9647	1
547.3115	2
547.5328	2
548.0993	0
548.4093	2
548.5042	1
548.8711	0
549.1138	1
549.3749	2
549.5361	2
549.8628	1
550.2390	1
550.3893	1
550.6740	2
550.9914	1
551.2089	2
551.4692	1
551.8010	1
551.9891	2
552.1243	2
552.3460	1
552.4771	1
552.7013	1
553.0624	1
553.4009	2
553.5580	0
554.2853	7
554.4718	3
554.6852	0
554.9598	1
555.5226	1
555.6697	1
555.9158	2
556.3182	1
556.4341	1
556.9037	1
557.4053	1
557.5884	1
558.0480	1
558.2043	0
558.4563	0
558.6109	1
558.7865	1
558.9924	2
559.4335	0
559.6646	1
560.0326	1
560.1578	1
560.3048	1
560.4687	0
560.6771	1
560.9973	1
561.2611	4
561.3947	2
561.5426	1
561.6998	0
561.9132	1
562.3527	4
562.7048	1
562.8318	1
563.3032	5
563.5067	1
563.6310	1
564.3009	2
564.4833	3
564.8741	0
565.0918	3
565.3019	1
565.5364	2
565.8391	1
566.1728	3
566.3459	1
566.4527	0
566.6696	2
566.9352	2
567.1916	2
567.3665	2
567.5665	3
567.9810	1
568.1491	2
568.2702	1
568.4391	1
568.8292	1
569.0344	1
569.4346	1
570.2173	1
570.3721	2
570.5503	3
570.8303	3
571.0161	0
571.2129	3
571.6072	1
571.7947	1
572.2169	1
572.6096	2
572.8719	1
572.9956	0
573.2428	1
573.5136	1
573.8239	2
574.3891	1
574.5480	1
574.8811	1
575.1157	0
575.2873	2
575.3748	1
575.5236	1
575.6498	1
575.7608	1
576.1452	3
576.3773	1
576.8677	0
577.2488	2
577.7341	2
577.9755	2
578.1539	1
578.3751	1
578.6670	1
578.8613	0
579.2458	5
579.4965	5
579.6899	1
579.8288	1
580.0719	3
580.3420	8
580.4908	3
580.8341	0
580.9805	1
581.2649	3
581.3860	1
581.6326	1
581.7664	1
581.9211	1
582.2535	6
582.4622	5
582.7424	1
582.8535	1
583.2506	3
583.4240	3
583.6234	1
583.7563	1
583.9196	1
584.2822	1
584.4194	1
584.7021	2
584.8183	2
585.0438	1
585.2609	2
585.4705	1
586.1698	4
586.4391	3
586.8743	3
587.1595	1
587.3472	2
587.6317	2
587.9962	3
588.3379	4
588.4759	1
588.6594	2
588.8505	0
589.0693	2
589.2461	3
589.4683	6
590.3395	17
590.8657	5
591.1687	5
591.4002	6
591.9634	6
592.4205	10
592.8348	9
593.0528	5
593.3601	8
593.9191	5
594.0513	2
594.3115	4
594.5456	3
594.8689	3
595.1367	2
595.3707	5
595.5358	2
595.6334	1
595.9218	2
596.3420	4
596.5395	3
596.6883	1
596.9337	1
597.3069	4
597.4196	1
597.5557	2
597.7642	2
597.9727	3
598.5745	2
598.8570	0
599.0948	1
599.4244	1
599.6934	1
599.9860	2
600.1272	2
600.4896	2
600.7872	1
601.0941	1
601.3572	2
601.5110	1
601.6464	1
601.8818	4
602.3627	7
602.7529	4
603.4163	12
604.8281	12
605.8767	11
606.2072	9
607.3745	46
608.4224	10
608.8884	3
609.2845	7
609.7563	6
610.1929	7
610.6656	10
611.3865	9
611.9955	11
612.2798	4
612.6979	4
613.1388	7
613.3196	6
613.5400	4
613.8379	5
614.1677	5
614.4772	4
614.7036	2
614.8954	4
615.2059	4
615.7199	3
616.0211	1
616.3156	3
616.5916	1
616.7498	2
616.9197	1
617.1411	2
617.2942	1
617.4827	2
617.7999	2
618.0330	1
618.2341	1
618.4318	2
618.5673	1
618.7936	1
618.9376	1
619.2304	2
619.4913	1
619.7008	1
619.8994	2
620.1199	1
620.3379	2
620.7334	1
621.4042	13
621.7059	4
622.3994	95
623.3904	109
623.8839	5
624.1764	4
624.4118	6
624.5404	3
624.6329	1
624.7556	1
624.9465	2
625.1415	1
625.3483	3
625.6274	1
625.9838	2
626.2268	3
626.4185	3
626.5707	2
626.7220	2
626.9263	2
627.3105	2
627.5610	1
628.0235	1
628.2673	1
628.4658	1
628.6591	0
628.8046	1
628.9719	1
629.2552	1
629.5378	1
629.8018	2
630.1003	1
630.3005	1
630.4568	1
630.6074	1
630.7781	1
631.1027	1
631.3322	1
631.4836	1
631.6013	1
631.7477	1
631.9554	2
632.1362	1
632.2388	1
632.4641	1
632.5709	1
632.9124	1
633.0806	0
633.3690	1
633.5844	1
633.8181	1
634.0326	2
634.3622	1
634.6945	2
634.8745	2
635.1268	1
635.3203	1
635.6163	1
635.7315	1
636.0360	2
636.1252	1
636.4347	3
636.9108	1
637.2009	3
637.4592	1
637.7393	1
638.3904	10
639.3889	29
639.9828	2
640.3900	15
640.6390	5
640.9730	1
641.2153	2
641.5812	1
641.9851	1
642.1921	1
642.6497	1
643.1773	0
643.4028	1
643.6711	1
644.0498	1
644.2534	0
644.4243	0
644.5984	1
644.8500	1
644.9366	0
645.0486	0
645.4357	1
645.6166	2
646.0204	1
646.4538	1
646.7822	1
648.0733	0
648.2195	0
648.3816	1
648.8655	1
649.1016	1
649.3653	4
649.7039	0
650.2113	1
650.5684	2
650.6608	1
650.8632	1
651.2262	2
651.3480	1
651.6379	1
652.0059	1
652.1462	4
652.4100	2
652.5528	1
653.0712	2
653.5023	2
653.9072	2
654.0736	1
654.3736	3
654.5282	1
654.7223	3
654.8660	4
655.1996	1
655.5979	2
655.8575	4
656.1769	3
656.6029	4
656.8995	6
657.1340	6
657.3071	7
657.4920	3
657.6920	3
657.8323	4
658.3231	6
658.7257	4
659.5687	8
660.1191	7
660.5529	7
660.9714	6
661.6531	10
662.2431	11
662.5751	7
663.0526	8
663.3384	8
664.4320	41
664.8151	16
665.4390	14
666.2116	11
666.5786	11
667.4041	58
668.0197	8
668.4891	9
668.9779	6
669.5414	10
670.0143	13
670.5493	8
671.0692	12
671.5051	8
672.2166	12
672.8490	10
673.5663	11
682.3963	999
683.3845	318
684.2450	137
685.0669	70
685.9997	43
