Mass spectrum: Canthaxanthin; FAB-EBEB; MS2; m/z: 564.40; [M]+*
Name: Canthaxanthin
Formula: C40H52O2
Exact mass: 564.39673
SMILES: C(C(C)=1)(=O)CCC(C(C=CC(C)=CC=CC(=CC=CC=C(C)C=CC=C(C=CC(=C2C)C(CCC2=O)(C)C)C)C)1)(C)C
InChI: InChI=1S/C40H52O2/c1-29(17-13-19-31(3)21-23-35-33(5)37(41)25-27-39(35,7)8)15-11-12-16-30(2)18-14-20-32(4)22-24-36-34(6)38(42)26-28-40(36,9)10/h11-24H,25-28H2,1-10H3/b12-11+,17-13+,18-14+,23-21+,24-22+,29-15+,30-16+,31-19+,32-20+
Instrument: JMS-HX/HX 110A, JEOL
Instrument type: FAB-EBEB
Ms type: MS2
Ion mode: POSITIVE
Collision energy: 3 kV
Ionization: FAB
Base peak: 91.0633
Precursor m/z: 564.40
Precursor type: [M]+*
m/z	relative intensity
1.0096	0
8.1322	0
9.5105	0
11.9900	0
12.9967	0
13.6285	1
14.0109	1
15.0201	4
16.4797	0
19.1665	0
22.9746	1
23.9650	0
24.1825	0
24.9984	2
25.3872	0
25.5503	0
26.0080	14
27.0180	82
28.0256	12
28.5992	0
29.0309	57
29.5206	0
30.0189	0
31.0082	2
35.1114	1
35.9987	1
36.3820	0
36.9968	11
37.3080	0
37.6070	0
38.0081	29
39.0191	206
40.0252	26
40.4519	0
41.0359	399
42.0304	15
42.7077	1
43.0292	257
44.0449	1
44.4995	0
45.0262	3
45.8859	0
46.9228	0
47.9962	0
48.7223	1
49.0042	8
49.1998	1
50.0118	76
51.0210	172
52.0326	63
53.0342	223
54.0367	13
55.0411	596
56.0609	70
57.0514	50
57.5025	1
58.0525	1
59.0502	5
59.9769	2
61.0161	15
62.0179	50
63.0261	151
64.0386	31
65.0375	229
66.0415	35
66.4418	1
67.0494	251
67.6595	0
68.0587	8
69.0681	666
70.0631	19
71.0689	24
72.0672	1
73.0298	4
74.0125	45
75.0279	62
76.0317	40
77.0361	591
78.0473	124
79.0491	411
80.0588	48
81.0639	335
81.5305	1
82.0392	7
82.4920	1
83.0623	95
83.6586	0
84.0592	4
84.5738	0
85.0751	10
86.0139	19
87.0183	36
88.0444	12
89.0475	89
90.0708	29
91.0633	999
92.0695	95
93.0820	479
94.0833	37
95.0863	212
96.0642	13
97.0791	119
98.0428	14
99.0553	14
99.4541	1
99.6354	0
100.0607	4
101.0563	30
102.0577	83
103.0701	216
104.0700	102
105.0809	964
106.0923	81
107.0962	356
108.0918	34
109.0957	143
110.0708	14
111.0793	86
112.1014	2
113.0573	28
114.0946	30
115.0547	684
116.0631	231
117.0662	511
118.0709	105
119.0770	931
120.0818	91
121.0746	311
122.0633	50
123.0723	112
124.0569	16
125.0659	19
126.0409	51
127.0456	277
128.0475	728
129.0507	730
130.0564	247
131.0661	560
132.0620	140
133.0577	774
134.0614	82
135.0719	200
136.0592	30
137.0765	261
138.0660	46
139.0566	199
140.0593	51
141.0574	626
142.0622	494
143.0694	703
144.0720	243
145.0798	651
145.5931	6
146.0789	106
147.0831	472
148.0716	65
149.1027	93
150.0708	40
151.0746	92
152.0681	318
153.0737	386
154.0816	187
155.0918	571
156.0986	347
157.1021	641
158.1079	155
159.1173	379
160.1162	82
161.1231	209
162.1335	42
163.1124	169
164.1103	55
165.0992	645
166.1099	211
167.1158	415
168.1183	163
169.1267	485
170.1259	173
171.1328	366
172.1207	98
173.1333	234
174.1226	49
175.1310	171
176.0946	85
177.1228	85
178.0948	353
179.0973	468
180.1104	184
181.1114	431
182.1172	158
183.1166	399
184.1280	100
185.1143	266
186.1013	57
187.1216	188
188.1126	48
189.0984	254
190.1034	98
191.0947	262
192.1037	192
193.1032	361
194.1133	183
195.1168	414
196.1123	134
197.1226	307
198.1148	57
199.1205	173
200.0950	91
201.1204	162
202.0874	191
203.1138	261
204.1076	76
205.1077	198
206.1140	138
207.1180	275
208.1310	122
209.1316	272
210.1269	67
211.1385	191
211.7081	4
212.1521	37
213.1400	163
214.1530	35
215.1317	287
216.1225	85
217.1339	175
218.1371	79
219.1451	178
220.1564	85
221.1551	198
222.1629	64
223.1726	167
224.1624	54
225.1700	111
226.1620	65
227.1748	94
228.1499	78
229.1670	133
230.1802	63
231.1632	121
232.1684	62
233.1754	137
234.1829	60
235.1863	121
236.2017	34
237.1855	124
238.1973	33
239.1672	139
240.1608	41
241.1765	101
242.1591	36
243.1595	92
244.1662	48
245.1775	107
246.1877	46
247.1954	116
248.1946	35
249.2014	92
250.1851	27
251.2014	84
252.1858	46
253.1953	92
254.1932	29
255.1984	93
256.1833	31
257.2053	79
258.2070	36
259.2061	92
260.2245	32
261.1963	82
262.2315	23
263.2082	68
264.1808	23
265.1978	74
266.2062	24
267.2135	83
268.2210	27
269.2347	55
270.2237	28
271.2321	56
271.6147	3
272.2085	22
273.2126	53
274.2259	21
275.2306	58
276.1811	23
277.2466	56
277.7294	2
278.2344	21
279.2415	65
280.2446	21
281.2449	69
282.2307	25
283.2610	58
283.7077	3
284.2502	16
285.2412	36
286.2398	16
287.2726	47
288.2381	15
289.2417	41
290.1851	12
291.2215	35
292.2361	10
293.2318	40
294.2439	17
295.2429	40
296.2304	15
297.2077	26
298.1483	9
299.2251	29
300.2281	11
301.2329	23
302.2216	13
303.2180	31
304.2057	11
304.5694	1
305.2409	27
306.2038	9
306.6032	1
307.2202	26
308.2486	11
309.2417	18
310.2158	6
311.2330	18
312.2164	9
313.2473	23
313.7554	2
314.2488	7
315.2120	28
316.2420	8
317.2471	26
318.2657	7
318.6927	2
319.2666	19
320.2752	5
321.2350	11
321.7321	1
322.2217	5
322.5155	2
323.2442	8
323.5885	1
324.2669	6
325.2170	14
326.2459	6
327.2469	13
328.2688	5
328.6134	1
329.2701	21
330.2597	10
331.2645	25
332.2731	6
333.2671	24
334.2538	10
335.2822	23
335.7794	2
336.2395	5
337.2712	6
338.2719	5
339.2728	13
340.2085	7
341.2676	10
342.2586	4
342.6702	1
343.2675	15
344.3123	6
345.2725	17
346.2701	10
347.2990	27
348.2878	10
349.3171	28
350.2542	4
351.2614	9
352.2658	5
352.7599	1
353.2644	4
353.5605	2
353.7645	1
354.2750	3
355.1994	9
356.3741	6
357.3078	12
358.3423	3
359.2920	21
360.3534	13
361.3316	54
362.3398	18
363.1842	3
364.2314	3
365.3084	7
366.3305	3
366.7358	1
367.2887	6
367.7090	1
368.2812	4
369.3380	8
370.2057	2
370.5307	1
371.3134	10
372.3547	9
373.3257	20
374.3712	6
375.3231	5
376.2885	2
376.4792	1
376.9008	1
377.3702	4
377.9647	1
378.4163	1
378.7024	1
379.3418	6
380.3494	6
381.2826	5
381.7760	1
382.2844	2
382.8078	1
383.3401	7
383.7860	0
384.3228	3
385.3132	5
385.7457	2
386.4155	5
387.2941	3
388.4221	2
389.3591	4
389.6561	1
390.0814	2
390.2694	1
390.4858	0
391.2455	2
391.5470	1
392.2934	1
393.2846	5
393.5891	1
394.3013	4
395.3719	4
396.0618	1
396.3740	2
396.6383	2
397.3507	7
397.8824	1
398.3126	3
398.9102	1
399.3792	11
399.8035	2
400.3727	7
401.3963	10
402.3855	4
403.3524	4
403.7520	1
404.2754	2
405.2893	4
405.6905	2
406.0439	2
406.4421	2
407.4131	4
408.3156	1
409.3822	2
410.3744	4
411.3785	13
412.3589	9
412.7201	1
413.3425	7
413.7962	0
414.3380	5
415.2679	3
416.3488	3
416.7653	1
417.3521	2
418.3719	1
418.8453	0
419.3963	3
420.3830	6
421.4004	6
422.2956	3
422.5656	1
423.4146	4
423.9309	1
424.2756	1
424.6308	1
425.3218	4
426.3934	14
427.3323	3
427.7249	1
428.2474	3
429.2043	2
430.0494	2
430.5466	1
431.2992	1
432.1952	1
433.0300	2
433.4467	2
434.0128	1
434.3563	1
435.3646	4
435.7142	2
436.8346	2
437.3008	4
437.9597	2
438.3466	3
439.1446	6
439.5077	2
439.8141	1
440.3685	2
441.2278	2
441.4341	1
442.9109	8
444.3818	2
445.3372	3
445.8306	1
446.4690	1
446.7980	1
447.2286	1
447.5800	0
448.2171	2
448.6134	2
449.4749	2
450.3977	4
451.4657	6
452.9422	5
454.4234	5
455.5352	6
456.5647	5
457.4001	8
458.3878	7
458.8302	1
459.1710	1
459.4878	2
460.0229	0
460.4653	1
461.3816	2
461.7164	1
461.9631	1
462.2979	1
462.6791	1
463.4057	5
464.2265	1
464.7767	1
465.4481	3
466.4126	26
467.3681	2
467.7944	1
468.4060	2
468.8951	1
469.3468	2
469.8614	1
470.5330	4
471.3766	7
472.4208	130
473.3424	3
473.6731	2
474.1234	1
474.4541	1
474.7773	1
475.3743	4
475.7859	1
476.2318	1
476.5206	1
476.8019	1
477.3781	2
477.9543	2
478.4258	6
478.8194	2
479.4226	6
479.7279	2
480.4375	3
481.3521	1
482.2708	1
482.6863	1
483.3650	2
483.8821	1
484.4203	10
485.4459	15
486.5238	2
486.8766	1
487.4538	1
488.2597	2
489.2392	3
489.7776	1
490.4969	2
491.3419	3
491.8489	1
492.5055	3
493.4119	5
494.4695	3
495.4299	7
495.7441	3
496.0089	1
496.4413	1
497.3479	3
498.4357	3
498.8292	2
499.2617	3
499.7989	2
500.1820	2
500.7012	2
501.0784	1
501.5184	1
501.8835	1
502.2098	1
502.9417	2
503.3937	1
504.1765	2
504.4190	2
504.6645	1
505.4773	2
506.4698	4
506.8307	0
507.0747	0
507.5028	4
507.8846	1
508.4811	36
509.5623	2
510.3658	0
510.8541	1
511.1902	1
511.6487	1
512.1266	1
512.5001	1
512.9332	1
513.3560	1
514.2179	1
514.8916	2
515.1904	2
515.4742	1
516.1749	1
516.5842	0
516.9129	0
517.4045	3
517.9379	1
518.4205	3
518.8822	1
519.4022	6
519.7234	2
520.4841	9
521.5825	3
522.3118	2
522.6212	1
522.9589	1
523.5074	3
523.7809	1
524.1890	1
524.6419	1
524.9543	1
525.3190	1
525.7211	2
526.1337	4
526.6644	3
526.9948	3
527.4567	2
528.2012	1
529.1670	2
531.3245	15
532.4969	5
533.5466	7
534.3990	10
535.4953	100
536.4286	24
537.3500	2
538.2579	2
539.2766	3
539.7134	2
540.2385	2
541.3650	5
542.8312	9
543.7260	8
546.3805	64
547.4864	20
548.4651	29
549.4889	227
550.4603	9
564.4359	999
566.9438	110
568.5950	27
569.6913	15
570.6801	7
571.6807	6
572.3180	5
