Mass spectrum: Ricinoleic acid; FAB-EBEB; MS2; m/z: 297.24; [M-H]-
Name: Ricinoleic acid
Class: Natural Product; Lipid
Formula: C18H34O3
Exact mass: 298.25079
SMILES: CCCCCCC(O)CC=CCCCCCCCC(O)=O
InChI: InChI=1S/C18H34O3/c1-2-3-4-11-14-17(19)15-12-9-7-5-6-8-10-13-16-18(20)21/h9,12,17,19H,2-8,10-11,13-16H2,1H3,(H,20,21)/b12-9-
Instrument: JMS-HX/HX 110A, JEOL
Instrument type: FAB-EBEB
Ms type: MS2
Ion mode: NEGATIVE
Collision energy: 3 kV
Ionization: FAB
Base peak: 297.3250
Precursor m/z: 297.24
Precursor type: [M-H]-
m/z	relative intensity
15.8935	0
16.8893	0
24.8729	0
26.8864	0
37.8978	0
38.9417	0
39.9452	0
40.9357	0
42.9167	0
43.8957	1
44.8969	0
50.9480	0
53.9122	0
54.9362	0
57.9029	11
58.9033	0
66.6991	0
68.9542	0
70.8976	15
71.9137	2
72.9131	0
80.7935	0
81.0380	0
82.9406	0
83.9202	0
84.9574	0
85.9431	2
86.9935	0
94.9540	0
96.9106	0
97.0828	0
98.9688	3
99.9766	1
109.0169	0
111.0488	0
113.0543	8
114.0277	1
114.9567	0
115.1026	0
125.0504	0
125.6690	0
127.0620	36
128.0711	1
129.0128	0
130.9857	0
135.1750	0
137.1312	0
139.0068	0
139.2240	0
141.0565	2
142.1100	0
142.9392	0
153.1007	0
155.0756	1
160.7080	0
160.8910	0
161.3007	0
163.0772	0
165.0962	1
167.0758	2
168.0257	0
169.1068	1
170.9500	0
176.4832	0
179.1637	0
180.1020	0
180.6230	0
181.1319	37
182.1351	14
182.4590	0
183.1542	77
184.2054	0
185.1223	0
191.1351	0
193.1688	0
195.1249	4
196.1251	0
197.1328	0
198.1597	0
203.7112	0
207.1145	0
208.1376	0
209.1395	3
210.0204	0
210.3798	0
210.5817	0
211.1266	27
211.6138	0
212.1151	0
212.3855	0
213.1334	0
221.2159	0
223.2431	3
223.5968	0
225.2484	2
226.1806	0
227.2217	0
235.1264	0
235.3507	0
236.2058	0
237.2509	6
238.1232	0
239.2110	3
240.1652	0
241.1734	0
245.1842	0
248.5681	0
249.1572	0
250.1203	0
251.1875	4
251.5499	0
252.2805	0
252.7469	0
253.1721	6
254.1597	0
255.1738	0
258.4749	0
261.2852	0
263.2744	0
265.2370	1
265.5646	0
267.2140	8
267.6604	0
267.8238	0
268.2001	0
268.6046	0
269.1897	0
271.2039	0
273.3060	1
277.2490	3
278.2963	2
279.3611	81
280.2727	0
281.2466	5
281.8455	0
282.2820	0
282.6083	0
282.8965	0
283.3082	0
288.7477	0
289.0687	0
289.7066	0
293.2958	3
295.3172	26
297.3250	999
298.1956	14
298.7408	6
299.1984	2
299.6346	1
299.9724	1
300.1856	0
300.4500	0
300.7838	0
301.1018	0
302.2536	0
302.9461	0
