Mass spectrum: Oleic acid; FAB-EBEB; MS2; m/z: 281.25; [M-H]-
Name: Oleic acid
Class: Natural Product; Lipid
Formula: C18H34O2
Exact mass: 282.25588
SMILES: CCCCCCCCC=CCCCCCCCC(O)=O
InChI: InChI=1S/C18H34O2/c1-2-3-4-5-6-7-8-9-10-11-12-13-14-15-16-17-18(19)20/h9-10H,2-8,11-17H2,1H3,(H,19,20)/b10-9-
Instrument: JMS-HX/HX 110A, JEOL
Instrument type: FAB-EBEB
Ms type: MS2
Ion mode: NEGATIVE
Collision energy: 3 kV
Ionization: FAB
Base peak: 281.4036
Precursor m/z: 281.25
Precursor type: [M-H]-
m/z	relative intensity
43.9306	1
57.9435	10
70.9424	15
71.9601	2
85.9877	3
99.0396	4
100.0543	3
113.1011	7
114.1309	1
127.1225	33
141.1360	2
155.1049	1
167.1677	2
181.1872	17
182.2025	19
195.1887	31
196.2087	1
209.2325	15
223.3277	11
237.2514	19
251.2636	15
252.3036	1
253.3110	1
263.3709	1
265.3149	10
279.3523	23
281.4036	999
