Mass spectrum: Mutatoxanthin; FAB-EBEB; MS2; m/z: 584.42; [M]+*
Name: Mutatoxanthin
Formula: C40H56O3
Exact mass: 584.42295
SMILES: C(O3)(C=C(C23C)C(CC(C2)O)(C)C)C(C)=CC=CC(C)=CC=CC=C(C=CC=C(C)C=CC(=C(C)1)C(C)(C)CC(C1)O)C
InChI: InChI=1S/C40H56O3/c1-28(17-13-18-30(3)21-22-35-32(5)23-33(41)25-38(35,6)7)15-11-12-16-29(2)19-14-20-31(4)36-24-37-39(8,9)26-34(42)27-40(37,10)43-36/h11-22,24,33-34,36,41-42H,23,25-27H2,1-10H3/b12-11+,17-13+,19-14+,22-21+,28-15+,29-16+,30-18+,31-20+/t33-,34+,36?,40-/m1/s1
Instrument: JMS-HX/HX 110A, JEOL
Instrument type: FAB-EBEB
Ms type: MS2
Ion mode: POSITIVE
Collision energy: 3 kV
Ionization: FAB
Base peak: 504.4802
Precursor m/z: 584.42
Precursor type: [M]+*
m/z	relative intensity
13.0247	0
14.0231	0
15.0349	3
18.9470	0
22.9965	1
25.0321	0
26.0250	3
27.0352	28
28.0433	3
29.0466	34
30.0479	1
31.0326	5
36.0114	0
37.0290	3
37.3213	0
38.0273	7
38.3404	0
39.0409	76
40.0449	10
41.0556	152
42.0545	4
43.0423	258
44.0496	4
44.6192	0
45.0485	6
46.9748	0
48.1401	0
49.0396	1
49.4041	0
50.0357	19
51.0388	49
52.0466	19
53.0555	91
54.0616	5
55.0696	222
56.0649	5
57.0869	167
58.0862	2
59.0708	31
59.5478	0
60.0709	0
60.4143	0
61.0389	2
61.3383	0
62.0473	11
63.0521	38
64.0487	8
65.0607	80
66.0643	14
67.0744	151
68.0809	8
69.0785	168
70.0785	4
70.5219	0
71.0655	42
71.5526	0
72.0713	1
73.0766	1
74.0339	9
75.0678	15
76.0482	10
77.0614	243
78.0687	46
79.0739	227
80.0715	38
81.0878	233
81.6773	0
82.0832	11
82.5424	0
83.0894	93
84.0678	3
85.0860	139
86.0576	5
87.0651	10
87.5865	0
88.0550	3
89.0956	26
90.0972	11
91.0890	537
92.0953	52
93.1038	386
94.1052	28
95.1109	311
96.0953	19
97.1024	42
98.0842	4
98.5333	0
99.1008	7
100.0632	2
101.0757	8
101.3898	2
102.0929	25
103.0942	89
104.1070	41
105.1092	646
106.1161	73
107.1247	305
108.1180	32
109.1224	194
109.6259	1
110.1201	13
110.5867	1
111.1069	30
112.0855	2
113.1007	8
114.0895	9
115.0840	260
116.0998	99
117.0961	275
118.0980	62
119.1057	667
120.1120	85
121.1099	302
122.0992	47
123.0998	147
124.0876	15
125.0767	221
126.0785	15
127.0745	96
128.0775	298
129.0789	361
130.0873	145
131.0927	396
132.0936	88
133.1043	359
134.1032	46
135.0947	229
136.0931	85
137.0904	99
138.0902	11
139.0752	47
140.0802	17
141.0746	257
142.0846	238
143.0928	443
144.0991	150
145.1079	505
146.1031	60
147.1081	258
148.1068	28
149.1123	136
150.1114	21
151.0953	233
152.0977	116
153.0938	143
154.1069	75
155.1092	278
156.1256	194
157.1297	437
158.1331	93
159.1463	287
160.1471	45
161.1427	114
162.1451	39
163.1423	113
164.1419	26
165.1273	367
166.1255	84
167.1378	195
168.1539	86
169.1584	280
170.1608	118
171.1655	258
172.1664	66
173.1665	169
174.1615	31
175.1720	123
176.1384	27
177.1428	56
178.1195	117
179.1283	201
180.1423	206
181.1480	438
182.1468	101
183.1493	269
184.1524	67
185.1622	151
186.1636	40
187.1580	80
188.1425	17
189.1352	106
190.1541	46
191.1268	107
192.1257	70
193.1343	239
194.1344	96
195.1366	234
196.1500	73
197.1503	212
198.1481	45
199.1570	101
200.1438	24
201.1523	55
202.1143	52
203.1345	98
204.1309	28
205.1294	95
206.1405	66
207.1445	179
208.1552	83
209.1557	162
210.1627	40
211.1672	104
212.1783	29
213.1624	58
214.1729	15
215.1517	71
216.1525	29
217.1690	77
218.1675	36
219.1696	96
220.1722	44
221.1920	318
222.1908	43
223.1916	102
224.2005	28
225.2083	62
226.1904	23
227.1821	37
228.1772	23
229.1836	61
230.1857	24
231.1978	63
232.2016	29
233.2058	81
234.2196	49
235.2168	74
236.2237	22
237.2233	60
238.2233	19
239.2004	43
240.2011	16
241.1836	36
242.1773	17
243.1991	44
244.2074	20
245.1898	44
246.2235	25
247.2267	86
248.2163	19
249.2278	51
250.2305	17
251.2381	34
252.2383	26
253.2265	34
254.2258	11
255.2223	36
256.2192	14
257.2377	44
258.2409	19
259.2350	49
260.2357	15
261.2382	35
262.2425	13
263.2534	32
264.2708	16
265.2403	31
266.2350	7
267.2455	26
268.2439	11
269.2581	32
270.2493	13
271.2641	48
272.2729	24
273.2618	34
274.2696	23
275.2613	23
276.2459	10
277.2776	20
278.2721	9
279.2591	17
280.2760	7
281.2651	22
282.2871	12
283.2830	34
284.2775	13
285.2785	46
286.2892	38
287.2985	52
288.2924	8
289.2992	20
290.2764	4
291.2662	15
292.3048	8
293.2829	12
294.2642	7
295.2833	16
296.2729	8
297.2799	31
298.2841	20
299.2822	80
300.2852	11
301.2713	16
301.6417	1
302.2654	6
303.2722	14
304.2715	12
305.2568	10
306.2424	3
307.2657	12
308.2455	6
309.2473	18
310.2995	10
311.2704	29
312.2901	35
313.2819	22
314.2596	4
315.2722	11
316.2676	4
317.2993	11
318.2403	4
319.2896	13
320.2733	3
321.2729	12
322.3024	7
323.2867	15
324.2774	8
325.2950	78
326.2924	4
326.5861	1
327.2836	6
328.2924	3
329.2824	9
330.2884	4
330.7144	1
331.2898	9
332.3024	4
333.2916	10
334.3187	6
335.3042	14
336.3249	11
337.2939	29
338.3196	9
339.2827	6
340.2647	2
341.2973	5
341.6996	1
342.3127	2
343.2622	7
344.2968	3
344.6632	1
345.3237	9
346.3335	7
346.6827	1
347.3151	10
348.3016	5
349.3056	14
350.3192	15
351.3408	27
352.3248	521
353.3057	16
354.2727	2
355.3138	4
356.3378	2
357.2847	4
357.6723	1
358.3436	3
359.3239	8
360.2949	4
361.3338	14
362.3602	9
363.3404	27
364.3523	16
365.3391	86
366.3607	2
366.7849	1
367.3257	3
367.7672	1
368.3113	3
368.6552	1
369.3918	3
370.3887	2
371.3700	6
372.3957	10
373.3647	13
374.3590	9
375.3693	17
376.3718	41
377.3763	19
378.3729	32
379.3964	11
380.2938	1
381.2939	3
382.2625	2
383.2850	3
384.3044	2
385.4075	5
385.8037	2
386.4130	11
387.3555	11
388.3864	18
389.3607	27
390.3619	8
391.3743	30
392.3331	4
393.3489	2
394.2526	1
394.6445	1
395.3461	2
396.3701	1
397.3880	2
397.6583	1
398.3870	9
399.3799	4
401.3769	8
402.4159	89
403.4171	33
404.4199	343
405.3612	5
406.2567	3
407.4244	2
408.4246	1
409.3822	1
410.5033	1
411.3877	4
412.4222	5
413.3968	3
413.8375	0
414.4726	2
415.4205	4
416.3859	3
417.3909	15
418.3802	5
419.4171	23
420.3718	2
421.3440	1
422.3906	1
423.4579	4
424.4004	2
425.4110	8
426.3971	3
427.3167	2
428.4275	3
429.3568	5
429.7376	1
430.4236	5
431.3941	20
432.4011	108
433.4034	3
433.8698	1
434.3741	2
434.6809	1
435.3355	2
436.3460	1
437.3724	4
438.4179	154
439.3971	4
440.4776	2
441.4553	4
442.3477	1
442.6752	1
442.8936	0
443.4490	2
443.8557	1
444.4001	4
445.4036	8
445.8135	1
446.4387	2
446.8851	1
447.4471	3
447.8223	1
448.4175	2
449.2962	2
450.4568	1
451.4022	6
452.5044	1
453.4420	2
454.2783	2
455.4616	2
456.6307	2
457.4657	4
457.7334	2
458.4005	2
459.3940	2
460.3211	1
461.3980	3
462.2921	3
463.3888	3
464.4350	21
465.4369	12
466.4643	1
467.4775	2
469.4503	4
472.0758	4
474.6211	10
476.3732	7
477.4410	12
478.4646	6
479.4565	3
479.7909	1
480.7370	1
481.6260	2
482.3630	1
483.3949	3
488.6980	35
491.4768	166
492.4824	74
493.1855	4
494.2150	3
494.8391	2
495.4124	2
496.5387	2
497.4971	2
498.3747	2
499.5250	3
501.4644	3
502.4500	9
504.4802	999
505.4454	16
506.3268	4
507.3254	2
508.2528	1
509.4909	2
510.4946	3
511.4792	3
512.4433	1
512.8397	1
513.5232	3
514.0545	1
514.4668	1
515.4529	1
515.9227	0
516.5128	1
516.8513	1
517.5363	1
518.0220	1
518.9918	1
519.7782	1
521.2165	1
522.3954	1
523.4652	3
524.4686	4
525.4910	4
526.4819	23
527.5330	3
528.4464	4
529.4468	2
530.4633	2
530.9208	0
531.7283	1
532.3332	0
533.4511	2
533.8818	1
534.3347	1
535.4575	1
536.6802	2
537.5655	2
538.4573	4
539.4885	10
540.4959	18
541.4591	6
541.8361	2
542.4572	3
543.1543	1
544.1334	2
545.2204	2
547.0237	3
548.4976	3
549.5610	2
551.3171	15
552.4885	3
553.4428	11
554.5176	10
555.5069	7
566.5281	384
567.5385	50
568.5331	53
569.5310	477
584.3780	999
587.9665	59
589.3359	20
590.4204	9
