Mass spectrum: beta-Cryptoxathin-5,6-epoxide; FAB-EBEB; MS2; m/z: 568.43; [M]+*
Name: beta-Cryptoxathin-5,6-epoxide
Formula: C40H56O2
Exact mass: 568.42803
SMILES: C(=CC(=C(C)3)C(C)(C)CCC3)C(C)=CC=CC(=CC=CC=C(C=CC=C(C=CC(O2)(C2(C)1)C(CC(C1)O)(C)C)C)C)C
InChI: InChI=1S/C40H56O2/c1-30(18-13-20-32(3)23-24-36-34(5)22-15-26-37(36,6)7)16-11-12-17-31(2)19-14-21-33(4)25-27-40-38(8,9)28-35(41)29-39(40,10)42-40/h11-14,16-21,23-25,27,35,41H,15,22,26,28-29H2,1-10H3/b12-11+,18-13+,19-14+,24-23+,27-25+,30-16+,31-17+,32-20+,33-21+/t35-,39+,40-/m0/s1
Instrument: JMS-HX/HX 110A, JEOL
Instrument type: FAB-EBEB
Ms type: MS2
Ion mode: POSITIVE
Collision energy: 3 kV
Ionization: FAB
Base peak: 105.1147
Precursor m/z: 568.43
Precursor type: [M]+*
m/z	relative intensity
13.0247	0
14.0369	1
15.0403	3
19.0219	0
22.9979	0
23.9817	0
25.0223	0
26.0297	4
27.0391	33
28.0461	3
29.0527	38
30.0382	0
31.0344	4
31.4668	0
36.0490	0
37.0357	3
37.3019	0
38.0322	9
38.6589	0
39.0467	92
39.4194	0
40.0482	10
40.5273	0
41.0603	250
41.5798	1
42.0605	7
42.5545	0
43.0429	664
44.0579	4
44.4822	0
45.0503	6
45.5420	0
45.9642	0
47.0129	0
48.0391	0
48.3334	0
49.0478	2
49.3913	0
50.0339	21
50.3495	0
51.0469	61
52.0535	22
53.0613	121
53.4826	0
54.0598	5
55.0738	375
55.7562	0
56.0817	8
57.0888	94
57.4751	0
58.0582	3
59.0750	15
60.0930	0
60.5711	0
61.0338	3
62.0480	15
63.0534	50
63.4721	1
64.0583	12
65.0648	99
66.0695	18
67.0781	183
67.6402	0
68.0833	9
69.0898	579
69.6815	0
70.0685	10
70.3931	0
71.0725	62
71.5210	0
72.0653	1
72.5715	0
73.0602	3
74.0437	12
75.0623	21
75.4317	2
76.0483	13
77.0684	333
78.0767	63
79.0792	334
80.0835	35
81.0918	412
82.0917	11
83.0981	180
83.5367	1
84.0655	2
84.4345	0
85.0886	102
85.6778	0
86.0724	6
86.6403	0
87.0702	149
88.0602	6
89.0679	32
90.0806	12
91.0957	716
92.1029	62
93.1110	499
94.1133	26
95.1211	418
96.1090	13
96.6024	0
97.1210	47
98.0764	5
98.5901	1
99.0899	11
100.0871	2
101.0875	15
101.4940	3
102.1003	37
103.1046	135
104.1120	60
105.1147	999
106.1205	92
107.1269	505
108.1182	32
109.1311	256
110.1005	8
111.1167	37
112.0732	2
112.2772	1
113.1060	29
114.1257	14
115.0894	360
116.0948	142
117.0991	378
118.0980	72
119.1119	900
120.1165	82
121.1211	381
122.1041	33
123.1129	232
124.1108	5
125.1032	74
126.0751	18
127.0810	135
128.0854	428
129.0897	530
130.0925	207
131.0978	528
132.1003	102
133.1108	533
134.1116	41
135.1121	141
136.0964	29
137.1232	71
138.1304	6
139.0807	65
140.1011	22
141.0880	376
142.0953	354
143.1009	630
144.1089	197
145.1151	704
146.1182	71
147.1278	250
148.1203	20
149.1332	71
150.1066	15
151.1088	71
152.1035	142
153.1047	220
154.1153	112
155.1225	449
156.1320	270
157.1382	629
158.1522	115
159.1530	449
160.1603	55
161.1656	163
162.1618	15
163.1504	54
164.1567	24
165.1340	335
166.1376	112
167.1504	285
168.1525	122
169.1635	405
170.1697	159
171.1709	375
172.1671	63
173.1811	217
174.1887	22
175.1899	134
176.1363	27
177.1701	75
178.1335	166
179.1345	265
180.1447	132
181.1470	329
182.1499	125
183.1535	371
184.1677	82
185.1668	217
186.1722	41
187.1740	120
188.1663	24
189.1434	97
190.1498	40
191.1281	132
192.1284	108
193.1336	277
194.1394	116
195.1501	334
196.1584	90
197.1586	289
198.1666	43
199.1737	136
200.1597	24
201.1851	80
202.1332	81
203.1568	115
204.1433	45
205.1390	112
206.1425	82
207.1551	205
208.1653	88
209.1716	216
210.1741	49
211.1828	136
212.1979	24
213.1960	63
214.2032	14
215.1644	93
216.1653	40
217.1637	83
218.1742	42
219.1793	118
220.1979	65
221.1995	164
222.2176	40
223.2098	129
224.2200	24
225.2189	70
226.2021	26
227.2237	49
228.1844	28
229.1937	64
230.1996	31
231.1987	85
232.1937	35
233.2096	100
234.2141	38
235.2220	95
236.2156	30
237.2300	79
238.2288	14
239.2293	68
240.2551	16
241.2286	52
242.1921	19
243.2351	65
244.2184	24
244.6537	2
245.2122	64
245.6418	3
246.2474	30
247.2332	74
248.2383	19
249.2496	62
250.2422	17
251.2468	56
252.2371	23
253.2497	60
253.6834	2
254.2553	18
255.2459	38
256.2441	18
257.2177	33
258.2165	18
259.2392	43
260.2637	18
261.2502	50
262.2384	14
263.2594	49
264.2777	12
265.2801	38
266.2518	15
267.2813	46
268.2550	12
268.7464	1
269.2792	34
270.2372	9
271.2737	32
272.2292	14
273.2689	36
273.7970	2
274.2971	11
275.2900	31
276.2715	15
277.3093	27
278.3178	11
278.6590	1
279.3104	24
280.3106	14
281.3243	30
282.3250	16
283.2654	19
284.3035	6
284.7621	2
285.3050	26
286.3022	13
287.2967	26
288.2974	6
289.3115	26
290.2814	8
291.3137	22
292.3108	8
293.3258	16
294.2951	7
294.6089	2
295.2810	15
296.2849	8
297.2741	12
298.3006	9
299.2992	27
300.2521	5
301.3015	21
302.2755	5
303.2972	22
304.3132	5
305.3042	15
306.2864	7
307.3016	13
308.3021	4
309.2924	11
310.2635	4
311.2735	12
312.2882	7
313.2956	11
314.2378	5
315.3021	12
315.6783	1
316.3280	6
317.3080	14
318.3193	7
319.3160	14
320.3069	8
321.3353	14
322.3340	8
322.7568	1
323.2838	7
324.2903	2
325.2926	15
326.3561	3
327.3155	8
327.6985	1
328.3153	2
328.5940	1
329.3168	13
330.2887	4
330.7552	1
331.3397	13
332.3712	8
333.3594	18
334.3924	6
335.3765	22
336.3934	3
336.8178	1
337.3123	7
338.3117	3
339.3039	6
339.9102	0
340.4034	2
340.7894	1
341.3571	5
342.3155	3
343.3828	9
344.3251	3
345.3689	12
346.3591	8
347.3585	13
347.7911	2
348.3983	4
349.3428	5
350.3501	1
351.3381	5
352.3353	34
353.3609	7
353.7641	1
354.5406	1
355.3814	6
356.4209	2
357.3725	8
358.4004	5
359.4055	13
359.8475	1
360.3897	8
361.3247	5
362.3705	2
363.3506	5
363.7570	1
364.3787	4
365.3606	14
366.3770	3
366.6536	1
367.3488	5
367.9109	1
368.4028	3
369.3748	5
369.9281	1
370.4591	1
371.3730	7
372.4082	9
372.6938	2
373.4244	5
373.9549	1
374.4450	3
374.9052	1
375.4373	5
376.3579	5
377.3460	6
377.7990	1
378.3910	7
379.4137	4
380.3079	2
381.3338	3
381.8259	1
382.4466	2
383.4055	6
383.8199	1
384.4528	1
385.4493	8
386.4130	13
387.4532	12
388.4381	34
389.4186	6
390.4472	3
390.6628	1
391.3995	9
391.9026	0
392.4133	2
393.3913	3
394.2046	1
394.5356	2
394.7574	1
395.3985	3
396.4068	3
397.3912	4
398.3893	3
399.4413	4
400.4471	5
400.8683	1
401.4245	6
402.4544	4
403.3375	3
403.4965	1
404.1787	1
404.4936	1
405.3568	2
406.3936	2
407.3184	2
407.6656	1
407.8960	1
408.4138	0
408.6368	0
409.4181	4
410.4763	4
411.4569	4
412.4690	20
413.4407	7
414.4290	4
415.4414	3
415.8053	1
416.4389	9
417.4170	3
417.8410	1
418.4417	2
418.8027	0
419.4770	3
420.3595	2
420.7730	1
421.4350	2
421.7928	0
422.4873	12
423.4454	3
424.3900	4
425.4232	8
425.8185	2
426.5163	3
426.9371	1
427.4643	3
427.8701	0
428.5860	1
429.4368	3
430.4734	2
431.4277	10
432.4181	3
433.3231	4
433.7547	1
434.4695	5
434.8546	1
435.4211	2
436.4208	2
437.3861	5
437.6410	2
438.3080	3
438.8717	2
439.4489	11
441.1957	10
441.7805	3
442.6308	1
443.3897	2
444.4141	3
445.4701	4
445.8646	1
446.3041	3
446.8352	2
447.3768	5
448.4991	6
449.5389	4
450.5083	3
451.3593	3
452.5014	3
453.4080	5
454.5759	3
454.9947	2
455.5021	8
457.8010	7
459.5463	6
460.5180	4
461.4284	6
461.8093	1
462.5427	5
463.4412	3
463.7247	1
464.3082	1
465.4678	4
466.4055	3
467.4753	9
468.4986	12
469.4815	3
471.2360	4
472.9185	5
474.4062	5
475.5186	18
476.5261	185
477.5831	4
478.5952	1
479.5623	3
480.3733	1
481.4652	4
481.8978	2
482.5031	8
483.5378	5
484.5817	4
485.2027	2
485.5987	1
485.9107	1
486.5302	2
488.5315	87
489.5322	16
490.0979	1
490.4760	0
491.2533	2
491.7410	0
492.4673	1
492.8214	1
493.5298	2
494.4753	6
495.4555	4
495.9778	1
496.4897	2
497.4565	2
498.0539	1
498.5493	1
498.9412	1
499.4622	1
500.0252	0
500.4951	1
500.8255	1
501.4982	1
502.1259	1
502.3181	0
502.9128	0
503.1981	0
503.4459	1
503.8633	0
504.3244	1
504.5692	0
505.1219	1
505.5004	1
506.0802	1
506.6134	1
507.5282	3
507.9758	1
508.5031	4
508.8321	1
509.5517	3
510.5303	19
511.4819	4
511.9225	1
512.5054	2
513.3926	2
513.6849	2
514.1750	1
515.1613	2
515.8133	2
516.9211	3
517.4937	1
517.7441	1
517.9689	1
518.7410	1
519.6391	2
520.3048	1
520.9720	1
521.4833	1
521.9062	1
522.3320	2
522.7564	1
523.3698	4
523.7432	2
524.5395	9
525.5458	14
526.5387	2
527.4236	1
528.1722	1
528.6882	1
529.1682	2
529.5223	1
530.8154	2
531.4935	2
531.9691	2
533.0974	2
534.1388	4
535.4323	9
535.9245	2
536.5593	3
537.5168	9
538.4848	17
539.5519	9
540.6266	17
541.2451	3
543.7461	5
550.6187	73
551.6535	15
552.5697	25
553.6082	174
568.4164	999
571.5606	90
572.8349	31
573.9412	15
