Mass spectrum: 8'-Apozeaxanthinal; FAB-EBEB; MS2; m/z: 432.30; [M]+*
Name: 8'-Apozeaxanthinal
Formula: C30H40O2
Exact mass: 432.30283
SMILES: CC(C1)=C(C(C)(C)CC1O)C=CC(=CC=CC(C)=CC=CC=C(C)C=CC=C(C)C=O)C
InChI: InChI=1S/C30H40O2/c1-23(12-8-9-13-24(2)15-11-17-26(4)22-31)14-10-16-25(3)18-19-29-27(5)20-28(32)21-30(29,6)7/h8-19,22,28,32H,20-21H2,1-7H3/b9-8+,14-10+,15-11+,19-18+,23-12+,24-13+,25-16+,26-17+/t28-/m1/s1
Instrument: JMS-HX/HX 110A, JEOL
Instrument type: FAB-EBEB
Ms type: MS2
Ion mode: POSITIVE
Collision energy: 3 kV
Ionization: FAB
Base peak: 91.0681
Precursor m/z: 432.30
Precursor type: [M]+*
m/z	relative intensity
13.0179	1
14.0140	1
15.0310	7
18.0268	1
22.9988	1
25.0095	2
26.0191	8
27.0287	61
28.0196	3
29.0302	43
30.0258	2
31.0235	5
37.0040	5
38.0203	10
38.7470	1
39.0163	87
39.7803	1
40.0174	13
41.0241	146
42.0204	3
43.0120	97
44.0223	3
45.0134	6
47.8335	1
48.6712	1
49.0086	4
49.2858	1
49.9997	31
51.0124	82
52.0127	26
53.0243	146
54.0148	13
54.4587	1
55.0292	234
56.0155	5
57.0388	89
57.9683	2
59.0163	20
60.0579	2
60.9911	8
62.0223	27
63.0208	77
63.5470	2
64.0229	23
64.4919	2
65.0246	158
65.4090	2
66.0277	37
67.0360	181
68.0261	11
68.4435	1
69.0349	194
69.4712	2
69.9799	2
70.1460	1
71.0321	64
71.4247	1
72.0222	2
73.0340	3
74.0207	25
75.0389	33
75.5885	3
76.0309	31
76.4488	5
77.0394	451
77.6299	4
78.0424	107
78.4514	2
79.0520	396
79.6625	2
80.0569	42
81.0500	237
81.4507	3
82.0312	21
82.3628	1
83.0603	77
83.5371	2
84.0347	5
85.0601	99
85.5215	1
86.0458	8
87.0314	14
88.0539	8
88.3339	2
89.0680	59
89.5686	5
90.0635	27
90.5033	8
91.0681	999
92.0653	92
93.0736	413
94.0754	30
94.4530	2
95.0686	328
96.0562	25
96.4361	2
96.7975	2
97.0705	30
97.6784	2
98.0343	8
99.0686	9
99.5445	1
100.0242	3
100.6756	2
101.0543	21
101.5443	2
102.0651	56
103.0690	164
103.5343	2
104.0587	83
104.3689	4
105.0687	916
106.0770	95
107.0709	353
107.5694	2
108.0662	32
109.0681	158
109.6760	2
110.0437	11
110.7256	2
111.0535	28
111.5260	2
112.0816	5
112.5558	2
113.0621	18
113.4101	5
114.0310	20
115.0501	543
116.0523	199
117.0525	475
117.4845	5
118.0549	101
118.4799	4
119.0595	753
119.4464	8
120.0631	89
120.5846	4
121.0646	277
121.5803	2
122.0403	27
122.4328	2
123.0633	68
123.4670	2
124.0367	11
124.6079	1
125.0435	19
126.0219	25
126.5115	8
127.0587	196
128.0533	568
129.0565	587
130.0605	209
130.5575	11
131.0699	523
132.0846	104
133.0774	365
134.0721	56
134.4577	6
135.0808	180
136.0381	20
136.3839	3
137.0736	41
137.4830	2
138.0980	15
139.0697	75
140.0630	26
141.0888	504
142.0837	371
143.0947	620
144.0945	202
145.1082	509
146.1006	68
147.1148	281
147.7113	2
148.1417	26
148.5327	2
149.1177	117
149.5949	3
150.1175	34
151.1246	78
151.4932	12
152.1180	198
153.1221	283
153.5564	5
154.1235	131
155.1230	440
155.6754	8
156.1255	311
157.1374	518
158.1224	126
159.1335	312
159.5215	7
160.1219	47
161.1109	119
162.1404	21
162.3974	7
163.1118	53
164.1248	39
165.1096	437
166.0927	140
167.1107	335
167.5439	8
168.1093	141
168.5416	8
169.1096	363
170.1161	131
171.1263	287
172.1127	70
172.6228	7
173.1218	211
173.5854	5
174.1203	23
175.1283	92
176.0821	36
177.1190	56
178.0994	223
179.0960	316
180.1031	131
181.1050	320
182.1075	134
183.1138	316
183.6535	5
184.1239	85
185.1322	173
185.7195	4
186.1433	33
187.1245	83
188.1353	19
189.1196	114
190.0965	51
190.4402	7
191.1198	148
192.1312	135
193.1217	209
194.1373	127
194.5142	6
195.1376	324
196.1214	91
197.1496	244
197.7117	2
198.1668	44
198.6705	4
199.1642	92
200.1665	26
200.5262	8
201.1319	75
201.5651	8
202.1631	85
203.1417	122
204.1477	60
205.1371	125
206.1552	80
207.1680	208
208.1562	67
209.1762	177
210.1586	59
211.1866	121
212.1449	38
213.1713	76
214.2094	13
215.1697	115
216.1598	47
216.5141	4
217.1638	107
217.5657	6
218.1919	55
219.1784	125
220.1799	57
221.1829	137
221.7225	5
222.2043	35
223.2011	122
224.1891	25
224.6316	4
225.2126	78
226.2363	37
227.1855	49
227.6056	4
228.1723	45
228.5154	7
229.1822	77
230.1947	40
231.1790	70
232.2097	41
233.2067	88
233.5633	5
234.2119	41
235.2059	84
235.5332	7
236.2230	20
237.2029	76
238.1989	18
239.2065	50
239.6433	5
240.2178	20
240.7219	6
241.2067	50
241.6938	2
242.1775	29
242.5042	5
243.2078	47
244.2076	32
245.1962	53
245.8103	5
246.2250	24
247.2241	84
248.1942	28
249.2077	65
250.1680	17
250.7445	2
251.2379	38
251.7757	3
252.2065	21
252.5963	2
253.2108	31
253.6645	2
254.2050	14
254.7067	6
255.2039	59
256.2214	21
256.6697	2
257.2140	26
257.7057	2
258.2159	26
258.4304	10
259.2328	52
259.7682	2
260.2226	12
261.2320	47
261.7383	2
262.2640	13
263.2529	40
264.2591	15
265.2382	28
266.2220	13
266.7870	2
267.2128	38
267.6500	3
268.2597	11
269.2247	52
270.2070	23
270.7210	5
271.2500	29
272.2589	20
273.2486	29
274.1882	11
275.1931	31
275.8769	5
276.2428	16
277.2298	23
278.1678	17
279.2020	65
280.2159	9
280.7789	2
281.2162	23
281.7049	3
282.2407	45
283.2287	39
283.7417	2
284.2272	13
284.7930	2
285.2167	21
286.1984	13
286.7197	4
287.2513	24
287.8551	2
288.2493	5
288.4923	2
289.2796	16
289.6705	4
289.8310	2
290.3170	6
290.7263	4
291.1493	11
291.3694	16
292.1996	13
292.4014	5
293.2351	19
293.9210	2
294.2410	12
294.4108	5
295.2391	16
295.6544	5
296.3290	18
296.7456	2
297.2516	14
297.7451	2
298.2685	11
299.2465	13
300.3238	7
300.7628	5
301.2866	11
301.8701	2
302.2863	8
302.7173	2
303.2390	12
303.4856	5
304.5658	15
305.4489	20
306.1945	8
306.7486	7
307.3245	16
307.6859	6
308.2160	13
308.4547	6
309.2603	21
309.7124	8
310.2587	13
311.1816	13
311.7005	7
312.2527	5
312.6511	5
312.8738	3
313.3653	11
313.7258	1
314.2552	10
314.7651	3
315.3175	17
316.2433	8
316.3973	4
316.6063	1
317.3014	13
317.7184	7
318.3354	9
319.2604	11
319.8396	2
320.4338	4
320.8625	2
321.3659	11
321.8487	1
322.3419	13
323.2336	10
323.4827	4
323.8489	4
324.0820	4
324.4562	2
324.7214	2
325.3414	17
325.8386	2
326.3013	11
327.3222	10
327.5967	3
328.2962	6
328.5523	2
328.8337	3
329.2760	8
330.3042	7
330.6546	3
330.8579	2
331.3198	15
332.3126	9
332.5183	2
332.7734	2
333.3780	16
334.2434	5
334.5009	3
334.8894	2
335.3733	17
336.2644	16
337.3529	20
337.7227	2
338.2177	4
338.7816	2
339.3364	7
339.5638	5
340.3139	101
340.9906	3
341.3812	7
342.3624	4
342.6830	2
343.2897	5
344.1251	2
344.4170	6
345.2848	7
345.5916	3
345.8169	2
346.1928	7
346.7940	3
347.3630	10
347.8171	2
348.3265	6
348.8140	2
349.3245	13
350.2962	8
351.2806	4
351.8982	4
352.2720	16
352.6551	1
353.3130	41
354.2552	3
355.0502	4
355.3136	4
355.6059	1
356.1501	2
356.4297	2
356.7140	2
357.2283	6
357.5022	7
358.2756	11
358.5357	3
358.9558	3
359.3564	6
360.1460	5
360.6513	3
361.2971	10
362.2769	13
362.9297	1
363.3212	11
364.2339	2
364.5891	2
364.9179	1
365.3731	2
366.7447	1
367.4127	2
367.6266	1
368.0302	1
368.2866	3
368.4648	1
368.6948	2
368.9110	3
369.2767	2
369.6229	2
370.0380	2
370.2105	2
370.4498	1
371.2975	6
371.5356	5
372.3408	3
372.8665	1
373.4474	16
373.8938	2
374.3851	11
374.9765	2
375.3539	11
375.7566	1
376.3584	13
376.6357	2
376.8452	1
377.3262	5
377.7244	1
378.1902	1
378.6201	3
379.1731	2
379.6202	1
380.2582	1
380.6560	3
381.2826	4
382.2588	3
382.7440	1
383.2396	5
383.4420	3
383.7180	2
384.4080	3
384.7231	2
385.1969	6
385.4016	3
386.3367	5
386.8992	3
387.4099	18
387.9091	2
388.3440	21
389.2735	11
390.2687	5
390.6588	2
391.1213	1
391.4332	1
391.8727	5
392.1178	3
392.4700	3
392.7588	5
393.3791	5
393.7290	5
394.0892	1
394.3309	5
394.7211	5
395.1136	3
395.3932	3
395.9699	4
396.4465	2
396.7285	2
397.1809	3
397.4698	5
397.9292	5
398.1790	6
399.3384	18
399.5364	10
400.3309	9
400.7685	5
401.3373	23
402.3542	51
402.7250	5
403.3469	48
403.7385	7
403.9320	3
404.3927	11
405.0700	2
405.4374	2
405.7450	4
406.6619	7
407.7472	13
409.5932	17
411.6522	24
414.4214	292
415.3660	23
416.3498	28
417.4350	179
418.3384	5
418.7423	2
419.1958	4
419.4559	2
419.8657	1
420.0706	1
420.8095	1
421.1583	1
421.7039	3
422.1402	4
422.5489	6
423.2649	12
424.8364	20
432.3324	999
433.4424	585
434.2151	200
435.0776	88
435.6963	48
