Mass spectrum: Fucoxanthinol; FAB-EBEB; MS2; m/z: 616.41; [M]*+
Name: Fucoxanthinol
Class: Natural Product; Carotenoid
Formula: C40H56O5
Exact mass: 616.41277
SMILES: CC(C=CC=C(C)C=C=C(C(C)(O)3)C(C)(C)CC(C3)O)=CC=CC=C(C)C=CC=C(C(=O)CC(O2)(C(C)12)C(C)(C)CC(C1)O)C
InChI: InChI=1S/C40H56O5/c1-28(17-13-18-30(3)21-22-35-36(5,6)23-32(41)25-38(35,9)44)15-11-12-16-29(2)19-14-20-31(4)34(43)27-40-37(7,8)24-33(42)26-39(40,10)45-40/h11-21,32-33,41-42,44H,23-27H2,1-10H3/b12-11+,17-13+,19-14+,28-15+,29-16+,30-18+,31-20+/t22?,32-,33-,38+,39+,40-/m0/s1
Instrument: JMS-HX/HX 110A, JEOL
Instrument type: FAB-EBEB
Ms type: MS2
Ion mode: POSITIVE
Collision energy: 3 kV
Ionization: FAB
Base peak: 616.4932
Precursor m/z: 616.41
Precursor type: [M]+*
m/z	relative intensity
0.0041	0
0.0388	0
3.2762	0
3.8980	0
6.9316	0
12.9875	0
14.0022	0
14.9935	5
18.9922	0
20.3220	0
22.9682	0
24.9649	0
25.9760	3
26.9838	13
27.0824	1
27.9952	2
28.9817	14
29.9749	0
30.9772	2
36.9529	2
37.9818	5
38.6025	0
38.8444	0
38.9811	19
40.0044	1
40.9955	17
42.0089	1
42.9728	59
43.9961	1
44.9913	1
46.8954	0
49.2889	0
49.9645	4
50.9896	4
51.9920	2
52.9965	4
54.0007	0
55.0208	8
55.2054	1
55.5944	0
56.8499	0
57.0319	3
58.9303	1
59.9404	0
60.9453	1
61.9593	1
62.9534	3
63.7588	0
63.8756	0
63.9981	1
64.9717	3
66.0030	0
66.8727	1
67.0139	10
67.9419	0
68.7448	1
69.0039	12
69.3537	0
70.0307	1
70.8388	1
71.0031	5
72.9734	1
73.9430	0
74.6648	1
74.7611	0
74.9549	3
75.1872	0
75.2913	0
75.6548	0
75.8918	0
76.0241	1
76.6736	1
76.9732	19
77.4304	1
77.5698	0
77.7141	1
77.9831	6
78.7485	0
78.9813	12
79.9824	2
80.9975	10
81.3499	0
81.4416	0
81.9805	1
82.7404	2
83.0141	62
83.6295	0
84.7214	1
85.0039	20
85.7135	0
85.9986	1
86.5890	1
86.9666	17
87.3635	0
87.9388	1
88.6969	1
88.9793	5
89.0975	1
89.2575	0
89.3986	0
89.8165	1
89.9608	1
90.1046	1
90.3898	0
90.9688	81
91.5097	0
91.6001	0
91.9955	9
92.9860	52
93.1918	1
93.3031	0
93.6315	1
93.7554	1
94.0113	7
94.9972	52
95.9712	5
96.8048	2
97.0185	11
97.4386	0
97.5697	1
97.9482	1
98.3396	0
98.5817	0
98.7458	1
98.9906	6
99.6065	0
99.9003	2
99.9999	0
100.1974	1
100.5243	0
100.6102	0
100.7314	0
100.9620	5
101.2427	0
101.3515	0
101.4413	0
101.6336	0
101.8026	1
101.9894	7
102.2370	1
102.9789	25
103.1432	2
103.3978	1
103.9785	15
104.2411	0
104.9871	153
106.0047	13
106.6349	1
107.0120	75
107.2192	1
107.5423	0
107.6633	1
107.9924	13
109.0275	306
109.4694	0
109.6751	0
110.0110	4
110.1213	1
110.9827	31
111.3265	1
111.5155	0
111.6351	1
112.0192	5
112.3674	0
112.5490	0
112.6688	2
113.0046	13
113.1664	1
113.7076	0
114.0000	2
114.2189	0
114.9453	100
115.1646	3
115.3916	1
115.6085	3
115.9614	29
116.1700	1
116.3553	2
116.9642	88
117.3516	1
117.4983	1
117.9731	18
118.3130	1
118.4703	1
118.9894	169
119.3761	1
119.6379	0
119.9944	19
120.3066	1
120.9923	89
121.4833	1
121.9505	11
122.1826	1
122.3958	1
122.5744	2
122.9965	37
123.9687	5
124.5313	0
124.6823	2
125.0124	37
125.1982	1
125.4498	0
125.9696	7
126.1155	1
126.2760	1
126.9695	58
127.2684	4
127.9332	131
128.2246	2
128.3940	3
128.9469	145
129.2876	1
129.4309	0
129.9641	57
130.4268	1
130.9680	116
131.2082	1
131.3889	1
131.6313	3
131.9851	27
132.3244	1
132.9803	112
133.3466	0
133.5431	0
133.9867	22
134.2431	0
134.4372	1
134.9884	140
135.2345	0
135.3888	1
135.5379	0
135.6277	0
135.9759	17
136.4981	1
136.6421	3
136.9953	55
137.1880	0
137.5015	1
137.6323	0
137.9633	6
138.2706	1
138.9377	33
139.3330	2
139.5671	0
139.9828	9
140.9286	129
141.2839	1
141.9472	102
142.2257	2
142.4472	2
142.9683	183
143.5891	3
143.9919	57
144.2306	2
144.9883	180
145.2205	2
145.4091	2
145.9723	31
146.2890	1
146.9910	154
147.2062	3
147.4316	0
147.9892	18
148.3026	1
148.5587	3
148.9952	54
149.3590	2
149.5957	3
149.6795	1
150.0131	8
150.2174	1
150.4523	2
150.9723	34
151.3510	3
151.9440	64
152.2776	2
152.3563	1
152.9594	81
153.2221	2
153.5017	5
153.9798	41
154.2339	2
154.3351	2
154.9713	150
155.3760	2
155.9930	89
156.2442	1
156.3626	1
156.9925	175
157.3843	2
157.6787	3
158.0216	40
158.3305	1
159.0134	153
159.3253	2
159.5478	1
159.7253	3
160.0238	25
160.3769	1
160.5368	1
161.0221	89
161.2983	0
161.4672	1
161.5972	1
162.0233	8
162.3600	1
162.5914	2
163.0186	27
163.3049	2
163.9702	11
164.2231	1
164.9581	116
165.3512	1
165.4507	1
165.9991	44
166.2765	2
167.0238	158
167.2966	1
167.4065	3
167.6011	1
168.0473	39
168.2137	2
169.0310	140
169.3641	2
170.0595	56
170.2531	2
170.4198	2
170.5830	1
171.0530	119
171.3984	2
172.0356	41
172.5472	2
173.0612	77
173.3427	2
173.6015	6
174.0663	18
174.5732	1
175.0604	40
175.4043	1
175.5573	1
175.7338	1
176.0152	11
176.4360	1
177.0163	20
177.9690	57
178.3047	3
178.9956	117
179.3931	1
179.5950	2
180.0230	53
180.3004	1
180.5398	3
181.0304	111
181.5710	3
182.0482	54
182.2906	2
183.0313	119
183.4306	1
184.0414	39
184.2946	2
185.0398	90
185.3771	2
185.5326	1
186.0589	21
186.5076	1
187.0530	44
187.4999	2
187.8037	2
188.0498	5
188.2244	2
188.4226	2
189.0104	42
189.3966	2
189.9660	13
190.3678	3
190.6192	2
191.0134	51
191.4761	1
191.6371	2
192.0260	36
192.3132	2
193.0190	93
193.9937	40
194.2987	1
195.0388	111
195.2965	2
195.4984	2
196.0329	33
197.0408	126
197.4898	1
197.5765	1
197.6961	1
198.0501	32
198.4937	2
199.0396	67
199.3784	1
199.5367	2
200.0500	19
200.2300	3
201.0357	30
201.3707	2
201.9953	32
202.4687	3
203.0088	38
203.2845	2
203.5365	1
204.0172	18
204.3338	1
205.0192	46
205.6415	3
206.0392	35
206.3562	1
207.0247	77
207.5345	2
208.0479	41
208.5432	6
209.0640	87
209.3040	1
210.0151	27
210.4045	0
210.6285	2
211.0632	101
211.3351	2
211.6452	2
212.0688	19
212.2810	1
213.0404	59
213.4368	1
213.5567	1
213.8142	4
214.0477	9
214.6271	5
215.0365	46
215.5547	2
216.0335	23
216.4291	1
216.6410	2
217.0424	38
218.0637	28
218.3599	2
218.5487	4
219.0536	49
219.6592	2
220.0830	35
220.3208	1
220.5735	2
221.0718	63
221.5936	1
222.0915	24
222.2948	2
222.5215	2
223.0826	58
223.5858	3
223.7339	1
224.1026	18
224.4273	2
224.5585	2
225.0988	53
225.3421	1
226.0416	18
226.4716	1
227.0842	33
227.5286	1
228.0590	14
228.5853	3
229.0741	47
229.4663	1
229.6425	1
230.0960	19
230.3434	1
230.4649	1
230.7479	4
231.0948	36
231.4085	1
231.6488	2
231.8089	2
232.1119	30
232.3182	2
232.5658	2
233.1323	104
233.3842	2
233.5679	1
234.1025	15
234.5561	2
235.1144	45
235.5228	1
235.7189	1
236.1465	13
236.4400	3
236.6262	1
237.1237	46
237.4087	1
237.5345	1
237.6546	2
238.1253	10
238.3486	2
238.4780	2
238.7013	3
239.1181	41
239.5755	1
239.8089	3
240.1263	8
240.3817	1
240.4970	1
240.7120	1
241.0957	21
241.5741	1
241.6716	1
242.0796	8
242.4913	1
243.0932	33
243.4024	0
243.5107	0
243.6667	1
244.0936	12
244.4043	1
244.6246	4
245.1051	35
245.5136	1
246.0984	29
246.4072	1
246.5485	3
247.0999	36
247.4631	1
247.6508	2
247.8021	3
248.1104	10
248.5601	2
249.1262	32
249.4254	1
249.6217	2
249.8110	2
250.1259	10
250.4338	0
250.6345	1
251.1318	26
251.3354	3
251.5334	2
251.7449	3
252.1008	13
252.3960	0
252.8235	2
253.1245	19
253.3504	1
253.7888	1
254.0999	4
254.3345	0
254.5355	2
254.7802	2
255.1222	24
255.4706	1
255.5601	0
255.6667	0
255.8742	1
256.1340	7
256.4547	1
256.5871	2
256.8040	1
257.1111	30
257.4384	2
257.5630	1
257.7742	2
258.0872	11
258.4790	1
258.6308	2
258.7483	2
259.1136	31
260.0989	9
260.4967	1
261.1096	24
261.4702	1
261.6759	1
261.8516	1
262.1413	14
262.8053	3
263.1331	28
263.3956	1
263.5843	1
263.8562	1
264.1331	6
264.2960	2
264.5321	2
264.6505	2
265.1170	20
265.3646	1
265.4852	1
265.5756	1
265.7307	1
266.0839	5
266.5226	1
266.8816	2
267.1459	17
267.3987	1
267.7657	2
268.1055	9
268.3526	1
268.4726	1
269.1164	13
269.4039	1
269.6137	1
269.7992	2
269.9178	2
270.1564	13
270.5201	1
271.1090	21
271.4247	1
271.6015	1
271.8044	2
272.1258	9
272.6099	2
273.1387	28
273.6071	1
273.9000	1
274.1698	10
274.4117	3
274.5391	0
275.1423	21
275.5922	1
275.8716	1
276.1171	6
276.2676	3
276.4757	1
276.6947	1
277.1312	19
277.5612	1
277.7255	0
277.8854	2
278.1729	8
278.3739	1
279.1399	16
279.4383	1
279.6437	0
279.8427	1
279.9829	2
280.2080	6
280.3612	1
280.5907	1
280.7971	1
281.1374	11
281.4072	0
281.8123	1
282.1901	4
282.4845	1
282.6644	1
282.8652	3
283.1532	12
283.4447	1
283.8896	2
284.1603	8
284.3728	1
284.5406	1
284.8596	5
285.1743	46
285.6353	2
286.1583	13
286.5416	1
286.8254	2
287.1677	21
287.4985	1
287.6902	0
288.1565	10
288.4715	2
288.7094	2
289.1521	11
289.5472	1
289.7700	1
290.1739	4
290.5034	1
290.6362	1
290.9247	3
291.1555	16
291.7543	1
291.9159	2
292.1850	6
292.4441	1
292.5877	0
292.8597	1
293.1729	11
293.8384	1
294.1409	7
294.5192	1
294.7365	2
294.9055	2
295.1784	11
295.5915	1
295.7539	1
295.8240	1
296.0190	2
296.1793	4
296.3679	0
297.1581	16
297.4828	3
297.6799	1
297.9252	2
298.1901	10
298.4073	2
298.7119	1
299.1992	34
299.5241	1
299.7992	1
300.1450	5
300.6823	1
301.1553	18
301.4175	0
301.7354	1
301.9925	2
302.2049	4
302.7605	1
303.1738	26
303.3971	1
303.6478	2
303.7967	2
304.1631	7
304.7117	1
304.8795	1
305.1888	18
305.6617	1
305.8236	1
306.1794	2
306.5482	1
306.7188	1
306.8338	1
307.1752	7
307.7198	1
307.9390	1
308.0562	3
308.1647	1
308.5076	1
308.7905	0
309.1299	10
309.6972	1
309.7790	0
310.1242	12
310.3666	0
310.5526	0
310.7640	1
311.1701	14
311.8007	1
311.8977	1
312.1562	6
313.1403	12
313.5111	0
313.6306	0
313.9594	2
314.0970	2
314.2238	2
314.3571	0
314.5440	1
314.8512	1
315.1859	10
315.5858	1
316.0090	3
316.2475	2
316.5859	0
316.6866	0
317.1679	11
317.5325	0
317.8203	1
318.1995	7
318.5917	1
318.9390	2
319.1486	7
319.4466	1
319.6091	1
319.7940	0
320.1342	4
320.2661	2
320.8580	1
321.1526	5
321.3151	1
321.5124	1
321.8592	1
322.1277	2
322.3279	1
322.5362	1
322.6893	0
323.1443	5
323.2931	3
323.4281	1
323.6777	1
323.8062	1
324.0131	3
324.1539	4
324.2918	3
324.4791	1
324.6794	0
325.1122	7
325.2530	5
325.6857	0
325.8172	1
325.9587	1
326.2144	3
326.6000	1
326.8389	0
327.1599	11
327.4214	0
327.5311	0
328.0112	0
328.1907	3
328.4028	1
328.6600	1
329.1860	9
329.4512	1
329.7077	1
330.0275	1
330.1656	4
330.2877	2
330.5013	1
330.7863	2
331.1439	8
331.6607	1
331.8366	1
331.9282	0
332.1841	4
332.7817	0
333.1250	5
333.2886	2
333.4260	1
333.8936	1
334.2536	5
334.3547	2
334.7046	0
334.9242	2
335.1832	6
335.3301	3
335.7186	1
336.0190	2
336.1893	2
336.3268	1
336.8820	1
337.1570	6
337.7778	1
338.1534	2
338.3375	1
338.6796	1
339.1353	6
339.4207	1
339.6070	1
339.7628	1
340.1822	2
340.5018	1
340.7181	1
340.8826	2
341.1980	3
341.5125	1
341.8399	1
342.1026	2
342.3391	1
342.5807	1
342.7161	1
342.8034	0
343.2067	9
343.6477	1
343.7409	0
343.8872	2
344.2264	3
344.5366	1
344.8438	1
345.1758	7
345.6214	1
345.8391	1
346.2062	4
346.3751	2
346.6016	1
346.7764	2
346.8835	1
347.1289	8
347.2826	7
347.4283	1
347.7458	1
348.1305	2
348.3519	1
348.5355	1
348.7016	1
348.9085	1
349.2225	6
349.3675	5
349.7683	1
349.9497	1
350.0911	1
350.2653	2
350.4044	1
350.5910	1
350.8038	1
351.2083	8
351.3752	4
351.8118	1
352.1821	4
352.3097	3
352.5116	1
352.8681	0
353.1801	7
353.3654	3
353.5877	1
354.1062	1
354.2753	3
354.6093	1
354.7771	1
355.0476	1
355.2256	3
355.3809	2
355.6114	1
355.9119	1
356.0811	0
356.2846	0
356.4415	1
356.8398	1
357.0506	1
357.2797	2
357.6372	1
358.1363	2
358.3012	2
358.5646	1
358.9769	1
359.2236	3
359.4038	2
359.8031	1
360.0191	0
360.1403	1
360.2994	2
360.6264	1
360.8761	1
361.2155	4
361.7134	0
362.0106	1
362.2574	3
362.4691	1
362.7101	0
362.8123	1
363.0408	1
363.2716	7
363.6974	1
363.8485	0
364.2984	8
364.5402	0
364.7126	1
364.9529	2
365.3210	6
365.6709	1
365.8967	1
366.2401	6
366.5593	1
366.6653	1
367.1461	2
367.3163	2
367.5333	0
367.6721	1
367.7672	1
368.2180	1
368.4841	2
368.8963	0
369.2106	3
369.3831	1
369.5703	1
369.8870	1
369.9758	0
370.1658	2
370.4366	1
370.7643	1
370.8815	0
370.9849	1
371.1676	3
371.3235	2
371.5303	1
371.8011	1
371.9832	1
372.2861	3
372.4435	1
373.2795	7
373.4077	2
374.1653	3
374.2658	1
374.4312	1
375.0154	0
375.2923	4
375.4249	2
375.8015	1
375.9684	1
376.1965	1
376.4027	1
376.5316	0
376.8640	1
377.2640	6
377.4142	3
377.8522	1
377.9666	1
378.2180	4
378.3682	1
379.3019	3
379.7080	1
380.1542	2
380.2898	1
380.4998	1
380.7083	1
380.9511	1
381.2909	6
381.7503	2
381.8983	0
382.1310	1
382.3701	2
382.5386	1
382.9587	1
383.0922	1
383.3482	6
383.6144	1
383.8208	0
384.0061	1
384.2710	4
384.7907	1
385.2667	2
385.7807	1
385.9676	0
386.1794	3
386.3144	4
386.5897	1
386.9840	2
387.2389	3
387.3666	3
387.5923	0
388.1210	2
388.2488	1
388.3248	0
388.6586	1
389.0114	1
389.2546	5
389.5585	0
389.9990	1
390.2393	7
390.5812	1
390.8449	1
391.2015	5
391.5734	1
391.9445	1
392.2632	2
392.3684	1
393.1474	2
393.3147	6
393.4280	1
393.6816	0
393.7927	1
394.0405	2
394.3526	2
395.2356	5
396.1808	1
396.3409	2
396.6546	1
396.7504	1
397.3565	2
397.7799	1
397.9378	1
398.2530	4
398.5060	2
398.7693	1
399.2769	19
399.7179	1
399.8905	1
399.9893	1
400.2797	2
400.8795	1
401.2752	6
401.6067	0
402.1890	3
402.3792	1
402.8094	1
403.1921	5
403.3356	3
403.9363	1
404.2883	2
404.6572	1
405.2163	3
405.3583	1
405.5801	1
405.7316	0
406.0259	1
406.2338	1
406.3648	1
407.2469	1
408.3898	1
408.8781	1
409.1842	0
409.3255	1
409.4830	1
409.8740	1
410.2065	0
410.4086	1
411.1630	2
411.4127	1
412.1313	0
412.3313	1
413.2279	4
413.4711	2
413.9363	1
414.2521	1
414.8793	0
414.9826	1
415.1922	2
415.3212	2
415.4589	0
415.7235	1
415.9690	1
416.0847	1
416.2767	1
416.5530	1
416.6454	1
416.8183	1
416.9393	0
417.1012	2
417.3193	7
417.4444	3
417.6024	1
418.3186	6
418.6631	0
418.8219	0
419.3179	12
419.5733	1
419.9684	1
420.1154	2
420.3013	4
420.4213	2
420.5098	1
420.8582	1
421.0982	1
421.3228	2
421.7868	1
422.1805	1
422.3496	1
423.2601	2
423.3728	1
423.6861	1
423.9415	0
424.8763	2
425.1677	1
425.2790	1
425.3851	2
425.7973	0
425.9379	0
426.1642	0
426.3582	1
426.8707	0
427.1109	4
427.2727	3
427.4580	0
427.6769	2
427.9149	1
428.1786	4
428.3412	4
428.8889	2
429.0215	1
429.1753	3
429.4785	1
429.7627	1
430.1920	1
430.4044	1
430.6248	1
430.8834	1
431.2841	9
431.5552	1
432.3156	2
433.3069	19
433.4748	10
433.6931	1
433.8858	1
434.0749	1
434.3277	4
434.9272	1
435.3340	16
435.6055	1
435.7636	0
435.9348	1
436.2934	2
437.0597	0
437.2002	2
437.6993	1
438.4474	0
439.1538	2
439.3668	1
439.5081	0
439.7423	1
439.9173	2
440.0594	0
440.2578	1
440.3661	1
441.0309	1
441.2820	4
441.4599	1
441.7916	1
442.2324	0
442.4126	0
442.5495	0
442.6703	1
443.2283	5
443.4005	3
443.6267	1
444.2786	4
444.6711	1
444.8681	2
445.2673	10
445.6819	3
445.9229	1
446.3053	25
446.7690	1
447.3067	38
447.7800	3
447.9258	1
448.1441	1
448.3507	5
448.5962	1
448.7823	1
449.3253	2
450.0961	1
450.1833	0
450.5776	1
451.1324	0
451.3200	1
451.6659	1
451.7502	0
451.9818	1
452.1357	1
452.4054	1
452.6884	1
453.2161	0
453.4030	1
454.0217	1
454.7849	0
455.2959	2
455.4300	1
455.6339	0
455.9931	0
456.2402	2
456.7520	1
457.3210	3
457.7940	1
458.3521	7
458.5970	0
458.9204	1
459.1353	1
459.3377	3
459.4756	1
459.7573	1
459.9729	1
460.0682	1
460.3198	4
460.4460	3
460.6396	1
461.3174	8
461.6453	1
462.0876	2
462.2322	2
462.3363	3
462.4273	2
463.2270	9
463.4375	2
463.6004	1
463.6943	1
464.2189	1
464.4354	1
465.2719	1
465.3790	1
465.5801	1
465.8105	1
467.1249	1
467.4030	1
467.5638	1
467.7773	1
468.3630	1
468.6581	1
469.4347	1
469.5536	1
469.8502	1
470.2987	3
470.5248	3
470.6379	1
471.3672	2
471.4939	2
471.8806	0
472.1728	1
472.3837	2
472.8341	0
473.3776	5
473.6171	1
474.2031	1
474.5473	2
474.6967	0
475.2703	3
475.6454	1
475.8190	1
476.0102	1
476.3487	6
477.0190	1
477.1992	1
477.3143	1
477.4454	3
477.6923	1
479.2428	3
479.3798	1
479.4817	0
479.7609	0
480.1683	1
480.3054	1
480.7289	0
480.9407	1
481.5424	1
481.7484	1
481.9434	1
482.8801	1
483.2173	1
483.4811	2
483.6446	0
484.3571	2
484.4854	1
485.3102	1
485.4920	1
485.6782	1
485.9333	0
486.0396	1
487.0786	1
487.2780	2
487.3712	2
487.4533	1
487.8228	4
488.1147	1
488.3596	1
488.6478	1
488.8018	2
488.9998	1
489.1538	1
489.3430	1
489.5131	2
489.6671	0
489.9942	1
490.7269	1
490.8398	0
491.2564	1
491.4068	2
491.7875	1
492.6273	0
493.3653	1
494.0006	0
494.2001	1
494.5875	2
494.7401	1
495.1685	1
495.4085	1
496.2911	1
496.4694	1
496.6440	1
496.7937	1
497.2054	3
497.3903	3
497.4989	1
497.7154	0
498.2452	1
498.6745	1
498.8250	1
498.9292	1
499.1207	2
499.3532	2
499.4984	1
499.6260	1
499.9246	1
500.0170	1
500.3184	3
500.4512	0
500.9822	1
501.1252	1
501.3094	1
501.4656	2
501.7047	2
501.8719	2
502.0634	1
502.2519	2
502.4339	1
502.6547	0
502.8146	1
503.1755	0
504.1718	1
504.6281	1
504.9510	1
505.2239	1
505.4536	1
505.6531	1
505.7845	1
505.9349	1
506.5219	2
506.9761	1
507.3636	1
508.0835	1
508.2082	0
508.3469	0
508.4717	1
508.7674	1
508.8760	2
509.2357	0
509.4654	2
509.8103	1
509.9424	1
510.0356	0
510.4151	7
510.9362	1
511.2578	2
511.4405	1
511.6850	1
512.0549	0
512.4344	1
512.7736	1
513.5496	3
514.0120	1
514.1662	1
514.3256	3
514.4885	2
514.8101	1
515.3409	6
515.5120	1
516.0069	1
516.2815	7
516.5671	2
516.6883	1
516.9849	2
517.2978	1
517.5966	1
517.7905	1
518.0416	2
518.1929	1
518.3347	3
518.4272	1
518.5300	1
518.6996	2
518.7944	1
519.2027	2
519.5295	2
519.7778	1
520.1010	1
520.2354	1
520.4366	1
520.8648	1
521.2012	1
521.4921	2
521.8087	1
521.9651	1
522.4866	2
523.2704	2
523.4578	2
523.5613	0
523.6855	1
523.8493	1
524.3680	11
524.6971	1
525.0167	1
525.3275	2
525.4796	2
525.9843	0
526.4200	1
526.5836	0
526.8306	1
527.1318	1
527.3466	2
527.5430	0
528.3553	3
528.5370	2
528.9073	1
529.0641	1
529.2261	1
529.3933	1
529.5751	2
529.9820	1
530.0861	1
530.3229	4
530.6066	1
531.1353	1
531.2167	1
531.3817	2
531.5950	1
532.2894	1
532.5313	1
532.6398	1
533.3885	1
533.5271	1
533.7332	1
533.8945	1
534.4159	1
534.8728	1
535.2505	2
535.5754	1
535.8812	1
536.1034	1
536.4349	12
536.7965	1
536.9945	1
537.3319	9
537.5388	6
537.6950	1
537.8557	1
538.2986	1
538.5092	1
538.6632	1
539.1488	0
539.3733	1
539.5075	3
539.6990	1
539.9609	1
540.2756	1
540.4069	2
540.7862	1
541.3306	2
541.6049	0
542.0202	1
542.3283	1
542.4443	1
542.9417	1
543.2117	4
543.3203	2
543.5118	2
543.6314	1
543.9858	1
544.4451	2
544.5684	1
544.7350	1
545.0608	1
545.3719	2
545.5510	1
545.8951	1
546.3223	1
546.8118	1
546.9630	1
547.3196	0
547.4833	2
547.6800	1
547.9053	1
548.2576	1
548.5225	1
548.8499	1
548.9541	1
549.0480	1
549.3387	1
549.7159	1
549.9119	1
550.0683	1
550.2364	2
550.4118	1
550.5902	1
550.8243	0
550.9543	0
551.5526	1
551.7632	1
552.3857	1
552.7675	1
553.0670	1
553.4451	2
553.7975	1
554.1051	1
554.2542	1
554.4186	1
554.5765	1
554.7696	1
554.8643	1
554.9744	1
555.2072	1
555.4950	2
555.7982	1
556.3387	2
556.5009	1
556.9540	1
557.3718	4
557.5767	2
557.8837	1
558.3823	5
558.6944	1
558.8310	1
559.1005	1
559.3796	3
559.6895	1
560.4878	1
560.6641	1
561.2604	1
561.8047	1
562.0757	1
562.2183	1
562.3401	1
562.7038	1
563.0784	1
563.3869	1
563.9172	2
564.3117	1
564.6364	1
564.7657	1
565.1044	1
565.2711	2
565.4636	1
565.7391	1
565.8449	1
566.3276	1
566.4811	2
566.7331	1
566.8793	1
567.1974	1
567.4282	1
567.6699	1
567.9417	1
568.1879	3
568.3826	1
568.7264	3
568.9866	3
569.2878	2
569.4958	2
569.7596	5
569.9161	2
569.9962	1
570.3401	3
570.4929	2
570.7516	3
570.8691	1
571.0228	1
571.2564	3
571.4637	2
571.6422	1
571.9611	1
572.0865	1
572.4969	4
573.0526	4
573.1955	1
573.3605	5
573.5269	3
573.6991	2
573.8413	3
573.9535	2
574.2504	1
574.4278	1
574.7379	1
575.0025	2
575.1741	0
575.3265	2
575.5040	2
575.7401	2
575.9020	3
576.0590	2
576.2972	1
576.4702	1
576.6697	2
576.9080	1
577.0348	1
577.2657	2
577.5627	3
577.7423	1
577.9674	0
578.2915	3
578.4132	1
578.5121	1
578.7894	3
578.9440	1
579.0724	2
579.2366	1
579.4647	5
579.7052	2
580.1833	5
580.5037	5
580.7772	2
580.8682	1
580.9877	2
581.2642	4
581.4541	2
581.6433	1
581.7944	1
581.9125	1
582.0826	1
582.3260	2
582.5336	2
582.7690	2
582.9223	2
583.3264	12
583.6924	1
583.8522	1
584.1757	2
584.4544	2
584.6840	2
584.9180	2
585.0449	2
585.3427	4
585.6272	3
586.4282	14
587.3987	10
588.5460	12
589.4446	12
589.8203	12
590.1240	11
590.4057	9
591.0668	14
591.5436	14
593.8087	18
595.1244	25
598.2629	398
599.3568	37
601.2899	72
601.9883	10
602.3171	10
602.7441	10
603.5424	11
604.4698	15
605.2154	15
605.4788	13
605.7225	13
606.2523	12
607.0801	14
607.6496	15
609.3148	22
609.8212	18
616.4932	999
617.7156	246
618.6899	116
619.7553	56
620.4756	33
621.6570	23
622.2495	14
622.9434	10
623.2723	8
623.8333	7
