Mass spectrum: 3-Didehydro-5-dehydroxyhydratoperidinin; FAB-EBEB; MS2; m/z: 628.34; [M]+*
Name: 3-Didehydro-5-dehydroxyhydratoperidinin
Formula: C39H48O7
Exact mass: 628.34000
SMILES: CC1=CC(=O)CC([C@]1(/C=C/C2=C/C(=C/C(=C/C=C/C=C/C=C(\C)/C=C=C3[C@](C[C@H](CC3(C)C)OC(=O)C)(C)O)/C)/OC2=O)O)(C)C
InChI: InChI=1S/C39H48O7/c1-26(16-17-34-36(5,6)24-33(45-29(4)40)25-38(34,9)43)14-12-10-11-13-15-27(2)20-32-22-30(35(42)46-32)18-19-39(44)28(3)21-31(41)23-37(39,7)8/h10-16,18-22,33,43-44H,23-25H2,1-9H3/b12-10+,13-11+,19-18+,26-14+,27-15+,32-20-/t17?,33-,38+,39+/m0/s1
Instrument: JMS-HX/HX 110A, JEOL
Instrument type: FAB-EBEB
Ms type: MS2
Ion mode: POSITIVE
Collision energy: 3 kV
Ionization: FAB
Base peak: 610.3707
Precursor m/z: 628.34
Precursor type: [M]+*
m/z	relative intensity
11.9943	1
15.0254	4
15.3029	1
22.9883	10
26.0115	3
27.0192	24
28.0298	3
29.0308	10
30.0120	1
31.0233	1
35.9584	1
36.9926	2
38.0013	11
39.0257	61
40.0397	12
41.0389	84
42.0070	7
43.0206	589
44.0319	4
45.0087	3
47.0266	1
49.0219	2
50.0345	18
51.0155	45
52.0393	22
53.0356	74
54.0412	4
55.0439	99
56.0618	11
57.0802	26
58.0560	1
59.0402	7
60.0216	1
61.0700	6
61.5629	1
62.0257	18
63.0261	42
64.0458	11
64.3551	1
65.0395	56
66.0310	13
66.6399	1
67.0445	88
68.0312	19
68.3751	1
69.0450	132
69.5256	1
70.0523	5
71.0530	18
72.0236	3
73.0485	3
74.0233	12
75.0251	13
75.4515	1
76.0196	12
76.5981	1
77.0413	163
78.0517	39
78.5647	2
79.0506	119
80.0473	19
81.0471	69
81.6373	1
82.0430	8
83.0661	161
83.7719	1
84.0868	4
85.0643	35
85.6070	1
86.0254	9
87.0463	25
88.0452	3
89.0400	39
89.6089	1
90.0400	19
91.0507	295
92.0709	34
93.0783	105
94.0660	15
94.2949	4
94.6405	1
95.0823	108
96.0618	21
97.0582	20
98.0092	6
99.0210	10
99.3279	2
99.9999	4
101.0328	9
101.3129	1
102.0595	29
102.6195	1
103.0615	63
103.6976	4
104.0740	33
105.0842	231
106.0665	41
107.0863	141
108.0467	25
108.4476	1
109.0873	72
110.0662	7
111.0697	35
111.4761	4
112.0820	5
112.5337	1
113.0876	19
113.3848	4
114.0488	12
114.5667	3
115.0620	218
116.0653	67
117.0760	143
118.0711	41
118.5344	1
119.0720	200
119.6085	4
120.0613	64
121.0624	198
122.0373	32
122.5777	1
123.0486	72
124.0672	9
125.0801	134
125.6814	2
126.0489	29
126.4445	8
127.0411	92
128.0567	261
129.0428	249
129.5782	4
130.0552	90
130.5236	3
131.0542	155
131.4657	4
132.0412	61
133.0547	118
134.0250	47
135.0572	88
135.6903	1
136.0329	15
136.4767	3
137.0365	36
137.4451	1
138.0235	22
138.5457	1
139.0417	64
140.0675	34
141.0452	178
141.5038	2
142.0493	156
142.6057	9
143.0562	237
144.0686	94
145.0552	257
146.0578	48
147.0570	138
148.0106	45
148.5058	1
149.0630	347
150.0533	42
151.0642	76
152.0458	145
153.0602	192
154.0711	77
155.0768	202
156.0714	99
157.0897	217
158.0862	109
158.6547	4
159.0988	178
159.5902	2
160.0925	51
161.1008	86
162.0643	21
163.0576	54
164.1602	14
165.0834	259
166.0946	83
167.0989	158
168.1041	85
168.5548	4
169.1254	205
170.1184	73
171.1214	207
172.1130	65
172.6079	1
173.1110	111
173.5037	4
174.1023	34
175.0759	110
176.1010	46
177.0746	53
178.0981	135
179.1086	192
180.1382	75
181.0992	177
181.5869	4
182.1149	70
183.1158	202
183.5686	4
184.0942	56
185.1043	148
185.5437	5
186.1041	45
187.0830	114
187.5866	2
188.0950	30
189.0783	127
190.1025	30
190.4270	4
191.0746	96
192.0737	64
193.0890	113
193.5510	3
194.1034	71
195.1184	203
196.1059	79
196.4410	12
197.0910	118
198.0891	58
199.0847	100
200.0995	44
201.1041	62
202.0779	99
203.0508	107
204.1086	37
205.0888	80
206.1056	49
207.0915	100
208.1125	73
209.1027	138
210.1059	45
210.5033	6
211.1050	108
212.1281	28
213.0732	104
213.5104	4
214.1209	39
215.0842	162
216.0937	49
217.0832	97
218.0936	48
219.1282	87
220.1128	60
221.0931	77
222.0945	39
222.4720	4
223.1120	88
224.1333	48
225.1597	95
226.1107	54
227.1222	78
227.5117	12
228.1263	48
228.6000	8
229.1324	92
229.5825	4
230.1405	36
230.6003	1
231.1475	99
232.1041	38
233.1231	89
234.1440	43
235.1463	88
236.1568	29
237.1324	72
238.1226	18
239.1148	67
239.6182	4
240.2027	32
241.1274	59
242.1160	34
243.1034	64
244.1277	31
245.1461	77
246.1522	29
247.1236	46
248.1065	29
249.1694	65
250.1308	24
250.5246	3
251.1450	76
252.1804	41
253.1667	79
254.1550	35
255.1212	44
256.0765	33
256.5975	3
257.1569	55
257.6397	4
258.1385	34
259.1300	69
260.1331	25
261.1413	44
261.7896	3
262.1530	26
263.1362	53
264.1368	20
265.1169	38
266.0974	16
267.1614	36
267.5766	4
268.1730	22
269.1864	30
270.1440	18
271.1822	53
272.1902	21
273.1663	44
274.2038	27
275.1709	64
275.6594	6
276.2026	23
276.6591	3
277.1879	50
278.1687	26
279.1740	52
280.1344	19
281.1515	28
282.1180	15
282.6307	3
283.1996	34
283.6690	1
284.1770	16
285.1289	42
286.1663	18
287.2056	28
288.2227	17
289.1869	53
290.1836	18
290.3914	7
291.2015	47
291.5784	4
292.2132	23
293.1671	47
294.1278	9
294.5227	6
295.2144	27
296.1788	19
297.1885	37
298.2357	15
299.1788	31
300.0749	7
301.1905	37
302.1564	16
302.6257	3
303.2193	34
304.1647	16
305.1781	24
306.1965	18
307.1700	33
308.2100	10
308.6622	1
309.2049	19
309.7574	1
310.1985	12
311.2311	21
312.1572	4
312.5403	4
313.1628	31
314.1265	14
315.2667	27
315.5708	4
316.1759	16
316.7551	10
317.2179	25
318.1550	15
319.2234	20
320.1657	13
321.1568	27
322.1432	59
322.6697	3
323.1671	18
324.0373	13
324.5640	7
325.2140	24
325.7733	3
326.3050	11
327.1709	23
328.1391	4
328.7960	5
329.1740	22
329.7937	3
330.2302	7
330.6504	1
331.2314	37
332.2361	19
333.2085	26
334.1210	8
334.6163	4
335.1945	20
335.7029	4
336.2227	9
337.2332	18
337.6361	2
338.1967	14
339.1231	19
339.8936	4
340.2773	7
340.8024	4
341.2511	23
342.1650	10
342.4447	3
343.1929	24
343.9117	6
344.3792	2
345.1943	10
345.6555	5
346.1264	8
346.5633	1
347.2472	10
347.7443	1
347.9961	1
348.3714	6
348.6524	4
349.2878	15
350.1556	7
351.1471	18
352.2297	7
353.2134	23
353.7549	2
354.2737	10
355.2106	13
356.1427	8
356.7040	3
357.1921	22
357.7763	3
358.2401	10
358.7056	3
359.1841	12
360.2275	7
361.1278	12
362.1179	10
362.7530	2
363.3198	7
364.1261	12
364.5398	1
364.7809	1
365.2387	8
365.6738	1
365.9850	7
366.3337	7
367.1713	15
367.5967	3
368.1916	12
369.2431	34
370.1903	18
370.7773	4
371.2535	18
372.2563	7
373.2588	18
374.0674	4
375.2234	16
375.8138	4
376.2802	5
376.9880	4
377.3403	7
377.7400	2
378.2668	8
378.5605	1
379.1837	15
379.6047	1
380.3259	7
380.6441	1
381.1615	12
382.0967	4
382.4640	2
383.2639	14
384.3300	8
385.2737	18
385.6053	3
386.2520	12
387.2004	18
388.3193	4
389.3014	9
390.2950	5
390.8824	4
391.3083	6
392.3560	7
393.2733	7
394.2267	6
395.2650	10
396.2610	12
397.2654	12
397.7978	1
398.3318	6
399.2629	16
400.1549	15
401.2087	8
402.2235	6
403.0128	2
403.4557	8
404.3302	4
405.2849	15
406.3116	6
407.1864	4
408.2460	4
409.2617	7
409.9274	4
410.5130	3
411.2982	15
411.8741	1
412.2962	4
412.5384	1
413.3107	13
414.1764	7
414.6264	3
415.2844	21
416.3483	8
417.2994	5
418.2228	5
419.1823	6
420.2744	8
420.7237	3
421.2368	3
421.6747	3
422.2662	5
422.7776	5
423.2794	4
423.7975	4
424.2829	5
425.2489	14
425.7802	1
426.2837	12
427.2711	13
427.7061	4
428.2636	12
428.6005	4
429.2857	18
430.2833	4
431.2729	45
432.1594	4
433.3602	12
434.1815	3
434.5432	3
435.2337	6
435.5495	3
435.9619	3
436.3514	4
436.9422	1
437.3187	7
437.7082	1
438.2330	5
438.5110	2
439.3089	7
440.2100	9
440.4798	7
441.2256	14
441.4856	4
442.2118	5
442.6551	4
443.2734	105
444.3139	6
445.2252	10
446.2626	14
447.3066	17
447.8434	2
448.2411	1
449.1593	5
449.4883	1
449.9319	2
450.2560	2
450.7553	2
451.3103	7
451.6525	4
451.9848	5
452.4646	4
452.7855	1
453.2177	12
453.4732	4
454.1479	3
455.1943	11
456.2556	10
457.1958	13
457.5807	3
457.9969	2
458.3753	4
459.3173	11
460.4855	4
460.7870	1
461.2802	12
461.9062	3
462.3438	2
462.8469	1
463.2976	6
464.6908	1
465.4497	4
466.2399	7
466.7841	1
467.2907	14
468.4270	7
469.2059	10
469.7733	3
470.3636	9
471.0721	5
471.3296	10
472.1234	4
472.4105	10
473.3865	7
474.2083	25
475.2910	157
476.3214	25
477.3354	7
478.2677	6
478.5381	3
478.9297	3
479.3934	7
479.6031	6
480.1226	4
480.5257	3
480.8174	1
481.2976	5
481.6024	2
482.2318	6
482.6645	2
483.3169	20
484.3020	37
485.3102	293
486.2480	29
486.7382	5
487.3875	3
487.8286	4
488.3140	4
489.2946	10
489.6620	4
490.2343	14
491.2676	10
492.4683	1
493.2310	7
493.8314	2
494.3301	6
495.2916	7
496.3974	5
496.9389	1
497.3606	4
498.1417	7
498.3698	4
499.2413	9
499.6007	1
499.9568	4
500.3606	1
500.6331	5
501.2847	4
501.6327	3
502.3139	2
502.8802	1
503.1869	6
503.5065	4
504.2179	6
504.9277	4
505.1375	4
505.5146	2
506.2047	4
507.3000	8
507.6672	2
508.1034	4
509.1069	15
509.6808	3
510.3729	18
511.3880	19
512.3311	15
513.3087	15
513.6827	1
514.3421	7
514.9163	3
515.3001	4
515.7857	2
516.3435	4
516.8210	3
517.2590	10
517.4887	7
518.0023	4
518.1844	2
519.2526	6
519.8417	4
520.2372	9
520.6557	7
521.5387	6
521.9211	1
522.7762	1
523.3753	7
524.4144	10
525.4206	16
526.2070	9
526.5025	5
526.9113	2
527.4515	10
527.9572	3
528.3561	18
529.2363	11
529.5827	4
530.0885	2
530.3430	4
530.8643	4
531.7209	4
532.9691	15
533.8602	13
534.3991	5
535.1069	7
536.2127	15
537.3711	8
538.2642	8
538.8950	9
539.4473	18
539.7701	7
540.3453	13
540.8239	3
541.5122	5
542.4742	7
543.3692	10
543.9593	4
544.3461	4
544.6100	4
545.5166	8
546.1970	4
547.1298	5
547.6462	2
548.1299	7
549.3400	24
550.3189	42
551.3405	21
553.1691	23
554.5337	14
555.2603	20
556.0018	34
556.5579	9
557.0762	21
557.9260	20
559.0481	17
559.3549	10
560.2852	7
560.6609	3
561.1335	7
561.4141	3
561.6979	6
562.1820	6
563.1108	4
563.6655	4
564.0560	3
564.5582	3
565.0817	4
565.5331	2
566.5523	8
567.3647	48
568.3611	266
569.4396	79
570.3802	12
570.8940	2
571.4095	5
571.8134	3
572.2748	12
573.3617	5
573.7492	3
574.2172	7
574.9675	3
575.3485	4
576.1646	5
576.5515	4
577.0466	4
577.6467	4
578.5699	5
579.8669	1
580.3408	7
581.3199	12
581.5872	5
582.1677	4
582.5056	3
583.1600	12
584.4590	19
585.3857	70
586.2682	27
586.9932	5
587.9250	2
588.7043	4
589.1817	4
589.7346	7
590.5204	2
590.8650	5
591.3966	4
591.8019	7
592.3975	15
592.8750	4
593.1064	1
593.6101	5
594.2780	7
594.8311	7
595.3250	12
595.7665	6
596.5870	10
597.0597	10
597.3256	8
597.7392	3
598.4482	7
600.0305	31
604.8859	33
605.6712	30
607.5568	34
610.3707	999
611.3744	45
612.4519	28
613.4147	79
613.9625	18
614.2872	13
614.5218	6
615.3157	21
617.5565	29
619.6005	31
628.4059	999
630.3021	137
631.1537	60
631.8006	26
632.2935	25
633.1844	20
633.9133	10
634.7011	4
