Mass spectrum: Tetrahydrospirilloxanthin; FAB-EBEB; MS2; m/z: 600.49; [M]*+
Name: Tetrahydrospirilloxanthin
Class: Natural Product; Carotenoid
Formula: C42H64O2
Exact mass: 600.49063
SMILES: C(CCCC(C)(C)OC)(=CC=CC(C)=CC=CC(C)=CC=CC=C(C)C=CC=C(C)C=CC=C(CCCC(C)(C)OC)C)C
InChI: InChI=1S/C42H64O2/c1-35(23-15-25-37(3)27-17-29-39(5)31-19-33-41(7,8)43-11)21-13-14-22-36(2)24-16-26-38(4)28-18-30-40(6)32-20-34-42(9,10)44-12/h13-18,21-30H,19-20,31-34H2,1-12H3/b14-13+,23-15+,24-16+,27-17+,28-18+,35-21+,36-22+,37-25+,38-26+,39-29+,40-30+
Instrument: JMS-HX/HX 110A, JEOL
Instrument type: FAB-EBEB
Ms type: MS2
Ion mode: POSITIVE
Collision energy: 3 kV
Ionization: FAB
Base peak: 600.4233
Precursor m/z: 600.49
Precursor type: [M]+*
m/z	relative intensity
11.9619	0
12.9707	0
13.9716	1
14.9815	3
22.9310	1
24.9257	0
25.9609	2
26.9623	13
27.9728	1
28.9749	13
30.9552	1
32.9762	1
35.2533	0
35.9550	0
36.9459	2
37.9488	3
38.9592	32
39.3808	0
39.6716	0
39.9666	4
40.9753	70
41.9768	5
42.9722	45
43.4651	0
43.9583	0
44.9683	14
45.5245	0
48.9321	1
49.0618	0
49.2949	0
49.5760	0
49.9502	9
50.9534	24
51.1334	0
51.3482	0
51.9620	7
52.9684	38
53.9815	2
54.9824	143
55.2001	0
55.5836	0
55.9961	5
56.2771	0
56.9840	12
57.9789	1
58.9803	12
59.8080	0
60.9422	2
61.9500	8
62.1614	0
62.5242	0
62.6857	0
62.9527	21
63.2038	0
63.3095	0
63.4310	0
63.5559	0
63.9592	3
64.2097	0
64.3164	0
64.4457	0
64.9649	38
65.2725	0
65.4012	0
65.5482	0
65.9650	7
66.2067	0
66.3137	0
66.9766	61
67.6195	0
67.9824	4
68.6008	0
68.7754	0
68.9939	162
69.9687	1
70.9829	6
71.9630	3
72.1596	0
72.5036	0
72.6224	0
72.9815	457
73.1846	1
73.3171	0
73.4526	1
73.5777	0
73.6911	0
73.9450	8
74.6721	0
74.9374	8
75.1165	1
75.2776	0
75.3587	0
75.4204	0
75.6969	0
75.9507	5
76.2654	0
76.3645	0
76.4424	0
76.9520	138
77.2683	2
77.6435	1
77.9593	29
78.1639	0
78.3087	0
78.4683	0
78.9680	139
79.5846	0
79.7127	0
79.9726	20
80.9838	274
81.2369	1
81.3543	0
81.9775	1
82.3713	0
82.6133	0
82.9903	21
83.1443	1
83.3701	0
83.8232	0
83.9408	0
84.9742	37
85.3033	0
85.5800	0
85.9437	3
86.3246	0
86.9613	6
87.5983	0
87.6732	0
87.9327	3
88.0845	0
88.3522	0
88.7001	2
88.9542	14
89.1333	2
89.3124	1
89.9257	4
90.2596	0
90.4650	1
90.9663	303
91.2279	1
91.3834	1
91.5617	0
91.9744	39
92.1954	0
92.2934	0
92.4092	0
92.6156	1
92.9856	257
93.2176	1
93.3262	0
93.9916	14
94.2941	0
94.3529	0
94.5274	0
94.6618	0
95.0080	92
95.2359	0
95.4751	0
95.6350	1
95.9985	1
96.4125	0
97.0017	5
97.4191	0
97.9510	1
98.9921	7
99.5500	0
99.9854	1
100.2576	0
100.6340	1
100.7694	1
100.9694	5
101.2302	1
101.3626	0
101.9685	15
102.1721	0
102.2846	0
102.3808	0
102.4851	0
102.6229	2
102.9702	49
103.2214	1
103.4885	0
103.9776	25
104.2117	1
104.4780	1
104.6478	0
104.9883	445
105.3801	1
105.5161	0
105.6287	1
105.9970	40
106.2851	0
106.4510	0
107.0051	127
107.5882	1
107.7564	0
108.0072	6
108.2165	0
108.3991	0
109.0128	42
109.2174	1
109.3571	0
109.4728	0
110.0043	2
110.5217	0
111.0121	8
111.2390	0
111.3136	0
111.9527	1
112.2655	0
112.4923	1
112.9626	4
113.2324	1
113.3219	1
113.5004	1
113.7622	1
113.9523	4
114.2002	1
114.9571	136
115.3260	1
115.9558	56
116.2006	1
116.3786	1
116.9663	151
117.2192	1
117.3267	0
117.4967	0
117.9688	30
118.4367	1
118.9779	372
119.2019	1
119.3840	0
119.5732	1
119.9828	43
120.2051	1
120.3254	1
120.5640	1
120.9911	148
121.2830	1
121.4352	1
121.5751	0
121.6632	0
121.9775	6
122.2134	0
122.5293	1
123.0004	28
123.2860	0
123.4009	0
123.9740	1
124.1553	0
124.2821	0
124.6275	0
124.9769	5
125.2699	1
125.3558	0
125.4978	1
125.6861	0
125.9317	6
126.1657	1
126.2381	0
126.9334	51
127.2989	2
127.4942	3
127.9377	144
128.2482	1
128.3907	2
128.9434	200
129.3544	1
129.5043	1
129.9503	79
130.2295	1
130.4399	1
130.9553	236
131.2742	1
131.4291	1
131.9583	59
132.2388	1
132.4451	1
132.9704	175
133.3414	1
133.5190	1
133.9732	18
134.2643	1
134.5238	0
134.6602	1
134.7485	0
134.9838	12
135.3689	0
135.5615	0
135.7554	1
135.9672	2
136.1593	0
136.2841	2
136.4782	1
136.9591	4
137.1960	0
137.6103	0
137.9540	3
138.1825	0
138.3011	1
138.4787	1
138.5868	0
138.9328	15
139.3533	1
139.4834	1
139.9287	5
140.1570	3
140.5017	3
140.9409	127
141.1469	3
141.4341	2
141.9456	122
142.2270	1
142.9560	257
143.2598	2
143.3637	1
143.5110	2
143.6616	1
143.9649	86
144.3863	2
144.9708	315
145.3413	2
145.4822	2
145.5597	1
145.9811	23
146.1856	0
146.3921	1
146.9845	115
147.2962	1
147.6582	1
147.9875	4
148.2178	0
148.4455	1
148.5340	0
148.9909	3
149.1671	1
149.2818	0
149.4574	1
149.6820	0
149.9671	3
150.1589	1
150.3951	1
150.6206	2
150.9616	9
151.1389	3
151.2564	1
151.4559	3
151.9551	42
152.2341	3
152.4243	1
152.9637	63
153.1655	2
153.3102	1
153.4919	1
153.9631	37
154.1995	1
154.5484	2
154.9742	145
155.2371	1
155.4373	0
155.5594	0
155.9843	98
156.2379	2
156.4154	1
156.5443	1
156.9999	235
157.3599	1
157.6618	1
158.0145	42
158.2572	0
158.3971	1
158.5864	1
159.0212	84
159.2241	1
159.5739	1
160.0362	6
160.3639	1
160.5644	0
160.7154	0
161.0413	12
161.3306	1
161.4472	0
161.6594	0
161.7617	1
161.9984	1
162.3429	1
162.5227	0
162.6889	1
162.9753	4
163.3832	2
163.6330	1
163.9937	6
164.2423	1
164.9850	93
165.2856	1
165.4372	2
165.6147	1
165.9977	32
166.2269	1
166.5550	1
167.0070	89
167.3025	1
167.4278	1
168.0171	42
168.4131	1
168.6155	2
169.0321	147
169.3315	1
169.5887	1
170.0445	52
170.2916	1
170.5611	1
171.0482	112
171.2782	1
171.5035	1
172.0543	17
172.3043	1
172.5863	1
173.0551	29
173.3877	1
173.6126	1
174.0197	3
174.1097	2
174.4644	1
174.7073	1
175.0540	5
175.3959	1
175.9872	8
176.2980	0
176.4743	1
176.5918	1
176.6956	1
177.0086	8
177.2458	2
177.5992	1
178.0006	49
178.2489	1
179.0063	82
179.3472	1
179.4485	1
180.0155	38
180.2531	1
180.6326	2
181.0164	110
181.4749	1
181.6902	1
182.0303	50
182.4027	1
183.0278	134
183.4087	1
184.0259	30
184.3665	2
184.5506	2
185.0453	60
185.3511	1
185.5154	1
185.6494	1
186.0441	12
186.4436	1
186.6960	1
187.0600	25
187.4467	0
187.5816	0
188.0008	2
188.3863	1
188.5296	1
188.9959	21
189.5243	1
189.9868	9
190.4052	1
190.9969	35
191.3500	0
191.4846	1
192.0028	33
192.2588	1
192.5757	3
193.0058	81
193.2758	1
193.4561	1
193.6246	2
194.0101	46
194.3557	2
195.0144	122
195.3435	2
196.0213	33
196.2918	1
196.4855	2
197.0350	124
197.3901	2
198.0271	20
198.4863	1
199.0427	33
199.5430	3
200.0255	7
200.2966	1
200.5470	2
201.0540	7
201.2586	1
201.4772	0
201.9879	18
202.2767	1
202.5780	1
203.0029	22
203.3134	0
203.4814	0
203.9802	13
204.5716	3
205.0116	40
205.5602	20
206.0157	33
206.3308	1
206.5680	2
207.0196	68
207.4142	1
207.7316	2
208.0275	33
208.5727	1
209.0331	96
209.4665	2
210.0400	18
210.2672	1
210.5133	1
211.0522	59
211.4811	1
212.0538	14
212.3782	1
212.6015	4
213.0593	33
213.3330	1
213.4412	2
213.6779	1
214.0458	3
214.3427	1
214.4865	1
215.0111	17
215.2459	1
215.6009	0
216.0104	15
216.3138	2
216.4466	0
217.0109	24
217.2697	0
217.3878	0
217.5494	1
217.6907	1
218.0174	15
218.4127	1
219.0426	37
219.3884	0
219.5963	1
220.0501	19
220.3204	1
221.0454	52
221.4146	1
221.5632	0
221.6781	1
222.0573	19
222.4140	1
222.6524	1
223.0794	41
223.3795	1
223.7085	2
224.0922	10
224.5826	1
224.7629	1
225.0907	13
225.3518	1
225.6445	1
226.0791	6
226.3501	1
226.4470	0
226.5790	0
226.6956	0
227.0819	5
227.2772	2
227.6355	1
228.0564	6
228.2792	0
228.4015	0
228.5301	1
228.6411	1
229.0622	21
229.4770	1
230.0607	10
230.4222	1
231.0525	28
231.4564	0
232.0575	12
232.6227	2
233.0856	34
233.6552	2
234.0837	17
234.4617	0
234.6346	1
235.1040	35
235.3458	1
235.5363	1
236.0938	6
236.3561	1
236.4447	0
237.1079	20
237.3407	1
237.5729	0
238.1540	4
238.3975	0
238.5220	1
239.0668	8
239.6152	2
239.7349	1
240.0884	3
240.3813	1
240.6384	5
241.0899	11
241.4605	0
241.6535	0
242.0404	6
242.2736	1
242.4266	0
242.5407	0
242.6599	1
243.0511	12
243.4910	0
243.6038	0
244.0473	10
244.5262	0
245.0595	22
245.3862	0
245.6127	0
246.0734	11
247.0863	30
247.5615	1
247.7034	2
248.0883	9
248.2931	1
248.6201	2
249.1033	23
249.5152	0
249.8205	1
250.1017	7
250.2593	1
250.4085	0
250.5951	1
250.7449	0
251.1245	10
251.4441	1
251.6279	1
251.7086	0
252.0713	3
252.5600	0
253.0920	8
253.6700	1
254.1045	2
254.3826	0
254.6898	1
255.0897	10
255.3694	1
255.5400	2
256.0272	6
256.4060	0
257.0739	12
257.4792	1
257.5436	0
257.6733	0
258.0701	8
258.4534	0
258.6441	1
259.0941	17
259.5936	0
260.0769	6
260.3448	1
260.5482	0
261.1032	23
261.5349	1
261.6646	0
262.1170	5
262.4241	1
263.1014	13
263.4845	1
263.7349	1
263.8563	0
264.1386	4
264.5637	0
265.1116	8
265.3153	2
265.4083	0
265.6454	0
265.8179	0
266.1011	4
266.2730	1
266.5279	0
266.6699	0
267.1109	8
267.5846	0
268.0947	2
268.4122	1
268.5643	0
269.0936	10
269.5477	0
269.8271	1
270.1128	4
270.3438	0
270.6381	0
271.0690	9
271.5113	1
271.7054	1
272.0781	5
272.5468	1
272.6578	0
273.1252	14
273.4908	0
273.8267	1
274.0928	4
274.3803	0
274.7319	1
275.1327	12
275.3797	1
275.5926	1
275.7556	0
276.0924	4
276.2569	1
276.6293	1
276.7525	0
277.1542	7
277.4987	0
278.0989	3
278.3088	1
278.6737	0
279.1255	4
279.2884	1
279.6100	0
279.7302	0
280.0974	2
280.3188	0
280.6284	0
281.1081	4
281.2526	1
281.3651	1
281.6762	0
281.9375	0
282.1518	2
282.3362	0
282.4929	1
282.6453	0
282.8226	1
283.0897	4
283.6061	0
283.7286	1
284.0948	3
284.2757	1
284.3947	0
284.5963	0
285.1222	5
285.4543	1
285.6780	1
285.7978	0
286.1413	3
286.6211	0
287.1201	6
287.4445	1
287.8103	1
288.1426	5
288.3024	1
288.4115	0
288.4999	0
288.7781	1
289.1319	6
289.4386	0
289.8167	1
290.1628	3
290.3354	0
290.4653	0
290.6280	0
291.1197	2
291.9005	0
292.1346	1
292.3952	0
292.4852	0
292.6137	1
292.7329	0
293.0228	2
293.2484	2
293.4562	0
293.8468	0
294.1101	1
294.2920	0
294.3918	0
294.6757	0
294.8762	0
295.1016	2
295.3534	0
295.4640	0
295.6124	0
296.0983	1
296.4501	0
296.6214	0
296.8519	1
297.1281	3
297.5042	0
297.7569	0
298.0375	1
298.1703	1
298.4373	0
298.5330	0
299.1420	6
299.2905	2
299.7262	0
300.1711	2
300.6247	0
301.1669	9
301.5427	1
301.7441	0
301.9692	1
302.1822	2
302.4651	1
302.5902	0
302.8239	1
303.1369	4
303.3235	1
303.4343	0
303.6072	1
303.7109	0
304.0955	2
304.2435	1
304.5337	1
304.8397	0
305.1243	2
305.3217	1
305.4840	0
305.7993	0
305.9388	0
306.0697	1
306.2707	0
306.4781	1
306.9294	1
307.1269	2
307.2650	1
307.9968	0
308.1392	2
308.2437	0
309.0537	3
309.2312	2
309.8997	0
310.2032	1
310.7573	0
310.9184	1
311.1511	4
311.4189	0
312.0948	2
312.2775	1
312.6835	0
313.1555	5
313.4149	0
313.6011	0
314.1298	2
314.3462	0
314.4759	1
314.6779	0
315.0584	3
315.2096	2
315.4038	1
315.5450	0
316.1140	1
316.3333	1
316.6717	0
316.7648	0
317.1885	3
317.6724	0
317.7570	0
317.9735	1
318.1564	1
318.3858	0
318.6755	0
318.8598	0
319.1732	2
319.3891	1
319.7262	0
320.0016	1
320.1221	0
320.3151	1
320.3904	0
320.5246	0
321.1516	3
321.4228	1
322.1418	2
322.4101	0
322.7223	0
323.1127	1
323.3065	0
324.1155	1
324.1938	1
324.3747	0
325.1343	3
325.2721	1
325.3913	0
325.7856	0
325.9227	0
326.1733	1
326.3953	0
326.6531	0
327.1717	5
327.4195	1
327.6314	1
327.7111	0
327.8304	0
328.1788	1
328.4044	1
328.6120	0
328.8628	1
329.1890	4
329.9651	1
330.2361	1
330.8168	1
331.2172	3
331.6722	0
331.8886	1
332.0202	0
332.1697	1
332.3164	1
332.5199	1
332.8341	1
333.1814	4
333.2907	2
333.5848	0
333.8754	0
334.0768	0
334.2803	1
334.7665	0
335.0686	1
335.2758	1
335.4715	0
336.0967	0
336.3478	1
336.4931	0
337.1897	2
337.3566	1
337.4768	0
337.6768	1
337.9352	0
338.1900	1
338.2914	1
339.0415	1
339.2198	2
339.7530	0
340.0448	1
340.2159	1
340.6644	1
341.1891	3
341.5249	1
341.9555	0
342.2546	2
342.5243	0
342.7845	0
343.1427	2
343.3613	1
344.0186	0
344.2437	1
344.4171	0
344.5652	0
344.6530	0
344.8825	0
345.0702	2
345.2328	2
345.3961	1
345.4990	1
345.6443	0
345.7709	1
345.9004	0
346.0407	1
346.2141	2
346.4300	1
346.6724	0
346.8099	0
347.1013	1
347.3992	0
347.7591	1
348.3305	0
348.8307	0
349.1791	1
349.2706	0
349.5089	1
349.8760	0
350.1445	1
350.2878	0
350.6845	0
351.2159	2
351.4636	1
351.8273	0
352.2119	2
352.8630	0
353.1677	3
353.2987	2
353.4126	0
353.5141	1
354.2316	4
354.5486	0
354.6942	0
355.2065	3
355.4550	1
355.5516	0
355.7216	0
355.8896	0
356.1230	2
356.2845	1
356.7183	0
356.9194	0
357.2841	2
357.5515	1
358.2298	2
358.5355	0
358.8585	0
359.2485	2
359.7850	0
360.1037	1
360.2126	1
360.3113	0
360.7346	0
361.2063	1
361.5374	0
362.0033	1
362.1966	0
362.6164	0
363.0781	1
363.2209	1
363.3595	1
363.5932	1
364.0160	1
364.2058	1
364.3638	2
364.4951	0
365.2759	4
365.4188	1
365.5523	0
365.9310	1
366.1895	3
366.3285	3
366.5005	0
366.6640	1
366.8973	1
367.2501	4
367.7924	0
367.9054	0
368.2331	1
369.0441	0
369.2645	3
369.3567	1
369.4590	1
369.5612	0
369.8732	1
370.1152	1
370.2982	1
370.5323	0
370.7996	0
371.2758	1
371.5518	1
371.9719	1
372.2479	0
372.3927	0
372.8006	0
373.0269	0
373.1739	1
373.2589	0
373.4939	0
373.9530	0
374.1649	0
374.3422	1
375.0537	0
375.3284	1
375.5281	1
375.7653	1
376.2743	2
376.4408	1
376.5742	0
376.9571	1
377.2967	2
377.5095	1
377.9414	0
378.2696	7
378.5119	1
378.7045	1
378.8704	0
379.2281	2
379.4315	1
380.0468	1
380.3065	2
380.3989	1
380.8228	1
381.1690	2
381.3493	1
381.4495	0
381.8764	0
382.0892	1
382.2969	1
382.4123	1
382.6453	0
382.7989	1
383.0059	1
383.1935	1
383.3752	1
383.7041	1
383.8542	0
384.1644	1
384.4025	0
384.6398	0
385.1391	1
385.2899	0
385.5915	0
385.7242	1
385.8815	1
386.1427	1
386.2409	0
386.4444	1
386.7489	0
386.8781	0
387.2108	1
387.3767	0
387.6582	1
388.1172	2
388.3439	1
389.2137	1
389.3696	2
389.5061	0
389.6808	0
389.8974	0
390.2417	1
390.4431	0
390.9810	1
391.0475	0
391.2085	2
391.3616	1
391.4684	0
391.8461	1
392.2585	2
392.7806	1
393.0890	0
393.2674	2
393.4927	1
393.6935	0
393.8293	0
394.0178	1
394.2403	0
394.3920	0
394.9359	1
395.4077	2
395.4907	1
395.7147	0
395.8310	0
396.1359	1
396.3071	0
396.6193	0
396.8245	1
397.1366	2
397.3599	4
397.5181	1
397.6388	0
397.8773	0
398.0818	0
398.2820	2
398.4547	1
398.7532	0
399.0647	0
399.2895	3
399.4637	1
399.9067	1
400.2060	1
400.3896	1
400.6469	0
400.8392	0
401.0771	1
401.2679	0
401.4566	0
401.7451	0
401.8759	0
402.0900	0
402.2975	1
402.4941	0
402.9410	1
403.0610	1
403.2367	1
403.7639	1
404.0684	1
404.2376	2
404.3468	1
404.5182	0
404.9478	0
405.0635	0
405.2248	1
405.4034	0
405.6523	0
406.2888	1
406.5565	0
407.2972	1
407.6821	0
408.4346	1
408.5966	0
408.9816	0
409.2493	1
409.3716	1
410.2183	1
410.5208	1
410.8986	0
411.0455	1
411.3220	1
411.6766	1
412.0689	2
412.1500	1
412.4164	2
412.6849	0
412.9202	1
413.3375	1
413.4445	1
413.5580	0
413.8616	0
413.9758	0
414.2534	1
414.3806	1
414.5419	1
415.0002	1
415.3046	1
415.4442	1
415.9510	0
416.1246	1
416.2786	1
416.4688	0
417.0256	0
417.1898	1
417.3329	2
417.4653	2
418.2789	3
418.4814	1
418.6644	0
418.9060	1
419.1802	2
419.3567	4
419.5469	1
419.8775	0
420.3354	4
420.5076	2
420.7499	0
420.8888	0
421.2036	1
421.4930	0
421.7925	0
421.8960	0
421.9690	0
422.1658	1
422.3909	0
422.6492	1
422.8069	1
423.1789	2
423.3967	3
423.6362	1
423.9944	1
424.3180	3
424.4511	1
424.6422	1
424.9093	0
425.2038	2
425.3681	2
425.4970	1
425.6656	1
426.1354	0
426.2888	0
426.5140	0
426.7188	1
426.9143	0
427.0699	0
427.1887	1
427.4182	0
428.1892	1
428.4354	0
428.7800	0
428.9299	1
428.9951	0
429.2956	2
429.5179	1
429.8162	0
430.3133	5
430.7664	0
430.9145	0
431.3084	6
431.5570	0
431.7268	1
431.9487	1
432.2970	4
432.5233	2
432.6411	1
432.8217	0
433.1036	1
433.2648	1
433.3949	0
434.2204	1
434.3223	0
434.4402	0
435.2057	0
435.4009	1
435.6598	0
436.0538	0
436.1818	0
436.6177	0
436.9706	0
437.2063	1
437.8427	0
438.1717	1
438.4103	0
438.6519	0
439.0424	0
439.2044	0
439.4214	1
439.6087	1
440.0036	0
440.1873	0
440.4028	0
440.9468	0
441.2867	1
441.4220	0
441.7099	1
441.8857	0
441.9776	0
442.3437	6
442.7423	0
443.2574	3
443.5750	0
443.8210	0
444.2877	5
444.7718	1
445.0945	2
445.2979	2
445.4694	1
445.6850	1
445.8666	0
446.0273	0
446.3247	0
446.4543	0
446.8864	1
447.1816	1
447.3937	1
447.5457	0
448.0748	1
448.1421	0
448.4005	1
448.7653	1
448.8739	1
449.0172	0
449.1439	1
449.3452	1
449.6709	0
449.9040	1
450.1140	0
450.3196	1
450.4217	0
450.5643	0
450.8409	1
451.0617	1
451.2282	1
451.3723	1
451.5779	1
451.7502	0
452.0160	1
452.2723	1
452.4685	1
452.7647	1
453.0551	1
453.2491	1
453.3766	0
453.4939	1
453.6699	1
453.7828	0
453.9451	1
454.2775	1
454.5693	1
455.0148	0
455.2589	2
455.4624	1
455.6884	1
455.8571	0
456.3352	2
456.5293	0
456.6553	0
456.7908	0
457.2689	6
457.7383	0
458.2150	2
458.4121	1
458.5700	1
458.7482	0
458.9467	1
459.2793	0
459.6539	0
459.8974	1
460.1647	0
460.2952	1
460.4510	0
460.6930	0
460.8893	1
460.9886	1
461.1980	0
461.4357	0
461.7473	0
461.9792	0
462.1003	0
462.2793	1
462.3858	1
462.6228	1
462.7351	0
463.2019	0
463.4034	0
463.5266	0
463.7078	0
463.8571	0
464.0390	1
464.1332	0
464.3724	0
464.4732	1
464.5892	0
465.0611	1
465.2039	1
465.5141	2
465.7084	1
465.8830	1
466.2448	1
466.4648	1
466.7680	0
466.9120	1
467.0762	1
467.2137	1
467.3903	2
467.5791	1
467.7608	0
467.8570	0
468.3376	2
468.6791	1
468.9527	1
469.1923	0
469.3898	1
469.7054	1
469.8777	1
470.0217	2
470.3235	4
470.4784	1
470.6862	0
470.7962	0
471.0133	0
471.2688	1
471.4426	1
471.6655	1
471.7994	1
471.8928	0
472.2707	1
472.4235	1
472.5690	1
472.6602	1
473.1423	0
473.3132	0
473.5919	0
473.6933	0
473.8432	0
473.9887	1
474.1306	0
474.3015	1
474.4195	0
474.7258	1
475.0791	1
475.4484	0
475.6193	1
475.8626	0
475.9632	1
476.3253	3
476.6382	1
476.7801	0
476.9568	1
477.0893	0
477.3087	0
477.4927	1
477.7121	0
477.9895	0
478.1416	1
478.3748	2
478.7543	1
479.1570	1
479.4316	3
479.6018	0
480.0973	1
480.2856	3
480.5022	1
480.6297	0
480.8810	0
481.0672	0
481.2925	2
481.4236	3
481.7967	0
481.9467	0
482.3495	1
482.7262	1
482.8994	0
483.0233	1
483.3203	2
483.4710	2
483.8130	0
484.2949	4
484.5826	1
485.3543	6
486.2456	3
486.5160	3
486.6993	2
487.0602	2
487.3726	4
487.5966	2
487.8792	3
488.1764	2
488.3445	2
488.5612	1
489.1273	3
489.6021	2
489.9015	1
490.4111	3
490.7569	1
490.8751	0
491.0128	0
491.1353	0
491.3173	1
491.6196	1
492.1177	1
492.2395	1
492.4128	1
492.5781	0
492.8776	1
493.0885	0
493.2959	1
493.5367	0
493.8397	1
494.3730	8
494.9612	1
495.1619	1
495.3502	0
495.5690	1
495.7283	1
495.8798	1
496.2499	1
496.4137	1
496.5955	1
496.7513	0
496.9563	1
497.1389	1
497.3765	2
497.7373	1
497.8525	0
498.0503	2
498.4546	5
498.5546	2
498.7307	2
499.3509	99
499.8067	2
500.3951	4
500.7828	2
500.9480	0
501.1400	0
501.3220	0
501.4893	1
501.7321	1
502.0220	1
502.2902	1
502.5844	1
502.6779	1
502.9773	1
503.2368	1
503.4738	0
503.6245	0
503.8391	1
504.1718	1
504.3943	1
504.6103	1
504.8401	0
505.1844	1
505.5084	1
505.7390	1
505.8912	1
506.1304	1
506.5016	1
506.8199	1
506.9706	1
507.2954	3
507.6195	2
508.4055	124
508.9217	2
509.1581	1
509.4771	1
509.8419	1
510.0500	2
510.2856	2
510.6446	1
510.8208	1
511.0630	1
511.3611	4
511.6330	1
511.8578	1
512.3967	17
512.9044	1
513.4033	10
513.8486	1
514.4166	3
514.6733	1
514.8707	1
515.1245	1
515.2783	0
515.4633	0
515.6896	0
515.9653	0
516.2431	1
516.4440	0
516.9141	0
517.0295	0
517.3160	1
517.4734	0
517.6526	1
517.7971	1
518.0125	0
518.2113	1
518.4536	0
518.6052	1
518.9158	1
519.0326	0
519.2778	1
519.4288	1
519.6428	1
519.9838	1
520.3945	5
520.5367	5
520.7450	1
520.8676	0
521.3993	9
521.6281	3
521.8286	1
521.9937	0
522.2645	1
522.4607	1
522.6294	1
522.7503	0
522.8589	1
523.2065	0
523.3969	0
523.5084	0
523.6692	1
523.9762	1
524.2680	1
524.5237	1
524.7474	1
525.1406	1
525.5505	1
525.7308	1
526.3877	18
526.8882	1
527.3749	22
527.8572	1
528.0275	1
528.3244	3
528.5287	2
528.6692	1
529.0466	1
529.2190	1
529.7159	1
529.9774	0
530.0940	0
530.3106	1
530.4845	1
530.6931	0
530.9416	1
531.1097	0
531.3444	0
531.9739	0
532.0645	0
532.4673	1
532.5767	1
533.7758	0
533.8939	1
534.0062	0
534.3757	0
534.5873	1
534.6974	0
534.8960	0
534.9982	0
535.1619	1
535.2634	0
535.5706	1
535.9952	1
536.3467	7
536.5518	3
536.7489	1
536.9960	1
537.3091	0
537.5903	2
537.8468	0
537.9831	1
538.3165	2
538.4998	1
538.5911	1
538.8919	1
539.1057	1
539.2311	0
539.4304	0
539.6109	1
539.7225	1
539.9023	1
540.2241	1
540.3299	1
540.4843	0
540.6249	0
540.9344	0
541.1997	0
541.5759	2
541.7180	0
541.8333	0
542.0305	1
542.3023	1
542.5473	1
542.8561	1
543.1526	2
543.2701	1
543.4984	2
543.6833	1
543.9581	1
544.1741	1
544.2937	1
544.4206	1
544.5272	0
544.7795	1
544.8556	0
545.2174	1
545.3501	1
545.4835	0
545.7757	0
546.1230	0
546.2310	0
546.3506	0
546.5355	1
546.6059	0
546.7690	1
546.9735	1
547.3085	1
547.6616	0
547.8415	0
548.2251	0
548.3904	0
548.7218	1
548.8799	1
549.4093	1
549.4781	0
549.8278	1
550.0010	1
550.2041	0
550.2890	0
550.5247	1
550.8953	0
551.0831	0
551.3232	1
551.5749	1
551.8795	1
552.0912	0
552.3140	3
552.5439	3
552.7223	1
552.8644	1
553.4484	5
553.8096	1
554.4509	7
554.8237	2
555.3438	3
555.7239	2
555.8886	1
556.0301	2
556.2535	3
556.4661	3
556.6439	3
557.0878	4
557.3519	3
557.6131	2
557.8293	3
557.9556	2
558.2908	3
558.7232	3
559.0222	2
559.4096	2
559.7819	3
560.0997	2
560.4189	4
560.8159	3
561.4435	4
562.1852	5
562.9254	5
563.3659	3
563.6758	2
564.0118	3
564.4110	2
564.7441	3
565.1085	2
565.5977	2
566.4664	3
567.0317	3
567.5008	4
568.4716	78
569.4547	40
570.4408	112
571.0635	2
571.2807	3
571.4400	2
571.7499	2
571.9642	0
572.1271	2
572.3103	1
572.4986	1
572.7563	2
572.9975	1
573.2610	1
573.4703	1
573.6289	1
573.7513	0
574.1133	0
574.3683	0
574.6181	1
575.0004	1
575.1917	0
575.4053	1
575.4987	0
575.7283	0
575.8347	0
576.1954	1
576.4829	0
576.6995	1
576.8291	0
576.9768	2
577.1043	2
577.3231	2
577.4788	1
577.7083	1
578.0574	2
578.2661	1
578.4370	2
578.5377	1
578.7600	2
579.0591	2
579.5662	2
580.2761	3
581.0511	4
581.3235	3
581.6010	4
581.9646	4
582.4753	11
582.7709	7
583.1360	4
583.4838	6
583.8460	7
584.4575	19
584.8886	6
585.4537	36
586.4478	11
586.9275	5
587.7949	5
588.3057	6
588.8456	8
589.2920	6
589.6239	6
590.5946	7
591.4362	10
591.7948	6
592.6785	8
593.2587	9
593.8998	10
600.4233	999
601.5176	204
602.0864	109
602.9271	50
603.8235	26
604.5193	13
605.3187	8
605.5927	6
606.3153	4
607.0648	3
607.3286	4
607.5598	3
607.8635	3
608.0832	2
608.2615	2
608.4797	1
608.6406	2
609.1589	2
609.2756	1
609.6939	2
610.1506	1
610.4050	0
610.6008	0
610.7262	1
610.9321	1
611.1097	1
611.4569	0
611.6223	1
611.7498	1
