Mass spectrum: Ipomoeaxanthin C; FAB-EBEB; MS2; m/z: 586.44; [M]+*
Name: Ipomoeaxanthin C
Formula: C40H58O3
Exact mass: 586.43860
SMILES: CC(C=CC=C(C)C(C=3)OC(C32)(CCCC(C)(C)2)C)=CC=CC=C(C)C=CC=C(C)C=CC(C1(C)O)(C(CCC1)(C)C)O
InChI: InChI=1S/C40H58O3/c1-30(19-13-20-32(3)23-28-40(42)37(7,8)25-16-27-39(40,10)41)17-11-12-18-31(2)21-14-22-33(4)34-29-35-36(5,6)24-15-26-38(35,9)43-34/h11-14,17-23,28-29,34,41-42H,15-16,24-27H2,1-10H3/b12-11+,19-13+,21-14+,28-23+,30-17+,31-18+,32-20+,33-22+/t34?,38-,39-,40+/m1/s1
Instrument: JMS-HX/HX 110A, JEOL
Instrument type: FAB-EBEB
Ms type: MS2
Ion mode: POSITIVE
Collision energy: 3 kV
Ionization: FAB
Base peak: 568.4644
Precursor m/z: 586.44
Precursor type: [M]+*
m/z	relative intensity
6.6120	0
11.9659	0
12.9707	1
13.9742	1
14.9807	6
21.9409	0
22.9319	1
24.9524	1
25.9563	3
26.4204	0
26.5105	0
26.9673	33
27.3926	1
27.9735	4
28.9819	26
29.9816	1
30.9652	2
31.9587	1
36.9479	3
37.4390	0
37.7325	0
37.9601	11
38.2560	0
38.4585	0
38.9595	74
39.1482	0
39.9680	16
40.9775	167
41.1721	0
41.9805	7
42.5106	0
42.9588	482
43.5158	0
43.9603	5
44.9741	11
46.8824	0
48.6786	0
48.8897	1
48.9766	0
49.9604	18
50.9569	41
51.6850	0
51.9651	19
52.2907	0
52.4798	0
52.9709	75
53.9899	7
54.6055	0
54.7372	0
54.9773	216
55.9909	10
56.9857	31
57.9691	11
58.9818	14
59.9905	0
60.9795	3
61.0943	0
61.4800	0
61.9567	9
62.4348	1
62.7849	2
62.9602	29
63.3285	0
63.6782	1
63.9674	7
64.3254	0
64.9687	55
65.9729	13
66.5100	0
66.9783	95
67.7273	0
67.9847	7
68.9875	514
69.2295	0
69.6637	0
69.9751	12
70.9691	128
71.3004	1
71.5132	1
71.9654	3
72.7871	0
72.9883	8
73.9571	7
74.9506	12
75.1328	1
75.3390	0
75.4904	1
75.5822	1
75.9474	8
76.2912	0
76.5369	2
76.6719	3
76.9560	144
77.1899	1
77.5315	1
77.6622	1
77.9649	38
78.1458	2
78.3687	2
78.5038	1
78.9697	167
79.2577	0
79.5162	0
79.5884	0
79.9746	48
80.1217	1
80.3215	1
80.5310	1
80.9795	190
81.2750	1
81.7781	0
81.9682	10
82.1029	1
82.9858	72
83.3506	0
83.5278	1
83.9842	5
84.4256	0
84.9738	33
85.9810	4
86.4977	0
86.9643	7
87.7866	0
87.9585	3
88.9509	17
89.2217	2
89.3742	1
89.4975	1
89.6331	2
89.6975	1
89.9658	6
90.2762	2
90.5107	1
90.9691	270
91.1942	2
91.4030	1
91.4976	1
91.9705	34
92.2567	0
92.4188	2
92.5437	0
92.9804	279
93.2764	2
93.7334	1
93.9925	25
94.3273	1
94.5277	2
94.9834	272
95.3453	1
95.6021	1
95.9793	16
96.1779	1
96.4667	0
96.5772	0
96.7581	0
96.9928	25
97.4973	1
97.9998	10
98.9903	7
100.0170	2
100.5271	0
100.9461	4
101.2228	0
101.4671	1
101.6617	1
101.9637	13
102.2534	1
102.4220	1
102.5444	1
102.6869	1
102.9857	47
103.4086	1
103.5783	1
103.6835	1
103.9960	26
104.2084	1
104.3294	1
104.4009	0
104.5376	1
104.6191	0
104.9962	339
105.3975	2
105.9977	40
106.4626	0
106.5733	3
106.7106	1
107.0097	202
107.2334	1
107.3443	1
107.4695	2
107.9940	47
108.2804	0
108.5020	2
109.0174	423
109.4184	1
109.7175	0
110.0053	17
110.3129	1
110.4822	0
110.5934	0
110.7357	0
111.0113	37
111.4460	0
111.6112	0
111.9874	3
112.5317	4
112.9941	11
113.1946	1
113.4943	1
113.9262	6
114.2218	2
114.3483	2
114.5334	3
114.9660	108
115.2321	2
115.3181	0
115.4703	2
115.5977	1
115.6704	0
115.9827	49
116.3908	3
116.9823	127
117.3617	3
117.4294	1
117.5374	1
117.7010	0
117.9816	32
118.4230	1
118.5804	1
118.9792	267
119.2962	1
119.4128	2
119.6737	2
119.9834	49
120.1726	2
120.2829	1
120.4382	1
120.5819	3
120.9838	196
121.2382	2
121.3988	1
121.5139	1
121.9729	49
122.4103	1
122.6047	0
122.9852	142
123.2448	1
123.3511	1
123.6379	0
123.7700	1
123.9912	14
124.4292	0
124.6912	1
124.9753	24
125.6078	1
125.9549	11
126.2854	3
126.4536	2
126.9837	115
127.3522	2
127.5012	3
127.9548	135
128.2278	1
128.3420	1
128.9532	145
129.2564	1
129.5032	2
129.9651	65
130.2375	1
130.4599	1
130.9660	178
131.4392	1
131.5961	1
131.9779	46
132.3135	1
132.4373	1
132.6133	2
132.9786	166
133.3407	1
133.4778	1
133.9544	24
134.2085	2
134.4384	2
134.9607	156
135.3237	2
135.4159	1
135.9689	25
136.3594	2
136.9747	31
137.3770	1
137.5110	1
137.9930	6
138.3281	0
138.4589	1
138.5773	0
138.9619	24
139.3994	2
139.5145	1
139.9516	8
140.0925	3
140.1761	2
140.4409	4
140.9423	90
141.2501	2
141.4637	1
141.6675	4
141.9631	96
142.2745	2
142.4501	3
142.5181	1
142.9678	195
143.2829	2
143.5281	2
143.9663	70
144.5820	2
144.9837	259
145.3061	2
145.5259	1
145.9710	36
146.2964	1
146.5416	2
146.9859	119
147.2923	2
147.5597	3
147.6612	2
147.9712	20
148.3822	1
148.4991	1
148.9827	195
149.3103	2
149.4220	2
149.6859	1
149.9879	19
150.3132	1
150.5647	0
150.7583	4
151.0120	20
151.4355	1
151.5227	1
151.9724	42
152.4290	3
152.9678	53
153.2459	2
153.3420	1
153.9780	30
154.2892	1
154.4835	2
154.9952	111
155.2846	1
155.4811	1
156.0033	79
156.2314	3
157.0070	184
157.3163	1
157.5506	2
157.7033	2
158.0182	42
158.2440	1
158.3626	1
158.4692	2
158.5717	2
159.0142	134
159.2858	1
159.5541	2
160.0224	31
160.2540	1
160.3923	1
160.6259	2
161.0316	72
161.2929	1
161.5442	0
162.0267	21
162.3824	1
162.6662	2
163.0314	59
163.3120	4
163.4695	2
164.0249	62
164.3131	2
164.4895	2
165.0434	293
165.3561	2
165.5475	3
165.6884	2
166.0404	37
166.2852	2
166.3972	1
166.6556	3
167.0287	66
167.2616	1
167.3575	1
167.6012	1
168.0348	33
168.3394	0
168.5293	1
169.0463	98
169.4105	2
169.6012	2
170.0514	39
170.4350	1
170.5692	1
170.6812	2
171.0576	103
171.3585	2
171.5400	1
171.6777	2
172.0523	27
172.3386	1
172.5338	3
173.0444	66
173.5296	3
173.7310	1
174.0832	18
174.2725	3
174.4591	2
174.5592	1
175.0429	45
175.2980	1
175.4144	1
175.5991	0
175.8286	3
176.0601	9
176.3221	2
176.4278	1
177.0611	136
177.2955	3
177.4046	2
178.0031	39
178.4391	1
178.6507	3
179.0285	74
179.5775	2
180.0200	33
180.4125	2
180.5374	1
180.6012	1
181.0346	66
181.4674	1
181.5870	0
182.0342	41
182.4054	3
182.4931	1
182.5910	1
183.0508	115
183.3440	2
183.5202	2
183.7332	0
184.0598	24
184.3614	2
184.4989	2
184.7039	5
185.0546	67
185.4905	2
186.0697	24
186.2653	2
186.6259	2
187.0643	67
187.4006	1
187.5718	2
188.0330	7
188.5653	1
189.0172	33
189.4166	1
189.5580	1
190.0095	12
190.1974	3
190.3409	3
190.5233	5
191.0489	97
191.3298	2
191.4659	2
192.0486	61
192.3324	1
192.5637	2
193.0296	66
193.5601	2
194.0325	32
194.4133	1
194.4927	0
195.0312	68
195.4642	2
195.5931	1
196.0482	39
196.3883	1
196.5007	0
197.0446	80
197.4129	1
197.5296	1
198.0326	22
198.3414	2
198.4430	0
198.7643	3
199.0643	40
199.5080	2
200.0328	16
200.5337	1
200.6464	1
201.0513	26
201.4534	1
201.7017	3
202.0393	23
202.2553	2
202.4073	1
203.0314	40
203.4436	1
204.0349	16
204.4060	3
205.0789	200
205.3689	2
205.5991	2
206.0608	33
206.3020	1
206.4433	1
206.5302	0
207.0390	49
207.5776	3
207.7721	1
208.0549	20
208.4068	1
209.0548	61
209.3737	2
209.4862	2
210.0531	13
210.3321	1
210.4696	2
210.5932	1
211.0712	57
211.5694	1
211.8030	2
212.0733	17
212.2827	2
213.0537	30
213.4638	1
213.6547	0
214.0788	9
214.5639	2
215.0573	26
215.4699	1
215.5883	1
215.7587	1
216.0800	14
216.3258	1
216.4699	1
217.0705	35
217.6685	2
218.0864	37
218.3581	2
218.5980	2
219.0931	25
219.3455	1
219.5786	3
220.0739	16
220.2203	3
220.6137	2
221.0821	53
221.3341	1
221.4889	1
221.6382	2
221.7492	2
222.1075	18
222.4235	2
222.5999	1
223.1111	32
223.3772	1
223.6037	3
224.0873	13
224.3660	1
224.5224	1
224.7122	2
225.0987	27
225.4540	1
225.7517	1
226.0646	16
226.2545	5
226.4973	1
226.8612	5
227.1499	17
227.3573	1
227.7352	1
228.0972	12
228.4258	1
228.6200	2
229.1158	15
229.5184	2
229.6431	2
230.1015	5
230.5418	2
231.1329	40
231.4311	1
231.6154	1
231.7273	1
231.8260	1
232.1369	9
232.4144	1
232.4867	1
233.1198	18
233.4440	2
234.0919	8
234.5026	1
235.1201	24
235.4487	1
235.6194	1
236.1521	11
236.4970	1
236.6321	0
237.1226	26
237.5170	1
237.6752	1
238.1262	9
238.6183	1
239.1399	22
239.4209	0
239.6044	1
239.8638	1
240.1358	9
240.5698	1
241.1259	20
241.4797	2
241.6849	1
241.8894	1
242.1624	8
242.5359	2
242.8207	3
243.1364	26
243.4702	1
243.7391	1
244.1338	5
244.3629	2
244.5816	1
244.7884	1
245.1175	11
245.5984	1
245.8038	0
246.1037	10
246.3834	0
246.5190	1
246.5903	1
247.1245	17
247.8036	2
248.1184	6
248.2905	1
248.4395	1
249.1294	20
249.4380	1
249.5892	2
249.8083	1
250.1072	9
250.2262	4
250.5944	1
251.1595	22
251.5258	0
251.9208	3
252.1842	10
252.4742	1
252.5947	1
252.7866	1
253.1370	18
253.7915	2
253.9184	3
254.1413	5
254.2794	3
254.4427	2
254.6649	1
254.7834	2
255.1557	24
255.8485	1
256.1754	13
256.7443	1
257.1406	15
257.4766	1
257.6947	1
258.1542	12
258.4966	1
258.5998	1
258.7472	2
259.1394	10
259.4230	2
259.8083	1
259.9270	2
260.1362	5
260.4170	1
260.8130	2
261.1255	15
261.2954	3
261.5160	0
261.9388	1
262.1881	4
262.5640	2
263.1570	13
263.2856	7
263.5273	1
263.6841	1
263.8267	1
264.1585	8
264.3040	3
264.5795	2
264.7278	1
264.8256	1
265.1609	16
265.5751	2
265.7403	1
266.1482	7
266.4282	1
266.6842	3
267.1822	22
267.5178	1
267.6691	1
267.8274	2
268.1989	10
268.3805	2
268.7894	1
269.1822	29
269.6975	2
270.2072	19
270.5966	0
270.7417	1
271.1960	46
271.5052	2
272.0032	1
272.1371	4
272.2949	4
272.8677	1
273.2116	9
273.5358	1
273.7585	1
274.1765	5
274.4951	1
274.7503	1
275.2154	11
275.3983	2
275.6270	1
275.9169	2
276.1794	4
276.3328	1
276.4475	1
276.7079	1
276.8663	2
277.1802	11
277.5019	1
277.6885	1
278.1257	7
278.2574	4
278.4813	1
278.6552	2
278.9031	0
279.1974	15
279.6679	1
279.8898	1
280.1758	9
280.3506	3
280.4978	1
281.2080	25
281.4702	1
281.9522	2
282.1975	11
282.4836	1
283.2034	55
283.4840	4
283.5975	2
283.9028	1
284.2202	13
285.1772	6
285.3994	1
285.6541	2
285.7712	1
286.1973	5
287.1859	11
287.3976	2
287.9277	1
288.1585	3
288.3230	2
288.8977	0
289.1815	7
289.3990	1
289.5720	0
289.8488	0
290.2676	2
291.1858	9
291.3893	2
291.5566	1
291.8967	1
292.2220	4
292.7265	2
293.2113	17
293.6984	1
294.1960	11
294.3492	4
294.5624	1
294.6761	0
295.1831	23
295.6152	1
295.8815	1
296.2445	24
296.6386	1
296.7735	1
296.9162	2
297.2172	17
297.7258	1
297.9131	2
298.1625	5
298.2918	2
298.3929	1
299.1971	5
299.3179	3
299.4550	0
299.9378	1
300.1350	3
300.2990	2
300.4560	2
300.5521	1
300.7975	0
300.9679	2
301.1673	5
301.3285	1
301.6488	0
302.1898	3
302.3659	1
302.5222	2
302.7210	1
303.1503	7
303.2784	3
303.3901	2
304.1627	3
304.5809	1
304.7458	0
305.2114	6
305.9539	3
306.2349	5
306.6426	0
306.8932	1
307.2054	10
307.4072	2
307.5063	1
307.8512	2
308.2060	7
308.3348	3
308.6337	1
309.2102	52
309.6402	1
309.8293	0
309.9788	1
310.2041	6
310.3394	2
310.6136	1
310.7758	2
311.0281	2
311.1882	6
311.3122	5
311.4709	1
311.7466	2
311.8848	1
312.2392	3
313.1606	6
313.2627	2
313.3988	1
313.9284	0
314.1794	2
314.5276	0
314.7488	2
314.8459	0
315.0261	4
315.1970	5
315.3062	4
315.6672	0
315.8303	0
315.9956	1
316.1601	2
316.2786	1
316.4751	1
316.5978	1
316.6836	1
316.8319	1
317.1320	4
317.4044	2
317.7343	1
317.8841	1
318.1161	2
318.2310	2
318.3325	2
318.4943	2
319.1692	11
319.3630	4
319.5142	1
319.6895	1
319.8598	1
320.2183	7
320.4937	1
320.6968	1
320.8920	1
321.2293	12
321.3911	6
321.5722	1
322.2284	8
322.6104	1
322.7198	0
322.8775	1
323.2354	11
324.2228	5
325.1927	3
325.4399	1
325.6197	1
325.8279	1
326.1086	0
326.2287	1
326.3858	1
326.5180	1
327.0269	1
327.2302	3
327.3141	1
327.5678	1
328.1607	2
328.4565	0
328.5645	1
328.8546	2
329.2102	6
329.3673	2
329.7001	1
330.0877	4
330.3999	1
330.6859	1
330.9967	1
331.1923	5
331.4213	2
331.5273	1
331.8048	2
332.2437	5
332.4138	1
332.6301	0
332.8421	2
333.2071	8
333.4142	4
333.6967	3
333.9842	2
334.2291	4
334.3984	1
334.8141	2
335.2412	15
335.5356	3
335.6607	2
335.8163	3
336.2592	264
336.6879	5
336.7981	2
337.2844	14
337.7814	1
338.2123	6
338.5245	0
338.7015	0
338.8537	0
339.2250	4
339.3751	2
340.2265	2
340.8909	1
341.3071	3
341.4580	1
341.5953	0
342.1695	2
342.2812	2
342.8975	2
343.2740	4
343.8847	2
344.2968	2
344.6513	1
345.2415	4
345.4736	4
345.7826	1
346.3864	3
346.4604	2
346.7296	1
346.9903	1
347.3271	8
347.6377	1
347.8684	2
348.2715	10
349.2909	44
349.6856	2
350.1402	9
350.3568	8
351.2575	23
351.9366	1
352.2631	2
352.5318	1
353.1505	1
353.3123	2
353.5183	3
353.7600	1
353.8748	0
354.3232	1
355.2865	4
355.9811	1
356.1750	2
356.2984	1
356.6878	0
356.8847	2
357.2934	2
358.0017	0
358.2407	3
358.5004	2
358.7458	2
358.8564	1
359.0662	2
359.3252	5
359.6469	0
360.1971	3
360.4026	4
360.7159	1
360.8123	1
360.9636	3
361.3176	6
361.6045	1
361.7015	0
361.9214	0
362.2961	12
362.4482	7
362.6409	1
363.3362	13
363.5114	3
363.7679	1
364.2310	4
364.4255	7
364.9819	1
365.1479	2
365.3460	4
365.4344	2
366.2239	2
366.4028	2
366.9231	2
367.0685	1
367.2987	6
367.4398	2
368.1270	2
368.4164	3
369.2676	2
369.4351	1
370.0633	1
370.2808	1
370.9703	1
371.3005	3
371.5258	1
371.8618	1
372.3004	2
372.4787	0
373.2683	7
373.4381	4
373.6229	1
374.0787	2
374.3498	6
374.8314	1
375.3116	11
375.9060	1
376.3228	6
376.7088	2
377.3147	7
377.4239	3
377.6236	1
377.9076	1
378.3486	3
378.6605	0
379.1222	3
379.4005	6
379.7174	0
380.1613	3
380.2549	1
380.3598	1
380.5018	2
380.6960	0
381.1764	2
381.4591	2
381.9595	1
382.3208	2
382.5614	1
383.0955	1
383.2404	0
383.4318	2
384.0238	1
384.1130	1
384.2202	1
384.4437	1
385.1236	2
385.3850	5
385.8607	1
386.1643	0
386.4014	2
386.8236	0
387.3280	5
387.7838	1
388.2010	1
388.4175	2
388.6640	0
388.8412	1
389.3043	3
389.5137	2
390.2340	4
390.3862	2
390.4677	1
390.8465	1
391.1431	1
391.4483	1
392.0731	1
392.2482	1
392.4598	2
392.5728	1
392.9659	1
393.3484	7
393.9461	1
394.3058	10
394.5532	3
395.3619	5
395.4942	3
395.6072	1
396.0549	1
396.3624	2
396.6156	2
396.8145	0
397.3344	1
397.5333	1
398.3566	2
399.0663	1
399.2058	2
399.3997	2
399.6308	1
399.7632	2
399.9857	0
400.2225	3
400.4572	2
400.7484	1
401.3295	7
401.5463	3
401.8934	1
402.0415	0
402.3171	3
402.4903	2
402.5941	1
402.9770	2
403.3957	13
403.9032	0
404.3406	5
404.5439	3
404.9770	1
405.0779	1
405.2820	2
405.4574	2
405.6177	1
406.0072	1
406.2714	5
406.3688	2
406.5178	1
406.6022	0
406.7548	0
406.9051	0
407.3026	1
407.4866	3
407.7566	1
408.1906	1
408.3409	2
408.5128	1
408.6009	1
408.7907	1
409.3878	2
409.5256	1
409.6812	1
410.2517	1
410.4024	3
411.0208	0
411.3092	1
411.4556	2
411.6077	1
412.1198	1
412.2390	2
412.4926	2
412.5840	1
412.8511	1
413.3789	5
413.6082	2
414.0339	1
414.4054	3
414.6589	1
415.0154	1
415.3098	4
415.4976	3
415.6812	0
415.8156	1
416.0756	1
416.1856	1
416.3550	6
416.5922	3
416.8916	1
417.0766	2
417.3932	8
417.6476	3
417.7462	1
418.0713	1
418.2049	1
418.4258	4
418.5858	1
419.0318	0
419.3348	5
419.4499	3
419.8008	2
420.3740	21
421.0388	2
421.3555	13
421.5392	7
421.7129	1
421.8923	3
422.3942	47
422.8689	1
423.1034	3
423.2064	2
423.3394	1
423.5181	1
424.1717	1
424.3068	2
424.3747	1
424.5135	3
424.6879	1
424.9354	1
425.2000	1
425.3601	3
425.6183	0
425.8021	1
426.1676	1
426.2762	0
426.5114	3
426.6308	1
426.8174	1
426.9739	0
427.3013	4
427.4593	1
428.3908	6
428.5689	3
428.7541	1
429.3782	12
429.6564	1
429.8773	0
429.9889	0
430.1891	3
430.3586	4
430.4980	3
430.6267	1
431.0394	3
431.3819	8
431.5965	2
432.0363	0
432.3174	4
432.5134	2
432.8774	1
433.3731	12
433.5905	4
433.8645	1
434.0941	1
434.3381	2
435.4197	2
435.5936	1
435.6959	1
436.2046	0
436.4536	2
437.3244	1
437.6808	0
437.9877	1
438.4815	1
438.9524	1
439.1592	1
439.4935	5
439.7225	1
439.7991	0
440.3924	54
440.7646	1
440.8391	1
440.9787	1
441.2972	3
441.4876	3
442.1412	0
442.2944	3
442.5120	1
442.9995	1
443.3661	12
443.6632	1
444.2897	3
444.3764	1
444.5675	3
444.7201	1
444.8962	1
444.9900	0
445.3173	2
445.5922	2
446.4630	2
446.7108	1
446.8398	1
447.0854	1
447.3088	2
447.4449	1
448.1497	1
448.4104	2
448.5458	1
448.7464	1
448.8860	2
449.0057	1
449.3904	9
449.7714	1
450.3517	16
450.6289	2
450.8861	1
451.2465	2
451.4994	3
451.7939	0
451.9924	1
452.1364	0
452.9310	1
453.2972	3
453.7350	1
454.0389	0
454.1657	1
454.3843	1
454.4782	2
454.8558	1
454.9827	0
455.2722	2
455.3998	2
455.5088	1
455.7231	1
455.8557	0
456.7344	3
456.9315	1
457.0684	0
457.3630	10
457.5208	5
457.7996	1
457.8985	0
458.1322	3
458.2870	5
458.5265	2
458.9674	1
459.4585	12
459.8220	1
460.3339	2
460.7097	2
461.6452	2
462.3595	4
462.4633	1
462.6143	0
463.0875	1
463.3130	2
463.4991	5
464.1176	0
464.2579	1
464.3524	1
464.4934	1
465.1757	1
465.3275	2
465.5594	2
465.9984	1
466.4451	8
466.7623	2
467.3352	4
467.5980	4
467.7304	1
467.9632	1
468.2389	1
468.6012	0
469.3682	1
469.6483	1
470.1016	1
470.1947	1
470.4955	1
470.6474	1
470.8515	2
471.0922	0
471.3286	1
471.4590	5
471.6488	2
471.8486	1
472.0119	0
472.3737	4
472.5019	2
472.7985	2
473.2541	2
473.3802	3
473.4984	1
473.6732	1
473.8437	2
474.0637	1
474.1869	1
474.3940	1
474.5938	1
474.7414	3
475.0481	1
475.2659	3
475.5260	3
475.7395	2
475.8269	1
476.4625	7
476.6538	4
476.8824	1
477.1139	2
477.3361	2
477.4894	3
477.6879	1
477.7925	1
478.1208	2
478.3322	2
478.4426	2
478.6103	4
478.7550	0
478.8769	0
479.4123	6
479.6287	7
480.1684	1
480.3849	3
480.6745	2
481.3612	1
481.4809	0
481.7633	1
482.2967	2
482.5791	1
483.1814	1
483.2925	2
483.4882	1
483.6352	1
483.8338	1
484.1062	1
484.2682	2
484.4576	0
484.6906	2
484.8304	1
485.0591	1
485.4004	6
485.9669	5
486.2258	4
486.6202	11
487.4205	7
487.6937	6
488.0810	7
488.4159	7
488.5802	7
488.8678	8
489.4515	10
489.8872	5
490.3394	12
490.6346	8
490.8869	4
491.0925	4
491.3957	10
491.6028	6
491.9074	3
492.4291	11
492.7294	2
493.0054	3
493.4870	50
493.9099	1
494.0016	1
494.4790	19
494.7113	5
495.0295	0
495.1779	1
495.3285	0
495.5055	1
495.6776	1
496.0059	0
496.1436	1
496.2747	0
496.5608	1
496.9171	0
497.1680	2
497.3293	2
497.5186	1
497.6892	1
498.0047	0
498.5016	3
498.6679	1
498.9189	0
499.0917	1
499.4488	3
499.6926	1
499.9894	1
500.2225	2
500.4232	2
500.5810	4
500.9360	1
501.1231	2
501.4645	4
501.7779	2
502.2132	1
502.4341	6
502.5854	3
502.7411	1
502.8852	1
502.9698	1
503.1606	1
503.3342	1
503.5200	1
503.6713	1
503.8055	2
504.0766	1
504.4811	4
504.7523	2
504.8979	1
505.3010	5
505.5743	9
506.5198	351
507.0614	7
507.2379	1
507.5801	7
507.9230	2
508.0715	2
508.2158	1
508.3643	3
508.5149	1
508.7725	2
509.0581	2
509.5194	1
509.6830	4
509.9012	2
510.0389	0
510.2434	2
510.3647	2
510.4845	1
510.6316	2
510.7730	0
511.1088	0
511.2925	2
511.5882	1
512.0468	0
512.3445	1
512.6417	1
513.4031	3
513.6558	3
513.9780	1
514.2623	1
514.4187	1
514.6053	1
514.6965	0
515.0281	1
515.4229	2
515.6805	2
516.3771	1
516.5453	2
517.3824	1
517.6400	1
518.0135	1
518.2203	1
518.3799	1
518.7419	1
519.1406	2
519.4683	0
519.6085	0
520.6248	0
521.3369	1
523.0732	1
523.2199	1
523.3581	1
523.6780	1
524.6794	2
525.0396	0
525.4697	1
526.4312	0
526.7419	3
526.8443	1
527.5158	4
527.8351	1
528.3965	2
528.5232	2
528.6335	2
528.7989	3
528.8984	1
529.1612	1
529.4103	3
529.5621	3
529.7827	1
530.3248	3
530.6234	4
530.7773	2
531.0301	1
531.3108	2
531.4483	3
531.5930	2
532.1644	1
532.4079	1
532.6249	1
532.7431	1
533.0518	1
534.5049	1
535.2391	2
535.4727	1
535.5636	1
535.7040	2
536.0299	2
536.4927	1
537.0070	2
537.2297	2
537.5801	2
538.2606	1
538.3760	1
538.5765	1
538.7148	1
539.0308	0
539.3503	1
539.4886	1
539.6082	1
539.8976	2
540.1470	1
540.2960	1
540.5139	1
540.6241	1
541.0691	1
541.4768	4
541.5764	2
541.7806	0
542.0228	2
542.1876	1
542.3202	2
542.5466	4
542.9386	1
543.5363	5
543.8530	3
543.9655	1
544.5452	9
544.6463	6
544.8190	1
545.0641	0
545.3981	3
545.5364	0
545.7743	2
545.9657	0
546.2796	1
546.3914	0
546.6760	0
546.8953	1
547.0135	3
547.0988	2
548.0471	1
548.3604	1
548.7661	1
548.9603	5
549.1036	1
549.2793	1
549.5546	1
549.6857	2
549.9194	2
550.1251	1
550.4857	4
550.6621	3
550.8987	1
550.9904	2
551.1101	0
551.2779	0
551.4392	4
551.7045	2
551.8773	1
551.9991	2
552.6336	4
552.8975	2
553.1104	2
553.3334	6
553.6474	10
553.9084	2
554.2109	3
554.3938	2
554.6369	4
554.8376	1
555.0284	1
555.1409	0
555.4730	11
555.7411	3
556.0222	2
556.4109	10
556.5873	6
556.7314	7
557.3022	15
557.6335	10
558.6347	13
559.2120	12
559.8661	15
560.3041	9
560.5756	16
561.2629	18
561.9561	21
563.2186	21
563.5602	26
568.4644	999
569.6234	36
570.5368	31
571.5821	223
572.5743	11
573.1819	11
573.6319	9
573.9507	8
574.3190	8
574.5369	7
574.8672	10
575.2842	11
575.5594	9
576.5655	11
578.0575	16
578.8021	13
579.1461	17
579.4658	19
580.1316	24
586.5649	999
587.3977	437
588.2814	200
589.1780	87
589.9901	47
590.6718	30
591.1477	26
591.9133	14
592.7190	11
592.9835	8
593.3011	7
593.5369	6
593.7678	8
593.9492	7
