Mass spectrum: Semi-beta-carotenone; FAB-EBEB; MS2; m/z: 568.43; [M]+*
Name: Semi-beta-carotenone
Formula: C40H56O2
Exact mass: 568.42803
SMILES: C(=CC(=C(C)1)C(C)(C)CCC1)C(C)=CC=CC(=CC=CC=C(C)C=CC=C(C)C=CC(C(C)(C)CCCC(C)=O)=O)C
InChI: InChI=1S/C40H56O2/c1-31(19-13-21-33(3)25-27-37-35(5)23-15-29-39(37,7)8)17-11-12-18-32(2)20-14-22-34(4)26-28-38(42)40(9,10)30-16-24-36(6)41/h11-14,17-22,25-28H,15-16,23-24,29-30H2,1-10H3/b12-11+,19-13+,20-14+,27-25+,28-26+,31-17+,32-18+,33-21+,34-22+
Instrument: JMS-HX/HX 110A, JEOL
Instrument type: FAB-EBEB
Ms type: MS2
Ion mode: POSITIVE
Collision energy: 3 kV
Ionization: FAB
Base peak: 68.9776
Precursor m/z: 568.43
Precursor type: [M]+*
m/z	relative intensity
2.7613	0
4.2473	0
12.9709	1
13.9754	3
14.9825	7
15.4132	0
16.4200	0
17.9955	1
22.9385	2
23.9487	0
24.9395	1
25.9621	7
26.9651	47
27.9804	8
28.9762	45
29.9153	0
30.9605	0
34.7021	0
34.9756	1
35.9431	0
36.0840	0
36.4455	0
36.9422	4
37.1109	0
37.3854	1
37.9503	16
38.1522	0
38.3615	0
38.6468	1
38.9582	112
39.3425	0
39.9674	14
40.5479	0
40.9707	309
41.9577	12
42.9502	573
43.1875	0
43.4496	0
43.9423	1
44.9501	6
47.7072	0
48.9497	2
49.1905	1
49.9475	38
50.1568	0
50.9486	62
51.9570	24
52.4742	0
52.6146	0
52.9637	124
53.7674	0
53.9679	6
54.6199	1
54.9726	315
55.9772	11
56.5921	1
56.9840	35
57.9584	6
58.4383	2
58.9722	13
59.9573	0
60.9434	5
61.2116	1
61.5821	2
61.9522	21
62.3167	1
62.4937	0
62.6143	0
62.9493	66
63.2272	1
63.4215	0
63.6904	0
63.9579	9
64.9578	87
65.2261	1
65.3822	2
65.9577	21
66.3473	1
66.5749	1
66.9733	139
67.2093	2
67.6606	0
67.9787	6
68.1902	1
68.6063	1
68.9776	999
69.3864	0
69.5734	1
69.9648	9
70.5461	0
70.9588	160
71.2915	0
71.8829	2
71.9626	2
72.8404	0
72.9795	1
73.6464	0
73.9209	12
74.9420	25
75.1047	2
75.3434	1
75.5394	1
75.7088	0
75.9613	20
76.1739	1
76.4809	2
76.9482	280
77.1737	1
77.2740	3
77.3346	1
77.4454	2
77.6788	3
77.9592	60
78.2590	3
78.4503	2
78.9614	244
79.2310	2
79.3959	0
79.9648	26
80.1635	1
80.4235	1
80.5594	1
80.9681	270
81.2682	1
81.9489	6
82.3391	0
82.4911	2
82.9784	81
83.8814	1
84.0358	2
84.3913	2
84.9651	34
85.6948	0
85.9485	8
86.3774	0
86.9391	9
87.3500	3
87.7295	1
87.9856	4
88.3092	1
88.4468	1
88.9403	38
89.2520	5
89.3935	2
89.5278	1
89.9412	14
90.1396	3
90.9541	503
91.2903	3
91.4470	2
91.9658	53
92.2463	1
92.4998	2
92.9694	288
93.4067	0
93.5459	1
93.9812	16
94.2373	1
94.4491	2
94.5757	2
94.9802	252
95.5040	0
95.8701	6
96.0393	5
96.1321	1
96.4744	2
96.9814	21
97.2863	0
97.9615	9
98.8551	3
98.9927	4
99.9842	3
100.5343	2
100.6464	1
100.9584	11
101.1879	2
101.3219	1
101.5663	2
101.6713	0
101.9691	36
102.1564	3
102.3178	1
102.4514	2
102.9687	101
103.2270	1
103.3633	2
103.9745	55
104.1910	3
104.3468	2
104.5151	2
104.9691	628
105.4994	2
105.9848	55
106.1653	2
106.2519	1
106.4612	2
106.5621	1
106.9794	254
107.2656	1
107.9903	31
108.4035	2
108.5619	0
108.9942	646
109.5380	0
109.9836	8
110.2180	2
110.3600	1
110.9852	16
111.3234	1
111.8103	2
112.0198	2
112.1314	2
112.3303	1
112.4740	4
112.9405	18
113.3036	4
113.5487	3
113.9657	11
114.1179	4
114.2211	3
114.9509	273
115.2603	5
115.4192	2
115.4999	1
115.9465	100
116.2267	6
116.3725	2
116.5417	4
116.9530	248
117.2431	1
117.3468	2
117.4973	1
117.9446	54
118.2497	3
118.3985	2
118.9534	574
119.3997	4
119.9554	44
120.2601	4
120.3852	3
120.4907	1
120.9525	247
121.2926	2
121.6386	1
121.9695	25
122.2407	1
122.3674	1
122.4680	1
122.6005	0
122.9636	103
123.2760	1
123.5004	1
123.9361	5
124.2157	1
124.3389	1
124.5566	1
124.9239	14
125.2179	1
125.4723	4
125.6360	2
125.9424	20
126.2714	2
126.4775	2
126.9392	157
127.4358	5
127.9289	326
128.3928	4
128.9308	344
129.2943	3
129.4293	2
129.9306	126
130.2586	1
130.4503	1
130.9408	341
131.3181	2
131.4914	3
131.9353	58
132.1880	3
132.3415	3
132.5266	2
132.9420	249
133.3196	3
133.4197	3
133.9357	18
134.1883	1
134.3816	1
134.5180	1
134.9357	64
135.2886	2
135.4079	2
135.6561	4
135.9161	16
136.3837	1
136.9671	29
137.3223	2
137.4073	1
137.6678	2
137.9524	8
138.1006	3
138.2475	1
138.5037	2
138.9297	41
139.3064	1
139.4958	2
139.9516	15
140.0603	8
140.2551	3
140.9192	240
141.2752	3
141.3874	3
141.4885	2
141.9322	199
142.2964	3
142.4668	5
142.9403	399
143.3049	4
143.9442	128
144.2909	3
144.4413	3
144.9505	441
145.4396	6
145.5830	4
145.9551	45
146.3411	2
146.4519	1
146.9640	147
147.3255	3
147.4390	2
147.5315	1
147.9155	9
148.2943	1
148.4158	0
148.9887	26
149.3357	3
149.5007	1
149.6191	1
149.9814	12
150.3360	2
150.4992	2
150.9652	35
151.2233	3
151.5210	3
151.9459	102
152.2003	5
152.9505	145
153.2757	3
153.4994	4
153.9739	58
154.3853	5
154.9691	241
155.3987	6
155.9824	148
156.2463	3
156.4156	2
156.5215	2
156.9800	294
157.4421	3
157.9725	69
158.3184	3
158.4363	1
158.5450	3
158.9778	412
159.4333	2
160.0018	30
160.1909	6
160.2898	2
160.4604	4
160.5686	3
161.0187	88
161.5022	3
161.6251	2
161.6989	1
162.0597	14
162.2252	2
162.3242	1
162.5855	0
163.0363	30
163.4428	2
163.6071	6
164.0051	16
165.0059	203
165.9928	85
166.4335	4
167.0185	152
167.3307	4
167.5997	2
168.0249	68
168.3642	5
169.0170	220
169.3892	1
169.5797	1
170.0319	75
170.3637	3
171.0289	192
171.6037	5
172.0339	43
172.3762	4
172.5250	2
173.0289	103
173.3935	2
173.5230	2
174.0427	14
174.4489	1
175.0518	69
175.3560	4
175.4991	3
176.0255	17
176.2202	3
176.3513	2
177.0313	47
177.3982	3
178.0103	106
178.4699	4
179.0034	158
179.3848	3
179.5049	2
179.9911	70
180.4090	0
181.0089	180
181.3358	5
181.4311	1
182.0274	74
182.3625	2
182.5190	2
183.0116	175
183.3718	5
183.5613	3
184.0132	44
184.3756	2
184.5323	2
185.0275	106
185.4292	4
185.5658	1
186.0337	27
187.0250	74
187.5216	3
187.7325	2
188.0621	18
188.5145	2
189.0297	63
189.4027	1
189.6759	7
190.0261	32
190.4608	3
191.0009	96
191.4087	3
191.5614	2
192.0065	81
192.4451	3
192.9993	123
193.3853	3
194.0075	71
194.4160	6
195.0108	190
195.3932	2
195.5360	1
196.0214	46
196.3681	4
197.0299	149
197.4371	2
198.0132	34
198.3596	0
199.0153	70
199.5362	5
200.0064	15
200.4387	2
200.7414	10
201.0544	56
201.3497	2
201.9908	51
202.3855	3
203.0215	77
203.4422	1
203.6135	4
204.0228	26
204.2567	3
204.4348	2
204.5362	1
205.0205	71
205.4736	2
206.0023	48
207.0112	110
207.4116	6
207.6330	5
208.0274	43
208.4641	3
209.0284	149
209.4633	2
209.6106	2
210.0551	39
210.3402	1
210.5394	1
211.0510	79
211.4214	4
211.7074	2
212.0684	16
212.2630	3
212.5087	2
212.6418	1
213.0583	27
213.5262	4
213.7085	7
214.0139	7
214.2783	5
215.0313	56
215.3875	1
215.5775	3
216.0342	18
216.4432	1
217.0403	57
217.3516	1
218.0160	27
218.4622	1
219.0530	60
219.3242	5
219.4351	4
220.0734	29
220.3707	9
221.0463	154
221.5219	2
222.0799	27
223.0666	78
223.5543	3
223.6579	2
224.0887	17
224.3515	2
224.5347	3
225.0996	41
225.4160	2
225.5225	2
226.0450	20
226.4412	3
226.8011	5
227.1219	32
227.3637	4
227.6653	11
227.8996	6
228.1381	16
228.4673	2
228.5684	2
229.0647	34
229.7799	2
230.1297	22
230.4054	1
230.5221	2
231.0558	36
231.6535	2
232.0990	27
232.4010	1
232.5967	1
232.6866	2
233.0746	54
233.6583	1
234.0924	25
235.1161	60
235.2818	18
235.4385	2
235.5849	2
235.7327	3
236.1286	15
236.3135	5
237.0747	54
237.4296	2
237.5912	1
237.6717	0
238.1222	8
238.4532	2
238.6933	5
239.1048	42
239.6802	4
240.0960	13
240.4712	1
241.1068	45
241.4883	3
241.6543	4
242.0739	15
242.4996	1
243.1074	28
244.1151	12
244.4164	2
244.5654	3
245.0818	37
245.4060	1
245.5770	2
246.0951	16
246.3103	5
246.5145	1
247.0914	44
247.6635	3
248.1163	15
248.3517	1
248.5955	4
249.1016	41
249.5076	1
249.6962	3
250.1148	13
250.4408	2
250.5997	1
251.1069	31
251.4289	4
251.5215	1
251.6874	2
251.8249	2
252.0986	15
252.3564	4
252.5051	1
253.1204	36
253.4945	1
253.6570	0
254.1293	16
254.4792	1
255.1421	26
255.3619	5
255.5106	5
255.6095	1
255.7339	2
256.1315	12
256.4932	1
257.1151	22
257.3613	2
257.7515	1
258.1404	12
258.5501	1
259.0948	28
259.5793	0
259.7281	0
259.9185	4
260.1553	15
260.3201	7
260.4538	3
260.7668	4
261.1400	39
261.6547	3
262.1042	20
262.3606	2
262.6156	7
263.1429	36
263.2607	17
263.4887	5
263.6648	2
263.8269	1
264.1077	12
264.2498	5
264.4633	0
265.1205	33
265.4985	1
265.6067	1
266.1115	10
266.3272	5
266.4778	1
267.1215	29
267.7300	2
268.1318	10
268.4032	3
268.6447	0
269.1729	20
269.4985	3
270.1199	9
270.5275	1
271.1428	20
271.5547	0
271.8346	3
272.1653	8
272.5059	1
273.1331	24
273.4190	3
273.5362	1
273.6251	1
273.8339	4
274.1317	13
274.3676	2
274.5023	2
274.6147	1
275.1089	19
275.5130	3
275.7712	3
275.9872	8
276.1837	7
276.4420	3
276.6635	4
277.1150	18
277.3456	10
277.5741	4
277.7721	1
277.9082	2
278.2160	7
278.3758	4
278.5002	0
279.1651	22
279.3562	7
279.7232	2
280.0867	10
280.2751	8
280.4315	1
280.6059	1
280.6866	1
280.8166	2
281.1517	16
281.5584	1
281.6572	1
281.7656	1
281.8978	2
282.1259	4
282.3171	1
282.6183	2
282.7574	1
283.1121	8
283.4307	2
283.6561	1
283.8940	4
284.1765	3
284.7561	4
285.1535	15
285.2975	7
285.3894	1
285.5098	1
285.8049	2
285.9852	2
286.2115	7
286.5108	2
286.7572	3
287.1583	17
287.4034	1
287.5872	1
287.9598	5
288.1583	4
288.3650	2
288.5389	1
288.7581	2
289.1733	16
289.6597	0
289.8705	2
290.0570	5
290.2198	3
290.3318	1
290.8740	4
291.1440	12
291.3820	4
291.6500	2
292.0614	4
292.2487	5
292.4715	1
292.7772	4
293.0146	7
293.2096	9
293.8043	0
294.1623	9
294.6714	1
294.7647	1
295.1597	7
295.6370	1
295.8083	2
295.9017	0
296.1456	2
296.6173	2
297.1240	7
297.4676	1
297.7499	1
297.8740	0
298.1375	9
299.1477	14
299.8945	2
300.1149	5
300.3206	2
300.5787	2
301.1130	11
301.6097	2
301.9069	2
302.1894	6
302.4490	3
302.6416	3
302.7574	2
303.1454	16
303.7253	1
303.9550	3
304.2167	2
304.3249	2
304.6258	2
304.7061	1
305.0223	7
305.2646	7
305.3846	4
305.5753	0
306.2309	6
306.4139	2
306.5500	1
307.1884	9
307.3476	3
307.9134	3
308.0762	2
308.2194	2
308.3444	1
309.0368	4
309.2520	4
309.3331	2
309.9885	6
310.1087	3
310.2101	2
310.7133	2
311.0921	7
311.3689	2
311.6227	1
311.7877	2
312.0897	2
312.3260	1
312.6273	1
312.8420	2
313.1727	9
313.3748	4
313.4706	2
313.8175	2
313.9616	1
314.1455	6
314.2176	2
314.5841	2
314.8030	3
315.1605	12
315.4767	0
315.5781	0
315.9265	5
316.2365	3
316.5954	2
316.8138	3
317.1951	10
317.5626	1
317.9734	4
318.1974	6
318.3563	6
318.4893	1
318.6937	1
318.8757	1
319.2180	12
319.5114	2
319.9335	1
320.2066	7
320.3796	2
320.6380	3
320.8228	1
321.0322	7
321.2885	13
321.7781	1
322.0219	5
322.2376	5
322.8197	1
323.1995	7
323.4433	2
324.1846	4
324.3401	2
324.8188	1
325.2126	5
326.0839	4
326.2002	3
326.3082	1
326.5129	2
326.6938	1
326.8326	1
327.0829	4
327.2890	5
327.3871	2
327.6094	3
327.8015	2
327.9326	0
328.1963	3
328.3933	2
328.5266	2
328.6255	1
328.8723	1
329.0161	4
329.2580	9
329.5295	1
329.7118	1
329.8577	1
329.9931	1
330.1453	4
330.3929	3
330.9984	4
331.2734	8
331.5932	0
331.8560	2
332.1293	8
332.3921	6
332.7733	0
333.1434	13
333.2814	11
333.5660	2
333.8226	3
334.1247	5
334.3525	2
334.4745	2
334.6196	1
334.9120	1
335.1237	5
335.3642	4
336.0429	3
336.2365	1
336.6313	3
336.9833	2
337.1032	3
337.2716	6
337.9842	1
338.2964	3
338.8997	1
339.1648	5
339.3058	1
339.7858	1
340.0699	3
340.2461	3
340.3976	2
340.7176	2
341.0580	2
341.1759	1
341.3885	4
341.9086	1
342.1108	4
342.3298	1
342.4821	1
343.2101	6
343.3996	4
343.9964	1
344.1649	5
344.3987	1
344.6628	2
344.7603	1
344.8875	1
345.2386	11
345.7695	1
345.9352	2
346.1235	6
346.2942	8
346.4599	1
346.6980	1
347.1792	9
347.2663	4
347.5115	1
347.8613	1
348.0587	1
348.2484	3
348.5028	3
348.8000	1
348.9721	4
349.2083	9
349.3776	3
349.5891	2
350.1057	0
350.3748	2
350.9230	0
351.1697	3
351.3518	4
351.4481	1
351.8600	1
351.9901	0
352.2066	2
352.3022	1
352.4681	2
353.2563	9
353.5860	0
353.7801	3
354.1345	3
354.3589	2
354.6563	0
354.7885	2
354.9341	1
355.1556	3
355.3765	4
355.9329	2
356.0750	3
356.2346	1
356.3802	3
357.2772	13
357.3524	7
357.5241	1
357.9983	2
358.1475	3
358.3494	4
358.5821	2
358.8612	0
359.3249	7
359.8426	2
360.2383	11
360.4355	5
360.6600	2
361.1125	2
361.3300	2
361.5385	1
362.1518	1
362.3265	2
362.8248	1
362.9413	3
363.1161	5
363.3028	4
363.4312	2
363.8931	2
364.5642	3
364.8577	3
365.2157	9
365.3828	8
365.9641	2
366.1713	2
366.3216	3
366.5161	0
366.7036	2
366.9718	2
367.2492	7
367.4606	2
367.6389	4
367.7232	1
367.8897	1
368.0323	1
368.2872	3
368.5035	3
368.9749	1
369.2306	3
369.4863	2
369.9541	1
370.1368	2
370.2534	3
370.4312	2
370.5239	0
370.9244	2
371.2103	2
371.3846	2
371.4851	2
372.0550	2
372.2173	6
372.3543	2
372.6804	2
372.7984	1
373.0893	1
373.3036	1
373.6585	1
373.8412	1
374.3043	3
375.0036	1
375.1245	2
375.3754	4
375.4675	2
376.1317	2
376.2794	2
376.5781	1
376.7588	1
377.1616	5
377.3360	2
377.7515	3
378.1284	10
378.3210	5
378.4841	0
378.9574	0
379.2316	7
379.4539	1
379.5558	1
380.0551	1
380.1958	2
380.3976	3
381.1228	4
381.2198	3
381.3697	5
381.4492	2
382.1660	1
382.3060	3
382.5269	1
382.6239	0
382.7682	2
382.9433	5
383.0686	8
383.3148	13
383.5034	4
383.6842	1
383.7911	0
383.9530	2
384.1050	3
384.2267	1
384.3864	4
384.7960	1
384.9839	2
385.2210	9
385.4561	6
385.6630	3
385.9487	2
386.1324	3
386.2204	2
386.3802	3
387.0404	2
387.2494	3
387.3585	4
387.4859	4
388.1695	3
388.7573	1
389.2692	6
390.2007	2
391.0957	4
391.2373	8
391.4309	6
391.7817	2
391.9605	4
392.1606	5
392.3867	3
392.4782	1
393.1572	4
393.3397	3
393.5292	2
393.9342	0
394.1956	2
394.4619	2
395.2065	4
395.4482	2
395.6927	1
395.9330	3
396.2071	1
396.3304	3
396.4023	2
396.6595	1
396.9667	2
397.3445	10
397.5601	9
397.8173	2
398.2050	11
398.4559	8
398.7103	0
398.8266	1
399.2629	6
399.4363	3
399.7951	1
399.9297	4
400.2385	4
400.6347	1
400.8363	1
401.1494	2
401.2756	1
401.3849	2
402.3741	4
403.1053	2
403.4671	2
403.8557	1
404.0665	2
404.2569	1
404.8228	2
404.9897	0
405.4236	2
405.9949	0
406.2232	0
406.5106	2
406.6135	0
406.9665	1
407.2596	1
407.4850	2
407.8444	1
408.0417	1
408.1960	1
408.3728	3
408.6596	0
408.7738	1
409.1268	1
409.3890	5
409.6089	0
409.9232	2
410.3066	7
410.5222	1
410.7915	3
411.0692	6
411.3152	8
412.3147	24
412.6926	2
413.3073	42
413.7134	3
414.2641	9
414.4734	3
414.6927	4
415.1631	16
415.3556	5
415.4874	2
415.6122	2
416.2046	1
416.3456	2
416.8753	0
417.0417	2
417.2427	6
417.4621	2
417.9290	2
418.2055	6
418.4129	6
418.6097	2
418.8276	2
418.9666	2
419.2198	4
419.3920	3
419.5860	1
419.7101	0
420.1031	2
420.3091	3
420.4206	1
421.1606	0
421.4930	1
421.7141	1
422.0268	2
422.3607	3
422.4783	3
422.8636	1
423.0819	2
423.3327	4
423.4905	3
423.7039	0
423.9920	1
424.2357	8
424.4274	5
424.6429	2
424.8465	1
424.9628	6
425.1086	7
425.2361	5
425.3820	5
425.5602	4
425.6532	1
425.9977	3
426.2422	4
426.4487	7
426.7368	1
427.3724	8
427.6670	2
427.8488	1
427.9792	3
428.1835	2
428.5352	0
429.0948	4
429.2512	4
429.3753	3
429.5486	4
429.8038	1
429.9307	1
430.2232	5
430.6566	2
430.9478	2
431.3284	14
431.8148	1
431.9713	1
432.2540	4
432.3915	2
432.4902	1
432.6615	3
432.9351	1
433.1395	3
433.2495	2
433.4025	2
433.7325	0
434.3212	2
434.5920	2
434.7112	1
434.7958	1
435.2062	2
435.4354	0
436.2837	3
436.7125	1
437.2020	2
437.3275	1
437.6181	3
437.8861	2
438.4342	0
438.5809	2
438.7086	2
438.8130	1
438.9548	2
439.1227	3
439.3117	3
439.6270	1
439.9353	0
440.0990	2
440.3734	13
440.4948	6
440.7128	2
441.2765	81
441.8268	3
442.0590	2
442.2248	4
442.4824	4
442.7180	2
442.9636	3
443.1125	2
443.3256	2
443.5620	0
443.7829	1
444.2226	9
444.5006	4
445.0038	2
445.4661	5
445.9701	1
446.2023	3
446.3428	3
446.4620	1
446.6279	2
446.7712	2
446.9166	3
447.0755	1
447.2985	4
447.4094	3
447.6762	6
447.7637	2
448.0193	4
448.3038	2
448.5481	2
449.0522	1
449.3049	1
449.4475	1
449.5711	0
449.6960	0
450.1437	1
450.3047	1
450.5829	2
450.6909	2
451.2212	1
452.0164	1
452.1866	3
452.3434	4
452.6590	1
452.8949	2
453.0835	1
453.3321	3
453.5482	2
453.7431	2
453.8689	1
454.0673	2
454.2029	4
454.3654	5
454.5504	3
454.7503	4
455.4002	39
455.5959	17
455.9912	4
456.1393	2
456.4515	4
456.7427	3
456.9767	3
457.3031	7
457.4709	1
457.6387	3
457.8029	4
458.0201	2
458.3486	5
458.4706	2
458.5919	2
458.7265	2
458.9987	2
459.2186	6
459.3547	5
459.5662	4
459.8250	1
459.9836	2
460.2474	2
460.4723	2
460.7790	1
461.1380	3
461.3820	6
461.5851	3
461.7233	2
462.0166	2
462.2663	6
462.4532	6
462.6746	3
462.9052	3
463.3926	2
463.7093	2
463.8017	1
463.9999	2
464.1332	2
464.2425	1
465.2202	2
465.4459	2
465.5848	1
466.2402	2
466.4130	1
466.5457	2
466.6550	3
466.8652	2
467.0487	1
467.3323	3
467.4938	3
467.6173	1
467.8826	2
468.0555	2
468.3475	5
468.6157	2
468.9903	3
469.3396	8
469.5336	2
469.7256	1
470.1857	3
470.3868	0
470.5335	3
470.8066	4
470.9344	0
471.1136	1
471.3127	2
471.6260	4
471.7714	2
471.8899	1
472.2061	3
472.3720	1
472.8329	1
473.0672	0
473.4469	5
473.6234	1
473.8358	3
473.9784	1
474.2339	3
474.4005	3
474.7683	2
475.2554	4
475.5370	6
476.3581	132
476.7668	7
476.9666	3
477.2173	5
477.4573	3
477.5978	1
478.0095	1
478.1655	1
478.5609	1
478.8278	2
478.9612	0
479.2112	1
480.0798	3
480.2161	1
480.3262	2
480.6433	1
480.8538	1
481.1031	1
481.4110	1
481.6546	3
481.8142	1
482.3616	13
482.5021	12
482.6618	5
482.8094	2
483.0170	3
483.3680	17
483.4950	5
483.7094	2
483.9138	2
484.1282	3
484.3496	7
484.6649	1
484.8299	1
485.4301	4
485.8321	1
486.2595	3
486.7638	1
487.2688	3
487.4056	2
487.9092	4
488.3459	14
488.6964	2
488.9427	1
489.1522	9
489.4287	11
489.5881	5
489.7934	3
490.2865	1
490.3486	0
490.5060	2
491.2467	1
492.6388	1
492.8547	0
493.9372	2
494.1192	2
494.4093	2
494.7029	1
495.3831	5
495.5356	2
495.9964	1
496.2830	4
496.4792	1
496.7629	2
497.4031	12
497.5936	6
497.7052	6
498.0143	1
498.2719	4
498.4872	2
498.6093	0
498.7844	3
499.1508	4
499.3244	4
499.4444	1
500.2668	1
500.3657	2
500.5775	1
501.7155	1
501.8207	2
502.5854	2
504.3767	1
505.0440	2
505.9105	1
506.1203	2
507.1740	3
507.5525	2
507.6761	1
508.1260	1
508.3266	3
508.5230	4
508.6339	1
509.2660	2
509.5196	4
510.2722	8
510.5649	6
510.6954	4
511.3499	8
511.5255	3
511.6426	2
511.8147	2
511.9678	2
512.1885	5
512.4911	3
512.6005	2
513.1126	1
513.4702	1
513.7700	0
514.0635	1
514.2560	2
514.5742	0
515.8610	0
516.1919	0
516.3394	2
516.9313	1
517.6368	2
519.2745	1
519.7692	1
520.2222	3
520.4058	2
520.7050	0
521.0479	4
521.3690	3
521.5673	0
521.9492	2
522.1122	2
522.4037	3
522.5822	6
522.8469	2
523.4165	4
523.5506	2
523.8019	2
524.2966	12
524.4957	6
524.7505	4
525.4020	53
525.7479	7
525.8835	2
526.1002	1
526.3049	5
526.4150	3
526.5336	3
526.8104	2
527.1104	1
527.4083	2
527.7712	1
528.2167	1
528.5873	2
528.8556	0
529.1063	2
529.2834	2
529.6230	1
529.9429	2
530.1957	1
530.3411	1
531.5875	3
532.2703	2
532.6686	2
532.8437	2
533.0923	2
533.7950	1
533.9786	0
534.1445	3
534.7060	2
534.8246	2
534.9652	2
535.2018	0
535.3516	5
535.5126	4
535.6178	3
535.7146	2
536.1271	2
536.2966	4
536.4604	5
536.5530	2
536.8539	2
537.1216	2
537.4783	11
537.7354	1
538.0702	2
538.3090	7
538.4764	6
538.7116	4
539.0147	3
539.4294	11
539.7303	7
539.9465	2
540.0722	0
540.3909	5
540.5950	3
540.6769	1
540.8211	1
541.1362	2
541.4414	2
541.6307	1
541.7897	3
542.0907	2
542.1946	1
542.5195	2
542.7047	3
542.9039	4
543.0262	1
543.2064	2
543.3378	1
543.5250	3
543.7200	1
544.1963	2
544.4132	2
544.7255	4
544.9778	3
545.2096	3
545.4739	2
545.6025	2
545.7396	3
546.0427	4
546.2562	7
546.5353	3
546.7954	2
546.9636	7
547.3827	6
547.5480	5
547.8201	8
548.0598	2
548.2562	4
548.5735	6
548.8450	10
549.1135	5
549.3340	7
549.5786	8
549.8507	8
550.5724	59
550.7830	29
550.9202	13
551.5429	16
552.5128	24
553.5421	231
554.3626	13
554.7264	8
554.8990	10
555.2057	5
555.4863	6
555.8641	5
555.9713	2
556.4747	5
556.9414	8
557.0789	3
557.2537	2
557.4504	4
557.6915	6
557.9235	6
558.1005	2
558.3634	7
558.5390	3
558.6920	4
558.9148	3
559.0558	5
559.2729	9
559.4013	5
559.6234	6
559.9894	7
560.4540	10
560.8002	10
560.9532	8
561.2699	9
561.6521	11
561.8911	9
562.3714	14
562.8128	18
568.3558	999
569.0386	570
569.8167	266
570.6689	133
571.7222	55
572.3452	51
573.1974	27
573.6864	18
574.1478	15
574.6573	14
