Mass spectrum: Fritschiellaxanthin; FAB-EBEB; MS2; m/z: 582.41; [M]*+
Name: Fritschiellaxanthin
Class: Natural Product; Carotenoid
Formula: C40H54O3
Exact mass: 582.40730
SMILES: CC(=C1C=CC(=CC=CC(C)=CC=CC=C(C)C=CC=C(C)C=CC(C2(C)C)C(C)=CC(O)C2)C)C(=O)C(O)CC1(C)C
InChI: InChI=1S/C40H54O3/c1-28(17-13-19-30(3)21-23-35-32(5)25-34(41)26-39(35,7)8)15-11-12-16-29(2)18-14-20-31(4)22-24-36-33(6)38(43)37(42)27-40(36,9)10/h11-25,34-35,37,41-42H,26-27H2,1-10H3/b12-11+,17-13+,18-14+,23-21+,24-22+,28-15+,29-16+,30-19+,31-20+/t34-,35-,37-/m0/s1
Instrument: JMS-HX/HX 110A, JEOL
Instrument type: FAB-EBEB
Ms type: MS2
Ion mode: POSITIVE
Collision energy: 3 kV
Ionization: FAB
Base peak: 582.3452
Precursor m/z: 582.41
Precursor type: [M]+*
m/z	relative intensity
6.4525	0
11.1736	0
11.9581	1
12.9497	0
13.9662	2
14.9678	7
22.9162	1
24.9309	0
25.9402	8
26.9463	55
27.4454	1
27.9397	2
28.3280	0
28.9524	47
29.9406	2
30.9393	7
33.5019	0
34.2524	0
35.9441	0
36.0667	0
36.1955	0
36.9170	9
37.2168	0
37.9201	19
38.2423	0
38.9258	136
39.3023	0
39.5549	1
39.6678	0
39.9407	19
40.2826	0
40.5177	1
40.9428	221
41.2914	0
41.4261	0
41.9450	6
42.4206	0
42.9324	184
43.9256	3
44.9365	7
45.9280	0
46.5382	0
46.8970	1
47.3539	0
48.1538	0
48.9193	4
49.2070	1
49.5145	0
49.9094	45
50.4473	0
50.6531	0
50.9202	106
51.9273	36
52.5108	0
52.9328	157
53.2070	0
53.9379	12
54.9415	279
55.2785	0
55.9530	7
56.3870	0
56.7395	1
56.9480	67
57.9113	2
58.9415	37
59.9095	1
60.3319	0
60.9183	8
61.0462	1
61.3864	0
61.7589	1
61.9181	31
62.9135	74
63.1861	1
63.3697	1
63.5932	0
63.9231	16
64.3286	1
64.4968	1
64.6820	1
64.9280	120
65.2811	0
65.7080	0
65.9335	21
66.9374	149
67.2303	0
67.5787	0
67.9275	6
68.5023	1
68.9350	152
69.4370	1
69.5474	0
69.9371	5
70.9192	76
71.9508	1
72.1816	1
72.8953	6
73.0932	0
73.6779	1
73.9025	25
74.5650	0
74.9067	33
75.0873	1
75.2557	1
75.3461	1
75.4943	1
75.6203	1
75.8983	17
76.1859	2
76.5598	2
76.9124	304
77.2478	2
77.3921	1
77.5242	1
77.6205	2
77.6793	1
77.9208	66
78.3031	0
78.4650	1
78.9223	261
79.2367	0
79.4847	1
79.9285	39
80.1249	1
80.2432	1
80.9317	272
81.1975	1
81.4528	1
81.5413	0
81.6393	0
81.9110	23
82.9204	63
83.9434	4
84.2604	0
84.5748	0
84.9254	52
85.2594	1
85.7452	1
85.9075	7
86.6637	1
86.9029	12
87.0668	0
87.6109	0
87.9159	6
88.3378	1
88.9012	41
89.2871	1
89.4344	4
89.9052	13
90.1791	3
90.4391	2
90.9196	509
91.3530	2
91.6619	1
91.9266	63
92.2158	1
92.3623	0
92.5283	1
92.9341	289
93.1952	1
93.2985	2
93.6088	1
93.9346	21
94.3257	2
94.4838	1
94.5593	1
94.9323	236
95.2025	1
95.3204	1
95.6947	1
95.9339	13
96.3961	1
96.6794	0
96.9314	42
97.4575	0
97.9292	5
98.6351	1
98.9099	7
99.7350	1
99.9408	2
100.4627	1
100.9062	9
101.0659	1
101.2928	2
101.3967	2
101.5989	0
101.9263	32
102.4769	1
102.9271	106
103.3415	1
103.5201	1
103.9368	46
104.2243	1
104.4107	1
104.5458	3
104.9377	491
105.2683	0
105.3868	2
105.6644	2
105.9485	48
106.2127	1
106.3589	1
106.9455	203
107.3594	1
107.5075	1
107.9538	26
108.1352	1
108.2684	1
108.4029	1
108.5386	0
108.6417	0
108.9524	132
109.2122	1
109.4482	0
109.6019	0
109.9237	11
110.1386	0
110.9301	35
111.1460	1
111.2994	1
111.5003	1
111.7005	0
111.9230	1
112.2334	1
112.6042	2
112.9276	11
113.1499	1
113.3919	5
113.5877	1
113.9320	10
114.0341	5
114.2688	2
114.4649	3
114.9137	262
115.3776	2
115.5899	2
115.9149	92
116.1700	2
116.3851	3
116.9175	233
117.2425	1
117.3496	1
117.4611	1
117.5211	0
117.9306	53
118.2075	1
118.3084	0
118.4131	1
118.9292	417
119.3338	2
119.6094	2
119.9216	41
120.1898	2
120.4510	3
120.9315	184
121.2064	1
121.3340	1
121.5071	1
121.6515	1
121.9171	19
122.2560	0
122.3748	0
122.9188	207
123.4607	0
123.5829	0
123.9232	17
124.1060	1
124.2045	0
124.4189	2
124.9007	18
125.1636	0
125.2913	1
125.4582	2
125.8968	16
126.1169	1
126.9007	81
127.8936	265
128.2229	2
128.5116	6
128.9034	293
129.2292	2
129.3731	1
129.9124	118
130.3892	3
130.9117	275
131.4359	2
131.9187	71
132.2237	3
132.3134	1
132.9159	233
133.1808	2
133.3241	0
133.4100	1
133.9032	28
134.1827	1
134.3170	2
134.5518	0
134.9138	132
135.2387	1
135.4077	1
135.5755	1
135.6676	1
135.9197	12
136.2073	1
136.3576	1
136.9129	53
137.2027	1
137.8954	28
138.1928	1
138.4149	1
138.5368	1
138.8987	46
139.1754	1
139.8978	11
140.1446	4
140.4408	3
140.8914	201
141.1366	1
141.2194	1
141.3923	4
141.9045	175
142.1473	5
142.3302	2
142.4309	1
142.9075	312
143.1788	2
143.3633	3
143.4707	2
143.9083	111
144.3823	2
144.5215	1
144.9153	322
145.2070	2
145.4671	2
145.9234	44
146.2497	2
146.3640	2
146.4704	2
146.9258	138
147.2234	1
147.3854	1
147.4628	1
147.8975	14
148.2252	0
148.9245	25
149.3710	2
149.4393	1
149.8987	11
150.3132	2
150.9110	41
151.1599	2
151.2641	3
151.4308	5
151.8924	85
152.2053	2
152.4339	4
152.9099	119
153.2324	1
153.4765	2
153.9203	57
154.3656	1
154.9224	204
155.5254	2
155.9286	133
156.1727	1
156.3227	3
156.4495	2
156.5975	3
156.9418	243
157.3489	3
157.9439	58
158.1710	3
158.5464	2
158.9514	139
159.4770	4
159.5793	1
159.9438	27
160.3225	1
160.9605	96
161.2270	1
161.4440	2
161.5679	3
161.9378	13
162.3533	1
162.9346	30
163.4766	2
163.9316	12
164.1611	4
164.3404	4
164.9280	179
165.3284	2
165.4709	1
165.9407	69
166.2257	2
166.5095	2
166.9460	135
167.2831	1
167.5362	1
167.9448	57
168.3327	1
168.5374	1
168.9628	160
169.2490	2
169.5004	2
169.9682	67
170.3293	1
170.5365	2
170.9717	114
171.4575	3
171.5565	1
171.9712	31
172.3732	3
172.5517	2
172.9633	82
173.2079	1
173.4343	1
173.6561	2
173.9683	13
174.2508	0
174.4740	2
174.9645	36
175.2088	1
175.3404	2
175.4835	0
175.9229	22
176.3558	1
176.5388	2
176.9408	26
177.2854	3
177.9242	86
178.9367	134
179.2283	2
179.3508	0
179.9451	54
180.2119	2
180.4862	1
180.9515	135
181.3079	2
181.5776	3
181.9640	65
182.2094	2
182.9622	124
183.1881	3
183.3075	2
183.4290	1
183.9502	25
184.1627	2
184.5571	2
184.9802	77
185.2615	2
185.3756	1
185.6066	2
185.9647	16
186.3814	2
186.5357	2
186.9491	38
187.3287	3
187.5382	2
187.9879	13
188.1744	4
188.4099	2
188.9259	53
189.4924	3
189.9298	20
190.4292	3
190.9302	70
191.2404	1
191.5083	2
191.9482	53
192.2279	2
192.9361	104
193.3484	2
193.5505	1
193.9451	60
194.1780	2
194.3904	2
194.9437	123
195.4105	2
195.9388	47
196.3894	2
196.9584	103
197.3476	2
197.4872	0
197.9491	22
198.4590	2
198.9753	39
199.2965	2
199.5019	1
199.6033	1
199.9150	13
200.2274	1
200.3316	1
200.4310	1
200.9574	31
201.2014	2
201.9049	37
202.3892	3
202.5703	3
202.9429	48
203.2997	2
203.5084	1
203.6745	4
203.9587	19
204.2443	2
204.4263	1
204.9400	58
205.3193	2
205.4855	1
205.9631	40
206.3082	2
206.4209	3
206.5831	1
206.9571	87
207.2851	3
207.5155	2
207.9640	39
208.3466	1
208.5392	1
208.9659	87
209.3603	2
209.4691	1
209.6226	2
209.9814	24
210.2217	2
210.3932	2
210.9643	60
211.2481	1
211.3728	2
211.5589	2
211.9455	12
212.1758	1
212.3543	2
212.6714	3
212.9714	24
213.6377	1
213.9633	5
214.3290	3
214.5601	2
214.9618	50
215.4409	2
215.9629	21
216.3054	3
216.4684	1
216.9499	35
217.3382	2
217.4702	1
217.7120	3
217.9740	25
218.3251	2
218.4164	1
218.9681	50
219.2751	1
219.5511	0
219.9986	23
220.3715	1
221.0026	57
221.2352	2
221.3854	0
221.4809	0
221.9863	22
222.4489	4
223.0092	49
223.3556	2
223.6147	0
224.0228	12
224.3173	2
225.0015	33
225.3031	1
225.4459	0
225.9945	15
226.3073	2
226.4842	1
226.9747	24
227.3258	1
227.5694	1
227.9657	16
228.5051	2
229.0070	25
229.3425	1
229.4467	0
230.0079	12
230.2795	2
230.4579	1
230.6269	2
231.0011	38
231.2589	1
231.5056	1
232.0310	24
232.2903	1
232.4983	2
233.0239	43
233.5628	2
234.0116	11
235.0220	38
235.3593	1
235.5474	1
236.0354	11
236.2910	1
236.5479	1
237.0354	27
237.2910	2
237.5571	0
237.6752	0
238.0337	8
238.2901	2
238.4722	1
238.6924	4
239.0288	24
239.4772	1
239.6475	1
239.7831	1
240.0404	7
240.2643	2
240.4597	1
240.6092	1
240.9952	16
241.3590	1
241.6178	1
241.7806	3
242.0109	11
242.1891	2
242.3171	1
242.4841	1
242.9943	28
243.4906	0
243.6459	2
244.0288	13
244.3686	1
244.5114	1
245.0066	27
245.3298	1
245.4615	1
245.5472	0
246.0273	14
246.1645	5
246.2802	1
246.5485	1
247.0169	29
247.2845	1
247.5007	1
247.7203	2
248.0250	9
248.3925	2
248.5570	1
249.0285	27
249.4422	1
249.5859	1
249.7575	1
250.0303	8
250.3464	1
250.5990	2
251.0241	16
251.3019	2
251.3821	1
251.5671	2
252.0244	10
252.3135	1
252.6703	1
253.0237	16
253.3366	1
253.4666	1
253.6370	0
254.0429	7
254.2623	1
255.0338	15
255.2868	1
255.7006	2
256.0026	10
256.2011	1
256.3472	2
256.4409	1
256.5548	1
256.7044	3
257.0336	24
257.2168	3
257.3041	2
257.4936	1
257.6348	2
258.0299	9
259.0334	17
259.3063	1
259.4686	1
259.5525	1
260.0352	12
260.2535	1
260.6111	1
261.0303	24
261.3362	0
261.5714	1
261.7464	1
262.0229	8
262.1321	5
262.3352	1
262.5775	0
263.0522	16
263.4732	3
263.6672	1
264.0356	6
264.1884	4
264.3551	1
264.7012	1
265.0333	15
265.1616	6
265.4258	1
265.5708	1
265.7902	2
266.0264	9
266.4259	1
266.5409	2
266.7449	2
267.0169	12
267.1670	4
267.3241	1
267.5667	1
267.7637	3
268.0471	5
268.3767	1
268.4966	0
268.7379	1
269.0263	9
269.4276	1
269.6886	1
269.8921	2
270.1005	6
270.3517	1
270.5384	1
270.6781	2
271.0473	11
271.3800	1
271.4951	1
272.0406	4
272.3180	1
272.5602	1
272.6747	1
273.0441	15
273.2703	1
273.4957	1
274.1069	6
274.2221	3
274.3183	1
275.0793	15
275.3906	0
275.5224	1
275.6164	1
275.9838	7
276.1549	3
276.3001	1
276.5827	0
277.0407	13
277.2449	2
277.3234	1
277.4034	1
277.7037	1
277.8489	3
278.0699	5
278.5063	1
279.0608	9
279.2888	1
279.5963	2
279.7247	1
280.0673	3
280.3685	1
280.5777	1
281.0088	8
281.9161	5
282.0637	6
282.7570	2
283.0857	12
283.4335	1
283.8087	3
283.9598	3
284.1116	3
284.3069	1
284.5037	1
285.0238	14
285.2748	1
286.0122	3
286.1929	1
286.4102	1
286.6085	0
287.0388	9
288.0376	5
288.2057	2
288.3126	1
288.4864	1
288.7193	1
289.0429	10
289.2758	1
289.4264	1
289.5537	1
290.0224	5
290.4229	0
290.8360	1
291.0540	7
291.8095	2
292.0128	3
292.1788	2
292.6819	1
293.0485	7
293.3419	1
293.4595	0
293.7143	1
293.9212	3
294.1232	3
294.2984	0
294.5061	1
294.7349	1
295.0242	7
295.2530	1
295.5086	1
295.6135	0
296.0276	4
296.3430	0
296.4803	1
296.7064	2
297.0607	16
297.6869	2
297.8926	2
298.0391	5
298.1695	3
299.0403	12
299.1672	6
299.3236	1
299.5287	1
299.8733	1
300.0495	6
300.1912	1
300.3343	1
300.6487	1
301.0758	10
301.1760	4
301.4608	0
301.8810	1
302.0135	3
302.1412	3
302.3274	1
302.6151	0
303.0460	6
303.6025	0
303.9996	4
304.1343	3
304.3665	0
304.7023	0
304.8138	1
305.0367	5
305.2110	0
305.7148	1
306.0825	3
306.4601	0
306.6161	1
307.0650	6
307.4554	0
307.6297	1
308.0971	4
308.4883	1
309.0122	10
309.1930	4
309.8131	1
310.1006	4
310.2030	1
310.5378	1
310.9955	9
311.1100	4
311.2372	3
311.5070	1
312.0363	4
312.4928	1
313.0037	7
313.4024	1
313.6180	1
313.9742	5
314.5666	1
314.7985	1
315.0644	5
315.1548	2
315.4377	1
315.7135	1
315.9044	1
316.1788	2
316.5190	1
316.6929	1
317.0395	5
317.2135	2
317.6068	1
317.6924	0
317.8954	1
317.9726	1
318.1232	3
318.2414	1
318.4190	0
319.0643	6
319.2129	2
319.6941	2
319.8575	0
320.0607	1
320.2199	1
320.3211	0
320.4612	1
320.8265	0
321.0671	6
321.2243	2
321.9507	1
322.1524	2
322.2459	1
322.4378	1
322.7536	2
323.0708	6
323.5262	1
323.6912	2
323.9284	2
324.0715	4
324.2386	1
324.9420	5
325.0703	3
325.1744	3
325.4967	1
326.0416	3
326.2711	0
326.6616	1
327.0648	4
327.3915	0
327.6544	0
327.9379	1
328.1491	3
328.7928	1
329.1033	4
329.3784	1
329.6478	1
329.9895	2
330.1937	2
330.6192	2
331.0624	5
331.4255	1
331.7255	0
332.0816	3
332.2993	1
333.0484	4
333.1733	3
334.0963	3
334.2241	1
334.7769	2
335.1402	3
335.9915	2
336.2160	2
337.0852	7
337.2517	3
337.7242	1
337.8277	0
338.0211	3
338.1961	1
338.4023	1
339.0493	3
339.2364	2
339.7098	1
339.8515	1
340.1138	2
340.3774	1
340.4951	0
341.0573	1
341.2564	1
341.6478	0
342.1256	2
342.5383	1
342.7496	1
343.1226	2
343.2198	1
343.5034	0
343.7460	0
343.9651	1
344.2112	1
344.4212	1
344.7489	1
345.0439	1
345.2014	2
345.2858	1
345.7477	1
345.8924	2
346.0222	2
346.3011	2
346.7466	1
347.0177	4
347.1624	4
347.4009	0
347.5102	0
348.0928	2
348.2014	3
348.2908	1
349.0936	4
349.3108	1
349.8134	1
350.0625	2
350.2911	1
350.5105	1
351.0778	5
351.2226	3
351.3966	0
352.1472	6
352.4888	1
352.8972	1
353.1266	2
353.4426	1
353.7893	1
353.9967	2
354.1721	0
354.4669	1
355.0524	2
355.2207	1
355.5106	1
356.0556	1
356.2951	2
356.5019	2
356.5715	1
356.7712	1
356.9062	1
357.1514	3
357.2680	1
357.5437	1
357.9183	1
358.1187	2
358.2609	0
359.0769	3
359.2888	0
359.7943	1
360.0964	4
360.3894	1
360.7534	1
360.8494	1
361.1076	5
361.3166	1
361.4503	1
361.6445	1
362.0659	3
362.2159	3
362.3189	2
362.5385	1
362.7439	1
363.2022	5
363.8000	1
364.0843	6
364.3011	1
364.5904	0
364.8143	1
365.1633	4
365.7982	0
365.9482	1
366.1857	1
366.3058	1
366.7609	0
367.1485	3
367.3703	0
367.7138	1
367.9122	0
368.0402	1
368.2571	1
368.4435	1
368.7294	1
368.9826	1
369.2287	2
369.3361	1
369.9237	1
370.0952	2
370.2538	2
370.3306	1
370.7198	0
370.9133	1
371.1744	2
371.3594	1
372.2438	1
372.4289	1
372.9249	1
373.0309	2
373.1526	1
373.3099	2
373.7433	1
374.0060	2
374.1811	1
374.6437	1
374.8552	1
375.0232	3
375.2303	4
375.8333	1
376.0099	3
376.2331	2
376.9282	1
377.0895	2
377.2615	2
377.4200	1
377.4989	1
378.0895	2
378.2715	2
379.0819	2
379.2603	3
379.6948	0
380.0552	1
380.1697	2
380.2849	1
380.4491	0
380.5494	0
380.7563	1
380.9625	1
381.1360	2
381.2420	1
381.7305	1
381.8365	1
382.0576	4
382.2283	2
382.3585	2
383.0569	3
383.6388	1
383.9646	2
384.1012	1
384.3537	1
384.5415	1
384.8638	1
385.0281	2
385.1420	2
385.5660	1
385.8207	0
386.0804	1
386.3309	1
386.6874	1
387.0453	1
387.2275	2
387.3407	1
387.4460	1
387.7086	1
388.0794	1
388.4111	1
388.6175	1
388.7769	0
389.0275	2
389.1898	3
389.8717	2
390.1109	5
390.4120	2
390.6719	2
391.0706	3
391.2529	2
391.4971	0
392.0076	1
392.1764	1
392.3017	1
392.6421	1
392.7418	1
392.8799	1
393.0387	1
393.2745	3
393.6348	1
393.8207	0
394.2730	1
394.4439	1
394.7039	0
395.0672	1
395.2581	2
395.5238	1
396.0780	1
396.2690	1
396.5867	1
396.9394	2
397.2536	2
397.7894	1
398.2825	2
398.8975	0
399.1447	5
399.8845	1
400.1026	1
400.3143	2
401.0663	1
401.3457	2
401.4640	1
401.8925	1
402.1028	2
402.3509	1
402.7544	0
403.0952	2
403.3119	1
403.7583	1
404.0663	1
404.1861	1
404.8243	1
405.1238	1
405.2065	1
405.3520	0
405.6808	1
406.0859	0
406.4083	0
406.6679	1
407.1158	1
407.2885	1
408.1345	1
409.2446	1
409.4767	1
410.0791	2
410.2293	1
410.3853	1
410.5384	1
410.8026	1
410.8880	1
411.2049	4
411.9378	3
412.1158	1
412.2974	2
412.8074	1
413.1764	2
413.4349	0
413.6757	1
414.1822	3
414.3973	1
414.6687	1
414.8041	1
414.9266	2
415.1582	2
415.3142	0
415.5493	0
415.7196	1
415.9889	2
416.2668	3
417.2060	4
417.3357	1
417.8858	1
418.2756	1
418.9741	1
419.2178	3
419.4231	1
419.7781	1
419.8871	1
420.3184	1
420.8601	0
421.0184	1
421.2850	1
421.4675	0
421.6828	1
421.9879	1
422.1270	1
422.3487	0
422.5284	1
422.6888	2
423.2841	2
423.6870	1
424.1078	1
424.2853	2
424.7667	1
425.1168	1
425.2692	1
425.4509	1
426.1931	2
426.3149	1
426.5999	1
427.1762	5
427.3386	2
427.4334	1
427.9050	2
428.1173	3
428.2798	3
428.4066	1
428.4821	0
429.1541	12
429.3450	5
429.5260	1
429.8025	1
430.0099	2
430.1688	2
430.3541	2
430.4774	1
430.6876	1
431.1295	2
431.3247	1
431.9655	1
432.2413	2
433.0525	2
433.2243	0
433.8159	1
433.9564	1
434.0826	2
434.2087	1
434.4761	0
435.0557	1
435.2068	2
435.3345	0
435.9384	0
436.2229	1
436.3056	1
436.4981	0
436.6022	0
437.1606	3
437.3303	1
437.6191	1
437.7667	0
438.2873	1
438.7437	1
438.9763	0
439.1125	0
439.7415	1
439.8478	1
440.0233	0
440.2401	2
440.4263	1
441.0576	1
441.2766	3
441.5320	1
441.8423	3
442.1184	7
442.4059	4
442.6841	3
442.9132	3
443.1857	9
443.4576	4
443.7194	2
444.1918	80
444.7726	2
445.1544	9
445.6761	0
445.8773	1
446.0529	1
446.2527	1
446.4989	2
446.9607	1
447.0521	1
447.4410	1
448.3618	1
448.4425	1
449.0000	1
449.1620	2
449.4312	1
449.6960	1
449.8302	1
450.1015	0
450.2350	1
450.4977	1
450.9568	1
451.2646	1
451.3588	1
451.8243	1
452.1221	1
452.9818	2
453.2068	1
453.3467	1
453.7438	1
454.2187	1
454.4708	3
454.6536	1
454.9543	3
455.2207	2
455.4850	1
455.7607	2
456.1207	1
456.2328	1
456.4678	1
456.6857	1
456.8400	2
457.1707	2
457.3357	1
458.0951	3
458.2987	0
458.8210	1
459.0696	1
460.2049	3
460.4083	2
460.7750	0
460.9333	1
461.2387	1
461.4662	1
461.7480	1
462.0284	0
462.2424	1
462.8432	1
463.1264	1
463.2720	1
463.4083	2
464.0426	1
464.1881	1
464.4101	1
465.2292	1
466.0877	1
466.5152	1
466.7900	1
466.9235	1
467.1433	1
467.4224	2
467.8463	0
468.0904	3
468.2467	3
468.4537	3
468.6686	1
468.9563	0
469.3232	2
469.7137	1
470.2655	2
470.6131	1
470.7581	1
470.9601	1
471.1015	1
471.2921	2
471.9689	2
472.2160	2
472.5094	1
472.6693	1
472.8600	1
473.0135	1
473.2506	1
473.9818	1
474.0925	1
474.3874	1
474.8280	1
475.1001	0
476.2378	2
476.6292	1
477.0299	1
477.8256	1
478.7135	1
478.9307	0
479.0657	1
479.2257	1
480.2209	1
480.3859	1
480.9339	1
481.1946	2
481.4176	2
481.9199	1
482.1585	3
482.5301	1
483.1646	3
483.5283	1
483.6848	1
484.1379	1
484.2487	1
484.4402	0
484.7232	1
484.8447	0
484.9998	0
485.1863	0
485.5865	1
486.2097	1
486.6043	1
486.7651	1
487.1161	2
487.3991	1
487.6264	1
487.9846	2
488.1609	2
488.4592	0
489.1057	0
489.2933	1
489.4417	1
489.5631	0
490.2125	18
490.4294	7
490.6457	1
491.0624	1
491.2094	1
491.3936	0
491.5713	1
491.9724	0
492.1494	0
492.3029	0
492.9003	0
493.0145	1
493.1487	1
493.2593	2
494.1173	1
494.3307	1
494.7883	1
494.9404	1
495.0439	1
495.1517	0
495.4315	1
495.6728	1
496.3439	3
496.9865	1
497.1214	1
497.2271	1
497.8733	1
498.2552	11
498.4366	5
499.2871	1
499.9262	1
500.3261	1
500.5782	1
500.8588	1
501.2945	1
501.4402	1
502.2487	2
502.3908	1
502.9022	0
503.0000	1
503.1014	1
503.2971	4
503.4022	2
503.9286	0
504.1236	1
504.8715	1
504.9751	1
505.1729	1
505.3301	1
505.5108	0
505.6766	1
506.1895	1
506.5703	0
507.1283	3
507.2497	1
507.3698	1
507.5148	1
507.8384	1
508.0750	3
508.1793	3
508.3686	3
508.5136	1
508.9624	1
509.2332	2
509.5040	1
509.6305	1
509.9006	1
510.1443	1
510.3651	2
510.9010	0
511.2619	1
511.3655	1
511.4913	1
511.7000	0
511.8422	0
512.0737	2
512.1852	1
512.3446	1
512.5955	2
512.8763	1
513.0621	1
513.1901	1
513.2880	1
513.5381	1
514.0249	1
514.5367	0
515.1497	1
515.2588	1
515.4065	0
515.6669	1
516.1898	1
516.5045	0
516.6593	1
516.9482	1
517.0453	1
517.2529	1
517.5390	0
518.9369	1
519.0425	1
519.1859	2
519.3693	1
519.8924	1
520.0865	1
520.2485	0
521.3054	0
521.5737	1
521.9855	1
522.1397	1
522.2875	1
522.4830	1
522.6643	1
522.7800	1
522.9398	0
523.4709	0
523.6771	1
524.0762	1
524.2781	1
524.3781	1
524.5887	1
525.0270	2
525.3139	4
525.6980	1
525.8408	1
526.2177	13
526.5996	1
526.6896	1
527.2157	1
527.3585	1
527.4613	0
527.6013	1
527.7926	1
528.3038	1
528.4316	0
528.5472	1
529.0714	2
530.3452	0
530.6237	1
531.1821	1
532.2682	1
532.5175	0
532.7639	0
533.0388	0
533.2823	1
533.8294	1
534.1879	0
534.3386	1
535.0357	0
535.2543	1
535.3329	1
535.4728	1
535.5771	1
535.8157	1
536.0928	1
536.2500	3
536.4564	2
536.5986	1
536.8586	1
537.2700	11
537.7244	0
538.1866	3
538.3837	1
538.5695	1
538.7288	1
539.0710	1
539.3789	2
539.7554	1
540.2798	1
540.7435	1
541.2322	0
541.4180	0
541.5809	1
542.4940	0
543.0764	2
543.3372	1
543.5388	1
544.0654	2
544.1533	1
544.4627	1
544.5671	2
544.8350	1
545.0009	1
545.1395	0
545.4968	1
546.0178	1
546.1071	1
546.2787	2
546.4995	2
546.6653	3
546.9777	1
547.0806	1
547.2170	1
547.4129	2
547.6316	1
547.8253	1
547.9411	1
548.2613	3
548.5837	1
548.9797	2
549.4171	5
549.7867	1
549.9254	1
550.2113	1
550.4315	2
550.6209	1
551.0341	0
551.1821	1
551.3944	1
551.6575	1
551.8798	3
551.9634	1
552.1407	1
552.4503	4
552.7320	1
552.8177	0
553.0701	3
553.2610	1
553.3619	1
553.4834	2
553.6528	2
553.8644	3
554.1383	3
554.5015	3
554.7260	2
554.9612	3
555.1000	1
555.3960	3
555.6670	2
555.7642	1
555.9094	2
556.0524	5
556.1483	1
556.3835	3
556.8762	5
557.1865	5
557.3710	2
557.5377	4
557.9731	5
558.3507	3
558.6267	4
558.9084	4
559.0376	2
559.1296	0
559.3243	3
559.5462	3
559.7638	3
559.9015	2
560.0377	5
560.1868	4
560.3673	2
560.5813	4
560.7932	3
561.1199	4
561.5038	6
561.7435	5
561.9803	7
562.2593	5
562.4505	6
562.6196	6
562.7809	7
563.1340	12
563.4037	14
564.3877	174
565.3210	13
565.5914	10
565.7663	5
565.9989	8
566.2844	9
566.4899	8
566.8253	9
567.3691	20
567.8958	4
568.1612	2
568.4545	2
568.8878	4
569.0776	4
569.4723	4
569.7663	4
570.2209	3
570.4744	3
570.6528	2
570.9904	3
571.4008	2
571.7106	5
572.0233	6
572.3587	4
572.6835	4
572.9747	4
573.2567	4
573.4373	5
573.6915	4
574.0977	5
574.6487	6
574.9700	5
575.1442	4
575.6375	6
576.0973	10
576.6756	8
577.3339	11
582.3452	999
582.9531	249
583.7335	114
584.4169	64
585.2224	38
585.5976	22
