Mass spectrum: Lycopene; FAB-EBEB; MS2; m/z: 536.44; [M]*+
Name: Lycopene
Class: Natural Product; Carotenoid
Formula: C40H56
Exact mass: 536.43820
SMILES: C(CC(C)=CC=CC(=CC=CC(=CC=CC=C(C=CC=C(C)C=CC=C(CCC=C(C)C)C)C)C)C)C=C(C)C
InChI: InChI=1S/C40H56/c1-33(2)19-13-23-37(7)27-17-31-39(9)29-15-25-35(5)21-11-12-22-36(6)26-16-30-40(10)32-18-28-38(8)24-14-20-34(3)4/h11-12,15-22,25-32H,13-14,23-24H2,1-10H3/b12-11+,25-15+,26-16+,31-17+,32-18+,35-21+,36-22+,37-27+,38-28+,39-29+,40-30+
Instrument: JMS-HX/HX 110A, JEOL
Instrument type: FAB-EBEB
Ms type: MS2
Ion mode: POSITIVE
Collision energy: 3 kV
Ionization: FAB
Base peak: 536.4565
Precursor m/z: 536.44
Precursor type: [M]+*
m/z	relative intensity
0.7215	1
7.7625	0
8.6841	0
10.1869	0
12.3047	0
14.9864	0
17.9638	0
18.9075	0
20.1606	1
22.5462	0
22.9267	1
23.2218	0
23.7092	0
25.0949	0
25.5834	0
25.9331	2
26.9626	7
27.9589	3
28.9680	8
29.8679	0
29.9776	1
30.1755	1
30.9457	1
31.6365	1
31.9649	0
37.9456	3
38.9535	17
39.1106	0
39.9761	3
40.7791	1
40.9682	84
41.1950	0
41.9022	0
41.9806	2
42.3707	1
42.9817	16
43.5056	0
43.9791	2
44.9617	0
48.8686	0
48.9576	0
49.9355	4
50.9393	11
51.2416	0
51.9682	5
52.3213	0
52.9561	24
53.9659	2
54.4676	0
54.9773	69
55.9867	1
56.9974	10
58.0165	1
59.9624	1
60.8649	0
60.9713	1
61.9511	5
62.9364	12
63.4799	1
63.9558	1
64.9608	19
65.3625	0
65.9446	1
66.5333	0
66.9646	29
67.1945	1
67.9928	3
68.4124	1
68.7402	0
68.9827	301
69.2595	0
69.9081	1
70.0269	2
70.9788	4
72.0045	1
72.9419	1
73.0199	1
73.9396	3
74.9541	2
75.1534	1
75.3576	1
75.4730	0
75.7341	1
75.9746	5
76.2184	0
76.7558	1
76.9572	51
77.2339	1
77.9472	14
78.2988	1
78.3803	0
78.5066	1
78.9643	59
79.9654	7
80.1158	0
80.9760	67
81.1921	0
81.9927	3
83.0020	9
83.9976	1
84.9669	3
85.7476	0
85.8810	1
86.0262	1
86.7846	1
86.9347	1
87.0152	1
87.8934	1
87.9592	1
88.1950	1
88.6482	1
88.7398	0
88.9629	8
89.1167	1
89.3206	0
89.6443	0
89.9518	1
90.4690	0
90.6821	2
90.9645	105
91.2368	0
91.9819	9
92.3586	1
92.4194	0
92.5198	1
92.6925	1
92.9885	78
93.1992	0
93.9985	6
94.3983	1
95.0031	42
95.5860	1
96.0155	2
97.0230	4
97.9740	0
98.9628	2
99.0546	0
99.9808	0
100.6906	1
100.8666	1
100.9884	3
101.3973	1
101.7807	1
101.9828	5
102.1183	1
102.9777	17
103.9867	8
104.3344	1
104.4212	0
104.9928	159
105.3278	1
105.7200	1
105.9864	8
106.6751	1
106.9965	79
107.2188	0
107.4493	1
107.9100	2
108.0131	1
108.2522	1
109.0130	21
109.2507	1
109.8634	1
110.0122	1
110.3046	0
110.9863	1
111.9744	3
112.3720	0
113.0037	1
113.1781	1
113.4387	1
113.7992	2
113.9323	2
114.0904	1
114.3727	1
114.4501	1
114.9485	47
115.3086	2
115.4944	0
115.7220	0
115.9573	18
116.0968	1
116.2231	0
116.3740	0
116.9610	47
117.6733	1
117.9601	7
118.1322	1
118.9713	125
119.3179	1
119.9678	11
120.4156	1
120.9866	34
121.9341	0
122.0573	1
122.9610	15
123.9946	1
124.8348	1
124.9964	2
125.1007	1
125.4175	1
125.6209	0
125.7784	1
125.9408	5
126.1981	1
126.2791	1
126.9281	21
127.1512	1
127.4047	3
127.9390	48
128.2417	2
128.3204	1
128.5566	2
128.9401	65
129.2280	0
129.3511	1
129.9407	30
130.5318	1
130.9502	75
131.2649	1
131.4491	1
131.9524	19
132.4975	2
132.6295	1
132.9606	87
133.4460	0
133.5466	1
133.7449	1
133.9908	7
134.7582	1
134.9806	11
135.3166	1
135.8956	1
135.9763	1
136.0748	1
136.3194	0
136.5838	0
136.8060	2
136.9455	6
137.0478	3
137.6915	0
137.9396	3
138.2921	1
138.9249	9
139.9266	3
140.5322	1
140.9440	53
141.2913	1
141.6050	1
141.9569	46
142.4535	2
142.9578	79
143.3126	1
143.4624	1
143.6300	1
143.9850	26
144.3655	1
144.5382	1
144.9774	101
145.3329	1
145.5157	1
145.9961	5
146.9984	14
147.4090	2
148.0400	2
148.8156	2
149.0039	2
149.6432	1
149.7225	1
149.9140	3
150.2841	1
150.4510	1
150.8169	2
150.9993	4
151.1618	1
151.3437	1
151.9706	17
152.3371	1
152.4315	2
152.4979	1
152.9714	27
153.6192	1
153.9606	14
154.3301	1
154.4900	1
154.5765	1
154.9929	55
155.3085	1
155.4194	1
155.5140	3
155.5987	2
155.7034	1
156.0117	36
156.2809	1
156.6006	1
157.0102	71
157.2116	3
157.2753	1
157.4674	1
157.6832	1
157.7787	1
158.0332	15
158.5557	1
159.0464	41
159.2588	1
159.4137	1
160.0223	3
160.2080	1
160.4424	1
161.0490	6
161.1579	2
161.4538	1
161.6283	1
161.9995	2
162.1172	0
162.6431	1
162.8335	1
163.0277	4
163.1292	3
163.5722	1
163.8749	1
164.1752	1
164.2880	1
164.4128	1
164.5213	1
164.7207	1
165.0118	37
165.2112	1
165.3181	1
165.4625	1
165.6319	1
165.8002	2
166.0166	16
166.5358	1
166.6816	1
167.0183	35
167.4026	1
167.6988	2
168.0151	18
168.2888	1
168.5019	2
169.0208	48
169.3486	1
169.6414	2
170.0503	20
170.3495	1
170.4405	1
170.7486	2
171.0354	46
171.3568	1
171.5062	1
171.5954	1
172.0664	6
172.6205	0
173.0654	29
173.4557	1
173.6902	1
173.8625	1
174.0864	3
174.6915	2
175.0137	3
175.1106	2
175.9554	2
176.0700	3
176.8221	2
177.0054	7
177.1976	1
177.3249	2
177.5487	2
177.7844	1
178.0013	16
178.3607	2
179.0174	32
180.0094	18
180.3200	1
180.6421	0
181.0109	32
181.2509	1
181.4342	1
181.6850	2
181.8664	4
182.0471	22
182.3322	1
182.6369	1
183.0220	46
183.4496	1
183.6280	1
183.6912	1
184.0209	10
184.4917	1
184.7753	2
185.0532	33
185.2337	1
185.4211	1
185.5149	1
185.7505	2
186.0501	5
186.4632	1
186.7224	1
186.8935	3
187.0412	13
187.1616	2
187.5078	1
188.0880	2
188.5758	0
188.8340	4
189.0345	12
189.4096	1
189.9866	5
190.6528	1
190.9862	12
191.4278	0
192.0073	8
192.1485	1
192.2419	1
192.6023	1
192.7581	3
193.0188	24
193.3158	1
194.0162	16
194.2434	1
194.4909	0
194.6182	1
195.0345	41
195.3095	0
195.5267	1
195.6273	1
196.0578	14
196.4686	1
197.0357	32
197.6597	0
197.8248	1
198.0600	18
198.3361	0
198.6148	1
198.8418	3
199.0714	21
200.0502	4
200.2653	1
200.7453	1
200.8545	1
201.0818	2
201.4783	1
202.0251	8
202.6340	0
202.7733	2
203.0513	11
203.5811	1
203.7422	1
203.9443	3
204.0856	1
204.2774	1
204.4283	1
204.6330	2
205.0539	11
205.2797	1
206.0246	11
206.3983	0
207.0520	24
207.4855	1
208.0460	11
208.3176	0
208.5277	0
208.7552	1
209.0596	35
209.3813	2
209.5724	0
210.0160	8
210.2064	0
210.3873	0
210.6553	1
211.0472	14
211.3525	1
211.7336	2
212.0461	4
213.0500	6
213.1514	3
213.5168	1
213.7672	0
214.0729	2
214.1448	1
214.6022	0
215.0269	12
215.2415	2
216.0185	5
216.4453	1
216.7443	2
217.0195	12
217.1739	3
217.3038	0
217.7469	1
217.8113	0
217.9856	1
218.1612	1
218.3555	1
218.6084	1
218.7107	1
219.0814	19
219.2745	1
219.4373	1
220.0959	7
220.2176	2
220.3696	2
220.6246	1
221.0902	20
221.9870	4
222.1358	4
222.3047	2
222.5882	1
223.0865	11
223.3237	1
223.9336	2
224.0491	2
224.2193	1
224.5037	1
224.7642	0
225.1084	10
225.3555	1
225.7254	0
225.8941	1
226.0826	5
226.3671	1
226.7578	1
227.0881	5
227.7224	1
228.0251	4
228.1249	3
228.8251	2
229.0906	5
229.7697	0
230.0688	6
230.4742	2
231.0358	8
231.4478	1
231.6219	1
232.0624	7
232.2037	1
232.5437	1
233.0766	9
233.6909	4
234.1427	5
234.4448	1
234.6533	1
234.8315	2
235.1021	9
235.7226	0
235.9299	1
236.1166	3
236.2083	1
236.6870	1
237.0992	10
237.4229	1
237.9619	2
238.1377	4
238.8171	1
238.9807	2
239.1288	6
239.3092	1
239.5219	1
239.9119	1
240.1518	2
240.3116	1
240.8899	2
241.1189	5
241.4923	1
241.8514	1
242.0973	2
242.4986	1
242.6164	2
243.0450	7
243.1900	3
243.9988	3
244.2151	1
244.6574	1
244.8796	1
245.1174	7
245.8333	1
246.0465	5
246.1722	3
246.5351	1
246.8028	1
247.0977	9
248.1169	2
248.8913	1
249.1131	7
249.5340	1
250.0358	3
250.2713	3
250.5177	1
250.8161	1
250.9413	4
251.1417	5
251.3850	1
251.5316	1
251.6062	1
252.0513	4
252.3907	1
253.0780	6
253.2293	4
253.8324	1
254.0492	2
254.2044	1
254.4790	0
255.1246	6
255.2077	3
255.8014	1
255.9105	1
256.1138	2
256.1898	1
256.7740	1
256.9104	1
257.0280	2
257.1638	6
257.2509	1
258.0750	4
258.7160	1
258.8487	2
259.1302	3
259.3844	1
259.5847	1
260.0295	2
260.1817	3
260.4172	1
260.9688	1
261.1464	7
261.7105	0
261.8243	1
262.0332	3
262.1126	1
263.1123	7
263.7346	1
263.8434	2
264.2392	2
264.3369	1
264.4730	0
264.9347	1
265.1359	5
265.2505	4
265.6198	1
265.9605	1
266.1181	2
266.4387	2
266.5703	1
266.8925	1
267.1703	8
267.4429	1
268.0786	3
268.1891	1
268.8770	0
269.1738	10
269.9516	1
270.2537	2
270.5903	0
270.9562	1
271.1099	3
271.7591	1
272.1467	3
272.7857	1
273.0782	4
273.2202	2
273.3844	1
273.4919	1
273.8496	0
274.0171	1
274.2152	1
274.7959	1
275.1433	4
276.1127	1
276.9766	4
277.1749	5
277.2910	2
277.7260	1
278.0769	2
278.2497	1
278.3835	1
278.4807	1
278.8232	2
279.2355	2
279.4665	1
279.9918	2
280.1327	1
280.3357	1
280.9557	2
281.0948	2
281.3004	1
282.0132	1
282.2169	2
282.2907	1
282.9574	1
283.1342	3
283.5046	0
284.1888	2
285.1309	3
285.2993	1
285.6594	1
286.0379	2
286.2233	2
287.1631	5
288.1862	3
288.2834	1
289.0624	3
289.2414	0
289.7625	0
289.9422	1
290.1695	1
290.7143	1
291.1689	4
291.5296	1
291.6368	1
291.7629	1
292.2190	1
293.1085	1
293.6634	1
294.0511	2
294.8604	1
295.1239	3
295.3652	0
296.2226	1
296.3050	1
296.9028	1
297.0088	1
297.1161	2
297.2404	0
297.5393	1
298.0267	1
298.1772	1
298.7943	0
299.0730	3
299.2451	3
299.7988	1
299.8898	1
300.8415	1
301.1302	2
301.2376	2
302.1327	1
302.8432	0
303.1064	2
304.1531	1
304.4590	1
305.0474	1
305.1909	3
305.5598	1
305.8304	0
306.2924	1
306.8521	1
306.9655	1
307.1221	2
309.0717	2
309.1970	1
309.8638	0
310.3308	1
311.2274	1
312.0349	0
313.0715	2
313.2061	2
314.2770	2
315.1881	6
315.3548	0
316.1176	3
316.3067	1
316.9305	1
317.0329	1
317.3041	1
318.2688	1
319.0347	1
319.1542	1
319.8906	1
319.9780	1
320.2007	1
320.2802	1
320.6665	1
321.0181	1
321.1902	4
321.4235	0
322.0498	1
322.1451	1
322.2989	1
322.4500	1
323.2092	2
323.5431	0
324.3314	0
325.0669	1
325.2205	1
325.3484	1
325.5172	0
325.8769	1
326.0962	1
326.7685	0
327.1966	2
327.3542	1
327.8047	1
327.9767	1
329.0493	1
329.2627	2
329.8881	0
330.0990	1
330.2711	0
330.7073	1
331.0759	4
331.2533	4
331.5523	0
331.9958	1
332.1417	1
332.3297	1
332.9343	0
333.0789	2
333.2853	2
334.1181	1
334.3291	2
335.1818	1
335.3054	1
335.5803	1
335.8163	1
336.1635	1
336.3332	1
337.1479	1
337.8813	1
338.7121	1
340.0219	1
340.2141	1
340.3634	1
341.1248	1
341.2103	1
341.3176	1
342.1330	2
342.2943	1
343.1591	2
343.3343	1
343.4455	1
344.0643	2
344.2849	2
344.9235	1
345.2705	2
345.3891	1
345.5135	3
346.0904	3
346.2096	1
346.3136	2
347.1797	2
347.3371	2
347.4412	1
348.3759	1
349.2962	1
351.0878	1
351.2390	1
351.3369	1
352.1449	1
352.2554	1
352.3685	1
352.5269	0
353.1332	1
353.2344	1
353.6619	1
353.8145	0
353.9756	1
354.1564	2
355.1548	2
356.4145	1
356.9869	1
357.2290	3
357.5882	1
357.8297	1
358.0732	1
358.3482	1
359.1010	2
359.3320	4
359.4393	1
360.1238	0
360.3074	0
360.4246	1
360.5977	1
361.1513	1
361.2658	1
363.1059	2
365.1490	1
365.4597	1
366.2090	1
367.2256	1
367.3981	2
368.2298	2
368.4609	1
368.8297	0
369.0859	1
369.3487	1
370.1891	1
370.2893	1
370.6048	0
371.0949	1
371.2141	1
371.3268	1
371.4236	1
371.8809	1
373.0926	1
373.3548	0
374.9602	0
375.0584	1
375.2667	3
375.4156	0
376.1657	1
377.5508	1
378.0116	1
378.3004	1
378.4059	1
379.3363	1
379.5605	1
380.0656	2
380.1725	3
380.4422	3
380.6011	1
380.9553	1
381.0364	1
381.2296	4
381.9737	1
382.1610	2
382.3503	2
382.5126	1
382.6030	1
383.3240	10
383.5384	2
384.4054	1
384.8692	1
385.1965	3
385.4221	2
386.1969	1
386.8344	2
387.1155	1
387.2944	2
387.4997	2
388.1294	1
388.3611	2
390.2365	1
392.0550	2
392.2419	2
393.3500	0
394.5580	0
394.9610	1
395.2397	1
395.3738	0
395.5145	1
396.7541	1
397.0549	1
397.2977	5
397.4607	1
397.7325	1
397.9040	2
398.2689	10
398.4391	6
399.2857	5
399.3940	4
399.5708	0
399.8566	2
400.1034	1
400.2334	1
401.2155	1
403.4968	1
404.0051	2
405.2028	1
405.7469	0
407.2994	0
407.5616	0
408.0510	1
408.1402	1
408.3680	1
408.6871	1
409.3152	1
409.5015	1
410.9773	2
411.2859	1
412.2230	3
412.3364	3
412.4695	3
413.2515	2
413.3511	1
415.0411	1
415.1427	2
415.3188	1
416.1847	1
416.3773	2
416.9426	1
417.2994	1
418.2255	1
419.1590	1
420.3709	1
420.9403	1
422.0628	1
422.2700	1
422.4171	1
422.5174	1
422.8302	0
423.2935	1
423.6096	1
423.7449	0
424.1904	1
424.4380	1
424.5561	1
424.7112	1
425.1079	2
425.2538	2
425.3482	2
425.5290	2
426.1759	2
426.3515	2
426.9193	1
427.4454	1
428.2839	1
430.2140	1
430.3527	2
430.4946	2
431.1478	1
431.3690	1
432.3326	1
432.6219	1
434.2673	0
434.5983	1
435.0276	1
435.1432	1
435.3170	2
435.4557	1
435.6302	1
435.8488	1
436.1422	1
436.9872	1
437.2740	2
437.4332	1
437.9790	1
438.1779	1
438.2830	1
439.5868	1
439.9199	1
441.0514	0
441.9041	1
442.3773	2
442.5089	3
442.7158	0
443.1977	1
443.3729	1
444.3553	29
444.5582	14
444.8095	3
444.9391	1
445.4197	1
445.5447	1
445.6906	1
446.1730	0
446.3333	1
446.4634	1
446.7419	1
447.3333	1
448.2210	1
448.4025	1
448.4903	0
449.0078	1
449.2600	1
449.5511	1
449.7089	1
449.8548	1
450.2502	4
450.4595	1
450.6034	1
450.7189	1
450.8780	2
450.9507	1
451.0866	1
451.3012	4
451.4300	1
451.6643	2
452.1906	3
452.3372	4
452.6217	1
452.7320	1
453.0159	1
453.2734	5
453.3824	2
453.7284	1
454.1847	1
454.3359	2
454.4575	2
454.6047	3
454.8847	0
455.0670	1
455.2387	1
455.3787	2
456.3582	2
456.4526	1
456.8026	0
457.3667	8
457.4995	4
457.5973	3
459.0115	1
459.8849	0
460.4240	1
461.4586	2
461.6264	1
463.3827	1
464.1585	1
464.3383	2
464.5174	1
465.2873	1
465.4591	3
465.8220	1
465.9350	1
466.1809	6
466.4036	5
466.7566	0
467.3620	58
467.7044	4
467.8439	2
468.3264	1
468.4923	3
468.9141	2
469.4377	2
469.6644	1
469.8819	1
470.1642	1
470.5245	1
470.8862	1
472.4061	1
474.2232	1
476.1674	2
476.4376	1
478.3979	1
478.6134	1
478.7600	1
478.9259	1
479.2253	1
479.3600	1
479.7030	1
479.8887	1
480.1259	3
480.3017	1
480.4154	1
481.3181	6
481.4549	6
481.5521	2
482.2976	1
482.4265	2
484.2626	1
485.6019	2
486.8765	2
487.2679	1
487.4669	1
487.7148	1
487.8602	1
488.1835	2
488.4136	1
488.5888	0
488.9743	0
490.2802	1
491.1578	1
491.6392	0
492.0770	1
492.3395	3
492.4678	2
492.6114	1
493.0214	1
493.3620	2
493.4969	2
493.5928	1
494.2205	2
494.6405	1
496.4986	1
497.5213	1
497.8961	1
499.7154	0
501.4991	1
501.6443	0
502.2577	1
502.4551	1
504.0206	1
504.1256	1
504.5151	0
504.8215	1
505.3221	1
505.4779	1
505.6648	0
506.3205	4
506.3965	2
506.5589	5
507.1731	1
507.4901	2
507.8513	0
508.1215	1
510.3533	1
510.9749	1
511.1605	2
511.5258	1
512.6144	0
515.2921	1
515.5009	1
515.6370	2
515.7724	1
516.1695	1
516.2712	1
516.4219	1
516.5475	0
516.8336	1
517.0496	1
517.3186	1
517.5056	2
517.5869	1
517.6714	1
517.8776	3
518.4479	11
518.8444	1
519.0406	1
519.1596	3
519.2429	1
519.4801	2
519.7451	3
519.8251	2
520.3637	8
520.4893	5
520.6876	2
520.8131	1
520.9434	0
521.4727	22
521.7120	8
521.7867	3
521.9783	1
522.1330	1
522.3121	2
522.5712	1
522.9017	3
523.1152	2
523.3406	2
523.4669	0
523.6500	0
523.8033	2
524.0948	1
524.2621	1
524.4921	1
524.5985	2
524.7129	1
524.8656	1
524.9502	1
525.1485	1
525.2834	1
525.4407	1
525.5247	1
525.7078	1
525.8644	1
526.0594	1
526.1500	1
526.2697	1
526.3583	2
526.6888	1
526.8436	0
527.0154	1
527.1953	2
527.3229	2
527.4637	3
527.6581	1
527.7803	1
527.9397	1
528.1678	1
528.5486	2
528.6656	0
528.8071	1
529.0829	3
529.4333	2
529.6535	4
529.7824	3
529.9365	2
530.2572	2
530.5812	3
530.8206	5
531.1003	4
531.4137	3
531.8237	6
532.0525	5
532.3322	8
532.6609	6
533.0306	12
536.4565	999
536.9896	115
537.6782	48
538.3258	29
539.0224	20
539.1931	9
539.8315	12
540.1896	8
540.4826	7
540.6212	4
540.8046	2
