Mass spectrum: Vitamin K1; FAB-EBEB; MS2; m/z: 473.34; [M+Na]*+
Name: Vitamin K1
Class: Natural Product; Lipid
Formula: C31H46O2
Exact mass: 450.34978
SMILES: C(C)(CCCC(C)CCCC(C)C)CCCC(C)=CCc(c(=O)1)c(C)c(=O)c(c2)c1ccc2
InChI: InChI=1S/C31H46O2/c1-22(2)12-9-13-23(3)14-10-15-24(4)16-11-17-25(5)20-21-27-26(6)30(32)28-18-7-8-19-29(28)31(27)33/h7-8,18-20,22-24H,9-17,21H2,1-6H3/b25-20+
Instrument: JMS-HX/HX 110A, JEOL
Instrument type: FAB-EBEB
Ms type: MS2
Ion mode: POSITIVE
Collision energy: 3 kV
Ionization: FAB
Base peak: 473.3673
Precursor m/z: 473.34
Precursor type: [M+Na]+*
m/z	relative intensity
22.9570	509
26.9942	8
27.9885	1
28.9985	10
37.9815	2
38.9836	10
39.9901	1
40.9959	26
42.0017	4
43.0071	40
49.9755	4
50.9697	4
52.9846	6
53.9783	1
54.9947	21
56.0028	5
57.0106	23
61.9674	2
62.9732	3
64.9700	3
66.9906	6
67.9883	2
68.9945	9
70.0071	1
71.0156	10
73.9463	2
74.9559	2
75.9609	6
76.9729	7
78.9835	3
80.9828	3
83.0061	3
85.0138	3
87.9561	1
88.9843	2
90.9917	5
93.0097	2
95.0165	1
97.0139	2
100.9958	1
101.9848	1
102.9917	1
103.9639	4
104.9740	4
113.0128	1
114.9859	6
125.9639	1
126.9717	3
127.9830	5
128.9860	2
132.9361	2
139.0037	3
140.9803	3
150.9982	1
152.0151	5
153.0255	3
155.0198	1
157.0375	3
165.0254	7
166.0286	2
167.0372	1
168.0779	1
169.0311	1
173.0501	1
177.0336	1
178.0281	4
179.0486	3
180.0382	1
181.0136	5
186.0006	3
187.0132	5
189.0361	2
191.0672	2
193.0414	1
194.0084	3
195.0187	4
195.9938	2
197.0087	5
198.0289	4
199.0213	2
202.0834	2
203.1144	1
205.0338	1
207.0137	2
208.0147	8
209.0321	5
210.0401	3
211.0546	3
213.0947	1
215.0720	2
219.0549	2
220.0898	2
221.0608	3
222.0384	1
223.0545	4
224.0797	8
225.0792	9
226.0259	1
233.0709	2
235.0759	2
237.0635	2
238.0559	1
239.1152	2
245.0677	1
247.0566	12
248.0557	4
249.0626	2
250.0809	1
251.0684	1
261.0860	4
262.0879	34
263.1311	2
275.1062	4
276.0816	3
277.0809	1
278.0867	2
289.0870	14
290.1189	3
317.1331	6
318.1319	4
331.1803	5
332.1697	5
345.2009	4
346.2067	8
359.1959	14
360.1960	6
386.2529	1
387.2133	10
388.2418	17
401.2139	5
402.2691	8
415.2546	5
416.2594	10
429.2706	6
430.3031	13
455.4308	1
457.2878	7
458.3109	28
472.3306	102
473.3673	999
