Mass spectrum: Cucurbitaxanthin A; FAB-EBEB; MS2; m/z: 584.42; [M]+*
Name: Cucurbitaxanthin A
Formula: C40H56O3
Exact mass: 584.42295
SMILES: C(=CC=C(C)C=CC(=C(C)3)C(C)(C)CC(C3)O)C(=CC=CC=C(C=CC=C(C)C=CC(C(C)(O)1)(C(C)(C)2)OC(C2)C1)C)C
InChI: InChI=1S/C40H56O3/c1-29(17-13-19-31(3)21-22-36-33(5)25-34(41)26-37(36,6)7)15-11-12-16-30(2)18-14-20-32(4)23-24-40-38(8,9)27-35(43-40)28-39(40,10)42/h11-24,34-35,41-42H,25-28H2,1-10H3/b12-11+,17-13+,18-14+,22-21+,24-23+,29-15+,30-16+,31-19+,32-20+/t34-,35+,39-,40-/m1/s1
Instrument: JMS-HX/HX 110A, JEOL
Instrument type: FAB-EBEB
Ms type: MS2
Ion mode: POSITIVE
Collision energy: 3 kV
Ionization: FAB
Base peak: 105.0967
Precursor m/z: 584.42
Precursor type: [M]+*
m/z	relative intensity
1.5185	1
11.9840	1
14.0322	3
15.0408	7
24.8089	1
25.0165	1
26.0355	7
27.0395	42
28.0499	4
29.0487	49
30.0669	1
31.0343	6
36.0281	1
37.0218	4
38.0299	7
39.0428	82
40.0492	15
41.0567	199
42.0533	12
42.4174	1
43.0344	788
44.0438	3
45.0437	8
49.0034	2
49.2155	1
50.0328	16
51.0370	44
51.3591	1
52.0483	17
53.0430	93
54.0360	4
55.0497	393
56.0532	11
57.0642	128
58.0259	12
58.6545	1
59.0478	23
60.0906	1
60.4731	1
61.0217	3
61.3960	1
62.0585	8
63.0488	37
63.4533	1
64.0333	9
64.2866	1
65.0518	81
65.7468	1
66.0531	15
66.5427	1
67.0572	180
67.7224	1
68.0550	23
69.0566	345
70.0428	34
70.4367	1
71.0440	119
72.0627	1
73.0504	2
74.0465	10
75.0756	15
75.3418	2
76.0355	10
76.3193	2
77.0568	270
77.6018	3
78.0695	57
79.0684	322
80.0558	52
80.5059	1
81.0697	393
81.7016	1
82.0562	28
82.5709	2
83.0771	476
84.0690	8
85.0635	154
86.0180	5
87.0457	34
88.0720	4
89.0982	38
89.6708	2
90.1014	14
91.0854	691
92.0906	76
93.0872	592
94.1011	34
95.0918	481
96.0885	34
97.0860	160
97.6655	1
98.0787	32
99.0734	11
100.0619	3
101.0964	12
102.0874	36
103.0983	122
103.5671	2
104.0931	50
105.0967	999
106.1008	113
106.5652	2
107.1066	508
108.0958	58
109.1058	338
110.0938	15
111.0961	129
112.0817	3
113.1069	138
114.1309	11
115.0975	334
116.0880	125
117.0956	367
118.0821	89
119.0899	980
120.0920	129
121.0971	475
122.0751	43
122.4550	4
123.0886	154
123.5816	3
124.1064	10
124.4588	2
125.0899	146
126.0775	28
127.0965	140
128.0810	380
129.0811	519
130.0781	201
131.0822	657
132.0903	161
133.0881	589
134.0828	66
135.0888	265
136.0786	28
136.4454	3
137.0806	83
138.0794	11
139.0982	275
140.1109	22
141.0795	340
142.0797	353
143.0854	745
144.0980	248
145.0984	939
146.0940	97
147.1053	317
148.1293	34
149.1161	140
150.1303	20
151.1249	62
152.1013	121
152.4564	10
153.1184	212
154.1172	103
155.1214	486
156.1205	276
157.1264	722
158.1362	161
159.1350	570
160.1242	415
161.1499	170
162.1394	32
163.1489	83
164.1459	23
165.1467	297
166.1527	105
167.1505	273
168.1655	129
169.1658	443
170.1594	180
171.1731	426
172.1652	89
172.5578	10
173.1774	285
174.1679	50
175.1771	187
176.1570	36
177.1601	72
178.1459	139
179.1518	314
180.1509	119
181.1492	710
182.1541	152
183.1552	411
184.1644	107
185.1578	296
186.1607	61
187.1583	125
188.1776	24
189.1553	116
190.1532	40
191.1411	137
192.1401	106
193.1352	251
194.1369	146
195.1438	462
196.1496	129
197.1576	448
198.1555	78
199.1600	153
200.1651	28
201.1677	85
202.1282	78
203.1501	116
204.1466	47
204.5788	6
205.1451	132
206.1442	98
207.1499	256
208.1621	154
209.1551	342
210.1699	68
211.1714	190
212.1765	35
213.1759	84
214.1453	21
215.1609	102
216.1618	42
216.5154	6
217.1753	116
218.1694	48
219.1792	143
220.1819	74
221.1850	487
222.1962	58
223.1878	222
224.2060	46
225.2077	101
226.1745	40
226.5312	5
227.1940	61
228.1954	31
229.2096	82
230.1749	39
231.2057	98
232.1898	53
233.1990	211
234.2209	71
235.2169	152
236.2026	32
237.2195	98
238.2229	33
239.2174	69
240.1999	19
241.2136	65
241.6689	6
242.2247	24
243.2082	66
244.2138	26
245.2135	106
246.2213	196
247.2310	224
248.2179	36
249.2314	99
250.2298	27
251.2393	64
252.2615	24
252.6318	4
253.2500	51
254.2265	23
254.6528	6
255.2389	62
255.6374	12
256.2190	25
256.6053	6
257.2373	66
258.2336	27
259.2410	107
260.2611	37
261.2505	85
262.2759	21
263.2489	78
263.6974	11
264.2159	24
265.2329	47
266.2937	16
267.2476	43
267.7091	6
268.2313	19
269.2557	51
270.2477	22
271.2603	96
272.2606	52
273.2550	87
274.2638	30
275.2754	54
276.3007	21
277.2874	46
278.2712	18
279.2849	42
280.2630	12
281.2710	28
282.2527	20
282.6720	3
283.2862	56
284.2575	32
285.2634	126
286.2523	903
287.2619	60
288.2170	12
289.2707	33
290.3262	12
290.7823	3
291.2912	25
291.7747	9
292.2474	29
293.2708	24
294.2571	9
295.3060	30
296.2756	12
297.2797	69
298.2638	106
299.2590	169
300.2481	22
301.2625	30
302.2897	9
303.2952	22
304.2414	12
305.3130	18
306.2691	10
306.5774	4
307.3146	32
308.2898	13
309.2543	35
310.2613	22
311.2654	101
312.2555	140
313.2647	34
314.2991	8
315.2946	15
316.2918	7
317.2406	11
318.2524	8
319.3192	19
320.3235	8
321.2888	21
322.2856	20
323.3109	31
324.2845	16
324.6772	3
325.2929	58
326.2339	15
327.2930	17
327.7817	2
328.2705	4
329.3362	13
330.3801	7
331.3362	16
331.7608	2
332.3254	8
333.3085	16
333.7459	2
334.3076	8
335.3406	32
336.3319	16
337.3250	62
338.3513	34
339.2708	15
340.3681	8
340.6967	4
341.3336	13
342.2898	7
343.3326	10
344.2749	4
345.3401	17
346.3520	10
347.3735	19
348.3369	12
349.3509	45
350.2925	23
351.3351	34
352.3291	31
353.3342	10
354.4277	4
355.3496	8
355.6995	2
356.3883	6
357.3673	11
358.5403	4
359.3918	8
360.3602	8
361.3554	30
362.3381	34
363.3510	211
364.3610	597
365.3239	71
366.3199	10
366.7613	3
367.3839	9
367.9972	2
368.4307	3
369.4304	7
370.3151	3
371.3575	10
372.3781	13
373.3357	19
373.8564	1
374.2887	4
375.3523	23
376.3845	28
377.3383	28
378.3489	44
379.3690	19
380.3751	5
381.4113	11
381.9428	2
382.4823	4
382.8388	1
383.4225	10
384.3391	6
385.3932	21
385.8414	2
386.4332	3
387.4196	10
387.7621	4
388.3478	10
389.3440	15
390.3323	8
391.3303	38
392.3174	10
393.4435	7
394.2950	2
395.3471	8
395.6189	3
396.4263	2
397.4140	11
398.3733	17
399.3580	13
400.3301	6
400.6795	2
401.4321	34
402.4124	47
403.4007	44
404.3875	11
405.4220	8
406.4597	2
406.8789	1
407.3646	7
408.3914	3
409.3856	5
409.7584	3
410.4645	4
411.4645	11
411.9022	3
412.4551	17
413.4901	16
414.4778	11
415.4167	68
416.3887	170
417.3941	65
418.3411	13
419.3262	11
420.4267	6
421.3882	3
422.2233	2
422.8449	1
423.4524	12
424.0646	2
424.4980	2
424.8461	2
425.4236	18
426.4732	11
426.7971	4
427.5099	10
428.3793	39
429.3736	35
430.4296	39
431.4178	101
432.3649	8
432.7413	3
433.3485	3
433.8214	1
434.4334	2
435.4188	7
436.3774	4
437.3788	8
438.3929	93
439.3897	9
440.3407	11
441.3836	27
442.4013	26
443.4333	18
443.9825	5
444.4068	11
444.9340	2
445.4295	8
446.5552	3
447.0033	3
447.5844	2
448.5266	2
449.4198	11
450.4017	6
451.3996	10
451.8764	2
452.3992	6
453.4305	6
453.7759	2
454.5015	5
455.4506	7
456.3570	15
456.7722	7
457.4140	22
458.4030	122
459.5173	4
460.3193	8
461.6291	5
462.4062	7
463.3448	11
464.3942	41
465.3947	11
465.8554	2
466.5536	7
466.9462	2
467.4782	10
467.9073	7
468.4932	7
469.5193	10
470.4125	11
471.3770	20
472.5206	8
473.4171	9
474.4247	15
475.4291	8
476.4003	19
477.4635	23
478.3826	20
478.7360	3
479.1528	4
479.5712	2
480.2733	3
480.6299	1
481.3795	6
482.5002	6
483.4498	14
484.4739	35
485.4790	17
486.5002	14
487.5609	11
488.3808	10
489.4261	28
490.4551	224
491.5316	20
492.4578	253
493.5930	8
494.4338	4
495.5866	4
496.4164	7
497.4855	9
497.8466	3
498.4421	5
498.7985	3
499.4400	16
500.4760	47
500.9005	6
501.5485	6
502.4024	12
502.7716	6
503.4544	49
504.4622	686
505.4700	26
505.8915	6
506.6347	3
506.8217	2
507.7299	4
508.4605	3
509.4828	7
510.4719	35
511.4278	10
511.7575	4
512.4551	23
513.5458	4
513.8693	3
514.3544	4
515.5005	5
516.3106	4
517.1193	2
517.4421	2
518.5927	2
519.1545	2
519.7891	1
520.1215	1
520.4064	1
521.2390	1
521.6537	1
522.0289	1
522.6684	2
523.4821	4
524.5665	6
525.4373	16
526.4601	49
527.4894	30
528.4443	13
529.4435	2
530.4492	39
531.2205	2
531.7273	2
532.2120	2
532.5335	1
532.9628	1
533.4966	2
533.8419	1
534.5547	2
535.1124	2
535.6098	2
535.9979	1
536.5096	1
536.7821	1
537.2336	3
537.4206	2
538.0369	2
538.7310	2
539.4725	6
540.4708	44
541.4549	99
542.4533	11
542.8431	6
543.6340	5
544.0857	2
544.6658	4
544.9638	1
545.9323	3
546.2002	2
546.4015	1
546.9563	1
547.5032	2
547.8298	2
548.1896	2
548.5812	2
549.1107	2
549.3422	3
549.5562	1
550.3775	5
550.8325	2
551.5540	19
552.2183	2
552.5434	4
552.8494	2
553.6359	7
554.5034	9
555.5437	7
556.0004	2
556.4984	3
557.0186	8
557.7768	6
558.6381	7
562.1978	25
566.6329	584
567.5628	60
568.4976	80
569.5860	524
570.2388	18
584.4693	999
588.4694	202
589.3176	97
590.4539	48
591.6298	36
