Mass spectrum: Methyl-9-hydroperoxy-delta10E,12E-octadecadienoic acid; FAB-EBEB; MS2; m/z: 311.22; [M-CH3]-
Name: Methyl-9-hydroperoxy-delta10E,12E-octadecadienoate
Name: LOOH-4
Name: Methyl-9-hydroperoxy-delta10E,12E-octadecadienoic acid
Class: Natural Product; Lipid
Formula: C19H34O4
Exact mass: 326.24571
SMILES: CCCCCC=CC=CC(OO)CCCCCCCC(=O)OC
InChI: InChI=1S/C19H34O4/c1-3-4-5-6-7-9-12-15-18(23-21)16-13-10-8-11-14-17-19(20)22-2/h7,9,12,15,18,21H,3-6,8,10-11,13-14,16-17H2,1-2H3/b9-7+,15-12+
Instrument: JMS-HX/HX 110A, JEOL
Instrument type: FAB-EBEB
Ms type: MS2
Ion mode: NEGATIVE
Collision energy: 3 kV
Ionization: FAB
Base peak: 311.2780
Precursor m/z: 311.22
Precursor type: [M-CH3]-
m/z	relative intensity
57.8943	7
70.8987	6
127.0665	6
141.0490	7
171.0707	17
221.1588	9
237.2238	16
251.1239	7
265.1797	5
277.2115	39
279.1903	9
293.2077	589
311.2780	999
