Mass spectrum: Cyclopyrroxanthin; FAB-EBEB; MS2; m/z: 612.35; [M]+*
Name: Cyclopyrroxanthin
Formula: C39H48O6
Exact mass: 612.34509
SMILES: C(C4)(O1)CC(C(C4(C)O)1C=Cc(c2)c(oc(=CC(=CC=CC=CC=C(C#CC(=C3C)C(C)(C)CC(C3)OC(C)=O)C)C)2)=O)(C)C
InChI: InChI=1S/C39H48O6/c1-26(16-17-34-28(3)21-32(43-29(4)40)23-36(34,5)6)14-12-10-11-13-15-27(2)20-31-22-30(35(41)44-31)18-19-39-37(7,8)24-33(45-39)25-38(39,9)42/h10-15,18-20,22,32-33,42H,21,23-25H2,1-9H3/b12-10+,13-11+,19-18+,26-14+,27-15+,31-20-/t32-,33+,38-,39-/m1/s1
Instrument: JMS-HX/HX 110A, JEOL
Instrument type: FAB-EBEB
Ms type: MS2
Ion mode: POSITIVE
Collision energy: 3 kV
Ionization: FAB
Base peak: 42.9621
Precursor m/z: 612.35
Precursor type: [M]+*
m/z	relative intensity
0.0097	0
0.0481	0
0.1127	0
0.1743	1
0.2047	1
0.2628	0
0.8077	0
0.8662	0
0.9139	0
0.9611	0
1.1514	0
2.7425	0
3.0523	0
3.4515	0
5.7623	1
6.2376	0
6.3251	0
7.4750	1
8.6955	2
10.4072	0
10.4459	0
10.7233	1
11.7075	0
12.9881	1
13.3800	0
13.9861	2
14.8973	0
14.9943	7
15.3558	1
18.5690	0
18.9852	0
19.0510	2
20.8429	1
22.9486	8
23.4420	0
24.2096	0
24.7356	0
24.9451	1
25.3416	1
25.6198	0
25.9654	5
26.9780	27
27.9860	4
28.9830	17
29.6507	0
29.9346	0
30.0575	0
30.5936	0
30.9744	2
32.4154	0
33.0602	0
33.5007	0
34.8239	0
36.5978	1
36.9534	5
37.9649	11
38.3993	0
38.9661	79
39.2187	0
39.4685	1
39.9666	9
40.9809	152
41.3263	0
41.6562	1
41.7905	1
41.9804	11
42.4375	0
42.9621	999
43.3164	1
43.6914	0
43.8668	0
43.9825	4
44.9656	6
47.1131	1
47.9531	1
48.2299	0
48.9489	2
49.2090	0
49.3980	0
49.9646	28
50.6860	2
50.9670	66
51.1585	0
51.3832	0
51.9700	23
52.9777	72
53.6454	0
53.9820	5
54.1741	0
54.4651	0
54.9869	229
55.9912	7
57.0067	35
57.9778	7
58.2690	0
58.9901	9
60.7574	0
60.9605	7
61.9679	23
62.1871	1
62.5184	0
62.9686	52
63.1570	1
63.3208	0
63.4818	1
63.5678	1
63.6894	1
63.7743	0
63.9662	12
64.2008	0
64.6588	0
64.9823	68
65.9804	15
66.1415	0
66.3370	1
66.4131	0
66.5963	0
66.9859	95
67.2636	0
67.9920	11
68.9864	166
69.2599	0
69.6506	0
69.9845	25
70.9770	33
71.8095	1
71.9795	1
72.9345	3
73.6558	0
73.9509	14
74.9637	26
75.3358	0
75.4823	0
75.5521	0
75.9687	15
76.2643	2
76.3977	0
76.4938	0
76.5786	1
76.9698	180
77.2230	2
77.3514	0
77.4579	1
77.9693	38
78.9660	163
79.4792	0
79.9705	18
80.4829	0
80.9918	116
81.2535	0
81.5587	1
81.6461	0
81.9631	8
82.3903	2
82.6198	1
83.0000	182
83.8629	2
84.0278	5
84.9783	27
85.9714	12
86.9616	18
87.9691	8
88.1426	0
88.4965	1
88.5947	1
88.7274	1
88.9712	35
89.3118	1
89.5554	1
89.6427	1
89.9561	12
90.3752	1
90.5485	2
90.9786	254
91.2998	1
91.7147	1
91.9869	20
92.2742	1
92.5258	1
92.9939	132
93.2471	1
93.4055	1
93.5148	1
93.9703	10
94.9869	124
95.3479	0
95.4576	1
95.9774	9
96.3315	1
96.9918	27
97.2753	0
97.9695	19
98.2405	0
98.9757	7
99.3114	1
99.9544	1
100.0356	1
100.6651	1
100.9862	9
101.2292	1
101.5828	1
101.9872	29
102.2124	1
102.7287	1
102.9966	65
103.3471	1
103.9877	25
104.3521	1
104.5700	1
104.6603	0
104.9997	273
105.2357	1
105.3407	1
105.5896	0
105.7456	1
106.0016	16
106.4975	2
106.6270	2
106.9990	110
107.2409	1
107.3942	1
107.5852	1
107.9886	28
108.4005	1
108.6056	1
109.0050	66
109.5006	1
109.9838	8
110.2541	1
110.6803	1
111.0009	39
111.3577	0
111.9761	5
112.3064	0
112.4344	1
112.6556	1
113.0095	17
113.2412	2
113.3719	1
113.5678	2
113.9667	11
114.2607	3
114.4826	2
114.9854	176
115.2534	1
115.3445	2
115.4731	1
115.9967	53
116.3008	2
116.5001	3
116.9890	100
117.2760	2
117.6598	1
117.9977	26
118.5370	2
118.9917	183
119.4389	2
119.5696	2
119.6886	1
119.9801	20
120.3439	2
120.6924	2
120.9849	145
121.4302	2
121.5228	3
121.6859	2
121.9964	54
122.2654	1
122.3725	1
122.9644	46
123.4187	2
123.9853	5
124.2302	1
124.3493	2
124.5281	1
124.9652	80
125.2241	2
125.3572	1
125.4687	2
125.6635	1
125.9752	14
126.3310	1
126.4322	2
126.5616	1
126.9656	73
127.2812	2
127.9666	210
128.2437	1
128.5736	2
128.9715	198
129.2562	1
129.3683	2
129.5918	2
129.9725	70
130.3044	1
130.4325	1
130.6412	3
130.9813	144
131.2549	2
131.4724	2
131.7117	2
131.9710	38
132.3343	1
132.9824	88
133.2673	2
133.4257	2
133.6842	1
133.9560	14
134.6334	1
134.9673	53
135.3272	1
135.9272	14
136.5024	2
136.9555	24
137.2843	0
137.5034	1
137.5860	1
137.9545	13
138.2352	1
138.4600	2
138.5994	1
138.9724	50
139.3102	2
139.4170	2
139.9206	12
140.3610	3
140.5850	3
140.9702	174
141.3736	3
141.5014	1
141.9727	112
142.3679	2
142.5461	2
142.9865	165
143.3264	1
143.5297	2
143.9805	35
144.4115	0
144.5659	2
144.9783	126
145.5603	2
145.9651	36
146.4985	1
146.9845	65
147.2282	2
147.3871	2
147.9530	17
148.2388	1
148.4087	1
148.5975	1
148.9624	92
149.2849	2
149.5663	3
149.9714	26
150.2618	4
150.4725	1
150.9618	43
151.4201	3
151.9802	125
152.1886	7
152.3361	2
152.5074	5
152.9813	123
153.5544	3
153.9916	64
154.3984	2
154.6358	2
154.9940	186
155.4908	3
155.9993	85
156.2615	3
156.4755	2
156.5727	2
157.0117	182
157.3040	1
157.4809	1
158.0162	32
158.2407	3
158.4994	4
158.6539	2
159.0168	84
159.5931	3
160.0006	20
160.2651	1
160.4062	4
160.7349	2
161.0132	50
161.5120	1
161.6348	2
161.9687	8
162.1100	5
162.2131	2
162.3217	0
162.5327	2
162.6646	2
163.0096	52
163.4108	1
163.6665	4
164.0112	13
164.2430	4
164.4127	5
165.0074	212
165.3462	2
165.5078	1
165.6414	2
166.0188	75
166.4785	2
166.6252	2
167.0235	123
167.2936	2
167.4329	1
168.0359	72
168.2877	3
168.5348	4
168.6357	2
169.0463	141
169.3382	5
169.4612	2
169.5505	2
170.0541	52
170.3902	1
170.6364	1
171.0517	83
171.4165	3
171.6642	4
172.0401	24
172.3091	2
172.4848	3
172.5658	1
173.0451	100
173.3314	2
173.4242	1
173.5753	2
174.0418	13
174.3126	2
174.4350	1
174.5463	1
175.0318	35
175.2766	2
175.5800	3
176.0176	35
176.2110	2
176.3700	1
176.4691	2
176.6406	2
177.0179	65
177.3981	4
177.5435	2
178.0279	128
178.4270	2
178.5573	2
179.0276	167
179.2697	2
179.5436	0
180.0315	73
180.2730	4
180.4422	3
180.5692	2
181.0388	192
181.3220	1
181.4360	1
181.5907	1
182.0440	65
182.4829	1
182.6675	5
183.0486	140
183.5473	1
183.7023	2
184.0303	24
184.3521	1
184.6165	3
185.0403	65
185.3963	2
185.6020	2
185.6748	1
186.0233	25
186.2651	1
186.3636	2
186.5264	1
187.0173	53
187.4355	1
187.6373	1
187.9911	12
188.1361	5
188.3409	4
188.4984	2
189.0058	85
189.4495	4
190.0017	36
190.5409	7
191.0184	113
191.5253	4
192.0204	70
192.3091	2
192.5109	3
193.0259	144
193.3314	2
193.5765	3
194.0319	75
194.4031	3
194.5181	2
195.0378	148
195.3459	2
195.4560	2
195.6449	2
196.0471	42
196.2835	3
196.4962	1
197.0222	97
197.4618	4
197.6481	5
198.0320	39
198.5116	2
199.0431	98
199.4950	6
200.0072	27
200.3042	3
200.5552	4
201.0068	37
201.4607	3
201.9895	91
202.3890	4
203.0147	97
203.3662	1
203.5720	3
204.0314	31
204.3767	2
204.6437	3
205.0297	86
205.2904	2
205.4573	2
205.6017	2
206.0412	50
206.3231	2
206.5573	3
207.0392	102
207.4595	2
208.0265	43
208.3606	2
208.6098	3
209.0501	147
209.5726	4
209.6738	5
209.7602	2
210.0721	36
210.4424	2
210.6202	3
211.0616	93
211.5580	3
212.0502	26
212.2620	4
212.6425	4
213.0372	49
213.3785	2
213.5763	1
214.0212	19
214.2852	3
214.4274	4
215.0126	94
215.3423	1
215.4515	2
215.5959	5
216.0229	38
216.2836	2
216.5247	3
217.0393	76
217.3855	2
217.5900	1
218.0251	41
218.3941	3
218.5062	2
218.6474	2
219.0460	87
219.4158	3
219.5224	2
220.0709	43
220.4459	2
220.6231	3
221.0730	79
221.3033	6
221.4679	3
221.6650	2
222.0699	29
222.3787	2
222.5328	2
223.0707	76
223.4511	2
224.0784	30
224.3479	3
224.4930	3
224.5991	1
225.0738	59
225.4192	2
225.5437	5
226.0661	46
226.3068	3
226.3925	1
226.5525	3
227.0581	45
227.5717	4
228.0577	41
228.4396	1
228.5374	1
229.0768	65
229.3950	3
229.5673	4
230.0552	36
230.5147	5
230.6991	4
231.0872	88
231.3575	3
231.4426	1
231.5824	3
232.1083	32
232.3950	4
232.5732	3
232.7826	6
233.1049	80
233.4110	4
234.1013	36
234.3706	3
234.5115	3
234.7169	2
235.1031	57
235.4864	3
236.0796	25
236.4631	1
236.6247	2
236.7729	4
237.1033	55
237.6366	1
238.0891	25
238.2955	6
238.3991	2
238.4970	1
238.6502	1
239.0845	69
239.3840	3
239.5635	6
240.0611	17
240.3437	2
241.0679	44
241.5033	1
241.6248	2
242.0936	36
242.3657	1
243.0813	67
243.3919	1
244.0722	26
244.5380	1
245.0749	69
245.4732	2
246.0800	33
246.6251	3
247.0998	64
247.5945	8
248.0815	20
248.4902	2
248.6811	6
249.1084	50
249.5444	2
249.7723	2
250.1058	27
250.3858	4
250.6174	4
251.0857	43
251.6295	3
252.0780	35
252.3219	4
252.6064	3
252.7768	3
253.0942	47
253.4602	5
253.6064	1
254.0787	17
254.2635	3
254.3812	2
254.4890	1
254.6224	2
255.0706	47
255.3990	1
255.7231	4
256.0922	16
256.5320	3
257.0826	48
257.4212	4
258.1042	22
258.3871	1
258.4850	1
259.1082	56
259.5134	3
260.0910	25
260.4306	4
260.5715	3
260.6673	2
261.1170	55
261.4861	2
261.7020	4
262.1040	24
262.3329	4
262.4659	3
262.6305	2
262.7779	2
263.0948	32
263.4519	2
264.1088	9
264.5905	4
265.0659	27
266.0734	19
266.4551	2
266.5647	1
267.1063	34
267.4129	2
268.0678	20
268.4075	1
268.6154	5
268.7795	3
269.0956	46
269.3730	1
269.6189	5
270.0965	17
270.5102	0
271.1184	54
271.5574	3
272.1098	16
272.4355	1
272.6099	3
272.7757	5
273.1015	41
273.6276	3
273.7108	1
274.1179	15
274.5680	3
275.1331	56
275.4182	2
276.1171	20
276.6451	29
277.1379	50
277.4656	3
277.5741	3
277.7228	2
278.1066	11
278.3107	4
278.5127	2
279.1144	27
279.4223	3
279.5895	2
279.7767	2
280.1297	14
280.4260	1
281.1042	39
281.6044	3
281.8090	3
282.1205	14
282.3804	2
282.8011	5
283.1516	40
283.4754	2
283.6363	2
283.7526	1
284.1254	20
284.4924	2
284.7345	3
285.1253	36
285.4214	1
285.6010	1
286.1097	16
286.4102	1
287.1318	36
287.4021	4
287.5135	2
287.6832	3
288.1067	14
288.5021	2
288.6380	3
289.1242	38
289.4838	2
289.6715	4
290.0636	21
290.1924	14
290.4693	3
290.6377	2
291.1262	28
291.4832	2
292.0791	14
292.4908	2
292.5721	2
292.7845	3
293.1185	22
293.3928	5
294.0811	11
294.6241	2
295.1132	27
295.4150	2
295.7716	2
296.1280	16
296.3000	5
296.3835	3
296.5605	3
297.1407	31
297.4222	2
297.6958	3
298.1926	13
298.3841	4
298.6405	5
299.1288	37
299.4572	3
299.6653	0
299.8296	4
300.1422	11
300.4686	1
301.1206	31
301.4644	4
301.6697	5
301.7713	2
302.1295	43
302.4769	2
303.1055	49
303.5034	2
303.7846	1
304.1358	14
304.2656	5
304.4307	1
304.6117	2
304.7848	2
305.0891	14
305.6532	2
306.0802	17
306.5289	2
307.1198	22
307.4438	1
307.5716	2
307.9122	3
308.1597	11
308.5725	2
308.7617	2
309.1125	26
309.4691	2
309.7507	3
309.8799	6
310.1449	13
310.3730	3
310.4944	2
311.1313	28
311.3061	10
311.5567	2
311.7127	2
312.1035	14
312.5976	1
312.7796	2
313.1380	28
313.7912	3
314.1062	16
314.3144	2
314.5594	2
315.1079	49
315.3812	2
315.6349	2
316.0274	10
316.1887	5
316.5726	2
317.1388	25
317.4692	3
317.6348	1
318.1028	13
318.2619	8
318.4557	2
318.6026	1
319.1277	19
319.4924	2
320.1493	9
320.3302	7
320.6045	1
320.7456	1
321.1443	20
321.6821	1
322.1309	10
322.3306	2
322.6499	1
323.0937	21
323.3905	2
323.7337	2
324.1226	11
324.4637	3
324.7946	4
325.1387	26
325.6392	1
326.1158	25
326.4259	2
326.6020	1
326.7353	2
327.1432	33
327.4070	4
328.1207	70
328.5773	2
329.0666	17
329.2326	9
329.3848	1
329.4653	1
329.5878	1
329.7538	3
330.0467	5
330.2402	3
330.5520	2
330.7028	2
330.8254	3
331.1408	12
331.4519	2
331.6941	3
331.9081	2
332.0661	3
332.2482	1
332.6696	1
333.1266	15
333.3754	2
333.5495	4
333.7621	2
334.0929	6
334.2583	5
334.5225	1
334.6647	0
335.1559	16
335.5340	2
335.8512	3
336.1023	11
336.4594	1
336.7556	1
336.8615	1
337.1839	21
337.5258	1
338.0202	14
338.2635	7
338.6084	1
339.1501	42
339.4980	3
339.6142	1
339.8059	2
340.1531	26
340.4233	4
340.6709	3
340.7898	2
341.1255	36
341.2647	20
341.4359	3
341.6360	2
341.7462	1
342.1676	16
342.5084	2
342.7289	2
343.1380	13
343.3745	6
343.7989	2
344.1427	5
344.3887	1
344.7108	1
345.1295	10
345.3283	4
345.5648	1
345.9509	2
346.1803	2
346.4365	1
346.9692	3
347.1492	8
347.2668	8
347.4178	2
347.6776	1
348.0370	3
348.1967	5
348.5800	1
348.7390	1
348.8429	1
349.2030	8
349.5610	2
349.7142	1
349.8602	2
350.1572	8
350.4005	3
350.6307	2
350.8268	1
351.1319	17
351.2576	8
351.5750	1
352.1402	26
352.3799	3
352.6538	4
353.1261	26
353.5671	2
354.1492	29
354.4937	2
354.7204	2
355.1187	13
355.8783	2
356.1559	6
356.3457	2
356.5551	1
356.7157	2
357.1214	9
357.3562	2
357.6616	0
357.8165	4
358.1655	6
358.3037	2
358.5081	2
358.7866	3
358.8979	2
359.1415	11
359.2659	3
359.3837	4
359.6106	3
359.7299	2
359.8695	2
360.1983	4
360.9571	4
361.1979	13
361.3856	1
361.5755	2
361.8527	4
362.0113	2
362.1844	5
362.3860	2
362.4733	1
362.8386	2
363.1763	12
363.4354	2
363.6697	2
363.8640	3
364.1807	8
364.3044	2
364.5213	1
364.6785	1
364.7979	1
365.1728	16
365.4276	2
365.7407	2
366.1272	11
366.3879	4
366.5757	2
366.7672	1
367.1663	15
367.3039	9
367.5916	1
367.7503	2
368.0911	6
368.1982	2
368.3679	4
368.4473	1
368.6488	2
368.8743	6
369.1943	21
369.5194	2
369.7427	3
369.9609	2
370.2126	6
370.6142	2
370.7742	0
371.1787	6
371.5658	1
371.8110	2
371.9580	2
372.2432	4
372.4928	2
372.8203	1
372.9308	1
373.2227	6
373.4701	1
373.8507	2
374.2088	2
374.6208	0
375.0081	3
375.2032	5
375.5875	2
375.6865	1
376.0236	4
376.1219	2
376.2974	3
376.7568	2
377.0415	5
377.2592	14
377.4391	3
377.5680	1
377.8243	0
378.0515	8
378.2678	13
378.7674	3
379.1818	13
379.3967	4
379.5045	2
379.9095	2
380.1768	9
380.5695	4
381.1654	12
381.7621	1
381.9283	3
382.2693	7
382.4500	4
382.6504	2
382.8304	2
383.2180	18
383.5724	1
383.7086	2
383.9975	4
384.1933	18
384.3185	10
384.6147	1
384.6956	1
384.8601	1
385.2080	12
385.3551	5
385.5436	2
385.8465	2
385.9877	3
386.2797	5
387.0704	4
387.2736	6
387.7302	2
387.9909	0
388.2851	4
388.5298	2
388.8961	2
389.1504	9
389.2858	7
389.4570	1
390.2065	2
390.4062	1
390.8673	1
391.1886	8
391.3401	7
391.5361	2
391.7532	0
392.0818	4
392.3660	2
392.6210	1
393.2120	14
393.8249	3
393.9182	2
394.1492	7
394.3118	2
394.4583	3
395.0559	10
395.1755	11
395.2746	6
395.3949	6
395.5443	2
395.7280	2
396.1866	6
396.5226	2
396.6466	2
396.8755	3
397.1314	9
397.3378	5
397.5587	1
397.9750	4
398.2660	10
398.4920	2
398.7845	1
399.1761	11
399.3365	9
399.4977	2
399.6764	1
399.8536	2
400.0936	2
400.2467	6
400.3817	2
400.4948	0
400.7311	1
400.9317	1
401.1053	7
401.2125	4
401.3898	3
402.0346	3
402.2666	4
402.4126	3
402.7635	0
402.8955	2
403.1903	5
403.4172	2
403.5486	2
403.6682	2
404.2075	3
404.3140	2
404.4899	2
405.2175	10
405.4284	4
405.7101	1
406.1926	23
406.4583	2
407.1999	17
407.4430	4
407.7679	1
408.0387	2
408.2191	5
408.4680	3
408.6308	2
409.1996	19
409.4354	3
409.6085	1
409.9042	3
410.1379	7
410.3906	4
410.8535	3
411.2589	16
411.5174	3
411.8490	1
412.1339	2
412.3099	2
412.4187	1
412.5429	1
412.7810	2
413.1075	4
413.3420	4
413.4852	2
413.6540	1
414.0441	3
414.1712	2
414.3633	4
414.6022	2
414.8287	1
415.1597	8
415.3234	5
415.5725	1
416.1964	4
416.4458	2
416.6894	1
416.8396	1
417.1707	25
417.3655	8
417.8148	4
418.1787	3
418.3654	6
418.4479	2
418.5485	2
418.7615	2
418.9665	1
419.1416	4
419.3217	5
419.4122	2
419.6486	2
420.0681	3
420.3263	4
420.4766	2
420.7619	0
420.8874	1
421.2376	5
421.4536	2
422.1402	4
422.2723	3
422.3993	4
422.4861	2
422.5803	2
422.8152	1
423.0677	8
423.2779	8
423.4064	3
423.6669	2
424.1946	8
424.3932	5
424.6041	1
425.2202	19
425.4348	9
425.7063	1
426.0305	6
426.2932	15
426.5327	3
426.9233	4
427.2270	8
427.3504	4
427.5578	1
427.9491	1
428.0981	2
428.4077	1
428.7188	1
428.8575	1
429.2139	10
429.4154	5
429.5345	1
429.8207	2
430.1947	7
430.3553	7
430.7023	2
431.1931	20
431.4385	5
431.8863	1
432.1237	5
432.3311	4
432.4436	2
432.7468	1
433.1179	4
433.3678	6
433.5363	4
433.7006	1
433.8356	2
434.0757	2
434.4224	0
434.5975	1
434.7019	1
435.1938	9
435.3807	5
436.0340	2
436.3442	6
436.5720	1
436.7173	1
436.8749	3
437.1903	4
437.3057	8
437.4152	3
437.5386	2
437.6488	1
437.8343	2
437.9803	3
438.2716	13
438.5534	1
438.7287	1
439.2559	12
439.4932	2
439.9605	3
440.0993	5
440.2877	6
440.8281	1
441.1706	6
441.4759	2
441.5701	2
441.7432	2
442.0821	4
442.3304	6
442.5298	1
442.6292	1
442.8162	2
443.1332	5
443.3969	3
443.7154	2
444.0120	6
444.2450	9
444.4006	2
445.1678	5
445.3446	2
445.4556	3
445.7121	2
446.2805	3
446.5056	1
447.1399	5
447.3328	4
447.4453	2
447.8392	1
448.0702	3
448.2770	5
449.2549	6
450.1298	4
450.4185	3
450.6203	3
450.7745	2
451.1714	8
451.4982	4
451.9252	3
452.1862	5
452.4347	2
452.7001	1
453.0847	7
453.3552	5
454.0996	2
454.3204	2
454.5252	2
454.7862	2
454.8813	1
455.1899	5
455.3011	2
455.4195	2
455.7457	2
456.1911	4
456.3176	3
456.4968	1
456.6379	0
456.8047	2
457.2457	9
457.4469	4
457.6707	1
458.2091	6
458.3861	3
458.9340	6
459.1761	22
459.3466	10
459.5134	2
459.6312	2
460.0453	3
460.1638	4
460.3452	7
461.0564	5
461.2466	4
461.4091	3
461.5071	1
461.6629	1
461.9103	2
462.0778	3
462.2469	4
462.5915	2
463.0182	5
463.3116	4
463.4711	1
463.7214	3
463.8136	2
464.0859	3
464.2015	1
464.3501	3
464.4416	3
464.7036	1
464.9759	1
465.1061	6
465.2635	7
465.5109	4
465.9501	3
466.0467	2
466.1726	4
466.3322	1
466.4896	1
466.7436	0
467.0240	4
467.2794	7
468.0452	2
468.2714	10
468.4340	5
468.7239	1
468.9348	3
469.2261	11
469.4911	3
469.7417	4
470.2174	10
470.4937	1
470.7809	1
471.1492	4
471.3611	3
471.7178	2
472.0284	1
472.1921	5
472.4099	4
472.6767	1
472.8572	2
473.1036	2
473.2878	4
473.4106	2
473.5780	1
473.7943	1
473.9881	3
474.2388	2
474.3967	1
474.9991	1
475.3047	5
475.4523	3
475.6168	3
475.8559	4
476.0899	2
476.3077	4
476.3860	1
476.7062	0
476.9914	1
477.2414	7
477.4016	5
477.7774	2
478.2081	4
478.4246	2
478.7719	1
479.2480	7
479.6093	3
479.8148	2
479.9303	1
480.0298	1
480.1914	4
480.3699	3
480.5966	4
481.1824	7
481.3843	4
481.5372	2
482.0119	2
482.2994	2
482.5437	2
482.6681	3
482.7910	1
482.9863	3
483.2416	8
483.6066	1
483.7968	1
484.1494	6
484.5050	4
484.8701	2
485.2769	11
485.7371	1
486.1673	15
486.3824	6
486.4805	4
486.7110	3
486.8361	2
487.2217	3
487.4069	3
487.4757	1
488.0509	3
488.2594	2
488.4248	1
488.6239	2
488.7446	2
488.8947	3
489.0579	3
489.1472	2
489.2752	4
489.4216	2
489.5402	1
489.6756	2
489.7546	1
490.1630	3
490.3167	2
490.5253	1
490.6293	1
491.0026	1
491.2068	3
491.5223	5
491.7170	2
492.1723	5
492.3875	4
492.5779	1
492.7118	2
493.2880	7
493.5215	3
493.8297	2
493.9981	2
494.3144	7
494.5568	1
494.7896	2
495.2436	14
495.4266	5
495.6338	1
496.3126	7
496.9197	2
497.1181	2
497.4748	4
497.7010	3
497.9726	4
498.2263	6
498.6233	1
498.8617	1
499.2602	3
499.4810	7
499.9871	2
500.1451	4
500.3286	4
500.5019	1
500.6745	2
500.8208	2
501.1638	6
501.5112	2
501.7920	7
502.0765	4
502.2375	3
502.6031	3
502.7180	2
502.9550	2
503.2190	1
503.3543	2
503.5270	2
503.8349	2
503.9900	3
504.3126	7
504.6506	5
504.8978	2
505.1049	3
505.3104	4
505.4743	3
505.7742	3
506.0639	3
506.2044	2
506.4159	3
506.6039	1
506.7085	1
507.3348	8
507.6684	2
507.9626	3
508.3226	7
509.2950	31
509.7144	4
510.1893	5
510.3401	5
510.5120	3
510.6386	1
510.8267	3
510.9255	1
511.3690	12
511.7020	5
511.8586	2
512.3015	5
512.4852	4
512.6059	2
512.7743	1
512.8994	2
513.1476	9
513.3269	5
513.5253	6
513.6439	2
513.8012	2
513.8890	1
514.0340	3
514.2646	2
514.4520	5
514.6650	2
515.1159	1
515.3670	4
515.5640	3
515.7762	8
515.9329	5
516.2894	12
516.7067	12
517.2954	29
517.5502	16
517.7515	7
518.1931	5
518.7019	8
519.1603	9
519.3815	6
519.5638	7
519.6553	4
519.9673	5
520.2529	9
520.4506	14
520.5890	5
521.0203	8
522.2726	19
523.1303	21
523.4702	15
523.7610	11
523.9214	7
524.4062	11
524.5513	8
524.8589	9
524.9703	6
525.1481	9
525.3499	7
525.5428	7
525.7241	6
525.9456	6
526.3373	11
526.5837	6
526.8797	7
527.1422	2
527.3300	8
527.5303	7
527.7708	3
527.9112	4
528.2057	11
528.3140	7
528.4785	4
528.6700	5
528.7687	2
528.9280	1
529.1276	2
529.2329	2
529.5239	7
529.7900	2
530.0306	5
530.3742	3
530.6125	6
530.7639	1
531.0198	2
531.1441	2
531.3503	2
531.5587	5
531.7429	4
532.1202	12
532.4442	6
532.6782	5
532.7703	2
532.9729	7
533.2325	10
533.5864	7
533.8263	4
534.0076	7
534.2073	10
534.3923	12
534.6139	10
534.9898	10
535.1873	5
535.3804	14
535.5237	6
535.6473	9
536.3114	17
537.3223	94
538.3127	19
538.8957	10
539.2629	13
540.1752	14
540.7063	7
540.9528	15
541.2762	13
541.4811	7
541.8491	8
542.2296	12
542.7402	11
542.9795	2
543.2268	6
543.5363	3
543.6900	4
543.8781	5
544.0873	7
544.4920	3
544.6472	3
544.8718	4
545.0108	3
545.3394	2
545.6087	2
546.0698	2
546.5601	3
546.8463	2
547.1558	2
547.3088	1
547.5261	1
547.7010	1
547.9133	1
548.4981	2
548.7535	1
548.9658	0
549.1115	3
549.4203	2
549.6758	2
549.9283	3
550.1267	5
550.3441	7
550.5564	2
550.7314	4
551.3119	51
552.3339	258
552.7460	12
553.3266	76
553.8347	5
554.1934	9
554.3992	8
554.5280	7
554.6708	4
555.1196	4
555.5121	7
555.8431	2
556.0811	2
556.3644	3
556.7298	2
557.1018	2
557.2769	1
557.3911	3
557.5214	2
557.7550	2
557.9081	2
558.0963	2
558.2230	1
558.4398	2
558.7144	1
558.9436	0
559.2205	2
559.3456	1
559.5134	2
559.7719	3
559.9265	1
560.1469	1
560.4501	2
561.0324	4
561.1371	1
561.2477	2
561.4396	2
561.9011	2
562.0498	2
562.6812	4
563.0482	2
563.2335	2
563.4188	2
563.5016	1
563.7866	2
564.0173	2
564.3763	1
564.6268	1
565.1037	4
565.3513	2
565.4568	1
565.9719	2
566.2546	4
566.5060	2
566.7228	3
566.8181	3
567.3331	13
567.8761	7
568.3597	21
568.6747	7
568.8447	2
568.9503	4
569.3350	50
569.6412	10
570.3450	19
570.9738	1
571.1193	2
571.2802	3
571.3957	1
571.5901	2
571.8439	1
572.2673	2
572.3799	1
572.8830	1
572.9897	3
573.3290	2
573.6267	1
573.7678	2
574.0077	1
574.1313	1
574.4545	1
574.8436	1
575.1464	0
575.3058	2
575.4667	4
575.7037	2
576.2090	1
576.3729	2
576.5609	2
576.8278	1
577.0970	1
577.2952	2
577.4539	2
577.6375	5
577.8306	2
578.0032	2
578.4692	2
578.6352	3
578.7281	1
578.9051	2
579.3608	7
579.6381	4
579.8678	5
580.1479	2
580.3016	2
580.6666	1
580.9819	3
581.1436	2
581.3564	2
581.5847	3
581.7128	2
581.8276	1
582.0215	3
582.1971	4
582.3544	2
582.6082	4
582.7802	2
582.9638	1
583.1401	9
583.4269	14
583.6420	5
583.8908	1
584.4703	21
584.7659	11
585.0820	6
585.2832	5
585.4398	4
585.5496	2
585.6688	0
586.1525	4
586.6910	2
587.0547	3
587.2823	2
587.4843	4
587.6080	4
587.9790	4
588.2886	6
588.5081	5
588.7730	7
589.2575	6
589.6820	8
589.8964	4
590.0494	2
590.4051	7
590.6188	9
591.1802	7
591.5461	10
591.8865	8
592.2379	13
592.6726	13
592.9296	5
593.2245	19
593.5912	13
594.4368	87
594.7557	29
595.0366	14
595.3912	21
596.5619	16
596.7410	17
597.3970	198
598.2197	15
598.4485	14
598.6621	12
599.0007	10
599.3115	8
599.6772	8
599.9310	5
600.4671	11
600.6967	8
600.8467	7
601.0756	11
601.2841	8
601.6329	12
601.8538	14
602.0462	9
602.3015	9
602.4872	8
602.9510	15
603.4572	14
604.1411	13
604.6451	17
606.1835	22
612.3654	999
613.1784	461
614.0969	199
614.9158	102
615.6542	52
616.4505	29
617.3441	18
617.8945	10
618.2678	9
618.5713	9
618.7701	10
619.0633	8
619.4142	7
619.6409	3
619.9289	4
620.1190	3
620.3018	4
620.3792	2
620.5942	2
620.7119	2
620.9349	3
621.0584	2
621.1776	1
621.3414	3
621.5139	2
621.6594	3
622.1932	1
622.3752	1
622.5427	1
