Mass spectrum: Lutein; FAB-EBEB; MS2; m/z: 568.43; [M]+*
Name: Lutein
Name: Xanthophyll
Formula: C40H56O2
Exact mass: 568.42803
SMILES: C(C=C(C=CC=C(C)C=CC(=C(C)2)C(C)(C)CC(C2)O)C)=CC=C(C)C=CC=C(C)C=CC(C1(C)C)C(C)=CC(O)C1
InChI: InChI=1S/C40H56O2/c1-29(17-13-19-31(3)21-23-37-33(5)25-35(41)27-39(37,7)8)15-11-12-16-30(2)18-14-20-32(4)22-24-38-34(6)26-36(42)28-40(38,9)10/h11-25,35-37,41-42H,26-28H2,1-10H3/b12-11+,17-13+,18-14+,23-21+,24-22+,29-15+,30-16+,31-19+,32-20+/t35-,36+,37-/m0/s1
Instrument: JMS-HX/HX 110A, JEOL
Instrument type: FAB-EBEB
Ms type: MS2
Ion mode: POSITIVE
Collision energy: 3 kV
Ionization: FAB
Base peak: 105.0856
Precursor m/z: 568.43
Precursor type: [M]+*
m/z	relative intensity
1.0070	0
1.2708	0
2.5603	0
3.3550	0
4.0143	0
4.6412	0
12.9897	0
13.1997	0
14.0078	1
15.0252	3
16.0357	0
19.0211	0
22.9843	0
23.4117	0
24.0041	0
25.0127	1
26.0110	6
27.0201	47
28.0333	4
29.0314	54
30.0129	0
31.0145	7
35.9931	0
36.2598	0
37.0024	5
37.2595	0
38.0129	15
38.4119	0
39.0252	122
40.0275	15
41.0384	238
42.0269	5
43.0323	172
44.0249	2
45.0321	6
45.3744	0
48.0380	0
48.2513	0
49.0005	3
49.2977	0
50.0129	35
50.4205	0
51.0202	81
52.0278	28
53.0365	151
54.0462	6
55.0499	340
56.0554	6
57.0624	110
58.0871	1
59.0506	44
60.0581	0
60.5022	0
61.0057	5
62.0257	19
63.0286	63
64.0346	14
65.0411	122
66.0445	25
67.0529	187
68.0544	8
69.0585	232
70.0455	3
71.0446	85
71.6756	0
72.0336	1
73.0394	2
74.0192	16
75.0364	24
76.0323	18
77.0399	381
78.0456	73
79.0518	362
80.0610	60
81.0655	423
82.0427	34
82.5367	1
83.0666	109
83.6780	0
84.0592	6
85.0658	108
85.5320	1
86.0255	6
87.0371	13
88.0653	6
89.0564	45
90.0575	15
91.0674	820
92.0720	84
93.0839	535
94.0797	34
95.0797	462
96.0713	16
97.0781	75
97.5894	1
98.0543	5
99.0638	5
100.0426	2
101.1071	14
102.0636	42
103.0717	145
104.0764	64
105.0856	999
106.0900	99
107.0978	431
108.0798	43
109.1019	263
110.0819	15
110.4275	1
111.0927	47
112.0679	2
113.0606	12
114.0629	16
115.0627	442
116.0626	158
117.0655	449
118.0711	79
119.0823	937
120.0828	103
121.0873	420
122.0771	30
122.4208	2
123.0750	394
124.0524	7
125.0638	20
126.0507	23
127.0537	160
128.0540	500
129.0555	589
130.0596	229
131.0636	624
132.0729	132
133.0779	513
134.0786	52
135.0736	221
136.0565	14
137.0722	94
138.0766	61
139.0586	83
140.0624	23
141.0534	425
142.0635	384
143.0690	698
144.0756	227
145.0845	824
146.0778	78
147.0916	274
148.0742	28
149.1025	99
150.0688	20
151.0892	69
152.0755	164
153.0739	228
154.0858	118
155.0888	455
156.0997	291
157.1072	637
158.1114	133
159.1192	361
160.1195	51
161.1191	138
162.0885	11
163.1207	54
164.1128	27
165.0972	359
166.1064	127
167.1164	308
168.1242	122
169.1282	413
170.1314	158
171.1369	312
172.1359	68
173.1456	190
174.1376	19
175.1515	119
176.1122	37
177.1218	54
178.0965	193
179.1017	305
180.1133	135
181.1142	341
182.1199	141
183.1192	363
184.1234	75
185.1310	165
186.1279	30
187.1367	80
188.0932	14
189.0990	98
190.0910	43
191.1008	167
192.1083	122
193.1035	259
194.1063	126
195.1184	347
196.1224	97
197.1255	294
198.1263	41
199.1377	103
200.1251	22
201.1346	62
202.0913	83
203.1033	110
204.1101	45
205.1058	123
206.1135	97
207.1174	210
208.1233	83
209.1296	245
210.1393	46
211.1524	119
212.1529	21
213.1539	52
214.1495	15
215.1252	95
216.1261	48
217.1390	106
218.1436	46
219.1560	116
220.1572	61
221.1646	149
222.1695	48
223.1763	125
224.1864	33
225.1941	63
226.1729	26
227.1711	34
228.1581	32
229.1602	70
230.1748	32
231.1637	80
232.1689	41
233.1789	102
234.1835	32
235.1957	92
236.1908	21
237.2008	65
238.1981	15
239.1767	46
240.1834	14
241.1744	38
242.1658	22
243.1736	55
244.1817	26
245.1843	62
246.1932	30
247.1965	71
248.2001	21
249.2056	54
250.1864	16
251.2336	32
252.1989	21
253.2041	32
254.1921	17
255.1944	44
256.2000	16
257.2074	48
258.2018	20
259.2127	51
260.2239	18
261.2178	53
262.2060	13
263.2343	43
264.2335	11
265.2255	29
266.2002	11
267.2090	26
268.2063	11
269.2290	36
270.2210	17
271.2383	31
272.2175	14
273.2497	29
274.2734	11
275.2531	35
276.2494	11
277.2370	21
278.2662	10
279.2469	19
280.2456	8
281.2298	20
282.2497	11
283.2698	37
284.2680	12
285.2680	26
285.7044	1
286.2474	8
287.2701	18
288.2781	7
289.2775	22
290.2415	6
290.6393	1
291.2886	11
292.2752	5
292.6821	1
293.2518	14
293.6587	1
294.2078	6
295.2514	17
296.2701	8
297.2578	21
298.2666	6
299.2503	14
300.2136	4
301.2644	13
302.2133	4
303.2557	11
304.2213	5
305.2463	11
306.2449	5
307.2392	11
308.2427	6
309.2612	9
310.2531	6
311.2527	9
312.3001	3
313.2480	11
314.2334	4
315.2679	11
316.2403	4
317.2633	8
318.2777	2
318.6927	2
319.2729	9
320.2668	5
321.2981	9
322.3027	4
323.2704	8
324.2397	4
325.2658	6
325.6530	0
326.2533	3
327.2768	8
327.7238	1
328.2766	3
329.2885	8
330.2782	4
331.3054	7
332.2492	4
332.7328	1
333.2969	13
334.3016	5
335.2975	13
335.9214	1
336.3116	6
337.3212	15
338.3251	11
339.2964	5
340.3900	2
341.2737	4
341.8698	1
342.2887	2
342.6032	1
343.2919	5
344.3072	3
344.7411	0
345.3286	7
346.3174	3
347.3197	11
348.3237	11
349.3145	14
350.3188	8
351.3441	6
352.3129	1
353.3057	3
354.3748	2
355.3142	4
355.7697	0
356.3104	2
357.3187	5
358.2928	2
359.3308	5
360.3733	5
361.3636	8
362.3585	9
363.3446	8
364.3413	4
365.2530	2
366.0542	1
367.3129	3
368.3026	1
369.3763	3
370.3813	2
371.3491	4
372.2466	2
373.3378	6
374.3404	4
375.3521	11
376.3579	7
377.3878	4
378.3073	1
378.5555	0
379.3823	2
379.6798	0
380.3064	1
381.3443	3
382.2193	1
383.3292	2
383.8558	1
384.3959	2
385.3356	3
385.8219	0
386.4145	2
387.3694	3
388.3438	3
388.9590	1
389.3482	2
390.3723	1
390.6718	0
391.3770	2
392.2066	1
392.6799	0
393.4092	2
393.8181	0
394.3244	1
394.8023	0
395.2936	1
395.6082	1
396.3783	2
396.7949	1
397.3897	4
397.7688	1
398.3802	3
398.7294	1
399.3964	5
400.4621	2
401.3990	6
402.3539	6
403.4125	7
404.3602	3
405.3882	2
405.7548	1
406.2889	1
407.2436	1
407.8840	0
408.6263	1
409.3777	2
409.8941	1
410.4210	2
411.3162	2
412.4166	3
413.3718	5
414.3796	8
415.3905	13
416.4134	9
417.4515	3
418.3518	1
419.3167	1
419.7496	0
420.4284	4
420.8929	1
421.4769	1
422.4454	1
423.3975	3
424.4604	1
425.4591	1
426.2977	1
428.4018	42
429.4143	27
430.4195	118
431.3603	4
432.3791	2
433.2856	1
434.0139	1
434.5564	1
435.1573	1
435.6624	1
436.3698	1
437.5990	2
441.3951	7
441.8465	3
443.4032	10
444.4951	3
445.4836	1
445.8031	1
446.3356	2
446.7617	1
447.3213	1
447.8539	1
448.2560	1
448.5966	0
449.3844	2
450.0746	0
450.7409	1
451.3097	1
452.4398	2
452.7010	1
453.5416	2
454.3522	3
457.9569	9
459.9782	4
461.4359	3
461.9668	1
462.4572	3
462.8952	1
463.4127	2
463.9407	0
464.4522	0
465.4483	1
466.3755	1
467.4003	5
468.4641	6
469.0253	2
469.5146	2
470.4165	2
470.7512	1
471.4806	2
471.9579	2
472.4502	2
476.4735	225
477.3894	3
478.4586	2
478.8370	1
479.4692	2
480.4094	1
481.4247	2
482.4295	3
483.3758	4
484.4677	22
485.1367	1
485.6362	1
486.6667	1
487.4903	6
488.4309	4
489.5022	12
490.2404	0
490.6230	0
491.2487	0
491.6104	0
491.7935	0
492.3232	1
492.6068	0
493.4113	2
494.5009	3
496.1189	3
497.4234	3
498.4803	3
498.9772	2
499.4622	1
500.1288	2
500.9726	2
501.8075	2
502.5809	2
503.3062	2
503.8018	2
504.7915	1
505.6371	1
506.2274	1
506.6720	1
507.1947	1
508.3950	1
509.4976	1
510.5063	3
511.4714	9
512.5009	31
513.2892	1
513.7179	1
515.0114	1
515.4401	0
515.8358	1
516.3694	0
517.0635	1
517.4818	1
518.1624	0
518.5042	0
518.8385	0
519.4307	1
520.5732	1
520.8760	0
521.5658	0
522.4370	2
523.4252	2
524.4885	5
525.1829	1
525.5368	2
526.2372	1
526.9767	0
527.4372	1
528.5367	1
529.4938	1
530.0938	1
531.2355	1
531.9166	2
532.5768	3
533.0089	1
533.7126	1
534.5544	4
535.4923	11
536.5248	4
536.9554	1
537.4852	2
538.4833	5
539.0461	1
539.5009	1
540.3805	1
549.5344	21
550.5676	158
551.5333	36
552.5381	37
553.5512	68
568.4209	999
571.6417	78
572.9220	25
