Mass spectrum: Amarouciaxanthin A; FAB-EBEB; MS2; m/z: 614.40; [M]*+
Name: Amarouciaxanthin A
Class: Natural Product; Carotenoid
Formula: C40H54O5
Exact mass: 614.39712
SMILES: CC1=CC(=O)CC([C@]1(CC(=O)/C(=C/C=C/C(=C/C=C/C=C(\C)/C=C/C=C(\C)/C=C=C2[C@](C[C@H](CC2(C)C)O)(C)O)/C)/C)O)(C)C
InChI: InChI=1S/C40H54O5/c1-28(17-13-18-30(3)21-22-36-37(6,7)24-34(42)26-39(36,10)44)15-11-12-16-29(2)19-14-20-31(4)35(43)27-40(45)32(5)23-33(41)25-38(40,8)9/h11-21,23,34,42,44-45H,24-27H2,1-10H3/b12-11+,17-13+,19-14+,28-15+,29-16+,30-18+,31-20+/t22?,34-,39+,40+/m0/s1
Instrument: JMS-HX/HX 110A, JEOL
Instrument type: FAB-EBEB
Ms type: MS2
Ion mode: POSITIVE
Collision energy: 3 kV
Ionization: FAB
Base peak: 614.4901
Precursor m/z: 614.40
Precursor type: [M]+*
m/z	relative intensity
0.0808	0
0.2720	0
0.4995	0
0.8476	0
2.2434	0
2.7667	0
3.9235	0
5.4406	0
5.8196	0
8.4173	0
10.3575	0
11.4221	0
12.3127	0
12.9717	2
14.3468	0
14.9806	5
16.8433	0
18.6669	0
20.4316	0
22.9357	2
24.9733	0
25.9626	3
26.9670	24
27.9743	3
28.9804	15
30.9576	2
33.1007	0
35.9317	0
36.4598	0
36.9379	1
37.2001	0
37.9642	6
38.3794	1
38.7697	0
38.9688	53
39.4676	0
39.9793	11
40.4640	1
40.5787	0
40.9861	92
41.9762	5
42.9645	368
43.3688	1
43.5525	0
43.9510	0
44.9764	4
47.8607	0
48.9537	2
49.3639	0
49.9495	8
50.9727	30
51.9802	11
52.9801	41
53.8586	0
53.9944	3
54.9919	111
55.2058	0
55.6555	0
55.9981	5
57.0056	19
57.9813	3
59.0044	14
60.9726	4
61.9584	4
62.0973	0
62.2098	1
62.9693	14
63.9829	3
64.1740	0
64.9821	42
65.1877	0
65.6216	1
65.9888	12
66.4734	1
66.9922	59
67.2385	0
67.9766	8
68.6497	0
68.9895	155
69.1850	0
69.3361	0
69.9912	4
70.1974	1
70.6829	0
70.9914	24
71.3535	0
71.9345	0
72.0345	1
72.8654	1
72.9939	2
73.1095	0
73.9512	4
74.9653	10
75.1544	1
75.2898	1
75.4648	1
75.9669	8
76.5891	1
76.9723	114
77.2941	1
77.3756	1
77.4614	1
77.7127	0
77.9839	25
78.2500	1
78.5815	0
78.7398	1
78.9868	101
79.3651	0
79.9861	17
80.5302	0
81.0041	85
81.2629	1
81.9822	18
82.1470	1
82.9982	152
83.9819	3
84.9926	46
85.7865	1
85.9530	5
86.7629	0
86.9789	52
87.8081	0
87.9713	2
88.0915	1
88.3039	0
88.5022	0
88.6822	1
88.9711	21
89.2621	3
89.4486	1
89.5878	1
89.9932	7
90.2238	1
90.5336	0
90.9814	246
91.4693	1
91.9968	35
92.5541	2
92.7166	2
93.0040	144
93.2313	2
93.3482	1
93.5029	1
93.7977	1
93.9974	22
94.2689	0
94.4819	1
94.6221	0
95.0056	185
95.3962	1
95.5691	1
95.6933	1
95.9936	32
96.2286	0
97.0154	28
97.3054	0
97.9667	7
98.1192	1
98.5712	1
99.0074	6
99.9942	2
100.5735	1
100.9596	5
101.1958	1
101.3967	0
101.5382	1
101.9827	12
102.2763	2
102.5453	2
102.6726	1
102.9913	56
103.1764	1
103.2823	1
103.3413	0
103.4834	1
103.5804	2
103.6636	1
104.0000	24
104.4422	2
104.6177	1
105.0056	312
105.2869	2
105.4939	1
105.6397	1
106.0163	38
106.2644	2
106.4691	1
106.6389	1
107.0213	247
107.2340	2
107.3375	2
107.4679	1
108.0102	41
108.4717	1
108.5951	1
109.0119	172
109.3593	0
109.5001	0
109.6326	0
110.0104	17
110.1988	1
110.3847	0
110.7085	1
111.0081	194
111.4684	0
111.9947	5
112.1110	1
112.4081	1
112.5516	2
113.0022	14
113.1323	3
113.2450	1
113.3764	1
113.4917	2
113.6870	1
113.9649	7
114.1385	3
114.3049	1
114.5108	3
114.9725	151
115.4113	2
115.6589	1
115.9746	55
116.3170	1
116.5773	2
116.9861	142
117.2512	2
117.3258	1
117.4217	1
117.9914	31
118.3258	2
118.5823	1
118.9969	244
119.3767	1
119.7046	0
120.0125	34
120.2997	2
120.4358	0
120.5492	1
121.0009	152
121.3635	0
121.6396	1
121.7381	1
121.9895	26
122.2252	0
122.3441	1
122.5310	0
122.7323	1
122.9965	58
123.3399	1
123.4701	0
123.7260	0
123.9839	10
124.1706	1
124.3894	2
124.5526	0
125.0030	188
125.2633	1
125.3663	1
125.5055	0
125.6695	1
125.7503	1
125.9860	7
126.1285	1
126.3584	1
126.4806	1
126.6121	2
126.9526	64
127.4374	2
127.9593	185
128.1799	4
128.2998	3
128.5014	3
128.9654	205
129.2918	1
129.3736	0
129.5188	1
129.9768	81
130.3380	2
130.5249	1
130.9776	188
131.4048	1
131.5668	1
131.6886	1
131.9804	56
132.2664	1
132.4823	1
132.9877	168
133.4259	2
133.6222	0
133.9824	26
134.4430	0
134.5579	1
134.9816	231
135.2268	1
135.3398	0
135.4275	0
135.6436	1
135.9781	25
136.3952	1
136.9717	53
137.3920	1
137.9594	76
138.9639	103
139.5188	3
139.7208	1
139.9610	11
140.2922	2
140.3853	2
140.9544	160
141.2552	1
141.5072	1
141.6258	1
141.9711	128
142.3581	0
142.5319	3
142.9796	217
143.3052	3
143.4227	1
143.9797	86
144.2916	1
144.9923	246
145.2473	1
145.4944	1
145.9798	52
146.2688	1
146.4527	2
146.5982	1
146.9905	167
147.3115	1
147.4234	1
147.9841	37
148.3439	0
148.4836	2
149.0077	186
149.2455	1
149.3598	2
149.5598	1
149.6977	1
150.0087	12
150.3611	2
150.5194	2
150.9918	76
151.2646	1
151.3682	1
151.9663	64
152.2251	5
152.3648	2
152.5383	3
153.0028	447
153.5434	6
154.0036	121
154.6080	2
154.9986	168
155.3289	1
155.4329	1
156.0142	99
156.2054	3
156.2897	1
156.5088	2
157.0227	194
157.3263	0
157.4891	1
158.0259	53
158.2480	3
158.3905	1
158.5595	0
159.0273	228
159.3676	2
159.5218	1
159.7108	1
160.0261	38
160.2500	1
160.4446	2
160.6536	2
161.0313	148
161.3012	1
161.5363	1
161.6976	2
162.0292	13
162.3219	1
162.4738	1
163.0417	43
163.2668	2
163.5119	1
163.6112	1
164.0385	10
164.3433	2
165.0177	129
165.4050	2
165.6094	3
166.0292	43
166.3881	2
166.5542	2
167.0629	429
167.5340	3
167.7868	2
168.0506	44
168.3036	2
168.4094	0
168.5448	1
169.0592	139
169.3281	1
169.5021	2
169.7168	1
170.0671	61
170.3066	3
170.4023	1
170.7232	2
171.0731	121
171.3066	3
171.4574	0
171.6826	2
172.0719	54
172.4064	2
172.5438	3
172.6977	2
173.0743	137
173.3761	2
173.6181	3
174.0706	24
174.2825	2
174.5247	1
175.0759	66
175.3093	1
175.4559	1
175.6618	2
175.7837	1
176.0448	13
176.3127	2
176.4767	1
176.6400	1
177.0625	25
177.2631	1
177.4507	1
177.5638	0
178.0314	64
178.5005	4
178.7124	1
179.0458	106
179.2936	1
180.0561	37
180.2426	3
180.5128	3
180.6441	2
180.7664	2
181.0608	105
181.3968	2
181.5780	2
181.7115	1
182.0629	51
182.4281	1
182.6918	0
183.0683	133
183.3799	1
183.6174	2
183.8002	2
184.0668	43
184.3883	2
184.5428	1
185.0619	98
185.3697	2
185.5728	1
186.0423	18
186.4051	1
186.5376	1
187.0615	68
187.3926	1
187.7182	1
188.0668	8
188.2453	1
188.3565	0
188.4704	1
188.6747	2
189.0457	53
189.4982	1
189.8020	2
190.0453	13
190.1865	3
190.4967	2
191.0456	49
191.3100	1
191.4659	1
192.0499	38
192.3654	1
192.5534	0
192.6634	1
193.0514	88
193.2841	2
193.4423	0
193.6214	0
194.0521	50
194.3477	1
195.0611	120
195.5243	1
195.7113	1
196.0595	43
196.2731	2
196.3925	0
196.6591	1
197.0690	126
197.3023	2
197.7472	2
198.0490	26
198.4236	0
198.6304	2
199.0618	66
199.3051	1
199.5610	1
199.8470	3
200.0681	15
200.4165	1
200.5242	2
200.7397	2
201.0589	34
201.3501	4
201.5160	2
202.0229	31
202.4971	2
203.0414	44
203.3469	2
203.4920	0
203.6819	1
204.0359	13
204.2659	0
204.5211	1
205.0457	48
205.3495	1
205.4540	1
205.7578	1
206.0568	29
206.3726	0
206.5741	1
207.0635	85
207.4862	1
207.7426	2
208.0777	29
208.3426	2
208.5562	3
209.0721	107
209.3856	1
209.5937	1
210.0620	34
210.3469	2
210.5213	1
210.7218	1
211.0750	94
211.6239	2
212.0949	21
212.3342	2
212.5976	2
213.0730	49
213.3582	1
213.5985	1
214.0776	14
214.2982	2
214.6851	3
215.0722	52
215.4219	1
215.5799	2
216.0461	18
216.3494	2
217.0522	30
217.3585	1
217.4904	1
217.6648	2
218.0877	23
218.4944	2
218.6999	2
219.0679	45
219.3208	1
219.6338	1
220.0903	26
220.3560	1
221.0990	46
221.3677	2
221.5657	2
222.1032	23
222.3890	1
222.4916	2
222.6416	1
223.0867	56
223.4109	1
223.6232	6
224.0848	19
224.5479	1
225.0960	56
225.4353	3
225.6280	0
226.0801	15
226.4862	2
226.6223	1
226.7052	1
227.1206	39
227.3078	3
227.4056	1
227.5921	2
228.0835	15
228.3900	2
228.5872	0
229.1107	50
229.3591	2
229.6998	2
230.0838	17
230.4891	2
230.6879	2
231.1062	34
231.3739	2
231.5046	3
231.6339	4
231.7461	0
232.1333	16
232.5354	2
233.1345	127
233.4330	1
233.7472	1
233.8738	1
234.1333	16
234.2983	3
234.4864	1
234.6730	1
235.1574	63
235.4476	1
236.1160	12
236.5390	1
236.7350	2
237.1311	36
237.6452	2
238.1210	6
238.5721	0
238.7496	2
239.1411	32
239.5547	3
239.6357	1
240.1211	9
240.4588	3
240.8093	2
241.1392	23
241.4485	1
241.6078	1
241.7714	1
242.1320	7
242.5276	1
242.7432	2
242.8243	1
243.1132	23
243.3238	1
243.4519	1
243.6057	1
244.0975	13
244.3481	2
244.4556	0
244.7006	2
245.1235	32
245.3749	2
245.5380	0
245.6378	0
246.1442	30
246.3480	3
247.1140	36
247.4725	2
247.5673	1
247.7947	1
248.1369	15
248.5048	1
248.7294	2
249.1309	37
249.5752	2
249.8020	2
250.1345	10
250.4249	0
250.7174	1
251.1449	23
251.5346	1
251.7188	1
251.8537	1
252.1278	6
252.6055	1
253.1239	28
253.4353	0
253.6467	1
254.0989	8
254.2947	1
254.4783	1
254.6770	2
255.1386	14
255.4831	1
255.6068	0
255.8920	1
256.1214	10
256.3023	1
256.5397	1
256.7835	1
257.1325	27
257.3692	2
257.4779	1
257.6010	1
258.1067	11
258.2233	4
258.4851	1
258.8816	3
259.1420	21
259.3982	1
259.5786	2
259.7854	1
260.1613	12
260.7726	1
261.1478	25
261.3868	2
261.4842	1
262.1549	9
262.4041	1
262.5609	1
262.7485	1
263.1509	20
263.6107	1
263.7762	1
264.1115	7
264.3321	1
265.1310	22
265.7173	1
265.8721	1
266.1423	7
266.5222	1
266.6864	1
266.8298	1
267.1718	8
267.4737	2
267.7355	1
268.1249	6
268.2935	2
268.4656	1
268.5697	1
268.8552	2
269.1451	12
269.7169	1
270.1267	7
270.5265	1
270.7885	1
271.1237	22
271.4727	0
271.6263	0
271.7800	1
272.1642	7
272.4471	2
272.6274	1
272.8314	2
273.1532	29
273.8177	1
274.1769	11
274.3451	1
274.8934	3
275.1730	24
275.5331	0
275.6690	1
276.1435	10
276.2916	3
276.4008	1
276.8093	1
277.1645	16
277.4206	1
277.7565	1
277.9025	1
278.1586	5
278.4370	2
278.7931	0
279.1709	19
279.4522	1
279.5601	1
279.6873	1
280.1501	7
280.4979	2
280.7595	2
281.1986	11
281.9261	1
282.1332	6
282.3395	3
282.5085	1
282.6696	1
283.1672	14
283.4125	1
283.6506	2
284.1692	9
284.4411	1
284.7268	1
285.1894	35
285.5392	1
285.6284	0
285.7119	0
286.1638	14
286.6879	1
286.8456	2
287.1947	21
287.5309	0
287.8132	1
288.1819	8
288.3785	1
288.5989	1
289.1542	12
289.4978	1
289.6095	1
289.7305	1
290.1556	6
291.1716	12
291.4895	1
291.8643	0
292.2017	6
292.4734	1
293.2060	13
293.4807	0
293.7245	1
293.9898	2
294.2012	3
294.6238	2
295.1526	13
296.1851	6
296.4352	1
296.5325	1
296.6298	0
296.8337	1
297.1905	20
297.5531	0
297.8083	1
298.1933	16
298.5920	1
298.7246	0
298.8386	1
299.2078	43
299.4919	1
299.6109	1
299.7480	2
299.9564	2
300.1786	7
300.7614	1
300.8256	1
301.1957	16
301.4223	1
301.6654	1
301.7737	1
301.9367	1
302.2174	4
302.4982	1
302.6404	1
303.1506	15
303.4148	1
303.6733	1
304.1772	4
305.1418	8
305.3217	4
305.5369	1
305.7774	1
305.9702	1
306.1458	4
306.2693	1
306.6391	0
307.1433	18
307.2987	6
307.6412	1
307.7922	3
308.1072	17
308.6572	1
309.2057	6
309.4060	3
309.5628	1
309.7768	1
310.2033	5
310.6198	0
311.2011	20
311.7102	1
311.8643	1
312.2368	8
312.4306	2
312.6722	1
312.8624	1
313.1836	11
313.5085	1
313.7914	1
313.8984	1
314.1683	3
314.2805	2
314.5685	1
315.1503	7
315.4579	0
315.8654	0
316.1731	5
316.7392	1
317.1606	10
317.5798	1
317.6877	1
318.1034	2
318.3018	3
318.4908	0
318.9160	1
319.1796	7
319.4440	1
319.7193	1
320.2264	3
320.7372	1
320.8416	1
321.2024	7
321.5532	1
321.7213	1
321.8467	0
322.1322	2
322.3308	3
322.9724	2
323.1681	8
323.5124	1
323.8162	2
323.9460	1
324.1360	3
324.2476	4
324.7769	2
325.1990	11
325.4006	2
325.7285	0
325.8997	0
326.1796	3
326.2986	2
326.5583	1
327.1720	4
327.7343	1
327.8570	2
328.1131	3
328.7946	1
329.1799	8
329.4209	1
329.9580	1
330.1983	4
330.2992	2
330.5308	1
330.9875	4
331.2133	7
331.3629	4
331.4427	1
331.6983	0
331.9104	0
332.1573	5
332.3076	2
332.9641	1
333.2009	8
333.3760	2
334.0232	1
334.2281	3
334.4715	1
335.1799	5
336.0330	1
336.2307	3
336.5803	1
336.9444	1
337.1915	6
337.2911	2
337.8690	1
338.0813	1
338.2507	1
338.3997	0
339.2163	6
339.3421	4
339.5232	1
339.7871	1
340.2264	2
340.4802	0
341.2443	4
341.9088	1
342.0831	1
342.2981	1
343.1813	4
343.4407	1
343.9027	0
344.2682	2
345.0209	4
345.2077	7
345.3799	5
345.8072	1
345.9715	1
346.1481	3
346.2963	3
346.5049	3
346.7477	2
347.2776	8
347.4586	1
347.7647	1
348.2438	2
348.4270	0
349.2501	7
350.0653	1
350.1759	2
350.3628	4
350.5868	2
350.7359	2
351.2058	7
351.4495	1
351.7499	1
351.9638	1
352.2628	3
352.9009	1
353.1898	5
353.4052	2
354.0579	0
354.2457	2
354.4880	0
354.8469	1
355.1839	5
355.3214	4
355.8790	1
356.2954	3
356.6791	1
357.0293	3
357.2092	3
357.3490	1
357.4917	0
358.2760	1
358.4908	0
358.6576	1
359.0450	2
359.2767	6
359.4821	2
359.8215	2
360.1245	2
360.3118	3
360.8800	1
361.2800	9
361.5139	1
361.9387	1
362.2061	2
362.4131	1
362.7658	1
363.3116	6
364.2424	7
364.5318	1
364.6368	1
364.7964	1
365.3002	10
365.6443	1
365.7872	0
366.1911	5
366.3304	3
366.6337	1
366.8875	1
367.1362	1
367.2718	3
367.4045	2
367.6941	1
367.9172	0
368.2491	4
368.4037	2
368.4949	1
368.6743	1
368.8005	1
369.0040	1
369.3183	9
369.9529	1
370.3037	1
370.4514	1
370.6225	1
370.7855	1
371.2812	6
371.4370	2
371.5542	2
371.7704	1
372.1227	2
372.2945	2
372.8668	1
373.0277	1
373.2912	6
373.4150	1
373.5264	1
373.6553	0
373.7973	1
374.0354	0
374.2197	2
374.4782	3
374.7367	2
375.2371	5
375.4555	1
375.6668	1
375.9792	1
376.2546	2
376.7682	1
377.3029	4
377.4814	2
378.0409	2
378.2726	5
378.3863	4
378.7200	1
379.2578	5
379.4998	1
379.5901	1
379.8357	1
380.3153	4
380.4603	2
380.7176	1
380.8248	1
381.2862	5
381.4713	3
381.7090	1
381.9007	1
382.1748	3
382.3593	3
382.5831	2
383.2633	4
383.7139	1
384.3138	1
385.1097	1
385.2635	3
385.4188	1
385.5449	1
385.7767	1
385.9765	1
386.0647	1
386.3155	3
386.9301	1
387.0446	1
387.2728	5
387.4077	2
387.5003	1
388.2864	3
389.0420	2
389.3111	7
389.4912	1
389.8465	1
389.9683	1
390.2353	5
390.3498	3
390.4176	2
391.2522	7
391.4834	2
391.6366	1
392.0905	1
392.3976	3
392.9091	1
393.2375	4
393.4681	2
394.2431	3
394.7161	1
394.9737	2
395.1854	1
395.3562	2
395.5423	1
395.8153	2
396.2854	2
396.9111	1
397.2433	11
397.6324	0
397.8441	1
398.1041	1
398.3407	2
398.5196	1
399.2272	1
399.4171	1
399.9721	1
400.2511	0
400.4519	2
400.6418	0
400.8770	1
401.2057	4
401.3774	4
401.5637	1
401.6638	1
402.0049	1
402.1050	1
402.3446	1
402.5119	2
402.7581	0
403.0145	3
403.3243	9
403.7839	1
403.9637	1
404.1975	2
404.3714	5
404.7419	0
404.8610	1
405.1745	3
405.3784	2
405.4668	1
405.6737	1
406.1962	2
406.4711	1
406.8263	1
407.3102	1
407.6677	0
408.3724	2
408.5537	2
409.1766	1
409.4215	2
409.5692	2
410.3633	2
410.6317	0
411.2409	3
411.4837	1
411.6739	1
412.1953	1
412.3708	1
413.0291	1
413.2318	6
413.3145	3
413.4549	2
413.6758	1
414.3971	3
414.5720	2
415.2473	3
415.4858	0
416.2512	2
416.8655	1
417.3010	6
417.4991	2
417.6036	1
417.7651	1
418.0647	1
418.3146	11
418.4879	3
418.8204	1
419.2502	11
419.4614	8
419.9847	1
420.1828	2
420.3159	4
420.5674	2
421.1046	1
421.4051	1
421.6427	1
422.2028	3
422.9522	0
423.3537	2
423.5913	0
423.8129	0
424.3599	1
424.6809	1
425.0159	1
425.3253	3
425.5220	0
425.7437	1
426.2871	3
426.9798	1
427.3485	4
427.6324	2
427.9169	0
428.0406	1
428.3478	3
428.5527	1
428.7349	1
429.2690	4
429.8302	1
430.2634	1
430.4764	1
430.7837	1
430.9506	1
431.3268	8
431.7410	1
431.9034	1
432.3719	4
432.6954	1
433.3549	16
433.7970	1
433.9185	1
434.0837	1
434.2510	4
434.4372	1
434.7440	1
435.2708	3
435.4870	1
435.8969	0
436.1497	1
436.3455	1
437.0966	2
437.4356	1
437.6621	1
438.4440	1
438.8350	1
439.0813	1
439.2838	1
439.3963	1
439.5140	1
440.0022	1
440.1930	1
440.2982	2
440.8442	1
441.0175	1
441.2528	4
441.4407	3
441.5204	2
441.7850	1
441.9656	2
442.4429	5
442.6681	1
442.8406	1
443.3612	18
443.7334	1
443.8884	1
444.1611	4
444.4141	2
444.8718	1
445.3428	16
445.6514	1
445.8049	1
446.3183	12
446.4726	6
446.7052	3
446.8515	1
447.3225	18
447.9376	0
448.3465	9
448.6186	1
448.9800	0
449.2375	3
449.4299	1
449.9040	1
450.2368	1
451.1177	1
451.2728	1
451.7001	1
451.8648	0
452.1933	0
452.5929	1
453.3049	2
453.4212	1
453.5800	0
454.2358	1
454.8023	0
455.0848	2
455.2912	3
455.4910	1
455.9588	0
456.2984	3
456.4617	2
456.6425	1
457.2230	2
457.3526	1
457.8043	1
457.9675	1
458.2516	2
458.4581	3
458.6645	1
459.0123	1
459.2964	11
459.5981	4
459.8046	2
460.3311	40
461.3380	99
462.3545	75
462.8731	2
463.0013	1
463.2547	3
463.6964	1
463.9388	1
464.1307	2
464.2926	1
464.6076	1
465.2486	1
465.5761	1
465.7739	1
466.0984	1
466.2750	1
467.5389	1
467.8664	1
468.0225	0
468.2548	3
468.3676	1
468.5010	1
468.8733	1
469.1554	2
469.2873	2
469.5321	1
469.9279	1
470.1402	1
471.3786	3
471.5469	1
471.7034	1
471.9697	1
472.3772	1
472.5177	1
472.6180	1
472.7248	1
472.9940	2
473.1389	3
473.2786	0
473.3928	1
473.7828	2
473.9657	2
474.3213	5
474.5072	1
474.5979	1
475.3150	2
475.4285	2
475.5982	1
476.1566	1
477.2398	1
477.3474	2
477.4418	2
478.1833	2
478.5266	1
479.1846	1
479.4482	1
479.6246	2
480.2110	1
480.7630	1
480.9043	1
481.0339	1
481.8026	1
482.0618	2
482.3379	1
482.4909	1
482.6110	3
482.7926	1
483.3989	0
483.7335	1
483.9583	1
484.6504	1
485.2428	1
485.7636	1
485.9606	1
486.0953	2
486.2477	2
486.5634	4
486.7699	4
487.0182	3
487.3757	2
487.5295	2
487.6145	1
487.7764	2
487.8789	2
488.2012	3
488.9118	1
489.0481	1
489.2605	2
489.9763	2
490.1602	2
490.9866	2
491.5068	1
491.7296	1
491.9817	1
492.4184	1
493.2083	1
493.4729	2
494.0394	1
494.5494	1
494.7803	1
495.0442	1
495.5792	0
496.6479	1
496.8619	1
497.3809	2
497.5912	1
497.7130	0
498.2085	1
498.3375	2
498.4387	2
498.6043	0
498.9924	1
499.2121	2
499.6237	3
499.8324	1
500.0243	3
500.1788	2
500.3429	3
500.5385	1
500.6871	2
500.8776	4
501.1237	2
501.2826	1
501.4906	3
501.5770	1
501.7111	1
501.9418	1
502.2289	2
502.4348	2
502.6326	2
502.7959	1
503.1754	2
503.3395	1
503.5182	1
503.6494	0
504.2926	1
504.5592	1
504.7160	0
505.4743	1
506.3323	1
506.5778	2
507.1009	1
507.2577	1
507.4226	2
508.3437	17
508.5291	11
508.9051	1
509.1440	1
509.3404	2
509.5222	1
509.8922	1
510.6919	2
511.4732	0
511.7341	1
512.3279	1
512.4385	1
512.6731	0
512.9062	0
513.2222	1
513.4311	1
513.5733	2
514.1033	1
514.3196	3
514.4523	3
514.5688	3
514.8394	1
515.0916	1
515.2778	1
515.4186	1
515.8570	2
516.3834	5
516.5352	3
516.7296	3
516.8359	2
517.0477	1
517.2172	1
517.4781	2
517.6674	1
518.0413	2
518.3376	2
518.4623	1
518.5986	1
518.8450	1
519.4427	3
519.6591	2
519.8747	0
520.0184	1
520.1123	1
520.3976	1
520.8223	1
521.0731	1
521.3518	2
521.5256	2
521.6796	2
522.4161	42
522.8195	1
523.0132	1
523.2471	2
523.3689	2
523.5178	3
524.0760	1
524.1707	1
524.3534	1
524.4531	0
524.6696	1
524.9902	1
525.4978	1
526.1624	1
526.3761	1
526.5715	0
527.4464	1
528.2619	1
528.5203	2
529.2261	2
529.5629	1
530.0586	1
530.3243	1
531.5230	2
532.0143	1
533.3560	1
533.4475	1
533.7565	1
534.0290	1
534.4537	15
534.7592	1
535.0858	2
535.4528	16
535.6256	7
535.8182	1
536.3222	1
536.4775	2
536.7360	1
537.2253	1
537.3660	1
537.6436	1
537.7689	1
538.1249	1
538.2861	0
538.4120	1
538.9490	1
539.3226	1
539.5410	2
540.2744	2
540.6274	1
540.7366	2
541.4129	2
541.7419	1
542.2115	1
542.3259	1
542.9391	1
543.1546	0
544.3102	1
544.5293	1
544.7565	1
545.2343	1
545.4527	0
545.7444	0
546.0456	1
546.1761	1
546.4113	1
546.5579	2
546.6986	1
547.7181	1
548.1594	1
548.2935	0
548.6534	1
548.7722	1
548.9144	1
549.5814	2
549.7310	1
549.9164	1
550.3900	1
550.5571	1
550.6531	1
550.8079	1
550.9655	0
551.2250	1
551.7374	1
552.0087	0
552.3173	1
552.4266	1
552.6187	2
552.7118	1
553.1993	1
553.4553	2
553.6781	1
554.0015	0
554.5045	1
554.6438	1
554.9305	1
555.2407	1
555.4577	1
555.6278	1
555.7188	1
555.8713	1
555.9651	1
556.2196	2
556.4264	2
556.6647	3
556.9852	1
557.0901	1
557.3995	2
557.6342	1
557.8080	1
558.2356	1
558.4578	2
559.1912	1
559.3049	1
559.9658	1
560.0831	1
560.2026	1
560.3669	3
561.0660	1
562.0540	2
562.5558	1
562.7560	1
563.2901	2
563.5688	4
563.7955	1
564.1763	2
564.3362	2
564.4375	1
564.5739	1
564.7009	1
565.0178	1
565.3472	3
565.7250	1
565.8615	1
566.2365	1
566.5402	2
566.6833	2
567.0978	1
567.2791	2
567.4963	5
567.7025	1
567.9233	2
568.0195	2
568.1435	2
568.4318	4
568.5815	2
568.7034	1
568.8340	1
568.9506	1
569.0754	2
569.2911	2
569.7476	4
570.0169	3
570.3596	4
570.6018	3
570.8095	1
570.9700	2
571.3162	4
571.5350	2
571.7034	6
571.8190	2
571.9683	2
572.1660	4
572.5392	2
572.7676	3
572.9542	3
573.2332	5
573.3524	2
573.6372	2
573.7697	1
573.9614	2
574.2206	1
574.4292	3
574.5815	1
574.7133	2
574.8091	1
574.9343	2
575.0778	1
575.3735	2
575.6268	1
575.8135	1
575.9987	2
576.2937	2
576.5126	2
576.6642	2
576.8135	2
576.9717	2
577.0580	1
577.2762	4
577.4607	3
577.6320	4
577.9959	3
578.1306	2
578.4769	15
578.6988	7
579.2010	3
579.3270	1
579.4405	0
579.5737	1
579.7590	2
579.9354	2
580.0973	1
580.3909	1
580.6450	1
580.8580	2
581.4790	12
581.7060	7
581.9389	2
582.3182	5
582.6243	0
582.8125	1
582.9788	2
583.3156	4
583.6188	3
583.9528	5
584.1183	5
584.4567	7
584.7028	8
585.0616	10
585.2418	8
585.5648	8
585.8987	3
586.1104	7
586.4100	10
586.6576	9
586.9161	6
587.0817	8
587.3680	6
587.8163	8
588.2434	11
588.4998	10
588.8023	9
589.1305	9
589.5788	9
590.1942	13
590.9509	14
591.7744	12
592.5708	16
593.5350	22
594.6971	29
596.5043	646
597.4527	40
598.4363	18
598.7242	15
599.4735	48
600.3445	11
600.8909	8
601.3524	9
602.0454	12
602.9201	10
603.5494	11
604.2725	10
605.2953	14
606.1709	14
607.0868	16
607.8730	18
614.4901	999
615.2538	418
616.0403	194
616.9581	97
617.9463	55
618.6002	34
619.2723	22
620.0077	14
620.4479	11
621.0198	9
621.4718	9
621.6740	5
621.9384	6
622.3002	6
622.5434	6
622.8430	5
623.2949	3
623.4678	2
