Mass spectrum: 8'-Apocapsorbinal; FAB-EBEB; MS2; m/z: 448.30; [M]+*
Name: 8'-Apocapsorbinal
Formula: C30H40O3
Exact mass: 448.29775
SMILES: C(C)(=CC=CC=C(C)C=CC=C(C)C=O)C=CC=C(C=CC(C(C)(C1)C(C)(C)CC1O)=O)C
InChI: InChI=1S/C30H40O3/c1-23(12-8-9-13-24(2)15-11-17-26(4)22-31)14-10-16-25(3)18-19-28(33)30(7)21-27(32)20-29(30,5)6/h8-19,22,27,32H,20-21H2,1-7H3/b9-8+,14-10+,15-11+,19-18+,23-12+,24-13+,25-16+,26-17+/t27-,30-/m0/s1
Instrument: JMS-HX/HX 110A, JEOL
Instrument type: FAB-EBEB
Ms type: MS2
Ion mode: POSITIVE
Collision energy: 3 kV
Ionization: FAB
Base peak: 109.1076
Precursor m/z: 448.30
Precursor type: [M]+*
m/z	relative intensity
0.5288	1
5.4102	1
12.9968	1
14.0105	1
15.0088	3
20.6106	1
22.9789	17
24.9967	1
26.0018	7
27.0102	47
28.0244	9
29.0209	53
30.0397	1
31.0005	8
37.0035	8
38.0047	14
39.0138	147
39.6608	2
40.0176	16
41.0315	279
42.0270	10
43.0219	284
44.0298	8
45.0227	13
45.9671	1
48.3689	4
49.0155	3
49.5886	1
50.0104	35
51.0163	91
52.0186	32
53.0356	162
54.0428	11
55.0478	330
56.0475	8
57.0645	93
58.0480	4
59.0641	15
60.0442	1
60.9918	4
61.2310	1
62.0289	23
63.0201	62
63.7193	1
64.0272	13
64.6614	3
65.0317	122
66.0417	28
66.7132	1
67.0480	183
68.0285	16
69.0433	208
70.0384	9
70.5016	2
71.0459	102
71.5680	1
72.0825	3
73.0404	5
73.3207	2
74.0177	18
75.0156	24
75.3376	1
76.0553	18
76.5360	1
77.0321	328
77.4407	4
78.0369	76
78.3284	3
79.0485	226
79.4571	1
79.5830	1
80.0477	41
81.0631	140
81.5874	1
82.0456	43
83.0842	901
83.5311	1
84.0582	10
85.1004	148
86.0831	4
87.0309	10
87.7175	1
88.0492	11
88.2472	2
89.0562	50
89.4092	2
89.6021	1
90.0613	21
91.0641	645
91.5804	3
92.0753	82
92.4610	2
93.0829	190
93.7078	1
94.0760	21
94.5930	3
95.0697	250
95.5115	1
96.0651	16
97.0811	57
98.0523	13
98.6294	3
99.0728	35
100.0195	5
101.0213	13
101.3046	2
102.0660	56
102.6134	1
103.0655	141
103.6406	3
104.0689	72
105.0860	490
106.0755	62
106.6431	2
107.0844	164
107.4801	2
108.0644	47
108.2608	7
109.1076	999
110.0791	22
111.0666	30
112.0519	7
113.0544	22
113.3504	3
113.5945	2
114.0502	12
114.5502	6
115.0631	403
116.0704	150
116.4050	3
117.0745	343
117.5446	1
118.0855	58
119.0863	383
119.6805	2
120.0916	49
121.0730	196
122.0807	57
123.0711	80
124.0672	23
125.0953	257
126.0591	35
127.0849	261
128.0670	439
129.0673	408
130.0778	160
131.0778	292
132.0822	81
133.0968	152
133.5415	3
134.0835	30
134.5286	2
135.0873	180
135.4854	1
136.0711	37
136.5726	1
137.0871	32
137.4998	2
137.7340	3
138.0541	23
138.4579	2
139.0846	93
140.0800	70
140.6414	9
141.0937	357
142.0989	278
143.1084	418
144.1188	165
145.1136	451
145.6738	3
146.1186	62
146.6184	6
147.1161	210
147.6432	2
148.1109	35
149.1299	81
149.6882	2
150.1015	21
151.1114	43
152.0974	140
153.1123	176
154.1185	121
155.1347	290
156.1458	183
157.1463	262
158.1345	115
158.5349	2
159.1328	613
160.1223	46
160.6255	19
161.1359	121
161.6583	3
162.1914	12
162.7247	1
163.1369	30
164.0994	23
165.1085	289
166.1181	98
167.1237	196
167.5830	4
168.1346	90
169.1236	218
170.1404	76
171.1376	181
172.1212	64
172.6706	4
173.1491	123
173.6988	2
174.1089	17
175.0715	29
175.5198	2
175.7428	3
176.0880	34
177.1241	33
177.5313	7
178.1108	146
179.1182	210
180.1250	95
180.4852	5
181.1298	203
181.5200	4
182.1423	84
182.4363	8
183.1339	181
184.1343	69
185.1447	162
185.6215	3
186.1210	39
187.1299	58
187.6286	3
188.1561	17
188.6502	3
189.1265	70
190.1249	42
191.1214	110
192.1373	79
192.5343	3
193.1299	150
193.6885	2
194.1420	69
194.6805	5
195.1509	225
195.6753	3
196.1483	62
197.1676	147
198.1539	59
198.6010	3
199.1729	114
199.8145	5
200.1839	31
201.1641	45
201.6262	4
202.1687	58
203.1545	66
203.7142	4
204.1839	37
205.1512	63
206.1778	57
207.1832	123
207.6234	2
208.1768	54
209.1901	169
210.1977	60
210.5445	3
211.1934	123
211.7498	4
212.2017	50
212.6128	2
213.1850	77
214.1867	38
215.1756	71
216.1563	30
216.5114	3
217.1723	53
218.1898	31
218.5030	5
219.1824	75
220.1837	35
220.6284	3
221.2119	135
221.6784	3
222.1897	47
222.7288	2
223.1944	86
223.8507	2
224.2054	25
224.7195	1
225.2132	63
225.6067	3
226.1886	29
226.6366	3
227.2114	45
228.1681	29
229.1481	50
229.6678	2
230.1670	30
230.6578	7
231.2067	46
232.1585	15
232.6157	3
233.2012	58
234.2104	37
234.6811	2
235.2148	67
236.2133	24
236.6080	5
237.2243	65
238.2028	22
239.2385	42
239.7256	3
240.2394	26
240.5617	3
241.1993	27
241.8030	3
242.1922	14
243.2168	32
244.1387	19
244.7392	3
245.2197	27
245.6590	1
246.2439	22
246.7125	3
247.2175	43
247.5186	4
248.2471	23
249.2502	51
250.2087	15
250.6417	1
251.2760	30
251.6932	2
252.2731	18
253.2000	15
253.8492	2
254.2898	15
255.2694	17
256.2881	15
257.2049	17
257.7175	3
258.2021	12
258.6577	2
259.2227	24
259.5617	3
260.2715	13
260.6519	2
261.2280	25
261.7690	3
262.2675	27
263.2476	39
263.7013	1
264.2596	17
265.2515	27
266.1567	10
266.4763	3
267.1982	21
267.7719	3
268.3578	7
269.1978	10
270.0892	8
270.5063	2
271.2519	27
271.7713	5
272.2421	15
272.6181	2
273.2654	40
273.9980	5
274.2914	22
274.7673	2
275.2432	23
275.7838	1
276.2391	25
277.2315	42
277.6992	4
278.2436	24
278.6029	3
279.2254	30
279.8919	3
280.2623	21
280.6510	3
281.2932	12
282.1842	5
282.4560	3
282.6133	1
283.2643	10
284.1129	4
284.3384	3
285.0457	4
285.3128	7
285.8007	3
286.2630	19
287.2743	21
288.2199	17
288.8252	5
289.3073	15
290.2166	10
290.8355	3
291.2310	17
292.2383	34
293.2812	117
294.2339	56
295.2466	162
296.2460	6
297.2590	8
297.7857	3
298.3113	7
298.5704	2
299.2758	35
299.8088	3
300.2685	19
300.5656	3
301.2602	11
302.3192	10
302.8256	2
303.2978	10
304.3028	10
304.7069	1
305.2282	17
305.7521	3
306.3114	12
306.7022	2
307.3727	13
308.3023	9
309.2906	30
310.2144	12
310.4380	3
311.1920	12
312.2529	7
313.3065	18
313.6770	3
314.3017	14
315.2261	8
316.2155	7
316.5139	1
317.1548	5
317.3590	3
318.1786	2
319.3029	14
320.2732	29
321.3036	130
322.3011	3
322.6182	1
322.9279	3
323.3220	13
323.6060	3
324.3026	11
325.2797	10
325.6030	6
326.3438	6
327.2746	7
327.5882	2
327.7827	1
328.2355	4
328.4362	3
328.6577	1
329.2133	8
329.8094	2
330.3198	19
330.7066	2
330.9453	2
331.3126	9
331.6664	3
332.3325	7
332.6006	5
333.2508	12
333.4859	3
334.3982	20
334.8452	3
335.2433	5
335.4907	3
335.6806	2
335.8545	1
336.3506	22
337.1518	6
337.3931	4
337.8685	3
338.3022	4
338.5693	3
338.7997	3
339.3462	7
339.7567	3
340.1979	3
340.6875	3
341.3412	10
341.9214	3
342.3719	8
342.9081	2
343.3024	7
344.3933	13
345.2897	12
345.6327	2
346.2744	50
347.3425	7
347.7957	3
348.2980	9
348.8394	3
349.3381	10
349.9703	2
350.3452	3
351.3060	15
352.0070	3
352.3967	5
352.8980	2
353.3784	17
354.1249	3
355.1706	7
355.5102	8
355.8658	2
356.3611	30
356.8614	2
357.0723	2
357.3163	4
357.5186	1
358.0888	1
358.3378	9
359.1668	4
359.4465	7
359.9825	3
360.3382	5
360.5320	3
360.7933	4
361.0190	5
361.3821	5
361.7317	3
362.3881	17
362.7046	3
363.3451	34
363.7132	2
364.3525	16
365.3600	19
366.4547	8
367.3127	6
367.8405	1
368.3905	48
369.3894	24
370.0497	2
370.4172	2
370.6525	3
371.3104	3
372.3997	23
373.3960	14
374.3728	35
375.2749	9
375.7970	3
376.4038	14
376.7838	3
377.3759	17
377.9313	2
378.4193	8
378.8742	2
379.0703	2
379.3781	6
379.5964	2
379.7791	1
380.3738	3
380.9759	3
381.3107	3
382.0822	1
382.3348	3
382.8131	2
383.2547	2
384.1787	2
385.3525	3
386.3290	4
387.4258	6
388.3376	9
388.8131	4
389.2886	10
390.4016	23
391.3896	17
391.6875	4
392.1803	6
392.4512	8
393.4112	4
394.1150	3
394.8041	1
395.0310	2
395.3498	2
395.5963	4
395.9936	3
396.6080	3
397.1587	3
397.6260	5
398.2895	3
398.9323	3
399.4720	1
399.8118	1
400.0829	3
400.4251	3
400.7159	2
401.2029	5
401.5808	3
402.2961	6
402.6335	2
403.0323	3
403.2863	7
403.4851	3
404.3035	12
404.6656	3
405.4743	17
406.3518	9
406.7986	1
407.3226	4
407.8652	3
408.1119	3
408.3451	1
408.7993	2
409.0890	3
409.6979	2
410.3277	4
411.0054	6
411.6230	5
411.9508	3
412.5537	13
412.8484	6
413.3494	8
413.6023	10
413.9511	6
414.4030	3
414.6031	2
415.3461	27
416.0989	9
416.4680	15
416.9964	9
417.3888	28
418.4238	33
418.7034	9
419.3914	59
420.3787	21
421.3759	4
421.9523	2
422.2480	2
422.6221	6
422.9312	5
423.3311	6
423.6145	4
423.9556	13
424.1862	7
424.9873	17
425.7186	8
426.3824	15
426.9627	10
427.6143	10
428.0683	14
428.4340	14
429.3151	29
430.3951	401
431.4102	43
432.3467	31
433.3704	93
434.0726	2
434.4360	4
435.2536	2
435.9485	7
436.3721	7
436.6582	5
436.9933	7
438.0984	12
440.4174	18
448.4408	999
449.3389	470
450.2261	130
451.0752	55
452.7810	16
453.2731	12
453.6843	9
454.1089	9
454.4366	4
