Mass spectrum: Cucurbitachrome B; FAB-EBEB; MS2; m/z: 600.42; [M]+*
Name: Cucurbitachrome B
Formula: C40H56O4
Exact mass: 600.41786
SMILES: C(O4)(C=C(C34C)C(CC(C3)O)(C)C)C(C)=CC=CC(=CC=CC=C(C=CC=C(C)C=CC(C(C)(O)1)(C(C)(C)2)OC(C2)C1)C)C
InChI: InChI=1S/C40H56O4/c1-28(17-13-18-30(3)21-22-40-37(7,8)26-33(43-40)27-39(40,10)42)15-11-12-16-29(2)19-14-20-31(4)34-23-35-36(5,6)24-32(41)25-38(35,9)44-34/h11-23,32-34,41-42H,24-27H2,1-10H3/b12-11+,17-13+,19-14+,22-21+,28-15+,29-16+,30-18+,31-20+/t32-,33-,34-,38+,39+,40+/m0/s1
Instrument: JMS-HX/HX 110A, JEOL
Instrument type: FAB-EBEB
Ms type: MS2
Ion mode: POSITIVE
Collision energy: 3 kV
Ionization: FAB
Base peak: 520.5177
Precursor m/z: 600.42
Precursor type: [M]+*
m/z	relative intensity
12.9350	0
14.0497	2
15.0563	5
19.0257	0
23.0250	1
25.0152	0
25.1385	0
26.0432	5
27.0602	29
28.0658	4
29.0674	28
29.9717	0
31.0491	3
36.2336	0
37.0576	1
38.0471	5
38.5397	0
39.0689	53
40.0693	6
40.3022	0
41.0808	106
42.0802	7
43.0574	465
44.0697	4
45.0725	3
47.0662	1
49.0284	1
49.6038	0
50.0635	8
51.0547	22
52.0658	6
53.0756	42
54.0792	4
54.3883	0
55.0726	153
56.0713	6
57.0932	61
58.0777	6
59.0767	18
60.0154	0
61.0396	2
62.0744	4
62.6634	0
63.0660	18
64.0606	5
65.0744	37
66.0949	11
67.0842	84
68.0798	11
69.0766	153
69.5867	0
70.0631	19
71.0698	68
72.0956	2
73.1108	3
74.0531	4
75.0594	9
75.3002	2
75.5345	1
76.0691	5
76.4699	1
77.0820	150
77.6729	2
78.0916	34
79.0924	160
79.6817	1
80.0949	31
81.0951	188
81.7290	0
82.0769	23
82.4823	1
83.1027	260
83.6667	0
84.0994	7
85.0867	93
86.0968	4
87.0812	29
88.1114	3
88.5058	0
89.1157	21
90.1213	8
91.1156	393
92.1151	57
93.1182	324
93.6624	1
94.1250	25
95.1174	321
96.1042	29
97.1083	102
98.0897	24
98.5632	0
99.0980	11
100.0585	0
100.5963	0
101.1084	7
101.5570	2
102.1145	21
103.1254	78
104.1229	36
105.1265	518
106.1278	71
107.1337	276
108.1256	44
109.1357	234
110.1308	15
110.5831	2
111.1176	78
112.0948	5
113.1401	79
114.2439	7
115.1253	209
116.1131	76
117.1267	212
118.1090	49
118.6243	4
119.1228	492
120.1238	75
121.1206	279
122.1102	52
122.4806	2
123.1127	170
124.0993	21
125.0931	243
125.6121	2
126.1141	23
127.1222	76
128.1113	226
129.1147	289
130.1093	122
131.1182	306
132.1080	96
132.6201	6
133.1180	315
134.1248	39
135.1109	184
136.1172	100
137.1073	96
138.0935	11
139.1262	139
140.0882	15
141.1100	200
142.1183	178
143.1203	377
144.1233	146
145.1304	489
146.1296	63
146.5097	6
147.1254	226
148.1207	30
149.1363	112
150.1232	27
151.1171	212
152.1401	97
153.1447	125
154.1548	60
155.1509	269
156.1599	133
157.1608	378
158.1611	88
159.1592	306
160.1508	197
161.1657	130
161.6517	3
162.1814	43
163.1785	118
164.1734	28
165.1752	290
166.1747	62
167.1781	145
168.1973	69
169.1947	236
170.2020	101
171.2007	233
172.1893	70
173.1982	161
173.6615	5
174.2034	42
174.5869	3
175.2047	97
176.2037	24
177.1778	50
178.1979	105
179.1899	192
180.1781	180
181.1791	556
182.1884	81
183.1922	229
184.1967	62
185.1852	158
186.1757	52
187.1959	86
188.1877	26
189.1939	107
190.1809	46
191.1837	99
192.1780	69
193.1759	226
194.1867	72
195.1797	228
196.1778	73
197.1858	202
198.1866	54
199.1849	103
200.1899	32
201.1678	58
202.1955	46
203.1883	94
204.2063	28
205.1786	74
206.1853	53
207.1879	165
208.1818	126
209.1931	169
210.1973	47
211.1957	112
212.2009	36
213.2081	71
214.1956	26
215.1868	76
216.2155	36
217.1998	54
218.2109	25
219.2132	95
220.2066	43
221.2176	445
222.2057	70
223.2284	112
224.2112	34
225.2286	61
226.2449	24
227.2414	52
228.2321	26
229.2310	58
230.2459	29
231.2534	60
232.2520	35
233.2436	123
234.2441	97
235.2591	84
236.2355	38
236.6576	4
237.2543	74
238.2798	36
239.2449	42
240.2664	17
241.2713	38
242.2390	18
243.2664	38
244.2551	23
245.2567	58
246.2649	127
247.2641	148
248.2698	25
249.2697	58
250.2653	22
251.2627	45
252.2667	37
253.2790	45
253.6833	4
254.2790	11
255.2888	26
256.2989	17
256.6974	5
257.2936	44
258.2620	22
259.2977	65
260.3075	20
261.2846	44
262.2935	14
263.2744	41
264.2823	18
265.2795	42
266.3085	18
267.2812	28
268.2620	11
268.6424	3
269.3359	33
270.2968	12
270.6004	5
271.2927	74
272.2810	42
273.2900	60
274.3103	53
275.3042	35
276.2983	16
277.2927	35
278.3053	16
279.2944	21
280.3044	8
281.3051	26
282.2966	11
282.8154	2
283.3184	30
284.2868	25
285.3012	83
286.2938	357
287.3103	104
288.3018	14
289.3094	25
290.3219	9
291.3332	21
292.3162	17
292.7398	4
293.2963	24
294.2934	23
295.3214	24
296.3244	13
297.2977	52
298.3011	61
299.3238	176
300.3025	44
301.2988	22
302.2636	7
302.7873	1
303.3300	14
304.2905	5
305.3210	14
306.2756	6
306.6635	1
307.3397	16
308.3423	6
309.3134	26
310.3054	20
311.2912	90
312.2946	112
313.3046	51
314.2578	14
315.2983	11
316.2947	5
317.3737	12
318.3690	5
318.7071	2
319.3104	19
320.3583	11
320.7617	1
321.3271	17
322.3199	8
323.3304	25
324.3331	23
325.3106	114
326.3153	21
327.3313	10
328.1996	5
328.6959	1
329.3210	10
330.3010	6
330.8006	2
331.3974	9
332.3220	3
332.6945	1
333.3408	13
334.3518	8
335.3550	23
336.3520	16
337.4049	46
338.3463	15
339.3373	15
340.3460	22
341.3358	7
342.3751	3
343.3859	5
344.3013	5
345.3730	12
346.3875	10
347.3528	13
348.3438	9
349.3938	20
350.3660	18
351.3702	45
352.3602	371
353.3551	49
354.4076	7
355.4444	8
356.5036	3
357.4131	8
357.8885	1
358.4056	2
359.3791	9
360.3911	13
361.4145	14
362.3996	16
363.3993	29
364.3736	30
365.3991	99
366.3761	43
367.3764	10
368.3721	6
368.9131	1
369.4574	3
370.4007	4
370.8062	1
371.4463	7
371.8439	1
372.4346	8
373.3943	9
374.4117	10
375.4179	13
376.3860	17
377.4101	45
378.4184	20
379.4173	71
380.4034	15
380.9813	2
381.4571	5
382.3033	2
383.4163	6
384.5198	2
385.4223	6
385.8712	2
386.3824	3
387.3761	17
388.3875	10
389.3927	22
390.3501	13
391.4019	34
392.3867	54
393.3748	8
394.3918	3
395.4297	5
396.0375	0
396.5829	3
397.3956	5
397.7203	3
398.4739	5
399.4195	7
400.3636	25
401.4840	16
402.3883	9
403.4496	16
404.4182	12
405.5359	26
406.4247	3
406.9756	1
407.5329	5
408.2793	2
408.6446	2
409.5432	4
410.4565	3
411.5348	9
412.4113	4
413.4634	18
414.4426	7
415.4890	9
416.4411	8
417.4654	37
418.4321	49
419.4341	118
420.4523	112
421.4754	6
421.8405	3
422.3657	3
423.4867	3
424.3900	3
425.4439	6
426.4387	18
427.4752	11
428.4766	7
429.4941	11
430.3976	10
431.4909	26
432.4323	53
433.4313	48
434.4208	4
435.3881	5
435.9021	1
436.5652	3
437.4285	7
437.7600	2
438.4328	4
439.5126	7
440.4642	28
441.4753	8
442.4271	29
443.4528	9
444.3776	10
444.6693	3
445.4355	33
446.3476	7
447.4121	12
448.4206	46
449.4997	5
450.2614	2
450.8981	2
451.6551	5
452.3367	4
452.7137	2
453.4178	12
454.4285	99
455.4585	9
456.4243	11
457.4545	25
458.0129	2
458.5121	8
459.5135	19
460.3898	5
461.3930	5
461.9645	2
462.5280	4
463.4656	5
464.4594	3
465.4501	5
465.7359	2
466.4414	4
467.4434	6
467.7272	2
468.0639	1
468.5273	3
468.9457	3
469.3338	3
469.7603	2
470.5926	6
471.4810	4
472.4578	9
473.4522	18
474.4403	49
475.4991	7
476.3478	4
476.7216	2
477.4709	5
478.4658	15
478.9744	2
479.3564	6
479.7592	2
480.4669	13
481.4716	21
482.6851	2
483.4363	2
484.5295	6
485.5715	10
485.9584	6
487.4661	9
488.6014	6
489.5939	11
490.4290	8
491.5100	9
491.8730	3
492.4962	9
492.9059	3
493.5082	20
494.4953	37
494.9587	4
495.5312	5
496.3202	4
497.6016	4
498.5479	7
499.4558	14
499.7878	5
501.5380	31
505.5541	28
506.4881	48
507.5120	74
508.4911	80
509.4381	6
510.0272	3
511.1573	5
511.7898	3
512.3694	5
512.8302	2
513.4997	6
514.0889	2
514.5273	5
514.9560	1
515.5421	8
516.4799	25
517.5029	7
518.6561	9
519.5668	19
520.5177	999
521.5076	22
522.1745	5
522.6458	3
523.4778	3
524.2266	3
525.5734	6
526.4987	12
527.5361	12
528.5128	11
529.5970	4
530.5304	3
530.8079	1
531.6869	2
532.3125	3
532.6525	2
533.3472	2
533.7450	1
534.1653	1
534.8953	2
535.5049	1
535.8499	0
536.4564	0
536.8158	1
538.0673	2
539.5629	9
540.4087	6
540.8307	5
541.5064	20
542.5128	36
543.5095	26
544.5079	8
545.5305	6
546.4440	5
546.9111	1
547.4891	2
548.1763	2
548.9695	1
549.6503	3
550.8401	2
551.3058	2
551.9353	1
552.7832	2
553.6874	2
554.4921	4
555.5634	17
556.5528	23
557.5118	159
558.4435	11
558.8676	5
560.3569	2
561.0076	3
561.7178	5
562.2994	3
562.8826	3
563.3583	5
563.6942	5
564.6197	11
565.3091	4
566.4872	5
567.6954	17
568.5587	10
569.6370	13
570.5661	11
571.5980	8
572.6508	10
582.6890	934
583.7183	95
584.5677	77
585.6437	699
586.6073	18
600.4736	999
603.8094	185
604.7943	88
