Mass spectrum: Halocynthiaxanthin; FAB-EBEB; MS2; m/z: 598.40; [M]+*
Name: Halocynthiaxanthin
Formula: C40H54O4
Exact mass: 598.40221
SMILES: CC(C)(C=1C#CC(C)=CC=CC(=CC=CC=C(C)C=CC=C(C(=O)CC(O3)(C(C)23)C(C)(C)CC(C2)O)C)C)CC(CC(C)1)O
InChI: InChI=1S/C40H54O4/c1-28(17-13-18-30(3)21-22-35-32(5)23-33(41)24-37(35,6)7)15-11-12-16-29(2)19-14-20-31(4)36(43)27-40-38(8,9)25-34(42)26-39(40,10)44-40/h11-20,33-34,41-42H,23-27H2,1-10H3/b12-11+,17-13+,19-14+,28-15+,29-16+,30-18+,31-20+/t33-,34+,39-,40+/m1/s1
Instrument: JMS-HX/HX 110A, JEOL
Instrument type: FAB-EBEB
Ms type: MS2
Ion mode: POSITIVE
Collision energy: 3 kV
Ionization: FAB
Base peak: 109.0544
Precursor m/z: 598.40
Precursor type: [M]+*
m/z	relative intensity
6.3743	0
7.4208	0
8.5627	0
8.8596	0
11.6204	0
12.2109	0
12.4633	0
12.9902	0
13.9988	1
14.9990	5
16.9494	0
17.4833	0
17.9749	0
18.9580	0
22.9520	1
23.7605	0
23.9960	0
24.9953	0
25.2179	0
25.9868	4
26.9938	42
28.0035	5
29.0006	46
29.9603	0
30.9821	10
31.8723	1
35.9771	0
36.3560	0
36.9686	4
37.2799	1
37.9713	11
38.9894	103
39.4014	0
39.9937	15
41.0051	251
41.5897	0
42.0015	8
42.9900	700
43.4609	1
43.6517	0
43.9904	7
44.9991	13
45.7678	1
46.3936	0
46.9935	1
47.4215	0
47.9782	0
48.9773	2
49.2785	0
49.9803	30
50.9800	67
51.9891	24
53.0029	139
53.7093	0
54.0069	5
55.0151	269
56.0275	10
57.0319	145
57.5008	0
58.0169	4
59.0177	36
59.9091	0
60.9816	9
61.5977	0
61.9883	25
62.9933	73
64.0076	17
65.0024	119
66.0087	26
67.0166	204
68.0120	11
69.0163	328
70.0064	12
71.0104	124
72.0269	2
72.3164	0
73.0174	2
73.9724	23
74.9810	37
75.3865	2
75.9943	25
76.9991	332
77.9927	63
79.0064	248
79.5025	1
80.0231	21
81.0231	218
82.0100	16
83.0369	707
84.0294	9
85.0339	258
85.9942	14
86.9945	111
87.9866	12
88.9839	53
89.3787	3
90.0351	19
91.0130	675
92.0176	50
93.0300	373
94.0352	27
94.4894	3
95.0330	315
96.0269	22
97.0257	68
97.9797	11
98.4223	1
99.0213	26
100.0070	5
101.0183	22
102.0024	52
103.0120	148
104.0278	65
105.0372	687
106.0387	44
107.0462	307
108.0285	34
109.0544	999
110.0216	16
111.0285	131
111.4768	2
112.0357	7
113.0219	63
113.9686	20
115.0033	457
116.0113	159
117.0152	347
118.0192	58
119.0247	735
120.0289	40
121.0260	244
122.0188	32
123.0201	85
123.5098	2
124.0128	7
125.0328	36
125.9778	33
127.0092	266
127.9986	541
128.9994	544
130.0044	193
131.0136	390
132.0255	75
133.0183	287
134.0152	35
135.0220	368
136.0082	24
137.0088	110
137.3890	3
138.0154	15
138.9821	131
140.0115	38
140.9892	504
142.0032	376
143.0110	576
144.0228	151
145.0209	423
146.0053	68
147.0158	609
148.0259	39
149.0399	97
150.0001	27
151.0294	118
152.0093	284
153.0138	333
154.0297	175
155.0332	479
156.0435	280
157.0458	480
158.0415	114
159.0486	326
160.0446	55
161.0578	161
162.0390	20
163.0435	75
164.0549	47
165.0340	567
166.0469	199
167.0592	401
168.0708	162
169.0771	430
170.0903	148
171.0787	323
172.0721	80
173.0859	233
174.0672	28
175.0930	62
176.0622	69
177.0653	73
178.0570	343
179.0570	469
180.0621	202
181.0665	444
182.0821	161
183.0696	360
184.0699	99
185.0678	156
186.0846	37
187.0594	81
188.0638	26
189.0398	223
190.0546	93
191.0501	339
192.0524	221
193.0582	444
194.0663	205
195.0703	443
196.0703	126
197.0770	272
198.0751	61
199.0784	123
200.0439	46
201.0712	67
202.0378	206
203.0462	230
204.0507	100
205.0526	250
206.0734	193
207.0748	400
208.0767	155
209.0838	311
210.0744	74
211.0793	223
212.0925	36
213.0645	99
214.6052	142
215.0670	261
216.0775	125
217.0900	266
218.0937	115
219.1025	266
220.1055	130
221.1168	265
222.1146	107
223.1128	226
224.1068	62
225.1276	100
226.1007	74
227.1053	91
228.1103	102
229.1048	203
230.1278	102
231.1232	242
232.1392	131
233.1458	264
234.1507	104
235.1387	191
236.1506	60
237.1363	144
238.1396	29
239.1090	145
240.1208	40
241.1251	121
242.1315	65
243.1226	186
244.1343	86
245.1355	231
246.1417	119
247.1436	203
248.1490	66
249.1438	137
250.1201	38
251.1609	68
252.1114	72
253.1310	116
254.1306	44
255.1275	148
256.1449	80
257.1455	179
258.1480	73
259.1441	165
260.1540	65
261.1595	160
262.1779	37
263.1542	128
264.1575	38
265.1345	93
266.1243	52
267.1458	117
268.1440	46
269.1519	165
270.1555	66
271.1530	145
272.1524	49
273.1631	132
274.1647	46
275.1555	95
276.1733	33
277.1661	67
278.1690	15
279.1564	68
280.1410	36
281.1573	129
282.1549	56
283.1560	102
284.1590	44
285.1527	118
286.1498	47
287.1740	87
288.1385	24
289.1648	58
290.1488	21
291.1519	44
292.1095	21
293.1810	65
294.1667	37
295.1460	84
295.5970	5
296.1522	41
297.1508	81
298.1923	39
299.1645	96
300.1322	34
301.1586	63
302.2074	17
303.1758	41
304.1728	12
305.1543	38
306.1739	15
307.1621	68
308.1775	24
309.1487	51
310.1582	25
311.1552	63
312.1603	25
313.1656	73
314.1870	16
315.1849	83
316.1702	18
317.1542	33
318.1210	8
319.1370	29
320.1803	13
321.1650	40
322.1722	16
323.1558	43
324.1348	22
325.1695	45
326.1696	17
327.1729	67
328.1829	19
328.5720	3
329.2025	40
330.2065	17
331.1947	37
332.2133	13
333.2036	87
334.2496	20
335.2259	41
336.1641	10
337.2011	34
338.2044	19
339.2149	43
340.1700	18
341.2158	47
341.6466	3
342.2062	14
342.6705	3
343.2159	35
344.2225	8
345.2229	31
346.2458	25
347.2513	39
348.2491	23
349.2295	19
350.3788	8
351.1972	23
352.2306	10
353.1989	28
354.1896	14
355.2554	30
356.2019	7
357.2552	23
358.2705	6
359.2461	24
360.2904	20
361.2743	21
362.2519	9
362.8453	3
363.3142	10
364.2188	5
364.6288	4
365.2766	16
366.1540	6
367.2700	18
367.7540	3
368.2937	7
369.2333	30
370.1889	12
371.2370	22
372.2725	14
373.2875	24
374.2898	20
375.2668	10
375.6478	2
376.3029	3
376.6903	1
377.2435	4
378.1364	4
379.2574	12
380.2539	4
381.2484	22
382.2876	5
383.2615	27
384.2372	8
385.2784	38
386.3198	24
387.2815	12
388.3120	10
389.2277	8
390.3190	4
391.2876	5
391.7839	1
392.2132	4
393.2810	10
394.3234	8
395.2366	21
396.2777	5
397.2598	18
398.2675	5
399.2674	53
400.3202	43
401.2979	95
402.2534	19
402.6833	3
403.2218	2
403.7732	2
404.3678	2
404.6203	2
405.3236	5
406.3867	5
407.3012	6
407.7888	1
408.4460	2
409.3768	10
409.7110	4
410.3012	10
411.2801	25
412.3022	10
413.2724	66
414.2727	19
415.3291	73
416.3392	5
417.3191	104
418.2863	18
419.2744	2
419.6502	2
420.1139	1
420.3874	2
421.4156	2
422.3065	2
422.7191	1
423.2134	3
424.4324	3
424.7220	1
425.3155	11
426.2963	6
427.3044	41
428.2998	40
429.3146	188
429.8360	6
430.3187	11
430.7583	2
431.2315	3
432.3699	1
433.3804	3
434.2951	4
434.6533	1
435.3266	7
435.7600	2
436.1471	1
437.1612	2
437.4507	1
438.1801	3
439.3304	9
440.1160	2
440.4456	1
441.2985	10
442.3179	22
443.3102	26
444.2546	10
445.2870	30
446.1339	2
447.2963	4
448.2746	2
449.2274	2
449.7494	1
450.2971	1
451.3142	5
451.7979	2
452.3713	3
453.2652	5
453.5648	4
454.1319	4
454.5725	2
455.3848	3
455.7774	2
456.4343	2
456.8606	2
457.3205	4
457.8301	1
458.3414	3
459.1684	3
459.6075	1
460.3336	4
461.4125	3
462.0650	0
462.5491	3
463.3636	4
463.9023	2
464.3898	2
465.2492	4
465.9353	3
466.4568	1
467.0342	2
467.5077	3
468.5955	5
469.1299	3
469.4706	4
470.9875	10
471.9812	2
472.2868	2
472.6645	1
473.0582	2
473.4487	2
474.4026	3
475.3277	6
475.9264	3
476.3170	8
476.7524	1
477.3607	5
478.2332	4
478.7472	2
479.2740	6
479.5910	3
480.4108	2
481.3957	4
482.2621	5
483.3415	10
484.0175	8
484.6454	5
485.4991	5
486.4955	4
488.2899	4
489.2193	2
489.5205	4
490.3009	2
491.2945	6
491.7496	6
492.3234	9
492.8972	3
493.4292	6
494.3656	4
494.7546	2
495.4382	7
496.2066	4
496.5349	3
497.3690	10
498.4082	10
499.0439	3
499.7853	3
500.3842	2
501.2587	4
503.0013	8
503.6981	4
504.3388	6
504.8130	4
505.3433	5
506.3477	31
507.3283	4
508.0172	5
508.8601	3
509.4418	10
511.3873	14
512.3986	28
513.3586	14
514.3797	2
515.0177	3
515.3912	2
515.7407	2
516.3322	0
516.6849	1
517.4449	4
518.3828	20
519.3785	21
520.4413	3
520.8351	1
521.3762	6
522.0485	1
522.5527	2
523.3836	8
524.3858	6
525.5226	9
526.2831	7
527.4585	15
528.7572	6
529.4955	6
530.2675	4
531.1019	3
531.7650	2
532.3353	4
532.9504	2
533.7946	5
534.3024	3
536.0391	3
536.4380	5
537.9505	6
539.3766	41
540.4055	19
541.4007	9
542.2789	10
542.8704	1
543.2855	4
543.4858	2
544.1430	2
544.7329	3
545.2555	2
546.0522	4
546.5635	4
547.2722	5
547.6104	2
547.8894	2
548.5644	3
549.3099	5
549.8326	2
550.2527	3
551.0031	3
551.4265	4
552.5891	7
553.4214	11
555.3909	37
557.0076	16
559.4058	19
561.8796	22
565.1554	188
566.3184	10
566.8975	6
567.5393	10
568.4692	14
569.4634	10
570.7039	14
580.5578	532
581.6025	84
583.5618	844
598.4747	999
601.3997	194
602.5118	85
603.4551	44
