Mass spectrum: gamma-Tocotrienol; FAB-EBEB; MS2; m/z: 432.30; [M-H+Na]*+
Name: gamma-Tocotrienol
Class: Natural Product; Lipid
Formula: C28H42O2
Exact mass: 410.31848
SMILES: C(=CCCC(C2)(C)Oc(c(C2)1)c(C)c(C)c(O)c1)(C)CCC=C(C)CCC=C(C)C
InChI: InChI=1S/C28H42O2/c1-20(2)11-8-12-21(3)13-9-14-22(4)15-10-17-28(7)18-16-25-19-26(29)23(5)24(6)27(25)30-28/h11,13,15,19,29H,8-10,12,14,16-18H2,1-7H3/b21-13+,22-15+/t28-/m1/s1
Instrument: JMS-HX/HX 110A, JEOL
Instrument type: FAB-EBEB
Ms type: MS2
Ion mode: POSITIVE
Collision energy: 3 kV
Ionization: FAB
Base peak: 432.3015
Precursor m/z: 432.30
Precursor type: [M-H+Na]+*
m/z	relative intensity
0.8772	0
1.1428	0
1.4600	0
5.0910	0
10.5630	0
11.9868	0
13.0098	0
14.0033	0
14.2709	0
15.0292	1
18.1673	0
19.9332	0
21.7214	0
22.4137	0
22.5659	0
22.9845	540
23.4629	0
23.6263	0
23.9869	0
24.3459	0
25.0280	0
26.0086	2
27.0195	10
28.0158	1
29.0286	5
30.0320	0
34.2546	0
34.9122	0
35.9759	0
36.9972	1
38.0101	3
38.5459	0
39.0044	15
40.0148	2
41.0163	30
42.0212	1
43.0128	7
43.7041	0
44.9797	0
45.6528	0
47.9775	0
48.9986	0
49.1833	0
50.0033	3
50.9822	7
51.9924	3
53.0021	16
54.0101	2
55.0152	21
56.0014	0
56.2617	0
56.7062	0
57.0133	1
58.0475	0
61.0006	0
61.9801	2
62.4189	0
62.9948	4
63.9939	1
65.0013	8
65.4757	0
66.0111	4
66.3190	0
67.0145	31
67.4842	0
68.0182	17
68.4434	0
69.0230	129
70.0152	1
71.0389	0
72.0735	0
72.7267	0
72.9575	0
73.3780	0
73.9828	1
74.5756	0
74.9710	2
75.3289	0
75.9608	1
76.3137	0
77.0092	18
77.3600	0
77.6990	0
78.0092	4
78.6263	0
79.0247	21
80.0174	3
81.0317	33
82.0271	2
82.6134	0
83.0135	2
83.7313	0
83.9216	0
84.9620	0
85.1039	0
85.9230	1
87.0252	0
87.9419	0
88.5791	0
89.0422	2
89.3752	0
90.0212	2
90.3363	0
90.5886	0
91.0360	27
92.0321	3
93.0445	19
94.0535	3
94.4653	0
95.0519	11
95.6203	0
96.0509	0
97.0162	0
98.0843	0
98.9796	0
100.6880	0
100.9548	1
101.4929	0
102.0157	1
102.3711	0
103.0437	4
104.0480	1
105.0317	11
105.4435	0
106.0589	1
107.0370	14
108.0153	2
108.4795	0
109.0361	3
109.9312	0
111.0066	1
111.9369	0
112.4578	0
112.9811	0
113.3706	0
113.5271	0
114.1395	0
114.3185	0
114.6319	0
115.0030	5
115.3060	0
116.0415	2
117.0363	5
117.9787	1
118.4230	0
119.0197	6
120.0061	1
120.4589	0
121.0161	12
121.5188	0
122.0068	8
122.4745	0
123.0136	3
123.6003	0
124.0279	1
125.0131	1
125.9947	0
126.1600	0
126.3394	0
127.0023	2
127.3485	0
128.0066	4
128.9999	2
129.9985	2
131.0078	4
131.9203	1
132.1072	0
133.0141	5
133.4406	0
133.9718	3
135.0327	7
136.0324	1
136.4186	0
137.0559	4
137.9579	1
138.1360	1
138.6136	0
139.0050	1
139.5912	0
139.9807	0
140.6714	0
141.0316	2
141.3526	0
141.6681	0
142.0484	1
143.0430	3
143.3995	0
144.0438	1
145.0706	3
145.6541	0
146.0784	1
146.6096	0
147.0672	7
147.5877	0
148.0986	1
148.5512	0
149.0657	3
149.5891	0
150.0312	6
150.4613	0
150.6499	0
151.0471	25
152.0582	2
153.0777	1
153.3395	0
154.0470	0
154.4658	0
154.6554	0
155.0368	1
155.5572	0
156.0414	1
156.6515	0
157.0500	2
158.0415	1
158.4690	0
159.0702	4
160.0674	2
160.4999	0
161.0941	7
161.5899	0
162.0150	2
162.3140	0
163.0761	2
164.0924	1
164.5747	0
165.0893	2
165.4121	0
166.1079	1
166.4353	0
167.0482	2
167.9124	0
168.2146	0
169.0916	1
169.9789	2
170.3772	0
171.0003	10
172.0033	106
173.0246	11
174.0197	5
174.5961	0
175.0477	10
176.0427	4
177.0528	1
177.9461	1
178.1985	0
179.0789	1
179.9798	0
180.2112	0
181.0398	1
182.0266	1
183.0821	1
183.4740	0
184.0172	1
184.4272	0
184.9582	1
185.2171	0
186.0521	1
187.0457	3
188.0418	2
188.4660	0
189.0542	18
189.5302	0
190.0557	8
190.4522	0
191.0487	6
192.0837	1
193.0629	0
193.6803	0
194.1257	1
195.1688	1
195.7631	0
196.0794	0
197.0422	1
197.9930	3
198.2363	1
198.4696	0
199.0376	2
199.6756	0
200.0770	1
200.5146	0
201.0830	1
201.6200	0
202.0702	2
202.5149	0
203.1221	2
204.0954	1
205.0859	2
206.0384	1
206.2362	1
206.9381	0
207.1201	0
207.9003	0
208.1423	0
209.0516	0
210.1402	1
211.0642	6
212.0710	21
213.0737	22
213.5214	0
214.0393	2
214.4182	0
215.1105	1
216.0734	1
216.4435	0
217.1668	1
217.7408	0
218.0046	0
218.2843	0
218.6252	0
219.1009	0
219.9710	0
221.3502	0
221.9862	1
222.2345	1
222.4159	0
222.9602	0
223.1666	0
224.0287	0
225.1043	2
226.0804	9
227.1192	4
227.6824	0
228.1015	3
228.3105	1
229.1818	1
229.9612	0
230.3317	0
230.9250	0
231.1171	0
232.2955	0
233.1040	0
234.0047	0
235.0987	0
236.1999	0
236.5727	0
236.8591	0
237.1706	1
237.5765	0
238.0768	0
239.1435	2
240.0877	3
240.5883	0
241.1106	3
242.0530	1
242.3045	0
243.1823	1
244.0374	0
244.2436	0
244.5704	0
245.0716	0
245.6605	0
246.2997	0
247.0529	0
247.1827	0
247.4798	0
248.0571	0
248.2632	0
249.1310	0
250.1197	0
251.0311	0
252.0909	1
253.1920	1
254.1805	1
254.8031	0
255.1339	1
255.3597	0
256.0817	0
257.0959	1
257.3127	0
258.0407	0
259.0976	0
260.0394	0
260.3899	0
260.7393	0
260.9277	0
261.4801	0
262.1255	0
263.0391	1
263.3448	0
263.9802	1
264.2666	0
264.9615	0
265.2159	1
266.1632	1
266.9577	1
267.2214	0
268.1724	1
268.3814	0
269.1385	1
270.2384	0
270.9593	0
271.1832	1
272.1932	2
272.3852	1
273.1121	1
273.5681	0
273.9293	1
274.0859	0
274.7318	0
275.1468	0
276.1290	0
277.1023	1
277.9899	1
278.2782	0
279.1923	2
279.4509	0
280.1364	7
281.1481	2
282.2069	1
283.2041	16
284.0468	0
284.3274	0
285.1234	1
286.3284	1
287.7010	0
288.2797	0
289.3444	0
289.9347	0
290.1617	0
290.3669	0
290.5847	0
291.0031	0
291.2599	0
291.5408	0
292.1531	0
292.4180	1
293.1680	1
294.1613	53
295.1662	31
296.1736	9
297.1948	1
297.4794	0
298.2243	1
298.9187	0
299.3410	0
299.6126	0
299.9576	0
300.3278	0
300.5960	0
301.1290	1
302.9873	1
303.5388	0
304.2452	1
305.2694	0
306.1698	1
306.3843	0
306.6550	0
306.9154	0
307.2734	1
308.1695	12
309.1552	3
310.2179	1
311.0237	0
311.3279	0
312.0454	0
312.2348	0
312.9099	0
313.1465	0
314.0341	0
314.2109	0
314.6531	0
315.0068	0
315.2457	0
316.2369	0
316.8492	0
318.2922	0
318.6852	0
319.2804	0
319.8435	0
320.1343	1
320.2688	0
320.5159	0
320.9848	1
321.1883	0
321.3997	0
322.1619	1
323.1032	0
323.4396	0
324.0606	1
324.2558	0
325.0273	0
325.4291	0
326.2134	1
327.2952	0
327.8476	0
328.3552	0
329.0789	0
330.1874	0
330.4368	0
331.1824	0
332.2855	1
332.9382	0
333.2876	0
333.7358	0
334.2036	1
335.2002	1
335.5082	0
336.0811	0
336.2717	0
337.1168	0
337.5291	0
337.8897	0
338.4467	0
339.3322	0
339.9295	0
340.1455	1
340.3730	0
341.0749	0
341.3264	0
343.2625	1
343.5946	0
344.0830	0
344.5910	0
344.8760	0
345.0151	0
345.6817	0
346.0001	1
346.2173	1
346.4369	0
347.1347	1
348.2395	12
349.2559	2
350.1436	1
350.5829	1
350.8773	0
351.0970	0
351.4179	1
351.6663	1
351.9285	0
352.2218	1
352.7325	0
353.1512	0
353.6217	0
354.2303	0
354.3856	0
355.1587	0
356.4485	0
356.9779	0
357.3645	1
357.6994	0
358.3209	0
358.5511	0
359.3245	0
359.5789	0
360.0911	1
360.4284	1
360.9706	1
361.2101	1
361.5013	0
362.2473	43
363.2352	25
364.2147	4
364.5067	1
364.9251	0
365.2792	0
365.9897	0
366.4036	0
366.7416	0
367.3360	0
367.7039	0
368.1616	0
368.3766	0
368.8297	0
370.1913	1
370.9873	0
371.5290	0
372.5769	0
373.2672	0
373.5375	0
374.2405	1
375.1206	0
375.2817	0
376.2379	4
377.2057	4
378.1986	1
379.1538	0
379.7470	0
379.9448	0
380.3069	0
381.5071	0
382.2074	0
382.4546	0
383.0939	0
384.2116	0
384.7717	1
384.9339	0
385.4480	0
385.8919	0
386.1507	0
386.6810	0
387.1595	1
387.4700	0
388.2189	1
389.2117	1
390.3128	2
391.1274	0
391.5808	0
391.9536	0
392.4668	0
393.5371	0
394.0561	0
394.3715	0
396.5308	0
396.7495	0
397.3309	0
397.6095	0
397.9709	1
398.5638	0
398.8563	0
399.2742	1
399.6208	0
399.9662	0
400.2656	1
400.5960	0
400.9991	1
401.5023	0
402.2727	3
402.8693	0
403.3933	1
404.2893	2
404.8088	0
407.1207	0
408.1011	0
408.9080	0
409.1656	0
409.4301	0
409.9604	0
410.4377	0
410.9243	1
411.4143	0
411.9976	0
412.3197	0
412.7465	0
412.9282	0
413.1675	0
413.4103	1
414.3951	7
415.3524	3
416.3040	16
417.3362	25
418.2569	2
418.5930	0
420.7211	0
421.6846	1
421.9896	0
422.4305	1
422.9152	1
423.1109	1
423.3687	1
424.7204	2
432.3015	999
433.1861	99
434.1291	25
435.0456	9
436.1910	5
436.9593	3
437.7782	2
439.4921	2
441.1037	1
441.7790	3
442.4221	2
