Mass spectrum: Halocynthiaxanthin acetate; FAB-EBEB; MS2; m/z: 640.41; [M]+*
Name: Halocynthiaxanthin acetate
Formula: C42H56O5
Exact mass: 640.41277
SMILES: C(C=1C)C(CC(C1C#CC(=CC=CC(C)=CC=CC=C(C)C=CC=C(C)C(=O)CC(C3(C)C)(O2)C(C)2CC(O)C3)C)(C)C)OC(C)=O
InChI: InChI=1S/C42H56O5/c1-29(18-14-19-31(3)22-23-37-33(5)24-36(46-34(6)43)27-39(37,7)8)16-12-13-17-30(2)20-15-21-32(4)38(45)28-42-40(9,10)25-35(44)26-41(42,11)47-42/h12-21,35-36,44H,24-28H2,1-11H3/b13-12+,18-14+,20-15+,29-16+,30-17+,31-19+,32-21+/t35-,36+,41+,42-/m0/s1
Instrument: JMS-HX/HX 110A, JEOL
Instrument type: FAB-EBEB
Ms type: MS2
Ion mode: POSITIVE
Collision energy: 3 kV
Ionization: FAB
Base peak: 109.0908
Precursor m/z: 640.41
Precursor type: [M]+*
m/z	relative intensity
1.0448	0
1.1222	0
4.3177	0
5.7685	0
7.1165	0
11.5946	0
11.9966	0
12.9991	0
14.0098	1
15.0226	7
15.9633	0
16.3497	0
20.3163	0
22.9458	0
23.4195	0
23.9652	0
24.6037	0
24.7742	0
25.0028	1
26.0066	5
27.0165	38
28.0209	4
28.5212	0
29.0238	31
29.9800	0
31.0049	5
33.1276	0
34.1025	0
35.7355	0
35.9917	0
36.9997	4
37.3974	0
37.9994	12
39.0127	98
40.0180	13
40.3176	0
41.0271	200
42.0096	8
42.4828	0
43.0092	808
44.0082	5
45.0147	8
45.5546	0
46.9965	1
48.1091	0
48.5146	0
49.0041	2
49.3019	0
50.0011	27
51.0093	67
52.0150	22
53.0241	121
54.0378	6
55.0395	228
55.6508	0
56.0404	5
56.4473	0
57.0529	97
58.0527	3
59.0395	25
60.0350	0
60.2943	0
60.4838	0
61.0221	8
62.0138	23
63.0183	65
64.0213	13
65.0273	104
66.0323	21
67.0402	186
68.0441	7
69.0399	271
70.0193	7
71.0308	91
72.0107	1
72.6886	1
73.0364	3
73.9973	27
75.0136	32
76.0170	20
77.0236	276
78.0308	57
79.0370	200
80.0283	17
81.0506	182
82.0282	11
83.0622	632
84.0414	6
85.0615	192
86.0093	15
87.0221	70
88.0177	10
89.0345	50
90.0296	13
91.0387	557
92.0489	44
93.0601	312
94.0535	21
94.5017	1
95.0608	267
96.0487	15
96.5074	1
97.0468	54
98.0193	13
98.5693	1
99.0364	32
100.0631	4
101.0567	23
102.0376	44
103.0485	122
104.0482	48
105.0617	645
106.0654	46
107.0754	243
108.0531	23
109.0908	999
110.0591	14
111.0655	111
112.0333	7
113.0418	53
114.0294	22
115.0428	441
116.0489	138
117.0536	287
118.0523	59
119.0618	671
120.0546	36
121.0657	238
122.0402	22
122.5433	2
123.0605	65
124.0242	6
125.0566	35
126.0261	39
127.0492	264
128.0307	529
129.0351	527
130.0393	165
131.0479	348
132.0455	55
133.0507	246
134.0478	19
135.0555	312
136.0318	16
137.0498	95
138.0270	15
139.0209	121
140.0648	32
141.0289	482
142.0348	361
143.0418	519
144.0389	132
145.0545	339
146.0444	53
147.0386	345
148.0496	23
149.0537	70
150.0242	30
151.0526	117
152.0377	262
153.0428	311
154.0616	141
155.0623	475
156.0672	245
157.0731	439
158.0704	93
159.0686	235
160.0694	34
161.0758	130
162.0927	16
163.0722	80
164.0829	47
165.0673	551
166.0766	176
167.0851	341
168.0928	132
169.1014	366
170.1109	114
171.1147	266
172.1049	57
173.1216	280
174.1160	21
175.1151	43
176.0844	67
177.1043	77
178.0863	354
179.0932	472
180.1008	193
181.1027	378
182.1038	125
183.1104	282
184.1225	65
185.1030	116
186.1036	32
187.0967	66
188.0840	23
189.0769	214
190.0915	82
191.0824	257
192.0853	236
193.0921	433
194.1029	173
195.1028	346
196.1066	94
197.1111	196
198.0965	54
199.1202	199
200.0855	45
201.1022	50
202.0752	230
203.0766	238
204.0770	99
205.0911	274
205.6098	110
206.0893	208
207.0996	374
208.1120	134
209.1103	231
210.1057	61
211.1017	167
212.1115	25
213.0970	91
214.1110	29
215.0860	270
216.0945	133
217.0985	254
218.1097	128
219.1097	298
220.1335	146
221.1378	266
222.1411	78
223.1464	174
224.1389	40
225.1436	66
226.1171	85
227.1326	82
228.1320	108
229.1285	236
230.1420	112
231.1444	287
232.1538	135
233.1604	291
234.1757	106
235.1765	180
236.1777	43
237.1826	130
238.1862	44
239.1609	164
240.1328	46
241.1433	109
242.1526	72
243.1606	190
244.1606	99
245.1711	241
246.1670	127
247.1782	242
248.1815	72
249.1885	170
250.1658	51
251.2020	100
252.1549	81
253.1500	107
254.1522	47
255.1513	108
256.1642	67
257.1658	141
258.1761	72
259.1750	192
260.1859	80
261.1872	211
262.1938	44
263.1941	167
264.1830	48
265.1816	93
266.1600	49
267.1656	81
268.1514	43
269.1644	106
270.1693	55
271.1796	124
272.1767	50
273.1859	119
274.1920	46
275.2002	113
276.1817	54
277.1955	82
278.1523	23
279.1549	60
280.1443	34
281.1745	76
282.1797	42
283.1851	102
284.1780	46
285.1892	102
286.1822	32
287.1855	94
288.2263	27
289.2083	91
290.1872	26
291.1866	40
292.1744	19
293.1541	47
294.1762	25
295.1817	68
296.1841	33
297.1851	90
298.2015	38
299.1996	95
300.2030	26
301.2127	62
302.2138	20
303.1848	49
304.2101	14
305.1933	37
306.1920	22
307.1707	44
308.1851	23
309.1795	55
310.1724	29
311.1943	72
312.1792	27
313.1863	79
314.1767	21
315.2114	105
316.2091	19
316.6435	4
317.2239	36
318.1949	10
319.1796	26
320.1424	13
321.1751	36
322.1996	18
323.1868	49
324.1947	19
325.1943	55
326.1941	19
327.2077	54
328.1960	19
329.2151	42
330.2344	19
331.2267	20
332.2005	6
333.1932	19
334.2015	10
335.2184	28
336.2134	17
337.1881	51
338.2057	19
339.2047	44
340.2055	16
341.2305	41
342.2488	13
343.2451	22
344.2433	6
345.2246	9
346.1992	4
347.2153	14
348.2469	5
349.2088	22
350.2135	11
351.2337	43
352.2489	15
353.2388	56
354.2681	10
355.2566	30
356.2828	14
357.2631	11
358.2862	3
359.2822	7
360.2186	2
361.2388	7
362.2575	5
363.2456	17
364.2424	10
365.2497	31
366.3033	12
367.2886	47
368.2826	22
369.2853	21
370.2318	4
371.2982	7
372.3356	4
372.5736	2
373.2688	5
373.7705	2
374.4144	2
375.2778	16
376.3030	4
377.2481	9
378.2787	5
379.2942	27
380.2909	8
381.2964	41
382.3396	17
383.3112	36
384.2931	7
385.2650	8
386.3687	3
387.3134	4
388.3045	4
389.3197	11
390.2727	3
391.2719	8
392.2711	3
393.2672	17
394.2599	9
395.2801	47
396.3004	10
397.3398	12
398.3484	5
399.3110	43
400.2788	4
401.2690	7
402.3467	4
403.2737	4
403.8102	1
404.2883	2
405.3099	5
407.3002	8
408.3633	4
409.2911	31
410.2635	8
411.3013	46
412.3409	4
413.3000	6
414.2661	4
415.2871	7
415.8140	1
416.3152	2
417.2456	3
418.2018	1
419.2852	3
420.3996	2
421.3579	3
422.3060	2
423.3108	4
424.2716	5
425.3201	16
426.3086	8
426.7634	1
427.3418	11
428.2808	2
429.2439	3
430.3462	4
431.1961	3
431.7456	1
432.2162	1
433.3137	4
433.7379	1
434.3769	3
435.3217	4
435.9798	1
436.3749	2
436.7409	0
437.3818	4
438.2805	2
439.2378	3
439.6279	1
440.2398	2
441.2912	7
442.3212	10
443.3186	32
444.2733	7
444.6716	2
445.3379	4
445.8496	0
446.3116	1
447.3867	3
447.7457	1
448.4551	1
449.2900	3
450.1163	2
450.5854	1
451.3534	2
452.3913	2
453.2866	3
454.2662	2
455.2992	9
455.7977	2
456.3650	3
457.3380	27
458.4075	5
459.3257	37
460.3351	13
461.2827	2
461.5716	1
462.3026	2
463.3347	3
463.6891	1
464.3376	2
465.3045	4
465.7708	1
466.2319	2
467.3159	3
468.2125	3
469.2916	11
470.3123	11
471.3554	40
472.3384	5
472.7068	2
473.3060	4
474.3839	5
475.3688	3
475.8665	1
476.5244	1
477.3372	2
478.1886	2
478.6851	1
479.4566	5
480.4275	2
481.3744	3
481.7869	2
482.4245	1
483.4008	5
484.3445	10
485.3691	11
486.4144	3
487.3841	5
488.3935	10
489.6265	1
490.2404	1
490.5173	0
491.3205	3
492.3938	2
493.3675	3
494.3979	4
495.3976	5
496.4161	3
497.3522	2
498.3676	3
498.7978	1
499.4070	2
500.4466	3
501.4260	3
502.0302	1
502.4812	2
503.0011	1
503.5090	1
504.2958	2
504.8175	2
505.4098	2
506.0796	2
506.4274	1
507.3478	3
508.5086	1
509.3822	8
510.4468	2
511.3911	3
512.3286	2
513.3710	7
514.1744	2
514.9469	1
516.1306	2
516.9119	2
517.3610	2
518.0768	2
518.6447	3
519.3865	4
520.1214	3
521.3830	3
522.2350	3
523.2886	4
523.7792	1
524.3852	4
525.3597	4
526.2344	3
527.5499	3
529.8231	7
531.4594	5
531.9020	3
533.0337	3
534.3723	5
535.2858	6
536.5224	2
537.4133	5
538.2459	4
538.6639	2
539.3984	10
540.3756	4
541.3752	6
542.1581	3
543.2145	3
545.0851	8
547.4102	16
548.4326	15
550.9200	39
552.5917	20
554.4460	22
555.3242	15
556.8586	7
557.6990	5
559.3903	4
560.3790	13
561.4091	12
565.4283	176
569.6122	20
572.1647	11
574.2228	8
575.3003	5
576.0485	4
576.6950	3
579.4761	47
580.4693	267
581.4819	105
582.3272	6
583.3264	4
584.4396	2
584.7975	1
585.6412	1
586.2498	0
586.9241	1
587.4584	1
588.0289	1
588.7051	1
589.0198	0
589.6077	1
590.4049	1
590.9531	1
591.5618	1
591.9129	0
592.5131	1
593.6321	2
594.3360	2
594.8999	2
595.6402	3
596.5829	26
597.6071	80
598.6191	29
599.6295	2
600.2073	1
601.2091	2
602.1711	1
602.8945	1
603.4655	1
604.4017	2
605.4002	1
605.7723	1
606.0992	0
606.6571	2
607.5797	8
608.9318	1
609.6542	2
610.6042	8
611.1725	1
611.6365	2
612.6329	3
613.7765	2
617.5092	5
622.5715	90
623.5392	20
625.4816	150
640.4032	999
644.5637	62
