Mass spectrum: Rhodopin; FAB-EBEB; MS2; m/z: 554.45; [M]*+
Name: Rhodopin
Class: Natural Product; Carotenoid
Formula: C40H58O
Exact mass: 554.44877
SMILES: CC(=CC=CC(=CC=CC=C(C=CC=C(C)C=CC=C(CCC=C(C)C)C)C)C)C=CC=C(C)CCCC(C)(C)O
InChI: InChI=1S/C40H58O/c1-33(2)19-13-22-36(5)25-16-28-37(6)26-14-23-34(3)20-11-12-21-35(4)24-15-27-38(7)29-17-30-39(8)31-18-32-40(9,10)41/h11-12,14-17,19-21,23-30,41H,13,18,22,31-32H2,1-10H3/b12-11+,23-14+,24-15+,28-16+,29-17+,34-20+,35-21+,36-25+,37-26+,38-27+,39-30+
Instrument: JMS-HX/HX 110A, JEOL
Instrument type: FAB-EBEB
Ms type: MS2
Ion mode: POSITIVE
Collision energy: 3 kV
Ionization: FAB
Base peak: 554.3457
Precursor m/z: 554.45
Precursor type: [M]+*
m/z	relative intensity
0.0019	0
0.1718	0
0.5307	0
2.4745	0
6.9304	0
11.1474	0
12.0831	0
12.9630	1
13.9700	1
14.6840	0
14.9783	6
15.9971	0
20.2597	0
22.9160	1
24.4470	0
24.9336	2
25.9588	6
26.9577	28
27.9584	4
28.9626	21
29.9520	0
30.9399	9
34.0775	0
34.7989	0
35.9267	1
36.7846	0
36.9370	3
37.4342	0
37.9414	4
38.9467	27
39.3061	0
39.4878	0
39.6572	0
39.8148	0
39.9493	6
40.7974	1
40.9638	83
41.2738	0
41.9669	3
42.9653	24
43.9243	0
44.9440	1
47.6209	1
48.9045	1
49.9343	4
50.9463	9
51.9403	2
52.9571	12
53.9626	1
54.7426	1
54.9760	40
55.2327	1
55.9693	0
56.9924	4
58.7936	1
58.9673	34
59.8004	0
60.0011	1
60.8128	0
60.9386	1
61.6843	0
61.7618	1
61.9429	3
62.5519	0
62.6689	0
62.9524	9
63.0781	0
63.6873	0
63.9326	3
64.7265	1
64.9488	19
65.8123	1
65.9577	3
66.9657	31
67.9931	3
68.9761	198
69.2351	0
69.4219	0
69.9697	4
70.9454	4
72.7580	1
73.4138	1
73.7703	1
73.9325	5
74.6223	1
74.9260	9
75.3352	0
75.7599	0
75.9309	6
76.1341	0
76.3208	2
76.4314	1
76.9266	78
77.0909	1
77.3489	1
77.6155	1
77.9381	22
78.3572	0
78.9420	90
79.1902	0
79.3320	0
79.9442	8
80.9657	152
81.1707	0
81.4380	1
81.9787	5
82.9769	17
83.7972	0
83.9050	2
84.6425	1
84.7057	0
84.8798	1
84.9828	1
85.1536	0
85.6807	0
85.9032	3
86.8943	6
87.8436	1
87.9669	1
88.8986	19
89.1849	4
89.2740	2
89.4006	2
89.9009	6
90.0927	1
90.1965	0
90.3579	0
90.4969	1
90.9233	283
91.2474	0
91.3635	1
91.5363	1
91.9291	28
92.3749	2
92.4461	1
92.9539	197
93.1917	1
93.2834	1
93.7320	0
93.9782	12
94.1729	0
94.3856	1
94.4816	0
94.9796	94
95.6373	1
95.9767	2
96.3647	1
96.8040	1
96.9600	3
97.1371	0
97.3752	0
97.6812	0
97.7907	1
97.9113	3
98.6873	1
98.9337	1
99.6953	1
99.9304	3
100.3145	1
100.5622	1
100.9173	9
101.1217	1
101.2254	1
101.3038	0
101.5013	1
101.6205	1
101.9125	16
102.1262	1
102.2537	1
102.6241	7
102.9403	68
103.3466	1
103.5987	1
103.9451	29
104.2680	2
104.9440	416
105.2806	0
105.4979	1
105.9643	38
106.2592	1
106.3316	0
106.9662	183
107.4256	2
107.7562	0
107.9817	13
108.3007	1
108.6288	1
108.9929	62
109.4419	1
109.5833	0
109.8315	2
109.9736	1
110.6706	1
110.9671	6
111.3769	0
112.2816	1
112.4110	0
112.7239	2
112.9194	7
113.0568	2
113.1425	1
113.3754	2
113.5849	1
113.6701	3
113.9782	4
114.8908	179
115.1338	2
115.2987	2
115.6142	5
115.9178	73
116.2553	4
116.9102	191
117.2433	2
117.4256	1
117.6032	2
117.9215	43
118.1143	1
118.2974	1
118.9416	398
119.3102	2
119.4052	1
119.6287	2
119.9594	43
120.1758	2
120.3158	0
120.4098	1
120.9551	151
121.2506	2
121.4680	1
121.6848	0
121.9563	4
122.1641	1
122.3672	1
122.4431	0
122.6426	1
122.9729	29
123.5499	0
123.8239	0
124.0256	2
124.5661	1
124.8058	3
124.9851	3
125.0937	1
125.2072	0
125.4214	1
125.5245	0
125.8896	10
126.1358	2
126.8808	72
127.2000	3
127.8793	232
128.2449	4
128.3674	4
128.8950	273
129.1935	2
129.3861	2
129.9131	109
130.2563	1
130.9214	294
131.2090	3
131.4297	1
131.9291	96
132.1451	2
132.9373	266
133.2965	1
133.4561	1
133.6335	4
133.9498	23
134.1663	0
134.3792	1
134.5132	1
134.6188	2
134.9708	37
135.1580	0
135.3749	1
135.4664	0
135.6933	0
135.9307	5
136.3204	1
136.6774	1
136.9640	7
137.2470	0
137.6168	1
137.7048	0
137.8702	3
137.9830	1
138.1795	2
138.3047	1
138.8635	28
139.2711	2
139.4257	1
139.6771	2
139.9348	12
140.2124	5
140.8873	194
141.9086	189
142.1930	2
142.9191	344
143.1876	4
143.3222	2
143.9218	121
144.1557	2
144.2386	1
144.9393	393
145.2752	2
145.3620	0
145.5462	3
145.9522	27
146.2952	2
146.4240	3
146.9629	119
147.2512	1
147.4158	2
147.6310	1
147.7950	2
147.9733	4
148.1605	0
148.6652	1
148.7961	2
149.0073	7
149.2216	1
149.4202	2
149.6766	3
149.9080	5
150.0760	0
150.9092	16
151.1942	3
151.3612	3
151.8881	71
152.2939	2
152.8948	108
153.2445	2
153.3866	0
153.5350	1
153.9358	69
154.2121	3
154.9337	228
155.2411	3
155.4376	0
155.5996	6
155.9607	146
156.3163	1
156.9552	337
157.2985	3
157.5143	2
157.9606	53
158.4014	3
158.6693	5
158.9922	125
159.4099	1
159.4694	0
159.6262	1
160.0037	12
160.2478	1
160.3573	1
160.6337	3
161.0223	12
161.1920	2
161.2888	1
161.5003	1
161.8005	1
161.8904	1
162.0608	3
162.3921	1
162.6982	2
162.9353	13
163.1337	2
163.4057	2
163.6220	2
163.9417	13
164.0254	6
164.1789	4
164.9241	166
165.2529	2
165.4994	3
165.6461	4
165.9599	63
166.9561	166
167.1951	1
167.3511	2
167.5520	2
167.9668	72
168.3594	4
168.9826	230
169.2359	3
169.4917	4
169.9953	86
170.2513	1
170.4044	1
170.9904	179
171.2713	2
171.3985	3
171.6319	2
172.0045	28
172.2870	1
172.3761	0
172.5389	1
173.0118	84
173.2932	2
173.4453	2
173.6644	1
173.8083	2
174.0286	7
174.3612	1
174.5587	1
175.0137	12
175.3005	2
175.4153	2
175.9075	13
176.1308	1
176.2220	0
176.3336	2
176.6175	2
176.9468	12
177.1880	2
177.2940	2
177.9158	80
178.2256	2
178.3437	3
178.9302	120
179.3788	0
179.9529	70
180.2938	3
180.9533	157
181.2271	3
181.4089	2
181.5170	4
181.9626	65
182.3416	5
182.4946	2
182.9846	197
183.3754	2
183.5318	1
183.9849	54
184.1984	1
184.3356	1
184.5613	3
184.9941	109
185.4066	2
185.5054	1
185.7383	2
186.0110	14
186.1882	1
186.2934	1
186.7479	3
187.0118	28
187.3355	1
187.7228	1
187.9811	4
188.1668	1
188.2388	0
188.4110	2
188.9097	37
189.2923	1
189.4685	3
189.9418	20
190.0910	4
190.2126	2
190.4088	3
190.9230	60
191.4791	4
191.9433	66
192.1829	1
192.9468	129
193.2110	3
193.4540	2
193.9638	49
194.2327	2
194.9549	175
195.3490	2
195.4161	1
195.9813	51
196.2447	3
196.4221	4
196.9903	172
197.2428	3
197.5463	3
197.9991	32
198.2640	3
198.3984	2
198.6051	3
199.0104	71
199.4221	2
199.5728	3
199.7512	2
200.0041	7
200.3138	0
200.5266	1
200.9821	11
201.3328	2
201.9211	49
202.2169	1
202.5096	3
202.6844	5
202.9538	40
203.2368	1
203.4823	1
203.6119	3
203.9494	19
204.2339	2
204.3441	2
204.9371	54
205.5336	8
205.9668	52
206.1763	2
206.3534	1
206.9639	99
207.3014	2
207.4837	1
207.9868	49
208.2634	3
208.5341	5
209.0024	136
209.2947	2
209.5578	2
210.0158	19
210.2355	2
210.4064	2
210.5149	1
211.0076	74
211.2852	1
211.5512	1
211.6442	0
212.0279	16
212.3004	1
212.5268	5
212.6699	2
213.0167	26
213.3707	1
213.6596	4
213.9792	4
214.3165	2
214.4017	1
214.5476	4
214.9363	39
215.2717	2
215.9512	21
216.1668	2
216.4223	1
216.9671	43
217.3015	2
217.4553	1
217.9704	20
218.3382	1
218.4739	1
218.5984	2
218.9957	59
219.3950	3
220.0064	29
220.6911	5
221.0319	84
221.3453	3
221.6346	2
222.0186	22
222.3799	1
223.0325	53
223.5214	1
223.7325	2
223.8364	1
224.0587	11
224.3561	2
224.5385	1
224.6516	1
225.0701	25
225.4207	1
225.5476	1
225.6803	1
226.0081	12
226.2148	2
226.4451	2
226.7101	3
227.0162	12
227.3399	1
227.5259	1
227.6159	0
227.9776	13
228.3079	1
228.5175	2
228.9961	33
229.3840	1
229.5212	3
229.9987	23
230.3424	3
231.0010	40
231.3991	2
231.5429	1
232.0123	18
232.3516	1
232.7106	3
233.0166	57
233.3463	1
233.5785	4
234.0351	18
234.4205	2
234.6195	3
234.7379	2
235.0592	40
235.3054	3
235.4402	2
235.7282	2
236.0595	13
236.3974	1
236.5742	2
237.0366	25
237.3948	2
237.5265	0
237.9969	6
238.3409	0
238.6712	3
239.0054	11
239.2702	1
239.5370	1
239.7068	2
239.9592	5
240.3388	2
240.4831	3
240.6208	2
241.0005	17
241.1835	4
241.3449	1
241.5121	1
241.7024	2
241.9786	10
242.0986	4
242.2391	1
242.6085	2
243.0186	25
243.4597	2
243.7761	2
244.0158	13
244.4977	2
245.0086	33
245.5071	1
245.9971	15
246.3822	1
247.0353	39
247.4895	1
247.6748	1
248.0370	9
248.6741	2
249.0535	29
249.2883	1
249.5895	2
249.6882	1
249.8230	2
250.0690	7
250.2670	1
250.5308	2
250.7433	2
251.0736	16
251.3428	2
251.4599	1
251.5830	1
251.7699	1
252.0351	8
252.4439	1
252.6585	2
253.0331	12
253.3840	1
253.6092	2
254.0135	6
254.1584	3
254.2954	1
254.4021	1
254.5404	1
254.6899	1
255.0318	14
255.3309	1
255.5535	2
256.0247	9
256.7588	4
257.0356	16
257.2182	2
257.4470	1
257.6592	1
257.7680	0
258.0318	17
258.4795	2
258.6325	1
259.0203	22
259.2709	2
259.5782	1
260.0750	15
260.4267	2
260.5098	1
260.6563	1
261.0542	35
261.3749	1
261.5294	1
261.6759	0
262.0449	7
262.2627	2
262.4356	0
262.6680	1
263.0549	19
263.4069	2
263.8243	1
264.0818	6
264.2305	3
264.5627	1
264.6843	1
265.0476	14
265.4651	1
265.6680	1
266.0665	5
266.3837	2
267.0129	14
267.3758	1
267.5887	0
267.7725	2
268.0211	4
268.1950	1
268.3967	1
268.5964	0
268.8120	2
269.0745	19
269.4085	1
269.5144	2
269.6275	0
269.7889	0
270.0490	4
270.2761	1
270.4972	1
270.6239	1
271.0623	11
271.4333	2
272.0480	12
272.3795	1
272.6768	2
272.7923	2
273.0618	14
273.3399	3
273.6444	0
273.9609	4
274.1214	7
274.4247	1
274.6289	1
274.7531	1
275.0796	17
275.5402	2
275.6592	0
275.7967	0
276.0869	8
276.2541	2
276.3705	1
276.5681	0
276.7056	0
277.0871	11
277.3774	0
277.5678	1
278.1048	5
278.4937	1
278.6750	1
279.0487	9
279.6845	2
279.8605	1
280.0603	2
280.3124	1
280.6168	1
281.0344	7
281.4018	0
281.6460	2
281.9942	5
282.1273	3
282.3683	1
282.4828	1
283.0423	10
283.3634	1
283.5753	1
284.0919	5
284.2568	1
284.5642	0
284.7112	2
285.0716	12
285.4757	0
285.7865	1
286.1095	8
286.6410	2
286.7859	0
287.0904	22
287.4890	1
287.5757	1
287.6876	0
287.8134	1
287.9921	3
288.1358	2
288.4470	1
288.5695	1
289.0689	7
289.3709	1
289.6477	0
289.7590	1
290.0955	4
290.3632	1
290.4711	1
290.7898	1
291.0694	5
291.5876	0
292.0435	4
292.6413	2
292.7978	1
293.0304	3
293.1995	2
293.5057	1
293.7020	3
293.8220	1
293.9917	3
294.1044	1
294.3033	0
294.7171	1
295.0480	10
295.1833	5
295.4810	1
295.7205	1
295.8710	3
296.0873	3
296.2345	1
296.7168	2
296.8123	1
297.0770	12
297.6231	1
297.8042	0
298.0226	4
298.1340	3
298.4944	2
299.0472	10
300.0277	7
300.4678	1
300.5960	0
300.7812	1
301.0515	8
302.1034	3
302.2249	1
302.5045	1
302.5822	0
302.8327	2
303.0851	10
303.4618	1
303.8849	3
304.0843	4
304.1999	1
304.3288	1
304.5899	0
304.8737	2
305.0936	3
305.2265	2
305.8812	1
306.0633	3
306.1550	1
306.5107	0
306.7699	1
306.9807	5
307.0997	3
307.4933	0
307.8443	1
307.9667	1
308.1515	0
308.3922	1
308.9116	2
309.1311	4
309.5934	2
309.8095	1
310.0024	4
310.1315	1
310.4788	2
310.8194	2
311.0862	4
311.3377	1
311.6690	1
311.7509	0
311.9206	2
312.0224	1
312.1522	1
312.3045	2
312.5674	1
313.0353	6
313.5758	0
313.8334	0
314.1137	2
314.3560	1
315.0864	10
315.4726	1
315.5805	1
315.6850	1
315.9641	3
316.0932	3
316.2284	1
316.5268	1
316.8691	2
317.0703	4
317.3261	1
317.4660	2
317.7045	1
318.0182	2
318.1895	1
318.3647	1
318.6012	1
318.8730	2
319.1149	5
319.6200	1
319.8473	1
320.1225	2
320.3151	1
320.7590	1
321.1123	4
321.4756	1
321.6382	1
321.7689	1
321.9836	1
322.0909	2
323.0697	3
323.1997	1
323.6439	1
324.0580	1
324.3495	1
324.6036	1
324.7236	0
324.9491	3
325.0805	5
325.3393	1
325.6055	1
325.9063	0
326.1432	2
326.5402	1
326.7537	1
327.0172	4
327.2014	3
327.5291	1
327.6245	1
328.0209	2
328.2411	1
328.6175	1
328.7856	1
329.1430	7
329.4951	1
329.6959	1
330.1201	5
330.2829	1
330.7432	1
331.1381	6
331.6385	1
332.0769	1
332.6481	1
332.7802	1
333.1579	8
333.9048	1
334.0249	1
334.1524	1
334.7565	1
334.9041	0
335.1350	5
335.9475	1
336.1752	4
336.3215	1
336.4890	1
336.8563	1
337.0607	3
337.2283	1
337.6844	1
337.8220	1
338.0731	2
338.3123	0
338.4111	1
338.7070	1
338.8393	1
339.0924	5
339.2087	3
339.5868	0
339.8313	1
340.1721	5
340.2823	1
340.4273	1
340.6852	1
341.0848	6
341.2385	2
341.7069	1
341.9321	2
342.1700	4
343.1760	4
343.3170	2
343.6472	1
343.7522	1
344.0256	2
344.1199	2
344.2523	2
344.6367	1
345.0038	1
345.1849	7
345.3093	2
345.4410	1
346.1552	6
346.4207	1
346.6167	1
347.0226	2
347.1571	2
347.2748	2
347.3818	1
348.0534	1
348.2414	0
349.1525	2
349.8651	1
350.1394	1
350.2170	1
350.7417	1
350.8889	2
351.1874	4
351.3493	2
351.4403	2
351.8941	0
352.0253	1
352.1578	2
352.2924	4
352.8158	2
353.1572	7
353.5810	1
353.8923	1
354.0724	2
354.2733	2
354.5243	1
354.8772	1
355.2318	5
355.7633	2
355.9754	1
356.2375	3
356.5997	1
356.7137	1
356.8245	0
357.1193	4
357.2173	2
357.9098	1
358.0679	2
358.2633	0
358.7490	1
358.8445	0
359.1887	5
360.1963	1
360.2784	1
360.9718	1
361.1139	2
361.2347	1
362.0483	2
362.2446	1
363.0737	2
363.3467	1
363.4936	1
363.9703	1
364.1913	4
364.5492	1
364.8844	1
365.1695	2
365.6750	1
365.9101	1
366.0069	1
366.2447	1
366.4771	1
366.8471	1
366.9673	2
367.1236	3
367.2445	2
368.2138	1
368.6447	1
369.0869	3
369.3296	1
370.0216	1
370.1346	1
370.3031	1
370.6562	1
370.7712	1
371.1557	4
371.2300	2
371.3336	1
371.5149	1
371.8860	1
372.7027	1
373.0057	1
373.1642	2
373.5609	1
374.0573	1
374.1577	1
374.4279	1
374.7317	1
375.2047	2
375.3138	2
375.4168	1
375.6678	0
376.1750	2
376.6287	1
376.8341	0
376.9854	1
377.1386	2
377.9190	1
378.1191	6
378.2249	2
378.3547	1
378.6419	1
379.0743	1
379.2464	1
379.6460	0
379.8636	1
380.2037	1
380.8156	1
381.0266	2
381.2053	1
381.3379	1
381.9781	1
382.1810	2
382.5654	2
383.0643	4
383.2692	5
383.5720	1
383.7970	2
383.8834	1
384.1205	1
384.2967	2
384.5184	1
384.6256	1
385.1595	2
385.3243	0
385.7209	1
385.8683	1
386.1001	3
386.2709	1
386.4129	1
387.0173	1
387.1647	3
387.3188	1
387.8395	1
388.1155	2
388.2797	2
389.1382	1
389.2160	1
390.0571	2
390.1798	2
391.2134	2
391.3783	0
391.5754	2
391.7631	0
391.9079	1
392.2318	4
392.3176	1
393.0926	3
393.3112	1
393.8490	1
394.1883	0
394.4585	1
394.7295	1
395.1875	3
395.2794	2
395.8287	1
396.2311	7
396.3539	2
396.5906	1
397.1937	5
397.6720	1
398.1805	9
398.4985	1
398.8560	1
399.2003	10
399.7135	1
399.8826	1
400.1450	3
400.2450	2
400.3960	1
400.7125	1
400.9395	1
401.1290	1
401.3788	2
401.4933	2
402.0473	1
402.2462	3
402.6843	2
402.8953	1
403.1471	2
404.1487	4
404.3061	2
404.4890	1
404.5988	0
404.7342	1
405.0196	2
405.2555	3
405.8799	0
406.1969	5
406.9581	2
407.1163	1
407.9359	1
408.4801	1
408.7033	1
408.8193	0
409.0539	1
409.3180	3
409.7175	0
409.9333	1
410.1753	1
410.3530	1
410.4797	1
410.5715	1
410.7197	1
411.0026	2
411.2131	8
411.4431	1
411.9171	1
412.1061	5
412.2771	7
412.7981	1
412.9027	2
413.0475	1
413.1971	3
413.3788	1
414.0742	3
414.2358	1
414.3243	1
414.7643	1
414.8589	1
415.0674	2
415.1687	1
415.3169	2
416.2613	4
416.5746	0
417.2297	6
417.7796	1
418.1668	3
418.2854	2
418.6786	1
418.9955	1
419.2025	2
419.7559	2
420.2805	3
420.4761	1
420.6557	1
420.7703	1
421.2420	1
421.3191	1
422.0287	2
422.1888	1
422.3403	1
422.5500	1
423.0366	1
423.2631	1
423.6096	1
423.9320	1
424.0479	1
424.2785	0
425.1660	7
425.3403	6
425.4421	2
425.7056	1
425.8618	1
426.0414	2
426.2158	3
426.3853	1
426.8627	1
427.1831	2
427.4775	1
427.7316	1
427.9924	3
428.2016	4
428.2941	2
428.5000	1
428.8715	0
429.1202	1
429.2778	4
430.1999	8
431.2360	4
431.5499	0
431.6713	1
431.9034	1
432.1093	2
432.2253	1
432.3535	1
432.6680	0
433.0967	1
433.4368	1
433.9432	1
434.2431	1
434.6825	1
434.8295	0
435.4125	2
435.8365	1
436.1660	1
436.3968	1
436.7679	1
437.0953	2
437.2429	1
437.3470	0
437.4946	1
437.7120	1
438.1985	2
438.2918	1
438.4032	1
439.1119	1
439.2911	3
439.5770	1
439.7616	1
439.9858	1
440.3106	1
440.4912	1
440.6342	0
440.8282	1
441.1577	2
441.4665	1
442.0412	1
442.1506	2
442.3513	1
442.5769	1
442.8004	1
443.1677	4
443.3469	1
443.9942	1
444.1432	4
444.2923	4
444.4742	1
444.6360	1
445.1631	2
445.3169	1
445.5990	1
445.8414	1
446.1960	1
446.3732	1
446.4592	1
446.8850	1
447.1402	1
447.2772	1
447.5143	1
447.7419	1
447.9038	1
448.2437	4
448.5936	1
449.0604	2
449.1524	2
449.4171	4
449.5830	3
449.7503	3
449.9753	2
450.2997	4
450.4966	2
450.6732	1
450.8291	2
451.2685	4
451.5577	1
451.8398	1
452.0435	2
452.2352	2
452.4865	2
452.6125	1
452.7016	1
452.8095	1
453.1580	6
453.3852	5
453.7036	1
453.8349	0
454.2317	1
454.4120	1
454.6734	0
454.9133	1
455.0521	2
455.3638	2
455.6084	1
456.0763	2
456.3371	3
456.9277	1
457.0383	1
457.1945	1
457.3735	1
457.6732	1
457.8032	0
458.0922	2
458.2390	0
458.4174	2
458.6701	1
458.9182	0
459.3031	3
459.5378	1
459.7999	2
460.1922	4
460.5724	1
460.7327	2
460.8105	1
460.9345	1
461.2960	5
461.5917	2
461.7855	7
462.2986	95
462.6486	5
462.8793	2
463.0718	2
463.2187	1
463.3931	2
463.7774	1
463.9921	1
464.0994	2
464.3643	2
464.7353	1
464.9043	1
465.1612	2
465.3101	2
465.6086	1
465.7046	1
465.8736	2
466.1044	3
466.3452	3
466.6854	5
467.2576	62
467.6038	2
467.7340	2
468.0480	4
468.2969	5
468.4150	3
468.5814	2
468.8337	3
469.1068	6
469.3087	6
469.4349	2
469.5852	2
470.2562	12
470.4589	3
470.6468	1
471.2548	5
471.6420	1
471.9594	1
472.2010	3
472.3433	3
472.6138	1
473.2602	2
473.5025	1
473.5911	0
474.1804	5
474.4422	0
475.2819	13
475.6673	1
476.1741	0
476.3050	1
476.3923	1
478.6535	1
478.9467	1
479.2688	2
479.6801	1
480.2351	6
480.4901	2
480.7061	1
480.9296	1
481.2095	9
481.4115	6
481.6269	1
482.2712	3
482.5323	1
483.1310	3
483.3639	2
483.4719	1
483.6545	1
483.7753	1
484.2754	16
484.4667	6
485.2574	95
485.8140	2
486.1362	3
486.4148	4
486.8418	1
487.1076	1
487.3648	1
487.4655	1
487.9536	1
488.2087	0
488.8466	0
488.9513	0
489.6866	1
489.9384	1
490.1277	0
490.2741	1
490.9503	1
491.0867	1
491.5675	1
491.9651	1
492.2236	2
492.3083	1
492.7186	1
492.8650	1
493.2868	1
493.4110	1
493.6663	0
494.2587	10
494.4105	10
494.5448	1
494.8081	1
495.2656	15
495.8963	1
496.1664	1
496.3612	1
496.5043	2
496.8032	0
497.0014	1
497.2164	0
497.4582	1
498.0441	2
498.1845	4
498.3121	1
498.5406	1
498.6541	0
498.9316	0
499.2608	10
499.4147	7
499.5235	2
499.6599	1
500.1451	2
500.2290	1
500.3607	4
501.1496	1
502.1683	1
503.1327	0
503.2678	1
505.4485	1
505.8548	0
506.8540	2
507.2925	1
507.5179	1
508.1624	2
508.7747	1
508.9537	0
509.2307	1
509.7398	1
509.8759	1
510.1529	1
510.3193	2
511.0410	2
511.1792	2
511.3569	2
512.3121	5
512.5154	2
512.7951	0
513.0339	1
513.1319	1
513.5995	1
513.9409	1
514.0268	1
514.2811	1
514.6628	1
515.2961	2
515.7081	1
516.1321	1
516.2583	1
516.3770	1
516.7226	1
516.8789	0
517.3251	1
519.3033	1
519.8362	1
520.4153	0
520.8275	3
520.9321	1
521.0288	1
521.2368	2
521.3932	1
521.8704	1
522.2852	3
523.1497	1
523.2893	1
523.4410	1
523.5343	0
523.8975	1
524.2465	18
524.4164	8
524.8372	2
525.0635	3
525.1575	3
525.4011	3
525.5898	2
525.8771	1
526.2752	1
526.5591	0
526.7384	2
526.9506	4
527.1063	2
527.2131	1
527.3339	1
527.4199	1
527.5736	2
527.7374	2
527.8227	1
527.9926	0
528.1436	2
528.3074	1
528.6747	2
528.7902	2
528.9480	1
529.0742	2
529.4173	3
529.6859	1
529.8450	3
530.0162	2
530.2056	3
530.6253	1
530.6971	1
530.8986	3
531.0450	4
531.2477	5
531.5291	2
531.6682	1
531.8763	3
532.1396	3
532.4236	4
532.7292	4
532.9918	4
533.2147	3
533.3316	4
533.4975	5
533.9125	6
534.1382	6
534.3148	5
534.5331	4
535.1597	13
536.0665	57
536.4010	24
536.6469	7
536.8221	8
537.2984	8
538.3376	44
538.7675	13
539.2640	52
539.6120	7
539.8646	9
540.1326	4
540.3530	9
540.4981	4
540.8394	5
540.9382	2
541.2150	5
541.4582	3
541.6309	4
541.8210	4
542.1025	1
542.1966	1
542.8517	6
543.1460	6
543.2952	4
543.6231	3
543.9060	5
544.0659	7
544.2218	5
544.5981	5
544.8427	3
545.1686	5
545.4482	2
545.7136	6
545.8433	8
546.1424	9
546.7599	7
547.0255	5
547.2828	8
547.4797	3
547.7726	7
548.2285	12
548.5569	12
549.0657	13
550.1364	22
554.3457	999
554.7722	363
555.5333	177
556.1730	83
557.0576	44
558.0428	24
558.4324	17
558.8449	13
559.1830	10
559.6793	8
559.9100	6
560.0817	7
560.3997	5
560.9188	4
561.0107	2
561.1261	5
561.3240	3
561.5024	3
561.6513	2
561.9022	2
562.0974	2
562.3315	0
562.4771	1
562.8098	2
562.9896	0
563.2512	2
563.3807	1
