Mass spectrum: Isocryptoxanthin; FAB-EBEB; MS2; m/z: 552.43; [M]+*
Name: Isocryptoxanthin
Formula: C40H56O
Exact mass: 552.43312
SMILES: C(=CC(=C(C)2)C(C)(C)CCC2)C(C)=CC=CC(=CC=CC=C(C)C=CC=C(C)C=CC(=C1C)C(CCC(O)1)(C)C)C
InChI: InChI=1S/C40H56O/c1-30(18-13-20-32(3)23-25-36-34(5)22-15-28-39(36,7)8)16-11-12-17-31(2)19-14-21-33(4)24-26-37-35(6)38(41)27-29-40(37,9)10/h11-14,16-21,23-26,38,41H,15,22,27-29H2,1-10H3/b12-11+,18-13+,19-14+,25-23+,26-24+,30-16+,31-17+,32-20+,33-21+
Instrument: JMS-HX/HX 110A, JEOL
Instrument type: FAB-EBEB
Ms type: MS2
Ion mode: POSITIVE
Collision energy: 3 kV
Ionization: FAB
Base peak: 104.9188
Precursor m/z: 552.43
Precursor type: [M]+*
m/z	relative intensity
0.0388	0
0.0681	0
0.1471	0
0.6692	0
0.8236	0
0.9687	0
1.2002	0
1.2851	0
2.5635	0
2.7395	1
2.8594	1
3.1599	0
3.4700	1
3.7517	0
4.3250	0
4.5442	0
5.5952	3
8.5557	0
10.8202	0
12.9528	1
13.5727	1
13.9648	0
14.9657	9
16.9889	0
18.0548	0
19.1780	0
20.3247	0
21.5485	1
22.9106	12
23.1145	0
23.7978	0
24.3517	0
24.6952	1
24.9310	0
25.9322	16
26.9398	82
27.9415	13
28.9447	98
29.0988	0
29.9158	3
29.9686	3
30.9264	8
31.1620	0
32.2186	0
32.7465	0
36.9074	8
36.9895	0
37.9211	41
38.2910	0
38.9212	197
39.5416	1
39.9445	24
40.0990	1
40.3937	0
40.5581	0
40.9387	430
41.1493	2
41.9401	13
42.9233	368
43.9247	10
44.3970	0
44.9239	17
45.7979	0
47.0161	0
48.3734	2
48.8992	5
49.3933	1
49.7407	2
49.9049	53
50.7158	1
50.9145	118
51.2929	0
51.7240	1
51.9162	45
52.9215	197
53.1303	0
53.6165	3
53.9287	12
54.1686	0
54.6022	2
54.9309	572
55.3176	0
55.9383	40
56.9356	114
57.2758	0
57.4332	4
57.9512	10
58.9263	26
59.9125	3
60.8410	5
60.9877	1
61.3942	2
61.9064	35
62.1719	0
62.9050	94
63.0290	7
63.1350	3
63.3153	3
63.6392	1
63.8965	24
64.0215	3
64.1567	1
64.3714	0
64.6774	3
64.9155	142
65.0640	3
65.3040	3
65.7520	3
65.9171	25
66.1236	5
66.6891	2
66.9220	268
67.2876	0
67.9231	12
68.4437	3
68.9295	634
69.4025	1
69.9286	11
70.9164	66
71.8381	3
71.9443	1
72.7417	3
72.9262	4
73.1345	0
73.8821	28
74.7066	4
74.8928	32
75.4235	4
75.8984	19
76.0310	5
76.1359	3
76.3146	3
76.4191	5
76.5779	3
76.8938	422
77.0813	11
77.1920	6
77.4494	6
77.8887	103
78.0840	1
78.4303	4
78.9067	410
79.3949	2
79.6281	0
79.8895	32
80.0421	4
80.3605	3
80.4943	3
80.6404	3
80.9155	544
81.1643	2
81.2425	3
81.9032	28
82.3486	0
82.5514	4
82.9122	123
83.2630	1
83.9414	9
84.1593	1
84.5056	0
84.9421	17
85.8884	21
86.8585	16
87.8465	4
88.4850	1
88.8677	54
89.2273	10
89.5244	6
89.6463	5
89.7884	10
89.9369	25
90.2668	2
90.4454	6
90.8991	710
91.4918	3
91.6443	4
91.9131	87
92.0911	6
92.3596	3
92.4880	2
92.5882	4
92.9235	563
93.2608	3
93.3703	6
93.6481	3
93.9103	32
94.4357	4
94.6542	0
94.9310	486
95.1631	3
95.3155	6
95.4523	1
95.5548	3
95.7202	2
95.9020	23
96.3678	4
96.9181	88
97.1523	2
97.8842	6
97.9767	5
98.8241	5
98.9472	18
99.2158	2
99.3589	3
99.9448	3
100.8561	14
101.0968	3
101.2457	1
101.3505	0
101.6427	3
101.9121	37
102.0672	5
102.4801	7
102.9153	121
103.2473	2
103.4276	6
103.9156	74
104.3115	2
104.3944	3
104.9188	999
105.3546	7
105.9267	107
106.1518	4
106.3633	3
106.4925	1
106.6111	3
106.9295	485
107.2381	3
107.3402	1
107.4631	2
107.5438	3
107.9430	56
108.1867	3
108.4988	1
108.9379	298
109.1951	0
109.6609	0
109.8856	15
110.0758	3
110.2243	2
110.5291	2
110.9267	50
111.7925	5
111.9563	5
112.0700	3
112.4134	1
112.5804	4
112.9595	26
113.1614	11
113.3471	2
113.9198	23
114.2570	9
114.3836	4
114.5133	4
114.8857	417
115.1879	10
115.3875	5
115.8842	145
116.1225	5
116.2531	3
116.3326	2
116.8891	343
117.2302	3
117.3513	2
117.4219	2
117.5913	6
117.9056	100
118.3317	3
118.8977	902
119.1727	4
119.5469	4
119.9141	100
120.1277	4
120.4401	0
120.9004	359
121.2828	0
121.4653	3
121.8820	37
122.1065	3
122.3572	3
122.5582	7
122.9183	212
123.3431	2
123.6556	3
123.8770	33
124.5391	2
124.6657	6
124.9209	41
125.2773	3
125.5546	2
125.6930	4
125.8808	26
126.2303	3
126.3567	6
126.5379	3
126.8547	141
127.2004	9
127.8622	419
128.1404	5
128.4053	8
128.8605	453
129.2627	12
129.4440	5
129.8717	221
130.1640	7
130.3743	6
130.8767	483
131.4143	4
131.8767	115
132.2417	0
132.4064	5
132.8798	488
133.2033	11
133.4469	3
133.8747	63
134.8726	144
135.4104	4
135.8675	29
136.3527	4
136.8919	93
137.5609	4
137.8840	25
138.2916	3
138.3752	2
138.5605	2
138.8722	131
139.1004	3
139.1872	4
139.2982	5
139.8732	36
140.0842	12
140.2338	8
140.3207	4
140.5467	12
140.8597	311
141.1492	4
141.4469	4
141.8702	330
142.1793	3
142.8743	585
143.2173	2
143.8775	222
144.2389	8
144.8885	639
145.3844	4
145.5279	5
145.8949	82
146.1802	11
146.2964	2
146.9066	224
147.2210	6
147.2922	4
147.5466	8
147.9218	29
148.4285	4
148.9180	81
149.2341	7
149.3725	2
149.6174	8
149.8611	27
150.0384	2
150.1901	6
150.3800	8
150.4796	3
150.6771	11
150.9010	50
151.2215	11
151.3218	5
151.8791	133
152.1471	4
152.2670	5
152.3932	6
152.8743	206
153.2645	0
153.4285	8
153.8924	119
154.3081	9
154.3968	7
154.4918	4
154.9064	421
155.2822	13
155.9055	255
156.2318	3
156.3635	4
156.9200	528
157.1803	6
157.3619	2
157.5479	9
157.9277	142
158.1283	7
158.2987	3
158.4097	4
158.5618	6
158.9343	376
159.4124	4
159.9449	58
160.0435	25
160.1813	4
160.5036	8
160.6225	3
160.9494	150
161.1980	8
161.3080	4
161.3934	3
161.4902	3
161.9496	32
162.2401	2
162.3845	7
162.4959	7
162.9538	85
163.2977	3
163.5841	5
163.9397	33
164.2148	8
164.4012	3
164.4918	3
164.9142	285
165.4789	2
165.6439	8
165.9295	89
166.2228	10
166.3805	3
166.5634	7
166.9418	246
167.1849	4
167.4046	3
167.5312	4
167.9277	102
168.1754	6
168.3585	6
168.4681	4
168.9478	358
169.2851	7
169.4861	5
169.9452	129
170.3779	7
170.9497	273
171.2684	3
171.4093	5
171.5484	9
171.9631	69
172.1562	6
172.3246	7
172.9601	204
173.3186	4
173.5151	2
173.9151	37
174.1549	4
174.3223	8
174.6137	8
174.9745	122
175.5354	4
175.6691	1
175.9372	35
176.0703	17
176.3487	8
176.9374	83
177.3422	11
177.9122	161
178.2713	4
178.3963	5
178.9169	226
179.3094	6
179.9121	108
180.2959	6
180.4485	3
180.9180	240
181.2478	4
181.9195	115
182.3492	6
182.4726	0
182.9281	295
183.1904	4
183.3868	9
183.9468	65
184.3264	3
184.9360	168
185.2191	15
185.5209	5
185.9400	46
186.4630	1
186.9483	120
187.2786	5
187.5961	4
187.9566	26
188.2492	8
188.3789	6
188.5797	8
188.9245	109
189.3655	4
189.5203	3
189.9133	37
190.1272	10
190.2294	4
190.3836	1
190.9066	146
191.9140	95
192.3597	3
192.4504	4
192.9290	203
193.1310	10
193.3260	4
193.4348	4
193.9355	113
194.1171	6
194.3701	3
194.5369	6
194.9194	255
195.2473	3
195.4057	8
195.6203	3
195.9360	98
196.2009	5
196.3266	4
196.5380	6
196.9358	279
197.3137	7
197.5168	3
197.9174	39
198.2716	4
198.9337	111
199.2764	7
199.3661	1
199.5824	7
199.9408	26
200.1494	4
200.3864	3
200.5330	4
200.9419	90
201.2353	3
201.4375	3
201.9074	63
202.2093	4
202.4802	3
202.9264	113
203.2963	5
203.4134	6
203.9213	44
204.1503	4
204.2998	6
204.5108	5
204.9328	110
205.2319	5
205.9209	73
206.3224	1
206.4734	2
206.9360	176
207.4077	3
207.6521	8
207.9406	60
208.1344	4
208.4579	3
208.9540	206
209.4055	6
209.9426	66
210.4579	7
210.9694	111
211.2829	6
211.5829	7
211.7206	8
211.9933	29
212.3077	7
212.4207	4
212.5305	5
212.6604	4
212.9573	60
213.3979	0
213.6403	7
213.9828	27
214.2585	4
214.3852	3
214.9425	89
215.3210	3
215.5831	7
215.9266	38
216.1562	5
216.2506	3
216.3827	4
216.9391	75
217.2131	4
217.4898	1
217.6883	4
217.9781	45
218.3760	3
218.5264	3
218.6306	1
218.9615	104
219.2807	4
219.4638	2
219.9688	51
220.2386	5
220.4048	4
220.9745	128
221.3090	5
221.6201	4
221.7342	9
221.9742	33
222.3655	2
222.4464	2
222.5893	3
222.7700	16
223.0023	115
223.2842	5
223.4121	4
223.4897	3
223.6438	8
223.7090	4
224.0269	31
224.9853	76
225.2387	5
225.4196	8
225.5946	8
225.9937	27
226.3720	5
226.6218	3
226.9847	37
227.3328	4
227.4827	7
227.5779	2
227.9579	24
228.1451	7
228.2670	5
228.4868	12
228.9909	64
229.1781	8
229.5701	1
229.9642	30
230.0797	12
230.9809	75
231.3536	4
231.6219	3
231.9673	44
232.1436	4
232.4669	3
232.5603	2
232.9776	98
233.2553	4
233.3239	2
233.6270	7
233.9942	35
234.3347	3
234.5784	6
234.9654	80
235.3040	5
235.5943	1
235.7159	3
235.9761	19
236.1010	9
236.5333	1
236.6268	3
237.0095	64
237.1547	25
237.3778	3
237.4798	5
237.6768	3
237.8652	12
238.0576	27
238.2879	4
238.3723	4
238.5556	3
239.0125	64
239.4341	4
239.6017	6
239.9356	15
240.1680	7
240.3147	5
240.5774	6
240.9749	51
241.4964	3
241.6897	7
241.9878	22
242.6660	7
242.9898	64
243.6126	10
243.7011	8
244.0047	24
244.2899	7
244.3883	4
244.5090	2
244.9720	50
245.2534	4
245.4003	3
245.6207	3
245.7067	2
245.9954	36
246.3569	5
246.4776	7
246.6719	1
247.0145	64
247.3053	6
247.4700	3
247.7602	3
247.9860	21
248.1035	16
248.4640	3
249.0183	77
249.3007	3
249.7047	3
250.0515	13
251.0312	60
251.2461	9
251.4104	4
251.6549	5
251.9710	28
252.4439	3
252.5602	3
253.0076	48
253.3335	6
253.5274	5
253.6719	6
253.9670	19
254.1793	12
254.7459	9
254.9958	34
255.1312	17
255.2278	8
255.4823	3
255.6506	2
256.0103	11
256.2260	3
256.3602	4
256.7878	14
256.9818	41
257.1364	13
257.5193	1
257.9410	16
258.0457	13
258.2523	8
258.9723	59
259.2086	8
259.4653	1
259.5654	4
259.7425	8
259.8768	11
260.0355	15
260.5293	4
260.7973	11
261.0140	41
261.2550	3
261.3914	3
261.6713	5
261.9269	20
262.1002	10
262.2649	6
262.4546	1
262.7518	12
263.0430	43
263.3047	6
263.7403	6
264.0237	26
264.3566	4
265.0132	43
265.3475	4
265.5282	5
265.9839	18
266.1409	9
266.4172	3
267.0247	45
267.5143	3
267.7260	6
268.0263	26
268.1398	9
268.3298	6
268.4440	8
268.5536	5
268.7562	11
269.0320	49
269.2717	3
269.6892	4
269.8461	6
270.0168	19
270.1137	7
270.2100	3
270.4809	3
270.6049	4
270.9860	31
271.5999	1
271.9824	11
272.1341	3
272.2574	5
273.0384	35
273.8064	5
274.0268	15
274.2769	4
274.6398	4
274.7784	6
275.0213	34
275.2206	4
275.4378	12
275.6015	9
275.7197	6
276.0439	26
276.2386	8
276.5833	4
277.0085	34
277.7634	6
277.9272	15
278.1630	4
278.3103	3
278.4272	3
278.6439	2
279.0000	35
279.2002	4
279.5194	4
279.8326	7
280.0771	12
280.6237	2
281.0289	40
281.2933	5
281.5756	4
281.6542	1
281.8711	9
282.0999	22
282.2790	4
282.4192	4
282.6811	0
283.0025	29
283.4866	4
283.8107	6
283.9278	2
284.0746	15
284.2314	5
284.5205	2
284.6091	2
284.7745	10
285.0405	21
285.3958	2
285.7210	2
285.9960	19
286.2398	4
286.5148	3
286.7045	3
287.0067	25
287.2493	3
287.4575	9
287.5428	2
287.6995	3
287.9442	15
288.0440	9
288.1478	6
288.5677	7
288.7999	7
289.0360	22
289.3409	3
289.6028	2
289.8152	7
289.9237	5
290.0672	7
290.3848	2
290.4900	0
291.0497	33
291.1503	14
291.7049	4
292.0292	11
292.4097	3
292.6924	5
292.8572	4
293.0697	42
293.4914	1
294.0303	11
294.2462	3
294.3429	1
295.0084	24
295.2283	4
295.7191	3
295.9151	12
296.0754	8
296.2152	4
296.8141	5
297.0288	17
297.3541	3
297.4489	4
297.9578	15
298.1354	4
298.2580	2
298.7564	7
298.9877	15
299.1720	3
299.2873	3
299.4524	3
299.5770	3
299.9290	5
300.0470	6
300.1577	3
300.3513	7
300.8168	4
300.9779	13
301.0966	9
301.6842	3
301.7737	1
301.9866	13
302.4834	2
302.6917	1
303.0937	21
303.2184	6
303.6636	3
303.9575	7
304.0769	3
304.7856	5
305.0292	12
305.1433	6
305.6637	3
305.8701	4
306.1409	6
306.3533	3
306.8791	17
306.9946	11
307.1553	3
307.9720	10
308.9064	7
309.0074	6
309.1229	7
309.5354	1
309.9293	10
310.0894	5
310.5020	3
310.9996	26
311.1026	5
311.7318	5
312.0555	15
312.1857	4
312.5081	1
312.7633	4
313.0066	14
313.2106	3
313.4054	3
313.4825	2
313.7949	3
313.9850	8
314.5129	4
314.8972	15
315.0149	19
315.1872	3
315.6706	1
315.9758	13
316.1255	7
316.2545	6
317.0420	22
317.7172	0
317.9095	2
318.0991	7
318.2761	5
318.6181	4
318.9807	10
319.1850	18
319.6182	0
319.8012	5
319.9350	3
320.0681	6
320.2152	8
320.3483	4
320.4828	1
320.9980	27
321.1477	10
321.8454	5
322.0018	11
322.1616	16
322.4766	4
323.0286	7
323.5913	6
324.0348	8
324.2173	6
324.6962	3
324.9160	5
325.0672	2
325.3957	4
325.5955	2
325.9459	4
326.0732	4
326.2524	2
326.3470	0
326.8494	3
327.0500	8
327.2179	7
327.8550	7
328.0009	7
328.2087	5
329.0315	18
329.2545	3
329.9249	8
330.1472	9
330.8797	10
331.0182	11
331.1288	5
331.4404	3
331.5776	3
331.8160	6
331.9359	4
332.1404	10
332.3075	2
332.7325	3
333.0969	29
333.9256	6
334.2121	11
334.4253	1
334.8784	3
335.1682	14
335.6320	0
335.8167	6
335.9266	4
336.1485	7
336.4671	3
336.6204	3
336.7430	0
336.8937	5
337.1256	7
337.5129	4
337.9062	2
338.0736	11
338.2836	7
338.8723	7
338.9763	2
339.0897	6
339.1890	1
339.9145	3
340.1393	8
340.3527	2
340.6968	4
340.8315	4
341.0343	12
341.1390	6
341.5992	3
341.7013	3
341.7894	4
341.9148	6
342.0775	5
342.4584	2
343.0596	14
343.5206	0
343.7421	1
344.0971	15
344.3787	4
344.6777	4
344.8532	4
345.0240	14
345.2162	9
345.7702	3
346.1160	24
346.7602	3
346.8770	4
347.0679	14
347.2608	11
347.7489	0
348.0400	9
348.2510	5
348.7691	4
349.0883	18
349.5284	2
349.9839	3
350.0707	3
350.3305	2
351.1267	4
351.3238	5
351.9277	1
352.0827	5
352.2805	3
352.7989	1
352.9733	4
353.0869	4
353.2098	5
353.7043	3
353.8005	4
353.9676	5
354.0959	5
354.2443	1
354.8126	3
354.9792	3
355.1950	6
355.3622	4
355.5368	4
356.0526	6
356.1825	4
356.2698	5
357.1161	12
357.2854	5
357.7300	3
358.0339	3
358.2445	5
358.5532	2
358.7918	6
358.8638	4
359.1497	17
359.6904	6
360.0404	9
360.2565	12
360.4625	4
360.6145	3
360.7859	3
361.0073	10
361.1893	5
361.3113	5
361.3933	3
361.7941	3
362.0369	9
362.1963	17
362.3763	5
362.5891	2
362.7545	5
363.0306	11
363.1527	5
364.0552	7
364.2339	5
364.6596	5
365.0625	8
365.6683	4
365.7771	1
366.0747	8
366.1768	3
366.4517	2
366.9041	5
367.0903	9
367.2258	6
367.6262	4
368.0033	9
368.2169	4
368.9403	6
369.1586	12
369.9781	4
370.0842	7
370.2123	4
370.6802	3
370.9225	3
371.0560	5
371.1695	3
371.2910	3
371.7776	1
372.0660	12
372.3077	3
373.1068	8
373.2617	3
374.1912	8
374.3688	4
374.6019	4
374.9478	8
375.1562	8
376.0405	7
376.1600	5
377.0564	4
377.2341	3
378.0612	7
378.3090	4
379.0246	4
379.1963	3
379.4181	3
380.0302	6
380.2788	5
381.0406	9
381.1950	11
381.3354	4
381.6101	4
382.0459	7
382.1969	7
382.4596	3
382.7203	0
382.9055	2
383.0753	11
383.2036	5
383.3961	1
384.0266	6
384.3582	0
384.5735	3
384.7259	3
384.9419	6
385.1197	11
385.4694	4
385.8680	8
386.0311	4
386.1381	4
386.2558	5
386.4310	3
386.7828	4
387.1219	17
387.2643	5
387.9057	5
388.0649	3
388.2936	5
388.5351	2
388.8141	3
388.9733	4
389.0843	2
389.4188	1
389.8637	4
390.2999	4
390.6317	0
391.1396	7
392.0054	4
392.2282	5
392.3340	4
392.6599	2
392.8486	4
393.3257	2
394.0559	7
394.2480	8
394.4134	3
394.9616	5
395.2025	4
395.3398	5
395.6323	3
396.0916	16
396.2268	4
396.4651	0
396.7885	1
397.0034	11
397.1454	5
397.2773	5
398.0774	22
398.4966	3
398.9988	45
399.2801	33
399.6364	3
399.9485	11
400.1559	7
400.2763	4
400.4469	4
400.6476	5
400.8730	3
401.1513	8
401.4095	2
401.7741	4
402.0163	13
402.1067	7
402.1849	4
402.2853	3
402.4091	2
402.6212	3
402.7356	3
402.9925	2
403.1417	3
403.2548	5
403.3732	6
404.2960	6
404.8374	1
405.0649	3
405.2363	2
405.3507	3
405.9504	5
406.1840	10
407.0836	4
407.2442	6
407.5963	3
408.3455	5
408.9192	4
409.2633	6
409.3926	0
409.8298	3
410.0414	6
410.1806	5
410.2965	3
410.7632	2
410.8931	6
411.1590	13
411.3940	4
411.6833	0
411.9438	8
412.1461	19
412.3001	11
412.7368	6
412.9592	8
413.1192	16
413.3081	9
413.9565	9
414.2131	9
414.7871	2
415.1295	16
415.3773	2
415.6172	5
416.0688	14
416.2469	5
416.7302	0
417.2672	2
417.8157	2
418.1882	7
418.4859	4
419.1909	2
419.2839	3
419.4297	3
419.5581	0
420.0947	2
420.2057	3
420.4432	0
420.5509	0
420.7416	6
420.8640	4
421.2768	4
421.3645	3
421.5009	1
421.8930	3
422.0335	6
422.1914	6
422.4330	4
422.5387	5
422.6585	0
422.7883	4
422.9429	5
423.1075	9
423.3498	3
423.4582	9
423.5471	2
423.7834	1
423.8878	4
423.9922	7
424.1816	7
424.3770	7
424.4901	6
424.7284	6
424.9572	11
425.0496	5
425.3033	4
425.3950	6
425.7959	3
425.9793	3
426.1995	6
426.2772	2
426.4465	4
426.9499	6
427.1018	3
427.2498	4
427.5396	1
427.6648	5
427.8851	4
428.0190	10
428.2232	12
428.3229	4
428.5967	3
428.9744	10
429.2402	10
429.3935	3
429.4812	3
429.5843	1
429.7129	4
429.9780	6
430.2432	6
430.4233	8
430.8539	8
431.2141	11
431.8463	6
432.1504	6
433.0934	7
433.2273	4
433.3546	3
433.7129	1
433.8409	3
434.1718	3
434.7338	0
435.2148	6
435.4110	0
435.8036	4
436.0675	2
436.1768	3
436.5687	3
437.0363	10
437.2139	10
437.3693	4
437.4598	8
437.6239	10
437.8062	4
437.9677	15
438.1365	6
438.3161	14
438.5218	1
438.6578	4
438.8321	7
439.0016	6
439.1464	5
439.3172	12
439.4298	6
439.5612	5
439.7589	15
440.0805	10
440.3848	9
440.5577	9
440.6623	12
440.7601	6
440.9853	7
441.2045	5
441.3620	5
441.4438	5
441.6039	9
441.8298	6
441.9753	6
442.1341	9
442.2802	4
442.4867	5
442.5832	3
442.7589	4
443.0176	4
443.1329	4
443.4574	5
443.8415	2
444.0493	8
444.2746	3
444.3811	3
444.7485	1
444.9892	5
445.2051	16
445.3030	4
445.4539	5
446.1029	11
446.3148	7
446.5595	3
446.9317	5
447.1489	1
447.4581	3
447.8343	7
448.0770	3
448.2735	4
449.0602	5
449.1937	6
449.3117	5
450.1709	4
450.3748	8
451.0751	18
451.6058	3
452.0108	6
452.1835	6
452.2953	7
452.7826	1
453.1481	7
453.4071	10
453.5042	3
453.9186	3
454.0726	9
454.3470	7
454.7702	2
455.1331	8
455.2850	4
455.3714	3
455.5984	7
455.7075	6
456.0537	3
456.3737	3
456.5947	4
456.7869	4
456.9496	5
457.1913	8
457.3319	5
457.5609	1
457.7779	3
458.0284	5
458.2186	14
458.3733	6
458.5588	6
458.8032	4
459.0677	7
459.3209	19
459.4877	8
460.2150	483
460.7716	9
460.9257	10
461.0610	3
461.2017	13
461.3115	8
461.4709	7
461.6659	6
461.7730	4
461.9747	11
462.1636	4
462.3893	6
462.5802	5
462.7450	4
463.0693	2
463.3359	9
463.6917	3
463.8002	4
464.1298	4
464.2745	7
465.1174	5
465.3157	9
465.4980	4
465.9663	5
466.2699	4
466.4247	11
467.1752	14
467.3863	3
467.7180	4
467.7964	1
468.1710	4
468.3312	7
468.5376	3
469.3057	7
469.6850	5
470.2903	8
470.4646	3
470.6750	3
470.9458	4
471.1181	6
471.2904	10
471.5317	4
471.6430	1
471.9795	3
472.2838	10
473.2237	18
473.4993	11
474.8918	3
475.0574	2
475.1533	4
475.5382	0
475.9398	3
476.0719	4
476.2315	4
477.1817	4
477.3708	5
477.9019	1
478.2132	4
478.3773	3
478.5480	3
479.0174	3
479.2350	2
479.6863	1
479.7927	3
480.0941	15
480.1865	6
480.3083	10
480.4489	2
480.6706	3
480.8882	3
481.0416	6
481.1749	5
481.3845	5
481.5860	3
482.2571	7
483.2383	4
484.2456	1
484.3943	3
484.8370	4
485.0206	1
485.9557	0
486.7194	4
486.9927	3
487.9695	3
488.7038	3
489.1594	1
489.3993	3
489.6298	2
489.8200	0
490.2402	2
491.0356	4
491.1441	1
491.7968	3
491.9798	5
492.1279	8
492.2987	9
492.5561	9
493.0219	7
493.3114	4
493.4763	2
493.8234	4
494.0594	8
494.1451	5
494.2597	15
494.3516	7
494.8938	3
495.1405	9
495.2517	3
495.6304	8
495.9508	5
496.1881	4
496.4047	11
496.8344	3
497.0629	4
497.1769	4
497.6475	3
498.1295	2
499.2552	3
499.4435	4
500.1690	4
501.1238	0
501.4939	2
502.0739	3
502.5246	4
502.6922	0
503.1603	7
504.0035	5
504.0919	3
504.2198	4
504.9095	4
505.0301	5
505.2805	3
505.3676	4
505.5202	11
505.6675	5
505.8156	3
505.9093	4
506.0814	13
506.2180	8
506.4149	5
506.5475	4
506.6466	3
506.8709	4
507.1060	10
507.2426	6
507.3967	3
507.5380	5
507.8548	3
508.0383	14
508.2533	21
508.3993	5
508.7321	5
508.8788	3
509.1414	10
509.2351	4
509.4455	10
510.2144	7
510.4984	4
510.8615	0
511.1495	4
512.1088	3
512.7599	1
513.1063	3
513.3978	3
513.6912	4
513.7796	1
514.1434	3
514.4818	5
514.6546	4
514.9695	7
515.8010	4
516.0858	10
516.2071	8
516.4222	6
516.7076	3
516.8075	3
516.9750	4
517.1097	4
517.3000	7
517.6840	5
517.9319	5
518.1296	4
518.2529	4
518.3668	5
518.5551	3
518.9210	7
519.0189	8
519.2421	20
519.4967	7
519.6649	4
520.0757	5
520.2855	6
520.4196	9
520.6582	8
520.9638	3
521.0851	5
521.3244	15
521.4873	10
521.6093	2
521.7366	1
521.9243	5
522.0684	8
522.3057	21
522.3922	9
522.6234	3
522.8801	3
523.1965	18
523.3179	7
523.6544	5
524.1752	11
524.3133	6
524.7202	2
525.0487	7
525.2318	3
525.5468	1
525.6581	4
525.8431	7
526.0101	4
526.2581	1
526.4573	8
526.9145	5
527.0701	8
527.4683	11
527.5903	5
527.8337	6
527.9075	4
528.0657	4
528.2213	8
528.3876	4
528.6497	13
528.7725	9
528.9609	3
529.0889	8
529.2834	8
529.4061	3
529.5255	5
530.0089	8
530.4482	9
530.5280	5
530.7587	12
530.9779	6
531.2375	4
531.3770	8
531.5292	13
531.7236	21
531.9094	9
532.0630	12
532.2823	15
532.5552	13
532.7397	9
532.9946	26
533.2581	25
533.4976	16
533.7182	21
534.3051	215
534.7793	18
535.2415	39
535.5031	20
535.6768	16
536.1671	64
536.4529	35
537.2894	179
537.7308	20
537.9891	9
538.2098	20
538.3782	16
538.5485	13
538.8297	11
539.1705	9
539.2751	5
539.6246	15
540.0836	8
540.3338	5
540.4975	8
540.7055	9
540.9028	5
541.1826	17
541.2852	9
541.7133	16
541.9850	23
542.3031	17
542.5836	10
543.0472	13
543.3237	14
543.5881	20
543.9800	21
544.2370	14
544.4974	25
544.7799	19
545.2704	23
545.6382	23
545.8724	28
546.9641	41
552.2807	999
552.8403	998
553.5920	479
554.3531	245
554.7969	164
555.4376	97
556.3093	54
556.9513	44
557.2405	35
557.5987	29
557.9174	32
558.0466	23
558.2569	25
558.5943	14
558.8367	17
559.1461	19
559.3569	15
559.8043	10
559.9897	10
560.2515	14
560.4022	6
560.6319	4
560.8616	7
561.1381	8
561.3109	3
561.4843	4
561.6973	3
561.8915	3
561.9939	6
562.2162	5
562.4479	5
