Mass spectrum: Diatoxanthin; FAB-EBEB; MS2; m/z: 566.41; [M]+*
Name: Diatoxanthin
Formula: C40H54O2
Exact mass: 566.41238
SMILES: C(C=CC=C(C=CC=C(C)C=CC(=C(C)2)C(C)(C)CC(C2)O)C)=C(C)C=CC=C(C#CC(=C1C)C(C)(C)CC(C1)O)C
InChI: InChI=1S/C40H54O2/c1-29(17-13-19-31(3)21-23-37-33(5)25-35(41)27-39(37,7)8)15-11-12-16-30(2)18-14-20-32(4)22-24-38-34(6)26-36(42)28-40(38,9)10/h11-21,23,35-36,41-42H,25-28H2,1-10H3/b12-11+,17-13+,18-14+,23-21+,29-15+,30-16+,31-19+,32-20+/t35-,36-/m1/s1
Instrument: JMS-HX/HX 110A, JEOL
Instrument type: FAB-EBEB
Ms type: MS2
Ion mode: POSITIVE
Collision energy: 3 kV
Ionization: FAB
Base peak: 551.5455
Precursor m/z: 566.41
Precursor type: [M]+*
m/z	relative intensity
0.8413	0
1.4004	1
3.4776	1
11.9919	0
12.6306	0
13.0131	0
14.0087	1
15.0187	5
19.0204	0
20.7550	0
21.4553	1
22.9795	1
23.5546	0
24.0083	0
24.9946	1
25.2165	0
26.0064	8
27.0186	68
28.0194	6
29.0242	72
30.0220	3
30.4651	1
31.0109	12
33.0088	0
34.3580	0
35.9835	1
36.3550	1
36.9962	11
37.4216	0
38.0030	25
38.5515	0
39.0186	189
39.4197	0
40.0213	21
41.0336	341
42.0329	10
43.0292	218
44.0254	12
45.0180	10
46.0690	1
47.5907	0
47.9942	0
48.2948	0
49.0085	6
49.3109	0
50.0058	68
50.4674	0
51.0157	149
51.4398	0
52.0191	42
53.0315	186
54.0348	10
55.0456	366
55.6817	0
56.0502	15
57.0599	193
57.4608	1
57.6955	0
58.0676	5
59.0453	39
59.7298	0
60.0298	8
60.4747	0
61.0174	15
61.3903	0
62.0178	53
62.4989	0
63.0281	155
64.0261	34
65.0365	184
66.0354	29
67.0489	219
67.7280	0
68.0555	14
69.0562	250
70.0460	10
71.0454	73
72.0506	4
73.0335	7
73.2828	1
74.0148	51
75.0262	67
76.0248	39
77.0351	495
78.0398	106
79.0475	353
80.0470	41
80.3629	1
81.0593	303
82.0543	18
82.5516	1
83.0659	134
83.6666	0
84.0436	7
84.4804	0
85.0618	216
86.0268	31
86.6448	1
87.0247	49
87.6137	1
88.0327	22
89.0496	88
90.0587	31
91.0637	863
92.0697	96
93.0793	416
93.6856	1
94.0714	31
94.5428	3
95.0884	260
96.0855	15
97.0847	31
98.0417	23
99.0409	20
99.5928	0
100.0395	8
100.2983	1
101.0702	29
102.0596	77
103.0718	192
104.0649	79
105.0822	931
106.0935	100
107.0973	383
108.0795	38
109.0965	164
110.0421	16
110.5946	2
111.0717	37
111.6370	1
112.0404	7
113.0426	25
114.0437	29
115.0543	623
116.0598	214
117.0642	426
118.0633	90
119.0773	822
120.0793	90
121.0854	278
122.0591	26
123.0693	75
124.0483	7
125.0774	16
126.0319	57
127.0500	241
128.0477	679
129.0521	683
130.0564	255
131.0632	514
132.0672	88
132.5244	4
133.0723	384
134.0649	49
135.0656	151
136.0486	14
137.0672	45
137.6072	1
138.0538	13
139.0429	137
140.0537	53
141.0503	571
142.0564	481
143.0634	650
144.0687	210
145.0778	504
146.0712	70
146.4382	6
147.0920	219
148.0803	31
149.1003	88
150.0640	42
151.0677	118
152.0653	352
153.0680	390
154.0828	184
155.0873	550
156.0954	325
157.1059	582
158.1116	149
159.1138	274
160.1282	58
161.1139	74
162.1003	20
163.0988	88
164.1008	72
165.0966	693
166.1073	243
167.1117	442
168.1134	180
169.1259	446
170.1320	174
171.1319	310
172.1367	71
172.5388	4
173.1464	179
174.1073	35
175.1440	95
176.0962	100
177.0930	91
178.0920	401
179.0930	541
180.1103	240
181.1055	424
182.1114	165
183.1135	357
184.1149	96
185.1269	157
186.1180	31
187.1127	84
188.1136	37
189.0808	266
190.0828	117
191.0941	327
192.0902	262
193.0997	440
194.1026	227
195.1104	403
196.1173	122
197.1205	248
198.1126	50
199.1269	88
200.0769	51
201.1239	83
202.0850	280
203.0869	299
204.0966	126
205.0995	271
206.1073	205
207.1127	351
208.1127	143
209.1408	264
210.1331	64
211.1447	111
212.1308	33
213.1245	86
214.1259	39
215.1075	277
216.1243	146
217.1314	277
218.1361	122
219.1383	268
220.1540	133
221.1643	226
222.1605	90
223.1702	131
224.1774	49
225.1850	64
226.1377	89
227.1578	105
228.1433	112
229.1535	228
230.1565	115
231.1570	226
232.1666	116
233.1736	218
234.1723	89
235.1802	147
236.1855	54
237.1809	93
238.1767	33
239.1509	147
240.1445	58
241.1501	120
242.1633	87
243.1682	187
243.6481	6
244.1748	93
245.1701	185
246.1892	82
247.1925	166
248.1931	58
249.2044	102
250.1720	40
251.1986	62
252.1595	78
253.1721	107
254.1804	63
255.1856	133
256.1985	77
257.1911	151
258.1899	81
259.1905	127
260.1958	55
261.2014	103
262.2323	37
263.1958	79
264.1890	25
265.2031	67
266.1836	56
267.2057	109
268.2059	54
269.2226	114
270.2175	57
271.2259	107
272.2471	46
273.2337	93
274.2175	38
275.2503	56
276.2199	41
277.2104	57
278.2071	35
279.2040	77
280.2115	40
281.2384	94
282.2376	53
283.2473	118
284.2322	41
285.2468	76
286.2440	26
287.2473	60
288.2356	21
289.2039	50
290.2491	21
291.2296	42
292.2428	23
293.2207	63
294.2359	35
295.2321	67
296.2343	35
297.2339	63
298.2041	22
299.2381	51
300.2117	22
301.2432	43
302.1994	22
303.1840	32
304.2383	19
305.2218	40
306.2115	18
307.2294	53
308.2283	28
309.2289	36
310.2416	26
311.2307	39
312.2498	17
313.1977	30
314.1845	15
315.2085	33
316.2328	19
317.2275	26
318.2462	24
319.2443	37
320.2500	17
321.2425	37
322.2501	18
323.2355	29
324.2226	13
325.2501	24
325.6204	3
326.2435	12
327.2445	28
328.2160	12
329.2516	28
329.7382	2
330.2933	11
331.2531	31
332.2811	16
333.2840	56
334.2812	30
335.2786	35
336.2612	18
337.2574	23
337.7422	3
338.2939	11
339.2964	20
340.2321	9
341.2929	13
342.2809	8
343.2796	19
344.2665	11
345.2699	35
346.2869	20
347.2847	48
348.2692	16
349.2702	25
350.2849	14
351.2594	9
352.2997	6
353.2894	9
354.2540	7
355.2679	16
356.3221	8
357.3035	21
358.2684	12
358.5413	3
359.3001	30
360.2977	28
361.3073	26
362.2812	15
363.2583	14
364.2967	4
364.5996	2
365.2845	7
366.2933	6
366.6381	2
367.2784	8
368.2696	8
369.2728	10
369.7625	1
370.3553	7
371.2932	18
372.3145	11
373.3347	24
373.7435	2
374.3372	10
375.2861	13
376.3456	10
377.3992	8
378.2007	5
378.7037	1
379.3158	10
380.2369	4
380.8117	1
381.3120	6
381.6405	2
382.3662	7
383.3385	14
384.3183	7
385.3207	10
385.7465	1
386.3157	5
387.3004	12
388.3226	11
388.7096	3
389.3344	8
389.8172	1
390.2596	5
390.5959	1
391.3150	10
391.7187	1
392.3122	2
393.3111	7
393.7612	1
394.5568	3
395.3419	7
395.7638	1
396.3516	5
397.3464	14
398.4056	7
399.3423	17
400.3494	10
401.3476	12
402.4103	9
403.3444	8
403.6812	2
404.3344	3
404.5585	1
404.7810	1
405.3322	6
405.6339	1
406.3643	4
407.3175	3
407.4967	1
407.7597	1
408.3633	8
409.3794	6
410.3627	8
411.4178	10
412.3999	12
413.3626	30
414.3627	10
415.3331	9
415.8759	2
416.4261	5
417.3623	4
417.8499	1
418.3643	5
418.8355	1
419.4428	7
420.0845	3
420.5019	3
420.8396	2
421.3402	9
422.2279	5
423.3742	5
424.2949	6
424.7613	1
425.3906	9
425.7180	1
426.4027	12
427.3641	16
428.3599	7
428.6934	3
429.4306	5
430.3459	5
431.2328	3
432.2245	4
433.3180	6
434.1678	3
434.4401	2
435.3064	5
436.3568	6
437.2786	5
438.9893	9
440.2930	4
441.5670	5
442.2377	5
443.5238	11
444.2680	14
445.2130	11
446.3092	4
447.3741	5
447.8729	2
448.3463	3
448.5739	1
448.8571	1
449.3544	8
450.4646	7
451.3321	9
451.7950	2
452.2775	4
452.5982	2
453.4389	5
453.9634	5
454.4984	6
455.5037	9
456.3523	7
457.3866	6
459.1005	11
460.4763	9
461.4121	11
462.4094	4
463.3513	4
464.3501	3
465.3536	8
466.4215	18
467.4700	5
468.5816	3
469.5689	4
470.4438	4
471.3234	4
472.3738	5
473.4123	7
474.4749	105
475.3622	6
475.8583	2
476.3845	4
476.8297	4
477.4713	5
478.4217	3
479.4861	8
480.4772	7
481.4039	7
482.4580	4
483.1995	2
483.5274	1
483.8658	1
484.3480	3
484.7073	1
485.4216	6
485.9442	1
486.4669	7
487.4688	8
488.4978	3
489.1868	2
489.5523	3
490.0451	1
490.6024	2
491.4248	7
492.4166	4
493.4234	7
494.4034	5
495.5872	5
496.1146	4
497.3630	3
497.8051	2
498.1049	1
498.4945	4
499.0102	4
499.2410	3
499.7146	1
500.7189	2
501.0532	1
501.3695	1
501.8912	1
502.4609	3
503.4489	3
504.0516	2
505.2331	5
506.3907	6
507.4779	10
508.5127	9
509.4396	5
510.4987	6
511.6806	2
512.1728	1
512.5453	1
512.9269	1
513.3024	2
513.6885	2
514.3588	3
514.6341	2
515.4018	3
515.8358	1
516.1201	1
517.4670	6
517.8576	1
518.4787	4
519.6910	2
520.4515	7
521.4334	10
522.4993	11
523.3317	7
524.6072	6
525.6074	5
527.2606	7
528.0797	7
529.2103	7
530.5582	12
533.2198	50
534.4138	5
535.4354	17
536.5067	19
537.4910	8
538.3675	3
540.4069	9
548.5485	237
550.5215	104
551.5455	999
552.5332	23
566.4199	999
568.9278	121
569.9166	43
571.0014	20
572.3185	9
573.5338	4
