Mass spectrum: 12'-Apoastaxanthinal; FAB-EBEB; MS2; m/z: 380.24; [M]+*
Name: 12'-Apoastaxanthinal
Formula: C25H32O3
Exact mass: 380.23514
SMILES: O=CC(C)=CC=CC=C(C)C=CC=C(C)C=CC(=C(C)1)C(C)(C)CC(O)C(=O)1
InChI: InChI=1S/C25H32O3/c1-18(10-7-8-11-20(3)17-26)12-9-13-19(2)14-15-22-21(4)24(28)23(27)16-25(22,5)6/h7-15,17,23,27H,16H2,1-6H3/b8-7+,12-9+,15-14+,18-10+,19-13+,20-11+/t23-/m0/s1
Instrument: JMS-HX/HX 110A, JEOL
Instrument type: FAB-EBEB
Ms type: MS2
Ion mode: POSITIVE
Collision energy: 3 kV
Ionization: FAB
Base peak: 90.9594
Precursor m/z: 380.24
Precursor type: [M]+*
m/z	relative intensity
0.0277	0
0.0487	0
0.3877	0
0.9282	0
1.2453	0
2.5514	0
3.5588	0
9.2832	0
9.5355	0
11.4133	0
11.9427	1
12.0066	0
12.9495	2
13.9579	2
14.4436	0
14.9627	8
15.9691	0
18.9540	1
22.9151	3
23.9408	0
24.1769	0
24.9326	4
25.9367	15
26.1956	0
26.9429	85
27.9455	10
28.9431	61
29.9299	3
30.9358	9
35.7434	0
35.9265	1
36.0560	0
36.1875	0
36.9228	13
37.1033	0
37.2257	0
37.3411	0
37.4393	0
37.6028	0
37.6796	0
37.7726	0
37.9307	32
38.1588	0
38.3170	1
38.4837	0
38.6433	0
38.7559	1
38.9373	247
39.2104	0
39.3248	0
39.4051	0
39.4986	0
39.5841	0
39.7307	0
39.9426	33
40.0642	0
40.1196	0
40.2851	0
40.9500	366
41.1511	0
41.5699	0
41.7307	0
41.9439	9
42.5928	0
42.9389	208
43.1709	0
43.7012	0
43.9357	4
44.9456	12
45.9468	0
46.9125	1
47.8599	0
47.9324	0
48.1789	0
48.4574	0
48.6938	0
48.9228	8
49.0829	0
49.2618	1
49.3267	1
49.5092	1
49.6926	0
49.9270	79
50.0840	0
50.1927	0
50.3565	0
50.5275	0
50.9329	177
51.1012	0
51.1994	0
51.3855	0
51.6940	1
51.9415	69
52.9472	275
53.5484	1
53.7706	0
53.9568	24
54.4056	0
54.6536	0
54.9593	286
55.2349	0
55.4047	0
55.9639	5
56.9746	56
57.1980	0
57.4499	1
57.9345	5
58.9641	15
59.8911	1
59.9673	1
60.2464	0
60.4115	0
60.5011	0
60.6987	0
60.9118	12
61.1865	1
61.2715	0
61.4113	0
61.4915	0
61.6589	0
61.9202	44
62.1524	0
62.3580	0
62.4502	0
62.5340	0
62.9307	135
63.2578	1
63.3928	0
63.4894	1
63.9376	31
64.0896	1
64.2417	1
64.3889	1
64.4998	0
64.6435	0
64.9424	256
65.1289	0
65.2134	0
65.5343	0
65.6993	0
65.9499	57
66.1654	0
66.2859	0
66.5085	0
66.6234	0
66.7264	0
66.9555	188
67.2133	1
67.9525	10
68.3102	0
68.4125	0
68.5367	0
68.6647	1
68.9527	157
69.1223	1
69.3866	2
69.5958	0
69.7258	0
69.9486	8
70.3408	0
70.4427	2
70.9471	76
71.0968	1
71.2365	0
71.3929	0
71.6872	0
71.9333	2
72.2472	0
72.7050	0
72.9311	6
73.1553	0
73.2526	0
73.4602	0
73.5915	0
73.9155	38
74.4967	0
74.5552	0
74.9191	48
75.1133	1
75.3382	1
75.4486	2
75.6004	1
75.9239	38
76.2899	2
76.9365	607
77.2170	2
77.4744	1
77.9413	144
78.1350	2
78.3942	1
78.6077	2
78.6879	1
78.9525	396
79.1679	1
79.3452	1
79.4035	0
79.4685	0
79.7161	0
79.9566	60
80.1964	1
80.3382	1
80.5820	1
80.9646	219
81.1148	2
81.2355	1
81.2996	1
81.4196	1
81.5772	0
81.9413	31
82.1722	2
82.2449	0
82.4229	2
82.5885	1
82.9555	67
83.1697	0
83.2884	0
83.4985	1
83.6975	1
83.7739	0
83.9576	7
84.4441	1
84.5704	0
84.6817	0
84.7573	1
84.9697	66
85.2356	1
85.3255	0
85.4408	0
85.5320	1
85.6857	0
85.9268	14
86.2258	0
86.4223	1
86.6957	0
86.9342	31
87.6159	0
87.9400	17
88.1536	0
88.2967	0
88.4455	1
88.5719	1
88.9463	80
89.3479	3
89.5624	2
89.9435	33
90.1739	2
90.3601	3
90.9594	999
91.2601	2
91.3645	1
91.6102	1
91.9670	95
92.1851	0
92.2547	0
92.5304	1
92.6637	1
92.9780	251
93.2928	1
93.4450	1
93.5611	1
93.9753	39
94.1535	0
94.2972	1
94.4933	3
94.6585	1
94.9667	337
95.3071	1
95.4996	1
95.5587	0
95.6786	1
95.7797	1
95.9724	30
96.1739	0
96.3211	1
96.4938	1
96.6416	0
96.9784	32
97.4840	1
97.9426	12
98.2152	1
98.3397	0
98.9533	8
99.1995	0
99.4598	0
99.6473	0
99.8099	0
99.9492	5
100.1460	0
100.5883	2
100.9209	19
101.2439	2
101.5706	0
101.9437	70
102.1654	1
102.2941	1
102.6481	2
102.9529	207
103.1259	3
103.2393	1
103.3832	1
103.5055	1
103.6018	1
103.9538	94
104.1597	1
104.3042	1
104.9608	658
105.2187	2
105.4723	2
105.9660	76
106.1822	1
106.3465	1
106.4356	1
106.5779	1
106.9693	195
107.1432	1
107.3264	1
107.4724	2
107.9513	47
108.2235	2
108.4193	1
108.4980	1
108.9646	123
109.3065	1
109.4390	1
109.5716	0
109.6712	0
109.9502	16
110.1696	0
110.3285	1
110.4412	2
110.9574	34
111.1829	1
111.3108	0
111.4695	1
111.6844	0
111.9412	4
112.1491	1
112.3209	1
112.9360	21
113.0458	4
113.3151	4
113.4326	2
113.9242	21
114.9350	648
115.1936	3
115.3315	2
115.4578	2
115.9405	199
116.9431	446
117.2974	2
117.5859	1
117.6824	1
117.9530	87
118.1887	1
118.2722	1
118.4626	2
118.9604	468
119.2736	2
119.4682	2
119.5658	1
119.9606	62
120.1855	1
120.3335	0
120.5230	1
120.6278	0
120.9570	154
121.1981	1
121.3283	1
121.5022	0
121.6307	1
121.9471	25
122.2407	1
122.3967	1
122.4996	1
122.6002	0
122.9526	57
123.2103	0
123.4776	2
123.9572	27
124.1171	0
124.3407	0
124.4813	1
124.9522	35
125.2100	1
125.3968	3
125.5641	2
125.9252	29
126.2076	2
126.9347	227
127.2015	6
127.9378	620
128.1930	6
128.9459	537
129.3538	2
129.5576	1
129.9580	181
130.1828	2
130.4444	2
130.9642	375
131.2478	3
131.3864	2
131.9652	100
132.2363	1
132.4988	3
132.9725	260
133.3162	2
133.5357	1
133.9848	96
134.2321	2
134.5320	1
134.9832	238
135.2330	3
135.3128	2
135.4551	1
135.5554	1
135.9678	36
136.2169	1
136.4058	1
136.9819	51
137.1754	1
137.3896	0
137.5006	0
137.5782	1
137.6696	1
137.9729	10
138.1383	2
138.2220	1
138.3284	1
138.4025	1
138.9565	96
139.3598	1
139.4774	0
139.9765	27
140.9724	465
141.1638	6
141.2581	2
141.9787	285
142.3851	3
142.6363	3
142.9912	388
143.3089	4
143.4121	2
143.5979	2
144.0007	138
144.3333	2
145.0026	402
145.3373	2
145.5072	2
146.0024	69
146.1958	3
146.5951	3
147.0171	288
147.3371	1
148.0085	38
148.2013	1
148.3959	1
148.5335	2
148.5867	1
149.0162	70
149.3127	3
149.9876	26
150.2337	2
150.3825	2
150.5318	2
150.9862	76
151.9789	226
152.3183	4
152.9824	263
153.3284	3
153.4908	2
153.5902	3
153.9911	119
154.9948	335
155.3393	1
155.5130	3
156.0010	185
157.0012	282
157.3374	1
157.4836	2
158.0016	105
158.9992	308
159.2268	2
159.5929	2
159.9965	91
160.2099	1
160.4409	3
160.5503	1
161.0073	171
161.3072	3
161.4722	2
161.9941	58
162.3057	3
162.5115	2
162.9878	67
163.2219	2
163.9719	28
164.2825	6
164.9759	380
165.2931	3
165.9819	116
166.1857	4
166.4215	3
166.9873	245
167.2390	2
167.9975	91
168.5721	3
169.0021	234
169.2118	4
169.4456	2
170.0132	87
170.2815	3
171.0118	189
171.4052	3
171.5928	2
172.0006	83
172.2803	2
172.5006	2
173.0127	201
173.2772	1
173.5245	2
174.0094	42
174.3200	2
174.5177	2
175.0093	69
175.3038	2
175.9804	42
176.2019	3
176.3080	3
176.3774	1
176.5394	3
177.0007	52
177.2456	4
177.3630	4
177.9880	196
178.3835	3
178.9938	223
179.3694	1
179.6206	2
180.0052	84
180.2309	2
181.0077	179
181.3733	2
181.5315	1
182.0194	81
182.3815	2
183.0241	197
183.3369	3
183.5880	3
184.0250	70
184.2328	2
184.4005	1
184.5770	2
185.0314	150
185.4295	2
185.5164	1
186.0289	44
186.2612	3
186.3677	2
186.6084	2
187.0258	99
187.2727	3
187.3634	1
187.5284	1
187.6331	1
188.0259	43
188.2911	3
188.4674	3
189.0128	113
189.2692	3
190.0174	45
190.3376	4
190.5060	4
191.0205	132
191.3997	3
191.5482	3
191.6189	2
192.0356	84
192.4314	2
193.0460	144
193.2821	2
193.4100	2
193.5070	1
193.6176	2
194.0502	59
195.0589	166
195.3712	3
195.5723	1
196.0544	55
197.0676	194
197.3092	2
197.4912	1
198.0693	46
198.4345	2
199.0757	128
199.4541	3
199.5678	1
199.8015	4
200.0721	43
200.3873	4
200.6097	2
201.0692	74
201.3966	3
202.0356	82
202.3027	3
203.0577	89
203.3155	2
203.5269	1
204.0548	35
204.3558	2
205.0433	93
205.4499	2
205.5404	2
206.0578	59
206.2666	3
206.3703	2
206.5195	1
206.6030	1
207.0648	104
207.4825	2
208.0692	51
208.6119	3
208.7175	2
209.0692	136
209.3800	3
209.5049	2
209.6341	2
210.0624	50
210.5322	3
211.0757	145
211.3407	4
211.5559	3
212.0799	55
212.4169	3
212.7285	3
213.0796	106
213.5413	2
214.0834	22
214.3124	2
214.4728	2
215.0471	69
215.4337	2
215.6539	2
216.0566	32
216.3793	2
216.6236	2
217.0593	54
217.2791	2
217.4928	1
218.0699	38
218.3325	3
218.4017	1
218.5938	2
219.0703	84
219.4014	2
219.5520	2
219.7362	2
220.0729	38
220.3141	2
220.4653	2
220.6245	2
221.0789	85
221.4986	2
221.6003	1
222.0807	31
222.3290	2
222.5749	1
223.0917	100
223.3047	3
223.4145	2
223.6138	3
224.0968	37
224.4479	2
224.6176	2
225.0895	97
225.4383	3
225.6193	2
226.0852	39
226.4987	2
227.0929	56
227.4019	2
227.5122	1
227.7273	3
228.0792	26
228.3887	1
228.5458	1
228.6826	2
229.0761	47
229.3361	1
229.4768	1
229.6646	1
230.0686	25
230.4683	1
230.7601	3
231.0886	57
231.3204	1
231.4455	1
232.0796	30
232.3327	2
232.4295	1
232.5693	1
233.0893	55
233.3165	3
233.4123	1
233.5205	1
233.6348	1
234.0921	27
234.3538	1
234.5905	3
234.7516	2
235.0989	65
235.4400	1
235.5582	1
236.1071	26
236.3627	1
237.1078	68
237.3390	2
237.4206	1
237.5319	1
237.6550	1
238.1036	19
238.4961	2
238.6169	1
239.1047	49
239.3553	2
239.5473	2
239.6351	1
240.1127	27
240.3907	3
240.5880	2
240.6984	1
241.1025	41
241.3479	1
241.4386	1
241.5797	2
241.6874	0
242.0656	12
242.3337	2
242.4957	1
242.5689	1
242.7639	3
243.0850	23
243.5337	2
243.6810	1
244.0934	17
244.2516	4
244.4212	2
244.6281	2
245.0735	40
245.4874	1
245.6348	1
246.0710	19
246.3857	1
246.4485	1
246.5478	1
246.6489	1
247.0974	40
247.4060	2
247.5114	2
247.5937	1
247.7998	1
248.0900	23
248.3472	1
248.4871	1
248.6299	3
249.1073	52
249.4961	2
249.6568	1
250.1014	19
250.4978	2
250.6301	1
250.7180	2
251.1055	57
251.3575	1
251.5829	3
252.0962	16
252.3732	2
252.4545	1
252.5703	1
252.6356	1
252.7136	1
253.0993	30
253.4066	1
253.6322	1
253.8109	1
254.1083	9
254.3126	2
254.4375	1
254.6408	0
254.7382	0
255.1057	18
255.4311	2
255.5957	2
255.7102	1
256.1198	11
256.5635	1
256.6714	1
256.7499	1
257.0972	17
257.4662	2
257.5949	1
257.6844	1
258.0681	11
258.1746	5
258.2934	1
258.3767	1
258.4973	1
258.6365	1
259.0761	25
259.3478	1
259.6702	3
260.0702	11
260.3007	4
260.4725	2
260.7353	2
261.1017	33
261.4540	3
261.5800	1
262.0871	19
262.2074	8
262.3220	3
262.4205	1
262.5569	1
263.0935	49
263.4568	2
263.6647	2
264.1118	19
264.2957	3
264.4041	2
264.5079	2
264.7144	2
265.1063	37
265.3588	1
265.6483	2
265.8013	3
266.1264	16
266.3548	1
266.5164	1
267.1074	26
267.4832	1
267.8070	2
268.0966	10
268.3587	1
268.4540	2
268.6328	1
269.1007	25
269.3444	2
269.4349	1
269.5582	1
269.6473	1
269.7706	3
270.0959	6
270.3420	2
270.4330	2
270.5085	0
270.6621	1
271.1074	24
271.3436	2
271.5565	1
271.7662	2
272.1148	9
272.4677	2
272.5806	1
272.6764	1
273.0820	19
273.4625	2
273.5759	2
273.7405	1
274.1111	15
274.4646	1
274.6653	2
275.1043	25
275.4721	2
275.5912	1
275.7298	2
275.8294	1
276.1166	13
276.4887	1
276.6833	3
277.1257	38
277.3849	2
277.5178	1
277.7215	2
278.1378	13
278.4673	2
278.7005	2
279.1316	21
279.3914	2
279.4659	1
279.6364	1
279.7276	1
279.7950	1
279.9199	1
280.1479	9
280.3393	2
280.4955	2
280.6171	0
280.7121	0
280.8218	1
281.1353	18
281.4056	1
281.5262	1
281.7343	1
282.1290	6
282.3020	1
282.5480	1
282.7827	1
283.1277	13
283.3229	2
283.3757	1
283.4836	1
283.5667	1
284.1597	27
284.5817	2
284.7181	1
285.1504	22
285.4520	2
285.5654	2
285.6550	1
285.7925	1
286.1497	6
286.4542	2
286.5681	0
286.7360	1
287.1297	14
287.3091	3
287.4206	1
287.5719	1
287.8546	2
288.1441	8
288.3723	1
288.5716	1
288.8008	2
289.1486	22
289.6805	2
290.1385	9
290.3108	2
290.4944	3
290.6573	2
291.1513	35
291.4979	1
291.6426	1
291.7632	2
291.8828	2
292.1567	13
292.4900	1
292.5783	1
293.1518	49
293.6399	3
293.7833	1
293.8896	2
294.1428	7
294.3317	2
294.4604	2
294.6651	1
294.7648	1
295.1429	66
295.4824	1
295.6443	2
296.1478	12
296.3630	2
296.5259	2
297.1519	22
297.3776	1
297.4944	3
297.5928	1
297.7405	1
298.1676	9
298.3187	4
298.4394	0
298.5501	1
298.6299	0
298.7558	1
299.1169	5
299.4785	1
299.6258	1
299.8363	1
300.1599	10
300.5805	2
300.7806	1
301.1375	15
301.5111	1
301.6489	1
301.8253	1
302.1357	5
302.2079	2
302.3329	1
302.5169	1
302.6291	1
303.1567	17
303.4286	4
303.5637	0
303.6915	1
303.9031	2
304.1964	10
304.3567	4
304.7684	5
305.1507	24
305.5254	3
305.7679	2
306.1336	13
306.2668	6
306.4918	2
306.7029	1
306.8385	1
307.1894	22
307.4997	1
307.5853	1
307.6827	2
308.1898	11
308.4478	2
308.5576	2
308.7377	1
309.1869	13
309.6669	2
309.7763	1
310.1523	7
310.2507	5
310.4099	1
310.5616	3
310.7080	1
311.1539	7
311.3008	4
311.5309	1
311.7572	2
312.1628	5
312.3358	1
312.4970	1
312.6568	2
312.8432	1
313.1499	5
313.3335	3
313.5094	1
313.6801	1
313.8195	1
313.9645	3
314.0701	3
314.1895	3
314.2931	1
314.4063	0
314.6289	1
314.8144	2
315.1516	5
315.3575	3
315.5673	2
315.7932	1
316.1743	6
316.5334	2
316.6923	3
316.8402	2
316.9758	3
317.1480	12
317.2955	8
317.4958	4
317.6985	2
317.8302	2
318.1771	7
318.3617	4
318.7794	3
319.2046	43
319.5414	2
319.6729	2
319.8995	3
320.2059	7
320.4073	2
320.6548	3
320.8282	2
321.1888	14
321.3555	5
321.5826	4
321.6942	3
322.1812	5
322.4938	3
323.1704	10
323.3624	4
323.5929	2
323.7407	3
324.1769	30
324.5865	3
324.7305	3
324.8869	3
325.0180	3
325.2305	5
325.5532	4
325.6530	2
325.8602	3
325.9691	2
326.0775	4
326.2476	3
326.3764	3
326.5048	1
326.6183	2
326.8365	2
326.9292	1
327.1517	3
327.4136	3
327.5363	1
327.7046	1
327.7583	1
327.9156	2
328.1272	5
328.2527	2
328.4738	2
328.7191	2
328.8108	1
329.1769	10
329.3871	2
329.5521	2
329.6381	1
329.8269	1
330.0561	1
330.2472	1
330.3780	1
330.6252	0
330.7294	1
331.1778	8
331.4465	1
331.6386	1
331.7637	0
332.0262	3
332.2231	4
332.4405	2
332.7406	1
332.8381	1
333.1801	16
333.3680	4
333.5987	3
334.2285	111
334.5947	5
334.7118	3
334.8212	3
335.2075	23
335.5486	3
335.7003	3
336.1837	17
336.7799	3
337.2105	31
337.4817	4
337.6787	4
337.9961	7
338.1807	6
338.3059	4
338.5790	4
338.9650	5
339.2776	3
339.7208	4
340.2448	3
340.8640	4
341.5147	6
341.7656	4
342.0774	4
342.4025	4
342.5724	4
342.7091	7
342.9428	6
343.2123	5
343.5984	4
344.1240	5
344.5616	2
344.7768	2
345.1301	6
345.4850	4
345.7464	3
346.1280	5
346.4568	3
346.6174	2
347.2158	48
347.4976	4
347.6772	3
347.7695	3
348.1506	6
348.3484	4
348.5527	2
348.6834	3
348.7766	2
349.1954	13
349.6503	2
350.2188	27
350.4641	3
350.6552	2
350.7617	2
351.2219	80
351.6046	3
352.2246	28
352.5969	1
352.7862	2
353.2017	4
353.6692	4
354.0125	7
354.3249	6
354.8423	6
355.0601	7
355.2879	6
355.5866	7
356.6216	8
357.5196	11
358.1955	10
358.8097	11
359.2169	12
359.5258	15
359.7234	11
360.1963	14
361.2018	21
362.2303	215
363.2013	18
363.7114	6
364.1886	13
365.2249	211
365.6176	10
365.9551	4
366.2741	6
366.7225	6
366.9954	4
367.2583	8
367.5697	8
367.9126	7
368.3453	8
368.8726	12
369.2302	12
369.4428	12
369.6858	10
370.0810	12
370.6298	13
371.1915	10
371.8450	11
372.9290	16
380.2157	999
380.9933	454
381.5678	193
382.1271	95
382.8158	48
383.2657	31
383.9326	17
384.5529	12
385.1308	7
385.5812	5
385.7868	5
