Mass spectrum: Cyclodiadinoxanthin; FAB-EBEB; MS2; m/z: 582.41; [M]+*
Name: Cyclodiadinoxanthin
Formula: C40H54O3
Exact mass: 582.40730
SMILES: CC(C)(C=1C#CC(C)=CC=CC(=CC=CC=C(C=CC=C(C)C=CC(C(C)(O)2)(C(C)(C)3)OC(C3)C2)C)C)CC(CC(C)1)O
InChI: InChI=1S/C40H54O3/c1-29(17-13-19-31(3)21-22-36-33(5)25-34(41)26-37(36,6)7)15-11-12-16-30(2)18-14-20-32(4)23-24-40-38(8,9)27-35(43-40)28-39(40,10)42/h11-20,23-24,34-35,41-42H,25-28H2,1-10H3/b12-11+,17-13+,18-14+,24-23+,29-15+,30-16+,31-19+,32-20+/t34-,35+,39-,40-/m1/s1
Instrument: JMS-HX/HX 110A, JEOL
Instrument type: FAB-EBEB
Ms type: MS2
Ion mode: POSITIVE
Collision energy: 3 kV
Ionization: FAB
Base peak: 43.0085
Precursor m/z: 582.41
Precursor type: [M]+*
m/z	relative intensity
11.9699	0
13.0104	0
14.0132	1
15.0222	5
19.0183	0
20.2129	0
22.9885	1
25.0082	0
26.0096	5
27.0125	40
28.0179	4
28.5487	0
29.0242	45
30.0090	1
31.0076	4
35.9821	0
37.0009	5
37.2834	0
38.0005	13
38.3399	0
38.5180	0
39.0121	101
40.0141	13
41.0274	263
41.4431	0
41.6235	0
42.0236	14
42.3863	0
43.0085	999
44.0052	5
45.0224	9
45.6633	0
46.0627	0
46.9545	0
47.9350	0
48.3690	0
48.9941	2
50.0021	32
51.0151	70
51.5414	0
52.0201	24
52.4683	0
53.0295	138
53.4247	0
54.0374	8
54.5107	0
55.0388	495
55.4824	0
56.0490	17
57.0584	110
58.0413	16
58.3644	0
59.0459	31
59.9820	0
60.2713	0
60.5781	0
61.0262	7
62.0116	24
63.0190	68
64.0319	15
65.0329	111
66.0379	22
67.0457	180
67.5365	0
68.0573	23
69.0500	333
70.0336	43
70.3915	0
71.0386	132
72.0394	1
72.5929	1
73.0257	3
74.0075	22
75.0209	38
76.0246	21
77.0302	328
78.0377	62
79.0416	280
80.0472	41
81.0558	287
82.0395	31
83.0695	455
84.0534	10
85.0519	143
86.0210	13
87.0245	48
87.5199	0
88.0346	10
89.0391	52
90.0650	17
91.0502	655
92.0606	60
93.0679	354
94.0653	20
95.0657	329
96.0559	28
97.0673	151
98.0316	32
98.5514	0
99.0567	18
100.0359	4
101.0335	21
102.0537	46
103.0579	137
104.0627	57
105.0693	737
106.0736	61
107.0839	306
108.0692	46
109.0795	225
110.0414	10
111.0761	107
112.0817	5
113.0862	128
114.0390	16
115.0424	418
116.0530	143
117.0538	330
118.0591	66
119.0658	642
120.0626	65
121.0694	301
122.0548	35
123.0616	140
124.0512	11
125.0621	128
126.0472	39
127.0408	179
128.0356	502
129.0403	522
130.0492	196
131.0550	446
132.0649	108
133.0602	337
134.0581	37
135.0571	129
136.0430	28
137.0565	51
138.0277	11
139.0682	281
140.0401	35
141.0378	422
142.0496	374
143.0552	595
144.0662	185
145.0695	570
146.0710	67
147.0792	230
148.0636	20
149.0840	65
150.0644	29
151.0604	90
152.0588	225
153.0625	300
154.0715	125
155.0830	513
156.0879	264
157.0953	566
158.0990	130
159.0992	342
160.0914	392
161.1081	109
162.0944	21
163.1009	74
164.1127	43
165.0866	503
166.0999	169
167.1051	346
168.1230	143
169.1244	441
170.1302	150
171.1323	328
172.1233	68
173.1388	204
174.1177	32
175.1197	64
176.0955	58
177.1139	63
178.0955	274
179.1047	462
180.1072	173
181.1178	661
182.1230	166
183.1184	366
184.1250	90
185.1216	188
186.1219	40
187.1228	85
188.0927	29
189.0933	198
190.0961	79
191.1039	284
192.0987	192
193.1047	397
194.1128	192
195.1184	440
196.1231	113
197.1284	350
198.1266	55
199.1314	110
200.1080	33
201.1124	69
202.0839	173
203.0969	205
204.1044	95
205.1139	236
206.1163	175
207.1268	371
208.1364	189
209.1403	295
210.1340	61
211.1435	152
212.1550	33
213.1334	89
214.1336	30
215.1251	212
216.1293	105
217.1431	226
218.1558	93
219.1522	243
220.1643	117
221.1769	489
222.1868	88
223.1896	181
224.1697	40
225.1886	78
226.1542	70
227.1662	83
228.1572	72
229.1670	190
230.1696	85
231.1796	205
232.1818	110
233.1920	303
234.2073	103
235.1983	184
236.1990	42
237.1939	99
238.1968	25
239.1694	105
240.1730	33
241.1571	95
242.1769	60
243.1770	161
244.1914	91
245.1861	213
246.2058	210
247.2042	256
248.1891	53
249.2083	115
250.1723	28
251.2092	62
252.1722	55
253.1757	96
254.1811	46
255.1807	118
256.2022	67
257.2015	147
258.1947	75
259.2053	171
260.2007	65
261.2181	136
262.2126	26
263.1593	83
264.2101	25
265.1900	73
266.1872	40
267.2002	105
268.2010	40
269.2053	117
270.2036	61
271.2069	154
272.2104	49
273.2190	138
274.2246	44
275.2342	74
276.1754	31
277.2178	56
278.1968	22
279.2071	53
280.2083	28
281.2317	109
282.2086	47
283.2215	107
284.2097	46
285.2232	128
286.2353	571
287.2384	86
288.2463	22
289.2234	49
290.1648	12
291.1995	36
292.2461	18
293.2213	56
294.2029	34
295.2316	84
296.2168	39
297.2163	83
298.2348	52
299.2285	205
300.2224	27
301.2400	49
302.2188	15
302.5341	3
303.2212	32
304.2160	10
305.2094	32
306.1797	18
307.2188	54
308.2270	24
309.2104	49
310.2064	25
311.2199	106
312.2383	107
313.2224	53
314.2225	16
315.2133	31
316.2309	11
317.2299	34
318.2167	15
319.2396	34
320.2126	17
321.2531	55
322.2485	17
323.2267	33
323.6845	4
324.2397	18
325.2622	61
326.2253	15
327.2357	33
327.7597	2
328.2744	8
329.2585	23
330.2616	10
331.2522	27
332.2651	11
333.2624	52
334.2725	26
335.2706	51
336.2890	30
337.2840	32
338.2682	12
338.6434	3
339.2934	25
340.2592	10
341.2863	26
342.3057	8
343.3002	24
344.3042	10
345.2802	37
346.3097	23
347.2985	59
348.3064	17
349.2939	31
350.3194	14
351.3136	33
352.3315	26
353.3103	24
354.3112	6
355.2965	19
356.3072	6
357.3149	18
358.3384	9
359.3181	37
360.3404	28
361.3471	106
362.3556	279
363.3176	18
364.3269	13
365.3269	44
365.8568	2
366.3286	7
367.2865	15
368.4112	6
368.7935	1
369.3331	10
370.3181	11
371.3425	23
372.3404	9
373.3415	27
374.3396	24
375.3363	14
376.3282	8
376.7609	2
377.3258	17
378.3314	15
379.3230	9
381.1034	15
382.3111	7
383.3347	28
383.7835	1
384.3363	11
385.3334	20
386.2912	9
387.3043	8
387.8164	1
388.3789	3
388.6106	1
389.3213	11
390.3159	6
391.3452	14
392.3069	7
393.3569	8
394.2904	4
395.3092	12
396.3170	10
397.3471	20
398.3079	7
399.3224	51
400.3575	26
401.3549	47
402.3462	7
402.8560	1
403.3501	10
404.3163	5
405.2999	7
406.3452	3
407.2896	5
407.8439	2
408.4012	3
409.3478	10
410.3938	7
410.7346	3
411.3895	14
412.4152	9
413.3716	55
414.3755	116
415.3842	38
416.3535	6
417.3435	5
418.3809	7
419.4027	8
420.3977	5
421.3565	12
422.3959	4
423.3280	11
424.3566	8
425.3865	10
426.3681	21
427.3908	36
428.3679	19
429.3498	14
430.2655	2
431.3881	7
432.3481	2
433.3477	4
434.2875	4
435.3741	8
436.3914	33
437.3820	7
438.3821	8
439.3712	31
440.4126	14
441.3624	16
442.4245	6
443.3587	10
443.7934	1
444.4210	6
445.3600	4
445.7680	2
446.3008	2
447.3381	10
447.9753	2
448.3881	6
449.4287	7
450.4615	4
451.4343	7
452.3961	5
453.4134	9
454.4481	12
455.4196	27
456.4182	72
457.4737	5
458.9409	5
460.3022	4
461.4200	10
462.4306	18
463.4240	6
464.2531	3
465.3902	7
466.5164	5
467.3963	12
468.3869	8
469.4375	11
470.3650	7
473.0151	26
474.3980	9
475.4507	23
476.4403	7
477.4347	8
478.5746	3
479.4379	7
480.3945	8
481.4208	20
482.4535	22
483.4024	18
487.2827	38
488.4372	114
489.4279	14
490.4314	53
491.0034	3
491.4412	5
491.7399	3
492.5096	3
493.3426	6
493.9243	1
494.4775	4
495.4291	9
496.4520	8
497.4844	14
498.4457	35
499.4435	4
500.4191	8
501.4486	21
502.4434	272
503.4446	7
503.9887	2
504.4854	1
505.2747	2
506.6226	3
507.4183	8
508.4515	34
509.4404	12
510.4468	13
511.3709	7
512.8221	4
513.5929	4
514.4428	3
515.0214	3
515.4606	3
516.0989	1
516.5193	1
517.2272	2
518.2243	1
518.5798	1
519.0444	2
519.3810	2
519.6577	1
520.0938	1
521.4531	6
522.5042	5
523.4669	23
524.4612	34
525.4318	23
526.4579	9
526.8073	2
527.4224	6
528.4327	18
528.8755	1
529.1949	1
529.7595	1
530.1943	1
531.4373	2
532.1617	1
532.5128	1
533.2988	2
534.6813	2
535.7917	2
536.4039	2
537.5034	7
538.4622	28
539.4747	63
540.4589	9
541.4114	8
542.2866	3
543.3246	4
544.2236	5
546.5486	5
549.3013	35
550.3715	3
551.4449	10
552.4550	9
553.4699	9
554.5482	9
555.3812	5
564.5073	251
565.5888	47
567.5168	675
568.6144	25
582.4470	999
587.2950	44
588.3797	16
590.1546	8
