Mass spectrum: Corbiculaxanthin; FAB-EBEB; MS2; m/z: 600.42; [M]+*
Name: Corbiculaxanthin
Formula: C40H56O4
Exact mass: 600.41786
SMILES: C(O)(C2O)C(=C(C(C2)(C)C)C=CC(C)=CC=CC(C)=CC=CC=C(C)C=CC=C(C)C=C=C(C(C)(O)1)C(C)(C)CC(C1)O)C
InChI: InChI=1S/C40H56O4/c1-28(17-13-19-30(3)21-23-34-32(5)37(43)35(42)27-38(34,6)7)15-11-12-16-29(2)18-14-20-31(4)22-24-36-39(8,9)25-33(41)26-40(36,10)44/h11-23,33,35,37,41-44H,25-27H2,1-10H3/b12-11+,17-13+,18-14+,23-21+,28-15+,29-16+,30-19+,31-20+/t24?,33-,35-,37+,40+/m0/s1
Instrument: JMS-HX/HX 110A, JEOL
Instrument type: FAB-EBEB
Ms type: MS2
Ion mode: POSITIVE
Collision energy: 3 kV
Ionization: FAB
Base peak: 582.3853
Precursor m/z: 600.42
Precursor type: [M]+*
m/z	relative intensity
1.0117	1
1.6365	1
1.7276	1
3.3676	2
3.4119	4
9.8813	1
12.9857	2
13.9822	9
14.9791	12
16.2036	10
18.9629	4
20.2863	1
22.9365	16
25.8594	3
25.9675	10
26.9760	73
27.9702	2
28.9723	62
29.9541	1
30.9531	17
33.4596	1
35.9449	5
36.9596	7
37.9443	17
38.6059	5
38.9518	201
39.4358	2
39.9631	23
40.5779	4
40.9690	299
41.5102	5
41.9750	23
42.3989	3
42.9527	942
43.9508	12
44.9602	39
46.9514	5
47.7499	1
48.8875	4
48.9885	6
49.9384	48
50.9468	98
51.9595	55
52.5042	8
52.9643	186
53.9412	8
54.0172	5
54.9737	343
55.9917	15
56.4435	1
56.9822	143
57.9925	12
58.9696	87
59.9390	10
60.9585	12
61.3490	1
61.9432	20
62.9539	95
63.1993	1
63.4125	3
63.5863	4
63.9565	26
64.9628	142
65.7255	3
65.9579	24
66.3003	2
66.4381	6
66.6535	6
66.9712	205
67.9679	9
68.9736	274
69.8706	6
69.9820	3
70.9633	79
71.9306	4
72.9263	22
73.9441	49
74.9460	38
75.4096	5
75.5443	3
75.9317	20
76.4848	3
76.9466	356
77.1961	1
77.2966	3
77.4789	1
77.6862	5
77.9398	45
78.4559	2
78.6406	2
78.9592	321
79.3168	3
79.4638	1
79.7510	2
79.9901	34
80.7281	7
80.9619	313
81.2431	1
81.7164	4
81.9580	37
82.9636	223
83.8098	10
83.9690	10
84.9408	127
85.9255	15
86.9455	258
87.9329	8
88.0426	4
88.9270	23
89.1721	12
89.4454	10
89.6510	7
89.9627	25
90.6622	11
90.9532	667
91.1853	10
91.4441	8
91.9564	56
92.3819	1
92.9670	483
93.9725	27
94.4482	1
94.7299	6
94.9715	257
95.3712	4
95.9804	31
96.6177	5
96.9672	64
97.3045	5
97.9393	15
98.9533	8
99.9896	4
100.4336	2
100.5627	5
100.6849	1
100.9759	33
101.8410	21
101.9767	35
102.2426	6
102.4150	1
102.9726	118
103.9792	87
104.9745	856
105.9919	75
106.4442	6
106.9820	388
107.3761	7
107.6314	6
107.9529	36
108.9901	283
109.4738	4
109.6016	5
109.9910	28
110.4201	7
110.9732	132
111.2965	1
111.8938	3
111.9979	9
112.6573	4
112.9578	20
113.1612	7
113.2559	5
113.3974	8
113.6118	4
113.9641	18
114.1922	15
114.3037	2
114.4403	9
114.5147	4
114.9470	372
115.2942	2
115.4753	4
115.9655	136
116.2483	5
116.5937	6
116.9663	283
117.1440	15
117.4067	4
117.9622	45
118.4007	8
118.9680	673
119.3652	4
119.5565	7
119.9779	90
120.5330	5
120.9654	377
121.2102	4
121.5834	4
121.7455	7
121.9698	48
122.9491	157
123.6683	2
123.9511	36
124.9637	89
125.2796	7
125.5070	4
125.6627	7
125.9203	21
126.3194	1
126.5909	10
126.9381	142
127.3202	8
127.5273	5
127.9273	403
128.1850	10
128.3380	2
128.5421	4
128.9440	433
129.3493	5
129.5963	4
129.9423	192
130.1947	5
130.2970	5
130.6033	4
130.9485	384
131.3831	2
131.9454	90
132.2740	2
132.4680	4
132.5910	7
132.9673	441
133.2199	11
133.5603	4
133.9515	54
134.3047	3
134.9527	196
135.2252	1
135.9288	36
136.9614	144
137.4397	3
137.9362	28
138.1422	4
138.4005	1
138.5436	4
138.9227	105
139.9395	73
140.2952	12
140.4008	10
140.9315	295
141.2464	2
141.3707	9
141.9538	306
142.2791	8
142.3796	5
142.5187	3
142.6365	8
142.9447	554
143.2450	4
143.3409	6
143.4901	8
143.9566	171
144.1586	8
144.3232	14
144.9609	558
145.3259	4
145.5008	6
145.6971	7
145.9769	43
146.2314	8
146.3343	9
146.5629	10
146.9659	236
147.3565	1
147.9901	51
148.3743	5
148.9684	162
149.3248	1
149.5949	8
150.0093	39
150.1300	9
150.5755	7
150.9318	93
151.4078	9
151.9357	118
152.3672	7
152.5480	5
152.9507	198
153.3819	5
153.5272	6
153.9566	114
154.4939	8
154.5928	7
154.9640	358
155.3832	7
155.6387	3
155.9711	234
156.3697	5
156.5390	8
156.9871	616
157.3591	6
157.6339	7
157.9764	106
158.3528	2
158.6731	13
158.9936	372
159.3094	6
159.5096	9
159.7917	12
159.9690	40
160.0624	20
160.3041	2
160.9805	131
161.5428	5
161.8228	4
162.0376	40
162.4417	3
162.6683	7
163.0190	71
163.6142	14
163.9835	54
164.1594	14
164.2667	3
164.4059	14
164.9678	324
165.4857	6
166.0012	87
166.2311	8
166.4046	8
166.5910	2
167.0027	280
167.2798	5
167.3990	2
168.0092	100
168.3301	1
168.5229	1
169.0089	325
169.4187	9
169.5947	7
170.0251	130
170.2278	5
170.5730	2
171.0289	272
171.6832	7
172.0245	64
172.6567	4
173.0248	151
173.7217	4
174.0368	26
175.0291	89
175.4101	5
175.6484	2
175.9947	37
176.2605	5
176.3644	7
176.4587	2
176.9993	48
177.2256	11
177.4738	12
177.6264	5
177.9930	185
178.4439	10
178.5294	7
178.6656	11
178.9730	239
179.4078	7
179.5331	11
179.6844	2
180.0016	115
180.3421	4
180.4984	3
180.6114	3
180.9919	276
181.3950	1
181.6055	3
181.9992	96
182.3443	11
183.0128	271
183.2537	7
183.3801	2
183.6644	5
184.0249	71
184.2297	13
184.3835	2
184.6234	6
184.9979	159
185.2976	6
185.5458	11
185.9880	36
186.3477	4
187.0021	89
187.5342	8
187.7263	7
187.9769	24
188.1615	12
188.3709	4
188.6140	11
189.0102	115
189.9945	51
190.3676	4
190.5573	3
190.7276	20
190.9622	85
191.9836	78
192.2493	7
192.4068	5
192.5960	5
192.9883	239
193.2757	5
194.0026	120
194.5107	6
194.9968	236
195.4166	7
195.5819	8
195.9901	86
196.9944	235
197.4196	5
198.0132	72
198.3914	7
198.7469	11
199.0166	132
199.3139	2
199.6211	10
199.9948	31
200.4658	3
200.6052	3
201.0118	48
201.3012	3
201.6989	18
201.9960	70
202.3529	2
202.4709	5
202.9703	117
203.2927	11
203.4705	6
203.8187	13
204.0327	37
204.3212	1
204.5916	4
204.9831	122
205.3176	5
205.5102	4
205.9770	97
206.2191	8
206.4689	1
207.0132	190
207.4135	6
207.9998	120
208.2757	6
208.5264	10
208.6888	8
209.0218	211
209.4567	8
210.0087	48
210.3427	3
210.7005	7
211.0192	92
211.2319	8
211.3449	7
211.6331	4
212.0155	43
212.6318	12
213.0004	79
213.5792	4
213.6854	7
213.8782	20
214.0123	36
214.1038	17
214.3944	4
214.5775	12
214.9821	82
215.3448	5
215.5272	5
215.9844	45
216.5061	7
217.0174	71
218.0011	39
218.2937	8
218.5317	7
219.0217	127
219.2969	12
219.5322	7
220.0323	62
220.2824	8
221.0153	166
221.3713	8
221.7786	7
222.0821	51
222.4839	5
222.6235	5
223.0527	92
223.4708	7
223.6350	9
223.7612	9
224.0307	49
224.4904	8
224.8610	23
225.0667	94
225.2934	9
225.5722	7
225.9950	38
226.3440	6
226.6637	8
226.9046	37
227.0936	64
227.7352	4
228.0480	41
228.3749	12
228.5331	7
229.0345	54
229.2292	14
229.3917	7
229.5570	7
230.0543	64
230.2063	16
230.3611	4
230.7474	11
231.0451	80
232.0531	33
232.8153	20
233.0822	193
234.0818	72
234.1893	29
234.7282	7
235.0733	76
235.3552	9
235.7130	6
235.8817	15
236.1180	31
236.3416	2
236.4865	8
236.7797	5
237.0885	61
237.4754	6
237.7772	1
238.0066	7
238.1664	11
238.6048	2
238.7491	12
239.1109	57
239.2904	13
239.9903	17
240.1276	14
240.2558	4
240.4924	4
241.0658	36
241.4899	8
242.1051	18
242.6915	9
243.0609	62
243.5671	16
243.7131	4
244.0417	32
244.2512	12
244.5799	2
245.0532	85
245.2741	8
245.3792	5
245.5563	7
246.0242	43
246.4095	2
247.0639	70
247.6253	7
247.8477	7
248.0108	48
248.1578	26
248.7511	6
249.0937	70
249.5473	1
249.7240	8
250.0505	11
250.1933	7
250.5389	2
251.0387	61
251.1836	17
251.9261	18
252.1255	29
252.3929	3
252.8265	10
253.1095	33
253.4364	1
253.5687	7
253.7569	7
254.0520	20
254.8115	11
255.1038	96
255.5605	7
256.0604	27
256.2835	8
257.0067	54
257.1647	9
257.8328	7
258.0432	45
258.2162	13
258.3954	2
259.0865	54
259.3941	2
259.8365	7
260.1073	19
260.2377	12
260.3547	7
260.7646	10
261.0631	61
261.5752	6
261.9874	15
262.1839	12
262.7260	7
263.0736	42
263.1936	15
264.1120	20
264.3541	2
264.4975	1
265.0520	42
265.2246	29
265.3957	5
265.5243	7
265.7537	8
266.1038	36
266.2288	11
266.7325	6
267.0572	24
267.4409	7
267.8786	8
268.0897	23
268.7927	5
269.0877	56
269.6238	5
270.0881	31
270.5276	6
270.8008	11
271.1273	35
271.5932	7
271.9739	21
272.1389	16
272.6627	4
272.8790	13
273.1089	54
273.2143	27
273.6264	5
273.8478	6
273.9980	11
274.1262	7
274.5149	6
274.8994	15
275.1309	48
275.5425	4
276.0048	25
276.3952	6
276.8184	8
277.1191	43
277.2994	9
277.9821	15
278.1464	11
278.3683	4
278.8121	7
279.1016	39
279.2787	11
279.8322	11
280.0115	10
280.1972	6
280.6227	2
280.7551	2
280.9593	11
281.1194	33
281.4767	7
282.0654	33
282.1829	13
282.4064	7
282.7325	8
283.0722	32
283.5023	3
284.0892	14
284.3784	4
284.5173	2
285.1285	51
285.3473	9
285.7185	7
285.8596	4
286.0698	18
286.7412	12
286.8574	11
287.0869	38
287.1831	10
287.5731	4
287.8269	2
287.9716	4
288.1513	15
288.3481	5
288.6797	12
289.0826	31
289.2766	6
289.5933	12
289.9135	8
290.1154	9
290.2424	6
290.5648	8
290.8210	7
290.9023	5
291.0215	17
291.1785	21
291.4111	6
291.7429	5
292.0862	17
292.3353	7
293.0463	77
294.0635	58
294.2218	14
294.7968	11
295.1307	38
295.4176	1
295.8114	1
295.9271	5
296.0526	18
296.2075	31
296.6978	7
296.8242	11
297.0669	58
297.1932	27
298.1770	10
298.7282	7
299.0896	27
299.8802	7
300.1445	25
301.0732	23
301.2633	12
301.6927	7
301.9814	6
302.1029	15
302.8948	2
303.0421	18
303.1743	9
304.0829	16
304.2495	6
304.7872	8
304.9624	8
305.2041	17
305.6039	4
306.1068	16
306.6196	3
306.8178	7
306.9609	27
307.1734	15
308.0492	17
308.2431	14
308.8400	7
309.1212	17
309.8349	7
310.0096	7
310.1542	7
310.2466	7
310.8902	10
311.0585	27
311.1702	18
311.2855	5
311.8899	5
312.0296	16
312.2989	3
312.7594	4
313.0997	61
313.4049	2
313.9866	7
314.1113	7
314.7097	6
315.0988	7
315.8434	10
315.9381	7
316.0800	10
316.1940	8
316.6736	5
316.7961	7
317.0456	10
317.1926	7
318.0652	8
318.1807	7
318.4518	6
318.8125	8
319.1302	15
319.2651	12
320.0219	7
320.2514	8
320.4387	5
320.8218	3
321.0715	21
321.2416	3
321.8609	2
322.0848	8
322.2190	5
322.9913	15
323.1291	9
323.2569	5
324.0918	7
324.3653	9
324.8091	15
325.0597	16
325.2090	17
325.3412	7
325.6191	2
326.0579	14
326.2152	13
326.4680	7
326.8603	12
327.0966	21
327.2596	15
327.3746	12
327.6260	2
328.2935	6
328.5637	6
329.1407	19
329.3039	5
329.4742	7
330.0858	2
330.2770	7
330.5595	7
330.8327	6
331.0268	12
331.2238	6
331.3331	5
331.5121	5
331.6365	7
331.9780	6
332.1103	8
332.2426	6
332.4274	4
332.7201	6
333.0408	15
333.1818	12
333.2782	7
333.3997	7
333.5220	7
333.8248	2
333.9636	5
334.2154	14
334.8671	7
334.9836	9
335.2146	20
336.0528	12
336.2291	11
336.8163	7
337.1236	21
337.2366	14
338.1111	10
338.4030	7
338.9764	9
339.1805	10
339.7266	5
340.1284	6
341.0197	14
341.2238	13
341.6286	2
342.0412	6
342.8861	9
343.0702	21
343.2737	8
344.2136	6
344.4740	4
345.1106	14
345.2480	5
345.3854	1
345.8221	5
346.1127	12
346.2659	5
347.0567	14
347.2323	24
347.6173	7
347.8454	4
348.0376	10
348.1376	8
348.3262	8
349.0056	8
349.1395	8
349.3209	8
349.6715	2
349.9062	4
350.0350	6
350.1833	13
350.9926	14
351.1841	19
351.3613	6
352.1001	6
352.3104	13
352.8808	3
353.1596	11
353.2575	16
353.4211	7
354.0276	5
355.1962	20
355.6760	2
356.1012	7
356.9847	3
357.0885	7
357.2759	5
358.0976	6
359.0153	7
359.1696	18
359.4695	2
360.0312	9
360.3059	9
360.4040	7
361.0033	9
361.1605	9
361.6127	7
362.1464	14
362.3672	11
363.2631	11
364.0711	11
364.2190	4
364.3821	10
364.6577	2
364.8294	7
365.1808	40
366.2310	10
367.1773	14
367.5932	7
367.7129	9
368.0315	8
368.2557	5
369.0119	7
369.2044	17
369.3140	4
370.0984	14
370.2672	8
370.6436	5
372.1855	12
373.0179	7
373.1326	6
373.2220	6
374.0654	9
374.2515	5
374.8677	6
375.0351	11
375.2653	11
376.0179	4
376.2366	3
376.9930	7
377.1979	7
377.3055	18
377.9955	8
378.1652	10
378.2901	7
379.0993	27
379.2242	11
379.4473	4
380.1845	7
380.5374	9
380.8958	4
382.4487	7
383.1433	10
383.3431	7
384.2074	2
385.1259	21
386.2480	5
387.0203	7
387.2808	6
388.0027	8
388.3975	2
389.0912	7
389.9258	7
390.0558	7
390.1771	7
390.7540	1
391.1483	8
391.3130	10
391.7087	5
392.0922	7
392.3175	4
393.1828	11
393.7274	1
394.2656	6
395.0625	10
395.3536	10
396.2900	8
397.0509	4
398.2962	7
399.1483	5
399.3847	4
401.0091	5
401.4126	7
401.9635	8
402.2036	5
402.3764	11
403.1870	8
403.2536	4
405.0617	5
405.6636	4
406.1794	7
406.3537	3
406.8934	7
407.2327	10
407.6220	7
408.6857	1
408.8586	1
409.0887	5
409.2125	13
411.0342	7
411.6791	4
412.1157	9
413.1983	7
413.3305	8
414.7822	1
415.1363	7
415.2382	2
416.0375	8
416.3295	3
417.0697	7
417.2244	10
417.4477	4
417.6826	2
417.9299	7
418.3044	10
419.0179	8
419.2984	9
420.0084	7
420.2210	7
421.2283	7
421.6774	7
422.7796	4
423.3257	10
423.5680	1
424.7760	11
425.0842	7
425.2520	7
425.9530	2
426.1252	3
427.0753	2
427.2279	7
427.3799	6
428.1390	4
428.3279	7
428.9785	6
429.2918	14
429.9324	2
430.2688	8
430.3816	4
431.1531	7
431.2760	9
431.4908	6
431.6296	6
431.9868	7
432.1206	5
432.3585	8
433.0911	7
433.2625	6
433.5591	7
433.8686	1
434.1919	4
434.4805	4
436.4460	14
436.9987	6
437.2455	8
440.0596	8
441.0048	8
441.1604	14
441.2784	5
441.4962	5
442.2570	8
442.5538	8
442.8086	7
443.0526	14
443.3204	8
443.7620	7
444.1711	20
444.3542	8
445.1268	26
446.0753	27
446.3049	14
446.6974	2
447.1116	146
447.2752	47
447.4606	21
448.3493	6
449.0779	7
449.2054	8
449.3119	13
449.4821	8
449.6943	5
449.8102	6
450.8642	10
451.2764	10
451.4010	8
451.7169	5
452.1668	7
452.4632	2
453.4993	7
454.1660	9
454.5189	7
454.8602	7
454.9964	7
455.2131	7
455.4530	11
456.8656	10
457.0359	4
457.1721	12
457.5179	9
457.9992	5
458.1884	7
459.2744	2
459.9696	11
460.3872	13
460.8788	2
461.3480	1
461.8650	2
462.1739	8
462.3501	12
462.4581	7
462.7881	6
463.3820	3
463.7424	5
464.3277	8
465.1342	3
465.3366	1
466.1766	8
466.3923	8
466.5414	2
466.7065	7
466.9324	5
467.1040	7
467.4508	7
467.6441	7
467.8019	7
468.1227	10
468.8351	1
469.0220	4
469.7968	2
470.0242	12
470.3211	8
470.6223	7
470.8896	4
470.9881	4
471.4711	8
471.6044	5
471.9404	19
472.0317	4
472.1425	3
472.5626	16
472.7770	11
473.3043	23
473.4463	7
473.5846	14
473.8230	15
474.0432	5
474.2127	12
474.4402	8
474.7104	8
474.9016	7
475.1472	7
475.3870	11
475.9521	8
476.1789	10
476.2781	8
476.5252	8
476.9019	8
477.3309	7
477.5345	2
477.8635	2
478.1251	9
478.2990	11
478.6808	4
479.3794	6
480.2317	5
480.9333	7
481.0724	7
481.2007	7
481.4182	8
482.6149	7
483.2006	13
483.3861	3
483.5065	8
483.6392	8
483.9552	12
484.1277	8
484.3387	3
484.9926	4
485.4023	9
485.8185	7
485.9388	22
486.2607	7
486.5167	7
487.3143	6
487.7552	3
487.9851	4
488.2113	7
488.3528	8
488.5681	6
488.8814	5
490.0534	7
490.2652	8
490.4168	7
490.7533	7
490.8512	7
491.3096	2
491.8544	9
493.0890	12
493.2290	8
493.6121	8
494.6514	6
494.7738	5
495.2671	6
495.5011	1
496.0726	5
496.9224	13
497.2904	10
497.3861	7
497.5114	7
498.0519	8
498.8496	5
499.1301	6
499.3511	18
500.1634	10
500.3895	27
500.7692	7
501.2344	10
501.4098	8
501.6033	7
502.2758	10
502.4164	14
503.5833	8
503.9291	7
504.3517	1
505.4339	10
505.6420	6
505.8217	9
506.0102	2
506.1871	8
507.3666	8
507.5037	7
507.7016	6
508.2874	51
508.4556	21
508.7326	8
508.8733	4
508.9806	9
509.1517	7
509.6020	10
509.7644	4
510.7847	7
511.6766	7
511.8812	8
512.1089	7
512.4171	7
512.9073	1
513.1489	7
513.4702	4
513.6080	9
513.9315	4
514.2049	8
514.4327	6
515.2139	3
515.4881	7
516.4855	7
517.1892	2
518.3776	6
518.5038	11
518.8020	8
519.1960	8
519.3832	4
519.8497	7
519.9825	8
520.2749	16
520.4019	7
520.7422	7
521.0185	7
521.5413	3
523.1480	8
523.4435	9
523.6759	10
524.1220	7
524.2770	7
525.1801	7
525.3770	9
525.6848	6
526.3809	6
526.9675	5
527.4086	11
527.8599	4
528.2112	7
528.3438	8
528.4567	8
528.6900	8
529.9584	6
530.3170	1
530.5952	7
530.9755	2
531.2552	7
531.4841	8
531.8507	5
532.4630	6
533.1172	7
533.2281	1
533.8527	9
534.0381	8
534.1447	2
534.3128	1
534.7903	5
535.0077	9
535.2903	7
535.4193	11
536.0802	8
536.2628	8
536.7441	5
536.9426	1
537.0833	8
537.1999	6
537.3550	6
537.4746	7
537.6217	6
537.9218	2
538.3892	6
538.5871	4
538.8350	8
539.5192	7
539.9135	5
540.2224	9
540.3514	2
540.4797	8
540.6398	7
541.0414	6
541.2060	7
541.6366	2
542.0353	11
542.1919	21
542.3622	9
542.9350	7
543.2163	7
543.3743	7
544.2480	10
544.5119	10
545.4922	4
546.8996	7
547.2760	10
547.8554	10
548.1027	4
548.6444	4
549.1535	7
549.3036	9
549.5306	11
549.7453	5
549.9825	5
550.3240	1
551.2060	7
551.4686	6
551.6187	5
551.7979	7
552.0996	4
552.2295	6
552.6378	4
552.9280	12
553.2370	23
553.4155	4
553.8159	7
553.9813	8
554.0974	6
554.3280	8
554.6958	17
554.9250	5
555.1072	6
555.4031	11
555.5954	7
555.7050	6
555.9291	13
556.1511	18
556.3347	15
556.5110	14
556.7744	18
556.9376	20
557.1306	16
557.3214	10
557.4687	5
557.5993	7
557.7829	10
558.1979	14
558.3590	10
558.5498	11
558.7022	6
558.9235	10
559.0889	11
559.3052	5
559.6767	7
559.8429	3
559.9481	7
560.2144	2
560.4379	17
560.5983	8
560.7100	11
561.3516	7
561.6019	10
561.7594	7
561.9002	3
562.0881	7
562.2580	8
562.3901	5
562.5599	10
562.7624	6
562.9663	9
563.2980	9
563.6290	8
563.8547	12
564.3265	54
564.5805	32
565.0262	8
565.2011	13
565.3927	15
565.5676	7
565.6828	7
566.0457	12
566.4360	6
566.5766	10
566.7533	10
566.9742	6
567.2371	32
567.4334	35
567.7000	16
567.9282	7
568.0447	11
568.3395	15
568.4874	7
568.6518	12
568.8111	5
569.0031	8
569.3058	12
569.4797	8
569.6318	5
569.7644	11
570.0252	19
570.1534	13
570.2874	16
570.5403	23
570.7685	15
570.9633	8
571.2299	20
571.3843	15
571.5386	12
571.7255	20
571.8327	10
572.0008	12
572.2580	14
572.4978	18
572.8101	16
572.9897	9
573.3542	15
573.6976	13
573.8918	7
574.2040	29
574.4946	19
574.6982	15
574.9648	23
575.0612	12
575.1909	13
575.3511	25
575.4989	16
575.6315	13
575.8706	29
576.1627	46
576.5504	39
576.8605	40
577.3011	36
577.4822	54
577.6228	37
577.8439	30
578.4178	57
578.6983	37
578.8599	36
579.1215	43
579.5941	59
579.7042	33
579.9456	32
580.2978	42
582.3853	999
582.9753	36
583.3856	98
583.5009	65
583.9191	26
584.2729	33
584.5034	43
585.2392	88
585.5618	106
585.7909	25
585.9780	13
586.1157	7
586.2324	7
586.4130	13
586.5282	8
586.8204	16
587.0807	27
587.2423	12
587.4308	13
587.5787	33
587.7296	15
587.8333	10
588.0348	15
588.2762	20
588.6061	11
588.9244	15
589.0571	5
589.2319	7
589.4153	15
589.5502	10
589.7946	18
590.1553	28
590.7449	28
591.0237	23
591.3721	14
591.6944	22
591.9030	23
592.1985	27
592.6165	37
593.0735	30
593.6132	43
593.8088	28
594.3275	42
594.7701	61
595.0555	50
595.6749	68
600.3517	999
601.2046	662
601.6061	347
602.1669	180
603.0220	119
603.3699	63
603.5344	42
603.9229	67
604.3047	43
604.5744	36
604.8425	36
605.1179	24
605.3441	27
605.8448	28
606.1123	15
606.3356	12
606.4486	13
606.6958	11
606.9226	18
607.1843	13
607.4242	7
607.6243	5
607.7337	6
607.8461	4
608.1541	11
608.2962	10
608.5485	2
608.6557	7
608.8442	1
609.0768	7
609.2965	4
609.6343	5
609.7372	11
610.0388	1
610.1816	4
610.7499	1
611.5234	7
