Mass spectrum: Anhydrolutein-I; FAB-EBEB; MS2; m/z: 550.42; [M]+*
Name: Anhydrolutein-I
Formula: C40H54O
Exact mass: 550.41747
SMILES: C(=CC=CC=C(C=CC=C(C)C=CC(=C(C)2)C(C)(C)CC(C2)O)C)(C)C=CC=C(C)C=CC(C1(C)C)C(C=CC1)=C
InChI: InChI=1S/C40H54O/c1-30(18-13-20-32(3)23-25-37-34(5)22-15-27-39(37,7)8)16-11-12-17-31(2)19-14-21-33(4)24-26-38-35(6)28-36(41)29-40(38,9)10/h11-26,36-37,41H,5,27-29H2,1-4,6-10H3/b12-11+,18-13+,19-14+,25-23+,26-24+,30-16+,31-17+,32-20+,33-21+/t36-,37+/m1/s1
Instrument: JMS-HX/HX 110A, JEOL
Instrument type: FAB-EBEB
Ms type: MS2
Ion mode: POSITIVE
Collision energy: 3 kV
Ionization: FAB
Base peak: 104.9524
Precursor m/z: 550.42
Precursor type: [M]+*
m/z	relative intensity
0.0568	0
0.1941	0
0.8693	0
1.7979	0
2.2834	0
3.2688	0
3.8698	0
6.4200	0
7.6366	0
12.9650	1
13.9736	4
14.9799	8
22.9328	4
24.9344	3
25.9499	10
26.7113	0
26.9547	82
27.3834	0
27.9607	11
28.9644	84
29.9609	1
30.5463	0
30.9526	8
33.0962	0
35.9488	0
36.7918	0
36.9278	11
37.0521	1
37.2933	0
37.9405	28
38.4677	0
38.9396	185
39.1635	0
39.5342	0
39.9530	20
40.9583	343
41.6927	1
41.9710	7
42.1434	0
42.3862	0
42.7129	0
42.9581	222
43.9321	4
44.9514	7
47.9200	1
48.3941	0
48.9274	5
49.2795	0
49.9300	52
50.4972	0
50.9340	116
51.4261	0
51.6068	1
51.9452	41
52.2257	1
52.7016	0
52.9483	210
53.8663	1
53.9650	8
54.9543	399
55.2577	0
55.9357	5
56.9725	142
57.9755	2
58.4959	1
58.9566	26
59.3535	1
59.5787	0
60.9177	6
61.4538	0
61.6507	0
61.9273	32
62.1510	1
62.3342	1
62.4462	0
62.6417	2
62.9275	97
63.2803	1
63.4017	0
63.9269	16
64.0487	1
64.9421	160
65.2241	1
65.3796	1
65.6096	1
65.9404	21
66.0857	0
66.1827	0
66.9485	266
67.1734	1
67.8367	2
67.9463	11
68.5255	1
68.9542	275
69.2317	0
69.9239	1
70.3787	2
70.9394	35
71.3892	1
72.9402	3
73.9168	19
74.3219	0
74.5928	2
74.7408	2
74.9220	32
75.0872	3
75.2857	2
75.4788	2
75.5613	1
75.9296	16
76.1170	2
76.2230	1
76.4538	3
76.5737	4
76.9232	451
77.2285	4
77.5564	3
77.6594	1
77.9292	95
78.2270	3
78.3537	0
78.4536	1
78.6637	2
78.9375	450
79.1853	1
79.5218	2
79.9404	43
80.2680	2
80.3258	1
80.4645	1
80.6066	1
80.9471	437
81.1772	2
81.4367	2
81.9527	9
82.1067	1
82.3696	1
82.4758	2
82.9548	96
83.4130	1
83.9375	3
84.9413	131
85.1385	1
85.2625	0
85.4934	1
85.5833	2
85.6533	1
85.9158	13
86.1762	0
86.3016	1
86.7728	3
86.9229	15
87.9314	7
88.1054	2
88.3843	3
88.6319	2
88.9250	48
89.1918	7
89.4945	4
89.9439	16
90.2908	5
90.4756	3
90.6299	4
90.9341	855
91.1907	3
91.2905	1
91.3879	2
91.4710	1
91.5409	1
91.9387	76
92.2201	1
92.3281	2
92.6185	5
92.9524	597
93.1614	5
93.3947	1
93.6918	2
93.9567	28
94.1962	1
94.5223	0
94.6279	2
94.9688	284
95.2495	2
95.3204	1
95.9505	4
96.1281	1
96.5278	0
96.9575	29
97.9250	5
98.2208	0
98.9307	8
99.9700	3
100.5448	1
100.9226	11
101.1949	3
101.3655	4
101.4620	1
101.5932	1
101.9347	51
102.1373	1
102.4190	3
102.5569	3
102.9450	158
103.2561	3
103.3842	3
103.4639	1
103.5661	2
103.9466	72
104.1257	3
104.2351	2
104.4073	4
104.5504	3
104.9524	999
105.3208	1
105.6242	1
105.9661	109
106.4908	2
106.6478	3
106.9697	478
107.4366	4
107.9490	19
108.2157	4
108.3328	4
108.4927	2
108.5777	1
108.9714	220
109.2112	1
109.4345	2
109.6381	1
109.9348	8
110.4129	1
110.9624	26
111.6952	1
111.8123	2
111.9719	2
112.2218	2
112.3881	5
112.5927	3
112.9357	14
113.0919	2
113.3776	4
113.5598	2
113.6515	3
113.9506	24
114.1821	4
114.2949	2
114.9275	423
115.2266	2
115.4087	4
115.5662	7
115.9377	178
116.1398	7
116.4214	6
116.9391	445
117.2385	3
117.4965	2
117.9432	92
118.2684	3
118.9469	895
119.2073	4
119.4581	4
119.5922	2
119.9496	93
120.2587	5
120.3525	2
120.4808	4
120.9555	416
121.2165	1
121.3317	2
121.4607	1
121.5880	0
121.7705	1
121.9676	14
122.2078	0
122.3479	1
122.9513	61
123.2519	1
123.4682	1
123.6463	2
123.8080	5
123.9600	5
124.5853	1
124.9243	11
125.0984	4
125.2653	1
125.4188	1
125.5102	1
125.9032	17
126.0611	3
126.2684	1
126.9120	163
127.1715	6
127.4084	8
127.9160	500
128.2222	9
128.3610	8
128.4392	5
128.9163	568
129.2124	1
129.3593	3
129.4714	2
129.9227	235
130.4588	6
130.9340	648
131.2781	3
131.5125	3
131.9464	128
132.1626	1
132.3481	2
132.4752	1
132.9447	427
133.2847	1
133.5208	2
133.9330	27
134.2200	2
134.4411	2
134.9543	154
135.1898	3
135.3137	2
135.5345	2
135.7466	2
135.9477	6
136.2267	2
136.4359	1
136.9293	28
137.2616	1
137.4797	1
137.5984	1
137.8995	7
138.0194	1
138.2383	2
138.4103	3
138.9232	64
139.4340	2
139.9333	27
140.2660	6
140.9189	362
141.2979	5
141.9210	349
142.2644	3
142.4066	3
142.9304	612
143.4563	4
143.9495	220
144.9465	641
145.3164	5
145.5058	5
145.9557	61
146.4095	2
146.5124	3
146.9609	173
147.1886	2
147.5181	2
147.6992	3
147.9670	11
148.1644	1
148.2574	1
148.4592	2
148.6135	3
148.9766	79
149.3673	2
149.4805	3
149.6537	2
149.7638	3
149.9508	15
150.1285	2
150.3012	2
150.5021	2
150.9465	41
151.1682	6
151.5427	6
151.9343	152
152.2321	6
152.9274	186
153.2486	3
153.4425	5
153.9527	118
154.3621	5
154.9613	410
155.2372	4
155.4465	4
155.9664	242
156.3601	3
156.9730	561
157.3733	4
157.4973	3
157.9778	114
158.3709	5
158.9854	320
159.4355	6
159.6689	1
160.0051	36
160.2505	2
160.4121	1
160.5737	2
161.0099	66
161.3168	1
161.5328	1
161.6503	1
161.9984	5
162.1077	2
162.2884	3
162.4673	2
162.6348	2
162.9838	37
163.3374	2
163.5550	3
163.9289	17
164.9620	301
165.2236	3
165.5233	4
165.9833	125
166.2313	3
166.4208	2
166.5308	1
166.9840	301
167.2647	1
167.5170	2
167.9951	95
168.1837	6
168.3501	4
168.9937	374
169.3015	1
169.5022	3
169.9931	130
170.3973	2
170.9969	299
171.3171	6
171.4781	8
171.9925	42
172.2983	3
172.5058	7
173.0174	277
173.2885	5
173.5628	3
173.9858	15
174.3174	5
174.5506	3
175.0070	83
175.3948	4
175.5817	3
175.9748	30
176.2063	2
176.3189	0
176.4468	3
176.5518	3
176.7548	10
176.9966	39
177.1889	8
177.9504	184
178.3046	3
178.9583	243
179.4803	5
179.9623	125
180.4726	6
180.9664	277
181.3927	4
181.9819	105
182.2820	2
182.3931	2
182.9814	309
183.3360	3
183.4440	0
183.9943	75
184.3063	2
184.4438	1
184.5813	4
184.9893	135
185.2702	2
185.3936	1
185.5190	2
185.6662	2
185.9887	22
186.2646	4
186.9906	67
187.3064	2
187.4281	2
187.6933	2
188.0149	9
188.2546	5
188.3661	4
188.9520	73
189.1796	4
189.3008	1
189.4707	2
189.5804	2
189.9524	29
190.3476	8
190.9476	123
191.2711	3
191.4495	4
191.9587	110
192.1931	6
192.4687	4
192.9582	217
193.3219	1
193.3958	1
193.9550	110
194.9601	269
195.3950	3
195.5693	4
195.9657	85
196.2946	2
196.5180	2
196.9899	217
197.3557	3
197.5502	2
197.6873	2
198.0172	33
198.2594	2
198.4115	3
198.5404	4
198.9999	113
199.3409	2
199.4975	6
199.9915	20
200.2778	5
200.3913	5
200.4739	2
200.6371	2
201.0132	46
201.3972	3
201.9483	69
202.4073	3
202.9575	91
203.2953	2
203.4368	1
203.5744	1
203.9685	41
204.2522	6
204.4183	3
204.9586	106
205.2463	4
205.4067	2
205.5741	3
205.9751	97
206.3050	2
206.4014	2
206.5055	3
206.9688	183
207.2386	4
207.4075	2
207.5629	1
207.9784	87
208.3863	3
208.4698	2
208.9924	183
209.4070	3
209.7724	7
210.0251	35
210.1974	4
210.3828	3
211.0083	88
211.2793	3
211.3940	3
211.6093	5
211.9899	17
212.2663	1
212.5361	5
212.9915	35
213.3335	2
213.5113	3
213.6950	2
213.8066	3
214.0779	10
214.3681	5
214.4921	2
214.9661	78
215.2967	2
215.9463	43
216.9574	86
217.6146	4
218.0014	37
218.2297	2
218.4612	3
218.6042	3
219.0166	127
219.4096	3
219.6288	2
220.0336	45
220.3421	2
220.5549	2
221.0223	132
221.3329	3
221.4045	1
221.6279	5
222.0447	46
222.2329	4
222.3267	1
222.6192	5
223.0414	85
223.4864	2
223.6565	1
223.8149	4
224.0424	17
224.3396	1
224.6363	1
225.0588	47
225.6731	4
226.0338	19
226.3485	1
226.5242	1
227.0052	25
227.3744	3
227.5567	2
227.7103	5
228.0164	30
228.4860	1
228.9934	52
229.3771	1
229.5016	1
229.6234	2
230.0073	23
230.5515	4
230.6356	2
231.0091	64
231.2791	3
231.5281	4
232.0153	40
232.3942	2
232.5788	3
233.0322	76
233.3513	2
233.4465	1
233.6019	2
233.7630	5
234.0652	37
234.3152	5
234.4973	1
234.6135	2
235.0320	79
235.5838	1
235.7496	5
236.0631	17
236.3146	1
236.4113	2
237.0515	61
237.3227	1
237.4782	1
237.6037	2
238.0624	11
238.5056	2
238.7632	5
239.0469	43
239.3058	2
239.6387	4
239.9362	10
240.1070	9
240.2345	2
240.4235	2
240.5753	3
241.0189	31
241.4173	1
241.9939	20
242.2707	1
242.4592	3
243.0052	47
243.3293	2
243.4308	1
243.7411	3
244.0267	29
244.4766	2
245.0177	51
245.3060	1
245.5491	2
245.6513	1
246.0294	22
246.4377	3
246.6881	4
247.0440	68
247.6315	2
248.0596	22
248.4558	1
249.0572	43
249.5486	1
249.7336	2
250.0663	18
250.1877	7
250.4331	3
250.5722	2
250.7566	5
251.0888	37
251.5568	4
252.0252	20
252.5115	1
252.6047	1
253.0444	34
253.2157	12
253.4869	0
253.7094	2
254.0180	15
254.2563	1
254.4822	2
254.6142	3
255.0325	28
255.4128	4
255.5455	1
256.0020	18
256.1841	8
256.3634	1
256.5309	0
256.6571	2
257.0389	30
257.5298	2
258.0215	16
258.3397	2
258.4192	1
258.5126	0
259.0392	48
259.4489	2
259.5331	1
259.6343	2
260.0539	21
260.5071	1
260.6249	2
261.0598	39
261.3861	3
261.6111	1
261.7151	1
262.0816	14
262.2330	3
263.0577	29
263.4679	2
263.6516	3
263.7576	2
264.0835	11
264.2191	4
264.5287	2
265.0641	39
265.5127	2
265.7202	5
266.0226	12
266.2136	8
266.3876	1
266.4963	4
266.7513	7
267.0643	27
267.3391	1
267.5757	4
267.7643	3
268.0286	6
268.2890	2
268.7518	2
269.0715	29
269.3929	1
269.7267	2
269.8775	9
270.0638	11
270.2831	2
270.4326	2
270.7658	3
271.0720	29
271.4916	1
271.7511	1
272.0851	14
272.3025	1
272.8078	5
273.0846	31
273.5314	2
273.6237	3
273.7858	3
274.0758	12
274.1951	5
274.2999	2
274.4838	1
274.6077	5
274.6934	2
275.0830	26
275.4608	2
275.5643	1
275.7918	6
276.0938	11
276.3675	3
276.6017	3
276.7711	2
277.0838	21
277.5818	1
277.8378	1
277.9962	7
278.1149	6
278.3016	1
278.4527	3
278.6797	2
279.0789	27
279.5687	3
279.7244	1
280.0663	9
280.1660	5
280.2914	1
280.5912	1
280.7324	1
281.0612	14
281.3082	2
281.5399	1
281.8146	2
282.0728	12
282.1911	6
282.3608	1
282.7406	3
283.0768	25
283.2961	4
283.4560	1
283.5901	2
283.7202	1
283.8385	2
284.1167	16
284.3228	1
284.4708	2
284.5706	3
284.7827	4
285.0873	22
285.2965	3
285.7500	2
285.9051	2
286.0985	4
286.2813	2
286.4338	2
286.5922	1
286.7540	2
287.0847	19
287.4182	2
287.6730	0
287.8553	3
288.0811	7
288.1888	2
288.3004	1
288.4846	1
288.5923	1
289.0811	15
289.3803	0
289.5032	0
289.8328	1
290.0502	8
290.2173	4
290.3078	2
290.5668	1
290.6996	1
291.0730	15
291.3168	1
291.4503	1
291.6208	1
291.8238	4
292.0352	7
292.2587	2
292.4953	1
293.0083	9
293.1888	6
293.3726	0
293.7435	0
293.9015	2
294.0774	4
294.2050	3
294.6025	3
294.7863	2
295.0661	15
295.4021	1
295.5847	3
296.0424	8
296.1681	4
296.3507	1
297.0653	20
297.8620	2
298.0930	13
298.2525	3
298.4113	0
298.6033	0
299.0679	9
299.5359	2
299.6379	2
299.8571	2
300.1232	4
300.4755	3
300.7509	3
301.1337	7
301.7304	0
302.0742	6
302.3603	1
302.5180	1
302.7280	2
303.0970	16
303.2957	2
303.4527	0
303.9788	3
304.1081	3
304.2048	1
304.3069	0
304.7707	1
305.0909	12
305.3924	1
305.6887	2
305.9923	4
306.1593	3
307.0729	12
307.1989	7
307.4522	2
307.7181	3
308.0278	4
308.2287	2
308.3216	2
309.0286	11
309.1672	9
309.2786	3
310.0833	7
310.3925	1
310.4900	2
310.8330	2
311.0825	11
311.3844	3
311.4946	2
312.0168	2
312.2180	2
312.5691	1
312.6587	1
312.7861	2
312.8910	2
313.0695	14
313.1844	7
313.2607	3
313.4180	1
313.7320	1
314.0421	4
314.2260	3
314.3322	2
314.5620	2
315.0912	12
315.5540	2
315.7791	2
315.9897	6
316.1783	4
316.3410	2
316.4905	2
316.7854	3
317.1335	13
317.6802	1
317.8357	1
318.0848	4
318.2503	2
318.6237	2
318.7699	1
319.0762	12
319.6232	2
319.9787	2
320.1156	4
320.9970	5
321.1220	2
321.2696	2
321.5136	1
321.7496	1
322.1206	7
322.2416	2
322.4983	2
322.8022	1
323.1114	8
323.6520	1
324.0571	3
324.2054	2
324.4315	1
325.0608	7
325.2458	5
325.8013	2
326.0953	3
326.2177	1
326.8319	2
327.0968	11
327.2352	3
327.4508	0
327.6491	1
327.8517	1
328.0502	2
328.2196	4
328.3843	2
328.5723	2
328.7795	2
329.1329	6
329.4744	0
329.8424	1
330.0829	4
330.3341	2
330.4995	2
331.1128	13
331.2497	5
331.4225	2
331.6245	1
331.7388	0
331.9541	3
332.2466	3
332.3569	2
332.4633	1
332.8614	6
333.1013	13
333.3726	2
333.4856	1
333.7189	1
333.9030	4
334.0620	2
334.2627	3
334.7434	2
335.1158	6
335.4961	2
335.6870	1
336.1186	5
336.5981	1
337.0517	12
337.2306	3
337.5433	1
337.8167	1
337.9284	2
338.1340	4
338.4733	1
338.6083	1
338.7321	1
338.8206	1
338.9669	2
339.1799	7
339.2863	3
339.5192	1
339.9917	4
340.1474	4
340.2545	2
340.4149	2
340.8635	1
341.0764	7
341.2268	5
341.9264	1
342.1554	3
342.2706	1
342.7026	2
342.7871	1
343.0967	8
343.3091	3
343.5821	1
344.0368	10
344.2106	11
344.6208	2
344.7460	1
344.8632	2
345.1076	13
345.2655	5
346.1253	5
346.2758	4
346.9386	4
347.0692	3
347.2357	5
347.3903	3
347.6528	2
348.0132	8
348.2897	4
348.8481	2
349.1433	10
349.3625	3
349.6124	0
350.0583	4
350.2689	7
351.0720	4
351.3040	3
351.8266	2
351.9073	2
352.1666	3
352.3806	2
352.6199	1
352.7386	2
353.1173	6
353.2120	2
353.4720	1
353.6887	2
354.1115	3
354.1922	2
354.4027	0
354.6631	1
355.1654	6
355.2714	7
355.3906	2
355.5851	2
356.2001	2
356.6312	2
356.7978	2
357.1743	11
357.4108	4
357.8280	2
357.9846	2
358.2312	4
358.8184	3
358.9184	2
359.1030	5
359.2610	3
359.4210	2
360.0136	2
360.1076	2
360.2176	0
360.4916	1
360.5843	0
360.7789	2
361.1983	9
361.3263	4
361.6104	0
362.1298	13
362.3125	7
362.4759	4
362.6800	2
363.1788	9
363.4402	1
363.6690	2
363.8364	1
363.9445	2
364.1759	3
364.3080	1
364.5014	1
364.9937	2
365.2038	4
365.3639	2
365.7349	1
365.9317	2
366.1024	3
366.2759	2
367.0012	4
367.0980	3
367.1940	1
367.2721	0
367.5564	2
368.0075	2
368.1389	1
368.2862	1
368.9526	1
369.2025	4
369.2939	2
369.7311	1
369.9177	2
370.2496	3
370.5363	0
371.0876	4
371.2489	3
372.0916	3
372.3809	2
372.5136	2
372.7009	0
372.8376	2
373.0043	2
373.1570	4
373.2970	1
373.4024	3
373.8212	0
373.9485	5
374.1212	7
374.2133	4
374.4727	2
375.1336	10
375.2810	5
375.5538	1
376.1515	8
376.3910	2
376.7011	0
376.9326	1
377.2422	8
377.3923	2
377.8380	2
378.0067	2
378.1408	1
378.2769	2
378.8148	2
378.9409	5
379.1110	2
379.3993	1
380.0893	2
380.3062	0
380.7714	1
381.1398	5
381.3040	1
381.9314	2
382.1317	2
382.7692	4
383.1530	7
383.2605	3
383.7646	2
383.8734	2
384.1452	6
384.7381	1
384.9344	2
385.2122	8
385.3210	3
386.1317	2
386.2453	1
386.4089	1
386.8898	1
387.1442	3
387.3253	1
387.5924	1
387.7380	2
387.9190	1
388.1502	3
388.3813	5
389.1161	2
389.3459	2
389.9720	1
390.1610	3
390.3274	0
391.0677	1
391.2027	3
391.2963	1
391.5014	1
392.1650	6
392.3388	4
392.4337	1
392.7725	1
393.0786	3
393.1595	2
393.7824	1
393.9228	2
394.0638	0
395.1668	3
395.8427	3
396.1395	20
396.3180	5
396.6530	2
397.1866	39
397.3437	16
397.5175	1
397.6506	2
397.9128	1
398.1622	5
398.3561	6
398.8911	2
399.2650	7
399.4054	2
399.4970	2
399.9129	2
400.0237	1
400.1198	1
400.2079	1
400.3415	1
401.0064	0
401.1640	10
401.2902	9
401.3983	2
401.5813	2
401.9699	4
402.2236	6
402.3906	3
402.8166	1
403.1352	6
403.3375	4
403.4417	3
403.8738	0
404.2318	9
404.3773	5
404.4682	3
404.8963	1
405.1528	5
405.2964	4
405.5723	1
405.6831	1
405.8602	2
406.1855	2
406.2903	2
406.4807	1
406.9711	0
407.2650	2
407.7775	2
408.1496	2
408.2492	2
408.5813	1
408.9127	2
409.1586	2
409.4165	1
409.7613	1
409.8763	2
410.1790	8
410.3019	7
410.6267	2
410.8760	3
411.0718	5
411.3111	7
411.3940	2
411.5424	2
412.0209	3
412.2515	3
412.7382	2
413.0035	4
413.0851	2
413.2181	8
413.3592	3
413.4915	0
413.6259	1
413.7509	2
414.1440	4
414.2831	2
414.4489	3
414.7490	1
414.8085	1
415.0292	3
415.2906	4
416.2603	5
416.6569	2
416.8766	3
417.2145	3
417.4663	2
417.6687	1
418.1328	1
418.3860	1
418.9777	2
419.2215	3
419.2997	2
419.5228	2
419.7519	1
419.8514	2
420.3203	1
420.4727	2
420.6196	2
420.8561	1
421.1714	4
421.3084	2
421.4046	2
421.5549	1
422.1302	4
422.2698	2
422.3987	2
422.5718	2
422.8384	2
423.1418	3
423.3262	2
423.5500	1
423.6375	1
423.7993	1
423.8901	1
424.4889	1
424.5785	1
424.8745	1
425.1124	1
425.5582	1
425.8496	2
425.9666	2
426.1103	3
426.3375	2
426.5988	0
426.7526	0
427.0333	4
427.2158	7
427.3201	3
427.4965	4
427.6382	2
428.2071	42
428.3702	21
428.5320	3
428.7727	6
429.2454	12
429.6559	2
430.1747	4
430.3485	1
430.4950	2
430.6280	1
431.0693	3
431.2077	3
431.5314	2
431.6424	2
431.9573	2
432.1312	1
432.2763	1
432.4542	1
432.5532	1
433.1009	2
433.2935	1
434.1603	1
434.4834	0
434.7670	2
434.9663	5
435.1309	6
435.2566	3
435.3670	2
435.4780	1
435.7101	4
436.0700	4
436.2574	3
436.4393	3
436.6674	3
436.8380	3
436.9671	4
437.1745	4
437.3967	3
437.6482	4
437.8657	5
438.0824	7
438.3039	3
438.5662	5
438.6478	2
438.9027	3
439.0794	2
439.2587	5
439.4534	4
439.6140	2
439.7586	3
440.1949	1
440.3722	4
440.6841	3
440.9163	2
441.0100	1
441.2342	3
441.4182	3
442.0052	3
442.1009	2
442.2060	3
442.3586	3
442.5567	2
442.6959	1
443.2983	20
443.8640	1
444.0788	4
444.3004	7
444.4470	3
444.6599	1
445.1178	2
445.3501	2
445.4291	1
447.1478	2
447.2429	1
447.4344	2
448.0109	2
448.8647	1
449.2604	2
449.4908	3
449.6047	1
450.0875	4
450.3664	6
450.7288	1
450.9401	2
451.2102	4
451.4322	3
451.5458	2
451.6642	2
451.8735	2
452.0727	2
452.2927	2
452.4933	2
452.9180	1
453.2985	3
453.4135	2
453.5412	2
454.1378	3
454.3083	2
454.5939	3
455.2065	6
455.4767	2
455.6787	3
455.8513	3
456.0680	3
456.2867	5
456.7857	4
456.8988	2
457.3102	14
457.4567	13
457.5517	7
458.2862	278
458.7866	2
458.9505	4
459.1238	5
459.3232	5
459.4998	3
459.7862	3
459.9327	0
460.1582	2
460.3315	2
460.4425	2
460.8754	1
461.1966	2
461.4696	4
461.9534	3
462.1863	1
462.6032	2
463.1935	3
463.2684	1
463.4331	2
463.9571	0
464.2944	2
464.5294	1
464.8433	1
464.9805	2
465.2174	2
465.3459	3
465.8988	2
466.0461	1
466.1331	2
466.3312	2
466.5407	1
466.8527	2
467.2537	2
467.6112	2
467.6955	2
468.2458	4
468.4326	2
468.8765	2
469.2782	6
469.5540	3
469.8165	2
470.1794	8
470.4211	5
470.6200	2
471.2387	15
471.4517	5
472.5392	1
472.6805	1
473.3188	2
473.5505	2
473.8813	1
474.2430	2
474.7366	2
474.9764	2
475.1901	2
475.5230	0
475.7869	1
476.3717	2
476.8426	1
477.2705	2
477.3902	2
477.5473	1
477.8022	2
478.3238	3
478.4776	3
478.6495	2
478.8087	2
479.1592	4
479.3076	1
479.4040	1
479.5204	0
480.1110	1
480.3872	2
481.1371	2
481.3699	2
481.5358	1
481.8770	1
482.1004	1
482.2890	1
482.3894	2
482.6175	2
482.9206	2
483.2156	2
483.4203	2
483.5775	2
484.3390	22
484.6936	3
484.8555	3
485.1954	1
485.5480	1
485.6571	3
487.1038	3
487.4257	2
487.9658	0
488.1559	2
488.2255	1
488.4885	1
489.2621	1
489.4931	1
490.0359	1
490.2775	3
490.3592	2
490.4944	2
491.0205	2
491.1222	2
491.2729	3
491.4475	7
491.5861	2
492.2816	4
492.3653	3
492.7924	1
492.9370	2
493.1245	1
493.2751	8
493.4713	3
493.8997	2
494.1173	4
494.2425	6
494.4139	5
495.5052	1
496.5966	0
496.7600	1
496.9288	2
497.9533	2
498.0872	0
498.7536	2
498.9156	2
499.6584	2
499.9712	1
500.3516	1
501.1660	1
501.4788	2
501.8887	2
502.1285	2
502.4916	2
502.6497	2
503.1337	2
503.4665	1
503.5828	1
504.1763	3
504.3394	1
504.4483	2
505.1394	2
505.2664	3
505.5405	2
506.1942	1
506.3901	5
506.5378	2
506.8166	1
506.9549	2
507.1762	0
507.3788	0
507.8220	2
508.0646	3
508.3661	2
508.5119	2
509.0668	2
509.2627	2
509.4693	1
509.9206	2
510.2281	2
510.3251	1
510.9703	1
511.1448	2
511.4096	1
511.6115	1
511.8609	2
512.4246	2
513.3588	1
513.7413	2
513.9955	3
514.7538	2
514.9659	2
515.2635	2
515.4447	1
515.7009	1
515.8727	2
516.3630	1
516.6693	3
516.8586	2
516.9918	2
517.1897	6
517.4044	3
517.5897	2
517.9857	1
518.1509	4
518.3115	2
518.4499	2
518.6780	4
519.2499	5
519.5543	3
519.6948	1
519.8159	1
520.2808	11
520.5980	3
520.8983	2
521.2308	4
521.4583	3
521.6590	2
521.8437	2
522.0370	2
522.2418	2
522.3461	2
522.9711	1
523.1216	2
523.2554	2
523.4802	2
523.8870	2
524.0062	2
524.2297	3
524.4739	1
524.6505	5
525.0982	5
525.4589	3
525.6717	3
525.8309	3
526.2104	7
526.4152	6
526.5617	5
526.7424	3
526.9197	3
527.0315	3
527.3012	3
527.4110	3
527.6639	7
527.8902	4
528.0327	3
528.2757	4
528.3747	2
528.4604	2
528.6398	9
528.8285	2
529.0507	10
529.2870	7
529.4503	6
529.6517	6
529.8151	2
529.9717	9
530.2435	8
530.4597	7
530.7180	10
531.0359	10
531.2522	10
531.5186	9
531.7911	4
532.3500	48
532.6693	19
533.1406	23
533.4465	19
534.3021	46
535.3861	163
535.7838	14
535.9177	9
536.2397	14
536.5497	14
536.9548	11
537.1825	5
537.4946	7
537.9191	8
538.2840	8
538.5190	10
538.8987	10
539.0535	7
539.3635	10
539.8115	11
540.2214	12
540.5502	12
541.0491	10
541.2862	12
541.5112	10
541.7476	16
542.3149	14
542.7777	14
542.9324	18
543.2071	17
543.3946	20
543.6907	16
544.1776	31
550.3327	999
550.8977	767
551.7034	365
552.5968	182
553.4307	90
553.9008	65
554.2164	50
554.5180	30
554.9286	33
555.2449	21
