Mass spectrum: 5,6-Dihydroxylutein; FAB-EBEB; MS2; m/z: 602.43; [M]+*
Name: 5,6-Dihydroxylutein
Formula: C40H58O4
Exact mass: 602.43351
SMILES: C(O)(C2)C=C(C)C(C2(C)C)C=CC(C)=CC=CC(=CC=CC=C(C=CC=C(C)C=CC(C(C)(O)1)(C(C)(C)CC(O)C1)O)C)C
InChI: InChI=1S/C40H58O4/c1-29(17-13-19-31(3)21-22-36-33(5)25-34(41)26-37(36,6)7)15-11-12-16-30(2)18-14-20-32(4)23-24-40(44)38(8,9)27-35(42)28-39(40,10)43/h11-25,34-36,41-44H,26-28H2,1-10H3/b12-11+,17-13+,18-14+,22-21+,24-23+,29-15+,30-16+,31-19+,32-20+/t34-,35-,36-,39-,40+/m0/s1
Instrument: JMS-HX/HX 110A, JEOL
Instrument type: FAB-EBEB
Ms type: MS2
Ion mode: POSITIVE
Collision energy: 3 kV
Ionization: FAB
Base peak: 584.2432
Precursor m/z: 602.43
Precursor type: [M]+*
m/z	relative intensity
0.1166	1
0.6092	1
2.2697	0
2.7235	1
8.4058	1
11.9434	0
12.9446	0
13.9612	1
14.9618	6
15.4411	0
17.9242	1
18.9497	2
20.3725	0
21.9153	2
22.8955	1
25.9210	5
26.9366	25
27.0396	0
27.1565	0
27.9456	2
28.9367	14
29.9466	0
30.9381	1
35.7952	0
36.9168	2
37.9177	9
38.2831	0
38.9228	48
39.3822	0
39.5739	0
39.9327	7
40.2813	0
40.9366	96
41.8257	1
41.9234	5
42.6188	1
42.9194	333
43.9223	6
44.9311	6
45.1377	0
46.8937	2
48.8894	1
49.1104	0
49.2362	0
49.9057	20
50.9145	47
51.3782	1
51.9198	12
52.4989	0
52.9292	65
53.1743	0
53.9250	7
54.4641	1
54.9354	141
55.6964	1
55.9342	5
56.9394	51
57.9248	4
58.9454	25
59.9909	0
60.9099	7
61.8947	12
62.5586	1
62.7264	1
62.9140	33
63.4349	2
63.7003	1
63.9208	11
64.3269	1
64.5441	2
64.9144	69
65.5385	0
65.9274	12
66.9325	98
67.9335	7
68.9297	145
69.4373	2
69.8032	0
69.9407	15
70.9188	78
71.9539	2
72.9221	6
73.6236	2
73.8666	10
74.1578	1
74.3162	1
74.5474	0
74.8981	14
75.0233	1
75.1815	2
75.3998	1
75.4911	1
75.8953	9
76.0646	1
76.2588	1
76.5334	1
76.9023	228
77.1799	1
77.2977	0
77.5193	1
77.9036	47
78.0971	2
78.1992	3
78.2948	1
78.5195	2
78.6628	1
78.9192	216
79.1681	1
79.6945	0
79.9278	52
80.4961	1
80.6360	0
80.9329	275
81.1563	1
81.3307	2
81.5178	1
81.9018	34
82.4030	2
82.6718	1
82.9367	275
83.9274	6
84.9202	127
85.2824	0
85.8926	7
86.9015	108
87.7289	1
87.9082	7
88.3612	1
88.4724	0
88.6563	4
88.8905	30
89.1243	2
89.2644	2
89.5057	2
89.6019	1
89.9176	16
90.0292	4
90.1758	2
90.3403	2
90.5650	2
90.9097	511
91.3752	1
91.4897	1
91.9122	64
92.1266	1
92.2869	2
92.3634	1
92.4652	1
92.6219	1
92.9312	364
93.2185	1
93.6148	2
93.9223	30
94.1316	0
94.2579	2
94.4525	2
94.9262	252
95.3653	0
95.9235	23
96.9330	78
97.0924	4
97.2083	1
97.5093	1
97.9116	9
98.1238	1
98.9141	22
99.5924	1
99.8729	2
100.4484	1
100.6228	2
100.8952	14
101.1407	1
101.2820	1
101.6258	1
101.9088	33
102.1894	4
102.6138	2
102.9156	92
103.3028	3
103.4592	4
103.5633	1
103.9175	61
104.1297	3
104.2630	0
104.3976	2
104.9314	604
105.1149	4
105.2579	2
105.6975	2
105.9377	77
106.4425	0
106.5396	1
106.9414	322
107.1637	2
107.3461	1
107.4675	2
107.5387	1
107.9279	34
108.4024	2
108.5924	1
108.9451	193
109.2224	0
109.4788	1
109.7328	0
109.9346	20
110.0684	3
110.3985	1
110.9265	53
111.9551	5
112.1814	2
112.2952	4
112.8972	44
113.1417	1
113.2576	2
113.5017	3
113.5837	2
113.7337	4
113.8696	7
113.9798	4
114.2492	3
114.5354	4
114.8871	257
115.1460	3
115.2860	2
115.4229	2
115.4936	1
115.8871	110
116.2274	3
116.4694	4
116.9066	297
117.2049	3
117.3132	3
117.4480	2
117.5808	1
117.9084	68
118.1098	1
118.2634	1
118.4273	1
118.5804	1
118.9189	562
119.2931	2
119.5142	0
119.6539	2
119.9205	70
120.1444	1
120.3529	3
120.4313	2
120.5355	3
120.9197	291
121.3112	1
121.6258	1
121.9132	40
122.5106	2
122.9075	331
123.2696	0
123.8967	14
124.0959	1
124.1896	0
124.9101	143
125.3071	1
125.8746	20
126.0919	1
126.2355	1
126.4438	2
126.8730	108
127.2024	2
127.4169	5
127.8728	294
128.2498	5
128.4960	2
128.8785	363
129.1681	3
129.4179	1
129.6107	2
129.8894	157
130.1558	3
130.2733	1
130.3770	0
130.5694	7
130.8938	382
131.1651	3
131.2946	2
131.4668	1
131.6199	1
131.9027	115
132.0928	1
132.2724	2
132.3987	1
132.9069	328
133.2685	3
133.4385	2
133.9005	41
134.1155	0
134.2936	1
134.4097	3
134.5449	3
134.8973	147
135.2004	1
135.4857	2
135.8894	25
136.1875	2
136.3640	1
136.4559	1
136.8845	64
137.2381	3
137.4428	2
137.9049	51
138.1390	3
138.2497	1
138.4999	2
138.8835	67
139.2320	3
139.4552	1
139.8512	14
139.9861	7
140.3856	3
140.8665	219
141.1772	2
141.4515	5
141.8730	223
142.1374	2
142.4126	5
142.8839	417
143.1552	3
143.3013	3
143.5135	1
143.8938	178
144.1468	2
144.2296	1
144.4653	4
144.9009	532
145.2591	1
145.4797	2
145.5506	1
145.9090	85
146.1418	5
146.2468	2
146.5292	2
146.9074	181
147.1331	3
147.3521	1
147.6409	1
147.9082	25
148.5264	1
148.9107	60
149.2100	1
149.3892	1
149.4905	1
149.8846	18
150.0895	1
150.3064	2
150.5698	5
150.9032	48
151.1331	3
151.3631	1
151.5554	2
151.8736	77
152.0997	6
152.2498	2
152.3925	2
152.8826	144
153.1817	2
153.3831	2
153.5677	3
153.8872	68
154.1684	2
154.3133	6
154.4057	2
154.5474	2
154.8961	243
155.1593	3
155.6163	6
155.9087	151
156.2397	3
156.4200	2
156.9174	385
157.2784	3
157.4502	2
157.5665	2
157.9217	97
158.3642	2
158.9309	288
159.4870	5
159.7166	5
159.9342	44
160.4684	1
160.9343	113
161.3705	2
161.6861	2
161.9353	8
162.3046	2
162.5260	0
162.9371	36
163.1477	4
163.3203	1
163.4563	2
163.8336	9
164.0451	3
164.3090	3
164.5709	4
164.9051	216
165.2318	3
165.3924	5
165.9216	71
166.2104	1
166.5484	1
166.9301	154
167.1973	2
167.6215	2
167.9298	68
168.2334	3
168.4006	2
168.5856	2
168.9453	229
169.2192	1
169.3981	1
169.9501	99
170.1858	1
170.3020	1
170.5751	3
170.9580	196
171.4398	4
171.6689	3
171.9512	44
172.3072	1
172.5623	1
172.9581	133
173.4570	3
173.9363	17
174.1679	2
174.2874	2
174.4869	3
174.9720	65
175.2311	2
175.3391	0
175.5531	3
175.9107	17
176.1959	3
176.6858	2
176.9445	21
177.2614	4
177.6749	5
177.9194	82
178.2255	2
178.4256	5
178.9196	158
179.2103	0
179.9233	79
180.2615	4
180.3404	2
180.4714	6
180.5729	4
180.9332	229
181.3457	3
181.9397	90
182.1560	4
182.2233	2
182.4699	1
182.9406	205
183.2182	3
183.3289	1
183.4898	2
183.6506	3
183.9332	54
184.1402	2
184.2702	2
184.3996	1
184.5461	2
184.9451	143
185.2087	1
185.2947	1
185.4407	2
185.9467	22
186.2751	1
186.5761	2
186.9543	47
187.1549	1
187.2741	0
187.3857	1
187.5842	2
187.7007	1
187.9565	8
188.1282	1
188.4660	3
188.6130	1
188.9199	41
189.3015	3
189.4160	2
189.5202	2
189.8929	22
190.2671	1
190.5363	3
190.9183	84
191.2201	1
191.3521	2
191.9035	57
192.2318	2
192.3666	3
192.9218	119
193.1653	3
193.3679	2
193.9110	64
194.1913	1
194.3677	1
194.5802	1
194.9187	178
195.1874	3
195.3487	2
195.9229	44
196.1772	6
196.3497	3
196.5541	2
196.9333	175
197.3644	3
197.6203	2
197.9428	40
198.3027	1
198.4325	1
198.5900	1
198.9431	67
199.3491	1
199.4755	2
199.9087	19
200.1975	1
200.6642	3
200.9525	30
201.2443	2
201.3409	2
201.8830	38
202.1895	1
202.3835	2
202.6206	4
202.9099	39
203.2500	1
203.5080	0
203.9053	13
204.0424	2
204.2017	0
204.6576	1
204.9089	48
205.2870	1
205.4165	2
205.6575	3
205.9110	49
206.2057	5
206.9108	93
207.2593	2
207.4001	4
207.5033	3
207.9390	54
208.2856	4
208.4830	2
208.9398	147
209.2636	3
209.3661	1
209.5490	2
209.6474	1
209.9377	28
210.1813	2
210.3719	0
210.5499	3
210.9486	75
211.3879	2
211.5975	3
211.9391	32
212.1844	2
212.4136	1
212.6100	2
212.9587	55
213.1692	2
213.5418	2
213.6607	2
213.9292	11
214.1327	1
214.3468	2
214.5272	1
214.9204	39
215.2262	0
215.6104	2
215.9114	21
216.4813	0
216.9337	44
217.9102	23
218.3628	1
218.6158	1
218.9285	53
219.4073	1
219.7348	5
219.9416	21
220.5063	3
220.6360	2
220.9525	108
221.2163	2
221.4998	3
221.9722	31
222.2642	2
222.5471	3
222.9621	82
223.5844	1
223.6547	1
223.7783	1
223.9708	15
224.1858	3
224.9652	73
225.4326	2
225.9607	11
226.4023	2
226.6168	2
226.9664	17
227.3569	1
227.4997	1
227.9431	24
228.2316	1
228.5751	2
228.9448	25
229.2644	1
229.4461	2
229.9328	9
230.3427	2
230.4632	3
230.6661	1
230.9501	30
231.3179	1
231.5287	0
231.9727	19
232.3401	1
232.4670	6
232.9956	71
233.2383	1
233.3692	2
233.9877	19
234.1939	2
234.5071	2
234.9977	55
235.4497	1
235.9744	15
236.6175	3
236.9796	32
237.3375	0
237.5538	3
238.0289	10
238.4250	2
238.6407	2
238.9658	21
239.1639	2
239.2478	1
239.4093	3
239.7147	3
239.8917	7
240.0046	9
240.1231	3
240.4814	5
240.9725	18
241.2647	3
241.4616	2
241.9839	11
242.3312	2
242.9596	17
243.1905	1
243.4320	1
243.9364	15
244.6782	2
244.9637	32
245.1566	3
245.2626	1
245.5298	2
245.7390	4
245.9843	24
246.4587	2
246.9812	51
247.3334	1
247.7783	2
247.9990	12
248.1313	2
248.7561	4
249.0151	33
249.2698	2
249.3795	2
249.4992	2
249.6407	0
249.9833	14
250.3770	2
250.5915	4
250.9980	30
251.2133	1
251.5426	1
251.9074	8
252.0845	3
252.6279	1
252.9957	23
253.9220	8
254.0354	4
254.3169	1
254.5672	2
254.9472	9
255.2117	1
255.4032	1
255.6571	1
255.9061	6
256.0075	4
256.1402	2
256.3849	1
256.6198	1
256.7489	1
256.9738	16
257.2967	2
257.6835	5
257.9759	5
258.2265	0
258.3727	1
258.5105	2
258.7121	3
258.9684	16
259.3348	2
259.9900	14
260.1966	2
260.9820	21
261.3200	1
262.0268	7
262.4495	2
262.6548	2
263.0293	20
263.2930	3
263.9753	11
264.1374	3
264.2355	1
264.4026	1
264.9913	16
265.1065	5
265.2202	3
265.8639	5
266.0182	9
266.1790	0
266.5226	2
266.7729	3
267.0205	10
267.2909	2
267.5535	2
267.9897	6
268.1264	2
268.5741	2
268.7599	1
269.0112	10
270.0208	10
270.5877	1
270.9930	11
271.3150	1
271.8544	2
272.0125	8
272.4037	2
273.0102	17
273.4750	1
274.0289	8
274.3091	0
274.9994	17
275.2925	1
275.4394	3
275.6783	0
276.0222	7
276.2212	1
276.3603	2
277.0253	17
277.4463	1
277.6297	2
278.0587	7
278.2475	2
279.0535	16
279.3592	1
279.5175	2
279.6793	0
280.0371	5
280.6945	2
281.0082	12
281.5944	2
281.9917	8
282.6593	1
283.0025	8
284.0000	7
284.3033	1
284.6324	2
284.7523	2
285.0307	13
285.4405	1
285.7032	2
286.0123	15
286.5914	1
287.0171	15
287.6571	2
287.9999	5
288.3571	1
288.6687	1
289.0059	18
289.1510	1
289.3246	2
289.7920	2
290.0343	6
290.3831	1
290.5576	1
290.8792	3
291.0601	13
291.3332	1
291.4283	1
291.7865	2
291.9717	3
292.1040	2
292.3958	3
292.6490	0
293.0402	14
293.3449	2
293.5009	0
293.9709	5
294.1641	1
294.7100	0
295.0036	5
295.2001	1
295.6410	1
295.9876	4
296.1913	1
297.0354	11
297.2806	1
297.6817	1
298.0134	5
298.1550	1
298.2744	1
298.7693	2
299.0296	25
299.4222	1
300.0323	5
301.0182	6
301.1964	2
301.3452	2
301.7774	1
301.9227	2
302.1102	5
302.7300	0
302.9949	9
303.1330	2
303.8790	3
304.0179	2
304.7003	2
305.0569	9
305.8283	1
305.9615	2
306.1743	3
306.4307	1
306.8269	1
307.0562	7
307.2847	1
307.8580	1
308.0988	3
308.7122	1
308.9868	4
309.9997	6
310.0965	2
310.4492	1
310.6084	1
311.0229	14
311.1190	7
311.4474	1
312.0154	9
312.1223	2
312.7162	1
312.8497	2
313.0735	8
313.4939	1
313.8125	2
314.0127	2
314.7539	2
315.0152	10
315.2226	1
315.4279	1
315.8384	0
316.0631	6
316.2943	2
316.4551	1
317.0072	8
317.1522	4
317.3059	2
317.4732	0
318.0477	4
318.8672	2
319.0719	4
319.7622	1
320.0366	6
320.1487	2
320.2981	2
321.0619	8
322.0213	2
323.0549	4
323.5999	2
324.0104	3
324.4864	1
324.9668	7
325.1422	4
325.3465	1
325.7370	1
325.9931	6
326.9944	4
327.9491	1
328.0772	2
328.1693	1
328.8335	2
329.0322	5
329.1847	0
329.6569	0
330.0182	2
330.7798	2
331.0757	5
332.0478	3
332.2357	3
333.0344	3
333.1835	2
333.8865	3
334.1012	6
334.8475	3
334.9419	4
335.0817	2
335.2142	1
336.0501	1
336.2036	2
336.4666	2
337.0749	6
337.2328	2
338.0062	2
338.1511	1
339.0017	5
339.6838	1
339.9861	1
340.9447	3
341.1549	2
341.3716	2
341.8855	1
342.0396	2
342.2743	2
342.6155	2
342.7127	1
342.9446	2
343.0720	1
343.8497	2
343.9735	1
344.1075	5
344.1882	1
344.6973	1
345.0575	6
345.2599	2
345.9182	3
346.1055	4
346.7215	1
346.9413	4
347.1596	1
347.2821	1
347.9688	3
348.1878	2
348.3226	1
348.7810	1
349.1053	4
349.5111	1
350.1022	5
350.3754	2
350.7056	1
351.0711	21
351.9659	2
352.2089	2
352.3596	1
353.0037	6
353.1284	2
353.3094	3
353.5294	1
353.8728	2
354.2053	0
355.0638	4
356.0869	2
356.8958	3
357.0387	3
357.1664	3
357.3079	2
357.9307	3
358.7781	1
359.0055	4
359.1268	2
359.7809	2
359.9953	4
360.1801	3
361.1123	5
361.3759	1
361.7319	1
361.9811	2
362.1516	7
362.8269	0
363.1230	4
363.6959	0
364.0701	6
364.3692	2
365.1141	5
365.7717	1
366.1330	2
366.5236	1
366.8280	1
367.0106	5
367.1029	2
367.6548	1
368.0726	2
368.2242	2
368.6614	1
368.8779	1
369.0771	3
369.1839	2
369.4741	2
370.1207	3
370.7624	2
370.9696	2
371.1161	4
371.6381	1
371.8446	1
372.0684	3
372.2308	1
372.9521	4
373.0294	2
373.3652	1
373.7949	1
373.9999	1
374.1350	1
375.0717	4
375.2848	2
375.7045	1
376.0512	2
376.1256	1
376.9312	2
377.0952	2
377.3921	1
378.1804	1
378.8575	2
379.0259	2
379.1856	2
379.6706	0
379.8860	2
380.0233	0
380.5524	3
381.0568	2
381.2281	2
381.6732	1
381.9528	1
382.0952	2
382.2404	1
383.0744	6
383.2290	1
384.2120	2
384.9797	2
385.0910	2
385.2081	0
385.3744	0
385.6730	0
385.9123	3
386.0453	1
386.4538	1
386.9658	3
387.1827	1
387.4235	0
388.0157	2
388.1705	1
388.6052	2
389.0536	3
389.1425	2
389.2568	0
389.9440	1
390.1205	2
390.9011	1
391.1731	2
391.8944	0
392.1440	2
392.3582	0
393.0609	2
393.1665	3
393.2512	2
393.8924	3
394.9730	1
395.1235	1
395.2675	1
395.4239	2
396.0537	2
396.4395	1
396.7993	1
397.0955	4
397.2439	2
397.7102	1
398.1671	6
398.5813	0
399.0896	3
399.1975	3
399.5422	0
400.1122	2
400.9350	2
401.1118	3
401.2690	2
401.7159	0
401.8818	2
402.1933	3
402.6019	1
402.9649	1
403.1308	7
403.2300	3
403.9894	1
404.3865	1
404.7104	2
404.8300	1
405.0249	2
405.1945	1
405.9859	2
406.2773	0
406.9398	3
407.1761	2
407.8589	0
409.1501	3
409.5945	1
410.0985	3
410.2921	2
410.4429	2
411.0528	1
411.2508	1
411.6424	2
412.2008	5
412.3350	3
412.9893	3
413.1212	3
413.2540	3
413.3918	1
414.2972	0
414.8359	2
415.1466	5
415.6304	2
416.1410	10
416.5893	2
417.0804	6
417.4845	1
417.8590	2
417.9713	3
418.5306	1
418.9855	1
419.9455	2
420.0875	1
420.1998	2
420.5165	1
420.9179	2
421.1614	3
422.2440	2
422.6050	1
422.8507	2
423.0971	1
424.2612	4
424.8078	2
424.9912	3
425.6683	1
426.8769	2
427.0676	1
427.2329	2
427.3489	1
428.1691	5
428.3127	2
429.0763	3
429.1902	1
429.3592	0
429.6572	1
430.1004	7
430.2513	7
430.6966	3
430.9955	3
431.1396	3
431.4139	1
432.1480	1
432.2718	2
432.4709	2
432.9104	1
433.1240	4
433.4817	2
435.1023	2
435.9061	2
436.1285	5
436.6137	1
437.1229	3
437.4214	2
438.2087	3
438.5282	1
440.1126	3
440.3786	2
441.0140	3
441.2031	8
441.8669	1
442.0618	2
442.3133	0
442.9923	8
443.1670	9
443.2547	3
443.5200	3
443.7055	1
444.1208	4
444.2150	2
444.8420	1
444.9805	1
445.1399	6
445.4386	2
446.0410	4
446.2012	3
446.3194	2
447.0458	3
447.1792	3
447.3938	1
447.9405	2
448.1537	4
449.0883	11
449.2805	4
449.6053	2
449.9201	2
450.1492	6
450.4596	1
450.9441	2
451.0862	3
451.5838	1
451.9624	0
452.4731	2
453.2267	1
453.8419	2
454.0610	1
454.7248	1
455.0897	1
456.0388	2
456.1490	1
456.3290	2
456.5060	2
456.9588	2
457.2099	0
457.5147	2
457.7324	2
458.1098	5
458.3318	2
458.7107	0
459.1026	6
459.2397	4
459.5649	1
460.0432	2
460.1695	1
460.4025	1
460.9810	3
461.1458	2
461.2751	2
461.5487	3
461.7832	2
461.9944	5
462.2434	3
462.4191	2
462.6914	2
462.9738	2
463.1531	6
463.6490	1
463.7804	2
464.1515	20
464.9248	3
465.1826	2
465.9705	2
466.1622	2
467.0486	2
467.2733	1
468.0905	3
468.4523	2
468.5857	2
468.9556	2
469.2340	2
469.8163	1
470.1354	1
471.6722	0
472.0015	2
472.3381	2
472.7682	2
472.9532	1
473.0845	2
473.7069	2
473.8237	2
474.2662	3
474.6819	2
474.8459	2
475.0424	2
475.3073	3
475.4930	1
475.6214	2
476.0807	3
476.1707	2
476.7700	2
477.1422	2
477.9890	1
478.1719	2
478.8308	0
479.7787	1
479.9449	1
480.2279	2
480.3375	2
480.5095	2
480.9436	2
481.0742	2
481.2194	1
481.4117	2
482.0157	2
482.1122	2
482.6196	1
483.1590	5
483.3332	4
483.4915	2
483.6069	1
483.9082	0
484.5195	2
485.1279	1
485.6202	1
486.1982	2
486.4770	2
486.9505	2
487.0136	1
487.2322	2
487.3208	1
487.6919	2
488.1008	1
488.2300	2
488.5837	2
488.9352	4
489.0964	2
489.4153	1
489.7414	2
490.0675	5
490.2426	5
490.3675	3
491.0263	2
491.1476	3
491.2449	1
491.9634	1
492.1159	4
492.2714	6
492.4406	1
493.1301	2
493.2543	2
494.8503	1
495.1276	5
496.0241	1
496.1403	2
496.8097	0
497.0827	2
497.2061	3
497.3135	1
497.7085	1
498.0374	1
498.1420	2
498.2523	1
498.3794	2
498.6924	1
499.1215	2
499.3481	1
499.5601	2
500.1018	13
500.3051	3
500.6334	1
500.9943	2
501.1294	2
501.3029	2
501.7982	1
502.0648	2
503.2625	1
503.4949	2
503.8334	4
504.1218	3
504.2787	2
505.3298	1
505.9320	2
506.1274	1
507.1322	1
507.8987	2
508.2867	2
508.3928	2
508.6166	2
508.8542	1
509.0358	1
509.2589	1
509.4791	2
510.1432	6
510.4106	1
510.6010	1
511.2892	3
511.4905	1
512.1243	2
512.4673	2
512.6461	2
512.9478	2
513.2057	1
513.3257	2
513.4703	2
513.6876	2
513.9006	2
514.2248	2
514.4472	2
514.7932	1
514.9684	2
515.4831	1
515.6953	2
516.1373	1
516.3634	1
516.6229	2
516.9457	1
517.1384	2
517.2263	2
518.0392	5
518.1846	14
518.2922	6
518.3845	3
518.5299	1
519.2221	1
519.5391	1
521.2116	2
521.6501	1
521.9922	1
522.2025	3
522.3902	2
523.0543	2
523.1485	1
523.3312	2
523.7133	1
524.0656	2
524.4897	0
524.7551	2
525.1075	1
525.8978	2
526.0790	5
526.2734	3
527.2363	2
527.4307	2
527.6881	1
527.8113	2
528.1160	4
528.3538	4
528.6185	2
528.8477	1
528.9876	1
529.1617	3
529.4017	2
529.5156	2
529.6063	1
529.8064	1
530.0392	4
530.1422	2
530.2459	2
530.5926	0
531.1823	1
532.0534	2
533.1176	1
533.3511	1
533.4389	1
533.5557	1
533.7436	0
533.9808	1
534.2376	1
534.4327	1
534.8295	1
535.1451	1
535.4332	1
535.7553	2
536.2559	3
537.0815	2
537.7854	1
537.9276	0
538.5262	1
538.9522	1
539.2512	1
539.5755	0
539.9667	2
540.2090	2
540.3651	2
540.5276	1
540.7678	2
540.9377	2
541.2164	3
541.3651	1
541.7948	0
542.0582	2
542.2651	2
542.4545	1
542.6998	2
543.0243	2
543.2849	2
543.5628	1
543.8031	2
544.1733	10
544.4818	1
544.8701	2
545.1619	4
545.3260	2
545.4530	1
545.7441	2
546.0047	6
546.2820	10
546.6109	2
547.4146	1
547.9670	0
548.0905	0
548.3518	1
548.4651	2
548.9000	2
549.0198	0
549.3654	1
549.8504	1
550.3253	2
550.4749	1
550.6129	2
550.7269	2
550.8575	4
551.1212	6
551.4588	5
551.7239	7
551.8568	3
551.9570	1
552.0949	4
552.2256	3
552.4188	2
552.5118	2
552.7136	4
552.9809	4
553.2009	2
553.4529	5
553.8495	4
554.1887	7
554.4399	5
554.6592	7
554.8438	8
554.9963	7
555.1081	2
555.2744	3
555.4211	6
555.6165	5
555.8519	7
556.0385	9
556.3370	4
556.7155	10
557.0518	7
557.3242	6
557.5385	4
557.6983	6
557.8915	7
558.1806	5
558.3848	6
558.4807	5
558.6078	8
558.8839	7
559.1061	6
559.3683	9
559.5878	7
559.8646	5
560.0309	12
560.1631	8
560.4770	3
560.9420	5
561.1774	6
561.5079	5
561.7615	9
561.9504	9
562.2759	7
562.5244	1
562.7286	6
562.9734	5
563.0948	4
563.2568	2
563.3499	1
563.6208	6
563.7611	5
564.0242	5
564.3940	5
564.5190	3
564.7566	3
565.1519	15
565.3990	8
565.6265	5
565.9164	9
566.2238	27
566.4924	11
566.7805	5
566.9110	2
567.2469	7
567.5617	4
567.7133	4
567.9861	3
568.1703	9
568.2958	6
568.4373	4
568.5469	3
568.6382	2
568.7827	3
568.9713	3
569.2354	15
569.4479	4
569.7142	3
569.8810	3
570.1219	3
570.4012	7
570.6254	3
570.8228	1
571.4736	13
571.8226	15
572.1970	17
572.5845	17
573.0525	22
573.7005	16
574.2070	21
574.4965	14
574.8870	23
575.1620	18
575.5401	22
576.2658	23
576.8109	24
577.7689	29
578.9447	25
579.9514	34
583.2312	74
584.2432	999
585.0912	43
585.9713	23
586.5325	12
586.8535	17
587.1773	23
587.4939	22
588.1801	12
588.4756	16
588.6521	14
588.9607	13
589.4291	19
589.7559	18
589.9302	12
590.5859	18
590.8829	8
591.0906	9
591.5160	17
591.8601	15
592.0446	16
592.4344	15
592.7220	12
593.3123	23
593.8931	13
594.1443	17
594.5459	19
595.1638	21
596.0047	28
596.3998	21
598.3307	30
602.2354	999
602.8899	258
603.5509	107
604.2141	60
605.1636	33
606.0877	24
606.3805	14
606.6355	12
606.8985	11
607.5458	12
607.6505	4
607.7783	7
608.1111	10
608.2411	5
608.3625	2
608.5587	3
608.8558	5
609.0585	1
609.3325	5
609.5126	7
609.7219	5
609.9312	2
610.2182	3
610.4478	4
610.6629	2
610.9361	3
611.1955	1
611.5428	3
611.9287	3
612.2281	3
612.5355	0
