Mass spectrum: Hydratoperidinin; FAB-EBEB; MS2; m/z: 648.37; [M]*+
Name: Hydratoperidinin
Class: Natural Product; Carotenoid
Formula: C39H52O8
Exact mass: 648.36622
SMILES: C/C(=C\C=C\C=C\C=C(/C)\C=C/1\C=C(C(=O)O1)/C=C/[C@]2([C@](C[C@H](CC2(C)C)O)(C)O)O)/C=C=C3[C@](C[C@H](CC3(C)C)OC(=O)C)(C)O
InChI: InChI=1S/C39H52O8/c1-26(16-17-33-35(4,5)24-32(46-28(3)40)25-37(33,8)43)14-12-10-11-13-15-27(2)20-31-21-29(34(42)47-31)18-19-39(45)36(6,7)22-30(41)23-38(39,9)44/h10-16,18-21,30,32,41,43-45H,22-25H2,1-9H3/b12-10+,13-11+,19-18+,26-14+,27-15+,31-20-/t17?,30-,32-,37+,38+,39-/m0/s1
Instrument: JMS-HX/HX 110A, JEOL
Instrument type: FAB-EBEB
Ms type: MS2
Ion mode: POSITIVE
Collision energy: 3 kV
Ionization: FAB
Base peak: 648.4160
Precursor m/z: 648.37
Precursor type: [M]+*
m/z	relative intensity
1.0957	0
1.6073	0
2.1967	2
4.6801	0
9.3480	1
9.6984	0
10.4873	0
10.5572	1
12.9382	0
13.9802	1
14.9457	0
15.2393	0
16.8599	0
17.1570	1
18.0805	0
21.7774	0
22.8802	0
22.9488	2
24.7278	0
25.9496	0
26.9750	2
27.9725	0
28.9737	1
29.9943	1
30.2269	0
30.9726	1
36.9506	1
37.3025	0
37.9576	1
38.9572	8
39.8846	0
39.9782	1
40.5484	0
40.9806	11
41.6979	1
41.9559	1
42.1094	0
42.9582	99
43.9688	0
44.9663	2
46.9812	1
47.8003	0
47.9560	1
48.9680	0
49.4426	1
49.9476	3
50.2839	1
50.9468	6
51.3377	0
51.9522	2
52.9745	7
53.9547	1
54.9817	14
55.9776	2
56.9900	8
58.0005	1
58.9990	4
60.8378	0
60.9938	0
61.9718	1
62.9583	4
63.9718	1
64.9838	5
65.9873	2
66.9531	6
67.9869	2
68.9643	16
69.6020	1
69.8781	0
70.9669	4
71.8977	1
72.8487	1
72.9682	1
73.8451	1
73.9538	0
74.9421	0
75.8447	1
75.9782	2
76.9656	13
77.2951	1
77.8718	1
78.0043	1
78.2419	1
78.9706	10
79.8826	1
79.9959	1
80.9625	8
81.9027	1
82.9891	22
83.6443	1
83.9199	1
84.9683	10
85.8263	1
86.0059	1
86.9585	8
87.9444	1
88.2233	0
88.9303	3
89.9730	2
90.3270	1
90.5604	0
90.9727	30
91.3927	0
91.7373	0
91.9656	4
92.9575	10
93.8856	1
94.0007	1
94.6456	0
94.9740	9
95.8911	1
95.9960	1
96.8469	3
96.9735	2
98.0354	2
98.9177	1
99.0266	3
100.8906	1
101.0135	1
101.3343	0
101.9669	4
102.9692	5
103.8492	0
104.0262	2
104.3927	0
104.6444	1
104.9648	15
105.4506	0
106.0013	4
106.1599	0
106.9725	13
107.9386	2
108.1094	1
109.0031	16
109.2695	0
109.9153	1
110.0098	0
110.0947	0
110.8715	2
111.0207	2
111.8937	1
112.8907	1
113.0280	3
113.3201	0
113.5950	1
113.9915	0
114.3098	0
114.5907	1
114.9789	17
115.8711	2
116.0217	4
116.9977	11
117.4092	1
117.9537	2
118.4071	0
118.9707	12
119.6155	1
119.7845	1
119.9774	3
120.9723	18
121.8097	2
121.9983	4
122.9597	9
123.9492	1
124.1808	0
124.9720	14
125.3475	1
125.8385	2
126.0346	2
126.3228	0
126.5098	1
126.6437	1
126.9676	5
127.6102	1
127.9587	18
128.5574	2
128.9447	14
129.9584	6
130.1777	1
130.9813	21
131.9564	3
132.8963	6
133.0256	7
133.9611	2
134.2059	0
134.7831	1
134.9693	7
135.8024	3
135.9717	4
136.5064	0
136.9645	5
137.9794	2
138.1111	1
138.9582	5
139.5560	1
139.8040	2
139.9194	1
140.2916	2
140.9738	14
141.9449	7
142.9445	12
143.3036	1
143.7498	0
143.9671	5
144.9734	12
145.3769	0
145.7776	1
145.9823	4
146.9865	5
147.9882	1
148.9610	16
149.6935	1
149.9342	4
150.4127	1
150.5244	0
150.9463	4
151.1573	1
151.4289	1
151.9360	8
152.3293	1
152.7139	0
152.9823	10
153.2831	1
153.5941	1
153.9961	4
154.5682	1
154.9793	19
155.4823	1
155.7618	0
155.9951	4
156.1573	0
156.4141	0
156.9825	17
157.4181	1
157.9119	4
158.0553	3
158.9806	12
159.3795	1
159.6975	1
159.7866	1
160.0105	5
160.9677	8
162.0224	1
162.4859	1
162.9998	3
163.4009	0
163.8132	0
164.0150	5
164.6243	0
164.9808	10
165.2745	1
165.4107	0
165.5306	1
165.9985	6
166.4429	1
166.6273	0
166.9882	12
167.9602	5
168.5930	1
169.0042	14
169.8159	1
170.0730	5
170.4869	1
171.0162	12
171.7191	0
172.0323	3
172.7887	0
173.0486	8
173.5604	1
173.8473	1
174.0314	3
174.1696	1
174.3271	1
175.0371	12
175.2387	0
175.7802	1
176.0161	3
176.2416	1
176.9914	6
178.0322	10
178.5518	2
178.6443	1
178.9903	10
180.0357	7
180.6644	1
181.0027	11
181.7028	1
181.9980	5
182.3554	1
182.5363	1
183.0375	10
183.7655	1
184.0298	4
184.3607	1
184.9875	7
186.0029	2
186.5645	1
187.0355	8
187.2861	1
187.4707	0
187.8451	1
188.0020	1
188.1161	2
188.6777	1
188.9910	4
190.0895	2
190.9565	6
191.0760	7
192.0083	5
192.9915	6
193.9588	4
194.9983	9
196.0099	4
196.4310	1
197.0552	12
197.2357	1
197.4132	1
197.5499	1
198.0386	3
199.0263	8
199.6516	1
199.7900	0
200.0630	5
200.4080	1
200.6993	2
201.0133	5
201.9998	6
202.9837	5
203.6893	2
204.0266	3
204.6788	0
205.0155	5
205.2469	1
205.4662	1
206.0134	3
206.6366	1
207.0345	8
207.5442	1
207.6513	1
207.7926	1
208.0373	6
208.8117	1
209.0284	9
209.2193	1
209.4976	1
209.8626	1
210.0216	2
210.3016	1
210.7589	1
210.9111	5
211.0861	6
211.2460	2
211.3137	1
211.8520	1
212.0362	4
212.2990	1
212.6006	1
212.8291	1
213.0455	4
213.2436	0
213.6307	1
214.0324	5
214.5120	0
214.7316	1
215.0328	7
215.5721	1
215.8125	0
216.0322	4
216.5466	1
216.8061	0
217.0367	5
217.3902	1
217.6537	1
217.8988	1
218.0646	4
218.1823	1
219.0105	3
219.1725	2
220.0838	1
221.0321	8
221.2464	1
221.3856	1
221.9687	4
222.1386	1
222.8567	1
223.0879	6
223.5260	1
223.7757	0
224.0699	2
224.8223	1
225.0683	4
225.4600	1
225.9346	2
226.1470	2
226.8227	1
227.0897	5
227.5285	1
228.0635	3
228.2807	1
228.5586	1
229.0722	3
229.1682	2
229.3133	2
229.7565	1
229.8556	1
230.1037	5
231.0650	6
231.8660	1
232.1489	3
232.5627	1
233.0857	8
233.7804	1
234.0190	1
234.2067	0
234.8964	1
235.1382	4
235.3776	0
235.8250	1
236.1123	3
236.7286	1
236.8195	1
237.1170	6
237.6456	1
237.8884	3
238.0588	2
238.2076	1
238.6087	0
238.7771	2
239.1008	7
240.0906	3
240.2576	1
240.6407	0
241.0939	4
241.2702	2
241.7528	0
241.9306	1
242.0784	4
242.1870	1
243.0479	5
243.4576	1
243.8544	1
244.1757	2
244.3814	0
244.8029	3
245.0851	7
245.7796	2
246.0302	3
246.6657	1
247.0683	3
247.2889	0
248.1647	2
249.0446	4
250.0916	2
250.3828	2
250.5241	0
250.7844	1
250.9621	1
251.0950	3
251.2217	1
251.7703	1
252.0083	2
252.1745	1
252.7967	1
253.0580	3
253.3495	1
254.0957	2
254.6341	1
254.8097	1
254.9049	1
255.1068	3
255.9657	1
256.1863	1
256.4882	0
257.0998	2
257.6922	1
258.0895	1
258.2475	1
258.8835	2
259.0276	5
259.1299	3
260.1450	2
260.7621	0
261.1078	4
261.3482	0
261.8228	1
262.0260	1
262.1881	1
263.0096	4
263.1477	2
263.2711	1
263.9865	1
264.1573	1
264.8784	1
265.0406	3
265.2324	2
265.8450	0
266.0081	2
267.0371	4
267.2065	2
268.0152	1
268.5125	1
268.8972	1
269.1086	2
269.6497	1
269.9754	3
270.1931	1
271.0423	4
271.1823	3
272.0209	2
272.3243	0
273.0293	3
273.1554	2
274.0474	2
274.1424	1
274.6827	1
275.0806	5
276.1905	0
276.4366	1
277.0997	3
277.7293	0
278.0918	2
278.2500	1
278.5057	2
279.0327	1
279.2221	1
280.1259	2
281.0932	4
282.2433	1
282.8200	1
283.1042	5
283.2650	1
283.5772	1
284.1082	2
284.4697	1
285.0148	3
285.1800	3
285.6125	1
285.9952	1
286.2773	2
287.0515	2
287.1614	1
288.0153	1
288.5793	1
289.0527	3
289.3765	1
290.0428	1
290.2200	1
290.8209	1
291.3463	1
291.5960	1
291.8849	1
292.0013	0
292.1980	3
292.8578	1
293.0921	3
294.1223	1
294.4567	1
295.0552	1
295.2279	3
296.0829	1
296.8802	1
297.1733	2
297.4282	1
298.0788	1
298.2657	0
298.3736	0
298.9367	1
299.0728	2
299.2152	2
300.0687	2
300.8731	2
301.1478	2
301.2644	1
302.0906	2
302.3565	1
302.7851	1
302.9032	1
303.1652	3
303.9529	2
304.1485	3
304.8214	0
305.0374	1
305.2025	1
306.0423	2
306.2106	1
306.7218	1
307.0326	2
307.1868	1
308.1335	1
308.6058	1
308.9528	1
309.0718	2
309.2050	2
309.5332	1
310.0331	1
310.6035	0
310.9232	1
311.1340	2
311.9060	0
312.1514	1
312.6696	0
312.9416	1
313.1917	2
314.0394	2
314.1821	2
314.8228	2
315.0621	4
315.2237	2
315.5579	1
316.0270	2
316.1981	0
316.9898	2
317.1562	2
317.4285	1
318.0729	1
318.9576	1
319.1845	2
319.8794	1
320.0349	2
320.1762	1
321.0535	2
321.2176	1
322.8855	0
323.0977	1
323.2249	1
323.5071	1
323.8128	0
324.2081	2
324.9218	1
325.0264	1
325.1490	2
325.8204	0
326.1074	2
326.2781	1
326.8466	1
327.0393	2
327.2343	1
327.8919	1
328.0170	2
328.2199	4
328.3961	1
328.9429	2
329.1396	3
330.2090	2
331.0912	2
331.7100	2
331.9674	1
332.0595	1
332.2028	1
332.7508	0
333.0854	4
333.4807	1
334.4746	0
334.7637	1
334.9488	1
335.1174	0
336.3496	1
336.8933	1
337.0690	1
337.1770	1
337.9257	1
338.1038	1
339.1065	3
339.3423	1
340.0590	1
340.2175	3
340.3058	1
341.1220	2
341.3578	1
342.3170	1
342.5142	1
343.0451	1
343.2084	2
344.2066	2
344.3265	1
344.8655	2
345.0889	2
345.2239	2
345.9587	1
347.1153	0
347.3238	1
347.8675	1
348.1701	1
348.3120	1
349.0239	1
349.2722	1
349.8832	1
350.0891	1
350.1947	2
352.1057	2
352.2674	2
352.3770	1
353.0152	0
353.1872	1
353.4168	1
353.5778	0
353.9368	1
354.0938	2
354.2800	1
355.0100	3
355.1899	1
355.9911	1
356.2224	3
356.5389	0
356.9360	1
357.1428	2
358.1772	2
358.2798	1
359.0529	2
360.1326	1
360.4091	1
360.9984	0
361.1635	1
361.8730	0
362.0374	0
362.2215	1
362.2934	1
362.7217	1
363.1073	3
363.3073	1
364.9593	1
366.1017	2
366.5065	1
366.8544	0
367.0031	2
367.2095	2
367.3716	1
367.9814	1
368.0882	1
368.9511	0
369.0634	1
369.1758	1
369.5089	0
370.1236	3
370.2375	2
371.0541	3
371.2922	1
371.4434	1
372.2253	1
372.9637	2
373.1237	2
373.2899	1
374.0910	1
374.2889	0
375.0688	2
375.9256	1
376.0483	2
376.3737	1
377.1440	1
378.1507	1
378.4006	1
379.4527	1
379.6425	1
379.8522	0
380.8799	1
380.9828	1
381.3389	0
383.4116	1
383.6015	1
383.7298	1
384.0234	2
384.1335	1
384.9069	2
385.1302	1
386.2474	1
386.4002	0
387.1787	1
388.2970	0
388.7913	0
389.0979	2
389.3284	2
389.4615	1
390.1175	0
391.0041	1
391.1880	1
391.4945	1
393.3633	1
393.8486	1
394.2912	1
395.2200	1
395.3277	0
395.4552	0
396.1156	1
396.4435	1
398.1195	1
399.1510	3
399.8767	0
400.9330	1
401.1414	1
402.0568	1
402.1765	1
402.3041	0
402.9319	1
403.1498	2
403.3147	1
403.5652	1
404.1971	0
404.6046	1
405.1160	1
406.3339	1
407.2174	2
407.9875	1
408.1168	1
408.3024	1
409.2781	1
410.7721	0
411.2823	1
411.6378	1
412.4163	1
412.9782	1
413.1885	1
413.3766	1
414.1759	1
415.0491	2
416.1979	1
416.4695	1
417.1150	1
418.3348	1
419.1862	2
419.4078	1
420.0210	1
420.1735	1
421.1403	2
421.4073	1
422.4076	1
424.4109	0
425.1572	0
425.3992	0
426.3955	1
427.4363	1
428.2225	2
430.1484	1
431.0158	1
431.3666	1
432.3643	1
432.5025	1
433.1891	1
433.4416	1
434.9517	1
435.6941	0
436.1078	1
436.3381	1
437.0830	1
437.2649	1
437.9932	2
438.9813	1
439.3737	1
440.0228	1
440.2111	1
441.2185	1
443.0198	1
444.0979	1
444.4631	0
444.8586	0
445.1460	2
445.4430	1
445.7391	0
446.0472	1
446.9899	1
448.1979	1
448.9335	1
451.1571	1
451.9270	1
452.2369	1
452.4109	1
454.1950	2
455.1606	1
456.2305	1
456.8601	1
457.1884	1
457.6989	1
457.9461	1
459.0282	2
459.4146	1
459.8798	1
462.3404	3
462.4939	1
463.2448	2
463.6155	2
463.9814	1
464.8517	0
465.2368	1
466.1708	1
466.9761	0
467.3206	1
467.5665	0
469.1884	3
469.9350	1
470.1244	1
471.1528	2
471.2475	1
471.6893	0
472.1065	1
472.3509	1
472.4583	1
473.2250	0
474.1797	2
475.0356	1
475.3343	1
476.2835	2
476.7701	1
477.1596	0
477.9290	1
478.5279	1
479.3157	1
479.9968	1
480.3339	1
482.2994	1
483.1893	1
484.0895	1
484.2677	1
485.0447	1
485.6659	0
486.1058	1
486.4033	1
487.1184	1
487.3412	1
488.2664	1
488.3873	1
489.0970	1
489.4129	1
490.2205	1
490.3478	1
491.3688	0
492.1495	1
492.3293	0
492.5164	0
493.0090	1
493.2828	1
493.4491	3
494.3215	2
494.4345	1
494.6582	1
494.9456	2
495.2353	4
495.5171	1
495.6723	1
496.0003	0
496.2511	2
496.4063	1
496.9540	1
497.1555	1
497.2534	1
497.4389	0
499.4152	1
499.5656	0
500.2314	1
501.1528	1
502.1428	1
502.2495	1
503.2459	1
503.3965	0
503.9708	1
504.1699	1
504.4320	0
504.8462	1
504.9785	2
505.2222	4
505.3792	1
505.5050	1
505.9854	0
506.3352	1
507.2283	1
508.4156	1
509.0826	2
509.3588	1
509.5068	1
510.2722	2
511.3313	2
511.4721	2
511.7379	1
512.2345	1
512.4390	0
513.1568	1
513.9646	1
514.3116	1
514.5050	1
515.8120	0
517.0840	1
518.2145	1
520.2424	1
523.1266	2
523.3783	1
523.7924	1
523.8896	1
524.4376	1
525.3026	1
526.4680	1
526.7993	0
527.0287	1
527.1658	1
527.2877	1
527.4517	1
527.6262	1
528.2237	4
528.5918	1
529.1224	0
529.2714	1
529.4506	2
529.8889	1
530.2650	1
530.3868	1
530.6283	1
531.1868	3
531.7167	0
534.2837	1
534.6567	1
534.8225	2
535.1206	1
535.2664	1
536.7044	1
537.1340	1
537.4706	2
538.2198	1
538.4139	1
538.7250	0
539.3725	1
540.5173	1
541.0782	1
541.2381	1
541.3726	1
542.3934	2
542.7308	1
543.0562	1
543.3610	2
544.4217	1
545.2015	1
546.0197	1
546.2377	2
547.2540	1
548.1973	2
548.6629	0
549.3785	1
550.3775	1
550.9666	0
551.2126	2
551.6489	1
551.9347	1
552.1154	1
552.4164	6
552.6624	1
553.0963	3
553.3288	5
553.5063	3
554.2556	1
554.4403	1
555.0272	1
555.3353	1
556.7098	1
558.1760	1
558.4173	2
558.8889	1
559.1804	2
559.3922	1
560.1569	1
560.3265	1
560.5416	1
560.9702	1
561.0809	1
561.2457	1
561.3509	1
561.4641	1
562.2742	1
563.2461	1
563.4532	1
565.0339	1
565.4913	1
565.6769	1
565.7853	2
566.2458	1
566.8466	1
568.0460	1
568.3026	1
568.5376	2
569.0612	2
569.1840	2
569.3665	3
569.7219	1
569.9514	2
570.4790	3
570.6631	3
570.8066	2
570.8911	1
571.3295	6
571.5550	3
571.6889	1
572.0054	2
572.6805	1
573.4816	1
573.7056	1
573.9941	1
574.0978	1
574.2883	0
574.4661	1
575.3813	1
576.0007	0
576.2375	1
576.4464	1
576.7852	1
577.3386	1
577.5307	1
578.2738	1
578.5824	0
578.7156	1
579.0034	0
579.5169	1
580.0648	1
581.5728	1
582.4899	1
583.1542	1
583.9842	1
584.5762	1
585.3283	1
585.4612	1
585.7040	1
586.8293	1
587.1246	0
587.5377	2
587.6985	2
587.8529	1
587.9994	1
588.1292	2
588.2724	1
588.5406	2
588.6592	1
588.9586	1
589.4640	3
589.9369	1
590.2362	1
590.9686	1
591.2734	2
591.7814	1
592.2607	0
593.1070	1
594.3021	1
595.0752	1
595.2568	1
596.3612	2
597.1647	3
597.2682	1
597.4394	1
597.7675	0
597.9013	1
598.1323	2
598.3226	1
598.6276	1
598.9263	1
599.3356	1
599.5912	3
599.8947	1
600.1998	2
600.4586	1
600.6920	2
600.8266	1
600.9365	1
601.0599	1
601.2344	2
601.3260	1
601.4924	3
601.5984	1
602.0859	2
602.4833	3
602.6968	1
602.9166	1
603.0592	1
603.2241	3
603.3683	2
603.5029	2
603.6057	1
603.7610	1
604.0940	3
604.3282	3
604.5226	3
604.7656	1
604.9974	2
605.3280	2
605.4690	2
605.6459	2
605.9454	2
606.1979	3
606.4202	1
606.5812	2
606.7485	1
606.8505	1
606.9747	1
607.1787	1
607.2943	1
607.5221	3
607.7141	3
608.0225	2
608.4193	2
608.5419	3
608.6957	2
608.8755	1
609.1478	2
609.3969	1
609.6500	1
609.9899	2
610.2780	1
610.5295	2
610.6760	2
610.9800	2
611.0891	1
611.3995	4
611.5181	2
611.7952	1
612.0117	3
612.3206	20
612.5187	22
612.7241	3
612.9630	2
613.1914	1
613.3634	2
613.5624	1
613.7336	1
613.9780	1
614.2391	1
614.7701	1
615.3425	1
615.4436	1
616.1570	1
616.5575	1
616.6992	2
617.0646	1
617.4269	2
617.5822	1
617.9230	3
618.2407	3
618.4541	2
618.7121	1
618.8690	2
618.9741	2
619.1923	5
619.6000	8
619.7943	2
620.1144	2
620.3804	2
620.6384	1
620.8845	3
621.0748	1
621.4379	3
621.6959	3
621.9086	3
622.0710	2
622.4629	3
622.7535	3
622.8849	2
623.0060	3
623.1183	3
623.2274	2
623.5014	4
623.6870	4
623.8423	2
623.9896	3
624.1322	2
624.3393	4
624.5623	3
624.8180	5
624.9821	4
625.2131	5
625.4568	7
625.6997	3
625.9586	4
626.2740	6
626.4118	4
626.6110	7
626.9535	10
627.2203	4
627.4904	3
627.7827	7
628.0990	4
628.3069	9
628.5435	8
628.8980	9
629.1633	12
629.4031	6
630.4682	221
631.4482	9
631.8195	4
631.9868	3
632.2330	5
632.4178	2
632.5525	5
632.7103	2
633.0791	4
633.1746	2
633.5064	3
633.8168	2
633.9640	1
634.0674	1
634.3245	2
634.7041	2
634.9014	2
635.0972	3
635.2723	4
635.5238	2
635.6957	1
635.8389	2
635.9464	2
636.0825	2
636.2075	3
636.5306	3
636.7885	1
637.1339	1
637.2883	2
637.5899	2
638.0730	3
638.2847	1
638.4789	2
638.7424	2
638.9605	2
639.0759	1
639.4238	2
639.5702	2
639.6976	1
639.9698	2
640.1179	1
640.3813	2
640.6122	1
640.9242	1
641.0707	0
641.2450	2
641.3970	2
641.6064	3
641.8261	4
642.1844	3
642.5554	3
642.9032	5
643.3076	3
643.5449	2
643.7009	3
643.9557	3
644.0695	3
644.3434	5
644.5058	3
644.6619	5
644.9062	6
645.5527	2
645.7844	5
646.3959	11
648.4160	999
649.0443	41
649.3628	21
649.7888	13
649.9728	8
650.2809	7
650.5159	6
650.6950	7
650.8940	4
651.0347	2
651.2939	4
651.3766	1
651.5627	1
651.8982	2
652.1201	0
652.3268	1
652.7578	2
653.0154	1
653.2809	3
653.7064	2
653.9425	0
654.3632	2
654.5071	1
654.7202	1
