Mass spectrum: Methyl hydroxy-3,4-dehydro-apo-8'-lycopenate; FAB-EBEB; MS2; m/z: 462.31; [M]*+
Name: Methyl hydroxy-3,4-dehydro-apo-8'-lycopenate
Class: Natural Product; Carotenoid
Formula: C31H42O3
Exact mass: 462.31340
SMILES: C(C)(=CC=CC=C(C)C=CC=C(C(=O)OC)C)C=CC=C(C)C=CC=C(C)C=CCC(C)(C)O
InChI: InChI=1S/C31H42O3/c1-25(15-9-10-16-26(2)21-13-23-29(5)30(32)34-8)17-11-18-27(3)19-12-20-28(4)22-14-24-31(6,7)33/h9-23,33H,24H2,1-8H3/b10-9+,17-11+,19-12+,21-13+,22-14+,25-15+,26-16+,27-18+,28-20+,29-23+
Instrument: JMS-HX/HX 110A, JEOL
Instrument type: FAB-EBEB
Ms type: MS2
Ion mode: POSITIVE
Collision energy: 3 kV
Ionization: FAB
Base peak: 462.2885
Precursor m/z: 462.31
Precursor type: [M]+*
m/z	relative intensity
1.6671	0
9.9788	0
11.1939	0
11.9611	0
12.9680	0
13.9746	0
14.9798	6
15.9798	0
18.9338	0
22.9322	0
23.9383	0
24.8847	0
25.9619	2
26.5128	0
26.9729	12
27.9813	1
28.9766	7
29.9524	0
30.3741	0
30.8366	0
30.9582	14
31.9999	0
32.9825	0
35.9526	0
36.2164	0
36.7395	0
36.9618	2
37.2678	0
37.3390	0
37.5550	0
37.7767	0
37.9666	4
38.1040	0
38.5423	0
38.9740	27
39.3721	0
39.9753	4
40.6158	0
40.9818	38
41.9694	1
42.2440	0
42.9689	28
43.9660	0
44.9761	5
47.8717	0
48.0112	0
48.9434	0
49.0442	0
49.2156	0
49.4463	0
49.6222	0
49.9577	10
50.1513	0
50.5671	0
50.6869	0
50.9570	18
51.1034	0
51.4953	0
51.9725	7
52.3840	0
52.6285	0
52.9692	26
53.9847	2
54.9805	35
55.9706	1
56.9786	3
57.3810	0
57.4667	0
57.9624	1
58.2283	0
58.3223	0
58.9857	560
59.2379	0
59.3823	0
59.4781	0
59.5948	0
59.9720	1
60.0794	0
60.5104	0
60.9432	2
61.0804	0
61.3400	0
61.4732	0
61.9514	5
62.1841	0
62.3474	0
62.5193	0
62.6545	0
62.9453	14
63.1698	0
63.3423	0
63.9534	3
64.1509	0
64.2398	0
64.5327	0
64.9734	25
65.2087	0
65.3298	0
65.7620	0
65.9699	4
66.2114	0
66.4089	0
66.5044	0
66.9801	25
67.2350	0
67.6350	0
67.9844	2
68.3785	0
68.9925	16
69.2959	0
69.9597	0
70.5393	0
70.9794	3
71.2680	0
71.9988	0
72.9823	1
73.9393	3
74.1679	0
74.5139	0
74.9496	5
75.1495	0
75.4217	0
75.6588	0
75.9662	4
76.1717	0
76.3238	0
76.5025	0
76.5944	0
76.9691	63
77.2171	0
77.3862	0
77.4783	0
77.6155	0
77.9762	13
78.1176	0
78.3503	0
78.9783	48
79.4882	0
79.9850	7
80.2113	0
80.3086	0
80.5501	0
81.0028	40
81.3549	0
81.4778	0
81.9841	2
82.2743	0
82.4029	0
82.9875	2
83.4875	0
83.9505	0
84.0242	0
84.7088	0
84.9870	3
85.1659	0
85.3051	0
85.9660	1
86.9631	2
87.4347	0
87.5874	0
87.9801	2
88.4800	0
88.6176	0
88.9829	9
89.1490	0
89.2796	1
89.4108	0
89.6237	0
89.9775	4
90.2951	0
90.3939	0
90.5732	0
91.0030	126
91.2505	0
91.5580	0
91.6938	0
92.0072	16
92.4692	0
92.6585	0
93.0171	75
93.3479	0
93.4794	0
93.5898	0
93.7178	0
94.0179	4
94.2804	0
94.3987	0
94.5756	0
95.0201	20
95.3090	0
95.4270	0
95.5154	0
95.9742	1
96.3464	0
96.9904	5
97.3528	0
97.9744	1
98.5418	0
99.0040	1
99.9742	0
100.9915	3
101.2403	0
101.3490	0
101.4754	0
101.7301	0
101.9933	7
102.3092	0
102.5417	0
103.0043	24
103.2969	0
103.4236	0
103.5203	0
103.6954	0
104.0131	11
104.2299	0
104.3078	0
104.4484	0
104.6069	0
105.0156	122
105.3024	0
105.5881	0
106.0202	9
106.5360	0
106.6897	0
107.0226	28
107.3508	0
107.4910	0
107.5851	0
107.7280	0
108.0132	2
108.6724	0
109.0020	6
109.4898	0
109.9858	1
110.1610	0
110.3930	0
110.5242	0
110.5991	0
110.9944	2
111.1299	0
111.3527	0
111.7277	0
111.9894	8
112.2327	0
112.3860	0
112.5660	0
112.9810	5
113.1804	0
113.4357	0
113.9766	3
114.1121	1
114.2760	1
114.9825	71
115.4405	1
115.9881	23
116.2893	0
116.9928	60
117.4321	0
117.5822	0
117.6915	0
118.0020	9
118.3984	0
118.5014	0
119.0065	102
119.3550	0
119.5672	0
119.7048	0
120.0122	7
120.2090	0
120.3676	0
120.6038	0
120.9992	12
121.2985	0
121.4977	0
121.6744	0
121.9879	2
122.1549	0
122.7485	0
122.9863	4
123.2091	0
123.6214	0
123.9588	1
124.5600	0
124.9821	11
125.2103	0
125.5375	0
125.9643	3
126.0428	2
126.9595	22
127.3079	1
127.9701	67
128.2741	1
128.5222	1
128.9768	75
129.4512	0
129.9884	27
130.2941	0
130.4143	0
130.5895	0
130.9939	64
131.2552	0
131.6180	0
132.0037	15
132.2942	0
132.4675	0
132.6191	0
133.0140	30
133.3991	0
133.6190	0
133.7511	0
134.0219	3
134.1890	0
134.2966	0
134.4145	0
134.5981	0
135.0084	12
135.2986	0
135.4178	0
135.5539	0
135.9657	3
136.4959	0
136.9830	4
137.2601	0
137.3746	0
137.5005	0
137.9766	4
138.1624	0
138.2769	0
138.5351	0
138.9716	9
139.3403	1
139.4412	0
139.6086	0
139.9917	4
140.1827	1
140.9818	55
141.3516	1
141.4857	0
141.9998	44
142.2401	1
142.4051	0
142.5261	1
143.0109	86
143.5239	1
143.5977	0
144.0201	26
144.3358	1
144.4801	0
144.5843	0
145.0291	75
145.3544	0
145.5385	0
146.0411	9
146.2623	0
146.4008	0
146.5018	0
147.0340	37
147.2643	1
147.5481	0
147.7608	0
148.0470	1
148.2935	0
148.4350	0
148.6064	0
148.7490	0
149.0183	4
149.5592	0
149.7606	0
150.0129	2
150.2243	0
150.3810	0
150.6440	1
151.0089	6
151.2232	1
151.5673	1
152.0034	22
152.3271	1
152.6071	1
153.0258	33
153.3875	0
153.5017	0
154.0234	25
154.4209	0
155.0406	58
155.4695	1
156.0480	38
156.2803	0
157.0616	67
157.4399	0
157.6563	0
158.0577	14
158.3528	0
158.5958	0
159.0697	41
159.3166	0
159.6475	1
160.0517	2
160.3605	0
160.5044	0
161.0750	9
161.3829	0
161.6358	0
161.7420	0
162.0350	1
162.2402	0
162.3464	0
162.4910	0
162.6073	0
163.0212	5
163.2399	0
163.3651	0
163.6656	0
164.0397	4
164.5303	1
165.0205	49
165.5342	0
166.0247	14
166.2644	1
167.0128	34
167.3408	0
167.6114	1
168.0405	15
168.4268	1
168.6211	0
169.0460	48
169.3365	0
169.5571	0
170.0460	17
170.3209	0
170.5188	0
171.0543	32
171.6275	1
172.0459	7
172.3094	0
172.5657	1
172.6423	0
173.0593	10
173.3107	0
173.6024	0
174.0291	1
174.2122	0
174.2957	0
174.4391	0
174.6111	0
174.7102	0
175.0234	2
175.3249	0
175.5334	0
176.0049	4
176.2516	0
176.3301	0
176.5168	0
177.0205	7
177.2741	1
178.0014	23
178.3297	0
178.5206	0
179.0141	35
179.2781	1
179.4629	0
179.5910	0
180.0162	13
180.2680	0
180.4663	0
181.0205	36
181.4259	1
181.5029	0
182.0388	16
182.5153	0
182.6570	1
183.0470	40
183.3762	0
183.6098	0
184.0562	7
184.4762	0
185.0422	16
185.3323	0
185.5712	0
186.0451	2
186.5850	1
186.6899	0
187.0298	6
187.2345	0
187.3546	0
187.4758	0
187.6213	0
187.9863	1
188.3789	0
188.9984	10
189.3596	0
189.5617	0
190.0020	5
190.1387	2
190.2008	1
190.3414	0
190.5503	0
191.0016	14
191.3948	0
191.6072	1
192.0186	14
192.3159	0
192.4730	1
193.0264	29
193.3323	0
193.5116	0
193.7547	0
194.0387	13
194.2904	0
194.4505	0
194.6123	0
195.0445	32
195.3445	1
195.5737	0
196.0452	11
196.2768	1
196.4070	0
196.5367	0
196.6431	0
197.0543	23
197.3069	1
197.4609	0
197.7011	1
198.0535	4
198.2949	0
198.5120	0
199.0668	11
199.3191	0
199.4795	0
200.0102	2
200.3272	0
200.5711	0
200.7810	0
201.0607	3
201.6246	1
202.0151	10
202.2415	0
202.3755	0
202.5270	0
203.0289	11
203.3048	0
203.4871	1
203.5978	0
203.7483	0
204.0243	4
204.2521	1
204.3833	1
204.5208	0
205.0475	12
205.2759	0
205.3498	0
205.5260	0
206.0619	9
206.3126	0
206.4371	0
206.6407	0
207.0688	21
207.4009	0
208.0585	8
208.3372	0
208.6080	1
209.0781	23
209.3990	1
209.5687	0
210.0759	6
210.3554	0
210.4619	0
210.6481	0
211.0831	16
211.3537	0
211.5274	0
211.7849	0
212.0931	3
212.4275	0
212.7039	0
213.0760	5
213.3456	0
213.4297	0
213.5589	0
214.0829	1
214.2770	0
214.3977	0
214.6754	0
215.0625	11
215.4228	0
215.6022	1
216.0543	5
216.2701	1
217.0464	14
217.3449	0
217.4953	0
217.6492	0
218.0765	4
218.2657	0
218.4589	0
219.0637	13
219.4433	0
220.0768	7
220.4292	0
220.5233	0
221.0983	15
221.3287	0
221.4633	0
222.1098	5
222.3432	0
222.5012	0
223.0965	14
223.3386	0
223.5178	0
223.5800	0
223.7479	0
224.0950	4
224.3200	0
224.5227	0
224.5970	0
224.7237	0
225.1012	6
225.3623	0
225.4822	0
225.6056	0
225.7656	0
226.0661	2
226.3163	1
226.5729	0
227.0741	4
227.2221	1
227.4176	0
227.5679	0
228.0481	3
228.3071	0
228.5152	0
228.6765	0
229.0670	9
229.4250	0
229.5343	0
230.0771	3
230.3317	0
230.5342	0
231.0972	8
231.3868	0
231.5402	0
231.6386	0
231.8235	1
232.0913	4
232.4084	0
232.6340	0
233.0920	9
233.4419	0
234.0838	4
234.4538	0
234.6159	0
235.1223	9
235.3767	0
235.5240	0
235.6472	0
236.1050	3
236.4070	0
236.6351	0
236.7526	0
237.1172	5
237.5128	0
237.6863	0
238.1122	2
238.5188	0
238.7439	0
239.0714	3
239.2014	2
239.5537	0
239.7044	0
240.0590	1
240.4176	0
240.5752	0
241.0788	4
241.3912	0
241.4685	0
241.8348	0
242.0990	3
242.4447	0
242.6499	0
243.0994	8
243.4899	1
243.6567	0
244.1029	4
244.3896	0
244.5491	0
244.6386	0
245.1124	9
245.3878	0
245.6528	0
246.1055	3
246.3936	0
246.6783	0
247.1133	6
247.4709	0
247.6661	0
248.1115	2
248.5278	0
248.7000	0
248.7684	0
249.1319	5
249.3932	0
249.5178	0
250.0956	1
250.4845	0
250.5758	0
250.6804	0
250.7861	0
251.1584	3
251.7692	1
252.0869	2
252.3030	0
252.4105	0
252.5525	0
252.7347	0
253.1037	2
253.4534	0
253.7406	0
254.1094	2
254.5345	0
254.6632	0
255.0757	4
255.3866	0
255.5331	0
256.0871	3
256.4894	0
256.5986	0
256.6866	0
257.1194	6
257.4189	0
257.5259	0
257.6863	0
257.8668	0
258.1181	2
258.5189	0
259.1296	4
259.3769	0
259.7819	0
259.9032	0
260.1425	2
260.3830	0
260.5475	0
260.7892	0
261.1103	5
261.4469	0
261.6753	0
262.1294	1
262.5133	0
262.5858	0
262.8212	0
263.1407	4
263.5650	0
263.6974	0
263.8384	0
264.1303	1
264.4401	0
264.6434	0
265.1329	2
265.2873	0
265.4197	0
265.5844	0
265.8131	0
266.0959	1
266.2284	0
266.3338	0
266.5712	0
266.6691	0
266.8074	0
267.1225	3
267.2948	1
267.4677	0
267.7154	0
268.1411	1
268.3683	0
269.1237	3
269.5057	0
269.6541	0
269.8072	0
270.1720	1
270.3188	0
270.5450	0
270.6687	0
271.1239	3
271.6184	0
271.7410	0
271.8918	0
272.1215	1
272.2954	0
272.5395	0
272.6944	0
273.1435	3
273.5304	0
273.7827	0
273.9692	1
274.1322	1
274.3200	0
274.4283	1
274.6644	0
275.1247	3
275.4582	0
275.6339	0
275.8304	0
276.1691	1
276.4976	0
276.8306	0
277.1505	2
277.6190	0
277.7821	0
278.1141	1
278.3193	0
278.5377	0
279.0825	1
279.2497	1
279.3684	0
279.5506	0
279.6844	0
279.9836	0
280.0909	0
280.2495	0
280.4876	0
280.6906	0
280.7800	0
281.1416	2
281.5182	0
281.6024	0
281.9531	0
282.1238	1
282.2940	0
282.5190	0
282.7082	0
283.1276	3
283.5067	0
283.6250	0
283.7634	0
284.1414	1
284.5044	0
284.6764	0
284.8206	0
285.1127	1
285.3372	1
285.4797	0
286.1268	1
286.4524	0
286.5846	0
286.7249	0
286.8358	0
287.1198	1
287.5309	0
287.6741	0
288.1407	1
288.6218	0
288.7997	0
289.1497	3
289.2507	1
289.3322	0
289.4413	0
289.6764	0
289.7966	0
289.9173	0
290.1166	1
290.3176	0
290.5389	0
290.8757	1
291.1172	2
291.5442	0
292.0666	1
292.2163	1
292.5018	0
292.6197	0
293.0977	2
293.5809	0
293.8774	0
294.0849	1
294.3347	0
294.4364	0
295.0903	3
295.3459	0
295.5199	0
295.7379	0
296.1155	1
296.2693	1
296.3804	0
296.6481	0
296.7459	0
296.8477	0
297.1559	2
297.4000	0
297.7679	0
298.0184	1
298.2226	1
298.4123	0
298.6900	0
299.1268	1
299.3073	0
299.4827	0
299.6464	0
300.1088	0
300.4519	0
300.6747	0
301.1470	1
301.3687	0
301.7009	0
302.0164	0
302.2068	0
302.3573	0
302.5246	0
302.6439	0
302.8036	0
303.0908	1
303.2541	1
304.1255	1
304.3050	0
304.6623	0
305.1383	1
305.5495	0
305.9347	0
306.0911	0
306.2851	0
306.5822	0
306.6854	0
307.1329	4
307.4288	0
308.1190	7
308.4306	0
308.6873	0
309.1255	19
309.6297	0
310.1391	1
310.2999	1
310.5474	0
310.6330	0
310.7920	0
310.9302	0
311.1853	2
311.3946	0
312.1830	1
312.3716	0
312.8534	0
313.0310	0
313.2185	1
313.5367	0
313.6310	0
313.7467	0
313.9746	0
314.1291	1
314.2281	0
314.5399	0
314.6505	0
314.7627	0
315.1904	1
315.3536	0
315.6128	0
315.8680	0
315.9902	0
316.1806	0
316.2662	0
316.4844	0
317.0679	0
317.2196	0
317.3058	0
317.3880	0
317.5947	0
318.1725	0
318.2981	0
318.4839	0
318.6414	0
319.0062	0
319.1393	0
319.2581	1
319.5638	0
319.6726	0
320.1597	1
320.2865	0
320.4394	0
320.7330	0
320.8645	0
321.1454	1
321.3823	0
321.6429	0
321.8173	0
322.1422	1
322.2453	1
322.4643	0
322.6230	0
322.8884	0
323.1937	1
323.4225	0
323.6294	0
323.7394	0
323.9689	1
324.1039	1
324.2505	1
324.5304	0
324.6468	0
324.7674	0
324.9516	0
325.1110	1
325.2194	0
325.3376	0
325.5653	0
325.8424	0
326.0794	0
326.2469	0
326.8167	0
327.2132	1
327.4317	0
327.5256	0
327.6543	0
327.9372	0
328.0966	0
328.3117	0
328.4375	0
328.5993	0
328.8868	0
329.1681	2
329.2875	1
329.8482	0
330.2309	1
330.4641	0
330.7523	0
330.8253	0
331.2336	1
331.4442	0
331.6476	0
331.7849	0
332.0208	0
332.1622	0
332.2572	0
332.3864	0
332.7151	0
332.8843	0
333.1300	1
333.3398	0
333.4302	0
333.6360	0
333.7693	0
333.8597	0
334.2527	1
334.4406	0
334.5617	0
334.8585	1
335.1652	1
335.3362	1
335.4869	0
335.6493	0
335.8319	0
336.0754	1
336.2493	1
336.3264	0
336.5758	0
336.7225	0
336.8703	0
337.0014	0
337.2090	1
337.3290	0
337.4566	0
337.7662	0
338.0272	0
338.1977	0
338.3386	0
338.4755	0
338.7829	0
338.9209	0
339.1396	0
339.2788	0
339.3792	0
339.6059	0
339.8148	0
339.9957	0
340.2022	0
340.3711	0
340.7040	0
340.8195	0
340.8990	0
341.1484	1
341.2708	0
341.7367	0
341.8354	0
342.0483	0
342.2026	0
342.3668	0
342.5061	0
342.8496	0
343.2042	1
343.3307	1
343.5674	0
343.6632	0
343.7984	0
344.0758	1
344.2366	1
344.4001	0
344.4645	0
344.5601	0
344.7108	0
344.9525	0
345.1461	1
345.2609	1
345.4266	0
345.6180	0
345.9281	0
346.0776	0
346.2000	0
346.5542	0
346.7814	0
347.1130	1
347.3160	1
347.5496	0
347.6296	0
347.7520	0
348.1318	1
348.2651	1
348.3573	0
348.6101	0
349.2359	1
349.4290	0
349.8854	0
349.9938	0
350.1336	0
350.3604	0
350.5593	0
351.0036	0
351.1451	0
351.2983	0
351.5373	0
352.3012	0
352.3802	0
352.7259	0
352.9794	0
353.1285	0
353.2945	0
353.3919	0
353.5097	0
354.0598	0
354.2849	0
354.5437	0
354.8750	0
355.0387	0
355.2801	0
355.5708	0
355.7432	0
355.8877	0
356.1459	0
356.2928	0
356.7344	0
356.9265	0
357.2417	1
357.5511	0
357.7009	0
358.1908	1
358.6401	0
358.8549	0
358.9455	0
359.2264	1
359.3623	0
359.7675	0
359.9777	0
360.0915	0
360.3307	0
360.5786	0
360.7917	0
361.0751	0
361.2958	1
361.4224	0
361.7325	0
361.9334	0
362.2290	1
362.3777	0
362.5269	0
362.7755	0
363.0194	0
363.1704	1
363.3604	0
363.5282	0
363.7524	0
363.8837	0
364.0294	0
364.2223	0
364.3309	0
364.4250	0
364.5290	0
364.6562	0
364.8671	0
365.1692	0
365.4747	0
366.1312	0
366.2433	0
366.4414	0
366.6454	0
366.7401	0
366.9370	0
367.0509	0
367.1799	0
367.2700	0
367.5013	0
367.6802	0
367.8865	0
368.1329	0
368.3496	0
368.8523	0
369.0179	0
369.2103	1
369.3172	1
369.4474	0
369.7234	0
370.2506	10
370.6214	0
370.7452	0
370.9626	0
371.1608	1
371.2846	1
371.4172	0
371.5282	0
371.6892	0
372.0764	1
372.2351	1
372.4513	0
372.6316	0
372.8554	0
373.2499	2
373.5892	0
373.9413	0
374.1722	1
374.3521	0
374.6241	1
374.8481	0
374.9780	0
375.1788	1
375.3847	0
375.4561	0
375.5779	0
375.6980	0
375.9742	0
376.2620	1
376.5219	0
376.6675	0
376.8109	0
376.9710	0
377.1666	0
377.3621	0
377.4898	0
377.7184	0
378.0881	0
378.3933	0
378.5094	0
378.9429	0
379.2987	0
379.5134	0
379.8698	0
380.1084	0
380.3411	0
380.7619	0
381.0957	0
381.1851	0
381.5102	0
381.6373	0
382.2022	0
382.3740	0
382.5296	0
382.6498	0
382.7491	0
382.8965	0
383.2664	2
383.9137	0
384.1326	0
384.3289	0
384.6332	0
385.1192	1
385.2301	1
385.3590	1
385.5361	0
385.6383	0
385.7748	0
386.0147	0
386.2743	0
386.4514	0
386.6889	0
387.1913	3
387.3510	1
387.6310	0
388.2357	7
388.4549	1
388.6654	0
389.2715	2
389.5471	0
390.0093	1
390.2605	1
390.6381	1
391.0883	1
391.2501	0
391.4056	0
391.5338	0
391.7409	0
391.9544	0
392.1615	0
392.3721	0
392.4481	0
392.5659	0
392.7318	0
392.9517	0
393.0997	0
393.2360	0
393.4060	0
393.5871	0
393.7745	0
394.0524	0
394.2097	0
394.6129	0
395.0250	0
396.2071	0
396.4311	0
396.7300	0
397.1264	0
397.2443	0
397.3673	0
398.1120	0
398.4556	0
398.8596	0
399.0564	0
399.2050	0
399.3461	0
399.6776	0
399.8082	0
400.0329	0
400.2924	0
400.4909	0
400.6703	0
400.9159	0
401.0808	1
401.2352	1
401.3752	1
401.4559	0
401.6684	0
402.2298	4
402.4261	1
403.2112	29
403.6246	1
404.2367	9
404.4928	1
404.5980	0
404.8349	0
405.1015	0
405.2060	0
405.2914	0
405.5667	0
405.6881	0
405.8960	0
405.9965	0
406.2561	0
406.3671	0
406.5030	0
406.6465	0
406.9613	0
407.1193	0
407.1913	0
407.3104	0
407.5677	0
407.7495	0
407.9685	0
408.1057	0
408.3322	0
408.7063	0
408.8574	0
409.7364	0
409.9758	0
410.2186	0
410.5266	0
410.8020	0
411.1768	0
411.4446	0
411.6027	0
411.9949	0
412.2262	0
413.1467	0
413.2792	0
413.4094	0
413.4995	0
413.9987	0
414.2062	0
414.4619	0
414.9147	0
415.2006	0
415.4424	0
416.0231	0
416.1731	0
416.2684	0
416.5439	0
417.0061	0
417.2345	0
417.6287	0
417.8536	0
418.0141	0
418.1705	0
418.4420	0
418.5507	0
418.7850	0
419.0664	0
419.3751	0
419.6112	0
419.7711	0
420.0208	0
420.2083	0
420.3739	0
420.6991	0
420.7920	0
420.9836	0
421.1085	0
421.2438	0
421.4332	0
421.7520	0
421.9454	0
422.1284	0
422.2138	0
422.4676	0
422.9561	0
423.1739	0
423.3423	0
423.5613	0
423.6938	0
423.7908	0
423.8796	0
423.9784	0
424.0754	0
424.2166	0
424.3972	0
424.6348	0
424.9572	0
425.1716	0
425.4720	0
425.8432	0
426.0854	0
426.8622	0
427.1167	0
427.2765	0
427.6786	0
427.8360	0
428.0156	0
428.2544	0
428.4398	0
428.5130	0
428.7681	0
429.2969	1
429.3986	1
429.6391	0
429.7763	0
430.1331	1
430.3336	0
430.5457	0
430.7898	0
431.2675	8
431.6924	0
431.8104	0
432.1684	0
432.3637	0
432.5363	0
432.9420	0
433.1315	0
433.2774	0
433.4733	0
433.8337	0
434.0383	0
434.3406	0
434.6731	0
434.8789	0
435.1446	0
435.3602	1
435.4945	1
435.8265	0
436.1486	0
436.3916	0
436.6753	1
436.8073	0
436.9863	0
437.0567	0
437.2235	0
437.4672	1
437.6224	0
437.8201	0
438.1858	1
438.4114	0
438.5004	0
438.8347	1
439.0139	0
439.4325	1
439.5523	0
439.7523	0
439.9384	0
440.1263	1
440.3327	1
440.5229	1
440.7904	1
440.9462	0
441.0771	1
441.2068	1
441.4830	1
441.8413	1
442.0344	0
442.2042	1
442.5573	1
442.8027	1
443.3139	2
443.5664	1
444.3231	28
445.2109	2
445.4299	1
446.2261	7
446.4276	3
446.5775	1
447.2767	6
447.7298	1
447.9365	1
448.2722	2
448.5359	2
448.7724	1
449.0744	1
449.3184	0
449.6512	1
449.9864	1
450.1613	1
450.4325	1
450.7259	1
450.8804	1
451.0193	1
451.3097	1
451.6182	1
451.9772	1
452.3851	1
453.3629	1
453.6110	1
453.8730	1
454.0683	1
454.3664	1
454.6888	1
455.0776	2
455.9428	2
462.2885	999
462.9449	57
463.5896	29
464.2419	14
464.9553	7
465.8466	4
466.0187	2
466.9787	2
467.4590	1
467.8369	1
468.3661	1
468.7919	0
469.0988	0
469.3813	1
469.5675	1
469.7253	0
469.9335	1
470.0542	0
470.2357	0
470.5258	0
470.7260	0
471.0317	0
471.2753	0
471.4842	0
471.6194	0
471.8172	0
472.0232	0
472.2506	0
472.3411	0
