Mass spectrum: Adonixanthin; FAB-EBEB; MS2; m/z: 582.41; [M]*+
Name: Adonixanthin
Class: Natural Product; Carotenoid
Formula: C40H54O3
Exact mass: 582.40730
SMILES: CC(=C1C=CC(=CC=CC(C)=CC=CC=C(C=CC=C(C)C=CC(=C(C)2)C(C)(C)CC(C2)O)C)C)C(=O)C(O)CC1(C)C
InChI: InChI=1S/C40H54O3/c1-28(17-13-19-30(3)21-23-35-32(5)25-34(41)26-39(35,7)8)15-11-12-16-29(2)18-14-20-31(4)22-24-36-33(6)38(43)37(42)27-40(36,9)10/h11-24,34,37,41-42H,25-27H2,1-10H3/b12-11+,17-13+,18-14+,23-21+,24-22+,28-15+,29-16+,30-19+,31-20+/t34-,37+/m1/s1
Instrument: JMS-HX/HX 110A, JEOL
Instrument type: FAB-EBEB
Ms type: MS2
Ion mode: POSITIVE
Collision energy: 3 kV
Ionization: FAB
Base peak: 582.3187
Precursor m/z: 582.41
Precursor type: [M]+*
m/z	relative intensity
0.0216	0
0.1387	0
0.4079	0
0.8079	0
1.2434	0
1.9181	0
3.7139	0
4.3834	0
5.1805	0
5.4777	0
6.1523	0
7.0587	0
7.9327	0
8.1914	0
8.6880	0
10.5886	0
14.1431	0
14.9873	1
18.0216	0
24.6251	0
25.3968	0
25.9577	2
26.8150	0
26.9629	15
27.9684	1
28.9739	18
29.9551	1
30.9417	2
32.4917	0
33.6228	1
36.5062	0
36.9528	3
37.3172	1
37.5173	0
37.9478	5
38.0707	1
38.9540	34
39.1803	1
39.3647	0
39.4521	0
39.5494	1
39.6569	0
39.9738	4
40.0851	0
40.5906	0
40.9750	77
41.9623	2
42.9675	52
43.9944	0
44.9832	1
46.9448	0
48.9468	2
49.3683	0
49.9499	14
50.4453	1
50.9563	36
51.1885	0
51.2770	1
51.9629	12
52.9661	53
53.9733	3
54.3374	0
54.9773	108
55.9584	2
56.1563	0
56.9922	48
57.3064	0
57.9429	1
58.9823	9
59.9171	1
60.7023	0
60.9473	1
61.0674	1
61.9459	8
62.1158	1
62.9594	25
63.1116	0
63.3070	0
63.9604	5
64.0954	1
64.5618	0
64.7723	0
64.9684	51
65.6827	0
65.9720	12
66.3872	0
66.9774	67
67.1797	1
67.9877	5
68.9813	81
69.2411	0
69.9860	3
70.1992	0
70.5841	0
70.9708	22
71.7064	0
71.9866	0
72.9649	1
73.9342	6
74.2531	1
74.9450	11
75.0860	1
75.2131	0
75.3566	1
75.4406	0
75.9550	5
76.0591	1
76.1368	0
76.2837	0
76.5078	0
76.6723	2
76.9560	153
77.2228	2
77.3895	1
77.6185	2
77.7384	0
77.9576	36
78.2088	1
78.3754	0
78.4555	0
78.9682	135
79.6537	0
79.9812	17
80.9854	143
81.1616	2
81.3219	0
81.5708	0
81.9828	5
82.3703	1
82.9807	35
83.2426	0
83.3674	0
83.9884	4
84.0709	1
84.9826	65
85.2424	0
85.9344	6
86.4933	1
86.9566	9
87.6962	1
87.9590	3
88.3381	1
88.6091	1
88.9409	14
89.1730	3
89.3688	1
89.4992	2
89.9331	8
90.3243	2
90.4525	0
90.5942	1
90.9671	303
91.3258	2
91.5000	2
91.6664	1
91.9719	25
92.4493	0
92.5861	0
92.7199	0
92.9876	183
93.1846	2
93.4128	1
93.7000	0
93.9928	11
94.1540	1
94.4280	1
94.6591	0
95.0026	109
95.4170	0
95.6702	0
95.8558	1
96.0169	5
96.3337	0
96.8312	2
96.9933	18
97.2176	0
97.9612	3
98.5018	0
98.9638	4
99.9777	0
100.2214	0
100.5969	1
100.9719	6
101.2690	1
101.3945	0
101.9799	17
102.1947	0
102.3797	1
102.5311	1
102.7149	2
102.9774	65
103.2425	1
103.4460	1
103.5739	0
103.9855	23
104.1224	2
104.3136	2
104.4274	1
104.9874	353
105.4708	1
105.5836	0
105.9935	37
106.1748	1
106.4270	0
106.6185	1
107.0034	171
107.4629	0
107.7164	1
107.9995	9
108.3719	1
108.5152	1
108.6453	1
109.0094	97
109.4549	1
109.5606	1
109.8194	1
110.0090	4
110.2138	1
110.6684	0
110.9851	18
111.5388	0
111.8092	0
112.0083	2
112.1740	0
112.4174	0
112.5459	1
112.9674	9
113.3271	2
113.5279	1
113.5983	0
113.9513	5
114.1207	2
114.2900	1
114.4594	1
114.9534	159
115.2621	1
115.4254	2
115.5093	1
115.6282	1
115.9569	57
116.2617	1
116.4297	2
116.9633	146
117.4062	2
117.6007	1
117.9731	28
118.3478	2
118.6408	2
118.9755	337
119.3322	1
119.4869	0
119.6103	0
119.9839	37
120.2904	0
120.4210	1
120.6452	1
120.9815	114
121.2391	0
121.4731	0
121.7855	1
121.9754	13
122.1179	1
122.2148	0
122.4395	3
122.7439	0
122.9758	32
123.4257	1
123.5492	1
123.7299	1
123.9602	9
124.3734	0
124.9466	15
125.3429	0
125.6847	1
125.9465	3
126.2092	1
126.3653	0
126.5054	1
126.9374	54
127.1229	4
127.3051	4
127.5462	2
127.9380	166
128.2854	2
128.4479	2
128.9470	202
129.2839	1
129.4348	2
129.5340	1
129.6377	1
129.9554	82
130.1635	1
130.4509	2
130.9526	187
131.2020	2
131.3208	1
131.5287	1
131.6320	0
131.9563	47
132.3685	2
132.5396	2
132.9612	180
133.2274	2
133.4605	1
133.6526	1
133.9614	24
134.2221	0
134.3472	2
134.9654	117
135.2975	1
135.4509	0
135.9674	11
136.2533	1
136.4698	0
136.9561	28
137.1499	1
137.2867	0
137.5094	1
137.9484	4
138.0717	1
138.1556	0
138.5686	0
138.9275	28
139.1420	2
139.2785	1
139.4558	1
139.6475	2
139.9535	9
140.2058	3
140.3201	1
140.5199	3
140.9380	142
141.1734	1
141.3313	0
141.4766	1
141.9452	138
142.2138	1
142.4271	2
142.5476	1
142.9515	210
143.2190	2
143.4398	1
143.5447	1
143.9654	85
144.3282	3
144.4503	1
144.5632	3
144.9705	242
145.2214	2
145.4077	3
145.5451	2
145.9819	40
146.2404	1
146.4982	1
146.9837	96
147.2074	1
147.2901	1
147.5654	2
147.9706	16
148.2634	1
148.4317	1
148.6020	1
148.7511	2
148.9937	42
149.2575	1
149.3510	1
149.4677	0
149.6488	1
149.9553	5
150.2619	1
150.4404	3
150.5493	1
150.6781	1
150.9616	23
151.2027	3
151.5243	2
151.9590	54
152.3233	2
152.5381	2
152.6099	1
152.9618	90
153.3259	1
153.5468	1
153.9783	44
154.2108	1
154.2987	1
154.4692	2
154.9797	161
155.2377	2
155.5191	3
155.9993	103
156.2943	1
157.0025	207
157.3425	1
157.5161	1
158.0153	47
158.3568	1
158.5581	2
159.0189	117
159.3085	0
159.5240	0
159.6418	1
160.0159	28
160.3300	2
160.4672	1
161.0266	60
161.3301	1
161.5151	1
161.6123	0
162.0025	13
162.3083	0
162.4935	1
162.9933	22
163.5525	2
164.0017	11
164.3147	1
164.5398	1
164.9982	126
165.4136	1
166.0034	46
166.2860	2
166.5303	1
167.0250	103
167.3226	1
168.0170	41
168.3600	1
168.4894	1
169.0387	138
169.3981	1
170.0333	60
170.3056	1
170.5228	2
171.0346	111
171.3926	1
171.5501	1
171.6625	1
172.0401	25
172.3128	1
172.5256	1
173.0416	86
173.3387	1
173.5732	2
174.0256	11
174.3290	0
175.0392	46
175.3564	1
175.4913	1
175.6648	2
176.0043	11
176.3156	0
176.5236	1
177.0147	19
177.2971	2
177.9805	59
178.3943	3
178.5768	3
178.9996	99
179.3014	1
179.3812	1
179.4861	1
180.0113	44
180.2381	3
180.3905	1
181.0129	116
181.2737	1
181.4926	2
181.6647	1
182.0287	54
182.4368	2
183.0315	122
183.3083	1
183.5607	2
184.0323	30
184.2719	2
184.5258	1
185.0263	74
185.3211	2
185.5011	0
186.0324	16
186.2214	2
186.3389	1
186.6775	1
187.0317	37
187.2548	2
187.4595	1
187.9813	13
188.2092	3
188.3555	0
189.0015	41
189.4120	1
189.5053	1
190.0005	18
190.1967	3
190.4359	1
190.6730	3
191.0001	50
191.3137	1
191.5285	1
192.0031	43
192.4778	1
193.0059	87
193.2639	1
193.5000	2
193.6366	1
194.0216	47
194.2463	2
194.5140	2
195.0147	121
195.3269	2
195.4670	1
195.5449	1
196.0220	36
196.3782	2
197.0333	87
197.2480	5
197.4245	2
197.6195	1
197.9945	16
198.4455	2
198.7474	1
199.0472	39
199.3725	1
199.6129	1
200.0122	10
200.2732	2
200.4301	1
201.0284	31
201.2258	4
201.3246	1
201.5597	3
201.9869	27
202.2948	0
203.0124	46
203.2903	2
203.5998	3
203.9863	16
204.2567	2
204.4325	1
204.5019	0
204.6502	2
205.0183	47
205.3432	1
205.4407	1
206.0193	39
206.2763	1
206.4619	2
206.6158	1
207.0276	76
207.4477	1
207.5784	0
208.0220	32
208.2848	1
208.4320	2
208.5621	1
209.0307	74
209.3308	1
209.5104	1
209.6398	0
210.0440	25
210.2974	3
210.5577	1
211.0516	51
211.4890	1
211.7275	2
212.0576	10
212.2954	1
212.4008	1
213.0206	23
213.3923	1
213.5723	1
214.0186	5
214.2124	2
214.4574	2
214.6271	2
215.0246	36
215.3711	0
215.5312	1
216.0124	16
216.1271	7
216.2762	0
216.3591	0
216.5179	1
217.0325	34
217.2570	2
217.3855	1
217.6218	1
218.0247	18
218.2507	2
218.4076	1
219.0422	38
219.5020	2
220.0325	29
220.4047	1
220.4849	1
221.0447	51
221.4371	1
221.5091	1
221.7590	1
222.0844	19
222.3315	1
222.5150	2
222.6667	2
223.0614	45
223.5096	1
224.0500	13
224.4609	1
224.6155	1
225.0819	21
225.3426	1
225.4903	1
226.0069	9
226.4243	3
226.6248	1
226.7545	1
227.0715	17
227.2048	6
227.3831	1
227.5579	0
227.7196	2
228.0208	12
228.1992	3
228.5726	2
229.0656	28
229.3593	1
229.5350	1
229.7496	0
230.0587	15
230.5195	0
230.6477	1
231.0600	31
231.5847	3
232.0852	18
232.4159	1
232.5601	1
233.0837	42
233.3126	3
233.4825	1
234.0778	15
234.3484	1
234.5135	1
235.0639	34
235.3380	1
235.5102	1
235.6837	1
235.8198	1
236.1107	10
236.3670	2
236.4572	1
236.5815	1
237.0872	33
237.3678	2
237.4658	1
237.5936	0
237.8382	0
238.1001	6
238.4121	2
238.6519	2
239.0696	20
239.3963	0
239.6035	1
239.7280	2
240.0311	6
240.1501	3
240.2801	1
240.4282	0
240.6146	2
240.7794	2
241.0883	13
241.4438	1
241.6268	1
242.0686	11
242.3497	1
242.5217	1
243.0639	15
243.4106	1
243.6396	3
244.0901	10
244.7532	3
245.0791	27
245.5592	2
245.7124	1
246.0936	12
246.5117	1
246.7341	1
247.0833	35
247.5044	0
247.7540	2
248.1005	9
248.3279	1
248.5713	2
249.0958	23
249.4683	2
249.6030	1
249.7523	1
250.0809	9
250.7027	1
251.0796	14
251.5571	1
252.0500	8
252.2113	4
252.3370	2
252.5437	1
252.6925	1
252.8433	3
253.0899	12
253.2890	3
253.4908	0
253.8954	2
254.1049	5
254.2363	3
254.4012	1
254.5647	1
255.0735	17
255.5111	1
255.6341	0
255.8362	4
256.0599	7
256.3954	1
256.4989	0
256.6750	2
257.0881	22
257.3761	1
257.5753	1
257.7501	0
258.0871	10
258.5766	1
258.7171	0
259.1053	21
259.4473	2
259.6838	1
260.0874	6
260.3925	3
260.5940	1
261.0895	22
261.4219	1
261.6424	1
261.7684	2
262.0904	8
262.2899	1
262.4601	2
262.6470	1
262.7926	2
263.1042	17
263.2317	6
263.3851	1
263.5952	1
264.1240	7
264.6578	1
264.7545	1
265.0880	15
265.4664	0
265.8042	1
266.1336	9
266.6046	0
267.0708	12
267.4564	1
267.7699	1
267.8884	1
268.1233	4
268.3632	1
268.7377	1
269.1010	17
269.3550	1
269.5206	1
269.6595	1
269.7710	1
269.9429	4
270.1296	6
270.4811	1
270.5808	1
271.0854	15
271.5550	1
272.1321	11
272.2746	1
272.4839	0
273.1011	13
273.7191	1
274.1153	6
274.6363	1
275.1070	16
275.4213	1
275.5357	1
275.7104	1
276.0858	11
276.4977	0
277.1181	8
277.4620	1
278.0840	5
278.3129	1
278.5102	0
278.6548	0
278.7981	1
278.9280	3
279.0860	8
279.2560	4
279.4898	2
279.7953	2
280.0869	3
280.4367	1
280.5027	0
280.7655	0
280.8680	1
281.0823	9
281.2018	5
281.5292	1
281.7056	1
281.8089	1
281.9396	2
282.1167	5
282.6558	2
283.1155	16
283.5732	1
283.7202	1
283.8066	1
284.1280	5
284.6413	1
285.1280	15
285.5922	0
286.0305	5
286.2007	4
286.5912	2
287.1006	11
287.4553	2
287.6664	1
288.1457	4
288.3801	1
288.6842	3
289.0946	12
289.3587	1
289.5685	0
289.8846	1
290.0360	2
290.2564	1
290.6079	1
290.7107	1
291.0878	9
291.2433	5
291.4761	1
291.6463	1
291.7434	1
291.8743	1
292.0790	3
292.2148	2
292.3703	1
292.6356	1
292.7812	1
292.9142	1
293.0620	5
293.1753	4
293.3949	0
293.8875	1
294.0072	2
294.1811	3
294.3359	0
294.7414	0
295.1378	7
295.7687	1
296.0785	4
296.2693	2
296.4032	2
296.5201	1
297.1040	15
297.4850	2
297.5858	0
297.8598	1
298.1600	4
298.3699	0
298.5172	1
298.6779	1
299.0999	10
299.6905	0
299.9971	3
300.1839	6
300.6040	0
301.1208	9
301.8188	1
302.0501	2
302.3202	1
302.5910	0
302.7588	1
302.8547	1
303.1418	8
303.5453	1
304.1583	2
304.3156	1
304.5498	1
304.7192	1
304.9012	1
305.1235	5
305.2787	2
305.9971	2
306.2060	1
306.3655	1
307.0587	5
307.2528	4
307.8748	2
308.1100	2
308.2250	1
308.4305	0
308.7977	1
309.1423	4
309.7702	1
309.9009	1
310.1283	5
310.4886	1
310.8722	1
311.1223	9
311.5392	0
312.1087	4
312.3278	1
312.6465	1
312.8218	1
313.0508	4
313.2282	3
313.3957	1
314.0262	3
314.2468	1
314.3783	0
314.5225	1
314.7841	1
315.0238	4
315.1999	5
315.7069	2
315.8009	1
316.1383	4
316.5676	0
316.8321	1
317.0698	4
317.2898	2
317.6046	1
317.7347	1
317.9314	1
318.1946	3
319.1329	3
319.3572	1
319.5341	1
319.9878	1
320.1208	0
320.2921	1
320.6326	1
320.8025	1
321.1444	5
321.3093	1
321.6088	0
321.7794	1
322.1313	3
322.3019	1
323.1290	5
323.5596	0
323.7926	0
324.1425	4
324.3820	0
324.8842	1
325.1499	4
325.3964	0
325.6352	1
326.1680	2
326.4989	0
326.9815	3
327.1948	4
327.3416	1
327.4769	1
327.5754	1
328.1644	4
328.6323	1
328.7500	1
328.8691	1
329.1505	6
329.2668	3
329.3987	1
329.8801	0
330.1120	2
330.2198	1
330.3041	0
331.1537	3
332.1318	2
332.4106	1
332.7632	1
333.2080	4
333.3981	1
334.0651	3
334.2312	3
334.5213	1
335.0399	3
335.1603	6
335.2737	2
335.5890	1
335.6953	1
335.8717	1
336.1658	2
336.3571	1
336.4861	0
336.7533	1
337.2196	5
337.3472	3
337.5556	2
337.8122	0
338.1652	3
338.3785	1
338.7238	1
339.1421	4
339.3257	0
339.4951	0
339.6660	0
340.0865	1
340.2701	1
340.8297	1
340.9885	2
341.2339	2
341.6240	1
341.9382	0
342.1510	2
342.7050	0
342.9313	1
343.1151	3
343.2257	2
343.3272	2
343.4209	0
343.8380	1
344.1275	2
344.3184	1
344.8244	1
344.9883	0
345.2509	3
345.4893	0
345.6540	1
346.1884	2
346.7698	0
347.1908	3
347.7119	2
347.8943	1
348.2053	7
348.3275	2
348.6569	1
348.9552	1
349.2030	6
349.3564	4
349.8258	1
350.1419	4
350.5013	1
351.1043	5
351.2833	6
351.5021	1
351.7529	1
351.9973	2
352.2218	4
352.3532	1
352.4577	0
352.7064	1
352.8819	0
353.1988	2
353.3380	1
353.7964	0
354.1560	0
354.3116	0
354.6961	1
355.0018	1
355.2505	3
355.4446	1
355.5875	1
355.9578	2
356.1697	1
356.3339	1
356.4348	1
356.5401	0
356.8045	0
356.9724	1
357.2866	2
357.6762	1
358.1392	1
359.2422	6
359.5879	0
360.1163	2
360.3397	2
360.9707	1
361.2218	5
361.5754	1
361.7156	1
361.9044	1
362.2203	8
362.4162	1
362.7342	0
363.2205	11
363.6769	1
364.0085	2
364.2456	4
364.3926	2
364.6013	1
364.7071	0
365.2461	5
365.3696	1
365.9100	1
366.0840	1
366.3227	2
366.7737	0
367.1245	1
367.2474	1
367.5067	1
367.7787	1
367.9315	1
368.1573	1
368.4351	1
368.6731	1
368.9779	1
369.0959	1
369.2543	2
369.3950	1
369.6721	1
369.9087	0
370.0671	0
370.1957	1
370.2775	1
371.1437	1
371.4294	0
371.9348	1
372.1721	2
372.3015	1
373.2192	3
373.3671	3
373.7410	1
373.8704	0
374.2230	4
374.4754	1
374.6432	1
375.1673	5
375.4432	1
375.6295	1
375.9630	2
376.1919	4
376.3682	3
376.7634	1
376.9944	2
377.2113	6
377.3890	2
377.5532	0
377.7011	0
378.1248	4
378.3076	4
378.4526	2
378.6147	0
379.1964	7
379.4310	2
379.5412	1
379.9594	1
380.2773	1
380.3583	1
381.0617	1
381.2339	1
381.3633	1
381.5411	0
383.1979	1
384.0759	1
384.2844	1
384.6451	1
384.8045	1
384.9433	0
385.4194	1
386.2179	1
386.4983	1
386.8470	1
387.0485	2
387.2841	2
387.7589	2
388.1333	5
388.2935	1
388.4458	1
388.6068	1
389.2005	5
389.3372	2
390.1567	3
390.9408	0
391.1352	2
391.3189	3
391.5710	1
392.1422	1
392.6999	0
393.0881	2
393.2975	1
393.9707	1
394.1018	0
394.3112	1
394.5641	1
394.9774	1
395.2395	2
395.4476	0
395.7832	0
395.9991	1
396.3226	1
396.6832	1
397.0616	1
397.2112	1
397.6395	0
397.9795	0
398.3565	1
398.6124	1
398.7250	1
398.8640	1
399.1313	3
399.2775	2
400.1899	1
400.4088	1
401.2508	2
401.4262	1
401.6280	0
401.8918	0
402.2105	3
402.4280	2
402.8174	1
403.0448	1
403.1632	3
403.2752	2
403.3607	1
403.6681	0
403.9734	0
404.1567	1
404.3571	2
404.4805	1
404.8235	1
405.1973	3
405.4156	1
405.7922	1
406.6205	0
407.1056	1
407.3910	2
407.5551	1
408.1751	1
408.7858	0
409.0138	1
409.2668	1
409.6024	1
409.6772	0
409.8155	1
410.1953	2
410.3835	1
411.0327	0
411.2793	4
411.5067	1
412.2444	1
412.7733	1
412.8817	2
413.1098	1
413.3928	1
414.0886	1
414.2889	5
414.8907	1
414.9926	0
415.2251	2
415.4183	1
416.0180	1
416.2583	4
416.5528	1
416.9058	1
417.1461	5
417.3365	2
417.4863	1
417.7210	1
418.2117	2
418.3821	1
418.9249	1
419.0583	1
419.3244	1
419.4093	1
419.8651	1
420.0342	0
420.1761	0
420.4123	0
420.6991	1
421.0372	1
421.2006	2
422.1381	1
422.2623	0
422.4842	1
423.4897	1
423.6445	1
424.0805	2
424.2790	3
424.4188	2
424.4930	1
425.0119	1
425.1837	1
425.3767	1
425.4886	0
425.7229	1
425.8661	0
426.0477	2
426.3169	1
427.1909	6
427.5492	1
428.2559	7
429.1927	13
429.3694	3
429.9630	0
430.2715	5
430.4903	2
430.6021	1
430.6933	0
430.9534	1
431.2891	2
431.6318	1
431.8912	0
432.0708	0
432.2219	1
432.3737	1
433.2140	2
433.6659	2
433.7807	1
434.1114	1
434.2540	1
434.3937	1
434.6125	0
434.9233	0
435.2006	1
435.4451	1
435.5428	1
435.6804	0
436.0832	1
436.2593	1
436.7306	1
437.0407	1
437.2411	3
437.3694	1
437.5092	1
437.6846	1
437.8785	1
438.2622	1
438.6109	0
438.9410	2
439.2320	2
439.8510	0
439.9994	1
440.1498	1
440.3667	2
440.7097	1
440.8895	1
441.1334	1
441.3203	1
441.5129	1
441.6334	1
441.7761	1
442.2497	4
442.4174	2
442.6278	1
442.8090	1
443.1486	3
443.3783	2
443.5031	0
443.7935	1
443.9804	1
444.0739	1
444.2893	3
444.4749	1
444.8851	1
445.2262	2
445.3318	1
445.5437	0
445.8241	0
446.0246	1
446.1866	3
446.3650	1
446.7675	1
447.0629	1
447.3156	2
447.4248	1
447.5782	1
447.7973	1
448.2784	2
448.3604	1
448.5296	1
448.7080	0
449.0135	2
449.2747	2
449.4239	1
449.6737	0
449.8451	1
450.0071	1
450.2626	3
450.4768	1
450.7888	1
451.1878	2
451.3506	1
451.4477	2
451.5176	1
451.7133	1
451.9189	2
452.1202	3
452.2223	1
452.3801	1
452.5493	2
452.8285	1
452.9234	1
453.0634	1
453.3390	4
453.5446	1
453.6874	1
454.0730	6
454.6136	9
455.2320	11
455.4370	6
455.5934	5
455.8741	3
456.1069	6
456.2312	3
456.3840	5
456.4868	1
456.6090	2
456.7140	1
456.9475	1
457.5904	1
457.7504	1
458.0061	1
458.1396	1
458.3297	2
458.4718	1
458.5968	1
458.7476	0
458.9662	0
459.2047	2
459.3476	2
459.5905	2
459.7477	1
459.8577	1
460.2299	3
460.5309	3
460.8725	3
461.0650	2
461.2911	2
461.6398	1
461.7268	0
461.8852	1
462.1890	1
462.3387	2
462.4443	1
462.7146	1
462.9449	1
463.0505	1
463.3458	1
463.5726	2
463.9599	1
464.0912	1
464.6076	1
464.9386	1
465.0363	0
465.2888	2
465.5578	1
465.6769	1
466.0307	2
466.1513	1
466.3018	2
466.5280	1
466.6735	1
466.8647	2
467.1936	2
467.4690	3
467.6053	3
468.2496	9
468.5778	4
468.8069	3
468.9289	4
469.1408	3
469.3955	4
469.6881	2
469.8794	3
470.2319	5
470.4638	4
470.6051	3
470.7750	2
471.1739	4
471.3038	2
471.5815	1
471.7063	2
472.0204	0
472.2438	3
472.3851	3
472.5200	1
472.7727	1
472.9625	1
473.2666	2
473.4058	1
473.5900	1
473.7755	0
474.1189	0
474.6429	1
474.7564	1
474.8542	1
475.3282	6
475.5474	2
475.8879	2
476.1835	7
476.3556	5
476.5976	1
476.7275	1
477.2266	1
477.3816	1
477.9207	1
478.1663	1
479.2374	2
479.3310	1
479.8023	1
480.0858	1
480.4958	1
480.6786	0
481.0536	2
481.2457	1
481.4371	2
481.5864	1
481.8842	1
482.0714	2
482.2892	4
482.5028	2
482.7535	1
482.9771	1
483.1506	1
483.3428	2
483.4935	1
483.8764	1
484.0693	1
484.3107	1
484.5515	3
484.8123	1
485.3224	2
485.6146	1
485.8117	1
486.1118	2
486.2440	1
486.4583	0
486.5641	0
486.7934	1
487.2457	3
487.4715	2
487.6723	2
487.8595	1
487.9374	0
488.1959	3
488.4208	3
488.5785	1
488.8326	1
488.9661	2
489.0725	1
489.2581	2
490.3018	123
490.9058	3
491.1656	2
491.3948	1
491.5655	3
491.6819	1
492.0167	1
492.2259	1
492.5365	1
492.7193	1
492.8814	1
493.0913	2
493.2170	0
493.3698	0
493.5591	1
493.8104	1
493.9325	1
494.0646	1
494.3638	1
494.5852	1
494.7616	0
495.1501	1
495.3536	1
495.6307	1
495.8564	0
496.0778	1
496.2614	2
496.4692	1
497.0113	1
497.1455	0
497.3013	2
497.4741	1
497.6555	1
498.5463	1
498.6548	1
499.3392	0
499.5078	1
499.6756	1
500.0378	1
500.2757	1
500.9265	1
501.0894	1
501.3102	2
502.0540	2
502.3262	5
502.4069	3
502.5119	3
502.7177	1
503.0507	2
503.3408	7
503.5230	4
504.1754	1
504.2869	1
504.4369	1
504.9457	1
505.1658	1
505.2666	0
505.5453	1
505.8469	1
506.0077	0
506.2307	2
506.3322	1
506.4736	1
506.9096	2
507.5650	2
507.8959	1
508.1947	1
508.4377	1
508.7508	1
509.0825	1
509.3012	0
509.5621	3
509.6543	1
510.3263	2
510.4228	1
510.5457	1
510.8760	1
511.0555	1
511.2170	1
511.7711	1
512.0485	2
512.2773	1
512.6354	1
512.8528	1
512.9679	1
513.1517	1
513.4420	1
513.6229	1
514.1305	2
514.4630	1
515.0355	0
515.2773	1
515.4450	1
515.7269	0
516.1827	0
516.3426	0
516.5823	1
516.7621	1
517.2095	1
517.4443	1
517.5513	1
517.7026	1
518.3840	1
518.5332	1
518.6473	2
518.8029	1
518.9999	0
519.4438	1
519.7228	0
520.1681	1
520.2745	0
520.6206	0
520.8796	2
521.0709	1
521.2351	1
521.3664	0
521.5834	1
521.7175	1
522.1144	1
522.2307	2
522.3978	1
522.6669	1
523.0801	1
523.3678	2
523.5562	1
523.7333	0
523.9988	1
524.2786	2
524.4071	2
524.5627	1
524.6691	1
525.0895	1
525.4815	2
525.6843	1
525.9213	1
526.2061	2
526.4210	2
526.6766	1
527.0143	1
527.0935	1
527.2920	1
527.4427	1
527.6576	0
527.7697	0
527.9796	1
528.7521	0
529.2948	1
530.3352	2
531.0493	1
531.3200	1
531.4893	0
531.9641	1
533.0026	1
533.1861	1
533.3711	1
533.5604	0
534.1282	2
534.2496	1
534.3710	1
534.5796	1
534.8667	1
535.2881	1
535.4496	1
535.5839	2
535.6639	1
535.8560	2
535.9418	1
536.3032	4
536.5425	2
536.7232	3
536.8147	2
537.2961	14
537.5569	4
537.7669	2
537.8784	1
537.9877	2
538.1427	2
538.4942	3
538.7443	3
539.0572	1
539.2915	1
539.4487	1
539.5716	3
539.7252	1
539.8581	1
539.9738	1
540.1896	2
540.2739	1
540.4690	3
540.9277	2
541.0535	1
541.2742	2
541.5343	2
541.6929	2
541.8887	2
542.0881	1
542.3332	2
542.5304	1
542.6555	2
542.7998	1
542.9913	2
543.2536	3
543.4215	1
543.6523	1
543.7631	1
543.8639	1
544.0254	1
544.2355	1
544.3234	1
544.5027	1
544.6478	1
544.8208	2
545.0409	3
545.1831	1
545.3790	0
545.5598	1
545.6498	0
545.8521	2
545.9557	1
546.4139	4
546.5082	2
546.9349	2
547.5803	2
547.8248	0
547.9399	3
548.1679	0
548.4066	1
548.5518	0
548.7769	2
548.9506	4
549.0571	3
549.4146	9
549.6483	3
549.8163	1
549.9457	1
550.1859	2
550.3052	1
550.5862	2
550.8557	0
551.1738	2
551.3376	3
551.5764	2
551.8895	3
552.4379	7
552.7181	3
552.9798	3
553.2686	4
553.4853	4
553.7698	4
554.3455	5
554.7394	5
554.8353	2
555.0626	2
555.4137	5
555.9014	7
556.2061	6
556.4620	4
556.6966	6
556.9390	5
557.1400	4
557.4203	6
558.0640	9
558.4587	7
558.6830	4
558.9855	9
559.4540	9
560.0018	9
560.7109	12
561.2052	9
561.5361	12
562.2145	10
562.7767	13
563.3438	21
563.6484	18
564.4610	140
564.9212	15
565.3964	16
566.3588	18
567.4063	83
568.0677	10
568.4295	10
568.8227	9
569.0660	7
569.4157	5
569.8924	10
570.1864	9
570.4212	9
570.7523	6
571.1784	7
571.4417	8
571.6687	8
571.9799	7
572.5844	10
573.2025	10
573.6878	9
574.1360	12
574.9918	13
575.7970	13
576.2396	17
582.3187	999
583.2666	310
583.9310	158
584.6411	87
585.3884	47
585.9765	30
586.6838	17
587.1913	17
587.7652	11
588.2699	8
588.6118	7
589.0515	5
589.4941	4
589.7383	6
590.0317	2
590.1680	3
590.3251	2
590.5607	3
590.7656	2
590.9354	2
591.2510	3
591.4138	1
591.7571	1
592.0170	1
592.1920	1
592.5018	2
