Mass spectrum: beta-Carotenone; FAB-EBEB; MS2; m/z: 600.42; [M]+*
Name: beta-Carotenone
Formula: C40H56O4
Exact mass: 600.41786
SMILES: C(C)(C)(C(C=CC(C)=CC=CC(C)=CC=CC=C(C)C=CC=C(C)C=CC(C(C)(C)CCCC(C)=O)=O)=O)CCCC(C)=O
InChI: InChI=1S/C40H56O4/c1-31(19-13-21-33(3)25-27-37(43)39(7,8)29-15-23-35(5)41)17-11-12-18-32(2)20-14-22-34(4)26-28-38(44)40(9,10)30-16-24-36(6)42/h11-14,17-22,25-28H,15-16,23-24,29-30H2,1-10H3/b12-11+,19-13+,20-14+,27-25+,28-26+,31-17+,32-18+,33-21+,34-22+
Instrument: JMS-HX/HX 110A, JEOL
Instrument type: FAB-EBEB
Ms type: MS2
Ion mode: POSITIVE
Collision energy: 3 kV
Ionization: FAB
Base peak: 68.9834
Precursor m/z: 600.42
Precursor type: [M]+*
m/z	relative intensity
0.6035	0
0.6763	0
1.7782	1
2.4922	0
9.5508	0
13.9737	0
14.9906	5
15.7311	4
22.9445	23
24.9040	1
25.2901	0
25.9608	5
26.9649	29
27.9572	8
28.9750	29
29.9328	1
29.9910	0
30.9576	2
34.6744	4
36.0823	0
36.9581	6
37.9476	13
38.9537	57
39.5199	0
39.8650	1
39.9670	11
40.9715	174
41.9650	16
42.9507	758
43.4387	2
43.9730	2
44.9602	13
46.7042	0
47.4999	3
47.8611	0
48.9905	2
49.9484	24
50.9431	42
51.9633	16
52.6694	4
52.9568	75
53.2312	2
53.9784	9
54.9683	152
55.9134	6
55.9977	13
56.9762	31
57.6958	1
57.9617	7
58.4510	0
58.6582	0
58.9751	19
59.9590	5
60.0172	2
60.9574	2
61.9477	5
62.0237	3
62.9606	46
63.1628	4
63.9650	15
64.9656	49
65.3651	2
65.9727	22
66.9667	94
67.9794	8
68.6730	2
68.9834	999
69.9756	18
70.1904	3
70.4615	3
70.9563	221
71.1737	3
72.8190	3
72.9555	1
73.9371	10
74.0155	3
74.1883	0
74.9483	13
75.0335	5
75.1951	3
75.5373	2
75.9712	6
76.2895	2
76.9501	132
77.4440	3
77.9641	45
78.2369	1
78.6828	4
78.9550	103
79.1579	6
79.9483	22
80.1876	1
80.3362	0
80.9679	130
81.9209	4
82.0168	2
82.9744	57
83.8646	4
83.9985	7
84.9686	70
85.8091	1
85.9697	8
86.8160	9
86.9054	6
87.0367	4
87.9463	9
88.3768	4
88.8341	10
88.9777	34
89.5274	2
89.6296	3
89.9590	25
90.4788	1
90.9538	266
91.1958	2
91.9626	31
92.6580	3
92.9633	130
93.2181	2
93.9459	22
94.5435	2
94.7615	4
94.9746	90
95.8581	1
96.0058	6
96.9741	24
97.1414	2
97.7529	2
97.9661	9
98.8053	3
98.9996	9
99.3114	0
99.8763	3
99.9996	4
100.9320	9
101.0505	4
101.6582	1
101.8404	17
102.0031	20
102.6295	1
102.9619	45
103.9426	28
104.2986	4
104.4236	5
104.9669	276
105.2596	3
105.5690	4
105.9507	30
106.9706	107
107.5291	3
107.9973	31
108.9990	994
109.9642	9
110.9560	38
111.8255	2
111.9998	8
112.6464	2
112.8318	11
112.9994	15
113.1958	4
113.3935	5
113.7111	4
113.9481	11
114.3993	3
114.4845	1
114.5814	2
114.9444	158
115.2525	0
115.4297	0
115.6256	2
115.9469	62
116.2188	4
116.9599	142
117.1768	2
117.3204	6
117.4216	4
117.5188	2
117.6728	2
117.9339	32
118.9609	237
119.8072	7
119.9934	20
120.9401	162
121.5970	0
121.7370	3
121.9439	17
122.4245	3
122.9594	97
123.5097	2
123.6397	3
123.9277	5
124.9246	17
125.1578	6
125.7318	8
125.9731	14
126.1492	4
126.4878	10
126.5817	5
126.9630	217
127.2621	7
127.3346	3
127.9365	161
128.2759	5
128.4819	7
128.6017	5
128.9427	207
129.6107	4
129.9364	74
130.1462	5
130.9491	180
131.3700	5
131.9494	45
132.9567	86
133.1824	3
133.2956	4
133.5010	5
133.9515	17
134.2019	2
134.5953	0
134.9547	94
135.9294	43
136.7486	2
136.9707	31
137.8534	6
138.0044	8
138.9286	44
139.9308	29
140.1306	3
140.2275	4
140.3749	3
140.5323	2
140.9448	142
141.5588	5
141.9472	131
142.3610	5
142.4608	3
142.9500	230
143.2017	5
143.9553	82
144.2819	3
144.9516	246
145.7338	3
145.9622	36
146.3597	2
146.9466	125
147.2033	1
147.4093	5
147.5886	0
147.8234	4
147.9807	21
148.5752	4
148.9577	39
149.5172	1
149.7927	12
149.9516	9
150.0710	7
150.2239	2
150.4064	3
150.9224	26
151.1768	6
151.3051	5
151.4763	3
151.5938	4
151.9539	56
152.1245	8
152.2979	3
152.4673	0
152.9467	70
153.2608	4
153.5205	6
153.9169	45
154.1430	4
154.3558	1
154.9627	145
155.2012	7
155.3353	0
155.9623	81
156.9743	218
157.2794	1
157.4698	2
157.7548	5
157.9744	55
158.3751	1
158.9625	509
159.4339	2
159.5103	1
159.7992	8
159.9995	33
160.4449	1
160.9914	72
161.2061	5
161.4161	4
161.9881	16
162.9769	33
163.3006	2
163.6570	3
163.8090	7
164.0093	13
164.2932	4
164.5873	2
164.9780	139
165.3328	4
165.6347	3
165.9726	50
166.4025	5
166.4849	5
166.6393	4
166.9939	87
167.2989	4
167.7129	5
168.0255	55
168.2272	6
168.4527	1
168.6395	4
169.0048	143
169.2796	10
169.3853	3
170.0197	50
170.4641	2
170.5920	3
171.0140	74
171.2890	4
171.5075	4
171.6376	5
172.0006	36
172.3126	3
172.5293	3
172.6431	5
173.0050	94
173.3609	2
173.4973	3
173.6869	1
173.9358	3
174.0470	6
174.1214	4
174.6106	3
174.7799	7
175.0270	31
175.8533	8
176.0145	20
176.2140	1
176.6698	5
176.7792	4
177.0034	19
177.1620	6
177.5593	3
177.6954	5
177.9807	59
178.1921	7
178.3378	3
178.5972	2
178.9874	78
179.2208	5
179.6214	5
180.0215	41
180.1708	8
180.2839	1
180.4243	0
180.9898	94
181.2428	5
181.9992	38
182.3896	5
182.9846	119
183.3334	6
183.9954	35
184.6591	4
184.9800	75
185.2151	2
185.9956	18
186.6181	4
186.9739	36
187.9473	13
188.0940	3
188.7318	3
188.9971	40
189.1859	4
189.5685	3
189.7884	2
190.0159	20
190.2517	3
190.6690	3
190.9918	35
191.2913	1
191.9877	42
192.2714	5
192.4986	7
192.9752	85
193.3572	2
193.6142	5
193.9846	43
194.4450	6
195.0016	121
195.4913	3
195.7486	3
195.8732	18
196.0303	43
196.2129	2
196.4012	4
196.4829	3
196.6462	2
197.0097	101
197.3649	3
197.8324	5
198.0492	18
198.9701	45
199.9976	10
200.5261	5
200.7558	8
200.9653	25
201.9794	38
202.1036	15
202.3675	2
202.6335	3
202.9946	25
203.2885	5
203.7985	8
204.0237	22
204.2628	5
204.6910	5
204.9872	42
205.1854	4
205.9805	28
206.6645	5
207.0097	67
207.2422	2
207.5013	2
207.9859	39
208.4923	4
209.0107	129
209.3368	4
209.6511	5
210.0206	33
210.5896	5
210.7158	8
211.0031	66
211.4077	5
211.5870	0
211.7670	1
212.0071	16
212.1676	6
212.4775	4
213.0074	26
213.8090	5
213.9997	9
214.2051	2
214.5265	5
214.8199	11
215.0415	35
215.3413	4
215.5405	6
215.9523	9
216.3746	4
216.5627	2
216.7495	5
217.0342	33
217.3469	2
217.7555	3
218.0088	22
218.3637	0
218.8117	2
219.0315	47
219.3620	2
219.4965	0
219.7934	5
220.0400	35
220.2277	3
220.3279	2
220.6733	4
221.0440	204
221.6320	4
221.8087	11
222.0436	45
222.5386	4
222.7658	11
223.0359	78
223.3038	4
223.4848	5
223.7402	1
223.9556	6
224.0988	8
224.3233	4
224.4637	5
224.7894	5
225.0835	44
226.0160	32
226.5906	4
226.8323	4
227.0768	30
227.2714	5
227.4387	4
227.5968	4
227.8836	5
228.0431	24
228.7328	4
229.0598	22
229.3573	3
229.5739	3
229.7645	4
229.9896	10
230.1556	15
230.8079	6
231.0289	39
231.1493	24
231.7962	3
232.0841	13
232.3975	4
232.6854	1
233.0710	25
233.2465	7
233.8099	3
234.0108	27
234.1338	16
234.5807	2
235.0607	59
235.6687	4
236.0238	30
236.1356	12
236.5350	12
237.0287	52
237.7167	5
237.9616	13
238.1058	25
238.3838	1
238.6879	5
239.0891	32
239.2580	9
240.0769	13
240.5776	5
240.9179	6
241.1222	17
241.7386	4
241.8274	5
242.0875	16
242.2947	6
243.0757	17
243.3133	5
243.4466	5
243.6842	3
243.9113	10
244.1193	11
244.4035	5
244.6356	5
244.7943	3
245.0744	42
245.5556	3
245.8047	3
246.0256	17
246.1717	10
246.7590	7
247.0682	40
247.3400	7
247.7460	3
248.1034	14
249.0648	38
249.8145	3
250.0703	17
250.2258	4
250.7050	2
250.8754	11
251.0755	22
251.4353	4
251.7953	5
252.0435	12
252.2189	4
252.3879	4
252.7310	2
253.1130	22
253.8022	2
253.9621	8
254.1334	8
254.4122	8
254.6798	4
255.0776	6
256.0052	14
256.2084	5
256.4167	4
256.7064	3
256.8700	6
257.0988	21
257.6542	4
257.8562	5
258.0737	14
259.0567	30
260.0165	9
260.1711	7
260.7497	3
261.0383	20
261.2227	17
262.1285	8
263.0744	28
263.9424	5
264.1738	11
264.6793	4
264.7836	3
265.0740	27
265.3282	4
265.8950	3
266.1067	5
266.2018	5
266.9890	13
267.1645	3
267.2859	2
267.9923	5
268.2105	6
269.1488	14
270.1500	5
270.6215	5
270.8335	6
271.0454	17
271.1977	15
271.3293	5
271.5733	2
272.0080	15
272.2613	4
273.1061	61
273.3481	9
273.9311	4
274.1297	12
274.5377	3
274.6630	2
275.1316	36
275.6658	4
276.0020	13
276.1950	9
276.9645	5
277.1882	8
277.9693	5
278.1549	8
278.5532	2
278.9565	5
279.1613	9
279.3513	3
280.0207	7
280.1701	6
280.7437	3
281.0376	8
281.2354	5
281.6255	5
282.2705	9
282.9782	8
283.1676	8
283.3763	1
283.9360	11
284.1903	9
284.7417	1
285.0872	20
285.6893	9
285.8090	4
286.0320	9
286.2309	6
287.0676	27
287.8611	5
288.1712	19
288.6062	4
289.0690	31
289.2195	18
289.3286	5
289.7288	4
289.8885	5
290.0419	7
290.1853	2
291.0436	11
291.2641	4
292.1262	10
292.2247	5
292.3795	8
292.6237	3
293.0470	26
293.2305	5
293.3254	3
293.7260	4
294.1027	16
294.9902	5
295.1008	3
296.9462	9
297.1332	15
298.1092	17
298.2305	5
299.0596	14
299.2660	10
299.5681	6
299.9052	4
300.1488	11
300.3917	5
300.6803	3
301.0289	27
301.3147	4
302.0536	6
302.1965	2
302.7083	4
302.7947	2
303.1049	24
303.4124	4
303.9471	5
304.0722	6
304.8337	5
305.0518	10
305.2549	9
305.8714	4
306.0695	3
307.0589	6
307.2370	5
308.0878	11
308.9681	8
309.1284	5
310.1499	7
310.9318	9
311.1151	18
311.3907	0
312.0331	16
312.1291	5
312.2430	7
312.3419	5
312.8390	10
313.1112	13
314.0776	5
314.1751	5
314.2869	5
314.8558	6
315.0630	6
315.2278	5
315.4026	5
316.0262	10
316.1890	9
317.0922	19
317.2399	7
317.9734	4
318.1004	12
318.2158	8
318.6512	3
319.0198	11
319.1647	9
319.9085	5
320.1460	5
320.9474	6
321.1038	5
321.5903	3
321.7051	0
321.8716	1
322.0999	7
322.2936	4
323.0135	14
323.1829	9
323.4729	5
324.0623	6
324.8163	2
325.0547	16
325.1537	6
325.8920	6
326.0471	4
326.1908	2
326.9860	7
327.1461	5
327.3193	4
327.6519	5
328.1541	3
328.5608	4
328.9949	9
329.1335	13
329.8717	5
330.1254	6
331.0793	10
332.0858	8
332.2592	4
332.9840	4
333.7931	0
333.9960	2
335.0735	13
335.3088	6
335.4333	5
335.9319	4
336.1471	6
336.4306	0
337.0898	7
337.3064	5
338.2090	5
338.3167	4
338.6394	3
339.1366	4
339.5786	0
340.9370	5
341.1929	8
341.3237	5
341.9837	9
342.1512	17
342.3252	5
343.1097	7
344.1288	9
344.2956	3
345.0199	10
345.1429	5
345.2767	4
345.9558	5
346.1573	14
347.0488	6
347.2611	7
347.3575	2
348.0728	5
348.6961	3
348.9955	7
349.1539	16
350.0350	5
350.2388	6
350.5901	3
350.8824	4
351.0689	9
351.1949	10
351.4794	0
351.8336	5
352.0259	3
352.1498	10
352.2549	5
352.5805	3
353.0465	15
353.2395	14
353.4995	4
353.6177	5
353.9678	5
354.1111	9
354.1897	4
354.6774	5
354.8323	4
354.9764	5
355.1601	2
355.3467	4
356.7707	5
356.8896	5
356.9999	6
357.3386	1
357.9772	8
358.2454	5
359.0651	9
359.1732	11
359.2900	2
359.4940	4
359.8704	4
360.0168	6
360.2439	2
360.4048	2
361.0429	4
361.2088	5
361.2896	2
361.8925	5
362.0353	4
362.1774	4
362.6254	5
363.0178	6
363.2357	8
363.3468	9
363.9578	3
364.0632	6
365.1390	9
365.3180	4
365.4248	1
365.9997	2
366.1907	6
367.0476	6
367.2401	6
367.8873	5
368.0848	4
368.2744	4
368.9081	5
369.1943	6
370.0992	2
370.5679	3
370.7561	0
371.0936	9
371.2602	5
373.1845	8
375.1152	5
375.2603	8
375.6802	6
375.8880	6
376.0576	4
376.2842	2
376.8039	5
377.1373	17
377.3048	11
377.8808	2
378.2460	9
378.6857	2
379.1773	12
379.3650	8
379.5585	5
379.8026	2
380.1138	6
380.2654	5
380.3658	4
380.4545	2
380.6586	2
381.0812	5
381.5860	2
382.1024	4
382.6225	2
384.9665	6
385.1829	4
386.1499	7
386.4112	3
387.3242	6
388.2517	6
389.1201	7
389.2833	5
390.2262	11
390.3504	6
390.8501	4
391.1302	13
391.2552	5
391.9051	4
392.1290	17
392.3789	8
392.9639	2
393.1828	2
394.0547	0
395.0148	5
395.0870	2
395.4237	1
395.7951	4
396.3449	0
398.9590	2
399.1888	5
399.6731	1
400.1343	8
400.3389	8
401.3771	4
402.1219	4
402.7720	4
402.9441	8
403.1726	4
404.0549	5
404.2343	4
404.3833	4
405.2758	3
406.8891	3
407.0707	4
407.2407	6
407.8217	6
408.0511	3
408.4556	0
409.1698	6
409.6778	5
410.2452	10
410.5268	1
412.3386	5
412.9735	4
413.1102	8
414.2092	5
415.1956	5
415.3401	0
415.9161	3
416.0397	3
416.1590	11
416.3281	13
416.5052	3
416.9005	5
417.0971	16
417.2569	10
417.7535	5
418.1619	9
418.3224	5
418.6470	2
419.0208	5
419.1762	7
419.3606	4
420.1024	5
421.1025	4
422.1894	5
422.3904	1
423.2099	6
424.6060	4
425.1934	8
425.3663	6
425.8532	3
426.1571	5
427.1317	9
428.0630	10
428.8800	6
429.1333	11
429.3027	6
429.5828	1
429.9867	13
430.2724	23
430.7894	4
430.9405	8
431.2109	21
431.3678	4
431.5472	2
432.1322	11
432.3036	7
432.7780	3
432.9139	5
433.1924	9
433.7204	0
435.0947	6
435.2531	4
435.9671	4
437.2997	2
437.9893	0
438.3641	3
439.2961	6
440.1334	5
440.9563	3
441.1278	4
441.3131	5
442.0304	9
442.4148	4
442.6515	5
442.8708	5
443.0113	5
443.1206	6
443.2364	5
443.3718	4
443.8148	5
444.2159	24
445.2281	109
445.4598	23
445.7719	5
446.1608	33
446.4823	5
446.7842	5
447.1391	55
448.1566	12
448.3232	6
448.4326	3
449.6378	5
450.0500	6
450.2477	4
453.6486	3
454.0840	5
454.3652	13
454.9602	4
455.1124	5
455.2435	3
455.4399	8
455.9944	4
456.3140	11
456.4060	3
457.0685	5
457.2787	11
457.4672	5
457.9579	9
458.2080	8
458.3203	9
458.4617	3
458.9351	4
459.1287	10
459.2679	6
459.3846	4
459.5078	4
460.3401	4
460.5025	2
461.0942	9
461.3719	9
461.6685	5
461.8831	4
462.1768	5
462.9142	4
463.0499	6
463.2507	6
463.5481	5
464.2124	9
464.3546	5
464.5061	4
465.1495	3
465.4730	4
467.1967	6
467.3031	4
467.9084	3
468.0365	3
469.2356	4
469.7932	2
470.3529	4
470.6252	5
471.0308	4
471.1706	6
471.4240	5
471.8941	3
472.1186	18
472.2070	9
472.6075	3
472.7183	3
473.2087	80
473.4970	28
473.6086	5
474.1352	6
474.3271	14
474.4293	8
474.5676	5
474.9545	3
475.2754	4
475.4761	5
475.9760	2
476.3361	5
476.5947	1
476.9048	8
477.1918	9
477.2954	5
478.1946	4
478.5975	5
478.7062	5
479.1671	5
479.5157	4
480.3361	0
481.0275	5
481.2391	4
481.5030	5
482.1952	7
483.3158	4
483.5319	5
484.2713	5
484.7056	5
484.9926	5
485.0949	7
485.3951	6
486.0121	5
486.2528	9
486.4225	4
486.6233	6
486.8488	7
487.3586	26
487.5848	13
488.1497	6
488.3709	3
488.5725	4
488.7081	2
489.3956	3
490.1470	12
490.3602	6
491.2683	3
492.0851	4
492.2396	6
492.8068	3
493.3059	3
493.6737	3
494.6202	3
495.0476	9
495.3373	5
495.7995	3
496.2320	8
496.5515	3
497.2709	2
497.5563	4
498.0823	4
499.3619	4
499.7467	3
500.0177	5
500.2518	12
500.3945	6
501.1801	5
501.3743	6
501.5960	3
501.8164	2
502.1150	7
503.3152	4
504.3408	4
504.9598	3
505.2222	5
505.3788	1
506.2161	9
506.4720	1
506.8548	2
507.0955	4
507.2195	5
507.3956	3
507.6189	5
507.9916	3
508.3200	29
508.5361	12
509.5766	2
510.1676	5
510.3329	1
510.6259	5
511.0080	0
512.2510	7
513.1227	5
514.0374	5
514.2194	7
514.3434	6
514.4661	5
514.5683	3
514.8041	2
514.9121	2
515.1950	16
515.4445	11
515.5316	6
515.8203	2
516.2382	8
517.2167	5
517.9408	5
518.1113	2
518.3921	4
520.1733	8
520.4229	17
520.5637	5
520.6609	5
521.0286	8
521.1829	8
521.4109	5
521.5934	6
522.0828	3
522.2153	3
523.6636	2
523.8453	4
524.4457	4
525.3010	5
526.2346	14
526.5170	5
526.6205	1
527.1732	4
527.2558	3
528.0771	6
528.3140	9
528.5060	5
528.8682	4
529.2543	8
529.4716	9
530.2612	5
530.5496	8
531.1240	4
531.4327	6
531.5414	7
534.1077	4
534.7852	5
535.0584	4
535.3091	4
535.7128	4
536.0723	3
536.8049	5
537.1528	5
537.2637	3
538.0747	1
538.3465	4
539.2604	4
539.5142	5
539.9128	4
540.0657	5
540.1992	3
540.3347	5
540.4449	6
541.2480	2
541.4866	8
542.2093	7
543.0408	5
543.3069	5
544.1407	5
544.3734	8
545.9041	5
546.4333	2
548.2260	5
549.9941	2
550.3139	6
551.0552	6
551.1625	2
551.4127	4
551.7123	0
552.2672	7
552.7612	3
553.1224	7
553.2885	9
553.5315	4
553.9602	9
554.1670	4
554.2794	8
554.8845	2
555.1398	9
555.2269	5
555.4271	6
555.7281	4
555.9952	8
556.3499	15
556.4703	6
556.6075	11
556.8324	13
557.0094	25
557.2503	50
557.5108	42
557.7161	9
558.0557	4
558.2988	13
558.4845	11
558.6957	1
559.3516	6
559.5519	6
559.8312	5
560.0881	3
562.0780	4
563.4497	4
563.8873	4
564.0100	1
564.1704	5
564.2909	5
565.2867	6
565.9559	4
566.4390	3
566.5512	5
566.7504	5
567.1408	5
567.3313	5
567.4740	4
567.9122	5
568.0158	5
568.2157	9
568.4120	9
568.5054	5
569.1023	3
569.2646	9
569.3936	9
569.5464	4
569.7709	6
569.8709	3
570.0042	4
570.2498	13
570.3664	9
570.5149	5
570.7352	1
570.9199	4
571.1415	10
571.3538	29
571.5719	13
571.8711	3
572.0066	4
572.1906	13
572.3442	11
572.5970	7
572.7521	8
572.8441	2
572.9825	4
573.1027	3
573.2419	5
573.4194	4
573.6853	4
574.1026	3
574.3823	5
574.6214	8
575.1823	5
575.3503	3
575.5692	5
575.7061	5
575.8749	6
576.1938	1
576.4945	2
576.6496	5
576.8641	9
577.0199	11
577.2366	2
577.3786	4
577.7236	11
578.0091	4
578.1229	5
578.2990	12
578.5823	10
578.8418	7
579.1179	11
579.3759	5
579.7035	14
579.8883	7
580.0739	9
580.2616	7
580.3848	6
580.5834	9
581.0386	15
581.1828	8
581.3560	15
581.6155	11
581.8975	14
582.4288	186
582.6861	77
583.4023	45
583.5683	19
583.7147	15
583.9988	15
584.3737	25
584.5977	9
584.9456	17
585.3871	122
585.5306	79
585.7220	11
585.8366	5
586.0613	6
586.2687	17
586.4194	7
586.6188	9
587.0589	6
587.2684	4
587.3736	0
587.5533	7
587.8448	6
588.0964	2
588.3161	2
588.5430	1
589.1332	9
589.3356	3
589.6219	6
589.8272	8
589.9590	5
590.2024	5
590.4204	3
590.5616	6
590.6855	5
590.9440	5
591.1259	3
591.2830	5
591.4924	10
591.7654	14
591.8328	6
592.0689	15
592.2203	10
592.3347	2
592.5477	3
592.6926	10
592.8628	11
593.0613	7
593.1497	3
593.3539	4
593.4814	3
593.7393	19
593.8827	7
594.0804	10
594.2275	5
594.4854	11
594.6404	8
594.9838	24
595.2576	16
595.5496	18
595.7532	29
595.9365	18
596.5240	38
600.3445	999
601.0880	353
601.7720	172
602.3851	122
602.9459	79
603.3105	64
603.6149	50
604.2519	31
604.6548	18
604.9505	18
605.1368	8
605.2317	9
605.4397	16
605.7463	0
605.9333	5
606.1166	4
606.3863	13
606.4653	6
606.6863	6
606.8516	9
607.0582	15
607.1633	12
607.4481	5
607.5967	4
607.9236	2
608.0671	9
608.1853	5
608.3339	3
608.8964	5
609.8119	3
610.2316	5
611.1863	0
