Mass spectrum: Parasiloxanthin; FAB-EBEB; MS2; m/z: 570.44; [M]+*
Name: Parasiloxanthin
Class: Natural Product
Formula: C40H58O2
Exact mass: 570.44368
SMILES: C(=CC=C(C)C=CC(=C(C)2)C(C)(C)CC(C2)O)C(C)=CC=CC=C(C)C=CC=C(CCC(=C(C)1)C(CC(O)C1)(C)C)C
InChI: InChI=1S/C40H58O2/c1-29(17-13-19-31(3)21-23-37-33(5)25-35(41)27-39(37,7)8)15-11-12-16-30(2)18-14-20-32(4)22-24-38-34(6)26-36(42)28-40(38,9)10/h11-21,23,35-36,41-42H,22,24-28H2,1-10H3/b12-11+,17-13+,18-14+,23-21+,29-15+,30-16+,31-19+,32-20+/t35-,36-/m1/s1
Instrument: JMS-HX/HX 110A, JEOL
Instrument type: FAB-EBEB
Ms type: MS2
Ion mode: POSITIVE
Collision energy: 3 kV
Ionization: FAB
Base peak: 570.4825
Precursor m/z: 570.44
Precursor type: [M]+*
m/z	relative intensity	assigned
11.9560	0	
12.9634	0	
13.9602	1	
14.3456	0	
14.9628	3	
17.9150	0	
22.9246	2	
24.9228	0	
25.6881	0	
25.9537	3	
26.9497	27	
27.9504	3	
28.6955	0	
28.9530	28	
29.9440	0	
30.0424	0	
30.9358	4	
31.6651	0	
33.1511	0	
35.9165	0	
36.2185	0	
36.9440	3	
37.5460	0	
37.6476	0	
37.9343	8	
38.2749	0	
38.4228	0	
38.9409	60	
39.1848	0	
39.6033	0	
39.9546	8	
40.4632	0	
40.5887	0	
40.9609	139	
41.1256	0	
41.9488	3	
42.2779	0	
42.6426	0	
42.9600	128	
43.3654	0	
43.9478	2	
44.4244	0	
44.9450	5	
45.1065	0	
45.9729	0	
47.7820	0	
47.9697	0	
48.4267	0	
48.9373	2	
49.0802	0	
49.1698	0	
49.4224	0	
49.9308	16	
50.2665	0	
50.9350	34	
51.0832	0	
51.2458	0	
51.5393	0	
51.6776	0	
51.9428	13	
52.4439	0	
52.6791	0	
52.9516	74	
53.9649	3	
54.1892	0	
54.9595	205	
55.9721	3	
56.2892	0	
56.7483	0	
56.9753	90	
57.7281	0	
57.9486	1	
58.2981	0	
58.9515	19	
59.4355	0	
59.9640	1	
60.2668	0	
60.9172	3	
61.0428	0	
61.9299	9	
62.1251	0	
62.9368	28	
63.1145	1	
63.3735	0	
63.9129	5	
64.1359	0	
64.2888	0	
64.4557	1	
64.5976	0	
64.6563	0	
64.9460	56	
65.3520	0	
65.6526	0	
65.9541	8	
66.2431	0	
66.3477	0	
66.9583	147	
67.2806	0	
67.6931	0	
67.9715	6	
68.2144	0	
68.4497	0	
68.9725	216	
69.2084	0	
69.3062	0	
69.4121	0	
69.7275	0	
69.9624	3	
70.9500	28	
71.1640	0	
71.4155	0	
71.9461	1	
72.3368	0	
72.9399	1	
73.6498	0	
73.9195	6	
74.9221	6	
75.1529	2	
75.4030	0	
75.9074	6	
76.1494	1	
76.3037	1	
76.4475	1	
76.5361	1	
76.9378	141	
77.2904	1	
77.5036	0	
77.6252	0	
77.9463	33	
78.2349	1	
78.9548	168	
79.2848	0	
79.4170	0	
79.5586	0	
79.7321	0	
79.9610	21	
80.2166	0	
80.4941	0	
80.9725	211	
81.1980	1	
81.4285	0	
81.6271	0	
81.9738	8	
82.2841	0	
82.9749	64	
83.1880	0	
83.8400	1	
83.9882	1	
84.4616	0	
84.5468	0	
84.6750	0	
84.9702	66	
85.1838	0	
85.3098	1	
85.9451	4	
86.2694	0	
86.5023	0	
86.9344	5	
87.9550	2	
88.0422	1	
88.1252	0	
88.2527	0	
88.5728	2	
88.9414	14	
89.4243	3	
89.5389	2	
89.9428	6	
90.1724	2	
90.3440	1	
90.4940	1	
90.9617	354	
91.2548	1	
91.3948	1	
91.5408	0	
91.9745	38	
92.1893	1	
92.4899	1	
92.9804	329	
93.2798	1	
93.3930	1	
93.5805	0	
93.9897	22	
94.1926	0	
94.3217	0	
94.5015	1	
94.5844	1	
95.0022	177	
95.2476	0	
95.4650	1	
95.9808	6	
96.9896	51	
97.5003	0	
97.6917	0	
97.9710	4	
98.9950	4	
99.4400	0	
99.7073	0	
99.8176	0	
99.9514	1	
100.4738	0	
100.6287	1	
100.9689	5	
101.3217	1	
101.4787	1	
101.9611	15	
102.2458	1	
102.4508	1	
102.9788	59	
103.2572	2	
103.5786	1	
103.9859	25	
104.1773	1	
104.3084	1	
104.4184	0	
104.9943	456	
105.2757	2	
105.4363	0	
105.9915	44	
106.2708	1	
106.5010	1	
107.0071	276	
107.5961	1	
108.0085	17	
108.3474	1	
109.0210	263	
109.4162	2	
109.5619	1	
109.9945	7	
110.1779	1	
110.3433	0	
110.4849	0	
110.6523	0	
111.0065	49	
111.3196	0	
111.5989	0	
111.9939	2	
112.1704	0	
112.3018	0	
112.9406	4	
113.1514	1	
113.2830	1	
113.3938	1	
113.6116	1	
113.7206	1	
113.9600	4	
114.0967	2	
114.5040	3	
114.9652	138	
115.5101	1	
115.9688	55	
116.2710	1	
116.9707	149	
117.2803	1	
117.4665	2	
117.9824	34	
118.4675	1	
118.9898	446	
119.3308	2	
119.9898	50	
120.4840	1	
120.9982	136	
121.2918	1	
121.4497	1	
121.5784	0	
122.0023	12	
122.2790	0	
122.5304	0	
123.0071	46	
123.2945	0	
123.4720	0	
123.6190	0	
123.9884	3	
124.2128	1	
124.4584	0	
124.5627	0	
124.9767	7	
125.2398	0	
125.3442	0	
125.5178	0	
125.7035	1	
125.9592	5	
126.4324	1	
126.9545	51	
127.1779	4	
127.4745	2	
127.9460	153	
128.3457	3	
128.9548	197	
129.5230	2	
129.9732	91	
130.2869	1	
130.5035	2	
130.9696	242	
131.5593	1	
131.9737	60	
132.3347	1	
132.4510	1	
132.9887	350	
133.4187	2	
133.6419	2	
133.9939	23	
135.0009	378	
135.2745	4	
135.4146	1	
135.9766	8	
136.2078	1	
136.3389	1	
136.5143	1	
136.6904	1	
136.9925	30	
137.3215	1	
137.5074	0	
137.9380	4	
138.2068	2	
138.3421	1	
138.4730	1	
138.9613	19	
139.4819	1	
139.9362	8	
140.1045	4	
140.3954	4	
140.9591	115	
141.2242	1	
141.3378	1	
141.4658	0	
141.9609	116	
142.4236	2	
142.9794	262	
143.2731	2	
143.5643	1	
143.9852	91	
144.2747	2	
144.9901	307	
145.2575	2	
145.5106	1	
146.0005	31	
146.2276	1	
146.5288	1	
147.0179	93	
147.3516	1	
147.6025	1	
148.0172	9	
148.4288	1	
149.0155	43	
149.2702	1	
149.4281	1	
149.6407	1	
149.9844	5	
150.2663	1	
150.4205	1	
150.9938	27	
151.2931	2	
151.9777	46	
152.2455	2	
152.3855	1	
152.9829	85	
153.4135	2	
153.9904	39	
154.2329	2	
155.0033	149	
155.3328	1	
156.0132	101	
156.4397	1	
156.5940	1	
157.0174	227	
157.4529	3	
157.6471	2	
158.0284	45	
158.5604	2	
159.0469	156	
159.4698	2	
160.0290	16	
160.3127	0	
160.4502	1	
160.5646	0	
161.0558	42	
161.3264	2	
161.5719	1	
162.0109	5	
162.2924	0	
162.4342	0	
162.6152	1	
163.0367	15	
163.3131	2	
163.6935	1	
164.0107	7	
164.1480	4	
164.2706	2	
164.4139	1	
165.0007	89	
165.3242	1	
166.0302	35	
166.2612	2	
167.0258	91	
167.5249	1	
168.0281	34	
168.3551	1	
168.4950	1	
169.0522	160	
169.5422	2	
169.6709	1	
170.0510	53	
170.6208	2	
171.0593	112	
171.5440	3	
172.0663	22	
172.2760	2	
172.4604	2	
173.0653	73	
173.3775	1	
173.5815	1	
173.6757	1	
174.0663	9	
174.3319	1	
175.0835	47	
175.4437	2	
175.7664	2	
176.0350	11	
176.2440	1	
176.4129	1	
176.6280	2	
177.0421	21	
177.3726	2	
177.4799	2	
178.0030	43	
178.4001	2	
178.5564	3	
179.0168	88	
180.0259	38	
180.4316	2	
181.0249	96	
181.4127	1	
182.0333	44	
182.3985	2	
182.5727	1	
183.0437	140	
184.0217	30	
184.4776	2	
185.0529	74	
185.4996	1	
186.0517	13	
186.5263	4	
186.6174	1	
187.0605	43	
187.4410	1	
187.6569	2	
187.8108	1	
188.0571	4	
188.2846	1	
188.5290	1	
189.0043	23	
189.4589	1	
189.6116	1	
189.9947	9	
190.3366	2	
190.9903	38	
191.4400	1	
191.5387	0	
192.0183	32	
192.2402	3	
192.5163	1	
193.0130	71	
193.4774	2	
194.0165	37	
194.3016	1	
194.4188	1	
195.0394	121	
195.3417	1	
195.5898	1	
196.0338	34	
196.2433	3	
196.6272	2	
197.0491	110	
197.3585	2	
197.6007	1	
198.0649	22	
198.2991	2	
198.5482	1	
199.0528	61	
199.4650	1	
199.6308	1	
199.7456	1	
200.0133	7	
200.2368	2	
200.3789	1	
200.6106	1	
201.0491	18	
201.3978	2	
201.6012	2	
202.0092	18	
202.3799	1	
203.0168	28	
203.4122	1	
203.6620	1	
204.0099	12	
204.3388	0	
204.5805	1	
205.0062	32	
205.3693	0	
205.4511	0	
205.6051	0	
206.0385	26	
206.3731	1	
206.5613	2	
207.0399	56	
207.3536	1	
208.0247	27	
208.5678	3	
209.0537	78	
209.4803	2	
209.6620	2	
210.0525	25	
210.4274	2	
211.0688	62	
211.3196	2	
211.5218	0	
212.0740	11	
212.3098	1	
212.6045	2	
213.0810	20	
213.4455	0	
213.7417	1	
214.0776	7	
215.0034	24	
215.5304	2	
215.6413	1	
216.0370	12	
216.3103	1	
216.4253	1	
217.0411	31	
217.2973	1	
217.4391	1	
217.7495	1	
218.0448	11	
218.4602	1	
219.0491	32	
219.5640	0	
220.0626	14	
220.3535	1	
220.5813	1	
221.0705	40	
221.4397	1	
221.6126	1	
222.0815	15	
222.3904	1	
222.6019	2	
223.0998	41	
223.4205	2	
223.6191	1	
224.0821	9	
224.2580	2	
224.4133	1	
224.6394	1	
225.1171	29	
225.4257	2	
225.6003	1	
226.0362	6	
226.3980	0	
226.5988	1	
227.0865	9	
227.4821	1	
227.5681	1	
228.0731	8	
228.4427	1	
229.0611	17	
229.3374	1	
229.5044	0	
230.0756	7	
230.4489	2	
231.0863	18	
231.5272	0	
231.7164	1	
232.1057	12	
232.4965	1	
233.0787	23	
233.5743	1	
234.0975	12	
234.4796	1	
234.6277	1	
235.0994	26	
235.3095	2	
235.4652	1	
235.8772	2	
236.1135	9	
236.3333	2	
236.5055	1	
236.6737	1	
237.1058	30	
237.5291	1	
237.7972	1	
238.1165	7	
239.1033	16	
239.3379	2	
239.5310	1	
240.0788	4	
240.3459	1	
240.5004	1	
240.7772	2	
241.1085	10	
241.5392	1	
241.7705	1	
242.0833	5	
242.7007	1	
243.1164	11	
243.7292	1	
244.0691	7	
244.4208	1	
244.7304	1	
245.1092	15	
245.3739	1	
245.6111	0	
246.1144	9	
246.2181	4	
246.4726	0	
247.1081	18	
247.4575	1	
247.6408	0	
248.0711	5	
248.3845	0	
248.6260	1	
249.1361	26	
249.4690	1	
249.6324	0	
249.7348	0	
250.1322	7	
250.3829	1	
250.4708	0	
250.6689	0	
251.1391	18	
251.6239	1	
252.0888	7	
252.4185	1	
252.6056	1	
253.1302	11	
253.4906	1	
253.6271	0	
254.1241	5	
254.2767	2	
254.4957	1	
254.6184	0	
254.7839	1	
255.1183	14	
255.3815	0	
255.6557	0	
255.8926	1	
256.1316	4	
256.3234	2	
256.5229	0	
256.7176	1	
257.1223	12	
257.4188	1	
257.6031	1	
257.8090	1	
258.1410	6	
258.5291	1	
259.1253	14	
259.3902	1	
259.6405	0	
260.1335	5	
260.5552	1	
260.6787	0	
261.1365	15	
261.4647	1	
261.6284	1	
261.7748	1	
262.1197	5	
262.4535	1	
262.8685	2	
263.1580	16	
263.7328	1	
264.1556	7	
264.3778	1	
264.6667	1	
265.1757	10	
265.3952	1	
265.4980	1	
265.5668	1	
265.8627	1	
266.1614	3	
266.4254	0	
266.7708	2	
267.1766	9	
267.3065	5	
267.6221	1	
267.7451	0	
268.1594	4	
268.3109	2	
268.4180	0	
268.5125	0	
268.6891	0	
269.1584	10	
269.6028	0	
269.7724	2	
270.1389	6	
270.5917	0	
270.8088	1	
271.1601	14	
271.3584	3	
271.6736	1	
271.8879	1	
272.1718	3	
272.4898	1	
272.5559	0	
272.6831	0	
272.7784	0	
273.1393	8	
273.4307	1	
273.6123	1	
273.8105	0	
274.1722	2	
274.4025	1	
274.5924	1	
274.7058	1	
275.1595	8	
275.5206	0	
275.8532	1	
276.1623	4	
276.4838	1	
276.6982	2	
277.1953	12	
277.5420	1	
277.7648	0	
278.1450	4	
278.4284	1	
278.6937	1	
279.1653	8	
279.4091	1	
279.6090	0	
280.1698	5	
280.4652	1	
280.7370	1	
280.8178	0	
281.2039	6	
281.7203	1	
281.9294	1	
282.2403	8	
282.6697	1	
282.7666	0	
283.1822	13	
283.6277	0	
283.7358	0	
284.1974	5	
284.7777	1	
285.1698	8	
285.6009	1	
285.7090	1	
286.1681	4	
286.2840	2	
286.7759	1	
287.1905	6	
287.6728	0	
288.0930	4	
288.2123	3	
288.4720	0	
288.7254	0	
289.1700	7	
289.6523	1	
289.8335	1	
290.0113	1	
290.1500	3	
290.2399	1	
290.3710	1	
290.6331	1	
291.0815	3	
291.2753	3	
291.4922	0	
291.7390	0	
291.8652	0	
292.0222	1	
292.1923	1	
292.3604	0	
292.4720	0	
292.8228	0	
293.1305	3	
293.2477	1	
293.5776	0	
293.8135	1	
294.1847	1	
294.4882	0	
295.1798	7	
295.4568	0	
295.8310	0	
296.1849	2	
296.3447	1	
296.5967	1	
296.7308	0	
297.1700	5	
297.5498	1	
297.9562	1	
298.2216	2	
298.3676	0	
298.5296	0	
298.7063	0	
299.1407	4	
299.2609	2	
299.4914	0	
299.7988	1	
300.0873	2	
300.2439	2	
300.5282	0	
300.9000	1	
301.1467	7	
301.2725	4	
301.8721	1	
301.9853	1	
302.2111	3	
302.6703	1	
303.1492	4	
303.4827	0	
303.7414	1	
303.9763	1	
304.2113	2	
304.6379	0	
305.1534	3	
305.5975	0	
305.8297	1	
306.0375	1	
306.1928	1	
306.3299	0	
306.5090	0	
306.6804	1	
306.9505	1	
307.1842	3	
307.3115	1	
307.7783	0	
307.9070	0	
308.1821	2	
308.5922	0	
308.6832	1	
308.8827	0	
309.1991	5	
309.3895	1	
309.7619	0	
309.8704	1	
310.1988	4	
310.3381	1	
310.7967	1	
311.1321	4	
311.3149	2	
311.4578	1	
311.6595	0	
312.0377	1	
312.2975	1	
312.4614	1	
312.5742	0	
312.7248	1	
313.1808	4	
313.4590	1	
313.6328	0	
314.1148	3	
314.2563	2	
314.5142	0	
314.7146	0	
314.8583	0	
315.0349	2	
315.2248	4	
315.4582	0	
315.7589	0	
315.9670	1	
316.1275	1	
316.3301	2	
317.2071	7	
317.3698	3	
317.6124	1	
318.2119	1	
318.3830	2	
318.5289	1	
319.1741	2	
319.3263	1	
319.4582	0	
319.6146	0	
319.8425	0	
320.2291	3	
320.5988	0	
320.7250	1	
320.9313	1	
321.2393	3	
321.4014	1	
321.7122	1	
322.2505	2	
322.4919	0	
322.7852	0	
323.0547	3	
323.2625	4	
323.4619	0	
323.6830	0	
323.9687	1	
324.0606	1	
324.2375	2	
324.3737	1	
324.5247	1	
324.7872	1	
325.2387	11	
325.7351	0	
325.9879	1	
326.1129	1	
326.2611	1	
326.3601	1	
326.5779	0	
326.8019	1	
327.2036	2	
327.4467	0	
327.7502	1	
328.0726	2	
328.2117	2	
328.3234	1	
328.4913	1	
328.6156	0	
328.9445	0	
329.2115	3	
329.5797	0	
329.8130	0	
330.0821	1	
330.2529	1	
330.5761	1	
331.1588	5	
331.3865	1	
331.6649	0	
331.8962	1	
332.2505	2	
332.6180	0	
333.2241	4	
333.3981	1	
333.6506	1	
333.8120	0	
334.0182	0	
334.2554	2	
334.3676	1	
334.5564	1	
334.9795	2	
335.2188	3	
335.4160	1	
335.7142	0	
335.8504	0	
336.2897	3	
336.4294	1	
336.5740	1	
336.7473	0	
336.8639	1	
337.2289	6	
337.6051	0	
337.8010	0	
337.9751	1	
338.2960	5	
338.7369	1	
339.2586	3	
339.4945	0	
339.7305	0	
340.0964	0	
340.2986	1	
340.4693	0	
340.6934	1	
341.0762	1	
341.2166	1	
341.3782	1	
341.6515	1	
342.1334	2	
342.3519	0	
342.6231	0	
342.8247	1	
343.1880	3	
343.5013	1	
343.7508	0	
343.9532	0	
344.2146	2	
344.3840	1	
344.5934	0	
344.8260	0	
345.2471	3	
345.7243	1	
345.9985	1	
346.2326	1	
346.3190	0	
346.6108	0	
346.8667	0	
347.2245	4	
347.4980	1	
347.8025	0	
348.2610	3	
348.5999	1	
349.0219	2	
349.2406	4	
349.4685	1	
349.7126	1	
350.1050	1	
350.3759	2	
350.4912	1	
350.7290	1	
350.9260	1	
351.2862	5	
351.6358	0	
351.8427	1	
352.0059	0	
352.1699	2	
352.3324	1	
352.5498	0	
352.8749	1	
353.1234	1	
353.2655	2	
353.4590	0	
353.8285	0	
354.2050	1	
354.7864	0	
355.0082	1	
355.3179	1	
355.6664	0	
355.9064	1	
356.1381	1	
356.4633	1	
356.9175	1	
357.1203	3	
357.3266	2	
357.8765	0	
358.0434	1	
358.2646	2	
358.4068	1	
358.5322	0	
358.7801	1	
358.8773	0	
359.2095	3	
359.4115	1	
359.5410	0	
359.7563	1	
359.9281	1	
360.1596	3	
360.3496	2	
360.6959	0	
360.9712	1	
361.3456	3	
361.5730	1	
361.8884	0	
362.0827	1	
362.2101	2	
362.3713	2	
362.6255	0	
363.0663	1	
363.2507	2	
363.6324	0	
364.2218	3	
364.2985	1	
364.4528	1	
364.7739	1	
364.9316	0	
365.3359	2	
365.7148	0	
366.2438	1	
366.4453	0	
366.6588	0	
367.2463	1	
367.3689	0	
367.5584	1	
367.7613	0	
367.9804	0	
368.2728	1	
368.6167	0	
369.2051	1	
369.4088	1	
370.0648	1	
370.2862	1	
370.4884	0	
370.6505	0	
370.8698	1	
371.2173	3	
371.4442	1	
371.9849	1	
372.2683	2	
372.4770	1	
373.3207	3	
373.7826	0	
374.0628	0	
374.2058	1	
374.2910	0	
374.4410	1	
374.6396	0	
374.9325	0	
375.2840	4	
375.8122	0	
376.2827	4	
376.4384	1	
376.8371	0	
377.1682	2	
377.3689	2	
377.5302	0	
377.6493	1	
377.8388	0	
378.0959	0	
378.2897	1	
378.4729	0	
378.6420	0	
379.2853	1	
379.3741	0	
379.6228	0	
380.1359	0	
380.4720	1	
380.6454	1	
380.7715	0	
380.9167	1	
381.1260	0	
381.2585	1	
381.3720	0	
381.5623	0	
381.7005	1	
382.0522	1	
382.2144	1	
382.7698	0	
383.2774	3	
383.5742	0	
383.6666	0	
383.8083	1	
383.8985	1	
384.1700	1	
384.3780	0	
384.6642	1	
385.2700	3	
385.6571	1	
385.9603	1	
386.1550	2	
386.3524	3	
386.5859	0	
386.9435	1	
387.3406	7	
387.5458	3	
387.8675	1	
388.0001	0	
388.3013	2	
388.5440	1	
388.9771	0	
389.2628	0	
389.4202	1	
389.8696	0	
389.9423	0	
390.2563	1	
390.3988	0	
390.8447	0	
391.1559	1	
391.4142	1	
392.1453	1	
392.2992	1	
392.4954	1	
392.5998	1	
393.0473	1	
393.2993	1	
393.5011	1	
394.0835	0	
394.2628	0	
394.4068	0	
394.5967	1	
394.7068	0	
394.8515	0	
394.9963	0	
395.0979	0	
395.2412	1	
395.3930	1	
395.8505	0	
396.0150	0	
396.1852	1	
396.3695	0	
396.8857	1	
397.0841	1	
397.3545	0	
397.4774	1	
397.5636	0	
397.7217	1	
397.8835	1	
398.0734	1	
398.2853	2	
398.4167	1	
398.5318	0	
398.6631	1	
398.8672	0	
399.3475	7	
399.7629	1	
399.9854	2	
400.3407	4	
400.6423	1	
401.3212	15	
401.8878	2	
402.3132	15	
402.7272	1	
402.9180	1	
403.0805	0	
403.3511	4	
403.8394	1	
403.9977	2	
404.1539	3	
404.3157	2	
404.5143	1	
404.6889	0	
404.8811	1	
405.2847	4	
405.4370	2	
405.5901	1	
406.0491	1	
406.2550	1	
406.3587	0	
406.4617	0	
407.3101	1	
407.5647	1	
407.7418	0	
408.1311	0	
408.3229	1	
408.4718	0	
408.8076	0	
409.2520	1	
410.4555	1	
410.5599	1	
411.0496	0	
411.3509	1	
411.5005	1	
411.7968	0	
412.1094	1	
412.3938	1	
412.5370	1	
412.6845	0	
413.2462	2	
413.5243	2	
413.7607	1	
414.2139	3	
414.5075	2	
414.7009	1	
415.3142	10	
415.6467	4	
416.3371	41	
417.3438	270	
417.9143	5	
418.3408	6	
419.1436	4	
419.6210	1	
419.7771	1	
419.9649	1	
420.1704	1	
420.3378	1	
420.5094	0	
420.7249	1	
420.9579	1	
421.3704	0	
421.6070	0	
421.7369	0	
421.9703	0	
422.1149	1	
422.3032	1	
422.5825	1	
422.7603	0	
422.9578	0	
423.1433	1	
423.3288	1	
423.6660	1	
424.2691	1	
424.3939	1	
424.5209	1	
425.0691	1	
425.3181	3	
425.5791	1	
425.7442	0	
426.0462	1	
426.1781	1	
426.3319	1	
426.4956	1	
426.5838	1	
427.0841	1	
427.2161	0	
427.4009	1	
427.5054	0	
428.1341	0	
428.2689	1	
428.3994	1	
428.5074	0	
428.6902	0	
428.8038	0	
429.2061	2	
429.3649	0	
429.5766	1	
429.9140	1	
430.3438	6	
430.6742	0	
431.3052	7	
431.4570	3	
431.8177	0	
431.9829	1	
432.2074	1	
432.4248	2	
432.5484	0	
432.7934	1	
432.9889	0	
433.1965	1	
433.3603	2	
433.4719	1	
434.1815	1	
434.4307	0	
435.0471	0	
435.2209	1	
435.4299	1	
435.5556	0	
435.7088	0	
435.8889	0	
436.0061	1	
436.1855	1	
436.3423	1	
436.6304	0	
437.3232	1	
437.4892	0	
437.9384	1	
438.3199	1	
438.8242	0	
439.0446	1	
439.3152	1	
439.5518	0	
439.8647	0	
440.1099	1	
440.3367	0	
440.7379	0	
440.8453	0	
440.9774	0	
441.3392	1	
441.6995	1	
441.9793	1	
442.3347	1	
442.7142	1	
442.8449	0	
443.1283	1	
443.3636	2	
443.5049	0	
443.7381	0	
443.8568	1	
443.9572	0	
444.3678	1	
444.9402	0	
445.1085	0	
445.3120	1	
445.4951	0	
445.8859	0	
446.2492	1	
446.3807	1	
446.5341	0	
446.8472	0	
446.9759	0	
447.2707	2	
447.4071	1	
447.5548	1	
447.7202	0	
447.8673	0	
448.1458	0	
448.2498	1	
448.4583	1	
448.7736	0	
449.3194	1	
449.4898	1	
449.8787	0	
450.3468	0	
451.1352	0	
451.3615	1	
451.5347	0	
451.9795	0	
452.2836	0	
452.4661	0	
452.7249	0	
453.0941	1	
453.3614	0	
453.7780	0	
454.1408	1	
454.4103	1	
454.5532	1	
454.7265	1	
454.8333	0	
455.0872	0	
455.2358	1	
455.4643	1	
455.6404	1	
455.7515	0	
456.2261	2	
456.4398	1	
456.6194	1	
456.8723	2	
457.2588	2	
457.3804	2	
457.5493	2	
457.7153	1	
457.9202	0	
458.2234	3	
458.3075	1	
458.6601	1	
458.7230	0	
458.9364	2	
459.1407	1	
459.3993	1	
459.5859	1	
459.8983	1	
460.1371	0	
460.2849	1	
460.3697	0	
460.4891	0	
460.6446	1	
460.8015	0	
461.4688	0	
462.1382	0	
462.2498	0	
462.4082	0	
462.5178	0	
462.6789	1	
463.4353	1	
463.5499	1	
463.8899	0	
464.3247	2	
464.4817	2	
464.6181	1	
465.2983	1	
465.5769	0	
465.8300	1	
466.5824	1	
466.6714	0	
466.8836	0	
467.1226	0	
467.5922	1	
467.7640	1	
467.8892	1	
468.1989	1	
468.3743	1	
468.7293	0	
468.9161	1	
469.1947	1	
469.3008	1	
469.4140	1	
469.6926	1	
469.8023	0	
470.3780	6	
470.6482	2	
470.9007	1	
471.0769	0	
471.2091	1	
471.4193	1	
471.6166	2	
471.7326	0	
471.9052	0	
472.1472	0	
472.3134	1	
472.5596	1	
472.7145	0	
473.1185	1	
473.2628	1	
473.4503	1	
473.5656	1	
473.8698	0	
474.1507	0	
474.3446	0	
474.7436	1	
475.3323	0	
475.5269	1	
475.6394	0	
475.8934	0	
476.0406	1	
476.3138	1	
476.4397	1	
476.6605	0	
476.8339	0	
477.0448	0	
477.4666	3	
477.9648	4	
478.4460	52	
478.9160	3	
479.2458	1	
479.4893	1	
479.7441	1	
479.8857	1	
480.1150	1	
480.4930	1	
480.7471	1	
480.9177	1	
481.0763	1	
481.3559	1	
481.6525	1	
481.8769	0	
482.0291	1	
482.2429	0	
482.4234	1	
482.5445	0	
482.6549	1	
483.1087	1	
483.2114	1	
483.5293	1	
483.8018	0	
483.9066	0	
484.0496	1	
484.2595	2	
484.3754	0	
484.5854	1	
485.2095	1	
485.4470	2	
485.6096	0	
486.0846	0	
486.2628	0	
486.3773	1	
486.4805	1	
486.7986	0	
486.9209	0	
487.1408	0	
487.5247	1	
487.7827	0	
488.0613	1	
488.2373	1	
488.4890	0	
489.3792	1	
489.7568	0	
489.8487	0	
490.2030	1	
490.3352	0	
490.5601	2	
491.0982	0	
491.4256	10	
491.6286	6	
491.7707	1	
491.9864	1	
492.0606	0	
492.3358	0	
492.6101	0	
493.1660	0	
493.4702	1	
494.1626	1	
494.5693	1	
494.9385	0	
495.3997	0	
495.6147	0	
496.1594	0	
496.3469	1	
496.5400	2	
496.7006	1	
496.9850	1	
497.2785	1	
497.4646	1	
497.6443	1	
498.2365	1	
498.5336	3	
498.7395	1	
498.9277	0	
499.3352	0	
499.5772	1	
500.0526	0	
500.2678	0	
500.4885	1	
500.6541	1	
501.1303	0	
501.2655	1	
501.3922	1	
501.4742	0	
502.4777	1	
502.6843	1	
504.0835	1	
504.2816	0	
504.7219	1	
505.4410	1	
505.6661	0	
505.8806	1	
506.3697	1	
507.6141	1	
508.2498	0	
508.4707	1	
508.9465	0	
509.1404	1	
509.6091	0	
510.0920	0	
510.3278	1	
510.6095	1	
511.1145	0	
511.5199	1	
511.6689	0	
512.1747	2	
512.4311	2	
512.6352	0	
512.9651	0	
513.3013	1	
513.5259	0	
513.7576	0	
514.2104	1	
514.4047	1	
514.5333	2	
515.3287	1	
515.7957	1	
516.1277	0	
516.3086	1	
516.6456	1	
517.3154	0	
517.5224	1	
519.6387	1	
519.9036	0	
520.2330	0	
520.3425	0	
521.2823	0	
521.5898	1	
521.8103	1	
522.0343	1	
522.3735	1	
522.5644	0	
523.3263	1	
523.4592	1	
523.7468	1	
523.9327	1	
524.0430	1	
524.3102	2	
524.5314	2	
524.7774	1	
525.0347	1	
525.3259	2	
525.5577	2	
525.7076	0	
525.8914	1	
526.0024	0	
526.2074	2	
526.3856	2	
526.5920	3	
526.8903	0	
527.1823	0	
527.4325	1	
527.6099	0	
527.7054	1	
527.8157	0	
528.3091	0	
528.8599	0	
529.0211	1	
529.5252	0	
529.6829	0	
529.8130	1	
530.1276	1	
530.4267	0	
530.8128	0	
531.1218	0	
532.0721	1	
532.2510	1	
532.4752	1	
532.7560	0	
532.8691	0	
532.9822	0	
533.1364	0	
533.2375	1	
533.5905	1	
533.7616	0	
533.9193	1	
534.1110	0	
534.2488	1	
534.4744	3	
534.5897	1	
534.8606	1	
534.9787	1	
535.1138	0	
535.2602	0	
535.3812	0	
535.5283	1	
536.0906	0	
536.2589	0	
536.6472	2	
536.7632	1	
537.0970	0	
537.3842	2	
537.5462	3	
537.6721	1	
537.9586	0	
538.3165	1	
538.6214	1	
538.8661	1	
539.0961	1	
539.1993	0	
539.4314	3	
539.5128	2	
539.7589	2	
539.9379	1	
540.4551	10	
540.8414	1	
541.0338	1	
541.2616	3	
541.3607	1	
541.5014	2	
541.7377	2	
542.0894	2	
542.3731	3	
542.6582	3	
542.9101	2	
543.0566	0	
543.2844	3	
543.4316	2	
543.6254	1	
543.8257	1	
544.0500	1	
544.2715	1	
544.4979	2	
544.7244	1	
544.9062	1	
545.0753	1	
545.3888	2	
545.5303	1	
545.6931	1	
545.8651	1	
545.9755	1	
546.2472	3	
546.4878	2	
546.9698	1	
547.1948	2	
547.3965	2	
547.5593	1	
547.8608	2	
548.1580	2	
548.4369	3	
548.6804	2	
549.1121	4	
549.8907	4	
550.1759	3	
550.3607	3	
550.6948	3	
550.9036	4	
552.5451	86	
553.4909	22	
553.7174	9	
554.5460	15	
554.8718	6	
555.5262	41	
556.2379	5	
556.6336	6	
556.9248	5	
557.1340	3	
557.4182	3	
557.7482	4	
558.0359	3	
558.2748	3	
558.4918	3	
558.8643	4	
559.1584	2	
559.4340	4	
560.0016	6	
560.3792	4	
561.2875	8	
561.5908	5	
561.8432	4	
562.2497	6	
570.4825	999	
571.6537	278	
572.3857	136	
573.2557	65	
574.2241	36	
574.7603	24	
575.3254	15	
