Mass spectrum: Diadinochrome; FAB-EBEB; MS2; m/z: 582.41; [M]+*
Name: Diadinochrome
Formula: C40H54O3
Exact mass: 582.40730
SMILES: C(O3)(C=C(C23C)C(CC(C2)O)(C)C)C(C)=CC=CC(C)=CC=CC=C(C=CC=C(C#CC(=C1C)C(C)(C)CC(C1)O)C)C
InChI: InChI=1S/C40H54O3/c1-28(17-13-18-30(3)21-22-35-32(5)23-33(41)25-38(35,6)7)15-11-12-16-29(2)19-14-20-31(4)36-24-37-39(8,9)26-34(42)27-40(37,10)43-36/h11-20,24,33-34,36,41-42H,23,25-27H2,1-10H3/b12-11+,17-13+,19-14+,28-15+,29-16+,30-18+,31-20+/t33-,34+,36?,40-/m1/s1
Instrument: JMS-HX/HX 110A, JEOL
Instrument type: FAB-EBEB
Ms type: MS2
Ion mode: POSITIVE
Collision energy: 3 kV
Ionization: FAB
Base peak: 567.5020
Precursor m/z: 582.41
Precursor type: [M]+*
m/z	relative intensity
0.0684	0
4.1147	0
4.3809	0
6.9308	0
10.2408	0
12.2865	0
13.0530	0
14.0129	0
15.0195	1
16.0308	0
18.5500	0
19.0218	0
20.7720	0
22.1325	0
22.3495	0
22.9770	0
25.0166	0
26.0126	2
26.2732	0
26.5348	0
27.0156	15
28.0249	2
29.0246	20
30.0134	0
30.5714	0
31.0141	3
33.7171	0
35.0482	0
36.1123	0
37.0102	2
37.3435	0
37.5846	0
38.0173	6
39.0249	46
39.3598	0
39.5750	0
40.0324	6
40.6217	0
41.0393	98
42.0189	3
43.0236	164
44.0268	3
45.0374	5
45.5408	0
47.0159	0
49.0110	1
50.0271	12
51.0308	33
51.5629	0
52.0403	13
53.0462	58
54.0575	3
55.0553	114
56.0583	2
56.4993	0
57.0759	110
57.5192	0
58.0117	1
59.0584	23
60.0030	0
60.6088	0
61.0300	2
62.0412	11
63.0364	28
63.4120	1
64.0458	7
64.3236	0
65.0494	46
65.5078	0
66.0470	11
67.0586	81
67.4905	0
68.0641	5
69.0632	88
70.0457	2
71.0521	27
71.7760	0
72.0517	1
73.0240	1
74.0304	10
75.0297	14
75.4221	1
76.0426	9
77.0484	137
77.5056	1
78.0572	25
78.4533	1
79.0692	115
79.4873	0
80.0527	17
80.4825	0
81.0705	102
81.5331	0
82.0596	6
82.5447	0
83.0726	51
83.5696	0
84.0778	1
85.0751	94
86.0323	6
87.0560	9
88.0502	4
89.0575	19
90.0781	6
90.4439	2
91.0688	276
92.0834	29
92.5158	1
93.0895	171
94.0762	10
95.0861	142
96.0872	13
96.4796	1
97.0796	21
97.5820	0
98.0521	4
98.6650	0
99.0704	4
99.4871	0
100.0469	2
100.5523	0
101.0692	9
101.6197	1
102.0826	19
103.0869	56
104.0931	23
105.1012	298
106.1000	28
107.1117	133
108.1013	13
109.1035	86
110.0962	8
111.0794	13
111.5381	0
112.0867	1
113.0843	8
113.5669	1
114.0835	8
115.0731	160
116.0754	53
117.0906	132
118.0960	24
119.1029	277
120.0886	27
121.1098	118
122.0869	23
122.4963	1
123.0882	81
123.6235	0
124.0908	10
125.0719	127
125.5858	1
126.0658	13
127.0724	67
128.0689	180
129.0781	192
129.5257	1
130.0885	71
131.0888	164
132.0902	32
133.0929	124
133.5658	2
134.1083	15
135.0902	95
136.0965	50
136.5132	1
137.0808	45
138.0662	6
139.0643	37
140.0868	11
141.0754	161
142.0884	142
143.0909	219
144.1060	60
145.1105	165
146.1160	30
147.1108	108
147.6379	1
148.1066	12
149.1034	63
150.1128	20
151.0997	149
152.0875	100
153.0998	107
154.1012	49
155.1152	171
156.1185	91
157.1344	197
158.1275	42
159.1333	93
160.1400	14
161.1357	48
162.1321	23
163.1532	62
164.1275	26
165.1264	281
166.1261	63
167.1384	131
168.1516	58
169.1526	159
170.1642	56
171.1646	114
172.1658	26
173.1557	72
174.1464	12
175.1616	48
176.1178	23
177.1345	36
178.1279	117
179.1219	191
180.1406	146
181.1480	282
182.1441	60
183.1528	145
184.1501	35
185.1601	59
186.1467	17
187.1338	34
188.1457	12
189.1220	84
190.1230	41
191.1246	111
192.1267	78
193.1295	196
194.1328	74
195.1367	154
196.1291	41
197.1463	89
198.1640	24
199.1459	42
200.1404	14
201.1476	34
202.0947	66
203.1272	91
204.1117	35
205.1331	91
206.1308	69
207.1411	176
208.1519	72
209.1511	115
210.1629	23
211.1630	56
211.6022	3
212.1758	20
213.1524	39
214.1539	11
215.1315	81
216.1339	39
217.1368	90
218.1524	37
219.1685	98
220.1850	51
221.1897	200
222.1948	37
223.2003	60
224.1818	20
225.1882	31
226.1705	21
227.1654	33
228.1608	34
229.1811	78
230.1773	39
231.1842	93
232.1787	47
233.1982	97
234.2180	52
235.2137	58
236.1975	17
237.2185	39
238.1907	14
239.1632	49
240.1854	18
241.1833	47
242.1692	25
243.1924	72
244.1914	33
245.1907	77
246.2027	39
247.2150	87
248.2154	28
248.5736	3
249.2284	46
250.2418	11
251.2061	28
252.1830	21
253.1974	35
254.1749	15
255.2023	48
256.2053	29
257.2083	67
258.2239	29
259.2150	62
260.2065	21
261.2354	54
261.7438	4
262.2150	14
263.2198	31
264.2372	11
265.2302	28
266.1737	15
267.2418	37
268.2231	17
269.2296	49
270.2116	20
271.2435	58
272.2384	29
273.2461	46
274.2789	21
275.2607	23
276.1926	10
277.2616	22
278.2437	7
279.2138	29
280.2213	10
281.2541	38
282.2622	21
283.2581	46
284.2667	17
285.2632	53
286.2723	32
287.2692	53
288.2165	8
289.2388	19
290.2489	8
290.7603	7
291.2835	26
292.2303	9
293.2771	21
294.2119	11
295.2716	28
296.2568	13
297.2546	34
298.2527	18
299.2635	70
300.2495	13
301.2732	25
302.2472	11
303.2713	16
304.2208	4
305.2454	16
306.2327	5
307.2202	20
308.2455	9
309.2584	24
310.2340	9
311.2474	31
312.2610	21
313.2498	22
314.2387	5
315.2654	13
316.2422	6
317.2443	14
318.2341	4
318.5974	1
319.2240	10
320.2643	6
321.2671	15
322.3329	6
323.2734	17
324.2643	6
325.3055	52
326.3093	8
327.2631	12
328.3300	4
329.2967	11
330.2761	6
331.2683	14
332.2732	3
333.2908	18
334.3463	7
335.3123	13
335.7137	1
336.2782	8
337.2945	16
338.2983	9
339.3149	10
340.2815	3
341.2733	12
342.3155	3
343.2951	12
344.3503	4
345.3176	12
346.3354	9
347.3156	12
348.3463	7
349.3017	10
350.2698	6
351.2884	18
352.3323	220
353.3260	16
354.1312	3
355.3014	8
355.7921	1
355.9809	1
356.3585	3
356.6857	1
357.3528	9
358.3725	5
359.2916	18
360.3619	7
361.2939	11
362.3387	8
363.2322	7
363.8993	2
364.3021	6
364.6671	1
365.3092	31
366.0268	2
366.8830	1
367.3490	4
368.3250	3
368.7217	1
369.3264	12
370.3467	5
371.3295	14
372.3753	9
373.3331	19
374.3793	33
374.8457	1
375.3878	7
376.4337	3
377.3907	6
378.3731	8
379.3934	9
380.1492	2
380.6406	2
381.3335	4
381.6233	2
382.1021	3
383.3876	8
384.3076	7
385.3413	14
386.3625	18
387.3459	42
388.3800	15
389.3133	9
390.3097	1
390.8143	1
391.3946	12
392.4291	3
393.2998	5
394.1579	2
394.4481	1
395.3190	4
396.4676	5
397.3513	6
398.2477	3
399.3336	8
400.3690	54
401.3794	53
402.3899	254
403.3247	7
404.3228	3
404.7903	1
405.3715	2
405.8391	0
406.1550	1
406.7742	1
407.2924	3
407.8864	1
408.2024	1
408.4799	1
409.3250	5
410.3340	5
410.6620	1
411.4063	5
411.6965	1
412.3021	2
412.7437	0
413.2863	4
414.2705	2
414.7374	1
415.3306	10
416.3782	3
416.7442	1
417.2365	2
417.8930	1
418.3096	3
419.4206	12
419.8878	1
420.2414	1
421.3274	7
422.4135	2
423.4113	10
424.4092	2
424.7756	0
425.3943	3
426.4543	3
427.4261	4
428.3601	2
429.3447	9
430.3673	55
430.8723	2
431.3521	10
431.8950	1
432.2991	1
433.3977	2
433.5872	1
433.9281	1
434.2818	1
434.5849	1
435.3932	4
436.4037	82
437.3133	5
437.9450	1
438.3745	6
438.7662	1
439.3853	4
439.8655	0
440.4720	1
441.5210	2
441.7737	1
442.3677	4
443.3663	13
443.7834	1
444.5039	2
445.2878	3
445.8440	0
446.4382	2
447.3233	5
448.5499	1
449.3972	4
450.0169	1
450.4090	2
451.2438	3
451.7245	1
452.3823	3
452.6226	1
453.4070	3
454.4064	2
455.4566	5
456.3171	1
456.7979	1
457.4434	2
457.9622	1
458.4938	3
459.3925	2
460.0886	3
461.3274	4
462.4649	11
463.3750	12
464.5379	2
465.4608	3
466.4722	3
467.2688	5
468.3057	3
469.4817	5
473.0864	35
474.0099	14
475.4142	13
476.4138	7
477.3881	7
478.1727	2
478.6915	2
479.3622	4
480.4254	4
481.4633	6
482.4127	8
482.7165	4
487.4391	49
488.3883	15
489.4379	76
490.4622	36
491.3476	3
492.1823	2
492.8654	1
493.3587	3
494.2948	1
494.6617	1
495.4840	7
495.9521	1
496.5973	2
497.5336	6
498.5080	2
499.2798	3
499.5709	2
500.3049	6
501.4439	10
502.4691	415
503.4565	9
503.8995	2
504.4944	2
505.3173	2
505.8490	1
506.2921	1
507.4063	4
507.7228	1
508.4445	4
509.3182	4
510.4326	3
511.4077	4
512.0536	1
512.5223	1
513.0035	1
513.4722	2
514.3082	3
515.1050	1
515.5598	1
516.0526	2
516.5075	1
517.5311	2
518.1882	2
518.5927	1
519.2119	2
520.1977	1
521.3858	3
522.4476	5
523.4842	7
524.4576	14
525.4185	4
525.8863	1
526.3667	5
527.5300	3
528.3898	3
528.8451	1
529.7177	2
530.0970	1
530.4132	1
531.5009	4
531.8170	1
532.2977	2
532.8668	1
533.3727	2
534.2961	3
534.7389	2
535.2575	3
535.8395	1
536.4467	4
537.4208	11
538.4457	12
539.4705	8
540.4069	5
541.4572	7
542.6215	3
543.4947	6
545.5577	6
546.3425	6
547.1400	3
548.1273	5
549.4186	24
550.4567	6
551.4063	15
552.4319	9
553.4828	40
554.5718	5
554.9138	3
564.5172	179
565.4404	62
567.5020	999
582.5342	999
586.0995	47
586.8581	25
587.8696	13
588.8307	7
590.6517	6
591.2081	3
