Mass spectrum: Crocoxanthin; FAB-EBEB; MS2; m/z: 550.42; [M]+*
Name: 7,8-Didehydrocryptoxanthin
Name: Crocoxanthin
Formula: C40H54O
Exact mass: 550.41747
SMILES: C(=CC(=C(C)2)C(C)(C)CCC2)C(C)=CC=CC(=CC=CC=C(C)C=CC=C(C#CC(=C1C)C(C)(C)CC(C1)O)C)C
InChI: InChI=1S/C40H54O/c1-30(18-13-20-32(3)23-25-37-34(5)22-15-27-39(37,7)8)16-11-12-17-31(2)19-14-21-33(4)24-26-38-35(6)28-36(41)29-40(38,9)10/h11-14,16-21,23,25,36,41H,15,22,27-29H2,1-10H3/b12-11+,18-13+,19-14+,25-23+,30-16+,31-17+,32-20+,33-21+/t36-/m1/s1
Instrument: JMS-HX/HX 110A, JEOL
Instrument type: FAB-EBEB
Ms type: MS2
Ion mode: POSITIVE
Collision energy: 3 kV
Ionization: FAB
Base peak: 535.3963
Precursor m/z: 550.42
Precursor type: [M]+*
m/z	relative intensity
1.1046	1
1.4804	1
4.0082	0
5.2783	0
14.9814	5
17.1929	0
18.8533	0
22.9401	3
24.9598	3
25.9625	7
26.1026	3
26.3335	0
26.7967	1
26.9615	48
27.9663	4
28.9710	37
29.4546	1
29.6008	0
29.9309	1
30.0669	0
30.6296	0
30.9484	6
35.0652	1
36.9195	3
37.9537	10
38.5099	0
38.6631	0
38.9469	93
39.9558	12
40.9705	201
41.9488	5
42.9695	103
43.9546	3
44.9587	5
47.5508	0
49.0808	2
49.8186	1
49.9549	37
50.2054	1
50.7014	0
50.9485	53
51.6008	2
51.9572	29
52.9589	93
53.9650	6
54.9737	198
55.9933	5
56.9833	59
57.9911	11
58.9618	8
59.9939	1
60.9550	3
61.0842	0
61.9282	14
62.4363	1
62.9508	42
63.1033	2
63.2586	2
63.9571	12
64.5589	1
64.9593	86
65.9613	10
66.6145	2
66.6924	2
66.9670	104
67.9652	6
68.9789	291
69.3876	2
69.9675	2
70.9731	12
72.0368	5
72.9479	1
73.9326	22
74.9453	21
75.1895	1
75.5352	1
75.6509	3
75.9329	13
76.4153	0
76.5568	2
76.9384	158
77.1402	2
77.2965	1
77.4651	1
77.7001	2
77.9710	42
78.1371	1
78.3006	1
78.4591	2
78.6601	2
78.9568	133
79.4223	1
79.8188	1
79.9803	15
80.2725	0
80.5105	2
80.9717	188
81.9535	3
82.0212	2
82.2326	1
82.4928	1
82.9735	55
83.5317	3
83.9899	3
84.9698	47
85.7375	0
85.9277	7
86.8986	10
87.7512	2
87.9474	3
88.4370	4
88.6175	2
88.9483	24
89.3546	3
89.5855	2
89.7906	2
89.9705	13
90.1223	1
90.3346	1
90.4670	4
90.5625	2
90.9536	318
91.2701	1
91.6508	1
91.9563	30
92.9738	176
93.3761	1
93.7851	1
93.9723	9
94.4990	3
94.7167	3
94.9850	160
95.2628	0
95.9952	3
96.2974	3
96.9754	14
97.7004	4
97.9575	4
98.0575	4
98.3826	0
98.9369	7
99.3147	1
99.8289	2
99.9797	6
100.6637	0
100.9358	8
101.0810	4
101.1592	3
101.2663	2
101.5781	3
101.9407	24
102.1563	3
102.3349	2
102.4687	1
102.6013	1
102.9747	75
103.3146	2
103.9390	26
104.3979	2
104.6328	3
104.9790	449
105.2900	1
105.9624	27
106.9902	187
107.3162	1
107.4449	2
107.9628	7
108.0673	2
108.3636	0
108.7813	4
109.0006	72
109.3444	1
109.9717	8
110.5722	5
110.9795	9
111.9357	1
112.6589	1
112.7677	2
112.9370	12
113.3332	5
113.6373	3
113.7445	4
113.9500	14
114.2461	4
114.3558	2
114.5009	2
114.9358	185
115.2821	4
115.9675	67
116.1382	6
116.3588	3
116.5242	1
116.9502	167
117.2241	3
117.3102	2
117.4246	1
117.6794	2
117.9608	42
118.5535	5
118.9608	395
119.2408	3
119.4154	3
119.5108	2
119.6757	3
119.9772	28
120.1507	1
120.3901	2
120.9618	135
121.2039	3
121.4334	3
121.7866	5
121.9496	15
122.0483	5
122.2678	3
122.9853	92
123.6130	2
123.9022	5
124.0170	4
124.3269	0
124.9405	7
125.3805	3
125.6167	2
125.8914	13
126.1710	3
126.2782	3
126.3581	3
126.6549	4
126.9238	68
127.2001	5
127.3691	3
127.4820	6
127.9081	199
128.2562	1
128.4878	4
128.9199	234
129.3908	1
129.9415	95
130.9422	233
131.1427	5
131.3259	3
131.9343	31
132.2761	2
132.9429	168
133.2108	1
133.3552	1
133.5623	3
133.7375	2
133.8524	7
134.0063	16
134.1351	3
134.3426	3
134.5232	1
134.9583	30
135.3573	2
135.8397	7
135.9940	7
136.5601	1
136.9838	16
137.6359	2
137.9154	9
137.9995	4
138.1313	3
138.3305	2
138.8986	43
139.2033	2
139.4021	3
139.5377	1
139.7255	7
139.9560	14
140.9059	175
141.3217	4
141.4098	1
141.9238	163
142.4873	4
142.9422	265
143.2083	5
143.3718	2
143.5659	1
143.9516	95
144.1800	3
144.3742	2
144.9626	199
145.1781	7
145.3202	1
145.4274	3
145.9777	27
146.0588	13
146.5296	1
146.9770	82
147.4676	3
147.5993	2
147.6823	1
147.8341	1
148.0121	12
148.2670	1
148.6200	3
148.7244	2
149.0064	10
149.6517	2
149.9170	11
150.0290	6
150.3595	3
150.6888	5
150.9193	19
151.1184	7
151.2475	4
151.9368	107
152.1819	4
152.3499	3
152.5337	5
152.9628	110
153.2200	2
153.3010	1
153.5326	5
153.7109	5
153.9746	51
154.2164	1
154.3614	4
154.4726	2
154.9766	206
155.3034	3
155.4801	2
155.9781	118
156.4028	1
156.9950	232
157.3206	3
157.4446	3
157.6783	3
158.0071	56
158.3556	4
158.4602	1
159.0118	112
159.2256	4
159.4325	2
159.6116	5
159.6955	3
159.9833	17
160.1429	4
160.2281	2
160.5229	1
160.6568	2
161.0275	65
161.3054	1
161.4406	3
161.6522	2
161.7584	2
161.8923	3
162.0605	12
162.2963	3
162.4088	3
162.5681	3
162.9944	14
163.1683	4
163.3923	3
163.5208	4
163.7125	3
163.8479	6
164.0404	15
164.9814	179
165.3729	3
165.4832	1
165.9794	60
166.4815	7
166.9934	138
167.2563	4
167.5345	4
168.0127	81
168.2619	3
168.3853	3
169.0099	169
169.3050	1
169.4487	2
169.5494	4
169.6317	3
170.0174	75
170.3481	5
171.0117	133
171.3261	3
171.4498	5
171.7504	7
172.0091	21
172.2572	5
172.5300	2
172.7210	3
173.0403	78
173.2549	3
173.4695	2
173.6327	2
173.8124	10
174.0213	26
174.1204	9
174.3923	0
174.5988	2
175.0272	43
175.3959	1
175.6292	6
175.9631	27
176.1584	11
176.4803	5
177.0059	37
177.1472	13
177.9545	112
178.3035	4
178.4054	3
178.9827	183
179.2516	2
179.4230	1
179.5276	2
179.9828	76
180.9785	171
181.4590	5
181.9958	69
182.3464	4
182.5079	2
182.6203	3
183.0113	144
183.6355	4
183.9998	36
184.2076	5
184.3489	1
184.5381	5
185.0229	67
185.3235	3
185.4566	3
185.6261	4
186.0497	10
186.5035	2
186.6341	1
187.0138	39
187.2687	4
187.3673	2
187.5178	3
187.8010	3
187.9829	10
188.2860	4
188.4879	7
188.9865	57
189.2911	5
189.4341	5
189.9856	43
190.1485	11
190.2646	6
190.3436	2
190.5559	5
190.9762	99
191.2573	1
191.4146	2
191.5199	1
191.9674	74
192.3135	3
192.4946	3
192.9861	168
193.3645	0
193.4879	1
193.6145	3
194.0002	76
194.3178	3
194.4142	2
194.5428	2
195.0033	164
195.2728	6
195.3776	3
196.0095	49
196.2302	4
196.3718	3
196.4819	3
197.0143	103
197.4985	1
197.6035	2
198.0118	20
198.3726	2
198.5272	3
198.7322	3
199.0131	39
199.5540	4
199.9369	15
200.0994	10
200.4180	3
200.5522	2
200.7005	3
201.0528	35
201.3386	7
201.9691	69
202.5585	1
202.9995	83
203.5233	5
203.7023	5
204.0027	42
204.4783	2
204.9882	120
205.3554	3
205.9923	79
206.2730	2
206.4677	3
206.6075	7
207.0163	133
207.3269	5
207.4408	3
207.5787	6
207.7418	6
208.0369	54
208.6015	1
209.0146	89
209.2471	8
209.3793	6
209.5198	2
210.0122	18
210.3128	2
211.0199	37
211.6138	4
212.0774	16
212.2584	3
212.3712	2
212.5269	3
212.6008	1
212.8156	15
213.0244	27
213.1283	11
213.7778	4
214.0368	14
214.1893	3
214.4198	2
214.5087	2
214.9983	89
215.2113	7
215.3132	3
215.3963	2
215.6555	5
216.0160	49
216.3558	7
217.0049	83
217.4989	4
218.0275	31
218.5789	7
219.0276	112
219.4778	1
220.0419	45
220.2124	10
220.4994	2
221.0501	97
221.3385	2
221.6426	3
222.0567	33
222.4899	1
222.6019	2
222.7387	2
223.0801	65
223.4749	3
223.5890	5
223.7213	4
223.8979	7
224.0947	14
224.2707	3
224.5901	1
225.1117	22
225.9902	22
226.1858	5
226.3276	5
226.5052	3
226.7024	8
227.0154	35
227.1553	18
227.2685	6
227.4397	3
227.6304	5
227.7261	3
228.0718	32
228.4012	3
228.6825	3
229.0439	74
229.2999	5
229.5057	3
229.6894	6
230.0327	46
230.1610	14
230.2803	5
230.5481	3
230.6510	4
231.0466	99
231.4162	2
232.0576	42
232.3850	2
232.5180	3
233.0619	77
233.3724	3
233.6059	3
234.0795	31
234.2524	9
234.5128	8
234.7412	2
235.0728	57
235.4905	4
235.6198	1
235.8261	12
236.0879	21
236.4842	1
236.6508	3
237.0635	29
237.5077	4
237.6900	3
238.0839	17
238.4427	1
239.0197	44
239.4492	4
239.6878	1
240.0500	10
240.5299	3
241.0701	46
241.3429	8
241.5038	2
241.6699	1
242.0441	35
242.4400	2
242.6402	3
243.0552	71
243.3157	5
243.5506	8
243.7346	4
243.9978	31
244.1431	22
244.5464	3
245.0415	77
245.7816	3
246.0928	38
246.3293	2
246.4361	3
246.6451	3
246.7480	5
247.0744	52
247.5122	2
247.7036	1
247.8425	8
248.0529	22
248.2135	7
248.4555	1
249.0810	33
249.4784	5
249.8044	2
250.0609	17
250.3180	3
250.5765	1
250.7064	4
251.1204	35
251.2129	17
251.3822	3
251.5626	2
251.6676	3
252.0355	17
252.2302	15
252.4801	1
252.5897	3
253.0640	42
253.4484	5
253.6335	4
253.7502	1
254.0823	18
254.4491	1
254.8049	15
255.0740	45
255.5237	3
255.7180	4
256.0529	25
256.2847	5
256.4568	1
257.0380	49
257.6508	5
257.8354	6
258.1140	19
258.2822	5
258.4301	2
258.5694	3
259.0806	52
259.3323	6
259.6031	4
260.0468	19
260.1994	10
260.3348	3
260.4985	3
260.7194	8
261.0883	35
261.4072	5
262.1103	13
262.7017	4
263.0952	32
263.4393	2
263.6136	3
263.7255	3
263.8696	3
264.0671	8
264.4008	2
264.5587	3
265.0478	25
265.2078	12
265.4395	6
265.6956	1
266.0499	19
266.2099	9
266.5247	6
266.6241	3
267.0793	56
267.6359	7
268.0311	30
268.2038	19
268.4344	2
269.0755	43
269.4639	2
269.7456	3
270.1062	15
270.3129	2
270.4755	2
271.0633	43
271.3576	3
271.5459	3
271.6493	2
272.0523	15
272.3453	1
272.6759	1
273.0685	38
273.3570	3
273.4373	2
273.5553	3
273.6692	3
273.8787	1
274.1541	9
274.2885	6
274.6371	13
275.1194	43
275.4213	4
275.6447	6
275.7568	3
276.0264	12
276.2802	5
276.4212	3
276.7278	3
276.9889	19
277.1458	16
277.2882	9
277.4616	2
277.7445	2
278.0413	9
278.2398	13
278.5894	5
279.0194	20
279.2767	12
279.4218	3
279.6442	3
279.7662	2
280.0941	14
280.3739	6
280.6049	3
281.0616	42
281.3361	3
281.7539	7
282.0233	20
282.1923	9
282.4616	3
282.6577	5
282.8340	8
283.1106	45
283.3622	5
283.6838	4
284.1369	14
284.3984	4
284.5385	7
284.7320	3
285.0952	27
285.3493	3
285.4951	3
285.7023	4
286.0599	10
286.1959	3
286.3160	1
286.4328	2
287.0472	29
287.7714	3
288.0150	6
288.1649	5
288.7082	3
289.0628	19
289.3105	7
289.6169	3
289.9986	6
290.4313	3
290.5462	1
290.6744	4
290.8389	6
291.0119	13
291.1560	17
291.4903	1
291.6032	1
292.0235	13
292.1510	7
292.5350	2
292.7286	3
293.0948	27
293.2560	6
293.3413	3
293.4444	3
293.8622	8
294.0770	19
294.1815	3
294.5418	0
295.0099	24
295.1911	25
295.4324	3
295.5323	2
295.6612	2
295.7426	1
295.8715	8
296.1063	14
296.3960	3
297.0581	22
297.4041	1
297.5602	3
297.7038	3
297.8143	1
298.0663	8
298.3251	4
298.5825	2
299.0688	19
299.8339	3
300.1053	9
300.4409	3
300.8156	4
301.0275	21
301.2095	5
301.3009	3
301.8246	4
301.9749	3
302.0895	8
302.2094	12
302.5445	4
302.7120	4
303.0399	18
303.2624	2
303.4366	1
303.7797	6
304.0129	6
304.1480	3
304.6078	2
304.7476	4
305.0272	16
305.2307	5
305.3877	1
305.5215	3
305.7601	5
305.8562	1
306.0868	9
307.0611	30
307.6962	3
308.1145	12
308.4314	2
308.5156	1
308.7238	2
308.9546	12
309.1429	13
309.3094	7
309.6668	1
309.8936	5
310.1138	9
310.5834	3
311.1081	23
311.2235	9
311.4424	1
311.7576	1
311.8611	2
312.0170	9
312.1411	4
312.3096	4
312.4569	3
312.6195	2
313.0508	18
313.3143	5
313.9873	4
314.2182	7
314.3762	3
314.5793	1
314.7931	7
315.0958	9
315.1755	6
315.4510	3
315.6508	1
315.7909	2
316.0944	7
316.2829	3
316.8135	5
316.9975	12
317.1210	11
317.2392	7
317.5188	1
317.7154	3
318.0190	5
318.2029	3
318.2966	3
318.4248	3
318.6467	5
318.8705	5
319.1117	14
319.3416	7
319.7469	3
319.8705	5
319.9854	1
320.1495	6
320.3024	4
320.6173	3
320.8253	7
320.9011	5
321.1583	19
321.4055	4
321.5052	1
322.0576	11
322.1500	5
323.0248	10
323.2196	14
323.6112	1
323.7349	1
323.8459	4
324.0813	6
324.3047	3
324.5873	3
325.0735	12
325.3275	6
325.7352	3
325.9601	3
326.1124	7
326.2135	4
326.4463	2
326.8002	3
327.1475	12
327.3790	3
327.6631	1
328.0033	6
328.2279	1
328.3369	2
328.8167	4
329.0699	18
329.2001	17
329.4055	2
329.7618	5
329.9279	7
330.0901	5
330.2889	1
330.6951	2
331.0680	20
331.2375	11
331.5308	2
331.7263	2
331.9896	4
332.2083	8
332.6239	3
333.1553	30
333.3861	6
333.7273	5
334.1703	25
334.3592	7
334.9013	5
335.1129	15
335.2925	5
335.3590	2
335.7037	2
336.1208	6
336.3051	6
336.4762	2
336.5673	2
336.6572	2
336.7949	1
336.9579	3
337.0891	7
337.2428	3
337.5722	3
337.8684	4
338.0727	4
338.3143	3
338.8874	6
338.9966	2
339.1843	9
339.9339	3
340.0937	4
340.5418	1
340.6690	3
340.7742	1
340.9473	8
341.1950	7
341.4341	3
341.6885	1
342.1440	5
342.3045	3
342.6429	2
342.7601	3
343.0692	12
343.2364	11
343.4022	4
343.6021	3
343.9758	4
344.1257	6
344.7566	1
345.1631	29
345.4609	6
345.6062	3
345.8827	3
346.1633	16
346.4705	3
346.7151	3
346.9250	4
347.1723	30
347.3922	4
347.5115	2
347.9368	4
348.1168	5
348.2274	7
348.3148	1
348.5421	2
349.0988	8
349.3201	6
349.5401	3
349.8548	3
350.0949	3
350.3783	9
350.9211	7
350.9991	3
351.1565	5
351.4673	3
352.1702	3
352.3757	7
352.5531	3
352.9580	3
353.1234	5
353.3763	1
353.6237	3
354.0080	6
354.1928	3
354.3478	5
354.7835	3
355.2424	11
355.4792	4
355.8311	3
355.9868	1
356.1052	3
356.2123	1
356.6621	0
356.9961	8
357.1844	15
357.3494	7
357.5909	1
357.6854	2
358.1266	6
358.7861	3
359.1388	21
359.3298	5
359.5681	1
360.2170	23
361.0584	3
361.2462	7
361.8520	4
361.9952	5
362.2302	8
362.9300	4
363.0625	8
363.1757	11
363.3861	3
364.0941	4
364.2106	7
364.4031	3
364.5842	1
364.9539	9
365.2556	11
366.2168	13
366.3940	3
366.9243	3
367.1855	5
367.3441	2
367.9557	5
368.1323	5
368.2482	3
368.5380	3
368.8877	3
369.1829	5
369.3001	4
369.5406	2
370.0757	4
370.6327	3
371.0812	10
371.2924	10
371.5570	2
371.9836	4
372.1755	6
372.3361	4
372.6787	2
373.0646	20
373.1866	11
373.4066	1
373.8459	3
374.0605	8
374.2006	8
375.1559	3
375.5160	1
375.7373	3
375.9060	1
376.1648	4
376.3255	3
376.8996	2
377.1010	5
377.2811	5
377.4211	5
377.6499	2
378.3242	1
378.8585	3
379.0146	3
379.1333	2
379.2454	9
379.3528	6
379.7163	1
379.9225	3
380.2300	5
380.3321	4
381.0887	4
381.2955	3
381.3709	1
381.5951	1
381.7152	1
382.2230	4
383.1946	9
383.3662	6
383.7866	1
383.9802	3
384.2365	3
385.1696	11
385.2871	9
385.9794	2
386.1964	11
386.3559	3
386.4481	3
386.5342	3
386.9194	1
387.0202	1
387.1858	14
387.3761	5
387.6699	2
387.7868	1
388.2348	4
389.1010	2
389.2105	5
389.3160	7
389.7755	1
390.0500	3
390.2069	2
390.3773	2
390.4935	1
391.0372	4
391.1982	2
391.7239	2
391.9477	3
392.2236	8
393.0313	4
393.1643	4
393.2739	6
393.7683	3
394.2461	7
394.3430	3
394.8308	3
394.9778	3
395.2297	12
395.3607	2
396.0130	2
396.1948	5
396.3031	3
396.5209	5
396.7776	3
396.9935	3
397.3331	23
397.4922	10
397.9019	1
398.1025	3
398.1954	3
398.4574	1
398.9034	1
399.2316	12
400.0552	3
400.2028	7
400.3932	8
400.6616	1
401.1665	15
401.4450	1
401.6908	2
401.9746	1
402.1229	4
402.3086	4
402.5056	4
403.0153	3
403.1703	7
403.3874	4
403.6773	1
404.2404	4
404.9580	4
405.1818	5
405.4130	5
405.5941	4
406.2529	8
406.8142	2
407.0173	4
407.3160	3
407.6048	3
408.3058	7
408.4348	2
408.9200	3
409.1420	3
409.3659	4
409.8418	6
410.0644	5
410.6446	3
410.9421	6
411.2650	13
411.4870	2
411.6768	4
411.9182	1
412.1602	6
412.3762	7
412.8362	3
413.2715	15
413.4755	5
413.6861	3
413.9796	3
414.1348	5
414.2759	3
414.8477	3
415.3038	5
415.7158	2
416.2729	5
416.5760	3
417.2270	12
417.3525	3
417.4453	3
417.6382	5
418.2018	4
418.5176	2
418.6472	0
418.8936	3
419.1273	1
419.2682	7
419.5461	4
419.6903	3
419.8906	3
420.0883	1
420.2399	6
420.3334	3
420.6754	3
420.7876	3
421.0441	3
421.1496	5
421.2838	5
421.4348	2
421.8943	2
422.0153	1
422.2197	5
422.5343	7
422.6017	3
422.7240	4
423.0787	3
423.3566	5
423.6432	3
424.1303	1
424.3340	3
424.4443	2
424.5859	3
424.7817	8
424.9574	3
425.0851	2
425.2167	5
425.3236	5
425.4646	3
425.8608	1
426.1849	23
426.4716	4
426.6346	3
426.8244	5
427.2829	23
427.4339	12
427.8015	8
428.0989	12
428.2098	7
428.3161	7
428.4511	9
428.6115	6
428.7813	3
428.9611	10
429.1596	7
429.2612	6
429.4811	11
429.7545	3
429.9430	3
430.1582	5
430.3060	3
430.5680	3
430.9738	3
431.2118	7
431.3676	3
432.0468	3
432.2975	7
432.4547	2
432.5670	3
432.8752	2
433.0511	5
433.1995	2
433.3159	5
433.5646	3
434.0293	3
434.3523	1
434.6011	4
435.0264	3
435.1842	3
435.4083	5
435.7975	3
435.9460	8
436.2242	7
436.4215	2
436.6630	1
436.8556	4
437.0362	4
437.1191	3
437.2790	4
437.4763	3
437.9439	2
438.1004	3
438.3211	2
438.4743	3
438.8851	2
439.0644	5
439.2216	3
439.4604	9
439.6899	3
439.8484	3
440.1930	6
440.3181	8
440.4292	5
440.6680	4
440.8393	6
440.9531	3
441.1418	10
441.2983	5
441.6757	6
441.9681	3
442.2659	1
442.5389	3
442.6921	3
442.8119	3
442.9866	7
443.2242	14
443.4524	16
443.7823	3
443.9523	4
444.3539	7
444.6490	1
445.1416	10
445.2608	6
445.4723	4
446.0834	1
446.3672	2
446.4904	1
447.1143	3
447.3901	4
448.0997	4
448.4184	4
448.4987	3
448.6072	3
449.0933	5
449.2218	2
449.4213	2
450.1792	3
450.2887	7
450.4985	6
450.8326	3
451.0491	3
451.1767	2
451.3184	3
451.4253	6
451.5843	1
451.7794	3
452.0648	7
452.2879	3
452.5706	2
452.9428	2
453.1901	3
453.3692	9
453.9352	2
454.1765	6
454.5033	3
455.0494	5
455.1443	1
455.3602	4
455.5941	4
455.6937	2
456.1248	3
456.6563	1
456.8468	3
457.2138	6
457.5661	5
458.3222	81
458.6471	8
458.8991	9
458.9894	6
459.2060	3
459.6065	3
459.8352	3
460.1689	4
460.3861	3
460.8288	1
461.0214	3
461.2888	1
461.4667	4
461.6908	3
461.8426	3
462.0104	5
462.1027	3
462.2070	4
462.3903	3
462.4738	1
462.6029	3
462.9527	3
463.1125	4
463.3272	7
463.5332	1
463.6562	3
463.8295	5
464.0609	3
464.3779	7
464.7879	5
464.9806	2
465.1357	12
465.2675	7
465.4421	3
465.8675	1
465.9545	1
466.0876	3
466.2762	9
466.8609	0
467.8303	3
468.3722	3
468.5093	5
469.2728	10
469.5183	4
469.7271	2
470.1185	3
470.2637	7
470.4651	4
471.0031	3
471.2133	4
471.3538	1
471.4950	4
471.7065	3
472.2204	5
472.6320	3
473.3595	0
474.3353	5
474.4183	2
474.8701	3
475.0006	3
475.1566	3
475.3474	5
475.6566	3
475.9197	1
476.1259	2
476.2932	5
476.4807	2
476.7611	0
476.9673	3
477.1367	6
477.3192	1
477.6661	3
477.9247	3
478.2155	3
478.4013	5
478.4975	5
479.0216	6
479.1285	4
479.3518	11
479.6606	3
479.8050	3
480.1800	3
481.0638	4
481.2676	9
481.4408	2
481.5524	3
481.7911	1
482.1528	4
482.2751	3
482.4182	6
482.5586	4
482.8769	4
483.0153	1
483.6491	3
483.9313	2
484.5097	3
485.2827	1
486.4048	3
486.8188	3
487.4167	3
489.0506	3
489.4125	4
489.5737	3
489.6714	3
490.3008	1
490.7456	2
491.2641	12
491.5805	3
491.9893	4
492.2201	6
492.3632	8
492.5104	10
492.6288	3
493.3521	9
493.8652	4
494.0432	2
494.3583	20
494.5758	3
494.8555	5
495.1680	4
495.4396	3
495.5300	1
495.7053	2
497.4652	2
497.5690	1
498.7649	2
498.9062	1
499.1284	5
499.2241	2
499.3907	3
500.0286	3
501.0627	3
501.4429	3
501.6069	1
502.3614	3
502.7423	1
503.1772	4
503.3743	1
504.0668	4
504.2627	4
504.6530	3
504.7533	3
504.8957	3
505.0160	4
505.1871	5
505.3857	5
505.5562	5
505.9506	3
506.1826	6
506.3269	5
506.5074	4
506.7073	6
507.0724	4
507.7958	1
508.0732	2
508.2357	3
508.4430	7
508.6115	1
508.9357	3
509.2259	2
509.6024	6
510.0236	3
510.1754	2
510.3366	0
510.5057	1
511.0748	5
511.5476	3
511.7014	3
511.8746	5
512.0452	3
512.4263	5
512.6069	2
512.6932	1
512.8851	3
513.0670	7
513.3934	3
513.6696	3
513.8322	3
514.1338	5
514.3431	6
514.4174	2
514.6708	5
514.9604	4
515.0748	2
515.2728	3
515.5524	4
515.7812	3
516.0093	3
516.1745	4
516.4133	5
516.6100	4
516.7197	5
516.7959	3
516.9364	2
517.1344	11
517.3947	14
517.6254	7
517.8201	2
518.0355	1
518.1425	1
518.3626	5
518.7038	4
518.9514	9
519.1494	16
519.3949	16
519.5977	12
519.7047	3
520.3510	20
520.6474	10
520.7524	3
520.9190	3
521.1686	3
521.3673	10
521.6142	4
521.7313	3
521.8517	3
521.9601	3
522.0518	3
522.2619	2
522.4841	5
523.2543	1
523.3660	2
523.6203	3
523.7361	5
523.9268	5
524.0413	4
524.1650	1
524.4000	11
524.6509	11
525.0129	11
525.3884	12
525.8214	18
526.0751	16
526.2036	14
526.4204	16
526.5864	9
527.0938	25
527.2390	12
527.5596	20
527.7142	15
527.9766	12
528.2236	20
528.3594	13
528.5716	14
529.0489	21
529.4539	21
529.7363	19
530.0443	34
530.3756	20
530.6990	37
531.3316	43
532.4255	98
533.5504	45
534.4100	79
535.3963	999
536.4155	30
536.8568	10
537.1287	14
537.4401	10
537.7032	11
538.0703	15
538.3763	10
538.5357	8
538.8043	9
539.0400	10
539.1880	8
539.2838	3
539.4492	10
539.8182	20
540.0962	11
540.4003	13
540.6219	14
540.9682	10
541.3239	12
541.5563	10
541.8102	11
542.0198	15
542.3092	16
542.5215	8
543.4567	21
543.7400	11
544.4146	27
545.0711	33
545.5126	46
545.7786	39
546.2729	55
550.4190	999
551.0043	630
551.6104	302
552.3394	177
552.8739	106
553.7452	59
554.2043	42
554.5264	45
555.0945	27
555.4046	17
555.7695	17
