Mass spectrum: Deoxymyxol 2'-(2,4-di-O-methyl-fucoside); FAB-EBEB; MS2; m/z: 742.52; [M]+*
Name: Deoxymyxol 2'-(2,4-di-O-methyl-fucoside)
Formula: C48H70O6
Exact mass: 742.51724
SMILES: C(C=CC=C(C)C=CC=C(C=CC(C(C)(C)O)OC(C(OC)2)OC(C)C(OC)C2O)C)(C)=CC=CC=C(C=CC=C(C)C=CC(C1(C)C)=C(C)CCC1)C
InChI: InChI=1S/C48H70O6/c1-34(20-14-15-21-35(2)23-17-26-37(4)29-31-41-39(6)28-19-33-47(41,8)9)22-16-24-36(3)25-18-27-38(5)30-32-42(48(10,11)50)54-46-45(52-13)43(49)44(51-12)40(7)53-46/h14-18,20-27,29-32,40,42-46,49-50H,19,28,33H2,1-13H3/b15-14+,22-16+,23-17+,25-18+,31-29+,32-30+,34-20+,35-21+,36-24+,37-26+,38-27+/t40?,42-,43?,44?,45?,46?/m0/s1
Instrument: JMS-HX/HX 110A, JEOL
Instrument type: FAB-EBEB
Ms type: MS2
Ion mode: POSITIVE
Collision energy: 3 kV
Ionization: FAB
Base peak: 73.0738
Precursor m/z: 742.52
Precursor type: [M]+*
m/z	relative intensity
0.5449	1
1.3953	2
2.2512	1
5.8750	1
7.1814	1
14.0240	1
15.0215	7
15.8863	1
18.1039	1
18.9908	1
22.3941	3
22.9996	7
25.0096	1
25.3708	1
26.0158	3
27.0214	23
28.0310	3
29.0259	29
29.9856	1
31.0248	9
31.4797	1
33.0306	31
33.3879	1
37.0072	1
37.9746	3
39.0257	39
40.0467	9
40.6854	1
41.0441	126
41.6269	1
42.0343	5
43.0352	126
44.0156	3
45.0402	158
47.0416	2
49.0315	1
50.0299	6
50.6992	1
51.0267	32
52.0313	7
53.0422	63
54.0538	8
55.0574	196
56.0416	7
57.0524	93
57.5812	1
58.0674	6
59.0608	564
59.6885	2
60.0363	14
61.0383	21
62.0323	5
63.0341	20
63.4373	1
64.0359	5
65.0473	35
66.0529	13
66.5056	1
67.0631	73
67.9987	3
69.0742	265
70.0629	5
70.5429	1
71.0601	244
72.0657	71
73.0738	999
74.0263	25
74.4541	1
75.0557	498
75.4790	3
76.0582	9
77.0489	135
77.5170	2
78.0571	35
78.4880	2
79.0671	144
80.0604	15
80.4927	1
81.0836	197
81.6208	1
82.0490	17
83.0614	146
84.0518	3
84.4865	1
85.0484	254
86.0877	2
87.0538	317
88.0273	10
89.0693	430
90.0597	7
91.0658	329
92.0632	31
93.0828	204
94.0807	21
95.0991	235
96.0990	3
97.0882	170
98.0749	10
99.0656	914
99.9870	4
100.4435	1
101.0854	604
102.0906	62
102.5211	2
103.0848	211
103.6874	1
104.0862	18
105.0981	478
106.1072	24
107.1118	178
108.0850	9
109.1206	102
110.0590	2
111.0802	170
111.8990	4
112.1491	2
113.0880	47
114.1047	15
115.0979	393
116.0997	49
117.0897	176
117.7030	2
118.1122	31
119.1109	451
120.1062	33
120.6217	1
121.1170	168
121.5578	2
122.1381	9
123.1403	55
124.0855	5
125.0788	187
126.1411	11
127.0857	65
128.0768	194
129.0920	303
130.0793	79
131.0906	471
132.1034	44
133.1107	273
134.1090	25
135.1263	48
136.0485	9
137.1283	51
138.0407	3
138.3715	2
139.0476	25
139.5533	1
140.1000	9
140.4494	3
141.0903	150
141.5496	3
142.0924	147
143.0834	761
144.1006	104
145.1049	328
146.1053	23
146.5624	4
147.1141	93
148.0581	9
149.1192	21
150.0601	6
151.1344	7
152.0686	57
153.0880	83
154.1157	37
155.1123	166
156.1064	108
157.1033	572
158.1320	55
159.1257	181
160.1024	17
161.1433	94
161.6624	1
162.1564	10
163.1669	23
164.1150	8
165.1111	124
166.1155	39
166.6371	5
167.1227	101
168.1126	57
168.5678	3
169.1454	190
170.1536	61
170.4893	5
171.1555	148
172.1364	19
172.7158	5
173.1712	84
174.1611	17
175.1557	432
176.1437	18
176.4940	5
177.1968	54
178.1517	81
179.1680	97
180.1705	39
180.6433	3
181.1775	114
181.7174	1
182.1840	46
183.1785	157
184.1628	33
185.2030	93
186.0248	7
186.5724	1
187.1958	50
187.7198	2
188.2274	7
189.1472	39
190.1268	17
191.1238	43
191.6197	2
192.1455	44
193.1421	98
194.1320	55
194.6217	2
195.1653	145
196.1548	41
196.6581	3
197.1654	142
198.1377	15
199.1739	49
200.1773	23
201.1683	34
202.0892	31
203.1711	58
204.1249	16
205.1391	41
206.1017	31
207.1639	96
208.1408	31
208.5527	5
209.1726	128
210.2032	21
211.1763	63
212.1894	15
213.1618	32
213.7440	3
214.3001	6
215.1459	35
215.6234	6
216.1237	15
216.6524	3
217.1304	27
217.5728	3
218.2017	15
219.1775	45
220.1614	20
221.1667	65
222.1460	17
222.7123	2
223.2014	43
224.1819	18
224.5939	1
225.1893	31
226.1992	15
227.2248	29
227.6223	3
228.1619	13
228.5539	4
229.1677	25
230.1873	13
231.2036	29
232.2034	23
233.1771	42
234.1892	15
235.1886	56
236.2683	13
237.2212	35
238.2544	13
239.1967	25
239.5890	7
240.2176	11
241.2160	43
241.7117	1
242.2188	14
242.6631	1
243.2640	35
244.1589	11
245.2070	34
245.6786	3
246.2307	13
247.1937	33
248.2604	9
249.2496	25
250.2593	11
250.7290	1
251.3038	22
252.1730	11
253.2605	29
254.2164	11
255.2321	24
256.2845	15
257.2092	19
257.7051	3
258.1648	7
259.1860	19
260.2382	9
261.2449	21
262.3095	9
263.2364	18
263.7719	2
264.2519	7
265.2736	16
265.7231	3
266.2784	11
267.1913	35
268.2815	12
268.6642	2
269.2894	33
270.1725	9
271.2273	17
272.2806	10
272.7929	1
273.3324	11
274.2554	9
275.2558	21
275.8112	15
276.1776	6
276.6154	1
277.2424	8
278.3401	8
279.3185	11
279.7740	2
280.2296	7
281.2607	15
282.2768	10
283.2642	19
284.2442	12
284.7141	1
285.2903	11
286.1898	5
286.5980	1
287.2539	12
288.1733	6
288.6960	1
289.2517	11
290.2879	5
290.6366	1
291.3070	15
292.2237	6
293.2763	22
294.2847	11
295.2352	5
295.7863	1
296.3490	5
297.1720	7
297.4069	3
297.8222	1
298.3416	6
299.3147	8
299.8692	1
300.1755	3
301.3043	5
302.3307	7
303.3651	9
304.3687	3
305.3707	19
306.2700	4
307.2939	9
308.3045	3
309.3367	6
310.4160	2
311.3574	4
312.0267	3
313.2546	6
314.2630	7
315.2775	6
316.2761	5
316.8831	3
317.3072	5
318.2938	7
319.3079	15
320.3048	12
321.2843	10
321.6817	5
322.2836	6
323.3085	7
323.5930	3
324.0160	1
324.3474	5
324.7158	3
325.4527	4
326.3712	4
326.7417	1
327.2703	4
328.2945	4
328.9365	2
329.3619	7
330.1641	7
330.7439	2
331.3472	15
331.7768	1
332.3392	3
332.8900	4
333.4194	9
334.3045	9
334.6640	2
335.3969	17
335.8914	1
336.4328	2
337.1562	2
338.2415	3
338.5721	1
339.2449	6
339.8866	1
341.4912	3
342.3015	3
343.3685	7
344.3144	1
344.7726	2
345.3152	7
345.6992	3
346.2595	15
346.6063	3
347.3156	9
348.3544	4
349.2639	4
349.6267	1
350.0796	1
350.4796	1
351.2975	6
352.2469	1
353.3475	5
354.4641	2
355.3023	8
355.7852	1
356.1229	3
356.4429	4
357.1949	5
357.4542	3
358.3930	5
359.3968	8
360.3851	10
361.3815	3
362.2306	5
363.3591	2
364.2774	9
366.3333	3
367.3817	3
368.3518	3
369.2180	3
369.9370	1
370.4104	4
371.3791	9
372.3892	7
373.3661	4
373.6178	3
373.9598	1
374.4691	6
375.3362	1
375.8908	3
376.3470	1
377.3994	3
377.8539	1
378.2316	3
378.5110	1
379.3414	3
380.4317	3
381.2939	4
381.6364	1
382.6917	3
383.4144	4
384.4070	5
385.3979	13
386.4736	9
387.5219	6
387.8392	3
388.4994	9
389.3253	1
390.3130	3
390.8690	1
391.3778	10
392.3382	5
393.3481	1
394.0918	3
394.5377	1
394.9481	3
395.3308	2
396.4764	5
397.3618	9
398.5137	2
398.8589	3
399.4685	7
400.4472	7
401.3707	3
401.8463	1
402.4443	5
402.8391	1
403.3741	7
404.2072	5
404.6949	3
405.3504	1
405.9211	3
406.3300	1
407.3116	3
409.1390	3
409.7970	1
410.8088	3
411.0953	1
411.4883	7
411.8041	3
412.1475	4
412.5482	10
413.4148	4
414.5856	6
415.3734	6
416.0824	4
416.4873	9
417.4729	33
418.0932	4
418.5002	5
419.5256	1
420.4109	3
421.4030	3
421.9307	2
422.4485	3
423.1345	1
423.5200	2
424.0281	3
424.4592	7
425.5922	5
426.3773	3
426.8758	1
427.6868	1
428.4266	5
429.3684	7
430.4230	9
430.9019	1
431.1948	1
431.8559	2
432.2458	3
432.4972	3
433.3226	3
434.4155	5
435.6471	1
435.9600	3
436.5164	1
437.3364	5
438.3307	5
439.2202	1
440.4506	2
441.3859	1
442.4660	5
443.4630	7
444.2341	1
444.5592	2
444.8189	1
445.5069	3
447.7070	1
448.4848	4
449.4151	3
450.5593	2
451.2285	2
451.6384	3
452.6700	3
453.1651	5
453.6839	3
454.5950	1
455.5438	4
456.7859	1
457.3387	3
457.6933	3
458.3116	3
460.4221	5
461.3339	3
461.6610	3
462.4123	3
464.1452	3
464.7499	3
465.2358	2
465.6185	4
466.3660	3
466.6453	2
467.6080	1
468.6223	3
470.3620	4
470.9467	2
471.4500	3
472.4568	5
473.3845	7
473.8444	1
474.4173	3
475.0518	3
475.5573	2
476.5666	4
476.8660	1
477.3519	5
477.7703	3
478.4763	16
478.8393	6
479.6387	6
480.1941	3
480.6543	5
481.3764	1
482.4835	8
483.4776	3
483.9559	2
486.5558	6
487.0005	4
487.3598	5
487.7469	1
488.3504	3
488.9282	4
489.5318	1
490.3499	7
491.3329	6
492.5543	25
493.4977	39
494.5803	23
495.5200	8
496.0266	3
496.3028	3
497.5605	1
498.0633	1
498.7668	3
499.3094	3
499.6134	1
500.2256	3
501.3864	2
501.7244	1
503.2571	5
503.8596	3
504.3825	3
504.7185	5
505.1699	3
505.7543	5
506.0819	5
506.4651	5
507.5491	72
508.5301	388
509.5448	743
510.6609	19
511.1098	9
511.4495	4
512.5897	3
513.1121	1
513.8690	5
514.5306	3
515.6174	3
516.2135	2
516.5255	1
517.7437	3
518.1968	1
518.7652	2
519.3734	4
520.5581	6
521.5163	16
522.1505	4
522.5302	3
523.2957	1
523.7092	1
525.0037	1
525.4194	2
526.0856	3
526.5808	1
527.2670	2
527.7742	2
529.3555	3
530.3005	5
531.5380	5
531.9837	1
532.5249	5
533.0403	2
533.5477	7
534.4631	9
535.6095	9
536.5509	9
536.9349	3
537.5471	4
538.3540	3
538.6104	3
539.3519	1
540.0854	3
541.1390	1
543.2486	1
543.6821	4
544.2090	1
545.5375	1
545.9750	3
546.5359	3
547.2917	4
547.9919	3
548.6384	5
548.9407	3
549.5554	10
550.5462	39
551.6106	278
552.5975	49
554.0582	5
554.7766	1
555.2383	1
556.1479	1
556.9958	3
557.5133	5
558.4091	5
558.8232	1
559.4821	2
560.5393	5
560.9056	3
561.4412	6
561.9848	3
562.6400	7
563.4843	1
564.1016	8
564.8046	9
566.6350	43
567.5649	23
568.6379	13
569.3693	3
570.4782	1
571.6052	3
572.5115	6
573.1099	3
573.4816	2
574.3384	3
575.7639	4
576.4120	1
577.4022	3
577.7740	3
578.0106	2
578.6589	2
578.9870	1
579.5180	1
580.7709	3
581.5784	2
582.0438	3
583.4640	3
583.8957	1
584.3293	3
585.0117	3
586.5595	6
587.4111	3
588.4815	3
588.9571	1
589.4586	5
589.7133	3
590.6844	5
591.3770	3
592.5015	13
593.3414	4
594.1077	5
594.7089	3
596.5901	210
597.6672	6
598.9196	3
599.5089	2
601.0263	3
601.5500	3
601.8248	1
602.4940	5
603.4022	1
603.7925	1
604.4817	3
605.2087	5
606.0035	1
606.3979	2
607.6310	3
608.9020	3
609.9978	2
610.5218	5
612.6778	4
613.0743	2
613.4869	1
614.0728	3
614.5551	3
615.4440	2
616.4517	4
616.9710	3
617.8345	2
618.4313	1
619.1576	3
619.5337	2
620.1904	5
621.4540	6
622.6739	6
623.8859	3
624.2422	3
624.6682	4
625.2911	3
626.2088	3
626.4476	2
626.7422	3
627.3514	1
627.8829	3
628.3826	5
628.9440	4
629.5114	3
630.0948	4
630.5726	2
631.6119	5
632.7350	6
633.9556	5
634.8020	2
635.2800	6
635.9492	5
636.6940	6
637.4927	2
637.8811	3
638.7435	12
639.5921	6
640.4208	5
641.5483	3
642.1619	1
642.5604	4
643.2712	1
644.1965	1
644.5826	4
644.9249	3
645.3468	2
646.4932	6
646.9091	4
647.2017	3
647.9938	3
648.5134	2
649.0846	9
649.7256	12
650.6910	55
651.6167	11
652.4827	3
653.1138	5
653.9221	4
655.1685	11
656.4349	8
656.8610	5
657.5320	3
658.3804	5
659.0953	6
659.4478	1
659.9477	2
660.2345	3
660.5193	1
660.9993	5
661.8278	2
662.1703	2
662.6703	6
663.0328	1
663.7360	3
664.7319	5
665.5766	3
666.6921	14
669.1980	30
671.0132	29
672.6497	27
675.3024	34
677.0167	23
678.7590	20
680.4000	29
681.3827	27
682.8548	32
684.4642	524
685.3615	16
685.7833	9
686.5951	3
687.8506	3
688.4116	3
688.7538	1
689.4560	1
689.7325	1
690.3850	3
692.5834	2
693.7175	3
694.7383	2
695.5303	5
696.0038	4
696.7322	12
697.2157	3
698.0575	5
699.0167	7
699.6815	5
700.5134	3
700.9711	3
701.6478	3
702.4758	3
702.8879	3
703.6263	1
703.9667	3
704.4962	1
704.9501	1
705.5493	3
706.1365	3
706.5765	3
707.0085	1
708.2448	1
708.8182	3
709.6385	3
710.6838	19
711.7351	14
712.6728	11
713.2571	3
713.8812	7
714.5092	7
714.8193	3
715.2227	5
715.7753	6
716.3636	5
716.8725	3
717.8345	3
718.3196	2
719.0312	3
719.8403	5
720.7766	7
721.1404	2
721.9515	3
722.5599	6
723.3094	7
724.7490	110
726.7194	63
727.6699	35
728.7437	27
729.8554	25
731.3967	29
742.7093	999
744.4940	339
745.8271	116
746.9694	62
747.8011	31
749.5563	17
750.0240	9
750.7922	10
751.7078	7
