Mass spectrum: 3'-Epigobiusxanthin; FAB-EBEB; MS2; m/z: 582.41; [M]*+
Name: 3'-Epigobiusxanthin
Class: Natural Product; Carotenoid
Formula: C40H54O3
Exact mass: 582.40730
SMILES: C(C=C(C)C=CC=C(C#CC(=C2C)C(C)(C)CC(C2)O)C)=CC=C(C)C=CC=C(C)C=CC(O)(C1(C)C)C(=CC(O)C1)C
InChI: InChI=1S/C40H54O3/c1-29(17-13-19-31(3)21-22-37-33(5)25-35(41)27-38(37,7)8)15-11-12-16-30(2)18-14-20-32(4)23-24-40(43)34(6)26-36(42)28-39(40,9)10/h11-20,23-24,26,35-36,41-43H,25,27-28H2,1-10H3/b12-11+,17-13+,18-14+,24-23+,29-15+,30-16+,31-19+,32-20+/t35-,36+,40+/m1/s1
Instrument: JMS-HX/HX 110A, JEOL
Instrument type: FAB-EBEB
Ms type: MS2
Ion mode: POSITIVE
Collision energy: 3 kV
Ionization: FAB
Base peak: 582.3651
Precursor m/z: 582.41
Precursor type: [M]+*
m/z	relative intensity
2.2274	0
11.9725	0
12.9781	1
13.9922	2
14.9796	4
15.9969	0
18.9959	0
22.9459	2
24.9766	1
25.3911	0
25.9729	4
26.9747	47
27.9712	3
28.9826	47
29.9636	2
30.5411	0
30.6896	0
30.9703	7
35.9328	0
36.2779	0
36.9640	5
37.1702	0
37.3879	0
37.8043	0
37.9790	18
38.2689	0
38.6277	0
38.9735	121
39.2033	0
39.3082	0
39.9916	14
40.3898	0
40.8168	0
40.9976	246
41.3039	0
41.9895	10
42.9829	270
43.1593	0
43.9676	3
44.9907	11
46.6697	0
46.9625	1
47.9465	1
48.4416	0
48.9611	3
49.0979	0
49.4051	0
49.7024	0
49.9684	37
50.3008	0
50.4733	0
50.9734	69
51.5362	0
51.6824	0
51.9769	28
52.9876	133
53.9901	7
54.6986	0
54.9909	249
55.2513	0
55.3677	0
55.7646	0
55.9899	7
56.6618	0
57.0108	85
57.1646	1
57.9790	2
58.9900	40
59.7399	0
59.9701	1
60.9650	10
61.2523	0
61.3704	0
61.4846	0
61.5622	0
61.9646	25
62.2341	0
62.4338	1
62.6911	0
62.9716	72
63.2356	1
63.3529	0
63.6011	0
63.7588	0
63.9811	13
64.2507	0
64.3809	0
64.5234	0
64.7307	1
64.9786	90
65.3451	0
65.4420	0
65.9824	23
66.3927	0
66.5047	0
66.9895	146
67.2204	1
67.5474	0
67.9955	7
68.1737	1
68.3366	0
68.4865	0
68.6422	0
68.7431	0
68.9869	219
69.7236	0
69.9803	37
70.9869	86
71.2350	0
71.6931	0
72.0075	2
72.3946	0
72.9651	2
73.3882	0
73.9571	24
74.9687	28
75.2113	1
75.3210	2
75.4103	1
75.4769	0
75.9649	17
76.3300	1
76.5397	2
76.9782	290
77.3880	2
77.6124	1
77.9906	57
78.1784	1
78.3286	1
78.5932	1
78.9949	253
79.1880	1
79.6625	1
80.0057	39
80.6290	0
81.0111	246
81.3081	1
81.6059	0
81.9837	13
82.1671	1
82.4472	0
82.5557	0
82.7095	0
82.9984	102
83.6867	0
84.0044	3
84.3416	0
84.6077	0
85.0006	104
85.3350	1
85.4618	1
85.6180	0
85.9590	12
86.4111	0
86.5985	0
86.7329	1
86.9632	17
87.6696	0
87.8285	1
87.9905	8
88.2047	0
88.4001	0
88.5121	1
88.5999	1
88.6902	1
88.9804	42
89.2557	2
89.9934	17
90.1879	3
90.5090	3
91.0003	522
91.3067	1
91.5287	1
91.7080	0
92.0119	51
92.2037	1
92.4163	1
92.5801	1
93.0174	294
93.2788	2
93.4447	0
93.5923	0
94.0196	18
94.2306	1
94.5323	2
94.6464	2
95.0245	235
95.4994	2
95.6408	1
95.9950	16
96.3059	1
96.6181	0
97.0009	88
97.2044	1
97.3858	1
97.4932	0
97.5796	0
97.9996	101
98.2029	1
98.3414	1
98.5003	0
98.6017	0
98.9960	22
99.2548	1
99.4295	0
99.7754	0
99.9962	4
100.4325	0
100.6046	0
101.0028	13
101.2808	2
101.5203	1
101.9984	35
102.2407	3
102.3597	1
102.5673	2
103.0064	92
103.3547	2
103.5576	1
104.0182	41
104.2533	2
105.0269	576
105.4548	1
105.5808	1
105.6812	1
106.0312	50
106.2816	1
106.4360	1
107.0310	229
107.3670	1
107.5145	1
108.0186	22
108.2719	0
108.5164	1
108.6811	0
109.0491	178
109.3065	1
109.5024	0
110.0058	14
110.2132	0
110.5689	1
110.6749	0
110.9993	104
111.3207	0
111.4692	1
112.0077	7
112.1715	0
112.3398	0
112.4936	2
112.6778	1
112.9969	26
113.2852	3
113.4753	2
113.9909	13
114.3272	3
114.9908	299
115.3645	2
115.9961	107
116.3176	3
116.5519	2
117.0061	230
117.4320	1
117.6215	1
118.0133	43
118.2399	1
118.4953	1
119.0180	423
119.4669	3
120.0211	35
120.3207	2
120.4418	2
120.6263	1
121.0198	172
121.3930	2
121.5553	1
121.9897	26
122.3602	1
122.4791	1
122.5472	0
122.6551	0
123.0060	98
123.2934	1
123.4594	0
123.9960	13
124.1731	2
124.4893	0
124.6026	1
125.0099	38
125.2040	1
125.4438	2
125.5825	1
125.9806	21
126.2027	1
126.3667	1
126.5424	2
126.9733	117
127.2570	4
127.9782	320
128.3963	3
128.9896	363
129.3558	2
129.4925	2
129.9919	128
130.3708	2
130.6292	2
130.9987	276
131.2300	2
131.4749	1
131.6491	1
132.0061	65
132.4107	2
133.0127	242
133.3735	3
133.5038	1
133.9971	26
134.2214	2
134.3284	1
134.4464	1
134.5468	0
134.9996	102
135.2418	1
135.4142	0
135.5154	1
135.9844	15
136.4769	2
136.7079	1
137.0057	64
137.3213	1
137.4720	1
137.6443	1
137.9935	17
138.2301	1
138.4248	1
138.6327	1
138.9790	77
139.2737	1
139.5251	2
139.9867	18
140.9790	266
141.4018	3
141.5249	1
141.9934	232
142.3555	3
142.5254	2
142.9983	349
143.3087	2
144.0116	103
144.3170	3
145.0166	334
145.3072	2
145.4921	2
145.9910	39
146.2435	1
147.0185	120
147.4870	3
148.0127	11
148.3512	1
148.5115	4
149.0151	58
149.5668	1
149.9993	20
150.2494	3
150.5395	2
151.0002	80
151.3324	4
151.9782	139
153.0017	193
153.3125	3
153.3883	2
153.5854	3
154.0128	96
154.2419	3
154.4064	3
154.5743	2
155.0168	277
155.3408	2
155.5548	2
156.0377	171
156.3113	1
157.0442	298
157.4442	3
157.5378	2
157.6707	3
158.0369	71
158.5168	1
159.0538	164
159.3441	1
159.5515	2
160.0521	22
160.3809	1
160.4753	1
161.0406	56
161.3649	1
161.5935	1
161.7698	2
162.0480	15
162.3042	1
162.4430	1
163.0287	38
163.2468	2
164.0243	33
164.3178	6
165.0253	302
165.5430	2
166.0406	96
167.0514	214
167.5847	2
168.0595	77
168.4995	2
169.0676	235
169.3612	2
169.5130	1
170.0783	89
170.3331	2
170.5557	2
171.0716	151
171.3757	4
172.0838	37
172.4023	2
172.5060	1
172.5916	0
173.0799	94
173.3548	2
173.5260	1
173.6878	2
174.0632	20
174.3990	0
174.5575	1
174.6891	2
175.0628	30
175.3158	2
176.0299	32
176.3257	1
176.5148	2
177.0470	42
177.3085	3
178.0135	168
179.0306	257
180.0457	101
180.4174	2
181.0466	206
181.3827	2
181.5487	1
181.6842	1
182.0516	91
182.3973	2
183.0551	174
183.4988	2
184.0634	44
185.0601	81
185.2883	3
185.3949	1
185.5845	1
186.0472	15
186.2789	2
186.4006	1
187.0465	36
187.5804	3
188.0328	18
188.3499	3
188.5962	4
189.0169	111
189.5684	4
190.0112	45
190.2735	4
191.0231	158
191.4096	2
192.0280	113
192.3322	3
192.4175	2
193.0268	218
193.2998	2
193.4670	2
194.0377	112
195.0335	200
195.4503	3
196.0524	64
196.4161	3
196.5289	2
197.0528	135
197.4167	3
197.5706	2
198.0523	32
198.3274	2
198.5211	1
199.0544	43
199.3208	3
199.5673	1
200.0098	18
200.3709	3
201.0500	29
201.2988	3
201.5196	4
201.9940	104
202.4488	3
203.0175	107
203.4882	4
204.0188	50
204.3374	4
205.0234	121
205.4994	2
206.0292	86
206.2972	4
207.0396	197
207.4528	3
208.0443	75
208.4302	3
209.0523	146
209.4563	3
209.6731	3
210.0559	33
210.4622	3
211.0525	61
211.4555	3
211.6925	3
212.0578	13
212.3838	2
213.0311	40
213.4870	2
214.0408	14
214.2706	5
215.0165	95
215.3084	2
215.5694	2
216.0216	55
216.3081	3
217.0416	113
217.3608	3
217.6088	4
218.0400	52
218.3621	2
219.0410	117
219.5305	2
220.0499	65
220.3688	1
220.5549	3
221.0753	125
221.3265	5
221.6629	1
222.0796	34
222.5206	2
223.0913	87
223.6281	1
224.0715	21
224.5961	4
225.1035	35
225.3912	2
225.5555	3
226.0443	32
226.2995	2
227.0605	41
227.2991	5
227.6315	5
228.0479	36
228.4984	3
229.0663	96
229.5003	0
230.0593	50
230.4475	2
230.5550	1
231.0821	113
231.4920	2
232.0831	56
233.0811	110
233.4532	3
234.0912	39
234.5690	3
235.0928	77
235.4485	2
236.1134	20
236.4268	1
237.0997	46
237.5426	3
238.0905	16
238.4091	2
239.0553	54
239.4887	4
240.0775	17
240.4930	3
240.6294	3
241.0547	46
241.4238	1
242.0623	26
242.3966	2
243.0633	78
244.0765	42
244.4919	3
245.0768	90
245.4819	2
246.0823	49
246.4659	3
246.6047	2
247.1070	91
247.3714	3
247.6324	3
248.1090	27
248.4622	2
248.5871	1
249.1254	50
249.5806	2
250.1183	16
250.4151	2
250.7127	2
251.1206	27
251.5343	2
252.0765	32
252.3742	3
252.6251	1
253.0970	36
253.5220	2
254.0968	24
254.4982	3
255.1116	49
255.3747	3
255.5356	2
256.0918	32
257.1132	68
257.4222	3
257.6172	2
258.1094	32
259.1241	65
259.5221	1
259.7291	2
260.1160	32
260.3531	4
261.1208	72
261.4819	1
262.0909	16
262.5459	3
263.1138	36
263.4632	0
263.6733	2
264.1209	18
264.3997	2
264.6183	1
265.1038	31
265.4871	3
265.6644	3
266.1038	22
266.4227	2
266.7353	2
267.1251	51
267.4925	2
267.6313	3
268.1214	21
268.4279	1
268.6018	1
269.1160	52
269.6071	1
269.7684	2
270.1248	28
270.3845	4
270.4911	2
270.6638	1
271.1178	50
271.4407	2
271.5916	2
272.1245	20
272.4278	2
273.1356	55
273.5120	3
274.1020	14
275.1004	32
275.5469	2
276.1037	13
276.5187	3
276.6037	2
277.1354	27
277.6474	2
278.0696	10
278.2235	5
278.3640	1
278.6823	2
279.1117	28
279.4153	1
279.5369	1
280.1069	13
280.3347	2
281.1389	46
281.4420	3
281.6663	4
282.1333	22
282.3780	2
282.5264	4
282.7346	2
283.1447	42
283.5028	2
283.6534	1
283.7554	0
284.1403	20
285.1353	39
285.5619	3
286.1391	10
286.4440	1
286.6876	1
287.1460	29
287.5291	1
288.1474	9
288.4236	1
288.7814	2
289.1731	24
289.5627	2
290.1271	7
290.5260	1
290.7198	1
291.1455	15
291.4601	1
291.6008	1
292.1292	8
292.3558	3
292.4790	1
292.6000	1
293.1525	25
293.4995	2
293.8382	2
294.1648	16
294.4817	1
295.1527	33
295.5069	1
295.6168	2
296.1676	12
296.4198	2
297.1292	26
297.4758	0
297.6322	1
298.1177	10
298.5124	2
299.1417	30
299.6203	0
300.1321	9
300.3733	2
301.1729	18
301.7081	2
302.1327	8
302.4931	2
302.6271	1
302.7167	1
303.1188	14
303.4229	0
303.7354	1
304.1573	6
304.4968	2
304.7367	2
305.1255	12
305.4636	2
305.7460	1
306.1413	7
306.4865	2
306.6863	1
307.1551	21
307.5357	2
307.7016	1
308.1437	10
308.3287	3
308.4347	2
308.6140	1
309.1141	14
309.4977	1
309.7139	2
309.8735	2
310.1328	9
310.4380	0
310.6281	1
311.1361	24
311.3552	3
311.6019	1
311.7142	1
312.1270	9
312.2782	7
312.4769	2
312.6797	2
313.1314	18
313.5153	1
313.6907	1
314.1714	6
314.6304	2
315.1509	19
315.6353	2
315.9543	3
316.1340	6
316.2430	3
316.5924	1
316.7856	2
317.1570	15
317.5136	1
317.6664	1
318.1285	4
318.3712	1
318.5474	1
318.6592	1
319.1242	15
319.5255	0
319.6862	2
319.7790	1
320.2037	5
320.4840	1
320.5768	0
321.1404	16
321.3932	2
321.5426	2
321.7366	1
321.8931	0
322.1856	6
322.4809	1
323.1672	15
323.4930	2
323.7190	2
323.8423	1
324.1873	4
324.4926	0
324.6443	3
325.1488	11
325.5201	1
325.7993	1
326.1558	7
326.3996	1
326.4945	1
326.7752	2
327.1807	16
327.5365	2
327.6514	0
327.8272	1
328.1455	4
328.4255	1
328.6290	0
328.7297	0
329.1807	13
329.6026	1
329.8260	1
330.1863	6
330.6175	2
331.1793	17
331.5284	0
331.7397	1
332.1526	8
332.3130	2
332.4478	1
332.5699	1
333.1957	24
333.3802	7
333.7740	1
334.2126	13
334.5022	2
334.6112	1
335.2018	17
335.5772	1
335.7337	1
335.9236	1
336.2175	7
336.5582	1
336.7807	1
337.1674	11
337.5316	1
337.6528	1
337.9270	2
338.2005	4
338.3592	2
338.4740	1
338.6348	1
338.7666	1
339.1989	13
339.4463	1
339.6638	0
339.8531	0
340.1912	2
340.4549	1
340.6923	1
341.1971	13
341.5657	1
342.0096	2
342.2166	3
342.4357	2
342.6122	1
343.1682	10
343.5576	1
343.6632	1
343.7732	1
344.0994	6
344.2845	2
344.4987	0
344.6895	0
345.2024	17
345.5011	2
345.7749	2
346.1878	13
346.5036	0
347.1947	22
348.1513	6
348.4324	1
348.6148	1
349.1976	9
349.6448	2
349.7229	1
349.8606	1
350.0139	3
350.1872	3
350.5549	0
350.8091	1
351.1656	9
351.3161	3
351.4652	0
351.5959	1
351.7074	1
352.1768	4
352.4608	0
352.7691	1
352.8834	1
353.2130	8
353.7159	0
354.1414	5
354.5456	1
354.7133	1
354.9158	2
355.2170	6
355.5126	1
355.6909	0
355.8025	1
356.1422	5
356.3411	2
356.5380	2
357.1939	8
357.4988	1
357.6396	1
357.8052	1
358.2245	4
358.7953	1
359.2141	17
359.4764	1
359.7793	1
360.2279	16
360.6702	1
360.8892	1
361.2405	14
361.6651	0
362.2621	6
362.4184	3
362.5527	1
362.7609	1
363.1802	5
363.5626	1
363.9009	2
364.1554	3
364.3601	1
364.4894	1
364.8250	1
365.2273	5
365.4726	0
365.7826	1
366.0684	1
366.2675	3
366.4616	1
366.6877	1
366.8050	2
366.8768	0
367.2373	6
367.3838	3
367.5026	1
367.8532	0
367.9741	0
368.2401	2
368.8155	1
369.1697	6
369.2885	3
369.4186	1
369.5211	1
369.8291	1
370.2040	3
370.5021	1
371.1637	8
371.4142	1
371.5038	1
371.7066	0
371.8383	1
372.2360	5
372.3727	3
372.6111	1
372.8388	1
373.2195	14
373.5697	1
374.2537	4
374.4174	2
374.6708	1
375.2083	6
375.5863	1
375.8362	0
376.0419	2
376.1884	2
376.3484	0
376.5332	1
376.8326	2
377.1810	3
377.4128	1
378.1858	4
378.7427	1
379.1673	3
379.6801	2
379.8551	1
380.0806	2
380.2919	1
380.3858	1
380.5067	2
380.7308	2
380.8568	1
381.2260	5
381.6251	1
381.7859	1
382.0044	1
382.2256	3
382.5259	0
383.2788	6
383.6247	0
383.8460	0
384.0311	2
384.2268	3
384.3399	2
384.5051	0
384.6709	1
384.7634	0
384.8930	1
385.2225	12
385.7543	1
386.0419	2
386.2811	2
386.6114	1
386.8563	1
387.2472	3
387.6495	0
388.1729	2
388.4285	1
388.5631	1
389.0409	2
389.2524	5
389.4112	1
389.5202	1
389.8991	1
390.1405	2
390.4105	2
390.8257	0
391.1883	5
391.4312	1
391.9748	1
392.1258	2
392.3666	1
392.6402	1
392.8896	2
393.1731	4
393.3947	2
394.1579	4
394.2804	3
394.6595	1
394.7871	1
394.9282	1
395.2510	5
395.4613	1
395.6138	1
395.7285	0
396.1448	2
396.3437	2
396.5240	1
396.8383	1
397.2211	9
397.5013	1
397.6310	0
397.7351	0
398.2641	5
398.4801	2
398.6455	1
399.2658	19
399.6551	2
400.2562	7
400.4502	4
400.8096	0
401.3003	5
401.4393	2
401.6326	0
401.8038	0
402.1105	2
402.2824	3
402.4100	1
402.7061	0
403.2767	3
403.4286	1
403.9915	2
404.2069	1
404.4188	1
404.6378	1
404.8676	1
405.1936	3
405.3428	1
405.4633	2
405.9065	1
406.1348	2
406.2390	2
406.3175	1
406.4809	0
406.6814	1
406.7884	0
407.0853	1
407.3536	2
407.5099	1
407.6519	1
408.0630	2
408.2336	1
408.3711	1
408.4879	1
408.7171	0
408.8225	0
408.9187	0
409.2719	6
409.5325	1
409.7084	0
409.9933	0
410.1835	2
410.4007	2
410.6920	1
410.8245	1
411.2469	14
411.7042	1
411.8445	1
412.2164	7
412.3695	4
412.6488	0
412.8739	1
413.3078	10
413.4845	5
413.7759	2
414.2561	9
414.6580	2
414.7506	1
415.2822	36
415.5943	2
415.7440	1
415.8616	1
415.9920	1
416.2008	2
416.4196	2
416.5522	0
416.8543	1
417.2136	3
417.4538	3
418.1972	2
418.4838	1
418.6720	1
418.7675	1
419.2601	2
419.5531	1
420.1848	2
420.3680	2
420.5954	0
420.7922	0
420.9134	0
421.2050	1
421.3983	1
421.4824	1
421.7341	0
422.0208	0
422.1798	1
422.3339	1
422.5406	1
422.7282	1
423.0192	1
423.1590	2
423.3230	3
423.4129	1
423.6354	2
424.2031	2
424.3650	1
424.7131	1
424.8015	1
425.2457	7
425.6631	1
425.8582	2
426.2764	25
426.6048	2
426.8206	1
427.2701	24
427.6135	2
427.8343	2
428.2881	27
428.7099	1
429.2115	8
429.4524	2
429.6761	1
430.1664	3
430.4720	1
430.5868	1
430.6801	1
430.8348	1
431.2709	3
431.3643	1
431.4947	1
431.7135	1
432.0285	1
432.1653	1
432.3920	1
432.9009	0
433.0670	1
433.2986	2
433.5474	0
433.6244	0
433.8532	0
434.0079	1
434.2103	4
434.4064	2
434.4912	1
434.7243	1
434.9980	1
435.1692	1
435.4230	1
435.7452	1
436.0439	1
436.1858	1
436.4054	1
436.5202	0
436.7477	1
436.9637	1
437.1420	1
437.2910	1
437.3930	1
437.6083	0
437.7495	1
437.9413	1
438.1011	1
438.3150	1
438.4847	1
438.5768	1
438.7137	1
439.2699	3
439.4832	1
439.5973	1
439.8869	0
440.2142	1
440.5388	1
440.6807	0
440.8427	1
441.0994	3
441.2999	5
441.5909	0
441.7372	1
442.0075	1
442.1887	2
442.3885	1
442.4933	0
442.7081	1
442.9763	3
443.2667	5
443.7711	1
444.2356	11
444.7122	2
444.9149	2
445.0932	2
445.3508	3
445.6142	1
445.8354	1
445.9824	1
446.2222	2
446.4027	1
446.4912	1
446.7196	0
446.8566	0
447.0136	1
447.3312	1
447.4868	1
447.8387	1
448.0200	1
448.2291	1
448.3568	1
448.4739	1
448.5731	1
448.7758	0
449.0042	1
449.2798	3
449.3769	1
449.5710	1
449.9244	2
450.2156	1
450.4334	1
450.5783	0
450.8096	0
451.2437	4
451.3386	2
451.5928	1
451.8441	0
451.9962	1
452.1668	1
452.3575	2
452.5717	1
452.7166	0
453.1229	2
453.4300	1
453.5785	1
453.8063	2
454.1891	3
454.5497	1
454.7697	3
455.2003	4
455.5031	2
455.7209	1
455.9695	1
456.1602	1
456.2731	0
456.5516	1
456.7859	2
457.1373	2
457.3930	2
457.7309	1
457.9824	1
458.2260	1
458.4053	1
458.5703	1
458.6760	1
458.7517	0
458.9354	1
459.3047	3
459.5319	1
459.6462	1
460.0435	1
460.2635	2
460.4812	1
460.7145	1
460.9843	1
461.2212	2
461.4439	1
461.7165	1
461.8307	1
461.9670	1
462.0898	1
462.2767	1
462.4602	1
462.7921	1
462.9798	0
463.1418	1
463.4244	1
463.5729	0
464.0447	1
464.1996	2
464.4138	1
464.6672	1
464.8714	0
464.9670	0
465.2319	2
465.3811	2
465.5060	1
465.7373	0
465.9986	1
466.2942	1
466.4055	0
466.5312	1
466.6840	1
467.2638	4
467.5165	1
467.6807	2
467.8700	2
468.0027	1
468.2256	2
468.4198	2
468.5840	1
468.7939	2
468.9353	1
469.0953	5
469.2202	3
469.3624	1
469.5173	1
469.9437	1
470.1715	2
470.2964	2
470.6050	1
470.7207	0
470.8342	0
471.0499	2
471.1306	1
471.3470	1
471.4592	0
471.6649	1
472.1891	2
472.4277	2
472.6156	2
472.9213	2
473.1220	1
473.3585	1
473.4499	1
473.5835	1
473.7220	0
473.8149	0
473.9535	2
474.3028	1
474.4493	1
474.5943	1
474.7436	1
474.8658	1
475.0994	2
475.5088	4
475.7574	4
476.0146	4
476.1518	3
476.3904	5
476.7177	2
477.3500	6
477.4515	3
477.8116	2
478.0374	1
478.3412	1
478.6570	1
478.8107	2
479.0086	2
479.2344	3
479.3309	1
479.4717	1
479.6382	1
479.8176	1
480.0456	1
480.2986	2
480.4694	1
480.6752	0
480.8697	1
481.1534	3
481.3178	1
481.4672	2
481.6423	2
481.8382	1
482.2148	4
482.4386	2
482.5658	0
482.8811	2
482.9868	1
483.2235	4
483.4744	2
483.8147	0
483.9762	0
484.1342	1
484.3930	0
484.5989	0
484.8127	0
485.0815	2
485.2724	2
485.4948	2
485.7943	1
485.8916	1
486.0053	0
486.2226	1
486.4400	1
486.6609	0
486.7832	1
487.1343	0
487.3488	1
487.5669	1
487.7693	2
487.9752	2
488.2452	1
488.5015	2
488.7278	2
488.9862	1
489.1404	2
489.4396	2
490.3142	39
490.8376	2
490.9932	2
491.2660	4
491.4116	2
491.6073	2
491.6944	1
491.8472	2
492.0943	2
492.2442	2
492.4170	2
492.6077	2
493.2711	6
493.7967	2
493.9396	0
494.2017	2
494.4073	3
494.5609	2
494.8166	3
495.1394	2
495.4230	6
495.6501	2
495.9465	3
496.1944	5
496.6508	5
497.3237	5
497.7523	4
498.0059	5
498.2302	9
498.4917	6
498.7646	3
498.9225	1
499.0811	2
499.2354	3
499.3675	1
499.5147	0
499.7033	1
499.8148	0
500.0848	2
500.3363	1
500.5642	5
500.6571	2
500.8893	1
501.1730	3
501.3209	2
501.5024	1
501.6875	1
501.8511	1
502.1769	1
502.5342	2
502.8086	1
502.9644	1
503.2417	4
503.4174	3
503.5154	1
503.6176	1
503.7919	2
503.8734	1
504.1342	1
504.3386	1
504.4844	2
504.7910	1
505.1548	3
505.4271	1
505.7066	1
505.8095	0
505.9331	1
506.0489	1
506.1661	2
506.3913	3
506.7487	2
506.9810	2
507.3884	6
507.7515	2
507.9460	3
508.3456	8
508.6065	2
508.7108	1
509.1419	5
509.4315	5
509.8582	4
510.2965	9
511.3103	20
511.8709	3
512.0947	3
512.3714	3
512.5266	2
512.6581	1
513.0986	5
513.6292	2
513.8795	2
514.0060	2
514.2692	2
514.4201	1
514.6431	1
514.8864	2
515.0419	4
515.2295	2
515.5548	5
515.8337	1
516.0320	2
516.5949	3
516.9866	1
517.2648	2
517.4246	1
517.6544	1
517.8499	0
517.9747	1
518.1281	0
518.2936	3
518.5898	1
518.7896	1
519.0978	2
519.3004	2
519.4288	2
519.6615	2
520.1381	2
520.2937	2
520.3993	1
520.5178	1
520.6555	0
520.8553	1
521.2292	3
521.4398	3
521.5975	2
521.8558	1
522.0613	1
522.3917	2
522.5352	1
522.7336	1
522.8892	2
523.3566	7
523.7428	3
523.8976	2
524.1154	5
524.4451	4
524.6628	0
524.8212	1
525.2360	9
525.4686	5
526.3102	51
526.7122	3
526.8513	2
527.0405	2
527.1569	1
527.3168	2
527.3939	1
527.5645	1
527.6823	1
527.8029	1
527.9429	1
528.0678	0
528.3998	3
528.6032	0
528.8795	1
529.1380	2
529.4885	2
529.8341	1
530.0004	3
530.2368	2
530.3760	1
530.5838	0
530.7288	1
531.1136	2
531.3799	3
531.5006	2
531.7277	2
531.9398	2
532.0947	1
532.2011	1
532.3561	1
532.5988	1
532.7567	1
532.8802	1
533.1959	2
533.3251	1
533.4794	2
533.6450	1
533.8071	0
533.9185	1
534.3013	2
534.6699	1
534.8876	2
535.0491	1
535.4211	3
536.1868	4
536.4990	4
536.7404	3
536.8882	1
537.3561	5
537.6053	2
537.7418	1
538.3040	9
538.4825	7
538.8318	3
539.3076	11
539.5905	4
539.8577	2
540.2484	4
540.5149	3
540.6471	2
540.8286	4
541.1043	4
541.3365	4
541.5187	2
541.7037	6
541.8831	4
542.0374	5
542.2045	3
542.3896	3
542.9798	4
543.4971	4
543.7808	5
544.0701	5
544.3160	2
544.5739	2
544.7804	4
545.1091	4
545.2928	3
545.4678	4
545.9374	4
546.3733	9
546.6570	3
546.8242	4
547.2337	4
547.4681	4
547.7204	2
547.9377	3
548.1928	4
548.4423	3
548.6488	2
549.3414	26
549.7388	4
549.9733	3
550.2999	3
550.6451	2
550.8289	1
551.1384	3
551.3978	2
551.6301	2
552.1785	4
552.4422	5
552.9305	4
553.4559	7
554.0657	7
554.5362	7
555.1153	7
555.6265	8
556.4108	8
557.2896	11
557.9374	10
558.5145	13
558.8223	8
559.1856	9
559.8909	11
560.3549	12
561.3444	17
562.0547	17
563.4297	42
564.4215	267
567.4062	304
568.5231	18
569.4108	13
570.0444	12
572.1613	13
573.7428	16
574.4843	13
575.0322	16
582.3651	999
583.6006	292
584.4128	137
585.3243	65
586.3593	40
587.0781	20
587.8156	15
588.2610	12
589.2518	8
589.8194	6
590.0942	5
590.2335	5
590.3884	5
590.7054	5
591.0781	3
591.6570	4
592.0754	2
592.3382	2
592.5374	1
