Mass spectrum: Luteoxanthin; FAB-EBEB; MS2; m/z: 600.42; [M]+*
Name: Luteoxanthin
Formula: C40H56O4
Exact mass: 600.41786
SMILES: C(O4)(C=C(C34C)C(CC(C3)O)(C)C)C(C)=CC=CC(=CC=CC=C(C=CC=C(C=CC(O2)(C2(C)1)C(CC(C1)O)(C)C)C)C)C
InChI: InChI=1S/C40H56O4/c1-28(17-13-18-30(3)21-22-40-37(7,8)25-33(42)27-39(40,10)44-40)15-11-12-16-29(2)19-14-20-31(4)34-23-35-36(5,6)24-32(41)26-38(35,9)43-34/h11-23,32-34,41-42H,24-27H2,1-10H3/b12-11+,17-13+,19-14+,22-21+,28-15+,29-16+,30-18+,31-20+/t32-,33-,34?,38+,39+,40-/m0/s1
Instrument: JMS-HX/HX 110A, JEOL
Instrument type: FAB-EBEB
Ms type: MS2
Ion mode: POSITIVE
Collision energy: 3 kV
Ionization: FAB
Base peak: 43.0175
Precursor m/z: 600.42
Precursor type: [M]+*
m/z	relative intensity
12.9988	0
14.0136	1
15.0204	6
17.8980	0
18.9943	0
22.9864	0
25.0106	0
26.0103	6
27.0171	43
28.0218	4
29.0265	52
30.0087	1
31.0106	7
35.0363	0
36.0730	0
36.2641	0
37.0066	3
38.0050	13
38.3461	0
39.0197	114
39.6084	0
40.0281	14
41.0359	252
42.0306	11
43.0175	999
44.0228	9
45.0299	13
45.6562	0
45.9715	0
47.0162	0
47.7715	0
47.9957	0
49.0092	1
49.3442	0
50.0093	24
51.0189	64
52.0264	28
52.3981	0
53.0325	128
54.0406	7
55.0447	284
56.0493	9
57.0639	223
57.7310	0
58.0544	5
59.0460	49
60.0829	1
61.0136	5
62.0161	16
63.0271	48
64.0288	11
65.0371	97
66.0459	21
67.0486	178
68.0552	10
69.0504	232
70.0493	11
71.0390	78
71.7119	0
72.0386	1
73.0146	3
73.4993	0
74.0095	10
75.0440	17
76.0155	12
77.0332	269
78.0462	57
79.0466	261
80.0434	45
81.0591	251
82.0458	15
83.0593	161
84.0623	5
85.0586	191
85.5410	1
86.0294	7
87.0443	131
88.0322	4
89.0361	25
89.3501	3
90.0507	10
91.0582	548
92.0681	54
93.0764	419
94.0787	31
95.0804	338
96.0712	26
97.0711	58
97.5257	0
98.0469	6
99.0745	11
100.0336	2
101.0806	12
102.0561	24
103.0627	94
104.0671	40
105.0789	641
106.0843	68
107.0901	305
108.0891	37
109.0892	238
110.0911	14
111.0764	41
111.5859	0
112.0732	3
113.0787	28
114.0490	9
115.0507	249
116.0582	92
117.0631	248
118.0695	53
119.0745	564
120.0811	69
121.0792	297
122.0672	53
123.0695	207
124.0632	19
125.0496	254
126.0286	17
127.0437	87
128.0470	271
129.0503	330
130.0577	131
131.0636	348
132.0663	76
133.0717	310
133.5159	4
134.0682	46
135.0629	216
136.0662	100
137.0575	100
138.0388	8
139.0388	46
140.0561	14
141.0407	226
142.0529	204
143.0588	392
144.0673	132
145.0754	446
146.0727	63
147.0725	237
148.0703	29
149.0721	127
150.0719	24
151.0638	252
152.0641	112
153.0623	132
154.0719	67
155.0809	254
156.0879	171
157.0988	403
158.0971	83
159.1098	273
160.1069	45
161.1049	124
162.1067	42
163.1123	121
164.1053	24
165.0915	344
166.0936	74
167.1025	165
168.1168	74
169.1212	238
170.1325	97
171.1359	238
172.1303	58
173.1346	141
174.1305	30
175.1302	115
176.1125	25
177.1166	50
178.0896	105
179.1027	184
180.1180	192
181.1204	398
182.1173	86
183.1241	226
184.1254	60
185.1228	146
186.1255	42
187.1242	82
188.1143	22
189.1097	106
190.1225	53
191.1008	101
192.1010	68
193.1110	247
194.1063	80
195.1099	201
196.1125	65
197.1187	176
198.1179	45
199.1268	99
200.1148	26
201.1172	52
202.0817	47
203.1035	86
204.0952	25
205.0982	77
206.1063	56
207.1165	172
208.1256	85
209.1199	143
210.1192	46
211.1330	113
212.1365	32
213.1281	66
214.1572	16
215.1111	73
216.1212	28
217.1162	63
218.1256	27
219.1355	94
220.1474	42
221.1582	310
222.1478	41
223.1626	82
224.1624	30
225.1657	54
226.1476	20
227.1642	37
228.1439	22
229.1473	56
230.1559	20
231.1601	63
232.1633	33
233.1765	78
234.1814	66
235.1757	66
236.1735	21
237.1795	62
238.1905	25
239.1755	46
240.2123	47
241.1652	33
242.1918	14
243.1642	37
244.1713	18
245.1725	46
246.1834	25
247.1916	89
248.1783	21
249.1950	44
250.1932	17
251.1981	36
252.1846	19
253.1839	33
254.1835	11
255.1819	26
256.1916	11
257.1828	36
258.1806	17
259.2069	44
260.1844	14
261.1983	37
262.2110	12
263.2051	34
264.2121	17
265.2037	27
266.2113	11
267.2098	22
268.2086	15
269.2187	26
270.2133	10
271.2209	52
272.2255	23
273.2226	33
274.2468	32
275.2255	25
276.2282	9
277.2248	24
278.2484	9
279.2421	19
280.2329	5
281.2287	22
282.2310	8
283.2353	25
284.2461	13
285.2492	38
286.2463	37
287.2548	55
288.2587	8
289.2550	18
290.2642	8
291.2562	19
292.2185	6
293.2411	16
294.2380	6
295.2374	14
296.2418	6
297.2416	29
298.2496	21
299.2484	89
300.2331	15
301.2387	14
302.2460	4
303.2251	12
304.2155	7
305.2204	10
306.2207	4
307.2133	12
308.2331	4
309.2341	19
310.2575	7
311.2383	29
312.2621	26
313.2481	25
314.2312	4
315.2477	9
316.2232	4
317.2418	10
318.2367	5
319.2462	14
320.2574	8
321.2402	11
322.2423	5
323.2446	14
324.2662	7
325.2482	61
326.2511	8
327.2621	11
328.2177	3
329.2577	6
330.2916	4
331.2461	8
331.6613	2
332.2581	5
333.2463	10
334.2905	6
335.2617	13
336.2855	10
337.2570	26
338.2826	8
339.3049	9
340.2940	22
341.2355	4
342.2393	3
343.2448	4
344.2266	2
344.6658	1
345.2738	6
345.6908	1
346.2559	5
347.2430	8
348.2716	6
349.2813	13
350.2943	8
351.2869	29
352.2859	451
353.2931	25
353.7616	2
354.2988	2
355.2776	4
356.2597	2
357.2851	4
358.2499	2
359.2676	6
360.2791	4
361.2827	10
362.3264	8
363.2936	15
364.3105	12
365.3019	71
366.3172	12
367.3083	7
368.2772	2
369.2670	4
369.7507	1
370.2776	1
371.2086	4
372.2611	3
373.3105	6
374.3074	6
375.3076	9
376.3176	10
377.3244	20
378.3315	12
379.3274	20
380.3379	3
381.3295	2
382.3005	1
383.2891	2
385.1756	4
386.3388	2
387.3040	9
388.3508	4
389.3306	10
389.8165	1
390.3473	12
391.3305	30
392.3267	19
393.3405	2
393.7324	1
394.3641	1
395.2967	2
397.3253	2
399.3160	4
400.2523	6
401.3040	6
402.3798	6
403.3373	12
403.8129	1
404.3301	10
405.3518	25
406.3609	2
407.2980	2
407.7145	1
408.2816	1
409.3375	2
409.8310	1
410.4592	1
411.3486	3
412.2413	1
413.3354	3
414.2853	2
415.2897	4
416.3742	2
417.3597	11
418.3645	39
419.3726	66
420.3727	73
421.3266	2
422.2165	1
423.2346	2
424.2384	1
425.2919	3
426.3936	3
427.3705	7
428.3795	3
429.3518	5
430.3399	3
431.3689	3
432.3756	2
433.3584	12
434.3477	2
434.8727	0
435.3658	2
436.2464	1
437.3817	1
438.3857	2
439.3723	4
440.3541	8
441.3889	3
442.3453	16
443.3370	2
444.3881	4
445.3592	8
445.7358	1
446.3993	3
447.3658	7
448.3563	34
449.3197	4
450.1389	1
450.5798	1
451.3751	1
451.6300	1
452.2746	1
453.3571	6
454.3658	95
455.3474	6
456.4205	2
457.3894	4
458.3857	1
459.3628	2
460.3094	1
461.3236	3
461.6911	1
462.3989	1
463.3811	3
463.7664	1
464.4373	2
465.3491	2
466.4253	2
467.3599	3
468.3827	2
469.3590	2
470.4525	2
471.4387	4
472.4201	3
473.3808	11
474.2966	2
475.3184	3
475.7948	1
477.4583	4
478.3841	2
479.3869	3
480.3738	9
481.3944	25
483.4102	4
485.1406	6
486.2483	3
487.4412	5
489.4659	4
490.8679	6
492.3582	3
493.3959	8
494.4136	8
495.4096	2
496.3961	2
497.4356	2
498.4624	2
499.4683	6
502.4673	12
505.4044	15
506.4237	9
507.4302	66
508.4400	43
509.4065	2
510.3409	1
511.3942	2
512.5247	2
513.4144	2
514.4631	5
515.4011	4
516.4227	2
516.8387	1
520.4549	613
521.4594	11
522.0298	3
523.3440	1
524.4675	1
525.4437	2
526.4311	8
527.4988	2
528.4094	1
529.4723	1
530.4199	1
531.4589	1
532.3729	1
532.6616	0
533.2485	1
534.3984	1
534.9806	1
535.5483	1
535.9862	0
536.5091	1
537.3576	1
537.8276	0
538.5944	1
539.5280	2
540.4633	2
541.4741	3
542.4481	9
543.3867	3
544.2997	2
545.3781	1
546.3138	2
547.4083	1
548.3264	1
548.7581	1
549.5078	1
550.0856	1
551.3971	1
552.2688	1
553.3573	2
554.5486	2
555.5024	7
556.5526	5
557.4614	7
558.3591	3
559.4753	2
559.9057	1
560.8131	2
564.0128	3
565.6818	3
567.4510	7
568.4279	3
569.4562	4
570.5182	8
571.5692	5
572.5447	7
582.5383	161
583.5240	40
585.4570	273
600.3367	999
604.6078	38
