Mass spectrum: 4-Keto-deepoxyneoxanthin; FAB-EBEB; MS2; m/z: 598.40; [M]*+
Name: 4-Keto-deepoxyneoxanthin
Class: Natural Product; Carotenoid
Formula: C40H54O4
Exact mass: 598.40221
SMILES: CC(=C1C=CC(=CC=CC(C)=CC=CC=C(C)C=CC=C(C)C=C=C(C(C)(O)2)C(C)(C)CC(C2)O)C)C(=O)C(O)CC1(C)C
InChI: InChI=1S/C40H54O4/c1-28(17-13-19-30(3)21-23-34-32(5)37(43)35(42)27-38(34,6)7)15-11-12-16-29(2)18-14-20-31(4)22-24-36-39(8,9)25-33(41)26-40(36,10)44/h11-23,33,35,41-42,44H,25-27H2,1-10H3/b12-11+,17-13+,18-14+,23-21+,28-15+,29-16+,30-19+,31-20+/t24?,33-,35-,40+/m0/s1
Instrument: JMS-HX/HX 110A, JEOL
Instrument type: FAB-EBEB
Ms type: MS2
Ion mode: POSITIVE
Collision energy: 3 kV
Ionization: FAB
Base peak: 598.3449
Precursor m/z: 598.40
Precursor type: [M]+*
m/z	relative intensity
38.9823	31
41.0000	68
42.9819	215
52.9861	35
54.9977	89
64.9839	32
66.9966	41
68.9993	70
76.9836	87
78.9951	74
81.0070	81
83.0016	66
84.9946	33
86.9885	35
90.9950	184
93.0193	93
95.0361	63
103.0124	34
105.0276	202
107.0403	88
109.0423	53
114.9968	101
115.9968	35
117.0105	86
119.0189	173
121.0274	73
125.0294	32
126.9774	39
127.9856	125
128.9892	127
129.9948	48
131.0023	112
133.0120	100
135.0114	72
140.9755	96
141.9842	82
143.0000	150
144.0057	47
145.0150	136
147.0235	72
149.0226	32
151.9904	37
152.9930	63
155.0164	108
156.0265	73
157.0402	134
158.0500	31
159.0453	93
161.0620	43
165.0317	94
166.0382	34
167.0530	116
168.0523	36
169.0659	93
170.0770	42
171.0827	76
173.0802	52
178.0378	52
179.0353	85
180.0452	35
181.0462	79
183.0529	75
185.0609	53
189.0316	36
191.0238	42
192.0193	32
193.0245	77
194.0344	32
195.0373	78
197.0482	63
199.0567	32
203.0233	30
205.0132	36
207.0379	56
209.0578	56
211.0504	36
219.0428	36
221.0603	41
223.0873	38
233.1086	76
235.1062	33
381.2354	32
506.3035	39
580.4120	483
583.3934	109
598.3449	999
