Mass spectrum: 2,6-Cyclolycopene-1,5-diol; FAB-EBEB; MS2; m/z: 570.44; [M]*+
Name: 2,6-Cyclolycopene-1,5-diol
Class: Natural Product
Formula: C40H58O2
Exact mass: 570.44368
SMILES: C(C=CC=C(C)C=CC=C(C)C=CC(C(C)(O)1)C(CC1)C(C)(C)O)=C(C=CC=C(C)C=CC=C(CCC=C(C)C)C)C
InChI: InChI=1S/C40H58O2/c1-31(2)17-13-20-34(5)23-15-25-35(6)24-14-21-32(3)18-11-12-19-33(4)22-16-26-36(7)27-28-38-37(39(8,9)41)29-30-40(38,10)42/h11-12,14-19,21-28,37-38,41-42H,13,20,29-30H2,1-10H3/b12-11+,21-14+,22-16+,25-15+,28-27+,32-18+,33-19+,34-23+,35-24+,36-26+
Instrument: JMS-HX/HX 110A, JEOL
Instrument type: FAB-EBEB
Ms type: MS2
Ion mode: POSITIVE
Collision energy: 3 kV
Ionization: FAB
Base peak: 570.4315
Precursor m/z: 570.44
Precursor type: [M]+*
m/z	relative intensity
1.6148	0
12.9922	0
13.9863	1
14.9941	3
18.9529	0
18.9996	0
22.9626	0
23.9811	0
24.9690	0
25.9772	4
26.3483	0
26.9879	24
27.9977	2
29.0070	21
29.9921	0
30.9813	9
35.8668	0
36.6083	0
36.9625	2
37.1258	0
37.2042	0
37.4536	0
37.5703	0
37.7006	0
37.9697	5
38.0908	0
38.9930	51
39.3958	0
39.5931	0
40.0018	6
40.1630	0
40.4783	0
40.8052	1
41.0001	192
41.9991	3
42.9809	317
43.2572	0
43.7801	0
43.9968	2
44.3545	0
44.9863	6
45.2707	0
45.9628	0
48.3323	0
48.9652	1
49.2984	0
49.5569	0
49.9694	12
50.5103	0
50.9821	34
51.1656	0
51.2484	0
51.3502	0
51.6066	0
51.9913	10
52.3399	0
52.6653	0
52.9887	69
54.0000	5
55.0103	140
55.2514	0
56.0033	2
57.0072	17
57.3893	0
58.0029	8
58.3117	0
58.4369	0
58.5943	0
58.7158	0
59.0099	244
59.5553	0
60.0089	1
60.9717	5
61.2930	0
61.4573	0
61.5996	0
61.9686	5
62.2933	0
62.6101	0
62.7293	0
62.9751	24
63.2051	1
63.5626	0
63.6466	0
63.8209	0
63.9881	4
64.2341	0
64.3323	0
64.5395	0
64.6602	0
64.9941	42
65.2019	0
65.5174	0
65.6274	0
65.9974	8
66.1998	0
66.3505	0
66.6404	0
66.9995	91
67.5924	0
67.7180	0
67.9986	4
68.2938	0
68.5047	0
68.6903	0
69.0208	586
69.3222	1
69.4149	0
69.5288	0
70.0148	3
71.0003	92
71.2488	0
71.5594	0
72.0127	1
72.3914	0
73.0217	2
73.1427	0
73.9467	4
74.9766	6
75.2138	1
75.4489	1
75.6075	0
75.9790	5
76.1634	1
76.5355	1
76.9903	150
77.2349	1
77.5030	0
77.9954	31
78.3807	1
78.6017	0
79.0082	171
79.3506	0
79.5810	1
80.0128	23
80.4063	0
80.4741	0
81.0268	240
81.4787	1
81.7525	0
82.0129	9
83.0325	35
83.4387	0
84.0197	2
85.0221	14
85.2238	0
85.4173	0
85.7268	0
85.9756	1
86.2574	0
86.3784	0
86.5305	0
86.9644	4
87.6149	0
87.9755	2
88.1444	0
88.2575	0
88.4922	0
88.9782	12
89.2132	2
89.3712	1
89.5836	1
89.9869	6
90.1796	1
90.4722	2
91.0047	304
91.3251	1
91.4632	0
91.6263	0
92.0169	33
92.2792	0
92.4741	0
92.5829	1
93.0352	320
93.3790	1
93.6657	1
94.0494	14
94.2285	0
94.4802	0
95.0584	175
95.3838	0
95.5145	0
95.6562	0
95.8060	0
96.0401	3
96.3209	0
96.7880	0
97.0429	20
97.6156	0
97.9882	1
98.1632	0
98.4784	0
98.5762	0
99.0251	4
99.3760	0
99.6802	0
99.9970	0
100.0698	0
100.5429	0
101.0084	5
101.2147	0
101.4768	0
101.6741	1
102.0106	14
102.2638	1
102.3604	0
102.5604	1
103.0209	55
103.4123	1
104.0257	23
104.3096	1
104.5104	0
105.0348	453
105.4843	1
105.5634	1
106.0463	33
106.3325	0
106.4760	1
107.0632	238
107.3093	1
107.4621	0
107.6136	0
108.0559	10
108.2500	0
108.3893	0
108.5229	0
109.0610	76
109.4506	1
109.5557	0
110.0445	2
110.1892	0
110.2844	0
110.5125	0
110.6360	0
111.0423	10
111.5286	0
112.0347	0
112.1798	0
112.3018	0
112.6054	1
113.0388	7
113.3862	1
113.9965	3
114.9936	129
115.2802	1
115.6042	2
116.0187	53
116.6214	2
117.0233	174
117.3544	1
117.5533	0
118.0229	35
118.3368	0
118.5030	1
118.6693	1
119.0298	359
119.4134	1
119.5621	1
119.6586	0
120.0381	27
120.2543	0
120.4401	0
121.0511	128
121.3039	1
121.4988	0
121.5969	0
122.0342	6
122.2995	0
122.4092	0
122.5776	0
122.7314	0
123.0531	32
123.4605	0
123.6107	0
123.7992	0
124.0741	2
124.3081	0
124.4366	0
124.6106	0
125.0266	15
125.2225	0
125.5254	0
125.6260	0
125.9996	6
126.2490	1
126.3791	1
126.9866	46
127.9993	151
128.6209	4
129.0043	207
129.3814	1
129.4915	1
129.6628	1
130.0099	88
131.0102	222
131.3283	1
131.5044	1
132.0299	66
132.4904	1
133.0327	251
133.4931	1
133.6529	1
134.0269	14
134.3014	1
134.5817	1
135.0404	62
135.2933	1
135.5152	0
135.6936	0
136.0370	3
136.2610	0
136.3760	0
136.5611	0
136.6579	0
137.0452	9
137.6778	0
138.0181	2
138.1710	1
138.3187	0
138.5107	1
139.0141	28
139.3666	0
139.5197	1
139.6246	0
140.0112	6
140.3941	2
140.9879	114
141.3652	1
141.5513	1
142.0106	136
142.5419	2
143.0206	296
143.5624	1
144.0206	78
144.2498	2
145.0379	319
145.4568	1
145.6509	1
146.0393	20
146.3457	1
146.5045	0
146.6443	1
147.0508	71
147.3798	1
147.5112	0
147.6446	0
148.0317	5
148.2828	0
148.4439	0
148.7609	1
149.0556	11
149.3610	1
149.5413	0
149.9620	2
150.2999	1
150.5358	1
151.0294	13
151.3663	1
152.0034	48
152.9994	66
153.3475	1
154.0214	35
154.4584	1
155.0443	159
155.3500	1
155.4612	1
155.5757	1
156.0490	98
157.0625	277
157.4237	1
157.6948	1
158.0748	42
158.3779	1
158.5080	2
159.0781	148
159.3669	2
159.6232	2
159.7108	1
160.0735	7
160.4223	1
160.6071	1
161.0937	36
161.4136	0
161.6018	1
162.0748	2
162.3543	0
162.4608	0
162.6885	1
163.0673	9
164.0466	6
165.0361	90
165.3356	1
166.0602	35
166.3099	1
167.0632	90
167.5095	0
168.0694	44
169.0875	174
169.3635	2
170.0951	54
171.0973	129
171.6428	2
172.1090	19
172.6168	1
173.1021	56
173.3895	1
173.6436	1
173.8162	1
174.1072	4
174.4905	0
174.6525	1
174.7943	1
175.1096	19
175.4879	0
176.0390	7
176.2440	1
176.5663	1
176.6682	0
177.0790	12
177.5577	2
178.0385	42
178.3847	1
179.0510	86
180.0642	37
180.3752	1
181.0572	103
181.4416	1
182.0703	42
182.3743	1
182.5444	1
183.0739	137
183.3680	1
183.6326	1
184.0816	31
184.3665	1
184.5315	1
185.0859	78
185.6897	1
186.0948	11
186.3429	1
187.0922	25
187.4727	0
187.6009	1
188.0659	4
188.4297	1
188.5485	1
189.0340	18
189.3427	2
189.7142	1
190.0480	8
191.0369	34
191.2912	1
191.5840	1
192.0521	33
192.4114	1
193.0401	69
193.4639	1
194.0571	40
194.4520	1
195.0631	110
195.3796	1
196.0664	32
196.6685	1
197.0769	117
197.5532	1
198.0758	22
198.4356	1
198.6223	1
199.0894	43
199.4895	1
200.0676	8
200.4156	1
200.5311	1
200.6901	1
201.0919	13
201.4597	1
202.0126	18
202.4153	0
203.0331	25
203.5626	1
204.0378	12
204.2489	1
205.0246	32
205.4068	1
206.0494	26
206.4120	1
207.0638	63
207.6080	1
208.0609	25
208.3386	1
209.0756	92
210.0805	18
210.2949	1
210.5859	2
211.0927	47
212.0925	11
212.3898	1
212.7220	1
213.0995	17
213.4852	1
214.0735	4
214.5093	1
215.0520	20
215.3422	1
215.5790	1
215.7173	1
216.0699	10
216.3171	1
216.4637	1
217.0486	22
217.3315	1
217.4254	1
217.5234	0
218.0867	12
218.6179	1
219.0710	30
219.4646	1
219.5585	0
219.6717	1
220.0901	16
220.4241	2
220.6849	2
221.1020	53
221.3800	1
221.5824	1
221.6806	1
222.1048	14
222.3554	1
222.4509	0
222.6205	1
223.1225	47
223.5504	1
223.7565	1
224.1192	10
224.3790	1
224.5157	1
224.6311	1
225.1439	23
225.5110	1
226.1181	5
226.4901	2
226.7556	1
227.1133	8
227.4896	1
227.7339	1
228.0773	5
228.3773	1
228.5246	0
229.0872	18
229.6625	0
230.0948	8
230.4283	1
230.6304	0
231.0932	19
231.4206	1
231.5451	1
232.1050	12
232.5825	1
233.1097	31
233.3877	0
233.6748	1
234.1216	11
234.5492	1
235.1215	29
235.5334	0
235.7263	1
236.1286	9
236.4256	1
237.1320	22
237.5511	0
237.7076	0
237.8262	0
238.1599	5
238.4902	1
238.6881	1
239.1227	13
239.4662	0
239.6814	0
239.8201	0
240.0726	3
240.2479	2
240.3783	0
240.6695	0
241.1237	11
241.6794	5
242.0971	4
242.2214	2
242.5149	1
242.7815	1
243.1289	14
243.3858	1
243.4943	0
243.6774	1
244.1161	5
244.2474	2
244.4512	1
244.5653	0
244.8251	1
245.1182	17
245.4493	0
245.7334	1
246.1261	8
246.4753	1
246.6005	0
247.1289	25
247.6671	1
248.1375	8
248.3887	0
248.6793	1
249.1472	24
249.5064	1
250.1246	6
250.3981	1
250.6938	0
251.1619	12
251.6135	1
252.1539	6
252.4726	1
252.6728	0
253.1441	10
253.5065	0
253.7297	0
254.1671	2
254.4950	0
255.1682	10
255.4597	0
255.6079	0
255.8455	0
256.1406	5
256.4350	1
256.5714	0
256.6961	0
257.1292	8
257.3329	1
257.6017	1
257.7598	0
258.1306	5
258.4300	1
258.5638	0
258.7724	0
259.1316	12
259.4699	0
259.6391	1
260.1516	5
260.7300	0
261.1462	15
261.5015	0
261.6256	0
261.8380	1
262.1488	6
262.3681	1
262.5451	0
263.1753	17
263.3745	2
263.6522	0
263.8487	0
264.1646	5
264.5410	1
265.1702	12
265.6967	0
266.1677	5
266.3136	2
266.5088	1
267.1842	11
267.5512	0
267.8216	1
268.1490	4
268.4604	0
268.7232	1
269.1563	8
269.6507	1
270.1431	4
270.4387	0
270.6425	1
270.8637	1
271.1789	8
271.5135	0
272.1544	3
272.6324	0
272.7325	0
273.1685	10
273.4154	1
273.7187	1
274.1493	4
274.3614	1
274.7350	0
275.1887	11
275.5978	0
275.9507	1
276.1887	3
276.6989	0
276.8103	0
277.1876	7
277.5385	0
277.7126	1
278.2104	4
278.3685	1
278.4604	1
278.6499	0
278.7585	0
279.1973	5
279.5031	0
279.7372	0
279.8786	0
280.2011	2
280.3607	1
280.5600	0
281.1878	7
281.6806	1
281.8060	1
282.1413	2
282.2758	1
282.7910	0
283.1766	6
283.5942	0
284.0126	1
284.1884	1
284.4716	0
284.7059	0
284.7980	0
285.1719	10
285.7223	0
285.9770	1
286.2051	2
286.4284	0
286.7822	0
287.1793	7
287.5652	0
288.1718	2
288.3527	1
288.4706	0
288.6431	0
289.1693	6
289.6586	0
290.2323	2
290.4080	1
290.5801	1
290.8339	1
291.2076	6
291.5940	1
291.7620	0
292.2502	3
292.5432	0
292.8110	0
293.1856	4
293.4165	0
293.5700	0
293.8979	0
294.2607	1
294.6299	0
294.9160	0
295.1840	5
295.4861	0
295.6886	0
295.8568	0
296.1081	1
296.3112	1
296.5207	0
296.6938	0
296.8432	0
297.1769	4
297.5065	0
297.7146	0
297.8522	0
298.1825	2
298.4709	0
298.6239	0
299.1338	3
299.4488	0
299.6738	1
299.7911	0
299.9364	0
300.2264	2
300.7379	0
301.1788	7
301.3954	0
301.5010	0
301.7079	0
301.8281	0
302.2167	1
302.3684	1
302.4809	0
302.6368	0
302.7396	0
303.1989	6
303.4513	0
303.7855	0
304.2092	2
304.4456	0
304.6882	0
304.7987	0
305.1925	2
305.5240	0
305.8486	0
306.1879	2
306.3320	1
306.5909	0
306.7259	0
307.0869	2
307.2332	3
307.4067	1
307.7013	0
307.9035	0
308.2276	1
308.4270	1
309.1536	3
309.4455	0
309.5603	0
309.6625	0
309.8326	0
310.0216	0
310.2205	1
310.3059	0
310.5776	0
311.1707	2
311.4228	0
311.5838	0
311.9445	0
312.1729	2
312.3522	0
312.5189	0
312.8152	0
313.1514	3
313.3063	2
313.6965	0
313.8457	0
314.1302	1
314.2942	1
315.1694	4
315.6117	0
315.8198	0
316.0939	2
316.2937	2
316.5734	0
316.8082	0
317.2429	5
317.6720	1
317.7919	0
317.9665	0
318.1993	2
318.4019	0
318.5205	0
318.7463	0
319.2351	6
319.4287	1
319.7303	0
320.1905	1
320.5027	0
320.7089	0
320.8675	0
321.2470	4
321.3853	2
321.5298	0
321.6779	0
321.8175	0
322.2540	1
322.5634	0
322.8666	0
323.1832	1
323.4485	0
323.7033	0
324.0367	1
324.2495	0
324.3913	0
324.6945	0
325.1980	3
325.3826	1
325.5266	0
325.6726	0
325.9325	0
326.1740	1
326.3461	0
326.6748	0
327.2036	3
327.5415	0
327.7495	0
328.0768	1
328.2981	1
328.5285	0
329.2234	5
329.6288	0
329.8790	0
330.2311	2
330.4560	0
330.6345	0
331.2390	4
331.6537	0
331.7633	0
331.9538	1
332.2652	4
332.6216	0
332.9154	0
333.2704	6
333.6057	0
333.9256	0
334.0084	0
334.3031	2
334.7079	0
335.2560	3
335.4314	1
335.5367	0
335.8223	0
336.1262	1
336.2778	1
336.3915	0
336.5101	0
336.9544	1
337.2099	2
337.4261	0
338.2342	1
338.7088	0
338.9138	0
339.1807	1
339.3702	1
339.5774	0
339.7825	1
339.9348	0
340.2741	2
340.4967	0
340.6842	0
340.8683	0
341.2159	3
341.3831	1
341.6037	1
341.7892	0
342.2549	2
342.4390	0
342.6111	0
343.2224	6
343.4163	1
343.6349	0
343.8197	0
344.0179	0
344.2512	2
344.7684	0
345.2147	4
345.7278	0
345.8572	0
346.2509	4
346.5447	0
346.8238	0
347.2224	3
347.4256	2
347.6591	0
347.9678	0
348.2835	3
348.5831	0
348.6738	0
349.2083	2
349.5818	0
349.7773	0
350.2380	1
350.7177	0
351.1715	1
351.4571	0
351.6914	0
352.1065	1
352.7096	1
353.1719	1
353.3816	0
353.8180	0
354.1797	1
354.3669	0
354.5908	1
354.9068	1
355.0251	0
355.2940	4
355.7924	0
355.9177	0
356.0465	0
356.3042	2
356.5274	0
356.7069	0
356.8309	0
357.2618	5
357.4709	0
357.6617	0
357.8272	0
357.9843	0
358.3040	3
358.6519	0
358.7752	0
358.9182	1
359.2743	4
359.5818	0
359.7366	0
360.2757	1
360.7656	0
360.9782	0
361.2816	2
361.6673	0
362.2080	2
362.3706	1
362.5114	0
362.9381	1
363.1979	2
363.3324	2
363.7788	0
363.9380	1
364.2211	1
364.3295	1
364.4563	0
364.5640	0
365.1753	1
365.3239	1
365.4254	0
366.0191	1
366.1706	1
366.3115	0
366.4679	0
366.8447	0
367.1674	1
367.3823	1
367.5042	0
368.1044	0
368.2890	0
368.4842	0
368.8203	0
369.2523	1
369.4285	1
369.6850	0
369.8485	0
370.1494	1
370.2812	0
370.4053	1
370.5744	0
370.9417	1
371.0516	1
371.2504	2
371.4217	1
371.5464	0
371.8023	0
372.1231	0
372.2253	0
372.3719	0
372.5404	0
372.6370	0
373.0488	1
373.3024	2
373.5002	1
373.7178	0
374.2297	2
374.4001	0
374.8029	0
374.8959	0
375.2128	2
375.3685	1
375.9819	0
376.1608	0
376.3102	1
376.5447	0
376.9941	0
377.2104	1
377.3795	1
377.8022	0
378.0086	0
378.2016	1
378.3813	1
378.6610	0
378.7632	0
378.9351	0
379.0880	0
379.3163	1
379.4826	0
379.7003	0
380.2676	3
380.4178	1
380.6193	0
380.7271	0
380.9816	0
381.2550	1
381.3896	1
381.6286	0
381.9775	1
382.0868	1
382.3828	1
382.6274	0
383.1865	2
383.3690	2
383.6779	0
383.8844	0
384.2369	2
384.3836	1
384.6128	0
385.2918	3
385.4519	1
385.7854	0
385.9977	0
386.2960	2
386.5182	0
386.6804	0
386.7679	0
387.2947	3
387.6389	0
387.7927	0
388.3147	2
389.2233	1
389.4611	1
389.7278	1
389.8922	0
390.1074	0
390.2323	0
390.4235	0
390.5413	0
390.6987	0
390.8073	0
391.1517	1
391.3726	1
391.7642	0
391.9717	0
392.1785	0
392.3422	0
392.4918	0
392.7473	0
393.0621	0
393.2202	0
393.3275	1
393.4729	0
393.7927	0
394.0976	1
394.3101	0
394.8438	1
395.0139	0
395.2462	1
395.4467	1
395.7072	0
395.9268	0
396.1075	0
396.3116	1
396.5855	0
396.9189	1
397.3002	2
397.4280	1
397.5735	0
397.8270	0
397.9562	0
398.2366	1
398.3962	1
398.5699	0
398.7521	0
398.9280	0
399.3101	2
399.5679	1
400.0179	0
400.2849	1
400.4862	1
400.5703	0
400.7108	0
400.9305	0
401.2922	3
401.4512	1
401.8617	0
402.0970	0
402.2171	1
402.4255	1
402.5661	0
402.7314	0
403.1285	1
403.3144	1
403.4465	1
403.5483	0
403.8832	0
404.1094	2
404.2225	1
404.3801	1
404.5002	0
404.6938	0
404.8246	0
405.0118	0
405.0972	0
405.3842	0
405.7247	1
406.3199	1
406.5900	1
406.9067	0
407.0604	0
407.2643	0
407.4074	0
407.5435	0
407.8094	0
407.9900	0
408.3484	1
408.4598	0
408.5981	0
408.7074	0
408.9035	0
409.1913	1
409.4065	2
409.5673	0
409.7938	1
410.0040	0
410.3327	1
410.5247	0
410.7088	0
411.2358	4
411.4052	2
411.6042	0
411.8575	1
412.2971	9
412.6323	1
412.8320	0
413.3034	3
413.4933	1
413.7248	0
413.8617	0
414.0529	1
414.3000	3
414.6077	0
414.7150	0
414.8427	0
414.9521	0
415.2098	2
415.3700	2
415.6474	0
416.1253	1
416.3329	1
416.5369	0
416.9280	1
417.3657	4
417.7654	0
418.2843	1
418.4142	1
418.5420	1
418.7687	0
418.8647	0
419.2616	1
419.4120	1
419.7552	0
420.2757	1
420.5426	0
420.8400	0
421.2665	1
421.5420	0
421.7644	0
422.2842	1
422.4958	0
422.6284	0
422.9105	0
423.1249	0
423.3365	1
423.8684	0
424.1555	1
424.3241	1
424.7565	1
425.3188	4
425.8112	0
426.3369	4
426.5062	2
426.9006	1
427.3445	4
427.5759	2
427.8850	1
428.2287	1
428.4496	1
428.6083	0
428.7876	0
429.1320	1
429.3938	1
429.6416	1
429.7122	0
429.8505	0
430.2295	1
430.3806	1
430.4758	0
430.7038	1
430.9234	0
431.1944	1
431.4245	1
431.5212	0
431.6688	0
431.8438	0
432.2950	1
432.5216	0
432.8915	1
433.0122	0
433.2657	2
433.4175	1
433.5298	1
433.7331	0
433.8743	0
434.2337	2
434.5077	1
434.6206	0
434.7329	0
434.8833	0
435.0457	1
435.2187	1
435.3677	1
435.5174	0
435.8373	0
436.1142	0
436.2787	0
436.5174	1
436.9623	0
437.4984	1
437.5888	0
437.7491	1
437.9702	1
438.2393	1
438.3849	1
438.6505	1
438.8984	0
439.2692	2
439.3759	1
439.5016	2
439.6154	0
439.7828	1
439.9100	1
440.0647	0
440.3713	1
440.6249	1
440.8390	2
441.2700	3
441.7780	2
442.2987	7
443.0385	8
443.8406	3
444.2583	2
444.5219	1
444.7862	1
445.0957	1
445.2880	1
445.5573	1
445.9269	1
446.2457	3
446.4026	2
446.5800	1
446.7681	1
446.9102	1
447.4333	2
447.8687	1
448.2187	1
448.5552	1
448.7828	1
449.0550	1
449.2791	1
449.5747	1
449.6956	0
449.7960	0
449.9989	1
450.2817	1
450.3963	0
450.5186	0
451.2745	2
451.8331	1
452.0665	0
452.2871	1
452.4547	0
452.7412	0
452.8798	0
453.2624	3
453.4477	1
453.6203	0
453.7907	0
454.1939	2
454.4315	1
454.5702	1
454.7307	1
454.8269	0
454.9649	1
455.2648	2
455.8781	2
456.2403	2
456.4985	2
457.1359	4
457.8213	3
458.1216	3
458.4530	2
458.6389	1
458.7894	0
459.0304	1
459.4106	2
459.5916	2
459.8226	1
460.3661	2
460.6552	1
460.8192	0
461.0129	0
461.2525	1
461.5699	1
461.7805	1
461.9183	0
462.1898	1
462.4421	1
462.7023	1
462.9469	1
463.0685	1
463.2176	1
463.6156	2
463.9189	2
464.3686	5
464.7588	3
465.8173	8
466.2182	5
466.7881	2
467.2442	4
467.4988	3
467.9076	1
468.3913	4
468.6487	1
468.9436	1
469.0971	1
469.4380	3
469.7711	1
470.0456	1
470.3285	2
470.5067	2
470.6602	1
470.8258	1
470.9771	1
471.3980	2
471.8274	1
472.3275	2
472.6508	1
472.7973	0
472.9373	1
473.3243	2
473.6300	2
473.8719	1
474.0446	1
474.3976	1
474.5788	1
474.8632	1
475.1434	1
475.4243	1
475.8524	2
476.3626	6
476.5254	2
477.3392	2
477.6789	3
478.3795	121
478.8056	3
479.2592	2
479.7193	1
480.0385	1
480.2155	1
480.4080	2
480.6402	1
480.7506	0
481.3325	2
481.5590	2
481.7211	1
482.0255	1
482.4510	3
483.3586	15
483.5696	9
483.7693	2
484.0072	2
484.2758	2
484.4800	2
484.7112	1
484.9218	1
485.4583	3
485.9560	1
486.2826	6
486.4565	6
486.6827	2
486.9280	1
487.3875	3
487.6138	1
487.8874	1
488.1101	1
488.2932	1
488.4473	1
488.7153	0
488.9889	1
489.3064	1
489.5871	0
489.8883	0
490.0255	0
490.4109	2
490.5706	1
490.7658	0
490.8952	0
491.4298	8
491.9369	0
492.2792	0
492.4793	0
492.6731	0
492.8181	1
492.9404	0
493.3853	3
493.7170	0
493.8790	1
494.3776	5
494.5785	3
494.6810	1
494.9817	1
495.3077	1
495.5376	1
495.8814	1
496.0427	1
496.3752	3
496.5562	2
496.7628	1
496.9651	2
497.3620	2
497.7079	1
497.8261	1
497.9527	1
498.3843	4
498.6029	2
498.9546	1
499.2786	1
499.5941	1
499.7159	1
500.3583	9
500.7921	1
501.3752	58
501.8132	1
502.0623	2
502.3085	2
502.5555	2
502.8259	0
503.0311	1
503.2795	1
503.6341	1
503.7919	1
503.9589	0
504.1252	0
504.2972	0
504.5379	0
504.9342	1
505.2492	0
505.5245	1
505.6484	0
505.9046	0
506.1156	0
506.2090	0
506.4695	0
506.6981	0
507.0089	0
507.2021	1
507.4888	0
507.7883	0
507.9461	0
508.5720	1
508.7164	0
508.9104	1
509.4144	2
509.8024	1
510.3737	17
511.3949	5
511.6675	1
511.7770	1
512.3802	4
512.8372	0
513.1353	0
513.4150	1
513.5732	1
513.9399	1
514.0218	0
514.2006	2
514.3976	3
514.5587	1
514.8010	1
515.4057	4
515.5449	2
515.7914	1
516.2775	2
516.5552	1
516.6838	0
516.8180	0
517.0448	0
517.2271	0
517.4221	0
517.6058	0
517.7513	0
518.2000	0
518.5985	0
518.7490	0
518.9229	0
519.0564	0
519.3630	1
519.4995	0
519.6302	0
520.0075	0
520.1531	0
520.3870	1
520.4697	0
520.6478	0
520.8513	0
521.0704	0
521.2788	1
521.3842	0
521.5580	0
521.7452	0
521.8350	0
522.0400	0
522.2039	1
522.4605	1
522.7255	0
522.9849	0
523.1368	1
523.3644	0
523.6083	1
523.8479	1
524.0833	0
524.4557	1
524.6410	0
524.9216	1
525.2496	1
525.4758	1
525.7359	1
526.2512	2
526.4393	1
526.5750	1
526.8719	1
526.9850	0
527.3583	2
527.5972	1
527.7719	1
528.3148	2
528.5015	2
528.6796	2
528.8557	1
529.0105	1
529.1894	1
529.4269	1
529.7515	1
530.0004	1
530.1602	0
530.3228	0
530.4649	0
530.6530	2
530.8312	0
531.0433	1
531.1904	1
531.3983	1
531.5178	1
531.6917	1
531.7935	1
531.9838	0
532.1959	1
532.4957	0
532.6760	0
532.8359	1
533.1760	1
533.3458	2
533.5607	1
533.8054	1
534.4355	5
534.5954	3
534.7531	1
535.1216	1
535.3564	1
535.6160	0
535.8423	1
536.0467	1
536.4584	1
536.7285	0
536.9634	1
537.4309	6
537.7011	2
537.9586	1
538.2557	1
538.5620	1
538.7778	0
539.1329	1
539.4151	0
539.8113	1
539.9712	1
540.3928	10
540.7126	3
541.1314	3
541.6649	4
542.4523	3
542.8655	4
543.2476	3
543.4005	2
543.8349	4
544.3875	4
544.7958	4
545.2742	5
545.6677	3
546.1340	5
546.5925	4
546.8947	4
547.1665	4
547.8381	6
548.6166	8
551.4805	22
552.4786	270
552.9515	16
553.4520	11
554.3325	20
554.6315	9
555.4357	21
555.9968	8
556.5396	6
557.2464	6
557.8302	6
558.2324	6
558.9336	6
559.7557	8
560.6428	7
561.6155	8
570.4315	999
571.3432	279
572.1445	121
572.9714	61
573.8449	28
574.7737	16
575.5151	10
575.8008	7
