Mass spectrum: Adonirubin; FAB-EBEB; MS2; m/z: 580.39; [M]*+
Name: Adonirubin
Class: Natural Product; Carotenoid
Formula: C40H52O3
Exact mass: 580.39165
SMILES: CC(=C1C=CC(=CC=CC(C)=CC=CC=C(C)C=CC=C(C=CC(=C2C)C(CCC2=O)(C)C)C)C)C(=O)C(O)CC1(C)C
InChI: InChI=1S/C40H52O3/c1-28(17-13-19-30(3)21-23-34-32(5)36(41)25-26-39(34,7)8)15-11-12-16-29(2)18-14-20-31(4)22-24-35-33(6)38(43)37(42)27-40(35,9)10/h11-24,37,42H,25-27H2,1-10H3/b12-11+,17-13+,18-14+,23-21+,24-22+,28-15+,29-16+,30-19+,31-20+/t37-/m0/s1
Instrument: JMS-HX/HX 110A, JEOL
Instrument type: FAB-EBEB
Ms type: MS2
Ion mode: POSITIVE
Collision energy: 3 kV
Ionization: FAB
Base peak: 580.3351
Precursor m/z: 580.39
Precursor type: [M]+*
m/z	relative intensity
0.9386	0
2.4148	0
4.2602	0
4.8752	0
5.5218	0
8.0345	0
11.9603	1
12.9643	0
13.9671	1
14.9765	4
15.9687	0
21.8139	0
22.9272	1
24.9480	1
25.2426	0
25.4915	0
25.9463	5
26.9550	44
27.9627	5
28.9621	34
29.9380	1
30.9327	2
32.1420	0
35.9533	1
36.3499	0
36.4719	0
36.9266	7
37.1239	0
37.1777	0
37.9345	13
38.2609	0
38.5347	0
38.9392	110
39.1304	0
39.2404	0
39.3136	0
39.4043	0
39.7397	0
39.9482	10
40.3560	0
40.5421	0
40.9562	223
41.2012	0
41.5829	0
41.9504	7
42.4805	0
42.9423	164
43.3330	1
43.4893	0
43.9434	2
44.9447	2
46.8804	0
47.8718	0
48.0701	0
48.3742	0
48.9219	3
49.3000	0
49.6413	0
49.9244	32
50.3792	0
50.6235	0
50.6976	0
50.9308	72
51.1049	0
51.3224	0
51.6478	0
51.9389	27
52.9453	123
53.3483	0
53.9519	5
54.5806	0
54.9500	288
55.5221	0
55.9656	26
56.9664	40
57.3588	0
57.4442	0
57.7028	0
57.9340	2
58.1146	0
58.9520	10
59.5513	0
59.9556	0
60.1098	0
60.9351	3
61.1160	0
61.2140	0
61.6404	0
61.9346	18
62.1210	0
62.5453	0
62.9359	65
63.1443	1
63.3054	0
63.5079	0
63.6207	0
63.7185	0
63.9370	11
64.1904	0
64.4032	0
64.5237	0
64.9439	111
65.2023	0
65.6174	0
65.9453	20
66.3978	0
66.5062	0
66.5864	1
66.9512	130
67.6663	0
67.9553	3
68.6059	0
68.9614	288
69.1571	0
69.3825	1
69.9399	6
70.2295	0
70.3745	1
70.7048	0
70.9441	27
71.2917	0
71.4746	0
71.7088	0
71.8263	0
71.9703	0
72.7724	0
72.9348	3
73.9128	16
74.1908	0
74.9284	20
75.0873	2
75.3412	1
75.9016	17
76.1288	1
76.5736	2
76.9271	272
77.1497	2
77.4598	1
77.9276	52
78.2055	1
78.4290	2
78.5984	1
78.9423	217
79.2169	0
79.4593	1
79.5378	0
79.9441	25
80.5348	1
80.6787	1
80.9535	222
81.4130	0
81.5448	1
81.7662	0
81.9409	4
82.4796	0
82.6171	0
82.9440	57
83.5547	0
83.9482	1
84.6107	0
84.9358	37
85.1515	0
85.2510	0
85.3631	0
85.6354	0
85.8995	5
86.6821	0
86.9199	8
87.0776	0
87.5217	0
87.9283	5
88.2127	0
88.5003	2
88.9254	27
89.3594	1
89.9273	10
90.0710	2
90.3071	2
90.4746	2
90.9352	489
91.2265	1
91.4364	1
91.9375	46
92.1637	1
92.2764	1
92.4625	1
92.9483	249
93.1963	1
93.2837	0
93.4225	1
93.6811	0
93.9589	17
94.1750	1
94.3563	0
94.5805	0
94.6926	1
94.9617	117
95.1924	1
95.3212	0
95.5158	0
95.9341	5
96.2783	0
96.3792	0
96.4893	0
96.6099	0
96.9546	48
97.3464	0
97.6960	1
97.9237	6
98.0625	0
98.9329	5
99.3035	0
99.9263	2
100.6492	1
100.9403	13
101.0843	1
101.3719	1
101.5670	1
101.9357	31
102.2742	1
102.5668	1
102.9430	90
103.2416	2
103.5329	1
103.9460	37
104.3607	1
104.9590	468
105.3638	0
105.4721	0
105.6099	0
105.7007	1
105.9600	36
106.1355	1
106.3192	1
106.4452	1
106.5776	1
106.9685	181
107.2765	1
107.4889	1
107.9679	15
108.2276	0
108.4335	0
108.5773	1
108.6652	0
108.9755	86
109.2156	1
109.4457	0
109.5885	1
109.9465	9
110.4426	1
110.5075	0
110.6738	0
110.9537	38
111.3043	1
111.4425	1
111.5415	1
111.9430	1
112.1438	1
112.3441	1
112.6253	2
112.9598	12
113.1496	2
113.2736	1
113.4173	2
113.6401	2
113.9124	7
114.2444	2
114.9267	280
115.2040	1
115.9382	97
116.1746	2
116.3767	1
116.9359	236
117.2529	1
117.4573	2
117.9402	47
118.1308	1
118.3176	1
118.4739	1
118.9466	459
119.2090	2
119.4453	2
119.9456	47
120.3241	1
120.9441	170
121.5083	1
121.9254	19
122.3037	0
122.5814	0
122.9427	48
123.2496	0
123.9435	16
124.2675	0
124.5022	0
124.9314	19
125.2268	2
125.8993	13
126.1101	1
126.3970	1
126.9072	96
127.9164	275
128.1536	4
128.9153	319
129.2311	2
129.4194	1
129.9271	113
130.9323	265
131.2534	2
131.9369	67
132.1401	2
132.2668	0
132.9270	322
133.2164	2
133.4017	1
133.5318	1
133.9327	40
134.1651	2
134.3773	1
134.5590	1
134.9388	142
135.3495	1
135.5333	1
135.9332	19
136.2845	1
136.4954	0
136.6234	1
136.9298	85
137.2435	1
137.4384	0
137.9269	14
138.2390	0
138.3463	1
138.4124	0
138.9133	49
139.1569	0
139.3535	1
139.9184	11
140.2141	3
140.3755	4
140.9096	234
141.1839	3
141.3389	3
141.4617	3
141.9169	195
142.2132	1
142.4334	2
142.9298	338
143.1883	3
143.3173	2
143.4475	2
143.9287	114
144.3370	2
144.9365	313
145.2351	2
145.4441	2
145.9341	45
146.3676	1
146.9413	189
147.3653	1
147.6184	2
147.9382	20
148.3217	1
148.4381	0
148.9408	42
149.2842	1
149.4557	1
149.5278	1
149.9118	13
150.1271	2
150.4100	2
150.9308	49
151.1257	6
151.2928	3
151.9170	101
152.9272	141
153.2972	1
153.9345	70
154.1851	3
154.9353	217
155.2480	2
155.9523	148
156.3772	3
156.9602	305
157.2555	2
157.9643	68
158.2739	1
158.9666	177
159.3045	2
159.5169	2
159.9658	35
160.2658	1
160.5827	2
160.9772	111
161.3075	1
161.5531	2
161.9827	19
162.1828	0
162.3495	1
162.5751	2
162.9709	52
163.9418	17
164.3696	4
164.9484	212
165.2094	2
165.4295	4
165.9618	73
166.2868	1
166.5426	3
166.9666	166
167.2837	2
167.5553	2
167.9822	62
168.2182	2
168.9842	198
169.2734	2
169.5016	2
169.9823	82
170.2093	2
170.4678	2
170.9878	158
171.2640	3
171.9927	41
172.2295	2
172.4716	1
172.9876	106
173.2743	1
173.9637	27
174.9822	64
175.2363	2
175.6097	1
175.9664	20
176.2483	2
176.3670	1
176.5019	1
176.9796	37
177.4459	3
177.9428	106
178.3264	3
178.9492	168
179.3500	2
179.9692	71
180.2647	3
180.4642	4
180.9682	172
181.2903	4
181.9719	66
182.4635	3
182.9742	163
183.3949	3
183.9771	48
184.2246	1
184.4517	2
184.9787	107
185.2595	2
185.4488	2
185.9659	22
186.3712	1
186.9728	67
187.2153	2
187.4218	1
187.9823	18
188.2406	2
188.9483	89
189.3611	2
189.9454	30
190.3060	1
190.4727	3
190.9492	88
191.2263	2
191.4313	2
191.9482	71
192.2800	1
192.9491	147
193.2108	3
193.3138	2
193.9669	68
194.3503	2
194.9649	173
195.5593	3
195.9675	58
196.3472	2
196.9769	111
197.5603	3
197.9731	23
198.2260	2
198.9780	73
199.2140	2
199.4233	2
199.5683	2
199.9699	29
200.2395	2
200.4290	2
200.9827	57
201.3107	4
201.9373	53
202.3510	2
202.9635	91
203.3048	2
203.9615	30
204.2406	2
204.3702	1
204.5005	2
204.9710	77
205.3538	2
205.6063	2
205.9700	51
206.9785	123
207.2662	2
207.5815	3
207.9799	45
208.9818	122
209.2828	3
209.4664	2
209.9779	29
210.3789	1
210.5309	2
210.9904	86
211.3379	3
211.4563	2
211.9752	20
212.4626	2
212.9921	47
213.4652	2
213.6409	1
213.9846	14
214.2086	3
214.3650	2
214.9770	85
215.3726	2
215.9697	32
216.2014	3
216.9933	62
217.3190	3
217.5398	2
217.9718	29
218.4329	1
219.0060	61
219.2636	3
219.3803	1
219.5267	1
220.0068	37
221.0080	83
222.0014	29
222.3028	1
222.3920	0
223.0249	71
223.3680	1
223.5174	2
224.0447	20
224.5617	2
225.0331	56
225.3537	3
225.5136	2
226.0122	20
226.3661	2
227.0284	37
227.4269	1
227.9993	24
228.3799	2
229.0310	45
229.2667	3
229.4422	1
229.6239	1
230.0207	21
230.3987	1
231.0248	62
231.3819	1
232.0395	27
232.3614	1
233.0427	60
233.4036	2
234.0277	19
234.5196	2
235.0359	52
235.4843	2
236.0500	14
236.5257	2
237.0541	42
237.3295	2
237.6083	3
238.0211	10
238.3715	3
238.5256	1
239.0225	45
239.3570	1
239.4646	1
239.5952	1
240.0124	12
240.4103	1
241.0152	35
241.4445	2
241.6744	3
242.0170	16
242.3380	1
243.0114	32
243.5036	0
244.0167	18
244.2865	0
244.4541	1
245.0223	37
245.3513	2
245.6476	3
246.0428	19
247.0150	51
247.4271	2
247.5399	1
248.0349	15
248.3566	2
248.5759	2
249.0607	44
249.3581	2
250.0102	11
250.4861	2
250.6526	1
251.0499	29
251.5915	2
252.0153	16
252.3249	2
252.4379	1
253.0160	35
253.4407	2
253.7246	1
254.0525	10
254.3469	2
255.0301	31
255.4823	1
255.7601	1
256.0442	13
256.3408	1
257.0255	30
257.3969	1
257.5260	1
258.0259	20
258.3680	2
258.5175	1
259.0573	30
259.5987	1
260.0276	12
260.3532	2
260.5007	1
261.0513	33
261.4861	1
262.0530	12
262.1753	6
262.4326	1
263.0304	30
263.4018	2
263.5612	2
263.7347	3
264.0501	13
264.3048	1
264.5042	1
265.0464	30
265.3781	1
265.5817	1
266.0702	9
266.3397	2
267.0607	26
267.5999	3
268.0452	10
268.3351	0
268.4857	1
268.6384	1
269.0545	26
269.4608	1
270.0550	8
270.3248	1
270.4768	1
270.6730	1
271.0438	27
271.3494	1
271.7027	1
272.0567	11
272.4031	2
272.5861	0
272.7032	1
273.0714	27
273.3189	1
273.5195	1
273.6991	1
274.0757	12
274.3041	2
274.4825	1
275.0706	25
275.4787	1
276.0213	8
276.3932	0
276.5703	1
277.0732	19
277.4066	2
277.6791	2
278.0911	7
278.2753	3
278.4820	1
278.6397	1
279.0798	22
279.5143	1
280.0820	7
280.3554	1
280.4865	1
280.6057	0
281.0768	28
281.3678	1
281.5600	1
282.0151	8
282.3833	2
283.0658	20
283.4005	1
283.6130	1
283.7000	1
284.0768	6
284.2599	2
284.5231	0
285.0593	13
285.4145	1
286.0673	6
286.2751	1
286.3994	1
286.5356	1
287.0573	20
287.5046	2
288.0489	5
288.2835	1
288.4092	1
288.6207	1
289.0668	18
289.5628	2
289.7343	2
290.1390	8
290.3372	1
290.4945	1
290.5816	1
291.0669	14
291.5227	1
291.6688	1
292.0383	6
292.3783	0
292.6073	0
292.8040	2
293.0809	17
293.3394	1
293.5552	1
293.6648	1
293.8539	3
294.0710	4
294.2046	2
294.3662	0
294.5229	1
295.0733	13
295.3496	2
295.7243	1
296.0710	8
296.2285	2
296.3543	1
296.5519	1
297.0611	21
297.4676	1
297.5801	1
297.7391	1
298.0634	9
298.4341	1
298.5347	1
298.6663	1
299.0722	19
299.8821	2
300.1144	6
300.4663	1
300.6465	2
301.0526	13
301.4200	1
301.5834	1
301.7404	1
301.8981	2
302.1191	4
302.4240	0
302.5874	1
303.0536	14
303.5388	1
303.7839	2
304.0656	3
304.5341	1
305.0617	12
305.3224	0
305.4711	1
305.7275	1
306.0186	6
306.1341	4
306.4026	0
307.0587	9
307.5324	1
307.7072	1
307.9984	5
308.1062	3
308.2423	1
308.3932	1
309.0538	8
309.4149	0
309.5128	0
309.7421	2
310.0693	3
310.5002	1
311.0462	10
311.3904	1
311.5795	1
312.0952	3
312.3506	0
312.5087	1
313.0344	8
313.5912	1
314.1149	4
314.4438	1
315.0594	13
315.3221	1
315.4837	0
316.0436	3
316.5464	1
316.7590	2
317.0895	10
317.5563	0
317.8050	1
318.0932	5
318.2013	2
318.4012	0
318.5177	1
318.7106	0
319.0617	7
319.5853	1
319.7464	0
320.0185	3
320.2071	2
320.7082	1
321.0404	6
321.4998	0
321.7924	1
322.0717	4
322.3127	1
322.3912	0
322.6217	1
323.0092	8
323.1541	4
323.4589	1
323.6222	1
323.7940	2
324.0670	4
324.2184	2
324.3846	1
324.5755	1
325.0614	7
325.4936	1
325.8841	3
326.1346	3
326.3482	0
326.4565	0
326.5598	0
327.0826	9
327.3770	0
327.7549	1
328.1045	4
328.4774	1
328.7061	1
329.0911	10
329.2844	2
329.4316	0
329.7261	1
329.8471	2
330.0638	5
330.2280	3
330.3661	1
330.6755	0
331.1173	10
331.3616	1
331.5854	1
332.1059	5
332.3432	1
332.5450	1
332.7519	1
333.1209	9
333.6607	1
333.8328	1
334.1451	4
334.5523	1
335.1448	7
335.4043	1
335.4998	1
335.7339	1
335.8958	1
336.1306	3
336.3258	1
336.6235	0
336.7516	0
337.0359	6
337.2948	2
337.5204	1
337.6789	0
338.1564	2
338.4422	0
338.7033	1
338.8002	1
339.1427	4
339.4569	2
339.5885	0
339.8298	1
340.0867	3
340.1886	1
340.2728	1
340.7470	0
341.0924	7
341.4449	1
341.6049	1
341.7103	0
341.7946	0
342.1344	2
342.4077	1
342.7680	1
343.1192	7
343.4406	1
344.0092	3
344.1183	2
344.3711	1
344.5128	0
344.8379	2
345.1006	6
345.5121	1
345.7260	0
346.1390	4
346.5088	0
347.1358	11
347.4249	1
347.4964	0
347.6403	1
348.0619	4
348.2284	3
348.4864	1
349.1454	8
349.7075	0
350.1441	3
350.4929	0
350.7062	1
351.1217	8
351.6569	2
351.7845	2
352.1029	4
352.5014	0
352.6156	1
352.8347	2
353.0850	4
353.2758	1
353.6006	1
353.7935	1
353.9864	1
354.1715	1
354.3957	0
354.7539	1
355.1369	5
355.6569	1
355.8705	0
356.0691	1
356.2749	1
356.3891	1
356.5906	0
356.6992	1
357.1093	5
357.9793	2
358.2213	2
358.3781	1
358.5939	1
358.7131	1
359.1525	7
359.5748	0
359.7424	1
360.1179	5
360.2393	3
360.4970	1
361.1580	12
361.5795	1
361.7561	0
362.1634	6
362.5600	0
363.1432	8
363.7401	1
364.1701	3
364.4071	0
364.5619	0
364.6939	1
364.7911	1
365.1708	9
365.7117	1
365.9304	1
366.0638	1
366.2207	1
366.7070	0
367.1152	2
367.3431	1
367.5150	0
367.6229	0
367.8153	1
368.0809	1
368.3060	1
368.6667	1
368.8102	0
369.1333	4
369.3002	2
369.6368	1
370.1326	3
370.6547	0
371.0063	4
371.2137	4
371.4802	1
371.7615	1
372.1387	4
372.2403	2
372.3888	0
372.7711	0
373.1591	6
373.3196	3
373.4611	1
373.7545	0
374.0338	5
374.1838	4
374.4034	1
374.6472	1
375.1759	5
375.3337	2
375.4915	0
376.0862	5
376.2360	4
376.3282	2
376.4886	1
377.1733	21
377.7098	0
378.2045	5
378.6154	1
379.0228	2
379.1577	1
379.2769	1
379.8860	1
380.1231	1
380.2871	1
380.5959	1
380.7464	0
381.1596	3
381.3740	1
381.5970	1
381.8966	1
382.1586	1
382.4839	1
382.7196	1
382.9120	1
383.1890	3
383.6478	0
383.9561	1
384.0434	1
384.2345	1
384.3623	1
384.9220	2
385.1749	3
385.2815	2
385.5145	0
385.7397	1
385.9137	1
386.1361	3
386.4991	0
386.6419	1
387.0632	3
387.2494	3
387.5507	0
387.6807	0
388.1490	4
388.3956	0
388.6500	0
389.1631	7
389.3600	2
389.5632	1
389.8120	1
390.1688	5
390.3230	1
390.5128	0
390.9500	1
391.2279	2
391.5805	1
391.7519	1
391.9083	0
392.0824	1
392.2666	1
392.5936	1
392.8425	0
393.0821	3
393.2271	3
393.3715	1
393.5770	1
393.7974	1
394.0065	1
394.1672	1
394.5029	1
394.6138	1
394.9175	0
395.1216	3
395.2823	2
395.4502	1
395.5960	0
395.8833	1
396.1515	1
396.3407	1
396.4723	1
396.7347	1
396.9318	1
397.1416	2
397.3365	2
397.5244	0
397.6645	1
398.0942	1
398.1931	1
398.3781	0
398.4962	0
398.6748	0
399.1401	4
399.3287	2
399.5912	1
399.7890	0
399.9015	1
400.1541	2
400.3712	2
400.6081	0
401.1668	4
401.3839	3
401.6038	0
402.1924	3
402.4223	0
402.6551	0
402.9669	1
403.2374	1
403.5314	1
403.7684	0
404.2070	1
404.4796	1
404.9033	1
405.2023	1
405.4935	1
406.0995	1
406.3046	1
406.6208	0
407.0046	0
407.1122	1
407.2411	1
407.3899	0
407.5145	0
407.9520	0
408.1439	0
408.4005	1
408.6941	1
408.9009	0
409.1796	2
409.3118	1
409.5144	0
409.8400	0
409.9801	1
410.2374	1
410.4088	0
410.7323	1
411.0010	2
411.1532	1
411.2790	4
411.3857	1
411.5542	1
411.9645	1
412.1437	3
412.2895	3
412.4715	1
412.6365	1
412.8690	2
413.2502	4
413.7758	1
414.2217	3
414.4920	1
414.7061	1
415.1997	4
415.4771	1
415.5931	1
415.7467	1
416.1864	3
416.4702	0
417.0565	4
417.2272	5
417.3866	1
417.4670	0
417.6349	0
418.0298	2
418.1891	2
418.8545	1
418.9854	0
419.1491	2
419.3903	1
419.8095	1
420.2201	1
421.0841	2
421.2578	1
421.4179	1
421.5753	0
421.7105	0
421.8642	1
422.0771	1
422.2999	2
422.7241	0
422.9818	0
423.0722	0
423.2730	1
423.8205	1
424.3160	1
424.5879	0
424.9470	2
425.1696	1
425.2997	1
425.6994	0
426.1567	7
426.3096	4
426.6119	0
426.8324	0
427.1503	9
427.3872	2
427.6432	0
427.7692	1
428.1881	3
428.6427	0
428.7693	0
428.9408	1
429.2545	3
429.5697	1
429.6857	0
430.1310	2
430.2847	2
430.7358	1
430.9543	1
431.0731	0
431.2474	2
431.4246	0
431.5641	1
431.7840	1
431.9604	1
432.1028	2
432.3312	0
432.4664	0
432.7390	2
432.8621	0
433.1767	3
433.3539	2
433.5695	0
433.8250	1
434.1368	2
434.3489	2
434.5767	0
434.8222	2
435.1176	3
435.3597	2
435.7071	1
435.9427	1
436.2538	3
436.6596	1
437.1665	2
437.3224	2
437.6072	2
437.7923	0
437.9646	0
438.2145	1
438.5378	1
438.6838	0
438.8440	0
439.0697	1
439.3104	3
439.6394	0
440.1557	1
440.2953	1
440.6442	1
440.8159	1
441.0438	2
441.2988	1
441.4832	1
441.6470	0
441.7916	1
441.9512	3
442.2154	5
442.8017	1
443.0182	1
443.2084	5
443.3103	3
443.6828	1
443.9172	0
444.0832	2
444.3560	2
444.5748	1
444.7194	0
444.8192	0
445.0343	1
445.2274	1
445.3799	2
445.4746	0
445.8765	1
446.0361	1
446.1579	1
446.2897	1
446.7607	1
446.9838	1
447.2075	3
447.4783	1
447.8995	0
448.0406	2
448.2002	2
448.4062	1
448.5487	1
448.7853	1
448.9963	1
449.2023	3
449.4781	2
449.7254	1
449.9157	1
450.2151	2
450.4795	1
450.7076	1
451.1204	2
451.4283	3
451.6785	2
452.0121	3
452.1647	2
452.4114	1
452.6588	4
452.9781	3
453.2933	2
453.4238	1
453.7546	2
453.9457	1
454.2979	3
454.5995	1
454.7243	2
454.8348	2
454.9732	1
455.1828	2
455.5172	2
455.8282	2
455.9530	0
456.1427	1
456.3202	1
456.5285	1
456.8523	2
457.0983	3
457.3237	3
457.5569	2
457.7267	3
458.0298	3
458.2659	3
458.5747	5
458.8279	2
459.2053	3
459.5484	2
459.7650	2
459.9531	2
460.0570	2
460.2044	2
460.3398	2
460.6802	1
460.8198	0
461.0876	2
461.2044	2
461.3069	1
461.5242	1
462.0135	1
462.2956	2
462.6382	1
462.9253	1
463.2287	2
463.4845	1
463.7730	1
464.0351	0
464.1933	1
464.3094	1
464.5267	1
464.7953	1
465.3902	2
465.5583	2
465.6588	1
465.8355	3
466.2031	9
466.5067	4
466.8636	3
467.1415	3
467.4686	2
467.5926	1
467.7636	2
467.9233	1
468.2660	4
468.7129	3
468.9017	1
469.1120	2
469.3243	2
469.7776	2
469.9622	2
470.1333	1
470.5039	2
470.6985	1
470.8995	1
471.1269	1
471.3200	2
471.5210	0
471.6707	0
471.8910	0
472.3458	2
472.4356	1
472.7528	1
473.1720	4
473.3666	3
473.4850	1
473.7024	1
473.8607	0
474.2000	6
474.3441	2
474.5323	1
474.7169	1
474.9009	0
475.1612	0
475.3679	0
475.5234	1
475.6154	0
476.0325	1
476.2050	1
476.3690	0
476.5516	1
476.6835	1
477.1820	2
477.4330	1
477.6298	0
477.7518	0
478.0541	1
478.2759	1
478.4999	1
478.6896	1
478.8044	1
478.9806	1
479.3029	1
479.5554	1
479.6239	0
479.9591	0
480.3700	1
480.7238	1
480.8436	1
481.0669	2
481.2566	4
481.4613	1
481.6754	1
482.2418	8
482.5357	1
482.9245	2
483.1328	2
483.3846	1
483.6358	2
483.8320	0
483.9989	0
484.2529	1
484.4884	1
484.7838	1
485.0370	1
485.2861	2
485.5444	1
485.6264	1
485.9033	0
486.2665	4
486.4264	2
486.5941	1
487.0244	2
487.2570	6
487.4388	3
488.2830	113
488.8187	2
488.9783	1
489.1963	3
489.5782	3
489.8204	2
489.9686	1
490.1389	2
490.3170	1
490.4617	1
490.6028	0
490.7545	0
491.2575	2
491.5305	1
491.7015	1
491.7984	0
492.1105	1
492.3250	2
492.6036	0
493.2307	4
493.6533	1
493.8286	1
494.0638	2
494.2733	2
494.7238	0
494.8606	0
494.9860	0
495.1856	1
495.3403	2
495.8584	2
496.2804	2
496.5406	0
496.7658	0
497.0352	2
497.2035	2
497.4002	1
498.4360	0
498.5415	0
498.7347	1
498.9286	0
499.2202	2
499.4170	0
499.5260	0
499.6479	0
500.2297	8
500.3894	4
500.6818	0
500.9684	2
501.3156	12
501.6258	1
501.8554	1
501.9795	0
502.1342	1
502.3310	0
502.4451	1
502.5699	1
503.2038	2
503.4135	1
503.7023	0
503.9120	0
504.1815	1
504.2914	0
504.5196	1
504.7242	1
504.8576	0
505.0273	1
505.1985	2
505.3896	1
505.5630	0
505.8047	1
506.0986	1
506.2983	2
506.4588	2
506.6935	0
506.8946	1
507.0872	3
507.2020	2
507.3090	1
507.4517	3
507.7377	0
508.0637	1
508.2185	1
508.3640	3
508.7014	0
509.1045	2
509.3028	2
509.5182	2
509.7073	1
510.0476	2
510.2980	2
510.6433	1
510.7839	0
510.9615	1
511.2655	3
511.7086	2
511.8527	0
512.0860	1
512.1937	1
512.3607	0
512.5184	1
512.8295	1
512.9586	0
513.1492	1
513.3597	1
513.5217	1
513.7728	0
513.9981	1
514.1633	1
514.2830	0
514.4846	2
514.6683	2
514.9404	2
515.2274	1
515.3877	2
515.6106	0
515.8756	1
516.0594	1
516.1762	1
516.3927	2
516.5658	1
516.6719	1
516.8144	1
517.0338	1
517.2104	2
517.3202	1
517.6265	1
517.8039	1
517.9178	0
518.0525	1
518.2541	2
518.5205	1
518.6716	1
518.8953	1
519.3106	4
519.8043	0
519.9839	1
520.1285	2
520.2703	2
520.5510	1
520.9977	1
521.3469	2
521.6804	2
522.0366	1
522.3829	3
522.5482	1
522.9003	1
523.2045	2
523.4561	2
523.7825	1
524.2984	17
524.6590	2
524.7951	1
525.0104	1
525.1949	2
525.4037	1
525.5677	1
525.7059	1
525.8641	0
526.0466	1
526.2305	1
526.3595	1
526.6923	3
526.9860	2
527.1093	1
527.2062	1
527.3074	1
527.3688	0
527.5905	2
527.8984	1
528.0623	2
528.1721	1
528.3146	0
528.4865	0
528.6639	2
528.7830	1
529.0809	2
529.3176	1
529.5093	1
529.8287	1
530.0946	2
530.2778	0
530.4867	1
531.1212	1
531.3707	2
531.5668	0
531.7166	1
532.0181	1
532.2548	1
532.4737	1
532.7197	1
532.9129	1
533.2723	2
533.4384	3
533.5824	0
533.8184	1
534.3011	10
534.8110	1
535.2959	15
535.6125	3
536.1624	4
536.5040	2
536.6494	1
536.8591	1
537.0224	1
537.2742	2
537.5159	1
537.7199	2
537.9253	2
538.2648	1
538.6100	2
538.7383	1
539.0001	1
539.3517	3
539.5272	3
539.6534	2
539.8568	3
539.9994	1
540.1342	2
540.2633	4
540.6564	2
540.9352	2
541.1664	2
541.4852	2
541.7170	2
541.8540	1
541.9532	1
542.2271	2
542.4041	2
542.6238	2
542.9120	2
543.2494	2
543.5926	2
543.9414	2
544.0599	2
544.2325	3
544.4658	1
544.7134	2
544.8824	2
545.0694	3
545.1885	1
545.3948	2
545.6045	2
545.7722	1
545.9784	2
546.1525	3
546.4072	4
546.6548	3
546.9509	2
547.3405	11
547.6552	5
547.9778	2
548.1655	1
548.3853	1
548.6064	1
549.0261	2
549.2794	4
549.5577	2
549.7540	2
550.0280	2
550.3264	8
550.5897	3
551.3419	26
551.5610	12
552.3683	30
552.6302	13
552.8508	4
553.0813	3
553.3183	4
553.6916	3
554.2106	4
554.5339	4
554.8858	5
555.1243	3
555.5119	6
556.1122	5
556.7441	5
557.0032	6
557.4144	7
557.7964	9
558.2586	8
558.6125	8
559.0562	10
559.4643	8
560.0505	9
562.3966	106
562.6602	53
563.3127	23
563.6560	16
564.3441	22
565.3785	152
566.4415	11
567.0050	9
567.4517	11
568.3167	10
569.3619	10
572.2708	18
580.3351	999
581.5093	368
582.5257	151
583.3240	74
584.2791	40
