Mass spectrum: Cyclocrassostreaxanthin A; FAB-EBEB; MS2; m/z: 616.41; [M]+*
Name: Cyclocrassostreaxanthin A
Formula: C40H56O5
Exact mass: 616.41277
SMILES: C(C(C(C)=CC=CC(=CC=CC=C(C=CC=C(C)C=CC(C(C)(O)2)(C(C)(C)3)OC(C3)C2)C)C)=O)C(O1)(C)C(CC(CC(C)=O)1)C
InChI: InChI=1S/C40H56O5/c1-28(17-13-18-30(3)21-22-40-37(7,8)25-35(45-40)26-39(40,10)43)15-11-12-16-29(2)19-14-20-31(4)36(42)27-38(9)32(5)23-34(44-38)24-33(6)41/h11-22,32,34-35,43H,23-27H2,1-10H3/b12-11+,17-13+,19-14+,22-21+,28-15+,29-16+,30-18+,31-20+/t32-,34-,35+,38+,39-,40-/m1/s1
Instrument: JMS-HX/HX 110A, JEOL
Instrument type: FAB-EBEB
Ms type: MS2
Ion mode: POSITIVE
Collision energy: 3 kV
Ionization: FAB
Base peak: 155.1009
Precursor m/z: 616.41
Precursor type: [M]+*
m/z	relative intensity
14.0148	0
15.0259	1
22.9880	0
24.9374	0
26.0102	1
27.0212	5
28.0227	1
29.0327	3
31.0142	0
36.9965	0
38.0139	1
39.0256	10
40.0363	2
41.0411	24
42.0393	3
43.0207	363
44.0252	2
45.0281	1
45.2289	0
48.1545	0
49.0111	0
50.0152	2
51.0243	6
52.0300	3
53.0403	13
54.0408	2
55.0504	38
56.0449	2
57.0554	4
58.0430	2
59.0514	2
60.0411	0
61.0318	1
62.0257	1
63.0341	5
64.0267	1
65.0438	9
66.0525	3
67.0576	15
68.0694	3
69.0581	36
70.0557	5
71.0545	11
72.0685	1
73.0406	0
74.0238	1
75.0496	2
76.0302	1
77.0417	23
78.0511	6
79.0571	21
80.0622	4
81.0663	20
82.0533	5
83.0793	37
84.0841	2
85.0512	5
86.0289	1
87.0445	4
87.5831	0
88.0464	0
89.0495	3
90.0525	2
91.0647	50
92.0753	6
93.0843	27
94.0790	4
95.0899	55
96.0748	15
97.0809	65
98.0615	3
99.0692	2
99.4887	0
100.0581	1
101.0602	1
102.0629	3
103.0691	9
104.0716	5
105.0873	51
106.0880	6
107.0935	23
108.0781	6
109.0946	24
110.0777	2
111.0924	23
112.0945	3
113.1070	601
114.1011	7
115.0597	28
116.0656	10
117.0717	26
118.0736	6
119.0829	50
120.0793	8
121.0815	26
122.0707	6
123.0773	15
124.0679	1
125.0817	11
126.0722	3
127.0553	11
128.0485	32
129.0533	34
130.0681	13
131.0652	32
132.0695	11
132.5024	1
133.0780	26
134.0657	5
134.5217	0
135.0708	22
136.0638	6
137.0787	11
138.0520	1
139.0759	18
140.0699	2
141.0442	26
142.0552	23
143.0658	41
144.0672	16
145.0755	53
146.0626	9
147.0716	29
148.0712	5
149.0719	9
150.0825	3
151.0566	5
152.0512	11
153.0798	24
154.0764	9
155.1009	999
156.0888	28
157.0987	38
158.0884	11
159.0941	36
160.0946	23
161.1051	19
162.1059	3
163.1182	8
164.1040	2
165.0800	22
166.0993	8
167.0998	16
168.1178	8
169.1168	24
170.1272	10
171.1309	24
172.1213	9
173.1323	19
174.1335	4
175.1430	7
175.6175	0
176.1044	2
177.1154	3
178.1026	11
179.1089	19
180.1083	8
181.1237	33
182.1183	8
183.1244	21
184.1173	8
185.1185	19
186.1297	5
187.1169	10
188.0955	2
189.1009	7
190.0776	3
191.0951	10
192.0962	7
193.1025	14
194.1049	8
195.1094	26
196.1176	8
197.1202	23
198.1203	6
199.1101	13
200.1082	4
201.1364	6
202.0767	5
203.1013	8
203.6014	0
204.1016	3
205.0932	8
206.1117	6
207.1044	13
208.1193	12
209.1192	19
209.6007	1
210.1165	5
211.1206	14
212.1205	4
213.1193	9
214.1327	2
215.1122	8
216.1141	3
217.1196	5
218.1114	3
219.1335	8
220.1357	5
221.1588	35
222.1306	5
223.1405	14
223.6158	2
224.1367	4
225.1475	8
226.1493	3
227.1672	5
228.1684	2
229.1589	5
230.1562	2
230.6833	2
231.1492	5
232.1599	4
233.1788	13
234.1825	6
235.1791	9
236.1766	2
237.1698	7
238.1634	3
239.1495	6
240.1770	2
241.1796	3
242.1211	1
243.1671	3
243.5790	0
244.1757	2
245.1688	7
246.1923	14
246.6378	1
247.1861	11
248.1740	3
249.1907	8
250.2157	2
251.2015	6
252.1924	2
253.1978	2
254.2132	1
255.1750	2
256.1942	1
257.1947	2
258.1813	3
259.1888	5
260.2094	3
261.2048	5
262.2080	2
263.1973	6
264.2233	2
265.2195	4
266.2224	1
267.1985	2
268.1877	1
269.2010	2
270.1988	1
271.2096	5
272.2286	3
273.2352	6
274.2437	4
275.2318	4
276.2408	2
277.2167	4
278.2279	2
279.2267	3
279.7708	1
280.2314	1
281.2686	2
282.2248	1
283.2339	2
284.2513	2
285.2434	8
286.2597	23
287.2475	7
288.2452	1
289.2320	3
290.2397	1
290.5992	0
291.2414	4
292.2721	2
293.2806	2
294.2415	1
295.2361	1
296.2550	1
297.2651	4
298.2574	9
299.2691	12
300.2650	3
301.2292	1
302.2240	1
303.2399	2
304.2175	1
304.5936	0
305.2498	3
306.2264	1
307.2159	1
308.3659	1
309.2357	2
310.2388	2
311.2516	9
312.2519	5
313.2621	6
314.3109	0
315.2316	1
316.2151	1
317.2453	1
318.2710	1
319.2711	2
320.2314	1
321.2352	1
322.2215	1
323.2305	2
324.2414	4
325.2444	2
325.7106	0
326.2733	1
327.2349	2
328.2642	0
329.2616	1
330.2543	0
331.2520	1
332.2596	1
333.2336	1
334.2786	1
335.2498	1
335.6218	0
336.2259	1
337.2763	1
338.2786	1
339.2633	1
340.2563	1
341.2494	1
341.7406	0
342.2845	0
342.6804	0
343.2953	1
344.3046	0
345.2675	1
346.2385	1
347.2596	1
348.2697	1
349.2606	3
350.2790	1
351.2880	3
352.2922	2
353.2644	1
354.2287	0
355.2528	1
356.1803	0
357.2322	0
358.1891	0
359.2639	1
360.3033	1
361.2913	1
362.2827	2
363.2888	3
364.2837	9
365.3078	5
366.2949	1
367.2483	1
367.6410	0
368.2890	0
369.3089	1
369.8001	0
370.3365	0
371.2526	1
372.2706	0
373.2953	1
374.2765	1
374.8018	0
375.3160	2
376.3282	3
377.3130	5
378.3093	2
379.3219	2
380.3169	0
381.2861	1
382.3023	1
383.3625	0
384.3996	0
385.3340	1
386.3816	1
387.3567	1
388.3431	1
389.3136	3
390.3197	12
391.3276	5
392.3680	1
393.2806	0
394.2339	0
395.3151	1
396.3237	2
397.2789	0
398.4026	0
398.9565	0
399.3193	0
399.8003	0
400.3834	0
401.2921	1
402.2301	1
403.3383	2
404.3285	1
405.3284	1
406.3479	0
407.3853	0
408.3532	0
409.2142	0
409.5433	0
410.4190	0
411.2997	0
411.6289	0
412.1349	0
413.3062	0
414.5229	0
415.3374	0
416.2899	0
417.3477	3
418.3661	5
419.3701	14
420.3192	1
420.7775	0
421.3023	0
421.8141	0
422.3163	0
423.3451	0
424.3480	0
425.4126	0
426.2537	0
426.9765	0
427.4336	0
428.3721	0
429.3739	1
430.3548	1
431.3276	2
432.3882	1
433.3742	3
434.3652	1
435.3245	1
436.3276	0
436.7975	0
437.2270	0
438.3502	0
439.3227	0
440.0587	0
440.4915	0
441.3734	0
442.3365	0
443.3241	1
444.3409	2
445.3286	3
446.3472	10
447.3481	8
448.3490	4
449.3858	1
449.6957	0
450.3772	0
451.3152	0
453.3667	0
454.3244	0
454.6977	0
455.3828	0
456.2871	0
456.6605	0
457.3912	0
458.3590	5
459.3528	1
460.3598	4
461.3619	32
462.3674	4
463.3356	1
464.4973	0
465.3016	0
466.5235	0
467.2987	0
468.3031	0
469.3693	0
470.4015	1
471.3903	1
472.3724	0
473.3626	1
474.3968	0
475.3498	1
476.2948	0
476.9184	0
477.3828	0
478.1981	0
479.3561	0
480.4671	0
481.4320	0
482.4067	0
483.3230	0
484.3564	0
484.9754	0
485.4255	0
486.3583	0
487.3448	1
488.4109	1
489.3553	1
490.3745	1
491.0215	0
491.6816	0
492.4359	0
492.8326	0
494.3627	0
495.3156	0
496.4231	1
497.4055	1
498.2870	0
499.3814	0
500.3997	0
501.4491	1
502.4497	1
503.3871	2
504.4106	24
505.3076	1
506.4287	1
507.7808	0
508.3804	1
509.3832	1
510.3975	9
511.4361	0
511.7726	0
512.4927	0
513.3414	0
514.4193	1
515.4323	1
516.4485	4
517.4209	2
518.2487	1
520.0540	1
520.8948	1
522.4271	2
523.3983	1
524.4346	9
526.1251	0
527.1695	0
527.7310	0
528.5506	0
529.4579	0
530.4351	1
531.4350	0
531.8003	0
532.3912	1
533.4269	0
533.7874	0
535.4289	1
536.4194	14
537.4408	2
538.3698	0
539.0925	0
539.6722	0
540.3853	0
541.4378	0
542.3913	1
543.4033	1
544.4154	0
545.4763	0
546.0109	0
546.5730	0
546.8947	0
547.6097	0
548.4563	0
549.5272	0
550.2292	0
550.6323	0
552.9597	0
553.8423	0
554.3706	0
555.4256	1
556.4758	0
557.4382	1
558.4658	4
559.4592	5
560.4657	0
561.3617	0
562.4431	0
563.4579	0
564.0239	0
564.7737	0
565.3950	0
565.9708	0
567.2607	0
568.6401	0
569.4064	0
570.3630	0
572.4752	3
573.4840	26
574.3857	1
575.5181	0
575.8561	0
576.7887	0
577.8530	0
578.6476	0
579.0782	0
580.3084	0
581.4786	0
582.3058	0
583.2940	1
584.0450	0
584.6252	0
585.4429	0
586.4930	1
587.5074	1
588.4943	1
588.8796	1
589.7966	1
591.1917	1
592.7202	1
594.6960	1
598.4921	30
599.4716	3
600.4722	4
601.4875	18
616.4394	999
621.9836	4
623.2879	2
