Mass spectrum: alpha-Carotene; FAB-EBEB; MS2; m/z: 536.44; [M]+*
Name: alpha-Carotene
Formula: C40H56
Exact mass: 536.43820
SMILES: C(=CC(=C(C)2)C(C)(C)CCC2)C(C)=CC=CC(=CC=CC=C(C=CC=C(C)C=CC(C1(C)C)C(C)=CCC1)C)C
InChI: InChI=1S/C40H56/c1-31(19-13-21-33(3)25-27-37-35(5)23-15-29-39(37,7)8)17-11-12-18-32(2)20-14-22-34(4)26-28-38-36(6)24-16-30-40(38,9)10/h11-14,17-23,25-28,37H,15-16,24,29-30H2,1-10H3/b12-11+,19-13+,20-14+,27-25+,28-26+,31-17+,32-18+,33-21+,34-22+
Instrument: JMS-HX/HX 110A, JEOL
Instrument type: FAB-EBEB
Ms type: MS2
Ion mode: POSITIVE
Collision energy: 3 kV
Ionization: FAB
Base peak: 105.0919
Precursor m/z: 536.44
Precursor type: [M]+*
m/z	relative intensity
8.1505	3
11.5499	1
12.9915	1
15.0176	2
22.9901	4
25.0076	1
26.0134	5
27.0246	32
28.0317	4
29.0353	36
29.3932	1
30.0198	1
36.3425	1
37.0126	4
38.0071	12
38.2084	1
38.4404	1
39.0212	90
40.0314	15
41.0388	214
42.0095	3
42.7376	1
43.0519	89
44.0305	1
45.0274	1
48.0016	1
48.9666	2
50.0125	30
50.5553	1
51.0229	66
51.6118	1
52.0401	27
53.0429	114
54.0756	4
55.0565	359
56.0558	11
56.4125	1
57.0746	31
59.0719	1
61.0324	3
61.3876	1
62.0335	13
62.6105	2
63.0400	63
64.0470	13
65.0428	102
66.0542	19
66.4177	1
67.0553	161
68.0694	7
68.4925	2
69.0754	386
69.6976	1
70.0826	4
70.5659	1
71.1015	4
73.0281	2
74.0050	9
75.0684	24
76.0319	16
76.3164	1
77.0433	339
77.5166	4
78.0430	68
78.4173	3
79.0566	311
79.7561	3
80.0596	41
81.0752	443
82.0429	6
82.5647	2
83.0811	54
83.7409	1
84.0576	2
84.6829	1
85.0614	1
86.0227	5
86.5623	1
87.0250	8
88.0523	11
89.0343	28
89.5261	2
90.0828	11
91.0743	711
92.0693	82
93.0964	486
94.1011	33
95.1067	317
96.0939	4
96.4357	2
97.1188	14
98.0434	5
99.0568	4
99.3840	1
100.0452	3
101.1063	17
101.5841	2
102.0623	44
102.3538	4
103.0794	130
103.5150	3
104.0803	58
105.0919	999
106.0916	87
107.1085	387
108.1127	27
108.3923	2
109.1121	123
110.0074	3
111.0803	7
111.6148	2
112.0726	2
113.0533	9
113.5159	5
114.2401	8
115.0662	365
116.0643	135
117.0797	381
118.0781	79
119.0910	829
120.1001	83
121.1025	295
122.0931	47
122.6094	4
123.1114	342
124.0606	9
124.4398	3
124.7473	6
125.0549	5
126.0090	19
127.0578	124
128.0584	366
129.0615	511
129.6331	4
130.0698	172
131.0820	491
132.0886	112
132.5238	5
133.0938	368
134.0858	30
135.1098	54
135.5521	1
136.0675	10
137.1208	30
137.4532	4
137.6884	2
138.0629	5
138.4525	3
139.0534	43
139.5991	2
140.0800	19
141.0562	343
141.5637	4
142.0741	304
143.0793	559
144.0965	192
145.1010	613
146.1132	45
147.1237	187
147.6859	1
148.0791	7
148.4232	3
149.1323	25
149.7134	3
150.0553	11
151.1035	33
152.0773	132
153.0876	199
154.0906	109
155.1081	397
156.1168	204
157.1208	490
158.1546	89
159.1506	266
160.1598	21
160.5999	1
161.1574	82
161.5011	4
162.2703	4
163.1161	30
163.7120	5
164.1062	16
165.1141	285
165.6689	6
166.1217	115
167.1122	249
168.1323	114
169.1476	345
170.1305	109
171.1500	242
172.1480	31
172.6750	9
173.1605	115
174.1168	23
175.1571	81
175.6990	3
176.0979	22
177.1632	69
178.1010	140
179.1147	232
180.1052	100
181.1271	277
182.1300	113
183.1307	295
184.1656	56
185.1507	143
185.5897	5
186.1462	44
186.5868	5
187.1633	61
188.1347	21
189.1067	77
190.0749	38
191.0984	104
192.1112	98
193.1245	201
194.1286	101
194.4727	8
195.1331	285
196.1396	72
197.1424	212
197.6447	6
198.1598	38
198.6173	3
199.1552	72
200.1496	26
201.1854	48
202.1188	75
203.1161	90
204.1364	39
204.6390	2
205.1275	89
206.1347	77
207.1296	167
208.1702	61
209.1603	196
209.6259	2
210.1721	40
211.1788	105
211.7183	4
212.1915	21
213.1791	33
214.1658	14
214.5174	2
215.1443	86
215.6039	2
216.1474	30
216.4581	6
217.1395	60
217.5725	2
218.1703	25
219.1519	69
219.5782	4
220.1751	48
221.1845	111
222.1971	34
223.2002	90
224.2122	21
224.5149	4
225.2082	44
226.1534	26
227.1998	30
228.1783	33
229.1672	63
230.1806	29
231.1802	50
231.5305	4
232.1858	32
233.1690	64
233.7833	3
234.2409	43
235.2019	77
236.2018	24
237.2306	53
238.2055	21
238.6352	3
239.2093	52
239.7963	5
240.2177	30
240.5934	4
241.2150	30
242.1640	25
242.5800	4
243.2162	47
244.1458	25
245.1988	34
246.2091	21
246.7416	2
247.2226	49
248.2021	17
249.2406	50
250.2387	12
250.7257	3
251.2500	32
252.2343	17
253.2304	42
254.2254	17
255.2250	22
255.6639	4
256.2076	15
256.6237	1
257.2020	26
258.1837	16
259.2418	39
260.2370	11
260.7628	3
261.2368	41
262.2556	6
262.6336	2
263.2646	35
263.8123	4
264.3716	11
265.2633	38
265.7020	4
266.3004	19
267.2894	36
267.8712	8
268.3079	13
269.2535	33
269.6257	2
270.1964	9
271.2531	21
272.2468	5
273.2796	16
274.2508	10
275.2366	21
275.7260	1
276.2327	7
276.5682	1
277.2910	20
277.8109	2
278.2444	7
278.6377	4
279.2701	28
279.7556	1
280.2513	8
281.2933	21
282.2822	9
282.7503	1
283.2269	9
284.2780	3
285.2573	13
285.6577	3
286.2527	8
286.8017	3
287.2916	20
288.2629	8
288.5916	4
289.2893	14
289.5848	3
290.2610	13
290.8350	3
291.2777	13
291.8460	1
292.2427	8
293.3003	17
293.7736	4
294.2426	7
294.6582	1
295.2413	7
296.1869	5
297.1125	4
297.4157	2
298.2187	2
299.2400	9
300.2513	4
300.7051	1
301.2456	12
301.6011	2
302.2126	6
303.3112	20
304.1904	7
305.2852	11
306.2862	5
306.8142	1
307.3409	11
307.7027	1
308.3061	4
309.2093	7
310.3442	4
310.6120	5
311.2679	8
312.2078	4
312.8132	3
313.2651	10
314.2734	4
314.4806	2
314.8123	3
315.3094	8
316.2861	4
317.3326	21
318.3040	9
319.3233	11
320.3196	11
320.7982	2
321.2986	13
322.3127	7
322.6000	2
323.4111	4
324.2630	1
324.9703	2
325.2934	8
326.3060	2
326.7377	2
327.2304	7
327.4955	3
328.4303	5
329.3767	10
329.8159	2
330.2827	4
330.7858	3
331.3193	13
332.3358	13
333.3641	14
334.2794	8
334.8423	1
335.3762	5
336.1234	3
336.3077	1
337.3206	2
337.7227	2
338.2060	2
338.6545	2
338.9681	2
339.3223	4
339.8145	2
340.2544	3
340.8105	1
341.3376	5
342.2976	4
342.8045	2
343.3304	10
344.2092	5
344.8296	4
345.3425	12
346.3466	13
347.3175	9
347.7884	3
348.3669	3
349.0153	2
349.3177	4
350.2163	3
351.2295	4
353.2310	2
353.5072	2
354.3751	3
355.3755	5
356.3571	1
356.7599	1
357.2806	9
357.7315	1
358.3047	7
358.7222	2
359.3434	11
359.9865	3
360.4405	5
360.7446	1
361.3150	4
363.3017	4
364.9593	2
365.3460	4
366.3784	4
366.9063	4
367.1782	2
368.1599	3
369.3425	6
369.9026	3
370.8948	1
371.4011	3
372.3658	4
373.1459	2
373.4937	3
374.0948	2
374.4005	2
375.3161	3
375.6087	3
376.5928	2
377.3893	2
377.7082	2
378.4712	5
379.0843	2
379.4309	5
380.3442	4
380.9472	2
381.3638	4
381.9728	2
382.3647	5
382.8397	2
383.4196	7
384.2458	4
384.6290	1
385.3008	7
385.5603	2
386.3867	9
387.1592	4
387.4143	3
388.4800	7
388.9290	1
389.3869	3
390.2953	3
391.3438	3
391.6252	4
392.0438	2
392.3209	3
393.3697	4
393.5491	2
394.4010	3
395.4062	3
395.6044	2
396.0105	4
396.5112	4
397.0323	3
397.4108	13
398.3891	6
398.6555	2
398.9001	1
399.4563	11
399.9689	7
400.4086	8
400.8528	2
401.0741	2
401.3756	3
402.0965	3
402.5859	3
402.8320	1
403.2384	2
404.2989	3
405.0870	1
405.3405	2
406.3050	1
406.9534	3
407.7782	2
408.2460	3
409.4046	5
411.3010	7
411.5095	4
412.4067	31
413.4610	31
413.8760	3
414.4265	9
414.9625	3
415.5612	4
416.5502	1
418.0522	3
418.4951	2
418.9512	1
419.5952	2
419.9595	2
420.4520	2
421.5727	2
422.0405	1
422.4297	2
423.4019	4
423.9645	4
424.7313	7
425.2328	5
426.1877	13
427.4183	15
427.8368	7
428.3545	11
428.8197	2
429.4686	7
430.4341	10
431.1518	1
431.5310	1
431.9963	2
432.1743	1
433.5631	3
433.8315	3
434.3232	4
435.2920	3
435.5036	1
435.8158	1
436.3893	3
437.7975	1
438.2295	4
438.6119	3
439.3067	2
439.8029	1
440.4131	6
440.8802	4
441.2203	4
441.4072	2
441.7649	2
442.3897	6
442.6306	4
442.8145	2
443.5095	12
444.4893	392
445.2384	8
445.8469	6
446.3062	3
447.1972	3
447.6143	3
447.9804	4
448.6440	1
449.0699	2
449.4009	2
449.6562	3
450.4176	4
451.3176	7
451.5291	3
452.0266	2
452.4905	4
453.0143	2
453.4053	3
453.9568	4
454.2690	3
454.7170	1
454.9957	1
455.4057	5
455.6246	2
456.4418	10
456.9249	3
457.5437	17
458.5726	2
458.7624	1
459.6995	2
459.9885	2
460.4293	1
461.1052	3
461.3782	3
462.1344	3
462.4512	6
462.8688	2
463.2294	4
463.4791	2
463.9273	2
464.4880	6
464.7990	2
465.5321	8
466.0184	4
466.4711	6
466.9486	7
467.2305	3
467.7096	5
468.5567	27
469.2622	4
470.1532	6
470.7536	5
471.6798	5
472.1385	4
472.3750	3
472.6157	2
472.9687	2
473.4807	1
473.8556	2
474.5587	4
474.9964	1
475.5201	2
475.9214	2
476.1241	1
476.3839	1
477.5073	4
478.3858	4
478.8717	1
479.3926	13
479.6845	8
480.5149	68
481.2155	2
481.5934	3
482.2386	2
482.6429	4
486.2836	2
487.7670	2
490.3691	4
491.5330	4
492.4546	2
493.5836	2
494.1649	1
494.5330	2
496.5679	4
499.6501	1
500.2025	2
500.3540	1
501.1367	2
502.2866	2
503.1320	3
503.4716	1
504.2996	1
504.6363	2
505.0751	4
505.5110	4
506.4804	8
507.2211	1
507.6774	4
508.5201	2
509.3586	2
510.1008	3
510.7657	1
512.9225	3
514.0864	4
514.7267	2
515.7740	4
516.4508	3
516.9716	4
517.2531	4
517.7812	5
518.4625	22
518.9366	5
519.5260	11
520.5254	23
521.5511	99
522.3507	5
522.7199	5
523.0716	5
523.5794	6
524.0259	9
524.6096	8
525.0839	9
525.8297	15
526.0792	11
526.7491	10
527.5577	15
528.5458	16
529.5735	23
536.5389	999
539.0740	101
539.7706	51
540.7175	21
541.7805	11
542.2675	8
542.8523	7
543.3613	5
543.9242	4
