Mass spectrum: Phytofluene; FAB-EBEB; MS2; m/z: 542.49; [M]*+
Name: Phytofluene
Class: Natural Product; Carotenoid
Formula: C40H62
Exact mass: 542.48515
SMILES: C(C)(C)=CCCC(C)=CCCC(C)=CCCC(=CC=CC=C(C=CC=C(CCC=C(C)CCC=C(C)C)C)C)C
InChI: InChI=1S/C40H62/c1-33(2)19-13-23-37(7)27-17-31-39(9)29-15-25-35(5)21-11-12-22-36(6)26-16-30-40(10)32-18-28-38(8)24-14-20-34(3)4/h11-12,15,19-22,25,27-30H,13-14,16-18,23-24,26,31-32H2,1-10H3/b12-11+,25-15+,35-21+,36-22+,37-27+,38-28+,39-29+,40-30+
Instrument: JMS-HX/HX 110A, JEOL
Instrument type: FAB-EBEB
Ms type: MS2
Ion mode: POSITIVE
Collision energy: 3 kV
Ionization: FAB
Base peak: 542.3987
Precursor m/z: 542.49
Precursor type: [M]+*
m/z	relative intensity
2.9373	0
3.4588	0
6.3597	1
11.7265	1
13.9741	0
14.9904	1
25.9464	1
26.9650	5
27.9582	1
28.9718	2
35.9664	1
36.9526	0
37.8931	0
38.3632	0
38.9668	4
39.9331	1
40.9528	5
41.9729	1
42.9909	1
46.3383	1
47.7156	0
49.8978	0
49.9508	0
50.8106	0
50.9532	1
51.9758	0
52.9844	1
54.9785	2
55.1370	0
55.9818	0
62.9678	1
63.9640	0
64.6507	0
64.9578	0
65.9901	1
66.7849	0
66.9782	4
67.9640	0
68.7436	2
68.9846	45
69.9981	1
71.0009	1
73.9511	0
74.8822	0
74.9680	0
75.1304	0
75.9544	1
76.9410	5
77.7823	0
77.9432	1
78.1959	0
78.7463	1
78.9511	8
79.0970	0
79.9513	3
80.9665	36
81.9930	1
82.8905	0
83.0166	5
86.6309	0
87.6778	0
88.8963	3
89.5695	0
89.9540	1
90.1916	0
90.5394	1
90.9207	28
91.1485	1
91.2897	0
91.7446	0
91.9527	3
92.6195	1
92.9535	30
93.4132	0
93.6744	0
93.9611	4
94.9755	22
96.0019	2
96.9637	1
97.5272	1
100.6504	0
100.8417	1
100.9335	0
101.5839	0
101.9337	2
102.1442	0
102.4644	0
102.7614	1
102.9228	5
103.2077	1
103.2981	0
103.9484	3
104.3856	0
104.9386	52
105.2534	0
105.7240	1
105.9836	6
106.5563	1
106.9632	34
107.3167	1
107.9828	7
108.1288	1
108.4551	1
108.6704	1
108.9852	19
109.1314	1
110.6510	0
111.0357	2
112.1077	0
112.7528	0
112.9641	1
113.4253	0
113.6392	0
113.7650	0
113.9600	0
114.0358	0
114.4511	1
114.5663	1
114.9132	18
115.4067	0
115.6745	1
115.9155	6
116.1482	0
116.8983	21
117.6241	1
117.7326	1
117.9467	9
118.4490	0
118.9455	56
119.2940	1
119.7226	4
119.9524	42
120.4970	1
120.9594	41
121.1443	1
121.3450	1
121.6391	0
121.7440	0
121.9527	3
122.1940	0
122.8289	1
122.9986	6
124.8355	1
125.0141	0
125.6750	1
125.8926	1
126.8824	6
127.0906	0
127.8680	22
128.4940	1
128.6138	2
128.9064	39
129.3908	0
129.7220	2
129.9339	16
130.1271	2
130.9109	50
131.2158	0
131.4654	1
131.6198	1
131.9365	20
132.4813	0
132.9414	58
133.3088	0
133.5156	1
133.7488	1
133.9564	12
134.2932	0
134.5248	0
134.6216	0
134.9538	12
135.2395	1
135.9395	4
136.0812	0
136.6976	1
136.9765	33
137.5339	0
137.9753	0
138.3893	0
138.5696	1
138.7308	1
138.8792	3
139.4130	1
139.8418	2
140.0236	1
140.1191	1
140.3274	2
140.6943	2
140.9145	17
141.5278	1
141.9179	22
142.0871	1
142.3638	1
142.9082	45
143.4429	0
143.6841	2
143.9445	19
144.2094	1
144.9324	103
145.2272	0
145.5679	1
145.6925	0
145.9528	12
146.3681	0
146.4767	1
146.6485	1
146.9686	20
147.2285	1
147.2931	0
147.5215	1
147.6320	1
147.7350	1
147.9797	5
148.6673	2
149.0004	7
149.2746	0
149.6284	0
149.9742	1
150.5461	0
150.9265	2
151.0965	0
151.2279	0
151.3443	0
151.7972	2
151.9150	2
152.2391	0
152.4442	1
152.5832	1
152.9331	7
153.5064	1
153.5856	0
153.9520	9
154.4746	0
154.5789	2
154.9494	24
155.2287	0
155.3811	1
155.4993	0
155.9606	19
156.3728	1
156.9722	47
157.3683	1
157.5386	2
157.7791	2
157.9864	16
158.4875	2
158.9983	54
159.1757	1
159.2841	0
160.0135	4
160.2845	0
161.0182	11
161.2185	1
161.5538	1
161.8490	0
162.0061	1
162.3969	1
162.5836	0
162.7024	1
162.8583	1
163.0281	2
163.6645	1
164.0099	2
164.4882	1
164.5751	0
164.7293	2
164.9635	8
165.5048	1
165.6511	0
165.9896	3
166.2308	1
166.4143	0
166.7480	3
166.9579	9
167.2729	0
167.6759	0
167.9464	4
168.1791	0
168.6290	2
168.9783	19
169.5714	1
169.9726	9
170.5037	1
170.7262	0
171.0148	34
171.3546	0
171.6863	1
171.8043	1
172.0010	6
172.6307	1
173.0049	21
173.2562	0
174.0000	5
174.8018	1
175.0318	5
175.6779	0
176.0156	1
176.9538	3
177.4671	2
177.9071	2
178.1307	2
178.5240	0
178.9561	6
179.1854	0
179.9524	2
180.5574	1
180.6994	1
180.9564	6
181.5071	0
182.0035	5
182.5247	1
182.6562	1
182.9794	20
183.6675	1
183.7336	1
184.0075	9
184.3494	1
184.5643	2
184.9910	66
185.3897	1
185.5163	0
185.7008	1
185.9725	6
186.0616	4
186.3587	1
186.6171	1
187.0099	16
187.7034	0
188.0047	3
188.7355	1
189.0459	3
189.6100	1
189.8243	1
190.0092	2
190.5118	0
190.9590	4
191.0860	1
191.4172	1
191.5825	1
191.8277	1
192.6641	1
192.9751	2
193.6581	1
193.9035	1
194.1400	1
194.2959	1
194.4525	1
194.9691	9
195.2639	1
195.4622	0
195.5811	1
195.9963	4
196.1927	0
196.4186	0
196.5549	1
196.9805	10
197.9825	6
198.3943	1
198.4942	1
198.9991	33
199.2919	2
200.0271	73
200.2515	2
200.3406	1
200.5554	1
200.7446	2
201.0184	8
201.5322	1
201.6785	1
201.8441	1
201.9602	2
202.1104	1
202.3208	0
202.4903	1
202.6135	1
203.0443	13
203.3383	0
203.8733	1
204.0146	1
204.2143	0
204.7424	1
204.9815	3
205.1305	2
205.9514	2
206.2767	1
206.8079	1
206.9513	1
207.9793	4
208.1016	1
208.6583	1
208.8366	1
208.9989	8
209.7799	1
210.0382	4
210.3435	0
210.7120	1
211.0129	6
211.6026	0
211.7850	1
211.9996	6
212.5373	2
212.7823	2
213.0429	11
213.3164	1
213.4815	0
214.0163	5
214.5738	0
214.8714	0
215.0482	2
215.8113	1
216.0651	1
217.0766	2
217.9411	1
218.5228	0
218.6198	1
219.0070	1
220.0094	2
220.0961	1
220.6479	1
221.0154	4
222.0568	2
222.8777	0
223.0655	4
223.8111	0
224.0656	2
225.0305	10
225.3777	0
225.7823	1
226.0971	8
226.5749	1
226.8186	1
227.0780	6
227.7707	0
227.9389	1
228.0547	1
228.1562	0
228.9321	2
229.0835	1
230.1237	0
230.7175	0
230.8211	1
231.9987	0
233.0938	0
233.9845	1
234.0973	1
234.5195	1
234.8366	1
235.0688	1
235.8335	0
236.0178	1
236.7673	0
237.0664	3
237.9570	0
238.1174	3
238.3421	1
238.5343	1
238.6583	1
239.0661	7
239.9606	1
240.1256	1
241.0432	2
241.1848	1
242.0630	1
242.5546	1
243.0930	3
243.3655	2
244.9568	1
245.0486	1
245.1468	0
245.8250	1
246.0248	2
246.6335	0
247.0835	1
247.2026	1
247.5550	1
247.8813	1
248.0285	1
248.8682	1
248.9731	1
249.0884	1
249.2689	0
249.7785	1
249.9988	0
250.4153	0
250.7216	0
251.0945	5
251.7980	1
251.9702	1
252.1391	1
252.4025	1
253.0965	8
253.7293	1
253.8448	1
254.0803	4
254.1704	2
254.4275	1
254.5717	2
255.0997	5
255.3001	0
256.0991	4
256.2010	1
256.4759	0
256.9637	2
257.1681	2
257.9982	1
258.1505	1
259.0684	2
260.0402	0
260.1376	1
261.1195	0
261.3889	1
262.2213	0
263.0305	2
263.1613	1
263.9713	1
264.4568	0
264.6917	1
265.0825	2
265.2075	0
265.7862	1
266.0958	1
266.1665	0
266.4193	0
266.8043	1
267.1206	9
267.3485	0
267.7513	1
268.1226	5
268.3709	1
268.5402	2
269.1376	2
269.3305	0
269.9581	1
270.0366	0
270.7925	1
270.9023	1
271.1581	0
271.2758	1
272.0437	0
272.3957	1
273.0146	1
273.1815	1
274.6247	1
275.0475	0
275.9459	1
276.0166	0
276.1790	1
277.1653	2
278.1028	2
279.0771	2
279.2193	0
280.0038	1
280.1120	1
280.6587	1
280.9674	1
281.1510	3
281.9110	1
282.1018	3
282.2802	1
283.1072	1
283.9793	1
286.0124	0
286.7014	1
289.2856	1
291.1334	1
292.1206	1
292.8769	1
292.9991	2
293.1245	1
293.2374	1
293.4180	1
294.5883	1
295.1715	1
296.1084	1
297.2182	1
298.1968	1
299.1244	1
299.8174	0
301.1240	1
302.0363	0
302.1581	0
302.9653	0
303.0718	1
303.3916	0
304.1010	1
304.4261	1
305.8900	1
305.9835	1
306.0967	2
307.0277	4
307.1943	2
308.0392	1
308.1591	1
309.0759	1
309.1971	1
309.8164	1
310.6498	1
310.8376	0
311.2785	1
312.0575	1
315.0506	1
316.1018	1
316.9989	1
318.5626	1
318.8463	1
319.1308	1
320.0171	0
320.1551	1
320.8264	1
321.1096	3
321.2079	1
321.9936	0
322.2181	3
323.0065	2
323.1003	1
323.2278	2
323.9998	2
324.1280	1
324.2614	1
325.0455	1
327.0841	1
328.1815	1
331.2590	1
331.9429	1
333.2104	2
333.6209	0
333.6923	0
334.2158	3
334.5780	0
334.8517	1
335.1935	5
335.5274	0
335.7489	1
335.8712	1
336.1476	7
336.4359	2
336.6885	2
337.1858	75
337.5879	1
337.7519	2
337.9186	2
338.1461	3
338.3690	1
338.5092	1
338.7507	1
338.9280	1
339.1999	8
339.5498	0
340.3557	1
341.0981	0
341.8115	0
341.9372	0
345.1822	1
346.6424	1
347.1067	1
348.2035	1
348.2982	1
349.3278	1
349.5994	1
350.1447	1
350.3084	2
352.3519	1
356.2289	0
358.2428	0
360.0874	1
360.3649	0
361.0905	1
361.2419	1
363.0522	0
363.2366	1
365.2762	1
366.1623	2
367.4853	0
368.2498	1
372.0283	1
372.8972	1
375.3004	1
375.7483	1
376.2247	1
377.1232	1
378.0006	0
378.1497	1
378.3346	0
378.9543	1
380.2740	1
382.0660	1
384.1906	1
384.6496	0
388.1541	2
388.2549	0
388.9822	1
389.1056	1
389.2336	1
389.3305	1
389.5581	1
390.0791	1
390.2622	2
391.1250	1
391.3613	1
392.0138	0
392.2561	2
392.9564	1
394.2815	1
399.3795	0
400.3654	2
401.2566	1
402.1166	1
402.7101	1
402.9489	1
403.2944	3
403.6440	0
403.7852	0
403.9862	2
404.2734	3
404.7145	1
404.8757	3
405.2471	49
405.5961	0
405.8647	1
406.0299	1
406.3099	2
406.7789	0
407.6434	0
408.0137	1
408.1689	2
408.3594	2
409.0734	0
409.5379	1
409.8100	0
411.2104	1
411.8636	1
412.0620	1
412.2233	1
413.0471	1
413.4216	1
414.2656	0
415.9185	0
416.7519	1
417.3819	1
418.1452	1
418.2791	1
418.3660	1
419.1725	2
419.2580	1
419.8012	0
420.2151	1
428.1093	1
428.2500	1
429.0732	2
429.2690	2
430.1845	1
430.3239	0
431.2454	2
433.4227	1
434.2456	1
437.7009	0
439.2807	1
440.2774	1
442.1021	1
442.2756	1
443.1967	1
443.8613	1
445.0837	0
446.7443	1
447.1285	0
447.3599	1
447.4829	1
447.7317	1
447.8418	0
447.9824	1
448.3239	16
448.6223	1
448.9878	1
453.2012	1
456.2201	1
456.4026	1
457.2341	3
457.4292	1
458.1997	1
458.3809	1
458.6218	0
459.0008	0
459.3851	2
459.4840	2
461.3220	0
462.3185	1
467.3914	1
468.8233	0
470.0893	1
471.2053	0
471.8882	1
472.1300	1
472.2562	1
472.5054	2
473.3086	4
473.5079	2
473.7863	1
474.1338	1
474.3597	1
474.5104	1
475.2568	1
475.5529	0
482.3250	1
483.1986	0
483.3176	1
484.1673	1
484.3813	1
485.2544	2
485.5241	0
486.0159	1
486.4504	1
487.0146	1
487.3675	1
487.7855	1
488.4813	1
489.4251	1
490.0605	1
498.0598	1
499.3160	1
499.5069	0
500.3044	1
501.3421	0
507.3548	0
509.0608	1
509.8242	0
511.7249	1
512.1851	1
512.4958	1
513.2460	1
515.3610	1
516.5046	0
518.1543	1
519.1625	1
520.4771	1
520.8138	1
520.9952	0
521.1739	2
521.6667	1
521.8256	2
522.1298	0
522.2946	1
522.3876	2
522.8393	2
522.9821	1
523.1456	1
523.3236	1
523.5568	2
523.7308	2
523.8245	1
524.0730	2
524.3481	3
524.5168	3
524.6836	1
524.8384	1
524.9693	1
525.2211	2
525.4650	1
525.5673	2
525.6231	1
525.7979	2
526.1832	2
526.3560	2
526.6244	3
527.0344	7
527.3148	11
527.5746	2
527.7627	1
527.8723	1
528.1840	1
528.3561	1
528.4810	1
528.6006	1
528.7090	0
528.9542	1
529.2014	2
529.4420	2
529.5729	0
529.7716	2
529.9690	3
530.1551	2
530.2687	0
530.3777	0
530.4967	1
530.7712	3
531.2630	2
531.4484	1
531.5721	1
531.7349	1
531.8958	0
532.1131	1
532.2301	1
532.3344	1
532.4421	2
532.8881	1
533.1055	3
533.2058	1
533.4783	1
533.5967	2
533.8612	2
533.9736	1
534.0986	2
534.2235	2
534.3325	2
534.4216	1
534.5333	1
534.6350	1
534.8856	1
535.0910	3
535.2426	1
535.3277	1
535.4613	2
535.6534	3
535.7937	2
536.0416	1
536.2012	2
536.4013	3
536.6619	4
536.8633	2
537.0555	4
537.3088	3
537.5056	3
537.7695	5
538.1458	4
538.4636	9
538.9437	9
542.3987	999
542.8615	120
543.7158	38
544.3394	23
544.5948	13
544.9404	14
545.1812	10
545.5453	5
545.8353	7
546.0383	3
546.2339	3
546.5166	4
546.7322	2
