Mass spectrum: Deepoxyneoxanthin; FAB-EBEB; MS2; m/z: 584.42; [M]*+
Name: Deepoxyneoxanthin
Class: Natural Product; Carotenoid
Formula: C40H56O3
Exact mass: 584.42295
SMILES: C(=CC=C(C)C=CC(=C(C)2)C(C)(C)CC(C2)O)C(C)=CC=CC=C(C)C=CC=C(C)C=C=C(C(C)(O)1)C(C)(C)CC(C1)O
InChI: InChI=1S/C40H56O3/c1-29(17-13-19-31(3)21-23-36-33(5)25-34(41)26-38(36,6)7)15-11-12-16-30(2)18-14-20-32(4)22-24-37-39(8,9)27-35(42)28-40(37,10)43/h11-23,34-35,41-43H,25-28H2,1-10H3/b12-11+,17-13+,18-14+,23-21+,29-15+,30-16+,31-19+,32-20+/t24?,34-,35+,40-/m1/s1
Instrument: JMS-HX/HX 110A, JEOL
Instrument type: FAB-EBEB
Ms type: MS2
Ion mode: POSITIVE
Collision energy: 3 kV
Ionization: FAB
Base peak: 584.3458
Precursor m/z: 584.42
Precursor type: [M]+*
m/z	relative intensity
11.9620	0
12.9751	0
13.9760	1
14.9955	4
16.0049	0
18.0232	0
18.9686	1
22.9396	0
24.9623	1
25.9701	6
26.9817	41
27.1105	0
27.9925	4
28.9955	38
29.9759	0
30.9769	7
35.9650	0
36.1974	0
36.6931	0
36.9600	6
37.2666	0
37.5032	0
37.7273	0
37.9736	11
38.1515	0
38.2676	0
38.5705	0
38.6662	0
38.9827	105
39.2044	0
39.3702	0
39.5858	0
39.7135	0
39.9830	10
40.2839	0
40.3755	0
40.5725	0
41.0023	146
41.9800	5
42.2197	0
42.3693	0
42.4892	0
42.9830	367
43.2936	0
43.5006	0
43.9788	4
44.9935	6
45.9577	0
46.9739	1
47.7236	0
47.9633	0
48.2396	0
48.4811	0
48.9677	3
49.2275	0
49.3276	0
49.5838	0
49.9716	25
50.4491	0
50.6092	0
50.9647	59
51.1744	0
51.2983	0
51.6604	0
51.9778	22
52.2035	0
52.4407	0
52.5596	0
52.9909	80
53.5145	0
53.9850	3
54.1987	0
54.3580	0
54.9941	204
55.5395	0
56.0068	4
56.2320	0
56.3864	0
57.0101	78
57.4444	0
57.5256	0
57.9801	4
58.4663	0
58.9859	30
59.3485	0
59.5217	0
59.9722	1
60.3331	0
60.6348	0
60.9641	7
61.2273	0
61.4114	0
61.5474	0
61.9673	16
62.1925	0
62.4191	0
62.4904	0
62.9650	46
63.4540	1
63.9575	9
64.2138	0
64.3603	0
64.9709	77
65.2423	0
65.3720	0
65.4729	0
65.9867	13
66.2112	0
66.4789	0
66.6370	0
66.9930	115
67.3740	0
67.9907	3
68.6642	0
69.0036	154
69.2999	0
69.4728	0
69.9956	4
70.3360	0
70.5756	0
70.9899	38
71.2624	0
71.9554	0
72.2987	0
72.9704	3
73.2268	0
73.4729	0
73.9488	14
74.9618	19
75.2759	0
75.5535	1
75.9735	11
76.1802	0
76.4193	0
76.9796	206
77.2351	1
77.3897	1
77.9835	39
78.1921	1
78.9940	168
79.5279	0
79.6581	0
80.0010	21
80.3158	0
81.0103	170
81.2285	1
81.4105	0
81.9916	6
82.4561	1
83.0054	122
83.4837	0
83.9939	3
84.2690	0
84.4201	0
84.5479	0
84.9963	100
85.2806	0
85.5362	0
85.9509	7
86.3455	0
86.9717	65
87.4272	0
87.9626	4
88.2532	0
88.9698	25
89.2690	1
89.9983	8
90.1808	1
90.9976	375
91.3593	1
92.0085	37
92.3374	0
92.5184	0
92.6873	1
93.0174	244
93.2606	1
93.4034	0
93.5629	0
94.0249	12
94.3295	0
94.5376	1
95.0272	155
95.5253	1
96.0147	6
96.3549	0
96.5589	0
97.0192	20
97.2260	0
97.4453	0
97.9701	5
98.3469	0
98.6391	0
99.0059	8
99.4219	0
99.5063	0
99.6496	0
99.9886	2
100.3247	0
100.5894	1
100.9931	10
101.2296	1
101.5142	1
101.9915	23
103.0018	65
103.3286	1
103.5837	1
104.0185	31
105.0245	468
105.3500	1
106.0292	46
107.0313	201
107.3089	0
107.5262	1
108.0310	12
108.4814	0
109.0443	107
109.3625	0
109.5138	0
109.7011	0
110.0171	5
110.4678	0
111.0118	21
111.3057	0
111.4240	0
111.5568	0
111.7093	0
112.0220	1
113.0123	9
113.1987	1
113.9819	8
114.2322	2
114.9855	219
115.3431	1
115.9907	66
116.2258	2
117.0006	173
117.3107	1
118.0107	33
118.2529	1
119.0147	404
119.4935	1
120.0144	34
120.4901	1
121.0245	143
121.3313	1
121.6364	0
122.0071	11
122.4025	0
122.6038	0
123.0175	40
123.6240	0
123.7148	0
124.0125	2
124.3426	0
125.0179	29
125.3019	1
125.5137	1
125.9691	14
126.9706	69
127.9806	245
128.9854	269
129.3773	1
129.9843	90
130.9956	222
131.3026	1
132.0061	43
132.5408	2
133.0087	193
133.3386	1
133.9969	20
134.2305	0
134.4943	1
135.0090	79
135.3678	1
135.9865	6
136.4756	0
136.9867	20
137.2332	0
137.4154	0
137.9782	4
138.3838	1
138.9643	37
139.9823	11
140.1901	3
140.9771	201
141.2708	1
141.9848	170
142.9897	257
144.0035	92
145.0098	271
145.5163	2
146.0045	24
146.3347	1
146.5731	1
147.0214	94
147.3083	1
147.4998	1
147.6124	1
148.0168	11
148.2588	0
148.4956	1
149.0171	51
149.5223	1
149.9899	10
150.9987	30
151.9833	89
152.2415	2
152.9867	122
153.9977	52
155.0103	196
155.3474	1
156.0285	125
157.0309	247
157.3719	2
158.0462	53
159.0510	158
159.3678	1
160.0332	17
160.2960	1
160.4649	1
161.0538	48
162.0423	7
163.0390	25
164.0413	13
165.0181	176
165.3526	2
166.0367	62
167.0440	155
167.3810	1
168.0541	57
169.0641	179
169.4839	1
170.0687	64
170.3306	1
171.0761	139
171.5295	1
172.0775	26
173.0654	79
174.0318	12
174.6239	1
175.0812	45
175.4975	1
176.0246	20
177.0424	23
178.0237	97
179.0266	150
180.0328	60
180.2830	1
181.0405	139
181.3919	1
182.0433	55
183.0543	142
183.3355	1
184.0551	35
185.0538	71
185.3537	1
186.0578	14
186.4846	1
187.0503	34
188.0324	7
188.2886	1
189.0111	54
189.2974	2
190.0101	21
191.0145	73
192.0160	54
192.3842	1
193.0264	126
193.4207	1
194.0236	51
194.3901	2
195.0337	136
196.0403	35
197.0482	109
197.3859	2
197.5914	1
198.0566	20
198.3712	1
199.0484	50
199.4907	1
200.0298	12
200.2740	1
201.0309	25
202.0010	48
202.2571	2
202.9956	54
204.0154	23
204.3853	1
205.0145	60
205.3502	1
206.0244	43
207.0348	92
208.0210	37
209.0475	91
209.4307	1
209.6093	1
210.0346	19
211.0602	49
211.3865	1
212.0399	10
213.0367	28
214.0292	7
215.0186	52
215.5024	1
216.0196	21
217.0362	53
217.3475	1
218.0381	24
218.3800	1
219.0397	57
219.4669	1
220.0521	28
220.3438	1
221.0588	60
221.4795	1
222.0749	22
222.4278	1
223.0728	50
223.4758	1
224.0960	11
224.3750	1
225.0829	26
226.0369	17
227.0420	19
227.5735	1
228.0537	17
229.0499	35
229.3822	1
230.0624	19
231.0690	38
231.4323	1
232.0798	22
233.0987	78
233.4435	1
234.0866	19
234.3133	1
235.0930	42
235.5605	1
236.0776	11
236.3963	1
237.1014	28
237.3799	1
238.0958	7
239.0786	24
240.0583	8
240.3741	1
241.0698	20
242.0656	11
243.0770	30
243.5264	1
244.0589	14
244.4274	1
245.0850	35
245.6059	1
246.0836	17
246.4272	1
247.0937	36
247.4927	1
248.0881	10
248.3544	1
249.1115	29
250.0709	7
250.4451	1
251.1131	19
252.0585	11
252.3930	0
253.0972	21
253.3548	1
253.4998	1
254.0614	7
255.1162	38
255.4552	1
256.0872	9
256.3704	1
257.1099	27
257.4984	1
258.0963	10
258.3904	1
258.5676	1
259.1180	27
259.8024	1
260.1268	10
261.1176	23
261.4373	0
261.6742	1
262.1481	5
263.1213	18
264.1390	4
264.4841	1
265.1036	15
266.1037	6
267.1026	16
268.1187	8
268.3779	1
268.5858	1
269.1224	23
269.6030	1
270.1335	14
270.5193	1
270.6802	1
271.1181	21
271.3979	1
272.1367	7
272.5319	1
273.1310	19
274.1158	6
275.1371	16
275.5005	0
276.0926	5
276.5251	1
277.1272	11
277.4817	1
278.1107	5
278.3788	1
278.6166	0
279.1176	10
279.5737	0
280.1031	5
280.3586	1
280.4769	0
280.6128	0
281.1282	14
281.6486	1
282.1050	5
283.1355	17
284.1142	6
285.1467	20
285.4794	0
286.1302	5
286.5201	0
287.1455	10
287.4982	0
287.6174	0
287.7556	0
288.1619	4
289.1453	10
289.6858	1
290.1114	3
290.5207	0
290.7677	1
291.1503	7
291.4667	0
291.6915	0
292.1270	3
292.4970	1
293.1490	9
293.7665	0
294.1381	5
294.5280	0
294.6289	0
295.1465	10
295.5605	0
296.1432	4
296.4105	1
297.1682	20
297.5662	0
298.1315	6
298.6008	0
299.1620	14
299.5001	0
300.1228	4
300.5507	1
301.1389	6
301.6517	0
302.1171	3
302.4937	0
303.1556	6
303.7364	0
304.1392	3
304.6318	0
305.1265	4
305.3167	2
305.5096	0
306.0780	2
306.3658	1
307.1541	8
307.4773	0
307.6555	1
308.1174	3
308.6033	1
309.1480	6
310.1293	4
310.4406	0
311.1242	7
312.1406	5
312.3813	0
313.1466	4
313.4376	1
313.7498	0
314.1606	3
314.4693	0
314.6945	0
315.1514	5
315.5275	0
316.0886	2
316.4421	0
316.6348	0
317.1364	5
317.5212	1
318.1541	2
318.3525	1
318.6091	1
318.7154	0
319.1393	7
319.6808	1
320.1480	2
320.6032	0
321.1372	5
321.5492	0
321.7173	0
322.1719	2
322.4180	0
322.5854	1
323.1550	4
323.4331	0
323.7616	0
324.1554	2
324.3853	1
324.6705	0
325.1524	4
325.5938	0
326.1360	1
326.3149	1
327.1604	4
327.5424	1
327.6460	0
327.8405	0
328.1856	1
328.3568	1
329.1713	5
329.5001	0
329.6372	0
330.1408	1
330.3951	1
330.6323	0
331.1665	4
331.6561	0
332.1783	1
332.3609	1
332.5983	0
333.1867	6
333.5165	1
334.1782	3
334.3772	1
334.6786	0
335.1983	7
335.7502	0
336.1865	3
336.6781	0
336.8044	0
337.2116	5
337.5402	0
338.2321	3
338.3513	1
338.5592	0
338.7232	0
339.1902	3
339.5763	0
339.7310	0
340.1421	1
340.5034	0
341.2119	3
341.6032	0
341.9227	0
342.1720	1
342.2920	0
342.5505	1
342.8907	1
343.2010	3
343.3189	1
343.4610	0
343.6002	0
343.7210	0
344.1571	1
344.6572	0
345.1894	4
345.5666	0
345.7016	0
346.1699	2
346.3056	1
346.4172	0
347.2003	5
347.3958	2
347.5998	0
347.7803	0
348.1890	3
348.6227	1
349.1807	7
349.5070	0
350.1946	4
350.6063	0
351.2015	5
351.5891	1
351.7271	0
352.1794	3
352.5941	0
353.1788	2
353.4228	1
353.5103	0
353.7536	0
354.1791	1
354.4722	0
354.6793	0
355.1895	2
355.6947	0
355.8613	0
356.0620	1
356.2413	0
356.5744	0
356.6925	0
356.8250	0
357.2136	2
358.1696	1
358.3746	1
358.4700	0
358.6473	0
359.1970	3
359.4768	0
359.6014	0
360.2451	4
361.2266	4
361.4523	1
361.5613	0
361.6689	0
362.2316	4
362.4799	1
362.8970	1
363.2351	5
363.4828	1
363.6829	0
364.1691	2
364.3528	1
365.2135	5
365.6201	0
366.1997	2
366.4127	1
366.7452	1
367.2345	21
367.5522	1
367.7224	0
367.9760	1
368.1555	1
368.3962	0
369.1905	1
369.7405	0
370.0647	1
370.2471	1
370.6817	0
371.2083	2
371.6808	0
371.7649	0
372.1804	1
372.3322	1
372.4947	0
372.6051	0
372.8097	0
373.2124	4
373.5724	0
373.7150	0
373.8254	0
374.2703	2
374.4749	0
374.6995	0
375.2114	2
375.5344	0
375.6613	0
376.2096	3
376.3914	1
376.6445	0
377.2192	3
377.5532	0
377.8004	0
378.2370	3
378.6893	0
379.2300	2
379.6596	0
380.2146	1
380.4903	0
380.7668	0
381.2263	1
381.6033	0
381.8085	0
382.1050	0
382.3266	1
382.4806	1
383.2268	1
383.7435	0
384.3067	1
384.6888	0
384.8705	0
385.2134	1
385.6476	0
385.8651	0
386.1917	1
386.4761	0
387.2413	2
387.4680	0
387.7347	0
388.2354	1
388.6270	0
388.7725	0
389.2154	2
389.3923	1
389.4850	0
389.9537	0
390.1448	1
390.3032	1
390.4280	0
390.6471	0
390.7569	0
391.2321	3
391.4033	1
391.6773	0
391.9506	0
392.2716	2
392.6049	0
392.7633	0
393.2814	1
393.4919	0
393.6411	0
393.7117	0
394.1820	0
394.3391	0
394.6217	0
395.2177	1
395.3819	1
395.5410	0
395.7673	0
395.9522	0
396.3484	0
396.5576	0
396.7525	0
397.2694	1
397.6585	0
398.1883	1
398.5739	0
398.7888	1
399.2673	2
399.5372	0
399.6651	0
399.7858	0
400.2386	1
400.4378	0
400.6264	0
400.7471	0
401.2978	2
401.5714	0
401.8721	0
402.2586	3
402.6393	0
403.0123	1
403.2459	2
403.4367	1
403.6553	0
403.9189	0
404.2283	2
404.3577	1
404.4799	0
404.7078	0
405.0915	1
405.2566	1
405.3945	0
405.5668	0
405.7325	0
405.8062	0
405.9605	0
406.1549	1
406.3779	0
406.7531	0
406.9525	0
407.2663	1
407.4665	0
407.7660	0
407.9440	0
408.1548	0
408.4408	0
408.5866	0
408.8674	0
409.2968	1
409.4294	1
409.6413	0
409.8117	0
410.2497	1
410.6100	0
410.7862	0
411.2299	1
411.5517	0
411.6673	0
411.8749	0
412.2395	1
412.6683	0
413.2812	3
413.6780	0
414.2639	1
414.4937	1
414.6514	0
414.8883	0
415.2495	4
415.9640	1
416.2759	2
416.5264	0
416.7413	0
416.8948	0
417.2082	2
417.3224	1
417.5937	0
418.2626	1
418.5403	0
418.8645	0
419.2222	2
419.4707	1
419.6121	0
419.7706	0
419.9505	0
420.2347	1
420.3654	1
420.5775	0
420.7325	0
421.3031	1
421.5280	0
421.7159	0
421.8351	0
422.0815	0
422.2780	0
422.5165	0
422.6580	0
422.9051	0
423.2751	1
423.6973	0
423.8623	0
423.9687	0
424.1580	1
424.2773	0
424.3952	0
424.5809	0
425.1889	2
425.3847	1
425.5583	0
425.7575	0
425.8831	0
426.2491	1
426.5494	0
426.7699	0
427.2708	2
427.4063	1
428.2512	4
428.6579	0
429.2531	3
429.4507	1
429.6492	0
429.8940	0
430.2565	1
430.4771	0
430.6284	0
431.2108	2
431.7062	0
431.9453	0
432.1859	1
432.3558	1
432.4850	0
432.7377	0
433.1967	1
433.6908	0
433.9914	0
434.1977	0
434.4440	0
434.6011	0
434.7575	0
434.9717	0
435.2245	1
435.4215	0
435.8607	1
436.0150	0
436.1185	0
436.2670	0
436.3856	0
436.7348	0
437.2733	1
437.8011	0
438.1154	1
438.2832	0
438.6003	0
438.8018	0
439.2261	1
439.5289	1
439.9326	1
440.2583	1
440.4891	0
440.7812	0
440.9456	1
441.2707	4
441.7315	1
442.0709	1
442.2659	1
442.4381	0
442.5525	0
442.7032	0
442.8468	0
443.2584	1
443.5571	0
444.2303	2
444.4297	1
444.5941	0
444.7449	0
445.2430	1
445.5024	0
445.7176	0
446.1872	0
446.5782	0
447.1393	1
447.5532	1
447.7998	1
447.9128	0
448.1966	1
448.4539	0
448.6412	0
449.0445	0
449.4034	1
449.8217	0
450.1999	1
450.4165	0
450.6646	0
451.1874	2
452.1549	1
452.3437	1
452.5425	1
452.8007	0
453.2928	1
453.5552	1
453.7977	1
453.9586	0
454.2812	1
454.5273	0
455.2039	1
455.4207	1
456.2755	2
457.0582	2
457.4624	1
457.7336	1
458.1207	1
458.3890	1
458.5915	1
459.2305	1
459.5654	0
459.6899	0
460.0055	0
460.2652	0
460.7347	1
461.1444	1
461.2867	1
461.4390	1
461.6898	1
461.9901	1
462.2982	1
462.5226	1
462.7843	1
463.3391	2
463.7308	1
464.1133	0
464.6317	1
464.8455	0
465.2888	1
465.4297	1
465.7328	0
466.2169	1
466.4179	1
466.7168	0
467.3039	4
467.4755	2
467.7366	1
467.8696	0
468.2908	1
468.6427	0
469.2879	2
469.4373	1
469.7556	1
470.1076	1
470.4080	1
470.7092	1
471.1119	1
471.4159	1
471.5654	1
471.8251	1
472.0762	1
472.3266	1
472.6707	0
472.9033	1
473.0142	0
473.2696	1
473.5093	1
473.6910	0
473.7633	0
473.9879	1
474.1876	1
474.4874	1
474.8867	1
475.0541	0
475.3181	1
475.5658	0
475.8899	1
476.0796	1
476.3272	1
476.4724	0
476.8546	1
477.2804	2
477.6963	1
478.2302	1
478.4893	1
478.6675	1
478.8178	0
478.9467	0
479.1385	1
479.3210	1
479.4756	0
479.6725	0
479.8751	0
480.1714	1
480.5150	0
480.7785	0
481.2137	2
481.5044	1
481.6326	1
481.8638	0
482.0700	1
482.3077	1
482.4738	1
482.6378	0
482.8790	0
483.2513	3
483.4805	2
483.5900	1
484.2939	3
484.6212	1
484.7944	0
485.1890	1
485.3394	1
485.4568	1
485.5886	1
485.7805	0
485.9588	0
486.2546	1
486.5010	0
486.6843	0
486.9844	0
487.2487	1
487.5008	0
488.0057	0
488.4040	1
488.5866	0
488.7063	0
489.2562	1
489.7853	0
490.0692	1
490.3689	1
490.7794	1
491.3887	1
492.3278	31
492.7691	0
493.0409	1
493.3234	1
493.6310	0
493.9250	1
494.3084	1
494.6203	0
494.8170	0
495.1468	1
495.3228	1
495.7155	1
495.7928	0
495.9803	0
496.1541	0
496.4260	1
496.6227	0
496.7508	0
497.3089	2
497.6086	0
497.9535	0
498.3127	2
498.5052	1
498.7907	0
499.2208	1
499.3488	1
499.4440	0
499.8591	0
500.0680	0
500.2455	0
500.4387	1
500.6140	0
500.8960	0
501.2982	0
501.3884	0
501.7004	0
502.1205	0
502.4884	0
502.7683	0
503.0760	1
503.3301	1
503.7553	0
504.3280	2
504.5964	1
504.7704	0
505.3244	2
505.5320	1
505.7110	0
505.8406	0
506.0732	0
506.1885	0
506.3288	0
506.4612	0
506.6646	0
506.8400	0
506.9703	0
507.3748	1
507.8602	0
508.1158	0
508.2855	0
508.4996	0
509.0545	1
509.3853	1
509.8200	0
510.3141	2
510.6549	1
510.9686	1
511.3424	1
511.6919	1
511.9419	0
512.3436	1
512.6638	1
513.0577	0
513.3234	1
513.4989	0
513.7990	0
513.9830	0
514.2323	0
514.3763	0
514.5009	0
514.6435	0
514.8004	0
515.0203	0
515.1320	0
515.3325	0
515.5826	1
515.8391	0
516.1671	1
516.4786	1
517.1211	1
517.3483	0
517.5984	1
517.7735	0
518.0115	0
518.2673	0
518.5582	0
518.7947	1
519.0770	0
519.2307	0
519.5001	1
519.6745	0
519.8611	0
520.1376	1
520.2363	0
520.5822	1
521.2677	1
521.4278	1
521.5822	0
521.8702	0
522.0497	1
522.1290	0
522.3220	1
522.5736	1
522.8210	0
523.2778	1
523.5015	1
523.6824	0
523.9225	0
524.2128	1
524.5789	1
524.7011	0
525.3016	3
525.5211	2
525.7342	0
526.2983	4
526.6172	1
526.7438	0
527.2936	2
527.5961	1
527.7319	0
527.9658	0
528.2282	2
528.4005	1
528.6844	0
528.8804	0
529.0363	0
529.1378	0
529.2930	0
529.4410	0
529.5225	0
529.6649	1
529.7800	0
529.9537	0
530.2084	1
530.3750	0
530.5101	1
530.6081	0
530.7204	0
530.8763	0
531.0472	0
531.3491	0
531.6588	0
531.8275	0
531.9935	0
532.2016	1
532.4849	0
532.6093	1
533.2566	2
533.5541	1
533.8260	0
533.9454	0
534.3568	1
534.6543	0
535.3511	1
535.5778	1
535.7695	0
536.4413	1
536.9235	1
537.2269	2
537.5466	2
538.2779	2
539.3683	3
539.5007	2
540.3257	6
540.5876	2
540.8981	1
541.3719	3
541.5873	1
541.9036	2
542.1541	2
542.7416	1
543.2447	1
543.5668	2
543.8552	1
544.0978	2
544.3569	2
544.9188	1
545.2001	1
545.6703	2
545.9874	2
546.5722	2
547.3074	2
547.5958	2
548.3647	4
548.8915	2
549.3232	3
549.6082	2
550.2604	3
551.3508	17
551.9250	1
552.3525	2
552.7034	1
553.3364	2
554.4520	4
555.4474	4
556.4866	6
566.4183	306
567.4119	30
569.4033	115
569.8582	9
570.9449	6
584.3458	999
585.3789	167
586.1460	76
586.9439	40
587.7812	21
588.8659	10
589.9507	6
590.6615	3
591.4903	4
591.7943	2
592.3778	2
592.9600	2
593.2410	1
