Mass spectrum: Mactraxanthin; FAB-EBEB; MS2; m/z: 636.44; [M]+*
Name: Mactraxanthin
Formula: C40H60O6
Exact mass: 636.43899
SMILES: CC(C=CC(C(C)(O)2)(C(C)(C)CC(O)C2)O)=CC=CC(=CC=CC=C(C=CC=C(C)C=CC(C(C)(O)1)(C(C)(C)CC(O)C1)O)C)C
InChI: InChI=1S/C40H60O6/c1-29(17-13-19-31(3)21-23-39(45)35(5,6)25-33(41)27-37(39,9)43)15-11-12-16-30(2)18-14-20-32(4)22-24-40(46)36(7,8)26-34(42)28-38(40,10)44/h11-24,33-34,41-46H,25-28H2,1-10H3/b12-11+,17-13+,18-14+,23-21+,24-22+,29-15+,30-16+,31-19+,32-20+/t33-,34-,37+,38+,39+,40+/m0/s1
Instrument: JMS-HX/HX 110A, JEOL
Instrument type: FAB-EBEB
Ms type: MS2
Ion mode: POSITIVE
Collision energy: 3 kV
Ionization: FAB
Base peak: 42.9800
Precursor m/z: 636.44
Precursor type: [M]+*
m/z	relative intensity
11.7374	0
15.0014	4
19.0003	2
22.9603	30
25.9868	10
26.9782	14
27.9956	3
28.9995	36
29.9668	1
30.9789	16
36.9516	7
37.9697	7
38.9654	60
39.7099	2
39.9804	8
40.8169	5
40.9982	232
42.0143	17
42.9800	999
43.8961	2
43.9914	11
44.9711	16
46.9877	4
48.9946	1
49.2716	2
49.9805	28
50.9804	52
51.9789	18
52.8410	3
52.9925	117
53.9905	5
55.0040	251
55.9998	15
57.0183	159
57.3213	3
57.9173	4
58.0216	10
59.0110	72
60.9752	30
61.9840	7
62.9891	31
63.2048	3
63.9823	7
64.2710	1
64.9943	40
66.0235	21
66.3148	2
67.0074	142
67.9928	14
68.6839	3
69.0023	219
70.0053	20
70.9934	103
72.0213	5
72.5395	0
72.9897	19
73.9061	3
74.0162	7
75.0154	16
75.2862	5
75.9818	16
76.5413	3
76.9882	166
78.0036	62
78.2114	2
78.6255	4
78.9916	167
79.8115	2
80.0122	50
80.5943	2
81.0070	269
81.6308	3
81.9912	30
83.0287	511
84.0180	17
85.0043	256
86.0232	17
86.9822	150
88.0092	6
88.3025	4
88.6545	5
88.9621	31
89.6932	5
89.7571	2
89.9298	9
90.0867	2
90.4356	4
90.6086	4
90.7162	3
91.0089	362
91.9988	64
93.0096	233
93.9770	20
94.2380	5
94.3359	5
95.0140	190
95.4472	4
95.7392	4
96.0146	33
96.7606	2
97.0171	81
97.6284	4
98.0271	22
99.0124	51
100.0207	6
100.9704	10
101.3049	4
101.6384	2
102.0181	17
103.0239	72
103.4026	4
103.4848	4
103.6879	1
104.0344	33
104.5881	4
105.0280	416
105.2542	5
105.5255	5
106.0234	40
106.6182	4
107.0310	254
107.4907	5
108.0227	39
109.0395	232
109.5137	5
109.9348	5
110.0685	8
110.2861	3
111.0176	68
111.8815	5
112.0109	6
112.3070	0
112.7280	2
113.0342	109
113.7996	2
113.9391	10
114.0448	6
114.4235	4
114.6053	1
115.0239	139
115.2454	8
115.3208	3
115.6262	7
116.0170	87
116.2146	3
116.6023	11
117.0201	137
117.5112	2
118.0436	38
118.1744	2
118.6093	3
119.0222	383
119.4806	2
120.0210	60
120.4320	6
121.0221	222
121.2275	5
121.4547	2
121.9925	35
123.0189	140
123.6422	4
123.8379	5
123.9922	19
124.3369	1
125.0112	249
125.4688	2
125.6285	1
125.9936	23
126.2055	3
126.5427	3
127.0028	53
127.4236	2
128.0098	215
128.4171	10
128.6629	4
129.0119	267
129.3604	4
129.6029	5
130.0033	130
130.2560	5
131.0187	265
131.4610	1
132.0177	75
132.1788	6
132.5770	4
133.0273	290
133.2894	7
134.0004	32
135.0267	106
135.7885	7
135.9931	21
137.0198	51
137.5047	1
137.9313	7
138.0800	5
138.4203	5
138.7207	5
139.0191	49
139.2819	4
139.4166	5
139.8021	4
140.0092	22
140.1103	9
140.2336	7
140.3699	6
140.9969	142
141.2976	5
141.4376	5
141.6473	0
142.0043	141
142.5031	4
142.6576	2
143.0150	261
143.3402	5
143.6324	9
144.0349	100
144.2697	3
144.5189	5
145.0306	470
145.3219	2
145.5275	7
146.0383	78
146.1913	10
146.3421	4
147.0232	117
147.2811	3
147.6244	5
148.0228	31
148.6855	4
149.0149	67
149.3516	5
149.8210	4
150.0072	14
150.1478	5
150.6002	6
151.0513	41
151.2567	7
151.6268	6
151.7669	5
152.0152	61
152.4343	2
152.6559	5
153.0316	113
153.2468	6
153.6984	6
153.9989	37
154.3358	5
154.4952	6
155.0399	192
156.0462	91
156.3758	2
157.0462	273
157.2972	8
157.7060	2
158.0471	81
158.2728	8
159.0460	240
159.5030	2
159.6010	2
159.8358	13
160.0693	36
160.2954	5
161.0693	84
161.3169	6
162.0746	27
162.4603	2
163.0654	36
163.9058	10
164.0277	13
164.3825	2
164.4985	3
165.0658	102
165.6135	2
166.0629	41
166.2777	2
166.5845	7
167.0593	103
167.3089	5
167.6521	0
168.0816	56
168.6867	6
169.0841	147
169.3526	5
170.0933	65
170.6160	2
171.0871	152
171.4610	1
172.0914	35
173.0905	70
173.4004	4
173.5907	1
173.8925	5
174.0290	10
174.1582	17
174.3450	5
174.8109	4
175.1078	50
175.7742	7
176.0321	46
177.0370	26
177.4824	6
177.7259	3
177.8488	9
178.0953	44
179.0728	95
179.6790	4
180.0741	47
180.6309	4
181.0886	166
181.7357	5
182.0727	58
182.4076	2
183.0836	141
183.4506	2
184.1159	38
185.1110	104
186.0659	29
186.3667	4
186.6095	4
187.0661	58
187.5809	6
188.1400	9
189.0721	28
190.0497	25
191.0540	32
191.1869	11
191.3087	6
191.4969	7
192.0454	34
192.3683	2
192.5186	4
193.0794	99
193.5596	10
194.0864	49
194.3648	6
195.0873	139
195.2977	7
196.1060	39
196.3937	5
197.0998	102
197.4035	2
198.1010	37
198.3922	2
199.1179	77
199.4955	5
199.7012	4
200.1285	22
200.7242	1
200.8925	6
201.1195	39
201.2661	9
202.0825	21
203.1024	32
204.0672	24
205.0800	32
206.0767	34
207.0710	67
207.8041	7
208.1074	28
208.2560	15
208.4258	5
209.0930	129
209.6267	5
209.7271	4
209.8699	6
210.0851	30
211.0944	48
211.7036	0
211.9281	8
212.0936	26
213.0949	36
213.6638	5
214.0732	13
214.1974	9
214.6319	3
215.0975	33
215.9079	7
216.0874	17
216.6443	2
216.7853	4
217.1362	37
217.6153	4
217.7707	5
218.0414	7
218.1590	7
218.4092	2
219.0943	38
219.5806	4
219.7651	5
220.0763	22
220.5120	7
220.6183	2
220.7755	5
221.1195	131
222.0675	17
222.1830	13
222.3684	5
222.6321	5
222.7484	5
223.1231	53
224.1199	22
224.3580	3
225.1408	69
225.3866	5
225.5776	3
225.9323	5
226.1416	22
226.9189	4
227.1322	25
227.2814	9
227.6691	4
228.1102	24
228.3236	5
228.5164	5
229.1002	18
229.6864	4
230.0898	5
230.2377	7
231.0890	17
231.2179	12
232.1413	27
232.6580	4
232.7771	5
233.1559	91
233.8233	1
234.1464	25
234.8012	7
235.1581	28
235.9056	2
236.0088	3
236.1686	10
236.2710	7
237.1875	32
237.6954	1
238.0815	7
238.2180	3
238.8704	5
239.1719	29
239.7032	2
240.0650	15
240.2903	12
240.6087	7
240.9402	6
241.1258	14
241.8974	5
242.0930	22
242.2359	12
243.0361	13
243.1791	29
243.4933	2
244.1578	17
245.1911	21
246.1691	36
246.3627	3
247.1596	30
248.0195	6
248.1896	8
248.5189	7
248.6737	4
248.9679	5
249.1801	25
249.9012	6
250.1388	18
251.1530	33
252.0043	5
252.1393	10
252.2428	3
252.8312	5
253.1343	26
253.2640	5
253.8549	6
254.2172	23
255.0064	5
255.2298	12
255.8726	5
256.1399	13
256.2567	5
256.9012	4
257.0956	16
257.2593	9
258.0886	12
258.2469	9
259.1895	19
259.7255	0
260.1631	12
261.1271	12
261.2879	10
262.0305	4
262.2114	10
263.1737	24
264.1540	6
264.5091	6
264.9050	5
265.1630	15
265.3487	7
265.5097	5
265.8780	3
266.1739	11
266.8259	4
267.0563	20
267.1797	12
267.3161	6
267.4926	5
268.0061	2
268.1758	13
268.2698	6
268.5497	5
268.9724	5
269.2547	5
269.3519	4
270.0986	20
270.3633	6
271.1574	17
271.6576	5
272.1284	12
272.2929	5
272.4033	5
273.2126	17
273.9193	4
274.2028	13
274.7737	5
275.2042	22
276.1927	4
276.4447	5
276.8026	5
277.2093	12
278.0359	5
278.3020	3
279.2535	17
279.7518	5
280.3237	4
281.0892	11
281.2494	7
281.3764	5
282.2048	6
283.0068	4
283.1050	2
283.3423	10
284.0626	5
284.2450	6
284.7151	5
284.9068	6
285.1913	17
285.4218	4
286.2013	21
287.2007	19
288.1169	3
288.2948	5
289.2476	16
289.8065	3
290.0148	5
290.2184	10
290.4198	5
291.1461	20
291.4017	4
292.1322	9
292.9619	4
293.1518	8
293.3006	4
293.6989	5
293.8307	4
294.1864	5
294.3484	5
294.6802	6
294.8988	5
295.1608	9
296.2208	16
296.3177	9
296.9545	11
297.0972	6
297.2609	16
298.2035	10
299.2324	25
299.7284	5
299.8231	1
300.1031	8
300.2357	3
300.4923	5
301.1113	6
301.2594	13
301.4603	5
302.2004	12
302.5876	2
302.8421	4
303.1315	15
303.3116	6
304.1366	7
305.1636	10
305.2467	5
306.2911	7
307.2247	12
307.3840	3
308.2230	4
309.1796	8
309.2852	8
310.0026	4
310.8927	4
311.1221	15
311.2200	10
311.9175	4
312.0886	4
313.0141	12
313.1891	7
314.1537	13
314.2650	4
314.9046	5
315.1233	5
315.3567	2
315.4836	5
316.2479	4
317.1042	10
317.2544	8
318.2215	4
318.5237	6
319.1311	12
319.3025	10
320.0589	8
320.1999	15
320.3502	12
320.8263	8
320.9767	4
321.0764	3
321.2930	7
321.3982	7
322.2445	9
323.1300	11
323.3023	4
323.6469	3
324.1061	5
324.3463	6
324.5209	5
325.1502	10
325.3436	6
326.1095	2
327.0706	9
327.2672	6
327.7003	5
327.9531	5
328.1482	10
328.7498	4
329.1299	25
329.8535	5
330.1915	30
330.9231	5
331.2182	7
331.3431	3
332.2592	6
332.5153	3
333.1613	7
334.0456	6
334.2339	5
334.3315	4
334.5034	4
335.2692	15
335.3794	2
336.1867	5
337.1458	6
337.3967	3
338.4749	0
339.2451	4
339.9294	9
340.2376	4
340.4003	6
341.1005	9
341.2992	7
343.2608	5
343.4401	5
344.0005	5
344.1742	3
345.2201	10
345.4243	3
345.6776	3
346.2700	12
346.7249	5
347.1947	17
347.3495	10
347.9194	4
348.2134	10
348.3041	7
348.8897	4
349.2659	6
349.4325	11
349.5990	4
350.1050	11
350.3311	3
351.3018	5
352.1139	8
352.3377	11
353.2955	11
353.4489	8
354.1674	7
354.2534	5
355.3947	3
356.1941	5
356.3647	5
356.6145	0
357.3271	8
357.7508	5
358.0351	7
358.2935	7
359.0463	7
359.2703	12
360.0498	4
360.1963	5
360.3890	11
361.2729	12
361.4955	5
361.9022	6
362.1420	5
362.4249	11
363.1829	10
363.4039	10
363.9166	6
364.0656	8
364.3133	8
365.2581	4
366.2712	8
367.3426	8
367.5395	6
367.6878	5
368.0329	5
368.1051	2
369.0905	4
369.4216	7
370.2737	1
370.9777	5
371.1551	5
371.3042	7
371.5043	2
372.1267	6
372.3112	8
372.4769	4
372.9330	5
373.2737	5
373.4370	5
374.0890	10
374.2419	4
374.4041	15
375.0368	7
375.2728	9
375.9770	4
376.2373	10
376.3275	4
376.5063	4
377.1259	6
377.3761	8
378.2821	9
378.4303	5
379.0030	7
379.2525	5
379.4267	5
380.1666	11
381.5210	7
382.9471	3
383.1881	6
383.3286	11
384.4505	4
385.1666	11
385.2616	5
385.3943	13
388.0002	6
388.2320	5
388.4205	7
388.6782	2
390.0341	7
390.2924	4
391.1588	10
391.2906	5
391.4210	2
392.3723	9
393.2375	9
393.3780	10
394.1192	11
394.3697	5
395.0418	7
395.2766	2
395.4039	0
396.5388	6
396.9715	5
397.3124	10
398.0422	6
398.1734	5
398.3463	11
398.9984	2
399.1398	5
399.4030	5
400.7365	5
401.2340	5
402.1685	6
403.2069	12
403.4655	20
404.0308	5
404.4074	5
405.9714	5
406.3040	11
408.1909	9
408.4112	0
410.2112	5
410.8894	5
411.4631	9
412.1548	8
412.5278	5
413.1433	7
413.2842	5
413.4951	2
414.0532	5
414.2524	5
415.3041	7
415.4655	5
415.9167	5
416.1261	7
416.2773	1
417.2340	3
417.3915	3
418.1231	3
418.3932	9
419.2454	5
419.4234	8
420.2064	2
420.4703	5
421.4235	5
422.2303	10
422.3168	5
422.7548	5
423.1943	4
423.3131	5
423.5899	2
423.9705	4
424.5076	5
425.3672	7
425.5490	3
427.1379	0
428.5305	7
429.1969	6
429.3079	5
429.7580	2
430.2962	5
430.4363	4
430.5559	5
431.4594	11
432.2748	2
432.4819	10
433.3895	17
433.5690	4
434.0673	7
434.2027	7
434.3586	5
434.4562	5
435.6420	4
435.9412	2
436.3318	10
437.1610	7
437.3461	12
437.5572	2
438.2550	10
439.2553	5
439.4562	2
440.2899	10
440.4513	3
442.4307	7
443.0683	5
443.1872	5
443.3549	5
443.5351	3
443.6847	2
444.0303	5
444.2925	12
444.4838	5
444.6287	5
444.7326	4
445.1451	6
445.5026	3
446.1357	7
446.3538	10
447.5256	11
447.8517	1
448.3400	4
449.4836	5
450.1666	5
450.2714	7
450.4478	24
451.1631	5
451.4877	4
452.4040	6
453.0344	4
453.1541	4
453.4449	11
454.0982	5
454.2865	6
454.4110	1
454.6167	5
456.2758	4
457.2713	8
460.2254	10
460.5330	6
461.0731	5
462.0352	5
462.2190	17
462.4413	8
462.6125	8
463.2947	5
463.5211	0
463.8815	6
464.3982	11
465.3432	14
465.5381	3
465.8528	6
466.0351	5
466.2102	9
466.3435	9
467.0512	4
467.1933	5
467.3676	10
467.4923	5
467.6059	5
468.2885	9
468.3989	5
470.3166	3
470.4199	2
471.3189	14
471.4026	6
471.7412	0
472.3040	7
472.5108	8
472.7144	5
473.4296	5
473.5915	8
474.1196	6
474.4141	5
474.6975	5
475.4002	10
475.5534	5
476.4338	7
476.6129	7
477.4120	20
477.9660	5
478.3050	10
478.4941	4
479.4518	8
480.6413	10
481.0694	4
481.1939	7
481.3295	9
481.4778	4
481.6181	3
481.8428	6
482.2228	10
482.3749	15
482.5618	16
483.2580	60
483.5506	13
483.6499	5
484.8170	2
485.1529	8
485.2886	5
485.5307	5
486.2515	4
486.3871	7
486.7429	5
487.1278	6
487.4780	5
487.6460	5
488.0183	5
488.1942	3
488.4963	6
490.2374	6
490.4236	5
490.8701	6
491.1920	11
491.3356	7
491.4966	10
491.6559	9
492.1617	5
492.4947	6
493.4132	12
493.5553	6
494.0532	5
494.3973	7
495.4888	8
496.3018	8
497.2427	7
497.5987	5
497.9263	4
498.3423	14
498.8286	5
498.9115	3
499.0820	6
499.4499	16
500.4289	12
500.6129	2
500.7977	8
501.4057	5
502.1526	5
502.2806	6
502.5507	3
503.0039	5
503.6515	5
504.0156	5
504.1577	5
504.3702	6
504.5052	5
504.8370	5
505.0605	7
506.3671	9
506.7315	5
507.1526	2
507.5809	4
508.3578	6
508.5053	7
508.7435	6
509.0732	17
509.2081	15
509.8533	0
511.5132	10
511.7735	5
512.2397	0
512.5301	7
513.0706	4
513.2449	4
513.8415	6
514.6818	7
515.2003	0
515.5673	5
516.4298	5
517.3761	6
517.8655	5
518.0470	4
518.3264	6
518.5159	11
519.2318	3
519.3226	2
519.5720	4
520.2485	15
520.3764	8
520.5256	7
520.9953	1
521.9214	6
523.5242	6
523.6592	5
523.8487	4
524.3343	5
524.4283	4
524.5909	8
524.7039	7
524.8744	5
525.2590	4
525.4627	5
526.1805	5
528.4276	2
528.6937	6
528.9868	5
529.1234	8
529.5042	4
529.7142	2
530.3588	5
531.4624	6
532.4697	6
532.6735	6
533.2794	7
533.6988	4
534.1679	6
534.3469	11
534.5377	17
534.8294	2
535.2260	5
535.5217	3
535.6998	7
535.9395	7
536.1595	5
536.4410	10
536.6602	4
536.7769	5
537.1396	7
537.2729	4
538.3683	5
538.5922	6
539.4614	7
541.2281	4
541.4347	7
544.0963	6
544.2264	8
544.3960	15
544.5980	32
544.7392	5
544.8520	7
545.7845	7
546.3061	5
547.0991	2
548.1469	4
548.6188	4
549.4766	4
549.7086	5
550.5917	11
551.2302	5
551.3873	8
551.8055	5
552.5483	5
553.0550	4
553.8017	5
554.1995	5
554.4719	3
555.2495	6
555.4507	17
555.9039	7
556.2260	3
556.3381	11
556.4604	3
558.5724	4
559.6155	10
560.2006	7
560.3499	6
560.6808	7
561.6686	10
562.1812	5
562.4600	12
562.8351	6
563.5909	7
563.8760	5
564.5853	12
564.7385	11
565.1343	7
565.2836	3
565.7978	6
566.3412	4
566.5972	5
566.9590	3
567.2007	5
567.3682	10
568.0768	1
569.0690	6
569.5273	6
570.5654	6
571.6558	5
572.1110	4
573.2086	2
573.6882	5
573.8139	7
574.0746	5
574.3070	5
574.5765	5
574.9495	2
575.2925	7
575.5612	4
576.3523	10
577.2265	6
577.4241	10
577.5988	9
577.9363	5
578.3931	16
578.5615	9
578.7235	6
579.0057	5
579.2592	5
579.8554	4
580.0124	3
580.2687	2
580.5716	6
581.4621	12
581.6948	7
582.2556	5
582.5380	12
582.6666	9
582.8599	5
582.9790	5
583.8475	7
584.0527	15
584.5386	5
584.7106	19
585.0798	9
585.3275	21
585.5287	8
585.7386	16
585.8861	7
586.0479	7
586.4984	5
586.6562	6
586.7509	3
587.0144	9
587.1580	5
587.2771	5
587.4918	7
587.6417	10
587.7450	3
587.9068	5
588.0417	19
588.2784	13
588.7258	10
589.0044	11
589.0991	5
589.2813	1
589.4841	9
589.7398	14
589.9615	20
590.1186	7
590.3230	24
590.7128	21
590.8841	18
591.6330	18
591.7648	10
592.1121	20
592.3322	17
592.4388	13
592.5651	16
592.6787	6
592.8105	5
593.0212	30
593.0970	14
593.4095	12
593.5516	19
593.8129	17
594.0323	9
594.1823	7
594.3330	8
594.5840	22
594.9211	18
595.1910	14
595.3331	15
595.5060	8
595.6891	12
595.7554	5
596.0261	14
596.1848	5
596.4879	9
596.7034	18
596.9260	12
597.0800	19
597.2244	23
597.4486	8
597.6570	9
597.8607	14
598.0439	3
598.2538	13
598.5341	5
598.7047	14
598.8909	10
599.5754	28
599.8297	5
599.9757	12
600.5829	131
600.9271	27
601.1174	9
601.2374	8
601.4040	7
601.6685	12
601.9220	10
602.0554	5
602.2433	5
602.4487	7
602.6682	13
602.7756	5
602.9146	2
603.2319	5
603.5107	11
603.6726	13
603.7958	7
603.9103	4
604.1053	2
604.5250	13
604.8129	9
605.0779	5
605.1915	5
605.3398	15
605.6971	22
606.0577	5
606.2202	15
606.3811	10
606.7621	17
607.1818	10
607.4106	4
607.7664	17
608.0836	20
608.3912	17
608.6058	6
608.7289	21
608.8788	10
609.1132	16
609.3649	13
609.4848	15
609.6126	14
609.8453	18
610.0789	12
610.2462	12
610.4008	27
610.6281	34
610.8600	20
611.2080	28
611.6262	20
611.9545	14
612.2535	26
612.5384	20
612.8477	19
613.4191	27
613.8342	16
614.0914	18
614.3826	20
614.6170	31
614.7764	22
615.0977	33
615.3967	26
615.5782	18
615.7369	32
616.0479	35
616.3304	28
616.5900	30
616.8584	40
617.5727	78
618.6335	658
619.6944	50
620.0306	37
620.1791	20
620.4041	60
620.6212	39
620.8785	31
621.7444	39
621.9939	18
622.0887	8
622.3516	17
622.5079	20
622.7194	28
622.9941	12
623.1789	6
623.4631	24
623.7639	12
623.9503	15
624.0529	15
624.4019	20
624.6932	17
624.8882	6
625.0864	15
625.3770	11
625.5680	12
625.8286	16
625.9415	7
626.1768	29
626.4144	32
626.6797	21
626.8376	7
627.0374	18
627.5286	23
627.8760	29
628.0505	21
628.4293	20
628.6226	23
628.8402	19
629.0311	18
629.3339	30
629.5737	14
629.8568	26
630.2961	31
630.7078	23
631.2875	60
631.5881	17
632.2743	52
632.6411	68
633.0308	70
633.6421	96
633.8708	100
636.5712	999
637.4406	437
637.9573	213
638.3991	147
639.2379	83
639.4848	75
639.7231	46
640.0292	50
640.3827	44
640.8127	63
641.0668	30
641.3564	18
641.5781	10
641.7802	12
642.0650	22
642.3143	9
642.5306	17
642.8462	17
643.1382	13
643.3473	7
643.4720	5
643.6338	5
643.7742	7
