Mass spectrum: 10'-Apozeaxanthinal; FAB-EBEB; MS2; m/z: 392.27; [M]+*
Name: 10'-Apozeaxanthinal
Formula: C27H36O2
Exact mass: 392.27153
SMILES: C(=C1C=CC(C)=CC=CC(C)=CC=CC=C(C)C=CC=O)(C)CC(O)CC1(C)C
InChI: InChI=1S/C27H36O2/c1-21(11-7-8-12-22(2)15-10-18-28)13-9-14-23(3)16-17-26-24(4)19-25(29)20-27(26,5)6/h7-18,25,29H,19-20H2,1-6H3/b8-7+,13-9+,15-10+,17-16+,21-11+,22-12+,23-14+/t25-/m1/s1
Instrument: JMS-HX/HX 110A, JEOL
Instrument type: FAB-EBEB
Ms type: MS2
Ion mode: POSITIVE
Collision energy: 3 kV
Ionization: FAB
Base peak: 91.0541
Precursor m/z: 392.27
Precursor type: [M]+*
m/z	relative intensity
13.0099	1
14.0147	2
15.0223	8
22.8240	0
23.9850	0
24.9894	2
26.0146	10
26.4021	0
27.0157	57
28.0218	4
29.0186	48
29.9661	0
31.0055	6
35.9631	1
36.6787	0
36.9997	5
37.4211	0
37.9998	17
38.4699	0
39.0009	123
39.3638	0
39.5714	0
39.7626	0
40.0075	11
41.0131	193
42.0051	5
42.9993	116
44.0308	4
44.9961	6
45.9659	0
48.0399	0
48.6279	0
48.9776	7
49.9967	51
50.3472	1
51.0005	123
52.0064	45
52.4611	0
52.6194	0
53.0092	181
54.0053	9
54.6832	0
55.0160	299
56.0171	7
57.0274	134
57.5281	1
58.0208	4
58.3148	0
59.0153	21
59.9482	0
60.2681	0
61.0089	9
61.6922	0
62.0088	34
62.4500	1
63.0085	99
63.6045	0
64.0106	28
65.0132	183
65.4704	0
66.0253	33
66.5560	0
67.0271	182
68.0137	11
69.0212	161
69.4358	1
69.7264	0
70.0199	7
70.5093	0
71.0258	64
72.0025	6
73.0192	3
73.5410	0
74.0065	25
74.3208	0
75.0238	38
76.0224	23
77.0252	546
78.0303	126
78.4953	2
79.0387	419
79.6666	1
80.0410	54
80.5313	1
81.0436	308
81.5209	1
82.0258	17
82.3028	1
82.5285	4
83.0542	84
83.5513	0
84.0349	7
85.0457	121
85.5184	1
86.0207	13
87.0494	24
87.5715	1
88.0346	10
88.4792	1
89.0481	72
89.4414	4
90.0664	26
91.0541	999
91.5305	2
92.0577	96
93.0593	399
94.0529	31
94.5833	3
95.0510	363
96.0401	21
96.5789	2
97.0538	32
97.5733	2
98.0440	7
98.4537	1
99.0231	7
99.3113	1
99.5410	0
100.0246	2
101.0412	18
102.0446	62
103.0553	200
103.5955	2
104.0393	84
105.0508	937
106.0568	105
106.5690	3
107.0543	280
107.5050	5
108.0386	42
108.5297	2
109.0513	151
109.4495	2
109.6219	1
110.0291	11
110.5019	4
111.0462	21
111.5664	1
112.0381	4
113.0722	15
114.0684	23
115.0362	604
116.0306	191
117.0437	434
117.4907	3
118.0422	96
119.0466	642
119.5349	6
120.0481	104
121.0506	267
121.4630	3
122.0327	30
122.3332	2
123.0461	57
123.3874	2
123.6852	2
124.0515	9
124.5407	2
125.0747	15
126.0444	33
127.0446	202
128.0418	656
129.0459	661
130.0528	215
131.0546	502
131.5149	4
132.0582	104
132.3713	4
133.0686	377
134.0839	47
135.0700	163
135.6268	2
136.0429	21
136.3480	3
137.0755	48
138.0369	16
138.5839	2
139.0661	91
139.4200	2
140.0860	33
141.0746	521
142.0800	413
143.0921	561
143.5598	4
144.0949	191
145.0984	581
146.0995	74
146.4270	5
147.1134	193
147.5853	3
148.1008	27
149.0827	131
149.5209	2
150.0680	63
151.1010	81
152.0943	220
153.0984	285
153.5482	4
154.1081	128
154.5763	4
155.1032	420
156.1080	241
157.1094	533
158.1134	135
159.1058	379
160.0947	54
161.1034	118
161.5279	4
162.0984	21
162.4522	4
163.0930	56
164.1013	38
165.0776	428
166.0859	151
167.0764	316
168.0807	130
168.5525	3
169.0956	353
170.0937	126
171.1015	282
172.0975	74
172.5264	4
173.1144	200
174.0899	32
174.3642	4
175.1200	107
175.5852	5
176.0801	47
177.0866	72
178.0751	235
179.0845	294
179.4739	4
180.0943	100
181.0944	286
181.5731	4
182.0938	114
182.4663	5
183.1049	290
184.1042	81
185.1059	182
186.0957	43
186.4688	3
187.1218	89
188.1227	37
189.1065	156
189.5405	6
190.1173	43
191.1070	153
192.1166	105
193.1163	224
194.1255	110
195.1331	252
196.1493	70
197.1463	234
198.1324	49
199.1496	134
200.1446	30
201.1635	75
202.1301	106
203.1283	107
203.5605	2
204.1504	45
204.6435	3
205.1368	102
206.1441	76
207.1425	142
207.5393	4
208.1587	75
209.1577	180
209.7579	1
210.1890	45
211.1680	98
212.1772	30
212.5106	5
213.1620	73
214.1077	17
215.1426	105
216.1447	52
217.1647	115
218.1477	46
218.6543	6
219.1693	111
220.1684	40
220.5201	3
221.1812	115
222.1684	39
223.1900	121
223.6449	4
224.1783	32
225.2051	74
226.1535	38
227.1890	47
227.5791	5
228.1679	41
228.4980	5
229.1667	61
230.1637	39
230.5934	4
231.1836	65
231.5638	3
231.7554	2
232.1987	33
232.6939	2
233.2006	72
234.1933	27
234.5913	5
235.2070	65
236.2055	23
236.5279	2
237.1948	59
237.7538	3
238.1936	22
239.1794	68
240.1424	22
241.1917	41
241.6604	2
242.2008	22
243.1790	50
243.7019	3
244.1926	17
244.6980	2
245.1920	50
246.1760	23
246.5549	3
247.1913	67
248.1872	28
248.7179	1
249.2081	54
250.1743	22
250.5815	1
251.2351	36
252.2002	20
253.2236	33
253.7966	1
254.1911	14
254.5576	2
255.2066	36
255.7809	2
256.1921	18
256.6637	2
257.2018	41
257.7056	3
258.2116	22
259.2102	42
260.1902	16
260.4906	3
261.1975	41
261.5977	2
262.2278	14
262.5845	3
263.2167	48
264.1850	13
265.2596	27
266.1575	9
266.7277	2
267.2022	36
267.5706	4
268.2159	9
269.2173	38
269.7233	2
270.2304	18
271.2238	37
272.2267	16
272.7684	3
273.1778	28
273.6258	1
274.1978	12
274.5510	1
275.2033	24
276.1798	11
276.4174	5
277.2304	23
277.7413	2
278.2542	15
278.6149	7
279.1926	18
280.2072	9
280.7152	2
281.2023	13
281.5757	2
282.2350	23
283.2303	26
283.4797	8
283.6372	2
284.2341	27
285.2402	18
285.7328	2
286.2192	10
286.3863	4
286.6984	1
287.2193	21
288.2007	9
288.5397	1
289.2516	18
289.6144	3
290.1982	5
290.7018	1
291.2232	15
291.5986	2
291.8374	0
292.2139	8
292.5830	1
293.2120	16
293.5447	2
293.8023	1
294.2895	12
295.2629	14
296.2426	9
296.7414	2
297.2663	16
297.5418	3
297.8080	0
298.2171	5
298.4238	3
298.6158	1
299.2589	12
299.8455	1
300.2558	38
301.2477	14
301.5213	4
301.6998	1
302.2617	9
302.8036	2
303.2611	15
303.5870	2
304.2314	8
304.6848	1
305.2635	13
306.2320	4
307.2780	17
307.6688	1
308.2592	12
308.8602	2
309.2762	11
310.2273	6
310.6988	2
310.8807	1
311.2503	6
312.2764	18
312.7890	1
313.2703	43
313.6733	1
314.2726	7
314.7144	0
315.3138	10
316.2140	3
316.5889	0
316.8145	0
317.3337	11
317.9071	3
318.3187	7
319.3300	9
319.7009	1
320.2714	4
320.4261	2
320.7688	1
321.2589	6
321.8076	1
322.2047	3
322.5423	1
323.1585	3
323.3620	2
324.2494	2
325.2517	3
325.6860	0
326.0244	1
326.2593	2
326.4723	0
326.9422	2
327.3756	2
327.6858	2
327.9647	2
328.2278	1
328.6884	2
329.2880	11
329.9252	1
330.3096	1
331.2708	13
331.5226	2
331.8287	0
332.3344	6
333.3218	30
333.7064	3
334.2248	9
335.2417	15
336.2608	9
336.6925	3
337.2528	20
337.7013	2
337.9721	3
338.2292	5
338.4749	2
338.6820	0
339.2403	2
339.5979	1
339.9064	1
340.2786	2
340.6739	1
341.2993	1
341.8975	1
342.2960	4
342.6547	1
343.1400	6
343.3681	3
343.9214	2
344.2928	6
344.8012	2
345.3222	8
345.6528	1
346.2387	5
346.5673	3
346.7859	1
347.3029	22
347.8564	3
348.3210	13
348.6768	3
349.3121	11
350.3028	11
350.7218	3
351.1178	3
351.3884	3
351.7123	4
351.9913	3
352.1501	1
352.4595	1
352.9872	4
353.2307	2
353.5986	4
354.0386	4
354.3302	4
355.2197	9
355.6399	6
356.1615	7
356.6026	9
357.3166	8
358.0098	7
358.7029	8
359.3387	21
359.7977	3
360.1114	9
360.2787	4
361.2732	22
362.3107	44
363.3127	94
363.7892	4
364.3188	15
364.6866	2
365.2936	2
365.7512	2
366.0981	1
366.7501	5
373.5722	332
375.3590	33
376.2175	26
377.3814	249
378.1563	2
378.5590	4
378.8518	2
379.2022	2
379.4449	1
379.7691	1
380.0578	1
380.2701	1
380.6237	1
380.8664	1
381.1488	0
382.0390	1
382.6584	3
383.1176	5
384.0279	5
392.2624	999
394.1462	147
394.7984	54
395.8929	18
