Mass spectrum: beta-Tocopherol; EI-EBEB; MS; POS
Name: beta-Tocopherol
Class: Natural Product; Lipid; Tocopherol
Formula: C28H48O2
Exact mass: 416.36543
SMILES: C(CCCC(C2)(C)Oc(c(C2)1)c(cc(O)c(C)1)C)(C)CCCC(C)CCCC(C)C
InChI: InChI=1S/C28H48O2/c1-20(2)11-8-12-21(3)13-9-14-22(4)15-10-17-28(7)18-16-25-24(6)26(29)19-23(5)27(25)30-28/h19-22,29H,8-18H2,1-7H3/t21-,22-,28-/m1/s1
Instrument: JMS-HX/HX 110A, JEOL
Instrument type: EI-EBEB
Ms type: MS
Ion mode: POSITIVE
Ionization: EI
Base peak: 416.5406
m/z	relative intensity
7.7633	0
8.5350	0
9.0651	0
10.1305	0
13.6241	0
13.9848	0
15.0027	0
16.2998	0
17.9755	0
22.1013	0
24.9804	0
25.3306	0
25.9883	1
26.9944	10
27.2767	0
28.0026	2
29.0020	13
29.9893	0
30.9651	0
35.9463	0
36.9805	1
37.9848	2
38.5954	0
38.9941	20
39.3127	0
40.0015	4
41.0083	41
42.0126	5
43.0175	78
43.9625	0
45.0007	0
48.7441	0
48.9899	0
49.2415	0
49.9943	3
51.0002	7
51.7005	0
52.0019	3
53.0120	15
54.0203	3
55.0304	51
55.5139	0
56.0374	7
57.0497	55
57.6465	0
58.0153	0
58.2208	0
59.0602	0
59.9859	0
60.9612	0
62.0034	1
63.0114	4
64.0105	1
64.2414	0
64.5567	0
65.0177	8
66.0148	3
66.4261	0
67.0257	15
68.0292	4
68.4710	0
69.0405	33
70.0577	2
71.0604	25
72.0259	0
73.0213	0
73.5686	0
74.0155	1
74.9905	1
75.3769	0
75.5959	0
76.0105	1
76.2180	0
77.0252	18
78.0294	4
78.4604	0
79.0430	11
80.0531	2
80.5420	0
81.0554	12
82.0410	1
83.0588	13
83.6756	0
84.0326	1
84.6143	0
85.0819	8
86.0374	0
86.4932	0
87.0090	0
88.0073	0
88.6511	0
89.0286	2
89.4257	0
90.0397	1
91.0558	17
91.4900	0
92.0655	1
92.3238	0
93.0617	7
94.0668	2
94.4705	0
95.0705	8
95.5642	1
96.0358	2
96.4532	0
97.0963	7
98.0813	0
99.0629	0
99.6270	0
100.0779	0
101.0449	0
101.5899	0
102.0464	1
103.0503	4
104.0495	1
105.0553	7
106.0364	1
106.2343	0
107.0491	23
108.0454	4
108.4088	0
109.0765	5
110.0178	0
111.0546	4
111.7455	0
112.0738	0
113.1059	0
113.2887	0
113.9709	0
114.1591	0
114.5137	0
115.0410	5
116.0524	1
116.4900	0
117.0565	2
118.0449	1
118.4369	0
119.0565	4
119.5326	0
120.0502	1
120.3033	0
120.4897	0
121.0523	23
122.0534	15
122.6382	0
123.0671	9
124.0321	1
125.0344	1
126.0516	0
126.6123	0
127.0548	2
128.0430	3
128.4178	0
129.0524	3
129.6051	0
130.0489	1
130.5185	0
131.0483	4
132.0412	2
132.3799	0
133.0639	6
134.0628	2
135.0647	31
135.5526	0
136.0546	3
137.0646	23
137.5887	0
138.0776	8
139.0753	1
140.1244	0
141.0859	1
141.7392	0
142.0945	0
143.0888	1
144.0838	2
144.3175	0
144.6087	0
145.0926	9
146.0739	2
147.0873	8
148.0906	5
149.1011	16
150.0982	236
151.1090	559
152.1183	14
153.0974	0
153.6717	0
154.1040	0
155.0623	0
156.0679	0
156.3768	0
157.1134	2
157.4682	0
158.1214	2
158.3850	0
159.1290	5
160.0957	2
160.4119	0
161.0990	17
162.0995	20
163.1051	38
163.6293	0
164.1155	12
165.1167	8
165.6766	0
166.1371	0
167.1646	0
167.5116	0
168.1061	0
168.5398	0
169.1139	0
169.3768	0
170.0991	0
170.4160	0
171.1013	1
172.1304	2
173.1183	4
173.4982	0
174.1001	6
174.4725	0
175.1098	32
175.6033	0
176.1156	13
177.1219	23
177.5862	0
178.1133	1
178.4523	0
178.7066	0
179.1547	1
179.8265	0
180.1558	0
180.6924	0
181.0913	0
181.7846	0
182.7572	0
183.1399	0
183.6694	0
184.0866	0
185.1120	1
186.1091	1
187.1388	3
187.6261	0
188.1291	3
188.5436	0
189.1419	38
190.1496	11
191.1566	125
192.1485	1
192.4873	0
192.6656	0
193.2250	0
194.2864	0
195.2496	0
196.2641	0
197.1460	0
197.3778	0
197.8927	0
198.1923	0
199.2269	0
199.4223	0
200.1919	0
200.4485	0
201.1772	2
202.1684	1
203.1945	5
204.2042	4
205.2076	4
205.6482	0
206.2110	1
206.5305	0
207.2119	0
207.5670	0
208.9836	0
209.1924	0
211.1708	0
212.2167	0
213.0672	0
213.7978	0
214.2660	0
215.1838	1
215.6778	0
215.9817	0
217.2117	1
217.6748	0
218.1648	1
218.6337	0
219.2107	1
220.2624	0
223.1654	0
223.7365	0
224.2295	0
229.1438	0
230.3046	0
230.8556	0
231.2948	0
231.7677	0
232.2215	3
232.8499	0
233.2502	1
234.3195	0
236.1243	0
243.2066	0
244.1657	0
245.2039	0
246.2749	1
247.0267	0
247.3405	0
249.2203	0
253.0865	0
255.2380	0
256.5807	0
257.2478	0
259.3445	0
260.2852	6
260.9569	0
261.2732	0
261.7857	0
262.3420	0
263.3394	0
265.3447	0
273.3083	0
273.5219	0
274.2762	5
274.7213	0
275.2745	0
276.2540	0
285.3332	0
287.3586	0
288.2972	6
288.9858	0
289.3025	0
290.2966	0
291.4678	0
299.4342	0
301.2692	0
301.6897	0
302.3369	10
302.7473	0
303.2659	0
303.7722	0
304.3666	0
313.2170	0
314.2559	0
314.6985	0
315.2587	0
315.7534	0
316.3656	1
317.3145	0
325.8045	0
327.3763	0
327.6563	0
328.2831	0
328.7270	0
329.4578	0
330.3919	9
330.7870	0
331.2577	0
331.8457	0
332.2532	0
332.4643	0
337.0721	0
342.2110	0
343.4315	0
344.4148	6
345.3699	0
345.6965	0
346.4675	0
350.4589	0
353.0784	0
355.2302	0
356.4443	0
357.4017	0
357.6111	0
357.9505	0
358.4552	6
359.1429	0
359.4681	0
359.8339	0
360.4866	1
361.9865	0
362.5150	0
362.7455	0
363.3182	0
363.7531	0
364.3676	0
364.9822	0
365.2804	0
365.7809	0
366.3978	0
366.8735	0
367.9493	0
368.5652	0
368.8477	0
369.8073	0
370.1633	0
370.4899	0
371.4778	0
372.4725	4
372.9888	0
373.4690	1
374.4939	0
375.0566	0
376.2545	0
378.2911	0
378.8766	0
379.4600	0
380.2083	0
380.4367	0
380.9352	0
381.3592	0
381.6113	0
381.9686	0
382.3508	0
382.8438	0
383.0665	0
383.3232	0
383.5720	0
384.0661	0
384.5241	0
384.9595	0
385.3735	0
385.6177	0
386.4694	1
386.9693	0
387.5745	1
388.4647	0
388.6683	0
389.3810	0
394.3302	0
394.7411	0
395.1960	0
395.6137	0
395.9725	0
396.2192	0
396.5248	0
397.1859	0
397.5979	0
398.0371	0
398.4933	0
399.4952	2
400.5379	8
401.5672	5
402.0790	0
402.5526	0
402.7728	0
403.2754	0
403.9914	0
404.7469	0
405.0124	0
405.5161	0
406.2277	0
406.4762	0
406.9416	0
407.2443	0
407.6939	0
408.1357	0
408.5954	0
408.9660	0
409.4721	0
410.4991	0
416.5406	999
417.4212	10
