Mass spectrum: Flavuxanthin; FAB-EBEB; MS2; m/z: 704.55; [M]+*
Name: Flavuxanthin
Formula: C50H72O2
Exact mass: 704.55323
SMILES: C(C(=CC=CC(C)=CC=CC=C(C)C=CC=C(C=CC=C(C)CCC(CC=C(C)CO)C(C)=C)C)C)=CC=C(C)CCC(CC=C(C)CO)C(C)=C
InChI: InChI=1S/C50H72O2/c1-39(2)49(35-31-47(11)37-51)33-29-45(9)27-17-25-43(7)23-15-21-41(5)19-13-14-20-42(6)22-16-24-44(8)26-18-28-46(10)30-34-50(40(3)4)36-32-48(12)38-52/h13-28,31-32,49-52H,1,3,29-30,33-38H2,2,4-12H3/b14-13+,21-15+,22-16+,25-17+,26-18+,41-19+,42-20+,43-23+,44-24+,45-27+,46-28+,47-31+,48-32+
Instrument: JMS-HX/HX 110A, JEOL
Instrument type: FAB-EBEB
Ms type: MS2
Ion mode: POSITIVE
Collision energy: 3 kV
Ionization: FAB
Base peak: 105.1180
Precursor m/z: 704.55
Precursor type: [M]+*
m/z	relative intensity
0.2794	0
0.3610	0
0.4733	0
6.0620	1
7.9843	0
10.3926	0
12.5693	0
14.0248	0
15.0230	1
15.1763	1
23.0838	1
26.0285	2
27.0364	19
28.0527	3
29.0482	46
30.0406	1
31.0368	12
37.0176	1
37.4271	0
38.0332	4
38.5928	0
39.0455	60
40.0574	8
41.0600	199
42.0549	3
43.0430	519
43.6366	0
44.0526	2
45.0462	8
45.5823	0
47.6007	1
48.6843	0
49.0408	1
50.0441	11
51.0460	29
51.4197	0
52.0608	11
53.0621	93
53.5067	0
54.0601	4
55.0786	343
56.0908	4
56.5836	0
57.0871	102
58.0588	2
59.0791	6
60.0225	0
60.3672	0
61.0240	2
62.0471	7
63.0584	23
63.5238	1
64.0652	6
65.0734	69
66.0748	15
66.4938	1
67.0848	216
68.0935	20
69.0978	250
70.0847	3
70.3313	0
71.0855	33
71.7424	0
73.0365	1
74.0501	6
75.0791	9
76.0576	7
76.2775	2
77.0675	241
78.0706	41
79.0829	352
80.0883	46
81.0984	710
82.0893	8
83.0952	86
84.0802	5
84.3766	0
85.1028	23
86.0604	2
87.0055	5
88.0641	2
89.0664	15
89.3960	6
90.0928	11
91.0883	612
92.0956	68
93.1056	751
94.1166	36
95.1256	480
96.1308	3
97.1198	30
98.0565	1
99.0929	4
99.4540	0
100.0988	1
101.0819	8
102.1333	22
103.1035	90
104.1184	46
105.1180	999
106.1230	88
107.1331	635
108.1374	27
109.1532	298
110.1503	4
111.1172	16
112.1175	2
113.1055	6
113.6371	4
114.1259	6
115.1030	239
116.1093	97
117.1157	319
118.1158	68
119.1274	984
120.1374	97
121.1426	369
122.1022	7
123.1514	62
124.2089	2
125.1191	10
126.0962	8
127.1060	87
128.0959	290
129.1071	415
130.1131	199
131.1207	583
132.1313	161
133.1367	616
134.1319	44
135.1467	107
136.0631	4
137.1506	16
138.1378	4
139.0929	25
140.1495	12
141.1020	257
142.1109	280
143.1196	690
144.1245	225
145.1272	916
146.1312	62
147.1397	236
148.1223	11
149.1551	31
150.1485	5
151.1107	25
152.1029	90
153.1131	143
154.1176	80
155.1231	351
156.1297	292
157.1425	746
158.1632	118
159.1661	354
160.1923	24
161.1853	65
162.1638	5
163.1930	29
164.1923	16
165.1323	209
166.1352	86
167.1562	229
168.1540	103
169.1648	434
170.1713	154
171.1856	392
172.1818	54
173.1927	154
174.1906	13
175.2206	71
176.1577	13
177.2172	25
178.1521	108
179.1719	222
180.1752	113
181.1758	329
182.1806	155
183.1932	478
184.2031	91
185.2068	253
186.2183	43
187.2095	64
188.2085	7
189.1610	48
190.1491	24
191.1660	91
192.1555	87
193.1668	237
194.1788	134
195.1809	414
196.1855	104
197.1890	412
198.1985	74
199.1998	118
200.2317	18
201.2009	27
202.1477	45
202.5781	5
203.1639	66
204.1526	31
205.1665	97
206.1652	98
207.1769	235
208.1856	92
209.1915	325
210.1890	52
211.1978	159
212.2267	28
213.1994	45
214.1939	6
214.5386	3
215.1677	48
216.1455	34
216.5457	4
217.1577	79
218.1651	40
219.1820	108
220.1781	68
221.1996	191
222.2128	56
223.2104	137
224.2032	21
225.2430	57
226.1868	18
226.5337	4
227.1900	20
228.1670	19
229.2052	52
230.2100	27
231.1973	83
232.2013	48
233.2129	132
234.2393	36
235.2376	115
236.2614	25
237.2606	69
238.2674	11
239.2333	29
240.1906	8
241.2563	25
242.2163	17
243.2488	50
244.2204	18
245.2326	78
246.2369	33
247.2524	108
248.2431	25
249.2720	83
250.2671	14
251.2735	43
252.2677	16
253.2423	23
254.2535	11
255.1929	23
256.2265	15
256.5555	2
257.2443	43
258.2354	23
259.2612	77
260.2639	26
261.2634	83
262.2795	19
263.2761	58
264.2785	7
265.3030	22
266.2263	8
267.2861	16
267.7453	1
268.3008	14
269.2488	20
270.2642	11
271.2728	31
272.2889	15
273.2799	49
274.2528	13
275.2988	48
276.2542	11
277.3154	27
278.2878	8
278.7413	2
279.3024	16
280.2499	4
281.2852	10
282.2753	9
282.6273	2
283.2784	19
284.2728	7
284.6834	2
285.2948	24
286.2825	11
287.3234	36
288.3427	11
289.3478	22
290.2818	7
291.3185	17
292.3044	5
293.3057	10
294.3121	4
295.3115	9
296.2546	6
297.3240	16
298.3225	8
299.2993	14
300.3166	6
301.3159	26
302.3704	7
303.3520	15
303.8392	2
304.3283	6
305.3561	4
306.2469	4
307.2991	6
308.2893	2
309.3128	5
309.7292	1
310.3769	5
311.3334	11
312.3635	4
312.5780	2
313.3627	19
314.3988	4
315.3306	12
316.3819	5
317.3197	9
317.9291	2
318.4045	5
319.3502	9
320.4594	4
321.2953	4
321.7105	1
322.2250	3
322.4915	1
323.2523	6
324.2505	2
325.3151	10
326.3303	2
326.6927	2
327.3145	13
328.3799	4
328.8602	2
329.3737	17
330.3144	4
331.3455	8
332.4229	4
333.3200	7
334.4274	3
335.4318	4
336.5157	2
337.3510	4
337.8618	1
338.3302	2
339.3613	9
340.3040	3
340.7783	1
341.4112	10
342.3082	3
343.3697	7
344.3908	6
345.4177	10
346.3801	3
346.7182	1
347.3483	2
348.2630	1
349.3314	6
349.9470	1
350.4942	1
351.4170	4
352.3139	2
353.4405	16
354.3712	4
355.3445	7
356.4755	3
357.4048	5
358.4280	4
359.3946	4
359.8456	0
360.4205	2
361.4965	1
362.4507	2
363.3292	4
364.3632	4
365.3882	9
366.4485	4
367.3332	3
368.4569	3
369.4196	5
369.7382	1
370.3770	2
370.8289	1
371.4513	5
372.2664	2
372.8351	0
373.4670	3
374.3565	1
375.3314	4
376.4158	1
377.5190	2
377.8323	1
378.0716	1
378.5166	3
379.3680	7
380.3919	1
380.7945	1
381.3585	6
382.4756	2
382.7187	1
383.3571	5
383.9232	1
384.4393	3
385.5328	5
386.3219	2
386.6432	1
387.4492	2
388.1232	0
388.4702	1
388.8730	1
389.5022	3
390.4322	1
391.4013	2
392.2982	2
392.6343	1
393.3735	3
394.3766	2
395.4039	4
396.4518	2
397.4349	9
398.4311	2
399.5129	8
400.6489	2
401.4001	3
401.8781	1
402.4527	1
403.4775	6
404.3952	5
405.4728	6
406.3852	3
407.3943	2
408.1898	2
408.9352	1
409.5357	5
410.3854	1
410.6662	1
411.4174	7
412.5202	3
413.4763	7
414.4120	1
415.5097	5
416.4438	3
417.4804	10
418.5003	6
419.4962	5
420.6077	1
420.9112	1
421.3451	1
421.8535	1
422.1719	0
422.5015	0
422.9671	1
423.5799	4
424.4852	1
425.4577	5
426.3352	2
427.4756	3
428.0459	2
428.5417	3
429.4830	10
430.4896	19
431.5038	3
431.7537	2
432.5033	2
432.9956	2
433.6651	1
434.2302	1
434.5566	1
435.4780	2
435.8586	1
436.4910	1
436.8306	0
437.5358	3
438.3568	1
438.6237	1
439.4506	2
440.3761	4
441.5029	2
442.4492	3
443.5595	9
444.5619	7
445.0929	1
445.5923	1
445.7954	0
446.1067	1
446.6304	1
447.1205	2
447.4803	0
448.0395	2
448.4850	1
449.5084	3
449.7881	1
450.5973	1
450.8975	1
451.5370	5
452.6411	2
453.0420	1
453.5848	2
454.5193	2
454.8289	1
455.4744	2
456.6367	4
457.5057	3
458.4935	2
459.0377	1
460.1935	1
460.8049	2
461.3680	2
462.4195	1
462.8409	1
463.6129	3
464.2265	1
464.5808	3
464.8345	2
465.5768	6
466.5542	21
467.4534	4
468.4366	3
469.5524	9
470.5731	10
471.6331	8
472.5981	9
473.0442	1
473.3392	1
474.5862	2
475.6728	1
476.4495	1
477.3365	2
477.7642	0
478.5261	3
478.9464	0
479.5478	4
480.5658	7
481.5297	6
482.5461	8
483.5662	30
484.5697	10
485.5714	3
486.4442	1
487.4647	0
488.1133	1
488.7732	1
489.1864	1
489.6351	1
490.5606	1
491.5666	2
492.3276	1
492.7933	1
493.5563	5
494.4784	3
494.7814	1
495.6157	9
496.5850	13
497.6029	12
498.5742	4
499.7250	1
500.7302	1
501.2402	1
501.6793	2
502.3296	1
502.7108	1
503.5237	3
505.2862	1
506.3853	2
507.4508	3
508.1126	1
508.6829	3
509.5579	19
510.5826	10
511.5980	9
512.2376	0
512.8903	1
513.6497	1
514.5401	1
514.9834	1
515.3931	1
515.6550	0
516.5099	1
517.4567	2
518.1171	1
518.4595	1
519.6028	5
520.6116	3
521.3564	2
521.6933	1
522.6067	4
523.5913	5
523.9451	2
524.6078	7
525.7854	2
526.4718	2
527.1111	1
527.5355	2
528.3563	1
529.7399	1
530.6525	1
531.1274	2
531.6473	2
532.6610	5
533.5307	7
534.7017	6
535.5565	5
536.6116	15
537.5826	21
538.6211	3
539.5473	2
540.1218	2
540.6345	2
541.3176	1
541.7238	1
542.7213	3
543.3446	1
544.0240	3
544.5519	2
545.6152	3
546.6935	18
547.6334	4
548.4929	4
549.3673	4
550.6913	12
551.6558	271
552.6315	9
553.6636	5
554.2667	2
556.0459	2
556.6196	1
557.1877	2
558.0026	2
559.0044	2
559.3334	3
559.7876	5
560.2418	1
560.8045	3
561.6177	2
562.5300	3
563.5583	12
564.6428	71
565.6301	32
566.6642	12
567.2009	5
568.6428	7
569.6042	3
570.7452	3
571.4242	3
572.1669	3
572.6645	4
573.4970	3
574.1312	2
574.6719	3
576.7171	7
577.6921	7
578.6221	7
579.5654	6
580.4825	5
581.5063	4
584.2862	12
585.7484	7
586.2745	3
587.5815	4
588.7200	6
594.3350	48
598.6870	47
599.4965	20
601.7882	16
603.1188	11
604.6494	31
606.8217	8
608.3242	6
609.2280	6
612.7241	744
613.8284	11
614.6220	7
615.8013	4
616.6251	5
617.7277	9
618.7088	48
619.7255	160
620.7571	6
621.5474	3
621.9125	2
622.6091	2
623.5792	4
624.0436	2
624.6823	7
625.7330	44
626.8793	2
627.6772	2
628.3029	1
628.7861	1
629.5504	2
630.5159	2
631.2156	1
631.8556	1
632.7182	13
633.7737	33
634.6644	5
634.9957	2
635.3775	2
635.7181	3
636.6352	3
637.2510	0
637.6684	1
637.9398	0
638.3740	0
638.8588	2
639.5121	1
640.3002	0
640.8168	1
642.1086	2
642.7676	1
643.1851	1
643.4304	1
643.8760	2
644.5051	3
644.9207	3
645.5873	4
646.7202	11
647.2032	1
647.7932	2
648.5891	2
649.2482	1
649.5797	1
649.8943	1
650.3195	1
651.0274	2
651.5256	1
652.1812	1
652.8704	3
653.8388	4
654.6818	0
655.2411	1
655.7570	2
656.2786	1
656.6600	1
657.1703	3
657.8770	3
658.8099	16
659.8382	4
660.9806	4
661.7267	8
662.7757	23
663.8023	25
664.8327	5
665.8931	4
666.7234	4
667.6511	4
668.7359	19
669.8900	4
670.7448	4
671.7549	27
672.8231	57
673.8276	32
674.7833	12
678.9189	16
680.1891	16
686.8480	498
687.8060	64
688.8184	58
689.8028	151
704.6538	999
709.1654	100
710.4794	53
711.9579	28
