Mass spectrum: Capsanthin; FAB-EBEB; MS2; m/z: 584.42; [M]+*
Name: Capsanthin
Formula: C40H56O3
Exact mass: 584.42295
SMILES: C(=C(C=CC=C(C=CC(=O)C(C(C)(C)2)(C)CC(C2)O)C)C)C=CC=C(C=CC=C(C)C=CC(=C(C)1)C(C)(C)CC(C1)O)C
InChI: InChI=1S/C40H56O3/c1-29(17-13-19-31(3)21-23-36-33(5)25-34(41)26-38(36,6)7)15-11-12-16-30(2)18-14-20-32(4)22-24-37(43)40(10)28-35(42)27-39(40,8)9/h11-24,34-35,41-42H,25-28H2,1-10H3/b12-11+,17-13+,18-14+,23-21+,24-22+,29-15+,30-16+,31-19+,32-20+/t34-,35+,40+/m1/s1
Instrument: JMS-HX/HX 110A, JEOL
Instrument type: FAB-EBEB
Ms type: MS2
Ion mode: POSITIVE
Collision energy: 3 kV
Ionization: FAB
Base peak: 109.0779
Precursor m/z: 584.42
Precursor type: [M]+*
m/z	relative intensity
12.0064	0
13.0276	1
14.0293	1
15.0400	6
18.9989	0
25.0092	0
26.0392	10
27.0424	62
28.0442	5
29.0477	71
30.0238	1
31.0373	8
35.1264	0
36.0281	1
36.7081	0
37.0366	5
37.5428	0
38.0278	14
39.0406	119
40.0459	13
40.4576	0
40.6258	0
41.0479	259
42.0533	6
43.0333	246
44.0315	4
45.0257	6
47.0154	1
49.0138	1
49.2928	0
50.0212	23
51.0254	57
52.0214	18
53.0288	105
54.0277	6
55.0354	306
56.0401	6
57.0462	123
57.6598	0
58.0029	1
59.0223	20
59.9904	0
61.0070	4
61.5311	0
62.0203	13
62.4255	0
63.0142	42
63.5313	0
64.0147	12
64.4929	1
65.0231	88
65.6468	0
66.0218	16
67.0283	163
68.0235	5
69.0249	251
70.0250	5
70.6555	0
71.0185	90
72.0435	1
73.0555	2
73.5680	0
74.0272	15
75.0252	19
76.0134	14
77.0204	253
78.0239	57
79.0331	232
80.0256	32
81.0368	250
81.6897	1
82.0285	12
83.0493	933
84.0464	7
84.4631	1
85.0516	228
85.6131	1
86.0474	6
87.0243	10
87.6007	0
88.0171	5
89.0485	31
90.0341	14
91.0490	563
92.0500	54
93.0533	354
94.0658	25
95.0578	213
95.5150	2
96.0340	11
97.0532	53
98.0458	9
99.0336	29
100.0179	2
101.0551	9
102.0515	33
103.0638	100
104.0488	40
105.0607	665
106.0605	65
107.0676	293
108.0485	25
109.0779	999
110.0547	16
111.0527	44
111.4375	1
112.0187	3
113.0536	10
114.0325	10
115.0510	329
116.0471	116
117.0504	304
118.0439	53
119.0488	659
120.0509	63
121.0502	282
122.0295	24
123.0501	62
124.0622	5
125.0499	214
126.0303	17
127.0492	197
128.0351	363
129.0366	411
130.0364	156
131.0419	397
132.0327	76
133.0506	322
134.0554	32
135.0425	176
136.0076	9
137.0270	37
138.0228	5
139.0357	54
140.0527	18
141.0372	299
142.0389	283
143.0460	480
144.0512	151
145.0531	568
146.0515	55
147.0554	183
148.0471	21
149.0662	71
150.0480	14
151.0646	52
152.0718	127
153.0712	179
154.0803	98
155.0726	304
156.0776	193
157.0820	448
158.0932	115
159.0772	587
160.1064	34
161.0965	99
162.1007	12
163.1221	40
164.0878	23
165.0960	294
166.1005	94
167.1028	209
168.1043	84
169.1167	284
170.1222	106
171.1254	232
172.1115	58
173.1207	169
174.1186	17
175.1502	87
176.1196	30
177.1227	44
178.0979	146
179.0963	210
180.1059	92
181.0981	242
182.1075	102
183.1086	245
184.1148	61
185.1066	150
186.1095	25
187.1176	72
188.0751	16
189.0904	88
190.0867	34
191.0957	122
192.0993	96
193.0898	187
194.0870	93
195.0983	246
196.1087	73
197.1121	207
198.1070	35
199.1069	84
200.1028	19
201.1206	44
202.0917	66
203.0953	87
204.0994	40
205.0979	92
206.0818	61
207.1026	165
208.1012	69
209.1093	195
210.1058	45
211.1164	97
212.1169	20
213.1209	40
214.1728	13
215.1104	81
216.1021	33
217.1232	87
218.1403	36
219.1256	95
220.1343	48
221.1359	172
222.1240	42
223.1448	102
224.1446	23
225.1586	61
226.1438	23
227.1571	31
228.1662	28
229.1065	58
230.1472	28
231.1288	60
232.1637	33
233.1559	78
234.1470	27
235.1631	80
236.1595	26
237.1887	68
238.1843	14
239.1680	44
240.1397	14
241.1658	33
242.1413	17
243.1573	51
244.1597	25
245.1594	51
246.1750	26
247.1707	61
248.1792	18
249.1819	58
250.1926	19
251.2006	36
252.1841	19
253.1881	31
254.1614	11
255.1877	35
256.2004	17
257.1878	38
258.1685	21
259.1960	57
260.2099	15
261.2086	51
262.2154	12
263.2054	39
264.2376	8
265.2096	28
266.2051	15
267.1979	25
268.2080	11
269.2090	32
270.2104	15
271.2105	32
272.2000	14
273.1881	29
274.2295	16
275.2147	29
276.2291	11
277.2080	20
278.2198	8
279.2179	15
279.6322	2
280.2397	6
281.2336	17
282.2387	12
283.2269	28
284.2076	15
285.1948	27
286.2009	7
287.2244	26
288.2545	6
289.2379	21
290.2060	9
291.2242	14
292.2567	8
293.2115	14
294.1682	7
295.2467	21
296.2600	12
297.2219	19
298.2388	9
299.2105	25
300.1731	6
301.2125	20
302.2193	8
303.1904	13
304.1898	4
305.2301	9
306.2503	6
307.2082	13
308.2053	6
309.2074	11
310.2143	10
311.1635	14
312.1866	6
313.2145	14
314.2411	5
315.2256	10
316.2667	4
317.2344	10
318.2838	4
319.2470	10
320.1588	3
321.2841	9
322.2919	5
323.2261	7
324.2029	4
324.6081	1
325.1830	11
326.2104	6
327.2301	8
328.2234	4
329.2529	12
330.2245	4
331.2560	4
332.2546	3
333.2613	11
333.6688	1
334.2997	5
335.2935	12
336.3052	6
337.2936	15
338.2947	6
339.2346	7
340.3194	3
341.2424	8
342.2520	3
343.2901	6
343.5119	3
343.8801	1
344.3332	4
345.2646	5
346.4449	4
347.3263	9
348.2362	12
349.2706	14
350.2343	6
351.2910	9
352.3039	6
353.2633	12
354.3143	4
355.3181	6
356.3190	3
357.2916	5
358.2659	4
359.2862	5
359.7451	1
360.2876	5
361.3365	9
362.3018	8
363.3085	10
364.3342	5
365.2624	14
366.2805	5
367.2957	9
368.2463	4
369.3295	4
369.6921	2
370.3056	2
371.3544	4
372.1021	2
372.6573	1
373.3010	8
374.2556	6
375.2971	11
376.2850	12
377.2627	8
378.3016	12
379.2744	7
380.3199	5
381.2882	13
382.3340	2
383.3420	5
384.3881	1
385.3727	4
386.2596	1
387.3960	3
388.3415	3
389.1340	2
389.5350	1
390.2913	1
391.2798	12
392.2732	4
393.3345	3
394.3503	1
395.3930	4
396.2572	1
397.3144	4
398.2832	3
399.2726	5
400.2416	3
401.3119	8
402.1942	3
403.2505	6
404.3369	3
404.7039	0
405.3350	1
406.2271	1
407.2981	3
408.1557	2
409.1850	3
410.2354	1
411.2986	7
412.3967	1
413.3637	12
414.2692	12
415.3613	8
416.2907	5
417.3293	6
418.2621	5
419.2803	8
419.6819	1
420.2417	2
420.7620	1
421.0403	1
421.4563	2
422.1174	2
422.5840	2
423.1313	3
423.5093	1
424.3113	1
424.7163	1
425.1672	3
425.4283	2
426.3578	4
427.3171	8
428.2971	33
429.3261	63
430.3000	5
431.2865	12
432.3127	4
433.0813	1
433.5272	2
434.1140	1
434.4508	1
434.7166	1
435.2543	2
436.0009	1
437.0102	1
437.7838	1
438.2299	2
439.3660	6
440.2838	5
441.3725	5
442.2414	4
443.3367	9
444.3007	9
445.2743	4
446.3493	3
446.5647	1
447.2709	3
448.2954	2
449.1173	1
449.9044	1
450.3622	1
451.2111	2
452.5623	4
453.1437	3
453.8709	3
455.2827	5
457.1922	125
458.0511	12
458.6534	5
459.8533	3
460.4478	4
461.2382	3
462.4315	4
463.5569	4
464.3182	3
465.1636	3
466.1087	2
467.2296	2
468.0989	3
468.6072	4
469.1789	5
470.4584	5
471.2931	4
472.3083	15
472.9514	4
474.2092	7
475.8125	3
477.3320	8
478.3097	6
479.2162	3
479.7360	1
480.0577	1
480.3525	1
481.0990	2
481.6680	0
482.2751	1
482.6587	1
483.4624	4
484.2773	5
485.4172	2
486.0752	2
486.3765	3
486.6016	1
487.0313	1
487.3945	2
488.2302	2
488.9687	1
489.5274	3
490.3949	5
492.3343	192
493.3112	4
493.8859	2
494.2723	1
495.2335	1
496.4006	3
497.2131	2
498.3043	19
499.3640	8
500.2051	3
500.4253	1
501.2111	1
501.4186	1
502.4008	1
503.3673	2
504.3449	18
505.3432	15
505.9771	1
506.6411	1
507.4446	1
508.2164	1
509.3893	1
509.6128	1
510.3419	3
511.2106	2
511.5657	2
512.4139	6
512.9814	1
513.3920	2
514.3417	1
514.9189	0
515.2217	1
515.6539	0
516.2109	1
516.5306	1
517.2158	1
517.9422	1
518.4138	0
519.3428	1
519.5612	0
520.1595	1
520.6597	0
521.4005	0
522.1872	1
523.1782	1
524.4083	2
525.3107	2
526.3209	4
527.2946	4
528.2051	3
528.5298	1
529.4546	1
530.1594	0
530.6994	0
532.1423	1
532.7331	0
533.5140	0
534.1397	0
535.0886	0
535.5099	1
535.8379	0
536.2640	1
537.1924	2
537.5268	1
538.0972	1
539.2950	4
540.3741	4
541.3186	12
542.2695	1
542.9921	3
543.3884	3
543.9954	3
544.6373	1
545.3506	2
545.8879	2
546.2969	2
546.7217	2
547.2068	1
547.5159	1
548.3909	3
549.0600	2
549.5530	1
550.1920	3
551.4588	11
551.9868	3
552.3674	1
553.5709	3
554.4098	6
555.3582	14
556.3748	4
566.4238	264
567.3616	29
568.2266	23
569.3800	108
584.3538	999
586.5120	299
587.5104	132
588.5834	67
589.8810	30
591.5903	16
