Mass spectrum: beta-Carotene-5,6,5'6'-diepoxide; FAB-EBEB; MS2; m/z: 568.43; [M]+*
Name: beta-Carotene-5,6,5'6'-diepoxide
Formula: C40H56O2
Exact mass: 568.42803
SMILES: C(C(=CC=CC(=CC=CC=C(C=CC=C(C=CC(C43C)(C(CCC4)(C)C)O3)C)C)C)C)=CC(C21C)(C(CCC2)(C)C)O1
InChI: InChI=1S/C40H56O2/c1-31(19-13-21-33(3)23-29-39-35(5,6)25-15-27-37(39,9)41-39)17-11-12-18-32(2)20-14-22-34(4)24-30-40-36(7,8)26-16-28-38(40,10)42-40/h11-14,17-24,29-30H,15-16,25-28H2,1-10H3/b12-11+,19-13+,20-14+,29-23+,30-24+,31-17+,32-18+,33-21+,34-22+/t37-,38-,39+,40+/m1/s1
Instrument: JMS-HX/HX 110A, JEOL
Instrument type: FAB-EBEB
Ms type: MS2
Ion mode: POSITIVE
Collision energy: 3 kV
Ionization: FAB
Base peak: 105.0736
Precursor m/z: 568.43
Precursor type: [M]+*
m/z	relative intensity
0.5352	0
9.2470	1
11.9535	1
13.0086	1
14.0161	2
15.0231	6
22.9833	1
24.9766	1
26.0134	9
27.0199	62
28.0312	6
29.0347	47
29.9712	0
31.0102	1
33.7851	0
36.0102	1
36.5695	0
37.0026	5
37.3243	0
38.0090	18
38.5068	0
39.0160	125
39.4472	0
39.6808	0
40.0275	15
40.3481	0
41.0323	321
41.6825	0
42.0271	10
43.0136	918
44.0083	3
44.3632	0
45.0240	10
46.7001	0
49.0004	2
49.2436	0
50.0118	35
51.0159	81
51.5686	0
52.0235	32
52.4638	0
53.0289	147
54.0466	7
54.5541	0
55.0402	391
55.5298	1
56.0537	10
57.0459	47
57.4540	0
58.0383	5
59.0423	14
59.3590	0
60.0218	1
60.4555	0
61.0162	5
62.0104	18
62.4730	0
63.0202	67
63.4955	1
64.0202	16
64.2746	1
64.5507	0
65.0313	120
65.4545	1
66.0429	24
67.0417	204
68.0587	8
68.4916	1
69.0554	923
70.0449	11
70.5354	1
71.0353	192
71.6881	0
72.0438	2
73.0214	3
73.1951	1
74.0108	19
75.0403	28
76.0102	16
77.0275	367
78.0331	75
79.0380	377
80.0445	46
80.4669	1
81.0477	362
82.0335	19
82.5086	1
83.0510	97
83.5842	0
84.0460	4
84.3315	1
85.0474	96
86.0286	7
87.0210	20
87.4972	0
88.0376	6
89.0388	44
90.0629	20
91.0497	789
92.0618	78
93.0659	512
94.0720	30
95.0681	474
96.0430	14
96.3468	1
97.0732	45
97.6210	1
98.0521	9
98.5932	1
99.0565	11
99.5411	0
100.0393	3
101.0266	16
101.3426	3
102.0592	47
103.0634	151
104.0630	69
105.0736	999
106.0768	98
107.0821	487
108.0749	58
109.0907	540
109.5872	2
110.0749	13
111.0953	67
112.0881	2
113.0771	60
113.5475	5
114.0529	18
115.0544	475
116.0533	169
117.0644	399
118.0529	83
119.0724	847
120.0664	78
121.0712	418
122.0599	69
123.0689	254
124.0493	8
124.5394	1
125.0868	40
126.0427	28
127.0501	196
128.0520	543
129.0525	591
130.0596	234
131.0598	576
132.0584	110
133.0705	521
134.0660	54
135.0667	385
136.0577	45
137.0637	61
137.6098	1
138.0624	12
139.0636	164
140.0908	35
141.0512	450
142.0570	452
143.0624	704
144.0675	242
145.0777	751
146.0764	90
147.0817	266
148.0726	38
149.0881	255
150.0878	34
151.0689	65
152.0649	192
153.0744	264
154.0876	141
155.0834	454
156.0899	295
157.0959	772
158.1056	145
159.1091	509
160.1148	50
161.1143	208
162.0934	30
163.1171	122
164.1317	96
165.1117	656
166.1010	152
167.1094	310
168.1256	147
169.1169	465
170.1230	188
171.1284	454
172.1247	76
173.1316	229
174.1250	38
174.5339	4
175.1304	108
176.0825	50
177.1319	226
178.0939	217
179.0991	334
180.0993	141
181.1031	354
182.1031	136
183.1067	385
184.1138	92
185.1171	267
186.1126	57
187.1086	124
188.0823	31
189.1009	142
190.0844	65
191.1013	260
192.0988	170
193.0969	288
194.1012	138
195.1033	341
196.1087	103
197.1089	301
198.1069	58
199.1226	176
199.6025	7
200.1172	38
201.1167	81
202.0835	107
203.1027	146
204.1138	57
205.1197	396
206.1087	102
207.1140	224
208.1156	93
209.1234	255
210.1229	53
211.1288	190
212.1598	38
213.1404	108
214.1274	26
215.1191	149
216.1229	55
217.1416	185
218.1390	92
219.1340	143
220.1439	74
221.1498	158
222.1533	55
223.1616	137
224.1630	30
224.5946	6
225.1750	103
226.1335	45
227.1580	67
228.1405	42
229.1600	93
230.1789	50
231.1822	131
232.1624	51
233.1650	113
234.1650	40
235.1668	110
236.1748	34
237.1818	88
238.1789	29
239.1719	79
240.1829	38
241.1723	75
242.1605	30
242.6408	2
243.1769	86
244.1702	35
245.1668	65
246.1916	33
247.1654	78
248.2012	25
249.2006	77
250.1797	28
251.1886	60
252.1786	27
253.1984	69
254.1847	22
254.5316	2
255.1900	82
256.1809	30
257.2000	67
258.2018	45
259.1921	58
260.1886	25
261.2060	61
262.2075	14
262.6479	2
263.2063	59
264.2276	20
265.2137	61
266.1486	15
267.1825	48
268.1960	22
269.2216	66
270.2210	50
271.2295	94
272.2086	16
272.5994	4
273.1907	39
274.2130	13
275.2236	38
276.1977	17
276.6376	3
277.2281	51
278.1790	14
279.2336	35
280.2515	19
281.2327	52
282.2467	25
283.2328	122
284.2251	26
285.2369	41
286.2652	12
287.2345	26
288.2544	9
289.2303	31
290.2077	11
291.2445	33
292.2135	9
293.2508	35
294.2277	13
295.2225	43
295.7185	3
296.2427	27
297.2173	55
298.2439	16
298.5862	3
299.2115	19
300.2311	7
301.2361	22
301.7002	2
302.2236	9
303.2261	27
304.2051	6
304.5834	1
305.2466	28
305.6680	2
306.2141	9
307.2575	30
308.2447	11
309.2366	61
310.2287	11
311.2016	15
311.7171	2
312.2624	6
313.2269	13
314.2256	5
314.6196	2
315.2276	14
316.3116	6
317.2544	19
318.2391	10
318.7583	3
319.2776	26
320.2537	11
321.2494	24
322.2452	11
323.2413	14
324.2985	10
324.6381	2
325.2339	9
325.8118	1
326.3124	7
327.2808	11
328.2405	3
329.2436	14
330.2304	5
330.6985	1
331.2890	17
332.2731	8
333.2495	17
334.2885	11
334.5699	4
335.2667	35
336.2808	247
337.2727	28
338.2871	9
339.2794	6
339.6891	2
340.3344	4
341.2912	7
341.6847	2
342.2630	5
343.2440	11
344.2594	4
345.3003	15
345.6806	1
346.3160	7
347.3080	19
347.7497	2
348.2808	10
349.2761	65
350.2955	12
351.3194	44
352.1047	2
352.5317	2
353.2977	6
354.1339	2
354.5103	2
355.2914	6
355.9023	3
356.3654	5
356.7195	1
357.2439	6
357.8296	1
358.3900	3
359.2784	12
359.6398	2
360.2700	13
361.3050	47
362.3282	23
363.3172	41
364.3437	4
365.3151	8
366.3493	3
366.6781	2
367.2791	6
367.7843	4
368.2852	4
369.3228	7
370.3083	6
371.3342	10
372.2751	4
373.3123	23
374.3343	12
375.3250	29
376.2635	10
376.7268	1
377.3590	13
378.2843	8
379.2665	6
379.6911	1
380.3176	3
380.9038	1
381.3240	5
382.4038	2
383.3776	10
383.8607	2
384.3065	3
385.3164	6
386.3294	4
387.3665	10
388.3258	5
389.3347	23
389.9440	3
390.2643	5
391.2420	9
391.7047	1
392.3994	5
393.2665	3
393.9390	2
394.4062	4
395.3095	5
396.3162	7
396.7297	1
397.3724	6
398.2505	2
398.6341	1
399.3219	8
399.6157	2
400.3441	6
401.3333	11
401.8295	2
402.3617	24
403.3646	41
404.3842	35
405.3374	8
406.0586	4
406.2561	2
407.3770	4
408.3723	7
409.3991	8
410.3601	14
411.3242	7
412.4397	5
413.4011	9
414.2861	7
415.3390	6
416.3441	10
416.7096	2
417.3613	11
417.8527	1
418.2827	7
418.5718	2
419.3434	15
419.8619	2
420.2995	2
420.5857	2
421.3827	6
422.3452	46
423.3587	7
424.4951	3
425.4550	9
426.2307	3
426.4853	4
427.3689	9
428.3425	11
429.3132	17
430.3184	5
430.6930	2
431.3207	8
432.3726	19
433.3257	3
433.6134	1
434.1469	1
434.5740	3
435.3879	3
435.8885	1
436.6035	3
437.3321	2
437.6964	2
438.4699	5
439.3456	7
440.4237	6
441.3249	22
441.9098	2
442.3447	5
442.6267	2
442.9507	3
443.3286	4
443.9301	3
444.3321	8
445.4152	33
446.4113	3
446.8329	2
447.3881	5
447.7542	1
448.3544	6
449.3403	9
450.1957	2
451.2238	4
451.9142	2
452.4921	3
453.2216	6
454.4166	7
454.7664	7
455.3820	55
456.4021	9
457.3810	17
458.3300	8
458.9297	6
459.4455	10
459.8398	4
460.5100	5
461.2913	7
462.3515	12
463.3894	3
464.5443	4
465.4533	6
466.3714	4
466.9684	5
467.4980	9
468.4252	9
471.8916	23
473.5876	23
475.4159	48
476.4202	54
477.3961	3
477.9681	2
478.5898	2
479.2744	4
479.8991	1
480.3361	2
481.3633	7
481.5811	3
482.3636	10
482.8336	2
483.4328	54
484.3327	6
484.7272	3
485.5551	4
487.4243	9
488.4234	407
489.3806	15
490.1474	2
490.5240	2
491.5984	2
492.2362	1
492.6444	1
493.3287	3
494.1452	2
494.5954	3
495.4179	6
495.7032	3
496.3681	3
497.3333	8
497.6141	3
497.9338	2
498.4127	8
498.9052	1
499.4246	4
499.9531	1
500.4561	3
501.0927	2
501.4787	1
501.8376	0
502.3061	1
502.8226	1
503.4308	4
504.2643	0
504.6398	0
505.3833	2
506.3716	2
506.8537	1
507.4351	4
508.5647	3
509.5006	11
510.4570	18
511.4941	8
512.4009	10
512.7052	5
513.4517	6
514.1862	5
515.4753	3
516.2459	4
517.5698	5
518.6223	5
519.3751	4
519.9974	3
520.5567	4
521.4310	5
521.7219	3
522.4268	4
523.4121	8
524.4711	23
525.4430	111
526.4000	10
527.2731	5
528.3503	5
529.5535	8
530.5182	7
532.3714	8
533.5179	6
534.2982	9
535.4359	35
537.1919	20
538.4302	31
539.5081	81
540.5123	95
541.8260	7
543.9445	10
546.2480	16
550.4742	240
551.5331	46
552.4764	36
553.5302	550
554.7523	13
568.3694	999
571.7999	108
573.0995	34
574.7040	17
