Mass spectrum: Celaxanthin; FAB-EBEB; MS2; m/z: 550.42; [M]*+
Name: Celaxanthin
Class: Natural Product; Carotenoid
Formula: C40H54O
Exact mass: 550.41747
SMILES: C(C=CC=C(C=CC=C(C)C=CC(=C(C)1)C(C)(C)CC(C1)O)C)=C(C)C=CC=C(C=CC=C(C=CC=C(C)C)C)C
InChI: InChI=1S/C40H54O/c1-31(2)17-13-20-34(5)23-15-25-35(6)24-14-21-32(3)18-11-12-19-33(4)22-16-26-36(7)27-28-39-37(8)29-38(41)30-40(39,9)10/h11-28,38,41H,29-30H2,1-10H3/b12-11+,20-13+,21-14+,22-16+,25-15+,28-27+,32-18+,33-19+,34-23+,35-24+,36-26+/t38-/m1/s1
Instrument: JMS-HX/HX 110A, JEOL
Instrument type: FAB-EBEB
Ms type: MS2
Ion mode: POSITIVE
Collision energy: 3 kV
Ionization: FAB
Base peak: 550.3240
Precursor m/z: 550.42
Precursor type: [M]+*
m/z	relative intensity
0.0147	0
4.7081	0
8.1140	0
10.8563	0
13.5053	0
13.9549	0
14.9779	1
22.9372	2
25.9654	2
26.9516	10
27.9471	1
28.9719	7
29.9375	0
30.9361	1
36.9199	1
37.9389	3
38.9415	13
39.9623	1
40.9676	21
41.9906	1
42.9744	15
48.8811	0
49.7351	0
49.9291	1
50.9444	6
51.9767	3
52.8120	1
52.9668	7
53.9722	1
54.9697	26
56.9977	8
58.9823	1
60.7601	1
60.9345	1
61.9201	1
62.7125	1
62.9347	7
63.1549	1
63.8769	0
63.9641	1
64.7081	1
64.8420	1
64.9545	12
65.9525	5
66.9554	25
67.9076	0
68.9767	58
69.9766	1
70.2402	1
70.5657	0
70.7346	1
70.9651	5
71.9516	0
72.8232	0
73.7188	1
73.8977	3
74.6153	0
74.7853	2
74.9234	7
75.0676	1
75.5586	0
75.6893	0
75.7923	0
75.9346	3
76.1119	0
76.6229	1
76.9256	59
77.1819	0
77.3265	1
77.4183	1
77.9167	12
78.9347	62
79.4051	0
79.7848	1
79.9607	15
80.4437	1
80.9622	69
81.5573	1
81.8513	2
81.9917	3
82.9720	19
83.2886	0
83.9691	1
84.6586	0
84.9692	24
85.6412	0
85.7414	1
85.9252	1
85.9947	1
86.6935	1
86.9126	5
87.8394	1
87.9344	1
88.0688	0
88.5281	1
88.9139	19
89.1594	1
89.5285	1
89.7583	1
89.9537	6
90.1216	0
90.3586	1
90.9234	177
91.2853	1
91.6412	1
91.9241	19
92.2660	1
92.4804	1
92.9611	98
93.1504	1
93.9855	8
94.4761	1
94.9701	60
95.2659	1
95.9702	3
96.9735	8
97.3072	0
97.6020	1
97.9420	2
98.6665	0
98.7730	0
98.9844	5
99.9403	0
100.6840	2
100.9138	6
101.1724	1
101.9220	13
102.0946	1
102.3202	1
102.4681	0
102.5683	1
102.9333	40
103.3505	1
103.9406	20
104.2355	1
104.4212	1
104.9520	240
105.2522	0
105.7215	2
105.9831	24
106.4791	2
106.9738	123
107.3093	1
107.6688	1
107.9590	10
108.2986	1
108.4359	1
108.9868	97
109.1783	1
109.3479	0
109.5621	0
109.8282	2
109.9556	5
110.2231	0
110.9415	4
111.1014	1
111.2243	1
111.4242	1
111.7258	1
111.9157	1
112.3466	0
112.8513	3
113.1074	1
113.2026	3
113.2655	1
113.3493	1
113.4936	2
113.6445	3
113.9507	4
114.2312	1
114.9060	111
115.1587	2
115.4283	1
115.9216	35
116.1241	1
116.2444	1
116.4350	0
116.9176	113
117.4408	2
117.6113	1
117.9433	24
118.1200	2
118.3111	0
118.9428	229
119.1698	1
119.3673	1
119.4947	0
119.6023	0
119.9504	30
120.2254	1
120.3639	0
120.9581	62
121.2396	0
121.4643	1
121.6193	0
121.9587	5
122.3358	1
122.7240	1
122.9582	13
123.9468	4
124.5937	0
124.8893	3
125.0493	1
125.1820	0
125.3397	1
125.4919	1
125.6611	0
125.9072	5
126.1564	0
126.5331	3
126.9106	44
127.2925	2
127.8895	130
128.1601	2
128.5726	7
128.9161	151
129.2139	0
129.9054	51
130.9234	149
131.1349	1
131.2618	2
131.4102	1
131.9224	29
132.3661	1
132.9348	109
133.2574	2
133.4534	1
133.6053	1
133.9466	28
134.1842	1
134.4366	1
134.6294	2
134.9651	60
135.4064	1
135.5920	1
135.6783	0
135.9213	20
136.1095	1
136.2489	0
136.3847	1
136.5865	1
136.7457	1
136.9433	7
137.5616	1
137.7019	0
137.9170	4
138.4827	0
138.6318	1
138.9059	20
139.4177	0
139.8847	9
140.1021	4
140.3028	2
140.8985	119
141.1267	1
141.3109	1
141.4610	3
141.9202	128
142.3331	2
142.4740	2
142.9231	177
143.2835	1
143.3581	1
143.4526	1
143.6733	4
143.9482	56
144.2287	1
144.9424	191
145.2363	1
145.4786	1
145.6567	3
145.9589	16
146.2119	1
146.6115	1
146.9613	42
147.3100	1
147.4866	0
147.7219	1
147.9553	6
148.9421	24
149.2852	1
149.6409	1
149.9292	9
150.2050	0
150.9178	14
151.1870	2
151.3429	1
151.8959	45
152.2261	3
152.3747	2
152.5708	3
152.9207	51
153.4218	2
153.9169	28
154.3205	1
154.5333	3
154.9453	124
155.3555	1
155.4919	1
155.6459	2
155.9671	85
156.2538	1
156.6110	4
156.9759	179
157.3012	3
157.5096	4
157.9748	36
158.2941	1
158.5971	2
158.9834	94
159.2494	2
159.3584	0
159.4574	1
159.6680	4
159.9902	21
160.1498	2
160.4722	1
160.5915	1
161.0105	18
161.2132	1
161.3262	0
161.6021	0
161.9735	10
162.3760	0
162.6167	2
162.7653	1
162.9941	8
163.2698	1
163.4886	3
163.6549	2
163.9788	10
164.1250	3
164.5338	7
164.9560	108
165.1472	2
165.3613	2
165.5057	3
165.6197	2
165.9706	38
166.2452	1
166.4726	2
166.9611	81
167.2114	2
167.3024	1
167.5870	3
167.9601	33
168.2289	1
168.3858	1
168.5611	4
168.9864	110
169.2504	1
169.3858	1
169.6651	2
169.9881	43
170.3346	2
170.4391	1
171.0006	84
171.2599	1
171.4000	1
171.6048	2
171.7209	2
171.9999	14
172.3615	2
172.5614	0
173.0012	51
173.3427	1
173.5192	3
173.5827	1
173.7554	1
173.9720	8
174.2972	1
174.4281	1
174.6696	2
175.0293	37
175.3573	0
175.5721	1
175.6720	1
175.9556	9
176.3423	1
176.9888	11
177.1892	3
177.3891	1
177.4795	1
177.6616	8
177.9424	52
178.1513	2
178.3519	1
178.5283	3
178.9412	94
179.2662	1
179.4160	1
179.5600	2
179.9502	42
180.2256	1
180.9522	92
181.2776	2
181.3841	2
181.5641	1
181.9739	33
182.3742	2
182.9682	98
183.3291	1
183.5803	2
183.9733	21
184.1798	0
184.3140	1
184.4093	1
184.6906	1
185.0078	43
185.3308	2
185.4671	1
185.6763	1
186.0077	15
186.2067	2
186.4058	1
186.5876	1
187.0050	26
187.2579	1
187.3611	1
187.5564	1
187.6582	1
187.9452	9
188.3713	2
188.5290	2
188.9372	33
189.3430	1
189.4366	1
189.5508	1
189.9221	13
190.1915	2
190.2935	1
190.5225	3
190.9223	37
191.2919	1
191.4530	3
191.6084	1
191.9480	36
192.2023	0
192.3558	2
192.5465	2
192.6795	3
192.9583	76
193.2616	2
193.4569	2
193.5353	1
193.6632	3
193.9646	41
194.2211	1
194.4442	2
194.5670	3
194.9728	124
195.2345	0
195.3542	2
195.4700	1
195.6939	3
195.9937	19
196.1990	1
196.3309	2
196.4210	1
196.5330	3
196.9823	83
197.2669	1
197.3706	1
197.5412	2
197.6900	1
197.9798	12
198.2968	1
198.4591	1
198.5970	1
198.9991	36
199.5766	1
199.7436	1
199.9725	8
200.1885	2
200.3446	2
200.5561	1
200.6419	1
200.7619	2
201.0051	17
201.3206	2
201.6748	4
201.9394	21
202.2234	0
202.4707	2
202.9452	33
203.1829	2
203.4574	0
203.5872	2
203.9464	18
204.1066	3
204.3528	1
204.6313	3
204.9693	49
205.3443	2
205.6934	3
205.9643	31
206.3847	2
206.6053	3
206.9766	61
207.3493	2
207.9667	22
208.3538	1
208.9851	72
209.2759	2
209.4372	1
209.6095	2
210.0085	15
210.2437	3
210.5716	1
210.9987	29
211.2710	1
211.3598	1
211.6295	1
211.9861	9
212.2072	1
212.4109	1
212.6846	3
212.8111	1
213.0479	13
213.3061	2
213.4826	0
213.6876	2
213.9784	7
214.3139	2
214.6074	4
214.9638	35
215.2339	1
215.6060	2
215.9633	16
216.2342	2
216.3940	1
216.5031	0
216.9749	41
217.4636	1
217.6339	2
217.9954	18
218.2522	2
218.3556	1
218.5123	4
219.0066	47
219.2342	1
219.3734	1
219.5536	1
219.9908	21
220.3559	1
220.5961	1
220.7418	2
221.0322	50
221.5276	2
221.6272	1
222.0264	14
222.4073	2
222.6138	1
222.7558	2
223.0633	24
223.5344	1
223.7670	3
224.0492	10
224.2173	2
224.4826	1
224.6404	1
225.0479	16
225.3380	0
225.4697	2
225.5767	2
225.7828	3
226.0202	9
226.3803	2
226.5969	2
226.6762	1
227.0666	8
227.2318	3
227.3606	1
227.4563	1
227.5409	0
227.6431	2
227.7270	0
228.0179	11
228.3752	0
228.6135	1
228.9820	28
229.5406	1
229.6207	1
230.0226	15
230.4681	2
230.9900	36
231.2858	1
231.9747	13
232.2406	1
232.4994	1
232.6846	3
233.0360	34
233.4598	0
233.7318	3
234.0325	13
234.4643	2
235.0333	31
235.4503	1
235.5481	1
235.6630	1
236.0187	8
236.3765	1
236.6148	1
236.7277	2
237.0712	14
237.3134	1
237.3918	1
237.4950	0
237.7059	1
238.0534	6
238.4891	1
238.7694	2
239.0164	21
239.1745	8
239.4163	1
239.6771	2
240.0059	7
240.1549	2
240.3876	1
240.5700	1
240.9904	17
241.5077	1
241.9714	16
242.3527	1
242.5071	2
242.9926	20
243.3531	1
243.9912	15
244.3047	3
244.4343	1
244.6242	2
245.0059	21
245.4989	1
245.6803	2
245.8015	1
246.0267	15
246.3431	1
246.6562	2
247.0414	22
247.3998	1
247.5931	1
247.7727	1
248.0584	6
248.3848	0
248.5356	2
248.7237	4
249.0541	21
249.3209	1
249.4579	1
249.6730	3
250.0540	8
250.2009	2
250.4331	0
250.6344	1
250.7289	1
251.0674	15
251.3239	1
251.5121	1
251.6315	1
251.7122	1
252.0593	7
252.2778	1
252.4661	0
253.0338	12
253.2983	2
253.5753	0
253.8031	1
254.0395	7
254.2738	1
254.6205	0
255.0211	14
255.2253	2
255.4053	1
255.6963	1
256.0569	6
256.1725	2
256.5102	1
256.6239	1
256.7553	1
257.0175	22
257.2245	1
257.4774	2
257.6786	2
258.0394	8
258.3345	1
258.4660	1
258.7494	3
259.0314	23
259.3806	1
259.5292	1
260.0592	12
260.2269	1
260.3249	1
260.6499	1
261.0591	24
261.2952	1
261.7137	1
261.8394	1
262.0815	6
262.3533	1
262.5330	1
263.0714	14
263.2465	2
263.5868	1
264.0562	8
264.3809	1
264.4862	0
265.0512	11
265.3015	1
265.5268	1
265.5920	0
265.7448	2
265.9332	6
266.0716	6
266.6447	2
266.7640	1
267.0388	12
267.3748	1
267.5620	2
267.6892	3
267.8224	3
267.9779	8
268.1262	5
268.3754	0
268.5349	1
269.0630	13
269.3691	0
269.5605	1
269.8835	3
270.0539	5
270.4106	1
270.5816	1
270.8205	1
271.0791	19
271.2825	1
271.4326	1
271.6300	1
272.0803	6
272.3173	1
273.0652	13
273.2140	2
273.3365	3
273.4530	1
273.6908	2
273.8172	2
274.0853	5
274.2809	1
274.6201	1
274.7650	2
275.0905	15
275.5081	0
275.9674	4
276.1836	4
276.4656	1
277.0410	6
277.4872	0
277.6870	1
278.0930	6
278.4834	2
278.7445	1
279.0254	6
279.1428	2
279.2588	1
279.6248	1
280.0272	4
280.1908	1
280.5609	2
280.6928	2
280.7964	2
280.9758	3
281.1942	2
281.4937	1
281.6937	1
282.0540	5
282.7984	1
283.0796	10
283.5635	2
283.7140	2
284.0738	8
284.2970	0
284.5432	2
284.7506	1
285.0682	12
285.2298	2
285.6916	2
286.0643	4
286.2827	1
286.6489	0
287.0296	8
288.0076	2
288.1390	4
288.5126	2
288.7219	1
289.0823	8
289.2955	1
289.5827	1
290.0238	3
290.1163	2
290.3434	1
290.9101	2
291.1029	5
292.0191	3
293.0095	4
293.1218	3
293.8170	1
293.9697	3
294.1256	2
294.4482	1
294.6022	1
295.0054	4
295.2923	1
295.4748	2
296.0361	4
296.1948	1
296.3641	1
297.0485	8
297.1312	4
297.3025	1
298.0724	7
298.2378	2
298.4474	1
298.7888	1
299.0296	8
299.4008	1
299.7992	2
299.8997	1
300.1201	4
300.2769	2
300.3901	1
300.4847	0
300.6012	1
300.7740	0
300.9196	3
301.1016	4
301.5921	1
301.7589	0
301.9959	3
302.1760	2
302.9519	3
303.0645	3
303.1711	2
303.6022	1
303.7260	1
303.8578	1
304.1002	3
304.2334	1
304.4890	1
304.6652	1
304.8884	4
305.0726	4
305.6271	0
305.9225	1
306.0941	2
306.2028	1
306.3241	0
307.0311	5
307.9225	1
308.0670	3
308.6954	1
309.0049	5
309.1422	2
309.2509	1
309.3941	1
309.8277	1
310.0426	4
310.1858	1
310.3542	1
311.0565	6
311.7303	1
312.0123	6
312.1190	5
312.5045	1
312.6079	1
312.7141	1
313.0830	5
313.3822	1
313.6085	2
314.0563	4
314.2567	1
314.4134	1
314.6649	1
315.0750	4
315.3027	1
315.7925	1
315.9412	2
316.1138	2
316.2220	1
316.2990	1
316.7458	1
317.0930	6
317.3088	1
317.4728	1
317.5638	1
318.0492	2
318.2690	2
318.6350	0
318.7691	1
319.0441	5
319.1776	2
319.4486	1
319.9441	1
320.1361	2
320.4709	1
320.7991	1
320.9280	2
321.0915	5
321.3559	1
321.4735	1
322.1035	3
322.1846	1
322.5534	0
322.9854	3
323.1848	3
323.7731	1
323.9758	4
324.1633	2
324.3049	1
325.0821	3
325.2549	1
325.7158	2
326.0143	7
326.2125	2
326.6814	0
326.8603	2
327.0831	5
327.2480	3
327.4722	1
328.1183	2
329.0503	6
329.2191	2
329.3853	1
329.7835	1
329.9178	1
329.9989	1
330.1904	2
330.7310	1
331.0289	5
332.0271	3
332.1867	3
332.2832	1
333.0308	3
333.1792	1
333.3694	1
333.6508	2
333.8790	0
334.1385	3
334.3148	1
334.4572	1
334.8125	2
334.9995	4
335.1884	2
336.1115	5
336.2053	2
336.6406	0
336.8303	1
337.0805	6
337.9699	2
338.1383	3
338.7042	1
339.1110	3
339.7629	1
340.0806	2
340.4821	1
340.6133	1
340.8072	1
341.0775	4
342.0161	3
342.2352	0
342.4717	2
342.8115	1
343.0827	1
343.2819	2
343.6970	1
343.9169	4
344.1068	3
344.2367	5
344.3407	1
344.7772	0
345.0630	4
345.3290	1
345.5509	1
345.9028	1
346.1035	3
346.3668	1
347.0667	2
347.2307	4
347.6267	0
348.0787	3
348.2468	1
348.4235	1
348.9396	1
349.0449	3
349.1649	7
349.2937	2
349.4817	1
349.6971	0
349.9452	3
350.1500	2
350.2627	0
350.4188	2
350.7696	2
351.2105	9
351.5607	1
351.9596	1
352.1765	5
352.6455	1
352.9017	1
353.0038	2
353.1098	2
353.2353	1
353.6750	1
354.1255	3
354.2946	2
354.6136	1
354.8548	1
355.1300	3
355.3513	2
356.1955	1
356.5319	1
356.6569	1
356.8198	0
357.1542	5
357.3802	1
357.4740	0
358.1442	3
358.3357	1
359.0632	1
359.1849	1
359.3232	2
360.2650	1
360.5331	1
361.0545	1
361.2594	2
361.5269	1
362.1708	4
363.0518	2
363.2507	2
363.8216	1
364.0060	2
364.1470	4
365.0681	1
365.2179	4
365.3443	1
365.7916	1
365.9374	1
366.1530	3
366.2782	2
367.1929	2
367.3167	1
367.4539	0
367.5637	0
367.9126	2
368.1596	4
368.4941	0
368.9172	1
369.1491	3
369.3584	2
370.0881	2
370.2600	2
370.9039	1
371.1258	2
372.0057	1
372.0897	1
372.2670	2
372.5050	1
372.6523	1
373.0084	1
373.2117	1
373.6497	1
373.8765	1
373.9691	1
374.2252	1
374.3899	0
374.5246	1
375.1381	3
375.8263	1
376.0577	4
376.2105	1
376.7988	1
376.9615	1
377.6119	1
378.1162	3
378.2356	1
378.5512	1
378.9842	1
379.1663	4
379.4312	0
379.8809	1
380.0190	2
380.2086	2
380.3013	1
380.5302	1
381.2262	4
381.5593	1
381.7214	0
382.0051	3
382.2460	5
382.5183	1
382.8294	3
383.1832	4
383.3621	1
384.1765	3
384.3107	2
384.4883	0
384.5931	1
384.8535	1
385.0411	2
385.2060	4
385.3662	1
385.4871	1
385.6427	1
386.0179	2
386.2884	1
386.4560	1
386.6323	1
386.8012	1
386.9395	2
387.0757	1
387.2039	1
387.5218	1
387.7936	1
388.1209	2
388.2571	1
388.5791	0
388.7567	0
389.1776	2
389.6672	1
390.0634	3
390.2691	2
391.0681	2
391.6548	1
392.1987	8
392.3537	4
392.5161	1
393.1977	4
393.4443	1
393.6087	0
393.7337	1
394.0839	6
394.2984	4
394.4401	2
395.2135	5
395.4120	4
396.2075	7
396.4053	1
396.6099	1
397.2724	46
397.5586	2
397.6562	1
397.7699	1
397.8635	1
398.0774	1
398.1964	0
398.3563	2
398.4766	1
399.0691	3
399.2550	2
399.5350	1
399.7539	1
399.9835	1
400.1451	2
400.3326	2
400.5622	1
401.0308	2
401.1409	1
401.3151	1
402.0134	3
402.1949	4
402.8385	1
403.0461	3
403.2237	3
403.3399	4
404.0349	2
404.2546	4
404.5217	1
405.0078	2
405.1213	2
405.3043	2
406.0616	1
406.2039	1
406.3728	1
406.9345	1
407.0982	2
407.7060	1
408.1281	5
409.1863	2
409.3339	1
409.9332	2
410.1416	4
410.2712	2
410.7002	1
411.2340	9
411.3844	4
411.7118	1
412.2317	8
412.4435	4
412.9381	1
413.2883	16
413.8724	2
414.1825	2
414.3610	2
415.2714	2
415.3877	1
415.5394	1
416.1967	3
416.7368	0
416.9884	1
417.1800	2
417.3589	1
417.6987	2
417.9885	2
418.2261	2
418.4879	1
418.6568	1
419.1482	1
419.8299	1
419.9702	2
420.1438	4
420.3594	1
420.6940	1
421.0867	1
421.2690	1
421.3678	1
422.0544	3
422.2053	1
422.3342	1
422.5085	1
422.6662	1
422.8485	1
423.2299	1
423.3728	1
424.0515	1
424.2666	1
424.3728	1
424.9346	1
425.0235	1
425.3054	1
425.9835	2
426.1011	3
426.2648	1
426.6303	0
426.8280	1
427.1595	3
427.3886	1
428.1665	5
428.5781	1
429.0165	1
429.1147	1
429.2270	0
429.3527	2
429.4836	1
429.8827	1
429.9916	1
430.1019	2
430.2990	1
430.4354	1
430.8819	0
431.1987	2
431.3210	1
431.6512	1
431.7729	1
432.0283	1
432.2021	2
433.0216	1
433.1219	1
433.5939	1
433.9402	1
434.0913	1
434.1830	2
434.4591	1
434.9753	2
435.1465	1
435.3831	1
436.0873	5
436.2424	6
436.3909	3
436.8035	2
437.1312	2
437.3305	3
437.4261	1
437.9344	2
438.2976	1
438.4681	1
438.8099	1
439.2159	0
439.4366	0
439.9216	2
440.1484	3
441.2014	5
441.3124	2
441.9761	1
442.2176	2
442.6692	2
442.8827	2
443.0131	0
443.3336	1
444.2156	14
444.9503	1
445.1926	2
445.4114	1
445.7581	1
445.9943	2
446.1911	1
446.3390	1
446.4990	1
447.0297	1
447.7794	1
447.9380	1
448.0264	1
448.2091	1
448.3149	1
448.4046	1
448.5913	2
449.1838	1
449.3860	1
449.8506	1
450.0715	2
450.2700	6
450.5257	2
450.7561	1
451.1641	2
451.3538	2
451.8887	1
452.3829	2
452.8778	1
453.0615	1
453.4149	2
453.9592	1
454.1863	3
454.3319	1
454.9939	1
455.1730	2
455.2992	2
455.9980	2
456.2118	2
456.4129	1
456.5311	1
456.6667	2
456.7990	2
457.1612	2
457.3389	2
457.5059	1
457.6990	2
458.2442	60
458.7928	1
458.9418	2
459.1617	1
459.3501	1
459.6395	2
459.9816	1
460.1367	2
460.2984	3
460.4574	1
460.8270	1
461.5916	1
462.1476	2
462.7986	2
463.0861	1
463.2438	1
463.5486	0
463.8969	1
464.2291	5
464.4818	1
465.1510	3
465.3870	3
465.9058	1
466.2614	1
466.4206	0
466.9661	1
467.2115	4
468.0400	2
468.2452	1
468.3910	2
468.7033	1
469.1139	4
469.3392	2
470.0963	3
470.3257	2
470.7904	2
471.1677	5
471.3656	7
471.4559	3
471.7609	1
472.1127	1
472.3000	2
472.7174	1
473.9388	1
474.1127	1
474.2726	3
474.4907	1
474.6693	1
474.9951	1
475.2507	2
475.6895	1
475.9210	2
476.2769	4
476.3934	3
476.7480	1
477.1273	2
477.7519	1
477.8976	1
478.0735	1
478.1865	2
478.2948	2
478.3931	2
478.6954	2
479.1628	2
479.5507	3
479.9927	1
480.4475	0
480.9397	1
481.2440	6
481.5677	1
482.1831	4
482.3122	5
482.8834	1
483.0974	1
483.1771	1
483.5470	1
484.3958	2
485.1558	1
485.4060	2
485.9131	1
486.2998	1
486.9930	1
487.1663	1
487.8313	2
488.1391	2
488.2890	2
488.5520	1
488.9829	1
489.1890	1
489.6059	1
489.8877	0
490.0242	1
490.2531	3
490.4438	1
490.6077	1
491.0039	1
491.3064	2
491.4911	1
491.6705	0
492.0741	2
492.1772	1
492.3759	5
492.5105	1
493.1142	2
493.3973	4
494.2099	5
494.4402	1
494.9322	0
495.3024	4
495.5655	1
495.8467	1
496.1486	1
496.3695	1
496.9995	1
497.1595	1
497.3336	1
497.6248	2
498.3406	1
499.1072	1
499.4326	1
499.7039	1
500.0561	1
500.2858	2
500.4217	1
501.1797	2
501.3157	2
501.4469	1
502.1454	5
502.3102	5
502.5091	2
502.8888	1
503.1958	0
503.7537	1
504.1372	2
504.3050	3
504.4139	1
504.5616	1
504.7172	2
505.0226	2
505.2064	3
505.3674	1
505.9167	1
506.3097	6
507.0969	4
507.2820	5
507.4050	2
507.8474	2
508.1335	2
508.3581	3
508.5646	1
509.1768	2
509.3700	2
509.5652	3
510.1166	1
510.3298	3
510.4528	2
510.9167	1
511.0190	1
511.3659	1
512.0211	1
512.3820	1
512.7003	2
513.2056	1
513.3694	3
513.6990	1
514.2225	6
514.4037	3
514.6959	1
515.0175	2
515.1566	1
515.3210	1
515.7630	2
516.0091	1
516.2471	2
516.4431	2
516.5494	1
516.6724	0
516.7921	1
517.0228	2
517.1351	2
517.3184	2
517.9777	2
518.1910	6
518.3963	3
518.6190	1
518.8504	1
518.9694	2
519.2496	4
519.4677	2
519.8542	1
519.9786	2
520.2388	9
520.5284	2
520.7003	1
521.0020	4
521.1056	3
521.2280	2
521.3785	2
521.5497	2
521.7430	6
521.8541	1
522.1537	5
522.2273	2
522.3939	3
522.6835	2
522.8487	3
522.9771	1
523.0881	3
523.1945	2
523.3116	1
523.4922	1
523.7130	4
523.9029	2
523.9778	2
524.1250	1
524.3116	5
524.4843	4
524.9010	4
525.0897	5
525.2662	2
525.4195	3
525.6362	4
525.7580	2
526.0524	5
526.3026	3
526.5501	7
526.8090	3
526.9716	2
527.1636	3
527.3456	5
527.7551	7
528.2676	6
528.4529	2
528.7119	6
529.0096	4
529.1937	7
529.3770	6
529.5563	5
529.8561	6
530.3439	7
530.9081	9
531.2407	6
532.1307	60
533.2471	18
533.5810	9
533.9230	6
534.2463	17
535.1820	60
535.7677	4
536.1961	7
536.4846	4
536.6948	3
536.9070	4
537.3770	5
537.7043	3
537.7927	2
537.8864	1
537.9928	2
538.2706	6
538.6596	3
538.9997	6
539.3204	5
539.6317	6
540.0374	5
540.1867	3
540.3206	2
540.4438	2
540.8174	7
541.0631	6
541.2673	3
541.4307	7
541.5673	6
541.7340	3
541.9355	6
542.1725	6
542.2897	4
542.5288	8
542.8060	8
543.0886	7
543.3263	9
543.6330	11
543.8888	9
544.4091	12
544.7446	22
544.9281	15
545.2267	19
545.9396	21
550.3240	999
551.0309	203
551.8434	99
552.6385	49
553.4423	27
553.8734	17
554.3398	11
554.5723	12
555.0394	9
555.3909	8
555.5587	8
555.7639	11
