Mass spectrum: 3,4-Dihydrospheroidene; FAB-EBEB; MS2; m/z: 570.48; [M]*+
Name: 3,4-Dihydrospheroidene
Class: Natural Product; Carotenoid
Formula: C41H62O
Exact mass: 570.48007
SMILES: C(C)(=CC=CC(C)=CC=CC(=CC=CC=C(C=CC=C(CCC=C(C)CCC=C(C)C)C)C)C)CCCC(C)(C)OC
InChI: InChI=1S/C41H62O/c1-34(2)20-14-23-37(5)26-17-29-38(6)27-15-24-35(3)21-12-13-22-36(4)25-16-28-39(7)30-18-31-40(8)32-19-33-41(9,10)42-11/h12-13,15-16,18,20-22,24-28,30-31H,14,17,19,23,29,32-33H2,1-11H3/b13-12+,24-15+,25-16+,30-18+,35-21+,36-22+,37-26+,38-27+,39-28+,40-31+
Instrument: JMS-HX/HX 110A, JEOL
Instrument type: FAB-EBEB
Ms type: MS2
Ion mode: POSITIVE
Collision energy: 3 kV
Ionization: FAB
Base peak: 570.4473
Precursor m/z: 570.48
Precursor type: [M]+*
m/z	relative intensity
2.2695	0
12.9734	0
13.9802	0
14.9874	1
23.9183	0
24.9610	0
25.9696	3
26.9647	18
27.9714	2
28.9776	12
30.9579	1
32.8971	0
35.9210	0
36.7873	0
36.9460	3
37.5447	0
37.9518	6
38.5280	0
38.6900	0
38.9569	45
39.1041	0
39.3414	0
39.5841	0
39.6670	0
39.8078	0
39.9740	7
40.4157	0
40.5954	0
40.9750	114
41.9803	5
42.7969	0
42.9764	36
43.2706	0
44.9672	8
47.8433	0
47.9565	0
48.9359	1
49.1746	0
49.7645	0
49.9524	10
50.6532	0
50.9551	22
51.0950	0
51.9631	11
52.9668	48
53.3082	0
53.9780	4
54.9818	129
55.9811	3
56.9887	8
57.9855	1
58.9875	6
59.9388	0
60.9448	2
61.0605	0
61.5146	0
61.9489	7
62.1484	0
62.5368	0
62.6531	0
62.9569	18
63.1734	0
63.2667	0
63.4739	0
63.6380	0
63.7359	0
63.9508	3
64.4141	0
64.9622	31
65.4100	0
65.9725	8
66.2056	0
66.3805	0
66.6309	0
66.9767	72
67.1746	0
67.5387	0
67.9791	11
68.2457	0
68.4525	0
68.9891	625
69.2522	0
69.5724	0
69.7773	0
69.9995	2
70.2920	0
70.7494	0
70.9791	3
71.6307	0
71.9908	1
72.2618	0
72.9812	229
73.2404	0
73.3943	0
73.5990	0
73.9529	7
74.9398	7
75.0737	1
75.3555	1
75.5493	0
75.9467	4
76.1461	0
76.3561	1
76.9526	114
77.2886	1
77.4912	1
77.7272	1
77.9569	24
78.2231	0
78.4239	1
78.6407	1
78.9690	126
79.3240	0
79.5589	0
79.9734	23
80.2665	0
80.3813	0
80.5863	0
80.9825	279
81.2533	1
81.4140	0
81.7531	0
81.9873	3
82.4520	1
82.9985	14
83.2026	0
83.4864	0
83.7365	0
83.8815	0
84.4641	0
84.9795	17
85.4765	0
85.9526	2
86.9491	3
87.4462	0
87.9703	2
88.0880	0
88.3844	0
88.5721	1
88.9615	13
89.1868	1
89.4103	1
89.6268	1
89.9671	4
90.0981	1
90.2847	1
90.5524	1
90.9685	266
91.2469	0
91.4049	0
91.6418	0
91.9764	30
92.2305	0
92.4016	0
92.5589	0
92.9841	211
93.2662	1
93.3623	0
93.4603	0
94.0038	7
94.1955	1
94.3008	1
94.6603	1
95.0072	102
95.2720	0
95.3709	0
95.4942	0
95.9908	1
96.1412	0
96.3938	0
96.9985	4
97.4274	0
97.9322	2
98.0844	0
98.6869	0
98.9851	5
99.6576	0
99.9471	0
100.3545	0
100.5365	1
100.6561	1
100.9437	3
101.1752	1
101.3568	0
101.5428	0
101.7320	1
101.9694	12
102.1265	0
102.2125	0
102.3976	1
102.5096	1
102.6093	1
102.9723	38
103.2215	0
103.4075	1
103.6215	0
103.9864	17
104.2037	0
104.3522	0
104.5659	0
104.9862	360
105.3141	1
105.4834	0
105.6608	1
105.9946	30
106.2352	0
106.5239	0
107.0048	130
107.2565	0
107.3562	0
107.4926	0
107.5992	0
107.7738	0
108.0077	6
108.2198	0
109.0104	38
109.2035	1
109.3311	0
109.6219	0
109.8239	1
109.9585	1
110.2289	0
110.4055	0
110.5759	0
111.0140	5
112.0361	1
112.3452	0
112.5632	0
112.9493	3
113.0474	1
113.3714	1
113.7239	1
113.9544	5
114.1232	2
114.2209	1
114.3677	1
114.5247	1
114.9554	116
115.2602	0
115.4395	0
115.6200	1
115.9611	38
116.1608	1
116.9582	123
117.3152	1
117.4241	0
117.5647	0
117.9663	28
118.1698	0
118.3162	0
118.4519	1
118.5363	1
118.6415	1
118.9765	284
119.3060	1
119.3980	0
119.5740	1
119.9799	33
120.2990	1
120.4930	1
120.9892	120
121.2470	1
121.4062	1
121.9611	4
122.1593	0
122.3556	0
122.4717	0
122.6388	1
123.0018	19
123.3293	0
123.5221	0
123.6543	1
123.7329	0
123.9757	1
124.1335	0
124.9444	4
125.1920	0
125.3789	1
125.4859	1
125.6427	0
125.9239	6
126.0950	0
126.3097	0
126.4853	1
126.9400	38
127.2499	2
127.5002	1
127.9368	131
128.3795	2
128.5575	1
128.9439	161
129.3459	2
129.4824	1
129.9471	72
130.1712	1
130.2646	1
130.9554	189
131.3178	1
131.9552	62
132.5641	1
132.9679	217
133.1908	1
133.3130	2
133.4300	1
133.6156	0
133.9785	15
134.1972	1
134.3421	0
134.5040	1
134.6464	0
134.9779	12
135.3831	0
135.4876	0
135.6323	0
135.7758	0
135.9647	1
136.0887	0
136.3232	1
136.4628	0
136.9930	19
137.2876	0
137.3519	0
137.5763	1
137.9491	2
138.2751	0
138.4164	0
138.4873	0
138.9386	16
139.1973	0
139.4090	0
139.9605	3
140.2175	2
140.9398	100
141.4321	1
141.9502	86
142.2534	1
142.4038	2
142.5064	0
142.9583	197
143.2063	2
143.3057	1
143.4261	1
143.9688	69
144.9757	273
145.2635	2
145.3684	1
145.9698	20
146.2461	0
146.9926	93
147.2244	1
147.5437	1
147.6561	0
147.9834	2
148.2930	0
148.3983	0
148.5739	0
148.7429	0
149.0067	3
149.1969	0
149.4404	1
149.6985	1
149.9435	2
150.1951	1
150.5410	1
150.9212	6
151.1850	1
151.3392	1
151.9573	34
152.2404	1
152.4437	2
152.5315	1
152.9606	50
153.2823	1
153.4785	1
153.9708	28
154.2392	0
154.3893	1
154.9812	117
155.3280	1
155.5007	1
155.9972	78
156.2588	0
156.3860	1
156.6118	1
157.0101	190
157.4535	1
157.5298	0
158.0198	34
158.3668	1
158.5300	2
159.0271	88
159.3265	1
159.4149	0
159.5862	0
160.0419	6
160.4233	0
161.0435	11
161.2776	1
161.5224	0
161.9662	1
162.4194	1
162.9973	6
163.2451	1
163.5062	1
164.0187	3
164.2253	2
165.0002	73
165.5019	1
166.0131	26
166.3008	1
166.4157	1
166.5786	1
167.0241	69
167.3401	1
168.0358	30
168.4042	2
169.0360	119
169.5353	2
170.0415	43
170.4145	1
170.5726	1
171.0405	90
171.3402	1
171.4417	1
171.6514	1
172.0442	14
172.5640	38
173.0485	29
173.3180	0
173.4657	0
173.6530	0
174.0295	4
174.3928	0
174.5347	1
174.8332	1
175.0688	6
175.4116	0
175.5415	0
175.6312	0
175.9902	5
176.3238	0
176.5034	0
177.0402	8
177.3231	2
177.6202	2
177.9937	31
178.2808	1
179.0055	56
179.2458	1
179.3559	0
179.5674	1
180.0153	23
180.4708	1
181.0198	81
181.4217	1
182.0241	32
182.3988	1
183.0298	113
183.4074	1
183.5959	1
184.0281	25
184.3217	1
185.0384	55
185.4178	1
185.5270	1
185.7015	1
186.0554	10
186.3932	0
186.5065	0
187.0474	26
187.3679	2
187.6223	0
188.0367	2
188.4552	2
188.6564	1
188.9900	12
189.3230	1
189.5168	0
189.9979	7
190.2426	1
190.3561	1
190.5812	2
190.9929	25
191.2701	0
191.3959	0
192.0000	21
192.2591	1
192.3782	1
192.6374	2
193.0096	53
193.6115	1
194.0097	30
194.3525	1
194.4778	1
195.0232	94
195.3967	0
196.0359	29
196.3133	2
196.4286	1
196.5602	0
197.0411	93
197.3281	1
197.5554	0
198.0481	21
198.4364	1
199.0564	45
199.5767	2
200.0298	5
200.2493	0
200.3383	0
200.5524	1
200.7428	1
201.0575	7
201.3227	0
201.6185	1
201.9939	12
202.3047	0
202.4245	0
202.6381	1
203.0144	17
203.5058	1
203.9967	8
204.3739	1
204.4829	0
205.0087	21
205.3364	0
206.0246	18
206.2966	1
207.0199	48
207.5055	1
207.6296	0
208.0389	23
208.3084	1
208.5431	1
209.0509	74
209.4229	1
210.0504	17
210.6104	2
211.0606	53
212.0145	11
212.4206	1
213.0585	14
213.6104	1
213.8006	1
214.0626	2
214.2925	0
214.5395	1
214.6442	0
215.0254	16
215.5846	1
216.0208	11
216.3700	0
216.6042	1
217.0235	16
218.0547	10
218.3268	1
218.6133	1
219.0452	25
219.3538	0
219.5047	1
219.6109	0
220.0691	12
220.4183	0
221.0626	37
221.3179	2
221.4236	1
222.0887	12
222.4430	0
223.0768	36
223.3660	0
223.5288	1
223.7315	1
224.0826	8
224.3911	1
224.5485	0
225.0997	15
225.4936	1
225.8490	0
226.1028	5
226.5333	1
226.8242	1
227.1097	5
227.4393	1
227.6388	1
227.8150	1
228.0717	5
228.2602	1
228.8185	1
229.0808	9
229.3960	1
229.7243	0
230.0752	6
230.3170	1
230.4462	1
230.6165	1
230.7203	1
231.0845	16
231.2982	1
231.4528	0
231.6665	0
232.0927	10
232.3333	1
232.4963	0
233.0773	25
233.4218	0
233.6736	1
234.0911	8
234.4482	0
234.7028	1
235.0943	27
235.5651	1
235.6752	1
236.0896	5
236.3127	1
236.4718	1
236.7045	0
237.1039	20
237.5075	0
237.7231	0
238.1406	4
238.4417	0
238.7125	1
239.0936	11
239.4603	0
239.6313	0
240.0449	3
240.3876	0
240.5262	1
240.6406	0
240.7682	1
241.1020	6
241.4613	1
241.6207	0
242.0505	4
242.3913	0
243.0655	10
243.3078	1
243.4873	1
244.0761	6
244.5947	1
245.0863	11
245.3371	1
246.0534	5
246.4099	0
246.5571	0
247.0816	17
247.4078	0
247.7790	0
248.1005	5
248.5174	0
248.6626	0
249.1093	23
249.3341	1
249.6169	0
250.0783	3
250.3357	0
250.5675	1
251.1086	10
251.3909	0
251.6422	1
252.1218	4
252.3164	1
252.4576	1
252.8772	1
253.1590	12
253.4852	0
253.8405	1
254.1161	1
254.3281	1
254.4154	0
254.5775	0
255.0858	4
255.6176	1
256.0776	2
256.2362	1
256.5223	0
256.8147	1
257.1085	5
257.3538	1
257.5936	0
257.8583	0
258.1384	3
258.3851	1
258.6063	0
259.1006	7
259.5693	1
260.1380	4
260.7123	1
261.1029	16
261.3777	0
261.4776	0
261.6073	0
261.8467	0
262.1229	6
262.4928	0
262.6073	0
262.7698	0
263.1300	16
263.4626	0
263.6382	0
264.1312	7
264.3839	1
264.5159	0
265.1403	11
265.3903	0
265.6668	1
265.9238	1
266.1601	3
266.4206	1
266.5811	0
267.1273	5
267.2628	2
267.4394	0
267.6375	0
267.7487	1
267.8446	0
268.1588	2
268.6190	0
268.8638	1
269.1343	5
269.6447	0
269.7887	1
270.0551	1
270.3215	0
270.6755	0
271.1354	5
271.6050	1
271.7581	0
272.1346	2
272.2856	0
273.1248	7
274.1430	3
274.4030	0
274.5456	1
274.7055	0
275.1296	8
275.5468	0
276.1339	3
276.7140	0
277.1453	9
277.4792	1
277.7680	0
278.1737	5
278.5321	1
278.9789	1
279.2114	4
279.5859	0
279.8219	0
280.0148	1
280.2062	2
280.4367	0
280.6115	0
280.8489	0
281.1575	3
281.7759	0
282.0943	0
282.2977	0
282.5025	0
282.8592	1
283.1616	3
283.8793	0
284.1330	1
284.5916	0
285.1284	3
285.4818	0
285.5892	0
285.9378	0
286.1372	1
287.1149	4
287.2642	2
287.4664	0
287.7496	0
287.9338	1
288.2107	2
288.5009	0
289.1408	5
289.2879	3
289.6893	0
290.1827	3
290.3688	0
290.6553	0
291.1642	5
291.5497	0
291.7917	1
291.8956	0
292.0225	0
292.2149	1
292.3370	0
292.7456	0
293.0888	2
293.2415	2
293.4375	1
293.6266	0
294.0535	0
294.2921	0
294.7595	0
294.9688	1
295.1384	1
295.2424	0
295.6087	0
295.8125	0
296.0526	1
296.2418	0
296.3123	0
296.6194	1
296.9593	0
297.1597	1
297.6588	0
298.0778	1
298.5505	0
298.7956	0
299.1308	2
299.3732	0
299.6176	0
299.7538	0
300.2163	1
300.4846	0
300.6277	0
300.7780	0
301.1455	7
301.4676	0
301.6555	0
302.1622	2
302.2747	1
302.5054	0
302.7640	0
303.1561	4
303.7664	0
303.9419	0
304.0992	1
304.2858	1
304.8138	0
305.1529	2
305.3487	1
306.0998	1
306.3817	0
306.5391	0
306.9644	0
307.2121	2
307.4380	1
307.5927	0
307.8411	0
308.1042	0
308.2427	1
308.9558	0
309.1056	2
309.2007	1
309.8720	0
310.1037	0
310.2493	1
310.3676	1
310.4593	0
311.1608	1
311.2630	1
311.3933	0
311.9135	0
312.1089	1
312.2259	1
313.1728	2
313.2687	1
313.3843	0
313.6281	0
314.1892	3
314.3966	0
314.9690	2
315.1960	3
316.0881	1
316.6481	0
317.1360	4
317.3883	1
317.7220	0
317.8847	0
318.1714	1
318.4365	0
318.5578	0
318.7303	0
318.8214	0
319.1026	3
319.2912	1
319.4203	0
319.5142	0
319.6889	0
320.0508	1
320.2955	0
321.1317	1
321.2783	1
321.4221	0
321.5568	1
322.1967	1
322.4212	0
322.5215	0
322.6036	0
322.8197	0
323.0043	0
323.2211	2
323.3805	1
323.7257	1
324.0198	1
324.1946	1
324.3251	0
325.1352	0
325.2897	0
325.4525	0
325.7699	0
325.9496	0
326.2178	1
326.3969	0
326.8702	0
327.1981	1
327.5535	0
327.7895	1
328.0121	1
328.1940	0
328.3521	1
328.7279	0
328.9330	1
329.2281	4
329.3665	2
329.6068	0
329.7866	0
329.9594	1
330.2546	2
330.5251	1
330.7275	1
330.9067	0
331.2335	5
331.4492	1
331.6720	1
331.8695	1
332.2233	10
332.6829	0
332.9587	0
333.1559	2
333.3117	2
333.5321	1
333.8086	0
334.2094	0
334.7625	0
335.3459	2
336.1189	1
336.2952	1
336.4707	0
336.6561	0
336.9061	0
337.0543	1
337.2748	2
338.4653	0
339.0750	0
339.2190	0
339.3532	1
339.7396	0
340.2293	1
340.3530	1
340.4970	0
340.9243	1
341.1491	2
341.2918	1
341.5687	0
342.1063	1
342.1956	0
342.3305	1
343.1775	2
343.3498	1
343.6872	0
344.1997	3
344.3980	1
344.4992	1
344.6666	1
344.8234	1
345.2199	13
345.7157	0
345.9668	1
346.2600	3
346.5442	0
346.9993	0
347.2504	1
347.5240	0
347.6724	0
347.8434	1
347.9566	1
348.2507	1
348.3246	1
348.5842	0
349.0703	1
349.2962	1
349.7008	1
350.1216	1
351.1083	1
351.2948	0
351.8241	0
352.2493	1
352.3901	1
352.6759	1
352.8160	0
353.0370	0
353.2834	0
354.2361	2
354.4396	1
354.7107	0
354.9692	0
355.3706	1
355.6903	0
355.9397	0
356.1475	0
356.4898	0
356.9603	1
357.2527	1
357.4781	0
357.6141	0
357.7867	0
358.0241	0
358.3038	1
358.6047	1
359.0027	0
359.1735	3
359.3436	3
359.7499	0
359.9130	0
360.0325	1
360.2681	3
360.7855	0
361.1715	1
361.3290	1
361.4612	0
361.8276	0
362.3212	0
362.7861	0
362.9331	1
363.0829	1
363.3382	1
363.5429	1
363.6582	1
363.7609	1
363.8721	0
364.1105	1
364.2948	1
364.4369	0
364.6951	0
365.0827	1
365.3092	2
365.4739	1
366.0846	0
366.3569	0
366.6918	0
367.1809	2
367.3737	1
367.5074	0
367.7678	0
368.3076	1
368.4238	0
368.5702	0
368.6729	1
368.7475	0
369.0206	0
369.3895	1
369.7274	1
370.1660	2
370.5609	2
370.8559	2
371.2431	5
371.6832	4
371.9543	3
372.1945	4
372.4008	2
372.5951	1
372.7275	1
372.8663	0
373.0311	1
373.2303	1
373.3873	1
373.6055	0
374.1849	1
374.3567	1
374.7672	0
375.0227	0
375.1227	0
375.4001	1
375.6445	1
375.9649	1
376.2282	1
376.4008	0
376.6585	0
377.2593	1
377.3572	0
377.5079	0
378.1812	2
378.4384	0
378.9821	0
379.1569	0
379.4654	0
379.5584	0
379.6690	0
379.8719	1
380.0100	1
380.2390	1
380.6617	0
380.7935	1
381.3678	0
382.7582	0
383.2614	0
383.3629	0
383.6540	0
383.8591	0
384.3505	1
384.4668	1
384.5930	0
384.7847	1
385.0589	1
385.2761	2
385.4424	1
385.5496	1
385.7992	0
386.0918	1
386.1651	0
386.3513	0
386.6016	0
386.7165	0
387.2665	2
387.7834	1
388.0655	1
388.1988	2
388.2877	1
388.4548	1
388.6897	1
388.8928	0
389.1220	1
389.3378	1
389.5417	0
389.6461	0
389.7857	0
389.9402	0
390.2407	1
390.4820	0
390.6104	0
391.1451	0
391.2664	1
391.3680	0
391.6249	0
392.1907	1
392.4892	0
392.8928	0
393.0770	1
393.1729	0
393.3882	0
393.6803	1
393.8285	0
393.9746	0
394.4743	0
395.2655	0
396.1167	0
396.2240	0
396.7323	0
396.9052	0
396.9970	0
397.2300	1
397.4926	1
397.6720	1
397.8428	0
398.1563	0
398.2912	0
398.5665	0
398.8920	0
399.2338	1
399.3757	1
399.4760	1
399.8927	0
400.2564	3
400.3680	2
400.6420	1
400.8546	1
401.2981	8
401.6096	0
402.3110	13
402.5703	2
402.8140	1
403.2696	3
403.4088	2
403.5861	1
403.6900	0
403.8327	0
403.9570	1
404.3824	1
404.6042	0
405.3696	1
405.4804	0
406.3723	0
407.2975	0
407.8056	1
407.9319	0
408.3427	0
408.4662	0
408.8015	1
409.2709	0
410.3467	0
410.6411	0
411.2468	1
411.3732	0
411.8406	0
411.9804	0
412.2911	2
412.5015	1
412.8765	0
413.1942	2
413.4223	1
413.7599	0
413.8743	0
414.0162	1
414.3446	2
414.6631	0
414.9662	0
415.2409	2
415.6725	0
416.2905	1
416.4586	0
416.7730	1
417.0435	0
417.3028	2
417.4830	1
417.6363	1
417.8256	0
418.3068	6
418.7441	0
418.9610	0
419.1426	1
419.2974	1
419.4712	1
419.8075	0
420.2103	1
420.3912	1
420.5714	1
420.8477	0
421.1064	0
421.4605	0
421.6414	1
421.9250	0
422.1909	0
422.3151	1
422.4709	0
422.7192	0
423.1360	1
423.2891	0
423.8802	0
424.0241	0
424.3500	0
424.4798	0
424.8029	0
425.2360	1
425.4279	1
425.7256	0
425.9986	0
426.1468	0
426.3126	1
426.5320	0
426.7952	0
426.9159	0
427.1995	2
427.4034	1
427.9891	0
428.2333	1
428.3800	1
428.7632	1
428.8952	0
429.0349	1
429.3010	1
429.3963	0
429.6172	0
429.9058	1
430.1486	1
430.4387	1
430.5940	1
430.7980	1
430.9991	1
431.1827	1
431.3789	3
431.6888	1
432.3135	14
433.3181	94
433.6457	4
433.8723	2
434.1837	1
434.4831	1
434.6660	1
434.7740	1
434.9957	0
435.2895	1
435.3799	1
435.4745	0
435.6044	0
435.7598	1
436.0684	1
436.2110	0
436.3431	0
436.5027	0
436.7244	0
436.9935	0
437.2562	1
437.4059	0
437.6355	1
438.0508	1
438.1228	0
438.2578	0
438.4301	1
438.5975	0
439.1576	0
439.2615	0
439.4487	1
439.6486	0
439.9163	0
440.1028	0
440.3762	0
440.8304	1
441.4133	1
441.5702	0
441.6804	0
441.9898	0
442.5912	0
443.1840	1
443.5097	1
443.7599	0
444.1592	0
444.2927	0
444.3917	0
444.9846	0
445.2327	0
445.5444	0
445.7797	1
445.9932	0
446.2865	3
446.4547	3
446.5714	0
446.7686	0
446.9530	1
447.3114	2
447.5666	0
447.8607	0
448.0424	0
448.3046	1
448.4481	0
448.6489	0
449.4315	1
449.8176	0
449.9936	0
450.4193	0
450.6045	0
451.0401	0
451.2996	1
451.3865	0
451.8752	0
452.0187	1
452.2988	1
452.4635	1
452.5555	0
452.9077	1
453.0187	0
453.1007	0
453.2931	1
453.4352	0
453.7959	0
453.9522	1
454.0916	1
454.2514	0
454.4396	1
454.9623	0
455.3428	2
455.5699	1
455.7573	0
455.8818	0
456.0254	1
456.2758	1
456.6456	1
456.7974	0
457.0474	0
457.3037	0
457.5649	1
457.9547	1
458.2040	0
458.5387	1
458.8622	0
458.9900	0
459.3353	1
459.6510	0
459.9511	1
460.0881	1
460.2831	1
460.4829	1
460.9675	0
461.3560	0
461.4859	0
461.9620	1
462.1570	0
462.4515	0
462.9177	0
463.1113	1
463.2462	0
463.4398	1
463.8311	1
464.3928	3
464.8004	0
464.9764	0
465.1643	1
465.5621	1
466.2008	0
466.3669	0
466.5782	0
466.9428	1
467.2898	2
467.5131	1
467.6975	1
467.8388	0
468.1201	0
468.3286	1
468.5173	0
468.6763	0
468.7993	1
469.3731	28
469.9789	0
470.1732	0
470.3520	1
470.5280	1
470.6312	1
470.7408	0
470.9458	1
471.1260	1
471.3324	1
471.6378	1
471.9206	1
472.1496	2
472.3475	2
472.5179	1
472.8403	1
473.0545	0
473.2192	1
473.5041	0
473.8406	0
474.0174	1
474.1666	0
474.5328	1
474.7852	1
474.9323	0
475.0786	1
475.2787	1
475.5962	0
475.8699	1
476.2708	5
476.5027	6
476.8924	0
477.0119	1
477.1385	1
477.3294	1
477.4242	1
477.6582	0
477.8739	1
478.4079	35
478.9235	1
479.0883	0
479.2990	0
479.4051	1
479.5282	1
479.6251	1
479.7673	0
479.8988	1
479.9752	0
480.1315	0
480.2596	0
480.4449	0
480.6677	0
480.8389	0
481.3093	3
481.5632	2
481.6439	1
481.8377	0
482.3499	7
482.7736	0
483.3686	4
483.5412	1
483.6841	1
484.0626	0
484.3552	1
484.4641	0
484.6189	1
485.1751	1
485.2776	0
485.5865	1
485.9950	0
486.3287	2
486.6439	1
486.9705	0
487.1041	1
487.3091	1
487.4625	1
487.7644	0
488.1970	0
488.4183	0
488.5484	0
489.0199	0
489.3798	1
489.4781	1
489.6393	0
490.1759	0
490.3725	1
490.5061	0
490.6058	0
491.0605	0
491.4140	11
491.5851	5
491.7881	1
491.9111	0
491.9981	0
492.2138	1
493.2654	1
493.3877	0
494.3078	0
494.4655	0
494.7357	0
495.0709	1
495.2881	1
495.6629	0
496.3370	4
496.7048	0
496.9878	1
497.4179	3
497.6223	1
497.8621	0
498.1635	0
498.2703	0
498.5476	1
498.7733	1
499.3060	0
499.4886	1
499.6768	1
499.8515	1
500.3694	10
500.7147	1
500.8265	0
501.2871	3
501.4527	1
501.9041	0
502.0244	0
502.3817	2
502.6443	0
502.7568	0
502.9337	0
504.3377	0
506.0151	0
507.5921	1
507.8115	0
507.9042	0
508.2228	1
508.4337	0
508.8188	1
508.9979	0
509.1395	1
509.3413	0
509.4779	0
509.7384	1
509.9204	1
510.6305	0
510.9434	0
511.2281	0
511.3369	0
511.8688	0
512.2001	0
512.3549	0
512.5081	0
512.6339	1
512.7589	0
513.2881	0
514.0928	1
514.2602	1
514.4467	2
514.6368	0
515.0840	0
515.4762	2
516.2937	1
516.5156	1
516.7849	0
517.0286	0
517.4441	1
517.5593	0
518.0554	0
518.3890	0
518.9600	0
519.3720	1
519.4667	1
519.9671	0
520.0688	0
520.5820	0
520.8131	1
520.9651	1
521.9857	1
522.3455	0
522.6318	1
522.8177	0
523.1789	1
523.3740	2
523.5627	2
523.8095	0
524.0442	0
524.3970	1
524.5807	2
524.6635	0
524.9215	1
525.1703	1
525.4016	1
525.7310	1
525.9254	0
526.2379	1
526.3468	0
526.6056	1
526.8283	0
527.0206	1
527.1988	1
527.4625	1
527.6605	1
527.8599	1
528.0303	1
528.1923	0
528.4397	1
528.6299	1
528.8145	1
529.0005	1
529.1851	1
529.3066	1
529.4326	0
529.5916	1
529.7698	0
529.9092	1
530.0845	0
530.2394	0
530.4572	1
530.7054	2
530.8851	1
531.0463	0
531.2408	1
531.3348	1
531.4926	1
531.6234	1
531.8610	1
531.9820	1
532.2486	2
532.3660	1
532.5160	1
532.7444	1
532.9361	1
533.1356	2
533.4177	0
533.6710	1
533.9836	1
534.2382	1
534.4016	1
534.5021	1
534.6245	1
534.8062	0
534.8982	0
535.1840	1
535.2858	1
535.4563	1
535.6537	1
535.8567	0
535.9444	0
536.2740	1
536.4092	1
536.6426	1
536.7410	1
536.9532	1
537.1258	1
537.3890	3
537.7307	1
538.4551	22
538.8959	1
539.4372	8
539.8716	1
540.4172	28
540.8806	1
541.0787	1
541.3200	0
541.3979	0
541.5804	1
541.8033	1
542.1083	1
542.3036	1
542.6022	0
542.9058	0
543.3495	0
543.6581	0
543.9136	0
544.0969	0
544.2051	1
545.0303	0
545.1946	1
545.3942	0
545.7820	0
545.8973	0
546.0347	0
546.5096	1
547.2585	0
547.6082	0
547.7709	1
547.9904	0
548.1921	0
548.3974	0
548.5920	1
548.9792	0
549.0784	0
549.2525	1
549.5789	2
549.7877	1
549.9703	1
550.1516	1
550.3880	1
550.6663	2
550.9303	1
551.2623	2
551.9165	2
552.4235	3
552.8051	2
553.2745	2
553.7432	3
554.4109	10
554.6581	3
555.4391	11
555.6417	8
555.9164	3
556.0591	3
556.5252	4
557.0365	4
557.3042	2
557.8028	3
558.2266	4
558.4434	4
558.7972	3
559.8157	5
560.5045	4
560.9353	4
561.3358	4
561.5287	4
561.9313	6
562.1482	5
562.8878	5
563.4177	7
564.2322	8
570.4473	999
571.1774	249
571.8212	126
572.4919	64
573.2248	34
573.7393	24
574.1415	14
574.9784	8
575.5099	5
575.9778	3
576.1687	3
576.3914	3
576.7562	2
576.9633	2
577.1640	1
577.4277	2
577.7415	1
578.0198	1
578.2036	1
578.4840	1
578.7589	2
579.0740	1
579.3679	1
579.5976	2
579.8434	1
579.9678	0
580.1656	0
580.3176	0
580.5670	1
580.8094	1
580.9401	0
581.1493	0
581.3337	1
581.5945	1
