Mass spectrum: Loroxanthin; FAB-EBEB; MS2; m/z: 584.42; [M]+*
Name: Loroxanthin
Formula: C40H56O3
Exact mass: 584.42295
SMILES: C(=CC(C)=CC=CC=C(C=CC=C(C)C=CC(C2(C)C)C(C)=CC(O)C2)C)C=C(C=CC(=C(C)1)C(C)(C)CC(O)C1)CO
InChI: InChI=1S/C40H56O3/c1-29(16-12-17-31(3)20-22-37-32(4)24-35(42)26-39(37,6)7)14-10-11-15-30(2)18-13-19-34(28-41)21-23-38-33(5)25-36(43)27-40(38,8)9/h10-24,35-37,41-43H,25-28H2,1-9H3/b11-10+,16-12+,18-13+,22-20+,23-21+,29-14+,30-15+,31-17+,34-19-/t35-,36+,37-/m0/s1
Instrument: JMS-HX/HX 110A, JEOL
Instrument type: FAB-EBEB
Ms type: MS2
Ion mode: POSITIVE
Collision energy: 3 kV
Ionization: FAB
Base peak: 105.0842
Precursor m/z: 584.42
Precursor type: [M]+*
m/z	relative intensity
10.6664	0
12.8774	0
14.0209	1
15.0251	2
19.0119	0
22.9894	1
23.9943	0
25.0027	1
26.0157	5
27.0248	42
28.0309	3
29.0350	49
30.0293	1
31.0158	13
35.9853	0
37.0206	3
37.4577	0
38.0114	14
38.3884	0
39.0270	113
40.0319	14
41.0425	224
41.6335	1
42.0414	6
42.6434	0
43.0357	194
44.0329	3
45.0361	8
46.6999	0
46.9873	0
47.9947	0
48.2455	0
49.0120	3
49.4353	0
50.0195	31
50.6057	0
51.0248	76
52.0326	22
52.6433	0
53.0414	130
54.0498	7
54.5662	0
55.0529	330
56.0565	7
57.0640	112
57.5630	0
58.0499	1
58.5209	0
59.0538	45
60.0648	0
61.0082	3
62.0251	17
62.5584	0
63.0360	58
64.0351	13
64.5231	1
65.0421	111
66.0543	21
66.5601	0
67.0594	181
68.0532	12
68.4719	0
69.0608	238
69.5736	0
70.0645	5
71.0515	89
72.0418	1
73.0189	2
73.2114	1
73.4913	0
74.0146	14
75.0356	23
76.0326	14
77.0419	346
78.0453	65
79.0543	372
80.0571	61
81.0680	426
82.0516	36
83.0643	113
84.0665	7
85.0661	96
86.0203	7
87.0383	17
88.0456	6
89.0688	37
90.0878	19
91.0660	803
92.0682	84
93.0822	563
94.0862	35
95.0796	471
96.0804	21
97.0805	88
98.0513	4
98.4306	0
99.0556	7
100.1127	1
101.0661	13
102.0612	38
103.0693	146
103.5339	3
104.0765	68
105.0842	999
106.0952	96
107.0941	411
108.0832	50
109.0987	248
110.0698	21
111.0789	51
112.1121	2
113.0544	14
114.0937	16
115.0531	402
116.0604	154
117.0650	449
118.0697	88
119.0760	811
120.0823	100
121.0829	477
122.0651	40
122.3738	2
123.0742	416
124.0662	12
125.0695	33
126.0056	23
127.0458	153
128.0445	488
129.0488	580
130.0586	235
131.0625	678
132.0676	129
133.0711	458
134.0599	51
135.0657	254
136.0293	19
137.0657	90
138.0728	64
139.0461	76
140.0452	25
141.0410	393
142.0540	369
143.0621	692
144.0670	210
145.0728	763
146.0739	85
147.0773	309
148.0730	33
149.0814	97
150.0732	19
151.0747	65
152.0609	157
153.0628	238
154.0700	117
155.0767	454
156.0872	253
157.0942	564
158.0991	125
159.1063	356
160.1026	51
161.1086	161
162.1020	13
163.0977	57
164.0839	25
165.0752	347
166.0942	126
167.1020	320
168.1136	131
169.1197	412
170.1265	132
171.1267	298
172.1216	64
173.1307	185
174.1106	23
175.1316	82
176.1025	32
177.1114	42
178.0806	178
179.0893	294
180.0988	142
181.0984	348
182.1048	134
183.1072	339
184.1088	75
185.1140	160
186.1108	35
187.1128	99
188.1018	16
189.0975	106
190.0801	42
191.0875	167
192.0894	126
193.0859	272
194.0860	121
195.1018	348
196.0984	82
197.1124	256
198.1071	45
199.1130	112
200.0982	31
201.1067	61
202.0702	88
203.0797	117
204.0807	51
205.0806	125
206.0963	97
207.1019	218
208.1079	83
209.1129	214
210.1215	51
211.1199	131
212.1279	25
213.1226	62
214.1408	16
215.1013	96
216.1111	46
217.1138	100
218.1155	54
219.1252	134
220.1323	56
221.1353	148
222.1479	53
223.1548	132
224.1452	29
225.1591	72
226.1258	32
227.1421	42
228.1388	36
229.1313	82
230.1472	38
231.1440	93
232.1416	46
233.1581	136
234.1626	38
235.1553	106
236.1560	24
237.1771	79
238.1724	19
239.1496	52
240.1487	16
241.1420	50
242.1526	31
243.1374	55
244.1333	33
245.1527	77
246.1756	39
247.1695	87
248.1900	25
249.1845	67
250.1949	20
251.1638	46
252.1454	23
253.1661	49
254.1623	21
255.1696	47
256.1463	18
257.1664	51
258.1571	23
259.1761	52
260.1891	22
261.1870	57
262.1835	17
263.1913	44
264.2025	15
265.1875	43
266.1775	15
267.1849	42
268.1926	14
269.1927	52
270.1792	18
271.1893	38
272.1639	18
273.2119	44
274.2229	16
275.2271	38
276.2210	13
277.2106	29
278.1880	10
279.2311	28
280.2215	13
281.2261	35
282.2170	18
283.2238	32
284.2027	13
284.7032	3
285.2271	30
286.1987	12
287.2314	26
288.2113	8
288.6061	2
289.2227	25
290.2187	7
291.2179	19
292.2362	7
293.2158	15
294.1987	7
295.1990	20
296.1527	9
297.1956	23
298.2622	10
298.6574	2
299.2041	21
300.2243	8
300.6337	2
301.2197	18
301.6011	3
302.1779	9
303.2191	18
304.2308	4
305.2208	15
306.2126	8
307.1859	18
308.1531	7
308.5742	1
309.1815	12
309.7436	1
310.2400	10
310.6064	2
311.2015	16
312.1867	7
313.1941	14
314.1547	5
314.5841	1
315.2173	17
316.1845	7
317.2052	12
318.2685	9
319.2049	14
319.6238	2
320.2090	8
320.6844	2
321.2462	15
322.2114	5
323.2176	11
324.1957	6
325.2290	15
326.2421	4
326.6898	1
327.2113	12
328.1965	5
328.6255	2
329.2353	12
330.2318	3
330.5163	2
331.2222	12
332.2411	6
333.2554	18
334.2274	8
335.2901	19
336.2605	6
337.2232	13
338.2945	7
339.2418	8
340.2333	2
341.2140	8
342.2105	4
343.2355	6
344.2371	3
344.6821	1
345.2467	11
346.2202	6
347.2884	17
348.2607	7
348.6462	2
349.2332	12
350.2468	5
351.2353	7
352.1846	4
352.6837	1
353.2790	9
353.7798	0
354.2711	5
355.2193	6
356.2354	4
356.6135	1
357.2122	7
357.7937	1
358.2838	5
359.3050	11
360.2997	4
361.2440	7
362.2247	7
363.2837	14
363.7833	1
364.3507	5
365.2492	6
365.7017	1
366.2456	3
367.2800	6
368.2199	2
369.2482	5
369.7545	1
370.2751	2
370.6932	2
371.2706	6
372.3673	3
372.6703	2
373.2968	8
374.2896	4
374.5200	1
374.7694	0
375.2903	3
376.2975	3
376.8450	1
377.3211	6
378.2940	6
379.2134	4
379.4894	2
380.1913	2
380.5635	1
381.3144	4
381.8587	1
382.2925	2
383.3434	6
384.3296	2
385.3176	6
386.2962	6
387.0966	6
388.1922	4
388.6091	1
389.2422	3
390.2703	3
390.7299	0
391.2685	6
391.8181	1
392.2826	3
392.7644	1
393.2810	3
393.5353	1
394.3285	1
395.3240	6
396.3417	1
397.3185	7
398.3349	2
399.3640	6
399.6976	1
400.3506	3
400.6985	1
401.3389	5
402.2704	2
402.8461	2
403.3253	3
403.6828	1
404.4167	2
405.2615	2
405.4941	1
406.3690	1
407.2630	2
408.3344	1
409.4043	3
410.4070	4
411.3593	4
412.3385	3
413.3383	16
413.8106	1
414.3209	4
414.6969	1
415.2767	6
415.7238	1
416.3085	3
417.3056	4
418.3202	4
418.7864	2
419.3396	8
419.8391	1
420.3149	3
420.6310	1
420.9314	1
421.3851	1
421.9416	0
422.3495	1
423.1765	1
423.9229	1
424.3055	1
425.2639	2
426.2723	2
427.3625	9
428.3549	21
429.3489	13
430.3003	4
431.3182	12
432.2698	4
432.8105	1
433.6579	2
434.3662	3
434.7078	1
435.2549	2
436.2290	2
436.8252	2
437.2934	3
437.7599	2
438.7375	1
439.2436	4
440.1089	2
440.6737	1
441.3873	3
442.5028	2
444.2356	31
445.3498	12
446.3390	67
447.3078	4
447.9584	1
448.3289	1
448.7737	2
449.2772	4
449.6968	1
450.3301	1
451.2644	6
452.2067	3
452.8148	2
453.3992	3
453.8348	1
454.3734	3
457.0110	11
458.3371	6
459.2990	6
459.9217	1
460.4399	2
460.7426	1
461.4201	5
462.3870	5
463.2258	3
463.8288	1
464.2324	1
464.5046	1
464.9573	2
465.4306	3
466.2268	2
466.7888	2
467.4046	3
468.2343	3
468.9072	2
469.4043	3
470.2784	3
473.3936	7
474.4263	8
475.5035	5
476.3304	8
476.7503	3
477.3523	5
478.2602	3
478.8449	2
479.3741	4
480.3297	2
481.2742	1
482.1998	1
482.7640	1
483.3394	3
483.6279	1
484.3253	4
485.0466	1
485.6316	1
486.4100	2
486.7509	0
487.4200	3
487.9686	1
488.3777	2
489.2981	3
489.8633	1
490.5473	3
492.4001	193
492.9749	5
494.1247	2
494.5476	2
494.9737	1
495.4742	3
496.3993	3
496.7652	2
497.4099	3
498.4270	3
499.1273	2
499.6406	1
500.4012	25
501.3614	1
501.9636	1
502.5879	1
503.3708	2
504.4390	3
504.7116	1
505.4106	6
505.9764	2
507.4126	1
508.3859	3
508.7426	1
509.4608	4
510.4121	6
510.8592	1
511.3777	2
512.2213	5
512.4496	3
513.4027	2
514.4177	2
514.6523	1
515.3296	2
515.7519	1
516.6789	2
517.3307	2
517.8970	1
518.6011	2
519.4998	4
520.8795	3
521.2845	4
522.2514	2
523.2468	3
524.2708	3
524.7345	2
525.2853	4
525.6129	2
526.3901	5
526.7462	3
527.4586	4
528.3799	24
529.3265	2
530.3667	2
531.1203	1
531.4576	1
531.9167	1
532.7100	2
533.3988	6
533.7567	3
534.5897	3
535.4227	6
536.4014	4
537.3707	4
538.3480	7
539.4124	3
540.5339	6
541.4227	11
542.0690	4
543.5472	6
544.6215	6
545.4819	8
548.0997	29
551.3488	53
553.2145	58
554.4320	14
555.4942	5
556.4138	3
556.8481	2
565.4686	81
566.4647	728
567.4561	48
568.4254	24
569.4423	42
570.6509	13
584.3922	999
587.7766	73
588.9702	28
590.2969	17
591.3181	10
592.3837	7
