Mass spectrum: Capsanthin-3,6-epoxide; FAB-EBEB; MS2; m/z: 600.42; [M]+*
Name: Capsanthin-3,6-epoxide
Formula: C40H56O4
Exact mass: 600.41786
SMILES: CC(C)(C1)C(C(C=CC(=CC=CC(=CC=CC=C(C=CC=C(C)C=CC(C(C)(O)2)(C(C)(C)3)OC(C3)C2)C)C)C)=O)(C)CC1O
InChI: InChI=1S/C40H56O4/c1-29(17-13-19-31(3)21-22-35(42)38(9)26-33(41)25-36(38,5)6)15-11-12-16-30(2)18-14-20-32(4)23-24-40-37(7,8)27-34(44-40)28-39(40,10)43/h11-24,33-34,41,43H,25-28H2,1-10H3/b12-11+,17-13+,18-14+,22-21+,24-23+,29-15+,30-16+,31-19+,32-20+/t33-,34-,38-,39+,40+/m0/s1
Instrument: JMS-HX/HX 110A, JEOL
Instrument type: FAB-EBEB
Ms type: MS2
Ion mode: POSITIVE
Collision energy: 3 kV
Ionization: FAB
Base peak: 109.0711
Precursor m/z: 600.42
Precursor type: [M]+*
m/z	relative intensity
27.0507	47
29.0548	33
38.0535	9
39.0474	77
40.0563	11
41.0567	158
42.0460	10
43.0307	642
50.0402	12
51.0230	26
52.0410	11
53.0258	52
55.0295	245
56.0375	10
57.0423	54
59.0156	15
63.0101	22
65.0255	41
66.0256	12
67.0210	108
68.0252	15
69.0129	236
70.0005	31
71.0121	116
75.0152	13
76.0039	9
77.0179	150
78.0128	43
79.0252	170
80.0209	45
81.0249	208
82.0065	36
83.0401	816
84.0299	12
85.0412	136
87.0045	26
89.0413	26
91.0422	355
92.0333	41
93.0444	254
94.0511	21
95.0379	255
96.0300	23
97.0395	118
98.0290	21
99.0192	41
102.0561	24
103.0641	76
104.0294	33
105.0496	502
106.0493	60
107.0607	233
108.0512	53
109.0711	999
110.0434	23
111.0456	104
113.0665	87
115.0486	214
116.0349	87
117.0455	210
118.0377	43
119.0414	439
120.0294	59
121.0346	266
122.0198	41
123.0265	130
125.0354	258
126.0131	28
127.0441	150
128.0302	245
129.0278	303
130.0251	118
131.0325	319
132.0280	99
133.0422	282
134.0227	32
135.0277	159
136.0105	42
137.0341	44
138.0216	10
139.0528	144
140.0280	19
141.0365	192
142.0343	203
143.0348	399
144.0348	145
145.0476	555
146.0335	60
147.0381	173
148.0363	20
149.0414	64
150.0654	22
151.0740	56
152.0538	89
153.0629	145
154.0684	71
155.0719	277
156.0718	157
157.0741	381
158.0653	101
159.0679	521
160.0654	248
161.0742	139
162.0614	22
163.1079	54
164.1013	17
165.0879	240
166.1055	82
167.1012	146
168.1023	74
169.1072	233
170.1143	86
171.1194	199
172.1079	68
173.1047	150
174.1082	26
175.1156	63
176.1327	17
177.1006	37
178.1086	98
179.0945	193
180.1023	85
181.0972	371
182.1094	80
183.0965	256
184.0903	70
185.1030	159
186.0890	35
187.0862	73
188.0932	22
189.0887	67
190.1092	29
191.0738	88
192.0894	70
193.0873	136
194.0980	86
195.0955	228
196.0997	73
197.1030	245
198.0900	53
199.1005	111
200.1024	27
201.0926	47
202.0879	46
203.0884	72
204.1047	33
205.0955	83
206.0945	63
207.0862	137
208.1093	93
209.1021	182
210.0985	63
211.1062	125
212.0943	32
213.0984	57
214.1199	17
215.0924	63
216.1165	30
217.1023	55
218.1056	30
219.1233	74
220.1353	46
221.1292	468
222.1173	46
223.1260	121
224.1289	31
225.1416	74
226.1128	26
227.1528	53
228.1855	25
229.1532	61
230.1463	15
231.1460	59
232.1445	48
233.1534	152
234.1617	52
235.1532	94
236.1405	26
237.0954	67
238.1520	21
239.1435	46
240.1307	12
241.1729	31
242.1437	16
243.1445	35
244.1442	23
245.1582	83
246.1570	167
247.1874	118
248.1588	26
249.1837	59
250.1776	19
251.2016	54
252.1712	19
253.1740	29
255.1853	26
256.1420	12
257.1806	34
258.1741	22
259.1754	44
260.1852	27
261.1874	54
262.1491	19
263.2054	53
264.2022	14
265.2136	35
266.1451	10
267.1743	20
268.2085	12
269.1880	21
270.2245	12
271.1920	62
272.1960	33
273.2081	90
274.1843	38
275.1829	47
276.2211	20
277.2407	34
279.2046	17
280.2240	11
281.1695	12
283.2127	23
284.2253	22
285.1892	96
286.1912	368
287.2124	71
288.2529	9
289.2036	33
290.2572	11
291.2036	23
293.1793	10
295.2172	23
296.1507	11
297.2234	37
298.2221	57
299.2116	133
300.2250	32
301.2086	27
303.2081	18
305.2386	22
307.2558	15
309.2516	26
310.1533	22
311.1929	81
312.1646	55
313.2396	33
315.2444	13
317.2341	17
319.2246	15
321.7496	11
323.1985	19
324.2139	18
325.1771	35
326.2517	12
327.1691	12
329.3178	12
331.2637	10
333.2851	10
335.2674	9
337.2679	22
338.2858	12
339.2737	15
345.2854	9
347.2206	12
349.3046	26
351.2379	31
352.2868	23
353.2515	45
354.2498	12
355.3535	9
362.6152	26
364.2506	27
365.2665	66
366.2867	22
367.3078	12
371.3505	11
375.3604	13
376.2678	15
377.2807	33
378.2842	26
379.2878	70
380.2884	109
387.3090	11
388.2917	9
389.2776	26
390.2734	29
391.2740	45
392.2556	37
393.2484	9
399.4099	9
401.3351	9
403.3776	10
415.2762	12
417.3261	30
418.3073	24
419.3189	35
429.3611	15
430.2792	29
431.2940	47
432.2930	89
433.2696	39
442.3566	14
443.2797	12
444.2910	25
445.2800	156
446.3877	15
447.2117	12
454.2793	23
456.3666	10
457.2523	19
458.2938	12
472.3118	19
473.2966	203
474.2911	39
478.8781	9
480.2759	10
485.3419	9
487.4436	11
493.3219	19
494.3173	33
499.3339	13
500.2947	16
501.3952	14
505.3198	13
506.3485	63
507.2649	18
508.3290	44
514.3458	29
515.3510	19
516.3579	26
519.2969	16
520.3394	194
526.3511	14
527.4432	11
539.4057	15
541.3203	13
542.3619	28
543.3105	28
546.3525	9
556.3761	23
557.3511	123
571.3701	24
577.6267	32
582.4031	798
583.3633	43
584.3172	50
585.3787	248
600.3276	999
603.5496	247
