Mass spectrum: Liliaxanthin; FAB-EBEB; MS2; m/z: 600.42; [M]*+
Name: Liliaxanthin
Class: Natural Product; Carotenoid
Formula: C40H56O4
Exact mass: 600.41786
SMILES: C(O)(C2O)C(=C(C(C2)(C)C)C=CC(C)=CC=CC(C)=CC=CC=C(C=CC=C(C=CC(=O)C(C(C)(C)1)(C)CC(C1)O)C)C)C
InChI: InChI=1S/C40H56O4/c1-28(17-13-19-30(3)21-23-34-32(5)37(44)35(42)27-38(34,6)7)15-11-12-16-29(2)18-14-20-31(4)22-24-36(43)40(10)26-33(41)25-39(40,8)9/h11-24,33,35,37,41-42,44H,25-27H2,1-10H3/b12-11+,17-13+,18-14+,23-21+,24-22+,28-15+,29-16+,30-19+,31-20+/t33-,35-,37+,40-/m0/s1
Instrument: JMS-HX/HX 110A, JEOL
Instrument type: FAB-EBEB
Ms type: MS2
Ion mode: POSITIVE
Collision energy: 3 kV
Ionization: FAB
Base peak: 600.3825
Precursor m/z: 600.42
Precursor type: [M]+*
m/z	relative intensity
0.1796	0
0.5438	0
1.0473	0
1.1242	0
2.0948	0
3.5412	0
4.9504	0
10.4705	0
12.7548	0
12.9828	0
13.9997	0
14.9828	2
16.3335	0
18.9979	0
22.9546	5
24.9559	0
25.9826	5
26.9893	9
27.9964	1
28.9916	14
29.9813	1
30.1334	0
30.9736	3
35.9625	0
36.9627	2
37.9664	4
38.9840	33
39.9790	5
41.0018	80
41.9911	2
42.9930	94
43.9469	2
44.0172	1
44.9843	5
45.9579	1
46.9267	2
46.9851	1
48.9473	1
49.0273	0
49.2100	0
49.9907	7
50.9702	13
51.6220	1
51.9869	7
52.9993	34
53.9689	3
54.9962	120
55.9751	4
57.0055	39
57.3360	0
58.0016	1
58.9992	9
59.9621	2
60.9912	3
61.9763	5
62.9815	19
63.9729	6
64.3066	1
64.4236	0
64.6453	1
64.9940	23
65.2548	1
65.4687	1
65.5346	0
65.9995	4
67.0015	43
67.9823	4
68.9967	78
69.2471	0
70.0027	4
70.9864	32
72.0219	2
72.9694	3
73.9744	5
74.9570	4
75.4256	0
75.5563	1
75.7241	1
75.9881	4
76.1096	0
76.5935	1
76.9741	65
77.1628	1
77.3398	1
77.9875	17
78.1139	1
78.1976	1
78.3158	0
78.4268	1
78.5730	0
78.9922	70
79.4149	0
79.9951	11
80.7372	1
81.0094	78
81.2279	0
81.3052	0
81.4706	0
81.9960	6
82.2536	1
82.4832	0
83.0317	231
83.4697	0
83.8297	1
84.0252	4
85.0407	57
85.4761	0
85.9946	4
86.9977	9
87.9327	3
88.0651	0
88.2365	0
88.5961	1
88.7110	1
88.9775	15
89.2013	0
89.4161	1
89.6408	1
89.9986	7
90.1464	1
90.3432	0
90.4604	0
90.6697	0
91.0032	131
91.2232	1
91.2896	0
91.7701	1
92.0244	16
92.5168	0
92.6950	0
93.0264	113
94.0190	12
94.3117	0
94.5316	1
94.6629	0
95.0353	77
95.3117	1
95.4958	1
96.0146	4
96.2381	0
97.0264	23
97.3669	1
97.5369	1
97.9656	4
98.0573	2
98.4659	1
98.9867	13
99.8940	1
100.0192	1
100.4558	1
100.5379	0
100.7874	1
100.9824	1
101.2447	1
101.3671	1
101.5655	1
101.9884	5
102.2386	2
102.4191	0
102.7539	1
103.0177	26
103.3094	1
103.4877	1
103.6233	0
104.0301	18
104.3628	0
104.4373	0
104.6495	1
105.0331	197
105.3784	1
105.5594	1
105.6455	0
106.0355	22
106.2154	1
107.0441	86
107.3348	0
107.4510	1
108.0449	16
108.3525	0
108.5588	1
109.0661	309
109.3565	1
109.6725	1
110.0383	14
110.3471	1
110.4687	0
111.0415	17
112.0540	3
112.2839	1
112.5650	1
112.8009	1
113.0177	5
113.2441	1
113.4386	1
113.7011	1
113.8138	0
113.9867	3
114.2103	1
114.3949	1
114.6661	1
115.0105	67
115.3334	1
115.5529	0
115.6692	1
116.0084	36
116.4372	1
116.7099	2
117.0155	88
117.3548	1
118.0068	13
119.0325	171
119.2385	2
119.5311	1
120.0262	22
120.3987	0
120.5184	1
121.0219	98
121.2726	1
121.4138	0
121.5239	1
122.0237	18
122.3921	1
122.5809	1
123.0217	36
124.0126	10
125.0192	74
125.2999	1
125.4347	1
125.9685	8
126.3383	1
126.4355	0
126.6090	1
127.0144	58
127.3252	3
127.6433	1
127.9871	88
128.2709	2
128.4056	1
128.5208	0
129.0024	104
129.3749	1
130.0104	44
130.2812	1
130.5087	0
131.0040	98
131.3316	0
131.6678	2
132.0173	23
133.0265	91
133.2719	1
133.6274	1
133.8085	1
134.0126	14
134.4831	1
135.0058	44
135.3277	1
135.5303	0
135.9659	13
136.0881	6
136.2558	1
136.4526	1
137.0051	29
137.1777	1
137.3141	0
137.9960	10
138.7361	1
138.9866	22
139.2274	1
139.4947	0
139.6247	2
139.7428	1
140.0063	10
140.2393	2
140.3941	1
140.4970	2
140.9952	80
141.4771	0
142.0052	78
142.4790	1
142.6460	0
143.0083	108
143.3659	2
143.4845	0
144.0097	43
144.2617	1
144.4885	1
144.6292	0
145.0176	154
145.3780	2
145.4668	1
145.6618	1
146.0278	16
146.2904	0
146.4207	1
146.5564	1
147.0231	70
147.3455	1
147.5181	0
148.0287	11
148.3005	0
148.5523	1
148.7539	1
149.0400	26
150.0222	7
150.4086	1
150.7126	1
151.0113	15
151.2866	1
151.4511	2
152.0034	33
152.3629	2
152.4792	1
152.6097	1
152.9937	38
153.2520	1
153.3771	0
153.6167	1
154.0145	26
154.2711	1
154.5580	1
155.0296	81
155.2493	1
155.3673	0
155.4725	1
155.5992	1
155.7374	2
156.0268	42
156.2501	2
156.4201	1
156.5517	1
157.0552	114
157.3401	1
157.5482	1
157.7278	2
158.0461	25
158.2765	2
158.4103	1
158.5090	1
159.0499	142
159.3015	1
159.5526	1
160.0648	20
160.2531	2
160.3803	1
161.0549	41
161.3239	1
161.5042	1
161.7617	0
162.0817	10
162.3991	1
162.7328	1
163.0714	19
163.2710	1
164.0117	6
164.2868	1
164.5028	1
164.6727	1
165.0465	68
165.2932	1
165.5761	0
166.0427	28
166.3243	0
166.5108	2
166.6789	1
167.0540	50
167.6641	1
168.0797	20
168.4886	1
169.0660	61
169.3824	1
169.7576	2
170.0940	22
170.6062	2
171.0926	65
171.4921	2
171.6746	0
172.0592	23
172.4781	0
172.6191	1
173.0776	38
173.3659	1
173.5350	1
173.6931	1
173.7770	1
174.0777	9
174.3840	1
175.0942	20
175.3536	2
175.7393	1
176.0602	10
176.2378	1
176.4940	1
176.6593	0
177.0372	11
177.1752	4
177.4035	1
177.5314	2
178.0504	25
178.2754	0
178.4813	0
178.6550	1
179.0560	45
179.5016	1
180.0453	27
180.4699	1
180.7084	1
181.0702	52
181.3374	1
181.4841	1
182.0669	21
182.2254	2
182.3440	2
182.6081	1
182.6760	0
183.0740	61
183.4164	2
183.5894	1
183.6807	1
183.8620	2
184.0563	15
184.4622	2
185.0646	46
185.3567	2
185.5588	1
185.7512	1
186.0695	15
186.4051	2
186.5908	0
186.7229	0
187.0627	18
187.3358	2
187.4239	1
187.6152	0
187.8603	1
188.0909	5
188.3952	1
188.5522	0
188.7829	1
189.0584	21
189.4029	1
189.5772	2
190.0183	9
190.1940	2
190.5491	2
191.0525	27
191.2484	1
191.5243	1
191.6257	1
192.0521	27
192.2716	1
192.4918	1
193.0427	32
193.3590	1
193.4453	1
193.7147	2
194.0519	22
194.2813	1
194.5128	1
195.0574	52
195.7081	0
196.0622	20
196.3936	2
196.5714	1
197.0759	53
197.4054	1
197.4933	1
197.6207	1
197.8450	1
198.0992	13
198.5487	0
199.0634	22
199.6816	3
199.8493	1
200.0532	8
200.6273	0
201.0629	10
201.2800	1
201.3736	0
201.5214	1
202.0107	13
202.3695	1
202.5382	1
203.0214	23
203.4020	3
204.0188	10
204.2405	1
204.6658	1
205.0356	23
205.3797	1
205.6898	1
206.0444	22
206.2510	2
206.4395	2
206.6204	2
207.0553	39
207.3879	3
207.8111	1
208.0444	14
208.6439	1
209.0660	51
209.3634	1
209.4784	1
209.6296	0
210.0435	16
210.4066	1
211.0696	23
211.2844	2
211.4894	1
211.6987	1
212.0725	8
213.0683	16
213.4257	1
213.5667	1
213.6881	1
213.8201	3
214.0456	4
214.2000	1
214.4213	0
214.5519	1
215.0353	17
215.4273	2
216.0562	10
216.4169	2
217.0413	24
217.4861	1
217.7665	1
218.0576	7
218.3864	1
218.6257	0
218.7971	1
219.0715	26
219.3550	1
219.7120	1
220.0691	10
220.3450	1
220.5726	3
220.7632	1
221.0959	42
221.4343	1
221.5702	1
221.8127	1
222.1035	12
222.5031	1
223.0766	27
223.5015	1
223.8143	2
224.0689	9
224.1741	5
224.5137	1
225.0723	11
225.7152	1
226.0690	8
226.3169	1
226.3983	1
226.8618	2
227.0774	11
227.2811	1
227.4841	1
228.0343	7
228.3154	1
228.6147	1
228.7146	1
229.0864	7
229.3950	1
229.6228	1
230.1031	7
230.4006	1
230.5624	1
231.0766	11
231.4313	1
232.0625	9
232.2026	7
232.3595	1
232.5039	1
232.6658	2
233.1022	19
233.8747	4
234.0990	6
234.2473	5
234.7551	2
235.1250	19
235.5407	1
235.7419	1
236.0740	5
236.2788	3
236.6286	3
236.7250	1
237.1107	18
237.6796	1
237.8457	2
238.1288	6
238.3232	2
238.6957	1
239.0818	10
239.3262	1
239.8920	2
240.1373	7
240.7533	2
241.0754	9
241.4801	1
241.7361	1
242.0986	4
242.3729	1
243.0833	8
243.4297	1
243.5588	1
244.0937	5
244.2758	1
245.0933	20
245.6462	2
246.1349	8
246.7431	1
247.1062	15
247.4849	1
247.8538	1
247.9506	1
248.1499	7
249.1000	10
249.7081	1
250.0957	5
250.3496	2
250.5731	0
251.1263	11
251.4002	1
251.8693	1
252.1086	3
252.2487	2
253.0939	8
253.8409	0
254.1285	3
255.1173	5
255.3249	1
255.8287	1
256.1228	4
256.3723	1
257.1322	10
257.3690	1
258.0872	6
258.5475	2
258.6986	1
259.1360	12
259.4180	1
259.5129	1
259.7928	2
259.9919	4
260.1393	6
260.5907	1
260.8033	1
261.1138	16
261.2626	5
262.0595	4
262.1765	4
262.7069	1
263.1360	11
263.7574	2
263.9468	1
264.1213	5
264.2405	4
265.1325	6
265.3504	1
265.5406	1
265.7954	2
266.1667	4
266.3797	1
266.6821	1
267.0862	6
267.2665	4
268.0847	3
268.2403	4
268.9913	2
269.1710	5
269.3004	1
270.0430	6
270.1837	2
270.4837	1
270.6245	1
270.8526	2
271.1584	3
271.4363	1
272.0955	3
272.3188	1
272.5273	1
273.0941	7
273.2187	4
273.4164	1
273.8696	2
274.1728	5
274.3165	1
274.5919	1
274.8282	3
275.1470	10
275.5642	1
275.7884	2
276.1850	4
276.7204	1
277.1826	9
277.7165	0
278.1278	3
278.2773	1
278.4616	2
278.6154	1
279.1237	6
279.2668	2
280.1575	5
280.4117	0
280.5805	1
281.1289	4
281.4481	1
281.5642	1
281.9938	2
282.1940	4
282.6037	1
283.1353	5
283.3320	1
283.5059	1
283.6699	0
284.1325	6
284.3136	3
284.7057	1
285.1877	10
285.6134	1
285.8409	1
286.1526	7
286.2781	3
287.0984	9
287.2304	4
287.4352	1
287.6442	0
287.9796	2
288.1837	4
288.8046	1
289.1414	7
289.4448	1
289.7682	1
289.8803	1
290.1373	5
290.2637	2
290.3929	1
291.1541	4
291.3848	1
291.4991	1
292.0533	4
292.2440	2
292.4140	1
292.8598	0
293.1692	12
293.5057	0
294.1626	7
294.9003	2
295.2035	4
296.1768	5
297.1483	5
297.3003	5
297.6773	0
297.9850	1
298.1071	3
298.2470	5
298.6190	1
298.8961	1
299.1961	10
300.1160	4
300.2675	4
300.4018	2
300.8797	0
301.1677	8
301.2977	3
301.8772	2
302.0302	1
302.1459	2
302.3103	3
302.8614	1
303.1294	5
303.2867	1
303.5519	0
304.0924	3
304.2704	2
304.9748	1
305.1299	3
305.2930	3
305.9117	1
306.1513	3
306.6585	1
307.2029	3
307.6730	1
308.0043	1
308.1775	3
308.6262	1
309.1465	3
309.3777	1
310.0700	4
310.2540	4
310.7709	1
310.9270	2
311.1870	4
311.7491	1
312.0843	4
312.2698	2
313.1709	6
313.5879	1
314.1124	2
314.2786	2
314.5186	1
314.7946	1
315.0533	3
315.2059	3
315.3872	1
315.5378	1
316.0696	2
316.1936	3
316.8904	1
317.1019	2
317.2611	3
317.3464	1
317.6540	1
318.0240	2
318.2342	3
318.7821	0
319.1400	3
319.2949	2
319.6873	1
320.1916	3
320.6472	0
320.9478	2
321.1817	2
321.3798	0
322.0171	1
322.2654	3
322.9839	2
323.2093	4
323.6220	1
323.7606	1
323.9178	1
324.0815	1
324.2754	1
325.1464	7
325.2857	2
325.4587	1
325.5543	1
326.2043	3
326.6553	1
327.1567	4
328.1058	3
328.2057	1
328.4155	1
328.7353	1
329.1399	2
329.2908	1
330.0167	1
330.1950	1
330.3236	1
331.1022	3
331.2963	1
331.8240	0
332.0735	0
332.2173	1
333.1313	3
333.3205	2
333.4298	1
334.0901	2
334.2484	4
334.4088	1
335.1138	4
335.2469	2
335.5548	1
335.9182	1
336.0887	3
336.2629	3
336.7407	1
337.1200	1
337.3136	2
338.2169	3
338.3476	3
338.7419	1
339.1664	5
339.3625	1
340.2015	4
340.3423	2
341.0802	3
341.2979	3
341.9188	0
342.0539	2
342.2458	2
342.9005	2
343.0184	1
343.2570	3
343.3771	1
344.2275	3
344.4518	1
345.1205	3
345.3470	1
346.0725	1
346.2473	1
346.4997	1
346.7593	0
347.0283	1
347.2736	1
347.6973	1
348.0576	1
348.1447	1
348.3389	2
348.7447	0
349.1454	4
349.2965	1
350.0996	3
350.3069	2
350.5738	0
350.8941	1
351.1115	3
351.2835	3
351.5455	0
351.8154	1
352.0681	2
352.2394	5
352.9060	1
353.1652	4
353.6389	1
353.7858	1
353.9205	1
354.0371	1
354.1790	1
354.3518	3
354.8725	1
355.0626	1
355.1908	1
355.3327	3
355.4933	1
356.1314	1
356.3151	2
356.8561	0
356.9879	2
357.1861	5
357.3460	1
357.4901	1
358.0081	1
358.2430	2
358.3640	1
358.9312	1
359.1978	3
359.8068	1
360.1606	1
360.2543	1
360.3646	1
360.9319	0
361.1294	3
361.3673	2
362.0104	1
362.2411	3
363.1193	2
363.8267	2
364.1563	3
364.2883	1
364.6042	0
364.9417	1
365.2180	5
365.3615	3
365.4675	1
366.0625	3
366.2311	3
366.3652	1
366.4704	2
366.5497	1
367.2165	4
368.0866	2
368.2733	1
368.4420	1
369.1883	4
369.3585	2
369.7292	0
370.0789	1
370.3176	3
371.0475	1
371.2956	2
372.1410	2
372.3076	1
372.6366	2
373.0810	1
373.1806	0
373.3054	2
373.7563	1
373.9064	1
374.2008	3
374.3704	3
374.5862	1
374.7269	1
374.8950	1
375.0329	1
375.1512	1
375.2855	4
375.3937	2
375.7885	1
375.9689	3
376.1169	3
376.2937	2
376.8113	1
377.1469	4
377.3050	2
377.4205	1
378.1028	2
378.2104	3
378.3129	2
378.4255	1
378.7685	1
379.2573	3
379.9058	2
380.1657	2
380.3362	1
381.0762	3
381.2017	1
381.4174	2
382.2563	1
382.3796	1
383.1797	2
383.2944	1
383.8442	1
383.9647	2
384.1790	1
385.0572	2
385.3993	1
386.1058	2
386.2357	2
386.7280	0
387.0636	2
387.2101	2
387.6072	1
387.9342	1
388.1869	2
388.4301	1
388.5276	1
389.2352	4
389.3391	1
390.0092	1
390.2894	2
391.0701	2
391.2896	4
392.1650	4
392.3217	5
392.5644	1
393.1127	1
393.3655	2
394.1292	3
394.2643	1
394.4947	1
394.8856	1
395.0439	1
395.1494	1
395.2707	1
395.6609	1
396.0172	1
396.2781	2
396.6510	1
397.0224	1
397.1272	2
397.2718	2
397.4388	2
397.9613	1
398.2165	2
398.3871	1
398.9979	1
399.2415	2
399.4981	1
400.0252	1
400.1698	1
400.9897	1
401.1835	2
402.0585	1
402.1836	2
402.3326	2
403.1852	2
403.3111	1
403.8557	2
404.1660	1
404.3628	2
404.5378	1
405.0659	0
405.3401	1
405.8378	1
406.1178	1
406.2748	1
407.0917	1
407.2690	0
407.4579	1
408.1113	1
408.2445	3
408.3805	1
409.0572	1
409.2324	2
409.4097	3
410.0075	1
410.2855	0
410.4375	1
411.2664	1
411.3728	1
411.4821	1
411.9179	1
412.0330	0
412.2480	3
412.3813	1
412.9279	1
413.0870	1
413.2098	1
413.3420	2
413.6216	2
414.1620	2
414.3304	2
414.4973	1
414.6764	1
415.2205	5
415.3296	3
416.0674	2
416.3420	1
417.0769	2
417.3169	5
417.6168	1
417.8235	1
418.2926	5
419.3284	6
419.7744	1
419.8728	1
420.1742	2
420.5256	2
420.8423	1
421.0071	1
421.2703	2
421.5139	0
422.3325	1
422.4915	0
423.2899	0
424.1809	1
424.4579	1
425.2051	2
425.4706	1
425.8778	1
426.1230	1
426.2431	0
426.4109	1
426.5354	1
426.7314	0
427.1170	3
427.2921	4
427.4918	1
427.8586	1
428.2464	2
428.3853	2
428.7949	1
428.9533	3
429.0532	3
429.1386	1
429.3441	3
429.6031	2
429.9469	1
430.1632	3
430.3662	3
430.7702	1
431.0824	2
431.2963	6
431.4553	2
432.0486	2
432.2170	5
432.4916	2
432.8436	0
433.0048	1
433.4052	1
434.1989	1
434.4346	1
434.7679	1
435.0151	1
435.2963	2
435.6347	1
435.8574	1
436.1523	1
436.2789	3
436.4365	1
437.1349	2
437.4719	1
437.7590	1
437.8639	1
438.2847	2
438.9059	1
439.1902	1
439.4129	2
439.5323	0
440.2584	1
440.4515	1
440.7423	1
440.8993	2
441.2458	2
441.8918	1
442.1211	1
442.2715	1
442.3808	1
443.2685	2
443.4385	1
443.9168	1
444.2293	10
444.4471	6
444.7634	1
445.2721	13
445.4653	4
445.7352	2
445.9313	1
446.1332	5
446.3235	6
447.1855	26
447.8065	1
448.1156	2
448.3139	3
448.6462	0
449.1710	1
449.5149	0
449.9022	1
450.2077	2
450.3597	1
450.5935	1
451.7093	1
451.8715	1
452.4116	1
452.6824	2
453.1024	1
453.3487	1
454.0178	1
454.2532	2
454.4031	1
455.1469	1
455.3294	2
456.3456	3
456.4912	1
456.7375	1
456.9570	1
457.2149	4
457.4243	1
457.6793	1
457.9227	1
458.2052	1
458.3769	1
458.8428	0
458.9761	1
459.1058	0
459.2485	0
459.4275	1
459.7412	0
460.0346	2
460.1948	0
461.0049	1
461.1542	3
461.3129	3
461.4991	1
461.8064	1
462.1100	2
462.2898	1
462.7543	1
462.9435	1
463.1856	1
463.5190	0
463.6538	1
463.7821	1
463.9785	1
464.1873	3
464.3214	2
464.5033	1
464.7389	1
464.9302	1
465.7856	1
465.9775	1
466.4069	4
466.6799	1
467.0065	1
467.1397	1
467.2679	2
467.7009	1
468.0753	0
468.2484	1
468.7850	1
468.9595	1
469.1841	2
469.3868	1
469.4969	1
469.9641	1
470.2509	0
470.4030	3
470.5652	1
470.8007	1
471.0817	4
471.3483	2
471.6837	2
471.8705	1
472.3045	8
472.4885	5
473.2042	32
473.9831	4
474.4605	5
474.7235	0
474.8641	2
475.1793	1
475.4510	1
476.0662	1
476.1641	1
476.4749	1
476.6307	1
477.1315	3
477.2750	1
477.4663	1
477.8185	1
478.0910	1
478.3026	2
478.9057	3
479.1130	2
479.4196	1
479.8835	1
481.1941	0
482.0836	0
482.3475	2
483.3792	1
483.5467	1
483.8301	1
483.9389	1
484.0673	1
484.1818	2
484.3500	4
484.4436	1
484.6198	1
484.8917	1
485.1636	2
485.4116	3
485.6691	1
485.8888	2
486.2130	2
486.4385	2
486.5342	3
486.6633	1
486.8098	1
486.9403	3
487.0738	2
487.2950	2
487.4662	1
487.6801	1
487.8433	1
488.1240	1
488.3329	3
488.5497	2
488.6527	2
488.8950	3
489.0343	3
489.1996	3
489.3737	1
489.5428	0
489.7473	1
489.8960	1
490.3400	6
490.5119	5
490.9588	1
491.2751	3
491.4883	2
492.0767	1
492.2320	1
492.5135	2
492.6724	0
492.8465	0
493.1288	3
493.3508	2
493.6657	1
494.1016	2
494.2776	3
494.4572	1
494.6326	1
495.0752	1
496.2053	1
496.9755	1
497.2029	2
497.3522	1
497.4855	1
497.9391	0
498.4709	1
498.6970	1
498.9122	1
499.1013	1
499.2426	3
499.6485	1
499.8209	1
499.9738	1
500.1565	3
500.4753	2
500.8884	1
501.1363	1
501.2943	1
501.4486	1
501.5892	1
501.8124	1
502.1574	1
502.3075	2
502.5017	1
502.6474	1
503.2468	2
503.4055	1
503.5150	0
503.6650	1
503.8898	1
504.2906	2
504.4421	0
504.7944	1
505.2780	1
505.5056	2
505.7883	1
506.1167	1
506.3422	2
506.7373	1
506.8649	1
507.2716	1
507.5747	2
507.6595	1
508.3563	29
508.9161	1
509.1663	1
509.4266	1
509.5608	1
509.6623	2
510.2518	0
510.4106	1
510.5492	1
510.9444	1
511.1670	1
511.3955	1
511.6573	1
512.1447	2
512.2484	1
512.3956	1
512.5392	0
512.9439	1
513.3320	2
513.5010	2
513.6896	1
514.1785	4
514.3859	5
514.5636	1
515.3528	6
515.4820	3
515.5966	1
516.1312	1
516.2720	1
516.3895	1
517.1636	1
517.3979	1
518.1823	2
519.3228	1
519.6196	1
520.1319	2
520.3503	5
520.5237	2
521.1495	0
521.4144	3
521.5838	1
522.1057	1
522.2693	1
522.5364	1
523.1149	2
523.2350	1
524.0264	0
524.3420	2
524.4478	2
524.6888	1
524.7916	1
525.1761	2
525.3615	2
526.3129	2
526.5026	3
526.8524	1
527.2969	1
527.4650	2
527.6496	1
527.9972	0
528.3354	6
529.0154	1
529.3152	2
529.3949	1
530.1242	4
530.2560	1
530.3987	1
530.6740	1
531.0795	1
531.2621	3
531.4678	1
531.6655	1
532.2479	4
532.5167	2
533.0476	1
533.2497	1
533.6264	0
533.7850	1
533.9886	3
534.2921	1
534.5059	1
535.1072	0
535.3057	2
535.4223	1
535.8831	1
536.1671	1
536.3352	1
536.4794	2
536.7808	1
537.2590	0
538.1451	1
538.3162	2
538.6524	2
538.9227	1
539.0778	2
539.3111	3
539.5002	1
539.7698	1
539.9763	1
540.1060	2
540.2850	3
540.4003	3
540.5002	1
540.8793	1
541.0098	1
541.1569	2
541.2764	2
541.4540	4
541.9548	1
542.2244	7
542.3969	4
542.6528	2
542.8376	1
543.0529	1
543.2565	1
543.5421	2
543.8262	2
543.9785	1
544.1191	2
544.3495	3
544.9715	1
545.1868	0
545.8450	1
546.0386	2
546.3119	1
546.9339	1
547.5465	1
547.8793	2
548.0344	2
548.1961	2
548.2787	1
548.5260	1
549.3141	1
549.5359	1
549.8427	1
549.9507	1
550.0479	1
550.2661	1
550.3785	1
550.4851	1
550.5997	2
550.7084	1
551.0964	1
551.2552	2
551.3857	1
551.5735	1
551.8165	1
552.0913	2
552.2842	4
552.5431	4
552.7106	2
552.9833	2
553.1581	3
553.2828	2
553.5656	1
553.6846	1
553.8478	2
553.9971	2
554.1741	3
554.3968	3
554.5817	3
554.7043	2
554.9081	3
555.1917	1
555.3171	3
555.4390	2
555.5681	2
556.2775	9
556.5371	4
556.6612	2
556.9694	3
557.1841	6
557.3611	2
557.5091	3
557.6600	2
557.8892	2
558.0016	1
558.1620	3
558.3549	3
558.5631	3
558.7169	1
558.7808	1
559.0143	1
559.1551	2
559.3531	1
559.5512	2
559.8798	2
560.0699	1
560.2905	1
560.5182	5
560.6967	1
560.9390	2
561.0827	1
561.3054	1
561.4353	2
561.6421	2
561.8924	3
562.1180	4
562.2972	2
562.5381	1
562.8588	1
563.1716	2
563.3501	0
563.4633	1
563.7194	4
563.8863	2
564.0634	7
564.4523	15
564.7172	3
564.8021	1
564.9545	3
565.2353	3
565.5916	2
565.7473	1
566.0320	2
566.1747	1
566.3066	1
566.4557	1
566.6478	1
566.7991	2
566.9991	1
567.3135	9
567.6069	4
567.7424	1
568.2756	6
568.3951	3
568.6653	3
568.8037	1
569.1146	3
569.3218	4
569.5500	2
569.6587	1
569.7673	2
570.2006	8
570.4354	10
570.8063	9
571.2172	9
571.4498	12
571.6548	11
572.2751	12
572.6599	6
572.9425	6
573.0838	4
573.2787	6
573.4657	5
573.8099	7
574.2063	8
574.8470	7
575.2506	3
575.5123	7
575.8580	4
576.3080	6
576.4747	4
576.6857	7
577.0821	6
577.4844	7
578.1266	14
578.6825	13
579.2145	14
579.3668	7
580.3381	17
582.4122	418
583.3322	32
583.6077	22
583.6998	11
584.3052	15
585.3870	31
585.7278	15
586.0889	7
586.6864	7
587.2723	9
587.7053	8
587.8292	5
588.3043	6
589.0621	7
589.6241	6
590.0220	6
590.3081	4
590.4450	6
590.6370	7
590.9629	13
591.1520	5
591.5576	8
592.1805	9
592.7897	12
592.9976	9
593.4424	10
593.7307	9
594.1689	10
594.6594	13
595.1586	17
596.5532	23
600.3825	999
601.0165	228
601.6658	114
602.5789	60
603.0116	41
603.7160	24
604.3132	18
604.7372	11
605.1235	11
605.6192	11
605.9229	8
