Mass spectrum: beta,beta-Carotene-2,2'-diol; FAB-EBEB; MS2; m/z: 568.43; [M]*+
Name: beta,beta-Carotene-2,2'-diol
Class: Natural Product; Carotenoid
Formula: C40H56O2
Exact mass: 568.42803
SMILES: C(O)(C1)C(C(C=CC(C)=CC=CC(=CC=CC=C(C)C=CC=C(C=CC(=C2C)C(C(O)CC2)(C)C)C)C)=C(C1)C)(C)C
InChI: InChI=1S/C40H56O2/c1-29(17-13-19-31(3)21-25-35-33(5)23-27-37(41)39(35,7)8)15-11-12-16-30(2)18-14-20-32(4)22-26-36-34(6)24-28-38(42)40(36,9)10/h11-22,25-26,37-38,41-42H,23-24,27-28H2,1-10H3/b12-11+,17-13+,18-14+,25-21+,26-22+,29-15+,30-16+,31-19+,32-20+
Instrument: JMS-HX/HX 110A, JEOL
Instrument type: FAB-EBEB
Ms type: MS2
Ion mode: POSITIVE
Collision energy: 3 kV
Ionization: FAB
Base peak: 568.3415
Precursor m/z: 568.43
Precursor type: [M]+*
m/z	relative intensity
0.5211	0
2.0981	0
6.3255	0
18.1933	0
19.6224	0
20.8294	0
22.8119	2
24.9802	0
25.9735	1
26.9762	3
28.9407	0
29.9973	1
36.9663	1
38.9719	3
40.9917	3
41.3541	0
41.9413	1
42.9752	2
43.0250	1
44.9668	0
49.1942	0
50.9689	1
53.0068	1
54.9984	2
56.9996	1
61.4631	1
62.9707	1
64.9856	1
66.9887	2
67.6472	0
68.8726	0
69.0047	3
70.9013	1
72.9293	0
73.9321	0
74.6910	0
75.0521	0
76.5214	1
76.6546	1
76.9427	7
77.8104	0
77.9669	1
78.5006	1
78.7020	1
78.9643	9
79.9511	1
80.7434	1
80.8335	0
80.9902	8
81.3893	1
82.9873	2
83.7042	0
83.9138	0
85.9868	0
86.7416	0
86.9426	1
88.6213	1
88.8154	0
88.9664	2
89.4249	1
89.6821	1
89.9449	0
90.3242	1
90.9413	19
91.9279	2
92.9513	16
93.9903	1
94.6584	1
94.7887	1
95.0080	9
96.8090	1
96.9748	2
97.6342	0
98.0020	1
98.1253	1
98.4743	0
98.9797	1
99.9445	0
100.7305	1
100.9469	1
101.2449	0
101.6016	1
101.9488	4
102.7650	2
102.9668	5
103.9780	4
104.6700	2
104.9712	51
105.7241	1
105.8660	2
106.0253	2
106.2003	1
106.6300	1
106.9863	25
107.4773	1
108.0030	1
109.0065	10
110.0072	1
110.5714	1
110.9596	0
112.5672	0
112.7549	0
112.9408	1
113.2569	0
113.4939	1
113.7586	1
113.8976	3
113.9593	2
114.2116	0
114.5856	2
114.9295	18
115.1905	0
115.5385	0
115.9227	9
116.3419	1
116.9224	20
117.2163	0
117.6078	1
117.8413	2
117.9685	4
118.4295	1
118.9573	55
119.1798	1
119.3129	1
119.6409	1
119.7925	0
119.9791	7
120.1404	1
120.6593	0
120.9739	22
121.2193	1
121.6187	0
121.9560	2
122.6852	1
122.9745	6
123.9031	1
125.0470	1
125.1633	1
125.9225	2
126.6439	1
126.9277	8
127.0405	1
127.1501	1
127.6026	4
127.9208	24
128.2486	1
128.5073	2
128.9189	33
129.3262	1
129.4599	0
129.6887	1
129.9292	10
130.2360	0
130.9375	37
131.2441	0
131.4818	1
131.5649	0
131.9432	7
132.3101	0
132.6313	2
132.9643	36
133.3019	1
133.4730	1
133.9330	3
134.0893	0
134.3860	1
134.9693	13
135.1888	1
135.9629	2
136.8875	2
137.0121	3
137.2548	0
137.8242	1
137.9787	2
138.1645	1
138.6597	0
138.9171	4
139.3815	1
139.6977	1
139.9059	2
140.0876	0
140.2334	1
140.8860	20
141.1688	1
141.3220	1
141.4654	1
141.5599	1
141.9212	26
142.4529	1
142.9458	47
143.1717	1
143.4140	0
143.6538	2
143.9420	11
144.9464	50
145.3946	1
145.5792	1
145.6735	0
145.9668	7
146.9601	14
147.5876	1
147.9602	3
148.8188	2
149.0027	2
149.8477	0
149.9910	1
150.7788	1
150.9459	3
151.1664	1
151.3052	2
151.5317	1
151.6265	1
151.9274	12
152.1006	1
152.3246	0
152.4689	1
152.6922	2
152.9453	20
153.6284	1
153.7142	0
153.9503	9
154.1806	0
154.3812	1
154.5858	4
154.7291	2
154.9661	35
155.3492	0
155.5460	2
155.9709	15
156.3008	0
156.4230	0
156.5963	2
156.9832	43
157.2921	1
157.5072	1
157.6084	1
158.0036	7
158.1552	1
159.0037	30
159.3549	1
159.5803	1
159.7069	0
159.9821	3
160.0835	1
160.2381	2
160.5804	1
160.9944	6
161.9916	2
162.1165	1
162.7650	1
162.9604	1
163.0548	2
163.6432	2
163.9080	2
164.0051	1
164.1954	1
164.9447	22
165.2444	1
165.4635	0
165.5813	1
165.9830	7
166.2522	0
166.5948	2
166.9968	23
167.4336	0
167.6124	1
167.7349	2
168.0149	8
168.1646	1
168.4879	1
168.5844	2
169.0077	37
169.3818	1
169.4704	1
169.6775	1
170.0078	11
170.2597	1
170.3636	1
170.7101	1
171.0167	29
171.5041	0
171.9957	6
172.7250	3
173.0334	20
173.4039	0
173.9596	3
174.3671	0
174.5342	0
174.7794	1
175.0562	15
175.5570	0
175.7790	1
175.9235	0
176.0726	2
176.7244	0
176.8817	2
177.0349	1
177.1789	1
177.3168	2
177.4567	0
177.5632	1
177.9617	14
178.2068	0
178.3180	1
178.5700	2
178.9788	19
179.2100	0
179.5197	1
179.7598	4
179.9805	8
180.1682	1
180.2883	1
180.9774	31
181.9643	11
182.3739	0
182.6346	0
182.9994	20
183.2192	1
183.4800	1
183.6675	1
183.8551	1
184.0191	2
184.5202	1
184.6836	2
184.7865	1
185.0260	12
185.2649	0
185.7575	1
186.0154	2
186.2470	0
186.3715	1
186.4968	0
186.6773	1
187.0289	5
187.1858	1
187.7768	1
187.9796	2
188.0720	1
188.5985	1
188.7468	1
188.9815	5
189.5245	1
189.8517	2
189.9961	6
190.1985	1
190.5806	0
190.7304	0
190.9593	9
191.7292	1
191.9845	8
192.1656	1
192.6447	2
192.9772	19
193.2381	1
193.5444	0
194.0043	12
194.4054	1
194.6171	1
194.7145	1
195.0069	22
195.3263	1
195.4901	0
195.7284	1
195.9931	10
196.3608	1
196.5450	1
196.7204	1
197.0130	25
197.4202	0
197.9780	4
198.4308	1
198.5555	1
198.6898	0
199.0302	12
199.3198	1
199.7261	1
199.9669	2
200.1040	1
200.7942	1
201.0108	5
201.2029	1
201.5580	2
201.9336	5
202.5089	1
202.7494	1
203.0049	7
203.3026	1
203.7838	2
203.9803	4
204.4230	0
204.7351	1
204.9834	9
205.3453	1
205.9584	7
206.9883	13
207.2437	1
207.4371	0
207.7238	1
207.9765	4
208.6306	1
209.0150	11
209.1976	1
210.0362	2
210.2899	0
210.5797	0
210.7993	2
211.0477	9
212.0432	1
212.5832	0
212.8952	2
213.0481	2
213.2748	1
213.9968	1
214.4757	0
215.0272	7
216.0143	3
216.4061	0
216.7405	2
217.0264	10
217.1660	2
217.8426	1
218.0336	4
218.2026	1
218.7789	1
219.0233	5
219.4451	1
219.5650	0
219.8327	1
220.0293	3
220.7246	1
221.0645	11
221.6806	1
221.8334	1
222.0514	4
223.0497	15
223.5291	1
224.0834	3
224.5281	0
224.7387	0
225.1025	8
225.5219	1
225.7292	0
226.0087	4
226.6652	1
227.1034	3
227.7320	0
228.0192	3
228.3010	1
228.6492	1
229.0084	6
229.3278	1
229.8420	1
229.9750	2
230.1183	4
230.6135	0
231.0017	7
231.6569	1
231.8278	1
232.0158	2
232.6822	1
233.0495	8
233.3110	0
233.4380	0
233.7106	0
234.0403	3
234.1605	1
234.4730	0
234.6811	1
235.0699	8
235.7323	0
236.0883	4
236.3948	1
236.7220	1
236.9956	3
237.1194	3
237.6667	0
237.7946	1
237.8840	1
238.1082	1
238.7046	2
239.0073	4
239.1119	2
239.2261	1
239.4208	1
240.1159	3
240.3885	1
240.9193	4
241.3943	1
241.5224	1
241.8213	0
242.0486	2
242.7911	1
243.0343	2
243.8260	2
244.0383	4
244.1176	1
244.7359	1
244.8607	2
245.0854	7
245.3819	1
245.6750	0
245.8074	1
245.9288	2
246.1274	2
246.7295	2
247.0786	7
247.5409	0
248.0798	2
248.7266	1
249.0545	6
249.1429	2
249.5903	1
250.0156	2
250.1848	3
251.0372	4
251.3840	0
251.5615	1
251.8041	1
252.0701	2
252.4972	1
253.0978	3
253.2389	1
253.9178	1
254.1570	3
254.5159	1
254.6189	1
254.9052	2
255.0214	4
255.1120	2
255.6038	0
255.7815	1
256.0596	4
256.7321	1
257.0269	4
257.1161	3
258.1080	2
258.2900	1
259.0274	4
259.1506	3
260.0966	2
260.8669	1
261.0769	8
262.0782	2
262.3929	1
262.7283	1
263.0694	5
264.1198	2
264.5907	1
264.7932	0
265.1178	2
265.3703	1
265.7339	1
265.9538	1
266.1231	1
266.5672	1
266.8080	0
267.0155	2
267.1272	1
267.2334	0
268.0442	3
268.1559	1
268.5510	0
268.7128	1
269.1127	4
270.0100	3
270.1364	2
270.7790	0
271.0882	2
272.0659	1
273.1182	4
273.9229	1
274.0651	2
274.8643	1
275.1211	4
275.7665	0
275.9810	1
276.1580	0
277.0529	4
278.1333	1
278.3452	0
278.5799	1
278.9106	1
279.0842	3
279.2558	2
279.6705	1
279.8616	1
280.0860	2
280.8657	2
281.1041	2
281.3293	1
282.0598	2
282.3233	1
282.7885	1
282.8719	1
283.1278	4
283.6660	1
284.0952	2
284.2426	1
284.3456	0
284.9006	1
285.1358	5
285.9248	1
286.0528	3
287.1580	5
287.2505	1
287.6285	1
287.9460	1
288.1736	1
288.6049	1
289.0813	2
289.1787	1
289.7296	1
290.1289	1
290.3411	1
290.9819	2
291.1496	2
291.4231	0
291.9784	1
293.0141	1
293.1415	1
294.2506	1
294.9464	1
295.0933	2
295.2068	1
295.9361	1
296.0364	1
296.1869	1
296.3652	1
296.4941	1
297.0062	2
297.1546	2
298.0257	2
298.1658	2
298.9973	3
299.1172	1
300.0995	2
300.2975	0
301.1176	3
301.9740	1
302.8334	1
303.1516	1
304.0230	1
305.0210	2
305.1816	0
305.6960	1
306.2608	1
306.5316	1
306.7390	1
307.0009	2
307.1664	1
307.7487	1
308.0371	0
308.9577	1
309.1302	2
310.0964	1
310.2383	1
311.0230	2
312.0133	1
312.2055	1
313.0583	3
313.5330	0
313.9148	1
314.2413	0
315.0791	1
315.5981	0
316.1331	0
316.6403	1
317.0349	1
317.3148	1
318.2601	2
318.9676	2
319.1027	1
319.7845	1
320.0540	1
320.1834	1
320.6854	0
320.9024	1
322.1341	1
323.1314	2
324.0778	1
324.2074	1
324.6698	0
325.1392	2
325.2135	1
326.1427	2
327.0692	2
327.1870	2
327.4169	1
327.7169	1
328.2455	1
328.3661	1
329.2354	2
329.8644	0
330.0657	1
330.5019	1
331.3015	0
332.1189	2
332.2654	1
333.1416	1
334.0860	2
334.2809	1
334.5719	1
335.0993	2
335.2508	2
335.8406	1
336.0938	2
336.2642	3
337.1494	1
338.0152	2
338.1022	1
338.2839	2
341.0511	1
341.3164	1
342.2179	1
342.8280	0
343.0766	2
343.2107	1
344.0239	1
344.2009	1
344.5450	1
345.0339	1
345.1905	1
345.3219	1
345.6710	1
345.8691	1
346.0173	1
346.9594	2
347.1934	2
347.9172	1
348.0753	3
348.2770	0
349.0676	2
349.2391	2
350.1585	2
351.1167	1
352.0033	1
352.1341	1
352.7417	1
352.8725	2
354.0625	1
354.6667	1
354.9931	1
355.1858	1
357.1812	1
357.3388	1
358.0869	0
359.0944	1
359.3012	1
359.5697	1
360.0408	1
360.3093	0
360.9978	1
361.1296	2
361.3106	0
361.6023	1
361.8856	2
362.1535	2
362.3267	2
363.1339	1
363.3002	1
363.8234	1
364.1826	0
364.6989	1
366.2930	1
366.6487	1
368.1239	1
369.0202	1
369.1494	1
369.4962	1
371.9023	1
372.0940	1
372.8652	1
373.0402	1
374.2048	1
374.3651	1
374.5956	1
374.8705	0
375.1601	3
375.3225	1
376.0558	2
376.2632	0
376.7616	1
376.9655	1
377.1758	1
378.0091	1
379.0710	1
380.0677	1
380.3645	1
383.9444	0
384.1274	0
384.3540	2
385.0952	1
385.3992	1
388.1124	1
390.2207	2
390.9997	1
391.1258	1
391.2209	1
392.0612	1
394.1832	2
395.0217	1
395.9822	1
396.1598	1
396.2507	1
396.3994	0
397.1571	1
397.2741	2
397.8655	1
398.0890	1
398.2927	1
400.6093	1
401.1283	1
401.2990	1
401.7912	0
402.0422	1
402.2482	1
402.4266	1
403.2130	2
403.3801	1
403.8231	1
404.1285	2
404.2780	1
405.1218	1
405.2964	1
406.3145	1
407.2905	1
408.2082	1
409.1259	1
410.1155	3
410.2226	1
410.3698	2
410.9101	1
412.0479	1
412.2565	1
413.0041	1
413.1231	1
413.2169	1
414.1118	1
415.0604	2
415.3557	3
415.4565	1
415.8004	1
416.0591	1
416.3058	2
417.3328	1
419.7933	0
420.1953	1
420.3976	1
420.5380	0
421.1465	0
421.4035	1
422.3492	0
422.5365	1
422.7245	0
423.2126	1
423.5232	0
424.0768	1
424.8614	1
426.1533	1
426.7909	1
428.1366	3
428.2606	1
428.4388	1
429.2513	3
430.0913	2
430.2125	1
430.3274	1
431.2098	1
435.2166	1
435.3463	1
435.6234	1
436.3137	1
438.0470	0
438.2593	1
438.8609	1
439.1889	1
440.1150	1
441.8051	1
442.9304	0
443.4730	1
444.9950	1
445.1933	2
445.3443	1
445.5384	1
445.8665	0
446.5645	1
447.1934	2
448.0784	1
449.0399	1
449.2170	1
450.1086	1
450.7476	1
452.2310	0
452.5967	1
453.2562	1
454.1785	1
454.6905	1
455.3346	1
455.9017	0
456.4421	1
459.5551	1
460.7581	2
460.8997	1
460.9801	0
461.2500	1
461.4981	1
461.8308	0
462.2438	1
462.3566	1
462.5201	1
463.0608	1
465.3885	1
465.6142	1
466.2706	1
468.1815	1
468.6983	1
469.9135	1
471.4390	1
472.3588	0
472.5691	1
473.0621	1
473.1821	1
474.1732	1
475.1567	1
475.4008	1
475.7515	4
476.2751	57
476.7012	1
477.0279	1
477.2862	1
477.5967	1
477.8571	1
478.0017	1
478.4294	1
479.3193	1
479.9552	2
480.6208	0
482.1412	1
482.3021	1
482.6685	0
483.3568	2
484.0898	1
484.3438	1
486.2255	1
487.8401	1
488.0906	2
488.3665	3
488.9261	0
489.0440	2
489.2755	1
489.4682	2
491.1409	0
491.5263	1
492.0663	1
492.7200	1
493.2276	1
494.1256	1
495.1500	0
495.3992	1
495.8314	0
496.1293	2
496.2726	1
497.1016	1
497.6785	1
498.3805	1
498.6700	1
499.4087	1
501.9041	1
502.4077	0
505.2518	0
505.9738	1
506.1137	1
506.2656	1
506.6217	1
506.8754	0
507.3092	1
508.1671	2
508.2999	1
509.2313	1
509.6558	1
510.1747	1
510.3171	1
511.0962	1
511.2407	1
513.0732	0
514.0992	1
516.2064	0
517.2635	0
518.8590	1
519.2858	1
519.5425	1
519.9312	1
520.0588	1
520.3262	1
520.5985	1
520.9653	1
521.1283	1
521.3654	1
521.4733	1
521.8514	1
522.0292	0
522.2084	1
522.3523	2
524.1592	1
524.2947	3
524.4485	3
524.8979	1
525.3058	3
525.4716	1
526.2302	2
526.5054	1
526.8589	1
527.1462	2
527.7488	0
528.2323	0
528.4017	1
529.0220	1
529.4758	1
530.2889	1
530.6157	1
531.6166	1
531.8940	2
532.2181	1
532.3486	3
532.4997	1
533.1414	1
534.1213	2
534.3917	1
534.7947	1
534.9282	0
535.3398	2
536.2308	2
536.3805	1
536.4871	1
536.9658	1
537.0972	1
537.3591	1
537.8202	1
538.0574	1
538.3533	1
538.4380	1
538.9543	1
539.3024	1
539.3991	1
539.5566	1
539.8214	1
539.9450	0
540.2437	1
540.4005	1
540.9033	0
541.0778	1
541.3963	1
541.6943	1
541.8356	1
542.0651	2
542.2572	2
542.4825	1
542.9042	1
542.9692	1
543.1867	3
543.4078	1
543.7369	1
543.9813	3
544.0894	1
544.1798	1
544.3437	1
544.5697	1
544.7145	0
545.1906	1
545.3538	2
545.6808	1
545.8158	3
546.1111	2
546.4332	3
546.6790	1
546.8776	3
547.3707	2
547.7310	2
547.8602	2
548.1188	2
548.4487	4
548.6339	4
548.8211	2
549.1249	5
549.3588	4
549.5580	3
550.1967	29
550.5903	4
550.7585	4
550.9238	4
551.1238	3
551.3245	2
551.4375	1
551.6417	4
552.4034	6
552.6501	3
553.2813	15
553.5823	8
553.7105	1
553.9897	2
554.2864	1
554.4274	2
554.7594	1
555.0103	5
555.2585	0
555.3712	1
555.6130	2
555.7188	1
555.9028	1
556.0895	2
556.2750	2
556.3864	1
556.5421	2
556.6733	1
556.9891	1
557.1978	2
557.3874	2
557.4889	1
557.6235	2
557.8273	1
558.0529	2
558.2017	1
558.3758	2
558.5542	2
558.7466	2
558.8961	1
559.2148	2
559.4736	2
559.6526	2
559.8804	2
560.2145	3
560.4332	3
560.5537	1
560.9077	3
561.3089	5
561.6036	4
561.8300	4
562.0852	5
562.5450	4
562.9512	4
563.5992	6
564.1084	10
564.5075	12
564.7628	11
565.5844	20
568.3415	999
568.9149	121
569.5992	53
570.6396	32
571.0981	21
571.3775	13
571.8304	12
572.2361	9
572.6241	7
572.9197	6
573.3825	6
573.6986	5
573.9208	4
574.1409	4
574.3286	1
574.5170	2
574.6624	2
