Mass spectrum: Papilioerythrione; FAB-EBEB; MS2; m/z: 580.39; [M]*+
Name: Papilioerythrione
Class: Natural Product; Carotenoid
Formula: C40H52O3
Exact mass: 580.39165
SMILES: CC(=C1C=CC(=CC=CC(C)=CC=CC=C(C=CC=C(C)C=CC(C=2C)C(C)(C)CC(C2)=O)C)C)C(=O)C(O)CC1(C)C
InChI: InChI=1S/C40H52O3/c1-28(17-13-19-30(3)21-23-35-32(5)25-34(41)26-39(35,7)8)15-11-12-16-29(2)18-14-20-31(4)22-24-36-33(6)38(43)37(42)27-40(36,9)10/h11-25,35,37,42H,26-27H2,1-10H3/b12-11+,17-13+,18-14+,23-21+,24-22+,28-15+,29-16+,30-19+,31-20+/t35-,37-/m0/s1
Instrument: JMS-HX/HX 110A, JEOL
Instrument type: FAB-EBEB
Ms type: MS2
Ion mode: POSITIVE
Collision energy: 3 kV
Ionization: FAB
Base peak: 580.3223
Precursor m/z: 580.39
Precursor type: [M]+*
m/z	relative intensity
0.0092	0
0.0724	0
11.9422	0
12.9596	1
13.9605	1
14.9708	4
18.9021	1
18.9670	0
22.9185	2
23.9211	0
24.9216	1
25.9392	8
26.9452	56
27.9562	6
28.2389	0
28.9534	44
29.9319	1
30.9349	6
31.9384	0
35.9255	0
36.0974	0
36.7433	0
36.9209	9
37.4666	0
37.6606	0
37.9230	23
38.1970	0
38.2787	0
38.7030	0
38.9286	162
39.2297	0
39.7310	0
39.9424	20
40.1547	0
40.6739	0
40.9449	242
41.1805	0
41.3052	0
41.9385	4
42.6387	0
42.9318	162
43.9253	4
44.9407	5
46.9091	1
47.9136	0
48.4990	0
48.9141	3
49.2219	0
49.3744	1
49.5078	0
49.9145	58
50.3671	0
50.7175	0
50.9214	106
51.2955	0
51.3930	0
51.5365	0
51.9305	38
52.0860	0
52.5098	0
52.6940	1
52.9326	172
53.1997	0
53.2934	0
53.7137	0
53.9284	7
54.1316	0
54.6487	0
54.9414	263
55.9538	10
56.9507	41
57.9018	1
58.1648	0
58.5397	0
58.9482	12
59.0973	0
59.9193	1
60.2394	0
60.4037	0
60.9091	10
61.3630	0
61.4865	0
61.9119	29
62.0711	1
62.2681	0
62.5137	0
62.9187	86
63.2028	1
63.3082	1
63.5749	0
63.9275	18
64.1227	0
64.2761	0
64.4262	0
64.6084	1
64.9282	139
65.2034	0
65.2726	0
65.7424	1
65.9419	28
66.2741	0
66.3989	0
66.6978	1
66.9359	154
67.9178	6
68.3122	0
68.9329	187
69.1662	0
69.9307	3
70.3796	0
70.9269	29
71.5091	0
71.9404	1
72.6955	0
72.9053	4
73.3623	0
73.4955	0
73.8966	25
74.9010	29
75.1315	1
75.4193	2
75.5802	1
75.8958	18
76.1288	1
76.4672	1
76.9107	350
77.3032	3
77.3906	1
77.5419	2
77.9200	84
78.1714	1
78.3072	1
78.4560	1
78.5684	1
78.9234	275
79.3384	2
79.6606	0
79.9293	29
80.1994	1
80.5135	1
80.6349	0
80.9316	232
81.1207	2
81.3934	1
81.9165	5
82.1423	0
82.3886	1
82.9184	117
83.3673	0
83.9141	3
84.4964	0
84.6705	0
84.9202	44
85.2048	0
85.5562	0
85.8989	7
86.6112	0
86.8886	19
87.8951	6
88.2073	1
88.4163	2
88.5940	2
88.9103	48
89.2589	5
89.4836	2
89.9085	21
90.2057	2
90.4224	2
90.9169	622
91.1796	1
91.4625	1
91.9168	60
92.3380	0
92.9312	273
93.1749	1
93.3442	1
93.4787	0
93.6273	1
93.9387	27
94.1744	0
94.3018	0
94.4224	1
94.6663	0
94.9421	106
95.2832	1
95.4427	1
95.6054	0
95.9316	8
96.4192	0
96.6567	0
96.9331	18
97.1899	0
97.5308	0
97.6522	0
97.7818	2
97.9101	6
98.0656	0
98.3200	1
98.9113	8
99.9121	2
100.4303	1
100.6492	1
100.9142	11
101.1576	1
101.3129	1
101.4545	0
101.9208	42
102.1976	2
102.4479	1
102.9175	114
103.2915	0
103.3788	0
103.4730	0
103.9273	59
104.1458	1
104.9358	566
105.1729	3
105.3507	1
105.5034	1
105.5704	1
105.6669	1
105.9412	69
106.2051	0
106.4089	2
106.5224	1
106.9503	214
107.2357	1
107.4105	2
107.5879	0
107.9365	36
108.5446	1
108.9510	148
109.1754	1
109.4432	0
109.5331	0
109.6338	0
109.9276	6
110.2291	0
110.4565	0
110.5441	1
110.6234	0
110.9316	30
111.6229	0
111.9632	3
112.2683	0
112.5116	1
112.9118	16
113.1452	3
113.3078	4
113.5363	3
113.8979	15
114.9013	373
115.2853	3
115.4389	3
115.9127	122
116.1720	2
116.9219	300
117.1676	3
117.2631	1
117.4496	2
117.9217	68
118.2519	0
118.3935	1
118.9262	437
119.3559	1
119.5079	0
119.9354	48
120.2883	1
120.4002	2
120.4898	1
120.9204	162
121.2188	2
121.4103	1
121.5877	0
121.9184	29
122.2171	1
122.3576	1
122.4647	1
122.9203	60
123.3138	0
123.4982	0
123.5919	1
123.9171	15
124.4044	0
124.9249	31
125.2899	1
125.4039	1
125.5115	1
125.8678	14
126.2519	1
126.8956	128
127.2364	5
127.8958	381
128.3372	5
128.8940	403
129.1657	2
129.3974	2
129.9050	149
130.4221	3
130.9103	291
131.1613	2
131.3391	2
131.9018	71
132.2688	2
132.4786	2
132.9192	256
133.1728	1
133.2814	1
133.4739	2
133.9131	42
134.2927	2
134.5538	2
134.9076	215
135.1839	0
135.3645	1
135.4942	1
135.9091	22
136.1611	1
136.2720	0
136.9135	122
137.1442	1
137.2449	1
137.4004	1
137.5992	1
137.8994	13
138.2364	1
138.4026	1
138.8825	48
139.2159	0
139.3915	1
139.9171	19
140.2325	3
140.8866	287
141.2135	3
141.8952	244
142.1770	2
142.3900	4
142.9055	380
143.9043	117
144.3139	2
144.9134	333
145.2562	3
145.4559	2
145.9024	55
146.1089	1
146.2798	0
146.9169	164
147.1592	1
147.3878	2
147.5384	1
147.8973	14
148.2106	1
148.3349	1
148.5168	0
148.9249	62
149.2895	1
149.4067	2
149.5020	0
149.9085	17
150.1682	3
150.8931	70
151.2650	3
151.8971	137
152.1592	4
152.8881	172
153.2607	2
153.8992	84
154.2270	3
154.4304	2
154.9146	255
155.2234	1
155.3691	4
155.9316	169
156.3665	2
156.5424	3
156.9382	306
157.3968	3
157.9376	64
158.3179	2
158.4747	1
158.9266	368
159.2050	3
159.4287	1
159.9384	33
160.2986	2
160.5319	2
160.9484	96
161.5089	2
161.9331	14
162.4037	3
162.9474	40
163.1926	3
163.4928	4
163.9385	22
164.9269	268
165.1993	5
165.3100	2
165.9356	94
166.2337	4
166.9403	192
167.3993	2
167.9492	87
168.3669	2
168.9587	221
169.2197	3
169.3768	2
169.9615	83
170.4107	2
170.9643	150
171.5268	2
171.9558	47
172.2402	1
172.4783	3
172.9614	78
173.3389	1
173.5139	1
173.9435	23
174.1812	1
174.3206	1
174.9586	49
175.3232	2
175.4209	1
175.9192	25
176.1653	1
176.3528	1
176.9323	31
177.9306	137
178.4628	2
178.9296	207
179.4304	2
179.9388	92
180.1781	3
180.9384	196
181.2970	2
181.4540	1
181.9387	78
182.2495	2
182.9457	169
183.3217	2
183.9460	42
184.2768	2
184.4192	2
184.9509	98
185.2019	1
185.3722	2
185.9211	20
186.2843	2
186.4350	1
186.9348	46
187.2669	2
187.4646	2
187.9531	20
188.1699	2
188.9218	85
189.3937	3
189.9250	36
190.4190	4
190.9240	102
191.2318	1
191.3836	1
191.9148	81
192.3406	3
192.9348	159
193.2183	2
193.4733	1
193.9465	73
194.9369	189
195.3013	1
195.4344	2
195.9464	60
196.2632	2
196.4810	2
196.9523	144
197.2426	3
197.6088	3
197.9464	27
198.2178	2
198.4406	2
198.5650	1
198.9596	73
199.2509	1
199.4198	1
199.5731	3
199.9473	19
200.2039	3
200.3688	3
200.9410	40
201.2908	2
201.9064	61
202.3852	2
202.9334	83
203.9265	33
204.9436	78
205.3181	1
205.9419	60
206.3029	1
206.9455	101
207.3740	2
207.5505	2
207.9620	51
208.3358	3
208.9563	122
209.2106	3
209.4244	2
209.9580	36
210.2400	1
210.4229	2
210.9650	77
211.3166	2
211.4969	1
211.9759	15
212.2863	0
212.9459	37
213.2737	2
213.4273	1
213.9640	12
214.1555	3
214.2506	2
214.9328	75
215.3526	2
215.9553	33
216.1980	2
216.4091	2
216.9492	66
217.3231	1
217.5467	1
217.9573	30
218.2976	1
218.4909	2
218.9694	63
219.2325	2
219.3796	1
219.9757	31
220.3059	2
220.4040	1
220.5063	1
220.9949	78
221.3812	2
221.9868	29
222.2710	0
223.0021	79
223.2767	3
223.4289	1
223.9921	20
224.3125	1
224.9978	46
225.4146	3
225.9568	20
226.3142	2
226.4811	2
226.9924	35
227.3105	2
227.9578	25
228.3737	0
228.5297	1
228.9880	54
229.4082	1
229.6156	2
229.9978	28
230.4464	1
230.9951	57
231.2968	1
231.5003	0
232.0028	29
232.4777	3
233.0109	56
233.2450	3
233.3696	2
233.4860	0
234.0201	23
234.3665	2
234.5556	2
235.0227	53
235.4545	1
236.0042	20
236.1048	9
236.2885	0
236.4133	1
236.5527	2
237.0215	39
237.3725	1
237.4800	1
237.5813	1
238.0149	12
238.4118	1
238.5290	0
239.0017	40
239.4827	2
239.9832	14
240.2665	2
240.4415	0
240.9805	31
241.3597	2
241.9815	15
242.3658	2
242.4895	1
242.9913	38
243.2512	2
243.5522	1
244.0090	19
244.2114	2
244.4109	2
244.9917	42
245.3130	2
245.9955	20
246.2773	2
247.0046	43
247.4738	1
248.0265	14
248.2292	2
248.4032	2
249.0245	40
249.3379	2
249.4898	1
249.9976	16
250.2527	1
250.3941	1
250.6080	0
251.0032	26
251.3810	2
251.9679	24
252.3974	3
253.0048	25
253.4066	2
254.0037	12
254.3427	2
255.0014	28
255.3371	1
255.6254	2
256.0233	13
256.2787	1
256.5355	2
256.6395	1
256.9983	26
257.3417	1
257.5155	2
258.0350	16
258.3890	1
258.5447	1
258.7081	1
259.0231	28
260.0186	12
260.2729	2
260.4902	1
261.0143	27
261.2924	2
261.4120	0
261.6007	0
262.0005	8
262.4829	1
262.6494	1
263.0291	25
263.3221	2
263.4815	2
263.6060	1
264.0439	10
264.1824	6
264.4146	2
264.9988	17
265.3319	1
265.5929	1
266.0030	10
266.1787	3
266.5427	1
267.0390	21
267.2925	1
267.4647	1
267.6510	1
268.0172	7
268.3085	1
268.5285	1
269.0412	17
269.3557	2
269.4713	3
269.6640	1
270.0206	12
270.1762	4
270.6997	2
271.0487	21
271.4791	2
271.6501	1
272.0476	10
272.3772	1
273.0377	25
273.3673	2
273.6879	1
274.0330	17
274.3181	1
274.4608	0
274.5862	0
275.0502	18
275.3660	1
275.4815	1
275.5844	0
275.9828	8
276.1859	3
276.3042	0
276.5143	0
277.0389	22
277.3415	1
277.6791	1
278.0133	5
278.2179	1
278.3034	1
278.5016	1
278.7175	2
279.0391	14
279.2571	3
279.4743	1
280.0848	8
280.2222	3
280.3246	1
280.6786	2
281.0516	19
281.3209	1
281.5747	1
281.7311	2
282.0481	8
282.2942	1
282.5986	1
283.0363	25
283.6832	1
284.0424	9
284.4487	2
284.6452	1
285.0256	16
286.0196	9
286.3039	1
286.5187	0
286.6907	1
287.0404	18
287.4049	0
287.6703	2
288.0587	8
288.2898	2
288.4388	1
289.0232	21
289.3063	2
289.4764	1
289.7961	2
290.0764	6
290.4440	0
290.5795	1
291.0549	14
291.2663	4
291.4061	2
291.6899	1
292.0298	5
292.1591	2
292.3614	1
292.6059	1
293.0148	12
293.2762	2
293.3900	1
293.4631	0
293.6901	0
293.8721	2
294.0766	4
294.2453	1
294.4365	1
294.5967	0
295.0389	10
295.5261	2
295.6976	1
296.0506	5
296.3600	1
296.5203	0
297.0365	26
297.3979	1
298.0486	9
298.2660	2
298.4130	0
298.6022	1
299.0166	13
299.3445	1
299.6985	1
300.0194	6
300.1552	5
300.3473	1
300.4043	0
300.5402	1
301.0385	12
301.3222	2
301.4609	1
301.5897	1
302.0297	6
302.2564	2
302.3965	1
302.6472	2
303.0021	11
303.1240	7
303.4359	1
303.6409	1
303.8691	2
304.0515	5
304.2734	1
304.4340	0
304.6024	0
304.9955	6
305.3287	2
305.4943	1
305.6226	1
306.0193	4
306.2419	1
306.5922	1
307.0270	9
307.4774	1
307.5670	0
307.9109	3
308.1598	1
308.4700	1
308.5941	2
308.8204	4
309.0587	12
309.4790	2
309.6476	1
310.0524	3
310.2252	1
310.5157	1
311.0144	13
311.4052	1
311.5477	1
311.9217	3
312.0719	3
312.3203	1
312.5193	1
313.0633	8
313.3816	1
313.5637	1
313.6780	1
313.9921	6
314.1580	4
314.3429	1
314.4806	1
314.6697	0
315.0255	8
315.1837	4
315.7393	1
315.9984	3
316.2329	2
316.4814	0
316.7074	0
316.9489	8
317.1255	5
317.3593	1
317.5450	0
317.7591	0
318.0783	5
318.3574	0
318.4909	1
318.5962	0
318.7021	1
319.0405	5
319.2695	0
319.4094	0
319.5916	1
319.8799	0
320.0001	0
320.1407	2
320.2248	1
320.4771	1
320.7202	1
321.0375	6
321.1916	2
321.4468	1
321.5274	0
321.7896	1
322.0766	4
322.2216	1
322.4718	1
322.6175	1
323.0212	8
323.2043	2
323.4044	0
323.9284	1
324.0684	4
324.1950	2
324.5126	1
325.0551	8
325.3239	1
325.4045	0
325.6818	1
325.8650	1
326.1260	4
326.4112	0
326.5512	1
326.6800	1
327.0557	8
327.1852	6
327.3734	1
327.6445	0
328.0203	3
328.2729	2
328.6778	1
329.0954	6
329.3474	1
329.4273	0
329.7410	0
330.0744	2
330.3179	1
330.6026	1
330.7208	1
331.0401	5
331.3460	0
331.4792	0
331.6647	1
332.0740	4
332.4324	1
332.7072	0
332.8524	1
333.0862	8
333.3150	1
333.4836	1
333.7513	1
334.0772	4
334.4498	1
334.6470	1
335.0840	5
335.6334	2
335.8180	2
336.0875	2
336.3477	1
336.6037	0
336.7933	0
336.9949	5
337.1639	3
337.6987	1
337.7829	0
338.0319	2
338.3467	0
338.4557	0
338.6644	1
339.0698	6
339.2057	3
339.3974	0
340.0194	2
340.2204	1
340.3974	1
340.7824	0
341.0981	5
341.5362	0
341.6750	0
341.9779	1
342.1726	2
342.4445	0
342.6321	0
343.0916	5
343.4038	0
343.7798	1
344.1679	3
344.3711	0
345.1247	5
345.3428	1
345.5065	1
345.7183	0
345.8549	1
346.1348	6
346.3721	1
346.7802	1
347.1266	8
347.3172	2
347.4121	1
347.8125	1
347.9237	1
348.1420	2
348.4226	0
349.0958	11
349.4119	0
349.7302	0
349.8499	1
350.0519	4
350.3093	1
350.5063	1
350.6297	0
351.0947	9
351.6661	1
351.9831	1
352.1930	2
352.4702	0
352.6269	1
353.0460	4
353.2432	2
353.6772	1
353.7779	0
353.8942	1
354.1020	2
354.6709	1
355.1220	3
355.3817	1
355.8641	1
356.0386	1
356.1755	2
356.3061	0
356.5885	1
356.6956	1
357.1192	6
357.2924	2
357.8466	1
358.0943	3
358.2000	2
358.5258	1
358.7571	0
359.0929	6
359.2228	3
359.4236	1
359.5628	1
360.0583	3
360.2414	3
360.5098	0
361.1388	19
361.3418	4
361.6015	1
362.1236	5
362.2961	2
362.6224	1
362.7480	1
362.8090	1
363.1291	7
363.2880	3
363.4072	1
363.5193	1
363.6520	0
364.0956	3
364.5626	0
364.8465	0
365.1233	4
365.8643	0
366.1660	1
366.6417	0
366.7851	0
367.0826	1
367.3574	2
367.4617	0
367.5846	0
368.1100	1
368.2527	1
368.4842	1
368.8116	1
369.1148	2
369.3151	1
369.4181	1
369.6631	1
369.7839	1
370.1106	1
370.2591	1
370.5709	1
370.9012	1
371.1043	5
371.2372	3
371.3153	1
371.4958	1
372.0329	1
372.1608	2
372.3178	1
372.6290	0
372.8059	1
373.1406	4
373.4085	1
373.5705	1
374.0992	4
374.2747	3
374.3671	1
374.5547	1
375.1319	5
375.3785	0
375.5605	0
375.7932	0
375.9146	1
376.1019	4
376.2906	3
377.1208	5
377.6729	0
377.9114	1
378.1165	1
378.5302	0
378.7638	1
378.9320	1
379.1690	4
379.2776	2
379.3628	1
379.5360	1
379.8526	0
379.9754	1
380.1891	0
380.3006	0
380.7308	1
381.1490	3
381.5132	0
381.7752	1
382.1324	2
382.2438	1
382.3475	0
382.4626	0
382.5804	0
382.6862	1
382.9525	1
383.0832	1
383.2899	1
384.0207	1
384.1130	0
384.2267	1
384.3524	0
384.5612	1
384.8602	2
385.0464	2
385.2857	2
385.7177	0
385.9812	3
386.2448	3
387.1073	3
387.4192	1
387.6992	2
388.0190	1
388.2343	2
388.3650	1
388.5732	1
388.8092	1
389.0330	3
389.1858	5
389.3003	1
389.4083	0
389.5909	1
389.7039	1
390.1020	3
390.3109	1
391.1000	2
391.4632	0
391.5777	0
391.8201	1
391.9730	1
392.0782	1
392.1855	1
392.2943	1
392.5887	1
393.0423	2
393.2392	0
393.7903	1
394.0869	1
394.3094	1
394.6664	0
394.8179	0
395.0711	1
395.1799	1
395.3684	1
395.5255	0
396.0761	2
396.2646	2
396.4374	0
396.5498	0
396.8272	1
397.1118	5
397.2533	2
397.3743	1
397.8296	0
398.0024	1
398.1639	1
398.3076	1
398.5311	1
399.0732	3
399.2369	1
399.4760	1
399.8275	1
400.0032	2
400.1883	2
400.4160	1
401.1547	6
401.3454	2
401.7632	0
401.8742	0
402.1013	2
402.3056	2
402.8807	1
403.0053	1
403.1768	2
403.4011	0
403.5883	0
403.7129	0
404.0254	2
404.1400	0
404.3778	2
404.5893	3
404.8933	1
404.9951	1
405.2422	2
405.7976	0
406.0411	1
406.1600	0
406.3537	0
406.4976	0
406.9035	0
407.0943	1
407.2339	2
407.4298	1
407.9001	2
408.3074	1
408.4474	0
409.1313	3
409.3566	0
409.6929	0
409.8187	0
410.0370	0
410.1798	1
410.3882	0
410.8311	0
411.0067	3
411.1930	3
411.3060	1
411.6843	1
412.1110	3
412.3584	1
412.6756	0
412.8192	1
412.9458	2
413.1848	3
413.3476	2
413.5887	1
413.7480	1
413.8369	0
414.1847	1
414.8988	1
415.1834	5
415.3911	2
415.6194	1
415.8599	0
416.1401	3
416.5229	0
416.7391	0
417.1582	5
417.2856	2
417.5403	0
417.6505	1
417.7530	0
417.8526	0
418.0056	1
418.1301	2
418.9584	1
419.0551	0
419.2701	2
419.6223	1
419.8365	1
420.0799	1
420.5048	1
420.9674	1
421.2443	1
421.9625	1
422.1319	1
422.3219	2
422.5383	0
422.8416	1
422.9925	1
423.1342	2
423.2253	1
423.8326	1
423.9778	0
424.1544	2
424.3509	0
424.5474	1
424.7514	1
425.0409	5
425.2514	3
425.4156	1
425.6980	1
426.1788	5
426.5671	0
427.1084	11
427.3623	3
427.6447	0
427.7962	1
428.1227	1
428.3212	1
428.5616	1
429.1229	2
429.3819	2
429.5818	1
429.7682	0
430.1631	2
430.4149	1
430.5117	1
430.6234	0
431.0091	1
431.2296	1
431.3997	1
431.6295	0
431.8502	0
431.9925	0
432.2124	0
432.3504	1
432.4600	1
432.6913	1
433.0956	1
433.3503	1
433.6500	1
433.9112	1
434.2094	1
434.4614	1
434.6087	1
434.8657	1
435.0422	2
435.2109	2
435.8238	0
436.0082	1
436.2196	3
436.3307	1
436.7030	1
436.9066	1
437.0590	2
437.1800	1
437.3210	1
437.5253	1
437.8970	1
438.0372	1
438.1291	0
438.4374	0
438.7350	0
438.8369	0
439.0833	1
439.6130	0
439.8096	1
440.0987	2
440.2689	1
440.3565	1
440.6913	2
440.8237	0
441.0537	3
441.2432	6
441.4818	0
441.6264	1
442.1599	15
442.4540	0
442.6136	1
443.1564	9
443.3252	3
443.5874	0
443.7249	1
443.9493	1
444.0846	2
444.2029	1
444.4693	1
444.7621	0
445.1098	2
445.2787	2
445.3863	1
445.5580	0
445.7696	1
445.9064	1
446.2434	2
446.7607	1
446.8569	1
447.0180	1
447.1199	2
447.3878	1
447.9280	1
448.0256	1
448.3271	1
448.4810	1
448.7397	1
449.1175	1
449.3085	1
449.5258	1
449.6677	1
449.8038	1
449.9150	0
450.1117	1
450.2251	1
450.5465	1
450.7618	1
450.9529	0
451.2387	4
451.5117	1
451.7726	2
452.0143	2
452.1433	2
452.3779	3
452.5255	3
452.9033	3
453.2134	2
453.4145	3
453.6434	3
453.8102	2
454.0327	2
454.1446	2
454.4747	1
454.7856	1
454.9197	1
455.0709	0
455.2220	1
455.3582	1
455.6620	0
456.0015	0
456.2831	2
456.5955	1
456.8565	1
457.2516	3
457.6482	1
457.8828	1
458.0868	2
458.2423	3
458.4941	1
458.7338	1
459.0334	3
459.1389	1
459.2367	1
459.4207	1
459.6653	1
459.8719	1
459.9723	1
460.1211	0
460.3177	0
460.5335	0
460.7664	1
461.1417	2
461.7257	0
461.9223	1
462.0491	0
462.1688	1
462.6788	0
462.7978	1
462.9587	1
463.1297	1
463.2330	1
463.3619	0
463.5009	1
463.8129	1
464.2061	2
464.3058	1
464.4034	0
464.7454	1
464.9655	1
465.1223	1
465.3040	2
465.4572	2
465.7300	2
465.8989	2
466.1290	6
466.3642	6
466.6086	2
466.8936	2
467.0902	2
467.2406	3
467.4081	1
467.5114	1
467.8712	2
468.0765	2
468.2646	2
468.6865	1
468.9587	2
469.1276	1
469.2695	1
469.3828	1
469.5296	1
469.7947	1
470.1432	1
470.3578	2
470.9536	1
471.0905	1
471.2602	1
472.0022	0
472.1483	2
472.3736	1
472.8227	1
472.9546	1
473.2169	2
473.8514	1
474.2521	3
474.3683	1
474.4895	1
474.9273	1
475.3037	1
475.9041	0
476.1002	2
476.3377	0
476.8254	0
477.0757	1
477.2733	2
477.3923	1
477.7311	1
478.0021	1
478.2253	1
478.5726	0
479.1303	2
479.5875	1
479.7437	1
479.9277	1
480.1196	1
480.3365	1
480.7002	1
480.9199	0
481.1689	2
481.3322	1
481.4585	2
482.0063	1
482.2039	2
482.3523	2
482.5399	2
482.6762	2
482.9858	2
483.1963	1
483.3062	1
483.5266	1
483.6565	0
483.8448	1
484.1652	3
484.3228	1
484.4705	1
484.8523	1
485.0442	1
485.1976	1
485.3667	2
485.7784	1
486.0082	1
486.2579	4
486.3550	1
486.4749	1
486.6504	1
486.7675	1
487.1664	2
487.4688	2
487.7267	3
488.2616	59
488.6642	3
488.9491	4
489.0887	1
489.2312	2
489.4122	2
489.6167	2
489.8817	2
489.9651	1
490.0862	1
490.5237	1
490.9512	1
491.1756	1
491.4214	1
491.5654	0
492.0008	1
492.1746	0
492.5516	1
492.8815	1
493.1103	2
493.3747	0
494.1465	1
494.3147	1
494.7971	0
494.9782	1
495.0837	1
495.2854	2
495.4486	0
495.5812	1
495.8884	1
496.2697	1
496.9305	2
497.0566	1
497.2512	1
497.4138	1
497.7531	1
498.2107	8
498.5123	3
498.8545	1
499.0969	1
499.2487	1
499.4291	1
499.5902	0
499.7249	1
500.1663	5
500.3246	4
500.5078	1
500.9548	2
501.1894	4
501.3826	4
501.5737	1
501.8340	1
502.2476	1
502.4465	1
502.5877	1
502.8209	0
503.2045	1
503.4178	1
503.5254	0
503.8250	0
504.1794	1
504.3591	1
504.4775	1
504.5887	1
504.9111	1
505.0787	1
505.4167	2
505.5159	1
505.7320	1
505.9602	1
506.1970	2
506.4809	1
506.5836	0
507.1371	2
507.2106	1
507.3718	2
507.5808	1
507.7299	1
507.9617	1
508.1607	1
508.3055	0
508.5417	0
508.6922	1
508.9005	1
509.0517	1
509.2928	4
509.5190	1
509.6517	1
510.1025	1
510.6433	1
510.7668	1
511.1164	1
511.2961	1
511.7185	0
511.8412	1
512.1038	1
512.3799	1
512.5783	0
512.9729	0
513.1734	1
513.3860	2
513.6308	1
513.8042	1
514.4005	1
514.6519	1
514.8806	1
515.0280	1
515.2196	1
515.4283	1
515.8165	1
516.1042	0
516.2032	0
516.7076	1
516.8016	1
517.1649	2
517.3401	1
517.5581	1
517.8387	0
518.2505	0
518.4671	1
518.7919	1
518.9929	1
519.1432	1
519.2985	1
519.4431	2
519.9261	1
520.1684	1
520.4171	1
520.5831	1
520.7455	1
521.1367	1
521.4060	2
521.5115	0
521.7117	1
522.1007	1
522.4228	0
522.5496	2
522.6715	1
522.9444	1
523.2017	2
523.5045	2
523.7903	1
524.2443	5
524.5528	2
524.7210	0
524.8664	1
525.0203	1
525.2355	1
525.4251	1
525.8057	1
526.0103	1
526.3324	1
526.5634	0
526.7515	2
527.0223	0
527.3082	1
527.6432	1
527.9240	1
528.1849	1
528.5392	1
528.8043	2
529.2848	1
529.4110	1
529.8466	0
530.0740	0
530.1788	2
530.3334	2
530.6792	1
530.9252	1
531.0842	1
531.3101	1
531.4470	1
531.7336	1
531.9504	2
532.0908	0
532.2883	0
532.6220	0
532.7739	0
533.0748	1
533.2466	2
533.3806	2
533.5803	1
533.6937	1
534.0259	3
534.3290	6
534.5065	4
534.6591	1
534.9080	1
535.2068	10
535.4186	7
535.5398	4
535.6896	2
535.7851	1
536.0482	2
536.2936	3
536.6465	2
536.8434	1
537.2000	2
537.3840	2
537.5095	1
537.7014	1
537.8469	1
537.9795	0
538.1635	1
538.3547	3
538.6000	0
538.7227	1
539.3903	2
539.5344	3
539.7990	0
540.1535	2
540.4324	1
540.6799	1
540.8489	1
541.1592	1
541.3183	1
541.5316	1
541.8098	1
541.9211	1
542.2393	2
542.3648	1
542.6173	1
542.8484	1
542.9583	1
543.2202	2
543.3992	1
543.5890	1
543.6946	1
543.9150	3
544.1398	3
544.3945	1
544.7112	2
544.8675	1
544.9966	1
545.1807	1
545.3298	2
545.4868	1
545.6459	1
545.8079	1
545.9249	1
546.0348	1
546.1725	2
546.3808	1
546.6505	1
546.7462	1
547.0708	7
547.3677	8
547.5924	3
547.8693	1
547.9913	2
548.0905	2
548.2111	1
548.3766	1
548.4802	0
548.9418	2
549.1959	3
549.4799	2
549.6912	2
549.8025	1
549.9409	1
550.2885	8
550.4876	3
550.8167	3
551.2242	8
551.5189	5
551.7266	3
551.9164	1
552.2277	6
552.5888	4
552.8322	3
552.9999	0
553.2441	3
553.3954	3
553.5517	1
553.6730	1
553.8679	4
554.1548	2
554.3005	2
554.4589	1
554.6524	2
554.9236	4
555.2849	3
555.4298	2
555.7639	3
556.0209	2
556.2878	2
556.5591	3
556.8640	2
557.2059	3
557.5265	6
557.9688	4
558.5128	5
558.8304	5
559.1132	6
559.4957	4
559.7770	6
560.0761	7
560.3346	6
560.5191	7
561.2577	15
562.3525	115
563.2479	19
563.5919	8
564.3214	20
565.3301	61
565.7939	7
566.2277	7
566.6182	6
567.1425	6
567.6063	4
567.7994	6
568.0837	5
568.3829	5
568.6110	5
568.9672	5
569.1760	5
569.3249	6
569.7902	6
570.1166	8
570.2463	3
570.9403	8
571.4911	6
571.9294	7
572.4525	9
572.9749	8
573.5364	10
580.3223	999
581.1984	286
582.0614	128
582.8668	61
583.6595	32
584.5497	19
585.4935	13
