Mass spectrum: 4-Ketoalloxanthin; FAB-EBEB; MS2; m/z: 578.38; [M]*+
Name: 4-Ketoalloxanthin
Class: Natural Product; Carotenoid
Formula: C40H50O3
Exact mass: 578.37600
SMILES: CC(C)(C=1C#CC(C)=CC=CC(=CC=CC=C(C=CC=C(C#CC(C(C)(C)2)=C(C)C(=O)C(O)C2)C)C)C)CC(CC(C)1)O
InChI: InChI=1S/C40H50O3/c1-28(17-13-19-30(3)21-23-35-32(5)25-34(41)26-39(35,7)8)15-11-12-16-29(2)18-14-20-31(4)22-24-36-33(6)38(43)37(42)27-40(36,9)10/h11-20,34,37,41-42H,25-27H2,1-10H3/b12-11+,17-13+,18-14+,28-15+,29-16+,30-19+,31-20+/t34-,37+/m1/s1
Instrument: JMS-HX/HX 110A, JEOL
Instrument type: FAB-EBEB
Ms type: MS2
Ion mode: POSITIVE
Collision energy: 3 kV
Ionization: FAB
Base peak: 578.4086
Precursor m/z: 578.38
Precursor type: [M]+*
m/z	relative intensity
1.7607	0
3.1729	1
11.9572	0
12.9787	0
13.9788	1
14.9861	1
15.9915	0
18.9854	0
22.9485	1
24.9655	0
25.9706	2
26.9743	9
27.9816	1
28.9793	9
29.9689	0
30.9596	2
31.9775	0
35.5610	0
35.9608	0
36.2422	0
36.9600	1
37.3359	0
37.9650	3
38.9706	20
39.3066	0
39.6149	0
39.6980	0
39.9824	2
40.7078	0
40.9879	42
41.7229	0
41.9844	0
42.9806	31
43.7066	0
43.9786	1
44.9817	1
48.6131	0
48.9658	1
49.9686	8
50.9690	17
51.9790	6
52.9845	25
54.0015	1
54.9967	43
55.9942	1
56.8298	0
57.0060	25
57.9988	0
58.9920	5
59.9661	0
60.9600	1
61.9521	5
62.6902	0
62.9661	15
63.5122	0
63.6215	0
63.7527	0
63.9711	4
64.4192	0
64.9825	20
65.9862	3
66.5310	0
66.9972	27
67.2417	0
67.6298	0
67.9980	1
68.9973	34
69.9809	1
70.9869	12
71.9025	0
72.9597	1
73.3250	0
73.9539	6
74.5817	0
74.9583	8
75.2399	0
75.4012	0
75.5829	0
75.7088	0
75.9601	6
76.1165	0
76.3541	0
76.5043	0
76.9727	75
77.2115	0
77.3463	1
77.4470	0
77.7068	0
77.9767	14
78.2068	1
78.4225	0
78.5013	0
78.6189	0
78.9860	46
79.2134	0
79.9978	3
80.2388	0
80.3144	0
80.5450	0
80.9995	47
81.3467	0
81.4978	0
81.8176	0
81.9886	1
82.2743	0
82.4948	0
82.7232	0
82.9970	20
83.9700	1
84.9946	32
85.4025	0
85.9302	4
86.5595	0
86.9563	8
87.6536	0
87.9803	3
88.2126	0
88.4190	0
88.5996	0
88.9670	18
89.2301	1
89.4854	0
89.9676	6
90.2052	0
90.6584	0
90.9838	147
91.2694	0
91.5138	0
91.5996	0
91.9903	9
92.1474	0
92.3509	0
92.5898	0
93.0058	55
93.1883	0
93.3306	0
93.4247	0
93.7192	0
94.0072	3
94.1472	0
94.3282	0
94.5117	0
94.6897	0
95.0173	25
95.9761	0
96.9928	5
97.5072	0
97.9636	3
98.2971	0
98.4988	0
98.6135	1
98.8024	1
98.9697	3
99.9704	1
100.5734	0
100.9774	6
101.1436	0
101.2781	0
101.9727	15
102.2324	0
102.5351	0
102.9886	32
103.2836	1
103.5153	1
103.9933	12
104.3089	0
104.4343	0
104.6515	1
105.0055	135
105.2104	0
105.3917	0
105.5061	0
105.6180	1
106.0046	8
106.2023	0
106.3520	0
107.0179	41
107.4234	0
107.5317	0
107.7133	0
107.9958	2
108.2395	0
108.4213	0
108.6759	0
109.0223	20
109.4561	0
109.9575	2
110.6198	0
110.9900	4
111.1839	0
111.3439	0
111.8286	0
111.9781	1
112.1825	0
112.2897	0
112.3863	1
112.4784	0
112.9691	5
113.2642	1
113.3621	0
113.5669	1
113.9755	4
114.1154	1
114.3496	1
114.5402	1
114.9665	112
115.2378	1
115.3829	1
115.5370	1
115.9773	33
116.4472	1
116.9815	59
117.2937	0
117.4393	0
117.5500	0
117.6919	0
117.9853	10
118.3348	0
118.5227	0
118.9950	119
119.2889	1
119.4177	1
119.5224	0
119.6627	0
119.9844	5
120.2169	0
120.3752	0
120.4992	0
121.0034	27
121.5279	0
121.9496	3
122.2659	0
122.4344	1
122.7413	0
122.9810	8
123.2555	0
123.5922	0
123.9998	2
124.9589	4
125.3016	0
125.4501	1
125.5614	0
125.9539	9
126.1876	1
126.4085	1
126.9567	45
127.2687	1
127.5015	1
127.9550	136
128.9655	123
129.1897	1
129.4548	0
129.9702	35
130.1818	0
130.3902	0
130.5915	0
130.9800	64
131.4471	1
131.9800	12
132.1571	0
132.4808	1
132.9774	45
133.3521	0
133.5340	1
133.7933	1
133.9818	4
134.1956	0
134.4349	1
134.6223	0
134.9710	15
135.1949	0
135.4462	1
135.7524	0
135.9801	2
136.2992	0
136.9598	7
137.4472	0
137.5668	0
137.6897	0
137.9420	3
138.2650	0
138.4639	0
138.5731	0
138.9435	26
139.2132	0
139.3586	1
139.9664	7
140.1742	2
140.3741	2
140.9583	114
141.2549	0
141.4800	1
141.9736	82
142.2225	1
142.3440	1
142.5444	1
142.9821	118
143.2635	1
143.4417	1
143.5837	0
143.9817	30
144.4016	1
144.6248	0
144.9936	55
145.3197	1
145.3974	0
145.9518	7
146.2914	1
146.3923	1
146.5585	0
147.0065	26
147.2369	1
147.3709	1
147.5815	0
147.9990	2
148.3320	0
148.5282	0
148.6664	0
149.0108	12
149.5016	0
149.9542	6
150.2395	1
150.5011	1
150.9707	22
151.4272	2
151.9728	71
152.9798	78
153.3834	1
153.5355	0
153.9851	33
154.2336	1
154.4715	1
155.0026	111
155.3970	1
155.6298	1
156.0190	53
156.6068	1
157.0310	96
157.4754	1
158.0272	18
158.5380	1
159.0376	31
159.4787	0
159.5889	0
160.0369	6
160.2132	1
160.4289	0
160.5224	0
161.0336	11
161.2976	0
161.4326	1
161.5309	0
161.6426	0
161.8031	0
162.0411	3
162.2498	0
162.5476	1
163.0060	12
163.2336	1
163.5014	2
163.6816	1
164.0179	10
164.2919	3
164.4547	2
165.0191	166
165.3644	1
165.5770	1
166.0292	42
166.3285	1
166.5218	1
167.0394	90
167.2664	1
167.4645	1
167.6022	0
168.0484	29
168.2728	1
168.4651	1
169.0601	84
169.4755	1
170.0655	29
170.4202	1
170.5899	1
171.0676	59
171.2931	1
171.6488	1
172.0570	11
172.2981	0
172.5413	1
172.7368	0
173.0720	27
173.4894	1
174.0360	4
174.3009	0
174.6628	0
175.0457	9
175.2664	1
175.4912	1
175.6622	1
176.0163	19
176.2493	1
177.0294	14
177.5854	3
178.0196	92
179.0226	122
179.5341	1
180.0438	46
180.2849	2
181.0441	98
181.2887	1
181.5279	1
182.0477	31
182.2729	1
183.0588	64
183.4600	2
184.0556	15
184.3507	0
185.0584	21
185.3172	0
185.6173	1
185.7854	1
186.0544	7
186.3005	0
186.6205	1
187.0246	14
188.0238	8
188.2926	1
188.4921	0
189.0060	54
189.3618	1
190.0071	24
191.0170	74
191.4045	1
191.5548	2
191.6357	1
192.0281	56
192.4805	1
193.0364	107
193.5217	1
194.0385	48
195.0398	83
195.4187	1
195.7083	1
196.0512	24
196.3757	0
196.5742	1
196.7487	1
197.0618	44
197.4827	1
198.0470	10
198.3657	1
198.6770	1
199.0621	15
199.3981	1
199.5675	0
200.0026	7
200.4003	2
201.0427	12
201.2443	2
201.4542	1
202.0088	57
202.4999	2
203.0226	62
203.4462	1
204.0301	23
204.3279	1
204.6162	1
205.0381	60
205.2949	1
205.5457	1
205.6594	1
206.0527	43
207.0515	86
207.4149	1
208.0555	35
208.5659	1
209.0648	64
209.4437	1
210.0616	16
211.0547	21
211.3996	1
211.5673	0
211.8002	1
212.0744	6
212.5267	1
213.0389	20
213.3030	1
213.5045	1
213.6991	1
214.0554	5
215.0243	68
215.5735	2
216.0445	29
216.2807	2
216.4590	2
217.0548	58
217.4303	1
218.0566	23
218.3695	2
219.0672	68
219.3637	1
219.5726	0
220.0685	29
220.4838	1
221.0889	63
221.4768	1
221.7101	1
222.1077	18
223.1049	34
223.3563	1
224.0865	15
224.4797	1
224.6767	1
225.0983	19
225.7143	2
226.0662	27
226.5047	2
227.0719	25
227.4635	2
228.0697	27
228.3140	1
228.4428	1
229.0797	53
229.4640	1
229.5844	1
230.0998	26
230.3830	1
231.0947	59
232.1080	25
232.3935	1
233.1071	53
233.3762	1
233.5712	1
233.6923	1
234.1136	18
234.3550	2
234.5176	1
235.1073	35
235.5689	1
235.7316	1
236.1207	14
236.5161	1
237.1269	27
237.5931	1
237.7296	1
238.0981	7
239.0801	36
239.7325	2
240.0812	11
240.4799	2
241.0750	32
241.4482	1
241.6570	1
242.0920	19
243.0886	44
243.5142	1
244.0974	20
244.5432	1
245.1058	53
245.6698	1
246.1048	20
246.3494	2
247.1153	45
247.6053	2
248.1087	12
248.4418	1
248.6226	1
249.1247	28
249.4329	1
249.6757	1
250.0910	8
250.3819	1
250.6922	1
251.1223	16
251.6702	2
252.0816	18
252.4165	1
253.0774	29
253.5698	0
253.6938	0
254.1020	10
254.3138	1
254.4866	1
254.7131	1
255.1040	31
255.5605	0
255.7048	1
256.1040	21
256.4357	1
257.1047	33
257.4616	1
257.6846	2
258.1203	17
258.5861	1
259.1209	36
259.4822	1
259.6517	1
260.1281	10
261.1314	27
261.5278	2
262.1336	7
262.3870	2
262.5797	1
262.7836	1
263.1152	20
263.3931	2
263.5307	2
264.1257	8
265.0869	22
265.4593	1
266.0818	12
266.5291	1
267.1107	29
267.3987	1
267.6637	1
268.1202	12
268.5111	1
269.1217	31
269.4574	1
269.6400	1
270.1423	11
270.7860	2
271.1387	30
271.5685	1
272.1193	12
272.4637	1
273.1380	22
273.4804	1
273.7241	1
274.1221	8
274.4109	0
274.5683	1
274.7109	1
275.1530	14
275.4313	1
275.7384	2
276.1134	14
277.1147	19
278.1324	7
278.4866	1
279.1125	21
279.4353	1
279.5620	1
279.7336	1
280.1405	12
281.1281	31
281.5786	2
281.6662	1
282.1216	14
282.4993	1
282.6598	1
282.7853	1
283.1385	25
283.4911	1
283.7140	1
284.1192	8
284.5286	1
284.7881	1
285.1239	21
285.6162	1
285.7621	1
286.1381	6
286.7645	1
287.1433	15
287.5194	1
287.7327	1
288.1573	6
289.1118	21
289.5378	1
290.1233	7
290.3603	2
290.4984	1
290.6884	1
291.1345	13
291.3890	1
291.6570	1
292.1409	8
292.4061	1
292.6285	1
293.1393	21
293.5322	0
294.1609	9
294.4669	1
294.6880	1
295.1365	25
295.5128	1
295.7227	1
296.1432	7
296.4326	0
296.7043	1
297.1481	23
297.5849	1
298.1272	7
298.4152	1
299.1388	14
299.5779	1
300.1049	7
300.4085	1
300.5428	1
300.7002	1
301.1381	13
301.4368	1
301.6273	1
302.1096	8
302.3789	1
303.1144	13
303.4006	1
303.5089	0
303.6566	1
304.1060	7
304.3282	1
305.0999	13
306.0821	7
306.3805	0
307.1433	20
307.5016	1
308.1083	7
308.3899	1
308.5870	1
309.1221	16
309.5347	0
309.7368	1
310.1347	7
310.5573	1
310.7678	1
311.1447	12
311.4173	0
311.6117	1
312.1267	5
312.4980	1
313.1223	13
313.6169	1
314.1180	5
314.4613	0
314.6065	1
315.1324	11
315.5589	1
316.0982	8
317.1179	14
317.4810	1
317.5960	1
318.1137	5
318.2950	2
318.4368	1
318.6597	1
319.1493	16
319.6537	1
320.1596	7
320.2845	3
320.5513	0
321.1533	12
321.4617	1
322.1499	5
322.6920	1
323.1665	10
323.5908	0
323.9008	2
324.1585	5
324.5674	1
325.1783	10
325.5195	0
325.7490	1
326.1368	4
326.5501	1
327.1492	7
327.5619	1
328.1731	4
328.4904	1
329.1562	13
329.5464	2
330.1606	5
330.3331	3
330.5898	1
331.1582	13
331.4757	0
331.6574	1
332.2019	4
332.3985	1
332.5810	1
332.8221	1
333.1885	16
333.5040	1
334.1715	8
334.6157	1
334.7895	1
335.1977	10
335.5460	1
335.7960	1
336.0722	3
336.2326	3
336.3611	1
336.5131	0
336.7504	1
337.1871	7
337.4951	0
337.6188	1
337.8661	1
338.1997	3
338.3615	1
338.5516	1
339.1432	7
339.3870	1
339.4881	1
339.6910	1
340.1646	3
340.3845	1
340.5414	0
340.7585	1
341.1897	6
341.4563	0
342.2086	3
342.4915	0
342.7284	1
343.1888	11
343.4810	1
343.7200	1
344.1720	3
344.5441	0
345.1992	11
345.7532	1
346.2047	8
346.3858	3
346.5196	0
346.6958	1
347.1862	14
347.5493	1
347.6880	1
348.1998	5
348.7172	0
349.2177	9
349.4818	1
349.6963	0
349.7749	0
350.1735	4
350.5254	0
350.7456	0
351.1847	7
351.4134	1
351.5119	1
352.1649	4
352.4475	1
352.6501	1
352.8512	1
353.1941	4
353.6474	0
353.9308	1
354.1823	2
354.3871	1
354.4926	0
354.6761	0
355.2040	4
355.8262	1
355.9474	1
356.1714	2
356.3308	1
356.7362	1
356.9006	1
357.2338	8
357.5747	0
357.7130	0
357.8285	0
358.2460	4
358.4147	2
358.5849	1
358.7749	1
359.2393	14
359.5612	0
359.8321	1
360.2504	7
360.5227	1
360.7078	0
361.2330	12
361.7226	1
361.9250	1
362.2243	3
362.5837	1
362.7663	1
363.2178	5
363.5865	0
363.7068	0
364.2440	2
364.4691	1
364.6807	1
364.8294	1
365.2230	4
365.5033	1
365.5833	0
365.7624	1
366.1907	2
366.4987	0
367.2067	4
367.6203	1
367.7399	0
368.0381	1
368.1591	1
368.3419	1
368.6266	0
369.2144	5
369.7131	1
370.2096	2
370.3775	1
370.5171	1
371.2191	9
371.8178	1
372.1940	4
372.4668	1
372.8233	1
373.2293	9
373.5170	1
373.7197	1
374.2307	6
374.5355	0
374.8240	1
375.2329	6
375.6821	2
376.2411	3
376.4700	1
376.5579	0
376.6932	0
376.8817	1
377.2276	5
377.5748	0
377.7314	0
377.8725	1
378.2247	2
378.7946	1
379.2291	4
379.7757	0
379.9182	0
380.2088	2
380.4655	1
380.6143	0
381.2298	4
381.4276	1
381.5120	0
381.6800	1
381.8006	0
381.9871	1
382.2962	1
382.5898	0
382.7487	1
382.9699	1
383.2231	4
383.4203	2
383.5600	0
383.6898	1
383.8452	0
383.9927	1
384.1736	2
384.3573	2
384.5317	1
384.6154	0
384.8375	0
385.2276	7
385.5738	0
385.8008	0
386.2088	4
386.4004	1
386.4954	1
386.6068	1
387.2170	7
387.5654	1
387.7223	1
387.8670	1
388.2034	3
388.4681	0
388.5923	0
388.7669	1
389.2076	4
389.4120	1
389.5980	0
389.8294	0
389.9777	1
390.2844	3
390.4079	2
391.2200	4
391.6828	1
391.8561	0
392.1528	1
392.4446	1
392.5526	1
392.7918	1
393.2548	4
393.6077	1
393.8108	1
394.0992	1
394.2192	1
394.3569	1
394.5167	1
394.8171	1
395.2483	4
395.5125	1
395.7937	0
396.1858	1
396.3570	2
396.5509	1
396.8230	1
397.2279	3
397.4553	1
397.6848	0
397.8780	1
398.3711	4
398.7150	1
399.2365	5
399.6728	1
399.8242	1
400.2505	3
400.5924	0
400.7423	1
400.8184	0
401.2733	5
401.7054	1
401.8120	0
402.1724	2
402.4809	1
402.5882	0
403.2358	5
403.4647	1
403.7989	0
404.1920	1
404.4344	1
405.2735	5
405.3915	2
405.7606	0
406.1076	1
406.3678	1
406.5556	1
406.6985	0
407.2417	3
407.5379	1
407.7445	0
407.9193	1
408.2857	2
408.4526	1
408.6927	0
408.8504	0
409.2510	3
409.8108	1
409.9876	0
410.1965	2
410.3542	1
410.5346	0
410.7201	0
410.8217	0
411.2501	4
411.5264	1
411.8326	0
412.2085	2
412.5567	1
412.8601	1
413.2452	5
413.4265	2
413.7093	1
414.2849	3
414.4285	2
414.7036	1
415.2672	6
415.3908	3
415.6631	0
415.7889	0
415.9325	1
416.3127	2
416.6803	1
416.8068	1
417.2490	4
417.4146	3
417.5724	1
417.7587	0
418.2237	1
418.3730	1
418.4868	0
418.6695	1
419.2917	3
419.5590	1
419.8207	1
420.1613	1
420.3768	1
420.6299	1
420.8362	1
421.0147	1
421.3091	2
421.5104	1
421.7636	1
421.9592	1
422.1725	1
422.3767	2
422.5104	0
422.6498	1
422.8170	0
423.2722	4
423.7289	1
423.8833	1
424.3143	2
424.7303	1
424.9170	1
425.3096	5
425.6298	0
425.7619	1
425.8520	0
426.3519	2
426.9455	1
427.3211	5
427.6804	1
427.8387	0
427.9289	0
428.2755	1
428.5226	1
428.6909	1
428.8265	0
429.2434	4
429.4764	1
429.5829	0
429.7789	1
430.2648	1
430.6270	0
430.8046	1
431.2876	4
431.5661	0
431.8566	1
432.2452	1
432.6928	1
433.2675	4
433.6313	1
433.8487	0
434.1585	1
434.3156	2
434.3951	1
434.5216	0
434.6147	0
434.7945	2
435.2151	2
435.4845	2
435.6209	1
435.8568	1
436.2385	2
436.4836	1
436.7359	1
436.9925	1
437.3358	2
437.5732	1
437.7885	1
437.9158	0
438.2577	3
438.5697	1
438.7588	0
439.0737	2
439.3147	4
439.5372	1
439.8564	0
440.1749	2
440.3974	1
440.6235	0
440.8304	0
441.3160	2
441.6928	1
442.2638	2
442.7175	1
442.8263	1
443.2799	4
443.5879	1
443.7962	0
443.9591	1
444.2187	1
444.3943	1
444.5608	1
444.8773	1
445.2834	6
445.5721	1
445.8986	2
446.1227	1
446.3852	2
446.7721	0
447.2651	5
447.4266	2
447.6912	1
447.9473	1
448.3500	2
448.4581	2
448.7327	1
449.2464	3
449.4969	1
449.7822	1
450.2753	2
450.4603	1
450.5507	1
450.7400	1
451.2153	4
451.5846	1
451.7597	2
452.0330	1
452.2870	1
452.4771	1
452.6827	1
453.0279	2
453.3375	3
453.5788	1
454.2087	1
454.7874	1
455.2473	2
455.5085	4
455.7904	2
456.2446	4
456.6106	3
457.2947	5
457.6102	1
457.9448	1
458.2374	3
458.3514	2
458.4902	2
458.5750	1
458.8306	1
459.3391	3
459.7819	1
460.0932	1
460.4109	2
460.6654	1
460.7926	1
461.3243	3
461.7636	0
461.9257	0
462.2413	3
462.5221	1
462.6103	1
462.8143	1
462.9259	1
463.3553	4
463.7044	1
463.9277	1
464.3244	5
464.4815	4
464.9138	1
465.0226	1
465.3512	3
465.6199	1
465.8624	0
466.2941	2
466.5600	1
466.7592	1
467.1090	1
467.3814	1
467.7861	1
468.3728	1
468.5656	1
468.7491	1
469.0592	2
469.4497	2
469.8729	1
470.1916	2
470.3545	2
470.5366	1
470.6767	1
470.8325	1
471.3305	9
471.5425	4
471.6776	2
471.8192	2
471.9231	1
472.3307	3
472.6644	1
472.8245	1
472.9767	2
473.4008	8
473.5374	4
473.7082	1
473.9935	1
474.1963	3
474.3827	2
474.6424	1
474.8502	1
475.3725	6
475.5576	2
475.8401	1
476.1511	2
476.3838	1
476.8641	1
477.3232	6
477.6684	1
478.0727	2
478.4093	4
478.7979	0
478.9787	2
479.3603	2
479.7632	1
479.9767	1
480.2615	1
480.4608	0
480.6437	1
480.7278	0
481.2489	2
481.4866	1
481.7821	1
482.0768	1
482.2876	1
482.3922	1
482.5097	1
482.7661	1
482.9163	1
483.3549	3
483.6354	2
483.8896	1
484.3418	3
484.7299	1
485.0247	1
485.4213	3
485.6129	2
486.3443	19
486.8106	2
486.9117	1
487.2646	3
487.4574	3
487.7690	1
488.0208	2
488.3560	2
488.7018	2
489.3528	5
489.7278	1
489.9833	1
490.3690	2
490.4672	1
491.3517	9
491.6236	2
491.9225	2
492.3338	2
492.7815	1
493.3545	7
493.7345	1
493.9573	1
494.0976	0
494.3168	2
494.5972	1
495.0891	2
495.3667	1
495.5732	0
495.7881	1
495.9675	1
496.1783	1
496.3149	0
496.6211	1
496.8909	0
497.3066	3
497.5573	1
497.7473	1
497.9652	1
498.2030	1
498.3839	1
498.5782	1
498.7192	1
498.8943	1
499.1350	2
499.4355	3
499.7367	1
499.9254	1
500.1796	2
500.4146	2
500.8504	1
501.3738	3
501.7242	2
501.9485	3
502.3829	2
502.8637	2
502.9983	3
503.3380	6
503.7205	3
504.4192	3
504.7497	2
505.3231	4
505.6536	2
505.8296	2
506.0283	1
506.3902	2
507.3341	6
507.9033	1
508.2025	2
508.5061	2
508.6849	1
508.8651	1
509.1074	2
509.2257	1
509.4309	2
509.6353	2
510.0643	2
510.2652	1
510.4662	1
510.7191	1
511.0804	1
511.2044	1
511.3376	1
511.5657	1
511.7923	1
512.0110	1
512.1856	1
512.3275	1
512.5128	1
512.7821	1
513.0786	1
513.3760	2
513.5808	1
513.9847	2
514.2428	1
514.5052	2
514.7093	1
514.8345	1
515.2206	2
515.4794	2
515.6544	2
515.9033	1
516.3791	2
516.6934	1
516.8655	2
517.3207	6
517.5312	4
517.6799	1
517.8655	1
518.3997	4
518.6187	2
518.7240	1
518.8648	1
519.3954	14
519.7347	2
520.2270	3
520.4518	2
520.6702	1
520.8680	1
521.3211	4
521.8604	2
522.2836	4
522.5447	2
522.8066	1
522.9958	2
523.2028	2
523.3473	1
523.5138	1
523.6176	1
523.8652	1
524.1883	1
524.4238	1
524.6159	1
524.9297	1
525.3737	1
525.6818	1
525.8860	2
525.9942	1
526.2141	2
526.4069	1
526.5336	1
526.6973	1
527.0837	2
527.4587	3
527.7220	1
527.9334	1
528.0216	0
528.2892	1
528.4778	1
528.6301	1
528.8870	2
529.3440	4
529.7603	1
529.9098	1
530.2571	2
530.8465	2
531.4416	5
531.6594	2
531.9498	2
532.4175	8
533.3785	8
533.6113	5
533.9452	3
534.3781	8
534.9177	3
535.3862	7
537.2053	5
538.0826	4
538.4578	4
538.6345	4
539.1194	5
539.5040	5
539.9398	5
540.6220	6
541.9973	5
542.4994	6
542.8655	3
543.4332	7
543.9055	4
544.1398	4
544.7168	6
545.4334	50
545.8138	5
546.1529	3
546.5839	2
547.3319	6
547.7316	2
548.4333	7
548.7861	3
549.4373	8
549.8234	2
550.4854	12
550.9150	3
554.1483	12
560.4961	168
561.4858	75
563.4432	763
564.4260	25
564.8875	11
565.6299	9
567.7349	10
578.4086	999
579.8133	128
580.7889	56
581.8551	24
582.8815	13
584.0992	8
