Mass spectrum: Vitamin K1; FAB-EBEB; MS2; m/z: 457.37; [M+Li]*+
Name: Vitamin K1
Class: Natural Product; Lipid
Formula: C31H46O2
Exact mass: 450.34978
SMILES: C(C)(CCCC(C)CCCC(C)C)CCCC(C)=CCc(c(=O)1)c(C)c(=O)c(c2)c1ccc2
InChI: InChI=1S/C31H46O2/c1-22(2)12-9-13-23(3)14-10-15-24(4)16-11-17-25(5)20-21-27-26(6)30(32)28-18-7-8-19-29(28)31(27)33/h7-8,18-20,22-24H,9-17,21H2,1-6H3/b25-20+
Instrument: JMS-HX/HX 110A, JEOL
Instrument type: FAB-EBEB
Ms type: MS2
Ion mode: POSITIVE
Collision energy: 3 kV
Ionization: FAB
Base peak: 457.3471
Precursor m/z: 457.37
Precursor type: [M+Li]+*
m/z	relative intensity
6.0003	1
7.0009	30
26.9951	2
29.0016	3
38.9765	2
40.9828	6
42.9932	8
52.9569	1
54.9755	4
56.9830	7
66.9557	1
68.9736	3
70.9667	3
75.9067	2
76.9350	2
78.9378	1
84.9683	1
88.9493	1
90.9528	2
103.9392	2
104.9364	2
114.9233	3
121.9420	4
126.9177	1
127.9211	3
128.9209	1
138.9447	1
140.9778	2
149.9468	2
150.9837	2
151.9789	3
152.9404	2
163.9597	2
164.9795	4
165.9774	2
166.9628	2
175.9946	1
176.9090	3
177.9448	8
178.9620	7
179.9497	8
180.9848	2
186.9523	2
188.9566	2
189.9600	1
190.9397	13
191.9561	55
192.9633	7
193.9190	2
194.9560	2
196.9674	2
201.0230	2
202.0244	2
202.9679	16
203.9858	16
205.0004	7
205.9754	3
206.9799	6
208.0042	2
209.0301	5
211.0551	1
213.0317	2
214.0251	2
215.0056	3
215.9986	7
217.0125	14
218.0219	3
219.0268	3
220.0150	1
221.0255	4
222.0155	2
223.0315	2
223.9942	2
225.0096	2
227.0231	7
228.0455	4
229.0305	3
230.0133	7
231.0159	101
232.0054	11
233.0306	3
235.0635	1
242.0688	1
242.9956	2
243.9935	5
245.0321	28
246.0331	58
247.0245	3
257.0623	1
258.0581	1
259.0627	22
260.0627	4
261.0861	1
262.1295	1
263.1485	1
271.1149	1
272.0711	2
273.0631	63
274.0762	4
275.0784	2
287.1006	4
300.1124	1
301.0947	37
302.1079	8
314.1359	1
315.1274	30
316.1438	5
317.1591	1
327.2111	1
329.1607	20
330.1604	6
331.1140	2
343.1725	47
344.1736	5
345.1650	2
353.2892	1
355.1590	1
356.1665	1
357.1988	4
369.1588	1
370.2632	1
371.1966	59
372.1944	12
373.2337	2
385.2195	25
386.2141	9
387.1836	2
397.2271	1
399.2205	30
400.2539	8
401.2464	2
405.3029	1
413.2400	30
414.2609	13
415.2433	2
426.3057	1
427.2682	3
429.2939	3
432.4437	2
433.3199	2
438.3636	2
439.3492	14
440.2865	3
441.2698	62
442.3163	39
443.3014	1
449.5341	2
455.2733	34
456.2996	117
457.3471	999
459.2761	9
