Mass spectrum: Capsorubin; FAB-EBEB; MS2; m/z: 600.42; [M]+*
Name: Capsorubin
Formula: C40H56O4
Exact mass: 600.41786
SMILES: C(=C(C=CC=C(C=CC(=O)C(C(C)(C)2)(C)CC(C2)O)C)C)C=CC=C(C=CC=C(C=CC(=O)C(C(C)(C)1)(C)CC(C1)O)C)C
InChI: InChI=1S/C40H56O4/c1-29(17-13-19-31(3)21-23-35(43)39(9)27-33(41)25-37(39,5)6)15-11-12-16-30(2)18-14-20-32(4)22-24-36(44)40(10)28-34(42)26-38(40,7)8/h11-24,33-34,41-42H,25-28H2,1-10H3/b12-11+,17-13+,18-14+,23-21+,24-22+,29-15+,30-16+,31-19+,32-20+/t33-,34?,39-,40-/m0/s1
Instrument: JMS-HX/HX 110A, JEOL
Instrument type: FAB-EBEB
Ms type: MS2
Ion mode: POSITIVE
Collision energy: 3 kV
Ionization: FAB
Base peak: 109.0739
Precursor m/z: 600.42
Precursor type: [M]+*
m/z	relative intensity
14.0293	1
15.0413	4
26.0488	2
27.0470	28
28.0524	3
29.0519	23
31.0411	4
37.0291	3
38.0417	6
39.0474	39
39.6049	1
40.0585	5
41.0523	99
42.0416	3
43.0329	125
44.0271	2
45.0240	3
49.0041	1
50.0285	7
51.0359	17
52.0316	8
53.0270	39
54.0601	3
55.0355	117
56.0327	3
57.0460	38
57.5272	1
59.0217	6
61.0149	1
62.0348	5
63.0188	12
63.7012	1
63.9969	3
64.2305	1
65.0242	25
66.0206	5
67.0260	59
67.6372	1
68.0062	4
69.0117	130
70.0376	3
70.4380	1
71.0134	66
72.9390	1
74.0168	5
75.0074	6
75.5945	1
76.0234	4
77.0218	97
78.0220	19
79.0226	90
80.0275	12
81.0341	78
82.0144	7
83.0414	780
84.0339	7
85.0532	137
85.5223	1
86.0148	2
87.0045	5
87.9062	2
89.0291	8
89.5328	1
90.0711	5
91.0408	186
92.0319	23
92.6320	1
93.0458	104
93.5297	1
94.0237	8
95.0379	88
96.0163	8
97.0326	40
98.0469	2
99.0192	33
99.4479	1
100.0433	1
101.0278	3
101.6529	1
102.0630	13
103.0599	39
103.6553	1
104.0377	21
105.0538	205
106.0633	15
106.4881	1
107.0635	88
108.0119	16
109.0739	999
110.0547	11
110.5182	1
111.0442	26
111.5834	1
111.9422	3
112.1089	1
113.0155	9
113.6117	1
114.0993	5
114.3063	3
115.0486	121
116.0420	40
117.0398	122
118.0405	23
119.0428	206
119.5488	1
120.0394	17
121.0260	124
122.0255	13
123.0336	34
123.9525	4
125.0397	210
126.0131	6
127.0514	153
128.0201	142
129.0321	159
130.0338	70
130.5112	2
131.0354	151
132.0193	34
133.0437	92
134.0125	10
135.0088	67
135.9565	6
137.0282	21
138.0451	3
139.0088	22
140.0250	9
141.0350	112
142.0402	105
143.0348	186
144.0421	66
145.0432	272
146.0187	30
147.0351	87
148.0303	10
149.0518	26
150.0238	6
151.0398	34
152.0538	46
153.0480	74
154.0624	43
155.0614	106
156.0777	70
157.0711	170
158.0534	50
159.0604	449
160.0459	18
161.0817	51
162.1274	5
163.0779	13
164.0682	8
165.0970	125
166.1024	42
167.1012	79
168.1023	33
169.0981	100
170.1158	35
171.1088	74
172.0898	30
173.1062	68
174.1067	7
174.4661	1
175.1352	14
176.0994	15
176.5818	1
177.0885	15
178.1010	54
179.0945	88
180.1069	33
181.1002	81
181.5721	3
182.1064	42
183.1010	82
184.0949	28
184.6011	2
185.0954	77
186.1194	15
187.1152	27
188.1161	7
189.1100	32
190.1153	12
190.5258	3
191.0906	42
192.0909	30
193.0858	70
194.0812	39
195.0787	115
196.0997	34
197.0908	99
198.0946	24
199.0913	41
200.1193	7
201.0788	15
202.1017	21
202.4736	4
203.0914	31
204.1001	13
205.1186	37
206.0714	26
207.0862	53
208.0970	28
209.0898	104
210.1032	21
211.0862	53
212.1067	9
212.4480	3
213.0891	26
214.0704	5
215.0955	28
216.0932	12
217.1363	30
218.1165	13
219.1078	39
220.1214	19
221.1277	135
222.1406	23
223.1198	54
224.1476	13
225.1199	34
226.1190	13
227.1606	17
228.1590	9
228.5526	2
229.1190	28
230.0949	12
231.1631	26
232.1258	13
233.1316	27
234.1897	15
235.1485	45
236.1669	22
237.1359	48
238.1598	10
239.1513	22
240.1151	7
240.5566	1
241.1698	12
242.1640	9
243.1742	23
244.1629	9
245.1379	19
246.1976	10
247.1374	23
248.1775	10
249.1805	34
250.1666	8
251.1593	19
252.1304	9
253.1818	8
254.1410	3
255.1743	10
256.1498	6
256.4667	3
257.1681	13
258.1772	10
259.1770	21
260.2401	11
260.5788	2
261.1858	21
262.1617	9
263.1755	24
264.2321	8
265.1947	13
265.7743	2
266.2550	5
267.1617	7
268.0796	2
269.1692	14
270.1096	7
271.2077	16
272.1613	6
273.1782	43
274.1544	6
275.2049	24
276.1454	7
277.2265	10
278.1919	3
279.1464	4
280.3138	4
281.2263	9
282.1610	4
282.5773	1
283.2332	8
284.2395	4
284.6733	1
285.1876	12
285.6989	1
286.2117	8
286.6363	1
287.2172	18
288.1897	6
288.5103	3
289.2383	14
290.2271	5
291.1498	8
292.1581	4
293.1176	10
293.9918	6
294.2729	3
294.5934	1
295.2314	6
295.6310	1
296.2628	3
297.1776	8
297.6627	1
298.2364	6
299.2148	17
300.2282	7
301.1991	18
302.2320	8
303.1718	13
303.6306	3
304.1671	2
305.2086	5
305.6787	1
306.2519	4
307.2209	4
308.0208	2
308.3217	1
308.6845	1
309.1122	4
309.4339	1
309.9663	2
310.5114	1
311.2119	9
312.1298	5
313.1984	8
313.6662	1
314.2022	4
315.2428	10
316.2598	2
317.2262	10
318.2626	3
319.1865	5
320.3107	3
321.2700	6
322.0816	3
322.3247	1
322.5217	1
323.2303	5
324.2552	3
325.1469	6
326.1516	5
327.1755	5
327.7098	1
328.2219	3
329.2828	3
329.8905	1
330.2628	3
331.2112	6
332.2870	2
333.3488	6
333.7181	1
334.4171	1
334.8549	1
335.2849	3
335.9968	1
336.4141	3
336.8155	1
337.3954	2
338.2524	2
339.3500	3
340.0882	1
340.9363	3
341.3008	4
341.5665	1
342.4260	1
343.2824	5
344.1612	2
344.4064	1
345.2233	5
346.2314	3
347.3177	8
348.3183	3
349.2568	3
350.1476	1
351.2793	10
352.3060	3
353.2435	21
353.7330	2
354.2832	3
354.4937	1
355.2881	3
356.1128	2
357.3045	3
358.0210	2
358.2971	2
359.2818	6
360.2842	3
361.2277	5
362.4539	2
363.2508	4
364.2618	6
365.2889	10
366.1304	3
366.4144	2
367.2982	3
367.9604	1
368.3785	1
369.2068	2
370.0687	1
370.6497	1
371.2116	2
372.0019	2
372.4011	3
373.3145	5
374.2855	3
375.2023	5
375.5537	1
376.3029	2
377.2104	7
377.6993	1
378.3114	8
379.2591	15
380.2692	4
381.1473	3
381.6375	1
382.5779	1
383.2933	1
384.2196	1
385.0693	1
385.4622	1
386.4079	1
387.2770	3
388.3588	1
388.7663	1
389.2697	5
390.2190	6
391.3044	14
392.3147	14
393.1861	5
394.0959	1
395.2954	1
396.3750	1
397.2932	3
398.0643	1
398.5155	1
398.8851	1
399.4771	2
400.1860	3
400.4693	1
400.8182	1
401.1270	1
401.6248	1
402.0714	1
403.3008	3
404.1221	2
405.1708	1
405.8946	1
406.3990	3
409.3799	2
410.2289	1
411.2672	2
411.5316	1
412.4386	1
413.3451	3
413.8346	1
414.1066	1
415.3306	5
416.1579	1
416.8364	1
417.2557	7
417.5886	3
418.3681	6
419.3013	15
420.2378	3
420.7037	1
421.1424	1
421.5763	1
422.1287	1
422.4906	1
423.0831	1
423.5988	1
424.2778	1
424.6046	1
425.4038	2
426.0318	1
426.3858	2
427.3503	7
427.8373	1
428.1770	3
428.4333	2
429.3243	11
430.2984	12
431.2492	6
432.3106	8
433.2344	3
434.3760	3
435.1623	1
435.4377	1
436.1199	1
436.9192	1
437.3436	1
438.1573	2
438.5290	1
439.0175	1
439.4357	1
440.2928	1
441.1628	1
441.5506	2
442.3694	2
443.4464	6
444.2990	27
445.2848	110
446.1776	13
447.0674	15
447.9925	2
448.6498	1
448.9305	1
450.2149	1
450.7794	1
452.0881	1
452.3399	1
452.7281	1
453.2093	1
453.6489	1
454.1429	1
454.9242	3
455.3815	3
456.2816	2
456.6233	1
457.2331	4
457.6503	1
458.3612	3
459.3257	7
460.3449	3
460.7462	1
461.2309	1
461.6033	1
462.0031	1
462.4365	3
463.0000	1
463.5266	1
464.0548	1
464.5911	1
465.4019	1
465.7424	1
466.2090	1
466.8182	2
467.4098	1
467.6566	1
468.2835	2
469.2648	2
469.9014	1
470.2991	2
471.3463	6
472.3968	23
473.2822	211
474.1564	6
474.7836	3
475.4317	3
476.1039	2
476.5098	2
476.9318	3
477.3185	1
477.7485	1
478.0036	1
478.4561	1
479.1959	2
479.7142	1
480.1636	2
480.5215	1
481.1891	2
481.4572	1
482.2404	1
482.5422	1
482.9788	1
483.7590	1
483.9949	1
484.4428	3
485.2584	3
486.1495	8
486.4288	3
486.9057	2
487.3200	2
487.6684	1
488.3718	16
488.9852	1
489.4943	1
490.5479	3
490.8113	1
491.1084	1
491.3863	1
492.1990	2
492.6649	2
493.3556	3
494.2227	4
494.7021	1
495.3756	2
495.8359	1
496.3218	1
496.9809	3
497.5359	1
498.1790	1
498.6859	1
499.3146	2
499.6820	1
500.4327	2
501.3230	1
501.8861	1
502.4846	3
502.7204	1
503.5066	1
504.6539	1
505.5991	1
505.8831	1
506.5571	1
507.4125	5
508.3691	39
509.3578	1
510.1492	1
510.5955	1
511.3355	2
512.3084	3
512.5573	1
513.4162	5
513.7245	3
514.3667	28
515.3286	16
515.8279	1
516.6501	1
516.9232	1
517.2829	1
518.1871	1
519.2985	3
520.2719	14
521.3585	5
522.3797	1
522.9360	1
524.4911	1
525.1197	1
525.7418	2
526.3190	5
527.3261	1
528.3813	6
529.2778	2
529.5953	1
529.9466	1
530.5048	1
530.9234	1
531.9836	1
532.5740	1
533.5428	1
533.9808	1
534.7990	1
535.6397	1
535.9510	1
536.4612	1
537.5314	1
538.4830	1
538.7798	1
539.3752	3
539.7555	1
540.2819	3
541.0009	2
541.3154	3
541.6750	1
542.2303	6
542.5369	3
543.3201	5
544.2142	5
544.8434	1
545.1180	1
546.1406	1
547.6609	1
549.1525	1
549.5475	1
550.8995	1
551.3989	1
552.0526	1
552.5472	2
553.5477	2
554.1146	2
554.8792	2
555.3818	3
555.7208	1
556.2524	4
556.5624	1
557.4235	15
558.3214	1
558.6508	2
559.2902	2
559.9296	2
560.4709	1
560.8116	1
561.4559	1
561.9025	1
562.9357	2
563.4644	1
564.2148	1
564.7515	2
565.2979	2
565.9609	3
567.4114	12
568.5522	1
569.1620	3
569.6241	1
570.3013	5
571.3492	25
574.5335	18
576.4308	22
578.6349	15
582.4031	369
583.3441	21
584.2514	21
585.3932	34
586.5013	7
590.0184	14
600.3325	999
602.3900	184
603.3636	84
604.6451	43
