Mass spectrum: Zeaxanthin; FAB-EBEB; MS2; m/z: 568.43; [M]+*
Name: Zeaxanthin
Formula: C40H56O2
Exact mass: 568.42803
SMILES: C(=CC=C(C=CC=C(C)C=CC(=C(C)2)C(C)(C)CC(C2)O)C)C=C(C=CC=C(C)C=CC(=C(C)1)C(C)(C)CC(C1)O)C
InChI: InChI=1S/C40H56O2/c1-29(17-13-19-31(3)21-23-37-33(5)25-35(41)27-39(37,7)8)15-11-12-16-30(2)18-14-20-32(4)22-24-38-34(6)26-36(42)28-40(38,9)10/h11-24,35-36,41-42H,25-28H2,1-10H3/b12-11+,17-13+,18-14+,23-21+,24-22+,29-15+,30-16+,31-19+,32-20+/t35-,36-/m1/s1
Instrument: JMS-HX/HX 110A, JEOL
Instrument type: FAB-EBEB
Ms type: MS2
Ion mode: POSITIVE
Collision energy: 3 kV
Ionization: FAB
Base peak: 476.3185
Precursor m/z: 568.43
Precursor type: [M]+*
m/z	relative intensity
12.0230	0
13.0074	0
14.0380	1
15.0388	6
16.0461	0
19.0465	0
23.0143	0
25.0239	0
26.0386	6
27.0448	54
28.0484	6
29.0524	71
30.0269	1
31.0298	10
36.2210	0
37.0270	4
37.6381	0
38.0308	10
38.3830	0
38.6289	0
39.0434	99
39.4213	0
40.0430	8
41.0478	196
42.0583	4
43.0385	140
43.4565	0
44.0503	4
45.0382	7
49.0330	1
50.0157	17
50.3833	0
50.6296	0
51.0208	45
52.0215	14
52.5111	0
53.0223	84
54.0353	4
54.5767	0
55.0275	237
56.0214	3
57.0362	151
58.0076	1
58.2512	0
59.0241	24
60.0022	0
61.0525	2
62.0142	14
62.5053	0
63.0115	40
63.4834	1
64.0118	9
65.0149	78
65.4192	0
66.0149	13
67.0200	154
68.0181	6
69.0247	204
70.0495	2
70.3656	0
71.0087	48
71.5583	0
72.0674	1
72.5152	0
73.0186	2
74.0047	12
74.4947	1
75.0137	19
75.5236	1
76.0073	12
76.3248	2
77.0139	289
78.0148	56
79.0262	287
80.0281	32
81.0304	337
81.6599	0
82.0279	7
83.0382	114
84.0310	2
84.3431	0
85.0252	183
86.0231	7
86.5072	0
87.0147	9
88.0176	4
89.0319	36
90.0449	15
91.0409	671
92.0354	61
93.0489	481
94.0513	30
95.0564	305
95.7016	2
96.0376	10
96.5621	1
97.0560	32
97.5777	0
98.0217	4
98.4375	1
99.0533	7
100.0347	2
101.0351	10
101.3458	2
102.0439	38
103.0506	117
104.0435	54
105.0513	912
106.0437	89
107.0608	447
108.0560	29
109.0609	226
109.5546	3
110.0634	9
111.0410	31
111.5297	1
111.7122	0
112.0481	1
113.0342	11
114.0244	14
115.0390	338
116.0282	130
117.0391	355
118.0394	68
119.0398	971
120.0456	104
121.0489	324
122.0237	18
123.0392	75
124.0438	5
125.0497	14
126.0380	15
127.0370	131
128.0278	386
129.0252	478
130.0225	182
131.0320	544
132.0330	94
133.0367	495
134.0442	49
135.0378	223
135.9949	17
137.0262	50
137.9840	7
139.0216	51
140.0397	20
141.0283	332
142.0318	333
143.0336	608
144.0406	197
145.0486	661
146.0506	62
147.0633	217
148.0394	22
149.0681	128
150.0390	13
151.0822	54
152.0605	136
153.0607	193
154.0702	100
155.0652	370
156.0723	267
157.0788	583
158.0848	130
159.1015	366
160.1007	52
161.0965	113
162.0917	15
163.1103	52
164.0901	26
165.0905	300
166.0958	110
167.0977	264
168.0945	122
169.1070	399
170.1075	157
171.1116	324
172.1107	65
173.1205	215
174.1139	25
175.1293	137
176.0843	31
177.0911	52
178.0901	163
179.0869	268
180.0885	117
181.0952	313
182.0953	119
183.0960	356
184.0974	84
185.1022	178
186.1063	36
187.1023	86
188.0804	16
189.0833	102
190.0811	39
191.0781	116
192.0813	117
193.0823	230
194.0780	123
195.0815	338
196.0942	95
197.0974	272
198.0853	37
199.0967	90
200.0582	21
201.0952	72
202.0721	89
203.0842	114
204.0910	49
205.0853	124
206.0816	95
207.0870	208
208.1030	94
209.0964	241
210.1003	54
210.5380	4
211.1178	111
212.1010	20
213.1296	49
214.1180	14
215.0996	100
216.1063	48
217.1091	117
218.1138	49
219.1161	132
220.1245	63
221.1218	145
222.1355	43
223.1409	103
224.1570	29
225.1515	61
226.1640	26
227.1316	39
228.1449	35
229.1298	84
230.1171	35
231.1282	93
232.1441	50
233.1457	114
234.1594	42
235.1501	102
236.1558	25
237.1604	65
238.1712	18
239.1633	55
240.1529	19
241.1487	47
242.1170	22
243.1472	65
244.1601	33
245.1499	72
246.1415	39
247.1643	91
248.1815	24
249.1830	65
250.1774	18
251.1795	38
252.1628	23
253.1581	38
254.1920	17
255.1806	59
256.1694	26
257.1790	59
258.1801	31
259.1786	67
260.1803	25
261.1823	66
262.1890	21
263.2034	47
264.1754	9
265.1830	31
266.1127	16
267.1887	35
268.1898	17
269.1867	51
270.1618	20
271.2079	45
272.1865	19
273.1880	35
274.1942	15
275.2153	35
276.2117	15
277.2231	23
278.2303	12
279.2009	26
280.1525	12
281.1989	32
282.1909	14
283.2083	48
284.1815	21
285.2112	43
286.2012	16
287.1944	32
288.2352	10
289.2037	22
290.2064	10
291.2137	17
292.1591	10
293.2321	18
294.1705	7
295.2129	27
296.1888	15
297.1945	37
298.1975	18
299.1992	22
300.2249	10
301.2256	20
302.2339	9
303.2098	18
304.2097	9
305.1830	16
306.1774	10
307.2164	18
308.1592	7
309.1838	19
310.2280	13
311.1906	17
312.1802	9
313.1863	14
314.1912	7
315.2096	16
316.1732	7
317.2277	18
318.2095	8
319.2094	15
320.2094	8
321.2528	21
322.2755	9
323.2479	12
324.2054	6
325.2302	9
326.2373	6
327.1984	12
328.2625	6
329.2239	13
330.2347	6
331.2636	14
332.2184	7
333.2443	18
334.2734	5
335.2445	21
336.2546	12
337.2529	21
338.3036	9
339.2828	6
340.2787	4
341.2403	7
342.2693	6
343.1865	11
344.1949	7
345.2363	18
346.2211	8
347.2733	19
348.2166	14
349.2616	26
350.2440	11
351.2655	16
352.2064	7
353.2192	8
353.6614	2
354.2963	5
355.3124	7
356.2419	7
357.2673	13
358.3077	8
359.2484	16
360.2025	8
361.2791	21
362.2587	28
363.3028	16
364.3036	13
365.2912	6
366.2012	2
367.3086	3
367.6927	2
368.3055	2
369.2278	7
370.2056	4
371.2732	9
372.1914	11
373.2540	25
374.2698	8
375.2498	29
376.2555	12
377.2298	7
377.7484	1
378.2566	2
379.2775	4
379.6004	2
380.3450	3
381.2869	4
382.2439	2
383.3192	4
384.2166	3
384.6100	2
385.2668	7
386.2213	4
387.2567	16
388.2503	16
389.1917	24
390.2394	4
391.2513	6
392.2484	2
393.2831	6
394.3658	2
395.3108	3
395.8949	2
396.4626	3
397.3315	4
398.2139	3
399.3122	12
400.2023	5
401.2288	36
402.2765	16
403.2614	20
404.2972	7
405.2194	4
406.3090	2
406.6877	0
407.2655	2
408.3164	2
409.3271	2
410.3243	17
411.3950	3
411.7410	1
412.2547	2
413.3151	9
414.2798	10
415.2641	40
416.2634	14
417.2509	31
418.2564	6
419.2845	2
420.2558	2
421.3872	3
421.7271	1
422.2451	3
423.2963	8
424.2443	4
425.2477	3
426.1330	3
427.2415	7
428.3006	26
429.3224	10
430.1586	4
431.2046	13
432.2866	6
433.2084	7
433.7809	3
434.3850	2
435.2935	3
436.2395	5
437.3206	5
438.3627	3
441.1163	11
442.3418	6
443.7910	4
446.6989	15
448.2072	7
449.2623	7
450.4647	4
451.3744	4
452.3622	3
454.5154	8
457.7891	10
459.9484	7
461.3882	18
462.2851	22
463.0891	5
463.5721	3
464.6432	1
465.3708	4
466.0970	4
467.3319	3
468.2982	13
469.0951	3
469.4718	2
470.1997	3
470.8571	3
471.3869	2
472.2710	4
474.3396	11
476.3185	999
477.3380	11
478.0018	7
479.1311	5
479.9571	3
480.4513	4
481.2834	6
482.2703	6
483.3653	3
484.2935	2
484.5875	1
485.0764	1
486.1007	2
486.4112	1
487.3891	7
488.3221	18
489.3301	26
490.2497	2
490.8258	0
491.2804	4
492.1881	3
493.3375	6
494.1868	5
495.4729	3
496.2323	6
496.5640	2
497.3685	2
498.1430	2
498.6293	2
498.9520	1
499.3558	1
499.8737	1
500.3121	1
501.0132	1
501.5536	0
502.0911	1
502.3253	0
502.7938	0
503.1556	1
504.2202	2
504.5491	1
505.2954	2
506.2520	3
506.6199	1
507.2732	9
508.1819	11
508.4297	6
509.3159	4
510.2353	9
511.2036	3
511.6908	1
512.3444	4
512.5843	2
513.4028	2
514.1674	1
514.7657	0
514.9636	0
515.4449	1
515.8707	1
516.1361	1
516.5410	1
517.1378	1
517.5082	3
518.0225	1
518.3015	1
519.3392	2
520.2196	5
521.2185	5
522.1890	11
523.1955	19
524.2336	22
525.2792	2
526.2829	3
527.0841	3
527.8163	2
528.7122	1
529.8105	2
530.8580	2
531.3908	3
532.3258	2
532.7581	2
533.3344	2
534.2800	6
535.4028	12
536.2809	13
537.2792	8
538.2220	19
539.1288	29
540.1153	6
541.4381	4
550.3956	171
551.3301	42
552.2345	93
553.3339	220
568.3062	999
571.4632	210
573.0637	59
