Mass spectrum: Antheraxanthin; FAB-EBEB; MS2; m/z: 584.42; [M]+*
Name: Antheraxanthin
Formula: C40H56O3
Exact mass: 584.42295
SMILES: C(C=C(C=CC=C(C=CC(O3)(C3(C)2)C(CC(C2)O)(C)C)C)C)=CC=C(C=CC=C(C)C=CC(=C(C)1)C(C)(C)CC(C1)O)C
InChI: InChI=1S/C40H56O3/c1-29(17-13-19-31(3)21-22-36-33(5)25-34(41)26-37(36,6)7)15-11-12-16-30(2)18-14-20-32(4)23-24-40-38(8,9)27-35(42)28-39(40,10)43-40/h11-24,34-35,41-42H,25-28H2,1-10H3/b12-11+,17-13+,18-14+,22-21+,24-23+,29-15+,30-16+,31-19+,32-20+/t34-,35+,39-,40+/m1/s1
Instrument: JMS-HX/HX 110A, JEOL
Instrument type: FAB-EBEB
Ms type: MS2
Ion mode: POSITIVE
Collision energy: 3 kV
Ionization: FAB
Base peak: 504.4592
Precursor m/z: 584.42
Precursor type: [M]+*
m/z	relative intensity
2.1891	1
4.2684	1
6.9166	1
8.2092	1
10.1287	1
14.0047	1
14.9931	3
22.8094	1
24.6559	1
25.9886	3
26.9878	29
27.9962	3
29.0006	29
30.0080	1
30.9918	4
31.2321	1
33.0053	1
36.9813	3
37.9721	8
38.9867	77
39.9949	10
40.3146	1
40.9952	154
42.0031	5
42.9767	275
43.9774	5
44.9786	7
46.9767	1
48.9550	2
49.9544	21
50.9705	54
51.9819	21
52.9754	85
53.4126	1
53.6452	1
54.0006	6
54.3340	1
54.9871	202
56.0015	6
57.0007	143
58.0047	2
58.9806	27
60.0052	1
60.9299	3
61.9483	12
62.9660	43
63.9531	8
64.9718	75
65.9809	13
66.3969	1
66.9876	129
67.9920	6
68.9912	151
70.0006	5
70.9777	38
71.9749	1
73.0000	3
73.9678	12
74.9660	13
75.9752	10
76.9732	217
77.9796	48
78.9851	222
79.9751	29
80.9904	189
81.9928	9
82.9953	86
83.9393	3
84.3376	1
84.9925	115
85.9870	4
86.3620	1
86.9760	25
87.5171	1
87.9662	3
88.9938	24
89.9848	9
90.9903	444
92.0022	44
93.0002	306
93.9895	16
94.5081	2
95.0106	238
95.9952	15
96.9998	35
97.9983	5
99.0208	9
100.0317	2
100.9726	4
101.2161	2
102.0096	24
103.0180	90
104.0089	35
105.0128	518
106.0087	59
107.0246	240
107.5249	3
108.0093	20
109.0158	149
110.0157	11
110.4068	1
111.0088	25
112.0415	3
113.0238	14
113.9922	9
114.9874	220
115.9928	85
116.9939	221
117.9938	46
118.9980	530
119.9965	64
120.9936	227
121.9693	30
122.9878	112
123.9805	10
124.9517	143
125.9987	14
126.9724	86
127.9761	248
128.9826	294
129.9874	121
130.9849	326
131.9850	63
132.9849	269
133.9889	30
134.9824	174
135.9814	59
136.9644	73
137.9631	8
138.9687	39
139.9301	12
140.9701	222
141.9776	206
142.9831	353
143.9883	130
145.0019	409
145.9988	42
146.9967	174
147.9868	20
148.9941	96
149.9890	21
150.9878	166
151.9965	110
153.0002	133
154.0062	75
155.0058	240
156.0152	169
157.0254	380
158.0276	80
159.0337	249
160.0317	35
161.0365	86
162.0361	30
163.0426	90
164.0289	24
165.0235	312
166.0398	75
167.0390	171
168.0404	80
169.0499	215
170.0523	96
171.0599	204
172.0698	60
173.0669	143
174.1038	27
175.0708	106
176.0309	24
177.0459	50
178.0375	105
179.0282	178
180.0377	148
181.0463	348
182.0496	85
183.0520	219
184.0672	57
185.0603	115
186.0449	27
187.0514	65
188.0448	14
189.0359	97
190.0548	39
191.0303	91
192.0322	59
193.0362	199
194.0529	75
195.0474	195
196.0394	55
197.0624	186
198.0480	41
199.0508	82
200.0404	16
201.0672	53
202.0334	48
203.0460	85
204.0607	34
205.0468	78
206.0410	57
207.0587	167
208.0663	64
209.0605	134
210.0705	35
211.0780	95
212.0783	23
213.0683	46
214.0925	14
215.0681	67
216.0748	27
217.0605	71
218.0636	30
219.0702	90
220.0864	43
221.0877	231
222.0972	37
223.1040	92
224.1097	26
225.1066	52
226.0930	21
227.1232	33
228.1012	23
229.0997	53
230.0986	22
231.1031	53
232.1252	29
233.1168	69
234.1351	45
235.1198	71
236.0987	19
237.1135	52
238.1179	18
239.1195	42
240.1340	14
241.0836	31
242.1050	14
243.1081	41
244.1224	20
245.1526	37
246.1071	24
247.1163	59
248.1444	19
249.1232	41
250.1256	16
251.1735	29
252.1268	20
253.1302	31
254.1262	10
255.1396	31
256.1565	12
257.1280	47
258.1335	19
259.1440	42
260.1408	16
261.1394	37
262.1508	13
263.1673	30
264.1949	16
265.2057	25
266.2199	14
267.1907	20
268.1149	10
269.1768	25
270.1797	10
271.1782	41
272.1754	21
273.1666	25
274.1956	23
275.2009	32
276.1368	9
277.2122	23
278.0814	7
279.1604	18
280.2538	5
281.1706	20
282.1926	12
283.1866	29
284.1997	15
285.2099	34
286.1937	31
287.1903	37
288.2076	9
289.1984	22
290.1048	9
291.2120	12
292.2034	8
293.1841	10
293.5397	2
294.1101	4
295.2181	14
296.2355	8
297.1983	33
298.2020	18
299.1668	56
300.1647	9
301.1770	15
302.2633	7
303.2163	16
304.2183	12
305.2079	10
306.1207	2
307.1909	13
308.1968	4
309.1605	12
310.1763	10
311.1514	30
312.1975	34
313.2155	18
314.2479	6
315.2270	12
315.6017	2
316.2047	3
316.5574	1
317.2597	13
318.1276	7
319.2098	9
320.2639	3
321.1669	11
322.2466	6
323.2051	12
323.6671	2
324.2222	8
325.1873	55
326.2679	5
327.1766	7
328.2292	3
329.2408	6
329.6986	2
330.2669	5
331.2426	7
332.1427	6
333.2183	8
334.2925	5
334.6148	2
335.2621	14
336.2294	9
337.2679	32
338.2040	7
338.6382	1
339.2429	9
340.1683	2
340.6231	1
341.2375	7
342.2185	3
343.2470	6
344.2725	5
345.2176	7
346.2435	3
347.2411	10
347.8814	2
348.2767	7
349.2904	14
350.1936	9
351.2503	23
352.2376	344
353.2883	16
354.1604	4
354.8062	1
355.3792	3
356.2690	3
357.2997	8
358.3085	3
359.2747	10
360.2679	6
361.3073	14
362.3275	11
363.3071	24
364.2837	21
365.2715	70
366.2309	2
367.0700	2
367.4628	2
367.8080	1
368.9451	2
369.9510	1
370.3359	3
370.6005	2
371.2944	7
372.3117	10
373.2657	10
374.3419	8
375.2676	17
376.3076	35
377.2768	14
378.2902	23
379.2466	12
380.2253	3
381.2787	5
382.0612	2
383.0007	3
384.5646	2
385.3586	6
385.7136	3
386.3445	9
387.4049	15
388.3355	20
389.3185	23
390.3017	3
391.3056	23
391.9495	3
392.3604	3
393.2899	2
393.9197	1
394.4576	1
395.3509	2
396.3856	2
397.2679	5
398.2520	6
398.6616	1
399.2823	6
399.7808	1
400.4984	3
401.3098	7
402.3245	68
403.3329	32
404.3463	253
405.3598	5
405.7871	3
406.3400	3
407.2043	3
408.1593	2
408.7537	1
409.2611	3
409.7749	2
410.4156	3
411.3165	5
412.2841	5
413.3882	4
414.3465	6
415.3588	6
416.3839	10
417.3329	18
418.3868	3
419.3170	25
420.1616	2
420.7220	1
421.4031	2
422.3257	3
422.6163	1
423.3737	3
423.9312	1
424.3537	3
425.3765	9
426.3718	10
427.3890	2
428.3636	8
428.8445	2
429.3858	4
430.3287	10
431.3639	48
432.3229	94
433.3820	8
434.2999	2
434.9288	1
435.3688	2
436.1534	2
437.3607	5
438.3345	125
439.3101	6
440.4398	3
441.3488	6
441.9590	1
442.4151	2
443.3290	3
443.6883	1
444.2986	6
444.7294	1
445.3510	11
446.3208	3
447.3209	5
448.3067	3
449.0287	2
449.4214	5
449.7204	2
450.3439	2
451.3825	7
452.2016	3
452.4164	2
452.7186	1
453.3804	3
453.6795	1
454.1218	2
454.5529	2
455.4216	5
455.9276	1
456.8426	6
457.4998	3
458.1682	5
458.5327	3
459.3555	3
459.7837	2
460.3933	3
461.2843	2
462.0587	3
463.3196	3
464.3756	21
465.3315	10
465.7371	3
466.2747	2
467.1400	2
468.4461	4
469.3418	6
470.1580	3
470.8279	2
471.5439	5
472.0436	3
472.6929	5
473.4075	10
474.8319	14
475.9605	8
477.4076	17
478.3182	8
478.5586	5
479.3706	5
480.1524	1
480.5808	1
481.0617	2
481.3929	3
481.8579	2
482.1064	1
482.7243	3
483.4521	6
489.3978	42
490.3571	38
491.4294	140
492.4334	81
493.0714	10
493.8527	8
494.2967	3
494.7534	4
495.4473	3
496.4213	3
496.8112	2
497.3556	2
498.4045	3
499.4057	4
499.7368	1
500.4803	2
500.9467	1
502.4211	10
502.6902	5
504.4592	999
505.5118	16
506.3272	5
507.3178	2
508.4360	3
509.7246	4
510.4032	3
511.3352	6
511.6219	2
512.5349	3
513.2932	2
513.6262	1
513.9975	2
514.2700	1
515.1591	1
516.4317	4
517.2257	1
517.6943	3
518.3311	2
518.7647	2
519.0919	1
519.4255	1
519.6828	1
520.1752	1
520.6533	2
521.3316	2
521.9623	1
522.7868	1
523.4477	5
523.8766	1
524.4899	7
525.4878	6
526.4443	24
527.3597	3
528.5245	4
528.7772	2
529.5687	3
530.5016	3
531.3583	1
531.8670	3
532.8192	3
533.1593	1
533.5758	3
533.9478	2
534.4534	1
534.7411	2
535.1052	1
535.6425	3
536.4963	1
537.3326	3
537.6539	4
538.4680	3
539.4030	8
540.4478	19
541.5419	16
542.5057	5
543.2103	2
543.6096	2
543.9468	1
544.4924	2
544.9696	1
545.7236	2
546.3599	1
546.7131	1
547.5499	4
548.5999	11
549.4272	3
550.3612	4
551.5355	31
552.2882	3
552.6876	3
553.5120	10
554.5353	14
555.5745	14
556.6648	13
559.0779	9
561.6094	12
565.5065	36
566.5759	572
567.5308	62
568.5017	49
569.5252	561
570.6124	14
584.4319	999
