Mass spectrum: 12'-Apozeaxanthin; FAB-EBEB; MS2; m/z: 366.26; [M]+*
Name: 12'-Apozeaxanthin
Formula: C25H34O2
Exact mass: 366.25588
SMILES: O=CC(C)=CC=CC=C(C)C=CC=C(C)C=CC(=C(C)1)C(C)(C)CC(O)C1
InChI: InChI=1S/C25H34O2/c1-19(10-7-8-11-21(3)18-26)12-9-13-20(2)14-15-24-22(4)16-23(27)17-25(24,5)6/h7-15,18,23,27H,16-17H2,1-6H3/b8-7+,12-9+,15-14+,19-10+,20-13+,21-11+/t23-/m1/s1
Instrument: JMS-HX/HX 110A, JEOL
Instrument type: FAB-EBEB
Ms type: MS2
Ion mode: POSITIVE
Collision energy: 3 kV
Ionization: FAB
Base peak: 91.0558
Precursor m/z: 366.26
Precursor type: [M]+*
m/z	relative intensity
12.0048	1
13.0149	1
13.9981	2
15.0221	8
17.0024	0
19.0185	1
22.9573	0
24.0050	0
25.0119	2
26.0059	13
26.2886	0
27.0131	67
28.0173	7
29.0122	55
29.9865	1
31.0027	6
35.9900	1
36.2493	0
36.9890	7
38.0022	18
38.7445	0
39.0011	148
39.7469	1
40.0014	24
41.0114	277
41.5201	0
42.0137	8
42.4273	0
43.0021	166
44.0068	3
45.0043	10
47.0459	1
47.9971	1
48.5293	0
49.0107	6
49.4046	0
49.9968	56
51.0017	134
52.0060	52
52.5607	0
53.0105	225
53.3736	1
54.0151	16
54.3484	0
55.0196	312
56.0340	8
56.3128	0
56.7350	0
57.0288	116
57.3947	0
58.0201	2
58.5231	0
59.0149	24
59.3749	0
59.9857	1
61.0159	10
61.5259	0
62.0071	35
62.5335	1
63.0129	113
63.4291	1
64.0174	23
64.3710	1
65.0171	203
65.4149	1
65.5432	0
66.0234	54
66.6224	1
67.0255	218
68.0340	7
69.0266	180
69.4955	1
70.0237	2
70.6337	1
71.0198	80
71.4474	0
72.0382	1
73.0089	3
73.6432	0
74.0088	27
74.5726	0
75.0147	34
75.3238	3
75.5654	1
76.0311	26
77.0272	560
78.0381	124
78.4001	3
79.0449	375
80.0402	65
80.3654	1
81.0512	224
82.0267	36
82.4750	3
82.5857	1
83.0527	81
83.6219	1
84.0210	4
84.7463	1
85.0539	120
85.7156	1
86.0404	14
86.6296	0
87.0387	19
88.0360	11
88.4859	2
89.0545	70
90.0479	27
91.0558	999
91.5051	2
92.0542	99
93.0626	339
94.0605	34
94.5810	5
95.0524	389
96.0479	25
97.0462	51
98.0543	8
98.4849	1
98.7312	1
99.0395	10
99.5476	0
99.7379	1
100.0400	3
100.5432	1
101.0325	20
101.3399	3
102.0395	63
102.4207	3
103.0535	193
103.6170	3
104.0489	85
105.0484	812
106.0520	109
107.0558	310
107.5340	2
108.0476	40
108.5937	1
109.0509	173
109.4533	1
110.0496	15
110.5456	1
111.0486	21
111.5584	3
112.0438	5
113.0344	17
114.0337	25
114.3037	6
115.0368	592
115.4638	5
116.0410	204
117.0452	478
118.0342	103
118.5151	2
119.0471	620
120.0502	96
121.0526	254
121.6806	2
122.0453	30
122.4543	1
123.0437	64
123.4329	2
123.7220	1
124.0256	7
124.3525	1
124.6158	2
125.0595	16
125.5440	5
126.0499	31
127.0538	209
128.0439	620
129.0522	564
130.0556	194
131.0714	542
132.0744	115
133.0821	363
134.0838	50
135.0725	197
136.0746	16
137.0882	49
137.6338	3
138.0665	13
139.0688	93
140.0796	31
141.0911	479
142.0935	332
143.1005	520
144.1082	184
145.1125	516
145.5239	6
146.1166	83
146.6743	4
147.1139	309
147.7314	3
148.1272	44
149.1178	104
150.1030	29
151.1143	62
152.0948	206
153.0964	242
154.1015	121
154.6028	4
155.0974	400
156.0968	216
157.1065	466
158.1060	135
159.0990	420
160.0966	80
161.0966	152
161.4520	5
162.0883	32
163.0922	84
163.4805	3
164.0878	33
165.0839	392
166.0863	126
167.0873	274
168.0897	102
169.0955	301
169.5284	4
170.1038	139
171.1046	304
171.6368	2
172.1019	91
173.1065	248
174.1046	38
175.1191	117
175.5511	3
176.0824	38
177.0897	66
177.3892	10
178.0875	207
179.0907	245
180.0992	102
181.1032	263
182.1076	96
183.1203	280
184.1264	81
184.6366	5
185.1309	178
186.1298	34
186.4921	2
187.1311	82
188.1128	20
189.1168	121
190.1212	44
191.1219	152
192.1289	105
193.1323	180
194.1400	76
194.6120	3
195.1460	226
196.1464	83
197.1581	223
198.1473	59
199.1527	129
200.1504	38
201.1484	96
202.1398	85
203.1404	96
204.1534	42
205.1476	108
206.1721	76
207.1550	138
208.1651	60
209.1675	152
210.1692	43
210.5485	3
211.1812	113
212.1513	36
213.1679	115
213.6427	3
214.1616	21
214.5664	3
215.1626	79
215.5876	4
216.1810	54
217.1875	97
218.1846	35
219.1800	90
220.1767	35
221.1767	97
222.2009	38
223.1893	104
224.1890	25
225.2050	76
226.1801	26
226.6677	3
227.1834	37
228.1479	21
228.5986	2
229.1819	31
229.5935	2
230.1890	25
230.4842	3
231.1792	48
232.2049	22
233.1936	78
234.1915	26
234.6926	3
235.1927	70
235.6295	3
236.2040	27
237.2036	68
238.2134	22
238.5450	2
239.2163	43
239.7229	3
240.1884	9
241.2078	29
242.1973	10
242.5533	2
243.2152	27
244.1839	13
244.5844	3
245.1790	29
245.7995	3
246.2156	21
247.1915	47
248.2219	22
248.6894	3
249.2233	62
250.2330	20
251.2167	53
251.7689	2
252.2347	13
253.2057	32
254.2292	10
255.2106	89
256.2163	9
257.2343	28
257.5968	5
258.1920	16
258.5132	3
259.2123	27
260.1391	9
260.6701	2
261.2091	32
261.6888	3
262.2088	11
263.2167	40
263.7228	2
264.2117	15
264.5081	2
265.2199	37
265.7846	3
266.2142	14
267.2087	33
268.2144	11
269.2303	25
270.2191	23
270.6501	1
271.2192	25
271.6270	1
272.2094	6
273.2169	15
274.2174	14
275.2333	15
276.2089	10
276.4301	3
276.6493	2
277.2392	29
278.2555	7
279.2507	22
280.2481	11
281.2396	18
281.6674	1
282.2163	14
283.2497	26
283.8361	2
284.2499	17
284.6536	1
284.8394	1
285.2199	6
285.6086	1
286.2386	24
287.2584	11
288.2611	5
288.5328	2
289.2559	14
290.2266	4
290.5903	2
291.2479	24
292.2542	8
292.7595	1
293.2940	10
294.1823	5
294.5432	1
294.8271	1
295.2800	15
295.7601	1
296.2393	8
296.7427	1
297.2755	7
298.0005	1
298.3048	4
298.8448	1
299.2877	1
299.8278	1
300.2798	2
300.6470	1
300.8594	0
301.2498	6
302.1147	2
302.3980	1
302.5427	1
303.2822	10
304.2722	4
305.2795	18
305.7514	2
306.2566	11
306.7295	3
307.2904	45
307.6886	2
308.2415	6
308.6427	2
309.2522	17
309.6869	1
310.2924	16
310.8313	1
311.2762	4
311.5097	1
311.9718	1
312.4238	1
313.2661	2
313.5867	1
313.9589	1
314.2681	1
314.5671	2
315.3621	6
315.5601	3
315.9551	2
316.3117	1
316.6502	1
317.2998	11
317.8727	1
318.3295	3
318.9510	2
319.3289	6
319.7443	1
320.3193	5
321.2856	24
322.2894	20
322.6028	3
322.8474	3
323.2761	13
323.4662	6
323.7502	3
324.2032	4
325.2882	5
325.6097	3
326.2033	3
326.8192	3
327.6607	3
328.1523	3
328.7713	3
329.2346	3
329.4460	2
330.1724	5
330.4931	3
331.2782	5
331.6343	3
332.3011	7
333.3131	31
334.0883	2
334.4455	4
334.6297	3
335.2765	33
336.3170	40
336.8474	3
337.2888	46
337.7565	3
338.3072	12
339.0716	2
339.8057	2
347.6205	443
349.2773	27
350.2838	32
351.3723	275
352.0795	5
352.5419	2
353.1521	1
353.7335	1
354.0457	1
354.3702	1
355.0827	1
355.3809	0
355.6710	0
356.3856	1
356.5847	1
357.4470	2
366.2165	999
367.9858	117
368.6212	50
369.5844	17
370.3757	9
371.2135	5
372.4745	4
373.0877	2
