Mass spectrum: beta-Cryptoxathin-5',6'-epoxide; FAB-EBEB; MS2; m/z: 568.43; [M]+*
Name: beta-Cryptoxathin-5',6'-epoxide
Formula: C40H56O2
Exact mass: 568.42803
SMILES: C(C(=CC=CC(C)=CC=CC=C(C=CC=C(C)C=CC(=C(C)3)C(C)(C)CC(C3)O)C)C)=CC(C21C)(C(CCC2)(C)C)O1
InChI: InChI=1S/C40H56O2/c1-30(18-13-20-32(3)22-23-36-34(5)28-35(41)29-37(36,6)7)16-11-12-17-31(2)19-14-21-33(4)24-27-40-38(8,9)25-15-26-39(40,10)42-40/h11-14,16-24,27,35,41H,15,25-26,28-29H2,1-10H3/b12-11+,18-13+,19-14+,23-22+,27-24+,30-16+,31-17+,32-20+,33-21+/t35-,39-,40+/m1/s1
Instrument: JMS-HX/HX 110A, JEOL
Instrument type: FAB-EBEB
Ms type: MS2
Ion mode: POSITIVE
Collision energy: 3 kV
Ionization: FAB
Base peak: 105.1015
Precursor m/z: 568.43
Precursor type: [M]+*
m/z	relative intensity
0.1694	0
13.0214	0
14.0168	0
15.0403	3
19.0085	1
20.3523	0
23.0063	4
25.0214	1
26.0119	4
27.0328	41
28.0480	5
29.0443	45
30.0429	2
31.0297	7
35.9851	1
37.0065	2
38.0272	13
39.0365	103
39.6550	0
40.0471	13
41.0541	274
42.0552	8
43.0429	400
43.4588	1
44.0579	5
45.0406	10
47.0237	0
49.0225	1
50.0262	25
51.0403	73
52.0345	25
53.0534	140
54.0485	9
54.3258	0
55.0693	400
56.0805	16
57.0831	136
58.0709	4
59.0727	24
60.0511	4
60.4369	0
61.0385	4
61.4503	0
62.0339	15
63.0428	50
64.0452	11
64.4858	1
65.0601	108
66.0576	21
67.0709	201
68.0689	11
69.0850	547
70.0746	9
71.0725	62
71.7303	1
72.0251	2
72.4604	1
73.0884	4
74.0351	11
75.0574	30
75.5549	2
76.0323	11
77.0548	357
77.4860	3
78.0680	73
79.0705	381
80.0797	48
81.0893	444
82.0666	13
82.4801	0
83.0931	142
84.0882	5
84.4787	0
85.0860	111
86.0331	8
87.0727	37
87.5974	0
88.0232	4
88.3154	1
89.0692	41
89.5003	5
90.0896	18
91.0829	796
92.0887	81
93.0968	561
94.1017	40
95.1082	476
96.0973	23
97.1002	46
98.0621	7
99.1160	13
99.5418	1
100.0282	3
100.2362	2
100.7350	2
101.0678	13
101.3838	3
102.0754	44
103.0783	129
104.0883	66
105.1015	999
106.1125	109
107.1177	537
108.1023	58
109.1231	297
110.0819	17
111.1007	42
111.4709	1
111.6574	0
112.0919	4
112.2932	1
113.0499	21
113.5749	3
114.0736	16
115.0747	379
116.0868	155
117.0816	411
117.5977	3
118.0886	91
119.0998	961
120.0976	115
121.1049	480
122.0960	50
123.1021	209
123.6523	2
124.0986	12
124.4758	1
125.0842	51
126.0479	17
127.0810	168
128.0704	440
129.0719	552
130.0774	228
131.0842	616
132.0811	121
133.0971	566
133.6557	4
134.0937	82
135.0997	261
136.0703	43
136.4615	1
137.1067	92
138.0642	15
138.5682	3
139.0766	73
140.0693	34
141.0756	375
142.0801	379
143.0843	660
144.0950	221
145.1054	755
146.1015	90
147.1097	283
148.1091	50
149.1234	149
150.0856	23
151.1116	88
152.0923	167
153.0851	219
154.0956	119
155.1113	467
156.1165	283
157.1241	626
158.1297	170
159.1432	480
160.1505	64
160.5423	3
161.1557	210
162.1364	30
163.1377	71
163.5149	7
164.1241	33
165.1241	387
166.1220	134
167.1306	301
167.6295	4
168.1383	140
169.1494	437
170.1385	159
171.1553	395
172.1529	85
173.1627	260
174.1788	38
175.1743	161
176.1406	49
177.1531	103
178.1107	167
179.1188	285
180.1204	152
181.1270	324
182.1328	132
183.1363	370
184.1519	91
185.1468	215
186.1350	46
187.1525	128
188.1104	29
189.1148	135
190.1355	56
191.1209	164
192.1097	126
193.1135	265
194.1178	140
195.1328	350
196.1253	110
197.1486	327
198.1450	62
198.4763	5
199.1535	130
200.1309	45
201.1505	77
202.0957	92
203.1308	138
204.1130	54
205.1304	189
206.1396	94
207.1348	208
208.1349	90
209.1470	240
210.1495	65
210.6842	4
211.1698	140
211.6511	4
212.1877	37
213.1713	94
214.1698	26
215.1601	110
216.1537	56
216.5039	5
217.1550	133
218.1509	61
219.1589	133
220.1805	72
221.1733	176
222.1928	47
223.1967	159
223.6179	4
224.1966	37
225.1795	104
226.1627	33
227.1974	66
228.1639	38
229.1631	76
230.1865	41
231.1826	95
232.1879	44
233.1891	113
234.2170	65
235.2015	94
236.1718	36
237.2037	81
238.2083	33
239.1884	69
240.2127	18
241.2301	59
242.1877	34
243.1911	62
244.1905	46
245.1873	65
246.1756	46
247.2200	95
247.7203	3
248.2060	23
249.2085	89
250.1937	33
251.2351	74
252.2062	38
253.2159	67
254.2318	19
254.6021	3
255.2268	64
256.2235	33
257.2147	49
258.2003	34
258.5490	3
259.2318	68
260.2239	24
261.2251	44
262.2311	23
263.2285	46
263.8105	3
264.2232	20
265.2329	41
266.1795	21
267.2415	68
268.2417	23
269.2334	49
270.2431	40
271.2516	52
271.6046	5
272.2646	26
272.6642	3
273.2792	38
274.2557	19
275.2399	41
276.2612	17
276.6273	3
277.2635	39
278.2529	24
279.2307	34
280.2471	23
281.2534	39
282.2896	36
283.2535	56
284.2858	24
285.2694	36
285.7695	4
286.2593	21
287.2641	36
287.7126	1
288.2278	19
289.2509	23
290.2193	12
290.6541	2
291.2738	26
292.2249	14
293.2651	23
294.2685	12
295.2736	32
296.2641	15
297.2830	40
298.2829	37
299.2637	41
300.2580	9
301.2348	24
302.2296	12
302.5780	3
303.2616	23
304.2079	14
305.3057	26
306.2494	15
307.2674	23
308.1655	7
308.4772	2
309.2656	25
310.2769	11
311.2631	30
312.2867	13
312.5110	5
313.2317	16
313.5824	2
314.2928	11
315.2620	17
315.7377	1
316.2789	8
316.6060	3
317.2946	25
318.2836	13
318.7105	1
319.2625	16
320.3352	12
321.2430	24
322.2551	15
323.2868	12
324.2561	7
324.7296	1
325.1720	11
326.1699	7
327.2708	11
327.6299	1
328.3153	7
329.2691	12
329.5941	2
330.2872	15
331.2860	25
332.3073	8
332.8340	1
333.2984	27
334.3224	21
334.7422	3
335.3005	26
335.7666	3
336.3011	94
336.7315	2
337.3272	20
338.2983	11
339.2994	11
340.3110	4
340.6642	2
341.2931	11
341.7104	2
342.3230	9
343.2800	13
343.8853	3
344.3191	12
345.3077	20
346.3233	24
347.3525	46
348.2820	18
349.3174	49
350.3158	11
351.3053	25
351.7411	1
352.3069	50
353.2699	11
354.2897	7
355.3052	8
356.2581	8
356.4658	4
357.3142	12
358.2719	11
359.3278	20
360.2851	12
361.2934	26
362.3122	30
363.3446	51
363.9050	3
364.3383	10
364.8256	2
365.3412	23
366.3471	9
367.2606	5
368.2787	6
368.8335	1
369.3494	8
370.3604	7
370.6999	3
371.2817	12
371.7709	1
372.3513	8
372.7924	1
373.3452	19
374.3882	11
375.3387	27
375.7661	1
376.3340	12
376.8109	3
377.3236	9
378.3087	15
378.8335	3
379.3853	8
380.3214	7
381.3727	8
382.3763	5
383.3502	9
384.3331	7
384.6952	1
385.3011	12
385.7710	2
386.4130	12
387.3364	18
387.7166	3
388.3977	43
389.3213	13
390.3603	7
391.3141	17
392.2770	9
393.3928	11
393.8002	1
394.3948	25
395.3191	3
396.4053	9
396.7679	3
397.3523	13
398.3563	6
399.4039	9
400.2747	7
400.4905	4
400.8069	3
401.3945	24
402.3974	36
402.8637	4
403.4065	20
403.7334	4
404.3947	30
405.0486	5
405.4181	6
406.3682	5
407.4007	6
407.7209	3
408.4512	3
408.9975	2
409.3507	4
409.5214	2
410.3671	5
411.2638	7
411.5407	3
412.3926	13
413.3823	15
414.3557	11
415.3815	36
416.3640	19
416.9107	2
417.3916	10
418.3698	13
419.3406	13
419.9250	1
420.3265	7
420.5603	5
420.9888	3
421.5099	4
421.8287	1
422.4229	32
423.0771	4
423.4588	6
423.8391	4
424.4919	4
425.4037	13
426.3321	7
427.3310	8
427.8087	2
428.3539	18
428.7808	4
429.3904	19
430.3626	13
431.3753	19
431.8053	3
432.3641	16
433.3905	10
434.3646	8
435.3687	7
435.6684	3
436.4643	7
437.1778	5
437.4971	8
437.8733	4
438.2346	7
439.2720	11
439.9107	2
440.5645	15
441.4791	9
442.1089	4
442.4344	6
443.3087	5
443.8996	3
444.3496	13
444.6436	3
445.4041	19
446.3311	15
447.3273	17
447.9634	7
448.4946	7
449.4159	7
450.4828	5
450.9886	3
451.3547	4
452.4308	5
453.0973	3
453.4440	4
453.7382	4
454.4888	13
457.3917	14
458.3152	16
460.4161	46
461.4644	14
462.3867	10
462.9912	3
463.5012	2
463.7427	3
464.0847	4
464.3997	4
464.9023	5
465.4603	7
465.9359	4
466.4235	3
467.0987	3
468.3981	11
469.2399	9
469.8372	3
470.4750	10
471.4956	13
472.3557	15
473.2743	20
474.3506	15
475.4586	39
476.4420	288
477.0366	6
477.7588	6
478.1087	4
478.5111	5
478.8775	3
479.3116	6
479.6269	4
480.2892	6
480.9050	2
481.4232	7
481.7341	1
482.4746	8
483.3188	7
483.5963	4
483.9893	4
484.4602	11
485.0182	3
485.5056	5
485.8492	3
486.4897	33
487.3553	8
487.6568	6
488.4714	235
489.4107	17
490.0033	4
490.4865	3
490.7731	3
491.1512	4
491.7365	4
492.4207	3
492.7464	0
493.4338	7
494.4483	10
495.5470	6
496.4207	11
497.4294	10
498.3932	5
498.7926	3
499.2715	1
499.6934	1
500.2594	5
500.6363	4
501.1994	3
501.9381	1
502.5523	4
502.9458	3
503.5390	2
503.8769	4
504.1607	4
504.5031	4
505.3067	4
505.7197	2
505.9540	1
506.3641	5
506.8087	4
507.4456	8
507.7400	4
508.4160	7
508.9944	3
509.5006	13
510.5108	18
511.5223	9
512.9475	9
514.0042	5
514.3144	8
514.7356	10
515.3367	8
516.3094	14
517.0995	12
517.7816	12
518.5026	12
518.8879	10
519.4322	11
520.0964	11
520.6271	11
521.2959	10
521.7292	9
522.4775	14
522.7774	8
523.4297	18
524.5050	63
525.4693	242
526.2147	13
526.5807	10
526.9302	4
527.6367	5
528.0267	3
528.8892	7
529.5372	11
530.3143	9
531.5430	11
532.3907	15
533.2520	14
535.1682	46
536.4647	26
537.3862	31
539.3043	260
540.4435	81
541.6654	14
543.0916	15
545.4576	19
550.4370	603
551.4658	73
552.5096	57
553.5032	441
556.5372	25
568.4794	999
570.2833	426
571.0638	208
571.8127	89
572.8004	47
574.6797	20
