Mass spectrum: beta-Carotene-5,6-epoxide; FAB-EBEB; MS2; m/z: 552.43; [M]+*
Name: beta-Carotene-5,6-epoxide
Name: beta-Carotene 5,6-epoxide
Formula: C40H56O
Exact mass: 552.43312
SMILES: C(=CC(=C(C)3)C(C)(C)CCC3)C(C)=CC=CC(=CC=CC=C(C=CC=C(C=CC(C21C)(C(CCC2)(C)C)O1)C)C)C
InChI: InChI=1S/C40H56O/c1-31(19-13-21-33(3)24-25-36-35(5)23-15-27-37(36,6)7)17-11-12-18-32(2)20-14-22-34(4)26-30-40-38(8,9)28-16-29-39(40,10)41-40/h11-14,17-22,24-26,30H,15-16,23,27-29H2,1-10H3/b12-11+,19-13+,20-14+,25-24+,30-26+,31-17+,32-18+,33-21+,34-22+/t39-,40+/m1/s1
Instrument: JMS-HX/HX 110A, JEOL
Instrument type: FAB-EBEB
Ms type: MS2
Ion mode: POSITIVE
Collision energy: 3 kV
Ionization: FAB
Base peak: 105.0863
Precursor m/z: 552.43
Precursor type: [M]+*
m/z	relative intensity
11.9925	0
13.0079	0
14.0181	1
15.0178	3
18.6249	0
22.7124	0
22.9747	0
24.0038	0
25.0096	1
26.0130	6
27.0201	41
28.0312	5
29.0344	39
30.0314	0
31.0272	1
36.0141	1
36.3613	0
36.5976	0
37.0038	5
37.2144	0
38.0164	10
39.0195	109
39.7394	0
40.0331	16
41.0358	300
41.5837	0
42.0390	7
42.3231	0
42.5817	1
43.0224	430
43.5542	0
44.0372	2
44.3637	0
45.0262	3
47.9968	0
48.6380	0
49.0093	2
49.2204	1
49.4603	0
50.0170	32
50.4596	0
51.0206	77
52.0277	28
53.0360	141
54.0440	8
55.0483	431
56.0623	11
56.4101	0
57.0619	47
58.0548	3
58.5162	0
59.0407	6
60.0844	0
61.0188	3
61.6346	0
62.0270	18
63.0347	61
63.6967	1
64.0349	17
65.0414	119
65.6484	1
66.0447	28
67.0519	196
68.0582	9
69.0645	806
70.0552	5
70.4892	1
71.0432	85
71.5125	0
72.0092	1
72.9953	1
73.4226	0
74.0125	19
75.0293	29
76.0212	17
76.2871	3
77.0370	365
78.0472	83
79.0467	376
80.0578	51
81.0619	405
82.0587	14
83.0719	102
83.6496	1
84.0753	2
84.2845	1
85.0599	37
85.6732	0
86.0281	6
86.5130	0
87.0352	13
87.6553	0
88.0472	7
89.0529	36
89.4170	4
90.0596	18
91.0636	754
92.0749	71
93.0770	519
94.0793	33
94.4972	2
95.0824	506
96.0824	13
96.3501	2
97.1025	33
98.0433	3
98.3431	0
98.6508	0
99.0519	8
99.6295	0
100.0391	3
101.0567	10
102.0659	42
103.0717	142
103.4605	4
104.0729	63
105.0863	999
106.0945	102
107.1003	507
108.0842	54
109.1012	322
110.0673	8
111.1021	31
112.0131	2
113.0895	30
114.0815	15
115.0657	419
116.0646	146
117.0730	407
118.0788	90
119.0834	912
120.0801	94
121.0941	395
122.0922	49
123.0929	193
124.0519	5
125.0955	13
126.0529	20
127.0615	162
128.0550	470
129.0633	557
130.0714	222
131.0753	571
132.0872	113
133.0867	519
134.0900	53
135.0811	234
136.0704	23
136.4960	2
137.1059	62
138.0633	8
139.0723	102
140.0946	29
141.0673	407
142.0725	351
143.0801	676
144.0846	208
145.0928	683
146.0883	78
146.4906	4
147.1067	244
148.1026	29
149.1050	195
150.0792	19
151.1097	54
152.0857	172
153.0833	243
154.0887	122
155.0964	454
156.1091	293
157.1171	647
158.1190	129
159.1314	446
160.1447	52
161.1420	181
162.1331	22
163.1320	67
164.1372	75
165.1264	553
166.1178	137
167.1268	329
168.1221	138
169.1307	426
170.1386	165
171.1431	406
172.1482	71
173.1498	247
174.1339	27
175.1579	142
176.1123	33
177.1433	188
178.1018	198
179.1074	301
180.1136	130
181.1119	350
182.1180	138
183.1232	392
184.1277	88
185.1285	238
186.1369	44
187.1432	126
188.1245	24
189.1050	127
190.0973	49
191.1143	206
192.1135	151
193.1103	282
194.1063	124
195.1184	350
196.1183	114
197.1301	309
198.1125	57
199.1410	144
200.1387	37
201.1611	109
202.1041	91
203.1290	159
204.1215	57
205.1445	343
206.1223	99
207.1276	220
208.1363	103
209.1412	239
210.1580	58
211.1696	166
212.1716	32
213.1740	77
214.1654	17
214.5170	5
215.1428	112
216.1250	45
217.1492	134
218.1668	65
219.1574	139
220.1499	63
221.1686	160
222.1677	53
223.1945	148
224.1901	35
225.2062	90
226.1996	36
227.1816	69
228.1705	34
229.1583	81
230.1566	34
231.1870	116
232.1659	47
233.1740	108
233.6602	6
234.1839	38
235.1869	103
236.1976	31
237.1898	85
238.2040	25
239.1868	85
240.1916	27
241.1852	81
242.1935	30
243.2008	80
244.1838	31
245.1903	66
246.1942	38
247.1927	88
248.1827	23
249.2079	75
250.2088	21
251.2041	66
252.2025	34
253.2227	77
254.2360	22
255.2176	70
256.2082	30
257.1991	62
258.2441	32
259.2094	58
260.2492	21
261.2078	58
262.2016	17
262.6906	2
263.2234	55
263.6499	4
264.2396	19
265.2342	60
266.2408	24
267.2491	75
268.2212	24
269.2242	65
270.2407	33
271.2439	64
272.2284	16
273.2292	37
274.2667	10
274.6237	2
275.2374	45
275.6820	8
276.2506	31
277.2626	39
278.2662	15
279.2641	35
280.2477	19
281.2621	62
282.2784	31
283.2539	74
284.2355	17
285.2451	28
286.2741	10
287.2491	23
288.2374	7
289.2581	32
290.2293	9
291.2768	35
292.2616	10
293.2540	33
294.2320	14
295.2438	38
296.2587	27
297.2534	24
298.2483	7
299.2581	15
300.2007	7
301.2562	20
302.2314	9
303.2332	25
304.2338	9
305.2565	23
306.2442	7
307.2409	27
308.2599	10
309.2599	54
310.1824	7
311.2240	9
312.2818	5
313.2797	14
313.7230	2
314.2176	8
315.2364	16
316.2481	6
317.2834	24
318.2867	6
319.3004	31
320.2790	11
321.2549	37
322.2970	18
323.2923	9
324.2701	3
325.2849	8
326.2837	3
326.6588	1
327.3062	11
327.6461	2
328.3092	6
329.2770	18
330.2450	6
331.2896	20
332.3079	11
333.3175	28
334.3302	16
335.3181	45
336.2974	260
337.2694	15
337.8224	1
338.3313	4
338.8035	1
339.2581	6
340.2997	5
340.6278	1
341.2885	9
342.2510	5
343.2976	14
344.2766	8
345.3205	23
346.3189	11
347.3131	31
348.3192	13
349.3224	67
350.3318	3
350.5691	1
351.2941	7
351.8070	1
352.3111	2
353.2678	7
353.7986	1
354.3795	4
354.6699	2
355.3079	9
356.2936	4
357.3267	18
358.3333	11
359.3135	17
360.3588	31
361.3275	26
362.3288	28
362.7182	2
363.3495	10
364.3230	3
365.3409	6
366.3929	7
367.3447	9
367.7107	2
368.2996	3
368.6273	2
369.3746	8
370.3741	3
371.3029	14
372.3557	19
373.3098	27
374.4086	9
375.3409	30
376.3190	7
376.8058	1
377.3886	5
377.7118	0
378.3803	1
378.6267	1
379.3410	5
380.4436	6
381.3573	7
381.7928	1
382.3538	5
383.3387	7
383.8835	1
384.3886	3
385.3722	10
386.3810	43
387.3825	32
388.3930	143
389.4140	5
389.8336	2
390.4912	4
391.3720	9
391.7888	1
392.3741	3
392.7230	0
393.4133	8
394.3831	5
395.3752	5
396.4073	3
397.3538	8
397.9084	2
398.4216	6
398.6967	2
399.3564	12
400.3882	5
401.3905	19
402.4047	8
403.4043	10
404.3788	3
405.4746	6
406.4169	75
407.3711	6
408.4967	4
409.3876	10
410.3908	5
411.2641	5
412.4168	16
412.8986	3
413.4514	16
414.4269	6
415.3907	20
416.4123	38
417.3648	6
418.1860	1
419.3351	8
419.6719	2
420.0796	1
420.4016	2
420.8980	2
421.3663	3
421.7445	1
422.3207	3
423.3476	4
424.3318	6
424.8505	2
425.3914	16
426.4467	5
426.8251	2
427.4178	7
428.3477	4
429.4180	14
430.3569	10
431.2870	6
432.4108	12
432.8146	1
433.3854	6
434.1678	2
435.1648	3
435.8364	3
436.6234	3
437.3882	7
438.3736	4
439.4390	23
440.3284	7
441.4590	14
442.7260	13
443.7133	9
445.4424	20
446.4136	8
446.9274	1
447.4205	2
447.8781	2
448.2853	1
448.8820	2
449.4078	6
449.9943	2
450.4637	1
450.8975	1
451.4284	5
452.5034	5
453.4750	11
457.3948	31
458.4615	28
459.4365	95
460.4560	185
461.3587	7
462.0468	3
463.1716	1
463.7695	1
464.4829	2
465.4717	6
465.7560	2
466.4828	6
466.7493	2
467.4643	23
468.4045	6
468.9804	2
469.2381	2
470.4804	8
471.5659	12
472.4634	542
473.4838	18
474.0230	5
474.4999	1
474.8865	2
475.5013	1
476.5071	2
477.5234	2
477.9618	2
478.4944	1
478.9619	1
479.5167	5
480.5199	2
481.5172	5
482.4657	9
483.5016	5
483.9649	2
484.5051	3
484.9461	1
485.4094	1
485.7158	0
485.9866	0
486.2353	1
486.4322	0
486.9962	1
487.3307	1
487.7348	1
488.3003	1
488.7859	2
489.4566	2
489.9111	1
490.4248	2
491.2644	1
491.5368	1
492.5259	3
492.9080	1
493.5344	6
494.4556	13
494.9073	1
495.4923	5
495.8196	1
496.4683	5
497.4400	5
498.4177	2
499.0399	2
499.7050	2
500.7747	2
501.6444	3
502.2800	2
503.1409	3
503.7084	3
504.4314	5
505.4218	4
506.4005	3
507.5167	10
508.5487	21
509.5068	27
510.4768	16
511.2739	2
511.6924	3
512.0251	2
512.7231	2
513.2541	3
513.8886	3
515.4890	4
516.5969	5
518.1975	5
518.9091	8
519.4847	16
520.0691	8
520.7600	6
521.5206	17
522.4572	23
523.5316	36
524.4949	96
525.3296	4
526.1540	2
527.1426	3
528.0722	2
529.3837	10
534.5743	140
535.4435	32
536.4919	69
537.5449	616
538.5726	15
552.4525	999
555.1271	194
556.1731	78
558.0329	28
558.9237	17
560.2111	9
561.5074	5
563.7229	4
564.3845	4
565.0357	3
565.4161	2
566.4819	3
567.4529	2
