Mass spectrum: Isofucoxanthinol; FAB-EBEB; MS2; m/z: 616.41; [M]+*
Name: Isofucoxanthinol
Formula: C40H56O5
Exact mass: 616.41277
SMILES: O=C(C=C(C2(C)O)C(CC(O)C2)(C)C)C(=CC=CC(C)=CC=CC=C(C=CC=C(C)C=C=C(C(C)(O)1)C(C)(C)CC(C1)O)C)C
InChI: InChI=1S/C40H56O5/c1-28(17-13-18-30(3)21-22-35-37(5,6)24-32(41)26-39(35,9)44)15-11-12-16-29(2)19-14-20-31(4)34(43)23-36-38(7,8)25-33(42)27-40(36,10)45/h11-21,23,32-33,41-42,44-45H,24-27H2,1-10H3/b12-11+,17-13+,19-14+,28-15+,29-16+,30-18+,31-20+,36-23+/t22?,32-,33-,39+,40+/m0/s1
Instrument: JMS-HX/HX 110A, JEOL
Instrument type: FAB-EBEB
Ms type: MS2
Ion mode: POSITIVE
Collision energy: 3 kV
Ionization: FAB
Base peak: 598.5557
Precursor m/z: 616.41
Precursor type: [M]+*
m/z	relative intensity
1.5552	0
8.1994	0
13.9849	1
15.0041	1
18.0094	1
18.9917	1
22.9365	3
24.9666	0
25.9889	4
26.9872	24
27.9770	3
28.9894	24
30.9826	6
36.9634	2
37.9775	10
38.3230	0
38.7592	0
38.9760	61
39.6450	0
39.9876	8
40.9972	121
41.9755	3
42.4933	1
42.9739	554
43.9900	4
44.9989	12
46.9725	3
47.8957	0
48.9591	2
49.1112	0
49.6052	1
49.9673	17
50.6954	1
50.9747	58
51.6511	1
51.9898	21
52.9909	82
53.9793	4
54.3822	0
55.0025	142
56.0099	6
57.0159	80
57.9906	6
59.0100	42
60.0009	1
60.9734	8
61.1490	0
61.9919	8
62.3298	1
62.5428	1
62.9858	36
63.4472	1
63.5741	0
63.7565	0
63.9924	8
64.3518	1
64.5576	0
64.9919	62
65.5635	1
65.9887	16
66.4250	0
66.5844	1
67.0091	100
67.2895	0
67.8231	1
67.9926	4
68.9990	197
69.9988	5
70.9952	45
71.9380	0
73.0013	4
73.9689	14
74.7105	0
74.9758	16
75.2402	2
75.4817	1
75.8040	1
75.9766	5
76.5304	1
76.9800	160
77.2556	1
77.3873	1
77.5756	1
77.7456	1
77.9902	36
78.2488	0
78.5405	1
78.7367	1
79.0006	129
80.0063	26
80.2058	1
80.5215	1
81.0073	103
81.2809	2
81.9785	11
82.6836	1
82.9967	137
84.0026	4
85.0004	90
85.5924	0
85.9630	6
86.9856	79
87.8618	1
87.9987	3
88.6796	1
88.9799	21
89.2811	2
89.4560	2
89.6675	1
89.9586	8
90.2111	1
90.4211	2
90.5848	2
90.9985	280
91.6362	1
91.9957	24
92.2184	1
92.3425	1
93.0096	172
93.2838	1
93.3846	1
93.5613	1
94.0196	16
94.7137	2
95.0152	159
95.2144	1
95.4275	1
95.8582	2
96.0220	18
96.4695	1
97.0071	36
97.9962	5
98.9842	6
99.8236	0
99.9724	3
100.7787	0
101.0208	9
101.1308	1
101.5307	0
101.7047	1
101.9903	16
102.2134	1
102.5506	2
103.0055	55
103.2919	2
103.4208	1
103.5511	1
104.0081	22
104.1907	1
104.3498	1
104.6114	1
105.0235	295
105.5463	1
106.0396	28
106.1947	1
106.4247	1
107.0384	165
107.3231	2
107.5432	1
108.0230	23
108.2409	1
108.5249	0
109.0399	133
109.3590	2
109.6269	1
109.7404	1
110.0413	7
111.0207	52
111.3917	1
111.7481	1
112.0288	2
112.4675	1
112.6292	1
112.9922	45
113.3012	2
113.4658	1
113.7731	4
113.9991	6
114.1471	3
114.3901	2
115.0045	166
115.2291	4
115.4745	1
115.5988	2
116.0128	59
116.3182	1
116.4971	3
116.6139	1
117.0169	134
117.4026	2
117.4864	1
117.6482	0
118.0089	29
118.3692	2
118.5188	0
118.6972	2
119.0253	278
119.3366	1
119.6024	1
120.0203	28
120.2284	0
120.3458	1
120.5625	1
121.0247	164
121.3573	1
121.5396	2
122.0169	26
122.5567	1
123.0086	69
123.2195	1
123.7065	1
124.0141	6
125.0158	47
125.2431	2
125.4639	2
125.7361	2
126.0169	10
126.3044	2
126.6309	0
126.9930	49
127.2585	2
127.5380	3
127.9975	157
128.2964	3
128.4759	2
128.6297	2
129.0047	190
129.2042	3
129.4169	1
129.5075	0
130.0046	76
130.4399	0
130.7238	2
131.0138	169
131.2171	2
131.4874	1
131.6523	0
132.0090	38
132.2934	1
132.4745	0
132.5760	2
133.0141	156
133.3308	1
133.6058	1
134.0071	28
134.4811	2
135.0094	151
135.3834	1
135.6438	1
136.0035	30
136.3940	2
137.0095	73
137.2323	2
137.4746	2
137.5807	1
137.7383	2
138.0007	11
138.3175	0
138.6377	1
139.0109	34
139.3983	2
139.6413	1
140.0015	9
140.2754	3
140.4463	2
140.9905	174
141.3412	2
141.4626	1
141.6981	2
142.0095	104
142.5003	2
143.0081	214
143.3724	2
143.5041	2
144.0233	70
144.2406	2
144.4822	2
144.6639	1
145.0228	206
145.4612	1
146.0246	36
146.3550	2
146.5222	2
147.0194	129
147.3150	1
147.4487	1
147.5675	1
148.0173	22
148.1896	1
148.3227	2
149.0243	84
149.5072	1
149.6006	1
150.0025	11
150.2002	1
150.3857	2
150.5144	1
151.0170	69
151.3294	2
151.4812	2
151.9999	61
152.2115	4
152.4564	4
153.0169	102
153.3428	1
153.5527	6
153.7341	6
154.0194	45
154.2389	2
155.0187	167
155.3554	1
155.5133	1
155.6902	2
156.0292	101
156.2838	2
156.5549	3
157.0399	192
157.3957	2
158.0461	52
158.3347	1
158.4663	1
158.6676	1
159.0505	184
159.4595	2
159.5476	1
160.0401	28
160.2601	2
160.3941	1
160.5554	3
161.0545	148
161.3014	1
161.4929	1
161.5955	2
162.0321	14
162.2840	2
162.3969	3
162.5058	3
162.6948	2
162.8174	2
163.0660	36
163.3887	1
163.6457	1
164.0673	12
164.3683	3
164.5164	2
165.0378	145
165.3871	2
165.6040	1
166.0544	43
166.4658	2
167.0671	163
167.2987	2
167.5414	1
167.7780	2
168.0641	48
168.3434	2
168.6172	3
169.0749	136
169.4784	3
169.6451	3
170.0776	48
170.3843	1
170.5421	1
170.6930	1
171.0873	129
171.3494	2
171.6341	3
171.8156	3
172.0825	29
172.4781	0
172.6680	5
173.0858	100
173.3137	2
173.5402	4
173.7000	1
174.0823	19
174.3489	1
174.5474	1
174.6887	1
175.0844	54
175.4050	2
175.5264	1
175.6891	1
175.7815	0
176.0727	20
176.4301	2
177.0714	29
177.5098	3
177.6576	2
178.0507	50
178.5262	2
179.0730	119
179.4837	2
180.0613	48
180.4592	1
180.5755	2
181.0670	117
181.3412	1
181.5303	3
181.6106	2
182.0755	44
182.2937	2
182.5356	3
183.0818	113
183.6165	3
183.7254	1
184.0736	41
184.2874	2
184.5809	2
184.7378	1
185.0849	91
185.5952	2
186.0641	24
186.5609	3
187.0752	61
187.4214	1
188.0627	12
188.4543	3
188.6408	3
189.0661	57
189.4886	3
189.6808	4
190.0617	21
190.5076	3
190.7152	2
191.0546	56
191.4428	1
191.7147	4
192.0570	32
192.4281	3
192.5592	1
193.0692	107
193.4433	0
194.0792	53
194.4556	2
194.6938	2
195.0808	116
195.3560	1
195.5377	2
196.0808	39
196.4919	2
196.6339	2
197.0828	120
197.4963	1
197.6257	2
198.0840	22
198.3528	1
198.6223	1
199.0802	62
199.3695	1
199.5453	1
199.7239	2
200.0651	13
200.3440	2
200.5991	1
200.7400	1
201.0771	38
201.2917	3
201.5132	3
202.0512	27
202.3079	3
202.4187	3
202.5177	3
202.6552	2
203.0636	49
203.4511	1
203.5718	1
204.0815	24
204.4657	1
205.0614	52
205.4472	2
205.5519	1
205.7873	2
206.0833	44
206.3188	1
206.4446	3
206.5852	1
206.7554	5
207.0902	101
207.4946	3
207.6804	2
208.0857	32
208.5108	3
208.6030	1
209.0894	88
209.4324	2
210.1043	27
210.3220	2
210.5009	1
211.0964	64
211.5363	2
211.6913	3
212.1102	13
212.3542	1
212.6257	3
213.0906	50
213.3524	3
213.5408	1
213.6657	1
213.8887	3
214.0800	14
214.4167	1
214.5628	5
215.0903	50
215.4724	1
215.6299	2
216.0856	26
216.2672	3
216.4361	1
216.6007	2
217.0750	43
217.4645	2
217.6180	2
217.7021	1
218.0917	28
218.4079	3
218.4970	2
218.6194	0
218.7977	1
219.1076	54
219.4982	3
219.6503	1
220.0885	24
220.3731	0
220.7200	2
221.1116	60
221.4636	3
221.6131	2
221.7675	1
222.0984	19
222.2926	2
222.4669	1
222.6745	1
223.1218	52
223.4500	2
223.6386	5
223.8123	3
223.8946	1
224.1470	17
224.3804	1
224.5648	2
224.6882	1
224.8081	1
225.1323	55
225.3608	3
225.7334	1
226.0939	15
226.2842	2
226.6633	2
226.8145	2
227.1284	29
227.3734	2
227.5062	2
227.6340	2
227.7534	2
228.1206	12
228.5192	1
228.6642	2
229.1283	33
229.4687	1
230.1349	14
230.4165	1
231.1277	34
231.6691	2
232.1359	24
232.4313	2
232.5544	3
233.1559	82
233.4343	2
233.6052	2
233.7996	2
234.1628	27
234.5240	2
235.1736	50
235.6418	1
235.7555	2
235.8557	2
236.1676	16
236.3809	2
236.4960	2
236.7007	1
236.8067	2
237.1707	32
237.4622	1
237.7922	2
237.9472	3
238.1478	14
238.6230	3
239.1281	31
239.6618	1
239.9188	4
240.1487	8
240.2946	3
240.4875	2
240.6207	2
240.7659	2
241.1504	26
241.6148	2
241.7757	1
242.1141	12
242.2694	5
242.4539	2
242.6826	0
242.8166	2
243.1430	30
243.5620	3
243.7096	3
244.1245	9
244.4296	1
244.5408	1
244.7405	2
245.1441	36
245.5856	1
245.7033	1
246.1456	26
246.3311	3
246.4367	2
246.5887	2
247.1617	40
247.4508	1
247.6335	1
248.1754	20
248.5417	4
248.7102	2
249.1373	31
249.4809	2
249.5923	0
250.0802	10
250.2503	7
250.3896	2
250.7162	1
250.8419	1
251.1443	21
251.5359	1
251.7297	1
251.8698	1
252.1493	11
252.3839	2
252.4833	1
252.7371	2
252.9059	2
253.1312	27
253.2671	10
253.6734	3
254.1227	7
254.5412	1
255.1474	29
255.3700	2
256.1066	11
256.2763	2
256.6995	1
257.1585	32
257.5095	1
257.7824	1
258.1779	9
258.5547	2
258.6852	3
258.8019	1
259.1552	34
259.4871	2
259.6541	2
260.1394	16
260.3925	1
260.7108	0
261.1669	27
261.4659	1
261.6567	2
261.8460	2
262.1717	11
262.4105	2
262.5526	1
262.8603	2
263.1746	28
263.4178	2
263.5563	1
263.8412	1
264.1649	8
264.4376	2
264.6838	1
264.8762	2
265.1770	19
265.8103	1
266.1342	10
266.2800	3
266.7993	1
267.1599	20
267.7433	1
268.0487	5
268.2276	8
268.3548	2
268.4820	1
268.6423	2
268.9125	3
269.2022	14
269.6789	2
269.7565	1
270.1512	8
270.3857	1
270.6021	1
270.7934	1
270.8862	1
271.1768	22
271.5774	2
271.7709	1
271.9328	3
272.1026	11
272.2371	6
272.4487	1
272.6847	2
272.8365	1
273.1855	32
273.6375	2
274.1904	11
274.5007	1
274.8830	3
275.1912	24
275.7025	1
275.8293	1
276.1498	5
276.4027	3
276.5712	1
277.2081	15
277.4539	1
278.1759	5
278.3057	3
278.5565	1
278.7562	4
278.8405	3
279.1620	15
279.5679	0
279.7280	2
279.9261	1
280.1714	5
280.2902	1
281.1681	12
281.6683	1
281.8562	1
282.2162	5
282.4811	4
282.6071	2
282.7496	1
283.2278	14
283.3660	5
283.7751	1
284.1330	8
284.3138	2
284.6992	2
284.8109	2
285.2165	32
285.6935	2
285.9320	1
286.2109	13
286.6008	2
286.7464	0
286.9374	2
287.2099	23
287.5278	1
287.6771	2
287.7903	3
287.9308	2
288.0938	2
288.2178	4
288.3937	2
289.1906	8
289.7936	2
290.1962	6
290.3470	3
290.6832	1
290.8607	1
291.1724	12
291.7050	1
292.0233	0
292.1590	4
292.3084	3
292.5791	1
292.6953	1
293.1877	11
293.3985	3
293.4996	2
294.1949	8
294.7453	2
295.1447	10
295.2877	4
295.6590	1
295.9242	2
296.1951	6
296.3295	3
296.4639	1
297.2046	20
298.1823	10
298.5238	1
299.1926	18
299.6895	5
299.9156	3
300.2126	6
300.5138	1
300.6294	1
300.9264	2
301.1894	12
301.4019	2
301.7097	2
301.8312	1
302.1578	6
302.4137	2
303.1807	12
303.2899	3
303.4099	2
303.5487	2
303.8191	2
303.9587	1
304.1872	4
304.3947	2
304.5799	1
304.7289	2
305.2047	11
305.5881	1
305.7523	1
306.2153	2
306.7181	2
307.1292	17
307.3173	7
307.7059	1
308.0866	6
308.3899	1
308.6902	1
309.1507	19
309.3606	6
309.5163	1
309.6350	1
310.1505	20
310.3851	3
310.6205	2
311.2057	22
311.3925	4
311.7554	2
311.8547	0
312.1705	11
312.2842	5
312.4436	2
312.7740	2
313.2044	21
313.5174	1
313.6218	1
313.9044	0
314.1631	7
315.2126	15
315.6077	1
315.7505	2
316.1247	8
316.2421	3
316.6424	1
316.8896	2
317.1812	9
317.3690	4
317.6207	2
317.7019	1
317.8404	2
317.9695	1
318.1813	6
319.0968	9
319.2136	4
319.5394	1
319.7781	2
320.1946	6
320.4355	2
320.7411	2
321.1664	5
322.0106	1
322.2095	5
322.4011	1
322.7685	2
323.1889	6
323.6609	0
324.1583	5
324.3101	4
324.5483	2
324.7125	0
324.8824	1
325.2122	9
325.4643	1
325.9815	2
326.2438	7
327.2087	4
327.4151	2
327.5699	1
327.6884	1
327.8083	1
328.0816	6
328.2255	6
328.4166	2
328.8237	1
329.1784	7
329.3369	3
329.6277	2
330.1934	2
330.4333	0
330.7278	1
331.1758	7
331.5285	2
332.0034	1
332.1999	1
332.3817	2
332.7607	2
333.1732	8
333.4198	2
333.5879	2
333.7181	1
334.0273	2
334.2085	3
334.3570	1
335.1997	8
335.3998	2
335.5192	1
336.1830	6
336.4269	2
336.6424	1
337.1411	5
337.4702	1
338.0192	3
338.2238	3
338.7867	2
338.8807	1
339.2062	8
339.8246	1
340.1065	1
340.2850	2
340.4343	2
340.6878	1
341.0478	2
341.2947	8
341.8841	2
342.0448	2
342.2783	3
342.5780	1
342.9352	1
343.1592	5
343.3607	5
343.6707	1
344.1545	5
344.3131	1
344.4128	1
344.5307	2
344.6646	1
344.9091	2
345.0546	3
345.2416	9
345.4541	2
346.0182	1
346.1194	1
346.3239	2
346.4506	1
346.9383	2
347.2680	9
348.0551	3
348.2677	2
348.4228	1
348.5699	1
349.1611	10
349.3068	5
349.7474	1
350.0598	3
350.2944	2
350.4765	2
350.7708	3
350.8917	2
351.1496	8
351.3069	5
351.5918	2
351.8555	1
352.2628	5
353.0082	3
353.2953	18
354.0955	2
354.1939	1
354.2930	1
354.4680	1
354.9279	2
355.1874	6
355.3769	6
355.9682	1
356.0775	1
356.2620	4
356.5026	0
357.0072	4
357.2660	5
357.5293	2
357.8334	1
358.0864	1
358.2119	3
358.3942	1
359.1725	4
359.2804	3
359.5941	1
359.7852	2
359.8939	2
360.0865	2
360.2944	4
360.4469	2
360.5556	1
360.7621	1
360.8971	1
361.2524	4
361.4326	1
361.5713	2
361.8727	1
362.0952	2
362.2996	3
362.7681	2
362.9732	1
363.3038	18
363.6542	1
364.0367	2
364.3521	6
364.7288	1
365.2092	11
365.3800	12
366.1854	3
366.3658	4
366.8945	1
367.2823	11
367.4203	5
367.6387	1
367.7315	1
367.8607	1
368.0645	2
368.3085	5
369.2465	8
369.3955	3
369.4933	2
369.9361	0
370.2856	3
370.3739	1
371.0181	1
371.3086	8
372.2966	3
372.4681	3
373.1513	2
373.4053	3
373.9622	2
374.1090	3
374.3236	3
374.4506	2
375.2113	4
375.4260	5
375.6596	1
376.0956	2
376.3511	3
377.1019	2
377.2954	6
377.4648	2
377.7015	2
377.9388	1
378.1061	2
378.3179	2
378.5429	2
378.8322	1
379.3574	8
379.5868	1
379.7789	1
379.9272	2
380.1800	4
380.2823	3
380.6623	2
381.3024	26
381.7803	1
382.1406	5
382.3488	4
382.5769	0
383.1185	1
383.3209	3
384.0373	2
384.1396	3
384.2455	2
384.7186	2
385.3523	5
385.4567	2
386.1351	2
386.5221	1
386.9223	2
387.1005	1
387.2437	2
387.3868	4
388.3531	3
389.2714	6
389.4226	3
389.6271	2
389.7228	1
390.1122	4
390.3073	8
390.4688	2
390.5923	1
390.7523	1
391.0168	2
391.2857	5
391.4640	2
391.8389	2
392.2314	7
392.3958	4
392.8482	2
393.0835	2
393.3466	4
394.1266	2
394.3006	1
394.4373	1
394.6076	2
394.7436	0
395.2619	5
395.4798	3
395.6918	0
395.9404	3
396.0157	2
396.9173	1
397.1235	4
397.3429	2
397.5228	1
398.1430	1
398.3010	2
399.3016	10
399.5342	3
399.7646	2
400.0887	2
400.4610	3
400.6615	1
401.0207	3
401.1663	3
401.3280	12
401.4999	5
401.8694	1
402.0070	2
402.1724	2
402.3685	1
402.4695	2
402.7790	1
402.9773	3
403.2635	3
403.4289	3
404.3240	3
404.9300	2
405.0808	1
405.2565	3
405.3985	5
405.6071	2
405.8275	1
406.2213	1
406.3238	1
406.4314	1
406.6189	0
406.8312	2
406.9176	1
407.2251	3
407.3803	2
407.5458	3
407.8753	2
408.1045	4
408.2495	1
408.3673	3
408.4794	2
409.0916	2
409.1890	2
409.3523	2
409.4842	4
410.3271	3
411.2428	2
412.1013	2
412.2735	2
412.5006	2
412.6068	1
413.2875	4
413.3981	4
413.4860	2
414.2825	2
414.4056	2
414.5698	1
415.1340	1
415.3033	2
415.4690	1
416.0010	2
416.2385	2
416.3602	1
416.4863	1
416.9348	1
417.3559	7
417.5264	3
417.6844	1
417.8263	1
418.0414	2
418.2477	8
418.4540	7
419.3525	53
419.7930	2
419.9635	1
420.1281	2
420.4077	6
420.5694	2
421.1263	2
421.3159	2
421.5230	1
421.7242	1
422.1378	2
422.3149	2
422.6135	0
422.8360	2
423.2664	2
423.3894	2
423.4883	2
424.0322	2
424.1588	3
424.3879	1
424.5446	2
424.6676	1
425.2167	3
425.3727	4
425.5191	1
425.9533	1
426.0968	2
426.2498	1
426.4475	2
427.0370	1
427.2282	2
427.3453	2
427.9005	1
428.1319	2
428.2755	2
428.4475	4
428.5303	2
428.9171	0
429.1983	2
429.3660	3
429.4942	2
429.6598	2
430.2429	3
430.4377	3
431.2253	3
432.2942	3
432.4547	2
432.8474	1
433.2057	3
433.8990	1
434.3123	3
434.5021	2
435.1302	4
435.3630	8
436.1699	4
436.3309	2
436.5023	2
436.6407	1
437.3670	1
437.5626	1
438.5307	1
439.1364	3
439.3766	3
439.6212	2
439.9091	1
440.2131	2
440.4577	4
440.6848	2
440.8181	1
441.0152	0
441.2078	1
441.4005	3
441.7704	2
442.1704	1
442.3426	5
442.5280	2
442.9316	2
443.3683	4
443.5134	2
443.7361	1
444.1187	1
444.3165	3
444.4960	2
444.6939	2
445.0090	1
445.3586	5
445.5594	2
445.7140	1
446.2629	5
446.4014	1
446.5590	0
446.7005	1
446.9152	2
447.3521	37
447.5397	8
448.1650	4
448.4641	2
448.7250	2
448.8130	1
448.9970	2
449.3387	3
449.7338	3
450.0454	1
450.2778	3
450.6840	2
450.9216	1
451.0616	1
451.1716	1
451.4077	3
451.6416	2
451.9423	2
452.1755	2
452.3808	4
452.5363	2
452.9095	0
453.3268	5
453.4603	2
454.2906	2
454.5113	2
454.6881	2
455.0431	0
455.4216	4
455.6350	1
456.1977	2
456.3444	3
456.6936	2
456.9783	1
457.1543	2
457.2989	3
457.4911	1
458.0802	2
458.2468	2
458.3891	1
458.6041	1
459.0407	1
459.3540	3
459.5125	2
459.6072	1
459.8691	1
460.2750	3
460.5450	3
460.9009	1
461.2231	8
461.3508	6
461.5578	1
461.7530	1
461.8661	1
462.2433	8
463.2702	29
463.7092	1
463.8751	2
464.0483	1
464.2840	4
464.4212	3
464.8221	2
465.1583	2
465.3529	4
465.9197	1
466.4417	2
467.2068	1
467.4029	1
467.6026	1
467.9426	2
468.0843	2
469.0544	1
469.3430	2
469.5061	2
469.6376	1
470.1487	2
471.2258	3
471.4325	2
472.0718	1
472.2668	2
472.4875	1
473.0857	2
473.4795	3
473.9055	1
474.0587	1
474.3153	2
474.9474	0
475.1483	4
475.2349	2
475.3229	2
475.4864	1
475.8025	1
475.9294	2
476.3510	15
476.5725	4
476.7251	1
477.1013	2
477.3859	4
477.5237	2
477.7761	2
478.2162	5
478.4472	5
478.6592	3
478.7428	1
478.9863	1
479.0802	1
479.3663	9
479.6414	2
480.0859	2
480.4528	3
480.5613	2
481.0338	1
481.1879	1
481.3551	2
481.4696	2
481.5686	2
482.1461	1
482.2789	2
482.4550	2
482.7426	1
482.9003	2
483.4169	3
483.8154	2
483.9438	2
484.2314	1
484.5206	2
485.2207	2
485.4225	2
485.5326	1
485.6295	1
485.7315	1
486.3267	2
486.5256	3
486.8376	0
487.1018	1
487.3617	3
487.7316	2
488.2205	2
488.4077	1
488.7343	2
488.8907	5
489.1285	3
489.3407	3
489.5433	4
489.9471	3
490.1681	2
490.2635	3
490.4794	1
490.6607	2
491.1226	2
491.2320	1
491.4933	2
491.6497	1
491.9523	1
492.1762	2
492.4083	2
493.0611	1
493.3195	2
493.5670	2
494.3660	3
494.5930	1
494.7773	2
495.1166	2
495.3817	2
495.5029	3
495.8547	1
496.1162	1
496.2763	2
496.6047	2
497.0968	1
497.2636	3
497.4230	3
497.5941	3
497.8924	1
498.2185	2
498.4037	3
498.4991	3
498.7849	2
499.2469	4
499.4251	4
499.5924	2
499.8469	2
500.1711	1
500.3626	2
500.6010	1
500.9472	1
501.1240	2
501.4659	2
501.6082	1
501.8371	2
501.9787	2
502.1848	5
502.4710	0
502.7791	2
502.9127	3
503.4512	2
503.9186	1
504.3537	2
504.9150	3
505.1432	2
505.3597	2
505.5212	2
505.8140	3
506.3680	5
506.5816	3
506.9016	2
507.3551	5
507.6377	3
508.2087	3
509.1423	1
509.3119	4
509.4682	2
509.9468	2
510.2449	1
510.4394	3
510.7095	3
510.8461	2
511.1397	3
511.3827	3
512.3342	1
512.8980	1
512.9986	2
513.1205	2
513.3532	4
513.4406	2
513.5867	2
513.9472	0
514.1110	0
514.3915	4
514.5596	2
514.8563	2
515.1419	2
515.4334	4
515.7485	2
516.0760	1
516.4226	3
516.6782	4
516.9418	1
517.2642	1
517.4265	1
517.5661	1
517.6829	2
518.3453	3
518.4379	3
518.6127	4
519.1518	2
519.3898	5
519.5469	2
519.6902	3
520.0259	1
520.2837	4
520.4291	3
520.6583	2
521.4796	2
522.0145	1
522.2584	2
522.5331	3
523.2178	2
523.4551	5
523.8549	1
523.9672	2
524.1333	2
524.4397	4
524.6704	2
524.7689	2
525.5117	2
525.7631	2
526.0261	2
526.6811	1
527.0302	2
527.1379	1
527.2552	2
527.5456	3
527.7158	2
528.1997	3
528.4131	3
528.6661	1
529.0885	2
529.4112	2
529.6437	1
529.7727	1
530.0015	2
530.5516	2
531.2073	2
531.2968	2
531.4589	2
531.5593	2
531.8388	1
532.0222	3
532.4432	1
532.5833	2
532.8070	2
533.1290	1
533.6484	1
534.3438	2
534.7979	2
535.2535	1
535.4280	1
535.6085	2
536.0487	2
536.2336	3
536.3796	3
536.5300	4
536.8822	2
537.0561	1
537.1434	1
537.2872	1
537.4662	7
538.0422	1
538.2103	1
538.4531	2
538.6270	1
539.0893	3
539.4863	4
540.0844	1
540.2304	2
540.3845	3
540.5489	3
540.7705	2
540.8887	4
541.1228	1
541.3246	3
541.5088	4
541.6233	2
542.0336	1
542.2670	2
542.6185	3
542.8057	2
542.9451	2
543.1873	1
543.7510	2
543.9742	3
544.1357	3
544.4072	6
544.5812	1
544.7222	3
545.0187	3
545.2037	2
545.3138	2
545.4827	2
545.7219	1
545.9238	2
546.1367	0
546.3077	1
546.4913	2
546.6132	2
546.7820	1
546.9633	2
547.2343	1
547.4787	3
547.6681	2
548.0059	2
548.0925	1
548.4280	1
548.5983	1
548.6805	1
548.7819	1
548.8928	1
549.0198	2
549.3458	1
549.4720	1
549.7717	4
549.9016	2
550.1909	1
550.3759	4
550.5874	1
550.7137	2
550.9186	2
551.1205	3
551.4649	4
551.7866	2
552.1266	3
552.5532	4
552.8433	3
553.0636	2
553.3596	3
553.5278	3
553.7150	3
553.9427	3
554.3702	5
554.6456	5
554.8674	3
555.0349	3
555.3918	8
555.6041	2
555.9640	3
556.1843	2
556.4290	2
556.6824	2
557.2178	8
557.4676	6
557.5660	2
557.7578	3
557.8856	2
557.9840	1
558.4255	3
558.6047	2
558.7884	2
559.0859	3
559.4643	5
559.6722	4
559.9903	1
560.3033	3
560.6067	2
560.7117	1
561.0931	3
561.3142	3
561.5207	2
561.7374	1
561.9160	1
562.2679	2
562.3862	2
562.5126	2
562.6221	2
562.7786	3
563.1585	1
563.3179	2
563.4921	4
563.6750	4
563.8646	1
564.1542	2
564.2857	2
564.5605	3
564.6605	2
564.9963	6
565.1271	3
565.3314	9
565.5820	8
565.7401	6
565.8892	4
565.9760	2
566.1053	4
566.3448	4
566.5903	4
566.8535	4
567.0372	4
567.2018	6
567.3437	3
567.5428	5
567.9684	8
568.1933	5
568.4528	10
568.7210	5
569.0790	8
569.5406	10
569.8692	6
570.0721	6
570.4087	8
570.7505	9
571.1674	8
571.4349	10
571.7765	10
572.1469	8
572.3384	10
572.5892	10
573.0770	13
573.3338	9
573.5546	8
573.8209	7
574.2097	9
574.4598	7
574.7445	8
574.9139	7
575.1223	8
575.4671	12
575.8178	8
576.0804	8
576.3571	3
576.5529	7
576.6483	3
576.7628	3
577.0416	7
577.2492	6
577.5515	4
577.8281	6
578.3835	6
578.7262	4
578.8473	3
579.1841	9
579.5598	8
579.7894	7
579.9898	2
580.1483	3
580.5145	30
580.7684	10
580.9276	5
581.1463	5
581.4259	8
581.8662	5
582.1429	2
582.3396	7
582.6119	6
582.7902	3
583.5476	20
584.1355	2
584.3102	3
584.5392	5
584.7396	3
585.3796	16
586.3257	24
587.5751	33
588.5574	24
589.5242	34
597.5742	105
598.5557	999
599.4962	67
600.0325	23
600.5072	27
600.9305	16
601.5278	58
601.9254	20
602.2974	16
602.8690	18
603.5837	23
606.1007	25
606.9006	26
607.6389	25
616.4952	999
617.4343	364
618.0819	186
618.5981	114
619.4146	60
620.4971	31
620.7039	18
621.6258	12
621.8635	13
622.0695	10
622.4737	9
622.6989	5
622.8917	6
623.1418	6
623.3384	3
623.6274	6
623.8299	3
