Mass spectrum: Coenzyme Q10; FAB-EBEB; MS2; m/z: 869.70; [M+Li]*+
Name: Coenzyme Q10
Class: Natural Product; Lipid
Formula: C59H90O4
Exact mass: 862.68391
SMILES: C(CC=C(CCC=C(C)CCC=C(C)C)C)C(=CCCC(C)=CCCC(=CCCC(=CCCC(=CCCC(=CCCC(=CCc(c(C)1)c(c(OC)c(OC)c1=O)=O)C)C)C)C)C)C
InChI: InChI=1S/C59H90O4/c1-44(2)24-15-25-45(3)26-16-27-46(4)28-17-29-47(5)30-18-31-48(6)32-19-33-49(7)34-20-35-50(8)36-21-37-51(9)38-22-39-52(10)40-23-41-53(11)42-43-55-54(12)56(60)58(62-13)59(63-14)57(55)61/h24,26,28,30,32,34,36,38,40,42H,15-23,25,27,29,31,33,35,37,39,41,43H2,1-14H3/b45-26+,46-28+,47-30+,48-32+,49-34+,50-36+,51-38+,52-40+,53-42+
Instrument: JMS-HX/HX 110A, JEOL
Instrument type: FAB-EBEB
Ms type: MS2
Ion mode: POSITIVE
Collision energy: 3 kV
Ionization: FAB
Base peak: 869.6019
Precursor m/z: 869.70
Precursor type: [M+Li]+*
m/z	relative intensity
6.0033	0
7.0038	4
14.9871	0
22.9412	0
24.9917	0
27.0030	0
28.0078	0
29.0225	0
35.0078	0
35.9941	0
37.0068	0
37.9801	0
38.9794	1
39.9869	0
41.0109	2
42.0234	0
43.0273	0
50.0024	0
50.9872	0
52.1179	0
53.0026	1
54.0073	0
55.0137	2
56.0185	0
57.0029	0
57.9726	0
58.9777	0
60.0042	0
61.9367	0
62.9779	0
64.0085	0
64.9305	0
66.0045	0
66.4525	0
67.0147	3
68.0231	2
69.0229	17
70.0338	0
71.0342	0
72.2134	0
72.7009	0
73.9729	0
75.0255	2
76.0263	2
77.0001	2
78.0136	0
78.3282	0
78.9930	2
80.0348	0
81.0128	6
82.0516	0
83.0226	0
85.0339	0
85.9722	0
86.9700	0
87.9995	0
88.9769	0
89.4748	0
90.3170	0
91.0107	1
92.0349	0
92.9990	2
93.4233	0
94.0364	0
95.0296	1
96.0510	0
96.9750	0
98.0494	0
98.9710	0
99.9168	0
100.9756	0
102.0371	0
103.0562	0
103.9740	0
105.0054	1
106.0430	0
106.9916	1
108.0547	0
109.0527	1
110.0907	0
111.0536	0
112.0167	0
113.0026	0
114.0817	0
115.0091	0
116.0412	0
117.0290	1
117.4601	0
118.0462	0
119.0214	1
120.0253	0
121.0446	1
122.1063	0
123.0755	0
123.9944	0
125.0367	0
125.5401	0
125.9937	0
127.0222	0
128.0117	1
128.9796	1
129.9880	0
131.0315	1
132.0081	0
133.0001	1
133.9190	0
135.0183	0
135.4043	0
136.0565	0
137.0628	1
138.0014	0
138.9671	0
140.0512	0
140.9682	0
142.0356	1
142.9772	1
144.0298	1
144.9800	1
145.3497	0
145.9815	0
146.9944	1
148.5124	0
149.0064	0
149.9511	0
151.0040	0
152.0583	0
152.9828	0
154.0337	0
154.9382	1
155.9309	0
156.4399	0
157.0019	1
157.9646	1
158.9752	4
159.9687	1
161.0225	1
161.9509	0
162.9826	0
164.0974	0
164.9799	0
165.9290	0
166.2449	0
167.0166	1
167.9555	0
168.2330	0
168.9879	1
169.9823	0
171.0107	1
171.9577	1
172.9882	3
173.9578	3
175.0008	2
175.5041	0
176.0201	1
177.0590	0
178.0201	0
179.0756	1
180.0344	1
181.0253	2
181.4565	0
182.0401	1
183.0287	2
183.9889	1
185.0358	2
186.0040	2
187.0172	5
188.0186	10
189.0265	6
190.0309	2
191.0466	1
191.6522	0
192.2581	0
193.0302	1
193.5739	0
194.0674	1
195.0213	2
196.0455	1
197.0221	3
198.0057	2
199.0324	4
200.0134	1
201.0142	5
202.0073	13
203.0075	10
204.0000	1
205.0187	0
205.9809	0
206.3944	0
206.9948	0
208.0157	2
208.9928	3
210.0407	2
211.0086	6
212.0197	3
213.0018	5
213.9717	1
214.3662	0
214.9870	1
215.8579	0
217.0241	1
217.6012	0
218.1784	0
219.0255	1
219.9715	0
220.3719	0
221.1324	1
222.0282	1
222.9740	2
224.0490	1
225.0089	6
226.0316	6
227.0163	6
228.0424	1
229.0326	1
229.5818	0
230.1678	0
231.0213	1
231.3404	0
232.1060	0
232.5461	0
233.1591	1
234.1976	0
235.0618	1
235.8853	0
237.0380	1
238.0746	1
239.0468	3
240.0520	6
241.0535	67
242.0121	3
243.0819	3
244.0003	0
244.4977	0
245.0256	0
246.0907	0
247.0584	0
247.4587	0
248.0876	0
249.0215	0
250.0691	0
251.1086	1
252.1072	0
253.0888	1
254.1146	1
255.0797	7
256.0781	18
257.1076	4
258.0720	1
259.1615	0
260.3392	0
261.0216	0
262.0967	0
263.1199	0
264.0058	0
265.0780	1
266.1354	0
267.1342	1
268.0348	0
269.0893	1
270.1552	0
271.0636	0
272.0975	0
273.1692	0
274.0897	0
275.1118	0
276.1079	0
277.1418	0
278.0155	0
279.1911	1
280.1515	0
281.1232	1
282.0424	0
283.0193	0
284.1267	0
285.1905	0
286.2370	0
287.0587	0
288.2143	0
289.2289	0
289.7109	0
290.1709	0
291.1088	0
292.1815	0
293.1457	2
294.1545	1
295.0729	1
296.2131	0
297.2008	0
299.4901	0
300.1951	0
301.0179	0
302.0784	0
302.7975	0
303.4234	0
304.1051	0
304.9379	0
305.4199	0
307.1021	1
308.1848	1
309.1300	9
309.9754	0
311.1036	0
313.1498	0
315.1960	0
317.2479	0
319.2387	0
320.0506	0
321.0679	0
323.1414	3
324.1642	6
325.1470	1
326.2598	1
326.6755	0
327.7127	0
329.0410	0
329.3698	0
330.7950	0
331.2739	1
332.2342	0
333.2093	0
333.6294	0
334.3022	0
335.1539	0
335.9969	0
337.2294	1
338.2273	0
339.0218	0
339.6351	0
340.0336	0
340.4993	0
342.1813	0
343.0035	0
344.0389	0
344.6037	0
345.2673	0
346.1866	0
347.4023	0
348.4904	0
349.1412	1
350.1782	0
351.2402	0
352.3159	0
353.1740	0
355.8843	0
356.5835	0
357.3009	0
357.7237	0
359.1926	0
360.3290	1
361.1663	4
362.1613	1
363.1949	0
363.8165	0
364.1837	0
365.1952	0
365.4160	0
367.0544	0
368.4116	0
369.4805	0
371.3235	0
372.1765	0
373.4382	0
374.3570	0
375.2151	1
375.6577	0
376.2608	1
377.1847	5
378.2128	0
378.6783	0
379.1823	0
379.4581	0
380.0955	0
381.1061	0
383.3859	0
383.8362	0
384.5579	0
385.9189	0
387.2073	0
389.2469	0
390.2466	0
391.2080	6
392.2127	4
393.2379	1
394.1229	0
394.6504	0
395.4293	0
397.1324	0
397.9706	0
399.3437	0
400.2071	0
401.2589	0
402.4242	0
403.2859	0
405.1866	1
406.2121	0
406.9428	0
408.8948	0
411.2358	0
412.3329	0
413.2075	0
413.7892	0
414.4390	0
415.3072	0
416.4209	0
417.2553	0
419.2899	0
424.8134	0
425.3497	0
426.1610	0
427.3589	0
428.3183	0
429.2733	5
430.3671	0
430.9471	0
431.3634	0
432.1801	0
432.5919	0
433.4041	0
435.3792	0
435.9203	0
438.0446	0
438.9342	0
440.5338	0
441.3053	0
441.7309	0
442.5936	0
443.3972	1
444.2761	0
445.3030	4
446.2573	0
447.2505	0
448.2665	0
449.1209	0
450.0667	0
451.3703	0
453.1827	0
453.7436	0
457.1624	0
458.3305	0
459.2707	5
460.2816	3
461.2334	1
462.2127	0
462.6145	0
463.2721	0
464.6696	0
465.1925	0
467.1592	0
469.7045	0
471.4941	0
472.6051	0
473.3092	1
473.8441	0
474.2822	0
475.2978	0
476.1012	0
477.3658	0
478.9434	0
479.5349	0
480.3935	0
480.9142	0
481.2431	0
481.6063	0
481.9718	0
482.3738	0
483.3173	0
484.3752	0
485.2000	0
485.8445	0
487.2752	1
489.4081	0
490.2884	0
493.7534	0
494.4782	0
494.8371	0
495.3468	0
496.2133	0
497.3176	3
498.4427	0
499.2339	0
499.5839	0
500.2975	0
501.3017	0
502.6652	0
505.4272	0
505.9033	0
506.7296	0
507.5102	0
508.2839	0
509.4127	0
509.9966	0
511.4095	0
512.1172	0
513.2969	3
515.2258	0
515.6360	0
516.2592	0
516.9971	0
517.6135	0
519.3692	0
520.7698	0
521.4507	0
523.2644	0
524.0464	0
526.4753	0
527.3768	5
528.4023	2
529.4647	1
530.5088	0
531.6127	0
532.2369	0
533.4167	0
534.1605	0
535.5334	0
536.5804	0
537.2494	0
537.5198	0
538.1270	0
539.6324	0
541.3948	1
542.3139	0
543.1024	0
544.6109	0
545.5417	0
547.4749	0
547.9335	0
549.3303	0
549.8922	0
551.5187	0
553.4896	0
554.5015	0
555.3965	1
556.8792	0
557.5517	0
559.3285	0
562.1458	0
563.6362	0
564.4493	0
565.4415	2
566.3810	0
566.7670	0
567.5021	1
568.4556	0
569.1679	0
569.5241	0
572.5020	0
575.3627	0
575.8151	0
576.9311	0
577.5007	0
578.6467	0
579.5265	0
580.3212	0
581.4998	4
582.5405	0
583.2689	0
583.6595	0
585.7185	0
588.5708	0
588.8857	0
589.3731	0
591.6055	0
592.6194	0
593.5508	0
595.4619	5
596.4693	2
597.4468	1
598.2290	0
598.7259	0
599.4207	0
600.0833	0
601.2130	0
602.7557	0
603.5773	0
604.3990	0
605.4480	0
605.9301	0
607.3304	0
607.7298	0
608.1385	0
608.5334	0
609.3943	1
610.5516	0
611.2314	0
611.5322	0
613.0984	0
613.5394	0
614.8601	0
615.8157	0
617.4238	0
618.0418	0
618.6368	0
619.5444	0
620.1580	0
621.3092	0
622.5732	0
623.4213	0
624.1843	0
629.7155	0
630.2467	0
631.3896	0
632.2979	0
632.7073	0
633.5168	1
634.5311	0
635.5847	0
635.9090	0
636.5623	0
637.4503	0
638.6535	0
639.3506	0
639.9672	0
641.6332	0
643.0392	0
643.7527	0
644.7884	0
645.4904	0
647.0280	0
647.6680	1
648.4185	0
649.5143	3
650.3708	0
650.7806	0
651.4346	0
651.8905	0
652.9543	0
653.4103	0
654.4789	0
655.9508	0
657.5466	0
658.1149	0
658.7668	0
659.8270	0
660.4255	0
663.6297	6
664.6090	3
665.6695	1
666.6210	0
667.3080	0
668.4639	0
669.7615	0
670.7596	0
671.6581	0
672.3429	0
672.9025	0
673.9960	0
674.7576	0
676.4689	0
677.8043	1
679.0514	0
679.6065	0
680.1802	0
682.1545	0
684.0084	0
685.1363	0
685.9321	1
686.2719	0
687.8110	0
688.4177	0
689.7746	0
690.1783	0
691.7475	1
692.6097	0
697.8659	0
699.0866	0
699.7347	0
700.6360	0
701.7770	1
702.4686	0
703.0688	0
703.6257	0
704.2236	0
706.0223	0
706.8669	0
707.4010	0
708.3826	0
711.9260	0
712.5197	0
713.1256	0
714.3943	0
715.6310	0
717.5644	2
718.3805	0
719.5461	0
720.5095	0
721.3235	0
723.5080	0
724.0507	0
725.1339	0
726.0331	0
726.7622	0
727.4062	0
727.9744	0
728.6644	0
729.1957	0
729.7271	0
730.2538	0
731.5582	5
732.3864	1
733.0536	0
733.7922	0
734.8829	0
735.6262	0
736.1348	0
736.7792	0
737.1957	0
737.7411	0
738.2866	0
739.1796	0
739.6998	0
741.8980	0
742.6047	0
743.4518	0
744.7272	0
745.5929	1
746.5783	1
747.4048	0
747.7571	0
748.1670	0
749.3137	0
750.1427	0
754.9790	0
755.8842	0
756.3840	0
757.1764	0
757.5081	0
758.8211	0
759.5675	1
760.7307	0
761.5994	0
763.8334	0
766.3387	0
768.3226	0
769.5939	1
770.0905	0
770.7595	0
771.3228	1
771.7894	0
772.4953	0
773.7277	0
774.2198	0
774.6888	0
775.5374	0
777.3195	0
777.8508	0
778.6373	0
779.6378	0
780.1552	0
781.2523	0
781.8020	0
782.1654	0
782.6301	0
783.6882	0
785.5560	2
786.5430	0
787.4033	0
788.4202	0
789.0115	0
790.1021	0
790.8706	0
791.5885	0
794.2278	0
795.4452	0
797.0815	0
797.7972	0
799.6109	4
800.5615	2
801.5927	1
802.2142	0
802.8887	0
804.4333	0
805.8630	0
806.4661	0
806.8506	0
807.6127	0
808.4208	0
809.1691	0
810.1339	0
811.0179	0
811.6181	0
812.3839	0
813.6006	1
814.5895	1
815.4429	0
815.8822	0
816.2778	0
817.2646	0
817.9155	0
819.1508	0
820.7703	0
821.1660	0
821.7872	0
823.5955	1
824.6055	0
825.5972	1
826.3220	0
827.6151	2
828.8347	0
829.7014	0
830.3669	0
830.9523	1
831.6225	0
832.7243	0
833.2454	0
833.7963	0
834.5170	1
835.0519	0
835.5501	1
837.9376	1
839.7445	4
842.4240	1
843.5583	1
844.4952	0
845.4368	1
846.2061	1
846.9524	1
847.4416	1
848.1926	1
848.9045	1
851.4493	3
853.5717	8
854.6605	11
856.2386	1
858.8392	1
869.6019	999
871.2520	12
872.5781	6
873.8974	3
