Mass spectrum: zeta-Carotene; FAB-EBEB; MS2; m/z: 540.47; [M]*+
Name: zeta-Carotene
Class: Natural Product; Carotenoid
Formula: C40H60
Exact mass: 540.46950
SMILES: C(C)(C)=CCCC(C)=CCCC(=CC=CC(=CC=CC=C(C=CC=C(CCC=C(C)CCC=C(C)C)C)C)C)C
InChI: InChI=1S/C40H60/c1-33(2)19-13-23-37(7)27-17-31-39(9)29-15-25-35(5)21-11-12-22-36(6)26-16-30-40(10)32-18-28-38(8)24-14-20-34(3)4/h11-12,15-16,19-22,25-30H,13-14,17-18,23-24,31-32H2,1-10H3/b12-11+,25-15+,26-16+,35-21+,36-22+,37-27+,38-28+,39-29+,40-30+
Instrument: JMS-HX/HX 110A, JEOL
Instrument type: FAB-EBEB
Ms type: MS2
Ion mode: POSITIVE
Collision energy: 3 kV
Ionization: FAB
Base peak: 540.4600
Precursor m/z: 540.47
Precursor type: [M]+*
m/z	relative intensity
1.1644	0
2.9721	0
12.9608	1
13.9745	1
14.9705	1
20.0177	0
21.5365	0
22.9030	0
24.9452	1
25.7126	0
25.9388	2
26.9425	7
27.9432	2
28.9560	8
36.9075	1
36.9707	0
37.9090	2
37.9755	1
38.9311	8
39.9224	1
40.9525	15
41.8600	0
42.9778	4
48.8110	1
48.9301	0
49.9585	1
50.7893	0
50.9377	2
51.9704	1
52.7747	0
52.9490	2
53.9716	0
54.9726	8
58.4843	1
58.8216	0
61.7565	1
61.9501	1
62.9229	2
63.7932	0
63.9265	1
64.1906	1
64.9218	3
65.9504	0
66.0533	0
66.7401	0
66.9556	6
67.9576	0
68.5415	1
68.9702	109
69.9983	0
70.9752	1
72.4872	1
73.5821	0
73.7710	1
74.7034	1
74.7720	0
74.9396	1
75.8919	1
76.9243	15
77.5247	0
77.8046	1
77.9393	3
78.6487	1
78.9367	18
79.6164	1
79.7089	1
79.7730	0
79.9441	2
80.5492	1
80.7352	1
80.9633	60
81.9601	1
82.9567	5
85.1208	0
86.9189	0
87.7834	0
87.9512	1
88.6815	1
88.8651	2
89.0853	0
89.4387	0
89.5872	1
89.9524	2
90.3230	1
90.9151	54
91.7346	0
91.9253	4
92.3872	1
92.5677	0
92.9473	45
93.2361	1
93.9642	2
94.5606	1
94.9705	45
98.7493	0
99.9023	1
100.6686	0
100.8824	1
101.0390	0
101.7854	1
101.9422	3
102.1671	1
102.8997	14
103.1572	0
103.3808	1
103.5980	0
103.6961	2
103.7859	1
103.9539	6
104.1514	1
104.3060	0
104.9436	109
105.1285	1
105.1897	1
105.4257	0
105.7425	1
105.9654	11
106.6463	2
106.9609	57
107.1547	2
107.3911	0
107.7467	1
107.8406	1
107.9721	3
108.9792	21
109.1583	1
109.2855	0
110.0625	0
110.6638	0
110.9661	0
111.4170	0
112.4521	0
112.5591	0
112.7231	1
112.8777	2
113.1906	1
113.5251	1
113.6049	0
113.8925	2
114.0736	2
114.3161	0
114.8862	36
115.1343	0
115.4166	0
115.8908	11
116.0987	3
116.2397	0
116.5446	1
116.9065	47
117.3684	1
117.6337	1
117.9212	8
118.4102	1
118.9331	99
119.1473	1
119.9399	29
120.2517	0
120.4489	1
120.6798	1
120.9625	51
121.1568	2
121.9846	2
122.9599	8
123.9128	1
124.6275	0
124.8863	1
125.4028	1
125.8452	3
126.6131	1
126.8803	17
127.1792	2
127.2980	2
127.8634	50
128.2209	1
128.5409	1
128.8926	64
129.1351	1
129.3253	0
129.6098	1
129.9066	26
130.1390	0
130.4756	0
130.9140	90
131.1338	1
131.9175	39
132.1401	1
132.3920	1
132.9333	139
133.3748	1
133.5753	1
133.7299	2
133.9605	9
134.7491	0
134.9597	16
135.7669	0
136.0605	1
136.1965	1
136.3093	1
136.7245	1
136.9539	13
137.0834	2
137.2380	0
137.8832	1
138.8436	3
139.4148	0
139.7790	1
139.9439	1
140.1150	1
140.2812	1
140.4203	0
140.8650	37
141.1342	1
141.2390	1
141.3431	2
141.8886	31
142.1291	0
142.9072	72
143.1985	0
143.2967	1
143.4109	1
143.8952	24
144.1367	0
144.3092	0
144.9311	140
145.1327	1
145.2410	2
145.3746	0
145.6778	1
145.9476	21
146.1915	2
146.5668	0
146.7272	1
146.9589	28
147.2241	1
147.6624	0
147.9314	1
148.1913	1
148.4022	1
148.6758	0
148.7838	0
148.9756	6
149.2264	0
149.3518	1
149.5530	1
149.9623	1
150.2848	0
150.6677	1
150.9257	2
151.1906	0
151.3846	3
151.6665	2
151.9041	15
152.1519	1
152.4363	0
152.7514	5
152.9501	15
153.6560	2
153.9452	8
154.4621	0
154.9199	40
155.4853	2
155.5627	1
155.6832	1
155.9598	32
156.1627	1
156.4494	2
156.9549	73
157.1811	1
157.3386	1
157.4418	1
157.5137	1
157.7300	0
157.9883	17
158.2929	1
158.4431	2
158.9875	62
159.4308	1
160.0101	7
160.2087	0
160.6523	1
161.0379	11
161.8280	1
161.9880	0
162.8158	1
163.0230	3
163.2942	1
163.5605	1
163.7691	0
163.9117	0
164.0870	2
164.2215	1
164.3308	0
164.9268	29
165.2009	1
165.7358	3
165.9672	8
166.2570	1
166.4973	0
166.9329	27
167.2901	0
167.5199	0
167.7114	1
167.9852	10
168.9586	47
169.7181	3
170.0049	14
170.2729	1
170.4258	2
170.7253	3
170.9865	45
171.3869	1
171.6123	0
171.9826	11
172.9977	21
173.8803	2
174.0191	2
174.5199	1
174.7111	1
174.8916	1
175.0582	7
175.3258	1
175.6522	1
175.8903	4
176.1271	1
176.4827	1
176.5472	1
176.8353	2
176.9604	2
177.2290	2
177.5968	2
177.9427	15
178.1564	1
178.3379	1
178.4018	0
178.6403	3
178.9389	26
179.2008	2
179.7445	2
179.9477	12
180.1326	1
180.4448	0
180.9375	34
181.2733	0
181.4349	1
181.5914	2
181.9470	11
182.1562	1
182.9456	35
183.9423	10
184.4627	1
184.9891	37
185.2723	1
185.3726	1
185.5422	0
185.7144	1
185.9761	7
186.5175	0
186.7400	2
187.0095	19
187.7261	0
187.9010	1
188.0200	2
188.4996	1
188.9114	7
189.6192	1
189.7847	2
189.9668	2
190.4445	1
190.5916	1
190.9273	6
191.0630	3
191.1803	1
191.4766	0
191.9311	6
192.7312	2
192.9506	15
193.6313	0
193.7455	1
193.9612	16
194.6364	2
194.9767	42
195.6805	1
195.9711	10
196.3653	1
196.5666	1
196.9871	34
197.3246	1
197.6570	1
197.7727	2
197.9972	13
198.6214	1
198.9969	25
199.3654	0
199.5434	1
199.7558	2
200.0170	7
200.8250	1
200.9921	4
201.1093	3
201.4180	0
201.6083	1
201.7082	1
201.9401	4
202.0932	1
202.2932	0
202.4425	1
202.5803	1
202.8456	5
203.0379	7
203.5944	1
203.7830	1
203.9452	3
204.7213	2
204.9491	7
205.1416	1
205.2680	0
205.7789	2
205.9451	7
206.0620	1
206.6353	0
206.7573	1
206.9943	14
207.5197	1
208.0015	9
208.1738	1
208.9983	25
209.2883	1
209.7820	3
209.9955	10
210.3139	0
210.4348	0
210.7018	5
211.0209	32
211.7783	1
211.9952	7
212.7072	1
212.8218	1
213.0330	2
213.5186	0
213.7015	0
214.0139	2
214.4044	0
214.9682	3
215.9042	2
216.2215	1
216.7548	0
216.9747	4
217.0670	2
217.2953	1
217.9973	3
218.1696	1
218.9977	8
219.3980	1
219.5607	1
220.0257	3
220.4520	1
220.6916	1
221.0282	12
221.2117	1
221.3157	0
222.0182	7
222.2438	2
222.6543	2
222.7985	1
223.0416	13
223.5977	1
224.0505	3
224.2872	1
224.4263	1
224.6528	1
225.0616	15
225.7786	0
226.0361	2
226.4679	0
226.7739	1
227.0916	4
227.7826	0
228.0894	1
228.5332	1
229.0443	3
230.0137	1
230.2950	1
230.5102	0
230.7365	1
230.8426	0
231.0398	2
231.1827	1
231.2681	0
231.3657	0
232.0468	1
232.7125	1
232.8322	1
233.0335	5
234.0199	2
234.4458	1
234.6634	1
234.7832	2
234.8609	1
235.0124	5
235.1283	4
235.4431	1
235.5843	0
235.8103	1
236.0591	5
236.5702	1
237.0523	9
237.6537	1
237.7166	0
238.0167	1
238.1781	1
238.8103	1
238.9010	1
239.0845	3
239.1611	1
239.9193	2
240.0736	1
240.1560	1
240.8937	1
241.0981	1
242.0398	2
242.2955	1
243.0668	4
243.2571	1
244.0000	1
244.1033	1
244.4249	0
245.0622	1
245.1622	1
245.9108	1
246.1188	2
246.3015	1
247.0594	1
247.5087	1
247.9535	1
248.0959	2
249.0476	6
249.3494	0
249.8843	2
250.0899	3
250.5382	1
251.0446	25
251.3290	0
251.5067	1
251.6024	1
251.7691	1
252.0074	1
252.7015	0
253.0069	4
254.0595	1
254.2641	1
254.7560	0
255.0264	2
255.1913	0
255.4807	1
256.1201	7
256.9232	1
257.0360	1
257.1560	2
257.4260	1
259.1219	2
260.1561	1
261.0117	2
261.8676	1
262.0563	2
263.0887	4
263.5211	0
264.0359	3
264.1633	2
264.5566	1
264.6964	1
264.8539	1
265.1081	17
265.3074	2
265.4225	1
265.5885	1
265.7009	2
266.1166	43
266.3526	1
266.4728	0
266.5716	1
266.9220	1
267.0756	2
267.1783	2
267.8835	1
268.0381	3
268.1699	2
268.3781	1
269.1364	3
269.2604	2
269.5659	0
270.0678	1
271.0106	2
272.6263	1
273.2358	0
275.0734	1
276.1200	1
276.6012	0
277.0263	1
277.1649	1
277.7653	1
277.9909	1
279.0527	1
279.2038	1
280.1304	3
280.2501	1
281.1213	3
282.0515	1
282.2263	1
283.0822	1
283.6299	0
284.0662	0
285.0392	1
285.2250	1
286.1655	1
288.0496	0
289.0359	1
289.1669	1
289.9614	2
290.6087	0
291.1552	4
292.0326	2
292.1414	2
292.2614	1
293.0309	2
293.1856	2
293.3678	0
293.7664	1
294.3546	0
294.8890	2
294.9579	1
295.1120	1
295.2471	2
296.2047	1
296.6508	0
297.1605	1
298.0798	1
300.0305	1
300.9279	1
301.1748	1
302.0863	0
302.8837	1
303.1825	1
304.8250	1
304.9144	1
305.1260	2
306.1236	1
306.5476	1
306.8736	1
307.0873	2
307.2108	1
309.0269	2
309.1775	2
310.7943	1
310.8969	2
311.1976	0
311.6930	1
312.1187	1
312.2490	1
312.6057	1
316.5779	0
316.7215	0
317.0475	0
317.1930	2
318.0605	2
318.2166	0
319.1013	4
319.3398	0
320.1332	2
320.4456	1
321.0262	1
321.2687	0
321.8777	0
322.1750	3
322.9358	1
323.2034	2
323.6946	1
324.1931	1
328.9451	0
329.1126	1
330.1156	1
330.5983	1
331.0732	1
331.5204	1
331.8622	0
332.0713	1
332.9534	1
333.1810	3
333.7749	1
334.1147	5
334.2935	3
334.3893	1
334.7093	0
335.1436	2
335.3515	1
336.4334	1
337.2118	9
338.3713	0
339.0515	0
341.0819	1
343.1414	1
343.2537	1
344.7388	1
345.0746	1
345.2934	1
345.4203	0
346.0893	1
347.1366	1
347.2629	2
347.3469	1
347.5651	1
347.9718	0
348.1787	3
348.3037	1
348.3950	1
348.9697	0
349.9625	1
350.2496	1
351.3108	1
355.1233	0
355.6388	1
358.8007	1
359.1575	1
359.3409	1
359.9398	1
360.7525	1
361.1028	2
361.3344	1
362.9272	1
363.1661	0
364.2406	1
373.1181	0
373.2484	1
373.6133	1
382.5403	1
384.9455	1
386.1831	1
386.3891	1
386.9420	1
387.0778	2
387.2692	3
388.1170	4
388.2303	6
388.3117	3
388.6780	1
388.8496	0
389.1689	1
389.3325	1
390.8556	0
393.2696	1
393.6109	0
394.7496	0
396.3180	1
398.0272	1
398.9536	1
399.9424	1
400.2164	1
400.3713	1
400.7929	1
401.0008	1
401.2887	3
401.4813	1
401.8408	0
402.2697	7
402.5491	2
402.6882	2
403.2509	82
403.6819	4
403.9064	2
404.3163	2
404.4659	1
404.9486	1
405.1844	1
405.2645	1
405.5652	1
405.9168	1
406.1983	1
406.3539	2
406.4844	0
406.8520	0
407.2196	1
408.3575	0
414.2323	1
416.1358	1
416.3344	1
416.9559	2
417.2670	1
417.4325	1
417.6695	1
417.8966	2
424.1804	0
426.3334	1
427.8010	1
428.1210	1
428.3583	1
429.3410	3
429.4842	2
429.6412	1
430.0601	1
430.2383	1
430.7069	0
431.2902	1
434.3853	0
436.6536	0
442.0698	1
442.2231	2
442.4387	3
443.7543	1
444.2400	1
444.7914	1
444.8877	1
445.6521	1
445.8240	1
446.3369	20
446.9566	1
447.1426	1
447.6808	0
448.3289	1
448.4898	1
449.3319	1
451.7276	1
452.4236	1
453.2825	1
453.4189	1
455.2973	1
456.2975	2
456.4711	1
457.1700	2
457.3635	2
458.3705	1
458.4924	1
458.7342	0
459.3696	1
461.4615	1
462.4781	0
469.3570	1
470.2966	3
470.5327	1
471.2190	1
471.3689	1
471.4922	2
472.3304	2
473.8001	0
479.6021	0
479.6710	0
483.3807	0
483.8005	1
484.3875	1
485.2756	1
494.2706	0
495.2834	1
497.4546	1
498.5247	1
499.7776	0
502.7172	1
503.7944	0
506.4915	1
508.7000	1
509.6503	0
510.2977	2
512.3589	1
514.8571	1
515.6036	1
516.5377	2
517.9836	1
518.4324	1
518.8594	1
519.0398	1
519.2552	1
519.3627	2
519.4800	1
519.7678	1
520.0861	2
520.5476	2
520.8526	2
521.1550	1
521.4401	3
521.5410	1
521.9216	3
522.0336	1
522.1139	0
522.2134	0
522.3824	1
522.6769	1
522.8825	1
523.0801	1
523.2446	2
523.4502	2
523.5768	3
523.6843	1
523.8209	1
524.0842	3
524.2507	5
524.3820	3
524.4735	1
524.6227	1
524.7614	1
525.1288	7
525.4008	5
525.6057	1
525.8120	0
526.0653	1
526.1867	4
526.2683	1
526.4235	1
526.6086	2
526.7127	1
526.9880	1
527.3555	1
527.7681	2
527.9684	1
528.0706	0
528.2112	1
528.5044	1
528.7446	2
528.8686	2
529.0185	0
529.1213	1
529.3124	3
529.4478	1
529.6342	1
529.9201	1
530.0249	2
530.1609	1
530.3560	1
530.7142	4
530.9968	2
531.2536	2
531.5210	3
531.7824	2
531.9834	3
532.1241	1
532.2939	1
532.4346	2
532.6947	6
532.9734	3
533.2123	3
533.5361	3
533.8240	4
534.0158	2
534.5400	5
534.6979	4
535.1306	5
535.3728	3
535.5347	2
535.9873	8
536.7140	12
540.4600	999
540.9797	151
541.7378	78
542.3489	42
542.7866	33
543.2097	18
543.4963	16
543.6573	9
543.9632	12
544.2532	10
544.3605	8
544.5651	5
544.7737	7
544.9591	3
545.2405	5
545.4008	2
545.5770	3
545.8047	3
