Mass spectrum: Myxoxanthophyll; FAB-EBEB; MS2; m/z: 730.48; [M]+*
Name: Myxoxanthophyll
Formula: C46H66O7
Exact mass: 730.48085
SMILES: C(=CC(C)=CC=CC(C)=CC=CC=C(C=CC=C(C)C=CC(C(C)(C)2)=C(C)CC(C2)O)C)C=C(C)C=CC(C(C)(C)O)OC(C1O)OC(C)C(C1O)O
InChI: InChI=1S/C46H66O7/c1-31(17-12-13-18-32(2)20-15-23-34(4)25-27-39-36(6)29-38(47)30-45(39,8)9)19-14-21-33(3)22-16-24-35(5)26-28-40(46(10,11)51)53-44-43(50)42(49)41(48)37(7)52-44/h12-28,37-38,40-44,47-51H,29-30H2,1-11H3/b13-12+,19-14+,20-15+,22-16+,27-25+,28-26+,31-17+,32-18+,33-21+,34-23+,35-24+/t37-,38-,40+,41-,42+,43-,44?/m1/s1
Instrument: JMS-HX/HX 110A, JEOL
Instrument type: FAB-EBEB
Ms type: MS2
Ion mode: POSITIVE
Collision energy: 3 kV
Ionization: FAB
Base peak: 85.0485
Precursor m/z: 730.48
Precursor type: [M]+*
m/z	relative intensity
13.0143	0
14.0277	1
15.0341	3
17.7736	0
19.0334	4
22.9922	2
24.9887	1
26.0360	4
27.0364	23
28.0420	2
29.0425	52
30.0293	3
31.0286	23
32.4296	0
35.4983	1
36.9865	1
37.3141	0
38.0344	5
38.4357	0
39.0328	48
39.3921	0
40.0524	6
41.0532	142
42.0474	8
42.4604	1
43.0447	228
43.5109	0
44.0338	3
45.0508	102
47.0275	4
48.2139	1
49.0271	1
50.0366	9
51.0409	29
52.0543	12
53.0542	68
54.0507	3
55.0679	221
55.4748	1
56.0545	5
56.5424	0
57.0574	306
58.0604	15
59.0673	632
60.0533	11
61.0483	162
62.0371	8
62.4214	0
63.0559	38
63.4054	1
64.0495	8
64.5780	0
65.0597	54
66.0631	10
67.0766	88
67.5322	1
68.0702	5
68.5851	0
69.0767	142
70.0584	3
71.0643	719
72.0611	6
72.5800	1
73.0472	431
74.0267	11
75.0628	501
76.0496	9
77.0561	178
78.0648	30
78.4951	2
79.0724	156
80.0894	24
81.0859	219
82.0568	8
83.0701	167
84.0730	7
85.0485	999
86.0497	11
87.0616	212
88.0534	10
89.0695	56
90.0823	8
91.0748	386
92.0792	35
93.0925	317
93.6500	1
94.0960	20
95.1005	249
96.0730	7
97.0919	59
98.0566	3
99.0738	42
100.0786	1
101.0904	71
102.0744	20
103.0749	131
103.6038	3
104.1031	34
105.1016	549
106.1039	49
107.1147	254
108.1099	19
109.1168	164
110.0966	7
111.0784	124
112.0831	3
113.0775	10
114.0920	7
115.0824	199
116.0908	74
117.0897	224
118.0969	46
119.1059	643
120.1018	54
121.1126	238
122.1070	13
123.1113	56
124.0792	3
125.0867	13
126.0096	12
127.0816	84
128.0739	243
129.0627	698
130.0797	127
131.0849	384
132.0915	76
133.0962	359
134.1108	30
135.0965	140
136.0904	11
137.0788	34
138.1091	5
139.0597	36
140.0825	14
141.0593	195
142.0678	202
143.0777	419
144.0872	144
145.0935	590
146.0992	46
147.0789	290
148.0768	16
149.1067	87
150.0624	14
151.0929	35
152.0508	91
153.0579	117
154.0747	66
155.0840	245
156.0927	173
157.1007	500
158.0977	91
159.1149	271
160.1434	31
161.1211	105
162.1274	15
163.1209	41
164.0928	12
165.0777	191
166.1072	65
166.5081	5
167.1045	169
168.1150	72
169.1229	263
170.1266	95
171.1346	246
172.1383	42
173.1447	156
174.1344	19
175.1724	121
176.1146	21
177.1456	28
178.1176	94
179.1292	163
180.1316	77
181.1433	201
182.1487	87
183.1532	260
184.1568	58
185.1664	123
186.1504	24
187.1527	83
188.1027	11
189.1296	56
190.0952	25
191.1005	74
192.1048	63
193.1311	155
194.1263	80
195.1292	263
196.1435	71
197.1424	238
198.1564	30
199.1443	78
200.0882	15
201.1523	52
202.1082	47
203.1166	71
204.1095	26
205.1067	77
205.5240	4
206.1331	70
207.1226	139
208.1395	65
209.1356	206
210.1467	40
211.1440	109
212.1365	17
213.1440	42
214.1808	13
215.1085	67
216.1285	26
217.1239	78
218.1163	27
219.1309	83
220.1352	44
221.1365	111
222.1473	41
223.1533	104
223.6185	4
224.1616	20
225.1597	58
226.1310	18
227.1301	29
228.1314	17
229.1370	52
230.1412	19
231.1387	46
231.6203	3
232.1585	25
233.1661	66
234.1414	28
235.1791	64
236.1991	17
237.1649	38
238.1932	9
239.1672	29
240.2129	17
241.1604	43
242.1377	13
243.1701	36
244.1684	17
245.1524	34
246.1881	20
247.2005	50
248.1695	18
249.1988	42
250.1992	14
251.1983	25
252.1062	11
253.2123	27
254.1852	14
254.6690	4
255.1841	28
256.2182	9
257.1886	27
258.1960	18
259.2131	35
260.1883	11
261.2190	43
262.2244	11
263.2062	28
264.1498	5
264.5638	2
265.2245	21
266.2075	11
267.2203	26
268.2280	7
269.1973	26
270.1947	12
271.2367	30
272.1868	12
273.1982	17
274.2136	10
275.1739	21
276.1771	8
277.2300	15
278.2186	8
279.2075	14
280.2023	8
280.5112	2
281.2123	14
281.6600	2
282.2115	10
282.6890	4
283.2480	23
283.7424	17
284.2257	11
285.2444	39
286.2078	7
286.6285	2
287.2420	15
288.2339	7
289.2150	17
290.2687	6
291.2281	15
292.2770	11
293.2779	15
294.2753	16
295.2527	17
295.6541	2
296.2542	11
297.2506	13
298.2287	6
299.2554	9
300.3269	4
301.2409	11
301.8224	1
302.2666	5
303.2628	14
304.1794	3
304.6071	1
305.2562	16
306.2682	6
307.2525	25
308.2614	5
309.2630	14
310.2948	9
311.2280	9
312.2790	5
313.2612	8
313.7664	1
314.2902	6
315.2733	13
316.3089	6
317.2815	8
318.2840	7
319.2608	19
320.2545	20
321.2579	14
322.1831	4
323.2485	5
323.7431	1
324.2955	3
325.2159	6
325.8806	1
326.3157	7
327.2234	7
328.3331	3
329.2562	6
330.2674	3
331.1741	7
332.2605	7
333.2387	21
334.2471	2
335.2912	11
336.2102	5
336.4142	2
337.2810	12
337.8016	0
338.3166	7
339.3130	5
340.2309	2
340.7406	1
341.3121	4
341.7150	1
342.3223	3
343.2578	5
344.2590	6
345.3111	10
346.2753	3
347.2528	7
347.7557	1
348.3262	6
349.3155	11
350.3368	6
351.2794	8
352.2843	1
353.2555	3
354.3115	2
355.2042	4
356.2361	3
357.2683	4
358.2913	4
359.2957	12
360.3341	9
361.2843	7
362.3250	10
363.3250	5
364.3282	4
364.7623	1
365.2622	3
365.7771	1
366.3692	3
366.6925	1
367.2791	8
368.3056	3
368.5896	1
369.1030	2
369.4283	1
370.3538	3
371.2869	6
372.2540	4
373.2966	10
374.3337	4
375.3127	6
375.7231	1
376.3445	6
377.2542	3
378.3560	3
378.8365	1
379.2961	4
380.3495	11
381.3351	3
381.9307	0
382.3813	0
383.3145	3
384.2987	6
385.2681	14
386.3130	14
387.3430	7
388.3714	2
389.3093	4
390.3757	2
390.9080	1
391.2592	1
391.4876	1
391.9332	1
392.3108	1
392.6790	1
393.3283	2
394.4193	1
395.3083	3
396.3863	1
397.2663	2
398.2993	5
398.7601	1
399.3155	7
399.7122	1
400.2336	3
400.5736	1
401.3691	6
402.3933	6
403.3062	5
403.9110	1
404.3610	3
404.8941	2
405.3270	2
405.6957	1
406.2535	1
406.7547	1
407.3333	1
407.6114	1
408.3301	2
409.3187	2
410.2520	2
411.3328	3
411.6691	2
412.2984	1
413.2850	7
414.3511	9
415.3550	6
416.3875	10
417.3765	5
418.3600	3
419.3626	9
420.4145	2
421.1713	1
422.4336	1
423.4140	3
424.3718	6
425.2370	7
425.5191	2
426.3939	3
426.7480	1
427.3862	4
428.3502	8
429.3806	10
430.4036	3
430.8489	1
431.3264	5
431.7546	1
432.3781	8
433.3408	28
434.4382	1
434.9235	3
435.2287	1
435.6970	2
436.8630	3
437.3049	1
438.0388	1
438.4408	1
439.3284	4
439.8178	1
440.4248	4
441.4227	3
442.4093	7
443.2746	3
444.4797	3
445.3339	9
446.4323	7
447.3755	1
447.7392	2
448.3719	2
449.1618	1
449.9064	2
450.5866	1
451.4034	4
451.8752	2
452.4343	2
452.8531	1
453.0958	1
453.4691	1
453.7952	1
454.4131	3
455.2776	1
455.6739	1
456.4341	1
457.3766	2
458.3077	2
459.1896	1
460.2424	1
460.6673	0
461.5058	3
461.7524	1
462.1452	1
462.6081	1
462.9022	1
463.2741	1
464.0343	3
465.1507	3
465.7100	3
466.3982	7
467.4277	3
467.7956	1
468.4062	3
469.4113	4
470.3728	1
471.1448	2
471.4920	1
472.4063	2
473.6035	2
474.2600	3
475.3986	3
476.2943	2
476.5506	1
477.1978	1
477.7995	1
478.4943	2
479.3391	3
480.3624	4
481.3479	3
482.4398	7
483.3267	1
484.0579	1
484.3827	1
485.3287	2
486.2234	1
487.2988	0
487.9049	1
488.3723	4
489.3073	2
489.9952	2
490.5179	2
491.3162	3
492.3369	5
493.3235	3
494.3939	18
495.4225	10
495.8656	1
496.4513	6
496.8982	1
497.5182	2
498.4025	3
499.1501	1
499.5419	2
499.9452	2
500.4911	2
501.1132	2
501.6688	1
502.4165	2
502.9106	1
503.4236	2
504.2615	4
504.7878	2
505.4092	5
506.4316	14
507.4199	41
508.4406	41
509.4177	32
510.3910	28
511.4291	7
512.4501	1
512.8704	1
513.3249	1
514.3271	5
514.7873	1
515.4682	1
516.1301	1
516.4135	0
517.2905	3
518.4338	3
519.5182	2
520.3896	3
521.5884	5
523.4402	66
524.4395	437
525.4369	504
526.4096	31
526.9731	7
527.4967	5
528.3687	3
528.8104	2
529.5873	3
530.2767	1
530.6194	1
531.1203	2
531.4250	0
532.1640	2
532.6706	1
533.3925	3
534.4975	1
535.3572	2
536.2834	2
537.3772	6
538.2694	1
538.6347	1
539.3615	1
540.2024	2
540.5220	2
541.5933	1
542.3983	1
542.7371	1
543.5059	1
543.9208	1
544.4956	1
545.2893	1
546.2258	2
547.2938	4
547.6459	3
548.5483	5
549.4222	6
550.4980	16
551.4482	30
552.4899	15
553.4764	11
554.3621	4
554.9393	2
555.3698	3
555.7183	2
556.1241	1
556.5146	1
557.2404	1
557.5052	0
558.0634	0
558.6807	1
559.4771	1
559.7648	1
560.3117	2
560.7328	1
561.5884	1
562.5165	2
563.1698	1
563.7744	1
564.4796	5
564.7952	3
565.5386	10
566.5139	30
567.5007	273
568.4306	24
569.2749	3
570.0851	4
570.4331	3
570.9904	1
571.3099	1
572.4035	3
572.8353	1
573.1435	1
573.6114	1
574.2734	2
574.6710	2
575.6222	0
575.9856	1
576.6401	3
577.5533	3
578.0234	2
578.3506	1
578.7693	0
579.5172	2
579.6922	1
580.3868	11
581.3669	3
582.4404	79
583.5215	16
584.4847	30
585.3394	1
586.2170	1
586.6378	0
587.1747	2
588.0010	1
588.4846	2
589.5338	2
590.3849	1
590.7392	1
591.4247	1
592.1998	3
592.7960	1
593.5292	2
594.0168	1
594.4892	2
595.1883	2
595.6359	2
596.2360	1
596.8151	0
597.4342	2
598.1868	2
598.8745	1
599.6766	2
600.3550	3
600.8599	1
601.3820	1
602.4682	2
603.4592	2
603.7737	1
604.0862	1
604.4941	2
604.8047	1
605.3499	2
606.2686	2
606.9357	2
607.5075	2
608.1385	1
608.8076	3
609.3738	1
609.9610	2
611.4176	3
612.5018	181
613.1453	5
613.8155	3
614.5295	3
615.4339	3
616.4316	3
617.1495	3
617.6142	3
619.2329	7
620.6480	5
622.0479	5
623.1280	4
624.1852	6
625.1568	5
625.6559	2
626.5837	4
627.4773	1
628.2318	2
629.3141	2
630.4594	5
631.5970	1
632.5023	1
633.1636	1
633.4781	1
633.9203	1
635.0067	1
638.4341	78
639.8299	7
640.5209	5
642.6970	5
644.4543	4
644.9894	1
645.6082	3
646.3546	4
647.7943	2
648.1828	1
648.9941	3
649.8035	2
650.4682	3
651.5139	8
652.5005	2
654.4968	20
654.8550	8
662.5755	32
665.8926	26
667.3647	15
668.6942	15
670.5013	24
672.3314	443
673.7164	5
674.5934	3
675.2784	1
675.8740	1
676.4714	1
677.1317	0
677.6930	1
678.5093	1
679.3581	1
679.9803	1
681.2040	0
682.4259	0
682.8256	1
683.3052	1
684.3578	3
684.8489	1
685.5550	1
686.4001	3
687.5842	2
688.6712	2
689.0671	1
690.0457	0
691.2166	1
691.6164	1
691.8487	1
692.3685	1
693.1967	2
693.6518	1
694.5924	5
695.1447	1
695.5959	1
696.3291	2
696.7462	3
697.4317	2
697.9859	1
698.6125	3
699.4866	2
700.5609	3
701.4941	2
702.3055	4
702.9951	2
703.4465	2
704.2751	2
705.1038	1
705.8391	3
706.1420	1
706.7479	3
707.1288	1
708.0886	4
709.5450	3
711.5757	15
712.6044	145
713.5742	24
714.5212	37
715.5368	30
730.4947	999
733.7411	119
734.8525	50
