Mass spectrum: Myxol; FAB-EBEB; MS2; m/z: 584.42; [M]+*
Name: Myxol
Formula: C40H56O3
Exact mass: 584.42295
SMILES: C(=CC=C(C)C=CC(=C(C)1)C(C)(C)CC(C1)O)C(=CC=CC=C(C=CC=C(C=CC=C(C=CC(O)C(C)(C)O)C)C)C)C
InChI: InChI=1S/C40H56O3/c1-30(18-13-20-32(3)21-15-23-34(5)25-27-38(42)40(9,10)43)16-11-12-17-31(2)19-14-22-33(4)24-26-37-35(6)28-36(41)29-39(37,7)8/h11-27,36,38,41-43H,28-29H2,1-10H3/b12-11+,18-13+,19-14+,21-15+,26-24+,27-25+,30-16+,31-17+,32-20+,33-22+,34-23+/t36-,38+/m1/s1
Instrument: JMS-HX/HX 110A, JEOL
Instrument type: FAB-EBEB
Ms type: MS2
Ion mode: POSITIVE
Collision energy: 3 kV
Ionization: FAB
Base peak: 58.9775
Precursor m/z: 584.42
Precursor type: [M]+*
m/z	relative intensity
0.0118	0
0.0925	0
0.2751	0
6.6336	0
8.0737	0
8.6957	0
9.4211	0
13.9413	1
14.9911	4
18.9602	1
19.6725	0
22.9352	1
23.9616	2
24.9721	0
25.9690	9
26.9723	47
27.9780	5
28.9728	42
29.9651	1
30.9590	29
34.4603	0
36.0375	0
36.4762	0
36.9515	8
37.2861	2
37.9582	14
38.2298	1
38.3907	1
38.6623	0
38.9559	105
39.9656	13
40.9751	198
41.9739	9
42.9694	183
43.9632	6
44.9833	4
46.8855	1
47.9679	2
48.9604	2
49.9506	32
50.7751	0
50.9578	65
51.2641	2
51.5682	1
51.9767	16
52.9690	108
53.9710	7
54.9816	231
55.9910	7
56.3209	0
56.5102	1
56.9866	104
57.4652	1
57.5966	1
57.9925	2
58.9775	999
59.4932	1
60.0056	5
60.9377	2
61.9570	19
62.3045	1
62.6258	1
62.9536	50
63.2249	0
63.6633	0
63.9483	12
64.1837	1
64.5990	2
64.6659	1
64.9661	85
65.9825	21
66.1611	2
66.4869	0
66.6811	0
66.9809	133
67.9769	6
68.9862	147
69.4529	0
69.9736	6
70.9702	55
72.1095	0
72.9524	1
73.9447	18
74.9577	22
75.2068	1
75.3568	2
75.4532	2
75.7793	1
75.9431	9
76.1584	3
76.2767	4
76.4507	2
76.5432	1
76.6634	2
76.9538	249
77.2215	3
77.3860	2
77.5411	2
77.7058	2
77.9553	50
78.1584	3
78.2857	2
78.4760	1
78.6630	2
78.9669	227
79.3828	2
79.9626	41
80.3347	1
80.5463	1
80.6472	2
80.9778	326
81.7572	1
81.9424	16
82.1246	1
82.4727	3
82.9776	91
83.8888	2
84.0097	7
84.3464	1
84.9654	63
85.2219	0
85.3342	1
85.5566	0
85.9585	6
86.9366	11
87.9491	8
88.0387	4
88.4794	2
88.6393	1
88.9642	35
89.1353	4
89.2257	1
89.3865	2
89.6136	2
89.7357	2
89.9326	8
90.1010	1
90.3200	2
90.4325	2
90.5196	2
90.6151	4
90.9653	460
91.4220	4
91.5623	1
91.6788	2
91.9566	45
92.2988	1
92.9777	393
93.2275	1
93.3892	1
93.9840	30
94.3749	2
94.6192	1
94.9854	250
95.2706	1
95.7080	1
95.9980	15
96.7451	1
96.9808	102
97.5372	0
97.9767	5
98.9747	5
100.0287	0
100.5450	1
100.7247	2
100.9511	12
101.2069	2
101.5873	2
101.9556	21
102.3117	1
102.5095	2
102.5937	2
102.6786	3
102.9777	90
103.4207	2
103.5376	2
103.6533	1
103.9792	29
104.1926	2
104.2840	1
104.3798	1
104.5182	4
104.9870	574
105.3476	1
105.4862	0
105.6507	1
105.9790	50
106.2378	1
106.3591	0
106.5427	4
106.6709	2
107.0012	257
107.3962	2
107.4798	2
107.9877	22
108.9942	114
109.9810	7
110.5417	0
110.9916	22
111.8968	2
112.4263	1
112.5239	0
112.6386	2
112.7616	1
112.9765	13
113.1135	3
113.2506	3
113.3857	2
113.5488	1
113.8079	5
113.9908	10
114.1299	2
114.3377	3
114.4985	3
114.6587	2
114.9634	244
115.2402	2
115.5120	2
115.6603	2
115.9642	94
116.2108	2
116.4378	4
116.6578	2
116.9787	229
117.2659	2
117.3757	4
117.6286	2
117.9839	65
118.2939	0
118.5964	2
118.9790	519
119.4996	1
119.6648	3
119.9744	71
120.2455	2
120.4424	2
120.5900	1
120.9801	211
121.2645	2
121.4784	2
121.6460	1
121.9725	19
122.4110	0
122.5236	2
122.6181	1
122.9914	60
123.5973	1
123.9646	6
124.5965	2
124.7540	3
124.9818	13
125.2710	1
125.5067	2
125.6759	2
125.9757	13
126.3493	2
126.9522	93
127.1982	6
127.4811	4
127.9559	247
128.3058	5
128.4802	5
128.9576	302
129.3923	1
129.9618	131
130.1977	2
130.3276	2
130.5272	2
130.9699	356
131.4156	2
131.6688	3
131.9728	72
132.3421	1
132.9743	289
133.3564	5
133.5430	2
133.9874	35
134.2896	2
134.5352	3
134.9821	129
135.3298	2
135.6476	1
135.8347	7
135.9720	11
136.5489	0
136.9832	26
137.1805	2
137.6539	2
137.9523	8
138.1426	1
138.5022	4
138.9461	42
139.3783	3
139.6543	4
140.0244	10
140.1704	7
140.2612	4
140.4453	5
140.6433	5
140.9605	188
141.2252	3
141.3575	3
141.4866	2
141.9668	198
142.3813	3
142.5006	3
142.5817	2
142.9635	336
143.3191	4
143.6127	3
143.9705	120
144.3383	4
144.5537	3
144.9799	434
145.2754	2
145.4235	4
145.5339	2
145.6715	2
145.9857	53
146.3278	4
146.5290	3
146.9905	135
147.4489	2
147.6112	1
147.9824	19
148.4790	1
148.6601	4
148.9739	67
149.3568	1
149.5108	2
149.7379	2
149.9803	15
150.1497	3
150.3257	1
150.4154	1
150.5629	3
150.7550	8
150.9804	29
151.2383	4
151.4033	2
151.5749	4
151.9601	88
152.3121	7
152.4439	3
152.5677	2
152.9740	115
153.3830	2
153.5909	2
153.9808	68
154.2468	2
154.5082	2
154.6496	3
154.9892	219
155.3162	4
155.4717	2
155.9972	153
156.3505	1
156.5135	2
157.0101	358
157.2634	6
157.4975	6
157.6399	4
158.0199	80
158.5311	4
159.0178	203
159.3185	3
159.4584	4
159.5294	2
160.0246	33
160.2042	3
160.5313	4
161.0114	66
161.3589	2
161.6045	1
161.7414	4
161.9911	7
162.1555	4
162.3851	3
162.6222	2
163.0151	39
163.3363	3
163.4855	1
163.6179	1
163.9762	11
164.1624	4
164.4099	5
164.9992	168
165.3908	2
165.5813	2
166.0102	53
166.2244	3
166.3712	2
166.5841	7
167.0227	148
167.3752	2
167.5714	1
168.0320	64
168.4907	4
169.0379	223
169.3165	5
169.5049	4
169.6557	2
170.0307	79
170.5944	5
171.0324	166
171.3410	2
171.6127	3
172.0415	34
172.3160	5
172.4394	2
172.6047	3
173.0494	93
173.2930	4
173.5623	3
173.6542	2
173.7899	2
174.0579	13
174.3443	2
174.4592	2
174.5787	3
174.7125	1
175.0625	49
175.2747	3
175.6303	1
176.0042	13
176.4655	0
177.0149	29
177.2349	2
177.3858	1
177.9951	94
178.3033	2
178.5295	2
179.0092	133
179.2851	3
180.0247	66
180.3075	2
180.4750	6
180.5781	4
181.0198	186
181.4243	4
181.7345	5
182.0386	72
182.5262	4
183.0323	187
183.3211	2
183.4298	2
183.5698	5
183.6745	5
184.0341	44
184.4945	4
184.6223	3
185.0488	104
185.3414	2
185.6306	3
185.7599	3
186.0607	16
186.4611	3
187.0331	44
187.5366	1
187.7198	1
188.0708	11
188.5030	2
189.0144	52
189.2845	2
189.5826	4
189.9987	16
190.2669	3
190.4772	4
190.6246	6
191.0049	68
191.3087	1
191.4713	1
192.0163	54
192.2363	4
192.3949	3
192.5869	2
193.0093	131
193.2896	2
193.4659	3
193.5487	2
194.0308	64
194.3441	2
194.5267	3
194.6335	2
195.0215	202
195.2829	4
195.4684	1
195.6197	2
195.7984	9
196.0428	44
196.3263	5
197.0271	150
197.4416	3
197.6849	5
198.0619	27
198.6227	3
199.0280	45
199.4842	2
199.6035	3
199.7497	3
200.0536	13
200.1792	4
200.3165	1
200.4476	2
200.5993	1
200.7153	2
201.0606	25
201.3703	4
201.5036	3
201.6732	6
202.0235	44
202.4350	1
202.5896	2
203.0006	51
203.3086	1
203.4997	2
204.0099	19
204.4184	2
205.0169	62
205.4056	2
205.5460	2
206.0409	57
207.0352	116
207.3892	3
208.0430	47
208.3318	2
208.5626	3
209.0396	142
209.4009	1
209.5581	0
209.7374	3
210.0381	22
210.3354	2
210.6169	3
211.0495	46
211.4857	4
211.6500	2
212.0069	16
212.1291	6
212.5558	4
213.0517	28
213.2375	4
213.3833	3
213.4904	2
213.8420	4
214.0266	11
214.4170	2
214.5449	3
215.0392	54
215.5467	1
216.0287	24
216.3732	3
217.0485	56
217.4679	1
217.6486	3
218.0452	31
218.3311	2
218.5070	2
218.7044	2
219.0742	64
220.0718	33
220.2464	3
220.5292	1
221.0712	84
221.3673	3
222.0898	23
222.3125	3
222.4685	3
222.6191	5
223.1096	58
223.7681	2
224.0457	14
224.1887	9
224.2672	3
224.4019	1
224.5261	1
224.7094	3
224.8413	1
225.1260	36
225.3510	2
225.4927	2
225.7379	2
226.0852	13
226.6591	2
227.0928	22
228.0993	17
228.2454	5
228.4046	1
228.5200	2
229.0806	35
229.5675	1
229.6788	1
230.0935	21
230.6828	3
231.0965	40
231.3908	2
232.0850	21
232.4107	2
233.0878	53
233.6610	2
233.8673	4
234.0897	21
234.2036	10
234.3829	2
234.5657	2
234.8389	5
235.1280	42
235.3637	2
235.5639	3
235.8268	2
236.1286	8
236.3587	2
236.5563	1
236.6940	2
237.1030	35
237.4425	1
237.8252	4
237.9233	2
238.0834	7
238.1843	6
238.3715	1
238.5010	0
238.6639	3
239.1045	27
239.4171	2
239.5264	0
239.7284	4
240.1232	15
240.3698	2
240.5864	2
240.7014	0
241.0831	23
241.4378	2
241.6252	1
242.0858	12
242.4448	3
242.5974	1
242.7313	3
243.1084	33
243.3148	3
243.5066	1
243.6816	1
244.0819	12
244.2423	3
244.3888	2
244.6936	1
245.1003	34
246.1017	19
246.5254	2
246.8081	2
247.1034	36
247.4078	3
247.5098	0
247.7353	1
247.8205	0
248.1460	12
248.4966	1
248.7096	5
249.1267	33
249.4223	4
249.5250	2
249.6808	2
250.1497	12
250.2182	6
250.4649	2
250.8046	1
251.1346	18
251.4898	2
251.6960	2
252.0702	17
252.4248	0
252.6689	2
253.0732	16
253.1956	10
253.8904	2
254.1115	9
254.4593	2
254.5846	2
254.6826	2
255.1124	20
255.6956	5
256.0849	7
256.2627	2
256.3650	1
256.6360	2
256.7985	2
257.0989	20
257.2565	5
257.7335	2
258.0915	11
258.5637	2
259.0934	31
259.4523	2
259.6289	1
260.0474	12
260.2724	2
260.5430	1
260.7520	1
261.1180	26
261.3101	7
261.6032	2
261.7744	2
262.0879	6
262.2927	5
262.6835	19
263.1423	25
263.5002	2
263.7598	3
264.0644	10
264.8309	2
265.1160	12
265.6552	2
266.0871	9
266.2430	2
266.7978	2
267.1273	15
267.6071	2
267.7153	2
267.9275	1
268.0926	5
268.2725	2
268.7637	1
269.1313	18
269.3457	6
269.5952	1
270.1162	13
270.2624	5
270.8095	1
271.1372	25
271.3468	4
271.9130	3
272.1747	15
272.3407	2
272.5433	2
272.8325	4
273.1372	18
273.6530	1
273.8543	1
274.1527	9
274.3224	2
274.8045	2
275.1431	12
275.4002	1
275.7697	3
276.1569	8
276.2665	4
277.1154	10
277.2925	5
277.5709	1
278.0672	6
278.3653	2
278.7147	1
278.8757	2
279.1268	16
279.4974	1
279.8645	2
280.0952	5
280.2458	2
280.6136	1
281.1300	13
281.5170	2
281.9420	2
282.1356	6
282.3587	2
282.6205	2
283.1238	18
284.1094	11
284.3185	3
284.5270	2
284.7910	3
285.1495	23
285.5038	1
285.8983	3
286.1617	7
286.3371	2
286.5767	2
286.7112	2
286.8888	3
287.1573	15
287.4553	2
287.6393	0
288.1411	10
288.3920	2
288.8770	1
289.1321	11
289.3112	6
289.9500	4
290.1743	2
290.2934	2
290.4161	2
291.1602	7
291.2708	5
291.4483	2
291.6210	1
292.1735	6
292.3342	6
292.9269	1
293.1454	10
293.2660	5
293.4633	2
293.6840	2
294.1197	7
294.5562	1
294.8926	4
295.1394	12
295.3080	4
295.4525	2
295.6190	2
296.0090	4
296.2320	5
296.3611	2
296.6672	2
297.1893	11
297.3918	7
297.8547	2
298.0869	4
298.2506	5
299.1237	7
299.3129	4
300.0655	4
300.1876	2
300.3888	2
300.5308	2
300.6882	1
301.1826	8
301.9185	2
302.0901	6
302.2872	3
302.7082	1
302.9081	2
303.0763	8
303.1964	6
303.3582	2
303.7185	1
304.0853	8
304.1927	2
304.3185	1
304.8132	1
304.9468	4
305.1793	7
305.4486	2
305.9152	4
306.0658	3
306.2128	3
306.6717	2
307.0980	9
307.5562	2
307.6623	1
308.0443	4
308.1715	2
308.4467	2
308.9022	3
309.1067	7
309.2630	4
309.4391	2
309.6316	1
310.1516	7
310.3986	2
310.4941	2
310.6285	2
310.7375	2
310.8437	1
311.1501	8
312.0539	4
312.2394	2
312.5940	1
312.6981	2
313.1498	8
313.4252	1
313.7700	2
314.1666	3
314.4923	0
314.8507	1
315.1729	6
315.3734	2
315.5703	2
315.6922	2
315.9153	2
316.1767	3
316.2950	3
316.6563	2
316.7619	2
317.0000	2
317.1884	7
317.5363	3
317.7801	2
317.9148	2
318.2195	4
319.1111	9
319.3267	5
319.9243	2
320.0824	7
320.2114	5
320.3206	3
320.8708	2
321.1190	5
321.2814	1
321.8062	2
321.9303	0
322.2047	2
323.2028	7
323.7405	2
324.2705	3
324.8282	2
324.9333	2
325.0397	2
325.2122	3
325.3427	2
325.8353	2
326.1774	4
327.1321	5
327.6028	1
327.9557	1
328.1850	5
328.3916	2
328.6523	2
329.0059	3
329.2076	2
329.8070	1
329.9818	2
330.1771	2
330.2943	2
331.1815	4
331.6540	2
331.9602	1
332.1911	1
332.8783	1
333.1668	7
333.4653	1
333.6878	1
334.3851	1
335.0409	2
335.2488	8
335.7598	1
336.1601	5
336.3850	2
336.9046	1
337.1112	8
337.2545	3
338.0745	2
338.3187	7
338.5133	2
338.6297	2
338.7632	2
339.0181	2
339.1992	4
339.6572	1
339.8518	2
340.0492	2
340.2218	2
340.4398	1
341.1203	4
341.2432	5
341.4818	1
342.1248	3
342.3983	1
342.9816	2
343.1664	4
343.3447	2
343.5735	1
343.9267	2
344.1371	1
344.3311	3
345.0823	4
345.1904	5
345.3496	1
345.7427	2
346.0427	2
346.3590	3
347.2029	7
348.1992	3
348.2824	2
349.0505	4
349.2738	9
349.4530	1
350.2099	6
350.3813	3
350.5663	2
351.1575	7
351.2977	8
352.0967	3
352.2675	4
352.8247	1
353.0062	2
353.1635	5
353.3115	5
353.9969	3
354.0709	1
354.3357	1
354.7507	1
355.3387	3
355.5025	2
355.6107	2
355.7303	2
356.0678	0
356.2636	2
357.1465	3
357.3232	4
357.7077	1
357.9057	2
358.0489	2
358.2640	5
358.4976	2
358.7533	1
359.0546	0
359.2548	6
359.4863	3
360.2557	6
360.4317	2
360.5713	1
360.9960	2
361.2617	6
361.4413	4
362.2842	11
362.4842	2
363.1830	3
363.4172	5
363.8777	2
364.2137	3
364.5048	2
365.2864	9
365.4039	4
365.8154	1
366.2810	5
366.7403	2
367.2088	3
367.4211	5
367.8918	0
369.1040	3
369.2628	2
369.8049	1
369.9552	0
370.1312	2
370.3492	1
370.8094	2
370.9355	2
371.2269	3
371.4043	2
372.1012	2
372.2409	5
372.5045	2
373.2044	9
373.4232	2
373.5579	0
373.8658	1
374.1559	2
374.4317	4
374.5094	2
374.9065	2
375.3427	6
375.7006	2
375.8924	1
376.1063	2
376.2981	7
376.6110	1
376.8467	2
377.3466	4
377.8188	3
378.0495	2
378.2040	3
378.3472	2
379.1115	3
379.3280	4
379.7825	2
379.9890	2
380.1208	2
380.3353	2
380.7698	2
381.0477	2
381.2287	7
381.5977	1
382.4037	1
382.5797	2
383.0237	2
383.1890	5
383.3322	3
384.0635	1
384.1896	1
385.0913	6
385.2973	4
385.9054	1
386.1314	4
386.3182	3
387.3371	2
387.7121	0
388.1107	6
388.2070	5
388.3004	2
388.4673	1
389.3452	3
389.4686	1
390.0007	1
390.3438	1
391.2019	1
391.3239	2
391.5465	1
392.2992	2
392.4989	0
392.7472	1
392.9235	2
393.2759	1
394.2736	2
394.6018	1
395.1942	3
396.0778	2
396.2484	2
397.2721	2
397.4891	0
397.9824	1
398.1067	2
398.2002	1
398.3473	2
398.4444	0
398.9784	2
399.1419	3
399.2919	2
399.4619	3
399.8982	1
400.2602	5
401.0444	1
401.2029	5
401.3243	5
401.4643	3
401.8129	2
402.0286	2
402.2465	12
402.3936	2
402.9001	3
403.2451	6
403.4908	2
403.6101	1
403.8016	2
404.1617	2
404.3524	4
404.8054	2
405.1913	3
405.2770	3
405.7565	2
406.0959	3
408.2650	2
409.2319	1
409.4231	0
410.1422	1
410.2514	2
410.4997	2
411.0298	2
411.3895	4
411.9153	2
412.0017	1
412.1594	2
412.6104	1
413.0979	3
413.2977	2
413.4433	2
414.1349	8
414.3840	4
414.4804	2
414.7002	2
414.9500	2
415.2684	11
415.8203	1
416.0623	1
416.3328	6
416.4435	3
416.8126	1
418.0593	3
418.3870	7
418.4641	2
419.0661	3
419.2125	7
419.4460	4
420.0024	1
420.4309	1
420.6059	0
421.3888	1
421.5695	1
421.6716	2
422.3003	2
422.4567	3
423.2018	3
423.8605	1
424.1756	3
424.3042	2
424.4729	2
425.0538	1
425.2710	3
425.3868	2
425.5497	1
425.9496	3
426.2708	7
426.5799	0
427.0989	5
427.3959	7
427.6072	2
427.7536	2
428.3170	12
428.6011	1
428.9846	2
429.2880	11
429.5244	1
430.2157	7
430.4078	1
430.7763	1
431.2105	8
431.4098	4
431.8154	1
432.2890	5
432.5004	2
432.7533	3
432.9162	2
433.3883	4
434.0013	2
434.2206	2
434.9715	2
435.1879	2
435.4052	1
435.7831	2
435.8824	2
436.2354	2
437.2487	1
437.4138	1
437.7153	2
438.1513	2
438.3378	2
438.4886	2
439.2584	2
439.4377	1
439.5164	1
439.6915	2
439.8387	0
440.1003	1
440.2183	2
440.3949	2
440.9296	1
441.4021	9
441.5987	2
441.7381	2
442.2006	9
442.4201	5
443.0829	2
443.2080	2
443.3324	0
443.5362	2
444.2370	2
444.4901	2
444.7532	3
445.0915	2
445.3446	5
445.5685	2
446.3445	4
447.3408	1
447.4574	2
447.9344	3
448.3436	1
448.5811	2
448.7034	2
449.3122	2
449.5290	2
449.6277	2
450.0605	2
450.3488	2
451.0221	3
451.3018	3
451.4936	2
451.6768	1
451.9251	2
452.1455	3
452.3701	3
452.7315	1
452.9219	2
453.0600	1
453.2911	5
453.5280	1
453.8236	2
453.9424	2
454.2286	2
454.3446	3
454.4792	3
454.6530	1
454.7411	1
454.9859	2
455.1727	2
455.3860	0
455.5678	2
455.9343	4
456.4002	2
456.5370	2
456.7510	2
456.8484	1
457.1705	4
457.3881	2
458.0646	1
459.3340	2
459.6605	2
460.1130	2
460.3021	3
460.5219	2
461.0865	3
461.3245	2
461.5039	2
462.1200	2
462.4688	2
462.6917	2
463.1020	2
463.3200	2
464.0434	1
464.2379	2
465.3981	3
465.5490	1
466.1216	1
466.3654	2
467.2663	3
467.4007	2
467.6352	2
468.0886	2
468.2545	10
468.4318	3
468.7643	4
469.0725	2
469.3114	7
469.4930	4
469.6189	5
469.7834	2
469.9271	3
470.0237	4
470.1545	2
470.3705	2
470.6909	2
471.0128	3
471.1594	3
471.4083	2
471.6887	2
471.9026	3
472.0628	4
472.2466	2
472.5127	2
472.6987	2
472.9483	3
473.1050	5
473.2001	2
473.3310	2
473.4798	2
473.6722	2
474.0092	2
474.2889	2
474.5758	2
474.8591	1
475.3091	2
475.4522	1
475.8865	2
476.1248	1
476.4067	2
477.1043	2
478.3001	14
478.5319	6
478.7660	2
479.0257	5
479.1259	2
479.4401	1
479.6068	4
480.0971	3
480.3920	1
480.6017	2
480.7570	2
480.9095	2
481.0261	1
481.2831	2
481.4184	2
482.1678	2
482.3754	3
482.6353	1
482.8472	2
482.9710	1
483.1242	2
483.8673	2
483.9761	2
484.3248	2
484.9362	1
485.0429	2
485.2849	3
486.5580	2
486.7864	2
486.9890	1
487.1251	1
487.4917	2
487.7044	2
488.0789	3
488.2150	2
488.5981	2
489.0109	2
489.1239	2
489.3570	1
489.5579	4
489.8654	6
490.1357	4
490.3631	5
490.6298	5
490.8815	4
491.0124	4
491.1254	4
491.3264	5
491.4830	4
491.5667	1
491.7469	2
491.8363	1
492.3784	96
492.9720	5
493.3217	4
493.5435	7
493.7187	0
493.9677	3
494.1937	10
494.3868	14
494.5663	6
494.9047	3
495.1372	3
495.4183	15
495.6236	3
495.7917	4
495.9269	2
496.2653	7
496.5293	2
496.7325	3
496.8655	2
497.0952	4
497.2705	3
497.4536	2
497.7384	1
497.8822	4
498.1054	2
498.2549	1
498.4167	2
498.7558	3
498.9511	1
499.2288	0
499.5672	0
500.2492	2
501.0428	2
501.3176	1
501.6904	1
502.2701	3
502.4261	0
502.6988	2
502.9486	3
503.6128	2
503.8612	2
503.9614	2
504.1103	1
504.4309	3
504.6034	1
504.7158	2
504.9785	1
505.1174	5
505.4173	10
505.6793	3
506.1145	2
506.3243	3
506.4875	2
506.6350	2
506.8483	2
507.0173	4
507.1619	5
507.4561	7
507.6609	4
507.8363	1
508.0016	6
508.2737	12
508.3983	10
508.5436	3
508.7849	7
509.0685	9
509.4064	24
509.7408	5
509.9950	5
510.1740	14
510.3881	17
510.5707	8
510.7863	4
510.9044	1
511.1156	5
511.3441	5
511.5926	9
511.7694	5
512.0974	3
512.3030	4
512.3989	2
512.6331	2
512.7993	5
512.9876	3
513.1573	3
513.3693	6
513.5298	4
513.7024	4
513.8513	1
514.2689	3
514.4265	1
514.5769	8
514.7689	7
514.9293	2
515.0955	4
515.2473	5
515.3697	2
515.4769	5
515.7028	5
515.8871	3
516.0601	2
516.3188	3
516.6069	5
516.7913	3
516.8914	2
517.0479	2
517.7655	3
517.9971	3
518.3202	5
518.9028	2
519.0930	1
519.2845	2
519.4619	2
519.6791	1
519.8436	1
520.2368	3
520.3369	1
520.6965	2
520.8109	3
520.9982	3
521.1462	2
521.3464	0
521.5587	0
521.7889	1
521.9519	2
522.1135	3
522.2665	3
522.3530	1
522.5018	3
522.6348	0
522.7813	1
522.9472	2
523.2625	13
523.4549	5
523.6601	8
524.3737	103
525.3806	179
525.8640	7
526.3868	45
526.7566	6
527.0412	1
527.1528	2
527.3709	4
527.5526	4
527.6813	1
527.8466	1
528.0576	5
528.3250	3
528.5031	2
528.8193	1
529.0589	2
529.2263	2
529.3472	0
529.6097	1
529.7742	0
530.3514	2
532.8804	4
533.2345	0
533.5393	3
533.7089	2
533.8326	2
534.2405	1
534.4372	2
534.6268	2
534.9939	2
535.2272	1
536.8358	1
537.3710	1
537.5320	3
537.6709	2
538.1138	2
538.3687	2
538.5253	4
538.7143	2
538.8274	2
538.9977	2
539.2153	4
539.4121	2
539.6976	2
540.1887	3
540.3912	4
541.0454	2
541.3553	2
541.5715	2
541.7182	2
542.1126	3
542.3159	4
543.0611	0
543.8715	0
544.1965	1
544.5122	2
544.7756	2
545.8688	3
546.2548	2
546.5383	2
546.8605	2
547.0667	3
547.4741	2
548.2954	7
548.5825	5
548.8181	2
549.1002	2
549.2900	2
549.5464	2
550.2396	5
550.3455	5
550.5761	1
551.4183	31
551.6912	6
551.9734	1
552.0980	0
552.2763	8
552.4424	5
552.5435	3
552.6229	2
552.7755	2
553.0598	3
553.2124	0
553.5347	3
553.7116	2
553.9515	1
554.2180	2
554.4107	4
554.6851	2
554.9150	2
555.0747	2
555.4185	2
555.5969	2
555.7408	1
555.9078	1
556.0202	1
556.1678	2
556.4264	1
556.9185	2
557.1664	2
557.4401	1
557.5432	0
557.6765	1
557.9186	4
558.0841	2
558.2804	2
558.3585	1
558.5197	3
558.6372	1
558.9123	2
559.1630	3
559.3565	1
559.5853	2
559.8992	5
560.0750	2
560.2166	4
560.3596	3
560.5468	1
560.7728	4
561.0723	4
561.2818	4
561.5070	3
561.7658	5
562.0161	3
562.1962	3
562.3449	2
562.5487	2
562.8168	4
562.9355	3
563.1264	4
563.3066	5
563.8564	7
564.2211	8
564.5292	11
564.8360	8
564.9855	5
565.5840	10
565.8064	6
566.5193	100
567.0707	12
567.3725	24
567.6450	13
568.4002	36
568.7835	6
568.9552	10
569.4487	33
569.7326	14
570.0452	2
570.2562	4
570.5266	7
570.6746	6
570.9193	6
571.1832	3
571.3655	5
571.5501	6
571.8290	5
571.9871	8
572.2196	7
572.4857	11
572.6259	4
572.9714	4
573.2483	7
573.5430	3
573.7648	8
573.9100	6
574.1089	6
574.3735	6
574.8801	9
575.2299	6
575.4288	5
575.6849	5
575.8215	7
575.9360	7
576.1635	7
576.5892	7
576.8447	8
577.1108	9
577.3741	6
577.7891	13
578.4130	14
580.0781	31
584.3979	999
585.4017	301
586.1667	131
586.9545	70
587.5745	48
588.2386	21
588.5182	19
589.0009	13
589.2111	18
589.7789	12
590.0885	7
590.3259	5
590.5197	4
590.7621	2
590.9001	4
591.3063	2
591.6209	0
591.8419	1
592.1637	4
592.5062	3
592.6221	4
592.8581	1
593.0791	6
