Mass spectrum: Linoleic acid; FAB-EBEB; MS2; m/z: 279.23; [M-H]-
Name: Linoleic acid
Class: Natural Product; Lipid
Formula: C18H32O2
Exact mass: 280.24023
SMILES: CCCCCC=CCC=CCCCCCCCC(O)=O
InChI: InChI=1S/C18H32O2/c1-2-3-4-5-6-7-8-9-10-11-12-13-14-15-16-17-18(19)20/h6-7,9-10H,2-5,8,11-17H2,1H3,(H,19,20)/b7-6-,10-9-
Instrument: JMS-HX/HX 110A, JEOL
Instrument type: FAB-EBEB
Ms type: MS2
Ion mode: NEGATIVE
Collision energy: 3 kV
Ionization: FAB
Base peak: 279.3064
Precursor m/z: 279.23
Precursor type: [M-H]-
m/z	relative intensity
43.8874	3
57.8994	22
58.9018	1
70.9066	31
71.9154	4
85.9483	6
98.9847	6
100.0102	3
113.0517	12
114.0638	2
127.0680	51
141.0611	9
153.0627	1
155.0692	2
167.1227	9
181.1282	13
182.1320	4
193.1129	3
195.1238	12
207.1497	10
208.1629	3
209.1724	2
221.2461	23
222.2534	4
235.1870	20
237.1854	1
249.1852	11
251.2118	2
261.3741	4
263.2339	9
277.2610	30
279.3064	999
