Mass spectrum: gamma-Tocotrienol; FAB-EBEB; MS2; m/z: 416.33; [M-H+Li]*+
Name: gamma-Tocotrienol
Class: Natural Product; Lipid
Formula: C28H42O2
Exact mass: 410.31848
SMILES: C(=CCCC(C2)(C)Oc(c(C2)1)c(C)c(C)c(O)c1)(C)CCC=C(C)CCC=C(C)C
InChI: InChI=1S/C28H42O2/c1-20(2)11-8-12-21(3)13-9-14-22(4)15-10-17-28(7)18-16-25-19-26(29)23(5)24(6)27(25)30-28/h11,13,15,19,29H,8-10,12,14,16-18H2,1-7H3/b21-13+,22-15+/t28-/m1/s1
Instrument: JMS-HX/HX 110A, JEOL
Instrument type: FAB-EBEB
Ms type: MS2
Ion mode: POSITIVE
Collision energy: 3 kV
Ionization: FAB
Base peak: 416.3594
Precursor m/z: 416.33
Precursor type: [M-H+Li]+*
m/z	relative intensity
0.0330	0
0.2100	0
0.9883	0
6.0125	8
7.0176	91
7.4019	0
11.2532	0
11.5841	0
12.0189	0
13.0223	0
14.0120	0
15.0378	1
17.2462	0
21.0237	0
22.0131	0
22.9502	0
24.0131	0
25.0264	1
26.0213	2
27.0262	11
28.0238	1
29.0380	7
30.9817	0
32.0055	0
34.0326	0
35.0100	2
36.0155	0
37.0194	1
37.5377	0
38.0229	3
38.2737	0
38.6360	0
39.0252	19
40.0285	5
41.0407	47
42.0538	2
43.0434	15
44.0488	0
45.0296	0
46.0365	1
47.0447	0
47.9970	1
49.0160	1
49.2719	0
50.0179	4
51.0285	7
52.0322	4
53.0379	20
54.0510	3
55.0511	23
56.0574	1
57.0716	6
58.0628	0
59.0178	1
60.0384	0
61.0252	1
61.2358	0
62.0221	1
62.3131	0
63.0225	6
64.0455	6
64.4427	0
65.0346	9
65.3814	0
65.5760	0
66.0433	4
66.2921	0
66.5219	0
67.0485	26
67.5431	0
68.0481	11
69.0643	80
69.4716	0
70.0738	2
71.0853	3
72.0234	0
72.4919	0
73.0629	0
74.0316	2
75.0668	7
75.5943	0
76.0701	7
76.5851	0
77.0453	21
77.7271	0
78.0505	6
78.6694	0
79.0632	18
79.4235	0
80.0673	3
81.0626	19
82.0672	1
83.0680	3
84.0457	1
85.0940	2
86.0900	2
86.5579	0
87.0536	1
87.4249	0
88.0757	1
89.0256	2
89.4154	0
89.6185	0
90.0483	1
90.2751	0
90.5344	0
91.0730	26
91.5845	0
92.0811	2
92.6804	0
93.0819	12
94.0649	2
95.1029	8
96.0924	0
96.3667	0
97.1020	2
97.3747	0
97.7021	0
98.0637	0
99.0757	1
100.0816	0
101.0396	1
101.4860	0
102.0579	1
102.5733	0
103.0611	4
104.0564	2
105.0520	9
106.0875	2
106.6766	0
107.0620	11
108.0753	1
108.5104	0
109.0596	3
109.4064	0
110.0838	0
111.0529	2
112.0356	3
113.0353	6
113.4973	0
114.0415	3
114.4199	0
115.0499	8
115.4192	0
116.0605	3
116.3671	0
116.6179	0
117.0691	5
117.4467	0
118.0398	1
118.5139	0
119.0548	4
119.6733	0
120.0593	1
121.0671	9
122.0472	5
123.0708	3
124.0032	0
125.0362	1
125.3374	0
125.6548	0
126.0425	3
127.0509	22
128.0592	55
129.0599	7
130.0700	4
130.6487	0
131.0693	5
132.0910	1
132.5357	0
133.0749	4
133.4363	0
134.0768	2
135.0700	8
136.0672	1
136.5940	0
137.0813	6
138.0662	3
138.4129	0
138.5777	0
139.0658	3
139.4398	0
139.6521	0
140.0597	6
141.0728	13
142.0629	13
143.0688	17
144.0755	33
145.0852	7
146.0966	1
146.6947	0
147.1207	4
147.5241	0
148.0740	1
149.0864	3
150.0964	25
150.6331	1
151.0972	122
152.0965	7
152.6099	0
153.1055	8
154.1015	20
155.0894	47
156.0964	546
157.1040	193
158.1068	70
159.1157	5
159.7483	0
160.0783	1
160.3790	0
160.6514	0
161.0971	6
161.5712	0
162.0728	2
163.0949	5
163.4933	0
164.0783	4
165.0918	6
166.0981	3
166.6753	0
167.1051	12
168.0939	14
169.0800	8
170.1028	14
170.4390	1
171.0997	5
172.0852	4
173.0963	7
173.4781	1
174.0860	3
175.0916	11
175.5660	0
176.0823	4
177.0910	6
177.5120	0
178.1168	6
179.1144	5
180.0937	5
180.5924	0
181.0955	33
182.1000	54
183.1005	31
184.1048	4
184.6264	0
185.0908	4
186.1102	3
186.4314	1
187.1180	7
188.0843	3
188.4300	0
189.0995	16
189.5426	1
190.1063	6
191.1081	28
191.5316	1
192.1301	11
193.1304	14
194.1100	16
195.1145	102
196.1248	91
197.1355	107
198.1333	9
199.1404	3
199.5763	0
200.1933	1
200.6461	0
201.1566	2
201.7229	0
202.1382	2
202.5046	0
203.1689	4
204.1477	1
204.4511	0
205.1736	5
205.7906	0
206.1979	4
206.5142	0
207.1447	5
208.1541	8
208.5950	1
209.1526	33
210.1616	38
211.1675	78
212.1693	14
213.1647	1
214.0069	0
215.1965	1
216.1829	1
217.2007	2
218.1944	1
219.1460	2
219.6776	0
220.2171	1
220.6653	0
221.1603	3
222.1362	2
222.5812	0
223.1736	7
224.1980	8
225.1937	13
225.7608	0
226.1751	1
226.5291	0
227.2439	1
227.9667	0
228.2870	0
228.6730	0
229.1852	1
229.6438	0
230.0958	0
230.7823	0
231.2322	2
231.5638	0
232.2473	2
232.6906	0
233.2681	2
233.5116	0
234.1395	1
235.2123	3
235.6124	0
236.1736	3
237.1943	3
238.2098	3
239.2445	1
240.1172	0
241.2542	0
242.1184	1
243.1765	0
244.2453	0
244.6067	0
245.2401	1
246.0761	1
246.3190	0
246.4992	0
247.1855	1
248.2347	1
249.2359	4
250.2497	3
250.7349	0
251.2772	7
252.1985	1
253.1916	1
254.1637	0
254.3835	0
255.2055	1
255.7147	0
256.1847	0
256.5358	0
257.2292	0
257.7944	0
258.2493	0
258.6550	0
258.8107	0
259.2501	1
260.1748	2
261.2219	4
262.2422	2
263.2225	12
264.2332	27
265.2676	24
266.2832	12
267.3012	254
268.2869	3
269.2581	3
270.1633	0
270.4654	0
271.1652	0
271.4292	0
271.9830	0
272.3189	0
273.0482	0
273.3920	0
274.2282	1
275.1768	1
275.5793	0
276.2145	2
276.4776	0
277.2355	14
278.2218	88
279.2273	174
280.2241	20
281.1602	1
281.6238	0
282.2203	0
283.1714	1
283.7253	0
284.0810	0
284.2791	0
285.0526	0
286.0199	0
286.2474	0
286.4648	0
286.6855	0
287.1124	0
288.2704	1
289.1356	0
289.3576	1
290.2140	1
291.2474	2
292.2303	15
293.2472	14
294.2315	1
294.6408	0
294.8675	0
295.2639	0
295.7920	0
296.1004	0
296.4596	0
297.2141	0
299.2763	0
299.6356	0
300.0321	0
300.3543	0
300.5752	0
301.3154	0
302.2901	2
303.2188	1
304.2039	2
304.5804	0
304.8757	0
305.3526	1
306.2771	2
307.0507	0
307.3247	0
307.6258	0
308.3487	0
309.2601	0
309.4992	0
310.1140	0
310.6927	0
311.0876	0
311.5412	0
311.9203	0
313.2610	0
313.4607	0
313.9901	0
314.4449	0
315.2419	1
316.2963	1
316.5018	0
316.7739	0
317.2221	2
317.5518	1
318.3039	2
318.7132	0
319.2905	1
319.6344	0
319.8396	0
320.3369	1
320.7452	0
321.1366	0
321.3463	0
322.4585	0
322.8793	0
323.2448	0
323.7570	0
324.1259	0
324.3347	0
325.2385	0
326.1807	0
326.7281	0
326.9211	0
327.3929	0
327.9448	0
328.2315	1
328.5397	0
328.8456	0
329.3559	1
330.3268	3
331.3014	5
332.3063	14
332.7056	2
333.2899	11
334.2498	3
334.9696	1
335.5970	1
336.2773	1
336.5132	0
336.9194	0
337.1801	0
337.5356	0
337.7444	0
338.1112	0
339.1067	0
339.4261	0
340.3066	0
341.2888	0
341.8589	0
342.2507	0
342.7927	0
343.4318	0
343.5832	0
344.2472	2
345.3032	10
346.3141	64
347.3070	107
348.3159	5
349.0051	1
349.3339	1
349.5972	0
349.8559	0
350.3497	0
350.7125	1
351.0481	0
351.2956	0
351.6663	0
352.1037	0
352.7592	0
353.2543	0
353.5233	0
354.1451	0
354.6323	0
356.3372	0
357.2655	1
357.6986	0
358.3944	2
359.2591	2
359.6723	0
360.3227	5
361.3377	20
361.9080	0
362.3337	1
362.5753	0
363.3467	0
364.1090	0
364.5089	0
364.9584	0
365.3560	0
365.8090	0
366.2800	0
366.7827	0
367.3521	0
367.6052	0
367.9803	0
368.4684	0
368.7746	0
369.3825	0
369.7305	0
370.0153	0
370.3622	0
371.3069	1
372.3500	2
373.2813	3
374.3617	3
375.1531	1
375.5133	0
375.7978	0
376.2574	0
376.8028	0
377.8654	0
378.3239	0
378.7903	0
379.2217	0
379.3550	0
379.9966	0
380.7432	0
381.4367	0
381.7440	0
382.3416	1
382.5856	0
383.4555	1
383.8622	0
384.2125	1
384.4509	0
384.7537	0
385.3503	2
385.6678	1
386.3425	6
387.3607	3
388.3530	2
389.0447	1
389.3917	1
390.5695	0
390.9946	0
391.6604	0
392.5897	0
393.1833	0
393.7961	0
394.6306	1
395.1745	0
395.6438	1
395.8869	1
396.4150	1
397.4883	2
398.4315	10
399.4088	7
400.3839	32
401.3817	101
401.9156	2
402.3397	2
402.8310	0
403.3110	0
403.6577	0
403.9909	0
404.2936	0
404.8482	0
405.6299	1
406.1778	1
406.6319	1
415.4449	512
416.3594	999
418.3502	37
419.5012	9
420.2971	5
421.0412	3
422.8222	2
423.8558	1
