Mass spectrum: 3'-Deoxycapsanthin; FAB-EBEB; MS2; m/z: 568.00; [M]+*
Name: 3'-Deoxycapsanthin
Formula: C40H56O2
Exact mass: 568.42803
SMILES: C(=CC=C(C)C=CC(=C(C)2)C(C)(C)CC(C2)O)C(C)=CC=CC=C(C=CC=C(C=CC(=O)C(C1)(C)C(CC1)(C)C)C)C
InChI: InChI=1S/C40H56O2/c1-30(18-13-20-32(3)22-24-36-34(5)28-35(41)29-38(36,6)7)16-11-12-17-31(2)19-14-21-33(4)23-25-37(42)40(10)27-15-26-39(40,8)9/h11-14,16-25,35,41H,15,26-29H2,1-10H3/b12-11+,18-13+,19-14+,24-22+,25-23+,30-16+,31-17+,32-20+,33-21+/t35-,40+/m1/s1
Instrument: JMS-HX/HX 110A, JEOL
Instrument type: FAB-EBEB
Ms type: MS2
Ion mode: POSITIVE
Collision energy: 3 kV
Ionization: FAB
Base peak: 111.0224
Precursor m/z: 568.00
Precursor type: [M]+*
m/z	relative intensity
0.0056	0
0.1304	0
0.3641	0
1.1307	0
1.5184	3
3.3107	1
7.7405	0
8.6130	0
12.6924	3
12.9691	0
13.9723	1
14.9748	1
22.9226	1
25.2672	0
25.6945	0
25.9562	5
26.9580	22
27.9561	2
28.6272	0
28.9686	37
30.9600	1
36.9090	5
37.9484	11
38.6646	1
38.9462	73
39.8262	1
39.9554	9
40.9671	195
41.9518	4
42.1765	0
42.9643	126
43.9557	1
44.6122	1
44.9557	6
47.9847	1
48.9168	3
49.7143	1
49.9463	22
50.2000	0
50.9439	56
51.9566	24
52.0899	2
52.9593	101
53.9306	3
54.9744	494
55.9785	9
56.9904	110
57.1521	0
57.9796	2
58.9691	11
60.2230	0
60.9621	3
61.9379	15
62.5979	1
62.9441	55
63.3074	0
63.9439	16
64.9583	96
65.2726	1
65.6657	1
65.9590	14
66.2689	1
66.7062	2
66.9714	163
67.9843	7
68.2563	1
68.9817	816
69.4087	0
69.9918	3
70.9712	31
71.2530	0
72.2861	0
73.9223	17
74.4230	2
74.9256	16
75.0455	5
75.1301	2
75.4100	0
75.7366	1
75.9351	17
76.4204	3
76.9472	276
77.1942	4
77.3219	0
77.4433	1
77.6522	3
77.9506	77
78.4207	1
78.6466	2
78.9641	274
79.1482	1
79.2215	1
79.3804	2
79.9747	44
80.2128	1
80.5164	2
80.6507	1
80.9806	241
81.3538	4
81.9851	10
82.0690	2
82.9894	111
83.6656	0
83.9727	4
84.7435	1
84.9716	111
85.9456	7
86.7873	1
86.9340	19
87.9350	6
88.5037	4
88.7327	2
88.9420	36
89.2134	2
89.4043	3
89.7230	2
89.9527	11
90.0516	3
90.3376	0
90.4402	1
90.6250	0
90.9585	550
91.2015	1
91.4006	2
91.9612	52
92.2666	1
92.9770	327
93.1586	3
93.3281	3
93.4934	1
93.9695	18
94.3253	1
94.9916	227
95.3457	1
95.5922	1
96.0006	17
96.9891	60
97.1556	1
97.9158	6
98.0146	3
98.9690	5
99.2401	0
99.9296	2
100.3120	1
100.5184	3
100.7712	0
100.9574	9
101.0795	2
101.2103	0
101.3418	1
101.4628	1
101.7160	1
101.9544	28
102.3142	1
102.6488	1
102.9595	123
103.1422	3
103.2766	5
103.4476	1
103.5852	1
103.9765	50
104.2842	3
104.4065	1
104.5679	3
104.6809	2
104.9841	654
105.3719	1
105.9941	61
106.3067	2
106.9993	300
107.2320	2
107.4617	1
107.7681	1
107.9781	23
108.1514	1
108.6864	2
109.0034	215
109.9943	13
110.5072	1
111.0224	999
111.2642	5
111.6164	0
112.0008	6
112.1087	2
112.2035	1
112.7201	4
112.9582	7
113.1636	4
113.2742	6
113.5861	1
113.7974	4
113.9604	9
114.0724	3
114.2908	2
114.4400	3
114.9471	332
115.1286	6
115.3026	3
115.5290	1
115.6349	1
115.9536	107
116.1852	4
116.5882	7
116.9610	277
117.2315	1
117.4390	2
117.9635	64
118.1307	3
118.2845	1
118.5176	4
118.6766	2
118.9726	617
119.4425	2
119.6252	1
119.9635	67
120.2759	1
120.3838	0
120.5153	0
120.9678	284
121.2520	1
121.6318	1
121.9519	27
122.1180	2
122.4823	2
122.8079	3
122.9832	69
123.9904	5
124.9535	17
125.2885	2
125.5469	4
125.9173	10
126.1208	1
126.3756	2
126.5216	2
126.6183	2
126.9303	91
127.1449	3
127.4187	5
127.9298	354
128.2128	8
128.3764	2
128.9357	393
129.2801	2
129.4086	1
129.5089	2
129.6098	1
129.9480	150
130.2040	3
130.3372	4
130.9519	403
131.3667	3
131.5484	0
131.6870	2
131.9590	78
132.1492	2
132.3736	5
132.5258	3
132.6239	4
132.9653	304
133.3158	4
133.4127	3
133.5063	2
133.7931	1
133.9779	32
134.1589	1
134.3858	4
134.5752	2
134.9594	169
135.4717	1
135.7199	2
135.9552	16
136.7108	2
136.9711	39
137.0853	6
137.2586	1
137.3839	3
137.5307	1
137.6859	3
137.9770	6
138.5184	1
138.9326	59
139.9465	11
140.0754	8
140.1803	4
140.3125	6
140.4056	5
140.9308	290
141.2718	1
141.5985	2
141.9436	268
142.1851	1
142.4631	1
142.5943	3
142.9522	461
143.2860	3
143.5356	2
143.9618	143
144.2482	5
144.5341	4
144.9653	537
145.1610	5
145.3345	2
145.4654	2
145.9501	52
146.1505	1
146.4723	4
146.6342	2
146.7286	4
146.9699	166
147.1797	2
147.3687	1
147.9717	27
148.1214	2
148.3807	2
148.5206	2
148.7412	5
148.9928	72
149.6487	2
149.9630	12
150.3984	1
150.4938	1
150.5951	1
150.9617	28
151.2836	2
151.4186	5
151.9428	103
152.3138	1
152.4785	5
152.9532	170
153.1774	4
153.2592	2
153.5191	3
153.9645	86
154.6636	1
154.9720	251
155.2284	5
155.3969	4
155.6400	3
155.9838	174
156.3647	3
156.5432	5
156.9938	453
157.3187	5
157.4948	3
157.9953	104
158.2364	2
158.3404	1
158.4802	1
158.9898	532
159.3033	4
159.5042	2
160.0116	39
160.4236	4
160.5517	0
161.0004	88
161.3662	3
161.5017	4
161.6784	1
161.8770	5
162.0026	9
162.2923	1
162.5588	8
162.7050	2
163.0116	34
163.2323	2
163.3594	3
163.6986	2
164.0054	18
164.2070	4
164.3528	2
164.5125	5
164.5984	3
164.9826	249
165.3090	3
165.4149	1
165.5515	2
165.7347	5
165.9966	70
166.2519	1
166.4812	3
166.7620	6
167.0101	184
167.3923	2
167.4583	1
167.6877	3
168.0142	83
168.3155	2
169.0129	301
169.2552	2
169.4563	2
170.0271	105
170.3482	2
170.5601	2
171.0226	194
171.1979	6
171.4620	5
171.5560	4
172.0022	58
172.2850	2
172.5212	5
172.6627	1
173.0305	135
173.3142	2
173.6047	2
173.7810	1
174.0034	12
174.3228	4
174.5513	0
175.0452	79
175.4136	3
175.5078	1
175.6710	4
176.0021	20
176.3105	5
176.4282	3
176.5667	1
177.0178	35
177.1778	6
177.3070	1
177.4516	2
177.6793	4
177.9813	114
178.2968	4
178.4275	1
178.5333	2
178.6231	2
178.9843	167
179.2846	2
179.4703	3
179.6218	2
179.9967	87
180.3113	3
180.4508	1
180.6145	3
180.9943	227
181.2594	5
181.6300	2
181.9986	74
182.2813	2
183.0062	230
183.3671	4
183.7374	1
184.0191	61
184.3271	1
184.4300	4
185.0078	126
185.3409	2
185.5380	2
185.7231	2
186.0119	28
186.2509	2
186.3970	1
186.6428	1
187.0280	62
187.2456	4
187.3312	2
187.4605	2
187.7853	2
188.0482	9
188.3131	5
188.4364	2
188.6259	4
188.9698	62
189.2206	3
189.4351	5
189.6861	3
189.9789	26
190.1490	2
190.2927	4
190.4142	9
190.5971	5
190.9873	80
191.9780	78
192.3131	1
192.3922	0
192.5591	4
192.6909	4
192.9902	165
193.3790	1
193.4952	1
193.6656	4
194.0051	97
194.2594	4
194.4245	2
194.9941	222
195.3494	4
195.4455	2
195.6851	3
196.0107	87
196.3154	3
197.0124	189
197.2806	3
197.4222	3
197.6770	2
198.0199	33
198.5459	4
199.0090	67
199.2417	3
199.5801	3
200.0598	8
200.3033	3
200.4187	2
200.6834	3
201.0350	44
201.3649	2
201.4613	2
201.9740	48
202.1839	2
202.5473	4
202.9897	73
203.2431	2
203.5653	4
203.9956	38
204.2907	4
204.4341	3
204.5899	4
204.7279	3
205.0163	115
205.4238	3
206.0042	66
206.1689	3
206.3479	2
206.5521	3
206.7087	4
207.0150	161
207.3405	3
207.5108	4
208.0141	66
208.3901	2
208.6089	5
209.0164	139
209.3033	3
209.4546	4
209.6066	4
210.0137	32
210.5258	7
210.6485	3
211.0339	93
211.3409	2
211.4357	2
211.6650	6
212.0226	10
212.4942	2
213.0179	35
213.3429	2
213.6413	1
214.0211	14
214.2090	4
214.4494	3
214.5772	2
214.9961	46
215.2818	1
215.7418	3
216.0023	25
216.2320	1
216.4474	2
216.7100	4
217.0226	76
217.3783	3
217.5883	1
218.0317	24
218.3643	2
218.5272	1
218.6723	2
219.0214	81
219.3110	3
219.4904	6
219.6315	1
219.7438	3
220.0259	44
220.2814	5
220.3965	2
221.0480	100
221.2878	4
221.4619	2
221.7045	4
222.0486	31
222.2392	1
222.3619	3
223.0489	71
223.2725	4
223.4295	1
223.7155	3
224.0531	22
224.2170	3
224.3556	2
224.6815	2
224.8346	1
225.0638	49
225.4262	1
225.5765	1
226.0200	15
226.6305	3
227.0412	19
227.5468	1
227.8257	4
228.0635	18
228.2779	4
228.6198	17
229.0360	33
229.2753	2
229.4961	1
229.7265	1
230.0517	17
230.2753	2
231.0609	70
231.4747	1
231.7300	3
232.0553	29
232.3505	3
232.4487	2
232.7542	2
233.0488	57
233.3421	2
233.4547	3
233.8923	2
234.0846	24
234.2715	1
234.4556	2
234.5882	1
234.7208	4
235.0658	63
235.2836	5
235.3785	3
235.6534	1
235.7572	1
236.0659	21
236.3636	3
236.7067	3
237.0657	40
237.3428	4
237.4880	2
237.6558	2
237.7824	1
237.9262	9
238.0720	9
238.4704	4
238.5860	2
238.6789	2
239.0663	25
239.4834	1
239.6059	1
239.8317	3
240.0390	7
240.5437	1
241.0305	21
241.4148	2
241.5416	0
241.7028	1
242.0376	19
242.3690	2
242.5027	3
242.5964	3
243.0333	28
243.2449	1
243.4096	2
243.5895	1
243.8266	2
244.0479	21
244.2410	2
244.5499	4
244.6726	3
245.0567	43
245.3223	1
246.0631	22
246.5233	0
246.7766	4
247.0754	51
247.3017	1
247.4957	3
247.7331	2
248.0603	23
248.3531	5
248.5436	3
249.0670	37
249.4966	2
249.6686	3
249.8192	3
250.0685	19
250.7124	2
250.7843	1
251.0883	25
251.4650	2
252.0490	17
252.8025	3
253.0694	28
253.5984	1
254.0653	8
255.0694	23
255.4394	4
255.6040	2
256.0612	9
256.2916	5
256.4639	1
256.8458	5
257.0929	39
257.2679	3
257.5171	2
258.0708	19
258.2439	5
258.7119	2
258.8303	1
259.0858	33
259.5532	0
259.7616	3
260.0775	17
260.2686	2
260.3628	2
260.5901	1
260.7972	3
261.0902	37
261.4949	3
261.7201	2
262.0846	13
262.2198	4
262.4575	2
262.7694	1
263.1014	26
263.3323	2
263.4280	2
263.5750	2
263.6651	1
263.7885	2
264.1311	10
264.2087	4
264.5922	2
265.0798	21
265.3531	2
265.5730	0
266.0566	5
266.1940	4
266.5153	0
267.0781	8
267.3786	4
267.5542	3
267.7756	2
267.9901	6
268.0880	3
268.1984	2
268.3268	3
268.5178	2
268.8025	2
269.1080	32
269.4066	2
270.0928	12
270.2262	4
270.8298	3
271.1078	28
271.3440	0
271.6873	1
272.1077	6
272.7599	2
273.1173	23
273.6489	1
274.0431	10
274.1528	5
274.2819	3
274.3937	4
275.1136	34
275.4018	2
275.5712	1
276.0809	6
276.2740	1
276.6491	3
277.0797	11
277.7773	2
278.1295	5
278.4506	3
278.7161	1
278.8564	4
279.0782	13
279.2192	7
280.0089	5
280.1876	8
280.8975	3
281.1110	22
281.3050	2
281.4183	1
281.7056	5
282.1256	16
282.3768	3
283.1503	32
283.3361	6
283.7613	3
284.1495	22
284.7940	3
285.0829	20
285.1921	10
285.4852	3
286.1556	9
286.4077	2
286.6737	2
286.8993	2
287.1124	18
287.7664	4
287.9370	4
288.1794	6
288.7297	1
289.1067	14
289.6250	3
290.0925	9
290.4571	2
291.0570	6
291.2616	5
291.6722	2
292.0850	5
292.9121	2
293.1265	14
294.1070	8
294.8237	4
295.0933	21
295.3217	1
295.7300	2
295.9599	3
296.1285	9
296.3250	3
296.8783	3
297.1626	16
297.4616	0
297.7160	1
298.1767	7
298.2604	5
299.1325	11
299.2510	4
300.0710	5
300.2105	2
301.0481	5
301.5517	1
301.6515	1
301.8050	2
302.0889	8
302.6338	1
303.1320	6
303.6686	0
304.0637	2
304.1837	1
304.4601	2
304.5508	1
304.9836	2
305.1624	11
305.3006	2
305.9792	1
306.0804	1
306.1908	1
306.4352	2
307.1398	12
307.4170	2
307.6636	3
308.0966	3
308.2573	3
308.5465	0
308.8336	2
309.1389	12
309.5630	1
310.0920	8
310.2283	4
310.6308	1
311.1249	9
311.5730	3
311.9980	1
312.1693	4
312.4678	1
313.1054	8
314.0712	5
314.8566	3
315.1392	9
316.1507	4
316.3180	2
316.7189	1
316.9960	3
317.1114	10
317.6237	1
318.1297	6
318.4355	0
319.0914	10
319.5093	1
320.0211	4
320.1891	3
320.3425	3
320.7493	0
321.1281	5
321.2962	2
321.6653	0
322.1458	3
322.2872	2
322.7285	2
323.1264	8
323.3618	1
324.1983	3
324.2866	2
325.0708	7
325.7695	1
326.0645	7
326.1522	3
326.7725	2
326.8651	1
327.1076	7
328.1382	3
328.2827	0
328.8037	3
329.2336	7
329.5211	3
329.6894	2
329.9973	1
330.1502	2
330.5879	1
330.8110	0
331.1449	6
331.6153	0
332.1285	2
332.2651	3
332.7826	1
333.1425	13
333.4472	3
333.5908	2
334.1266	2
334.2169	3
335.1830	16
335.2845	5
335.7631	2
335.9564	2
336.1968	7
336.6606	2
336.8527	2
337.1911	14
337.4147	2
337.8268	2
338.0034	1
338.1843	6
338.2887	4
338.7829	2
339.1411	4
339.2673	3
340.5146	2
340.6962	0
341.1541	3
341.6927	1
342.0546	1
342.2004	2
343.2175	7
343.5416	2
344.2390	2
345.0824	9
345.3167	3
345.9925	3
346.1364	4
346.2852	3
346.6628	2
346.9007	1
347.1471	7
348.1593	10
348.4689	2
349.1780	16
349.6366	1
349.9666	4
350.1379	9
350.2636	5
350.6941	1
350.9645	3
351.2054	4
351.6823	2
351.8973	0
352.2317	3
352.3932	3
353.0388	4
353.3128	2
353.4203	0
354.2754	2
354.3907	1
354.8390	1
355.1580	6
355.4061	3
355.8348	2
356.1806	1
356.3219	2
357.0241	3
357.2392	6
358.1222	1
358.1989	1
358.9965	3
359.1502	8
359.2822	3
359.6914	0
360.2067	8
361.0723	2
361.2520	10
361.4409	2
361.7892	2
362.2098	23
362.6943	2
363.1143	6
363.2547	14
363.6572	2
363.8166	3
364.1790	3
364.6560	3
365.0444	3
365.1779	8
365.8945	2
366.1783	2
367.1726	4
368.1156	1
368.4010	1
368.6104	0
369.1361	3
369.3329	2
370.2601	3
370.9104	4
371.1593	4
371.2760	3
373.2642	6
373.3830	3
374.0444	1
374.1998	7
374.3566	2
374.5379	2
374.6483	2
374.8213	1
374.9492	2
375.2227	12
375.3521	4
375.5039	0
376.2036	22
377.1740	5
377.3484	2
377.9399	3
378.3499	2
378.7839	3
379.2411	5
379.8110	1
380.1465	2
380.2690	1
380.7896	2
380.9226	2
381.1611	8
381.4763	1
382.2004	3
382.5114	1
383.0991	6
383.3053	1
384.0337	1
384.2132	4
384.7207	1
385.0523	3
385.2994	4
385.4437	3
385.9055	2
386.1350	3
386.2272	2
386.3596	2
386.7539	2
386.9701	3
387.2200	3
387.5608	2
388.1749	6
388.3058	3
388.7234	1
388.8538	2
389.1207	3
390.0391	3
390.1363	1
390.2842	2
390.9922	3
391.2028	6
391.4465	1
391.8051	2
392.0073	1
392.1983	1
392.8634	0
395.0993	3
395.3221	4
396.1608	1
396.7903	3
397.1575	3
397.3768	1
397.8336	1
398.1170	2
398.2763	3
398.6747	2
399.0441	3
399.2239	12
399.6456	1
399.8113	2
399.9855	2
400.3148	3
400.4361	2
401.1921	10
401.4890	2
402.2613	17
402.8263	1
403.2333	5
403.4753	1
404.0128	2
404.2139	4
404.3986	2
404.6233	3
405.1127	4
405.3444	2
406.0170	3
406.1219	3
406.2649	0
406.7227	0
407.1721	3
407.3630	2
407.5603	2
409.0341	2
409.1954	2
409.3511	2
410.2311	3
410.3967	3
411.3163	8
412.6462	2
413.1910	13
413.3842	3
414.2399	12
415.2148	14
415.7330	2
416.1850	3
416.3485	3
416.4797	2
416.6461	2
417.2038	1
417.5945	2
417.8180	3
418.0726	3
418.2404	3
418.9266	2
419.1847	1
419.4492	1
419.8145	2
420.0332	2
420.2102	2
421.1572	5
421.4691	1
422.2498	2
423.0151	2
423.1510	2
423.3580	3
423.5678	3
424.0037	3
424.3473	5
425.1262	1
425.3255	3
425.8959	3
426.2044	3
426.5551	2
427.1299	3
427.2919	7
427.3757	5
427.5356	0
428.2738	26
428.8437	3
429.2897	54
429.8406	5
430.0294	3
430.2746	8
431.2575	5
431.4788	3
431.5908	0
431.7930	1
432.2187	4
432.3645	2
432.8790	0
433.2398	3
433.3709	2
434.2561	2
434.6078	3
434.9356	2
435.1111	2
435.2859	1
435.4128	2
435.6327	0
436.7430	1
437.1004	1
437.2570	2
437.5051	3
437.5806	1
437.8111	3
438.1721	6
438.6149	1
439.1557	7
439.3461	2
439.5175	4
439.7755	5
439.9081	2
440.0759	4
440.2142	4
440.3714	9
440.5632	11
440.7424	9
441.0047	6
441.1718	10
441.3496	12
441.5717	5
441.6529	2
441.8405	3
442.0062	4
442.1762	6
442.3151	2
442.4068	1
442.7926	1
443.1136	4
443.2144	3
443.3887	3
444.2838	4
444.7163	2
445.5354	3
445.6927	2
446.2614	3
446.5062	1
446.6741	2
447.1906	2
447.4087	3
447.5632	2
447.7573	1
448.0847	5
448.1687	3
448.9979	2
449.2308	4
449.5011	3
449.6253	2
449.8173	2
449.9732	1
450.0713	1
450.6734	4
450.9988	3
451.0983	3
451.7936	3
452.4240	3
453.0268	2
453.2817	6
453.5274	6
453.7279	1
453.9376	2
454.0540	2
454.1960	3
454.3231	2
454.5391	4
454.7438	3
454.8780	2
455.0114	2
455.1647	2
455.3426	3
455.7253	4
456.2900	24
456.6925	3
456.8484	4
457.2530	118
457.7775	3
458.2457	9
458.3768	8
458.4833	2
458.7477	5
459.2624	5
459.8117	4
460.1050	2
460.2708	3
460.6036	2
460.7933	3
461.0853	2
461.2715	3
461.4118	3
461.5415	2
462.3173	9
463.1884	4
463.2885	1
463.8789	4
464.8862	2
465.0583	2
465.2467	3
465.8569	2
466.4495	2
467.2432	5
467.4704	4
467.6602	2
467.7752	2
467.8613	1
468.2974	8
468.7003	2
469.0044	2
469.3572	1
469.8964	1
470.0678	2
470.8921	2
471.1335	3
471.2626	4
472.1900	3
472.4208	0
473.1669	3
473.2735	1
473.4104	3
473.6208	2
473.9208	2
474.2484	4
474.7990	1
474.9458	2
475.2303	7
475.4675	1
475.5903	2
475.8007	4
475.9200	3
476.3175	118
476.6388	3
476.8287	2
477.0278	3
477.2735	5
477.3900	4
477.6393	0
478.0502	2
478.2352	1
479.2040	2
480.4985	0
481.1645	3
481.3573	3
482.0290	1
482.2875	3
483.0737	3
483.1931	2
483.2876	1
484.2771	2
485.1339	2
486.2710	4
487.3094	2
487.8049	1
488.3661	13
488.6485	1
488.8144	2
489.3256	17
489.4562	7
490.1198	4
491.1302	3
492.2523	0
493.4182	2
494.2826	3
494.5171	1
494.7282	3
495.0023	1
495.2000	2
495.4416	1
495.5482	0
496.1338	3
496.3704	2
497.1114	3
497.3430	5
497.6892	3
498.0381	5
498.3165	8
498.7778	4
498.9940	1
499.3302	3
500.3172	2
500.8662	3
502.3655	3
502.9259	1
503.1407	1
503.4114	1
503.5146	5
505.2502	4
506.0269	2
506.2686	2
507.2751	2
508.0591	2
508.5100	2
508.7843	2
509.3640	4
510.1605	5
510.2993	5
510.4128	7
510.4776	3
510.8878	1
511.5037	2
512.3417	3
513.0824	2
513.4384	4
513.9754	2
514.7050	2
515.8533	0
516.7775	1
517.7538	1
518.5160	0
518.7656	2
518.9059	3
520.4768	1
520.5776	1
520.7307	3
521.0332	2
521.9830	2
522.1375	5
522.2101	2
522.4287	3
523.0549	4
523.3815	6
523.8159	3
524.0677	3
524.3597	9
524.5635	4
524.8237	1
525.1404	7
525.3894	13
525.6046	3
526.0256	2
526.2231	6
526.3438	6
526.4827	8
526.5786	3
526.7514	2
526.9525	3
527.1190	3
527.3976	1
527.6931	3
527.8963	6
528.1622	1
528.7217	3
528.9721	2
529.0850	2
529.1816	3
529.3544	1
529.6698	1
530.0092	3
530.2674	6
530.4896	3
530.6427	0
530.8600	2
531.0590	2
531.2198	3
531.3624	2
531.9656	3
532.2154	3
532.3727	0
532.6254	1
533.1129	3
533.3134	4
533.4248	6
533.9216	0
534.7084	2
534.8983	3
535.2624	12
535.5439	2
535.6407	3
536.1530	2
536.3026	2
536.6880	3
537.1637	1
537.3726	4
537.5441	4
537.7445	2
537.8772	5
538.2054	8
538.4052	7
538.5308	8
538.6720	8
539.3390	30
539.7124	3
540.0187	6
540.3188	8
540.5659	7
540.8263	8
541.0424	2
541.2040	6
541.6656	9
541.8979	5
541.9805	3
542.1443	7
542.2891	6
542.3992	9
542.4916	4
542.6088	4
542.8312	5
543.1412	8
543.3650	6
543.6876	10
544.0837	8
544.2793	8
544.4494	8
544.6401	9
544.9514	9
545.1498	5
545.3864	4
545.5311	14
545.6935	12
545.8560	9
546.0240	9
546.1892	12
546.4575	11
546.6553	11
547.0013	16
547.2894	8
547.6298	14
547.9023	10
548.3465	17
548.6184	11
548.7943	18
549.0026	18
549.3514	25
550.4009	271
550.7576	25
551.4003	22
551.8071	12
552.3369	28
552.6003	14
552.8080	12
552.9153	6
553.3751	140
553.8397	16
554.1675	10
554.4080	11
554.7422	10
554.9799	6
555.2993	10
555.7632	13
556.0354	12
556.3267	13
556.5911	7
557.0967	12
557.5452	8
557.9606	9
558.2088	8
558.4570	13
558.7187	8
559.0967	13
559.3407	10
559.7596	13
560.0848	13
560.5947	17
560.9523	11
561.3212	9
561.6478	16
561.9221	18
562.1599	19
562.3531	18
562.5760	19
562.8588	26
563.4218	31
563.9564	32
568.3665	999
569.1750	404
569.8292	202
570.4191	114
571.3731	65
571.9080	39
572.3328	26
572.7012	17
572.9933	17
573.4260	16
573.8931	16
574.1966	8
574.6349	12
