Mass spectrum: beta-Cryptoxathin-5,6,5',6'-diepoxide; FAB-EBEB; MS2; m/z: 584.42; [M]+*
Name: beta-Cryptoxathin-5,6,5',6'-diepoxide
Formula: C40H56O3
Exact mass: 584.42295
SMILES: C(=C(C=CC=C(C=CC(O4)(C4(C)3)C(CC(C3)O)(C)C)C)C)C=CC=C(C=CC=C(C=CC(C21C)(C(CCC2)(C)C)O1)C)C
InChI: InChI=1S/C40H56O3/c1-30(18-13-20-32(3)22-26-39-35(5,6)24-15-25-37(39,9)42-39)16-11-12-17-31(2)19-14-21-33(4)23-27-40-36(7,8)28-34(41)29-38(40,10)43-40/h11-14,16-23,26-27,34,41H,15,24-25,28-29H2,1-10H3/b12-11+,18-13+,19-14+,26-22+,27-23+,30-16+,31-17+,32-20+,33-21+/t34-,37+,38+,39-,40-/m0/s1
Instrument: JMS-HX/HX 110A, JEOL
Instrument type: FAB-EBEB
Ms type: MS2
Ion mode: POSITIVE
Collision energy: 3 kV
Ionization: FAB
Base peak: 504.4834
Precursor m/z: 584.42
Precursor type: [M]+*
m/z	relative intensity
1.0912	0
13.0092	0
14.0166	1
15.0371	4
19.0301	0
21.5896	0
22.9983	1
24.9844	0
26.0278	4
27.0371	39
28.0453	6
29.0505	44
30.0087	0
31.0346	3
37.0269	4
37.4038	0
37.5625	0
38.0242	11
38.5645	0
39.0431	102
39.5677	0
40.0514	16
41.0589	256
41.7934	0
42.0556	9
43.0412	864
43.6489	0
44.0485	7
45.0518	9
45.6277	0
45.9560	0
47.0044	0
48.2524	0
49.0431	2
49.3187	0
50.0345	24
51.0470	69
51.5724	0
52.0466	31
53.0590	136
53.6330	0
54.0640	10
54.5210	0
55.0732	380
55.7190	0
56.0865	12
57.0893	142
58.0765	5
59.0720	34
59.7854	1
60.0758	1
61.0523	4
61.5655	0
62.0423	14
63.0521	48
63.6508	1
64.0636	12
65.0657	114
65.4984	1
66.0719	28
67.0770	198
67.6439	0
68.0796	11
69.0886	525
69.6611	0
70.0810	12
71.0731	102
72.0572	1
72.3156	1
72.5229	0
73.0638	3
74.0442	12
75.0678	19
76.0611	15
77.0666	328
78.0713	69
79.0778	350
80.0872	66
81.0930	314
81.6023	1
82.0806	20
83.1013	179
84.0612	4
84.3875	0
85.0900	139
86.0696	7
87.0731	100
88.0938	7
89.0728	33
90.1026	14
91.0944	708
92.1047	75
93.1133	548
94.1147	38
95.1122	607
96.1049	30
97.1092	62
98.0746	7
98.5484	0
99.1022	11
99.5276	1
100.0413	1
101.0881	13
102.0819	38
103.0997	120
104.1097	54
105.1148	873
106.1216	100
107.1275	475
107.5741	3
108.1152	99
109.1238	360
110.1089	15
111.1237	51
112.0799	7
113.1161	38
114.0698	13
115.0882	353
116.0970	132
117.0989	354
118.1093	83
119.1114	756
120.1135	100
121.1142	482
122.0992	101
123.1084	312
124.1133	17
125.0895	185
126.0628	21
127.0831	122
128.0775	392
129.0861	488
130.0960	194
131.1013	489
132.0979	113
133.1086	456
134.1003	70
135.1004	463
136.0974	102
137.0962	91
138.1091	13
139.0810	77
140.0976	22
141.0775	337
142.0904	321
143.0986	576
144.1064	187
145.1123	668
146.1119	93
147.1125	336
148.1097	65
149.1137	501
150.1085	45
151.1115	186
152.1007	146
153.0982	197
154.1084	106
155.1239	413
156.1271	252
157.1341	596
158.1420	126
159.1449	413
160.1471	69
161.1427	216
162.1510	64
163.1557	191
164.1746	144
165.1571	819
166.1463	122
167.1453	259
168.1599	118
169.1584	371
170.1653	154
171.1744	358
172.1634	95
173.1710	219
174.1689	46
175.1690	178
175.6087	4
176.1488	36
176.4691	5
177.1698	326
178.1255	167
179.1358	277
180.1513	198
181.1510	443
182.1513	128
183.1553	340
184.1554	94
185.1577	224
186.1606	69
187.1641	136
188.1652	35
189.1397	149
190.1435	61
191.1585	322
192.1514	202
193.1404	302
194.1359	121
195.1502	296
196.1530	97
197.1609	286
198.1572	73
199.1586	167
200.1559	45
201.1599	89
202.1143	75
203.1467	152
204.1431	51
205.1766	577
206.1512	106
207.1476	227
208.1628	101
209.1648	205
210.1627	66
211.1703	190
212.1798	60
213.1685	112
214.2096	34
215.1594	123
216.1509	43
217.1781	131
218.2089	114
219.1681	132
220.1844	60
221.1936	271
222.2000	66
223.2008	139
224.2020	47
225.2098	114
226.2011	33
227.1990	74
228.2142	40
229.2021	87
230.2073	38
231.2239	180
232.2077	43
233.2150	115
234.2150	67
235.2122	92
235.6787	4
236.2314	32
237.2233	90
238.2541	40
239.2128	77
240.2520	93
241.2160	82
242.2128	30
243.2177	80
244.2074	28
245.2114	66
246.2235	39
247.2251	112
248.2116	28
249.2155	72
250.2305	23
251.2335	63
252.2352	37
253.2373	67
254.2397	23
255.2487	101
256.2440	39
257.2455	77
258.2672	61
259.2350	64
260.2496	21
261.2428	54
262.2410	19
263.2456	48
264.2382	25
265.2528	47
266.2303	17
267.2502	66
268.2750	41
269.2737	92
270.2788	52
271.2936	136
272.2823	25
273.2758	53
274.2868	34
275.2581	37
276.2864	14
277.2698	49
278.2690	13
279.2809	47
280.2635	14
281.2853	59
282.2981	39
283.3110	145
284.3071	31
285.2895	45
286.2845	27
287.2969	54
288.2956	12
289.2960	29
290.2764	9
291.3021	33
292.3095	14
292.6558	3
293.2844	38
294.2845	15
295.2895	63
296.3166	43
297.2987	50
298.2966	18
299.2963	66
300.2899	16
301.2697	21
302.2842	10
303.2425	26
304.3168	11
305.2740	29
306.2940	10
306.7353	3
307.2876	37
308.2955	17
309.3005	108
310.2963	15
311.2845	35
312.3011	25
313.2960	29
314.2628	8
315.2330	14
316.2958	10
316.6752	3
317.3040	23
318.3061	11
319.2818	36
320.3204	20
321.2995	51
322.3323	12
323.2867	18
324.3182	40
325.3060	41
325.7426	3
326.3473	9
327.2868	19
327.8100	2
328.3191	5
329.2934	10
330.3056	7
331.2976	22
332.2804	8
333.3057	23
334.3140	17
335.3356	55
336.3422	503
337.3347	49
338.3196	10
339.2858	10
340.3354	27
341.2910	7
342.2152	3
343.3031	11
343.7496	1
344.3251	6
345.3096	16
346.3430	13
347.3434	31
348.3457	18
349.3418	106
350.3648	21
351.3487	28
352.3326	177
353.3278	22
354.3042	3
355.3170	6
356.3630	3
357.3446	6
358.2380	6
358.6478	3
359.3160	24
359.7243	2
360.3848	22
361.3654	44
362.3554	30
363.3735	46
364.3397	14
365.3328	34
366.3528	15
367.3777	8
368.3382	5
369.3255	4
369.8035	1
370.4739	2
371.3795	25
371.8560	1
372.3341	9
372.5472	3
373.3757	20
374.3542	21
375.3756	54
376.3749	35
377.3921	27
378.3555	5
379.3459	21
380.3837	3
381.4516	3
381.7072	2
382.3257	3
383.4270	9
384.3423	16
385.3744	8
386.4193	11
387.3933	24
388.3706	19
389.3891	38
390.3666	14
391.3633	27
391.8276	2
392.3805	21
393.3394	4
393.8260	2
394.4517	3
395.3967	6
395.7412	2
396.3228	3
397.3959	12
398.3586	4
399.3688	7
400.3791	6
401.3800	26
402.4190	44
403.4265	127
404.4215	56
405.4039	24
406.4117	4
406.7203	2
407.4229	3
407.7346	2
408.3913	3
409.3412	8
410.3960	4
411.3940	24
412.4222	10
413.4062	11
414.3983	5
415.4173	9
416.4175	6
417.4257	35
418.4261	49
419.4360	83
420.4287	74
421.4531	3
422.5203	3
423.3994	10
424.4194	23
425.4284	12
426.4429	40
427.0560	2
427.4494	8
428.4591	7
428.8195	2
429.4310	16
430.3872	4
431.4384	10
432.4026	46
433.4018	18
433.9536	2
434.3773	2
434.9197	1
435.4193	4
436.3271	1
436.8948	2
437.4436	13
438.4258	154
439.4160	7
439.9476	2
440.4317	5
441.4379	7
442.3698	3
443.3177	1
444.3669	7
445.4764	9
446.4815	4
447.4138	9
448.4254	55
449.4482	5
449.8726	2
450.4141	4
450.9176	1
451.4243	6
452.3761	2
453.4198	4
454.2593	3
455.4156	9
456.5373	4
457.4435	21
458.3434	5
459.4653	5
460.4114	4
461.3695	10
462.2652	3
463.3666	8
463.9475	3
464.4967	17
465.4607	43
467.2289	6
469.9934	10
471.3885	14
473.3904	11
474.9791	17
476.4793	11
477.4664	21
478.4471	18
479.5088	6
480.5610	4
481.4977	5
482.3615	3
483.4488	12
484.4252	8
488.3872	51
490.5062	45
491.4753	148
492.4872	99
493.2917	9
493.9014	5
495.0291	3
495.4932	4
495.7578	1
496.3502	2
497.0519	3
497.5319	7
498.4888	13
499.4838	14
500.4408	4
501.4581	4
502.5166	8
504.4834	999
505.4946	31
506.4916	4
507.1415	3
507.9706	1
508.5445	1
509.4624	4
510.4597	12
511.4554	7
512.4576	4
513.4709	6
514.5445	2
515.3596	4
515.6523	2
516.0192	1
516.4875	3
516.7485	1
517.0538	0
517.6360	2
518.1233	2
518.5884	1
518.8779	0
519.5741	1
520.1168	1
520.3937	0
521.3684	3
521.5900	2
522.0821	1
522.4192	1
523.4431	4
524.5604	4
525.4673	10
526.5151	16
527.4522	9
528.4400	6
529.0906	3
529.5735	3
530.6168	3
531.2802	1
531.7932	2
532.2936	2
533.5144	3
535.1170	4
537.0571	4
538.4430	4
539.5233	18
540.5134	18
541.4338	34
542.4683	14
542.8628	4
543.5457	3
544.5153	3
545.4058	3
546.4485	4
547.5038	7
548.3581	5
549.5435	5
551.3837	39
552.4758	8
553.4650	23
554.4907	23
555.5497	31
556.5612	38
558.1769	14
559.2044	12
566.5297	538
567.5733	156
568.5505	92
569.5421	955
584.4239	999
587.9570	112
589.0240	46
590.7925	16
