Mass spectrum: Capsanthone; FAB-EBEB; MS2; m/z: 582.41; [M]+*
Name: Capsanthone
Formula: C40H54O3
Exact mass: 582.40730
SMILES: C(C(C)(C)1)C(CC1(C(=O)C=CC(=CC=CC(=CC=CC=C(C=CC=C(C)C=CC(=C(C)2)C(C)(C)CC(C2)O)C)C)C)C)=O
InChI: InChI=1S/C40H54O3/c1-29(17-13-19-31(3)21-23-36-33(5)25-34(41)26-38(36,6)7)15-11-12-16-30(2)18-14-20-32(4)22-24-37(43)40(10)28-35(42)27-39(40,8)9/h11-24,34,41H,25-28H2,1-10H3/b12-11+,17-13+,18-14+,23-21+,24-22+,29-15+,30-16+,31-19+,32-20+/t34-,40+/m1/s1
Instrument: JMS-HX/HX 110A, JEOL
Instrument type: FAB-EBEB
Ms type: MS2
Ion mode: POSITIVE
Collision energy: 3 kV
Ionization: FAB
Base peak: 83.0171
Precursor m/z: 582.41
Precursor type: [M]+*
m/z	relative intensity
0.0595	1
0.4575	1
1.0042	0
3.4080	0
10.2075	1
11.9939	0
13.9826	1
15.0000	3
19.9055	0
22.9829	1
24.0177	0
24.9802	0
25.9931	6
26.2694	0
26.9984	36
28.0035	4
29.0016	31
29.9890	1
30.5566	0
30.9783	3
32.3713	0
33.0374	0
36.9666	6
37.9774	16
38.9909	100
39.4987	0
39.9979	14
40.4178	0
41.0000	230
41.6625	0
42.0011	7
42.3582	0
42.9912	138
44.0064	2
44.9808	6
48.0003	1
48.9836	2
49.4780	0
49.9774	35
50.9783	71
51.9863	26
52.9940	115
53.6690	0
53.9967	4
54.3986	0
55.0048	336
56.0182	15
57.0187	83
57.4027	1
57.9939	1
59.0004	15
60.9859	3
61.9808	25
62.2931	1
62.9855	59
63.6081	1
64.0006	16
64.4172	0
64.9913	100
65.9947	22
66.3660	0
66.9984	138
67.4213	1
67.9845	5
68.3774	0
68.9932	290
69.4218	2
70.0145	4
70.9912	32
71.6166	0
72.0019	1
72.9636	2
73.3379	0
73.9772	18
74.9826	22
75.4123	2
75.9770	17
76.9901	308
77.9946	61
78.9970	228
79.9879	26
81.0040	201
82.0138	13
82.4749	1
83.0171	999
84.0166	12
84.4299	0
85.0016	80
85.9757	9
86.9750	12
87.9593	4
88.2122	2
88.9957	40
89.3485	4
89.9890	17
91.0089	598
92.0150	49
93.0153	303
93.5096	2
94.0111	18
95.0209	178
95.4504	3
96.0028	10
97.0305	63
97.4768	1
97.9837	7
99.0170	9
99.9974	2
100.9812	9
101.9999	34
103.0110	120
103.5276	2
104.0184	53
105.0194	615
106.0320	68
107.0297	238
107.5158	1
108.0200	29
108.3647	2
109.0352	144
109.9810	9
111.0038	35
111.9863	5
112.9942	12
113.2534	3
113.9784	13
114.9994	373
115.9966	128
117.0010	303
118.0139	66
119.0043	627
119.5008	3
120.0132	57
121.0022	269
121.4774	2
121.9927	45
122.9901	88
123.4922	1
123.9876	8
125.0006	253
125.9864	22
126.9879	119
127.9806	390
128.9845	426
129.9841	152
130.9834	407
131.9839	76
132.9900	286
133.9713	29
134.9855	223
135.9287	14
136.3759	2
136.9741	43
137.8771	8
138.9727	64
139.9838	24
140.9742	319
141.9802	298
142.9888	466
143.9940	163
144.9958	556
146.0031	62
146.9997	162
147.9899	24
148.4678	2
149.0031	84
149.5093	1
150.0275	16
151.0177	58
151.9984	159
152.9992	217
154.0024	98
155.0154	297
156.0233	207
157.0262	421
158.0315	113
159.0214	496
160.0328	43
161.0406	102
162.0256	12
163.0558	37
164.0439	29
165.0267	303
166.0371	109
167.0483	225
168.0558	94
169.0678	304
170.0615	115
171.0619	230
172.0690	59
173.0634	147
174.0689	24
175.0886	83
176.0403	36
177.0614	50
178.0293	166
179.0368	230
180.0375	101
181.0464	251
182.0499	101
183.0555	264
184.0573	72
185.0477	134
186.0463	33
187.0470	71
188.0016	12
189.0411	103
190.0300	34
191.0391	123
192.0322	93
193.0380	189
194.0473	108
195.0406	232
196.0451	91
197.0501	205
198.0602	38
199.0496	84
200.1018	26
201.0650	44
202.0241	73
203.0324	88
204.0275	33
204.3876	6
205.0443	98
206.0404	70
207.0599	163
208.0463	64
209.0667	175
210.0603	51
211.0786	103
212.0746	29
213.0787	62
214.0085	15
215.0624	83
216.0480	42
217.0876	101
218.0848	33
219.0825	138
220.0821	46
221.0990	131
222.0980	46
223.0990	93
224.1096	26
225.1037	58
226.0936	25
227.0916	34
228.1116	35
229.0628	61
230.1189	27
231.0950	71
232.1260	38
233.1313	79
234.0940	30
235.1232	84
236.1327	20
237.1119	54
238.1299	14
239.1083	52
240.1255	22
241.1292	36
242.0856	15
243.1131	49
244.0994	25
245.1308	63
245.5625	6
246.1208	26
247.1313	72
248.1221	21
249.1255	57
250.1509	16
251.1473	40
252.1131	20
253.1303	33
254.0828	15
254.6520	3
255.1423	36
256.0815	15
257.1402	42
258.1465	25
259.1252	41
260.1089	19
261.1316	42
262.1422	16
263.1376	41
264.1752	10
265.1355	30
266.1101	12
267.1393	29
268.1455	12
269.1380	35
270.1417	14
271.1425	32
272.1763	15
273.1263	25
274.0969	12
275.1533	29
276.0973	16
277.1657	22
278.1755	10
279.1607	23
279.7342	2
280.1554	15
280.5938	2
281.1877	20
282.1410	20
283.1676	37
284.1774	12
284.4980	4
285.1828	30
286.1852	8
287.1304	17
288.1349	9
289.1771	25
290.1884	9
291.1231	17
292.1835	8
293.1430	15
294.1369	6
295.1732	21
295.5394	3
296.1535	8
297.1747	21
297.6580	2
298.1602	6
299.1521	19
300.0928	6
301.1929	15
301.5830	3
302.1418	6
302.4805	2
303.1268	10
303.5015	2
304.2370	5
305.1974	15
306.0956	4
307.1721	13
307.5769	1
308.1926	6
309.1523	11
310.1826	10
311.1318	11
311.6604	1
312.2642	4
313.1339	9
313.5908	1
314.1807	8
315.1322	10
316.1919	6
317.2189	11
318.0990	5
319.1671	11
320.2386	4
321.1443	8
321.5204	2
322.1582	7
323.1174	9
324.1035	5
325.2058	8
326.1907	5
326.6675	1
327.2103	9
328.1328	3
329.2029	5
330.2152	2
331.1963	5
332.1870	3
333.1794	14
333.6788	1
334.2426	4
335.2136	10
335.6855	1
336.1858	7
337.2538	12
337.7934	2
338.2185	3
339.2038	6
340.1783	2
341.2125	12
341.6017	2
342.3191	4
343.2108	5
344.1687	3
345.3371	6
346.2245	4
346.5497	1
347.2111	7
348.1931	12
349.2256	15
350.2063	9
351.2029	7
352.2232	7
353.1887	8
353.6180	1
354.0741	2
354.6340	1
355.2255	8
356.3456	4
356.8081	1
357.2613	4
357.5540	2
358.2180	3
359.2757	11
360.2878	4
361.2986	9
362.1876	7
363.2553	15
364.2462	3
365.2466	4
366.1702	2
366.6186	1
367.2244	6
368.0018	1
368.3511	3
369.1680	3
370.1518	2
370.9075	1
371.3436	2
372.1057	0
372.7734	2
373.2773	6
373.6852	2
374.2916	5
374.6539	1
375.2572	15
376.2448	11
377.2318	6
377.5954	1
378.2566	12
379.2312	12
380.2154	1
380.5618	1
381.2926	6
381.6989	0
382.2612	3
382.6235	1
383.2883	4
384.2872	2
385.2499	5
385.6407	2
386.3042	1
386.6241	1
387.2876	4
388.2539	4
388.6795	1
389.2833	8
390.2025	4
390.7228	2
391.2968	3
391.5980	1
391.9592	2
392.2194	1
393.0569	2
393.4023	2
393.8645	1
394.1973	1
395.2290	5
396.1520	2
396.4944	1
396.8605	0
397.2613	5
398.2035	2
398.7417	1
399.3178	10
400.2207	4
401.3589	6
402.2747	6
403.2979	5
404.3465	2
405.2989	4
405.7711	1
406.4014	3
407.4283	2
408.0855	2
408.6139	0
409.3170	2
409.5897	1
409.9870	2
410.4095	1
411.2468	8
412.0809	3
412.4357	1
413.3015	10
414.3283	10
415.1880	5
416.2638	6
416.6299	2
417.3256	7
417.6223	2
418.3844	2
418.8957	1
419.3612	2
420.3207	2
420.8558	1
421.2520	1
421.9402	1
422.3316	2
422.6490	1
423.1478	2
423.9120	1
424.3493	2
424.9004	1
425.2760	1
425.5836	1
426.2667	3
427.3190	10
428.2673	30
429.2252	50
430.2952	8
431.1585	4
431.8214	2
432.5207	3
433.4916	2
433.9479	1
434.2447	1
434.8036	2
435.2615	2
435.8931	1
436.3463	2
436.6890	1
437.0664	2
437.4707	2
437.7140	1
438.3173	5
438.5352	3
438.9412	2
439.3550	7
439.6789	3
440.1954	3
440.5145	1
441.2807	8
442.2050	8
442.4862	2
443.3426	4
444.2181	7
444.7364	2
444.9640	1
445.3133	2
445.5471	1
446.1778	1
447.0882	2
447.6920	2
447.9023	1
448.3086	3
448.6010	2
448.7828	1
449.7504	3
450.4682	3
450.9078	2
451.7237	5
452.3388	2
452.6931	2
453.0869	3
455.1208	28
456.2266	14
457.3039	84
458.2832	5
459.4430	7
460.1962	7
460.6985	4
461.4043	4
462.0390	4
462.6865	3
463.3687	4
464.1536	3
464.6668	3
465.3586	4
466.1200	4
466.6397	4
467.7660	6
468.3790	4
469.1500	5
470.4077	8
470.7395	7
471.2973	7
472.2644	14
472.7859	6
474.1167	5
474.7916	4
475.3685	12
476.1905	6
477.3809	2
477.6433	1
477.9421	1
478.3864	1
479.3319	4
479.6355	2
480.3312	3
481.0871	3
481.3923	2
482.3143	4
483.3360	9
484.2154	2
485.3654	3
485.7086	2
486.2038	2
487.2100	3
488.1844	4
489.2373	6
490.3125	113
491.0098	4
491.5411	3
491.9838	1
492.4930	2
493.2062	1
493.6712	1
493.9258	1
494.2690	1
494.8716	1
495.3192	1
496.2224	3
497.3344	5
498.3311	26
499.3800	1
499.9037	1
500.4115	2
501.2786	2
502.3056	11
503.3310	16
503.7267	2
504.2964	1
505.2824	2
505.9392	1
506.3998	0
507.3797	2
507.6772	1
508.2756	2
509.3062	3
509.8334	1
510.2767	2
511.3423	2
511.9186	0
512.3445	2
512.8116	1
513.1901	0
513.5971	1
513.9645	2
514.2321	2
514.8175	1
516.0004	1
516.3748	1
517.0982	1
517.4536	1
518.2292	1
519.1454	1
519.4187	2
520.3934	1
520.8168	1
521.2892	1
521.5104	0
522.3415	2
522.6148	0
523.3922	2
524.4020	4
524.6927	1
525.4670	3
526.3062	6
527.2039	1
527.4600	1
528.1902	0
528.7276	1
528.9868	1
529.5985	1
529.9463	1
530.1960	0
530.6813	2
531.5255	1
532.5057	0
533.4369	1
534.4978	2
535.1841	1
536.0711	2
536.4285	2
536.7985	1
537.4421	4
538.2360	4
538.6488	4
539.4238	12
540.3142	4
541.2000	3
541.8374	2
542.6616	2
543.0602	1
543.5221	3
544.1201	3
544.8684	2
545.1864	3
545.6594	2
546.4837	4
547.2100	5
547.8444	3
549.3889	70
550.5804	4
551.4461	5
551.7690	3
552.4226	11
553.5052	22
554.6638	14
557.1380	15
559.2090	19
564.4393	885
565.4934	49
566.4607	37
567.4532	291
568.4728	14
569.8970	13
570.9783	14
572.5908	18
582.3096	999
584.3538	201
585.3987	89
586.8043	33
588.4376	15
589.3246	8
590.4252	8
590.8585	5
591.5463	4
592.1362	4
