Mass spectrum: Mytiloxanthin; FAB-EBEB; MS2; m/z: 598.40; [M]+*
Name: Mytiloxanthin
Formula: C40H54O4
Exact mass: 598.40221
SMILES: CC(C)(C=1C#CC(C)=CC=CC(=CC=CC=C(C)C=CC=C(C)C(=CC(=O)C(C2)(C(CC(O)2)(C)C)C)O)C)CC(CC(C)1)O
InChI: InChI=1S/C40H54O4/c1-28(17-13-18-30(3)21-22-35-32(5)23-33(41)25-38(35,6)7)15-11-12-16-29(2)19-14-20-31(4)36(43)24-37(44)40(10)27-34(42)26-39(40,8)9/h11-20,24,33-34,41-43H,23,25-27H2,1-10H3/b12-11+,17-13+,19-14+,28-15+,29-16+,30-18+,31-20+,36-24-/t33-,34+,40+/m1/s1
Instrument: JMS-HX/HX 110A, JEOL
Instrument type: FAB-EBEB
Ms type: MS2
Ion mode: POSITIVE
Collision energy: 3 kV
Ionization: FAB
Base peak: 109.1047
Precursor m/z: 598.40
Precursor type: [M]+*
m/z	relative intensity
11.9726	0
14.0040	0
15.0208	2
19.0141	0
21.9035	0
22.9805	1
24.0133	0
24.9854	0
26.0057	2
27.0130	23
28.0249	1
29.0243	25
30.0129	1
31.0084	4
37.0065	1
37.3476	0
38.0032	8
38.3035	0
39.0163	59
39.4445	0
40.0230	7
41.0312	151
42.0220	6
43.0227	204
44.0241	3
45.0283	5
45.7233	0
46.9859	2
49.0096	1
49.3664	0
50.0020	16
51.0145	44
52.0235	16
53.0266	84
54.0376	4
55.0421	201
56.0604	5
57.0561	96
58.0496	0
58.3525	0
59.0453	18
59.6742	0
60.1587	0
60.9646	3
62.0119	11
63.0196	39
63.4796	0
64.0254	9
65.0329	63
66.0346	17
67.0478	144
68.0498	5
69.0302	276
70.0550	3
70.5407	0
71.0401	133
71.6828	0
72.0504	1
72.6839	0
73.0308	2
73.5604	0
74.0054	11
74.3215	0
75.0351	17
76.0110	12
77.0330	190
78.0373	33
79.0421	146
80.0485	16
81.0580	136
82.0345	11
83.0737	731
84.0731	6
84.4189	1
85.0752	226
86.0129	6
86.4155	0
86.5834	0
87.0256	9
88.0381	6
89.0357	27
90.0263	9
91.0572	341
92.0689	25
93.0720	149
94.0652	17
95.0672	176
96.0625	12
96.4978	0
97.0642	64
98.0349	12
99.0545	140
100.0292	2
101.0529	10
101.5052	1
102.0579	24
103.0635	69
104.0571	31
105.0777	360
106.0821	24
107.0883	159
108.0706	24
109.1047	999
110.0606	12
110.4363	0
111.0603	112
112.0673	6
113.0604	112
113.5399	3
114.0722	9
115.0487	221
116.0566	78
116.4502	3
117.0589	165
118.0557	30
119.0739	328
120.0665	20
121.0706	128
122.0375	33
122.5938	1
123.0544	78
124.0398	14
124.5445	1
125.0668	90
125.5175	2
126.0477	17
127.0717	179
128.0451	250
129.0472	264
130.0579	90
131.0626	200
132.0569	45
133.0612	138
134.0507	18
135.0472	121
135.5021	2
136.0565	16
136.5164	0
137.0409	101
137.6128	2
138.0518	12
139.0287	53
140.0551	20
141.0430	240
142.0481	172
143.0543	277
144.0675	81
145.0670	220
146.0558	36
147.0691	202
148.0510	18
149.0812	45
150.0546	12
151.0661	78
152.0488	113
153.0622	172
154.0646	69
155.0769	223
156.0856	124
157.0953	260
158.0969	65
159.0934	152
160.0983	30
161.0935	123
162.0851	24
163.0850	58
164.0932	26
165.0812	274
166.0896	90
167.1032	177
168.1102	66
169.1210	205
170.1250	76
171.1281	158
172.1228	38
173.1273	108
174.0933	27
175.0947	405
176.0878	32
177.1103	61
178.0896	143
179.0954	242
180.1033	93
181.1059	211
182.1001	69
183.1162	177
183.5941	2
184.1117	54
185.1032	82
186.1076	22
187.0898	48
188.0817	24
189.0834	116
190.0644	40
191.0917	158
192.0891	94
193.0917	213
194.1040	105
195.1017	220
196.1060	65
197.1079	186
198.1180	36
199.0980	61
200.0878	20
201.0766	56
202.0735	96
203.0756	106
204.0921	49
205.0907	132
206.0990	97
207.1124	198
208.1079	86
209.1162	148
210.1143	38
211.1221	91
212.0980	19
213.1052	55
214.1237	24
215.0640	118
216.1267	50
217.1266	126
218.1300	58
219.1215	140
220.1321	63
221.1384	138
222.1375	46
223.1478	97
224.1462	30
225.1559	52
225.5872	3
226.1350	34
227.1315	49
228.1394	41
229.1368	98
230.1486	48
231.1546	129
232.1610	63
233.1631	122
234.1649	45
235.1765	100
235.6910	23
236.1777	30
237.1807	123
238.1717	17
239.1522	64
240.1704	21
241.1594	57
242.1566	28
243.1557	82
244.1816	38
245.1674	105
246.1722	54
247.1837	113
248.1736	31
249.1905	73
250.1733	31
251.2003	44
252.1540	29
253.1441	49
254.1580	18
255.1722	63
256.1899	32
257.2017	97
258.1918	33
259.1883	83
260.2271	32
261.2035	83
262.1975	22
263.2059	70
264.2068	18
265.1719	43
266.1890	18
267.1924	49
268.2070	19
269.2141	66
270.2199	34
271.2135	56
272.2010	22
273.2171	63
274.2036	18
275.2219	44
276.2278	15
277.2258	32
278.2241	11
279.2195	37
280.2058	16
281.2285	49
282.2389	24
283.2495	58
284.2037	19
285.2322	41
286.2342	16
287.2333	47
288.2563	11
289.2385	33
290.2195	12
291.2195	27
292.1567	18
293.2457	29
294.2470	17
295.2449	28
296.2384	21
297.2273	38
298.2133	16
299.2201	38
299.6320	2
300.2003	11
301.2312	33
302.2481	8
303.2258	31
304.2606	7
305.2340	15
306.2344	7
307.2383	24
308.2076	9
308.6029	2
309.2071	18
310.1973	10
311.2084	18
311.6214	3
312.2433	11
313.2422	31
314.2222	11
315.2356	57
316.2224	7
317.2410	26
318.1838	6
319.2092	15
320.2158	5
321.2114	14
322.2247	6
323.2018	14
324.1647	6
325.2325	18
326.2466	8
326.5800	2
327.2546	24
328.2802	8
329.3092	22
330.2557	10
331.2533	26
332.2797	9
333.2411	33
334.2949	13
335.2471	15
336.2710	5
337.2331	8
338.2437	5
339.2327	14
340.2743	6
341.2430	19
342.2357	7
343.2445	11
344.2852	3
345.2673	20
346.2925	20
347.2734	29
348.2909	27
349.3150	59
350.1596	4
351.2428	10
352.2595	5
353.2890	9
353.6757	1
354.2773	6
355.2928	17
356.2480	5
356.7336	1
357.2910	13
358.1779	3
359.2626	13
360.3092	14
361.3177	7
362.1495	4
362.4953	1
363.2268	6
364.1879	2
364.6406	1
365.2879	7
366.1961	4
367.2877	9
368.2966	5
369.2961	21
370.3004	2
371.3050	15
372.3288	12
373.3575	21
374.3608	11
375.3245	6
376.1941	1
377.2776	6
377.6590	1
378.1825	2
378.4970	1
379.2664	7
380.2509	3
380.7467	1
381.2808	11
382.2614	3
383.3665	11
384.3506	4
385.3316	15
386.3574	11
387.3387	6
388.3775	3
389.2904	3
390.2800	1
390.8148	0
391.3400	4
391.5858	1
392.2181	2
392.6635	0
393.2544	3
393.6408	1
394.3355	6
395.3209	11
396.2138	3
397.3273	4
398.3323	2
399.2990	10
400.3681	19
401.3655	47
402.3645	11
403.1735	2
404.3486	2
404.9194	0
405.3448	2
406.3171	1
407.3712	4
407.6895	1
408.0222	0
408.3773	2
408.6796	1
409.3708	5
410.4859	2
411.3420	8
412.3742	3
413.3213	7
414.3799	3
415.3924	16
415.9243	1
416.3412	1
417.2388	2
417.6126	0
417.8778	1
418.2564	2
419.3221	3
420.1066	0
420.4342	1
421.2108	2
421.4633	1
422.1984	1
422.8154	1
423.3285	3
423.9615	0
424.2284	1
425.3155	9
426.3803	9
427.3669	12
428.3792	11
429.3739	16
430.4015	4
431.3154	2
432.0201	0
432.3493	0
432.6306	0
432.8112	0
433.3434	4
433.9635	1
434.4606	1
434.7675	1
435.3797	9
436.1246	1
436.5275	1
436.7449	0
437.2965	2
437.5443	3
438.2894	1
439.2680	1
439.7222	0
440.5490	1
440.7889	0
441.3887	5
442.3660	4
443.3674	19
444.2905	6
445.2617	19
445.8585	0
446.3049	1
446.5322	1
446.9162	0
447.3643	4
447.9468	1
448.3694	0
449.3537	1
450.0100	1
450.5206	1
451.2298	2
451.4363	1
452.3473	2
453.3720	7
454.0861	1
454.6482	2
455.3256	5
456.4018	3
457.3484	6
458.2502	1
458.8301	1
459.3508	5
460.3569	2
461.3807	2
461.9608	1
462.5344	1
462.9126	1
463.3453	1
463.6834	1
464.2523	1
464.8149	0
465.2668	2
465.5597	1
465.9837	0
466.3134	1
466.7776	1
467.1537	1
467.4978	1
467.9076	1
468.1588	1
468.4870	1
468.8135	1
469.3818	5
470.4640	6
471.3718	42
472.4125	3
473.4678	4
473.6760	2
474.1868	1
474.5327	1
475.3527	4
476.1791	1
477.2956	3
478.3897	2
478.9728	1
479.4214	3
480.3570	2
481.5347	2
482.3727	2
483.9272	9
484.6196	7
485.4498	4
486.1983	4
486.9004	3
487.4487	3
488.5564	2
489.3324	1
490.1789	2
491.3911	6
491.9427	1
492.4351	3
493.4196	7
494.3708	1
495.4950	3
496.3374	3
497.4137	7
497.8510	1
498.3892	6
499.3951	2
499.9206	1
500.5229	2
501.5099	5
502.1187	2
502.6218	2
503.3541	4
504.1569	2
505.4052	4
506.4518	31
507.3205	2
508.2966	2
508.8769	1
509.3850	2
510.1913	1
511.4466	5
511.8073	1
512.4567	20
513.4508	15
514.2141	1
514.5027	1
515.1409	1
515.4793	1
515.8145	0
516.3677	2
517.5417	2
518.4993	6
519.4857	37
520.1386	0
520.7900	1
521.0556	0
521.5244	1
522.0044	1
522.4828	1
522.8221	1
523.7390	3
524.4399	5
524.9232	3
525.4401	3
526.3859	3
527.3639	2
528.0745	1
528.8268	3
529.3903	2
529.9682	3
530.3572	2
530.5541	1
530.8215	1
531.3626	2
531.8317	2
532.2047	3
532.7795	1
533.5769	2
534.0349	1
534.7250	2
535.5288	3
536.1165	2
536.5153	1
537.4073	4
538.3458	5
539.4125	17
540.4553	3
541.3555	10
542.3968	4
542.9303	1
543.2844	1
543.6111	1
543.9139	0
544.3770	0
544.8560	2
545.5386	1
546.7179	2
547.3861	4
548.4117	1
549.2050	1
549.5431	1
549.9133	0
550.1201	0
550.6201	1
551.4744	3
551.9745	2
552.4345	4
552.9089	2
553.5565	5
554.3741	10
555.4434	11
556.3331	7
561.2476	9
565.2659	94
566.1163	3
567.4087	5
568.4722	6
569.4492	11
572.5519	10
580.4319	392
581.4944	58
583.4482	498
598.4728	999
600.4013	256
602.0320	69
603.4272	26
