Mass spectrum: Lycopene-5,6-diol; FAB-EBEB; MS2; m/z: 570.44; [M]+*
Name: Lycopene-5,6-diol
Class: Natural Product
Formula: C40H58O2
Exact mass: 570.44368
SMILES: C(=CC=C(C)C=CC=C(C=CC(C(C)(O)CCC=C(C)C)O)C)C=C(C=CC=C(C)C=CC=C(CCC=C(C)C)C)C
InChI: InChI=1S/C40H58O2/c1-32(2)18-13-22-36(7)25-15-27-37(8)26-14-23-34(5)20-11-12-21-35(6)24-16-28-38(9)29-30-39(41)40(10,42)31-17-19-33(3)4/h11-12,14-16,18-21,23-30,39,41-42H,13,17,22,31H2,1-10H3/b12-11+,23-14+,24-16+,27-15+,30-29+,34-20+,35-21+,36-25+,37-26+,38-28+
Instrument: JMS-HX/HX 110A, JEOL
Instrument type: FAB-EBEB
Ms type: MS2
Ion mode: POSITIVE
Collision energy: 3 kV
Ionization: FAB
Base peak: 570.5235
Precursor m/z: 570.44
Precursor type: [M]+*
m/z	relative intensity	assigned
3.1361	0	
7.8484	0	
11.9600	0	
12.2417	0	
13.9696	1	
14.9564	0	
17.6038	0	
22.0303	0	
22.9178	3	
23.9373	0	
24.9306	0	
25.9429	0	
26.9501	9	
27.9843	1	
28.9700	7	
29.9317	0	
30.9448	2	
32.2436	0	
35.3786	0	
35.8757	1	
35.9339	1	
36.6940	0	
36.9440	1	
37.3260	0	
37.5765	0	
37.9434	3	
38.4737	0	
38.9510	13	
39.2186	0	
39.9633	3	
40.9614	70	
41.9636	3	
42.9426	117	
43.9648	0	
44.9737	2	
46.0969	0	
46.8817	1	
48.3256	0	
48.8953	0	
49.9287	4	
50.9371	9	
51.2689	1	
51.9281	1	
52.9521	24	
53.8478	1	
53.9777	2	
54.9606	50	
55.9920	2	
56.9574	12	
57.1110	0	
57.1992	0	
57.9377	3	
58.9673	8	
59.1835	0	
60.8561	1	
60.9409	0	
61.5974	0	
61.8006	1	
61.9459	1	
62.3226	1	
62.9390	8	
63.1478	1	
63.3373	1	
63.9396	1	
64.0444	0	
64.6624	0	
64.9348	13	
65.3229	0	
65.9406	4	
66.4811	0	
66.9634	27	
67.4161	0	
67.9522	5	
68.3136	0	
68.4418	0	
68.9782	446	
69.2829	0	
70.0046	4	
70.9557	55	
71.9909	0	
72.8575	1	
72.9646	1	
73.2344	0	
73.9479	3	
74.9221	3	
75.0462	0	
75.1430	1	
75.4681	0	
75.8900	2	
75.9493	1	
76.2950	0	
76.9536	41	
77.1304	1	
77.2898	1	
77.9246	8	
78.3462	0	
78.5999	0	
78.9701	37	
79.9769	15	
80.9754	74	
81.3197	0	
81.9602	2	
82.1011	1	
82.5982	0	
82.9737	14	
83.4613	0	
83.9608	1	
84.9833	5	
85.1904	0	
85.8859	0	
86.0187	1	
86.9206	3	
87.8793	0	
88.6222	1	
88.9709	4	
89.1801	1	
89.3525	1	
89.6687	1	
89.9561	1	
90.2902	1	
90.4994	1	
90.5623	0	
90.9623	93	
91.4251	1	
91.5839	0	
91.7518	0	
91.9824	12	
92.2986	1	
92.3763	0	
92.9835	88	
93.3266	0	
93.8132	0	
94.0111	7	
94.1517	1	
94.5643	0	
94.6728	0	
94.9998	55	
95.2366	0	
95.5407	0	
95.7723	0	
95.9906	3	
96.7403	0	
96.9994	15	
97.3096	0	
97.9630	1	
98.0816	0	
98.4342	1	
98.7828	1	
98.9950	1	
99.9643	0	
100.5484	0	
100.8349	2	
101.7730	2	
101.9611	3	
102.3833	1	
102.5189	0	
102.9844	19	
103.3627	1	
103.7928	1	
103.9940	7	
104.1450	1	
104.4781	1	
104.6000	1	
104.9937	141	
105.2850	0	
105.3809	0	
105.5640	0	
105.9964	11	
106.2091	0	
106.6008	0	
107.0164	63	
107.2507	0	
107.3505	1	
107.5687	0	
107.7670	0	
108.0259	6	
108.4886	0	
109.0241	244	
109.3530	0	
109.5557	1	
109.7271	1	
110.0258	3	
110.1692	0	
111.0316	8	
111.3039	0	
111.7144	0	
111.8274	0	
111.9983	1	
112.1063	0	
112.3307	1	
112.6161	0	
112.9501	2	
113.0665	1	
113.1929	1	
113.3176	2	
113.4126	1	
113.5279	1	
113.9600	1	
114.1371	1	
114.4031	0	
114.7008	1	
114.9639	42	
115.2335	1	
115.4690	1	
115.5675	1	
115.9580	18	
116.2476	0	
116.5948	0	
116.9777	46	
117.1942	1	
117.5197	1	
117.9836	9	
118.2506	1	
118.4428	0	
118.6007	0	
118.7099	1	
118.9962	111	
119.3734	1	
119.7095	1	
119.9962	13	
120.2448	0	
121.0001	42	
122.0093	6	
122.5955	0	
123.0084	9	
123.9225	2	
124.0306	1	
124.6087	1	
124.8084	1	
124.9901	5	
125.3295	0	
125.5722	0	
125.6811	0	
125.9970	3	
126.0855	1	
126.6177	2	
126.9841	35	
127.2427	1	
127.6068	1	
127.9582	36	
128.2596	0	
128.4589	1	
128.9606	62	
129.2366	0	
129.3756	0	
129.9745	27	
130.4351	1	
130.5943	1	
130.9838	80	
131.3670	1	
131.4986	1	
131.9989	25	
132.1771	1	
132.3883	0	
132.5324	1	
132.9997	85	
133.2454	1	
133.4323	1	
133.5597	1	
133.9764	9	
134.9814	19	
135.3380	0	
135.5839	0	
136.0013	4	
136.5786	1	
137.0224	4	
137.2590	1	
137.6277	0	
137.9471	3	
138.1144	0	
138.3513	0	
138.5257	0	
138.7471	1	
138.9802	10	
139.6155	0	
139.7772	2	
140.0145	2	
140.2036	1	
140.4358	0	
140.5689	0	
140.9644	33	
141.3260	1	
141.4899	0	
141.9668	32	
142.2831	2	
142.4674	0	
142.9886	79	
143.3490	2	
143.5467	1	
143.9892	26	
144.2184	1	
144.4731	0	
144.6022	0	
145.0045	114	
145.5329	1	
145.7408	1	
146.0065	8	
146.2742	0	
147.0199	37	
147.2649	1	
148.0001	5	
149.0306	9	
149.3689	0	
149.7915	1	
149.9930	3	
150.1853	0	
150.3625	1	
150.6372	0	
150.8270	2	
151.0307	3	
151.2278	1	
151.4203	2	
151.6281	1	
151.7138	1	
151.9757	12	
152.4422	1	
152.6779	1	
152.9882	23	
153.2589	0	
153.5569	0	
154.0135	12	
154.1715	1	
154.2951	1	
154.4538	1	
154.5827	1	
155.0179	38	
155.4261	2	
156.0093	26	
156.5020	1	
156.6238	1	
157.0227	68	
157.3335	1	
157.5185	0	
158.0284	19	
158.3435	1	
158.6984	2	
159.0502	54	
159.3416	0	
159.4631	1	
159.5853	2	
159.7208	1	
160.0403	3	
160.2077	0	
161.0452	19	
161.1974	2	
161.3557	1	
161.5798	1	
161.7029	1	
162.0462	3	
162.1600	1	
162.4675	0	
162.9435	3	
163.0986	4	
163.6135	1	
163.7988	0	
164.0760	3	
164.4693	1	
164.7420	2	
165.0361	32	
165.3282	1	
165.5624	1	
166.0149	11	
166.3266	1	
166.4882	1	
167.0211	23	
167.6532	1	
168.0467	10	
168.5697	1	
169.0682	44	
169.4068	0	
169.7729	1	
170.0597	18	
170.4166	1	
170.6555	1	
171.0666	39	
171.3844	1	
171.5293	1	
172.0696	10	
172.3683	1	
172.6850	1	
173.0767	33	
173.3320	1	
173.4698	1	
173.5955	1	
173.8015	2	
174.0576	6	
174.3995	0	
174.6123	0	
174.8184	2	
175.0701	10	
175.5642	1	
175.6781	1	
175.8689	2	
176.0826	8	
176.4651	1	
176.5676	0	
176.6561	1	
176.8639	2	
177.0918	6	
177.3163	1	
177.5034	0	
178.0117	10	
178.3270	1	
179.0101	28	
179.2383	1	
179.4880	1	
179.7552	1	
180.0608	11	
180.4041	1	
180.4941	0	
180.5928	0	
181.0283	29	
181.3199	1	
181.5667	1	
182.0683	17	
182.4133	1	
182.5774	1	
182.7268	2	
183.0369	48	
183.3815	2	
184.0271	8	
184.4304	1	
184.5820	1	
185.0441	22	
185.2846	0	
185.5657	2	
186.0543	7	
186.1838	2	
186.4461	1	
187.0558	13	
187.2345	2	
187.4376	0	
187.6393	1	
187.9410	2	
188.1205	4	
188.4378	0	
188.5317	0	
189.0226	11	
189.3312	1	
189.6257	1	
190.0420	4	
190.4224	1	
191.0153	10	
191.2121	1	
191.6402	0	
192.0196	12	
192.5684	1	
193.0252	17	
194.0246	12	
194.3741	1	
194.5672	1	
195.0442	31	
195.3329	1	
196.0711	9	
196.3267	1	
196.4237	1	
196.5817	2	
197.0565	45	
197.4379	1	
198.0568	10	
198.5971	1	
199.0575	23	
199.3231	1	
200.0439	11	
200.1879	3	
200.3177	1	
200.6303	1	
200.7105	0	
201.0831	6	
201.5699	1	
201.7766	1	
202.0153	6	
202.4493	1	
202.6078	2	
202.9896	9	
203.1774	2	
203.7777	2	
204.0330	3	
204.7699	1	
205.0260	12	
205.1343	4	
205.4811	1	
206.0630	9	
207.0406	16	
207.6632	0	
208.0589	11	
208.4566	1	
209.0531	30	
209.3486	1	
209.4530	1	
210.0546	5	
210.7163	0	
211.0722	20	
211.3660	0	
211.5450	1	
211.8615	1	
212.0638	6	
212.2169	1	
212.6065	1	
212.7357	1	
212.8479	1	
213.0783	8	
213.4024	1	
213.6589	2	
213.8696	1	
214.0201	2	
214.1405	2	
214.2294	1	
214.5305	1	
214.6865	1	
215.0431	6	
215.2888	2	
215.3839	0	
215.5688	0	
215.7303	1	
215.8515	1	
216.0884	4	
216.6575	1	
217.0500	7	
217.3295	1	
217.7886	1	
218.0154	4	
218.3375	1	
218.8345	1	
219.0827	7	
220.0428	4	
220.3377	1	
220.5641	0	
221.0883	15	
221.2983	1	
221.5207	1	
221.6202	1	
221.7170	1	
221.8241	1	
222.0973	7	
222.5353	2	
223.0895	14	
223.3732	1	
223.7949	2	
224.0814	3	
224.1941	1	
225.1054	7	
225.6608	1	
225.7372	1	
226.0521	2	
226.2205	1	
226.5004	1	
226.7398	1	
227.0885	6	
227.3513	1	
227.7201	0	
227.8763	1	
228.0862	4	
228.2638	1	
228.7153	1	
228.7958	0	
229.1024	6	
229.9649	1	
230.1306	2	
230.4778	1	
230.8058	1	
231.0712	4	
231.7562	1	
232.0727	5	
232.2130	3	
232.4958	1	
232.6025	1	
232.9555	4	
233.1420	11	
233.9137	2	
234.0775	3	
234.2214	1	
234.6552	1	
235.1091	10	
235.4976	1	
235.9826	1	
236.1045	4	
236.2189	2	
236.3223	1	
236.5366	0	
237.1182	7	
237.3416	1	
237.5656	1	
238.1199	3	
238.5509	1	
239.0192	6	
239.2289	3	
239.6966	1	
239.9588	1	
240.1278	1	
240.6909	1	
240.8441	2	
241.1009	5	
241.2500	2	
241.8451	1	
242.0930	3	
242.8402	1	
243.1275	4	
243.3403	0	
243.8107	0	
243.9523	1	
244.1044	2	
244.2446	1	
244.4637	0	
244.5604	0	
244.8369	1	
245.0961	5	
245.2219	2	
245.5952	1	
245.9775	1	
246.1600	3	
246.2534	2	
247.0819	7	
247.8988	1	
248.1327	3	
248.4773	0	
248.9617	1	
249.1735	8	
249.3790	0	
249.5777	0	
249.7729	0	
250.1122	3	
250.2756	2	
250.3718	1	
250.4563	1	
250.9708	3	
251.1869	3	
251.2831	2	
251.7112	1	
252.1698	4	
252.2786	1	
252.8655	1	
253.1953	6	
253.3478	3	
253.4525	1	
254.1283	3	
254.2635	1	
254.5734	0	
254.9237	0	
255.2021	5	
255.4410	1	
255.7707	1	
255.9812	1	
256.2043	1	
256.7793	0	
256.9005	1	
257.1243	5	
258.0550	2	
258.1354	1	
258.2719	1	
258.8224	0	
259.1413	2	
259.4075	1	
259.7175	1	
260.0774	3	
260.6190	1	
260.8646	0	
261.1768	4	
261.6097	1	
261.7929	1	
262.0447	3	
262.2238	4	
262.4028	1	
262.8415	1	
263.1809	5	
263.4808	1	
263.6946	1	
264.0667	2	
264.2195	2	
264.4097	0	
264.6549	0	
264.9535	1	
265.1889	4	
265.7585	1	
266.2281	2	
266.4623	1	
266.5665	1	
266.6672	0	
266.8826	1	
267.1773	6	
267.4261	0	
268.1733	2	
268.2462	1	
268.3582	2	
269.0652	3	
269.2133	4	
269.3302	1	
269.5332	0	
270.0305	2	
270.2050	1	
270.6724	1	
270.8755	1	
271.1316	3	
272.0229	1	
272.2066	2	
273.1651	3	
273.5399	1	
274.1319	2	
274.7246	0	
274.8603	1	
275.1873	5	
275.8741	1	
276.1156	2	
276.2660	1	
276.3892	1	
276.8103	1	
276.9147	1	
277.1646	3	
277.3240	1	
278.2021	2	
278.3156	1	
278.9521	2	
279.2419	4	
279.5512	1	
279.7003	0	
279.9489	2	
280.1816	3	
280.3405	1	
280.6798	0	
280.8568	1	
281.0136	1	
281.2450	4	
281.7523	1	
281.9719	1	
282.2480	3	
282.5352	1	
283.0915	1	
283.2156	1	
283.3272	1	
283.8802	0	
284.0182	1	
284.1521	1	
284.8873	0	
285.1154	2	
285.2730	3	
285.3644	1	
285.5479	1	
286.0684	1	
286.2135	3	
286.3684	1	
286.8220	1	
287.0530	2	
287.2840	1	
287.8717	1	
288.1544	2	
288.3122	3	
289.2383	3	
289.3387	1	
289.8503	1	
289.9590	1	
290.2218	2	
290.3710	1	
290.5676	0	
290.9274	1	
291.2125	3	
291.5584	1	
292.2174	3	
292.9352	0	
293.1814	3	
293.5923	1	
293.8344	0	
294.0186	1	
294.1700	1	
294.2747	1	
294.6954	1	
294.7932	1	
295.1805	3	
295.6620	0	
296.0760	1	
296.2854	1	
296.7105	1	
297.0052	1	
297.1616	2	
297.3305	1	
297.9869	1	
298.2307	1	
298.3648	1	
299.0709	1	
299.6835	1	
300.0231	1	
300.2187	1	
300.3619	1	
301.0984	2	
301.2130	1	
301.9567	0	
302.2048	2	
302.4949	0	
302.9269	1	
303.2604	3	
303.5918	1	
303.8260	1	
304.0728	1	
304.3274	1	
305.1002	2	
305.2541	1	
306.0592	0	
306.2180	1	
307.0386	3	
307.1135	1	
307.2933	1	
308.0323	2	
308.1968	1	
308.4214	1	
308.9086	0	
309.2621	1	
309.3664	1	
309.6212	0	
310.2317	1	
310.3563	0	
310.9158	1	
311.1385	1	
311.2806	1	
312.0286	2	
312.2177	1	
312.3613	1	
313.1416	1	
313.3315	1	
313.6523	1	
314.2003	2	
314.3222	0	
314.6628	1	
314.8555	1	
314.9963	1	
315.2661	1	
315.3432	0	
315.8472	0	
316.0105	1	
316.2579	2	
316.3399	1	
316.9667	1	
317.1132	0	
317.2948	2	
318.1320	3	
318.3045	1	
318.4854	0	
318.6102	0	
319.2036	3	
319.5430	1	
320.1961	3	
321.2513	2	
321.8413	0	
321.9999	1	
322.2048	1	
322.3242	1	
322.5627	1	
323.2780	1	
323.4331	1	
324.0304	2	
324.2930	1	
325.0316	0	
325.2527	2	
325.8517	0	
326.1937	1	
327.2985	1	
328.1534	2	
328.3423	2	
328.9501	1	
329.0765	0	
329.2227	3	
330.2887	2	
330.3822	1	
330.9782	1	
331.1040	2	
331.2748	2	
331.9798	0	
332.2414	2	
333.2844	3	
333.4170	1	
334.1494	1	
334.3248	2	
335.0223	1	
335.2490	1	
335.4356	1	
335.6370	1	
335.9542	1	
336.1599	1	
336.3346	1	
336.5838	0	
337.1805	0	
337.2815	1	
337.5792	1	
338.0685	1	
338.3444	0	
338.9384	1	
340.0613	1	
340.4138	1	
340.5831	1	
340.7629	0	
341.0881	1	
341.2455	1	
342.1678	1	
342.3603	1	
343.2238	2	
343.7199	0	
344.0277	1	
344.1282	1	
344.2631	2	
345.0095	1	
345.2513	2	
345.7791	1	
346.2389	1	
346.3683	1	
346.8955	1	
347.3047	5	
347.4980	1	
348.0163	0	
348.2005	2	
348.2954	2	
348.4481	2	
349.2660	0	
349.4586	0	
350.0460	0	
350.1993	1	
350.3899	0	
350.8584	1	
351.0216	0	
351.3143	2	
351.7217	1	
351.9693	1	
352.1185	1	
352.2775	1	
353.2021	1	
353.4485	1	
353.8419	0	
353.9876	1	
354.1361	1	
354.3592	1	
355.2215	1	
355.3348	1	
356.0571	1	
356.2993	2	
356.4147	1	
356.6112	1	
357.0604	0	
357.2125	1	
357.3329	1	
358.0146	1	
358.1843	1	
359.0139	1	
359.1448	2	
359.3242	2	
359.4467	1	
359.8464	1	
359.9801	1	
360.3025	2	
361.2492	2	
361.4512	1	
362.1819	1	
362.9029	2	
363.0754	0	
363.3627	1	
364.2366	2	
364.4394	2	
366.3199	1	
367.1160	1	
367.2104	1	
367.3506	3	
367.4654	1	
367.6880	1	
368.2742	1	
368.6012	1	
369.2248	1	
369.4482	0	
370.3235	1	
370.6653	0	
371.0516	1	
371.2892	1	
371.3984	1	
371.4731	1	
371.8996	1	
372.2472	2	
372.3578	2	
372.4706	2	
372.5552	1	
373.0255	2	
373.2664	8	
373.4207	3	
373.8107	2	
374.2853	20	
374.9135	2	
375.1755	3	
375.4030	5	
375.9087	1	
376.1756	2	
376.3771	3	
376.5891	1	
376.8082	1	
377.2999	1	
377.8261	1	
377.9818	1	
378.2249	1	
378.5412	0	
378.9055	0	
379.1944	1	
379.7419	0	
380.0534	1	
380.2232	1	
380.6137	0	
381.2155	1	
381.3953	0	
381.8767	1	
382.3025	1	
382.4124	1	
382.6443	0	
383.1526	0	
383.6151	1	
383.9500	1	
384.0889	1	
384.2151	1	
384.3843	1	
384.7898	1	
385.2100	1	
385.3849	1	
385.9230	1	
386.2728	2	
386.6353	1	
386.7622	1	
387.2030	2	
387.3004	1	
387.4591	2	
387.9119	1	
388.1080	2	
388.3189	5	
388.5263	1	
389.1521	0	
389.4004	2	
390.1539	2	
390.2732	1	
390.5180	0	
391.2378	1	
391.5829	1	
391.8030	0	
392.2307	1	
392.3401	1	
392.5448	1	
393.0395	1	
393.2774	1	
393.4228	1	
393.9910	1	
394.2543	1	
394.6631	1	
395.1156	2	
395.3457	1	
395.4629	1	
395.5985	1	
395.8350	1	
395.9593	1	
396.4302	1	
396.6491	1	
397.1526	1	
397.2521	1	
397.3560	1	
398.3242	1	
398.5685	1	
399.1300	2	
399.3482	1	
399.5467	1	
399.7904	1	
400.2856	1	
400.4247	1	
400.5307	1	
400.9489	0	
401.1743	1	
401.3290	2	
401.5869	1	
401.9281	1	
402.0680	1	
402.4410	2	
402.6820	0	
403.1766	1	
403.5688	1	
404.1730	1	
404.3560	0	
406.4800	1	
407.5816	1	
408.3575	1	
408.4676	0	
409.2710	1	
409.4445	1	
409.5243	0	
410.3165	2	
410.5641	1	
411.2013	2	
411.5745	1	
412.0925	1	
412.3818	4	
412.4848	3	
412.6252	1	
412.8108	1	
413.0176	1	
413.2011	2	
413.4417	2	
413.9238	1	
414.2463	2	
414.3748	1	
414.5653	2	
415.2232	2	
415.3764	1	
415.6764	1	
415.8401	1	
416.3307	2	
416.4677	1	
416.8250	1	
417.3792	6	
417.5761	2	
418.3309	1	
418.4206	1	
418.5879	1	
419.0533	1	
419.3040	1	
419.5624	0	
420.1450	1	
420.2623	1	
420.4296	1	
420.5200	1	
421.2058	1	
421.3111	1	
422.2348	1	
422.3413	0	
422.6799	0	
423.2865	1	
423.9502	1	
424.2768	0	
424.6225	1	
425.0366	1	
425.3117	1	
425.5072	1	
426.2169	1	
426.3842	1	
426.5718	1	
426.8534	0	
427.3671	2	
428.2936	7	
428.4665	2	
429.0812	2	
429.2442	2	
429.3614	1	
429.5618	1	
429.6733	1	
430.1420	1	
431.2473	1	
431.3476	1	
432.4171	2	
432.5343	2	
432.6938	1	
432.8167	1	
433.4069	1	
434.1087	0	
434.3961	2	
434.4999	1	
435.1516	1	
436.0880	0	
436.4157	2	
437.2152	0	
437.3635	1	
438.0741	1	
438.5127	1	
438.6709	1	
439.0926	0	
439.2346	1	
439.3900	1	
439.5200	0	
439.7524	1	
440.1593	1	
440.3798	2	
440.6313	2	
440.8319	1	
441.0403	0	
441.2707	2	
441.3689	1	
441.7221	2	
442.3249	18	
442.8343	3	
443.3360	55	
443.6788	4	
443.8710	2	
444.3431	40	
444.6922	5	
444.8420	1	
445.0173	2	
445.2074	2	
445.4018	2	
445.5983	2	
445.7891	1	
445.9142	3	
446.1361	0	
446.3567	2	
447.0247	1	
447.1392	1	
447.2707	2	
447.5138	1	
447.8786	0	
448.1713	1	
449.3095	1	
449.4856	1	
450.1848	1	
450.5561	1	
450.7357	0	
450.8636	1	
451.2108	1	
451.3728	1	
451.8855	0	
452.4250	1	
452.5884	1	
452.9944	0	
453.2624	1	
453.4470	2	
453.6556	1	
454.1302	0	
454.3424	2	
454.4591	1	
454.9529	2	
455.1891	1	
455.4360	1	
455.7819	1	
455.9276	0	
456.2311	1	
456.3606	1	
456.5148	1	
457.2016	1	
457.3507	2	
457.4256	1	
457.5704	1	
458.2170	1	
458.4333	1	
458.5710	2	
459.3633	1	
459.4834	1	
460.2948	2	
461.6561	1	
462.3757	0	
462.8613	1	
463.0267	1	
463.2098	1	
463.4198	3	
463.5675	1	
464.4626	1	
464.8500	1	
465.0013	1	
465.1526	1	
465.3131	2	
465.5436	1	
465.7621	1	
465.9368	0	
466.0768	1	
466.2917	3	
466.4742	1	
466.5661	1	
466.8461	0	
467.0137	1	
467.1120	0	
467.2435	1	
467.4783	1	
468.1926	2	
468.3213	2	
468.7874	2	
468.8885	1	
469.0518	2	
469.2874	3	
469.4316	3	
470.2302	3	
470.3257	2	
470.4537	3	
470.5428	1	
470.7451	2	
470.9948	1	
471.3110	1	
471.7708	1	
471.9951	1	
472.1146	1	
472.4563	1	
472.7676	1	
473.4269	1	
474.6184	2	
474.6920	0	
474.8116	1	
475.5715	1	
475.8184	1	
476.0569	1	
476.4072	3	
476.6612	2	
477.2125	1	
477.3080	1	
477.6711	1	
477.7666	1	
477.9365	1	
478.1488	3	
478.3554	14	
478.4758	6	
478.9408	1	
479.1885	1	
479.9111	1	
480.3698	1	
481.2539	2	
481.4132	2	
481.9987	1	
482.0864	1	
482.3300	3	
482.6811	1	
482.7852	0	
482.9345	1	
483.1660	2	
483.3211	3	
483.5420	2	
484.1344	1	
484.3330	2	
484.4680	2	
484.5910	1	
484.8455	1	
485.2929	1	
485.4435	3	
485.5495	1	
485.7001	1	
485.9164	1	
486.3688	8	
486.5180	5	
486.6961	1	
487.1125	1	
487.2405	1	
487.4377	2	
487.6244	2	
487.8237	1	
488.0846	0	
488.3667	0	
488.5138	1	
488.8765	1	
489.1183	1	
490.0481	1	
490.2242	1	
490.3939	3	
491.1236	1	
491.2346	1	
491.4023	2	
491.5967	4	
492.4687	1	
492.6264	0	
492.9291	0	
493.7828	0	
494.2305	1	
494.5537	1	
495.1210	1	
495.3657	1	
495.6140	1	
496.1580	1	
496.4325	1	
496.6503	1	
497.0847	1	
497.4618	1	
497.6301	1	
498.1133	1	
498.3221	1	
498.6885	1	
499.0897	2	
499.4901	1	
499.6918	1	
499.8885	1	
500.0576	1	
500.2154	1	
500.4418	3	
500.5940	1	
500.8289	0	
500.9810	1	
501.4488	21	
501.8613	1	
502.1797	1	
502.2498	0	
502.4975	2	
502.6213	2	
502.8435	1	
503.2101	2	
503.5902	2	
503.7155	0	
504.1337	1	
504.2576	1	
505.7673	1	
506.5063	1	
506.7901	1	
507.0535	1	
508.3369	1	
509.3047	0	
509.5454	1	
509.7274	0	
510.1083	1	
510.2747	1	
510.3984	2	
510.5573	1	
510.6978	1	
510.8617	1	
511.4874	1	
511.6739	1	
512.0405	1	
512.1740	1	
512.3979	3	
512.6401	1	
513.2236	1	
513.4376	1	
514.0529	0	
514.2380	1	
514.3835	1	
514.5495	1	
514.6943	1	
515.1606	1	
515.5032	3	
515.9942	1	
516.1306	1	
516.6633	1	
516.9374	1	
517.2935	1	
518.7914	1	
518.9214	0	
519.1461	1	
519.3934	1	
519.8111	0	
519.9397	2	
520.3934	1	
521.2110	1	
521.4810	1	
521.6824	0	
522.3212	1	
522.5941	1	
523.3284	1	
523.7051	0	
523.9659	2	
524.2805	2	
524.4070	2	
524.5413	2	
524.7385	1	
524.8085	0	
525.5698	1	
525.6878	1	
525.8504	1	
526.1636	1	
526.5114	2	
526.9271	1	
527.3102	3	
527.5074	2	
528.0221	1	
528.2936	2	
528.5071	1	
528.8231	1	
529.1618	1	
529.4106	1	
529.8646	1	
530.8813	0	
531.8805	1	
532.0007	1	
532.1881	1	
533.1216	1	
533.4158	1	
534.4172	2	
534.7015	1	
535.1626	1	
535.2609	1	
535.8062	1	
536.0637	1	
536.1641	1	
536.2886	1	
537.3156	1	
537.4387	0	
537.7747	1	
538.0952	1	
538.2536	1	
538.4467	1	
538.5974	1	
538.6971	1	
538.8598	1	
539.0374	1	
539.2340	1	
539.4166	1	
539.6875	1	
539.9245	1	
540.0624	0	
540.2365	1	
540.4055	2	
540.5810	5	
540.6687	2	
540.8067	1	
540.9036	1	
541.0217	2	
541.1385	1	
541.2842	3	
541.3762	2	
541.6910	4	
541.8849	0	
542.0547	2	
542.1665	1	
542.3193	4	
542.5203	4	
542.7466	3	
542.8797	3	
543.2228	2	
543.4422	1	
543.6729	0	
543.8887	1	
544.1575	2	
544.3140	1	
544.7293	1	
544.9077	2	
545.1341	1	
545.3244	1	
545.4391	2	
545.5671	2	
545.7341	1	
545.9203	0	
546.0986	1	
546.2968	2	
546.4269	2	
546.5430	1	
546.6931	4	
546.8572	2	
547.1042	2	
547.3477	2	
547.6088	1	
547.8700	1	
548.1064	0	
548.3456	3	
548.5204	1	
548.6754	3	
548.8835	1	
549.0370	2	
549.1907	1	
549.3060	4	
549.4094	2	
549.8171	2	
550.1143	1	
550.2219	2	
550.4796	4	
550.8554	6	
551.0267	6	
551.2037	5	
551.5371	9	
552.5225	81	
553.0145	9	
553.4951	9	
553.7634	2	
553.9940	2	
554.2428	2	
554.4717	7	
554.6732	7	
554.9070	3	
555.5156	13	
555.6873	7	
555.8845	5	
556.2272	4	
556.5891	4	
556.8400	2	
557.3821	6	
557.5482	2	
557.8331	3	
557.9716	1	
558.0797	1	
558.3978	4	
558.6898	0	
558.8396	2	
558.9626	6	
559.0919	3	
559.2701	2	
559.6807	3	
560.2201	2	
560.4492	2	
560.7198	2	
561.0366	4	
561.1766	2	
561.3837	4	
561.5880	3	
561.8326	6	
562.0199	4	
562.1408	5	
562.5558	4	
562.9058	5	
563.1002	5	
563.2656	3	
563.4530	5	
563.6990	7	
563.9889	7	
564.4456	9	
565.5175	12	
570.5235	999	
571.2435	208	
571.9529	87	
572.7549	43	
573.7424	22	
574.4978	16	
575.0630	12	
575.3743	10	
575.6862	7	
575.9763	6	
