Mass spectrum: Alloxanthin; FAB-EBEB; MS2; m/z: 564.40; [M]+*
Name: Alloxanthin
Formula: C40H52O2
Exact mass: 564.39673
SMILES: CC(C)(C=1C#CC(C)=CC=CC(=CC=CC=C(C)C=CC=C(C#CC(=C2C)C(C)(C)CC(C2)O)C)C)CC(CC(C)1)O
InChI: InChI=1S/C40H52O2/c1-29(17-13-19-31(3)21-23-37-33(5)25-35(41)27-39(37,7)8)15-11-12-16-30(2)18-14-20-32(4)22-24-38-34(6)26-36(42)28-40(38,9)10/h11-20,35-36,41-42H,25-28H2,1-10H3/b12-11+,17-13+,18-14+,29-15+,30-16+,31-19+,32-20+/t35-,36-/m1/s1
Instrument: JMS-HX/HX 110A, JEOL
Instrument type: FAB-EBEB
Ms type: MS2
Ion mode: POSITIVE
Collision energy: 3 kV
Ionization: FAB
Base peak: 549.3766
Precursor m/z: 564.40
Precursor type: [M]+*
m/z	relative intensity
1.0926	0
3.2358	0
9.5604	0
11.7391	0
12.9907	0
14.0102	0
14.6120	0
15.0186	2
16.0283	0
19.0198	0
22.9780	1
23.8944	0
24.9992	0
26.0062	3
26.5967	0
27.0153	26
28.0238	2
29.0262	30
30.0179	1
31.0063	4
32.0001	0
35.9478	0
37.0029	4
38.0071	10
39.0160	68
39.5905	0
40.0211	6
41.0307	122
42.0230	2
42.3040	0
43.0260	84
44.0173	3
45.0241	4
45.3530	0
46.9564	0
47.9907	0
48.3621	0
49.0097	2
50.0063	27
51.0154	57
52.0248	16
53.0297	72
53.5291	0
54.0209	2
54.3532	0
55.0433	123
56.0563	3
57.0583	69
57.5749	0
58.0686	1
59.0433	12
60.0455	2
61.0161	6
62.0108	21
63.0203	62
64.0245	12
65.0292	73
66.0415	8
67.0446	76
68.0383	3
68.3263	0
69.0489	87
70.0571	1
71.0374	33
72.0404	0
72.4409	0
73.0237	3
74.0003	26
75.0205	33
76.0194	17
77.0275	189
78.0325	35
79.0392	118
80.0401	9
81.0539	95
82.0341	3
82.5334	1
83.0585	48
84.0390	2
85.0524	96
86.0063	13
87.0183	21
88.0266	10
89.0373	39
90.0504	9
91.0530	356
92.0593	20
93.0704	105
94.0562	6
94.5232	1
95.0785	66
95.5310	1
96.0706	3
97.0687	10
98.0246	11
99.0345	9
99.5428	0
100.0294	3
101.0550	16
102.0524	32
103.0531	75
104.0648	28
105.0691	342
106.0765	18
107.0804	106
108.0601	6
109.0785	39
109.4705	1
110.0191	7
111.0514	12
112.0482	2
113.0266	12
114.0439	13
115.0414	279
116.0457	84
117.0528	147
118.0548	22
119.0649	272
120.0670	13
121.0692	75
122.0255	8
122.5075	0
123.0534	21
123.5415	1
124.0393	2
125.0564	7
126.0273	23
127.0306	119
128.0325	322
129.0343	279
130.0414	84
131.0511	163
132.0484	25
132.4872	2
133.0536	90
134.0395	10
134.4478	0
135.0527	25
135.5194	1
136.0372	3
137.0421	12
138.0082	7
139.0222	68
140.0510	22
141.0326	274
142.0415	197
143.0500	262
144.0512	64
145.0631	131
146.0539	14
147.0817	76
148.0660	5
149.0805	19
150.0457	20
151.0509	55
152.0458	185
153.0513	189
154.0606	79
155.0680	248
156.0804	124
157.0853	209
157.5523	4
158.0868	48
158.5331	2
159.0976	62
160.0923	12
161.0921	17
162.0772	8
163.0631	40
164.0934	32
165.0738	384
166.0845	108
167.0946	214
168.1000	76
169.1027	195
170.1061	68
171.1102	120
172.1136	20
173.1220	64
174.0674	10
175.0913	22
176.0663	50
177.0830	43
178.0664	231
179.0732	297
180.0848	107
181.0858	204
182.0888	70
183.0910	142
184.0938	31
185.0944	46
186.0656	9
187.0717	27
188.0612	15
189.0484	150
190.0620	56
191.0646	192
192.0693	133
193.0731	253
194.0804	101
195.0882	187
196.0922	43
197.0954	89
198.0990	16
199.0831	28
200.0419	29
201.0845	33
202.0543	164
203.0634	151
204.0730	59
205.0745	156
206.0852	100
207.0920	199
208.1036	70
209.1042	113
210.1139	26
211.1053	48
212.1014	11
213.0850	49
214.1009	18
215.0767	166
216.0863	76
217.1006	149
218.1067	62
219.1161	147
220.1187	68
221.1348	121
222.1353	33
223.1436	64
224.1071	21
225.1409	28
226.0980	64
227.1195	53
228.1106	62
229.1147	136
230.1293	65
231.1326	133
232.1349	57
233.1420	119
234.1523	41
235.1470	69
236.1566	18
237.1418	42
238.1361	12
239.1059	91
240.1257	31
241.1123	79
242.1241	46
243.1289	111
244.1413	50
245.1439	106
246.1468	43
247.1559	81
248.1551	25
249.1721	49
250.1061	28
251.1604	31
252.1169	59
253.1265	67
254.1463	27
255.1485	74
256.1555	40
257.1569	87
258.1659	33
259.1752	71
260.1702	24
261.1713	51
262.1698	12
263.1436	48
264.1456	14
265.1390	59
266.1518	32
267.1679	75
268.1813	32
269.1744	72
270.1736	33
271.1879	57
272.1820	21
273.1965	43
274.1641	18
275.1938	27
276.1575	33
277.1759	37
278.1652	22
279.1723	52
280.1812	26
281.1992	68
282.1894	34
283.1932	50
284.1927	20
285.1985	43
286.1926	13
287.1870	34
288.1939	10
289.1518	43
290.1541	17
291.1699	33
292.1491	16
293.1772	43
294.1819	21
295.1854	47
296.1905	17
297.1915	33
298.1882	13
299.1926	28
300.1365	17
301.1738	25
302.1478	21
303.1515	32
304.1687	13
305.1581	34
306.1624	15
307.1714	42
308.1998	16
309.1825	29
310.1877	13
311.1797	24
312.2193	9
313.1555	28
314.1732	10
315.1542	23
316.1635	13
317.1655	32
318.1707	13
319.1836	38
320.1758	13
321.1772	27
322.1846	10
323.1908	20
324.1689	9
325.2036	16
326.1390	13
327.1801	17
328.1663	8
329.1913	25
330.1884	12
331.1948	31
332.2138	12
333.2151	45
334.2152	19
335.2020	24
336.1935	9
337.2133	16
338.2319	5
339.1808	15
340.1654	7
341.1844	14
342.1769	8
343.1902	19
344.1934	9
345.2086	30
346.2150	13
347.2216	33
348.2165	7
349.2263	13
350.2066	5
351.1930	10
352.2003	6
353.2019	12
354.1976	3
355.1875	11
356.2178	6
357.2184	18
358.2083	8
359.2339	25
360.2388	14
361.2363	13
362.2355	6
363.2274	10
364.2165	4
365.2339	8
366.2650	3
367.2142	7
368.2038	5
369.2501	10
370.2713	5
371.2553	18
372.2609	5
373.2557	19
374.2223	6
375.2382	9
376.2497	3
377.2823	6
378.2509	2
379.2658	7
380.2733	3
381.2244	7
382.2278	3
383.2313	8
384.2483	3
385.2445	12
386.2290	5
387.2718	8
387.7059	2
388.2520	3
388.6071	1
389.2741	7
390.1516	2
391.2604	4
392.2680	2
393.2562	5
394.2192	2
395.2555	10
396.2739	3
397.2701	6
398.2365	4
399.2717	8
400.2831	6
401.2663	7
402.3661	2
403.2404	5
404.2694	2
405.2700	5
406.3034	3
407.2908	4
408.2484	2
409.2912	8
410.3057	2
411.3024	8
412.2858	3
413.2574	6
413.7186	1
414.3470	3
415.2754	5
416.2652	3
417.2998	5
418.4018	2
419.3112	5
420.1935	2
421.2930	4
422.1374	2
423.2549	5
424.2413	4
425.2874	7
425.6665	2
426.3098	3
427.2621	4
429.1297	4
430.1897	2
431.3066	6
432.3370	2
433.2839	5
435.0898	5
436.3625	3
437.2784	5
438.3123	3
439.3269	5
441.3250	5
442.8331	7
444.2324	4
445.2579	6
446.3135	2
447.2645	5
447.7281	1
448.3053	3
449.3118	7
450.2646	2
451.3161	4
451.7634	2
452.4022	3
453.1876	2
455.2753	4
455.5905	2
456.3496	2
457.3238	11
457.6571	3
458.4102	3
459.3279	17
460.3069	3
461.2620	6
462.2874	3
463.3100	9
464.3207	9
465.3120	5
466.3378	3
467.3681	2
469.1449	4
470.3235	3
471.3273	5
472.3610	34
473.3424	5
475.3295	7
476.3021	3
477.3018	8
478.3255	4
479.3403	11
479.8687	1
480.3431	2
481.3206	1
482.0062	1
483.3724	2
484.3829	3
485.3561	3
486.4102	1
487.2564	3
487.5390	1
489.2063	6
490.4565	3
491.3419	4
492.3484	3
493.3222	5
494.3693	2
495.2863	2
496.3500	2
499.1869	2
500.1371	2
501.3193	4
503.1093	3
504.3337	4
505.3651	8
506.3261	4
506.7244	2
507.3846	3
508.3571	4
509.2711	1
510.4733	2
511.2514	1
511.8160	1
513.3963	2
513.6921	1
514.2925	1
515.2949	4
516.2885	3
517.4224	3
518.4011	2
519.4082	8
520.4213	10
521.3613	6
525.0844	7
531.1705	63
531.9496	4
533.3747	12
534.3572	10
535.3024	6
536.4734	3
546.4074	97
549.3766	999
550.3674	26
564.3118	999
567.3626	31
568.1418	17
569.1110	8
570.6307	3
572.0622	2
