Mass spectrum: Hydratopyrrhoxanthinol; FAB-EBEB; MS2; m/z: 588.35; [M]*+
Name: Hydratopyrrhoxanthinol
Class: Natural Product; Carotenoid
Formula: C37H48O6
Exact mass: 588.34509
SMILES: C(=CC=CC=C(C)C=c(o2)cc(C=CC(C3(C)C)(C(C)(O)CC(C3)O)O)c(=O)2)C=C(C)C#CC(C1(C)C)=C(C)CC(C1)O
InChI: InChI=1S/C37H48O6/c1-25(15-16-32-27(3)20-29(38)22-34(32,4)5)13-11-9-10-12-14-26(2)19-31-21-28(33(40)43-31)17-18-37(42)35(6,7)23-30(39)24-36(37,8)41/h9-14,17-19,21,29-30,38-39,41-42H,20,22-24H2,1-8H3/b11-9+,12-10+,18-17+,25-13+,26-14+,31-19-/t29-,30+,36-,37-/m1/s1
Instrument: JMS-HX/HX 110A, JEOL
Instrument type: FAB-EBEB
Ms type: MS2
Ion mode: POSITIVE
Collision energy: 3 kV
Ionization: FAB
Base peak: 588.4807
Precursor m/z: 588.35
Precursor type: [M]+*
m/z	relative intensity
1.2659	0
8.7406	0
13.9666	0
14.9813	0
15.8479	0
16.9511	0
22.9405	4
24.9792	0
25.9756	1
26.9696	3
27.9706	1
28.9757	4
29.2144	0
29.9689	0
30.9593	1
32.1644	0
36.2087	0
36.9864	0
37.9604	2
38.3523	0
38.9607	8
39.9827	1
40.9819	16
41.9745	1
42.9647	59
43.9571	1
44.9816	1
46.9449	0
48.9691	0
49.7853	0
49.9613	3
50.9715	8
51.9882	2
52.9772	13
53.2461	0
53.9823	1
54.9874	16
55.9962	1
56.7561	1
57.0124	10
57.9702	1
58.9841	2
59.9564	0
60.9425	1
61.9643	1
62.7635	0
62.9701	5
63.8177	0
63.9719	1
64.3488	0
64.8264	0
64.9869	8
65.9981	2
66.9890	11
67.9756	1
68.9877	19
69.9663	2
70.9771	8
71.8851	0
72.0164	0
72.9654	1
73.9622	2
74.9630	3
75.1610	0
75.7145	0
75.9640	3
76.9753	21
77.8087	0
77.9714	5
78.5799	1
78.9836	13
79.2179	0
79.9852	1
80.0623	1
80.9819	15
81.9774	1
82.1982	0
82.4454	0
83.0145	29
83.9483	1
84.0533	0
84.2447	0
84.5564	1
84.9928	19
85.2184	0
85.9617	1
86.9760	11
87.9759	1
88.0771	0
88.5496	0
88.6303	0
88.7688	0
88.9771	6
89.3126	1
89.4190	0
89.9771	4
90.6353	0
90.9886	35
91.3953	0
91.8343	0
91.9952	4
93.0053	15
93.3716	0
94.0061	1
95.0019	14
96.0026	2
97.0004	4
97.1754	0
97.3430	0
97.9781	3
98.7244	0
98.9881	2
99.9890	0
100.9845	2
101.9831	5
102.5803	0
102.9949	12
103.2102	0
103.4800	0
103.9905	3
104.1993	0
105.0118	36
105.6577	0
105.9986	3
106.5039	0
106.5921	0
107.0129	16
107.2140	0
107.5291	0
107.9944	5
108.4935	0
109.0145	12
109.9566	2
110.1229	1
110.8010	0
111.0067	6
111.9755	1
112.6417	0
112.9770	3
113.3537	0
113.4491	1
113.6760	0
113.8452	2
114.0093	2
114.2709	0
114.4733	0
114.9739	27
115.3066	0
115.6542	0
115.9776	9
116.2432	0
116.3779	0
116.5165	0
116.9810	14
117.3825	0
117.4790	0
117.9839	4
118.1555	0
118.9903	22
119.2115	0
119.5046	1
119.9699	3
120.4188	0
120.9939	19
121.6385	0
121.9783	6
122.5348	0
122.9660	8
123.8168	0
123.9763	2
124.2546	0
124.9867	10
125.2757	0
125.3941	0
125.9661	4
126.5451	1
126.9526	13
127.1860	1
127.3455	0
127.4357	0
127.5771	1
127.9645	33
128.2007	1
128.4254	0
128.6216	0
128.9750	32
129.9862	9
130.5909	0
130.9732	22
131.2052	0
131.5546	1
131.9856	5
132.2420	0
132.4045	1
132.9823	13
133.1410	1
133.5768	0
133.9742	4
134.9582	6
135.2102	0
135.9485	2
136.3058	0
136.9757	4
137.7808	0
137.9610	2
138.9343	10
139.2227	0
139.9310	3
140.1393	0
140.3048	0
140.4868	1
140.6682	0
140.9790	28
141.1763	0
141.3394	0
141.5150	0
141.6662	1
141.9713	16
142.6123	0
142.9872	23
143.2173	0
143.6672	0
143.9909	8
144.3074	0
144.5875	0
144.9883	23
145.9775	4
146.9889	10
147.4127	1
147.5342	1
147.9947	2
148.4920	0
148.6084	0
148.9696	15
149.2204	0
149.6091	0
149.9839	4
150.3150	1
150.4835	1
150.9800	11
151.5414	2
151.9789	17
152.2512	0
152.4154	1
152.9882	21
153.1886	1
153.6402	1
154.0037	11
154.2504	0
154.4737	0
155.0088	26
155.3033	0
155.4090	0
156.0242	15
156.3336	0
156.4770	0
156.6579	0
157.0345	25
157.3529	0
157.5835	0
158.0175	7
158.5395	1
158.7213	0
159.0409	13
159.2705	0
159.4210	0
160.0538	2
160.1398	1
160.4510	0
160.6332	1
161.0359	10
161.2061	0
161.4940	0
161.7457	1
161.9428	1
162.0620	1
162.4302	0
162.9959	9
163.3483	1
163.5235	0
163.7243	1
164.0222	3
164.3263	1
164.5266	1
165.0244	45
165.3517	0
165.5292	1
166.0410	13
166.5623	1
167.0583	20
167.2644	0
168.0575	9
169.0689	22
169.4610	0
169.6358	0
169.8375	0
170.0703	8
170.5454	1
171.0674	16
171.7496	1
171.8496	0
172.0672	6
172.4342	0
173.0516	12
173.3532	0
173.5359	0
174.0671	3
174.2897	0
175.0427	7
175.2411	1
175.4173	0
175.6103	0
175.7499	0
176.0434	7
176.3497	0
176.4514	0
176.6067	0
177.0210	8
177.3567	0
177.5270	0
178.0366	23
178.4866	1
178.6183	1
179.0434	27
179.5311	0
179.7010	0
180.0571	11
180.4859	0
180.6076	0
181.0557	27
181.3829	0
181.5856	0
181.7509	0
182.0768	8
182.4008	0
182.6302	1
183.0611	15
183.3792	0
183.4779	0
183.7436	0
184.0454	4
184.5136	1
185.0528	12
185.6850	1
186.0165	5
186.1229	2
186.7330	1
187.0559	8
187.2320	1
187.4559	0
187.7393	0
188.0699	3
188.2475	1
188.3753	0
188.4709	0
188.5639	0
189.0156	11
189.6288	1
190.0295	6
190.4420	0
190.7122	0
191.0468	17
191.4300	1
192.0270	13
192.2803	0
192.4598	0
192.6173	0
193.0455	23
193.3175	0
193.4997	0
193.5971	1
193.6663	0
193.8356	1
194.0686	12
194.2873	0
194.4087	0
194.6302	1
195.0513	20
195.2955	1
195.5589	0
196.0536	7
196.3495	0
196.5424	1
197.0655	13
197.4872	0
198.0230	5
198.1013	2
198.2566	0
198.3858	1
198.7397	0
199.0422	7
199.2725	1
199.5214	0
199.7669	0
200.0213	4
200.3907	1
200.5111	0
200.7877	1
201.0554	8
201.4945	1
201.6239	0
202.0163	18
202.2614	0
202.4935	1
203.0273	15
203.4683	0
203.6846	1
204.0382	8
204.2202	2
204.5331	0
204.7041	1
205.0551	18
205.4068	0
205.5703	1
205.6938	1
206.0511	11
206.5142	0
206.6508	1
207.0670	21
207.3887	0
207.8189	1
208.0751	9
208.4433	1
208.6353	1
209.0672	20
209.4798	0
210.0556	5
210.5181	0
210.6205	0
210.7152	0
211.0617	11
211.4269	1
211.5515	0
211.7895	0
212.0060	3
212.1424	3
212.3354	0
212.4593	1
212.6227	1
213.0623	9
213.3635	0
213.6418	1
214.0664	3
214.4155	1
214.6428	1
215.0474	17
215.5277	0
216.0497	4
216.3520	0
216.4942	0
216.7847	1
217.0552	14
217.2515	1
217.6338	0
217.7510	0
218.0869	4
218.5644	1
218.6678	0
219.0753	15
219.6016	1
219.6863	1
220.0801	6
220.3496	0
220.5941	0
220.7080	0
220.8234	0
221.0930	11
221.3848	0
221.6044	1
221.7469	1
221.8435	0
222.1133	6
222.2711	1
222.5068	0
222.6722	2
223.1104	11
224.1120	4
224.3730	1
224.5713	0
224.7648	0
225.1218	5
225.4232	1
225.6425	0
226.0756	7
226.3096	1
226.4016	1
226.6627	1
226.7784	0
227.0911	7
227.4116	1
227.7774	0
228.1029	7
228.4095	0
228.5218	1
228.6884	2
229.1053	15
229.4783	1
229.7510	0
230.1304	6
230.5008	1
231.1057	14
231.4391	0
231.5609	1
231.8282	0
232.1352	6
232.6658	0
232.7709	0
233.1296	14
233.4792	0
234.1152	6
234.3535	1
234.5535	0
234.7674	1
235.1347	14
235.3647	0
235.4832	0
235.6708	1
235.7600	1
235.9113	0
236.1330	3
236.2425	1
236.5905	0
236.7760	1
237.1135	9
237.5098	1
237.6486	0
237.8251	0
238.1544	3
238.3987	1
238.5124	0
238.6262	0
239.1057	11
239.3081	1
239.3940	0
239.6809	1
240.0692	4
240.3520	1
240.6397	0
241.1000	10
241.3669	0
241.5080	0
241.8287	1
242.1243	6
242.4143	1
242.5226	0
242.6680	0
242.8511	1
243.1133	12
243.4230	1
243.7313	0
244.1187	5
244.5341	0
244.7894	1
245.1119	11
245.5722	1
246.0928	5
246.4274	0
246.5841	0
246.8102	1
247.1420	8
247.6293	1
248.1019	5
248.1937	2
248.4451	0
248.6013	0
248.7021	0
249.1280	12
249.2877	2
249.4314	0
249.5603	1
249.7438	1
250.0886	4
250.2463	1
250.4565	1
250.6051	1
251.1217	10
251.3558	1
251.7267	1
252.0808	6
252.4686	1
252.7912	1
253.1195	8
253.5579	0
253.8610	1
254.0925	4
254.2778	1
254.6595	0
255.1263	10
255.4099	1
255.5875	0
255.7693	0
256.1182	5
256.4862	1
256.6961	0
257.1323	9
257.4047	1
257.8330	0
258.0977	3
258.2501	1
258.6581	1
258.7922	0
259.1399	8
259.4729	0
259.5979	0
260.1284	4
260.6526	0
260.8156	0
261.1382	10
261.3097	2
261.5951	0
261.7940	1
262.1589	4
262.4626	0
262.7650	1
263.1237	4
263.3361	1
263.6202	0
263.8657	1
264.1211	3
264.3455	1
264.4630	1
264.5347	0
264.7106	1
264.9013	1
265.1434	6
265.5340	0
265.6536	0
266.0893	2
266.6708	0
267.1214	6
267.8058	1
268.1298	3
268.3101	1
268.4827	1
268.7665	1
268.9081	2
269.1406	6
269.5500	1
269.6317	0
269.7416	1
269.8798	0
270.1532	3
270.3808	0
270.5126	0
270.7241	0
271.1554	5
271.4008	1
271.8139	1
272.1544	4
272.3195	2
272.4492	1
272.5959	0
273.1347	10
273.5198	0
273.8196	0
274.1505	3
274.3579	0
274.6077	0
275.1595	8
275.4545	1
275.6208	0
275.7540	0
276.1162	3
276.3946	1
276.7632	1
276.8922	1
277.1657	9
277.4174	0
277.5506	0
278.0977	1
278.5674	1
278.7190	0
279.1104	7
279.7318	1
280.1622	6
280.5361	0
281.1288	7
281.3688	1
281.5876	0
281.7499	0
282.1727	5
282.3901	1
282.4924	0
282.7169	0
283.1377	5
283.3933	1
283.5402	0
283.8410	0
284.1856	3
284.4568	0
284.6030	1
284.7167	0
285.1497	6
285.4274	0
285.5969	0
285.7170	0
285.9410	1
286.0696	3
286.2356	1
286.6186	0
286.8497	0
287.1522	7
287.7876	1
288.1178	3
288.4967	0
288.6126	0
289.1747	5
289.7136	1
290.1493	2
290.3721	0
290.5079	0
290.7010	1
290.8318	0
291.1396	4
291.2853	1
291.5202	1
291.6277	0
291.8788	1
292.2088	2
292.3495	1
292.7445	0
293.1651	4
293.4937	0
293.8005	0
294.1569	2
294.8342	0
294.9403	1
295.1369	3
295.2932	1
295.3893	1
295.5385	1
295.7224	1
296.0853	2
296.2324	2
296.5931	1
297.1555	5
297.3239	1
297.5581	0
297.7095	1
298.1603	4
298.6613	1
298.7986	1
299.1568	8
299.7549	0
299.9015	1
300.1528	4
300.3468	1
300.5656	0
300.7850	0
301.1433	6
301.3366	1
301.5484	1
301.6567	0
302.1695	10
302.6519	1
302.8098	1
303.1265	7
303.7868	1
304.1687	2
304.4231	0
304.7038	0
305.1382	3
305.6499	0
305.9292	1
306.1596	2
306.4793	0
306.8345	1
307.2004	4
307.5266	0
308.1173	3
308.2762	2
308.4237	0
308.7088	0
309.1429	3
309.4771	1
309.6501	1
309.8523	0
310.1070	2
310.3029	2
310.5030	1
310.7258	0
310.9571	1
311.1643	3
311.4304	0
311.6916	0
312.1324	4
312.4135	0
312.6257	0
312.7705	0
313.1468	5
313.2661	3
313.4648	1
313.9995	1
314.2750	1
314.3439	0
314.4745	1
315.1485	4
315.3374	2
315.8652	1
316.0129	0
316.2033	1
316.5493	1
316.6551	0
316.8413	1
317.1631	4
317.3919	0
317.6783	1
317.7579	0
318.0656	1
318.1757	1
318.3875	0
318.8182	1
319.2041	4
319.3385	1
319.7508	0
319.8638	1
320.1382	1
320.3238	2
320.6793	0
320.7809	0
321.1912	9
321.5795	0
321.7224	0
322.1463	2
322.3753	1
323.0091	1
323.2388	4
323.4949	0
323.6080	0
323.8535	0
324.1245	2
324.3280	0
324.7080	1
324.9606	1
325.1705	4
325.4103	1
325.6985	0
325.9533	1
326.1469	2
326.2893	1
326.5989	0
326.8061	0
326.9591	1
327.2011	4
327.5678	1
327.8234	1
328.1672	4
328.5140	1
328.7419	0
328.8259	0
329.1492	5
329.3500	1
329.4533	0
329.7866	0
330.1641	2
330.4248	0
330.8073	0
331.2148	4
331.4720	0
331.5860	0
331.9579	1
332.2251	3
332.3897	2
332.7467	0
332.9206	0
333.1636	3
333.3403	0
333.5591	0
334.0017	1
334.1771	1
334.3246	1
335.2299	7
335.6641	0
335.7916	0
336.2094	4
336.3667	2
336.6394	0
336.7932	1
337.0096	2
337.1968	3
337.3620	1
337.9337	1
338.1950	2
338.4357	0
338.5532	0
338.6927	1
338.8060	1
339.2240	6
339.4683	0
339.6050	0
339.8842	1
340.2205	2
340.4463	1
341.2199	3
341.3788	1
341.6381	1
341.9566	0
342.1888	2
342.3064	0
343.2328	4
343.6768	0
344.1772	1
344.3105	1
344.4886	1
344.6612	1
345.2685	3
345.5009	1
346.1626	2
346.3294	1
347.1644	1
347.3691	1
348.2285	2
348.7042	1
348.9960	1
349.0980	0
349.2777	1
349.5745	0
349.9162	1
350.0760	2
350.2187	1
350.3693	1
350.6639	0
350.9308	0
351.2369	2
351.8963	1
352.0298	0
352.2239	3
352.4187	0
352.6621	1
352.9733	2
353.2424	3
353.7756	0
354.2183	3
354.3339	1
355.1307	2
355.3770	1
356.0418	0
356.2161	1
356.3253	0
356.8024	1
356.9409	0
357.2295	3
357.5431	0
357.8559	0
358.0688	1
358.3145	1
358.4860	1
358.6782	0
358.9403	1
359.2726	4
359.8006	1
360.0814	1
360.2864	1
360.8867	0
361.0125	0
361.1154	0
361.3341	1
361.9923	0
362.1624	1
362.3175	1
362.4998	0
362.7529	1
363.2265	2
363.3970	1
363.6623	0
364.2393	1
364.6479	0
365.2443	2
365.5374	1
365.8178	1
366.1396	1
366.3336	1
366.7167	1
366.8430	0
367.2233	3
367.3753	1
367.9462	1
368.1024	1
368.2680	1
368.4000	1
368.5413	0
368.8047	0
369.2350	5
369.3999	1
370.1423	1
370.2543	1
370.4449	0
370.6198	0
370.7640	0
370.9725	0
371.2502	2
371.4187	0
371.6829	1
371.9792	1
372.1662	0
372.3455	1
372.4919	0
372.6804	0
373.1367	1
373.3266	2
374.1922	2
374.3850	0
374.5629	0
374.9472	0
375.1929	1
375.3307	1
375.6008	0
376.2280	1
376.3459	1
376.6724	0
376.8410	0
377.1968	1
377.3333	1
378.0862	0
378.2926	1
378.4254	1
378.9769	1
379.2004	2
379.4669	0
379.7662	1
379.8969	1
380.1656	1
380.4078	1
380.5299	0
380.7786	0
381.1415	2
381.3509	2
381.6453	0
381.9133	0
382.2148	1
382.4378	0
382.6350	0
383.2582	4
384.2231	3
384.5205	0
384.6063	0
385.2854	4
385.7651	1
385.9432	1
386.1219	1
386.3371	1
386.5016	1
386.7289	0
387.2752	4
388.1005	1
388.2292	0
388.4230	0
388.8192	0
389.1969	2
389.4236	1
389.6768	0
389.8321	0
390.2605	3
390.5038	0
391.1204	1
391.2771	2
391.7736	0
392.2680	2
392.9070	0
393.0859	1
393.3886	1
394.1221	1
394.3032	1
394.6274	0
395.0497	1
395.2101	1
395.3403	1
396.2365	1
396.3596	1
396.4763	1
396.5773	0
396.8171	0
396.9746	1
397.2223	1
397.3999	1
398.2304	1
398.5698	1
398.8949	0
399.2873	5
399.5408	0
399.8846	0
400.0522	1
400.2957	2
400.5213	1
400.9066	1
401.1458	2
401.3944	3
401.8894	0
402.3120	5
402.6279	0
402.7569	0
403.2885	2
403.5385	0
403.7964	0
403.9956	1
404.2371	1
404.4170	0
404.7265	0
404.8963	0
405.2482	1
405.6746	0
405.9196	1
406.0730	0
406.3102	1
406.4378	1
406.5661	1
407.2255	2
407.3939	1
407.7788	1
408.4512	0
409.1165	1
409.2534	1
409.4040	0
409.5273	0
409.9050	1
410.1620	0
410.4012	1
410.8143	0
411.1007	1
411.3298	2
411.8088	1
412.0623	1
412.2535	1
412.5758	1
413.0277	1
413.1308	1
413.2526	1
413.3865	1
413.5125	0
414.2202	3
414.4773	0
414.7201	0
415.2416	2
415.7051	0
416.0310	1
416.3004	5
416.6006	1
416.9839	0
417.2998	4
417.5255	1
417.9074	1
418.0629	1
418.2564	2
418.3718	1
418.5430	1
419.2747	1
419.4846	0
419.6896	1
420.1978	1
420.4149	0
420.8922	0
421.1360	0
421.3409	1
421.6513	1
422.0456	0
422.2592	1
422.5259	0
423.1395	2
423.3015	1
423.4256	1
423.8300	1
424.0020	0
424.1884	1
424.3562	0
424.4975	0
425.1306	1
425.3020	1
425.4440	2
425.7086	0
426.2199	1
426.5118	1
426.7427	0
427.3596	1
427.9572	1
428.1519	0
428.4146	1
429.0086	1
429.2842	2
429.4553	1
430.1819	1
430.3895	1
430.5634	0
430.8677	0
431.0574	0
431.2135	2
431.3875	3
431.8836	0
432.1886	1
432.3956	2
432.5860	0
432.8567	0
433.1102	0
433.2741	2
433.5097	1
434.0984	1
434.2803	4
434.3884	1
434.4937	0
434.7429	0
435.3094	8
435.7148	0
435.9132	1
436.1002	1
436.3637	0
436.7871	1
437.1159	1
437.2262	1
437.3029	0
437.4805	0
437.6703	0
438.0199	0
438.1138	1
438.3308	1
438.6970	0
439.3303	1
439.6398	0
440.1364	1
440.3313	1
440.4631	0
440.6774	1
440.9654	0
441.2471	1
441.4162	2
441.6570	0
441.9522	0
442.3206	2
442.5421	0
443.2301	2
443.4150	1
443.5612	1
443.6859	1
443.8092	0
444.0400	0
444.2336	1
444.4063	0
444.5569	1
445.2271	2
445.3110	1
445.4659	1
445.6207	0
446.1161	1
446.3369	1
446.4337	0
446.7283	1
447.2030	1
447.3120	1
447.5421	1
448.0541	0
448.3323	0
448.4334	0
448.6937	1
448.8264	0
449.3907	2
449.5435	1
449.8956	0
449.9910	0
450.1208	2
450.2198	1
450.3876	1
450.6257	0
451.1966	1
451.3666	2
451.4886	1
451.9770	0
452.1951	1
452.3048	0
452.5092	1
452.7560	0
453.1434	1
453.2567	1
453.3938	2
453.6534	1
454.2417	1
454.3666	0
454.5510	1
454.9987	0
455.1285	1
455.3237	1
455.8123	1
455.9235	0
456.0390	1
456.1754	1
456.3612	1
456.6353	0
457.0314	1
457.2446	3
457.4627	1
457.6996	1
457.8732	0
458.1890	1
458.4545	1
458.9088	0
459.0316	0
459.1679	2
459.3668	3
459.4751	1
459.6553	0
460.0874	1
460.3494	1
460.4578	0
460.7643	0
460.9351	0
461.3529	1
461.7434	0
462.0170	0
462.1454	1
462.2830	0
463.2933	1
463.4646	1
463.6566	0
464.3496	0
464.9337	1
465.1122	0
465.2670	0
465.4999	1
466.0898	0
466.4360	0
467.0209	1
467.1901	2
467.3420	1
467.4976	1
467.8775	0
468.0152	1
468.4288	1
468.8446	0
468.9980	1
469.3716	1
469.6261	0
469.9021	0
470.2764	1
470.4097	1
470.5496	0
471.1884	1
471.4078	1
471.6100	0
472.2146	1
472.4189	1
472.5358	0
473.1260	1
473.3175	1
473.4351	1
473.6359	0
473.9372	0
474.3029	1
474.5038	1
474.6271	1
475.3071	0
475.4505	1
476.2539	0
476.4849	0
476.7137	0
477.0767	0
477.2015	1
477.3845	0
478.1801	1
478.4599	2
478.6522	1
478.8344	0
479.2039	1
479.3345	1
479.4572	1
479.6487	1
479.8374	1
480.1438	0
480.3404	1
481.0602	1
481.2826	1
481.5632	0
482.1875	1
482.3763	1
483.1908	1
483.5375	1
484.2696	2
484.5165	1
484.7081	0
485.1208	1
485.2192	1
485.3750	1
485.5243	2
485.8976	1
486.3677	5
486.5465	1
486.9205	1
487.0806	0
487.3089	2
487.4676	0
487.6018	1
487.7361	0
487.8861	1
488.0677	0
488.2042	0
488.4353	2
488.5753	1
489.1512	1
489.5971	0
489.7974	1
489.9489	0
490.1175	1
490.2323	1
490.3944	0
490.5995	0
491.2574	1
491.3685	0
491.5091	0
492.1418	0
492.4589	0
492.6756	0
492.8384	0
493.0652	0
493.3184	1
493.7403	0
493.8694	1
494.2612	1
494.5769	0
494.7756	1
495.1207	1
495.3403	2
495.4781	1
495.5922	1
495.7472	1
495.9969	1
496.1461	0
496.3148	1
496.4525	1
496.8881	0
497.0553	0
497.3531	2
497.5785	1
498.5244	0
498.7419	0
498.8797	0
499.1897	1
499.2773	0
500.2951	2
500.4558	1
500.6848	1
500.7480	0
501.0208	1
501.2318	1
501.4493	0
501.6503	1
502.0595	1
502.3043	2
502.5900	0
503.0337	0
503.1464	1
503.3503	1
503.5370	2
503.6891	0
503.8902	0
504.0654	0
504.3253	1
504.6929	1
504.7941	0
505.1804	0
505.3979	1
505.5581	1
505.9401	0
506.2288	1
506.4427	1
506.7163	1
506.8872	0
507.2298	0
507.3396	0
507.4998	1
507.6319	1
508.6962	2
508.8269	0
509.1465	0
509.3189	1
509.5365	2
509.8296	0
510.3876	1
510.5859	1
511.0621	1
511.3157	1
511.5312	1
511.6483	1
512.1891	0
512.4176	1
513.0318	1
513.1503	1
513.4247	2
513.6166	1
513.8436	1
513.9370	0
514.1281	0
514.2947	0
514.5096	1
514.7151	0
514.9184	1
515.3186	1
515.5276	0
515.9818	0
516.3770	2
516.5480	1
516.6787	0
516.7756	0
516.9068	0
517.4366	0
517.6718	0
518.0267	2
518.3708	1
518.7960	0
519.3825	1
519.5216	1
519.9203	0
520.3025	0
520.4868	1
520.8389	1
521.1566	1
521.6686	1
521.9454	1
522.2057	1
522.5643	2
522.8153	2
522.9100	1
523.1595	1
523.4070	1
523.6902	3
524.0474	1
524.3652	1
524.7159	2
524.8106	1
524.9268	1
525.0466	1
525.3220	1
525.6254	1
525.7875	1
525.8937	1
526.0501	2
526.2158	1
526.4252	1
526.6218	2
526.9661	1
527.2459	1
527.5336	1
527.8715	1
528.0659	1
528.2137	1
528.3679	1
528.5875	2
528.7603	1
528.9899	1
529.3408	3
529.5316	2
529.9750	1
530.2548	3
530.4973	5
530.9193	1
531.0168	1
531.1675	1
531.3864	2
531.8893	1
532.0494	0
532.4203	1
532.5179	1
532.6450	1
532.8976	0
533.3253	1
533.4415	0
533.6209	1
533.7774	0
533.8728	0
534.1434	1
534.4189	1
534.9257	1
535.1733	1
535.3132	1
535.4919	1
535.7087	1
535.8580	1
536.2154	1
536.3819	1
536.5678	1
536.6568	1
536.8599	0
537.0315	2
537.3452	7
538.0371	3
538.2388	1
538.3839	2
538.6358	2
539.0242	2
539.2668	3
539.6027	3
539.8856	3
540.0529	1
540.3845	3
540.9819	4
541.2382	3
541.4765	4
541.6373	2
541.9260	3
542.4580	4
542.9771	4
543.5192	4
543.8409	4
544.0082	2
544.2071	3
544.5202	5
544.8498	4
545.4329	4
545.7452	4
546.3535	6
546.6853	4
547.3734	5
547.7935	3
548.0822	3
548.3602	3
548.6136	3
548.8881	3
549.2644	2
549.5129	4
549.7356	5
549.9655	3
550.0811	2
550.3282	3
550.6406	3
551.4236	8
551.6607	5
551.8467	1
551.9495	1
552.4904	39
553.1944	2
553.3855	2
553.6125	3
553.8044	2
553.8920	1
554.0479	1
554.4215	3
554.6744	1
554.8691	1
555.4288	7
555.7363	3
555.9203	1
556.1329	0
556.2271	0
556.4376	1
556.6589	1
556.8853	0
557.0915	1
557.3732	2
557.5743	1
557.8417	2
558.1147	3
558.2793	3
558.7148	6
559.1567	9
559.4377	9
559.9055	9
560.6091	7
561.3883	6
562.1868	9
562.6169	7
563.2814	12
564.0405	11
565.4620	14
566.7137	14
570.4780	709
571.4368	22
572.6774	9
573.3903	12
573.6370	7
573.8772	3
574.1784	4
574.6589	5
575.4644	5
575.8998	6
576.0977	5
576.3036	4
576.8975	5
577.8845	5
578.3465	5
578.6636	5
579.0266	4
579.5574	8
580.0596	7
580.2877	4
580.6636	8
581.0065	6
581.1708	4
581.4227	7
581.7211	4
582.2900	8
582.7062	7
583.8786	7
584.7052	8
588.4807	999
589.2095	59
589.9597	15
590.4303	11
590.7875	8
591.5845	7
592.0766	3
592.4116	3
592.7947	3
593.2610	3
593.4562	2
593.5674	1
593.8443	2
594.1937	1
594.3078	0
594.5654	1
594.8064	0
594.9808	2
