Mass spectrum: alpha-Echinenone; FAB-EBEB; MS2; m/z: 550.42; [M]+*
Name: alpha-Echinenone
Formula: C40H54O
Exact mass: 550.41747
SMILES: CC1=CCCC([C@H]1/C=C/C(=C/C=C/C(=C/C=C/C=C(\C)/C=C/C=C(\C)/C=C/C2=C(C(=O)CCC2(C)C)C)/C)/C)(C)C
InChI: InChI=1S/C40H54O/c1-30(18-13-20-32(3)23-25-36-34(5)22-15-28-39(36,7)8)16-11-12-17-31(2)19-14-21-33(4)24-26-37-35(6)38(41)27-29-40(37,9)10/h11-14,16-26,36H,15,27-29H2,1-10H3/b12-11+,18-13+,19-14+,25-23+,26-24+,30-16+,31-17+,32-20+,33-21+/t36-/m0/s1
Instrument: JMS-HX/HX 110A, JEOL
Instrument type: FAB-EBEB
Ms type: MS2
Ion mode: POSITIVE
Collision energy: 3 kV
Ionization: FAB
Base peak: 104.9139
Precursor m/z: 550.42
Precursor type: [M]+*
m/z	relative intensity
0.0119	0
0.0477	1
0.0831	0
0.1175	0
0.2522	0
0.3266	2
0.4980	1
0.5629	0
0.8450	0
1.1720	1
1.1880	0
1.3163	0
1.4137	0
1.7090	2
1.8312	0
2.2878	0
2.7032	1
2.8175	0
3.4084	0
3.6630	0
4.0833	0
4.2121	1
5.4038	0
6.8161	0
7.0461	0
7.1747	0
7.8836	0
8.8166	3
8.8883	1
8.9181	0
10.1751	3
10.2175	1
10.2786	1
10.6531	0
10.7868	0
11.1006	0
11.2602	0
12.0044	0
12.1976	1
12.4099	1
12.8780	2
13.1191	0
13.9583	1
14.8145	0
14.9642	10
15.2275	2
15.4721	0
16.1798	1
17.2685	1
19.9872	0
20.5924	0
21.1916	1
22.3902	0
22.5192	2
22.9138	1
23.0401	0
24.2460	0
24.9286	3
25.3957	0
25.5732	0
25.9373	20
26.6796	1
26.9375	97
27.2747	0
27.9453	22
28.9518	78
29.2752	0
30.4558	0
30.9228	2
31.6058	0
33.6806	1
34.0758	0
35.1143	2
35.9320	1
36.1879	1
36.9140	9
37.1246	0
37.5682	1
37.9199	33
38.7505	1
38.9183	197
39.0905	1
39.7690	2
39.9279	24
40.6798	2
40.9363	402
41.1994	2
41.6875	2
41.9228	19
42.2035	1
42.7708	1
42.9295	206
43.0837	3
43.1580	2
43.9446	2
44.0749	0
44.9278	11
45.8677	1
46.9354	2
47.9240	1
48.2694	0
48.3847	0
48.5100	0
48.6630	2
48.7781	1
48.9116	5
49.0145	1
49.9052	60
50.3151	2
50.6120	0
50.9115	139
51.9200	54
52.0811	2
52.9210	247
53.6666	1
53.9324	14
54.0861	0
54.5376	0
54.9282	513
55.3663	1
55.9496	46
56.1213	0
56.7393	1
56.9353	44
57.5873	1
57.9003	1
57.9667	0
58.1364	0
58.9243	4
59.9311	2
60.1961	0
60.4389	0
60.5868	2
60.8941	9
61.9023	40
62.0447	1
62.3502	1
62.5578	1
62.9021	111
63.6145	2
63.9018	30
64.6809	1
64.9145	185
65.9072	39
66.2040	0
66.4717	1
66.5844	2
66.9213	241
67.1644	2
67.5764	1
67.9177	10
68.9302	485
69.4234	3
69.9371	17
70.4092	2
70.9387	15
71.9515	1
72.5649	2
72.7152	1
72.8864	6
73.4863	1
73.8847	31
74.8867	48
75.3068	2
75.6332	3
75.8930	35
76.0581	1
76.1856	1
76.2860	2
76.4752	3
76.8895	475
77.1753	5
77.3321	4
77.4351	2
77.6244	3
77.9069	121
78.0602	5
78.1829	6
78.3776	1
78.9037	463
79.1341	1
79.3434	1
79.6339	2
79.9158	76
80.0980	1
80.1794	1
80.3971	1
80.5009	1
80.5925	2
80.9127	563
81.1298	2
81.1984	1
81.4398	3
81.8977	20
82.0792	2
82.2349	0
82.4279	2
82.9130	67
83.6008	0
83.9157	7
84.2048	1
84.4152	0
84.9284	11
85.2398	0
85.6356	1
85.8736	15
86.0347	1
86.8918	24
87.1470	0
87.6459	2
87.8684	7
87.9737	3
88.1351	2
88.2290	1
88.3264	1
88.4381	5
88.6232	7
88.8973	61
89.0521	6
89.1738	7
89.2943	5
89.5458	3
89.9107	23
90.1373	8
90.2259	4
90.5107	7
90.9006	952
91.1721	2
91.2620	3
91.3843	1
91.4749	3
91.9135	143
92.2272	2
92.3543	0
92.5642	2
92.9171	599
93.2690	0
93.5719	2
93.9236	37
94.1352	2
94.3203	2
94.4160	1
94.5913	1
94.9327	315
95.3593	1
95.6716	1
95.9248	9
96.1955	1
96.3091	0
96.9147	56
97.1061	3
97.4195	2
97.9026	11
98.5254	0
98.6939	2
98.8730	8
98.9907	6
99.8923	8
100.5574	1
100.6919	5
100.8864	26
101.2304	3
101.4216	2
101.4963	1
101.9025	61
102.1864	2
102.2477	1
102.4368	4
102.9086	191
103.2586	2
103.3690	3
103.6365	6
103.9201	98
104.2589	5
104.9139	999
105.3356	2
105.6319	1
105.9316	115
106.2133	3
106.4808	3
106.6063	4
106.9262	461
107.2083	1
107.3518	2
107.9337	32
108.2128	0
108.3761	2
108.5483	0
108.9317	145
109.2896	4
109.4134	2
109.5401	1
109.8854	13
110.2624	0
110.4918	0
110.6318	2
110.9067	42
111.5046	2
111.8001	2
111.9524	5
112.2201	1
112.3898	5
112.9011	30
113.3380	6
113.6014	5
113.8602	23
114.2395	4
114.8800	505
115.1957	2
115.3176	3
115.4971	8
115.8840	206
116.3793	7
116.5086	8
116.8888	509
117.1398	6
117.3270	1
117.4433	4
117.8891	121
118.1910	4
118.4298	6
118.8920	888
119.1811	5
119.3785	2
119.4558	2
119.5990	2
119.8999	94
120.1217	3
120.2450	3
120.9001	363
121.1943	6
121.3044	4
121.4685	1
121.5673	2
121.6684	5
121.9120	54
122.1514	3
122.3132	3
122.5097	1
122.9137	474
123.1740	3
123.2845	2
123.4029	0
123.5754	2
123.8803	13
124.8730	21
125.1492	4
125.4444	2
125.5071	1
125.8792	34
126.1557	4
126.2721	3
126.4306	3
126.8604	194
127.1336	10
127.3612	12
127.8581	546
128.1335	11
128.8588	681
129.2159	5
129.4660	3
129.8748	260
130.1086	6
130.2507	2
130.4178	3
130.8699	582
131.2616	5
131.3848	3
131.8736	171
132.3479	3
132.4676	1
132.8711	615
133.1155	7
133.4142	4
133.5463	1
133.8653	44
134.1529	1
134.3642	3
134.5725	2
134.8825	122
135.1007	3
135.2179	2
135.3073	1
135.4442	1
135.8792	21
136.0983	4
136.2471	3
136.4594	2
136.8875	167
137.1939	5
137.3231	3
137.5438	2
137.6878	7
137.8801	28
138.1442	3
138.4802	4
138.8664	114
139.2807	4
139.4058	2
139.8717	31
140.8637	491
141.1336	5
141.2093	3
141.3968	4
141.4799	2
141.8636	409
142.1934	5
142.8782	759
143.2077	6
143.4520	5
143.8844	268
144.3057	4
144.4626	6
144.8897	788
145.3065	4
145.5632	5
145.9017	81
146.2832	6
146.4685	2
146.9002	338
147.1579	4
147.2484	4
147.4064	7
147.5762	2
147.8928	35
148.0102	14
148.1377	4
148.4494	4
148.8945	63
149.2189	2
149.3077	2
149.4047	2
149.5604	2
149.8839	20
150.2043	7
150.3395	5
150.8848	67
151.2431	12
151.3458	6
151.8747	212
152.8799	256
153.2577	7
153.8948	138
154.2936	8
154.4657	8
154.9074	520
155.3524	4
155.9140	303
156.3449	4
156.9214	669
157.3313	8
157.4541	3
157.9221	125
158.1798	6
158.2907	3
158.4577	7
158.9317	334
159.2584	4
159.9385	58
160.1669	5
160.3455	6
160.9390	133
161.2555	3
161.3900	2
161.5663	3
161.9353	24
162.1837	1
162.3177	2
162.4518	4
162.5586	5
162.9375	95
163.2082	5
163.2879	3
163.4195	4
163.5252	1
163.8853	30
164.0201	15
164.3436	6
164.9250	410
165.2202	8
165.3558	7
165.9218	168
166.2698	7
166.4771	7
166.9359	350
167.2709	4
167.9399	130
168.2702	6
168.4682	6
168.9397	464
169.4170	5
169.9465	166
170.2290	6
170.5218	7
170.9438	315
171.3508	6
171.9470	73
172.2807	3
172.3847	4
172.4748	1
172.9470	142
173.2485	5
173.4606	3
173.9464	38
174.2659	4
174.4718	3
174.9516	121
175.3298	4
175.5956	7
175.9339	38
176.1921	2
176.3085	6
176.3918	3
176.9531	64
177.3248	7
177.9074	209
178.2290	6
178.3385	5
178.4628	4
178.9081	325
179.2114	7
179.3134	5
179.4556	5
179.9133	154
180.1939	5
180.2857	5
180.9172	402
181.2050	5
181.2931	2
181.5337	6
181.9275	176
182.1816	4
182.4754	5
182.9327	373
183.3384	3
183.5288	5
183.9397	97
184.2287	6
184.9340	185
185.2826	4
185.4316	7
185.9384	55
186.2821	5
186.9389	124
187.4096	2
187.5403	9
187.9233	32
188.2834	7
188.3873	3
188.9154	136
189.2109	5
189.4905	5
189.9048	51
190.8947	170
191.5295	11
191.8929	124
192.2936	6
192.4754	3
192.9083	311
193.2097	3
193.9083	167
194.3422	4
194.9235	372
195.3313	8
195.9361	112
196.3383	8
196.9312	339
197.3768	6
197.5732	7
197.9390	68
198.2379	4
198.3462	2
198.4725	5
198.5820	3
198.9422	120
199.4398	4
199.9344	65
200.0833	16
200.2935	4
200.4574	5
200.9405	94
201.2631	7
201.9014	119
202.1447	6
202.3293	4
202.9188	175
203.4038	6
203.9226	71
204.2896	4
204.5513	7
204.9197	159
205.2921	3
205.9212	98
206.2853	7
206.9225	233
207.9372	80
208.3826	6
208.5529	7
208.9479	261
209.3294	7
209.4868	5
209.9526	67
210.1962	4
210.4263	3
210.9655	153
211.2864	10
211.9146	51
212.3213	5
212.4925	7
212.9375	96
213.2918	2
213.5481	7
213.9589	34
214.1458	8
214.9249	176
215.3671	7
215.9244	63
216.3038	2
216.4721	3
216.5644	2
216.9510	102
217.2877	3
217.9143	53
218.2804	6
218.3740	4
218.5971	10
218.9620	140
219.2462	5
219.3275	3
219.4219	4
219.5852	5
219.9756	79
220.3048	4
220.5105	3
220.9720	182
221.3392	4
221.9617	52
222.4970	9
222.9778	146
223.2808	2
223.4345	3
223.9624	34
224.4636	4
225.0028	75
225.2147	10
225.4077	2
225.6275	3
225.9778	45
226.2112	6
226.5059	6
226.9711	55
227.5146	7
227.9728	44
228.2456	4
228.3895	5
228.9495	84
229.3064	2
229.9643	48
230.1643	6
230.3005	3
230.9580	94
231.3340	5
231.4540	3
231.6971	7
231.9722	41
232.3165	4
232.4710	3
232.9660	108
233.2882	5
233.3893	4
233.4819	2
233.6763	8
233.9980	45
234.3073	5
234.4188	2
234.5839	5
234.9827	117
235.4794	3
235.5584	2
235.9873	33
236.4679	4
236.9851	87
237.3829	3
237.5221	3
237.6501	1
237.9944	41
238.3087	3
238.4407	2
238.5315	2
238.9897	76
239.3086	6
239.4374	2
239.5564	7
239.6230	3
239.9735	25
240.4148	3
240.9694	55
241.3278	3
241.4442	3
241.6150	3
241.9624	30
242.1835	3
242.4335	4
242.9590	66
243.3477	2
243.4708	2
243.9768	49
244.4587	4
244.5805	3
244.9721	74
245.3015	2
245.4908	3
245.9906	36
246.3097	7
246.5980	9
246.9892	111
247.3542	3
247.6262	6
247.9520	25
248.3539	4
248.4706	3
248.9977	74
249.3446	4
249.9880	20
250.1980	8
250.3141	2
250.4715	3
250.6473	4
251.0029	59
251.3560	5
251.4623	3
251.6007	6
251.9751	28
252.3890	2
252.5261	1
252.7097	8
253.0174	73
253.2929	2
253.4110	2
253.5344	7
253.6748	6
254.0285	23
254.2673	4
254.4656	1
254.9782	54
255.4344	7
255.5322	4
255.6347	2
255.9945	39
256.4174	2
256.5034	2
256.9769	66
257.5333	4
257.9977	31
258.2343	9
258.4222	4
258.5457	5
258.7507	15
259.0005	51
259.3711	4
259.5611	3
259.9607	23
260.1935	3
260.5524	1
261.0009	62
261.3730	4
261.6078	3
261.9860	22
262.1814	7
262.3031	3
262.4373	4
262.5688	2
263.0287	69
263.3550	2
263.5900	2
263.7946	9
263.9986	20
264.1421	8
264.9905	46
265.2348	5
265.4013	2
265.6956	5
266.0058	19
266.3376	4
266.6050	4
267.0219	62
267.3480	3
267.5166	5
267.7070	7
268.0239	22
268.5958	5
269.0024	54
269.4409	1
269.9792	30
270.1944	5
270.9666	42
271.2984	1
271.9877	23
272.2564	5
272.6153	4
272.9901	36
273.3820	1
273.6014	2
273.7364	2
274.0349	14
274.3524	5
274.4803	3
275.0120	69
275.3686	4
276.0046	21
276.1483	10
276.2808	5
276.5445	4
276.6955	3
277.0159	46
277.2223	7
277.3911	2
277.5177	3
278.0116	19
278.2503	5
278.9865	32
279.8144	8
280.0163	17
280.1021	8
280.2367	4
280.4161	0
281.0074	72
281.4562	6
281.8219	12
281.9988	22
282.1731	7
282.2629	2
282.7006	7
283.0030	39
283.1503	17
283.5101	2
283.6746	2
283.9823	18
284.2815	4
285.0286	30
285.3598	4
285.4825	2
285.9108	7
286.1200	7
286.4196	2
286.5344	2
287.0037	37
287.4895	1
287.8380	5
288.0163	10
288.1629	4
288.4111	1
288.7399	6
289.0305	28
289.5581	4
290.0284	23
290.1763	11
290.2813	2
290.4293	0
290.6255	0
291.0265	26
291.4030	3
291.7407	3
291.8457	10
292.0169	15
292.1979	9
292.3453	1
292.5700	1
292.9943	20
293.3697	3
293.6982	4
294.0195	12
294.4704	4
294.9874	23
295.2393	1
295.3418	0
295.6030	1
295.7022	3
295.9456	15
296.1215	6
296.3014	2
296.4866	0
296.6288	2
296.9873	18
297.2520	2
297.5186	3
297.5933	1
297.9354	11
298.4316	3
298.5447	2
298.9828	14
299.1999	4
299.4580	1
299.5626	4
299.7605	2
300.0113	8
300.1960	5
300.4330	1
300.5535	2
300.9831	23
301.1016	12
301.4890	2
302.0134	8
302.4782	1
302.5941	2
302.7517	6
303.0345	21
303.5638	3
303.7910	1
304.0208	14
304.1732	5
304.5078	6
304.9908	19
305.1604	10
305.2823	2
305.4765	3
305.5885	1
305.7806	5
305.9244	5
306.1007	3
306.2108	4
306.7158	8
307.0386	18
307.5410	5
308.0243	9
308.4758	2
308.5680	3
308.9678	14
309.0932	6
309.4314	3
309.8498	8
309.9977	6
310.1244	5
310.2451	1
310.4713	1
310.7791	3
310.9442	11
311.1035	15
311.2653	2
311.7569	2
311.9593	7
312.0555	3
312.1902	3
312.3016	2
312.5299	1
312.6560	2
313.0269	14
313.3143	7
313.6315	6
313.8552	4
314.0092	2
314.1306	5
314.2654	3
314.4579	2
314.9617	16
315.1456	6
315.4908	2
315.7292	4
315.9775	10
316.0897	9
316.3978	2
316.6216	2
316.7059	2
317.0626	23
317.2047	12
317.4524	3
317.5208	2
317.7293	6
318.0302	14
318.2269	3
319.0227	18
319.2957	4
319.7675	4
320.0346	12
320.2246	1
321.0613	17
321.7425	2
321.9845	8
322.1273	5
322.3002	3
322.4518	1
322.8440	3
322.9789	7
323.1059	5
323.7056	2
324.0274	8
324.1511	6
324.2621	2
324.4616	2
324.6485	2
324.7855	5
325.0222	9
325.1832	4
325.3747	3
325.5363	2
325.7239	2
325.9920	9
326.1709	3
326.3385	2
326.4702	2
326.9792	7
327.1767	8
327.3358	3
327.5686	3
327.7707	2
327.9641	4
328.5296	0
329.0446	21
329.2739	6
329.4786	3
329.6860	3
329.8469	3
330.0104	10
330.2065	5
330.3062	2
330.3873	2
330.6120	2
330.8008	3
331.0787	16
331.4018	2
331.7435	1
332.0022	14
332.2023	7
332.2834	3
332.4750	4
332.6339	3
333.0735	28
333.2564	7
333.9893	11
334.1576	7
334.4995	2
335.0663	19
335.3398	2
335.4928	3
335.7902	1
335.9425	10
336.0822	6
336.2646	3
336.4103	1
336.6691	2
336.9094	7
337.0897	5
337.2082	2
337.3912	2
337.6567	2
337.9602	2
338.1379	4
338.3436	4
338.5113	1
338.8688	4
339.0419	10
339.1750	4
339.5378	2
339.7362	5
339.8447	3
339.9652	10
340.0884	8
340.1903	6
340.2975	1
340.4200	3
340.7869	3
341.0186	9
341.4181	3
341.6425	1
341.8011	1
341.9982	5
342.2306	4
342.4404	2
342.6336	1
343.0305	10
343.2424	6
343.4355	1
343.6114	3
343.6900	3
343.9325	3
344.0911	5
344.2569	6
344.5001	2
345.0764	16
345.1864	9
345.4362	2
345.5742	1
346.0773	11
346.2679	8
346.5051	3
346.6711	1
347.0816	51
347.4355	3
347.5935	3
347.9668	8
348.1261	8
348.4448	2
348.6381	2
348.7621	3
348.8781	3
349.0667	15
349.2534	7
349.4408	1
349.9028	3
350.0875	7
350.2482	6
350.4370	1
350.8844	3
351.0678	6
351.1638	5
351.3839	3
351.8368	1
351.9995	4
352.1722	4
352.3737	1
353.0234	5
353.2495	2
353.8333	1
354.2341	6
354.3405	3
354.4722	3
354.5660	2
355.0602	8
355.5391	3
355.8298	2
356.0214	4
356.1777	5
356.2955	2
356.6002	0
357.1045	16
357.3474	4
357.5350	1
358.0813	10
358.2437	8
358.5678	2
359.0483	18
359.2552	13
359.6120	2
359.8030	3
360.1491	19
360.4434	3
360.6258	2
360.8614	7
361.1177	11
361.3527	3
361.7968	3
362.1123	4
362.7236	4
363.1744	4
363.2922	4
363.3875	1
363.7964	6
363.9928	3
364.1127	2
364.3338	2
364.8799	5
365.0365	6
365.2310	9
365.6033	2
365.9943	4
366.2235	3
366.8337	3
367.1022	2
367.2161	2
367.5486	2
367.8484	3
368.0630	3
368.2702	2
368.7751	4
369.0936	7
369.5813	2
369.8605	2
370.1296	3
370.3009	2
370.5548	1
371.0899	14
371.2678	4
371.5250	1
371.8136	3
372.1215	8
372.5121	2
373.0887	24
373.3073	9
373.6133	2
373.9726	6
374.1786	6
374.2845	1
374.4685	3
374.5886	2
374.7939	1
374.9946	6
375.1866	5
375.5200	1
375.6433	1
375.8714	2
376.0267	1
376.1754	3
376.8136	3
376.9056	2
377.0544	3
377.1937	3
377.5038	3
378.0641	4
378.2902	2
378.5703	1
378.8952	4
379.0986	9
379.2440	4
379.5209	2
379.7490	3
379.9465	4
380.0846	7
380.2954	2
380.5482	2
380.6316	1
380.9045	3
381.0119	3
381.1294	5
381.3756	2
381.5184	2
381.7312	2
381.8994	3
382.1476	7
382.6367	3
382.9177	7
383.0365	9
383.2187	6
383.5137	4
383.8380	3
384.1030	3
384.2472	3
384.5142	0
384.6864	2
385.1302	9
385.4387	2
385.8612	2
386.0235	4
386.1656	6
386.3406	2
387.0877	11
387.2606	4
387.3441	3
387.5110	2
387.7166	3
388.1313	4
388.2782	2
388.4084	2
388.5914	2
388.7550	2
388.9120	2
389.1190	4
389.3140	2
389.4830	1
389.8142	3
390.0573	3
390.1749	2
390.2631	3
390.4521	3
390.8041	2
391.0412	5
391.1975	3
391.3231	2
391.9751	6
392.0920	3
392.2249	3
393.0220	6
393.1630	4
393.3280	4
394.0196	4
394.2421	5
394.4505	2
394.6864	3
394.9163	3
395.2157	8
395.3280	2
395.7162	1
396.0437	8
396.2195	3
396.3465	4
396.4561	2
397.0831	22
397.3103	8
397.7234	3
398.1105	8
398.4033	2
398.5129	2
398.7295	2
399.1093	14
399.2416	4
399.6112	2
400.0746	9
400.3631	3
400.5514	1
400.8032	2
401.0643	9
401.2139	9
401.6247	1
401.7162	1
402.1323	18
402.5003	2
402.6098	3
402.7882	1
402.9244	4
403.1502	4
403.4067	0
403.6633	3
403.9445	2
404.0775	2
404.3908	2
404.5711	3
405.1110	7
405.4344	3
405.6047	2
405.8333	2
406.0030	5
406.1420	2
406.2876	6
406.5629	2
406.6558	2
406.8890	1
406.9879	0
407.0955	2
407.3000	1
407.4203	2
407.7732	4
408.0479	3
408.1735	0
408.6313	3
408.7710	1
409.0210	8
409.4868	9
409.6152	1
410.0149	7
410.2228	3
410.6346	4
411.1226	14
411.3961	8
411.6247	3
411.8961	9
412.1128	26
412.4016	5
412.5373	2
413.1291	16
413.3110	8
413.3905	3
413.5684	3
413.9061	3
414.0559	9
414.2405	8
414.3789	3
414.6845	2
414.8490	0
415.0156	2
415.2329	7
415.4276	2
415.5232	3
415.6329	2
415.8288	4
416.0212	2
416.2982	5
416.6688	1
416.9639	3
417.2630	3
417.5908	2
418.0195	4
418.2098	4
418.4729	2
418.5951	3
418.7487	3
418.9610	1
419.1300	4
419.2582	3
419.6783	1
419.8285	2
419.9915	2
420.1905	2
420.5178	3
420.6988	2
420.7756	0
420.9706	5
421.1336	3
421.3072	2
421.6111	2
421.8242	1
421.9979	1
422.2624	7
422.5002	2
422.7187	5
423.0908	12
423.2651	3
423.3934	3
423.4776	2
423.8965	0
424.0561	4
424.2024	3
424.4370	6
424.7737	4
424.9441	9
425.0977	14
425.1953	9
425.5114	2
425.6203	1
426.1087	33
426.4970	2
427.1265	54
427.6270	5
427.8015	6
428.1677	27
428.4277	8
428.8174	9
429.1669	8
429.2819	2
429.7204	4
429.8621	2
430.3367	6
430.8394	1
431.0888	1
431.2165	3
431.3723	2
431.7961	1
432.1344	1
432.7094	0
432.8625	1
433.1260	3
433.3720	3
433.7853	2
433.9738	3
434.1156	3
434.2868	1
434.5590	0
434.7509	0
434.9408	2
435.0612	2
435.1615	2
435.3508	1
435.4337	0
435.7581	2
436.1078	8
436.3607	6
436.5974	3
436.8636	6
437.1004	8
437.4676	11
437.7338	4
438.1165	9
438.5339	7
438.7379	3
438.9700	7
439.2269	10
439.4571	7
439.6270	2
439.9675	6
440.1575	6
440.3703	4
440.6526	4
441.1237	14
441.3438	6
441.5559	2
441.6951	1
442.1608	7
442.4566	2
442.7069	2
442.8983	2
443.1037	6
443.3446	8
443.5494	4
443.6940	0
443.8974	2
444.1330	10
444.3371	4
445.2213	3
445.4254	3
445.9134	1
446.1175	2
446.3277	0
446.6584	2
446.7688	3
446.9576	2
447.1725	4
447.7984	5
448.0120	5
448.1472	3
448.3969	0
448.6052	2
448.8462	3
449.2894	6
449.3905	4
449.9904	1
450.1083	4
450.1898	2
450.3535	1
450.5052	3
450.6335	2
450.7310	1
450.8313	2
451.1320	7
451.3484	1
451.5683	1
452.1837	17
452.4550	3
452.5633	3
452.6982	2
452.9448	2
453.1740	3
453.3518	3
453.9667	8
454.1010	4
454.2808	6
454.4104	3
454.5294	3
454.9070	4
455.1002	5
455.2833	5
455.5734	2
455.6737	1
455.7980	3
455.9898	5
456.2265	7
456.4758	2
456.5680	1
456.8127	4
456.9377	5
457.1429	7
457.5434	7
458.2059	287
458.6919	8
459.0489	4
459.2435	2
459.4561	2
459.6259	2
459.7951	6
459.9475	4
460.0726	4
460.1855	4
460.2872	5
460.5259	2
460.7934	2
460.9532	7
461.2220	6
461.3731	3
461.6058	2
461.8339	3
462.1053	3
462.6036	2
462.7902	1
463.1105	6
463.4021	5
463.6629	6
463.8315	6
464.2107	15
464.3525	9
464.6187	6
464.7485	4
465.1953	10
465.5404	2
465.6321	2
465.8281	6
466.1498	8
466.4040	2
466.5565	5
466.8148	3
467.1111	5
467.1807	1
467.3566	3
467.5152	4
467.7279	3
467.8784	3
468.0591	2
468.1581	2
468.2859	4
468.5816	3
468.8445	2
469.1189	11
469.2861	3
469.4233	2
469.5872	2
469.8502	3
469.9907	7
470.1801	17
470.3995	6
470.6016	3
470.7542	2
471.2226	19
471.4080	12
471.5304	2
471.9581	2
472.0932	1
472.8421	1
472.9927	0
473.1506	3
473.2832	3
473.4170	2
473.8875	2
474.1599	4
474.3574	3
474.5950	3
475.0629	3
475.3126	2
475.5154	3
475.9478	2
476.2617	8
476.5496	5
476.6507	2
476.9961	8
477.2230	11
477.4602	8
477.7710	5
478.1974	17
478.5143	9
478.6038	5
478.8812	10
478.9962	11
479.2254	18
479.4741	10
479.6218	4
479.9574	9
480.4033	10
480.6332	7
480.7422	5
481.0096	9
481.3345	9
481.4588	4
481.5758	5
482.1648	21
482.4804	12
482.6382	5
482.9511	7
483.3837	8
483.6545	5
484.0456	12
484.2676	3
484.4034	5
484.5759	2
484.7196	1
484.8440	8
485.0379	4
485.3890	2
485.5736	2
485.8036	4
485.9481	5
486.0704	6
486.2082	6
486.3760	5
486.6001	2
486.7184	4
486.8114	3
486.9171	2
487.0736	3
487.3464	6
487.9751	2
488.1136	3
488.2273	3
488.5965	1
489.0974	1
489.5235	2
489.6359	1
489.7984	4
490.1095	4
490.2159	5
490.4961	2
490.9363	1
491.0527	2
491.2781	2
491.3979	3
491.5437	3
491.7437	4
491.9799	7
492.2742	11
492.4702	3
492.6268	2
492.7740	5
492.9312	9
493.2035	27
493.3594	12
493.5969	5
494.1917	142
494.8903	9
495.0736	4
495.1920	2
495.3279	6
495.5775	6
496.0988	4
496.2440	6
496.4086	5
496.5571	5
496.7325	1
497.1507	2
497.5502	2
497.7001	2
498.2717	2
498.3915	0
498.8426	2
499.5172	4
500.0975	2
500.3987	2
500.7890	0
501.1303	2
501.3813	2
501.8258	3
501.9503	3
502.1485	2
502.4551	2
502.9625	2
503.1303	5
503.2386	3
503.3610	2
503.5147	2
504.0748	4
504.2760	2
504.4726	4
504.7072	4
504.8863	1
505.1530	5
505.2821	7
505.3797	4
505.9004	4
506.1484	8
506.3089	3
506.4138	2
507.0663	6
507.2368	3
507.4260	3
507.5832	1
508.0345	4
508.1768	3
508.3922	1
508.5493	3
509.2587	2
509.4192	2
509.5268	2
509.8565	2
510.2924	3
510.6883	5
510.8194	2
511.0079	1
511.2166	3
511.5824	2
511.7101	2
511.8372	2
512.1053	2
512.5835	4
512.9266	1
513.3365	1
513.5419	3
513.7211	7
513.8322	3
513.9559	2
514.1940	3
514.4635	3
514.5779	4
515.1437	1
515.3792	4
515.6427	2
515.9109	4
516.0922	6
516.3571	1
516.5230	2
516.6929	2
516.9371	2
517.0588	4
517.3170	6
517.4615	3
517.7244	3
517.8455	2
517.9673	1
518.1285	6
518.2877	2
518.4235	5
518.5232	4
518.6229	3
518.7493	1
519.0571	10
519.1761	6
519.3427	7
519.5849	4
520.0044	6
520.2045	12
520.3497	11
520.5102	7
521.2529	78
521.4703	30
521.8129	4
522.2252	12
522.5229	9
522.7163	3
522.8782	3
523.1800	11
523.3252	4
523.5561	4
523.9128	4
524.0968	6
524.1603	3
524.2661	1
524.3939	2
524.5137	2
524.7546	5
524.8745	3
525.3429	5
525.7257	4
525.9646	8
526.2337	4
526.5516	5
526.7671	6
526.9645	5
527.1633	4
527.5248	6
527.7999	4
527.9792	2
528.3313	9
528.6539	7
529.0067	12
529.1586	8
529.4385	12
529.5851	6
529.7685	6
530.0182	12
530.2833	17
530.4017	7
530.5316	6
530.6882	14
530.9105	15
532.2990	86
532.5460	36
533.2490	38
533.5550	16
533.7840	16
534.2205	41
534.5761	30
535.2919	251
535.7566	24
536.0746	18
536.2842	16
536.4851	11
536.7570	8
536.9130	8
537.1025	12
537.4146	22
537.7307	15
537.9517	13
538.3696	12
538.5162	11
538.8732	14
539.2878	12
540.3253	14
540.8323	13
541.0667	13
541.3179	14
541.9951	22
543.1860	33
544.3034	42
550.2366	999
551.1733	871
552.0253	446
552.7576	244
553.4205	138
554.3153	65
555.2515	33
555.6265	30
