Mass spectrum: 4-Hydroxylutein; FAB-EBEB; MS2; m/z: 584.42; [M]*+
Name: 4-Hydroxylutein
Class: Natural Product; Carotenoid
Formula: C40H56O3
Exact mass: 584.42295
SMILES: C(O)(C2)C=C(C)C(C2(C)C)C=CC(C)=CC=CC(C)=CC=CC=C(C)C=CC=C(C)C=CC(C1(C)C)=C(C(O)C(C1)O)C
InChI: InChI=1S/C40H56O3/c1-28(17-13-19-30(3)21-23-35-32(5)25-34(41)26-39(35,7)8)15-11-12-16-29(2)18-14-20-31(4)22-24-36-33(6)38(43)37(42)27-40(36,9)10/h11-25,34-35,37-38,41-43H,26-27H2,1-10H3/b12-11+,17-13+,18-14+,23-21+,24-22+,28-15+,29-16+,30-19+,31-20+/t34-,35-,37-,38+/m0/s1
Instrument: JMS-HX/HX 110A, JEOL
Instrument type: FAB-EBEB
Ms type: MS2
Ion mode: POSITIVE
Collision energy: 3 kV
Ionization: FAB
Base peak: 584.5116
Precursor m/z: 584.42
Precursor type: [M]+*
m/z	relative intensity
0.0077	0
0.1062	0
0.1898	0
0.3490	0
0.8854	0
1.4474	0
1.8350	0
4.0078	0
4.2274	0
6.6838	0
7.9975	0
11.1136	0
12.9923	0
13.9879	1
14.0432	0
15.0031	2
16.6425	0
17.8036	0
19.3140	0
20.9488	0
22.7205	0
24.9609	0
25.4654	1
25.9679	3
26.9728	6
27.9827	2
28.9773	7
29.9925	0
30.9603	1
36.4228	0
36.9743	1
37.9854	4
38.7780	0
38.9721	8
39.9666	1
40.9994	6
41.3291	0
42.0054	1
42.3123	0
42.9882	5
44.0058	0
44.9432	0
48.3298	0
49.0267	0
49.9211	1
50.0101	0
50.8687	0
50.9840	2
52.0280	1
53.0004	2
55.0028	7
56.0427	0
57.0310	1
58.9984	1
61.0061	1
61.9641	1
62.9683	2
64.0310	0
64.8251	0
65.0023	1
66.0213	1
66.7159	0
66.8654	1
67.0207	3
68.0086	1
68.9978	4
69.6995	0
70.0038	0
70.9761	3
73.0023	0
73.9416	2
74.1230	0
74.7801	0
74.9777	3
75.5922	0
75.9429	1
76.6566	1
76.9780	17
77.1417	1
77.3055	2
77.9775	6
78.6715	0
78.9700	19
79.9808	3
80.7246	1
81.0023	29
81.4806	0
81.9673	1
82.0298	1
82.7391	0
83.0100	12
83.4658	0
83.8552	1
83.9797	0
84.2935	1
84.7341	1
85.0071	5
85.5868	1
85.8748	0
85.9572	1
86.6607	0
86.9779	2
87.9473	0
88.6906	1
88.9445	2
89.1986	1
89.4274	0
89.5785	0
89.7807	1
89.9460	2
90.1265	0
90.5413	1
90.9614	78
91.3039	0
91.7583	1
91.9939	6
92.4980	0
92.9940	68
93.2095	1
93.4747	1
93.6695	1
93.7609	0
94.0337	5
94.4062	0
94.9968	57
95.5316	1
95.6245	1
95.8140	1
95.9827	2
96.3972	0
96.8201	1
97.0003	13
97.2829	1
97.9631	2
98.8226	0
98.9737	2
100.2565	1
100.4186	0
100.6921	2
100.9327	2
101.6104	1
101.6814	0
101.9699	6
102.2398	1
102.3339	0
102.7251	4
102.9835	19
103.1502	1
103.2914	0
103.4226	0
103.6164	0
103.9766	9
104.4246	1
104.9859	182
105.1990	1
105.6707	3
106.0121	22
106.7032	5
107.0220	99
107.2630	2
107.3478	1
107.4809	1
107.7064	1
108.0118	7
108.5766	1
109.0159	69
109.6794	0
110.0010	3
110.3328	0
110.6459	1
110.7387	1
111.0104	15
111.7494	0
111.8677	1
111.9968	1
112.5995	1
112.7186	2
112.7972	1
112.9524	2
113.1280	2
113.2326	1
113.3347	0
113.5853	0
113.7198	0
113.9578	3
114.1229	1
114.2835	1
114.9508	84
115.2020	1
115.3438	1
115.5996	3
115.9619	28
116.2001	1
116.3103	1
116.4409	2
116.9605	96
117.2750	0
117.4722	1
117.6203	1
117.7275	1
118.0002	17
118.1982	1
118.4385	1
118.9859	214
119.4549	2
119.6207	1
119.9948	24
120.3581	1
120.6729	6
120.9955	104
121.2111	1
121.4081	1
121.6360	1
121.7439	1
121.9816	10
122.4147	1
122.9806	105
123.5662	1
123.6847	1
123.8251	1
124.0067	9
124.6222	0
124.7479	1
125.0079	12
125.2027	0
125.6455	1
125.8076	1
125.9852	3
126.1260	1
126.2190	0
126.3877	1
126.9346	32
127.1765	4
127.3182	4
127.9396	109
128.2401	1
128.9394	136
129.2605	1
129.3746	1
129.5102	1
129.9691	54
130.3568	1
130.9663	149
131.3681	2
131.5515	2
131.7089	2
131.9920	36
132.2478	2
132.5792	4
132.7616	8
133.0059	162
133.2934	1
133.5059	0
133.9728	16
134.5824	1
135.0003	83
135.2374	1
135.4132	0
135.6981	1
135.9930	10
136.1376	1
136.4741	1
136.5605	1
136.9967	39
137.3545	1
137.7668	2
138.0055	17
138.1741	1
138.3217	2
138.5874	2
138.9649	16
139.3195	1
139.5369	1
139.9982	6
140.1422	3
140.3190	1
140.9327	92
141.2269	1
141.5481	2
141.9722	102
142.1744	1
142.3668	2
142.9667	199
143.2753	2
143.5227	2
143.9886	57
144.9864	215
145.5079	2
145.5905	1
145.8167	4
146.0098	24
146.5337	1
146.6687	2
147.0090	86
147.3076	0
147.4931	1
147.9920	12
148.2631	2
148.3744	1
148.5037	1
148.5760	0
149.0078	32
149.2917	1
149.3773	1
149.5426	1
149.6514	1
149.8393	3
150.0165	7
150.3486	1
150.5080	1
150.6562	3
150.9997	18
151.1393	5
151.3640	1
151.5508	3
151.9492	39
152.2027	4
152.2998	1
152.9302	52
153.3657	2
153.5895	3
153.9853	30
154.3412	1
154.9801	117
155.5218	3
155.7488	5
156.0278	87
156.3884	1
156.5213	3
157.0117	157
157.3211	3
157.5136	1
158.0131	42
158.3315	1
158.6306	3
159.0355	98
159.3348	3
159.4988	1
159.6709	1
160.0347	13
160.2377	1
160.4930	1
160.7169	4
161.0413	44
161.5054	1
161.6751	2
161.7536	1
162.0267	3
162.3831	1
162.6463	2
163.0512	17
163.2849	2
163.3662	1
163.7216	2
163.8043	1
164.0382	8
164.2862	1
164.9688	87
165.4949	2
166.0105	32
166.2185	2
166.3605	1
166.6946	6
167.0307	89
167.2504	1
167.4775	1
168.0235	31
168.3553	3
169.0318	99
169.3110	2
169.4482	1
169.5915	1
170.0613	52
170.2659	1
171.0465	96
171.4055	2
171.6569	1
172.0532	21
172.2986	2
172.4713	2
172.5589	1
173.0520	57
173.3225	1
173.5837	1
173.7267	2
174.0514	11
174.4626	1
175.0705	36
175.2935	1
175.3907	1
175.4820	1
175.6455	1
176.0159	7
176.4155	1
176.5244	1
176.7029	2
177.0195	14
177.2570	1
177.9730	43
178.3223	1
178.5905	5
179.0179	83
179.4487	1
179.5775	4
180.0363	34
180.2112	4
180.4031	2
180.5367	3
181.0264	103
181.6132	2
182.0353	41
182.4481	2
182.6504	3
183.0504	97
183.3255	2
183.6346	2
183.8072	2
184.0695	29
184.3387	1
185.0465	47
185.6090	2
185.8505	3
186.0723	12
186.2928	1
186.7434	2
187.0573	26
187.2616	1
187.5619	1
187.7792	1
188.0293	5
188.2221	1
188.3120	1
188.5042	3
189.0099	33
189.4190	3
189.6373	1
189.9912	13
190.3071	1
190.5814	3
191.0154	29
191.6195	3
192.0374	28
192.3906	1
193.0013	62
193.3540	1
193.5419	1
194.0314	32
194.3719	2
195.0443	103
195.3098	1
195.4398	1
195.5438	1
196.0386	30
196.4829	2
197.0615	94
197.4328	1
197.5609	2
197.7342	1
198.0446	19
198.4291	1
198.6457	2
199.0769	35
199.3676	1
199.5946	2
199.7126	0
200.0384	10
200.4473	1
201.0450	16
201.6882	4
202.0323	14
202.3289	1
202.5789	3
202.7500	3
203.0214	25
203.4426	1
203.5842	1
203.8268	2
204.0193	10
204.1506	3
204.2324	1
204.4517	3
204.5727	2
205.0190	30
205.3217	2
205.4620	1
205.6161	1
205.7455	1
206.0448	28
206.3751	2
206.5190	1
207.0408	63
207.6150	2
208.0710	26
208.3837	0
208.6180	4
209.0680	72
209.3926	1
209.5511	1
210.0710	14
210.2737	1
210.3813	1
210.6426	3
211.0820	50
211.5877	2
211.7802	1
212.0984	9
212.4207	1
212.8018	4
213.0835	17
213.6615	1
213.7845	1
213.9095	0
214.1312	8
214.3765	2
214.9949	22
215.3371	0
215.4988	1
215.7546	1
216.0408	10
216.4709	1
217.0243	20
217.3390	1
217.7023	2
218.0670	14
218.3265	1
218.6290	1
219.0603	39
219.4550	1
219.6655	1
220.0700	18
220.3554	2
220.6651	2
221.0906	40
221.3151	1
221.4253	1
221.5750	2
221.6846	1
221.8038	2
222.1067	15
222.6746	4
223.1102	37
223.3793	1
223.6630	1
223.7615	1
223.8843	1
224.1522	9
224.4540	0
224.6858	1
225.1294	19
225.3613	2
225.4605	2
225.6244	2
225.7522	1
226.0778	8
226.3403	0
226.6362	2
226.7995	2
227.1163	11
227.4157	1
227.5665	0
227.6965	1
228.0843	9
228.3498	1
228.6529	1
228.7961	2
229.0964	18
229.4852	1
229.6215	1
229.8899	2
230.1160	10
230.4812	0
230.6544	2
231.1040	21
231.5793	1
231.7799	1
232.1248	10
232.5601	2
232.7392	2
233.1287	37
233.4600	1
233.6371	1
233.9128	1
234.1316	12
234.4436	1
234.6575	1
234.8146	1
235.1454	28
235.5269	1
235.6332	1
235.7723	2
235.8661	1
235.9919	1
236.1671	6
236.3214	1
236.5731	3
236.6621	1
237.1176	19
237.5961	3
237.8535	4
238.1374	6
238.3433	0
238.6007	2
238.7622	1
239.1359	17
239.6879	2
239.8424	1
240.1188	4
240.5379	1
240.6522	2
241.0930	6
241.3695	0
241.6739	1
241.7749	1
242.0794	6
242.5957	1
243.0940	18
243.4244	1
243.7290	1
243.8224	1
244.0894	8
244.2902	1
244.3941	1
244.7072	2
244.8160	3
245.1124	22
245.5986	2
245.7514	2
246.0988	12
246.6256	2
247.1246	18
247.6719	1
248.1047	6
248.5669	0
249.1214	15
249.4092	1
249.5426	1
249.8479	0
250.1245	5
250.3803	1
250.5487	1
250.7387	3
251.1266	9
251.2936	1
251.4872	0
251.5900	0
252.0639	7
252.1821	4
252.4198	1
252.5408	1
252.7610	1
253.1394	8
253.4247	1
253.7024	1
253.8311	0
254.1396	3
254.2669	1
254.4845	1
254.6783	1
255.1087	9
256.0998	11
256.5009	1
256.6605	1
256.8537	2
257.1240	12
257.4426	1
257.5210	0
257.7465	0
258.1176	8
258.3551	1
258.5974	0
258.8335	2
259.1291	20
259.5453	1
259.7254	0
259.8424	1
260.1276	7
260.4255	1
260.6308	1
260.7801	2
261.1376	17
261.3984	2
261.6669	1
261.7847	0
261.9895	1
262.1507	4
262.4810	0
262.6381	0
263.1291	12
263.4560	0
263.7001	0
263.8699	1
264.1176	5
264.3253	1
264.6249	0
265.1225	13
265.4790	1
265.6643	1
265.9079	0
266.1403	6
266.2758	1
266.7912	1
267.1317	10
267.7652	1
268.1684	3
268.4719	0
269.1085	6
269.3179	1
269.5870	2
270.2083	4
270.4213	1
270.7671	1
270.8873	2
271.1327	9
271.2747	4
271.6031	0
271.8098	0
272.1031	3
272.3049	1
272.5581	0
272.7339	2
273.1743	11
273.5534	1
274.2043	4
274.3619	1
274.8235	2
275.1858	8
275.6423	1
276.1656	3
276.6741	2
277.1750	7
277.9571	1
278.1588	5
278.4266	1
278.5236	1
278.6796	2
278.8181	1
278.9031	0
279.1541	7
279.3517	1
279.9626	1
280.2235	4
280.7164	1
280.8740	1
281.1560	5
281.4781	1
281.6505	2
281.8460	1
282.1971	4
282.5101	1
282.6706	1
283.1695	8
283.5966	0
283.8232	1
284.0992	4
284.2132	2
284.3934	0
284.6454	1
284.8017	0
285.1642	11
285.6205	1
285.7810	1
286.1972	4
286.4465	1
286.8226	1
286.9769	4
287.2051	8
287.3833	0
288.1512	4
288.2696	3
288.5388	1
288.8270	1
289.1519	9
289.9236	1
290.1788	3
290.4911	0
290.6864	2
290.8246	1
291.2024	11
291.9025	1
292.1955	6
292.3061	1
292.3878	1
292.8471	1
292.9901	1
293.1705	4
293.7983	1
294.0668	1
294.1676	1
294.2542	1
294.3586	1
294.6567	1
294.7293	0
294.8928	2
295.2297	4
295.3883	1
296.1032	3
296.7780	1
296.9338	1
297.1863	4
297.6390	1
297.8436	1
298.1920	1
298.4968	1
298.9179	2
299.0978	7
299.2516	10
300.2085	2
300.3390	1
301.0695	1
301.2255	3
301.3667	1
301.9540	1
302.1220	2
302.1976	1
302.6417	1
302.9241	1
303.1607	6
303.2694	4
303.9382	2
304.1515	2
304.3281	1
304.5993	1
304.8141	1
305.1525	4
305.3489	1
306.0752	1
306.1890	2
306.2759	1
307.0243	3
307.1564	2
307.3141	2
307.6781	2
308.1411	2
308.2740	1
308.6734	0
308.8572	0
309.0078	0
309.2108	5
309.3918	1
310.0148	1
310.1138	1
310.2198	2
310.2885	1
310.8543	1
311.1782	5
311.7187	1
311.9939	1
312.1411	1
312.2613	2
312.6540	1
312.8734	2
313.1380	6
313.3043	1
314.2244	0
314.7595	1
315.1991	4
315.5240	1
315.7966	1
315.9085	1
316.1981	1
316.7122	0
316.8829	1
317.1605	4
318.1691	2
318.2697	1
318.7620	1
318.9582	1
319.1686	3
319.2997	1
319.9984	1
320.1876	2
320.3031	1
320.4965	1
320.7935	0
321.1613	3
321.4207	1
321.8233	1
322.2394	2
322.7485	0
323.2093	2
323.3341	1
323.6780	0
324.3021	1
324.8666	1
325.1723	4
325.2737	1
325.7440	1
325.9334	1
326.2250	2
326.5719	1
327.0878	3
327.2772	4
328.0088	2
328.0961	1
328.3970	1
328.6483	0
329.1877	5
329.4283	0
329.5710	1
330.2071	2
330.8546	1
331.0890	3
331.1983	1
331.4333	1
331.6435	1
331.9027	1
332.1208	0
332.2557	3
332.4673	1
333.1790	5
334.0209	2
334.1111	1
334.2553	1
334.3882	2
335.1944	2
335.3662	3
336.0705	2
336.2296	2
336.3347	1
336.6663	2
336.8190	1
336.9930	0
337.2131	3
337.3445	1
337.5604	1
337.8658	1
337.9859	2
338.2849	1
338.4731	0
338.9768	1
339.2013	2
339.7164	0
339.9374	1
340.1527	2
340.3005	0
340.6060	1
340.9343	1
341.1148	2
341.3472	2
341.6422	1
342.1880	2
342.6842	2
342.8740	1
343.1584	4
343.3340	2
343.7797	0
345.2545	4
345.4622	1
345.7331	1
346.1620	1
346.6734	1
346.8832	2
346.9736	1
347.1024	2
347.2346	3
347.4922	1
348.2015	2
348.4100	1
348.5693	1
348.7145	1
348.8525	1
349.0098	1
349.2888	3
350.2787	3
350.5143	1
351.2951	4
351.5450	1
352.0839	1
352.2996	3
352.7325	1
352.9639	0
353.1397	2
353.3099	1
353.5164	1
354.1979	3
354.3852	1
354.6416	1
355.1580	1
355.2726	3
355.4044	2
355.6808	0
356.2336	1
357.2274	2
357.4226	1
357.8102	1
358.0931	1
358.2848	2
359.0694	1
359.2048	1
359.3695	2
360.2355	1
360.3424	2
361.3347	2
361.6997	1
362.1396	3
362.3494	1
362.5163	1
362.8799	0
363.0361	1
363.2343	1
363.3869	2
364.0659	1
364.2278	2
364.3514	2
364.6839	0
365.1421	2
365.3005	3
365.4425	2
365.5868	1
366.5821	1
366.7797	1
366.9005	1
367.1364	1
367.2358	1
367.7653	1
368.3992	0
368.9940	1
369.2094	2
369.4141	1
370.0318	1
370.3112	0
370.5444	1
371.0548	0
371.1700	1
371.3798	1
371.5333	0
372.1619	1
372.4250	1
372.5139	1
372.7215	1
373.1966	1
373.3900	1
373.5628	1
373.7228	1
373.8210	2
374.2079	2
374.3203	2
374.5685	1
374.7108	1
375.0160	0
375.3510	1
375.5936	1
375.7466	1
376.2268	5
376.3370	3
376.4978	1
376.6794	0
377.1379	1
377.3387	2
377.7730	1
378.1590	1
378.9338	1
379.1047	1
379.3682	2
380.2536	3
380.8306	0
381.1126	1
381.6192	0
382.0474	1
382.3338	0
383.1945	2
383.8636	1
384.0254	2
384.5392	1
385.1023	0
385.2976	0
385.4729	0
385.7609	0
386.0296	1
386.2292	1
386.7503	1
387.1552	1
387.3777	0
388.1598	1
388.3830	1
388.6604	1
388.9670	1
389.2380	2
389.6751	0
390.2264	4
390.3812	2
390.7613	0
391.0901	1
391.2578	2
392.0752	1
392.2207	1
392.7401	2
393.3144	0
394.0957	1
394.2819	1
394.5595	1
394.7165	1
395.1046	1
395.2452	2
395.4251	1
395.6456	0
397.2522	2
397.6633	1
399.3096	1
399.4424	1
399.6259	0
400.3684	1
400.8012	0
401.0540	1
401.1768	1
401.3303	1
401.4267	1
402.2416	1
403.3015	2
403.3758	1
403.7673	0
404.1244	1
404.4173	0
405.1810	1
406.3914	0
406.8258	1
407.0030	1
407.1009	1
407.3024	0
408.1886	2
408.6281	0
409.3681	1
410.2976	2
410.3997	1
410.4988	0
410.7863	1
411.4813	1
411.6133	1
411.7917	0
412.2448	1
412.4353	2
412.7271	1
413.2416	3
413.3829	2
413.5064	1
414.1480	1
414.2393	1
414.4670	1
414.5891	1
414.7946	2
415.1223	1
415.2386	1
415.3542	3
415.4785	1
415.6505	0
415.7932	1
415.9753	1
416.3193	1
416.9832	1
417.2424	1
417.4059	0
418.0214	0
418.1577	1
418.3326	3
418.9510	1
419.0638	1
419.2445	1
419.4287	4
420.4285	1
421.1191	1
421.3684	1
421.5041	1
421.7112	1
422.3491	1
423.0213	0
423.3878	1
423.5906	1
424.3972	1
424.5258	2
425.3532	2
425.8988	1
426.1407	1
426.4846	1
427.1631	1
427.4464	3
427.8446	1
428.3113	3
428.9772	2
429.2484	4
429.4511	4
429.8101	1
429.8879	0
430.2776	1
430.8793	1
431.2013	3
431.3954	1
431.5360	0
431.6852	0
432.1593	2
432.3742	2
432.5120	1
432.7333	1
432.9825	1
433.3180	3
433.4094	2
433.6921	1
434.9210	1
436.2986	1
437.3499	1
437.5899	1
438.7843	0
438.9378	1
439.4722	2
440.5360	1
440.7996	1
441.1876	1
441.3284	1
441.4634	2
441.6713	0
441.9414	1
442.1880	1
442.3130	1
442.7782	0
443.1041	1
443.2649	1
443.3907	1
443.5750	2
443.7280	1
444.0432	1
444.3526	11
444.6842	1
444.9565	2
445.3683	9
445.7271	2
445.9322	2
446.3347	23
446.5055	11
446.8329	1
447.0352	2
447.3684	1
447.5264	1
447.8423	1
448.2220	2
448.3750	1
448.8047	1
449.0321	1
449.1443	1
449.3553	1
449.4518	1
449.9151	1
450.2519	1
450.5852	1
450.8884	2
451.2574	2
451.3854	1
452.0820	3
452.2271	3
452.3480	2
452.4968	0
452.6799	1
453.0740	1
453.4309	2
453.6018	2
453.8200	1
454.0224	1
454.3100	1
454.5790	2
454.8258	1
454.9631	1
455.0840	1
455.3201	2
455.4446	5
455.9132	4
456.1943	7
456.4869	11
456.7517	11
456.9434	10
457.4271	9
457.6575	4
457.8643	6
458.0718	5
458.3036	5
458.5376	5
458.7781	2
458.8675	1
459.0836	1
459.1967	1
459.4007	3
459.5016	1
459.6526	1
459.8436	0
460.2623	1
460.5536	0
460.9478	1
461.2384	2
461.5332	1
461.9666	1
462.1587	1
462.2993	2
462.4500	1
462.6435	1
462.7491	1
462.8741	1
463.0383	2
463.2225	1
464.0944	1
464.6664	1
464.8071	1
466.3775	0
466.6089	0
466.9960	1
467.1125	1
467.5553	0
467.8274	1
468.2967	1
468.5003	2
468.7332	1
469.0003	1
469.1075	2
469.3604	1
469.5083	1
470.2220	1
470.3398	1
470.5435	2
470.7985	2
470.9907	1
471.1622	1
472.0110	1
472.3025	1
472.8970	1
473.0635	0
473.4165	2
473.5659	1
473.8982	2
474.3248	2
474.4878	3
474.6757	0
474.8087	1
475.2711	1
475.8042	1
476.3846	3
476.5941	1
477.4861	1
477.7685	2
478.1824	1
478.4104	1
478.5648	1
478.8129	1
479.0903	1
479.2497	1
479.3705	0
480.2270	1
480.9098	1
481.0929	1
481.2595	2
481.6964	1
482.4808	1
482.9527	1
483.4648	1
483.5606	1
483.8510	1
484.2915	1
484.4309	1
485.3021	1
485.7441	1
486.0066	1
486.3678	3
486.6310	1
487.3256	1
487.8879	2
488.0109	1
488.1282	1
488.2613	1
488.4144	2
488.5453	1
489.0008	0
489.3976	1
489.5506	1
489.7937	1
490.2635	1
490.4694	1
490.5716	1
490.7075	1
490.7983	0
491.2781	1
491.4919	2
491.6606	2
491.7393	0
492.4043	77
492.8263	4
493.0158	2
493.2146	2
493.3826	1
493.5464	1
493.8468	1
494.0678	1
494.3589	2
494.6400	1
494.8681	1
495.1742	1
495.7150	1
496.1084	1
496.7457	0
496.8995	1
497.2100	1
497.3902	2
498.0698	0
498.5463	1
499.2653	2
499.4377	2
499.7718	0
500.3743	9
500.7342	1
501.5219	1
501.8926	1
502.5803	2
503.3481	1
503.5908	0
504.0201	0
504.1626	1
504.2477	1
504.3386	0
504.5984	0
505.2125	1
505.4430	8
505.5482	2
505.6964	1
506.5617	1
506.7349	2
507.2303	1
507.5273	0
507.6998	1
508.1451	1
509.0206	1
509.5969	1
509.9148	0
510.0852	2
510.2964	5
510.4396	3
510.6802	1
511.1964	0
511.3310	0
511.4606	1
511.7291	1
512.3807	2
512.5597	1
513.4161	3
513.5866	0
513.9518	1
514.4531	0
514.6565	1
515.0045	2
515.3196	1
515.9134	1
516.0298	1
517.3353	1
517.6411	1
517.9833	1
518.4056	1
518.7136	1
518.9595	1
519.1796	0
519.3790	1
520.2380	0
520.5174	1
520.6217	1
520.9734	1
521.8124	0
522.0590	1
522.4193	1
522.6508	1
523.1791	1
523.7173	1
523.8738	0
524.1340	1
524.3813	1
525.3293	1
525.5444	1
526.3931	1
526.5525	1
526.8978	1
527.1316	1
527.3232	2
527.4304	1
527.5284	0
527.6671	1
528.0504	1
528.3871	9
528.6052	3
528.8661	1
529.2444	2
529.4354	0
529.9294	0
530.1854	1
530.3678	1
530.4808	1
530.8405	1
531.4047	1
531.5685	1
531.9597	1
532.0355	0
532.7513	1
533.2692	2
533.5116	1
533.7054	1
534.2061	1
534.4300	2
534.7339	1
535.0480	1
535.2862	1
535.4650	1
535.6639	1
535.8033	1
536.2111	1
536.6081	2
536.6954	1
536.7977	1
536.9908	1
537.2805	3
537.6182	1
537.7298	1
537.9094	1
538.0367	3
538.2284	1
538.3572	2
538.5661	1
538.8301	2
539.1434	2
539.3423	2
539.5920	1
539.7623	1
540.1158	1
540.4327	3
540.7025	1
541.0416	1
541.5396	3
541.7986	1
541.9203	1
542.1550	1
542.6158	0
542.8291	1
542.9515	0
543.2634	1
543.6163	1
543.8467	2
543.9548	1
544.2167	2
544.3419	1
544.4514	1
544.5773	0
544.7169	1
544.8629	2
544.9781	1
545.1649	1
545.2544	1
545.4576	1
545.8627	1
545.9730	1
546.0638	1
546.2142	1
546.4002	0
546.8647	2
547.1110	3
547.4474	3
547.8325	1
547.9420	2
548.2698	2
548.4488	3
548.5805	3
548.9470	1
549.0493	2
549.3765	2
549.6105	2
549.7523	1
549.9528	0
550.3414	2
550.4360	1
550.5527	2
551.3724	6
551.6058	2
551.7940	2
552.0110	1
552.1362	3
552.2358	1
552.3782	1
553.0176	1
553.4587	2
553.6635	1
553.9377	2
554.0164	1
554.3143	3
554.6000	4
554.8521	6
555.1470	7
555.4521	9
555.6053	7
555.9261	2
556.0801	2
556.2792	7
556.6000	7
556.8263	6
556.9258	5
557.0454	5
557.2746	4
557.5023	5
557.9528	6
558.3417	4
558.8466	6
559.3500	8
559.6116	1
559.8845	8
560.6517	6
560.7975	6
561.1604	6
561.6055	7
562.0263	11
562.6836	16
562.9008	12
563.7046	15
564.4391	14
566.2091	180
567.3389	20
567.9335	11
568.4559	15
568.7103	10
569.4379	20
570.0225	7
570.5657	8
570.9860	7
571.3098	10
572.2405	10
573.0560	10
573.4950	11
573.8474	14
574.2384	8
574.4421	8
574.6459	10
574.8260	12
575.2242	9
575.7612	11
576.1894	10
576.8422	14
577.7952	19
584.5116	999
585.0935	377
585.8527	174
586.6163	95
587.2869	53
588.0612	33
588.6225	21
589.8452	13
590.1948	9
590.7797	7
590.9678	4
591.1880	5
591.8016	4
592.2900	5
592.5052	2
592.6912	3
592.9529	3
593.4013	2
