Mass spectrum: Pectenolone; FAB-EBEB; MS2; m/z: 580.39; [M]*+
Name: Pectenolone
Class: Natural Product; Carotenoid
Formula: C40H52O3
Exact mass: 580.39165
SMILES: CC(=C1C=CC(=CC=CC(C)=CC=CC=C(C)C=CC=C(C#CC(=C2C)C(C)(C)CC(C2)O)C)C)C(=O)C(O)CC1(C)C
InChI: InChI=1S/C40H52O3/c1-28(17-13-19-30(3)21-23-35-32(5)25-34(41)26-39(35,7)8)15-11-12-16-29(2)18-14-20-31(4)22-24-36-33(6)38(43)37(42)27-40(36,9)10/h11-20,22,24,34,37,41-42H,25-27H2,1-10H3/b12-11+,17-13+,18-14+,24-22+,28-15+,29-16+,30-19+,31-20+/t34-,37+/m1/s1
Instrument: JMS-HX/HX 110A, JEOL
Instrument type: FAB-EBEB
Ms type: MS2
Ion mode: POSITIVE
Collision energy: 3 kV
Ionization: FAB
Base peak: 580.3072
Precursor m/z: 580.39
Precursor type: [M]+*
m/z	relative intensity
0.0180	0
0.4907	0
0.6339	0
0.7233	0
0.9547	0
2.1771	0
2.9842	0
3.9301	1
4.3476	0
4.3892	0
4.6658	1
5.8261	0
6.6898	1
6.8052	0
7.2640	0
7.3678	0
7.9767	0
8.3656	0
11.5551	0
13.0475	0
13.8419	0
14.3999	0
14.6966	0
14.8262	0
14.9814	0
15.9959	0
18.9572	0
19.4500	0
19.7236	0
20.2437	0
21.2965	0
22.3707	0
22.9265	3
23.2367	0
23.4521	0
23.9335	0
25.9461	2
26.9544	15
27.9656	1
28.9651	16
29.8008	0
29.9464	1
30.9430	1
31.9452	0
32.7314	0
33.2658	0
34.1375	0
35.0235	0
35.9272	1
35.9700	0
36.9354	2
37.0533	0
37.1933	1
37.4168	0
37.9281	6
38.6774	0
38.9343	44
39.9482	4
40.3032	1
40.7597	0
40.9527	90
41.9320	2
42.3536	0
42.9421	63
43.9352	0
44.9435	1
46.3891	0
48.3401	0
48.9193	1
49.1257	0
49.5074	1
49.9260	14
50.5317	0
50.9266	36
51.9352	11
52.9425	64
53.9560	5
54.9465	102
55.9659	9
56.5659	0
56.7540	0
56.9628	24
57.9189	1
58.8212	0
58.9582	6
59.9309	0
60.3982	0
60.9146	2
61.1570	0
61.5584	0
61.9208	9
62.5438	0
62.9194	26
63.1088	0
63.2827	1
63.6818	0
63.9406	7
64.2299	1
64.3218	0
64.6788	0
64.9431	45
65.4417	0
65.9407	10
66.1589	0
66.4378	0
66.5248	1
66.9506	69
67.1794	0
67.9446	2
68.9549	124
69.2350	0
69.6108	1
69.9642	7
70.2826	0
70.9279	15
71.1267	0
71.9029	1
72.8765	1
73.2288	0
73.5293	0
73.8945	6
74.1040	0
74.8955	12
75.0364	1
75.1732	1
75.3771	2
75.4540	0
75.6045	0
75.7404	1
75.9400	7
76.1742	1
76.2589	1
76.5402	1
76.9188	145
77.1432	1
77.3226	2
77.5930	0
77.9188	26
78.0610	1
78.2509	0
78.4873	2
78.5997	1
78.9295	113
79.1493	0
79.4932	0
79.6030	0
79.7211	1
79.9337	13
80.1447	1
80.2435	0
80.4559	1
80.9420	110
81.2106	0
81.3612	0
81.9538	4
82.9351	30
83.3530	0
83.8348	1
83.9423	1
84.3398	0
84.9342	21
85.3010	0
85.4251	0
85.6075	0
85.8885	3
86.9131	8
87.8601	2
88.1366	0
88.4006	1
88.9073	17
89.1857	1
89.4346	0
89.5794	1
89.9025	8
90.0736	1
90.3079	1
90.4384	1
90.9269	284
91.1921	1
91.3308	1
91.5396	0
91.6175	0
91.9330	28
92.1378	1
92.2396	0
92.9384	128
93.1999	0
93.4548	0
93.6799	0
93.9424	11
94.3545	1
94.4855	1
94.6001	1
94.9514	57
95.2158	0
95.4926	0
95.9213	4
96.5966	1
96.9506	26
97.2870	0
97.4028	0
97.7482	0
97.9333	4
98.0586	0
98.2858	0
98.5044	1
98.6849	0
98.8889	3
99.7875	1
99.9510	1
100.1537	0
100.3533	1
100.4910	0
100.9099	5
101.2117	2
101.3627	1
101.5485	0
101.6803	1
101.9284	18
102.1698	1
102.3422	1
102.4761	1
102.6000	0
102.9314	50
103.1652	1
103.3622	0
103.4389	0
103.9420	26
104.2586	1
104.3680	0
104.5579	1
104.9450	285
105.3104	1
105.4820	1
105.9587	31
106.2859	1
106.4232	1
106.6748	0
106.9585	100
107.1775	1
107.4883	1
107.9535	10
108.3626	0
108.9593	51
109.1711	1
109.3930	1
109.5999	1
109.9491	4
110.9444	25
111.2528	0
111.4496	0
111.8384	2
111.9457	1
112.2957	1
112.5042	1
112.9038	5
113.0815	3
113.4714	2
113.8918	9
114.3024	2
114.9169	150
115.1765	0
115.3453	1
115.4596	1
115.9208	60
116.3161	1
116.6087	1
116.9255	135
117.1801	1
117.5042	1
117.5998	1
117.9228	28
118.1657	1
118.3187	1
118.9319	264
119.3034	2
119.3948	0
119.4938	0
119.9328	31
120.2768	1
120.4290	1
120.9339	90
121.2412	0
121.4256	0
121.6287	1
121.9306	11
122.1742	0
122.6097	1
122.9287	27
123.2446	0
123.4623	1
123.9410	9
124.3531	0
124.9200	18
125.1285	1
125.2418	1
125.3590	1
125.4724	0
125.5600	1
125.6424	1
125.9053	7
126.0755	1
126.2644	1
126.4050	2
126.5385	2
126.8946	50
127.1463	4
127.5459	2
127.9019	169
128.1888	2
128.4202	1
128.5230	2
128.9014	171
129.1770	2
129.4683	1
129.5797	1
129.9074	79
130.2074	0
130.4789	1
130.9140	155
131.2305	0
131.5245	2
131.9237	46
132.2907	1
132.4375	1
132.9126	176
133.1389	2
133.2507	1
133.6092	2
133.9007	24
134.2034	0
134.4196	1
134.5720	1
134.9219	84
135.8967	13
136.5464	1
136.9174	57
137.3142	1
137.5751	0
137.9178	9
138.3490	2
138.9160	37
139.1570	1
139.8733	11
140.0909	2
140.2661	2
140.5685	2
140.8992	151
141.3259	2
141.9078	134
142.1969	2
142.4296	1
142.9102	211
143.2075	3
143.3135	2
143.4122	1
143.9163	73
144.2206	2
144.3424	3
144.4873	1
144.9182	195
145.2603	1
145.4232	2
145.4990	1
145.5900	1
145.9106	31
146.2933	0
146.5295	3
146.9204	143
147.2229	2
147.5684	1
147.9213	18
148.3140	0
148.4866	1
148.9232	26
149.2653	1
149.3527	1
149.4884	1
149.9042	8
150.1234	2
150.2148	1
150.3672	3
150.5633	1
150.9225	34
151.3840	3
151.9060	70
152.4874	4
152.9030	85
153.2464	2
153.3906	3
153.5560	2
153.9149	41
154.9110	154
155.3675	2
155.9334	92
156.2284	2
156.9406	185
157.2233	2
157.3826	2
157.6326	1
157.9474	43
158.5553	2
158.9471	111
159.3284	2
159.5334	1
159.9509	24
160.3379	2
160.5651	2
160.9583	66
161.3168	3
161.5161	1
161.9698	13
162.1893	1
162.4250	1
162.9500	34
163.4974	2
163.6321	1
163.9491	11
164.1958	2
164.3668	3
164.9342	140
165.3026	2
165.4475	1
165.9382	52
166.3411	2
166.9437	100
167.2844	1
167.4410	1
167.9546	38
168.1873	2
168.3736	2
168.9628	132
169.3728	1
169.5835	3
169.9789	62
170.4611	1
170.9757	108
171.3131	1
171.4186	0
171.9558	27
172.4743	2
172.9722	71
173.3060	2
173.6392	2
173.9522	15
174.3900	2
174.5975	0
174.9741	40
175.2363	2
175.3893	2
175.9556	13
176.1774	2
176.4628	1
176.9553	18
177.4311	2
177.9333	71
178.1974	3
178.3757	2
178.5175	1
178.9411	101
179.4500	1
179.9604	47
180.1916	2
180.3235	3
180.9580	121
181.1989	5
181.4114	3
181.5907	1
181.9563	53
182.2237	2
182.3497	1
182.9572	110
183.2160	2
183.4647	1
183.9493	39
184.3392	2
184.5901	1
184.9516	56
185.2609	1
185.3769	1
185.5092	2
185.9449	19
186.2259	1
186.3169	1
186.9579	44
187.2920	2
187.4286	1
187.9354	17
188.2093	3
188.2929	1
188.4819	1
188.9415	47
189.2502	2
189.8773	17
190.2162	2
190.3802	2
190.4843	2
190.9268	61
191.2971	3
191.9237	50
192.3562	2
192.9314	97
193.2177	1
193.4290	1
193.5606	2
193.9438	46
194.3134	2
194.4737	1
194.9424	112
195.3177	3
195.5047	1
195.9628	39
196.3417	2
196.9523	94
197.3936	4
197.5036	2
197.9690	22
198.2697	1
198.9596	51
199.2755	1
199.4205	1
199.9439	19
200.2805	1
200.5508	2
200.6419	3
200.9588	34
201.2805	3
201.4791	2
201.9242	38
202.1482	4
202.3345	1
202.5195	2
202.9478	58
203.2938	1
203.3918	0
203.9149	21
204.2893	1
204.4038	0
204.9559	60
205.3243	1
205.5096	1
205.9426	30
206.2748	1
206.4869	2
206.9579	82
207.3225	1
207.4475	2
207.9352	33
208.3076	2
208.3907	1
208.9646	73
209.3791	2
209.5399	1
209.9587	25
210.3569	4
210.9732	53
211.3475	2
211.4913	2
212.0103	10
212.1528	3
212.9831	41
213.2496	2
213.6326	2
213.9819	10
214.2430	2
214.3367	2
214.9542	65
215.2706	1
215.9553	24
216.2477	4
216.3421	2
216.4808	1
216.9637	48
217.3535	1
217.4487	1
217.5750	3
217.9739	20
218.2921	1
218.4640	1
218.5744	1
218.9722	48
219.4521	2
219.9653	25
220.4185	2
220.9997	60
221.2513	1
221.3916	3
221.9944	19
222.4287	1
223.0021	48
223.3272	1
223.4669	2
223.6773	1
224.0115	13
224.3637	0
224.5935	1
225.0130	36
225.5912	2
225.9942	14
226.2893	1
226.4347	0
226.9993	21
227.1345	11
227.3964	1
227.5281	2
227.9993	14
228.4180	1
228.5387	1
228.9928	38
229.3874	1
229.6253	2
229.9964	20
230.2417	1
230.4617	0
231.0098	38
231.4084	2
232.0003	22
232.2676	2
233.0176	49
233.3120	1
233.5073	2
234.0152	19
234.2279	2
234.4191	1
235.0096	38
235.3292	1
235.5538	1
235.7660	2
236.0489	12
236.3845	1
236.4885	1
237.0122	37
237.4340	1
238.0210	10
238.2271	4
238.4429	2
239.0204	30
239.4557	2
240.0078	11
240.3828	2
240.5029	1
241.0038	24
241.4011	1
241.9973	15
242.2267	1
242.4373	1
242.5693	1
242.9954	29
243.2415	1
243.4661	0
244.0057	14
244.2811	3
244.5461	2
244.9962	30
246.0064	23
246.3530	1
247.0164	29
247.3081	1
247.4591	1
247.9939	10
248.5336	2
249.0184	35
249.3626	1
249.5159	0
249.6949	0
250.0141	9
250.2238	2
250.4873	2
251.0309	26
251.2206	4
251.4185	2
251.9882	16
252.3180	2
253.0120	18
253.3852	1
253.5101	3
253.6098	1
253.9803	5
254.2001	2
255.0236	23
255.3454	1
255.5660	2
256.0212	12
256.2501	3
256.4385	1
256.5600	1
257.0291	19
257.4493	1
257.5582	1
258.0233	13
258.2404	4
258.3396	2
258.5491	2
259.0366	23
259.3286	1
259.5305	1
260.0133	12
260.2956	1
260.5583	2
261.0224	26
261.4173	1
261.5438	1
261.6563	1
262.0192	8
262.3590	2
263.0576	21
263.3604	1
263.5276	0
264.0144	8
264.3355	0
264.5762	1
265.0373	15
265.4747	1
265.5866	0
266.0346	8
266.1963	3
266.4987	1
266.5694	0
266.7073	2
267.0448	20
267.3564	1
267.5027	1
267.8837	3
268.0777	10
268.5217	0
269.0471	18
269.4219	1
269.6875	2
269.8557	2
270.0589	9
270.3735	1
270.4744	1
270.6637	3
271.0674	15
271.6121	2
272.0573	8
272.1414	4
272.3581	2
272.5081	1
273.0453	23
273.3610	1
273.5714	1
273.7467	2
274.0463	7
274.4204	1
275.0473	20
275.5916	1
276.0302	10
276.4071	1
277.0442	17
277.3231	1
277.5628	0
277.8432	3
278.0921	6
278.2098	3
278.4868	0
279.0161	17
279.4116	2
279.6269	1
279.9951	6
281.0375	20
281.5076	1
282.0233	7
282.1897	1
282.4521	2
283.0508	19
283.3387	1
283.5450	1
283.9972	7
284.2506	2
284.7077	2
285.0469	12
285.4185	0
285.5280	1
285.6657	1
286.0583	6
286.3850	2
286.4967	1
287.0243	13
287.2436	3
287.3616	2
288.0503	8
288.4186	1
288.5310	1
289.0652	14
289.4821	3
289.5609	1
290.0369	6
290.2738	3
290.3533	1
290.4594	1
290.6216	1
291.0444	10
291.3913	1
291.6112	0
292.0677	4
292.1907	1
292.3508	2
292.4759	0
292.7288	2
293.0541	10
293.4300	1
293.5769	1
293.7083	0
293.9043	2
294.1412	6
294.3485	2
294.6915	1
295.0683	12
295.6503	2
296.1038	5
296.3781	1
296.5088	0
297.0363	21
297.5201	1
297.6573	1
297.7522	0
298.0533	5
298.2770	2
298.4275	0
298.6224	2
299.0804	18
299.4167	1
299.6440	1
299.8389	2
300.0008	3
300.1514	3
300.3252	1
300.5863	1
301.0776	9
301.6084	1
301.8125	3
302.0582	7
302.4652	1
302.6708	0
303.0545	9
303.3207	1
303.5665	1
303.7665	2
304.0525	4
304.1750	2
304.2476	1
305.0443	7
305.2331	3
305.4255	0
305.7130	1
306.0561	4
306.1604	2
306.2520	1
306.4888	3
307.0314	9
307.3528	0
307.5530	1
307.7384	2
307.8188	1
308.0641	5
308.2974	1
308.4426	1
308.7373	0
309.0335	7
309.4347	1
309.7675	2
310.0468	5
310.5595	1
310.7203	0
311.0638	10
311.5795	1
311.7432	0
312.0726	4
312.3528	0
312.6025	1
313.0605	8
313.2785	2
313.5354	1
313.6744	1
313.9716	1
314.1565	1
314.2511	0
314.5405	0
314.6908	1
315.0572	9
315.4201	1
315.6467	1
315.7745	0
316.0379	5
316.2928	1
316.4509	1
316.6282	1
317.0731	7
317.2398	3
317.3443	1
317.8599	2
318.1431	4
318.3169	1
318.4207	1
319.0481	7
319.5787	1
319.6917	1
320.0323	4
320.2387	2
320.5136	1
320.7779	1
321.0860	5
321.5391	1
321.9703	2
322.1541	2
322.2948	1
322.5160	1
323.0540	7
323.4585	1
323.5914	0
323.7767	0
323.9401	3
324.2067	2
324.4231	0
324.6310	0
325.0271	5
325.1445	2
325.5674	1
325.7542	1
326.0478	3
326.3605	1
326.7383	1
327.1182	6
327.4678	1
327.7260	2
327.9207	3
328.1089	5
328.2603	0
328.4217	0
328.5767	1
328.9242	6
329.1613	9
329.6696	0
329.8006	0
330.0504	4
330.2112	4
330.3237	1
331.0693	6
331.2930	1
331.5225	0
332.1003	5
332.4835	0
332.6740	2
333.0777	8
333.3837	0
333.5573	1
333.7528	1
333.9242	1
334.0984	4
334.5013	1
334.8243	4
335.0187	4
335.2011	6
335.4782	2
335.8155	1
336.0764	4
336.2545	1
336.4257	1
336.5735	0
336.7347	2
336.9574	4
337.2007	2
337.3654	1
337.6158	1
337.8365	1
337.9602	2
338.1781	2
338.6272	1
338.7631	1
339.0283	4
339.1938	5
339.2915	1
339.3940	0
339.6289	1
339.7994	1
340.0732	2
340.3258	0
340.4928	1
340.6909	2
341.0469	4
341.2563	3
341.4007	0
342.0171	2
342.1764	2
342.3696	1
342.5933	1
343.0824	5
343.2516	3
343.7641	1
344.0275	2
344.2363	1
344.8318	1
345.1086	7
345.3912	1
345.7616	1
346.0923	6
346.4259	1
346.6617	2
346.7899	1
347.1249	5
347.4947	1
347.6633	1
347.7773	1
348.1372	2
348.3987	1
348.5439	1
349.0994	7
349.2871	3
350.0730	2
350.3005	0
350.5223	0
351.0836	9
351.4458	1
351.5833	0
351.9229	2
352.0356	2
352.2993	2
352.4801	1
352.7275	1
353.0848	3
353.4471	1
353.8222	2
354.0370	2
354.2356	1
355.0398	3
355.2518	3
356.0760	3
356.1753	1
356.2895	1
356.8322	1
357.2131	6
357.3096	3
357.4380	0
357.5984	1
357.9914	3
358.1887	0
358.3235	0
358.5605	0
358.7478	0
359.0934	4
359.3070	1
359.5050	1
359.6987	0
360.0025	3
360.2310	3
360.4099	2
360.5078	1
360.6782	0
361.1183	9
361.6335	1
362.0720	4
362.3296	2
362.5056	1
362.6986	1
363.0499	8
363.2082	3
363.3757	1
363.9535	3
364.2090	3
364.8103	1
365.0836	4
365.7233	2
366.0925	2
366.3175	1
366.6328	1
366.8068	0
367.0624	3
367.2321	1
367.6590	1
367.8820	0
368.0574	1
368.2037	1
368.8600	1
368.9630	0
369.1796	2
369.4439	1
369.9070	2
370.1465	2
370.5692	1
371.1013	6
371.2690	2
371.4545	1
371.5447	1
371.6406	1
372.0308	2
372.2454	2
372.3839	0
373.1387	9
373.2979	4
373.5836	1
374.0555	5
374.1977	3
374.3456	1
374.8730	2
375.1048	4
375.2519	2
375.5384	1
375.6435	0
375.7862	1
376.1027	4
376.3838	1
377.1021	17
378.0818	6
378.8741	1
379.1545	3
379.3200	1
379.4535	1
379.5649	1
379.8752	1
380.0158	1
380.1834	1
380.3247	1
380.5016	1
380.8716	1
381.0349	1
381.1762	0
381.7458	0
382.0136	1
382.1621	2
382.3177	1
382.7566	2
382.9506	1
383.1374	2
383.2859	1
384.1270	1
384.2372	1
384.4787	1
384.6464	0
385.0919	4
385.2184	1
385.3079	1
385.6995	1
386.0470	2
386.3185	1
386.9808	3
387.1365	3
387.2758	1
387.6233	1
387.9411	1
388.0768	1
388.2254	1
388.5524	0
389.0891	5
389.5768	1
389.8619	0
389.9828	2
390.2259	5
390.4528	1
391.0998	3
391.3323	2
391.7092	1
391.9012	1
392.0278	0
392.2021	1
392.7532	1
392.9076	2
393.1999	2
393.5001	1
393.7810	0
394.0243	3
394.2555	1
394.6496	1
394.8310	1
395.0138	1
395.1440	1
396.0191	3
396.1337	2
396.3934	1
396.8573	1
397.1611	4
397.3305	1
397.5845	1
397.9838	1
398.1553	2
398.2919	3
398.6435	0
399.0684	3
399.1887	1
399.3752	3
399.8991	1
400.1468	4
400.2450	2
400.3845	0
400.8793	1
401.1292	6
401.3314	3
401.4581	2
401.7500	1
402.0227	4
402.3359	1
403.1249	1
403.2523	1
403.4225	1
403.6981	1
404.1097	1
404.2237	2
404.3191	1
404.5185	1
405.1531	2
405.4117	1
406.1111	1
406.1766	1
406.6447	1
406.9061	1
407.0094	0
407.2473	1
407.6755	0
407.7565	0
407.9987	1
408.0833	1
408.2409	1
408.5144	0
409.0188	2
409.2375	1
409.4635	0
409.5736	2
409.6716	1
409.7690	1
410.0503	3
410.2371	1
410.5490	0
411.0826	2
411.3022	1
411.5978	1
411.9133	2
412.0980	3
412.3126	5
412.5727	1
412.7874	1
413.2159	6
413.4632	1
413.7326	1
414.0304	2
414.2258	3
414.5570	1
414.7184	1
414.8058	1
415.0347	6
415.1968	3
415.3795	1
415.5046	1
415.6553	1
416.1685	3
416.3228	1
416.7345	1
416.8376	1
417.1696	3
417.3999	2
417.5670	0
417.8301	0
418.0349	2
418.2219	2
418.4089	1
418.6706	1
418.7751	1
419.0724	3
419.2359	2
419.5488	1
419.7771	1
419.9122	1
420.8759	1
420.9869	1
421.0964	1
421.2081	1
421.3958	2
421.8518	1
422.0510	1
422.2018	2
422.5034	0
423.0760	3
423.2440	1
423.4738	1
423.6865	1
423.8110	1
423.9874	1
424.0927	1
424.2194	1
424.9890	1
425.2009	2
425.3375	1
426.1539	8
426.5914	0
426.9605	4
427.1049	6
427.2308	2
427.6434	0
428.0645	3
428.1663	2
428.8065	1
429.1003	3
429.3010	1
429.3935	1
429.5493	1
429.7257	1
430.1292	4
430.3497	2
430.7823	1
431.0890	2
431.2975	1
431.4341	1
431.6270	1
431.9373	2
432.1408	2
432.3465	1
432.5799	1
432.7166	1
433.0888	4
433.4140	2
433.6496	1
433.9336	2
434.2205	1
434.4198	1
434.6369	0
434.8376	1
435.0519	1
435.1508	0
435.3089	1
435.5067	1
435.5794	1
435.7310	1
435.9524	0
436.0984	4
436.2535	1
436.5291	1
436.6907	0
436.9626	1
437.1727	2
437.3706	1
437.8178	2
438.0606	1
438.3824	0
438.6017	2
438.7378	2
438.9941	3
439.1664	0
439.3316	1
439.5702	1
439.7248	1
439.9655	1
440.1008	3
440.4825	1
440.6249	1
440.8792	2
440.9782	3
441.0844	1
441.3158	1
441.5986	0
441.8265	1
442.0609	7
442.1983	4
442.4420	1
442.7290	2
442.9962	3
443.1821	4
443.5946	0
443.8810	1
443.9985	3
444.1289	2
444.2977	2
444.4431	0
444.5357	0
444.8798	1
445.0444	2
445.2332	2
445.3550	1
446.0690	2
446.2963	0
446.5279	1
446.7481	1
446.8671	1
447.0317	0
447.2341	2
447.5291	1
447.7280	0
448.1620	3
448.2732	1
448.3922	1
448.6630	1
448.8027	1
449.0322	1
449.1648	2
449.4171	2
449.5853	2
449.8070	1
450.1178	1
450.4178	1
450.5554	1
450.6460	1
450.7686	1
450.9917	1
451.2084	2
451.5755	3
451.9840	1
452.1958	2
452.3954	3
452.6827	3
452.8838	3
453.1704	3
453.3237	2
453.5725	2
453.7066	1
454.0217	2
454.3825	1
454.5651	0
454.7562	1
454.9009	2
455.1028	1
455.2803	2
455.5905	1
455.8651	1
456.1596	2
456.3850	2
456.6453	1
456.7616	1
457.0561	2
457.1296	1
457.3050	2
457.5076	2
457.7886	4
457.9384	1
458.1103	1
458.2694	1
458.3799	2
458.4798	1
458.6695	2
458.8322	2
459.0390	2
459.3408	3
459.5684	1
459.7359	1
459.9582	3
460.0451	1
460.2090	1
460.3886	1
460.7706	1
460.9680	1
461.1768	3
461.3784	1
462.1488	2
462.3306	1
462.3947	0
462.9008	1
463.1495	3
463.3562	2
463.7283	0
464.0326	2
464.2258	1
464.4161	1
464.8274	0
465.0399	2
465.2316	2
465.3221	1
465.7385	3
466.1398	4
466.2646	4
466.4343	1
466.5555	1
466.7337	3
466.8392	2
467.1002	4
467.2905	2
467.5429	3
467.7440	2
468.0991	2
468.3743	2
468.6360	2
468.9968	2
469.2878	2
469.3854	1
469.6065	1
469.8183	1
470.0358	2
470.2105	1
470.3539	3
470.6256	0
470.8074	2
470.9765	0
471.1940	2
471.4272	0
471.5677	1
471.6675	0
471.9379	1
472.0456	0
472.2003	3
472.7560	1
473.1411	2
473.4122	2
473.6754	1
473.9643	3
474.2375	5
474.4009	1
474.6156	1
474.7226	1
474.9616	1
475.1956	3
475.3633	3
475.4674	1
475.6351	0
475.8498	1
476.0054	1
476.2465	2
476.5911	1
476.9193	1
477.0542	0
477.3296	1
477.4859	1
477.9454	0
478.1102	1
478.3964	2
478.8324	1
478.9922	1
479.1342	2
479.4104	1
479.6338	1
479.8622	0
479.9621	0
480.1933	3
480.3646	1
480.8335	1
481.0169	1
481.2553	2
481.4573	1
481.6471	1
481.8763	2
482.1782	5
482.3695	1
482.6357	1
483.1075	2
483.2917	1
484.2440	2
484.4132	1
484.6067	1
484.7623	1
484.8944	1
485.1050	1
485.6397	1
485.7697	1
485.8711	2
485.9539	1
486.2059	3
486.3894	1
486.6943	1
486.9542	1
487.2112	5
487.4246	3
488.2319	73
488.8168	1
488.9643	2
489.0933	2
489.2700	2
489.4738	1
489.6740	0
489.9334	0
490.1586	1
490.3432	2
490.5847	2
490.6873	1
490.9425	2
491.2069	2
491.3523	3
491.4713	1
491.6373	1
491.9488	1
492.0820	1
492.2296	1
492.5239	1
492.6600	1
493.1668	3
493.5018	1
493.6614	2
493.8297	1
493.9230	1
494.1055	1
494.2352	1
494.3700	1
494.5211	1
494.6180	1
494.7670	1
494.9039	1
494.9880	1
495.1077	0
495.2460	1
495.3437	1
495.4898	1
495.6274	1
495.7643	2
495.8484	1
496.3396	3
496.4550	1
496.6540	1
496.8500	1
496.9584	1
497.1651	0
497.6414	0
498.0920	1
498.4100	1
498.5276	1
499.0011	0
499.1843	1
499.3982	1
499.4980	0
499.6813	1
500.1705	6
500.4186	1
500.5655	1
500.6953	2
501.2016	8
501.4270	5
501.8563	1
502.1359	1
502.3156	4
503.0616	1
503.2271	2
503.3405	2
503.7349	1
504.0880	1
504.2969	1
504.6593	1
505.0552	0
505.3669	2
505.7043	1
506.1473	3
506.3399	2
506.5040	0
506.6224	2
506.8949	1
507.0683	1
507.2352	2
507.3629	0
507.6561	1
507.8359	2
508.2996	3
508.5957	2
508.9889	4
509.1729	2
509.3235	1
509.4333	1
509.6068	0
509.8686	3
510.0812	1
510.1933	1
510.3181	1
510.5843	3
510.8205	2
510.9746	3
511.2222	2
511.3664	2
511.4684	2
511.7738	1
512.1349	3
512.2720	1
512.4004	1
512.5845	1
512.7344	1
512.8657	1
512.9799	1
513.3353	1
513.4531	3
513.6030	2
513.7686	2
514.1305	0
514.2651	2
514.7870	1
514.8824	1
515.3218	1
515.8338	1
515.9819	1
516.1407	2
516.2902	1
516.4006	1
516.7353	1
516.9191	2
517.0458	1
517.1548	2
517.2317	1
517.3976	1
517.4973	0
517.7260	1
518.1447	1
518.3683	1
518.5272	1
518.6447	1
518.7479	1
519.0086	2
519.1511	2
519.2978	1
519.4987	1
519.6539	2
520.1575	4
520.3569	1
520.7444	1
521.1184	3
521.2858	2
521.4575	1
521.6313	1
521.7232	1
521.9490	3
522.3301	4
522.6528	2
522.7690	0
523.0839	3
523.3140	2
523.4265	2
523.6452	1
523.8383	1
524.2188	11
524.4560	9
524.5671	2
524.6690	1
524.9675	4
525.0474	1
525.2177	1
525.4300	2
525.7556	1
525.9067	1
526.0214	1
526.1304	1
526.2657	1
526.3904	1
526.5957	3
526.8380	2
526.9584	0
527.1572	0
527.5007	1
527.8348	1
528.1456	0
528.5397	1
528.7499	1
529.0172	1
529.1518	3
529.2751	1
529.3856	1
529.7120	2
529.9678	1
530.3791	1
530.6349	1
530.8687	2
531.0397	1
531.5416	1
531.9150	3
532.1730	3
532.3962	2
532.5644	1
532.7041	1
532.9130	3
533.0242	2
533.2102	3
533.4904	1
533.6892	1
534.2495	10
534.3928	5
534.5896	3
534.6879	1
534.8256	1
535.2647	9
535.4999	3
535.7744	0
535.9634	4
536.2336	5
536.5216	3
536.6357	2
536.8353	3
537.2075	7
537.5226	5
537.7322	3
537.9733	4
538.1765	3
538.3782	3
538.5194	1
538.8973	3
539.0385	2
539.1996	1
539.3202	1
539.5719	5
539.7316	1
539.8821	3
540.1581	4
540.4247	2
540.5496	3
540.6929	2
540.7999	1
540.9318	1
541.2598	3
541.5800	3
541.7669	2
542.1292	4
542.3588	2
542.4829	2
542.5956	1
542.7610	3
542.9964	4
543.2275	1
543.4072	2
543.5285	2
543.7104	2
544.0969	5
544.3558	1
544.5092	2
544.6768	1
544.9900	2
545.1305	2
545.2574	2
545.4964	3
545.6298	0
545.7653	1
546.0913	3
546.3217	2
546.5357	3
546.7347	2
547.2098	8
547.4930	3
547.6971	4
547.9325	4
548.2278	4
548.4676	2
548.6024	1
548.7322	1
548.9177	2
549.3536	4
549.5441	2
549.7875	3
549.9744	5
550.2940	8
550.4560	6
550.6393	4
550.8663	5
551.2901	18
551.7681	5
552.2591	11
552.5916	5
552.8171	3
553.0568	4
553.2338	3
553.6384	4
554.0131	6
554.5583	7
555.0414	4
555.5945	9
555.8629	5
556.2297	12
556.4938	9
556.9913	8
557.7750	10
558.8054	14
559.3113	9
559.8265	12
560.6581	14
561.5497	17
562.3130	74
563.2937	16
565.3058	124
565.7856	11
566.2760	9
566.5861	6
566.8577	9
567.1271	11
567.3403	10
567.7053	8
568.0525	9
568.5508	9
569.2701	12
569.6544	11
570.6547	13
573.5660	16
580.3072	999
580.9820	446
581.6875	224
582.4205	114
583.2282	64
583.8188	35
584.7662	19
