Mass spectrum: Amarouciaxanthin B; FAB-EBEB; MS2; m/z: 596.39; [M]*+
Name: Amarouciaxanthin B
Class: Natural Product; Carotenoid
Formula: C40H52O4
Exact mass: 596.38656
SMILES: CC(C)(C=1C#CC(C)=CC=CC(C)=CC=CC=C(C=CC=C(C(CC(O)(C=2C)C(CC(C2)=O)(C)C)=O)C)C)CC(CC(C)1)O
InChI: InChI=1S/C40H52O4/c1-28(17-13-18-30(3)21-22-36-32(5)23-34(41)25-38(36,7)8)15-11-12-16-29(2)19-14-20-31(4)37(43)27-40(44)33(6)24-35(42)26-39(40,9)10/h11-20,24,34,41,44H,23,25-27H2,1-10H3/b12-11+,17-13+,19-14+,28-15+,29-16+,30-18+,31-20+/t34-,40-/m1/s1
Instrument: JMS-HX/HX 110A, JEOL
Instrument type: FAB-EBEB
Ms type: MS2
Ion mode: POSITIVE
Collision energy: 3 kV
Ionization: FAB
Base peak: 596.4753
Precursor m/z: 596.39
Precursor type: [M]+*
m/z	relative intensity
0.0013	0
0.0320	0
0.1758	0
0.5679	0
1.2527	0
2.0690	0
2.2560	0
2.6967	0
4.4888	0
5.1212	0
7.7882	0
8.7808	0
10.5747	0
11.9753	1
12.0391	0
12.9751	1
13.9729	0
14.9789	1
15.6488	0
16.6049	0
18.0156	0
18.1967	0
18.3881	0
20.6961	0
24.9374	0
25.9660	1
26.9636	13
27.7098	0
27.9537	0
28.9700	14
29.9663	0
30.9510	2
36.9449	2
37.9553	3
38.2447	0
38.9539	29
39.2482	0
39.9728	4
40.9735	46
41.9661	5
42.3614	1
42.9538	91
43.9645	1
44.9587	1
46.0050	0
48.8661	0
48.9497	1
49.9541	6
50.9566	20
51.1439	0
51.5795	0
51.9641	7
52.9698	37
53.7248	0
53.9726	3
54.9813	59
55.9976	3
56.9945	19
57.2229	0
58.0102	1
58.9801	5
59.8620	1
59.9816	1
60.0913	0
60.8036	0
60.9410	1
61.9584	7
62.9540	17
63.1077	1
63.2350	1
63.4697	1
63.9527	3
64.9641	33
65.4830	1
65.6654	1
65.9700	8
66.9748	54
67.1931	1
67.9567	6
68.9761	71
69.8708	0
69.9774	1
70.9738	24
71.3377	0
71.5405	0
72.9817	1
73.9300	7
74.9330	13
75.1693	1
75.3629	0
75.5050	0
75.9639	7
76.5331	0
76.9575	97
77.1646	0
77.3022	1
77.3802	0
77.6650	0
77.9643	25
78.3331	0
78.4724	0
78.6822	1
78.9664	76
79.1647	1
79.9775	10
80.4714	1
80.6330	1
80.7201	0
80.9845	57
81.8339	0
81.9758	4
82.9771	47
83.4439	1
83.9799	2
84.9801	47
85.3225	1
85.9363	4
86.9495	9
87.4237	1
87.5537	0
87.8382	1
87.9775	3
88.1503	1
88.3627	1
88.5436	0
88.9587	25
89.1728	1
89.3773	2
89.6209	1
89.7236	1
89.9705	5
90.1826	0
90.3380	0
90.5878	2
90.9669	251
91.2569	1
91.5114	2
91.9817	23
92.2158	0
92.4709	0
92.9822	102
93.1577	1
93.2791	0
93.4436	1
93.9863	12
94.1054	1
94.4456	2
94.9856	115
95.1612	1
95.3485	1
95.5260	1
95.9754	22
96.1866	0
96.9847	21
97.7766	1
97.9675	5
98.8371	0
98.9686	3
99.3638	0
99.5354	1
99.6121	0
99.8350	1
99.9942	1
100.1128	2
100.5253	0
100.6359	2
100.7648	1
100.9625	7
101.1001	1
101.4069	1
101.5967	0
101.9571	19
102.1119	1
102.6132	2
102.9674	48
103.4438	1
103.5859	1
103.9772	26
104.2070	1
104.2844	0
104.5187	0
104.9902	256
105.2033	2
105.3522	0
105.4488	0
105.7834	1
106.0019	18
106.4557	1
106.6074	0
107.0009	180
107.2389	1
107.4580	1
107.7938	1
107.9957	18
108.2285	1
108.3919	1
108.4945	0
108.9937	112
109.3246	0
109.5524	0
109.7085	1
109.9636	9
110.2253	1
110.3390	1
110.9886	170
111.2672	0
111.9459	3
112.2677	0
112.5360	1
112.7631	2
112.9685	11
113.1165	1
113.3796	3
113.7570	4
113.9628	7
114.1903	1
114.3905	2
114.5977	1
114.9510	158
115.3243	2
115.4261	1
115.6042	1
115.9638	54
116.2896	1
116.4454	1
116.5770	2
116.9711	122
117.2730	0
117.4163	0
117.6425	0
117.7331	1
117.9749	19
118.2135	2
118.5836	0
118.9808	236
119.3416	1
119.5872	1
119.7077	1
119.9812	19
120.9759	90
121.5187	0
121.9493	15
122.3570	1
122.5680	1
122.6606	1
122.9676	39
123.4711	0
123.9509	10
124.6590	1
124.9857	78
125.1799	1
125.4015	0
125.9496	11
126.1689	0
126.2996	2
126.4545	1
126.9272	65
127.3656	3
127.9432	168
128.2753	2
128.5010	4
128.9534	187
129.2832	1
129.4440	1
129.5930	1
129.9643	70
130.2762	1
130.4967	2
130.9620	124
131.2599	2
131.4531	0
131.6123	1
131.9708	32
132.2258	1
132.3222	1
132.9704	103
133.3320	1
133.4791	1
133.9593	12
134.2156	1
134.4444	1
134.5489	1
134.9606	140
135.2856	1
135.5654	1
135.6924	1
135.9644	8
136.9536	31
137.9509	48
138.2059	1
138.3592	2
138.4417	0
138.9454	80
139.1523	1
139.8966	7
140.1415	3
140.3223	3
140.9469	157
141.2424	3
141.4532	1
141.5686	1
141.9572	113
142.2730	2
142.4164	1
142.5524	0
142.9647	187
143.3094	1
143.4775	1
143.9633	56
144.2046	2
144.3535	1
144.4639	1
144.6043	1
144.9742	142
145.2550	1
145.3549	0
145.5193	1
145.9582	22
146.3146	1
146.6365	1
146.9705	123
147.3033	1
147.5848	1
147.9859	26
148.2829	0
148.4111	0
148.9862	103
149.9440	10
150.3467	2
150.6532	3
150.9711	54
151.1873	2
151.4826	3
151.9475	85
152.2986	2
152.9698	380
153.3595	4
153.5829	2
153.9769	73
154.2193	2
154.4308	1
154.5906	1
154.9668	153
155.2128	2
155.3270	1
155.5703	4
155.9805	82
156.3282	2
156.4440	1
156.9938	161
157.2395	2
157.3499	1
157.5566	1
157.9884	43
158.3752	2
158.9906	95
159.2577	2
159.4944	1
159.6314	1
160.0011	21
160.1699	1
160.3582	1
160.5749	0
160.6776	1
160.9990	110
161.2686	2
161.3969	1
161.6970	1
162.0045	5
162.4839	1
162.9885	24
163.3343	2
163.5807	2
163.9700	11
164.2280	4
164.4339	3
164.9718	166
165.2402	1
165.3995	3
165.9819	56
166.3177	2
166.5212	1
166.9983	112
167.4233	1
167.5957	1
167.9998	50
168.2451	1
168.3633	2
168.5855	2
169.0151	122
169.3333	1
169.4373	0
170.0168	44
170.3397	1
170.5690	1
171.0231	96
171.3762	1
171.5120	1
172.0160	24
172.2272	1
172.4454	1
172.5963	0
173.0238	75
173.6521	1
174.0195	15
174.1964	2
174.3726	2
174.5503	1
174.7987	3
175.0213	26
175.2678	0
175.4932	2
175.9728	20
176.4798	2
176.9903	26
177.3122	3
177.9793	101
178.2351	3
178.3771	1
178.5327	2
178.9900	145
179.3000	1
179.4673	2
179.9960	57
180.2570	4
180.3971	1
180.5830	2
181.0034	137
181.2673	4
181.4814	1
182.0122	55
182.3857	1
182.5253	1
183.0209	107
183.2537	3
183.4879	1
183.6837	1
184.0180	30
184.3372	1
184.5017	1
185.0171	55
185.2940	1
185.5909	2
186.0079	11
186.2198	1
186.3296	0
186.5320	1
186.7516	1
187.0267	33
187.2347	2
187.3178	1
187.4407	1
187.9234	7
188.4193	3
188.5669	2
188.9771	53
189.4348	2
189.9711	28
190.3520	3
190.9925	91
191.2622	1
191.4542	2
191.9814	69
192.2809	3
192.4241	1
192.9964	142
193.3512	0
193.5145	2
194.0079	57
194.3498	3
195.0042	138
195.3697	1
195.5339	1
196.0079	44
196.2584	1
196.5137	2
197.0129	79
197.4382	1
197.6247	2
198.0011	14
198.2865	1
198.5193	2
198.6119	2
199.0058	41
199.4365	1
199.6418	3
199.8126	1
200.0319	13
200.2283	1
200.9893	23
201.3719	3
201.5374	3
201.9735	49
202.2719	3
202.9720	59
203.3544	2
203.9940	30
204.2082	3
204.3454	1
204.9957	78
205.2939	1
205.4867	2
205.5797	2
206.0028	53
206.2596	2
206.4025	2
206.6475	4
207.0188	115
207.3423	4
207.6242	2
208.0186	40
208.2825	2
208.4353	4
208.5993	1
209.0259	92
209.4039	2
210.0281	27
210.2318	3
210.3291	2
210.4584	0
211.0343	44
211.3480	1
211.4600	1
211.6986	1
212.0374	10
212.3847	2
213.0244	29
213.4777	2
213.6239	2
213.9854	7
214.2139	3
214.5831	13
215.0089	65
215.4068	2
215.6466	3
216.0014	46
216.3103	1
217.0119	66
218.0123	35
218.4283	3
219.0272	82
219.3951	1
220.0418	50
220.2891	3
220.4428	1
220.5958	1
221.0500	76
221.4972	3
221.5944	2
222.0536	26
222.3144	2
222.5850	3
223.0683	52
223.5719	1
223.8125	3
224.0602	14
224.3324	1
224.4451	2
224.5858	1
225.0582	35
225.3627	3
225.4517	1
225.5714	1
226.0454	19
226.2717	4
227.0191	25
227.4710	2
227.6875	3
228.0358	15
228.4564	1
229.0432	52
229.3027	1
229.5103	2
230.0538	29
230.4151	1
231.0628	77
231.6186	1
232.0897	35
232.3867	2
232.6534	3
233.0819	67
233.3726	1
233.5540	2
234.0884	27
234.7610	3
235.0911	59
235.3890	1
235.7079	3
236.0928	18
236.5366	3
237.0955	44
237.3537	2
237.6020	2
238.0769	10
238.5288	2
239.0587	42
239.3956	3
239.5845	2
240.0513	15
240.1833	6
240.3491	1
240.5394	1
241.0598	31
241.5972	1
242.0553	18
242.5515	1
242.7194	3
243.0596	42
243.4399	1
244.0720	29
244.5805	3
245.0686	52
245.3993	3
245.6103	1
246.0761	33
246.3963	0
246.4942	0
246.6363	2
247.0798	61
247.4916	2
247.5712	1
247.6507	1
248.0873	28
248.3626	1
248.6105	1
249.0930	43
249.4854	2
249.6581	1
249.8159	3
250.1076	11
250.5466	1
251.0894	19
251.4404	3
252.0489	14
252.4636	2
253.0483	27
253.3107	1
253.4214	0
253.5795	1
253.7502	0
254.0840	16
254.3302	2
254.4707	0
255.0677	35
255.2873	2
255.5809	1
256.0730	14
256.3647	1
256.5920	1
257.0772	51
257.4474	1
257.5449	1
258.0860	20
258.3439	1
258.5792	1
258.6901	1
259.0717	55
259.4463	3
259.5912	1
260.0817	22
260.5222	1
261.0998	45
261.6147	3
261.7455	2
262.0935	13
262.4069	2
263.0931	34
263.3839	0
263.5226	2
263.8411	2
264.1313	11
264.4470	2
264.5886	1
265.0785	23
265.3850	1
265.6378	1
266.0769	13
266.2766	2
266.4430	1
266.6109	1
267.0770	29
267.4950	2
267.7118	1
268.1200	11
268.5452	2
268.6713	1
269.1157	31
269.4602	2
269.6396	1
269.7701	1
270.0934	21
270.4188	3
270.7365	3
271.1067	47
271.5032	1
271.8160	2
272.1161	15
272.4531	3
272.6930	2
273.1201	31
273.5013	1
273.8348	3
274.1351	13
274.3736	1
274.5121	2
274.6618	1
275.1340	27
275.4670	2
275.5863	1
275.9073	3
276.1424	12
276.3676	1
276.5267	1
277.1147	18
277.4976	2
277.7408	0
278.1131	5
278.7153	2
278.8195	1
279.1260	18
279.5140	1
279.6396	1
279.7786	1
280.1178	12
280.4392	0
280.5641	1
281.1184	30
282.0838	12
282.5012	1
283.1126	26
283.4684	3
283.5458	2
283.7723	1
284.1069	15
284.4862	2
284.7810	4
285.1192	28
285.6592	0
285.7786	1
286.1481	8
286.4515	1
286.6634	2
287.1282	23
287.4773	0
287.6123	1
287.7211	0
288.1363	8
288.2657	3
288.4343	0
288.6632	2
289.1361	15
289.6418	1
289.7834	1
290.1263	6
290.3703	1
290.6193	1
290.7673	1
291.1358	14
291.4696	0
291.7151	1
292.1079	7
292.4482	1
292.8695	3
293.1344	25
293.4088	0
293.5979	1
293.7344	1
294.1531	10
294.4453	1
294.6878	0
295.1280	19
295.5034	2
296.0980	10
296.4025	2
296.6102	3
297.1046	25
297.5585	1
297.6531	1
297.7634	0
298.1199	13
298.4473	1
298.6523	1
299.1263	26
299.5377	1
299.7256	2
300.1072	8
300.4141	2
300.4931	1
300.7480	2
301.1354	16
301.3918	1
301.5677	0
301.7649	1
302.0804	7
302.4651	1
302.6560	1
303.1390	15
303.5643	1
303.7125	1
304.0260	5
304.1493	1
304.5698	0
304.7080	0
305.1086	11
305.4428	1
305.6382	3
306.0638	6
306.2769	1
306.4979	1
306.7795	1
307.1411	19
307.4256	2
307.6374	1
308.0638	4
308.3498	1
308.5082	1
309.0974	12
309.4476	1
309.6253	0
309.7558	1
310.0662	8
310.2674	4
310.5222	3
311.1073	19
311.4263	0
311.5655	1
311.8424	1
312.1387	7
312.2843	3
312.8461	4
313.1538	23
313.7386	0
314.0914	6
314.2328	6
314.4442	1
315.1076	16
315.4205	0
315.6169	1
315.7741	0
316.1370	3
316.3235	2
316.6650	3
316.7528	1
317.1516	10
317.4174	1
317.6611	1
317.8654	2
318.1435	4
318.2414	1
318.6888	1
318.8882	4
319.1613	9
319.4501	0
319.6553	1
319.8354	2
320.0842	6
320.2537	3
320.4124	3
320.5554	1
321.1275	9
321.3463	2
321.8276	2
322.1209	3
322.3870	1
322.4928	1
322.5987	0
323.1087	10
323.4987	1
323.9723	2
324.1769	6
324.3523	1
325.1180	9
325.5996	1
325.8430	1
326.1257	4
326.4335	1
326.5817	2
326.7571	2
327.1308	17
327.3427	1
327.4408	1
327.5497	0
327.7101	2
327.8576	3
328.1075	4
328.3259	1
328.6080	1
328.7076	1
328.8558	1
329.1752	13
329.6422	1
329.8406	0
330.0949	4
330.3185	3
330.6279	1
330.7841	1
331.1495	16
331.4898	1
332.1032	4
332.6113	2
333.1754	18
333.4886	1
333.6377	1
333.7230	0
334.1667	5
334.3051	3
334.4033	1
334.5897	1
334.7954	1
335.1633	7
335.5892	1
335.7369	1
335.8796	1
336.1542	4
336.2690	3
336.6405	1
336.8054	1
337.1848	11
337.4000	1
337.5611	0
338.1771	6
338.6248	1
339.2043	9
339.5618	2
339.9530	0
340.1923	5
340.5248	1
340.6946	1
341.1690	7
341.4930	1
341.6664	0
341.8033	1
342.0656	3
342.3351	2
342.4864	1
342.6419	1
343.1753	12
343.4491	1
343.6728	1
344.0464	3
344.1632	2
344.3733	1
344.5591	1
344.6537	0
344.8423	1
345.1557	8
345.3837	1
345.5781	2
345.7875	2
346.1935	11
346.4101	1
346.8282	2
347.2092	9
347.4165	2
347.6166	2
347.8319	2
348.2035	4
348.3779	2
348.5221	1
348.6319	1
349.1779	5
349.3337	3
349.6121	1
349.7535	1
350.0750	3
350.2659	4
350.6758	0
351.1653	8
351.5802	1
352.0720	4
352.2371	4
352.4798	1
352.7404	1
353.1842	8
353.6991	1
353.7960	1
353.8987	2
354.2499	5
354.5250	2
354.7210	1
355.1577	10
355.3107	3
355.5966	2
355.7310	0
355.9357	0
356.1447	2
356.2812	2
356.5269	2
357.1513	6
357.4732	1
357.7570	2
358.1465	3
358.6812	2
358.8975	1
359.2001	7
359.3992	3
359.8405	1
359.9785	1
360.2912	5
360.6873	1
360.8527	2
361.1093	2
361.2948	2
361.5616	1
361.7233	1
362.1986	3
362.4208	0
362.7825	1
362.9580	2
363.2212	6
363.5563	1
363.7224	1
363.8972	1
364.1116	2
364.2288	1
364.3978	1
364.5654	2
364.7920	1
364.9474	4
365.1981	7
365.5852	2
365.6973	1
365.9854	1
366.1980	3
366.5313	2
366.6139	1
366.9258	2
367.2138	8
367.3604	3
367.5472	0
367.6823	0
368.0732	1
368.2536	4
368.3578	2
368.5288	1
369.1864	11
369.6097	1
369.7412	0
370.0043	1
370.1660	3
370.2437	1
370.7763	1
371.1760	8
371.3830	3
371.5081	2
371.9157	2
372.2637	3
372.6527	1
372.8008	1
373.2208	9
373.4854	1
373.6343	2
373.8630	1
374.1542	4
374.3405	3
374.6318	2
374.9411	1
375.0446	1
375.1806	3
375.3281	5
375.5194	1
376.0596	1
376.3423	2
376.4452	1
376.7819	1
377.1611	2
377.3913	1
377.6136	1
378.0346	1
378.1591	2
378.3145	2
378.5311	1
378.6909	1
378.7988	1
378.9370	1
379.1644	5
379.5428	2
379.6729	2
379.9288	2
380.1187	1
380.2725	2
380.4860	2
380.6708	1
380.7909	0
381.2568	8
381.5659	3
381.8198	3
382.2217	4
382.4396	3
383.2199	9
383.3731	5
383.5199	2
383.7773	1
384.1024	3
384.2183	1
384.4139	1
384.6038	1
385.1865	13
385.3448	8
385.5534	2
385.7066	2
386.2390	5
386.4016	2
386.5470	1
386.8801	2
387.0370	2
387.2298	2
387.4277	1
387.7983	1
387.9984	1
388.1416	1
388.3568	1
388.7605	1
388.8987	1
389.1067	1
389.2867	1
389.4342	1
389.6178	2
389.8776	1
390.4261	0
390.6802	1
390.9236	2
391.1035	1
391.2900	2
391.6356	0
392.0294	2
392.1029	1
392.2419	1
392.3945	0
392.9396	1
393.0281	0
393.2629	3
393.3493	1
393.7591	2
393.8909	1
394.0320	1
394.1804	3
394.2740	1
394.3691	0
394.6334	0
395.2406	8
395.5914	1
395.8853	0
396.1129	2
396.2246	4
396.4191	1
396.6359	2
396.7426	1
396.9781	1
397.2663	6
397.5480	1
397.7577	1
397.9220	1
398.2289	2
398.3846	1
398.7355	0
399.2731	12
399.5066	2
399.6399	1
399.8582	1
400.2763	13
400.3952	6
400.5970	1
400.7375	1
400.9509	3
401.2738	16
401.4655	7
401.8051	1
401.9492	0
402.0876	2
402.3003	2
402.5043	1
402.8122	1
402.9931	1
403.2022	3
403.7069	1
403.9780	1
404.2852	0
404.3926	1
404.4993	1
404.6255	1
404.7135	1
404.9327	1
405.2176	3
405.3517	1
405.6719	1
405.8918	1
406.1414	1
406.3556	0
406.5201	1
406.7963	1
407.1656	2
407.8004	1
408.3601	1
408.6162	1
408.8464	0
409.2699	10
409.5678	1
409.8514	1
410.2317	5
410.3767	3
410.7678	1
410.8912	2
411.2556	7
411.5825	1
412.2558	4
412.4567	2
412.6439	1
412.7504	1
412.9326	1
413.2587	14
413.5619	2
413.6627	1
413.8419	1
414.0104	2
414.3021	9
414.7025	1
414.8458	1
415.2930	24
415.6415	0
415.8374	1
416.1046	0
416.2991	1
416.4108	1
416.5001	1
416.8796	1
417.2484	4
417.4264	1
417.6230	1
417.7570	0
418.2548	3
418.4565	1
418.5329	1
419.0271	1
419.3246	1
420.0898	1
420.4523	1
420.6519	2
421.0006	1
421.2744	5
421.4633	1
421.7133	1
421.9814	1
422.2848	2
422.4225	1
422.6142	1
422.7202	1
422.9537	1
423.2398	2
423.4770	1
423.7220	2
423.9022	0
424.1141	3
424.3513	6
424.4760	2
424.5921	0
424.7737	2
425.3087	34
425.7643	1
425.9294	2
426.2286	7
426.4341	6
426.6006	1
426.7427	2
427.2654	19
427.6426	3
428.2793	25
428.5670	2
428.7495	1
428.8981	2
429.2778	24
429.4363	11
429.7078	1
429.9066	0
430.2301	1
430.3792	2
430.5470	1
431.0859	0
431.2264	0
431.3935	2
431.7588	1
432.0182	1
432.1284	1
432.3460	1
432.4670	1
432.6515	1
432.7718	1
433.0679	0
433.3252	3
433.4729	0
433.9146	0
434.0227	1
435.1419	1
435.6500	0
435.9600	2
436.3484	1
436.4890	0
436.6079	0
436.8501	1
437.1377	1
437.2538	1
437.4138	1
437.6906	1
438.1282	1
438.4433	1
438.8095	1
438.9176	1
439.0618	0
439.2399	2
439.4137	2
439.6494	1
439.8535	2
440.1902	3
440.3972	3
440.6077	1
440.7014	1
440.8190	1
441.1911	11
441.3050	6
441.5394	1
441.6389	0
442.2735	41
443.2840	131
443.7463	3
444.3075	65
444.6407	3
444.8276	2
445.0043	2
445.2510	1
445.4335	2
445.5591	1
445.6918	0
445.8505	2
446.0403	1
446.1881	2
446.2964	2
446.5222	1
446.6657	0
446.8432	1
446.9572	0
447.6816	1
447.7906	1
449.0440	1
449.2634	1
449.4452	0
449.5636	0
450.2355	0
450.3582	0
451.2668	1
451.9186	1
452.1438	1
452.2478	1
452.3994	0
453.2267	1
453.7183	1
454.3933	1
455.1911	1
455.5413	1
455.8633	1
456.9840	1
457.1718	3
457.3957	1
458.0557	1
458.2681	1
458.4421	1
459.2438	1
459.7949	1
460.0441	1
460.5209	0
460.8438	1
461.3307	0
461.4889	1
461.7786	0
462.0350	1
462.2872	1
463.1693	1
463.4359	2
463.5573	0
464.6606	1
465.3000	0
465.6233	1
466.2093	1
466.4064	1
466.5818	0
467.0964	2
467.4017	1
467.6414	1
467.8204	1
468.0773	2
468.2917	1
468.4671	2
468.6339	1
468.8432	2
469.1501	3
469.3175	2
469.5435	2
469.6922	1
469.8546	1
470.0821	1
470.3189	2
471.1643	1
472.2936	1
472.4677	0
472.7609	1
473.0945	1
473.1949	1
473.4469	1
474.0839	1
475.0487	1
475.1896	0
475.7407	1
476.2246	1
476.5880	1
476.7230	1
477.1658	1
477.8470	0
478.9827	1
479.1763	1
479.2797	1
479.7897	1
480.0968	1
480.4169	1
481.1590	2
481.3635	2
481.4813	1
481.6901	3
481.9907	2
482.1678	2
482.4684	3
482.6830	1
482.8644	1
483.1130	1
483.2684	1
483.3956	1
483.5770	1
483.7743	0
484.0193	1
484.2932	2
484.4927	1
484.5946	0
484.9618	1
486.1696	1
486.4559	2
486.5397	1
487.1173	1
487.9689	1
488.3376	1
488.5618	0
489.2559	0
489.4359	2
490.2110	1
490.4648	1
491.9277	1
493.1310	1
493.8140	1
494.4370	2
494.6392	1
495.0890	0
495.5150	1
495.8934	1
496.0956	1
496.2407	1
496.3678	3
496.4675	1
497.2575	1
497.5333	1
498.0786	0
498.3509	2
498.4801	1
499.2002	1
499.3208	0
499.4544	3
499.5902	2
499.8986	1
500.1666	0
500.4057	0
500.5812	0
501.0160	2
501.1685	1
501.4711	3
501.6307	1
501.8648	1
502.1313	1
502.3611	2
502.6038	1
503.1933	2
503.3580	1
503.4881	2
504.3247	4
504.5552	3
504.6932	1
505.1346	1
505.2741	1
505.4779	1
505.8782	1
505.9670	1
506.2004	2
506.3934	1
506.6586	1
506.8457	1
506.9245	1
507.2150	1
507.5120	3
507.6471	1
507.7816	1
508.2758	2
508.5115	1
508.8287	1
509.2472	1
509.4250	1
509.5623	1
509.9837	1
510.2114	2
510.8503	1
511.0382	0
511.3086	1
511.4734	1
511.6461	1
512.3474	2
512.6459	1
512.8570	1
513.1389	1
513.3637	3
514.2833	2
514.5566	1
515.0070	1
515.3143	1
516.0453	1
516.1415	1
516.5450	1
516.7901	1
517.3411	3
517.5269	5
517.8914	2
518.0563	1
518.1662	1
518.3347	2
518.5212	2
519.1179	1
519.2654	2
519.4556	1
519.6499	2
519.8375	1
519.9818	1
520.2198	2
520.3988	0
520.6124	0
520.8396	0
521.6730	1
522.3636	2
522.6104	1
522.8802	1
523.3262	1
523.6062	0
523.9742	0
524.1857	1
524.3762	2
524.5782	2
524.7897	1
525.0510	2
525.3419	1
525.4883	1
525.7193	1
525.8636	1
525.9589	1
526.5406	0
526.8417	1
526.9427	0
527.1008	1
527.2249	2
527.4003	0
527.8529	0
528.1171	1
528.3734	2
528.5394	0
528.7812	1
528.9617	1
529.1450	1
529.2909	3
529.6554	2
529.8345	1
530.2070	2
530.3737	1
530.6510	1
530.8264	1
530.9924	1
531.1080	1
531.2769	1
531.7051	1
531.7989	1
532.0300	0
532.1527	1
532.2877	2
532.5065	1
532.6653	0
532.8488	2
532.9462	1
533.3643	1
533.5455	2
533.6582	1
533.7701	2
533.9001	2
534.0243	1
534.1362	1
534.3146	2
534.7117	2
534.8489	1
534.9269	0
535.4656	2
535.5848	1
535.7422	1
535.9365	2
536.4066	2
536.7988	1
536.9880	1
537.1686	2
537.3477	3
537.5160	4
537.7543	1
537.9060	0
538.0259	3
538.2686	0
538.4362	3
538.6146	0
538.8045	2
538.9172	1
539.1519	1
539.3751	1
539.5659	1
539.7009	0
539.9927	1
540.1560	2
540.3243	3
540.4637	2
540.7823	1
540.8675	1
541.1528	1
541.3869	1
541.4982	1
541.6238	1
541.7178	0
541.8500	1
542.4373	1
543.2219	1
543.4885	0
543.6771	0
543.8570	0
544.0651	0
544.2053	1
544.3309	1
544.6257	0
544.9964	1
545.1959	1
545.3830	4
545.5549	5
545.8389	1
546.0825	1
546.3101	2
546.5623	1
546.7306	0
546.8571	2
547.0717	1
547.4540	1
547.5674	2
547.7214	1
547.9757	0
548.2019	1
548.4288	1
548.7237	2
549.0374	2
549.1581	2
549.3351	1
549.4782	2
549.6863	2
549.8511	1
550.0123	2
550.2588	2
550.4221	1
550.7069	4
550.8702	2
551.0235	1
551.2577	3
551.4456	4
551.7398	3
552.1185	4
552.3217	3
552.4742	3
552.5884	3
552.7575	3
552.9354	2
553.0503	1
553.3929	5
553.8137	4
554.1078	5
554.3103	3
554.4086	1
554.5568	2
554.9205	6
555.1547	3
555.3882	4
555.6014	4
556.0605	4
556.2579	3
556.6122	3
556.7604	4
556.8855	2
557.0106	1
557.1761	2
557.4357	2
557.5897	3
557.8283	5
557.9961	4
558.1718	3
558.2911	2
558.4401	5
558.5499	2
558.8204	1
559.0431	3
559.1884	2
559.3714	4
559.5919	5
559.8277	3
560.0699	6
560.2558	4
560.3968	2
560.6036	2
560.8018	1
560.9934	2
561.1851	2
561.4461	4
561.7101	2
561.8959	3
562.0695	2
562.3313	2
562.5389	3
562.7197	1
562.9135	2
563.4017	16
563.8074	6
563.9485	3
564.1962	1
564.9405	2
565.1347	2
565.2928	4
565.4271	3
565.8220	6
566.1829	8
566.5858	6
567.1092	8
567.6521	9
568.0441	7
568.3546	9
568.7813	12
569.0174	9
569.3972	10
569.8340	9
570.2175	11
570.5872	12
570.8710	8
571.4212	18
572.8381	16
574.1460	17
578.4739	397
579.2830	23
579.7504	16
580.9360	12
581.4727	64
581.7191	30
581.9778	19
582.3115	14
582.5905	8
582.9011	13
583.1533	12
583.3961	15
583.7747	14
584.0933	12
584.7957	14
585.5060	15
586.1736	14
586.9628	18
587.9001	21
596.4753	999
597.3548	417
598.0979	177
598.9847	88
599.9077	42
600.3244	27
601.0423	18
601.5103	16
601.7999	9
602.1878	9
602.6364	8
603.0964	5
603.3225	4
603.5038	3
603.9300	3
