Mass spectrum: Nostoxanthin; FAB-EBEB; MS2; m/z: 600.42; [M]*+
Name: Nostoxanthin
Class: Natural Product; Carotenoid
Formula: C40H56O4
Exact mass: 600.41786
SMILES: C(C=CC(C)=CC=CC(C)=CC=CC=C(C)C=CC=C(C)C=CC(C(C)(C)2)=C(C)CC(C(O)2)O)(C(C)(C)1)=C(C)CC(C(O)1)O
InChI: InChI=1S/C40H56O4/c1-27(17-13-19-29(3)21-23-33-31(5)25-35(41)37(43)39(33,7)8)15-11-12-16-28(2)18-14-20-30(4)22-24-34-32(6)26-36(42)38(44)40(34,9)10/h11-24,35-38,41-44H,25-26H2,1-10H3/b12-11+,17-13+,18-14+,23-21+,24-22+,27-15+,28-16+,29-19+,30-20+/t35-,36-,37+,38+/m1/s1
Instrument: JMS-HX/HX 110A, JEOL
Instrument type: FAB-EBEB
Ms type: MS2
Ion mode: POSITIVE
Collision energy: 3 kV
Ionization: FAB
Base peak: 600.3630
Precursor m/z: 600.42
Precursor type: [M]+*
m/z	relative intensity
7.3529	0
8.3916	0
12.9851	0
13.9896	0
14.9931	1
18.9765	0
22.9274	1
25.9707	1
26.9696	3
27.9753	0
28.9577	3
30.9741	1
36.9223	0
37.9750	1
38.9534	3
39.9651	0
40.9683	5
41.8961	0
41.9843	1
42.9802	5
44.0159	0
44.9607	1
46.8715	1
49.9551	3
50.9356	1
51.9792	0
53.0029	4
55.0157	4
55.3701	0
57.0029	2
58.8069	0
59.0006	0
59.9958	1
60.9795	0
61.9538	0
62.8458	0
62.9737	1
63.3603	0
63.9829	0
64.9913	1
65.7982	0
66.7815	0
67.0011	2
67.9467	0
68.9986	6
70.9340	2
72.9382	1
73.0245	0
73.7043	1
73.8639	0
73.9891	2
74.7133	0
74.9392	1
75.0167	0
75.9729	1
76.7543	1
76.9664	7
77.4169	1
77.7952	1
77.9866	2
78.7717	0
78.9720	11
79.4015	1
79.8983	1
80.0074	1
80.9814	12
81.9215	0
83.0043	5
83.4580	1
84.7979	0
85.0047	3
85.6444	1
85.7868	2
86.0147	1
86.6737	1
86.9423	6
87.8386	0
87.9422	0
88.5764	1
88.9342	4
89.2195	1
89.3705	0
89.8300	0
89.9464	2
90.1234	1
90.2680	0
90.9463	36
91.5538	0
91.9425	4
92.0890	1
92.2502	0
92.9681	17
93.8775	1
94.0308	2
94.4477	0
94.7498	1
95.0074	15
95.9806	1
96.6122	1
96.9895	4
97.9931	1
98.9151	0
100.7506	1
100.9889	5
101.1444	1
101.5994	1
101.7306	1
101.8217	1
101.9379	3
102.0001	1
102.5005	1
102.6552	1
102.9717	15
103.7145	1
103.9774	5
104.2619	1
104.4090	1
104.9717	66
105.7128	0
105.9799	5
106.9861	39
107.7007	1
107.8049	0
108.0258	2
108.3143	0
108.6550	1
108.9984	18
109.4393	0
110.0038	0
110.9823	3
111.0836	1
112.0320	1
112.9243	2
113.1858	1
113.3272	1
113.4474	0
113.8852	2
114.1958	1
114.3412	0
114.9200	33
115.2972	1
115.4833	0
115.9205	12
116.2996	0
116.9349	33
117.9714	8
118.2447	1
118.9625	93
119.4401	1
119.6539	1
119.9750	14
120.4903	0
120.9684	31
121.2079	1
121.3873	1
121.7545	1
121.9425	3
122.5195	0
122.9769	10
123.9226	3
124.1377	0
124.7959	2
124.9872	3
125.0959	1
125.6104	1
125.7127	1
125.8879	2
126.4492	0
126.9320	13
127.0801	3
127.2681	1
127.3928	1
127.9010	54
128.2624	1
128.9099	54
129.2698	1
129.6528	3
129.9423	21
130.3532	1
130.5040	0
130.9446	50
131.3980	0
131.6061	1
131.9627	13
132.2905	0
132.6322	4
132.9675	58
133.3385	0
133.6247	1
133.7735	1
133.9874	9
134.2238	0
134.6224	1
134.9618	19
135.7175	1
135.9788	3
136.7513	1
136.9436	11
137.2107	1
137.7314	0
137.9492	1
138.6537	2
138.9261	9
139.3761	1
139.5466	0
139.9943	2
140.1316	1
140.2750	2
140.4595	1
140.8937	45
141.3009	1
141.4491	1
141.9177	40
142.2516	0
142.5449	2
142.9369	84
143.6080	1
143.9465	23
144.1917	1
144.4337	1
144.9591	73
145.6597	1
145.9528	9
146.3362	1
146.4918	1
146.6796	1
146.9810	40
147.5613	1
147.6716	0
147.7680	0
147.9934	6
148.7478	2
148.9801	13
149.2025	1
149.7144	0
149.8733	2
150.0355	2
150.6330	2
150.9389	10
151.2819	1
151.8721	17
152.2281	0
152.3860	1
152.6198	4
152.9384	30
153.3170	1
153.5941	1
153.9548	13
154.9363	46
155.1620	1
155.2718	0
155.6613	2
155.9632	35
156.4076	1
156.9722	76
157.3252	2
157.7026	0
157.9977	18
158.3658	1
159.0024	41
159.2255	1
159.5257	1
159.6522	1
159.9654	6
160.7538	2
161.0070	19
161.3849	1
161.5157	1
162.0218	3
162.1093	1
162.4787	1
162.7357	1
163.0076	5
163.4561	1
163.6081	1
163.9454	3
164.0744	1
164.2414	1
164.5911	3
164.9755	42
165.3744	0
165.5205	1
165.9651	14
166.1895	3
166.3581	0
166.4520	0
166.9595	42
167.2726	0
167.6306	1
167.9833	18
168.3893	1
168.6618	2
169.0209	44
169.3228	1
169.4585	1
169.6167	1
170.0040	19
170.2796	0
171.0117	42
171.3676	2
171.6453	1
172.0150	8
172.2036	1
172.3398	1
172.4986	0
172.6355	0
172.7704	3
173.0429	19
173.6012	0
173.7355	1
174.0348	5
174.2728	1
174.5941	2
175.0369	13
175.4212	1
175.5161	1
175.7148	1
175.9804	6
176.1962	1
176.5371	0
176.6922	1
176.9621	3
177.1705	1
177.2642	0
177.4761	3
177.9554	23
178.1517	1
178.4184	1
178.9774	32
179.1855	1
179.5585	1
179.9598	15
180.3598	2
180.5735	3
180.9894	41
181.5172	2
181.9944	18
182.5019	1
182.6501	0
183.0103	45
183.2635	1
183.3754	2
183.6568	2
184.0194	12
184.2329	1
184.4314	1
184.5660	2
184.6718	1
185.0229	22
185.2682	1
185.5273	1
185.6070	1
186.0023	6
186.1199	1
186.3454	0
186.4933	1
186.6109	0
186.7320	1
186.8145	1
187.0175	9
187.1846	1
187.4977	1
187.7187	1
188.0436	4
188.6178	3
188.7273	2
188.9760	11
189.3776	0
189.7469	3
189.9572	6
190.1688	1
190.2984	1
190.4445	1
190.6493	2
190.9631	14
191.5218	1
191.9661	16
192.4306	1
192.6011	1
192.9877	32
193.4194	0
193.6432	1
193.9630	17
194.9803	46
195.5839	2
195.9726	13
196.3434	1
196.4299	1
196.5281	1
197.0195	27
197.4099	1
197.5102	1
197.5961	0
197.7152	1
197.8426	1
198.0302	9
198.3052	0
198.5919	1
198.7672	1
199.0194	16
199.4089	1
199.4955	1
199.6105	1
199.8393	1
200.0258	2
200.1582	1
200.7005	1
200.9494	4
201.1222	1
201.4781	0
201.6404	1
201.9534	9
202.9662	16
203.1884	2
203.4871	0
203.9734	5
204.0734	2
204.4104	0
204.6210	1
204.9824	20
205.5330	0
205.6123	0
205.9927	14
206.3704	0
206.5749	2
206.9889	30
207.4071	0
207.5164	0
207.6424	1
208.0134	12
208.2954	1
208.4674	2
208.6499	1
209.0190	23
209.4057	1
209.6823	1
210.0321	7
210.5897	1
211.0310	14
211.5066	2
211.8895	0
212.0660	4
212.3325	1
212.5237	1
212.6870	1
213.0178	5
213.2000	1
213.5204	1
213.6677	2
213.7864	1
213.9337	1
214.2933	0
214.4365	1
214.6398	3
214.9876	12
215.4900	1
215.7192	2
215.9911	2
216.2630	0
216.4601	1
216.6062	1
216.7656	1
216.9775	8
217.6761	1
217.7713	1
217.9979	4
218.1805	1
218.5787	1
218.6780	1
218.7781	1
219.0098	15
219.3205	1
219.4192	1
220.0011	10
220.3876	1
220.7784	3
221.0376	17
221.8224	2
222.0207	6
222.3095	0
222.4924	1
223.0435	11
223.5000	1
223.6501	1
224.0162	3
224.1186	3
224.4126	0
224.7620	2
225.0631	9
225.5214	0
225.7986	1
226.0142	5
226.7536	1
227.0514	6
227.3085	1
227.7243	1
227.8136	1
228.0286	4
228.6224	1
228.9359	4
229.0871	4
229.1981	1
229.6636	0
230.0349	6
230.6468	2
231.0175	8
231.2750	0
231.5030	0
231.8338	1
232.0660	5
232.4208	1
232.5623	1
233.0701	12
233.8404	2
234.0694	7
234.7135	1
234.8737	2
235.0711	13
235.3873	0
235.6312	1
235.8687	1
236.0887	8
236.3221	1
236.4543	1
236.7622	1
237.1032	9
237.4106	1
237.7482	0
238.0879	2
238.2982	1
238.4235	1
238.6747	1
238.7816	1
239.0321	8
239.2482	1
239.6458	1
239.7472	1
239.8999	1
240.0344	3
240.2019	1
240.5279	1
241.0187	6
241.6836	1
242.0330	2
242.2669	1
242.4424	1
242.5939	0
242.8201	1
243.0350	7
243.7117	1
243.9901	5
244.4590	1
244.6268	0
244.7340	1
245.0372	7
245.6347	1
245.7772	1
246.0163	4
246.1702	1
246.7389	2
247.0473	8
247.7454	0
248.0920	5
248.2777	0
248.4818	1
248.7233	1
249.0517	9
249.1986	3
249.6535	1
250.0739	2
250.2604	1
250.4618	0
250.6667	0
250.7918	1
251.0660	3
251.3141	0
251.5813	1
252.0380	4
252.4106	0
252.6100	1
252.7854	1
253.0187	6
253.2217	1
253.7246	1
254.0182	2
254.1703	1
254.5963	1
254.9890	4
255.1362	5
255.2877	1
256.0692	4
256.6710	1
257.0711	10
257.8679	2
258.0641	1
258.1909	1
258.4275	1
259.0659	6
259.8773	1
260.0878	3
260.3217	0
260.6910	1
260.8144	2
261.0731	9
261.4170	1
262.0616	2
262.3375	0
262.5545	1
262.8113	1
263.0575	4
263.1405	2
263.2398	1
263.5222	1
263.8103	2
263.9870	1
264.1452	1
264.2410	0
264.5682	1
264.8372	4
265.0878	4
265.2305	1
265.5194	1
265.8481	1
266.0178	1
266.1833	1
266.4780	1
266.8736	0
267.0888	4
267.4283	1
267.6883	1
267.9980	1
268.1863	1
268.4080	1
268.5118	0
268.9247	2
269.1172	5
269.3781	1
269.6710	0
269.8444	1
270.0051	2
270.6990	2
271.0545	6
271.3987	0
272.0922	3
272.5183	1
272.8036	2
272.9324	2
273.1046	5
273.3913	1
273.6382	2
273.9884	2
274.0766	1
274.1742	1
274.6340	1
275.1102	5
275.3972	1
275.5830	0
275.9618	1
276.1797	1
276.9169	2
277.1420	4
277.9847	2
278.1987	1
278.4617	1
279.0569	2
279.5995	1
280.0824	2
280.3392	1
280.5220	0
281.1082	2
281.9521	1
283.0702	7
283.8540	0
284.0406	2
284.1880	1
284.7363	1
285.0874	5
286.0390	3
286.2193	2
286.7814	1
287.0386	3
287.1355	2
287.7356	1
287.9872	1
288.0884	1
288.2096	1
288.7741	1
289.1071	5
290.0390	1
290.1745	1
290.5966	1
291.0346	2
291.4326	1
291.5696	1
291.8008	0
291.9113	1
291.9977	1
292.1425	1
292.6141	1
292.8189	1
292.9616	1
293.1301	3
294.0534	1
294.1803	0
294.9768	2
295.1330	2
295.6564	1
295.9396	1
296.0851	2
296.6294	1
297.0674	4
297.2144	2
298.0799	2
298.2997	1
298.5852	1
298.6908	1
299.1020	6
299.3739	1
299.9286	1
300.1071	3
300.3799	1
300.8311	1
301.0975	4
301.5302	1
301.8009	0
301.9988	1
302.4702	1
303.1125	2
303.9542	3
304.0657	0
304.7382	1
305.0212	3
305.1491	2
305.2528	0
305.8218	1
306.2443	2
306.4138	1
306.9379	1
307.0373	1
307.8633	1
308.0778	0
308.4133	0
309.0807	1
310.0659	1
311.0470	2
311.1451	2
312.0183	1
312.2144	2
313.0392	4
313.2297	1
314.1004	2
314.2387	1
314.9076	0
315.0459	1
315.1684	2
316.3268	1
316.9846	2
317.1924	0
318.7433	1
319.0143	1
319.3369	0
320.0647	1
321.0966	6
321.8167	1
322.0591	1
322.7270	1
323.0541	3
324.1642	2
324.6737	1
324.9543	1
325.1517	2
325.3275	1
325.9097	1
326.1200	3
327.0813	1
327.4432	1
328.2820	0
328.5779	1
328.8515	1
329.0648	2
329.9628	1
331.0117	3
331.1820	2
332.5273	1
333.0829	1
333.2512	1
334.0081	1
334.2051	1
334.6351	1
334.9335	1
335.1068	0
335.6274	1
336.1351	1
336.7055	1
337.0400	1
337.1644	1
337.4889	0
338.1845	1
338.4031	0
338.6885	1
339.1385	2
339.8417	0
340.1876	2
340.5881	1
341.0728	1
342.0395	1
342.2064	1
342.9877	1
343.2172	2
344.2029	1
346.0576	2
347.1756	0
347.3599	1
348.8698	1
348.9836	1
350.1655	1
350.3607	1
351.0789	1
351.1870	1
351.3073	1
352.0732	2
352.2756	1
352.5084	1
352.9688	1
353.2268	4
353.8134	1
354.0729	1
354.2430	2
354.5263	1
355.4064	1
356.1367	1
356.8729	1
356.9753	1
358.2712	1
359.1476	1
360.7101	1
360.9208	1
363.1658	3
363.6631	1
363.9064	1
364.0912	1
364.2160	1
364.3777	2
365.1119	2
365.3018	1
365.5552	1
365.9915	1
366.2425	3
366.7322	1
367.0875	1
367.2968	1
367.6715	1
368.0722	1
369.0505	0
369.7210	1
370.2010	0
370.4067	1
371.1393	1
371.2537	1
371.3796	1
372.3376	1
373.0977	0
373.9644	1
374.2113	0
374.4237	1
374.8132	2
375.0667	2
376.0719	1
376.2562	0
377.1471	1
377.3192	1
378.2167	2
378.7959	1
379.0689	1
379.2678	2
380.2959	1
382.0726	1
383.6883	1
385.2003	1
386.2090	1
386.3368	1
387.2676	1
387.7728	1
388.3344	1
389.9239	1
390.0574	0
390.1917	2
391.0754	3
391.2191	3
391.3599	2
391.5895	1
392.1491	3
392.3268	3
393.1883	1
393.4411	1
396.8370	0
398.5959	0
398.7462	1
398.9514	1
399.2058	1
401.0252	2
401.8479	1
402.0655	2
402.2751	3
403.1414	2
403.4385	1
404.0228	1
404.2564	1
405.2812	1
407.0107	1
407.1706	1
407.7305	1
408.3773	1
410.1132	1
411.1112	1
412.1382	1
413.2229	1
413.9172	1
414.0270	1
415.1484	1
415.4396	1
416.0633	1
416.2086	3
416.4955	0
417.1416	3
417.2934	1
418.0740	1
418.2258	2
418.3914	2
419.1649	2
420.0772	1
420.2609	2
421.9160	1
425.3479	1
425.9259	1
427.0791	1
427.3179	1
427.5516	1
427.7173	1
427.9561	0
429.1682	1
429.3694	1
430.2008	2
431.1070	2
432.0835	2
432.1962	1
432.5793	1
438.0518	1
439.9930	1
440.3106	1
441.3386	0
442.0410	0
442.1691	1
442.3572	1
442.9982	1
443.6755	1
444.1878	8
444.4490	1
444.8109	1
445.2545	1
446.2011	1
446.8105	1
447.0501	2
447.1855	1
447.4084	2
447.5503	1
448.2090	1
449.3477	1
450.1557	2
450.6720	0
450.9847	1
452.7502	1
453.4215	1
453.5164	0
453.9183	1
454.3225	1
454.8947	1
455.2742	0
456.1790	1
456.2797	1
457.1447	1
457.3040	0
458.3234	1
458.5038	1
459.6806	1
459.8045	1
460.2327	1
460.3327	1
461.1596	1
461.9547	2
462.1177	2
462.2692	0
464.4336	1
465.3912	1
465.5834	0
466.4011	1
468.1673	1
468.2671	1
468.4124	1
468.6671	1
468.9991	1
469.1416	1
469.3860	1
470.8336	1
471.2184	1
471.3921	1
472.0649	1
472.1923	2
472.5967	1
472.9079	1
473.4180	0
475.0491	1
475.9457	0
476.1419	1
476.7744	1
477.1588	1
477.2782	1
477.4490	2
477.5779	1
477.7639	1
478.1331	0
478.4458	0
478.5782	1
479.0205	1
479.4259	1
480.1151	2
480.9868	1
481.2417	1
481.3525	1
484.1295	2
484.2910	2
484.4619	3
484.9420	2
486.0487	1
486.1747	1
486.4941	1
487.5488	1
487.8987	1
488.8441	1
489.0759	1
489.1961	1
490.8727	1
491.1944	0
492.0255	1
492.5385	1
492.6530	1
493.1950	1
493.7335	1
494.0509	1
494.1834	2
494.3210	4
494.4615	1
494.8852	1
497.4175	1
498.3556	1
499.2728	1
502.0559	1
502.4363	2
503.3943	1
504.2793	0
504.5351	1
504.8156	1
504.9627	1
505.0634	1
505.2352	2
505.3918	1
505.8165	1
506.1688	0
506.4341	1
506.6559	1
506.8509	1
507.2126	1
508.2811	67
508.7806	1
508.9235	2
509.0605	2
509.1786	1
509.3766	1
509.5469	1
509.7115	2
510.2132	1
511.2428	1
512.4305	1
513.7330	1
514.2762	2
514.9637	0
515.2009	1
516.1155	1
516.2206	1
517.0845	1
518.4722	1
518.7631	1
519.2245	1
519.3942	1
520.0327	1
520.2684	2
520.4745	3
521.2436	5
521.4556	1
522.6166	1
524.4952	1
525.1656	2
526.0554	1
526.2226	1
526.4412	1
527.2319	1
528.1059	1
528.2152	1
528.3752	1
528.6142	0
529.1464	1
531.4045	1
531.4987	1
532.3366	1
534.1757	0
536.1613	1
536.9575	0
537.2610	1
537.4131	1
538.1609	1
538.3116	1
538.7057	1
539.2868	3
539.4542	1
540.1918	3
540.3389	8
540.5078	1
540.7092	1
541.9144	1
542.2267	0
543.0043	1
543.0840	0
548.6995	1
549.8776	1
550.2234	0
550.5751	1
552.2427	1
552.3682	1
552.5001	1
553.0846	1
554.1346	1
554.3674	1
555.1071	1
555.5531	1
555.6627	1
555.8969	2
556.3850	1
556.7375	1
556.8267	1
556.9391	1
557.3939	1
558.9490	1
562.3382	1
563.2321	1
563.3590	1
564.1796	2
564.3806	2
564.4495	1
565.3035	1
565.5256	1
566.1611	1
566.3001	2
566.4333	5
566.8589	1
567.2722	5
567.4632	2
568.1813	2
568.3275	2
569.2359	2
569.4031	2
569.9207	1
570.1827	1
570.3022	3
570.4209	1
570.6533	1
570.8132	1
571.1231	2
571.2404	1
571.7696	1
572.2959	1
572.9547	1
573.5071	0
573.8627	1
574.4738	1
574.5563	1
574.9741	1
575.2499	1
575.5026	1
575.7198	1
575.9827	0
576.1630	2
576.3708	2
576.6591	1
576.8748	1
577.0016	1
577.1725	1
577.2753	1
577.4628	2
577.6924	2
577.7996	1
577.9177	1
578.0676	1
578.3833	1
578.5658	5
578.7736	1
578.9257	2
579.2190	4
579.4109	1
579.6180	1
579.7991	3
580.1446	2
580.4698	4
580.6241	1
580.8435	2
581.1680	4
581.3245	3
581.5338	3
581.6735	3
582.2110	28
582.5609	7
582.6550	4
583.3497	8
583.5916	3
583.7582	2
583.9995	2
584.2798	9
584.4044	6
584.5043	2
584.9955	16
585.3541	20
585.9517	2
586.2220	2
586.3987	2
586.5980	2
586.8037	1
586.9392	1
587.0312	1
587.2239	3
587.3833	0
587.5760	1
587.7028	2
588.0926	1
588.4360	3
588.6172	1
588.7143	2
588.8643	1
588.9678	1
589.2055	3
589.4627	2
589.7344	2
590.1031	2
590.2241	2
590.6572	3
590.9542	3
591.1823	4
591.4279	3
591.6306	1
591.7487	1
592.0536	3
592.2282	2
592.4824	2
592.6164	1
592.7838	1
593.0104	3
593.1568	2
593.3408	4
593.5125	4
593.6530	3
593.9449	5
594.1441	4
594.3071	3
594.6287	6
594.7432	4
595.1553	6
596.0087	7
597.0360	19
597.1968	16
597.6351	23
600.3630	999
600.9122	128
601.5854	71
602.1028	46
602.7173	29
603.1383	21
603.7978	13
604.1340	11
604.6334	7
604.9957	6
605.4045	6
605.6683	4
605.8907	2
606.2365	3
606.5003	2
606.6221	2
606.8134	4
607.0801	2
607.3142	1
607.5585	3
607.7991	1
607.9274	1
608.1760	2
608.5334	3
608.6436	2
609.0168	0
609.3952	0
609.9077	0
610.0432	1
610.7333	0
611.2712	1
