Mass spectrum: beta-Tocotrienol; FAB-EBEB; MS2; m/z: 432.30; [M-H+Na]*+
Name: beta-Tocotrienol
Class: Natural Product; Lipid
Formula: C28H42O2
Exact mass: 410.31848
SMILES: C(=CCCC(C2)(C)Oc(c(C2)1)c(cc(O)c(C)1)C)(C)CCC=C(C)CCC=C(C)C
InChI: InChI=1S/C28H42O2/c1-20(2)11-8-12-21(3)13-9-14-22(4)15-10-17-28(7)18-16-25-24(6)26(29)19-23(5)27(25)30-28/h11,13,15,19,29H,8-10,12,14,16-18H2,1-7H3/b21-13+,22-15+/t28-/m1/s1
Instrument: JMS-HX/HX 110A, JEOL
Instrument type: FAB-EBEB
Ms type: MS2
Ion mode: POSITIVE
Collision energy: 3 kV
Ionization: FAB
Base peak: 432.3362
Precursor m/z: 432.30
Precursor type: [M-H+Na]+*
m/z	relative intensity
0.3433	0
0.4564	0
0.8532	0
1.8455	0
3.7462	0
4.6475	0
8.8822	0
9.3692	0
10.2946	0
11.9843	0
12.1334	0
13.9959	0
14.3059	0
15.0024	0
15.2823	0
16.2419	0
17.6976	0
22.9559	226
24.2593	0
24.9625	0
25.9749	1
26.9888	3
27.9821	0
28.9981	2
35.7510	0
35.9427	0
36.7659	0
36.9575	0
37.9690	1
38.9764	7
39.9707	2
40.9859	16
41.6050	0
42.0023	0
42.3589	0
42.9863	3
45.9673	0
46.9478	0
48.3213	0
48.9766	0
49.9634	1
50.9588	3
51.9730	2
52.9801	7
53.3878	0
53.9883	1
54.9918	9
55.5956	0
56.0156	0
57.0120	0
60.2605	0
60.9508	0
61.9632	0
62.9736	1
63.2907	0
63.5379	0
63.9654	1
64.9829	3
65.9835	1
66.1319	1
66.4242	0
66.9854	12
67.5504	0
67.9934	10
68.6179	0
69.0056	58
70.0277	0
70.9673	0
72.9857	0
73.9659	0
74.9646	0
75.9440	1
76.3157	0
76.9649	9
77.2383	0
77.4187	0
77.9784	2
78.5489	0
78.9954	8
79.7345	0
79.9836	1
80.6830	0
80.9983	13
81.7076	0
82.0236	1
83.0034	1
84.9511	0
87.0318	0
88.0251	0
88.9867	0
90.0006	0
90.2395	0
90.9979	10
92.0042	1
93.0052	7
93.9913	1
94.1718	0
94.5805	0
95.0290	5
95.9729	1
97.0297	0
98.9378	0
100.9831	0
102.0253	0
102.9957	2
103.9769	1
104.9964	5
106.0363	1
106.9985	6
107.5636	0
107.9652	1
109.0200	1
109.5484	0
110.0200	0
110.9927	0
111.9135	0
113.0365	0
113.4473	0
113.7849	0
113.9852	0
114.9627	2
115.3265	0
115.9681	1
116.9853	1
117.9674	0
118.9913	3
119.4951	0
119.9970	1
120.9953	5
121.9915	3
123.0145	2
123.4354	0
124.0052	0
125.0325	0
125.8400	0
126.4439	0
126.9736	1
127.5523	0
127.9808	2
129.0107	1
129.9732	1
130.4266	0
130.9757	1
131.9596	1
133.0248	3
133.9659	1
134.9992	4
135.9953	1
137.0294	1
137.4769	0
138.0448	0
138.4347	0
139.0150	0
140.0692	0
140.5255	0
141.0389	0
142.0192	0
143.0266	1
144.0051	0
144.9811	1
146.0139	1
147.0122	3
148.0245	0
149.0419	1
150.0028	3
151.0238	9
152.0169	1
153.0206	0
153.6990	0
154.0780	0
154.5750	0
155.0336	0
155.3125	0
156.0803	0
157.0394	1
157.5639	0
158.0190	1
158.3715	0
159.0280	1
159.5609	0
160.0088	1
161.0311	4
161.5713	0
162.0120	2
162.9913	1
163.9767	1
165.0026	1
166.0268	1
167.0317	1
168.0705	0
168.4973	0
169.0176	1
169.9596	1
170.5182	0
170.9856	3
171.9765	43
172.9913	3
173.5887	0
173.9922	4
175.0282	5
176.0122	2
176.4787	0
176.9789	1
178.0667	0
179.1014	0
180.0226	0
180.9978	0
181.1936	0
182.1113	0
183.0449	0
183.9992	0
185.0390	0
186.0547	1
187.0439	1
188.0414	1
189.0438	6
189.4716	0
190.0489	3
191.0309	2
192.0762	1
194.9907	0
196.1458	0
196.9984	1
198.0316	2
199.0415	1
199.9943	0
201.0512	1
202.0600	0
203.1065	1
203.9940	1
204.2007	0
204.8096	0
205.1113	0
205.3384	0
206.2177	0
207.1911	0
208.9667	0
209.1867	0
209.9226	0
211.0449	2
211.4401	0
212.0557	7
212.4884	0
213.0635	6
213.5743	0
214.0230	1
214.9851	0
215.2350	0
216.1873	1
217.0968	0
218.0236	0
219.9426	0
220.1952	0
222.0565	0
223.0482	0
223.6774	0
224.0697	0
225.0858	0
226.0682	3
227.1144	1
228.1246	1
228.6559	0
229.1294	1
229.8994	0
230.1504	0
231.1013	0
232.1070	0
234.0772	0
234.9769	0
237.1486	0
238.0137	0
239.1168	0
239.3409	0
240.0950	1
241.1031	1
242.1182	1
243.0994	0
244.1276	0
245.0376	0
248.5747	0
252.0460	0
252.3559	0
253.0601	0
254.0392	1
255.1392	0
257.1885	0
258.1536	0
259.0652	0
259.2832	0
262.9992	0
263.9745	0
265.0619	0
266.1404	0
267.1631	0
268.0388	0
268.1610	0
270.1676	0
271.2220	0
271.5225	0
272.1715	1
273.1418	0
275.0725	0
276.1519	0
276.6917	0
276.9044	0
277.6422	0
277.9991	0
279.2552	0
280.1009	2
281.1229	1
282.2836	0
282.5927	0
283.2155	4
286.2597	0
287.1190	0
289.2997	0
291.1063	0
293.2506	0
293.5373	0
294.1269	13
295.1513	10
295.6653	0
296.1414	3
296.5155	0
297.1512	0
301.6148	0
303.1815	0
303.9248	0
307.0504	0
308.1614	5
309.1740	1
310.2429	0
311.0868	0
312.1813	0
313.1357	0
314.1156	0
320.2125	1
321.0507	0
321.5578	0
322.2064	0
323.3246	0
324.9996	0
327.3486	0
328.1704	0
329.1036	0
330.3332	0
331.2839	0
332.3243	0
334.2538	0
335.0257	0
335.1957	0
335.5013	0
340.3228	0
342.6891	0
344.5010	0
344.9583	0
346.2972	0
347.0362	0
347.4856	0
348.2052	5
348.6156	1
349.2180	0
349.4813	0
349.6733	0
349.9193	0
350.1331	0
350.8414	0
351.1335	0
351.3232	0
351.6049	0
352.4364	0
355.2268	0
357.9938	0
358.1526	0
358.4909	0
359.4311	0
359.6140	0
360.1078	0
360.4945	0
361.1643	0
361.3531	0
361.5799	0
362.2153	16
363.2318	7
364.2748	2
364.7704	0
365.1269	0
372.0758	0
372.4820	0
373.8423	0
374.1576	0
375.5030	0
376.2512	1
377.2354	1
378.0952	0
378.3688	0
379.2070	0
380.1418	0
380.3982	0
385.0077	0
387.2555	0
388.1978	1
388.6443	0
389.0723	0
389.3197	0
390.1989	0
390.6696	0
391.2381	0
396.0646	0
399.7711	0
400.2479	0
400.9597	0
401.1981	0
401.6311	0
402.2266	2
402.3994	1
402.9108	0
403.2391	0
404.1204	0
404.3542	0
405.6053	0
406.8059	0
407.7404	0
408.3465	0
408.5916	0
409.3595	0
410.3343	0
411.1953	0
411.4115	0
413.4546	0
413.7099	0
414.1801	0
414.4814	0
415.1070	0
415.3519	0
415.5279	0
416.3099	4
417.3151	4
418.3088	0
419.4590	0
419.7766	0
420.1516	0
420.5864	0
420.9430	0
421.5274	0
422.4513	1
422.9241	0
423.5984	1
424.2243	1
424.9193	1
426.4487	2
432.3362	999
433.0457	33
433.7953	11
435.0612	2
435.6085	2
436.4088	1
437.0734	1
437.5356	1
438.0911	1
438.5476	1
439.1456	0
439.9047	0
440.3843	1
440.5936	0
441.6541	0
442.0889	1
442.3684	0
