Mass spectrum: Methyl-9-hydroperoxy-delta10E,12Z-octadecadienoic acid; FAB-EBEB; MS2; m/z: 311.22; [M-CH3]-
Name: Methyl-9-hydroperoxy-delta10E,12Z-octadecadienoate
Name: LOOH-3
Name: Methyl-9-hydroperoxy-delta10E,12Z-octadecadienoic acid
Class: Natural Product; Lipid
Formula: C19H34O4
Exact mass: 326.24571
SMILES: CCCCCC=CC=CC(OO)CCCCCCCC(=O)OC
InChI: InChI=1S/C19H34O4/c1-3-4-5-6-7-9-12-15-18(23-21)16-13-10-8-11-14-17-19(20)22-2/h7,9,12,15,18,21H,3-6,8,10-11,13-14,16-17H2,1-2H3/b9-7-,15-12+
Instrument: JMS-HX/HX 110A, JEOL
Instrument type: FAB-EBEB
Ms type: MS2
Ion mode: NEGATIVE
Collision energy: 3 kV
Ionization: FAB
Base peak: 311.2696
Precursor m/z: 311.22
Precursor type: [M-CH3]-
m/z	relative intensity
13.9232	0
14.8889	0
15.8886	0
16.9074	2
24.9208	0
26.9195	0
28.8950	0
30.8073	0
31.8788	0
32.8862	0
37.8580	0
38.9101	0
39.9616	0
40.9293	1
42.9289	0
43.9003	1
44.9340	0
50.9322	0
52.9551	0
53.9278	0
54.9505	0
56.9337	0
57.9178	14
58.9109	1
59.8213	0
60.9033	0
61.9665	0
64.9641	0
66.0173	0
66.9390	0
68.9313	0
70.9162	15
71.9220	1
72.8909	0
73.8909	0
76.9611	0
78.8887	0
79.9098	0
80.0090	0
80.9793	0
81.9591	0
82.0828	0
83.0036	0
83.9484	0
84.9079	0
85.9457	4
86.9247	0
87.8494	0
88.9485	0
90.9671	0
92.9582	0
94.9656	1
95.9736	0
96.9620	2
98.9854	8
100.0049	0
100.9903	0
102.0250	0
103.0126	0
105.0080	0
106.0438	0
107.0526	0
108.0011	0
109.0691	0
110.0089	0
110.2294	0
111.0757	1
111.9906	0
113.0731	6
114.0745	4
115.0565	0
116.0417	0
117.0561	0
118.1029	0
119.0184	0
121.1146	2
122.0997	0
123.0938	1
123.5809	0
125.0946	1
127.0869	7
128.0657	0
129.0394	0
130.1487	0
131.0600	0
133.8877	0
135.0868	0
137.0353	0
138.5153	0
139.0820	2
140.0779	0
141.0777	19
142.0731	1
143.0304	1
145.0181	0
145.9185	0
147.0013	0
147.9964	0
149.0917	1
150.0848	0
150.5750	0
151.0710	1
152.1530	0
153.0788	1
154.0804	0
155.1116	1
156.0997	0
157.1073	1
158.0419	0
160.5562	0
161.7566	0
162.9881	0
165.0838	1
165.8399	0
167.0757	4
167.4905	0
167.9747	0
168.4640	0
169.0587	3
169.5281	0
170.0745	0
171.0941	35
171.7503	0
172.1383	0
172.8123	0
173.1293	0
174.0630	0
175.2263	0
176.1447	0
177.0810	0
177.2971	0
179.2197	0
180.1957	0
181.1686	1
182.1618	5
183.1279	4
184.0700	0
185.1366	4
186.0310	0
186.5129	0
187.0932	0
187.2092	0
188.9959	0
190.0257	0
190.9405	0
191.2085	0
193.0807	1
194.0732	0
195.1190	1
196.0615	0
197.1028	3
197.5328	0
197.9570	0
199.0993	1
200.0929	0
201.0893	1
203.1037	0
203.5134	0
204.0774	0
204.2106	0
205.1082	0
205.7344	0
206.5753	0
207.1137	1
208.1369	0
209.0831	1
210.0774	0
211.1085	5
213.0972	0
213.6075	0
214.0817	0
215.8728	0
217.5305	0
219.1761	0
220.2260	0
220.7143	0
221.1892	26
221.7215	0
222.2353	0
223.1997	6
223.4706	0
225.1983	0
225.3613	0
226.2942	0
227.2011	0
227.5583	0
229.3013	0
231.2794	0
233.2321	0
233.9826	0
234.2706	0
235.2630	6
236.1132	0
236.2749	0
237.2466	35
237.7489	0
237.9461	0
238.3128	0
239.2519	1
239.5663	0
240.1565	0
241.1857	0
241.7445	0
242.1674	0
243.4078	0
245.2117	0
245.4796	0
247.2047	1
248.1647	0
248.6932	0
249.1737	9
249.6070	0
250.2343	0
251.1492	13
252.1864	0
253.1345	1
253.6490	0
254.1375	2
255.1895	0
255.9978	0
257.1000	0
257.3371	0
257.6283	0
257.8283	0
258.1525	0
258.4395	0
258.7915	0
259.2178	0
260.3069	0
261.2103	1
262.0416	0
262.2158	0
262.5744	0
263.1901	7
263.6181	0
264.1696	0
264.6721	0
265.1874	10
265.6992	0
265.9091	0
266.2314	0
266.3871	0
266.6122	0
267.2198	1
267.5566	0
267.8528	0
268.0839	0
268.3361	0
268.7271	0
269.1850	0
269.5409	0
269.9052	0
270.1447	0
270.5260	0
270.9705	0
271.7094	0
272.3987	0
272.8610	0
273.2399	0
273.6710	0
274.0187	0
274.4786	0
274.6575	0
274.8246	0
275.2752	2
275.9149	0
276.1454	0
276.3159	0
276.5277	0
277.2452	99
278.2321	6
278.6829	0
279.2131	20
279.6319	0
279.9807	0
280.5819	0
281.1772	1
281.4753	0
281.8405	0
282.0521	0
282.2569	0
282.5091	0
282.8189	0
283.1617	0
283.9557	0
284.1792	0
284.6567	0
285.4720	0
285.9241	0
289.9798	18
293.3170	890
294.2996	4
294.7903	1
295.2420	1
295.6583	0
295.8859	0
296.2175	0
296.5340	0
301.4054	0
302.6803	1
311.2696	999
312.3835	7
312.6895	3
313.1626	2
313.5332	0
314.2459	0
314.6107	0
314.9047	0
315.2181	0
315.9073	0
316.3875	0
