Mass spectrum: Isozeaxanthin; FAB-EBEB; MS2; m/z: 568.43; [M]*+
Name: Isozeaxanthin
Class: Natural Product; Carotenoid
Formula: C40H56O2
Exact mass: 568.42803
SMILES: C(C(=C2C)C(CCC(O)2)(C)C)=CC(=CC=CC(=CC=CC=C(C)C=CC=C(C)C=CC(=C1C)C(CCC(O)1)(C)C)C)C
InChI: InChI=1S/C40H56O2/c1-29(17-13-19-31(3)21-23-35-33(5)37(41)25-27-39(35,7)8)15-11-12-16-30(2)18-14-20-32(4)22-24-36-34(6)38(42)26-28-40(36,9)10/h11-24,37-38,41-42H,25-28H2,1-10H3/b12-11+,17-13+,18-14+,23-21+,24-22+,29-15+,30-16+,31-19+,32-20+
Instrument: JMS-HX/HX 110A, JEOL
Instrument type: FAB-EBEB
Ms type: MS2
Ion mode: POSITIVE
Collision energy: 3 kV
Ionization: FAB
Base peak: 568.3274
Precursor m/z: 568.43
Precursor type: [M]+*
m/z	relative intensity
10.8517	0
12.9647	0
13.9730	1
14.9698	2
21.1885	0
22.9083	0
25.9539	4
26.9605	21
27.9652	2
28.9668	17
29.9246	1
30.9488	2
31.0331	0
31.0969	0
35.8049	0
35.9343	0
36.9275	2
37.9444	3
38.9511	25
39.2566	0
39.7514	0
39.9601	2
40.0807	0
40.9653	35
41.9580	1
42.7612	0
42.9524	42
43.5541	0
43.6514	0
43.9710	1
44.9582	2
48.9225	2
49.7900	1
49.9345	5
50.9548	12
51.9447	3
52.7984	1
52.9624	9
53.7474	0
53.9489	1
54.9743	37
55.9857	1
56.9672	5
57.9457	0
58.5539	0
58.9860	3
59.9064	0
60.9148	0
61.7574	0
61.9355	4
62.9302	8
63.3256	0
63.7078	0
63.9558	3
64.2548	0
64.7249	1
64.9465	16
65.4056	0
65.7926	0
65.9698	2
66.4644	0
66.9611	37
67.8420	0
67.9691	1
68.9724	62
69.7409	0
69.8655	1
69.9793	1
70.9589	14
71.2092	0
71.9786	0
72.8695	0
72.9713	0
73.5544	0
73.8934	5
74.1513	0
74.5632	1
74.7113	1
74.9265	5
75.0226	2
75.3035	1
75.5637	1
75.7093	1
75.8991	4
76.0268	0
76.1796	0
76.4795	0
76.9212	82
77.1641	2
77.3022	1
77.4328	1
77.5058	0
77.6166	0
77.9330	18
78.1013	1
78.2199	1
78.4240	0
78.9438	85
79.1366	0
79.2750	1
79.6428	0
79.9417	15
80.2309	0
80.9572	125
81.2313	0
81.9330	4
82.4485	1
82.9576	30
83.1923	1
83.9649	1
84.9367	3
85.6239	0
85.8775	2
86.4193	0
86.6955	1
86.9091	3
87.2971	1
87.5673	0
87.9080	1
88.1870	1
88.3924	1
88.8828	15
89.1799	1
89.3382	1
89.4484	1
89.9364	5
90.0534	1
90.1939	1
90.3912	2
90.9226	265
91.2852	1
91.3862	0
91.5992	1
91.9528	24
92.2423	1
92.3817	1
92.9495	177
93.2367	1
93.3484	1
93.4365	0
93.6669	1
93.9636	8
94.1065	1
94.3169	0
94.4928	1
94.9721	186
95.2994	1
95.4866	0
95.9382	9
96.1373	0
96.9644	38
97.7121	0
97.9254	2
98.9502	9
99.7045	0
99.9193	1
100.4803	0
100.5992	1
100.9062	6
101.2313	1
101.3368	1
101.4467	0
101.9043	17
102.2640	1
102.4309	1
102.9123	59
103.4127	1
103.9315	31
104.2119	1
104.3769	0
104.9526	408
105.2608	1
105.4934	1
105.9668	41
106.2146	0
106.4668	0
106.9683	193
107.2284	1
107.3945	1
107.6187	1
107.9569	22
108.3876	1
108.9671	131
109.3605	1
109.6366	1
109.7222	1
109.9466	7
110.2605	1
110.4619	0
110.9458	44
111.4137	0
111.5052	0
111.7440	0
111.9999	0
112.2320	0
112.4366	1
112.9509	12
113.3480	2
113.9329	8
114.0782	2
114.3419	2
114.9006	185
115.1426	1
115.3405	1
115.9145	71
116.1449	2
116.3425	2
116.9186	187
117.2625	0
117.9318	44
118.2794	1
118.4085	1
118.9439	405
119.2153	2
119.3573	2
119.9461	42
120.1956	1
120.3671	2
120.9535	219
121.1824	2
121.3032	1
121.4120	1
121.9356	21
122.2119	1
122.9547	113
123.1912	2
123.4368	0
123.6779	2
123.9497	20
124.1157	1
124.9454	16
125.3653	1
125.8828	9
126.1849	1
126.8976	70
127.8906	220
128.9003	251
129.1463	2
129.9112	102
130.1427	2
130.9227	260
131.1417	1
131.9297	61
132.1437	1
132.9307	267
133.3613	0
133.5047	2
133.9375	30
134.1074	1
134.2742	1
134.9383	107
135.2917	1
135.4258	1
135.5618	1
135.9305	18
136.9336	70
137.2464	0
137.3742	1
137.9346	15
138.1333	1
138.9360	91
139.2163	1
139.9014	11
140.0420	7
140.2425	3
140.8873	180
141.2099	2
141.3650	1
141.9062	181
142.1547	1
142.3133	1
142.9249	321
143.2115	3
143.9276	99
144.3270	1
144.9379	331
145.2604	2
145.4018	1
145.9445	42
146.1351	2
146.3579	1
146.9490	154
147.1646	2
147.3056	2
147.4499	1
147.6243	2
147.7601	1
147.9563	30
148.2857	1
148.6494	2
148.9587	70
149.3009	2
149.4284	1
149.9436	10
150.2533	1
150.5210	2
150.9347	24
151.1460	3
151.8872	79
152.9044	98
153.1398	4
153.9114	54
154.2433	1
154.9311	209
155.2316	1
155.9484	132
156.1996	2
156.4290	2
156.9594	293
157.4324	2
157.5959	3
157.9758	64
158.2195	1
158.4393	2
158.9699	188
159.5332	1
159.9688	25
160.5180	2
160.9831	84
161.3057	2
161.6436	1
161.9770	10
162.1624	1
162.2527	1
162.5955	2
162.9903	56
163.5049	2
163.9592	14
164.1475	4
164.2878	2
164.9334	171
165.9197	50
166.9515	138
167.4389	1
167.9703	58
168.2071	2
168.9757	195
169.3352	2
169.5070	2
169.9859	70
170.2996	1
170.9941	147
171.2754	1
171.4734	2
171.9923	30
172.2205	1
172.3853	2
173.0000	103
173.2477	1
173.9422	14
174.3771	1
175.0054	58
175.4045	1
175.9375	19
176.3168	1
176.5437	2
176.9693	32
177.2150	2
177.9195	77
178.1874	2
178.9345	122
179.2053	1
179.3106	0
179.9369	57
180.2642	1
180.9566	148
181.2533	2
181.5151	2
181.9669	65
182.2678	1
182.9779	156
183.2393	2
183.3630	1
183.5976	2
183.9936	45
184.2585	1
184.4314	2
184.9823	101
185.3039	2
185.5085	2
185.9864	17
186.4052	3
186.6093	2
186.9918	54
187.4917	2
187.9621	9
188.3079	2
188.5155	3
188.9545	59
189.1912	3
189.3113	2
189.4233	2
189.9273	18
190.2512	2
190.9559	111
191.5184	1
191.9440	55
192.9434	116
193.2226	1
193.9474	65
194.2708	2
194.4629	2
194.9656	129
195.2139	2
195.5754	2
195.9782	45
196.2754	2
196.5314	4
196.9859	130
197.5117	1
197.9752	23
198.4267	1
198.9854	57
199.2791	1
199.3971	1
199.9595	17
200.3551	2
200.5471	2
200.9918	34
201.9064	35
202.2698	2
202.4145	1
202.9519	56
203.9259	24
204.3053	2
204.9487	59
205.2868	2
205.4181	2
205.5678	1
205.9632	49
206.2497	1
206.5125	3
206.9720	98
207.2675	2
207.5277	2
207.6530	2
207.9820	34
208.2552	1
208.9836	103
209.3019	1
209.4492	1
209.9707	17
210.2946	1
210.6302	3
211.0006	56
211.3594	1
211.7313	1
212.0064	9
212.2978	0
212.5429	2
212.9976	27
213.3028	1
213.4715	1
213.6436	1
213.9708	6
214.2673	1
214.5235	2
214.9643	43
215.3156	1
215.3928	1
215.9616	21
216.2556	1
216.4198	2
216.9792	50
217.3760	1
217.9774	25
218.1718	2
218.3751	1
218.9823	53
219.2301	1
219.3212	0
219.5287	1
219.6642	1
220.0108	25
220.2560	2
220.6403	3
221.0206	67
221.3159	1
221.4181	1
221.6086	1
222.0349	16
222.2804	2
223.0237	51
223.3007	1
223.5065	0
223.6492	2
224.0306	12
224.3943	1
224.5452	2
225.0414	35
225.4574	2
225.6057	1
226.0265	16
226.2325	2
226.4124	1
227.0072	20
227.4538	2
227.9959	14
228.2749	0
228.4309	2
229.0125	33
229.2565	1
229.5047	1
230.0114	14
230.3364	1
230.4640	1
230.6485	1
231.0182	29
231.4202	1
231.5506	1
231.7557	3
232.0378	24
232.3068	2
232.4674	2
233.0247	45
233.3673	1
233.5987	2
234.0087	19
234.3095	1
234.4441	0
234.6138	1
235.0232	32
235.3537	1
235.5227	1
235.6986	1
236.0388	11
236.3158	1
236.4457	1
237.0451	29
237.4219	1
237.6860	1
237.8297	1
238.0752	10
238.2740	1
238.3930	1
238.5732	2
239.0266	25
239.3231	1
239.4422	0
239.5970	0
240.0202	8
240.2935	1
240.4690	1
241.0191	23
241.3392	1
241.5327	1
241.9652	10
242.0968	3
242.4467	1
243.0150	31
243.4036	1
243.5277	1
243.6393	2
244.0307	10
244.3747	1
244.4939	1
244.6938	1
245.0123	30
245.5012	1
245.7267	1
246.0163	11
246.4274	1
246.5930	1
247.0276	31
247.2580	1
247.4622	1
247.7314	2
248.0543	10
248.3704	2
248.4436	1
249.0379	25
249.4411	1
250.0281	8
250.2263	1
250.5661	2
251.0572	20
251.4241	2
251.5685	2
252.0093	9
252.3382	1
252.4689	1
252.6105	1
253.0183	20
253.4158	1
253.5617	1
254.0471	9
254.2227	3
254.5394	0
254.6729	1
255.0359	20
255.3928	0
255.6536	1
256.0569	7
256.4021	0
257.0186	26
257.2954	1
257.4442	1
257.6145	0
258.0194	9
258.1987	2
258.3344	1
258.5829	1
259.0329	24
259.2656	1
259.5800	1
260.0184	9
260.4423	1
260.5774	1
261.0381	27
261.3658	0
261.9853	5
262.5391	2
263.0548	20
263.4756	1
263.6996	0
264.0276	6
264.4048	1
264.5248	0
265.0498	17
265.3058	1
265.7540	2
266.0509	8
266.4096	2
266.5602	1
266.7684	3
267.0460	22
267.6075	2
268.0219	5
268.4753	1
269.0544	20
269.4245	0
269.6884	1
270.0309	5
270.3580	0
270.6053	1
271.0458	18
271.5232	1
271.7032	0
272.0569	8
272.2728	1
272.5904	0
273.0717	18
273.3117	0
273.5441	1
273.7258	1
274.0734	4
274.5223	0
274.7242	1
275.0711	12
275.5916	2
275.6964	2
276.0220	6
276.3184	1
276.5349	2
276.6155	1
277.0702	14
277.6021	1
278.0465	5
278.5042	0
278.7056	0
279.0641	11
279.3781	0
279.6490	1
279.7880	0
280.0652	5
280.3056	1
280.6197	1
280.7538	1
281.0645	9
281.4767	0
281.6796	1
282.0446	8
282.3039	1
282.4853	0
283.0478	15
283.3364	1
283.6924	1
284.0096	4
284.2405	1
284.5347	1
285.0509	11
285.3250	0
285.4530	1
285.7119	0
286.0417	5
286.3994	0
286.6332	2
286.7773	2
287.0877	10
287.3383	1
287.6411	1
287.8269	1
288.0699	2
288.3518	0
288.6049	1
289.0466	10
289.4778	1
289.8360	1
290.0037	2
290.1616	2
290.4601	1
290.6548	1
291.0737	8
291.7139	1
292.0348	5
292.4496	1
292.6313	1
293.0538	6
293.3706	1
293.5725	0
293.7911	1
294.0473	7
294.2472	1
294.5132	0
294.6887	1
295.0508	11
295.2416	1
295.5418	0
295.6617	1
296.0183	4
296.3576	1
296.4488	0
297.0717	12
297.4159	0
297.7699	1
298.0954	5
298.4961	0
298.7143	1
299.0593	7
299.4936	1
299.6561	0
300.0228	4
300.1274	2
300.2626	1
300.3728	0
300.5283	1
300.6908	1
301.0478	7
301.2710	1
301.5555	1
301.6943	1
301.8275	1
302.0912	4
302.3556	0
302.6625	0
303.0148	10
303.1383	6
303.2960	0
303.4167	1
303.6609	1
304.0628	4
304.3762	1
304.5402	1
305.0511	10
305.3735	0
305.5822	1
305.7805	1
306.0290	2
306.1951	1
306.6943	1
307.0309	6
307.3053	1
308.0448	3
308.1454	1
308.2320	1
308.4241	1
308.5030	0
308.6846	1
309.0737	5
309.4209	1
309.7017	1
309.8351	1
310.1048	3
310.2879	1
310.3836	1
310.5003	0
311.0349	6
311.3549	0
311.5905	1
311.7072	1
312.0727	3
312.3027	0
313.0590	7
313.4100	1
313.6498	1
314.0546	2
314.1966	1
314.5357	0
314.6868	1
315.0700	10
315.6624	1
315.8163	1
316.0366	3
316.1884	1
316.6760	1
317.0741	5
317.2112	2
317.6555	1
318.0627	3
318.3280	1
318.7584	0
319.0558	6
319.2462	2
319.5493	0
319.6570	0
320.0609	6
320.1862	3
320.5930	1
320.7841	1
321.0866	6
321.3365	0
321.4822	1
321.6712	0
321.8183	1
322.1201	2
322.4128	1
322.6559	0
323.0432	5
323.3521	1
323.6281	1
323.9874	2
324.2964	0
324.6586	1
324.9893	3
325.1539	3
325.3536	0
325.4973	1
325.8238	1
326.0957	1
326.5702	0
326.7524	0
327.0769	3
327.3194	1
327.6510	0
327.9090	1
328.1424	1
328.5862	0
328.8547	1
329.0882	8
329.2207	2
329.7200	0
330.1429	3
330.7235	1
331.0714	6
331.2040	3
331.7250	1
331.8582	2
332.0930	4
332.2836	2
332.3600	1
333.0729	5
333.2727	1
333.4781	1
333.6324	1
333.9381	0
334.0888	3
334.2788	1
334.4555	1
334.6435	1
334.7837	1
334.9008	1
335.1077	7
335.3524	0
335.5355	0
335.9331	0
336.1295	3
337.1228	6
337.5283	1
337.7177	1
337.8664	1
338.1709	3
338.7610	2
338.9182	0
339.1133	2
339.2782	0
339.8375	0
339.9512	0
340.0719	2
340.1709	1
340.4187	0
340.8131	1
340.9114	1
341.1508	4
341.7517	1
341.9637	1
342.1224	1
342.2733	1
342.6195	1
343.0892	4
343.2725	1
343.7486	0
344.0913	3
344.2149	1
344.6370	2
344.9060	1
345.0739	4
345.2095	2
345.2924	1
345.4637	1
345.9253	1
346.1290	5
346.2829	1
346.4325	0
346.5885	1
346.7887	1
347.1484	5
347.6003	0
348.1463	5
348.2327	2
348.9439	2
349.1829	8
349.5997	0
350.1655	4
350.6414	1
350.8798	1
351.1659	3
351.8043	0
351.9935	1
352.2164	1
352.8464	1
353.1137	4
353.2726	1
353.7305	0
354.0526	0
354.2031	0
354.5555	1
354.7799	1
355.1851	2
355.7395	1
355.9273	1
356.0997	2
356.2341	1
356.4149	0
356.5479	1
356.6373	0
356.8125	0
357.1291	3
357.3944	1
357.4880	1
357.6435	0
357.8138	0
358.1537	2
358.5357	1
358.7124	0
358.8617	2
359.1498	3
359.3460	2
359.9069	1
360.2014	3
360.3598	1
360.5259	0
360.7791	2
361.2019	4
361.4038	1
361.5812	1
361.6857	1
362.1647	6
362.4396	0
362.6507	0
362.7881	1
362.9376	1
363.2097	5
363.6572	1
363.8697	0
364.1230	2
364.2787	2
365.0539	2
365.2335	1
365.6117	1
365.7408	1
366.0537	2
366.1828	1
366.2986	1
366.6417	1
367.1133	1
367.7126	1
367.9218	1
368.0270	1
368.5647	1
368.8279	1
369.0181	2
369.2140	1
369.5551	1
370.1168	0
370.2740	0
370.5057	1
370.9038	2
371.1404	2
371.4473	1
372.0076	0
372.2113	1
372.6284	0
372.8701	1
373.0325	3
373.1906	3
373.3347	1
373.7662	1
373.9539	1
374.1514	4
374.2526	1
374.8395	2
375.1425	5
375.5383	0
375.6895	0
376.0572	2
376.2428	1
377.0415	0
377.1891	2
377.7039	0
377.9486	0
378.1455	0
378.2848	1
378.5872	0
378.8460	0
379.0576	0
379.8215	1
380.1317	1
380.4855	1
380.6600	0
380.7845	0
380.9308	1
381.0941	1
381.3009	0
381.9383	0
382.0896	1
382.4794	0
382.6595	0
383.1028	2
383.6165	2
384.1443	2
384.3280	1
384.6102	1
384.7503	1
384.8481	0
385.0529	1
385.2071	2
385.3330	1
385.5006	1
385.6758	1
385.9124	1
386.1672	3
386.5044	1
386.9035	1
387.0922	3
387.2992	1
387.7350	1
387.8596	0
388.1321	3
388.3588	1
388.5898	0
388.7229	0
389.1313	2
389.2777	1
389.7306	0
389.8940	1
390.0313	1
390.1045	0
390.2827	0
390.7870	1
391.1687	1
391.2948	1
391.4991	0
391.5956	0
391.8301	0
392.1436	1
392.2986	0
392.6867	1
392.9044	1
393.0468	2
393.1905	0
393.5899	1
393.9274	0
394.2050	1
394.5573	0
394.8068	1
395.0393	2
395.2408	2
395.5361	1
395.9385	1
396.1091	1
396.2690	1
396.5961	1
396.8808	1
397.1085	2
397.3037	2
397.4827	0
397.7287	1
397.8965	0
398.0340	1
398.1869	1
398.3709	0
398.5923	0
398.7290	0
398.8700	0
399.1633	3
399.9008	1
400.0798	1
400.6241	0
400.8688	1
401.1897	3
401.4703	0
401.7616	2
401.9569	1
402.2164	4
402.5437	1
402.7834	1
403.1883	4
403.6341	0
404.2357	4
404.7170	1
405.1324	1
405.2415	1
405.7717	1
406.0575	1
406.9053	1
407.2159	1
407.4391	0
407.6180	1
407.8483	1
408.1279	1
408.3004	0
408.4300	0
408.6969	0
408.8117	0
408.9815	1
409.1435	0
409.5210	0
409.9000	1
410.1613	2
410.2374	1
410.5459	1
410.8383	0
411.0602	1
411.2109	2
411.3582	1
411.7915	1
412.0775	1
412.2544	1
412.4214	1
412.6989	1
413.1739	3
413.4579	0
413.5382	0
413.7968	0
413.9117	0
414.1653	5
414.8820	1
414.9744	0
415.2027	1
415.3994	1
415.5410	1
415.7342	1
416.1260	3
416.3495	1
416.5567	0
416.6688	0
416.8288	0
417.1129	1
417.1932	1
417.2877	0
418.1569	1
418.2979	1
418.4037	0
418.5256	0
418.6716	0
418.7851	0
418.8767	0
419.1299	1
419.2610	0
419.3703	0
419.5804	0
420.0965	1
420.1974	1
420.3871	0
420.6367	1
421.0294	2
421.3112	2
421.5999	1
422.1527	1
422.6788	1
422.8929	1
423.0309	2
423.1499	1
423.2591	2
423.4422	1
423.8218	0
424.1430	1
424.2972	1
424.7191	1
424.8903	1
425.0826	1
425.2383	0
425.4109	1
425.8835	0
426.0956	1
426.2872	1
426.6451	2
426.7881	0
427.1340	2
427.3151	2
427.6025	0
427.8273	1
428.2056	5
428.5276	1
428.7848	1
429.1442	3
429.4183	0
429.7523	0
429.8566	0
430.2597	1
430.6269	1
430.8447	0
431.1506	2
431.3648	0
431.5100	1
431.7046	1
432.1253	1
432.3340	1
432.4637	1
432.6533	1
432.8401	0
432.9881	1
433.1376	1
433.4421	1
434.0166	2
434.1696	1
434.4333	0
434.5919	1
434.8633	3
435.0995	1
435.3724	2
435.4922	1
436.0549	1
436.2115	2
436.4702	0
436.7022	1
436.8510	4
437.1387	2
437.4173	1
437.5216	0
437.7113	1
437.8397	1
438.0583	2
438.3341	2
438.5591	3
438.7826	2
440.8585	18
441.3473	12
441.7854	6
441.9942	6
442.2440	3
442.3646	3
442.5269	3
442.6898	2
442.8055	1
443.0087	2
443.1922	2
443.3784	3
443.5753	0
443.8032	1
443.9831	2
444.2280	2
444.4340	1
444.6436	1
444.8024	1
445.0889	2
445.2603	2
445.4375	0
445.6957	1
446.0691	1
446.2646	1
446.4375	1
446.6421	1
446.7960	1
447.1708	2
447.4940	1
447.7213	1
447.9493	1
448.0686	1
448.1907	1
448.3177	0
448.4773	0
448.8365	0
449.0455	1
449.2128	1
449.3215	1
449.6992	2
449.8707	1
450.0444	1
450.2025	0
450.3522	1
450.5012	0
450.7737	1
450.8718	1
451.2128	2
451.2997	1
451.4854	1
451.6979	1
451.7854	1
452.0304	3
452.2430	1
452.4865	0
452.6186	1
452.8170	2
453.2167	3
453.3749	2
453.4857	1
453.5627	0
453.7265	1
453.9299	0
454.0634	2
454.2350	1
454.4355	2
454.5959	2
454.7703	1
454.8939	1
455.0698	1
455.3127	1
455.5974	0
455.8897	1
456.2025	2
456.4012	1
457.0043	0
457.2657	2
457.4644	2
457.6152	1
457.8245	1
458.0866	2
458.2684	3
458.5678	0
458.9152	1
459.0153	0
459.1358	1
459.2760	0
459.4705	1
459.5347	0
460.0244	1
460.1372	1
460.3162	2
460.5178	1
460.8842	1
461.0308	1
461.1802	1
461.3811	1
461.6222	1
461.9872	2
462.2776	3
462.4475	1
462.6075	0
462.9459	1
463.1912	2
463.6543	0
463.9067	1
464.0942	1
464.1929	0
464.3903	1
464.4706	0
464.6800	0
464.8647	0
465.0593	1
465.2363	0
465.3561	1
465.7573	0
466.0238	0
466.5321	1
466.7211	1
466.8276	1
466.9686	1
467.0687	1
467.2796	1
467.4904	0
467.9600	3
468.2231	6
468.3274	3
468.4233	1
468.8620	1
469.1793	3
469.3239	2
469.4501	1
469.5355	0
469.7026	1
469.9628	0
470.2576	3
470.7097	1
470.8882	1
471.0638	1
471.2641	1
471.6782	1
471.8644	0
472.0414	2
472.2262	0
472.3631	1
472.5592	1
472.8950	1
473.0621	1
473.2886	2
473.4875	1
473.5955	0
473.7182	0
473.9552	2
474.0540	0
474.3411	1
474.6713	1
474.8272	1
475.2745	3
476.2426	157
476.6850	2
477.0195	1
477.2657	2
477.6644	1
477.9319	2
478.0723	1
478.1683	1
478.3024	1
478.4216	1
478.8288	1
478.9100	0
479.1838	2
479.3109	1
479.5423	0
479.8260	0
480.6003	0
480.7923	1
481.2546	1
481.5490	1
481.8468	1
481.9908	1
482.1588	1
482.3021	0
482.7589	0
482.9325	1
483.1570	1
484.0256	1
485.5552	0
486.0540	1
486.3349	0
486.4880	1
486.6270	0
486.8324	1
486.9114	0
487.2917	1
487.5225	1
488.2444	3
488.4844	1
488.6552	0
488.9064	1
489.2826	8
489.6185	0
489.7392	1
490.5403	0
490.6913	0
491.0019	1
491.1198	1
491.2765	1
491.6153	0
491.7621	1
492.6247	0
492.8414	1
492.9876	2
493.1739	1
493.3052	1
493.8269	2
494.0098	2
494.2993	1
494.5195	1
494.6558	1
494.9580	1
495.2326	0
495.3350	1
495.4896	1
495.5814	1
495.6852	0
496.1491	0
496.2691	1
496.4704	0
497.2294	1
497.4159	1
497.4935	0
498.0020	1
498.3487	1
498.6347	1
499.1093	1
500.3593	1
500.9004	1
501.3976	1
501.8150	1
502.6676	0
502.8124	1
502.9643	0
503.4256	0
503.5916	0
504.3065	0
505.1267	1
505.2546	0
505.7930	1
506.0339	1
506.2437	1
507.2442	0
507.7516	0
508.1706	2
508.9571	1
509.2532	2
509.4093	1
509.9526	0
510.0421	0
510.2988	2
510.3904	1
510.7838	1
510.9368	1
511.2555	0
511.4776	1
511.6447	0
512.0776	1
512.2877	1
512.4583	1
513.0506	1
513.1522	1
513.3397	0
513.4589	0
513.8834	1
514.2825	1
514.5582	1
514.8086	1
515.2670	1
516.6260	1
516.7374	0
516.8679	0
517.2205	1
517.3954	0
518.4731	1
518.6573	0
518.8152	0
519.0488	3
519.1827	2
519.4353	2
519.9531	1
520.1985	1
520.3826	1
520.5499	1
520.8299	1
520.9780	1
521.1354	1
521.4048	1
521.5784	1
521.7252	0
521.9495	1
522.1752	1
522.5110	1
522.7164	1
522.8970	0
523.2526	2
523.4459	1
523.5891	1
523.8212	0
524.0809	1
524.2206	2
524.5240	2
524.7455	0
525.0250	1
525.1498	1
525.3157	0
525.4385	2
525.5211	1
525.7991	1
526.0086	1
526.3650	1
526.5245	2
526.7870	1
527.3784	0
527.6190	1
527.7969	1
527.9479	1
528.1935	0
528.3544	1
528.6014	1
528.7348	1
528.9254	1
529.0637	1
529.3043	0
529.4928	1
529.6890	0
529.8400	1
530.3398	1
530.5698	0
530.8134	2
531.0011	2
531.1606	1
531.4409	1
531.5665	1
531.9647	2
532.1637	1
532.3726	1
532.5654	1
532.7016	1
532.9903	1
533.2593	1
533.5367	2
533.6504	1
533.9052	2
534.1544	5
534.3394	3
535.1838	9
535.6109	0
535.8503	3
535.9562	1
536.1101	3
536.2400	3
536.4539	3
536.6128	1
536.7554	1
536.9503	1
537.2271	3
537.7023	2
537.9021	2
538.2622	7
538.4606	4
539.1626	4
539.4747	6
539.6421	3
539.7903	3
539.9944	2
540.2416	4
540.4641	4
540.7988	3
541.3730	5
541.5905	3
542.1923	5
542.6400	6
542.9508	2
543.3838	5
543.7913	6
544.1318	7
544.3677	5
545.0868	5
545.7077	7
546.0376	6
546.3484	7
546.7574	11
547.1248	11
547.4590	10
549.9720	163
551.2488	22
551.6042	9
552.2713	18
552.5822	11
553.2341	38
553.7112	6
554.3174	13
554.4591	7
555.0498	12
555.2014	5
555.3853	8
555.5975	5
555.8992	8
556.1946	7
556.5034	9
556.9285	8
557.3465	8
558.1481	9
558.8108	9
559.4143	11
559.8923	9
560.1765	10
560.5763	12
560.8886	12
568.3274	999
568.9220	379
569.7805	170
570.4767	84
571.3521	40
572.2206	28
573.4255	14
573.7318	7
574.3216	6
574.7365	8
574.8776	5
