Mass spectrum: beta-Carotene-5,6,5'8'-diepoxide; FAB-EBEB; MS2; m/z: 568.43; [M]+*
Name: beta-Carotene-5,6,5'8'-diepoxide
Formula: C40H56O2
Exact mass: 568.42803
SMILES: C(=CC(C)=CC=CC=C(C)C=CC=C(C)C(C=4)OC(C43)(CCCC(C)(C)3)C)C=C(C=CC(C21C)(C(CCC2)(C)C)O1)C
InChI: InChI=1S/C40H56O2/c1-30(19-13-20-32(3)23-28-40-37(7,8)25-16-27-39(40,10)42-40)17-11-12-18-31(2)21-14-22-33(4)34-29-35-36(5,6)24-15-26-38(35,9)41-34/h11-14,17-23,28-29,34H,15-16,24-27H2,1-10H3/b12-11+,19-13+,21-14+,28-23+,30-17+,31-18+,32-20+,33-22+/t34?,38-,39-,40+/m1/s1
Instrument: JMS-HX/HX 110A, JEOL
Instrument type: FAB-EBEB
Ms type: MS2
Ion mode: POSITIVE
Collision energy: 3 kV
Ionization: FAB
Base peak: 488.4550
Precursor m/z: 568.43
Precursor type: [M]+*
m/z	relative intensity
0.1156	0
6.4021	0
14.0105	1
15.0195	4
22.9800	3
25.0142	0
26.0081	6
27.0181	34
28.0229	5
29.0337	36
30.0883	0
31.0424	1
35.0072	2
35.9195	1
37.0046	3
38.0069	8
38.4874	0
39.0191	86
39.4266	0
40.0285	14
41.0344	208
42.0324	6
43.0157	533
44.0317	4
44.3802	0
45.0272	4
45.4921	0
47.7615	0
48.3540	0
48.9850	1
50.0140	18
51.0147	52
52.0257	24
53.0334	105
53.5247	0
54.0409	6
55.0402	308
56.0503	10
57.0459	34
58.0487	2
59.0388	9
60.0172	2
60.5021	0
61.0326	3
62.0198	12
62.3649	0
63.0250	47
63.5345	0
64.0249	12
64.6551	1
65.0384	92
65.4890	1
66.0489	24
67.0441	150
67.5078	1
68.0395	14
69.0554	599
70.0412	14
70.5027	1
71.0389	82
71.5640	0
72.0206	1
73.0226	1
74.0194	11
74.3495	0
75.0366	23
76.0102	12
77.0275	279
78.0356	62
79.0454	289
80.0595	56
81.0527	263
81.7347	0
82.0386	15
83.0611	96
84.0498	5
85.0500	38
85.6835	0
86.0413	6
87.0249	8
87.4870	0
88.0491	4
89.0478	37
90.0040	14
91.0548	617
92.0644	69
93.0711	449
94.0733	36
95.0656	552
95.7187	1
96.0599	23
97.0693	35
97.4804	1
98.0495	5
98.5527	0
99.0317	8
99.3321	0
99.5686	1
99.9909	2
100.4712	3
101.1000	9
102.0749	31
103.0687	115
104.0603	60
105.0789	740
105.6510	2
106.0860	88
107.0874	425
108.0816	89
108.5388	3
109.0893	332
110.0696	11
111.0833	41
111.6855	1
112.0614	2
112.2642	1
113.0557	22
113.4806	4
114.0891	12
115.0544	306
116.0667	109
117.0658	293
118.0583	71
118.4069	5
119.0737	623
120.0853	82
121.0807	437
121.6445	4
122.0707	101
123.0797	253
124.0534	15
125.0610	26
125.4307	4
126.0413	18
127.0501	120
128.0588	363
129.0579	431
130.0582	170
131.0666	434
132.0666	102
133.0705	369
133.5427	6
134.0632	67
135.0667	462
136.0729	79
137.0802	68
137.5546	2
138.1024	9
138.4835	4
139.0650	86
139.5404	3
140.0438	22
140.3135	9
141.0596	307
142.0639	281
143.0652	477
144.0689	180
145.0749	551
145.5950	9
146.0778	87
147.0844	260
148.0698	53
149.0895	554
150.0767	47
150.4972	3
151.0983	56
152.0719	137
153.0758	189
154.0735	91
154.4493	6
155.0848	333
156.1012	214
157.1030	485
158.0972	106
159.1119	369
160.1063	56
161.1213	206
162.1174	48
163.1199	155
164.1246	170
165.1273	849
166.1038	127
167.1122	242
168.1214	108
169.1155	302
170.1301	125
171.1313	309
172.1176	87
173.1259	193
174.1236	46
174.6148	3
175.1418	124
176.1152	45
177.1319	357
178.0882	147
178.5523	5
179.1034	232
179.5308	6
180.1022	90
180.5284	5
181.1031	234
181.4982	7
182.1146	120
183.1153	272
184.1152	88
185.1071	203
185.6405	4
186.1254	67
187.1286	113
188.1066	24
189.1038	131
190.0915	52
191.1243	351
192.1175	185
193.1026	195
194.0897	103
195.1090	222
196.1130	97
197.1161	209
198.1227	63
199.1283	147
200.0999	41
200.5787	5
201.1210	83
201.5553	7
202.0893	73
203.1071	159
204.1182	57
205.1356	712
206.1188	110
207.1126	144
208.1156	60
209.1190	169
210.1200	56
211.1317	143
212.1569	52
213.1535	101
214.1172	26
214.4076	6
215.1322	114
216.1272	44
216.5399	8
217.1460	154
218.1638	133
218.6103	6
219.1587	110
219.6214	3
220.1628	51
221.1542	114
222.1737	43
223.1601	111
224.1747	38
225.1823	81
226.1700	33
227.1828	73
228.1654	43
229.1834	81
230.1804	36
231.1822	182
232.1610	33
232.5681	3
233.1839	80
234.1767	32
235.1551	70
236.1573	29
237.1672	75
238.1833	35
239.1719	78
240.2209	59
241.1781	99
241.6158	8
242.1751	25
243.1798	69
244.1717	31
245.1610	57
246.1872	33
247.1742	62
248.1703	35
249.1829	62
250.1592	19
251.1945	65
252.2051	39
253.2043	59
254.1333	14
255.2135	112
256.2133	44
257.1985	64
258.2239	64
259.1950	37
260.1739	19
260.6067	1
261.1869	33
261.5241	7
262.2149	14
263.2004	38
264.2010	22
264.6373	2
265.2108	49
266.2223	25
267.2134	63
267.7519	3
268.2034	40
268.6342	4
269.2334	84
270.2224	56
271.2427	133
272.2484	16
272.6245	3
273.2070	22
274.1657	8
274.6098	2
275.2384	31
275.7520	1
276.2302	20
277.2340	50
278.2115	12
278.6369	2
279.2469	37
280.2160	15
281.2519	70
282.2526	50
283.2624	171
284.2621	32
285.2532	26
286.2312	9
286.6159	3
287.2168	28
287.7082	1
288.2322	6
289.2716	23
290.2713	9
291.2445	40
292.2490	12
293.2434	33
294.2440	13
294.6185	4
295.2491	70
295.7052	3
296.2723	47
297.2676	51
298.2661	11
299.2070	17
300.1822	6
300.4786	3
301.2421	23
302.2014	7
303.2513	28
304.2036	14
304.6294	1
305.2347	30
306.1978	14
307.2501	31
308.2388	18
309.2381	122
310.2287	15
311.2477	25
312.1956	5
312.8836	4
313.2298	9
314.0265	3
315.2663	15
315.7539	1
316.2387	6
317.2723	20
318.2763	17
319.2835	37
320.2716	21
321.2509	58
322.2795	13
323.2398	17
324.2985	42
325.3113	9
325.6465	3
326.1574	5
326.6953	0
327.2391	11
327.9022	1
328.2941	5
329.2093	11
330.2632	12
330.6523	2
331.2785	19
332.2314	10
332.5410	3
333.2643	27
334.2930	19
335.2876	67
336.2942	625
337.2891	42
338.2678	8
338.6864	1
339.3077	10
340.3076	3
341.2718	7
341.7160	2
342.2869	5
343.3051	13
344.3146	9
345.2735	15
346.3026	15
347.3289	39
348.2689	27
349.2940	122
350.2686	23
351.2776	12
352.2390	6
353.2887	6
354.2056	4
354.6447	3
355.3123	22
356.2220	5
356.6552	2
357.3306	14
358.3391	8
359.3322	20
360.3133	13
361.3229	51
362.3223	27
362.7525	3
363.3023	55
363.8506	2
364.3527	4
364.7517	2
365.2418	4
365.7813	1
366.2387	5
366.6677	3
367.3448	8
368.2807	13
369.0806	5
369.6653	1
370.3965	5
371.3447	12
372.3364	7
372.7192	1
373.3228	22
373.8113	2
374.3313	26
375.3250	58
376.3352	49
377.3814	9
378.1602	5
378.7791	3
379.3996	8
380.2877	6
380.8754	2
381.3450	5
382.2094	5
382.4547	3
383.2968	7
383.8622	1
384.3619	6
384.8990	2
385.4196	9
386.3234	8
386.7439	2
387.3904	29
388.4096	17
389.3437	59
390.2464	5
390.5952	4
391.4202	7
392.1134	4
392.4129	2
393.4462	12
393.8192	3
394.2939	5
394.6624	3
395.3889	20
396.3641	6
397.3185	9
397.6616	2
398.3119	5
398.6551	1
399.3849	9
400.3485	6
401.3618	27
402.3691	67
403.3796	150
404.3902	100
404.9409	5
405.8192	2
406.1484	3
406.4926	3
407.4054	7
408.3917	19
408.9261	1
409.4110	4
410.4050	34
411.3123	4
412.4143	3
413.3846	12
414.1169	4
414.4808	6
414.7594	2
415.3885	12
415.8528	1
416.3321	9
416.5883	4
417.3672	28
418.3321	6
419.2655	5
419.5652	3
420.4793	3
421.4156	12
422.3796	145
423.3976	5
424.3364	4
425.3052	8
425.9297	2
426.4494	6
427.3585	10
428.3620	8
428.7874	1
429.3357	15
430.3214	8
430.5177	4
431.3732	22
432.3561	69
433.3316	6
433.8052	1
434.3372	6
434.6640	2
435.3684	7
436.1194	3
437.2286	5
437.6334	1
438.2915	7
440.3412	9
441.3159	12
442.2922	5
442.9041	1
443.3331	4
443.8371	1
444.4236	5
445.3642	18
446.3933	5
447.3311	9
447.8397	2
448.4294	16
449.3883	44
449.9060	3
450.4883	3
450.9431	2
451.4924	4
452.3976	6
453.2697	6
454.2425	6
455.3835	22
456.2627	8
457.3735	30
459.4409	28
460.2252	15
461.4518	19
462.3965	22
462.8690	3
463.4389	5
464.1273	3
464.5848	3
465.4383	3
466.1718	5
466.4899	6
467.4335	5
468.5092	9
472.7576	79
475.2718	162
476.4307	122
476.9967	12
477.7834	7
478.4081	3
478.9846	2
479.5733	2
480.3932	2
480.8857	2
481.4564	6
482.0436	1
482.5228	8
483.4673	12
483.9188	3
484.4527	5
485.0047	2
485.2507	1
486.4027	20
487.4708	21
488.4550	999
489.4437	24
490.1939	3
490.6620	4
491.1077	3
491.3583	4
491.7079	2
492.0681	0
492.5648	1
493.3077	2
493.5869	2
494.1046	3
494.4273	2
494.9226	2
495.4120	9
496.3756	4
496.6909	3
497.5120	6
498.4022	9
499.3210	5
499.5042	3
499.9156	2
500.4982	6
501.3075	3
501.8451	1
502.2130	1
502.4532	0
503.1230	1
503.4428	2
503.8453	1
504.4311	1
504.8711	2
505.2992	2
505.5425	1
506.2079	1
507.3314	6
507.5492	3
507.7505	1
508.2943	2
508.5136	3
509.5021	9
510.4660	10
511.4597	8
512.3560	5
512.6482	4
513.2388	5
513.5026	3
513.7469	3
514.6313	5
515.2760	5
515.6852	2
516.2100	4
516.8021	3
517.2639	1
518.0091	1
518.4874	2
518.9642	1
519.2836	3
519.6255	5
520.0604	2
520.5447	5
521.1041	1
521.5854	2
522.3638	2
522.9007	3
523.5576	14
524.4260	19
525.4745	36
526.4421	22
526.8111	5
527.4276	7
527.6091	3
528.0712	1
528.4838	3
529.1454	5
529.4605	1
529.7366	1
530.2332	2
530.4448	1
530.6938	1
530.9234	1
531.5896	4
532.4539	3
532.9791	2
533.4608	3
534.0461	6
534.5504	6
535.5229	23
535.9026	6
536.4730	8
537.4711	25
538.4152	27
538.7079	13
539.5081	45
540.5484	23
541.3816	6
541.6909	5
541.9851	3
542.3275	7
544.2989	13
550.5628	283
551.5977	91
552.4764	88
553.5377	882
554.6188	16
568.4069	999
571.5823	148
572.6478	64
573.2617	35
