Mass spectrum: beta-Cryptoxanthin; FAB-EBEB; MS2; m/z: 552.43; [M]+*
Name: beta-Cryptoxanthin
Formula: C40H56O
Exact mass: 552.43312
SMILES: C(=CC(=C(C)2)C(C)(C)CCC2)C(C)=CC=CC(=CC=CC=C(C=CC=C(C)C=CC(=C(C)1)C(C)(C)CC(C1)O)C)C
InChI: InChI=1S/C40H56O/c1-30(18-13-20-32(3)23-25-37-34(5)22-15-27-39(37,7)8)16-11-12-17-31(2)19-14-21-33(4)24-26-38-35(6)28-36(41)29-40(38,9)10/h11-14,16-21,23-26,36,41H,15,22,27-29H2,1-10H3/b12-11+,18-13+,19-14+,25-23+,26-24+,30-16+,31-17+,32-20+,33-21+/t36-/m1/s1
Instrument: JMS-HX/HX 110A, JEOL
Instrument type: FAB-EBEB
Ms type: MS2
Ion mode: POSITIVE
Collision energy: 3 kV
Ionization: FAB
Base peak: 105.1125
Precursor m/z: 552.43
Precursor type: [M]+*
m/z	relative intensity
1.1078	0
14.0209	0
15.0342	2
22.9841	0
25.0290	0
26.0274	5
27.0375	36
28.0424	4
29.0495	41
30.0338	0
31.0286	3
31.9470	0
32.8265	0
35.0548	0
36.0119	0
37.0196	3
38.0375	11
39.0419	90
39.4720	0
40.0444	11
41.0564	228
42.0628	3
42.6673	0
43.0620	128
43.5443	0
44.0378	2
45.0459	4
48.0318	0
48.5161	0
49.0378	2
50.0335	23
51.0415	58
52.0509	23
53.0580	115
54.0695	5
55.0738	344
56.0843	6
57.0885	96
58.0860	1
59.0755	15
59.5125	0
60.0382	1
60.6683	0
61.0409	3
61.3684	0
62.0410	17
63.0547	52
64.0457	11
65.0606	97
66.0676	16
67.0774	167
68.0766	5
69.0914	454
69.6944	0
70.0859	3
70.5285	1
71.0790	25
71.6837	0
72.0754	0
72.3235	0
73.0678	1
74.0330	13
75.0622	20
75.6257	1
76.0640	13
77.0628	307
78.0658	62
79.0754	315
80.0817	34
81.0908	363
82.0902	8
83.1024	99
84.0758	2
85.0894	82
86.0489	6
87.0587	11
88.0734	5
89.0856	36
90.0785	13
91.0902	701
92.0966	65
93.1077	480
94.1151	27
95.1220	366
96.1014	9
96.6343	0
97.1227	23
98.0687	6
98.3581	0
99.0824	5
99.4060	0
100.0306	2
101.0871	12
102.0832	39
103.0981	124
104.1044	59
105.1125	999
106.1193	88
107.1235	457
108.1203	26
109.1345	195
110.1095	7
111.1204	19
111.5835	0
112.0734	2
113.0835	8
114.1043	14
115.0830	380
116.0896	139
117.0937	398
118.1006	79
119.1063	982
120.1094	97
121.1165	340
122.1250	21
123.1188	104
124.1179	5
125.1330	10
126.0619	20
127.0756	139
128.0742	445
129.0809	536
130.0847	210
131.0952	581
132.0986	108
133.1073	508
134.1091	44
135.1098	152
136.1130	8
137.1282	58
138.0925	8
139.0743	63
140.1283	23
141.0806	386
142.0914	355
143.0992	664
144.1093	196
145.1135	710
146.1215	66
147.1263	227
148.1431	18
149.1359	71
149.5975	3
150.1131	15
151.1091	49
152.0991	145
153.1038	215
154.1135	107
155.1214	448
156.1301	269
157.1382	628
158.1486	122
159.1570	398
160.1634	50
161.1721	134
162.1661	11
163.1526	36
164.1342	25
165.1277	337
166.1429	122
167.1435	294
168.1486	126
169.1558	441
170.1609	157
171.1668	352
172.1663	66
173.1735	223
174.1688	21
175.1886	143
176.1332	34
177.1754	76
178.1212	178
179.1268	292
180.1316	128
181.1370	329
182.1430	127
183.1482	386
184.1513	82
185.1620	192
186.1506	34
187.1653	105
188.1509	17
189.1257	101
190.1124	39
191.1095	124
192.1242	121
193.1324	252
194.1411	129
195.1433	339
196.1475	95
197.1578	277
198.1716	43
199.1701	107
200.1521	24
201.1731	84
202.1190	82
203.1467	130
204.1335	45
205.1321	123
206.1427	95
207.1510	217
208.1568	80
209.1660	241
210.1799	48
211.1929	116
212.1963	23
213.1800	47
214.1843	11
215.1589	88
216.1568	41
217.1667	106
218.1684	44
219.1820	123
220.1917	58
221.1976	153
222.2153	44
223.2090	121
224.2117	25
225.2379	74
226.1939	28
227.2148	40
228.1794	33
229.1862	75
230.1717	35
231.1879	86
232.1871	40
233.1982	102
234.2227	34
235.2202	94
236.2209	25
237.2364	76
238.2349	15
239.2164	66
240.2041	16
241.2166	50
242.1991	24
243.2167	65
244.2100	28
245.2109	72
246.2280	30
247.2223	82
248.2358	20
249.2452	64
250.2390	19
251.2548	53
252.2142	24
253.2402	57
254.2287	20
255.2408	52
256.2257	22
257.2296	50
258.2339	20
259.2400	53
260.2565	23
261.2529	56
262.2787	13
263.2641	45
264.2599	13
265.2735	42
266.2641	15
267.2782	49
268.2547	19
269.2650	50
270.2698	15
271.2599	29
272.2634	15
273.2686	35
274.2827	11
275.2928	35
275.7753	6
276.2856	22
277.2743	26
278.2895	10
279.2831	32
280.2667	12
281.2841	32
282.2740	16
283.2787	32
284.2822	9
285.2948	31
286.2653	8
287.2839	25
288.2984	8
289.2898	26
290.2726	7
291.2703	20
292.2975	7
293.2970	18
294.2778	8
295.2691	17
296.2664	9
297.2932	21
298.2850	10
299.2742	15
300.2972	6
301.2795	17
302.2678	7
303.2885	18
303.7484	1
304.3007	7
305.3028	15
306.2611	8
307.2885	14
308.3103	5
309.2824	12
309.8147	1
310.3134	7
311.2976	13
312.2952	3
313.2871	12
314.2675	3
315.3185	15
316.2713	4
317.2993	17
318.3053	5
319.3013	18
320.2607	8
321.3187	13
322.3270	6
323.3105	7
324.3029	3
324.6631	1
325.3073	8
326.2942	2
327.3107	9
327.6594	1
328.3151	4
329.3048	14
330.4064	6
331.3274	13
332.3353	8
333.3272	20
334.3442	6
335.3379	12
336.3200	5
337.3198	10
338.3405	6
339.3171	4
339.9394	1
340.3366	3
340.7809	1
341.3327	7
342.3569	6
343.3209	9
344.3631	5
345.3200	12
346.3684	19
347.3448	12
348.3508	9
349.3422	14
350.3470	5
351.3343	7
352.3335	2
353.3225	5
354.3589	2
355.3286	5
356.3380	2
357.3505	10
358.3912	4
359.3642	17
360.3417	8
361.3622	11
362.3488	14
363.3209	7
364.4376	4
365.3966	3
366.3470	2
366.8221	1
367.3785	5
367.7401	2
368.3881	4
369.4056	4
369.8582	1
370.4008	3
371.3607	5
372.3325	4
373.3678	6
374.4283	4
374.7086	1
375.3813	12
376.4067	6
377.4441	4
378.1864	1
378.7634	1
379.3671	3
379.7420	1
380.3458	1
381.3777	4
382.3935	2
383.3991	5
383.9957	1
384.4299	3
384.8139	1
385.4106	8
385.7356	1
386.4269	7
387.4005	7
387.7728	1
388.4481	7
389.3347	2
390.3218	2
390.8554	0
391.4126	5
392.2803	1
392.9026	0
393.3905	3
393.7202	1
394.4343	10
395.4043	3
395.9086	1
396.4262	1
397.4038	6
398.3919	4
398.7484	1
399.4259	13
399.9215	1
400.4871	6
401.4066	6
402.4060	5
402.8341	1
403.4247	7
404.4109	3
405.4564	3
406.4311	2
406.5891	1
407.4516	7
408.4457	2
409.3823	1
410.0087	1
411.3946	3
412.4363	11
413.4309	6
414.4286	5
415.4485	12
416.4123	5
416.8110	1
417.4194	4
418.4768	2
418.8489	1
419.3570	3
420.4456	3
421.3600	2
422.3896	2
423.8819	3
425.3286	4
426.0069	2
427.3637	3
428.4073	16
430.5420	10
432.4701	2
432.8856	2
433.4180	4
434.3822	1
434.7949	1
435.4546	1
437.3317	4
441.9586	19
443.8279	9
445.4814	15
446.4762	17
447.5289	1
448.3106	1
448.9296	0
449.4953	2
450.4993	1
451.4876	3
452.4356	9
453.4975	3
454.5034	3
456.4649	7
457.3526	6
458.4549	7
459.4715	15
460.4926	826
461.1660	6
462.1783	2
462.7599	1
463.4912	2
463.8464	1
464.3808	2
464.8338	0
465.5251	3
465.7813	1
466.4771	3
466.9183	1
467.5106	4
468.4508	7
468.9617	1
469.5629	1
470.3967	2
471.5015	5
472.5057	14
473.5159	23
474.1811	1
475.2047	1
476.3425	1
477.3545	1
477.8878	0
478.5299	2
478.7785	0
479.0862	1
479.4990	2
479.8452	1
480.4341	1
481.3352	2
481.6326	2
482.4998	2
483.4557	3
484.4473	1
484.8011	1
485.1060	0
485.4952	0
486.4011	1
487.4254	1
488.2248	1
489.2626	1
490.4234	1
490.7343	1
491.4450	2
491.8078	1
492.4193	1
493.4722	2
494.5252	4
495.4775	3
495.9011	1
496.4980	4
497.5555	1
498.3229	1
498.9139	1
499.5080	1
500.1643	1
500.4191	0
500.9362	1
501.5940	1
502.1230	1
502.4889	1
502.8460	1
503.5188	2
504.4120	1
506.0779	3
507.4792	4
508.4430	4
509.4942	2
510.5439	3
511.5227	1
512.6953	2
514.1815	2
515.1945	1
515.9326	1
516.9531	1
517.8539	1
518.6186	4
519.4677	8
520.5195	5
521.4959	10
522.4931	12
523.4193	2
524.0629	0
524.4743	2
524.8664	1
525.5427	1
526.3077	1
534.5005	71
535.5724	30
536.5303	65
537.5713	302
538.5811	12
552.4133	999
555.9523	73
557.2205	25
558.5272	12
560.0411	6
561.3643	4
