Mass spectrum: Pyrrhoxathinol 5,8-furanoide; FAB-EBEB; MS2; m/z: 570.33; [M]+*
Name: Pyrrhoxathinol 5,8-furanoide
Formula: C37H46O5
Exact mass: 570.33452
SMILES: C(C4O)C(O1)(C(C(C)(C)C4)=CC1c(c2)c(oc2=CC(C)=CC=CC=CC=C(C)C#CC(C3(C)C)=C(C)CC(C3)O)=O)C
InChI: InChI=1S/C37H46O5/c1-24(15-16-31-26(3)18-27(38)21-35(31,4)5)13-11-9-10-12-14-25(2)17-29-19-30(34(40)41-29)32-20-33-36(6,7)22-28(39)23-37(33,8)42-32/h9-14,17,19-20,27-28,32,38-39H,18,21-23H2,1-8H3/b11-9+,12-10+,24-13+,25-14+,29-17-/t27-,28+,32?,37-/m1/s1
Instrument: JMS-HX/HX 110A, JEOL
Instrument type: FAB-EBEB
Ms type: MS2
Ion mode: POSITIVE
Collision energy: 3 kV
Ionization: FAB
Base peak: 42.9674
Precursor m/z: 570.33
Precursor type: [M]+*
m/z	relative intensity
0.0629	2
0.4418	0
1.1176	0
3.1667	2
3.2145	3
4.6062	0
4.9794	2
5.2072	2
5.5489	0
13.4061	0
13.9897	3
14.9979	13
15.1446	0
15.6290	0
16.4037	0
18.4761	1
18.9966	0
19.1672	0
20.1786	1
22.9517	5
24.9655	1
25.8807	1
25.9781	14
26.9818	76
27.9926	6
28.9881	82
29.9538	2
30.9723	21
32.8741	0
35.9502	2
36.9547	9
37.9654	32
38.9721	206
39.1091	2
39.4903	2
39.9781	28
40.6881	3
40.8065	0
40.9868	350
41.5818	1
41.9768	19
42.9674	999
43.2334	0
43.7323	2
43.9662	12
44.1086	1
44.9685	19
47.7247	2
47.9041	1
48.9629	9
49.7270	0
49.9633	100
50.1562	1
50.4992	2
50.9666	162
51.9746	57
52.9803	168
53.9905	8
54.9927	256
55.9957	15
57.0043	142
57.4907	1
57.9163	3
58.0135	5
58.9987	36
59.8342	1
59.9943	5
60.1425	2
60.3149	0
60.9685	20
61.4442	1
61.5710	1
61.9695	55
62.5885	1
62.6683	2
62.7830	1
62.9788	162
63.1730	2
63.3836	0
63.5693	2
63.6811	2
63.9845	29
64.2058	1
64.3274	1
64.6757	2
64.9860	197
66.0021	23
66.2414	0
66.9873	172
67.4143	1
67.9892	7
68.9766	318
69.2618	2
69.4301	2
69.4921	1
69.9824	20
70.9860	106
72.0058	5
72.2940	1
72.4825	2
72.7436	2
72.9917	8
73.1414	1
73.5357	1
73.9617	86
74.1853	0
74.9707	77
75.2983	2
75.4741	3
75.7040	1
75.9684	40
76.4804	2
76.6073	5
76.9704	366
77.1926	2
77.3210	2
77.5078	0
77.6656	2
77.9748	91
78.2392	1
78.9717	273
79.6533	2
79.9803	28
80.9918	184
81.1794	3
81.4540	0
81.9677	16
82.3814	3
82.5135	3
82.9829	253
83.2832	2
83.8012	2
84.0129	6
84.6552	2
84.9789	201
85.5846	2
85.9747	29
86.3282	3
86.9527	141
87.7800	3
87.9704	20
88.2949	2
88.5156	3
88.6384	2
88.9664	103
89.3828	5
89.6800	3
89.9588	34
90.2982	1
90.4752	1
90.5683	1
90.9771	549
91.3034	5
91.5771	3
91.6771	1
91.9820	38
92.3303	1
92.9868	188
93.5062	2
93.6796	2
93.9907	27
94.2105	3
94.5682	3
94.9939	244
95.4963	3
95.7285	2
95.9785	17
96.5046	1
96.9872	44
97.4555	2
97.9630	26
98.3788	1
98.9665	25
99.3948	1
99.9714	6
100.2760	3
100.5697	2
100.9876	30
101.1729	5
101.5555	3
101.6829	3
101.9903	76
102.1729	3
102.4050	4
102.4750	1
102.6317	2
102.9943	184
103.4129	3
103.5519	6
103.6171	3
103.9945	85
104.3244	1
104.5034	1
104.6502	1
105.0016	531
105.3620	2
105.5643	1
106.0136	63
106.1888	2
106.4613	5
106.6815	4
107.0005	173
107.2560	1
107.3657	2
107.6401	3
107.9945	40
108.3241	2
108.6989	1
109.0027	120
109.2422	3
109.6507	0
109.9650	12
110.1316	2
110.6855	3
110.9909	56
111.2049	2
111.6882	1
111.9262	7
112.0525	4
112.3919	2
112.7101	6
112.9762	29
113.1499	3
113.3734	6
113.8344	18
114.0140	18
114.4698	5
114.5815	3
114.9765	509
115.4248	5
115.5726	2
115.9707	101
116.3836	6
116.9892	233
117.3806	2
117.5263	3
117.9909	54
118.3441	1
118.4666	1
118.9813	297
119.3186	3
119.4297	3
119.5301	1
119.9719	48
120.3567	4
120.9836	253
121.2434	3
121.3128	2
121.6486	2
121.9686	42
122.4904	3
122.9639	71
123.4921	1
123.5893	2
123.7797	3
123.9414	11
124.0648	3
124.3277	3
124.4658	1
124.5803	3
124.9880	97
125.2538	3
125.4529	5
125.5304	2
125.9726	53
126.2412	4
126.3361	3
126.4862	7
126.9642	189
127.3057	7
127.4451	10
127.9687	457
128.2791	4
128.4231	9
128.5910	8
128.9731	407
129.4957	5
129.6290	2
129.9723	138
130.3563	3
130.4607	2
130.9817	227
131.5231	2
131.6696	2
131.9717	66
132.2152	4
132.3250	1
132.4562	6
132.9733	189
133.2080	3
133.5502	0
133.9643	35
134.2194	6
134.3547	2
134.4829	1
134.9610	87
135.9489	36
136.2182	5
136.5001	2
136.6501	2
136.9821	58
137.2368	1
137.7290	6
137.9852	16
138.3379	2
138.5292	6
138.9790	139
139.1985	2
139.3920	3
139.5230	5
139.9785	51
140.3247	6
140.5289	5
140.9803	408
141.2623	6
141.4268	3
141.5685	3
141.9708	230
142.2700	5
142.4236	4
142.5001	2
142.9819	311
143.2631	5
143.3900	2
143.5641	5
143.9639	77
144.3246	6
144.4386	1
144.9744	262
145.3178	2
145.5263	5
145.9761	51
146.2063	4
146.3212	2
146.4235	0
146.9853	145
147.4154	1
147.5954	3
147.8227	11
148.0192	31
148.2505	2
148.4471	0
148.9679	113
149.3337	2
149.5660	1
149.7246	7
149.9965	65
150.3336	3
150.4634	0
150.9825	83
151.2040	7
151.4459	13
151.9853	270
152.2393	10
152.4273	9
152.9943	280
153.4182	5
153.9982	120
154.3703	5
154.6268	2
155.0037	357
155.2643	3
155.3675	2
155.6037	4
156.0200	157
156.4715	6
156.6040	6
157.0173	232
157.3625	4
157.5295	5
158.0161	63
158.2608	5
158.4823	4
158.5858	1
159.0178	145
159.2713	1
159.5833	3
160.0096	25
160.3630	4
161.0016	101
161.4743	3
161.6066	2
161.9950	34
162.3157	5
162.5946	6
163.0119	108
163.3482	6
164.0116	39
164.3755	10
164.5734	9
165.0201	480
165.2582	12
165.4729	5
166.0460	158
166.4745	2
167.0474	262
167.3232	4
167.5490	3
168.0348	101
168.4733	10
169.0326	233
169.4467	5
169.5867	7
170.0424	83
170.3046	4
170.5195	3
171.0476	185
171.3207	5
171.4710	3
171.6854	5
172.0448	55
172.5521	6
173.0274	89
173.2695	4
173.4441	1
173.5765	3
174.0394	41
174.2288	2
174.3888	4
174.6010	6
175.0368	74
175.3723	3
175.5344	5
176.0000	96
176.3196	2
176.5401	4
177.0100	87
178.0221	317
178.4449	4
179.0275	369
179.3840	3
180.0289	123
180.3151	4
180.4723	2
181.0369	272
181.3441	6
182.0106	100
182.4647	6
182.6599	2
183.0442	199
183.4689	3
184.0561	54
184.3687	2
184.5998	3
185.0331	127
185.2487	6
185.3754	3
185.5109	4
185.5986	2
185.7307	3
186.0308	49
186.4024	2
186.5022	3
187.0257	86
187.3503	3
187.5237	5
188.0307	26
188.2852	10
189.0275	201
189.3592	9
189.5092	5
190.0053	94
190.5096	8
191.0235	220
191.3834	3
192.0146	159
192.4518	5
193.0368	311
193.3699	2
194.0120	126
194.3440	4
194.5372	5
195.0299	229
195.4448	8
195.5770	3
196.0381	78
196.3712	10
196.5645	3
197.0354	162
197.3951	3
197.5294	5
198.0433	48
198.4589	9
199.0288	112
199.4119	5
199.6912	10
199.7863	9
200.0351	56
200.2043	11
200.4212	8
200.5333	5
201.0242	102
201.4343	6
202.0214	228
202.4521	7
202.5984	8
203.0231	216
203.5256	8
204.0424	70
204.2175	18
204.3530	8
205.0254	198
205.4234	1
205.5788	5
206.0478	110
206.3989	3
206.6069	10
207.0345	221
207.4212	5
207.5515	5
208.0490	105
208.4707	3
208.5485	2
209.0509	207
209.4258	2
209.5528	3
209.7413	5
210.0766	41
210.4162	2
210.6471	5
211.0489	117
211.6394	5
211.8561	15
212.0824	30
212.4468	6
212.6164	7
213.0425	116
213.4180	6
213.5747	2
214.0311	39
214.4944	8
215.0482	237
215.3344	8
215.5090	5
216.0438	103
216.4130	12
216.6329	11
217.0618	172
217.3668	3
217.6012	4
218.0700	92
218.4972	6
219.0684	182
219.4250	4
220.0829	80
220.4953	4
221.0787	165
221.5544	10
221.7295	3
222.0907	48
222.2109	23
222.5659	4
223.0983	123
223.3704	2
223.7098	10
224.0768	37
224.2562	18
224.4603	4
225.0949	58
225.3004	8
225.4641	5
226.0659	90
226.5502	5
226.7407	7
227.0992	91
227.5156	9
228.0979	89
228.5426	6
228.7106	9
229.0954	196
229.3756	7
229.4951	3
229.5850	2
229.7347	5
230.1139	60
231.0895	145
231.5760	6
232.0826	75
232.3583	4
233.1119	179
233.5321	5
233.7322	8
234.1133	67
234.3906	9
234.6307	9
235.1104	159
235.6445	2
236.0871	56
236.4437	4
237.0876	86
237.3872	3
237.7406	6
238.0961	37
238.4323	6
238.5515	6
238.6955	5
239.0918	141
239.4088	9
240.0803	56
240.3823	6
240.5567	6
241.1008	117
241.4733	4
241.6050	3
242.0845	74
242.4605	6
243.0858	131
243.3860	7
243.6511	4
243.8616	11
244.1233	60
244.4851	8
245.0859	144
245.5086	4
245.6826	3
246.1165	67
246.5359	7
247.1032	130
247.3631	3
247.6140	6
248.1055	48
248.4028	3
248.6711	6
249.1040	93
249.4249	6
249.6863	5
250.1187	52
250.4542	6
251.0846	76
251.4244	6
251.5088	5
251.7123	6
252.0978	82
252.4343	6
252.7361	11
253.1004	120
253.4521	8
254.1073	39
254.4405	5
254.6013	1
255.0910	96
255.4728	3
256.0742	41
256.4173	1
256.6862	3
257.1035	95
257.3835	2
257.4910	3
257.7156	3
258.0977	51
258.4347	3
258.5422	5
259.1005	123
259.6360	5
260.1009	48
260.5374	4
261.1293	120
261.4993	8
261.5812	3
261.7346	1
262.0393	37
262.2198	23
262.4872	3
263.1156	76
264.0900	34
264.2463	14
264.4846	4
265.0842	76
265.5116	4
265.6269	2
265.8549	15
266.1183	57
266.3101	9
266.5041	2
266.6264	3
267.1235	76
267.4809	0
267.5956	2
267.6755	1
268.1025	40
268.4649	5
268.6130	4
268.7605	4
269.1215	62
269.4630	4
270.1289	46
270.2653	21
270.4880	3
270.6341	2
271.1282	62
271.5347	3
271.6482	3
272.1467	31
272.3528	8
272.4976	3
273.1353	69
273.4522	9
274.1089	42
274.2736	14
274.4300	8
274.5857	5
275.1460	70
275.4081	8
276.1514	39
276.5206	7
276.8009	15
277.1389	88
277.4269	4
277.7232	5
278.0968	34
278.4078	5
278.6284	8
279.1301	72
279.3333	9
279.4314	5
279.6138	4
280.1274	43
280.4219	8
280.5388	3
281.1097	44
281.4920	7
281.6445	6
282.1229	29
282.5206	6
282.7498	3
283.1426	83
283.3767	6
283.4958	3
284.0727	20
284.4002	5
284.5626	4
284.7026	9
285.1340	76
285.5410	3
285.8540	9
286.1559	37
286.3476	6
287.1417	56
287.4276	8
287.6284	4
287.7819	8
288.1320	25
288.4528	2
288.6146	6
288.7805	6
289.1610	58
289.7283	4
290.1660	20
290.4113	6
290.7529	8
291.1489	59
291.5171	2
292.1209	24
292.2820	9
292.6035	5
292.7863	9
293.1552	64
293.5508	5
294.1633	28
294.4926	1
295.1143	54
295.4584	1
295.6628	3
295.8401	6
296.1347	20
296.3894	5
296.7908	8
297.1350	60
297.4624	9
297.6984	6
298.1279	26
298.3897	3
298.6048	3
299.1314	57
299.6232	1
300.1289	32
300.4727	3
300.6285	7
300.7207	6
301.1518	65
301.4474	6
301.5599	9
301.6759	4
302.1483	50
302.5313	5
303.1136	56
303.5764	4
303.7987	3
304.1462	18
304.4385	2
304.5392	2
304.7070	6
305.1301	37
305.4448	3
305.6407	5
306.1205	24
306.4388	4
307.1293	59
307.6106	3
307.8765	7
308.1396	25
308.3559	15
308.5371	5
309.1215	37
309.5289	3
309.6388	3
310.0882	15
310.2926	7
310.4529	5
310.6140	6
310.7820	3
311.1454	55
311.4955	4
312.0502	25
312.4333	6
312.5880	3
313.1029	46
313.4671	3
313.6016	0
313.8622	8
314.2174	15
314.3604	6
314.4339	3
314.6540	5
315.1129	32
315.4927	2
315.5894	3
315.7990	6
316.1649	24
316.3807	3
316.6681	3
317.1083	30
317.4112	3
317.6103	2
317.8592	6
318.1614	20
318.3823	3
318.5877	3
318.7686	5
319.1662	51
319.5478	2
319.7918	8
319.9195	4
320.1692	24
320.4217	6
320.6448	6
321.1583	107
321.6901	6
322.1567	14
322.4907	5
322.7679	7
323.1525	52
323.5427	2
323.7125	3
323.9070	11
324.1611	15
324.3836	2
324.4924	6
324.6258	2
324.8315	7
325.1277	40
325.3461	18
325.5785	5
325.7315	3
325.8319	3
326.1219	12
326.4435	5
326.6978	3
326.8501	3
327.1711	46
327.5651	5
327.7175	7
327.8875	2
328.1994	13
329.1667	33
329.2876	13
329.5307	3
329.6965	3
330.1968	9
330.5011	6
330.6332	5
330.8510	8
331.1715	36
331.5061	3
331.7029	3
331.8891	6
332.1769	14
332.4070	2
332.4912	1
332.8034	7
333.1852	27
333.4532	5
333.6715	3
333.8456	5
334.0035	12
334.1817	20
334.2772	6
334.4695	4
335.1483	58
335.7169	5
335.8475	6
336.2069	28
336.5011	3
336.8333	7
337.1963	36
337.6942	4
337.9393	9
338.1760	14
338.6156	3
338.8060	4
339.1663	25
339.5611	3
339.7304	2
340.0479	9
340.3030	8
340.4252	3
340.6177	1
340.7266	3
341.1335	31
341.3295	11
341.5347	3
341.7420	2
342.0758	9
342.3696	4
342.6472	4
343.1729	16
343.4203	8
343.9771	6
344.2295	11
344.7898	6
345.1006	13
345.3235	10
345.7587	1
346.1476	9
346.3361	5
347.1681	21
347.3903	8
347.6766	1
347.9509	9
348.1760	15
348.3687	3
348.7501	9
348.8809	6
349.2094	16
349.7526	5
350.1277	9
350.2832	8
350.4500	8
350.7884	3
351.1664	33
351.4915	2
351.8462	4
352.0799	6
352.2777	11
352.4529	4
353.1590	29
353.3125	15
353.4617	3
353.6419	5
354.2003	10
354.4200	3
354.7621	3
355.1804	21
355.5381	3
355.6473	1
355.9135	3
356.2213	7
356.5495	2
356.6946	3
356.9489	13
357.2468	15
357.4370	8
357.6004	4
357.7998	3
358.2739	30
358.7896	2
359.1747	12
359.5420	3
359.9015	5
360.1351	7
360.3237	6
360.4560	3
360.6066	2
360.8500	5
361.1308	13
361.4243	7
361.5411	3
361.6734	2
362.0246	8
362.2295	7
362.4258	7
362.6708	2
363.1241	12
363.3888	6
363.4726	3
363.7344	1
364.1653	15
364.3181	11
364.4997	3
364.8645	4
365.2102	18
365.3489	8
365.5510	4
366.0468	10
366.2115	9
366.3707	2
366.5292	3
366.8637	3
367.2109	34
367.4159	7
367.5230	4
367.6420	6
368.2288	13
368.5986	3
368.7705	3
369.2235	36
369.7914	2
369.8865	3
370.0175	2
370.2712	10
370.3924	7
370.4819	3
370.9597	5
371.2613	19
371.6482	2
372.1239	3
372.3276	3
372.5658	3
372.6716	1
372.8379	3
373.1959	13
373.5155	8
373.8126	1
373.9808	4
374.2512	7
374.8764	5
375.1017	11
375.2200	13
375.4186	8
375.6953	2
376.0537	3
376.2573	7
376.4383	3
377.0679	11
377.2193	17
377.4419	6
377.9610	2
378.1237	3
378.2836	9
378.4717	3
378.8500	5
379.1931	15
379.6136	2
379.7581	2
380.0096	3
380.2252	6
380.3189	3
380.5641	5
380.7847	7
380.8854	5
381.2117	19
381.4640	8
381.5824	2
382.1285	9
382.3223	5
382.4414	7
383.0116	18
383.2069	26
383.3824	17
383.6573	6
383.7701	3
383.9103	1
384.3051	7
384.5624	1
384.8437	3
384.9501	1
385.1891	20
385.3450	14
385.6841	4
386.2051	9
386.3300	5
386.4745	2
386.6057	3
386.7192	7
386.8468	2
387.2184	28
387.4018	11
387.5809	3
387.7748	2
388.0083	3
388.2311	7
388.4167	3
388.5563	5
389.0169	2
389.2440	11
389.5156	2
389.6418	1
390.0439	2
390.2520	10
390.3762	3
390.4785	2
390.7882	3
391.1783	13
391.4732	6
391.6729	7
391.8881	4
392.1174	5
392.3072	6
392.6600	1
392.9522	2
393.2401	19
393.5901	4
394.0877	7
394.2697	2
394.3904	9
394.5401	4
394.8859	2
395.1795	19
395.4527	13
395.5960	4
395.9864	4
396.2497	12
396.3937	5
396.7742	3
397.2924	16
397.6172	3
398.0380	6
398.2399	6
398.5012	2
398.9517	6
399.2935	14
399.7539	4
399.8987	7
399.9898	3
400.1035	3
400.3041	5
400.4333	5
400.8274	2
400.9948	3
401.1778	7
401.3635	12
401.4885	3
401.8509	2
401.9731	7
402.2677	18
402.3864	8
402.5057	3
402.8596	3
402.9981	8
403.1656	13
403.3153	16
403.4969	3
403.6559	2
403.9180	3
404.0452	5
404.3101	15
404.7630	3
405.1633	10
405.4870	6
405.6605	4
405.8530	4
406.1245	8
406.3114	5
406.6408	4
406.8770	1
407.1923	18
407.3842	9
407.4780	5
407.6875	5
408.0726	1
408.3449	3
408.6553	3
408.9685	7
409.2585	16
409.7086	1
409.8497	3
409.9831	3
410.0854	3
410.2582	7
410.4967	4
410.6611	2
411.2475	16
411.8007	3
412.1903	5
412.3709	3
412.4598	3
412.9122	4
413.2715	15
413.4296	5
413.6561	3
413.7796	2
413.9116	2
414.1643	18
414.3697	15
414.7460	2
414.9408	7
415.1801	30
415.4328	4
415.8091	3
416.1826	21
416.4699	11
416.6641	3
417.1901	42
417.5975	3
417.8213	3
418.3629	6
418.4653	2
418.8396	6
419.1955	8
419.3961	4
419.5740	6
419.9370	3
420.0281	3
420.2287	12
420.4950	3
420.6574	3
421.3327	12
421.4994	7
422.1367	3
422.2475	3
422.4395	5
422.5326	2
422.7930	3
423.2369	9
423.4662	3
423.8029	2
424.2271	9
424.3689	4
424.5115	2
424.8926	3
425.2561	21
425.6451	4
425.8836	3
426.0693	5
426.3298	10
426.4801	4
426.6079	3
426.7971	5
427.2292	31
427.3958	19
427.7551	6
428.0961	3
428.2508	6
428.3199	3
428.4407	5
428.6045	2
428.8665	6
429.0084	3
429.1425	8
429.3395	8
429.5048	3
429.7435	3
430.0873	6
430.2222	5
430.3529	6
430.6693	1
431.2350	12
431.6029	6
431.8367	6
432.0401	5
432.2280	8
432.4137	2
432.6609	3
433.0141	10
433.2840	12
433.6449	1
433.8788	2
434.1352	7
434.3323	5
434.4835	3
434.7144	6
434.8416	2
435.0670	12
435.3432	13
435.4782	8
435.6838	5
435.9636	9
436.2066	8
436.3253	3
436.4751	4
436.7111	2
436.9245	3
437.1711	18
437.4029	11
437.8008	5
437.9866	3
438.3202	6
438.5647	4
438.9145	4
439.0870	8
439.3167	18
439.4658	13
439.7782	5
439.9818	3
440.2715	6
440.5034	4
440.6235	1
440.7423	3
440.8511	3
441.0279	13
441.3459	22
441.5609	3
441.8627	4
442.1582	14
442.3243	13
442.5046	7
442.7280	3
443.2243	24
443.4548	7
443.5630	1
443.7814	8
444.0346	10
444.1823	6
444.3499	5
444.5677	3
444.6914	4
444.9828	5
445.2253	9
445.3971	5
445.6856	3
446.1481	9
446.2606	5
446.5024	4
446.7521	2
446.9989	3
447.1637	6
447.2945	5
447.4162	6
447.7253	6
447.9120	3
448.0428	7
448.1602	5
448.4043	3
448.6731	7
448.7622	4
448.9532	6
449.2587	11
449.4059	8
449.5502	2
449.6810	3
450.0305	6
450.2646	6
450.5222	3
450.6240	3
450.8618	3
451.2502	19
451.4440	16
451.8572	2
451.9626	5
452.1607	2
452.4409	9
453.0268	12
453.3509	25
453.7089	2
453.8136	3
453.9920	1
454.3401	15
454.4774	3
454.6784	2
454.8383	2
455.0471	2
455.1512	3
455.3783	9
455.5383	4
455.6267	3
455.8511	4
456.0542	6
456.2375	2
456.3840	7
456.5651	5
456.8257	6
457.3372	20
457.5964	3
457.7215	5
458.0676	3
458.3008	10
458.5678	4
458.9175	4
459.0673	5
459.1620	3
459.3146	8
459.4658	3
459.6778	6
459.8325	4
460.0607	10
460.2169	13
460.3342	8
460.4818	10
460.9023	22
461.2923	13
461.5291	8
461.6753	3
461.8513	4
462.0216	8
462.2216	4
462.3382	2
462.5983	4
462.9474	2
463.1848	15
463.3877	10
463.6973	13
463.9149	5
464.0782	6
464.1991	3
464.4620	9
464.8013	8
465.3491	8
465.7965	8
466.1535	6
466.3281	5
466.6908	8
466.8923	8
466.9821	3
467.2316	12
467.4578	20
467.6105	5
467.9753	7
468.3536	25
468.5579	10
468.6895	5
468.9489	3
469.2254	20
469.3859	20
469.5584	8
469.7387	3
470.0987	19
470.3546	17
470.7535	3
471.2640	19
471.5971	2
471.7810	3
472.1551	3
472.3192	4
472.7287	4
473.0399	5
473.4013	7
473.6779	3
473.8073	4
474.0266	3
474.1815	2
474.3251	5
474.4743	3
474.7091	3
474.9242	2
475.3458	8
475.5750	5
475.7497	4
475.9528	3
476.2513	8
476.5357	5
476.8250	9
477.3125	19
477.7059	7
477.8438	5
478.2075	14
478.4608	18
478.6624	9
478.8917	8
479.0417	10
479.2752	6
479.5611	7
479.7012	2
479.8484	4
480.0041	4
480.1378	8
480.4209	11
480.6218	7
480.7676	3
480.9396	7
481.2842	26
481.4031	15
481.5503	12
481.7258	11
481.9388	1
482.1186	1
482.2460	6
482.3741	5
482.5256	6
482.7853	5
483.0146	3
483.3622	14
483.7769	3
484.1532	12
484.3695	14
484.5822	6
485.3483	24
485.6176	7
485.7851	4
485.9173	2
486.2085	11
486.5167	8
486.7506	2
487.0009	9
487.1592	2
487.2977	5
487.6462	6
488.0067	7
488.1842	3
488.3291	2
488.4613	2
488.6741	3
488.9915	2
489.5231	4
489.7140	3
489.9325	2
490.4882	2
490.6423	2
490.7604	4
490.9470	5
491.2362	11
491.3373	5
491.5516	9
491.8245	5
491.9384	4
492.1816	6
492.4630	3
492.5776	5
492.8003	4
492.9064	3
493.3505	14
493.8002	5
494.3179	10
494.6269	6
495.2238	29
495.5534	18
495.6588	10
496.2791	63
496.4976	25
496.7021	9
496.9935	8
497.1745	8
497.3592	11
497.6117	3
498.0757	8
498.3785	7
498.5928	3
498.7244	2
498.9012	4
499.1453	6
499.3412	2
499.5662	4
499.7891	3
499.9879	3
500.0961	3
500.3402	6
500.4590	2
500.5913	4
500.7151	6
500.8581	2
500.9649	3
501.1234	3
501.3080	11
501.6045	7
501.8033	3
502.1592	3
502.2781	2
502.4239	5
502.6326	3
502.7005	1
503.0444	7
503.2928	11
503.4456	2
503.6126	4
503.8589	4
504.0287	3
504.2233	5
504.3309	7
504.5686	6
504.7519	9
504.9720	6
505.1511	3
505.3181	7
505.4525	4
505.6019	9
505.9487	2
506.1001	4
506.2728	3
506.5021	3
507.1519	10
507.4102	9
507.5624	8
507.7839	12
507.9163	4
508.1690	6
508.2914	7
508.3679	3
508.6715	4
508.8889	3
509.2173	12
509.3851	18
509.6066	4
510.0080	12
510.3095	15
510.6168	6
510.7870	3
511.3430	37
511.6969	4
511.8699	6
512.3503	28
512.5417	9
512.7155	4
512.8130	5
513.3231	14
513.6396	6
513.7435	3
513.9759	5
514.1928	10
514.4881	6
514.7170	4
515.1819	3
515.3268	3
515.4964	6
515.8793	2
516.1677	5
516.4899	3
516.6608	2
516.8396	2
516.9407	3
517.0375	2
517.2007	5
517.3766	3
517.6713	5
517.8077	3
518.2918	3
518.4452	5
518.5922	3
519.0275	6
519.1476	4
519.4417	10
519.8042	2
519.9399	3
520.0297	3
520.1929	6
520.3272	5
520.4982	6
520.6155	2
520.8912	6
521.0474	3
521.2531	4
521.5422	9
521.7599	6
521.8921	1
522.0949	7
522.2625	10
522.6385	8
522.7382	4
522.9623	6
523.1524	14
523.4677	14
523.8261	11
524.0247	15
524.2524	16
524.4694	9
524.6285	7
524.8292	8
525.3602	21
525.7816	12
525.9215	6
526.0311	2
526.3875	17
526.6469	11
526.7275	7
526.9743	12
527.2691	19
527.4586	17
527.8659	12
528.1105	10
528.3510	18
528.6111	13
528.8148	8
528.9824	10
529.0948	7
529.3848	14
529.7985	10
530.1725	10
530.3479	12
530.6223	22
530.8974	15
531.0261	11
531.2375	16
531.4327	6
531.6082	8
531.8239	10
532.1223	12
532.4328	10
532.6393	5
532.8452	10
533.1988	9
533.4598	7
533.6670	18
533.8304	10
534.3680	20
534.7910	9
535.2217	12
535.3774	10
535.5549	9
535.8506	14
536.0833	9
536.2708	11
536.5382	8
537.4197	74
537.8434	12
538.0345	6
538.3082	9
538.6287	3
538.8523	6
539.0427	9
539.2960	12
539.6646	7
540.3537	25
540.5447	14
541.1476	21
541.5248	20
541.7788	5
542.4412	22
542.8806	17
543.4022	23
543.7093	12
543.9435	17
544.6718	27
545.4567	22
545.7978	34
546.2239	26
546.6138	21
546.9755	35
548.0543	37
548.6624	42
549.8863	52
550.4625	59
551.4714	119
552.4774	891
553.3907	81
554.3405	55
555.4307	522
555.9224	41
556.2079	20
556.4531	27
556.6919	18
557.0777	28
557.5900	18
558.2613	14
558.8075	22
559.3312	25
559.5594	20
560.1806	26
560.6866	19
561.1149	31
561.5085	28
561.7100	23
562.0768	32
562.6203	33
562.8217	34
563.1921	30
563.7688	37
570.3327	999
571.0214	565
571.5778	289
572.1782	120
572.9093	59
573.6978	43
574.4226	32
574.7727	34
575.1340	18
575.4148	14
575.7925	29
