Mass spectrum: Sarcinaxanthin; FAB-EBEB; MS2; m/z: 704.55; [M]*+
Name: Sarcinaxanthin
Class: Natural Product; Carotenoid
Formula: C50H72O2
Exact mass: 704.55323
SMILES: CC(C=CC=C(C=CC(C(=C)2)C(C)(C)C(CC=C(C)CO)CC2)C)=CC=CC=C(C)C=CC=C(C=CC(C(=C)1)C(C)(C)C(CC=C(C)CO)CC1)C
InChI: InChI=1S/C50H72O2/c1-37(19-15-21-39(3)25-33-47-43(7)27-31-45(49(47,9)10)29-23-41(5)35-51)17-13-14-18-38(2)20-16-22-40(4)26-34-48-44(8)28-32-46(50(48,11)12)30-24-42(6)36-52/h13-26,33-34,45-48,51-52H,7-8,27-32,35-36H2,1-6,9-12H3/b14-13+,19-15+,20-16+,33-25+,34-26+,37-17+,38-18+,39-21+,40-22+,41-23+,42-24+/t45-,46-,47+,48+/m0/s1
Instrument: JMS-HX/HX 110A, JEOL
Instrument type: FAB-EBEB
Ms type: MS2
Ion mode: POSITIVE
Collision energy: 3 kV
Ionization: FAB
Base peak: 704.4872
Precursor m/z: 704.55
Precursor type: [M]+*
m/z	relative intensity
11.9667	0
12.9876	0
13.9815	0
14.9998	1
22.9648	5
23.8718	0
24.9718	0
25.9747	2
26.9888	23
27.9944	2
28.9989	40
29.2441	0
29.3662	0
29.9863	0
30.9796	9
32.0180	0
32.5788	0
35.9109	0
36.9600	1
37.2046	0
37.6067	0
37.7089	0
37.9924	4
38.3943	0
38.9815	42
39.2449	0
39.4980	0
39.7204	0
40.0042	4
40.4283	0
40.5972	0
41.0029	162
41.3874	0
41.5119	0
42.0106	2
42.3583	0
42.7065	0
42.9831	386
43.4453	0
43.5708	0
44.0005	1
45.0032	5
45.2537	0
45.6356	0
45.9966	0
47.7367	0
48.9728	1
49.3134	0
49.9698	8
50.4188	0
50.9905	25
51.2008	0
51.3058	0
51.6868	0
51.9980	9
52.9955	43
53.9929	2
55.0028	162
56.0142	2
56.1724	0
56.4316	0
57.0238	82
57.3564	0
57.4806	0
58.0067	2
59.0158	3
59.2302	0
59.9256	0
60.3937	0
60.9804	1
61.2310	0
61.9806	5
62.4356	0
62.9818	17
63.2938	0
63.5731	0
63.9879	4
64.4059	0
64.9945	32
65.3503	0
65.5634	0
65.9986	5
66.2503	0
66.4862	0
67.0116	108
67.2767	0
67.4980	0
68.0101	4
68.2081	0
68.4732	0
68.7028	0
69.0291	317
69.2748	0
69.4249	0
69.7155	0
70.0090	2
70.3743	0
71.0067	17
71.3010	0
72.0200	0
72.1295	0
72.9909	1
73.1564	0
73.4519	0
73.6316	0
73.9548	5
74.2172	0
74.9700	6
75.1700	1
75.4890	0
75.6586	0
75.9768	4
76.1702	0
76.9933	104
77.4024	1
77.6599	1
77.9999	26
78.2296	0
78.3867	0
79.0031	179
79.4115	0
79.6180	0
79.7405	0
80.0048	16
80.4058	0
81.0106	204
81.3556	0
82.0168	5
82.2850	0
82.4667	0
82.6526	0
83.0316	35
83.4411	0
84.0056	3
84.5051	0
85.0135	13
85.5206	0
85.6399	0
85.9712	1
86.3726	0
86.9689	2
87.9660	1
88.1626	0
88.3502	0
88.6110	1
88.9868	11
89.2069	1
89.6705	1
90.0069	4
90.1584	1
90.3156	1
91.0053	239
91.4613	1
92.0190	25
92.3286	0
93.0212	276
93.2866	1
93.4965	0
93.6565	0
94.0211	8
94.2053	0
94.4567	0
95.0447	138
95.3638	0
95.5189	0
96.0262	2
96.4540	0
96.7167	0
97.0364	15
97.6153	0
97.9934	2
99.0344	2
99.9770	0
100.9918	3
101.2713	0
101.9967	11
103.0003	36
103.5432	0
104.0226	17
104.2303	0
105.0362	408
105.4035	0
105.6220	0
106.0347	27
107.0504	168
107.4359	0
108.0442	6
108.4247	0
108.5593	0
109.0604	87
109.3643	0
109.4628	0
109.7290	0
110.0443	2
110.4270	0
110.6104	0
111.0578	8
111.3820	0
111.5928	0
112.0238	1
112.2037	0
112.6104	1
113.0146	2
113.2409	1
113.4336	1
113.5700	1
114.0497	2
115.0110	97
116.0168	39
116.2392	1
117.0162	111
117.5254	1
118.0328	28
119.0275	288
119.4022	1
120.0403	24
120.5588	1
121.0465	116
121.5161	0
121.7071	0
122.0544	4
122.2211	0
122.3692	0
123.0587	35
123.4098	0
123.7230	0
124.0229	1
124.3028	0
124.5544	0
125.0214	3
125.2860	0
125.5695	0
125.9855	4
126.2341	0
126.9968	34
127.9870	105
128.4812	1
129.0021	146
129.2954	0
130.0021	56
131.0163	189
131.3754	1
132.0222	35
132.3395	0
133.0318	133
133.3374	1
133.4638	1
134.0315	10
134.3867	0
135.0401	36
135.5491	1
135.6591	0
136.0152	2
136.6396	0
137.0417	6
137.5436	0
137.7179	0
138.0056	1
138.1853	0
138.4846	0
138.9715	11
139.4160	0
139.9921	4
140.9795	84
141.2837	1
141.9965	92
143.0014	187
144.0125	66
145.0164	224
145.2793	1
145.6553	1
146.0261	15
146.3463	0
147.0278	47
147.5472	0
148.0484	3
148.4210	0
149.0370	10
149.4146	0
149.9980	2
150.3637	1
150.9780	6
151.9829	30
152.9820	44
153.4832	1
153.9962	25
154.4303	0
155.0122	104
155.2928	1
155.5269	1
156.0130	65
157.0327	200
157.4355	1
158.0309	30
158.3701	1
159.0520	87
159.5524	1
160.0530	7
160.4382	0
161.0605	18
161.5110	0
162.0196	1
162.3109	1
162.5058	0
163.0533	6
164.0143	4
165.0108	65
165.3146	1
166.0168	23
166.5684	1
167.0308	58
167.3359	1
168.0465	31
169.0490	106
169.3579	1
170.0674	41
170.4278	1
171.0732	90
171.3787	1
172.0824	12
172.3502	0
173.0908	35
173.3889	1
173.4972	1
174.0929	5
174.3232	1
175.1078	14
176.0349	3
176.2552	1
176.6865	1
177.0792	7
177.4560	1
178.0458	33
178.3235	1
179.0516	54
180.0638	29
181.0585	76
182.0779	32
182.5859	1
183.0742	91
183.3498	1
184.0840	20
185.0859	51
185.5338	1
186.0892	8
186.5375	0
187.1006	19
188.0050	2
189.0480	15
189.5180	1
190.0320	5
190.5007	1
191.0310	22
192.0491	25
192.4449	0
193.0416	46
193.4816	1
194.0571	28
195.0606	90
195.4347	1
195.5589	0
196.0623	18
197.0727	88
197.4490	1
198.0693	11
199.0859	28
199.3751	1
200.0758	8
200.5139	1
201.0849	10
201.4404	1
202.0206	12
203.0059	17
204.0362	7
204.2497	1
204.5923	1
205.0365	26
206.0382	16
207.0437	44
208.0564	18
208.3771	1
209.0623	57
209.4059	1
210.0673	11
210.4677	1
211.0680	31
211.4896	1
212.0563	6
212.4498	0
212.5956	0
213.0768	10
214.0460	2
214.2446	1
215.0141	13
215.4967	0
216.0192	7
216.3925	0
217.0233	13
217.2783	1
218.0239	8
219.0486	23
219.3201	0
220.0421	10
221.0582	35
221.5570	1
222.0585	7
222.4395	1
223.0691	28
223.3892	0
224.0810	6
224.5326	1
225.0951	11
225.3626	1
226.0486	3
226.4728	0
227.0719	7
227.6098	0
228.0524	4
228.4330	0
229.0301	10
230.0312	6
230.5774	0
231.0426	15
231.3927	0
231.6021	0
232.0677	8
232.4473	0
233.0760	22
233.4059	0
234.0782	7
235.0809	21
235.4636	0
235.6595	0
236.1046	6
237.0968	15
237.5258	1
237.7555	0
238.1042	3
238.4940	0
239.0997	8
239.5004	0
240.0686	2
240.3701	0
240.5795	0
241.0955	8
241.4784	0
241.6699	1
242.0866	4
243.0633	8
244.0759	5
244.3581	0
245.0947	14
245.6797	0
246.0980	5
246.4934	0
247.0952	16
247.7350	0
248.1232	5
248.4819	0
248.6308	0
249.1220	12
249.5302	0
250.1122	4
250.5008	0
251.1514	10
252.0822	3
252.4901	0
253.1173	8
253.6457	0
254.1239	2
254.5849	0
255.0996	4
256.0765	2
256.3884	0
256.5733	0
257.1066	7
257.6176	0
258.0933	4
258.3749	0
259.0970	10
259.5357	0
259.7729	0
260.1423	3
260.5217	0
260.6862	0
261.1294	13
261.6478	0
262.1267	3
262.5031	1
262.6454	0
263.1476	9
263.6772	0
264.1275	2
265.1475	5
265.4944	0
265.6187	0
265.8348	0
266.1488	2
266.4561	0
266.6492	0
267.1380	5
268.1442	2
268.3979	0
268.6093	0
269.1284	5
269.4634	0
269.6467	0
270.1054	2
270.3949	0
271.1251	6
271.6271	0
272.1194	1
272.3850	0
273.1511	6
273.6595	0
274.1406	2
274.5786	0
275.1487	8
276.1289	2
276.5556	0
276.6677	0
277.1460	4
277.6044	0
278.1186	2
278.3088	0
278.5464	0
279.1579	3
279.3947	1
280.1112	2
280.5152	0
280.7604	0
281.1379	2
281.4663	0
281.8007	0
282.1408	1
282.4203	0
282.6158	0
283.1324	3
283.6017	0
284.1086	2
285.1299	5
285.6512	0
285.8277	0
286.1050	2
286.2707	1
286.6505	0
287.1603	6
287.4469	0
287.7160	0
287.8468	0
288.2135	2
288.5402	1
289.1636	5
289.6380	0
289.8414	0
290.1566	1
290.3675	0
290.6411	0
291.1865	3
292.1559	1
292.4479	0
292.7440	0
293.1800	2
293.5594	0
293.7329	0
294.1665	0
294.4276	0
294.5986	0
294.7320	0
295.1491	2
295.6631	0
296.2038	1
296.3615	0
296.5092	0
296.7780	0
297.1369	1
297.4408	0
297.5651	0
297.7847	0
298.1329	1
298.5571	0
298.8251	0
299.1659	3
299.4941	0
299.7113	0
300.1891	1
300.3621	0
300.4941	0
300.6270	0
301.1526	4
301.4793	0
301.8011	0
302.1655	2
302.4472	0
302.6788	0
302.9020	0
303.1788	3
303.5442	0
304.1898	1
304.7042	0
305.1836	2
305.6370	0
306.1993	0
306.4621	0
307.1627	1
307.5728	0
307.8792	0
308.2309	1
308.5691	0
309.1595	1
309.6587	1
309.8790	1
310.1965	1
310.6609	0
311.1669	2
311.7901	0
311.9390	0
312.2000	1
312.6752	0
313.1923	2
314.1347	1
314.4921	0
314.6754	0
315.1811	3
315.4523	0
315.5846	0
315.9070	0
316.1716	1
316.4111	0
316.5786	0
316.8215	0
317.2161	3
317.4950	0
317.8175	0
318.2264	1
318.4895	0
319.2101	2
319.5697	0
320.0223	0
320.2361	0
320.4046	0
320.5798	0
320.7097	0
320.8137	0
321.2111	2
321.5457	0
321.6807	0
322.0153	0
322.2568	0
322.6879	0
323.1879	2
323.3556	1
323.5914	0
324.1971	1
324.8122	0
325.1983	3
325.6859	0
326.2349	1
326.4641	0
327.1441	2
327.4867	0
327.8386	0
328.2047	1
328.4349	0
328.7036	0
329.1740	2
329.5496	0
330.1780	1
331.1788	2
331.5999	0
331.7470	0
332.1589	1
332.4363	0
332.6002	0
332.7162	0
333.1904	2
333.7328	0
333.8824	0
334.2298	0
334.3879	0
335.1550	1
335.6706	0
336.1864	0
336.6357	0
337.1591	2
337.4225	0
337.7406	0
338.2069	2
338.4855	0
338.7094	0
339.2508	2
339.5555	0
340.1551	1
340.5349	0
340.7193	0
340.8439	0
341.2297	1
341.4352	1
341.6416	0
342.0956	1
342.3408	1
343.1833	2
343.6013	0
343.7285	0
344.1617	1
345.1714	1
345.4496	0
345.7691	0
346.0237	0
346.3188	1
347.1798	1
347.6445	0
347.9506	0
348.3268	0
348.6499	0
348.7756	0
349.2336	1
349.5315	0
349.8074	0
350.2386	1
350.4191	0
351.2192	4
351.7610	0
351.9611	0
352.2422	1
352.4600	0
353.2333	2
354.2204	0
354.7111	0
355.1638	1
355.3268	0
355.8421	0
356.2569	1
356.6700	0
357.2522	1
357.4389	0
357.6282	0
358.2430	1
358.5719	0
359.1816	1
359.5020	0
359.8225	0
360.1996	1
360.4568	0
360.6045	0
361.2152	1
361.7923	0
362.0952	0
362.3357	0
362.4615	0
362.6429	0
363.2125	1
363.5088	0
364.2676	1
364.7462	0
365.2486	2
365.4968	0
365.7400	0
366.2778	1
367.2119	0
367.7837	0
367.9974	0
368.2280	1
368.3615	0
368.5101	0
368.6596	0
369.2122	1
369.7664	0
369.9566	0
370.1484	0
370.3858	0
371.1768	1
371.4803	0
371.6721	0
372.1624	0
372.2630	0
372.7778	0
373.2073	1
373.3764	0
373.8491	0
373.9818	0
374.1442	0
374.3496	0
374.7480	0
375.1167	0
375.3273	1
375.9946	0
376.3398	0
376.5741	0
376.8820	0
377.1646	1
377.3490	1
377.6595	0
377.8423	0
378.3018	2
378.4727	0
378.7325	0
379.2064	1
379.4366	0
379.7913	0
380.0350	0
380.3161	0
380.4371	0
380.6479	0
380.9179	0
381.2422	1
381.4225	0
381.5732	0
381.9128	0
382.2472	1
382.5182	0
382.6681	0
383.2549	1
383.4684	1
383.8994	0
384.0926	0
384.2552	0
384.4322	0
385.2293	1
385.6165	0
385.9410	0
386.2511	0
386.5544	0
386.8214	0
387.2298	1
387.5120	0
388.3193	0
388.4793	0
389.2330	2
389.5735	0
390.1825	1
390.8068	0
391.2583	1
391.7455	0
392.1471	0
392.2674	0
393.0631	1
393.3089	0
393.5936	0
393.7546	0
393.8716	0
394.0538	0
394.3674	0
394.6082	0
394.7862	0
394.9302	0
395.3295	1
395.7593	0
396.2256	0
396.3901	0
396.8276	0
397.2660	1
397.4822	0
397.8604	0
397.9648	0
398.2234	0
398.5669	0
398.9596	0
399.1708	1
399.3565	1
399.7170	0
400.2769	0
400.8190	0
401.2322	1
401.5835	0
402.2844	1
402.5823	0
402.8352	0
403.3155	2
403.6336	0
404.2524	1
404.3999	1
404.5685	1
404.8322	0
405.2815	2
406.3134	2
406.6805	0
406.9942	0
407.2215	0
407.5336	0
407.8567	0
408.0365	0
408.2876	0
408.4937	0
408.8499	0
409.2342	1
409.3656	0
409.5370	0
409.7610	0
410.0612	0
410.2971	1
410.4795	0
410.6501	0
411.1506	1
411.3551	1
411.6665	0
411.8430	0
412.0535	0
412.1740	0
412.3547	1
412.8444	0
413.2908	1
413.5064	0
413.7916	0
414.2440	0
414.4079	0
414.5097	0
415.2194	2
415.4206	1
415.6320	0
416.2832	1
416.7536	0
417.2445	3
417.6937	0
418.2372	1
418.5710	0
418.8895	0
419.0186	0
419.3134	1
419.8494	0
420.2529	0
420.5740	0
420.7337	0
421.2724	0
421.5919	0
421.9980	0
422.1357	0
422.3022	0
422.7900	0
423.2642	0
423.5226	0
423.7427	0
423.9059	0
424.2977	0
424.6148	0
425.2455	1
425.4402	0
425.8270	0
426.3124	0
426.5641	0
427.2553	1
427.7196	0
427.9901	0
428.2911	1
428.6619	0
429.0905	1
429.2734	1
429.5183	0
429.9436	0
430.3153	3
431.2791	2
432.2618	2
433.1254	0
433.3926	0
433.6998	0
434.1781	0
434.3993	0
434.5440	0
435.1185	0
435.3449	0
435.5952	0
435.7314	0
436.3374	0
437.3028	0
437.8136	0
438.2461	0
438.4207	0
438.6003	0
438.8859	0
439.3277	1
439.8825	0
440.1111	0
440.3728	0
440.6473	0
440.8997	0
441.0543	0
441.3262	1
442.0342	0
442.2738	1
442.4532	0
442.5789	0
442.7243	0
443.2810	2
443.7885	0
444.3351	1
444.7279	0
444.8766	0
445.3085	1
445.6716	0
446.0874	0
446.4198	0
446.9020	0
447.2285	1
447.3637	1
447.6963	0
448.2312	1
449.1710	0
449.4330	0
449.6193	0
450.0956	0
450.3355	0
450.5976	0
451.2714	1
451.5215	0
452.1605	0
452.3017	0
452.4591	0
452.6761	0
453.3024	0
453.5219	0
453.9866	0
454.2862	1
454.4811	0
454.6760	0
454.9917	0
455.3228	1
455.5322	0
456.2030	1
456.5009	0
456.6431	0
456.9104	0
457.2566	1
457.5448	0
457.6629	0
458.1143	0
458.2946	0
458.8310	0
459.2688	0
459.6837	0
459.9252	0
460.2883	1
460.4439	0
460.5612	0
460.7253	0
461.1777	0
461.3895	0
461.6404	0
462.2569	0
462.4262	0
462.6686	0
462.7825	0
463.1168	0
463.4094	0
463.9189	0
464.2473	0
464.4293	0
464.7832	0
464.9167	0
465.2315	1
465.4067	0
465.8500	0
466.3843	0
467.2828	1
467.4990	0
467.5875	0
468.2453	1
468.4759	0
469.1823	1
469.5253	0
470.2785	2
470.4879	0
470.5833	0
470.7943	0
471.2779	2
471.9129	0
472.2969	1
472.6953	0
472.8681	0
473.1414	0
473.3279	1
473.7170	0
474.3412	0
474.4663	0
474.6418	0
475.2200	1
475.4133	0
475.5623	0
475.7684	0
476.2121	2
476.5264	0
477.2129	0
477.5409	0
478.2308	0
478.5315	0
478.9898	0
479.2710	1
479.4329	0
479.6169	0
479.8673	0
480.3223	1
480.5328	0
480.9085	0
481.2834	1
481.6797	0
482.2702	1
482.4364	1
482.7227	0
483.3022	2
484.2031	2
484.4247	1
484.6626	0
484.9737	0
485.2891	0
485.4902	0
486.0759	0
486.2003	0
486.3751	0
486.6488	0
486.9702	0
487.3453	0
487.5431	0
487.9745	0
488.3480	0
488.9790	0
489.0694	0
489.3167	1
489.6484	0
490.1942	1
490.8415	0
491.1212	0
491.3737	1
491.5118	0
492.0594	0
492.1925	0
492.4458	0
492.6173	0
493.0395	0
493.2289	0
493.4618	0
493.6648	0
493.9966	0
494.1340	0
494.2995	0
494.5102	0
494.8686	0
495.3054	1
495.4402	1
495.6347	0
496.3232	8
497.3374	3
498.3610	4
498.8307	0
499.3225	0
499.6873	0
500.1826	0
500.4213	0
500.6975	0
501.1426	0
501.4026	0
501.5526	0
501.9457	0
502.2441	0
502.4385	0
502.9663	0
503.1104	0
503.3065	0
503.5163	0
504.1815	1
504.3742	0
504.5806	0
505.1912	0
505.4223	0
505.6790	0
506.3272	1
506.6531	0
506.8117	0
507.1478	0
507.3525	0
507.7278	0
508.2679	0
508.4496	0
509.3018	1
509.6234	0
510.3452	1
510.6046	0
510.9041	0
511.3470	2
511.8009	0
512.2250	1
512.4640	0
513.3063	0
513.4573	0
513.6741	0
513.7714	0
514.0129	0
514.1828	0
514.3612	0
514.4866	0
515.0414	0
515.2864	0
515.5203	0
515.8592	0
516.1434	0
516.4200	0
517.1721	0
517.4385	0
517.5810	0
518.0890	1
518.3452	1
518.9667	0
519.2237	0
519.4781	0
519.6387	0
519.8957	0
520.2330	0
520.3705	0
520.7923	0
521.1552	0
521.5079	0
521.6198	0
521.9623	0
522.1271	0
522.3243	0
522.4875	0
523.3160	0
523.5286	0
523.9386	0
524.2103	1
524.4853	0
524.6476	0
525.2524	0
525.4412	0
526.2643	0
526.4886	0
526.8954	0
527.6844	0
527.8396	0
528.3028	0
528.4563	0
529.1882	0
529.3537	0
529.4791	0
529.6788	0
529.9057	0
530.1070	0
530.3484	0
531.2750	0
531.5292	0
531.9183	0
532.3091	0
532.4559	0
532.8032	0
533.3638	1
533.7103	0
534.2470	2
535.0211	0
535.3198	1
535.5656	0
535.7507	0
536.3184	1
536.8799	0
537.0780	0
537.4510	0
537.6243	0
537.8975	0
538.0630	0
538.2585	0
538.4557	0
539.2991	0
539.5544	0
539.7806	0
540.3424	0
540.7206	0
541.4490	0
542.0560	0
542.2542	0
542.5078	0
542.7136	0
543.0919	0
543.3224	0
543.5786	0
544.3395	0
544.5214	0
545.0159	0
545.2379	0
545.4830	0
545.7393	0
545.9443	0
546.3713	1
546.5926	0
546.7292	0
547.1597	0
547.2998	0
547.4706	0
547.5629	0
547.9089	0
548.3394	1
548.5923	0
549.2108	1
549.4884	1
549.7977	0
550.3163	1
550.7076	0
550.9879	0
551.1733	0
551.4236	1
551.5868	0
551.8141	0
552.4191	2
552.9651	1
553.2924	0
553.6086	0
553.9615	0
554.1521	0
554.4580	1
554.7571	0
555.0879	0
555.2993	0
555.6037	0
555.8740	0
556.3505	0
556.7120	0
556.8885	0
557.3336	0
557.9356	0
558.4139	1
558.5870	0
558.8054	0
559.0185	0
559.3622	1
559.5797	0
559.9574	0
560.1987	0
560.3872	0
560.7036	0
561.3262	1
561.8788	0
562.2328	1
562.4196	1
562.9348	0
563.2103	0
563.4559	0
563.7963	0
564.4062	1
565.1049	0
565.3071	0
565.4990	1
565.7327	0
565.9605	0
566.2122	0
566.5219	0
566.7932	0
566.9314	0
567.3051	0
567.6984	0
567.9706	0
568.3298	0
568.6874	0
569.0944	0
569.2787	0
569.4476	0
569.6149	0
570.2984	0
570.7379	0
571.1313	0
571.3805	0
571.5836	0
571.7705	0
572.0325	0
572.4985	1
572.6453	0
572.7947	0
573.2155	0
573.5287	0
573.6995	0
574.1262	0
574.4301	0
574.8560	0
575.3989	1
576.2859	1
576.6649	1
577.1191	1
577.3027	1
577.6177	1
577.8627	1
578.2734	1
578.6285	0
578.9061	0
579.3483	1
579.6899	0
580.0331	0
580.2346	0
580.4532	1
580.6804	0
580.8682	0
581.5787	1
581.8708	1
582.0484	0
582.2491	0
582.5352	1
583.0006	1
583.2577	1
583.5762	1
583.7334	1
583.8572	1
584.1570	1
584.5029	1
584.8805	0
585.1154	0
585.3929	1
585.5886	1
585.7372	0
586.3846	1
586.5333	0
586.7930	0
587.0031	1
587.2073	1
587.4644	1
587.8420	1
588.2170	1
589.3174	2
590.3367	4
591.1279	2
592.3626	2
592.7138	2
593.3709	2
593.7145	1
593.9554	1
594.1785	1
594.4169	1
594.6110	1
595.3776	1
595.9434	1
596.3578	1
596.5408	0
597.0416	1
597.3784	1
597.6810	1
597.9426	0
598.3802	1
598.6939	0
599.0204	0
599.2914	0
599.4761	0
599.7958	0
600.2087	0
600.4583	1
600.8533	0
601.5133	1
602.2084	1
602.6599	1
602.8685	0
603.4035	2
604.3629	3
604.6624	1
604.9526	0
605.4144	1
605.5859	0
606.1578	0
606.5522	0
607.0610	0
607.2018	1
607.4332	1
607.5860	1
607.7567	0
607.9514	0
608.1093	0
608.4380	0
608.8264	0
609.1082	0
609.2533	0
609.6691	1
609.8945	0
610.0806	0
610.2846	0
610.4861	1
610.8011	1
611.2119	1
612.4423	47
613.1152	1
613.3013	1
613.5156	1
613.9572	1
614.4200	1
614.6557	1
615.0178	0
615.3953	1
615.4901	0
615.8590	0
616.0785	0
616.4697	1
616.8284	0
617.1281	1
617.4433	1
617.7021	1
618.4384	9
619.4471	9
619.9230	0
620.3851	1
620.9267	0
621.0420	0
621.2684	0
621.4059	0
621.5870	0
621.7391	0
621.8818	0
622.2859	0
622.7455	0
622.9172	0
623.1018	0
623.3632	1
623.5981	0
623.7280	0
623.8562	0
624.4030	2
624.6653	1
624.8755	0
625.4608	2
625.6958	1
626.2581	0
626.4930	0
626.7075	0
626.8716	0
627.3236	0
627.5450	0
627.7800	0
628.0338	0
628.1979	0
628.5431	0
628.7346	0
629.0217	0
629.1567	0
629.3353	0
629.6548	0
629.9399	0
630.2762	0
630.4759	0
630.6586	0
631.0461	0
631.1964	0
631.4661	1
631.6744	0
631.8101	0
632.4247	5
632.7944	0
633.4064	5
633.7206	2
633.9511	0
634.4907	1
635.0952	0
635.3129	0
635.4255	0
635.6920	0
635.9540	0
636.1505	0
636.5714	0
636.9009	0
637.0768	0
637.4978	0
637.6746	0
637.8735	0
637.9913	0
638.2082	0
638.3918	0
638.9520	0
639.3892	0
639.5992	0
640.3525	0
640.5754	0
640.8298	0
641.2355	0
641.3909	0
641.6420	0
641.9666	0
642.4397	1
642.9385	0
643.3254	0
643.5159	0
643.8285	0
644.0334	0
644.4272	1
644.8441	0
645.0892	0
645.3420	0
645.5760	0
645.8349	0
646.4576	3
646.9402	0
647.0735	0
647.2239	0
647.4759	1
647.6613	0
648.0816	0
648.3721	0
648.5685	0
648.7163	0
648.9214	0
649.2392	0
649.4263	0
649.5980	0
649.7945	0
650.1038	0
650.2661	0
650.5216	0
650.7283	0
650.8745	0
651.2589	0
651.5905	0
651.8767	0
652.0741	0
652.2407	0
652.5406	0
652.7004	0
653.5549	0
653.7548	0
654.0317	0
654.4479	0
655.3375	1
655.5303	0
655.6941	0
656.0950	0
656.2921	0
656.6418	0
656.9156	0
657.2492	0
657.6348	1
658.4538	4
658.7610	1
659.1653	0
659.3795	0
659.5860	0
659.7984	0
659.9366	0
660.4665	2
660.9127	0
661.1678	0
661.6047	0
662.4426	1
662.7490	0
662.9009	0
663.4146	0
663.7994	0
663.9420	0
664.0921	0
664.3712	0
664.6724	0
664.9020	0
665.3441	1
665.7776	0
666.0046	0
666.3732	0
666.6677	0
666.9221	1
667.2506	0
667.4938	0
667.7798	0
668.0802	0
668.6128	1
668.9116	0
669.1010	0
669.4919	0
669.9153	1
670.2994	0
670.6844	0
671.5244	2
672.4949	12
673.4979	12
673.9277	1
674.4419	5
674.7873	1
675.5489	2
676.4853	2
676.7139	1
676.9987	1
677.7049	1
678.3813	1
678.9417	1
679.3229	2
680.7022	3
681.7071	3
681.9391	2
682.5414	4
683.6768	3
685.4411	5
686.5349	31
687.5153	8
688.4701	8
689.5213	27
690.4685	4
691.9867	3
693.2241	3
695.1171	4
704.4872	999
705.2479	207
706.3055	74
707.4646	32
708.3448	18
709.5978	10
710.5933	6
711.8378	4
712.6260	2
