Mass spectrum: Spheroidenone; FAB-EBEB; MS2; m/z: 582.44; [M]+*
Name: Spheroidenone
Formula: C41H58O2
Exact mass: 582.44368
SMILES: C(=CC=C(C=CC=C(C)C=CC=C(C)C=CC(C(C)(C)OC)=O)C)C=C(C=CC=C(CCC=C(C)CCC=C(C)C)C)C
InChI: InChI=1S/C41H58O2/c1-33(2)19-14-22-36(5)25-17-28-37(6)26-15-23-34(3)20-12-13-21-35(4)24-16-27-38(7)29-18-30-39(8)31-32-40(42)41(9,10)43-11/h12-13,15-16,18-21,23-27,29-32H,14,17,22,28H2,1-11H3/b13-12+,23-15+,24-16+,29-18+,32-31+,34-20+,35-21+,36-25+,37-26+,38-27+,39-30+
Instrument: JMS-HX/HX 110A, JEOL
Instrument type: FAB-EBEB
Ms type: MS2
Ion mode: POSITIVE
Collision energy: 3 kV
Ionization: FAB
Base peak: 72.9835
Precursor m/z: 582.44
Precursor type: [M]+*
m/z	relative intensity
12.6906	0
13.9287	0
14.9749	2
17.9763	0
25.9542	1
26.9583	7
27.9666	1
28.9713	5
29.9699	0
30.9033	1
32.9717	0
36.9434	0
37.9419	2
38.9479	14
39.9590	2
40.9662	50
41.4037	0
41.9641	2
42.1273	0
42.9622	22
43.1881	0
43.9717	0
44.9576	3
48.9166	1
49.9465	3
50.9453	7
51.9648	4
52.2196	0
52.5554	0
52.9652	17
53.9566	1
54.5396	0
54.9765	38
55.9849	1
56.9866	5
57.9555	0
58.9624	3
59.9046	0
60.2509	0
60.9560	0
61.4825	0
61.9426	2
62.2553	0
62.3842	0
62.9548	7
63.2431	0
63.3777	0
63.6341	0
63.9607	2
64.0945	0
64.2178	0
64.4493	0
64.9669	12
65.2959	0
65.6185	0
65.9675	2
66.5442	0
66.9783	20
67.1636	0
67.3717	0
67.9766	4
68.6558	0
68.9894	314
69.3218	0
69.4601	0
69.9877	1
70.9827	4
71.7136	0
71.8600	0
71.9730	0
72.0820	0
72.2165	0
72.3481	0
72.5729	0
72.9835	999
73.2139	1
73.3530	0
73.5222	0
73.7438	0
73.9632	3
74.1903	0
74.5490	0
74.9501	3
75.2199	0
75.3382	0
75.9150	2
76.2499	0
76.5794	0
76.9502	30
77.2493	0
77.3385	0
77.4623	0
77.6003	0
77.9529	7
78.1329	0
78.3265	0
78.4265	0
78.5590	0
78.6845	1
78.9651	34
79.2796	0
79.9786	6
80.3176	0
80.6161	0
80.9813	87
81.2846	0
81.4811	0
81.9893	1
82.6383	0
82.9889	8
83.9815	0
84.9720	2
85.8971	0
86.3879	0
86.9450	2
87.7914	0
87.9509	1
88.1576	0
88.3281	0
88.9508	4
89.2174	0
89.4132	0
89.5605	0
89.9507	1
90.1535	0
90.2829	0
90.5723	0
90.9615	78
91.3238	0
91.4998	0
91.6839	0
91.9644	8
92.1492	0
92.3275	0
92.5607	0
92.9824	57
93.3041	0
94.0002	3
94.2620	0
94.4140	0
94.6734	0
94.9999	40
95.2719	0
95.9690	1
96.9963	3
97.9540	1
98.9521	3
99.4705	0
99.9348	0
100.6479	0
100.9517	2
101.2178	0
101.7472	0
101.9626	4
102.2111	0
102.3157	0
102.5251	0
102.9679	13
103.2075	0
103.3629	0
103.4622	0
103.6252	0
103.9876	7
104.2959	0
104.4122	0
104.9886	106
105.2799	0
105.5462	0
105.7167	0
105.9996	8
106.2148	0
106.3667	0
106.6474	0
107.0061	44
107.1941	0
107.7061	0
108.0118	3
108.5358	0
109.0131	19
109.3604	0
109.5651	0
109.7956	0
110.0192	0
110.4617	0
110.8011	0
111.0081	2
111.9929	0
112.2781	0
112.4578	0
112.5596	0
112.7818	1
112.9578	1
113.0629	1
113.3175	0
113.5273	0
113.9134	1
114.1798	1
114.3295	0
114.4729	1
114.9536	38
115.1702	1
115.3100	0
115.4575	1
115.5452	0
115.9605	14
116.1743	1
116.3264	1
116.9690	38
117.1869	0
117.3501	0
117.5324	0
117.9828	8
118.2559	0
118.4679	0
118.9802	94
119.3625	0
119.5147	0
119.6298	0
119.9862	6
120.3523	0
120.6040	0
120.9756	35
121.2217	0
121.3525	0
121.9568	2
122.2187	0
122.5443	0
122.9869	9
123.9985	0
124.9626	2
125.2217	0
125.3841	0
125.5440	1
125.9543	2
126.2182	0
126.4409	0
126.9441	16
127.3816	1
127.5154	0
127.9513	43
128.2392	1
128.4929	1
128.9520	54
129.3784	1
129.9605	22
130.4516	1
130.9670	61
131.2021	1
131.4256	1
131.9748	16
132.3240	0
132.4677	0
132.9772	73
133.3230	1
133.5131	0
133.9763	4
134.2240	0
134.4933	0
134.9747	12
135.1841	0
135.4113	0
135.9376	2
136.1546	0
136.4494	0
136.5534	0
136.9877	8
137.3071	0
137.5009	0
137.8944	1
138.4113	0
138.5981	0
138.9344	6
139.2767	0
139.4591	0
139.6737	0
139.9362	2
140.1161	1
140.5535	1
140.9470	33
141.4130	0
141.9503	32
142.2885	0
142.5807	0
142.9619	65
143.2333	0
143.4480	0
143.9759	23
144.2957	1
144.5292	1
144.9778	91
145.3012	1
145.4603	1
145.6300	0
145.9793	6
146.4220	0
146.9825	28
147.2371	0
147.3747	0
147.9715	2
148.1191	1
148.2316	0
148.3833	0
148.9767	3
149.2623	0
149.9742	2
150.2832	0
150.4803	0
150.9726	4
151.1320	1
151.2508	0
151.9362	14
152.2504	1
152.3574	0
152.5043	0
152.9610	19
153.4392	0
153.5982	0
153.9709	11
154.1906	0
154.4762	0
154.9710	32
155.2395	0
155.3615	0
155.6294	0
155.9967	23
156.3902	0
156.9979	58
157.3196	0
157.4959	0
157.7002	1
158.0014	9
158.4784	0
158.9883	139
159.2765	1
159.4069	0
159.5827	1
160.0142	4
160.3521	0
161.0028	13
161.4689	0
161.6297	0
162.0063	1
162.2509	0
162.6250	0
162.9865	2
163.2172	0
163.2950	0
163.4594	0
163.5513	0
163.9627	3
164.3332	0
164.9901	35
165.3239	1
165.4516	1
165.6425	0
165.9954	10
166.4055	1
166.5750	0
167.0109	31
167.4329	0
167.5728	0
168.0152	9
168.4569	1
169.0283	37
169.5679	0
170.0291	11
170.2786	1
170.4238	1
171.0279	27
171.5394	0
172.0268	8
172.3763	0
172.5050	0
172.6195	1
172.7104	0
173.0365	14
173.7449	0
174.0362	1
174.2580	0
174.5049	0
174.7403	1
175.0345	5
175.3260	0
175.4779	0
175.7439	0
176.0072	3
176.3003	0
176.5096	0
176.6096	0
177.0069	3
177.3096	0
177.9748	13
178.2635	0
178.5449	0
178.9914	25
179.5003	0
180.0019	11
180.2274	0
180.5775	0
181.0111	28
181.2889	0
181.5681	0
182.0236	12
182.2996	1
182.4678	0
183.0219	35
183.2675	1
183.4243	0
184.0154	7
184.4187	1
184.5524	0
185.0340	21
185.4436	1
185.7263	0
186.0396	2
186.2014	1
186.4794	0
187.0404	8
187.3825	0
187.5866	0
187.7077	1
188.0098	2
188.1868	0
188.4434	0
188.5849	0
188.9853	9
189.3639	1
189.9456	3
190.5296	1
190.9992	11
191.2699	0
191.4888	0
191.9900	10
192.3113	0
192.9944	18
193.3664	1
193.5084	1
194.0123	11
194.2998	0
195.0130	35
195.5290	0
196.0157	11
196.2885	0
196.5073	0
197.0265	39
197.2844	1
197.8318	1
198.0556	4
198.3095	0
198.4594	1
199.0353	13
199.3229	0
199.5236	0
199.6195	0
199.8401	1
200.0422	2
200.2361	0
200.4814	0
200.6110	0
201.0414	3
201.3184	1
201.6078	0
201.9857	6
202.2957	0
202.4631	0
203.0106	8
203.3565	1
203.4375	0
203.6530	0
204.0128	4
204.4784	0
205.0162	9
205.2587	0
205.5046	0
206.0221	8
206.2730	0
206.5809	0
207.0196	15
207.3717	0
207.5980	0
208.0300	9
208.3761	1
209.0402	27
209.3018	1
209.6570	1
210.0268	7
210.2768	0
210.5489	1
211.0359	20
211.7857	1
212.0614	5
212.2909	0
212.4502	0
212.6384	0
213.0473	8
213.3260	0
213.4356	0
213.7971	0
214.0600	1
214.4160	0
215.0192	6
215.3720	0
215.4624	0
215.5418	0
216.0217	4
216.3242	1
216.4713	0
216.6468	0
217.0323	7
217.4828	0
217.7191	0
218.0308	4
218.3274	1
218.4753	1
219.0312	10
219.4164	0
220.0501	6
220.4763	0
221.0666	14
221.4763	0
222.0676	4
222.4644	0
222.7234	1
223.0940	12
223.4092	1
223.5824	0
223.7688	0
224.0772	2
224.3378	0
224.5735	0
225.0795	8
225.4408	1
225.7126	0
225.8152	0
226.0920	3
226.3972	1
226.5914	0
227.0889	3
227.2797	1
227.3900	0
227.5844	0
227.7377	0
228.1153	2
228.3396	0
228.4937	0
228.6284	0
229.0693	6
229.3117	0
229.4416	0
229.8306	0
230.0876	3
230.3502	0
230.4591	0
230.6454	0
231.0709	7
231.5283	0
231.7280	0
232.0988	2
232.3491	0
232.5668	0
233.0973	8
233.4053	0
233.5412	0
233.6897	0
233.8340	0
234.0920	4
234.2835	0
234.4653	0
234.5514	0
235.0975	9
235.5661	1
236.0778	3
236.4222	1
236.6347	0
237.1118	8
237.3695	1
237.6835	1
238.0921	2
238.4159	0
238.5535	0
239.0782	6
239.3827	0
239.5753	0
239.6698	0
240.0585	1
240.3867	0
240.5926	0
240.7254	0
241.0635	2
241.4162	0
241.8371	0
242.0799	2
242.1843	1
242.2831	0
242.4098	0
242.5970	0
243.0766	4
243.5486	0
243.7150	0
244.0763	2
244.3758	0
245.0709	5
245.1998	3
245.7717	1
246.0951	3
246.3264	0
246.5055	0
247.0966	9
247.3887	0
247.7045	0
248.0908	2
248.3021	0
248.4234	0
249.0979	12
249.4202	0
249.6873	0
250.1137	3
250.3286	0
250.5652	1
251.1110	8
251.5221	0
251.7190	0
251.9333	1
252.1414	2
252.5401	0
252.7741	0
253.1079	4
253.5417	0
253.7855	0
254.0873	1
254.2795	0
254.3780	0
254.5583	0
254.7561	1
255.0978	3
255.4669	0
255.6269	0
256.0555	2
256.4407	0
256.5616	0
257.0851	4
257.3634	0
257.5780	0
257.6990	0
258.1066	2
258.5906	0
259.1215	4
259.4139	0
260.1093	2
260.5250	0
260.6607	0
261.1059	5
261.4999	1
261.6903	0
262.1202	2
262.4332	0
262.7049	0
263.1244	7
263.4122	0
263.5936	1
264.1750	3
264.4048	0
264.5835	0
264.7657	0
265.1483	5
265.6325	0
265.7832	0
266.0692	1
266.2164	1
266.4561	0
266.6700	0
266.7709	0
267.1608	2
267.5429	0
267.6664	0
268.0640	1
268.3431	0
269.1120	2
269.4951	0
270.1021	2
270.2305	1
271.1492	3
271.6722	0
271.7600	0
271.9046	0
272.1174	2
272.2669	0
272.4973	0
272.7409	0
273.1518	3
273.5775	0
273.7475	0
274.1507	1
274.3790	0
274.5692	0
274.8062	0
275.1567	4
275.5739	0
275.7969	0
276.1616	2
276.4617	0
276.7268	0
277.1225	2
277.5392	0
277.6486	0
277.8647	0
278.1033	2
278.2352	1
278.7538	0
279.1110	2
279.6444	0
279.9252	0
280.1724	1
281.1125	1
281.5971	0
281.8008	0
281.9939	0
282.1681	1
282.2924	0
282.4406	0
282.7919	0
283.1235	2
283.3216	1
283.6329	0
284.1241	1
284.4698	0
284.6667	0
285.1116	2
285.6107	0
286.1000	1
286.2842	0
286.5655	1
286.6682	0
286.8264	0
287.1225	3
287.5466	0
288.0495	1
288.2451	1
288.5504	0
288.7959	0
289.1674	3
289.5228	0
289.7219	0
289.9000	0
290.2103	1
290.7037	0
291.1230	3
291.5887	0
291.6899	0
291.9228	1
292.2753	1
292.5131	0
292.7305	0
293.1548	1
293.7270	0
294.0452	1
294.2028	0
294.3676	0
294.5815	0
294.8842	0
295.1314	1
295.3574	0
295.7390	0
296.0960	1
296.3559	0
296.5637	0
296.7038	0
296.9426	1
297.1687	1
297.4272	0
297.7012	0
298.1281	2
298.3973	0
298.8264	1
299.1378	3
300.0660	2
300.2295	0
300.5334	0
300.6165	0
301.1269	2
301.3610	0
301.6028	0
302.1295	1
302.7868	0
303.1331	2
304.1919	1
304.4219	0
304.5305	0
304.6046	0
304.7556	0
304.9016	0
305.1599	2
305.8514	0
306.1613	0
306.4069	0
307.0012	1
307.2539	1
307.8604	0
308.2134	1
308.7070	0
308.9803	0
309.0862	0
309.3164	1
309.5057	0
309.7967	0
310.0291	1
310.2403	1
310.5913	0
310.7517	0
310.9156	0
311.1487	2
311.4306	0
311.5748	0
311.8398	0
312.1132	1
312.5012	1
312.7810	0
313.1811	2
313.3047	1
313.4178	0
313.8186	0
314.1311	1
314.4160	0
314.5581	0
314.8112	0
315.0997	1
315.3288	0
315.5657	0
315.6512	0
316.1470	2
316.2396	1
316.4581	0
317.1407	2
317.3338	1
317.6592	0
317.9464	0
318.1552	1
318.7148	0
318.8903	0
319.0573	1
319.2179	1
319.3927	0
319.8138	0
320.1500	1
320.5484	0
320.9873	0
321.1147	0
321.2761	0
321.4503	0
321.9182	0
322.1137	0
322.2687	0
322.5074	0
323.1142	1
323.3323	0
323.9789	1
324.1468	1
324.6016	0
324.8098	0
325.1541	1
325.4878	0
326.1382	1
326.4160	0
326.6017	0
326.9843	0
327.2231	1
327.7795	0
328.1126	1
328.2983	0
328.4855	0
329.1951	2
329.5787	0
329.9814	0
330.2112	1
330.9600	0
331.2195	1
331.5281	0
332.1671	1
332.9177	0
333.2220	1
333.4292	0
333.7116	0
333.9216	0
334.1877	0
334.3495	0
334.7725	0
334.8901	0
335.2307	1
335.6330	0
336.0870	1
336.2315	0
336.8662	0
337.2580	1
337.5003	0
337.8361	0
338.1755	1
338.5603	0
338.9018	0
339.1201	1
339.2051	0
339.3164	0
339.4015	0
339.6155	0
340.1343	1
341.1359	1
341.3146	1
341.6109	0
341.7329	0
342.1186	1
342.3391	1
342.6390	0
342.8192	0
343.1914	2
343.6411	0
343.9305	0
344.1971	2
344.3766	1
344.4752	0
344.8830	0
345.2299	1
345.3427	1
345.4669	0
345.9223	0
346.1472	1
346.3005	1
346.4310	0
347.2279	1
347.7743	0
348.2186	0
348.5331	0
348.9937	0
349.3046	1
350.1153	0
351.2101	0
351.4289	0
351.6312	0
351.8663	0
352.3748	0
352.5587	0
352.9429	0
353.0644	0
353.2505	1
353.4181	0
353.6397	0
353.9558	0
354.2137	1
354.4638	0
354.7366	0
354.9227	0
355.1977	1
355.3746	0
355.6183	0
356.1598	1
356.2728	1
356.4853	0
356.6835	0
357.2173	2
357.7979	0
358.2543	0
359.2865	1
359.7664	0
360.0870	0
360.3323	0
360.7469	0
360.8848	0
361.1238	0
361.2248	0
361.3542	0
361.9351	0
362.0523	0
362.3238	0
363.1865	1
364.0373	0
364.2463	0
364.5228	0
365.2365	1
366.0086	0
366.3194	0
367.0610	0
367.3213	0
367.7224	0
367.9763	0
368.2480	0
369.0211	0
369.2822	1
369.4543	0
369.9466	0
370.2475	1
370.4723	0
371.2443	3
371.5275	0
371.7530	0
372.2284	3
372.5678	0
372.7714	0
373.2717	0
373.6873	0
373.9272	0
374.1464	0
375.2256	0
375.3580	0
375.7154	0
375.8464	0
376.0059	0
376.1929	0
376.6854	0
377.1950	1
377.8404	0
378.1212	0
378.4539	0
378.5811	0
378.8200	0
379.2437	2
379.6390	0
379.7257	0
380.2512	0
380.4630	0
380.6636	0
380.8826	0
380.9821	0
381.1165	0
381.3661	0
381.5475	0
381.6570	0
381.7715	0
382.1299	0
382.3540	0
382.4984	1
382.6349	1
382.7935	0
383.2246	2
383.7069	1
383.8349	0
383.9551	1
384.2930	2
384.4766	1
384.6744	0
384.8380	0
385.2734	2
385.6164	0
386.0639	1
386.2717	1
386.4489	1
386.7129	0
386.8694	0
387.2566	1
387.4772	0
387.8487	0
388.0637	0
388.3334	0
388.4815	1
388.7192	0
389.2225	1
389.4560	0
389.9222	0
390.0440	0
390.3330	0
390.5103	0
391.1026	1
391.2586	0
391.6965	0
391.9129	0
392.1750	0
392.2996	0
393.2389	0
393.5202	0
394.1135	0
394.2823	0
394.3878	0
394.7154	0
395.0010	0
395.1592	0
395.2539	0
395.9186	0
396.1836	0
396.3973	0
396.8804	0
397.0970	0
397.2687	0
397.3827	0
397.9328	0
398.2499	1
398.6133	0
399.0787	1
399.3139	1
399.6111	0
399.8513	0
400.0009	0
400.1884	1
400.2939	0
400.4300	0
401.3403	1
401.7431	0
402.2343	1
402.3590	0
402.4859	0
402.7005	0
403.0385	0
403.3750	1
403.9326	0
404.2449	0
404.5067	0
404.7106	0
404.8133	0
405.0993	0
405.7375	0
405.9023	0
406.1676	0
406.4008	0
406.7047	0
407.2540	0
408.3117	0
408.5652	0
409.3527	0
409.7372	0
410.0768	0
410.3011	0
410.4471	0
410.8665	0
411.3444	1
412.2874	0
412.4441	0
412.8408	0
413.3138	2
413.4534	1
413.5674	0
414.3852	1
414.7742	0
415.0442	0
415.2601	1
415.4966	0
415.6797	0
415.8386	0
416.1350	0
416.4143	0
416.5547	0
417.1526	1
417.4633	1
417.6143	0
417.8460	0
418.0569	0
418.3085	0
418.4546	0
418.8516	0
418.9849	0
419.1787	0
421.2303	0
421.3336	0
421.6887	0
422.2633	0
422.3589	0
422.4944	0
422.7788	0
422.9443	0
424.2563	2
424.4168	1
424.5715	0
425.1641	1
425.3450	1
425.7368	0
425.9441	0
426.2675	1
427.2898	1
427.4772	1
427.8498	0
428.2873	1
428.4647	0
428.5531	0
428.7718	0
429.3533	2
429.5435	1
429.7588	0
429.9170	0
430.3282	2
430.4935	1
430.8092	0
431.0715	0
431.3081	1
431.5576	0
431.8512	0
432.3145	1
432.4485	0
432.7358	0
432.9896	0
433.2220	1
433.4223	0
433.6711	0
433.9562	0
434.2499	0
435.0727	0
436.2149	0
437.3395	0
437.5063	0
437.6533	0
438.1575	1
438.4941	0
438.7558	0
438.9456	0
439.2230	0
439.4377	0
439.7801	0
440.2123	1
440.3593	1
440.4620	0
440.7452	0
441.3237	0
441.6148	0
441.8417	0
441.9936	0
442.3118	1
442.5344	0
442.9069	0
443.3114	1
443.4020	0
443.4798	0
443.6824	0
443.8244	0
444.0414	1
444.3168	2
444.6236	0
444.7771	0
445.2859	34
445.6884	1
445.9460	1
446.2679	1
446.4841	1
446.8767	0
447.0744	1
447.1443	0
447.4027	1
447.5940	0
447.8967	0
448.1544	0
448.4063	0
448.9710	0
449.2344	1
449.4714	0
450.0133	0
450.1832	0
450.3738	0
450.5673	0
450.6687	0
451.3341	0
451.4584	0
452.3245	1
452.5945	0
452.8437	0
453.1158	0
453.3307	1
454.0491	0
454.2898	1
454.4384	1
454.9505	0
455.1433	0
455.2890	1
455.3790	0
455.4897	0
456.0047	0
456.5012	0
456.7104	0
456.8562	0
457.0819	0
457.5020	0
457.6327	0
457.7477	0
457.9713	0
458.2871	1
458.5386	1
458.7643	0
459.2180	1
459.3860	2
459.6089	0
460.2191	0
460.3904	0
460.5309	0
460.7585	0
461.3713	0
461.6652	0
462.3273	0
462.6462	0
463.1599	0
463.4875	0
463.6002	0
463.8592	0
464.4764	0
465.2200	0
465.3620	0
465.5376	0
465.8701	0
466.0735	0
466.2727	1
466.4661	0
466.6716	0
466.7608	0
467.1077	0
467.3097	1
467.6088	0
468.0170	1
468.1227	0
468.3589	1
468.5381	0
469.0363	1
469.2926	1
469.5732	0
469.9630	0
470.2778	0
470.5612	0
470.9760	0
471.3201	1
471.4744	0
471.8064	1
472.2105	0
472.4240	0
472.6896	0
473.0623	0
473.3101	0
473.4944	0
473.8950	0
474.0556	0
474.3634	0
475.1461	0
475.4068	0
475.9525	0
476.0768	1
476.3096	2
476.5474	1
476.9146	0
477.3839	0
477.5503	0
478.1475	0
478.2646	0
478.4575	0
478.6418	0
478.8246	0
479.1025	0
479.2704	1
479.5626	1
479.7641	0
480.2435	1
480.5507	1
480.6793	0
481.4281	4
481.6760	1
481.8689	0
482.1012	0
482.3134	1
482.4477	1
482.7643	0
482.8743	0
482.9922	0
483.3981	0
483.6339	0
483.9934	0
484.1178	0
484.4136	0
484.7388	0
484.9732	0
485.5693	0
485.8723	0
486.0281	0
486.2426	0
486.5814	0
487.4420	0
487.7944	0
488.3679	4
488.5855	2
488.6940	1
488.9402	0
489.0622	1
489.3676	0
489.6352	0
489.9571	1
490.4216	7
490.8270	0
491.0482	1
491.1610	0
491.4301	0
491.7391	0
492.1852	1
492.3730	0
492.9932	1
493.2945	1
493.4958	1
493.8727	0
494.0090	1
494.3366	0
494.6129	0
494.9849	0
495.4082	1
495.6045	0
496.2949	1
496.5276	0
496.6583	0
496.9939	0
497.2295	1
497.4173	1
497.7236	0
498.4227	1
499.1824	0
499.4567	0
499.5709	0
500.1772	0
500.4914	0
500.9828	0
501.3213	0
501.5013	1
502.3298	1
502.8469	0
503.0576	0
503.4469	3
503.6183	1
503.7776	0
503.9176	0
504.0941	0
504.3941	0
504.5627	0
504.8027	1
505.0534	0
505.4278	1
505.8171	1
506.0965	1
506.2136	1
506.5201	1
506.6602	0
507.1210	0
507.3482	1
507.4954	1
507.5990	0
507.7397	0
508.2978	1
508.5678	1
508.8036	1
509.4218	16
509.9784	1
510.2028	0
510.4136	1
510.5594	1
510.7902	0
511.0689	0
511.2462	1
511.5799	1
511.9351	0
512.3317	2
512.5812	0
513.0150	0
513.3939	1
513.5847	1
513.8141	0
514.2344	0
514.3630	1
514.4803	1
514.6346	0
515.0292	0
516.1243	0
516.3376	0
516.6880	0
517.0397	0
517.4907	0
517.7447	0
517.9880	0
519.0270	0
519.5743	0
520.1238	0
520.3829	0
520.5028	0
520.6006	0
521.0602	0
521.2729	1
521.4206	0
521.5705	0
521.7418	0
522.4827	6
523.4319	9
523.8017	0
523.9958	0
524.1151	0
524.3107	1
524.5505	1
524.9388	0
525.1837	0
525.4964	0
526.1396	1
526.3987	1
526.5779	1
526.7107	0
527.2405	0
527.4332	1
527.5646	0
527.7731	0
528.0944	0
528.4156	1
528.6070	0
528.8898	0
529.1440	0
529.8430	0
530.1251	0
530.3864	0
530.5564	0
530.6913	0
531.2248	0
531.5154	0
532.4931	0
532.7238	0
533.3651	0
534.4421	0
534.7843	0
535.0079	1
535.4865	1
535.6700	1
535.8314	1
535.9057	0
536.2465	0
536.4379	0
536.7958	0
536.9679	0
537.1151	0
537.2701	0
537.5859	0
538.3716	2
538.5646	1
538.7711	0
539.1368	1
539.3690	1
539.5690	1
539.8113	0
539.9091	0
540.1177	0
540.6093	0
540.7801	0
541.0037	0
541.2681	1
541.5361	0
541.7604	0
542.0448	1
542.2949	0
542.4342	0
542.5600	0
542.7815	1
543.0831	1
543.5197	1
543.6998	0
543.8970	0
544.0607	0
544.2486	1
544.5666	0
544.8439	0
544.9411	0
545.1920	0
545.3806	0
545.5314	0
545.7315	0
546.1103	1
546.3090	0
546.4655	0
546.6313	0
547.0409	1
547.3339	0
547.6635	1
547.9250	1
548.2589	1
548.5433	0
548.7485	0
549.2831	1
549.6992	1
549.8322	0
550.5356	5
550.8179	1
551.1060	0
551.4435	1
551.5908	1
551.8002	0
552.0576	0
552.4358	3
552.6967	1
552.8362	0
553.1078	0
553.3159	0
553.5518	0
553.8300	0
554.0623	1
554.2390	1
554.4935	1
554.7216	1
554.8868	0
555.0884	0
555.3058	0
555.5560	1
555.7255	0
555.9293	0
556.3276	0
556.6394	0
556.9040	0
557.1314	0
557.5755	1
557.7578	0
557.9796	0
558.4701	0
558.7030	0
558.8935	0
559.0668	0
559.1995	0
559.5084	0
559.6504	0
559.8359	1
560.0999	0
560.5001	1
560.6434	1
560.7540	0
560.9652	1
561.1343	0
561.4354	1
561.7379	1
562.0389	1
562.4378	1
562.9187	1
563.3553	1
563.8220	1
564.5499	10
564.7489	5
564.9380	1
565.5567	2
565.8664	2
566.4987	3
566.7435	1
567.4978	10
567.7490	4
568.4969	2
568.7567	1
569.0515	1
569.4269	2
569.6860	1
570.2120	1
570.5689	1
571.0822	2
571.5568	1
571.7945	1
572.1964	2
572.4055	2
572.5911	1
572.8924	1
573.1979	2
573.5006	2
573.8618	2
575.2661	3
575.5245	3
575.8094	3
576.4534	3
577.0403	4
582.4973	999
583.1386	130
583.8684	51
584.7266	26
585.5349	14
585.9166	9
