Mass spectrum: 19-O-Methylsiphonaxanthin; FAB-EBEB; MS2; m/z: 614.43; [M]+*
Name: 19-O-Methylsiphonaxanthin
Formula: C41H58O4
Exact mass: 614.43351
SMILES: CC(=CC=CC=C(C=CC=C(C)C=CC(=C(C)2)C(C)(C)CC(C2)O)C)C=CC=C(C(=O)CC(C(C)(C)1)=C(CC(C1)O)C)COC
InChI: InChI=1S/C41H58O4/c1-29(17-13-18-31(3)21-22-37-32(4)23-35(42)26-40(37,6)7)15-11-12-16-30(2)19-14-20-34(28-45-10)39(44)25-38-33(5)24-36(43)27-41(38,8)9/h11-22,35-36,42-43H,23-28H2,1-10H3/b12-11+,17-13+,19-14+,22-21+,29-15+,30-16+,31-18+,34-20+/t35-,36+/m0/s1
Instrument: JMS-HX/HX 110A, JEOL
Instrument type: FAB-EBEB
Ms type: MS2
Ion mode: POSITIVE
Collision energy: 3 kV
Ionization: FAB
Base peak: 104.9608
Precursor m/z: 614.43
Precursor type: [M]+*
m/z	relative intensity
0.2095	0
1.1217	0
1.9759	0
3.6918	0
5.0698	0
5.7254	0
12.9692	1
13.2751	0
13.9656	2
14.8143	0
14.9767	12
16.9858	0
18.5866	0
18.9683	1
22.9213	2
24.2683	0
24.5231	0
24.9580	1
25.9524	18
26.9569	88
27.4710	0
27.9643	9
28.9631	91
29.9484	3
30.9520	15
31.2727	0
31.8610	0
34.0733	2
34.7394	0
35.2871	0
36.2935	2
36.4467	0
36.9507	6
37.0712	1
37.1486	1
37.9392	25
38.9443	220
39.1986	1
39.3881	1
39.8135	1
39.9484	26
40.2611	0
40.9592	327
41.1098	1
41.7921	1
41.9697	15
42.1825	0
42.6094	0
42.9528	305
43.9657	6
44.9513	432
46.0644	0
47.2661	1
48.9271	7
49.0743	2
49.1732	2
49.5847	1
49.9238	56
50.1656	0
50.3558	1
50.9362	136
51.5100	1
51.7493	3
51.9450	48
52.9522	251
53.7423	1
53.9614	16
54.5494	0
54.9630	413
55.9799	17
56.9692	114
57.4419	3
57.9551	6
58.4689	1
58.9497	89
60.9133	9
61.2009	1
61.9302	33
62.1300	0
62.9352	111
63.2256	2
63.5485	1
63.9382	28
64.4337	2
64.9393	185
65.1460	2
65.9582	54
66.2396	1
66.5483	1
66.9589	304
67.6901	1
67.9469	28
68.2444	1
68.9595	410
69.2529	1
69.9528	6
70.3077	2
70.9526	175
71.7643	0
71.9753	3
72.6997	0
72.9472	5
73.9135	30
74.3908	0
74.9261	42
75.1790	2
75.2861	1
75.5227	3
75.9178	29
76.1034	3
76.2611	3
76.5081	1
76.9276	493
77.2488	6
77.4256	3
77.9370	140
78.2413	1
78.3656	3
78.5179	1
78.9454	477
79.1950	3
79.5695	1
79.9552	75
80.2289	1
80.3948	2
80.5931	1
80.9589	548
81.1588	2
81.3359	3
81.4914	3
81.6543	3
81.9366	68
82.6956	6
82.9583	152
83.7359	2
83.9434	9
84.3711	1
84.9483	90
85.4984	2
85.6283	1
85.9174	11
86.6432	1
86.9417	25
87.2864	0
87.9184	10
88.2253	1
88.3819	2
88.5256	1
88.6326	6
88.9209	81
89.1160	4
89.2575	5
89.4656	4
89.9352	40
90.3757	4
90.9391	925
91.2328	3
91.3528	1
91.6834	7
91.9528	133
92.3173	2
92.9566	684
93.2237	7
93.3275	2
93.9484	56
94.1788	2
94.3476	2
94.9630	517
95.2514	1
95.4923	2
95.6428	2
95.9714	35
96.3058	1
96.9692	179
97.2236	1
97.7283	1
97.9297	9
98.9255	16
99.2444	0
99.7255	1
99.8704	3
100.2877	0
100.5729	3
100.7262	5
100.9611	18
101.0736	4
101.4306	4
101.6374	5
101.9461	56
102.2018	1
102.9412	199
103.3306	4
103.4544	4
103.5274	2
103.9605	105
104.1587	3
104.9608	999
105.2237	4
105.3263	1
105.4772	2
105.6219	3
105.9649	110
106.2570	1
106.3910	2
106.9702	456
107.3045	2
107.4528	3
107.9544	62
108.4692	2
108.9911	507
109.2496	4
109.3540	3
109.9752	36
110.5484	1
110.9713	137
111.2622	1
111.5609	2
111.7145	2
111.9440	4
112.3775	1
112.5288	3
112.6710	4
112.9350	13
113.1399	7
113.2952	7
113.4995	5
113.9167	18
114.2904	5
114.9246	525
115.4443	3
115.9373	190
116.2947	4
116.4203	1
116.9361	620
117.1767	4
117.3323	2
117.4718	2
117.9456	114
118.1781	4
118.2736	2
118.9534	808
119.2122	6
119.3886	4
119.5330	1
119.9438	116
120.1985	1
120.5615	8
120.9625	677
121.2789	3
121.4930	2
121.9494	56
122.2088	1
122.4512	3
122.9482	564
123.3493	2
123.9346	21
124.3992	2
124.6404	2
124.9415	37
125.1061	4
125.2052	3
125.3818	2
125.5780	1
125.9031	26
126.2322	3
126.5070	5
126.9114	185
127.1686	10
127.9164	534
128.1496	13
128.3842	7
128.9169	589
129.1946	1
129.9312	250
130.1954	5
130.3137	2
130.4656	5
130.9350	625
131.3047	3
131.5621	2
131.9433	143
132.2135	2
132.3254	2
132.9384	474
133.3210	5
133.4749	3
133.9214	69
134.3005	6
134.9528	662
135.1814	9
135.3968	3
135.9103	91
136.1246	3
136.2264	3
136.4367	2
136.9248	194
137.2380	3
137.4566	5
137.5779	3
137.9428	135
138.1477	5
138.3995	2
138.9260	128
139.2930	3
139.4154	1
139.9150	32
140.0817	11
140.9072	383
141.2529	5
141.9092	348
142.1895	2
142.9250	653
143.2124	2
143.3648	4
143.9379	206
144.3197	4
144.9358	761
145.2393	7
145.3968	3
145.9354	108
146.2473	4
146.3241	1
146.9374	257
147.4297	5
147.5080	2
147.6314	1
147.9479	33
148.1612	2
148.3468	2
148.4643	7
148.9405	147
149.3168	2
149.4858	2
149.9199	19
150.2804	5
150.9395	118
151.3173	8
151.5272	8
151.9201	186
152.3172	9
152.4691	6
152.9234	236
153.2137	5
153.3412	1
153.5516	9
153.9188	239
154.9281	462
155.2563	2
155.3549	2
155.6547	8
155.9621	229
156.2600	4
156.4090	2
156.9535	553
157.2626	6
157.5936	6
157.9677	135
158.3036	2
158.6356	9
158.9684	380
159.2876	6
159.4711	6
159.6097	4
159.9809	58
160.3646	6
160.6050	4
160.9766	156
161.4406	1
161.5650	3
161.9807	28
162.4396	3
162.9542	70
163.2177	4
163.9140	30
164.3484	8
164.9535	360
165.4938	3
165.9541	140
166.2848	1
166.4784	2
166.6369	10
166.9789	295
167.2789	4
167.4369	4
167.6306	4
167.9811	112
168.2312	5
168.9903	391
169.2881	5
169.9769	121
170.2963	1
170.5545	6
170.9960	295
171.2778	4
171.4637	3
172.0069	70
172.2907	4
172.4219	3
172.9993	150
173.5150	4
174.0398	21
174.3274	3
174.4981	6
174.6288	2
174.7369	9
175.0274	100
175.2753	3
175.4792	3
175.6335	4
175.9731	36
176.1495	5
176.3865	2
176.9876	93
177.3869	10
177.9588	180
178.2458	3
178.3417	2
178.9665	274
179.2130	4
179.4733	1
179.9645	105
180.2499	2
180.4192	4
180.6086	9
180.9847	298
181.3146	3
181.4391	2
181.9856	133
182.2734	4
182.4790	7
182.9885	332
183.2329	3
183.4981	4
183.7295	10
183.9893	74
184.4134	3
184.9811	154
185.3999	3
185.7494	9
185.9922	35
186.2857	4
186.3961	2
186.9902	103
187.4463	6
187.5568	3
187.9450	17
188.2840	2
188.4987	15
188.9595	126
189.2966	3
189.4406	7
189.9357	37
190.1972	6
190.9556	121
191.2201	4
191.3280	2
191.4909	4
191.9630	149
192.2402	5
192.4289	6
192.9612	232
193.3863	6
193.5313	1
193.9810	109
194.2222	6
194.5235	5
194.9804	263
195.2999	3
195.9574	89
196.3497	4
196.9810	268
197.2598	4
197.4113	6
197.6412	6
197.9815	56
198.4806	4
198.9854	154
199.3127	4
199.4302	3
199.5219	2
199.7170	3
199.9808	40
200.3138	3
200.4237	1
200.5532	3
200.9921	63
201.4318	10
201.6839	9
201.9500	89
202.4916	19
202.9618	113
203.4118	5
203.5386	1
203.6880	2
203.9846	53
204.2041	5
204.3591	3
204.9497	115
205.4451	4
205.5644	2
205.9596	73
206.2923	2
206.9678	178
207.2896	1
207.5495	5
207.9865	68
208.2683	4
208.4539	7
208.9804	202
209.3425	3
209.9826	63
210.2597	6
210.5848	5
210.9916	174
211.2280	5
211.4857	3
211.9616	32
212.2511	1
212.4630	4
212.5962	4
212.9949	79
213.3000	3
213.4317	1
213.9624	21
214.3727	2
214.9586	91
215.3535	5
215.9531	42
216.2904	2
216.5522	3
216.9828	106
217.2581	3
217.4028	3
217.6104	4
217.9839	47
218.3738	3
218.5377	1
218.9827	111
219.3304	2
219.5721	5
219.9863	55
220.4529	2
220.5801	4
220.9952	139
221.2625	4
221.5618	12
221.9926	58
222.2912	3
222.4837	9
222.9890	132
223.4187	2
223.9852	33
224.2869	2
224.4214	2
224.6304	4
225.0059	67
225.5054	3
225.6670	5
225.9710	31
226.2375	2
226.5034	6
227.0004	59
227.3408	3
227.5699	3
227.9912	34
228.2970	2
228.9832	71
229.4161	3
229.6298	4
230.0025	41
230.3746	2
230.5152	5
230.6580	7
231.0152	75
231.2916	5
231.3825	3
231.5672	2
232.0198	43
232.3524	5
232.4903	6
233.0099	85
233.4180	1
233.7095	6
234.0331	35
234.2437	3
234.4810	5
235.0465	96
235.4745	7
235.6491	4
236.0176	46
236.3151	2
236.6609	5
237.0472	78
237.4279	4
237.5608	3
238.0162	22
239.0083	44
239.3417	2
239.5343	4
240.0221	23
240.3734	3
240.4566	2
241.0114	58
241.3955	3
242.0352	33
242.4928	3
243.0025	57
243.4873	4
243.7024	6
244.0278	28
244.2892	4
244.4566	3
244.6154	1
245.0321	55
245.3592	2
245.5843	4
245.6748	4
246.0219	33
246.2485	3
246.4267	1
247.0177	92
247.4013	5
247.6152	1
248.0402	28
248.3034	1
248.4889	3
249.0311	64
249.5120	5
249.6797	2
249.8295	4
250.0722	24
250.3862	4
250.5340	2
250.6246	1
251.0666	35
251.4743	3
251.8485	4
252.0670	15
252.2763	2
252.4699	2
252.6035	2
253.0578	38
253.4515	2
253.6573	3
254.0197	16
254.2984	3
254.5507	4
254.6608	2
255.0297	45
255.3736	3
255.5302	2
255.6740	3
256.0129	19
256.2346	1
256.4879	4
256.6481	2
257.0165	36
257.2726	3
257.7621	3
258.0326	17
258.3217	2
258.4821	2
259.0297	40
259.4578	4
259.5917	2
260.0228	22
260.5070	2
261.0449	94
261.3994	2
261.5712	7
261.6765	4
262.0647	30
262.3161	1
262.4572	2
262.6170	2
263.0619	64
263.4446	3
263.6201	3
263.8531	5
264.0760	11
264.3498	2
264.4989	2
264.7326	3
265.0573	37
265.4868	1
265.6510	4
265.7407	2
266.0663	16
266.4012	1
266.7010	3
266.8051	4
267.0619	23
267.3560	2
267.6976	2
267.9911	8
268.1783	7
268.2975	2
269.0066	24
269.3110	2
269.7332	5
270.0031	11
270.2365	1
270.3478	3
270.4412	2
270.7198	2
271.0509	32
272.0301	11
272.2212	4
272.6559	2
273.0397	40
273.3876	3
273.7340	3
274.0762	17
274.2919	3
274.4975	2
274.6010	1
275.0663	49
275.3309	2
276.0775	15
276.2653	4
276.4250	2
277.0797	45
277.3466	5
277.5906	2
277.7554	2
278.0389	15
278.1714	10
278.3441	3
278.5889	3
279.0546	27
279.6290	2
279.7814	4
280.1106	14
280.2465	2
280.5355	1
281.0611	17
281.3826	1
282.0155	10
282.4586	1
282.6190	4
283.0952	30
283.3269	2
283.6306	3
283.8277	4
284.0263	8
284.2142	6
285.0757	21
285.4112	4
285.6200	3
285.9519	9
286.1348	9
286.2536	2
286.4682	2
286.5424	1
286.6878	2
287.0184	21
287.1689	14
287.6206	2
287.7257	2
288.0485	12
288.4123	2
288.5478	4
289.0413	52
289.3865	1
289.4780	1
289.6272	1
290.0546	35
290.4799	4
290.6227	2
291.0768	55
291.4373	3
291.5109	2
291.6724	3
291.7676	2
292.0871	27
292.4505	2
293.0384	19
293.5736	1
293.6963	2
294.0390	9
294.2497	12
294.5347	2
294.6249	1
295.0882	18
295.4072	4
295.4960	2
295.7818	2
296.0937	6
296.5430	2
296.7188	2
297.0656	22
297.7036	2
298.1442	20
298.3086	4
298.4269	2
298.6137	2
298.7356	1
299.0839	17
299.3753	2
299.6249	4
299.8182	3
299.9885	6
300.1450	10
300.2655	2
300.4481	2
300.8290	4
301.0801	18
301.2360	6
301.4352	4
301.6098	2
301.7607	2
302.1381	22
303.0585	14
303.5191	1
303.6744	2
303.8130	2
304.0361	4
304.2766	3
304.6463	2
305.0356	13
305.1505	6
305.4546	4
305.5925	3
306.0606	10
306.2210	8
306.5324	2
307.0122	91
307.3851	2
308.0254	110
308.3297	4
308.5675	1
309.0916	19
309.4646	3
309.6020	2
309.7690	3
309.9563	5
310.1537	7
310.5435	2
310.7821	2
311.1227	14
311.3889	1
311.5546	1
311.6754	2
311.7976	2
312.1224	10
312.4393	2
312.6013	2
313.0499	13
313.2257	5
313.6353	2
314.0840	8
315.0676	12
315.6786	3
315.8502	2
316.0790	5
316.1977	2
316.3867	2
316.5120	2
316.6959	2
317.0797	12
317.4773	1
317.8495	1
318.0886	7
318.1769	3
319.0100	7
319.3034	3
319.5577	1
319.8990	5
320.0577	5
320.3360	2
320.6251	2
320.7737	2
321.1020	21
321.5123	4
321.7732	2
322.0653	8
322.2372	3
322.3756	5
322.5366	2
323.0847	30
323.5611	3
323.7293	1
324.1006	4
324.5263	4
324.7251	0
325.0812	9
325.5433	2
325.7457	2
325.9546	4
326.0721	5
326.5169	2
327.0473	10
327.2128	6
327.4348	2
327.6119	2
327.7462	4
328.1599	17
329.1144	38
329.3779	2
329.6777	2
329.8665	4
330.1685	5
330.3007	2
330.4147	1
330.5541	1
330.6848	2
330.9303	4
331.0944	12
331.2556	7
331.7473	3
332.1235	8
332.3356	3
332.6342	1
332.8979	2
333.1281	12
333.4166	1
333.7094	0
333.8351	1
334.0509	3
334.3350	1
334.6765	2
334.8517	2
335.1191	27
336.1439	18
336.3751	2
336.4856	2
336.6361	2
336.8985	4
337.1333	15
337.2482	10
337.5630	1
337.8517	2
338.1011	4
338.3345	3
339.0741	6
339.4312	2
339.8254	2
339.9964	2
340.1942	7
340.6620	3
340.8148	2
341.1223	9
341.2908	2
341.6901	1
341.9515	2
342.1571	2
342.2711	2
342.3676	1
342.8165	3
343.1157	12
343.4825	2
344.1239	5
344.2569	1
345.0836	12
345.3975	1
345.5218	1
345.8131	3
346.0355	4
346.2106	3
346.3335	2
346.4606	2
346.6896	3
347.0413	5
347.1940	4
347.5174	1
347.9252	2
348.0190	2
348.1469	2
348.7881	1
348.9335	2
349.1814	14
349.3901	3
350.0612	2
350.2234	4
350.6089	2
350.9514	6
351.1172	12
351.2772	5
352.1050	4
352.3327	2
352.8506	2
353.1140	6
353.8067	4
353.9748	4
354.1400	2
354.9783	4
355.1566	7
355.2934	4
356.1646	5
356.4937	2
356.9195	3
357.1256	7
357.2595	3
357.7146	1
358.1041	2
358.9313	3
359.1039	8
359.4753	0
360.0427	2
360.2022	6
361.1346	9
361.2898	5
361.9098	2
362.1218	3
362.2821	2
363.1288	11
363.4210	1
363.5310	2
363.9275	1
364.1126	3
364.3742	2
364.7285	3
365.0142	6
365.1214	2
365.2526	2
366.0581	3
366.3475	3
366.6574	1
366.8674	2
366.9855	3
367.1700	5
367.5973	1
367.9582	2
368.2332	2
368.3411	1
368.6036	1
368.9559	4
369.1147	7
369.2457	4
369.9258	2
370.1559	3
370.5833	2
371.0611	7
371.2060	3
371.4660	2
371.9663	2
372.2082	6
372.5352	1
372.6438	0
373.0087	4
373.2826	2
373.6134	1
374.0009	5
374.1496	3
374.3179	3
374.7602	2
375.0218	5
375.1682	6
375.3592	5
375.6120	2
376.1353	8
376.2796	5
376.7089	2
377.0631	6
377.1943	5
377.3554	3
377.5384	2
377.8875	1
378.1908	10
378.8177	4
378.9665	2
379.0795	2
379.2392	4
379.5636	1
380.0464	4
380.2418	1
380.9178	2
381.1016	6
381.3087	7
381.7091	2
382.0089	4
382.0760	2
382.2707	3
382.3619	2
382.7434	1
382.8740	2
383.0418	5
383.2490	4
384.1038	3
384.2890	2
385.1496	4
385.2335	2
385.7273	2
386.1780	2
386.3079	4
386.5442	2
386.8922	5
387.0782	8
387.2234	4
388.1157	1
388.2711	4
388.5892	2
388.7979	1
389.0351	10
389.2073	7
389.3657	2
389.7823	2
389.9334	2
390.1750	2
390.4348	2
390.9114	2
391.2983	2
391.6494	2
391.7968	2
392.0771	4
392.4166	4
392.7729	2
393.1409	5
393.2613	4
393.7045	1
393.9922	2
394.2266	4
394.3887	1
394.5735	3
395.1467	52
395.6477	1
396.0180	2
396.2408	2
396.4482	2
396.6053	2
397.0348	5
397.1991	3
397.6988	1
398.1671	2
398.2905	3
398.5221	3
398.7888	2
399.0869	7
399.3251	7
399.5290	3
399.7774	5
399.9623	3
400.1260	2
400.3145	3
400.4614	2
400.6127	2
400.8195	2
401.1973	18
401.4195	2
401.6841	2
401.8405	4
402.2125	14
402.9391	3
403.1511	5
403.4640	1
404.1607	7
404.3135	2
404.9262	3
405.0439	3
405.3927	2
406.1554	2
406.4121	2
406.5269	1
406.7595	2
406.9679	2
407.0739	6
407.2509	6
407.8368	1
408.0621	3
408.2632	3
408.3978	2
408.5726	2
408.7255	1
409.1030	7
409.2946	6
409.6392	0
409.8887	2
410.0050	3
410.2179	2
410.3532	1
410.8647	2
411.1266	6
411.3293	5
411.5005	2
411.6337	2
411.8891	2
412.0259	3
412.4145	2
412.6641	2
413.1295	11
413.4530	2
413.7268	4
413.8578	3
414.0686	5
414.2625	2
414.4390	3
414.6469	3
414.8745	8
415.1483	8
415.3701	9
415.4938	3
415.7632	5
415.8935	3
416.1827	7
416.4763	2
416.6000	4
416.8859	1
417.1578	9
417.3295	5
417.3953	2
418.0056	5
418.2402	7
418.3959	4
418.6635	2
418.8659	4
419.0714	0
419.3952	1
419.7190	1
419.8981	2
420.0071	3
420.1920	2
420.7279	2
421.1783	4
422.3037	2
422.9699	2
423.1644	4
423.3429	3
423.7641	2
423.8753	1
424.0062	2
424.1584	1
424.4048	2
424.7281	0
424.9198	2
425.1407	5
425.3265	2
425.8963	3
427.2008	11
428.0956	8
428.6532	2
428.7893	2
429.2064	16
429.5401	2
430.2222	5
431.1422	5
431.3545	5
431.6758	3
432.1297	13
432.2614	8
432.4547	2
432.7519	5
433.2314	27
433.8991	2
434.1060	2
434.3033	4
434.4231	2
434.6445	2
435.0727	5
435.1663	2
435.5857	1
436.0322	2
436.1331	2
436.6118	1
437.0554	2
437.1848	4
437.7103	2
437.9742	2
438.2307	1
438.5092	2
439.1299	1
439.5984	2
439.9969	2
440.5350	2
440.7039	2
441.0504	4
441.2530	4
441.4153	2
441.5528	3
441.7634	3
442.0602	4
442.2116	2
442.3198	2
442.6694	7
443.1176	33
443.3553	6
443.5609	4
443.7766	4
443.9097	3
444.1767	13
444.3354	6
444.5987	1
444.8547	4
445.1692	9
445.2950	5
445.8999	3
446.1560	3
446.3952	2
446.5232	1
447.0697	17
447.2599	11
447.3879	6
447.7333	2
448.1847	3
448.5022	1
449.0393	7
449.2801	5
449.3861	2
450.3631	2
451.1681	0
451.3899	3
452.1013	1
452.3106	0
452.4548	2
453.3200	1
454.0608	3
454.8727	3
455.0865	2
455.1831	1
455.3515	2
456.1481	2
456.5735	2
456.9258	2
457.1645	2
457.2597	1
457.7979	2
458.0015	2
458.1443	6
458.3633	4
458.5273	3
458.6797	1
459.0620	6
459.3198	5
459.4677	2
459.5710	2
460.0939	46
460.3481	12
461.1231	211
461.6124	5
462.1259	15
462.4080	10
463.0197	4
463.1274	3
463.4037	5
463.9524	2
464.2690	2
464.7262	3
465.0068	4
465.1241	2
465.3967	1
466.2424	2
466.8829	2
467.0888	3
467.4443	0
467.9024	2
468.1193	2
468.2542	2
470.2506	2
470.4863	2
471.3580	2
471.7349	2
472.1096	2
472.2312	2
472.6367	2
472.7274	1
473.0927	7
473.3394	4
474.0276	4
474.2216	7
474.4090	2
474.5100	2
474.9075	3
475.2304	15
475.4764	2
476.2423	20
476.5103	6
477.2652	10
477.4622	2
477.6401	2
477.9331	2
478.0781	4
478.1864	2
478.9093	5
479.3611	5
479.4505	3
479.9932	2
480.1317	2
480.3660	2
481.0194	2
481.3365	2
481.8127	2
482.0464	2
482.1782	1
482.6962	2
483.0361	4
483.3152	5
483.6859	2
483.9848	3
484.9249	1
485.2473	2
485.4400	3
485.9309	2
486.1559	2
486.3787	5
486.7326	2
487.8971	3
488.2628	2
488.5054	2
488.8770	3
489.2046	6
491.1573	2
491.2534	2
491.4608	1
492.2760	1
493.3875	3
493.7790	2
494.0569	0
494.4140	3
494.9918	2
495.1641	4
495.5381	2
496.2311	2
496.4555	1
496.8346	3
496.9996	2
497.4873	2
498.2406	1
498.3814	2
499.0740	2
499.3283	4
499.6932	2
500.0384	2
500.2334	2
500.3221	2
500.6079	1
501.1451	2
501.3855	2
501.5944	3
501.8875	2
502.3779	3
502.8477	0
503.0955	2
503.4562	2
503.6328	2
503.7714	2
503.9092	2
504.0925	2
504.3608	1
504.9949	2
505.1496	2
505.2508	2
506.0939	1
507.1152	1
507.2230	2
507.3924	3
507.9841	2
508.2056	4
508.4938	3
508.6910	3
509.0269	3
509.3825	3
509.5366	2
510.0638	2
510.6461	0
510.7877	2
510.9872	3
511.1053	2
511.2556	3
511.5923	2
511.7918	1
512.2157	6
512.3690	4
512.4937	2
513.1341	4
513.2243	2
513.6938	3
513.8412	2
514.0048	7
514.1992	7
514.4802	7
514.7758	2
514.8690	2
515.0120	2
515.2204	2
515.4236	4
515.8909	2
516.2372	4
516.3597	2
516.7523	1
516.8777	2
517.1353	3
517.2930	2
517.5880	3
517.8573	2
518.0943	3
518.3262	2
518.4348	2
518.7994	1
520.0851	2
520.1827	2
520.6055	1
521.0032	2
521.2249	2
521.5302	2
522.1497	2
522.3456	4
522.6194	2
522.9335	2
523.3953	2
524.0317	2
524.4075	3
524.9588	3
525.0990	2
525.3119	1
525.7708	2
526.1403	3
526.4030	4
527.1202	2
527.2183	2
527.3522	2
527.5432	2
527.9523	2
528.1331	5
528.2744	3
528.3834	2
528.9953	4
529.3686	2
529.5552	2
529.9081	3
530.0742	14
530.1774	7
530.3846	17
530.6108	5
530.8297	2
530.9834	4
531.2996	2
531.8823	2
532.3303	2
532.8172	2
533.0690	5
533.4293	5
533.5427	7
533.8195	6
534.1482	8
534.4514	11
534.6944	2
534.8768	3
535.1594	11
535.3871	4
535.5270	3
535.7357	4
535.9062	3
536.2036	5
536.4489	3
536.7857	0
537.3935	4
537.6652	2
537.8387	2
538.1171	4
538.2342	2
538.4671	2
538.6985	2
538.9139	2
539.0815	4
539.2229	6
539.3665	3
539.5496	2
539.7766	5
540.1750	4
540.3076	3
540.5186	2
540.8115	2
540.9104	2
541.2064	4
541.2943	2
541.5367	2
541.7037	1
542.2121	1
542.4589	2
542.8684	2
542.9629	3
543.1922	3
543.3658	2
543.4677	2
543.5614	1
544.1343	4
544.8062	2
544.9849	3
545.1490	2
545.2794	2
546.2436	2
546.4503	1
546.8437	1
547.0049	5
547.1141	3
547.2518	4
547.3757	3
547.5295	2
547.7604	9
547.9553	5
548.1179	6
548.2088	3
548.4587	2
548.6030	2
548.8734	6
549.3542	6
549.6107	3
549.7411	1
549.9126	5
550.1178	3
550.3069	9
550.4908	3
550.6667	5
550.9027	8
551.0757	6
551.2618	8
551.4539	5
551.5989	2
551.8672	3
552.1245	4
552.2586	4
552.5012	7
552.9124	9
553.0934	9
553.3918	10
553.9423	16
554.2047	28
554.4092	11
554.7361	10
554.9846	9
555.3350	4
555.5073	4
555.6840	6
555.8680	6
556.2352	10
556.5967	4
556.9141	6
557.1099	12
557.3577	8
557.5608	3
557.7316	3
557.8621	3
558.1107	6
558.2896	10
558.4443	7
558.5923	4
558.9406	6
559.2567	2
559.4333	2
559.6460	2
559.7831	2
559.9151	2
560.1248	2
560.2480	2
560.3609	1
560.6315	3
560.7767	4
560.8984	3
561.2783	2
561.6581	3
561.8818	2
561.9933	4
562.0805	2
562.2353	3
562.3885	4
562.7068	3
562.8264	5
563.2084	18
563.4695	8
563.6595	3
563.7702	2
564.1230	11
564.3651	12
564.4978	12
564.7134	3
565.0281	6
565.1461	7
565.4161	12
565.7776	5
565.9001	4
566.0190	3
566.1965	6
566.3029	1
566.4803	5
566.8369	3
567.2300	14
567.5895	6
567.7758	2
568.2820	35
568.8365	8
569.0390	10
569.2650	7
569.5144	12
569.7690	7
570.2598	12
570.6677	7
570.8152	18
570.9992	6
571.2167	11
571.5228	15
571.8223	12
572.1153	14
572.5481	15
572.7532	9
573.0374	11
573.1816	9
573.3808	9
574.0847	22
574.5022	16
575.0369	17
575.8814	17
576.4924	11
576.7919	18
577.2520	14
577.4893	13
577.7728	18
578.0175	16
578.4402	18
578.8058	17
579.1743	12
579.4344	13
579.7076	10
579.8615	10
580.0681	12
580.2103	13
581.2675	42
582.2714	185
583.3053	95
583.9223	5
584.1479	10
584.4645	8
584.7042	3
584.9299	5
585.4150	8
585.7529	7
586.0908	9
586.4000	7
586.5847	8
586.7855	6
587.3359	9
587.6401	3
587.9061	10
588.1209	9
588.3525	10
588.5804	14
588.8539	7
589.0613	5
589.3706	11
589.7510	13
590.0450	10
590.2795	7
590.7971	14
591.1453	10
591.4363	17
591.8240	12
592.1723	14
592.3401	11
592.5696	16
592.8555	12
593.2448	16
593.5931	14
593.9750	23
594.3504	17
594.6884	20
596.2814	381
597.2738	35
597.5319	25
598.2150	35
598.4283	23
598.8250	17
599.2633	56
599.5287	43
599.8220	15
600.0008	9
600.2193	15
600.4246	22
600.5675	11
600.8549	17
601.3718	13
601.7068	13
602.1189	13
602.4789	12
603.1109	18
603.4305	16
603.8089	15
604.3383	13
604.9052	19
605.4609	24
606.4920	24
607.2275	27
607.6756	25
609.0690	42
614.3230	999
614.9913	614
615.5833	281
616.3060	134
617.0902	80
617.7645	51
618.6970	28
619.1842	18
619.5670	18
619.9717	17
620.2103	10
620.5616	14
621.0257	10
621.2555	4
621.4663	5
621.7547	4
622.0013	3
622.2275	6
622.4471	4
622.7523	6
622.9661	3
623.1798	3
623.3599	3
