Mass spectrum: Sarcinaxanthin monoglucoside; FAB-EBEB; MS2; m/z: 866.61; [M]*+
Name: Sarcinaxanthin monoglucoside
Class: Natural Product; Carotenoid
Formula: C56H82O7
Exact mass: 866.60605
SMILES: O(C(OCC(C)=CCC(C2)C(C)(C)C(C=CC(C)=CC=CC(C)=CC=CC=C(C=CC=C(C=CC(C3=C)C(C)(C)C(CC3)CC=C(C)CO)C)C)C(=C)C2)1)C(C(C(O)C1O)O)CO
InChI: InChI=1S/C56H82O7/c1-38(19-15-21-40(3)25-33-48-44(7)27-31-46(55(48,9)10)29-23-42(5)35-57)17-13-14-18-39(2)20-16-22-41(4)26-34-49-45(8)28-32-47(56(49,11)12)30-24-43(6)37-62-54-53(61)52(60)51(59)50(36-58)63-54/h13-26,33-34,46-54,57-61H,7-8,27-32,35-37H2,1-6,9-12H3/b14-13+,19-15+,20-16+,33-25+,34-26+,38-17+,39-18+,40-21+,41-22+,42-23+,43-24+/t46-,47-,48+,49+,50+,51+,52-,53+,54+/m0/s1
Instrument: JMS-HX/HX 110A, JEOL
Instrument type: FAB-EBEB
Ms type: MS2
Ion mode: POSITIVE
Collision energy: 3 kV
Ionization: FAB
Base peak: 866.4878
Precursor m/z: 866.61
Precursor type: [M]+*
m/z	relative intensity
3.6358	0
11.8340	0
13.9642	0
15.0079	0
17.8477	0
18.9925	1
22.9629	7
25.9847	1
27.0006	4
27.9794	1
29.0058	8
30.9982	4
32.6220	0
36.9866	0
37.9669	0
38.9884	10
39.9790	1
41.0121	30
42.0512	0
43.0041	63
43.9951	1
45.0166	14
46.9887	1
49.9585	1
50.6510	0
50.9832	4
52.0076	2
53.0005	18
54.0085	2
55.0175	31
55.2122	0
56.0417	2
56.6004	0
57.0077	27
58.0091	1
58.9903	4
60.0404	0
60.9858	19
61.8804	0
61.9816	0
62.9919	6
63.9620	1
65.0070	10
65.9711	2
67.0132	25
67.5372	0
68.0083	1
69.0197	79
69.9580	1
70.0608	0
71.0034	9
72.0088	0
72.9869	39
74.0006	4
74.8553	1
74.9776	2
75.3155	1
75.9963	1
76.5604	0
76.7809	0
77.0008	18
77.4138	2
77.9901	3
79.0183	31
79.5573	1
80.0011	6
81.0268	54
81.8524	0
82.0935	1
83.0108	17
83.7492	0
83.9840	1
84.2667	1
84.9972	67
86.0138	1
86.9975	37
88.0175	1
88.9591	4
89.1367	1
89.3225	0
89.6402	1
89.8453	0
90.0099	2
90.1603	1
90.7347	1
91.0226	71
92.0512	6
92.6247	0
93.0354	71
93.4780	1
94.0370	6
94.4107	0
95.0502	42
95.9425	1
97.0236	17
97.2753	0
97.9906	3
99.0140	7
99.2637	0
100.0900	1
100.7467	1
101.0139	7
101.5752	0
102.0048	2
102.5744	0
103.0253	14
103.1719	1
103.3877	1
103.6796	0
103.8206	1
104.0409	4
104.3448	1
104.7613	1
105.0433	81
105.4961	0
106.0671	7
106.5692	1
107.0535	59
107.2855	1
107.7473	1
108.0854	3
109.0547	23
110.0628	3
110.7261	0
111.0514	5
111.8026	0
112.0194	3
112.6258	0
112.8842	1
112.9836	0
113.4975	1
113.9556	1
114.3515	1
114.5407	2
115.0251	34
115.2239	2
115.5218	1
116.0342	11
116.4438	1
116.6389	1
117.0369	31
118.0563	7
118.3942	1
118.6237	0
119.0573	89
119.3414	0
120.0619	10
120.4464	0
120.6034	1
121.0856	46
121.3931	0
122.0565	3
123.0788	14
123.7520	0
124.0370	3
124.9959	1
125.1026	1
125.9971	4
126.6436	0
127.0042	29
127.6191	0
128.0037	26
128.2683	2
129.0274	36
129.4554	0
130.0086	19
130.5320	0
130.6570	0
131.0341	54
131.3678	0
131.6931	0
132.0717	10
133.0439	55
134.0290	2
135.0629	19
135.6054	0
135.9969	2
137.0445	3
137.9681	1
139.0030	4
139.9779	3
140.2150	1
140.5192	1
140.6683	1
140.9947	23
141.5333	2
142.0016	31
142.4499	1
142.6409	1
143.0108	60
144.0117	17
144.3584	1
145.0176	85
145.3106	0
145.4847	1
145.6934	0
146.0489	9
146.5949	1
146.7987	1
147.0612	16
147.3550	0
148.0205	3
148.3923	1
149.0444	5
149.6650	1
150.0299	1
150.9284	2
151.0403	1
151.3314	0
151.5689	1
151.7526	1
152.0144	7
152.3023	1
152.3965	0
152.5975	1
152.9834	9
153.4657	0
153.6122	1
153.9950	10
154.4869	0
155.0007	27
155.4950	1
155.6301	1
156.0220	22
156.5900	1
157.0293	74
157.7036	1
158.0242	12
158.5583	1
159.0511	27
159.4700	0
160.0168	2
160.4009	0
160.5694	1
160.7434	0
161.0443	5
161.8099	0
162.2001	1
163.0376	2
163.7567	1
164.0568	3
164.2761	1
164.4436	1
164.9989	21
165.9867	11
166.4353	1
166.9919	15
167.5059	1
167.7269	1
168.0449	8
168.3081	1
168.5329	1
169.0368	28
169.3360	1
170.0445	12
170.6444	1
171.0651	33
171.3273	1
171.4373	1
171.5428	1
171.9473	2
172.1465	3
173.0857	12
173.4404	1
174.0691	2
175.1262	8
175.7440	0
176.0185	2
176.1364	2
177.0066	3
177.1671	1
177.4798	1
177.7059	0
178.0751	9
178.6337	2
179.0356	17
180.0534	11
180.2736	1
180.6307	1
181.0611	23
181.3463	0
181.5426	1
182.0679	11
182.6760	1
183.0933	36
183.3568	1
183.7530	1
184.1020	14
184.6870	1
185.0977	13
185.4648	0
185.5847	0
186.1240	3
186.3854	1
186.8684	1
187.1104	7
187.8442	0
188.3105	2
188.8306	1
189.1001	3
189.3537	1
190.0779	2
190.2714	1
191.0771	8
191.6068	0
192.0706	9
192.6725	0
193.0641	21
193.7336	0
194.0555	11
195.0674	23
196.0866	9
196.7466	1
197.0946	29
197.5988	0
198.0743	4
198.3654	1
198.6951	0
199.1241	10
200.1279	4
200.6475	0
200.8163	0
201.0753	5
201.5211	0
201.8506	2
202.0806	4
203.0463	4
203.2757	1
204.0400	3
204.6044	1
205.0523	5
205.4948	1
205.8102	1
206.0475	6
206.4234	0
207.0415	17
208.0420	11
208.6307	1
209.0743	21
210.0856	6
210.6251	1
211.0967	10
211.7416	1
212.0859	4
212.7823	1
213.0776	5
213.7461	1
214.0605	4
214.4679	1
215.0773	3
215.9639	1
216.2873	1
216.8016	1
217.0617	2
217.3769	1
217.7244	1
218.0872	2
219.0345	5
220.0689	6
220.6996	1
221.0803	11
221.7952	1
222.0408	4
223.0821	12
223.3956	1
224.0610	4
224.4034	0
224.5941	1
225.0702	5
225.1809	2
225.5645	1
225.7258	1
226.1611	2
227.0484	2
227.9657	2
228.0957	1
229.0357	5
229.2384	1
229.7953	1
230.0718	2
230.8310	2
231.0828	4
231.3864	0
231.8079	0
232.0426	6
233.0615	9
233.8344	1
234.1030	2
235.0520	6
235.6463	0
235.8624	1
236.1495	3
236.6807	1
237.0170	4
237.2977	0
238.0311	2
238.1619	2
239.0621	7
239.4653	1
239.7751	1
240.0495	2
240.1929	1
240.6396	2
241.0161	2
242.0460	3
242.2946	1
242.6657	0
242.8267	1
243.0889	7
243.8141	1
244.0678	3
244.2270	1
245.0974	4
245.4565	1
245.6795	1
246.0715	3
246.5380	2
247.0906	6
247.6704	1
247.8579	2
248.0725	2
249.0898	4
249.3790	1
249.5434	1
250.1637	4
250.9341	1
251.1646	3
251.5180	1
252.0071	2
252.2144	2
253.0506	3
253.2037	1
253.6806	1
253.9986	1
254.1965	1
254.3429	0
255.0965	4
255.2624	2
255.4400	0
256.0368	3
256.1776	1
256.4212	0
256.7299	1
257.1465	3
258.0857	2
258.2635	1
258.7241	1
259.1148	4
259.9276	1
260.1289	2
260.2738	0
261.1245	5
261.3324	1
262.1736	3
262.5807	0
263.1424	7
264.2255	3
264.3587	1
264.4599	0
265.1067	4
266.1781	3
266.5801	1
266.9004	1
267.0056	1
267.2091	3
267.5363	1
267.7759	0
268.0915	1
269.0025	1
269.1565	3
270.0943	3
271.1349	4
271.8070	2
272.0988	2
272.2647	1
272.6298	1
273.1276	4
274.1569	1
275.1230	2
276.0837	2
276.3144	2
277.2072	2
277.3832	0
277.6854	1
278.1022	3
278.2773	2
278.9740	3
279.2794	2
280.0616	1
280.2995	0
281.0331	1
281.1810	1
282.1783	1
283.1850	2
284.0978	0
284.4882	1
284.9021	1
285.1199	3
286.0855	1
286.2121	1
286.3849	0
287.1467	2
287.4030	1
288.1248	2
289.0768	2
289.9023	1
290.1431	1
290.2670	1
290.9424	1
291.1961	1
292.2639	1
293.1826	3
293.3310	2
294.0240	1
294.3081	1
295.1803	1
296.0823	1
297.1096	2
297.7513	1
299.1101	2
299.2559	1
299.9474	1
300.1956	2
300.8785	1
301.1860	1
302.1974	2
303.1736	4
304.1453	2
304.9169	1
305.0738	1
305.2327	1
306.1745	1
306.4934	0
307.1698	1
307.3259	0
309.0785	1
309.2445	1
309.6794	1
310.2893	1
310.5583	1
310.9241	1
311.2227	1
311.3484	1
312.1021	0
312.2712	1
312.6432	1
312.8074	0
313.1703	2
313.7971	0
314.0127	2
314.2965	1
315.0443	1
315.2303	1
315.8397	1
315.9496	0
316.1158	1
317.1659	1
317.3510	1
317.6015	0
318.2242	1
318.3906	1
319.1443	2
319.3156	2
320.5392	0
321.0981	1
321.2944	1
322.1042	1
322.3015	0
323.1543	1
323.3179	1
324.3257	0
324.8913	0
325.1641	1
325.3745	2
325.7705	0
326.6728	1
327.2347	2
327.4373	1
328.1225	1
329.2112	3
329.5202	0
330.3768	1
331.1590	3
332.2159	2
333.1729	1
333.3337	0
334.1747	2
335.1451	0
335.2514	0
336.1039	1
337.2507	2
339.1257	1
339.3445	1
339.8179	0
340.9002	1
341.1221	1
341.5490	1
342.1331	2
343.2470	2
343.6313	1
344.8950	1
345.1719	1
346.3883	1
346.8994	1
347.1187	1
349.1532	2
349.2848	1
350.1674	1
351.2127	1
352.3781	1
353.1376	1
353.3562	1
354.1288	0
355.2581	1
355.5747	1
357.0141	1
357.2029	1
357.4237	1
358.9357	1
359.0276	0
359.3165	0
359.7594	0
361.1502	1
362.1644	0
363.0657	1
363.3529	0
364.1674	1
365.2204	1
367.2058	1
367.3290	1
368.0822	1
368.4558	1
369.1932	1
369.3775	1
369.8605	0
370.1120	0
371.1534	1
371.2767	1
372.1669	0
372.3193	1
373.1094	1
375.1075	1
375.2730	0
376.3978	1
376.9969	1
377.2107	2
379.0569	1
379.2849	0
381.0123	1
381.2906	1
383.1243	1
385.1985	1
386.1766	2
386.4044	1
387.2643	1
387.9478	0
388.1404	1
388.2870	1
389.1212	1
389.3250	1
390.0910	1
391.0641	1
391.1986	1
391.3513	2
392.2191	1
393.4116	0
394.5361	1
395.2326	1
396.0066	1
397.2492	2
397.4865	1
398.6783	1
399.0504	1
399.3260	0
400.0775	1
401.1199	1
401.3131	2
402.0950	1
403.1790	1
404.0106	1
404.2170	2
404.8433	0
405.1545	1
406.2321	1
407.3280	0
408.1219	1
409.2657	2
409.3755	1
410.1566	2
410.5195	1
411.1787	2
411.3995	1
411.9298	1
412.8586	1
413.1994	0
414.2725	1
415.0472	1
415.2611	2
415.3963	1
415.5537	0
416.0743	1
416.2620	1
417.0885	1
417.2136	1
417.3689	1
418.4600	0
419.0974	1
419.2638	2
419.4373	1
419.5724	1
420.1494	1
421.1532	1
423.2371	1
424.1637	0
424.3656	1
425.2368	2
425.5054	0
426.2546	0
426.5222	1
427.3756	0
428.1938	1
429.3555	1
430.1608	1
431.2704	2
432.1760	1
432.3822	1
433.1474	2
433.4345	1
434.3172	1
435.1323	1
437.3787	1
438.6638	1
439.2469	2
440.2545	2
441.1429	1
441.3087	1
442.2064	0
443.4076	3
444.0912	1
444.2510	2
445.1865	1
445.3777	1
446.0554	1
446.2173	1
447.3352	1
447.7419	0
448.2884	1
450.1698	1
451.2742	1
453.3853	1
454.1823	1
456.3592	2
458.2823	1
459.2390	1
460.3438	1
460.9531	2
461.1153	1
461.9629	1
462.3644	1
463.0803	1
463.1989	1
464.0802	2
464.2273	2
464.4575	1
465.2223	1
465.4454	1
466.2732	1
467.3639	1
470.1111	1
471.2713	1
472.2257	1
474.0017	1
474.1375	1
475.1669	1
476.1925	1
476.8462	1
477.2881	1
478.0909	1
478.3585	1
478.7610	1
479.2852	2
480.0983	1
480.7260	1
481.2634	1
481.4521	1
483.2960	2
483.5354	1
483.7900	1
484.4271	1
485.1849	2
485.4508	1
487.2925	1
489.9032	1
490.4738	1
492.0476	1
492.2497	1
493.3901	1
493.5565	0
494.3607	2
495.3060	2
496.0343	2
496.2788	2
496.4513	1
497.3237	2
497.6677	1
498.2014	1
498.4520	2
499.2283	1
499.3917	1
499.5013	1
500.0695	1
500.1751	0
500.4562	1
501.3159	1
502.3757	1
503.1035	2
503.3442	1
503.9797	1
505.3211	1
505.8888	1
506.2747	1
507.1004	1
507.9648	1
508.3102	1
508.6525	1
509.2427	0
509.5424	1
510.4010	1
511.2697	1
511.4628	1
512.3276	1
513.0675	1
513.2952	1
514.0443	0
516.1821	1
518.0530	1
519.2388	1
520.3332	0
521.1063	0
521.3942	1
522.1622	1
523.3963	2
524.2245	0
525.0712	1
525.2748	1
526.0299	2
526.1734	1
526.3994	0
526.8523	1
527.0681	1
527.4091	1
528.0676	0
528.6387	1
528.8953	1
530.8053	1
531.3378	1
531.7289	1
533.0436	1
533.2280	1
534.3606	1
535.3986	1
537.3539	1
539.3202	2
539.5604	2
542.2948	1
543.3395	1
544.2875	2
545.3751	1
546.0738	1
546.5637	1
547.3470	1
548.0580	1
549.4812	2
549.9692	1
550.2239	0
550.5500	1
551.0676	1
552.1386	1
552.5901	1
553.3565	1
554.0975	1
554.3044	1
555.1841	1
555.4073	1
556.1902	2
556.4471	1
557.1077	1
557.8469	1
558.0774	1
558.4618	1
559.2990	1
561.1418	0
562.1780	1
564.1468	1
564.8191	1
565.2425	1
566.6026	1
567.2495	2
567.8629	0
568.5547	1
569.3978	1
571.2430	1
572.2326	1
572.7534	0
573.2110	1
573.4882	1
575.5931	0
576.1507	1
576.5045	1
579.1635	1
579.3950	0
580.1649	2
580.4392	2
580.9889	1
581.5886	0
582.1465	1
582.3943	1
582.5698	1
582.9604	1
583.1960	1
584.1213	1
584.2274	0
584.7446	1
585.1608	1
586.3382	1
588.0452	0
588.5197	1
591.2048	1
591.3600	1
591.5754	0
592.2725	1
593.3618	1
593.5731	1
594.0988	1
594.2673	1
595.3801	1
597.4243	2
598.3925	1
599.8887	0
600.2012	3
600.7180	0
601.2349	0
601.4330	1
601.6023	1
602.2891	1
602.4552	1
602.6234	1
603.3173	2
603.5303	0
603.6791	1
604.3965	2
604.6462	1
605.2435	1
605.5850	2
606.5033	1
607.1822	1
608.1455	2
608.3392	1
609.2150	0
609.3873	1
609.5494	1
610.0377	1
610.3467	1
611.0441	1
612.5553	1
613.0417	1
613.2508	0
613.4670	1
614.3828	1
615.5313	1
616.1759	1
617.5092	1
618.1335	1
618.3998	4
618.5620	1
619.0568	1
619.2853	1
619.5342	2
620.2015	1
620.3577	1
621.1474	1
621.2994	1
622.1454	1
622.3127	1
623.0128	1
623.3189	1
623.9741	1
624.1446	0
624.3079	3
624.4855	1
625.1601	1
625.3693	1
628.1826	0
628.4674	1
629.4669	1
629.7701	1
630.5553	1
631.4375	1
631.8735	1
632.0226	1
632.2360	0
633.3848	2
633.5952	1
633.9731	1
634.4183	1
635.4131	1
635.7390	1
637.0259	1
637.2834	1
637.4478	1
638.0669	1
638.4040	2
638.8402	0
640.1734	1
640.3880	1
641.5211	1
642.8893	1
643.2336	2
644.0849	1
646.4284	1
646.6400	1
647.2113	1
647.6243	2
648.5105	1
649.3253	1
649.9938	1
650.2791	1
650.4222	1
650.9221	0
652.3372	1
652.5069	0
653.2563	1
653.4435	1
654.1102	1
655.1462	1
655.3055	1
655.8108	0
657.0337	1
657.1736	1
657.8903	1
658.3047	3
658.5477	2
658.7815	0
659.2634	1
659.5167	2
660.1905	1
660.7501	1
662.0693	1
663.1937	1
663.3326	1
664.2456	1
666.3517	1
667.2383	1
667.3823	1
668.2935	1
668.5346	1
669.4111	1
669.6481	0
670.2764	1
670.5226	1
671.1857	1
671.4218	2
672.1462	1
672.5018	4
672.7889	2
673.2865	1
673.5604	2
673.7218	1
674.3186	1
674.5710	2
675.5684	1
676.1969	2
677.3253	1
677.5603	0
677.7330	1
678.0060	0
678.4751	1
679.2908	1
679.4543	1
680.2854	0
680.5685	1
682.2779	1
682.4629	1
683.5027	1
683.7142	1
684.2503	2
684.9191	1
685.3205	0
685.6462	1
686.3080	3
686.6470	3
687.0433	2
687.4344	9
687.8624	1
688.0228	1
688.1821	2
688.4058	2
688.6876	1
689.2933	3
689.5701	1
689.7050	1
690.0502	1
690.2330	1
691.2709	1
691.6581	0
692.3109	1
693.3795	1
694.8690	1
695.0386	1
695.9255	1
696.2157	1
696.4558	1
698.4055	0
698.8511	1
699.1689	1
699.3120	1
701.2916	1
701.4142	1
701.6370	2
702.4926	7
703.3338	6
703.4482	2
703.6138	1
703.7999	1
704.0063	1
704.3989	3
704.7004	3
705.3956	2
705.7902	1
706.1470	1
708.2510	1
708.3921	1
708.5741	1
709.2233	1
709.5107	1
709.7090	0
710.0229	0
710.1988	1
710.3757	1
710.8113	1
711.2397	1
712.3195	2
712.6308	1
713.2944	1
713.8569	2
714.3041	1
714.5184	1
715.6681	1
716.3440	0
716.5482	1
716.9097	1
717.1731	2
717.3467	0
718.1779	1
718.4117	1
719.5033	1
720.1957	2
720.3172	0
721.3773	1
722.4006	1
723.0615	1
724.2310	1
724.5220	1
724.6283	0
725.7070	1
726.6355	1
728.0637	0
728.3671	1
728.6348	1
729.0894	1
730.1857	1
730.6219	1
730.8120	1
731.2104	2
731.3382	1
731.5242	1
732.4158	20
732.6618	8
733.0997	1
733.3058	1
734.0816	1
734.5970	1
735.4055	2
737.8546	0
738.2925	1
738.4477	2
738.5764	2
739.8852	1
740.1599	1
740.3896	2
740.4927	1
740.7490	1
742.3531	1
744.0319	1
745.5117	1
745.8762	1
746.4083	5
746.6014	2
746.7719	2
746.9731	2
747.3510	2
747.5512	2
748.0629	1
748.3795	1
748.6563	2
748.9138	1
749.1058	1
749.5154	1
749.7452	1
750.1946	2
750.4572	2
750.6369	1
750.8116	2
751.2049	1
751.4919	1
751.7289	2
752.0221	2
752.2009	2
752.3705	2
752.5237	2
752.9303	1
753.3461	2
753.5739	2
753.7292	1
754.0602	2
754.3483	2
754.9960	1
755.2331	0
755.6509	1
756.1240	2
756.6993	2
756.9250	0
757.2336	1
757.4973	2
757.6281	1
758.4282	2
758.5876	0
758.7499	0
760.0350	2
760.3422	2
760.5882	2
760.7056	1
760.9843	1
761.5855	0
761.8876	1
762.3746	1
762.6379	1
763.5016	1
763.9058	1
764.3989	2
764.5184	1
764.6920	1
765.0799	1
765.3341	2
766.2254	3
766.4357	2
766.6093	1
766.8819	1
767.9989	1
768.1418	1
768.5330	1
768.6462	1
771.3574	1
771.7271	1
772.3633	1
772.6339	1
773.4407	1
773.8687	1
774.4866	13
774.9471	1
775.2321	1
775.6161	1
775.7469	1
775.9042	1
776.2086	2
776.4221	1
776.6039	1
777.8204	1
778.0625	1
778.3812	1
778.6907	1
779.4456	1
779.6346	0
780.3813	4
780.6868	1
780.8993	2
781.1680	1
781.3130	1
781.4959	3
781.7002	1
781.9393	1
782.9160	1
784.3044	1
786.0159	0
786.5503	0
787.1736	2
790.2853	1
791.6773	1
792.1372	1
792.3048	3
792.5215	1
793.2042	1
794.1180	3
794.3868	3
794.5912	3
794.7292	1
794.8938	3
795.4212	3
796.5303	1
798.3018	1
798.6688	1
799.3987	1
801.1276	1
804.1857	2
804.7317	2
805.7992	0
806.1500	1
806.5130	2
806.6868	1
806.8760	3
807.3934	0
807.5540	2
808.0898	1
808.4447	3
808.7229	2
808.8610	1
809.1320	1
809.4152	1
810.8049	1
811.9583	1
813.5034	1
814.2897	1
814.7466	0
815.7339	1
815.9930	1
816.6152	1
817.2323	1
818.3217	2
819.0806	1
820.3139	2
820.5251	3
821.5738	1
821.7819	1
822.3114	2
822.6399	3
822.9949	1
823.2928	2
824.5100	2
825.1467	1
828.9813	1
829.4634	1
829.6143	2
829.8997	1
830.7162	1
831.6888	2
831.9070	1
832.3677	2
832.6114	2
832.8652	2
833.1569	1
833.4382	2
834.1468	4
834.4608	3
834.6830	4
834.9838	3
835.2836	3
835.6373	3
836.1563	4
836.5580	6
836.8099	1
836.9333	1
837.1260	2
837.5032	2
837.8071	1
837.9906	2
838.2486	3
838.5494	3
838.7319	3
839.0929	3
839.4712	2
839.9362	1
840.1299	2
840.2411	1
840.4716	1
840.6979	1
840.9263	2
841.1527	1
841.5402	3
842.2266	3
842.5988	2
842.9006	2
843.0598	1
843.4249	2
843.7563	2
844.2193	3
844.3172	1
844.7507	2
845.0556	1
845.3035	3
845.5105	3
845.7032	2
846.3009	5
846.6202	3
847.1485	3
847.4932	1
847.6768	2
848.5275	20
848.8702	11
849.2477	7
849.5261	3
849.7648	4
849.9127	2
850.2667	4
850.4809	3
850.7339	4
851.5632	13
851.7979	6
851.9550	4
852.4242	4
852.7078	3
853.0546	1
853.3821	3
853.5698	1
853.7473	1
854.1166	1
854.3339	2
854.5706	3
854.8705	3
855.2970	2
855.5521	2
855.7225	1
856.3264	1
856.6611	2
856.9814	2
857.1314	3
857.3039	1
857.6722	2
857.8232	3
857.9497	2
858.2977	4
858.4435	3
858.6456	1
858.8262	4
859.2527	6
859.4863	4
859.7547	3
860.2485	6
861.3384	8
861.7874	13
862.1751	14
866.4878	999
867.3083	79
868.1585	39
869.2639	20
869.9253	15
870.6571	12
871.4155	8
871.7023	7
872.0566	7
872.4639	6
872.6588	5
872.7548	2
873.0590	2
873.3141	3
873.4877	2
873.7266	2
873.9164	1
