Mass spectrum: Allenicmytiloxanthin; FAB-EBEB; MS2; m/z: 616.41; [M]+*
Name: Allenicmytiloxanthin
Formula: C40H56O5
Exact mass: 616.41277
SMILES: C/C(=C\C=C\C=C(/C)\C=C\C=C(/C)\C(=C\C(=O)[C@@]1(C[C@H](CC1(C)C)O)C)\O)/C=C/C=C(\C)/C=C=C2[C@](C[C@H](CC2(C)C)O)(C)O
InChI: InChI=1S/C40H56O5/c1-28(17-13-18-30(3)21-22-35-37(5,6)24-32(41)27-40(35,10)45)15-11-12-16-29(2)19-14-20-31(4)34(43)23-36(44)39(9)26-33(42)25-38(39,7)8/h11-21,23,32-33,41-43,45H,24-27H2,1-10H3/b12-11+,17-13+,19-14+,28-15+,29-16+,30-18+,31-20+,34-23-/t22?,32-,33-,39-,40+/m0/s1
Instrument: JMS-HX/HX 110A, JEOL
Instrument type: FAB-EBEB
Ms type: MS2
Ion mode: POSITIVE
Collision energy: 3 kV
Ionization: FAB
Base peak: 109.0890
Precursor m/z: 616.41
Precursor type: [M]+*
m/z	relative intensity
12.9958	0
14.0124	1
15.0152	4
19.0062	0
22.9728	2
23.2902	0
23.9699	0
25.0035	1
26.0118	7
27.0114	35
28.0213	5
29.0206	37
30.0180	1
31.0037	8
33.0165	0
36.0171	0
37.0073	5
38.0023	14
38.4095	0
39.0127	96
39.5930	0
40.0189	12
41.0258	170
42.0086	9
43.0147	479
44.0071	5
45.0191	7
45.9986	0
46.9858	1
48.9797	2
50.0061	28
50.4354	0
51.0096	57
51.4521	0
52.0178	20
53.0272	97
54.0303	7
55.0389	212
56.0396	7
57.0565	87
58.0542	4
59.0407	31
60.0530	1
61.0228	7
62.0144	16
63.0202	54
63.4256	1
64.0151	12
65.0282	80
66.0417	23
66.4397	0
67.0429	145
67.5647	0
68.0518	10
69.0275	315
70.0429	6
71.0375	123
72.0461	2
73.0232	4
74.0127	15
75.0147	28
75.9886	19
76.3643	1
77.0261	220
78.0274	44
79.0384	186
80.0380	25
81.0538	140
81.6224	0
82.0460	17
83.0625	695
83.6893	0
84.0509	9
85.0649	187
86.0317	6
87.0254	82
88.0204	5
89.0165	38
89.4759	4
90.0328	15
91.0449	394
92.0429	43
93.0626	199
94.0530	25
95.0554	228
96.0540	22
97.0518	87
98.0239	11
99.0413	129
100.0232	5
101.0224	17
102.0377	36
103.0438	78
104.0589	41
105.0605	403
106.0668	42
107.0737	201
107.5537	2
108.0667	31
109.0890	999
110.0681	23
110.5724	2
111.0445	114
112.0297	7
113.0422	109
113.9936	10
115.0366	263
116.0527	90
117.0504	203
118.0525	43
119.0605	370
120.0455	35
121.0565	190
122.0358	41
123.0410	117
124.0289	19
125.0574	140
126.0335	27
127.0532	195
128.0291	309
129.0354	302
130.0475	102
131.0434	264
132.0566	66
133.0579	207
134.0355	46
135.0393	175
135.5564	3
136.0266	32
137.0239	136
138.0166	27
138.4485	1
139.0287	83
140.0435	22
141.0253	254
142.0394	196
143.0457	320
144.0471	102
145.0571	323
146.0428	57
147.0535	215
148.0427	31
149.0584	100
150.0362	18
150.4677	5
151.0539	99
152.0441	132
153.0518	207
154.0470	86
155.0656	254
156.0807	165
157.0817	311
158.0836	94
159.0773	253
160.0765	56
161.0750	196
162.0819	42
163.0685	83
163.5189	4
164.0742	25
165.0700	271
166.0865	78
167.0900	262
167.5465	5
168.0990	69
169.1073	228
170.1148	92
171.1262	191
172.1154	71
173.1160	150
174.0961	55
175.0875	385
176.0858	41
177.1031	70
178.0845	118
179.0987	213
180.1060	79
181.1033	192
182.1166	79
183.1106	217
184.1084	60
185.1099	133
186.1259	40
187.0950	85
188.0830	29
189.0779	114
190.0734	35
191.0850	100
192.0894	75
193.1022	195
194.0971	78
195.1065	189
196.1026	68
197.1117	196
198.1058	49
199.0990	110
199.5532	3
200.1113	27
201.1087	81
202.0850	74
203.0773	92
204.0748	34
205.0853	106
206.1056	62
207.1032	131
208.1138	63
209.1077	144
209.6236	3
210.1318	43
211.1174	136
211.5605	5
212.1207	27
213.1073	90
214.1100	22
214.4662	5
215.0960	89
216.0950	38
217.1227	85
218.1524	37
219.1246	97
220.1240	43
221.1395	119
222.1382	43
223.1546	96
223.6175	2
224.1684	34
225.1496	70
226.1391	33
227.1401	59
228.1289	28
229.1339	68
230.1282	29
231.1624	61
232.1639	45
233.1832	158
234.1840	24
235.1947	83
236.1952	24
237.1851	134
238.1722	18
239.1755	58
240.1902	15
241.1721	40
241.6893	2
242.2034	19
243.1672	46
244.1597	24
244.5449	3
245.1716	50
246.1776	49
247.1870	64
248.1700	23
249.1802	58
250.1749	31
251.1890	36
252.1338	21
252.6119	3
253.1961	43
254.1907	10
255.1824	57
255.6800	1
256.1745	16
257.1827	44
258.1977	22
259.1685	50
260.2318	15
261.1921	48
262.2074	17
263.1943	53
264.1626	12
265.1882	30
266.1666	9
267.1786	33
268.2148	14
268.5692	2
269.1972	31
270.2022	20
271.1773	39
272.2211	17
273.2158	48
274.1806	13
275.1807	37
275.7303	3
276.2146	13
277.1850	29
278.1414	12
279.2064	18
280.1819	8
280.4448	3
281.1935	27
282.1959	12
283.1873	25
284.2094	8
284.5219	2
285.2237	31
286.2048	20
287.1942	23
288.2284	7
289.1960	22
290.1717	8
291.1924	24
292.1718	10
293.1850	19
293.7301	1
294.2257	5
295.1819	15
295.6217	2
296.2663	6
296.5430	1
297.2141	22
298.1890	19
299.2121	37
300.1875	9
301.1854	29
302.1820	9
302.6188	2
303.2045	18
304.1984	3
304.5713	1
305.1909	16
306.1340	5
307.1814	15
308.1473	21
309.1519	46
310.1616	34
311.2596	20
312.1832	10
312.6049	1
313.2031	13
314.2602	5
315.1923	27
315.7571	1
316.2113	7
317.1840	13
317.7603	2
318.2275	8
318.5566	1
319.2247	8
320.1305	2
321.1248	9
322.1435	2
323.2282	8
324.1444	6
324.6155	0
325.2087	15
325.6525	1
326.2105	6
327.2029	11
328.1649	5
328.4947	3
329.2139	17
329.6613	2
330.2197	6
331.2466	18
332.2142	2
333.2141	9
334.2658	9
335.1936	8
336.1555	4
336.6324	0
337.1562	6
337.6493	0
338.2505	2
338.6889	0
339.1919	5
340.2076	5
340.6769	1
341.2252	8
341.6555	1
342.2611	4
342.7041	1
343.2308	12
343.8253	2
344.2701	7
345.2595	8
346.1798	8
347.2453	16
348.2321	5
349.2545	10
350.1899	3
351.2691	12
351.6514	2
352.3113	6
353.2666	10
354.3221	2
354.7240	0
355.2228	4
355.8024	2
356.2189	4
357.2863	8
358.2552	3
359.1630	4
359.4102	4
359.6702	1
360.2712	6
361.2778	5
361.6818	1
362.2636	3
363.2721	8
364.3520	5
365.2622	14
366.3375	7
367.3094	21
368.2136	1
369.2619	12
370.2645	4
370.6955	1
371.3315	6
372.2565	5
373.2850	10
373.8938	1
374.3459	3
375.2552	10
376.2793	2
377.3876	4
377.7657	1
378.2876	4
379.2410	7
379.5949	1
379.8260	0
380.3578	4
381.2614	15
381.7092	2
381.8870	1
382.3381	4
383.2710	8
383.6543	1
384.3171	3
384.9134	2
385.3481	6
386.3484	3
387.2924	4
387.9745	1
388.3027	2
388.5549	1
389.2485	3
390.1911	3
391.2924	6
392.3809	4
393.3094	6
394.3302	4
394.8561	1
395.3302	8
396.1700	1
397.4178	2
398.2999	7
398.6706	1
399.3230	16
400.2734	3
400.7818	0
401.3178	15
402.2732	5
402.7234	1
403.2709	6
403.6775	2
404.2849	4
405.3476	4
406.2436	1
406.5822	1
406.8398	0
407.3065	3
408.3194	1
409.2303	3
410.1574	1
411.3166	3
411.9926	0
412.3542	1
413.2671	6
414.1347	1
415.3641	5
415.9464	1
416.2206	0
416.6115	1
417.2084	3
417.7529	1
418.3346	5
419.3393	13
419.8174	2
420.2729	3
420.6765	2
421.3864	1
421.9473	1
423.2297	3
424.2139	1
424.8026	2
425.2469	2
426.3043	1
427.2774	5
427.9604	1
428.2686	3
428.5703	1
429.3360	5
429.8536	1
430.1619	3
430.4182	1
431.2863	4
432.2260	5
432.7047	0
433.3669	6
434.3099	6
435.2844	8
435.9945	1
436.2717	2
437.1716	2
437.3921	1
437.6726	0
438.5288	0
439.0072	1
439.5229	1
440.2982	1
441.2179	3
441.5293	1
442.1847	0
442.4686	0
442.7298	0
443.3674	8
444.2354	3
444.5113	2
445.2447	7
446.3677	6
447.3058	9
448.3364	6
448.7000	1
449.3477	4
450.3461	1
450.8088	1
451.4453	2
451.6353	1
452.3692	2
453.2477	2
453.7187	0
454.2318	0
455.2177	2
456.1696	1
456.5237	2
457.3310	5
457.8168	1
458.3919	4
459.0418	2
459.5325	3
460.3092	4
460.6732	2
461.3346	17
462.2740	14
463.2800	56
464.1187	2
464.4715	0
465.3006	3
466.5914	1
467.3589	1
467.6906	1
467.8987	0
468.5377	1
469.0305	1
469.7785	1
470.3689	3
471.3980	7
472.2773	3
473.3529	5
473.8770	1
474.3459	2
475.2952	2
475.5776	1
476.3549	3
477.2556	4
477.7701	1
478.2847	2
478.8479	0
479.3316	1
480.2797	2
480.8268	0
481.3836	1
482.0005	2
482.4536	1
483.2557	2
483.4521	1
483.8890	1
484.4119	2
484.6343	1
485.3424	2
485.7419	1
486.3705	1
487.3645	4
489.3252	21
490.3015	3
490.7354	2
491.3138	1
492.2724	2
493.3189	2
493.7382	2
494.2062	2
494.5377	1
495.0399	1
495.4332	1
496.0476	2
497.4390	4
498.0632	1
498.3558	1
498.8077	1
499.4089	4
499.9950	1
500.4204	3
500.7322	2
501.1966	4
501.5684	3
502.1790	4
502.6207	2
503.2021	3
503.8338	1
504.4803	2
504.9025	1
505.6611	2
506.3449	3
506.8046	2
507.2156	1
507.5161	1
507.9580	2
508.4438	2
508.9815	3
509.4364	2
509.8507	1
510.3300	3
510.8825	1
511.2059	1
511.5666	1
511.8250	1
512.3547	2
512.7594	0
513.3802	5
514.3098	4
515.4053	10
515.6718	3
516.4033	6
517.2925	3
517.6550	2
517.9379	0
518.4955	3
519.4644	3
520.1586	2
520.5717	1
521.0172	2
521.3553	2
521.7083	3
522.3278	1
522.7684	2
523.2953	3
523.8076	1
524.4077	14
525.1591	0
525.5397	2
526.0813	1
526.2798	1
526.6990	2
527.2834	2
527.7267	1
528.0710	2
528.5906	1
529.1508	1
529.6526	2
530.4142	14
531.0849	2
531.5137	5
531.9587	2
532.5466	3
533.4806	1
534.2927	1
534.6794	2
535.3584	2
535.8636	1
536.4127	6
536.8140	0
537.4086	10
538.4175	1
539.4575	2
539.9677	2
540.3983	2
541.2985	3
542.2119	3
543.4291	9
544.1946	4
544.4612	5
545.1032	1
546.1224	2
547.4537	3
548.0211	0
548.3203	1
548.7592	2
549.2827	2
550.0095	2
550.8989	2
551.5964	2
552.2208	2
552.9769	2
553.9055	3
554.3755	1
554.7968	1
555.4896	2
555.9498	1
556.4085	6
557.3942	6
558.3734	9
559.4177	3
560.1547	2
560.8412	2
561.3651	1
561.6871	1
562.1411	1
562.4258	2
562.7545	1
563.0229	0
563.5778	2
564.2758	2
565.3140	6
566.0202	1
566.3311	1
566.7948	1
567.1968	4
567.5760	2
568.3914	3
569.3875	6
569.7422	3
570.4406	6
571.4790	4
572.5408	12
573.5884	11
574.2738	6
575.1142	6
576.3203	8
577.2587	7
577.7451	4
580.1216	40
581.5369	5
583.4601	40
584.4871	4
584.8544	2
585.6006	3
586.5035	7
587.5894	10
591.5105	18
598.6416	717
599.6514	46
601.5223	91
602.6356	14
616.4764	999
618.5623	78
619.4419	39
620.5375	23
620.8463	12
622.2875	6
623.9093	4
