Mass spectrum: Canthaxanthin; EI-EBEB; MS; POS
Name: Canthaxanthin
Class: Natural Product; Carotenoid
Formula: C40H52O2
Exact mass: 564.39673
SMILES: C(C(C)=1)(=O)CCC(C(C=CC(C)=CC=CC(=CC=CC=C(C)C=CC=C(C=CC(=C2C)C(CCC2=O)(C)C)C)C)1)(C)C
InChI: InChI=1S/C40H52O2/c1-29(17-13-19-31(3)21-23-35-33(5)37(41)25-27-39(35,7)8)15-11-12-16-30(2)18-14-20-32(4)22-24-36-34(6)38(42)26-28-40(36,9)10/h11-24H,25-28H2,1-10H3/b12-11+,17-13+,18-14+,23-21+,24-22+,29-15+,30-16+,31-19+,32-20+
Instrument: JMS-HX/HX 110A, JEOL
Instrument type: EI-EBEB
Ms type: MS
Ion mode: POSITIVE
Ionization: EI
Base peak: 564.0000
m/z	relative intensity
41.0000	21
43.0000	20
55.0000	28
67.0000	15
69.0000	54
77.0000	17
79.0000	21
81.0000	25
83.0000	10
91.0000	80
92.0000	28
93.0000	35
95.0000	25
97.0000	15
105.0000	68
106.0000	22
107.0000	34
109.0000	20
111.0000	9
113.0000	10
115.0000	17
116.0000	9
117.0000	23
119.0000	79
120.0000	17
121.0000	38
122.0000	8
123.0000	16
128.0000	24
129.0000	35
130.0000	17
131.0000	38
132.0000	15
133.0000	95
134.0000	18
135.0000	23
137.0000	37
138.0000	11
139.0000	35
141.0000	23
142.0000	30
143.0000	58
144.0000	27
145.0000	70
146.0000	18
147.0000	51
148.0000	13
149.0000	15
152.0000	12
153.0000	14
154.0000	10
155.0000	32
156.0000	40
157.0000	73
158.0000	31
159.0000	46
160.0000	14
161.0000	26
162.0000	13
163.0000	29
165.0000	28
166.0000	14
167.0000	21
168.0000	14
169.0000	46
170.0000	24
171.0000	50
172.0000	19
173.0000	35
174.0000	11
175.0000	22
177.0000	13
178.0000	11
179.0000	26
180.0000	16
181.0000	33
182.0000	18
183.0000	52
184.0000	19
185.0000	36
186.0000	13
187.0000	30
188.0000	12
189.0000	26
190.0000	19
191.0000	41
192.0000	29
193.0000	29
194.0000	21
195.0000	53
196.0000	26
197.0000	44
198.0000	16
199.0000	28
200.0000	12
201.0000	25
202.0000	11
203.0000	101
204.0000	22
205.0000	30
206.0000	16
207.0000	37
208.0000	24
209.0000	67
210.0000	23
211.0000	29
212.0000	13
213.0000	22
214.0000	11
215.0000	42
216.0000	18
217.0000	21
218.0000	18
219.0000	16
220.0000	13
221.0000	33
222.0000	18
223.0000	32
224.0000	11
225.0000	22
226.0000	9
227.0000	18
228.0000	9
229.0000	18
230.0000	9
231.0000	14
232.0000	10
233.0000	19
234.0000	10
235.0000	23
236.0000	13
237.0000	18
238.0000	8
239.0000	17
240.0000	10
241.0000	16
243.0000	13
245.0000	13
246.0000	9
247.0000	19
248.0000	10
249.0000	17
251.0000	13
253.0000	19
254.0000	9
255.0000	30
256.0000	12
257.0000	19
258.0000	10
259.0000	13
260.0000	8
261.0000	21
262.0000	9
263.0000	13
265.0000	11
267.0000	17
268.0000	16
269.0000	25
270.0000	19
271.0000	12
273.0000	12
275.0000	13
277.0000	11
279.0000	16
281.0000	25
282.0000	26
283.0000	18
289.0000	9
291.0000	12
293.0000	10
294.0000	8
295.0000	15
296.0000	9
303.0000	8
305.0000	11
307.0000	12
319.0000	8
333.0000	9
334.0000	8
345.0000	14
346.0000	10
347.0000	31
348.0000	11
349.0000	8
359.0000	9
360.0000	24
361.0000	38
362.0000	22
373.0000	23
374.0000	9
390.0000	8
407.0000	9
408.0000	9
412.0000	8
413.0000	19
414.0000	8
420.0000	11
447.0000	12
458.0000	56
459.0000	21
472.0000	127
473.0000	47
474.0000	11
484.0000	8
485.0000	32
486.0000	14
549.0000	10
550.0000	8
564.0000	999
565.0000	448
566.0000	113
567.0000	22
