Mass spectrum: 4-Keto-4'-hydroxy-diatoxanthin; FAB-EBEB; MS2; m/z: 596.39; [M]*+
Name: 4-Keto-4'-hydroxy-diatoxanthin
Class: Natural Product; Carotenoid
Formula: C40H52O4
Exact mass: 596.38656
SMILES: C(O)(C2O)C(=C(C(C2)(C)C)C=CC(C)=CC=CC(C)=CC=CC=C(C=CC=C(C#CC(C(C)(C)1)=C(C)C(=O)C(O)C1)C)C)C
InChI: InChI=1S/C40H52O4/c1-27(17-13-19-29(3)21-23-33-31(5)37(43)35(41)25-39(33,7)8)15-11-12-16-28(2)18-14-20-30(4)22-24-34-32(6)38(44)36(42)26-40(34,9)10/h11-21,23,35-37,41-43H,25-26H2,1-10H3/b12-11+,17-13+,18-14+,23-21+,27-15+,28-16+,29-19+,30-20+/t35-,36-,37-/m0/s1
Instrument: JMS-HX/HX 110A, JEOL
Instrument type: FAB-EBEB
Ms type: MS2
Ion mode: POSITIVE
Collision energy: 3 kV
Ionization: FAB
Base peak: 596.2972
Precursor m/z: 596.39
Precursor type: [M]+*
m/z	relative intensity
0.5874	0
1.6569	0
1.7302	0
2.4889	0
4.4452	0
13.9799	1
14.9968	5
18.0154	1
18.9721	1
22.9477	1
23.9582	1
24.0325	0
24.9650	1
25.9725	4
26.9769	43
27.9877	3
28.6346	0
28.9868	42
29.9516	3
30.7398	0
30.9623	9
35.1478	0
35.9474	1
36.2735	0
36.9573	5
37.4049	0
37.9811	13
38.4362	0
38.6921	0
38.9714	86
39.8402	1
39.9853	9
40.5312	0
40.9975	163
41.2022	0
41.9821	4
42.6887	1
42.9843	178
43.9965	2
44.9821	9
45.1541	0
45.9970	0
46.9664	4
47.8040	0
47.9612	0
48.8334	0
48.9660	1
49.0548	1
49.4844	0
49.9661	29
50.9759	50
51.8211	1
51.9784	13
52.9819	89
53.2933	0
53.9990	3
54.1630	0
54.6140	0
54.9941	168
56.0080	5
56.6175	0
56.9950	59
57.5040	0
57.9342	1
58.0340	1
58.9950	18
59.2996	0
59.9665	9
60.7505	0
60.9595	4
61.9536	14
62.6421	0
62.9576	55
63.4602	0
63.5619	0
63.6874	0
63.9672	15
64.2766	0
64.5204	0
64.7283	0
64.9787	73
65.6335	0
65.9938	16
66.3138	1
67.0011	96
68.0003	3
69.0010	118
69.4444	0
69.7864	0
69.9876	5
70.9829	40
71.5007	1
71.6318	0
71.9829	2
72.9741	11
73.9535	15
74.9619	26
75.1807	0
75.2970	0
75.4127	1
75.5995	1
75.9712	12
76.1007	1
76.3274	1
76.4223	0
76.6210	1
76.9732	195
77.1362	2
77.4038	1
77.5345	1
77.9818	34
78.1826	1
78.5384	1
78.9948	151
79.2248	1
79.7423	0
80.0019	17
80.2844	1
80.3697	0
80.5659	0
81.0090	173
81.2236	1
81.4592	1
81.9860	5
82.6487	0
83.0036	68
83.4467	0
83.9819	3
84.9960	59
85.4615	1
85.5419	0
85.9535	8
86.9711	33
87.8190	1
87.9749	6
88.1740	1
88.4414	1
88.6944	2
88.9696	34
89.2241	2
89.5088	2
89.6995	1
89.9979	12
90.2243	2
90.4601	1
90.9945	386
91.3454	1
91.5228	0
91.6579	1
92.0075	33
92.5063	2
92.6288	1
93.0143	222
93.2615	2
93.3478	1
93.4933	1
93.6481	0
94.0074	18
94.4244	0
94.5425	1
94.6383	1
95.0228	121
95.4565	2
96.0002	5
96.5104	0
96.7381	1
97.0224	32
97.2727	0
97.9809	8
98.9956	7
99.3486	1
99.8162	0
100.0048	3
100.3398	0
100.4724	1
100.9836	15
101.2322	1
101.4295	1
101.9906	27
102.3113	1
102.5423	1
102.9959	81
103.2788	2
103.4373	1
103.5461	0
104.0087	39
104.3394	1
104.4951	1
105.0134	391
105.3189	2
105.4521	0
105.5468	1
106.0232	32
106.2786	1
106.4493	1
106.5581	1
106.6334	1
107.0360	179
107.3470	2
107.5390	0
107.7025	1
108.0235	22
108.3445	0
108.5104	1
108.7467	0
109.0407	126
109.4466	0
109.6293	1
109.6877	0
110.0147	6
110.4854	0
111.0150	36
111.5540	0
112.0024	4
112.2650	1
112.4326	0
112.9423	7
113.3853	2
113.9903	16
114.1770	2
114.5096	3
114.9876	242
115.3962	3
115.9987	83
116.2097	2
116.4933	3
116.9959	191
117.3165	2
118.0095	28
118.4341	2
119.0207	355
119.4093	2
119.6955	1
120.0154	46
120.2910	1
120.4084	1
121.0135	152
121.3405	1
121.4123	1
121.5597	1
121.9982	17
122.2331	1
122.3502	1
122.5302	0
122.7128	1
123.0088	55
123.3724	0
123.4690	1
123.6680	0
124.0014	14
124.2733	1
124.3428	0
124.4460	0
125.0025	30
125.2911	0
125.4523	1
125.6597	2
125.9673	17
126.4260	1
126.6174	3
126.9646	98
127.2043	5
127.9690	266
128.1927	3
128.4485	2
128.9787	270
129.3445	2
129.5340	2
129.6137	1
129.9916	98
130.4580	2
130.9888	202
131.2711	2
131.4866	1
131.6478	1
132.0004	56
132.3657	0
132.4785	0
132.5795	1
133.0074	219
133.3527	3
133.5274	0
133.6384	0
133.9853	18
134.4651	2
135.0018	102
135.6159	1
135.9847	30
136.3076	1
136.4980	1
136.9709	128
137.2350	2
137.4099	1
137.9595	17
138.2509	1
138.4552	2
138.9690	60
139.2939	2
139.4288	1
139.9611	19
140.1035	5
140.2969	3
140.9702	228
141.3177	2
141.9758	171
142.3701	2
142.9884	271
143.2602	2
143.4091	1
143.4928	1
144.0015	89
144.2316	2
144.4592	3
144.9990	245
145.3752	3
145.5258	1
145.7116	1
146.0068	36
146.2455	1
146.5141	1
146.6328	1
147.0077	116
147.3680	1
147.5382	1
147.9956	19
148.3756	2
148.5861	2
149.0225	57
149.2110	3
149.3407	1
149.5534	2
149.9855	16
150.3402	2
150.5524	1
150.9776	46
151.2938	5
151.9780	127
152.4930	4
152.9868	149
153.3364	1
153.5371	3
153.9957	79
154.2691	1
154.4237	1
154.5621	1
155.0084	222
155.3412	2
156.0105	121
156.2480	2
156.3497	3
156.4782	3
157.0303	231
157.4385	3
158.0269	58
158.5170	3
159.0289	137
159.2563	3
159.5249	3
159.7389	1
160.0380	26
160.4391	1
160.6101	3
161.0479	72
161.2635	2
161.4981	1
161.6293	1
161.7063	1
162.0397	14
162.4328	2
162.8016	5
163.0507	48
163.3066	2
163.5199	3
164.0083	27
164.2569	3
165.0161	274
165.5464	3
166.0247	90
166.4754	2
167.0396	181
167.3921	4
167.6978	4
168.0573	61
168.3781	2
169.0547	175
169.3262	2
169.5173	2
170.0642	68
170.4916	2
171.0616	145
171.3392	4
171.5850	2
172.0584	38
173.0559	91
173.4121	2
173.5692	1
174.0541	23
174.3092	1
174.5215	2
175.0564	45
175.4302	1
175.6427	3
176.0207	31
176.4056	1
177.0299	38
177.3006	6
178.0091	144
178.3427	3
178.5126	2
179.0279	206
179.3017	3
179.5509	2
180.0440	80
180.2681	3
180.3945	2
180.5243	3
181.0383	185
181.5052	3
182.0414	66
182.4922	2
183.0465	139
183.5113	1
183.6489	1
184.0544	41
184.2592	4
184.3914	1
185.0478	71
185.5112	2
185.6428	1
186.0528	28
186.3086	2
186.5830	1
187.0510	50
187.3852	3
187.5561	2
187.9996	15
188.5346	4
189.0154	110
189.4861	3
190.0037	39
190.9946	98
191.3957	3
192.0178	91
192.2553	3
193.0189	178
193.3516	2
193.5527	2
193.6857	1
194.0268	77
194.3824	3
195.0263	172
195.3959	3
196.0154	47
196.5957	2
197.0436	137
197.3280	3
197.4758	1
197.6733	2
198.0269	26
198.4399	2
198.5954	2
199.0425	56
199.3286	1
199.5643	2
200.0123	17
200.2377	3
200.4590	1
201.0242	38
201.2760	6
201.4178	3
201.9826	86
202.9962	107
203.4166	1
203.5081	1
203.6563	2
204.0180	35
204.4082	3
205.0140	98
205.2733	4
205.3988	2
205.7074	3
206.0251	75
206.3407	1
206.5350	2
207.0242	150
208.0238	66
209.0295	126
209.4985	4
210.0399	37
210.2852	3
210.6544	2
211.0410	71
211.3345	2
211.6078	1
212.0385	20
212.3397	2
213.0246	47
213.3343	3
213.4944	1
213.6866	5
214.0076	13
214.3057	3
214.9981	96
215.3019	3
215.5647	1
216.0121	47
216.4757	3
217.0147	91
217.5301	3
218.0275	46
218.3115	3
218.4071	1
218.6102	2
219.0339	111
219.4876	1
220.0476	56
220.3388	2
221.0416	105
221.3651	2
221.6593	2
222.0590	42
222.2345	6
223.0700	91
223.3966	2
223.6749	5
224.0701	33
224.4487	3
225.0729	44
225.4578	2
226.0326	41
226.3232	4
226.4863	4
226.6229	3
227.0649	45
227.3486	5
227.5020	2
228.0338	43
228.2945	3
229.0424	78
229.4266	1
229.6040	1
230.0500	39
230.3488	1
230.5087	1
231.0616	89
231.3289	3
231.6903	2
232.0651	47
232.4815	3
232.6083	2
233.0806	92
233.4325	2
234.0670	33
234.2914	4
234.4351	2
234.5684	2
235.0944	78
235.3483	3
235.4409	1
235.5974	1
236.0843	28
236.3910	3
236.6072	2
236.7286	1
237.0852	58
237.4137	3
238.0667	22
238.3399	3
239.0620	72
240.0429	22
240.3760	3
241.0628	50
241.3454	4
241.5058	2
241.6492	1
242.0472	29
242.3159	2
242.4939	3
242.6409	2
243.0735	62
243.3458	3
243.6153	3
244.0728	43
244.4296	2
244.5873	1
245.0766	69
245.5364	1
246.0765	43
247.0874	67
247.4094	3
247.7032	2
248.0831	21
248.4510	2
249.0968	50
249.4155	2
249.5523	1
250.0699	22
250.4529	3
251.1083	40
251.3778	2
251.5246	2
252.0553	28
252.4012	1
252.6207	1
253.0767	45
253.4538	1
254.0625	19
254.2235	6
255.0655	43
255.4915	2
256.0851	25
256.3819	1
256.5551	3
256.6639	2
257.0881	68
257.4352	1
257.5314	1
257.6487	1
258.0794	25
258.3552	2
258.4894	3
258.6540	3
259.1004	56
259.4218	2
260.1008	24
260.4131	1
260.6414	2
261.1071	51
261.4005	3
261.5384	2
261.7243	3
262.1138	14
262.3726	2
263.0911	42
263.5841	3
264.0992	12
264.4303	3
265.0883	31
265.3962	2
265.7798	4
266.0856	14
266.3624	1
267.0868	39
267.3856	3
267.4840	1
267.6257	1
267.7333	1
268.0917	16
268.4679	2
268.6705	2
269.0998	41
269.3521	2
270.0777	16
270.4690	1
270.6441	1
271.1042	51
271.5572	1
272.0904	22
272.5493	1
273.0990	48
273.6147	3
274.1021	20
274.4037	3
274.5229	2
275.1240	35
275.6748	2
276.0816	20
276.4437	1
277.1037	29
277.4947	2
277.6756	2
278.1220	16
278.4165	2
278.5741	2
279.0958	27
279.6943	2
280.0912	13
280.3702	4
280.6181	3
281.0989	33
281.4299	1
281.5371	0
281.7581	3
282.1275	9
282.5453	3
283.1109	39
283.5394	2
284.1173	17
284.3938	2
285.1296	40
285.5086	2
285.8030	2
286.1166	20
286.2503	8
286.4431	1
286.5881	1
286.7254	2
287.1316	37
287.4816	3
287.6253	0
287.8430	3
288.1177	14
288.4870	1
289.0947	37
289.4271	1
289.5602	1
289.6805	2
290.0856	50
290.3882	1
290.4921	1
290.7420	4
291.1258	26
291.5196	2
291.7432	1
292.1548	10
292.5559	0
293.1208	26
293.4900	3
293.6066	1
293.7780	0
294.1002	9
294.5476	1
295.1238	37
295.5194	1
295.6297	1
296.1264	11
296.3206	2
296.4964	1
296.7106	1
297.1341	33
297.5641	2
298.1029	12
298.4354	1
298.6213	1
299.1190	29
299.6503	2
299.7984	2
300.1274	14
300.4750	3
301.1255	21
301.2629	11
301.4539	1
301.6306	1
302.1044	11
302.3439	1
302.4728	1
302.5669	0
303.1071	24
303.4279	3
303.5398	1
303.6489	1
303.7480	1
304.1037	9
304.2562	3
304.5093	1
304.6576	2
305.0969	18
305.4463	1
305.5846	2
306.0739	5
306.5161	2
307.0931	20
307.2480	6
307.4834	1
307.6325	0
308.1205	10
308.2725	5
308.4966	1
308.6500	1
309.1210	25
309.6449	3
310.1252	11
310.3944	2
310.5721	2
311.1126	20
312.1259	7
312.5036	0
312.7250	2
313.1236	21
313.4850	1
313.6636	1
314.0944	7
314.3824	4
314.5445	1
315.0969	19
315.5263	1
315.7136	2
316.1195	9
316.4305	1
316.6721	1
317.1188	17
317.9303	3
318.1677	7
318.2799	3
318.4529	1
318.5623	1
318.7533	2
319.1151	14
319.4062	1
319.5664	1
319.7188	0
319.8368	0
319.9841	4
320.1551	7
320.3075	1
320.4899	2
320.5965	1
321.1165	21
321.6203	3
321.7219	2
322.0939	9
322.2507	3
322.3666	0
322.5605	0
322.7144	4
323.1374	17
323.5947	1
324.0994	7
324.3736	1
324.5361	0
324.7279	0
325.1310	15
325.4518	4
326.0397	10
326.5926	2
326.7043	1
327.1384	16
327.6892	1
327.8088	1
328.1198	4
328.3282	1
328.5195	0
328.7223	2
329.1371	13
329.5098	1
329.6674	1
330.1003	7
330.4400	1
330.7697	2
331.1324	10
331.4513	1
331.7238	2
331.8241	1
332.1446	5
332.5604	2
332.6278	1
333.1347	14
333.3836	2
333.5650	1
333.7371	1
333.8906	2
334.1796	5
334.5267	0
334.7089	1
335.1472	11
335.6802	1
335.8108	2
336.1479	6
336.4321	1
336.6380	0
337.1467	14
337.4859	1
338.1374	9
338.3537	2
338.6773	1
339.1500	12
339.7666	1
340.1054	4
340.2795	3
340.3590	1
340.5237	1
341.1455	16
341.2795	5
341.4063	2
341.5073	0
341.7423	2
342.1350	5
342.4624	2
342.5807	1
342.7068	1
343.1468	11
343.2937	5
343.6936	2
344.0463	2
344.2498	4
344.6068	2
345.1158	14
345.3065	5
345.5359	1
345.7954	1
346.1338	6
346.2916	3
346.4106	1
346.5726	1
346.8394	3
347.1556	13
347.7100	1
348.1848	7
348.3289	3
348.5284	1
349.1510	18
349.4114	2
349.6675	3
349.7974	0
350.0901	5
350.2386	3
350.3391	2
350.4438	1
350.5808	1
351.1090	9
351.3630	1
351.6874	1
352.1194	7
352.2996	1
352.4079	1
352.6628	1
353.1638	13
353.5822	1
353.8637	3
354.1788	7
354.3899	2
355.1280	12
355.3391	3
355.5739	1
355.7003	1
356.1312	3
356.6627	1
357.0735	10
357.2243	5
357.4743	1
357.5985	0
357.8284	1
358.0288	2
358.1783	6
358.3277	1
358.5999	2
359.1395	15
359.5605	1
359.7948	1
360.0959	6
360.2418	7
360.6054	2
360.7606	2
361.1861	25
361.3967	4
361.6022	1
362.1492	6
362.3318	2
362.5065	2
362.7451	1
363.2088	15
363.5898	1
363.7976	2
364.2211	4
364.5526	1
364.7489	2
365.1852	8
365.3145	3
365.4798	2
365.7571	1
366.0410	3
366.2637	4
366.3852	2
366.5756	0
366.7258	1
366.8516	0
367.1994	11
367.6486	1
367.8405	0
367.9843	2
368.2308	2
368.4896	1
369.1646	7
369.5945	1
369.7872	0
370.1287	3
370.3560	1
370.4976	0
370.6184	0
370.7421	1
370.9290	1
371.1663	7
371.4116	1
371.7977	1
371.9013	1
372.1436	4
372.3177	2
372.4760	2
372.6478	2
372.7342	1
373.1765	8
373.6685	0
373.7800	0
374.1512	6
374.3369	6
374.6483	0
374.7822	1
375.1930	13
375.4751	1
375.7132	1
375.8535	1
376.2126	7
376.5062	0
377.1805	12
377.8290	2
378.1227	7
378.2350	3
378.3523	1
378.6712	1
378.8029	1
379.2118	6
380.0720	2
380.3121	3
380.4602	1
380.6803	1
381.1383	5
381.3174	3
381.5043	1
381.7618	1
381.8409	0
381.9890	2
382.1998	3
382.5133	1
382.7270	1
383.0470	4
383.1722	4
383.3232	5
383.6030	1
383.7843	0
383.9778	1
384.3238	1
384.4677	1
385.1792	6
385.3526	3
385.5152	1
385.6181	2
385.8527	0
386.1808	3
386.3225	1
386.5579	1
386.6838	2
387.1573	10
387.4754	1
387.7366	0
388.1339	5
388.4074	1
388.5377	1
388.7695	0
389.1726	9
389.4101	1
389.6959	1
389.8492	1
389.9493	1
390.1876	3
390.3431	2
390.5281	1
390.6592	2
390.8053	1
391.1913	7
391.3849	2
391.8155	2
392.1792	3
392.4679	1
392.7243	1
393.1802	4
393.6490	1
393.8773	1
394.0891	3
394.2627	1
394.4312	1
394.5739	1
395.1545	6
395.7884	1
395.9764	1
396.1911	3
396.3057	1
396.5002	0
396.6133	1
396.9498	2
397.2114	6
397.4456	1
397.5817	0
397.7749	1
398.1373	3
398.3096	4
398.6404	2
398.7715	1
399.1801	4
399.4079	1
399.6061	1
399.7589	0
399.9643	1
400.2807	2
400.7197	2
401.1861	5
401.3959	3
401.6511	1
401.9236	1
402.2279	2
402.3922	1
402.7939	1
402.9042	0
403.1234	3
403.3087	3
404.0839	2
404.3305	1
404.4697	1
404.5937	2
405.0769	3
405.3178	2
405.5616	1
405.9020	1
406.0693	1
406.7394	0
406.9313	2
407.1513	3
407.4175	1
407.8915	1
408.1707	2
408.5033	1
408.7241	0
408.8590	1
409.1426	6
409.3612	1
409.6708	1
409.8916	0
410.0972	3
410.2711	2
410.4241	1
410.9091	1
411.0729	3
411.3428	3
411.7355	0
412.0643	4
412.2854	4
412.3805	2
412.5137	1
412.7621	0
413.2014	9
413.4305	3
413.6861	1
414.0189	5
414.2926	4
414.5022	0
414.7658	0
415.2182	10
415.4934	1
415.6540	1
415.7887	1
415.8990	1
416.2361	5
416.5034	1
416.8016	1
417.1612	5
417.4746	1
417.8983	1
418.2218	4
418.4906	2
418.7327	1
418.8747	1
419.1593	6
419.2955	3
419.3777	1
419.6097	1
420.0760	3
420.3412	1
420.4328	0
420.8040	1
421.1024	3
421.3417	1
421.4895	0
421.7627	1
421.9068	1
422.1108	1
422.2312	1
422.5751	1
423.1677	4
423.3414	3
423.4676	0
423.6435	0
423.8440	1
424.0660	2
424.2485	2
424.3883	0
424.6551	0
425.2457	6
425.4411	3
425.6394	1
425.8349	0
426.2308	3
426.4587	1
426.6455	1
426.7371	1
427.1150	5
427.3436	6
427.5391	1
427.6112	1
428.0303	4
428.3109	5
428.7249	1
429.0358	3
429.2389	3
429.4341	3
429.5904	1
429.7547	0
430.0587	1
430.2827	2
430.4916	1
430.7308	1
431.2192	6
431.5564	1
431.7041	2
431.9440	2
432.1846	2
433.0637	3
433.3065	4
434.0502	0
434.1749	1
434.2751	1
434.4768	1
434.7248	1
435.1874	3
435.4195	1
435.6422	1
436.0941	1
436.2556	1
436.5021	1
436.9101	1
437.1437	2
437.3924	1
437.9128	1
438.0527	1
438.3216	2
438.5819	1
439.1522	6
439.2733	4
439.3822	3
439.5862	1
440.1926	5
440.3570	2
440.9454	5
441.1733	6
441.3226	3
441.4805	1
441.6125	2
442.1368	9
442.3690	4
442.6423	1
443.1068	77
443.5071	1
443.6658	1
443.8411	1
443.9695	1
444.1137	3
444.3222	3
444.5718	0
444.7406	0
444.9065	2
445.1641	4
445.3437	1
445.5551	1
445.6770	1
445.8573	1
446.1798	3
446.4150	1
446.5572	0
447.1293	4
447.3285	2
447.4424	1
447.6640	2
448.0883	2
448.2679	2
448.4808	1
448.6959	2
448.7889	1
449.1216	4
449.2443	2
449.6492	1
450.0028	2
450.2301	2
450.3831	3
450.5975	1
450.7837	2
451.1345	4
451.3077	1
451.4066	2
451.6152	1
451.7415	1
452.0317	1
452.2266	2
452.3515	1
452.5016	1
452.9059	0
453.0986	3
453.4307	3
453.5838	2
453.8184	1
453.9462	1
454.0978	2
454.4010	1
454.7317	1
454.8436	0
454.9541	1
455.2256	4
455.5953	1
455.7758	1
455.9022	1
456.2495	3
456.5730	1
456.7203	2
456.9189	1
457.1110	4
457.3601	2
457.5038	1
457.7494	1
458.1943	3
458.6890	0
458.9071	2
459.1209	4
459.7450	1
460.0310	2
460.2549	2
460.4103	2
460.6068	1
460.7751	0
461.0987	3
461.3104	2
461.6853	3
461.7922	1
461.9909	2
462.2994	3
462.6281	2
463.0118	3
463.1787	4
463.3933	3
463.6418	0
463.7408	1
463.8788	1
464.1252	2
464.3897	1
464.6274	1
464.8821	1
465.1773	5
465.4401	3
465.6342	1
465.8573	1
466.0060	2
466.1741	2
466.3322	0
466.5177	1
466.8483	1
466.9530	0
467.1212	3
467.3883	4
468.2856	9
468.4047	5
468.6646	6
469.2126	9
469.5079	5
469.7419	6
469.9873	5
470.1079	3
470.2624	3
470.4985	2
470.7383	2
470.8466	2
471.1701	3
471.4972	3
471.7341	2
471.8958	1
472.1146	2
472.2620	2
472.3789	2
472.5212	2
473.0137	2
473.3257	3
473.5554	1
473.7627	2
473.9541	3
474.2639	3
474.3867	2
474.5225	2
474.7782	1
474.9249	2
475.1249	3
475.3777	3
475.5598	2
475.7852	1
475.9369	1
476.1059	1
476.3067	1
476.4382	3
476.6592	1
476.9200	2
477.2372	3
477.4337	1
477.5565	0
478.0023	2
478.1967	2
478.3354	2
478.4806	1
478.6887	1
478.8585	2
479.1063	4
479.3346	5
479.5984	2
479.7003	1
479.9893	3
480.2697	5
480.5312	1
480.7242	1
480.9085	2
481.2199	3
481.4165	2
481.6203	3
481.7865	1
482.2397	9
482.4709	3
482.5952	3
482.6942	0
482.8316	1
482.9956	3
483.2385	4
483.3527	2
483.5320	2
483.7415	1
483.9555	1
484.0632	0
484.2779	3
484.3936	3
484.5605	1
484.7145	3
484.8757	0
485.1179	2
485.3369	3
485.4742	2
485.6015	1
485.8169	1
486.1032	1
486.3193	4
486.5030	2
486.6476	1
486.8767	2
487.0387	2
487.2418	2
487.3994	2
487.4804	1
487.7089	1
487.8629	0
488.2136	1
488.3712	1
488.5303	1
488.6901	1
488.8050	1
488.9019	1
489.2685	6
489.4811	1
489.6952	2
489.8535	2
490.0553	2
490.3915	2
490.6157	0
490.7951	2
491.1407	2
491.3172	3
491.4488	3
491.6788	1
491.9949	3
492.2646	1
492.5279	2
492.7043	1
493.1484	3
493.3022	2
493.5766	1
493.7513	1
494.0178	4
494.2517	2
494.4207	2
494.5803	1
494.9211	1
495.3046	4
495.4909	1
495.6715	1
495.8109	0
496.0542	1
496.2731	3
496.6017	1
496.7989	1
497.0054	1
497.2134	2
497.4503	2
497.7790	0
497.8938	0
498.1589	2
498.4355	1
498.6075	1
499.2049	5
499.4757	1
499.6173	0
499.9113	1
500.2242	1
500.4611	3
500.8317	2
501.0976	2
501.4155	4
501.7651	0
501.9450	1
502.0455	1
502.1878	3
502.3121	1
502.5548	2
502.6661	1
502.8482	1
503.2369	4
503.5267	1
503.7210	4
504.2832	38
504.4798	18
504.6438	5
504.8426	3
505.2046	6
505.4720	4
505.6519	2
505.7451	1
505.9807	2
506.1224	1
506.2749	1
506.4650	1
506.6500	1
506.8379	1
507.1335	8
507.3135	3
507.6705	1
507.9799	3
508.1700	2
508.3817	2
508.5205	2
508.6954	2
508.7656	1
509.2723	11
509.4703	4
509.7783	2
509.9352	1
510.0812	1
510.3436	1
510.5503	1
510.9320	2
511.0116	1
511.1663	2
511.3680	4
511.5863	1
512.0996	1
512.3671	1
512.5609	2
512.7583	1
512.8920	1
513.2507	1
513.7590	2
513.8327	1
514.2919	3
514.4503	2
514.7554	1
514.8335	0
515.0663	2
515.2218	1
515.4706	1
516.1460	4
516.3391	4
516.5842	1
516.6913	0
517.2395	9
517.4326	5
517.6018	0
517.9454	2
518.0611	1
518.2527	1
518.3779	2
518.6136	2
518.8835	1
519.1569	7
519.3688	2
519.5582	1
519.8079	2
520.0792	3
520.3231	5
520.5504	2
520.8931	1
521.2748	5
521.5974	3
521.8261	2
522.1588	5
522.3746	5
522.4742	2
522.5997	2
522.8270	1
523.0248	2
523.2427	4
523.5112	3
523.8677	2
524.1448	5
524.3275	6
524.6587	3
524.7749	1
525.2715	4
525.6353	1
525.8207	1
525.9601	2
526.0618	1
526.3477	2
526.4523	1
526.6797	1
526.8450	2
527.1035	2
527.3972	1
527.6752	3
528.2772	1
528.5414	2
528.7378	3
528.9796	3
529.1738	1
529.4099	4
529.6481	2
529.7846	2
530.1535	3
530.3600	2
530.4561	2
530.6690	2
530.9246	2
531.2878	5
531.6351	1
531.8835	2
532.0813	2
532.3297	2
532.6431	1
532.9131	1
533.1644	5
533.4294	4
533.6042	1
533.8533	1
534.0216	2
534.2520	4
534.4628	3
534.5806	1
534.8037	1
535.1821	4
535.4565	6
535.5411	3
536.1550	4
536.4250	5
536.6049	3
536.7790	2
537.0925	1
537.2939	4
537.5396	4
537.7274	4
538.1051	4
538.4294	3
538.8520	2
539.2839	5
539.5642	2
539.7181	3
539.8763	3
540.0576	4
540.3026	3
540.5626	1
540.7606	1
540.9282	2
541.0798	1
541.3139	2
541.5560	3
541.8088	3
542.0118	4
542.2531	4
542.3962	0
542.9106	2
543.0941	1
543.3289	2
543.5240	2
543.7068	3
543.9120	1
544.1830	2
544.4142	3
544.6476	1
544.8239	3
544.9475	1
545.3355	6
545.6874	1
545.8710	3
546.2121	4
546.5012	2
546.7180	2
547.0178	4
547.4117	4
547.5411	1
547.7261	2
547.9313	2
548.0781	4
548.3122	4
548.5211	1
548.7921	2
549.1947	4
549.4325	3
550.2651	9
551.2597	13
551.5619	6
552.2269	8
552.5862	4
552.7409	2
553.2744	8
553.5014	4
553.6026	3
553.7978	3
554.0038	2
554.2757	3
554.4333	3
554.6401	3
554.9821	3
555.5134	4
555.6559	2
555.8381	4
556.0615	5
556.2292	3
556.6725	4
557.0803	4
557.3731	5
557.8308	4
558.1266	4
558.3739	6
558.4961	2
558.8034	4
559.2604	8
559.5135	6
559.6437	3
559.7934	2
560.1044	9
560.3647	12
560.5839	8
561.0504	5
561.3056	7
561.4583	5
561.7425	3
561.9544	3
562.3348	5
562.7254	2
562.8259	1
563.2903	21
563.6057	5
564.0598	6
564.3515	2
564.4952	1
564.6757	0
564.8237	5
565.1559	7
565.5523	3
565.7733	4
566.3242	10
566.8001	6
567.3258	13
568.3708	27
568.8511	6
569.5263	8
570.1742	8
570.6682	11
571.0705	9
571.5840	11
571.9156	6
572.2183	5
572.3931	7
572.8546	11
573.3170	8
573.9280	11
574.4691	16
578.3120	319
579.3828	62
580.2831	29
581.3447	139
581.8513	16
582.9858	14
583.7736	12
584.4884	11
584.9025	10
585.9354	17
586.6921	16
596.2972	999
597.2830	350
598.1078	161
598.8683	94
600.0457	45
601.0345	23
601.8406	17
602.4200	13
602.9603	11
603.1604	5
603.3663	8
603.5859	6
603.8120	7
603.9702	4
