Mass spectrum: beta-Cryptoxathin-5',8'-epoxide; FAB-EBEB; MS2; m/z: 568.43; [M]+*
Name: beta-Cryptoxathin-5',8'-epoxide
Formula: C40H56O2
Exact mass: 568.42803
SMILES: CC(C=CC=C(C)C(C=3)OC(C32)(CCCC(C)(C)2)C)=CC=CC=C(C=CC=C(C)C=CC(=C(C)1)C(C)(C)CC(C1)O)C
InChI: InChI=1S/C40H56O2/c1-29(18-13-19-31(3)22-23-35-33(5)26-34(41)28-39(35,8)9)16-11-12-17-30(2)20-14-21-32(4)36-27-37-38(6,7)24-15-25-40(37,10)42-36/h11-14,16-23,27,34,36,41H,15,24-26,28H2,1-10H3/b12-11+,18-13+,20-14+,23-22+,29-16+,30-17+,31-19+,32-21+/t34-,36?,40-/m1/s1
Instrument: JMS-HX/HX 110A, JEOL
Instrument type: FAB-EBEB
Ms type: MS2
Ion mode: POSITIVE
Collision energy: 3 kV
Ionization: FAB
Base peak: 488.4504
Precursor m/z: 568.43
Precursor type: [M]+*
m/z	relative intensity
12.9998	0
14.0182	0
15.0317	2
22.9970	0
25.0074	0
26.0288	3
27.0346	22
28.0379	2
29.0452	27
30.0297	0
31.0193	2
36.2908	0
37.0266	2
37.4504	0
38.0272	6
39.0395	61
40.0440	8
40.3554	0
40.5719	0
41.0551	140
42.0521	4
43.0439	190
44.0547	2
45.0546	4
47.8065	0
47.9878	0
48.1922	0
49.0357	1
49.3649	0
50.0306	14
51.0392	36
52.0446	17
53.0534	71
54.0609	4
54.4278	0
55.0681	206
56.0725	6
57.0831	61
57.4820	0
58.0721	1
58.5805	0
59.0669	11
60.0499	0
61.0361	2
62.0304	9
63.0475	30
63.6575	0
64.0559	7
65.0577	64
66.0707	14
67.0733	101
68.0689	5
69.0850	232
70.0818	5
71.0737	24
72.0507	0
72.2738	0
72.6387	0
73.0590	1
74.0388	9
75.0647	13
76.0434	8
77.0560	188
78.0680	40
79.0705	199
80.0747	37
81.0856	191
82.0816	7
83.0931	78
83.7638	0
84.0794	2
85.0860	58
85.5992	0
86.0597	4
86.5792	0
87.0562	6
88.0627	3
89.0705	21
90.0614	8
91.0841	421
92.0861	42
93.1020	320
94.1056	22
95.1017	341
96.0960	10
96.6361	0
97.1080	18
98.0608	3
98.4284	0
99.0768	4
99.5811	0
100.0766	1
101.1006	7
102.0754	21
103.0888	71
104.1001	35
105.1028	526
106.1112	60
107.1164	272
108.1010	63
109.1138	172
110.1031	7
110.6296	0
111.1153	16
112.1105	2
113.1033	6
114.0695	7
115.0720	202
116.0828	76
117.0897	216
118.0886	45
119.1025	494
120.1016	62
121.1036	284
122.0893	48
123.1007	134
124.0945	5
125.0964	11
126.0602	10
127.0714	72
128.0690	232
129.0746	281
130.0801	107
131.0855	308
132.0907	69
133.0999	266
134.0965	37
135.0942	261
136.0868	37
137.1012	39
138.0614	6
139.0614	30
140.0776	14
141.0742	197
142.0843	189
143.0884	348
144.0978	114
145.1040	387
146.1085	47
147.1111	173
148.1021	29
149.1150	330
150.1052	19
151.1116	31
152.0867	81
153.0921	112
154.1041	60
155.1099	228
156.1208	145
157.1283	353
158.1367	73
159.1404	212
160.1392	36
161.1416	99
162.1421	23
163.1518	76
164.1581	108
165.1524	543
166.1333	73
167.1376	149
168.1440	68
169.1494	225
170.1555	88
171.1553	203
172.1558	47
173.1627	138
174.1603	23
175.1686	93
176.1207	20
177.1630	183
178.1178	93
179.1216	146
180.1290	66
181.1256	181
182.1371	73
183.1392	210
184.1448	54
185.1468	122
186.1407	30
187.1453	66
188.1362	13
189.1234	68
190.1254	27
191.1424	185
192.1356	96
193.1250	135
194.1308	67
195.1328	177
196.1469	54
197.1457	159
198.1306	33
199.1507	83
200.1467	19
201.1505	51
202.1072	44
203.1380	84
204.1433	28
205.1679	419
206.1381	56
207.1377	106
208.1522	46
209.1484	121
210.1509	32
211.1611	83
212.1645	25
213.1640	47
214.1655	13
215.1514	61
216.1493	27
217.1652	74
218.1887	58
219.1604	70
220.1732	35
221.1762	78
222.1870	28
223.1879	78
224.1966	22
225.2043	50
226.1802	20
227.2003	35
228.1727	20
229.1747	45
230.1821	19
231.2045	76
232.1922	23
233.1906	53
234.2083	24
235.2074	58
236.2097	18
237.2008	48
238.2142	18
239.2045	37
240.2098	14
241.2052	48
242.1848	17
243.2102	50
244.2081	14
245.2005	34
246.2005	15
247.2082	42
248.2427	15
249.2188	38
250.2275	12
251.2277	32
252.2180	17
253.2188	31
254.1921	11
255.2297	55
256.2338	22
257.2324	36
258.2518	27
259.2230	28
260.2224	9
261.2237	29
262.2252	8
263.2343	25
264.2541	13
265.2314	26
266.2370	10
267.2444	34
268.2698	12
269.2615	51
270.2697	30
271.2826	55
272.2705	11
273.2497	19
274.2513	7
275.2399	21
276.2184	10
277.2015	20
278.2676	5
279.2735	19
280.2500	8
281.2726	39
282.2837	20
283.2831	88
284.2887	24
285.2887	22
286.2682	6
287.2715	13
288.2781	5
289.2701	16
290.2666	5
291.2753	16
292.2723	5
293.2695	22
294.2937	8
295.2780	38
296.2878	26
297.2815	23
298.2784	6
299.2444	9
300.2462	3
301.2393	9
302.2533	5
303.2557	11
304.2791	12
305.2626	12
306.2523	4
307.2615	23
308.2798	9
309.2864	65
310.2769	7
311.2824	8
312.2837	8
313.2659	7
314.3255	4
315.2650	10
316.2269	5
317.2544	10
318.2926	5
319.2714	17
320.2831	8
321.2787	32
322.2908	7
323.3136	8
324.3395	2
325.2658	4
325.6292	1
326.3352	1
327.2664	5
328.3362	2
329.2945	7
330.3021	3
331.2651	10
332.2834	5
333.3029	19
334.3091	9
335.3154	32
336.3116	477
337.3153	23
338.3281	4
339.2070	3
339.6793	1
340.3409	2
340.6165	1
341.2901	4
342.2857	2
343.2755	7
344.3266	3
345.3107	11
346.3412	7
347.3063	22
348.3133	15
349.3264	81
350.3486	9
351.3292	6
352.2875	5
353.2908	3
353.8402	0
354.3942	1
355.3112	3
355.7368	1
356.3731	8
357.3068	5
358.3332	4
359.3039	11
360.3255	8
361.3277	25
362.3376	29
363.3491	16
364.3309	3
365.3068	2
367.4116	2
368.2757	1
369.3643	4
370.3125	3
371.3116	6
372.3663	4
373.3452	24
374.3598	9
375.3566	39
376.3654	37
377.3520	5
378.2953	1
379.3299	2
380.3004	1
381.3578	2
382.3688	6
383.3382	3
384.2583	2
385.3116	4
386.3921	9
387.3619	11
388.3797	20
389.3482	14
390.3903	3
391.3770	2
392.3159	1
393.3808	2
394.3379	1
395.3671	4
396.4218	4
397.4392	2
398.3863	1
399.3529	4
400.3766	3
401.3900	15
402.3974	77
403.4170	49
404.4112	227
405.2939	4
406.3517	2
407.3573	5
408.4048	2
409.4196	6
410.3865	3
411.3117	1
413.3000	6
414.4185	4
415.3815	14
416.4194	7
417.3751	8
418.4267	3
418.7458	1
419.4260	2
420.3460	1
421.4619	4
422.4065	137
423.3885	4
424.3391	1
424.9246	1
425.4142	3
426.3995	1
427.3714	2
428.4392	5
429.4218	8
430.3820	3
431.4128	7
432.3911	89
433.3995	3
433.7337	1
434.4335	2
435.3612	6
436.0641	1
436.4253	1
436.8660	0
437.5300	1
438.3170	1
438.7458	0
439.3455	1
439.6049	1
440.3110	2
441.3982	3
442.1689	1
443.2967	2
443.9806	0
444.4456	3
445.3726	5
446.3701	2
447.3678	2
448.4225	17
449.4129	14
450.2847	1
451.2707	1
451.8230	1
453.2714	4
458.6976	10
460.3276	7
461.4239	13
462.4377	5
463.4367	2
464.4867	1
465.3973	1
466.4625	1
467.5518	2
472.4487	35
474.4212	30
475.4510	145
476.4450	61
476.9690	5
477.8745	3
479.5789	1
480.4439	2
481.3916	2
483.3923	3
483.8318	1
486.4477	12
488.4504	999
489.4422	14
490.3650	3
491.3388	1
492.1056	1
492.4913	1
493.4098	2
493.9876	1
494.4393	1
495.4285	2
495.9388	0
496.5062	1
497.3438	2
498.4833	2
498.8076	1
499.5282	1
500.5162	1
501.6033	1
502.2775	0
503.1891	1
504.0195	0
504.5016	1
504.8080	0
505.4914	1
506.4467	1
506.6344	0
507.4621	1
508.4445	2
509.4510	3
510.4704	2
510.7581	1
511.4489	3
512.0168	0
512.5534	2
513.4856	2
513.9142	1
514.4763	2
514.9244	0
515.4625	1
516.0771	1
516.7502	1
517.4907	1
519.4022	2
519.9180	1
520.4323	1
521.3738	2
521.7277	1
522.3890	2
522.7159	1
523.4867	4
524.4975	16
525.4588	5
526.4487	16
527.3636	2
527.9787	1
528.3192	1
528.7227	1
529.0962	0
529.7638	1
531.2010	1
532.5033	2
533.3000	2
535.2507	13
536.4332	3
537.4507	15
538.4833	11
539.4709	11
540.4060	5
550.4775	354
551.5018	52
552.5216	53
553.5062	535
568.2918	999
573.7010	12
