Mass spectrum: 4'-Hydroxyechinenone; FAB-EBEB; MS2; m/z: 566.41; [M]*+
Name: 4'-Hydroxyechinenone
Class: Natural Product; Carotenoid
Formula: C40H54O2
Exact mass: 566.41238
SMILES: C(C(C)=1)(=O)CCC(C(C=CC(C)=CC=CC(=CC=CC=C(C)C=CC=C(C)C=CC(=C2C)C(CCC(O)2)(C)C)C)1)(C)C
InChI: InChI=1S/C40H54O2/c1-29(17-13-19-31(3)21-23-35-33(5)37(41)25-27-39(35,7)8)15-11-12-16-30(2)18-14-20-32(4)22-24-36-34(6)38(42)26-28-40(36,9)10/h11-24,37,41H,25-28H2,1-10H3/b12-11+,17-13+,18-14+,23-21+,24-22+,29-15+,30-16+,31-19+,32-20+
Instrument: JMS-HX/HX 110A, JEOL
Instrument type: FAB-EBEB
Ms type: MS2
Ion mode: POSITIVE
Collision energy: 3 kV
Ionization: FAB
Base peak: 566.2897
Precursor m/z: 566.41
Precursor type: [M]+*
m/z	relative intensity
1.0088	1
3.8237	0
4.9013	0
9.1086	0
13.9786	0
14.9747	2
21.2379	0
22.9226	1
24.6325	0
24.9553	1
25.9592	5
26.9556	23
27.9736	4
28.9700	13
29.5221	0
29.9833	1
30.9305	2
35.9273	1
36.9344	2
37.5033	0
37.9470	4
38.0990	0
38.9488	26
39.2328	1
39.9659	2
40.9602	26
41.9542	1
42.9503	23
43.9012	0
44.9528	1
48.4120	0
48.9875	1
49.9285	4
50.9500	10
51.9508	1
52.7621	0
52.9613	5
53.9599	1
54.4854	0
54.9648	27
55.9684	3
56.7569	0
56.9856	4
58.1415	0
58.9802	3
59.8259	0
60.7722	0
60.9431	1
61.9116	1
62.1030	0
62.7295	1
62.9320	10
63.2295	1
63.7361	0
63.9578	1
64.9365	15
65.9510	4
66.4345	0
66.7412	1
66.9616	24
67.3354	0
67.9603	0
68.9757	61
69.9925	2
70.9702	9
71.3076	0
72.6035	0
72.8182	0
72.9233	1
73.5956	0
73.6952	1
73.8980	3
74.6573	1
74.9203	6
75.3635	0
75.8972	4
76.5677	1
76.9189	74
77.2227	1
77.4295	1
77.5810	1
77.7040	1
77.9315	12
78.5243	1
78.9361	53
79.7476	0
79.9529	5
80.0703	0
80.9545	86
81.1670	1
81.6438	0
81.7736	0
81.9447	3
82.1679	0
82.7435	1
82.9743	22
83.8649	0
83.9823	1
84.6440	0
84.7450	1
84.9467	4
85.3859	0
85.8371	3
86.0655	1
86.6769	1
86.8974	6
87.1731	0
87.3586	0
87.5675	0
87.8874	1
88.1692	0
88.3953	0
88.5646	1
88.9069	17
89.1845	2
89.3330	1
89.4587	1
89.6452	0
89.9137	5
90.1052	1
90.2565	1
90.4801	1
90.9145	231
91.1825	0
91.3595	1
91.7228	2
91.9557	21
92.3285	1
92.4442	0
92.9556	149
93.2637	0
93.6207	1
93.7700	2
93.9631	13
94.1812	1
94.3593	1
94.4547	1
94.9639	114
95.3183	0
95.4267	0
95.7162	1
95.9564	9
96.4379	0
96.7274	1
96.9748	33
97.1509	0
97.3686	0
97.7462	2
97.9189	3
98.5899	0
98.8788	3
99.0119	5
99.0991	1
99.9247	0
100.4513	0
100.5799	1
100.6760	1
100.7745	1
100.9359	8
101.3099	1
101.8835	15
102.1638	1
102.2675	1
102.3904	2
102.9139	57
103.2807	1
103.4174	2
103.5474	1
103.9412	32
104.1693	2
104.9482	339
105.1822	2
105.3561	0
105.5325	1
105.9588	30
106.2467	0
106.3680	0
106.9664	150
107.3020	1
107.5221	1
107.6347	0
107.7535	2
107.9608	13
108.1967	0
108.9661	78
109.3640	1
109.4308	0
109.6304	1
109.9488	8
110.1762	0
110.3186	0
110.5086	1
110.6280	1
110.9544	30
111.2240	1
111.3304	0
111.5126	1
111.9334	2
112.3545	1
112.6172	1
112.9478	13
113.1449	1
113.3552	2
113.5084	2
113.8708	8
114.0594	1
114.2442	2
114.4272	1
114.8921	190
115.2679	2
115.8941	56
116.2276	2
116.9027	146
117.1654	1
117.3574	2
117.6063	3
117.9425	30
118.1385	1
118.9389	356
119.2169	2
119.9285	32
120.1612	0
120.3540	2
120.9449	172
121.1525	2
121.2783	3
121.4600	1
121.9118	20
122.3748	1
122.6089	3
122.9488	86
123.1430	2
123.3194	0
123.5640	1
123.7309	0
123.9483	11
124.1580	1
124.5854	1
124.9242	11
125.4114	1
125.5973	2
125.8759	13
126.0823	1
126.3336	2
126.8849	72
127.8870	223
128.0959	5
128.3061	3
128.8871	235
129.4005	1
129.9199	92
130.1666	3
130.3285	2
130.9199	231
131.1598	2
131.4075	1
131.5555	2
131.9321	55
132.2431	1
132.9203	266
133.2839	1
133.4187	2
133.4877	1
133.6000	1
133.9258	25
134.1975	0
134.3434	1
134.9312	110
135.3599	2
135.9216	13
136.1876	0
136.5088	1
136.9344	90
137.1619	0
137.3136	0
137.4971	3
137.5976	1
137.9485	18
138.1314	1
138.3293	2
138.9370	83
139.1428	1
139.2922	1
139.5222	2
139.6399	2
139.9239	15
140.8780	204
141.2353	3
141.3864	2
141.9073	170
142.3465	2
142.9149	298
143.2515	2
143.3761	1
143.9327	104
144.1194	3
144.2226	2
144.3048	1
144.9319	280
145.3462	3
145.5038	2
145.9426	39
146.1774	1
146.2735	1
146.4332	2
146.9404	164
147.2672	1
147.3798	1
147.5003	1
147.6418	3
147.9452	26
148.2847	1
148.5069	3
148.9555	59
149.3288	1
149.5584	1
149.6726	1
149.9404	13
150.1939	1
150.4651	2
150.8954	27
151.3102	3
151.5212	6
151.9072	90
152.2841	2
152.8902	113
153.2773	1
153.4696	2
153.9156	53
154.1746	1
154.3578	1
154.9300	209
155.3179	2
155.9546	132
156.2239	1
156.9629	275
157.3369	3
157.6336	4
157.9694	60
158.1916	2
158.3549	3
158.9761	175
159.2832	2
159.4632	2
159.9803	32
160.2009	1
160.4626	2
160.9861	92
161.2287	2
161.4249	2
161.5204	1
161.6291	1
161.9906	21
162.1405	3
162.5273	3
162.9899	66
163.1898	4
163.3206	2
163.9628	17
164.1582	3
164.9252	190
165.3002	1
165.9434	64
166.9531	147
167.2142	2
167.9760	66
168.1979	2
168.3580	1
168.9748	189
169.4249	2
169.6217	2
169.9882	77
170.9865	149
171.2308	3
171.5164	2
171.9907	45
172.2952	2
172.3865	1
172.9850	109
173.2650	1
173.4477	2
173.6291	1
173.9987	23
174.3569	1
174.9830	68
175.4917	3
175.9626	21
176.1704	2
176.3408	1
176.4216	0
176.9790	37
177.2297	4
177.3347	1
177.9165	92
178.2081	2
178.9382	158
179.1711	3
179.5092	4
179.9626	81
180.2412	3
180.9555	157
181.2947	1
181.9497	67
182.2998	2
182.9620	151
183.3358	2
183.5338	2
183.7063	5
183.9897	36
184.1992	1
184.9642	87
185.3869	0
185.9683	19
186.2238	2
186.9649	62
187.3181	1
187.5395	2
187.6505	3
187.9689	13
188.2078	2
188.9404	64
189.2711	3
189.5318	3
189.9697	23
190.3673	3
190.9478	101
191.3867	1
191.9324	65
192.1901	1
192.2927	1
192.9385	118
193.3017	1
193.4989	1
193.9635	63
194.1695	2
194.9653	149
195.2275	2
195.4526	2
195.9643	46
196.2111	3
196.4302	1
196.5729	3
196.9815	121
197.3996	1
197.5931	3
197.9816	30
198.3051	1
198.5313	3
198.6437	1
198.9843	70
199.5112	2
199.9495	25
200.3337	3
200.4909	3
200.9674	53
201.4698	3
201.9276	45
202.1873	2
202.9465	81
203.2349	1
203.3822	1
203.6279	4
203.9477	18
204.3102	1
204.6009	5
204.9738	74
205.3861	1
205.9453	50
206.9480	99
207.3253	1
207.4852	1
207.6804	0
207.9858	43
208.4103	3
208.9819	112
209.2528	1
209.4726	1
209.9764	31
210.2270	2
210.9939	56
211.2296	2
211.4879	3
211.9805	14
212.3029	2
212.4359	2
212.9976	55
213.3665	1
213.4811	1
213.7218	2
214.0117	10
214.1714	4
214.3815	3
214.5384	3
214.9751	70
215.3096	1
215.4939	4
215.9909	27
216.2961	1
216.5521	2
216.9886	55
217.3329	4
217.4176	1
217.5802	3
217.9594	28
218.2929	1
218.9757	56
219.5022	2
220.0048	33
221.0111	77
221.2465	2
221.4429	2
221.6571	1
222.0288	32
222.4628	2
223.0147	60
223.2770	1
223.5366	2
223.6914	2
224.0270	17
224.4265	2
225.0350	41
225.2975	3
225.5319	2
225.9789	16
226.6393	3
227.0405	33
227.3972	2
227.5152	1
227.6922	1
228.0106	18
228.1814	5
228.3227	2
228.5636	3
229.0050	40
229.4828	1
230.0093	16
230.4263	1
230.6420	4
231.0140	40
231.4599	1
231.7312	4
232.0231	25
232.3658	1
232.5618	3
233.0135	44
233.3528	0
233.6078	1
234.0385	21
234.3814	1
234.5446	2
235.0330	41
235.4583	3
235.6855	1
236.0244	18
236.2248	2
237.0094	44
237.3506	2
237.5175	3
238.0270	9
238.4336	1
239.0092	40
239.2833	1
239.5101	2
239.9993	12
240.4296	1
241.0118	32
241.3336	1
241.5873	2
242.0006	13
242.2571	2
242.3981	1
242.5116	2
242.7331	2
243.0289	32
243.3584	3
243.5752	0
244.0066	13
244.2812	1
244.4671	3
245.0095	36
245.3165	1
245.4191	1
245.6718	2
246.0244	15
246.4224	2
246.5774	1
247.0252	49
247.3986	2
247.7162	2
248.0214	16
248.3247	2
248.5376	1
248.7072	3
249.0401	32
249.3634	1
249.9915	12
250.4522	1
250.7426	2
251.0433	27
251.3930	1
251.6165	3
252.0146	13
252.5273	2
252.6702	3
253.0367	32
253.4453	2
253.6427	0
254.0183	9
254.3980	1
254.5955	1
255.0243	30
255.3502	1
255.9946	11
256.4119	3
256.6184	1
257.0171	29
257.3750	0
257.5602	2
257.6929	2
257.8519	3
258.0537	9
258.3329	0
258.6074	1
258.7588	2
259.0395	28
259.3658	1
259.6127	2
260.0504	12
260.2351	2
260.5533	1
261.0430	31
261.3135	1
261.6069	1
262.0622	10
262.2269	2
262.5127	3
262.6864	3
263.0636	23
263.4098	2
263.5759	1
264.0252	5
265.0023	19
265.5945	1
265.6790	1
266.0254	11
266.4467	2
266.6192	4
266.7148	3
267.0592	28
267.3434	2
267.6005	1
267.7973	2
268.0482	10
268.3331	1
268.5321	1
268.7782	4
269.0687	21
269.3391	1
269.5396	2
269.6457	1
269.7885	1
270.0847	14
270.6146	2
270.7603	4
271.0551	15
271.3409	1
271.4609	1
272.0800	5
272.2614	2
272.5114	1
273.0654	21
273.3895	1
273.5003	0
273.8293	0
274.0662	8
274.2816	1
274.4604	1
274.6772	1
274.8026	2
275.0763	20
275.4553	0
275.7048	2
276.0527	6
276.2758	1
276.3812	1
276.6342	2
277.0245	15
277.5021	1
277.6762	1
278.0388	8
278.2080	4
278.3224	1
278.4466	2
279.0520	15
279.3378	1
279.6000	2
280.0634	8
280.4152	2
280.6698	2
281.0716	19
281.4783	1
281.7302	1
282.0654	9
282.3473	0
282.6951	3
283.0894	22
283.3692	1
283.5456	2
283.6324	1
283.7198	0
284.0205	6
284.1844	2
284.5588	2
284.6776	1
284.7873	2
285.0492	15
285.7890	0
286.0433	5
286.3942	1
286.6665	1
287.0640	17
287.3094	3
287.4386	4
287.6402	2
288.0238	6
288.2925	0
288.4119	0
288.6292	2
288.7348	3
289.0626	13
289.4362	1
289.5647	1
289.7904	2
290.0217	4
290.1710	0
290.3085	1
290.4190	0
290.5656	2
290.7115	2
291.0366	10
291.3562	1
291.5341	0
291.6487	1
291.9969	3
292.1393	2
292.5848	0
293.0699	10
293.4126	2
293.5878	0
293.7247	1
294.0654	8
294.1655	3
295.0548	10
295.2989	2
295.3824	1
295.6056	1
295.7690	2
296.0924	8
296.4082	1
296.6204	2
296.9800	6
297.1422	5
297.5770	2
297.8797	3
298.0320	3
298.2791	1
298.6570	1
299.0307	10
299.3105	1
299.5311	1
299.7045	1
300.0100	3
300.1723	1
300.3170	2
300.4354	0
300.5649	1
301.0377	12
302.0391	6
302.1644	1
302.4193	0
302.7446	2
303.0504	9
303.3492	1
303.6195	1
303.7867	1
304.0348	2
304.1727	2
304.4222	1
304.5936	1
305.0723	11
305.6027	0
305.8055	1
305.9665	4
306.0927	3
306.1840	2
306.4105	1
306.6789	1
306.8455	1
307.0400	11
307.1495	3
307.3349	1
307.4744	0
307.7086	0
308.0113	4
308.2267	1
308.5440	1
308.6877	3
309.0525	10
309.2184	1
309.4117	1
309.8651	0
310.0450	3
310.2145	1
310.4050	1
310.5599	1
310.6757	2
311.0538	7
311.3253	1
311.5193	2
311.9435	2
312.1340	2
312.2464	0
312.5214	1
313.0686	7
313.5439	1
313.8099	1
314.1059	2
314.3447	1
314.4990	1
314.6666	1
315.0394	12
315.4556	0
315.5799	1
316.0450	3
316.4054	1
316.4836	1
316.6841	1
317.0389	7
317.6439	1
317.8256	1
318.1148	3
318.2357	1
318.4292	1
319.0916	8
320.0645	3
320.3273	1
321.0179	5
321.2192	2
321.3989	1
321.5038	1
321.6345	1
322.0876	3
322.9574	3
323.1071	2
323.4190	1
323.6812	0
323.9372	2
324.1548	2
324.6647	2
325.0921	4
325.3118	0
325.6819	1
326.0268	2
326.1856	2
326.6062	1
327.0352	7
327.2241	3
327.4236	0
327.6867	1
328.0710	2
328.6484	1
328.8802	4
329.1308	4
329.6223	1
329.7574	1
329.9226	3
330.1068	2
330.5192	1
330.6165	0
330.7419	1
331.0115	6
331.1606	6
331.4384	1
331.5370	0
331.8260	0
332.0206	2
332.2718	0
332.4825	1
333.0746	10
333.1887	4
333.6590	0
334.1589	6
334.3157	2
334.5957	1
334.7525	1
335.1103	9
335.5388	1
335.7013	0
336.0703	4
336.2503	2
336.4051	1
336.5003	1
336.6544	0
336.9562	3
337.1096	4
337.2595	2
337.7744	1
338.1365	3
338.2626	1
338.4426	1
338.6668	1
338.7642	0
339.0612	5
339.7921	0
339.8936	1
340.0485	3
340.3141	0
340.4346	1
340.6119	1
340.7170	1
340.8166	2
341.0976	5
341.4761	1
341.9331	0
342.0992	2
342.2695	2
342.6039	1
342.7960	1
343.1003	5
343.2727	1
343.3744	0
343.8112	0
344.1436	2
344.5201	1
344.6835	0
344.8146	2
345.1372	7
345.7326	1
345.8287	1
346.1233	7
346.2734	2
346.6803	2
347.1166	6
347.3888	1
347.5859	1
347.7866	2
348.1500	9
348.4012	1
348.6215	1
349.1443	9
349.3183	3
349.4860	1
349.8882	1
350.0797	1
350.2910	1
350.8111	2
351.1431	3
351.6991	0
351.9083	1
352.1561	1
352.4460	1
352.5556	1
352.8125	2
353.0772	3
354.0470	1
354.1938	1
354.3349	1
354.5652	0
354.6727	1
354.7661	0
355.0576	1
355.1960	1
355.3441	1
355.7080	1
355.9243	1
356.1772	2
356.5945	1
356.8102	1
357.0919	4
357.2872	2
357.5261	0
357.7242	1
358.0144	0
358.2418	2
358.4259	1
358.5903	1
358.8388	3
359.1488	5
359.8228	1
360.1497	4
360.2834	2
360.6306	1
360.7258	1
360.8525	2
361.1535	5
361.4714	0
362.1834	6
362.3354	2
362.7121	1
362.8689	0
363.1994	15
363.8738	1
364.1358	4
364.3158	0
364.6807	1
365.0568	2
365.2648	1
365.8379	1
366.0382	1
366.3317	0
366.5868	1
366.9308	1
367.1353	1
367.5130	0
368.0988	2
368.3391	1
368.5802	1
369.1661	4
369.9132	1
370.1712	4
370.6471	1
370.8805	1
371.1308	3
371.7982	1
372.0071	2
372.1944	2
372.3522	1
372.5374	1
372.6349	1
373.1436	7
373.3064	1
373.4650	0
373.8236	1
374.0545	3
374.2495	3
374.9099	2
375.0419	4
375.2117	3
375.3282	2
375.5872	1
375.7248	1
376.1207	3
376.4590	1
377.1245	2
377.6398	1
378.0035	0
378.2198	1
378.6740	0
379.0118	2
379.1852	1
379.3046	0
380.0181	1
380.7393	1
381.0624	3
381.2437	2
381.8302	2
381.9482	1
382.1877	1
382.4223	1
382.6324	1
383.0883	3
383.2604	1
383.7769	0
384.0846	3
384.1626	1
384.5104	1
384.6284	1
384.8673	2
385.1899	3
385.6347	1
386.0887	3
386.2124	2
386.8112	1
386.9546	1
387.1613	2
387.4994	1
387.9127	2
388.2649	2
388.4983	1
388.7043	1
389.0178	1
389.2393	2
389.5542	1
389.8917	1
390.1006	1
390.3051	1
390.5970	1
390.7946	2
391.1286	3
391.2784	1
391.9676	1
392.0963	1
392.2967	1
392.4345	1
392.5365	1
392.9065	0
393.0394	1
394.0031	1
394.1923	1
394.2831	0
394.4604	0
395.0569	5
395.2272	2
395.5023	1
396.0666	2
396.1918	0
396.5035	1
396.7406	1
397.0890	3
397.2008	2
397.3402	1
397.8117	1
397.9461	1
398.2346	2
398.6928	1
398.8737	2
399.1397	2
399.3361	0
399.7176	1
400.1118	5
400.3814	1
400.8087	1
401.1614	5
402.1753	4
402.5787	1
402.6625	1
402.8568	1
403.1399	2
403.2385	1
403.3477	1
403.7695	1
404.0874	2
404.2744	3
404.9266	1
405.0672	2
405.3005	1
405.4460	1
405.9775	0
406.1392	2
407.5059	1
408.2251	2
408.4741	1
408.8256	1
408.9494	1
409.0471	0
409.2011	1
409.5415	1
410.1329	1
410.2251	1
410.3636	0
410.5422	1
411.0240	3
411.2139	1
411.3750	1
411.9546	2
412.1072	1
412.2036	1
412.3372	1
412.7523	1
413.1533	5
413.5662	1
413.7217	2
414.2156	3
414.6223	1
414.7560	1
415.1894	5
415.7769	0
415.9085	0
416.1266	3
416.2920	1
416.4518	0
417.0781	2
417.7587	1
418.1493	1
418.2739	0
418.5618	0
418.7103	2
419.0791	2
419.2389	1
419.7253	1
420.1632	3
420.5722	0
420.6769	0
420.9005	1
421.0193	2
421.2126	3
421.4502	2
422.0850	0
422.1919	1
422.6636	1
422.7831	2
422.9238	1
423.0855	2
423.2120	1
423.5903	0
423.8188	1
423.9496	1
424.1845	1
424.3315	1
424.6423	1
425.3062	2
425.3990	1
425.6536	0
425.8294	1
426.1388	3
426.3217	1
426.9238	2
427.1847	5
427.3669	1
427.4724	2
427.6497	1
427.9444	1
428.2145	7
428.3587	3
428.5747	2
429.0524	3
429.1980	4
429.5202	1
429.6905	0
430.1112	1
430.2554	0
430.5650	1
430.7184	2
430.9773	1
431.1779	1
431.5121	2
431.9730	0
432.3115	1
432.6486	2
432.8168	1
432.9336	0
433.1025	1
433.3685	1
433.9661	2
434.1871	3
434.3152	0
434.6678	1
434.8853	0
435.0831	1
435.2274	1
435.6265	1
435.8180	1
435.8912	0
436.3030	2
436.3868	1
436.6395	1
436.7986	0
436.9985	1
437.1900	1
437.3337	1
437.4505	1
437.6146	1
437.7899	2
437.9187	1
438.2314	4
438.3841	2
438.4947	2
438.8151	8
438.9833	5
439.1882	3
439.3784	4
439.6748	4
439.9199	1
440.0910	2
440.3269	1
440.6769	1
440.7755	1
441.0713	1
441.2340	1
441.7988	1
442.0165	1
442.1735	1
442.4715	1
442.6962	1
443.0497	2
443.2611	3
443.5344	1
443.7006	1
443.8190	1
444.0493	4
444.1811	1
444.3529	0
444.4995	0
444.6326	1
445.0560	0
445.1687	2
445.2674	0
445.5640	0
446.0945	1
446.2918	1
446.3841	1
446.6638	1
446.9978	1
447.1803	2
447.4939	1
447.9561	0
448.6615	0
448.7701	0
449.0498	0
449.2845	1
449.5093	1
450.0901	1
450.4538	1
450.6293	2
450.7096	0
451.0959	2
451.3179	2
451.7373	1
451.8818	1
452.0165	1
452.1835	2
452.8645	0
452.9822	1
453.2220	2
453.3918	1
453.5484	0
453.7070	1
453.9848	0
454.2252	2
454.3881	1
455.1481	1
455.3847	1
455.6639	1
456.0796	1
456.2709	2
456.5480	1
456.6950	3
456.8695	2
457.1107	1
457.6031	1
457.9485	1
458.2095	0
458.3397	1
458.8054	2
458.9601	1
459.1416	1
459.3210	3
459.6404	1
459.9331	1
460.0858	1
460.3440	4
460.6642	1
460.8949	1
461.2615	1
461.6957	2
461.9286	1
462.3466	2
462.5352	1
462.6379	0
462.9722	1
463.1502	1
463.3614	1
463.6077	1
463.9518	0
464.1411	1
464.5339	1
464.7126	0
465.0230	0
465.2088	0
465.6079	1
465.7452	1
465.9535	2
466.1943	4
466.3857	3
466.4582	1
467.0305	3
467.2516	3
467.4121	2
467.5972	1
467.8831	2
468.0710	4
468.2794	7
469.1848	1
469.8417	0
470.0748	2
470.2628	2
470.5761	0
470.7261	0
471.2232	1
471.3774	1
471.5373	1
471.7661	1
472.1422	2
472.2563	1
472.3830	3
472.6767	1
472.8823	1
473.0591	1
473.2155	2
473.3471	2
473.7084	5
474.2374	89
474.5734	3
474.7184	3
474.9368	3
475.1439	1
475.3418	2
475.5130	2
475.7997	1
476.0786	1
476.2308	1
476.6076	1
476.7936	0
476.9972	1
477.1149	1
477.2924	1
477.5474	0
477.9701	1
478.1709	0
478.3160	1
478.6218	1
479.1700	2
479.4032	1
479.5011	1
479.7343	0
479.8154	0
479.9316	0
480.0768	1
480.2691	1
480.6151	1
481.0724	1
481.2267	2
481.6453	1
481.7968	0
482.1414	1
482.2909	3
483.1813	1
483.3341	0
484.0575	1
484.3244	1
484.7484	0
485.2281	0
485.5254	1
486.0403	1
486.2650	6
486.8103	1
487.2203	5
487.6543	0
487.8480	2
488.2066	1
488.6371	0
488.7654	0
489.2107	1
489.8215	1
490.5487	1
491.1470	0
491.3217	2
491.6847	1
491.8418	0
492.0807	3
492.1632	1
492.3521	1
493.0807	1
493.3401	1
493.4367	1
494.2056	1
494.3938	2
494.7230	1
495.1254	1
495.2382	1
495.3475	0
496.0072	1
496.1694	0
496.3668	1
496.7679	1
497.0414	1
497.1880	1
497.3805	0
497.5299	1
497.6695	1
498.0953	1
498.2666	1
498.4352	1
499.3009	1
499.5928	0
500.4396	0
500.6857	1
501.0094	0
501.1412	1
501.7744	1
502.0333	0
502.8379	0
503.0875	1
503.2773	2
504.3041	2
504.7717	1
504.9593	1
505.1949	1
505.4615	2
506.0744	0
506.3376	1
506.9547	0
507.1403	3
507.2426	1
507.4803	1
507.7117	0
508.2055	2
508.3741	1
508.5004	2
509.2177	2
509.4619	2
509.9658	1
510.2910	3
510.8583	1
510.9610	1
511.3953	0
511.5959	1
511.7649	1
512.4392	1
513.5219	1
513.6887	1
514.9193	1
515.0122	1
515.1425	1
515.8845	1
516.1894	1
516.7787	2
516.9794	1
517.0822	2
517.2294	1
517.4188	1
517.5483	1
517.6652	1
517.7568	1
518.1497	1
518.5151	1
518.6722	1
518.9841	2
519.1777	3
519.3066	1
519.6362	0
519.8763	2
520.2228	1
520.3989	1
520.6038	1
520.7736	1
521.0504	1
521.3926	1
521.5342	2
522.2096	5
522.3857	2
522.6484	1
522.8337	0
523.1218	1
523.2661	2
523.4035	0
523.4993	0
523.6528	0
523.8683	1
524.1874	2
524.3410	1
524.7123	1
524.8531	1
524.9637	0
525.1469	1
525.4209	3
525.7372	1
525.9183	1
526.0204	1
526.1402	1
526.4142	2
526.5657	1
526.9144	2
527.0398	1
527.1815	1
527.3836	2
527.4837	2
527.6232	2
527.7563	1
528.1016	2
528.3094	2
528.6096	3
528.8280	0
529.0549	1
529.1979	1
529.4156	2
529.8201	1
529.9920	1
530.1449	3
530.4606	2
530.6473	1
530.7770	1
530.9003	0
531.0257	1
531.1864	2
531.4069	1
531.6832	2
531.7868	1
532.1955	3
532.5380	2
532.8002	2
533.1843	10
533.6198	1
533.8707	1
534.1477	4
534.2830	2
534.4141	2
534.6150	1
535.0886	5
535.2141	4
535.2972	2
535.3853	1
535.6497	1
536.2333	6
536.4504	4
536.7549	3
537.2780	29
537.9532	6
538.3987	9
538.7717	6
539.0600	5
539.3829	7
539.5796	5
539.8250	6
540.3135	2
540.5399	8
540.8917	8
541.5572	12
542.4266	9
542.7446	5
542.9702	7
543.2170	10
543.3411	7
544.1006	12
544.4835	12
545.1365	15
547.9667	227
548.9344	16
549.3223	17
549.8196	9
550.2456	19
551.1923	63
551.6360	8
551.9111	9
552.2356	9
552.4651	8
552.7578	7
553.0406	7
553.2349	7
553.6057	9
554.0659	8
554.3776	10
554.6211	12
554.9005	8
555.3058	10
555.5268	9
555.6655	4
555.9955	9
556.1672	9
556.4191	9
556.7169	8
556.9379	7
557.4544	11
557.9661	11
558.7572	19
566.2897	999
567.3051	260
568.1508	126
568.9943	70
569.7028	37
570.3239	20
571.1183	14
571.4563	8
571.7817	11
572.2895	8
572.8057	8
572.9494	4
573.1713	3
573.4720	4
573.8009	5
