Mass spectrum: Methyl glucosyl-3,4-dehydro-apo-8'-lycopenate; FAB-EBEB; MS2; m/z: 624.37; [M]*+
Name: Methyl glucosyl-3,4-dehydro-apo-8'-lycopenate
Class: Natural Product; Carotenoid
Formula: C37H52O8
Exact mass: 624.36622
SMILES: C(C(O)1)(C(OC(C)(C)CC=CC(=CC=CC(C)=CC=CC(C)=CC=CC=C(C)C=CC=C(C(=O)OC)C)C)OC(C1O)CO)O
InChI: InChI=1S/C37H52O8/c1-26(15-9-10-16-27(2)21-13-23-30(5)35(42)43-8)17-11-18-28(3)19-12-20-29(4)22-14-24-37(6,7)45-36-34(41)33(40)32(39)31(25-38)44-36/h9-23,31-34,36,38-41H,24-25H2,1-8H3/b10-9+,17-11+,19-12+,21-13+,22-14+,26-15+,27-16+,28-18+,29-20+,30-23+/t31-,32-,33+,34-,36+/m1/s1
Instrument: JMS-HX/HX 110A, JEOL
Instrument type: FAB-EBEB
Ms type: MS2
Ion mode: POSITIVE
Collision energy: 3 kV
Ionization: FAB
Base peak: 624.3145
Precursor m/z: 624.37
Precursor type: [M]+*
m/z	relative intensity
0.6812	0
2.6080	0
2.8579	0
5.0878	0
5.2680	0
5.3396	0
7.0745	0
11.9636	0
13.9698	2
14.9844	9
17.9791	0
18.9836	4
22.9477	25
25.9846	2
26.9829	14
27.9740	2
28.6084	0
28.9807	25
29.9415	2
30.9707	22
31.4808	0
33.0149	1
33.7902	0
34.9580	1
36.9715	3
37.6469	0
37.7806	0
37.9709	1
38.9734	43
39.1662	0
39.3597	0
39.9769	5
40.9948	64
41.9792	3
42.9844	90
43.1756	1
43.3945	1
43.5041	1
43.9820	3
44.5332	0
44.9834	87
46.9677	6
48.9581	1
49.9766	5
50.9776	23
51.9744	5
52.5635	1
52.9743	59
53.9684	4
54.9899	80
55.9840	8
56.3310	0
56.9751	126
57.9872	5
58.9838	222
59.9533	12
60.5747	0
60.9756	150
61.9519	4
62.9735	17
63.7508	1
63.9778	2
64.2820	0
64.9756	29
65.9667	7
66.9785	37
67.9660	5
68.6473	1
68.9713	177
69.9734	3
70.9717	44
71.1801	0
71.9748	2
72.9603	259
73.8486	2
73.9870	3
74.9817	14
75.3778	0
75.7660	0
75.9488	3
76.0262	1
76.3252	1
76.7117	0
76.9726	80
77.1543	0
77.5035	0
77.9765	17
78.1875	1
78.4635	1
78.9884	79
79.9890	12
80.4855	1
80.9974	104
81.9858	5
82.5381	1
82.9727	30
83.5175	0
83.8661	0
83.9765	3
84.0436	2
84.4947	1
84.6535	0
84.9604	415
85.2321	1
85.9292	3
86.0163	2
86.1169	1
86.5073	1
86.9860	353
87.2309	1
87.6372	1
87.9681	1
88.5876	0
88.7006	1
88.9792	21
89.3354	1
89.5669	1
89.7625	0
89.9769	4
90.2924	0
90.4661	1
90.9844	280
91.2591	2
91.3853	1
91.5594	0
92.0044	27
93.0163	135
93.5103	1
93.9999	9
94.4914	1
94.6367	0
95.0285	39
95.2744	0
95.4131	1
95.9805	4
96.1017	1
96.7132	1
96.9799	109
97.3425	0
97.6216	0
97.9947	9
98.3335	0
98.4743	1
98.6650	1
98.9998	61
99.3311	1
99.4398	0
99.9924	3
100.6210	0
100.9642	54
101.2607	1
101.3496	1
101.5420	0
101.7880	1
102.0194	7
102.4533	0
102.6487	2
103.0029	88
103.2298	1
103.3114	1
103.4236	1
103.5346	0
103.7126	0
104.0145	15
104.2022	1
104.3395	1
104.6437	1
105.0152	188
105.3653	1
105.5612	0
105.6886	1
106.0244	13
106.5046	1
106.7677	1
107.0264	47
108.0175	3
108.3598	0
108.5317	1
108.7365	1
109.0082	51
109.4372	0
110.0294	6
111.0054	10
111.3126	1
111.9901	19
112.3476	0
112.4505	0
112.5617	1
112.9966	11
113.2524	0
113.4454	1
113.5284	0
113.6716	1
113.9996	6
114.1877	0
114.4122	1
114.9900	146
115.3188	1
115.4299	2
115.5677	0
115.6900	1
115.9905	30
116.2150	1
116.5327	1
116.6642	1
117.0036	101
117.4925	1
117.7450	1
118.0125	22
118.4526	1
118.5832	1
119.0119	180
119.3055	1
119.4677	1
119.5822	0
120.0128	18
120.4857	1
120.6921	1
121.0212	39
121.2573	1
121.9680	4
122.0790	3
122.1716	1
122.6322	0
122.7945	1
123.0135	8
123.3924	1
124.0019	6
124.9852	37
125.2312	2
125.4978	1
125.9949	8
126.3879	2
126.5769	3
126.9630	274
127.2918	3
127.9755	90
128.2206	2
128.4226	1
128.5293	1
128.9847	129
129.5917	0
129.9886	49
130.6137	1
130.9952	126
131.2985	1
132.0011	36
132.2428	1
132.3714	2
133.0063	67
133.3044	1
133.7099	1
133.9855	5
134.1216	2
134.6825	1
134.7526	0
135.0139	24
135.2665	0
135.4671	1
135.6770	0
135.9807	6
136.9594	4
137.2823	2
137.9694	2
138.0981	1
138.5155	1
138.9629	20
139.1833	1
139.4643	0
139.9465	5
140.1894	2
140.3334	1
140.4761	1
140.6100	2
140.9703	76
141.4903	1
141.5914	2
141.9837	72
142.4268	1
142.6346	1
142.9943	173
143.2644	1
143.4892	2
143.5676	1
144.0033	58
144.4393	2
144.9756	445
145.2922	2
145.4485	3
145.6076	2
145.9786	22
146.2692	1
146.5896	1
147.0037	88
147.3841	2
147.6744	1
147.9526	6
148.0510	3
148.4664	0
148.5934	1
148.9975	9
149.6199	0
149.9660	4
150.3128	0
150.9749	12
151.1253	4
151.4059	0
151.5257	1
151.9719	40
152.3937	2
152.4769	1
152.9733	47
153.2379	1
153.4637	1
153.5750	0
154.0015	22
154.1695	1
155.0035	90
155.2926	1
155.5175	3
156.0085	61
156.2773	1
156.5058	1
156.6571	1
157.0274	152
157.3759	1
157.5149	0
158.0274	31
158.2343	3
158.6217	2
159.0461	94
159.3281	1
159.4337	3
159.5428	1
159.6958	1
160.0260	10
160.4297	1
160.8508	3
161.0686	9
161.3586	0
161.6541	2
162.0227	4
162.3659	1
163.0079	67
163.3300	0
163.6695	2
164.0242	5
164.2226	2
164.3487	1
164.4803	2
164.5610	1
165.0056	64
165.2862	2
165.4497	1
166.0064	23
166.3121	1
166.4722	1
166.6310	1
166.7187	1
167.0350	63
167.3402	1
167.6283	2
168.0485	30
168.3962	3
168.5158	0
168.6438	0
169.0566	82
169.3036	1
169.4136	1
169.7147	2
170.0684	35
170.3169	1
170.5101	1
170.6064	0
171.0830	73
171.3810	0
171.4988	1
171.6984	0
172.0242	10
172.2446	1
172.6572	1
172.8687	3
173.0872	27
173.3575	1
173.5948	0
173.7649	2
174.0894	4
174.4970	1
174.7649	1
175.0792	9
175.7074	0
176.0157	7
176.2576	1
177.0528	14
177.2768	2
177.4301	1
177.5737	0
177.7464	2
178.0149	30
178.2384	1
178.3494	1
178.5535	1
178.6847	2
179.0368	58
179.3716	1
179.6091	2
179.7863	1
180.0483	27
180.2679	2
180.4584	1
180.6071	1
181.0466	72
181.3756	2
182.0379	25
182.3518	0
182.5328	2
183.0522	83
183.3218	1
183.5266	1
183.6785	1
183.8102	1
184.0631	18
184.4220	1
184.7643	1
185.0593	50
185.5433	2
185.6940	1
186.0408	7
186.4030	1
187.0585	21
187.3162	1
187.9652	6
188.1608	1
188.4306	0
188.6857	1
188.8786	8
189.0681	18
189.4779	1
189.7633	4
190.0109	4
190.2943	2
190.5077	0
191.0068	29
191.4171	0
191.5193	1
191.6531	1
191.7770	2
192.0292	17
192.2933	1
192.5575	1
192.6969	1
193.0263	39
193.3320	0
193.5844	1
194.0325	23
194.4856	2
195.0406	82
195.3102	1
195.4358	1
195.5853	1
196.0354	24
196.4870	1
197.0476	67
197.5276	1
198.0449	13
198.2917	2
198.5526	2
199.0408	28
199.6282	3
200.0217	7
200.1117	2
200.2800	0
200.4215	2
200.6151	0
201.0362	14
201.3708	2
201.5617	5
201.7850	1
201.9971	16
202.2226	2
202.4897	2
202.9825	15
203.9613	7
204.2244	1
204.3239	1
204.5271	1
205.0077	22
205.4842	2
205.6727	3
206.0195	13
206.1748	2
206.5082	0
207.0289	49
207.3702	1
207.5858	1
207.6756	1
208.0403	23
208.2680	1
208.4660	2
208.5494	1
209.0374	66
209.5199	1
210.0308	17
210.2827	2
211.0445	57
211.3476	2
211.6259	2
211.7208	0
212.0247	5
212.1523	2
212.4357	0
212.6397	0
213.0430	16
213.3046	1
213.7321	1
214.0491	5
214.3625	0
214.7066	2
215.0095	13
215.4203	1
215.5665	0
215.9959	7
216.3409	3
216.5582	1
216.6789	2
217.0375	20
217.5553	0
217.7734	1
218.0392	9
218.3440	1
218.6326	1
219.0441	22
220.0481	13
220.2935	1
220.4401	1
220.5845	1
221.0441	26
221.3643	1
221.5785	2
221.6839	1
222.0270	14
222.3381	3
222.5923	22
223.0481	24
223.4405	2
224.0632	8
224.1993	2
224.3190	1
224.4787	1
224.5963	1
225.0696	21
225.3326	1
225.5686	0
226.0029	6
226.1898	1
226.2968	1
226.5058	1
227.0458	7
227.2599	1
227.4911	1
227.6781	1
228.0549	11
228.1977	4
229.0438	14
229.7823	2
230.0681	6
230.6561	1
231.0649	20
231.5010	1
232.0744	13
233.0570	22
233.3096	1
233.5471	1
234.0738	7
234.3014	2
234.8174	3
235.0902	21
235.4010	1
236.0761	8
236.5301	1
237.0907	17
237.3940	1
237.5793	1
238.1201	8
239.0812	10
240.0685	4
240.1859	2
240.5275	1
241.0303	8
241.1678	5
241.3813	2
241.6393	0
241.9689	7
242.1122	4
242.3981	1
242.7658	1
243.0834	20
244.0420	6
244.3562	1
244.7801	1
245.0886	28
245.4674	1
245.5930	1
246.0853	12
246.8590	2
247.0845	20
247.3042	2
247.5261	1
247.6927	1
248.0733	9
248.6544	0
249.0804	16
249.6244	1
249.8005	0
250.1030	5
250.4876	1
250.8471	2
251.1332	12
251.3935	1
251.6042	1
252.0659	4
252.2184	2
252.6810	0
253.1256	9
253.5509	1
254.0633	5
254.4614	1
255.0791	9
255.3376	1
255.7005	1
256.0628	4
256.3804	1
256.5267	0
256.6643	0
257.0994	25
257.6615	1
257.8481	0
258.0809	6
258.2799	1
258.3880	1
259.0851	18
260.0752	9
260.2245	2
260.6508	1
261.1212	12
261.3831	1
261.6400	1
261.9893	2
262.1322	3
262.2022	2
262.4280	1
262.6853	1
263.1287	9
263.2635	5
263.3630	2
263.5331	1
263.8821	1
264.2038	4
264.9128	1
265.1566	6
265.3052	1
265.5924	1
266.0340	8
266.1934	3
266.3594	1
267.0285	5
267.3930	1
267.4962	1
268.0587	3
268.2760	1
269.0639	7
269.1918	4
269.5855	1
269.9937	2
270.1562	3
270.7639	1
271.1123	7
271.8828	1
272.1438	4
273.1033	7
273.4106	1
274.0739	4
275.0824	9
275.5123	0
276.0529	4
276.1723	2
276.5625	2
276.7073	1
277.0837	6
277.3263	2
277.7876	0
278.0475	6
278.2213	1
278.3206	1
278.8892	1
279.1268	3
279.2782	0
279.5187	2
279.8477	2
279.9527	2
280.0868	1
280.2136	1
280.5129	1
280.7665	2
281.0999	6
281.2810	1
281.6554	1
282.1009	5
282.2769	3
282.3660	1
283.0999	7
283.2876	1
283.4565	1
284.1682	1
285.1170	5
285.4114	1
285.9995	6
286.1742	5
286.6841	1
287.0794	6
287.2926	2
287.6394	2
288.0769	5
288.6632	1
288.8120	2
289.0696	8
289.3076	4
289.5450	1
289.7584	1
290.1090	2
290.2520	2
290.7965	1
291.1393	6
291.4595	1
291.9686	2
292.0906	2
292.2141	2
292.2947	1
292.8127	0
293.1338	5
293.3357	1
294.0732	3
294.2585	1
294.8952	2
295.0733	7
295.2565	4
295.7704	1
295.9733	2
296.1208	3
296.2866	1
296.4590	1
297.1840	10
297.7294	1
297.8720	1
298.1313	9
298.6257	0
298.8530	1
298.9409	1
299.1660	5
299.3933	3
299.6882	1
299.9417	1
300.1945	5
300.6754	0
300.9886	3
301.1390	6
301.2661	4
302.0779	3
302.2421	1
303.0402	3
303.1769	3
303.4641	1
303.8741	0
304.0915	4
304.2064	1
304.7292	1
304.9379	2
305.1438	4
306.0530	1
306.2123	1
306.9711	3
307.1588	5
307.4186	1
307.7934	1
308.0648	2
308.3065	2
309.1370	7
309.2884	3
309.8286	1
310.1264	2
310.2502	1
310.6295	0
311.1604	10
311.6550	1
311.9398	2
312.1605	3
312.6267	1
312.9160	1
313.0565	3
313.1447	1
313.3079	1
313.4777	1
314.0388	3
314.2122	3
315.0300	4
315.1867	3
315.6657	2
316.1724	3
317.0860	4
318.0290	5
319.0422	3
319.2662	1
319.3829	1
319.9499	1
320.1454	3
320.2979	1
320.9883	2
321.1562	5
321.8686	2
322.1292	4
322.5709	1
322.9250	2
323.0447	1
323.1659	1
323.3120	3
323.4814	1
324.1276	5
324.4533	1
324.5731	1
324.7250	0
324.8967	1
325.1399	1
325.2531	1
325.7755	1
326.0743	1
326.2233	1
326.7976	2
326.8941	2
327.0461	1
327.2193	3
327.4480	2
327.7834	1
328.0758	2
328.4829	1
328.5904	1
329.1532	7
330.1600	4
330.2667	2
330.6747	1
330.8312	1
331.1406	5
331.2737	3
331.4470	1
331.6313	1
331.9517	1
332.1960	3
332.3189	1
332.9085	1
333.1580	3
334.1545	4
334.3060	2
334.5797	1
335.0547	4
335.2259	2
335.7778	1
335.9359	1
336.1358	4
336.3334	3
336.9125	1
337.0787	2
337.3225	2
337.5092	1
338.0767	1
338.9489	2
339.1115	2
339.2778	2
340.0125	1
340.1620	2
340.2389	1
340.3795	1
341.1173	2
341.2953	1
341.5504	1
342.1681	2
342.8621	1
343.1294	5
343.3787	1
343.7956	1
344.1130	2
344.3002	3
344.6850	1
345.1634	2
345.4311	1
346.0135	2
346.1927	2
346.3559	1
346.9961	2
347.1783	5
347.3401	2
347.5479	1
348.0902	3
348.1942	3
348.2886	1
348.3991	1
349.2262	2
349.3931	1
349.7731	1
350.0118	2
350.2182	1
351.1211	1
351.2953	1
351.8915	1
352.1280	6
352.2445	3
353.0260	1
353.3073	1
354.1857	3
354.3784	1
354.9668	2
355.1976	3
355.4262	1
356.0286	1
356.2023	1
356.8869	0
357.1654	6
357.5517	1
357.7995	1
358.1001	3
358.2643	1
358.7137	0
359.0884	6
359.2820	2
359.4551	1
360.0630	1
360.2991	3
360.5243	1
361.1162	4
361.7155	1
361.9480	2
362.3031	3
363.0910	3
363.2730	1
363.4315	2
363.6362	2
364.0537	3
364.2974	1
364.9946	2
365.0900	1
365.2191	1
365.5751	1
365.8614	2
366.1851	1
366.3863	1
367.0059	1
367.1446	1
367.3091	1
367.7503	2
367.9119	1
368.0690	2
368.7145	1
368.8518	2
369.1000	4
369.3644	1
369.8058	0
370.0511	1
370.2590	2
370.4412	0
370.5763	1
371.0707	6
371.2264	4
371.7072	2
372.0830	3
372.1725	2
372.3223	3
372.8171	1
373.1460	6
373.4800	0
373.7326	0
374.0858	3
374.2767	4
374.4045	1
374.5785	1
375.2072	5
375.6522	1
376.1715	3
376.3838	1
376.7187	1
376.9229	1
377.0206	1
377.1551	1
377.2631	1
377.3835	1
377.5363	0
377.8669	1
378.0323	2
378.1983	1
378.4503	1
378.8831	2
379.1153	2
380.1404	2
381.0834	2
381.1870	1
381.5457	1
382.2117	1
382.3242	0
382.9102	1
383.0623	0
383.4285	2
383.8314	1
385.1095	4
385.2904	2
385.4419	1
386.0398	1
386.3072	1
386.9029	1
387.2342	10
387.4142	3
387.6897	2
388.1746	23
388.4883	1
388.6433	1
388.8572	1
389.1827	10
389.4450	2
390.2078	63
390.6172	2
390.7392	1
390.9281	2
391.1471	1
391.3338	3
391.5558	1
391.9101	1
392.0939	1
392.2630	1
392.7849	1
392.9966	1
393.1635	0
393.7657	1
393.9848	3
394.1753	2
394.4128	1
394.8216	2
394.9768	1
395.0724	0
395.4151	1
395.7159	1
395.8262	0
395.9762	1
396.1741	1
396.6845	1
397.0177	1
397.2458	1
397.3296	1
398.1624	3
398.8481	0
399.1689	3
399.3587	1
399.6368	1
400.1115	2
400.3359	1
400.5324	1
400.7767	0
401.0129	2
401.2521	5
401.5899	1
402.1442	8
402.3554	4
402.5681	3
403.2130	83
403.6112	3
403.7828	2
404.1796	10
404.5470	2
405.0042	1
405.6721	1
405.9490	1
406.1213	1
406.3466	1
406.8084	0
407.0883	1
407.2216	1
407.4587	1
407.5802	1
407.8137	0
408.1879	1
408.4354	1
408.7477	0
409.1529	1
410.0966	1
411.0324	1
411.3161	0
412.1989	1
413.0877	1
413.2380	4
413.3206	1
413.4260	1
413.8174	1
413.9478	1
414.1756	2
414.8818	2
415.0897	0
415.2496	3
415.3536	1
415.5851	1
416.1476	3
417.1187	3
417.2462	6
418.0817	3
418.1849	1
418.3177	1
418.8457	1
419.0906	3
419.2461	1
419.4138	1
420.1372	1
420.2564	1
421.0917	1
421.4590	1
422.0964	1
422.9790	1
423.2778	1
424.0597	3
424.9446	1
425.1273	1
425.2134	1
425.3526	1
426.0410	1
426.2192	2
427.0153	4
427.1810	2
427.4277	1
427.7879	1
428.0295	1
428.1834	5
429.1402	4
429.3649	3
429.5373	1
430.1760	4
430.6615	0
431.2229	4
431.6672	1
432.1432	3
432.4077	1
432.7401	1
432.9007	1
433.2191	2
434.1189	2
434.3009	1
435.2908	1
435.8820	0
436.1274	3
436.6780	1
437.1491	1
438.0671	2
438.2328	2
438.3130	1
438.7334	1
438.9557	1
439.3239	1
439.8260	2
440.1176	4
440.3636	2
441.1669	2
441.6537	1
442.0558	2
442.1538	1
442.3224	2
442.6539	0
442.8903	1
443.0192	2
443.2711	12
443.4707	2
443.5804	2
443.7366	1
444.2265	33
444.5373	5
444.7311	3
445.2372	34
445.5665	3
445.7212	4
446.1868	35
446.8043	0
446.9391	2
447.1528	2
447.3901	3
447.7541	2
448.0754	3
448.2021	5
448.3458	1
448.4564	1
448.7231	1
449.1705	1
449.2899	1
449.9849	1
450.2347	2
450.4168	2
451.3544	0
452.0945	2
452.2766	3
452.4462	1
453.1628	1
453.9561	4
454.1928	1
454.3793	0
455.0710	3
455.4714	0
456.0488	1
456.2074	1
456.3047	1
456.9544	0
457.2340	3
457.6219	1
457.9642	1
458.3477	1
459.1355	2
459.5339	1
460.0739	3
460.3203	3
461.1687	7
461.3680	2
461.5377	1
462.2069	11
462.4865	2
463.1735	2
463.2488	1
463.8842	1
464.1720	3
464.9152	1
465.0562	1
465.2407	0
465.3669	1
466.2165	1
466.3803	1
467.0166	1
467.2226	2
467.7526	1
468.0789	1
468.3395	1
468.8667	2
469.1982	1
469.8834	1
470.0805	2
470.2437	2
470.4032	3
470.7037	1
470.8861	3
471.0884	4
471.2561	6
471.4806	1
471.9296	1
472.0728	2
472.1836	2
472.3047	1
473.3051	3
474.0686	2
474.3150	1
475.2549	3
476.0849	1
476.2133	1
476.5424	1
476.8530	1
477.1460	1
477.4869	1
477.9348	1
478.1909	3
478.5356	1
478.9724	1
479.2787	1
482.1352	2
482.4711	1
482.6121	0
485.0101	1
485.0943	1
485.2154	0
485.3786	3
486.0483	3
486.3216	5
487.0275	2
487.1405	2
487.4381	3
488.0895	2
488.2897	2
488.5947	0
488.8517	0
489.1376	2
489.2528	0
489.4722	3
489.7048	1
490.2478	47
490.9370	1
491.2029	2
491.5051	1
491.6823	1
491.9225	1
492.0724	2
492.1707	1
492.3561	1
492.4536	0
492.6169	3
493.5612	0
493.8796	0
494.0591	1
494.2387	1
494.3429	1
495.0382	2
495.2762	1
495.4003	2
496.0262	2
496.1548	1
496.4327	2
496.7047	0
497.0276	1
497.2235	1
498.1392	1
498.5383	1
498.9922	1
499.3633	0
499.5007	1
499.8600	1
499.9930	1
500.2082	2
501.0191	2
501.3148	4
501.4605	2
503.1348	1
503.2891	0
503.6537	1
503.7585	1
504.0590	3
504.3255	3
505.2438	1
505.3316	1
505.4822	1
506.1762	3
506.4095	1
507.2438	2
508.0855	1
508.2738	3
509.0299	1
509.1318	2
509.2574	1
509.4996	1
509.9021	1
510.0771	4
510.2632	3
510.5394	1
510.9360	1
511.0423	1
511.5187	0
511.7284	1
512.0246	2
512.1989	2
514.3839	1
514.5101	2
514.9977	1
515.2828	1
516.1657	1
516.9481	0
517.1173	1
517.2518	1
517.3604	1
517.9988	1
518.2596	3
518.5522	1
519.0569	1
519.1566	1
519.2712	1
520.0781	1
520.1771	2
520.4669	2
521.1823	1
521.2820	1
521.4838	1
521.7173	0
521.8858	1
522.0506	2
522.1334	1
522.2723	1
522.4542	2
523.2214	1
523.8024	0
523.9872	1
524.2658	2
524.6450	1
525.4670	2
526.2174	1
527.0757	1
527.6443	1
528.2188	1
528.3157	1
528.8895	1
529.3032	0
530.0437	1
530.3314	2
530.5490	1
531.2918	1
531.4246	1
531.5869	2
532.2795	18
532.8174	1
532.9103	1
533.0298	1
533.2283	2
533.4710	1
533.5610	1
534.2155	2
534.3741	1
535.4395	1
536.0881	4
536.2143	1
536.3552	2
537.2001	2
538.2303	1
538.3351	2
538.8074	1
539.2008	1
539.9226	1
540.3315	1
540.6858	2
542.1495	1
543.2634	1
543.3904	1
543.6259	2
543.8895	1
544.1744	2
544.5110	1
544.6144	1
544.8817	1
545.2058	2
545.2996	1
545.4760	1
545.6791	1
546.0320	0
546.1738	1
547.1321	1
547.8019	1
547.9894	2
548.1401	1
548.4177	2
548.6407	1
548.7914	0
548.9797	1
549.1355	3
549.3711	3
549.7942	1
550.2144	3
550.4330	1
550.9559	2
551.2573	6
551.3887	3
551.8348	1
552.0992	7
552.2521	6
552.3666	3
552.8497	2
553.2441	2
553.3903	1
553.6829	1
554.0943	0
554.2272	2
554.3145	1
554.5117	0
554.7155	1
554.9756	0
555.1263	1
555.4432	1
555.5828	2
556.0106	1
556.1398	1
556.2839	1
557.3012	2
558.1028	2
558.3651	2
559.9412	1
560.3580	1
561.1664	1
561.4147	3
561.9364	1
562.1663	3
562.2520	1
562.3665	2
563.1440	1
563.3931	2
563.5283	1
563.7160	1
564.2578	4
564.4788	1
564.7101	1
565.1506	11
565.3842	9
565.6525	0
565.9496	1
566.2697	15
566.5469	2
566.8544	2
567.0104	1
567.1745	1
567.3682	1
568.2102	1
568.3795	1
568.6530	1
568.8060	1
568.9547	2
569.2422	2
570.2692	1
571.7006	1
572.0747	1
572.6056	2
574.2087	1
574.3618	1
576.1547	3
576.4219	1
577.1248	1
577.2643	2
577.9502	2
578.1384	2
578.4168	3
578.6715	1
579.2504	1
579.4349	2
579.8366	1
580.2000	4
580.4318	3
581.2876	3
581.5173	1
582.1494	2
582.4219	4
582.9174	1
583.0599	1
583.1729	1
583.3561	1
583.8870	2
584.3627	1
584.6943	1
585.0067	1
585.3014	1
585.4698	1
585.6146	1
585.7925	1
586.8968	1
587.2211	1
587.4493	0
587.6554	1
587.8267	1
587.9161	1
588.0941	1
588.2980	2
588.5455	1
588.7930	1
589.2753	4
589.4305	0
590.0215	1
590.4019	3
590.5009	1
590.6044	1
590.8046	2
591.0188	1
591.2914	1
591.5093	2
591.7436	2
591.9017	2
592.1285	7
592.2689	3
592.5939	3
592.9789	8
593.2752	12
593.5914	4
593.8737	2
594.1382	5
594.3059	3
594.4094	3
594.5853	3
594.7811	1
595.1409	3
595.4195	4
595.7247	2
596.0720	5
596.2789	1
596.4851	3
596.8849	2
597.1258	2
597.4052	2
597.6534	2
598.0163	1
598.2661	2
598.7524	3
598.9911	1
599.1826	2
599.5038	0
600.0043	1
600.3468	3
600.7750	3
600.9137	4
601.1078	3
601.3087	2
601.5677	2
601.7855	2
601.8948	2
602.0690	1
602.3428	1
602.5850	4
602.6810	2
602.7850	1
602.9770	2
603.1298	4
603.2450	2
603.5477	4
603.7943	2
603.9641	5
604.1937	4
604.5059	6
604.7260	3
604.9423	3
605.1601	4
605.3609	4
605.6459	5
606.3348	50
607.1270	16
607.3663	17
607.5900	7
607.7827	1
608.2029	11
608.6274	6
609.2861	18
609.4951	12
610.1619	7
610.5172	7
610.9064	4
611.4396	6
611.8797	5
612.1434	5
612.3635	3
612.5599	5
612.7645	3
613.1397	5
613.4713	3
613.7350	3
613.9270	2
614.2321	4
614.7979	7
615.0046	4
615.3289	9
615.5453	8
615.7441	6
615.9767	9
616.3653	10
616.6910	8
617.2916	8
617.8449	10
618.4388	12
619.5248	20
624.3145	999
625.0808	260
625.9682	127
626.6962	70
627.3173	54
628.1501	31
628.8724	23
629.1623	17
629.7377	13
630.2166	7
630.4017	11
630.7160	9
631.0333	6
631.1801	4
631.4752	6
631.8419	4
632.0891	3
632.5893	5
632.9479	3
633.0659	2
633.2563	3
