Mass spectrum: 1,16-Didehydro-2,6-cyclolycopene-5-ol; FAB-EBEB; MS2; m/z: 552.43; [M]*+
Name: 1,16-Didehydro-2,6-cyclolycopene-5-ol
Class: Natural Product
Formula: C40H56O
Exact mass: 552.43312
SMILES: C(C=CC=C(C=CC=C(C=CC(C(=C(C)C)1)C(CC1)(C)O)C)C)=C(C=CC=C(C)C=CC=C(CCC=C(C)C)C)C
InChI: InChI=1S/C40H56O/c1-31(2)17-13-20-35(7)23-15-25-36(8)24-14-21-33(5)18-11-12-19-34(6)22-16-26-37(9)27-28-39-38(32(3)4)29-30-40(39,10)41/h11-12,14-19,21-28,39,41H,13,20,29-30H2,1-10H3/b12-11+,21-14+,22-16+,25-15+,28-27+,33-18+,34-19+,35-23+,36-24+,37-26+
Instrument: JMS-HX/HX 110A, JEOL
Instrument type: FAB-EBEB
Ms type: MS2
Ion mode: POSITIVE
Collision energy: 3 kV
Ionization: FAB
Base peak: 552.4194
Precursor m/z: 552.43
Precursor type: [M]+*
m/z	relative intensity
0.0261	0
12.9842	0
13.9922	1
14.9888	2
22.9494	0
24.6599	0
24.9763	0
25.9652	3
26.2905	0
26.9722	27
27.9919	3
28.9918	28
29.9226	0
30.0118	0
30.9809	0
35.8625	0
36.9595	2
37.2032	0
37.3202	0
37.5057	0
37.9707	6
38.5783	0
38.9829	60
39.6570	0
39.7244	0
39.9929	6
40.5561	0
40.9947	173
41.4099	0
41.9917	3
42.9737	295
43.9987	2
44.9804	9
45.2485	1
46.0143	0
46.9291	0
47.7471	1
48.4651	0
48.9603	1
49.0831	0
49.7039	0
49.9617	15
50.9819	34
51.7805	0
51.9723	12
52.9868	75
53.9911	3
54.9940	162
55.8873	0
56.0158	1
57.0076	11
57.4323	1
57.9829	4
58.9861	4
60.5530	0
60.9598	1
61.4662	1
61.7704	1
61.9683	8
62.6823	0
62.9663	18
63.1610	0
63.2634	0
63.6098	0
63.7443	0
63.9683	5
64.2965	0
64.5776	0
64.6764	1
64.9846	55
65.3103	0
65.9759	10
66.3206	0
66.4582	0
67.0016	87
67.4852	0
67.6850	0
67.8632	1
68.0081	8
68.4382	0
69.0122	440
69.2896	1
69.4493	1
69.6472	0
69.9938	4
70.0673	2
70.9859	54
71.2925	0
71.5562	0
72.0027	1
72.9734	1
73.0878	0
73.5122	0
73.9554	5
74.9605	9
75.1415	1
75.2367	1
75.3763	0
75.4899	0
75.6230	1
75.7006	0
75.9648	6
76.2152	0
76.3624	1
76.5565	1
76.9788	159
77.2986	2
77.4496	1
77.5712	1
77.6990	1
77.9825	31
78.2060	1
78.4508	1
78.9993	173
79.2424	0
79.2940	0
79.4622	0
79.7219	1
80.0094	26
80.6328	1
81.0162	228
81.2184	1
81.4157	1
82.0077	4
82.4835	0
83.0216	25
83.2737	0
83.4460	1
83.9997	1
85.0075	7
85.6130	0
85.9597	3
86.4695	0
86.9822	6
87.9780	1
88.3600	0
88.4604	1
88.5982	2
88.9767	15
89.3355	2
89.5287	1
89.6381	1
89.7878	1
89.9870	7
90.2094	1
91.0002	352
91.5276	1
91.6126	0
91.7369	0
92.0140	40
92.4215	1
93.0254	316
93.2718	1
93.4446	0
94.0393	11
94.4052	0
95.0453	121
95.3439	0
96.0295	3
96.1817	0
96.3934	0
97.0222	9
97.9928	3
98.8738	1
99.0427	3
99.9449	2
100.0906	0
100.4910	0
100.6910	0
101.0035	4
101.2702	1
101.4675	1
101.9898	16
102.2381	1
102.3414	1
102.4252	1
102.6690	1
103.0140	50
103.2173	1
103.3864	1
103.5460	0
103.6684	0
104.0253	26
104.4575	0
104.6163	1
105.0360	454
105.3907	1
105.6109	1
106.0458	40
106.4822	0
106.6518	0
107.0470	219
107.4877	2
107.6796	0
108.0452	11
108.3242	0
108.6503	0
108.7872	0
109.0498	59
109.5122	1
109.6726	0
110.0358	1
110.3628	0
110.4386	0
110.5962	0
110.8238	0
111.0353	6
111.3078	0
111.4597	0
111.8754	0
112.0238	1
112.1159	0
112.5818	1
112.6614	1
113.0162	4
113.2272	1
113.4527	1
113.9819	3
114.1446	2
114.4419	3
114.5590	2
114.9995	138
115.3880	1
115.5601	1
116.0054	58
116.2830	2
116.5246	2
117.0128	167
117.4845	1
117.5925	0
117.7416	0
118.0163	31
118.2137	1
118.4040	1
118.5786	1
119.0235	324
119.3235	1
119.5601	2
120.0189	32
120.2944	1
120.4435	0
120.5616	0
121.0399	98
121.4565	0
121.5445	0
121.9930	4
122.2633	0
122.6557	1
123.0319	18
123.2636	0
124.0424	1
124.1331	0
125.0213	29
125.2584	1
125.4231	1
125.9813	4
126.3719	0
126.5643	1
126.9815	45
127.1935	3
127.3078	2
127.4625	3
127.9793	145
128.3972	2
128.5264	1
128.9899	187
129.2638	2
129.4648	1
129.5965	0
130.0061	81
130.2416	2
130.4913	1
131.0075	242
131.3318	0
131.4362	0
131.5615	1
132.0089	63
132.4707	2
133.0219	216
133.4115	2
133.5304	1
133.7625	1
134.0219	13
134.4252	1
134.6880	1
135.0367	44
135.3232	0
135.5535	1
135.8569	1
136.0534	2
136.2709	1
136.7952	0
137.0309	6
137.4733	0
137.7110	1
137.9469	2
138.1122	1
138.2826	1
138.5316	1
138.9859	17
139.2357	1
139.3833	1
139.5309	0
140.0180	6
140.3004	2
140.9934	134
141.2829	2
141.4612	2
141.5520	1
142.0002	137
142.3908	2
142.5706	2
143.0105	234
143.2315	4
143.4706	1
143.5846	0
143.7035	0
144.0206	80
144.3615	2
144.6426	2
145.0342	309
145.3916	1
145.6275	2
146.0369	24
146.3110	2
146.4721	1
146.5533	0
147.0487	79
147.3574	1
147.4981	0
147.6094	0
147.7926	1
148.0471	3
148.2554	0
148.4518	0
148.5988	0
148.6765	0
149.0407	7
149.3268	0
149.5022	0
149.7653	1
150.0177	4
150.1487	1
150.5755	2
151.0238	16
151.2647	3
151.4874	1
152.0007	45
152.2336	2
152.6517	2
153.0135	63
153.2272	2
153.4779	1
153.5904	0
154.0298	34
154.2235	2
154.4191	1
154.5581	1
155.0407	154
155.5405	1
156.0474	86
156.5079	1
157.0568	247
157.3538	2
157.4767	2
158.0621	48
158.5953	2
159.0769	141
159.3201	2
159.5032	1
159.6466	1
159.8443	1
160.0838	5
160.3796	1
160.5787	0
160.7171	0
161.0984	31
161.3280	1
161.6310	0
161.7607	0
162.0714	3
162.3297	1
162.6272	1
163.0762	10
163.3246	2
163.4297	1
163.5773	1
164.0412	6
164.3030	2
164.5687	3
165.0425	102
165.4136	1
165.6065	1
166.0571	32
166.3811	1
166.4754	1
166.6412	2
167.0677	94
167.4672	1
168.0619	35
168.3172	2
168.5548	1
169.0751	151
169.5829	2
170.0846	51
170.3910	1
170.5001	1
171.0840	135
171.3462	2
171.5703	3
171.8079	3
172.0949	24
172.5123	2
172.6706	2
173.0970	61
173.4931	1
173.6953	1
174.1176	5
174.2989	1
174.3924	0
174.5012	0
174.6654	1
174.7723	1
175.0905	15
175.5177	0
175.6698	2
176.0105	6
176.3316	1
176.6463	1
177.0554	12
177.3129	1
177.4449	0
178.0353	42
178.2604	3
178.3931	1
178.5838	1
179.0349	84
179.3100	1
179.4887	1
179.6502	1
180.0409	38
180.2932	1
180.4337	0
180.5863	1
181.0521	104
181.2949	1
181.3984	1
182.0542	41
182.5517	1
183.0596	123
183.3923	1
183.6226	1
184.0566	27
184.3382	1
184.6449	1
185.0734	71
185.4712	1
185.6192	1
185.7447	1
186.0786	11
186.3523	1
186.7215	0
187.0755	19
187.4019	0
187.6161	1
187.8374	2
188.0556	4
188.2609	1
188.5400	2
189.0253	20
189.2859	2
189.4208	0
190.0225	10
190.4581	2
191.0197	35
191.3443	0
191.5320	1
192.0277	34
192.4104	1
192.6200	1
193.0363	81
193.3052	1
193.5491	1
194.0467	34
194.4523	1
195.0557	114
195.4493	2
195.6348	1
196.0594	29
196.4300	1
196.5609	2
196.6311	1
197.0728	111
197.4107	2
197.6570	1
198.0795	23
198.3724	1
199.0881	43
199.3017	1
199.4567	1
199.6962	1
200.0707	10
200.3374	1
200.4362	1
200.7359	1
201.0641	11
201.3116	1
201.6463	3
202.0251	19
202.2823	1
202.4226	1
202.5791	1
203.0389	26
203.3260	0
203.6262	2
203.8092	1
204.0557	15
204.4239	2
204.5281	1
205.0388	33
205.3554	1
205.5833	1
205.6960	0
206.0515	24
206.5004	0
206.6202	1
207.0524	60
207.3258	1
207.4062	0
207.5410	1
207.6939	1
208.0673	22
208.3486	2
208.4407	0
209.0684	79
209.3869	3
209.5607	0
209.7716	1
210.0759	15
210.3919	1
210.6113	2
210.6924	1
211.0896	44
211.3967	1
211.5571	0
211.7584	1
212.0733	10
212.4260	1
212.6995	1
213.0880	20
213.3200	1
213.5019	0
213.6390	0
213.7398	1
214.0336	5
214.2162	1
214.3911	1
214.5296	1
214.7122	2
215.0419	22
215.6468	1
216.0475	11
216.4789	1
216.6578	0
217.0620	21
217.4369	1
217.7064	2
218.0625	9
218.2996	2
218.5151	1
219.0700	31
219.4055	1
219.5821	1
220.0884	17
220.3725	1
220.5172	1
220.7180	2
221.0961	41
221.3712	0
221.5395	0
221.6001	0
221.7899	0
222.0951	10
222.4323	1
222.6991	1
223.1134	38
223.4853	1
223.7053	2
224.0995	8
224.3214	0
224.5042	1
224.6720	1
224.8274	1
225.1349	23
225.3720	1
225.4490	0
225.6358	1
226.1113	6
226.2583	3
226.4269	1
226.6330	1
227.1358	8
227.3491	2
228.0648	8
228.1660	4
228.5262	1
229.0757	17
229.3356	1
229.5947	1
229.7645	0
230.0936	10
230.3914	0
230.6304	1
231.0700	21
231.3790	1
231.6070	1
231.7410	0
232.0977	10
232.3709	0
232.5506	1
232.6938	2
233.0984	25
234.0910	9
234.5422	2
234.8228	1
235.1205	37
235.4129	1
235.6766	1
235.8827	2
236.1229	7
236.2859	1
236.5293	0
236.7918	3
237.1250	24
237.4386	1
237.6010	0
237.6881	0
238.1137	5
238.4013	1
238.5316	1
238.6960	1
239.1067	10
239.3721	0
239.5909	1
239.8759	1
240.0693	4
240.2501	2
240.5968	0
241.1226	10
241.6366	4
242.0845	6
242.7410	1
242.8853	1
243.1136	10
243.2815	3
243.4698	1
243.6666	2
243.7926	1
244.1168	7
244.4823	0
244.6588	1
245.1098	17
245.2253	7
245.4584	0
245.6829	0
245.8313	1
246.1465	6
246.5063	1
246.8577	2
247.1257	25
247.3996	1
247.5146	1
247.6040	1
247.7354	0
248.1401	10
248.3983	1
249.1410	26
249.4999	1
249.8227	1
250.1442	7
250.3158	2
250.4427	0
250.7281	1
251.1529	16
251.4522	1
251.5647	1
251.6771	1
251.8744	1
252.1227	5
252.3947	0
252.5577	0
252.6642	0
253.1294	9
253.7091	1
253.7919	1
254.1055	3
254.6840	0
255.1252	13
255.3988	0
255.8039	1
256.0992	5
256.3591	0
256.4696	0
256.8722	2
257.1137	8
257.3098	2
257.7309	0
258.1258	5
258.4595	0
258.5727	1
258.7189	0
259.1310	13
259.4615	0
259.6676	1
260.1707	7
260.5843	1
260.7318	0
261.1461	19
261.6817	1
261.8860	0
262.1937	6
262.4045	1
262.6510	0
263.1348	17
263.4340	1
263.6469	1
263.8091	0
263.9383	1
264.1440	4
264.3055	2
264.5396	1
264.7031	1
265.1562	9
265.3916	1
265.4984	1
265.7840	0
266.1336	5
266.5420	1
267.1714	10
267.5594	1
267.8188	0
267.9640	1
268.1290	3
268.2907	1
268.6055	1
268.6913	1
268.9072	1
269.1673	8
269.5997	0
269.6913	0
270.0601	5
270.1551	2
270.4824	0
270.7114	0
271.1159	8
271.5475	0
271.9633	0
272.1983	2
272.4525	0
272.8360	1
273.1430	8
273.4989	1
273.6284	1
273.7188	1
273.9097	1
274.1203	2
274.4149	0
274.5543	1
274.7003	1
275.1521	10
275.6449	0
275.8213	1
276.1867	3
276.6592	1
276.8429	1
277.2018	9
277.5349	0
277.7683	1
278.1550	6
278.4208	1
278.5927	1
278.7620	1
278.9815	2
279.2202	5
279.4543	1
279.7903	0
280.1712	5
280.3756	1
280.5423	0
280.7698	0
281.1866	6
281.5558	0
282.1791	3
282.3790	0
282.5564	1
282.8840	0
283.1712	6
283.3274	2
283.6789	0
284.1973	2
284.8885	1
285.1793	8
285.4719	0
285.7594	0
286.2348	1
286.8695	0
287.1704	8
287.6307	0
287.7471	2
288.1625	2
288.2948	2
288.4377	1
288.5131	0
288.8617	1
289.1753	8
289.5617	1
289.8760	0
290.2135	2
290.5933	1
290.8607	0
291.1718	4
291.2870	3
291.4273	1
291.6153	1
291.7047	0
292.1647	1
292.6249	1
293.1665	3
294.1990	2
294.3056	1
294.5805	0
295.0721	3
295.2887	3
295.9028	1
295.9870	0
296.1076	1
296.2514	1
296.5032	0
296.5867	0
296.7596	0
297.1454	3
297.3654	1
297.5550	1
298.1071	2
298.2934	1
298.5314	0
298.8748	0
299.1453	4
299.3674	1
299.6765	1
299.7786	1
299.9198	1
300.1745	2
300.4086	0
300.5359	0
301.1501	5
301.4493	0
301.9780	2
302.2221	2
302.5227	0
303.1790	5
303.4079	1
303.5194	1
303.6913	1
303.9647	1
304.1618	2
304.4193	0
304.8986	1
305.1934	4
305.2949	2
305.4410	0
305.7072	0
305.7875	0
306.0153	1
306.1959	1
306.5890	0
306.6873	0
306.9310	1
307.0512	1
307.2292	2
307.8880	0
308.0189	1
308.1238	1
308.2713	2
308.4294	0
308.6074	1
309.1183	3
309.2405	2
310.0638	1
310.1575	0
310.3249	0
310.6732	1
311.1277	2
311.3098	1
311.4175	1
312.1241	2
312.2843	1
312.3933	1
312.5662	0
312.8680	0
313.1872	4
313.7437	0
314.2092	2
314.4233	0
314.8483	0
314.9680	1
315.1729	4
315.8633	0
316.1348	1
316.2658	2
316.4288	0
316.8965	1
317.2219	4
317.4674	1
317.8208	1
318.1795	2
318.4251	1
318.5981	0
319.2171	4
319.3722	1
319.8768	0
320.1025	1
320.2896	1
320.6770	0
320.8441	0
320.9533	1
321.2037	3
321.5793	1
321.8530	0
322.1447	2
322.2659	1
322.4091	0
322.7547	1
323.1151	2
323.2816	1
324.0110	0
324.2276	0
324.3835	0
324.6819	1
325.0844	1
325.2783	2
325.7114	1
326.0620	0
326.2845	1
326.7531	0
327.1550	4
327.2463	2
327.3450	1
327.8236	1
327.8969	0
328.2685	1
329.1991	4
329.4346	0
329.5690	0
329.6974	0
330.1378	2
330.3707	2
330.5490	1
331.0487	0
331.2650	6
331.7076	0
331.8527	0
332.2034	4
332.3951	1
333.2238	5
333.5593	1
333.7264	0
334.0134	1
334.2044	1
334.3096	0
334.9475	0
335.2512	4
335.3317	2
335.6667	0
335.8432	1
335.9997	1
336.1016	0
336.2641	1
337.0260	1
337.1679	3
337.3478	1
337.8081	1
338.2165	2
339.0699	1
339.1699	1
339.2772	2
339.6010	1
339.7416	1
339.9355	0
340.2188	1
340.3281	0
340.5993	0
341.1578	1
341.3591	1
341.9264	1
342.1290	2
342.2557	1
342.3637	1
342.6070	1
342.7377	1
343.2344	6
343.3671	3
343.8625	1
344.1059	2
344.3313	2
344.4380	1
344.5153	1
344.7114	1
345.1842	2
345.2896	1
345.4843	1
345.6604	0
346.2374	3
346.6310	0
347.2627	3
347.4449	1
347.6470	0
347.7631	0
348.0587	1
348.2942	4
348.4910	0
348.8387	0
349.0369	1
349.2578	2
349.9145	0
350.1374	0
350.7047	1
351.2440	2
351.4042	1
352.0084	0
352.1573	0
352.3629	0
352.6306	1
352.9318	0
353.2543	1
353.7083	1
353.8466	0
354.1838	0
354.3795	1
354.9703	0
355.1718	2
355.3353	0
355.9706	0
356.1254	1
356.3210	2
356.4211	1
356.6146	1
356.7775	1
357.2140	3
357.3802	3
357.6599	1
357.7961	0
357.9008	0
358.2894	3
358.4089	2
358.6979	0
358.8288	0
358.9850	2
359.0945	2
359.2227	3
359.3369	1
359.7361	0
359.9698	0
360.2456	3
360.3411	1
360.4359	1
360.5508	0
360.8079	1
361.0269	1
361.3094	1
361.8210	1
361.9613	0
362.2752	3
363.1483	1
363.2832	2
363.3807	1
363.5645	1
363.7321	0
364.0809	1
364.3341	1
365.0544	1
365.2582	1
365.3784	1
366.1884	1
366.4831	0
367.1147	1
367.3038	2
367.6801	0
367.8927	1
368.2149	1
369.3370	2
369.7383	1
370.1309	1
370.3927	0
370.5630	1
370.6691	1
371.1205	1
371.2688	2
371.4685	0
371.6321	1
372.2773	0
372.9425	0
373.0794	1
373.2257	1
373.3593	1
373.5711	1
374.2284	1
374.4008	2
375.0589	1
375.2099	2
375.3241	2
375.4885	0
375.7357	1
375.8827	0
376.1580	1
376.3217	1
377.0709	1
377.1885	1
377.3289	1
377.7512	1
378.3033	1
379.2030	1
379.4450	1
380.1296	1
380.3188	0
381.1304	0
381.3324	2
381.9997	0
382.9219	1
383.2075	2
383.9920	1
384.0856	1
384.2348	2
384.3618	1
384.9492	0
385.0903	1
385.2181	1
385.3130	1
385.4937	1
385.9994	0
386.1353	1
386.3433	1
386.5775	0
386.9869	0
387.2552	4
387.3563	1
387.5316	1
387.9993	1
388.3593	1
389.1463	1
389.3009	1
389.4147	1
389.9716	1
390.1302	1
390.3129	1
390.4608	0
390.9127	1
391.2454	2
391.3839	1
392.2254	1
393.1185	0
393.2739	2
393.3676	1
393.6154	0
393.9870	0
394.1926	3
394.4169	3
394.7008	0
395.1187	1
395.4140	1
395.8802	1
396.0583	1
396.2331	3
396.9297	0
397.0811	1
397.3383	2
397.8293	1
398.0571	0
398.2145	2
398.3452	3
398.5200	1
398.7438	1
398.9662	0
399.1799	2
399.3843	2
399.9330	0
400.2347	1
400.5162	1
401.1413	2
401.3398	3
401.4996	1
402.0051	1
402.2130	4
402.3501	0
402.5106	0
402.8904	0
403.0810	1
403.3103	3
403.4053	1
403.5123	0
403.6220	0
404.1503	1
404.3542	2
404.7047	1
404.9542	1
405.2425	1
406.0130	1
406.2699	1
406.5930	0
407.0619	1
407.1930	0
407.3422	1
407.5027	0
407.7831	0
408.1878	2
408.6040	0
408.9707	0
409.1647	1
409.2898	1
409.5341	1
409.8700	1
410.0152	0
410.3143	1
410.5392	1
410.6549	1
410.9220	1
411.2432	3
411.3630	2
411.6213	1
412.3007	3
412.6046	1
412.6989	0
412.9305	0
413.2518	5
413.3495	4
413.5209	3
414.2827	3
414.3771	2
414.4729	1
414.7346	0
414.9770	2
415.0801	1
415.2434	2
415.4195	3
415.5293	1
415.7309	0
416.3154	2
416.5169	1
416.6941	1
416.8906	1
417.2115	2
417.3413	2
417.5278	0
417.6154	0
417.7933	1
418.1664	1
418.7883	1
419.1234	1
419.3246	1
420.1800	0
420.3486	1
420.7539	0
420.9980	1
421.2241	0
421.6147	1
422.0422	1
422.2214	1
422.3064	0
422.5265	0
422.7065	1
422.8068	1
422.9018	1
423.0255	1
423.2864	1
423.5587	1
423.6959	0
423.9321	1
424.0666	1
424.2264	1
424.3556	2
424.4974	1
424.7624	2
424.9698	2
425.1465	2
425.3659	2
425.6684	2
425.7802	0
426.0699	1
426.2860	2
426.4266	1
426.5731	1
426.8589	1
427.2698	9
427.4699	6
427.7510	1
427.8889	1
428.0676	2
428.3079	2
428.4939	1
428.8882	0
429.1044	1
429.2329	2
429.3601	3
429.4471	2
429.6841	0
430.1272	0
430.2631	1
430.4111	1
430.5476	0
430.7438	1
430.9687	1
431.0537	1
431.2211	1
431.6175	0
431.7366	0
432.0219	0
432.8166	0
433.1481	0
433.3543	3
433.6376	1
434.6642	1
434.8195	0
435.0184	0
435.1223	1
435.4343	0
435.6152	1
435.8362	1
436.1443	1
436.5294	1
436.7712	0
436.9306	1
437.0204	0
437.1510	1
437.3111	1
437.6373	1
437.9327	1
438.2020	1
438.3320	1
438.3916	0
438.6013	2
438.7922	2
438.8947	1
438.9899	1
439.2397	2
439.3965	1
439.5546	1
439.7496	1
439.9198	2
440.0665	1
440.1656	1
440.3888	3
440.5603	1
440.6675	1
441.0126	0
441.2069	5
441.3717	2
441.5741	0
441.7544	0
441.9500	1
442.2402	3
442.5082	1
442.7589	1
442.9432	1
443.2649	1
443.5718	1
443.7105	0
443.8633	2
444.2876	1
444.4612	1
444.7045	0
444.8238	2
445.1743	1
445.3587	2
445.5833	1
446.2784	4
446.5110	1
446.9561	1
447.1861	0
447.3496	1
447.5923	3
447.7479	1
447.9423	2
448.1474	2
448.4371	2
448.8467	1
449.1257	2
449.2665	2
449.3899	1
449.5441	0
449.7083	1
450.0765	1
450.3575	1
450.4983	1
450.6284	1
450.8790	1
451.1536	0
451.2903	1
451.3593	1
451.6258	1
451.7973	1
452.0451	1
452.2019	0
452.3935	1
452.7726	1
453.0734	1
453.4143	2
453.5758	1
453.8290	1
454.0172	1
454.1559	1
454.2892	1
454.4333	2
454.7709	2
455.0349	0
455.2292	2
455.3692	0
455.5207	0
455.6788	1
455.9361	0
456.1552	1
456.3850	1
456.6859	0
457.0832	2
457.3425	2
457.4578	1
457.6514	0
457.8652	1
458.0066	0
458.3604	5
458.6741	1
458.9019	0
459.0078	1
459.0990	0
459.2987	2
459.5219	2
459.7202	0
459.8302	1
460.3570	94
460.7531	4
460.9683	3
461.1901	2
461.3041	3
461.4857	0
461.5809	0
461.7760	0
462.2479	1
462.3645	1
462.7413	2
462.9558	1
463.2152	1
463.6456	1
463.8642	1
464.1075	1
464.3858	1
464.7693	2
465.0375	3
465.2621	6
465.4901	2
465.6825	4
465.9728	2
466.1485	2
466.4013	2
466.6421	1
466.8372	1
467.3086	5
467.5520	2
468.0912	3
468.3608	4
468.7968	2
468.9396	2
469.3755	3
469.5305	2
469.6660	1
469.8685	2
470.3816	5
470.5976	1
470.7673	1
470.9565	0
471.2174	2
471.3864	1
471.4824	1
471.6802	2
472.3766	4
472.5490	2
472.8247	1
473.3654	7
473.8330	0
474.0544	1
474.3429	0
474.8233	0
475.0797	0
475.3252	1
475.4480	0
475.8976	0
477.2470	0
477.3631	0
477.6490	0
477.9214	0
478.1163	0
478.2007	0
478.4098	1
478.6322	1
478.9833	1
479.1763	2
479.3150	1
479.5555	2
480.1230	4
480.3602	8
480.5298	3
481.0250	2
481.2434	4
481.3734	3
481.5504	0
481.7051	1
482.3445	8
482.5100	6
482.6816	1
483.3605	79
483.7861	1
484.0930	2
484.2298	2
484.3451	3
484.4992	2
484.8263	1
484.9671	1
485.3706	1
485.7976	1
486.1234	0
486.4391	1
486.5470	0
486.8212	1
487.1779	0
487.5157	0
487.9830	0
488.3685	1
488.7600	1
489.2307	0
490.2143	0
491.1443	1
491.3817	1
491.4441	0
491.6748	0
492.2716	1
492.7598	0
493.2802	1
493.4291	2
493.6229	1
494.1581	0
494.3426	4
494.4787	1
495.1266	1
495.3211	1
496.1965	2
496.3333	2
496.4869	3
496.6211	0
496.9296	1
497.3824	5
497.6165	2
498.1123	1
498.3183	1
498.4451	1
498.6846	1
499.0113	1
499.1582	1
499.3011	1
499.4105	0
499.5641	1
499.7513	1
500.3961	1
500.7047	1
501.0543	0
501.1616	0
501.8501	1
502.4439	0
504.1461	1
504.5256	0
505.6235	1
505.9174	0
506.2093	1
507.3280	0
507.5757	0
507.6916	0
508.0712	2
508.3270	2
508.5245	1
508.6752	1
508.8807	0
509.2008	2
509.4894	2
509.7392	0
510.3278	3
510.6023	1
510.8267	1
511.0095	1
511.3952	4
511.6269	1
511.8941	1
512.1152	1
512.2839	1
512.5338	1
512.8010	1
513.2430	0
513.5122	1
513.9750	0
514.4232	0
515.0862	1
515.2544	1
515.4011	0
515.7460	1
515.9263	2
516.0522	1
516.1299	1
516.5251	1
516.6437	0
516.7194	0
516.8547	0
516.9545	1
517.1166	0
517.3551	1
517.9380	1
518.1952	0
518.3929	1
518.7117	1
518.9871	0
519.2819	4
519.4816	3
519.6283	1
519.7147	0
519.8434	1
520.0712	1
520.1771	1
520.4316	1
520.5509	0
521.2571	0
521.4990	1
521.8830	1
522.3641	9
522.7146	1
523.0369	1
523.1468	1
523.3754	3
523.5831	1
523.7366	1
523.9825	1
524.1111	1
524.3759	1
524.6386	1
524.9047	2
525.0280	1
525.2712	1
525.3959	1
525.8256	1
526.1124	1
526.2029	0
526.3765	1
526.5709	1
526.7431	0
526.8738	1
527.0320	1
527.2177	2
527.4871	1
527.6935	1
527.9181	1
528.1567	2
528.3304	1
528.4517	1
528.6132	1
528.7513	2
529.0563	2
529.3748	1
529.5162	1
529.6637	1
529.9171	2
530.0491	0
530.1430	0
530.3408	1
530.6243	3
531.0011	2
531.2438	3
531.6005	3
531.8954	5
532.4345	6
532.9125	7
533.1043	7
534.4299	52
534.9026	5
535.0938	5
535.4612	7
535.8052	5
536.3451	13
536.8635	8
537.4275	44
537.6340	19
538.3328	6
538.6514	4
539.0632	4
539.3536	4
539.5944	3
539.9432	5
540.2249	6
540.4825	5
540.6918	3
540.8909	3
541.2283	4
541.8938	6
542.0944	5
542.1815	3
542.4532	3
542.9939	5
543.5010	7
544.0317	5
544.4041	8
544.7442	6
545.1568	8
545.6774	7
546.4584	11
546.7621	13
552.4194	999
553.1288	272
553.8002	136
554.6946	67
555.3143	36
