Mass spectrum: Eschscholtzxanthin; FAB-EBEB; MS2; m/z: 566.41; [M]+*
Name: Eschscholtzxanthin
Formula: C40H54O2
Exact mass: 566.41238
SMILES: OC(C=1)CC(C)(C)C(=CC=C(C=CC=C(C)C=CC=CC(=CC=CC(=CC=C(C(C)(C)2)C(=CC(O)C2)C)C)C)C)C1C
InChI: InChI=1S/C40H54O2/c1-29(17-13-19-31(3)21-23-37-33(5)25-35(41)27-39(37,7)8)15-11-12-16-30(2)18-14-20-32(4)22-24-38-34(6)26-36(42)28-40(38,9)10/h11-26,35-36,41-42H,27-28H2,1-10H3/b15-11+,16-12+,19-13+,20-14+,29-17+,30-18+,31-21+,32-22+,37-23-,38-24-/t35-,36-/m1/s1
Instrument: JMS-HX/HX 110A, JEOL
Instrument type: FAB-EBEB
Ms type: MS2
Ion mode: POSITIVE
Collision energy: 3 kV
Ionization: FAB
Base peak: 119.0876
Precursor m/z: 566.41
Precursor type: [M]+*
m/z	relative intensity
11.9724	0
13.0050	0
14.0184	0
15.0266	5
22.9853	8
25.0075	0
26.0150	5
27.0256	47
28.0355	6
29.0340	41
30.0187	0
31.0218	7
36.5975	0
37.0094	4
37.2139	0
38.0173	15
39.0258	100
39.5781	1
40.0316	9
40.5187	0
41.0399	225
42.0153	4
42.3364	0
43.0317	237
44.0375	3
45.0367	7
47.0739	0
49.0194	2
49.3659	0
50.0146	26
51.0280	61
52.0372	19
53.0385	129
54.0521	6
55.0495	293
56.0611	7
57.0572	53
57.8229	0
58.0742	3
59.0532	78
59.7076	0
60.0239	3
60.4933	1
60.9824	2
61.2711	0
62.0306	15
63.0456	53
63.5205	1
64.0377	11
64.4411	1
65.0409	105
66.0517	21
67.0532	166
67.4446	0
68.0442	8
69.0520	272
69.5730	2
70.0478	3
71.0470	41
71.6106	1
72.0254	0
73.0363	3
74.0150	12
75.0423	27
75.3855	2
75.6736	2
76.0791	11
77.0425	357
78.0472	61
79.0536	313
80.0605	43
81.0640	306
82.0338	17
82.4733	0
83.0629	106
83.4519	1
84.0683	2
85.0726	36
86.0426	12
87.0341	11
88.0497	6
88.4781	2
89.0512	50
89.4768	5
90.0551	15
91.0651	759
91.6687	1
92.0737	62
93.0794	488
94.0779	35
95.0795	299
95.5493	1
96.0728	16
97.0902	55
98.0460	13
99.1054	8
99.4890	0
100.0127	1
101.0448	13
101.4547	5
102.0854	37
103.0728	136
103.6488	2
104.0647	58
105.0861	970
106.0961	63
107.1014	486
108.1038	49
109.0998	287
109.6662	2
110.0816	22
110.6569	0
111.0890	180
112.0753	4
113.0538	11
113.4528	6
114.0432	12
115.0715	425
115.4892	7
116.0773	166
117.0712	398
118.0760	72
119.0876	999
120.0805	95
121.0869	587
121.5284	6
122.0757	104
123.0808	213
124.0805	19
125.0855	53
126.0484	23
126.4589	3
127.0723	163
128.0662	506
129.0709	547
130.0809	249
130.5454	4
131.0785	563
132.0773	117
133.0896	579
134.0784	65
135.0793	421
136.0884	28
137.0821	409
138.0382	17
138.6008	7
139.0492	61
139.5282	2
140.0516	33
141.0675	444
142.0706	412
143.0817	726
144.0855	268
145.0917	812
146.0906	118
147.0946	380
147.5329	7
148.0995	33
149.1040	150
149.6046	3
150.1318	23
150.5184	5
151.0991	92
152.0840	167
153.0852	230
154.0999	117
155.1043	435
156.1095	316
157.1170	767
158.1324	160
159.1332	522
160.1123	62
160.6246	5
161.1259	191
162.1306	27
163.1332	55
164.0900	27
165.1096	306
165.5830	6
166.1160	129
167.1245	289
168.1430	123
169.1287	452
170.1519	191
171.1447	423
172.1354	100
173.1409	386
174.1400	42
175.1526	173
176.0907	44
177.1458	66
178.1121	175
179.1132	306
180.1092	143
181.1215	386
182.1146	162
182.5664	8
183.1253	335
183.5689	10
184.1367	82
185.1344	232
186.1356	53
187.1274	108
188.1613	22
189.1070	149
190.1034	42
191.1047	161
192.1180	151
193.1089	315
194.1205	186
195.1154	389
196.1237	104
197.1370	344
198.1205	54
198.6945	4
199.1464	144
200.1396	35
200.5370	4
201.1362	88
202.1132	111
203.1065	143
204.1263	51
205.1206	161
206.1111	117
207.1208	260
208.1282	112
209.1432	359
210.1399	79
211.1429	166
211.5656	10
212.1463	33
213.1386	83
214.1604	24
215.1376	114
216.1269	50
217.1530	118
217.5841	9
218.1504	55
218.5759	6
219.1642	138
220.1756	93
220.5622	6
221.1728	180
222.1720	70
223.1773	155
223.7348	4
224.2210	31
225.1908	117
226.1959	48
227.2015	57
228.1228	33
229.1694	83
230.1766	54
231.1579	110
232.1776	43
233.1714	136
233.5736	6
234.1772	62
234.5242	6
235.1805	116
236.2089	33
237.2042	91
238.1750	21
239.1768	84
240.2140	27
240.5764	7
241.1742	59
242.1493	32
243.1861	63
243.5884	5
244.1707	41
245.1877	79
246.1890	44
247.2097	101
248.2014	33
249.1950	78
250.1741	21
250.5803	5
251.2446	57
251.7183	6
252.1774	23
252.6410	6
253.2177	69
254.2288	15
255.1915	41
256.2000	21
256.7506	4
257.2205	47
258.1723	37
258.5705	6
259.1964	82
260.1605	31
261.1867	75
262.2278	19
263.2281	54
264.2155	18
264.5054	3
264.7365	3
265.2340	42
266.2072	21
267.2012	44
267.6667	2
268.2589	18
269.2314	47
269.7782	8
270.2366	29
271.2333	58
272.2560	18
273.2057	54
273.6122	4
274.1895	31
274.7434	9
275.2414	52
275.5774	7
276.2479	21
277.2237	38
278.2307	16
278.5226	6
279.2527	32
280.2203	18
281.2148	40
281.7992	4
282.2243	24
283.2296	44
283.7271	3
284.2425	33
285.2040	36
286.2928	13
287.2473	35
288.2076	13
288.7021	2
289.2424	31
289.7089	2
290.2139	11
291.2875	29
292.2521	16
293.2538	27
294.1523	17
294.5543	2
295.2476	25
296.2441	17
296.6315	2
297.2334	22
297.7451	4
298.2392	13
299.2481	41
300.2218	15
301.2253	23
301.7642	1
302.2912	6
303.2670	18
304.2667	9
304.6844	2
305.2399	28
306.2059	8
307.2062	16
308.2067	12
308.7285	2
309.2726	17
310.2513	14
311.2391	16
311.6974	1
312.3131	7
312.7864	1
313.2627	17
314.2273	5
315.2514	23
316.2787	15
316.6930	4
317.3033	23
318.2657	9
318.7796	2
319.2891	15
319.7868	1
320.2340	7
321.2801	25
322.2982	7
323.2778	15
324.2576	9
325.2405	21
325.6912	2
326.4230	7
326.9064	3
327.2873	22
328.1904	10
328.7037	2
329.2574	17
330.2813	11
331.2694	21
332.2797	8
333.2798	22
334.3514	13
334.6963	4
335.2909	21
336.2900	16
336.8922	3
337.2759	21
337.8976	4
338.3155	5
339.3151	8
340.2926	4
341.2910	21
341.7211	4
342.4117	7
342.8388	2
343.2988	14
344.3856	8
345.3355	14
345.7837	3
346.2439	7
346.5760	3
346.7517	1
347.2879	18
348.2845	53
349.3006	13
350.2810	7
351.2244	6
352.0218	3
352.4258	5
353.2188	17
353.9777	4
354.3311	4
355.2153	12
356.2593	6
356.6978	3
357.3616	11
357.6943	4
358.2684	7
359.3492	11
360.2393	16
361.3084	24
362.3032	21
362.7387	2
363.2980	8
364.4258	3
365.3613	8
366.2656	3
366.6655	2
367.2759	7
368.3521	7
368.7477	1
369.3761	13
370.2898	8
371.3813	7
371.8234	1
372.3339	11
373.3212	13
373.6717	4
374.3460	15
374.7920	2
375.2754	11
375.6439	3
376.3243	11
377.1719	8
378.1792	6
379.3808	5
380.2854	6
381.2797	11
381.5843	5
382.2846	5
382.6161	2
383.3270	9
384.2873	3
384.8967	2
385.3598	12
385.6511	5
386.4369	6
387.3109	14
387.8369	2
388.4196	4
388.7664	0
389.2730	7
390.3730	3
390.5822	1
391.3625	5
391.8080	1
392.2700	5
393.2253	5
393.4750	5
394.3453	12
395.2276	8
395.5836	2
396.4660	7
397.4158	14
398.3493	8
399.3861	6
399.6375	3
400.4276	12
401.3389	14
401.9211	5
402.4105	38
403.3205	7
404.3136	6
404.5645	2
405.2486	6
405.5862	2
406.2241	2
407.0727	2
407.4492	3
408.3682	36
408.8733	3
409.3380	6
409.5039	3
409.8402	2
410.3603	11
410.6084	3
411.4275	12
412.3961	11
413.3589	66
414.3667	28
415.3177	16
416.3316	7
416.5768	7
417.3246	4
417.9468	2
418.3178	6
418.7187	2
419.4367	6
420.4989	6
421.3747	6
422.4433	6
423.3819	6
423.5897	3
423.8901	1
424.5135	6
425.4852	5
426.3569	18
427.3691	26
428.3979	19
429.3686	11
430.1777	2
430.6040	1
431.3369	6
431.7258	1
431.9532	2
432.4334	10
433.4448	10
434.3934	9
435.0054	7
435.4752	6
435.7266	1
436.1801	3
436.7607	7
437.7111	9
438.4101	12
439.5238	11
440.1809	5
440.6405	8
441.3652	4
441.8443	4
442.3489	6
442.7846	1
443.4360	6
443.8178	1
444.3599	5
444.9126	1
445.3394	3
445.7333	1
446.4343	5
446.7758	3
447.4229	5
448.3202	6
449.0843	3
449.5382	6
450.0551	6
450.5136	3
451.2898	7
451.5909	6
451.8127	3
452.4121	11
453.2589	10
454.2226	9
455.1354	10
455.7087	7
456.6635	13
457.5614	12
457.8862	5
458.3263	6
458.8262	2
459.3471	11
459.6854	5
460.3965	119
461.3156	5
461.8696	4
462.5119	3
463.3878	6
464.3222	5
465.4229	9
466.0024	2
466.2960	2
466.6898	3
467.3414	6
468.2491	4
468.7194	5
469.0475	5
469.4879	2
469.8250	3
470.3313	6
471.0879	5
471.5449	4
472.3914	31
473.1781	8
474.3904	194
475.3990	11
475.8696	5
476.2802	3
476.6984	2
477.6307	8
478.6470	3
479.3366	3
479.6304	2
480.0577	3
480.6783	4
481.0592	1
481.6379	3
481.8208	1
482.2002	4
482.5780	7
483.4450	4
484.5231	3
485.4920	4
485.8589	4
486.4160	19
487.4074	33
488.3330	2
488.5817	1
489.3486	3
489.8624	2
490.1350	1
490.5395	3
490.8031	1
491.4113	6
492.4226	22
493.2766	6
493.6871	3
494.5472	8
494.9788	4
495.6396	3
496.3994	3
496.6511	2
497.9745	2
498.5335	3
499.4313	2
499.9529	2
500.4401	3
500.8539	5
501.6424	4
501.9857	4
502.4174	2
502.8747	2
503.5238	5
504.1191	4
504.4114	3
504.6408	2
505.0082	2
505.8539	3
506.4057	5
507.2755	6
507.5559	6
508.4557	6
509.1434	3
509.4830	7
510.4271	13
511.2216	1
511.6091	1
512.4232	2
512.9080	1
513.3120	0
514.1066	1
514.5511	1
514.9807	2
515.3009	6
515.6451	3
515.9430	1
516.4878	1
516.8470	2
517.3469	4
518.0280	3
518.5010	4
519.4531	7
519.9426	1
520.5623	5
521.4711	28
522.1418	11
522.6824	6
523.0013	6
523.4205	10
524.3444	10
526.0680	9
526.5233	10
527.3679	11
528.4837	8
528.8417	6
529.1757	8
529.4258	6
530.3710	10
530.8218	6
531.5499	12
533.4315	99
534.0487	9
534.4922	5
535.3777	11
535.9471	1
536.5749	19
537.3885	6
538.0524	3
538.6893	13
539.3427	17
540.8803	26
547.5435	114
548.5540	965
549.5226	133
550.4223	44
551.5065	260
553.4073	17
554.0915	20
566.4211	999
568.4913	405
569.4095	207
570.4792	84
571.9100	36
573.2479	15
