Mass spectrum: beta-Cryptoxathin-5,6,5',8'-diepoxide; FAB-EBEB; MS2; m/z: 584.42; [M]+*
Name: beta-Cryptoxathin-5,6,5',8'-diepoxide
Formula: C40H56O3
Exact mass: 584.42295
SMILES: CC(C=CC=C(C)C(C=4)OC(C43)(CCCC(C)(C)3)C)=CC=CC=C(C=CC=C(C=CC(O2)(C2(C)1)C(CC(C1)O)(C)C)C)C
InChI: InChI=1S/C40H56O3/c1-29(18-13-19-31(3)22-25-40-37(7,8)27-33(41)28-39(40,10)43-40)16-11-12-17-30(2)20-14-21-32(4)34-26-35-36(5,6)23-15-24-38(35,9)42-34/h11-14,16-22,25-26,33-34,41H,15,23-24,27-28H2,1-10H3/b12-11+,18-13+,20-14+,25-22+,29-16+,30-17+,31-19+,32-21+/t33-,34?,38+,39+,40-/m0/s1
Instrument: JMS-HX/HX 110A, JEOL
Instrument type: FAB-EBEB
Ms type: MS2
Ion mode: POSITIVE
Collision energy: 3 kV
Ionization: FAB
Base peak: 504.4738
Precursor m/z: 584.42
Precursor type: [M]+*
m/z	relative intensity
1.6868	0
12.0079	0
13.0155	0
13.9912	1
15.0356	4
19.0161	0
22.5204	0
23.0160	2
24.0682	0
25.0284	0
26.0315	4
27.0361	35
28.0395	5
29.0476	32
30.0479	1
31.0287	3
37.0153	3
38.0305	8
39.0409	85
40.0395	12
41.0556	191
42.0435	8
43.0368	638
44.0407	7
45.0428	7
47.0055	0
48.2753	0
49.0350	2
50.0299	18
51.0365	50
52.0502	19
53.0520	107
54.0640	5
55.0649	274
56.0769	8
57.0821	96
58.0608	3
58.3658	0
59.0684	21
60.0612	1
61.0462	3
62.0350	15
63.0496	42
64.0463	11
64.3753	0
65.0607	87
66.0668	23
67.0707	136
67.5898	0
68.0721	9
69.0772	370
70.0696	9
71.0642	63
72.0214	1
72.4128	0
73.0997	2
74.0378	11
74.3662	0
75.0678	20
76.0352	9
76.3488	1
77.0575	273
78.0570	57
79.0673	275
80.0689	54
81.0838	244
82.0687	13
82.5820	0
83.0854	145
83.7153	0
84.0731	4
85.0794	91
86.0390	5
87.0597	91
88.0630	5
89.0728	28
90.0420	12
91.0836	583
92.0912	67
93.0984	446
94.1025	36
95.0959	506
96.0981	24
97.0983	48
97.7147	1
98.0691	7
98.5854	0
99.1008	7
100.0935	2
101.0826	12
101.5551	2
102.0846	33
103.0872	105
104.0945	54
105.1023	717
106.1036	78
107.1164	396
108.1013	86
109.1070	307
110.1103	12
111.0971	40
112.0617	4
113.0867	23
114.0853	14
115.0812	310
116.0829	110
117.0876	298
118.0895	67
119.0986	633
120.0979	86
121.1014	447
122.0850	97
123.0956	278
124.0933	19
125.0781	125
126.0599	18
127.0788	115
128.0674	357
129.0732	404
130.0830	168
131.0884	428
132.0806	100
133.0942	368
134.0873	58
135.0831	417
136.0800	95
137.0918	83
138.0655	10
139.0737	59
140.0874	23
141.0702	296
142.0817	292
143.0855	501
144.0976	169
145.0977	561
146.0943	82
147.0949	288
148.0936	57
149.1005	490
150.1011	36
151.0879	137
152.0815	132
153.0938	172
154.1010	91
155.1077	342
156.1109	214
157.1193	510
158.1243	108
159.1330	353
160.1263	62
161.1338	196
162.1406	62
163.1379	167
164.1449	151
165.1422	807
166.1270	119
167.1304	232
168.1315	95
169.1509	329
170.1504	128
171.1520	306
172.1530	70
173.1561	197
174.1495	41
175.1526	151
176.1369	37
177.1593	325
178.1225	150
179.1193	234
180.1288	147
181.1345	361
182.1393	111
183.1433	295
184.1479	89
185.1426	202
186.1395	60
187.1399	115
188.1259	34
189.1276	137
190.1345	60
191.1343	330
192.1393	171
193.1252	278
194.1208	91
195.1290	245
196.1333	87
197.1351	244
198.1374	62
199.1373	146
200.1240	40
201.1417	83
202.1112	67
203.1315	137
204.1355	49
205.1583	587
206.1359	89
207.1339	174
208.1460	84
209.1389	183
210.1566	62
211.1550	151
212.1554	51
213.1471	99
214.1775	25
215.1563	114
216.1601	44
217.1690	124
218.1752	111
219.1620	103
220.1599	59
221.1721	217
222.1740	48
223.1855	122
224.1944	45
225.1945	96
226.1827	37
227.1867	64
228.1818	35
229.1774	81
230.1888	32
231.2024	145
232.1893	44
233.1904	93
234.1934	58
235.1938	93
236.2099	30
237.2094	80
238.2140	38
239.2004	68
240.2335	80
241.2207	85
242.2097	26
243.2084	83
244.1997	27
245.2037	55
246.2065	29
247.2128	88
248.2039	24
249.2155	70
250.2181	25
251.2195	57
252.2321	28
253.2156	58
254.2258	22
255.2285	83
256.2269	39
257.2315	69
258.2579	51
259.2226	49
260.2480	17
261.2273	44
262.2037	14
263.2332	49
264.2242	25
265.2357	51
266.2646	18
267.2409	48
268.2501	36
269.2628	81
270.2493	53
271.2703	109
272.2527	22
273.2524	37
274.2572	24
275.2457	29
276.2786	11
277.2667	40
278.2877	14
279.2794	41
280.2573	13
281.2760	62
282.2700	39
283.2861	145
284.2931	27
285.2629	32
286.2845	24
287.2751	48
288.2737	10
289.2601	28
290.2686	13
291.2646	34
292.2892	17
293.2735	47
294.2783	15
295.2880	57
296.2917	38
297.2893	50
298.2669	19
299.2775	53
299.8306	2
300.2774	10
301.2807	16
301.7121	1
302.2826	8
303.2394	26
303.7648	1
304.2887	12
305.2772	26
306.2924	10
307.2689	32
308.2908	22
309.2817	103
310.2384	15
311.2595	25
312.2995	12
313.2630	19
313.8036	2
314.2832	6
315.2502	13
316.3162	6
317.2930	22
318.2732	11
319.2802	32
320.2890	21
321.2838	53
322.3072	18
323.2851	20
324.3120	33
325.2730	26
326.2908	7
327.2726	16
328.3018	3
329.3154	13
330.2868	6
331.2662	18
332.2929	8
333.2947	28
334.3029	20
335.3137	49
336.3186	601
337.3175	51
338.3620	9
339.3109	8
340.3119	21
341.3083	8
342.2969	2
343.2936	13
344.2921	4
345.2671	14
346.3272	11
347.2837	30
348.3599	23
349.3261	116
350.3255	20
351.3361	20
352.3169	95
353.3042	16
354.3341	3
355.3107	5
357.0137	7
358.2900	5
359.3334	18
360.3422	15
361.3370	36
362.3350	22
363.3372	38
363.8006	4
364.3428	9
365.3138	20
366.3260	9
366.7580	1
367.3494	4
368.3792	4
369.3255	6
369.7830	1
370.3635	4
371.3401	14
372.3625	3
373.3473	23
374.3337	21
375.3503	47
376.3449	19
377.3527	23
378.3382	7
379.3664	19
380.2701	2
380.5194	1
381.2276	4
382.3493	2
382.8447	2
383.4396	6
384.3280	13
385.2986	9
386.3546	10
387.3807	21
388.3375	13
389.3749	30
390.3335	10
391.3743	19
392.3489	25
393.3679	5
393.6665	2
394.4075	2
395.3350	9
396.3559	2
397.3643	9
398.3539	5
399.3435	8
400.4297	6
401.3784	22
402.3779	28
403.3917	92
404.4326	43
405.3754	29
405.7947	3
406.3706	3
407.4023	2
408.4024	2
409.3948	8
410.3770	4
411.3924	16
411.8662	1
412.4032	11
413.3794	9
414.3541	3
414.5421	1
415.3842	10
416.3464	4
417.3719	19
418.3913	53
419.4107	52
420.4002	79
421.4578	4
422.4049	3
423.3789	8
423.8596	1
424.4162	15
425.3699	4
426.4003	41
427.4731	5
428.4560	7
429.3979	13
430.3604	4
431.3783	10
432.3963	31
433.3733	14
433.8208	1
434.4137	2
434.9149	1
435.4178	3
436.3840	3
437.4420	9
438.3847	162
439.4034	11
439.9318	2
440.4190	5
441.4411	7
442.4822	3
443.4158	4
444.3416	5
445.3672	5
446.3976	6
447.4154	5
448.3890	40
449.3722	5
450.5233	4
450.9683	1
451.4734	4
451.8963	1
452.4094	6
453.3628	4
454.3591	5
455.4220	7
456.3646	6
457.4197	13
458.3815	5
459.4115	5
460.5144	2
461.4518	11
462.4377	4
463.3809	5
464.4476	14
465.4353	43
466.4231	3
467.3429	5
468.4480	9
469.3932	14
469.9364	7
471.3394	11
474.7114	14
476.3890	8
476.7614	3
477.4410	21
478.4377	18
479.3377	4
480.6039	3
481.3423	4
482.0255	3
483.2110	8
488.7455	67
491.4531	149
492.4555	94
493.2901	9
494.2182	5
495.4758	4
496.2060	3
496.5767	1
496.8460	1
497.3925	6
498.4793	9
499.4584	12
499.6818	6
500.4820	5
500.7165	3
501.6229	3
502.4992	7
503.4564	25
504.4738	999
505.4660	29
506.2411	2
507.2414	2
508.1450	1
508.5635	1
509.5163	4
510.5025	8
511.4411	6
512.0770	2
512.4528	3
512.7462	1
513.0380	1
513.5629	2
514.0069	1
514.5192	2
515.5368	4
515.9813	1
516.5286	1
517.1835	1
517.7720	2
518.3337	1
518.8099	1
519.9238	3
520.5361	1
521.2371	0
521.9381	2
522.3115	1
523.3702	3
524.5303	4
525.4515	7
526.4645	9
527.4522	7
527.8021	3
528.4352	4
529.4073	3
530.4094	4
530.8274	1
531.2723	1
531.6238	1
532.0355	2
533.0615	4
533.9594	2
534.7322	2
535.6586	2
536.4600	2
537.4024	4
538.4794	3
539.4932	14
540.5086	16
541.4370	28
542.4477	13
543.1971	3
544.4899	4
545.3076	3
545.9160	4
546.5229	4
547.2725	4
548.3707	7
549.2377	4
549.9699	5
551.3742	28
552.4219	5
553.4745	18
554.5398	22
555.5101	24
556.5073	18
566.5186	450
567.5258	127
568.4919	79
569.5310	885
584.3764	999
588.5095	69
589.6541	26
590.9872	13
591.5034	8
