Mass spectrum: Cyclomytiloxanthin; FAB-EBEB; MS2; m/z: 616.41; [M]+*
Name: Cyclomytiloxanthin
Formula: C40H56O5
Exact mass: 616.41277
SMILES: C(C=CC=C(C)C=CC(C(C)(O)2)(C(C)(C)3)OC(C3)C2)(C)=CC=CC=C(C)C=CC=C(C)C(=CC(=O)C(C1)(C(CC(O)1)(C)C)C)O
InChI: InChI=1S/C40H56O5/c1-28(17-13-18-30(3)21-22-40-37(7,8)26-33(45-40)27-39(40,10)44)15-11-12-16-29(2)19-14-20-31(4)34(42)23-35(43)38(9)25-32(41)24-36(38,5)6/h11-23,32-33,41-42,44H,24-27H2,1-10H3/b12-11+,17-13+,19-14+,22-21+,28-15+,29-16+,30-18+,31-20+,34-23-/t32-,33-,38-,39+,40+/m0/s1
Instrument: JMS-HX/HX 110A, JEOL
Instrument type: FAB-EBEB
Ms type: MS2
Ion mode: POSITIVE
Collision energy: 3 kV
Ionization: FAB
Base peak: 109.0820
Precursor m/z: 616.41
Precursor type: [M]+*
m/z	relative intensity
0.0485	0
0.3291	1
1.0879	0
2.1492	0
3.7332	1
5.7513	0
6.2824	0
8.7701	1
10.7754	0
11.2420	0
12.4000	0
13.0085	0
13.9847	0
15.0250	4
16.1199	2
16.2344	0
22.0389	1
22.9790	0
24.9851	0
25.9987	5
27.0086	32
28.0088	3
29.0177	21
30.0012	0
30.9987	4
33.9360	0
36.9956	4
37.9873	6
38.2170	1
38.5247	0
39.0073	72
40.0145	13
41.0192	148
42.0142	9
42.4517	0
43.0024	603
44.0037	6
44.4760	0
45.0169	5
48.9879	1
49.9991	21
51.0025	44
51.3103	0
52.0071	13
53.0188	82
54.0315	8
54.6331	0
55.0256	246
56.0420	11
57.0346	53
57.4979	1
58.0089	9
59.0333	11
59.9504	0
61.0017	3
61.3844	0
62.0082	13
62.3995	1
63.0214	28
63.4319	0
63.6349	0
64.0327	7
64.2928	1
65.0143	58
65.7013	0
66.0240	19
67.0327	121
68.0186	12
69.0135	284
70.0133	25
70.4316	0
71.0220	127
72.0850	2
73.0037	4
73.3939	0
73.9788	7
74.5558	0
75.0030	12
75.2176	2
75.9728	11
76.5957	3
77.0142	172
78.0313	40
79.0265	156
79.5557	1
80.0167	30
80.4277	1
81.0352	160
81.5703	0
82.0179	30
83.0531	707
84.0442	14
85.0474	133
86.0074	5
87.0119	21
88.0217	4
88.2773	1
88.6025	1
89.0314	23
89.9905	13
91.0353	353
92.0498	34
93.0489	189
94.0379	28
95.0457	243
96.0388	30
97.0421	122
97.4751	0
98.0184	23
99.0246	112
99.7008	0
100.0762	3
100.3513	1
100.9916	14
101.3848	2
102.0265	23
102.5356	1
103.0382	65
103.6312	1
104.0293	33
104.5095	2
105.0549	349
106.0640	45
106.5870	3
107.0595	184
108.0370	45
109.0820	999
110.0695	22
111.0388	132
112.0254	9
112.4302	2
113.0494	151
113.4706	3
114.0207	10
115.0309	217
115.4965	3
116.0470	71
117.0389	196
118.0525	39
119.0461	341
120.0585	55
121.0464	211
121.5351	4
122.0256	62
122.4499	0
123.0338	132
124.0187	25
124.5793	0
125.0472	150
125.6115	2
126.0292	26
126.3888	6
127.0459	181
128.0276	238
129.0237	254
130.0358	97
131.0419	291
132.0375	73
132.5762	3
133.0432	218
134.0252	33
135.0172	155
135.4591	3
136.0251	48
137.0224	113
137.9840	25
139.0405	141
140.0464	19
141.0253	224
142.0201	170
143.0353	303
144.0501	118
145.0422	400
146.0473	67
146.5607	5
147.0430	224
148.0307	31
149.0359	73
149.6797	3
150.0602	17
151.0419	87
152.0381	91
153.0458	149
154.0394	56
155.0611	233
156.0672	138
157.0711	275
158.0609	73
159.0698	285
160.0689	237
161.0689	176
162.0880	29
163.0761	91
164.0711	20
165.0700	179
166.0606	52
167.0718	129
168.0853	58
169.1012	164
170.0874	73
171.1125	156
172.1093	60
173.1069	146
173.5610	5
174.0930	48
174.5749	3
175.0844	314
176.0568	23
177.0970	65
178.0662	87
179.0911	164
180.1075	62
181.0987	305
182.1012	77
183.1106	176
184.0930	48
184.4140	6
185.1099	148
186.0983	38
186.5750	6
187.0842	80
188.0753	35
188.4541	2
189.0872	85
190.0071	32
191.0865	70
192.0863	46
193.0775	88
194.0971	73
194.5129	6
195.0988	207
195.5426	6
196.0902	76
197.1055	215
198.1043	47
199.1145	101
200.1113	23
201.0793	49
202.0865	31
203.0757	61
204.0484	21
205.0884	58
206.0916	47
207.0970	95
208.1091	79
209.1077	129
209.6360	4
210.1193	59
211.1127	112
212.0801	30
213.1088	79
214.0834	25
215.0991	68
216.0966	18
216.5266	3
217.1352	35
218.1164	19
219.1309	53
220.1083	26
221.1536	238
222.1445	35
223.1452	94
223.6191	3
224.1385	38
225.1433	65
225.6443	2
226.1627	32
227.1448	71
228.1478	18
229.1496	41
230.1314	25
231.1687	40
232.1608	32
233.1800	97
234.1761	49
235.1774	58
236.1417	23
237.1882	195
238.1754	27
239.1865	50
240.1791	12
241.1832	32
242.0599	8
242.5204	2
243.1940	32
243.6879	1
244.1313	10
245.1274	56
246.1823	132
247.1918	83
247.6911	2
248.1700	13
248.7154	2
249.1691	35
250.1844	28
251.1843	40
252.1987	17
253.1771	21
254.1701	13
254.5661	1
255.1713	19
256.1174	8
257.1685	17
258.2215	10
259.1384	40
259.6398	1
260.1746	17
261.1461	25
261.6093	0
262.2439	10
263.1943	55
263.6483	5
264.1705	13
265.1882	43
266.1904	9
266.6702	1
267.1849	24
267.6664	4
268.1337	6
268.3578	3
268.8061	1
269.2179	9
270.1624	6
271.1900	44
271.5464	5
272.2068	27
273.2095	55
274.2348	23
275.2110	16
276.1732	7
277.2041	33
278.1557	6
278.4984	2
279.1904	16
280.0115	8
280.5818	1
281.2127	18
282.1736	4
283.1858	18
284.2173	12
285.2141	60
286.2160	272
287.2069	43
288.2635	7
288.5781	2
289.1832	19
290.1924	12
291.2195	20
291.5183	4
292.1686	5
292.5234	1
293.2250	21
294.1937	7
295.2219	14
296.2023	6
297.2014	26
297.6488	2
298.2194	46
299.2249	85
300.2274	19
301.2366	16
301.7949	1
302.2029	9
302.5484	3
303.2029	22
304.1808	6
305.1957	18
306.1676	9
307.1573	10
308.1682	8
309.1599	25
310.1391	35
311.1987	53
312.2088	41
313.2400	31
314.2233	6
315.1570	25
315.7347	1
316.1808	5
317.2048	10
317.6672	0
318.1906	8
319.2006	7
319.6695	1
320.1931	5
320.6557	1
321.2598	17
322.2094	3
323.2122	20
324.1878	17
324.6348	1
325.2039	22
326.2186	6
326.5145	3
327.1852	9
328.0957	4
328.4609	2
329.2171	11
330.0636	2
330.3227	2
331.2064	6
332.1289	4
332.3881	1
332.7520	1
333.1916	8
334.2062	1
334.7313	2
335.2242	14
336.2312	5
336.7533	0
337.2415	10
337.7637	2
338.2892	5
339.2274	6
339.5934	2
340.1964	5
341.2332	6
341.7312	2
342.2450	4
342.9602	2
343.2163	4
343.6095	1
344.1234	3
344.4860	0
345.2144	4
346.1363	2
347.1502	9
348.2998	4
349.2819	13
349.8334	1
350.3383	11
351.2271	10
351.7111	2
352.3049	16
353.3021	34
353.8605	3
354.1429	4
354.4416	2
355.2164	4
356.2755	6
356.7469	1
357.2491	3
357.6109	1
358.2536	2
358.6477	1
359.2502	8
359.9271	1
360.4376	2
360.8270	1
361.3214	6
362.2103	4
363.2770	16
363.5922	4
364.2986	40
365.3430	43
366.3165	12
367.3564	10
368.2589	1
369.2878	10
370.2339	3
371.3073	5
372.2614	3
373.2269	2
374.2426	2
374.6964	2
375.3150	10
375.7834	0
376.4441	5
377.3020	10
377.7140	1
378.2714	6
379.3202	32
379.8358	3
380.3659	7
381.2646	4
381.5459	1
382.3817	5
383.2985	4
384.0893	1
384.3705	2
385.2818	3
386.0494	2
386.3533	4
386.6377	1
387.1534	5
387.4152	3
388.2493	5
389.3616	6
389.7465	2
390.3027	24
391.2973	17
392.2548	3
392.7303	1
393.2495	8
393.5909	2
394.3221	7
395.3463	20
396.3253	61
397.2203	1
397.6832	2
398.3048	1
399.2858	3
400.2119	1
400.6247	1
401.0959	1
401.4295	4
401.7518	1
402.3558	2
403.3017	6
404.2622	6
405.2650	8
405.7186	0
406.4623	5
406.7604	1
407.3827	4
408.4215	3
409.3145	6
410.3212	0
410.8837	0
411.4592	1
412.2391	1
412.4288	1
412.7774	0
413.1260	2
413.7471	2
415.2603	7
415.9870	1
416.2870	6
416.4882	2
416.7834	2
417.3429	7
418.3784	23
418.7300	2
419.3831	55
420.3669	11
420.7640	1
421.4156	0
421.8452	0
422.3315	3
422.9330	1
423.4616	0
424.2545	3
424.9955	0
425.9312	0
426.3805	1
426.8200	1
427.3212	3
427.7089	1
428.1729	1
428.7958	2
429.4512	3
430.3014	3
431.3042	8
432.3363	6
432.7518	1
433.3523	9
434.3732	7
435.4157	6
436.6836	2
436.9543	2
437.3192	2
438.1915	2
439.2683	2
440.0403	2
440.6048	0
441.3104	4
441.4790	2
441.7954	2
442.2123	2
442.5075	0
443.2181	6
443.6594	2
444.3506	3
444.7417	1
445.3615	8
445.7656	3
446.3482	14
447.3528	29
448.3397	50
449.3623	18
449.9597	1
450.4533	2
451.3657	2
452.0461	0
453.5611	3
453.9590	2
454.3391	2
454.9367	1
455.3184	1
455.9194	2
456.4944	2
457.2287	5
457.4902	1
458.3789	5
459.2205	3
459.6836	1
460.3807	13
461.3817	36
462.2366	18
463.2816	28
463.7969	1
464.3723	3
465.4924	2
466.2386	1
467.3117	1
467.6499	0
468.2613	1
469.4988	6
469.8728	2
470.4323	15
471.4483	6
471.9609	2
472.3438	3
473.2897	10
473.8462	1
474.4352	11
475.4721	6
476.2543	2
476.7996	1
477.4098	2
478.3285	2
479.2148	4
479.5897	4
480.2634	4
481.0768	2
481.4161	2
482.4081	3
483.3369	4
484.0822	1
484.6067	2
485.2742	5
485.8849	2
486.5361	2
486.7846	1
487.3190	5
488.3635	7
488.7209	3
489.3853	66
490.4218	20
490.8832	2
492.4658	5
492.9614	0
493.3416	1
494.0599	0
494.5686	2
495.2837	3
496.4230	5
497.3739	18
498.0583	3
498.7183	1
499.0743	2
499.3699	0
499.7044	2
500.2662	2
501.4937	5
501.8640	2
502.3495	6
502.9650	2
503.5756	4
504.4039	4
504.9561	2
505.6740	3
505.8641	1
506.2588	2
506.4505	1
506.8387	1
507.4836	2
507.9093	1
508.3820	6
509.2122	9
509.4413	5
510.4129	4
511.1896	4
511.5130	4
511.9745	1
513.2014	2
513.5085	2
514.3342	5
514.6462	1
515.3273	4
515.6718	4
516.3464	11
517.2876	19
518.6548	12
520.0416	15
521.3993	19
522.3961	39
523.6808	12
524.3459	10
524.8403	6
525.7658	2
526.1074	2
526.5626	1
527.0967	3
527.4459	2
528.3145	4
528.5776	2
529.3830	5
530.4256	29
531.4260	12
532.4930	24
533.4741	4
534.2034	3
536.4111	302
537.3680	8
538.3265	4
538.9992	2
539.5630	1
540.3284	1
540.6307	2
541.5065	4
542.3825	12
543.4177	6
544.4108	14
545.3958	2
545.8331	3
546.3174	2
546.9401	0
547.4749	2
548.0845	1
548.5202	2
549.0128	1
549.3851	2
549.8436	2
550.5428	2
550.9866	2
551.3590	1
551.8631	2
552.4160	2
553.1249	0
553.4111	1
553.8600	1
554.2601	0
554.6829	0
555.4928	15
555.9888	3
556.3581	1
557.4641	10
558.3766	13
559.4714	24
560.0847	4
560.4230	2
560.9323	1
561.6221	5
562.4958	4
563.1694	2
563.7681	0
564.1749	2
564.6924	1
565.3042	2
565.6281	1
566.6939	1
567.0650	2
567.4849	1
567.7567	2
569.0131	1
569.4216	2
569.7700	2
570.4210	1
570.7091	1
571.4432	8
572.4429	19
573.5134	66
574.4092	9
575.3982	5
575.9955	4
576.5308	2
577.1346	1
577.4056	1
577.8267	2
578.8027	1
579.4899	6
580.4057	10
580.7893	5
581.3950	4
582.1410	2
582.3695	1
582.9327	4
583.5466	12
584.1981	3
584.4495	1
584.7662	0
585.6691	7
586.0414	3
586.3680	9
587.4572	10
588.4549	14
589.6503	10
590.3346	9
591.2443	12
592.5003	12
593.1210	7
593.7139	13
594.7413	12
595.3654	6
596.4979	15
597.6819	49
598.7191	786
599.6432	41
600.6191	26
601.6694	152
604.5068	16
605.8029	6
606.6772	15
608.0349	17
616.5071	999
619.0005	105
620.0257	50
621.2200	20
622.3184	11
623.8005	7
