Mass spectrum: Echinenone; FAB-EBEB; MS2; m/z: 550.42; [M]*+
Name: Echinenone
Class: Natural Product; Carotenoid
Formula: C40H54O
Exact mass: 550.41747
SMILES: C(C(C)=1)(=O)CCC(C(C=CC(C)=CC=CC(=CC=CC=C(C)C=CC=C(C=CC(=C(C)2)C(C)(C)CCC2)C)C)1)(C)C
InChI: InChI=1S/C40H54O/c1-30(18-13-20-32(3)23-25-36-34(5)22-15-28-39(36,7)8)16-11-12-17-31(2)19-14-21-33(4)24-26-37-35(6)38(41)27-29-40(37,9)10/h11-14,16-21,23-26H,15,22,27-29H2,1-10H3/b12-11+,18-13+,19-14+,25-23+,26-24+,30-16+,31-17+,32-20+,33-21+
Instrument: JMS-HX/HX 110A, JEOL
Instrument type: FAB-EBEB
Ms type: MS2
Ion mode: POSITIVE
Collision energy: 3 kV
Ionization: FAB
Base peak: 550.3798
Precursor m/z: 550.42
Precursor type: [M]+*
m/z	relative intensity
0.0244	0
0.3247	0
0.3424	0
0.4868	0
0.7923	0
1.3007	0
2.5582	0
4.6132	0
5.4785	0
6.2421	0
8.6508	0
11.9478	1
12.9583	0
13.9677	0
14.0129	0
14.9738	2
15.2670	0
15.9141	0
17.0074	0
18.3610	0
18.7365	0
22.9244	5
23.2557	0
24.9255	1
25.1500	0
25.9374	8
26.0725	0
26.7277	0
26.9491	55
27.9604	6
28.9606	39
29.6947	0
30.9375	2
31.2239	0
33.4026	0
35.0369	0
35.8529	0
35.9328	1
36.9268	10
37.3386	0
37.7789	0
37.9283	17
38.9325	115
39.1947	1
39.4320	0
39.6275	0
39.7365	1
39.9400	18
40.2593	1
40.9482	264
41.2860	0
41.9345	5
42.1490	0
42.9476	114
43.7241	0
43.9251	1
43.9912	1
44.9045	2
45.0498	0
45.8919	0
47.8973	1
48.6942	1
48.9230	1
49.0388	0
49.5415	0
49.6796	1
49.9228	39
50.6118	1
50.9254	75
51.1317	1
51.9341	27
52.5229	0
52.9389	134
53.9379	6
54.7162	0
54.9482	351
55.1928	0
55.9575	19
56.9636	33
57.9802	2
58.0882	1
58.9464	3
59.9153	0
60.4042	1
60.9056	4
61.9164	22
62.9177	52
63.3558	0
63.5494	0
63.9253	11
64.0613	1
64.1693	1
64.3034	1
64.5978	0
64.9358	109
65.1152	0
65.2641	0
65.3646	0
65.4603	1
65.9279	12
66.1486	1
66.3282	1
66.6497	1
66.9431	159
67.2604	0
67.9540	6
68.9534	428
69.2043	1
69.9401	7
70.9542	8
71.8537	0
71.9811	1
72.8375	2
72.9160	2
73.5483	0
73.8977	19
74.1753	1
74.9030	21
75.4120	1
75.8803	12
76.3243	0
76.4419	1
76.6295	2
76.9178	263
77.1702	4
77.3905	1
77.5318	2
77.9306	47
78.1458	2
78.2418	1
78.3980	1
78.6124	1
78.9291	245
79.2333	0
79.9344	24
80.4415	1
80.6599	2
80.9391	241
81.1831	1
81.6739	1
81.9708	8
82.3199	1
82.9477	61
83.3333	0
83.8450	1
83.9753	2
84.3920	0
84.4884	0
84.7977	2
84.9323	6
85.0346	1
85.1920	0
85.8814	8
85.9645	4
86.3240	1
86.9120	11
87.4575	1
87.5809	1
87.9149	6
88.0540	1
88.1873	1
88.3139	1
88.4811	2
88.5952	2
88.9122	26
89.0900	2
89.2943	4
89.4562	0
89.5773	1
89.9422	11
90.0756	2
90.2326	1
90.3160	1
90.4645	2
90.9286	488
91.2190	1
91.2790	0
91.3903	1
91.4693	1
91.6568	1
91.9281	56
92.1441	2
92.2273	1
92.3255	1
92.5279	0
92.9455	301
93.3020	0
93.6136	0
93.9474	16
94.3940	0
94.5008	0
94.6389	1
94.9578	213
95.2542	0
95.4298	1
95.5129	0
95.6205	1
95.7020	1
95.9371	5
96.1555	0
96.2609	0
96.9511	34
97.8730	7
98.6497	1
98.9237	5
99.3578	1
99.5929	0
99.9031	3
100.0105	1
100.1449	0
100.3128	0
100.5007	1
100.6529	2
100.7716	1
100.9409	13
101.1467	2
101.2513	0
101.5002	2
101.9223	30
102.2186	1
102.4113	1
102.6578	2
102.9380	87
103.3198	3
103.6588	3
103.9496	41
104.1346	2
104.3120	2
104.4913	3
104.9500	546
105.1928	1
105.3006	1
105.4055	1
105.5483	1
105.9595	59
106.2294	1
106.3200	1
106.9651	213
107.1844	1
107.3173	1
107.4466	2
107.6222	1
107.9605	18
108.3067	0
108.9677	103
109.4073	0
109.6573	0
109.9622	3
110.5892	1
110.6888	1
110.9512	26
111.9005	1
112.3763	2
112.4696	2
112.8973	11
113.2013	2
113.3606	1
113.5840	2
113.7769	5
113.9207	10
114.0790	3
114.1857	3
114.2912	1
114.4160	2
114.9128	254
115.2676	1
115.4129	3
115.5163	2
115.9183	99
116.1654	2
116.3440	2
116.9259	244
117.1577	2
117.3137	1
117.3847	1
117.5179	1
117.9295	39
118.2394	1
118.4494	1
118.9340	471
119.2963	2
119.4896	1
119.5905	1
119.9338	56
120.2222	0
120.3238	1
120.4672	2
120.9446	172
121.2619	2
121.4630	2
121.6278	0
121.9508	15
122.1254	0
122.3989	2
122.5724	1
122.6428	1
122.9590	67
123.2771	0
123.4216	1
123.5134	0
123.7637	2
123.9575	3
124.3131	1
124.8953	6
125.2172	1
125.4054	2
125.8926	15
126.1028	0
126.2625	2
126.3442	1
126.9004	89
127.1609	4
127.8984	262
128.1763	3
128.3474	4
128.9062	328
129.3747	2
129.5186	0
129.9140	112
130.2012	1
130.3960	1
130.9193	286
131.3767	1
131.6049	1
131.9301	61
132.1443	1
132.3794	2
132.9218	289
133.2401	1
133.3347	0
133.4503	2
133.9158	26
134.1294	2
134.5456	1
134.9502	64
135.2023	1
135.3329	1
135.9390	7
136.2487	0
136.3412	1
136.5245	2
136.9233	57
137.1764	2
137.2808	1
137.4896	1
137.6725	1
137.9129	9
138.1849	0
138.4025	1
138.5479	0
138.9184	56
139.2185	1
139.4587	2
139.8915	13
140.2254	5
140.4732	4
140.9022	219
141.3220	2
141.4566	3
141.5999	2
141.9157	193
142.1268	4
142.3714	2
142.9154	303
143.3112	2
143.4144	1
143.9248	97
144.1424	3
144.3801	2
144.5337	3
144.9320	294
145.1823	3
145.3635	1
145.5235	1
145.9328	37
146.3035	1
146.4507	1
146.9401	146
147.2757	2
147.4260	1
147.5839	2
147.9315	20
148.4709	1
148.6539	1
148.9494	22
149.1756	2
149.2987	0
149.5256	1
149.6481	1
149.9395	7
150.1834	1
150.8861	26
151.2097	3
151.4395	3
151.5929	4
151.9155	105
152.2381	7
152.4073	3
152.9157	128
153.3653	3
153.9344	72
154.1641	2
154.3197	1
154.9388	217
155.2020	2
155.3830	2
155.9473	136
156.2943	3
156.9541	256
157.2901	2
157.4449	2
157.5765	1
157.9555	54
158.4032	3
158.5248	1
158.9721	169
159.3055	3
159.5583	1
159.9681	26
160.3251	1
160.6595	2
160.9858	77
161.2269	2
161.3607	1
161.5388	1
161.7459	2
162.0181	15
162.3214	2
162.5052	2
162.9609	29
163.2972	2
163.4566	3
163.5818	3
163.9265	15
164.1726	3
164.9390	189
165.3094	3
165.4380	3
165.9472	72
166.4139	3
166.9486	147
167.2672	1
167.4392	2
167.9641	67
168.2678	1
168.4716	3
168.9716	192
169.2476	3
169.4224	2
169.5478	1
169.9779	68
170.2211	3
170.3599	2
170.5139	3
170.9779	147
171.2048	3
171.4109	2
171.9900	39
172.3116	1
172.5414	4
172.9863	98
173.3234	2
173.6174	2
173.9750	14
174.3441	2
174.5309	1
174.9924	63
175.2263	2
175.4075	5
175.4946	2
175.9245	21
176.2846	1
176.4513	1
176.9686	41
177.3391	4
177.9421	106
178.3453	1
178.4275	1
178.9385	158
179.2872	1
179.4497	3
179.5479	1
179.9394	77
180.2378	1
180.3641	2
180.9530	164
181.2408	2
181.3550	1
181.9563	59
182.3586	3
182.5496	2
182.9648	144
183.3399	1
183.4472	1
183.5661	1
183.9649	39
184.3965	2
184.9708	94
185.3297	2
185.4723	2
185.5766	2
185.9734	20
186.1647	2
186.5872	2
186.9778	58
187.2814	2
187.5210	2
187.6414	1
187.9534	11
188.3373	2
188.9353	67
189.4983	4
189.9280	31
190.2462	3
190.3841	1
190.9328	79
191.3231	1
191.5221	1
191.9491	59
192.3184	2
192.4622	0
192.9492	127
193.3155	3
193.5038	3
193.9595	57
194.2694	2
194.9537	152
195.4046	3
195.9696	51
196.4259	4
196.9783	119
197.2867	3
197.4072	3
197.9804	18
198.1834	3
198.5307	1
198.9825	50
199.2996	2
199.3937	2
199.9592	20
200.2249	1
200.2939	0
200.4713	2
200.6306	0
201.0035	47
201.9458	47
202.1640	4
202.2744	1
202.4751	1
202.9633	73
203.4265	3
203.5318	2
203.9485	24
204.1908	3
204.3640	2
204.9496	68
205.2592	2
205.4403	1
205.9648	52
206.2856	2
206.4466	1
206.9694	109
207.2127	2
207.4651	2
207.9719	47
208.2976	1
208.4064	1
208.9937	110
209.3105	3
209.5178	2
209.9953	33
210.3050	2
210.3886	1
210.5455	2
210.9966	60
211.4362	2
211.6307	1
212.0036	12
212.2448	2
212.4044	2
212.5822	1
213.0149	40
213.3900	1
213.5509	1
213.9955	10
214.1831	1
214.9642	65
215.2915	1
215.5149	2
215.9879	32
216.2893	2
216.5960	4
216.9925	44
217.2447	2
217.5860	1
217.9936	23
218.3630	2
218.6173	2
218.9984	60
219.3204	1
219.4323	2
219.5853	3
220.0121	32
220.1729	5
220.3121	1
220.5133	1
221.0171	68
221.3381	1
221.4794	1
221.5855	1
221.7601	1
222.0368	23
222.3462	0
222.4596	1
222.5879	2
223.0316	56
223.4643	1
223.9811	11
224.3631	2
224.5385	1
224.6754	2
225.0477	36
225.3633	1
225.5577	1
226.0045	13
226.4232	4
226.7108	3
227.0400	27
227.3374	3
227.6185	1
228.0117	19
228.4107	1
228.5963	2
229.0052	46
229.3210	1
229.4832	1
229.6486	1
229.9984	21
230.1828	4
230.6564	4
231.0220	45
231.2397	4
231.4091	4
231.6926	3
232.0271	18
232.2155	4
232.3028	2
232.5701	2
233.0318	54
233.4114	2
233.5008	1
233.9978	17
234.3201	2
234.4297	1
234.6346	2
235.0366	46
235.2950	1
235.4406	1
235.6762	1
236.0392	9
236.3624	2
237.0356	42
237.4523	1
237.7129	1
237.8318	1
238.0539	5
238.2656	3
238.4159	1
239.0034	38
239.3707	1
239.5739	2
239.9760	9
240.1741	4
240.3074	1
240.5193	1
241.0261	31
241.5107	1
241.6363	0
241.9686	11
242.1197	5
242.2492	1
242.5443	2
243.0148	35
243.2537	1
243.4284	1
243.9913	14
244.3756	1
244.4522	0
244.6886	3
245.0232	23
245.2413	2
245.6925	1
246.0357	19
246.2657	1
246.3698	1
246.4838	3
246.6751	2
247.0296	33
247.5860	2
248.0382	12
248.2873	2
248.3863	1
248.6767	2
249.0465	34
249.4753	2
250.0184	11
250.3102	1
250.6632	2
251.0358	19
251.4846	1
251.5732	1
251.7319	3
252.0435	14
252.5015	1
253.0441	40
253.4524	1
254.0011	10
254.6130	1
254.7108	0
255.0522	25
255.1599	12
255.3261	1
255.4200	1
256.0393	10
256.3500	1
256.4899	1
256.7113	1
257.0477	23
257.4906	1
257.6891	0
258.0591	12
258.3824	1
259.0187	27
259.3507	1
259.4369	1
259.5618	1
259.8202	4
260.0596	14
260.5285	2
261.0277	31
261.3467	2
261.4816	1
261.5770	1
261.6961	1
262.0573	8
262.2369	2
262.4462	1
263.0530	22
263.5558	3
264.0970	7
264.3004	1
264.4018	1
265.0636	23
265.5279	1
265.6846	1
265.8051	1
266.0060	6
266.1430	3
266.2491	2
267.0713	28
267.5174	2
268.0367	10
268.4862	1
269.0782	22
269.1888	11
269.7538	1
270.0709	9
270.2426	2
270.4117	2
270.4742	1
270.6111	1
271.0374	18
271.5080	2
271.6587	2
272.0437	8
272.3820	1
272.7171	1
273.0469	16
273.5243	1
273.7712	2
274.0945	6
274.3264	1
274.5602	1
274.7327	2
275.0555	18
275.5212	1
276.0120	7
276.5872	2
277.0663	12
277.4400	0
277.5475	1
277.6523	1
278.0003	10
278.1592	4
278.4169	1
278.5303	1
279.0565	21
279.3994	1
279.5701	1
279.7686	1
280.0984	8
280.3991	1
280.6445	2
281.0832	14
281.5423	1
281.6413	1
281.7700	1
282.0768	10
282.4278	1
282.6502	2
283.0568	24
283.2112	8
283.3980	1
283.8363	4
284.0468	8
284.1512	3
284.3624	2
284.5004	1
284.6450	1
284.9797	9
285.1342	7
285.6568	1
285.9920	8
286.1233	2
286.2632	1
286.3787	1
286.4790	1
286.7390	2
287.0909	13
287.8315	3
288.1048	6
288.3960	0
289.0424	9
289.2207	4
289.7240	1
290.0364	6
290.1995	3
290.5879	1
290.7682	1
291.0801	16
291.3457	2
291.4554	2
291.5465	3
291.7705	2
292.0890	4
292.5853	2
292.7327	1
292.8391	1
293.0638	10
293.2205	5
293.4485	2
293.5318	1
293.6494	1
293.7519	1
294.0414	6
294.2206	3
294.6636	0
295.0107	10
295.1106	6
295.9795	6
296.1098	3
296.4524	0
296.9842	7
297.1787	4
297.5042	0
297.6617	1
297.7404	0
297.9031	2
298.0685	3
298.6925	1
299.0247	8
299.1617	3
299.4873	1
299.6826	1
299.8044	1
299.9732	2
300.1691	4
301.0476	11
301.2118	2
301.5819	0
301.7110	0
302.0871	5
302.2580	1
302.4699	0
303.0660	10
303.5025	2
303.8045	1
304.0794	5
304.3034	1
304.5856	2
304.6691	1
305.0726	7
305.4052	1
305.6809	1
305.9672	3
306.1799	1
306.2773	1
306.3615	1
306.6008	1
307.0184	6
307.4413	1
307.8563	1
307.9776	3
308.1838	5
309.0352	4
309.1956	1
309.8011	1
309.9451	2
310.0744	2
310.2336	1
310.4020	1
310.5042	1
310.9964	6
311.1205	3
311.5006	1
311.6107	1
312.0081	2
312.1886	4
312.6631	1
313.0274	6
313.2165	1
313.2981	1
313.4116	2
313.6100	1
313.7441	1
314.0441	3
314.2466	1
314.5533	0
315.0777	7
315.2297	7
315.7941	1
316.0065	3
316.2018	4
316.3857	0
316.5231	1
316.6440	1
317.1135	14
317.5518	1
317.7312	1
318.0846	3
318.3164	1
318.4639	0
318.6738	0
319.0571	10
319.2086	4
319.4763	1
319.7069	1
320.0829	5
320.3202	2
320.6026	1
320.7594	2
321.0425	9
321.2207	2
321.3795	2
321.4772	1
321.8016	2
322.0063	3
322.1964	1
322.3293	1
322.9144	3
323.0586	4
323.7188	1
323.8771	2
324.0653	2
324.2249	0
324.3798	1
324.5826	1
324.8240	3
324.9770	2
325.1320	3
325.2743	1
325.8735	1
326.0132	3
326.1516	2
326.8933	1
327.1455	5
327.3963	1
327.7254	1
327.9950	4
328.1557	3
328.2440	1
328.5216	2
329.1047	8
329.3325	2
329.4779	1
329.7151	0
329.8340	0
330.1036	3
330.2783	1
331.1306	9
331.4701	1
332.0954	9
332.2356	5
332.4529	1
332.5386	1
332.7087	1
333.1094	14
333.4663	1
333.6491	0
333.9010	1
334.1064	4
334.2792	1
334.7299	0
335.0981	8
335.2670	2
335.7118	1
335.8627	2
336.1180	5
336.2862	3
336.4531	1
336.5721	1
336.8893	2
337.0935	4
337.2438	2
337.5357	1
337.8383	1
338.0930	3
338.7003	1
338.7988	0
338.9737	1
339.0648	1
339.1793	3
339.2557	1
339.3529	1
339.5598	1
339.7274	1
340.1233	3
340.5797	0
340.7853	1
340.9603	2
341.1499	3
341.2670	2
341.3948	1
341.6537	1
342.0410	5
342.1761	3
342.3797	1
342.5880	1
342.8290	2
343.1139	6
343.2390	2
343.3615	1
344.1244	3
344.2781	2
344.9319	2
345.1942	4
345.4206	1
345.5205	1
346.1178	8
346.3502	0
346.6692	1
347.1308	19
347.4398	0
347.5770	1
347.7522	1
347.9746	3
348.2051	5
348.8926	1
349.1784	6
350.0945	1
350.2338	2
350.3604	1
351.0487	4
351.1927	3
352.1157	3
352.2337	2
352.6929	0
352.9776	3
353.1789	2
353.2715	1
353.4842	1
353.6595	1
353.7935	1
353.9409	2
354.1175	1
354.2215	1
354.3967	1
354.6185	1
354.9249	2
355.1088	3
355.2507	2
355.6811	1
355.8283	1
356.0682	4
356.2381	2
356.3333	1
356.8091	0
357.1196	6
357.5854	2
358.1639	6
358.3698	1
358.6531	1
358.8224	2
358.9697	2
359.1964	8
359.3323	4
359.5496	3
359.8356	2
360.0849	5
360.2429	4
360.3136	2
360.6156	1
360.7863	1
361.1463	6
361.4603	1
361.6037	1
362.1418	2
362.3105	0
362.7453	1
363.0194	1
363.1601	1
363.8584	0
363.9865	1
364.2506	1
364.4047	1
364.5067	1
365.0397	2
365.1812	1
366.1732	2
366.4180	1
366.5588	1
366.8217	1
367.1747	1
367.5197	1
368.0409	1
368.2635	2
368.4767	1
368.6539	1
368.7465	1
368.8477	1
369.2521	3
369.7924	1
369.9750	1
370.1949	2
370.7486	1
371.1291	6
371.2543	4
371.5362	2
372.0914	2
372.2573	3
373.1251	5
373.2917	2
373.6897	0
373.9370	2
374.1676	3
374.3463	1
374.5710	1
374.7416	0
375.1096	1
375.2590	1
375.7797	1
376.0804	2
376.2351	2
377.0553	3
377.2347	2
377.6382	1
377.8049	1
377.9783	1
378.1163	1
378.2477	2
378.3418	1
378.4651	1
378.8900	1
379.0835	1
379.2296	1
380.0147	1
380.1988	2
381.0454	3
381.2389	2
382.0096	2
382.3472	1
382.6001	0
382.7202	1
382.8297	1
383.1760	5
383.4383	3
383.7179	1
383.9535	1
384.1017	0
384.2318	1
384.3226	1
384.5175	1
384.7204	1
384.9573	2
385.1703	5
385.4019	2
385.7610	1
386.1335	2
386.2730	1
386.8292	0
387.1863	5
387.3306	1
387.4467	0
387.5696	0
387.6891	1
387.9762	1
388.1245	2
388.2146	1
388.4697	1
388.8830	0
389.0981	3
389.7752	1
389.9569	0
390.0598	0
390.1753	1
390.2654	0
390.3877	1
391.1097	2
391.8592	1
392.1505	3
392.3442	1
392.7330	0
392.9868	1
393.2100	2
393.4004	1
393.5848	1
394.0418	1
394.8484	0
395.2058	3
395.2847	1
395.6255	0
395.7832	0
396.0612	3
396.2544	2
396.3760	0
397.1607	6
397.3846	1
397.6293	1
397.8311	1
398.2509	3
398.4535	1
399.1982	6
399.4262	1
399.5977	0
400.1515	4
400.3210	1
400.5231	1
401.1664	5
401.3452	1
402.0579	3
402.6339	1
403.0163	2
403.0910	1
403.2205	2
404.1182	3
404.3385	2
404.4153	1
404.9773	1
405.1489	4
405.2844	2
405.4106	1
405.7137	1
405.8552	0
406.1556	4
406.8213	1
407.0009	1
407.1905	1
407.3601	1
407.7053	1
407.8789	1
408.0098	0
408.1754	2
408.2869	1
409.0362	1
409.1945	1
409.6332	1
409.7808	1
410.4434	4
410.9149	1
411.1367	2
411.3859	3
411.4627	1
411.7906	2
411.9577	1
412.2342	11
412.3905	5
412.8368	1
413.1488	6
413.3920	2
413.4702	1
413.7013	1
413.9091	2
414.2973	6
414.4156	1
414.7316	1
415.0778	2
415.2996	1
415.3845	1
415.9911	1
416.1280	2
416.6426	1
416.8976	1
417.1292	2
417.2207	1
417.5939	1
417.6993	1
417.9991	1
418.1259	1
418.3022	1
418.4190	0
418.6601	1
419.0713	1
419.2296	1
419.3297	1
419.6923	1
419.9814	2
420.1904	1
420.2972	2
420.7533	1
421.0886	1
421.1527	1
421.2929	2
421.4352	1
421.6569	2
421.9327	2
422.0990	3
422.1578	1
422.3768	2
422.6066	0
422.8023	1
422.9345	2
423.2438	1
423.3800	1
423.6726	1
424.0099	1
424.3098	1
424.4782	2
424.5944	1
424.7113	1
425.1429	5
425.2738	2
425.4916	1
425.6185	1
425.8350	1
426.0822	4
426.2138	6
426.3468	3
426.4764	2
426.6334	1
426.8606	1
427.1205	5
427.3283	3
427.4840	3
427.5521	1
427.6811	3
427.8268	4
428.1622	5
428.4522	2
428.5578	3
428.6901	3
428.9414	3
429.3491	5
429.6451	2
429.8857	3
430.0408	1
430.2460	2
430.5113	0
430.8315	1
431.0948	1
431.2245	1
431.3729	1
431.6536	1
432.0320	2
432.3521	1
432.6423	1
432.7847	1
433.0233	1
433.2506	1
433.3522	0
433.7534	2
434.0776	1
434.3430	1
434.7890	1
434.9007	1
435.0251	1
435.1895	3
435.4109	1
435.5921	1
435.8455	1
436.0849	3
436.3136	2
436.4761	2
436.6185	2
436.9021	5
437.1415	4
437.3836	5
437.6411	2
437.8985	3
438.1420	5
438.3359	2
438.4523	4
438.5667	2
438.7767	1
438.9078	2
439.0269	4
439.1626	2
439.3125	3
439.5599	2
439.6723	1
440.0315	2
440.2623	2
440.3727	1
440.5526	2
440.9727	2
441.2657	3
441.6451	2
442.2358	3
442.4131	1
442.6198	0
443.2066	6
443.7734	1
444.1735	5
444.3883	5
444.6774	1
444.8326	1
445.0716	1
445.4269	1
445.9228	2
446.9421	1
447.1703	1
447.4187	1
448.1911	2
448.8016	1
448.9609	1
449.2829	2
450.0019	2
450.2500	2
450.3723	2
450.4866	1
450.7780	0
451.1543	3
451.3983	1
451.5540	1
452.2606	6
452.7405	1
452.9304	1
453.0554	1
453.2191	4
453.5741	1
453.7720	1
453.9084	1
454.0929	0
454.2560	0
454.3931	1
454.4920	1
454.7107	1
454.9774	1
455.0630	1
455.1720	1
455.4688	2
455.6133	1
455.8025	1
456.0084	1
456.1174	4
456.3327	4
456.5741	1
456.8329	2
457.0135	4
457.0863	2
457.2274	3
457.4468	2
457.6394	2
457.8045	4
458.3014	169
458.7796	3
459.0805	2
459.4029	2
459.5748	1
459.6825	1
459.9380	2
460.0624	1
460.3313	1
460.6563	1
460.9085	1
461.0851	1
461.2423	1
461.3179	0
461.4731	1
461.5573	0
461.7774	1
462.1454	1
462.2731	2
462.8832	1
463.1040	3
463.2572	1
463.4974	3
463.5817	1
463.8105	2
463.9396	2
464.1838	2
464.6127	1
464.7625	1
465.2336	2
465.6585	1
465.8130	2
465.9736	1
466.0914	3
466.2232	2
466.3517	1
466.9004	1
467.2424	1
467.4539	2
467.6600	1
468.2957	1
468.8104	1
469.0085	1
469.2635	3
470.2689	8
470.6953	1
471.0587	3
471.3164	6
471.5099	4
472.2677	1
472.4712	1
472.9586	1
473.3362	1
473.6923	1
473.8537	1
474.2105	2
474.3886	1
474.7067	1
475.1633	2
475.3716	1
475.5055	1
475.6160	1
475.7465	1
475.9615	0
476.2615	1
476.3733	0
476.7309	1
476.8494	1
477.2156	3
477.9543	0
478.2203	2
478.3888	4
478.4684	1
479.0246	2
479.1563	4
479.3174	3
479.5220	2
479.9278	1
480.1872	2
480.4647	2
480.7121	1
480.8492	2
481.1494	4
481.3453	3
482.2226	2
482.4145	1
482.5904	1
482.8505	1
483.0558	2
483.5393	1
483.8529	1
484.3518	1
484.6053	1
484.7010	1
485.4253	1
485.5437	0
485.9737	1
486.3463	1
486.6025	1
486.8540	1
487.0279	1
487.3436	1
488.2808	2
488.4621	1
488.6293	0
489.3103	2
489.9439	1
490.0443	1
490.1921	1
490.3808	1
490.6250	1
491.0592	0
491.1984	1
491.4586	2
491.6172	0
492.0548	1
492.1773	1
492.3693	2
492.8170	1
493.0820	2
493.2198	2
493.3068	1
493.4199	2
493.7317	1
493.8977	1
494.3260	7
494.5863	1
494.6867	1
494.9979	0
495.1398	1
495.3827	1
495.7361	1
495.8559	1
496.1644	1
496.4322	1
496.8404	0
497.3987	1
497.5533	1
497.9662	0
499.2729	1
499.7007	1
499.7984	0
500.3956	1
500.6038	1
501.0932	2
501.9368	1
502.1818	1
502.5233	1
502.9592	0
503.1551	1
503.3214	2
503.4845	1
503.5573	0
503.9650	1
504.0612	1
504.1815	1
504.4529	1
504.6353	1
504.7623	1
504.9494	1
505.1085	2
505.2141	2
505.3912	4
505.5676	4
505.8991	1
506.0635	1
506.1932	1
506.3603	4
506.5568	1
506.8917	1
507.0407	2
507.3469	3
507.8455	1
508.2820	5
508.6390	2
509.1758	1
509.3208	1
509.4579	1
509.8362	0
510.2728	3
510.4145	1
510.7107	1
510.8304	0
511.4883	0
511.6427	1
511.7938	1
512.0104	1
512.2859	2
512.3641	1
512.8241	2
513.0341	1
513.3289	1
513.5496	0
513.8405	1
514.3253	1
514.7338	1
514.9431	1
515.0328	1
515.6473	0
515.7490	1
516.2880	2
516.3910	2
516.6398	2
517.1782	1
517.3300	1
517.4971	1
517.6269	3
518.1921	4
518.4315	2
518.6750	1
518.9933	5
519.3311	11
519.4669	6
519.5974	1
519.7023	1
519.7800	1
519.9358	1
520.2101	9
520.4134	7
520.5131	4
521.3466	22
521.8369	1
522.0002	1
522.3521	5
522.5942	4
522.6725	2
522.8083	1
522.9515	1
523.0418	0
523.3896	2
523.8199	0
524.0480	2
524.3116	2
524.6167	1
524.8348	3
525.1212	3
525.3159	1
525.4478	1
525.6190	1
525.8024	2
525.9636	1
526.1429	4
526.4788	3
526.7211	3
526.9191	2
527.0757	2
527.3882	6
527.9417	4
528.0748	2
528.2441	1
528.4268	3
528.6269	4
528.9401	3
529.0914	5
529.2018	3
529.4628	5
529.8061	4
529.9861	5
530.1267	3
530.4205	7
530.6567	5
531.0764	8
531.4659	8
531.6406	5
532.3187	26
532.5309	20
532.6989	11
532.8321	9
533.3120	19
533.5396	13
534.3322	21
535.3685	170
535.8646	10
536.4718	8
537.0067	9
537.2230	7
537.4694	7
537.8389	5
538.1121	7
538.5540	6
539.0522	7
539.4017	6
539.5751	5
539.6755	2
539.8544	4
540.2883	6
540.6807	7
541.0128	7
541.5077	9
541.7970	4
542.0528	9
542.3702	8
542.7573	8
543.0104	9
543.6949	12
550.3798	999
551.2279	308
552.1936	137
552.8298	73
553.7603	38
554.7060	22
554.9780	19
555.3383	13
555.6277	14
555.9767	9
556.3223	9
556.8043	8
557.0582	4
557.4059	5
557.6860	5
557.8918	3
558.0797	5
558.2883	4
558.5377	4
558.7643	2
