Mass spectrum: 7,8,7',8'-Tetradehydroastaxanthin; FAB-EBEB; MS2; m/z: 592.36; [M]*+
Name: 7,8,7',8'-Tetradehydroastaxanthin
Class: Natural Product; Carotenoid
Formula: C40H48O4
Exact mass: 592.35526
SMILES: C(C=CC=C(C=CC=C(C#CC(C(C)(C)2)=C(C)C(=O)C(O)C2)C)C)=C(C=CC=C(C#CC(C(C)(C)1)=C(C)C(=O)C(O)C1)C)C
InChI: InChI=1S/C40H48O4/c1-27(17-13-19-29(3)21-23-33-31(5)37(43)35(41)25-39(33,7)8)15-11-12-16-28(2)18-14-20-30(4)22-24-34-32(6)38(44)36(42)26-40(34,9)10/h11-20,35-36,41-42H,25-26H2,1-10H3/b12-11+,17-13+,18-14+,27-15+,28-16+,29-19+,30-20+/t35-,36-/m0/s1
Instrument: JMS-HX/HX 110A, JEOL
Instrument type: FAB-EBEB
Ms type: MS2
Ion mode: POSITIVE
Collision energy: 3 kV
Ionization: FAB
Base peak: 592.2772
Precursor m/z: 592.36
Precursor type: [M]+*
m/z	relative intensity
0.0171	0
0.1641	0
0.2420	0
1.2972	0
3.6454	1
4.5149	0
4.6193	0
5.0211	0
6.4758	0
6.7000	0
6.9646	0
10.1939	0
11.4281	0
11.9620	0
12.8700	0
13.9653	0
14.0377	0
14.9692	7
18.9266	0
19.8744	0
22.4370	1
22.9193	8
23.6428	0
23.9378	1
24.9410	1
25.9425	11
26.4184	0
26.9444	53
27.1654	1
27.4926	0
27.9568	4
28.9467	43
29.9194	3
30.9207	10
31.2786	0
35.9155	1
36.1083	0
36.7132	1
36.9231	12
37.9209	24
38.1279	1
38.6562	0
38.9271	154
39.1053	0
39.1884	0
39.3626	0
39.9308	12
40.3311	0
40.6816	1
40.9402	201
41.9340	6
42.9263	217
43.1735	0
43.9241	4
44.0326	1
44.9250	9
45.1767	0
46.9339	0
47.1009	0
47.7876	1
47.8938	1
48.9227	6
49.0845	1
49.9121	63
50.2009	1
50.9195	135
51.6299	0
51.7391	0
51.9264	40
52.9285	136
53.9378	6
54.1629	0
54.9369	173
55.9401	3
56.9431	61
57.6099	1
57.9089	3
58.3756	0
58.9413	11
59.2697	0
59.9385	1
60.1161	1
60.9186	19
61.0703	1
61.5327	0
61.9170	60
62.1505	1
62.4239	0
62.9185	149
63.1995	1
63.2729	0
63.4629	1
63.6857	2
63.9198	31
64.1008	1
64.4204	1
64.5437	1
64.9242	132
65.1009	1
65.9270	20
66.7292	1
66.9367	105
67.9378	5
68.2862	1
68.4286	1
68.9352	131
69.4416	0
69.7828	1
69.9334	5
70.5241	0
70.9278	51
71.4263	1
71.8092	1
71.9274	1
72.0189	1
72.1835	0
72.5396	0
72.6737	1
72.8927	5
73.2787	1
73.5366	0
73.9013	61
74.2047	0
74.8994	62
75.0930	1
75.4274	1
75.9094	32
76.4521	2
76.6026	0
76.9092	304
77.1978	3
77.3687	1
77.4713	1
77.6536	2
77.9168	63
78.1549	0
78.3121	1
78.4351	2
78.6339	1
78.9222	162
79.4147	1
79.9140	10
80.5418	0
80.9313	186
81.3050	2
81.9258	9
82.3574	1
82.9118	78
83.1377	1
83.8890	2
84.0308	1
84.4234	1
84.5859	1
84.9224	81
85.5898	1
85.8953	28
86.1786	1
86.8984	45
87.2358	0
87.8969	17
88.0723	2
88.3766	2
88.5134	2
88.8972	76
89.2259	3
89.3672	2
89.5469	2
89.9024	27
90.0708	4
90.3155	4
90.4572	1
90.9168	392
91.3878	1
91.5311	1
91.9268	31
92.2205	1
92.4831	1
92.9264	139
93.5848	0
93.9196	10
94.3353	1
94.9426	50
95.9449	3
96.0921	0
96.4113	2
96.9202	14
97.0993	1
97.4576	1
97.8808	18
98.4249	0
98.9136	10
99.8887	5
100.2978	1
100.4937	1
100.9120	23
101.2019	2
101.4182	1
101.5126	1
101.9242	45
102.1427	0
102.4614	1
102.5717	1
102.9265	92
103.3330	1
103.6424	1
103.9351	29
104.3021	0
104.4549	1
104.9362	293
105.2629	2
105.4651	1
105.6018	0
105.9441	16
106.1131	1
106.2778	1
106.4374	1
106.9527	77
107.2199	1
107.2844	1
107.4267	2
107.9426	10
108.2640	2
108.4952	0
108.9478	40
109.3172	0
109.4894	1
109.9155	9
110.9139	20
111.3976	1
111.6891	1
111.8911	3
112.2210	1
112.3737	1
112.5791	2
112.6688	1
112.9151	21
113.2615	4
113.4278	2
113.8783	15
114.3267	4
114.9088	293
115.1707	2
115.3822	2
115.5011	0
115.9096	88
116.1591	2
116.3338	3
116.5111	4
116.9216	158
117.1567	2
117.4580	2
117.9223	23
118.1834	1
118.3510	2
118.4890	1
118.5828	1
118.9251	182
119.2915	2
119.4290	1
119.8921	11
120.1109	1
120.3910	2
120.5706	2
120.9140	48
121.1802	1
121.3987	0
121.9006	12
122.2239	0
122.9002	22
123.5835	1
123.8998	13
124.1387	1
124.2157	1
124.3601	0
124.6081	2
124.9016	27
125.2094	1
125.2917	1
125.4499	2
125.5913	1
125.8962	31
126.1999	1
126.3901	2
126.8882	137
127.1014	4
127.4485	6
127.8927	337
128.1913	3
128.3364	2
128.8919	247
129.2958	1
129.5142	2
129.9034	79
130.1559	1
130.2687	2
130.4495	1
130.9052	132
131.1488	1
131.3245	3
131.4519	1
131.9141	37
132.3908	3
132.5721	1
132.9065	60
133.1586	3
133.3197	1
133.4638	3
133.9015	16
134.0850	1
134.4437	2
134.9088	50
135.5127	0
135.8778	12
136.1130	1
136.2655	1
136.4587	2
136.8765	19
137.3892	1
137.8832	10
138.0551	3
138.1757	1
138.4084	2
138.8890	87
139.2070	1
139.2650	1
139.4610	1
139.8802	19
140.4046	6
140.8936	262
141.2711	1
141.4556	1
141.8988	163
142.3528	3
142.5289	2
142.9038	213
143.2874	3
143.3927	2
143.9085	59
144.1485	2
144.4709	2
144.9102	93
145.1572	1
145.4447	3
145.8832	16
146.1377	1
146.5704	0
146.9062	36
147.2735	1
147.4538	0
147.9171	9
148.1228	1
148.4079	1
148.8823	29
149.1169	2
149.2255	1
149.3735	1
149.5129	2
149.8957	25
150.1325	2
150.4061	4
150.8854	61
151.1312	6
151.3469	2
151.8935	189
152.1602	5
152.9011	191
153.4478	3
153.9037	79
154.1910	1
154.2955	1
154.9126	214
155.1767	2
155.3798	2
155.5367	1
155.9217	108
156.4363	3
156.9276	152
157.2802	2
157.4541	4
157.9332	36
158.3815	2
158.9275	68
159.2786	2
159.3869	1
159.5444	2
159.9280	16
160.2310	1
160.3872	1
160.4875	1
160.6849	2
160.9415	25
161.3634	0
161.6013	2
161.9175	13
162.2054	3
162.3848	2
162.4799	2
162.9050	54
163.1230	5
163.4747	3
163.9258	42
164.2351	7
164.3567	5
164.5013	7
164.9223	363
165.2225	3
165.5267	5
165.9326	106
166.2465	1
166.9409	181
167.2354	2
167.4582	3
167.9581	69
168.1987	4
168.3003	1
168.5179	1
168.9572	160
169.2529	2
169.4706	2
169.9636	52
170.1943	1
170.4711	4
170.9599	101
171.3147	2
171.4610	2
171.5850	1
171.9664	29
172.1765	3
172.3784	2
172.5668	2
172.6523	1
172.9669	41
173.2435	2
173.4111	1
173.9409	15
174.4533	2
174.9299	21
175.3598	3
175.9285	60
176.3899	2
176.9216	48
177.9338	220
178.9242	250
179.4111	2
179.9384	87
180.2451	1
180.3814	2
180.9411	167
181.4028	2
181.9431	52
182.3115	3
182.5122	2
182.9457	110
183.3588	2
183.4988	3
183.9579	26
184.3815	3
184.5359	1
184.9379	41
185.2742	2
185.4678	3
185.6196	2
185.9322	27
186.2455	4
186.4186	1
186.9155	43
187.1338	2
187.3187	1
187.5035	2
187.9178	23
188.2329	6
188.9126	163
189.2827	4
189.4473	2
189.9272	67
190.2832	4
190.4231	5
190.9129	155
191.2574	1
191.4489	2
191.9294	116
192.1841	4
192.3956	3
192.9300	183
193.4515	3
193.6061	2
193.9470	79
194.3306	3
194.4963	1
194.9406	138
195.2006	3
195.2976	2
195.5019	3
195.9595	42
196.3449	1
196.4667	2
196.9431	83
197.2792	1
197.4410	3
197.9363	37
198.1533	3
198.3786	4
198.9444	34
199.2119	2
199.3498	2
199.9215	32
200.3815	1
200.9225	30
201.1619	6
201.9129	152
202.2112	4
202.4440	3
202.9212	156
203.3026	1
203.4290	2
203.9197	50
204.2998	5
204.5086	5
204.9297	124
205.3170	3
205.4270	1
205.9347	93
206.3444	2
206.9479	142
207.3813	1
207.9408	53
208.3113	4
208.9577	109
209.3285	5
209.5198	3
209.6217	3
209.9530	31
210.3059	3
210.5465	4
210.9432	56
211.2366	3
211.4559	1
211.5925	2
211.9631	21
212.2927	2
212.9265	70
213.3188	2
213.5014	3
213.9542	19
214.1904	4
214.4023	4
214.9345	158
215.4064	3
215.9501	61
216.2275	3
216.3603	2
216.9403	105
217.2631	1
217.5386	2
217.9589	54
218.4565	4
218.9674	112
219.2167	3
219.4883	4
219.9806	71
220.2105	4
220.4634	4
220.9776	99
221.4250	2
221.9785	38
222.9902	66
223.3557	2
223.9940	37
224.4086	1
224.9976	51
225.2796	4
225.4570	2
225.9583	61
226.3299	3
226.9914	62
227.3386	6
227.9690	60
228.2744	3
228.4296	4
228.9840	117
229.5001	4
230.0036	51
230.2457	5
230.9915	114
231.4016	1
231.5080	2
231.6333	2
232.0026	51
232.2937	3
232.9898	86
233.4011	5
234.0102	44
234.4860	2
235.0185	79
235.4295	3
235.5707	1
236.0216	25
236.3467	1
236.5376	5
236.9879	63
237.4006	3
237.8176	10
238.0421	17
238.2996	3
238.9708	94
239.4055	3
239.9746	31
240.1994	6
240.4802	4
240.9943	60
241.9877	33
242.2393	3
242.4817	3
242.9857	88
243.2871	1
243.4960	4
243.9994	38
244.3872	2
245.0072	90
245.3790	6
246.0042	40
246.3066	3
246.5102	5
247.0092	79
247.2661	2
247.4318	3
247.5638	5
248.0090	28
248.4310	3
249.0034	49
249.3223	3
249.4734	2
249.9659	30
250.3419	2
250.9772	36
251.3463	3
251.4574	3
251.9727	53
252.5859	5
252.9882	62
253.4053	3
253.9857	24
254.1511	5
254.3221	2
254.4642	3
254.9745	57
255.2835	2
255.4996	3
255.9966	33
256.5191	2
257.0198	72
257.2860	2
257.4241	1
258.0172	31
258.3144	2
258.4580	1
258.9941	54
259.2561	3
259.4308	5
259.9945	32
260.2785	2
260.4843	4
261.0143	47
261.3182	4
261.7891	5
262.0556	24
262.3631	3
262.9907	59
263.2884	1
263.4337	3
263.5445	1
263.9854	18
264.3022	5
264.5971	5
265.0121	50
265.4094	2
265.5534	3
265.9890	24
266.3286	1
266.5220	2
267.0036	51
267.5495	3
267.9874	25
268.3639	3
268.9962	58
269.4032	2
269.6584	4
270.0061	33
270.3722	3
271.0155	56
271.3584	1
271.6087	1
272.0110	27
272.4297	1
272.5507	1
273.0253	47
273.3486	2
273.9634	21
274.3625	6
275.0016	43
275.3668	3
275.9784	39
276.3261	1
276.4801	3
277.0015	31
277.3082	1
277.4693	2
277.9879	23
278.4834	2
279.0093	43
279.4264	2
279.6357	5
279.9927	19
280.5089	4
281.0160	56
281.4482	3
281.5423	2
281.6710	4
282.0332	20
282.2809	3
282.5483	3
283.0210	43
283.2722	3
283.5008	1
283.7259	5
284.0415	22
284.3034	2
285.0142	43
285.3626	1
285.5212	1
285.9879	20
286.4404	3
287.0099	42
287.4867	3
288.0124	20
288.5289	4
289.0016	49
289.4949	1
290.0266	25
290.1563	11
290.9823	38
291.5595	4
291.7006	2
292.0297	18
292.3950	2
292.9791	35
293.3633	1
293.9701	13
294.3899	3
294.6104	3
295.0401	45
295.2869	3
295.4926	3
296.0622	24
296.2317	4
296.4133	1
296.6524	4
297.0433	33
297.5010	2
297.6188	3
297.7529	3
298.0424	17
298.3093	2
298.6116	4
299.0325	34
299.3974	3
299.5798	1
300.0222	22
300.2444	5
300.4212	2
301.0092	29
301.4658	2
301.6050	1
301.9921	23
302.3125	3
302.9817	32
303.3675	2
303.9537	16
304.2714	1
305.0048	31
305.6403	4
306.0022	10
306.3178	3
306.5389	1
306.6861	2
307.0395	36
307.4427	1
307.6042	2
308.0081	18
308.2222	4
308.3759	1
308.5352	2
309.0139	31
309.2224	3
309.3633	1
309.5582	2
310.0114	12
310.2498	4
310.4170	2
310.5444	2
310.9878	26
311.3387	3
311.6091	3
311.8034	8
312.0540	11
312.2633	3
312.4456	2
312.6762	5
313.0101	35
313.4409	3
313.5933	3
313.9992	21
314.2883	3
315.0169	33
315.3773	3
315.5505	1
315.9772	16
316.2280	2
316.4182	3
316.9989	29
317.3474	1
317.9902	16
318.3523	1
318.5561	2
319.0145	25
319.3032	2
319.9919	11
320.3662	1
320.5580	3
321.0429	22
321.4459	3
321.6442	2
322.0350	14
322.3995	2
322.5679	3
323.0280	20
323.5196	1
323.9855	15
324.2060	3
324.4443	3
324.5421	1
325.0152	23
325.3964	3
325.5305	1
326.0195	12
326.4663	1
327.0061	31
327.4238	1
327.5666	3
327.7444	2
327.9843	11
328.1507	4
328.5399	3
329.0134	22
329.2962	4
330.0348	17
330.4206	1
330.5591	2
331.0193	24
331.6452	2
331.9717	9
332.3291	2
333.0302	29
333.5226	3
334.0152	11
334.5006	2
335.0540	21
335.3929	2
335.9821	6
336.2817	1
336.3876	1
336.4856	1
337.0588	17
337.5049	0
338.0260	5
338.2594	3
338.5064	4
339.0576	15
339.2882	3
339.4789	2
339.6609	1
340.0244	9
340.2915	0
340.5036	2
341.0250	19
341.9514	7
342.2564	1
342.4193	2
342.6558	2
343.0566	17
343.3517	1
344.0576	9
344.3578	2
344.6000	1
345.0310	24
345.3805	1
345.6013	1
345.7472	3
346.0660	11
346.5399	3
347.0439	37
347.4565	2
347.6803	3
348.0785	13
348.5591	2
349.0604	25
349.4716	2
349.6361	3
349.8106	1
350.0746	9
350.2670	2
350.4587	2
351.0096	14
351.1798	6
351.3136	3
351.4517	1
351.6041	2
352.0169	8
352.1858	5
352.2795	3
352.3847	1
352.5951	3
353.0258	12
353.3386	1
353.4481	2
353.6084	1
353.9842	7
354.1867	4
354.4938	2
354.7200	2
355.0628	9
355.4100	1
355.6119	2
355.7888	4
356.0479	7
356.2212	2
356.5878	3
356.7102	5
357.0367	18
357.3189	1
357.5344	1
357.7099	1
357.8323	2
358.0436	8
358.2305	6
358.3194	2
358.4268	1
358.5328	1
358.6295	1
359.0428	18
359.2240	9
359.5793	4
360.0771	15
360.4325	1
360.5658	3
361.0558	25
361.3647	1
361.5667	2
361.7588	2
362.1278	10
362.3077	3
362.4818	1
362.6861	1
363.0917	15
363.5010	1
363.5934	1
363.7992	1
364.1410	7
364.2835	3
364.4611	2
365.0929	11
365.2404	4
365.8422	2
366.1037	6
366.2806	2
366.5593	1
366.7141	1
367.0394	14
367.1612	7
367.5345	1
367.6384	2
367.7530	2
368.1063	6
368.3793	2
368.5750	1
369.0308	6
369.2071	6
369.3548	3
369.8070	2
370.0622	6
370.2443	3
370.4357	1
370.5468	1
371.0708	14
371.5749	1
371.8251	1
372.1126	7
372.3127	1
372.4417	1
372.6145	2
372.7673	2
373.1244	16
373.5102	1
373.6665	1
373.7763	3
374.1248	10
374.4426	2
374.5831	2
374.6757	2
375.0903	14
375.4532	1
375.6555	1
376.0436	6
376.3091	4
376.6420	2
376.9290	5
377.0653	14
377.2016	9
377.3595	2
377.5597	1
377.7068	1
378.1064	5
378.2765	2
378.5118	1
378.7990	2
379.0999	7
379.3112	2
379.5534	2
379.7497	1
379.9417	4
380.2204	3
380.5944	3
381.1074	7
381.2787	5
381.5703	2
381.7430	3
381.9501	3
382.2747	2
382.3851	2
382.4919	1
382.6324	3
382.8130	5
383.1262	13
383.3548	2
383.7261	5
383.8229	2
384.0343	4
384.2587	2
384.3792	1
384.5469	1
385.1140	17
385.2796	8
385.5305	1
385.6631	1
386.0862	10
386.4153	3
386.5300	1
387.0929	13
387.5633	3
387.7462	2
388.0718	10
388.2898	5
388.3924	1
388.5523	1
388.6886	2
389.0099	10
389.2545	4
389.3800	3
389.7272	3
390.1418	7
390.4317	1
390.6677	1
391.0465	6
391.2854	2
391.4275	3
391.7209	1
391.8946	1
392.1321	5
392.3581	1
393.0025	7
393.2731	4
393.5365	3
393.9585	2
394.2463	1
394.5348	2
394.6640	0
394.9834	7
395.1270	4
395.2899	1
395.4127	1
395.6302	1
395.7903	2
395.9051	1
396.0401	2
396.1614	1
396.3524	2
396.6489	1
397.0567	9
397.2003	8
397.3575	1
397.4946	1
397.7847	1
397.9499	2
398.1718	7
398.3929	2
398.6170	2
399.0895	9
399.3674	1
399.6985	0
400.1747	10
400.3277	1
400.6925	3
401.0718	9
401.3074	5
401.4655	3
401.6494	1
401.8009	3
402.1422	4
402.5524	4
402.7090	1
403.0560	4
403.2400	2
403.3600	1
403.4706	1
403.7070	1
404.0397	4
404.3271	1
404.5110	1
404.7504	3
405.1089	11
405.5186	2
405.6458	1
405.7479	2
405.9577	2
406.2330	2
406.3667	2
406.5176	1
407.0869	5
407.3155	2
407.3945	1
407.5426	1
407.7079	1
407.9747	2
408.1278	3
408.2845	2
408.5793	1
408.7957	3
409.1789	4
409.5865	1
409.7274	1
410.1165	3
410.5464	2
411.1091	7
411.4091	2
411.5705	1
411.6746	0
412.0291	4
412.2165	4
412.5502	1
412.8452	2
413.1446	9
413.5085	3
414.1675	6
414.3728	4
414.5918	3
415.0549	13
415.2659	7
415.5797	1
415.8899	2
416.1764	6
416.3315	2
416.7293	2
416.9261	5
417.0855	8
417.2564	8
417.4187	3
417.5831	2
418.1160	2
418.4026	2
418.6884	1
418.7861	1
419.0432	5
419.2357	5
419.6883	1
419.9203	1
420.1315	1
420.2694	3
420.5481	1
420.7457	3
421.1171	6
421.3808	1
421.5058	1
421.8578	2
422.0834	3
422.2688	2
422.4635	2
422.6273	2
422.7610	3
423.1339	10
423.4501	2
423.7505	2
423.8511	1
424.0645	4
424.2492	2
424.4238	1
424.6244	2
424.8737	3
425.1131	8
425.3682	4
425.5357	1
425.6765	2
425.9137	1
426.1675	2
426.3623	1
426.5391	2
426.9280	4
427.1710	6
427.3758	3
427.6972	2
428.1907	5
428.5748	4
428.8154	1
429.0833	6
429.2757	1
429.4337	2
429.7080	2
430.0412	3
430.2754	2
430.4391	1
430.6617	2
430.9857	5
431.2917	3
431.7513	1
431.9711	1
432.0854	3
432.3274	2
432.5889	3
432.7247	2
433.0278	6
433.2907	2
433.4768	1
433.6823	1
433.8957	1
434.1155	2
434.2894	2
434.6127	1
434.7571	1
435.0725	7
435.7092	1
435.8112	0
435.9032	0
436.0857	2
436.2265	5
436.4586	1
436.6663	1
437.0688	9
437.2297	3
437.3476	1
437.6322	1
437.7910	2
438.1159	8
438.3272	4
438.5658	2
439.0790	16
439.3421	7
439.5908	1
440.1199	4
440.3435	5
440.5225	1
440.6440	0
440.9804	4
441.1645	8
441.3341	4
441.5232	1
441.6871	0
441.9373	2
442.1422	4
442.2889	4
442.4241	1
442.5528	2
443.1122	6
443.4250	3
443.6487	1
443.7716	1
444.2613	2
444.4052	2
444.5382	1
444.9496	7
445.0826	1
445.2142	6
445.3674	2
445.5803	1
445.9874	1
446.5750	2
447.0937	8
447.2476	3
447.3267	1
447.6288	2
447.8288	1
448.0756	2
448.1871	1
448.3223	2
448.6863	2
449.0626	6
449.3633	3
449.7332	1
449.8562	1
450.0224	3
450.1944	3
450.3714	1
450.5930	2
450.9261	3
451.3852	0
451.6529	1
451.8817	3
452.1552	3
452.5633	2
452.8036	2
453.1951	4
453.4103	2
453.8307	1
453.9883	3
454.1992	3
454.5180	2
454.8794	2
455.0586	5
455.2587	2
455.3976	1
455.5740	1
455.7029	1
455.8871	3
456.1060	1
456.3371	1
456.5581	2
456.8223	1
456.9684	5
457.1837	6
457.3716	1
457.6675	1
458.1701	4
458.3904	2
458.5668	1
458.7540	1
458.8851	1
459.1695	6
459.3099	2
459.4230	1
459.6217	1
459.7989	1
460.1287	5
460.5716	2
460.9720	4
461.1888	7
461.3069	2
461.3983	2
461.6432	1
461.7167	1
461.9140	1
462.1964	2
462.3836	1
462.5817	2
462.6682	0
462.8698	1
463.1579	7
463.3934	2
463.4926	1
463.8192	5
464.1521	5
464.2298	3
464.5376	2
464.7663	1
464.9749	5
465.1331	6
465.2539	4
465.4474	3
465.6919	1
465.9703	1
466.0810	1
466.2738	1
466.4738	1
466.7090	2
466.8291	2
467.0291	2
467.1945	1
467.4449	5
467.7060	2
467.8412	3
468.0218	3
468.2088	3
468.3772	1
468.5743	1
468.6779	2
468.8333	1
469.1290	5
469.3707	3
469.5462	3
469.7189	2
469.8866	1
470.0736	1
470.1909	2
470.3895	3
470.5586	3
470.6787	4
471.1148	5
471.3091	4
471.4451	3
471.7552	1
472.0517	2
472.2733	1
472.5072	1
473.0786	4
473.3874	3
473.6767	1
473.9329	2
474.1848	6
474.5130	3
474.6814	2
474.7973	4
475.1694	9
475.4322	3
475.5999	2
476.0354	5
476.2837	1
476.4054	1
476.6472	1
477.2095	7
477.4845	4
477.9438	8
478.1871	7
478.4002	4
478.5464	2
478.7451	1
478.8639	1
478.9985	1
479.2088	3
479.3859	3
479.5760	2
479.8662	1
480.0404	2
480.1376	0
480.2586	1
480.4602	2
480.6187	2
480.7922	1
481.1731	3
481.3935	2
481.6383	1
481.8860	2
482.0452	1
482.2570	1
482.4262	2
482.5428	2
482.8489	3
483.0384	3
483.2098	5
483.3610	2
483.5015	2
483.6520	2
483.8940	3
484.1187	3
484.2750	2
484.5948	3
484.8030	3
485.1819	13
485.6400	4
485.9037	1
486.0139	1
486.3042	4
486.4749	2
486.5715	1
486.6810	1
486.8849	4
487.2552	9
487.3820	3
487.6413	1
487.8884	2
488.2847	5
488.6147	2
488.7458	2
488.9353	2
489.1061	12
489.3071	9
489.4707	3
489.6847	2
489.9326	2
490.3080	6
490.3916	2
490.5004	1
490.6373	1
490.8989	2
491.0618	5
491.2909	4
491.5083	1
491.7176	1
491.9133	0
492.1284	5
492.2622	3
492.4262	1
492.6298	1
492.9247	3
493.2384	5
493.3406	2
493.4629	2
493.5837	1
493.7903	2
494.1823	2
495.0285	2
495.1760	2
495.2969	2
495.9646	1
496.2769	1
496.6022	1
496.7785	2
496.8663	1
497.2376	3
498.0033	3
498.1754	1
498.3934	1
498.7777	2
499.0383	3
499.2110	5
499.4190	2
499.7119	3
500.2230	17
500.6153	3
500.7492	2
500.9601	8
501.1163	8
501.2711	3
501.5388	1
501.6547	2
501.8066	3
501.9866	3
502.0938	1
502.2940	4
502.4797	4
502.6251	2
502.9865	8
503.1499	8
503.3184	3
503.7021	2
503.8742	1
504.0996	4
504.4048	5
504.5402	2
504.6619	2
505.2328	21
505.4467	8
505.7592	1
505.9083	1
506.0760	5
506.2445	3
506.4390	1
506.6557	1
506.7716	1
506.9358	1
507.1353	5
507.3765	3
507.5206	1
507.8252	2
507.9390	4
508.1010	2
508.3170	1
508.7081	2
508.8500	2
508.9739	2
509.3412	2
509.6278	2
510.1975	2
510.4079	2
510.5289	1
510.7212	1
510.9330	1
511.0749	3
511.2556	3
511.3803	2
511.5546	1
511.8298	1
512.0761	1
512.2072	3
512.3773	3
512.7857	3
512.9701	2
513.1135	5
513.2698	6
513.6156	3
513.7712	2
513.9175	2
514.0291	1
514.3598	3
514.6077	2
515.1141	7
515.3454	3
515.4376	2
515.6495	1
515.8455	3
516.0422	3
516.4277	5
516.5292	3
516.7130	0
517.1597	6
517.4840	5
517.6793	2
517.7766	1
518.0461	4
518.2031	4
518.3411	9
518.6418	4
519.0632	5
519.3078	7
519.6394	3
519.8638	7
520.2198	6
520.5623	2
520.7795	2
521.2147	7
521.4593	3
521.7729	4
522.0528	2
522.1772	1
522.2736	1
522.4729	2
522.7499	3
522.8988	2
523.3089	1
523.6744	3
523.8320	2
523.9255	1
524.0730	2
524.2305	2
524.6299	3
525.2256	4
525.4235	3
525.5969	1
525.9776	1
526.2481	2
526.4489	1
526.6223	3
526.8296	1
527.0318	1
527.1462	2
527.3052	3
527.4153	2
527.5938	2
528.2163	1
528.3365	1
528.7129	2
529.1030	4
529.3102	6
529.4492	2
529.6046	2
529.7291	1
529.9220	1
530.1775	4
530.4669	2
530.6411	2
530.7728	1
531.2564	11
531.5983	2
532.0015	5
532.1613	5
532.2628	2
532.3945	1
532.5939	3
532.8825	2
533.0610	3
533.3425	5
533.5592	2
533.6816	1
533.8969	3
534.2093	4
534.3094	2
534.5174	2
534.6010	1
535.1870	6
535.4390	2
535.5772	2
535.7377	2
536.0934	4
536.3274	3
536.4923	1
536.7976	1
536.9365	1
537.0438	1
537.1807	2
537.5169	1
537.6580	1
537.7970	1
537.9346	1
538.0577	1
538.1628	3
538.2715	1
538.7403	1
539.0529	4
539.3279	2
539.5001	4
539.7571	3
539.9897	0
540.1791	2
540.3520	1
540.6134	3
541.1543	3
541.4142	3
541.5324	1
541.8687	4
542.0466	3
542.1431	2
542.2584	1
542.4291	1
542.7021	3
542.9635	4
543.0845	5
543.2322	4
543.4324	4
543.7544	2
543.9755	2
544.1326	1
544.2637	4
544.3897	2
544.4819	1
544.6728	3
544.7967	3
545.1259	4
545.4263	5
545.6605	2
545.7736	1
545.8960	4
546.2346	9
546.4904	6
546.6459	2
547.2706	15
547.6070	3
548.2410	9
548.3952	5
548.6287	4
548.7634	1
549.0818	7
549.4176	8
549.7173	4
549.8817	4
549.9998	2
550.1583	3
550.3104	2
550.5928	4
550.8840	2
551.0648	4
551.2493	3
551.6154	2
551.7696	2
552.0233	6
552.2603	5
552.5580	5
552.8873	4
553.1575	1
553.3240	1
553.4638	1
553.6901	2
553.8674	4
554.0519	2
554.1910	3
554.3532	6
554.4764	3
554.6631	4
554.8642	4
555.2245	6
555.3161	3
555.7248	4
555.8870	4
556.2711	3
556.5277	2
556.8153	4
557.0575	5
557.2824	8
557.4943	5
557.6688	2
557.8065	2
557.9874	4
558.1741	3
558.3046	2
558.4379	1
558.7969	7
559.2742	26
559.7240	5
559.8552	3
559.9951	1
560.1162	3
560.2539	4
560.3938	2
560.4998	3
560.7362	3
561.1097	9
561.2351	4
561.5264	2
561.7946	2
561.9900	4
562.2178	7
562.4608	7
562.7191	4
563.3599	17
563.6188	6
563.8432	4
564.3970	16
564.6653	8
564.8322	3
564.9976	4
565.2335	4
565.4083	1
565.5558	2
565.8349	4
566.1572	5
566.3420	1
566.5528	4
566.7664	3
566.9534	4
567.1074	1
567.2369	4
567.6066	4
567.7592	3
568.1131	5
568.2994	2
568.4512	3
568.5858	3
568.7857	5
569.1512	4
569.3361	6
569.5793	5
569.6850	6
569.8037	4
570.0872	8
570.3030	6
570.6376	7
570.7347	3
570.9131	8
571.0787	6
571.4665	7
572.1652	11
572.6954	13
573.3747	16
573.7791	11
574.3102	60
574.6318	20
575.3393	99
576.2669	25
577.3263	149
577.8345	10
578.4412	10
578.8140	8
579.2416	11
579.5101	6
579.7447	5
580.0513	7
580.5293	7
580.8590	4
581.1620	8
581.4421	7
581.7422	7
582.2339	7
582.5673	11
582.7753	8
583.0366	7
583.4124	9
583.7307	11
584.1784	10
585.0453	13
585.9619	12
587.1082	21
587.9828	27
592.2772	999
593.1160	248
593.8785	106
594.8052	49
595.6124	26
596.4766	15
597.1213	10
597.4314	14
597.7869	9
598.2236	9
598.5359	8
598.8389	6
599.0051	4
599.1339	8
599.4952	5
