Mass spectrum: Isocryptoxanthin; FAB-EBEB; MS2; m/z: 552.43; [M]*+
Name: Isocryptoxanthin
Class: Natural Product; Carotenoid
Formula: C40H56O
Exact mass: 552.43312
SMILES: C(=CC(=C(C)2)C(C)(C)CCC2)C(C)=CC=CC(=CC=CC=C(C)C=CC=C(C)C=CC(=C1C)C(CCC(O)1)(C)C)C
InChI: InChI=1S/C40H56O/c1-30(18-13-20-32(3)23-25-36-34(5)22-15-28-39(36,7)8)16-11-12-17-31(2)19-14-21-33(4)24-26-37-35(6)38(41)27-29-40(37,9)10/h11-14,16-21,23-26,38,41H,15,22,27-29H2,1-10H3/b12-11+,18-13+,19-14+,25-23+,26-24+,30-16+,31-17+,32-20+,33-21+
Instrument: JMS-HX/HX 110A, JEOL
Instrument type: FAB-EBEB
Ms type: MS2
Ion mode: POSITIVE
Collision energy: 3 kV
Ionization: FAB
Base peak: 552.3120
Precursor m/z: 552.43
Precursor type: [M]+*
m/z	relative intensity
0.0465	0
0.0962	0
0.1612	0
0.2636	0
0.5628	0
1.5500	0
1.7550	0
2.0859	0
2.4009	0
3.9033	0
11.0656	0
11.5067	0
11.6902	0
11.9547	1
13.4909	0
13.9689	1
14.9675	2
16.9658	0
19.6671	0
22.9241	1
23.9357	0
24.9289	0
25.9551	5
26.9608	15
27.9631	3
28.9623	13
30.9436	1
35.5822	0
36.9455	2
37.0722	0
37.9489	4
38.9449	29
39.1213	0
39.9673	2
40.9662	32
41.9418	1
42.9568	22
43.1788	0
43.9353	1
44.9664	1
45.7386	0
47.2827	0
48.9513	1
49.9402	4
50.7617	0
50.9574	4
51.9251	5
52.9618	13
53.9645	1
54.9688	31
55.4878	1
55.8827	0
55.9799	1
56.2866	0
56.9690	11
57.5713	1
57.9723	1
58.8811	1
58.9661	1
59.9969	1
60.9598	1
61.8920	3
62.9381	10
63.9551	1
64.9363	15
65.7460	1
65.9566	3
66.7485	3
66.9685	27
67.9734	1
68.9755	109
70.0062	2
70.9582	8
71.2989	0
72.7389	0
72.9213	1
73.8957	4
74.2817	0
74.6792	1
74.9351	7
75.1724	0
75.4574	0
75.6718	1
75.8492	2
75.9534	2
76.9149	80
77.1235	1
77.3223	1
77.4337	3
77.5284	1
77.6961	1
77.9337	23
78.1715	0
78.2558	0
78.9237	70
79.2775	0
79.9356	11
80.3061	1
80.9447	126
81.4097	0
81.8116	1
81.9639	2
82.9713	27
83.9688	2
84.6539	1
84.7443	0
84.9711	1
85.8933	4
86.5128	0
86.6544	0
86.8725	3
87.6743	0
87.9125	2
88.4902	0
88.9016	12
89.2692	2
89.4979	1
89.7164	1
89.9627	6
90.1296	1
90.2516	1
90.9069	212
91.1699	1
91.3212	1
91.4626	0
91.6717	0
91.9312	26
92.2636	1
92.9537	168
93.3164	0
93.4752	0
93.6462	1
93.9502	8
94.3014	1
94.4471	1
94.9655	153
95.2133	0
95.9708	8
96.5095	1
96.7014	2
96.9583	22
97.3257	1
97.8875	2
97.9881	2
98.8412	2
98.9907	3
99.0898	0
99.7152	1
100.4206	0
100.5488	0
100.6752	1
100.7958	1
100.9647	4
101.1506	0
101.3255	1
101.4120	1
101.5016	0
101.7066	2
101.9305	18
102.3197	1
102.6968	5
102.9324	42
103.1326	2
103.2649	1
103.4493	1
103.5563	1
103.9313	31
104.2011	1
104.4172	1
104.9379	371
105.3601	2
105.9616	35
106.1666	1
106.4896	1
106.9594	191
107.1973	1
107.3000	1
107.9451	20
108.1383	1
108.2387	2
108.3803	1
108.9557	86
109.2450	1
109.5346	0
109.9506	5
110.2100	1
110.5842	0
110.7143	1
110.9597	18
111.2112	0
111.6499	0
111.9387	2
112.2791	1
112.4671	1
112.7281	4
112.9432	8
113.0594	2
113.1702	1
113.3626	1
113.5899	3
113.9294	4
114.0776	2
114.2048	0
114.8810	148
115.2326	1
115.3606	1
115.8954	56
116.1885	1
116.4010	2
116.9076	161
117.1680	1
117.4465	1
117.9159	34
118.2250	1
118.3415	1
118.4562	1
118.9341	365
119.2267	3
119.3421	3
119.4389	0
119.6809	3
119.9507	34
120.1614	1
120.3539	2
120.4465	3
120.9439	154
121.4422	1
121.9397	10
122.3026	1
122.4399	1
122.9507	71
123.1713	1
123.3093	0
123.4145	1
123.6504	1
123.9382	9
124.0866	1
124.4926	0
124.9378	9
125.1791	1
125.3522	1
125.6784	4
125.9064	11
126.1200	0
126.2603	1
126.8689	59
127.2861	3
127.8778	171
128.2441	4
128.8861	217
129.1647	2
129.3668	1
129.5346	2
129.9109	88
130.0985	3
130.3646	1
130.9075	226
131.1278	3
131.3335	1
131.4415	2
131.9286	58
132.1449	0
132.2654	1
132.3508	1
132.9214	225
133.2887	1
133.5847	2
133.9375	27
134.3560	0
134.5570	1
134.9394	70
135.3035	0
135.5985	0
135.9203	8
136.2192	1
136.3842	1
136.4627	1
136.5566	1
136.9349	38
137.3740	1
137.6673	2
137.9049	7
138.0578	1
138.1872	1
138.3488	1
138.5030	3
138.9180	50
139.1473	1
139.3462	1
139.4764	0
139.9278	9
140.1089	4
140.8760	147
141.3169	3
141.5293	4
141.9034	144
142.1352	4
142.9082	271
143.1558	1
143.4938	3
143.9196	87
144.2154	1
144.9314	284
145.3472	2
145.5830	2
145.9448	31
146.2712	1
146.4272	3
146.9479	109
147.2371	1
147.3758	1
147.4858	1
147.9470	15
148.1383	1
148.3634	1
148.5541	1
148.6949	3
148.9620	43
149.2261	1
149.3600	3
149.5653	1
149.9016	7
150.2272	1
150.8732	19
151.2782	1
151.8753	64
152.2498	2
152.8995	89
153.1124	2
153.2160	2
153.4170	2
153.9077	47
154.1138	2
154.2930	1
154.4690	2
154.9318	168
155.3540	3
155.5522	5
155.9506	119
156.1905	1
156.9475	248
157.9453	47
158.3085	1
158.5425	4
158.9747	161
159.2158	1
159.3749	2
159.9767	25
160.4371	2
160.6040	2
160.9958	77
161.2739	0
161.4099	1
161.6027	1
161.7178	2
161.9923	8
162.1872	2
162.3112	1
162.4991	2
162.6339	1
162.9795	33
163.2207	1
163.5114	1
163.9320	11
164.1943	5
164.3014	3
164.3850	2
164.9187	148
165.3157	2
165.9468	42
166.1949	3
166.4400	4
166.9494	117
167.2608	3
167.9567	48
168.3387	3
168.5053	3
168.9762	179
169.2260	2
169.3261	1
169.9609	65
170.2368	2
170.4196	1
170.9812	128
171.1951	2
171.3367	4
171.4351	3
171.5278	0
171.6593	2
171.9927	24
172.2258	0
172.4031	1
172.5428	2
172.9909	99
173.2865	0
173.4537	1
173.6387	3
173.9930	15
174.2518	1
174.6030	4
175.0046	58
175.5361	3
175.6329	1
175.9526	12
176.2781	0
176.5055	1
176.6093	2
177.0057	31
177.2415	3
177.3754	2
177.9199	74
178.3000	1
178.9303	111
179.1619	2
179.3234	1
179.4804	2
179.9413	64
180.3488	1
180.9371	123
181.2105	2
181.4285	1
181.6336	3
181.7442	5
181.9737	50
182.3221	1
182.4302	1
182.9579	140
183.2298	1
183.9561	27
184.1865	1
184.4624	2
184.9779	92
185.1893	1
185.3591	2
185.5231	1
185.6474	1
185.9953	27
186.2824	1
186.9761	51
187.3563	2
187.7175	3
187.9824	8
188.1935	2
188.6678	6
188.9373	45
189.2930	0
189.4869	4
189.9217	22
190.2352	1
190.3938	2
190.9452	67
191.2684	1
191.4079	1
191.4954	0
191.9306	48
192.1628	2
192.3049	1
192.9462	108
193.2499	1
193.4874	2
193.9553	46
194.3344	1
194.9494	133
195.2457	1
195.5066	2
195.7173	6
195.9808	33
196.2882	1
196.5480	4
196.9741	105
197.2636	2
197.3752	2
197.7234	3
197.9950	19
198.4556	2
198.9725	41
199.5206	2
199.9622	11
200.2057	1
200.3878	2
200.5202	2
200.6281	1
200.9911	41
201.4130	3
201.9203	36
202.1453	1
202.3218	1
202.9464	44
203.3234	1
203.5168	1
203.9626	19
204.5158	6
204.9521	47
205.1657	2
205.3411	1
205.5347	3
205.6584	4
205.9654	33
206.2685	1
206.9338	75
207.5410	2
207.9532	36
208.2436	3
208.4102	3
208.9828	97
209.3370	2
209.5244	1
209.6477	2
210.0078	25
210.2167	1
210.4951	2
210.6139	2
210.7677	5
211.0052	47
211.3143	1
211.5051	1
211.6350	0
212.0006	9
212.2143	1
212.4604	2
212.5936	2
212.7378	3
213.0055	28
213.3070	0
213.7014	1
213.9348	4
214.0934	4
214.2838	0
214.5907	6
214.9646	41
215.3320	0
215.6123	3
215.9759	20
216.2609	2
216.4138	1
216.9806	41
217.1876	2
217.4584	0
217.6758	3
217.9694	18
218.2442	1
218.4246	1
218.9912	41
219.1906	3
219.3345	1
219.5801	2
219.9809	17
220.2292	1
220.3778	1
220.5674	2
221.0126	64
221.2434	2
221.4540	2
221.5773	2
221.6692	1
222.0194	16
222.3442	2
222.5712	2
223.0292	53
223.2485	1
223.4109	3
223.6752	3
223.8462	3
224.0303	6
224.4422	0
224.5976	4
225.0363	32
225.2525	1
225.9533	12
226.2734	1
226.4302	1
226.5859	3
226.7305	2
227.0471	15
227.5470	0
227.9556	9
228.2144	2
228.3330	1
228.5247	0
228.7320	2
228.9948	34
229.3039	0
229.4310	1
229.6091	2
229.9868	12
230.4669	3
231.0065	30
231.2584	1
231.4124	0
231.5736	3
231.6800	1
231.9979	16
232.2120	2
232.4151	1
232.7135	3
233.0158	38
233.3391	1
233.5598	1
234.0386	13
234.2281	1
234.5417	1
235.0181	30
235.2435	1
235.5742	0
235.7089	3
236.0266	9
236.1717	4
236.3862	1
236.7255	3
237.0355	33
237.2768	2
237.4443	0
237.6640	1
237.7864	1
238.0526	9
238.2443	1
238.3882	1
238.6231	3
239.0256	29
239.3070	1
239.5145	2
239.6467	1
240.0434	7
240.2987	1
240.3995	2
240.5835	1
241.0065	11
241.1755	5
241.4663	0
241.6281	1
241.9844	8
242.2537	0
242.5079	1
242.6599	3
243.0059	22
243.4954	2
243.6711	3
244.0021	18
244.3345	1
244.4387	1
244.6597	3
245.0085	24
245.3620	2
245.6177	2
246.0185	13
246.2796	1
246.4744	2
246.5978	3
247.0092	32
247.3701	1
247.5630	1
247.6720	3
248.0133	11
248.4458	1
249.0472	23
249.3355	2
249.6303	2
250.0290	8
250.2346	1
250.3640	0
250.5295	1
250.7995	1
251.0669	21
251.3369	1
251.4677	2
251.6405	1
251.7962	0
252.0426	13
252.3686	2
252.4987	2
252.6400	1
253.0331	22
253.3690	1
254.0219	6
254.9952	17
255.1136	7
255.3642	1
255.5004	1
255.6760	1
255.8089	1
256.0102	12
256.1912	1
256.3603	0
256.4866	1
256.5754	1
256.7682	3
257.0197	19
257.2533	2
257.4922	1
257.9997	12
258.2315	1
259.0302	26
259.2574	1
259.3522	1
259.5221	1
259.9970	9
260.3297	1
260.5497	1
260.7302	1
261.0320	23
261.5426	0
261.7094	1
261.9908	6
262.3229	2
262.4680	1
262.6090	1
263.0329	20
263.5195	1
263.7417	1
263.8201	1
264.1222	7
264.3451	2
264.4374	2
264.6696	2
265.0633	14
265.4987	1
265.9751	6
266.3776	2
266.5353	2
267.0824	22
267.3206	1
267.4645	1
267.6381	1
268.0527	6
268.3148	1
268.5630	4
269.0589	16
269.5449	0
269.6984	0
269.8466	2
270.0358	7
270.1939	1
270.4002	1
270.5392	1
270.6612	1
270.7673	1
271.0421	12
271.2887	0
271.4357	1
271.5932	1
271.7587	0
272.0316	4
272.2209	1
273.0445	13
273.4646	1
273.6420	1
273.8096	1
274.0747	8
274.3281	0
274.4561	0
274.5933	0
274.8308	4
275.0710	11
275.4583	1
275.6411	1
276.0608	5
276.4760	1
276.7281	1
277.0430	7
277.4576	1
277.7204	0
278.0089	6
278.2823	1
278.4348	1
278.5808	2
279.0405	14
279.2749	1
279.5497	2
280.0108	5
280.1833	2
280.3702	1
280.5658	0
280.7052	0
281.0528	15
281.1783	8
281.5398	1
281.7414	1
282.0871	9
282.3026	1
282.6502	1
282.7864	1
283.0628	9
283.2168	4
283.4502	1
283.7722	2
283.9428	3
284.0923	4
284.3482	0
284.4831	1
285.0770	10
285.3456	1
285.7639	1
286.0441	3
286.1696	4
286.5397	1
287.0611	8
287.4141	1
287.7690	1
287.9905	4
288.1333	1
288.5504	1
288.7448	2
289.0549	10
289.4497	2
289.5476	1
289.9417	3
290.1382	1
290.2400	0
290.6634	1
291.0345	11
291.3123	1
291.6087	0
292.0321	3
292.5695	1
293.0096	7
293.2451	2
293.4927	1
294.0779	5
294.2076	2
294.8041	1
295.0643	9
295.2980	1
295.8066	3
296.0781	6
296.2218	1
296.4437	1
296.6304	2
297.0093	5
297.1756	2
297.3803	1
297.5578	1
297.8645	2
298.0924	3
298.5417	1
299.0512	6
299.6636	1
300.0818	3
300.2117	2
300.4000	2
300.8315	2
301.0834	8
301.4182	1
301.5256	1
302.0123	3
302.1410	2
302.5959	2
302.7345	2
303.0568	12
303.3280	0
303.5754	1
303.8229	1
304.0026	2
304.1705	2
304.5944	1
304.6800	1
304.8140	2
305.0289	4
305.1523	3
305.5246	1
305.7754	1
306.1112	3
306.2638	1
306.4981	2
306.6985	1
307.0729	4
307.6026	1
308.0547	3
308.2120	1
308.8833	1
309.0400	4
309.2538	1
309.6044	1
309.8993	1
310.0275	2
310.1191	2
310.7474	2
311.0078	6
311.4648	1
311.6901	1
311.9651	2
312.0661	1
312.1598	1
312.3425	1
312.4947	1
312.7704	3
313.0628	5
313.6602	1
313.9228	2
314.1029	3
314.1939	2
314.5429	0
314.6486	1
315.0195	6
315.2249	2
315.4004	1
315.5321	1
316.0128	2
316.1730	1
316.5640	1
316.6857	1
317.0388	7
317.2250	1
317.4052	1
317.7364	1
317.9579	5
318.0590	3
318.1681	2
318.6783	1
318.8253	1
319.0721	6
319.5837	1
319.9463	3
320.0761	2
320.1672	1
320.5505	1
320.8094	1
321.1168	8
321.5128	0
321.7351	1
322.0327	5
322.2416	1
322.3715	1
322.6244	0
322.8275	1
323.0178	2
323.1736	2
323.6923	1
323.8834	1
324.0358	1
324.1530	1
324.7776	1
324.9142	1
325.1206	2
326.0883	3
326.5646	1
327.1102	4
327.3034	1
327.7278	0
327.9510	1
328.0796	1
328.4591	0
328.7440	1
328.9944	4
329.1768	5
329.3499	1
329.7442	3
329.9026	1
330.0645	2
330.6632	0
331.0615	7
331.1900	3
331.2840	1
331.5024	1
331.6949	1
332.1320	5
332.2905	1
332.5037	1
333.1560	11
333.3059	2
333.6224	2
333.8616	1
334.1435	3
334.5613	1
334.6653	1
335.0619	8
335.3784	1
336.0790	3
336.2510	1
336.9150	2
337.0677	4
337.2430	2
337.9451	1
338.1292	4
338.6947	2
338.8841	2
339.0261	1
339.1362	2
339.3996	1
340.0806	2
340.4148	1
341.0606	3
341.4542	1
341.8525	1
341.9873	3
342.1474	1
343.1210	3
343.3306	2
344.0660	3
344.2068	2
344.3083	1
344.4825	0
344.6674	0
345.1153	5
345.3951	1
345.5553	1
345.8009	0
345.9298	1
346.0700	10
346.2089	7
346.5587	1
346.8452	1
347.1470	8
347.3266	1
347.5089	1
347.6011	1
348.0144	5
348.2141	3
348.8713	2
349.1472	5
349.2915	2
349.6969	1
350.1659	1
350.7638	1
351.1794	2
352.0674	1
352.1937	1
352.6488	1
352.8179	1
353.0264	3
353.1915	1
353.3732	1
354.0811	3
354.3645	0
354.8065	1
355.1214	3
356.0309	1
356.1687	3
356.9099	2
357.2009	4
357.4200	2
357.5804	1
358.1665	4
359.1190	7
359.3295	1
359.7852	1
359.9304	2
360.0544	4
360.2049	4
360.5054	1
360.8911	1
361.1557	8
361.7014	1
361.7854	1
362.0706	6
362.2598	3
363.1189	2
363.3181	1
363.9667	1
364.1847	2
364.8680	1
365.0679	2
365.1706	1
365.5746	1
365.9106	3
366.1047	4
366.2340	1
367.1649	4
367.3222	2
367.4916	0
367.6850	1
368.1765	4
368.3372	1
368.7348	0
369.0952	4
369.3943	1
370.1072	2
370.4904	1
370.8876	4
371.1487	4
371.6808	1
372.0514	2
372.2357	2
372.9228	2
373.1345	4
373.3148	2
373.9640	2
374.1617	2
374.3320	1
375.0480	3
375.1750	3
375.2564	1
375.8897	1
376.0340	1
376.2037	3
376.4596	1
377.1230	4
377.3054	2
378.0404	2
378.2135	1
378.6064	1
378.8457	1
378.9687	2
379.0990	2
379.2794	1
380.0828	2
380.9196	0
381.1977	5
381.4531	2
382.0487	2
382.2573	3
382.7433	1
382.9426	1
383.2014	4
383.6380	1
383.9322	1
384.0800	2
384.2418	1
384.6511	1
385.0624	4
385.1547	1
385.2764	3
386.1318	4
386.2749	2
386.7626	1
387.1358	3
388.1667	4
388.3668	1
388.9308	1
389.1034	2
389.2399	1
389.5176	1
389.6460	1
389.7939	1
390.0562	0
390.2751	2
390.3506	1
390.4691	2
391.1678	1
391.2595	1
391.9348	0
392.4093	2
392.8812	0
393.1201	1
393.4047	1
394.1122	2
394.3338	3
395.0562	1
395.2036	2
396.0177	1
396.1490	1
396.2555	1
396.6874	1
396.7979	1
397.2271	1
397.8004	0
398.0315	2
398.1922	3
398.4132	1
398.7843	0
399.0850	2
399.2692	3
399.4796	1
399.5834	1
399.7133	1
399.9598	1
400.1158	4
400.2481	4
400.3551	2
400.5958	1
400.6780	1
400.8091	1
400.9990	1
401.2276	3
401.3921	1
401.5011	1
402.0882	2
402.3129	1
402.7656	1
403.0725	3
403.2357	3
403.6711	0
404.1285	4
404.2837	2
404.3753	1
404.8824	0
405.1552	1
405.4141	0
405.5659	0
405.7044	0
405.8790	0
406.1500	0
406.2416	1
406.4015	0
406.9581	3
407.2003	2
407.5836	1
407.8392	0
408.0754	2
408.3324	1
409.1601	4
409.5194	1
409.6620	1
410.1364	3
410.2603	1
410.4289	1
410.7964	1
410.9911	1
411.1598	2
411.2562	2
411.7220	1
412.0239	3
412.2521	4
412.5567	2
412.6872	1
412.8600	1
413.1485	5
413.3540	2
413.5173	1
413.8661	1
414.0783	2
414.2196	5
414.3629	1
415.1496	2
415.3813	1
415.9411	1
416.0857	1
416.2471	3
416.3509	1
416.4547	1
416.7449	1
417.0886	1
418.0141	0
418.1960	2
418.4501	2
418.8414	1
418.9731	1
419.1510	2
419.5015	0
419.6105	0
419.7944	1
419.8734	0
420.0111	1
420.1830	2
420.5737	0
420.7650	1
421.0179	0
421.1904	1
421.3711	2
421.7765	1
422.1611	1
422.5759	1
422.7733	1
423.0857	3
423.3005	1
423.4591	2
423.8471	2
423.9736	1
424.1422	4
424.3791	2
424.5638	1
424.7378	1
425.0128	1
425.1788	3
425.3046	1
425.4940	1
425.6974	1
425.8486	1
426.0039	1
426.1297	2
426.3780	2
426.5012	1
426.6558	1
426.8499	1
427.0226	2
427.1631	1
427.2581	1
427.5145	1
428.2166	3
428.3893	1
428.5801	0
428.7167	1
429.0246	3
429.1652	2
429.2803	2
429.4778	2
429.6311	2
429.7228	1
430.1399	2
430.2852	2
430.3896	1
430.6146	2
430.7338	1
430.8483	1
430.9460	1
431.0866	2
431.1871	1
431.3109	1
431.6759	1
431.7589	1
431.8774	1
432.0843	1
432.2397	1
432.3696	1
432.7988	1
433.2046	1
433.3252	1
433.5234	1
433.8321	1
434.3016	1
434.9104	1
435.1167	1
435.1984	1
436.3706	1
436.7946	2
436.9293	2
437.0720	1
437.5449	1
437.7573	2
437.9583	2
438.2752	4
438.7462	1
439.2460	2
439.4879	1
439.6319	1
440.1432	2
440.3402	0
440.6364	0
440.8106	0
441.0746	3
441.3038	1
441.4432	1
441.6402	1
441.7662	1
441.9217	1
442.1596	1
442.3479	2
442.9142	1
443.2119	2
443.4156	1
443.7018	1
443.9257	0
444.2039	3
444.3721	1
444.5048	1
444.7502	2
445.1410	2
445.3387	1
445.4259	1
446.2189	6
446.3738	2
446.7412	1
447.0389	0
447.3345	2
447.6557	1
447.7677	1
447.9554	1
448.1009	2
448.5877	0
448.8224	1
448.9558	1
449.1107	2
449.3944	2
450.0134	1
450.1924	1
450.3587	1
450.4835	1
450.8414	1
450.9478	1
451.0930	1
451.2462	1
452.2229	5
452.4630	2
452.7220	0
453.0170	1
453.1602	1
453.2987	1
453.5630	2
453.9831	1
454.1564	1
454.3284	2
454.5954	1
455.0531	1
455.1648	1
455.3067	1
455.5917	1
455.9691	1
456.2342	4
456.5614	1
456.7401	1
457.1323	1
457.4361	2
457.6028	1
457.7487	2
458.0063	1
458.1817	1
458.3859	2
458.6128	3
458.7714	2
459.0793	4
459.2794	7
459.4053	4
460.2420	217
460.6731	3
460.7950	2
461.2281	4
461.4725	3
461.6104	1
461.7905	1
462.0978	1
462.2832	1
462.3917	1
462.5149	1
462.8959	1
463.0418	1
463.3016	1
463.8319	1
464.0629	0
464.2859	2
464.7942	3
465.3319	1
465.6922	0
466.0692	1
466.1992	2
466.4161	2
466.9513	1
467.2533	1
468.0222	1
468.1656	3
468.3223	1
468.4576	1
469.1549	2
470.0954	1
470.2180	1
470.3534	2
470.4445	1
470.8250	1
471.1733	3
471.3529	2
471.9043	1
472.1937	5
472.3880	4
472.5823	1
473.1592	7
473.3435	8
473.5445	1
474.5483	1
475.0931	1
476.0917	2
476.3866	1
476.6406	0
477.4261	1
478.0988	1
478.9857	1
479.2316	1
479.4004	1
479.9926	2
480.2833	3
480.4816	3
480.7054	2
480.8481	1
481.0330	2
481.1924	3
481.2902	1
481.6379	1
481.9689	1
482.1431	3
482.2309	1
482.8533	0
483.1307	1
483.2989	1
483.4142	1
483.7231	1
484.1452	2
484.2786	1
484.4005	1
485.3930	1
487.3245	1
487.8942	0
489.1898	1
490.1974	1
490.4360	1
491.0977	1
491.2827	1
492.1703	1
492.2910	0
492.4097	1
493.1794	1
493.3249	1
493.4489	1
494.0725	1
494.2381	2
494.3910	1
494.4956	1
494.8322	2
495.1025	2
495.2601	5
495.3761	2
495.8958	0
496.1151	2
496.2224	1
496.4866	1
497.2136	1
497.3510	1
497.4919	1
498.2491	2
499.4819	2
500.6866	1
501.2595	1
502.3899	1
502.9601	1
503.6096	1
504.0523	1
504.3087	1
504.3984	1
504.6092	1
505.2163	1
505.7023	1
506.1187	2
506.2606	2
506.3577	1
507.0519	3
507.3096	4
507.6383	1
508.0681	4
508.2074	3
508.3399	2
508.5482	1
508.7684	2
508.9271	0
509.1541	1
509.4393	2
509.6529	2
509.7600	1
510.3091	2
510.7316	1
511.4742	3
512.1954	1
512.4988	2
512.8999	1
513.2669	2
513.5964	2
513.7370	1
514.1542	1
514.2989	1
514.5153	0
514.7014	1
515.2158	1
515.4877	1
515.6539	1
515.8300	2
516.0470	1
516.2024	1
516.2989	1
516.7831	1
517.0665	1
517.3210	2
517.5039	0
517.8998	1
517.9963	1
518.1630	1
518.3138	4
518.4813	1
518.6808	2
518.7546	1
518.9073	1
519.0607	5
519.2316	4
519.4279	1
519.5792	1
519.7421	1
519.8921	1
520.1011	4
520.3771	1
520.6572	0
520.8448	2
521.0397	2
521.2535	4
521.3701	3
521.5523	1
521.7801	1
522.0930	4
522.3745	6
522.5648	1
523.1235	2
523.4050	3
523.6027	1
523.8238	2
524.1756	3
524.4014	3
524.5576	1
524.7620	3
525.1003	1
525.2820	2
525.4039	3
525.6693	3
525.8858	3
525.9682	2
526.2108	2
526.6203	4
526.9119	3
527.1678	1
527.3542	1
527.4963	3
527.6216	2
527.7704	3
527.9822	1
528.1993	4
528.3387	2
528.4601	2
528.7121	3
528.9869	5
529.1531	4
529.5982	6
529.9421	7
530.2827	4
530.3584	2
530.6533	6
531.0850	4
531.3129	6
531.6274	13
531.9169	9
532.2729	8
532.7087	8
533.1069	13
534.0502	41
534.3633	25
534.5270	10
534.8394	12
535.2021	17
535.4448	11
536.2112	25
537.1293	73
537.6040	8
538.2485	8
538.6481	3
538.8393	7
538.9875	4
539.3476	5
539.8312	4
540.0250	3
540.3683	9
540.7661	7
540.9062	6
541.1899	6
541.4864	6
541.6735	5
542.0948	9
542.4382	8
542.6796	7
543.2673	9
543.7965	8
544.3130	12
544.8101	13
545.4856	12
546.2705	13
552.3120	999
552.9425	377
553.8663	175
554.6682	80
555.6041	48
556.1684	27
556.8713	16
557.1358	17
557.4431	13
557.7169	11
557.9974	8
558.2827	7
558.4728	7
558.6201	4
559.0352	4
559.4430	5
559.8815	2
560.3556	3
560.6536	2
561.0185	0
561.2642	1
561.5254	0
561.8616	2
561.9526	1
562.2774	0
