Mass spectrum: Asteroidenone; FAB-EBEB; MS2; m/z: 566.41; [M]*+
Name: Asteroidenone
Name: 3'-Hydroxyechinenone
Class: Natural Product; Carotenoid
Formula: C40H54O2
Exact mass: 566.41238
SMILES: C(C(C)=1)(=O)CCC(C(C=CC(C)=CC=CC(=CC=CC=C(C=CC=C(C)C=CC(=C(C)2)C(C)(C)CC(C2)O)C)C)1)(C)C
InChI: InChI=1S/C40H54O2/c1-29(17-13-19-31(3)21-23-36-33(5)27-35(41)28-40(36,9)10)15-11-12-16-30(2)18-14-20-32(4)22-24-37-34(6)38(42)25-26-39(37,7)8/h11-24,35,41H,25-28H2,1-10H3/b12-11+,17-13+,18-14+,23-21+,24-22+,29-15+,30-16+,31-19+,32-20+/t35-/m1/s1
Instrument: JMS-HX/HX 110A, JEOL
Instrument type: FAB-EBEB
Ms type: MS2
Ion mode: POSITIVE
Collision energy: 3 kV
Ionization: FAB
Base peak: 566.3022
Precursor m/z: 566.41
Precursor type: [M]+*
m/z	relative intensity
0.3488	0
0.3957	0
2.6634	0
7.9532	0
10.1741	0
12.9603	0
13.9634	1
14.9735	4
15.9660	0
20.9508	0
21.0750	0
22.9172	1
24.9408	1
25.9476	11
26.9527	43
27.9477	5
28.9627	36
29.9459	0
30.9447	3
31.9338	0
35.0799	0
35.9208	1
36.3285	0
36.9320	6
37.6141	0
37.9330	17
38.2935	0
38.5346	0
38.7109	0
38.9394	113
39.3827	0
39.6730	0
39.9509	15
40.9540	205
41.4458	0
41.9522	7
42.3572	0
42.9471	134
43.3142	0
43.9307	3
44.8397	0
44.9484	3
47.9063	0
48.5822	0
48.9199	3
49.0218	0
49.3329	1
49.6904	0
49.9279	33
50.5802	0
50.7129	0
50.9335	81
51.2177	0
51.6395	0
51.9407	28
52.9498	116
53.9549	6
54.4998	0
54.9557	266
55.2387	0
55.7437	0
55.9655	21
56.2617	0
56.6760	0
56.9738	82
57.4512	0
57.9415	1
58.1896	0
58.9584	15
59.2682	0
59.7829	0
60.4541	1
60.9210	5
61.2956	0
61.4722	0
61.9276	19
62.0716	0
62.2785	0
62.9337	64
63.1237	0
63.3537	1
63.4402	0
63.5251	0
63.9401	14
64.4543	0
64.9433	107
65.2304	0
65.4959	0
65.5905	0
65.9421	19
66.5688	1
66.9533	143
67.1491	0
67.2583	0
67.6686	0
67.9570	4
68.3978	0
68.6077	1
68.9684	254
69.5039	0
69.9369	5
70.9521	23
71.0948	0
71.1850	0
71.8225	0
71.9639	1
72.9396	1
73.5428	0
73.9109	13
74.9246	24
75.1600	0
75.3411	1
75.5502	0
75.9206	15
76.1341	0
76.2676	0
76.9296	267
77.1898	2
77.4105	1
77.9242	53
78.2079	1
78.4270	2
78.9434	221
79.1998	1
79.4594	0
79.9509	30
80.2046	0
80.4384	2
80.5401	1
80.9555	211
81.2363	1
81.6802	1
81.9350	4
82.4394	1
82.9510	60
83.1067	1
83.2612	0
83.4479	0
83.9210	1
84.0409	1
84.5677	0
84.9483	64
85.1167	1
85.3697	0
85.5014	0
85.9085	7
86.9039	11
87.4453	0
87.9203	7
88.1073	1
88.1781	1
88.5129	2
88.9254	32
89.2001	2
89.5519	2
89.9329	13
90.2462	2
90.9356	470
91.2598	1
91.4852	2
91.6641	0
91.9435	46
92.1366	1
92.2564	1
92.3775	0
92.9538	276
93.3602	1
93.7026	0
93.9668	20
94.2050	1
94.4610	1
94.5911	0
94.9758	153
95.2254	0
95.7734	0
95.9545	8
96.5082	0
96.9604	44
97.1939	1
97.3989	0
97.6908	1
97.9168	3
98.9389	3
99.4013	0
99.7147	0
99.9232	2
100.3827	0
100.9210	8
101.1231	1
101.2532	1
101.3512	1
101.5239	1
101.9330	28
102.2257	1
102.3524	1
102.5056	1
102.9483	90
103.1778	2
103.3641	1
103.9388	42
104.3038	2
104.9615	521
105.3148	1
105.5782	1
105.9636	53
106.1764	1
106.4856	1
106.9777	222
107.2331	1
107.3220	1
107.5347	1
107.9684	18
108.2785	0
108.4466	0
108.9845	100
109.2202	1
109.4617	1
109.9336	5
110.1541	0
110.9574	34
111.3291	0
111.9202	2
112.0706	1
112.4937	2
112.9354	8
113.1858	2
113.3082	1
113.6028	3
113.9295	11
114.0659	3
114.9188	261
115.4031	2
115.9324	92
116.9386	246
117.1855	2
117.2866	2
117.4578	1
117.9343	51
118.2568	1
118.3492	1
118.9486	493
119.2500	2
119.3932	2
119.5402	2
119.9541	58
120.1590	1
120.4692	1
120.9560	181
121.2469	1
121.3536	1
121.5322	1
121.6447	1
121.9517	14
122.2296	0
122.4924	1
122.9551	41
123.2340	0
123.3334	0
123.4175	0
123.5532	1
123.9554	5
124.1358	1
124.4445	1
124.9365	10
125.0795	2
125.1587	1
125.3043	1
125.5036	1
125.9049	16
126.9116	91
127.4999	4
127.9119	285
128.3028	3
128.9153	308
129.3395	1
129.9239	122
130.3499	2
130.9298	307
131.2997	2
131.5004	2
131.9337	63
132.3878	2
132.5527	2
132.9349	314
133.3250	2
133.4676	1
133.9438	38
134.2401	1
134.5229	1
134.9409	102
135.1808	2
135.4207	1
135.9344	10
136.0561	3
136.2218	1
136.4129	2
136.9388	81
137.2680	1
137.4275	0
137.9281	11
138.1363	0
138.2285	0
138.4335	1
138.9204	52
139.3036	2
139.9319	16
140.1159	4
140.3240	2
140.9075	245
141.1639	2
141.9192	207
142.4091	2
142.9293	351
143.2834	2
143.4817	1
143.9372	112
144.1650	3
144.9389	331
145.4441	4
145.9358	49
146.2144	2
146.4381	1
146.9434	158
147.2282	1
147.3552	1
147.5583	1
147.9441	21
148.1977	1
148.5124	2
148.9576	50
149.2528	1
149.5133	1
149.9110	9
150.2071	0
150.4179	3
150.5269	1
150.9250	27
151.2490	3
151.9209	106
152.2807	4
152.9157	135
153.3489	2
153.9292	68
154.1651	3
154.4353	2
154.9456	236
155.2206	2
155.9529	167
156.1767	2
156.3192	3
156.4487	2
156.9638	300
157.2914	2
157.9728	69
158.1705	3
158.3233	2
158.9735	171
159.3196	2
159.4996	2
159.9770	36
160.2584	1
160.4227	1
160.9773	73
161.2258	1
161.4221	1
161.9605	17
162.2703	1
162.4448	1
162.9770	48
163.2419	2
163.9551	16
164.1272	5
164.4082	2
164.9513	228
165.2505	3
165.3888	1
165.5424	3
165.9602	71
166.2929	3
166.9658	162
167.3461	2
167.6652	3
167.9828	75
168.2592	2
168.5416	2
168.9823	219
169.4305	4
169.5675	3
169.9912	84
170.9876	168
171.3232	2
171.5257	1
171.9993	43
172.2145	1
172.4251	1
172.6351	1
172.9944	110
173.3365	2
173.5239	2
173.9788	20
174.3212	1
174.4526	1
175.0007	67
175.5182	2
175.9591	24
176.9422	28
177.9326	110
178.3929	2
178.9504	156
179.2155	1
179.5510	1
179.9643	77
180.1907	2
180.9593	168
181.3394	1
181.9704	66
182.3555	3
182.4554	2
182.9721	188
183.3527	2
183.5346	2
183.9785	45
184.3163	2
184.4822	1
184.9753	88
185.3362	3
185.6582	2
185.9809	18
186.3104	0
186.4610	2
186.6346	1
186.9891	61
187.3282	3
187.4769	1
187.9696	11
188.1614	3
188.9426	68
189.2962	3
189.9559	30
190.2262	2
190.4351	0
190.9496	89
191.2955	2
191.4014	1
191.9505	68
192.2164	2
192.4256	2
192.9514	130
193.4456	3
193.9657	70
194.2048	3
194.9656	183
195.9763	58
196.9767	126
197.2744	1
197.4740	2
197.9789	28
198.2721	1
198.4698	2
198.9858	53
199.3082	3
199.5372	2
199.9600	27
200.2188	1
200.5164	2
200.9882	49
201.9336	54
202.3012	2
202.5516	4
202.9737	74
203.3158	2
203.9519	31
204.2392	1
204.3519	2
204.9578	83
205.2879	2
205.9634	58
206.3604	2
206.9716	122
207.3035	0
207.9797	49
208.2096	3
208.4458	3
208.9888	125
209.4381	2
209.9897	31
210.5481	3
210.9991	61
211.5088	1
211.6233	2
212.0056	15
212.3697	1
212.5367	1
212.9874	40
213.3734	1
213.5542	2
214.0132	14
214.4220	2
214.9850	78
215.2983	1
215.9694	33
216.2248	2
216.3710	1
216.4809	2
216.9830	62
217.5295	2
217.6430	1
217.9963	26
218.4624	2
218.9977	70
219.3437	1
220.0154	33
220.2541	3
220.5168	1
221.0225	69
221.4865	1
222.0177	27
222.3600	1
222.6408	2
223.0407	65
223.4825	1
224.0080	13
224.5541	4
225.0510	40
225.2615	3
225.5048	2
225.9964	21
226.3764	1
227.0095	26
227.3868	1
227.5377	1
227.6859	2
228.0256	16
228.3576	2
228.5349	2
229.0092	41
229.3885	1
229.4878	0
230.0096	21
230.2404	2
230.3958	1
231.0178	44
231.4913	2
231.5892	1
232.0086	23
232.3390	1
233.0238	58
233.4222	2
233.6553	2
234.0456	20
234.5161	3
234.6828	2
235.0382	52
235.2770	2
235.3826	1
235.5364	1
236.0470	13
236.2886	2
236.6236	2
237.0472	37
237.4276	2
237.6481	2
238.0299	9
238.3905	2
239.0020	39
239.5291	2
239.7290	3
240.0432	8
240.4061	2
241.0145	31
241.4113	1
241.5798	1
241.9911	20
242.3983	2
243.0264	35
243.3065	1
244.0160	21
244.2721	1
245.0142	40
245.3227	2
245.5093	2
245.6836	2
246.0245	13
246.2545	1
246.4660	1
246.6534	2
247.0413	43
247.3748	1
247.4940	0
247.6966	1
248.0467	13
248.3320	2
248.5540	2
249.0545	40
249.3772	1
249.5351	1
249.7268	2
250.0799	10
250.3661	2
250.5923	2
251.0511	23
251.3257	1
251.5023	2
252.0357	9
252.3421	0
252.4574	1
253.0393	25
253.3762	2
254.0100	9
254.1688	4
254.4056	1
254.6134	1
255.0393	28
255.3894	1
256.0441	9
256.3101	2
256.4827	1
256.6520	2
257.0430	33
257.5515	0
258.0435	11
258.3304	0
258.4638	1
258.5909	1
259.0493	33
259.3839	1
259.4751	1
260.0615	17
260.3616	1
260.5829	2
261.0533	37
261.4123	1
262.0176	8
262.3546	2
262.4792	2
263.0536	22
263.4751	2
263.6309	1
263.8828	2
264.0476	8
264.1978	4
264.4229	1
265.0502	22
265.4457	2
265.6735	0
266.0420	9
266.2492	1
266.6260	3
267.0619	21
267.5462	1
268.0341	10
268.5068	1
268.6469	1
269.0684	26
269.3713	1
269.6376	1
270.0842	9
270.6501	2
271.0656	16
271.4575	1
271.6400	1
271.7628	1
272.0828	9
272.6407	1
273.0673	17
273.4904	1
273.7826	3
274.1227	7
274.4648	1
274.6962	2
275.0793	17
275.3391	2
275.6073	5
276.0625	8
276.4215	1
277.0827	17
277.3752	2
278.0519	5
278.3396	1
278.4513	1
279.0656	14
279.3958	2
280.0547	8
280.2337	2
281.0739	19
281.3917	1
281.5984	1
281.6928	1
282.0558	11
282.3834	1
282.5694	4
283.0880	38
283.6621	1
284.0634	13
284.1939	4
284.5432	1
285.0704	17
285.4440	1
285.6941	1
286.0651	6
286.2735	1
286.6042	1
287.0940	17
287.4880	1
288.0224	5
288.5343	1
288.6461	0
289.0698	13
289.4185	0
289.5227	1
289.8124	1
290.0778	6
290.4968	1
290.6705	1
291.0374	9
291.3703	1
291.5448	0
291.6747	0
291.8513	1
292.0848	6
292.3601	0
292.6021	1
293.0595	13
293.4037	0
293.5851	0
293.7103	0
294.0476	4
294.4614	1
295.0602	12
295.3719	0
295.5826	2
295.9041	3
296.0954	5
296.4217	2
296.7439	1
297.0688	12
297.4279	0
297.5727	1
298.0299	4
298.4065	0
299.0595	11
299.3185	1
299.4884	1
299.6617	1
300.0573	4
300.1505	2
300.5043	1
300.6596	1
301.0461	8
301.4320	1
301.6020	0
302.0311	6
302.2129	1
302.4832	1
302.5689	0
302.7703	2
303.0678	8
303.2768	1
303.4113	1
303.7800	0
304.0225	3
304.1842	2
304.3668	0
304.7648	2
305.0394	9
305.1551	3
305.4298	0
305.6598	0
306.0049	3
306.2566	0
306.4170	0
306.6004	0
306.7231	0
307.0718	11
307.4219	0
307.7204	0
308.0328	3
308.4416	1
308.6013	0
309.0436	7
309.1880	3
309.3129	1
309.5034	0
310.0323	3
310.2451	2
310.5117	1
310.6792	0
311.0609	9
311.4392	0
311.7163	0
312.0318	3
312.1651	3
312.4074	1
312.5889	1
312.9121	5
313.0867	6
313.4148	0
313.5775	0
314.0587	3
314.2926	1
314.6718	2
315.0650	9
315.3368	2
315.5261	1
315.7028	0
315.9256	2
316.1506	5
316.4146	1
316.6194	0
317.0882	6
317.3509	1
317.4683	0
317.7457	1
317.8645	1
318.1126	4
318.4774	1
318.6054	0
319.0541	10
319.2002	4
319.3239	1
319.4504	0
319.6287	0
319.7489	0
320.0426	3
320.2104	1
320.3145	0
320.9934	5
321.1613	7
321.3941	1
321.7130	1
322.0914	3
322.4110	0
323.0475	4
323.2553	1
323.7191	1
324.0374	1
324.5440	1
324.7294	0
325.0688	4
325.7616	1
325.8701	1
326.1003	3
326.3488	1
326.7849	1
327.1026	6
327.4456	0
327.7061	1
327.7880	1
328.0638	2
328.3432	0
328.6429	1
328.7220	0
329.0840	6
329.7563	1
330.0694	3
330.3012	0
330.4742	0
330.6920	1
330.7817	1
331.1137	12
331.3269	1
331.5240	1
331.7617	0
332.1120	2
332.2602	1
332.5594	0
332.6993	0
333.1307	12
333.6244	1
333.8867	2
334.0426	5
334.2112	4
334.3902	1
334.5553	1
334.7189	1
335.1198	10
335.5576	1
335.6675	0
335.7787	1
335.9179	2
336.0837	6
336.2348	3
336.3314	1
336.4888	1
336.5994	1
336.7141	1
337.1059	4
337.6700	1
338.2508	2
338.4741	2
338.6196	1
338.7673	1
339.1208	3
339.2965	1
339.4203	1
339.5352	1
339.8166	0
340.0112	2
340.2156	1
340.4970	0
341.1048	4
341.5893	0
341.8694	1
342.0501	3
342.1936	1
342.4948	1
342.6706	0
343.0516	5
343.3037	1
343.4088	0
343.5783	1
343.6672	0
343.9439	1
344.1247	4
344.2620	1
344.4189	1
344.7979	0
345.1097	6
345.4333	1
345.6478	1
345.7325	0
345.9967	1
346.1733	3
346.3373	0
346.4536	1
346.6491	1
347.1060	12
347.3759	2
347.5833	1
347.8889	1
348.1651	9
348.5661	1
349.1311	7
349.5041	1
350.1077	4
350.4352	1
351.0999	5
351.3187	1
351.7395	0
351.8391	0
352.0004	1
352.1519	1
352.2578	1
352.3862	0
352.8302	1
353.1746	4
353.6874	1
353.9484	1
354.1069	2
354.2585	0
354.5714	0
354.7454	0
355.1439	4
355.4688	0
355.7460	1
355.8288	0
356.2057	3
356.4190	1
356.5727	0
356.7636	0
357.1342	4
357.3665	1
357.6164	1
357.7898	1
357.8775	0
358.1350	3
358.3497	0
358.5966	0
359.0995	7
359.4741	0
359.6081	0
360.1406	3
360.3433	2
360.5391	1
360.6590	0
360.8513	1
361.1888	8
361.5207	0
361.8400	1
362.1607	7
362.5754	1
362.7488	0
363.1783	13
363.6331	1
363.9195	1
364.1954	2
364.4383	0
364.7668	0
365.0820	3
365.2899	0
365.4366	1
365.6697	1
366.0032	1
366.1738	3
366.2454	1
366.4350	0
366.9287	0
367.1541	3
367.6780	0
367.9364	1
368.0249	0
368.2813	1
368.8474	0
369.1326	2
369.2485	1
369.3609	1
369.5035	0
370.2306	2
370.6205	1
370.7540	1
370.8158	0
371.1833	4
371.3456	2
371.6224	1
371.7616	0
371.9794	0
372.2035	3
372.3676	1
372.5528	0
372.6615	0
372.7660	1
373.1539	7
373.6976	1
373.8148	1
374.1424	5
374.7612	0
375.1577	6
375.8215	0
376.1948	5
376.5492	1
376.7787	0
376.9163	1
377.1472	3
377.4321	1
377.5606	0
377.8540	1
378.1074	1
378.2934	1
378.6521	0
378.8802	1
379.0585	2
379.1786	2
379.2769	1
379.5921	1
379.8006	0
379.9551	1
380.1762	1
380.4002	1
380.9865	3
381.1508	2
381.3299	2
381.4760	1
381.6066	0
381.7091	1
382.0504	2
382.2232	0
383.1707	4
383.3505	1
383.6834	0
383.7944	0
384.1042	2
384.2657	1
384.4020	0
384.9879	2
385.1980	5
385.3645	1
385.5429	1
385.6455	1
385.9005	1
386.1099	2
386.2947	1
386.8259	1
386.9320	0
387.0656	0
387.2033	1
387.3509	2
387.4717	1
387.6678	1
387.9039	1
388.1267	4
388.2595	1
388.3636	1
388.8583	0
389.0186	0
389.2330	3
389.5458	1
389.9050	1
390.1974	2
390.4730	1
390.7703	0
391.1978	1
391.3054	1
391.5788	0
391.8509	0
392.0155	1
392.1526	1
392.3291	0
392.4345	0
392.7896	0
393.0948	1
393.2664	1
393.9408	0
394.1293	1
394.3719	1
394.6258	0
395.0893	3
395.3622	2
395.5078	1
395.6605	0
395.9932	1
396.1479	1
396.3091	1
396.4561	1
396.6706	0
397.1335	2
397.2707	2
397.5782	0
397.6732	0
397.9651	1
398.1009	1
398.2283	1
398.4323	1
398.7412	1
398.9369	1
399.2148	3
399.7567	0
399.8594	0
400.1388	3
400.3506	2
400.9080	2
401.0938	4
401.2297	7
401.3353	3
401.6731	1
402.1757	5
402.3721	2
402.9894	2
403.2379	2
403.4245	1
403.6245	0
403.7723	0
404.1309	3
404.3241	0
405.0675	1
405.1814	1
405.3254	1
405.5447	1
406.1694	1
406.3086	0
406.7106	0
406.8553	0
407.2180	2
407.3677	1
408.3026	2
408.6049	1
408.7771	0
408.9106	0
409.1201	3
409.2277	1
409.4119	1
409.8168	1
409.9223	1
410.0910	1
410.6907	1
410.7962	0
411.1457	4
411.3018	2
411.4466	0
411.6491	1
412.0879	5
412.2729	1
412.3593	0
412.5605	1
413.1322	23
413.6731	0
414.2386	4
414.6887	2
414.7928	2
415.1917	3
415.5117	0
416.2637	5
416.3615	2
416.5916	0
416.8153	1
416.9884	1
417.1298	2
417.3648	1
417.5927	1
417.7553	1
417.9073	1
418.0311	0
418.2746	2
418.4251	1
418.6496	2
419.0282	1
419.1570	2
419.2689	1
419.3835	1
419.5581	0
419.7108	0
419.8340	0
419.9599	0
420.1619	1
420.4089	2
420.7606	1
420.9054	1
421.1852	3
421.3454	1
421.6048	0
421.8143	1
421.9690	1
422.2115	1
422.3050	0
422.4203	0
422.7233	0
422.9090	0
423.2408	2
423.4925	0
423.7007	1
423.9102	0
424.1535	1
424.2878	0
424.5009	1
424.6598	0
425.0002	0
425.2027	1
425.4523	1
425.6049	1
425.8152	0
426.2393	6
426.5881	1
426.8041	1
427.2219	3
427.5039	1
427.6467	1
427.9365	1
428.1890	6
428.3832	3
428.6554	0
428.7722	0
428.9509	2
429.2576	3
429.4089	1
429.6530	1
429.8289	0
429.9485	2
430.0871	2
430.2883	2
430.4726	1
430.5782	0
430.8364	0
431.1418	4
431.2515	1
431.4886	1
431.8729	1
432.1501	2
432.3253	1
432.4640	1
432.7412	1
433.1396	1
433.3021	1
433.4555	1
433.7082	1
434.0503	1
434.2705	1
434.6689	2
435.0180	3
435.1313	2
435.2658	2
435.4390	2
435.6332	1
435.7318	1
435.9388	1
436.1323	2
436.4097	3
436.5744	1
436.6969	2
437.1123	4
437.6072	6
438.3972	17
439.2097	19
439.5871	11
439.9033	8
440.1413	5
440.3758	5
440.6251	5
440.9399	2
441.1688	2
441.3470	2
441.5061	1
441.7357	1
442.1407	2
442.3802	1
442.5541	2
442.7056	1
442.9774	1
443.1099	2
443.2768	3
443.3958	1
443.5593	1
443.6530	1
443.9192	3
444.1045	2
444.2200	2
444.3891	3
444.6399	2
444.8533	2
445.1055	3
445.3359	2
445.5614	2
445.7410	1
445.9707	2
446.1736	1
446.5745	1
446.7028	0
447.1523	2
447.2855	2
447.4377	1
447.6589	1
447.9577	1
448.2466	1
448.4052	1
448.5609	0
448.7730	0
448.9175	1
449.0429	1
449.2036	1
449.3791	1
449.5940	1
449.7068	1
449.8773	0
450.0233	0
450.2114	2
450.6971	2
451.1453	3
451.7071	2
451.8636	2
452.1681	3
452.4268	3
452.7525	1
453.0457	3
453.1747	3
453.3157	4
453.5216	2
453.7768	2
454.1624	3
454.5685	2
454.6962	1
455.2813	4
455.5101	1
455.6044	0
455.7839	1
456.1648	3
456.4492	1
456.7103	1
456.9349	0
457.0623	0
457.2341	3
457.4397	1
457.7030	1
457.9388	1
458.2036	1
458.4690	1
458.6042	0
458.8907	1
459.3062	2
459.6287	0
459.7378	1
459.8308	0
460.0301	2
460.2610	5
460.5117	0
460.6575	1
460.8413	1
460.9941	0
461.2680	2
461.4279	0
461.5413	0
461.7272	0
462.1188	0
462.2547	0
462.5146	1
462.8160	1
462.9844	0
463.2436	2
463.3844	0
463.5112	0
463.6514	0
464.0001	0
464.1557	1
464.3424	1
464.8193	1
464.9383	1
465.2074	3
465.4575	2
465.6090	1
466.2458	4
466.6122	1
466.8630	0
466.9807	1
467.2244	2
467.4753	1
467.7042	1
468.2721	10
468.7985	1
469.0550	1
469.2727	1
469.4566	1
469.6180	0
469.8618	1
470.0211	2
470.2656	2
470.4157	1
470.6687	1
470.8689	0
470.9753	0
471.1888	1
471.4383	2
471.5821	1
471.7301	2
472.0882	2
472.3369	1
472.6739	2
472.8508	2
473.0524	2
473.2427	3
473.5874	4
473.8094	7
474.2768	132
474.9458	2
475.2489	1
475.4068	1
475.7720	2
475.9920	2
476.1746	0
476.4650	1
476.5722	1
476.7689	1
476.9008	0
477.1172	0
477.3167	1
477.5198	1
477.7208	0
477.9690	0
478.1311	1
478.3067	2
478.4054	1
478.6015	1
478.9984	2
479.1515	2
479.3560	1
479.7340	1
479.9152	0
480.1098	1
480.3828	1
480.6141	1
480.9173	1
481.1261	1
481.5027	0
481.7898	0
482.0571	1
482.3463	1
482.4683	1
482.6714	0
482.9622	0
483.2164	1
483.3698	1
483.4522	0
483.6078	0
483.8839	1
484.1141	1
484.3535	0
484.4810	0
485.1513	1
485.3809	4
485.5492	2
486.2541	5
486.7725	0
486.9443	1
487.2169	5
487.4000	4
487.5810	0
488.3677	1
488.6523	0
489.0657	0
489.5179	1
490.0519	0
490.2273	0
490.4837	0
490.7148	1
491.0613	1
491.3615	1
491.7567	0
492.2653	2
492.4281	1
492.6775	2
492.9938	1
493.1749	1
493.3905	3
493.5596	1
493.6998	1
493.9824	2
494.2705	1
494.4770	2
494.6313	1
494.8878	1
495.1147	2
495.2183	1
495.3599	2
495.7792	1
495.9258	1
496.4515	1
496.7122	1
497.1344	0
497.3641	1
497.6193	1
497.8208	1
498.4791	1
498.6821	1
498.8097	2
498.9704	1
499.0824	1
499.1670	1
499.2932	0
499.4362	1
499.5166	1
499.6660	0
499.7760	1
499.9783	1
500.3329	1
500.4992	0
501.2422	1
501.4199	0
501.8456	1
502.0663	0
502.6134	1
502.7544	0
503.0575	1
503.2556	1
503.6963	1
504.3893	1
504.5008	1
504.6685	0
504.8998	0
505.2143	1
505.5083	1
505.6395	0
505.9046	0
506.0175	1
506.1803	1
506.3192	1
506.5393	1
506.7304	1
507.1493	2
507.2860	0
507.5555	1
507.8876	0
508.2205	2
508.4497	1
508.9186	2
509.1847	2
509.3655	2
509.5099	2
509.8013	0
509.9568	0
510.3145	3
510.5404	0
510.6819	1
511.0247	1
511.2303	1
511.3951	1
511.5887	0
512.1350	1
512.6166	0
513.0488	0
513.4656	0
513.6480	1
513.7980	0
513.9431	1
514.4092	1
514.6359	0
514.7380	1
515.1196	1
515.7752	0
515.8816	0
516.2189	1
516.8759	1
516.9435	0
517.1343	0
517.2808	1
517.8147	1
518.2626	1
518.4175	1
518.6161	0
518.9317	2
519.2043	2
519.3212	1
519.4803	1
519.8029	2
520.2150	3
520.3333	1
520.5552	1
521.1716	2
521.4026	3
521.5358	3
521.7280	2
521.9352	4
522.2451	5
522.4402	2
522.6459	0
522.8848	1
523.2300	2
523.4371	1
523.6230	2
523.7809	2
523.9000	1
524.0021	1
524.3389	2
524.6700	2
524.7545	1
525.0709	3
525.5303	3
525.6895	2
525.9974	2
526.2341	1
526.3779	2
526.5118	1
526.6379	2
526.7457	2
526.9289	2
527.0198	1
527.1551	1
527.2749	1
527.5244	4
527.8442	2
528.1938	1
528.4150	2
528.5426	1
528.6765	1
528.8463	1
529.1028	3
529.4319	2
529.5941	2
529.7399	2
530.0063	4
530.1797	1
530.4088	3
530.7203	2
530.9331	1
531.1622	3
531.2644	1
531.4032	2
531.6386	2
532.1686	4
532.3639	3
532.4872	2
532.6169	1
533.2845	13
533.5178	10
533.8498	0
534.2170	2
534.4842	3
534.7359	1
535.2864	8
535.4860	4
535.5931	2
535.8596	2
536.2325	5
536.5928	7
537.3387	44
537.7921	5
538.5366	8
538.7968	7
539.0605	4
540.0427	9
540.6414	8
541.9044	10
542.5144	8
542.9142	9
543.6809	10
544.1823	11
544.7981	13
545.8920	15
547.3155	36
548.3553	251
549.3902	21
549.7028	10
550.3469	32
551.3685	120
552.3124	10
552.9437	11
553.2471	10
553.8665	9
554.0712	10
554.4380	9
555.0137	8
555.6423	10
556.6503	10
558.3976	15
566.3022	999
567.3650	302
568.0651	149
568.8180	77
569.7513	37
570.5846	18
571.7631	15
571.9702	9
572.3386	8
573.1241	5
573.4299	6
573.7617	5
