Mass spectrum: Heteroxanthin; FAB-EBEB; MS2; m/z: 600.42; [M]+*
Name: Heteroxanthin
Formula: C40H56O4
Exact mass: 600.41786
SMILES: CC(C)(C=1C#CC(C)=CC=CC(=CC=CC=C(C=CC=C(C)C=CC(C(C)(O)2)(C(C)(C)CC(O)C2)O)C)C)CC(CC(C)1)O
InChI: InChI=1S/C40H56O4/c1-29(17-13-19-31(3)21-22-36-33(5)25-34(41)26-37(36,6)7)15-11-12-16-30(2)18-14-20-32(4)23-24-40(44)38(8,9)27-35(42)28-39(40,10)43/h11-20,23-24,34-35,41-44H,25-28H2,1-10H3/b12-11+,17-13+,18-14+,24-23+,29-15+,30-16+,31-19+,32-20+/t34-,35+,39-,40-/m1/s1
Instrument: JMS-HX/HX 110A, JEOL
Instrument type: FAB-EBEB
Ms type: MS2
Ion mode: POSITIVE
Collision energy: 3 kV
Ionization: FAB
Base peak: 582.5742
Precursor m/z: 600.42
Precursor type: [M]+*
m/z	relative intensity
0.0034	0
1.0214	0
1.2822	0
2.9262	0
3.1217	0
6.0906	0
7.0792	0
7.1685	0
9.4279	0
12.0153	0
13.0264	0
14.0298	1
15.0370	5
16.0475	0
16.3434	0
17.3731	0
19.0415	0
19.3756	0
20.0382	0
21.0742	0
23.0157	0
24.3425	0
24.4745	0
25.0079	0
25.6133	0
26.0382	4
27.0426	35
28.0477	3
29.0508	40
30.0372	0
31.0375	6
34.5751	1
35.9430	0
37.0130	3
37.4011	0
38.0327	8
38.6089	0
39.0424	66
40.0521	7
40.3949	0
41.0535	146
41.3978	1
42.0474	7
43.0300	473
44.0333	4
45.0428	8
45.4066	0
46.0380	0
47.0113	2
47.8816	0
48.3791	0
49.0148	1
49.6182	0
50.0267	16
50.5811	0
51.0307	38
52.0395	12
53.0386	63
53.5647	0
54.0481	4
55.0440	175
56.0366	6
56.4044	0
57.0573	104
58.0491	4
59.0445	35
59.5329	0
60.0495	0
60.6412	0
61.0259	10
62.0260	12
62.4485	0
63.0295	41
64.0236	8
64.3596	0
65.0369	64
66.0543	11
66.5243	0
67.0443	110
67.6706	0
68.0509	6
69.0371	210
70.0218	15
70.4886	1
71.0331	82
72.0262	1
72.3443	0
73.0254	6
73.4635	0
74.0188	16
74.4467	0
75.0221	25
76.0274	15
77.0293	235
77.5701	2
78.0357	45
79.0426	211
80.0420	35
81.0443	263
81.5293	1
82.0282	13
83.0562	405
84.0671	7
85.0406	270
86.0220	14
87.0221	124
88.0179	12
89.0596	42
90.0294	15
91.0544	567
91.6707	1
92.0561	50
93.0615	325
93.6314	1
94.0610	24
94.4485	1
95.0653	236
96.0465	23
97.0587	78
97.6236	0
98.0442	20
99.0399	35
99.6195	0
100.0640	3
101.0556	18
102.0547	46
103.0669	132
104.0671	55
105.0719	698
106.0759	64
107.0831	332
107.5860	3
108.0751	31
109.0812	213
110.0721	13
110.5316	2
111.0718	88
112.0845	8
113.0677	75
114.0554	20
115.0617	398
116.0582	131
117.0663	331
118.0644	64
119.0727	663
120.0682	60
121.0766	286
122.0721	33
123.0662	179
123.5522	2
124.0674	12
125.0700	245
126.0566	39
127.0561	182
128.0570	477
129.0577	544
130.0612	194
131.0688	465
132.0704	93
133.0762	373
134.0730	36
135.0740	147
136.0615	22
137.0604	66
138.0562	16
139.0663	125
140.0820	33
141.0591	437
142.0608	355
143.0695	612
144.0719	175
145.0798	581
146.0784	59
147.0884	263
147.5960	5
148.0713	26
149.0892	79
150.0770	26
151.0746	92
152.0792	235
153.0802	288
154.0837	131
155.0896	489
156.0979	272
157.0996	578
158.1008	136
159.1058	318
160.1177	55
161.1050	107
162.1246	17
163.1076	65
164.1139	46
165.1000	507
166.1064	170
167.1166	362
168.1202	149
169.1290	428
170.1356	148
171.1419	334
172.1319	61
173.1468	187
174.1322	29
175.1319	81
176.1143	67
177.1411	73
178.1067	304
179.1092	444
180.1200	191
181.1179	472
182.1225	152
183.1293	382
184.1246	93
185.1251	167
186.1202	36
187.1174	76
188.1366	32
189.1076	196
190.1082	77
191.1155	290
192.1051	201
193.1045	430
194.1136	204
195.1127	435
196.1306	120
197.1247	289
198.1346	47
199.1313	112
200.1086	37
201.1110	77
202.0971	185
203.1052	208
204.1138	86
205.1061	247
206.1158	183
207.1229	388
208.1337	158
209.1295	319
210.1351	73
211.1428	145
212.1077	29
213.1287	81
214.1347	26
215.1087	209
216.1281	108
217.1294	228
218.1388	95
219.1411	266
220.1515	132
221.1561	344
222.1644	88
223.1684	179
224.1651	43
225.1715	106
226.1551	82
227.1577	84
228.1561	84
229.1550	179
230.1666	93
231.1678	212
232.1664	107
233.1858	321
234.2060	100
235.1954	195
236.2087	50
237.1942	113
238.2129	28
239.1712	111
240.1875	42
241.1731	93
242.1730	63
243.1717	170
244.1661	87
245.1890	221
246.1873	115
247.1937	218
248.2021	67
249.2108	145
250.2104	37
251.1917	69
252.1732	55
253.1771	97
254.1985	46
255.1983	127
256.1921	66
257.2020	162
258.2106	76
259.2053	163
260.2236	60
261.2171	153
262.2282	37
263.2177	95
264.2357	28
265.2053	76
266.1987	47
267.2098	112
268.2117	48
269.2108	125
270.2180	60
271.2193	116
272.2098	48
273.2273	123
274.2247	45
275.2381	92
276.2014	29
277.2374	62
278.2200	21
279.2200	73
280.2345	34
281.2397	117
282.2626	49
283.2353	101
284.2445	41
285.2461	107
286.2684	50
287.2453	78
288.3029	22
289.2550	60
290.2421	16
291.2452	52
292.2343	17
293.2505	62
294.2286	34
295.2581	80
296.2642	27
297.2436	71
298.2406	32
299.2537	93
300.2686	28
301.2490	61
302.2437	18
302.6519	5
303.2546	36
304.2673	12
305.2564	32
306.2379	16
307.2607	55
308.2521	25
309.2421	40
310.2498	23
311.2497	58
312.2657	34
313.2518	58
314.2191	12
315.2595	53
316.2812	13
317.2602	46
318.2505	12
319.2520	47
320.2602	15
321.2638	34
322.2787	18
323.2827	34
324.2647	17
325.2548	46
326.2641	15
327.2784	40
328.2564	13
329.2679	41
330.2812	9
331.3010	51
332.2972	14
333.2729	68
334.2949	25
335.3123	48
336.3219	16
337.2760	24
338.2874	8
338.5847	3
339.2939	25
340.2433	10
341.2852	29
341.7163	2
342.3813	9
343.2979	29
344.3228	12
345.3016	46
346.2903	26
347.2902	70
348.3158	21
349.3128	111
350.2957	10
351.2916	20
352.3322	9
353.3028	22
354.2959	4
355.3354	21
356.3383	7
357.3207	20
358.3496	13
359.3147	39
360.3072	25
361.3348	31
362.3452	17
363.3300	10
364.3039	5
365.3163	20
366.4096	7
367.3367	11
368.3214	6
369.3109	14
370.3836	4
371.3495	23
372.3443	10
373.3424	30
374.3503	22
375.3231	18
376.3408	7
377.3203	8
378.4134	4
379.3468	12
380.3795	5
381.3710	17
382.3818	5
383.3672	21
384.3160	7
385.3687	21
386.3497	10
387.3260	6
387.8613	1
388.4191	2
389.3237	4
389.8496	2
390.3516	2
391.3156	7
392.3853	3
393.3719	7
393.6310	3
394.3411	5
395.3839	13
396.4109	10
397.3485	20
398.3405	8
399.3775	43
400.3490	14
401.3574	34
402.3835	5
403.3394	5
403.8966	2
404.4330	4
405.4195	5
406.4653	3
407.3527	4
408.3299	3
409.4370	7
410.4192	5
411.4336	17
412.4000	14
413.3770	31
414.3798	46
415.4019	17
416.4753	4
417.3777	5
418.3490	2
419.4211	6
420.4134	2
421.3930	5
422.2174	2
423.3701	7
424.3900	4
425.4100	8
426.3949	34
427.3831	20
428.4114	39
429.4046	15
430.4712	3
431.2617	4
432.3517	3
432.8543	2
433.4242	3
433.9380	1
434.3943	2
434.8633	1
435.4157	6
436.3988	4
437.4012	11
438.3397	4
438.6824	1
439.3999	17
440.4315	4
441.3910	24
442.4099	10
443.4402	6
443.8135	2
444.4288	3
445.0794	2
445.4929	2
446.3407	3
447.3361	6
448.2770	2
448.8060	2
449.4120	6
449.7262	3
450.4076	4
451.3760	6
452.4039	4
453.3597	7
454.4118	8
455.3742	13
456.4168	18
457.3858	49
458.4286	4
459.4411	7
459.6978	3
460.3686	4
461.3957	6
462.3987	8
463.4725	6
463.9171	3
464.5368	3
465.4647	6
466.3932	5
467.4159	8
468.4851	6
469.4182	16
470.3785	7
470.7569	3
473.0869	23
473.9689	10
475.4461	9
476.4727	4
477.4994	7
479.1567	8
480.3858	8
481.4352	14
482.4719	12
483.4574	18
484.4589	10
485.4012	9
486.4125	10
487.4447	8
488.4787	13
490.4746	13
492.2331	6
493.5726	9
495.4529	14
496.4026	10
497.4757	25
498.4383	72
499.4298	18
500.4070	25
501.3665	4
502.4738	10
503.2072	2
503.8010	1
504.4446	2
506.1524	6
508.4319	68
509.4337	7
510.6781	5
511.5211	8
513.1462	10
514.4952	4
515.4622	10
516.2476	2
516.6765	2
517.6949	2
518.4692	2
518.8403	2
519.4058	2
519.7014	2
520.3826	4
521.5299	5
522.5397	3
523.5158	9
524.4503	8
525.4714	9
526.4702	11
527.5299	9
529.3674	4
530.1227	3
531.5322	4
533.2482	4
535.4874	5
537.4460	6
539.1819	6
541.4554	33
542.4375	21
543.4308	26
544.3247	6
545.6777	4
546.5187	4
547.2057	3
548.5508	3
549.4899	27
550.5093	2
551.4277	5
551.7697	2
552.4841	7
553.4282	7
554.5121	10
556.4745	16
557.8733	13
564.4335	97
565.4634	20
567.4861	208
568.5544	12
570.0559	5
571.5720	6
581.5372	156
582.5742	999
583.5373	71
585.4717	622
600.3054	999
604.6089	89
