Mass spectrum: 3'-O-Didehydrolutein; FAB-EBEB; MS2; m/z: 566.41; [M]+*
Name: 3'-O-Didehydrolutein
Formula: C40H54O2
Exact mass: 566.41238
SMILES: C(=CC=C(C=CC=C(C)C=CC(=C(C)2)C(C)(C)CC(C2)O)C)C=C(C=CC=C(C)C=CC(C=1C)C(C)(C)CC(C1)=O)C
InChI: InChI=1S/C40H54O2/c1-29(17-13-19-31(3)21-23-37-33(5)25-35(41)27-39(37,7)8)15-11-12-16-30(2)18-14-20-32(4)22-24-38-34(6)26-36(42)28-40(38,9)10/h11-25,36-37,42H,26-28H2,1-10H3/b12-11+,17-13+,18-14+,23-21+,24-22+,29-15+,30-16+,31-19+,32-20+/t36-,37+/m1/s1
Instrument: JMS-HX/HX 110A, JEOL
Instrument type: FAB-EBEB
Ms type: MS2
Ion mode: POSITIVE
Collision energy: 3 kV
Ionization: FAB
Base peak: 90.9451
Precursor m/z: 566.41
Precursor type: [M]+*
m/z	relative intensity
9.6635	0
11.9627	0
12.9358	1
13.9683	2
14.9671	5
18.9701	0
22.9024	0
23.6916	0
24.2845	0
24.8557	0
24.9503	1
25.9406	9
26.2715	0
26.9465	72
27.1519	1
27.9543	10
28.9530	66
29.9193	2
30.9330	5
33.5733	0
35.0580	0
35.9090	0
36.1268	0
36.3682	0
36.4502	0
36.9249	8
37.0580	0
37.2026	0
37.3408	0
37.4568	0
37.9243	24
38.2146	0
38.3794	0
38.4897	0
38.6025	0
38.9335	186
39.2320	1
39.5168	0
39.6548	0
39.9454	24
40.9502	313
41.9451	7
42.9426	161
43.9434	4
44.9392	7
47.8224	0
47.9539	0
48.1097	0
48.2003	0
48.4068	1
48.5063	0
48.9132	3
49.2299	1
49.9218	62
50.4391	1
50.5027	0
50.9307	137
51.1228	0
51.3345	0
51.5460	0
51.9338	48
52.4829	0
52.9442	222
53.4968	0
53.9580	10
54.2539	0
54.9579	361
55.1874	0
55.9619	11
56.5738	0
56.9677	115
57.4446	1
57.7652	0
57.9632	1
58.1728	0
58.5702	0
58.9585	25
59.6623	0
59.8199	1
59.9299	1
60.3645	0
60.5605	0
60.9265	8
61.0442	1
61.1845	0
61.3683	0
61.5400	0
61.9225	39
62.2376	0
62.3995	0
62.5233	1
62.9262	118
63.1379	2
63.3348	1
63.5879	0
63.9403	26
64.1000	1
64.2280	0
64.3829	1
64.9395	190
65.1367	0
65.2910	0
65.3912	0
65.9422	33
66.2996	1
66.9544	223
67.9484	10
68.4036	0
68.9558	241
69.1691	1
69.3609	0
69.4938	0
69.6017	0
69.9469	3
70.2588	0
70.4514	1
70.5706	0
70.9523	45
71.3294	0
71.8953	0
72.1526	0
72.3436	0
72.6794	0
72.9333	2
73.2599	1
73.4286	0
73.5478	1
73.9085	28
74.2841	0
74.9285	48
75.1715	2
75.3018	2
75.5196	1
75.9268	33
76.2891	2
76.9293	533
77.3067	4
77.9366	107
78.9470	418
79.2100	1
79.3741	1
79.5758	1
79.9497	48
80.2710	1
80.4533	1
80.9588	329
81.2163	2
81.4532	1
81.6585	0
81.9407	10
82.3389	1
82.4548	2
82.9512	151
83.3612	0
83.5123	0
83.9544	3
84.3880	1
84.9548	112
85.4086	1
85.5445	1
85.9161	11
86.9084	22
87.2597	0
87.9313	11
88.1748	1
88.3411	0
88.9327	67
89.2532	4
89.9438	24
90.1312	4
90.4218	3
90.9451	999
91.1934	2
91.9548	81
92.1346	2
92.3866	1
92.9625	475
93.2884	1
93.4797	1
93.7038	2
93.9729	30
94.3340	1
94.4775	2
94.9771	222
95.2981	1
95.4870	1
95.9584	11
96.2043	0
96.3258	1
96.5585	1
96.9662	30
97.3919	0
97.6153	0
97.9276	8
98.4989	1
98.6670	0
98.9370	8
99.2704	0
99.9096	3
100.1612	0
100.9562	18
101.2021	2
101.4482	3
101.9400	58
102.3637	2
102.9535	177
103.2629	2
103.3941	1
103.9608	79
104.2658	3
104.9694	979
105.4035	2
105.9798	97
106.4340	2
106.9840	357
107.2395	1
107.4484	1
107.5697	1
107.9581	44
108.3436	1
108.5137	2
108.9900	234
109.2176	2
109.3911	1
109.5053	1
109.9680	6
110.1786	1
110.3179	0
110.4580	1
110.5949	0
110.9689	24
111.2768	0
111.5267	1
111.6619	0
111.7722	0
111.9608	4
112.2228	0
112.4931	3
112.9429	16
113.1168	3
113.9297	16
114.1190	5
114.9331	514
115.9444	165
116.9407	451
117.4442	2
117.9468	83
118.1941	1
118.9562	782
119.9562	73
120.1960	1
120.4555	2
120.9571	299
121.3929	1
121.5015	2
121.9421	29
122.2926	1
122.4892	2
122.9552	88
123.2444	0
123.5089	1
123.6274	0
123.7358	1
123.9583	3
124.2038	1
124.4514	0
124.9460	20
125.1248	2
125.2609	2
125.3861	1
125.9031	24
126.2413	2
126.9164	158
127.9207	508
128.9269	583
129.3589	3
129.9280	205
130.3078	2
130.9386	499
131.2236	3
131.5422	2
131.9402	95
132.1353	3
132.3325	3
132.9513	396
133.2886	2
133.9591	35
134.1437	2
134.2367	1
134.3710	1
134.9377	266
135.4223	2
135.9261	12
136.1936	1
136.2999	1
136.9480	153
137.3436	2
137.6342	1
137.9432	13
138.3184	2
138.9082	65
139.3814	2
139.9204	24
140.1143	7
140.9188	406
141.9292	344
142.3191	3
142.9394	562
143.2056	4
143.9428	170
144.2119	2
144.4726	5
144.9530	559
145.3199	4
145.4540	3
145.5743	2
145.9467	67
146.3610	2
146.9622	193
147.2590	2
147.4169	1
147.5886	1
147.9571	19
148.1466	1
148.5414	2
148.9653	98
149.2870	1
149.9358	11
150.3241	2
150.9617	64
151.1617	7
151.9228	161
152.4481	6
152.9354	221
153.3011	3
153.9411	109
154.9608	383
155.9728	219
156.9817	447
157.3592	4
157.9763	108
158.4004	2
158.9789	490
159.4928	3
159.9950	36
160.5253	2
161.0000	106
161.3536	1
161.5426	1
161.9819	9
162.9826	34
163.3247	3
163.9793	25
164.9735	353
165.9744	111
166.9881	264
167.3346	2
167.4972	2
167.9968	105
168.2599	4
169.0031	310
170.0155	105
170.3349	4
171.0153	214
171.3509	3
171.5334	5
172.0071	62
172.3117	2
172.5323	2
173.0210	147
173.2911	3
173.5339	2
173.9802	12
175.0276	77
175.3034	2
175.9741	31
176.1424	4
176.9773	42
177.9605	169
178.2135	2
178.3700	4
178.9698	251
179.2637	1
179.4111	1
179.9771	99
180.9836	248
181.3148	3
181.9928	97
182.9940	240
183.2981	4
184.0031	55
185.0001	117
185.3107	2
185.5204	2
185.9964	20
187.0027	47
187.2860	2
187.9901	8
188.2466	3
188.9652	89
189.4274	3
189.9544	35
190.2092	5
190.5125	4
190.9650	127
191.3083	3
191.9668	100
192.3413	4
192.9718	204
193.3520	4
193.9808	95
194.3477	4
194.9876	245
195.3317	4
195.9862	65
196.9888	183
197.4476	3
197.6791	4
197.9959	29
198.5003	1
199.0029	77
199.2542	3
199.9602	15
201.0015	46
201.9463	65
202.4877	3
202.9723	89
203.3008	1
203.9696	38
204.9688	95
205.3493	2
205.9827	69
206.4491	3
206.9863	135
207.3202	2
207.5576	4
207.9951	56
209.0037	149
209.3114	3
209.4361	2
210.0176	40
210.4024	3
211.0122	89
212.0032	12
212.2097	3
212.3774	2
212.9884	34
213.3281	2
213.5314	2
214.0314	7
214.9671	78
215.3515	2
215.5570	2
215.9851	40
216.2583	2
216.3717	2
217.0002	87
217.3199	2
217.4709	2
218.0074	38
218.2460	3
219.0111	85
219.3038	2
220.0158	34
221.0265	93
221.5330	2
222.0307	36
222.4436	2
223.0429	74
223.3032	1
223.6690	2
224.0555	19
224.2597	2
224.5174	4
225.0507	41
226.0236	21
226.3535	2
226.5826	2
227.0354	23
227.3633	2
228.0105	26
228.5193	2
229.0226	56
229.4233	2
229.6116	1
230.0302	27
231.0307	51
231.5153	1
232.0535	30
232.3141	3
232.5548	3
233.0390	69
233.3443	1
234.0571	22
234.3776	2
235.0454	61
235.4017	2
235.6193	2
236.0601	15
236.4516	0
237.0574	40
237.5658	2
238.0660	9
238.2117	3
238.5484	2
239.0206	33
239.3162	1
240.0155	11
240.2287	3
240.3229	1
240.5836	3
241.0286	25
241.5088	1
242.0166	18
242.3400	3
242.5892	2
243.0297	40
243.3202	1
243.4380	1
244.0301	16
244.3228	1
245.0253	43
245.4717	0
245.6143	2
246.0546	20
246.3723	1
246.5150	1
247.0547	45
247.3793	2
247.6937	3
248.0619	14
248.3667	1
248.5239	1
248.6384	1
249.0688	37
249.4151	2
249.6828	2
250.0464	9
250.2968	1
250.5763	1
251.0725	21
251.3693	2
252.0107	10
252.3262	1
253.0410	20
253.5728	3
253.7876	3
254.0542	10
254.3747	1
254.5487	2
255.0467	26
255.3672	1
255.6878	2
256.0519	12
256.3304	1
256.5840	2
257.0637	34
257.4141	1
257.5448	1
257.6989	1
258.0612	11
258.4187	1
259.0597	27
259.5238	1
260.0551	16
260.3332	1
261.0681	36
261.5103	2
261.6833	2
262.0543	9
262.1997	5
262.3520	1
262.6905	2
263.0907	27
263.5013	1
263.8510	3
264.0928	6
264.2742	2
265.0577	16
265.5025	0
266.0084	7
266.4173	2
266.6023	2
267.0848	20
267.4002	1
267.5950	1
268.0595	8
268.3647	1
268.5269	1
268.6635	2
269.0720	22
269.3876	1
269.6457	1
270.0758	9
270.4567	1
271.0736	17
271.4705	1
271.6989	1
272.0941	10
272.3061	1
272.5154	1
273.0858	20
273.4449	1
273.7159	2
274.0528	11
274.4071	2
275.0881	20
275.4438	1
275.6374	3
276.0702	6
276.3851	2
277.0983	15
277.4543	1
277.6500	1
278.1017	5
278.5800	1
279.0735	15
279.4310	1
279.5164	0
280.0469	6
280.4170	1
281.0789	14
281.5102	1
282.0597	10
282.4154	3
282.6238	6
282.7183	3
283.1227	24
283.5418	0
284.0540	10
284.3786	1
284.5329	1
285.0772	15
285.7857	1
285.9039	2
286.1209	5
286.4860	1
287.0855	15
287.4124	2
287.5286	1
287.7693	1
288.0926	6
288.4427	1
288.6108	1
289.0867	14
289.4772	1
289.6058	2
289.7941	1
289.9157	1
290.1110	5
290.2805	0
290.4758	1
290.6072	1
291.0826	8
291.3795	1
291.5338	1
291.7861	2
292.0274	4
292.1442	2
292.2986	1
292.7192	1
293.0648	9
293.2185	5
293.4752	1
293.6880	1
294.0761	5
294.4615	0
294.6729	1
295.1147	11
295.4487	1
295.5948	0
296.1146	6
297.0911	10
297.2247	5
297.5895	1
298.0789	6
298.4291	1
299.0585	10
299.4005	0
299.8093	2
300.0774	3
300.3226	1
301.0721	11
301.4016	1
301.5368	1
301.6971	1
302.0447	3
302.2614	2
302.7283	1
303.0796	7
303.3458	1
303.6957	1
304.0178	4
304.3077	1
304.4047	0
304.7993	2
305.0907	6
305.5237	1
305.6638	0
305.7691	1
305.9951	3
306.1771	2
306.3305	1
306.5146	0
306.7295	1
307.1040	6
307.5142	1
308.1107	5
308.4156	1
308.4902	0
308.7477	1
309.1342	9
309.4238	0
309.6758	0
309.7951	1
310.1001	5
310.3828	1
310.5957	1
310.7297	1
311.0885	6
311.2693	3
311.4026	0
312.0491	2
312.3647	1
312.5072	0
312.6301	0
313.0924	6
313.3026	2
313.5673	1
313.8781	2
314.1281	3
314.3188	1
314.4879	1
314.7156	1
315.1040	6
315.4499	1
315.8251	2
316.0850	2
316.5735	1
317.0878	4
317.4680	1
317.6274	1
317.7364	1
318.0307	2
318.2320	2
318.5249	0
319.1290	5
319.5338	1
319.6974	1
320.0450	3
320.2170	3
320.6953	1
321.1324	5
321.4199	0
321.5199	0
321.7459	0
322.0551	3
322.1999	2
322.6427	1
323.0912	3
323.2766	2
323.4018	0
323.8266	1
324.1345	2
324.4347	0
324.6384	1
325.1115	6
325.5686	1
325.7169	1
326.1174	3
326.2721	1
326.4380	1
326.7475	1
327.1213	5
327.4756	1
327.6780	0
327.9588	1
328.1542	3
328.3033	0
329.0948	4
329.5431	1
330.0999	3
330.3108	1
330.6317	1
330.7263	0
331.1661	7
331.2878	3
331.4164	1
331.6479	0
331.8116	0
332.1682	2
332.3759	0
332.7312	1
333.1502	7
333.6944	1
334.1043	2
334.2652	1
334.3925	0
334.5884	0
335.1545	10
335.4427	1
335.6618	1
336.1803	7
336.4525	1
336.5393	1
337.1104	4
337.3813	1
337.5514	1
338.1387	3
338.2528	2
338.3621	1
339.1091	3
339.4178	1
339.6167	0
339.7196	1
339.8429	1
340.0536	2
340.1727	1
340.3093	1
340.5355	1
341.1399	2
341.3815	1
341.6421	0
341.9748	1
342.1716	1
342.4826	1
342.8147	1
343.1440	4
343.3927	1
343.5209	1
343.8250	1
344.0941	1
344.3316	1
344.5741	1
344.6953	1
344.7836	0
344.9826	2
345.1978	3
345.6064	1
345.7823	1
345.9540	1
346.1440	1
346.2856	1
346.5141	0
347.1779	10
347.3118	5
347.5285	1
347.6329	1
348.1665	6
348.4918	1
348.7289	2
349.1517	7
349.6917	1
350.1658	3
350.3004	2
350.5712	1
350.7991	0
351.1653	3
351.3891	1
351.5168	0
351.7693	0
351.9994	1
352.2078	1
352.5901	0
352.7066	0
353.1816	5
353.4321	1
353.6826	1
353.8637	0
353.9711	0
354.1591	1
354.6069	0
355.1515	3
355.2533	1
355.3635	1
355.7180	0
355.8513	1
355.9987	1
356.1209	2
356.2178	1
356.7962	0
356.9233	1
357.0448	2
357.2329	2
357.6696	1
357.8262	1
357.9842	1
358.2184	2
358.4413	1
358.5990	0
358.7560	1
359.1801	7
359.6694	1
359.7578	0
360.1560	4
360.3180	2
360.4659	1
360.6791	1
360.8572	1
361.1573	7
361.3403	3
361.6110	1
361.7702	1
362.1846	10
362.7583	1
362.8643	2
363.2213	4
363.5530	0
363.7740	0
363.8498	0
364.1149	2
364.3156	1
364.6137	1
364.7793	1
364.9722	1
365.2122	2
365.4928	1
365.7005	1
365.7917	0
365.9889	1
366.2478	0
366.5110	0
366.6654	1
366.9854	1
367.2240	1
367.5777	0
367.7707	1
368.0620	2
368.5196	0
368.7379	1
368.8334	1
369.1184	2
369.3599	1
369.4975	1
369.8611	0
370.1104	2
370.3126	1
370.5948	1
370.7872	0
371.2113	3
371.6417	1
371.7520	0
372.1586	2
372.3481	1
372.5615	1
372.7019	1
373.1701	5
373.4790	0
373.6110	0
373.7816	1
374.1818	4
374.3398	3
374.5841	1
374.7217	1
375.2174	4
375.3087	2
375.6949	0
375.9049	1
376.1886	3
376.4401	0
376.7722	0
376.9120	1
377.1705	2
377.3545	0
377.8441	1
378.1384	1
378.4651	1
379.1198	3
379.3264	1
379.7486	1
379.8905	1
380.0894	0
380.2573	1
380.3472	1
380.9101	1
381.0352	1
381.2172	2
381.4484	0
381.5735	1
382.0310	1
382.1793	1
382.3325	1
382.5750	1
382.7373	1
383.1569	3
383.8943	0
384.1248	2
384.2732	1
384.4756	1
384.7006	1
384.9551	0
385.1245	2
385.3608	0
385.6294	1
386.1672	2
386.4359	0
386.5455	0
386.7727	1
387.1074	3
387.3191	1
387.4836	1
387.7010	0
388.1349	2
388.2523	1
388.4366	1
388.5710	0
389.0893	2
389.2033	2
389.3552	2
389.6492	1
389.8476	1
390.0115	1
390.1297	1
390.2690	1
390.4217	0
390.5567	0
391.1357	2
391.2349	1
391.5143	0
391.7120	0
391.9568	1
392.0968	1
392.2017	0
392.4149	0
393.0940	1
393.2643	1
393.3466	0
393.5507	0
394.0792	1
394.2974	0
394.5846	1
394.8394	0
395.1336	3
395.3138	2
395.4257	1
395.8079	1
396.1162	0
396.3028	0
396.7928	1
397.2060	4
397.3053	2
397.5348	1
397.9038	0
398.1460	2
398.3445	1
398.4818	1
398.7945	0
399.1684	5
399.3663	1
399.6522	1
399.7494	1
400.0832	2
400.2290	2
400.3670	2
400.6459	1
400.8502	1
401.2094	7
401.4066	3
401.5891	1
402.2491	3
402.5541	1
403.2445	4
403.3847	1
403.6060	0
403.9426	1
404.0784	2
404.2014	1
404.4807	1
404.7880	1
405.1326	1
405.3324	1
405.6201	0
406.0477	0
406.1666	1
406.2918	0
406.6541	1
406.8103	0
406.9967	1
407.3041	1
407.4068	1
407.8620	0
408.0921	1
408.3756	1
408.6071	0
408.7535	1
409.2137	1
409.3867	1
409.5324	0
409.6985	0
409.8055	1
410.0391	2
410.2037	2
410.3353	0
410.4789	1
410.6738	0
410.9166	1
411.2749	2
411.4311	1
411.6908	1
412.1589	3
412.3306	1
412.4841	1
413.1978	9
413.5034	1
413.7392	1
414.0356	1
414.1764	4
414.3693	2
414.7079	1
414.8649	1
415.1156	2
415.2543	2
415.4416	2
415.8070	1
416.0689	2
416.3027	2
416.5942	0
416.8386	1
417.1161	1
417.2999	2
417.6428	1
417.7964	0
418.2147	1
418.3542	1
418.5598	0
418.7373	0
418.8387	0
419.0395	1
419.1289	0
419.2860	1
419.3719	0
419.6558	0
419.7614	0
419.9946	1
420.1404	1
420.2489	1
420.4933	0
420.9110	1
421.2710	2
421.8327	1
421.9593	1
422.1386	1
422.2722	0
422.5408	1
422.8853	0
423.0829	1
423.2918	2
423.5224	1
423.6378	1
424.0618	1
424.2770	2
424.5857	1
424.8284	1
425.1287	1
425.4156	2
425.7701	2
426.2491	4
426.5671	1
427.2621	6
427.7440	1
428.2667	17
428.6712	1
428.8450	1
429.2467	6
429.6443	1
429.9236	1
430.0798	3
430.3162	2
430.4647	1
430.9319	1
431.2803	2
431.6976	1
432.1191	2
432.4337	3
432.9018	3
433.0714	3
433.2664	2
433.5465	2
434.0209	2
434.3236	3
434.4961	1
434.6523	2
434.8255	2
434.9438	1
435.1775	2
435.3225	1
435.6548	3
436.1772	2
436.4574	2
436.6447	1
437.3199	7
438.8437	29
439.7042	15
440.3339	8
440.9205	4
441.3770	4
441.7277	2
442.2292	3
442.8442	2
443.2493	7
443.3549	3
443.5184	2
443.9002	3
444.1658	2
444.3969	2
444.7140	2
445.0564	2
445.4164	1
445.5933	1
445.8068	1
445.9667	1
446.0774	1
446.2091	1
446.3402	1
446.6122	2
446.8377	2
447.0787	1
447.2493	1
447.4099	2
447.6305	0
447.8708	1
448.0533	1
448.1739	1
448.5291	1
448.7574	2
448.9238	1
449.1725	2
449.3699	2
449.5024	2
449.6251	1
449.7548	1
449.8915	2
450.2122	2
450.4230	0
450.5548	0
450.6591	1
450.8452	3
451.2661	3
451.6587	5
452.0873	4
452.4314	3
452.6225	5
452.9588	4
453.2351	2
453.3966	2
453.5411	4
453.8450	4
454.1299	4
454.3308	3
454.5776	3
454.7398	2
455.1432	3
455.2968	2
455.5496	1
456.2029	7
456.5211	4
456.7147	0
456.8633	1
457.0590	1
457.3244	1
457.6505	0
457.8328	1
458.1638	1
458.3348	1
458.4468	1
458.7813	1
459.2517	3
459.5017	1
459.6517	1
459.9566	1
460.2932	3
460.4771	1
460.6975	1
460.8433	1
460.9567	1
461.0482	0
461.2053	1
461.5236	1
461.8152	0
462.2237	1
462.6295	0
462.9196	2
463.0401	1
463.2141	1
463.5621	0
463.7537	0
463.9432	2
464.1263	1
464.3926	1
464.6561	1
464.8745	1
464.9802	0
465.1465	1
465.2986	2
465.6051	1
465.7087	0
466.2392	5
466.3872	4
466.5809	1
466.7190	0
466.8318	1
467.1904	3
467.4406	4
467.6118	1
467.8683	1
468.1262	2
468.2545	1
468.5800	2
468.7224	0
469.1656	2
469.3869	1
469.4926	0
469.6026	1
469.6857	0
469.8351	1
470.2376	1
470.5914	2
470.7598	1
470.9586	1
471.2715	3
471.4139	1
471.5182	1
471.9320	1
472.2894	3
472.4480	2
472.5291	1
472.7814	1
473.2699	3
473.5279	2
474.2921	77
474.9309	2
475.3088	1
475.5626	1
475.8326	1
476.1316	1
476.4115	1
476.7027	1
476.8508	1
476.9932	1
477.2520	2
477.4734	1
477.6533	1
477.8211	1
477.9318	0
478.1441	0
478.2936	1
478.5002	1
478.8436	0
479.0714	1
479.2717	2
479.4699	1
479.6815	0
479.9051	1
480.1702	1
480.3656	1
480.6646	1
480.8981	0
481.2536	2
481.5414	1
481.8701	1
482.0471	1
482.2609	1
482.4514	1
482.5875	0
483.0527	1
483.1817	1
483.3797	1
483.5517	0
483.6772	1
484.2861	10
484.6956	0
485.1235	2
485.3385	3
485.5161	1
485.6670	1
485.8925	1
486.2908	5
486.5771	1
486.7448	0
486.8689	1
487.3229	6
487.7346	0
487.9454	1
488.2281	1
488.3466	1
488.7048	0
488.9938	1
489.1440	0
489.2639	0
489.9443	1
490.0832	0
490.2186	0
490.5310	1
490.8018	0
490.9879	1
491.2820	1
491.4138	1
491.9138	0
492.1212	0
492.3518	1
492.5782	0
492.7756	0
492.9583	1
493.2488	1
493.3892	1
493.5183	1
493.6142	1
493.8420	1
494.2095	3
494.3632	1
494.4817	2
494.6425	1
494.8457	1
495.1201	1
495.3232	1
495.5122	1
495.6258	0
495.8671	1
496.0448	1
496.2621	1
496.5450	1
496.7291	1
496.9351	2
497.1072	0
497.2800	1
497.5883	0
497.7527	0
497.9234	1
498.1322	1
498.3199	2
498.4610	1
498.6592	1
498.7538	1
498.9443	0
499.1051	0
499.3789	1
499.5271	0
500.0661	1
500.2489	1
500.5953	1
500.9100	1
501.4033	0
502.0101	1
502.5500	0
503.0172	1
503.1470	1
503.3580	1
503.6128	1
503.7582	0
503.8965	0
504.2099	1
504.4809	0
504.8571	1
505.2318	2
505.3434	1
505.5269	0
505.8615	0
506.1621	2
506.3118	1
506.4480	0
506.5715	1
506.7734	1
506.9372	1
507.1426	1
507.3734	1
507.7342	0
508.0257	1
508.2417	3
508.5029	1
508.8086	0
509.1599	1
509.4013	2
509.5850	1
509.8799	0
510.2937	3
510.5928	1
510.7948	0
510.9883	0
511.1959	0
511.4352	0
511.6513	0
512.1686	1
512.4114	0
512.6895	1
512.9288	1
513.0844	1
513.3159	0
513.4307	1
513.5912	1
514.1128	1
514.3788	1
514.5330	0
515.0856	0
515.4890	1
515.5897	1
515.7826	0
516.0536	0
516.2782	1
516.6486	1
516.9850	1
517.0696	0
517.3463	1
517.6948	1
518.0158	0
518.2320	1
518.6165	1
518.7686	1
519.0523	1
519.2424	1
519.5170	1
519.7262	1
520.1219	1
520.3599	2
520.5381	0
520.7986	1
521.0916	1
521.3275	2
521.5128	2
521.6163	1
521.7648	0
521.9564	0
522.1064	1
522.3043	2
522.4409	1
522.6614	1
522.7945	0
523.2255	3
523.5361	2
523.6270	1
523.7587	1
523.8862	1
524.0157	1
524.1130	0
524.2785	2
524.3876	1
524.5975	1
524.9561	2
525.0646	1
525.2935	1
525.4153	1
525.6125	2
525.8190	1
525.9409	2
526.1782	2
526.3403	1
526.5114	1
526.7446	2
526.8989	1
527.0214	1
527.1680	1
527.3983	2
527.6992	0
527.8513	0
527.9993	1
528.1176	0
528.3395	1
528.5389	1
528.7742	2
529.0574	1
529.4210	1
529.5485	1
529.8106	1
529.9388	1
530.1241	1
530.3405	1
530.5229	1
530.6829	1
530.8886	1
531.1014	1
531.2120	1
531.3973	0
531.5446	1
531.7039	0
532.1105	2
532.3282	3
532.5128	2
532.6664	1
533.2915	8
533.5762	3
533.7615	1
534.0779	1
534.2542	2
534.4564	1
534.5910	1
534.7418	0
534.8673	1
535.0533	2
535.2204	2
535.4896	2
535.6996	1
536.3840	7
537.1093	5
537.4490	5
538.2631	5
539.1718	5
539.6067	4
540.0783	6
540.3384	6
540.5845	5
541.3445	7
541.9790	8
542.6016	10
543.6337	9
544.6336	10
545.6906	11
546.1088	10
547.3852	30
548.3351	265
549.2809	18
549.7796	10
550.2966	28
551.3320	69
551.7955	7
552.5307	7
552.9792	8
553.5833	7
554.1439	8
555.1614	8
556.7247	10
566.3095	999
567.1776	269
567.7835	132
568.4916	73
569.2252	30
570.2801	19
571.4118	12
571.8107	9
572.3062	7
572.8375	4
573.5607	4
573.8842	3
