Mass spectrum: 8'-Apoalloxanthin; FAB-EBEB; MS2; m/z: 430.29; [M]+*
Name: 8'-Apoalloxanthin
Formula: C30H38O2
Exact mass: 430.28718
SMILES: C(C)(=CC=CC=C(C)C=CC=C(C)C=O)C=CC=C(C#CC(=C(C)1)C(C)(C)CC(C1)O)C
InChI: InChI=1S/C30H38O2/c1-23(12-8-9-13-24(2)15-11-17-26(4)22-31)14-10-16-25(3)18-19-29-27(5)20-28(32)21-30(29,6)7/h8-17,22,28,32H,20-21H2,1-7H3/b9-8+,14-10+,15-11+,23-12+,24-13+,25-16+,26-17+/t28-/m1/s1
Instrument: JMS-HX/HX 110A, JEOL
Instrument type: FAB-EBEB
Ms type: MS2
Ion mode: POSITIVE
Collision energy: 3 kV
Ionization: FAB
Base peak: 415.2741
Precursor m/z: 430.29
Precursor type: [M]+*
m/z	relative intensity
0.0298	0
6.2582	0
8.7108	0
11.8048	0
11.9679	0
12.9918	0
14.0072	1
15.0098	4
16.0166	0
17.9624	0
19.0194	0
22.9762	13
23.2640	0
23.9915	0
24.9932	2
25.5559	0
26.0031	11
27.0092	59
28.0151	6
29.0137	60
30.0010	1
30.9974	8
32.0313	0
33.2905	1
35.0693	0
35.9638	1
36.4077	0
36.6103	0
36.9997	11
37.5827	0
38.0021	25
38.5677	0
39.0096	165
39.4410	0
40.0098	17
40.7081	0
41.0249	251
42.0237	7
42.5043	0
43.0170	141
44.0131	5
44.6507	1
45.0217	8
45.9812	0
46.2598	0
46.9980	0
47.9802	1
48.2799	0
48.9893	5
49.4918	0
49.9993	51
50.4771	0
50.6557	0
51.0099	117
52.0127	39
52.4401	0
53.0214	171
54.0283	11
55.0379	216
56.0361	7
56.4534	0
56.6474	0
57.0489	75
57.4586	0
58.0490	2
58.5563	0
59.0351	13
60.0154	2
60.2546	0
60.5359	0
60.9945	11
62.0059	39
62.4728	0
63.0085	115
63.5876	0
64.0243	24
65.0214	159
66.0277	31
66.5884	1
67.0334	150
68.0296	9
69.0337	127
69.5066	1
70.0311	5
70.4710	0
71.0315	53
71.5554	0
72.0229	1
73.0012	5
73.9960	42
75.0144	57
75.4215	1
76.0135	30
77.0212	439
78.0285	97
79.0382	254
79.5590	0
80.0423	31
81.0497	140
82.0302	22
82.4979	2
83.0503	62
83.5028	0
83.6571	0
84.0361	4
84.2841	0
84.5557	0
85.0525	93
85.5018	0
86.0169	21
87.0212	34
87.5757	0
88.0376	17
88.3510	1
89.0348	76
90.0473	24
91.0483	770
92.0564	63
93.0653	187
94.0594	21
94.5245	4
95.0563	243
95.4713	2
96.0549	16
96.5215	1
97.0582	19
97.4559	0
98.0237	19
98.4970	0
98.7067	0
99.0272	17
99.4564	0
100.0478	5
101.0428	29
102.0403	72
103.0425	168
104.0503	65
105.0534	582
106.0610	39
106.5116	1
107.0605	150
107.5191	5
108.0340	20
108.5534	1
109.0541	70
109.6007	1
110.0270	15
110.3974	1
111.0340	20
111.5586	0
112.0242	6
113.0177	22
113.2599	3
114.0348	31
115.0213	563
116.0344	164
117.0381	315
118.0355	56
119.0447	411
119.5326	3
120.0518	27
120.5414	2
121.0462	124
121.4590	3
122.0362	23
122.4784	1
123.0401	46
124.0257	12
125.0264	14
125.5252	2
126.0157	44
127.0201	247
128.0233	634
129.0285	546
130.0413	158
131.0441	291
131.5253	2
132.0468	52
133.0504	144
133.5357	1
134.0451	26
135.0505	77
136.0295	12
136.3702	1
137.0518	21
138.0445	14
139.0271	135
140.0422	35
141.0483	520
142.0562	343
143.0650	427
144.0690	106
145.0760	239
146.0728	40
147.0781	176
147.4931	2
148.0797	23
149.0841	60
150.0431	39
151.0600	94
152.0633	357
153.0728	355
154.0841	149
155.0875	439
156.0935	217
157.0957	324
158.0898	69
159.0889	108
160.0853	28
161.0790	49
162.0733	19
163.0560	69
164.0692	63
165.0564	718
166.0674	206
167.0690	364
168.0757	118
169.0817	305
170.0850	95
171.0844	183
172.0798	42
173.1003	106
174.0479	20
175.0627	36
176.0468	98
177.0682	81
178.0500	421
179.0624	522
180.0696	168
181.0729	357
182.0801	111
183.0865	223
184.0812	51
185.0852	84
186.0942	26
187.0656	50
188.0900	27
189.0554	274
190.0617	108
191.0706	352
192.0732	222
193.0863	404
194.0998	143
195.1025	301
196.1000	83
197.1170	158
198.1063	35
199.1095	55
200.0748	48
201.1192	58
202.0808	294
203.0933	268
204.1029	100
205.1060	247
206.1208	158
207.1281	294
208.1357	106
209.1358	191
210.1418	47
211.1381	87
212.1324	25
213.1034	89
214.1074	30
215.0971	303
216.1130	142
217.1101	255
218.1244	112
219.1301	244
220.1326	105
221.1388	188
222.1340	61
223.1488	112
224.1231	37
225.1328	52
226.1032	91
227.1112	85
228.1059	107
229.1179	224
230.1324	105
231.1369	242
232.1424	113
233.1504	203
234.1519	65
235.1571	116
236.1512	36
237.1568	79
238.1605	25
239.1270	139
240.1289	47
241.1311	124
242.1415	63
243.1521	158
244.1584	81
245.1684	177
246.1730	77
247.1721	158
248.1797	48
249.1853	96
250.1525	31
251.1870	47
252.1490	68
253.1487	93
254.1600	41
255.1567	105
256.1685	65
257.1714	129
258.1801	60
259.1754	117
260.1710	45
261.1843	117
262.1866	29
263.1857	82
264.2112	24
265.1629	69
266.1478	46
267.1704	93
268.1751	40
269.1606	103
270.1508	42
271.1583	88
272.1649	33
273.1728	74
274.1557	31
275.1937	56
276.1667	31
277.1697	54
278.1431	19
279.1658	52
280.1658	35
281.1592	77
282.1699	39
283.1579	76
284.1598	31
285.1618	72
286.1629	23
287.1801	52
288.1849	16
289.1739	37
290.1642	20
291.1718	28
292.1339	16
293.1681	44
294.1877	25
295.1947	44
296.1631	23
297.1625	60
298.1769	27
299.1872	58
300.1976	20
301.2024	33
302.1845	14
303.1976	24
304.1812	11
304.4865	2
305.1934	24
306.1704	14
307.1795	31
308.2025	14
309.1753	27
310.1871	14
311.2003	34
312.1895	21
313.1995	47
314.2439	13
315.2187	33
316.1924	12
317.2109	36
317.6612	3
318.1917	8
319.2289	20
320.2214	8
321.1900	13
322.1783	12
323.2188	35
324.2226	14
325.1933	28
326.1962	12
327.2267	30
327.6475	3
328.2563	11
329.2068	32
330.2492	18
331.2240	29
332.2357	12
333.2349	31
334.2146	11
335.2260	22
336.2321	5
337.2350	12
338.2527	31
339.2191	17
340.2108	9
341.2197	20
341.6600	2
342.2621	8
343.2460	17
343.5568	3
344.2427	11
344.5363	3
345.2372	20
345.6800	2
346.2467	12
347.2368	16
348.2741	16
348.7950	2
349.2483	8
349.7854	2
350.2296	8
350.5131	2
351.2580	28
351.7297	2
352.2234	4
352.5964	2
353.2129	13
354.2382	8
355.2636	17
356.2259	10
357.2491	12
358.2519	9
359.2570	19
360.2380	12
360.5184	3
361.1916	8
361.7983	2
362.3694	5
362.6842	2
363.2012	6
363.5887	2
364.2273	5
364.4910	2
365.1572	5
365.6996	1
366.2718	4
367.2454	12
367.8039	2
368.3212	6
369.2858	12
369.6781	3
370.2586	10
371.2589	53
372.2468	17
373.2324	14
374.2766	10
374.5842	3
375.3049	5
375.5482	3
376.2518	3
377.0656	3
378.4153	4
379.2351	7
379.6215	3
380.2144	4
381.2545	14
382.1950	7
383.2744	14
384.2643	9
384.6027	4
385.2532	23
386.2674	26
386.7011	5
387.2885	24
388.2352	13
391.7322	14
393.8306	15
395.1084	14
397.1591	156
398.1720	7
399.2423	30
400.2852	37
401.2546	66
402.2747	21
403.0822	4
403.4154	2
406.7808	9
412.2757	329
413.2777	58
415.2741	999
416.2660	11
416.7723	1
417.3545	1
417.8241	1
418.0859	1
430.2140	999
433.4246	28
434.1522	15
434.9658	8
