Mass spectrum: 3,4-Dihydrospirilloxanthin; FAB-EBEB; MS2; m/z: 598.48; [M]*+
Name: 3,4-Dihydrospirilloxanthin
Class: Natural Product; Carotenoid
Formula: C42H62O2
Exact mass: 598.47498
SMILES: C(CCCC(C)(C)OC)(=CC=CC(C)=CC=CC(C)=CC=CC=C(C)C=CC=C(C=CC=C(C=CCC(C)(C)OC)C)C)C
InChI: InChI=1S/C42H62O2/c1-35(23-15-25-37(3)27-17-29-39(5)31-19-33-41(7,8)43-11)21-13-14-22-36(2)24-16-26-38(4)28-18-30-40(6)32-20-34-42(9,10)44-12/h13-19,21-31H,20,32-34H2,1-12H3/b14-13+,23-15+,24-16+,27-17+,28-18+,31-19+,35-21+,36-22+,37-25+,38-26+,39-29+,40-30+
Instrument: JMS-HX/HX 110A, JEOL
Instrument type: FAB-EBEB
Ms type: MS2
Ion mode: POSITIVE
Collision energy: 3 kV
Ionization: FAB
Base peak: 598.3620
Precursor m/z: 598.48
Precursor type: [M]+*
m/z	relative intensity
0.2061	0
13.9703	1
14.9811	2
22.9359	1
25.9674	2
26.9612	6
27.9719	1
28.9600	4
29.9397	0
30.9276	0
32.9371	1
36.9023	1
36.9744	0
37.9561	1
38.9436	7
39.9630	2
40.6591	0
40.8273	0
40.9695	13
41.9655	3
42.9647	15
44.4961	0
44.9800	3
48.8989	1
49.9540	3
50.8112	0
50.9508	3
51.8773	0
51.9816	1
52.9655	6
53.9737	0
54.9846	12
55.9673	1
56.9702	1
57.9408	0
59.0130	1
60.7000	0
60.9393	0
61.7302	0
61.9647	2
62.9273	3
63.8786	1
64.7066	1
64.9769	5
65.9341	1
66.8454	0
66.9936	7
68.7379	0
68.9940	11
70.9677	0
71.9909	0
72.9817	465
73.3659	0
73.6958	1
73.9821	15
74.9367	1
75.7137	0
75.9437	2
76.3464	1
76.6376	0
76.7816	2
76.9498	14
77.1281	0
77.3006	0
77.6347	1
77.9531	2
78.5612	0
78.9524	24
79.6944	1
79.8731	1
79.9862	2
80.6542	0
80.9826	27
81.8219	1
81.9309	1
82.0220	1
82.1269	0
83.0200	1
84.8103	0
84.9620	2
85.6222	1
85.7572	1
85.9195	2
86.9626	1
87.9123	1
88.9149	3
89.2861	0
89.9114	2
90.2511	0
90.5800	1
90.9282	35
91.4817	0
91.9468	5
92.7700	2
92.9647	33
93.8603	1
93.9547	0
94.7613	1
95.0032	16
95.3052	1
96.0096	1
96.9064	1
97.0176	1
97.8653	1
98.7575	0
98.9939	2
100.9375	3
101.3079	1
101.4552	1
101.9169	3
102.9353	11
103.1963	1
103.7156	1
103.9537	5
104.9628	74
105.4769	0
105.6014	0
105.9624	5
106.2578	0
106.6654	0
106.9948	23
107.1824	1
107.9674	0
108.9910	7
109.1197	1
109.7895	0
109.9909	1
110.6509	1
111.0059	2
111.9500	1
112.7245	1
112.8534	1
113.4252	0
113.6246	0
113.7742	1
114.3129	0
114.9000	29
115.4473	1
115.9104	10
116.1145	1
116.4855	1
116.9282	32
117.4560	0
117.5544	0
117.9411	5
118.2527	0
118.9510	83
119.2515	1
119.7302	2
119.9690	5
120.3306	1
120.7098	2
120.9781	20
121.3021	1
121.4282	0
121.9570	1
122.3157	0
123.0098	4
124.9609	3
125.2359	1
125.5976	1
125.9172	2
126.1529	1
126.4988	0
126.6916	1
126.9178	11
127.2457	1
127.4225	1
127.8995	54
128.2468	1
128.8922	46
129.3152	1
129.5650	0
129.6821	1
129.9229	18
130.3385	0
130.9188	48
131.3192	1
131.5645	1
131.9193	11
132.1148	0
132.6820	2
132.9650	31
133.2226	0
133.6202	1
133.7274	1
133.9654	6
134.7510	0
134.9755	6
135.7898	1
135.9585	2
136.7790	0
136.9117	1
137.6252	0
137.8130	2
137.9121	1
138.5484	1
138.6755	1
138.8859	3
139.6614	0
139.8880	5
140.1054	0
140.4010	2
140.5157	3
140.6431	1
140.9236	36
141.2521	0
141.5793	2
141.9286	34
142.3026	1
142.5604	1
142.9280	69
143.4121	0
143.9218	18
144.1487	1
144.5656	4
144.9499	78
145.9465	7
146.1219	0
146.4008	0
146.5295	1
146.9634	16
147.1163	1
147.2078	1
147.3794	1
147.5143	0
147.7188	1
147.9339	1
148.0683	1
148.2614	1
148.4252	0
148.6165	1
148.9629	4
149.6622	1
149.8236	2
149.9903	1
150.5442	0
150.8933	3
151.0428	3
151.2325	1
151.5262	1
151.6617	1
151.9085	12
152.0796	1
152.2084	1
152.3158	0
152.5071	0
152.6555	2
152.9032	21
153.3646	1
153.5682	1
153.9203	11
154.2961	0
154.5395	2
154.7124	1
154.9491	26
155.6012	1
155.9459	27
156.5144	1
156.9598	53
157.4182	1
157.6933	1
157.8167	2
157.9962	10
158.1351	1
158.2458	1
158.5285	0
158.9855	19
159.2813	1
159.9427	2
160.4239	0
160.9073	1
161.0257	2
161.9905	1
162.5078	1
162.9345	4
163.1107	1
163.6948	2
163.9518	3
164.0467	1
164.4671	1
164.6890	2
164.9570	25
165.9548	11
166.1429	1
166.4160	0
166.5770	1
166.9664	20
167.3165	1
167.4382	0
167.6360	1
167.9665	8
168.4346	1
168.9852	36
169.1683	2
169.3337	0
169.6483	1
169.8179	2
170.0066	11
170.5016	1
170.9942	21
171.3571	0
171.5067	1
171.6196	1
171.7100	2
172.0126	5
172.6425	1
173.0134	8
173.4770	0
173.9598	0
174.8714	0
175.0691	2
175.6799	1
175.9698	3
176.5292	1
176.9441	3
177.2254	2
177.4664	1
177.6596	2
177.9540	16
178.2737	0
178.4663	1
178.9385	21
179.7125	1
179.9566	7
180.3828	0
180.7208	3
180.9747	34
181.6990	1
181.9839	16
182.3010	1
182.4209	1
182.5066	1
182.6539	2
182.9924	32
183.2152	2
184.0084	8
184.4227	1
184.6031	2
184.7561	1
185.0142	11
186.0219	4
186.5686	1
187.0434	4
187.7093	2
187.9424	2
188.0689	1
188.5448	1
188.9451	6
189.2485	1
189.6112	1
189.9478	5
190.1391	1
190.2823	0
190.4345	0
190.9324	17
191.1143	1
191.2610	0
191.5793	1
191.6682	1
191.9653	9
192.4202	1
192.5160	1
192.6608	1
192.9559	21
193.2263	1
193.5036	1
193.6340	1
193.9659	17
194.2805	1
194.3751	1
194.5380	1
194.9743	29
195.4646	1
195.6704	0
196.0047	7
196.4801	1
196.6432	1
196.9874	28
197.2964	1
197.5328	0
197.8191	1
197.9803	7
198.1380	1
198.7682	1
199.0194	5
199.3253	0
199.5059	2
199.8147	1
199.9947	3
200.7267	1
201.0169	3
201.4091	1
201.5712	0
201.9178	7
202.1146	0
202.5125	1
202.6581	0
202.9466	9
203.5057	2
203.6562	1
203.9525	6
204.6596	1
204.9748	7
205.3726	1
205.5518	1
205.9873	6
206.6333	1
206.9780	16
207.3485	1
207.6355	1
208.0068	10
208.4971	1
208.5979	0
208.9909	25
209.5002	1
209.7765	1
210.0083	5
210.3904	1
210.5241	1
210.7141	1
211.0073	11
211.2274	0
211.7170	1
212.0451	5
212.2228	1
212.4430	1
212.5629	2
212.7197	1
213.0159	8
213.9083	1
214.1105	2
214.3630	0
214.5974	1
214.7313	1
214.9636	4
215.3607	0
215.6887	1
215.9818	7
216.2443	1
216.6681	1
216.9628	7
217.4070	1
217.9644	4
218.1943	1
218.3306	1
218.5444	2
218.9952	12
219.2895	1
219.4741	0
219.8181	1
220.0222	4
220.5251	1
221.0036	11
221.6740	1
221.8776	1
222.0407	4
222.3102	0
222.7877	2
223.0265	9
223.2288	1
223.5608	0
223.6687	1
223.8669	0
224.0336	3
224.1359	1
225.0476	6
225.3006	0
225.4156	1
225.6707	1
226.0213	1
226.2807	1
226.5002	0
226.9947	3
227.7447	1
227.9636	3
228.5749	0
228.7834	1
229.0319	6
229.1224	2
229.6104	1
230.0016	3
230.9900	9
231.3631	1
231.7869	1
232.0195	6
232.7307	1
233.0259	13
233.1907	1
233.3611	0
233.7678	0
234.0224	4
234.1417	1
234.4012	1
234.6531	1
235.0635	6
235.2565	1
235.6762	1
235.9682	2
236.0945	0
236.3290	1
237.0234	5
238.0482	0
239.0059	4
239.4424	1
239.5921	0
239.9590	3
240.0560	1
240.3738	0
240.5827	0
240.7451	2
241.0264	7
241.1706	1
241.2902	0
241.5955	1
241.9852	5
242.6311	0
243.0238	4
243.5159	1
243.6566	0
244.0150	6
244.1720	1
245.0269	9
245.2671	1
245.7419	0
246.0096	3
246.6706	1
247.0216	8
247.7596	1
247.8978	2
248.0882	3
248.5783	1
248.9055	2
249.0811	3
249.3407	1
249.8183	0
250.0829	0
250.6305	0
251.0666	2
251.7069	1
252.0204	2
252.5372	1
252.7152	1
252.8705	1
253.0796	2
253.6475	1
253.9591	2
254.4162	0
254.9816	2
255.1611	1
255.9655	1
256.1691	1
256.6853	0
257.0565	5
257.5163	0
258.0610	2
258.7550	1
259.0175	7
259.2440	0
259.6183	1
260.0090	3
261.0390	5
262.0537	2
262.1798	1
262.5035	1
262.8584	1
263.0702	3
263.7334	1
264.0693	2
264.5406	1
265.0148	3
266.0414	4
266.4243	1
267.0095	3
267.1216	2
267.9331	1
268.0757	0
268.4887	1
268.9323	1
269.0855	2
269.8571	1
269.9586	1
270.0900	1
270.7688	1
271.0336	4
271.8064	1
272.0187	2
272.2141	1
272.3292	1
272.7917	1
273.0148	4
273.1136	2
273.9315	1
274.1291	1
274.6842	2
274.8805	1
275.1065	4
276.0081	2
276.2307	1
276.6568	1
277.1062	3
277.7741	0
277.9920	2
278.0928	2
279.0605	3
280.0165	3
280.1635	1
280.3887	1
280.9357	1
281.0977	2
281.5204	1
282.0868	2
282.7919	0
283.0869	2
283.5930	0
283.9890	0
284.1334	1
284.6781	1
285.0195	2
285.1382	1
285.5551	0
286.2266	2
286.4564	0
287.0391	5
287.1153	2
287.9330	1
288.0241	1
288.4042	0
289.0648	3
289.1958	1
290.1656	1
290.9975	2
291.1962	1
291.4498	1
292.2093	1
292.5057	1
292.9069	1
293.0558	1
293.2632	0
294.0915	1
294.8747	1
295.0520	3
296.0228	1
296.8726	1
297.0564	1
297.2160	0
298.0590	1
298.1744	0
298.9042	1
298.9933	1
299.1288	2
299.3440	1
300.0812	1
300.9354	4
301.0595	2
301.2213	2
301.9881	1
302.2391	1
303.0310	2
303.1901	1
303.5854	1
304.0641	1
304.6565	1
305.0062	2
306.0784	1
306.9159	1
307.9343	1
308.1921	1
308.9729	1
309.0986	1
309.9588	1
310.1160	0
311.0529	1
311.6783	1
311.9177	1
312.0192	1
312.6648	0
313.1259	2
313.5271	1
313.6422	1
313.8639	1
314.0391	1
314.1413	2
314.6033	1
314.9660	0
315.0919	1
315.6971	0
315.9575	2
316.1699	1
316.8125	1
316.9706	1
317.0686	2
317.1667	1
318.0391	1
319.1006	1
319.1829	1
319.9898	1
322.2328	0
322.7651	0
323.1699	1
323.6814	1
323.9329	2
324.1300	1
324.8273	1
325.0014	3
325.1018	1
325.7483	1
326.7039	1
326.9806	1
327.1212	1
328.8781	0
328.9627	0
329.1485	1
329.9713	1
330.1284	1
330.8932	0
331.3510	0
331.8698	0
331.9745	1
332.0764	0
334.1150	1
335.1403	2
335.5029	1
336.0674	1
336.9845	1
337.1756	1
338.2829	1
339.0891	0
340.3973	0
341.1147	3
341.8365	1
342.1842	2
342.6518	0
343.0089	1
343.1353	1
343.8962	1
343.9874	1
344.1857	2
344.8246	1
345.0639	1
346.0837	2
346.2965	1
347.1354	1
348.6468	1
348.8999	1
349.3177	1
350.0196	1
351.0878	1
352.2281	1
352.9498	1
353.0426	1
354.0156	1
355.0737	2
355.2860	1
356.0016	1
356.1139	1
356.8864	0
357.0636	1
357.1493	0
358.1149	0
358.5348	0
360.1656	1
360.8111	0
361.0884	1
362.3919	1
363.0809	1
363.3151	1
364.0366	1
365.2701	1
365.5241	0
367.1980	1
367.6648	1
368.2473	0
368.5253	1
368.8328	1
369.0310	1
369.2379	2
369.9958	1
370.2797	2
371.1297	1
372.0610	2
372.3730	1
372.8336	1
373.1262	1
374.2383	3
374.8723	1
375.9250	0
376.0674	1
376.2593	1
377.2252	1
378.0091	1
378.2206	3
378.5097	0
379.1025	1
379.7277	1
380.0126	1
380.0889	1
380.7146	1
381.0069	1
381.3093	1
381.9891	0
382.6776	1
383.1745	1
384.1591	0
384.8046	1
384.9926	1
385.2195	2
386.1057	1
387.0367	1
387.8596	0
389.1440	1
390.0970	1
390.3291	1
390.8503	1
392.1762	0
394.3462	1
394.6390	1
395.1613	1
396.3451	1
397.1841	1
397.3082	1
397.9122	1
398.2434	0
399.0725	1
400.0389	1
400.1934	1
400.3290	0
400.8112	1
402.0990	1
403.2275	1
404.0781	1
404.9952	1
405.3397	1
405.9514	1
406.0829	1
406.6729	1
406.9865	1
407.3426	0
409.1783	1
411.8932	1
413.0399	1
414.2829	1
414.9828	1
416.0572	1
416.1489	1
416.2607	1
416.8907	0
417.0141	0
417.2891	1
417.6940	1
418.0946	1
418.2844	2
418.8005	1
419.3130	1
419.4365	1
419.8227	1
420.2529	1
420.9836	1
421.2637	2
422.1259	2
422.2681	2
422.8537	0
423.0668	2
423.2971	1
423.9413	1
424.0114	1
424.2310	4
424.3891	1
425.0970	1
425.2747	1
425.3982	1
426.1906	1
427.1189	1
428.0596	1
428.1557	1
429.3689	1
429.7069	1
430.1160	1
430.2141	1
430.3823	0
430.9935	2
431.0945	1
431.8357	1
432.0637	1
432.1864	2
432.2615	1
432.8447	1
433.1305	1
433.3932	1
433.5304	1
435.1120	1
436.2462	1
436.6657	0
437.2809	2
438.0860	1
438.2666	1
438.4052	1
438.9245	1
439.0176	1
439.3340	2
440.0598	2
440.2180	2
440.3213	1
441.6078	1
442.2543	2
442.8705	1
443.2057	1
444.1031	1
444.2274	1
444.4290	1
444.6082	1
445.7911	0
446.2406	1
446.4639	1
446.8166	1
447.2950	1
447.6210	1
448.2000	1
448.3344	1
448.9460	1
449.0464	1
450.0722	1
450.9044	1
451.0627	1
451.2413	1
451.5103	1
452.1378	1
452.3967	1
453.0424	2
454.0382	1
455.1325	3
455.2366	1
455.9418	1
456.3838	0
457.0977	2
457.2366	1
458.1264	2
461.0227	1
461.4902	1
462.7885	1
463.8329	0
464.0717	1
464.7022	1
465.0771	1
465.3245	0
466.0559	1
466.2032	1
466.3310	1
466.5303	0
467.1391	1
468.3054	1
468.7618	1
470.1183	1
470.3993	1
471.0783	1
472.0391	1
472.2262	0
472.3519	1
472.7333	1
473.3959	0
473.6531	1
474.8164	1
475.0021	1
475.4494	1
476.1836	2
476.3296	1
477.2575	2
477.5300	1
478.1870	1
478.3604	2
478.6055	1
479.1635	1
479.2329	1
479.3818	1
480.0027	1
480.7813	0
482.1600	1
482.4449	1
482.9271	1
483.0746	1
483.2098	1
483.3190	1
483.4173	1
483.9698	1
484.1368	1
485.1391	1
485.2873	0
485.8564	1
486.8097	1
486.9442	0
487.6646	1
487.7962	1
491.3134	0
491.5673	1
492.1230	1
492.2344	3
492.3813	4
492.7546	1
492.9948	0
493.1996	1
493.4615	3
493.6379	1
493.7428	1
493.8527	1
494.0342	2
494.1557	4
494.2837	4
494.3972	1
494.5578	1
495.3099	1
496.0526	2
496.3810	0
496.8757	1
497.2323	10
497.8507	1
498.1198	2
498.2782	1
499.0349	0
499.1419	1
500.0520	0
500.3110	1
501.0236	1
503.7833	2
503.9664	1
504.0872	1
504.2081	0
504.6307	1
504.8637	0
505.2994	0
505.6229	1
505.8415	5
506.2779	26
506.7165	1
506.8178	1
507.0052	3
507.2600	1
507.7522	1
508.0664	1
508.2727	1
509.1102	1
509.3114	1
509.6719	1
509.8645	1
510.0607	3
510.2923	6
510.4813	2
511.2045	1
511.4123	1
511.9148	1
512.1364	1
512.3268	2
513.1124	1
515.3051	1
515.8489	1
516.3950	1
516.7194	1
516.8541	1
517.2409	1
518.6656	1
519.2770	2
519.4914	2
519.8782	1
520.0354	1
520.6481	0
521.2081	2
522.1954	1
522.6037	1
523.4999	0
523.6799	1
523.9597	1
524.2886	6
524.4368	2
524.7122	1
524.8806	2
525.3005	33
525.8861	1
526.0234	2
526.2208	3
526.3690	2
526.4955	0
526.7160	1
527.6298	0
527.8106	1
528.3630	1
528.5141	1
528.8221	0
530.0701	1
532.0428	1
532.7841	0
534.2920	2
535.1932	0
535.9889	1
537.2750	1
537.8263	0
538.1359	1
539.4642	1
540.0748	1
540.3657	1
540.5856	1
541.3287	1
542.2759	1
543.2057	1
544.2572	1
545.4347	1
546.0368	0
549.7161	1
550.2474	1
550.5493	0
550.9272	2
551.7199	1
552.0812	2
552.4367	2
553.0021	1
553.1665	0
553.5249	1
554.0889	1
554.4481	1
554.9158	2
555.9890	1
556.2236	3
556.3808	1
556.5944	0
556.9152	1
557.1448	2
557.2954	1
557.4721	2
557.6336	1
557.7864	1
557.9783	1
558.3333	2
558.5990	1
559.2595	1
559.5051	1
559.7738	1
559.9962	1
560.2808	1
560.5322	1
561.2297	1
561.6295	1
561.9185	1
562.3286	1
562.5930	1
563.4992	1
563.7375	1
564.4663	1
564.5728	1
565.3329	0
565.6928	1
565.9653	5
566.3505	12
566.8129	2
567.2126	5
567.4778	4
568.2952	18
568.5894	10
568.9247	1
569.4191	1
569.7436	1
569.9460	1
570.3196	2
570.6608	0
571.2203	2
571.7675	1
572.4340	2
572.9913	1
574.6519	1
574.7596	1
574.8666	1
574.9858	1
575.2317	1
575.5968	1
575.8535	1
575.9496	0
576.1556	1
576.4160	3
576.6957	2
576.8230	1
576.9655	3
577.1787	1
577.3320	2
577.4332	1
577.7109	1
578.0074	1
578.2018	2
578.4578	1
578.7211	1
578.8230	1
579.0139	1
579.1318	1
579.3979	1
579.5859	1
579.6965	3
580.0827	8
580.2410	8
580.4016	3
580.5202	4
580.6446	2
580.8152	2
581.0524	3
581.2903	3
581.4487	2
581.7438	1
581.9724	2
582.1944	5
582.3752	2
582.4793	1
582.6544	2
582.8395	3
583.2250	6
583.4485	3
583.8188	2
583.9432	1
584.2650	3
584.6542	2
584.7714	1
584.9478	1
585.1207	2
585.5222	2
585.7833	3
586.0090	0
586.3113	2
586.5124	1
586.6050	1
586.9356	1
587.0955	1
587.3993	2
587.6778	2
587.9136	1
588.0728	2
588.3491	3
588.4504	2
588.5676	1
588.8049	2
588.9677	2
589.0978	2
589.3264	2
589.6149	2
589.8174	1
589.9034	1
590.0336	1
590.2657	2
590.6353	2
590.9028	6
591.0084	2
591.4712	3
591.7453	3
591.9883	4
592.1069	4
592.3116	3
592.4642	2
592.7151	5
593.0688	6
593.3595	4
593.5721	4
593.8065	6
594.0560	5
594.3981	9
594.6910	12
595.1561	10
598.3620	999
598.9270	102
599.6497	37
600.6379	19
601.6508	11
602.3237	9
602.5292	5
602.6949	4
602.9438	2
603.1225	4
603.4112	2
603.5422	1
603.6558	2
603.8757	2
603.9771	1
604.1290	1
604.3063	1
604.4619	3
604.6066	2
604.8808	3
