Mass spectrum: Cryptocapsin; FAB-EBEB; MS2; m/z: 568.43; [M]+*
Name: Cryptocapsin
Formula: C40H56O2
Exact mass: 568.42803
SMILES: C(=CC(=C(C)2)C(C)(C)CCC2)C(C)=CC=CC(=CC=CC=C(C=CC=C(C=CC(=O)C(C(C)(C)1)(C)CC(C1)O)C)C)C
InChI: InChI=1S/C40H56O2/c1-30(18-13-20-32(3)23-25-36-34(5)22-15-27-38(36,6)7)16-11-12-17-31(2)19-14-21-33(4)24-26-37(42)40(10)29-35(41)28-39(40,8)9/h11-14,16-21,23-26,35,41H,15,22,27-29H2,1-10H3/b12-11+,18-13+,19-14+,25-23+,26-24+,30-16+,31-17+,32-20+,33-21+/t35-,40-/m0/s1
Instrument: JMS-HX/HX 110A, JEOL
Instrument type: FAB-EBEB
Ms type: MS2
Ion mode: POSITIVE
Collision energy: 3 kV
Ionization: FAB
Base peak: 109.1140
Precursor m/z: 568.43
Precursor type: [M]+*
m/z	relative intensity
1.2503	0
4.7484	0
11.4149	0
14.0151	1
15.0230	2
15.5761	0
18.9961	0
23.7223	0
25.0318	0
26.0226	4
27.0276	32
27.6444	1
28.0402	5
29.0404	36
31.0279	3
32.7297	0
36.7744	0
37.0290	2
38.0034	6
39.0362	76
40.0357	9
41.0498	223
42.0572	5
43.0480	186
44.0364	2
44.6540	0
45.0457	2
47.0103	1
47.9753	0
49.0275	1
49.4007	1
50.0234	14
50.5796	0
51.0319	45
51.4741	0
52.0327	16
53.0437	113
53.4819	0
54.0545	7
54.6311	2
55.0582	355
56.0728	7
56.5499	1
57.0753	67
58.0653	1
59.0728	9
60.2107	1
61.0595	2
62.0295	9
62.3501	0
63.0410	30
64.0437	10
64.3102	1
65.0482	74
65.6418	0
66.0614	18
66.5104	0
67.0643	153
67.5894	0
68.0638	7
68.5029	0
69.0705	500
69.5656	1
70.0579	4
71.0585	74
71.6070	0
72.1138	0
73.0627	2
73.7214	1
74.0317	6
74.5426	1
75.0715	15
75.6494	3
76.0369	9
77.0510	246
77.6771	3
78.0571	38
79.0611	246
79.6959	2
80.0619	25
81.0767	292
82.0593	13
83.0911	869
84.0992	7
84.6302	1
85.1050	145
86.0599	5
86.6368	1
87.0631	7
88.0100	4
89.0486	22
89.2609	5
90.0872	12
91.0769	555
92.0805	54
93.0915	349
94.0965	15
95.1017	304
96.0921	10
97.0989	52
97.6518	0
98.0751	4
99.0716	32
99.6046	0
100.0295	1
100.5373	1
101.0495	9
101.4481	2
101.7131	2
102.0754	28
103.0796	104
104.0817	49
105.0949	772
106.1033	60
107.1032	328
107.6721	2
108.1024	32
109.1140	999
110.0767	9
111.0836	42
111.5990	0
112.0668	5
113.0555	11
113.6207	3
114.0605	9
115.0617	282
116.0685	116
117.0727	338
117.5821	2
118.0744	62
119.0869	759
120.0956	67
121.0853	335
122.0738	30
123.0961	122
124.0424	5
125.0891	251
126.0543	13
127.0779	212
128.0564	342
129.0593	437
130.0662	178
131.0703	467
132.0755	99
133.0833	374
134.0937	28
135.0654	112
135.5527	1
136.0473	10
137.0827	50
137.7051	1
138.0600	5
138.3334	1
139.0534	36
140.0909	21
141.0574	302
142.0706	285
143.0766	517
144.0836	168
145.0847	631
146.0840	62
147.0982	214
148.0924	15
149.1267	36
149.5387	2
150.0530	11
151.0891	45
152.0857	107
153.0887	169
154.0941	100
155.1003	355
156.1060	211
157.1168	530
158.1102	109
159.1142	688
160.1473	44
161.1431	166
162.1411	8
163.1188	29
164.0943	13
165.1188	288
166.1242	102
167.1275	229
168.1355	94
169.1424	325
170.1458	114
171.1485	293
172.1490	53
173.1545	188
173.6994	4
174.1664	18
175.1762	119
176.1298	24
176.5692	3
177.1694	84
178.1115	149
179.1125	228
180.1128	98
181.1165	275
182.1381	126
183.1274	315
184.1260	70
185.1308	199
186.1492	35
187.1582	106
188.1520	17
189.1249	81
190.0668	31
191.1096	114
192.1187	88
193.1096	232
194.1226	106
195.1204	323
196.1259	92
197.1248	248
198.1241	49
199.1298	113
200.1447	21
201.1616	83
202.1024	61
203.1203	107
204.1127	29
204.5361	3
205.1171	106
206.1221	78
207.1246	177
208.1218	81
209.1297	256
210.1467	60
211.1468	134
212.1416	27
213.1774	57
213.7115	5
214.1949	13
215.1228	67
216.1252	31
217.1280	63
218.1691	39
219.1466	112
220.1624	55
220.6573	35
221.1582	225
222.1632	51
223.1730	133
224.1526	24
224.4879	3
225.1938	76
226.1742	16
226.6003	3
227.1988	50
228.1756	27
228.5889	3
229.1604	51
230.1653	32
230.5504	3
231.1588	65
232.1645	40
233.1851	104
234.1740	35
235.1881	104
236.1733	26
236.5886	3
237.1984	89
238.2063	19
239.1999	74
240.1954	13
241.1985	38
242.1976	21
243.2029	59
244.1572	20
245.1866	53
246.2105	30
247.1834	81
247.6061	2
248.1742	28
249.2036	67
250.1891	20
250.6769	4
251.2118	61
252.2333	24
253.2434	58
254.2435	21
255.2379	33
256.2193	19
257.1775	38
258.2021	17
259.2271	48
260.2318	21
260.5878	6
261.2132	62
261.6635	1
262.2067	17
262.5791	1
263.2314	57
264.2387	15
265.2050	51
266.2527	19
267.2285	56
268.2414	22
269.2560	44
269.6735	2
270.2518	10
271.1991	30
272.2012	13
273.2219	39
274.2104	12
275.2286	42
276.1970	15
276.6856	2
277.2394	34
278.2451	11
278.6513	1
279.2600	32
280.2560	15
281.2388	37
282.2352	8
282.5827	1
283.2216	19
283.8354	1
284.2466	13
285.2319	21
285.7335	1
286.2382	8
286.5298	2
287.2491	36
288.2352	9
289.2466	26
289.7864	2
290.2242	6
290.6294	1
291.2344	26
292.2657	12
293.2794	27
294.2283	8
295.2380	13
295.6615	2
296.2317	7
296.7086	1
297.2034	16
297.5175	2
298.2197	9
299.2141	22
300.1078	6
300.7037	2
301.2300	27
302.2458	8
303.2440	25
303.6237	1
304.2349	7
305.2676	17
305.6742	2
306.2308	11
306.4371	4
307.2699	9
307.6202	3
308.2691	5
309.2105	11
309.5967	2
310.2220	6
311.1951	19
312.2218	4
313.2146	23
314.2046	9
314.5777	2
315.2349	17
316.1970	6
316.4736	3
317.2440	31
318.2512	10
319.2555	23
319.6602	2
320.2868	10
321.3064	18
322.2577	4
323.2032	9
323.7765	0
324.3320	5
325.2407	14
325.6712	1
326.2761	5
327.2312	9
327.6425	2
328.0240	3
328.3177	6
329.2910	17
330.2332	7
331.3128	19
332.3196	25
333.2934	24
334.2242	9
334.5876	2
335.2654	5
335.8449	0
336.2859	3
337.3155	6
338.2395	1
339.2366	6
339.8761	2
340.3055	2
341.3298	9
341.8174	1
342.3170	6
342.7033	2
343.2760	15
344.2964	8
344.7275	1
345.3213	22
346.3315	15
347.3240	14
347.7733	1
348.3719	3
349.2347	6
349.5050	1
349.7633	1
350.2859	1
351.2550	8
352.3035	9
353.2655	13
354.3412	9
355.3004	10
355.8788	1
357.2433	19
358.3316	14
359.3186	27
360.3503	31
361.3687	6
361.6300	3
361.9301	1
362.3692	2
362.8696	1
363.2938	6
363.6493	1
364.2992	4
365.2987	23
365.8530	0
366.3387	9
367.3190	12
367.7286	1
368.2816	5
369.3504	11
370.3387	5
371.3076	5
372.2976	7
372.7685	1
373.3302	3
373.9277	0
374.4401	2
375.2827	4
376.3376	2
376.6171	1
377.3060	17
378.3179	20
379.2955	10
380.3420	6
381.3318	4
381.8761	1
382.3890	3
383.3387	18
384.3393	8
385.3311	14
385.7156	2
386.3439	7
387.2986	7
387.7579	1
388.3670	4
389.2784	5
389.7230	1
390.3561	4
391.2828	15
392.2948	6
392.8249	1
393.3115	4
393.7832	1
394.3478	2
394.8150	1
395.3602	7
396.3398	5
396.7637	2
397.4049	19
398.3278	27
398.7607	2
399.3391	14
400.3641	7
401.3278	2
402.0157	1
402.2750	1
403.3378	2
404.2538	3
404.6178	1
405.2793	4
405.5726	2
406.1189	1
406.5410	1
406.8913	1
407.2910	7
407.6787	1
408.1982	1
408.5260	2
408.8674	1
409.3615	5
409.7059	2
410.3482	15
411.3845	15
412.3745	47
413.3660	167
414.3951	4
415.3195	6
416.3024	2
416.4672	1
417.3333	18
418.3868	10
418.7405	2
419.3535	16
420.3922	3
420.8734	1
421.4156	2
422.3754	5
422.8486	1
423.3817	12
424.3476	13
425.3915	11
426.3232	4
426.7037	2
427.3763	13
428.0429	1
428.3815	2
429.3045	5
429.6611	1
430.3084	6
430.6666	1
431.3364	25
432.2776	8
432.8336	2
433.5037	3
433.7285	2
434.3896	1
434.8213	1
435.5454	1
435.8302	1
436.2500	3
436.5799	3
436.8662	2
437.4120	1
438.3867	4
439.2130	5
440.4053	21
441.3548	214
442.3313	8
443.3379	7
444.3221	15
445.3589	18
445.6860	4
446.8625	11
448.0511	3
448.9756	3
449.4845	4
450.3401	1
451.2093	2
451.7827	1
452.4688	3
453.0139	1
453.3502	2
453.7181	1
454.0229	2
454.4613	5
455.0785	3
455.4480	7
456.4022	20
458.6063	19
461.3927	23
462.4291	22
463.4131	5
464.0702	2
464.5157	2
465.3183	4
465.6334	1
466.6252	2
467.4489	8
468.1962	2
468.8069	1
469.2346	2
469.5723	1
470.4068	2
472.6943	6
473.5109	10
474.5033	10
475.4536	19
476.4266	575
477.1038	9
477.4402	5
478.3202	2
478.6460	3
479.5171	4
480.3521	3
480.6390	2
481.4786	3
482.4145	32
483.4298	20
484.3475	10
484.7899	2
485.3733	3
485.7662	2
486.4352	3
486.7291	2
487.2481	5
487.6096	2
488.4181	43
489.4111	47
490.3322	1
491.2954	1
491.5970	1
491.9946	1
492.2841	0
493.5671	3
494.5575	4
494.8396	2
495.0992	1
495.3378	2
495.6320	1
496.4559	19
497.4600	5
497.6957	2
498.3336	5
499.2042	4
499.5675	2
499.9893	3
500.3271	3
500.6228	1
500.9966	1
501.3810	2
502.0145	2
502.5325	3
503.0250	3
503.8268	3
504.2397	0
504.6196	2
505.1437	1
505.9336	1
506.2069	2
506.5463	2
506.8557	1
507.5616	4
508.4282	4
508.7977	1
509.4811	3
510.4841	9
511.2831	7
511.5454	6
512.4254	15
513.3414	2
513.7206	2
514.2559	2
514.8841	2
515.8752	1
516.6654	0
517.8876	1
518.3690	1
518.7049	2
518.8893	1
519.4547	2
520.2316	1
520.5691	1
520.9155	2
521.2950	4
521.5995	1
522.4695	1
522.9660	0
523.5270	5
523.7866	2
524.4526	7
525.4172	14
525.8419	1
526.4465	4
527.3482	2
527.7578	1
528.3610	1
528.8172	1
529.5959	1
530.1857	2
530.6344	2
531.9596	5
532.7445	1
533.2203	2
533.7081	2
534.2095	1
534.6553	3
535.4899	13
536.1128	3
536.5707	3
537.5044	9
538.4262	14
539.5057	42
540.5988	7
540.9937	4
541.2504	3
541.9066	3
542.4622	5
543.2056	5
544.0766	5
545.4643	10
546.5096	11
547.1945	9
550.5714	143
551.5569	29
552.5064	51
553.5618	604
568.4383	999
571.2966	311
572.8414	83
574.1432	42
