Mass spectrum: Violaxanthin; FAB-EBEB; MS2; m/z: 600.42; [M]+*
Name: Violaxanthin
Formula: C40H56O4
Exact mass: 600.41786
SMILES: O(C(C)21)C1(C=CC(=CC=CC(=CC=CC=C(C=CC=C(C=CC(O4)(C4(C)3)C(CC(C3)O)(C)C)C)C)C)C)C(CC(C2)O)(C)C
InChI: InChI=1S/C40H56O4/c1-29(17-13-19-31(3)21-23-39-35(5,6)25-33(41)27-37(39,9)43-39)15-11-12-16-30(2)18-14-20-32(4)22-24-40-36(7,8)26-34(42)28-38(40,10)44-40/h11-24,33-34,41-42H,25-28H2,1-10H3/b12-11+,17-13+,18-14+,23-21+,24-22+,29-15+,30-16+,31-19+,32-20+/t33-,34-,37+,38+,39-,40-/m0/s1
Instrument: JMS-HX/HX 110A, JEOL
Instrument type: FAB-EBEB
Ms type: MS2
Ion mode: POSITIVE
Collision energy: 3 kV
Ionization: FAB
Base peak: 42.9754
Precursor m/z: 600.42
Precursor type: [M]+*
m/z	relative intensity
14.9977	4
26.9913	22
28.9982	30
30.9874	5
37.9752	7
38.9850	62
39.9912	6
40.9951	164
41.9888	4
42.9754	999
44.0009	3
44.9864	8
49.9799	14
50.9851	36
51.9911	13
52.9945	78
53.9952	5
55.0065	206
56.0201	5
57.0188	98
58.9987	24
60.9768	5
61.9738	9
62.9816	30
63.9915	8
65.0057	61
66.0020	11
67.0034	112
67.9964	7
69.0044	227
69.9837	13
70.9901	104
72.9762	3
73.9738	6
74.9748	15
75.9721	8
76.9818	193
77.9913	41
78.9946	198
80.0068	27
81.0046	213
81.9970	12
83.0063	196
84.9980	185
85.9731	5
86.9779	244
87.9628	5
88.9964	22
90.0053	10
90.9940	444
92.0041	39
93.0083	321
93.9979	21
95.0101	234
95.9827	10
97.0021	58
97.9741	6
98.9881	17
100.9798	12
101.9854	22
102.9917	85
103.9926	41
105.0052	631
106.0075	56
107.0165	312
108.0174	29
109.0143	265
109.9994	11
110.9973	50
111.9820	3
112.9932	59
114.0023	7
114.9794	257
115.9817	95
116.9856	250
117.9886	46
118.9931	568
119.9940	53
120.9977	281
121.9613	25
122.9830	221
123.9669	5
124.9801	114
125.9605	18
126.9611	102
127.9530	320
128.9767	403
129.9775	161
130.9821	403
131.9804	86
132.9888	404
133.9857	32
134.9863	164
135.9714	35
136.9744	68
137.9642	6
138.9667	74
139.9600	14
140.9582	276
141.9679	273
142.9735	491
143.9867	164
144.9906	573
145.9994	70
147.0015	224
147.9785	24
148.9917	97
150.0150	13
150.9819	81
151.9811	114
152.9825	157
153.9953	80
154.9960	383
156.0015	213
157.0119	564
158.0179	113
159.0169	419
160.0023	61
161.0215	123
162.0152	15
163.0243	71
164.0011	25
165.0026	272
166.0220	80
167.0185	212
168.0276	88
169.0389	301
170.0483	134
171.0505	328
172.0444	65
173.0471	158
174.0372	25
175.0387	120
176.0063	22
177.0211	37
178.0075	139
179.0184	236
180.0220	100
181.0264	278
182.0261	104
183.0278	303
184.0381	61
185.0344	212
186.0367	39
187.0290	97
188.0112	16
189.0033	80
189.9921	30
191.0002	102
191.9955	89
193.0021	260
194.0013	109
195.0172	274
196.0202	86
197.0278	249
198.0240	49
199.0301	126
200.0071	25
201.0332	55
201.9843	54
202.9831	82
203.9946	30
204.9945	107
205.9990	69
207.0094	179
208.0150	75
209.0156	196
210.0235	56
211.0211	136
212.0205	27
213.0326	78
214.0031	19
215.0053	89
215.9998	37
217.0207	84
218.0134	38
219.0094	115
220.0275	57
221.0285	179
222.0421	37
223.0494	128
224.0367	30
225.0462	74
226.0015	24
227.0583	40
228.0391	22
229.0298	68
230.0333	33
231.0440	96
232.0483	48
233.0455	112
234.0655	39
235.0680	91
236.0669	25
237.0661	76
238.0740	14
239.0493	39
240.0525	9
241.0464	42
242.0626	17
243.0380	50
244.0495	23
245.0641	50
246.0653	40
247.0848	75
248.0634	27
249.0725	55
250.0449	12
251.0919	44
252.0498	21
253.0824	37
254.0795	12
255.0797	34
256.0913	12
257.0798	47
258.0865	17
259.0754	50
260.0739	15
261.1113	50
262.1269	10
263.1071	49
264.1041	9
265.1124	34
266.0879	9
267.0775	24
268.1143	10
269.0921	35
270.1185	14
271.0969	59
272.1031	15
273.1000	42
274.1013	15
275.1195	37
276.1145	10
277.1014	31
278.1307	7
279.1130	23
280.0595	5
281.0769	16
282.0822	6
283.0973	25
284.0670	10
285.1105	39
286.1098	24
287.1177	38
288.0871	5
289.1219	25
290.1139	8
291.1075	18
292.1265	8
293.1151	16
294.1189	10
295.1288	15
296.1237	9
297.1119	23
298.0948	12
299.1016	41
300.1432	10
301.0991	15
302.0967	5
303.1294	15
304.0650	5
305.1260	13
306.0550	3
307.0984	11
308.0835	3
309.0841	13
310.0891	4
311.0986	19
312.1110	8
313.0944	20
314.1017	5
315.0980	14
316.1266	3
317.1248	14
318.1259	3
319.1412	10
320.1679	7
321.0636	8
322.1605	3
323.1570	14
324.1328	5
325.1033	13
326.1046	3
327.1494	12
328.1442	4
329.1335	6
331.1197	10
332.1767	3
333.1444	5
334.1472	3
335.1447	9
336.1003	3
337.1092	13
339.1205	4
341.1713	8
342.2018	3
343.1542	6
344.2354	4
345.1056	5
347.1458	6
348.1494	5
349.1545	8
350.1570	4
351.1653	15
352.1667	40
353.1627	13
354.1574	6
355.1355	4
357.1790	3
359.1335	4
360.2063	4
361.1866	7
362.1812	3
363.1339	7
364.1834	5
365.1799	12
367.1753	12
368.1174	3
369.2138	4
371.1658	4
373.1956	6
375.1067	7
377.2120	9
378.1933	7
379.1635	9
380.1913	4
381.1757	5
383.1849	4
386.2873	3
387.1445	3
389.1580	10
391.1552	8
392.2305	3
395.2550	3
397.1779	5
399.2094	5
401.1711	4
402.1690	4
403.2542	3
404.1862	3
405.2070	4
409.1505	3
415.2318	3
417.2305	4
418.1984	7
419.2001	14
420.2118	8
421.2883	3
425.2733	3
427.2150	5
429.2374	4
431.1596	3
432.1144	3
433.2001	3
434.2057	4
439.2536	3
441.2633	3
443.2987	4
444.1786	12
445.1895	8
448.1242	3
453.2843	5
454.2171	7
455.2867	3
457.2205	5
465.2674	3
469.2553	5
470.3118	5
471.2275	5
473.0704	15
480.1470	7
481.2495	6
483.1982	3
484.1952	5
485.3234	5
486.1273	3
487.3150	4
490.2747	5
491.1283	6
493.1969	3
494.1844	3
495.3327	3
496.2401	4
498.2749	3
499.2572	10
500.3283	8
501.1641	4
502.2383	4
503.0643	5
504.5263	5
505.2411	6
506.2365	5
507.2659	10
508.2036	13
511.2204	4
513.3080	6
514.2716	7
515.1915	6
516.2722	3
520.2474	53
521.3036	8
525.2841	3
526.2445	16
528.5952	3
540.2785	7
541.1510	5
542.2279	9
543.3768	3
546.9381	5
549.2761	5
551.4366	4
555.3183	6
556.2987	5
557.2750	16
559.9754	4
560.9956	4
563.2224	4
564.3020	9
567.3166	20
568.2495	5
569.2655	7
570.2646	17
571.3076	5
572.2856	12
575.6165	13
582.2683	474
583.3301	35
584.3610	16
585.2890	188
600.2722	999
604.2504	88
608.5012	20
609.7022	14
