Mass spectrum: Corbiculaxanthin-3'-acetate; FAB-EBEB; MS2; m/z: 642.43; [M]+*
Name: Corbiculaxanthin-3'-acetate
Formula: C42H58O5
Exact mass: 642.42842
SMILES: CC(O)(C1=C=CC(=CC=CC(C)=CC=CC=C(C)C=CC=C(C)C=CC(=C(C)2)C(CC(O)C2O)(C)C)C)CC(OC(C)=O)CC1(C)C
InChI: InChI=1S/C42H58O5/c1-29(18-14-20-31(3)22-24-36-33(5)39(45)37(44)28-40(36,7)8)16-12-13-17-30(2)19-15-21-32(4)23-25-38-41(9,10)26-35(47-34(6)43)27-42(38,11)46/h12-24,35,37,39,44-46H,26-28H2,1-11H3/b13-12+,18-14+,19-15+,24-22+,29-16+,30-17+,31-20+,32-21+/t25?,35-,37-,39+,42+/m0/s1
Instrument: JMS-HX/HX 110A, JEOL
Instrument type: FAB-EBEB
Ms type: MS2
Ion mode: POSITIVE
Collision energy: 3 kV
Ionization: FAB
Base peak: 42.9700
Precursor m/z: 642.43
Precursor type: [M]+*
m/z	relative intensity
0.0217	0
0.7632	2
1.2929	0
1.7220	1
2.4974	0
3.4551	2
4.0903	0
5.3348	0
6.0249	1
6.4466	0
6.7169	0
6.8238	2
7.7363	3
8.7848	0
9.8581	3
10.2110	0
10.2779	2
11.7033	0
11.9856	0
12.9905	2
14.0029	1
15.0029	13
15.1352	0
16.6905	0
18.9993	2
20.2181	0
21.4739	3
22.9680	5
24.9605	2
25.2133	0
25.9658	5
26.9867	59
28.0082	6
28.3090	0
28.9919	56
29.9233	1
30.9778	7
31.3276	1
32.6525	0
33.5823	0
35.9413	1
36.9838	5
37.3348	0
37.5666	2
37.7844	0
37.9603	10
38.5705	0
38.9756	105
39.7046	2
39.9869	12
40.9905	179
41.5076	3
41.9783	6
42.2006	0
42.9700	999
43.9916	5
44.9696	16
45.6332	0
46.2718	0
46.9603	9
48.9742	3
49.9516	29
50.9764	81
51.9807	26
52.7921	3
52.9875	121
53.3882	0
54.0008	7
54.1709	0
54.9930	270
55.5457	0
56.0005	11
57.0034	73
57.3252	0
57.9974	7
58.9957	38
59.9715	11
60.2352	1
60.9716	6
61.9661	19
62.9818	57
63.1896	0
63.5428	1
63.9832	14
64.1736	3
64.4675	2
64.7715	1
64.9858	71
65.2441	2
65.5198	0
66.0049	20
67.0013	168
68.0159	7
68.9999	196
69.4664	3
70.0436	2
70.9898	65
71.3311	3
71.9912	0
72.5745	1
72.7520	2
72.9749	9
73.9595	20
74.9589	28
75.2215	4
75.3759	1
75.4614	1
75.6034	3
75.9725	14
76.3534	0
76.5015	2
76.6878	2
76.9812	277
77.2404	2
77.3201	1
77.5528	3
77.7767	5
77.9849	41
78.1753	1
78.3051	2
78.4541	3
78.6678	1
78.9829	240
79.9795	36
80.6911	1
80.9985	231
81.9560	18
82.2043	3
82.5513	1
82.9946	127
83.3489	2
83.9909	7
84.9808	97
85.3455	2
85.9617	16
86.9570	68
87.9188	3
88.0109	3
88.2003	1
88.3898	2
88.7671	5
88.9675	32
89.2860	4
89.4008	1
89.5420	2
89.7500	2
89.8610	5
89.9978	11
90.1254	4
90.3323	3
90.4362	1
90.5732	3
90.9785	464
91.2376	1
91.3032	1
91.6362	2
91.9874	53
92.1960	3
92.5471	2
92.6868	1
92.9896	327
93.1980	3
93.3533	1
93.9788	35
94.9924	249
95.3196	0
96.0044	10
96.9981	55
97.3663	0
97.8869	11
98.0323	6
98.9812	15
99.2241	1
99.8887	4
100.0097	3
100.6497	3
100.7743	6
100.9342	8
101.0615	3
101.4316	2
101.5368	1
101.6935	2
101.9839	27
102.6103	1
102.9959	99
103.4389	2
103.5915	0
103.6943	1
103.9832	26
104.2758	3
104.9972	562
105.3449	0
105.6389	3
106.0035	56
106.3355	2
106.6273	3
107.0160	314
107.3459	1
107.6876	1
108.0186	26
108.3712	2
108.6187	2
109.0129	201
110.0006	7
110.4658	1
111.0183	68
111.1976	3
111.4727	1
111.5700	3
111.8957	3
112.0000	5
112.0953	5
112.2548	3
112.6362	3
113.0006	19
113.2504	4
113.4587	3
113.5500	1
113.9268	9
114.1471	4
114.3370	3
114.5332	3
114.9786	241
115.2764	3
115.5931	5
115.9704	88
116.2506	4
116.5226	7
116.9861	236
117.3113	1
117.5608	2
117.9791	44
118.3355	0
118.5093	2
118.9967	533
119.4432	1
119.6193	3
120.0026	61
120.3245	2
120.4946	6
120.6332	0
121.0080	305
121.6403	0
121.9974	46
122.5654	0
122.9925	89
123.8033	2
124.0018	11
124.1658	2
124.6355	3
125.0005	133
125.4179	1
125.7184	7
125.9774	20
126.3544	2
126.5458	3
126.7062	7
126.9733	137
127.2505	5
127.4294	3
127.5369	3
127.9700	287
128.3516	4
128.5442	3
128.9772	343
129.3628	1
129.5891	0
129.9829	137
130.4309	2
130.5509	3
130.9850	346
131.2694	3
131.4372	3
131.5318	1
131.9899	74
132.2099	3
132.4498	1
132.5602	1
132.9883	323
133.4238	2
133.5507	3
133.6342	3
133.9865	33
134.3084	5
134.6239	2
134.9968	131
135.6400	3
135.9661	27
136.4290	3
136.9838	100
137.9505	11
138.2803	1
138.6175	3
138.9792	49
139.4123	3
139.9593	14
140.1851	5
140.3304	4
140.9550	233
141.4325	2
141.9772	256
142.4270	3
142.6239	3
142.9810	426
143.3751	2
143.4718	3
143.9780	143
144.2526	4
144.4368	4
144.9899	426
145.3639	1
145.5759	2
145.9978	50
146.2151	6
146.9953	192
147.3302	3
147.5832	5
148.0098	26
148.2187	4
148.3167	1
148.4532	3
148.9941	194
149.2694	3
149.4721	4
149.9584	21
150.4223	3
150.5263	6
150.9643	40
151.3407	4
151.5147	1
151.9706	105
152.2774	5
152.4137	3
152.5594	6
152.9692	146
153.4017	4
153.5301	5
153.6381	2
153.9892	85
154.3571	2
154.9861	292
155.4026	2
155.9957	212
156.2978	3
156.4895	7
157.0011	443
157.5210	1
158.0031	89
158.2947	3
158.4208	2
158.6056	3
159.0214	275
159.5005	2
159.6678	2
160.0355	40
160.6186	5
161.0308	113
161.3101	1
162.0166	25
162.3624	3
162.5566	3
163.0276	61
163.3553	3
163.6948	5
163.8377	6
164.0469	24
164.3675	3
164.9970	187
165.3584	5
165.5952	3
165.9989	66
166.2528	3
166.3805	3
166.5370	6
167.0245	196
167.2682	2
167.5764	3
168.0162	77
168.2824	4
169.0331	277
169.4402	2
169.6445	1
170.0413	92
170.5406	2
171.0511	227
171.3528	2
171.5796	2
172.0565	67
172.3443	4
172.5046	5
172.5914	3
173.0575	159
173.4725	3
173.6557	3
174.0548	35
174.4993	2
174.6185	7
175.0543	105
175.2974	5
175.4523	3
175.6162	3
176.0292	25
176.1998	4
176.3935	5
176.5307	2
177.0398	32
177.3323	4
177.5098	6
178.0245	105
178.4346	5
179.0321	180
179.3094	7
179.6165	3
180.0226	91
180.3604	3
180.4661	2
180.6365	5
181.0370	188
182.0304	99
182.3508	4
182.5520	5
183.0418	307
183.5839	4
184.0374	64
184.3814	3
184.5567	3
185.0494	160
185.5990	2
186.0374	39
186.3109	5
186.4574	4
186.6046	2
186.8153	12
187.0695	84
187.4284	3
187.7253	4
188.0208	22
188.1449	18
188.3694	3
189.0168	77
189.3432	3
189.5244	3
190.0030	32
190.4023	7
190.5993	3
191.0160	108
191.3511	6
191.4673	2
191.5985	6
192.0058	77
192.3763	3
192.5781	3
193.0261	178
193.5118	3
193.6364	7
194.0291	96
194.3604	3
195.0162	212
195.4100	2
196.0235	83
196.5665	5
197.0472	226
197.4114	2
197.5544	6
198.0549	42
198.4856	3
198.5858	3
199.0377	111
199.3797	5
199.9796	23
200.3972	3
200.5789	4
201.0578	42
201.3527	5
202.0219	61
202.4702	5
203.0213	67
203.4547	2
203.7251	3
204.0537	31
204.2796	2
204.4557	1
205.0286	77
205.5737	4
206.0297	89
206.4382	4
206.5539	4
207.0556	182
207.3500	4
207.5816	4
207.6694	3
208.0396	82
208.3872	2
209.0439	181
209.4955	4
210.0450	40
210.3308	2
210.4346	0
211.0594	130
211.3992	5
211.6268	3
212.0479	21
213.0315	64
213.3990	2
213.5646	6
213.7529	6
214.0392	13
214.2140	5
214.5908	8
215.0277	92
215.3089	3
215.6198	3
216.0395	36
216.4083	4
216.5482	3
217.0396	86
217.3964	0
218.0532	41
218.2731	2
218.4406	4
218.6743	3
219.0482	94
219.3269	6
219.5927	7
220.0590	54
220.5276	2
221.0527	144
221.4361	4
221.6305	2
222.0812	48
222.4244	3
223.0858	113
223.5833	4
223.7253	2
224.0871	38
224.2741	6
224.3733	2
224.6444	3
225.0850	69
225.3744	2
225.5257	3
225.6166	2
225.7548	3
226.0925	38
226.3034	3
226.4776	2
227.0516	34
227.4025	2
227.5967	2
227.7458	8
228.0654	27
228.4317	4
229.0628	53
229.2044	23
229.4225	2
229.5502	1
229.7263	2
230.0569	38
230.3164	7
230.5215	3
230.7114	4
231.0759	87
231.3723	3
232.1168	44
232.3650	7
232.6378	5
233.0930	109
233.4303	5
233.6434	2
234.0927	40
234.4830	1
234.7284	5
235.1150	101
235.5131	3
235.7326	3
236.0817	21
236.2782	10
236.5138	4
236.6796	3
237.1410	90
237.4888	3
237.5963	2
237.7107	5
237.8823	5
238.0500	8
238.2185	13
238.3180	3
238.4528	4
238.5409	3
239.1124	54
239.4181	3
240.0234	12
240.5140	7
241.1073	29
241.4478	3
241.7530	9
242.0943	20
242.7441	2
243.0955	53
243.3649	3
243.6181	1
243.7210	3
244.1116	36
244.3949	1
244.5608	1
245.1044	79
245.6520	3
246.0591	36
246.5147	8
247.1080	78
247.5899	7
248.1026	30
248.4625	3
249.1069	60
249.3738	5
249.5600	3
249.6800	4
249.7961	6
250.1093	26
250.6687	1
251.1127	48
251.4576	2
251.6462	3
251.8109	4
252.1535	28
252.4569	5
252.6410	3
253.1054	40
253.4775	6
253.6986	4
253.8966	8
254.1146	11
254.3034	5
254.8421	7
255.1150	31
255.3901	2
255.5806	3
256.0856	17
256.5197	2
257.0866	40
257.6482	3
257.8272	5
258.1188	20
258.6737	6
259.1113	59
259.6440	1
259.8478	7
260.1358	15
260.4493	4
260.5891	2
261.1228	72
261.6102	3
261.8497	5
262.1448	20
262.3542	5
262.5397	2
263.1201	58
263.5314	1
263.7494	3
264.0927	15
264.4112	2
264.5643	2
264.7012	2
265.1490	40
265.4452	3
265.5782	2
265.7236	3
266.0840	8
266.6016	2
267.0906	21
267.5728	1
268.1053	18
268.4010	3
268.5233	7
269.1566	42
269.5043	3
269.7955	3
270.0790	17
270.2687	10
270.5259	4
271.0930	36
271.5153	1
271.7711	2
272.1322	13
272.7802	2
273.1632	42
273.6245	4
274.1006	16
274.3077	4
274.4512	3
274.6630	4
275.1144	46
275.2455	16
275.5078	3
275.6381	3
275.8453	6
276.1494	17
276.4141	3
276.5204	3
277.1351	27
277.3874	3
277.7554	1
278.1296	14
278.3028	10
278.6165	3
278.7182	2
279.1687	30
279.4949	2
279.7357	3
280.1529	12
280.3386	8
280.5290	2
280.6844	7
281.1328	22
281.3255	4
281.5237	5
281.7133	3
281.9108	7
282.0903	11
282.2264	7
282.3772	2
282.6096	4
283.1391	23
283.4844	1
283.6127	2
283.8692	3
284.0911	18
284.2991	5
284.4132	1
284.6088	3
285.1552	25
285.4099	4
285.6645	2
285.8889	2
286.1692	21
286.3322	8
286.5318	2
286.7563	2
287.1438	25
287.3908	5
287.5648	3
287.7971	3
288.2151	9
288.5142	2
289.1366	29
289.4156	4
289.7179	3
289.8470	2
290.1416	11
290.5077	3
290.7059	6
291.1133	16
291.3264	4
291.6966	13
292.1484	8
292.3079	3
292.4268	2
292.5754	1
292.7668	5
293.1339	22
293.3432	3
293.5121	0
293.8210	1
293.9447	2
294.1859	8
294.3797	5
294.7190	3
294.8886	3
295.1603	13
295.9169	3
295.9964	2
296.1941	10
296.3109	7
296.4362	3
296.7789	1
297.1526	21
297.6815	1
298.1707	14
298.6396	3
298.9248	6
299.1725	31
299.4476	3
299.9073	5
300.1326	7
300.3267	3
300.6369	0
300.7819	3
301.1494	19
301.5622	3
301.9688	5
302.1526	14
302.2897	2
302.7104	3
302.8342	2
303.1669	19
303.4669	3
303.7373	3
304.1706	7
305.0521	13
305.2742	5
305.8636	2
306.0562	3
306.2207	3
306.6597	3
306.8172	2
307.0644	10
307.2485	7
308.1143	12
308.3459	3
308.4801	3
309.1089	10
309.3064	7
309.3953	4
309.8190	2
309.9540	2
310.2475	6
310.5417	1
310.6760	3
311.1404	15
311.4363	2
311.9297	7
312.2076	14
312.4708	4
312.6059	4
312.8441	3
313.1861	28
313.6094	2
313.7563	1
313.8633	3
314.1179	7
314.2804	5
314.3952	4
314.7218	2
314.8163	2
315.1507	26
315.3820	7
315.7860	1
315.9423	3
316.1236	9
316.6105	2
317.1670	19
318.1661	13
318.5093	2
319.1505	15
319.2765	7
319.5025	3
319.6769	0
319.8943	6
320.0828	5
320.2393	13
320.6546	0
320.9261	3
321.1107	12
321.2562	7
322.0301	3
322.1803	3
322.4487	2
323.0138	10
323.1922	9
323.3104	6
323.7464	5
324.0142	5
324.1903	7
324.2811	4
324.7728	1
325.1776	9
325.6271	2
325.7453	1
325.9074	3
326.1283	4
326.2364	2
326.5191	3
326.8434	2
327.1411	12
327.8312	3
328.1149	8
328.5521	2
329.1304	13
329.2550	10
329.3867	4
329.8311	3
330.0772	5
330.1853	3
330.3460	2
330.6667	3
331.1080	9
331.4130	3
331.7878	3
332.2191	5
332.3782	6
332.9946	5
333.2080	12
333.7641	3
334.1461	8
334.3250	3
334.4316	3
334.7070	3
335.0005	10
335.1825	5
335.3457	2
335.5520	2
335.8432	3
336.0896	11
336.6978	3
337.1695	9
337.3917	5
337.8187	4
337.9977	3
338.1790	4
338.3329	7
338.7286	3
339.0223	2
339.1730	2
339.3340	3
339.6858	3
339.9662	2
340.1452	6
340.3871	2
340.5262	2
340.7233	3
341.1773	16
341.3572	6
341.9535	3
342.2057	8
342.7753	0
343.1934	10
343.4818	2
343.7128	3
344.1930	2
344.3266	6
344.6709	2
345.0223	7
345.1858	6
345.5663	3
346.0584	3
346.2652	7
347.1267	11
347.2908	15
347.4077	2
347.7469	3
347.9133	2
348.2053	7
348.3246	4
349.1475	11
349.3642	5
349.9579	2
350.2069	1
351.0198	8
351.1753	13
351.3646	8
351.9687	1
352.1871	5
353.1048	5
353.2596	17
353.3406	6
354.0219	4
354.2530	5
354.4172	2
355.0224	5
355.3416	6
355.4406	5
356.0703	3
356.2126	5
356.4791	1
357.1695	4
357.3425	3
357.4392	2
357.5886	3
357.9778	2
358.1721	5
358.3310	1
358.7793	3
358.9326	3
359.2134	5
359.4832	3
360.1850	6
360.3187	4
360.4839	1
360.7365	3
361.1637	6
361.3329	3
361.6964	1
361.8058	0
362.1245	2
362.3079	3
362.7974	5
363.1327	5
363.2665	6
363.5609	2
363.7341	3
364.2104	7
364.2906	3
364.4922	1
364.7410	3
365.2401	41
365.7165	2
365.8220	2
365.9205	3
366.1354	4
366.3221	5
366.7718	1
366.9781	5
367.2545	12
367.4215	5
367.7303	3
368.0651	7
368.2368	5
368.9939	3
369.2988	5
370.0284	3
370.1765	5
370.3357	7
371.0969	5
371.1765	3
371.3365	3
371.4871	1
371.6108	3
371.7566	1
372.2492	3
372.9997	3
373.2535	3
373.3678	4
374.2548	6
375.1284	3
375.3835	8
376.1190	8
376.3111	6
377.2570	6
377.3554	2
377.5373	0
377.8390	3
378.0454	3
378.2620	5
378.4652	2
379.1923	7
380.0803	3
380.2883	5
380.8682	3
381.1582	6
381.3663	5
381.4853	3
381.6050	1
382.1607	1
382.3435	3
382.4996	3
383.1751	7
383.3328	6
383.5574	3
383.7230	3
383.8231	3
384.2000	8
385.2312	5
385.3401	3
386.0892	3
387.1357	4
387.2880	2
387.9277	3
388.1375	6
388.5714	2
389.3106	7
389.4613	3
390.0972	2
390.2847	2
390.3935	3
390.9822	3
391.1777	6
391.3597	6
391.7389	2
392.2260	8
392.4483	4
392.7447	3
392.9142	3
393.1208	4
393.3746	3
394.0196	1
394.3034	3
394.9256	3
395.2434	5
395.8096	2
396.2442	2
396.3791	6
396.9651	4
397.1813	4
397.3848	3
397.8155	0
398.0356	3
398.3733	3
398.4868	2
399.0384	3
399.2048	3
399.3658	2
399.7130	1
400.1225	2
400.2717	1
400.4271	3
401.1106	8
401.2163	6
401.4002	4
402.1335	4
402.2432	2
402.3584	3
402.4926	2
403.0791	2
403.4036	3
404.0620	2
404.1907	3
404.3107	3
404.8263	3
405.0119	8
405.2748	6
405.4391	3
406.2145	3
406.3962	3
407.2515	9
407.3937	5
407.6630	2
408.4735	1
409.0999	5
409.6506	4
410.1096	3
410.3862	7
411.2428	3
411.3684	3
411.5446	3
411.8410	0
412.1247	3
412.2346	3
412.5246	4
413.3513	3
414.1094	3
414.3276	2
414.4699	3
415.1292	7
415.2557	3
415.7862	1
416.0851	3
416.5785	4
417.1328	5
417.3764	7
417.6611	3
417.8952	4
418.1135	6
418.2906	7
418.4361	1
419.1060	3
419.2840	4
420.0758	5
420.1850	3
420.4113	3
420.8163	2
420.9753	2
421.2617	8
421.5323	2
421.7135	2
422.1028	3
422.2025	3
422.3125	3
422.9724	0
423.3055	2
424.1554	3
424.7107	3
424.9057	3
425.3710	3
425.4847	2
426.1996	3
427.1736	3
427.3229	3
427.4976	6
427.8412	2
428.0901	6
428.7681	5
429.2058	6
429.5796	2
430.2829	5
430.5477	2
431.5530	2
432.2431	3
432.9530	3
433.3206	5
433.4581	2
433.8906	3
434.1223	3
434.3057	7
434.5152	3
434.9058	0
435.7653	3
436.0492	3
436.5166	1
437.3525	5
438.2938	3
438.5358	3
439.3561	5
439.6844	3
440.1251	4
440.4146	2
441.1402	5
441.3245	5
441.4360	3
441.9048	1
442.4297	3
442.6123	2
443.1854	6
443.3767	4
443.5341	3
444.0535	3
444.1982	7
444.3152	8
444.4615	8
445.1059	12
445.2878	7
445.5511	3
446.1362	2
447.1952	2
447.4443	2
449.3624	4
450.2184	6
451.1559	4
451.2983	2
452.8547	2
452.9679	3
453.5923	3
454.1993	5
455.1609	3
455.3762	1
455.6287	2
456.1947	9
456.2976	6
456.8493	3
457.2943	11
457.5444	3
457.7534	2
458.0519	2
458.3448	3
459.0606	2
459.1714	3
459.3163	4
460.1842	8
460.3711	3
460.5952	3
460.7845	3
461.0070	3
461.1456	6
461.2984	7
461.4117	1
461.9368	3
462.1657	3
463.2199	3
463.3570	4
463.5787	2
464.2164	4
464.6173	2
464.9635	2
465.1568	3
465.2558	2
465.3739	3
466.0948	1
466.2517	4
466.8856	2
467.2762	3
467.8222	1
468.1867	4
469.4135	4
470.2933	2
470.4566	4
470.8577	2
471.0154	4
471.1977	2
471.4466	1
471.6044	3
471.9349	1
472.0903	4
472.2417	5
473.1161	7
473.3294	3
473.9042	3
474.2103	9
474.4616	3
474.9699	3
475.0627	3
475.3711	3
476.0103	3
476.1792	1
476.4662	2
477.0928	4
477.2990	3
477.5750	3
477.7360	0
478.3228	3
478.5326	3
479.0962	3
479.2030	3
479.5339	3
480.1071	3
480.3747	6
481.0247	3
481.2899	6
481.4594	3
482.0722	2
482.3383	6
482.6701	3
482.9655	1
483.2743	10
483.5554	3
483.9260	3
484.1700	3
484.3014	2
484.5097	3
484.8788	3
485.3041	4
486.0906	3
486.3607	3
486.5255	3
486.6086	1
487.1021	7
487.2518	4
487.4586	2
487.9331	4
488.1700	3
488.3720	12
489.1825	19
489.7133	3
490.0350	2
490.2497	4
491.2584	6
491.3797	4
491.5936	2
492.2268	3
493.2095	1
493.3712	3
494.3500	7
494.6147	4
495.1664	3
495.4415	2
495.6008	3
495.9266	1
496.7225	1
496.9413	3
497.0991	4
497.3210	4
497.5851	3
498.2526	2
498.3834	4
498.4960	4
499.1533	5
499.3531	5
499.5847	5
499.7123	1
500.0517	3
500.2563	5
500.3935	6
501.2222	7
501.5069	3
501.9518	1
502.2817	4
503.0812	3
503.2501	3
503.4920	2
504.2678	3
504.4375	3
504.8579	3
505.2070	3
505.4267	2
505.6829	4
506.0820	4
506.2502	3
506.4564	6
507.1998	3
507.4282	3
507.6722	1
508.0580	5
508.2948	3
508.5728	3
508.6703	2
509.1638	2
509.3659	6
509.5410	3
509.7240	3
509.8262	4
509.9315	1
510.1549	3
510.2706	3
510.6866	7
510.8894	3
511.0138	4
511.1707	3
511.3434	4
512.0542	3
512.4298	5
512.6469	3
513.0162	3
513.4196	4
513.6842	7
514.0567	6
514.4680	18
514.6534	12
514.8096	15
515.1195	12
515.4191	16
515.5641	8
515.7773	10
516.0436	9
516.1927	3
516.4518	3
516.6619	1
516.8117	2
516.9885	7
517.3705	7
517.6417	7
517.8795	3
518.1736	6
518.4153	2
518.6326	1
519.2953	2
519.4135	4
519.7821	3
520.2412	2
520.6812	2
521.2148	1
521.4202	2
521.5740	2
521.7834	5
522.0070	3
522.2449	3
522.5208	4
522.7175	2
522.9070	3
523.1179	4
523.4169	5
523.6445	2
524.1433	5
524.3480	6
524.5486	6
524.9269	3
525.2465	5
525.4750	3
525.6597	6
525.9334	4
526.1396	4
526.2634	2
526.5441	6
526.6251	3
526.7972	2
526.9947	5
527.1319	6
527.3326	6
527.6864	3
527.8498	3
528.1005	3
528.2647	4
528.5479	5
528.9572	2
529.0746	3
529.2191	5
529.4547	4
529.7585	6
529.8815	3
530.1846	3
530.2925	2
530.4122	4
530.6138	5
530.9264	3
531.1478	6
531.3374	4
531.5040	10
531.6818	5
531.9698	3
532.2538	7
532.3760	6
532.6419	4
532.8506	3
533.1862	4
533.7814	3
533.9489	2
534.1719	3
534.3655	4
534.5187	4
534.7560	0
535.0496	3
535.2392	3
535.3738	7
535.6154	7
535.8141	2
536.1127	3
536.2632	3
536.4120	7
536.5253	3
537.0211	2
537.1573	4
537.3893	3
537.7220	3
538.1180	4
538.4111	6
538.9149	4
539.1367	5
539.3854	2
539.5461	3
539.6381	3
540.2227	7
540.3193	6
540.5316	4
540.6591	2
540.7938	4
541.1424	8
541.3412	11
541.5298	3
541.7191	3
542.2737	21
542.4377	11
542.7023	5
542.8005	2
543.0850	7
543.3623	15
543.5825	9
543.7838	3
544.0778	5
544.3321	7
544.4628	3
544.7426	3
544.9383	4
545.2330	3
545.4819	6
545.7568	4
545.8749	3
546.0912	6
546.2069	2
546.4581	7
546.6412	4
546.7648	5
546.9154	6
547.1246	4
547.3013	9
547.5447	7
547.7103	2
547.8751	2
548.0360	3
548.2373	7
548.4299	4
548.6051	3
549.0505	7
549.1749	4
549.3707	11
550.3329	53
550.6191	23
550.7888	5
551.0242	2
551.2311	4
551.9406	2
552.0571	4
552.4265	5
552.6556	3
552.8007	3
553.2581	8
553.6046	5
554.4505	3
554.5591	2
554.6630	3
554.7803	3
555.3591	4
555.6692	4
555.9158	3
556.2123	6
556.3947	7
556.6960	6
556.9680	3
557.6952	3
558.3304	3
558.4945	2
559.1377	1
559.6960	2
560.0220	3
560.3384	3
560.5510	3
560.7318	3
561.1483	3
561.3774	4
561.5599	3
561.6646	2
562.2920	6
562.4134	3
562.5450	2
562.8156	2
563.0202	5
563.2487	7
563.3851	6
563.6096	11
563.8611	3
564.3299	20
564.6409	7
564.7837	7
564.9265	4
565.3311	22
565.5326	19
565.6945	10
566.0768	5
566.3228	5
566.9242	1
567.3860	13
567.5891	6
567.7264	3
567.9478	6
568.3000	8
568.6055	7
568.8348	3
569.3292	5
569.6974	3
570.1077	3
570.2918	5
570.4235	3
570.5298	2
570.6894	2
571.1393	2
571.3973	3
571.5632	4
572.0750	4
572.4171	2
572.5647	4
572.8751	2
573.0417	3
573.3473	4
573.4632	4
573.9227	2
574.0974	3
574.5054	3
574.9252	3
575.5809	3
576.3422	3
576.4819	3
576.9725	7
577.3266	3
577.7934	2
578.2173	3
578.4373	5
578.9716	3
579.2812	3
579.8497	3
579.9926	0
580.2523	2
580.4603	11
580.7001	4
580.9756	2
581.1606	4
581.4462	16
581.6371	11
581.8954	3
582.4214	62
582.7907	7
583.4365	99
583.8532	6
584.1052	2
584.3801	3
584.5148	6
584.6757	4
585.3041	3
585.6139	7
586.1710	6
586.7748	3
587.3415	4
587.4509	4
587.6609	2
587.9319	2
588.0595	3
588.2735	5
589.9332	3
590.6996	3
590.8122	4
591.0904	3
591.2529	4
591.3647	5
591.6271	3
592.1217	6
592.2667	4
592.5275	0
592.7725	4
593.0539	5
593.6088	5
594.1424	9
594.5641	7
594.7941	4
594.9233	3
595.2983	6
595.6210	4
595.7891	6
596.1934	9
596.4313	4
596.5605	3
596.7698	9
597.1734	5
597.4152	13
597.5801	12
597.7927	5
598.0591	6
598.4302	42
598.7180	26
599.3294	78
599.5895	37
599.8448	9
600.1422	23
600.3841	23
600.6418	16
600.8885	8
601.1866	6
601.4991	11
601.7267	7
601.8592	6
601.9710	8
602.2026	7
602.5325	5
602.8474	6
603.2376	3
603.3399	3
603.5144	5
603.7603	5
603.9261	5
604.0911	2
604.2346	5
604.3829	3
604.8088	8
604.9088	3
605.4514	3
605.6219	2
605.9551	6
606.4706	38
606.7336	19
606.9745	4
607.1616	4
607.3699	3
607.6378	5
607.8406	3
607.9682	4
608.0895	4
608.3232	10
608.5729	4
608.7306	8
609.1339	11
609.4010	14
609.6268	9
609.7441	6
610.3345	5
610.4305	5
610.7039	7
611.0074	8
611.3213	10
611.6232	8
611.7667	4
612.0995	9
612.4903	16
612.9849	13
613.2679	15
613.6341	11
613.9369	14
614.3491	26
615.0815	20
615.2868	17
615.4548	11
615.7355	15
616.0114	20
616.2571	21
616.8969	25
617.3638	15
617.5969	20
618.0210	24
618.4023	21
618.6497	18
619.1199	35
619.7073	35
619.9952	21
620.4035	40
620.6239	31
620.9553	41
621.7396	49
622.6919	46
624.4991	887
625.5079	62
625.8156	35
626.5770	28
627.4193	92
627.8745	28
628.2029	19
628.7843	23
628.9620	17
629.1135	8
629.3276	15
629.4625	9
630.1248	20
630.5143	14
630.9343	20
631.2742	17
631.5903	21
631.9690	14
632.4079	18
632.6606	17
633.0148	22
633.6574	33
634.1788	24
634.8546	35
635.3578	34
636.2571	39
636.9680	40
642.4491	999
643.3836	496
643.9567	283
644.6027	143
645.7402	87
646.3126	52
