Mass spectrum: Fcoxanthin acetate; FAB-EBEB; MS2; m/z: 700.43; [M]+*
Name: Fcoxanthin acetate
Formula: C44H60O7
Exact mass: 700.43390
SMILES: C(=CC=C(C=C=C(C3(C)O)C(CC(OC(C)=O)C3)(C)C)C)C(C)=CC=CC=C(C=CC=C(C(=O)CC(C(C)(C)2)(O1)C(CC(OC(C)=O)C2)1C)C)C
InChI: InChI=1S/C44H60O7/c1-30(19-15-20-32(3)23-24-39-40(7,8)25-36(49-34(5)45)27-42(39,11)48)17-13-14-18-31(2)21-16-22-33(4)38(47)29-44-41(9,10)26-37(50-35(6)46)28-43(44,12)51-44/h13-23,36-37,48H,25-29H2,1-12H3/b14-13+,19-15+,21-16+,30-17+,31-18+,32-20+,33-22+/t24?,36-,37-,42+,43+,44-/m0/s1
Instrument: JMS-HX/HX 110A, JEOL
Instrument type: FAB-EBEB
Ms type: MS2
Ion mode: POSITIVE
Collision energy: 3 kV
Ionization: FAB
Base peak: 109.0062
Precursor m/z: 700.43
Precursor type: [M]+*
m/z	relative intensity
0.0653	2
9.0546	0
10.2086	1
11.9424	0
12.4725	0
13.9790	1
14.9775	4
15.9988	1
21.8672	2
22.9360	1
24.7017	1
24.9460	1
25.9642	2
26.9669	18
27.9746	2
28.9800	16
30.0484	0
30.9481	2
35.9852	4
36.0910	0
36.9588	3
37.9482	7
38.9643	52
39.9546	4
40.9756	92
41.9538	5
42.2609	1
42.9526	980
43.9039	1
44.2743	3
44.9644	8
48.9790	1
49.9551	12
50.9546	28
51.6914	0
51.9688	15
52.9623	56
53.9882	3
54.9764	93
55.9898	3
56.9823	22
57.3225	0
57.9634	4
58.9551	12
60.0025	1
60.9322	5
61.9407	7
62.9431	23
63.0834	2
63.1805	1
63.5342	0
63.9538	5
64.9673	41
65.9764	19
66.9776	102
67.4236	0
67.9825	5
68.9707	150
69.9772	3
70.9720	37
71.2658	2
71.5625	1
71.8484	0
72.9653	1
73.9158	7
74.9427	15
75.1863	0
75.3594	2
75.5079	1
75.9715	6
76.1691	2
76.4023	0
76.6364	1
76.9564	123
77.3035	1
77.3927	0
77.9620	34
78.2121	1
78.6759	1
78.9671	112
79.2139	0
79.7049	0
79.9720	13
80.4940	2
80.6425	1
80.9789	99
81.1805	2
81.4870	2
81.9597	11
82.9715	80
83.9611	7
84.5788	0
84.9591	44
85.3330	1
85.9360	3
86.9460	26
87.8127	2
87.9969	4
88.2049	0
88.5107	1
88.6648	2
88.9461	11
89.1622	1
89.4202	2
89.5906	0
89.9450	6
90.1520	4
90.4546	2
90.9676	306
91.2100	2
91.5268	2
91.9579	26
92.4821	0
92.6153	1
92.9718	187
93.3525	1
93.9602	18
94.4454	0
94.9694	179
95.2348	0
95.9464	17
96.5225	0
96.9498	24
97.2009	0
97.9762	4
98.9496	9
99.9695	2
100.2400	1
100.6436	2
100.8223	1
100.9831	6
101.1376	1
101.5513	2
101.6645	3
101.9919	14
102.1489	1
102.4307	1
102.5864	0
102.9741	69
103.3240	2
103.9534	20
104.3227	2
104.5612	2
104.9830	314
105.2471	6
105.3640	2
105.9823	33
106.2838	1
106.9952	193
107.3430	1
107.4822	1
107.6540	1
107.9906	20
108.1474	1
108.3987	1
108.5599	1
109.0062	999
109.3524	2
109.6640	2
109.9917	6
110.9864	42
111.6415	1
111.8276	3
112.0296	4
112.3156	1
112.9568	13
113.2535	2
113.3405	1
113.5270	2
113.5950	1
114.0627	6
114.4413	3
114.9595	163
115.3601	2
115.5384	2
115.9651	59
116.2590	1
116.4060	3
116.5575	4
116.9673	154
117.3766	3
117.9771	33
118.4343	1
118.5937	2
118.9717	381
119.4164	3
119.5952	2
119.9827	40
120.2180	2
120.3319	0
120.9710	182
121.4438	2
121.5358	2
121.9512	27
122.9605	77
123.3196	0
123.9580	6
124.5344	2
124.9570	98
125.4829	3
125.9315	7
126.1212	1
126.3161	0
126.5777	3
126.9463	61
127.3375	6
127.4460	2
127.9506	200
128.4414	3
128.9452	233
129.3061	1
129.5590	2
129.9480	89
130.2823	4
130.5650	2
130.9560	195
131.3096	2
131.4587	2
131.9301	44
132.3121	2
132.4824	5
132.9545	226
133.3521	2
133.9554	31
134.2622	1
134.4292	1
134.9539	387
135.3867	3
135.5638	2
135.9500	13
136.2561	1
136.4683	2
136.9451	171
137.3609	3
137.9552	17
138.2150	2
138.2841	1
138.9568	34
139.1438	4
139.3082	0
139.5410	2
139.9878	21
140.1789	6
140.9294	182
141.3441	1
141.5470	1
141.9400	138
142.4425	2
142.9359	284
143.3783	0
143.9306	76
144.2654	1
144.9371	241
145.3845	1
145.5434	4
145.9457	57
146.3958	5
146.9339	224
147.4261	2
147.9201	26
148.3451	1
148.9476	194
149.5959	6
149.9793	12
150.1290	5
150.3111	2
150.9489	83
151.3212	1
151.4634	3
151.9380	74
152.3587	2
152.5034	2
152.9600	106
153.4477	11
153.9559	52
154.3078	4
154.4163	3
154.9545	233
155.2974	2
155.5054	2
155.9611	138
156.3230	5
156.9625	286
157.2291	6
157.9665	66
158.2575	4
158.3891	2
158.9630	253
159.3525	2
159.4841	2
159.9736	31
160.1881	5
160.4423	1
160.9612	130
161.3678	2
161.9715	13
162.9868	41
163.3238	3
163.5194	1
163.9936	15
164.1478	6
164.3873	5
164.9685	176
165.3618	4
165.9811	57
166.4815	2
166.9892	120
167.4178	2
167.9809	59
168.3981	6
169.0034	190
170.0079	99
170.3314	2
170.5487	4
171.0157	195
171.4190	2
172.0196	56
172.5069	14
173.0268	150
173.4703	8
174.0332	20
174.1975	5
175.0200	72
175.3259	4
176.0250	19
176.3715	2
177.0213	25
177.3625	5
178.0167	81
178.3128	5
179.0149	154
179.3507	2
179.5372	3
180.0282	77
180.4908	3
181.0137	184
181.3358	4
181.6018	2
182.0112	65
182.3969	1
183.0268	186
183.5698	4
184.0376	61
184.4017	3
185.0501	165
185.3684	4
185.6098	4
186.0299	33
186.3246	3
186.5606	2
187.0160	55
187.5901	3
187.8525	9
188.0736	16
188.3823	2
189.0039	68
189.4028	3
189.5732	4
189.7325	3
190.0670	18
191.0010	81
192.0034	47
192.3385	3
192.5045	2
193.0097	146
193.9991	69
194.4809	3
195.0252	191
195.4298	3
196.0384	54
196.3832	2
197.0170	193
197.4517	3
198.0179	48
198.3985	2
199.0339	100
199.4508	6
199.6785	4
200.0450	38
200.4998	4
201.0101	48
201.5102	4
202.0120	50
202.4104	2
203.0041	55
203.5297	1
203.7741	4
204.0579	21
205.0231	69
205.3465	3
205.5381	4
206.0202	55
207.0043	130
208.0421	63
209.0233	149
209.4427	5
210.0414	57
210.3465	3
211.0302	139
211.4461	1
212.0285	32
212.3945	2
213.0168	95
213.5739	4
214.0462	19
214.6084	20
215.0494	107
215.5901	4
216.0054	27
216.7562	10
217.0624	64
217.4416	5
217.5777	6
218.0357	31
218.3762	2
219.0322	76
219.4451	6
220.0544	45
220.3141	5
221.0511	126
221.5107	1
222.0476	47
223.0454	109
223.4551	2
224.0202	35
225.0369	101
225.4332	2
226.0224	30
226.4441	1
226.6501	3
227.0646	39
227.3537	3
227.4987	2
228.0446	34
228.3664	2
228.4895	4
229.0707	62
229.2394	14
229.4734	4
230.0467	28
230.3135	5
230.4326	2
231.0461	59
231.4795	3
232.0525	31
232.4093	2
233.0479	88
233.5585	2
234.0831	38
235.0827	95
235.5701	1
236.0616	33
236.4739	3
237.0990	73
237.4926	3
237.6629	2
238.1008	17
238.4783	0
238.7526	8
239.0991	47
239.3898	1
239.5283	3
239.8413	7
240.1182	13
240.4632	4
240.6583	5
241.0887	27
241.4133	1
241.5593	2
241.6962	1
242.1120	15
242.3047	6
242.4319	4
242.5672	1
243.0751	46
243.4353	3
244.1001	24
245.0921	54
245.4542	1
245.7261	2
246.1022	26
246.3283	5
246.5283	2
247.1118	82
247.4315	2
248.1137	29
248.3860	2
249.0955	86
249.5739	2
250.1343	22
250.5061	3
251.1243	63
251.4840	2
251.6326	1
252.0942	17
252.5230	5
252.7645	3
253.1269	38
253.6824	4
254.1436	11
254.4650	2
254.5883	0
255.1228	44
255.5431	3
255.7347	2
256.1271	19
257.0750	37
257.6141	3
257.7310	3
258.1353	17
258.6400	2
259.1251	43
259.4010	5
259.5600	2
259.6621	2
260.0963	18
260.4292	3
261.1314	55
261.4199	3
261.6714	4
261.8437	5
262.1380	22
262.2807	9
262.7070	3
263.1417	57
263.6532	2
263.8396	2
264.1392	14
264.4948	1
265.1295	55
265.6232	2
266.1013	12
266.3589	3
266.4820	2
266.6042	2
266.7917	3
267.1329	23
267.5022	3
267.6013	3
268.1243	12
269.1145	29
269.4923	2
269.6882	1
270.1314	21
270.4945	1
271.1165	35
272.1209	17
272.4246	2
272.6719	2
273.1342	48
273.6008	1
274.1336	17
274.4679	2
275.1291	62
275.6365	2
276.1358	13
276.4893	2
277.1345	37
277.6787	2
277.8858	4
278.2072	9
278.4724	3
278.6862	2
279.1478	25
279.4611	3
279.6824	2
279.8067	1
279.9783	5
280.1972	14
281.1549	72
281.5024	4
281.8458	5
282.1627	5
282.4680	2
283.1335	21
283.4190	2
283.5700	3
283.6928	2
283.9062	2
284.1901	9
284.4756	2
285.1050	31
285.5825	1
286.1049	10
286.4446	1
287.1275	46
287.6286	2
288.1646	13
288.3500	5
288.5486	3
289.1189	30
289.5596	1
290.0485	6
290.4444	0
290.6141	2
290.7355	1
291.1223	24
291.3145	5
291.7097	0
291.8644	1
292.2220	6
293.1336	16
293.4045	3
293.5616	1
293.7228	1
294.1717	13
294.3139	7
294.5259	2
294.8377	2
295.1711	16
295.3283	6
295.6028	2
295.8423	2
296.1350	8
296.2823	3
296.4079	2
296.6716	3
297.1358	15
297.8140	2
298.1477	10
298.4374	3
299.1624	25
299.6578	3
299.9925	3
300.2274	8
300.4522	2
300.6529	1
301.1519	29
301.8658	5
302.1065	12
302.2649	11
302.6357	3
303.1415	41
303.3574	9
303.5224	2
304.1618	6
304.3293	2
304.6261	2
304.8654	4
305.1047	20
305.2732	11
305.5300	2
306.1339	5
306.4667	2
306.7679	3
307.1875	21
307.3610	7
307.6564	2
308.0386	4
308.3365	3
308.5427	1
309.1428	11
309.3064	8
309.6520	2
310.1926	7
310.4811	3
311.1600	20
311.2959	9
311.5770	0
311.8715	2
312.1977	8
312.3604	2
312.4972	3
313.1681	23
313.5311	2
313.7506	2
314.0904	8
314.3533	3
314.6288	2
315.1472	20
315.3735	10
315.6206	2
315.8294	3
316.2094	7
316.7080	2
317.1657	15
317.5542	1
317.7589	2
317.9268	2
318.2410	6
319.1134	9
319.3340	3
319.4828	2
319.6525	2
319.8322	2
320.0654	2
320.4850	3
320.6690	2
320.8111	2
321.1389	9
321.3362	6
321.6682	1
322.0579	4
322.3172	3
322.5020	2
323.1360	13
323.6221	0
323.7920	1
324.0948	4
324.2848	3
325.1183	10
325.3275	4
325.6071	2
325.7452	2
325.8724	2
325.9796	2
326.2935	7
326.4409	3
326.7690	3
327.1567	22
327.4431	5
327.8869	4
328.2328	12
328.6005	3
329.1492	27
329.3787	8
329.5681	3
329.7322	2
329.9702	3
330.1839	8
330.3674	2
330.7947	5
331.1383	15
331.5993	3
331.9321	1
332.1894	6
332.3495	3
332.8861	4
333.2114	13
333.9283	2
334.1313	10
334.2454	6
334.6052	2
335.1218	7
335.3005	4
335.6000	2
335.7628	1
335.9968	2
336.1747	3
336.3341	2
336.5254	1
337.1950	9
337.5945	2
337.7330	2
337.9428	1
338.3071	4
339.1902	9
339.4841	1
339.8687	4
340.0383	3
340.2978	2
340.5404	2
340.7168	2
340.8629	2
341.2090	19
341.7558	2
341.8978	3
342.1489	7
342.6253	1
343.1740	25
343.5680	2
343.9143	3
344.2134	5
344.3883	3
345.2061	26
345.4659	7
345.6331	2
345.7946	4
345.9484	1
346.2015	16
346.4975	1
347.2181	25
347.5419	1
347.6933	1
347.8901	4
348.0019	1
348.2189	4
348.3804	2
348.6261	3
348.8002	1
348.9037	1
349.1998	5
349.3865	3
349.8114	2
350.0352	1
350.4198	2
350.6495	2
350.9416	3
351.2134	5
351.8169	2
352.2664	3
352.4642	3
353.2151	9
353.4509	2
353.8416	0
354.1128	7
354.3359	5
354.5279	2
355.1907	12
355.3483	9
355.5993	3
355.7913	1
355.9952	3
356.1771	5
356.3886	4
356.6809	2
357.2008	16
357.6764	2
358.2462	7
358.6569	3
358.8286	3
359.2310	12
359.5231	2
359.7395	2
360.2632	10
360.7810	3
361.0016	4
361.1624	3
361.3730	10
361.6509	1
362.0156	1
362.2270	0
362.3676	2
362.4679	1
362.6995	1
363.2310	6
364.0584	1
364.3019	5
364.7990	0
365.0872	4
365.4690	2
365.6729	1
365.9755	4
366.1188	5
366.4197	2
366.5773	1
367.2433	7
367.4372	3
367.6530	2
367.9194	2
368.0273	1
368.4565	1
368.7500	3
369.1725	17
369.3158	6
370.2486	3
370.5936	0
370.8163	1
371.2221	13
371.8270	2
372.2143	6
372.4775	2
372.6227	3
372.8674	3
373.0125	2
373.1805	9
373.4379	1
373.8303	3
374.0540	1
374.3409	2
374.4287	1
375.2898	6
375.5338	2
375.7305	1
375.9483	2
376.1779	1
376.3578	1
376.7023	2
377.2554	7
377.8153	2
378.1169	5
378.2790	3
378.4344	4
379.0587	4
379.2454	2
379.4675	3
379.6171	2
380.2177	3
380.3073	2
380.8912	1
381.0948	4
381.2824	10
381.5554	2
381.6635	0
381.8300	4
381.9467	1
382.2129	2
382.4124	0
382.7614	2
383.1308	5
383.3802	7
383.9796	5
384.2788	4
384.7320	2
384.9671	2
385.3172	14
385.4618	6
385.8076	2
385.9911	2
386.3345	7
386.5967	1
386.7032	2
387.3046	7
387.5744	2
388.3603	3
388.5501	0
389.2138	9
389.3969	4
389.5402	1
390.0733	1
390.1838	1
390.3432	1
391.0502	2
391.2535	4
391.8576	0
392.2424	5
392.4685	1
392.7369	3
393.2314	13
393.5099	3
393.8922	4
394.2679	5
394.4105	4
394.8140	6
395.0132	3
395.1694	3
395.3737	4
395.6691	0
396.1647	4
396.3716	0
396.7144	2
396.8757	2
397.1864	3
397.4448	4
397.8367	1
398.2319	5
398.3417	3
398.8544	1
399.0444	6
399.3384	9
399.5132	3
399.8782	3
400.3631	1
400.5540	2
400.7441	2
401.2299	10
401.4268	6
401.7150	1
402.3192	4
403.0501	5
403.2698	5
404.0886	3
404.3396	2
405.0343	1
405.2482	5
405.5660	2
405.9320	2
406.2684	7
406.4671	5
406.7292	2
407.1865	3
407.4072	5
407.8494	1
408.1200	2
408.3559	1
408.5343	2
409.3165	6
409.6963	2
410.0591	3
410.3171	3
410.7789	1
411.2628	8
411.4319	5
411.5766	1
411.7898	3
411.9945	1
412.2619	5
412.6071	1
413.2044	11
413.4651	10
413.7528	2
414.0109	2
414.2647	2
415.0611	2
415.3345	1
415.5656	3
415.8110	2
416.2182	2
416.3621	2
416.6550	1
417.0749	2
417.2925	6
417.6709	2
417.9080	1
418.2289	4
418.4059	2
418.6464	2
419.0689	2
419.1773	3
419.4203	3
420.1411	2
420.4155	1
420.8517	3
420.9965	3
421.2371	5
421.4802	2
422.3976	2
423.2703	6
423.5744	2
423.8100	2
424.3116	11
424.5328	4
424.7701	0
424.9743	1
425.3667	7
425.8642	2
426.2134	4
426.8288	2
427.0619	1
427.2747	9
427.4485	6
427.8316	1
427.9546	1
428.3285	8
428.4615	3
428.6422	2
429.0779	5
429.3103	8
429.5486	1
429.7682	2
430.3067	4
430.4449	2
431.3566	3
432.1183	12
432.3167	7
432.7256	2
432.9954	2
433.2651	3
433.5095	3
433.8861	1
434.3018	2
434.5878	2
434.9569	2
435.0876	1
435.3396	3
435.5831	2
435.8674	0
436.1720	3
436.4173	2
436.5947	2
436.9673	1
437.2965	9
437.4909	3
437.9040	1
438.3347	2
438.8951	1
439.0435	0
439.3190	5
439.6642	1
439.7947	2
440.0525	2
440.3730	4
440.6648	2
440.9200	3
441.2940	49
441.6426	5
441.9929	1
442.1676	4
442.3567	6
442.5527	3
442.7664	1
443.1753	3
443.4832	7
443.7793	4
444.1898	1
444.3638	4
444.6047	3
444.8041	1
445.1231	3
445.3683	5
445.6466	2
446.0378	2
446.2304	2
446.4349	3
447.2607	2
448.0202	2
448.2783	4
449.2782	2
449.4828	1
449.7128	1
450.2519	5
450.7485	1
451.0550	2
451.3768	5
451.5067	2
451.9975	0
452.4365	3
453.3239	1
453.5506	1
453.9872	2
454.4025	2
454.6310	0
455.2408	2
455.4727	3
457.1527	2
457.3020	2
458.3824	2
458.7013	1
459.3221	17
459.5435	6
459.9328	2
460.3043	12
460.4528	7
461.3681	9
461.8797	2
462.2241	5
462.3624	2
462.6229	1
463.2440	1
463.5020	1
464.2928	1
464.4956	2
464.8445	0
465.0693	2
465.4648	3
466.0284	1
466.2754	2
466.5504	2
467.0172	2
468.4859	1
469.2720	3
469.5378	1
469.8053	1
469.9827	1
470.4413	6
471.0815	1
471.2531	5
471.3915	2
471.5401	2
471.8577	0
472.1643	2
472.3919	2
472.9729	4
473.3058	8
473.5887	2
473.7441	2
473.9403	2
474.1535	4
474.2860	2
474.4432	3
474.5519	2
474.7575	4
475.0659	13
475.3284	24
475.6903	2
476.0319	2
476.3003	7
476.4898	3
476.6003	2
476.9716	9
477.3199	23
477.5239	9
477.8323	3
478.3014	2
478.4535	2
479.2056	2
479.3918	0
479.7938	2
480.3641	1
480.4916	1
480.9497	1
481.2540	5
481.8924	1
482.0973	2
482.4135	4
482.6065	0
482.9993	1
483.4286	3
483.6140	1
483.8274	2
484.3069	2
484.6836	1
484.9200	2
485.1113	1
485.3443	6
485.5952	2
485.7823	1
486.0927	3
486.4023	8
486.5655	1
486.8028	2
487.1617	8
487.4824	10
487.7299	1
488.3355	55
488.5966	10
488.9913	11
489.3716	33
489.9509	3
490.1814	4
490.4077	3
490.7591	1
491.0126	3
491.3343	8
491.5385	5
491.7963	2
491.9307	3
492.1238	1
492.3493	1
492.7493	1
493.4598	3
494.1006	0
494.6679	1
495.2369	2
495.8000	1
496.4421	2
496.9356	1
497.2040	3
497.3908	4
497.7060	2
498.0432	1
498.1723	2
498.4620	3
499.3421	1
499.4823	2
499.7007	2
500.2733	1
500.5282	3
501.2547	4
501.4756	8
501.5784	3
502.2744	10
502.4783	7
502.6135	4
502.9347	1
503.3545	17
503.5993	10
504.1432	5
504.4211	5
504.6132	1
504.9388	2
505.2703	4
505.5185	5
507.4958	1
508.1980	2
508.3018	2
508.8408	2
509.2489	4
510.4547	1
511.0245	0
511.2405	3
511.4897	1
512.2313	1
512.3512	2
512.7365	2
512.9406	1
513.1337	2
513.4169	6
513.5547	2
514.0761	3
514.4113	2
514.7336	2
515.2968	27
515.5163	18
515.7094	2
515.8719	3
516.3160	2
516.7507	1
517.1072	2
517.2808	2
517.6509	2
518.1419	4
518.4006	8
519.0234	3
519.2711	4
519.5842	2
520.0616	4
521.0651	2
521.4506	2
521.7111	2
522.0464	0
522.8755	1
523.2253	2
523.3709	1
523.5369	2
523.9719	1
524.1294	0
524.3465	2
525.2397	1
525.4411	3
525.9332	1
526.0999	3
526.3531	2
527.5093	4
528.0814	1
528.2727	5
528.3900	2
528.5388	4
529.3609	3
529.5276	4
529.8337	1
530.1619	1
530.5989	2
531.2596	2
531.7953	1
532.1653	1
532.4025	1
532.5386	1
532.9766	2
533.1892	2
533.5328	1
534.3901	2
534.5509	0
534.9089	2
535.1003	2
535.2722	2
535.5630	2
536.0896	2
536.4954	2
537.1794	2
537.3555	2
537.5043	2
538.3007	3
538.4180	3
538.6844	2
538.9005	1
539.3098	3
539.7990	4
540.1198	1
540.3044	2
540.5146	2
541.0175	2
541.2166	5
541.3604	3
541.5383	4
541.7715	2
541.8727	1
542.3672	20
543.1272	1
543.3765	3
543.6072	3
543.7757	1
544.1298	1
544.5851	1
545.1316	1
545.2627	2
545.9701	2
546.3514	4
546.6486	2
547.2291	11
547.4752	9
547.6506	3
548.4492	2
549.0051	1
549.2086	1
550.1257	1
550.4373	0
550.6528	2
550.8299	2
551.1398	1
551.4345	3
551.8279	1
551.9650	1
552.4965	1
552.7647	1
553.3149	5
554.1533	3
554.4322	3
554.7171	2
554.9739	2
555.2860	5
555.4587	6
555.6041	4
555.9639	2
556.1561	4
556.4554	5
556.6306	4
557.3732	25
557.7168	9
557.8673	3
558.3011	5
558.4917	12
558.7809	2
559.0803	2
559.2249	1
559.4257	0
559.7021	2
559.7941	2
559.9719	1
560.1871	2
560.7401	2
561.1058	2
561.2088	2
561.5508	2
562.0060	2
562.1838	2
562.3063	2
562.3957	1
562.8832	2
563.1487	2
563.2916	1
563.4023	1
563.6465	3
564.0345	2
564.4455	1
565.2267	4
565.5041	1
565.7126	4
566.1645	2
566.5373	2
567.4360	3
567.6037	4
568.1774	1
568.3502	5
568.4693	1
568.7204	1
568.9477	2
569.0703	2
569.3316	4
569.6270	4
570.2722	2
570.7881	2
570.9158	4
571.1644	3
571.3389	3
571.6931	0
572.2694	22
572.5146	13
572.7292	3
572.9276	3
573.3039	3
573.4197	1
573.7986	2
573.9390	2
574.1579	1
574.2830	1
574.4720	2
574.7957	2
575.1890	2
575.4105	2
576.4766	3
576.8582	2
577.5045	2
577.8427	2
578.1007	1
578.6509	4
579.2565	6
579.5963	5
579.7318	2
580.2360	2
580.4924	2
581.3663	9
581.9465	3
582.0862	1
582.2191	3
582.4627	3
582.7217	3
582.8495	2
583.0847	3
583.3522	6
583.5916	8
583.7483	3
583.9255	2
584.1147	4
584.3677	4
584.5228	1
584.7392	3
585.2427	7
585.6014	5
585.8332	2
585.9704	3
586.2772	3
586.5226	3
586.7228	4
586.9733	6
587.0798	3
587.2375	2
587.4283	2
587.5571	1
587.7778	3
587.9099	2
588.2686	2
588.4493	3
588.6121	2
588.9930	2
589.5001	2
589.6782	2
589.7941	2
590.0345	2
590.5561	4
590.7751	1
590.9439	2
591.4502	2
591.6820	6
591.8099	2
592.0102	3
592.2787	2
592.5651	3
592.8856	5
593.0587	3
593.1976	4
593.3178	4
593.4977	1
593.6417	2
593.8071	3
594.3817	26
594.5070	14
594.6562	6
594.7917	5
595.0176	2
595.3459	3
595.5863	0
595.9197	1
596.1004	1
596.3784	5
596.5779	3
596.8720	1
597.5362	9
597.8124	2
598.1262	3
598.3931	5
598.6293	6
598.8118	6
598.9721	1
599.2654	5
599.5630	6
600.4031	28
600.6827	15
601.4366	18
601.9380	1
602.1234	1
602.3547	1
602.5018	1
602.8708	3
603.3207	4
603.6499	1
603.9297	5
604.2631	5
604.4187	3
604.6075	6
604.7989	6
605.0234	3
605.2156	2
605.4113	6
605.7268	3
605.9760	3
606.2567	6
606.6021	7
607.0844	4
607.5989	10
607.9460	4
608.4437	31
608.7576	13
609.0383	2
609.3250	4
609.4288	1
609.7554	3
610.0150	4
610.1681	2
610.3314	3
610.4701	2
610.6487	4
610.9363	2
611.2664	4
611.5897	2
612.0620	1
612.4219	3
612.6354	7
612.9400	3
613.4957	9
613.7390	2
614.4036	8
614.7763	2
615.2520	1
615.5235	2
616.6579	2
617.1523	2
617.4494	3
617.9745	2
618.4316	1
619.1244	2
619.5542	2
619.8649	6
620.0820	6
620.4437	15
620.9715	3
621.5069	34
621.7665	15
621.9019	8
622.5497	14
622.8826	5
623.3253	23
623.6284	22
623.8965	10
624.1136	3
624.3690	8
624.6747	1
624.8083	3
624.9786	3
625.5831	10
625.9152	5
626.1707	2
626.5377	8
626.6943	5
626.8859	0
627.0766	1
627.3210	6
627.4717	6
627.7050	4
627.8625	2
628.3740	5
628.6020	1
628.7313	2
629.0384	2
629.3948	7
629.6254	5
629.7990	2
629.9461	1
630.1843	3
630.3307	2
630.6667	2
631.0436	3
631.4537	2
631.7574	2
631.9276	1
632.0621	1
632.2875	2
632.6313	5
632.7742	2
633.2618	2
633.4609	2
633.7161	4
633.9689	1
634.4420	1
634.9747	4
635.5031	2
635.6401	1
636.0172	2
636.1508	4
636.2725	2
636.4392	3
636.5729	3
636.7422	3
637.0630	3
637.2817	4
637.4418	2
637.8877	1
638.0801	4
638.1865	2
638.6342	2
638.8954	7
639.0784	5
639.4998	22
640.4658	83
640.8216	23
641.4481	190
642.0652	6
642.4304	13
642.6679	4
642.9225	5
643.1617	4
643.3949	2
643.5729	3
643.7176	3
644.2905	2
644.4454	2
644.6217	1
644.8873	2
645.0338	2
645.2559	2
645.5208	2
645.7140	2
645.8715	4
646.2001	2
646.4896	4
646.6489	2
646.8464	2
647.0269	3
647.3283	0
647.6033	3
647.8008	2
648.7239	1
649.1036	2
649.2144	2
649.5788	3
649.8905	1
650.0855	4
650.5820	1
650.8570	2
650.9916	2
651.0997	1
651.3297	2
651.5212	2
651.9318	1
652.2401	3
652.5109	3
652.6982	2
653.0627	2
653.3617	3
653.5381	3
653.6479	3
653.8558	4
653.9921	4
654.1591	4
654.3423	2
654.7044	1
655.2088	2
655.5181	4
655.6339	1
656.4306	32
656.7731	19
657.4650	105
657.6832	58
658.5191	33
658.9153	7
659.0227	3
659.2468	1
659.4019	3
659.5443	2
659.7496	3
659.9192	1
660.1007	1
660.3853	3
660.6537	1
660.8285	2
660.9810	1
661.1719	1
661.4549	1
661.5870	3
661.7906	2
662.2398	2
662.3583	3
662.8569	2
663.0145	2
663.4645	4
663.5617	2
663.7484	3
664.0288	2
664.6067	6
664.8939	3
665.0312	2
665.2630	4
665.5759	1
665.7480	4
666.1111	3
666.3021	2
666.4555	3
666.7351	2
666.9874	3
667.1170	2
667.4111	8
667.8774	13
668.0948	6
668.2713	5
668.4460	5
668.7137	4
669.0598	4
669.5526	9
669.7453	5
670.6746	15
671.1742	12
671.5707	14
672.0192	9
672.3064	12
672.6191	16
672.9191	12
674.2636	16
675.4356	16
676.0339	17
676.3391	16
676.9485	20
677.3132	17
678.2286	24
679.2512	30
679.8828	24
680.5816	37
682.6381	648
683.7017	78
684.6012	31
685.6113	168
686.1326	15
686.6801	19
687.4573	15
687.8187	16
688.2073	14
688.6257	9
689.0969	16
689.4965	15
689.8316	9
691.8770	23
693.1960	36
700.5203	999
702.1057	450
703.3045	183
704.5594	98
705.4839	60
