Mass spectrum: Rubixanthin; FAB-EBEB; MS2; m/z: 552.43; [M]+*
Name: Rubixanthin
Formula: C40H56O
Exact mass: 552.43312
SMILES: C(=CC=C(C)C=CC(=C(C)1)C(C)(C)CC(C1)O)C(=CC=CC=C(C=CC=C(C)C=CC=C(CCC=C(C)C)C)C)C
InChI: InChI=1S/C40H56O/c1-31(2)17-13-20-34(5)23-15-25-35(6)24-14-21-32(3)18-11-12-19-33(4)22-16-26-36(7)27-28-39-37(8)29-38(41)30-40(39,9)10/h11-12,14-19,21-28,38,41H,13,20,29-30H2,1-10H3/b12-11+,21-14+,22-16+,25-15+,28-27+,32-18+,33-19+,34-23+,35-24+,36-26+/t38-/m1/s1
Instrument: JMS-HX/HX 110A, JEOL
Instrument type: FAB-EBEB
Ms type: MS2
Ion mode: POSITIVE
Collision energy: 3 kV
Ionization: FAB
Base peak: 104.9538
Precursor m/z: 552.43
Precursor type: [M]+*
m/z	relative intensity
0.8618	0
1.2349	0
1.6908	0
2.7648	0
6.1761	0
6.8525	0
8.0504	0
12.0968	0
12.9640	1
13.9792	1
14.9741	4
15.2841	0
15.7124	1
18.8279	0
22.9259	2
24.9152	1
25.5501	0
25.9490	8
26.9536	82
27.7079	0
27.9654	8
28.9639	57
29.9547	1
30.9418	5
34.9248	2
35.9361	0
36.7746	1
36.9119	11
37.2800	2
37.6332	1
37.9321	21
38.9387	147
39.4948	1
39.8226	3
39.9384	22
40.9537	361
41.8985	6
41.9708	13
42.9533	168
43.3751	0
43.9232	5
44.9437	7
48.0757	2
48.8240	1
48.9720	6
49.3953	2
49.9213	39
50.9355	102
51.4742	3
51.9384	38
52.9403	167
53.4001	0
53.9450	11
54.7499	1
54.9540	438
55.4709	2
55.9701	14
56.2959	1
56.9645	131
57.1672	2
57.5062	0
57.9237	2
58.9571	25
59.2054	0
59.9617	1
60.1672	2
60.9272	5
61.3311	0
61.9349	24
62.4578	0
62.6614	1
62.9320	111
63.0825	3
63.2655	1
63.4730	3
63.5479	1
63.7115	1
63.9412	21
64.1381	1
64.9433	145
65.2361	3
65.4929	1
65.9530	32
66.3431	0
66.4677	2
66.9419	228
67.2025	1
67.3167	1
67.9404	6
68.9544	569
69.4042	2
69.9601	9
70.0570	2
70.3603	4
70.9290	31
71.2501	0
71.9344	1
72.3702	0
72.7823	1
72.8718	2
73.2401	1
73.9113	30
74.2703	1
74.8945	30
75.1805	6
75.3842	4
75.5503	1
75.9295	23
76.1031	4
76.2036	2
76.4735	4
76.6219	3
76.9255	422
77.1631	9
77.2550	4
77.3535	3
77.4683	4
77.6411	3
77.9305	84
78.0963	3
78.2861	4
78.4515	1
78.5504	2
78.9347	405
79.2386	2
79.9293	54
80.6528	2
80.9430	434
81.2583	1
81.4200	3
81.5000	0
81.8417	6
81.9658	9
82.4525	3
82.9427	118
83.9369	4
84.1213	1
84.5357	1
84.9387	107
85.2527	0
85.9340	11
86.7431	1
86.9494	15
87.9026	7
88.4752	2
88.9251	61
89.1813	8
89.2686	4
89.3589	1
89.4899	5
89.5946	1
89.7148	4
89.9294	19
90.1136	6
90.3238	7
90.4650	8
90.6459	6
90.9360	858
91.2586	1
91.3867	5
91.9402	92
92.1444	2
92.2433	2
92.5309	1
92.9467	501
93.3443	7
93.9643	39
94.3701	2
94.9618	433
95.1753	4
95.3365	1
95.4733	5
95.5554	1
95.9719	16
96.9660	37
97.9240	9
98.9249	8
99.0498	2
99.4182	0
99.5954	1
99.9389	2
100.0400	0
100.5778	1
100.8384	6
100.9896	14
101.1957	5
101.3906	4
101.5485	2
101.9428	32
102.1155	6
102.2536	1
102.4028	5
102.9513	137
103.1770	4
103.4110	4
103.6062	2
103.9369	58
104.2251	4
104.4016	4
104.5621	5
104.9538	999
105.5635	2
105.9658	117
106.2981	3
106.4860	2
106.9639	480
107.2612	4
107.4375	5
107.9483	27
108.2574	3
108.3894	1
108.4947	1
108.6916	2
108.9736	204
109.3023	1
109.4226	2
109.7336	0
109.8940	10
110.0031	5
110.9565	24
111.3460	1
111.6149	3
111.8917	9
112.2698	1
112.5271	0
112.6738	3
112.8756	14
113.0200	11
113.1374	5
113.2147	3
113.3268	4
113.4262	5
113.6247	4
113.9360	19
114.2204	3
114.4707	8
114.6088	6
114.9319	382
115.2456	8
115.4175	5
115.5432	2
115.9317	155
116.3073	9
116.4494	9
116.9355	360
117.3230	4
117.4942	5
117.9346	72
118.5316	3
118.9321	875
119.2917	7
119.5191	3
119.9443	128
120.1961	4
120.3154	4
120.4407	1
120.9416	347
121.2853	3
121.4756	4
121.7025	1
121.9512	26
122.2886	3
122.3809	1
122.5157	2
122.9487	94
123.4848	1
123.6879	1
123.8594	2
123.9762	8
124.5994	1
124.8984	18
125.2164	6
125.2755	4
125.3675	1
125.9235	24
126.1291	1
126.3829	3
126.9133	129
127.1143	11
127.2835	4
127.3977	7
127.5596	12
127.9148	438
128.2780	12
128.5068	11
128.9113	524
129.3956	3
129.5524	4
129.9213	222
130.3155	6
130.5000	3
130.9184	476
131.2123	8
131.4051	2
131.6145	3
131.9216	98
132.2748	4
132.3560	1
132.5244	6
132.9290	459
133.1615	7
133.3682	3
133.4451	1
133.5891	2
133.8981	43
134.1896	1
134.4413	1
134.5628	1
134.9257	120
135.4159	1
135.5228	4
135.6346	1
135.9194	14
136.2142	0
136.4009	1
136.9464	57
137.1833	2
137.5188	0
137.9348	14
138.0717	5
138.5283	6
138.9224	49
139.3422	2
139.4625	2
139.6033	1
139.9073	28
140.0408	12
140.1233	7
140.2431	11
140.3884	9
140.5461	8
140.9243	367
141.3052	8
141.3903	4
141.5930	1
141.9162	296
142.1793	4
142.2695	1
142.4823	7
142.9241	562
143.2596	4
143.5542	8
143.9279	180
144.2414	3
144.9428	627
145.2297	6
145.5011	9
145.9592	59
146.1952	4
146.4406	8
146.5281	3
146.6492	4
146.9616	194
147.1941	7
147.3310	5
147.5216	1
147.9275	19
148.1082	6
148.3791	4
148.5362	6
148.9618	60
149.2623	4
149.4633	3
149.5848	1
149.7590	4
150.0002	13
150.1832	6
150.3123	4
150.5310	6
150.9330	51
151.3294	6
151.9299	142
152.2319	8
152.9327	230
153.4449	7
153.5517	5
153.9427	86
154.3742	5
154.5446	9
154.9586	390
155.2929	4
155.4584	3
155.9698	260
156.2305	5
156.3547	5
156.4296	3
156.9811	549
157.2446	6
157.5429	8
157.9825	132
158.4501	2
158.9905	304
159.3315	8
159.4521	6
159.9898	48
160.2969	4
160.4423	2
160.5928	4
161.0076	91
161.2954	2
161.3877	1
161.4649	1
161.5940	1
162.0148	21
162.3421	4
162.4839	4
162.9968	36
163.3440	4
163.5391	5
163.9872	32
164.1425	9
164.2946	2
164.9897	310
165.4326	9
165.9854	92
166.3938	4
166.9994	282
167.2868	5
167.3913	2
167.5236	2
167.9859	101
168.4205	8
168.5929	5
168.9973	338
169.3092	6
169.4969	5
170.0169	135
170.3138	6
170.4287	3
171.0125	257
171.4887	3
172.0031	65
172.3227	1
172.4847	3
172.6411	6
173.0237	190
173.5380	3
173.8083	6
174.0691	24
174.3642	6
174.5303	3
174.6372	6
175.0331	137
175.4545	8
175.9436	30
176.2378	2
176.4098	3
177.0305	60
177.4295	8
177.9722	152
178.2847	1
178.4276	3
178.5871	4
178.9909	238
179.3886	4
179.5756	5
179.9823	115
180.1937	11
180.3169	1
180.5482	3
180.9839	290
181.5456	5
182.0033	113
182.2866	5
182.4176	4
182.5699	13
182.9965	301
183.4937	8
183.6031	5
183.9999	68
184.4577	6
184.5537	4
185.0046	161
185.3876	7
185.9816	34
186.3431	3
186.5040	3
186.5989	1
187.0233	74
187.3953	2
187.5736	6
188.0394	21
188.5554	4
188.7248	11
189.0111	93
189.4086	6
189.9756	37
190.1786	10
190.3964	3
190.9651	101
191.3527	3
191.5642	4
191.6799	12
191.9912	99
192.3037	4
192.9766	182
193.2964	2
193.4862	5
193.9857	85
194.4306	2
194.9935	262
195.3194	5
195.4457	7
196.0031	82
196.4922	5
197.0093	206
197.3994	9
197.5710	3
198.0425	40
198.2709	6
198.5109	4
199.0098	80
199.3610	6
200.0305	34
200.1913	6
200.2979	4
200.5272	5
201.0246	56
201.4569	1
201.5532	3
201.9811	60
202.4039	2
202.6231	6
202.9956	101
203.3578	4
203.4943	3
203.9989	39
204.2202	5
204.3302	8
204.4765	5
204.9781	106
205.2312	3
205.4391	3
205.5744	3
205.9915	70
206.2765	4
206.4876	1
207.0027	146
207.4045	3
207.5581	5
208.0086	79
208.4002	8
209.0150	167
209.3815	5
209.4788	3
209.5955	4
210.0251	42
210.2697	3
210.4534	6
211.0181	100
211.5504	5
211.7530	6
212.0128	23
213.0282	37
213.4330	5
213.5727	4
213.7332	6
213.9932	20
214.1440	10
214.2559	4
214.4314	11
214.5822	4
215.0088	77
215.3067	3
215.4602	2
216.0060	32
216.2903	3
216.4926	4
217.0354	94
217.3641	3
217.5666	4
218.0334	44
218.2802	3
218.4203	5
219.0306	98
219.3641	2
219.4964	4
219.5681	2
220.0261	52
220.3364	6
220.5273	1
221.0547	112
221.4707	4
221.5751	6
221.7518	4
222.0590	39
222.3179	6
222.4386	3
222.5515	4
223.0721	112
223.3599	1
223.4937	5
223.7723	4
224.0726	40
224.1862	14
224.4577	3
224.6073	3
224.7633	3
225.0976	56
225.4124	4
225.5391	2
226.0604	32
226.2557	3
226.5045	4
226.8335	9
227.1294	29
227.4899	2
228.0245	35
228.3746	2
228.7091	7
229.0600	49
229.3744	4
229.5701	4
229.7476	3
230.0757	26
230.7466	7
231.0514	75
231.3739	3
231.5384	2
232.0529	39
232.5969	2
233.0469	84
233.6205	4
233.7845	7
234.0680	34
234.2981	5
234.4713	4
234.6379	4
235.0739	86
235.4171	10
235.5341	6
235.6230	4
235.7407	2
236.0801	28
236.2848	7
236.6144	8
237.0755	50
237.3045	8
237.3876	4
237.6938	2
238.0484	18
238.1911	6
238.3436	1
239.0629	68
239.5152	3
240.0325	14
240.4392	4
240.7221	5
241.0824	37
241.4741	3
241.6877	5
241.8194	3
242.0002	17
242.1503	15
242.2663	6
242.3875	4
242.6713	3
243.0816	50
243.3353	4
243.5398	4
243.6513	2
244.0735	36
244.3771	1
244.6532	5
245.0815	57
245.3367	4
245.4417	0
245.6968	4
246.0649	31
246.3608	3
247.0703	67
247.3341	4
247.4713	2
247.5711	3
247.7431	5
247.9433	8
248.1232	20
248.4154	3
248.6643	3
249.1089	51
249.7211	5
250.0883	13
250.3347	5
250.6054	5
250.7283	4
251.1311	39
251.5405	2
252.0577	18
252.5030	4
252.6936	3
253.0694	38
253.4768	4
253.8441	3
254.0893	18
254.4002	3
254.6631	4
255.1036	45
255.4027	4
256.0945	24
256.2616	4
256.5602	1
256.7483	3
257.0811	34
257.5430	3
258.1108	16
258.3609	7
258.7301	3
259.1046	49
259.5535	9
259.9393	12
260.1211	16
260.2501	12
260.5938	2
261.0779	50
261.3565	3
261.5600	2
261.7089	1
262.1601	19
262.3248	5
262.4559	2
262.5660	2
262.7518	5
263.0892	32
263.3086	6
263.4358	3
263.5742	3
263.8049	2
264.1147	20
264.2900	6
264.5616	4
265.0693	32
265.4141	4
265.6172	6
265.6983	3
266.0756	12
266.2114	8
266.3480	5
266.5056	5
266.7873	12
267.1474	45
267.4568	3
267.5796	7
267.7676	5
268.1094	23
268.3404	4
268.4941	3
268.5846	4
269.1033	34
269.3925	2
269.5956	4
269.7110	2
269.8672	6
270.1276	15
270.2910	5
270.5119	3
270.6035	4
270.6807	2
271.0387	27
271.2912	2
271.4383	3
271.5656	0
271.8894	7
272.1110	13
272.2719	7
272.4698	1
272.6657	3
272.7646	1
273.1248	38
273.4118	5
273.6117	1
274.1324	11
274.5488	5
274.6735	1
275.1236	32
275.2966	9
275.4590	2
275.6517	3
275.7573	2
275.8418	2
275.9461	5
276.1132	20
276.2782	7
276.7068	2
277.1096	30
277.2377	11
277.3684	3
277.4583	4
277.7542	4
278.1036	15
278.2562	2
278.3539	2
278.5587	1
279.0496	19
279.1956	12
280.0738	12
280.3904	4
280.6527	2
280.7400	1
280.9826	15
281.1954	25
281.4922	3
281.6575	5
282.1078	18
282.5931	3
282.7776	3
283.1367	28
283.2637	9
283.5686	4
284.1401	17
284.4504	3
284.6237	2
284.8083	3
285.1570	27
285.4177	3
285.6820	2
285.9431	1
286.1314	11
286.4613	3
287.1118	18
287.2664	13
287.4820	1
287.7213	2
287.9402	6
288.1822	8
288.8363	2
289.1279	26
289.6075	4
289.8436	3
290.1268	13
290.4933	1
290.8082	4
291.1331	18
291.3713	4
291.4898	2
291.9359	13
292.2132	8
293.0591	16
294.0290	11
294.2012	12
294.6422	2
294.8561	5
295.0554	15
295.2164	13
295.3846	7
295.4919	1
295.6707	4
295.7774	2
296.0788	7
296.2530	1
296.4239	1
296.5995	3
296.7339	4
297.0864	12
297.2978	5
297.5615	1
297.7616	3
297.9565	4
298.1241	9
298.4535	1
298.6775	6
299.0871	12
299.3370	4
299.9549	2
300.1345	9
300.3294	5
301.0893	15
301.6006	1
301.8513	5
302.0715	9
302.2824	4
302.6751	3
302.8940	7
303.1600	21
303.5574	3
303.9383	2
304.0756	6
304.3072	8
304.7385	5
304.9190	6
305.1719	16
305.2933	5
305.4964	2
306.1655	8
306.2704	5
306.7975	1
307.1301	14
307.8219	1
308.1234	9
308.4063	2
308.6746	1
308.7988	4
309.0505	5
309.3082	4
309.5753	2
309.6762	2
309.7865	1
310.0648	14
310.2728	7
310.5405	5
311.1657	11
311.7072	1
312.0594	12
312.1365	4
312.8238	1
313.0511	11
313.2359	6
313.6653	5
314.0096	6
314.1719	5
314.3328	4
314.8381	5
315.1379	14
315.6646	3
315.9266	4
316.0822	7
316.2359	8
316.6629	1
316.7859	2
317.1172	15
317.6234	1
317.7685	7
318.0279	9
318.2082	4
318.3153	4
318.7691	3
319.1198	12
319.3281	8
319.5190	4
319.7227	1
319.8338	1
319.9782	7
320.1307	14
320.2325	7
320.3230	4
320.7044	4
321.1803	15
321.2975	6
321.4286	4
322.1150	16
322.3134	8
322.6184	1
322.7263	1
322.8568	3
323.0878	13
323.2130	8
323.4960	4
323.9356	6
324.1720	2
324.2666	3
324.4964	1
324.8048	3
324.9493	3
325.1332	9
325.2697	1
325.5409	5
325.7501	1
326.0039	3
326.1351	4
326.3817	4
327.1593	13
327.4372	3
327.7504	3
327.8917	3
327.9963	5
328.1947	7
328.2966	2
328.4976	5
329.1752	14
330.1959	12
330.5654	6
330.7046	2
331.1114	9
331.2939	9
331.4138	3
331.7754	4
332.1344	15
332.2230	7
332.3841	4
332.6559	0
333.0556	12
333.2068	22
333.3300	12
333.8683	4
334.0708	13
334.3027	11
334.9044	3
335.0210	2
335.2395	9
335.3915	4
335.9006	3
336.0519	7
336.2358	6
336.3618	2
336.5231	1
336.8070	3
336.9164	3
337.1403	16
337.3416	1
337.4590	2
337.7709	2
337.9463	5
338.1836	9
338.6063	2
338.8590	3
339.0963	6
339.2497	8
339.3924	2
339.6918	2
340.0045	9
340.7435	3
341.1463	10
341.2898	7
341.4919	3
341.8767	3
342.1329	7
342.3958	3
342.6046	3
342.8414	1
343.0315	3
343.2157	10
343.7395	3
343.8882	1
344.0978	4
344.2139	4
344.3293	4
344.4054	1
345.1922	16
345.8817	5
346.2061	16
346.4137	4
346.5912	4
346.7388	2
346.8623	3
347.0452	6
347.2462	10
347.3897	3
347.7262	2
347.8851	2
348.0767	7
348.2570	7
348.4446	2
348.6416	2
348.8105	1
349.0396	4
349.3160	18
349.5852	4
349.7782	1
349.9338	6
350.0620	2
350.2544	11
350.4735	2
350.5596	1
351.2416	12
351.4294	4
351.9310	2
352.1649	4
352.3640	4
352.5477	1
352.8971	2
353.1891	4
353.3354	3
353.9776	4
354.1794	4
354.4608	3
354.6051	2
355.0305	3
355.3116	4
355.9346	3
356.0652	4
356.1672	1
356.2905	2
356.3958	2
356.7436	4
356.9915	6
357.1115	3
357.2514	15
357.3514	7
357.4487	4
357.6173	1
357.8559	6
358.2112	10
358.8178	1
359.2451	16
359.4211	7
359.5204	3
360.0424	5
360.1438	3
360.3351	15
360.6339	1
360.7772	4
361.0779	7
361.3007	11
361.5434	4
361.7855	4
361.9082	3
362.2123	15
362.3977	6
362.5544	1
362.6538	2
362.8205	6
363.1233	10
363.2881	8
363.5515	0
363.7150	3
363.9791	6
364.1626	4
364.3847	3
364.9304	2
365.1052	3
365.2300	3
365.3641	2
365.4902	2
365.9346	4
366.1141	5
366.3042	3
366.8381	1
366.9608	8
367.1411	8
367.3299	3
367.4981	3
367.6483	2
368.0126	1
368.1815	5
368.3377	6
368.9744	2
369.0992	2
369.2520	5
369.3367	3
370.0368	4
370.1803	2
370.2971	4
370.4319	4
370.7623	2
370.9052	5
371.0213	5
371.2136	5
371.3357	3
371.7235	2
371.9499	3
372.2309	5
372.6448	2
372.9279	1
373.2638	11
373.4601	3
373.5769	3
373.9415	3
374.1144	3
374.2780	2
374.6854	2
374.8977	5
375.2063	15
375.4694	4
375.7993	1
376.1106	10
376.4072	3
376.9582	5
377.2388	4
377.7665	3
379.1368	5
379.2424	3
379.5297	1
380.0984	1
380.2293	1
380.7747	3
381.0480	6
381.1549	3
381.3554	4
381.5092	2
381.6021	1
382.0519	4
382.3065	6
383.1862	6
383.3988	4
383.6201	1
383.7785	1
384.0272	6
384.1930	2
384.5160	4
385.2795	14
385.4313	4
385.7362	4
385.8827	8
386.0960	2
386.1963	4
386.3434	5
386.5714	3
386.9092	2
387.1754	6
387.3466	6
387.4837	1
387.9452	6
388.1445	7
388.2856	4
388.4020	5
388.8033	2
389.1974	4
389.3325	1
389.4643	1
389.9439	5
390.0911	2
390.2557	3
390.3909	3
391.1028	3
391.2466	3
391.4125	3
392.0964	1
392.2818	4
392.4257	2
392.8279	1
393.2401	7
393.3626	4
393.8063	2
394.1055	8
394.3592	6
395.0178	3
395.2568	2
395.3452	2
396.1458	7
396.2830	5
396.4002	4
396.6801	1
396.8139	2
397.0804	4
397.3770	7
397.8504	0
398.2086	5
398.7645	3
399.2366	21
399.4576	8
399.7770	1
400.1620	6
400.3727	6
400.7994	1
400.9132	2
401.0670	8
401.3025	15
401.4811	2
401.7300	1
402.0451	8
402.2217	5
402.3609	12
403.0347	4
403.2515	10
403.3752	4
403.5459	2
403.9554	4
404.1441	4
404.3402	6
405.1693	4
405.2329	1
405.5127	2
405.7817	3
406.0461	4
406.3051	17
406.8460	3
407.0903	4
407.3534	5
407.5917	2
408.0168	1
408.1587	3
408.3823	4
408.9574	3
409.1904	4
409.2546	2
409.8961	2
410.3809	2
410.5315	0
410.9721	4
411.1047	4
411.1958	1
411.3203	4
411.5259	4
411.8260	2
412.2271	12
412.5600	1
413.1259	8
413.3396	4
413.4608	3
413.7040	4
413.9853	8
414.0999	6
414.2599	10
414.5855	4
414.9064	8
415.2748	18
415.4497	8
415.8376	4
416.2751	11
416.4661	9
416.6346	4
417.4879	3
417.7782	4
418.1006	2
418.3488	6
418.5434	4
418.8177	2
419.0852	3
419.3207	5
419.5562	1
419.6913	3
419.8237	3
420.1502	6
420.4639	4
420.6479	2
420.8841	4
421.1203	0
421.2895	4
421.4421	3
421.6201	2
421.8074	3
421.8997	3
422.2082	7
423.0004	4
423.3344	4
423.5967	3
424.0537	2
424.1555	3
424.3991	2
424.6407	3
424.7411	1
424.9332	8
425.1574	1
425.2745	2
425.3675	1
425.6306	6
426.1654	3
426.3689	4
426.5503	3
426.6888	3
426.8521	4
426.9659	4
427.0992	6
427.2009	4
427.3475	3
427.6079	3
427.7766	3
427.9239	11
428.2888	8
428.5117	4
428.8137	2
429.2448	13
429.5301	4
429.6941	2
429.8126	4
429.9512	1
430.3141	13
430.7387	7
431.0695	6
431.3019	8
431.5262	5
431.6689	3
431.9689	2
432.1624	3
432.2703	3
432.4471	4
432.5334	3
432.6721	4
432.8469	0
433.1068	3
433.2910	2
433.4577	4
433.6734	3
434.1054	2
434.2046	3
434.2964	1
434.9836	8
435.1806	7
435.3460	5
435.6173	4
435.7239	1
436.0374	1
436.2545	2
436.5298	4
436.8340	6
436.9713	4
437.2233	7
437.4638	13
437.6112	9
437.9744	15
438.1425	3
438.4541	13
438.6806	14
438.8408	8
439.0378	7
439.3742	11
439.7595	8
439.9626	6
440.2628	16
440.3828	8
440.5584	17
440.7299	7
440.8553	4
441.0490	6
441.3171	15
441.6555	6
441.9270	10
442.3145	7
442.4659	15
442.5638	6
442.6905	4
442.8118	4
442.9197	7
443.0585	3
443.2194	7
443.4024	6
443.5036	5
443.7409	3
443.9581	4
444.0808	5
444.2317	4
444.3376	3
444.5139	6
444.8491	3
445.0838	8
445.3955	18
445.5766	11
445.6671	5
445.9614	4
446.2786	15
446.4757	7
446.6205	3
446.7975	3
446.9498	2
447.0926	6
447.2763	6
447.4272	4
447.7350	1
447.9147	2
448.1515	3
448.5874	1
448.7188	1
449.0877	6
449.2238	2
449.4358	7
450.3801	3
450.5606	1
450.8522	5
451.0617	4
451.1955	1
451.4532	2
451.5576	2
451.6741	3
451.8401	2
452.0262	2
452.2089	10
452.5034	4
452.7933	4
453.0999	1
453.2887	6
453.4520	2
453.7030	4
453.8744	3
454.2821	5
454.4816	1
454.6262	4
454.9135	3
455.0735	1
455.2134	4
455.6325	2
455.8936	3
456.3530	9
456.5605	6
456.7862	2
457.1893	2
457.4404	8
457.9005	6
458.0344	6
458.2373	3
458.5634	5
458.7791	8
458.9338	5
459.0878	4
459.3658	20
459.5982	16
460.3389	504
460.8279	9
460.9987	13
461.1213	8
461.3015	3
461.4549	2
461.7355	7
462.0202	1
462.1823	4
462.3833	4
462.9561	2
463.0994	7
463.2133	2
463.3929	3
463.5469	6
463.6548	3
464.1171	4
464.2082	2
464.3456	1
464.4695	1
464.5847	3
464.6758	1
465.2018	7
465.3928	4
465.6179	2
465.9730	4
466.0749	4
466.2317	3
466.3476	3
466.8589	6
467.0787	3
467.2817	0
467.4486	4
467.7260	3
468.1509	3
468.4016	9
468.8164	1
469.3151	2
469.4880	1
469.7011	1
470.2293	4
470.6368	4
471.1094	1
471.3969	9
471.5712	4
471.9641	5
472.2993	19
472.5466	5
472.7893	3
473.0193	6
473.2794	22
473.5348	8
473.8392	5
474.3353	3
474.5646	3
474.7162	1
475.1218	0
475.4262	4
475.9760	6
476.1739	3
476.3482	4
476.7391	2
476.9625	3
477.0852	2
477.4406	5
477.6364	2
477.8550	1
477.9474	2
478.1791	9
478.3826	4
478.5607	4
478.9557	4
479.1740	1
479.4840	4
479.9969	4
480.0559	1
480.3137	4
480.5387	7
481.2345	4
481.4501	6
481.5639	2
481.7126	3
482.2825	1
482.7748	4
482.9322	6
483.0259	5
483.3929	4
483.6481	3
483.8960	3
484.0554	1
484.1900	4
484.4016	2
484.4907	3
484.9422	2
485.1177	5
485.2101	2
485.4392	0
486.0569	3
486.1486	4
486.4541	3
486.6886	3
488.6046	3
488.9550	1
489.2123	2
489.3584	4
489.5326	7
489.7819	3
489.9681	0
490.4774	3
490.8633	1
491.0141	2
491.1267	3
491.3284	6
491.4872	2
491.6601	2
491.9335	1
492.1982	4
492.5226	2
493.1573	4
493.2960	4
493.4816	2
493.5889	1
493.9072	1
494.0540	4
494.2235	4
494.3697	8
495.1787	5
495.2939	5
495.4280	2
495.8912	3
496.1975	7
496.2699	4
496.4073	3
496.6051	3
497.1474	1
497.6951	1
498.5633	2
498.7416	1
498.9441	3
499.0862	10
499.2243	1
499.9531	2
500.1536	4
500.2971	3
500.5545	3
500.6893	2
500.9280	4
501.6207	2
502.0974	9
502.2550	4
502.4153	2
502.9444	1
503.1764	1
503.3273	2
503.4399	3
503.5305	4
503.7712	4
503.9995	5
504.2191	4
504.4100	5
504.5627	4
505.6522	4
505.7560	4
505.8872	3
506.1383	7
506.2428	4
506.4249	8
506.7390	3
507.1261	2
507.3277	11
507.4596	5
507.5855	7
507.7094	3
508.0142	4
508.1508	6
508.5138	2
508.6524	0
509.1514	3
509.4602	4
509.7181	1
509.8788	2
510.0697	8
510.2513	9
510.4609	2
510.6297	3
510.7744	3
511.3391	4
511.4911	4
512.3352	2
512.7693	3
513.0621	3
513.3602	4
513.7957	4
514.0101	7
514.3223	0
515.1973	2
515.4553	5
515.6971	1
515.7870	1
515.9163	2
516.1207	4
516.2258	4
516.5529	5
516.7291	3
516.9187	3
517.1619	4
517.4072	1
517.6250	2
517.7550	4
517.9896	3
518.1363	3
518.3514	3
518.6241	4
518.7790	7
519.0786	5
519.3124	6
519.4398	4
519.5745	11
519.8171	1
519.9819	4
520.1274	4
520.2762	10
520.4698	8
520.6602	7
520.9202	3
521.1931	7
521.5731	13
521.9116	4
522.1073	12
522.3928	15
523.0370	4
523.3386	6
523.6061	1
523.7676	4
524.2798	7
524.6163	4
524.9280	1
525.2847	2
525.3879	2
525.7319	3
525.9651	6
526.1804	3
526.2648	1
526.4204	3
526.5759	7
526.7777	5
526.9031	3
527.0063	1
527.1378	3
527.4053	2
527.7587	3
527.9880	4
528.1428	6
528.2977	4
528.5787	4
528.7369	7
528.8616	4
528.9857	2
529.1131	4
529.2150	4
529.3082	5
529.5255	8
529.6998	5
529.7944	4
529.9593	4
530.0847	7
530.2296	5
530.4146	6
530.5387	3
530.7426	7
530.9886	14
531.6928	15
531.8913	10
532.1442	14
532.3031	6
532.4627	5
532.7242	14
532.9006	8
533.1488	19
533.3540	12
533.5767	15
534.4359	117
534.8913	22
535.3635	51
535.6707	20
536.4066	53
537.4705	221
537.8951	22
538.2487	13
538.3553	9
538.6083	11
538.8323	6
539.0262	8
539.1490	6
539.2818	7
539.4925	6
539.6360	4
540.0219	6
540.1419	3
540.3828	9
540.5961	6
540.7786	10
540.9974	7
541.1987	4
541.4892	12
541.7146	7
542.0575	10
542.3373	10
542.6970	8
542.8473	4
543.0365	14
543.2667	11
543.4706	16
543.6552	11
543.7988	5
543.9699	19
544.0732	7
544.3967	10
544.7134	13
545.2745	24
545.4557	12
545.9610	20
546.2972	24
546.8423	42
547.1173	39
547.8353	63
552.3463	999
552.9722	999
553.7527	480
554.6336	253
555.3781	139
556.0830	83
556.8998	52
557.1943	33
557.6202	25
557.9777	26
558.4222	22
558.8735	16
559.0449	7
559.2438	12
559.4788	7
559.8350	12
560.0372	11
560.2495	9
560.5214	5
560.6747	5
560.7892	4
560.9372	6
561.1281	7
561.3531	6
561.5620	4
561.7026	1
561.8694	3
562.0254	1
562.3321	5
562.5363	6
