Mass spectrum: 12'-Apocapsorbinal; FAB-EBEB; MS2; m/z: 382.25; [M]+*
Name: 12'-Apocapsorbinal
Formula: C25H34O3
Exact mass: 382.25079
SMILES: O=CC(C)=CC=CC=C(C)C=CC=C(C)C=CC(=O)C(C)(C1)C(C)(C)CC(O)1
InChI: InChI=1S/C25H34O3/c1-19(10-7-8-11-21(3)18-26)12-9-13-20(2)14-15-23(28)25(6)17-22(27)16-24(25,4)5/h7-15,18,22,27H,16-17H2,1-6H3/b8-7+,12-9+,15-14+,19-10+,20-13+,21-11+/t22-,25-/m0/s1
Instrument: JMS-HX/HX 110A, JEOL
Instrument type: FAB-EBEB
Ms type: MS2
Ion mode: POSITIVE
Collision energy: 3 kV
Ionization: FAB
Base peak: 83.0839
Precursor m/z: 382.25
Precursor type: [M]+*
m/z	relative intensity
0.6586	0
5.3338	1
6.2533	1
11.9683	0
12.3207	0
12.9683	1
14.0068	2
15.0100	5
18.0460	0
19.0066	0
22.9719	1
23.9895	1
24.9909	2
25.9994	11
27.0055	78
28.0116	11
29.0076	65
29.2944	0
29.6520	0
30.0160	1
30.9958	9
32.8327	1
35.9706	1
36.4791	0
36.6891	0
36.9935	7
37.1802	0
38.0048	28
38.5507	0
39.0081	187
39.4503	1
39.6529	1
40.0153	30
40.5212	0
41.0255	342
41.5587	0
42.0230	13
42.6629	0
43.0146	327
43.4335	0
44.0293	5
45.0173	13
46.0091	0
46.9798	1
47.9722	1
48.2285	1
49.0013	4
49.2113	0
49.5254	1
50.0071	45
51.0110	97
51.5054	1
51.6434	0
52.0204	47
52.2792	1
53.0276	170
54.0315	21
55.0430	334
55.5280	1
56.0501	13
57.0489	69
57.5387	0
58.0434	2
58.2570	0
58.5221	0
59.0417	15
60.0024	1
60.6588	0
61.0086	7
61.4475	1
62.0085	23
63.0188	70
63.4793	1
64.0245	21
64.6346	1
65.0325	145
65.5332	1
66.0320	39
66.4423	0
67.0453	161
68.0310	12
68.2750	0
68.5541	0
69.0339	238
69.4019	1
69.5324	1
70.0297	10
70.5530	0
71.0426	114
71.5519	0
72.0429	4
73.0339	3
74.0073	22
75.0232	30
76.0141	21
76.5672	2
77.0302	355
77.4827	2
78.0404	95
78.4212	1
78.5915	1
79.0456	245
79.4927	1
80.0575	47
80.6286	1
81.0568	119
82.0480	45
82.5165	2
83.0839	999
83.5664	2
84.0885	20
85.0884	134
86.0253	11
86.5961	1
87.0281	11
88.0281	6
88.2484	1
88.4237	1
89.0505	45
89.6075	1
90.0541	20
90.5057	3
91.0603	635
91.6230	2
92.0710	75
92.7121	1
93.0778	149
93.5439	1
94.0653	27
94.4640	1
95.0667	273
96.0640	35
96.6005	1
97.0815	61
97.5230	1
98.0646	10
98.3546	1
99.0596	25
99.5462	0
100.0475	3
100.4765	1
101.0462	14
101.3517	2
101.6402	1
102.0559	44
102.4345	2
103.0612	133
103.4317	1
103.7046	1
104.0640	62
105.0700	419
106.0686	50
106.5732	1
107.0714	135
107.5680	1
108.0562	53
108.4358	1
109.0980	859
109.5418	2
110.0726	21
111.0618	37
111.3625	1
112.0473	9
113.0620	13
113.5320	4
114.0381	14
115.0530	404
116.0603	124
117.0667	293
117.6584	2
118.0683	65
118.6489	2
119.0777	316
119.5507	1
120.0716	48
120.4386	1
121.0684	170
122.0684	50
123.0800	54
123.5950	1
124.0750	10
125.0924	346
126.0686	28
127.0878	270
127.5968	13
128.0667	403
129.0690	387
130.0800	134
131.0870	261
131.4951	2
132.0829	82
133.0994	163
133.6040	1
134.0950	35
134.6395	2
135.0972	159
135.6471	1
136.1003	25
136.5625	1
137.1070	36
137.4715	2
138.0789	9
138.6012	1
139.0851	51
140.1149	19
140.6599	7
141.0978	285
142.1062	200
142.5247	2
143.1173	296
144.1261	145
145.1276	355
146.1159	80
147.1337	207
148.1391	53
148.6585	2
149.1422	45
150.1338	16
151.1291	54
152.1060	128
153.1084	174
153.5056	2
154.1204	89
155.1230	203
156.1352	105
156.4851	3
157.1300	185
157.4860	2
158.1193	103
159.1191	447
159.6849	2
160.1255	59
161.1275	108
161.4663	2
161.7229	1
162.1320	15
162.5892	2
163.1189	29
163.4731	2
164.1244	22
165.1033	233
166.1178	79
167.1188	153
168.1193	74
168.5528	1
169.1233	152
170.1328	56
171.1216	131
172.1158	152
173.1308	149
174.1260	44
175.1388	42
175.5989	2
176.0955	19
176.5841	1
177.1021	27
177.3889	4
178.1051	79
179.1196	112
180.1326	50
180.4693	4
181.1287	139
182.1364	54
183.1355	145
183.6690	2
184.1379	29
185.1448	114
185.6099	2
186.1572	37
186.6224	1
187.1608	50
187.6779	2
188.1678	13
189.1296	34
190.1303	18
191.1151	47
192.1460	30
193.1640	67
194.1621	44
195.1635	112
196.1806	63
197.1767	145
198.1609	39
199.1912	99
200.1961	29
200.5945	2
201.2033	39
201.6759	2
202.1711	26
203.1778	34
204.1971	10
204.7170	1
205.1780	21
206.1664	15
207.1846	38
208.1898	28
209.1934	89
209.6621	2
210.1890	35
211.1952	149
212.2016	56
213.2033	82
214.2133	90
215.2145	47
215.8199	2
216.1772	10
217.1983	17
217.6283	0
218.1952	13
218.7326	1
219.1944	15
219.5091	1
220.1939	13
221.2232	84
222.2014	36
223.2064	33
223.6062	1
224.1871	13
224.6085	2
225.1987	67
226.2096	28
227.2289	97
228.2342	30
228.6826	2
229.2509	183
230.2392	16
231.1950	13
231.4911	2
232.2360	7
233.1922	8
233.5038	1
234.2460	12
234.5834	1
234.7249	1
235.2314	19
236.2167	8
237.2211	52
237.5693	2
238.2432	11
238.5351	1
239.2132	54
239.7224	1
240.2327	12
241.2041	17
242.2352	8
243.2133	13
244.2028	7
244.8674	1
245.2377	8
246.2502	10
246.6298	1
246.8709	1
247.2536	11
247.5399	1
248.2234	9
249.2643	18
249.7751	1
250.2498	4
251.2085	12
251.8761	1
252.2382	6
252.7325	2
253.2475	29
254.2386	52
255.2298	190
255.6578	3
255.8230	1
256.2469	9
257.2416	7
257.6728	1
258.2427	5
258.6462	1
259.2223	7
259.6763	1
260.2011	2
260.7435	0
261.2407	6
261.5058	1
262.2034	4
262.7357	1
263.2351	13
264.2537	6
264.5775	1
265.2457	14
265.6384	1
265.9263	2
266.2358	5
267.2549	20
267.7527	2
268.2309	8
269.2709	13
270.2473	13
270.5426	1
271.2588	11
271.7733	0
272.2766	7
273.2761	16
273.8063	1
274.3128	5
274.6835	1
275.2704	4
275.6185	0
276.2827	3
277.2540	4
277.9040	1
278.2450	2
279.2804	14
279.5926	1
280.0368	1
280.3109	5
280.8705	2
281.2673	21
281.7156	0
282.2815	15
283.2743	18
284.3270	5
285.2953	11
286.3011	11
287.2882	16
288.3094	6
289.2607	2
289.8611	0
290.3317	8
290.7168	1
291.2081	4
292.1959	2
292.5924	0
293.2590	7
293.7730	1
294.3140	5
294.6107	1
294.8282	1
295.3011	9
296.2925	30
297.3150	41
298.3139	16
298.9190	2
299.3314	26
299.8882	1
300.3007	7
300.8163	1
301.1803	1
301.8063	0
302.3117	16
303.2740	6
304.2314	1
304.5852	1
305.1290	1
305.3364	1
305.5396	1
305.8337	1
306.2671	2
306.7346	1
307.2557	6
307.7862	1
308.3028	13
308.7462	1
309.3011	5
310.3067	4
310.6326	1
310.8997	1
311.3144	7
312.0304	1
312.3615	14
313.2983	2
313.7596	1
314.2290	2
314.7966	1
315.3074	4
315.5789	1
316.2786	2
317.1333	1
317.4946	1
317.8724	1
318.2409	0
318.4453	0
319.1763	1
319.5665	1
319.9130	1
320.3461	1
321.3598	8
321.9301	1
322.3953	4
322.9008	1
323.3546	6
323.8663	1
324.3398	15
324.7350	2
325.3148	25
325.7801	1
326.3177	10
327.2372	2
327.6489	1
327.9575	1
328.5406	1
328.8162	1
328.9824	1
329.2838	2
329.5986	1
330.0817	1
330.7279	1
331.0334	1
331.3917	1
332.3178	1
333.2770	2
334.2560	3
334.7538	1
335.3713	4
335.8723	1
336.3639	3
336.8938	1
337.3793	3
337.6851	0
338.3648	4
338.6531	1
338.8411	0
339.3690	8
339.7844	1
340.4601	3
340.6792	1
341.2961	1
341.5421	1
341.9544	2
342.3171	2
342.8453	2
343.1274	1
343.3765	1
343.8520	2
344.4784	1
344.9177	2
346.2565	3
346.5330	4
347.2500	4
347.4893	2
348.0248	5
348.5871	2
349.3476	21
350.1834	5
350.6788	1
351.3672	7
352.3993	11
353.3840	72
353.8154	3
354.3667	24
354.9314	1
355.3433	0
355.6127	1
355.9772	1
356.6948	3
358.3831	9
359.0285	7
359.6171	10
360.6868	11
363.3392	21
364.3431	312
365.3595	30
366.2883	8
367.3420	80
367.9726	1
368.3917	1
368.7777	0
369.1700	1
369.8069	0
371.1664	0
372.0316	5
372.6769	6
374.8701	13
382.3465	999
384.3665	62
384.8522	28
385.7926	11
386.8561	4
387.8969	4
388.2721	3
389.1132	2
389.6157	3
390.4083	2
390.7457	2
391.0728	2
391.7148	1
392.2834	1
