Mass spectrum: Crocoxanthin; FAB-EBEB; MS2; m/z: 550.42; [M]+*
Name: Crocoxanthin
Formula: C40H54O
Exact mass: 550.41747
SMILES: C(=CC(=C(C)2)C(C)(C)CCC2)C(C)=CC=CC(=CC=CC=C(C)C=CC=C(C#CC(=C1C)C(C)(C)CC(C1)O)C)C
InChI: InChI=1S/C40H54O/c1-30(18-13-20-32(3)23-25-37-34(5)22-15-27-39(37,7)8)16-11-12-17-31(2)19-14-21-33(4)24-26-38-35(6)28-36(41)29-40(38,9)10/h11-14,16-21,23,25,36,41H,15,22,27-29H2,1-10H3/b12-11+,18-13+,19-14+,25-23+,30-16+,31-17+,32-20+,33-21+/t36-/m1/s1
Instrument: JMS-HX/HX 110A, JEOL
Instrument type: FAB-EBEB
Ms type: MS2
Ion mode: POSITIVE
Collision energy: 3 kV
Ionization: FAB
Base peak: 535.5356
Precursor m/z: 550.42
Precursor type: [M]+*
m/z	relative intensity
0.0744	0
2.4009	0
12.9711	0
13.9928	1
14.9855	2
15.2175	0
15.4973	0
17.9860	0
22.9325	4
24.9571	2
25.9662	12
26.9696	56
27.4872	0
27.9704	6
28.9760	57
29.9563	1
30.9561	10
36.7233	0
36.9639	8
37.5382	0
37.6403	1
37.9359	12
38.4488	0
38.9547	149
39.9688	21
40.9719	260
41.9748	5
42.9738	140
43.9954	3
44.9688	7
47.8787	1
48.7500	0
48.9418	4
49.1140	2
49.9410	46
50.4837	1
50.9565	101
51.2425	1
51.9648	33
52.7293	1
52.9630	143
53.9874	6
54.9773	353
55.9825	6
56.5604	2
56.6588	0
56.9947	113
57.4827	1
57.9833	3
58.9775	19
59.9866	0
60.4063	2
60.5406	0
60.6645	1
60.9592	8
61.1419	0
61.9519	34
62.9503	80
63.1441	1
63.4929	1
63.6447	2
63.9544	12
64.1814	1
64.4465	0
64.9636	127
65.2327	1
65.5101	1
65.9645	17
66.6006	0
66.9751	183
67.9852	7
68.6942	1
68.9789	183
69.2168	0
69.9773	4
70.9589	37
71.6562	1
71.8519	1
71.9810	0
72.3703	0
72.6181	0
72.9802	7
73.1318	1
73.3884	1
73.9425	29
74.6719	1
74.9475	34
75.1658	3
75.3333	2
75.4727	2
75.6443	1
75.8187	9
75.9744	26
76.1086	2
76.2433	2
76.3687	3
76.4980	2
76.9506	360
77.1814	6
77.3299	2
77.5147	2
77.5832	1
77.9581	69
78.2057	1
78.4557	2
78.9636	294
79.1968	2
79.4161	1
79.6020	2
79.9707	38
80.2254	2
80.3713	1
80.9717	387
81.3036	1
81.5040	2
81.9659	7
82.5013	1
82.9797	79
83.2483	1
83.5351	1
83.8845	0
83.9962	3
84.2422	0
84.9670	98
85.5594	1
85.9368	16
86.1230	1
86.6841	0
86.9540	22
87.2076	1
87.3795	1
87.6779	1
87.9571	8
88.2445	2
88.4215	3
88.6146	2
88.9604	57
89.1416	5
89.2329	4
89.4063	2
89.6096	1
89.9504	14
90.3001	3
90.4077	3
90.5315	3
90.9606	620
91.2465	4
91.3976	2
91.4847	0
91.6912	1
91.9707	82
92.3439	1
92.4624	1
92.6429	4
92.9837	375
93.3194	1
93.5354	2
93.6640	1
93.9763	22
94.3028	1
94.5402	2
94.9914	241
95.3657	1
95.4465	1
95.6873	2
95.8153	1
95.9836	8
96.0534	4
96.1885	2
96.6150	0
96.9906	21
97.5194	1
97.9850	13
98.2762	2
98.9743	5
99.7609	0
99.9644	2
100.6361	1
100.9523	20
101.1692	3
101.2533	2
101.4192	4
101.5363	1
101.6322	2
101.9714	41
102.2447	3
102.4710	3
102.9729	112
103.1889	3
103.2745	1
103.3577	1
103.9739	54
104.2518	2
104.4819	3
104.9832	683
105.2544	3
105.3552	1
105.4784	2
105.6805	2
105.9837	50
106.4861	2
106.6348	2
106.9961	272
107.4057	1
107.5220	1
107.6115	1
107.9812	19
108.4242	2
108.9869	91
109.2896	0
109.4413	0
109.8651	3
110.0187	7
110.7779	1
110.9777	12
111.3798	2
111.8144	2
111.9249	4
112.0289	4
112.2852	2
112.3791	1
112.4932	2
112.6296	2
112.7731	5
112.9861	12
113.1512	4
113.3469	5
113.5912	5
113.9488	28
114.1298	3
114.3714	6
114.4727	3
114.9574	359
115.2545	3
115.4046	5
115.4815	3
115.9579	123
116.9532	317
117.4144	7
117.5866	2
117.9602	60
118.1416	4
118.4075	2
118.4998	2
118.5999	3
118.9632	555
119.3314	2
119.5265	1
119.7331	3
119.9802	39
120.2692	4
120.4246	3
120.5389	1
120.9848	257
121.2039	6
121.3196	3
121.4268	2
121.6357	1
121.9732	39
122.2932	3
122.4478	3
122.5685	2
122.9865	373
123.3501	3
123.4418	2
123.6076	2
123.7011	2
123.8645	5
124.0261	7
124.5416	1
124.7161	3
124.9484	10
125.1730	4
125.4499	3
125.6325	4
125.9492	30
126.3794	2
126.9452	136
127.3136	5
127.4650	5
127.9411	400
128.2758	5
128.4016	6
128.4994	8
128.9358	413
129.2293	3
129.4966	3
129.9445	167
130.2623	2
130.3437	1
130.5275	3
130.9459	337
131.2597	4
131.3413	2
131.9546	78
132.3179	3
132.4302	2
132.5468	3
132.9546	220
133.2955	3
133.4092	4
133.9447	19
134.3051	1
134.4622	1
134.5675	1
134.9565	35
135.2284	2
135.4091	1
135.9563	11
136.0619	5
136.2600	2
136.4459	1
136.6120	2
136.9517	16
137.3954	2
137.7039	1
137.9519	9
138.2333	2
138.3991	4
138.6900	9
138.9438	62
139.1438	2
139.2689	2
139.9473	33
140.0706	10
140.2845	5
140.9407	331
141.3279	5
141.5072	4
141.9462	294
142.4649	7
142.9559	462
143.3476	4
143.9516	137
144.2260	2
144.9695	402
145.2822	6
145.4847	4
145.9777	32
146.2446	2
146.4560	3
146.9863	131
147.2491	2
147.5469	4
147.6892	3
148.0065	10
148.1077	4
148.2251	2
148.3251	2
148.4213	3
148.5213	2
148.9738	21
149.3253	3
149.4353	2
149.5316	2
149.9752	20
150.1142	6
150.2913	4
150.4841	2
150.9888	50
151.2149	7
151.3471	3
151.9625	172
152.2791	10
152.9797	192
153.3022	6
153.4353	3
153.5696	3
153.9884	101
154.2729	2
154.3740	2
154.4689	3
154.9891	297
155.3820	5
155.5473	3
155.9977	188
156.2921	2
156.9982	345
157.4805	3
158.0159	67
158.3833	4
159.0200	127
159.3801	5
159.5959	2
159.8653	8
160.0527	12
160.2225	2
160.4339	3
160.5734	3
161.0357	39
161.4027	2
161.5360	2
161.7192	3
162.0219	9
162.1230	4
162.4499	4
162.5283	2
163.0032	42
163.2544	3
163.4581	6
164.0385	28
164.3430	6
164.4760	4
165.0168	360
165.4489	6
166.0321	129
166.4151	4
167.0237	234
167.3942	5
167.5453	4
168.0386	94
168.4638	2
169.0365	277
169.5361	4
170.0339	96
170.3728	2
170.4577	2
171.0332	174
171.5056	4
172.0637	25
172.3860	1
172.5649	4
173.0466	67
173.5088	2
173.9140	10
174.0620	18
174.3599	3
174.5093	1
174.7361	5
175.0513	31
175.5758	6
175.9994	36
176.3683	3
177.0352	43
177.2497	11
178.0201	197
178.2806	5
178.3806	3
179.0152	302
179.3058	6
180.0172	98
180.3367	10
181.0180	262
181.3869	6
181.5656	4
182.0239	87
183.0253	228
183.4604	2
183.6080	2
183.7646	11
184.0554	51
184.3259	3
184.5426	3
185.0478	84
185.3101	5
185.4169	3
185.6440	5
186.0491	20
186.2501	3
186.3614	2
186.5099	1
186.6553	6
187.0516	26
187.2834	3
187.5768	6
188.0681	18
188.2418	7
188.4014	6
189.0250	113
189.2533	9
189.9696	42
190.4026	6
191.0096	188
191.3479	3
191.4705	2
191.5854	3
192.0188	125
192.3752	4
193.0144	227
193.3960	4
193.5355	2
194.0208	110
194.5242	7
195.0412	233
195.4040	5
196.0050	63
196.5874	3
197.0394	156
197.3098	8
197.4747	7
197.5796	5
198.0531	28
198.3159	4
198.4132	2
198.4924	1
199.0505	46
199.4141	5
199.5230	4
199.6848	4
200.0517	29
200.2974	3
200.4883	7
200.5941	6
200.7360	8
201.0470	30
201.2192	12
201.3263	5
202.0343	125
202.2622	8
202.3790	5
203.0318	125
203.3108	6
204.0105	51
204.3852	2
205.0315	137
205.4505	3
206.0396	97
206.4942	3
207.0422	210
207.3955	3
207.5295	3
208.0331	83
209.0431	169
209.3061	6
209.4719	5
210.0595	29
210.3077	4
210.5027	2
210.6265	4
211.0705	49
211.3979	3
211.5204	2
211.6384	4
212.0644	21
212.4315	4
213.0465	41
213.4060	3
213.5591	4
213.6850	6
214.0608	15
214.4685	7
215.0359	128
215.4087	3
215.5301	4
216.0790	68
216.2025	26
216.3551	2
217.0667	139
217.3527	9
217.4833	1
218.0788	62
218.5087	5
219.0771	121
219.3900	5
220.0868	67
220.4968	3
221.0944	121
221.4173	3
221.5358	4
222.0789	39
222.5628	4
223.0996	71
223.4749	4
223.8685	12
224.1188	28
224.4487	4
224.6110	5
225.1130	28
225.5962	2
226.0476	44
226.5189	4
227.0883	38
227.3766	8
227.5783	5
228.0692	53
228.3406	4
228.4520	7
228.5399	4
229.0719	100
229.4151	2
229.6653	2
230.1044	59
230.2724	16
230.4868	3
231.0805	106
231.4677	2
231.5987	4
232.0955	48
232.3667	4
232.5082	5
233.0932	120
233.6209	4
234.1011	39
234.4006	3
234.4978	2
234.6446	4
235.1230	85
235.4886	2
235.6589	2
236.1245	27
236.3673	3
236.5025	0
236.6795	3
237.1217	43
237.5142	4
237.7788	4
238.1525	19
238.4877	9
238.5930	5
239.0955	78
239.3609	8
239.6002	4
239.8290	10
240.1173	23
240.3102	8
240.5750	4
241.0930	61
241.4776	3
242.0978	31
242.3242	9
242.4295	3
242.6540	5
243.0977	102
243.4799	6
244.0966	65
244.3919	3
244.6028	3
245.0946	105
245.5373	3
246.0994	55
246.4564	2
247.0934	106
247.6832	1
248.1152	25
248.5079	4
249.1453	58
249.5578	3
249.7263	2
249.8582	4
250.1789	17
250.4354	3
250.5876	2
251.1178	26
251.6092	9
251.6892	2
252.0978	30
252.3647	6
252.6310	5
253.0915	54
253.5311	3
254.1105	29
254.2700	12
254.5883	2
254.6920	5
255.1114	68
255.5920	3
256.0989	41
256.6630	4
257.1096	84
257.4525	2
258.1449	37
258.3046	15
258.4189	5
258.5891	1
259.1095	78
259.5289	5
260.1244	36
260.3683	6
260.4860	3
261.1462	70
261.4783	3
261.5809	2
261.6841	1
261.8209	2
262.1169	17
262.2616	10
262.3629	2
262.5122	1
262.6162	2
263.1254	37
263.4886	3
263.6637	3
264.1625	11
264.3955	3
264.5232	6
264.7292	6
265.1229	36
265.3987	4
265.5995	7
265.8023	7
266.1460	24
266.3535	5
266.5333	3
267.1267	59
267.4218	2
267.6998	8
268.1254	29
268.5589	0
269.1335	60
269.4968	2
269.6659	2
269.7614	3
270.1378	36
270.4525	5
270.5499	4
271.1331	49
271.5123	6
271.7270	5
272.1550	16
272.4105	2
272.6094	4
273.1310	53
273.6870	4
274.1627	21
274.3109	10
274.5013	4
274.7162	4
275.1438	34
275.5452	2
275.7733	1
276.0956	24
276.2439	10
276.5208	3
277.1135	25
277.5546	6
277.8889	6
278.1217	17
278.2741	10
278.5142	5
278.6863	1
279.1362	38
279.5419	1
279.7497	5
280.1192	23
280.4597	4
281.1143	64
281.7229	2
282.1414	23
282.4801	1
282.6353	2
283.1153	52
283.4936	4
283.7010	3
284.1395	24
284.4902	2
284.6006	3
285.1606	53
285.3559	13
285.6053	2
285.7801	5
285.8870	4
286.1787	14
286.4961	3
286.6631	2
286.8169	2
287.1588	32
287.4862	3
287.7139	4
287.8037	2
288.0803	14
288.2830	11
288.4679	3
289.1394	31
289.4148	2
289.6578	1
289.7589	2
289.9398	9
290.1208	17
290.3335	7
290.4881	2
290.5700	2
291.1005	26
292.0830	15
292.2508	7
292.3592	2
292.5350	3
293.0987	23
293.4709	2
293.7372	3
294.1352	17
294.5246	4
294.7712	1
295.1276	35
295.4410	2
295.5568	1
295.9787	10
296.1354	19
296.2928	7
297.1091	34
297.3862	4
297.7091	5
298.0882	12
298.3628	5
298.5222	3
299.1397	37
299.4084	9
299.7320	5
300.1695	11
300.3681	4
300.5144	2
300.6607	4
301.1493	19
301.3506	10
301.6538	4
302.1339	10
302.3299	4
302.4180	1
302.6405	1
302.7597	2
303.1332	22
303.5121	2
303.7267	6
303.8360	5
303.9215	2
304.1315	15
304.2348	7
304.3667	4
304.5727	3
304.7655	4
305.1286	26
305.2492	6
305.3691	1
305.4513	1
305.5726	2
305.9463	8
306.1809	8
306.4520	2
306.5474	1
306.8424	9
307.1579	27
307.5510	6
308.1178	11
308.3260	3
308.5919	2
308.7636	2
308.8783	6
309.1204	26
309.2775	12
310.0488	16
310.2232	7
310.3791	2
310.5476	1
310.6796	2
310.8633	5
311.1877	22
311.4849	4
311.7443	3
311.8538	2
312.1212	8
312.2651	4
312.3488	2
312.4974	5
312.6308	2
313.1298	25
313.2672	13
313.5877	2
313.6879	2
313.7742	2
313.9401	2
314.1930	8
314.4745	0
314.6623	1
315.1801	13
315.4085	5
315.6701	2
316.1110	5
316.3493	8
316.5213	1
316.7106	2
316.8713	3
317.1442	17
317.3734	8
317.5401	1
318.0103	4
318.2428	6
318.3624	1
318.5437	0
318.8028	3
319.1416	20
319.4671	3
319.6552	2
319.8405	2
320.1748	10
320.3422	4
320.5383	1
320.7316	3
321.2088	22
321.4919	2
321.5823	2
321.6794	1
321.8488	1
322.2191	6
322.5707	1
322.7569	3
323.1691	20
323.3991	6
323.6318	2
323.9104	2
324.1571	10
324.3200	5
324.4809	3
324.8414	1
324.9870	6
325.2005	13
325.3681	8
325.5064	2
325.6494	1
325.9095	3
326.0911	10
326.2880	6
326.4596	2
326.5966	3
326.7829	2
327.1255	15
327.3916	13
327.6511	2
327.7966	2
328.2777	7
328.5920	2
328.6984	3
328.8133	3
329.1416	16
329.4181	13
329.5650	3
329.8063	1
330.1633	7
330.3786	2
330.7729	2
331.1937	26
331.6052	4
331.7581	3
332.0647	5
332.2655	11
332.6086	2
333.2058	34
333.5523	2
333.6561	2
333.8749	6
334.2068	28
334.3838	9
334.5614	3
334.7869	1
335.1641	16
335.4808	3
335.6531	3
336.1468	9
336.3863	3
336.6405	5
336.7703	2
337.1795	14
337.4637	2
337.9902	2
338.2058	6
338.3476	2
338.6624	1
338.9547	8
339.2369	20
339.4506	3
339.6550	2
339.8407	2
340.0019	4
340.2915	6
340.5898	2
340.7922	1
341.2044	10
341.3522	7
341.5440	2
341.6452	3
342.2513	5
342.3412	2
342.4864	2
342.6216	3
342.8394	3
342.9713	4
343.2717	10
343.6107	1
343.8093	3
344.1017	7
344.3535	6
344.4521	2
344.6940	3
345.2310	28
345.4942	6
345.8347	3
346.2132	20
346.3679	7
346.7777	4
347.2396	47
347.5789	6
347.7408	2
347.8688	2
347.9774	4
348.1581	7
348.3961	6
348.6321	1
348.7341	2
348.9287	6
349.1888	9
349.3094	7
349.5248	4
349.7988	2
349.9495	2
350.1776	5
350.2742	3
350.5963	1
350.9844	2
351.2452	9
351.4159	3
351.6413	3
351.8601	2
352.1302	4
352.3797	8
352.6031	0
352.8699	1
353.0180	3
353.2535	11
353.4783	4
353.6858	1
353.9460	2
354.1495	5
354.2973	5
354.4236	4
354.6604	2
354.7954	1
355.0302	5
355.2677	10
355.4619	3
355.7108	2
355.8837	2
356.3294	9
356.6434	3
357.1964	13
357.3421	12
357.4678	6
357.5683	2
357.7094	1
357.9549	4
358.2417	8
358.4427	2
358.6204	3
358.7994	4
359.2533	22
359.7491	2
360.2037	21
360.5139	6
360.8461	3
361.2302	11
361.6789	0
361.9532	1
362.1117	4
362.4346	6
362.7249	1
362.9260	1
363.2589	10
363.5586	3
363.6445	2
363.8889	1
364.2312	4
364.5156	2
364.7481	1
364.9652	2
365.1224	5
365.2789	5
365.5014	2
365.6606	1
365.9997	2
366.1449	4
366.3427	3
366.5686	3
366.7518	2
366.8710	1
367.1582	5
367.3247	3
367.5353	2
367.9037	1
368.0797	5
368.2628	2
368.4580	5
368.6639	0
368.7998	1
368.9810	2
369.2808	10
369.3941	5
369.9717	2
370.2356	2
370.3755	2
370.4935	4
370.6107	1
371.2391	15
371.5530	3
371.7830	2
372.0722	5
372.2562	13
372.4114	5
372.5661	5
372.8427	5
373.2253	25
373.3779	7
373.5273	3
373.7086	3
374.0146	5
374.2166	6
374.3305	3
374.5012	6
374.7386	4
374.8346	1
375.1486	3
375.3239	4
375.4960	1
375.8234	2
376.2188	1
376.4855	3
377.1770	2
377.4305	1
377.5632	2
377.7413	1
378.2288	6
378.8345	4
379.2040	8
379.3774	8
379.5009	8
379.9358	3
380.1946	3
380.3608	4
380.4775	1
380.7657	1
380.8665	1
381.1120	5
381.3602	7
381.5117	3
381.8893	2
382.1936	2
382.3778	4
382.5920	3
382.8703	2
383.1266	9
383.2621	5
383.4589	7
383.6685	2
383.9455	1
384.2125	3
384.4774	3
384.7084	2
384.8466	1
385.2417	13
385.3232	5
385.6029	3
385.6984	2
386.0034	6
386.2832	8
386.5081	3
386.7004	1
387.0116	6
387.3174	12
387.5344	5
387.6639	3
387.9617	1
388.2615	7
388.8125	1
388.9734	2
389.1878	6
389.2893	3
389.4382	2
389.6432	0
390.2190	8
390.3252	3
390.5783	2
391.0219	2
391.3759	7
391.4661	2
391.6538	4
392.1668	9
392.2991	6
392.4120	4
392.5149	2
392.8657	2
393.1950	6
393.3260	5
393.4115	3
394.0476	1
394.2501	5
394.3710	3
394.4699	1
394.7031	2
394.8602	1
395.1729	11
395.3948	10
395.4830	5
395.6013	1
396.2082	5
396.3011	4
396.4782	6
396.6593	1
397.3297	28
397.5978	13
397.7188	3
398.1051	5
398.2796	4
398.4554	11
398.7222	2
398.8699	2
399.1768	8
399.3914	16
399.7060	2
399.8629	2
400.1855	6
400.4739	7
400.6222	1
400.7484	1
401.0015	1
401.2159	7
401.3381	5
401.4550	4
401.7756	2
401.8791	1
402.0521	3
402.2692	4
402.4368	0
402.6566	1
403.0073	3
403.2725	3
403.4201	4
403.5470	2
403.7588	1
404.1142	2
404.2411	1
404.3841	2
404.9687	3
405.2794	5
405.5346	4
406.1674	3
406.3130	4
406.3852	2
406.5917	2
406.8924	1
407.0487	3
407.3368	5
407.9075	3
408.1668	4
408.2737	4
408.4235	2
408.7663	3
409.0684	2
409.3271	15
409.4835	6
409.6486	2
409.8933	2
410.2094	10
410.3151	4
410.4842	2
410.6740	2
410.7877	3
411.0030	4
411.3218	15
411.7029	3
411.8493	1
412.3401	13
412.5086	7
412.6650	2
412.9084	2
413.3384	19
413.6199	4
413.8880	1
414.0853	6
414.3749	10
414.5949	1
414.8069	2
415.0885	1
415.3988	5
415.4837	2
415.6008	2
415.8121	4
415.8750	2
416.0145	2
416.1701	2
416.2762	1
416.8918	5
417.1862	3
417.3758	2
417.4960	2
417.6856	2
417.8546	1
418.0890	4
418.2512	3
418.4195	2
418.5724	2
419.1053	4
419.2408	2
419.4252	3
419.6830	2
419.9461	3
420.2286	2
420.3722	4
420.5097	1
420.6634	2
420.9873	3
421.2017	6
421.3900	6
421.6105	2
422.1088	2
422.3646	6
422.5597	2
422.7654	3
423.0834	2
423.3326	6
423.4969	2
423.7154	1
423.9733	1
424.1877	4
424.3354	3
424.4797	1
424.6033	5
424.8940	3
425.0663	4
425.2200	9
425.3904	7
425.5387	2
425.7272	2
426.2885	22
426.5497	14
426.7482	4
427.2909	42
427.7894	5
428.2058	10
428.5026	7
428.6870	6
428.8648	3
429.2926	5
429.5085	5
429.7378	4
429.8688	2
430.1897	3
430.2812	2
430.4169	2
430.5172	3
430.9123	2
431.0988	2
431.2633	2
431.4003	2
431.6049	3
432.0816	1
432.2681	1
432.5222	3
432.6238	1
433.0277	2
433.2664	3
433.3827	2
433.5947	4
433.7244	1
433.9377	1
434.0581	3
434.1236	1
434.4593	1
434.6031	0
434.7382	2
435.1722	2
435.3481	6
435.5026	1
435.7460	1
436.1720	3
436.4188	3
436.7185	2
436.8215	1
436.9914	2
437.2756	5
437.4188	7
437.6027	3
438.1573	4
438.3486	9
438.4242	5
438.7600	2
438.9720	0
439.1286	6
439.3788	3
439.6223	1
439.8050	2
440.1281	4
440.2264	2
440.4278	5
440.6132	4
440.8594	2
440.9664	2
441.2762	10
441.5285	2
441.6951	1
441.8457	2
441.9507	2
442.2070	5
442.3904	3
442.5115	5
442.7450	1
442.8394	2
443.0047	3
443.1412	3
443.3058	6
443.4309	5
443.5327	3
443.6511	1
443.8104	1
444.1591	1
444.3237	3
444.4569	1
444.6912	1
444.9154	3
445.2353	10
445.4341	12
445.6276	3
445.7822	3
446.0138	2
446.0714	1
446.3284	2
446.4275	3
446.5366	2
446.7361	2
446.8880	2
447.1671	2
447.2903	5
447.6331	1
448.1914	1
448.3206	3
448.4599	2
448.7009	2
448.8790	1
449.1127	2
449.4561	6
449.6851	3
450.0541	4
450.4311	8
450.7411	3
450.9696	2
451.0845	2
451.2890	5
451.3672	1
451.5142	2
451.5903	1
451.7701	2
452.0915	4
452.3087	4
452.4998	3
452.7444	2
453.0732	0
453.5663	1
453.6586	2
453.7648	1
453.8845	1
454.0789	3
454.5461	2
454.6443	2
454.8328	4
455.1510	2
455.2733	3
455.4337	6
455.5661	2
455.8314	3
456.0199	2
456.1670	3
456.5085	3
456.6108	2
457.0654	3
457.3782	8
457.6042	3
457.8709	2
458.3576	77
458.8991	5
459.0142	6
459.3210	4
459.4380	5
459.5383	4
459.6232	2
459.7476	1
459.8787	1
460.0378	4
460.2317	4
460.3494	2
460.5078	2
460.6837	3
460.8448	4
460.9465	6
461.1979	2
461.3778	9
461.6353	2
461.7349	2
462.0499	2
462.1903	2
462.3140	2
462.3909	1
462.5762	2
462.6812	1
462.8296	2
463.0590	7
463.5031	10
463.7151	9
464.0743	12
464.2843	6
464.6368	15
464.8174	7
465.0133	14
465.4662	10
465.7210	7
466.0562	4
466.4067	5
466.6428	4
466.9044	2
466.9807	1
467.1707	4
467.4603	3
467.6503	1
467.7621	1
468.0136	1
468.1748	1
468.3702	2
468.7823	3
469.2132	5
469.4989	4
469.7358	2
469.9131	2
470.0871	2
470.2175	3
470.3714	2
470.5093	7
470.8258	2
471.0479	1
471.2735	5
471.4120	2
471.5545	5
471.6683	1
472.0993	1
472.3221	2
472.5597	3
472.7812	3
473.1199	6
473.3688	1
473.5596	2
473.9485	5
474.3018	2
474.4598	3
474.8005	2
475.2108	3
475.3534	2
475.5415	5
475.6412	2
475.8420	3
476.0810	5
476.1727	4
476.3990	4
476.5737	3
476.7210	3
476.8288	2
476.9961	4
477.2590	6
477.5417	9
477.6861	5
477.8612	3
478.1667	6
478.4227	14
478.6693	2
479.4206	32
479.8103	8
480.0109	2
480.1833	5
480.4287	4
480.5945	2
480.8164	3
481.0891	8
481.2857	8
481.5170	8
482.0405	13
482.3975	16
482.6161	13
482.7692	6
482.9324	2
483.1122	5
483.3469	6
483.5107	3
483.6050	2
483.7434	5
483.9259	4
484.0302	2
484.1907	3
484.3693	1
484.5378	3
484.6735	2
484.8293	2
485.0600	3
485.2666	3
485.4285	2
485.5442	1
485.6652	2
485.9501	6
486.1346	2
486.3052	3
486.5426	4
486.8054	2
487.0702	4
487.4307	2
488.2955	4
488.4794	4
488.9965	2
489.1295	2
489.3984	2
489.5469	2
489.6888	2
489.7884	1
490.0821	2
490.2754	3
490.3998	3
490.5490	7
490.6513	4
491.0527	2
491.3892	10
491.6320	11
491.7812	2
491.9431	3
492.2301	5
492.4094	9
492.6576	2
492.7740	2
492.9607	3
493.3821	16
494.3751	75
494.6306	24
494.8214	8
495.1118	3
495.4236	2
495.5514	3
495.6732	4
495.9167	2
496.1617	5
496.2574	2
497.4632	2
497.9632	2
498.3593	2
498.5896	1
499.0467	3
499.2796	2
499.4249	2
499.8258	2
500.3981	2
501.1765	0
501.3352	2
501.4577	1
501.9028	1
502.3915	2
502.5267	4
502.7142	2
503.0174	2
503.1644	2
503.2259	1
503.4331	1
503.6169	4
503.8235	2
503.9004	1
504.0641	1
504.1878	1
504.3656	3
504.5635	6
504.6477	1
505.0876	6
505.3108	2
505.5555	1
505.6624	2
506.0041	2
506.1270	3
506.3209	8
506.5456	8
506.7013	2
506.8357	2
507.3137	4
507.5203	3
507.8379	3
508.4510	3
508.6616	2
508.9565	2
509.1303	2
509.3984	1
509.5355	3
509.9380	4
510.0992	1
510.2864	4
510.4101	2
510.6114	0
510.7759	1
510.9243	4
511.2520	3
511.3804	5
511.5195	3
511.6365	2
511.7455	1
512.2184	3
512.4197	2
512.5541	2
512.6504	2
512.8637	2
512.9841	2
513.1246	2
513.2369	2
513.3780	2
513.5192	2
514.0027	5
514.1739	4
514.3766	3
514.5786	6
514.6996	1
514.8140	2
514.9913	2
515.1310	2
515.4173	4
515.5384	2
516.0956	2
516.1792	2
516.3999	3
516.5451	2
516.7504	1
516.8381	0
516.9558	2
517.1826	4
517.4080	14
517.6160	9
517.9224	4
518.1412	5
518.2844	4
518.4717	2
518.7219	4
519.4056	4
519.7267	4
520.0519	4
520.2499	6
520.4199	8
520.6193	7
520.8187	2
521.0234	4
521.1659	1
521.3058	2
521.3834	1
521.5587	9
521.6938	6
521.7989	2
522.0579	3
522.5517	8
522.7410	3
522.9512	2
523.0542	3
523.3962	2
523.5996	7
523.8057	6
523.9636	8
524.1222	8
524.3310	6
524.4622	4
524.5793	4
524.8323	8
524.9655	3
525.2479	14
525.4835	9
525.6367	7
525.8033	19
525.9914	7
526.1915	7
526.5590	12
526.7704	11
526.9424	10
527.0770	7
527.2831	15
527.6232	10
527.9464	18
528.1185	9
528.5670	19
528.8661	15
529.0830	18
530.3408	24
531.3015	30
532.5668	125
532.8185	68
534.3993	60
535.5356	999
536.4222	34
536.6251	24
537.0831	12
537.3477	6
537.7421	11
538.0261	10
538.3709	8
538.7306	11
539.1022	10
539.3220	9
539.6407	7
539.8926	9
540.0881	11
540.2870	11
540.5235	9
540.8048	13
540.9984	10
541.2944	11
541.6039	6
542.1444	13
542.5557	14
543.2289	13
543.7621	21
543.9838	18
544.8581	31
545.0403	23
545.5843	43
550.3890	999
551.3270	564
552.2264	236
553.1138	133
553.8669	65
554.9689	41
555.2535	33
