Mass spectrum: Auroxanthin; FAB-EBEB; MS2; m/z: 600.42; [M]+*
Name: Auroxanthin
Formula: C40H56O4
Exact mass: 600.41786
SMILES: C(O4)(C=C(C34C)C(CC(C3)O)(C)C)C(C)=CC=CC(=CC=CC=C(C)C=CC=C(C(O2)C=C(C12C)C(CC(C1)O)(C)C)C)C
InChI: InChI=1S/C40H56O4/c1-27(17-13-19-29(3)33-21-35-37(5,6)23-31(41)25-39(35,9)43-33)15-11-12-16-28(2)18-14-20-30(4)34-22-36-38(7,8)24-32(42)26-40(36,10)44-34/h11-22,31-34,41-42H,23-26H2,1-10H3/b12-11+,17-13+,18-14+,27-15+,28-16+,29-19+,30-20+/t31-,32-,33?,34?,39+,40+/m0/s1
Instrument: JMS-HX/HX 110A, JEOL
Instrument type: FAB-EBEB
Ms type: MS2
Ion mode: POSITIVE
Collision energy: 3 kV
Ionization: FAB
Base peak: 119.0903
Precursor m/z: 600.42
Precursor type: [M]+*
m/z	relative intensity
0.0265	0
7.7493	0
8.3628	0
9.3849	1
13.0016	0
13.4789	0
14.0187	1
15.0257	7
16.0182	0
18.9967	1
19.1885	0
22.4905	0
22.9864	1
24.0124	0
25.0042	1
26.0140	9
27.0228	59
28.0305	8
29.0294	61
30.0372	1
30.7057	1
31.0116	8
31.5105	0
35.0457	0
35.1818	0
36.0017	0
37.0035	5
37.2313	1
38.0124	15
38.5026	0
39.0240	155
39.4926	0
40.0249	21
40.3306	0
41.0392	299
42.0240	9
43.0219	780
44.0228	10
45.0322	19
45.5486	0
46.1169	0
47.0037	1
48.9942	4
50.0163	40
51.0213	98
52.0311	44
53.0372	179
53.7166	0
54.0370	11
54.3986	0
55.0507	378
55.7243	1
56.0505	12
57.0699	382
58.0702	5
59.0534	79
60.0300	2
60.4210	0
61.0346	6
62.0223	22
63.0346	73
63.6383	0
64.0387	19
65.0471	154
66.0459	39
67.0599	270
68.0577	20
69.0555	289
70.0557	9
71.0441	79
72.0477	1
72.3168	0
72.5759	0
73.0301	4
74.0211	16
75.0440	29
76.0403	22
77.0476	458
78.0515	104
79.0572	418
79.5328	2
80.0448	85
80.5099	1
81.0684	377
82.0551	29
82.5269	1
83.0660	174
83.6952	0
84.0489	10
85.0706	264
85.5544	1
86.0468	14
86.5842	1
87.0510	36
87.5953	0
88.0349	7
89.0619	52
90.0656	20
91.0732	920
92.0818	105
93.0887	682
94.0896	50
95.0900	654
96.0767	62
97.0849	110
98.0593	8
99.0676	16
99.6915	0
100.0751	3
101.0570	15
101.4403	3
102.0700	46
103.0808	172
104.0852	80
105.0943	989
106.1039	120
107.1070	470
108.0975	75
108.4780	3
109.1019	366
110.1066	36
110.5109	1
111.0919	57
112.0887	6
113.0773	21
114.0944	14
115.0720	440
116.0739	166
117.0773	425
118.0809	100
119.0903	999
120.0897	151
121.0935	535
122.0801	130
123.0853	392
124.0761	46
125.0596	675
126.0589	39
127.0624	149
128.0644	466
129.0677	533
130.0708	231
131.0795	591
132.0823	153
133.0819	495
133.5684	12
134.0886	101
135.0790	496
136.0735	244
137.0750	234
138.0622	24
139.0403	91
140.0620	26
141.0643	388
142.0706	350
143.0809	613
144.0821	212
145.0916	707
146.0830	121
147.0873	494
148.0836	75
149.0943	309
150.0912	59
151.0816	686
152.0849	236
153.0861	229
154.0838	120
155.0973	413
156.1028	252
157.1107	586
158.1121	147
159.1188	371
160.1114	75
161.1274	246
162.1187	137
163.1318	322
164.1203	68
165.1156	778
166.1147	149
167.1266	290
168.1318	132
169.1439	382
170.1461	153
171.1509	329
172.1484	107
173.1497	244
174.1426	61
175.1453	236
176.1261	56
177.1362	122
178.1199	210
179.1209	333
180.1408	524
181.1401	987
182.1371	142
183.1393	344
183.6163	6
184.1406	110
185.1380	225
186.1468	85
187.1440	141
188.1418	53
189.1356	258
190.1499	122
191.1237	209
192.1193	112
193.1294	496
194.1216	127
195.1298	269
196.1447	107
197.1402	263
198.1394	83
199.1406	169
200.1302	53
201.1325	106
202.1093	88
203.1281	170
204.1337	47
205.1182	121
206.1232	99
207.1442	296
208.1426	179
209.1461	229
210.1470	77
211.1500	182
212.1473	77
213.1574	139
214.1650	36
215.1421	135
216.1568	55
217.1456	111
218.1550	37
219.1665	185
220.1722	73
221.1846	719
222.1742	73
223.1812	131
224.1919	67
225.1874	113
226.1663	40
227.1875	87
228.1844	49
228.5421	6
229.1847	107
229.6469	4
230.1886	36
231.1975	98
232.1866	44
233.1999	131
234.2094	161
235.2099	105
236.2077	38
237.2091	105
238.2279	86
239.2145	110
240.2450	282
241.1995	70
242.1981	37
243.2017	78
244.2025	34
245.2022	81
246.2069	36
247.2229	233
248.2127	33
249.2200	71
250.2058	27
251.2075	56
252.2269	36
253.2168	71
254.1929	26
255.2086	59
256.2010	25
257.2362	83
258.2261	24
259.2383	98
260.2299	26
261.2360	59
262.2424	18
263.2271	50
264.2231	24
265.2351	52
266.2239	15
267.2507	52
268.2510	84
268.7136	4
269.2517	57
270.2306	18
271.2460	110
272.2633	58
273.2525	64
274.2799	102
275.2760	34
276.2550	16
277.2769	39
278.2437	12
279.2673	38
280.2518	16
281.2807	48
282.2531	14
283.2763	66
284.2713	30
285.2776	93
286.3016	79
287.2895	156
288.2903	22
289.2724	24
290.2405	15
290.5753	3
291.2878	30
292.3070	13
292.6310	6
293.2853	28
294.2886	12
295.2864	35
296.2781	12
297.2827	80
298.2828	47
299.2847	204
300.2853	47
301.2703	27
302.2271	9
303.2884	20
304.2899	13
305.2615	25
306.3046	14
307.2862	23
308.2600	11
309.2674	45
310.2971	20
311.2700	66
312.2875	74
313.2894	67
314.2930	8
315.2985	16
316.2867	7
317.2957	15
318.2764	9
319.3160	22
320.3193	14
321.2895	18
321.7103	4
322.3472	10
323.2923	29
324.3107	35
325.2927	168
326.3163	26
327.3098	49
328.2924	6
329.2704	9
330.2518	6
330.6877	2
331.3224	18
332.3010	9
333.3275	19
334.2157	8
335.3110	27
336.3062	12
337.3127	55
338.3430	30
339.3399	22
340.3417	164
341.2832	11
341.8161	2
342.3172	6
343.3100	9
344.2950	4
345.2738	16
346.3307	9
346.6030	4
347.3210	16
348.3019	12
349.3434	27
350.3597	19
351.3410	54
352.3353	607
353.3329	79
354.3849	7
355.3159	7
356.3873	3
357.3504	6
358.3377	6
359.3618	16
360.3652	17
361.3673	25
362.3631	36
363.3287	31
364.3472	26
365.3514	130
366.3683	54
367.3131	7
368.3362	8
369.2079	3
369.7396	1
370.2585	2
370.6816	2
371.3955	8
372.3921	8
373.3537	15
374.3538	19
375.3891	23
376.3895	38
377.3468	59
378.3778	19
379.3834	94
380.3555	6
381.4046	5
382.5129	2
383.3897	3
384.4440	2
385.3562	8
386.4714	5
387.3775	51
388.3811	5
389.3673	43
390.3648	36
391.3929	100
392.3651	73
393.4093	14
393.9195	2
394.5225	4
395.3639	2
396.3685	3
397.3477	5
397.6982	1
399.0920	5
400.3708	28
401.3568	8
402.4214	14
403.4013	43
404.4070	30
405.3999	111
406.3577	5
407.3861	5
408.3537	3
409.3968	5
410.3278	5
410.8662	3
411.4480	7
412.3151	3
413.4169	23
413.8983	2
414.4180	4
415.5105	6
416.4606	9
417.4381	30
418.4173	112
419.4366	333
420.4415	159
421.4146	7
421.8708	4
422.4742	5
423.3227	3
424.3745	4
425.4072	16
426.4433	11
427.4170	42
428.3651	9
429.4303	10
430.3127	4
431.4537	5
432.4540	5
433.4368	69
434.3188	4
434.6262	2
435.4187	5
436.0046	1
436.3633	2
436.9958	1
437.4041	1
438.0318	1
438.4738	4
439.4219	16
440.4086	64
441.4210	7
442.4302	46
443.3947	5
443.8738	1
444.3929	3
445.4105	6
446.3528	6
447.4074	26
448.4092	185
449.4207	17
450.3025	2
451.0480	2
451.4408	2
451.8032	0
452.1656	1
452.4959	1
453.4901	18
454.4460	132
455.4244	10
456.3772	4
457.0092	2
457.4279	5
458.3407	2
458.9296	1
459.3307	1
459.6419	1
460.3624	3
461.4937	6
461.8163	3
462.4984	4
463.3940	4
463.8835	1
464.5031	3
465.2688	4
465.5497	3
466.5215	5
467.3727	7
468.4628	4
469.3446	5
469.9346	2
470.4974	3
471.3777	4
471.9166	4
472.6238	3
473.3535	4
474.0464	1
474.7281	4
475.4194	5
475.8413	3
476.5038	4
477.4920	11
478.4322	7
479.4527	7
480.4572	10
481.4650	34
481.9770	3
483.2850	4
484.4600	4
485.3910	7
486.0219	5
489.3583	11
491.1168	15
492.5044	11
493.4794	21
494.4441	16
495.4241	5
495.9678	2
496.4876	3
497.3955	4
498.5105	4
499.5068	6
504.6741	54
507.4880	83
508.4849	93
509.1689	10
510.0808	5
510.9109	3
511.5645	2
512.5858	2
513.4529	6
514.4133	3
515.5939	3
515.9360	1
516.5544	4
516.9720	1
517.7366	2
518.5640	12
520.5192	959
521.5347	36
522.2334	4
522.5587	3
523.4738	3
524.5621	2
524.9692	1
525.4854	3
526.6459	4
527.5035	11
528.5665	3
529.5909	5
529.9453	2
530.8240	2
531.5262	2
531.9336	1
532.5125	5
532.9358	1
533.5596	2
533.9734	1
534.5123	4
535.3029	3
535.5852	1
536.4465	3
536.9887	2
537.5004	1
537.9014	2
538.6056	3
539.2249	1
539.6612	3
540.5628	6
541.4966	11
542.5234	20
543.4830	6
544.5341	7
545.4471	7
545.9286	2
546.5464	2
547.6298	2
548.1290	1
548.5013	2
548.8352	1
549.5864	4
550.3489	2
550.6249	0
551.2992	4
552.1211	3
552.7585	2
553.4087	7
554.7638	4
555.5554	37
556.5236	16
557.5032	13
558.5165	5
559.2070	6
559.7145	3
560.6766	3
561.7254	4
562.2780	2
562.9269	4
563.5245	4
564.4803	9
565.3751	5
567.5360	37
568.5691	6
569.5557	19
570.5744	17
571.5402	23
572.6473	15
573.2571	9
582.6042	422
583.6027	138
584.5692	84
585.5870	957
600.3977	999
603.9275	118
