Mass spectrum: Methyl-13-hydroperoxy-delta9Z,11E-octadecadienoic acid; FAB-EBEB; MS2; m/z: 311.22; [M-CH3]-
Name: Methyl-13-hydroperoxy-delta9Z,11E-octadecadienoate
Name: LOOH-1
Name: Methyl-13-hydroperoxy-delta9Z,11E-octadecadienoic acid
Class: Natural Product; Lipid
Formula: C19H34O4
Exact mass: 326.24571
SMILES: CCCCCC(OO)C=CC=CCCCCCCCC(=O)OC
InChI: InChI=1S/C19H34O4/c1-3-4-12-15-18(23-21)16-13-10-8-6-5-7-9-11-14-17-19(20)22-2/h8,10,13,16,18,21H,3-7,9,11-12,14-15,17H2,1-2H3/b10-8-,16-13+
Instrument: JMS-HX/HX 110A, JEOL
Instrument type: FAB-EBEB
Ms type: MS2
Ion mode: NEGATIVE
Collision energy: 3 kV
Ionization: FAB
Base peak: 311.2172
Precursor m/z: 311.22
Precursor type: [M-CH3]-
m/z	relative intensity
0.3304	0
13.4320	0
16.9010	2
24.8993	0
26.9330	0
30.7564	0
31.8884	0
32.8829	0
37.8842	0
38.9500	0
40.9184	0
42.9095	0
43.8996	0
44.8892	0
48.9264	0
52.9674	0
54.9338	0
56.9528	0
57.9090	3
58.8961	1
59.8908	0
60.8855	0
63.8995	0
64.9258	0
66.9360	0
67.7979	0
68.9412	0
70.9079	7
71.8708	0
72.8955	0
73.8717	0
78.9297	0
80.9622	0
82.9178	0
83.9453	0
84.9423	0
85.9277	1
86.9420	0
92.9242	0
94.2100	0
94.9656	0
96.9541	1
98.9670	2
99.9585	0
107.0429	0
108.0914	0
109.0085	0
109.9952	0
110.9924	0
113.0763	3
114.0454	0
115.0169	0
117.3336	0
119.0808	0
120.0450	0
121.0943	0
123.0832	0
125.0392	0
127.0608	17
128.0575	0
129.0901	0
131.0878	0
133.0531	0
135.0172	0
137.0172	0
137.1442	0
137.6113	0
138.0669	0
138.6637	0
139.0984	1
140.0631	0
141.0457	2
142.0838	0
143.0436	0
143.6692	0
145.0272	0
148.1180	0
149.0511	0
150.0616	0
151.1257	0
153.0473	0
154.0738	0
155.0635	0
157.0553	0
158.0254	0
161.0064	0
163.0253	0
164.1490	0
165.0565	1
166.0301	0
167.0348	2
168.1392	0
169.0737	0
169.8740	0
171.0707	4
172.9922	0
174.4605	0
175.0991	0
177.1405	1
179.1216	0
179.4968	0
181.1528	1
182.1277	1
182.6540	0
183.1145	1
184.1325	0
184.2633	0
185.1208	0
185.7368	0
186.6997	0
186.9640	0
191.1776	0
193.0916	2
193.9604	0
194.1886	0
195.1015	4
197.0869	4
198.0215	0
199.0617	0
200.1097	0
201.1220	0
203.1197	0
205.1275	0
207.0768	0
208.0438	0
208.6335	0
209.1066	1
209.9482	0
210.1664	0
211.0976	4
212.0825	0
213.0130	0
213.1528	0
217.5406	0
219.1112	0
220.3128	0
221.1546	5
221.6329	0
221.9121	0
222.3078	0
223.1609	50
223.6967	0
223.9170	0
225.1266	0
227.1774	0
229.3745	0
231.2306	0
234.2824	0
235.1998	2
236.2395	1
236.6474	0
237.2255	10
239.2021	4
239.5208	0
240.1009	0
241.3225	0
244.5483	0
244.9706	0
247.1390	0
249.1670	2
250.0724	0
250.2309	0
251.1391	3
252.0001	0
253.1193	1
253.4761	0
254.1239	0
255.1499	0
255.5397	0
256.0054	0
256.8882	0
257.0772	0
258.0225	0
259.1198	0
259.9016	0
261.0344	0
263.1309	1
263.9226	0
264.1925	0
265.1679	11
266.6444	0
267.1699	1
267.8097	0
268.1372	0
268.4453	0
268.6112	0
269.1681	0
269.4312	0
270.2223	0
270.4458	0
271.0025	0
271.5315	0
271.6976	0
272.2106	0
272.4805	0
272.8846	0
273.1698	0
273.4525	0
273.5959	0
274.3360	0
275.2541	2
276.2019	0
277.2131	66
278.2017	4
279.1903	12
279.5889	0
279.9655	0
281.1553	1
281.7051	0
282.0910	0
282.5015	0
283.0720	0
283.5900	0
284.1707	0
285.2180	0
285.6422	0
289.7046	12
293.2805	807
294.3461	3
294.6879	1
295.1617	1
295.6481	0
296.1896	0
297.3607	0
302.7921	1
311.2172	999
312.6168	2
313.0649	1
313.4482	0
313.6200	0
313.8744	0
314.1406	0
314.5163	0
314.8339	0
315.7767	0
