Mass spectrum: Pyrrhoxanthinol; FAB-EBEB; MS2; m/z: 570.33; [M]+*
Name: Pyrrhoxanthinol
Formula: C37H46O5
Exact mass: 570.33452
SMILES: C(C12C)C(CC(C)(C)C(C=Cc(c(=O)3)cc(=CC(C)=CC=CC=CC=C(C)C#CC(C4(C)C)=C(C)CC(C4)O)o3)(O2)1)O
InChI: InChI=1S/C37H46O5/c1-25(15-16-32-27(3)20-29(38)22-34(32,4)5)13-11-9-10-12-14-26(2)19-31-21-28(33(40)41-31)17-18-37-35(6,7)23-30(39)24-36(37,8)42-37/h9-14,17-19,21,29-30,38-39H,20,22-24H2,1-8H3/b11-9+,12-10+,18-17+,25-13+,26-14+,31-19-/t29-,30+,36-,37+/m1/s1
Instrument: JMS-HX/HX 110A, JEOL
Instrument type: FAB-EBEB
Ms type: MS2
Ion mode: POSITIVE
Collision energy: 3 kV
Ionization: FAB
Base peak: 552.2960
Precursor m/z: 570.33
Precursor type: [M]+*
m/z	relative intensity
0.0100	0
5.8425	0
7.9379	0
12.9072	0
14.0053	0
15.0251	2
19.0120	0
21.5955	0
21.8713	0
22.9870	1
25.0277	0
26.0160	2
27.0238	15
28.0266	1
29.0333	19
30.0331	0
31.0146	3
33.0699	0
35.1586	1
35.9748	0
37.0148	3
38.0138	6
39.0267	48
40.0368	6
41.0432	96
42.0313	4
43.0226	318
44.0264	3
45.0331	5
47.0380	0
48.6602	0
49.0020	1
49.2784	0
50.0129	14
51.0232	34
51.5439	1
52.0314	11
53.0398	46
53.7053	1
54.0446	3
55.0501	89
56.0701	4
56.3367	0
57.0699	52
57.4472	1
58.0168	1
59.0539	10
60.0446	0
60.9906	4
62.0126	9
63.0268	37
64.0312	7
64.3179	0
64.6145	0
65.0433	48
66.0451	9
67.0484	66
68.0532	5
69.0508	112
70.0423	6
71.0458	41
72.0918	1
73.0338	1
74.0205	13
74.4419	0
75.0350	16
76.0318	9
77.0403	111
77.4135	2
77.6084	1
78.0456	28
79.0478	88
79.6767	1
80.0566	11
80.5508	0
81.0620	63
81.5916	0
82.0477	5
82.4288	0
83.0662	101
84.0408	2
84.3013	0
85.0698	72
86.0317	7
86.5224	0
87.0455	42
88.0326	5
89.0476	25
90.0574	10
91.0658	218
91.4903	1
92.0738	15
92.5729	0
93.0752	77
94.0888	10
94.5638	1
95.0755	89
95.5216	1
95.7111	0
96.0695	7
97.0733	15
98.0427	10
98.6965	0
99.0493	9
100.0474	3
101.0330	9
102.0534	22
103.0691	58
104.0788	24
105.0851	217
106.0866	14
107.0864	93
108.0747	13
109.0846	58
110.0656	7
110.5979	0
111.0695	19
111.4893	0
112.0096	1
113.0608	11
113.5221	1
114.1056	9
115.0556	181
115.5010	1
116.0607	44
117.0606	96
118.0700	22
118.5996	2
119.0702	150
119.5195	1
120.0650	14
120.5339	0
121.0693	111
121.5808	1
122.0696	18
123.0591	39
123.6195	1
124.0703	4
124.3746	0
125.0665	46
126.0381	17
126.6007	2
127.0559	74
128.0451	202
129.0532	181
130.0625	54
131.0608	108
132.0397	24
133.0569	87
134.0504	15
134.5442	1
135.0479	50
136.0443	13
136.5643	1
137.0473	27
137.5955	1
138.0515	5
138.5505	2
139.0360	49
140.0479	16
141.0470	170
142.0582	102
143.0622	155
144.0658	42
145.0606	150
145.5842	1
146.0760	22
147.0658	67
148.0636	11
148.4686	1
149.0470	58
150.0662	21
151.0724	40
152.0655	112
153.0665	128
154.0782	57
155.0796	168
156.0903	65
157.1005	124
158.0848	37
159.0981	70
160.0840	13
161.0820	43
161.4747	1
162.0949	11
163.0833	51
163.5869	4
164.1091	22
165.0891	218
166.0896	75
167.1207	142
168.1204	52
169.1213	141
170.1231	37
171.1113	90
172.1130	31
173.1013	64
173.5658	1
174.0930	13
175.0983	37
176.0601	29
177.0938	46
178.0868	150
179.0962	207
180.0948	68
181.0955	142
182.1026	49
183.1060	105
183.4892	4
184.0957	24
185.0960	70
186.0870	17
187.0771	35
187.5473	3
188.0836	16
189.0605	106
190.0839	41
191.0807	131
192.0866	96
193.0888	157
194.0916	68
195.0963	132
196.1002	40
197.0960	90
198.0908	21
199.0891	51
200.0619	25
201.0988	51
202.0755	114
203.0802	110
204.0810	36
205.0911	111
206.0944	57
207.1054	115
208.1111	69
209.1043	104
210.1052	22
210.4273	3
211.1095	68
212.0866	12
213.0962	50
214.1323	24
215.1050	117
216.1101	45
217.1113	101
218.1261	53
219.1383	115
220.1321	53
221.1438	85
221.5229	5
222.1355	32
223.1407	64
224.0997	18
225.1437	41
226.1107	40
227.1234	54
228.1103	45
229.1333	105
230.1494	41
231.1439	84
232.1447	44
233.1503	99
234.1635	45
235.1552	97
236.1472	29
237.1601	56
238.1441	17
239.1314	71
240.1454	25
241.1480	60
242.1422	31
243.1396	83
244.1639	39
245.1547	83
246.1678	35
247.1623	72
248.1409	18
249.1580	58
250.1651	30
251.1800	55
252.1599	40
253.1651	59
254.1529	26
255.1569	51
256.1580	24
257.1697	60
257.6160	2
258.1891	26
259.1616	70
260.1713	29
261.1798	67
262.1827	21
263.1609	47
264.1437	12
265.1593	44
266.1515	28
267.1780	51
268.1856	23
269.1743	49
270.2017	20
271.1835	54
272.1936	22
273.1925	46
274.1925	15
275.1958	47
276.1698	25
277.2002	47
278.2072	15
279.1982	37
280.1598	20
281.1883	41
282.2141	17
283.2002	42
284.1702	18
285.2086	52
286.2117	20
287.1898	39
288.1845	18
289.2171	37
290.2151	12
291.2029	30
292.1851	16
293.2045	47
294.1901	17
295.1862	34
296.1767	15
297.1985	32
298.1939	16
299.1998	38
300.1749	14
300.5548	2
301.2302	49
302.1893	30
303.1888	48
304.1898	11
304.5374	3
305.1971	29
306.1942	14
307.2093	34
308.1785	16
309.2000	29
310.1428	11
311.1884	32
312.1689	12
313.1733	30
314.1973	13
315.1783	27
316.2488	10
317.1929	24
318.1715	11
319.2248	69
320.2186	16
321.1963	74
322.1682	11
323.1998	22
324.1571	8
325.1832	31
326.1946	10
327.1837	25
328.2104	7
329.1805	18
330.1971	7
331.1600	12
331.5572	1
332.2152	15
332.6593	3
333.2301	24
334.2318	7
335.2263	43
336.2239	19
337.2171	18
338.2628	7
339.2191	22
340.2308	7
341.1978	17
342.1382	7
342.6263	2
343.2145	15
344.1283	3
345.1422	12
346.2564	7
347.2050	12
348.2314	5
348.6035	2
349.2550	17
350.1681	8
351.2114	16
352.2205	9
353.2223	21
354.1509	4
355.2053	18
356.1522	4
357.2458	12
358.2543	8
359.2178	10
360.1810	4
360.6447	1
361.2267	9
362.2186	5
362.6286	2
363.2256	13
364.2224	4
365.2042	13
366.2132	7
367.2208	15
368.1491	6
369.2304	18
370.2414	4
371.2480	12
372.2638	5
373.2375	12
374.2596	3
374.6577	1
375.2758	6
376.2098	3
376.5017	1
377.2518	11
378.3088	3
378.6801	1
379.2657	12
380.2316	4
381.2321	11
382.1683	4
383.2350	15
384.2524	5
385.2519	13
386.2305	4
386.7761	1
387.2917	12
387.6350	2
388.2391	4
389.2811	12
390.2632	5
391.2289	9
392.1828	3
393.1938	8
394.1718	3
395.2310	9
396.1823	3
397.2957	11
397.7115	1
398.3313	4
399.2829	10
400.3037	4
401.2480	8
402.2825	14
403.2496	8
404.2603	9
405.2779	5
405.8368	2
406.3523	2
407.2679	12
408.3021	3
409.2839	14
410.2358	4
411.2538	9
411.8206	2
412.2944	4
413.2542	7
414.2125	6
415.2609	14
416.2734	11
417.2695	13
418.2042	3
418.7293	2
419.3311	3
420.2690	2
420.6186	1
421.3015	5
421.6812	2
422.1294	5
422.4143	2
423.3333	9
424.3724	3
425.2812	15
426.3010	4
427.2729	19
427.6703	2
428.3199	4
429.3579	5
430.1861	3
430.5597	1
431.2859	6
431.7631	1
432.3903	2
433.2112	4
433.6764	2
434.2662	5
435.2884	9
435.8063	1
436.2026	3
436.7340	1
437.2744	8
437.7789	2
438.3254	2
439.2953	10
440.3135	5
441.2806	11
442.3530	4
443.2392	15
444.1765	3
444.7428	1
445.3468	4
445.9868	2
446.3609	3
446.6990	2
447.2940	4
448.3444	5
449.3107	6
450.2229	6
451.2675	8
452.3453	5
453.2638	10
453.7990	1
454.2741	4
454.7658	2
455.1853	6
456.2484	7
456.6046	2
457.3629	5
458.3284	3
461.0243	14
461.8835	5
463.1844	7
464.3427	4
465.3509	8
466.2900	5
467.2533	12
468.3052	15
469.3062	16
470.2787	17
470.5898	3
471.2933	6
472.2719	4
472.6147	1
473.2927	3
474.2039	3
474.6940	1
475.3511	5
476.8098	7
478.3482	15
478.7227	5
479.2958	8
480.2614	7
481.3310	13
481.7342	6
482.6729	4
483.3198	10
484.2883	7
485.3429	19
486.3810	12
487.1894	2
487.6596	2
488.3854	4
489.5215	4
490.5524	2
491.3714	8
492.4942	3
493.3029	8
493.7718	2
495.3292	22
496.3275	51
497.2792	8
497.8235	4
498.8174	3
499.4128	6
500.2730	4
501.2776	6
501.9438	6
502.7906	3
503.6765	2
504.2691	2
505.3642	5
505.7659	3
506.4444	3
507.3952	6
507.8481	2
509.1420	11
510.2705	6
511.3407	27
512.3524	13
513.3145	7
513.8834	2
514.3593	6
514.7121	3
515.3801	3
516.1998	4
517.3439	3
517.9160	3
519.2644	11
519.9942	2
520.4327	2
521.2707	3
522.4932	4
523.4034	12
524.3452	7
525.3831	13
526.3580	15
527.2999	14
528.6566	10
529.5250	10
530.9359	12
531.7774	10
533.8152	20
535.1167	8
537.2210	80
538.2897	5
539.8772	10
541.3641	11
542.4091	9
552.2960	999
553.3866	51
555.3851	489
556.4907	14
570.3022	999
573.6411	42
574.8634	19
