Mass spectrum: Anhydrorhodovibrin; FAB-EBEB; MS2; m/z: 566.45; [M]*+
Name: Anhydrorhodovibrin
Class: Natural Product; Carotenoid
Formula: C41H58O
Exact mass: 566.44877
SMILES: C(=CC(C)=CC=CC(C)=CC=CC(=CC=CC=C(C=CC=C(C)C=CC=C(C)CCCC(C)(C)OC)C)C)C=C(C)C
InChI: InChI=1S/C41H58O/c1-34(2)20-14-23-37(5)26-17-29-38(6)27-15-24-35(3)21-12-13-22-36(4)25-16-28-39(7)30-18-31-40(8)32-19-33-41(9,10)42-11/h12-18,20-31H,19,32-33H2,1-11H3/b13-12+,23-14+,24-15+,25-16+,29-17+,30-18+,35-21+,36-22+,37-26+,38-27+,39-28+,40-31+
Instrument: JMS-HX/HX 110A, JEOL
Instrument type: FAB-EBEB
Ms type: MS2
Ion mode: POSITIVE
Collision energy: 3 kV
Ionization: FAB
Base peak: 566.3188
Precursor m/z: 566.45
Precursor type: [M]+*
m/z	relative intensity
1.8750	1
2.8835	0
8.8247	0
12.7857	1
13.9627	0
14.9757	3
22.9084	0
25.9518	1
26.9503	8
27.9600	0
28.9614	4
32.9240	0
36.9475	0
37.9640	0
38.9544	6
39.9463	2
40.9693	19
41.9689	1
42.9636	6
44.8278	0
44.9114	1
44.9864	0
48.9336	0
49.7995	1
49.9404	2
50.9432	1
52.9640	3
54.9819	4
56.0108	0
57.0354	1
58.9459	0
59.8862	0
61.7068	0
61.9421	1
62.9543	3
63.9329	1
64.7844	1
64.9579	5
65.9798	1
66.7577	0
66.9703	4
67.9046	1
68.7555	0
68.9923	28
71.0344	0
71.8924	0
72.1691	0
72.4701	0
72.9690	337
73.2990	0
73.9669	1
74.9397	1
75.7381	0
75.9538	1
76.6361	1
76.9373	13
77.1876	0
77.3238	1
77.9313	3
78.7779	0
78.9587	12
79.9528	3
80.7143	1
80.9767	17
81.9953	1
82.9659	3
84.6534	0
84.8401	0
84.9787	2
85.9265	0
86.9058	0
86.9913	0
87.6693	0
87.8772	1
88.5802	1
88.9099	4
89.1082	0
89.2314	1
89.6633	1
89.9619	1
90.1631	0
90.9230	32
91.1313	1
91.6189	1
91.7404	1
91.9581	5
92.2765	1
92.6793	2
92.9563	32
93.9833	3
94.4281	0
94.9640	7
95.9340	0
96.9842	1
97.7500	0
97.9790	0
98.6440	0
98.8741	0
99.0140	0
99.4757	0
100.9651	1
101.1043	1
101.1801	1
101.3231	1
101.5593	1
101.9313	4
102.3085	1
102.5309	1
102.7602	1
102.9575	7
103.2618	0
103.6399	1
103.7929	1
103.9453	9
104.4113	0
104.9591	74
105.1217	3
105.6359	1
105.9355	3
106.1942	0
106.6121	2
106.7084	0
106.9798	24
107.9792	1
108.9721	5
109.5710	0
109.9305	0
110.9455	1
111.0499	0
112.2503	1
112.6924	0
112.8316	1
112.9194	0
113.0644	1
113.2238	0
113.4166	0
113.5045	1
113.8682	2
114.0008	1
114.1410	1
114.2673	0
114.4730	1
114.9021	29
115.2118	1
115.3472	0
115.6168	1
115.9067	9
116.9115	31
117.2064	1
117.9558	7
118.4579	0
118.9402	70
119.9774	6
120.3167	1
120.4473	1
120.7126	1
120.9748	14
121.2123	0
121.7282	0
121.8756	1
122.0047	1
122.2909	1
122.7993	1
122.9813	4
123.2271	0
123.9331	2
124.9199	2
125.1440	1
125.6856	1
125.9239	1
126.1093	0
126.8954	10
127.0669	1
127.1795	1
127.3441	1
127.5137	1
127.9019	36
128.2127	1
128.8950	50
129.3814	0
129.5560	1
129.6967	3
129.9189	18
130.1559	0
130.5595	0
130.9240	54
131.3428	0
131.9401	14
132.3600	0
132.9425	43
133.1798	0
133.4126	1
133.5390	1
133.9093	3
134.9703	7
135.5531	0
135.9084	2
136.9595	1
137.5863	0
137.8146	0
137.9249	1
138.4466	0
138.9049	6
139.4044	1
139.8509	2
140.0401	2
140.1044	1
140.2371	1
140.3509	1
140.5584	2
140.9091	28
141.1935	1
141.3947	1
141.5535	1
141.9066	34
142.0961	0
142.1952	1
142.3744	1
142.9142	62
143.2461	1
143.3564	1
143.6461	1
143.9313	17
144.1232	0
144.4203	0
144.5157	0
144.9331	77
145.2475	1
145.4030	0
145.6567	1
145.9065	4
146.6013	0
146.7558	0
146.9725	9
147.1362	1
147.5390	0
147.8285	1
148.0081	1
148.4689	0
148.5869	0
148.7181	1
148.9371	2
149.5315	1
149.7232	0
149.9103	2
150.8745	7
151.1604	0
151.5508	1
151.7494	3
151.9105	11
152.1092	1
152.2033	1
152.3289	1
152.4882	1
152.6474	2
152.9212	16
153.3789	1
153.6384	1
153.9230	11
154.1490	1
154.5385	1
154.9341	39
155.5509	1
155.9508	29
156.3832	1
156.5602	2
156.6969	5
156.9717	58
157.4646	1
157.9141	8
158.4934	1
158.5867	0
158.7051	1
158.9916	23
159.4509	0
159.6111	1
160.0018	1
160.8134	1
161.0109	3
161.3257	0
161.7521	1
161.9617	1
162.1607	1
162.5529	1
162.7208	1
162.9451	3
163.0553	2
163.2240	1
163.4551	1
163.6729	1
163.7513	1
163.9904	3
164.0874	2
164.2296	1
164.5858	1
164.9435	37
165.2780	0
165.7236	0
165.9698	17
166.1441	1
166.4037	0
166.5854	2
166.9529	23
167.3052	1
167.9732	9
168.2934	1
168.9620	35
169.3257	0
169.4666	1
169.5737	1
169.6967	2
169.9748	13
170.1870	1
170.5510	1
170.7021	2
170.9977	25
171.2606	1
171.4218	0
171.5430	0
171.7108	0
172.0186	6
172.4177	1
172.6583	0
173.0023	14
173.3263	1
173.4817	1
173.9299	1
174.0440	1
174.4970	1
174.9790	4
175.1025	1
175.5478	1
175.6467	0
175.7963	2
175.8932	2
175.9840	1
176.3715	1
176.4530	0
176.7043	1
176.9022	2
177.0693	1
177.2979	1
177.4263	1
177.9353	13
178.1058	1
178.4946	2
178.9369	31
179.4852	1
179.7102	1
179.9647	12
180.2862	0
180.4310	0
180.6480	1
180.9664	38
181.6857	2
181.9693	12
182.2014	1
182.3999	1
182.6582	1
182.9836	36
183.2776	1
183.5253	1
183.6824	2
184.0026	8
184.4264	1
184.6984	1
185.0008	14
185.2151	0
185.7978	1
186.0089	5
186.7170	0
186.9733	3
187.0957	2
187.3951	0
187.9072	2
188.0109	1
188.1226	1
188.3259	1
188.9205	9
189.2357	1
189.6615	1
189.8960	3
190.0415	2
190.2430	1
190.4722	1
190.5713	1
190.9232	10
191.2442	0
191.6448	1
191.9382	8
192.2249	1
192.4341	1
192.6541	3
192.9552	22
193.3595	1
193.5439	1
193.9626	15
194.2375	1
194.5570	1
194.9584	25
195.9175	9
196.5511	1
196.7121	1
196.9908	33
197.3555	1
197.5666	1
197.9964	9
198.4872	1
198.7187	0
198.9977	13
199.3783	1
199.6324	1
199.8261	1
200.0396	2
200.1554	2
200.5044	1
200.9471	3
201.5023	1
201.9411	8
202.4763	0
202.6744	2
202.9323	10
203.1637	0
203.6151	2
203.9830	4
204.4902	1
204.5894	0
204.9548	10
205.5656	1
205.7735	2
205.9740	8
206.2689	1
206.4735	1
206.5612	1
206.7434	3
206.9739	20
207.8403	2
207.9764	8
208.2335	1
208.4064	1
208.9841	26
209.5028	0
209.7206	0
210.0059	5
210.3123	0
210.5058	0
210.9996	11
211.2571	0
211.5542	0
211.8561	1
212.0449	1
212.3366	1
212.6577	0
212.7606	1
213.0122	4
213.7733	1
213.9418	2
214.0250	2
214.2460	1
214.4644	0
214.6814	1
214.7973	1
214.9837	8
215.2396	1
215.4471	1
215.5652	0
215.9612	5
216.7287	2
216.9514	5
217.1044	2
217.5758	1
217.7445	0
218.0104	3
218.4314	1
218.6104	2
218.9980	14
219.4534	0
219.6339	1
219.9841	7
220.2522	0
220.5874	0
220.7509	0
221.0048	15
221.7254	1
221.8027	0
222.0286	6
222.1224	4
222.6324	1
223.0276	10
223.5392	1
223.6282	1
223.7741	1
224.0495	2
224.1667	2
224.6710	1
225.0657	5
225.4297	1
225.6093	0
225.9720	4
226.1187	1
226.2360	1
226.6138	1
227.1022	3
227.4438	1
227.5968	1
227.8047	1
227.9742	3
228.1190	1
228.5157	1
228.9695	5
229.8477	1
229.9998	4
230.1059	1
230.6647	1
230.9839	7
231.6306	1
231.8499	2
232.0129	3
232.2960	1
232.6640	1
232.7689	1
233.0259	10
233.4441	1
234.0304	3
234.3465	1
234.6175	0
234.8136	2
235.0599	9
235.6905	0
235.8483	2
236.0068	2
236.1098	2
236.3060	0
236.4268	0
236.5881	0
236.8723	1
237.0584	5
237.9572	1
238.3645	1
238.6172	0
238.9738	3
239.1565	0
239.3077	1
239.9969	1
240.0890	1
240.3495	1
240.5419	0
241.0238	3
241.1971	1
241.3318	0
242.0154	5
242.9894	6
243.1449	2
243.4586	1
243.6292	1
243.9726	2
244.1055	1
244.3498	1
244.5170	1
245.0030	6
246.0317	3
246.6282	2
247.0181	5
247.3501	1
248.0261	3
248.4754	0
249.0214	6
249.4412	1
249.7990	1
249.9763	2
250.1624	1
250.9804	2
251.1432	1
251.6944	1
251.9794	3
252.1070	1
252.5439	1
252.9297	2
253.0629	3
253.8899	1
254.0949	1
254.2599	1
254.7384	2
254.8365	1
255.0119	2
255.8918	1
256.0824	3
256.2986	1
256.9861	3
257.8250	0
258.0759	2
259.0327	4
259.1240	1
260.0112	1
260.1779	1
260.5016	0
260.6593	1
261.0418	7
261.3587	1
261.5718	1
261.9987	1
262.1620	1
262.4250	1
262.8133	1
263.0563	3
263.2169	1
263.7832	1
263.9459	1
264.1169	1
264.6390	0
265.0865	5
265.9967	2
267.1053	4
267.9135	1
268.0230	2
268.6004	1
268.8466	1
269.0483	4
269.1676	3
269.7980	1
270.0560	3
270.9855	4
271.1201	1
271.7209	1
272.0688	2
272.9994	2
273.1227	2
273.7010	1
273.8763	1
274.0238	2
274.6535	1
275.0526	4
275.2494	2
275.8703	2
276.0893	2
276.6466	1
277.0806	4
278.0076	3
278.0950	1
278.8856	1
279.0111	3
279.1616	1
279.3163	1
279.4890	1
279.7332	0
280.0593	2
280.2626	0
281.0377	3
281.1688	1
281.2826	1
281.8156	2
282.0156	0
282.1440	1
283.0298	2
283.1423	1
283.3457	0
284.0061	1
284.1332	1
284.3811	1
284.9979	3
285.1570	1
285.5669	1
285.8837	2
286.0720	1
286.5507	1
286.7738	1
286.9225	1
287.1074	2
287.2617	0
287.5772	1
287.9338	2
288.0379	0
288.6136	1
289.0455	3
289.6316	1
290.0143	1
291.1585	1
292.0236	1
292.6130	1
293.1120	2
293.2316	1
293.9998	1
294.2779	1
295.0497	1
295.2298	1
295.3953	0
296.0686	1
296.9562	1
297.1364	1
297.2895	1
297.5872	1
297.7424	1
297.9790	2
298.1745	2
298.6645	0
299.0215	4
299.9480	1
300.1304	1
300.6254	1
300.9011	0
301.1128	2
301.5515	1
301.8691	1
302.0223	2
302.1393	2
302.6296	0
303.0288	4
303.1180	2
304.0264	2
304.2041	1
304.9065	1
305.0961	1
305.2919	0
305.6244	1
306.1332	1
306.6476	1
306.7368	0
306.9537	2
307.0952	1
307.1935	1
307.9689	1
309.0401	1
309.9727	1
310.4694	0
311.0520	3
311.1720	1
312.0163	1
312.5279	0
312.8462	1
312.9537	1
313.0416	1
313.9219	1
314.0099	1
314.5314	0
314.9874	1
315.7863	2
316.0237	0
316.1606	1
316.3534	1
317.1364	2
317.9734	1
318.1138	1
318.8503	1
319.0683	2
319.1682	1
320.1223	1
320.8227	1
321.0569	1
322.0839	2
322.3720	1
322.9286	1
323.1286	0
323.5398	1
323.8896	1
325.8399	1
325.9372	1
326.6586	1
327.0540	2
327.4928	1
328.1221	2
329.0433	1
330.9310	1
331.0179	1
331.1495	3
331.2565	1
332.1019	1
332.2859	1
333.2546	2
334.9005	1
335.0034	1
335.1637	3
335.8584	0
336.0523	2
337.1568	0
337.9827	1
338.1473	1
338.8241	2
339.0588	2
339.9017	1
340.1042	1
340.9515	2
341.2248	1
341.9124	1
342.0744	1
342.8623	1
343.0124	1
343.4099	1
343.6069	1
344.0704	1
344.3032	1
345.1531	1
345.9962	1
346.1947	2
346.8204	1
347.0786	2
347.5956	1
347.9829	1
349.0487	1
350.0979	1
350.5338	1
351.1108	0
351.9995	1
353.0450	1
353.2514	1
354.2149	1
354.4073	1
354.7528	1
354.8708	1
355.0717	1
355.2796	1
356.1830	1
356.3291	1
357.0976	2
357.2023	2
358.0223	1
359.2057	1
359.9771	1
360.2326	1
361.1608	0
361.2903	1
362.0948	1
363.0359	0
363.8252	0
364.2111	1
364.9122	1
365.1188	2
365.2435	1
366.8065	1
367.2661	1
367.3698	1
367.9963	1
369.0250	1
369.1323	1
369.3005	1
369.5339	0
369.7210	1
370.0568	1
370.1913	2
370.9842	1
371.1194	2
372.0056	0
372.3458	1
373.0895	1
375.1486	1
376.1235	1
377.0873	1
377.8821	1
378.1538	0
379.1277	0
380.0505	2
380.2640	1
381.0219	1
381.1567	1
383.6920	1
383.8705	1
384.0237	2
384.1720	2
384.2703	1
384.4165	1
385.1058	1
385.2330	1
386.1846	1
387.0294	2
387.1939	1
388.0107	1
388.6139	0
389.7796	1
390.0208	1
392.1185	0
392.9661	1
393.2474	1
393.3515	1
393.9713	1
394.8274	1
395.0955	3
396.0305	1
396.1664	1
397.0016	1
397.1205	1
397.9306	1
398.1839	0
398.9877	1
399.2193	2
400.1140	1
400.3307	0
401.0883	1
401.1749	1
401.3016	1
401.5241	0
403.2027	1
404.0524	1
404.4622	1
405.5953	1
406.0873	1
407.2846	1
407.7072	0
408.0862	2
408.2352	4
408.3780	3
408.9110	2
409.0320	1
409.1543	1
409.2788	1
409.8667	0
410.1220	2
410.2662	1
410.9723	2
411.1263	2
411.5512	0
412.2159	2
412.8005	1
413.2620	1
413.4154	1
413.5068	1
414.8788	1
416.5691	1
417.0195	1
417.1265	1
417.2271	1
417.8718	0
418.2012	1
418.3568	1
418.9129	1
421.3623	1
421.4544	1
421.9542	1
422.1405	1
422.3093	1
422.7719	1
422.8936	1
422.9969	2
423.1312	4
423.2458	3
424.2085	7
425.2303	0
425.3899	0
426.1200	1
426.6707	1
428.3132	1
429.4845	0
429.9953	0
431.1971	1
432.3533	1
432.7228	0
434.3556	1
434.7646	1
435.2242	1
436.9807	1
437.1384	2
437.3975	1
438.0037	1
438.3670	0
439.2155	1
440.0190	0
441.2529	1
441.5733	1
441.7255	0
442.0706	1
442.2185	3
443.3357	3
443.4871	0
443.9978	1
446.3503	1
447.2388	1
448.0288	1
450.0331	1
450.1755	1
451.0255	2
451.1933	2
451.3336	1
451.6881	2
451.9842	1
452.4213	1
452.5108	1
453.2236	1
453.3314	1
453.6861	1
455.8795	1
457.0492	0
457.7357	0
458.4998	1
458.8649	1
460.0581	1
460.1594	1
460.3199	3
462.0804	0
462.2366	1
463.0586	1
463.5364	1
464.9082	2
465.1489	1
465.2615	2
465.9295	1
466.0907	1
466.2294	1
466.3575	3
467.0551	1
467.3649	1
468.2209	1
468.5983	1
469.2777	1
470.4649	1
472.1317	2
472.2500	2
473.0282	1
473.1663	1
473.3811	1
473.5057	1
473.7015	1
473.9044	2
474.2580	32
474.7144	3
474.8236	2
475.4533	0
475.9830	1
476.1197	1
476.2648	1
476.8044	1
476.8939	1
477.0742	1
477.2271	1
477.3913	1
477.4659	0
477.9020	2
478.1409	5
478.2755	3
478.6538	1
479.1223	1
479.2626	1
479.4281	1
479.7206	1
479.9637	2
480.1433	1
480.7557	0
481.0967	1
481.3166	1
481.9452	1
482.0876	1
482.2793	2
482.4167	1
482.7570	0
483.0789	1
483.2487	1
484.3284	1
485.0392	1
486.9271	1
487.2462	1
487.4104	1
488.2925	0
488.7956	0
489.4487	0
489.9398	1
490.2499	1
490.3929	1
490.6283	1
491.1322	1
491.5035	1
491.9250	1
492.1709	3
492.5459	1
492.7249	2
493.2499	39
493.6355	2
494.1620	1
494.8330	1
495.0106	2
495.3448	1
495.6028	1
495.7769	1
495.9059	1
496.1462	1
496.3218	2
497.2432	11
498.3867	2
499.9653	0
500.2770	1
501.1337	1
501.3989	0
502.9553	1
503.5498	1
503.8700	1
504.0407	1
504.8080	1
506.0735	1
506.2117	1
506.4692	1
506.7824	1
506.9735	1
507.1506	0
507.5252	1
508.4409	0
509.4645	1
510.2493	1
510.4619	2
510.5618	1
511.2981	3
512.2977	1
513.0614	0
516.2169	1
517.0203	1
518.1343	1
518.4040	1
519.3624	1
519.9532	1
520.8646	1
521.1794	1
521.8541	0
522.2444	1
522.4796	1
522.6240	1
522.8663	1
523.0713	0
523.3256	0
524.0152	1
524.2188	1
524.3857	0
525.2508	1
525.9947	1
526.4294	1
526.6238	2
527.2206	1
527.3911	1
528.1668	1
528.4282	1
528.7756	1
529.4252	0
529.7141	1
530.0037	1
530.3025	2
530.6978	1
531.3137	1
531.4857	1
532.3363	1
533.3215	1
533.6084	0
533.8536	1
534.0362	1
534.3012	5
534.5056	2
534.9525	1
535.0977	3
535.2823	6
535.4734	4
535.7990	1
536.2783	11
537.1637	1
537.4534	1
537.7601	1
538.2754	1
538.9324	1
539.8229	1
540.3777	1
541.2407	1
541.7808	1
543.1650	1
543.6043	1
543.9816	2
544.2073	1
544.6106	1
544.7820	1
545.0013	1
545.1437	3
545.3539	1
545.5937	2
545.7601	1
545.9802	1
546.1692	2
546.4809	1
546.6501	3
546.9330	1
547.1587	1
547.2483	1
547.5374	2
548.0424	9
548.2710	6
548.4543	3
549.0003	3
549.3636	1
549.4447	1
549.6379	4
549.7106	1
549.8404	2
550.0069	1
550.2911	2
550.5726	4
550.7666	2
551.1518	5
551.4516	3
551.8248	2
552.1218	1
552.3290	3
552.4761	3
552.6415	2
552.9440	2
553.1896	1
553.4831	1
553.6991	1
554.0165	2
554.1248	0
554.2853	0
554.5358	1
554.8004	0
555.2029	2
555.3071	1
555.4598	1
555.5970	1
555.8321	1
555.9714	2
556.1059	2
556.1924	1
556.4803	4
556.7386	2
556.9948	2
557.1313	2
557.3298	1
557.5930	3
557.7887	2
557.9083	2
558.1357	2
558.2856	1
558.4088	1
558.6072	6
558.9106	3
559.2119	2
559.4406	0
559.5976	3
559.8172	4
559.9045	2
560.1143	2
560.2867	2
560.6211	4
560.9006	2
561.0371	1
561.3180	3
561.5081	4
561.7819	3
561.9945	6
562.3423	7
562.5696	4
562.8041	9
562.9329	7
563.2054	12
566.3188	999
566.8201	96
567.5686	48
568.2355	28
568.7087	20
569.2347	12
569.8312	9
570.6749	6
570.9088	5
571.2531	5
571.6602	2
571.8342	1
572.0574	1
572.2645	2
572.3772	1
572.4828	0
572.6399	1
572.7843	3
572.9019	1
573.0125	1
573.2175	2
573.5689	1
573.7943	1
573.9316	2
