Mass spectrum: Ubiquinone 30; FAB-EBEB; MS2; m/z: 597.45; [M+Li]*+
Name: Ubiquinone 30
Class: Natural Product; Lipid
Formula: C39H58O4
Exact mass: 590.43351
SMILES: c(C)(c1=O)c(CC=C(C)CCC=C(C)CCC=C(CCC=C(CCC=C(C)CCC=C(C)C)C)C)c(=O)c(OC)c(OC)1
InChI: InChI=1S/C39H58O4/c1-28(2)16-11-17-29(3)18-12-19-30(4)20-13-21-31(5)22-14-23-32(6)24-15-25-33(7)26-27-35-34(8)36(40)38(42-9)39(43-10)37(35)41/h16,18,20,22,24,26H,11-15,17,19,21,23,25,27H2,1-10H3/b29-18+,30-20+,31-22+,32-24+,33-26+
Instrument: JMS-HX/HX 110A, JEOL
Instrument type: FAB-EBEB
Ms type: MS2
Ion mode: POSITIVE
Collision energy: 3 kV
Ionization: FAB
Base peak: 597.5869
Precursor m/z: 597.45
Precursor type: [M+Li]+*
m/z	relative intensity
0.3859	0
2.8607	0
6.0255	1
7.0255	20
7.8655	0
14.0542	0
15.0052	0
16.9790	0
22.0600	0
25.0262	0
26.0379	0
27.0410	2
28.0389	0
29.0551	1
31.8055	0
35.0267	1
35.7581	0
36.0407	0
37.0403	2
37.6589	0
38.0415	1
39.0442	4
40.0501	1
41.0594	15
42.0600	0
43.0661	2
44.0709	0
45.0739	0
46.0614	0
47.0201	0
48.0181	0
49.0388	0
50.0473	1
51.0374	2
52.0403	1
53.0502	6
54.0431	1
55.0688	8
56.0411	0
57.0763	1
58.0329	0
59.0355	1
60.0637	1
61.0364	0
62.0416	1
63.0593	1
64.0689	0
64.7023	0
65.0540	2
66.0682	1
66.3261	0
67.0726	9
68.0657	6
69.0842	54
70.0810	1
71.0225	0
72.0648	0
73.0813	1
74.0727	3
75.0818	7
75.5186	0
76.0967	7
77.0705	6
77.5480	0
78.0630	1
79.0795	7
79.4599	0
80.0701	1
81.0888	14
82.0984	1
83.0617	1
84.0823	0
85.0803	0
86.1091	1
87.0304	0
88.0805	2
88.6066	0
89.0632	2
89.4214	0
89.6920	0
90.0902	1
90.5131	0
91.0980	9
91.7137	0
92.0769	1
92.6272	0
93.1018	6
94.0811	1
95.1171	5
96.1203	0
97.1216	0
97.4407	0
98.0961	0
99.0822	1
100.0994	1
101.0951	3
102.0816	1
102.4067	0
103.0896	2
103.6019	0
104.1162	0
105.1113	4
106.1390	0
107.1013	6
108.1013	0
108.3270	0
109.1337	1
109.7911	0
110.1159	0
111.0956	0
112.1220	1
113.0965	1
113.5532	0
114.1135	3
115.0841	2
115.5039	0
116.0646	2
117.0893	3
117.5190	0
118.0971	1
119.1035	3
120.0758	1
120.5317	0
121.1281	2
122.1018	1
123.1514	0
124.1121	0
125.0711	0
125.5763	0
126.0804	1
127.0795	3
128.0785	3
129.0730	5
130.0528	1
130.4787	0
131.0658	5
132.0815	1
132.3632	0
133.0592	5
134.0817	1
135.1332	2
136.1188	1
136.5479	0
137.1249	1
137.5212	0
138.1636	0
138.3964	0
138.6673	0
139.0760	2
140.0759	1
140.5601	0
141.0827	5
142.1025	8
142.4980	0
143.0777	6
144.0951	7
145.0753	8
146.0890	3
147.0712	2
148.0633	1
149.1215	1
150.1170	0
151.0631	1
151.6463	0
152.1377	2
153.0975	4
154.1162	3
154.6266	0
155.1015	6
156.0714	2
157.0853	6
158.1032	5
159.1070	26
160.1221	3
160.4827	0
161.1097	6
162.0487	2
163.1398	1
163.6483	0
164.1359	1
164.5667	0
165.1373	2
166.1621	3
167.1410	6
168.1418	3
168.5785	0
169.1313	13
170.1604	5
171.1494	7
172.1256	5
173.1251	17
174.1223	11
175.1187	12
176.1189	4
177.1378	2
177.4837	0
178.1424	1
179.1265	3
180.1295	10
181.1361	15
182.1495	8
183.1105	22
184.1100	7
185.0996	17
186.0791	13
187.1049	37
188.1039	40
189.1127	31
190.1115	5
191.1200	3
191.6656	0
192.1413	1
192.4402	0
193.1251	3
194.1079	3
195.1005	14
195.4824	1
196.1196	7
197.1225	26
198.1152	12
199.0993	29
200.1300	8
201.1090	32
202.1101	78
203.1132	31
204.0816	3
204.5713	0
205.0811	1
205.3806	0
206.1150	1
207.1356	4
208.1137	8
209.1276	22
210.1298	22
211.1124	47
212.1186	20
213.1238	30
214.1325	4
215.1154	7
215.6990	1
216.1421	1
217.1384	6
217.5556	0
218.1536	2
218.4257	1
219.1214	3
220.0556	1
220.4022	1
221.1078	3
222.1435	4
223.1518	11
223.6584	1
224.1605	8
225.1479	42
226.1652	37
227.1581	37
228.1468	4
228.6281	0
229.1779	3
229.6221	0
230.2606	0
231.1697	2
231.5770	0
232.2393	1
233.3136	2
235.1961	4
235.4292	2
236.9338	5
238.2044	5
239.1706	18
240.1854	22
241.1835	451
242.1788	11
243.2072	7
244.1596	0
244.5447	0
245.2480	1
246.1371	1
246.6255	0
247.1810	2
248.2160	1
248.5407	0
249.2138	3
249.5512	1
250.1604	1
250.4385	0
251.2042	5
252.2171	2
252.6611	0
253.2007	5
254.1814	4
254.5084	1
255.1984	46
256.2127	87
257.1975	13
257.7707	1
258.2469	2
259.1984	1
259.5598	0
260.3313	0
261.2814	2
262.2725	1
263.2169	3
263.6884	0
264.2885	2
265.2476	2
266.2039	1
266.6680	0
267.2404	4
268.2301	0
268.6129	0
269.2452	3
270.1948	1
270.6720	0
271.2937	1
271.8998	0
272.2642	0
273.3073	1
273.7063	0
274.2814	0
275.1726	2
275.5341	0
275.6961	0
276.2432	1
277.2697	4
277.6877	0
278.2707	2
278.6808	0
279.2687	4
279.7577	0
280.1948	1
281.2311	4
281.7927	0
282.2457	0
282.7445	0
283.2260	1
283.9279	0
284.5670	0
285.2581	1
286.3147	0
286.9054	1
287.2377	0
287.9278	0
288.2665	0
289.1285	0
289.5131	0
289.7479	0
290.2413	0
290.7695	0
291.2946	3
292.2849	1
293.2724	9
294.3234	3
295.2878	3
296.2965	1
297.2645	1
297.6887	0
298.2738	0
298.5876	0
298.9204	0
299.9521	0
300.2677	0
300.7915	0
301.9736	1
302.4172	0
302.7961	1
304.0482	1
305.2501	1
306.2501	1
307.2629	4
308.3471	2
309.2687	45
310.1826	2
310.4926	1
311.2549	1
312.3115	0
312.9618	0
313.3051	0
313.8811	0
315.1330	0
315.5842	0
315.8628	0
316.4122	0
317.3401	1
317.7946	0
318.2460	0
319.2662	1
319.9237	0
320.0885	0
320.3832	0
320.7968	0
321.2485	1
322.2629	2
323.2585	21
324.2590	25
325.2407	2
326.2210	1
327.3030	0
329.2662	0
329.7233	0
329.9472	0
330.3377	0
331.3142	1
332.5338	0
333.2676	1
333.7251	0
334.3002	0
334.8230	0
335.2504	0
335.8590	0
336.1133	0
336.3247	0
336.5742	0
337.2688	4
338.2612	1
339.1247	0
339.4041	0
339.7216	0
340.2042	0
340.5423	0
341.5983	0
342.2208	0
343.2897	1
344.3907	0
345.3599	2
346.0241	0
346.3563	0
347.3671	2
348.2001	0
348.5213	0
349.3274	3
349.7169	0
350.3960	0
351.3311	0
352.4335	0
352.9792	0
353.2529	0
353.6029	0
354.7502	0
356.2272	0
356.6555	0
357.4658	0
358.2523	0
359.3192	2
360.3195	1
361.3580	18
362.3012	1
363.3640	2
363.7018	0
364.3887	0
365.3304	1
367.1324	0
368.7388	0
369.6800	0
370.2693	0
370.6276	0
371.0975	0
371.4320	1
371.7347	0
372.2604	0
372.8913	0
373.4394	1
374.2346	0
374.7844	0
375.3597	3
376.5058	1
377.3906	17
378.3153	2
378.7777	0
379.4172	0
380.3380	0
380.9752	0
381.7032	0
383.5322	0
385.2835	1
386.0151	0
387.4274	1
387.9232	0
388.4877	0
389.4651	1
390.3693	1
391.3486	28
392.3519	12
393.2979	2
393.6776	0
393.9967	0
394.4147	0
395.2110	0
395.6211	0
397.4661	0
398.0663	0
398.9714	0
399.4392	1
400.3781	0
400.6447	0
401.4735	1
402.4285	0
402.8358	0
403.0945	0
403.5019	0
404.3916	0
405.3502	5
406.4654	1
407.3651	1
407.9627	0
409.5946	0
410.3027	0
411.0317	0
411.4234	0
412.4782	1
413.4630	2
413.8317	0
414.3680	0
415.5191	1
416.1992	0
416.6926	0
417.4207	1
418.4715	0
419.2733	1
419.5863	0
420.2875	0
420.5894	0
420.9057	0
421.5415	0
422.2157	0
422.5385	0
423.7049	0
423.9030	0
425.2965	0
425.7249	0
426.2139	0
427.0771	0
427.4239	0
428.1017	0
428.4342	1
429.4030	13
430.2509	0
430.6023	0
431.3737	1
431.8385	0
432.5589	0
432.7729	0
433.3065	1
433.6180	0
434.3545	0
437.2338	0
437.8123	0
438.3525	0
438.8448	0
439.3563	0
440.7805	0
441.0683	0
441.4936	1
442.5903	0
443.3786	4
444.5796	1
445.4175	17
446.2700	1
447.2457	0
447.5736	0
448.3207	0
448.8598	0
449.2086	0
449.5797	0
450.0485	0
450.9062	0
451.1958	0
451.5366	0
453.3450	0
454.8127	0
455.4930	1
457.4652	1
458.5156	1
459.4138	34
460.4323	10
461.4092	2
462.4455	0
462.8043	0
463.3441	0
463.6628	0
463.8566	0
464.3292	0
464.8210	0
465.4657	0
467.0731	0
467.5210	1
468.1416	0
469.5078	0
470.1429	0
470.3525	0
471.4310	1
471.9206	0
472.6391	0
473.4488	8
474.4139	2
475.3838	1
475.6223	0
476.4162	0
476.6979	0
477.0149	0
477.5304	0
477.9674	1
478.3212	0
478.6702	0
479.0961	0
479.5508	1
480.2361	0
480.8205	0
481.4146	1
481.7990	0
482.2553	0
482.6013	0
483.6310	2
484.1980	0
484.6769	0
485.4794	2
486.0160	0
486.4565	0
487.4113	2
487.9705	0
488.3614	0
489.0391	0
489.7505	0
490.5421	0
490.9203	0
491.2824	0
492.1318	0
492.4250	0
492.6927	0
493.1012	0
493.4868	0
493.9251	0
494.4258	0
494.8274	0
495.1889	1
495.5585	1
496.0337	0
496.5841	1
497.4898	7
498.4803	1
499.4629	2
500.3623	0
500.9369	0
501.2842	0
502.0397	0
502.4047	0
503.0146	1
504.2664	0
504.5786	0
505.1469	0
505.9522	0
506.2516	0
506.8729	0
507.5102	0
507.8608	0
508.4005	0
508.8344	0
509.4798	1
509.9442	0
510.5112	0
511.5443	14
512.4844	1
513.4936	21
514.2545	1
515.5585	1
516.3820	1
517.3290	1
517.7039	1
518.2503	0
519.1845	0
519.5435	0
519.8431	0
520.5565	0
521.0075	1
521.3002	0
521.9575	0
522.4853	0
522.9619	0
523.5793	1
524.2064	0
524.7806	0
525.7437	0
526.4924	1
527.5195	33
528.5018	9
529.4379	2
529.8715	0
530.0844	0
530.4588	1
530.8124	0
531.0989	0
531.4189	0
531.9214	0
532.1503	0
533.2610	0
533.6130	0
533.9988	0
534.3269	0
535.4714	1
535.7499	1
536.4830	0
537.0529	0
537.4707	1
537.7717	0
538.2728	0
538.6186	0
539.5904	3
540.3221	1
541.4845	7
542.5157	4
543.5438	2
544.6873	0
545.1213	0
545.5938	0
545.9012	1
546.2776	1
546.9407	0
547.3156	0
547.8265	0
548.4304	0
549.6142	2
550.1653	1
550.5402	1
551.5719	7
553.4625	2
553.8775	1
555.4238	6
556.4622	1
557.7299	1
558.8550	2
559.8567	2
561.6055	2
563.8065	2
565.6930	14
566.6758	8
567.6346	39
569.5445	4
570.8685	0
571.6306	0
572.2887	0
572.9484	1
574.1349	2
574.7755	2
575.8035	2
576.8765	3
579.7291	11
581.6304	57
582.6749	116
583.6329	9
597.5869	999
598.9595	46
600.2889	15
601.1674	8
602.4233	5
603.3034	3
