Mass spectrum: beta-Carotene-3,4,3'4'-tetrol; FAB-EBEB; MS2; m/z: 600.42; [M]+*
Name: beta-Carotene-3,4,3'4'-tetrol
Formula: C40H56O4
Exact mass: 600.41786
SMILES: C(O)(C2O)C(=C(C(C2)(C)C)C=CC(C)=CC=CC(C)=CC=CC=C(C)C=CC=C(C)C=CC(C1(C)C)=C(C(O)C(C1)O)C)C
InChI: InChI=1S/C40H56O4/c1-27(17-13-19-29(3)21-23-33-31(5)37(43)35(41)25-39(33,7)8)15-11-12-16-28(2)18-14-20-30(4)22-24-34-32(6)38(44)36(42)26-40(34,9)10/h11-24,35-38,41-44H,25-26H2,1-10H3/b12-11+,17-13+,18-14+,23-21+,24-22+,27-15+,28-16+,29-19+,30-20+/t35-,36-,37+,38+/m0/s1
Instrument: JMS-HX/HX 110A, JEOL
Instrument type: FAB-EBEB
Ms type: MS2
Ion mode: POSITIVE
Collision energy: 3 kV
Ionization: FAB
Base peak: 104.9902
Precursor m/z: 600.42
Precursor type: [M]+*
m/z	relative intensity
0.0008	1
0.0143	1
0.7239	1
1.1940	1
1.5362	1
3.1679	1
3.7949	1
5.2452	1
5.6652	1
5.9170	1
6.4377	1
7.2236	1
7.6279	1
9.2470	1
10.7292	1
12.0705	1
13.0950	1
14.7909	1
15.2776	1
16.0066	3
16.0953	1
18.9662	4
22.9529	9
24.9695	1
25.9617	9
26.1881	1
26.9717	83
28.0013	4
28.2047	1
28.9759	76
29.1431	1
30.5220	1
30.9603	47
35.9799	8
36.5217	1
36.9787	12
37.9558	23
38.0243	11
38.9610	156
39.9562	36
40.9827	414
41.9660	17
42.9664	463
43.9465	15
44.9621	52
46.9470	20
48.4136	1
48.9237	5
49.0021	1
49.3132	1
49.9529	49
50.9626	130
51.9575	53
52.9731	215
53.8895	17
54.0026	11
54.9771	507
55.2767	1
55.7050	3
56.0100	9
56.1843	1
56.9855	132
57.2750	1
58.0212	7
59.0070	65
59.9407	15
60.9259	5
61.9655	30
62.9610	86
63.0997	10
63.5901	1
63.9410	17
64.0047	11
64.2157	1
64.4404	10
64.9782	138
65.1957	4
65.3794	9
65.8880	19
66.0023	37
66.3242	9
66.9871	299
67.9821	10
68.9842	396
69.9890	7
70.1391	1
70.9656	90
71.9723	7
72.8636	9
72.9937	25
73.9642	47
74.9502	40
75.1134	8
75.2368	8
75.3756	9
75.7280	7
75.8551	9
75.9847	15
76.4864	1
76.6759	9
76.9618	424
77.2325	5
77.4650	8
77.6817	5
77.7457	1
77.9679	100
78.1559	9
78.2923	9
78.4009	5
78.6396	5
78.9802	410
79.8172	5
79.9865	61
80.3380	3
80.9822	498
81.5059	9
81.8757	25
81.9800	13
82.9771	162
83.8268	8
84.0005	6
84.9808	122
85.9909	5
86.9465	82
87.9752	15
88.2008	3
88.9735	105
89.2162	5
89.3195	11
89.4400	3
89.5801	5
89.9695	55
90.3849	12
90.6462	5
90.9696	835
91.3289	6
91.5084	8
91.7464	11
91.9826	102
92.1291	7
92.2110	3
92.3724	5
92.6417	7
92.9820	613
93.5981	6
93.9775	44
94.6544	4
94.9876	345
95.3277	4
95.8343	13
96.0062	23
96.8182	23
97.0116	123
97.3190	3
97.4977	7
98.0035	17
98.9719	29
99.9510	6
100.0656	2
100.3736	3
100.8004	3
101.0406	17
101.3405	5
101.5846	3
101.7831	3
102.0181	44
102.3261	3
102.5009	9
102.9861	180
103.8154	13
104.0153	89
104.2248	5
104.9902	999
105.2463	11
105.5834	4
106.0030	123
106.3717	11
106.4521	5
106.9955	575
108.0093	80
108.9989	327
109.3590	10
109.8859	16
110.0811	10
111.0061	139
111.6728	9
112.0639	9
112.6897	5
112.9798	52
113.2860	3
113.5272	10
113.8465	15
114.0462	31
114.2941	5
114.4472	13
114.5490	5
114.9811	461
115.2781	5
115.4064	2
115.5347	8
115.7273	5
115.9822	175
116.3009	25
116.5284	19
116.9798	348
117.1992	17
117.4585	9
117.9621	98
118.4274	4
118.9756	925
119.3906	10
119.5778	5
119.9796	125
120.4398	9
120.5407	6
120.9702	464
121.5574	4
121.9726	90
122.9733	239
123.1777	10
123.7518	19
123.9928	52
124.1605	7
124.6527	9
124.9644	80
125.9242	39
126.3283	9
126.5480	7
126.9479	183
127.2886	8
127.3858	5
127.5373	9
127.9494	410
128.2285	16
128.4252	11
128.9563	568
129.2219	9
129.5564	9
129.9460	197
130.1838	15
130.3549	3
130.9574	540
131.2539	15
131.3385	10
131.5059	9
131.9733	160
132.3543	11
132.5599	9
132.9662	615
133.3410	8
133.5068	7
133.9583	76
134.5213	15
134.9588	342
135.2745	12
135.9209	62
136.4034	1
136.9561	162
137.4028	8
137.9325	29
138.0550	11
138.4147	10
138.9550	102
139.2209	8
139.6654	2
139.9223	49
140.2994	14
140.4594	16
140.9338	327
141.3771	7
141.4842	9
141.9484	316
142.4501	7
142.9501	501
143.5384	9
143.9496	269
144.3730	11
144.4724	15
144.9722	703
145.9577	84
146.2163	10
146.4322	5
146.5732	8
146.9711	348
147.2312	11
147.5263	9
147.7337	6
147.9693	49
148.4314	7
148.9968	168
149.2494	5
149.3842	8
149.7180	1
149.9736	41
150.1587	14
150.4573	11
150.6009	18
150.9715	132
151.4489	7
151.7056	45
151.9730	155
152.3407	20
152.6748	22
152.9775	190
153.2594	4
153.5097	11
153.9715	105
154.1937	9
154.4665	9
154.5951	5
154.9913	365
155.2529	9
155.3863	15
156.0020	263
156.2557	5
156.5404	17
157.0008	492
157.2898	9
157.4039	8
157.6160	6
157.7464	21
158.0390	152
158.2586	18
159.0240	355
159.3541	7
159.5023	11
159.7303	9
160.0322	84
160.4947	3
161.0271	202
161.2961	16
162.0112	39
162.1272	23
162.4439	9
162.9996	72
163.2799	5
163.4292	8
163.5277	17
163.6119	9
164.0112	73
164.2972	6
164.5037	9
165.0209	425
165.5621	5
166.0172	88
166.2464	9
166.4111	17
167.0210	231
167.4589	4
168.0454	116
168.3126	4
169.0611	317
169.6525	3
170.0380	124
170.5212	10
171.0498	338
172.0362	92
172.2160	23
172.7146	13
173.0778	250
173.4506	11
173.5624	7
174.0745	61
174.2150	17
174.3221	7
174.5732	12
174.7089	16
175.0870	174
175.2870	17
175.4979	10
175.6276	7
175.8345	20
176.0414	31
176.1801	14
177.0451	78
177.6904	23
178.0501	164
178.4810	2
179.0230	362
179.4022	7
179.6384	4
179.7966	27
180.0664	122
180.7549	47
181.0516	287
181.3579	7
181.5691	9
182.0271	105
182.3303	9
183.0493	337
183.3369	11
183.7213	8
184.0886	98
184.2219	32
184.5447	7
185.0504	190
185.4476	14
185.6723	8
186.0126	49
186.4534	5
186.7939	26
187.0767	118
187.3953	9
187.9982	34
188.2165	11
188.3900	8
188.6648	17
189.0443	161
189.8119	28
190.1076	53
190.4075	7
190.6799	8
191.0467	165
191.4641	12
192.0147	104
192.3446	11
192.7209	22
193.0336	176
193.5855	5
194.0366	110
194.1423	49
194.2619	9
194.4457	6
194.6095	13
195.0506	317
195.3548	6
195.5180	15
195.6466	15
196.0056	73
196.1591	29
196.6829	23
197.0539	253
197.4422	19
197.6520	7
197.8549	25
198.0779	57
198.4131	7
198.6417	9
198.8461	24
199.1101	123
199.8330	11
200.0264	52
200.1263	29
201.0708	82
201.7543	18
202.0589	59
202.6754	18
203.0448	81
203.3851	1
203.8040	5
204.0777	45
204.4342	11
205.0528	138
206.0374	101
206.4471	9
206.7693	38
207.0664	253
207.4798	15
207.6253	3
207.8286	35
208.0820	80
208.3347	16
208.7394	29
209.0647	176
209.5050	10
209.7516	17
210.0611	71
210.6661	5
210.8000	25
211.0831	133
211.3425	11
211.4855	7
211.7582	19
212.0986	61
213.0909	104
213.9964	24
214.1396	33
214.3631	8
214.5956	9
214.8087	31
215.0770	104
215.6325	8
215.8212	10
216.1057	55
216.3923	9
216.6069	11
217.0656	69
217.4391	7
217.5726	9
217.7286	4
217.8378	13
217.9343	17
218.1225	48
218.6109	7
218.6879	5
219.0882	98
219.4705	9
219.6028	11
220.0579	67
220.3107	9
220.7338	11
221.0833	160
221.2809	33
221.4610	5
221.8016	19
222.1436	37
222.5312	5
222.8573	51
223.1356	90
224.0762	37
224.2116	12
224.4817	9
225.0648	49
225.3456	10
225.4396	9
225.7801	6
226.0307	47
226.1494	32
226.7372	15
227.0806	43
227.3216	9
227.4424	13
227.7839	10
228.0094	36
228.1464	56
228.2680	12
228.8184	9
229.1094	86
229.6177	3
230.1353	37
230.6502	9
230.9780	46
231.1582	66
231.5410	10
231.9569	14
232.1491	59
232.2983	23
232.5996	5
232.8048	13
232.9227	38
233.1861	104
233.6264	12
233.7431	12
234.0894	71
234.4224	8
234.7997	29
235.1230	82
235.7781	2
236.1149	61
236.3265	11
237.1015	79
237.3498	10
237.6643	7
238.0695	46
238.6916	10
239.1054	93
239.5658	11
239.6644	9
240.0833	37
240.2340	15
240.6164	1
240.8968	27
241.1426	55
241.6773	11
241.9183	27
242.1424	41
242.8704	27
243.0636	45
243.1834	19
243.5627	10
243.6819	13
244.0584	37
244.2503	22
244.6445	10
245.0833	69
245.3231	15
245.5468	11
245.7472	10
245.8968	15
246.1134	56
246.2285	19
246.5263	17
246.6985	5
247.1291	63
247.8027	11
248.1290	42
248.3324	19
248.4404	23
248.6954	11
249.1094	65
249.3856	11
250.0873	15
250.9467	9
251.1426	66
251.3030	9
251.8376	11
251.9104	6
252.1105	61
252.2244	19
252.5384	9
253.0802	55
253.2260	27
253.3710	11
253.5988	9
253.7135	12
254.1734	43
254.2647	14
254.3772	3
254.4940	8
254.9236	23
255.0624	44
255.1919	23
256.1279	39
256.3567	7
256.6216	17
256.7682	9
256.9098	15
257.1294	63
257.2817	13
257.5821	7
257.6954	3
257.9087	9
258.0703	31
258.2587	25
258.7704	9
259.1516	68
259.5412	1
259.7764	11
259.9358	19
260.1759	33
260.2631	18
260.3616	9
260.6237	1
261.1326	65
261.3941	7
261.5465	7
261.6656	8
262.0292	19
262.3163	22
262.8921	18
263.1878	50
263.2914	23
263.6204	9
264.0212	27
264.1489	18
264.3333	6
264.8896	15
265.0783	28
265.2791	23
265.8313	8
266.1436	27
266.2870	11
266.8009	11
266.9202	9
267.1481	53
267.5450	7
267.6608	8
267.7957	9
267.9044	8
268.2112	21
268.9279	17
269.0735	43
269.2306	19
269.3407	9
269.8807	24
270.1465	24
270.2580	9
271.1664	29
272.0210	28
272.1667	26
272.3111	9
272.6190	5
273.0856	61
273.2399	39
273.4305	9
273.9562	17
274.1661	29
274.3156	15
274.7275	9
275.0869	82
275.2050	40
275.8342	7
275.9823	18
276.1432	33
276.8181	8
277.0566	34
277.2232	50
277.4040	9
277.5135	7
277.9323	11
278.1755	23
278.7822	10
279.1428	31
279.5013	9
280.0869	32
280.3495	10
281.1180	32
281.3244	18
282.1317	19
282.5667	12
282.9924	19
283.2096	32
283.3278	10
283.8905	9
284.0500	14
284.2430	36
284.8628	9
285.0609	34
285.2746	19
285.3807	10
285.8083	11
285.9914	9
286.1076	16
286.4098	10
286.8459	4
287.0933	34
287.2993	18
287.7363	8
287.8711	11
288.0008	33
288.2568	15
288.8308	11
289.1368	39
289.8564	11
290.1960	23
290.3822	8
290.4871	5
290.7910	20
291.1200	31
291.2755	26
291.4097	9
291.7286	8
291.8871	19
292.1090	36
292.2639	25
292.3467	11
292.5823	11
293.1369	132
294.0720	105
294.8444	11
295.1012	58
295.2617	10
295.3694	9
295.8580	9
296.0521	22
296.2661	27
296.5637	11
296.9883	18
297.2373	15
297.4043	7
297.8290	15
298.1366	16
298.3179	9
299.0989	44
299.2482	33
299.7544	5
300.1443	19
300.7078	12
300.8071	9
300.9657	5
301.1407	52
301.2914	26
301.9322	14
302.2051	22
302.4001	6
302.9697	23
303.1941	23
303.8659	8
304.0181	23
304.9224	6
305.1340	25
305.2277	15
305.9777	14
306.1357	31
306.2502	9
306.5041	7
306.8981	3
307.2014	47
308.0419	21
308.2136	21
308.5835	9
308.9563	15
309.1924	29
309.2940	13
309.9968	18
310.1765	21
310.2445	11
311.1285	34
311.3211	9
311.5129	7
311.8330	9
312.0342	32
312.1781	20
312.4022	13
312.6063	9
313.1456	47
314.0416	19
314.2150	20
315.0754	22
315.2287	8
315.3620	9
315.4537	5
316.0492	11
316.3867	9
316.5236	7
316.9335	11
317.1249	19
317.3815	7
318.2525	29
318.3909	9
318.7336	1
318.9014	13
319.1552	12
319.3030	21
319.7232	10
319.8523	15
320.1908	7
320.3414	10
320.4483	9
321.0530	19
321.1914	30
321.3299	7
321.5831	8
322.1621	14
323.0612	17
323.3246	2
324.0380	25
324.3065	11
324.5907	10
325.1205	14
325.8722	5
326.0898	27
326.5206	1
326.8143	10
327.1648	39
327.4126	12
327.8831	8
328.0317	18
328.2077	19
329.0705	13
329.3759	9
329.8400	9
330.0757	7
330.3215	9
331.1250	21
331.3758	14
331.9408	8
332.1967	11
332.2873	9
332.8236	11
333.0256	13
333.2104	19
333.2902	13
334.0093	9
334.1631	10
334.4393	3
335.1441	23
335.2937	13
335.7706	9
336.3598	8
336.8311	9
337.1764	19
337.7715	8
338.0161	15
338.1032	6
338.2313	6
339.1361	19
339.7852	9
340.0886	13
340.3172	11
340.5200	1
341.1549	13
341.2972	9
341.7366	3
342.1407	17
342.3889	7
342.9132	21
343.0031	13
343.1743	13
343.3145	11
343.4685	4
344.1907	23
344.4051	9
345.0994	11
345.2318	25
345.4959	9
346.1896	15
346.3558	9
347.1936	18
347.4902	10
348.1503	15
348.2914	11
349.2417	5
350.1692	19
350.4558	7
350.7460	13
350.9196	9
351.0161	14
351.1320	26
351.2206	20
351.3640	9
352.0547	17
352.3141	14
352.4070	10
353.0734	37
353.2377	32
353.4012	8
354.1052	9
354.2003	5
354.3862	9
354.9145	9
355.0593	35
355.2878	21
355.3757	11
356.2190	11
356.3300	10
356.9925	13
357.2434	9
357.5375	5
358.3646	21
359.0986	17
359.2768	19
359.4131	11
360.1494	20
360.3218	17
360.9320	9
361.1759	9
361.3108	17
361.6036	9
362.2414	17
362.3814	16
362.9529	11
363.2906	27
363.4767	9
364.2417	9
365.0305	11
365.2478	21
365.5199	18
365.8008	5
366.1737	8
366.3399	15
366.4486	10
366.9761	13
367.1459	19
367.7836	9
367.8930	7
368.0025	8
368.2162	11
368.8684	7
369.0124	10
369.2788	18
369.4465	2
370.2364	12
370.4675	6
371.2272	10
371.3986	15
372.1065	14
372.2398	5
372.8535	17
373.0840	17
373.3462	16
374.1523	11
374.4657	9
374.6083	1
375.1624	20
375.4420	1
376.1266	9
376.3283	9
376.8638	9
377.0375	9
377.4937	12
378.1525	20
378.3695	15
378.4740	21
379.1531	42
379.4883	8
379.6989	4
380.2519	21
380.4559	11
380.6145	4
380.8863	8
381.1163	11
381.2216	22
381.9577	6
382.2995	17
382.5007	9
383.0970	9
383.9026	7
384.0072	10
384.3967	10
384.5503	6
385.1389	13
385.3380	11
385.8523	5
386.3184	9
386.4713	1
387.0125	17
387.1928	15
387.3191	8
387.9570	19
388.1157	13
388.2435	7
388.3994	12
389.0835	8
389.2964	19
389.3953	10
389.9019	5
390.0528	18
390.1741	20
390.2816	10
391.0750	11
391.3428	7
391.6518	3
392.2366	9
392.5810	9
393.2193	13
393.5883	11
394.2368	7
394.3624	6
394.5834	8
395.1049	9
395.2154	9
395.3121	8
395.4833	9
396.1435	12
396.6138	7
397.2993	11
397.6924	11
398.2429	7
398.8911	4
399.0558	10
399.3159	21
399.9374	11
400.2735	9
400.9030	10
401.1451	27
401.2636	9
401.3916	10
401.6193	3
402.0197	9
402.4947	15
403.0260	11
403.2393	9
404.0750	11
404.9875	8
406.0998	9
406.2538	11
406.8599	3
407.1687	17
407.3076	3
407.5239	11
407.9108	10
408.3195	9
409.0010	9
409.1602	8
409.2896	8
409.5168	10
410.0920	7
410.4653	10
411.0732	9
411.2237	21
411.3894	25
411.4769	7
412.5132	11
412.7412	11
412.8288	11
412.9344	10
413.1919	11
413.3278	17
414.0629	9
414.3326	5
414.6832	14
415.3548	19
415.4676	11
416.2008	11
416.3280	8
416.5182	3
417.0078	8
417.1733	19
417.3317	8
417.4922	13
417.9587	13
418.1330	12
418.3283	15
418.4512	9
418.9720	18
419.2056	32
419.3503	24
419.7965	10
420.1206	6
420.2978	10
420.4230	18
420.5554	17
420.9742	8
421.1869	9
421.4510	17
422.0356	5
422.1918	11
423.2569	12
423.4197	5
424.1817	9
424.3185	10
424.4756	19
424.5769	9
425.0429	3
425.2716	11
425.7696	1
426.2517	13
426.3776	12
427.0718	8
427.3491	9
427.4794	3
428.2228	10
428.3995	8
429.0656	23
429.1851	14
429.3038	13
429.5145	17
430.2528	5
430.3555	5
431.0898	18
431.2778	16
431.9652	8
432.4134	21
432.4828	11
433.0699	9
433.3055	10
433.5413	5
433.6953	14
434.0777	11
434.2303	16
434.6764	6
434.9924	16
435.4386	10
435.6085	15
436.2731	15
437.2097	9
437.2994	11
438.0646	10
438.3301	10
438.4495	19
438.5876	10
439.1627	9
440.3774	5
441.2912	5
441.7998	6
442.0965	16
442.2267	9
442.3570	11
443.0915	31
443.3672	16
443.4714	5
444.1380	37
444.4492	24
444.8683	7
444.9739	4
445.1295	19
445.2606	8
445.7658	13
446.1364	80
446.3275	13
446.5758	10
446.7336	2
447.1738	148
447.6624	14
447.8601	10
448.1758	17
448.5645	13
448.9830	4
449.3009	32
450.0257	14
450.1597	11
450.3139	9
450.9758	15
451.1192	13
451.3220	5
452.4156	5
452.9777	4
453.2964	14
454.2576	15
454.5438	8
455.2559	7
456.4890	10
457.2635	11
457.4331	11
458.2295	19
459.1679	16
459.3506	9
459.6636	9
460.0891	9
460.1702	3
460.3311	8
460.8624	5
461.0545	7
461.1820	19
461.5466	13
461.9736	10
462.2230	19
462.8884	13
463.0392	14
463.1617	16
463.3299	14
463.4633	3
464.1796	15
464.4798	11
464.6074	13
464.8343	5
464.9960	13
465.3020	13
465.5144	8
466.9854	4
467.4181	19
468.0564	17
468.3762	8
468.5448	11
468.6975	10
469.4365	9
469.5465	11
469.8099	3
470.0966	9
470.5837	11
471.0578	17
471.2844	22
471.4269	7
471.6456	18
471.8816	4
472.2211	31
472.7336	71
473.0797	73
473.2947	90
473.6791	45
473.8102	36
474.0607	33
474.1808	12
474.3394	11
474.5494	28
474.7499	11
475.1272	15
475.3466	20
475.5088	7
475.8375	9
476.0656	12
476.4176	20
476.6022	9
477.0389	25
477.1360	15
477.8870	7
478.1448	19
478.3700	10
478.5345	17
478.8473	10
479.1609	10
479.2631	5
479.4985	15
480.2938	15
481.0609	1
481.5050	8
481.6977	8
482.1875	22
482.9344	8
483.1460	7
483.2619	25
483.3684	9
483.9379	19
484.0821	15
484.3277	13
484.4314	13
484.5270	10
484.6995	6
484.9357	11
485.1415	10
485.2886	17
485.3784	11
485.5321	9
485.6698	9
485.8292	11
485.9567	14
486.1198	11
486.2155	7
486.4894	5
486.7263	3
487.1460	9
487.3873	15
487.6750	19
487.9606	3
488.3310	12
488.6775	11
488.8616	21
489.0877	12
489.3835	15
489.6640	22
489.7684	11
490.1786	6
490.2845	11
490.4998	26
490.6847	19
490.8666	11
491.1878	12
491.5517	21
491.8504	12
492.2035	15
492.7712	8
493.1054	15
493.2338	15
493.3730	11
493.4796	11
494.4164	12
495.0629	12
495.2692	11
495.5552	13
496.3248	13
496.5391	7
497.3406	11
497.7287	9
498.2610	20
498.6954	9
499.1039	10
499.2733	10
499.5478	14
500.3755	13
501.1968	7
501.7972	9
502.4238	12
502.5346	10
502.6353	11
503.5204	6
504.0811	11
504.3383	9
504.4332	6
505.1671	11
505.9118	1
506.3219	17
506.6755	11
507.4688	11
507.5942	8
507.7217	10
508.3934	339
508.5934	149
508.8456	24
508.9500	13
509.3188	6
509.6992	19
510.2399	12
510.7718	3
513.4963	8
514.2959	10
514.5170	9
515.1397	10
515.4268	13
515.6399	8
515.9139	9
516.1213	4
516.3968	22
516.5128	3
517.1146	12
517.4039	8
517.5742	9
518.0057	11
518.6851	7
520.1650	18
520.4254	8
520.5545	10
520.6603	9
521.0518	14
521.1966	11
521.4848	31
522.1321	8
522.3638	18
523.3718	8
523.4942	15
523.8143	7
524.3719	8
524.6283	15
525.3692	7
525.5648	11
525.8639	8
526.0225	5
526.3238	25
526.5208	11
527.5595	5
527.8912	9
528.0506	9
528.2469	9
528.6663	8
528.9727	9
529.3893	11
529.7131	9
529.9442	11
530.3934	11
530.9810	10
531.4243	4
532.5691	5
532.6705	9
533.0618	2
533.2698	11
533.3727	9
534.3190	14
534.4980	10
534.7806	10
535.1132	21
535.1981	12
535.4096	10
535.9713	15
536.0720	5
536.4373	24
537.2055	11
537.4860	2
537.8020	8
538.1985	11
538.3333	7
538.5253	11
538.7153	11
539.3256	21
540.0910	11
540.3063	19
540.5571	1
540.7507	17
541.3654	21
542.3180	7
542.4645	19
542.8458	9
543.0851	10
543.3163	13
543.4258	11
543.5556	7
543.6919	10
544.3133	13
544.4322	11
546.6111	11
547.1238	9
547.3682	21
547.5974	8
547.8679	8
548.6678	5
548.8237	13
549.2378	9
549.6483	15
550.0291	4
550.2322	15
550.5129	21
551.2889	7
551.7169	2
552.0847	9
552.2196	15
552.4771	34
552.8326	9
552.9225	11
553.0451	9
553.1677	11
553.3614	27
553.5551	15
554.0476	9
554.4024	19
554.5330	7
554.6788	11
555.0140	4
555.2330	11
555.3535	6
555.4855	16
555.6720	14
555.9927	13
556.3351	23
556.5912	23
556.8691	18
556.9808	10
557.1448	11
557.3037	15
557.8733	4
558.0184	16
558.1396	11
558.2898	13
558.5474	17
558.6751	8
558.7484	3
559.0321	17
559.1569	3
559.3507	9
559.5263	15
559.7418	15
559.8717	11
560.0284	8
560.3303	9
560.5590	19
560.6990	23
560.8702	13
561.0786	8
561.2092	16
561.4755	15
562.0075	7
562.3588	21
562.4655	9
562.6469	9
562.7529	9
563.0149	7
563.3618	15
563.4562	11
563.5853	13
563.7015	10
563.8800	12
564.0579	23
564.3104	35
564.5405	43
564.7111	16
565.1132	16
565.2940	23
565.6219	19
565.7544	12
566.0541	30
566.2640	8
566.3638	16
566.5491	12
566.7815	5
566.9769	14
567.1796	27
567.3084	31
567.3801	13
567.5603	30
567.6609	19
567.8195	6
567.9672	11
568.2067	6
568.4087	18
568.5317	19
569.0790	9
569.2433	22
569.4822	30
569.6647	19
569.8920	23
570.1331	35
570.3264	11
570.4364	23
570.5855	27
570.6702	13
571.2154	17
571.5368	22
571.8026	13
571.9517	11
572.1030	22
572.2065	21
572.4744	25
572.7322	23
572.8263	11
573.0182	12
573.1050	9
573.3085	13
573.4678	10
573.6756	23
573.8407	15
573.9681	25
574.0818	15
574.3570	29
574.4873	14
574.6683	12
574.7827	8
574.9688	22
575.2817	15
575.4728	6
575.6205	25
575.8298	21
576.1108	25
576.2556	21
576.3440	11
576.4482	15
576.6257	30
576.8726	26
577.0030	27
577.1746	50
577.5193	26
577.6960	11
578.0567	38
578.3964	37
578.5441	21
578.7274	31
578.9388	49
579.1959	38
579.4038	29
579.6290	31
579.8978	29
580.1491	23
580.2881	47
580.4910	42
580.7220	30
580.8850	25
581.1711	85
581.5833	108
582.5517	769
582.9799	136
583.5478	132
583.9607	33
584.1150	30
584.4019	55
584.6945	33
584.8445	19
585.3632	98
585.6936	29
585.8037	35
585.9653	33
586.2007	27
586.4362	27
586.7130	29
586.9477	23
587.0680	13
587.3527	19
587.6035	24
587.7274	16
588.0215	21
588.1787	23
588.5258	24
588.6758	40
588.8910	22
588.9838	5
589.2801	52
589.6047	16
589.7286	9
589.9387	14
590.1754	26
590.3491	33
590.4389	9
590.7690	19
590.9283	37
591.1469	38
591.3431	44
591.4553	25
591.6174	15
591.7535	23
592.0554	60
592.2842	36
592.5999	17
592.9437	28
593.0610	35
593.1928	17
593.5729	31
593.8444	25
594.0840	30
594.2998	36
594.6654	57
595.1339	77
595.4293	81
595.9007	85
596.6516	132
600.3658	999
601.1617	999
601.7028	553
602.6696	248
603.0927	167
603.4208	158
603.7720	129
604.4638	72
604.7760	59
605.0541	47
605.3077	55
605.5511	55
605.8785	33
