Mass spectrum: Cycloviolaxanthin; FAB-EBEB; MS2; m/z: 600.42; [M]+*
Name: Cycloviolaxanthin
Formula: C40H56O4
Exact mass: 600.41786
SMILES: C(C1(C=CC(=CC=CC(=CC=CC=C(C=CC=C(C)C=CC(C(C)(O)3)(C(C)(C)4)OC(C4)C3)C)C)C)2)(C)(O)CC(O2)CC(C)(C)1
InChI: InChI=1S/C40H56O4/c1-29(17-13-19-31(3)21-23-39-35(5,6)25-33(43-39)27-37(39,9)41)15-11-12-16-30(2)18-14-20-32(4)22-24-40-36(7,8)26-34(44-40)28-38(40,10)42/h11-24,33-34,41-42H,25-28H2,1-10H3/b12-11+,17-13+,18-14+,23-21+,24-22+,29-15+,30-16+,31-19+,32-20+/t33-,34-,37+,38+,39+,40+/m0/s1
Instrument: JMS-HX/HX 110A, JEOL
Instrument type: FAB-EBEB
Ms type: MS2
Ion mode: POSITIVE
Collision energy: 3 kV
Ionization: FAB
Base peak: 43.0218
Precursor m/z: 600.42
Precursor type: [M]+*
m/z	relative intensity
13.0123	0
14.0358	2
15.0443	9
25.0639	0
26.0404	5
27.0441	45
28.0485	4
29.0499	32
30.0415	0
31.0282	4
37.0280	3
38.0353	7
38.4163	0
39.0442	66
40.0541	10
40.4603	0
41.0490	155
42.0460	14
42.3531	0
43.0218	999
43.4995	0
44.0148	3
45.0297	6
48.7958	0
50.0192	13
51.0207	29
52.0257	11
53.0211	62
54.0172	4
54.6105	0
55.0247	290
56.0412	9
57.0375	36
58.0108	10
58.3407	0
59.0278	16
59.9700	0
61.0136	2
62.0125	6
63.0101	25
64.0281	5
64.4231	0
65.0167	51
66.0156	12
67.0247	99
68.0189	15
69.0155	238
69.5382	0
70.0069	35
71.0070	93
71.6517	0
72.0364	1
72.5789	0
72.9984	2
73.2104	1
73.4147	0
74.0025	7
75.0165	10
76.0299	6
77.0179	164
77.5680	2
78.0193	34
79.0239	175
79.5550	0
80.0196	40
81.0222	210
82.0105	31
83.0387	374
84.0353	9
85.0157	47
86.0095	5
86.9950	58
88.0223	3
88.3639	0
89.0508	18
90.0358	7
91.0422	368
92.0333	38
93.0458	268
93.5393	1
94.0470	22
95.0420	313
96.0287	24
97.0381	124
98.0124	21
98.5356	0
99.0247	11
99.9906	1
101.0181	7
101.4403	0
102.0449	21
103.0418	68
104.0517	31
105.0496	488
105.5674	1
106.0437	49
106.4629	1
107.0550	239
108.0442	44
109.0528	191
110.0434	9
111.0456	99
112.0156	3
113.0651	105
114.0411	7
115.0443	198
116.0306	68
116.4275	3
117.0512	200
118.0220	44
119.0385	421
120.0365	59
121.0446	229
122.0183	33
123.0293	132
123.5943	0
124.0418	8
125.0369	130
126.0362	21
127.0297	77
128.0245	217
129.0263	254
130.0295	103
131.0354	277
132.0251	90
133.0364	259
134.0213	28
134.5419	1
135.0277	129
136.0252	32
137.0194	45
138.0026	7
139.0426	243
140.0147	13
141.0262	184
142.0285	175
143.0318	344
144.0407	134
145.0402	481
146.0320	55
147.0469	159
148.0215	24
148.4023	2
149.0503	53
150.0624	18
151.0621	52
152.0598	77
153.0733	143
154.0550	53
155.0659	262
156.0703	132
157.0726	363
158.0668	85
159.0739	293
160.0609	254
161.0817	105
162.0824	14
163.0989	60
164.1073	17
165.0849	185
166.0934	61
167.0952	140
168.1023	66
169.1042	203
170.1068	82
171.1134	195
172.1064	51
173.1077	135
174.0871	22
174.4872	3
175.1141	66
176.1055	18
177.1021	29
178.0919	89
179.1005	166
180.1023	56
181.0957	545
182.0912	66
183.0995	200
184.0949	52
185.0984	151
186.1057	39
187.1106	72
188.1070	21
189.0994	64
190.1061	24
191.0952	85
192.0879	54
193.0751	131
194.0965	72
195.0863	222
196.0860	60
197.0969	185
198.0762	46
199.1036	90
200.1208	19
201.0972	43
202.0971	46
203.0930	68
204.0878	22
205.0878	64
206.0991	50
207.0878	116
208.0986	102
209.1037	165
210.0924	37
211.1108	124
212.1113	33
213.1045	54
214.0936	14
215.0970	51
216.1257	22
217.1178	56
218.1304	26
219.1109	68
220.1229	36
221.1230	390
222.1437	37
223.1369	100
224.1476	28
225.1339	57
226.1113	17
227.1481	40
228.1217	21
228.5977	3
229.1548	50
230.1712	16
231.1397	48
232.1429	34
233.1456	146
234.1477	66
235.1485	72
236.1467	18
237.1406	52
238.1723	16
239.1669	37
240.1588	13
241.1355	27
242.1562	11
243.1492	26
243.5771	3
244.1488	17
245.1504	64
246.1758	135
247.1780	133
248.1259	18
249.1805	56
250.1557	16
251.1750	42
252.1712	14
253.1802	28
254.1959	13
255.1790	22
256.1687	9
257.1837	31
258.2039	19
259.1911	57
260.1930	21
261.1937	42
262.2150	10
263.2132	36
264.1630	12
265.2073	29
266.1953	7
267.1774	16
268.2148	8
269.1865	20
270.1805	7
271.1967	54
272.1786	27
273.1924	64
274.2001	41
275.2018	35
276.2085	16
277.1965	26
278.1919	8
279.2188	16
280.2271	6
281.1648	11
282.1957	10
283.2112	19
284.1890	18
285.1971	69
286.1944	311
287.2140	75
288.1960	12
289.2146	25
290.2145	7
291.2068	16
292.2846	8
292.6023	3
293.2251	14
294.2065	5
295.2140	19
296.2217	8
297.2187	50
298.1905	58
299.2148	131
300.1966	28
301.2260	23
302.2225	5
303.2350	14
304.2478	5
304.5960	2
305.2323	12
306.2059	8
307.2479	11
308.2077	6
309.1883	17
310.1723	20
311.1866	74
312.1884	99
313.2047	46
314.1912	10
315.2126	10
316.1772	4
317.2119	8
318.2261	4
319.2421	11
320.1868	5
321.2128	11
322.2278	6
323.2144	23
324.1822	17
325.2025	37
326.2342	14
327.2470	13
328.1392	2
329.2669	10
330.2453	3
331.2366	12
332.2154	2
333.2214	9
334.2276	6
335.2467	9
336.2484	10
337.2759	18
338.2493	12
339.2769	12
340.3158	5
341.2260	6
341.5952	2
342.2063	3
343.2378	5
344.1612	6
345.3141	9
345.7218	2
346.2999	6
347.2158	10
348.3023	6
349.2536	15
350.2608	10
351.2458	27
352.2613	16
353.2578	29
354.3135	7
355.3678	6
356.3584	2
357.3109	7
357.6205	2
358.2875	2
358.5588	1
359.2993	6
360.3049	8
361.2772	11
362.2463	5
363.2635	21
364.2809	21
365.2889	48
366.2724	24
367.3381	6
368.2477	4
369.2275	5
369.7622	1
370.3592	3
371.3106	5
372.2781	5
373.3272	10
374.2950	7
375.2454	12
376.2885	24
377.2855	29
378.3082	21
379.2814	121
380.2804	33
381.2831	4
381.9281	1
382.3432	2
382.6945	1
383.3204	3
383.9129	0
384.4208	3
385.3600	6
386.2769	5
387.2994	11
388.3476	7
389.2425	18
390.2254	10
391.2788	18
392.2780	17
393.2868	5
394.0464	2
394.4829	2
395.2122	1
395.8520	0
396.3798	2
397.2916	4
398.3379	2
399.3507	7
400.2564	16
401.3831	8
402.2314	6
403.3280	11
404.3254	5
405.3902	3
406.4439	1
407.4384	1
408.0647	1
408.4235	0
409.2020	2
409.8781	0
410.4116	1
411.2688	4
412.2911	4
413.2875	8
414.2922	6
415.3338	9
416.3131	5
417.3565	22
418.3152	18
419.2933	123
420.2602	5
420.7501	2
421.4674	2
421.8517	2
422.0710	1
422.4009	1
423.2769	3
424.2634	3
425.3158	2
426.2993	9
427.3150	4
428.3292	6
429.3371	9
430.2696	7
431.3260	32
432.2962	106
433.2984	15
433.9261	1
434.5217	0
435.2119	4
435.4778	0
436.2481	4
436.6645	1
437.3692	2
438.1060	1
439.3668	6
440.3232	10
441.3343	6
442.2701	21
443.3230	7
444.2654	6
445.2511	21
446.2706	8
447.0417	4
447.4041	3
448.4607	2
449.3345	2
449.6344	0
449.9006	0
450.3881	2
450.7762	0
451.2285	3
452.2437	2
453.3329	9
454.3306	13
455.2852	5
456.2992	7
457.2908	32
458.3211	10
459.3482	10
460.3545	3
461.2871	3
462.0063	2
462.4830	2
463.2761	4
464.0403	1
464.5076	1
465.3313	5
466.3244	2
467.2526	3
468.5144	2
469.4621	2
469.7972	1
470.2991	0
470.6519	1
471.2453	5
471.5131	3
472.4482	6
473.2950	21
474.2767	37
475.4558	3
476.2499	3
476.7361	1
477.3891	5
478.2315	2
479.2713	3
480.2984	5
481.2870	8
482.2661	1
482.6626	1
483.4539	5
483.9436	2
484.4492	1
485.3242	4
485.6662	2
486.2907	3
487.3120	7
488.3413	3
489.2374	3
489.4702	1
490.2347	3
491.2209	6
491.5244	2
492.2537	11
493.3460	12
494.3061	18
495.1864	2
496.3202	2
497.6417	2
498.3314	6
499.3483	16
500.3621	11
501.2958	13
501.8140	4
502.5439	4
503.2371	2
504.2832	8
505.3231	9
506.3036	59
507.3307	7
508.3274	33
509.6323	2
510.2343	2
510.4783	1
511.4880	2
512.3630	3
513.4001	4
514.2768	3
515.4442	5
516.3563	23
517.8434	2
519.3564	10
520.3378	167
521.2912	15
521.9052	3
522.5432	1
523.3384	2
523.7761	1
524.3276	3
525.3634	2
526.3254	22
527.2507	8
528.2418	13
528.9186	1
529.4670	2
530.0974	0
530.4807	1
531.2410	2
532.2162	2
532.5258	1
532.7199	1
533.2380	0
534.3386	1
534.7926	0
535.1167	0
535.6012	0
536.4869	1
537.1142	0
537.6229	2
538.1588	0
538.6755	1
539.5244	4
540.2851	6
541.3171	15
542.2961	18
543.2913	13
544.3266	6
545.1083	2
546.2562	6
546.6591	2
547.2579	1
547.5245	1
548.2646	1
548.4781	0
549.6599	1
550.2717	1
550.6796	0
551.4022	0
552.1457	1
552.5568	1
553.0129	0
553.8432	1
554.3298	2
555.3658	5
556.3890	15
557.3158	57
558.4243	6
558.7921	2
559.4315	2
559.6885	1
560.1014	1
560.4533	1
561.0895	2
561.5731	1
562.3412	1
562.8875	0
563.2731	0
564.3899	5
565.6497	1
566.1150	0
567.3408	9
567.7756	3
568.6967	1
569.4749	3
570.2708	2
570.8052	1
571.3893	3
571.6782	1
572.8819	8
573.9637	8
574.9268	7
577.4100	11
582.4192	223
583.3939	20
584.3268	26
585.3643	139
600.3180	999
604.8986	62
