Mass spectrum: Peridininol furanoxide; FAB-EBEB; MS2; m/z: 588.35; [M]+*
Name: Peridininol furanoxide
Formula: C37H48O6
Exact mass: 588.34509
SMILES: C/C(=C\C=C\C=C\C=C(/C)\C=C/1\C=C(C(=O)O1)C2C=C3[C@](O2)(C[C@H](CC3(C)C)O)C)/C=C=C4[C@](C[C@H](CC4(C)C)O)(C)O
InChI: InChI=1S/C37H48O6/c1-24(15-16-31-34(3,4)20-26(38)22-36(31,7)41)13-11-9-10-12-14-25(2)17-28-18-29(33(40)42-28)30-19-32-35(5,6)21-27(39)23-37(32,8)43-30/h9-15,17-19,26-27,30,38-39,41H,20-23H2,1-8H3/b11-9+,12-10+,24-13+,25-14+,28-17-/t16?,26-,27-,30?,36+,37+/m0/s1
Instrument: JMS-HX/HX 110A, JEOL
Instrument type: FAB-EBEB
Ms type: MS2
Ion mode: POSITIVE
Collision energy: 3 kV
Ionization: FAB
Base peak: 570.3678
Precursor m/z: 588.35
Precursor type: [M]+*
m/z	relative intensity
1.0898	1
1.1436	0
1.1628	1
1.3318	0
4.7835	0
5.0042	0
5.0460	0
5.7792	1
10.8747	0
12.9833	2
13.9754	2
14.2496	0
14.9631	1
18.6155	0
18.9845	1
19.2407	0
21.5222	0
22.3103	0
22.9366	4
24.7649	1
24.9653	1
25.9641	6
26.9703	36
27.9601	2
28.9713	20
29.9135	0
30.9531	7
36.6613	3
36.8882	4
36.9510	3
37.1040	1
37.9415	5
38.9528	73
39.1066	1
39.8195	1
39.9612	8
40.3618	1
40.9704	89
41.9708	10
42.9495	443
43.6634	0
43.9478	7
44.9514	11
46.9426	0
48.9688	4
49.9431	14
50.9400	48
51.1564	1
51.9507	20
52.9592	62
53.9636	10
54.9686	124
55.4707	2
55.9935	7
56.9884	141
57.9619	7
58.9669	33
59.9197	3
59.9832	1
60.9311	3
61.9548	13
62.1068	0
62.9614	33
63.9576	7
64.1541	1
64.2968	2
64.9478	35
65.9613	9
66.9669	62
67.9552	6
68.3649	1
68.4905	2
68.9611	112
69.1786	0
69.3459	0
69.8007	1
69.9769	5
70.9429	22
71.8307	4
71.9724	9
72.9562	3
73.4469	1
73.9339	7
74.9375	11
75.0795	2
75.4093	1
75.4871	1
75.9199	11
76.5134	1
76.6091	2
76.9417	106
77.3905	1
77.6432	2
77.9449	40
78.1024	2
78.4607	4
78.9518	88
79.9581	17
80.9496	70
81.4878	2
81.9331	15
82.0351	4
82.4907	4
82.9522	154
83.8920	4
84.2166	2
84.9497	57
85.1211	2
85.2926	1
85.8022	3
85.9427	9
86.9377	38
87.9110	5
88.0867	1
88.9327	25
89.2719	0
89.9291	11
90.1471	7
90.3080	4
90.6117	4
90.9504	164
91.3773	0
91.4879	3
91.9631	27
92.5240	1
92.9696	88
93.1898	1
93.3758	0
93.9649	18
94.0866	3
94.9634	140
95.9509	10
96.5214	0
96.9583	49
97.9234	7
98.9288	14
99.8181	3
99.9363	2
100.9589	9
101.1616	1
101.3468	2
101.9655	14
102.1485	1
102.4323	1
102.5880	2
102.6555	1
102.9534	43
103.3096	2
103.5457	5
103.9769	21
104.5165	2
104.7111	2
104.9711	158
105.5751	2
105.9651	27
106.1892	1
106.4285	0
106.9786	126
107.9695	31
108.5578	2
108.9844	84
109.2042	1
109.3905	1
109.8000	1
109.9638	9
110.9632	18
112.0352	6
112.5914	3
112.7260	3
112.8124	1
112.9840	6
113.0508	3
113.9355	12
114.3162	1
114.4131	1
114.5131	2
114.9471	106
115.1709	2
115.4197	1
115.9411	30
116.1780	4
116.2853	2
116.4208	2
116.9629	73
117.3032	1
117.4529	1
117.9536	18
118.9534	138
119.2588	1
119.4937	2
119.9483	34
120.4045	2
120.6494	0
120.9485	172
121.1782	1
121.9385	27
122.7429	2
122.9641	51
123.2293	2
123.6928	3
123.9621	9
124.2102	3
124.4196	3
124.5825	6
124.9343	277
125.3238	4
125.4344	1
125.6843	2
125.9511	16
126.4487	1
126.9408	35
127.2028	3
127.3702	4
127.9343	111
128.2831	3
128.6269	5
128.9370	110
129.1821	1
129.3122	3
129.7345	5
129.9480	39
130.1264	2
130.9467	84
131.2446	2
131.9192	26
132.9398	84
133.8067	11
133.9592	24
134.9273	74
135.9313	23
136.9505	39
137.3730	0
137.7121	3
137.9402	13
138.5927	1
138.9396	19
139.5717	2
139.9341	11
140.3012	4
140.5010	2
140.9462	96
141.3790	3
141.5005	2
141.9310	55
142.4951	3
142.9525	102
143.3010	4
143.9420	26
144.2174	2
144.3478	2
144.5193	1
144.9445	142
145.3997	3
145.5568	3
145.9314	33
146.4030	4
146.5304	2
146.9432	77
147.2273	2
147.2964	1
147.9686	15
148.5987	2
148.9438	66
149.3084	2
149.9287	13
150.2776	2
150.4527	3
150.9584	41
151.4896	4
151.6330	3
151.9244	44
152.1659	2
152.3000	2
152.3981	3
152.5082	4
152.7478	8
152.9547	44
153.5618	1
153.9353	32
154.1578	4
154.4653	2
154.9641	63
155.2170	6
155.4699	2
155.6118	1
155.9672	43
156.3455	2
156.6047	3
156.9838	65
157.1976	2
157.6366	2
157.9799	33
158.2838	2
158.4381	2
158.9850	71
159.3146	1
159.4160	3
159.5617	1
159.9465	11
160.3987	0
160.9599	60
161.3486	1
161.9857	18
163.0096	61
163.2702	1
163.5909	1
163.7317	3
164.0060	10
164.9783	78
165.3331	3
165.6408	1
165.9817	38
166.1599	4
166.4435	2
166.9960	112
167.3419	2
167.5372	5
167.9929	34
168.3485	2
168.4209	1
168.9925	60
169.6581	2
170.0010	25
170.3744	3
170.4810	2
171.0227	90
171.4714	1
171.6538	4
172.0141	37
173.0062	66
173.2559	3
173.6355	2
173.9659	8
174.5915	3
174.9973	53
175.4913	2
175.9651	25
176.3332	2
176.9464	23
177.4424	4
177.7125	4
177.9847	53
178.3826	3
178.6026	1
178.9837	68
179.5531	3
179.7162	1
179.9983	38
180.2825	5
180.5355	6
181.0007	228
181.3314	4
181.5028	3
182.0038	28
182.4844	3
183.0000	59
183.5791	1
184.0023	29
184.9711	51
185.3074	1
185.9904	25
186.2491	1
186.5071	2
186.9803	45
187.3853	3
187.4631	2
187.7336	6
188.0049	16
188.1668	1
188.3418	3
188.9939	44
189.3427	2
189.4883	3
189.6580	1
190.0061	22
190.2456	3
190.5597	1
190.9902	39
191.4783	2
191.9584	26
192.4626	3
192.9895	55
193.3761	1
193.5009	4
193.9705	36
194.3855	2
194.5995	5
194.9781	59
195.3103	2
195.9589	32
196.2321	2
196.5054	3
196.9999	50
197.2610	2
197.4630	2
197.7543	10
197.9886	22
198.1234	10
198.2849	1
198.9710	31
199.5694	3
199.9766	26
200.1658	3
200.3448	1
200.5354	1
200.9711	25
201.2644	2
201.6837	1
201.9723	34
202.2547	3
202.4345	2
202.6226	1
203.0015	46
203.7059	3
203.9845	13
204.4892	3
204.5941	1
204.9886	26
205.5454	2
206.0036	17
207.0191	50
207.9799	26
208.5728	3
208.9930	43
209.2280	4
209.3877	2
209.6387	3
209.7874	2
209.9907	28
210.4901	3
210.6595	4
211.0013	36
211.3078	3
211.4345	2
211.6379	4
212.0041	18
212.1342	4
212.5192	3
212.9928	31
213.7285	5
213.9931	14
214.2641	1
215.0299	37
215.9993	20
216.7047	2
217.0301	25
217.6290	3
218.0371	45
218.4321	3
218.7217	6
219.0363	37
219.5600	2
220.0324	24
220.3277	3
220.5910	2
221.0011	48
221.3598	3
221.4300	1
221.5788	1
222.0377	18
222.6296	1
223.0400	19
223.4289	0
223.9523	11
224.3810	2
225.0445	40
225.2694	4
225.5528	4
225.6490	1
226.0557	20
226.2459	4
226.6012	3
227.0542	25
227.7267	3
228.0223	16
228.1722	6
228.5020	3
228.6805	3
229.0599	24
229.5447	2
229.6926	2
230.0638	17
230.4754	1
230.6883	3
231.0652	28
231.3201	3
232.0288	15
232.2920	1
232.4111	6
233.0615	76
233.7191	2
234.0487	40
234.4744	3
234.7197	3
234.8542	10
235.0654	34
235.2188	3
235.5506	4
235.7954	4
236.0945	11
236.6447	2
236.8100	10
237.0291	39
237.2097	5
237.4867	1
238.0463	16
238.2920	4
239.0179	22
239.4696	3
239.7063	2
239.9947	13
240.1372	7
240.5492	3
240.6917	4
240.8161	2
241.0396	28
241.6608	3
242.0346	11
242.4050	2
242.5155	1
242.7965	5
243.0852	31
243.3635	4
243.5285	3
244.0215	11
244.1823	3
245.0637	28
245.4296	3
246.0636	21
246.3198	3
247.0499	24
247.4287	3
247.9966	6
248.1150	5
248.2865	4
249.0305	22
249.3731	3
249.5118	0
249.8383	2
250.1018	13
250.3408	2
250.5069	3
251.0376	30
251.1673	12
251.3510	2
251.7583	6
252.0557	13
252.3636	2
252.4800	0
253.0552	40
253.5224	3
253.9140	8
254.0971	10
254.2031	6
254.4557	3
254.7849	3
255.0530	17
255.4658	3
255.5782	3
255.8478	3
256.1757	8
256.3997	3
257.0501	23
257.3844	3
258.0349	11
258.6546	2
259.0776	34
259.6814	3
259.8276	4
260.0905	15
260.4251	4
260.7823	3
261.0600	30
261.8252	1
262.0031	9
262.1445	11
262.2803	3
263.0767	26
263.4567	2
264.0753	9
264.5321	3
264.6884	4
264.7869	2
265.0389	22
265.3480	2
265.5551	3
266.0452	13
266.4980	1
266.6185	2
266.7593	2
266.8756	5
267.0799	21
267.3771	3
267.7724	2
268.0388	9
268.1508	3
268.4820	3
269.0155	10
269.1868	6
269.4286	0
269.6542	3
269.8283	2
270.0257	16
270.2034	3
270.7993	3
271.0962	27
271.5850	3
271.8819	2
272.0498	11
272.2234	7
273.0150	20
273.7165	3
273.8336	1
274.0101	4
274.1569	4
274.2826	6
274.4880	2
274.7132	2
274.8516	4
275.0521	12
275.2328	2
275.7384	1
276.0477	10
276.6002	0
277.0802	12
277.2684	9
278.0621	10
278.2744	3
278.4450	3
278.8575	6
279.1304	11
279.8519	2
280.1143	20
281.1048	28
281.5508	4
281.6764	3
282.1697	89
282.5790	3
282.8494	5
283.1085	16
283.2596	7
283.7735	0
284.1471	18
284.3871	6
284.6859	1
284.8822	9
285.1082	15
285.6267	3
285.9474	12
286.0555	5
286.1975	3
287.0623	18
287.4249	3
287.8970	2
288.0772	8
288.2751	4
288.8018	4
289.0775	16
289.2034	8
289.2960	5
289.5463	2
289.8984	3
290.0738	9
290.2733	2
290.4253	2
290.6035	2
291.0251	9
291.2366	6
291.4000	2
292.0322	10
292.1502	9
292.6705	3
292.8430	2
293.1187	12
293.2876	3
293.3936	2
293.7818	3
294.0929	11
294.2061	6
295.0455	7
295.3992	2
295.7479	0
295.9749	8
296.1384	6
296.4582	2
296.7072	4
297.0355	12
297.1508	7
297.3638	1
297.9010	6
298.0885	6
298.2223	6
298.6088	3
298.7588	3
298.9485	12
299.1375	7
299.7471	2
300.0530	11
300.1741	4
301.0295	18
301.3589	2
301.6514	3
302.0417	13
302.1962	3
302.8026	7
303.1101	12
303.4587	0
303.9973	8
304.2064	3
304.9662	7
305.1668	4
305.4227	3
306.0629	10
306.1913	5
306.9925	18
307.2733	1
307.5946	1
307.9713	7
308.1238	4
308.2323	1
309.0183	9
309.7172	2
309.9492	6
310.0947	5
310.4765	3
310.7668	3
311.0826	12
311.3090	6
311.3928	3
311.9195	8
312.0515	13
312.1992	3
312.8026	5
312.9503	5
313.1662	8
313.9402	7
314.0326	5
314.6064	2
314.8685	9
315.0156	17
315.3928	1
315.6158	2
315.8013	3
316.0286	7
316.1046	4
316.2069	2
316.5302	2
316.7114	1
316.9282	3
317.1016	5
317.5208	3
317.9636	2
318.0823	5
318.2458	3
318.5927	2
318.7469	3
319.0690	8
319.6570	2
319.8127	1
320.0829	7
321.0187	9
321.1758	9
321.2591	3
321.8288	4
322.1019	12
322.8425	4
323.0417	12
323.1377	8
323.3085	3
324.0364	6
324.6164	1
324.7864	4
325.0804	13
325.5039	2
325.9310	4
326.1324	10
327.0280	17
327.1555	5
327.2530	2
327.5015	3
327.9900	4
328.2628	3
328.6730	3
329.0412	7
329.3688	2
329.4871	2
329.6758	1
330.0363	7
330.1888	8
330.3882	3
330.9204	8
331.1648	10
331.7691	3
331.9807	7
332.1447	10
332.4019	4
332.5573	3
332.8880	3
333.0398	6
333.1952	5
333.9237	2
334.0955	5
334.4826	1
335.1307	12
335.3575	4
335.7169	3
336.1005	5
336.2529	4
336.3582	3
336.7412	3
337.1064	12
337.2844	3
337.4510	3
338.0591	2
338.2250	3
339.0475	11
339.2861	5
339.5824	3
340.0909	5
340.2127	4
341.0205	5
341.1523	2
341.4309	2
341.5478	3
341.9760	0
342.1755	8
342.2581	3
342.5311	2
342.6736	1
342.8140	3
343.0178	13
343.1674	5
343.9992	4
344.1653	6
344.8560	1
345.0741	6
345.3008	3
346.0331	6
346.2798	5
346.5621	1
346.9115	4
347.1754	6
347.4357	2
347.5705	2
347.6675	2
347.9135	4
348.0762	6
348.2751	4
348.9449	4
349.1682	4
349.2510	1
349.5249	2
349.8588	1
350.0236	5
350.1970	3
350.7435	3
351.1339	4
351.3030	2
351.4843	4
351.6855	4
352.1187	5
352.2693	3
352.8938	6
353.0494	9
353.2193	12
353.4820	1
354.0710	7
354.2858	4
355.0841	11
355.2483	4
355.3254	2
355.8802	6
356.0988	4
356.2238	3
356.5966	2
356.8558	6
356.9829	5
357.1187	5
357.2558	3
357.4193	2
358.0494	8
358.2144	3
358.6437	2
358.7788	3
358.9638	3
359.1867	3
359.8098	1
360.0891	3
360.2249	8
360.9488	5
361.0796	6
361.2047	5
361.3347	3
361.4598	3
361.9887	4
362.1960	4
362.8701	3
363.0567	5
363.2831	2
363.4808	3
363.9113	2
364.1875	3
364.3182	3
364.5945	2
364.9543	2
365.1028	0
365.8855	2
366.0690	3
366.3018	2
367.1938	5
367.3452	3
367.9795	3
368.2031	3
368.4453	3
368.8811	5
369.1461	9
369.3790	3
369.6448	3
369.7934	3
369.9256	4
370.1057	4
370.1943	4
370.7080	3
371.1111	21
371.3498	3
371.5091	3
371.6113	1
371.8758	2
372.0902	3
372.2303	5
373.0873	5
373.3032	3
373.5948	2
373.9008	1
374.1639	8
374.2626	4
374.9446	1
375.1663	4
375.2643	3
375.6690	2
377.1322	4
377.2702	1
378.1348	2
378.2884	3
378.7349	2
378.8728	3
379.1743	7
380.2339	1
381.1728	4
381.4137	3
381.5516	3
381.9976	3
382.1705	0
382.9053	3
383.0497	5
383.2470	7
383.3571	4
384.0498	10
384.1863	2
384.2871	3
384.8040	3
384.9656	5
385.0857	7
385.2895	1
386.0796	5
386.2434	2
387.0622	5
387.3132	1
387.6551	3
388.0449	5
388.3582	1
388.8889	3
389.0456	4
389.2144	5
389.4648	3
389.8490	2
389.9727	4
390.0980	2
390.2968	1
390.6624	3
391.1147	3
391.3458	2
391.5962	2
391.9934	6
392.2023	7
392.7162	2
393.2057	4
394.0131	3
394.1734	2
394.3051	4
394.4096	2
395.0875	4
395.2965	3
395.4240	3
396.3189	4
396.8781	6
397.2146	2
397.3392	3
397.6006	2
397.7445	1
398.0897	5
398.2666	6
399.1976	7
399.3115	3
399.8021	3
400.1466	4
400.4554	2
400.6896	2
400.7957	3
401.0098	3
401.1846	6
401.3358	2
402.0637	2
402.8102	2
403.0660	8
403.2323	7
403.3777	3
403.5361	3
404.0162	5
404.1187	5
404.1954	3
404.3710	1
404.7443	4
404.9300	4
405.1005	9
405.2711	4
405.5385	3
406.1814	3
406.4731	1
406.7312	2
406.9111	4
407.1864	13
407.4229	3
407.7714	2
408.1936	10
408.8870	2
409.0210	4
409.1695	10
410.2120	3
410.3487	2
410.7108	2
411.0586	5
411.2519	4
411.8352	2
412.1208	2
412.2675	2
412.4615	2
413.0134	5
413.2110	5
413.3191	5
413.6921	0
414.2054	7
414.4460	3
415.1799	7
415.4090	3
415.9088	2
416.0886	4
416.2017	3
416.3958	5
416.5497	3
416.9236	5
417.1943	8
417.9506	3
418.1203	3
419.1625	7
420.1246	9
420.5157	3
420.7500	4
421.1799	8
421.9308	3
422.0297	4
422.2833	5
423.0443	7
423.1747	3
423.2751	4
423.5925	2
423.9480	3
424.0598	5
424.4525	1
424.6167	1
425.0159	4
425.2582	3
425.6890	3
425.8775	2
426.1033	5
427.0779	2
427.3471	3
427.6451	3
428.0053	3
428.1764	3
428.3125	3
428.5138	3
428.6355	3
428.8518	1
429.0567	7
429.2694	3
429.5452	2
430.1282	2
430.2557	3
430.5709	3
431.0201	3
431.1655	5
431.3525	2
431.7823	3
432.0066	3
432.1750	6
432.3469	5
432.7446	6
433.0992	18
433.2941	10
433.4102	7
433.6639	2
433.8273	3
434.0007	10
434.1540	11
434.2938	6
434.4127	5
434.6413	2
435.1974	93
435.4311	33
435.8253	2
436.0582	12
436.2496	15
436.6739	3
436.7893	4
437.0602	8
437.3047	2
437.7979	3
438.0129	3
438.1097	2
438.2230	1
438.9420	7
439.0567	3
439.1786	3
439.3127	3
439.4912	3
439.7737	3
440.0139	3
440.2332	4
440.7452	3
440.9517	3
441.0916	3
441.2823	3
442.1665	4
442.4598	1
442.9962	4
443.2200	3
443.8519	2
444.1596	2
444.4486	2
444.8676	5
445.1143	11
445.2140	9
445.3532	11
446.0698	1
447.0714	5
447.2249	5
447.5535	0
447.7436	4
447.9904	3
448.2344	4
448.5200	1
448.9828	5
449.2555	3
449.3746	3
449.5375	3
449.6961	1
450.0147	5
450.1403	6
450.5350	3
451.0919	2
451.4953	3
452.0171	3
452.1843	3
452.2877	3
452.8993	4
453.0076	3
453.3371	2
453.5309	3
454.1792	3
454.3199	3
454.4750	1
455.0479	4
455.2568	4
455.4550	4
456.5916	5
456.8515	2
457.2508	4
457.4633	3
457.7075	3
458.1082	5
458.2640	3
458.3473	3
458.7509	3
458.8716	3
458.9779	2
459.1258	8
459.2659	3
459.5682	0
459.8570	4
460.1802	4
460.9774	4
461.1197	2
461.2791	3
461.3661	3
461.5729	1
462.1339	5
462.3626	2
463.0287	0
463.3220	6
464.7094	3
465.1806	9
465.3391	6
465.7077	3
465.8640	1
465.9852	3
466.1753	2
466.3072	3
466.7540	3
466.9950	4
467.2238	4
467.4899	0
468.1634	4
468.3262	3
469.0608	3
469.1848	3
469.6906	2
470.0557	2
470.2379	6
470.4159	3
470.6576	2
470.7624	3
471.2452	3
471.6700	2
471.8615	2
472.1543	3
472.3975	6
472.5374	2
473.3339	5
473.4925	4
473.7687	3
474.2409	4
474.4153	3
474.9385	2
475.0741	4
475.2198	2
475.4423	4
475.6468	2
475.9877	3
476.2684	6
476.6028	3
476.9057	2
477.1347	3
477.7664	2
477.8884	4
478.1662	2
478.3715	3
478.6723	2
478.7757	1
478.9953	6
479.1533	6
479.2810	1
479.7118	2
480.0550	3
480.3314	2
480.4979	2
480.7004	3
480.9955	2
481.2626	3
481.4263	3
481.6761	4
481.8499	2
482.2858	4
482.5113	3
483.0548	7
483.2674	3
483.4627	2
483.7823	3
483.9374	2
484.0279	3
484.1529	3
484.6190	1
485.0484	7
485.2129	12
485.3257	2
485.4219	1
485.6014	2
485.9031	3
486.0798	4
486.2127	5
486.3865	6
486.6278	3
487.0128	1
487.3038	8
487.6098	3
487.9833	4
488.1995	15
488.3748	4
488.5041	3
488.7592	3
489.0049	3
489.1342	3
489.2563	3
489.4747	2
490.0114	3
490.4884	5
490.6936	3
491.2416	1
491.4160	2
492.0021	3
492.2273	3
492.8149	2
492.8996	1
493.1758	2
493.3903	1
493.5317	3
493.6616	4
494.1617	3
494.9108	4
495.2394	6
495.4805	3
495.7511	3
496.2548	38
496.6373	2
496.9725	3
497.1662	8
497.3722	5
497.7023	2
497.9349	3
498.0634	3
498.2119	2
498.4359	3
498.7653	3
498.9641	3
499.1113	3
499.3187	6
500.0056	3
500.0903	1
500.1966	3
500.2841	3
500.3789	1
500.7507	2
501.0307	4
501.2647	5
501.4341	4
501.9496	3
502.1362	5
502.3444	4
503.0538	1
503.2627	5
503.6640	1
504.1602	3
504.2751	3
504.4043	3
504.6319	3
504.8976	4
505.6142	1
506.1320	0
506.5815	2
506.9355	3
507.1754	6
507.3765	3
507.4641	3
507.5603	4
507.6623	4
507.9948	6
508.2002	5
508.3848	7
509.1813	4
509.3717	4
509.5369	2
509.9657	4
510.0899	4
510.2602	3
510.5453	2
511.1308	2
511.2601	3
511.4037	7
512.1681	11
512.3304	3
512.5927	4
513.1702	7
513.2895	3
513.4102	8
513.5194	2
513.8851	3
513.9728	3
514.1495	3
514.2738	6
514.4606	3
514.8824	1
515.1411	6
515.2912	6
515.4500	1
515.9975	1
516.1901	3
516.6191	2
516.8279	1
516.9871	1
517.3227	1
517.5192	1
517.9831	2
518.1315	4
518.7711	1
518.9676	2
519.1784	3
519.2824	3
519.5872	3
519.7751	4
521.1857	3
521.2754	3
521.5723	3
522.0076	4
522.1791	3
522.2888	2
522.5549	3
522.7643	3
522.8525	1
523.0548	1
523.2958	3
523.3898	3
523.9005	2
524.1832	6
524.2700	4
524.5411	4
524.6788	3
525.0726	3
525.3603	4
525.6021	3
526.1351	3
526.4357	4
526.7958	2
526.9896	3
527.2600	7
527.4114	6
527.5449	6
527.7292	2
528.0270	2
528.1569	1
528.4897	4
528.7014	1
528.8442	4
529.0265	5
529.2812	10
530.0576	18
530.2406	13
530.3705	7
530.5283	3
530.6123	2
531.0342	3
531.2094	6
531.3414	6
531.4634	6
532.1121	4
532.4415	6
533.0487	3
533.5475	2
533.9868	3
534.1891	4
534.5674	3
534.9091	2
535.4761	2
536.3332	2
536.4753	3
537.1623	3
537.2865	3
537.4717	7
537.5952	1
537.7940	5
537.9405	3
538.1781	4
538.3239	2
538.8321	2
539.0015	4
539.1925	3
539.3684	4
539.5443	4
539.7202	1
540.0498	7
540.1970	3
540.3190	2
540.4446	3
540.7872	3
540.9688	3
541.0938	7
541.2582	8
542.1213	10
542.3145	6
542.4207	9
542.5966	6
542.8925	2
543.2278	9
543.4648	10
543.7226	3
544.2239	27
544.3568	11
544.5657	8
544.7999	7
545.0878	7
545.4067	10
545.6688	5
545.9210	7
546.0588	3
546.3246	7
546.4682	2
546.6176	3
546.6873	2
546.8245	1
547.1003	4
547.5521	2
547.7043	3
548.0894	4
548.2308	4
548.4384	2
548.7495	5
549.2487	6
549.4872	4
549.6366	4
549.7487	3
549.9089	4
550.1682	5
550.9398	3
551.2789	7
551.4319	7
551.7566	3
551.8795	3
552.2890	21
552.4550	10
552.6008	9
552.7668	4
553.0347	4
553.1871	2
553.3933	8
553.5427	4
553.6490	3
553.9393	2
554.1039	0
554.2368	1
554.3475	3
554.6241	3
554.7750	2
554.9719	5
555.3161	18
555.5618	4
555.6998	3
555.8960	4
556.0246	4
556.2912	7
556.5054	5
556.8122	4
557.0536	4
557.2434	7
557.5172	8
557.8104	9
558.1597	15
558.5032	15
558.7936	13
559.0681	17
559.3843	16
559.7689	17
560.0327	9
560.1620	7
560.3481	16
560.6342	19
560.7838	12
560.9604	17
561.0681	10
561.3649	6
561.7766	17
562.0492	13
562.2184	14
562.4078	16
562.7420	20
562.9930	18
563.4758	22
563.8065	14
563.9973	18
564.1952	22
564.4620	14
565.0869	33
565.8795	29
566.5890	28
567.7504	47
568.5820	37
569.2284	52
570.3678	999
570.9131	55
571.3558	52
571.7749	13
572.1724	28
572.5319	10
573.3148	89
573.5430	36
573.7440	20
574.1480	13
574.4523	12
574.7415	8
575.1097	1
575.3723	11
575.6652	8
575.9487	9
576.2084	8
576.3190	3
576.5889	7
576.7827	12
576.9484	11
577.0633	4
577.2413	7
577.4537	5
577.6339	5
577.8951	11
578.0631	6
578.1938	5
578.4514	12
578.7651	13
579.0034	6
579.1836	3
579.4111	8
579.8275	18
580.1068	4
580.6660	13
581.1039	13
581.2711	11
581.7744	22
582.0335	10
582.3336	18
582.6165	15
582.8979	14
583.4759	23
583.9612	30
584.3425	18
584.5579	38
588.2922	999
589.1723	232
589.6766	117
590.3910	59
590.9075	40
591.3731	24
591.8293	15
592.3509	14
592.5496	9
592.7211	11
592.9191	8
593.0619	9
593.2477	4
593.4708	5
593.6530	8
593.8568	6
594.0161	6
594.2170	2
594.3217	2
594.5183	5
594.6317	3
594.7637	1
594.8942	1
