Mass spectrum: Fucoxanthin; FAB-EBEB; MS2; m/z: 658.42; [M]+*
Name: Fucoxanthin
Formula: C42H58O6
Exact mass: 658.42334
SMILES: CC(O)(C1=C=CC(=CC=CC(C)=CC=CC=C(C)C=CC=C(C)C(=O)CC(C3(C)C)(O2)C(C)2CC(O)C3)C)CC(OC(C)=O)CC1(C)C
InChI: InChI=1S/C42H58O6/c1-29(18-14-19-31(3)22-23-37-38(6,7)26-35(47-33(5)43)27-40(37,10)46)16-12-13-17-30(2)20-15-21-32(4)36(45)28-42-39(8,9)24-34(44)25-41(42,11)48-42/h12-22,34-35,44,46H,24-28H2,1-11H3/b13-12+,18-14+,20-15+,29-16+,30-17+,31-19+,32-21+/t23?,34-,35-,40+,41+,42-/m0/s1
Instrument: JMS-HX/HX 110A, JEOL
Instrument type: FAB-EBEB
Ms type: MS2
Ion mode: POSITIVE
Collision energy: 3 kV
Ionization: FAB
Base peak: 109.0848
Precursor m/z: 658.42
Precursor type: [M]+*
m/z	relative intensity
2.0017	1
11.9999	0
14.0139	1
15.0249	5
18.1906	0
18.9949	0
22.9872	1
25.0113	0
26.0076	2
27.0169	20
27.9994	1
29.0218	16
30.0238	0
31.0080	3
36.9447	1
37.2341	0
37.4716	0
37.9955	4
38.3781	0
39.0120	43
40.0171	7
41.0297	111
42.0016	5
42.3226	0
43.0082	797
44.0072	4
45.0114	6
45.4965	0
48.0872	0
48.9646	1
49.9925	9
51.0183	24
52.0207	11
52.2969	1
53.0265	62
54.0243	4
55.0367	128
55.7177	0
56.0380	4
57.0460	54
58.0438	6
59.0389	21
59.9855	0
61.0189	5
62.0087	7
62.3735	1
63.0276	22
63.9851	4
64.4255	1
65.0278	44
66.0285	11
67.0360	97
68.0490	6
69.0336	183
70.0452	8
70.5429	0
71.0348	69
72.0431	1
73.0702	1
73.5019	0
74.0115	5
74.5966	0
75.0376	9
76.0076	7
77.0239	148
77.5187	1
78.0325	28
79.0346	124
79.6997	0
80.0258	14
81.0496	125
81.6751	1
82.0215	7
83.0587	505
84.0478	8
85.0597	151
86.0444	4
87.0232	59
88.0104	3
88.2983	0
89.0290	20
89.4274	2
90.0258	8
91.0381	355
92.0429	31
93.0517	233
94.0439	19
94.4737	2
95.0546	223
96.0355	14
96.3805	1
97.0433	50
97.4743	1
98.0249	7
99.0353	24
99.6811	1
100.0228	5
101.0227	9
101.4456	2
102.0337	23
103.0424	77
104.0502	27
105.0585	459
106.0599	44
107.0693	249
108.0490	26
109.0848	999
110.0667	10
111.0608	86
111.7011	0
112.0760	9
113.0431	48
113.4476	3
114.0664	11
115.0429	246
116.0317	82
117.0496	230
118.0447	44
119.0583	490
120.0552	47
121.0536	227
122.0474	29
123.0489	76
123.4062	3
124.0597	6
124.4021	2
125.0565	127
126.0161	14
127.0560	187
128.0339	288
129.0287	355
130.0310	125
131.0379	305
132.0399	69
133.0479	272
134.0338	39
135.0429	329
136.0313	22
137.0382	139
137.5265	2
138.0213	14
139.0260	63
140.0083	19
141.0317	268
142.0264	237
143.0381	438
144.0462	122
145.0444	403
146.0342	76
147.0394	376
148.0425	37
149.0451	274
150.0695	12
151.0455	79
152.0369	125
153.0325	180
153.5283	16
154.0388	87
155.0604	334
156.0639	221
157.0779	442
158.0592	112
159.0624	380
160.0649	55
161.0635	201
162.0598	21
162.4469	3
163.0683	62
164.0535	24
164.4736	5
165.0703	288
166.0766	107
167.0774	215
168.0855	94
169.0944	317
170.0994	147
171.1101	299
172.0956	103
172.5756	13
173.1095	223
174.1064	32
175.1046	102
176.0821	21
177.1042	50
178.0962	144
179.0906	239
180.0939	106
181.0996	295
182.1044	113
183.1082	297
184.1194	90
185.1034	242
185.5670	11
186.1062	51
187.1080	98
188.0629	24
189.0842	99
190.0831	34
191.0843	102
192.0846	93
193.0888	231
194.0937	118
195.0975	314
196.1020	99
197.1088	297
198.1063	74
199.1111	174
199.5674	6
200.1082	75
201.0976	76
202.0710	75
203.0848	95
204.1124	41
205.0909	112
206.1064	91
207.1010	212
208.1044	114
209.1084	255
210.1129	89
211.1147	244
212.1120	52
213.1148	156
214.1132	24
215.0754	159
216.0831	46
216.5154	5
217.0981	91
218.0918	46
219.1028	128
220.1143	69
221.1230	174
222.1472	69
223.1368	192
224.1503	49
225.1425	134
225.5935	6
226.1419	48
227.1384	69
228.1622	41
229.1277	113
230.1373	37
231.1306	108
232.1395	63
233.1555	131
234.1653	53
235.1638	144
236.1508	47
237.1788	115
238.2005	33
239.1770	99
240.1255	16
241.1810	51
242.1460	25
243.1637	71
244.1632	40
245.1614	93
246.1634	52
247.1675	117
248.1618	41
249.1735	120
250.1804	34
251.1793	78
252.1532	31
253.1731	63
254.1190	14
255.1769	60
256.1641	33
257.1669	66
258.1565	30
259.1634	82
260.1741	29
261.1885	86
262.1744	24
263.1929	92
264.1676	19
265.1852	70
266.1775	18
267.1768	44
268.1893	16
268.5376	5
269.1630	40
270.1488	18
271.1691	54
271.7014	4
272.1828	32
273.1918	76
274.1858	27
275.1903	79
276.1780	16
277.1900	45
278.1409	14
279.1688	44
280.1851	16
281.1777	48
282.1964	12
282.6639	4
283.1862	34
284.1952	21
285.2147	58
286.1780	19
287.1743	76
288.1931	13
289.2003	53
290.1736	14
291.2172	36
292.1876	15
293.2300	23
294.2198	10
295.2115	22
296.2513	8
297.2060	25
298.2122	17
299.1878	46
300.2099	17
301.2084	61
302.1659	19
303.2077	59
304.2094	14
305.2060	37
306.1138	8
307.2034	22
307.7740	2
308.2231	6
309.2053	12
310.1500	5
311.1841	30
311.6969	2
312.2012	11
313.2204	31
314.2295	10
315.1908	48
316.2021	13
317.2376	36
318.2047	17
319.2029	22
320.2272	5
321.1605	12
321.7090	1
322.1801	5
323.1843	14
324.1080	6
324.6688	1
325.2039	16
326.2122	10
326.5737	2
327.2191	32
328.1935	18
329.1767	38
330.1411	10
331.2091	27
331.6657	3
332.1826	8
333.2321	18
334.1956	7
334.4766	2
335.2352	11
336.1250	5
337.1788	9
337.9274	3
338.3001	4
339.1973	17
340.2414	5
341.2304	39
342.2352	9
343.2091	28
344.2419	9
345.2576	38
346.2027	8
347.2205	14
348.2489	6
348.5376	2
349.2533	5
350.2534	2
350.6627	1
351.2066	8
351.7075	1
352.2395	4
352.7456	2
353.2898	17
354.1882	8
355.2458	18
356.2552	7
357.2440	13
357.7748	2
358.2140	4
359.2585	15
360.1787	5
360.7616	1
361.3204	5
362.2011	5
363.2982	5
364.2190	5
365.2646	9
366.1476	7
366.4108	3
367.3078	12
368.2603	4
368.6050	2
369.3135	13
370.3028	7
371.2541	16
372.2506	5
373.2646	12
374.2632	3
374.6689	2
375.3399	5
376.3683	3
377.3222	7
378.1479	2
379.2199	10
379.9071	1
380.3658	5
381.2764	17
382.2996	8
383.3230	15
384.3708	4
385.2872	14
386.2729	6
387.3125	8
387.6349	4
388.3211	5
389.3142	5
390.2780	3
390.7877	2
391.3494	6
392.2095	2
393.2968	19
393.7181	3
394.2293	10
394.4997	4
395.2917	13
395.7753	2
396.2416	4
397.2401	7
398.2978	5
399.2845	68
399.8273	4
400.4083	4
401.3501	6
402.3459	4
403.2637	5
403.8450	2
404.1573	1
404.4246	1
404.7786	1
405.2871	4
405.7002	2
406.2365	3
406.5993	1
407.2607	6
407.6322	3
408.3458	6
409.2678	11
410.0527	3
410.4608	3
411.2563	8
412.4009	3
413.2783	13
414.3242	4
414.7881	1
415.2695	6
415.6518	1
416.2531	2
416.5486	0
417.3342	5
418.3563	4
419.2917	5
419.5872	2
420.2601	6
421.3974	3
421.7278	1
422.2670	1
422.6339	1
422.9505	2
423.2845	3
424.0464	1
424.4848	1
425.2538	4
425.7549	1
426.2664	4
427.2914	7
428.3070	6
429.2909	12
429.8455	2
430.4106	2
431.1252	6
431.4956	3
431.7721	2
432.3268	14
433.2990	7
434.2800	7
434.5096	3
435.2942	10
435.9066	1
436.5103	2
437.3072	1
438.0015	2
438.3792	0
439.0196	2
439.3851	2
439.8115	1
440.3389	2
441.3572	3
442.2642	5
443.3228	8
443.7128	1
444.3797	9
445.4002	7
446.2787	6
446.8144	1
447.3275	2
448.1398	2
448.7295	1
449.3123	9
449.9281	2
450.3387	1
451.2435	3
452.0074	1
452.4686	1
453.1908	2
453.5459	1
454.3256	1
455.3666	6
456.2022	2
456.9961	1
457.4052	4
457.7883	2
458.3193	2
459.3206	8
460.2976	17
461.3357	33
462.3268	4
463.3354	2
464.1020	1
464.5689	1
465.0829	2
465.4140	2
466.1807	1
466.5955	2
467.3431	3
467.7091	1
468.2842	1
469.3596	3
469.5985	2
470.3690	4
470.8902	1
471.3383	7
473.3573	44
474.4211	6
475.3838	28
476.3535	15
477.3547	31
478.1642	3
479.1899	2
479.9227	2
480.3328	1
481.2349	3
481.6903	1
482.2068	2
482.5629	3
482.8177	1
483.4114	2
483.8483	1
484.3567	2
484.6039	1
484.9139	2
485.4310	6
486.2094	7
486.4583	3
487.3709	15
488.3409	69
489.3320	52
490.1140	4
490.9554	1
491.5808	1
492.5286	2
493.3457	2
493.8266	2
494.0862	2
494.3441	1
494.6421	1
495.3897	3
496.3517	1
496.6863	1
497.3259	6
498.5303	3
499.3880	8
500.3416	20
501.3667	5
502.3901	7
503.3492	13
504.2473	3
504.7111	2
505.3965	6
506.3802	2
507.3954	2
508.3896	1
508.8851	1
509.4398	1
510.0034	2
510.3959	1
511.0380	1
511.6364	3
512.2280	4
512.5574	3
513.3937	9
514.4009	13
515.3629	41
516.3651	10
516.9698	1
517.5555	2
518.1621	2
518.6154	2
519.3248	3
519.7275	1
520.4039	4
521.4658	2
522.3463	1
523.3000	5
523.6366	2
524.3847	3
525.3352	4
525.5201	2
526.3171	2
526.9520	2
527.4561	1
527.8067	1
528.4329	4
528.7958	2
529.4360	7
529.8494	2
530.8439	5
531.7093	2
532.2222	3
532.5398	2
532.8923	2
533.5554	3
534.4052	2
535.2272	1
535.6984	2
536.5030	2
537.3338	4
537.5782	4
537.8801	1
538.2415	2
538.6378	2
539.4233	10
540.2996	3
540.6572	3
541.4502	6
542.1909	6
543.6516	9
545.6772	6
546.4966	6
547.3753	8
548.7842	7
549.2933	7
550.0222	5
550.3379	4
551.2151	7
552.3574	13
553.3725	3
554.0074	4
554.4818	4
555.4517	6
556.5560	7
557.3934	17
558.4315	26
559.3597	21
560.5078	4
561.3856	7
562.3157	8
563.9230	8
565.2513	18
565.5463	7
566.3928	36
567.3424	6
567.8976	7
569.1266	7
569.8738	5
571.1606	6
572.4562	19
573.4097	4
573.9807	2
574.5256	4
575.3359	1
575.9349	1
576.6301	1
577.1034	2
578.4431	21
579.4039	32
580.4817	20
581.4531	22
582.5624	6
583.4536	14
584.4722	8
586.3594	6
587.1406	5
587.9289	3
588.7295	3
589.3058	4
589.7280	3
590.1362	3
590.7582	2
591.4678	5
592.4472	2
592.9571	1
593.3689	2
593.5967	1
593.9384	1
594.2397	1
594.5727	2
595.1002	2
595.4244	3
596.3409	3
597.5099	17
598.6106	46
599.5746	92
600.4160	9
601.6413	5
602.3845	3
603.1998	3
604.1237	2
604.8530	3
605.0669	1
605.7244	2
606.5555	2
607.5673	1
608.1775	2
608.5598	2
608.8456	2
609.9066	2
610.7221	5
611.7691	3
612.7797	5
613.2584	2
614.6860	28
615.6245	45
616.6515	27
617.5345	3
618.4367	3
619.2886	4
620.0156	4
620.7288	2
621.6571	4
622.6375	7
623.2709	3
623.8922	3
625.5287	21
626.0876	2
626.4747	7
627.0439	2
627.6479	3
628.5315	10
640.4821	840
641.5289	57
643.5181	160
658.3661	999
661.6279	185
662.9924	60
664.3638	26
665.8469	15
667.2081	9
668.5640	7
669.6779	6
670.4866	6
