Mass spectrum: beta-Tocotrienol; FAB-EBEB; MS2; m/z: 416.33; [M-H+Li]*+
Name: beta-Tocotrienol
Class: Natural Product; Lipid
Formula: C28H42O2
Exact mass: 410.31848
SMILES: C(=CCCC(C2)(C)Oc(c(C2)1)c(cc(O)c(C)1)C)(C)CCC=C(C)CCC=C(C)C
InChI: InChI=1S/C28H42O2/c1-20(2)11-8-12-21(3)13-9-14-22(4)15-10-17-28(7)18-16-25-24(6)26(29)19-23(5)27(25)30-28/h11,13,15,19,29H,8-10,12,14,16-18H2,1-7H3/b21-13+,22-15+/t28-/m1/s1
Instrument: JMS-HX/HX 110A, JEOL
Instrument type: FAB-EBEB
Ms type: MS2
Ion mode: POSITIVE
Collision energy: 3 kV
Ionization: FAB
Base peak: 416.3717
Precursor m/z: 416.33
Precursor type: [M-H+Li]+*
m/z	relative intensity
6.0015	4
6.1391	0
6.9999	40
12.7130	0
13.9792	0
15.0008	1
15.3029	0
18.6053	0
24.9892	1
25.9624	1
26.9851	8
27.9834	1
28.9952	6
29.8978	0
30.9737	0
32.9834	0
33.9295	0
34.9555	1
35.9396	0
36.4351	0
36.6744	0
36.9542	1
37.1670	0
37.9694	2
38.9764	14
39.9899	4
40.9910	35
41.9938	2
42.9981	22
43.9939	0
45.0019	0
46.0072	0
46.9978	0
47.2964	0
47.9752	0
48.4461	0
48.9531	0
49.0824	0
49.9785	3
50.9756	6
51.3057	0
51.9839	3
52.5063	0
52.9879	15
53.9928	2
55.0077	24
56.0142	2
57.0174	14
57.9862	0
58.9874	1
59.9895	0
60.2068	0
60.4177	0
60.9615	0
61.9606	2
62.4914	0
62.9889	4
63.5006	0
63.9894	4
64.4207	0
64.9904	6
65.9898	4
66.4307	0
66.9973	19
68.0021	9
68.6062	0
69.0119	64
70.0198	1
71.0259	6
72.0279	0
72.2615	0
72.5950	0
72.9935	0
73.9753	2
75.0158	3
75.5322	0
76.0107	4
76.2892	0
76.9833	17
77.3070	0
77.5478	0
78.0019	4
78.4346	0
79.0011	11
79.6140	0
79.9966	2
81.0053	15
82.0284	1
83.0096	6
83.9828	0
85.0355	2
86.0239	1
86.9869	1
88.0109	0
88.1649	0
88.6432	0
89.0063	2
89.5372	0
90.0158	1
90.5568	0
91.0057	17
91.5671	0
92.0056	2
93.0328	8
93.6822	0
94.0404	1
94.3588	0
95.0281	8
95.4928	0
96.0030	1
96.3801	0
97.0392	2
97.9772	1
99.0396	1
99.9879	0
100.3552	0
100.7444	0
100.9788	1
101.1710	0
101.6330	0
102.0209	2
102.3386	0
102.9910	4
103.4086	0
103.9977	1
105.0120	8
106.0299	1
107.0064	12
107.9884	2
109.0322	3
109.9833	0
110.9974	2
111.9791	0
112.4993	0
112.9977	2
113.4460	0
113.9934	2
114.4454	0
115.0018	6
115.6480	0
115.9766	2
117.0084	3
118.0161	1
118.4754	0
119.0026	4
119.4625	0
120.0019	1
120.3659	0
120.9969	12
121.9898	7
122.3005	0
123.0124	5
123.6738	0
123.9840	0
124.9815	2
126.0024	2
126.9977	18
127.3677	0
128.0056	45
128.5692	0
129.0060	6
129.6374	0
129.9933	4
130.3269	0
130.6178	0
131.0158	4
131.5938	0
132.0328	2
132.6091	0
133.0110	3
134.0116	2
134.5824	0
134.9925	12
135.9603	2
136.6397	0
137.0031	10
137.3764	0
137.9984	4
138.4527	0
139.0041	2
140.0387	3
141.0136	12
141.5327	0
142.0131	14
142.6039	0
143.0155	15
143.4834	0
144.0327	26
145.0387	8
145.3688	0
145.6135	0
146.0455	2
146.7138	0
147.0248	5
147.4996	0
148.0395	4
148.6697	0
149.0332	5
149.4099	0
150.0244	57
151.0390	270
152.0586	13
152.5415	0
153.0600	5
154.0681	11
154.5284	0
155.0399	41
156.0427	433
157.0516	115
157.4725	1
158.0545	50
159.0614	5
160.0285	2
161.0180	7
162.0484	5
163.0522	11
164.0324	8
164.5916	0
165.0450	5
165.6230	0
166.0274	2
167.0509	9
167.3572	0
168.0344	21
169.0546	9
170.0513	7
171.0363	3
171.5033	0
172.0471	3
173.0574	4
173.6104	0
174.0231	3
174.3920	0
175.0442	15
175.5967	0
176.0482	8
177.0418	12
178.0490	5
179.0654	3
180.0582	5
181.0425	21
181.4842	0
182.0527	56
182.5089	0
183.0567	19
183.5197	0
184.0721	2
184.7141	0
185.0571	1
185.6144	0
186.0713	2
186.6796	0
187.0770	3
188.0224	3
188.4400	0
189.0555	22
190.0659	9
191.0677	50
191.5367	0
191.7514	0
192.1231	5
193.0827	7
194.0835	11
195.0726	56
196.0931	66
197.1006	60
198.1197	4
198.4014	0
198.6055	0
199.1003	1
199.5297	0
200.1334	1
200.3543	0
201.1080	1
202.1519	1
203.1195	4
203.6162	0
204.1385	2
204.6365	0
205.1312	4
206.1133	1
206.3563	0
207.1385	5
207.5424	0
208.1207	5
208.6680	0
209.1376	14
210.1216	29
211.1348	40
211.5981	1
212.1527	6
213.1621	2
213.6502	0
214.0984	0
214.4710	0
215.1674	1
215.9952	1
216.2111	0
217.1538	1
218.1559	1
218.4309	0
219.1370	1
220.1062	1
220.6834	0
221.1292	1
222.0488	0
223.1326	3
223.7962	0
224.1475	5
224.4799	0
225.1572	6
226.1370	1
226.4093	0
227.2130	1
228.1052	0
228.4499	0
229.1561	0
231.1282	0
232.1118	2
233.1773	1
234.1402	1
235.1358	2
235.7371	0
236.1238	2
237.1590	1
237.5146	0
238.1598	1
239.1374	0
240.0089	0
240.2271	0
241.1223	0
241.4984	0
241.9797	0
242.4767	0
243.0634	0
243.3568	0
243.7016	0
244.1970	0
245.1624	1
245.3962	0
246.1548	1
246.7009	0
247.1620	1
248.1582	1
249.1468	2
250.1367	2
250.4179	0
251.2400	3
252.1363	1
252.7280	0
253.1953	0
253.3869	0
254.1468	0
254.4091	0
254.7578	0
254.9955	1
255.2612	0
255.7904	0
256.1739	0
256.3332	0
256.6393	0
257.1070	0
257.3930	0
257.8829	0
258.2056	1
258.5406	0
259.0819	1
259.3263	0
260.1557	3
261.1512	2
261.5067	1
262.1492	1
262.4699	0
263.1406	5
264.1580	16
264.6427	0
265.2339	11
265.7434	0
266.2585	8
267.2563	128
268.2543	4
268.5822	0
269.2986	1
270.2183	0
271.1101	0
271.9830	0
272.2077	0
273.1628	0
273.6100	0
274.1787	3
274.6261	0
275.0892	0
275.2926	0
275.5062	0
276.1864	1
277.1556	5
278.1723	38
279.1823	75
280.1960	13
281.1748	1
281.4989	0
282.2811	0
283.1388	0
285.1754	0
285.4445	0
286.1573	0
287.6294	0
288.1791	2
289.1706	0
290.1802	1
291.0513	1
291.2756	1
292.1785	6
293.1919	6
294.1627	1
295.1999	0
295.5862	0
299.2723	0
300.4207	0
301.1285	0
301.6312	0
302.1904	3
302.8127	0
303.2693	1
304.2323	1
305.1953	1
305.4153	0
305.6149	0
305.9217	0
306.2815	1
307.2652	0
308.1666	0
309.1731	0
310.9708	0
311.1966	0
312.1741	0
313.2229	0
314.2876	0
315.3005	0
315.5309	0
316.3113	1
316.5768	0
316.7823	0
317.1178	0
317.4183	0
318.2836	1
319.2526	1
320.2804	0
321.2384	0
322.0883	0
322.3149	0
323.7816	0
324.0940	0
324.4401	0
325.4978	0
326.2331	0
326.6967	0
327.1332	1
329.0114	0
329.2900	0
329.6736	0
330.2897	4
330.7780	0
331.3035	3
332.2676	10
333.2409	4
334.1974	1
335.0152	1
335.3367	0
335.6367	0
336.0587	0
337.8549	0
338.7971	0
340.2293	0
341.3863	0
342.3820	0
342.7128	0
343.2897	1
344.2788	2
345.2680	3
346.2674	34
347.2760	50
348.2565	3
348.6609	0
349.0676	0
349.8742	0
350.5385	0
351.7589	0
353.0788	0
353.4370	0
354.1479	0
354.4949	0
355.4840	0
356.1476	1
356.3646	0
356.6959	0
356.9140	0
357.3561	0
357.6399	0
358.3381	3
359.3013	1
360.2816	2
361.3117	8
362.2266	1
362.8253	0
363.0626	0
363.6964	0
364.0364	0
364.1867	0
364.5821	0
365.0284	0
366.3312	0
366.8883	0
367.5754	0
367.9959	0
368.1971	0
368.4163	0
369.0029	0
369.8846	0
370.3943	0
370.6148	0
371.2546	1
371.5248	0
372.3241	3
372.7836	0
373.3447	3
374.3598	1
375.1593	0
376.2672	0
376.5100	0
377.8416	0
379.1620	0
379.4863	0
380.3177	0
380.9153	0
382.6542	0
383.0689	0
383.2576	0
383.4599	0
383.7130	0
384.3278	0
385.2703	0
386.3146	2
387.2166	1
388.1638	1
388.4939	1
389.9127	0
391.1168	0
392.1989	0
392.7473	1
393.2189	0
393.6769	0
394.3871	1
395.0634	0
395.6301	0
396.0180	0
396.1922	0
396.5779	0
397.3177	1
398.3958	6
399.3585	4
399.7714	1
400.3734	15
401.3747	29
402.3453	1
402.6162	0
403.1591	0
403.6862	0
404.0881	1
404.6277	0
405.5523	0
406.4126	1
406.8394	1
407.5191	1
408.1943	2
410.3806	3
415.3967	184
416.3717	999
418.0359	27
418.6042	10
419.3229	5
419.8958	2
420.5783	1
421.1129	2
421.9254	1
422.3221	1
422.6895	1
423.4049	0
