Mass spectrum: Anhydrolutein-III; FAB-EBEB; MS2; m/z: 550.42; [M]+*
Name: Anhydrolutein-III
Formula: C40H54O
Exact mass: 550.41747
SMILES: C(=CC=C(C)C=CC(=C(C)2)C(C)(C)CC(C2)O)C(C)=CC=CC=C(C=CC=C(C=CC(=C1C)C(CC=C1)(C)C)C)C
InChI: InChI=1S/C40H54O/c1-30(18-13-20-32(3)23-25-37-34(5)22-15-27-39(37,7)8)16-11-12-17-31(2)19-14-21-33(4)24-26-38-35(6)28-36(41)29-40(38,9)10/h11-26,36,41H,27-29H2,1-10H3/b12-11+,18-13+,19-14+,25-23+,26-24+,30-16+,31-17+,32-20+,33-21+/t36-/m1/s1
Instrument: JMS-HX/HX 110A, JEOL
Instrument type: FAB-EBEB
Ms type: MS2
Ion mode: POSITIVE
Collision energy: 3 kV
Ionization: FAB
Base peak: 104.9595
Precursor m/z: 550.42
Precursor type: [M]+*
m/z	relative intensity
11.9639	1
12.9708	0
13.9726	1
14.9786	4
15.9851	0
17.9892	0
22.9324	1
24.2517	0
24.9431	1
25.9555	10
26.9572	60
27.1557	0
27.9631	4
28.9652	57
29.9390	0
30.9411	5
36.9346	9
37.2665	0
37.9369	19
38.2515	0
38.5555	0
38.9433	134
39.4925	0
39.9511	17
40.9602	290
41.2322	0
41.4686	0
41.9403	4
42.4217	0
42.9600	148
43.9364	3
44.9534	6
45.9885	0
47.9362	0
48.9260	4
49.1710	0
49.9300	42
50.1491	0
50.2856	0
50.6690	0
50.9340	85
51.3072	0
51.9431	25
52.9473	161
53.3231	0
53.9507	6
54.9594	329
55.9748	4
56.1521	0
56.9720	107
57.3420	1
57.9781	4
58.6265	0
58.9504	18
59.9050	1
60.9209	5
61.2366	0
61.9284	20
62.1330	0
62.6238	1
62.9290	66
63.3243	1
63.6990	0
63.9391	16
64.3988	0
64.9400	128
65.3678	1
65.9458	22
66.2551	0
66.9480	190
67.1212	1
67.5191	1
67.9517	6
68.4347	0
68.9580	206
69.4612	1
69.9609	3
70.4511	1
70.9448	29
71.6723	1
71.9688	1
72.9127	2
73.0846	1
73.2500	0
73.9102	20
74.1907	0
74.5200	0
74.9242	23
75.0529	3
75.9258	20
76.1270	1
76.3067	1
76.9249	384
77.1250	3
77.9308	63
78.1238	3
78.9403	334
79.1719	1
79.3476	0
79.6411	1
79.9477	32
80.3045	1
80.9505	326
81.1952	1
81.3798	0
81.9482	8
82.3860	1
82.9594	82
83.2783	0
83.7731	1
83.9505	3
84.1699	0
84.5177	0
84.9430	95
85.3791	0
85.9215	9
86.5451	0
86.9138	12
87.9239	5
88.0350	1
88.9313	36
89.0948	4
89.9393	11
90.9393	766
91.2674	2
91.9444	57
92.1738	1
92.9593	476
93.3709	1
93.9642	23
94.1272	1
94.9694	223
95.3140	2
95.5606	0
95.9633	7
96.4293	0
96.9616	23
97.1804	1
97.4542	0
97.9192	5
98.9313	5
99.9424	2
100.2124	0
100.9226	10
101.9435	39
102.9509	138
103.4338	2
103.9496	54
104.9595	999
105.3540	1
105.9643	88
106.9733	361
107.2681	2
107.9632	17
108.1884	1
108.4267	1
108.9815	165
109.3493	1
109.9557	4
110.2281	0
110.3896	1
110.9630	18
111.2137	1
111.5087	0
111.9653	1
112.9452	11
113.9314	13
114.9287	376
115.3150	3
115.9365	141
116.9355	366
117.3066	1
117.9426	66
118.9517	978
119.3136	3
119.9562	78
120.1897	1
120.9603	273
121.3432	2
121.9391	13
122.1592	1
122.3127	1
122.9683	40
123.2416	1
123.4542	1
123.7435	0
123.9612	3
124.9273	9
125.2391	1
125.4827	1
125.9063	16
126.9133	136
127.9215	438
128.9267	493
129.9319	203
130.9376	565
131.2627	4
131.9427	86
132.2964	4
132.9478	462
133.9312	28
134.9568	182
135.2181	2
135.9508	6
136.2162	1
136.9286	21
137.3240	1
137.4940	0
137.9106	7
138.4066	1
138.9152	52
139.9556	20
140.9245	347
141.9310	356
142.9366	599
143.9445	189
144.9515	616
145.9607	43
146.9746	157
147.9520	9
148.9697	51
149.9345	8
150.1935	3
150.9496	36
151.9300	132
152.9375	184
153.2630	4
153.9471	91
154.9595	374
155.9696	254
156.9780	547
157.9854	114
158.9936	346
159.9881	32
160.4512	3
161.0074	49
161.2296	1
161.9561	5
162.5577	2
162.9800	20
163.1419	3
163.9586	21
164.9703	296
165.9814	90
166.9846	245
167.9888	95
168.9925	340
169.9924	129
171.0064	284
172.0192	43
173.0123	221
173.9985	15
175.0248	130
175.9678	27
176.9725	33
177.9523	153
178.9595	242
179.9668	97
180.9689	252
181.3282	4
181.9768	106
182.9776	247
183.9931	59
184.9944	154
186.0022	24
187.0009	84
187.9560	9
188.4334	5
188.9494	78
189.2495	4
189.9492	29
190.9386	104
191.3706	3
191.9542	97
192.1700	4
192.9640	227
193.9717	111
194.9749	258
195.9767	64
196.9834	205
197.9830	30
199.0089	92
199.5240	4
199.9715	13
201.0113	53
201.9496	73
202.9536	82
203.9498	35
204.3103	2
204.9599	112
205.9673	87
206.3509	2
206.9733	185
207.4004	1
207.9855	71
208.9931	184
210.0024	35
210.3763	3
211.0063	80
211.3104	2
212.0172	14
212.2585	3
212.9987	29
214.0429	5
214.9713	68
215.9749	38
216.2315	2
216.9762	75
217.9975	49
218.9965	93
220.0115	49
221.0184	120
222.0421	39
222.2401	2
223.0420	83
223.3339	3
224.0117	16
225.0510	42
226.0038	18
227.0339	20
227.9962	27
228.3739	3
228.9999	58
230.0281	31
231.0124	65
232.0107	32
233.0140	86
234.0319	27
234.3263	1
235.0281	74
236.0416	19
236.4211	1
237.0567	49
237.3573	3
237.6644	1
238.0650	14
239.0319	38
239.9905	10
241.0378	27
241.2596	3
241.4736	2
241.6653	3
242.0115	18
242.2517	2
243.0098	46
243.3646	3
244.0051	23
245.0269	50
245.4075	3
246.0268	22
247.0309	63
247.4538	2
248.0400	18
248.3698	2
249.0585	44
249.3347	2
250.0407	15
251.0271	32
252.0161	20
253.0228	30
253.3444	1
254.0193	15
255.0397	31
255.2578	3
256.0139	12
257.0409	35
257.2722	2
258.0333	20
259.0478	38
259.3055	3
260.0079	15
260.4690	2
261.0703	44
262.0843	11
262.4811	2
263.0782	38
264.0809	7
265.0549	26
265.3533	2
266.0206	14
266.3362	2
267.0393	27
267.9290	9
268.4083	2
269.0557	25
270.0507	14
270.5307	1
271.0582	25
271.5634	1
272.0825	13
273.0727	27
273.3851	2
274.0916	9
274.6143	6
275.0718	38
275.5175	2
276.0529	7
277.0634	19
278.0951	11
278.3267	2
279.0684	17
280.0498	11
280.4433	1
281.0652	18
281.2613	3
281.5380	1
282.0815	9
282.2624	2
283.0695	22
283.3377	1
283.5267	1
284.0559	11
284.6030	1
285.0728	24
285.6437	2
286.0919	6
287.0722	19
287.3687	1
288.0910	6
288.3103	2
289.0725	19
289.4437	1
290.0951	6
291.0280	15
291.3975	0
291.5938	1
292.0954	7
292.3181	1
293.0486	10
294.0741	8
294.3036	2
294.6475	1
295.0813	11
295.4722	1
296.0709	10
296.5776	1
297.0487	13
297.3346	1
297.5781	1
298.0711	8
299.0481	12
300.0352	7
300.2788	1
301.0410	14
301.3728	0
302.0602	4
302.5710	1
303.0943	11
303.5740	1
304.0835	5
304.2830	1
305.0630	8
305.5097	1
306.1249	4
306.3841	1
306.5220	0
307.0689	10
307.4655	2
307.8036	1
308.0875	4
308.4383	1
309.0511	9
309.3191	1
310.0528	6
310.5192	1
311.0699	12
311.2842	1
312.0540	4
312.5544	1
313.0914	12
313.4924	1
314.0474	4
314.3276	1
314.5374	1
315.0865	15
315.4677	1
315.7028	1
316.0169	4
316.2713	2
316.4154	1
317.1036	10
317.5301	1
318.0769	6
318.3187	1
318.7440	1
319.0975	8
319.3640	1
320.1083	4
320.5803	1
321.0908	5
321.4657	1
322.0461	4
322.5495	1
323.0761	7
323.7212	1
324.1775	3
324.5852	1
325.0961	9
325.3722	1
325.5957	1
326.0687	2
326.5398	0
327.1001	9
328.0609	4
328.4182	1
328.5570	0
328.7217	0
329.1389	7
330.0563	6
331.1141	11
332.1030	4
332.5782	1
333.1200	7
333.3187	1
333.5706	1
334.0580	4
334.4808	1
335.1085	7
336.1066	5
336.3580	2
336.6028	1
336.7211	0
337.1142	9
337.4475	1
338.1253	4
339.0993	4
339.6583	2
340.1174	4
340.3929	0
341.1230	8
341.7999	1
342.1634	4
342.6280	2
343.1500	8
343.5415	1
344.1314	10
344.6361	1
345.1150	8
345.5619	1
346.1020	4
347.1192	7
347.3817	1
348.0959	2
348.5716	0
349.1559	8
349.4818	1
349.7724	1
350.1929	6
350.4508	1
351.1374	6
351.4780	1
351.6046	0
352.1592	3
352.6313	1
353.0733	4
353.3200	1
354.1415	2
354.5426	2
355.1421	5
355.3873	1
355.7803	2
356.1614	2
356.5846	1
357.1290	10
357.5788	2
358.1606	3
358.5145	0
359.0204	3
359.2543	4
359.6923	1
360.2316	3
361.1396	5
361.5697	1
362.1525	12
362.4879	1
363.1648	17
363.6357	0
364.1105	3
364.2986	2
364.7495	1
365.1905	5
365.4186	1
366.2899	2
367.0679	3
367.4062	1
368.1596	4
368.4095	1
368.7487	1
369.1939	5
370.0370	4
370.4103	1
371.1642	3
371.4595	0
371.7795	0
372.2349	2
373.1510	4
373.5511	0
374.1426	2
374.7768	1
375.1743	8
375.4184	2
375.7693	1
376.1715	6
376.8472	1
377.1574	3
377.4276	1
377.8380	1
378.0314	1
378.2910	1
378.5112	1
379.1611	3
380.2822	2
381.1591	4
381.6931	1
382.0362	2
382.4882	1
383.1764	4
384.1231	6
384.4182	1
384.8015	1
385.1394	6
385.6189	2
385.9721	0
386.2379	2
386.4770	1
387.1883	3
387.7414	1
388.1862	3
388.7146	1
389.2070	3
389.4107	1
389.7040	1
390.0635	2
390.4524	1
390.7009	2
391.0464	2
391.3758	1
392.1917	10
392.4103	2
392.6736	1
393.0439	2
393.6708	0
394.1347	2
394.3867	2
394.5652	1
394.8533	1
395.2196	3
395.6581	1
396.2391	4
396.6630	1
397.1892	14
397.4814	1
397.6620	1
397.8271	1
398.1849	4
398.5768	0
399.1606	3
399.4088	0
399.7366	0
400.2346	1
400.4510	1
401.1794	8
402.2183	8
402.4527	1
402.6984	1
403.2013	7
403.6868	2
404.1890	2
405.1996	4
405.7018	2
405.8882	1
406.1735	1
406.4166	1
406.6678	1
407.1308	1
407.4702	0
407.6926	0
407.9278	1
408.3260	1
409.1626	2
409.6825	1
410.1890	7
410.5800	1
411.2022	5
411.5771	1
412.1419	2
412.5229	1
412.8558	2
413.2141	3
413.5497	1
413.7636	1
414.1754	4
414.4836	0
415.2130	9
415.5072	1
415.6837	1
416.1741	5
416.6649	1
417.2820	2
417.6279	2
418.1529	3
418.3626	1
418.7927	1
419.1915	1
419.5756	1
419.8481	1
420.0178	0
420.2997	2
420.4486	0
420.7232	1
420.8728	1
421.1995	1
421.4981	1
421.7266	1
422.2899	2
422.7515	1
423.1270	2
423.5888	2
423.9763	2
424.1962	2
424.4020	1
424.6740	1
425.1712	1
425.6190	1
426.1931	2
426.4070	1
426.7011	1
427.1503	6
427.3816	3
427.5620	2
428.2105	11
428.7252	1
429.2039	11
429.4579	3
429.7455	1
430.0457	1
430.3037	3
430.4876	1
431.1636	4
431.7514	1
432.2703	2
432.7705	1
433.0166	1
433.2447	1
433.3831	0
433.7316	0
434.0660	1
434.4666	1
434.9021	2
435.2238	1
435.4245	3
435.8787	2
436.4299	2
437.0702	3
437.4957	3
437.9767	3
438.3447	3
438.6833	3
439.1985	4
439.8824	3
440.4679	2
441.0997	3
441.3459	2
441.5641	1
441.8258	1
442.2227	4
442.6872	1
443.2434	5
444.2274	16
444.4798	2
444.8667	1
445.2684	3
445.4933	2
445.7397	1
446.0805	1
446.3215	1
446.4621	1
446.6007	0
447.2047	1
447.4759	1
447.7417	1
447.8924	1
448.3062	1
448.7662	1
449.1071	1
449.4185	2
450.2434	5
450.5356	1
450.8732	0
451.1373	1
451.4877	2
451.7210	2
452.4659	1
452.6859	1
452.9802	2
453.3359	2
453.5105	0
454.0287	1
454.4026	3
455.2333	2
455.6245	1
456.2011	4
458.2501	408
459.0937	5
459.5071	2
460.3709	3
460.6867	1
461.1545	2
461.4281	1
461.9207	2
462.2566	1
462.5644	1
462.8662	1
463.0898	2
463.3541	2
463.6854	1
463.9337	1
464.1800	3
464.4363	2
464.8821	1
465.2120	3
465.5025	1
465.7194	1
465.9905	1
466.1612	1
466.5060	2
467.0957	1
467.3086	0
467.6359	1
468.2545	6
468.7185	0
469.2923	3
469.6344	1
470.2785	7
470.5946	1
471.2856	10
471.5360	2
472.0805	1
472.5312	1
473.1225	3
473.3094	1
473.4708	0
473.8144	1
474.7715	1
475.1653	1
475.3435	1
475.5042	1
476.0703	1
476.3107	3
476.4032	0
476.6309	1
477.2859	1
477.5005	1
477.6577	1
478.1265	2
478.4863	1
479.2595	3
479.6561	1
479.7913	0
480.2775	2
480.5337	1
481.0394	1
481.2428	2
481.6910	2
482.0890	2
482.2629	3
482.4402	0
482.5927	0
482.7834	1
483.0825	1
483.3755	1
483.8452	1
484.3784	2
484.6146	1
484.9686	1
485.2837	1
485.5059	0
485.8900	1
486.1141	0
486.5826	1
486.9887	1
487.3735	0
487.7262	1
487.8480	1
488.1164	0
488.3968	1
488.7180	0
489.3244	1
489.5560	0
490.3290	1
490.6430	1
491.1878	3
491.4797	0
492.2656	4
492.4443	2
492.5782	1
492.8433	2
493.2885	4
493.8475	1
494.2894	9
494.5511	2
494.7781	1
495.0091	1
495.2742	2
495.8434	1
496.0583	0
496.3328	1
496.5612	0
496.7359	1
497.4270	1
497.9299	1
498.2969	1
498.4455	0
499.2820	0
499.9933	1
500.5029	0
500.8894	0
501.3060	3
501.7079	1
501.9256	1
502.0991	1
502.2746	0
502.4869	1
503.2947	2
503.5320	2
503.6450	1
504.2217	3
504.4082	1
504.5940	0
505.2457	4
505.5786	3
506.3573	2
506.9102	1
507.4256	2
507.7611	1
508.3047	1
508.6490	1
508.8903	1
509.0875	1
509.3777	1
509.6819	1
509.9921	1
510.2656	2
510.4949	1
510.7336	1
511.1435	1
511.4651	2
511.7860	1
512.0275	1
512.2495	2
512.5557	1
512.7229	2
512.8994	1
513.3622	1
513.6617	1
513.8905	1
514.2342	2
514.4662	1
514.7699	1
514.9725	0
515.1003	0
515.2588	1
515.3872	1
515.8875	3
516.3162	2
517.3429	6
517.5776	2
518.0746	1
518.3884	4
518.6272	1
518.7984	1
519.3316	6
520.2975	19
521.1439	3
521.4175	2
521.6376	1
522.0297	1
522.2518	1
522.4672	1
522.7295	1
523.0480	2
523.2320	1
524.4772	3
525.4234	3
526.2753	4
526.9138	3
532.3547	40
534.3169	84
535.3566	165
550.2652	999
551.7255	311
553.4942	66
