Mass spectrum: Lycopene 1,2-epoxide; FAB-EBEB; MS2; m/z: 552.43; [M]+*
Name: Lycopene 1,2-epoxide
Formula: C40H56O
Exact mass: 552.43312
SMILES: CC(CCC(O1)C1(C)C)=CC=CC(C)=CC=CC(=CC=CC=C(C=CC=C(C)C=CC=C(CCC=C(C)C)C)C)C
InChI: InChI=1S/C40H56O/c1-32(2)18-13-21-35(5)24-16-27-36(6)25-14-22-33(3)19-11-12-20-34(4)23-15-26-37(7)28-17-29-38(8)30-31-39-40(9,10)41-39/h11-12,14-20,22-29,39H,13,21,30-31H2,1-10H3/b12-11+,22-14+,23-15+,27-16+,28-17+,33-19+,34-20+,35-24+,36-25+,37-26+,38-29+
Instrument: JMS-HX/HX 110A, JEOL
Instrument type: FAB-EBEB
Ms type: MS2
Ion mode: POSITIVE
Collision energy: 3 kV
Ionization: FAB
Base peak: 68.9912
Precursor m/z: 552.43
Precursor type: [M]+*
m/z	relative intensity
10.2075	0
10.7251	0
11.9569	0
12.9548	0
13.9676	1
14.9737	7
15.4516	0
22.9327	4
23.9411	0
24.9354	1
25.9516	8
26.8032	0
26.9595	56
27.9640	5
28.7918	0
28.9677	42
29.9814	1
30.9492	7
35.8978	1
36.0331	0
36.5110	0
36.9252	5
37.0563	0
37.2949	0
37.9451	16
38.1168	0
38.4541	0
38.6358	0
38.9473	104
39.3768	1
39.9547	15
40.1293	0
40.6017	0
40.9655	366
41.4368	0
41.5931	0
41.9697	14
42.9724	530
43.4755	0
43.9853	2
44.4838	0
44.9614	6
47.9161	1
48.9309	3
49.4123	0
49.7055	0
49.9414	23
50.4642	0
50.6151	1
50.9489	57
51.0972	0
51.3983	0
51.5108	1
51.9576	23
52.5227	0
52.9643	131
53.9668	5
54.5792	0
54.9801	301
55.9770	2
56.9902	25
57.4285	0
57.9720	2
58.9776	173
59.9773	1
60.6863	0
60.9672	2
61.9385	14
62.5639	1
62.6506	0
62.9540	51
63.1082	1
63.2524	0
63.3219	1
63.4302	1
63.6378	1
63.9530	12
64.3682	0
64.4546	0
64.7484	1
64.9646	95
65.2243	1
65.2927	0
65.5361	1
65.6940	0
65.9662	22
66.2092	0
66.4932	0
66.6055	1
66.6695	0
66.9787	166
67.2005	1
67.9821	11
68.3912	1
68.5465	0
68.6857	1
68.9912	999
69.2738	1
69.3579	0
69.4795	0
69.9779	7
70.1988	0
70.3900	0
70.6101	1
70.7116	0
70.9696	275
71.9871	6
72.1279	0
72.9839	10
73.9117	11
74.9356	21
75.0960	1
75.3434	2
75.4569	1
75.6098	1
75.9468	15
76.2114	1
76.3480	1
76.5819	2
76.9488	321
77.1758	2
77.2616	1
77.5044	1
77.9577	63
78.1246	2
78.4624	2
78.9657	348
79.1582	2
79.3229	0
79.5884	1
79.7179	0
79.9765	48
80.1562	1
80.4297	1
80.5140	1
80.9801	489
81.2864	1
81.3917	0
81.5190	1
81.6904	0
81.8020	0
81.9842	10
82.1778	2
82.3896	1
82.4545	1
82.5252	0
82.9894	46
83.1801	1
83.3380	1
83.4972	1
83.9960	1
84.6528	1
84.9728	45
85.3466	0
85.6387	0
85.9338	5
86.1339	0
86.7206	1
86.9445	9
87.7081	0
87.9159	4
88.0803	0
88.2179	0
88.3050	1
88.5028	2
88.9309	31
89.2743	5
89.5083	3
89.9511	9
90.2562	3
90.4832	3
90.9611	779
91.3015	1
91.4511	2
91.5758	1
91.6728	1
91.9739	75
92.3163	1
92.4893	2
92.9861	575
93.3205	1
93.9765	25
94.2308	1
94.4515	1
95.0003	224
95.4210	1
95.6475	0
95.9878	3
96.4788	1
96.9959	21
97.6756	1
97.9482	5
98.7423	1
98.9739	8
99.4050	0
99.7636	0
99.9246	1
100.1766	0
100.4117	0
100.5317	0
100.9306	10
101.2031	2
101.4352	1
101.5984	1
101.9614	38
102.1608	1
102.4251	2
102.9724	136
103.2490	2
103.3376	0
103.5292	1
103.6380	1
103.9758	57
104.3630	2
104.5448	2
104.9887	996
105.2775	1
105.4145	2
105.6228	1
105.9978	84
106.3753	2
106.6249	2
107.0034	456
107.2640	2
107.3602	1
107.5663	0
107.6720	0
107.9983	19
108.2296	1
108.3182	0
108.4098	0
108.6502	0
109.0139	108
109.3075	0
109.4457	0
109.9691	4
110.5323	1
110.9849	15
111.2335	0
111.7458	0
111.9318	1
112.1035	0
112.4699	2
112.9586	8
113.2445	2
113.4177	2
113.9432	10
114.1767	2
114.2811	3
114.4613	2
114.9557	343
115.3206	3
115.9601	131
116.2779	4
116.5273	3
116.9665	403
117.3011	1
117.6106	1
117.9702	66
118.4986	2
118.9790	763
119.2166	3
119.4652	3
119.7132	3
119.9831	64
120.1672	2
120.3355	1
120.4681	2
120.5923	3
120.9947	204
121.2602	3
121.5156	1
121.6120	1
121.9633	6
122.2851	2
122.3938	0
122.7771	2
123.0117	34
123.2803	1
123.3715	0
123.6817	0
123.9154	1
124.0042	2
124.1052	1
124.4382	1
124.5302	0
124.9852	79
125.2278	3
125.3442	1
125.4277	1
125.5338	2
125.6545	1
125.9498	20
126.2475	2
126.9411	128
127.2943	5
127.4636	6
127.9429	388
128.1906	6
128.9453	466
129.2558	2
129.4298	2
129.6173	2
129.9599	203
130.9641	529
131.2447	3
131.4774	3
131.9719	162
132.2184	1
132.4452	3
132.5977	3
132.9797	546
133.2615	3
133.9449	18
134.2370	0
134.3664	1
134.5206	3
134.6186	2
134.9874	53
135.3817	1
135.5916	1
135.6984	1
135.9615	6
136.1159	1
136.3389	1
136.4624	0
136.6070	0
136.9699	7
137.2055	0
137.4547	0
137.6255	1
137.9361	5
138.0011	3
138.1292	1
138.2518	2
138.4740	2
138.9404	49
139.2310	2
139.3246	0
139.4337	2
139.5819	1
139.9620	19
140.0959	9
140.3546	5
140.9430	338
141.2957	3
141.4510	1
141.9567	324
142.4565	3
142.9639	630
143.2246	3
143.4692	5
143.9703	175
144.3284	2
144.9789	663
145.4584	3
145.6542	2
145.9904	38
146.4235	2
146.5333	1
146.9997	114
147.3957	2
147.5738	1
147.7238	1
147.9894	5
148.1588	1
148.3432	2
148.4270	1
148.6109	1
148.9837	10
149.1608	2
149.4430	1
149.9507	8
150.2006	1
150.3378	1
150.4687	3
150.5896	2
150.9606	33
151.2182	3
151.9513	126
152.1640	4
152.9630	179
153.1997	3
153.4113	1
153.5257	2
153.9749	108
154.4048	2
154.9851	360
155.2915	2
155.4922	2
155.9925	257
157.0070	568
157.2672	4
157.4695	2
158.0116	89
158.2405	3
159.0190	223
159.4463	2
159.5978	2
160.0189	14
160.2179	1
160.4605	1
161.0330	26
161.3402	2
161.5216	1
161.7689	2
162.0313	4
162.4710	3
162.9881	19
163.4458	3
163.6244	3
164.0019	17
164.3656	5
164.9911	275
165.2409	3
165.5827	4
166.0071	105
166.3097	5
166.4919	4
167.0083	232
167.3154	3
167.3984	1
168.0171	105
168.3219	2
168.5716	3
169.0235	362
169.3526	4
169.5390	4
170.0242	117
170.2755	3
170.5077	4
171.0358	280
171.3164	2
172.0151	41
172.2730	1
172.3982	1
172.5666	3
173.0497	138
173.4897	2
173.7358	2
174.0271	13
174.2243	1
174.3821	1
175.0185	20
175.2452	2
175.5152	1
175.9820	17
176.3738	1
176.5515	1
177.0040	26
177.2883	4
177.4362	4
177.9738	132
178.3693	3
178.9895	218
179.2812	2
179.4025	2
179.5621	3
179.9988	102
180.2083	3
180.4740	5
181.0081	248
181.3762	4
181.5469	2
182.0155	109
182.2528	3
183.0223	336
183.2904	4
183.5303	4
184.0315	62
184.2543	3
184.5911	5
185.0408	158
185.5655	2
186.0397	25
186.3750	3
186.6314	3
187.0405	42
187.2990	2
187.4337	2
187.7545	4
188.0073	8
188.2839	2
188.5310	2
188.9816	59
189.3470	4
189.5313	2
189.9796	29
190.9788	97
191.4500	2
191.5471	1
192.0011	100
192.2950	2
192.5266	3
193.0072	206
193.2550	5
193.4416	2
194.0094	102
194.2727	3
194.4614	3
195.0166	268
195.3194	3
196.0301	83
196.3524	3
196.5245	3
197.0345	262
197.4834	3
198.0543	49
198.2769	5
198.3789	3
199.0501	103
199.3419	4
199.4794	2
199.7073	2
200.0225	13
200.3105	2
200.5004	2
201.0425	15
201.2209	4
201.5091	3
201.9939	53
202.4006	2
202.9884	72
203.4444	1
204.0048	25
204.2552	2
204.4409	2
205.0171	96
205.2605	3
205.5254	4
206.0163	73
206.3881	2
206.5916	3
207.0283	166
207.3731	1
207.5714	2
208.0382	71
208.3170	3
208.5926	2
209.0446	190
209.3599	2
210.0652	38
210.3053	3
210.4319	1
210.5948	2
211.0667	86
211.4836	2
211.6388	2
212.0648	21
212.3624	1
212.6138	3
213.0640	31
213.2830	2
213.9844	8
214.0760	4
214.2366	4
214.3400	1
214.5182	1
215.0267	70
215.2329	5
215.5672	2
216.0207	28
216.2445	4
216.5348	2
216.6272	2
217.0346	67
217.3197	3
217.4760	1
217.5561	0
218.0470	37
218.3746	1
218.5961	2
219.0638	108
219.4827	1
220.0784	51
220.3163	2
220.4942	3
221.0810	126
221.4579	2
222.0684	32
222.4344	1
222.5172	1
222.6725	1
223.0973	84
223.6657	3
224.0979	19
224.3185	1
224.4909	1
224.6809	3
224.8409	2
225.1348	30
225.5521	2
226.0597	15
226.2505	3
226.3635	1
226.6081	2
227.0720	22
227.4696	2
228.0654	21
228.3425	4
228.5583	1
228.6952	1
229.0643	54
229.3415	0
229.5176	1
229.8496	3
230.0884	27
230.4127	1
230.6006	2
231.0738	71
231.4217	2
231.6064	1
232.0771	36
232.4780	1
232.7072	3
233.0867	76
233.4440	2
233.6687	8
234.1149	31
234.3012	3
234.5397	2
234.6808	3
235.1057	76
235.5711	2
235.6554	1
236.0941	13
236.3786	0
236.6840	4
237.1143	47
237.3544	2
237.6128	1
237.7783	2
238.1179	8
238.2959	2
238.4680	1
238.5943	1
239.0864	19
239.3483	2
240.0619	13
240.2328	4
240.4403	1
240.6211	2
241.0514	23
241.6488	8
242.0838	14
242.4252	2
243.0707	47
243.4135	1
243.6141	2
243.7459	1
244.0822	20
244.5084	2
244.6100	1
244.7399	2
245.0973	57
245.4344	1
245.5505	1
245.7231	1
246.0990	23
246.3076	2
246.4821	2
247.0911	72
247.5282	3
247.6326	1
248.0960	14
248.5550	4
249.1039	47
249.4651	3
249.7062	1
250.0904	8
250.3204	3
250.4373	1
250.5983	3
250.7730	2
251.1364	28
251.5984	1
251.7943	3
252.0893	17
252.7201	2
253.0954	20
253.3656	1
253.8290	3
254.1150	9
254.2998	3
254.5575	1
254.6943	1
255.1047	19
255.5243	3
256.0512	15
256.4479	2
257.0822	33
257.5456	1
258.0991	17
258.3453	1
258.5283	1
258.7410	1
259.1182	47
259.4304	1
259.6911	1
260.1100	16
260.5909	2
261.1271	45
261.4664	1
261.6733	2
262.1234	12
262.4799	1
262.6810	0
263.1331	42
263.5070	2
263.6579	1
263.8392	3
264.1557	8
264.4366	1
264.6536	2
265.1436	21
265.4517	0
265.5598	1
265.6957	0
266.1074	6
266.5330	2
267.1341	22
267.4628	1
267.5994	1
267.7182	1
268.1340	8
268.3591	2
268.4971	1
269.1587	31
269.4327	2
269.8855	3
270.1246	11
270.6083	1
270.7744	1
271.1138	24
271.4460	2
271.6358	3
272.1025	12
272.2324	5
272.6062	1
273.1304	31
273.3995	1
273.5518	1
273.7134	1
274.1296	8
274.4225	0
274.6837	2
275.1408	28
275.4384	2
275.6793	0
275.8759	1
276.1530	8
276.4210	1
276.6196	1
277.1477	20
277.4513	2
277.6401	0
277.8884	3
278.1564	9
278.4133	0
278.7375	2
279.1271	12
279.4454	0
279.6918	0
279.8807	3
280.1311	6
280.5228	2
280.7719	0
281.1220	19
281.4141	0
281.5370	0
281.7015	0
282.1146	15
282.2434	4
282.3776	1
282.5343	1
282.8370	2
283.1298	14
283.3599	1
283.7288	1
283.8517	1
284.1506	9
284.4330	2
284.6148	1
284.8033	2
285.1379	24
285.4501	1
285.5703	0
286.0925	6
286.4679	1
286.5981	2
287.1290	18
287.4417	2
287.7201	1
288.1657	7
288.3873	1
288.5109	0
289.1485	16
289.4382	1
289.7233	1
289.9403	1
290.2254	5
290.3008	3
290.4596	2
290.6766	2
291.1279	17
291.4713	0
291.6931	1
291.8234	1
292.0114	3
292.1067	2
292.2100	2
292.3218	1
292.5707	1
292.6554	0
293.1208	7
293.3737	0
293.5213	1
293.7597	1
293.8735	2
294.1662	3
294.4390	1
294.5794	1
295.0920	10
295.2377	5
295.3894	2
295.4841	1
295.6669	0
295.7855	0
295.8815	1
296.1213	5
296.2744	2
296.4161	1
296.8249	1
297.1343	13
297.5623	0
297.6684	1
297.9361	2
298.1733	6
298.5478	1
298.6532	1
299.1357	14
299.4473	2
299.7416	1
299.8517	1
300.0903	5
300.4252	1
300.6247	2
300.8369	2
301.1400	9
301.3800	0
301.5186	1
302.1109	3
302.2502	3
302.5407	0
302.6787	0
302.9036	4
303.1378	13
303.3938	0
303.9538	1
304.0786	4
304.2624	3
304.8934	1
305.1310	7
305.3275	2
305.7947	1
306.0842	5
306.2627	2
306.3869	1
306.5462	1
306.7998	1
306.8801	1
307.1277	7
307.3754	0
307.5434	1
307.7240	1
307.9750	3
308.2001	2
308.3695	1
308.6458	1
309.1346	7
309.5451	1
309.8493	0
310.1436	4
310.5562	0
310.7608	1
310.8671	1
311.1096	7
311.4352	2
311.5814	1
311.8632	2
312.0639	4
312.2047	5
312.6813	0
313.1545	11
313.4224	1
313.6445	1
313.8831	1
314.1710	6
314.3146	1
314.5008	2
314.7202	1
315.1484	16
315.5966	1
315.8480	2
315.9504	1
316.1173	8
316.2869	2
316.4758	1
317.1889	11
317.5042	0
317.7889	1
318.1648	5
318.7477	2
318.9386	1
319.1928	8
319.3446	3
319.5569	1
319.8410	1
320.1698	4
320.3149	2
320.5392	0
320.6877	1
320.8827	0
321.1529	8
321.2814	4
321.3839	2
321.5637	0
321.7707	1
321.9758	1
322.1409	3
322.2881	2
322.9160	1
323.1497	4
323.2562	2
323.5319	1
323.7790	2
323.9175	1
324.1287	3
324.3212	1
324.5303	1
325.1791	5
325.3183	2
325.6541	1
325.7560	1
326.2157	3
326.5669	1
326.8427	1
327.1913	8
327.4598	1
327.7950	1
328.2186	4
328.3476	2
328.4993	1
329.1758	13
329.5630	1
329.7818	1
330.1185	2
330.2469	2
330.5909	0
330.8430	0
331.1911	13
331.3282	8
331.7108	2
332.1161	5
332.4010	2
332.7631	1
333.2030	7
333.7476	1
333.9007	1
334.1084	2
334.3155	3
334.7403	1
334.9001	3
335.1278	5
335.2869	4
335.4015	2
335.5193	2
335.8077	1
336.2539	2
336.7214	1
337.1790	4
337.3708	1
337.5001	2
337.7412	1
337.8425	1
337.9597	1
338.2182	5
338.3514	1
338.6506	2
339.1010	3
339.2875	3
339.5134	1
339.6974	1
339.7926	1
339.9506	1
340.1058	5
340.2764	2
340.4984	1
340.9822	1
341.2268	6
341.6941	1
341.9000	0
342.1967	4
342.5427	0
342.7367	1
342.8980	1
343.1987	7
343.6294	0
343.9541	1
344.2028	3
344.9750	1
345.2525	6
345.6213	2
345.8181	1
345.9781	2
346.2489	9
346.7659	1
346.9000	0
347.2576	6
347.7339	0
348.1582	3
348.3264	2
348.5439	0
349.2505	5
349.6149	0
350.2002	2
350.3357	2
350.4745	1
350.6761	1
351.1927	7
351.6613	1
351.8603	1
352.1300	2
352.3463	1
352.4992	0
352.6587	0
352.9145	2
353.1682	3
354.1618	3
354.2906	4
354.3935	1
354.5732	1
355.2779	4
355.4460	2
355.8184	1
356.0753	2
356.1948	1
356.3630	2
356.9263	1
357.2600	6
358.0030	2
358.2039	2
358.3988	1
358.6592	1
358.8835	1
359.2427	8
359.4517	1
359.6140	2
359.8490	1
359.9785	2
360.2263	2
360.3912	1
360.6617	0
361.1525	5
361.4370	1
361.6133	1
361.9646	1
362.2345	7
362.8236	1
363.0441	2
363.2164	2
363.4268	2
363.6125	0
364.0294	1
364.1718	2
364.3949	2
364.7470	1
364.9207	1
365.0490	1
365.1934	4
365.3317	2
365.4800	0
365.9471	1
366.0968	2
366.4076	2
366.6321	1
367.2758	4
367.4449	3
368.0083	2
368.2176	3
368.4007	1
368.8976	1
369.0871	2
369.2940	4
369.4395	2
369.6183	0
369.9000	0
370.0668	2
370.3057	2
370.4599	1
370.5954	0
371.0279	2
371.1440	5
371.2855	1
371.4364	0
371.7094	1
371.9537	1
372.3356	2
372.4684	0
372.7628	1
372.9398	2
373.0619	4
373.1674	3
373.3263	3
373.4204	1
373.5199	1
373.8578	2
374.0361	1
374.2137	1
374.3987	3
374.5749	0
374.9202	1
375.2481	6
375.3963	3
375.8999	0
376.2666	3
376.8557	0
377.2959	1
377.7287	0
377.9331	1
378.3006	1
378.4977	2
378.7662	0
379.1103	1
379.2794	1
379.3943	0
379.5132	1
379.6321	0
380.2228	3
380.3191	1
380.6017	1
381.2279	3
381.4979	2
382.1623	2
382.2826	2
382.4610	0
382.6261	1
383.2291	12
383.3761	9
383.6094	3
383.7699	1
384.2358	4
384.4671	2
384.5661	0
385.2126	6
385.4921	1
385.7442	1
385.9428	1
386.1086	3
386.3982	4
386.7914	1
386.9211	2
387.1558	4
387.3250	5
387.4942	1
387.6340	1
388.2627	5
388.4634	3
388.7450	0
389.1604	2
389.3497	2
389.6199	1
390.0956	1
390.2321	2
390.4368	1
390.6435	1
390.7920	1
391.3105	5
391.4276	2
391.5815	1
391.7669	0
392.1811	1
392.4206	2
392.7766	1
393.0236	1
393.2591	1
393.4412	1
394.0515	1
394.3179	8
394.8333	0
394.9364	1
395.2389	5
395.5569	1
395.7610	1
395.9585	1
396.2229	6
396.3763	2
396.6119	1
396.7686	1
396.8824	0
397.2620	9
397.5030	2
397.7199	1
397.9489	2
398.2851	15
398.5121	2
398.7585	2
398.8482	1
399.2862	14
399.5165	4
400.0823	3
400.3142	6
400.4606	3
400.8336	0
401.3201	3
401.4866	1
401.7921	1
402.2138	4
402.4525	2
402.9866	2
403.2835	5
403.4967	1
403.6706	1
403.9106	1
404.0924	2
404.3017	10
404.4428	3
404.5652	1
404.6848	1
404.8092	0
404.9710	1
405.1282	1
405.3401	3
405.4745	1
405.6223	1
405.7173	2
405.9908	1
406.0891	1
406.1921	1
406.5231	1
406.6442	1
407.2882	5
407.4829	3
407.6006	1
407.8200	0
408.1223	1
408.2648	1
408.3845	1
408.5323	1
408.9444	1
409.0742	0
409.3893	4
409.6046	2
409.9157	1
410.0047	0
410.1967	4
410.3379	5
410.5640	0
410.7721	1
410.8437	1
411.3047	10
411.3910	5
411.7637	1
412.2762	11
412.4696	5
412.5834	2
412.6918	1
412.8999	1
413.2720	10
413.4126	6
413.6160	1
413.7519	1
414.2116	6
414.4044	3
414.6494	2
414.7431	1
414.8823	1
415.2344	8
415.4419	2
415.6567	2
415.7893	2
416.3369	8
416.7857	2
416.8913	1
416.9729	1
417.1026	2
417.2511	2
417.4490	2
417.7104	0
417.9024	1
418.2314	3
418.4200	2
419.1296	0
419.2633	1
419.4279	1
419.5335	1
419.6225	1
420.0325	2
420.3328	2
420.4652	3
420.6144	1
420.7288	1
420.9729	1
421.1797	1
421.3797	0
421.8071	0
421.9510	2
422.0774	1
422.3784	3
422.6541	1
422.9779	1
423.0930	3
423.2207	2
423.4268	2
423.5753	1
423.7078	0
423.8276	0
424.1461	3
424.3067	2
424.8688	1
425.3225	8
425.6885	1
425.8813	1
426.3176	7
426.5518	2
426.8289	1
427.2921	6
427.5759	1
427.9467	2
428.2720	8
428.5826	1
428.7171	1
428.8035	0
429.2767	5
429.5251	2
429.7099	0
430.2321	3
430.4543	2
430.7114	1
430.8627	1
431.2711	3
431.5872	1
431.7599	2
431.9247	1
432.2929	2
432.4824	0
433.1239	1
433.3824	2
433.8351	1
433.9416	0
434.1620	2
434.6328	1
434.9650	0
435.3206	1
435.5122	1
435.6837	2
436.0527	2
436.2791	2
436.4600	2
436.5611	0
436.7822	2
437.0260	1
437.2451	2
437.4976	2
437.7991	3
437.9867	2
438.2212	5
438.3310	3
438.5588	2
438.7451	2
439.1370	5
439.4197	1
439.6248	1
440.1172	6
440.4007	4
440.6144	2
440.8108	1
440.9616	4
441.2672	14
441.4662	6
441.6431	4
441.7724	1
442.2925	5
442.4754	2
442.6416	1
442.7978	2
443.0210	2
443.1275	1
443.3065	2
443.5331	2
444.2891	4
444.4017	1
444.5244	1
444.7355	1
444.9333	1
445.1880	2
445.3710	2
446.0025	4
446.3611	12
446.6447	1
446.8056	1
447.0276	3
447.1643	2
447.3943	1
447.5418	2
448.0420	2
448.2807	3
448.4128	1
448.5415	1
448.7990	2
448.9908	1
449.2999	2
449.4300	1
449.6419	1
449.8142	1
450.0362	1
450.2173	2
450.4386	2
450.5318	1
450.6357	0
450.7913	0
450.9326	2
451.0711	1
451.3825	5
451.8184	1
451.9503	1
452.0688	3
452.2395	5
452.3667	4
452.5696	1
452.7209	1
452.9292	1
453.0678	5
453.3832	10
453.5754	3
453.9913	3
454.2324	4
454.4292	3
454.5906	1
454.7681	1
454.9215	2
455.3073	4
455.4613	2
455.6120	2
455.7178	1
456.0420	2
456.3253	3
456.5698	1
456.7359	1
456.9322	1
457.1264	1
457.3180	3
457.4761	1
457.5812	2
457.7514	1
457.8940	1
458.4065	14
458.5412	6
458.7354	1
458.8446	1
459.3578	5
459.5347	4
459.6533	2
460.3695	224
461.0000	5
461.2466	4
461.5092	2
461.6720	1
461.8288	1
462.0687	2
462.2986	1
462.6544	1
462.9560	2
463.2099	2
463.5638	2
463.7789	2
464.0879	2
464.2835	2
464.4491	1
464.6032	2
464.9451	2
465.1736	4
465.3613	6
465.5208	2
466.4377	7
466.7072	4
466.8748	2
467.3648	71
467.7885	5
468.3818	15
468.5366	7
468.9496	3
469.3277	9
469.5168	5
469.6040	3
469.7521	3
470.1725	4
470.4421	7
470.7324	3
470.8987	1
471.0341	2
471.1387	2
471.3727	4
471.5518	1
471.7268	2
471.9146	2
472.0198	1
472.2914	4
472.5764	2
472.9707	0
473.3778	18
473.7594	1
474.0103	1
474.3194	2
474.4140	1
474.4878	0
474.9506	1
475.3550	1
476.0002	1
476.1814	0
476.4168	1
476.6945	1
476.8984	1
477.1896	1
477.2754	1
477.4659	3
477.9454	0
478.0539	1
478.1865	1
478.3398	1
478.4684	1
478.6901	2
478.8796	1
479.0028	0
479.1267	2
479.4683	4
479.8587	1
480.3148	7
480.5003	7
480.8352	4
481.3911	34
481.9551	4
482.3664	23
482.7107	5
483.3893	164
484.0324	4
484.1731	3
484.3492	5
484.5053	2
484.7137	1
484.9790	4
485.2704	2
485.4701	0
485.6248	2
485.9431	1
486.1521	1
486.2634	1
486.3947	1
486.5012	1
486.6513	1
486.8242	1
487.0486	1
487.2228	1
487.2892	0
487.3917	0
487.6946	1
487.7830	0
488.0638	2
488.2702	2
488.4692	1
488.6441	1
488.8605	0
489.0221	1
489.3491	1
489.5528	2
489.9804	1
490.4368	2
490.6512	2
490.9776	0
491.3657	1
491.6023	1
492.0587	1
492.1686	0
492.4743	2
492.7733	1
493.4040	3
493.7224	1
493.9342	1
494.1863	2
494.3264	5
494.5771	3
494.8064	2
495.0296	1
495.1128	1
495.2864	3
495.4305	3
495.6102	1
495.7785	1
495.9012	1
496.0366	1
496.2015	3
496.4060	6
496.7077	1
496.8566	1
497.3782	17
497.5458	5
497.8791	1
498.3364	3
498.7514	0
498.9439	1
499.0860	1
499.2483	1
499.4012	1
499.7211	0
500.1509	1
500.3883	0
500.5345	1
500.7652	2
501.3339	1
501.5049	1
502.1776	1
502.5277	2
502.9268	0
503.0596	1
503.1522	1
503.4661	1
503.7095	1
503.9299	0
504.2967	1
504.5022	1
504.7010	1
504.8831	1
505.2172	3
505.3699	1
505.5794	1
505.7394	0
505.9075	0
506.4230	2
506.5576	1
506.6875	0
506.9962	0
507.1441	2
507.4461	2
507.5626	1
507.7615	1
507.9644	1
508.1431	3
508.3875	7
508.7451	4
509.0417	5
509.3243	8
509.5795	5
510.3871	187
510.9698	3
511.1968	3
511.3629	3
511.5203	5
511.7641	3
512.0996	2
512.3105	1
512.5389	1
512.7573	0
512.8618	1
513.0118	0
513.5624	0
513.7708	1
513.9663	0
514.2469	1
514.9282	1
515.1439	2
515.5505	1
515.9585	1
516.0965	1
516.3946	2
516.6545	0
516.9359	1
517.3748	0
517.8906	0
518.1418	1
518.4976	1
518.6866	1
519.0296	0
519.1475	1
519.3372	2
519.6186	4
519.8376	1
520.0306	1
520.2196	1
520.3865	1
520.6122	2
520.9534	1
521.1302	2
521.3253	2
521.4332	2
521.5973	2
521.7601	1
521.9210	3
522.3606	24
522.5938	14
522.9135	1
523.1299	2
523.4898	3
523.7526	1
523.9656	2
524.3062	3
524.4382	1
524.7438	2
524.8456	0
525.0059	2
525.3128	2
525.3825	1
525.8397	1
526.0696	2
526.2639	2
526.4818	3
526.6118	1
526.7995	2
526.9343	3
527.0375	1
527.1776	2
527.2908	2
527.5107	3
527.7366	1
528.0677	1
528.2602	1
528.3895	1
528.5933	1
528.7160	1
528.9044	3
529.0874	3
529.3341	2
529.4554	2
529.6827	2
529.8021	1
529.9804	2
530.0703	1
530.3974	1
530.7930	3
531.1101	2
531.4111	4
531.5740	3
531.8449	3
532.1326	5
532.5718	4
532.9399	6
533.2899	10
533.5346	6
533.8411	7
534.4500	50
534.8268	8
535.4002	19
535.6510	11
535.8301	9
536.4135	31
536.6992	16
537.4551	134
537.9440	9
538.4913	9
538.9467	7
539.4753	10
539.7811	6
540.2480	7
541.7875	11
542.3919	8
542.7535	9
543.0017	10
543.6592	11
544.1442	11
544.5676	13
545.0977	13
552.4398	999
553.4260	514
554.0293	257
554.9894	111
555.9315	57
