Mass spectrum: Tunaxanthin; FAB-EBEB; MS2; m/z: 568.43; [M]+*
Name: Tunaxanthin
Formula: C40H56O2
Exact mass: 568.42803
SMILES: C(O)(C2)C=C(C)C(C2(C)C)C=CC(C)=CC=CC(C)=CC=CC=C(C)C=CC=C(C)C=CC(C1(C)C)C(C)=CC(O)C1
InChI: InChI=1S/C40H56O2/c1-29(17-13-19-31(3)21-23-37-33(5)25-35(41)27-39(37,7)8)15-11-12-16-30(2)18-14-20-32(4)22-24-38-34(6)26-36(42)28-40(38,9)10/h11-26,35-38,41-42H,27-28H2,1-10H3/b12-11+,17-13+,18-14+,23-21+,24-22+,29-15+,30-16+,31-19+,32-20+
Instrument: JMS-HX/HX 110A, JEOL
Instrument type: FAB-EBEB
Ms type: MS2
Ion mode: POSITIVE
Collision energy: 3 kV
Ionization: FAB
Base peak: 105.0764
Precursor m/z: 568.43
Precursor type: [M]+*
m/z	relative intensity
14.0064	0
15.0166	3
22.9800	2
24.0058	0
24.9934	1
25.9950	5
27.0147	44
28.0123	3
29.0258	45
30.0119	1
31.0069	6
36.9783	2
37.9967	17
39.0201	116
39.4358	0
40.0275	12
40.4859	0
41.0343	210
42.0196	8
42.4429	0
42.6946	0
43.0270	174
44.0111	3
45.0267	7
46.0138	0
48.9917	1
50.0129	23
50.4349	0
51.0113	64
52.0211	30
53.0297	153
53.7105	0
54.0349	12
55.0465	333
56.0519	7
57.0509	52
57.4947	1
58.0502	2
59.0448	45
60.0488	1
61.0244	3
61.6142	1
62.0198	14
63.0157	53
63.6563	0
64.0263	13
64.4656	0
65.0328	113
66.0313	24
67.0505	185
67.5214	1
68.0617	12
69.0476	221
69.7105	0
70.0201	3
71.0433	141
72.0336	1
73.0517	3
74.0167	12
74.3051	1
75.0315	19
75.9940	15
77.0325	332
78.0307	73
78.5092	4
79.0431	344
80.0497	72
80.4847	1
81.0605	467
81.6184	1
82.0377	67
83.0515	114
83.6288	0
84.0554	10
85.0632	30
85.4116	0
86.0039	6
86.2642	1
87.0193	7
87.3770	0
88.0602	5
89.0295	40
89.3468	6
90.0639	15
91.0584	773
92.0655	113
93.0762	498
94.0875	46
95.0641	628
96.0661	37
97.0703	183
97.6167	0
98.0530	12
98.6501	0
99.0899	6
100.0897	3
100.5700	2
101.0285	13
101.4743	3
102.0649	46
103.0677	143
103.4928	3
104.0540	68
105.0764	999
106.0821	108
107.0859	448
108.0692	57
109.0966	316
110.0633	20
110.5525	2
111.0821	59
112.0559	6
113.0018	9
114.0147	18
115.0452	396
116.0479	156
117.0574	450
118.0698	101
119.0755	925
120.0747	112
121.0752	509
122.0663	32
123.0628	494
124.0728	15
124.5043	2
125.0801	25
125.5625	4
126.0398	21
127.0469	134
128.0404	438
129.0432	576
130.0555	248
131.0554	637
132.0592	175
132.4964	6
133.0724	521
134.0649	62
134.4495	4
135.0695	271
136.0703	34
137.0639	125
137.4515	3
138.0725	80
139.0448	101
140.0790	28
141.0437	359
142.0496	353
143.0579	727
144.0686	267
145.0762	890
146.0709	96
147.0762	299
148.0603	47
148.4982	1
149.0885	77
150.0647	23
151.0864	68
152.0643	143
153.0585	186
154.0746	113
155.0776	400
156.0899	282
157.1016	598
158.1128	119
159.1066	328
160.1054	47
161.1064	207
161.5945	6
162.1195	24
163.1080	49
164.1510	18
164.5045	5
165.0944	302
166.1036	108
167.1079	291
167.4764	8
167.6974	4
168.1199	116
169.1154	397
170.1187	137
171.1326	320
172.1303	80
173.1329	171
174.0964	25
175.1416	104
176.0965	28
177.1303	34
178.0794	141
178.6090	6
179.0932	270
179.5875	5
180.0962	132
181.0999	346
182.1057	133
183.0992	320
184.1077	73
185.1139	163
186.1322	29
186.6172	4
187.1138	70
187.6650	7
188.1305	16
189.0847	91
190.0681	32
191.0764	136
192.0896	96
193.0920	230
194.1178	117
195.0997	332
196.1051	82
197.1212	303
198.1033	43
199.1204	110
200.0847	32
201.1390	61
202.0625	70
203.0976	78
204.0971	41
205.0971	90
206.1063	98
207.1001	175
208.1059	99
209.1166	233
210.1408	58
211.1249	121
212.1137	29
212.4357	4
213.1277	70
214.1277	22
215.1063	77
216.1304	51
217.1172	87
218.1378	35
218.4287	5
219.1298	119
220.1310	55
221.1340	144
222.1476	58
222.6342	9
223.1588	121
224.1514	27
224.4561	5
225.1503	49
226.1627	29
226.6851	3
227.1492	52
227.5200	5
228.1566	38
229.1572	55
230.1355	27
230.5671	2
231.1709	71
232.1543	39
233.1745	96
234.1703	37
235.1855	82
236.1878	24
237.1657	51
238.1966	18
239.1752	52
240.1600	21
241.1539	39
241.6093	3
242.1643	22
242.4880	4
243.1457	40
244.1788	22
245.1770	66
246.1682	25
247.1847	70
248.1840	27
249.1894	50
250.2113	16
251.1763	27
251.6714	2
252.2033	28
253.1806	35
254.1759	19
254.7065	3
255.2033	21
256.1750	18
256.7176	2
257.1544	29
258.1680	26
259.2201	42
260.2077	23
260.6803	1
261.1986	43
262.2090	28
263.2063	39
264.2320	18
264.6403	3
265.2491	26
266.2105	18
267.1854	24
267.7253	2
268.1916	13
269.2069	25
270.2092	11
270.6772	3
271.2280	23
271.7242	2
272.2219	13
273.2173	31
273.7512	2
274.2026	13
274.8311	5
275.2340	39
276.2198	8
276.6405	4
277.2325	28
278.2809	10
278.8200	2
279.2454	21
279.6354	1
280.2589	9
281.2460	17
282.2201	13
282.7745	3
283.2151	19
284.2133	13
284.7118	2
285.1866	14
285.5713	1
286.2356	15
287.2138	17
287.6741	2
288.2234	12
289.2494	23
290.2711	15
291.2279	21
292.1953	11
293.2177	11
293.7209	1
294.2167	10
295.2351	11
295.4853	3
296.2182	5
297.2430	7
297.8340	2
298.2295	8
298.7392	1
299.2415	16
300.2699	9
301.2407	10
302.1332	6
303.2661	22
304.2183	8
304.6217	1
305.1899	12
305.5015	3
306.2390	10
307.1977	13
308.1788	7
308.7504	1
309.2018	12
310.1982	6
311.1948	4
311.5840	3
311.8737	1
312.2748	9
313.2376	9
313.5765	1
314.3344	6
314.7209	2
315.2531	11
316.2299	5
317.2381	9
318.1289	5
318.3744	2
319.2610	13
319.5987	2
320.2013	6
321.2594	9
322.2060	5
322.5707	1
323.1945	10
323.7707	1
324.2442	2
325.2211	6
326.2131	3
326.6078	2
327.3200	9
328.1857	6
329.1305	6
330.2767	9
331.2592	14
332.1942	11
332.8519	1
333.2999	7
334.2227	3
334.5056	1
334.9016	2
335.2886	9
336.4247	6
336.6526	1
337.3600	3
337.9393	2
338.3102	6
338.7675	1
339.2621	5
339.9102	4
340.2812	3
340.7730	1
341.2350	9
341.5151	2
341.7372	0
342.2261	7
343.2442	7
343.6706	2
344.0656	1
344.3594	6
345.1944	6
346.2562	10
347.2407	8
348.1909	6
348.4505	2
348.8549	1
349.3159	9
350.2829	6
351.3501	2
351.6665	1
352.1651	1
353.2833	3
354.3345	4
355.2380	3
355.4098	1
355.8399	2
356.3134	6
357.2455	4
358.1554	5
358.8455	1
359.2890	8
360.3120	4
361.2814	9
361.6773	1
362.3122	6
363.1698	3
363.6375	1
363.9977	2
364.3712	3
364.8121	1
365.2545	8
366.3516	4
366.6401	2
367.2262	5
367.5865	2
368.1965	6
368.9516	1
369.3150	9
369.6784	3
370.3005	7
370.8016	2
371.3311	6
372.2661	14
372.7880	2
373.3378	5
374.3030	12
375.2789	5
375.5748	3
376.3490	4
376.7032	1
377.3938	6
377.6719	2
378.2863	5
378.7887	1
379.2387	4
379.4540	4
380.3019	6
381.2800	4
382.1669	4
383.2529	2
383.5850	0
384.3196	6
385.0408	4
385.2907	5
386.2828	5
387.2975	6
388.3453	3
389.2554	10
390.2151	3
390.4456	2
391.2692	3
392.2501	5
392.8925	0
393.3508	3
394.3874	4
394.8652	0
395.2397	4
395.4719	2
395.8315	1
396.3199	3
396.7155	0
397.2279	4
397.5066	3
398.2843	5
399.3109	3
400.3287	5
400.9448	1
401.4035	3
401.6013	1
401.9956	2
402.3600	7
402.6733	1
403.3120	12
404.3332	3
405.0845	3
405.3253	1
405.6335	3
406.1228	3
406.3817	3
407.1897	3
407.4635	2
407.8332	1
408.4438	1
408.8239	1
409.3822	4
410.3776	3
410.7593	1
411.3641	11
411.6904	3
412.3821	20
413.3598	13
414.3032	9
415.3800	16
416.4015	8
417.3257	7
417.8889	1
418.2754	4
420.3715	6
420.7551	1
421.0548	2
421.4679	2
422.3167	2
422.5636	1
423.2912	2
424.1999	5
424.3856	2
424.6371	2
425.3438	2
426.1494	4
426.3860	7
426.6795	6
427.3384	9
428.3763	59
429.3499	16
430.3925	74
431.3558	6
432.3357	6
433.0893	3
433.3726	3
434.3571	3
434.8726	3
435.2937	3
435.6219	1
435.9157	1
436.2545	2
436.5063	2
436.7401	2
437.3247	3
437.5420	1
438.2121	2
438.7023	3
439.3785	6
439.7638	6
440.2901	10
441.1252	12
441.7115	3
441.9440	1
442.3879	5
442.8633	3
443.3657	12
443.9821	3
444.3961	7
445.3141	7
446.4227	15
447.2508	2
447.6694	2
447.8944	1
448.3700	1
449.5254	2
450.0912	2
450.5143	2
451.1071	2
451.6189	1
452.2733	3
452.5149	2
453.4035	5
454.3897	8
455.2935	5
456.2928	12
457.0349	8
457.5146	6
458.4772	9
459.0530	6
459.6048	4
460.1971	3
460.6470	3
460.9649	2
461.3384	1
462.2307	2
462.5157	1
463.1787	3
464.2632	3
465.1243	1
465.5638	2
466.5135	4
467.0537	2
467.4333	3
467.6898	1
468.3411	9
468.8858	2
469.3780	3
469.7772	0
470.3595	8
470.7017	1
471.3005	1
471.7853	0
472.4457	5
472.9215	1
473.6151	3
474.0864	2
474.7094	5
475.3595	3
476.4465	138
477.0651	8
477.4390	5
477.7032	1
478.4240	6
479.1253	4
479.4407	1
479.6795	1
480.5145	3
480.9726	5
481.4382	3
481.8603	3
482.4536	8
482.9928	1
483.5453	7
484.4722	34
485.1157	3
485.4997	1
485.7442	3
485.9947	1
486.5392	2
487.1393	3
487.3688	3
487.5623	1
488.3454	5
489.4317	7
490.0979	1
490.4850	2
490.7536	2
491.2833	3
491.8640	1
492.3847	3
493.2222	5
493.5658	2
494.0521	4
494.4753	6
494.8671	3
495.0367	1
495.3819	1
495.6041	0
496.4312	4
497.3018	6
497.9443	3
498.5013	3
499.3210	1
499.8195	2
500.5177	3
500.8795	0
501.3405	5
501.7820	3
502.1409	3
502.8391	1
503.3933	2
503.7793	2
504.2764	6
504.9177	3
505.4493	1
506.3310	5
506.5368	2
506.8342	1
507.0790	1
507.4786	4
507.9128	2
508.4626	3
509.4450	6
510.4029	4
510.8405	3
512.3031	30
513.2008	1
513.6145	2
514.4613	3
515.3411	3
516.9540	2
517.1279	1
517.4218	1
517.7066	1
518.4966	3
518.9030	0
519.2943	3
519.7830	1
520.3183	3
520.7771	2
521.3859	4
521.9077	1
522.6859	5
522.9888	2
523.5767	3
524.3340	8
524.5695	3
525.3058	4
525.6793	3
526.1667	2
526.8717	4
527.5616	5
528.2922	2
528.7182	3
529.0107	2
529.2672	3
529.8073	1
530.4103	4
531.3825	3
532.5483	9
533.2820	3
533.6946	2
534.2108	5
534.5244	3
535.4383	10
536.1991	2
536.6463	2
536.9554	1
537.4417	6
538.3692	14
538.8090	1
539.3884	6
539.9122	3
540.4886	6
540.9284	3
541.3907	5
541.8275	4
542.5721	9
543.3647	11
543.8182	6
545.4306	16
546.0552	15
546.6618	11
547.3465	11
547.8240	15
548.3856	18
549.5330	36
550.4850	230
551.4808	43
552.4661	41
553.4583	37
555.1409	12
555.9553	13
559.5731	28
568.4344	999
570.4875	245
571.3220	99
572.2900	41
572.8019	20
573.8856	14
