Mass spectrum: Zeaxanthin; EI-EBEB; MS; POS
Name: Zeaxanthin
Class: Natural Product; Carotenoid
Formula: C40H56O2
Exact mass: 568.42803
SMILES: C(=CC=C(C=CC=C(C)C=CC(=C(C)2)C(C)(C)CC(C2)O)C)C=C(C=CC=C(C)C=CC(=C(C)1)C(C)(C)CC(C1)O)C
InChI: InChI=1S/C40H56O2/c1-29(17-13-19-31(3)21-23-37-33(5)25-35(41)27-39(37,7)8)15-11-12-16-30(2)18-14-20-32(4)22-24-38-34(6)26-36(42)28-40(38,9)10/h11-24,35-36,41-42H,25-28H2,1-10H3/b12-11+,17-13+,18-14+,23-21+,24-22+,29-15+,30-16+,31-19+,32-20+/t35-,36-/m1/s1
Instrument: JMS-HX/HX 110A, JEOL
Instrument type: EI-EBEB
Ms type: MS
Ion mode: POSITIVE
Ionization: EI
Base peak: 568.0000
m/z	relative intensity
41.0000	14
43.0000	14
44.0000	9
55.0000	17
57.0000	16
67.0000	12
69.0000	16
77.0000	11
79.0000	16
81.0000	24
83.0000	10
85.0000	10
91.0000	41
92.0000	13
93.0000	28
95.0000	24
105.0000	50
106.0000	14
107.0000	36
109.0000	23
115.0000	9
117.0000	15
119.0000	68
120.0000	18
121.0000	37
123.0000	12
128.0000	12
129.0000	21
130.0000	12
131.0000	33
132.0000	11
133.0000	44
134.0000	11
135.0000	28
137.0000	9
141.0000	13
142.0000	17
143.0000	37
144.0000	17
145.0000	57
146.0000	14
147.0000	28
149.0000	17
155.0000	18
156.0000	21
157.0000	53
158.0000	20
159.0000	39
160.0000	12
161.0000	15
163.0000	9
165.0000	10
167.0000	14
168.0000	9
169.0000	26
170.0000	15
171.0000	38
172.0000	14
173.0000	37
174.0000	9
175.0000	34
179.0000	14
180.0000	10
181.0000	19
182.0000	12
183.0000	35
184.0000	14
185.0000	25
186.0000	8
187.0000	20
189.0000	8
191.0000	8
192.0000	8
193.0000	18
194.0000	12
195.0000	28
196.0000	15
197.0000	35
198.0000	12
199.0000	17
201.0000	15
203.0000	8
207.0000	18
208.0000	12
209.0000	45
210.0000	15
211.0000	20
213.0000	9
217.0000	14
219.0000	12
221.0000	17
222.0000	10
223.0000	19
224.0000	8
225.0000	13
233.0000	11
235.0000	16
237.0000	14
239.0000	10
247.0000	12
249.0000	12
251.0000	9
255.0000	8
257.0000	8
259.0000	10
261.0000	11
263.0000	9
265.0000	8
275.0000	11
283.0000	11
284.0000	25
297.0000	8
349.0000	9
362.0000	9
375.0000	9
399.0000	10
410.0000	21
415.0000	10
462.0000	29
463.0000	12
476.0000	155
477.0000	58
478.0000	12
489.0000	9
550.0000	26
551.0000	14
566.0000	33
568.0000	999
569.0000	441
570.0000	106
571.0000	20
