Mass spectrum: Capsanthone-3,6-epoxide; FAB-EBEB; MS2; m/z: 598.40; [M]+*
Name: Capsanthone-3,6-epoxide
Formula: C40H54O4
Exact mass: 598.40221
SMILES: C(C(C)(C)1)C(CC1(C(=O)C=CC(=CC=CC(=CC=CC=C(C=CC=C(C)C=CC(C(C)(O)2)(C(C)(C)3)OC(C3)C2)C)C)C)C)=O
InChI: InChI=1S/C40H54O4/c1-29(17-13-19-31(3)21-22-35(42)38(9)26-33(41)25-36(38,5)6)15-11-12-16-30(2)18-14-20-32(4)23-24-40-37(7,8)27-34(44-40)28-39(40,10)43/h11-24,34,43H,25-28H2,1-10H3/b12-11+,17-13+,18-14+,22-21+,24-23+,29-15+,30-16+,31-19+,32-20+/t34-,38-,39+,40+/m0/s1
Instrument: JMS-HX/HX 110A, JEOL
Instrument type: FAB-EBEB
Ms type: MS2
Ion mode: POSITIVE
Collision energy: 3 kV
Ionization: FAB
Base peak: 83.0759
Precursor m/z: 598.40
Precursor type: [M]+*
m/z	relative intensity
0.1358	1
15.0232	4
19.8620	3
22.9814	2
26.0001	2
27.0196	25
28.0326	4
29.0301	23
30.9995	2
36.9938	2
38.0181	8
38.5017	1
39.0217	74
39.4975	1
40.0187	11
41.0401	198
42.0310	13
43.0196	735
44.0066	3
45.0435	6
49.0499	1
50.0054	20
51.0286	49
52.0354	16
53.0375	85
54.0415	6
55.0510	339
55.7265	1
56.0598	21
57.0629	41
58.0285	8
59.0572	13
60.0480	1
61.0261	3
62.0143	11
63.0331	30
63.9940	8
64.5872	1
65.0440	70
66.0455	16
66.4319	1
67.0612	100
68.0594	11
69.0487	336
70.0441	28
71.0521	61
71.9982	1
73.0544	6
73.6473	1
74.0044	6
75.0250	11
75.1965	5
75.5489	1
76.0268	8
77.0474	198
78.0465	42
79.0578	201
79.6462	1
80.0497	45
80.4325	1
81.0630	195
82.0435	34
83.0759	999
84.0699	16
84.4544	1
85.0479	33
86.0257	6
87.0504	24
88.0090	3
88.6161	1
89.0362	25
89.4012	1
90.0307	18
90.5295	4
91.0629	398
92.0745	56
93.0817	257
94.0721	24
95.0741	242
96.0818	31
96.5487	1
97.0848	118
98.0445	15
98.5327	1
99.0517	11
99.4566	1
100.1136	1
101.0931	9
102.0691	26
103.0649	78
103.5831	1
104.0780	41
105.0889	501
106.0877	55
107.0939	203
108.0818	54
109.1010	177
110.0825	16
110.5414	1
111.0811	138
111.4478	2
112.0673	4
113.1103	64
113.4938	4
114.0914	17
115.0597	223
116.0751	88
117.0721	222
117.5605	3
118.0863	44
119.0935	448
120.0808	60
121.0838	244
122.0653	78
123.0856	169
124.0900	20
124.5072	2
125.0959	490
126.0656	22
127.0582	102
128.0681	280
129.0749	352
130.0758	114
131.0766	316
132.0887	107
133.0890	270
134.1080	38
135.0816	232
136.0855	64
137.0847	74
138.0487	28
139.0826	167
140.0868	20
141.0643	203
142.0737	222
143.0856	390
144.0780	160
145.0906	513
146.0925	68
147.0895	172
148.0815	33
148.3833	4
149.0938	90
149.4389	6
150.0997	18
151.0754	58
152.0773	97
152.5644	9
153.1024	235
154.0883	80
155.1019	287
156.1209	160
157.1185	402
158.1199	107
159.1178	431
160.1165	205
161.1221	143
162.1359	25
162.5345	3
163.1402	68
164.1438	16
165.1077	227
166.1219	90
167.1233	182
168.1241	70
169.1407	243
170.1521	113
170.5761	4
171.1552	226
172.1289	71
173.1470	138
173.6473	5
174.1387	23
175.1508	73
176.1530	25
177.1423	38
178.1157	118
179.1231	217
180.1175	76
181.1398	305
182.1325	97
183.1350	213
183.6615	3
184.1366	56
184.5724	1
185.1496	166
186.1388	40
187.1439	78
188.1237	23
188.4966	3
189.1163	85
190.1339	36
191.1125	96
192.1131	76
192.6151	4
193.1279	140
194.1236	80
195.1335	244
196.1303	59
197.1460	215
198.1424	64
198.5282	5
199.1439	102
200.1368	29
201.1333	63
202.1135	60
203.1156	82
204.0845	23
204.4962	3
205.1185	78
206.1115	49
206.5405	4
207.1358	141
208.1483	109
208.5546	5
209.1413	180
210.1471	48
211.1642	124
212.1648	25
212.5211	3
213.1536	81
214.1660	19
215.1542	73
216.1228	28
217.1645	52
218.1386	33
219.1673	175
220.1717	38
221.1952	318
222.1804	54
223.1923	114
224.1939	37
225.1928	80
226.1626	28
227.1763	41
227.6748	3
228.1967	30
229.1957	60
229.6837	2
230.2185	23
231.1841	54
231.6663	2
232.2139	47
233.1986	133
234.2376	60
234.6198	6
235.1931	82
236.1925	22
236.7274	10
237.2016	70
238.1940	24
239.2086	55
239.6397	5
240.1971	23
240.6829	5
241.2015	37
241.6096	6
242.1969	19
243.1802	43
244.1779	19
245.1807	68
246.2150	119
247.2216	121
248.2239	29
249.2047	66
250.1452	17
251.2063	52
252.2381	16
253.1998	29
254.2151	16
255.2041	24
256.1512	11
257.2207	28
257.6875	3
258.2154	40
259.2118	52
260.1879	15
261.2270	66
262.2383	18
262.7134	5
263.2294	51
264.2397	13
265.2346	30
266.2455	14
267.2097	15
268.1615	16
268.7176	2
269.2408	21
270.2325	17
270.7308	12
271.2386	83
271.7638	2
272.2592	26
272.6697	4
273.2360	50
274.2383	28
274.6395	2
275.2471	44
276.2121	20
277.2541	47
277.7870	6
278.2791	8
278.6062	3
279.2714	16
280.2325	11
281.2710	23
282.2703	9
282.6953	4
283.2542	20
284.3045	19
285.2826	72
286.2752	254
287.2695	82
287.8133	1
288.2626	7
289.2606	33
290.2258	17
291.2369	38
292.2120	90
293.3073	17
293.8136	2
294.2818	12
295.3019	19
295.6362	1
296.3302	8
297.2845	37
297.5969	3
298.2849	80
299.2807	127
300.2878	30
301.3189	20
302.2333	11
303.2190	13
303.7277	1
304.2475	10
304.7975	1
305.2273	18
306.1852	6
306.4508	3
306.7765	1
307.2682	15
308.3610	6
309.2214	23
310.2513	25
311.2736	65
311.7578	3
312.2849	42
313.2538	26
313.8570	2
314.2893	3
315.2491	14
316.2613	9
316.5734	1
317.2594	11
318.2641	10
319.3324	9
320.2583	6
321.1827	11
322.2199	11
323.2843	20
323.6270	2
324.2997	20
325.3010	32
326.2613	6
327.2614	5
328.1363	4
329.2209	5
329.9166	1
330.3105	4
330.6187	1
331.2717	8
332.2410	8
332.7813	1
333.2565	6
334.3183	6
335.2436	14
336.2549	5
336.8831	2
337.3316	14
338.2993	6
339.3202	5
340.4223	3
340.6319	1
341.3292	1
341.9535	3
342.3380	4
343.3040	11
343.8092	1
344.3766	3
344.7930	2
345.2730	13
345.8579	1
346.3396	6
347.3094	12
348.2238	5
349.3641	15
350.3392	10
350.6669	1
351.3287	57
352.3168	26
353.2844	16
354.5530	2
354.8045	1
355.4095	4
356.1721	4
357.3282	4
358.4208	1
358.7028	2
359.2746	12
359.7621	1
360.3787	7
361.2630	16
361.7889	1
362.3085	6
363.3015	28
364.3456	49
365.3740	65
366.3266	10
367.0164	2
367.3813	4
368.3916	1
369.3430	2
370.3185	3
371.2415	3
372.2762	4
372.6653	3
373.2999	5
374.3987	9
375.3207	11
375.7354	2
376.3193	13
377.3213	50
378.3824	96
379.3575	32
379.9129	1
380.4963	2
380.8184	2
381.1500	1
381.4146	1
382.2086	2
382.6424	1
383.1734	2
384.1558	2
384.4492	1
384.9405	1
385.4414	4
385.8370	1
386.3906	5
387.3176	11
388.4106	7
389.3553	23
390.3338	37
391.3777	45
391.7944	2
392.3037	13
393.3591	4
393.9020	1
394.2789	1
395.2083	4
396.3903	1
397.2881	5
398.4991	1
399.0791	3
399.4770	2
400.4135	4
400.7187	1
401.3308	9
402.3986	4
403.3450	10
403.8949	1
404.3506	2
404.9022	2
405.3627	4
406.2695	4
406.9060	3
407.2738	2
407.5042	1
408.0959	4
408.8078	1
409.4861	3
411.4333	5
412.4814	9
413.4108	8
414.2460	5
414.5398	3
415.3687	23
416.4182	10
416.8559	1
417.4550	37
418.4135	17
419.4154	12
420.2879	1
421.0134	2
421.6335	4
422.1338	1
423.3231	4
423.8938	1
424.5141	1
425.3119	4
426.3177	4
427.3539	9
428.3951	9
429.3899	37
430.4159	107
431.3954	28
432.2008	2
432.5172	4
432.8528	2
433.3563	4
434.3521	4
435.0682	1
435.5030	2
436.3647	4
437.3080	3
438.2594	2
438.8127	2
439.3772	7
440.3848	24
441.3557	8
442.4882	7
443.3712	29
444.3647	37
445.3424	176
446.3857	9
446.8546	1
447.3923	4
447.6372	1
447.8997	1
448.4630	4
449.2826	4
449.6539	1
450.4607	3
450.8017	1
451.4309	4
452.4267	27
453.4243	13
453.9735	1
454.3531	4
454.6765	1
455.4100	16
456.4095	9
456.8563	1
457.4073	18
458.3541	4
459.3233	6
460.2686	3
461.2443	6
462.3981	2
463.3981	7
463.5808	3
464.3100	1
464.7091	1
465.3260	6
466.2686	4
466.6398	3
467.1696	1
467.7521	2
468.4036	1
468.6997	1
469.0198	1
469.6569	4
470.4013	5
470.8079	4
471.4147	15
472.4057	50
473.4161	98
474.4954	8
475.2000	6
475.5827	7
477.0851	4
478.3376	11
478.8391	2
479.4462	9
480.6445	2
480.9586	1
481.3383	7
482.3141	2
482.6057	1
483.2819	4
483.8701	1
484.5111	4
485.4887	5
486.4568	13
486.7934	4
487.4201	8
487.8033	2
488.4316	2
488.7186	2
489.4432	5
490.4164	11
491.4458	22
491.8755	1
492.4592	35
493.0573	4
493.5909	4
494.1370	1
494.6270	1
495.5270	6
495.9915	3
496.5168	4
497.5082	9
498.4757	18
499.4320	11
500.5406	8
500.9026	4
501.5451	3
502.4520	9
503.3749	15
504.4517	54
505.4821	17
506.4566	63
506.9903	2
507.5080	3
507.7580	4
508.1459	3
509.2744	1
509.7489	1
510.3965	3
510.6322	2
511.3905	4
512.0558	4
512.4952	6
512.9024	1
513.4427	12
514.4626	50
515.5114	13
515.9267	1
516.6371	4
517.5112	16
518.4784	120
519.0125	4
519.5130	18
519.9669	2
520.7165	1
521.3885	3
522.5359	5
523.0512	1
523.7122	2
524.5027	10
525.3590	7
525.6391	3
526.1625	4
526.6555	6
527.4319	6
528.1186	3
528.5701	3
529.4698	5
529.7820	2
530.3183	4
530.8787	1
531.4086	1
531.7513	1
532.2380	4
532.7312	1
533.4022	1
534.1276	1
534.9875	2
535.6970	3
536.2512	1
536.7509	1
537.0071	1
537.4172	3
538.3911	2
539.5251	7
540.4671	27
541.4507	26
541.8561	5
542.4537	10
543.4294	4
543.8508	1
544.4789	8
544.7578	2
545.2802	1
545.8954	2
546.3698	1
547.2095	4
547.6022	4
547.9259	1
549.1888	3
549.8171	2
550.2820	1
551.2357	7
551.6140	2
552.2536	6
552.5341	1
553.2924	8
554.5108	28
555.5032	192
556.4829	20
557.3904	4
557.9132	4
558.4424	3
558.8047	1
559.2522	1
559.6499	1
560.1887	1
560.9120	3
561.2745	4
561.6177	1
562.4645	8
562.8527	5
563.4445	3
564.1503	6
564.7823	4
565.4036	11
565.6838	4
566.5150	6
566.7552	4
567.3797	4
567.7881	1
568.5104	11
568.7122	5
569.5226	17
570.4932	24
570.9368	5
571.6224	4
572.9103	5
573.4149	5
573.8121	4
574.4625	6
574.9143	8
575.7426	13
576.5100	8
577.6556	11
579.2419	15
580.5062	217
581.5607	54
582.5607	44
583.5255	357
584.6747	19
598.5135	999
600.4069	333
601.1437	155
602.2283	78
603.0181	34
603.9249	18
