Mass spectrum: Myxol 2'-(2,4-di-O-methyl-fucoside); FAB-EBEB; MS2; m/z: 758.51; [M]+*
Name: Myxol 2'-(2,4-di-O-methyl-fucoside)
Formula: C48H70O7
Exact mass: 758.51215
SMILES: C(C=C(C)C=CC=C(C=CC(C(C)(C)O)OC(C(OC)2)OC(C)C(OC)C2O)C)=CC(=CC=CC=C(C=CC=C(C=CC(C1(C)C)=C(C)CC(O)C1)C)C)C
InChI: InChI=1S/C48H70O7/c1-33(19-14-15-20-34(2)22-17-25-36(4)27-29-41-38(6)31-40(49)32-47(41,8)9)21-16-23-35(3)24-18-26-37(5)28-30-42(48(10,11)51)55-46-45(53-13)43(50)44(52-12)39(7)54-46/h14-30,39-40,42-46,49-51H,31-32H2,1-13H3/b15-14+,21-16+,22-17+,24-18+,29-27+,30-28+,33-19+,34-20+,35-23+,36-25+,37-26+/t39?,40-,42+,43?,44?,45?,46?/m1/s1
Instrument: JMS-HX/HX 110A, JEOL
Instrument type: FAB-EBEB
Ms type: MS2
Ion mode: POSITIVE
Collision energy: 3 kV
Ionization: FAB
Base peak: 99.0722
Precursor m/z: 758.51
Precursor type: [M]+*
m/z	relative intensity
0.0471	1
0.3949	1
5.3349	0
10.9129	0
11.6159	0
14.0253	1
15.0242	7
16.0346	0
18.5142	1
22.0431	0
22.9946	0
25.1787	0
25.6311	0
26.0191	1
27.0226	14
27.8129	1
28.0268	2
29.0273	28
30.0064	1
31.0151	10
32.0355	0
33.0330	30
35.5230	0
36.9842	1
38.0272	3
39.0270	31
40.0347	4
40.4533	0
41.0453	96
42.0298	7
43.0325	130
43.6735	0
44.0226	3
45.0389	142
46.0472	0
47.0338	1
48.5565	0
50.0123	6
51.0263	19
52.0388	6
53.0410	50
53.5738	1
54.0481	4
55.0570	149
56.0520	4
57.0556	119
58.0332	3
59.0621	587
60.0329	13
61.0507	15
62.0344	4
62.4739	0
63.0360	15
63.4218	0
64.0409	4
65.0538	37
66.0624	7
66.6451	0
67.0696	68
68.0603	4
69.0643	116
69.6108	1
70.0378	2
71.0592	262
72.0664	63
73.0762	971
74.0485	30
75.0583	462
76.0146	3
77.0519	119
78.0462	20
78.5011	1
79.0613	112
80.0814	15
81.0799	155
82.0611	15
83.0693	138
83.4937	1
84.0394	2
85.0554	280
86.0618	4
86.2743	2
87.0616	313
88.0596	11
89.0734	400
90.0594	7
91.0708	255
92.0785	21
93.0873	212
94.0907	13
95.1000	163
96.1070	5
97.0870	153
98.0858	6
99.0722	999
100.0902	4
101.0839	591
102.0915	52
103.0930	185
104.0952	18
105.1013	372
106.1046	29
106.5448	1
107.1201	171
108.1176	12
109.1205	117
110.1086	6
111.0833	181
112.1297	2
113.0897	52
113.5004	3
114.1050	11
115.1025	377
116.0950	58
117.0980	161
118.1096	29
119.1146	439
120.1109	35
121.1245	145
122.0933	7
123.1225	39
124.1014	2
125.0854	171
125.6762	1
126.0641	9
127.0913	64
128.0818	153
129.0948	287
130.0989	75
131.0958	506
132.1064	47
133.1134	232
134.1024	17
135.1175	91
136.0741	4
136.6164	1
137.1133	30
138.0654	3
139.0755	21
140.0853	6
141.0822	131
142.0875	134
143.0871	809
144.1022	96
145.1150	379
146.1276	26
147.1182	110
148.1190	11
149.1263	53
150.1188	6
151.0961	22
152.0854	54
153.0903	84
154.0945	38
155.1053	145
156.1064	107
157.1104	659
158.1209	55
159.1271	170
160.1471	20
161.1336	58
162.1247	6
163.1260	26
164.1247	6
165.1024	106
166.1158	41
167.1193	105
168.1311	48
169.1402	162
170.1577	64
171.1632	143
172.1936	25
173.1734	93
174.1504	14
175.1485	574
176.1328	13
177.1789	21
178.1409	62
179.1388	91
180.1469	51
181.1577	133
182.1694	52
183.1788	152
184.1797	35
185.1907	92
186.1654	15
187.1910	46
188.1617	7
189.1685	41
190.1425	12
191.1321	48
192.1505	38
193.1547	96
194.1392	54
195.1654	158
196.1607	43
197.1697	156
198.1870	21
199.1844	48
200.1880	9
201.1868	30
202.1449	25
203.1131	41
204.1251	15
205.1378	43
206.1738	41
207.1559	89
208.1687	49
209.1653	130
210.1624	25
211.1772	61
212.1605	9
213.1765	31
214.1667	10
215.1537	36
216.1299	16
217.1635	39
218.1485	14
219.1606	53
220.1505	22
221.1771	62
222.1795	22
223.1768	59
224.1728	8
225.1979	28
226.1969	8
227.1735	23
228.1736	12
229.1417	24
230.1638	15
231.2094	32
232.1485	14
233.1818	45
234.1773	17
235.2136	58
236.2025	12
237.2303	35
238.2183	6
239.2106	24
240.2206	11
241.2043	31
241.6329	2
242.2307	8
243.1845	22
244.2369	10
245.2090	30
246.1796	10
247.2276	38
248.1914	7
249.2211	27
250.2629	7
251.2450	18
252.2621	11
253.2488	21
254.2725	11
254.7913	10
255.2273	24
256.2461	5
257.2171	23
258.2832	11
259.2492	27
260.1693	7
261.2405	27
262.2928	9
263.2314	21
263.8373	2
264.2362	6
265.2840	14
266.2314	9
267.2723	19
268.2477	4
268.7132	1
269.2855	20
270.2557	7
271.2341	15
271.7099	1
272.2828	11
272.6616	1
273.2755	14
274.2512	4
274.7430	5
275.2777	15
276.2112	6
276.6120	2
277.2599	14
278.2213	4
279.2727	9
280.1976	4
281.2805	9
282.2917	3
283.2720	16
283.8120	68
285.2962	28
286.2932	5
287.2866	16
287.7668	2
288.3428	4
289.2822	14
290.2629	3
291.2439	6
291.7209	2
292.2780	5
293.2969	10
294.3102	7
295.3042	8
296.2907	5
297.3030	12
298.3411	7
299.2992	8
299.8361	1
300.3486	3
301.3405	9
302.2682	3
302.7831	1
303.3019	8
304.3124	2
305.2997	7
305.8189	1
306.3147	7
307.3496	24
308.3319	3
309.3478	9
310.3031	5
311.2686	3
312.2696	3
313.3043	6
314.3157	4
314.8461	1
315.3412	7
316.2824	3
317.3281	5
318.3541	4
318.7724	1
319.3478	11
320.3241	12
321.3321	7
322.3501	3
323.2426	4
323.5257	2
324.2710	2
325.2879	4
326.3444	2
327.2535	3
328.2023	1
329.2320	4
329.7715	0
330.4096	1
330.7228	1
331.2823	5
331.8753	1
332.3069	8
333.3218	12
334.4356	2
335.3250	7
336.3150	3
337.3645	7
338.4044	4
339.3636	4
340.2697	2
341.3853	3
341.8653	1
342.3551	3
342.8391	1
343.3191	7
344.3763	3
345.3981	5
345.7796	1
346.3371	3
347.3732	6
348.2829	4
349.3274	9
350.3542	4
351.4388	6
351.8544	2
352.3889	1
353.2758	1
353.7590	1
354.3135	1
355.0999	1
355.8051	1
356.5124	1
356.8354	1
357.3129	4
358.3574	7
359.2812	9
359.7868	1
360.3479	4
361.3276	6
362.4225	9
363.4165	7
364.3948	5
365.2939	4
365.6691	1
366.4255	2
367.3846	7
368.2387	1
368.7719	1
369.3388	2
370.1715	2
370.4828	1
370.8833	0
371.4069	4
372.4104	4
373.3586	14
374.3923	3
374.7713	1
375.3607	3
376.3055	4
376.9070	1
377.4113	2
378.3762	2
379.3573	2
380.3882	8
381.4391	1
382.2677	1
382.7863	1
383.3428	4
384.3466	6
385.3347	6
386.4104	9
387.4167	5
388.3755	2
388.8131	1
389.3980	2
390.1820	1
390.9800	2
391.4398	1
392.2319	1
393.5160	2
393.8605	1
394.5076	1
395.3560	1
396.2404	1
397.3699	2
398.3799	2
398.7941	1
399.4810	4
400.3493	3
401.4248	8
402.4587	8
403.4450	10
404.3756	3
405.2884	1
405.6372	1
405.9800	1
406.4904	1
407.3576	1
408.0375	0
408.4662	2
409.1942	1
409.5332	1
410.5066	2
411.4662	5
412.6274	2
413.3976	5
414.4753	3
415.4380	7
415.7948	1
416.4865	10
417.4615	3
417.9680	1
418.4984	2
419.4417	9
420.2516	1
420.9677	1
421.5383	1
422.1767	1
422.5738	2
422.8192	1
423.4518	1
423.9747	1
424.4358	8
425.4238	8
426.4340	2
426.9471	1
427.3904	4
428.3888	7
429.4133	7
430.4860	3
431.3710	8
432.4379	6
433.4410	22
434.0565	1
434.9120	2
435.2418	1
435.5816	1
436.2013	1
436.5372	1
436.8991	2
437.4909	2
438.5087	1
439.3706	2
440.5247	2
441.4489	4
442.4952	5
443.4577	2
444.0960	1
444.5563	1
445.4630	9
446.4738	12
447.1465	0
447.5749	1
448.4779	1
449.2809	1
449.8115	1
450.4844	1
451.4505	2
452.2301	0
453.4735	2
454.5293	4
455.4591	1
456.3791	1
457.3431	1
458.4594	4
458.7234	1
459.6797	1
459.9438	1
460.6862	1
461.5507	3
461.9830	0
462.3653	1
463.0277	1
463.4701	1
463.6783	1
464.1927	1
464.5531	1
465.4620	2
466.0747	1
466.5613	1
467.5245	4
468.4758	5
469.4893	8
470.5361	2
470.9442	1
471.5565	3
472.1428	2
472.8852	1
473.4275	1
473.7558	1
474.1520	1
474.6664	1
475.4871	3
475.8375	1
476.5401	4
477.3169	2
478.1959	2
478.7266	2
479.4615	4
480.4008	4
481.4143	2
482.4059	3
483.0269	1
483.5518	1
484.3893	2
485.4914	4
485.9022	1
486.5615	1
487.0004	1
487.4414	1
487.8923	1
488.5077	2
489.3998	3
490.1776	1
490.8613	2
491.5751	3
492.0464	1
492.5637	2
493.4922	6
494.5031	24
495.5180	12
496.4047	4
497.0748	2
497.6245	1
498.4692	3
499.5708	2
500.4117	2
501.2948	1
501.9892	2
502.6416	1
503.5048	4
504.3901	2
504.7595	1
505.4382	4
506.5747	18
507.4884	30
508.5367	45
509.5350	33
510.5099	36
511.5708	5
512.6339	2
514.0018	2
514.7702	2
515.5145	1
515.7934	1
516.3953	1
517.5150	1
518.5143	3
519.0482	1
519.6743	5
520.5996	6
521.6354	5
522.5709	13
523.5325	95
524.5344	551
525.5404	685
526.5264	12
527.2595	6
528.5389	3
529.6316	2
530.6039	1
531.4798	1
532.4040	2
532.7717	1
533.5473	3
533.9673	1
534.7169	2
535.5228	2
536.5176	7
537.5468	11
538.0251	2
538.5599	1
539.4907	4
540.1762	1
540.5904	1
540.9965	1
541.6915	1
542.4805	3
543.0307	1
544.1049	1
545.1733	1
545.6954	2
546.6032	3
547.5472	3
548.4672	5
548.8007	4
549.6685	7
550.6107	7
551.5751	38
552.6179	12
553.5463	10
554.4767	3
554.9028	1
555.2726	0
555.8011	1
556.5690	1
557.8674	1
558.3539	0
559.0997	2
559.3792	2
559.8738	1
560.2638	1
561.6390	2
562.7470	2
563.6500	2
564.5288	3
565.5927	19
566.6487	49
567.6183	636
568.5980	50
569.5817	4
570.1833	3
570.8976	1
571.5811	1
572.7474	2
573.9258	1
574.3594	1
575.2307	1
576.5298	2
577.7888	4
579.0720	3
580.7349	5
581.6207	9
582.6049	106
583.5993	28
584.6058	24
585.6465	1
586.6611	1
587.2177	1
587.8928	1
588.3289	1
589.9989	1
590.5516	1
591.4560	0
591.9806	0
593.6088	2
594.2842	2
594.7084	1
595.3758	1
596.3871	2
597.3481	2
597.6055	1
598.3917	1
599.2765	1
599.7611	2
600.6399	1
600.8692	1
601.3539	0
601.6877	0
602.4862	1
602.9870	0
603.5381	1
604.0772	1
604.5901	1
605.5638	1
606.0928	1
606.8996	1
607.3362	1
608.5977	12
609.3079	1
609.8392	2
612.6001	350
613.6547	5
614.4779	2
615.0999	1
615.6514	1
616.2110	2
616.8330	3
617.3725	1
618.0026	1
618.9972	1
619.7341	1
620.5193	1
621.2885	1
621.8532	2
622.6472	1
623.3506	1
623.9637	2
624.5467	1
624.9708	0
625.4915	1
625.9760	1
626.3801	2
627.2787	1
627.5984	1
628.1956	1
628.9355	1
629.8947	2
630.5079	2
631.1856	1
631.6944	1
632.0403	1
632.4787	1
632.9795	1
633.4883	1
634.0233	2
634.5945	2
635.5178	1
636.4631	2
637.0002	1
637.4971	1
638.1227	1
638.8469	3
639.6034	1
640.7441	4
641.2331	1
641.6938	1
642.1446	1
642.6215	1
643.3157	2
644.0341	3
644.8652	2
646.4933	5
647.5258	5
649.3503	4
650.1083	3
650.7456	4
651.5479	3
651.8676	2
652.2295	2
652.6095	2
653.4380	1
653.8984	1
654.4213	3
654.7953	1
655.1372	1
656.4866	3
657.3133	1
657.9770	1
658.7574	3
659.7510	2
660.3505	1
660.9177	1
662.3661	3
666.1747	34
667.3619	7
668.5673	6
669.4307	6
670.8334	8
672.4052	4
672.9910	3
673.7900	3
674.1342	2
674.9189	3
675.6741	2
676.8694	4
677.9662	4
678.4785	3
678.9426	1
679.6859	2
680.1841	3
680.8492	2
688.7327	36
700.4374	632
702.2387	6
703.8069	2
704.2714	1
704.7720	1
705.1400	1
705.8679	1
706.2661	1
706.6923	0
707.5449	1
708.4841	1
709.5580	2
709.7953	1
710.6379	4
711.1589	1
711.5510	2
712.6512	7
713.6791	3
714.8256	1
715.4653	1
715.7328	1
716.2236	1
716.6280	0
717.1430	1
718.4627	1
719.2947	0
719.8589	1
720.7104	1
721.0939	1
721.5739	1
722.5016	4
722.8571	2
723.4536	1
723.8472	1
724.6907	2
725.5905	4
726.7173	11
727.7336	34
728.5130	4
729.0312	3
729.5174	1
730.0276	2
730.4856	1
730.9276	1
731.3816	2
731.7030	1
732.3961	2
733.1274	1
733.7301	2
734.4213	2
735.3455	3
736.2235	2
740.7468	71
742.6942	111
743.6690	73
758.6766	999
761.9304	95
762.9219	48
