Mass spectrum: Dinochrome A; FAB-EBEB; MS2; m/z: 642.43; [M]+*
Name: Dinochrome A
Formula: C42H58O5
Exact mass: 642.42842
SMILES: C/C(=C\C=C\C=C(/C)\C=C\C=C(/C)\[C@H]1C=C2[C@](O1)(C[C@H](CC2(C)C)O)C)/C=C/C=C(\C)/C=C=C3[C@](C[C@H](CC3(C)C)OC(=O)C)(C)O
InChI: InChI=1S/C42H58O5/c1-29(18-14-19-31(3)22-23-37-40(8,9)27-35(46-33(5)43)28-41(37,10)45)16-12-13-17-30(2)20-15-21-32(4)36-24-38-39(6,7)25-34(44)26-42(38,11)47-36/h12-22,24,34-36,44-45H,25-28H2,1-11H3/b13-12+,18-14+,20-15+,29-16+,30-17+,31-19+,32-21+/t23?,34-,35-,36+,41+,42+/m0/s1
Instrument: JMS-HX/HX 110A, JEOL
Instrument type: FAB-EBEB
Ms type: MS2
Ion mode: POSITIVE
Collision energy: 3 kV
Ionization: FAB
Base peak: 624.5381
Precursor m/z: 642.43
Precursor type: [M]+*
m/z	relative intensity
1.0776	0
10.9983	0
11.7953	0
11.9854	0
12.9994	0
14.0020	1
14.6807	0
15.0155	4
15.5189	0
18.7638	0
24.0770	0
24.9713	0
26.0023	3
26.5854	0
27.0066	23
28.0083	3
29.0154	21
30.0245	0
30.9961	3
31.9010	0
34.1261	0
35.9814	0
36.9842	2
37.4881	0
37.9921	6
39.0002	59
40.0001	7
41.0166	105
41.9984	4
42.9960	638
44.0061	4
45.0036	6
45.6631	0
47.0117	0
48.9658	1
49.1623	0
49.4300	0
49.9840	17
50.9964	42
52.0076	15
53.0110	64
54.0039	4
55.0238	137
55.6633	0
56.0303	4
57.0447	95
58.0220	2
59.0274	23
60.0260	0
60.4739	0
60.9930	5
61.9905	11
63.0035	35
64.0058	9
65.0178	58
65.4922	0
66.0168	14
67.0253	88
68.0219	5
69.0264	107
70.0173	2
71.0159	25
71.9911	1
73.0011	1
73.4247	0
73.9969	10
75.0278	16
76.0071	11
77.0090	184
78.0127	39
79.0225	155
80.0103	25
81.0334	137
82.0146	7
83.0240	79
84.0208	3
84.4877	0
85.0262	91
85.9959	6
87.0053	31
88.0017	4
89.0093	24
89.3132	3
90.0296	9
91.0237	390
92.0347	40
93.0453	245
94.0454	18
95.0448	226
96.0379	17
96.5467	0
97.0457	31
98.0235	5
99.0312	6
99.4053	0
99.9927	2
101.0282	11
102.0262	25
103.0366	79
104.0372	34
105.0457	477
106.0487	50
107.0582	223
108.0442	25
109.0545	142
110.0523	10
110.4891	0
111.0417	27
111.6143	0
112.0314	2
113.0378	12
114.0505	11
115.0287	247
116.0357	81
117.0323	212
118.0350	40
119.0424	447
120.0361	49
121.0452	237
122.0252	42
123.0358	140
124.0233	15
125.0200	219
126.0073	20
127.0145	102
128.0139	283
129.0147	309
130.0245	121
131.0249	287
132.0282	62
133.0343	253
134.0278	33
135.0225	180
136.0216	79
137.0188	83
138.0094	7
138.9997	57
140.0243	15
141.0066	244
142.0166	231
143.0231	381
144.0276	118
145.0348	374
146.0336	57
147.0336	199
148.0204	29
149.0335	189
150.0287	28
151.0123	246
152.0159	146
153.0158	163
154.0356	78
155.0406	275
156.0482	193
157.0552	419
158.0584	91
159.0577	254
160.0579	36
161.0623	112
162.0707	44
163.0721	119
164.0823	30
165.0502	409
166.0573	88
167.0606	215
168.0662	84
169.0792	279
170.0833	120
171.0980	246
172.1053	70
173.0990	160
174.0919	31
175.0953	128
176.0753	33
177.0916	58
178.0683	151
179.0715	234
180.0819	220
181.0833	401
182.0855	101
183.0884	261
184.0888	74
185.0914	175
186.0900	47
187.0859	84
188.0678	25
189.0716	140
190.0826	63
191.0665	129
192.0624	89
193.0721	283
194.0774	101
195.0786	237
196.0754	77
197.0876	214
198.0889	54
199.0892	120
200.0835	46
201.0850	61
202.0559	82
203.0733	139
204.0798	40
205.0688	104
206.0748	85
207.0830	217
208.0951	106
209.0896	187
210.0995	50
211.0917	128
212.0928	37
213.0910	81
214.0898	19
215.0841	124
216.0806	47
217.0809	100
218.0768	46
219.0880	126
220.1031	66
221.1219	326
222.1214	54
223.1230	126
224.1134	34
225.1342	72
226.0858	30
227.1258	58
228.0998	33
229.1158	88
230.1289	38
231.1259	90
232.1383	52
233.1411	123
234.1610	73
235.1497	106
236.1555	31
237.1734	110
238.1638	23
239.1482	62
240.1429	17
241.1464	50
242.1252	25
243.1262	56
244.1459	30
245.1392	77
246.1413	40
247.1622	114
248.1517	36
249.1634	72
250.1620	21
251.1627	55
252.1503	34
253.1551	58
254.1468	14
255.1439	43
256.1430	20
257.1441	66
258.1473	23
259.1492	72
260.1598	24
261.1640	69
262.1585	23
263.1718	55
264.1804	25
265.1706	46
266.1587	15
267.1522	37
268.1577	11
269.1552	40
270.1580	16
271.1679	68
272.1562	30
273.1735	55
274.1776	51
275.1652	44
276.1783	16
277.1783	38
278.1532	10
279.1638	31
280.1731	10
281.1726	27
282.1656	13
283.1571	38
284.1940	17
285.1643	49
286.1654	33
287.1836	75
288.1970	12
289.1972	27
290.1723	9
291.1764	27
291.6853	16
292.1773	9
293.1888	23
294.1970	8
295.1650	24
296.1653	10
297.1896	37
298.1736	20
299.1916	94
300.2065	18
301.1942	25
302.1967	11
303.1977	46
304.1752	10
305.1717	16
306.1616	4
307.1551	15
308.1759	6
309.1869	19
310.1845	7
311.1722	33
312.1753	29
313.1855	75
314.2146	7
315.1930	20
316.1393	7
317.1793	25
318.2229	13
319.1971	31
320.1833	6
321.1528	14
322.1412	5
323.1553	16
324.1646	8
325.1859	64
326.2245	7
327.1782	14
328.1849	4
329.1747	15
330.1580	6
331.1857	16
332.1761	3
333.1702	14
334.2139	6
335.1657	12
336.2150	9
337.2047	30
338.2202	7
339.2103	12
340.1733	3
341.2303	12
342.2535	4
343.2153	9
344.2200	5
345.2420	10
345.6949	2
346.2317	5
347.2188	14
348.1682	5
349.2185	13
350.2416	11
351.2308	32
352.2355	545
353.2284	21
354.2352	5
355.2267	9
356.2595	4
357.2737	8
358.3239	2
359.2563	8
360.2469	4
361.2378	8
362.2784	13
363.2388	14
364.2747	12
365.2662	78
366.2784	7
367.2788	12
368.1937	4
369.2561	9
370.2586	3
371.3059	7
372.2900	4
373.2502	4
374.2225	4
375.2768	6
376.3206	10
377.2960	15
378.2768	13
379.2988	9
380.2558	2
381.2678	5
382.2594	4
383.2751	37
384.3373	2
385.2591	5
386.2855	3
387.2864	11
388.2840	3
389.2766	7
390.2417	3
391.2714	12
392.3475	3
393.2592	4
394.1796	1
395.3212	4
396.2642	1
397.2346	3
398.1247	1
399.2309	3
400.2567	2
401.2688	8
402.3189	8
403.2696	8
404.2684	3
405.2468	2
405.6416	0
406.3935	2
406.7455	1
407.3017	3
408.2822	3
409.2576	2
410.2228	1
411.2226	2
411.4974	1
412.2894	2
412.7447	0
413.2825	2
413.6278	1
414.3101	2
415.2931	4
416.3639	5
417.2784	11
418.3013	10
419.3088	24
420.3079	2
421.2744	5
422.2651	1
423.2852	2
424.1156	1
424.4077	0
425.2876	2
426.2534	1
426.5886	1
427.2727	4
428.2886	1
429.3012	5
430.3380	3
430.7043	1
431.2683	2
432.2692	2
433.3218	6
434.3057	14
435.2863	3
435.6768	1
436.1964	1
437.1944	2
437.9395	1
438.4059	2
439.2939	3
440.3594	1
441.3165	3
442.3016	2
443.3315	5
443.7252	1
444.3184	6
445.3295	5
446.3356	3
447.3452	6
448.2190	2
449.2924	3
450.3471	1
451.2538	2
451.5464	1
452.3999	1
452.8301	1
453.3240	3
454.3464	1
455.3051	3
456.3001	3
457.2935	11
458.3955	1
459.3632	4
460.3155	33
461.2869	10
462.3427	77
463.4211	3
463.9706	1
464.4065	1
465.3765	3
466.3707	1
466.6688	1
467.3443	4
467.6993	1
468.5076	2
469.3194	4
470.3243	2
470.8484	1
471.3259	1
471.8930	1
472.4482	1
473.1913	1
473.8138	1
474.4345	2
475.3623	4
476.4350	2
476.8765	1
477.3474	1
477.7354	1
478.3166	1
479.3662	3
480.3592	2
481.3333	6
481.8134	1
482.4090	4
483.3609	8
483.8497	1
484.4178	3
485.2975	2
486.2066	1
487.4481	2
488.1231	1
489.3923	4
490.3378	39
491.3747	2
491.9500	1
492.5461	2
493.3368	1
493.7675	1
494.4239	1
495.3715	3
496.3416	53
497.4221	5
498.3734	5
499.4040	15
500.4417	4
501.4552	2
502.3655	2
503.3499	5
504.5292	2
505.3500	25
506.2570	2
506.5674	1
507.3745	4
508.3062	2
509.3585	4
510.2782	2
511.7527	2
514.4333	4
516.4424	3
517.2885	3
518.2449	3
519.4066	3
520.2563	2
521.4371	3
522.3490	9
523.3627	7
524.3678	4
528.1062	17
532.7098	16
534.3918	7
535.3681	14
536.2224	4
538.4584	4
539.5334	6
541.4080	19
543.3878	60
545.3318	52
547.1846	49
549.3738	96
550.3823	34
551.3875	12
552.6064	6
554.0583	2
555.3740	3
556.4191	6
556.9261	2
557.4677	1
558.0869	2
562.3752	547
563.3586	13
564.4042	10
565.3878	20
566.3196	3
567.3964	11
568.3973	4
569.4967	2
571.3729	3
571.8303	2
572.8228	2
573.6635	2
574.5646	2
575.2725	1
576.2169	2
576.8817	1
577.9401	2
578.6912	1
579.5115	2
581.4494	15
582.4708	25
583.4904	257
584.4409	15
585.5403	3
586.3351	3
587.3515	3
587.7220	1
588.6121	1
589.9214	1
591.4853	2
592.4794	2
592.7271	1
594.2480	1
595.6407	3
596.0807	2
598.6188	27
599.5995	133
600.6114	19
601.3287	5
603.2366	3
606.4184	6
609.4182	36
610.5479	3
611.5354	5
612.6155	4
624.5381	999
625.5417	311
627.4786	483
642.3273	999
