Mass spectrum: Crassostreaxanthin B; FAB-EBEB; MS2; m/z: 598.40; [M]*+
Name: Crassostreaxanthin B
Class: Natural Product; Carotenoid
Formula: C40H54O4
Exact mass: 598.40221
SMILES: CC(C)(C=1C#CC(C)=CC=CC(=CC=CC=C(C=CC=C(C(CC(=C(C)CC(O)CC(C)=O)C)=O)C)C)C)CC(CC(C)1)O
InChI: InChI=1S/C40H54O4/c1-28(17-13-18-30(3)21-22-38-34(7)24-37(43)27-40(38,9)10)15-11-12-16-29(2)19-14-20-31(4)39(44)25-33(6)32(5)23-36(42)26-35(8)41/h11-20,36-37,42-43H,23-27H2,1-10H3/b12-11+,17-13+,19-14+,28-15+,29-16+,30-18+,31-20+,33-32+/t36-,37+/m0/s1
Instrument: JMS-HX/HX 110A, JEOL
Instrument type: FAB-EBEB
Ms type: MS2
Ion mode: POSITIVE
Collision energy: 3 kV
Ionization: FAB
Base peak: 598.4255
Precursor m/z: 598.40
Precursor type: [M]+*
m/z	relative intensity
0.1263	0
0.1890	0
0.2415	0
0.6509	0
1.4238	0
2.1158	0
5.6062	0
8.9370	0
11.9528	0
12.8871	0
13.9815	1
14.9819	2
17.6661	0
22.1213	0
23.9013	0
24.9529	0
25.9561	2
26.9630	13
27.5725	0
27.9656	2
28.1593	0
28.9677	7
29.9262	0
30.9320	1
32.5780	0
34.8317	0
36.8867	1
37.2908	0
37.3987	0
37.4740	0
37.9521	4
38.2252	0
38.9512	30
39.9570	4
40.9715	60
41.1554	0
41.3178	0
41.9427	2
42.9509	195
43.9587	3
44.9550	1
45.0416	0
46.4302	0
48.9375	0
49.0473	0
49.6420	0
49.9430	10
50.9520	28
51.9489	8
52.9638	44
53.9608	3
54.9816	89
55.9676	1
56.4210	0
56.9952	38
57.1362	1
57.9814	2
58.4416	0
58.6376	0
58.9811	9
60.9330	3
61.6178	0
61.9518	6
62.2905	1
62.9571	32
63.2546	1
63.4226	0
63.9628	6
64.1933	0
64.9676	54
65.3435	0
65.9664	8
66.0806	1
66.5424	1
66.9800	68
67.9810	5
68.5368	0
68.9789	88
69.5103	0
69.9575	3
70.9644	24
71.9750	0
72.9803	2
73.2427	1
73.9482	11
74.3877	0
74.7169	1
74.9386	15
75.0877	1
75.1763	0
75.3190	0
75.5017	0
75.7022	1
75.9416	9
76.0605	1
76.4375	2
76.6622	0
76.9508	150
77.2296	1
77.4164	0
77.5459	0
77.7151	1
77.9590	31
78.1154	0
78.2102	0
78.3329	1
78.3928	0
78.9686	122
79.9550	10
80.1051	0
80.3615	0
80.7507	0
80.9831	100
81.3597	1
81.9831	16
82.4466	2
82.5420	1
82.9961	121
83.7300	0
83.9758	4
84.9787	60
85.5078	1
85.9109	7
86.9548	114
87.2203	0
87.7470	1
87.9381	4
88.1202	0
88.3926	1
88.5480	1
88.9342	30
89.1632	2
89.2658	0
89.3916	0
89.5230	1
89.6734	2
89.9573	9
90.1874	1
90.4275	1
90.9620	355
91.3615	1
91.5561	1
91.9703	29
92.2828	0
92.6312	1
92.9811	189
93.3047	1
93.9830	12
94.2858	0
94.5343	1
94.9871	126
95.2569	0
95.3584	1
95.9742	9
96.7925	1
96.9913	24
97.5097	1
97.7871	0
97.9552	5
98.9628	9
99.9582	2
100.3221	1
100.4159	0
100.5736	1
100.9612	13
101.1172	3
101.4192	2
101.7033	0
101.9524	30
102.3021	0
102.5163	0
102.6413	1
102.9675	73
103.2625	1
103.4312	1
103.7226	1
103.9739	32
104.1895	1
104.3054	0
104.4284	0
104.6674	1
104.9854	339
105.3946	0
105.6581	1
105.9912	27
106.5037	1
106.6157	0
106.9989	153
107.1788	3
107.4996	2
107.9847	12
108.2039	1
108.3769	1
109.0079	159
109.2255	1
109.3201	1
109.6681	1
109.9795	9
110.3737	0
110.5715	1
110.9903	80
111.6190	1
111.9256	1
112.0257	2
112.2037	0
112.5508	2
112.6913	1
112.9825	28
113.2630	1
113.4221	1
113.5410	1
113.9632	9
114.1865	2
114.4189	1
114.9473	222
115.1498	2
115.4710	3
115.9516	83
116.2648	2
116.4260	1
116.6117	2
116.9632	189
117.2287	1
117.4275	3
117.5819	0
117.9713	33
118.3261	0
118.4755	2
118.5870	1
118.9783	405
119.2175	2
119.3652	0
119.6853	2
119.9797	24
120.2923	1
120.4648	1
120.9723	146
121.3778	1
121.5441	2
121.9565	25
122.3484	1
122.4761	0
122.9694	54
123.4890	1
123.9681	2
124.5100	0
124.7609	2
124.9553	9
125.1861	3
125.5603	1
125.9170	12
126.1560	1
126.2615	0
126.3964	2
126.5541	1
126.9452	92
127.1513	5
127.9363	254
128.2497	3
128.9430	233
129.1895	1
129.3399	4
129.5244	2
129.9563	97
130.3380	2
130.4520	2
130.9591	206
131.3426	2
131.9625	46
132.1508	1
132.4568	1
132.6531	2
132.9697	136
133.4686	1
133.9414	17
134.5093	2
134.9583	160
135.2336	2
135.4412	1
135.9593	9
136.1327	1
136.2541	1
136.3425	0
136.4942	1
136.9695	71
137.2178	0
137.5151	1
137.6453	1
137.9408	6
138.0671	1
138.1974	2
138.3409	1
138.4957	1
138.9331	51
139.2144	1
139.3184	1
139.4277	0
139.5436	1
139.9444	16
140.1160	4
140.4176	5
140.5297	4
140.6192	2
140.9362	219
141.1499	2
141.2799	2
141.4863	2
141.9451	170
142.3509	3
142.9551	259
143.4199	2
143.9588	74
144.1711	2
144.2936	2
144.9549	205
145.3660	1
145.4773	0
145.6207	0
145.9547	30
146.1668	4
146.4677	1
146.5925	1
146.9576	411
147.2647	1
147.4023	3
147.5392	1
147.7402	1
147.9835	20
148.1626	2
148.4279	2
148.6332	1
148.9629	55
149.2901	2
149.4487	1
149.9172	6
150.1040	2
150.2768	2
150.9327	42
151.3235	3
151.9277	107
152.2954	4
152.9445	154
153.2950	3
153.5570	1
153.9568	73
154.3205	1
154.5263	3
154.9681	273
155.2076	3
155.3469	2
155.4667	3
155.6121	1
155.9723	143
156.2544	3
156.9901	240
157.2146	3
157.4768	2
157.9745	62
158.2760	3
158.4663	1
158.9779	174
159.2561	2
159.4398	1
159.6080	1
159.9924	35
160.2066	1
160.3965	1
160.5878	3
161.0037	70
161.2323	2
161.3263	1
161.4345	0
161.5963	1
161.6876	0
161.9799	7
162.3089	1
162.6475	3
162.9834	29
163.2592	3
163.3750	3
163.9606	18
164.3024	5
164.9624	260
165.4605	3
165.9799	90
166.2074	2
166.3907	2
166.9852	177
167.4536	2
167.9955	70
168.3397	0
169.0052	190
169.5077	2
170.0212	73
170.4692	3
171.0156	148
171.3786	2
171.6166	1
172.0090	47
172.2518	1
172.4614	1
172.6302	1
173.0215	143
173.3347	2
173.4634	3
173.7358	2
174.0225	15
174.3407	2
174.5533	3
175.0236	35
175.3795	2
175.5281	3
175.6434	1
175.9708	31
176.2382	1
176.9855	29
177.1760	7
177.3767	5
177.9675	144
178.5394	3
178.9809	216
179.2906	1
179.5163	2
179.9807	99
180.2133	3
180.3604	1
180.9880	185
181.4474	3
182.0049	72
182.2816	2
182.5324	4
183.0087	170
183.3823	1
183.5915	3
183.9995	50
184.4605	2
185.0081	81
185.4028	2
185.6465	2
186.0057	13
186.2715	2
186.5243	2
187.0025	34
187.2135	4
187.4534	2
187.9360	11
188.3727	4
188.9609	83
189.2644	3
189.6388	4
189.9823	32
190.1888	4
190.9823	159
191.4487	2
191.9773	94
192.2510	3
192.4785	4
192.9806	192
193.4414	3
193.9823	90
194.2750	2
194.5304	3
194.9978	195
195.2437	2
195.3673	2
195.5676	3
195.9980	61
196.3476	3
197.0043	122
197.3721	3
197.5844	1
198.0014	37
198.2636	1
198.5708	3
198.9985	61
199.3688	2
199.5564	2
199.9753	26
200.9672	33
201.4848	5
201.9666	89
202.1995	4
202.9664	92
203.2779	3
203.4076	2
203.9655	36
204.2820	5
204.4007	2
204.9838	117
205.2657	3
205.5060	4
205.9922	100
206.2354	2
206.5328	3
206.9991	188
207.4245	2
208.0016	68
208.2263	3
208.4530	3
209.0095	143
209.4375	3
209.6261	6
210.0117	49
210.2713	1
211.0101	93
211.2609	3
211.4678	3
211.6078	1
212.0028	19
212.3359	1
212.5150	2
212.6363	2
213.0113	59
213.4624	5
213.9855	12
214.1445	5
214.5484	66
214.9914	102
215.4374	5
215.9937	48
216.2967	1
216.4831	2
217.0125	117
217.3177	2
217.5811	2
218.0136	42
218.3728	2
219.0159	127
219.2836	3
219.4403	2
219.6619	4
220.0291	71
220.2963	1
220.5152	3
221.0330	122
221.3843	2
222.0289	38
222.5785	4
223.0463	107
223.5289	6
224.0368	26
224.3780	3
224.6037	4
225.0586	49
225.4939	5
225.7211	6
226.0394	33
226.3810	3
227.0495	38
227.3455	5
227.6929	2
228.0283	41
228.3203	3
228.4986	3
229.0343	87
229.5195	3
229.6354	3
230.0477	49
230.4186	3
231.0552	121
231.4565	3
232.0666	55
232.5338	5
232.7441	4
233.0758	129
233.5653	3
233.6880	1
234.0626	39
234.4653	3
235.0723	93
235.4877	3
235.6625	2
236.0634	23
236.3632	2
236.5843	2
237.0654	58
237.4664	2
237.7320	4
238.0910	14
238.5625	4
239.0355	60
239.4734	2
240.0393	22
240.4120	2
241.0260	41
241.3664	1
241.4811	2
242.0390	31
242.4162	3
242.6119	2
243.0398	80
243.4544	3
244.0501	40
244.2796	2
245.0473	94
245.3862	2
246.0696	49
246.3008	4
247.0726	107
247.6302	4
248.0716	33
248.3403	3
248.4771	2
249.0795	83
249.4117	3
249.7229	2
250.0736	24
250.4335	3
250.6551	3
251.0758	30
251.4859	2
251.7147	5
252.0458	30
252.5571	4
253.0459	52
253.3892	5
253.5814	0
254.0335	22
254.2957	3
254.4073	2
255.0668	69
255.3318	2
255.5284	6
255.6493	2
256.0579	35
256.4942	2
257.0720	75
257.3748	3
257.5318	3
257.6606	3
258.0681	31
258.3079	3
259.0658	84
259.3850	1
259.5633	1
259.6539	1
260.0631	32
260.5381	3
261.0826	65
261.3531	3
261.5557	4
261.6541	2
262.0756	19
262.5183	4
262.6295	2
263.0929	64
263.3721	3
263.4600	1
264.0638	14
264.5621	2
264.6847	3
265.0832	39
265.5121	2
265.6575	1
265.8298	6
266.0766	22
266.3092	3
266.4809	1
267.0597	54
267.4882	3
267.6564	1
268.0786	22
268.5399	3
269.0651	53
269.4769	4
269.6039	0
270.0732	26
270.3083	3
271.0746	59
271.3700	3
271.6726	2
272.1017	31
272.4449	3
272.6090	1
273.0873	57
273.5137	1
274.1158	18
274.4364	3
274.6902	2
275.1075	49
275.3657	3
275.4844	1
276.0925	20
276.3557	3
276.5520	2
277.0947	38
277.5470	1
278.0973	11
278.3771	2
278.5625	3
278.7401	2
279.1059	30
279.3205	4
279.4434	3
279.5712	2
280.0771	13
280.4345	3
281.1083	55
281.4765	2
281.7224	4
282.1184	31
282.4000	2
282.6431	2
283.0918	51
284.0747	21
284.3778	1
284.5606	2
285.0992	52
285.4172	2
285.6022	2
285.8677	3
286.1317	18
286.3388	4
286.5594	1
287.1061	37
287.3930	1
287.5311	3
287.7347	2
288.1000	17
288.4354	2
288.5935	3
289.1205	29
289.4674	1
289.7395	1
290.0957	13
290.2595	4
290.4177	1
290.5616	3
290.6991	1
291.1124	24
291.5663	2
291.7445	2
292.1144	10
292.5677	1
293.1273	29
293.4018	1
293.5223	2
294.1332	14
294.5775	3
295.1194	39
295.5780	1
296.0702	16
296.4036	0
296.6137	1
297.1089	43
297.5100	1
297.7045	4
298.1150	18
298.3317	3
298.5198	2
299.1028	43
299.4671	2
300.0873	12
300.4781	1
301.1227	33
301.4508	2
301.6740	2
302.0756	10
302.4793	0
302.6484	0
303.1128	24
303.4745	1
303.7514	2
304.0911	7
304.4850	3
304.5942	1
305.0867	19
305.3858	1
305.5285	1
305.7348	3
306.1232	8
306.4288	2
306.6723	2
307.1200	31
307.3985	2
307.5506	1
308.0591	8
308.5320	1
309.0834	22
309.4321	1
309.6629	1
310.1309	12
310.3781	2
310.5353	1
311.0892	35
311.4752	1
311.6339	1
311.7889	2
312.0649	13
312.3444	1
312.5510	2
312.7733	2
313.1172	28
314.0354	14
314.4574	2
315.1226	49
315.5618	2
315.7306	1
316.1091	12
317.1087	17
317.5380	3
317.6561	1
317.8222	2
318.1042	5
318.4878	1
319.1163	14
319.5144	1
319.6812	0
319.8058	0
320.0743	4
320.2440	3
320.4101	2
321.0854	14
321.4607	1
321.6992	2
322.1068	8
322.2522	4
322.5215	1
322.5996	0
323.0868	26
323.2272	12
323.3841	1
323.6421	1
323.7481	1
324.1028	8
324.3959	1
324.5356	2
324.7363	1
325.1083	21
325.4380	2
325.7225	3
326.1111	11
326.3390	2
326.4724	1
326.5971	1
327.1083	31
327.4439	1
327.6052	4
327.6934	1
328.0821	11
328.2499	6
328.4478	3
328.6831	2
329.1371	30
329.4706	1
329.6026	1
329.8293	3
330.1694	8
330.4628	1
330.6687	3
331.1329	20
331.2987	10
331.4537	0
331.6668	2
331.8986	3
332.1419	8
332.4656	3
333.1403	30
333.4367	1
333.6614	3
333.7677	2
334.1259	12
334.2997	4
334.4289	1
334.6148	0
335.1297	17
335.6819	3
335.8672	2
336.1228	6
336.3167	3
336.4877	1
336.7678	3
337.1420	26
337.5702	1
337.6707	1
337.8359	2
338.1329	7
338.7842	3
339.1222	22
339.5864	3
339.7586	3
340.0915	11
340.2666	3
340.5781	2
341.1314	18
341.5312	2
342.1356	10
342.5419	1
342.7759	2
343.1435	17
343.4285	2
343.5413	0
344.0144	5
344.2320	3
344.3031	1
344.4647	2
345.1476	15
345.4105	3
345.5448	1
345.6935	2
346.1633	17
346.5684	2
346.7121	1
347.1532	16
347.4183	1
347.6468	3
347.9493	3
348.2072	11
348.4300	1
348.7182	1
349.1342	11
349.4534	1
349.6783	1
350.0219	4
350.2009	3
350.3827	1
350.6027	2
350.7536	0
351.0958	10
351.2892	4
351.4963	1
351.8730	3
352.1966	6
352.3720	1
352.4741	0
352.6345	1
353.1400	17
353.3932	2
353.5895	2
353.8139	0
354.1274	7
354.3166	2
354.6072	0
355.1446	23
355.4539	2
355.6093	1
355.8733	2
356.1784	7
356.7274	1
357.1720	12
357.2850	4
357.5239	1
357.7290	1
358.0183	5
358.2839	2
358.5725	1
358.9778	4
359.2405	9
359.5306	1
359.7811	2
360.2116	9
360.5017	1
360.5845	1
360.9107	1
361.1792	10
361.3275	2
361.6509	0
361.7639	1
361.8950	0
362.0138	1
362.2104	3
362.4027	2
362.6828	2
362.7966	0
363.1502	4
363.3584	1
363.5558	1
363.8648	1
364.1925	4
364.7141	2
365.1384	7
365.7935	1
366.0985	2
366.2388	2
366.3431	1
366.4992	2
366.6856	1
367.1878	12
367.5642	1
367.9305	2
368.2198	5
368.7725	2
369.2123	18
369.5923	1
369.7133	1
370.1502	5
370.3259	4
370.8104	2
371.2287	13
371.6031	1
372.2216	21
372.6378	1
372.9496	2
373.2355	12
373.4682	1
373.6828	1
374.1682	8
374.3872	3
374.7884	0
374.9354	1
375.0730	3
375.2646	4
375.5599	1
375.6759	1
376.1644	2
376.2653	1
377.1299	4
377.2827	2
378.0055	2
378.0869	1
378.2599	1
378.7571	1
378.8609	1
379.1968	7
379.5932	1
379.9709	3
380.2135	4
380.4972	1
380.6153	1
380.7039	0
381.2115	15
381.5500	1
381.6169	0
381.8524	2
382.1247	4
382.2665	4
382.4351	3
382.7974	1
383.2252	19
383.5104	1
383.7409	2
383.8152	1
384.0918	4
384.3489	3
384.7625	3
385.2236	16
385.6112	1
385.9736	2
386.2035	7
386.4449	1
386.6351	1
386.8102	1
387.0027	2
387.2852	3
387.6131	1
387.8199	1
388.0729	2
388.2466	2
388.4037	2
388.5666	2
388.6610	1
388.9148	3
389.0402	2
389.2745	3
389.5225	1
389.6926	2
390.0293	2
390.3054	2
390.4690	1
390.6428	1
390.7877	1
391.1576	6
391.4020	2
391.5008	1
391.6804	2
392.1613	1
392.3142	1
392.4202	1
392.7289	1
392.8918	2
393.2712	7
393.5287	1
393.8554	1
394.2125	3
394.4764	1
394.6150	2
394.7701	1
395.2050	14
395.5809	1
395.8536	1
396.2316	3
396.4250	1
396.5960	1
397.2006	5
397.4359	3
397.5787	1
397.6978	3
397.8667	2
398.2116	6
398.5898	2
398.7889	0
399.2271	25
399.4804	4
399.6103	2
399.7121	1
400.2339	17
400.6107	3
401.2669	57
401.6611	3
401.8640	1
402.1340	6
402.3528	5
402.4632	3
402.7513	2
403.1369	4
403.3795	4
403.6741	0
403.8092	1
403.9601	0
404.2807	2
404.5320	0
404.6671	0
404.8585	1
405.0542	1
405.1986	2
405.3366	2
405.4991	1
405.6754	1
406.1940	3
406.3529	2
406.5277	2
406.6194	1
406.8152	1
407.0341	1
407.1930	5
407.3693	1
407.6272	1
407.8056	1
407.9956	1
408.1156	2
408.2709	2
408.5100	2
408.6235	1
408.7976	3
408.9248	2
409.3005	11
409.6531	2
409.9025	1
410.0629	1
410.3671	7
410.5673	1
410.7075	1
411.2604	28
411.6810	2
411.7656	1
412.0699	1
412.2376	3
412.5836	1
412.7985	1
413.2484	30
413.6854	2
413.9890	3
414.2436	11
414.3914	7
414.5480	2
415.2872	18
415.5563	1
416.0186	1
416.1543	1
416.2661	2
416.4565	2
416.5993	1
416.7862	0
417.2616	12
417.5386	1
417.6533	0
417.9022	1
418.0169	1
418.2363	3
418.3380	1
418.8099	1
419.1469	2
419.3092	2
419.4247	1
419.8504	0
420.0871	1
420.3354	2
421.1826	1
421.6633	0
422.1260	2
422.2465	2
422.4739	1
422.6825	1
422.8442	1
423.1229	3
423.2275	2
423.9747	1
424.1422	2
424.3689	3
424.5429	1
424.8360	1
425.1840	6
425.3407	4
425.4858	1
425.7147	1
425.9198	1
426.0555	0
426.2953	4
426.7249	1
427.2471	17
427.5988	2
428.2343	22
429.2557	156
429.6377	2
429.8686	3
430.2762	9
430.7589	3
431.0193	2
431.1918	3
431.3801	3
431.7033	1
431.8029	1
432.0779	1
432.2792	2
432.3658	1
432.6032	0
432.8666	1
433.2729	1
433.5154	0
433.6323	0
433.9058	1
434.1953	4
434.2992	2
434.4175	2
434.8160	1
435.2101	5
435.3703	2
435.5017	2
435.9716	0
436.0640	1
436.2301	1
436.4004	1
436.5968	0
437.0617	1
437.2581	3
437.3837	2
437.7129	0
438.3541	0
438.9159	1
439.2401	4
439.4459	0
439.7694	1
439.9333	1
440.2056	4
440.3782	2
440.5565	1
440.9075	1
441.2881	7
441.5149	1
441.8399	0
442.1390	6
442.2704	3
442.4676	1
443.2759	8
443.5251	1
443.7527	0
444.0410	3
444.2273	3
444.3762	3
444.7974	2
445.2511	14
445.4722	6
445.7547	0
445.9425	1
446.0329	1
446.3356	4
446.5083	1
446.7395	1
446.9852	0
447.1312	1
447.2700	4
447.4528	1
447.5858	1
447.8257	1
448.0309	2
448.1848	1
448.3648	1
448.5079	1
448.6069	1
448.8881	1
449.1432	1
449.3463	1
449.6159	0
450.1204	1
450.9025	1
451.0406	1
451.2025	2
451.3167	1
451.7310	2
451.9312	1
452.1481	1
452.3354	2
452.5927	1
452.7424	1
453.2810	4
453.9600	1
454.0699	0
454.2767	2
454.5406	1
454.9723	1
455.0967	2
455.2413	2
455.3737	1
455.4959	0
455.7787	1
456.0122	1
456.2068	1
456.3963	1
456.6009	1
456.9626	1
457.1752	2
457.3531	3
457.5202	2
457.8956	1
458.0396	1
458.2030	1
458.4005	2
459.0089	1
459.1810	1
459.3597	3
459.5478	1
459.7011	1
459.9377	1
460.0469	1
460.3226	4
460.4644	2
460.7516	1
460.9137	1
461.1090	1
461.2103	1
461.5323	1
461.8687	2
462.3101	0
462.5098	1
462.6770	0
463.1712	1
463.3507	1
463.5302	1
463.8348	1
464.0309	2
464.2965	2
464.6374	1
464.7836	2
465.1295	1
465.3053	6
465.4354	1
465.6840	2
465.9059	3
466.1662	1
466.4018	2
466.5833	1
466.8941	2
467.2910	4
467.3936	2
467.5281	1
467.8224	1
468.0703	3
468.3574	2
468.5967	1
468.7680	1
469.0218	1
469.1353	1
469.3906	1
469.7369	1
470.0262	3
470.2980	4
470.6422	4
471.0125	3
471.3582	3
471.5440	2
471.7074	1
471.9591	2
472.3142	2
472.5334	2
472.6838	1
472.7604	0
473.0107	0
473.1271	1
473.3138	1
473.4555	4
473.5980	2
473.7159	2
473.8924	1
473.9994	1
474.1419	1
474.3647	1
474.5043	1
474.7647	1
474.9940	1
475.2950	4
475.4975	1
475.7276	2
476.0285	2
476.2882	6
476.4886	4
476.6738	2
477.0233	2
477.2548	1
477.3814	1
477.6925	1
478.0470	2
478.2909	2
478.5304	2
478.9283	1
479.2417	3
479.3473	2
479.5094	2
479.6679	0
479.8452	0
480.1013	2
480.2106	1
480.3047	1
480.4219	0
480.6036	1
480.7679	1
480.9097	0
481.3331	5
481.4995	3
481.6920	2
481.8303	2
482.4318	5
482.5823	3
482.8783	2
483.1613	4
483.4589	3
483.7875	8
484.1661	4
484.5323	5
484.8494	3
485.2454	5
485.5089	3
485.6479	1
485.8868	1
485.9984	3
486.2749	2
486.7028	1
486.9012	1
487.1401	1
487.2560	2
487.4022	1
487.5673	1
487.7433	1
487.9793	3
488.2233	4
488.4036	6
488.8366	2
488.9684	1
489.1618	2
489.3588	1
489.5492	2
489.6817	2
489.8128	0
489.9461	0
490.1496	1
490.2951	2
490.7499	1
490.8658	1
490.9832	3
491.0882	1
491.3301	4
491.4916	3
491.5988	1
491.8226	0
491.9530	1
492.2615	6
492.5469	1
492.9330	1
493.3523	8
493.7377	1
493.9395	1
494.3003	2
494.6084	1
495.0878	1
495.3677	5
495.5391	2
495.6866	1
495.8450	1
496.3245	4
496.5422	2
496.8069	1
497.2452	6
497.5136	5
497.6004	3
498.0467	2
498.3027	7
498.3917	3
498.6130	1
498.7895	2
498.9711	2
499.2178	3
499.3653	2
499.5187	2
499.7075	1
499.8175	1
500.1379	1
500.3665	2
500.6010	0
500.7702	2
501.1291	3
501.3830	2
501.5516	2
501.7477	1
501.9437	1
502.1376	3
502.4104	1
502.9017	2
503.0450	2
503.2635	2
503.4806	4
503.7830	1
504.0305	2
504.2599	4
504.5544	2
504.7860	2
504.9640	2
505.2759	4
505.3707	2
505.6927	2
506.3767	30
506.8109	3
507.2329	2
507.4377	1
507.9111	3
508.2028	3
508.4149	1
508.6516	1
508.9585	0
509.3110	6
509.4905	2
509.7345	3
510.1181	3
510.3006	1
510.4316	3
510.5648	2
510.8015	0
511.3105	16
511.5421	8
511.9005	1
512.0359	3
512.3842	16
512.8280	0
513.0590	2
513.2964	5
513.5137	4
513.7179	1
513.8135	1
513.9793	1
514.3058	0
514.4507	1
514.5832	1
515.1205	1
515.4225	1
515.5615	0
515.9968	1
516.0974	1
516.1981	1
516.3719	1
516.7434	1
517.2170	1
517.3981	2
517.5596	4
517.7632	3
517.8363	1
517.9964	3
518.3448	13
518.5874	5
518.9785	2
519.3834	21
519.5761	9
519.8325	3
519.9600	1
520.3574	2
520.4586	1
520.6270	1
521.0490	1
521.3757	5
521.6510	3
521.9293	2
522.0883	0
522.2827	5
522.4952	2
522.7488	1
523.3494	4
523.4824	3
523.5699	1
523.7766	2
523.8951	2
524.0238	2
524.2804	3
524.5450	2
524.7994	1
525.2888	5
525.5374	2
525.6849	1
525.8468	3
526.0399	0
526.1721	1
526.4013	2
526.6218	2
526.7280	1
526.8278	1
527.0433	2
527.2912	3
527.4329	1
527.7481	3
528.2130	5
528.4053	4
528.5687	1
528.7444	0
528.9382	3
529.0936	1
529.2325	3
529.4696	2
529.6251	1
529.8564	2
530.3113	3
530.6164	1
530.8752	1
531.1378	1
531.4285	1
531.6736	2
531.8500	2
531.9542	0
532.0923	1
532.2377	1
532.4872	3
532.6976	2
532.8798	2
533.2161	2
533.5206	0
533.6457	2
533.8367	2
534.2634	1
534.4131	1
534.6286	2
534.8441	1
535.0358	1
535.2130	1
535.3157	1
535.4835	3
535.6984	0
535.8141	1
535.9826	2
536.2264	2
536.6032	4
536.8629	1
537.0503	2
537.4532	4
537.9509	2
538.3068	8
538.4696	4
538.6020	3
538.7886	3
539.3826	13
539.6141	6
539.7002	2
539.7921	1
540.3571	30
540.5387	15
540.6776	2
540.8259	1
541.0170	3
541.3519	4
541.6182	2
541.7716	1
541.8983	1
542.2217	2
542.5068	2
542.8903	1
542.9756	0
543.1342	1
543.3346	3
543.4308	1
543.6204	1
543.8013	1
543.9880	1
544.4555	3
544.6061	1
544.8137	1
545.3739	1
545.5381	1
545.8682	1
545.9797	1
546.7924	1
546.9017	1
547.1970	1
547.5343	2
547.8868	1
548.1423	2
548.3515	1
548.5483	1
549.1593	4
549.2831	2
549.3844	1
549.6494	1
549.8629	2
550.0620	2
550.4152	3
550.6541	1
550.8351	5
550.9502	2
551.1341	2
551.4012	5
551.5352	3
551.7835	3
552.0644	5
552.2498	5
552.4792	4
552.6248	2
552.7891	5
552.9274	3
553.1859	7
553.3734	4
553.6130	4
553.7057	2
554.2610	6
554.5695	5
554.8135	4
555.4363	22
555.8237	4
556.4645	8
556.9323	8
557.1481	4
557.5298	10
557.7760	5
558.0628	5
558.7313	6
559.5837	6
559.8408	5
560.1074	6
560.3196	6
560.4695	4
560.7882	5
561.0540	3
561.3322	6
561.7189	5
561.9203	3
562.0536	1
562.4071	8
562.7888	2
562.9706	2
563.1235	3
563.3003	5
563.4575	4
563.7726	4
563.9052	2
564.2145	3
564.3775	4
564.4651	2
564.6702	2
565.3906	26
565.8591	4
566.1766	3
566.3617	2
566.6061	1
566.7811	1
567.1412	4
567.3350	4
567.8325	6
568.3943	11
568.7805	8
569.1450	7
569.4567	9
569.7344	7
570.5314	13
572.3758	18
573.1656	17
573.8434	21
574.7448	21
579.4314	57
580.4849	328
581.5002	41
583.4664	402
583.9512	27
585.0875	20
586.0580	21
586.7153	21
589.5833	31
598.4255	999
599.5387	477
600.4451	216
601.3074	99
602.4388	54
603.0581	29
603.8648	18
604.6100	14
604.9587	11
