Mass spectrum: Astaxanthin; FAB-EBEB; MS2; m/z: 596.39; [M]+*
Name: Astaxanthin
Formula: C40H52O4
Exact mass: 596.38656
SMILES: CC(=C1C=CC(=CC=CC(C)=CC=CC=C(C)C=CC=C(C)C=CC(C(C)(C)2)=C(C)C(=O)C(O)C2)C)C(=O)C(O)CC1(C)C
InChI: InChI=1S/C40H52O4/c1-27(17-13-19-29(3)21-23-33-31(5)37(43)35(41)25-39(33,7)8)15-11-12-16-28(2)18-14-20-30(4)22-24-34-32(6)38(44)36(42)26-40(34,9)10/h11-24,35-36,41-42H,25-26H2,1-10H3/b12-11+,17-13+,18-14+,23-21+,24-22+,27-15+,28-16+,29-19+,30-20+/t35-,36-/m0/s1
Instrument: JMS-HX/HX 110A, JEOL
Instrument type: FAB-EBEB
Ms type: MS2
Ion mode: POSITIVE
Collision energy: 3 kV
Ionization: FAB
Base peak: 119.0741
Precursor m/z: 596.39
Precursor type: [M]+*
m/z	relative intensity
1.7636	2
4.5633	1
4.7181	1
6.7161	2
7.3887	1
14.0242	1
15.0271	6
16.3774	1
19.0371	1
22.9941	2
25.0116	1
26.0095	8
27.0249	52
28.0375	5
29.0347	59
30.0160	3
31.0141	8
31.9294	1
35.9301	1
37.0020	6
37.3451	1
38.0141	25
39.0267	153
39.7555	1
40.0297	20
41.0429	276
42.0299	8
42.5898	1
43.0322	247
44.0353	6
45.0333	7
47.0320	1
48.0218	1
48.3359	1
49.0260	4
49.2737	1
50.0226	50
51.0251	110
51.5561	1
52.0335	41
53.0394	193
54.0486	7
55.0489	358
56.0557	5
57.0615	90
58.0202	3
59.0517	17
59.7732	1
60.0049	1
61.0139	8
62.0334	32
63.0379	104
64.0380	26
65.0436	164
66.0495	29
67.0531	199
67.5039	1
68.0429	10
69.0618	209
70.0375	6
70.4371	1
71.0485	69
71.4470	1
72.0105	2
73.0364	12
73.7089	2
74.0244	34
74.4956	1
75.0351	44
75.6288	4
76.0127	20
77.0378	478
78.0517	100
79.0529	408
80.0533	38
81.0711	435
82.0388	8
83.0518	112
84.0302	6
84.3396	1
85.0567	114
86.0310	13
86.6305	1
87.0280	29
87.4017	4
88.0396	10
89.0389	82
90.0637	29
91.0639	974
92.0611	70
93.0809	426
94.0759	36
94.6009	1
95.0906	231
96.0493	15
96.3675	1
97.0857	41
98.0430	8
99.0409	11
99.5945	1
99.9994	2
101.0609	15
102.0663	68
103.0653	200
103.5857	4
104.0676	79
105.0830	990
106.0835	81
107.0985	433
108.0880	40
108.5097	3
109.1001	222
110.0676	13
110.5990	1
111.0775	76
111.4873	2
112.0228	4
113.0402	18
113.3072	4
114.0523	18
115.0504	563
116.0643	194
117.0613	510
118.0669	97
119.0741	999
120.0685	123
120.4584	4
121.0743	325
121.6121	2
122.0716	49
122.4927	2
123.0689	115
124.0675	64
125.0762	90
126.0315	41
127.0472	211
128.0396	679
129.0450	764
130.0530	256
131.0609	609
132.0570	167
133.0703	585
134.0718	128
135.0759	475
136.0433	88
136.4530	2
137.0354	339
138.0232	32
139.0209	106
140.0548	44
141.0372	553
142.0470	485
143.0608	852
144.0611	278
145.0653	786
146.0749	104
147.0783	475
148.0737	31
149.0732	111
150.0558	43
151.0571	129
152.0491	295
153.0538	362
154.0609	213
155.0750	607
156.0780	385
157.0894	716
158.0943	171
159.1030	456
160.0872	83
161.1096	299
162.1045	52
163.0942	102
163.4298	12
164.0787	49
165.0805	605
166.0876	185
167.1030	436
168.1072	178
169.1107	502
169.6059	8
170.1295	206
171.1238	375
172.1247	123
173.1340	311
174.1033	62
175.1291	139
176.0576	55
176.3818	8
177.1120	105
178.0765	323
179.0885	478
180.0967	205
181.0935	450
182.1046	178
183.1057	461
184.1120	130
185.1084	294
186.1160	72
186.4105	8
187.1076	162
188.1013	63
189.0789	248
190.0920	80
191.0678	212
192.0685	196
193.0865	351
194.0899	197
195.0923	499
196.0908	170
197.0990	350
198.0863	79
199.1064	184
200.0520	54
201.1037	116
201.4621	11
202.0764	147
203.0665	207
204.0816	58
205.0880	204
206.0934	149
206.4881	11
207.0932	309
208.0951	134
209.1113	329
210.1019	86
211.1160	242
212.1106	41
213.1057	118
214.1105	31
214.4111	11
215.0942	180
216.0969	94
217.1062	170
218.1083	78
219.1124	200
220.1154	122
221.1327	229
222.1165	87
223.1440	213
224.1488	45
225.1540	137
226.1132	59
227.1394	94
228.1086	64
229.1342	151
230.0980	76
231.1290	162
232.1325	88
233.1404	181
234.1471	72
235.1511	147
236.1461	46
237.1773	108
238.1592	45
238.4824	7
239.1414	115
240.1520	38
241.1521	97
242.1276	44
243.1346	83
244.1358	67
245.1451	119
245.6297	4
246.1579	55
247.1446	128
248.1440	44
249.1766	109
250.1581	30
251.1555	76
252.1454	59
253.1622	74
254.1309	26
254.6529	4
255.1640	77
256.1568	45
257.1671	87
257.5535	7
258.1606	36
258.5376	8
259.1461	82
260.1803	41
260.6325	6
261.1741	105
262.2105	33
263.1705	77
264.2373	22
265.1635	72
265.5929	6
266.1792	27
266.5147	6
267.1764	44
267.7112	6
268.1629	24
268.4375	5
269.1529	66
270.1651	31
271.1839	88
272.1857	25
272.6569	3
273.2114	76
273.7267	5
274.2216	24
275.1991	73
276.1707	24
277.1965	50
277.6329	2
278.2028	22
279.1920	43
280.1895	16
281.1934	43
282.1819	18
283.1785	52
284.2036	26
284.6581	7
285.2055	55
286.2359	24
286.5774	6
287.2162	56
288.2456	25
289.1934	66
290.1414	171
291.1495	29
292.2602	13
293.1790	34
294.2224	11
295.1780	38
296.1794	23
297.1969	106
298.2161	25
299.1867	63
299.6264	2
300.1891	17
300.6163	2
301.2091	40
302.1819	26
303.2039	33
304.1378	9
304.3461	5
305.1460	17
305.6479	3
306.1813	15
306.5144	4
307.1600	32
308.1642	10
308.6237	3
309.2159	43
309.6408	2
310.1257	8
310.5254	2
311.2048	44
312.1956	13
313.2135	32
314.1984	6
314.4276	3
315.1803	26
316.1877	8
316.6385	4
317.1812	21
318.1985	6
319.1337	17
319.7209	3
320.1989	8
321.2122	26
322.1796	7
322.4678	5
323.1916	27
324.1104	17
324.6934	2
325.2083	11
325.6647	2
326.2399	8
326.5728	5
327.1877	19
328.1072	9
328.3387	4
328.6922	1
329.2091	28
329.7356	2
330.2082	8
331.2361	15
331.5771	2
332.0991	7
332.4243	2
333.2002	18
333.7668	4
334.1683	7
335.2048	21
335.7065	2
336.2415	6
337.1497	11
338.1740	9
339.1948	20
340.2206	3
341.2751	23
342.1743	6
342.8167	3
343.1895	12
344.4128	5
345.1728	11
346.0885	4
347.2187	16
348.2188	3
349.2303	24
350.2419	13
351.2394	50
352.2211	8
353.1951	11
353.8243	1
354.2121	3
354.6650	3
355.2484	9
356.1258	3
356.3754	1
356.5995	1
357.2816	15
358.2722	4
358.6062	2
359.2201	5
359.7481	1
360.2412	4
360.5482	2
361.2164	20
361.5521	3
361.7303	2
362.2092	13
363.2292	30
364.2780	12
365.2567	21
366.1667	3
367.2264	8
367.6322	2
368.2560	6
369.2874	4
370.2218	5
370.6151	3
371.3331	6
372.1356	5
372.5576	1
373.2838	14
373.8014	1
374.3366	7
375.2542	25
375.7050	1
376.2961	21
377.2521	52
378.2242	14
379.2666	11
379.9321	2
380.2488	4
380.6372	1
381.2613	6
382.1878	3
382.6655	3
383.2292	6
383.9299	2
384.3344	2
385.1706	7
386.2298	7
387.2637	10
388.2006	7
389.1854	13
389.7193	1
390.2133	17
390.7935	2
391.3339	8
392.1931	2
392.8228	1
393.3856	6
393.6631	2
394.1892	2
394.7267	1
395.2609	4
396.1157	1
396.5017	2
397.1797	7
398.1224	3
398.4973	2
399.2488	6
399.8839	1
400.2413	1
400.7376	1
401.3488	11
402.2937	5
403.2530	7
403.6409	4
404.2859	1
405.2534	7
405.4562	3
406.2354	3
407.2159	8
407.6839	1
408.3531	2
408.6885	2
409.2780	4
409.8083	1
410.1965	2
411.2909	6
412.2457	3
413.1639	6
414.1732	5
414.4299	2
414.7073	2
415.3228	13
416.3307	12
417.3195	24
418.2653	11
419.3293	4
420.4572	2
421.1609	2
421.5359	3
422.3896	2
423.1380	2
424.1068	3
424.6463	1
425.2257	6
426.0191	3
426.4645	1
427.2468	8
427.5310	2
428.2863	10
428.7749	3
429.2728	11
430.2825	13
431.2780	6
431.6418	2
432.2848	3
433.3284	4
434.0098	2
434.6944	1
435.2690	1
435.6872	1
436.2522	4
437.0248	2
437.3090	2
438.2461	5
438.5717	3
439.4004	5
440.3776	6
441.2751	8
441.6983	2
442.2732	43
443.1676	305
444.3017	6
445.3161	5
445.9791	1
446.2539	4
446.5879	3
447.2941	4
448.0930	1
448.3583	2
448.8984	2
449.2948	9
450.3528	6
450.6868	1
451.2558	7
452.1478	5
452.5442	2
453.3180	7
453.5930	3
454.3172	2
454.9088	2
455.4268	3
456.2504	3
456.7205	3
457.3362	4
457.6880	2
458.3470	2
459.2091	3
459.5306	4
460.1032	3
460.8503	3
461.2550	3
462.0133	2
462.5269	4
462.8917	3
463.4309	6
463.8566	3
464.2134	3
464.6326	2
465.2701	7
466.2128	3
467.2339	7
467.9419	3
468.6786	9
469.3755	7
469.7127	4
470.3729	7
470.9915	4
471.3608	7
471.6837	3
472.2832	3
472.6541	3
473.6677	4
474.2354	4
475.3755	10
475.8008	3
476.3781	3
476.6676	3
477.0562	2
477.3569	5
478.0878	3
478.3469	2
478.9259	5
479.3802	4
479.7433	2
480.1880	3
480.7111	1
481.6678	6
482.3765	37
482.8437	6
483.2517	8
483.5397	4
484.1222	7
484.6982	9
485.4184	10
486.0745	8
486.6939	9
487.3101	9
487.6398	6
488.4721	8
489.3413	8
490.3322	10
491.2287	2
491.6386	2
492.1973	2
493.2692	4
493.5761	2
494.4747	7
494.9064	2
495.3397	3
495.9745	1
496.5182	5
496.7389	2
497.4441	6
497.9622	3
498.4932	3
498.9938	2
499.3537	1
499.7295	3
500.5821	5
501.2587	4
502.2233	5
503.3752	9
504.3367	179
504.8871	6
505.2615	10
505.5671	9
506.0007	3
506.4248	2
507.2025	4
507.6234	4
507.9466	2
508.3547	5
509.3822	9
510.1777	3
510.6723	5
511.2213	3
511.6967	2
512.5259	1
513.6401	4
514.0308	1
514.6039	2
515.2828	4
515.5806	3
516.3251	10
517.3131	17
517.8672	2
518.4036	2
518.7079	3
518.9689	2
519.5630	3
519.8522	2
520.3793	3
520.5726	2
521.2531	5
521.6541	3
522.3618	6
522.7915	3
523.1653	3
523.4337	2
523.6973	3
523.9578	2
524.4499	13
525.0347	3
525.6163	1
526.1005	2
526.7668	2
527.3214	5
528.0565	4
528.3729	5
528.6222	4
529.3174	2
530.0846	3
530.7591	2
531.2258	3
532.1321	6
532.3495	3
533.2416	7
534.3686	6
535.0513	7
535.4462	7
535.7932	2
536.5462	4
537.2130	6
537.4640	3
537.9837	2
538.4922	4
539.3334	6
539.8147	2
540.3073	20
540.8527	7
542.0170	8
542.6840	4
543.3925	6
544.5602	4
545.7040	6
546.3823	3
546.9247	4
547.7054	4
548.4382	3
550.1663	34
551.4208	87
552.2818	14
552.9860	5
553.4020	6
553.8373	6
554.7480	6
555.5388	4
556.1022	3
556.7216	3
557.3779	7
558.4041	3
558.8347	4
560.2162	15
560.9976	7
561.5980	7
562.3793	10
563.2664	39
564.3676	6
565.2597	7
566.4509	15
567.3959	16
568.3793	38
569.4331	10
570.0424	11
570.5222	7
571.5041	7
572.3342	8
573.2411	11
574.2919	15
575.3093	16
576.3282	10
578.3824	270
579.3823	34
580.3903	62
581.3968	186
582.4736	18
583.2881	22
588.3214	39
596.3306	999
598.8011	186
599.8373	92
600.8145	43
601.8620	29
602.5289	19
603.5286	13
