Mass spectrum: Methyl-13-hydroperoxy-delta9E,11E-octadecadienoic acid; FAB-EBEB; MS2; m/z: 311.22; [M-CH3]-
Name: Methyl-13-hydroperoxy-delta9E,11E-octadecadienoate
Name: LOOH-2
Name: Methyl-13-hydroperoxy-delta9E,11E-octadecadienoic acid
Class: Natural Product; Lipid
Formula: C19H34O4
Exact mass: 326.24571
SMILES: CCCCCC(OO)C=CC=CCCCCCCCC(=O)OC
InChI: InChI=1S/C19H34O4/c1-3-4-12-15-18(23-21)16-13-10-8-6-5-7-9-11-14-17-19(20)22-2/h8,10,13,16,18,21H,3-7,9,11-12,14-15,17H2,1-2H3/b10-8+,16-13+
Instrument: JMS-HX/HX 110A, JEOL
Instrument type: FAB-EBEB
Ms type: MS2
Ion mode: NEGATIVE
Collision energy: 3 kV
Ionization: FAB
Base peak: 311.2848
Precursor m/z: 311.22
Precursor type: [M-CH3]-
m/z	relative intensity
16.9031	1
57.9024	3
58.9124	1
68.8866	0
70.8987	4
85.9355	1
96.9381	2
98.9782	1
113.0496	2
127.0657	7
139.0524	1
141.0629	2
153.0373	0
167.0323	1
169.0620	1
171.0724	4
181.1453	1
183.1137	2
193.1142	1
195.1174	2
197.0844	3
199.1119	1
209.1150	1
211.0698	3
221.1403	3
223.1617	40
237.2179	2
239.1937	2
249.1720	1
251.1382	2
254.1375	0
263.1453	1
265.1789	6
267.2511	1
275.3267	1
277.2140	20
278.2270	2
279.2055	6
281.2135	1
293.1772	572
295.2386	1
305.8662	1
307.4409	2
307.9039	2
309.2440	5
311.2848	999
313.3656	1
