Mass spectrum: 3,4-Dehydroxy-3'-deoxycapsanthin; FAB-EBEB; MS2; m/z: 550.42; [M]+*
Name: 3,4-Dehydroxy-3'-deoxycapsanthin
Formula: C40H54O
Exact mass: 550.41747
SMILES: C(C(=CC=CC=C(C=CC=C(C=CC(=O)C(C2)(C)C(CC2)(C)C)C)C)C)=CC=C(C=CC(=C1C)C(CC=C1)(C)C)C
InChI: InChI=1S/C40H54O/c1-31(19-13-21-33(3)24-26-36-35(5)23-15-28-38(36,6)7)17-11-12-18-32(2)20-14-22-34(4)25-27-37(41)40(10)30-16-29-39(40,8)9/h11-15,17-27H,16,28-30H2,1-10H3/b12-11+,19-13+,20-14+,26-24+,27-25+,31-17+,32-18+,33-21+,34-22+/t40-/m0/s1
Instrument: JMS-HX/HX 110A, JEOL
Instrument type: FAB-EBEB
Ms type: MS2
Ion mode: POSITIVE
Collision energy: 3 kV
Ionization: FAB
Base peak: 68.9738
Precursor m/z: 550.42
Precursor type: [M]+*
m/z	relative intensity
0.3125	0
2.1054	0
2.7220	1
3.9256	0
5.9703	0
11.9592	1
13.9814	0
14.9713	1
22.9175	0
23.9541	0
24.9403	2
25.9554	4
26.9581	59
27.9647	7
28.9675	38
30.9426	1
31.9426	0
36.9280	5
37.9401	27
38.4995	1
38.9421	131
39.4039	1
39.9604	20
40.7030	1
40.9624	335
41.9579	4
42.9628	170
43.1266	0
43.9942	1
44.9438	1
45.9598	1
46.0759	0
46.8805	0
48.9407	2
49.9322	50
50.1269	0
50.9415	121
51.0997	2
51.6110	1
51.7513	0
51.9465	39
52.0668	1
52.9550	190
53.9593	11
54.2740	1
54.3280	0
54.5397	0
54.9694	756
55.2857	0
55.6656	0
55.9640	7
56.9873	75
57.9767	1
58.9795	7
59.9429	1
60.0680	0
60.9356	6
61.4239	0
61.9322	26
62.0815	1
62.4305	0
62.9378	86
63.2700	0
63.3724	0
63.5751	0
63.9369	17
64.1491	1
64.2524	0
64.9549	152
65.4037	0
65.5481	1
65.9577	26
66.4265	0
66.9639	197
67.1603	1
67.9613	9
68.6126	1
68.7144	2
68.9738	999
69.2708	1
69.4808	2
69.6556	1
69.9741	10
70.9719	12
71.4415	0
72.0300	1
72.3115	0
72.9051	0
73.0034	0
73.1154	1
73.2243	2
73.9154	27
74.1237	1
74.9333	30
75.1213	2
75.2169	1
75.4405	3
75.6198	2
75.9445	31
76.1974	1
76.3677	2
76.6270	2
76.9416	406
77.1780	2
77.2987	1
77.5058	2
77.6061	0
77.9477	80
78.1279	3
78.3964	1
78.5784	0
78.7226	1
78.9574	302
79.2601	1
79.9621	34
80.2241	1
80.5790	1
80.7032	1
80.9725	292
81.2538	1
81.5269	0
81.9665	14
82.5777	1
82.9795	79
83.9753	2
84.9760	5
85.9234	8
86.9198	10
87.9266	6
88.4806	1
88.6869	1
88.9439	53
89.1098	1
89.4078	3
89.5463	2
89.9636	19
90.0988	4
90.2571	1
90.5340	3
90.9569	637
91.2689	1
91.4425	2
91.6342	0
91.7190	0
91.9616	55
92.2656	1
92.4796	1
92.5808	1
92.9801	339
93.1938	3
93.3391	1
93.4590	1
93.5453	0
93.9886	15
94.1185	2
94.4533	1
94.6553	0
94.9882	201
95.2613	1
95.4852	3
95.8378	1
95.9863	10
96.1039	1
96.2047	0
96.4651	0
96.9771	36
97.5042	1
97.9243	6
98.9447	5
99.5114	1
99.9712	3
100.6565	1
100.9592	11
101.2392	2
101.3539	2
101.4610	1
101.6069	1
101.6841	1
101.9602	43
102.2171	2
102.3385	1
102.5967	3
102.9648	119
103.2358	4
103.4460	1
103.6084	2
103.9748	59
104.1286	2
104.2776	0
104.6616	2
104.9766	732
105.2579	2
105.3735	1
105.4499	1
105.5768	0
105.7031	0
105.9879	69
106.1448	2
106.4462	1
106.5848	2
106.7229	3
106.9872	213
107.3235	3
107.5169	4
107.9669	18
108.9891	145
109.2604	1
109.6926	0
109.9535	10
110.4118	1
110.5102	0
111.0113	867
111.3366	4
111.4948	1
111.9961	11
112.3411	3
112.4840	1
112.6204	2
112.7496	6
112.9376	11
113.0902	1
113.2561	2
113.4375	3
113.9133	11
114.1933	4
114.3121	5
114.9458	363
115.1781	4
115.3019	3
115.5001	3
115.9485	150
116.3623	4
116.5043	4
116.6806	5
116.9527	316
117.1479	3
117.3256	2
117.4979	2
117.9560	68
118.1472	1
118.2425	1
118.4422	3
118.9649	691
119.3237	3
119.4481	1
119.5986	1
119.9777	51
120.2643	1
120.5420	1
120.9627	213
121.2341	3
121.3298	1
121.5382	1
121.6927	1
121.9491	24
122.2008	1
122.3688	1
122.5763	0
122.9636	37
123.6985	1
123.9787	4
124.2487	2
124.6075	1
124.7517	2
124.9538	12
125.1638	2
125.2752	3
125.5913	3
125.9246	15
126.0727	2
126.2184	1
126.9253	127
127.2329	5
127.4538	5
127.9278	402
128.2089	5
128.3879	6
128.9340	429
129.2815	3
129.9420	171
130.2531	2
130.3420	1
130.4026	0
130.5448	3
130.9469	424
131.1756	2
131.3265	2
131.5148	1
131.9463	66
132.4872	2
132.9609	348
133.1987	5
133.4877	2
133.6624	0
133.9626	27
134.1714	3
134.2607	2
134.4868	2
134.5824	3
134.9645	158
135.4418	2
135.6942	0
135.9441	13
136.1379	1
136.2805	1
136.5337	0
136.9439	12
137.2127	1
137.6806	1
137.8866	7
138.0399	2
138.0969	1
138.4712	1
138.5628	1
138.9224	46
139.2587	2
139.6316	1
139.9576	21
140.0772	11
140.4697	5
140.9312	306
141.3072	4
141.4940	3
141.9417	314
142.2082	3
142.4958	4
142.9464	461
143.2567	4
143.4109	3
143.5820	2
143.9603	165
144.2024	2
144.3654	3
144.9626	519
145.2735	1
145.4299	3
145.6137	1
145.9610	44
146.2104	0
146.4187	3
146.6221	1
146.9771	118
147.2255	1
147.3529	1
147.5570	1
147.6869	1
147.9642	6
148.2303	2
148.5478	1
148.9816	21
149.4112	1
149.6195	1
149.9643	11
150.4131	2
150.5696	2
150.9409	30
151.2836	3
151.4603	4
151.9416	132
152.2294	5
152.9501	169
153.2588	4
153.3887	1
153.6248	1
153.9745	90
154.1742	3
154.3645	2
154.5027	3
154.9709	286
155.3914	2
155.6411	4
155.9876	198
156.2185	3
156.5017	2
156.9926	413
157.5537	4
157.9953	103
158.2789	2
158.4818	3
158.9957	464
159.3684	4
159.5999	2
160.0126	22
160.3667	1
160.7114	2
161.0152	54
161.4264	2
161.6160	1
161.7499	1
161.8460	2
161.9932	6
162.3599	1
162.9860	18
163.2612	1
163.4105	2
163.5820	6
163.6548	2
164.0016	20
164.2409	5
164.4987	4
164.9845	259
165.3310	2
165.4800	5
165.5814	1
165.9852	100
166.2484	2
166.5574	2
166.9992	201
167.2926	1
168.0073	88
168.3307	3
168.5269	4
169.0187	284
169.2625	4
169.4430	2
169.6273	1
170.0188	96
170.3895	1
170.5352	3
171.0246	191
171.3068	2
171.5008	3
171.5928	1
171.6905	2
172.0064	36
172.3662	3
172.4417	1
173.0390	182
173.2727	4
173.5134	5
173.7414	2
174.0171	10
174.2598	3
174.4765	2
174.6169	3
175.0384	81
175.2984	3
175.4141	3
175.5515	3
175.6768	4
175.9573	22
176.2022	2
176.3931	1
176.9671	22
177.2364	5
177.5058	3
177.9726	149
178.2751	3
178.3612	1
178.9774	207
179.2514	3
179.3758	4
179.6129	2
179.9943	85
180.2060	3
180.3170	1
180.9870	208
181.3686	5
181.5991	2
182.0007	94
182.3698	4
182.5390	2
182.9990	202
183.5314	4
184.0159	41
184.2883	2
184.5754	3
185.0142	124
185.4236	1
185.6047	2
185.8083	4
186.0201	26
186.2794	4
186.5054	2
187.0260	59
187.2450	1
187.3956	1
187.5275	1
188.0036	6
188.3939	3
188.9574	50
189.2241	1
189.3967	3
189.5705	1
189.9662	29
190.2902	3
190.9699	107
191.2202	3
191.9702	111
192.4513	1
192.9930	183
193.3053	1
193.5585	1
193.9976	84
194.2053	2
194.4985	7
195.0022	208
195.3251	2
195.5046	4
196.0188	57
196.3162	2
196.3954	1
196.7005	6
197.0161	156
197.3625	2
197.4856	2
197.5745	0
198.0048	32
198.3669	4
198.5293	2
199.0327	81
199.2365	2
199.4621	2
200.0109	8
200.2141	5
200.4921	2
200.6901	2
201.0263	38
201.2302	6
201.5361	3
201.6407	2
201.9789	68
202.2094	4
202.3676	1
202.5801	4
202.9773	63
203.2298	4
203.3345	2
203.4501	2
203.5884	4
203.9845	32
204.2772	2
204.5241	3
205.0128	123
205.2935	2
205.5741	3
205.6317	1
205.9958	66
206.2927	2
206.4629	2
206.5683	1
207.0064	137
207.2213	4
207.3895	1
207.5772	2
208.0142	46
208.2946	2
208.4234	1
208.5976	4
209.0329	166
209.3704	2
209.5226	4
209.6049	3
210.0242	38
210.3605	1
210.5576	1
210.6418	1
211.0418	80
211.2649	2
211.4977	2
211.9672	10
212.2708	1
212.5393	2
212.6399	2
213.0188	18
213.3913	5
213.6204	0
213.9904	8
214.3436	4
214.9884	65
215.2937	1
215.4431	2
215.6516	4
216.0070	28
216.4833	2
217.0078	54
217.3426	3
217.4987	1
217.6280	3
217.7249	3
218.0312	35
218.3869	1
219.0303	66
219.3048	4
219.5879	23
219.8260	8
220.0551	40
220.2680	4
220.6403	3
221.0596	95
221.3656	2
221.5336	3
221.6522	1
222.0501	33
222.3999	1
223.0717	80
223.3728	2
223.5044	3
223.6902	1
224.0448	15
224.3857	2
224.6433	2
224.7248	1
225.0848	30
225.4004	2
225.5544	1
225.7070	1
226.0175	16
226.1604	6
226.3811	1
226.5203	1
227.0548	20
227.3920	6
227.5600	1
227.7345	5
228.0165	19
228.3949	5
228.5636	3
229.0365	52
229.4229	1
229.7168	2
230.0459	19
230.3112	1
230.4181	2
230.5902	2
231.0472	63
231.3628	1
231.4756	2
231.7390	3
232.0482	29
232.3313	2
232.4957	2
232.6444	1
233.0606	60
233.3099	3
233.5305	2
233.6767	3
233.8352	4
234.0689	26
234.3887	2
234.5572	2
234.7139	5
235.0677	67
235.4700	2
235.6861	1
235.8102	2
236.0872	23
236.3119	3
236.4699	2
236.5666	2
236.7228	0
237.0860	57
237.3860	3
237.5605	1
237.7578	1
238.0899	13
238.3847	2
238.6148	2
238.7880	3
239.0613	32
239.3327	1
239.5688	1
239.6688	1
239.7885	2
240.0841	8
240.2961	2
240.4334	2
240.7828	5
241.0674	37
241.4567	1
241.5791	0
241.7623	1
242.0490	14
242.3920	1
242.5236	1
243.0394	43
243.2837	1
243.5908	1
243.7604	3
244.0538	24
244.3472	2
244.4258	1
244.5542	2
244.6885	4
245.0593	44
245.3240	3
245.5088	1
245.6366	2
246.0566	21
246.3758	1
246.6662	1
246.8222	4
247.0786	51
247.4241	2
247.6385	1
247.8031	3
248.0883	16
248.3041	2
248.3861	1
248.5009	1
248.6701	1
249.0879	35
249.5327	3
250.0668	11
250.3707	1
250.5092	2
250.6450	1
251.1137	36
251.3927	1
251.8061	2
252.0870	18
252.2728	2
252.4073	4
252.5576	1
252.7401	1
253.0513	22
253.3894	2
253.5535	2
254.0454	9
254.2240	4
254.3678	3
254.6686	0
255.0621	29
255.4267	2
255.6356	0
255.7979	4
256.0798	13
256.1724	6
256.3223	3
256.4754	1
256.5917	1
257.0787	36
257.2154	12
257.5658	1
257.6657	1
257.7841	1
258.0963	14
259.0755	28
259.6839	3
259.8674	1
260.1312	17
260.3200	2
260.5799	2
260.6911	2
261.0944	35
261.3978	2
261.7065	1
262.0724	11
262.3614	1
262.5536	2
263.0869	31
263.4221	1
263.5314	1
263.6927	2
263.8567	1
264.1227	13
264.3756	3
264.6253	1
265.1108	25
265.4540	0
265.8375	3
266.0997	6
266.4424	0
266.5281	0
267.0844	13
267.6321	1
267.7482	2
268.0778	8
268.8414	2
269.0814	20
269.5009	1
269.7821	2
270.0995	10
270.8464	3
271.1072	20
271.5137	1
271.9143	2
272.1357	8
272.2977	2
272.4078	1
272.6463	1
272.8236	2
273.0865	26
273.2849	2
273.6125	1
273.7852	1
274.1201	8
274.3100	2
274.6119	2
275.1137	24
275.3273	2
275.5206	3
275.7164	1
276.1069	13
276.4419	2
276.6128	1
276.8991	4
277.1293	18
277.6703	1
278.1316	11
279.1136	15
279.2463	5
279.5176	1
280.0609	6
280.1830	4
280.6129	2
281.0698	10
281.3584	1
281.5889	1
281.7474	1
281.8557	1
282.0816	6
282.3471	1
282.6920	1
282.8406	1
283.1300	18
283.4888	1
283.6388	0
284.1020	9
284.4139	1
284.5871	2
284.8409	1
285.0906	19
285.2609	8
285.5803	2
285.7942	2
286.1321	7
286.3037	1
286.3981	1
286.5163	0
286.7229	0
287.1171	15
287.6037	1
288.0916	2
288.6794	1
289.1173	17
289.2131	9
289.4595	1
289.8156	1
290.0217	4
290.1829	6
290.7339	2
291.1581	11
291.4132	1
291.9254	3
292.0999	1
292.2579	2
292.5765	2
292.8217	1
293.1172	8
293.4776	1
293.5688	1
294.0760	2
294.4079	1
294.7002	1
295.0871	10
296.0813	6
296.2096	5
296.4564	0
296.5861	1
296.7356	1
297.1557	9
297.2953	3
297.6487	2
298.1034	5
298.4270	2
299.0803	10
299.1683	5
299.3577	2
299.6900	1
299.8906	1
300.1322	4
300.2481	2
300.4547	2
300.7057	1
301.1089	10
301.3268	2
301.6825	2
301.9639	3
302.1414	3
302.3097	2
302.4323	0
302.8171	0
303.1172	10
303.2802	2
303.8175	1
303.9845	4
304.2032	4
304.5690	1
304.8294	1
305.0945	5
305.2178	4
305.4524	2
306.0278	2
306.2638	1
306.5548	1
306.7000	1
306.8067	1
307.0308	9
307.1395	4
307.3126	3
307.6223	2
307.7449	2
307.8510	1
308.1408	5
308.8597	2
309.1211	16
309.9668	3
310.1346	6
311.0907	9
311.2161	4
311.4570	3
311.5818	1
311.6654	2
311.8539	2
312.0569	2
312.1313	1
312.2381	1
312.5002	2
312.9118	2
313.1209	11
313.5304	1
314.0337	3
314.1611	2
314.2906	1
314.8151	2
314.9659	3
315.1598	8
315.5515	2
315.7853	2
316.1519	4
316.4189	1
316.9888	4
317.1542	13
317.6930	1
318.0099	2
318.2371	5
319.1129	9
319.3422	2
319.5987	1
319.9941	1
320.1390	4
321.1281	6
322.0735	2
322.2330	1
322.5549	1
323.0968	4
323.2172	9
323.7073	1
324.1103	4
324.3185	2
325.1167	2
325.8246	1
326.1067	2
326.4407	2
326.7508	2
327.2046	9
327.3756	1
328.0217	1
328.1811	3
328.3305	1
328.5371	0
328.7165	2
329.1403	8
329.3868	2
330.1163	5
330.2498	7
330.8239	1
331.1848	11
331.5789	1
331.9032	1
332.1431	4
332.3286	1
332.4482	2
332.6842	0
332.9388	1
333.1728	4
333.8874	1
333.9958	2
334.1055	2
334.3860	0
334.4885	1
334.7065	1
335.1574	8
335.5278	1
335.7719	1
336.1582	4
336.3671	1
337.0455	5
337.2830	4
337.5591	1
338.1232	7
338.2736	3
339.1165	6
339.2290	3
339.3182	2
340.1274	4
340.2239	3
340.3570	2
341.1736	8
341.2901	4
341.4944	1
342.0549	2
342.2427	4
342.7826	1
343.0416	5
343.2473	7
343.4524	1
343.5829	2
343.6921	1
344.2634	4
344.3766	2
344.8028	1
345.1285	3
345.2803	2
345.8831	0
345.9957	1
346.1656	3
346.2815	2
346.8044	2
347.1555	4
347.6851	1
348.1389	3
348.6939	2
349.2277	9
349.6162	1
349.9914	1
350.1947	7
350.5086	0
351.0352	3
351.2145	9
351.5052	2
351.9572	1
352.0665	0
352.2645	3
352.4085	1
352.9252	2
353.0592	2
353.2139	4
353.3180	0
354.0068	0
354.2434	2
355.0210	2
355.2414	5
355.3300	2
355.6009	1
355.7195	0
355.9811	1
356.0970	2
356.2914	1
356.7795	1
357.0379	2
357.2470	7
358.1321	3
358.2827	3
358.3706	1
358.8502	1
359.0007	1
359.1586	1
359.3551	2
359.7562	1
360.0979	2
360.2771	1
361.0933	5
361.2892	2
361.3885	1
362.1968	5
363.0092	1
363.2859	8
363.6724	1
363.9711	1
364.0684	1
364.2650	8
365.1703	3
365.3370	2
365.4777	2
365.6683	0
365.7970	1
366.0297	2
366.1884	3
366.3098	2
367.1760	2
367.8949	1
368.0409	3
368.2616	5
369.1376	1
369.2629	3
370.1837	2
370.3170	2
370.6191	0
371.0672	1
371.2626	3
372.0829	1
372.2196	1
372.5704	2
373.2288	5
373.8471	2
374.1113	3
374.3294	1
374.5256	1
374.8798	1
375.1654	5
375.2942	2
375.8560	2
376.1983	6
376.4005	3
377.1619	3
377.2700	3
377.3894	2
377.6397	0
378.0728	2
378.1977	2
378.4046	1
379.0460	1
379.2643	3
379.8337	1
380.1061	3
380.2530	4
380.5040	1
380.9539	1
381.1656	5
381.3345	5
381.5308	1
382.2673	2
382.8323	1
383.2664	6
384.2141	5
384.4933	2
384.6937	0
384.8540	0
385.0250	1
385.2220	5
385.3349	4
385.7264	1
386.1813	2
386.6369	1
387.3558	2
387.7467	1
387.8710	2
388.1911	1
389.2202	1
389.4514	1
390.2956	3
391.1137	2
391.3022	5
391.7641	1
392.1839	3
392.3103	4
392.5469	1
393.1359	4
393.2061	2
393.3813	1
394.0399	0
394.2552	3
394.5287	1
394.6370	1
394.9794	1
395.2415	6
395.3974	3
396.2273	8
396.4407	2
397.1851	10
397.4085	3
397.5202	3
397.6674	1
398.2179	4
398.3865	3
398.9190	1
399.2314	3
399.5685	2
400.6090	1
401.2856	8
401.5407	1
401.7218	0
402.2495	1
402.3664	3
402.8921	2
403.2489	6
403.4520	1
403.8401	1
403.9932	1
404.1061	1
404.3105	3
404.4001	2
404.5598	0
404.9306	1
405.3008	2
405.4698	2
406.0492	2
406.2524	5
406.8806	1
407.3177	1
407.4928	1
408.0950	1
408.3664	1
408.6659	1
408.9132	1
409.1766	3
409.4038	3
409.5382	2
409.8197	1
410.2616	21
410.7249	1
411.2939	37
411.7064	1
411.8462	0
412.0949	2
412.2079	2
412.3838	2
412.7362	2
413.0064	1
413.1221	1
413.2959	4
413.9500	1
414.1112	3
414.2262	1
414.3633	2
414.6262	0
414.9526	1
415.2047	9
415.4034	2
416.1848	2
416.3223	6
416.4992	1
416.6594	1
416.8517	1
417.2269	1
417.4853	1
417.6007	2
417.6922	1
417.9306	3
418.8040	1
419.4497	2
420.0387	1
420.1215	0
420.2444	1
420.7325	0
420.9296	1
421.2074	3
421.3269	1
421.6135	1
422.1245	4
422.3582	0
422.7042	0
422.8338	1
422.9561	1
423.2433	2
423.5493	1
423.9441	2
424.1238	3
424.3322	2
424.4491	1
424.5333	0
424.6850	1
424.7925	1
425.0417	3
425.2702	6
425.5468	2
425.6918	0
426.3099	2
426.4683	1
426.7610	1
426.9040	1
427.2601	4
427.3978	2
427.4914	1
427.7393	1
427.8155	1
428.2946	7
428.4497	4
428.8360	2
429.0144	1
429.2958	5
429.4115	2
429.7269	1
429.9950	1
430.2216	6
430.3386	1
430.5525	1
431.2283	1
431.3513	2
432.1889	2
433.2112	1
433.4954	2
433.7916	0
434.4816	2
434.5766	1
434.7170	2
434.9497	1
435.0661	2
435.1657	1
435.2573	1
435.6051	1
435.7174	0
435.9187	3
436.0692	2
436.3086	4
436.4624	3
436.6042	1
436.7708	1
436.9908	2
437.3105	3
437.5754	2
437.6630	1
437.7894	1
438.2784	15
438.6021	2
438.8329	2
439.2644	59
439.6891	1
439.8718	1
440.0437	1
440.2270	3
440.4424	2
440.6458	2
440.9683	2
441.2848	4
441.4333	2
441.9505	2
442.3540	2
443.0392	2
443.3316	6
443.9921	1
444.1454	6
444.2826	6
444.4291	8
444.8541	1
444.9532	1
445.2865	2
445.4330	3
446.1780	2
446.7376	1
447.4592	2
448.0463	2
449.6209	1
449.9965	1
450.2982	3
450.7854	1
450.9505	1
451.2574	2
451.5067	1
451.6664	1
451.8315	2
452.0254	2
452.2514	2
452.8945	1
453.2682	1
453.7623	1
453.8773	1
454.2149	2
454.6769	1
454.9444	2
455.0614	1
455.2780	3
455.4405	2
455.7227	0
456.1332	2
456.3820	1
456.5619	1
456.7057	0
457.2794	7
457.3798	3
457.6680	3
457.8526	2
458.3308	114
458.6445	4
458.9481	2
459.1508	2
459.3976	2
459.4671	1
459.7267	2
459.8772	1
461.2418	2
461.6799	1
462.9344	2
463.2287	3
463.3659	1
464.0256	1
464.1480	1
464.2872	4
464.3481	2
464.5321	1
464.6934	1
464.9992	1
465.1364	6
465.3224	3
466.2291	1
466.4633	0
467.1386	1
467.3728	3
468.1967	6
468.4999	2
469.0902	1
469.2368	2
469.3961	2
470.2911	7
470.4009	3
470.5415	1
470.9177	2
471.0984	2
471.3890	13
471.8435	0
472.3510	1
472.8324	1
473.8708	1
474.0262	2
474.5337	1
474.6636	1
474.8625	1
475.7283	1
476.1549	2
477.0583	2
477.3281	3
477.5268	2
478.0307	2
478.2769	4
478.7126	1
478.8297	1
479.2024	3
479.3390	1
479.4213	1
479.5993	1
479.8355	2
479.9754	1
480.3020	11
480.3843	5
480.5202	2
480.8669	1
481.0851	2
481.2811	1
481.5301	2
481.6774	2
481.9304	1
482.1580	1
482.3179	2
483.0201	2
483.1921	1
483.2979	1
483.4418	2
484.4071	1
484.7834	1
490.1353	2
490.2250	2
490.6852	1
491.2464	2
491.3864	1
491.7380	2
492.1264	2
492.2684	1
492.3729	2
492.4687	3
492.8512	1
493.0434	1
493.2999	4
493.5377	3
493.9390	1
494.2444	6
494.4414	6
494.6068	3
494.9257	1
495.0965	1
495.3598	2
496.7205	1
497.0280	1
497.2364	1
497.8025	1
498.1483	1
499.7839	2
501.4673	0
502.8284	0
503.4850	1
504.2748	1
504.4919	1
505.4661	3
506.1183	1
506.3361	4
506.7404	2
507.1013	1
507.3151	10
507.5129	4
507.6225	2
507.8323	1
508.2654	3
508.4960	1
508.7974	2
510.0632	0
510.3419	2
510.4883	0
510.6407	1
511.7175	1
512.6727	1
513.7905	2
514.0137	1
514.1802	0
514.6769	2
514.7845	0
515.7466	0
516.1879	2
516.3103	2
516.4534	2
517.2965	3
517.8849	2
518.2433	1
519.2765	5
519.4878	5
519.9639	1
520.1967	13
520.4140	12
520.7785	1
521.3704	14
521.5811	5
522.1984	1
522.2839	1
522.6151	3
522.8284	1
522.9869	1
523.2966	5
523.4330	1
523.5515	1
523.7187	1
523.8351	2
523.9889	3
524.0906	1
524.2036	1
524.3401	2
524.4879	1
524.6371	2
524.8498	2
525.1254	3
525.3876	4
525.5909	2
525.8124	2
526.0225	3
526.2164	3
526.3884	3
526.6225	5
526.8453	3
527.0955	3
527.2487	5
527.4862	6
527.8254	5
527.9686	4
528.2770	7
528.5192	3
528.7895	6
529.2906	8
529.5054	4
529.7476	8
530.1331	6
530.2983	2
530.5358	6
530.7560	4
531.0223	8
531.1963	5
531.4666	10
531.5958	5
531.9036	9
532.3654	23
532.5748	7
532.7421	6
533.1985	10
533.4876	12
534.3135	51
534.5852	14
534.7746	14
535.3957	167
535.8348	9
536.3080	6
536.5871	8
536.8635	5
537.1119	6
537.2424	4
537.4398	9
537.5389	3
537.7170	3
538.0470	5
538.3683	5
538.8289	6
539.2070	6
539.4781	7
539.7734	6
539.9970	7
540.0994	3
540.3184	4
540.4756	2
540.7682	7
541.0333	6
541.2650	11
541.3627	5
541.4919	5
541.7691	7
542.2244	13
542.5297	9
543.4263	13
543.8809	9
544.7186	18
545.2931	23
545.5134	14
545.9491	20
550.3937	999
550.9285	382
551.6005	190
552.1882	95
552.9945	57
553.4344	39
553.8343	27
554.6995	15
555.0065	18
555.2806	8
555.4966	8
555.7166	9
