Mass spectrum: Phytoene; FAB-EBEB; MS2; m/z: 544.50; [M]+*
Name: Phytoene
Formula: C40H64
Exact mass: 544.50080
SMILES: C(C)(C)=CCCC(C)=CCCC(C)=CCCC(=CC=CC=C(C)CCC=C(C)CCC=C(C)CCC=C(C)C)C
InChI: InChI=1S/C40H64/c1-33(2)19-13-23-37(7)27-17-31-39(9)29-15-25-35(5)21-11-12-22-36(6)26-16-30-40(10)32-18-28-38(8)24-14-20-34(3)4/h11-12,19-22,27-30H,13-18,23-26,31-32H2,1-10H3/b12-11+,35-21+,36-22+,37-27+,38-28+,39-29+,40-30+
Instrument: JMS-HX/HX 110A, JEOL
Instrument type: FAB-EBEB
Ms type: MS2
Ion mode: POSITIVE
Collision energy: 3 kV
Ionization: FAB
Base peak: 69.0245
Precursor m/z: 544.50
Precursor type: [M]+*
m/z	relative intensity
0.0552	12
1.1112	2
1.1649	2
4.0429	2
8.2180	2
10.9383	12
12.5410	2
17.6833	7
24.5899	5
26.5742	2
27.0085	15
27.3336	2
27.5517	5
28.0080	5
29.0022	15
29.1348	7
29.8711	2
30.9962	2
36.3317	10
38.0172	5
39.0206	37
39.9668	2
41.0045	95
42.0016	15
43.0354	20
43.9081	2
49.9832	2
50.9603	5
51.9872	17
53.0232	45
54.0145	7
55.0120	97
56.0212	2
56.3803	7
57.0298	27
58.2867	2
59.2876	2
60.5077	2
60.8741	2
64.0442	5
64.9940	15
65.9379	15
66.1019	7
67.0047	50
67.5130	2
67.9914	32
68.2493	5
68.5574	2
69.0245	999
69.9991	25
70.9902	7
72.0545	2
72.2184	2
73.0427	5
75.0237	2
76.0395	2
76.9813	37
77.9920	25
79.0130	95
80.0431	32
80.5037	5
81.0094	419
82.0551	5
83.0203	35
83.3899	2
84.1065	5
84.5683	2
84.9806	5
88.0309	7
88.9966	12
89.3034	2
89.9974	7
90.4227	5
90.6304	5
90.9954	85
92.0185	47
93.0285	177
94.0378	40
94.5151	5
95.0121	130
95.4929	2
96.0357	17
97.0551	17
97.7641	12
98.1344	15
101.0288	5
102.4922	2
103.0605	15
103.9569	22
105.0306	125
106.0279	42
106.4588	12
107.0399	130
107.9609	12
108.1097	5
108.3683	2
109.0729	80
109.4915	2
112.6627	7
112.9626	5
113.9582	2
114.9882	42
115.3644	5
115.9880	17
116.1916	5
116.9774	37
117.3931	2
118.0305	7
119.0293	232
119.9937	35
121.0298	227
122.0648	25
123.0197	37
124.0400	7
124.8154	2
125.2716	2
126.9249	5
127.4293	7
127.9904	15
128.4175	7
129.0210	37
129.9532	22
130.2952	2
131.0307	50
131.9759	15
132.9978	132
133.4733	7
134.0147	254
134.9888	130
135.4023	15
135.9204	20
136.4918	2
137.0106	212
137.5799	5
137.9565	10
139.0721	5
140.2967	7
140.9498	22
142.0238	30
142.9882	40
144.0370	30
145.0156	80
145.9649	10
147.0263	72
147.9417	22
149.0215	35
150.6417	2
151.0189	12
151.4981	2
152.9095	27
153.0929	17
154.0560	15
154.9979	22
156.1174	12
157.0359	37
157.5218	10
158.1116	20
158.4192	7
159.0940	105
160.1146	37
161.0986	60
162.0527	15
163.0770	25
164.0339	12
164.9498	15
166.0138	5
167.0683	7
167.8940	7
169.0918	20
169.4649	12
170.0455	5
171.0835	37
172.0538	37
173.0722	67
174.0927	25
175.0902	17
176.0799	12
177.0814	20
178.0542	17
178.9701	15
180.1290	12
180.9872	15
181.7518	12
182.1813	27
183.0616	15
184.0858	20
185.0768	37
186.1176	12
186.5228	2
187.0661	37
188.1137	30
189.0337	40
189.9654	17
190.9654	10
191.7923	2
192.0520	15
194.1140	7
195.0299	20
195.9237	5
196.1698	7
196.9409	10
197.2693	7
198.0805	17
199.0082	20
200.0328	35
201.1344	47
201.6422	7
202.0493	15
203.0626	17
204.0594	7
205.0011	30
205.1816	12
206.1139	7
207.0069	7
209.1355	7
210.0552	7
210.9426	10
212.0798	10
213.0664	17
213.4073	5
214.1947	15
215.1336	25
216.2343	17
219.0061	7
220.5992	2
221.1844	12
222.1575	2
223.0036	2
224.3070	10
225.1251	10
225.3329	7
226.2193	5
227.1258	22
227.7294	7
227.9425	5
228.2859	15
228.6836	7
229.2403	12
230.0233	2
231.1231	2
231.9410	10
232.1774	15
233.0630	10
234.0277	20
234.2529	17
235.0186	7
236.2036	10
237.3014	7
238.1025	10
238.9727	10
239.1738	7
239.9351	5
240.3144	10
241.2183	17
242.2749	5
243.1319	5
244.4107	12
244.9072	12
245.2281	5
247.0477	10
247.2363	10
247.9147	5
248.1639	5
250.0659	12
251.1803	12
251.8075	5
252.1579	25
253.1244	12
254.1603	5
254.8329	2
255.2356	32
256.2188	15
257.3019	2
258.1759	10
259.2886	7
259.6644	2
259.9795	2
261.2272	5
261.8562	2
262.2337	5
262.9223	10
265.3318	5
267.0883	17
267.3852	10
268.0414	20
268.3929	10
269.2082	20
271.4454	15
272.8286	5
274.3266	7
276.1945	7
276.7579	7
277.2461	10
278.1806	5
280.3112	12
281.1391	7
281.9468	7
282.3645	17
283.0550	5
284.0691	7
285.1809	10
286.2422	7
288.0190	10
289.1290	2
289.5890	10
289.9808	10
290.8749	5
293.1880	5
294.2730	10
295.1534	12
296.2781	7
298.1155	5
298.3554	5
302.2375	10
302.6275	5
304.9098	5
306.2682	10
307.1945	12
309.3200	10
310.9391	12
313.4307	12
316.1247	2
316.8119	10
318.0070	10
318.3311	12
318.7835	17
319.1426	12
320.3339	17
320.8347	2
321.4100	12
323.3599	25
324.3460	20
325.5033	10
325.7386	2
326.2516	10
328.3731	7
329.1203	5
329.4648	2
331.2223	12
332.1801	12
332.7072	5
336.2553	17
337.2051	12
337.5573	7
337.7794	5
338.3158	25
339.3244	404
340.0583	15
340.6548	5
341.1051	10
341.7866	10
342.0483	7
342.3335	5
346.8029	2
348.1992	5
349.5123	10
350.2809	12
352.3516	20
355.3481	12
356.0681	10
361.3101	5
364.1646	15
365.0744	7
367.4049	2
373.3380	7
374.1380	12
375.3675	5
376.1560	15
377.2406	5
378.1509	7
379.2051	7
379.9983	10
380.6303	2
382.4063	12
383.0019	7
385.7115	2
386.4511	5
388.3472	20
391.2420	12
392.2169	10
392.4372	12
393.1039	5
394.3947	2
398.5151	2
401.4181	12
404.1591	20
404.4011	12
405.1272	10
405.3809	2
406.4108	15
407.0915	7
407.2881	7
410.4197	10
413.4083	10
414.4943	10
418.3392	15
420.3128	12
422.1590	5
424.3462	2
425.0831	12
425.6674	7
429.6528	7
431.0673	12
432.4775	12
433.8453	7
434.7342	5
436.9899	10
437.6395	10
440.5969	12
443.3845	10
445.0918	10
446.0256	10
446.4639	12
447.4332	7
447.8098	10
448.5562	10
450.0006	15
450.4102	37
454.5419	10
456.3762	12
456.5745	12
458.8659	5
459.6078	12
460.2468	12
460.5333	10
462.3214	10
464.1347	12
464.8577	7
467.3519	2
470.5110	10
471.0432	5
471.2917	10
471.7093	5
473.8355	10
474.6252	12
474.9885	5
475.4603	15
476.2245	5
479.9650	10
484.2637	10
486.3782	17
486.5870	10
488.5504	7
488.8724	10
496.7181	10
497.1522	2
500.0602	15
500.3060	15
500.5798	25
502.4020	5
502.6677	10
502.9481	12
503.5969	10
504.3765	2
505.1693	5
507.1969	12
510.5905	7
513.1608	10
514.6385	15
515.2554	10
515.7182	15
517.2211	7
517.9601	10
519.9686	12
520.5770	5
520.7886	2
521.6541	5
523.0369	10
524.3156	5
524.5507	12
525.2342	20
525.9677	17
526.5644	164
527.6375	30
528.2695	12
528.6121	30
528.9649	7
529.5280	30
530.0146	2
532.0229	10
532.3787	2
532.6390	10
533.9712	12
534.1667	10
534.5521	2
535.1594	15
535.6785	10
536.2358	15
536.6829	5
537.0359	5
537.5595	12
537.8669	12
538.2654	10
538.9097	20
539.2524	12
540.4276	32
540.8042	27
544.5237	999
545.9229	224
546.4353	135
547.0872	70
548.2839	30
548.9256	17
549.7612	15
550.1268	7
550.3985	12
550.7260	2
551.1387	5
551.4559	10
551.6541	2
552.6499	5
553.1816	2
