Mass spectrum: Semi-alpha-carotenone; FAB-EBEB; MS2; m/z: 568.43; [M]+*
Name: Semi-alpha-carotenone
Formula: C40H56O2
Exact mass: 568.42803
SMILES: C(C)(C)(C(C=CC(C)=CC=CC(C)=CC=CC=C(C=CC=C(C)C=CC(C1(C)C)C(C)=CCC1)C)=O)CCCC(C)=O
InChI: InChI=1S/C40H56O2/c1-31(19-13-21-33(3)25-27-37-35(5)23-15-29-39(37,7)8)17-11-12-18-32(2)20-14-22-34(4)26-28-38(42)40(9,10)30-16-24-36(6)41/h11-14,17-23,25-28,37H,15-16,24,29-30H2,1-10H3/b12-11+,19-13+,20-14+,27-25+,28-26+,31-17+,32-18+,33-21+,34-22+/t37-/m0/s1
Instrument: JMS-HX/HX 110A, JEOL
Instrument type: FAB-EBEB
Ms type: MS2
Ion mode: POSITIVE
Collision energy: 3 kV
Ionization: FAB
Base peak: 68.9396
Precursor m/z: 568.43
Precursor type: [M]+*
m/z	relative intensity
0.0144	0
0.1703	0
0.2883	0
0.3418	0
0.3865	0
0.5009	0
0.7535	0
1.2185	0
2.0093	0
2.1912	0
3.1494	0
3.6566	0
4.2839	0
4.8059	0
5.0531	0
5.5350	0
6.5953	0
7.7987	0
8.1718	0
9.0061	3
10.2684	0
10.6555	0
11.4450	0
12.9563	2
13.6446	0
14.4741	0
14.9627	5
15.2604	0
15.9699	0
16.2065	0
16.3614	0
17.1390	0
17.8106	0
18.8911	0
20.4878	0
21.7282	0
22.1498	0
22.9137	6
23.9393	2
24.3535	0
24.6407	0
24.9049	1
25.9458	17
26.9376	66
27.9473	18
28.3829	0
28.9505	65
29.9299	3
31.9060	0
33.7210	0
34.4571	0
35.2802	0
36.9128	4
37.0502	0
37.9092	20
38.9235	146
39.7110	0
39.9275	21
40.9414	311
41.9415	9
42.5135	0
42.9208	674
43.3264	0
43.9273	6
44.9405	9
45.3924	0
48.9125	2
49.9007	32
50.9088	48
51.9180	33
52.9340	155
53.9296	10
54.9400	325
55.9454	15
56.9435	52
57.9470	8
58.9264	19
60.2544	0
60.9088	3
60.9974	1
61.9031	17
62.9133	47
63.2372	2
63.5653	2
63.9151	14
64.3673	4
64.4565	1
64.9214	129
65.1372	1
65.5967	1
65.9313	38
66.3855	2
66.9305	151
67.9442	18
68.3197	0
68.9396	999
69.2495	2
69.9346	10
70.4001	3
70.5307	1
70.9148	188
71.9173	5
72.9410	2
73.2765	0
73.8689	9
74.7904	5
74.9195	21
75.1430	4
75.4258	1
75.5783	0
75.6792	3
75.7529	2
75.8997	19
76.1141	1
76.4000	2
76.5198	5
76.9016	326
77.1842	1
77.2734	1
77.5394	5
77.9118	64
78.1497	3
78.2812	1
78.4988	0
78.9163	347
79.5302	3
79.7140	2
79.9213	55
80.9281	446
81.2588	3
81.5868	2
81.9093	9
82.3651	3
82.9210	75
83.2564	0
83.9134	5
84.9389	69
85.8792	9
86.9008	19
87.9352	7
88.3459	2
88.4546	2
88.8838	50
89.0841	4
89.2207	6
89.3417	4
89.4772	3
89.6549	3
89.8852	14
90.1843	2
90.4933	6
90.9088	631
91.1917	4
91.2673	2
91.9143	84
92.1651	1
92.3094	3
92.4470	4
92.9245	482
93.1382	4
93.3605	8
93.5435	4
93.9168	35
94.2483	2
94.4917	1
94.9424	304
95.2813	3
95.6077	2
95.9239	8
96.9520	21
97.1785	4
97.3022	0
97.7672	1
97.9290	5
98.7912	3
98.9116	10
99.2207	2
99.9091	8
100.4609	4
100.6156	4
100.7882	6
100.9369	10
101.2052	3
101.4311	3
101.5552	1
101.9012	47
102.4186	4
102.9155	142
103.2641	3
103.4463	4
103.5938	3
103.9305	78
104.1377	2
104.3828	3
104.9287	815
105.2911	2
105.5063	5
105.9350	69
106.2401	3
106.4587	3
106.9396	332
107.3197	3
107.9442	28
108.3936	2
108.9499	908
109.3257	2
109.5668	4
109.9517	9
110.7542	2
110.9689	25
111.3278	0
111.8204	6
111.9332	8
112.1433	1
112.3171	1
112.4370	1
112.5619	2
112.8751	28
113.1025	2
113.2056	3
113.4808	5
113.5902	3
113.8751	14
114.0928	5
114.2450	1
114.4698	8
114.8974	403
115.1614	2
115.2717	5
115.4961	3
115.8941	140
116.1604	4
116.3504	5
116.5152	3
116.9012	355
117.1161	8
117.2709	2
117.6067	4
117.9009	80
118.1142	2
118.4377	2
118.9084	737
119.3357	2
119.9110	83
120.2373	3
120.5847	2
120.9087	343
121.2233	6
121.4510	2
121.5731	2
121.9307	67
122.3584	4
122.4794	6
122.9260	527
123.3461	5
123.6286	3
123.6975	2
123.9234	9
124.1206	1
124.3510	1
124.5304	5
124.7029	4
124.8869	23
125.1143	6
125.3285	4
125.5900	2
125.8772	16
126.0384	6
126.1645	5
126.8880	230
127.1712	11
127.3442	2
127.8699	428
128.2073	6
128.8691	442
129.2031	2
129.4768	3
129.8818	194
130.1236	5
130.3416	4
130.8873	427
131.2460	2
131.3915	1
131.8954	146
132.1887	9
132.3589	2
132.4453	2
132.8949	328
133.1150	5
133.2228	6
133.5172	5
133.6773	2
133.9053	34
134.2187	3
134.4165	0
134.9001	101
135.1305	4
135.4785	3
135.5913	2
135.8694	29
136.1845	3
136.3071	2
136.9119	34
137.2093	1
137.6659	8
137.7971	4
137.8946	4
138.3092	3
138.8685	63
139.3207	2
139.4607	7
139.8728	24
140.1535	4
140.3926	10
140.8742	360
141.1461	7
141.2622	5
141.4337	6
141.8845	334
142.2011	4
142.3701	5
142.5177	4
142.8848	600
143.1552	2
143.3016	7
143.4068	3
143.8821	233
144.1215	3
144.3661	4
144.5657	4
144.8968	693
145.2562	5
145.4704	4
145.5706	3
145.8994	69
146.1255	3
146.4512	11
146.8997	207
147.1490	2
147.2756	2
147.4318	3
147.6779	2
147.8997	22
148.0862	2
148.4138	3
148.9269	50
149.2496	0
149.8104	12
150.0025	1
150.3604	5
150.5367	3
150.8855	23
151.0620	6
151.2549	4
151.8721	128
152.2293	9
152.5068	9
152.8945	171
153.1814	4
153.4004	3
153.4968	3
153.8756	95
154.3172	4
154.9084	367
155.1984	3
155.9236	268
156.3502	6
156.9238	520
157.2660	7
157.4673	7
157.5758	4
157.9308	135
158.1309	8
158.3846	10
158.9181	677
159.2012	3
159.4267	13
159.6097	6
159.9341	32
160.3296	4
160.4378	3
160.6177	3
160.9344	80
161.6271	2
161.7201	1
161.9547	12
162.2956	3
162.6699	2
162.9273	31
163.0909	5
163.2412	7
163.4721	7
163.7362	9
163.9399	19
164.0876	13
164.2707	13
164.5144	15
164.9346	273
165.2097	4
165.4769	10
165.9281	113
166.2915	4
166.4355	3
166.9424	256
167.2473	4
167.9464	96
168.1699	4
168.2750	6
168.4593	6
168.9558	344
169.3213	3
169.4298	3
169.9480	117
170.2704	1
170.5276	8
170.9635	250
171.2862	7
171.4716	1
171.9538	58
172.1907	4
172.3521	4
172.5690	3
172.9622	150
173.2165	2
173.3908	6
173.5578	8
173.9986	14
174.1790	2
174.3320	3
174.4890	3
174.9656	65
175.4604	3
175.7192	7
175.9499	38
176.2670	4
176.3928	2
176.5595	2
176.9858	51
177.2529	9
177.5475	7
177.9306	136
178.2998	2
178.9062	222
179.5156	6
179.9354	119
180.4143	6
180.5271	3
180.9411	299
181.3150	5
181.5472	3
181.9340	133
182.3350	9
182.4525	3
182.6104	6
182.9491	290
183.3147	3
183.4511	1
183.6151	5
183.9607	79
184.2411	3
184.5202	3
184.9488	177
185.2852	1
185.4999	5
185.9704	41
186.2741	6
186.4956	2
186.9583	68
187.1739	5
187.2642	3
187.4111	2
187.5627	3
187.9172	16
188.1511	5
188.3965	5
188.9271	79
189.2212	7
189.3372	3
189.5052	5
189.8959	45
190.0281	16
190.2880	6
190.3730	2
190.6221	11
190.9252	105
191.1143	8
191.2109	4
191.2953	1
191.4202	3
191.9234	92
192.4762	39
192.9303	174
193.2636	3
193.5936	6
193.9412	94
194.1921	9
194.9336	277
195.3316	3
195.5225	6
195.9429	98
196.1772	3
196.5429	3
196.9547	275
197.3809	1
197.9454	58
198.3562	6
198.5318	4
198.9441	102
199.2378	4
199.4942	5
199.6678	6
199.9596	22
200.1367	7
200.2473	3
200.5683	4
200.9613	56
201.2350	4
201.8821	54
202.0390	16
202.1674	4
202.2788	3
202.4025	2
202.9270	82
203.3457	5
203.5156	2
203.9269	54
204.2029	4
204.4824	2
204.5879	4
204.9177	97
205.1933	5
205.5348	7
205.6968	4
205.9520	85
206.4066	9
206.9452	165
207.2114	4
207.5172	4
207.9463	60
208.2481	2
208.4451	4
208.9500	227
209.2963	4
209.3822	4
209.5485	4
209.9426	57
210.2590	8
210.4718	3
210.9664	145
211.4972	1
211.5941	1
211.9647	28
212.5114	10
212.9682	58
213.2926	3
213.6225	3
213.7188	6
213.9825	17
214.1888	3
214.2796	2
214.4457	7
214.5748	6
214.6876	5
214.9425	60
215.3423	9
215.5173	1
215.9453	39
216.4944	2
216.9397	58
217.2886	4
217.3988	4
217.6738	7
217.9523	36
218.2528	8
218.5492	3
218.9476	73
219.9810	75
220.2488	5
220.9579	301
221.3047	3
221.5459	2
222.0100	55
222.3308	5
222.5612	1
223.0028	126
223.2367	4
223.3492	1
223.5502	0
224.0050	36
224.1882	4
224.2719	2
224.4284	2
224.9987	57
225.3083	4
225.4119	4
225.5286	3
225.7174	8
225.9735	26
226.3313	5
226.5593	4
226.9866	23
227.5327	14
227.6138	9
227.9677	22
228.2316	3
228.5127	2
228.6424	4
228.9845	44
229.5776	4
229.6928	6
229.9253	20
230.0680	6
230.4884	1
230.7292	8
230.9989	64
231.2857	8
231.9686	40
232.3255	5
232.5761	1
232.9977	91
233.5189	1
234.0045	41
234.3590	4
234.5486	5
234.7403	14
235.0131	102
235.2584	3
235.4062	3
235.5752	5
235.7058	5
236.0138	40
236.3232	4
236.4648	3
236.6869	8
237.0039	60
237.4433	3
238.0156	17
238.7009	9
238.9968	41
239.7277	3
240.0161	19
240.1992	5
240.5793	8
240.7701	7
241.0159	39
241.3664	4
241.5565	2
241.9698	26
242.4183	3
242.6561	3
242.9937	43
243.5747	4
243.9476	22
244.0669	10
244.2089	5
244.3123	3
244.5364	4
244.9729	68
245.2308	4
245.4494	4
245.7101	4
246.0033	13
246.2358	8
246.3227	4
246.9948	68
247.4012	4
247.6711	3
247.9831	27
248.1432	9
248.4380	3
248.5941	6
249.0063	63
249.4241	7
249.6838	4
250.0409	19
250.5300	3
251.0108	36
251.2423	5
251.9500	16
252.1187	8
252.3212	6
252.7201	9
253.0409	32
253.1743	16
253.3852	5
253.4848	3
253.6909	3
254.0000	16
254.4722	6
254.6927	4
255.0038	31
255.3343	3
255.6032	5
255.8300	11
256.0188	18
256.2069	2
256.5306	3
256.6385	2
256.9878	43
257.5544	1
258.0207	20
258.3805	3
258.5868	3
258.9916	35
259.4222	5
259.9753	16
260.1089	15
260.3347	3
260.5085	5
261.0348	66
261.3402	3
261.9380	26
262.0842	22
262.3073	5
262.4548	4
262.6599	6
263.0327	58
263.2725	5
263.6093	4
264.0203	21
265.0110	32
265.3279	2
265.7426	8
265.9950	18
267.0424	34
267.3741	3
267.6599	4
267.9445	7
268.0673	3
268.3414	3
268.7481	2
269.0355	29
269.3326	4
269.6214	4
269.7366	3
269.9824	9
270.2324	3
270.5136	5
271.0129	21
271.5866	4
271.8187	3
272.0160	4
272.2180	3
272.6280	2
273.0131	41
273.4308	3
274.0442	14
274.5023	4
275.0430	41
275.7921	7
276.0157	9
276.1247	17
276.5260	3
276.6545	5
277.0406	30
277.5456	4
277.6693	2
277.8735	3
278.0708	18
278.2250	1
278.5328	3
279.0546	21
279.1873	15
279.3500	3
279.5717	3
279.7245	3
279.9831	15
280.1840	4
280.9869	22
281.1308	17
281.5612	3
282.0556	15
282.2086	4
282.4124	3
283.0286	14
283.2436	4
283.4794	3
283.6491	3
283.8773	3
284.0276	11
284.1890	8
284.6413	3
284.9718	27
285.1556	9
285.4883	0
285.7743	2
286.0179	10
286.4043	3
287.0636	26
287.4591	0
288.0796	8
288.7163	4
289.0391	37
289.2513	4
289.5769	3
290.0925	19
291.0132	26
291.7162	2
291.9104	10
292.0294	6
292.3413	3
292.5536	2
292.7173	3
292.9979	14
293.1824	10
293.2917	3
293.6455	4
293.7423	3
294.0599	10
294.5015	1
294.6902	3
294.8602	5
295.0420	7
295.1841	5
295.8892	3
296.1038	10
296.9484	20
297.1184	13
297.2906	2
298.0315	13
298.2204	4
298.3849	4
298.6666	3
299.0341	32
299.3485	2
299.6010	4
299.7418	5
299.8736	3
300.0612	11
300.1867	2
300.5564	4
300.7838	4
300.9616	19
301.1541	13
301.2455	5
301.5420	0
301.9445	12
302.1141	8
302.2320	3
302.5788	2
302.7253	1
303.0498	17
303.9906	7
304.1099	6
304.2286	1
304.5923	1
304.9944	5
305.1857	2
305.8476	8
305.9719	8
306.0878	5
306.2191	5
306.5633	2
306.9956	9
307.1849	10
307.4545	2
307.8003	4
307.9008	3
308.1320	8
308.7818	6
308.9977	19
309.1591	3
310.0053	7
310.1835	3
310.3708	0
311.0040	17
311.1592	7
311.8037	1
311.9519	10
312.0638	10
312.1980	6
312.6700	5
312.9217	7
313.0238	4
313.1804	2
313.3035	3
313.4790	3
313.8986	7
314.1231	3
314.4959	3
314.8268	6
315.0303	12
315.2157	2
315.6663	3
315.8426	2
315.9860	5
316.1196	3
316.6227	3
316.9397	12
317.0894	11
317.7669	3
318.1246	8
318.2485	4
318.4487	2
318.7266	4
319.0521	30
319.2999	3
319.3937	2
319.6794	4
319.7998	3
319.9811	4
320.1548	6
320.8985	8
321.1275	18
321.3341	2
321.6520	3
322.0597	9
322.2033	2
322.4036	3
322.9374	10
323.1406	8
323.5456	0
324.0171	7
324.6198	2
325.0115	13
325.1538	9
326.0642	12
326.2416	4
326.6089	3
326.9153	12
327.0702	9
327.2644	3
327.5098	4
327.7524	3
327.9067	2
328.0771	8
329.0336	15
329.2840	2
329.6789	1
330.1299	5
330.5101	2
330.8567	3
331.1057	11
331.7130	3
331.9436	9
332.0844	11
332.2533	9
332.4797	3
333.0845	16
333.2345	10
333.6992	4
333.9543	3
334.0840	3
334.1878	1
334.5236	2
334.8166	3
335.0332	6
335.1685	3
335.2716	1
335.3971	1
336.7932	4
336.9553	2
337.1180	7
337.4167	0
337.8453	2
337.9737	6
338.1652	3
338.9516	6
339.1704	7
339.3227	3
339.9675	1
340.1647	3
340.6874	3
340.9506	4
341.0875	7
341.2812	3
341.4749	1
342.0974	5
342.2126	4
343.0816	6
343.2599	2
343.4417	2
344.1010	7
344.3383	2
344.4774	0
345.1150	14
345.2688	12
345.9352	4
346.1396	7
346.2878	3
346.4156	3
346.6475	3
346.9003	1
347.1399	9
347.3049	4
348.1550	3
348.2646	4
349.0326	8
349.2258	3
350.0023	3
350.2272	4
350.9069	4
351.1367	11
351.4875	3
352.0294	8
352.2790	7
353.0847	17
353.1677	8
353.2640	5
353.8371	2
354.0804	9
354.1901	4
354.2808	1
354.3912	1
354.5536	4
354.8040	4
355.0094	10
355.1571	8
355.2914	3
356.1108	14
356.3134	3
356.6898	2
356.8030	3
357.1576	14
357.5720	6
357.7767	2
357.8921	2
358.2467	11
358.5877	4
358.8388	5
359.1678	12
359.7142	3
359.8581	2
360.1541	14
360.2615	6
360.6375	3
360.8270	0
361.1069	10
361.2669	8
361.7841	3
362.2101	3
362.5076	2
362.6880	3
363.0445	4
363.1940	8
363.9570	3
365.1406	34
365.2564	14
365.5878	4
366.0224	9
366.2099	5
366.9830	6
367.1768	5
367.9606	3
368.1208	3
368.3139	2
368.8871	3
369.1076	8
369.2123	3
369.3338	4
369.6844	2
370.1368	15
370.3265	4
370.5428	2
370.9033	4
371.1471	11
371.4141	3
371.7943	1
372.0550	8
373.1399	0
374.1638	4
374.4062	3
374.9003	0
375.1871	1
376.0137	1
376.1395	3
376.6576	3
376.8045	3
376.9810	7
377.2031	9
377.3796	3
377.9301	2
378.0580	15
378.1762	10
378.3407	4
378.7950	3
378.9996	11
379.1972	7
379.3146	5
380.1023	7
380.4504	3
380.5432	1
380.8056	2
380.9512	3
381.1115	5
381.8923	2
382.1209	3
382.5867	3
382.8427	4
382.9989	6
383.2177	6
383.4597	3
383.6547	2
383.9579	8
384.2105	12
384.6208	0
385.1133	13
385.4490	3
385.6946	5
385.8896	4
386.1964	7
386.3675	2
386.7257	2
386.8897	3
386.9763	3
387.1812	7
387.3459	2
387.6133	2
387.9076	1
388.0160	3
388.1160	4
388.3898	2
388.7890	3
389.0424	8
389.2311	6
389.3340	2
389.5522	2
389.8317	4
390.0303	2
390.2028	4
390.3500	3
391.1042	20
391.7936	2
392.0380	4
392.2233	6
392.7050	2
392.9199	4
393.0438	7
393.2678	7
394.0166	6
394.2371	3
395.1136	5
395.3453	4
395.6864	3
395.9069	4
396.1218	5
396.3170	2
397.0266	10
397.2126	13
397.6968	4
398.0668	14
398.2592	11
398.8837	8
399.1530	11
399.8550	4
400.0503	13
400.3605	7
401.0605	4
401.4836	3
402.1759	4
402.2993	3
402.5271	3
402.7626	1
403.0369	6
403.2040	2
403.3401	3
403.5038	2
404.2033	4
404.2929	5
404.9834	4
405.2750	4
405.5455	1
406.0471	2
406.2324	6
406.8136	3
407.2426	5
407.3730	1
407.7887	3
408.1642	3
408.5159	3
408.6688	2
409.0761	6
409.1938	6
409.5870	3
409.7991	1
409.9739	3
410.2185	6
410.3700	5
410.8697	3
410.9994	7
411.3081	12
411.5894	3
411.8692	6
412.1843	36
412.4515	4
413.1691	93
413.4709	6
413.5773	1
413.8953	6
414.1956	17
414.4171	4
415.1800	58
415.6842	4
415.9042	4
416.1736	8
416.8358	4
416.9634	4
417.1666	6
417.2498	3
417.5848	1
417.8239	2
418.0108	7
418.1723	2
418.3057	6
418.3882	3
418.6936	3
419.1387	6
419.3906	3
420.2639	4
421.8127	4
422.1487	3
422.7100	3
423.0368	6
423.1573	6
423.3461	3
423.7884	2
424.1294	14
424.2442	12
424.4562	3
424.6697	4
424.8930	3
425.1037	7
425.2157	6
425.4665	4
425.6229	3
426.0125	2
426.2119	6
427.1202	26
427.2710	25
427.4577	6
428.0024	6
428.2244	4
428.6092	3
428.9947	6
429.1187	4
429.3147	8
429.5000	2
429.6142	4
429.8524	5
429.9307	3
430.0420	3
430.2239	6
430.3423	4
430.5030	5
430.6954	3
430.8709	7
431.0824	9
431.2551	11
432.0834	6
432.3196	7
432.5783	3
433.0620	4
433.2982	4
434.0293	1
434.2408	3
434.5327	3
435.2125	1
435.4135	4
436.0884	4
436.3000	9
436.6787	1
437.0334	8
437.3832	3
438.1796	2
438.2819	2
438.4497	0
438.6296	1
439.2560	7
439.4465	9
439.5932	3
439.7399	2
439.8874	2
440.1738	19
440.4024	8
440.6020	3
441.1580	174
441.6822	8
441.8092	3
441.9115	5
442.1366	9
442.3673	3
442.5113	3
442.8105	3
443.1224	10
443.3884	8
443.5930	4
444.1209	32
444.3192	6
444.4646	2
445.1633	51
445.6659	4
445.8804	5
446.1134	12
446.2941	13
446.4811	4
446.6350	5
446.8376	2
447.1665	6
447.7750	1
449.1136	3
449.3120	4
450.0046	2
450.3576	4
451.3300	4
451.9337	3
452.8151	4
453.0227	6
453.2007	7
453.3384	5
453.7813	5
454.1422	11
454.6070	6
454.7009	6
454.8930	4
455.2173	51
455.4814	11
455.9757	5
456.2076	6
456.3536	3
456.5573	7
456.7681	3
457.0324	5
457.3038	2
457.6683	8
457.9778	5
458.2302	7
458.4142	3
458.7138	4
458.8569	7
459.1206	10
459.3991	10
460.0450	5
460.4272	3
460.8460	2
460.9941	3
461.2021	11
461.3566	2
461.5371	3
461.8354	3
461.9362	3
462.2007	12
462.3735	5
462.8383	1
463.0865	4
463.3228	4
463.7290	2
464.8456	2
465.2018	2
465.4755	3
465.9284	3
466.1167	3
466.2762	4
466.7848	2
466.9160	2
467.3908	5
468.1211	14
468.3518	7
468.7794	0
468.9233	3
469.2112	16
469.6346	3
470.0481	1
470.1842	5
470.3557	6
470.4933	2
471.0445	4
471.1976	6
471.2943	3
471.5180	1
472.0021	4
472.2202	5
472.3797	3
472.9225	2
473.1095	3
473.3185	10
474.1838	3
474.4690	4
474.7993	4
475.0528	8
475.2928	9
475.4326	7
475.5469	7
475.7453	4
476.2296	238
476.7859	8
476.9405	5
477.1227	3
477.2173	4
477.4573	6
477.5646	2
478.1273	5
478.5348	3
478.7049	3
479.1053	0
479.9385	3
480.0649	3
480.1885	4
480.3820	4
480.6101	4
481.0614	6
481.2704	2
481.5579	5
481.8764	6
482.2020	19
482.9478	8
483.2741	17
483.8483	5
484.1183	5
484.7862	2
485.1656	2
485.4561	0
485.9908	5
486.2164	7
486.3949	3
487.0692	6
487.2434	4
487.3619	3
487.7957	4
488.0750	19
488.2485	11
488.5864	3
488.6654	2
488.8996	3
489.2135	22
489.5091	5
490.2336	1
490.4086	3
490.6308	3
491.1642	3
491.5410	3
491.9960	1
492.3679	3
492.8738	4
493.2908	3
493.4524	4
494.0099	5
494.2639	6
494.5554	2
494.7268	4
495.0769	10
495.3697	7
495.5688	2
495.8327	3
496.2547	17
496.4079	9
496.5251	6
497.1243	14
497.3353	23
497.7362	10
497.9021	5
498.2480	12
498.3510	6
498.4788	3
498.6334	6
498.8501	5
499.1204	6
499.3272	6
499.5539	8
499.7134	7
499.8348	5
500.2019	41
500.4031	18
500.7010	5
500.8380	6
500.9651	3
501.2637	5
501.4585	7
501.8130	8
502.1102	4
502.5119	6
502.6800	3
502.8459	3
503.0916	4
503.1813	2
503.4764	4
503.6890	4
503.9799	3
504.0872	4
504.4389	2
505.6888	4
506.2036	4
506.5948	4
506.7749	1
507.1330	6
507.3894	6
507.9170	3
508.0787	3
508.1882	5
508.3280	4
509.0238	5
509.2618	3
509.4702	4
509.5867	3
509.7772	6
509.8921	3
510.0240	18
510.2624	18
510.4147	6
510.6926	2
511.1672	25
511.4458	7
511.6187	7
512.2274	94
512.4756	25
512.7451	4
512.8721	2
513.1979	3
513.3066	4
513.6783	3
513.9210	4
514.1305	7
514.2151	4
514.3082	3
514.5079	3
514.8550	3
515.0292	6
515.1266	3
515.2578	0
515.5569	2
515.8137	2
516.2300	4
516.5270	0
517.3356	6
517.8788	3
518.1752	3
518.2761	4
518.6021	3
518.9097	3
520.2865	2
520.7769	2
520.9174	3
521.2236	3
521.5469	4
522.1665	3
523.0007	4
523.1694	3
523.2548	2
523.3579	2
523.7150	4
523.9896	6
524.2473	21
524.4717	15
524.6940	1
525.2347	72
525.8073	4
525.9562	4
526.1948	8
526.3578	9
526.6833	3
526.8951	3
527.2360	3
528.1461	6
528.5047	3
529.0914	0
529.2602	1
530.5459	4
531.2401	4
531.8819	7
532.0994	6
532.3162	3
532.5358	9
532.6566	4
532.8854	4
533.1354	0
533.5181	1
533.8734	3
533.9694	2
534.1085	3
534.2561	3
534.4977	3
534.8600	4
535.1319	3
535.3204	4
535.5571	4
536.1779	2
536.3693	6
536.4937	2
536.6554	6
536.9881	6
537.1180	4
537.3843	4
537.8604	3
538.0031	5
538.1960	6
538.3570	4
539.1326	20
539.3318	26
539.4343	14
539.9818	4
540.1040	3
540.2538	7
540.4170	4
541.2316	3
541.4047	3
541.8159	3
541.9346	9
542.1557	3
542.4807	7
542.6686	5
542.8184	3
543.0643	5
543.2819	2
543.4268	10
543.6805	4
544.0048	4
544.1284	3
544.2747	3
544.4019	7
544.5150	4
544.8633	5
545.2972	2
545.4965	3
545.7375	2
545.9735	7
546.0611	3
546.4131	2
546.6604	7
546.8286	6
546.9869	4
547.1480	5
547.3975	6
547.6434	13
548.0124	12
548.2272	10
548.5623	9
548.7538	13
549.0648	18
549.2726	14
549.6967	14
550.3412	116
550.7484	19
551.0877	17
551.3528	18
551.5344	12
551.8723	13
552.3063	57
552.4810	28
553.3067	187
553.9989	14
554.3372	8
554.5403	11
554.6664	5
554.8448	6
554.9568	9
555.1282	7
555.3982	13
555.7535	13
556.0136	9
556.2188	12
556.4274	13
556.5889	9
556.9329	11
557.1839	10
557.4426	9
557.7895	11
558.0193	7
558.2598	8
558.4388	15
558.5679	7
558.6969	8
558.7977	8
559.2744	24
559.4958	17
559.7101	18
559.9555	17
560.1776	14
560.2848	12
560.4879	18
560.7029	18
560.8031	10
561.1352	23
562.1161	36
562.7346	38
563.6210	58
568.2789	999
568.9187	999
569.8287	495
570.5539	292
571.2947	141
572.4750	68
573.2236	42
574.0498	31
574.4767	23
