Mass spectrum: gamma-Carotene; FAB-EBEB; MS2; m/z: 536.44; [M]*+
Name: gamma-Carotene
Class: Natural Product; Carotenoid
Formula: C40H56
Exact mass: 536.43820
SMILES: C(=CC(=C(C)1)C(C)(C)CCC1)C(C)=CC=CC(=CC=CC=C(C=CC=C(C)C=CC=C(CCC=C(C)C)C)C)C
InChI: InChI=1S/C40H56/c1-32(2)18-13-21-35(5)24-15-26-36(6)25-14-22-33(3)19-11-12-20-34(4)23-16-27-37(7)29-30-39-38(8)28-17-31-40(39,9)10/h11-12,14-16,18-20,22-27,29-30H,13,17,21,28,31H2,1-10H3/b12-11+,22-14+,23-16+,26-15+,30-29+,33-19+,34-20+,35-24+,36-25+,37-27+
Instrument: JMS-HX/HX 110A, JEOL
Instrument type: FAB-EBEB
Ms type: MS2
Ion mode: POSITIVE
Collision energy: 3 kV
Ionization: FAB
Base peak: 536.4249
Precursor m/z: 536.44
Precursor type: [M]+*
m/z	relative intensity
6.1300	0
7.2247	0
13.9551	1
14.9686	1
22.9135	0
24.9369	0
25.9406	2
26.9514	4
27.8859	0
27.9618	0
28.9488	5
35.9495	0
36.9381	2
37.9240	2
38.9435	5
39.9567	1
40.9553	9
41.9982	0
42.9275	1
42.9905	1
47.8852	1
48.9347	1
49.9328	1
50.9436	1
51.9396	1
52.9430	3
54.9682	9
55.3417	0
56.9745	0
58.0478	0
59.9952	1
61.8697	1
61.9749	1
62.9287	2
64.7820	1
64.9537	5
65.8979	0
66.9678	5
67.1709	0
67.8918	0
67.9985	0
68.5265	1
68.7140	0
68.9764	44
69.9642	1
71.9693	0
73.8804	1
74.9055	2
75.8932	2
76.6190	2
76.9240	15
77.3292	0
77.9197	3
78.0083	1
78.2325	0
78.4918	0
78.7813	1
78.9472	17
79.1648	0
79.9581	3
80.7392	0
80.9618	25
82.4116	1
82.9700	4
85.0275	1
85.9188	1
86.7216	0
86.9594	1
87.8209	1
87.9180	0
87.9862	0
88.7006	0
88.9004	3
88.9983	1
89.5548	0
89.6733	0
89.9277	0
90.0235	1
90.1337	0
90.4414	1
90.9202	65
91.0861	2
91.5850	0
91.9281	6
92.2869	1
92.4510	1
92.6133	0
92.9495	50
93.9526	3
94.4664	1
94.9652	37
95.4513	0
96.0031	0
96.9882	2
97.3256	0
98.2976	1
98.8739	0
100.9443	3
101.2126	0
101.4121	1
101.9106	5
102.4710	1
102.5727	1
102.9090	13
103.2192	1
103.4306	0
103.5167	0
103.6403	0
103.9432	6
104.0698	1
104.3038	1
104.3906	1
104.5109	1
104.9446	129
105.3348	0
105.7212	1
105.9606	8
106.1372	1
106.4513	1
106.9636	63
107.1353	1
107.3522	0
107.4822	1
107.8388	1
107.9878	3
108.6310	0
108.9552	16
109.4655	0
109.7465	0
110.1747	0
110.9142	1
111.0029	2
112.0348	0
112.4337	0
112.5487	0
112.6578	1
112.8755	0
112.9734	0
113.0844	1
113.2096	0
113.2992	1
113.4120	1
113.5349	1
113.6561	1
113.8794	2
114.1718	0
114.2788	0
114.3787	1
114.8855	54
115.3283	1
115.8864	14
116.1242	1
116.2732	1
116.8965	47
117.1168	1
117.7504	3
117.9481	14
118.2984	1
118.5998	2
118.9342	124
119.2916	1
119.7180	2
119.9432	8
120.1788	1
120.4180	1
120.5223	1
120.6111	1
120.9572	38
121.7533	0
121.9876	2
122.1432	1
122.7685	2
122.9676	16
123.6218	0
123.9283	0
124.1163	1
124.6641	1
124.8788	1
125.0567	0
125.2057	0
125.4561	1
125.8098	3
125.9771	1
126.2712	1
126.4059	1
126.9076	17
127.0757	2
127.2619	1
127.8651	71
128.2986	0
128.4427	1
128.8850	83
129.3147	0
129.5373	1
129.8970	37
130.2435	1
130.3715	0
130.9132	91
131.3397	1
131.4861	0
131.9080	20
132.1647	1
132.3892	2
132.9369	97
133.1678	1
133.5524	0
133.9433	4
134.9581	15
135.9503	2
136.9899	8
137.4098	1
137.5757	1
137.8849	2
138.8740	9
139.0935	1
139.5897	1
139.9622	4
140.0825	3
140.1752	2
140.3557	2
140.8753	55
141.1001	1
141.1886	0
141.4425	1
141.8931	58
142.3144	1
142.4928	1
142.9046	93
143.1644	1
143.3158	0
143.4236	1
143.6964	2
143.9330	35
144.1271	1
144.4803	2
144.9335	114
145.4245	1
145.5893	1
145.9355	10
146.3368	0
146.9552	27
147.2172	1
147.5874	2
147.7692	0
147.9133	2
148.0246	2
148.1848	0
148.4323	1
148.5944	1
148.7175	1
148.8079	1
149.0028	5
149.7075	1
149.8983	0
150.4529	0
150.6649	1
150.9191	5
151.2589	1
151.4214	0
151.6001	3
151.9109	18
152.2585	2
152.8875	34
153.9084	15
154.0819	1
154.4966	1
154.9277	65
155.1586	1
155.3863	1
155.9410	44
156.4741	2
156.9564	105
157.3066	2
157.5124	2
157.5903	0
157.9732	12
158.5402	1
158.9752	50
159.2842	1
159.7856	1
160.0061	4
161.0054	11
161.2767	1
161.5262	1
161.6225	1
161.8952	1
162.0548	2
162.1987	0
162.4722	0
162.5929	1
162.7137	1
162.9566	5
163.1138	2
163.2879	1
163.3699	0
163.6104	1
163.9080	4
164.0702	1
164.2275	2
164.4362	1
164.6970	6
164.9518	60
165.2968	0
165.5744	1
165.6757	3
165.9671	17
166.1767	1
166.3287	1
166.5314	1
166.7173	5
166.9620	44
167.2299	1
167.4183	1
167.9424	15
168.1967	1
168.5081	1
168.9656	67
169.2195	1
169.5066	1
169.6960	2
169.9788	25
170.2893	1
170.5127	1
170.9795	57
171.3091	2
171.5307	2
171.9992	12
172.2127	0
172.4112	1
172.5708	1
172.9943	35
173.2168	0
173.3790	0
173.9562	4
174.0801	2
174.3883	1
175.0080	16
175.2705	1
175.7508	1
175.9680	4
176.1173	1
176.2980	0
176.6211	1
176.7182	3
177.0092	7
177.2222	1
177.4939	2
177.9074	34
178.2611	1
178.3481	1
178.6086	3
178.9391	53
179.3208	1
179.7310	2
179.9627	23
180.2708	2
180.4027	1
180.6774	4
180.9585	48
181.1688	1
181.3407	1
181.9593	21
182.3309	1
182.5535	1
182.9651	63
183.2004	2
183.6976	1
183.9861	11
184.2639	1
184.4322	0
184.6304	2
184.9925	31
185.2540	0
185.3774	0
185.5168	1
185.6029	0
185.9899	6
186.3042	1
186.4651	1
186.6438	0
186.7617	1
187.0120	12
187.2941	0
187.4158	1
187.7202	1
188.0607	2
188.3125	1
188.5143	1
188.9184	10
189.0263	5
189.4610	1
189.6184	0
189.9066	9
190.1206	2
190.2235	1
190.6343	2
190.9424	18
191.3401	1
191.9495	20
192.1364	1
192.6469	6
192.9540	34
193.3406	1
193.4596	1
193.9437	19
194.2975	0
194.5018	0
194.9530	43
195.2586	0
195.9775	17
196.2877	1
196.3865	1
196.6604	5
196.9962	56
197.2530	1
197.4729	1
197.9733	11
198.2169	0
198.3342	1
198.5242	1
198.6122	0
199.0274	16
199.1914	3
199.2743	1
199.3770	1
199.7809	1
199.9685	4
200.1517	1
200.6393	1
201.0058	12
201.2823	1
201.5978	0
201.9178	12
202.4090	1
202.5387	1
202.9765	16
203.3964	1
203.4891	1
203.6630	2
203.7876	2
203.9858	8
204.2672	1
204.9272	18
205.2727	1
205.5363	1
205.9830	19
206.3439	1
206.4630	0
206.6314	1
206.9867	35
207.4317	1
207.7020	3
208.0005	16
208.2228	1
208.5015	1
209.0038	41
209.2083	2
209.5211	1
209.6531	2
209.9980	12
210.2500	1
210.4392	1
210.8092	3
211.0267	22
211.7054	1
212.0198	3
212.1469	1
212.7175	2
213.0307	8
213.4391	0
213.7672	1
213.8988	2
214.0633	2
214.3819	1
214.9523	12
215.1322	2
215.3379	0
215.5911	1
215.6958	1
215.8302	1
216.0050	8
216.5225	1
216.6794	2
216.9996	17
217.2047	1
217.5977	1
217.9631	10
218.1779	1
218.3066	1
218.6734	0
218.9919	13
219.4270	1
219.6987	2
219.8030	1
220.0090	6
220.1732	2
220.5422	1
221.0084	25
221.7570	1
221.8588	0
222.0508	9
222.3272	1
222.7822	1
223.0575	22
223.4223	1
223.6480	1
223.8066	1
223.9994	4
224.1593	2
224.4432	1
224.5963	1
224.8413	0
225.0825	9
225.6132	1
225.8114	2
225.9587	4
226.0906	5
226.4439	1
226.6891	2
227.0438	8
227.6959	1
227.9631	6
228.0784	5
228.7810	4
228.9846	10
229.6662	1
229.9735	5
230.4865	1
230.9964	13
231.4844	1
231.6804	1
231.8151	2
232.0654	8
232.4652	1
233.0006	19
233.3322	1
233.5367	1
233.6496	2
233.8696	2
234.0426	5
235.0333	14
235.3890	2
235.5227	0
235.6641	1
235.7570	1
236.0612	5
236.2252	2
236.4765	1
237.0488	14
237.7568	2
238.0347	4
238.1827	1
238.4354	1
238.5207	1
238.6273	1
238.7592	1
239.0578	6
239.7140	2
239.8188	1
239.9746	1
240.1252	1
240.6905	2
240.8218	2
241.0469	7
241.3153	2
241.7436	0
242.0393	3
242.3939	1
242.7142	0
243.0411	11
243.1900	2
243.6354	2
243.7357	0
243.9060	3
244.0296	3
244.3204	1
244.6772	1
245.0386	7
245.5555	1
245.7077	1
246.0472	6
246.4327	1
247.0392	13
247.3866	0
247.5325	1
247.9441	3
248.0763	4
248.8194	1
249.0800	10
249.4341	0
249.6520	1
249.8939	2
250.0632	4
250.1728	2
251.0571	7
251.3205	1
251.6988	1
252.0084	3
252.1563	4
252.7042	1
252.7827	0
253.0878	10
253.4092	1
253.7553	1
254.0858	2
254.6333	1
254.7580	1
255.0152	7
255.1724	6
255.7194	1
255.9787	3
256.0820	1
257.0308	5
257.7588	0
258.0240	3
258.7750	1
259.0553	8
259.6530	0
259.8624	1
260.0849	2
260.1733	1
260.6841	1
261.0601	9
261.6288	1
261.9901	2
262.1131	4
262.4255	1
262.6188	2
262.7021	1
263.0713	11
263.1637	4
263.4853	1
263.7061	1
264.1111	3
265.0607	7
265.7812	0
265.9037	1
266.1604	3
266.3239	1
266.6002	1
266.7820	1
266.8912	1
267.1025	8
267.2527	2
267.3607	0
267.5011	2
268.0786	3
268.5592	1
269.1167	8
269.6990	1
270.0035	2
270.1902	2
270.8482	1
271.0818	4
271.3474	1
271.4086	1
271.9482	1
272.0973	3
272.6703	1
273.0388	6
273.4921	0
273.6686	2
274.0900	2
274.3232	1
274.7746	1
274.8574	1
275.0450	9
275.1740	3
275.9807	3
276.1143	4
276.6030	1
277.0652	5
277.1714	2
277.5540	1
278.1206	2
278.4068	1
278.5268	1
278.7309	1
279.0276	3
279.1496	2
279.9713	2
280.0894	3
280.3895	0
280.6739	1
280.9773	3
281.2069	6
281.6807	1
282.0663	2
282.2079	1
282.6339	1
282.7708	1
283.0863	3
284.0787	1
284.5861	1
284.7915	1
285.0276	3
286.0948	1
286.2932	1
286.8471	3
287.0657	5
287.5995	1
287.8847	1
288.0622	2
288.2097	1
288.5002	0
289.0616	4
289.2588	1
289.8124	1
289.9090	1
290.0520	1
290.3263	1
290.7227	2
290.9147	1
291.0753	6
291.2229	1
291.2856	1
291.8193	1
292.0544	1
292.1550	1
292.7365	2
292.9390	2
293.1154	4
293.2056	1
293.9113	1
294.1603	1
294.9655	2
295.0583	2
295.1884	1
296.0664	1
296.4685	1
296.6045	2
296.7261	1
296.9046	1
297.0871	2
297.2192	1
297.5213	0
298.0157	1
298.1544	1
298.7673	0
299.0061	3
299.1480	3
299.5236	0
300.0470	1
300.1818	1
300.7517	1
301.0934	4
301.9737	3
302.1131	2
303.0401	5
303.5567	2
303.8304	2
304.0105	1
304.2502	1
304.7099	1
305.0655	2
305.5286	1
305.9603	1
306.6351	0
307.1121	2
307.2300	1
307.4187	0
309.1200	3
309.6005	0
309.8726	1
310.2423	0
310.4954	0
311.0770	2
311.4901	1
312.0049	1
312.2561	0
312.6844	2
312.8818	1
313.0746	2
313.1842	1
313.8749	1
314.0797	3
315.1248	4
315.2141	2
315.9012	0
316.1224	1
316.3291	1
316.4203	1
316.5713	1
316.9776	4
317.1168	5
317.4095	1
317.7089	0
318.0851	1
318.2190	1
318.6031	1
318.7633	1
319.1409	6
320.1457	2
321.0895	2
321.2445	0
321.7037	1
321.9875	1
322.1130	2
322.2043	1
323.0585	2
324.0291	0
324.6573	1
325.0047	2
326.2152	1
326.3387	0
326.6048	1
326.8827	1
327.2236	1
327.4812	1
327.7965	1
328.0725	1
328.2236	2
328.8926	1
329.0878	2
330.2097	1
330.3937	1
330.5824	1
331.1411	6
331.3896	0
332.0274	2
332.2003	2
332.7112	1
332.8901	1
333.1709	4
333.5010	1
334.1015	1
334.2863	2
334.3757	0
334.7822	0
335.0598	2
335.2552	2
336.0709	0
336.9026	0
337.2105	1
337.9778	1
338.1976	1
338.7854	1
339.1086	1
339.1921	1
339.3277	0
340.0663	1
341.1098	2
341.2369	1
342.1041	0
342.2628	1
342.5367	1
342.8463	1
343.1051	3
343.3382	1
343.5753	1
344.1207	2
344.3328	1
345.1622	5
345.8322	1
346.0273	1
346.1966	5
346.3126	3
346.4246	2
347.1046	1
347.2944	2
348.1123	1
348.2889	2
349.1333	1
351.2050	1
352.1716	1
352.5473	1
353.1193	1
353.2947	1
353.4109	1
354.3871	0
355.1656	1
355.2694	2
356.1406	1
356.9134	0
357.2249	2
357.6784	1
357.7835	0
358.9811	1
359.0751	0
359.2637	3
360.2512	4
360.9001	1
361.1177	1
361.3301	2
361.5800	1
364.2034	1
365.0707	1
365.1906	0
366.0543	1
366.1557	1
366.8760	1
367.1275	1
367.8605	1
368.2339	1
369.0611	1
369.2949	2
370.2375	1
371.1308	1
371.3614	1
371.9615	1
373.2254	1
373.4026	1
373.9074	1
374.1658	1
375.0483	0
375.3317	1
375.9276	1
376.1899	1
377.0694	1
377.9845	2
378.1902	2
378.9768	1
379.1892	1
379.2676	0
380.1613	1
380.3809	0
381.1440	1
381.2290	1
382.1829	1
382.3979	1
382.7350	1
383.0589	2
383.2153	4
384.0294	1
384.1733	3
384.2861	2
384.4464	1
385.0363	1
385.2290	3
385.6653	1
385.8474	1
386.0850	2
386.1912	2
386.7595	1
387.2023	2
387.5904	0
387.7891	1
388.0908	1
388.2386	1
388.3350	2
389.2803	2
391.0716	1
391.1964	3
391.2868	2
391.4163	2
391.7286	1
392.2444	1
392.4233	0
393.5639	1
394.0923	1
394.9438	0
395.1598	1
396.1158	2
396.8411	1
396.9736	1
397.2592	1
397.7379	1
398.0531	1
398.2417	3
399.2369	7
399.4335	1
399.6017	1
399.7138	1
400.2546	3
400.3569	1
400.8701	1
401.0356	2
401.2191	1
402.2970	1
402.9535	0
404.3233	1
405.6623	1
405.9197	1
406.1619	1
407.0655	1
407.3170	1
407.7005	1
408.1256	1
408.6227	2
409.2023	1
410.1675	2
410.3346	0
410.5135	0
410.6740	1
410.8734	1
410.9903	1
411.1745	2
411.3706	2
412.1439	2
412.2771	2
413.0071	2
413.3058	2
414.2252	1
415.1043	1
416.2765	1
416.8787	1
418.1592	1
419.2512	1
421.3358	1
421.4262	1
422.2386	2
422.4142	1
423.0557	1
423.2782	1
424.2868	1
424.4030	3
424.6301	1
425.1318	2
426.0045	0
426.1874	1
426.3235	1
426.4040	1
426.6179	1
426.7394	1
426.8285	0
427.1257	1
428.9548	1
429.0796	1
429.7037	0
429.8569	1
430.2327	2
430.3780	2
430.7717	0
431.0293	1
433.5612	0
434.9758	1
435.1463	1
435.2956	1
435.7172	1
436.3376	1
436.6330	1
436.9211	1
437.2066	2
437.3983	2
438.3764	1
438.9699	2
439.1906	1
439.8536	1
440.0558	1
440.4749	0
441.4209	0
441.9703	1
442.1798	3
442.3101	3
442.4278	1
443.0413	1
443.2516	1
443.4539	2
443.6773	2
443.8942	2
444.3247	51
444.7624	1
444.9052	0
445.3119	1
445.6681	1
445.9524	2
446.6562	0
447.6721	1
448.7599	1
448.9044	0
449.0977	1
449.6579	1
450.1145	1
450.1989	1
450.3138	2
450.5038	2
450.6371	1
450.7908	1
450.9564	2
451.2118	3
451.3491	2
451.7806	2
451.9126	1
452.0499	3
452.1099	1
452.3607	4
452.5356	1
452.7362	1
453.1625	1
453.3486	3
454.0740	0
454.2740	2
454.4383	1
455.2291	0
456.1987	0
456.5849	1
457.3243	6
457.5388	2
458.8613	0
459.3756	1
460.2610	1
461.0568	1
461.9007	1
463.1733	0
464.4435	2
464.6938	1
464.7968	0
465.2249	3
465.3808	1
465.6067	1
465.9284	2
466.3148	8
466.5031	3
466.9107	2
467.3018	44
467.6281	2
467.7530	1
467.8640	0
468.2208	3
468.3397	2
468.4606	1
468.5610	1
468.8398	0
468.9489	0
469.5072	1
469.8151	1
470.0530	2
470.4680	2
470.5433	1
470.9464	1
472.7799	0
474.0513	1
474.2144	1
475.4424	1
477.2867	0
477.5569	0
477.8952	0
479.0250	1
479.1591	1
480.0663	1
480.2903	3
480.4899	1
480.7410	1
481.1923	4
481.4110	3
481.5617	1
482.2298	1
483.0546	1
489.0004	1
489.6364	1
489.8685	1
490.2367	1
491.2199	3
492.3196	1
493.0927	1
493.2745	2
493.3817	1
493.9577	0
494.1858	1
494.4404	2
494.7837	1
495.8770	1
497.1860	1
498.5719	1
498.9606	0
501.1425	1
502.3769	1
502.8548	0
503.4040	0
504.6140	1
505.1032	1
505.9826	1
506.2546	6
506.4652	3
506.6224	1
507.5732	1
508.0743	0
508.8172	1
509.1566	0
509.7635	1
510.8795	2
511.1873	2
511.5135	1
512.1686	1
512.4137	2
512.7941	1
513.3641	1
513.7974	1
514.1534	1
514.7908	1
515.0458	1
515.1753	2
515.4329	4
515.6020	2
515.8577	2
516.0037	8
516.2243	3
516.3484	1
516.4720	1
516.7548	3
517.0633	3
517.2430	0
517.5508	1
517.6929	2
517.8679	4
518.0826	4
518.3819	5
518.4632	3
518.5729	2
518.8444	3
519.0697	4
519.4179	4
519.7740	3
519.9095	1
520.0621	3
520.4328	6
521.2627	27
521.4583	14
521.7616	4
521.9367	2
522.1653	1
522.4033	1
522.6306	0
522.8308	4
523.0489	3
523.2993	7
523.5498	2
523.7401	3
523.8743	3
523.9866	3
524.1486	3
524.2655	2
524.4525	3
524.6674	2
524.9291	1
525.0507	1
525.2648	3
525.4194	1
525.5510	3
525.7360	6
525.9687	4
526.2370	4
526.3824	2
526.5034	3
526.7189	2
526.8597	1
526.9892	0
527.1584	3
527.3746	3
527.5444	1
527.8789	3
528.0818	4
528.2305	2
528.4170	3
528.6437	4
528.8956	6
529.1454	4
529.4627	4
529.7278	4
529.8706	3
530.1906	4
530.5456	7
530.9171	5
531.7673	11
532.7101	17
536.4249	999
537.0551	176
537.6226	90
538.3586	40
539.0616	24
539.8196	15
540.4390	9
540.8823	8
