Mass spectrum: 7',8',9',10'-Tetrahydro-beta-cryptoxanthin; FAB-EBEB; MS2; m/z: 556.46; [M]+*
Name: 7',8',9',10'-Tetrahydro-beta-cryptoxanthin
Class: Natural Product
Formula: C40H60O
Exact mass: 556.46442
SMILES: C(=CC=C(C)C=CC(=C(C)2)C(C)(C)CC(C2)O)C(C)=CC=CC=C(C)C=CCC(C)CCC(=C1C)C(CCC1)(C)C
InChI: InChI=1S/C40H60O/c1-30(18-13-20-32(3)23-25-37-34(5)22-15-27-39(37,7)8)16-11-12-17-31(2)19-14-21-33(4)24-26-38-35(6)28-36(41)29-40(38,9)10/h11-14,16-19,21,24,26,32,36,41H,15,20,22-23,25,27-29H2,1-10H3/b12-11+,18-13+,19-14+,26-24+,30-16+,31-17+,33-21+/t32?,36-/m1/s1
Instrument: JMS-HX/HX 110A, JEOL
Instrument type: FAB-EBEB
Ms type: MS2
Ion mode: POSITIVE
Collision energy: 3 kV
Ionization: FAB
Base peak: 556.5405
Precursor m/z: 556.46
Precursor type: [M]+*
m/z	relative intensity	assigned
4.4282	0	
6.8169	1	
12.9478	0	
13.9539	0	
14.9697	3	
22.9238	0	
24.9312	1	
25.9475	5	
26.9577	36	
27.0873	0	
27.9543	3	
28.9661	28	
29.4372	0	
30.9520	2	
35.9527	0	
36.2667	0	
36.9333	4	
37.1680	0	
37.2204	0	
37.3184	0	
37.9450	11	
38.3930	0	
38.6146	0	
38.9457	75	
39.1258	0	
39.2843	0	
39.3980	0	
39.6033	0	
39.9595	9	
40.0962	0	
40.7853	1	
40.9649	174	
41.9644	3	
42.5912	0	
42.9704	110	
43.3221	0	
43.9546	2	
44.9664	4	
45.9608	0	
47.8855	0	
48.1813	0	
48.9379	1	
49.1368	0	
49.3071	0	
49.4791	0	
49.6447	0	
49.9407	21	
50.1747	0	
50.3380	0	
50.5295	0	
50.9353	40	
51.1581	0	
51.3319	0	
51.9441	17	
52.9555	78	
53.1691	1	
53.9531	4	
54.6026	0	
54.9707	290	
55.4108	0	
55.9724	5	
56.9786	90	
57.9954	1	
58.9659	11	
59.3522	0	
59.9627	1	
60.2861	0	
60.9239	2	
61.1199	0	
61.4627	0	
61.6005	0	
61.9219	7	
62.0774	0	
62.1451	0	
62.5170	0	
62.6014	0	
62.7043	0	
62.9347	30	
63.1323	0	
63.2556	0	
63.3610	0	
63.5616	0	
63.9517	7	
64.2195	0	
64.4428	0	
64.4973	0	
64.6390	0	
64.9563	61	
65.1920	0	
65.3206	0	
65.5266	0	
65.6366	0	
65.9525	11	
66.1025	0	
66.2876	0	
66.5040	0	
66.9627	151	
67.3099	0	
67.5174	0	
67.6851	0	
67.9665	8	
68.1356	0	
68.6394	0	
68.9762	284	
69.3428	0	
69.4489	0	
69.9841	3	
70.9648	20	
71.2742	0	
71.8698	0	
71.9571	0	
72.9273	1	
73.2172	0	
73.9255	8	
74.9296	9	
75.1292	1	
75.2053	0	
75.3851	1	
75.6506	1	
75.9530	8	
76.2908	1	
76.3966	1	
76.9473	177	
77.2687	2	
77.4340	2	
77.5832	2	
77.9540	33	
78.2826	1	
78.9609	206	
79.4528	0	
79.6399	1	
79.9690	29	
80.2499	0	
80.5124	1	
80.9771	378	
81.3198	1	
81.4255	0	
81.9666	6	
82.2156	0	
82.3091	0	
82.5838	0	
82.9904	71	
83.3753	0	
83.6082	0	
83.9539	1	
84.1075	0	
84.2390	0	
84.9734	53	
85.6463	0	
85.9264	3	
86.4715	0	
86.9360	6	
87.6765	0	
87.9430	2	
88.0976	0	
88.2303	0	
88.9593	15	
89.2589	2	
89.4854	1	
89.9619	6	
90.0387	3	
90.1744	1	
90.9691	337	
91.2567	1	
91.5608	1	
91.9781	41	
92.2913	1	
92.4172	0	
92.9951	304	
93.4293	1	
93.5804	0	
93.9985	19	
94.2918	1	
94.5620	1	
95.0084	398	
95.2708	1	
95.4937	1	
95.6805	0	
96.0070	5	
96.3360	0	
96.5108	0	
97.0076	21	
97.4744	0	
97.9757	2	
98.3524	0	
98.7482	0	
98.9938	3	
99.1643	0	
99.6125	0	
99.9921	1	
100.3385	0	
100.4334	0	
100.5619	1	
100.6403	0	
100.9765	5	
101.2479	1	
101.4764	1	
101.9709	15	
102.1530	1	
102.4168	1	
102.5286	0	
102.9790	53	
103.2225	1	
103.4240	1	
103.6545	1	
103.9920	19	
104.1860	1	
104.4407	1	
105.0014	396	
105.2874	2	
105.4800	1	
106.0109	43	
106.2611	1	
106.3925	0	
107.0187	235	
107.3734	1	
107.5616	1	
108.0138	22	
108.2725	0	
108.4347	0	
108.5600	1	
109.0278	137	
109.3109	0	
109.4315	0	
109.6233	0	
110.0107	4	
110.2882	0	
110.4025	0	
111.0035	11	
111.2880	0	
111.5775	0	
111.8060	0	
111.9253	1	
112.0309	1	
112.6184	1	
112.9632	3	
113.1470	1	
113.4127	1	
113.9648	3	
114.1387	1	
114.3759	1	
114.9722	123	
115.1970	2	
115.9732	45	
116.2587	2	
116.9866	144	
117.2242	1	
117.4503	1	
117.9906	33	
118.2485	0	
118.4265	0	
118.9967	343	
119.3368	2	
119.4744	1	
119.6746	1	
119.9968	39	
120.1954	1	
120.3982	1	
121.0075	143	
121.2811	1	
121.4112	1	
121.5189	0	
122.0019	18	
122.4494	1	
123.0202	106	
123.4086	1	
123.5506	1	
123.7001	0	
123.8227	0	
124.0131	3	
124.1986	0	
124.6645	0	
125.0151	6	
125.2400	0	
125.4289	1	
125.5188	1	
125.9725	5	
126.2100	0	
126.3152	0	
126.9667	42	
127.9608	134	
128.2645	3	
128.9642	160	
129.2897	1	
129.4027	1	
129.5569	0	
129.9816	64	
130.3266	1	
130.4637	1	
130.9794	193	
131.2952	1	
131.4775	1	
131.9913	39	
132.3457	1	
132.4782	1	
132.5714	0	
132.9969	169	
133.3937	1	
133.9902	22	
134.2725	0	
134.4067	1	
134.5322	0	
135.0024	81	
135.2983	1	
135.4673	1	
135.6307	1	
136.0172	7	
136.1994	1	
136.3438	1	
136.6376	1	
137.0258	158	
137.3564	2	
137.5686	1	
137.9969	4	
138.2310	1	
138.4440	1	
138.5751	0	
138.9547	16	
139.3439	0	
139.5062	1	
139.6100	1	
139.9751	6	
140.2010	2	
140.3385	2	
140.9698	110	
141.3168	1	
141.5355	1	
141.9836	109	
142.3896	2	
142.9847	203	
143.4610	2	
143.9962	60	
144.2567	1	
144.5748	2	
145.0080	244	
145.4984	2	
145.5847	1	
146.0077	22	
146.2631	0	
146.5148	1	
147.0159	82	
147.2477	1	
147.4106	1	
147.6275	1	
148.0300	8	
148.2884	1	
148.6108	1	
149.0300	38	
149.4149	1	
149.5681	1	
149.6566	0	
150.0046	5	
150.2565	1	
150.5305	1	
151.0077	16	
151.9777	36	
152.2823	1	
152.4951	2	
152.9920	50	
153.4633	1	
154.0066	28	
154.4549	1	
155.0163	113	
155.2902	1	
155.4436	1	
155.5578	1	
156.0238	73	
156.3093	2	
157.0334	202	
157.5208	1	
158.0496	36	
158.3203	1	
158.5557	2	
159.0520	127	
159.3667	2	
159.5098	1	
160.0495	12	
160.5730	1	
161.0663	38	
161.4125	1	
161.5629	0	
162.0457	5	
162.4278	0	
162.5782	1	
163.0742	17	
163.3276	0	
163.5360	1	
163.6618	1	
163.9973	5	
164.1505	2	
164.3056	1	
164.5943	3	
165.0286	73	
165.3938	1	
165.4962	1	
166.0301	26	
166.2555	1	
167.0303	67	
167.4689	2	
168.0513	30	
169.0558	112	
169.4582	2	
169.5873	1	
169.7151	1	
170.0637	50	
170.3086	2	
170.4810	1	
171.0684	115	
171.5701	1	
171.6783	1	
172.0713	19	
172.2911	1	
172.3739	0	
172.6434	2	
173.0825	62	
173.5014	1	
174.0587	6	
174.3566	1	
174.6310	2	
175.0873	42	
175.4275	1	
176.0374	6	
176.3612	1	
177.0590	17	
177.3127	1	
177.5122	1	
178.0275	40	
178.3313	1	
179.0216	58	
179.6079	1	
180.0286	25	
180.2950	1	
181.0323	72	
181.4264	1	
181.6417	1	
182.0379	32	
182.4444	1	
183.0397	89	
184.0645	20	
184.3251	1	
185.0624	50	
185.3720	1	
185.6084	0	
186.0647	9	
186.3179	1	
186.4715	1	
186.6458	1	
187.0643	26	
187.3878	0	
187.6786	1	
187.7892	1	
188.0910	4	
188.4539	1	
188.6786	1	
189.0339	21	
189.5619	1	
190.0508	9	
190.3580	1	
191.0134	26	
191.3325	1	
191.4466	1	
192.0191	22	
193.0312	51	
193.4436	1	
194.0374	26	
194.5863	1	
195.0500	69	
195.3730	0	
195.6160	1	
196.0502	19	
196.4516	1	
197.0555	74	
197.6356	1	
198.0690	11	
198.3744	0	
199.0604	30	
199.4255	1	
199.6372	1	
200.0452	5	
200.3801	0	
201.0551	18	
201.5146	2	
202.0234	14	
202.4876	0	
203.0421	19	
203.3262	1	
203.4430	0	
203.5773	1	
203.6798	1	
204.0159	9	
204.2774	0	
204.4046	0	
204.5558	1	
205.0284	23	
205.4933	1	
206.0415	17	
206.3728	1	
206.4780	0	
206.6333	1	
207.0478	44	
207.3176	1	
207.5158	1	
208.0521	17	
208.3200	1	
208.5977	1	
209.0633	56	
209.2943	2	
209.5773	1	
210.0672	15	
210.4707	1	
211.0833	36	
211.3470	1	
211.5287	0	
212.0842	9	
212.1885	4	
212.5852	1	
213.0850	17	
213.3691	0	
214.0894	4	
214.4662	1	
214.5823	1	
215.0479	17	
215.3623	1	
215.5502	1	
216.0395	8	
216.3364	0	
217.0609	20	
217.3775	0	
217.5910	1	
218.0560	6	
218.4851	1	
219.0939	25	
219.5003	0	
219.6552	1	
220.0892	10	
220.5056	1	
221.0887	27	
221.5230	1	
221.7754	1	
222.1136	11	
222.5245	1	
222.7149	1	
223.1219	29	
223.4733	1	
223.7168	0	
224.1194	7	
224.3944	1	
224.5011	0	
224.6314	0	
225.1246	17	
225.6375	1	
226.1065	5	
226.5102	0	
227.1188	8	
227.5676	1	
228.0682	4	
228.4459	1	
228.5375	0	
229.0972	12	
229.3755	1	
229.4921	0	
230.0887	5	
230.5944	1	
231.0877	12	
231.4573	1	
231.6591	0	
231.8256	1	
232.1048	7	
232.4823	0	
232.7164	1	
233.1091	15	
233.6469	1	
233.8003	1	
234.1257	8	
234.5947	1	
234.7056	0	
235.1176	20	
235.5173	1	
235.6472	0	
236.1152	5	
236.4644	1	
236.5603	0	
237.1263	14	
237.5610	0	
237.6845	0	
238.1173	3	
238.4103	1	
239.1186	9	
239.5477	1	
239.7646	1	
240.1498	3	
240.2701	2	
240.4397	0	
240.5811	0	
241.1215	9	
241.5753	1	
241.6864	1	
242.1041	4	
242.2949	1	
242.5475	1	
242.6304	0	
242.7547	0	
243.1238	9	
243.3884	0	
243.7293	0	
244.1209	4	
244.3868	0	
244.4902	0	
244.6093	0	
245.1117	8	
245.4100	1	
245.6102	0	
246.1232	7	
246.4908	0	
246.6687	0	
247.1246	12	
247.3637	1	
247.6273	1	
248.1473	4	
248.6272	0	
249.1467	14	
249.4856	0	
249.6900	0	
250.1516	3	
250.5605	0	
251.1846	12	
251.6748	0	
252.1479	2	
252.3598	1	
252.6097	0	
252.7494	0	
253.1528	6	
253.4284	1	
253.6875	1	
254.1424	3	
254.4286	0	
254.6997	0	
255.1502	9	
255.5196	1	
255.7195	1	
256.1167	2	
256.2691	1	
257.1560	9	
257.4200	0	
257.5190	0	
257.6992	0	
258.1343	3	
258.2743	2	
258.3674	1	
258.4691	1	
258.5793	0	
258.6935	0	
258.8078	1	
259.1796	9	
259.7601	1	
259.9272	1	
260.1763	3	
260.4511	1	
261.1514	7	
261.3847	0	
261.6266	0	
261.7911	0	
262.1956	3	
262.3721	1	
262.5347	0	
262.7092	0	
263.1714	9	
263.4590	0	
263.7678	1	
264.1897	4	
264.4966	0	
264.6441	0	
265.1686	6	
265.5914	0	
265.8130	0	
266.1630	2	
266.3615	0	
267.1690	6	
267.5324	0	
267.6495	0	
268.1547	3	
268.3924	0	
268.5599	0	
268.7287	0	
269.1797	9	
269.6161	0	
269.7559	1	
270.1990	4	
270.5114	0	
270.6570	0	
271.1886	7	
271.4176	1	
271.7454	1	
272.2095	4	
272.6585	0	
273.1559	7	
273.6315	0	
273.7984	0	
274.1780	2	
274.5735	1	
274.7379	1	
275.1739	6	
275.5052	0	
275.6278	0	
275.7127	0	
276.1939	2	
276.5247	0	
276.6844	0	
277.1969	8	
277.4926	0	
277.6577	0	
277.9170	1	
278.1173	1	
278.2798	1	
278.4396	0	
278.5550	0	
278.6949	0	
279.0677	2	
279.2880	2	
279.5706	0	
279.7629	1	
280.1869	2	
280.5160	1	
280.6660	0	
281.1611	3	
281.3973	1	
281.5865	1	
281.7372	0	
282.1965	4	
282.4647	0	
282.7017	1	
282.8909	1	
283.2163	9	
283.5443	0	
283.7137	1	
283.8969	0	
284.2463	6	
284.5558	0	
284.8095	1	
285.2048	5	
285.3423	2	
285.6519	0	
285.9794	0	
286.1973	2	
286.4832	0	
286.7677	0	
287.1558	3	
287.6799	0	
287.8962	0	
288.1576	2	
288.3341	1	
288.4635	0	
288.6779	1	
289.2141	4	
289.5420	1	
290.1195	2	
290.2609	1	
290.4474	0	
290.7535	0	
291.1910	3	
291.3730	1	
291.7249	0	
291.9574	1	
292.1991	1	
292.5126	0	
292.6986	0	
292.9277	0	
293.2300	3	
293.6764	1	
293.8080	0	
294.0006	1	
294.3109	1	
294.6863	0	
294.8385	0	
295.2200	4	
295.6121	1	
295.7683	1	
295.8534	0	
296.2230	2	
296.3858	1	
296.6105	0	
296.7282	1	
297.1989	3	
297.5161	0	
298.1491	2	
298.2914	1	
298.4124	1	
298.6439	0	
298.8680	1	
299.2318	2	
299.6083	0	
299.7294	0	
299.8305	0	
300.0062	0	
300.2250	1	
300.3521	1	
300.7194	0	
300.9143	1	
301.1652	3	
301.3276	1	
301.5652	0	
301.9239	1	
302.1801	1	
302.3498	0	
302.4736	0	
302.6999	0	
302.9302	1	
303.2371	3	
303.5427	0	
303.8476	0	
304.1925	1	
304.6080	0	
305.1581	2	
305.3878	1	
305.6809	0	
305.9227	0	
306.2677	1	
306.6095	0	
306.9106	0	
307.2097	3	
307.4116	1	
307.7314	0	
307.9973	1	
308.2212	1	
308.3311	0	
308.4584	1	
308.9702	0	
309.2435	3	
309.4548	0	
309.6468	1	
309.8901	0	
310.2061	1	
310.4287	1	
310.6847	0	
310.9261	0	
311.2741	2	
311.4668	0	
311.7276	1	
311.9683	0	
312.1524	0	
312.3171	0	
312.8106	0	
313.1848	2	
313.4950	0	
314.2035	1	
314.3656	1	
315.2003	1	
315.6006	0	
315.8703	0	
316.1018	0	
316.3334	1	
316.8053	0	
317.2619	2	
317.5937	0	
317.7092	0	
317.9348	1	
318.0743	0	
318.3007	1	
318.5003	0	
318.9711	0	
319.1874	3	
319.3183	1	
319.6769	0	
319.7904	0	
320.0356	1	
320.2539	1	
320.4336	0	
320.5485	0	
320.7722	0	
321.2726	3	
321.5638	1	
321.6474	0	
321.7903	0	
322.0135	0	
322.2106	1	
322.4003	1	
322.6790	0	
323.2950	2	
323.5316	1	
323.7949	0	
324.0355	1	
324.3443	1	
324.6023	0	
324.9506	0	
325.3416	2	
325.5135	1	
325.8578	1	
326.0022	1	
326.3512	1	
326.6460	0	
326.8727	0	
327.2097	2	
327.3074	1	
327.4652	1	
327.8176	1	
328.0016	0	
328.1387	0	
328.2744	0	
328.4022	0	
328.4831	0	
329.2190	2	
329.4646	0	
329.6855	0	
329.9999	0	
330.2729	2	
330.5859	0	
330.7155	0	
331.0539	1	
331.2742	1	
331.4565	0	
331.6154	0	
331.7463	0	
331.9406	1	
332.0721	1	
332.3245	1	
332.6651	0	
332.9215	0	
333.2300	2	
333.4484	2	
333.5746	0	
333.8198	0	
334.2085	1	
334.3842	0	
334.5225	0	
334.7616	0	
334.9861	1	
335.3127	3	
335.4651	1	
335.5466	0	
335.6615	0	
336.0062	0	
336.3657	1	
336.5214	0	
337.2805	3	
337.6875	0	
337.9568	0	
338.2409	2	
338.4240	1	
338.7088	1	
338.9535	0	
339.3111	1	
339.5651	0	
339.7610	0	
339.9241	0	
340.2384	1	
340.4262	0	
341.0675	1	
341.1290	0	
341.2387	0	
341.3289	0	
341.8091	0	
341.8920	0	
342.2652	0	
342.3816	1	
342.5575	0	
342.6772	0	
342.8157	1	
343.1548	1	
343.3200	1	
343.4725	0	
343.6732	0	
343.8451	0	
344.0251	1	
344.1562	1	
344.4205	0	
344.7289	0	
344.8681	1	
344.9510	0	
345.2501	3	
345.5579	1	
346.1743	1	
346.6728	0	
346.8596	1	
347.2665	5	
347.5858	1	
347.9138	0	
348.1139	1	
348.3576	2	
348.5825	0	
348.7144	0	
349.2399	6	
349.3712	3	
349.7796	0	
350.0253	1	
350.3367	3	
350.5978	1	
350.8449	0	
351.0124	1	
351.1289	1	
351.3713	3	
351.6412	0	
352.2675	2	
352.4088	1	
352.5408	1	
352.6466	0	
352.7679	0	
353.2830	1	
353.5255	0	
353.8069	1	
354.0126	0	
354.1854	0	
354.3040	0	
354.4608	0	
355.2193	1	
355.3520	1	
355.5416	0	
355.7627	0	
355.8698	0	
356.0566	0	
356.2046	0	
356.4349	0	
356.7148	0	
357.2184	0	
357.3858	1	
357.8647	0	
358.2176	0	
358.5605	0	
358.8472	0	
359.2237	1	
359.3918	1	
359.5901	1	
359.9277	0	
360.0429	0	
360.3424	2	
360.4235	1	
360.5441	0	
360.7249	0	
360.9099	0	
361.2864	5	
361.5672	1	
361.6717	0	
361.7870	0	
362.3063	8	
363.2968	12	
363.8344	1	
364.2915	3	
364.6200	0	
364.7809	1	
364.8774	0	
365.0551	1	
365.3031	1	
365.4982	1	
365.8515	1	
366.3034	0	
366.4241	0	
366.6689	0	
367.1074	0	
367.2945	1	
368.0241	0	
368.1187	0	
368.2769	0	
368.5009	1	
369.3152	0	
369.6016	0	
370.1892	0	
370.2803	0	
370.4063	0	
370.5168	0	
370.7768	0	
371.3308	1	
371.4247	0	
372.1912	0	
372.4070	0	
372.5236	0	
372.8198	0	
372.9799	0	
373.2319	1	
373.3968	2	
374.0007	0	
374.3009	1	
374.4015	1	
374.5751	0	
374.6998	0	
374.8492	0	
375.3124	3	
375.6631	0	
376.0418	1	
376.3429	5	
377.3097	41	
377.7911	1	
377.8763	0	
378.1875	1	
378.3605	2	
378.5657	1	
378.7300	0	
378.9091	0	
379.3846	2	
379.5703	1	
379.7407	0	
379.8775	0	
380.0204	0	
380.2834	1	
380.5013	1	
381.1909	1	
381.2902	0	
381.4117	0	
381.8249	0	
381.9812	0	
382.3429	0	
382.4697	0	
382.7656	0	
383.0789	0	
383.3540	0	
383.5144	0	
383.9405	0	
384.2016	0	
384.3854	0	
384.6928	0	
385.0049	1	
385.3975	1	
385.5264	0	
386.0627	0	
386.4789	1	
386.7353	0	
386.9628	0	
387.2784	1	
387.4442	1	
387.6436	0	
388.2485	0	
388.4546	0	
388.6218	0	
388.9279	0	
389.3537	3	
389.6787	1	
389.8009	0	
390.3576	6	
390.5356	1	
390.6712	1	
391.3375	2	
391.7122	1	
392.0931	0	
392.2885	1	
392.4632	1	
392.5962	0	
393.1988	0	
393.3304	0	
393.4722	1	
394.0204	1	
394.3657	2	
394.5962	1	
394.6909	0	
395.1364	0	
395.3776	0	
396.2942	0	
396.4017	0	
396.9131	0	
397.2505	0	
397.3614	0	
397.4777	0	
397.6242	0	
397.8493	0	
398.2607	1	
398.6573	0	
399.0774	0	
399.4451	2	
399.5345	0	
400.0427	0	
400.2686	0	
400.5026	2	
400.5947	1	
400.8132	0	
401.3124	2	
401.5002	1	
401.7410	0	
401.9798	0	
402.1750	1	
402.4320	2	
402.7299	1	
402.9016	0	
403.3894	10	
403.7497	0	
404.3583	13	
404.7951	1	
405.3575	4	
406.1252	0	
406.4138	1	
406.5709	0	
406.7051	1	
406.8286	0	
407.0938	1	
407.5911	0	
408.0805	1	
408.1631	0	
408.2892	0	
408.5947	1	
409.2909	0	
409.4634	0	
409.6595	0	
409.8461	0	
410.4168	0	
410.8667	0	
411.3542	1	
411.6711	0	
411.7537	0	
411.9370	0	
412.1452	1	
412.3695	1	
412.7033	0	
413.0210	0	
413.2003	0	
413.3763	0	
413.5932	1	
413.7967	1	
413.9129	0	
414.1043	0	
414.2689	0	
414.4550	1	
414.6605	1	
415.0864	0	
415.3517	2	
415.5345	1	
415.7790	0	
416.3722	2	
417.0024	1	
417.3766	4	
417.5863	1	
417.8990	1	
418.3935	9	
418.7974	0	
419.0108	0	
419.3335	4	
419.4436	3	
419.7925	1	
420.2226	1	
420.4052	1	
420.5750	1	
420.9441	0	
421.1830	0	
421.4031	0	
421.7427	0	
421.8568	0	
422.5515	0	
422.7690	0	
423.2375	1	
423.4724	0	
424.0497	0	
424.3558	1	
424.4639	0	
424.5592	0	
424.7586	0	
425.0124	0	
425.2762	0	
425.4132	0	
425.6630	0	
426.0826	0	
426.2626	0	
426.3834	0	
426.5009	0	
426.7628	0	
427.1321	0	
427.4081	0	
427.7170	0	
427.8775	0	
428.0239	0	
428.1696	1	
428.3671	1	
428.5551	0	
428.7163	0	
428.9702	1	
429.1045	1	
429.1965	0	
429.4342	2	
429.6438	1	
429.7694	0	
429.8742	0	
429.9930	0	
430.4572	0	
430.7883	0	
430.9307	0	
431.1705	0	
431.3573	1	
431.6280	0	
431.8672	0	
432.0916	1	
432.3945	3	
432.6915	0	
432.8547	1	
432.9904	1	
433.3223	5	
433.6415	1	
433.7799	0	
433.9606	1	
434.2556	1	
434.3631	1	
434.5049	1	
434.7716	1	
434.9605	1	
435.1997	1	
435.4154	1	
435.5639	1	
435.9684	0	
436.0740	0	
436.2749	0	
436.5068	0	
436.7507	0	
437.0545	0	
437.3065	0	
437.4342	0	
437.6440	0	
438.1353	0	
438.4593	0	
439.1328	0	
439.4346	0	
439.6322	0	
439.7263	0	
439.9986	1	
440.1337	1	
440.4726	1	
440.6272	0	
440.8766	0	
441.0615	0	
441.2047	1	
441.4326	1	
441.7278	1	
441.8656	1	
441.9456	1	
442.0599	0	
442.2765	1	
442.3914	1	
442.5454	1	
442.7270	0	
442.8883	0	
443.2696	1	
443.4794	1	
443.6152	0	
443.9293	1	
444.0685	1	
444.3018	1	
444.5204	1	
444.6388	0	
444.7208	0	
444.8741	0	
445.0134	0	
445.2138	1	
445.3443	1	
445.6126	1	
445.8238	1	
446.0572	0	
446.1803	1	
446.3444	1	
446.5906	1	
446.9054	1	
447.1320	1	
447.3184	1	
447.5128	1	
448.0947	1	
448.1888	0	
448.4458	1	
448.5622	0	
448.8791	0	
449.0103	0	
449.4953	1	
449.7766	1	
449.9522	0	
450.1110	0	
450.3922	1	
451.0179	0	
451.4782	1	
451.6202	1	
451.9768	1	
452.0818	0	
452.3318	1	
452.7875	0	
453.2822	0	
453.4717	1	
453.6075	0	
454.1648	0	
454.2911	0	
454.4498	1	
454.8874	0	
455.1650	0	
455.4306	1	
455.6155	1	
455.9321	0	
456.1829	1	
456.3765	2	
456.5352	1	
456.6501	0	
456.8391	0	
456.9487	0	
457.1497	1	
457.2613	1	
457.3823	1	
457.5343	1	
457.6580	0	
457.8732	0	
458.0029	0	
458.1320	0	
458.4205	1	
458.6982	1	
458.7917	0	
459.0345	1	
459.1817	1	
459.2758	0	
459.3640	0	
459.5939	0	
459.7708	0	
459.9160	0	
460.0122	0	
460.3801	1	
460.4864	1	
460.6249	0	
460.7877	1	
461.1797	0	
461.3667	1	
461.5860	1	
461.8106	0	
461.8806	0	
462.1348	0	
462.3635	1	
462.5801	1	
462.7402	0	
462.9124	0	
463.3086	1	
463.4640	1	
463.6846	1	
464.4885	18	
464.8363	2	
465.3133	1	
465.5266	0	
465.9706	0	
466.1254	0	
466.4840	0	
466.7679	1	
466.9570	0	
467.4556	2	
467.5424	1	
468.4932	0	
468.9474	0	
469.1776	1	
469.3169	1	
469.4986	1	
470.2120	1	
470.2853	0	
470.5424	0	
471.0849	0	
471.4699	3	
471.6247	1	
472.1524	2	
472.4567	3	
472.5805	2	
472.6896	1	
472.7589	1	
473.0598	1	
473.3304	1	
473.4812	0	
473.7148	0	
474.2641	1	
474.4917	0	
474.6855	0	
475.0639	1	
475.2814	1	
475.5352	1	
475.9041	0	
476.4616	5	
476.6771	2	
476.7929	0	
477.0333	0	
477.1686	0	
477.4885	3	
477.9248	0	
478.2117	0	
478.4528	0	
478.8171	0	
479.1363	0	
479.5829	0	
480.4200	1	
480.5302	0	
481.2053	0	
481.3761	1	
481.5745	1	
481.7184	0	
481.8817	0	
482.3296	1	
482.4944	1	
482.7747	0	
483.1312	0	
483.3417	1	
483.5589	1	
483.6799	0	
484.2563	0	
484.4513	0	
484.7163	1	
485.0620	0	
485.2315	1	
485.4683	1	
485.9794	0	
486.1018	0	
486.4308	1	
486.5942	1	
486.8047	0	
486.9689	0	
487.1666	0	
487.2938	0	
487.3967	0	
487.5386	0	
487.6550	0	
488.4212	2	
488.6277	1	
488.7764	1	
489.2413	1	
489.5804	0	
489.8185	0	
490.3399	0	
491.0229	0	
491.3277	0	
491.6964	0	
492.2159	0	
492.3269	0	
492.9473	0	
493.3780	1	
493.6754	0	
494.2393	0	
494.4413	0	
494.6586	0	
495.4191	0	
495.5558	1	
496.1306	0	
496.4799	1	
496.6078	0	
496.8050	0	
497.0648	0	
497.1684	0	
497.5359	2	
497.7339	1	
497.8719	0	
498.0374	0	
498.2205	1	
498.4716	1	
498.6837	1	
498.8674	0	
499.0351	0	
499.3245	1	
499.4437	1	
499.5763	0	
499.8644	0	
500.2738	1	
500.4562	1	
500.6171	1	
500.9140	0	
501.3873	1	
501.5078	0	
501.7798	1	
502.6619	1	
502.7366	0	
502.9434	0	
503.2262	0	
503.9231	0	
504.6450	0	
504.9878	0	
505.3047	0	
505.5667	0	
506.0477	0	
506.6302	0	
507.0003	0	
507.1992	1	
507.2919	0	
507.4484	1	
507.6177	2	
508.0712	1	
508.3474	1	
508.5496	1	
508.8620	0	
509.1388	0	
509.3054	1	
509.5675	1	
510.2851	0	
510.5042	0	
510.6298	1	
510.7884	0	
510.9812	0	
511.3138	2	
511.6169	1	
511.8051	0	
511.9717	1	
512.3380	1	
512.6666	1	
513.1928	1	
513.4005	0	
513.5564	1	
513.7379	1	
514.0201	0	
514.3972	1	
514.6533	1	
514.8831	0	
515.2534	0	
515.3792	0	
515.4941	0	
515.9196	0	
516.3705	1	
516.5876	1	
516.9930	0	
517.4535	0	
517.6511	0	
518.1573	0	
518.4040	0	
518.5942	0	
518.7065	1	
518.9082	0	
519.0850	1	
519.1644	0	
519.3217	1	
519.5052	1	
519.7344	0	
519.9280	0	
520.2891	1	
520.6085	1	
520.8088	1	
520.9991	0	
521.2001	1	
521.4724	1	
521.6069	0	
521.7010	0	
521.8483	0	
522.0184	0	
522.1630	0	
522.2786	0	
522.4756	1	
522.6141	0	
522.7419	1	
523.0687	1	
523.5206	6	
523.7398	2	
523.9066	1	
524.2105	1	
524.4015	1	
524.6254	1	
525.0249	1	
525.1809	1	
525.4734	4	
525.6652	2	
525.8218	1	
526.4762	3	
526.8461	1	
527.1421	1	
527.3519	1	
527.4831	1	
527.6115	1	
527.7339	1	
527.9835	1	
528.1436	0	
528.3474	1	
528.5693	1	
528.6971	0	
529.0005	0	
529.2117	1	
529.6059	1	
529.8615	1	
530.0552	1	
530.3028	1	
530.5577	1	
530.7899	2	
531.0562	2	
531.3771	2	
531.6697	3	
531.8440	2	
532.3755	2	
532.8101	2	
532.9965	2	
533.2615	1	
533.7170	2	
533.9707	1	
534.5366	2	
534.7565	2	
534.9772	2	
535.3460	3	
535.6649	1	
535.8782	3	
536.2241	2	
536.6413	4	
537.6379	8	
538.5734	43	
539.5264	8	
540.4888	14	
541.5738	113	
541.9648	13	
542.6265	5	
542.9530	3	
543.2929	3	
543.8510	2	
544.0569	3	
544.2354	2	
544.4784	2	
544.8688	3	
545.3152	3	
545.7191	2	
546.2126	3	
546.5896	3	
547.0757	3	
547.3854	3	
547.7362	5	
548.2271	4	
548.5054	4	
548.8979	6	
549.1056	5	
549.4651	5	
556.5405	999	
557.2815	262	
557.9707	122	
558.8072	64	
559.8273	33	
560.8265	19	
561.2442	13	
562.0223	9	
563.1091	8	
563.4818	5	
