Mass spectrum: Spirilloxanthin; FAB-EBEB; MS2; m/z: 596.46; [M]*+
Name: Spirilloxanthin
Class: Natural Product; Carotenoid
Formula: C42H60O2
Exact mass: 596.45933
SMILES: CC(C=CC=C(C=CC=C(C=CCC(C)(C)OC)C)C)=CC=CC=C(C)C=CC=C(C=CC=C(C=CCC(C)(C)OC)C)C
InChI: InChI=1S/C42H60O2/c1-35(23-15-25-37(3)27-17-29-39(5)31-19-33-41(7,8)43-11)21-13-14-22-36(2)24-16-26-38(4)28-18-30-40(6)32-20-34-42(9,10)44-12/h13-32H,33-34H2,1-12H3/b14-13+,23-15+,24-16+,27-17+,28-18+,31-19+,32-20+,35-21+,36-22+,37-25+,38-26+,39-29+,40-30+
Instrument: JMS-HX/HX 110A, JEOL
Instrument type: FAB-EBEB
Ms type: MS2
Ion mode: POSITIVE
Collision energy: 3 kV
Ionization: FAB
Base peak: 596.5276
Precursor m/z: 596.46
Precursor type: [M]+*
m/z	relative intensity
0.0067	1
3.9368	0
11.4310	0
14.9540	0
22.9237	0
24.5691	0
25.9393	1
26.9708	1
28.9708	2
29.5045	0
30.2733	0
33.1273	0
37.2527	1
38.9146	0
39.9538	1
40.1794	0
40.9543	3
41.9846	2
42.9469	4
43.2411	0
43.9798	0
44.9589	3
45.9872	1
49.9512	2
50.9110	0
51.9666	0
52.9691	2
53.9762	1
54.9904	6
56.9989	0
57.2377	1
57.9745	0
58.9873	1
59.9656	0
60.9606	0
61.9798	0
62.9676	1
64.9536	2
65.6793	1
66.9614	3
67.9753	0
68.9672	1
69.7526	0
69.9184	0
71.5832	0
71.9799	1
72.9798	440
73.2559	1
73.4180	1
73.8108	1
73.9551	2
74.9575	1
75.0466	0
75.9539	1
76.9162	3
77.9744	1
78.9700	6
79.2563	1
79.9538	1
80.9751	6
82.0047	1
82.9605	1
83.9579	1
84.2132	1
85.0009	2
85.9602	1
86.7320	0
86.9371	0
88.1884	0
88.9433	1
90.9588	10
91.9975	1
92.9865	7
93.9560	1
94.9900	3
96.9829	0
97.9670	1
100.0699	1
100.9314	1
101.3527	0
101.9316	1
102.4880	1
102.9702	1
103.9536	2
104.7951	0
104.9874	11
105.9814	2
106.9931	3
107.9215	1
109.0164	1
109.9572	1
110.9746	2
111.9956	1
112.9060	0
113.3190	0
114.9594	9
115.9716	4
116.1538	1
116.7582	1
116.9668	4
117.5251	1
117.9507	3
118.9856	11
119.7886	1
120.0028	1
120.8567	0
121.0072	1
121.9213	0
122.9499	1
123.3892	0
123.9417	0
124.9030	1
125.9196	1
126.7884	1
126.9845	2
127.7306	1
127.9269	9
128.0306	2
128.2009	1
128.7732	1
128.9593	5
129.7433	1
129.9624	5
130.2259	0
130.9601	6
131.1821	1
131.8359	0
131.9578	2
132.8301	0
132.9784	3
133.8899	1
133.9615	1
134.9957	3
135.9028	1
136.9362	3
138.9406	1
139.7839	0
140.0043	1
140.3340	0
140.6499	0
140.9560	6
141.3749	1
141.6255	0
141.9087	7
142.0056	3
142.9321	10
143.2469	0
143.3638	0
143.6176	1
143.9367	4
144.9636	8
145.2444	1
145.9756	1
146.9666	3
147.8832	1
147.9593	0
148.8795	0
149.0519	1
149.8794	0
150.0185	2
150.3430	0
150.6983	1
150.8221	1
151.7334	1
151.8855	3
152.1562	1
152.2856	1
152.8058	1
152.9775	5
153.8276	1
153.9357	2
154.3231	1
154.4568	0
154.7234	1
154.9848	7
155.9575	6
156.9647	6
157.4367	1
157.9499	3
158.3717	1
158.8186	0
159.0216	2
159.8028	1
160.0187	1
161.0180	0
162.0405	0
162.9569	2
163.0523	1
163.8896	0
163.9925	1
164.1293	1
164.3812	1
164.9768	6
165.3997	1
165.7713	1
165.9714	4
166.9559	3
167.3496	1
168.0077	4
169.0216	6
169.3466	1
169.9677	2
170.0586	2
171.0155	4
172.0254	2
173.0394	2
174.0236	1
175.9156	2
177.0191	1
177.3989	1
177.8955	2
178.0258	2
179.0080	3
179.5687	1
179.6937	0
179.9615	2
180.8451	2
180.9983	5
182.0098	2
182.8153	1
183.0042	3
183.7253	1
183.8143	0
183.9849	3
185.0141	1
185.9453	2
186.8839	0
187.0205	1
187.9824	1
189.0067	2
189.9594	1
190.9650	3
191.9898	3
192.9925	4
193.8386	1
194.0454	1
194.6721	1
194.7893	1
195.0196	6
195.4397	1
195.9785	2
196.9097	1
197.0554	3
198.0382	2
198.9662	1
199.0616	1
199.9612	1
200.7255	1
201.0279	1
201.3995	1
202.0163	3
202.9776	2
203.5727	1
203.7224	1
203.8721	2
204.3177	1
204.6484	1
205.0173	2
205.7442	1
205.9135	1
206.0383	2
206.9905	4
207.6327	0
208.0271	4
209.0470	5
209.5891	0
209.9693	0
210.8795	0
211.0284	4
211.8006	1
211.8889	1
211.9933	2
212.8418	1
212.9866	2
213.9483	0
214.7355	0
215.0136	1
216.0564	2
216.8151	1
216.9881	0
217.1318	0
217.9851	2
219.0217	1
219.1075	1
219.4720	1
220.0657	3
221.0844	2
222.0224	1
223.0384	3
224.0780	1
224.8353	2
225.8869	0
226.0206	0
227.0553	0
228.0777	2
228.2410	1
228.8334	0
229.9569	0
230.1190	0
231.0768	2
232.0328	1
232.1928	0
233.0351	1
233.7502	1
234.1677	1
235.0976	1
236.0572	1
236.1442	0
236.5600	0
237.0411	1
237.1190	1
238.2358	2
239.0485	1
241.1629	1
242.0706	2
242.1479	1
242.4178	0
242.9976	1
243.1333	2
244.0902	2
245.0834	2
245.1629	2
245.7032	1
245.8503	1
246.0966	1
246.9384	1
247.1179	2
248.0212	0
248.7952	0
248.9523	0
249.1193	1
249.9880	1
252.0718	1
253.0924	0
253.8699	1
254.0978	0
254.1973	0
254.7520	1
255.0633	1
255.1381	1
256.1308	1
256.2635	1
256.9994	2
257.2198	0
257.9976	1
259.0569	1
259.9170	1
260.1906	1
262.0406	0
263.1046	2
264.0501	0
264.5612	1
265.0929	1
266.0468	1
266.9867	0
268.0205	1
268.1771	1
271.0179	2
271.3932	1
272.0714	2
274.0067	1
274.1394	1
275.1760	2
276.1724	1
277.2305	0
279.1043	1
280.0110	1
280.8129	0
281.0819	1
281.2104	1
282.1233	1
284.2566	1
284.7674	1
284.9216	1
285.2612	2
287.1176	1
287.9928	1
288.2580	1
289.7899	1
291.0606	1
291.1524	1
291.2407	1
291.3318	1
292.1018	1
293.0692	1
293.2066	1
294.7650	1
296.1419	1
296.9358	1
297.0732	1
297.5143	0
298.0572	1
298.9341	1
301.0699	1
302.0742	0
303.8795	1
304.0234	1
304.1688	1
304.2614	1
305.2920	0
306.1696	0
307.1443	0
309.9005	1
310.1345	1
310.8988	1
311.1564	1
312.1100	1
312.2785	1
313.2438	1
314.1914	1
314.6963	1
314.9506	1
315.1527	1
317.0989	2
317.5534	1
321.2166	1
321.9232	0
322.3130	0
323.4062	0
324.1439	1
324.7422	1
325.1794	2
325.2782	1
326.0448	1
326.9160	0
327.0077	0
327.9206	1
328.1476	1
328.2651	1
329.1374	1
330.1524	1
331.9666	2
332.6704	0
335.9145	0
339.9989	1
340.6782	1
342.1460	1
342.5711	0
344.0373	1
344.2094	1
345.1954	0
346.0331	1
347.1852	1
347.7763	1
350.3971	1
351.1207	1
352.0088	1
354.0510	1
354.2342	0
355.3202	1
356.1420	1
357.2370	1
357.5316	0
361.0738	0
361.5922	1
362.4026	0
362.9707	1
363.1606	1
365.1334	1
365.9897	1
366.3388	1
368.4247	1
369.2498	1
370.1583	1
370.2396	0
372.3425	1
373.0889	0
374.4050	2
375.3552	0
376.2940	1
377.4193	1
379.0406	1
379.1241	0
380.2647	2
381.2238	1
383.1576	1
383.2935	1
384.0538	0
385.4113	1
386.3057	1
387.1835	0
387.5808	0
388.2429	1
389.2556	1
390.2929	1
391.2259	1
391.9359	0
392.2541	2
392.4255	1
394.8029	1
394.8987	0
395.3027	1
396.1348	1
397.2119	1
400.2061	1
401.2296	0
404.2130	1
405.4267	0
408.6049	1
410.2789	1
413.3521	1
413.5429	0
415.2886	1
418.6050	1
422.1064	1
422.2203	1
424.0035	1
424.8607	0
426.1253	2
426.2911	1
426.4029	1
427.3778	1
428.7588	0
429.2295	0
429.3765	1
430.1105	1
432.6495	1
434.4172	1
435.0882	1
435.2222	1
435.5812	1
436.2652	1
436.3935	1
438.3428	1
439.2859	1
440.2377	0
441.0829	1
441.2004	2
442.1264	1
443.1527	0
443.6310	1
444.3163	0
445.2678	1
446.5318	1
448.7954	1
449.4940	1
450.0295	1
450.2482	2
450.3918	3
452.2520	1
454.3449	1
455.2351	2
456.1262	0
456.7285	0
457.2860	2
458.2141	0
460.3702	1
461.2645	1
464.2269	1
472.3409	1
473.9737	1
474.1702	1
474.2706	0
475.6573	0
477.3008	1
479.2254	1
479.4060	1
480.8671	1
481.4828	1
482.3471	1
483.2519	2
483.4861	1
485.1890	1
486.3499	1
486.9926	1
487.7481	1
488.1769	1
488.2882	1
488.5803	1
488.6635	1
488.8406	1
489.2730	0
491.4937	1
491.7439	1
492.2856	3
493.4104	0
496.2503	2
496.3500	0
497.0844	1
498.3252	1
502.3067	1
502.4353	0
503.3514	1
503.5942	1
504.3550	7
504.5913	5
504.8333	1
505.1231	1
505.8233	0
506.1528	0
506.2916	1
507.7839	0
507.9573	2
508.2421	3
508.5724	1
509.2619	1
509.6182	1
510.3757	1
510.9511	1
513.1205	1
515.0466	0
515.8196	0
518.0375	0
518.5589	0
521.6827	1
522.2412	1
522.4411	1
522.7377	1
522.8734	0
523.4341	17
524.2114	2
525.4932	1
530.7297	0
531.4713	1
531.5947	1
534.0621	1
535.3035	1
535.4046	1
536.3059	1
536.9726	0
540.5431	0
541.4642	0
542.3817	1
543.3903	1
545.0804	1
546.0892	1
546.6594	0
547.9023	0
548.3302	1
548.5925	0
549.6615	1
551.2596	1
551.6268	1
552.2529	1
553.3235	1
554.2011	0
554.7874	1
556.1835	1
556.2617	1
556.5660	2
556.8936	1
558.1763	1
558.3015	1
559.0897	1
559.3970	1
560.9106	1
562.3903	0
564.0279	1
564.3824	5
564.6459	1
565.1317	2
565.2271	1
565.4891	2
566.3569	5
566.6053	5
568.5714	0
570.3159	1
570.6163	1
572.0577	1
572.3394	0
573.1057	1
573.3202	2
574.4310	1
575.1540	1
575.2674	1
576.2844	1
576.3863	1
577.2661	1
577.4373	1
578.0174	1
578.1287	2
578.4711	11
578.7528	4
579.2563	2
579.3423	1
579.4601	2
579.5547	1
579.7411	1
580.2887	1
580.5069	3
580.6182	2
580.8970	1
581.0770	1
581.2482	1
581.4202	2
581.7229	2
582.8226	1
582.9989	0
583.5958	1
583.9600	0
584.1652	1
584.8328	1
585.4196	2
585.6234	0
586.4625	1
586.7045	2
586.9813	1
587.1194	0
587.4258	1
587.6397	1
587.7792	1
587.8580	1
588.3024	1
588.5681	0
588.6793	2
589.0994	2
589.2495	0
589.3911	0
589.5022	0
589.8733	1
590.1230	1
590.2220	1
590.4169	1
590.6118	2
590.7721	1
591.0710	2
591.2667	1
591.3836	1
591.5778	2
591.8680	1
592.0601	1
592.1951	1
592.3879	2
592.5352	2
592.7879	3
593.1092	6
593.3201	2
593.5778	2
593.7446	2
593.8897	2
594.0818	3
594.3771	6
594.6595	6
595.0082	8
596.5276	999
597.3740	22
597.8167	7
598.0643	10
598.3727	6
598.5786	7
598.7317	3
599.1246	3
599.4243	3
599.5738	2
599.7825	2
599.9783	2
600.4759	1
600.9627	2
601.1613	1
601.2979	1
601.4987	1
601.7948	1
601.9284	2
602.2708	0
602.4492	0
602.6941	1
