Mass spectrum: (+)-delta-Tocopherol; EI-EBEB; MS; POS
Name: delta-Tocopherol
Name: (+)-delta-Tocopherol
Class: Natural Product; Lipid; Tocopherol
Formula: C27H46O2
Exact mass: 402.34978
SMILES: C([C@@]2(C)CCC[C@H](C)CCC[C@H](C)CCCC(C)C)Cc(c1O2)cc(O)cc1C
InChI: InChI=1S/C27H46O2/c1-20(2)10-7-11-21(3)12-8-13-22(4)14-9-16-27(6)17-15-24-19-25(28)18-23(5)26(24)29-27/h18-22,28H,7-17H2,1-6H3/t21-,22-,27-/m1/s1
Instrument: JMS-HX/HX 110A, JEOL
Instrument type: EI-EBEB
Ms type: MS
Ion mode: POSITIVE
Ionization: EI
Base peak: 402.4948
m/z	relative intensity
11.9931	0
12.9846	0
13.9992	0
15.0065	1
22.2875	0
24.9878	0
25.9851	2
26.9925	12
27.9972	2
28.9970	16
30.9738	0
35.9660	0
36.9778	1
37.9730	3
38.9804	25
39.9853	5
40.9901	54
41.9927	6
42.9985	101
43.9769	0
44.9660	0
48.9654	0
49.9749	4
50.9783	9
51.9839	5
52.9838	18
53.9935	4
55.0014	86
55.4568	0
56.0102	13
57.0196	92
57.9908	1
58.9312	0
59.5470	0
59.9956	0
60.9725	0
61.9840	2
62.4374	0
62.9829	5
63.9825	2
64.9944	11
65.9878	6
66.9925	26
67.9920	9
69.0036	76
70.0127	5
71.0228	48
71.7521	0
72.0044	0
72.9101	0
73.9808	1
74.9904	1
75.3944	0
75.9886	1
76.9958	22
77.9979	5
79.0126	24
79.5199	0
80.0127	3
81.0113	29
81.4936	0
82.0036	2
83.0292	33
84.0285	1
85.0470	17
85.9961	0
86.9934	0
88.0066	0
88.5011	0
89.0160	3
90.0119	3
91.0230	22
92.0196	1
93.0237	8
94.0092	5
94.4914	0
95.0359	20
95.9937	3
97.0430	24
98.0131	1
99.0647	1
100.0218	0
100.9948	0
101.3480	0
102.0217	1
102.4836	0
103.0287	5
104.0156	1
105.0176	8
106.0150	3
107.0078	43
108.0087	26
109.0326	19
109.9928	1
111.0398	9
112.0221	0
113.0282	1
114.0058	0
115.0152	7
115.5322	0
116.0109	2
117.0265	3
117.9876	1
119.0023	7
119.9983	4
120.9992	53
121.9902	3
122.9893	25
123.4269	0
123.9826	15
124.4196	0
125.0269	4
126.0462	0
127.0294	3
128.0134	4
129.0335	4
129.5670	0
130.0113	1
131.0161	9
132.0076	3
133.0131	7
134.0043	4
135.0195	18
136.0032	222
137.0109	876
138.0205	84
139.0461	1
140.0298	0
141.0508	2
142.0655	1
143.0464	1
144.0463	3
145.0601	8
146.0512	2
147.0471	16
148.0386	18
149.0500	47
150.0530	54
151.0675	21
152.0709	1
153.0198	0
154.0785	0
155.0603	1
156.1172	0
157.0654	3
158.0735	4
159.0771	8
160.0617	6
161.0521	53
162.0512	16
163.0560	49
164.0541	3
165.0713	2
165.7439	0
166.1270	0
167.0662	0
167.5421	0
168.1723	0
169.0549	0
170.0417	0
170.6337	0
171.0764	1
172.0725	2
173.0774	6
174.0662	7
175.0596	72
176.0658	25
177.0715	315
178.0632	4
179.1039	1
180.0717	0
181.0905	0
182.0850	0
183.1068	0
184.1229	0
184.5373	0
185.1021	0
185.4026	0
186.1024	0
187.0927	5
188.0907	3
189.1016	16
190.1066	4
191.1183	30
192.1210	6
193.1272	0
194.1286	0
195.2021	0
196.1627	0
197.0871	0
198.2170	0
199.1463	0
200.1269	0
201.1444	2
202.1476	0
203.1564	4
204.1555	2
205.1608	5
206.1799	2
207.2534	0
207.7107	0
208.3055	0
209.2246	0
211.2136	0
212.1470	0
213.1767	0
215.1713	0
216.0975	0
217.1702	1
218.1586	4
219.1671	2
219.5277	0
220.1759	1
221.0835	0
221.3073	0
222.3471	0
223.1036	0
226.3047	0
226.9195	0
229.1783	0
230.1540	0
231.1898	1
232.1682	1
232.5815	0
233.2171	0
234.1855	0
235.1373	0
243.2188	0
244.2375	0
245.2207	1
246.2147	7
247.2152	0
248.2022	0
249.1716	0
251.1530	0
257.1782	0
259.2606	0
260.2363	5
261.2176	0
262.2536	1
263.3668	0
264.2370	0
269.3665	0
271.1669	0
272.2639	0
273.2810	0
274.2413	7
274.8011	0
275.3030	0
276.2457	1
277.2234	0
278.5388	0
285.1453	0
285.5783	0
286.3430	0
287.3518	0
288.2709	14
289.2409	0
290.2554	1
291.3512	0
292.3698	0
297.3666	0
299.3180	0
300.3514	0
301.3121	0
302.2898	1
302.7148	0
303.3174	0
304.3270	0
305.1994	0
313.3640	0
314.3311	0
315.0055	0
315.4230	0
316.3321	15
317.2835	0
317.5331	0
318.3620	0
318.8114	0
319.3581	0
320.3533	0
327.5871	0
328.3391	0
329.3915	0
330.3594	8
331.2968	0
332.3739	1
333.4521	0
334.4015	0
334.6184	0
335.0365	0
335.4133	0
336.7555	0
337.2658	0
337.8491	0
338.5098	0
340.5842	0
341.4812	0
342.3200	0
343.4164	0
344.3751	7
345.3975	0
345.8711	0
346.4062	1
346.9381	0
347.2804	0
348.0498	0
348.3614	0
349.4149	0
350.9444	0
351.5688	0
351.9675	0
353.0054	0
353.9459	0
354.3299	0
354.6948	0
355.2269	0
355.7845	0
356.3166	0
356.5970	0
357.4456	0
358.4043	7
359.4583	2
360.4193	1
364.8040	0
365.5600	0
365.9655	0
366.4347	0
367.3993	0
369.1277	0
370.5590	0
371.5234	0
372.4594	0
373.5289	6
374.4290	0
382.2954	0
383.4282	0
384.5940	1
385.4821	2
386.4572	11
387.5713	12
388.4798	0
389.0925	0
389.5251	0
390.0329	0
391.2840	0
402.4948	999
405.3882	4
