Mass spectrum: Rhodoxanthin; FAB-EBEB; MS2; m/z: 562.38; [M]+*
Name: Rhodoxanthin
Formula: C40H50O2
Exact mass: 562.38108
SMILES: C(C=CC(=CC=CC(=CC=C(C=2C)C(C)(C)CC(C2)=O)C)C)=CC(=CC=CC(=CC=C(C=1C)C(C)(C)CC(C1)=O)C)C
InChI: InChI=1S/C40H50O2/c1-29(17-13-19-31(3)21-23-37-33(5)25-35(41)27-39(37,7)8)15-11-12-16-30(2)18-14-20-32(4)22-24-38-34(6)26-36(42)28-40(38,9)10/h11-26H,27-28H2,1-10H3/b15-11+,16-12+,19-13+,20-14+,29-17+,30-18+,31-21+,32-22+,37-23-,38-24-
Instrument: JMS-HX/HX 110A, JEOL
Instrument type: FAB-EBEB
Ms type: MS2
Ion mode: POSITIVE
Collision energy: 3 kV
Ionization: FAB
Base peak: 547.4731
Precursor m/z: 562.38
Precursor type: [M]+*
m/z	relative intensity
4.6597	0
14.0229	1
15.0307	1
22.9934	1
25.0308	0
26.0244	4
27.0322	34
28.0432	3
29.0481	27
30.0040	0
31.0039	1
35.0186	0
36.2413	0
37.0156	4
37.6669	0
38.0163	13
39.0348	105
40.0445	17
41.0506	161
42.0331	4
43.0462	100
44.0615	0
44.6908	0
45.0455	2
48.1897	0
49.0260	3
49.4193	0
50.0253	31
50.4000	0
51.0361	80
52.0450	25
52.5022	0
53.0504	131
54.0366	4
55.0652	184
56.0719	7
57.0801	21
58.0496	1
58.7784	0
59.0674	4
60.0039	1
61.0343	5
62.0375	26
63.0496	78
63.4554	0
64.0554	12
64.5562	1
65.0604	115
66.0671	20
66.5422	0
67.0622	139
67.5701	0
68.0598	3
69.0635	153
69.7366	0
70.1009	1
70.2881	0
70.6483	0
71.0562	5
72.0765	0
73.0637	1
74.0358	19
75.0649	33
75.6914	2
76.0518	18
77.0528	346
78.0668	75
78.4583	2
79.0676	267
79.6580	0
80.0700	24
81.0815	184
82.0796	6
83.0691	119
83.6887	1
83.9982	1
85.0533	9
86.0454	10
87.0412	15
87.7268	1
88.0509	6
89.0949	44
90.0904	17
91.0844	721
92.0921	56
93.0970	324
94.0973	21
95.0928	122
96.0983	4
96.5798	0
97.1149	14
98.0959	7
99.0828	9
99.3966	0
100.1198	1
100.6287	1
101.1198	14
102.0784	52
103.0938	158
104.1006	71
105.1066	762
106.1077	62
107.1158	256
107.6420	3
108.1079	27
108.4765	1
109.1031	166
110.0840	11
111.0890	17
111.9999	2
113.0732	10
113.3595	3
114.0883	20
115.0797	463
116.0912	163
117.0935	335
118.0865	63
119.1038	594
120.1011	57
121.0997	286
122.0957	37
122.5584	1
123.0889	64
124.0510	10
125.1051	47
125.5818	3
126.0711	25
127.0830	203
128.0800	553
129.0822	593
130.0885	200
131.0945	471
132.1073	90
133.1048	346
134.1048	32
135.0924	422
136.0907	32
136.5560	2
137.0984	101
138.1017	11
139.0785	68
139.5191	3
140.0840	32
141.0849	451
142.0938	367
143.1037	602
144.1036	216
145.1100	541
146.1063	106
147.1189	343
148.1102	41
149.1232	194
150.1052	25
151.1299	232
152.1067	214
153.1039	283
154.1201	126
155.1219	429
156.1301	276
157.1350	494
158.1281	146
159.1403	389
160.1407	114
161.1503	210
162.1101	16
163.1522	47
164.1529	28
165.1319	472
166.1383	160
167.1484	323
168.1405	118
169.1560	366
170.1595	161
171.1581	329
172.1475	115
173.1574	260
174.1454	46
175.1665	205
176.1360	43
177.1302	45
177.5383	10
178.1251	241
179.1291	391
180.1451	162
181.1348	336
182.1521	133
183.1458	318
184.1473	89
185.1466	234
186.1307	83
187.1383	151
188.1436	27
189.1324	225
190.1260	69
191.1331	242
192.1378	160
193.1346	293
194.1347	143
195.1469	363
196.1410	126
197.1471	298
198.1322	63
199.1422	268
200.1369	37
201.1537	140
202.1222	125
203.1357	167
204.1353	63
205.1369	172
206.1519	124
207.1559	257
208.1546	117
209.1581	267
210.1577	76
211.1679	241
212.1858	35
213.1623	239
214.1825	21
215.1685	172
216.1709	73
217.1766	163
218.1740	64
219.1777	156
219.5674	5
220.1861	83
221.1892	183
222.1825	82
223.1980	171
224.2009	58
225.2143	98
226.1846	57
227.2032	64
228.2051	56
229.1916	121
230.1900	55
231.1976	130
232.2099	59
233.2095	134
234.2109	51
235.2039	140
236.1973	57
237.2086	119
238.1969	28
239.1928	103
240.1848	23
240.6859	6
241.1916	68
242.1798	37
243.1961	91
244.2200	46
245.2166	108
246.2076	46
247.2252	107
248.2140	40
249.2221	115
250.2173	44
251.2319	84
252.2029	46
253.2138	81
254.2187	28
255.2150	74
256.2146	44
257.2086	70
258.2308	40
259.2255	96
260.2380	39
260.6161	6
261.2288	90
261.7448	6
262.2419	33
263.2304	87
264.2617	23
265.2272	80
266.2195	31
267.2369	56
268.2253	22
268.6807	5
269.2242	56
270.2484	29
271.2375	43
272.2428	31
273.2219	61
274.1734	24
275.2544	59
276.2416	24
277.2658	70
278.2477	23
279.2342	64
280.2415	22
281.2697	60
282.2747	39
283.2430	44
284.2249	20
285.2585	40
286.2379	15
287.2602	55
288.2385	15
289.2774	50
290.2386	18
291.2794	44
291.7183	7
292.2793	18
293.2500	42
294.2473	21
295.2582	29
296.2604	15
297.2437	33
298.2700	19
299.2744	33
300.2274	18
301.2543	34
302.2194	12
303.2498	37
304.3054	13
305.2697	21
306.2992	17
307.2579	25
308.2701	12
309.2366	19
310.3083	8
311.2427	24
312.2616	14
313.2467	31
314.2467	11
315.2810	34
316.2385	10
316.5804	4
317.2687	28
317.7173	1
318.3021	11
319.2764	26
320.2450	12
321.2226	9
322.2567	7
322.7516	3
323.2599	17
324.2559	9
325.2254	15
325.8540	3
326.2795	10
327.3116	24
328.2623	15
329.2769	26
330.3035	11
330.5863	4
331.2660	27
332.3072	10
333.2597	33
334.3087	20
335.2777	14
335.7816	1
336.3330	5
336.6813	1
337.2624	13
338.2616	8
339.2951	19
340.3406	7
341.3062	17
342.3877	8
343.3151	26
344.2663	13
345.3126	29
345.7728	3
346.3131	28
346.7763	3
347.2900	24
348.2626	4
349.3036	13
350.2186	9
351.2837	14
352.2940	8
353.3238	17
354.2899	4
354.7402	3
355.3734	14
356.3873	5
357.3209	19
358.3520	15
358.6878	4
359.3297	40
360.3225	24
361.3719	5
362.0185	3
362.3396	5
363.2778	8
363.6421	5
364.3291	4
365.3151	9
365.7821	1
366.3235	5
367.3782	9
368.3795	4
368.6474	2
369.3393	20
370.3736	6
371.3214	14
372.2921	18
372.8421	2
373.3164	14
374.3260	14
375.2212	5
376.3366	4
377.2245	5
377.8835	1
378.2926	7
378.7494	2
379.3356	11
379.7299	2
380.1629	3
380.5676	2
381.3817	8
382.4101	6
383.3687	17
384.3289	9
385.3235	19
386.4060	5
386.6860	3
387.3443	6
387.9504	4
388.3615	5
388.8516	2
389.1897	4
389.3983	2
389.9659	1
390.4218	7
391.3202	8
391.6375	4
392.3588	6
393.3513	7
394.2247	2
394.6137	2
395.4112	9
395.8435	4
396.2982	5
396.5278	3
397.3642	21
397.8324	4
398.3856	18
399.3803	26
400.3989	25
401.4401	9
401.9547	1
402.3470	2
402.7111	3
403.3022	8
404.3250	6
404.6078	2
404.8922	1
405.3448	5
405.6426	1
406.2085	3
406.4944	2
406.7967	1
407.4132	4
408.3976	3
409.3107	35
410.3609	7
410.7259	1
411.3889	22
412.3991	20
413.4451	15
414.5002	5
415.3453	38
416.5392	6
417.3189	4
417.7035	1
418.3938	13
419.4404	4
419.7903	1
420.2461	1
420.4963	1
420.8463	0
421.2708	3
421.5211	2
421.9069	2
422.4938	0
423.3162	7
424.3457	15
425.3634	40
426.4125	9
426.7583	4
427.3201	3
427.5974	1
428.0668	2
428.4335	2
429.2339	5
429.6752	2
430.3744	3
431.1824	2
431.4836	3
431.9324	3
432.3871	4
432.9076	1
433.1178	1
433.5190	3
433.9231	3
434.2735	3
434.9372	3
435.4085	6
435.7053	1
436.0394	2
436.3840	3
436.7375	0
437.3759	5
437.6489	4
438.4411	6
438.7812	2
439.3989	6
439.9793	8
440.5374	4
441.3596	7
441.6610	5
442.3445	1
443.0639	3
443.4445	5
443.9818	1
444.6236	2
445.3924	3
446.2612	2
447.0405	2
447.5392	3
448.3126	3
448.6261	3
449.3981	6
450.0208	4
451.1663	5
452.2177	6
453.2006	7
454.3830	6
455.3971	13
456.3965	49
457.1676	4
457.4928	3
458.2640	1
458.6862	1
459.4516	4
459.8828	1
460.6004	3
461.4867	9
461.9583	2
462.2701	2
462.5149	3
463.4148	11
463.9341	2
464.5714	4
465.4475	11
465.8147	2
466.2014	3
466.4969	3
467.2045	4
467.5463	3
467.8061	1
468.4077	11
469.4558	10
470.4219	85
471.2790	3
471.6822	3
472.4453	3
472.8873	1
473.4713	5
474.1016	2
474.6049	3
475.4070	7
476.2345	2
476.7559	2
477.4192	8
477.7957	3
478.4515	13
479.0999	2
479.5721	3
480.5881	4
481.4710	4
481.8992	3
482.4752	6
483.4362	14
484.4272	2
485.2510	1
485.6182	1
485.9077	1
486.1227	1
486.4898	3
487.4034	4
488.1229	3
488.5199	2
489.4739	5
490.4981	5
491.4581	15
492.1763	3
492.4824	1
492.8199	2
493.7144	3
494.6806	2
495.1600	2
495.6544	1
496.1980	2
496.9120	3
497.5692	4
497.9964	2
498.4684	4
499.0600	3
499.5529	1
500.2357	1
500.6585	1
501.3263	4
501.8358	1
502.2437	1
502.5888	3
502.9564	0
503.4196	8
503.8470	1
504.4761	8
505.4609	13
506.4488	15
507.2454	2
507.5678	3
508.2864	1
508.7114	0
509.1035	1
509.6955	1
510.3098	1
510.9928	3
511.5983	1
512.3096	2
512.7451	2
512.9941	2
513.2954	4
513.7041	1
514.3708	1
515.3492	3
515.6297	2
516.2040	3
516.7858	3
517.4809	6
518.1791	3
518.5476	6
519.4517	15
520.2663	4
520.5632	1
520.9019	1
521.3361	3
522.3090	2
522.6478	2
523.1328	0
523.4999	1
524.2819	3
524.9027	2
525.2907	2
525.9325	3
526.2847	2
526.6818	3
526.9102	1
527.5803	3
528.3505	5
528.8760	4
529.5358	12
530.4136	6
531.4616	24
532.4739	16
533.4862	19
534.4807	13
535.3229	1
535.6663	2
535.9321	1
536.3517	2
537.2717	3
537.8347	2
538.5187	5
544.4161	75
545.5082	41
547.4731	999
548.6057	21
550.4005	13
562.4346	999
565.4153	147
566.2184	70
567.5217	30
568.9041	20
569.7133	11
570.8928	6
572.0261	7
