Mass spectrum: Pyrroxanthin 5,8-furanoxide; FAB-EBEB; MS2; m/z: 612.35; [M]+*
Name: Pyrroxanthin 5,8-furanoxide
Formula: C39H48O6
Exact mass: 612.34509
SMILES: C(=CC=CC=CC=C(C=c(o4)cc(c4=O)C(C=2)OC(C)(C3)C(C(C)(C)CC3OC(C)=O)2)C)(C#CC(C1(C)C)=C(C)CC(C1)O)C
InChI: InChI=1S/C39H48O6/c1-25(16-17-33-27(3)19-29(41)22-37(33,5)6)14-12-10-11-13-15-26(2)18-30-20-32(36(42)44-30)34-21-35-38(7,8)23-31(43-28(4)40)24-39(35,9)45-34/h10-15,18,20-21,29,31,34,41H,19,22-24H2,1-9H3/b12-10+,13-11+,25-14+,26-15+,30-18-/t29-,31+,34?,39-/m1/s1
Instrument: JMS-HX/HX 110A, JEOL
Instrument type: FAB-EBEB
Ms type: MS2
Ion mode: POSITIVE
Collision energy: 3 kV
Ionization: FAB
Base peak: 124.9442
Precursor m/z: 612.35
Precursor type: [M]+*
m/z	relative intensity
0.0015	2
0.0921	0
0.1291	0
0.1417	0
0.2573	0
1.1708	6
1.3167	1
1.9370	2
2.4659	1
3.9128	0
5.4645	0
6.0008	0
7.1436	0
7.7473	2
8.9272	0
11.9623	0
12.9715	2
13.0878	1
13.9241	1
14.9842	7
17.2266	0
18.2292	2
18.9554	1
19.9489	0
22.9450	9
24.2597	0
24.9526	1
25.9325	4
26.9694	69
27.6780	0
27.9717	5
28.9751	45
29.4997	0
29.9738	1
30.5600	1
30.9635	8
35.5886	1
35.9679	2
36.7049	0
36.9544	9
37.2006	0
37.8078	2
37.9543	33
38.9558	144
39.9577	11
40.4322	1
40.5939	1
40.9710	241
41.9744	13
42.2102	0
42.9555	880
43.1881	0
43.9500	4
44.9702	7
45.1412	3
45.9777	2
46.2087	0
48.8596	2
48.9730	8
49.0692	1
49.1512	0
49.5023	0
49.9450	65
50.9563	122
51.9630	38
52.9595	136
53.9561	8
54.9755	206
55.9792	14
56.9936	507
57.9850	4
58.2684	0
58.9774	66
59.7316	2
60.1473	1
60.2215	1
60.9622	10
61.9516	26
62.9477	70
63.2700	1
63.9538	16
64.1215	1
64.5572	1
64.9630	101
65.2555	0
65.5518	1
65.9729	24
66.5550	0
66.9750	144
67.9816	13
68.9702	205
69.1563	2
69.2454	2
69.9758	5
70.0878	2
70.2538	0
70.9642	34
71.4437	1
71.9941	3
72.9280	7
73.0811	1
73.9338	30
74.9531	41
75.3310	2
75.4723	3
75.5764	1
75.6390	0
75.9580	31
76.0966	3
76.1932	2
76.2750	1
76.4570	1
76.9502	274
77.1914	1
77.9532	49
78.5658	0
78.9648	237
79.9477	15
80.9653	226
81.3076	2
81.9209	10
82.9619	252
83.2814	0
83.4012	0
83.8156	2
83.9557	9
84.5437	3
84.9582	105
85.9348	21
86.8968	16
87.7841	2
87.9403	24
88.0421	4
88.6101	2
88.9399	53
89.2656	2
89.5677	2
89.9321	15
90.1453	3
90.3980	1
90.5731	2
90.9589	379
91.6256	1
91.9677	35
92.1751	2
92.9641	183
93.6993	1
93.9784	17
94.1936	1
94.6007	2
94.9639	371
95.3336	3
95.5281	1
95.7028	0
95.9905	23
96.4809	2
96.6897	5
96.9730	160
97.2997	1
97.9589	9
98.8186	6
98.9550	16
99.2435	0
99.8499	3
99.9594	10
100.0822	2
100.6002	2
100.9572	15
101.0897	4
101.2923	0
101.4779	3
101.6814	3
101.9658	43
102.3199	3
102.5312	1
102.9688	108
103.2495	5
103.4942	2
103.9693	38
104.3947	3
104.6590	1
104.9838	379
105.3668	2
105.9742	41
106.3139	1
106.6212	2
106.9760	160
107.2039	3
107.3150	0
107.4734	7
107.6351	1
107.7488	0
107.9982	32
108.9954	132
109.3580	0
109.9787	14
110.9765	23
111.9838	6
112.4234	3
112.7360	2
112.8467	9
112.9895	23
113.2354	3
113.3546	1
113.5774	3
113.6754	2
113.9518	14
114.3845	6
114.5865	2
114.9589	270
115.2289	5
115.3271	1
115.9528	76
116.1927	3
116.4095	2
116.5351	3
116.6762	2
116.9682	146
117.2754	1
117.4899	3
117.9678	36
118.1489	2
118.4870	1
118.6202	1
118.9735	325
119.4331	5
119.9729	28
120.2827	3
120.3576	1
120.4735	1
120.9686	318
121.5645	1
121.9703	48
122.2158	2
122.9546	111
123.6392	2
123.8989	10
124.9442	999
125.3244	2
125.6491	5
125.9608	23
126.3015	1
126.5379	4
126.9439	132
127.2503	4
127.3607	1
127.5034	6
127.9396	262
128.2081	4
128.3787	2
128.9517	277
129.3334	4
129.9494	89
130.4048	3
130.5599	3
130.9576	157
131.3838	1
131.4816	1
131.9459	41
132.2112	1
132.3343	2
132.4322	2
132.9646	199
133.2150	3
133.4383	1
133.5370	4
133.6351	2
133.7544	2
133.9646	29
134.1530	3
134.5371	2
134.9507	137
135.2907	3
135.3531	1
135.4846	5
135.7797	6
135.9738	50
136.1712	3
136.9469	80
137.1539	4
137.5600	3
137.8972	11
138.0412	3
138.9323	87
139.2180	2
139.5799	0
139.9313	35
140.0703	11
140.2434	4
140.5154	8
140.9461	252
141.2558	4
141.4352	1
141.4994	0
141.9580	193
142.2701	4
142.9624	221
143.3305	1
143.4908	3
143.9785	46
144.3826	4
144.9488	336
145.2222	2
145.4178	0
145.5596	1
145.9402	33
146.2872	1
146.5059	0
146.9434	106
147.3932	2
147.7435	3
147.9652	25
148.3096	3
148.4424	3
148.9603	80
149.1843	2
149.3814	2
149.9457	37
150.1267	4
150.5522	3
150.9739	53
151.2950	6
151.9504	183
152.2502	5
152.4363	7
152.9522	197
153.2767	2
153.4332	3
153.6812	5
153.9685	78
154.2031	1
154.4004	3
154.4689	2
154.9641	216
155.3170	2
155.5193	4
155.9742	103
156.2690	2
156.5190	7
156.9900	216
157.2238	5
157.3476	4
157.6053	0
157.9897	48
158.2176	5
158.4647	3
158.9977	103
159.2382	3
159.4568	1
159.6244	2
159.7873	4
159.9945	23
160.2405	0
160.4233	0
160.9852	89
161.2192	3
161.4492	3
161.7652	6
161.9946	10
162.1824	4
162.5041	4
163.0096	206
163.4874	7
163.7287	12
164.0029	36
164.3470	6
164.9814	337
165.4133	4
165.9797	114
166.4559	4
167.0022	216
167.6043	2
168.0132	88
168.3495	4
168.5307	3
168.6117	2
169.0175	195
170.0081	66
170.2191	3
170.3463	2
170.5924	3
171.0208	94
171.2739	4
171.4975	2
171.6964	2
172.0188	44
172.2288	3
172.3167	1
172.5212	5
172.6585	3
173.0169	103
173.3390	7
173.4283	3
173.5725	1
173.9944	20
174.3202	1
174.5188	5
175.0022	63
175.4052	6
175.9997	54
176.2392	6
176.3728	4
176.5242	4
176.6564	2
176.9911	75
177.2748	5
177.5077	1
177.9907	205
178.3553	6
178.4436	3
179.0028	274
179.9956	138
180.3041	2
181.0181	675
181.3461	4
181.5368	7
182.0143	78
182.4076	5
182.5887	4
183.0029	137
183.3224	5
183.6642	3
183.9936	28
184.3701	4
184.4933	1
185.0091	61
185.5196	3
185.6082	2
186.0080	33
186.5354	8
186.6429	2
186.9798	45
187.9641	32
188.2826	6
188.5289	0
188.9774	127
189.2537	2
189.4322	4
189.6072	5
189.9885	62
190.4791	5
190.9878	167
191.2882	3
191.9947	129
192.2354	4
192.5046	2
192.9959	245
193.5131	6
194.0026	115
194.2791	4
194.4017	3
194.6065	4
195.0183	195
196.0039	126
196.6204	4
196.9922	176
197.3306	4
197.4492	4
197.5706	3
197.6900	3
197.9999	34
198.4139	0
198.6122	2
198.9935	49
199.3651	4
199.4845	5
199.9779	33
200.2301	5
200.5160	8
200.9607	90
201.1991	4
201.3474	6
201.4991	6
201.9713	122
202.2638	3
202.4289	3
202.9734	154
203.3907	1
203.5356	4
203.9817	54
204.3088	6
204.4090	3
204.5638	5
204.9856	151
205.3675	6
205.5210	3
206.0013	121
206.2894	4
206.4030	2
207.0062	192
207.2686	6
207.4160	1
208.0040	70
208.2476	5
208.3950	3
208.5600	3
209.0150	138
209.3640	4
209.5284	4
210.0082	52
210.3490	1
210.4712	1
211.0251	80
211.2943	1
211.3970	2
211.5629	6
211.7936	5
212.0636	21
212.3597	5
212.4610	3
212.6369	2
213.0098	52
213.4370	7
213.9965	22
214.1894	4
214.3457	5
214.4746	5
214.9908	165
215.5064	7
216.0173	82
216.3746	3
216.6128	2
217.0062	131
217.3509	5
217.5216	3
217.7367	10
218.0301	69
218.4964	10
218.6396	2
219.0185	224
219.4370	9
219.6460	4
220.0307	67
220.4268	1
220.6097	3
221.0236	138
221.3817	6
221.6756	1
222.0268	38
222.4734	2
222.6770	2
223.0467	107
223.2935	4
223.6414	5
224.0268	31
224.5694	1
224.7462	3
225.0137	35
225.3505	4
225.6209	3
226.0123	57
226.4767	7
227.0305	54
227.4916	2
228.0300	60
228.2695	10
228.4942	7
229.0335	107
229.4588	3
229.5524	1
230.0452	70
230.3204	3
230.5211	1
230.6523	3
231.0496	134
231.5462	3
232.0550	79
232.3460	8
232.4362	5
232.6548	4
233.0716	148
233.3506	4
233.6255	6
234.0750	291
234.3954	5
234.5845	2
235.0747	100
235.4786	4
236.0477	35
236.5595	4
236.6821	2
237.0813	73
237.3734	5
237.4947	2
238.0394	13
238.3629	3
238.5999	13
239.0384	69
239.4216	5
239.9767	28
240.3494	3
240.4459	2
241.0537	54
241.2888	6
241.4422	3
241.6248	4
242.0332	51
242.4219	7
242.5874	4
243.0586	87
243.3294	2
243.6286	7
244.0459	57
244.3382	5
244.5799	3
245.0457	135
245.4448	5
245.6091	2
246.0630	64
246.4486	2
247.0536	130
247.4892	8
247.5974	5
247.7056	1
248.0658	47
248.3592	6
248.4496	2
249.0692	90
249.4382	2
249.5707	5
249.6961	3
250.0530	45
250.1841	15
250.4314	2
250.5590	4
250.6929	4
251.0678	49
251.3309	5
251.4841	4
251.6909	7
252.0352	37
252.3575	4
252.9930	56
253.4380	9
253.6228	5
254.0338	23
254.2164	10
254.4348	4
254.5803	4
255.0257	65
255.4497	3
255.6217	3
256.0415	47
256.5320	2
257.0548	64
257.4462	2
257.5669	3
258.0541	34
258.5257	4
259.0653	100
259.3519	3
259.5427	6
260.0760	46
260.2490	12
260.4814	8
261.0663	103
261.5948	6
262.0639	33
262.4280	6
262.6090	6
263.0562	54
263.4268	5
263.7052	6
264.0501	32
264.4309	6
264.5068	3
264.6722	7
265.0473	56
265.4511	4
266.0197	25
266.3262	5
266.5834	2
267.0447	49
267.6787	14
268.0578	31
268.5960	5
269.0483	61
269.5121	4
270.0706	36
270.6207	2
270.7254	5
271.0840	64
271.5681	2
272.0653	26
272.3731	6
272.6688	4
273.0728	78
273.3563	3
273.5171	3
273.8099	9
274.0971	39
274.2988	7
274.6298	4
275.1123	99
275.5805	8
276.0445	30
276.1846	18
276.5718	27
276.7097	8
277.0704	61
277.5058	2
277.7473	8
278.0527	15
278.2065	8
278.6593	3
279.0554	29
279.3879	3
279.5694	3
280.0020	28
280.1519	14
280.3492	6
280.5028	4
280.6829	5
281.0532	33
281.3224	4
281.6834	3
282.0430	28
282.3029	1
282.4766	3
282.6080	2
283.0783	46
283.4840	5
283.6995	1
283.9336	15
284.0909	20
284.2870	3
284.4781	3
284.6548	3
285.0643	68
285.2338	24
285.4709	2
285.6506	3
285.8280	3
286.0846	35
286.4102	5
286.5388	3
286.6595	6
287.0707	74
287.3575	4
287.6213	3
288.0894	35
288.3576	1
288.4856	0
288.6639	8
289.0954	71
289.5054	2
289.7535	12
290.0801	23
290.3341	5
290.6924	5
291.0536	27
291.3443	3
291.5846	2
292.0668	16
292.5009	7
293.0638	31
293.4461	1
293.6866	3
293.9897	10
294.1762	12
294.8042	8
295.0685	26
295.2465	13
295.4741	2
295.5836	3
295.8336	7
296.0891	22
296.2935	5
296.5087	6
296.5864	3
297.0651	48
297.5482	2
298.1328	20
298.3661	5
298.5786	3
299.0791	38
299.3268	4
299.7093	1
300.0738	14
300.2179	7
300.7344	9
301.1048	62
301.3512	7
301.4276	3
301.5840	2
301.7303	5
302.0928	27
302.4971	0
303.0969	205
303.6476	7
303.7760	3
303.9310	4
304.1149	13
304.3060	2
304.6398	4
304.7560	3
305.0235	23
305.1714	20
305.6856	3
305.8559	13
306.0557	17
306.1848	9
306.6299	3
307.0506	26
307.3046	8
307.4677	2
307.5694	2
307.6870	5
307.8292	7
308.0789	19
308.3553	3
309.0396	42
309.2237	7
309.4236	1
309.7362	3
309.9218	5
310.1398	15
310.5514	1
310.7312	2
311.0605	24
311.2216	11
312.0724	16
312.2761	3
312.3765	3
312.5087	3
313.0585	29
313.6596	2
314.0564	19
314.2045	7
314.4625	3
314.5962	4
314.7805	4
315.0776	35
315.4766	6
315.6414	5
316.0115	16
316.4200	5
316.5400	3
316.6904	5
317.0802	85
317.4114	8
317.7014	5
318.1165	36
318.4912	3
318.6286	3
318.8376	9
319.0916	34
319.5285	2
319.7571	3
320.0415	11
320.3910	3
320.6334	1
320.9923	12
321.1436	10
321.3166	6
321.8818	7
322.0997	7
322.6788	1
322.8779	13
323.1451	27
323.4600	3
323.8633	6
324.0755	12
324.4441	3
324.7251	0
324.8453	3
325.1256	20
325.5052	1
326.0572	10
326.3549	4
326.5954	2
326.8063	5
327.1193	25
327.8251	4
328.1019	29
328.3077	7
328.5817	1
328.7650	8
329.0912	21
329.4696	2
329.7762	3
330.0561	10
331.0821	20
331.5570	3
331.6927	3
331.8159	1
332.0930	12
332.6768	4
333.1346	23
333.5749	3
333.6823	3
334.0196	13
334.1901	4
334.5761	3
335.1175	27
335.3228	7
335.4433	4
335.5943	0
335.7206	2
335.9455	7
336.1763	10
336.3237	4
336.6750	3
337.1185	15
337.4721	3
337.6841	3
337.9055	7
338.1117	11
338.6323	3
339.1544	17
339.3229	7
339.4951	3
340.1117	11
340.4182	3
340.6201	3
340.9261	8
341.1407	16
341.6490	5
342.0987	13
342.3358	2
342.5324	3
343.0502	19
343.2954	1
343.4492	2
343.7923	1
344.1014	8
344.4213	3
344.6970	3
345.0707	8
345.2746	5
345.8442	6
346.1447	4
346.3610	3
346.6839	1
346.9518	8
347.1927	11
347.3495	7
347.6196	7
348.0152	17
348.1648	5
348.2657	5
348.5655	2
348.6766	2
349.0825	16
349.2560	6
349.4702	9
349.8471	5
350.0076	8
350.1667	7
350.5930	1
351.1145	17
351.4835	2
351.8198	3
352.0552	8
352.2157	6
352.5041	3
352.6538	3
353.0018	21
353.1725	14
353.4051	2
353.5751	1
353.7531	2
354.0670	12
354.4828	3
354.5699	4
355.0816	22
355.2859	10
355.8187	3
356.0818	16
356.2359	6
356.4591	2
356.7135	2
357.0974	26
357.2530	16
357.5584	4
357.8921	3
358.0317	3
358.1917	11
358.3270	2
358.4899	4
359.0579	13
359.2026	6
359.5226	1
359.8274	1
359.9939	5
360.1961	2
360.4820	3
360.8217	3
361.0989	13
361.4802	2
361.7588	2
362.1874	9
362.5672	3
362.7237	1
363.1028	27
363.2360	20
363.4412	3
363.9616	2
364.1334	6
364.3379	4
364.4587	3
364.7899	3
364.9755	10
365.1539	11
365.2704	9
365.4713	3
365.5994	2
365.7523	2
366.2000	7
366.6726	3
367.0840	15
367.5995	4
367.7751	2
368.0147	7
368.1137	3
368.2769	5
368.6896	0
369.1208	19
369.3158	2
369.4191	1
369.7245	1
369.8918	1
370.0701	8
370.2083	3
370.3458	3
370.9459	7
371.2209	19
371.5418	3
371.6888	3
371.8401	3
372.1224	21
372.3778	5
372.6638	5
372.7613	2
373.1033	19
373.2765	5
373.5021	3
373.5989	3
373.8820	4
374.0284	5
374.2700	8
374.3857	4
374.9848	6
375.2017	11
375.3852	5
375.9042	3
376.2100	3
376.3410	3
376.4998	2
376.6534	3
377.1434	17
377.4966	6
377.7471	4
378.0821	13
378.2707	4
378.6195	3
378.7113	2
378.8672	4
379.1338	12
379.8286	2
380.0056	4
380.1397	2
380.2431	5
380.3779	3
380.7217	3
381.0510	12
381.2274	10
381.3337	5
381.7716	1
381.9552	2
382.0827	7
382.1855	7
382.2984	7
382.4718	4
382.6773	4
382.8763	7
383.0235	8
383.1364	5
383.3046	3
383.9240	3
384.1147	4
384.3862	5
384.5696	1
384.9482	4
385.2029	9
385.3704	4
385.5859	2
385.9514	4
386.0526	3
386.1537	3
386.7879	2
387.0624	7
387.2299	4
387.5438	3
387.9414	3
388.1846	14
388.5385	3
388.7986	2
389.0841	16
389.2501	11
389.3499	3
389.9458	1
390.1432	2
390.3981	2
390.8192	6
390.9161	5
391.1514	10
391.3416	3
391.6272	4
392.0294	3
392.5555	2
393.0612	10
393.2521	10
393.8490	4
394.1092	5
394.2418	1
394.3868	4
395.1587	10
395.3570	3
395.6333	3
395.7623	3
395.9285	5
396.0998	7
396.2135	3
396.3550	3
396.7035	0
397.0556	10
397.2072	11
397.3071	4
397.8620	4
398.1632	5
398.4067	3
398.5292	3
398.7144	6
399.0908	13
399.2527	10
399.3868	6
399.5699	2
400.1534	33
400.3591	9
400.4597	3
400.6457	0
401.0294	9
401.1921	7
401.3518	1
401.7020	7
401.8420	3
402.0544	3
402.1857	3
402.7752	3
402.9685	3
403.2108	8
403.4150	5
403.9959	5
404.3892	6
404.8614	3
405.1080	11
405.3795	3
405.9839	2
406.2408	7
406.5174	3
407.0357	6
407.2240	17
407.8832	3
408.0431	3
408.2599	4
408.4067	1
408.7294	5
409.0609	11
409.2624	7
410.0795	3
410.2416	2
410.3862	1
410.5038	2
410.6206	3
411.0500	10
411.2509	6
411.5276	3
412.2164	3
413.0206	10
413.1156	9
413.2726	9
413.3771	5
413.5407	4
413.8914	3
414.0258	6
414.1237	2
414.2194	3
414.9997	6
415.2795	8
415.8261	7
416.0592	3
416.2198	9
416.2985	3
416.4517	2
416.6041	2
416.8659	3
417.0088	7
417.2174	17
417.4880	3
417.6273	7
417.8694	4
418.1422	8
418.7615	4
419.0518	4
419.2598	7
419.4925	3
420.1293	3
420.4131	5
420.7137	3
421.0829	7
421.2975	6
421.4237	6
422.0899	1
422.1986	3
423.0495	8
424.0297	1
424.1640	5
424.3515	4
424.5508	3
424.7019	2
424.8369	3
424.9552	2
425.0683	3
425.2180	5
425.9903	2
426.1385	3
426.3531	1
426.5721	3
426.6524	1
426.9561	3
427.1394	6
427.3365	4
427.7936	3
427.9718	3
428.1295	3
428.3573	4
429.1408	6
429.2876	6
429.4950	3
429.6323	3
430.1465	2
430.7205	3
430.9038	2
431.1777	12
431.4020	4
431.5079	3
431.7241	3
432.1588	5
432.2939	4
432.4188	3
433.2786	12
433.3648	5
434.1268	1
434.2421	4
434.4851	3
434.7486	2
435.1471	7
435.4500	0
435.9573	2
436.1450	5
436.2603	4
436.4902	3
437.1677	10
437.3685	3
437.6181	3
437.9722	4
438.2321	3
438.5615	0
438.8842	2
439.0799	2
439.2770	4
439.9985	1
440.1832	2
440.4476	3
440.8164	0
441.2101	8
441.6183	2
441.7359	4
441.8754	4
442.1559	5
442.3297	3
443.2253	9
443.5240	5
443.6482	4
443.8060	3
444.2392	5
444.4839	3
444.5986	2
444.7411	5
445.0998	6
445.2299	8
445.3884	7
445.5674	2
445.7742	3
446.1096	3
446.5195	3
446.7891	3
447.0251	3
447.2078	3
447.7756	3
448.0446	4
448.3318	2
448.4524	1
449.0992	6
449.2819	3
449.5538	4
449.7804	2
449.9471	3
450.1429	8
450.2760	5
450.8878	10
451.1013	6
451.2892	10
451.3769	3
452.1459	2
453.1578	9
453.3750	7
453.5519	2
453.6484	3
453.8715	6
454.0506	4
454.2919	3
454.4901	2
454.8857	3
455.1841	3
455.3157	3
455.8700	2
456.0543	3
456.1889	3
456.7345	4
456.9722	4
457.1419	5
457.3350	5
457.4432	3
457.5361	3
457.9106	5
458.0650	5
458.3027	4
458.6648	3
459.1235	26
459.2756	19
459.4834	3
459.7724	3
460.0387	11
460.2084	11
460.9415	5
461.1193	13
461.3578	7
461.4720	3
461.6322	3
461.7310	3
461.8349	1
462.1035	4
462.3296	3
462.6764	2
463.0584	9
463.2457	2
463.3694	2
463.5304	3
463.6761	4
464.1283	5
464.8719	0
465.2203	12
465.5482	3
465.6236	2
465.7137	1
465.9333	3
466.0906	5
466.4266	4
466.6133	4
466.7143	5
466.7926	1
467.3365	7
467.4713	5
467.6411	3
468.0020	5
468.2414	6
468.4823	2
468.7686	3
468.9779	3
469.0753	2
469.2313	6
469.3550	3
469.9726	6
470.2181	9
470.3767	5
470.5244	3
471.0271	1
471.1580	5
471.3114	2
471.4905	6
471.6118	4
472.2579	5
473.1431	8
473.2491	7
473.7578	1
473.8806	2
474.1270	3
474.2914	8
474.3748	3
474.7863	0
474.9618	3
475.2060	8
475.5503	3
475.7704	2
475.8734	2
475.9963	3
476.1995	9
476.3999	7
476.6236	4
476.8298	3
477.2744	12
477.3687	5
477.6231	1
477.8578	4
478.1123	6
478.2805	9
478.6213	4
478.7566	2
479.0483	3
479.2633	5
479.3877	1
479.9932	3
480.1746	11
480.4664	6
481.1707	6
481.5562	3
481.6945	3
481.8978	1
482.3886	0
482.6198	5
482.9189	3
483.2628	8
483.5583	7
483.8480	5
483.9973	2
484.1180	5
484.3719	8
484.6008	4
484.8386	4
484.9718	5
485.1064	7
485.2922	6
485.4554	2
485.6142	3
485.8644	3
486.1081	11
486.3203	5
486.5558	3
486.7249	3
487.1164	3
487.3542	2
487.5393	5
487.8167	4
487.9140	4
488.0179	2
488.2990	7
488.8537	7
489.0623	10
489.3374	7
489.4904	4
489.7180	2
490.0928	4
490.4236	6
490.7018	2
490.9660	4
491.2595	18
491.4279	15
491.6533	5
491.9637	2
492.2031	7
492.5632	3
492.7155	3
492.9439	2
493.1035	9
493.3143	8
493.4747	5
493.7895	4
494.0003	4
494.2690	8
494.5531	4
494.8533	1
495.1806	13
495.4647	10
495.6053	4
495.7583	3
495.9684	2
496.0775	4
496.1757	5
496.2760	4
496.6121	4
496.7688	4
496.9387	6
497.1437	6
497.6520	8
497.8812	5
498.0413	4
498.2358	8
498.3403	4
498.5078	5
498.6942	14
498.8419	11
499.1688	8
499.4006	3
499.5652	6
499.6814	4
499.9988	6
500.1480	3
500.3944	6
500.7235	8
500.9788	8
501.2011	9
501.5441	11
501.8323	5
502.1095	13
502.2682	11
502.4349	3
502.6207	6
502.8658	7
503.1671	9
503.4670	3
503.7186	9
503.8869	3
504.1283	8
504.3053	11
504.4969	5
504.6345	3
504.7720	3
504.9512	5
505.1780	10
505.4823	11
505.8423	8
506.0413	10
506.2769	5
506.4758	3
506.6975	2
506.8541	4
507.2514	14
507.4504	6
507.8075	5
508.1777	7
508.3643	9
508.6489	6
508.8553	3
509.0960	6
509.4180	9
509.6441	1
509.8190	5
510.0451	6
510.3122	7
510.9482	6
511.2878	9
511.4810	6
511.5798	3
511.7496	4
511.9026	5
512.0833	6
512.3300	9
512.5825	1
512.6945	5
512.8804	4
512.9748	3
513.1154	8
513.5018	2
513.6241	3
513.8986	1
514.0735	6
514.3312	11
514.6057	11
514.8736	15
515.6342	31
516.6094	63
517.0794	52
517.7003	44
517.9954	37
518.4800	25
518.7283	21
519.2137	44
519.5843	19
519.8926	17
520.3693	30
521.4656	36
522.0222	32
522.6345	38
523.1845	33
523.4899	28
523.7493	18
523.9456	16
524.1331	19
524.4597	19
524.8179	15
525.3155	15
525.7584	7
525.9785	7
526.2847	8
526.6093	10
526.8381	9
526.9938	8
527.2043	16
527.3359	8
527.5142	15
527.6772	7
527.8717	4
528.1085	10
528.2928	8
528.4675	7
528.6525	16
528.8155	9
528.9280	6
529.2234	9
529.4245	6
529.5583	7
529.7410	6
529.9698	16
530.4875	9
530.7375	9
531.0893	13
531.2435	9
531.4059	9
531.5463	9
531.7744	4
532.0500	10
532.3352	15
532.4566	6
532.7828	8
533.2486	24
533.5264	17
534.3718	27
534.7689	17
535.2458	29
535.4901	14
535.8243	17
536.2383	20
536.5828	17
537.2484	136
537.6544	19
538.2446	20
538.7640	19
539.4399	25
539.8050	24
540.0859	20
540.4422	13
540.7722	13
541.2945	18
541.8352	15
542.0591	9
542.4095	10
542.7110	10
542.8295	4
542.9356	9
543.1339	9
543.5554	6
543.6929	3
543.9139	7
544.0991	4
544.2066	4
544.3207	5
544.5322	3
544.7159	3
544.8462	6
545.0891	3
545.1769	1
545.3182	2
545.5311	2
545.7228	3
545.8729	0
546.0251	6
546.2242	4
546.3976	2
546.5338	1
546.7665	4
546.8843	2
547.2692	3
547.7794	2
547.9777	4
548.0604	3
548.4396	6
548.5508	1
548.8289	4
549.0873	5
549.2322	2
549.3545	2
549.5521	1
549.8017	3
549.9159	5
550.1970	6
550.4590	6
550.5659	7
551.2657	75
551.6808	22
552.2863	358
553.2680	99
553.4584	51
553.6926	9
553.9592	5
554.2088	10
554.4834	8
554.7513	4
554.8597	7
555.0779	9
555.4155	3
555.6212	7
556.1118	2
556.2509	3
556.5973	3
556.7386	4
557.1392	2
557.2615	3
557.5859	3
558.4449	2
558.6924	2
559.1106	3
559.5873	2
559.8217	2
560.4069	5
561.1694	6
561.3569	3
561.7209	3
561.9003	2
562.0095	2
562.1340	3
562.3296	1
564.7711	1
565.0349	0
565.3689	3
566.1499	5
566.2642	1
566.4437	6
566.5770	2
566.7111	3
566.8584	2
567.0210	7
567.2196	6
567.4321	12
567.6665	6
568.3069	30
568.4688	11
568.6263	5
569.2829	66
569.6801	11
569.7563	4
569.9578	6
570.2111	21
570.4824	21
570.7339	4
571.0608	3
571.2165	3
572.0999	5
572.2731	5
572.4640	4
572.6168	1
572.8932	1
573.2443	2
573.5272	1
573.9294	4
574.6257	6
574.8143	2
575.2181	6
575.3943	3
575.4982	3
575.7073	3
576.0811	4
576.3348	1
576.4562	4
577.3866	3
577.5263	2
577.7077	3
577.8028	3
577.9959	2
578.1217	5
578.2578	3
578.5175	5
578.9109	3
579.2811	12
579.5327	9
579.7215	2
579.9007	4
580.0016	6
580.3491	6
580.5349	3
580.7829	2
581.0719	4
581.2745	4
581.3901	4
581.5313	7
581.8415	6
582.1158	9
582.3485	14
582.5797	4
582.8994	0
583.0092	2
583.1730	10
583.4247	8
583.6091	3
583.9040	1
584.0327	3
584.2493	10
584.4564	8
584.7330	4
584.9407	4
585.1544	3
585.5993	5
586.3479	0
586.4716	1
586.6062	0
586.9142	5
587.1960	3
587.3387	1
587.6028	8
587.7463	7
587.9614	4
588.3259	6
588.5747	6
588.7818	5
589.0109	5
589.2773	5
589.5342	7
589.7530	5
589.9367	5
590.1584	12
590.2792	11
590.3853	4
590.5200	3
590.8750	12
591.0477	7
591.2409	2
591.3529	7
591.4803	6
591.6772	9
591.8777	6
592.2466	16
592.6821	14
593.0635	13
593.4163	27
593.8065	20
594.3730	106
594.7719	20
594.9971	18
595.3743	26
595.6669	12
596.3132	15
597.3041	111
597.8533	13
598.1978	16
598.4932	8
598.7067	9
599.0015	14
599.3986	14
599.8301	16
599.9683	3
600.1058	7
600.3727	12
600.5358	14
600.6880	8
600.8291	3
600.9418	7
601.0946	13
601.4618	9
601.9950	10
602.5275	8
602.8120	14
603.1360	11
603.3167	12
603.5369	10
603.8149	11
604.4374	17
604.8946	17
605.0490	15
605.5479	27
606.3386	24
606.7095	25
612.3157	999
613.1023	557
613.7185	275
614.4547	121
615.3461	57
615.9257	31
616.2880	29
616.5917	19
616.8274	12
617.3807	16
617.5916	6
617.8367	16
618.1398	8
618.3469	6
618.6554	7
618.9229	7
619.0458	3
619.2585	8
619.4340	7
619.5875	7
619.7439	12
619.9238	2
620.1526	4
620.5123	7
620.7967	5
621.0262	3
621.2910	2
621.7004	2
622.2012	3
622.3474	0
