Mass spectrum: beta-Cryptoxathin-5,8-epoxide; FAB-EBEB; MS2; m/z: 568.43; [M]+*
Name: beta-Cryptoxathin-5,8-epoxide
Formula: C40H56O2
Exact mass: 568.42803
SMILES: C(O3)(C=C(C23C)C(CC(C2)O)(C)C)C(C)=CC=CC(=CC=CC=C(C)C=CC=C(C=CC(=C(C)1)C(C)(C)CCC1)C)C
InChI: InChI=1S/C40H56O2/c1-29(18-13-19-31(3)23-24-35-32(4)22-15-25-38(35,6)7)16-11-12-17-30(2)20-14-21-33(5)36-26-37-39(8,9)27-34(41)28-40(37,10)42-36/h11-14,16-21,23-24,26,34,36,41H,15,22,25,27-28H2,1-10H3/b12-11+,18-13+,20-14+,24-23+,29-16+,30-17+,31-19+,33-21+/t34-,36?,40+/m0/s1
Instrument: JMS-HX/HX 110A, JEOL
Instrument type: FAB-EBEB
Ms type: MS2
Ion mode: POSITIVE
Collision energy: 3 kV
Ionization: FAB
Base peak: 488.4774
Precursor m/z: 568.43
Precursor type: [M]+*
m/z	relative intensity
13.0039	0
14.0307	1
15.0081	2
19.0392	0
22.9928	1
25.0223	1
26.0252	5
27.0364	38
28.0397	6
29.0490	40
30.0288	1
31.0268	3
34.7109	0
36.0240	0
36.5091	0
37.0155	3
37.2403	0
37.5819	0
38.0343	9
38.3895	0
39.0406	101
39.4944	0
40.0482	14
41.0561	224
42.0531	8
43.0461	305
43.7793	0
44.0611	5
44.5175	0
45.0449	5
45.3185	0
46.0926	0
46.9651	0
47.9943	0
48.2962	0
49.0456	2
49.4001	0
50.0273	26
51.0414	67
52.0524	30
53.0568	123
54.0541	5
55.0715	324
55.7185	1
56.0874	9
57.0877	171
57.4924	0
58.0825	3
58.3758	0
59.0727	27
60.0616	1
61.0478	4
62.0374	14
62.6684	1
63.0546	54
64.0429	14
64.4502	1
65.0625	96
66.0779	27
67.0733	176
68.0785	14
69.0874	459
69.6791	0
70.0915	9
70.4864	1
71.0737	25
72.0799	1
72.5361	0
73.0248	2
74.0449	14
74.4856	0
75.0524	22
75.6721	2
76.0644	13
77.0585	312
77.5368	3
78.0642	71
79.0755	323
80.0722	44
81.0868	358
82.0816	13
82.5920	2
83.0905	114
83.6061	1
84.0971	3
85.0873	86
86.0470	9
87.0447	14
88.0347	6
89.0717	37
89.3736	4
90.0768	17
91.0906	699
91.7116	2
92.0977	85
93.1059	484
94.1082	38
94.5283	3
95.1146	463
96.0986	27
96.5582	0
97.1080	42
97.7365	1
98.0699	8
98.4479	0
99.0677	5
99.3615	1
100.1041	3
101.0980	11
101.4218	2
102.0872	35
103.0941	123
104.1054	74
105.1107	931
106.1165	110
107.1217	420
107.6191	2
108.1129	45
109.1218	216
110.1324	16
110.7041	1
111.1180	27
112.0119	4
112.5547	1
113.1140	13
114.0869	16
115.0828	339
116.0922	132
117.0950	359
118.0994	83
119.1052	876
120.1043	107
121.1117	377
122.0947	66
123.1034	195
124.0850	21
125.0747	277
126.0602	24
127.0837	117
128.0772	402
129.0815	471
130.0856	185
131.0937	513
132.1058	130
133.1067	480
134.1074	51
134.5773	3
135.0956	204
136.0923	103
137.1094	126
137.6943	1
138.0656	13
139.0738	60
140.1136	24
141.0839	327
142.0870	309
143.0954	565
144.0964	174
145.1096	634
146.1029	81
147.1111	287
148.1035	32
149.1234	126
150.1052	30
151.1004	280
152.1049	160
153.1005	187
154.1069	93
155.1169	382
156.1208	238
157.1367	560
158.1438	119
159.1488	359
160.1533	56
161.1529	168
161.6001	3
162.1506	55
163.1461	131
164.1397	34
165.1326	473
166.1291	110
167.1419	254
168.1440	115
169.1550	362
170.1612	150
171.1624	315
172.1586	71
173.1641	191
174.1646	44
175.1757	171
176.1235	37
177.1716	93
178.1264	171
179.1330	264
180.1461	276
181.1455	587
182.1428	125
183.1506	343
184.1548	80
185.1625	208
186.1550	64
187.1496	118
188.1505	37
189.1463	145
190.1197	57
191.1295	125
192.1155	98
193.1351	288
193.6839	10
194.1380	122
195.1385	293
196.1497	98
197.1543	265
198.1537	64
199.1535	124
200.1597	37
201.1592	90
202.1144	60
203.1351	134
204.1318	38
205.1376	109
206.1454	79
207.1420	193
208.1595	97
209.1586	204
210.1611	48
211.1669	128
212.1877	44
213.1945	76
214.1626	17
215.1543	94
215.5363	4
216.1726	37
217.1622	76
218.1771	33
218.6512	5
219.1793	127
220.1790	52
221.1966	368
222.1957	56
223.1952	120
224.2141	35
225.2057	72
226.1788	32
227.2076	51
228.1844	29
229.1908	72
230.1967	35
231.1987	71
232.1952	50
233.1993	109
234.2024	83
235.2030	106
236.1995	35
237.2169	87
238.2259	24
239.2118	75
240.2010	23
241.2183	52
242.2273	20
243.2219	53
244.1993	23
245.2078	57
246.2166	30
247.2302	112
248.2251	25
249.2158	69
250.2348	26
250.5990	2
251.2586	72
252.2459	34
253.2438	58
254.2215	20
255.2297	42
256.2309	22
257.2221	48
258.2121	19
258.6623	3
259.2436	50
260.2180	23
261.2399	41
262.1456	13
263.2623	42
264.2556	24
265.2521	47
266.2769	23
267.2665	44
268.2550	22
269.2585	37
270.2416	13
271.2545	45
272.2588	24
272.6584	4
273.2689	39
274.2734	24
275.2605	26
276.2759	13
277.2074	27
278.2691	17
279.2912	31
280.2855	10
281.2741	29
281.7840	2
282.2851	18
283.2491	30
283.7962	20
284.2961	33
285.2961	44
286.2918	46
287.2997	60
288.2663	11
289.2701	23
290.2785	9
290.6866	2
291.3108	19
292.2545	10
292.7724	2
293.2636	21
293.6780	3
294.2922	9
295.2677	21
296.3056	18
297.2563	34
298.2992	22
299.2726	99
300.2980	14
301.2852	22
302.2548	9
303.2809	21
304.3177	18
305.2834	18
306.2924	9
307.2719	12
308.2842	6
309.2805	19
310.2724	12
311.2795	38
312.2911	34
312.7116	3
313.3015	35
313.6998	1
314.3939	5
315.2709	13
316.2655	7
317.2812	17
318.3282	10
319.3026	17
320.3084	12
321.2817	20
321.8339	2
322.2745	7
322.6615	3
323.3061	15
324.3216	9
325.2956	72
326.2906	8
327.2857	8
328.2647	5
328.6447	2
329.3287	12
330.3259	10
331.2905	10
332.3430	9
333.3267	23
334.3522	14
334.7437	2
335.2990	16
336.2743	7
337.3078	29
338.2998	6
338.5754	2
339.2800	8
340.2455	4
340.5971	2
341.2841	9
342.2380	7
343.3023	11
344.2863	8
345.3256	24
346.3666	11
347.3257	20
347.9149	2
348.3476	9
349.3115	21
350.2949	8
350.5978	4
351.3083	32
352.3233	491
353.2982	26
354.3136	3
354.6570	1
355.3500	8
356.3433	15
357.3501	23
358.3765	9
359.3711	23
360.3972	39
361.3232	12
362.2674	5
362.6200	2
363.3431	17
364.3249	11
365.3472	83
366.3531	6
367.4205	3
367.8601	2
368.1801	1
368.5045	2
369.3329	8
370.3334	5
371.3939	18
372.4022	24
373.3602	23
374.3912	7
375.3372	9
375.7422	1
376.3684	8
376.7600	2
377.3326	18
377.6465	3
378.3745	33
379.3598	12
380.2690	3
381.3099	3
382.3599	8
383.3457	9
384.2972	5
385.4313	10
386.4025	130
387.3843	51
388.4231	393
389.3273	17
390.3783	12
391.3815	35
392.3698	5
393.4317	3
393.6549	2
394.3199	2
394.7004	1
395.3206	7
395.5199	4
396.4682	4
397.4137	11
398.3383	3
398.8434	1
399.2930	7
399.5088	4
400.3647	4
401.3825	31
402.3570	5
403.3900	10
404.3842	3
405.4959	3
406.3667	3
407.3289	5
408.4093	3
408.6054	2
409.4241	9
410.4614	3
410.9329	1
411.3371	2
411.9449	1
412.3956	8
412.7998	2
413.3703	4
413.9708	1
414.4724	5
415.3456	12
416.4299	135
417.3706	15
417.9009	2
418.3473	11
418.6379	3
419.3961	30
420.4793	3
421.3647	7
422.4319	141
423.4214	7
424.3871	3
424.9186	1
425.4157	7
426.0670	2
426.4639	3
426.8532	1
427.4658	2
428.3824	4
428.5980	2
429.3934	8
429.8008	1
430.4270	9
431.3843	24
432.4211	7
433.3800	2
433.8476	1
434.3346	2
434.8381	0
435.3762	5
435.7823	1
436.4013	3
436.8555	1
437.5585	2
438.3755	3
439.1956	1
439.6888	2
440.2001	3
440.5840	4
441.0593	1
441.3652	3
441.9170	1
442.2214	1
442.6203	4
443.4542	7
443.8891	0
444.4381	6
445.4116	12
445.9921	1
446.4737	5
447.2808	4
448.4496	20
449.4819	10
450.4003	2
450.7784	2
451.5453	5
452.4969	4
452.8121	1
453.3870	2
454.4558	3
456.6990	7
458.4727	14
459.4174	11
460.3471	9
460.7850	3
461.4568	14
461.8393	2
462.4632	8
463.3407	4
464.2812	3
464.5377	1
465.0223	1
465.5338	4
466.3620	2
467.3972	6
472.9591	43
474.4782	40
475.4736	155
476.4570	93
477.6222	5
477.9825	2
478.3595	2
478.6102	2
478.8775	0
479.3836	3
479.7546	2
480.0925	1
480.5310	4
481.4562	4
482.2538	3
482.8516	2
483.3743	3
484.4122	7
485.5657	5
486.4357	13
488.4774	999
489.4782	24
489.9793	4
490.6185	3
491.1137	2
491.5369	3
491.7755	1
492.0846	1
492.5708	2
492.8365	1
493.5238	3
494.4393	4
495.4030	3
496.4972	5
497.3108	5
497.6981	1
497.9203	1
498.4247	3
498.7400	2
499.5552	3
500.1859	1
500.5057	4
501.0042	2
501.3871	1
501.5658	1
502.1304	0
502.6680	1
502.9203	2
503.2852	2
503.8769	1
504.5572	1
504.7449	0
505.0709	1
505.2856	1
505.8068	2
506.3475	1
506.6284	1
506.9379	1
507.4636	4
508.4100	6
509.4751	5
509.9998	3
510.5423	39
511.4714	5
512.0259	2
512.4755	6
512.7288	2
512.9685	1
513.4751	4
513.7254	2
514.5078	4
515.1493	1
515.4955	1
515.9047	1
516.6407	2
517.0560	2
517.2839	1
517.9869	1
518.2943	1
518.6046	1
518.7905	1
519.4247	3
520.2493	2
521.1534	2
522.4850	6
523.4957	21
524.5215	27
525.5023	7
526.4757	6
527.5616	2
527.9427	1
528.3042	2
528.7287	3
529.1997	3
529.6873	1
530.1463	1
530.5829	2
531.0735	2
531.3855	2
531.6736	1
531.9722	1
532.4463	6
532.7823	1
533.5566	3
534.1118	4
534.6129	3
535.4053	6
536.4347	5
537.4417	15
538.4863	16
539.4814	17
540.5366	4
541.2722	5
541.8185	6
542.4775	6
542.8934	4
544.6439	10
550.5496	138
551.5138	39
552.5321	68
553.5347	530
568.3804	999
571.8143	75
573.1621	25
574.1153	12
