Mass spectrum: Torularhodin; FAB-EBEB; MS2; m/z: 564.40; [M]+*
Name: Torularhodin
Formula: C40H52O2
Exact mass: 564.39673
SMILES: C(C=CC=C(C)C=CC=C(C=CC(=C(C)1)C(C)(C)CCC1)C)=C(C)C=CC=C(C=CC=C(C)C=CC=C(C)C(O)=O)C
InChI: InChI=1S/C40H52O2/c1-31(19-12-21-33(3)22-13-23-34(4)25-15-26-37(7)39(41)42)17-10-11-18-32(2)20-14-24-35(5)28-29-38-36(6)27-16-30-40(38,8)9/h10-15,17-26,28-29H,16,27,30H2,1-9H3,(H,41,42)/b11-10+,19-12+,20-14+,22-13+,25-15+,29-28+,31-17+,32-18+,33-21+,34-23+,35-24+,37-26+
Instrument: JMS-HX/HX 110A, JEOL
Instrument type: FAB-EBEB
Ms type: MS2
Ion mode: POSITIVE
Collision energy: 3 kV
Ionization: FAB
Base peak: 549.4858
Precursor m/z: 564.40
Precursor type: [M]+*
m/z	relative intensity
0.1594	1
0.7738	1
5.2221	1
9.9677	1
14.8752	1
15.0143	1
17.0389	2
22.8667	2
24.1084	1
25.7825	1
26.0086	2
27.0093	21
28.0248	4
29.0187	28
30.0316	1
30.9243	1
35.9957	1
36.9966	5
37.2009	1
37.6430	1
37.9944	12
39.0071	72
39.6441	1
40.0108	8
41.0203	175
42.0116	4
42.5311	1
43.0220	110
44.0069	1
44.9719	11
48.4151	1
49.0146	2
50.0057	23
51.0049	63
52.0020	15
53.0158	106
53.4724	1
54.0205	6
55.0294	258
56.0344	7
57.0386	37
58.0224	1
58.9656	1
60.0466	1
61.0020	4
61.9953	15
63.0043	53
63.4233	1
64.0010	12
64.3401	1
65.0231	93
65.6890	1
66.0398	24
67.0234	125
67.9903	4
69.0377	376
69.5123	1
70.0564	4
71.0315	13
72.0184	2
72.5514	3
73.0085	3
73.5800	1
73.9970	11
75.0046	22
75.4125	2
75.9908	10
76.5429	1
77.0194	290
77.6674	2
78.0278	54
79.0180	258
80.0422	26
81.0356	264
82.0142	7
82.3414	1
83.0482	62
84.0372	4
85.0414	6
86.0013	7
87.0066	14
87.3152	1
87.7690	1
88.0310	3
88.9814	27
89.4191	2
90.0311	15
91.0334	652
92.0495	56
93.0448	344
94.0498	24
94.4794	2
95.0606	261
96.0165	4
96.5633	2
97.0405	32
98.0264	15
98.5519	1
99.0233	9
100.1306	2
101.0087	12
101.3109	3
102.0546	47
103.0449	109
104.0566	48
104.3855	1
105.0531	759
105.5817	1
106.0685	55
106.4382	1
107.0655	292
108.0685	17
109.0731	100
110.0543	4
110.3724	1
111.0424	63
112.0293	4
112.4043	1
113.0312	12
113.5107	4
114.0266	13
114.3213	7
115.0328	352
116.0286	122
117.0352	342
118.0285	60
119.0381	703
120.0410	50
121.0453	200
121.5601	4
122.0618	11
122.5355	1
123.0406	60
123.9124	6
124.5388	2
124.9883	12
126.0101	15
127.0102	133
128.0075	435
129.0115	486
130.0071	165
130.4638	4
131.0190	408
132.0115	87
133.0326	297
134.0508	23
135.0033	48
135.6308	2
135.9977	10
137.0302	42
137.4265	1
138.0048	5
138.9969	63
140.0245	22
141.0104	347
142.0140	309
143.0227	537
144.0324	169
145.0321	450
145.4913	3
146.0424	47
147.0426	169
148.0049	8
148.3625	4
149.0223	23
149.9487	9
151.0279	36
152.0397	154
153.0357	218
154.0424	99
155.0471	363
156.0612	241
157.0691	481
158.0736	90
159.0874	278
159.5342	3
160.1203	33
160.4184	5
161.1006	92
162.0958	12
163.0284	34
164.0180	29
165.0676	329
166.0645	114
167.0875	262
168.0902	125
169.0845	325
170.0937	106
171.0936	260
172.1212	56
173.1042	109
174.1360	24
175.1161	80
176.0600	34
177.1265	66
178.0745	165
179.0658	264
180.0676	100
181.0842	296
182.0745	117
182.4645	7
183.0882	299
184.0583	47
185.1003	143
186.1402	27
186.3827	4
187.0892	68
188.0860	18
189.0676	95
190.0684	43
191.0755	131
192.0659	125
193.0727	258
194.0800	125
195.0793	288
196.0921	102
197.0881	213
198.1005	43
199.1092	73
200.1183	33
201.0776	44
202.0720	94
203.0783	149
204.0809	51
205.0854	152
206.0889	113
207.0915	183
208.0815	86
209.0995	218
210.1310	40
210.5081	4
211.1254	84
212.1115	13
213.1545	51
214.0750	16
214.4543	2
215.1059	117
216.1156	47
217.0880	86
218.1087	56
219.1196	114
220.1165	71
221.1327	149
222.1377	48
223.1620	90
224.1010	15
225.1421	39
225.5901	4
226.1385	25
227.1412	55
228.1179	33
229.1403	89
230.1427	46
230.5990	6
231.1601	126
232.1328	44
233.1335	111
234.1521	37
235.1579	101
235.5583	5
236.1713	25
237.1604	56
237.6165	2
238.1090	12
239.1542	63
240.1283	33
241.1712	55
242.1942	30
243.1518	79
244.1389	29
245.1512	73
246.1404	40
247.1753	91
248.1491	28
249.1671	75
250.1664	25
251.2114	44
252.1294	33
253.1707	51
254.1742	19
255.1692	55
256.1366	27
257.1909	52
258.1634	31
259.1801	70
260.1443	25
261.1998	67
262.1793	19
262.5818	3
263.2075	42
264.2405	25
265.1929	42
266.1514	21
267.1925	55
268.2222	23
269.2198	80
270.1470	30
271.1923	56
272.1700	15
273.1928	39
274.1614	12
275.1833	31
276.1774	19
277.1939	23
278.1577	15
279.2218	36
280.2199	26
281.2154	52
282.2096	32
283.2114	51
284.1870	23
285.1789	34
285.6330	3
286.2596	11
286.5294	4
287.2285	33
287.6473	1
288.1792	12
288.6979	3
289.1740	28
289.7916	7
290.2677	7
291.2453	38
292.1950	11
293.1921	28
294.2471	15
295.1650	40
296.1805	23
297.2080	42
298.1930	23
299.1708	22
300.1680	12
301.2497	15
301.5851	4
302.1867	12
303.2200	19
304.1456	13
305.2326	31
306.2562	9
306.6586	4
307.1913	25
308.1901	16
309.2010	24
309.8021	1
310.2758	16
311.2057	22
312.1654	8
313.2467	19
314.1579	12
314.6706	3
315.2559	28
316.1985	11
316.5691	3
317.2036	25
318.2801	7
319.1669	16
319.5658	2
320.2363	12
321.2213	26
321.7169	3
322.2377	15
323.1697	9
323.5289	2
324.2681	7
324.6244	1
325.2509	15
325.4454	7
326.2443	8
326.7314	5
327.2483	18
327.7592	7
328.1603	4
328.6208	3
329.2537	19
330.2418	14
331.2483	26
331.7735	2
332.2557	14
333.3092	20
334.1952	9
334.4431	4
335.2491	38
336.1843	9
337.0321	7
337.2727	7
337.6588	1
338.0939	4
339.2762	9
340.1854	15
341.2195	12
342.2032	7
343.2242	17
343.9184	1
344.3153	9
345.2579	20
346.2586	23
347.2937	12
348.2070	10
349.2587	12
350.1901	9
351.2481	11
352.2751	8
353.3126	8
354.1656	8
355.2793	13
356.2071	10
356.5988	1
357.3465	19
358.2452	8
359.2762	25
360.2314	10
361.2612	22
362.2733	8
362.5337	1
363.2661	5
363.8690	1
364.2487	4
364.5747	1
365.2820	7
366.1934	10
366.5746	2
367.3387	9
367.6768	3
368.4067	4
368.9519	4
369.2990	10
369.5255	4
370.2198	6
371.3851	12
371.8112	1
372.2951	4
373.3374	17
374.2965	23
375.1708	8
376.3491	9
376.6307	3
377.1804	3
378.2681	3
378.7956	1
379.3575	12
379.7628	2
380.3426	15
380.7122	1
381.2966	12
381.7214	1
382.2283	5
383.3226	15
384.2784	7
384.5826	2
385.2999	12
385.9442	3
386.3574	12
387.2777	24
388.2981	3
389.2903	8
390.1602	5
391.2989	8
391.6302	4
392.3033	9
392.8885	2
393.2960	4
393.4796	2
394.3455	9
395.3174	11
396.2761	4
397.3304	15
397.7919	1
398.4102	13
399.3184	17
399.6067	4
400.3506	11
401.2246	4
401.8566	2
402.2840	7
402.9295	1
403.4568	9
404.3589	3
404.5572	1
405.1537	4
405.4355	4
406.3139	25
407.3788	4
407.9889	3
408.3797	12
408.7795	4
409.3718	7
409.8148	1
410.3415	7
411.3741	17
412.3276	16
413.2812	11
414.1156	10
414.3738	12
415.2142	4
415.6008	1
415.7845	1
416.3413	4
416.9161	2
417.3700	4
417.7238	4
418.1136	4
418.5078	4
419.3575	15
419.9295	4
420.3234	4
420.7411	1
421.3260	4
421.6080	4
422.3943	15
422.7883	1
423.4001	8
424.0956	2
424.6389	1
425.3135	19
426.3987	14
427.3721	31
428.2410	9
428.9457	2
429.2638	7
429.5295	1
429.9283	1
430.5465	4
430.8093	1
431.3992	6
432.2879	1
432.6030	7
433.4918	4
434.3716	5
435.1544	4
435.5309	2
435.8716	3
436.3900	6
437.4584	10
438.3460	11
438.6838	3
439.3593	5
440.2680	12
440.7463	3
441.3846	15
442.3682	15
443.2233	17
443.8094	5
444.1712	7
444.5226	4
445.1805	12
445.4541	6
445.8294	1
446.3633	6
446.9809	6
447.4864	4
448.2941	6
449.3515	15
449.9753	4
450.4884	9
452.5455	12
453.3654	23
454.3066	17
455.2779	14
456.2620	11
457.3985	26
458.3873	72
459.0968	5
459.4777	2
460.0453	1
460.3232	3
460.5667	1
461.1971	2
461.4601	2
462.2325	4
462.5731	4
463.4158	11
463.6908	4
464.1615	4
464.5664	7
465.3794	28
466.2970	8
467.0428	3
467.4240	7
468.3058	9
469.3731	7
469.6886	7
470.1924	13
470.4749	8
470.8248	4
472.3423	591
473.4249	4
473.8167	4
474.2100	4
474.4896	4
475.0310	8
475.3899	5
475.8042	5
476.1916	2
476.5864	4
477.3492	4
478.4113	13
479.3223	7
479.8488	3
480.4248	6
481.2597	5
481.7833	1
482.3785	7
482.7822	1
483.3055	9
484.3326	14
485.3659	52
486.1734	2
486.9017	2
487.4879	4
487.9770	2
488.5289	6
489.1855	4
489.6567	4
490.0949	3
490.4674	2
491.3425	9
492.3134	5
492.5633	2
493.3652	12
494.2479	9
495.4569	10
495.6709	4
496.3039	4
496.6570	4
497.3185	2
497.7944	4
498.2000	3
498.9289	1
499.4392	1
500.4047	5
501.3133	4
502.0722	3
502.4929	2
503.4959	9
504.4301	17
505.3150	2
505.5786	1
506.2179	2
506.5653	2
507.1942	4
507.5881	7
508.0822	4
508.4378	8
509.3398	2
509.7939	4
510.4003	1
510.7527	2
511.0769	1
511.6415	3
512.0687	1
512.4914	1
512.8200	1
513.2069	1
513.6357	1
514.0286	2
514.4633	3
514.8936	1
515.1520	1
515.6301	3
516.4788	7
516.9882	1
517.4634	10
518.5348	17
519.4523	41
519.8931	6
520.4446	9
520.7644	4
521.4519	10
522.0736	3
522.4144	9
523.1647	5
523.8538	4
524.4039	2
525.2545	2
525.5056	1
525.9406	4
526.8719	2
527.2248	4
527.5956	2
528.3655	7
528.6541	3
529.4376	5
530.0507	3
530.5576	4
530.9254	8
531.4592	21
532.3370	7
533.4677	19
534.4383	23
534.8541	4
535.5121	42
536.4231	24
537.1336	5
537.4717	3
538.2435	4
538.5771	3
539.3506	2
539.7784	2
541.1219	11
542.4147	9
543.3738	17
546.5298	253
547.5355	62
549.4858	999
550.6293	23
551.7962	20
553.4544	22
564.4062	999
566.0281	703
567.1193	298
568.0612	142
569.4515	56
570.8000	30
571.9738	17
573.2747	9
