Mass spectrum: 4-Hydroxymyxol; FAB-EBEB; MS2; m/z: 600.42; [M]+*
Name: 4-Hydroxymyxol
Formula: C40H56O4
Exact mass: 600.41786
SMILES: C(O)(C1O)C(=C(C(C1)(C)C)C=CC(C)=CC=CC(C)=CC=CC=C(C=CC=C(C=CC=C(C=CC(O)C(C)(C)O)C)C)C)C
InChI: InChI=1S/C40H56O4/c1-29(18-13-20-31(3)21-15-23-33(5)25-27-37(42)40(9,10)44)16-11-12-17-30(2)19-14-22-32(4)24-26-35-34(6)38(43)36(41)28-39(35,7)8/h11-27,36-38,41-44H,28H2,1-10H3/b12-11+,18-13+,19-14+,21-15+,26-24+,27-25+,29-16+,30-17+,31-20+,32-22+,33-23+/t36-,37-,38+/m0/s1
Instrument: JMS-HX/HX 110A, JEOL
Instrument type: FAB-EBEB
Ms type: MS2
Ion mode: POSITIVE
Collision energy: 3 kV
Ionization: FAB
Base peak: 58.9756
Precursor m/z: 600.42
Precursor type: [M]+*
m/z	relative intensity
0.1567	0
0.6086	0
1.5357	0
1.7093	2
1.7803	0
2.1235	0
4.2897	0
9.9399	1
12.9844	0
13.3025	0
13.9783	1
14.9862	6
17.0735	0
17.9825	1
18.4028	0
18.9864	2
22.9417	33
24.6274	0
25.9633	7
26.7517	2
26.9657	36
27.9676	4
28.9719	47
29.9359	3
30.9580	41
31.9434	1
34.3565	1
35.0806	1
36.6236	1
36.9624	4
37.8623	3
37.9616	15
38.9552	127
39.1923	1
39.9675	20
40.9730	197
41.2369	1
41.9775	18
42.9632	194
43.9659	6
44.9505	20
46.9261	4
47.7775	0
48.8755	4
49.9468	29
50.9489	55
51.9478	27
52.4748	1
52.9653	97
53.4148	0
53.9552	5
54.9716	226
55.9515	13
56.9757	80
57.3288	0
58.0035	5
58.7592	2
58.9756	999
59.9529	8
60.2766	1
60.9629	7
61.4278	2
61.9594	20
62.5657	1
62.9550	64
63.6117	2
63.9988	6
64.1449	1
64.4950	3
64.9622	73
65.2273	0
65.3776	1
65.9579	16
66.9741	123
67.1939	0
67.9508	17
68.9823	135
70.0010	14
70.9644	69
71.4700	2
72.2138	1
72.9374	13
73.9330	18
74.9454	16
75.0922	3
75.9335	11
76.5479	3
76.9513	280
77.2588	1
77.4552	4
77.5523	1
77.9641	56
78.3692	3
78.5284	5
78.9622	176
79.4781	1
79.5764	3
79.9543	42
80.9733	279
81.3755	1
81.9311	20
82.4821	2
82.9594	74
83.5940	2
83.9551	9
84.4271	0
84.9644	43
85.9606	10
86.9437	28
87.9237	5
88.7132	1
88.9655	49
89.2314	4
89.4405	3
89.5170	2
89.7643	4
89.9639	16
90.1557	6
90.3359	3
90.4708	1
90.5260	1
90.6671	2
90.9562	403
91.2277	2
91.3150	1
91.6894	1
91.9460	39
92.1368	2
92.5064	3
92.6592	1
92.9688	258
93.2478	2
93.8513	5
94.0003	18
94.2539	3
94.9734	240
95.9618	12
96.1157	1
96.9660	96
97.8327	8
97.9730	7
98.2099	1
98.9546	7
99.1045	3
100.0321	3
100.5997	1
100.8636	7
101.0474	5
101.2432	2
101.7706	4
101.9767	29
102.1810	2
102.3445	4
102.4276	3
102.9657	77
103.2983	4
103.9634	30
104.6503	3
104.9726	468
105.2995	5
105.3975	2
105.6728	1
105.9868	41
106.4804	3
106.5900	1
106.9871	245
107.3418	2
107.5037	4
107.9751	31
108.3227	4
108.5405	2
109.0015	142
109.4064	1
109.9961	20
110.1552	3
110.9725	44
111.9621	11
112.0413	3
112.5071	5
112.6950	3
112.9796	13
113.1881	1
113.3359	4
113.4780	3
113.9993	11
114.5397	6
114.9541	202
115.3681	2
115.6764	2
115.9661	66
116.1976	6
116.4226	2
116.6214	7
116.9599	172
117.3456	1
117.9854	48
118.4923	4
118.6324	3
118.9745	404
119.2425	4
119.3355	4
119.4725	1
119.7930	5
119.9870	24
120.2263	2
120.4171	3
120.9608	183
121.2167	3
121.3275	2
121.9426	30
122.6004	1
122.9614	83
123.9635	20
124.6349	5
124.7475	8
124.9754	29
125.9626	16
126.5732	5
126.9538	90
127.1902	9
127.3065	2
127.5129	3
127.9398	228
128.1882	4
128.3681	7
128.4721	4
128.9414	264
129.2445	2
129.3389	3
129.9535	103
130.2380	3
130.3902	3
130.6093	5
130.9518	272
131.2997	4
131.4041	3
131.7003	1
131.9664	61
132.2287	5
132.4167	2
132.5890	3
132.9659	229
133.3378	5
133.5300	4
133.6294	2
133.9726	22
134.1775	1
134.3264	3
134.6626	1
134.9646	82
135.4290	3
135.7756	5
135.9585	27
136.6045	2
136.9654	72
137.3921	1
137.9455	19
138.9333	42
139.4359	2
139.7702	12
139.9574	26
140.0762	10
140.2999	6
140.4015	2
140.5223	3
140.9501	196
141.1707	4
141.3581	5
141.9365	124
142.2059	1
142.9527	304
143.5188	1
143.6187	1
143.9486	104
144.2486	4
144.4153	2
144.5566	2
144.9669	337
145.3079	5
145.5269	4
145.9602	51
146.3136	4
146.5655	4
146.9686	107
147.5886	3
147.9747	21
148.4098	3
148.5772	1
148.9650	53
149.2706	1
149.4012	2
149.5427	3
149.9624	24
150.4621	4
150.6063	2
150.9492	41
151.2205	3
151.3588	3
151.5253	3
151.6496	5
151.9559	90
152.4525	5
152.9574	103
153.9680	61
154.3356	6
154.9654	147
155.2127	4
155.9731	123
156.5498	4
156.6396	3
156.9871	277
157.2504	6
157.5684	1
157.9865	79
158.1771	7
158.2737	4
158.4528	3
158.6123	2
158.9970	160
159.3182	6
159.4136	1
160.0083	30
160.2743	2
161.0042	74
161.2447	3
161.4534	5
161.5923	1
162.0010	20
162.1217	5
162.4384	1
162.6873	1
162.9993	38
163.3746	1
163.7194	8
163.8348	11
164.0779	12
164.6131	5
164.9848	161
165.4511	2
165.9883	46
166.3501	3
166.4821	3
166.6523	4
166.9973	120
167.4119	1
167.5998	2
168.0208	41
168.2865	4
168.5720	4
168.6531	3
169.0130	197
169.3989	4
169.6983	4
170.0394	78
170.3117	3
170.3947	2
170.6111	2
171.0283	139
172.0170	46
172.5893	2
173.0412	71
173.3786	1
173.4973	4
173.6958	1
174.0225	25
174.5014	2
174.7130	5
175.0257	56
175.3506	1
175.6969	2
176.0104	29
176.1642	2
176.3199	6
176.9590	36
177.1354	14
177.3316	8
177.4711	7
177.6701	6
177.9998	88
178.5014	2
178.9976	115
179.2311	4
179.3598	2
180.0016	72
180.3449	7
180.5874	5
181.0042	108
181.4060	4
181.6480	4
182.0315	58
182.2407	4
182.3635	1
182.5289	5
183.0251	136
183.2757	6
183.4007	1
183.5648	1
183.6747	2
183.9054	30
184.0476	32
185.0137	64
185.3760	5
185.4956	3
185.9715	35
186.5624	6
187.0221	49
187.6078	1
188.0499	23
188.4632	2
189.0088	65
189.2900	3
189.4534	1
189.6147	3
189.7429	2
190.0228	22
190.5545	3
190.9974	52
191.6018	5
192.0243	66
192.5117	4
192.9993	121
193.4947	3
193.6550	5
193.9770	45
194.3067	5
194.5618	4
195.0099	118
195.2644	6
196.0116	47
196.4967	1
197.0131	103
197.4092	1
197.7423	4
198.0340	22
198.4725	3
199.0290	59
199.2931	4
199.6148	4
200.0219	10
200.3846	3
200.5435	4
200.7759	4
201.0673	25
201.1631	9
201.3262	2
201.5601	4
201.9550	33
202.6112	4
202.9981	49
203.3524	4
203.4684	6
203.7950	1
204.0432	18
204.2683	3
204.5603	6
205.0067	54
205.7989	7
206.0194	25
207.0202	97
207.2917	3
207.4456	3
208.0019	52
208.3558	7
208.4491	4
208.5571	3
209.0169	87
209.3319	6
209.6574	1
209.9927	27
210.4006	3
210.4975	3
211.0548	63
211.6066	4
211.9171	21
212.1683	5
212.4852	4
212.6478	2
213.0555	45
213.2950	3
213.3984	4
213.8391	6
214.0605	13
214.2030	5
214.5733	1
214.9946	29
215.4217	4
216.0460	27
216.2550	3
217.0258	43
217.2216	5
217.5596	3
217.8416	5
218.0718	16
218.2678	5
218.8558	28
219.0749	58
219.2871	2
219.6898	4
220.0701	27
220.5626	1
221.0440	67
221.3608	4
221.5802	4
221.7751	4
222.0569	18
222.2336	4
222.6087	1
223.0548	47
223.5409	2
223.6742	3
223.7942	2
224.0496	14
224.2454	2
224.3500	4
224.4426	4
224.6420	4
225.0547	20
225.5834	4
225.6768	2
225.8215	3
226.0764	20
226.4508	1
227.0585	24
227.4120	2
227.7092	10
227.7753	5
228.0614	26
228.7447	2
229.0605	39
229.3207	3
229.8320	6
230.0888	32
230.3871	4
230.6158	4
231.0683	38
231.3154	4
231.5132	5
231.5962	4
231.7462	4
231.8947	11
232.1109	26
232.7676	3
233.1040	49
233.7958	2
233.9398	4
234.1591	20
234.3438	3
235.1127	53
235.3390	8
235.6947	1
236.1222	11
236.3592	3
236.6348	2
236.7839	5
237.0815	21
237.4262	2
237.5324	1
237.9222	2
238.1058	15
238.2585	4
238.8399	8
239.0686	37
239.1799	13
239.6136	6
239.7495	1
240.0846	20
240.4854	4
241.0728	24
242.0529	10
242.2813	4
242.5463	6
242.7253	4
242.8381	3
243.0581	29
243.4212	1
243.8957	4
244.1461	10
244.3006	2
245.0772	44
245.3877	4
245.5655	2
246.0432	10
246.5691	3
246.7385	4
246.9609	22
247.1134	37
247.5335	3
247.9543	9
248.1337	11
248.2467	5
248.7497	2
248.9390	13
249.1601	22
249.4965	3
249.7530	4
249.9000	7
250.0505	11
250.1381	7
250.3198	3
250.4308	3
250.7842	4
251.1214	25
251.4863	2
251.7288	8
252.0265	13
252.4969	4
252.7664	3
253.0592	17
253.3281	2
253.5913	2
254.0025	12
254.4384	8
254.8292	3
255.0550	11
255.2313	7
255.5860	4
255.9131	4
256.1093	15
256.7545	3
256.8516	5
257.0839	34
257.2022	14
257.4282	5
257.7796	2
257.9582	12
258.0730	10
258.1807	11
258.3005	2
259.0801	39
259.2644	6
259.3970	4
259.4912	4
259.8563	5
260.1208	17
260.4115	3
261.0717	23
261.3220	3
261.8093	2
262.0420	13
262.5670	3
262.6940	4
263.1255	19
263.2688	7
263.8025	4
264.0623	11
264.8241	7
265.1024	24
265.3886	4
265.6556	2
265.7686	3
266.1116	14
266.5712	4
266.7361	2
267.0259	12
267.1375	7
267.3108	3
267.6811	1
267.8097	3
268.0485	7
268.5645	2
268.8296	8
269.0507	15
269.2491	7
269.3728	4
270.0476	12
270.2809	4
270.5106	2
271.0924	18
271.2219	17
271.6928	3
272.1126	6
273.1075	23
273.2292	10
273.8386	7
274.1767	11
274.7948	4
274.9963	12
275.1394	15
275.4193	2
275.5205	4
276.0319	8
276.1437	6
276.2606	2
276.5092	3
277.0828	14
277.2602	6
278.0511	7
278.2061	4
278.3042	4
278.8882	6
279.0802	10
279.2474	11
280.0940	12
281.1081	13
281.2490	7
281.9679	10
282.2135	2
282.5552	4
282.8742	2
283.0465	15
283.2103	5
283.3478	2
283.9916	8
284.1754	7
284.3043	4
284.6690	1
285.0266	11
285.2012	11
285.3815	2
285.9608	10
286.0997	12
286.2287	5
286.6742	3
287.0990	25
287.2223	4
288.1598	29
288.7595	6
289.0377	9
289.2174	13
289.3786	2
289.6489	1
289.8208	7
290.0969	7
291.0272	12
291.1884	12
292.0262	9
292.4138	3
292.8257	4
293.0406	19
293.2262	10
293.3061	5
293.7038	2
294.0521	11
294.2047	5
294.4159	3
294.6970	1
295.0544	11
295.2099	7
295.4218	4
295.9192	3
296.1283	2
296.3460	5
296.6985	3
297.1118	9
297.3010	2
297.7350	2
297.8307	1
298.0035	9
298.0941	4
298.1998	2
298.6254	2
299.1253	20
299.3152	2
299.6766	2
299.9266	3
300.0774	3
301.1354	22
301.4998	5
302.1587	6
302.3752	4
302.7640	1
303.0599	7
303.2222	13
303.3702	4
303.9950	5
304.1616	9
304.2459	4
304.9210	4
305.0718	13
305.1855	10
305.7856	2
306.7269	3
307.0589	4
307.2392	3
307.9769	8
308.2388	1
309.0611	13
309.2293	7
310.0690	8
310.3117	2
310.4986	4
311.0864	10
312.0818	10
312.2480	4
312.9185	3
313.0925	16
313.2638	7
313.3727	4
314.1264	3
314.2202	4
314.3850	8
314.5470	0
314.8344	2
315.0787	7
315.2464	2
315.5568	4
316.0248	4
316.1366	4
316.3166	4
316.8391	2
317.0478	9
317.1890	4
317.9032	2
318.0495	7
318.2094	13
318.8068	3
318.9459	12
319.1295	14
319.3117	2
319.4774	4
320.0929	11
320.5513	3
321.0543	3
321.2057	7
322.1960	6
322.3525	2
323.1930	7
323.7256	4
324.1564	5
325.1257	7
325.6184	4
326.1836	12
327.0262	9
327.1677	7
327.3071	8
327.4507	1
327.6059	3
327.9522	5
328.2008	6
328.4688	2
329.0969	4
329.2608	9
329.7646	3
330.0147	7
330.2296	4
330.7148	1
330.8737	5
331.0491	6
331.2123	15
331.8960	6
332.0470	4
332.1908	3
332.3799	4
333.1070	7
333.2774	3
333.9931	3
334.2585	2
334.6570	2
334.9362	4
335.0642	9
335.3700	4
336.0031	4
336.4191	0
337.0746	4
337.2186	3
338.1701	9
338.8046	6
339.0511	4
339.1805	19
340.0357	4
340.2958	3
341.0369	2
341.1943	5
341.3762	4
342.1289	7
342.2914	4
342.4237	2
343.1299	4
343.2233	4
343.6303	3
344.0252	4
344.1712	3
344.3913	4
344.7732	2
345.3055	3
345.7472	5
345.9048	1
346.1479	7
346.3192	2
347.0473	7
347.2467	4
347.9253	4
348.1577	4
349.0467	4
349.1899	3
349.4807	4
349.7903	4
349.9702	1
350.1552	7
350.2993	4
350.9206	1
351.0077	1
351.3965	4
351.9114	4
352.0836	6
352.2751	8
353.0522	4
353.2309	3
353.3065	2
353.9094	3
354.1652	7
354.3460	4
355.2394	7
355.4087	3
356.1567	4
356.3066	3
356.4089	4
356.6410	4
357.1541	6
357.3127	9
357.5873	0
358.0263	4
358.1949	9
358.4141	3
358.9533	4
359.1523	4
359.2914	3
359.6902	1
359.8113	2
359.9497	4
360.1307	4
360.2475	5
360.4329	2
361.2254	11
361.9524	3
362.1031	3
362.2077	7
362.3361	9
362.6701	3
362.9983	10
363.0762	4
363.2054	1
363.4203	0
364.1815	5
364.3676	4
365.1974	15
365.8729	4
366.1792	3
366.8818	2
366.9755	1
367.1067	6
367.1961	4
367.3352	3
367.7900	5
368.0459	10
368.4330	2
368.8317	0
369.1705	10
370.3754	3
370.6501	4
370.8686	4
371.0612	9
371.2624	3
371.9085	4
372.0204	4
372.1653	4
372.3875	4
372.6875	2
373.0136	4
373.9868	0
374.4788	1
375.0099	5
375.2992	5
375.7870	4
376.4004	2
377.1395	4
377.6231	4
377.7768	3
378.0598	7
378.4236	2
378.9131	1
379.2127	7
379.6278	2
380.0228	2
380.2336	4
380.8814	3
382.1183	4
382.3333	5
383.1794	4
383.3085	5
383.8965	4
384.0437	4
384.3539	2
384.5090	3
384.6569	2
384.9766	4
385.1981	6
385.3511	7
386.2033	9
386.5670	3
387.1264	7
387.6381	3
388.0517	4
388.2589	4
388.8610	4
388.9526	1
389.1974	7
390.1475	5
391.2552	5
391.3585	3
391.8676	3
392.2424	4
392.4078	3
392.5197	3
393.1691	4
393.2854	6
393.4450	1
394.0670	3
394.9548	4
395.3276	3
395.5075	9
395.9909	3
396.1954	8
397.1131	3
397.3805	6
398.0150	4
398.1133	5
398.3092	6
398.8766	1
399.0746	7
399.3305	6
399.6522	3
400.1090	7
401.0193	3
401.1523	3
401.4017	4
401.6317	1
401.7502	2
402.0272	4
402.1689	5
402.4118	3
402.9549	2
403.1082	8
403.3093	7
404.0687	6
404.3891	3
404.9547	4
405.1529	3
405.9681	2
407.1691	3
407.3138	4
407.4216	3
408.2428	6
408.4100	4
409.4549	3
410.2264	8
410.3198	5
410.7005	3
412.0570	2
412.1656	3
413.2048	8
413.7489	3
414.0921	6
414.1991	4
414.8704	4
415.1963	5
415.3372	7
415.7737	2
416.1344	5
417.1636	4
417.8294	3
418.0246	2
418.1952	3
419.0352	12
419.2138	6
419.4387	2
419.5529	3
420.2087	3
420.3005	4
420.4358	3
420.8682	3
421.1632	4
421.7425	2
422.0071	6
422.1424	2
423.1065	3
423.5875	2
424.0707	6
424.2096	11
424.4772	3
425.1384	3
426.1136	7
426.5391	5
427.1187	3
427.2482	4
427.4370	2
428.0876	2
428.2996	5
428.3930	4
428.8692	3
429.0791	1
429.2159	8
429.7196	3
430.1719	4
430.4691	3
431.1965	16
431.3527	7
431.4590	3
431.5522	2
432.1748	6
432.3542	10
432.4930	8
432.8076	4
433.1591	6
433.4094	4
433.8477	2
434.3655	2
435.0324	4
435.2777	4
436.0568	4
437.0971	4
437.2288	4
437.6687	2
438.0674	8
438.9603	4
439.4828	3
440.7956	1
441.1720	2
441.9016	4
442.2020	5
442.4423	4
442.6081	4
442.9794	4
443.1619	4
443.8206	6
444.1211	16
444.3521	4
444.4976	4
444.8871	3
445.0066	4
445.2137	18
445.3802	7
445.8957	4
446.0688	3
446.3382	7
446.7777	2
447.1862	28
447.3042	15
447.4606	8
448.3000	5
449.1888	6
449.3206	4
449.4394	4
451.4206	4
452.2784	6
452.6559	4
453.1392	4
453.4123	2
454.2703	6
455.2370	3
456.0168	1
456.2277	4
457.0598	3
457.2910	7
458.2435	7
458.4218	4
458.7836	2
458.9474	4
459.1997	3
459.3222	8
460.2654	5
460.7918	5
461.4545	4
462.0448	4
462.3138	4
462.5705	4
463.1369	4
463.3806	6
464.0202	4
464.1500	4
464.7477	1
464.9957	3
465.2851	4
465.9927	2
466.0934	4
466.3619	10
466.5342	6
467.4674	4
468.2711	8
468.5108	5
469.0806	3
469.2885	4
469.5738	0
469.7294	4
470.0915	8
470.3290	4
470.4138	4
470.7983	3
470.9859	1
471.1155	4
471.3654	2
471.5153	4
471.8803	5
472.0679	4
472.2953	6
472.5032	4
472.9769	4
473.1435	2
473.4354	5
473.6419	10
473.7679	4
474.0584	10
474.2641	11
475.2783	8
475.7188	1
475.8637	3
476.1629	4
477.0642	4
477.2048	3
477.3178	4
477.4446	3
478.1432	3
478.2366	4
479.3229	7
479.6121	3
481.5892	1
481.9132	4
482.3162	4
482.7403	3
482.9860	3
484.3329	4
484.5280	6
485.3544	8
485.8380	5
486.0273	3
486.2057	4
486.4123	8
486.6574	7
486.8988	11
487.1040	9
487.3542	5
487.5369	11
487.8379	4
488.0300	5
488.2396	4
488.8024	4
488.9264	4
489.2890	6
489.6734	11
489.9098	4
490.0599	4
490.4349	11
490.5981	6
491.0442	1
491.1841	6
491.3691	10
491.4982	4
491.6636	4
492.4594	4
492.5551	4
493.4953	8
494.0487	2
494.3341	6
494.9273	5
495.1048	9
495.8031	4
496.1016	4
496.2233	6
496.4066	0
497.0746	4
497.1666	5
497.2731	3
497.9519	1
498.2222	7
498.4077	3
499.0938	4
499.3228	4
499.4655	4
499.5981	4
500.1047	4
500.1938	2
500.3221	3
500.7380	4
501.3576	8
501.5533	5
501.7497	4
501.8338	3
502.2498	9
502.3839	4
502.4904	4
502.6223	4
502.9586	4
503.1985	3
503.3927	2
503.8849	4
504.0922	5
504.4459	5
504.6757	6
504.8475	3
505.0794	9
505.2157	4
505.4622	9
505.6681	4
505.7971	12
506.2618	13
506.6018	10
506.8570	6
507.1542	6
507.4855	7
507.6451	6
507.9633	15
508.3519	68
508.5361	44
508.7957	3
509.2314	7
509.3482	6
509.4903	4
509.7818	6
509.9043	4
510.2430	17
510.5200	8
510.8448	2
511.0696	1
511.3496	3
511.6853	7
511.9573	6
512.1560	9
512.3903	9
512.4860	4
512.6310	3
512.7623	1
512.8965	2
513.2751	6
513.4434	6
513.7335	4
514.2289	4
514.4711	3
514.6865	3
515.4772	5
516.1329	0
517.1812	4
517.3575	3
517.6005	4
518.0504	6
518.2332	9
518.4951	3
519.1539	3
519.4129	2
519.6770	2
520.1400	9
520.2952	9
520.4774	4
520.6058	8
521.4594	6
521.6086	2
521.8526	1
522.2805	9
522.4833	10
523.3370	44
523.4941	30
523.6390	17
523.8127	3
524.2335	9
524.3936	14
524.5695	8
525.0519	9
525.2235	8
525.4879	12
525.7290	3
526.2222	11
526.3975	11
526.5540	3
526.6561	4
526.8212	9
526.8943	5
527.0305	4
527.2101	6
527.4274	9
527.6382	5
527.9692	4
528.1743	8
528.3075	3
528.5067	6
528.8551	8
529.1028	5
529.3672	5
529.5288	5
529.6121	3
529.7237	3
529.8179	5
529.9330	4
530.1960	7
530.4641	4
530.5734	5
531.1291	4
531.4703	8
531.8101	1
531.9275	7
532.1666	3
532.3340	1
532.4861	1
532.8781	3
533.0237	4
533.5135	4
533.9410	5
534.2548	2
534.4889	3
534.6048	4
534.8396	1
535.2092	4
535.2954	2
536.3397	1
536.8962	1
538.4298	2
538.5313	3
539.1373	6
539.2546	3
539.3939	7
539.6722	9
540.3086	55
540.7660	11
541.3517	65
541.7751	4
542.0143	7
542.3224	28
542.4884	10
542.6247	11
543.0372	4
543.1648	6
543.3547	7
543.6093	4
546.3587	4
546.7140	4
547.2491	4
548.2194	3
548.5059	4
549.1745	5
549.5002	6
550.4546	3
550.5953	4
551.7065	4
552.1279	5
552.5980	6
553.0121	4
553.3937	4
554.1285	7
554.2729	7
554.4920	2
554.6719	5
554.8663	1
555.3016	4
555.5439	4
556.1475	1
556.3448	7
556.5661	4
556.8687	2
557.1415	0
558.1827	4
558.4700	5
558.5593	5
558.7327	4
559.5867	4
560.3421	4
561.1208	4
561.3668	2
563.3343	2
563.4787	4
563.6558	4
563.8213	3
564.1363	10
564.3417	3
564.4520	2
564.6581	4
564.7510	1
565.0966	7
565.4711	0
565.9993	3
566.4795	6
567.3320	23
567.4392	10
567.6312	22
568.0063	4
568.1694	8
568.3026	3
568.4634	4
568.8046	1
569.0654	2
569.3189	3
569.7065	5
569.8499	7
570.1542	10
570.4374	19
570.5641	5
570.8481	3
571.0075	4
571.3640	7
571.5603	3
571.6769	3
571.7834	3
572.2239	5
572.5355	7
572.8752	10
573.3781	3
573.4846	4
573.7556	7
574.1845	11
574.5076	3
574.7808	2
574.9982	2
575.2264	5
575.4916	6
575.7184	1
575.9337	7
576.2257	5
576.3445	3
576.6083	4
576.7989	3
576.9888	10
577.1279	3
577.2547	8
577.4055	2
577.6736	7
577.7576	4
578.0265	6
578.1483	4
578.2780	3
578.4635	10
578.6411	7
578.8411	11
579.2817	4
579.5375	8
579.7158	9
579.8071	6
580.2217	10
580.4935	7
581.1321	29
581.4531	16
581.6285	24
581.8098	17
582.4744	146
582.7687	82
583.4407	29
583.7669	12
584.0945	26
584.3497	34
584.5208	19
584.8318	3
585.0043	7
585.3900	23
585.5952	9
585.8917	3
586.4818	9
586.7297	2
586.9835	3
587.1321	9
587.2996	4
587.4193	2
587.6549	2
587.8043	9
588.0123	5
588.2342	11
588.4626	6
588.6235	4
588.8570	6
589.1144	4
589.3834	7
589.5872	0
589.8953	4
590.1727	10
590.4537	4
590.6869	4
590.8564	6
591.0781	12
591.3663	10
591.6082	7
591.8929	8
592.1051	12
592.3036	16
592.6578	13
592.8019	20
592.9606	9
593.1525	9
593.2720	4
593.5256	16
593.7458	7
594.1746	18
594.5079	9
594.7962	17
595.0889	17
595.3221	20
595.5199	19
595.9886	34
596.2625	8
596.6754	31
600.4162	999
601.0843	330
601.5336	193
602.0894	93
602.4604	105
603.0742	55
603.5583	43
603.7764	23
603.9946	31
604.2830	31
604.4772	15
604.6940	14
604.8983	12
605.0360	7
605.1600	6
605.3521	16
605.5557	10
605.9043	8
606.1776	8
606.3696	6
606.9480	4
607.2104	3
607.3054	1
607.4924	4
607.6627	3
607.8903	2
608.0896	2
608.2549	2
608.9276	2
609.1530	2
609.8126	0
610.4027	3
