Mass spectrum: Cucurbitachrome A; FAB-EBEB; MS2; m/z: 600.42; [M]+*
Name: Cucurbitachrome A
Formula: C40H56O4
Exact mass: 600.41786
SMILES: C(O4)(C=C(C34C)C(CC(C3)O)(C)C)C(C)=CC=CC(=CC=CC=C(C=CC=C(C)C=CC(C(C)(O)1)(C(C)(C)2)OC(C2)C1)C)C
InChI: InChI=1S/C40H56O4/c1-28(17-13-18-30(3)21-22-40-37(7,8)26-33(43-40)27-39(40,10)42)15-11-12-16-29(2)19-14-20-31(4)34-23-35-36(5,6)24-32(41)25-38(35,9)44-34/h11-23,32-34,41-42H,24-27H2,1-10H3/b12-11+,17-13+,19-14+,22-21+,28-15+,29-16+,30-18+,31-20+/t32-,33-,34+,38+,39+,40+/m0/s1
Instrument: JMS-HX/HX 110A, JEOL
Instrument type: FAB-EBEB
Ms type: MS2
Ion mode: POSITIVE
Collision energy: 3 kV
Ionization: FAB
Base peak: 520.4631
Precursor m/z: 600.42
Precursor type: [M]+*
m/z	relative intensity
14.0380	1
15.0481	8
19.0257	0
23.0152	2
25.0272	0
26.0348	3
27.0498	21
28.0485	2
29.0606	18
31.0521	4
37.0301	2
37.4035	0
38.0257	1
38.4281	0
39.0560	28
40.0520	4
41.0731	39
42.0846	3
43.0507	164
44.0506	1
44.7423	0
45.0759	2
50.0309	3
51.0500	4
52.0941	2
53.0685	8
54.0482	1
55.0618	37
56.0520	3
57.0665	16
57.5224	0
58.0570	1
59.0816	6
60.1407	0
61.2049	0
62.0459	2
63.0088	5
63.5915	0
64.0356	1
65.0468	17
66.0823	3
67.0614	30
68.0747	3
69.0511	53
69.5305	1
70.0414	8
70.6352	0
71.0352	18
72.0119	0
73.0953	1
73.7370	0
74.0583	3
75.0347	6
76.0665	3
76.6098	0
77.0388	64
77.5208	1
78.0456	14
79.0555	72
80.0579	19
81.0633	94
82.0503	11
83.0721	130
84.0433	4
84.5352	0
85.0599	43
86.1760	3
87.0476	21
87.4571	0
88.1370	2
89.0670	10
89.4461	1
90.0643	7
90.5529	2
91.0748	230
92.0769	24
92.5788	1
93.0813	195
93.6938	0
94.0881	15
95.0749	211
95.6675	0
96.0740	18
97.0752	59
98.0676	11
99.0952	8
100.1139	2
101.1014	3
101.7238	1
102.0797	16
103.0822	48
104.0866	25
105.0817	325
106.0899	47
107.0887	185
108.1115	31
108.5609	2
109.0893	157
110.1251	11
110.6888	1
111.0837	57
112.0665	6
112.4284	0
113.0962	56
113.6854	2
114.1503	8
115.0812	144
116.0704	69
117.0839	164
118.0762	36
119.0814	370
120.0766	55
121.0733	219
122.0714	45
122.5194	2
123.0595	142
124.0605	17
125.0513	201
126.0665	17
126.4014	3
127.0716	50
127.4763	7
128.0664	177
129.0625	227
129.6017	2
130.0600	94
131.0702	248
132.0702	70
133.0714	236
134.0737	33
135.0657	145
136.0822	61
137.0531	67
138.0612	10
138.3662	3
139.0822	119
140.0809	11
141.0688	147
142.0579	146
143.0716	303
144.0864	120
145.0905	389
146.0719	53
147.0780	183
148.0852	34
149.0933	100
150.0787	21
151.0650	184
152.1118	72
153.1001	108
153.6720	5
154.1012	46
155.1032	203
156.1061	112
157.1100	299
158.1266	68
159.1083	238
160.1028	155
161.1222	98
161.5782	4
162.1424	32
163.1275	102
164.1374	18
165.1361	216
166.1235	60
166.6176	6
167.1479	114
168.1611	58
169.1509	185
170.1536	76
171.1540	186
172.1546	59
173.1439	147
174.1460	31
174.5567	4
175.1609	87
176.1281	24
177.1445	40
178.1252	73
178.6098	7
179.1430	153
179.6157	6
180.1251	162
181.1321	502
182.1276	72
183.1360	183
184.1207	56
184.6194	3
185.1425	133
186.1164	37
187.1395	72
188.1390	22
189.1390	89
190.1519	46
191.1532	81
191.6785	4
192.1307	51
193.1331	183
194.1485	67
195.1277	194
196.1197	54
197.1367	176
198.1421	49
199.1358	95
200.1423	34
201.1494	49
202.1570	34
203.1283	82
204.1493	18
205.1586	66
206.1191	47
207.1417	145
208.1402	111
209.1268	163
210.1510	42
211.1386	109
212.1391	31
213.1524	67
214.1044	17
215.1311	56
216.1582	19
216.6782	5
217.1611	45
217.6937	3
218.1768	19
219.1683	91
220.1601	35
221.1649	422
222.1700	42
222.6914	5
223.1632	76
224.1942	30
225.1758	62
226.2449	17
226.6677	3
227.1777	42
228.2601	18
229.2435	48
230.2397	22
231.1865	53
232.1710	32
233.1923	121
234.1881	94
234.6862	3
235.1968	77
236.1810	20
237.1904	64
238.2003	31
239.1981	43
239.7346	2
240.3086	14
241.2322	33
242.1937	15
242.6683	3
243.2055	33
244.1801	17
245.1801	56
246.2180	114
247.2187	138
248.2573	25
249.2337	47
250.1729	21
251.2251	48
252.2276	27
253.2429	41
254.2962	10
255.2496	22
256.1781	15
256.7429	3
257.2952	39
258.1992	16
258.6262	4
259.2287	54
260.2071	27
261.2486	36
261.6502	6
262.2401	15
262.6670	5
263.2069	36
263.7469	4
264.2744	17
265.2921	33
266.2346	13
267.2654	26
268.3469	9
268.6990	1
269.2777	27
270.1710	11
271.2408	69
271.7443	7
272.2731	32
273.2302	53
274.2757	43
275.2711	26
276.2668	17
276.7710	2
277.2375	33
278.2328	14
279.2409	17
280.2492	5
280.7156	1
281.2326	18
282.1658	8
283.2506	30
284.2347	20
285.2697	75
286.2417	337
287.2645	102
288.3255	17
289.2604	24
290.3978	8
290.7769	3
291.2447	20
292.2308	13
292.7872	6
293.3690	14
294.2918	12
295.2519	15
296.3008	10
297.2234	53
298.2601	68
299.2590	174
300.2835	36
301.2197	19
302.3206	6
303.3964	15
304.2826	6
305.2323	11
306.2455	6
307.2843	19
308.2980	8
308.6908	2
309.2485	25
310.2372	23
311.2262	84
312.2661	128
313.2428	39
314.2578	12
315.2476	8
316.3518	4
317.4182	14
317.8118	3
318.3705	5
319.2087	15
320.2376	8
321.2414	13
321.8132	1
322.2707	9
323.3129	21
324.2537	26
325.2455	108
326.2247	21
327.2550	16
328.2855	5
329.4817	6
330.2835	4
331.3910	8
332.2568	5
333.3010	8
333.7340	4
334.4218	9
335.3263	17
336.2564	14
337.4288	26
338.2699	14
339.2880	16
340.3699	25
340.8663	1
341.4647	6
342.4706	5
342.8781	1
343.1964	6
343.7950	1
344.4574	5
345.3364	7
346.3429	8
346.6742	3
347.3369	10
348.2928	5
349.3508	17
350.3198	19
351.3526	33
352.2964	329
353.3168	53
354.3120	6
355.4476	6
356.3026	4
356.7748	2
357.3492	6
357.6811	1
358.3322	2
359.3791	8
360.3879	9
361.3203	11
362.3421	12
363.3003	34
364.3480	32
365.3192	105
366.3538	31
367.4259	13
368.3578	3
369.3919	6
370.4390	4
371.2691	6
372.2398	5
372.4953	4
372.7508	2
373.3512	9
374.3605	6
375.5106	11
376.2902	16
377.3638	38
378.2970	23
378.7444	5
379.3709	74
380.3683	22
381.3517	4
381.8243	2
382.1692	2
382.3991	1
382.8845	1
383.3444	3
383.5999	3
383.9065	2
384.3409	4
385.3057	6
385.6699	3
386.2513	2
386.8073	2
387.2547	12
388.3156	7
389.3256	23
390.3485	28
391.3587	35
392.3307	62
393.3924	8
394.0064	2
394.3646	3
394.6844	1
395.5929	3
396.3734	2
396.8597	1
397.4484	6
398.4723	3
399.3811	7
400.3029	24
401.5704	8
402.4539	9
403.3376	18
404.3494	11
405.4510	18
406.5143	5
407.2959	3
407.6675	3
408.4107	3
409.5256	3
409.8717	1
410.2946	3
411.3842	6
412.0123	1
412.3713	4
413.3451	13
414.5354	8
415.4698	9
416.3275	8
417.3517	25
418.3377	59
419.3877	129
420.3995	101
421.2833	6
421.9237	3
422.5002	3
422.8333	1
423.1407	1
423.6789	4
424.4476	2
424.8448	2
425.4727	6
426.4082	14
427.3310	10
428.4205	11
428.8051	2
429.3307	10
430.3432	11
431.3805	25
432.3410	46
433.3785	57
434.4289	5
434.9156	1
435.5947	4
436.0559	1
436.4531	3
437.3116	4
437.6703	3
438.5802	4
439.3235	9
439.7080	5
440.4771	29
441.3359	8
442.4127	33
443.3614	8
443.7845	5
444.3487	8
444.7975	3
445.4002	40
446.4774	10
447.4137	11
448.4270	53
449.4660	7
450.5180	3
451.3006	2
451.6855	2
452.4169	5
453.3922	12
454.3419	113
455.3301	9
455.6895	5
456.4468	15
457.5251	16
458.3467	9
458.8346	1
459.4766	17
460.5166	4
461.2614	3
461.6467	2
462.6484	2
463.5860	3
464.2410	2
464.9218	2
465.3072	3
465.9365	1
466.3468	3
467.3344	7
467.8731	3
468.2835	5
468.6042	2
469.2841	3
469.9127	1
470.7594	3
470.9518	1
471.4393	6
472.5428	11
473.4025	27
474.4548	47
475.3275	7
475.6098	5
476.0205	3
476.3927	5
477.2527	3
477.9073	1
478.3310	2
478.8830	1
479.2938	5
480.4364	8
481.3609	27
481.7332	7
482.5165	4
482.9788	2
483.7750	4
484.6483	3
485.4446	10
486.9346	5
487.6668	7
488.7074	7
489.5296	10
490.2877	7
491.5212	6
492.3565	11
493.4359	15
494.4376	42
495.2072	5
495.7332	2
496.3619	2
496.9905	4
497.5038	6
498.5816	6
498.9922	3
499.4029	9
499.9675	3
501.6359	28
503.4970	28
505.5894	28
506.4111	67
507.4254	65
508.4397	88
509.5440	4
509.9678	3
510.4943	3
511.4575	6
511.8557	2
512.7419	3
513.4483	5
514.4117	4
515.4650	6
516.3771	22
517.4564	3
517.8932	4
518.4457	10
519.4993	20
520.4631	999
521.4515	24
521.8619	6
522.2723	4
522.7981	4
523.5933	3
524.1577	1
524.5681	3
524.9016	0
525.5430	6
526.4922	15
527.4287	13
528.3909	17
529.5071	8
530.3283	3
530.7261	2
531.5089	3
532.3173	3
532.7600	3
532.9718	1
533.4338	3
533.7675	1
534.5118	1
535.0509	1
535.3975	2
535.6541	2
536.5526	1
537.1945	3
537.9518	1
538.5424	2
539.6592	8
540.3911	6
540.6221	3
541.3925	20
542.6379	27
543.4470	28
544.4229	11
545.4117	4
545.6815	4
546.5034	6
547.1969	1
547.8006	1
548.4428	2
548.8153	2
549.6503	3
550.0228	2
550.6779	1
551.3716	2
551.7827	2
552.2709	3
552.5536	1
553.3373	4
553.7613	3
554.6093	5
555.5344	24
556.5110	37
557.5134	173
558.5158	11
560.0067	5
560.9706	4
562.1789	2
563.3486	4
564.6856	8
565.7909	3
566.6124	5
566.9589	3
567.6649	17
568.5763	5
569.6418	10
570.5019	11
571.5932	11
572.9413	10
582.7404	911
583.6267	73
584.4746	52
585.6437	678
587.6094	11
589.3441	16
600.5490	999
604.0196	167
605.0590	83
