Mass spectrum: Crassostreaxanthin A; FAB-EBEB; MS2; m/z: 598.40; [M]+*
Name: Crassostreaxanthin A
Formula: C40H54O4
Exact mass: 598.40221
SMILES: CC(C)(C=1C#CC(C)=CC=CC(=CC=CC=C(C=CC=C(C(CC(O2)(C)C(CC(CC(C)=O)2)C)=O)C)C)C)CC(CC(C)1)O
InChI: InChI=1S/C40H54O4/c1-28(17-13-18-30(3)21-22-37-32(5)23-35(42)26-39(37,8)9)15-11-12-16-29(2)19-14-20-31(4)38(43)27-40(10)33(6)24-36(44-40)25-34(7)41/h11-20,33,35-36,42H,23-27H2,1-10H3/b12-11+,17-13+,19-14+,28-15+,29-16+,30-18+,31-20+/t33-,35-,36-,40+/m1/s1
Instrument: JMS-HX/HX 110A, JEOL
Instrument type: FAB-EBEB
Ms type: MS2
Ion mode: POSITIVE
Collision energy: 3 kV
Ionization: FAB
Base peak: 155.0615
Precursor m/z: 598.40
Precursor type: [M]+*
m/z	relative intensity
0.0013	0
1.4963	0
2.4643	0
15.0191	0
26.0120	0
27.0117	3
28.0140	0
29.0190	2
30.8192	0
36.9707	0
37.9830	1
39.0088	5
39.9948	1
41.0216	10
42.0048	1
43.0000	137
44.0072	0
45.0183	1
48.9738	0
49.4188	0
49.9931	1
51.0116	3
52.0139	1
53.0112	5
54.0212	0
55.0247	9
56.0047	0
57.0428	5
58.0194	1
59.0336	1
60.9989	1
62.0131	1
63.0045	3
64.0001	1
65.0136	6
66.0339	1
67.0255	6
68.0374	1
69.0303	15
70.0664	1
71.0168	4
72.0282	0
73.0148	0
73.9905	1
75.0044	2
76.0074	1
77.0174	17
77.6376	0
78.0150	4
79.0235	11
80.0047	1
81.0271	10
81.9967	1
83.0316	6
84.0187	0
85.0232	9
86.0116	1
86.5820	0
86.9999	2
88.0230	1
89.0218	4
89.4287	0
90.0527	1
91.0374	41
92.0407	3
93.0423	16
94.0612	1
94.5510	0
95.0562	36
95.6003	0
96.0296	20
97.0394	45
98.0211	1
99.0268	1
100.0153	1
100.3670	0
101.0127	2
101.4733	0
102.0371	4
103.0399	10
104.0460	5
105.0484	45
106.0597	4
106.5737	0
107.0672	16
108.0482	1
108.5883	0
109.0544	14
109.5941	0
110.0230	1
110.5270	0
111.0482	21
112.0272	2
113.0629	530
114.0295	3
115.0303	36
116.0298	11
117.0394	25
117.5704	0
118.0320	4
119.0433	53
120.0246	4
121.0518	15
122.0030	3
122.4691	0
123.0259	6
124.0028	0
125.0256	3
126.0124	3
127.0222	15
128.0188	44
129.0167	42
129.5466	0
130.0305	13
131.0281	31
132.0284	4
132.5573	1
133.0299	20
134.0108	3
134.3589	0
135.0177	15
135.5704	0
136.0038	1
136.4097	0
137.0292	7
137.6656	0
138.0271	1
139.0158	13
140.0101	3
141.0156	36
142.0238	30
143.0346	45
144.0287	12
145.0416	31
146.0230	6
147.0291	44
147.5895	0
148.0199	3
149.0517	6
150.0105	3
151.0264	7
152.0390	21
153.0406	40
154.0461	14
155.0615	999
156.0539	25
157.0667	40
158.0714	10
159.0635	25
160.0790	4
161.0713	12
162.0420	1
163.0690	5
164.0774	4
165.0625	50
166.0725	14
166.4725	1
167.0788	31
168.0888	11
169.0982	33
170.1039	12
171.1042	24
172.0902	6
173.1160	17
174.0717	3
175.0991	5
176.0743	5
177.1001	6
178.0751	27
179.0736	41
180.0833	16
181.0862	38
182.0958	13
183.0863	28
184.1124	6
185.0754	13
186.0755	3
186.5179	1
187.0868	6
188.0684	3
189.0642	15
190.0713	7
191.0760	28
192.0722	18
193.0750	38
194.0815	17
195.0856	37
196.0841	10
197.0939	23
198.0874	4
199.0830	8
199.5519	0
200.0623	4
201.1111	5
202.0669	15
203.0631	18
203.4808	1
204.0783	7
205.0818	20
206.0826	15
207.0918	33
208.1029	14
209.1069	23
210.0913	6
211.1055	14
212.0987	3
213.1139	8
214.0925	3
214.6068	18
215.0856	20
216.0960	10
217.1101	20
218.1169	8
219.1056	20
220.1334	10
221.1369	23
222.1331	8
223.1515	17
224.1393	5
225.1446	8
226.1131	6
227.1612	6
228.1351	7
229.1266	17
230.1465	8
231.1449	20
232.1656	10
233.1660	22
234.1740	8
235.1745	13
236.1723	5
237.1705	11
238.1660	3
239.1463	12
240.1395	4
241.1376	8
242.1393	5
243.1537	14
244.1514	7
245.1620	16
246.1620	9
247.1670	19
248.1880	5
249.1750	10
250.1483	4
251.1938	7
252.1333	5
253.1404	8
254.1604	3
255.1572	11
256.1684	8
257.1706	14
258.1778	5
259.1707	13
260.1649	5
261.1861	14
262.2092	3
263.1668	8
264.1654	3
265.1549	7
266.1447	4
267.1740	9
268.1597	5
269.1771	11
270.1712	5
270.6754	2
271.1624	9
272.1933	5
273.1804	8
274.1772	3
275.1917	6
276.1686	3
277.1944	5
277.6612	0
278.2020	2
279.1596	6
280.1661	3
280.5515	0
281.1982	10
282.2100	5
283.1686	8
284.1920	4
285.1795	7
286.1829	3
287.1898	6
288.2237	2
289.2200	5
290.1614	2
291.1724	4
292.2042	1
293.1858	5
294.2093	3
295.1775	6
296.2011	3
297.1666	6
298.1859	2
299.1850	6
300.1591	2
301.1934	4
302.1837	1
303.1647	3
304.1475	1
305.1717	3
306.1929	1
307.1922	5
308.2012	2
309.1899	3
310.1677	2
311.1868	6
311.6047	0
312.1461	3
313.1878	6
314.1268	2
315.1912	5
316.1845	1
317.1907	2
318.1732	1
319.2115	3
320.1295	1
321.1968	3
322.2039	1
323.2018	3
323.6921	0
324.2157	1
325.2283	3
326.2600	2
327.2063	4
328.2385	1
329.1993	3
330.2621	1
330.6561	0
331.2249	3
332.2499	1
332.5773	0
333.2513	5
334.2878	1
335.2274	3
335.7443	0
336.2563	1
337.2361	3
338.2361	1
339.2419	3
340.1875	1
340.6563	0
341.2540	3
342.2857	1
343.2238	2
343.7915	0
344.3068	0
345.2722	2
346.2585	3
346.7549	1
347.2704	4
348.2650	3
349.2948	2
350.2260	1
350.6829	0
351.2752	1
352.3086	1
353.2546	3
354.2470	1
355.2427	2
356.2879	1
357.2744	2
357.7334	0
358.2785	1
358.6818	0
359.2589	2
359.6383	0
360.3287	1
361.3078	1
362.2934	0
363.2871	1
364.2539	1
365.3085	1
366.2957	1
367.2906	1
368.3574	1
369.3033	2
370.3004	1
370.7145	0
371.2959	3
372.3586	2
373.3066	2
373.7719	0
374.3010	1
375.3465	1
376.0096	0
376.4560	0
376.6552	0
377.3025	0
377.7234	0
378.3820	0
379.2224	1
380.0021	0
380.4563	0
381.2882	1
382.3051	1
383.3141	3
384.2835	1
385.3311	5
386.3533	2
387.2863	1
388.4380	0
389.3091	0
390.2727	0
390.8871	0
391.4504	0
392.2180	0
393.3034	0
394.2436	1
395.3021	2
396.2314	0
396.7551	0
397.2438	1
398.3091	1
399.3281	5
400.3361	7
401.3427	15
402.3509	3
403.3657	1
404.5484	0
405.3236	0
406.0014	0
406.4810	0
406.7288	0
407.2420	0
408.2638	0
409.3032	1
409.7222	0
410.3508	1
411.3264	1
412.2975	1
413.3235	4
414.3414	2
415.3611	13
416.4495	0
417.2296	0
417.7236	0
418.3951	0
418.9259	0
419.3080	0
420.3218	0
420.6960	0
421.3853	1
421.7707	0
422.1369	0
423.3110	1
423.7173	0
424.3588	0
425.4019	1
426.3459	1
427.3428	4
428.3479	3
429.3354	18
430.2964	3
431.4873	0
432.3667	0
433.0014	0
433.3900	0
434.2871	0
435.3714	1
436.4126	0
436.9484	0
437.4779	0
437.7946	0
438.3097	0
439.0056	0
439.4392	0
440.4472	0
441.3690	0
442.3515	7
443.3694	5
444.3890	5
445.3287	2
445.8970	0
446.3004	0
446.6734	0
447.2979	0
447.6870	0
448.2698	0
448.5948	0
448.9712	0
449.4516	0
450.1226	0
450.5214	0
451.3831	0
452.1871	0
452.4258	0
453.3950	1
454.4171	1
454.9362	0
455.3480	0
456.1411	0
457.3638	0
458.3718	1
459.2886	0
459.6797	0
460.2022	0
460.7825	0
461.3692	0
462.5620	0
463.5223	0
464.8885	0
465.3131	0
465.6586	0
466.1752	0
466.5895	0
467.4037	0
467.6517	0
468.3651	1
469.3554	1
469.7154	1
470.3618	1
471.4035	2
472.4500	0
472.7637	0
473.1494	0
473.4263	0
473.9512	0
474.3882	0
475.4686	1
476.2337	0
476.6531	0
477.3415	1
478.0283	0
478.6207	0
479.4549	0
480.0185	0
480.8080	0
481.6823	0
482.3405	0
484.0847	2
485.4783	1
486.4010	36
487.4120	1
488.2178	1
488.5896	0
489.2914	1
489.8651	0
490.2833	0
491.4163	1
492.3186	0
492.8330	0
493.4724	1
494.2711	0
495.3853	1
496.6117	0
497.5051	1
498.4162	2
498.9574	0
499.6060	0
500.9736	0
501.4397	1
503.0958	0
503.9191	0
504.4429	0
505.2119	1
505.7998	0
506.4054	3
507.5702	0
508.6534	0
509.3889	0
510.5363	0
511.5010	0
512.3681	1
513.1695	0
513.5093	0
514.0656	0
514.5352	0
515.4714	0
515.9860	0
516.3370	0
516.8918	0
517.3182	0
517.6934	0
518.4871	1
519.4283	4
520.4830	0
520.8047	0
521.3873	0
521.7571	0
522.4503	0
522.9578	0
523.2683	0
524.3794	0
524.8645	0
525.5210	0
526.2415	0
526.5425	0
527.5017	1
528.0606	0
528.4738	0
528.8181	0
529.3898	0
530.2707	0
530.8569	0
531.1340	0
531.7794	0
532.6172	0
533.0833	0
534.1374	0
534.9977	0
535.5408	0
536.0775	0
536.7504	0
537.4330	1
539.4007	2
540.4311	2
541.4456	1
542.2453	0
543.7503	0
544.3610	0
545.2811	0
546.2413	0
546.5139	0
547.3812	0
548.1523	0
548.5018	0
549.4333	0
550.1437	0
550.5718	0
551.3062	0
551.8129	0
552.5169	0
553.4470	0
554.4462	2
555.4710	7
556.4222	1
557.1921	0
558.0134	0
558.7192	0
559.3593	0
559.9817	0
560.5336	0
561.6326	1
562.3642	1
562.9130	1
563.9447	1
565.3500	8
566.2492	0
566.7028	0
567.3560	1
567.7034	0
568.5046	1
569.5551	2
570.5381	1
577.3306	2
580.6705	60
581.7072	4
583.6519	44
584.5745	3
598.6085	999
601.9080	20
603.3197	9
