Mass spectrum: Lutein 5,6-epoxide; FAB-EBEB; MS2; m/z: 584.42; [M]+*
Name: Lutein 5,6-epoxide
Formula: C40H56O3
Exact mass: 584.42295
SMILES: C(O)(C3)C=C(C)C(C3(C)C)C=CC(C)=CC=CC(=CC=CC=C(C=CC=C(C=CC(O2)(C2(C)1)C(CC(C1)O)(C)C)C)C)C
InChI: InChI=1S/C40H56O3/c1-29(17-13-19-31(3)21-22-36-33(5)25-34(41)26-37(36,6)7)15-11-12-16-30(2)18-14-20-32(4)23-24-40-38(8,9)27-35(42)28-39(40,10)43-40/h11-25,34-36,41-42H,26-28H2,1-10H3/b12-11+,17-13+,18-14+,22-21+,24-23+,29-15+,30-16+,31-19+,32-20+/t34-,35-,36-,39+,40-/m0/s1
Instrument: JMS-HX/HX 110A, JEOL
Instrument type: FAB-EBEB
Ms type: MS2
Ion mode: POSITIVE
Collision energy: 3 kV
Ionization: FAB
Base peak: 104.9761
Precursor m/z: 584.42
Precursor type: [M]+*
m/z	relative intensity
0.5775	0
5.3133	4
13.8859	4
14.9697	19
22.5765	0
25.9496	13
26.9625	89
27.9642	9
28.9605	77
29.9465	4
30.2739	0
30.9564	14
31.4743	0
34.2640	0
36.8811	9
37.9356	12
38.4133	1
38.6232	2
38.6995	1
38.9496	180
39.6636	1
39.9666	18
40.9592	325
41.5228	2
41.9614	19
42.3866	0
42.9460	991
43.2300	1
43.3858	2
43.4765	0
43.6873	4
43.9493	7
44.9426	13
46.1170	0
47.9424	0
48.3244	2
48.9719	2
49.4236	0
49.7401	1
49.9388	20
50.9408	75
51.1647	2
51.2586	0
51.6614	3
51.9328	20
52.2290	0
52.9554	175
53.9564	7
54.9671	408
55.9886	4
56.9811	154
57.9877	6
58.9570	56
59.9152	3
60.0597	0
60.9158	15
61.9470	14
62.9573	61
63.1209	3
63.3940	4
63.5673	1
63.9390	10
64.1407	0
64.2888	0
64.4409	2
64.5784	2
64.9606	114
65.1897	2
65.3344	0
65.8194	5
65.9792	27
66.2142	2
66.4557	0
66.9677	233
67.1719	4
67.4444	2
67.9840	8
68.3029	1
68.9647	335
69.5211	4
69.9364	6
70.9534	150
71.4083	1
72.0319	1
72.1468	0
72.5173	0
72.9283	4
73.9518	16
74.9449	20
75.4000	1
75.6296	7
75.9032	12
76.1735	0
76.3181	1
76.6492	8
76.9424	351
77.1672	3
77.2935	8
77.4304	4
77.6008	5
77.9532	90
78.2947	4
78.4503	3
78.6224	1
78.9552	359
79.3450	1
79.5052	4
79.6466	2
79.9561	85
80.5326	1
80.6323	3
80.9658	452
81.3490	1
81.9177	30
82.4616	3
82.9533	199
83.9379	11
84.2098	0
84.5388	1
84.9570	167
85.1834	0
85.5271	2
85.6082	3
85.7718	1
85.9523	8
86.9423	216
87.8574	3
87.9783	7
88.4450	2
88.9352	49
89.2524	2
89.4557	2
89.7982	6
89.9532	26
90.0614	7
90.3856	7
90.9505	722
91.2711	8
91.5529	4
91.9612	83
92.9681	602
93.4353	6
93.9693	50
94.2804	3
94.9711	482
95.3227	4
95.4857	3
95.9786	40
96.9692	119
97.1765	1
97.4353	4
97.7763	6
98.0014	10
98.4183	5
98.7669	5
98.9756	9
99.1684	2
99.5051	5
99.8407	5
99.9891	4
100.6918	3
100.9274	22
101.2205	5
101.3524	5
101.9853	48
102.1605	5
102.3226	3
102.5160	5
102.9617	128
103.1903	9
103.3046	5
103.4227	4
103.5621	7
103.9705	69
104.3898	2
104.5814	1
104.9761	999
105.4013	5
105.5719	2
105.9673	72
106.6402	1
106.9874	488
107.5443	6
107.9992	72
108.1393	9
108.2707	2
108.4846	3
108.9836	345
109.2380	4
109.4232	2
109.6443	2
109.9438	16
110.6397	1
110.9788	83
111.5792	0
111.7986	8
112.0074	7
112.2871	6
112.4834	3
112.7564	3
112.9763	44
113.2818	4
113.5285	2
113.6852	7
113.9358	12
114.1358	4
114.3447	5
114.9540	364
115.3101	6
115.3788	3
115.5379	4
115.9560	177
116.1433	15
116.3337	5
116.5153	11
116.9558	433
117.2421	3
117.4706	3
117.9583	78
118.2630	1
118.4994	5
118.9642	872
119.3468	3
119.4549	5
119.9671	94
120.1965	3
120.2958	3
120.4118	0
120.9651	463
121.3648	3
121.5901	5
121.6524	3
121.9529	49
122.4438	8
122.9472	587
123.1601	10
123.3216	4
123.4459	3
123.6216	2
123.8804	5
123.9976	9
124.9419	92
125.1979	2
125.3367	6
125.4141	2
125.9422	20
126.0888	5
126.2102	4
126.5430	6
126.9354	139
127.3539	13
127.9363	400
128.1889	12
128.3832	8
128.5232	6
128.9334	519
129.2031	7
129.4879	1
129.9486	210
130.2531	5
130.3797	2
130.9443	575
131.3499	3
131.4741	1
131.9418	139
132.1931	2
132.2998	3
132.4586	3
132.9458	471
133.5161	5
133.9432	73
134.1774	3
134.3751	8
134.4964	3
134.9397	223
135.2127	4
135.3179	2
135.4107	3
135.9407	35
136.3938	3
136.9474	148
137.2044	3
137.3021	3
137.5080	0
137.7074	15
137.9646	82
138.3669	4
138.9691	90
139.1978	6
139.3469	3
139.5264	5
139.9425	26
140.1675	10
140.3595	10
140.4635	5
140.9400	350
141.2159	8
141.9300	331
142.3505	4
142.5285	9
142.9474	683
143.2878	6
143.4139	4
143.5816	5
143.9652	232
144.3126	8
144.5723	9
144.9537	804
145.3881	5
145.9570	102
146.3363	1
146.4402	0
146.9647	293
147.2966	10
147.4696	1
147.5557	1
147.7281	7
148.0032	35
148.1206	12
148.2333	4
148.5351	5
148.9671	119
149.2990	3
149.4710	3
149.5672	1
149.8130	11
149.9790	25
150.2362	5
150.4435	5
150.5831	3
150.9760	115
151.3757	10
151.9427	180
152.3421	6
152.6164	8
152.9701	201
153.3239	4
153.4692	6
153.6618	9
153.9818	111
154.2419	6
154.9705	472
155.2782	13
155.5566	9
155.9921	258
156.3060	4
156.4130	2
156.9951	672
157.3061	13
157.4659	5
157.9931	160
158.2548	1
158.3659	5
158.9973	414
159.3262	4
159.6645	7
160.0110	51
160.4106	6
160.9988	178
161.4161	4
161.6470	3
161.8840	13
162.0699	19
162.2969	6
162.5018	4
162.5850	2
163.0110	69
163.2563	4
163.4956	6
163.6327	3
164.0274	26
164.1814	11
164.2507	5
164.4061	3
164.4956	5
164.5938	6
165.0076	264
165.4297	6
165.5657	4
166.0297	100
166.3901	11
166.5127	6
166.6475	13
167.0283	306
167.4645	4
168.0304	120
168.2449	10
169.0318	372
169.3473	10
169.5323	8
170.0385	151
170.3704	5
171.0439	362
171.2979	6
171.4953	3
172.0197	75
172.3224	5
172.5867	3
173.0441	168
173.4799	6
173.7121	5
174.0476	28
174.4473	5
174.6628	4
175.0552	109
175.3525	1
175.4863	1
175.6032	1
176.0135	38
176.1312	13
176.4801	3
176.6012	6
176.7797	10
177.0598	47
177.3372	6
177.5436	9
178.0275	159
178.2821	13
178.5327	5
179.0149	253
179.6356	3
180.0226	131
180.4260	5
180.6335	12
181.0215	299
181.4373	8
181.6816	7
182.0305	128
182.3054	5
182.4208	5
182.5641	3
183.0171	375
183.4111	12
183.4973	5
183.6706	8
184.0498	81
184.2809	5
184.3863	6
184.5474	5
185.0302	197
185.4118	1
185.6471	3
186.0404	44
186.3630	11
186.6360	6
187.0608	114
187.2971	5
187.4388	3
187.8032	5
188.0839	25
188.6571	13
189.0327	94
189.3081	5
189.5331	5
190.0133	55
190.2937	8
191.0055	140
191.4574	9
191.6165	7
192.0207	103
192.3431	7
192.4606	9
193.0038	254
193.4439	2
193.5882	7
194.0291	122
194.2623	12
194.4893	9
194.6323	17
195.0400	355
195.3301	6
195.4711	5
195.6531	3
196.0446	135
196.3410	3
196.4697	5
197.0299	300
197.3580	3
197.5834	8
198.0226	52
198.3385	5
198.4914	0
198.6785	15
199.0625	135
199.2860	5
199.7263	7
200.0700	35
200.5303	4
201.0540	62
201.2764	14
201.7178	11
202.0152	71
202.2645	10
202.5997	11
203.0373	91
203.4386	2
204.0552	44
204.4320	2
204.6658	8
205.0317	144
205.2188	22
205.4224	3
205.5214	4
205.7168	10
206.0485	63
206.4745	2
207.0308	222
207.6064	13
208.0459	111
208.4034	4
209.0401	222
209.4578	5
209.5895	4
210.0652	50
210.1893	29
210.6059	4
211.0542	149
211.4965	7
211.7587	3
212.0844	33
212.3205	4
212.4655	4
212.6477	3
213.0848	68
213.3147	4
213.5413	5
213.7236	10
214.0531	25
214.1650	12
214.2963	5
215.0247	87
216.0554	41
216.3915	1
216.7373	12
217.0479	67
217.3308	4
217.4360	3
217.5972	4
217.6893	1
218.0436	39
218.3640	5
218.5115	4
218.7150	11
219.0536	89
219.4621	3
219.5750	5
219.6907	3
220.0703	66
220.3972	5
221.0839	190
221.4221	6
222.0883	69
222.5598	4
222.7499	11
223.1064	124
223.4761	8
223.6370	5
223.7453	6
223.8507	10
224.1047	43
224.2164	19
225.1139	61
225.3423	6
225.5742	3
225.7762	10
226.0797	16
226.5089	2
226.7562	9
227.1120	48
227.5226	9
227.7081	5
228.1043	40
228.4526	2
228.6562	2
229.0985	78
229.3669	7
229.6910	6
229.8579	6
230.1076	29
230.2913	5
230.4123	5
230.5633	5
231.1249	91
231.3553	10
231.5004	1
231.6885	5
232.1161	44
232.5869	3
233.1029	121
233.4815	6
233.6225	8
234.1234	49
234.3680	5
234.4931	5
234.6015	1
235.1214	110
235.3904	5
235.4857	3
236.1059	29
236.3333	3
236.6692	3
237.1185	67
237.3383	7
237.5178	3
237.6479	4
237.9081	6
238.1503	11
238.7488	4
239.1373	41
239.5898	2
239.8217	1
240.1127	13
240.2381	13
240.4533	3
240.6114	4
241.0885	35
241.5135	4
241.7240	5
242.0912	42
242.3741	3
242.6146	3
243.0879	50
243.5878	3
243.7133	9
243.8130	5
244.0718	22
244.3549	8
244.6269	5
244.8055	11
245.1096	66
245.4382	5
245.6252	5
245.7843	5
246.1033	36
246.4048	13
246.4997	4
247.1202	72
247.4693	2
247.5964	3
248.1550	24
248.2451	10
248.4602	5
248.7215	3
249.1147	62
249.5067	5
249.6541	2
250.0182	15
250.2271	14
250.5863	5
250.7520	10
250.8582	4
251.1022	43
251.2182	28
252.0461	17
252.4601	5
252.5797	5
252.8161	5
253.1147	50
253.3449	4
253.4442	3
253.8661	5
254.1411	9
254.3650	5
254.5022	8
254.7891	9
255.1349	36
255.2434	18
255.7278	2
256.0737	18
256.2292	9
256.3552	2
257.0713	40
257.5228	5
257.6830	8
257.8455	5
258.1143	21
258.3439	5
258.5610	5
259.1184	51
259.3719	9
259.5624	3
260.1459	22
260.3568	5
260.6349	4
261.1198	50
261.7547	5
261.9530	12
262.1213	14
262.2741	15
262.5846	7
262.8363	14
263.1385	43
263.8734	8
264.1469	20
264.5853	2
264.7796	6
265.1725	35
265.5682	1
265.9317	6
266.2229	13
266.5816	5
267.1719	25
267.6591	1
267.9554	6
268.1857	9
268.5874	5
268.8529	6
269.1823	32
269.3972	3
269.7436	9
270.0450	20
270.2578	10
270.5298	2
270.8685	13
271.1756	50
271.4497	5
271.7449	1
272.1835	11
272.6391	6
273.1643	58
273.4548	4
273.8141	4
274.2228	17
274.3163	6
274.7363	5
275.1705	45
275.4613	5
275.6644	5
275.8091	2
276.1316	14
276.3382	7
276.4843	4
277.1302	47
277.3755	7
277.6932	1
278.1501	18
278.4707	2
278.7815	0
279.1303	26
279.3708	3
279.5923	5
280.0790	14
280.2830	7
280.4645	1
280.7832	4
280.9098	2
281.1469	30
281.3193	8
281.5431	1
281.6993	0
282.0005	4
282.1715	10
282.3390	3
282.8359	3
283.0400	31
283.1808	31
283.3336	5
283.7905	1
284.1622	13
284.2812	5
284.7572	3
284.9382	9
285.1587	37
285.3277	13
285.5855	4
285.8905	8
286.1610	20
286.4921	3
287.1248	33
287.3362	14
287.7844	4
288.1911	14
288.5943	4
288.7395	2
289.1949	40
289.3676	4
289.8358	2
290.1327	9
290.3731	5
290.6968	2
290.8830	3
291.1390	22
291.3088	15
291.7202	2
291.8914	2
292.1669	14
292.3092	3
292.8637	5
293.1414	15
293.3218	7
293.4557	5
294.1880	16
294.3431	5
294.5722	3
295.1778	15
295.7342	9
296.0318	2
296.2306	15
296.6489	4
296.9247	4
297.1638	19
297.2886	12
298.1479	17
298.4393	5
298.6333	4
298.8598	3
299.1746	38
299.4413	5
300.0999	4
300.2573	3
300.3391	2
300.5707	3
300.8686	6
301.1842	18
301.9185	8
302.1085	11
302.7172	5
303.1530	17
303.4723	3
303.7965	3
304.1137	9
304.5454	1
304.9919	3
305.1269	8
305.2562	1
305.9622	5
306.1191	8
306.3015	6
306.9193	5
307.2374	8
307.7005	4
307.8589	1
308.1791	6
308.3849	3
308.5391	3
308.6713	2
308.8071	4
309.0433	17
309.2533	7
309.9698	5
310.1106	3
310.8690	5
311.2008	12
311.6848	1
312.1228	15
312.2792	6
312.6699	5
312.8348	2
313.1816	24
313.4293	4
314.1408	3
314.2640	4
314.3624	5
314.8339	2
315.1512	11
315.3147	5
315.4096	4
315.9846	5
316.0880	5
316.2779	10
316.9770	3
317.0931	14
317.1852	11
317.3078	7
317.7888	5
318.2082	3
318.3266	5
318.4825	5
318.6985	5
319.1145	8
319.2818	6
319.3980	3
319.6326	1
320.0557	4
320.3066	5
321.0098	5
321.1771	9
321.4891	5
322.0414	3
322.1931	9
322.3279	5
322.8774	4
323.0966	15
323.2710	2
323.4242	8
323.6427	3
324.1583	2
324.3279	6
324.8287	4
325.0728	17
325.2806	17
325.7922	2
325.9327	4
326.3024	9
327.0482	5
327.2576	8
327.4074	2
328.2045	8
329.1998	12
329.4128	5
329.8112	1
330.0356	6
330.2592	6
330.3722	4
330.8352	1
331.1704	13
331.3203	10
331.4623	5
331.7678	4
332.1592	11
332.2338	5
332.3467	10
332.9832	9
333.2809	16
334.3148	6
334.5742	0
334.8080	2
335.2276	10
335.7025	4
336.1874	7
337.2325	17
338.3033	8
339.2138	5
339.3821	8
340.2395	5
340.7958	5
340.9613	5
341.1425	5
341.3052	8
341.9632	3
342.1515	5
342.3988	5
343.2545	16
343.4002	7
344.0016	4
344.3293	5
344.4778	5
344.8241	5
345.1120	15
345.3459	20
345.6666	3
346.2511	10
347.1144	8
347.3804	13
348.1059	3
348.2539	11
348.3791	2
349.1324	12
349.2576	10
349.3416	5
349.5052	5
349.9314	3
350.2061	5
350.8636	3
351.2051	20
351.4008	17
352.2549	76
352.4827	5
352.8635	6
353.0344	3
353.2522	8
353.4045	4
353.7093	1
354.2197	2
354.5757	2
355.2408	3
355.4210	6
356.3774	5
357.0954	5
357.1908	6
357.3005	5
357.4038	7
357.9901	5
358.1447	5
358.5323	5
359.1820	9
359.2825	5
359.4108	5
359.5091	3
359.6744	3
359.9088	5
360.0749	3
360.2644	6
360.4326	5
360.5174	3
361.2102	12
362.0477	2
362.3289	6
362.5002	3
362.7354	0
363.3053	10
363.5676	4
363.6983	4
364.0537	3
364.1631	0
364.4276	8
364.8412	3
365.2820	28
365.6908	5
366.0832	4
366.2012	2
366.3335	1
366.5382	1
366.9826	3
367.3069	6
367.5479	5
368.2072	5
368.4689	5
368.9774	6
369.1894	5
369.3629	5
370.1497	5
370.2926	6
371.1591	3
371.2979	4
371.4338	4
371.6380	4
372.0379	1
372.3104	4
372.5089	4
372.6484	5
372.7872	2
373.1807	15
373.3487	10
374.0746	5
374.2639	5
374.6227	5
375.1651	8
375.3018	4
375.4278	5
375.9610	3
376.0778	3
376.2365	6
376.7349	4
377.1805	10
377.3044	5
377.4524	3
377.9081	5
378.0056	5
378.2043	4
378.4136	5
379.0217	4
379.2545	10
380.3213	14
381.1019	5
381.3305	5
381.4373	8
381.6425	9
381.8975	1
382.3271	2
382.5073	5
382.6084	3
383.0708	6
383.3551	12
384.2386	3
384.6105	5
385.0701	4
385.2312	5
385.4115	7
386.2147	5
386.3586	7
386.8590	4
386.9709	5
387.0572	5
387.2232	8
387.3401	4
387.4691	3
388.0273	5
388.2569	9
389.2971	11
389.4831	8
390.0407	5
390.1391	8
390.6119	9
390.6975	4
391.0861	8
391.3279	15
391.8913	1
392.1117	9
392.4062	9
392.6388	4
392.9990	3
393.1217	8
393.1930	4
393.3820	7
393.5682	5
393.8336	3
394.2324	5
394.3687	2
394.6012	2
395.2904	7
395.7999	3
396.3122	5
396.7276	2
397.4526	3
398.3369	5
398.4361	5
399.0122	5
399.1021	2
399.5518	3
400.3278	9
401.2481	12
401.4145	10
401.7679	6
402.0364	2
402.1899	8
402.3599	12
402.4948	5
402.6955	4
403.0133	5
403.1989	16
403.3282	13
403.4639	9
403.8024	5
404.2945	16
404.4659	5
405.0181	5
405.3152	7
407.0705	5
407.3163	10
408.1815	5
408.3345	2
408.8603	6
409.2607	3
409.5404	6
409.9116	5
410.3962	3
411.2085	6
411.3634	5
411.5226	4
412.2115	9
412.3607	8
413.1704	1
413.3624	6
413.7437	4
414.1172	4
414.2129	5
414.4585	4
414.5806	1
415.2362	7
415.4340	2
416.2060	3
416.3517	5
416.7439	5
416.9824	4
417.0824	2
417.3453	10
417.7725	4
417.9889	2
418.4054	5
418.7519	0
419.2305	14
419.3948	14
419.4842	5
420.1994	4
420.3408	3
421.3705	6
422.1759	4
422.3174	14
422.4625	11
423.2379	3
423.4495	4
423.6682	4
424.1772	8
424.2822	2
424.6375	4
425.2008	5
425.4796	6
425.6290	5
425.7461	4
425.8846	5
426.0793	7
426.2742	5
426.6274	2
427.1612	6
427.3054	7
427.3953	6
427.4867	8
427.7979	7
427.9013	4
428.0134	3
428.3724	15
428.5815	8
428.8364	2
429.1555	13
429.2982	4
429.4781	7
429.7336	5
430.1120	5
430.4425	8
431.3057	44
432.1282	7
432.3424	5
432.4395	6
432.5388	4
432.9137	5
433.7220	5
435.5525	7
437.3704	6
438.2877	9
438.5356	6
438.7221	5
439.3701	3
439.5159	3
439.7217	2
440.1675	9
440.3783	12
440.6363	8
441.3852	10
441.7154	5
442.3157	2
443.0669	2
443.2506	7
443.3749	6
443.7416	3
443.9425	7
444.3342	10
444.6223	5
444.7896	5
445.2635	33
445.4537	18
445.6839	9
445.9241	8
446.3716	89
446.5947	29
446.8163	4
447.1059	3
447.3047	12
447.7838	4
448.0712	4
448.2206	3
448.7748	3
449.2661	3
450.3339	5
450.7702	2
451.3388	3
451.7079	5
452.2944	7
453.2823	9
454.2646	4
454.3926	6
454.6974	5
455.0838	6
455.2741	1
455.3900	5
455.6075	6
455.7721	3
455.9796	7
456.1728	4
456.3739	4
456.5091	2
456.7195	13
456.8576	5
457.2262	20
457.5002	13
458.1086	14
458.3147	1
458.5179	6
458.6768	4
459.0533	4
459.3088	8
459.5342	5
459.8957	5
460.0668	3
460.5607	6
461.2357	5
461.4093	9
462.3101	9
463.0380	6
464.0675	3
464.2119	8
464.4169	5
464.8942	0
465.1614	3
465.4151	5
465.7559	0
466.2833	5
466.4240	5
466.8221	1
467.2673	4
467.9512	3
468.3607	15
468.4858	1
468.6802	8
468.8889	2
469.1327	4
469.2935	5
469.5615	5
470.2542	7
471.0791	5
471.1784	3
471.3185	5
471.6109	4
472.4967	2
472.9064	0
473.0379	5
473.1595	2
473.4319	6
474.3299	1
474.6481	4
475.2953	4
476.8428	3
477.1461	0
477.4185	10
477.5466	7
479.4070	3
479.5608	4
480.3705	6
480.5000	5
480.9500	1
481.2562	5
481.5087	5
481.7605	5
481.8850	3
482.3837	7
483.0262	2
483.3303	1
483.5965	7
483.7503	1
484.3177	13
484.4551	2
484.6125	5
484.9281	3
485.0684	5
485.2680	9
485.4047	6
485.5972	4
485.7890	3
486.1554	3
486.3279	5
486.5261	4
486.7745	5
487.4601	3
488.3140	3
489.0471	1
489.6474	4
489.7453	5
490.0819	5
490.3092	2
490.4379	3
490.7187	3
490.9882	4
491.3234	14
491.4599	23
491.5664	6
492.0317	6
492.1375	7
492.4077	33
492.6128	18
492.7107	7
493.3777	2
493.6815	5
493.8881	5
494.1668	5
494.4778	3
495.0598	5
495.3178	8
495.5123	8
495.7246	7
495.9491	2
496.5719	6
496.8929	5
497.1160	3
497.3863	18
497.5650	9
497.6837	5
497.9776	5
498.1127	5
498.3230	8
498.7370	6
498.8714	5
499.2447	10
499.3563	5
499.5308	9
500.3189	35
500.5120	11
500.7523	11
501.0140	5
501.1850	3
501.4882	6
501.7943	4
502.1119	3
502.6462	8
502.9380	2
503.5146	3
503.9838	4
504.4195	105
504.7979	11
505.0883	5
505.2572	6
505.4732	5
505.6278	5
506.3074	5
507.0866	5
507.2468	0
507.6017	4
507.9867	2
508.2021	1
508.4389	5
508.9799	4
509.3856	7
509.6060	5
509.8937	5
510.1148	4
510.3603	13
510.6057	10
511.0122	2
511.2584	3
511.5232	8
511.7422	6
512.2410	2
512.4050	7
512.7728	3
513.3655	5
513.5559	4
514.1149	5
514.3655	6
514.4692	8
514.8522	3
514.9653	5
515.0999	1
515.2910	1
515.7978	3
516.1545	2
516.4675	3
516.5826	5
516.7634	7
517.4547	2
517.6920	2
517.9850	2
518.9065	4
519.0652	5
519.4162	4
520.9197	1
521.8828	2
522.2360	2
522.3425	1
522.5027	4
522.6364	4
522.9017	5
523.2120	7
523.5067	5
523.6790	5
523.9979	8
524.4813	5
524.5543	3
524.8403	4
525.2293	6
525.3588	8
525.4617	5
525.5898	5
525.6906	2
526.0246	10
526.1562	5
526.3757	14
526.6118	12
526.8156	6
526.9865	2
527.3069	9
527.5316	8
527.8305	5
528.0444	5
528.3176	40
528.5329	26
528.6910	9
528.8040	2
528.9935	4
529.2811	4
529.3669	3
529.4614	4
529.6838	6
530.3698	4
531.8907	3
532.0231	3
532.4273	4
532.9031	7
533.4197	7
534.2861	4
534.4507	5
534.8042	5
535.0410	3
535.1605	5
535.2986	2
535.5713	5
535.7394	5
535.8475	8
535.9548	5
536.4658	4
537.1921	2
537.5607	2
537.7124	0
538.4488	16
539.0951	4
539.2676	5
539.4086	10
539.6469	7
539.8860	2
540.4643	3
540.7012	12
540.8966	2
541.1658	8
541.3039	5
541.4951	5
541.6883	12
541.8730	5
542.0076	5
542.2424	3
542.7170	5
542.8995	5
543.1458	1
543.4221	3
543.8344	8
544.0399	4
544.2933	3
544.5303	6
544.9012	7
545.1138	9
545.3565	4
545.4532	3
545.6179	3
546.1641	5
546.5443	4
547.2868	10
547.5031	7
547.6771	4
548.0057	4
548.4225	8
548.5843	5
548.7640	6
549.2173	5
549.6606	8
549.8798	1
550.0194	8
550.2708	8
550.4548	8
550.6496	3
550.8416	8
550.9969	5
551.1624	12
551.5663	15
551.9237	12
552.1894	5
552.3420	3
552.5052	4
552.6342	1
552.8713	3
553.1484	5
553.2982	6
553.4292	11
553.7773	9
554.3489	20
554.8289	8
555.1276	8
555.3367	11
555.6791	16
555.8747	9
556.1849	12
556.3518	18
556.5753	11
556.7845	18
556.8819	7
557.2709	17
557.4937	8
557.6800	15
557.8864	8
557.9974	6
558.2116	11
558.4165	20
558.6357	10
558.8156	8
559.0283	9
559.3823	17
559.5081	8
559.7331	10
559.9581	12
560.2567	22
560.4661	9
560.7254	15
561.0891	20
561.2598	14
561.4963	18
561.8828	16
562.2944	28
562.5538	20
562.9839	24
563.5433	22
564.4101	28
564.6945	30
565.1333	37
565.7543	57
566.6433	591
567.6210	58
567.9811	22
568.1677	19
568.3406	30
568.5844	36
569.5700	121
569.8902	33
570.1197	25
570.3956	28
570.7422	23
570.9059	8
571.1089	6
571.3655	16
571.6036	19
571.8495	26
571.9589	10
572.1597	10
572.4178	23
572.6373	4
572.7280	4
572.8624	17
573.0311	6
573.4851	23
573.6531	16
573.9969	19
574.3637	16
574.5989	16
574.8291	23
575.0836	20
575.2824	20
575.5055	19
575.9866	35
576.5793	23
576.8325	16
577.1449	32
577.5267	27
578.1732	46
584.4774	999
585.2384	999
586.0080	518
586.7547	292
587.8867	147
588.7035	84
589.2302	63
589.8184	42
590.7389	26
590.9490	22
591.2084	28
591.4143	21
591.6337	12
591.8052	13
591.9682	11
592.2949	11
592.5622	16
592.7495	9
592.9717	16
593.0790	10
593.2319	8
