Mass spectrum: 7,8-Didehydroastaxanthin; FAB-EBEB; MS2; m/z: 594.37; [M]*+
Name: 7,8-Didehydroastaxanthin
Class: Natural Product; Carotenoid
Formula: C40H50O4
Exact mass: 594.37091
SMILES: CC(=C1C=CC(=CC=CC(C)=CC=CC=C(C=CC=C(C#CC(C(C)(C)2)=C(C)C(=O)C(O)C2)C)C)C)C(=O)C(O)CC1(C)C
InChI: InChI=1S/C40H50O4/c1-27(17-13-19-29(3)21-23-33-31(5)37(43)35(41)25-39(33,7)8)15-11-12-16-28(2)18-14-20-30(4)22-24-34-32(6)38(44)36(42)26-40(34,9)10/h11-21,23,35-36,41-42H,25-26H2,1-10H3/b12-11+,17-13+,18-14+,23-21+,27-15+,28-16+,29-19+,30-20+/t35-,36-/m0/s1
Instrument: JMS-HX/HX 110A, JEOL
Instrument type: FAB-EBEB
Ms type: MS2
Ion mode: POSITIVE
Collision energy: 3 kV
Ionization: FAB
Base peak: 594.2877
Precursor m/z: 594.37
Precursor type: [M]+*
m/z	relative intensity
0.0071	0
0.0798	0
0.5514	0
2.1456	0
2.4659	0
4.6192	0
5.4987	0
5.9185	0
11.0556	0
12.8189	0
13.4147	0
14.9678	1
16.0592	0
18.9609	1
20.7808	0
21.9066	0
22.9188	4
25.9307	2
26.9464	20
27.9567	5
28.9484	17
29.9229	1
30.9193	3
31.9134	1
32.1627	0
32.5677	0
35.5366	0
35.8869	0
36.9172	5
36.9888	1
37.7847	0
37.9208	13
38.6042	0
38.9256	65
39.6419	1
39.9196	10
40.9409	94
41.9437	7
42.9267	86
43.9246	4
44.9363	3
45.9347	1
46.9224	1
47.7295	0
48.9046	2
49.9155	29
50.9157	64
51.9201	24
52.9298	64
53.9269	7
54.9337	90
55.9442	10
56.1294	0
56.9468	26
57.9150	2
58.9422	7
59.8333	1
59.9628	1
60.9043	5
61.5111	1
61.9091	23
62.1149	0
62.2438	0
62.9192	58
63.0559	1
63.2044	0
63.6207	0
63.7426	1
63.9236	13
64.1435	1
64.3783	1
64.9248	62
65.9216	15
66.1854	0
66.6238	1
66.9384	54
67.9317	7
68.9333	57
69.2220	1
69.4729	0
69.9376	7
70.9178	18
71.9356	1
72.1008	0
72.8977	5
73.2538	0
73.5398	0
73.8938	17
74.9032	26
75.1316	1
75.3555	0
75.5479	1
75.7057	1
75.9101	18
76.1263	1
76.1962	0
76.3703	0
76.5533	1
76.6345	1
76.9078	131
77.1353	1
77.3169	0
77.4733	0
77.9027	42
78.1847	1
78.3670	2
78.4599	1
78.6814	1
78.9238	78
79.9194	17
80.4633	0
80.9281	68
81.2449	1
81.4509	1
81.9188	13
82.4316	1
82.9146	28
83.8946	4
84.6011	1
84.6993	1
84.9308	29
85.0707	2
85.9076	12
86.4024	1
86.8820	11
87.9002	8
88.1044	0
88.6555	1
88.9070	32
89.0842	2
89.3043	1
89.4744	1
89.9034	21
90.1501	2
90.3010	1
90.5309	2
90.9194	158
91.3278	0
91.5055	0
91.9175	32
92.3527	1
92.4547	1
92.9309	59
93.9381	11
94.9431	23
95.2945	0
95.9086	4
96.9295	10
97.7960	3
97.9146	3
98.8732	4
99.0644	0
99.9085	4
100.3449	1
100.5441	1
100.9254	6
101.1080	1
101.2043	0
101.6242	1
101.9280	15
102.1811	1
102.3987	2
102.4877	1
102.5925	2
102.9269	37
103.6316	1
103.9309	16
104.5085	1
104.6086	1
104.9355	136
105.9464	27
106.2249	1
106.5154	0
106.9427	49
107.9397	8
108.9472	29
109.2150	1
109.3119	0
109.3923	0
109.9101	7
110.9026	10
111.4523	1
111.6583	0
111.9471	4
112.1602	1
112.3652	0
112.5027	1
112.5817	0
112.9468	7
113.1730	0
113.3930	1
113.5078	1
113.6539	1
113.9155	9
114.1051	2
114.2552	2
114.4244	1
114.9146	125
115.3187	1
115.5177	1
115.9158	53
116.2348	2
116.3783	1
116.4981	1
116.9263	78
117.1797	0
117.6109	0
117.9230	20
118.1009	1
118.4338	0
118.9276	103
119.2248	1
119.4301	0
119.6310	0
119.9150	31
120.4092	1
120.9271	40
121.2561	1
121.6157	1
121.9180	12
122.4596	1
122.9000	17
123.6210	0
123.7952	4
123.9403	10
124.7025	1
124.9347	13
125.2442	1
125.3818	1
125.9007	15
126.1625	1
126.3997	1
126.8958	44
127.0948	3
127.2569	1
127.4677	1
127.8916	128
128.1528	2
128.4493	1
128.9037	113
129.1339	2
129.2102	1
129.3472	2
129.9040	50
130.2037	1
130.5931	1
130.9141	67
131.3875	2
131.9006	25
132.2960	1
132.5783	1
132.9145	43
133.2953	2
133.9073	18
134.1495	0
134.3313	1
134.8586	60
135.4047	1
135.8518	50
136.8515	45
137.0972	0
137.5369	0
137.8626	9
138.0889	0
138.3719	1
138.8591	31
139.2884	0
139.4648	1
139.8573	18
140.1892	3
140.3969	2
140.4928	1
140.8884	92
141.2319	1
141.3226	1
141.4451	3
141.8961	75
142.2771	1
142.4335	1
142.5190	1
142.9082	99
143.2372	1
143.3407	1
143.5372	1
143.9069	47
144.2203	1
144.3903	1
144.5683	2
144.9079	57
145.1863	1
145.6884	1
145.9285	21
146.2678	0
146.4162	0
146.5840	1
146.9216	31
147.2586	0
147.8823	6
148.5244	2
148.8826	20
149.3211	2
149.5434	1
149.8920	13
150.0563	1
150.1992	1
150.3155	1
150.4611	1
150.8822	25
151.2693	2
151.3750	1
151.5228	1
151.8881	78
152.2442	4
152.4269	3
152.9037	83
153.3009	0
153.8927	51
154.1402	1
154.2776	1
154.4594	2
154.8974	79
155.2082	1
155.9185	47
156.4129	2
156.5668	2
156.9345	73
157.2673	1
157.4845	0
157.6197	1
157.9399	30
158.3517	1
158.4998	1
158.9462	38
159.3173	2
159.5060	0
159.9440	12
160.2776	1
160.3579	1
160.9365	22
161.5282	1
161.9447	8
162.1236	0
162.3687	1
162.5991	3
162.9287	26
163.1619	1
163.4038	1
163.9291	19
164.0996	2
164.3661	1
164.5535	2
164.9351	117
165.2661	1
165.9276	75
166.3029	1
166.4764	2
166.9366	65
167.3481	1
167.9435	43
168.2271	1
168.4144	1
168.5278	0
168.9635	72
169.4355	2
169.5244	1
169.6202	1
169.9676	42
170.3138	1
170.4724	1
170.6371	3
170.9631	51
171.3693	1
171.6236	1
171.9546	28
172.3027	1
172.4771	1
172.5966	2
172.9754	20
173.2626	2
173.4344	0
173.9208	8
174.2660	1
174.4291	0
174.5412	1
174.9144	11
175.5959	1
175.9415	23
176.2790	0
176.5444	2
176.9454	21
177.1987	6
177.9221	70
178.9322	94
179.2131	2
179.4736	1
179.9293	62
180.2889	1
180.4855	1
180.9401	59
181.4147	2
181.9386	39
182.3861	3
182.5030	1
182.9480	45
183.2214	1
183.3479	2
183.9416	24
184.4985	2
184.9455	25
185.2124	1
185.4548	1
185.6089	1
185.9657	15
186.3624	1
186.5289	1
186.9421	19
187.3897	1
187.9122	17
188.2064	1
188.4829	3
188.9323	42
189.2494	0
189.9077	33
190.1796	3
190.3699	3
190.9105	54
191.2760	2
191.4135	2
191.9304	47
192.2556	2
192.3230	1
192.4722	1
192.9385	73
193.2859	1
193.4339	2
193.5515	1
193.9410	53
194.2432	1
194.9379	67
195.2038	2
195.3526	1
195.9464	30
196.1911	3
196.4234	2
196.5205	1
196.9369	38
197.1782	2
197.3582	1
197.9321	19
198.2832	2
198.3647	0
198.5296	1
198.9478	11
199.2239	1
199.3641	1
199.5339	2
199.9102	12
200.1782	2
200.2645	1
200.4338	2
200.9291	15
201.2975	3
201.9189	41
202.1692	1
202.4395	3
202.9382	62
203.3643	3
203.9366	33
204.4211	1
204.5353	1
204.9307	39
205.2257	1
205.3566	1
205.5367	1
205.9544	40
206.2828	1
206.5350	1
206.9419	52
207.3883	2
207.9465	41
208.3786	1
208.9634	50
209.2243	2
209.4714	1
209.9378	28
210.2718	1
210.5898	1
210.9704	29
211.6338	2
211.9805	15
212.9688	23
213.3450	3
213.9118	11
214.3611	2
214.5336	3
214.9400	49
215.2545	2
215.3673	2
215.9590	40
216.1999	3
216.3440	2
216.4721	2
216.9610	47
217.2787	2
217.4062	2
217.5336	2
217.9608	24
218.2841	2
218.3782	1
218.9658	39
219.9756	31
220.2204	1
220.3515	0
220.4785	1
220.9620	41
221.2865	0
221.4198	1
221.9558	32
222.3545	1
222.5207	1
223.0046	30
223.2491	2
223.4558	1
223.9861	13
224.3278	1
224.4459	2
224.6520	4
225.0001	26
225.4958	1
225.9845	28
226.3685	3
226.9924	27
227.1974	3
227.3989	1
227.6046	2
227.9902	30
228.2702	2
228.4914	1
228.9850	32
229.3869	0
229.5858	1
229.9941	34
230.5307	1
230.6681	1
231.0065	38
231.2777	2
231.4887	2
232.0134	25
232.2384	2
232.4545	2
233.0019	35
233.3222	1
233.4502	2
234.0007	29
234.3120	3
234.4911	1
234.7570	4
235.0209	29
235.3148	1
235.4268	1
235.5458	1
236.0029	29
236.4209	0
236.6359	3
237.0036	24
237.4469	2
237.6627	3
238.0067	15
238.3031	2
238.6436	1
239.0011	31
239.3999	3
239.5941	1
239.9916	25
240.3815	2
240.5218	1
240.9798	30
241.3747	1
241.5781	1
241.9942	21
242.3745	1
242.6216	1
243.0013	35
243.2027	2
243.3747	0
243.6022	2
244.0031	24
244.4034	2
245.0103	26
245.4458	2
246.0079	22
246.2967	2
246.3803	1
246.5497	0
247.0052	24
247.5971	2
247.7180	2
248.0120	21
248.3601	2
248.5577	2
248.9994	21
249.4236	2
249.6966	3
250.0139	13
250.3144	3
250.9718	17
251.4110	2
251.5152	1
251.9926	21
252.3707	2
252.4855	1
252.5806	1
252.9905	23
253.3758	1
253.4752	1
253.6492	3
253.9874	21
254.3157	2
254.7202	1
255.0275	19
255.1995	2
255.5195	2
255.7134	3
255.9997	16
256.2415	2
256.4354	1
256.7351	3
257.0292	22
257.3424	2
257.5470	2
257.9970	18
258.3864	1
258.6178	1
259.0064	24
259.2463	2
259.5744	1
260.0274	17
260.3562	2
260.5143	1
260.7353	2
261.0289	19
261.2873	3
261.4588	2
262.0018	13
262.3449	2
262.5123	1
262.7616	1
263.0265	19
263.4630	1
263.9731	18
264.3073	2
264.4310	0
265.0034	22
265.3066	1
265.5561	4
265.7484	1
266.0297	15
266.9942	20
267.1250	8
267.6484	1
268.0042	15
268.4315	1
269.0031	20
269.4128	1
269.6039	2
269.9967	18
270.3719	1
270.4639	1
270.9736	19
271.2158	1
271.4324	1
271.6427	1
272.0103	12
272.3637	2
273.0090	21
273.3462	1
273.5162	1
273.6926	0
274.0271	15
274.4246	1
274.6117	2
275.0455	16
275.2503	3
275.4963	2
276.0344	11
276.5092	1
276.7129	2
277.0164	17
277.4127	1
277.7637	3
278.0036	12
278.1798	2
278.3391	1
278.5634	3
278.9967	12
279.3450	2
279.5114	1
280.0084	14
280.3058	1
280.5544	1
280.7202	3
281.0034	12
281.1154	5
281.5007	1
282.0306	13
282.3580	1
282.4685	0
282.6471	3
283.0411	18
283.2813	1
283.4195	1
283.5358	1
283.7449	3
284.0553	15
284.3453	1
284.4707	1
285.0259	13
285.7187	3
286.0023	14
286.2385	1
286.5067	1
286.9720	36
287.3593	2
287.9560	50
288.4904	2
288.9921	18
289.2363	1
289.4308	1
289.6203	3
290.0179	12
290.3515	2
290.6277	2
291.0367	15
291.2924	2
291.5381	1
291.6773	1
292.0083	9
292.2185	2
292.3371	1
292.5325	1
292.6404	1
293.0261	12
293.5351	2
293.6593	1
294.0157	11
294.2707	1
294.4148	2
294.5355	1
294.7592	3
295.0561	15
295.3807	2
296.0292	15
296.4370	3
296.6373	1
297.0381	18
297.4111	1
298.0258	13
298.4189	2
298.5589	1
298.7202	1
299.0614	7
299.3231	1
299.4567	1
300.0020	10
300.1954	1
300.4564	2
300.6918	1
300.9976	14
301.1576	4
301.2714	2
301.4108	2
301.5652	0
302.0332	7
302.2609	3
302.3782	1
302.5575	2
302.9930	11
303.2882	1
303.4312	2
303.5536	1
303.9934	14
304.4632	2
304.9771	12
305.7089	1
306.0143	10
306.3397	1
306.9870	8
307.2576	2
307.4129	1
307.5753	1
307.6906	1
307.9940	11
308.2662	2
308.3609	1
308.7278	1
309.0085	10
309.4131	1
309.5785	2
309.7352	3
310.0139	13
310.1521	6
310.3809	0
310.5890	3
311.0059	11
311.1826	4
311.5376	1
311.9276	6
312.1899	0
312.7824	4
313.0526	14
313.3813	1
313.9996	9
314.5974	1
315.0218	10
315.1587	5
315.2850	2
315.4662	0
315.9521	12
316.1625	2
316.2674	0
316.4936	2
316.5821	1
317.0252	10
317.3635	1
317.7917	4
318.0187	9
318.3692	2
318.6854	1
319.0124	8
319.3872	1
319.6899	3
320.0384	9
320.5811	1
320.9703	10
321.3888	2
321.5496	2
321.7010	2
321.9767	9
322.2739	2
322.3717	0
322.5875	1
322.9876	9
323.1719	3
323.3641	2
323.4506	1
324.0387	8
324.1945	3
324.4474	2
325.0228	6
325.1593	4
325.3330	1
325.5174	1
325.6482	0
325.9942	7
326.1858	3
326.3431	2
326.6241	2
326.6999	1
327.0123	9
327.2132	2
327.6058	1
327.9619	5
328.2223	2
328.4826	0
328.6829	3
329.0119	10
329.1134	5
329.2586	1
329.5798	1
329.9812	11
330.2287	2
330.5256	2
330.6358	3
331.0351	8
331.4795	1
331.6269	2
332.0083	9
332.5479	1
333.0662	8
333.2430	3
333.5737	1
333.9639	8
334.2503	2
334.6011	1
334.7336	1
335.1166	7
335.2906	2
335.5485	0
336.0269	10
336.2625	2
336.7545	3
337.0816	7
337.5213	1
337.8072	2
338.0768	6
338.3649	2
338.5293	1
338.8361	2
339.0184	4
339.2108	1
339.3094	1
339.4296	1
339.7478	3
339.9330	4
340.1275	8
340.2677	1
340.6732	1
340.8742	5
341.1060	6
341.5259	2
341.6068	1
341.9809	4
342.1326	2
342.5053	1
342.5955	0
342.8473	4
343.0870	6
343.2996	2
343.5371	1
344.0309	6
344.1590	3
344.4832	1
344.7423	2
345.0751	7
345.5383	1
345.6407	1
345.8389	3
346.1081	6
346.8298	4
347.0804	10
347.3110	2
347.5580	1
347.7292	1
348.0328	10
348.1280	5
348.5649	1
349.0727	7
349.4452	2
349.7009	2
350.0891	6
350.3900	1
350.5197	2
350.6687	2
351.0757	8
351.4826	1
351.9413	8
352.0523	4
352.2186	3
352.5661	1
352.7482	3
352.8979	1
353.1079	4
353.2656	2
353.5115	1
353.7329	2
353.9602	4
354.1616	2
354.3007	1
354.7222	1
355.0054	6
355.1566	2
355.5474	2
355.7051	0
356.0694	6
356.1676	3
356.3756	1
357.0475	6
357.3408	1
357.5345	1
357.8995	4
358.0875	1
358.2216	1
358.3744	1
359.0494	7
359.2309	4
359.3586	1
359.6176	1
360.0882	6
360.2855	3
360.4341	1
360.8667	3
361.1014	8
361.4968	1
362.1140	8
362.2805	4
362.6178	0
363.0672	10
363.1605	6
363.2883	4
363.7778	1
364.0384	5
364.2402	2
365.0517	4
365.2138	2
365.9348	4
366.1415	2
366.4830	1
366.7701	2
367.0678	7
367.2437	3
367.8522	1
368.0726	4
368.2599	3
368.4802	1
368.5879	0
369.1047	6
369.2777	3
369.3896	1
369.8297	1
370.0458	3
370.1650	1
370.6568	1
370.9612	6
371.1486	5
371.4437	1
372.1237	6
372.2494	3
372.7772	1
372.8648	1
373.1241	5
373.5594	2
373.6520	1
373.7942	0
373.9788	6
374.0887	3
374.2805	3
374.4149	1
374.8135	4
375.0959	12
375.2970	1
375.5269	1
375.6742	2
375.9997	6
376.2605	5
376.5939	1
376.8260	3
377.1105	3
377.3225	2
377.9406	1
378.1835	4
378.5112	1
378.7844	1
379.0444	4
379.2000	2
379.6349	1
379.9391	1
380.1608	1
380.6480	1
380.9035	4
381.1525	3
381.3599	1
381.5960	1
381.9692	3
382.1049	2
382.2470	1
382.3999	0
382.5348	1
382.8600	0
383.1665	5
383.5276	0
383.6733	1
384.0042	4
384.1765	1
384.4357	1
385.0697	5
385.2578	4
385.5393	1
385.7224	2
386.0377	6
386.2272	2
386.3895	1
386.7544	1
386.8549	1
387.1084	4
387.3426	1
387.8109	1
388.1032	8
388.2784	3
388.6714	1
388.8366	2
389.1469	7
389.3222	3
389.7669	1
389.9551	2
390.2009	3
390.5148	1
390.6492	2
390.7282	1
390.8475	1
391.1263	4
391.3131	2
391.7364	2
392.0555	3
392.2136	1
392.7519	1
393.0645	4
393.2349	2
393.5417	1
393.7516	0
393.9960	1
394.1247	2
394.2383	1
394.5309	1
394.6732	1
394.9550	1
395.1915	3
395.5912	1
395.8975	0
396.0226	1
396.2218	2
396.7100	1
397.0235	2
397.4039	1
397.6772	1
397.8512	1
398.0066	2
398.2604	4
398.6315	1
398.7739	1
399.0199	1
399.1810	3
399.2781	2
399.4162	1
399.7888	2
400.0830	3
400.3254	1
400.7261	1
401.0161	6
401.1599	4
401.2866	3
402.0880	4
402.2348	2
402.4831	2
403.0199	5
403.2501	2
403.5725	1
403.9957	4
404.1655	3
404.2670	1
404.7442	1
405.0839	3
405.3149	1
405.7828	1
406.0865	4
406.3227	1
406.6617	1
406.9597	2
407.0843	2
407.4832	1
407.6063	0
407.9569	4
408.0923	3
408.3450	2
408.4955	1
408.5991	1
408.8425	2
409.1205	6
409.6382	2
410.0343	3
410.2619	2
410.5139	1
411.1052	5
411.2449	2
412.0655	4
412.6485	1
412.7851	1
412.9820	3
413.1424	3
413.2560	1
413.5414	1
413.6492	1
414.0698	6
414.5235	2
414.6874	1
415.1822	3
415.3274	1
415.5338	2
415.9717	7
416.1422	5
416.3831	1
416.7485	3
416.8671	1
417.0786	5
417.2195	3
417.7691	1
417.9964	3
418.3021	1
418.4977	1
418.6387	1
418.9380	1
419.1149	2
419.5581	2
419.9459	2
420.0538	2
420.2286	2
420.4394	1
421.0963	4
421.2697	1
421.4273	2
421.9173	3
422.1016	5
422.3779	3
422.5492	1
422.7226	1
422.9738	2
423.1623	3
423.2875	1
423.4344	0
423.7971	3
424.1016	2
424.3995	1
424.9207	3
425.2288	4
425.3885	2
425.5728	1
425.8190	1
425.9493	5
426.1192	8
426.2971	1
426.8025	1
427.1063	4
427.3590	1
427.7809	1
428.0185	4
428.2036	5
428.5987	0
429.0770	4
429.2409	4
429.9415	1
430.1968	2
430.5097	1
430.7860	1
430.9917	2
431.2082	2
431.3399	1
431.5140	1
431.8348	1
432.0550	2
432.2794	3
432.7586	2
433.0190	2
433.1809	4
433.8940	1
434.2495	1
434.4070	1
434.7913	2
435.0281	2
435.1504	2
435.2857	1
435.7420	1
436.0507	2
437.0936	4
437.2146	1
437.4427	1
437.6558	1
437.8314	1
438.0352	3
438.1345	3
438.2741	1
438.4591	4
438.6859	2
438.8623	1
438.9904	4
439.1783	4
439.3036	2
439.4109	2
440.0826	12
441.0366	80
441.3066	9
441.5464	1
442.0159	3
442.2067	1
442.2939	0
442.7958	1
442.8909	1
443.2020	3
443.9107	1
444.1808	2
444.6684	1
445.1366	3
446.0702	4
446.2646	3
446.7250	1
447.0197	3
447.2135	1
447.6991	1
448.0175	2
448.2027	2
448.3540	2
448.6458	1
448.8757	1
449.0299	1
449.2021	1
449.3988	2
450.0538	1
450.2787	4
450.6282	1
450.8401	1
451.0094	2
451.4375	1
451.9060	2
452.0840	1
452.2477	3
452.4365	2
453.0067	2
453.2935	1
453.4334	1
453.5848	1
453.8493	3
454.0468	1
454.3006	2
454.4599	1
454.5594	1
454.7952	1
455.0533	3
455.6106	1
455.8124	1
455.9761	4
456.2025	4
456.3647	1
456.5536	2
457.0858	2
457.1781	3
457.3115	1
457.7953	1
458.1249	2
458.2518	1
458.3427	1
458.7227	1
458.8821	2
459.1447	2
459.2939	2
460.0108	2
460.0909	1
460.2705	1
460.3845	1
460.6881	1
460.8886	1
461.1916	2
461.2803	1
461.7319	1
461.9382	2
462.2505	1
462.4799	1
463.0318	1
463.1927	2
463.4113	2
463.9315	3
464.0871	2
464.5805	1
464.7736	1
465.1885	3
465.4695	2
465.6711	1
465.8901	2
466.1812	3
466.3339	2
466.8245	1
467.0731	2
467.2654	0
467.7885	1
467.9319	1
468.1099	1
468.2842	1
468.4089	1
468.5861	1
469.0394	2
469.1986	2
469.4040	1
469.5193	2
469.9473	2
470.0951	3
470.3062	1
470.4193	1
470.8582	3
471.3447	2
471.5105	0
471.6733	2
471.8939	1
472.0452	2
472.1800	1
472.3328	1
472.4856	2
472.6536	2
472.8056	1
473.1870	4
473.3124	2
473.7535	2
474.1767	1
474.5688	1
474.6827	2
475.1686	3
475.5831	0
476.1203	2
476.2623	2
476.6826	2
476.9955	1
477.1924	2
477.3200	1
477.4808	3
477.7577	1
477.9185	1
478.1002	2
478.3670	3
478.5293	1
478.7888	1
479.1191	4
479.4090	3
480.1937	6
480.5853	2
481.1082	1
481.2380	0
481.4674	1
481.8251	1
481.9398	1
482.0444	3
482.1779	1
482.2925	4
482.4931	2
483.3464	2
483.6039	2
483.7403	1
483.9466	1
484.0570	1
484.2813	2
484.8130	1
485.1507	2
485.2704	1
485.6759	1
486.2113	4
486.4963	3
486.7070	1
487.0165	3
487.1522	1
487.3225	2
487.7792	1
487.9243	1
488.2057	5
488.3298	1
488.4749	1
488.7700	1
489.1525	6
489.4058	2
489.7140	2
490.0251	2
490.3203	2
490.5000	1
491.2217	2
491.4469	1
491.6100	1
491.7140	2
491.8771	1
492.2203	2
492.9084	1
493.0814	1
493.2817	1
493.4777	2
493.6117	1
493.8344	2
494.1190	3
494.3302	3
494.9377	1
495.2656	2
495.6158	1
495.8220	1
496.1290	1
496.3416	0
496.7164	1
496.9860	1
497.1301	0
497.2728	1
497.4501	1
498.0174	2
498.5862	3
498.7144	1
498.9704	1
499.1895	2
499.3553	0
499.5197	1
499.7013	2
499.9111	2
500.1772	3
500.3076	1
500.4460	1
500.8000	1
501.1713	6
501.4438	2
502.2009	9
502.5686	1
502.7006	1
502.9667	2
503.2940	3
503.3712	2
503.5587	1
503.9719	2
504.1428	5
504.3000	2
504.5185	2
504.9548	2
505.1524	1
505.2865	4
505.3990	2
505.6053	2
505.8123	1
506.1743	4
506.3972	1
507.2165	5
507.3911	3
507.5338	2
507.6868	1
507.9782	2
508.1102	1
508.2797	1
508.3763	1
508.6670	2
508.7723	1
509.1071	3
509.3639	1
509.6207	1
510.0607	1
510.2461	2
510.4149	1
510.6783	1
510.8023	1
511.0238	1
511.3441	1
511.6609	2
511.7922	1
512.0375	3
512.1897	1
512.5743	1
512.8384	2
513.0974	2
513.5281	2
513.6458	1
514.1531	2
514.3414	4
514.8978	3
515.0594	1
515.2203	2
515.3242	2
515.4390	1
515.6425	1
515.7811	2
516.1708	2
516.3273	1
516.5085	1
516.6298	2
516.9083	1
517.0628	1
517.2028	2
517.4063	4
517.5103	1
517.8156	1
518.0891	4
518.2327	6
518.5850	2
518.7553	2
518.8952	1
519.0552	4
519.2713	2
519.4406	1
519.6481	2
520.1668	6
520.4686	4
520.9780	2
521.2086	3
521.3693	4
521.4666	1
521.5768	1
521.6633	1
521.7742	2
522.0350	4
522.2462	3
522.4948	4
522.6886	1
522.8817	1
523.1353	3
523.3429	3
523.4891	3
523.6268	2
523.9957	1
524.0952	1
524.3006	1
524.4267	3
524.6422	1
525.2021	3
525.4954	1
525.9113	2
526.1477	1
526.8374	3
527.0176	1
527.4205	1
527.6432	1
527.8321	1
528.1521	1
528.3345	1
528.4815	1
528.6069	1
528.9285	1
529.5116	1
529.6400	0
530.0270	1
530.2614	3
530.3550	2
530.5742	4
530.9037	1
531.0796	1
531.3875	3
531.6268	1
531.8770	2
532.2937	3
532.5929	2
532.9210	1
533.2194	4
533.4502	1
533.5749	1
533.6982	2
533.9044	4
534.0465	2
534.3976	5
534.7682	2
534.8916	1
535.0012	1
535.1779	1
535.3423	3
535.5975	2
535.8370	1
536.0684	1
536.3187	4
536.6252	2
537.0968	4
537.2461	4
537.3889	2
537.9666	3
538.1404	2
538.2854	2
538.4058	5
538.6330	3
538.7123	1
539.1083	1
539.3124	1
539.4509	1
539.6710	1
539.8585	3
540.0352	1
540.2639	1
540.4355	2
540.6736	0
540.9910	2
541.1489	1
541.2521	1
541.4894	0
541.9547	1
542.2267	1
542.4250	1
542.7511	2
543.2338	1
543.4113	2
543.7546	1
543.9350	4
544.1414	1
544.4393	1
544.7207	3
544.8506	1
545.0194	1
545.2524	3
545.4263	2
545.5223	1
545.7301	3
545.8369	2
545.9329	2
546.2027	3
546.3398	2
546.6313	1
546.9055	2
547.0556	5
547.2793	3
547.4337	3
547.6379	1
547.7512	1
548.2520	10
548.5284	7
548.7493	2
549.2256	4
549.6968	1
549.9263	3
550.2706	8
550.4525	1
550.6343	1
551.0457	2
551.2622	4
551.5076	2
551.6599	2
551.9523	1
552.3066	3
552.5383	1
552.7043	2
552.9837	3
553.2190	2
553.4897	1
553.6810	1
553.8564	2
554.0520	2
554.3350	1
554.7789	2
554.9039	1
555.2879	4
555.4944	3
555.6705	2
555.8625	2
556.0813	3
556.2177	1
556.4025	1
556.5801	3
556.6841	1
556.9116	3
557.1209	1
557.2429	3
557.3469	3
557.4682	0
557.6183	3
557.6971	1
557.9642	4
558.1996	4
558.4999	7
558.8118	2
559.0978	3
559.2935	3
559.4574	4
559.6985	2
559.8805	1
560.1318	6
560.4351	5
560.6235	3
560.7687	1
560.9890	3
561.3247	12
561.6743	6
561.8194	2
562.0122	2
562.1559	3
562.3401	6
562.6889	1
563.1092	6
563.3372	3
563.6146	3
564.0216	7
564.2809	9
564.4315	4
565.1786	9
565.4877	7
565.6858	4
566.3494	12
566.7038	4
566.9985	3
567.4323	5
567.8083	5
568.4151	7
568.7357	5
568.8993	4
569.0369	3
569.1717	2
569.4736	6
569.5651	3
569.7957	4
569.9888	6
570.0890	3
570.2332	3
570.4306	8
570.6446	5
570.7714	4
570.8976	3
571.0741	5
571.3415	5
571.7789	10
571.9353	6
572.2380	7
572.5090	9
572.8708	5
573.3652	7
574.0384	10
574.4255	5
574.6821	10
575.1967	17
575.5031	25
576.3601	265
577.3433	37
577.5956	19
577.7744	5
578.2416	21
578.7780	8
579.3071	73
579.9358	5
580.1412	6
580.3878	6
580.5941	3
580.8363	4
581.2076	5
581.4636	3
581.6619	6
582.0079	5
582.2776	5
582.4146	3
582.6324	5
582.7744	4
582.9006	2
583.2835	5
583.8488	7
584.0961	2
584.3197	4
585.0358	6
585.4396	6
585.7764	7
586.0266	5
586.1838	13
586.5480	5
586.7039	9
587.4430	10
588.1836	10
588.4609	10
588.7700	9
589.0942	9
594.2877	999
594.8052	198
595.4681	103
595.8609	70
596.4424	45
596.9109	29
597.5076	20
598.0345	16
598.4965	12
598.8209	8
598.9780	8
599.3340	8
599.4832	5
599.6735	9
599.9070	7
600.3900	6
