Mass spectrum: Violaxanthin; EI-EBEB; MS; POS
Name: Violaxanthin
Class: Natural Product; Carotenoid
Formula: C40H56O4
Exact mass: 600.41786
SMILES: O(C(C)21)C1(C=CC(=CC=CC(=CC=CC=C(C=CC=C(C=CC(O4)(C4(C)3)C(CC(C3)O)(C)C)C)C)C)C)C(CC(C2)O)(C)C
InChI: InChI=1S/C40H56O4/c1-29(17-13-19-31(3)21-23-39-35(5,6)25-33(41)27-37(39,9)43-39)15-11-12-16-30(2)18-14-20-32(4)22-24-40-36(7,8)26-34(42)28-38(40,10)44-40/h11-24,33-34,41-42H,25-28H2,1-10H3/b12-11+,17-13+,18-14+,23-21+,24-22+,29-15+,30-16+,31-19+,32-20+/t33-,34-,37+,38+,39-,40-/m0/s1
Instrument: JMS-HX/HX 110A, JEOL
Instrument type: EI-EBEB
Ms type: MS
Ion mode: POSITIVE
Ionization: EI
Base peak: 600.0000
m/z	relative intensity
27.0000	13
28.0000	114
29.0000	20
32.0000	27
39.0000	28
41.0000	71
43.0000	204
44.0000	102
45.0000	11
51.0000	14
53.0000	19
55.0000	75
56.0000	12
57.0000	85
59.0000	15
63.0000	12
65.0000	26
67.0000	49
69.0000	54
71.0000	20
77.0000	42
78.0000	13
79.0000	60
80.0000	16
81.0000	72
82.0000	13
83.0000	41
85.0000	41
87.0000	19
89.0000	11
91.0000	229
92.0000	117
93.0000	119
94.0000	23
95.0000	96
96.0000	19
97.0000	28
103.0000	15
104.0000	9
105.0000	155
106.0000	47
107.0000	104
108.0000	25
109.0000	74
110.0000	13
111.0000	19
113.0000	13
115.0000	29
116.0000	18
117.0000	46
118.0000	17
119.0000	176
120.0000	75
121.0000	117
122.0000	34
123.0000	92
124.0000	21
125.0000	69
126.0000	13
127.0000	16
128.0000	36
129.0000	61
130.0000	32
131.0000	86
132.0000	36
133.0000	114
134.0000	36
135.0000	94
136.0000	42
137.0000	50
138.0000	16
139.0000	22
140.0000	10
141.0000	36
142.0000	48
143.0000	97
144.0000	51
145.0000	152
146.0000	46
147.0000	92
148.0000	34
149.0000	62
150.0000	20
151.0000	113
152.0000	35
153.0000	30
154.0000	18
155.0000	64
156.0000	53
157.0000	147
158.0000	54
159.0000	115
160.0000	49
161.0000	65
162.0000	27
163.0000	65
164.0000	21
165.0000	142
166.0000	35
167.0000	52
168.0000	28
169.0000	68
170.0000	43
171.0000	92
172.0000	44
173.0000	77
174.0000	28
175.0000	66
176.0000	20
177.0000	33
178.0000	27
179.0000	46
180.0000	70
181.0000	217
182.0000	65
183.0000	83
184.0000	38
185.0000	73
186.0000	31
187.0000	49
188.0000	21
189.0000	46
190.0000	50
191.0000	40
192.0000	22
193.0000	81
194.0000	33
195.0000	65
196.0000	32
197.0000	77
198.0000	32
199.0000	57
200.0000	24
201.0000	40
202.0000	17
203.0000	63
204.0000	21
205.0000	27
206.0000	26
207.0000	83
208.0000	100
209.0000	78
210.0000	38
211.0000	65
212.0000	33
213.0000	43
214.0000	17
215.0000	28
216.0000	17
217.0000	28
218.0000	16
219.0000	52
220.0000	28
221.0000	667
222.0000	122
223.0000	54
224.0000	21
225.0000	40
226.0000	18
227.0000	28
228.0000	15
229.0000	25
230.0000	14
231.0000	23
232.0000	17
233.0000	42
234.0000	142
235.0000	59
236.0000	21
237.0000	38
238.0000	18
239.0000	29
240.0000	38
241.0000	25
242.0000	13
243.0000	22
244.0000	12
245.0000	24
246.0000	19
247.0000	112
248.0000	68
249.0000	34
250.0000	15
251.0000	24
252.0000	12
253.0000	23
254.0000	13
255.0000	19
256.0000	16
257.0000	25
258.0000	12
259.0000	42
260.0000	27
261.0000	48
262.0000	18
263.0000	24
264.0000	13
265.0000	20
266.0000	10
267.0000	18
268.0000	10
269.0000	20
270.0000	12
271.0000	31
272.0000	21
273.0000	41
274.0000	209
275.0000	59
276.0000	15
277.0000	19
278.0000	11
279.0000	17
281.0000	22
282.0000	14
283.0000	21
284.0000	15
285.0000	38
286.0000	58
287.0000	174
288.0000	47
289.0000	20
290.0000	9
291.0000	17
292.0000	13
293.0000	13
294.0000	10
295.0000	14
296.0000	9
297.0000	28
298.0000	27
299.0000	142
300.0000	99
301.0000	31
302.0000	10
303.0000	11
305.0000	9
307.0000	10
309.0000	13
310.0000	13
311.0000	36
312.0000	69
313.0000	70
314.0000	26
315.0000	13
323.0000	13
324.0000	12
325.0000	75
326.0000	41
327.0000	58
328.0000	24
329.0000	11
333.0000	10
335.0000	10
337.0000	16
338.0000	13
339.0000	36
340.0000	99
341.0000	34
342.0000	11
343.0000	9
347.0000	10
349.0000	11
350.0000	12
351.0000	19
352.0000	293
353.0000	96
354.0000	22
361.0000	10
363.0000	15
364.0000	16
365.0000	80
366.0000	50
367.0000	21
368.0000	9
372.0000	10
373.0000	10
374.0000	10
375.0000	11
376.0000	11
377.0000	24
378.0000	25
379.0000	50
380.0000	19
385.0000	10
387.0000	17
388.0000	10
389.0000	11
390.0000	19
391.0000	35
392.0000	41
393.0000	17
394.0000	9
399.0000	9
400.0000	19
401.0000	11
402.0000	10
404.0000	12
405.0000	13
411.0000	11
412.0000	13
413.0000	33
414.0000	15
417.0000	11
418.0000	11
419.0000	56
420.0000	49
421.0000	20
425.0000	18
426.0000	29
427.0000	76
428.0000	28
429.0000	13
436.0000	9
438.0000	17
439.0000	12
440.0000	126
441.0000	44
442.0000	18
446.0000	10
450.0000	9
451.0000	13
453.0000	15
454.0000	30
455.0000	16
477.0000	10
489.0000	10
490.0000	17
491.0000	21
492.0000	34
493.0000	36
494.0000	23
495.0000	10
502.0000	20
503.0000	11
504.0000	65
505.0000	38
506.0000	31
507.0000	75
508.0000	160
509.0000	57
510.0000	15
518.0000	17
519.0000	13
520.0000	330
521.0000	131
522.0000	34
549.0000	14
550.0000	12
551.0000	12
564.0000	26
565.0000	15
566.0000	30
567.0000	19
568.0000	17
569.0000	10
580.0000	18
581.0000	9
582.0000	67
583.0000	31
584.0000	145
585.0000	89
586.0000	32
587.0000	9
596.0000	11
598.0000	79
599.0000	56
600.0000	999
601.0000	445
602.0000	124
603.0000	28
