Mass spectrum: Mytiloxanthinone; FAB-EBEB; MS2; m/z: 596.39; [M]+*
Name: Mytiloxanthinone
Formula: C40H52O4
Exact mass: 596.38656
SMILES: O=C(C=C(C(=CC=CC(C)=CC=CC=C(C)C=CC=C(C#CC(=C2C)C(C)(C)CC(C2)O)C)C)O)C(C1(C)C)(C)CC(C1)=O
InChI: InChI=1S/C40H52O4/c1-28(17-13-18-30(3)21-22-35-32(5)23-33(41)25-38(35,6)7)15-11-12-16-29(2)19-14-20-31(4)36(43)24-37(44)40(10)27-34(42)26-39(40,8)9/h11-20,24,33,41,43H,23,25-27H2,1-10H3/b12-11+,17-13+,19-14+,28-15+,29-16+,30-18+,31-20+,36-24-/t33-,40+/m1/s1
Instrument: JMS-HX/HX 110A, JEOL
Instrument type: FAB-EBEB
Ms type: MS2
Ion mode: POSITIVE
Collision energy: 3 kV
Ionization: FAB
Base peak: 82.9579
Precursor m/z: 596.39
Precursor type: [M]+*
m/z	relative intensity
0.0127	0
0.7488	0
2.3059	0
5.8626	0
12.9698	0
13.9741	2
14.9791	2
17.1001	0
17.7279	0
18.9716	0
22.9441	1
24.9509	2
25.9564	8
26.9555	47
27.0754	1
27.9612	6
28.9648	36
29.9303	1
30.9493	6
32.2820	0
34.7784	0
35.0139	0
35.9274	1
36.1783	1
36.7871	0
36.9321	7
37.0978	1
37.2987	1
37.4750	1
37.7593	0
37.9335	21
38.0699	0
38.6581	0
38.9415	143
39.2245	0
39.4756	0
39.9523	21
40.0905	0
40.3203	0
40.4958	0
40.9562	275
41.4228	0
41.9338	9
42.9484	136
43.2953	1
43.3813	0
43.9283	5
44.0617	0
44.9508	5
46.2211	0
47.9316	1
48.3386	0
48.9323	4
49.1696	1
49.4529	0
49.9319	45
50.9334	100
51.3902	0
51.5360	1
51.9434	30
52.9485	136
53.5151	0
53.9431	9
54.3204	1
54.9588	303
55.1876	0
55.6194	0
55.9603	17
56.2033	0
56.9735	77
57.4733	0
57.9721	1
58.7022	0
58.9596	14
59.1863	1
59.5570	1
59.9367	1
60.2731	0
60.5285	0
60.9248	9
61.1080	0
61.3520	0
61.9311	32
62.1449	1
62.3148	0
62.9349	87
63.1508	1
63.2613	0
63.3449	0
63.4618	0
63.6236	0
63.7281	0
63.9391	18
64.1953	1
64.3757	1
64.5494	1
64.9475	133
65.6612	1
65.9556	34
66.1333	0
66.3395	0
66.4372	1
66.5032	0
66.6528	0
66.9569	137
67.9483	11
68.6836	1
68.9315	488
69.1749	1
69.9303	5
70.9386	47
71.2035	1
71.3505	1
72.9432	3
73.0905	0
73.9043	29
74.9205	47
75.1480	1
75.2782	1
75.3686	1
75.5853	1
75.9226	27
76.1166	0
76.2431	2
76.3338	0
76.5599	0
76.9278	287
77.2063	2
77.3693	1
77.5725	1
77.9356	57
78.2173	2
78.5390	1
78.9405	210
79.2861	1
79.4079	1
79.5928	0
79.6737	0
79.9402	15
80.1575	0
80.5950	0
80.9500	147
81.2223	1
81.4434	1
81.9256	17
82.2256	0
82.4192	1
82.6398	1
82.9579	999
83.2137	1
83.3315	1
83.4998	0
83.7476	1
83.9402	7
84.3027	0
84.9420	92
85.1955	1
85.4366	1
85.5333	0
85.8992	14
86.1637	1
86.4400	0
86.9074	24
87.2449	0
87.5960	0
87.9213	11
88.2925	1
88.4617	1
88.6219	1
88.9243	55
89.2103	3
89.4771	2
89.6780	2
89.9426	16
90.0905	2
90.1939	2
90.4178	2
90.9334	501
91.3398	1
91.5914	1
91.9437	44
92.2177	1
92.4938	1
92.9441	175
93.2551	1
93.4116	1
93.6890	1
93.9308	17
94.2764	0
94.4456	1
94.9493	142
95.1688	1
95.4682	1
95.5548	1
95.7313	2
95.9487	14
96.4154	1
96.5965	1
96.9577	66
97.5056	1
97.5877	0
97.8999	10
98.9236	15
99.6043	0
99.9071	4
100.4496	0
100.5953	1
100.9257	20
101.1411	2
101.3841	1
101.5082	2
101.6385	1
101.9332	43
102.1666	2
102.2488	0
102.4201	2
102.9345	114
103.1960	1
103.5388	1
103.9441	41
104.3283	2
104.6314	3
104.9543	449
105.3575	2
105.4888	0
105.6151	0
105.9499	32
106.3027	1
106.4563	1
106.9594	184
107.3299	2
107.4934	1
107.9520	22
108.2380	0
108.4722	4
108.6920	0
108.9606	106
109.1774	2
109.3365	1
109.4665	1
109.5877	1
109.9285	21
110.1075	1
110.3209	1
110.5693	3
110.9221	512
111.3387	1
111.4183	0
111.5468	1
111.9308	7
112.1289	1
112.2296	1
112.4361	3
112.9118	22
113.0891	3
113.3023	4
113.4594	3
113.9269	18
114.0893	4
114.3047	3
114.4972	5
114.9220	353
115.2536	4
115.4035	4
115.5136	1
115.9212	95
116.3168	3
116.5632	4
116.9386	231
117.2193	3
117.3163	1
117.5514	2
117.9352	40
118.1641	2
118.3906	2
118.5148	1
118.9416	444
119.2417	1
119.4363	3
119.6284	1
119.9508	23
120.2417	1
120.4269	1
120.5250	1
120.9395	162
121.1759	1
121.3026	1
121.4415	2
121.5087	1
121.8999	26
122.1780	0
122.2952	0
122.5210	0
122.9289	61
123.2626	1
123.5782	1
123.9083	19
124.3851	2
124.9421	422
125.2572	4
125.4847	2
125.9176	28
126.0705	3
126.2956	3
126.5201	2
126.9114	139
127.2240	5
127.4696	6
127.9109	380
128.2005	5
128.9118	350
129.2312	2
129.3403	1
129.5088	2
129.9153	118
130.2226	1
130.3449	3
130.4993	2
130.9253	246
131.1407	4
131.2442	2
131.4275	1
131.6083	2
131.9235	52
132.1103	3
132.4119	3
132.9255	161
133.5681	1
133.9038	20
134.2343	2
134.5169	1
134.9042	140
135.2799	1
135.4010	3
135.5016	1
135.6228	2
135.8967	14
136.2187	1
136.2912	1
136.4566	2
136.8949	109
137.2175	1
137.4030	1
137.8961	28
138.3102	2
138.8964	113
139.1854	1
139.3362	2
139.8965	23
140.2427	4
140.9031	294
141.1522	4
141.3471	4
141.4551	2
141.9114	239
142.1867	2
142.9141	347
143.3272	2
143.9232	101
144.2949	3
144.4431	2
144.9234	262
145.2955	2
145.9154	50
146.2018	1
146.3351	2
146.4330	1
146.5316	1
146.9236	217
147.3631	3
147.9276	21
148.3815	3
148.9218	57
149.2940	2
149.4457	1
149.9023	22
150.2274	2
150.9166	135
151.1937	5
151.4548	6
151.9063	184
152.9171	298
153.1733	6
153.2820	3
153.4424	4
153.9121	82
154.9208	276
155.2534	5
155.4812	2
155.9303	156
156.1906	3
156.3541	3
156.9456	312
157.9435	81
158.3100	3
158.4893	3
158.9463	185
159.3300	3
159.5736	2
159.9345	29
160.2497	2
160.3732	1
160.9425	137
161.3248	2
161.9310	28
162.1811	2
162.3238	3
162.9379	75
163.3852	4
163.9389	52
164.2518	7
164.5247	8
164.9387	373
165.2335	4
165.3806	3
165.5440	4
165.9535	119
166.2499	4
166.4392	2
166.9468	248
167.3283	2
167.5523	1
167.9714	78
168.9655	238
169.3639	4
169.5196	2
169.9815	91
170.9735	189
171.2729	3
171.6287	6
171.9656	47
172.3331	3
172.9693	117
173.2739	1
173.4459	2
173.9417	38
174.4139	4
174.9353	357
175.3016	3
175.9432	42
176.9525	85
177.1809	10
177.9434	226
178.3030	2
178.9418	299
179.3017	1
179.9437	114
180.3427	4
180.9510	236
181.2812	6
181.4658	4
181.9610	93
182.3311	4
182.9656	212
183.2825	2
183.9605	46
184.3400	2
184.4832	2
184.9622	100
185.5079	4
185.9667	26
186.4105	2
186.9388	62
187.4646	3
187.9432	26
188.1155	7
188.2501	4
188.9309	156
189.9331	49
190.4151	6
190.9496	195
191.4773	3
191.9488	151
192.2365	5
192.3598	3
192.9389	274
193.2613	4
193.4756	2
193.9469	119
194.4970	7
194.9479	394
195.3493	4
195.4921	4
195.9446	63
196.3517	2
196.5347	3
196.9633	148
197.3265	3
197.9591	33
198.3771	4
198.9479	69
199.2223	3
199.3405	2
199.4905	2
199.9420	30
200.9277	67
201.4993	4
201.9326	141
202.9332	148
203.2989	4
203.9364	63
204.9422	161
205.3027	1
205.9520	95
206.9519	237
207.9579	86
208.9644	168
209.9519	41
210.4163	2
210.9573	88
211.3106	5
211.4797	2
211.9757	23
212.3348	3
212.9515	75
213.3908	4
213.9340	20
214.1144	7
214.4954	16
214.9476	159
215.5225	3
215.9659	57
216.4971	6
216.9721	152
217.3173	3
217.9592	70
218.2202	3
218.4861	4
218.9782	156
219.4593	4
219.9844	83
220.2785	4
220.4971	4
220.9932	153
221.3237	4
221.9989	52
222.4687	4
223.0078	94
223.3575	3
223.5317	4
224.0151	31
224.1753	9
224.3608	3
225.0096	65
225.2538	5
225.4835	5
225.9848	45
226.3707	4
226.5633	3
226.9780	59
227.3962	4
227.9821	60
228.4874	5
229.0020	115
229.6268	3
229.9964	47
230.3914	3
231.0151	143
231.4067	2
231.5758	3
232.0265	68
233.0190	140
233.3622	4
233.5191	2
234.0348	63
234.4853	7
235.0334	167
235.5178	21
236.0296	30
236.3585	2
236.5394	2
237.0304	79
237.2794	5
238.0260	18
238.9952	86
239.3427	5
239.9908	23
240.1804	9
240.3975	6
240.9945	63
241.4484	4
241.9930	33
242.4969	5
243.0129	103
243.3848	3
243.5430	4
244.0071	49
245.0179	128
246.0115	52
247.0132	143
247.3906	3
248.0089	44
249.0281	79
249.5354	4
249.9893	22
250.2606	2
250.4939	5
251.0304	42
251.9880	43
252.2821	4
252.4922	5
253.0044	59
253.4467	3
253.6267	2
254.0106	25
254.2329	5
255.0192	70
255.3849	2
255.4767	1
256.0140	34
256.2612	4
256.5381	4
257.0219	103
258.0266	47
258.3503	1
259.0172	100
259.4213	4
260.0297	33
260.3711	4
260.4609	2
261.0462	110
261.4379	4
261.5955	3
262.0219	19
262.3303	1
262.4915	4
263.0333	68
263.3510	2
263.4656	3
264.0302	23
264.4562	4
265.0167	41
265.4053	3
265.5441	2
266.0135	18
266.3208	4
267.0403	63
267.3314	2
267.5963	1
268.0362	25
268.4280	5
269.0339	63
269.6235	5
270.0226	29
270.2827	4
270.4749	4
271.0428	66
271.4973	3
272.0392	31
272.4449	3
273.0380	66
273.4722	3
273.5807	1
273.7354	3
274.0548	21
274.4125	1
274.5161	1
275.0534	54
275.5717	1
276.0161	23
276.4230	2
277.0588	43
277.3176	3
277.5204	2
277.7288	4
278.0876	15
279.0232	47
280.0129	20
280.4883	2
281.0618	52
281.4955	3
282.0684	28
282.4986	3
283.0440	62
283.4722	2
284.0475	26
284.6698	3
285.0556	56
285.4563	2
286.0696	27
286.2586	4
286.5067	4
287.0569	46
287.3889	2
287.5062	1
287.7650	3
288.0657	17
289.0492	29
289.5514	3
290.0657	11
290.2606	3
290.4947	2
291.0646	20
291.3955	2
291.5058	1
291.7485	3
292.0858	11
292.3876	3
293.0596	29
293.3264	2
293.6435	3
294.0687	17
294.3680	1
294.5664	4
295.0835	43
295.4427	1
296.0509	18
296.4066	3
297.0576	39
297.3472	2
298.0340	24
298.4475	2
298.5728	1
299.0647	55
299.3495	3
299.4534	2
300.0401	15
300.3135	1
300.4652	1
300.6632	2
301.0770	43
301.4138	3
301.5421	2
302.0243	7
302.2858	2
302.5536	1
303.0773	22
303.3574	1
303.5982	2
303.9653	7
304.2190	4
304.4998	2
305.0515	23
305.4785	1
305.6625	3
306.0375	8
306.3085	1
306.5580	2
307.0522	35
307.9944	9
308.4232	2
308.5887	2
309.0431	22
309.4933	1
309.7595	4
310.0414	10
310.3425	0
310.5623	1
311.0370	28
311.3254	4
311.4110	2
311.6323	2
312.0314	14
312.5055	2
313.0503	65
313.4009	2
313.5744	1
314.0358	13
314.3251	1
315.0530	31
315.6009	1
316.0796	9
317.0479	24
317.6740	2
318.0822	7
318.3474	1
318.6176	1
319.0487	21
319.2167	6
319.4677	3
319.6321	1
320.0604	12
320.1813	6
320.5145	1
321.0602	16
321.1897	9
321.4858	1
321.6582	1
322.0602	8
322.2298	4
322.5231	2
322.6576	1
323.0511	16
323.2271	7
323.3388	4
323.5785	2
324.0515	15
324.2562	2
324.4165	0
324.5704	4
325.0385	19
325.3699	1
325.6147	3
326.0572	7
326.4445	1
326.5927	3
327.0753	28
327.5501	2
328.0543	10
328.3085	3
328.5570	3
328.7576	2
329.1143	23
329.7741	3
330.0822	11
330.2126	5
330.5422	1
330.6891	1
331.1075	30
331.3863	2
331.5526	2
331.6830	2
332.0672	12
332.4169	2
332.6191	1
333.1094	39
333.3302	4
333.5582	1
333.8292	2
334.1066	12
334.3690	2
334.6243	0
335.0904	17
335.5652	2
335.7502	1
336.0687	6
336.3412	2
336.4847	1
337.0930	15
337.2874	4
337.3878	2
337.6627	1
338.0542	7
338.4207	0
338.5345	0
339.0693	21
339.3744	1
339.8161	2
340.1427	6
340.3174	3
340.4928	1
340.7198	4
341.0808	16
341.7706	3
342.1008	6
342.2849	2
342.6803	2
343.0987	9
343.5035	2
343.7357	2
344.0674	5
344.4035	1
345.0793	16
345.6298	2
346.1057	17
346.4677	2
346.6606	2
346.7602	1
347.1165	30
347.5955	2
347.6822	1
348.1246	20
348.5434	2
349.1078	29
349.4549	1
349.5926	0
349.7267	1
350.0000	5
350.1649	3
350.2934	1
350.4002	2
351.0480	10
351.4103	2
351.7367	1
352.1120	6
352.2899	2
352.3969	1
352.7025	2
353.0972	20
353.3972	1
353.5881	1
354.1264	6
354.4809	1
354.5965	1
355.0732	14
355.2741	7
355.5082	1
356.0717	5
356.3302	1
356.4386	2
356.6792	2
357.0999	15
357.5502	1
357.6744	1
357.8590	2
358.0378	2
358.2683	2
358.5506	2
358.7531	1
359.1173	9
359.3450	2
359.4987	1
359.8127	1
360.1201	14
360.4384	1
360.5699	1
360.8745	4
361.1260	6
361.4084	1
361.7166	0
362.1492	4
362.3583	1
362.4748	1
362.6228	1
362.7090	0
363.0806	4
363.4996	1
364.0474	1
364.2005	4
364.3385	1
364.4744	1
365.1112	8
365.3103	2
366.0412	3
366.4365	1
366.5659	1
366.6989	1
367.1093	15
367.2768	9
367.7800	2
368.0381	3
368.2035	6
368.3990	1
368.5428	0
368.6729	0
369.1015	8
369.4588	2
369.7831	2
370.1053	4
370.2772	2
370.4383	1
370.5915	1
370.7130	1
371.1223	14
371.4632	1
371.7171	1
371.7991	1
372.1436	12
372.5767	1
372.7976	1
373.1674	15
373.5659	2
373.7523	1
374.1898	8
374.4582	1
375.1000	5
375.4261	1
375.8320	1
376.0558	4
376.2249	0
376.3710	1
376.4524	1
376.6367	1
377.0909	6
377.2686	5
377.5314	1
377.8676	1
377.9785	1
378.1433	1
378.5890	1
378.7747	1
379.0844	11
379.4573	2
379.7168	1
379.9367	1
380.0855	2
380.2954	1
380.6154	1
380.7864	0
381.1481	6
381.6413	1
381.7758	1
382.1202	2
382.4430	2
382.7263	1
383.1672	11
383.5598	1
383.7490	1
383.9641	2
384.1273	2
384.2338	1
384.4661	2
384.7473	1
385.1646	10
385.6789	2
386.1422	8
386.6005	2
386.8904	1
387.1559	5
387.4006	1
387.5905	1
387.8863	1
388.0043	1
388.1432	1
388.3137	3
388.6491	1
388.8239	1
389.1053	6
389.2068	1
389.3508	1
389.6999	0
389.9194	1
390.0446	1
390.1612	1
390.4081	0
390.7925	1
391.1193	10
391.5081	1
391.5945	1
391.9149	1
392.1366	3
392.7011	2
392.8559	2
392.9725	2
393.1028	4
393.2663	4
393.6307	1
393.8208	1
393.9857	1
394.0591	1
394.2154	1
394.2917	0
394.7397	1
395.1178	6
395.3116	3
395.8532	2
396.0780	2
396.2897	2
396.4475	1
396.7450	1
397.1477	7
397.5468	1
398.2270	2
398.4482	1
398.7709	1
398.9129	5
399.1464	9
399.3445	2
399.5175	1
400.1884	10
400.5365	1
400.7368	1
401.1931	34
401.6414	1
401.7776	1
402.1741	5
402.5857	1
403.0413	4
403.1653	2
403.3253	2
403.5308	1
403.6678	1
403.8589	1
404.1429	2
404.4465	1
404.6765	1
405.1207	5
405.2534	3
405.6846	1
405.9413	1
406.1800	1
406.3105	1
407.1133	7
407.4501	1
407.9362	1
408.1252	2
408.4570	0
408.6814	1
409.1813	7
409.4273	1
409.6502	1
409.8479	2
410.0002	1
410.2216	4
410.5723	1
410.9107	3
411.1416	4
411.3271	3
411.6814	1
411.9872	1
412.1981	5
412.3664	2
412.5247	1
412.7355	0
413.1471	9
413.3464	5
413.4680	1
413.6313	1
413.8465	0
414.0840	2
414.3452	2
414.4978	1
414.6691	1
414.9965	4
415.1844	9
415.3412	4
415.4845	1
415.7148	1
415.9055	1
416.1035	3
416.2683	1
416.7311	0
416.9262	2
417.1789	3
417.5554	1
417.6986	1
417.8124	1
418.0492	1
418.2515	1
418.7375	1
418.9571	1
419.1817	2
419.8549	2
420.0127	1
420.2733	0
420.6384	1
420.9697	1
421.1425	2
421.3262	1
422.2423	1
422.4022	1
422.7702	1
422.9892	3
423.2478	4
423.3998	1
423.8572	1
424.1252	4
424.2577	2
424.3485	1
424.4731	1
425.1583	8
425.4818	2
425.8341	1
426.1201	6
426.3183	4
426.4746	1
426.6749	0
426.8198	1
427.1174	8
427.4071	1
427.7155	1
428.1248	9
428.5371	1
429.0999	10
429.2598	4
429.8513	2
430.0206	2
430.2252	1
430.3621	1
430.4766	1
430.7554	1
430.8952	1
431.1719	3
431.3888	1
431.5934	1
431.7966	1
432.0041	2
432.0927	1
432.3075	1
432.7427	2
433.1780	8
433.5549	1
433.6558	1
434.0406	2
434.2064	3
435.0158	2
435.1210	2
435.5831	1
435.7618	1
435.8707	1
436.2052	1
437.0897	6
437.3507	0
438.2793	1
438.9946	1
439.2138	5
439.3933	1
439.5101	0
439.6342	1
439.9075	1
440.0848	1
440.3134	2
440.4570	0
441.1226	4
441.3361	2
441.4731	1
441.5719	1
441.8878	1
442.1843	4
442.4720	1
443.1342	16
443.4797	1
443.6168	1
443.7755	0
444.0951	4
444.3735	4
445.1101	3
445.2530	3
445.4485	1
445.6902	1
445.9918	2
446.1866	1
446.3923	2
446.8707	0
447.0648	2
447.2473	4
447.4082	1
447.5547	1
447.9242	1
448.0758	1
448.1746	0
448.3500	1
449.0818	4
449.2305	3
449.6116	1
450.0244	1
450.1175	0
450.2511	2
450.4647	2
450.8523	1
451.1165	5
451.4305	1
452.1257	1
452.5055	1
453.0419	5
453.2325	4
453.3957	1
453.6274	1
453.9863	4
454.1993	3
454.4534	1
454.7242	0
454.9690	4
455.0520	2
455.2903	2
455.5323	1
455.6738	0
455.8168	1
456.0667	4
456.2284	5
456.6790	1
457.0965	4
457.4302	1
457.5334	1
457.9336	4
458.1069	1
458.4089	2
458.5179	1
458.7946	1
459.0908	2
459.5646	1
459.8463	2
460.4467	3
460.5767	1
460.7841	1
460.9004	1
461.0947	2
461.4206	2
461.6185	1
461.8685	0
461.9834	1
462.1272	1
462.3707	2
462.6359	2
462.9805	2
463.1439	3
463.3592	1
463.4958	1
463.6714	1
464.0154	2
464.3066	1
464.4612	1
464.7111	2
465.0258	2
465.1969	3
465.3500	1
466.2618	1
466.5484	0
466.7895	3
466.9426	1
467.2191	1
467.3577	1
467.7007	1
467.9375	1
468.1404	2
468.3116	3
468.4827	3
468.9203	3
469.2344	3
469.5391	1
469.7810	1
470.1494	4
470.3732	2
470.4873	1
470.6130	2
471.1886	18
471.7195	3
472.0250	1
472.1608	2
472.3023	0
472.4872	1
472.5804	1
473.1424	5
473.3562	3
473.5498	0
473.8055	1
474.1075	1
474.2332	1
474.4109	1
474.5800	1
474.7757	0
475.0662	2
475.2020	1
475.3833	3
475.5220	1
475.8797	1
476.0820	1
476.2286	1
476.3876	1
476.6058	1
476.8211	0
476.9490	1
477.1788	3
477.3876	2
477.4967	1
477.6492	3
477.9852	1
478.1825	2
478.5250	1
478.7743	2
479.0041	1
479.2281	3
479.4110	3
479.6307	2
479.8164	2
480.0123	0
480.3014	4
480.6664	5
481.5258	11
482.2118	8
482.5255	7
482.6267	3
483.0228	5
483.2614	5
483.4320	2
483.5925	1
483.8752	2
484.1253	4
484.2793	2
484.3834	1
484.6501	2
484.8757	1
485.0507	1
485.1859	1
485.4455	4
485.7520	0
486.0868	2
486.2661	2
486.4606	1
486.6067	1
486.7484	2
486.8706	2
487.1136	2
487.2719	1
487.4549	1
487.7485	2
487.8924	2
488.0052	1
488.3278	3
488.4109	2
488.6987	1
489.1833	4
489.3185	2
489.4314	2
489.5956	2
489.8393	3
490.0599	4
490.1937	4
490.3897	3
490.6125	1
490.7593	0
491.2323	9
491.4334	4
491.6403	0
491.8161	1
492.0678	3
492.2819	0
492.3738	0
492.6313	2
492.9988	2
493.3020	3
493.7827	1
494.1242	2
494.2664	2
494.6858	2
494.8800	1
495.2272	5
495.4496	1
495.8127	2
496.1932	7
496.4726	4
496.6394	2
496.7614	1
497.2134	5
497.4192	2
497.5650	3
497.7816	1
498.1918	5
498.3571	2
498.4539	1
498.6070	1
498.7875	2
499.1291	5
499.2648	5
499.3833	2
499.5161	1
499.6288	1
499.7812	2
500.0426	1
500.3734	3
500.5532	1
500.7706	1
501.2119	4
501.4220	2
501.8034	2
502.0988	3
502.2700	4
502.3545	1
502.5892	1
502.6809	1
502.8976	1
502.9857	1
503.1403	4
503.2509	4
503.3281	2
503.5333	2
503.6510	0
504.2679	22
504.8878	2
505.0741	1
505.2020	2
505.3573	2
505.6159	1
505.8414	1
506.1968	1
506.3673	2
506.4916	1
506.6816	1
506.9872	1
507.2329	4
507.5031	1
507.8022	1
508.0414	1
508.1953	1
508.3593	1
508.5046	1
508.8868	1
509.1202	4
509.3399	5
509.5220	2
509.7012	2
509.8132	1
509.9787	1
510.2692	3
510.3682	2
510.5785	1
510.7469	1
511.2347	7
511.4508	4
511.6879	1
512.2596	21
512.4894	6
512.6499	1
513.0655	1
513.2578	5
513.4016	3
513.5563	2
513.8245	1
514.1049	2
514.2827	1
514.4461	1
515.2593	4
515.4010	2
515.5326	0
515.7632	2
515.9779	1
516.1016	3
516.2975	8
516.4102	1
516.6163	1
516.7761	2
517.2692	32
517.6313	1
517.8895	1
518.1295	4
518.2720	2
518.5380	2
518.7709	2
519.0211	4
519.2372	4
519.3956	1
519.6448	1
519.8086	2
520.0632	3
520.2342	3
520.4326	3
520.5480	1
520.7111	2
520.8828	3
521.2817	7
521.5422	3
522.1396	6
522.3019	6
522.5934	4
522.8113	3
522.9368	2
523.1418	4
523.3575	5
523.5862	3
523.7905	2
523.9759	4
524.2783	7
524.3887	2
524.6376	2
525.0648	5
525.4061	4
525.5663	5
525.9416	3
526.1646	4
526.2556	2
526.4843	3
526.6972	2
526.9924	4
527.0920	2
527.4269	3
527.7192	3
527.8433	1
528.1255	3
528.2482	3
528.5297	2
528.7253	2
529.0162	1
529.2905	3
529.3836	2
529.5778	1
529.7308	1
530.2368	1
530.5075	4
530.7407	1
530.9349	2
531.1745	1
531.3564	1
531.6899	1
531.8610	1
532.0148	1
532.4155	1
532.6573	1
532.8574	1
533.1151	3
533.3844	2
533.5974	1
533.7367	1
534.0313	1
534.1894	1
534.4486	1
534.6602	1
534.8126	0
535.0754	3
535.3657	4
535.6797	2
536.1058	4
536.3333	4
536.6322	2
536.7896	3
537.2446	30
537.4294	14
537.6967	2
537.8425	3
538.0050	2
538.1531	2
538.3943	3
538.6023	1
538.7770	2
539.2725	11
539.4631	3
539.6011	1
539.7759	1
540.1255	4
540.3920	4
540.5249	1
540.6202	1
540.7344	1
541.0615	3
541.1786	2
541.6394	1
541.8828	1
542.3394	1
542.6572	1
542.7808	0
542.9093	1
543.0249	1
543.3319	1
543.5356	1
544.3801	2
544.7341	1
545.0499	2
545.1647	1
545.3851	1
545.5361	1
545.7211	1
545.8446	1
546.0671	2
546.4118	2
546.6777	1
546.9602	1
547.2022	5
547.3171	3
547.4190	2
547.5722	3
547.8085	2
547.9884	4
548.2471	5
548.5954	5
548.8461	4
548.9769	6
549.2768	5
549.5875	5
549.8188	6
550.2336	8
550.6376	3
551.3827	7
552.3331	10
553.2185	12
553.5633	7
554.2593	9
554.6880	11
555.1434	10
555.5901	10
556.0571	10
556.4432	9
557.0251	12
557.7010	10
558.2592	7
558.5585	10
559.1919	8
559.3958	6
559.6879	8
560.0350	9
560.1629	9
560.3184	7
560.6944	6
561.0798	4
561.2150	5
561.3683	2
561.4999	6
561.7400	2
562.2542	4
563.2825	39
563.5790	13
563.9189	3
564.1292	2
564.3428	3
564.5327	2
564.6836	2
565.1840	5
565.6049	5
565.9067	6
566.4150	11
566.9703	10
567.3082	15
567.6259	12
567.7718	7
567.9588	7
568.2231	13
568.5387	11
569.4240	16
570.2820	20
571.1934	22
571.7069	19
572.5533	25
573.6650	29
574.3122	31
578.2370	320
580.3510	45
581.3113	388
581.9139	21
582.2926	22
582.8729	17
583.5739	18
586.5087	24
596.2985	999
597.1000	543
597.8010	261
598.4754	140
599.4416	62
600.1774	43
601.0071	23
601.6830	14
602.0333	13
602.2622	12
602.4673	9
602.8154	5
603.1570	6
603.6799	4
