Mass spectrum: 2,3'-Dihydroxycanthaxanthin; FAB-EBEB; MS2; m/z: 596.39; [M]+*
Name: 2,3'-Dihydroxycanthaxanthin
Formula: C40H52O4
Exact mass: 596.38656
SMILES: CC(=C1C=CC(=CC=CC(C)=CC=CC=C(C=CC=C(C)C=CC(=C(C)2)C(C)(C)C(CC(=O)2)O)C)C)C(=O)C(O)CC1(C)C
InChI: InChI=1S/C40H52O4/c1-27(17-13-19-29(3)21-23-33-32(6)38(44)36(42)26-39(33,7)8)15-11-12-16-28(2)18-14-20-30(4)22-24-34-31(5)35(41)25-37(43)40(34,9)10/h11-24,36-37,42-43H,25-26H2,1-10H3/b12-11+,17-13+,18-14+,23-21+,24-22+,27-15+,28-16+,29-19+,30-20+
Instrument: JMS-HX/HX 110A, JEOL
Instrument type: FAB-EBEB
Ms type: MS2
Ion mode: POSITIVE
Collision energy: 3 kV
Ionization: FAB
Base peak: 118.9416
Precursor m/z: 596.39
Precursor type: [M]+*
m/z	relative intensity
9.8304	2
10.4086	0
12.9618	1
13.9793	3
14.9809	4
18.9688	3
19.7655	0
22.9302	398
23.1742	0
24.9567	1
25.9568	27
26.8063	5
26.9597	101
27.9638	14
28.9656	77
29.9327	3
30.9495	19
31.0968	1
35.9012	4
36.9427	18
37.9408	31
38.9448	257
39.1097	5
39.5377	0
39.9521	25
40.9645	449
41.2933	4
41.9694	20
42.9516	561
43.9485	12
44.9558	47
45.9374	0
47.9068	1
47.9644	0
48.8608	1
48.9647	8
49.0901	1
49.9376	60
50.2931	1
50.7461	2
50.9410	149
51.9392	52
52.9394	313
53.9527	10
54.9591	369
55.9464	13
56.9588	123
57.9539	6
58.9643	52
59.9358	4
60.6792	4
60.7887	4
60.9160	11
61.7437	3
61.9451	51
62.9379	127
63.1431	3
63.4255	6
63.9400	30
64.5667	4
64.7197	5
64.9417	193
65.9397	48
66.9381	328
67.6461	1
67.7719	6
67.9382	34
68.9553	281
69.9308	13
70.9340	164
71.9611	9
72.9336	19
73.5718	4
73.6839	4
73.9210	31
74.9392	27
75.1310	4
75.2506	9
75.4613	3
75.9185	44
76.0773	5
76.1873	3
76.3904	1
76.5607	4
76.9350	551
77.2201	2
77.5284	3
77.7324	6
77.9341	100
78.3065	6
78.5560	0
78.9440	466
79.2955	5
79.9319	96
80.4740	1
80.7239	2
80.9537	426
81.1884	2
81.3880	2
81.9246	57
82.9342	88
83.1300	2
83.9027	31
84.9359	103
85.7348	1
85.9060	18
86.2245	4
86.9283	27
87.7945	3
87.9393	14
88.0914	4
88.4634	3
88.6175	3
88.9248	74
89.3763	7
89.7318	4
89.9383	36
90.1261	7
90.3292	3
90.4191	3
90.5275	9
90.6291	3
90.9329	970
91.2351	5
91.4504	1
91.9372	105
92.2598	4
92.5759	6
92.9482	474
93.1539	3
93.3246	5
93.9424	46
94.9530	196
95.3334	1
95.5500	1
95.9222	35
96.1986	2
96.9313	80
97.9252	76
98.1050	3
98.8089	10
98.9486	19
99.9016	4
100.5937	4
100.9222	26
101.0700	6
101.2353	6
101.9343	50
102.3547	8
102.4778	3
102.5782	4
102.9477	204
103.1960	2
103.3469	1
103.9555	99
104.3063	7
104.4582	4
104.6038	4
104.9545	948
105.5459	7
105.9541	78
106.4416	6
106.6358	1
106.9663	446
107.9709	31
108.5645	4
108.6519	4
108.7285	4
108.9724	187
109.3489	7
109.5067	4
109.9267	24
110.4150	2
110.9424	66
111.2044	5
111.9146	54
112.5389	0
112.9119	40
113.1645	2
113.4109	6
113.4875	6
113.5775	3
113.9045	29
114.1102	4
114.4445	15
114.9223	564
115.3269	5
115.4453	2
115.9258	197
116.1758	8
116.5144	7
116.9385	533
117.6347	4
117.9348	99
118.1206	3
118.2518	1
118.5381	1
118.9416	999
119.3660	7
119.6708	1
119.9416	101
120.2408	5
120.5563	1
120.9352	289
121.2368	4
121.3499	3
121.9290	27
122.1716	1
122.3883	2
122.5371	3
122.9469	105
123.9040	61
124.1180	3
124.6649	5
124.9402	85
125.2221	8
125.3000	5
125.4742	1
125.8953	64
126.1555	2
126.3083	3
126.4853	8
126.9116	195
127.2860	9
127.3792	6
127.4639	1
127.9057	568
128.4079	8
128.5122	5
128.9103	696
129.2048	3
129.2897	3
129.4209	7
129.5771	5
129.9110	250
130.1894	4
130.2921	2
130.4510	7
130.5589	5
130.9168	549
131.2290	9
131.3311	7
131.4837	2
131.9134	159
132.2476	3
132.4935	3
132.9172	531
133.1685	5
133.4257	6
133.5997	5
133.9189	131
134.2631	3
134.3728	6
134.5956	4
134.9283	459
135.3453	4
135.8758	72
136.3736	1
136.9168	110
137.4185	2
137.5374	3
137.8934	32
138.0448	5
138.8837	133
139.1199	5
139.3422	6
139.5255	6
139.8956	76
140.1777	18
140.3029	14
140.8954	476
141.1321	12
141.2952	5
141.3655	3
141.5134	5
141.8929	427
142.3018	5
142.4997	5
142.9062	682
143.1872	4
143.3786	6
143.9165	227
144.4088	7
144.9153	649
145.2455	6
145.5093	1
145.8997	101
146.1183	7
146.4710	3
146.9325	419
147.2581	7
147.4510	3
147.5658	2
147.9123	33
148.1594	3
148.2569	3
148.4427	6
148.6291	6
148.9278	126
149.5028	5
149.6667	10
149.9015	47
150.1631	5
150.4282	12
150.6083	5
150.9203	99
151.2546	2
151.4797	6
151.8986	216
152.4531	13
152.9153	310
153.2502	6
153.5556	1
153.9182	173
154.2030	2
154.4381	13
154.9308	503
155.4519	10
155.9281	303
156.2713	10
156.4369	5
156.9466	612
157.3447	6
157.5427	11
157.9444	147
158.2316	3
158.3522	4
158.9437	414
159.4417	4
159.9493	76
160.2026	6
160.3430	8
160.4741	6
160.5741	5
160.9646	248
161.2998	12
161.3688	6
161.5452	1
161.6751	11
161.9557	48
162.0781	19
162.2493	5
162.4421	10
162.5483	5
162.9564	128
163.2536	7
163.4568	3
163.9668	40
164.2480	10
164.4052	22
164.5069	14
164.9495	486
165.2377	3
165.4181	7
165.5436	12
165.9568	199
166.2065	4
166.3035	3
166.9635	407
167.4348	4
167.6013	2
167.9628	137
168.3271	10
168.4359	3
168.6439	6
168.9785	436
169.2724	1
169.5105	8
169.6310	3
169.9917	216
170.3112	2
170.4516	6
170.5948	10
170.9898	328
171.5147	8
171.6179	5
171.9888	111
172.3917	7
172.5215	7
172.9898	262
173.3365	13
173.4576	10
173.5718	4
173.9671	75
174.2222	2
174.3760	1
174.5223	5
174.9831	135
175.2242	9
175.3985	2
175.9482	65
176.1819	10
176.5383	2
176.9725	92
177.1887	16
177.3005	9
177.4035	5
177.9532	242
178.3954	3
178.9510	330
179.2071	9
179.4024	6
179.9536	159
180.3458	6
180.5221	7
180.9657	358
181.3370	6
181.4683	6
181.5791	5
181.9587	173
182.2269	5
182.4349	6
182.9674	391
183.3610	8
183.6158	6
183.9685	133
184.2288	1
184.3830	5
184.5241	5
184.6379	6
184.9703	206
185.3391	3
185.4543	5
185.6181	3
185.9343	74
186.2148	8
186.3987	9
186.9723	165
187.3224	10
187.4020	5
187.5963	5
187.9369	46
188.2611	6
188.4706	14
188.9556	219
189.4243	8
189.5879	4
189.9647	61
190.2920	13
190.9331	188
191.2785	4
191.3734	3
191.5269	9
191.9461	147
192.5520	4
192.9418	304
193.3461	2
193.4839	6
193.9601	166
194.2365	13
194.4095	3
194.9508	408
195.1963	12
195.5088	11
195.9614	133
196.4258	9
196.9656	299
197.3288	3
197.4621	4
197.5815	6
197.6920	8
197.9856	104
198.3034	5
198.6738	5
198.9744	162
199.2716	6
199.5765	13
199.9582	61
200.5378	2
200.9564	114
201.2616	4
201.4754	5
201.9385	128
202.3615	10
202.4751	6
202.9627	153
203.4621	5
203.9139	80
204.2653	11
204.4546	7
204.9593	148
205.2228	3
205.3615	3
205.9559	117
206.2897	5
206.5596	7
206.9719	236
207.3280	9
207.5071	5
207.9814	138
208.3391	6
208.9789	257
209.4778	6
209.9887	97
210.9601	186
211.2828	5
211.4004	6
211.5576	8
211.9994	58
212.3293	7
212.5408	7
212.9870	145
213.3985	6
213.6221	10
213.8456	34
213.9800	42
214.0650	22
214.2552	7
214.5108	7
214.9700	176
215.2599	2
215.4300	6
215.7464	17
215.9981	82
216.2498	9
216.3941	4
216.5894	8
216.9716	165
217.4648	2
217.9741	69
218.3481	1
218.4570	3
218.5610	3
218.9973	166
219.3373	10
219.4847	6
219.5496	3
219.9840	71
220.9984	162
221.4128	10
221.5582	4
221.7112	8
222.0034	64
222.3313	1
222.5669	11
223.0110	170
223.3691	12
223.5720	6
223.9855	52
224.2625	1
224.4207	7
225.0009	92
225.5260	8
225.7591	25
226.0371	69
226.3264	1
226.5365	3
227.0093	66
227.3975	4
227.7450	7
228.0015	56
228.2938	2
228.5041	2
228.6850	10
229.0089	113
229.7109	8
230.0370	56
230.4053	3
231.0158	196
231.5969	6
232.0230	71
232.4918	1
233.0374	119
233.4865	5
233.6266	7
234.0316	70
234.5145	13
235.0360	146
235.5093	5
235.9868	44
236.4413	3
236.6216	5
237.0278	104
237.5421	4
237.7309	9
238.1064	34
238.4096	4
238.5465	5
239.0260	110
239.2387	13
239.5049	9
239.7465	6
240.0218	49
240.1932	14
240.3814	11
240.6217	4
240.9969	76
241.6307	1
242.0004	41
242.2099	7
242.3069	4
243.0248	137
243.6865	4
244.0185	68
244.2077	13
244.3527	7
244.5546	13
245.0091	95
245.2202	17
245.5855	4
245.7854	9
246.0564	56
246.5499	5
247.0378	133
247.2540	11
247.4371	5
247.5399	1
248.0104	42
248.2471	7
248.7347	7
249.0687	85
249.3167	7
249.5606	6
249.8883	23
250.0815	26
250.2549	4
250.5785	7
251.0431	54
251.7434	12
252.0270	32
252.3980	7
253.0175	78
253.5665	2
253.7034	7
254.0436	34
254.2977	5
254.3867	2
254.5957	5
255.0419	87
255.5206	5
256.0475	61
256.2856	14
257.0309	91
257.5453	12
257.7672	14
258.0435	37
258.2739	5
258.3877	7
259.0053	88
259.2789	7
259.4648	0
259.6676	5
260.0310	38
260.2064	15
260.4595	2
261.0513	73
261.2104	31
262.0168	26
262.3330	2
262.4130	1
262.5375	6
263.0399	49
263.3322	7
263.4794	2
263.7044	11
263.8396	12
263.9748	28
264.0966	38
264.4024	9
264.6176	3
264.7486	12
265.0035	53
265.1982	10
265.3526	3
265.4581	1
265.6620	6
265.8462	6
266.0870	19
266.2081	6
266.5254	4
266.6395	6
266.8053	7
267.0908	43
267.4613	2
267.6052	5
267.7433	2
268.0226	18
268.2274	9
268.5627	3
268.7356	7
269.0532	93
269.3793	6
269.4807	6
269.5863	6
269.7685	10
270.0075	24
270.4004	3
270.6422	3
271.0366	65
271.4402	1
271.6849	5
272.0588	41
272.4207	4
272.6627	9
273.0658	56
273.4796	9
274.0375	28
274.2590	6
274.5374	8
275.0486	53
275.3043	8
275.5464	2
275.6729	3
275.9562	27
276.1260	22
276.5231	13
276.7312	3
277.0708	54
277.2771	6
277.4111	7
277.8833	12
278.0407	38
278.1287	18
278.3535	1
279.0549	33
279.5643	6
279.7296	5
280.0403	20
280.2425	7
280.4852	5
281.0501	34
281.4752	2
281.6221	5
281.7101	6
282.0289	17
282.2468	4
282.5578	3
283.0385	40
283.2032	22
283.4965	3
283.8217	7
284.0916	27
284.6158	1
285.0499	74
285.3945	2
285.4875	2
285.8265	10
286.1235	45
286.6345	2
287.0389	45
287.5792	6
287.9531	27
288.0854	29
288.1856	13
288.3413	8
288.5169	3
289.0965	50
289.1961	24
289.4976	5
289.6185	6
289.7828	10
289.9856	17
290.1833	7
290.8236	7
291.0811	36
291.4184	7
292.0461	18
292.4105	3
293.0860	40
293.4956	1
293.8518	3
294.0580	16
294.1739	4
294.3709	3
295.0444	38
295.1703	29
295.6248	5
296.1014	23
296.2614	19
296.4692	6
297.0911	92
297.6781	6
297.8667	17
297.9607	15
298.1422	21
298.4689	11
299.0633	59
299.4484	9
299.6371	7
300.0472	35
300.2131	14
300.5642	4
301.0648	48
301.4837	7
301.6610	2
301.7992	9
302.0243	19
302.2587	6
303.0795	51
303.2405	21
303.4037	5
303.6695	5
304.0387	43
304.2119	5
304.3843	3
304.4820	6
305.0494	26
305.6297	5
305.9833	21
306.1216	13
306.8176	6
307.0807	19
307.3304	3
307.6406	3
308.0322	21
308.1913	6
308.3589	5
308.7470	7
309.0595	48
309.2393	10
309.8294	15
310.0663	19
310.3119	5
311.0284	54
311.2311	14
311.8029	8
312.1114	23
312.4769	7
313.0267	57
313.5587	1
313.7023	5
314.0280	18
314.2265	10
314.7279	8
315.0794	43
315.5359	6
315.8824	9
316.0932	28
316.3897	5
316.7099	6
316.8585	18
317.0686	27
317.3224	9
317.5832	13
317.7226	5
318.0392	22
318.2987	4
318.7984	10
319.0787	23
319.4197	3
319.6428	8
319.8223	6
320.0797	20
320.3014	1
320.4580	2
320.9780	11
321.2154	6
321.5158	5
321.9529	14
322.0953	6
322.2333	6
322.7392	7
323.0804	30
323.4583	4
323.8490	10
324.1481	17
324.3428	2
324.8016	12
325.0005	20
325.2060	13
325.3055	6
325.8037	7
326.0135	20
326.2061	10
326.3407	5
326.6235	3
326.7581	7
327.0495	41
327.3001	15
327.5028	5
328.0793	11
328.2863	4
329.0893	70
329.6387	3
330.0621	23
330.2914	5
330.6511	3
331.0036	42
331.1606	14
331.5332	2
331.7396	2
331.9869	12
332.1166	27
332.5230	6
332.7108	1
332.8578	5
333.0779	27
333.2563	2
333.6449	3
333.9589	10
334.0887	6
334.2199	7
334.3031	4
334.6473	3
334.9771	9
335.0739	13
335.1808	19
335.3192	12
335.9969	14
336.2523	5
336.5378	5
336.6447	5
336.9811	18
337.1152	13
337.5282	1
337.7918	3
337.9308	5
338.1615	11
338.6873	4
339.0929	31
339.3580	7
339.7407	1
339.9442	5
340.1104	15
340.4537	4
340.6021	6
341.1095	26
341.2471	14
341.5410	1
341.6937	2
341.8278	5
342.0765	21
342.3590	10
342.5103	3
343.1061	31
343.7062	2
344.1193	14
344.7318	7
345.0201	24
345.2453	18
345.6664	6
346.0049	37
346.2036	7
346.3651	2
346.6800	7
346.9046	9
347.1220	24
347.8374	9
348.0878	26
348.3533	6
348.6461	3
348.8040	2
349.0897	28
349.6416	3
350.0292	13
350.2252	15
350.4765	2
350.7816	1
351.0271	16
351.2087	18
351.4680	4
351.7645	5
351.9354	9
352.1558	20
352.3950	6
352.8531	5
353.0240	10
353.2187	7
353.9161	7
354.0942	11
354.1934	6
354.7091	1
354.9189	3
355.0618	32
355.1940	13
355.7810	4
356.0605	14
356.3666	2
356.6145	4
357.1010	44
357.5804	2
357.7392	6
358.1072	17
358.2768	4
358.5542	5
358.7993	10
359.1142	48
360.0056	11
360.1322	10
360.2666	5
360.3601	2
360.5535	6
360.7599	4
361.0619	36
361.1805	22
361.2999	20
361.6307	5
361.7968	7
362.0773	19
362.2981	7
362.8361	2
363.1511	46
363.3345	13
363.4381	6
363.5791	5
364.0797	26
364.2675	9
364.3740	6
365.0429	16
365.1872	8
366.0179	10
366.1873	13
366.6368	7
367.0906	16
367.7075	6
367.9294	12
368.1241	10
368.2383	6
368.4416	1
368.6649	5
368.9099	8
369.1469	20
370.0176	14
371.1772	31
371.7916	8
372.0050	15
372.2472	10
372.4168	2
372.7589	4
373.0478	36
373.2390	32
373.5739	5
373.6860	4
374.1648	37
374.2899	10
374.7737	6
375.1482	26
375.4264	5
375.6429	6
375.9844	21
376.1289	25
376.2885	8
376.7307	9
377.1644	101
377.3549	20
377.6383	9
378.1093	40
378.6473	1
378.8574	7
379.0559	12
379.3580	7
379.4630	5
379.9686	14
380.0736	8
381.0604	7
381.1790	17
381.3639	6
381.6308	0
381.7984	4
381.9804	10
382.1660	10
382.3286	8
382.8257	2
382.9854	13
383.2242	14
384.0330	3
384.2532	9
384.5475	5
385.1599	20
385.3348	9
385.5276	5
385.6860	2
385.9991	9
386.2121	7
386.3229	8
387.1299	34
387.8339	4
388.1650	25
388.7252	5
388.8130	6
389.1694	46
389.4877	6
389.6864	10
389.8391	5
390.0947	28
390.3172	20
391.1742	11
391.9550	21
392.1084	18
392.4181	2
392.7970	5
392.9497	8
393.1529	6
393.3625	7
393.6291	5
393.7458	4
393.8380	5
393.9814	5
394.1391	9
394.9295	8
395.1342	4
395.2984	8
396.0493	11
396.1877	7
396.7685	0
397.0186	14
397.2154	10
397.3768	3
397.4979	6
398.0421	13
398.1300	6
398.3254	5
398.4169	5
398.9050	6
399.1270	25
399.4089	14
400.1450	9
401.1191	25
401.3938	12
401.9455	6
402.1618	17
402.3039	6
402.7056	6
403.1715	22
403.6042	7
404.1452	20
404.3912	8
404.5968	2
404.8060	3
404.9582	3
405.1732	31
405.5108	2
405.6428	5
406.1811	33
406.5274	2
406.9286	2
407.1847	15
407.9532	7
408.1661	14
408.2780	11
408.8604	2
409.0682	10
409.3309	5
409.5800	5
409.8918	1
410.1234	9
410.2584	6
410.4432	7
411.1218	7
411.3694	3
412.0002	5
412.1859	21
413.0099	18
413.2258	11
413.3928	6
413.4958	5
413.9326	6
414.2141	13
414.4459	5
414.7914	5
414.9239	6
415.2550	36
416.1643	24
416.3378	8
416.5192	4
417.1334	39
417.5820	5
417.9168	9
418.0911	19
418.3186	11
418.4101	2
418.6672	1
418.8933	9
419.1800	25
419.3506	10
420.1299	29
420.9799	10
421.1038	7
421.2695	6
421.3876	4
421.9387	8
422.2060	17
422.4300	5
422.9062	5
423.0979	21
423.3486	6
423.9661	8
424.0411	3
424.2882	7
424.5145	6
424.7206	5
425.0016	10
425.1710	7
425.4830	1
425.6279	6
425.9731	6
426.2311	14
426.6794	1
426.8416	8
427.1501	15
427.3670	6
427.9206	16
428.1412	15
428.5218	5
428.6162	5
429.1468	38
429.3766	29
429.7643	7
430.0496	7
430.2651	19
430.8553	9
430.9778	14
431.1969	34
431.2934	12
431.5601	1
431.8606	3
432.2073	20
432.7529	4
432.9612	12
433.1320	11
433.2849	15
433.3944	3
433.6230	3
434.1535	16
434.2746	13
434.9292	4
435.1433	6
435.6877	5
435.9407	15
436.0799	17
436.1909	24
436.6733	5
436.8817	4
437.1377	6
437.2761	5
438.0470	11
438.3354	10
438.9305	12
439.1353	5
439.4396	2
439.5514	5
439.7007	9
440.0354	9
440.2424	7
440.3932	9
440.6262	5
440.7286	4
441.1376	15
441.4348	6
441.6057	4
442.1656	32
442.4967	3
442.6049	4
442.9043	22
443.1944	47
443.4144	16
443.6843	5
443.8510	3
443.9628	2
444.0999	9
444.3467	11
445.1274	45
445.2999	26
446.1768	27
446.4871	5
446.6321	6
446.7368	5
447.0926	14
447.3257	10
447.4622	3
447.8310	6
448.0396	30
448.1768	18
448.2655	9
448.5074	4
448.7643	2
448.8856	2
449.0798	8
449.2855	10
449.4010	8
449.5837	6
449.7165	2
449.8681	12
450.0175	14
450.1865	20
450.5583	5
450.8882	8
451.1150	7
451.3359	5
451.6334	6
451.8023	1
452.0161	12
452.2811	10
452.8429	5
453.2473	8
453.3701	6
453.6683	2
453.9947	19
454.1392	6
454.3443	7
454.9459	4
455.1294	2
455.6718	2
455.7729	2
456.0221	7
456.2229	14
456.4685	8
456.7416	4
456.8839	13
456.9438	7
457.1649	22
457.3535	10
457.5427	12
457.7522	6
458.0918	19
458.4003	9
458.5187	1
458.7788	3
459.1950	51
459.8121	6
459.9327	3
460.0303	4
460.2658	20
460.6148	5
460.8858	6
461.1951	21
461.3476	13
462.0681	38
462.2517	37
462.5429	12
462.8096	5
463.1652	17
463.4059	10
463.5324	6
463.7492	3
463.8808	5
464.2075	25
464.4597	6
464.6584	5
464.9117	5
465.0271	8
465.1238	7
465.2969	13
465.4708	5
465.7118	7
465.9370	8
466.0813	11
466.2992	5
466.4810	4
466.6528	10
467.0424	8
467.2950	13
467.6588	8
468.1315	12
468.6042	12
468.9831	18
469.1296	9
469.3512	16
469.5179	14
469.8752	9
469.9914	7
470.1589	7
470.2679	5
470.5841	7
470.7227	5
471.0901	1
471.2879	12
471.5586	6
471.6597	6
471.7492	3
471.9383	8
472.1845	16
472.2755	10
472.5455	1
472.8090	6
473.1389	30
473.3541	15
473.5021	9
473.6833	11
473.9295	4
474.1454	13
474.2610	10
474.7838	13
475.2740	33
475.5022	20
475.7449	5
476.0193	9
476.2980	17
476.3854	7
477.0174	5
477.1632	6
477.3163	14
477.6580	3
477.9440	11
478.2134	40
478.4568	20
478.6952	3
478.8382	11
479.0289	5
479.2867	9
479.6840	1
479.9939	13
480.2085	39
480.3934	20
480.6564	6
480.7972	2
481.1584	17
481.3954	12
481.7169	10
481.8629	5
482.2133	34
482.5890	6
482.7299	6
482.9112	4
483.0702	16
483.2183	11
483.4669	13
483.7515	5
483.9748	5
484.1663	8
484.3376	7
484.6086	7
484.8008	9
484.9612	8
485.1028	10
485.2922	14
485.6109	7
485.8038	4
485.8992	2
486.0691	6
486.1970	12
486.4817	4
486.6292	11
486.7903	6
487.1430	4
487.3787	13
487.4806	4
487.9872	11
488.1672	9
488.3248	7
488.6660	5
488.8684	3
489.1944	20
489.5385	13
489.6896	1
489.8211	7
489.9411	10
490.2729	35
490.4587	8
491.1853	27
491.4022	13
491.5844	3
491.7485	7
491.9365	7
492.1310	13
492.2828	11
492.3783	9
492.8596	4
493.0388	3
493.2519	12
494.0761	15
494.2336	12
494.4713	10
494.9286	5
495.0955	16
495.3318	11
495.7530	3
496.0420	15
496.2638	13
496.3765	11
496.4719	5
496.6438	6
497.0998	6
497.2219	6
497.5716	6
497.9539	7
498.1555	15
498.3680	6
498.5645	5
498.9612	11
499.1101	19
499.1867	8
499.3471	13
499.6731	3
499.8660	4
500.1566	6
500.5179	5
501.0376	9
501.2913	8
501.8182	9
501.9917	5
502.3119	15
502.3842	7
502.5685	3
502.8706	6
503.1193	22
503.3159	7
503.4338	9
503.5820	13
503.6694	10
503.7844	10
504.2933	231
504.6938	8
504.8261	9
504.9635	11
505.1992	16
505.3322	26
505.4370	13
505.7378	2
505.9185	10
506.2309	39
506.5685	3
506.7558	3
506.9973	6
507.1889	13
507.3429	6
507.6509	7
507.9069	5
508.2446	24
508.4847	18
508.7624	5
509.2585	12
509.4638	5
509.9194	5
510.0366	7
510.1841	9
510.3230	12
510.4915	14
510.7772	9
511.1309	7
511.3514	9
511.7912	6
512.2143	21
512.5781	5
512.6534	2
512.9709	6
513.2263	14
514.0545	6
514.2535	12
514.4437	7
515.0615	6
515.1708	13
515.7076	5
515.8950	2
516.1359	6
516.3630	12
516.7429	2
517.2877	14
517.4512	8
517.9498	7
518.0793	9
518.2276	9
518.3398	8
518.5048	10
518.6661	9
518.9975	10
519.0814	6
519.3079	10
519.4201	5
519.8259	4
520.0876	21
520.3517	34
520.5609	11
520.8854	6
521.0737	11
521.4235	11
521.7460	4
522.2769	33
522.7206	5
522.8281	5
523.2877	25
523.4615	16
523.7162	6
524.1931	45
524.5437	7
524.6772	6
524.8179	5
525.0120	13
525.1945	18
525.3532	7
525.4708	7
525.5841	6
525.8467	6
525.9673	1
526.1534	9
526.2551	7
526.5366	4
527.0179	2
527.2582	5
527.4436	4
527.5952	3
527.7207	2
528.0079	5
528.2634	6
528.5470	8
528.7642	6
529.0847	4
529.2586	2
529.5668	4
529.7363	4
529.9673	7
530.0893	5
530.2105	6
530.5187	7
530.8724	4
531.1633	7
531.3560	5
531.5566	6
531.7097	5
531.8944	3
532.0561	5
532.2330	2
532.3968	6
532.7859	5
533.1064	18
533.5648	6
534.2022	35
534.4368	18
535.0635	20
535.2418	15
535.5046	5
535.6706	6
535.8323	9
536.1464	29
536.3716	41
536.5615	12
536.7117	5
536.8287	8
537.0554	6
537.1876	16
537.3334	14
537.6035	7
537.8352	7
538.1739	52
538.3226	38
538.4396	19
538.6909	15
538.8021	7
538.9711	5
539.1732	8
539.3068	5
539.4968	5
539.6874	11
540.2471	32
540.4745	11
540.6515	8
541.0126	5
541.1909	6
541.2855	5
541.4127	4
541.5578	6
541.6401	4
542.0396	5
542.2403	8
542.3610	6
542.4606	6
542.5928	12
542.9489	6
543.0991	5
543.2948	5
543.4479	5
543.6523	13
543.9138	10
544.6882	3
544.7914	2
544.9200	3
545.1078	1
545.3101	5
545.4221	4
545.5947	7
545.7724	5
545.9957	5
546.2579	6
546.7180	9
546.9355	7
547.0626	4
547.1912	7
547.4571	9
547.7158	10
547.9216	16
548.1370	20
548.2424	15
548.3327	9
548.5936	15
548.8926	13
549.1181	16
549.3305	21
549.4800	13
550.1838	44
550.4136	51
550.8320	5
551.2843	28
551.6008	8
552.2483	41
552.6898	14
552.8394	7
553.0374	6
553.4132	10
553.6149	8
553.8396	9
554.0268	13
554.3665	16
554.6223	17
554.8558	11
555.0617	5
555.1752	6
555.3386	15
555.4852	12
555.8040	10
556.0613	12
556.2442	6
556.3699	6
556.5253	8
556.6981	11
556.9330	10
557.0443	5
557.2062	12
557.3891	4
557.5344	1
557.7614	13
557.9941	12
558.2688	8
558.5312	8
558.8001	5
558.9599	5
559.2802	5
559.4637	7
559.6951	10
559.8968	10
560.0717	7
560.3349	23
560.6053	11
560.7202	10
560.9313	9
561.1128	7
561.2429	7
561.4194	8
561.5495	11
561.8618	14
562.1886	12
562.4120	18
562.6166	5
562.7360	9
562.8343	7
563.1279	19
563.4055	26
563.5732	13
563.7128	7
564.0302	31
564.2757	40
564.5919	2
564.7925	11
565.2452	31
565.5707	8
565.8986	20
566.2458	42
566.6869	21
567.3475	60
567.6053	25
567.7786	14
568.3851	80
568.5453	23
569.2609	22
569.4450	11
569.6422	6
570.1108	21
570.4091	20
570.6148	6
570.7961	11
570.9246	8
571.1304	13
571.3456	22
571.5659	17
571.8670	21
572.2570	22
572.5812	19
572.7704	22
572.9351	13
573.1258	36
573.4667	36
573.7541	36
574.0900	30
574.3846	37
574.5688	15
574.8476	30
575.2802	38
575.7540	34
576.1744	47
576.4706	29
576.7025	43
577.1777	54
577.6011	57
578.3559	528
579.2033	127
579.5948	35
580.2097	120
580.4553	57
581.3729	184
581.6857	86
581.8692	19
582.0982	40
582.2897	28
582.5079	13
582.8128	22
583.0252	23
583.4227	13
583.6409	23
583.8807	14
584.1098	22
584.3295	17
584.4313	8
584.7349	32
585.3859	32
585.5875	20
585.9286	19
586.2090	23
586.3181	18
586.6043	28
586.9541	32
587.5655	32
587.8719	36
588.1892	37
588.9080	49
589.8227	49
596.3477	999
596.9808	999
597.5828	743
598.4509	403
599.2372	195
599.7736	148
600.0837	88
600.5954	96
600.9785	70
601.5077	35
601.8467	43
602.0708	28
602.3404	34
602.5515	20
602.7416	7
602.8826	24
603.0612	13
603.3228	13
603.6005	11
603.9294	19
