Mass spectrum: Neoxanthin; FAB-EBEB; MS2; m/z: 600.42; [M]+*
Name: Neoxanthin
Formula: C40H56O4
Exact mass: 600.41786
SMILES: C/C(=C\C=C\C=C(/C)\C=C\C=C(/C)\C=C=C1[C@](C[C@H](CC1(C)C)O)(C)O)/C=C/C=C(\C)/C=C/[C@]23[C@](O2)(C[C@H](CC3(C)C)O)C
InChI: InChI=1S/C40H56O4/c1-29(17-13-19-31(3)21-22-35-36(5,6)25-33(41)27-38(35,9)43)15-11-12-16-30(2)18-14-20-32(4)23-24-40-37(7,8)26-34(42)28-39(40,10)44-40/h11-21,23-24,33-34,41-43H,25-28H2,1-10H3/b12-11+,17-13+,18-14+,24-23+,29-15+,30-16+,31-19+,32-20+/t22?,33-,34-,38+,39+,40-/m0/s1
Instrument: JMS-HX/HX 110A, JEOL
Instrument type: FAB-EBEB
Ms type: MS2
Ion mode: POSITIVE
Collision energy: 3 kV
Ionization: FAB
Base peak: 42.9688
Precursor m/z: 600.42
Precursor type: [M]+*
m/z	relative intensity
0.3396	0
1.5357	0
2.8927	0
6.7458	0
6.9566	0
10.8943	0
12.9746	1
13.9836	2
14.9973	6
15.9150	0
17.9923	0
18.9894	1
22.9670	1
24.9737	2
25.3673	1
25.9793	7
26.9858	53
27.9853	8
28.9873	50
29.9563	1
30.9720	10
35.9453	0
36.6970	0
36.9696	5
37.4155	0
37.7073	0
37.9693	26
38.1219	0
38.9717	120
39.8160	1
39.9788	19
40.9888	235
41.9800	9
42.9688	999
43.9761	8
44.9928	13
46.9421	1
48.6774	1
48.9419	3
49.0670	0
49.3636	1
49.9610	25
50.2018	0
50.9717	69
51.4336	0
51.9835	32
52.9852	120
53.9789	8
54.9959	238
55.9836	5
57.0118	112
57.2806	1
57.9936	7
58.9994	53
60.0106	1
60.9808	13
61.6659	0
61.9728	22
62.7389	2
62.9662	41
63.1330	1
63.2280	0
63.9745	11
64.4306	1
64.6358	1
64.9815	86
65.2086	2
65.3504	0
65.5745	1
65.9874	19
66.1638	2
66.6034	0
66.9952	129
67.9949	9
68.5880	0
68.7012	2
68.9903	214
69.4059	1
69.4889	1
69.9693	5
70.6246	1
70.9841	68
71.9986	2
72.8691	1
72.9875	4
73.9529	10
74.9665	21
75.2009	2
75.3820	2
75.5149	1
75.6744	2
75.9718	11
76.3880	2
76.6087	2
76.7061	1
76.9720	228
77.1517	4
77.2812	1
77.4244	3
77.5020	2
77.9748	39
78.3461	1
78.4678	2
78.6026	1
78.7202	0
78.9824	211
79.3513	0
79.9704	26
80.4897	1
80.9876	198
81.1851	3
81.4953	2
81.9718	11
82.4557	1
82.6341	1
82.9835	232
83.5651	1
83.9780	6
84.3456	1
84.6083	2
84.7207	2
84.9777	157
85.2869	1
85.6612	0
85.9497	8
86.9638	207
87.2326	0
87.8768	2
87.9682	1
88.1298	1
88.2634	1
88.5886	3
88.9783	32
89.1500	2
89.3647	4
89.4852	2
89.6272	1
89.8788	4
90.0172	6
90.2728	4
90.5193	3
90.6776	1
90.9759	442
91.3605	2
91.6666	1
91.9841	41
92.2039	1
92.5594	4
92.9873	287
93.3237	2
93.5522	2
93.9854	16
94.2291	1
94.4618	0
94.6067	3
94.6804	1
94.9963	219
95.2869	1
95.6323	0
95.9978	14
96.5307	1
96.9952	63
97.2522	1
97.9193	4
98.9790	17
100.0065	5
100.4906	1
100.9364	12
101.3059	1
101.4007	1
101.6437	3
101.9792	28
102.2364	1
102.4276	2
102.5962	3
102.9852	74
103.4193	3
103.5510	2
103.9817	38
104.3087	1
104.4804	2
104.5770	1
104.9941	511
105.3349	4
105.5943	1
105.9976	54
106.2231	2
106.3726	0
106.6832	1
107.0086	275
107.2853	3
107.4390	2
107.5221	2
107.6219	0
108.0049	21
108.1755	2
108.4655	4
108.5335	1
109.0060	185
109.3098	1
110.0247	9
110.2774	1
110.5105	2
110.9923	40
111.9685	2
112.3281	1
112.6055	1
112.9994	32
113.1926	3
113.4377	4
113.6804	1
113.9929	13
114.1589	4
114.5422	3
114.9740	256
115.2345	4
115.4740	5
115.9668	87
116.2586	2
116.3840	1
116.6034	5
116.9824	205
117.3133	2
117.4183	1
117.6296	3
117.9828	51
118.2176	4
118.3130	2
118.5311	6
118.9913	457
119.3265	3
119.4615	1
119.9909	43
120.3020	3
120.9887	236
121.3495	3
121.5160	1
121.7377	1
121.9938	18
122.3019	1
122.9809	120
123.2361	2
123.3472	2
123.4759	4
123.6780	1
123.9583	6
124.1852	3
124.4182	0
124.9813	129
125.2320	3
125.3389	1
125.4933	3
125.7221	2
125.9894	13
126.1661	2
126.3090	1
126.9708	101
127.2614	7
127.9594	292
128.2393	3
128.5134	6
128.9676	308
129.3644	3
129.4974	1
129.5930	2
129.9725	139
130.4046	3
130.6073	4
130.9793	336
131.3148	2
131.5092	3
131.6695	2
131.9796	74
132.2787	1
132.4259	2
132.5311	4
132.6456	4
132.9876	266
133.2522	1
133.5392	5
133.9851	39
134.3837	3
134.4727	1
134.6619	2
134.9811	164
135.3558	3
135.4931	2
135.5960	1
135.9578	37
136.3164	2
136.3904	1
136.5589	1
136.9574	45
137.2439	2
137.5271	1
137.8978	5
138.2375	3
138.3455	1
138.4946	2
138.9598	45
139.3232	3
139.4279	3
139.5765	2
139.9965	30
140.1160	8
140.2727	5
140.3902	6
140.9634	256
141.2810	2
141.4611	3
141.9691	239
142.3084	5
142.4421	4
142.9680	392
143.2743	6
143.9772	113
144.3799	3
144.9829	405
145.4801	3
145.9896	55
146.1914	4
146.2896	3
146.5288	3
146.9900	180
147.4194	4
147.5772	1
147.6783	1
148.0048	19
148.2170	2
148.5109	2
148.9932	104
149.4348	2
149.5132	1
149.7364	3
149.9778	19
150.3789	4
150.5869	5
150.9781	86
151.1815	5
151.3487	6
151.4447	3
151.5770	5
151.9586	115
152.3544	3
152.9628	137
153.2722	1
153.4391	5
153.5588	2
153.9828	70
154.3780	2
154.5767	5
154.9957	306
155.4209	3
155.9933	177
156.2962	3
156.4439	1
157.0114	402
157.2983	8
157.4280	3
157.6204	3
158.0223	89
158.3027	3
158.3906	1
158.5312	4
159.0112	262
159.4846	2
160.0036	39
160.2844	2
160.4950	2
161.0313	110
161.2813	3
161.4412	4
161.6452	1
162.0112	13
162.3102	2
162.3997	1
162.5604	1
163.0319	55
163.2986	5
163.6149	2
164.0107	26
164.4521	5
165.0011	251
165.3362	1
165.5000	2
166.0148	90
166.3740	3
167.0307	248
167.2866	5
167.4541	5
167.5937	2
168.0317	78
168.2919	4
168.4050	2
168.6033	1
169.0403	259
169.3239	5
169.5346	3
169.6622	2
170.0462	115
170.3219	7
171.0487	231
171.5028	3
171.6158	1
172.0381	59
172.2697	3
172.5320	1
173.0480	145
173.5321	4
174.0225	28
174.4612	1
175.0468	81
175.4483	4
175.6853	2
175.9988	23
176.3705	3
176.5735	4
177.0233	40
177.4041	5
178.0087	112
178.4432	1
178.5910	5
179.0113	206
179.4386	4
179.6139	4
180.0174	95
180.3764	4
181.0275	241
181.3744	4
181.5733	4
182.0267	75
182.4905	7
182.6010	4
183.0423	227
183.3169	5
184.0428	61
184.2750	4
184.5203	4
184.6536	3
185.0398	125
185.3911	3
185.5747	3
185.6496	2
186.0341	36
186.4895	3
187.0413	65
187.5039	4
187.6960	3
188.0327	16
188.4232	2
188.5989	3
189.0357	83
189.4623	3
190.0304	42
190.2517	6
190.5469	7
191.0181	111
191.3658	3
191.5411	2
192.0188	93
192.6305	4
193.0242	213
193.4657	5
194.0206	82
194.4256	5
195.0272	189
195.4934	4
196.0358	67
196.4074	3
197.0374	175
197.4376	3
197.6419	3
198.0464	42
198.3180	3
198.6222	4
199.0470	100
199.3853	1
199.5989	2
200.0468	19
200.3562	5
200.5123	2
200.6357	3
201.0472	51
201.3199	5
201.5087	3
201.9995	55
202.3203	1
202.5411	5
203.0106	85
203.3948	3
203.5171	3
203.6227	2
204.0369	31
204.3198	4
205.0227	103
205.3808	3
205.5074	3
205.6020	1
206.0320	73
206.3326	1
207.0341	171
207.3167	2
207.5305	4
208.0514	85
208.2659	6
208.5536	7
209.0574	151
209.4811	1
210.0513	40
210.3790	3
211.0324	95
211.4922	4
212.0699	21
212.4510	2
212.5522	1
212.6576	3
213.0444	67
213.3586	3
213.4968	3
213.6009	1
213.7406	5
214.0828	14
214.2694	7
215.0373	68
215.4462	1
215.5678	1
215.7460	4
216.0299	32
216.3641	2
216.4802	2
217.0370	73
217.3378	4
217.4826	4
217.5820	2
218.0515	36
218.3441	2
218.5261	2
218.6633	2
219.0630	101
219.4194	3
219.6253	4
220.0603	42
220.4764	4
221.0741	141
221.4295	6
222.0737	39
222.3977	4
222.6459	1
223.0962	76
223.4140	3
223.5823	4
223.7584	3
224.0812	25
224.3879	3
224.6069	3
225.0941	51
225.4304	3
225.7014	5
226.0680	15
226.3328	3
226.5267	2
227.1175	49
227.3719	6
228.0642	27
228.3559	2
228.4867	4
228.6597	4
228.8108	7
229.0949	64
229.5028	2
229.6801	1
230.1057	29
230.3555	3
230.4969	3
230.6285	5
231.0810	62
231.3914	2
231.5800	1
232.0912	43
232.4693	4
233.1152	167
233.4903	3
233.6244	4
234.1120	55
234.5589	5
235.1141	76
235.4712	3
235.6891	5
235.8220	4
236.1109	20
236.5223	4
236.7467	4
237.1258	46
237.5296	2
237.7435	3
238.1312	15
238.4556	5
239.0834	42
239.2214	15
239.4559	3
239.5748	1
240.0769	13
240.3931	4
240.4973	4
240.5924	3
241.0778	39
241.4864	4
241.6386	5
242.0649	20
242.2813	3
242.4223	2
242.5555	1
243.0863	51
243.3873	3
243.6348	5
244.0854	24
244.4409	2
244.7005	2
245.0885	50
245.4582	2
245.6120	3
246.0990	32
246.3143	6
246.5154	2
246.6270	1
247.1042	78
247.5158	1
247.6535	3
248.1104	22
248.2418	11
248.6713	3
249.0888	40
249.4124	2
249.5848	1
249.8208	1
250.1297	17
250.3466	2
250.5184	1
250.6852	4
251.0988	43
251.6390	3
252.0937	16
252.4481	2
253.0953	35
253.6083	2
253.7328	2
254.0881	13
254.2303	4
254.5404	2
254.7237	2
255.1222	62
255.4571	3
255.7998	2
256.1334	23
256.4492	2
256.7581	3
257.1179	37
257.4884	1
257.7421	2
258.0936	23
258.2261	10
258.3607	3
258.4933	2
258.6584	2
259.1134	56
259.4189	3
259.6465	1
260.1059	18
260.3512	4
260.5072	1
260.6901	4
261.1369	37
261.3901	2
261.5901	3
261.8164	2
262.1299	14
262.2484	9
262.5003	2
263.1375	35
263.6506	3
264.0836	7
264.3058	3
264.4159	2
264.7773	1
265.1117	28
265.3829	3
265.5122	4
265.7217	1
266.0797	12
266.3482	2
266.4320	1
266.5577	4
267.1105	30
267.5254	2
267.6825	1
267.9980	11
268.1544	13
268.3178	3
268.4657	1
268.6548	2
269.1048	43
269.6309	3
270.1464	40
270.5255	3
271.1045	41
271.4075	2
271.6259	2
272.1276	21
272.4471	3
272.5517	1
273.1317	35
273.5061	1
273.6869	3
274.1333	21
274.4551	3
275.1330	24
275.4920	0
275.6672	2
276.1053	13
276.2399	5
276.4244	1
276.7058	2
277.1790	25
277.4516	1
277.6123	2
277.8029	2
277.8847	1
278.1684	9
278.6485	3
278.7487	3
279.1279	15
279.3278	6
279.6650	2
279.8919	3
280.1339	8
280.3174	9
280.4256	2
280.5174	1
280.6120	2
280.7700	3
281.1337	22
281.4048	2
281.7494	1
282.1281	11
282.3965	2
282.5282	3
282.8094	3
283.1569	38
283.4916	1
283.6034	1
283.7388	1
284.1362	14
284.4282	1
284.5664	2
285.1392	39
285.5418	0
286.1432	18
286.4547	1
287.1104	33
287.5175	2
287.6850	2
288.0850	7
288.2889	4
288.4679	1
289.1639	16
289.4164	1
289.5376	1
290.1497	8
290.2780	7
290.3794	2
290.5149	2
290.6248	2
290.7204	2
291.1257	19
291.3454	5
291.4453	4
291.6758	5
291.9570	2
292.1447	8
292.2532	4
292.3617	2
292.5302	1
293.1084	20
293.2983	7
293.3947	3
293.7631	2
294.1491	11
294.4380	2
294.7704	2
295.1343	18
295.4276	3
296.1483	10
296.3560	2
296.5273	3
297.1261	26
297.4459	2
297.6115	2
297.7393	0
298.1170	12
298.3305	2
298.5447	1
299.1410	48
299.3667	8
299.5417	1
299.8459	2
300.1417	9
300.5674	3
300.7310	2
300.9375	7
301.1868	19
301.5269	2
301.6699	2
301.9257	4
302.0429	6
302.2766	7
302.6182	3
302.8519	1
303.1736	13
303.7155	3
303.8248	1
304.1158	6
304.2703	4
305.1090	9
305.2506	7
305.5653	2
305.7341	1
305.9429	3
306.1232	4
306.3593	2
306.7076	2
306.8128	2
307.1905	11
308.0950	12
308.4270	1
309.1141	13
309.3703	1
309.5507	2
309.9495	1
310.1599	7
310.4499	3
310.7277	1
311.1222	27
311.7503	3
312.1463	15
312.6219	1
313.1484	32
313.4120	2
313.6571	2
313.7523	1
313.9179	4
314.0440	2
314.1880	6
314.3191	2
314.5771	1
314.9117	2
315.2099	10
315.5317	4
315.6987	2
316.1789	4
316.4757	3
317.1654	12
317.7741	1
318.0029	2
318.2008	4
318.3442	2
318.5866	1
318.7264	3
319.1073	10
319.2644	8
320.1517	5
320.3519	3
320.5377	2
321.0263	10
321.2315	6
321.4439	2
321.7805	4
322.0381	4
322.2836	2
322.4372	2
322.6230	1
322.7451	2
322.9539	4
323.1794	16
323.3409	4
323.5447	2
323.6919	2
323.9927	4
324.1528	6
324.2641	2
324.6676	4
324.8816	1
325.1818	17
325.3893	4
325.6758	2
325.8396	2
326.1757	7
326.3064	2
326.7985	0
327.1612	9
328.0040	4
328.1951	5
328.4782	1
328.7829	1
329.1946	8
330.0808	5
330.3310	2
330.4417	2
330.6020	2
330.8953	2
331.1835	11
331.7760	1
332.0327	2
332.1808	7
332.2872	3
332.4475	3
332.6561	4
332.8236	1
333.1293	10
333.3875	2
333.5917	1
334.1909	6
334.3772	2
334.5563	2
334.7261	1
335.1261	6
335.6304	2
335.9261	1
336.1492	5
336.2643	2
336.3982	2
336.5716	1
336.7925	2
337.1992	10
337.6224	2
337.7440	1
337.9930	2
338.2392	2
338.4899	3
338.7126	3
338.8995	2
339.0533	3
339.2961	6
339.9976	1
340.1815	3
340.5021	0
340.8515	1
341.1074	7
341.2224	3
341.3647	1
341.9204	1
342.1599	0
342.3130	2
342.6445	2
343.2233	8
343.3355	4
343.6390	1
343.9303	2
344.1431	2
344.3352	4
344.9595	4
345.2120	10
345.3537	4
345.8185	2
346.2177	5
346.3882	2
347.1783	9
347.3755	4
347.4957	2
347.5806	1
348.1556	4
348.3557	3
349.2309	11
349.5174	0
349.7269	2
349.8450	3
350.0444	2
350.2006	1
350.4461	2
350.6614	2
351.1064	9
351.2612	9
351.5427	1
351.6868	3
352.2117	78
352.8016	1
353.1660	12
353.3771	6
353.9973	1
354.1039	2
354.2992	2
354.5362	1
355.2379	3
356.1949	2
356.3369	2
356.5710	2
356.8154	1
357.0201	2
357.2694	2
357.4251	4
357.5462	2
357.9787	1
358.2108	3
358.4054	3
358.8409	2
358.9728	3
359.2331	10
360.0471	4
360.2173	4
360.3571	1
360.6218	2
360.8006	1
361.0480	3
361.2845	5
361.5211	1
362.1104	3
362.2907	2
362.4184	1
362.8879	1
363.1743	9
363.3778	7
363.5156	1
363.7594	1
363.9557	3
364.2205	10
364.4167	4
364.7205	3
364.9247	7
365.2429	26
365.6802	1
366.2087	6
366.4718	1
366.7168	1
366.9590	2
367.2033	10
367.3554	7
367.7071	2
367.8592	2
368.0524	0
368.3516	6
368.6370	1
368.7617	0
368.8987	2
369.0393	2
369.2570	1
369.4156	3
369.7141	1
369.8857	1
370.1288	1
370.2297	1
370.3227	1
371.1744	2
371.3958	3
371.4895	2
372.1646	2
372.2750	2
372.6198	2
373.1283	5
373.3187	4
374.1303	2
374.2487	2
375.2833	7
375.4356	5
375.7733	1
375.9321	1
376.1356	7
376.3304	5
376.4430	2
377.1987	6
377.4001	4
377.7307	1
377.9096	2
378.2417	7
378.5449	1
379.2206	11
379.6091	2
379.7932	2
379.9528	1
380.1571	2
380.3600	3
380.5165	2
380.7184	2
381.2175	4
381.4165	1
381.6105	0
381.7909	3
382.2164	5
383.2414	44
383.6238	3
383.9001	2
384.3301	2
384.4881	0
384.7796	1
385.2190	5
386.0359	1
386.2408	1
386.3606	1
386.4682	1
386.6508	2
386.7662	1
386.9344	3
387.1747	2
387.3905	2
387.5205	2
388.2004	4
388.4524	3
388.8963	1
389.2263	7
389.4508	2
390.0869	2
390.2031	2
390.4334	2
390.5497	2
390.9028	2
391.2306	8
391.3888	3
391.5845	1
392.0496	4
392.2280	5
392.3255	2
392.6216	2
393.1257	3
393.2875	2
393.4060	2
393.4876	1
393.6790	2
394.0655	2
394.2829	2
394.5336	3
394.7027	2
394.8284	2
394.9541	2
395.0646	2
395.1448	1
395.3095	1
395.4562	4
396.0256	2
396.4208	2
396.7785	1
396.9180	2
397.1218	2
397.2128	1
397.4159	1
397.9008	1
398.2868	2
398.4299	2
399.0284	2
399.1910	2
399.3681	2
400.0440	2
400.1502	2
400.4206	1
400.6961	1
400.9614	1
401.1841	7
401.4046	6
401.5709	2
401.8290	2
402.0069	2
402.1942	2
402.3786	4
402.5153	3
402.6902	2
402.9173	1
403.0309	4
403.2471	4
403.4322	1
403.8531	2
404.0810	3
404.2704	2
404.3753	2
404.4939	1
404.7413	1
405.1362	4
405.3033	5
405.6122	1
406.2032	1
406.3313	3
406.8775	2
407.0562	1
407.4838	4
407.5851	1
407.7059	2
408.1893	1
408.3803	1
409.0251	2
409.1770	3
409.3029	3
410.0006	2
410.1172	2
410.3147	1
410.4522	3
411.0682	1
411.2448	3
411.4214	3
411.5387	2
412.0867	1
412.2626	0
412.5616	2
412.6854	2
413.1326	4
413.3081	3
413.5278	2
414.0748	2
414.2901	3
414.9817	0
415.1826	5
415.3076	2
415.4644	3
415.5634	2
415.8106	2
416.0961	2
416.3606	4
416.7740	1
417.1673	5
417.3653	3
417.4918	2
417.8908	2
418.2834	14
418.5190	3
418.9340	3
419.2637	10
419.5804	1
419.7358	2
420.2427	16
420.4871	8
420.9810	1
421.0909	1
421.4648	2
422.2089	1
422.6357	2
422.8613	1
423.2569	3
423.4356	2
424.2660	3
424.5698	2
424.6516	1
424.8881	2
425.1232	2
425.2932	3
425.4097	1
425.5812	2
425.8575	2
426.3192	1
427.1787	5
427.4175	2
427.6035	2
428.2729	5
429.2368	7
429.4171	2
429.5343	1
430.0178	2
430.1892	1
430.2970	2
430.7879	1
430.9130	2
431.0396	4
431.2297	4
431.4004	3
431.7627	1
432.0353	2
432.2161	4
432.3716	5
432.9204	1
433.1136	3
433.2864	3
433.4868	2
434.0060	2
434.1695	1
434.5088	2
434.7438	3
435.1012	0
435.2350	1
435.4491	2
436.0604	2
436.2586	2
436.4785	2
437.0703	2
437.2006	4
437.2896	1
438.2736	3
438.6094	2
438.7881	2
439.1246	1
439.3127	4
439.7252	2
440.1616	2
440.3114	2
440.6472	1
440.9056	1
441.2538	6
441.4058	3
442.0876	2
442.2845	2
442.4973	2
442.8940	2
443.1966	3
443.3465	2
443.4456	2
443.6317	3
443.7888	2
444.2492	4
444.6344	2
445.1188	0
445.3469	4
445.4700	3
445.5959	1
445.8183	2
446.0196	4
446.2484	3
446.5018	2
446.7118	4
447.1963	11
447.6250	2
447.9357	1
448.1950	10
448.3551	4
448.4782	4
448.6861	3
448.9236	2
449.0287	1
449.3220	1
449.5473	4
449.9109	2
450.2427	1
450.4723	2
450.6476	1
451.0997	2
451.3257	3
451.4938	2
452.2639	2
452.4661	2
452.7856	2
453.3449	3
453.5065	3
453.6761	1
453.8203	2
454.2732	11
454.4739	7
454.6652	1
455.2334	4
455.5312	1
455.8980	2
456.0668	2
456.3336	4
456.6314	2
457.2715	7
457.5266	3
457.7513	1
458.1297	2
458.7096	1
459.2483	2
459.4636	0
459.8029	1
460.0537	2
460.2828	3
460.3720	2
461.3015	4
461.9730	1
462.1942	2
462.3414	2
462.9208	3
463.1021	4
463.3929	5
464.0978	4
464.3422	1
464.9906	1
465.2343	4
465.3751	2
465.6181	2
466.4242	1
466.5313	1
466.8998	1
467.2198	3
467.3016	2
467.6079	3
467.7324	0
468.3652	2
468.5665	4
468.9966	1
469.2204	3
469.4470	6
469.6643	0
469.8221	1
469.9908	2
470.3544	2
470.6593	1
471.0264	2
471.3219	6
471.5573	2
471.8028	1
472.0063	3
472.2968	6
472.4214	3
472.6560	5
472.8871	2
473.0182	4
473.2848	10
473.4485	9
473.6882	6
473.8940	3
474.0309	2
474.1967	4
474.4916	2
474.6089	2
474.7683	4
474.9197	2
475.1849	2
475.3957	4
475.6246	1
476.1571	2
476.4194	3
476.7128	1
476.8411	2
477.0679	2
477.2439	4
477.3961	1
477.5722	1
477.8816	3
478.0888	2
478.4178	2
478.5859	1
478.7258	2
478.8794	4
479.2338	2
479.3765	2
479.5280	1
479.6693	2
480.1708	2
480.3071	5
480.5056	1
480.6789	2
480.8296	3
481.0695	2
481.2507	3
481.5102	5
481.7487	2
482.1299	3
482.2430	2
482.3822	3
482.5489	2
482.6982	1
482.8352	2
483.0462	4
483.2491	7
483.3811	3
483.6022	4
483.7537	2
483.9784	4
484.2278	2
484.4163	5
484.5968	2
484.8078	6
484.9492	3
485.1739	7
485.3218	4
485.4523	2
485.6039	2
485.8438	3
486.0911	7
486.3014	3
486.5464	4
486.7618	2
486.9757	3
487.3201	5
487.5602	2
487.8451	2
487.9459	1
488.1055	3
488.3564	4
488.5174	0
488.9735	2
489.2469	4
489.4449	4
489.5551	2
489.7814	5
489.9729	4
490.0860	2
490.2949	8
490.4879	6
490.6322	2
490.9781	3
491.0920	2
491.3495	5
491.6934	6
491.9639	1
492.1866	4
492.4550	0
492.6269	2
493.0121	2
493.1601	2
493.2428	2
493.4162	3
493.5838	3
493.6781	2
493.7920	0
494.1153	5
494.2964	2
494.7021	1
495.0867	2
495.2982	3
495.7444	1
495.8763	0
496.2414	1
496.3878	3
496.4856	2
496.6971	1
496.8811	0
497.0180	2
497.2832	2
497.4230	2
497.5476	2
497.8077	5
498.0671	2
498.3468	1
498.5815	3
498.7533	2
498.9054	2
499.4054	6
499.7025	6
499.9547	3
500.1844	5
500.3047	5
500.4837	3
500.6525	2
500.7837	3
501.0337	4
501.3011	4
501.5258	5
501.7504	5
501.9700	2
502.2215	4
502.6875	3
503.1651	8
503.5609	5
503.7109	5
504.0755	7
504.2009	3
504.3676	5
504.6612	2
504.7851	4
504.9983	2
505.0997	3
505.4209	5
505.6434	4
505.8159	2
506.0226	4
506.1610	1
506.3386	2
506.5438	4
506.7439	3
506.8439	1
507.3869	13
507.8640	2
508.2765	26
508.4738	12
509.1415	2
509.4156	4
509.5679	2
509.7767	2
509.9087	2
510.0987	3
510.7644	1
511.1879	4
511.2995	3
511.4685	1
511.6861	2
512.0182	3
512.2822	1
512.4178	3
512.6840	2
512.8718	2
513.2787	5
513.6138	2
513.7618	2
513.8995	3
514.1019	2
514.4058	7
514.6488	1
514.9143	1
515.2204	1
515.3249	2
515.4366	4
515.5200	2
516.2302	2
516.8584	1
517.3285	1
517.6978	1
518.1795	2
518.5916	1
518.8608	2
519.0153	4
519.2802	5
519.4528	3
519.5906	1
519.7583	3
520.3699	96
521.0489	1
521.2060	2
521.3718	4
521.5550	4
521.6434	2
521.7635	2
521.8837	1
522.1060	2
522.4608	1
522.6353	2
522.7939	2
523.0278	1
523.2045	2
523.3051	2
523.4435	2
523.5825	2
523.7947	2
523.9301	2
525.1243	4
525.3929	2
525.6761	3
525.7739	2
525.9079	2
526.1194	6
526.2889	4
526.5293	4
526.8132	2
526.9791	2
527.1530	5
527.2847	4
527.4622	7
527.6868	2
528.0547	3
528.3024	3
528.5524	3
528.7298	1
528.9305	2
529.1050	1
529.2405	2
529.4057	4
529.5215	2
529.6194	2
530.1866	1
530.3047	2
530.6807	2
530.8604	2
531.0176	2
531.3066	2
531.4812	1
531.7131	2
531.8768	0
532.3376	3
532.6904	3
533.2976	2
533.4708	3
533.8976	2
534.0548	1
534.3273	2
534.5222	1
534.6135	1
534.8389	3
535.0795	2
535.2911	1
535.3990	1
535.7896	2
536.0461	2
536.4549	2
536.5585	2
536.6955	2
536.9028	3
537.2738	2
537.4594	2
537.6659	2
537.8718	2
538.0479	1
538.2030	2
538.3363	3
538.5023	2
538.8850	3
539.2460	4
539.5294	4
539.7316	3
539.8969	3
540.0999	2
540.2586	4
540.7058	3
540.8320	4
541.0944	4
541.1777	2
541.3466	5
541.4778	4
541.6112	4
541.7548	3
542.0774	3
542.4029	6
542.7864	1
543.2685	8
543.4468	7
543.7448	3
544.0297	2
544.4039	6
544.5250	1
544.6243	1
544.8215	1
545.0485	2
545.2232	4
545.4864	2
545.6466	1
546.3840	2
546.5958	0
546.8220	1
546.9076	1
547.1317	1
547.3840	2
547.5008	2
547.6828	1
547.9612	5
548.1288	2
548.4130	4
548.8924	1
549.0229	1
549.3145	1
549.4755	4
549.5850	2
549.7199	3
549.9534	1
550.0876	2
550.3857	2
550.5823	1
550.7614	2
551.0464	5
551.2263	3
551.3351	2
551.4816	4
551.7427	2
551.9807	2
552.2389	4
552.4659	1
552.6277	3
552.8192	5
552.9352	5
553.0034	3
553.2167	9
553.4786	5
553.7318	3
553.8848	4
554.1481	5
554.4224	6
554.8271	3
555.2080	4
555.4481	4
555.5881	5
555.7296	1
555.8936	7
556.0350	4
556.3557	8
556.6750	4
556.9209	3
557.1023	4
557.4368	8
557.6008	11
557.7792	4
558.0216	5
558.2719	6
558.5280	4
558.6899	2
558.9721	7
559.2399	4
559.4750	8
559.7711	5
560.0504	7
560.2710	7
560.5083	5
560.7195	3
560.8864	5
561.2536	4
561.4728	2
561.6223	2
562.0403	5
562.3190	6
562.6775	8
562.9518	2
563.1340	3
563.3677	5
563.4852	7
563.6870	12
563.9360	5
564.0862	4
564.2299	8
564.5217	9
564.6749	11
564.7939	4
564.8962	3
565.3049	3
565.5306	3
565.6451	2
565.8581	4
565.9559	4
566.1760	4
566.3383	5
566.4672	5
566.5628	2
566.8279	3
567.3914	18
567.6196	12
568.0339	2
568.2975	2
568.5410	5
568.6532	2
568.8930	4
569.0444	3
569.2088	3
569.5399	8
570.2548	12
570.6540	17
570.9148	9
571.4401	13
571.9907	9
572.2268	12
572.5333	13
572.9962	13
573.4556	12
573.8237	14
574.1526	8
574.4664	16
574.8699	10
575.3547	15
576.4271	21
576.9061	19
577.3569	23
578.0605	27
580.3007	41
582.4433	465
583.4936	90
585.4386	189
586.1708	10
586.6551	16
587.1350	9
587.3555	16
588.1102	15
588.6924	14
589.0811	12
589.2834	11
589.8351	13
590.3103	15
590.8339	21
591.3699	20
592.4644	24
600.4401	999
601.1343	609
601.9401	269
602.7206	137
603.6757	68
604.8498	33
605.3064	24
605.9869	16
606.4276	16
606.9291	12
607.1923	7
607.3677	5
607.5315	8
607.6417	4
607.8323	6
608.0584	3
608.2839	4
608.4564	2
608.7645	3
609.1182	5
609.1929	2
609.4741	1
609.6213	2
609.7844	1
610.0279	2
610.3077	2
610.5310	2
610.6216	1
610.7275	1
610.8674	1
611.1494	1
611.5546	2
611.7330	0
