Mass spectrum: Isorenieratene; FAB-EBEB; MS2; m/z: 528.38; [M]+*
Name: Isorenieratene
Formula: C40H48
Exact mass: 528.37560
SMILES: c(c1C)(c(C=CC(=CC=CC(C)=CC=CC=C(C)C=CC=C(C=Cc(c2C)c(ccc2C)C)C)C)c(cc1)C)C
InChI: InChI=1S/C40H48/c1-29(17-13-19-31(3)21-27-39-35(7)25-23-33(5)37(39)9)15-11-12-16-30(2)18-14-20-32(4)22-28-40-36(8)26-24-34(6)38(40)10/h11-28H,1-10H3/b12-11+,17-13+,18-14+,27-21+,28-22+,29-15+,30-16+,31-19+,32-20+
Instrument: JMS-HX/HX 110A, JEOL
Instrument type: FAB-EBEB
Ms type: MS2
Ion mode: POSITIVE
Collision energy: 3 kV
Ionization: FAB
Base peak: 133.0756
Precursor m/z: 528.38
Precursor type: [M]+*
m/z	relative intensity
0.0545	0
0.4440	0
1.1784	0
2.5399	0
4.1760	0
5.0456	0
9.4559	0
10.2980	0
13.0071	0
14.0214	0
14.5910	0
15.0341	0
18.2930	0
23.9924	0
25.0576	0
26.0233	3
27.0364	12
28.0409	2
29.0522	6
35.7379	0
36.0144	0
37.0202	2
38.0262	4
38.7495	0
39.0322	30
40.0366	3
41.0436	31
42.0524	1
43.0518	7
44.6479	0
48.4491	1
49.0242	1
50.0142	12
50.5108	0
51.0193	32
51.6450	0
52.0183	8
52.7015	0
53.0259	35
54.0367	1
55.0398	42
57.0468	1
59.9636	1
60.9828	2
62.0179	12
62.6827	0
63.0174	32
64.0198	5
65.0295	45
66.0385	3
67.0300	34
68.0578	1
69.0508	12
70.0551	0
72.1313	0
73.0665	2
74.0115	16
74.6576	0
75.0228	16
75.5829	1
76.0175	12
76.6036	1
77.0290	150
77.5272	1
78.0249	30
78.5595	1
79.0376	98
80.0508	7
81.0409	44
82.0796	0
82.4347	0
83.0478	2
83.9686	0
85.0091	2
85.3050	0
86.0189	8
87.0240	11
88.0219	6
88.4792	0
89.0378	28
90.0379	8
91.0522	300
91.5609	1
92.0531	17
93.0568	99
93.4922	1
94.0563	7
94.5071	1
95.0797	28
95.5558	0
95.7563	0
96.0578	2
97.0342	2
98.0380	4
98.4594	1
99.0450	6
99.7231	0
100.0575	3
100.4302	0
100.7001	0
101.0388	10
102.0514	31
102.6027	1
103.0683	77
104.0610	32
104.6080	2
105.0710	322
106.0665	17
106.3645	1
107.0772	46
107.4835	1
108.0872	4
108.7014	1
109.0926	4
109.9105	3
110.4804	1
111.0608	3
111.9635	1
113.0461	10
113.6213	3
114.0404	11
115.0549	302
116.0533	88
117.0707	203
118.0719	36
119.0656	366
119.6721	1
120.0721	22
120.4975	1
121.0925	28
121.9991	2
122.5585	1
123.0119	1
123.4237	1
123.7077	0
124.0412	2
125.0224	5
125.2599	2
126.0568	19
127.0544	137
127.4708	8
128.0492	395
129.0517	437
130.0604	141
131.0677	200
132.0556	119
133.0756	999
134.0659	10
134.9981	3
136.0136	3
137.0276	5
138.0233	3
139.0510	61
140.0798	22
141.0605	369
142.0654	309
143.0686	503
144.0768	189
145.0845	249
145.5466	3
146.1010	12
146.5271	1
147.1080	31
147.5319	2
147.9950	1
148.3008	1
149.1444	6
150.0655	15
151.0800	44
152.0888	156
153.0893	206
154.0959	91
155.0968	387
156.1115	362
157.1127	510
158.1252	257
159.1358	94
160.0842	3
160.5599	1
161.1305	3
162.0816	5
162.3606	2
163.1058	28
164.1333	25
165.1046	331
166.1147	121
167.1123	252
168.1225	93
169.1229	407
170.1186	206
171.1269	416
172.1280	25
173.1363	494
174.1241	10
175.0901	7
176.1003	36
177.0993	33
178.0895	179
179.0990	291
180.0998	126
181.1065	254
182.1217	107
183.1163	243
184.1248	117
185.1312	43
186.1448	4
187.0963	18
188.1417	11
189.0703	92
190.0994	42
191.1024	148
192.1006	143
193.1047	276
194.1066	132
195.1144	225
196.1213	93
197.1288	222
198.1649	14
199.1385	109
200.1193	16
201.1260	21
202.0970	108
203.1073	111
204.1020	44
205.1093	127
206.1184	165
207.1346	265
208.1446	115
209.1456	152
210.1713	27
210.5772	3
211.1773	58
212.2106	6
213.0959	24
214.1639	13
215.1256	117
216.1458	68
217.1448	117
218.1482	56
219.1615	141
220.1698	112
221.1772	180
222.1930	53
223.1929	90
224.1841	14
224.4830	4
225.2094	20
226.1364	31
227.1232	32
228.1226	39
229.1589	116
230.1631	61
231.1676	114
232.1806	70
233.1723	138
234.1955	83
235.1865	94
236.1983	22
237.2022	70
238.1344	7
239.1715	72
240.1615	16
241.1517	42
242.1695	35
242.6050	3
243.1726	96
244.1802	60
245.1839	103
246.1894	73
247.2060	103
248.2134	49
249.2276	69
250.1984	22
251.2009	40
252.1723	38
252.6445	5
253.1781	45
254.1883	16
255.1660	42
256.2028	42
257.1837	66
258.1964	33
259.2067	69
260.2200	45
261.2321	78
262.2282	20
263.2450	89
264.1909	17
265.2097	59
266.1914	26
267.1978	38
268.2141	23
269.2004	47
270.2268	37
271.2287	54
272.2008	24
273.2470	37
274.2127	23
275.2349	39
276.2161	22
277.2250	40
278.2423	14
279.2311	30
279.6001	3
280.2256	18
281.2254	43
282.2299	26
283.2345	48
284.2422	31
285.2501	42
286.2431	16
287.2665	33
288.2476	12
288.6689	1
289.2316	33
290.1994	11
291.1935	13
292.2221	11
292.5201	3
293.2001	23
294.2085	16
295.2089	36
296.2383	24
297.2213	41
297.6736	2
298.2580	19
299.2359	24
300.2097	14
300.6982	3
301.2554	19
302.2709	13
303.2399	26
303.6721	1
304.2641	12
305.1907	14
306.1919	9
306.6877	1
307.2277	17
308.2196	13
309.2531	21
310.2550	14
311.2419	35
312.2194	13
313.2701	29
314.2204	12
315.2742	32
316.2979	18
317.2293	20
318.2810	16
319.2334	12
320.2454	12
321.2493	12
322.3127	14
323.2564	18
324.2118	11
325.2942	23
326.2761	10
327.2734	21
328.2956	9
329.3001	39
330.2564	10
330.6608	1
331.2488	12
332.2358	6
333.2243	9
333.6454	1
334.2061	4
335.2612	11
335.7999	2
336.3220	6
336.7295	2
337.2683	10
337.7878	2
338.3018	8
338.7329	2
339.2691	20
340.2781	9
341.3010	23
341.7060	2
342.2867	14
343.3112	9
343.7718	1
344.2724	3
344.6361	2
345.2640	7
346.2697	4
347.2686	7
347.7542	1
348.3036	5
349.2815	9
350.3006	5
350.8164	1
351.2770	9
351.6518	2
351.8828	1
352.3738	6
352.6782	1
353.3062	12
354.3051	6
354.7632	1
355.3139	22
356.3145	12
356.7726	1
357.2833	6
357.8550	1
358.2717	2
359.3239	4
360.3388	3
361.2694	7
362.0782	2
362.3857	3
363.3195	7
363.8576	1
364.3847	9
365.3270	7
366.2970	4
367.3003	10
368.3066	6
369.2991	4
370.2806	8
371.2969	3
371.9145	1
372.2773	2
372.7343	0
373.2787	4
373.8105	1
374.3175	2
375.3439	3
375.9715	1
376.3733	2
376.5853	1
377.2726	4
378.4283	5
378.7609	2
379.3610	15
380.3021	3
380.7443	0
381.3611	12
382.3094	9
383.3576	8
384.3394	3
385.2644	3
386.2380	2
386.7180	0
387.2922	2
388.2661	3
388.8141	1
389.3830	2
389.6605	1
390.0407	1
390.3695	2
390.7997	1
391.3923	5
391.7906	0
392.0959	1
392.4235	2
392.7608	2
393.3476	10
394.4085	13
395.3310	27
395.7715	1
396.3520	4
396.9588	1
397.3564	3
398.3291	2
399.0677	0
399.4280	4
400.1376	2
400.4951	2
401.2727	2
402.7670	2
403.3354	2
403.7319	2
404.4196	2
404.7246	2
405.2986	6
406.3830	7
407.2858	11
408.3566	18
409.3621	6
409.8540	1
410.2531	1
410.5911	0
411.3034	3
412.1779	2
412.5244	2
413.3144	3
413.8424	2
414.3179	2
414.6700	1
415.5003	5
416.0272	4
416.6524	8
417.5564	14
418.7267	16
419.6115	10
421.3382	22
422.3245	12
423.2109	3
423.6687	1
424.0377	1
424.3929	2
424.6232	1
425.2961	2
425.8761	0
426.3854	2
427.2693	3
427.5885	2
428.4268	2
429.3220	2
429.6038	1
430.2992	2
431.4180	5
432.3218	8
432.8452	2
433.3548	7
433.7630	4
434.4558	8
435.3918	12
436.3903	350
437.2903	6
438.3403	4
439.2987	2
440.2531	2
440.4532	2
440.9755	1
441.2492	1
441.5410	1
441.8689	2
442.1898	1
442.6067	1
443.3382	3
443.6808	1
444.3911	1
444.7490	1
445.2082	1
445.4621	0
445.8548	1
446.2641	1
446.4555	1
447.0883	1
447.5157	3
447.7488	1
448.3926	16
449.4390	25
449.9303	1
450.7423	1
451.3488	2
452.4593	1
453.4144	3
453.7934	0
454.4181	1
455.0692	1
455.4108	1
456.3203	1
456.6188	1
457.3742	2
458.2116	0
459.4323	2
459.6101	1
460.4587	1
461.2921	1
461.5699	2
461.9339	1
462.5076	0
463.2452	1
463.8898	1
464.3525	1
464.6192	1
465.1333	2
465.6946	1
466.1573	1
466.4005	0
467.4232	3
467.6914	2
468.4780	1
468.6920	1
469.2562	1
469.5270	1
469.8365	0
470.2888	1
470.5900	2
471.3699	1
472.2443	1
472.6482	1
473.4338	2
475.5743	1
476.1935	1
476.5808	1
476.9431	1
477.2319	1
477.7429	1
478.1511	1
479.4632	1
480.5283	1
480.7963	1
481.2073	2
481.5295	3
481.9434	1
482.4475	3
482.7794	1
483.4225	5
484.3128	1
484.7560	1
485.4213	2
486.0756	1
486.5076	2
487.3022	1
487.6454	1
488.0955	0
488.5623	1
488.8305	0
489.3376	1
490.1922	1
490.4103	1
490.6465	0
491.3427	1
491.8721	1
493.5204	1
493.8511	1
494.4960	2
495.3617	2
496.2297	2
496.6360	3
497.4527	18
498.4400	14
498.8366	2
499.4635	5
499.7617	1
500.2415	1
500.6992	1
501.1832	0
501.8490	0
502.2457	1
502.7825	1
503.0530	1
503.9574	1
504.4457	0
504.8147	1
505.3391	2
505.8455	2
506.2131	3
506.8471	4
507.6463	3
508.5884	6
510.1772	6
511.4054	11
512.4476	41
513.4677	192
514.4712	5
515.1458	1
515.4484	1
515.9647	3
516.4880	4
519.7907	10
528.3840	999
530.1730	218
531.5330	63
532.4305	26
534.1324	10
