Mass spectrum: beta-Carotene; FAB-EBEB; MS2; m/z: 536.44; [M]+*
Name: beta-Carotene
Formula: C40H56
Exact mass: 536.43820
SMILES: C(=CC(=C(C)2)C(C)(C)CCC2)C(C)=CC=CC(=CC=CC=C(C)C=CC=C(C=CC(=C(C)1)C(C)(C)CCC1)C)C
InChI: InChI=1S/C40H56/c1-31(19-13-21-33(3)25-27-37-35(5)23-15-29-39(37,7)8)17-11-12-18-32(2)20-14-22-34(4)26-28-38-36(6)24-16-30-40(38,9)10/h11-14,17-22,25-28H,15-16,23-24,29-30H2,1-10H3/b12-11+,19-13+,20-14+,27-25+,28-26+,31-17+,32-18+,33-21+,34-22+
Instrument: JMS-HX/HX 110A, JEOL
Instrument type: FAB-EBEB
Ms type: MS2
Ion mode: POSITIVE
Collision energy: 3 kV
Ionization: FAB
Base peak: 105.0893
Precursor m/z: 536.44
Precursor type: [M]+*
m/z	relative intensity
0.0114	3
0.1145	6
3.6652	1
4.0879	1
6.2086	1
14.6310	1
15.0247	3
15.7278	1
24.9815	1
25.9949	4
27.0148	38
28.0226	6
29.0326	42
29.5899	4
35.8046	1
36.9737	4
38.0151	14
39.0161	125
40.0324	13
40.4716	1
41.0337	275
42.0313	4
43.0477	122
43.9968	1
44.5197	3
45.8136	1
47.8138	1
48.0880	1
48.9763	4
50.0135	33
51.0262	64
51.4333	1
52.0423	28
53.0374	147
54.0399	6
55.0520	429
56.0592	10
57.0734	48
57.7103	1
58.0288	1
60.9932	4
61.4360	1
62.0196	13
63.0225	55
63.2864	3
63.7194	1
64.0773	10
65.0452	105
65.3979	3
66.0483	17
66.6862	1
67.0564	187
68.0671	7
68.7239	1
69.0671	689
70.0575	10
71.1147	8
72.0255	1
72.2873	1
73.0064	3
74.0219	13
75.0151	23
75.2005	7
75.4515	3
76.0112	17
77.0433	352
77.4397	3
78.0345	65
78.5360	7
79.0542	330
80.0449	33
81.0715	422
82.1047	10
83.0960	106
83.6441	1
84.0949	3
85.1199	6
86.0189	10
87.0325	8
87.9884	8
88.2505	3
89.1035	35
90.0954	18
91.0680	805
92.0630	75
92.4264	3
93.0863	494
94.0872	21
94.3463	1
95.0940	385
96.0633	3
96.5391	4
97.1112	16
98.0549	13
98.4890	6
99.0197	3
100.0285	1
100.3640	1
100.7048	3
101.0780	14
101.5029	3
102.0662	34
102.4532	3
103.0717	133
104.0570	69
105.0893	999
106.0865	98
106.4611	3
107.0929	447
107.7384	1
108.0828	30
108.5732	1
109.1095	167
109.4273	4
110.0061	6
110.3440	3
111.0633	11
111.5259	1
112.7611	3
113.0637	8
113.3521	6
113.6274	6
114.1220	18
115.0583	386
115.4855	7
116.0722	137
117.0692	396
118.0596	72
119.0738	901
119.5035	11
120.0895	91
120.4760	6
121.0933	307
121.5970	1
122.0559	18
122.3943	3
123.0981	157
124.0340	8
125.0402	7
125.5985	1
126.0331	18
126.4732	1
127.0338	122
128.0477	439
129.0481	497
130.0484	190
130.3727	8
131.0713	555
132.0658	102
132.3895	11
133.0817	492
133.5742	1
134.0912	34
134.6260	3
135.0869	71
136.0662	8
136.3172	4
137.1194	69
138.0251	7
138.5188	8
139.0358	57
139.5165	3
140.0868	18
140.5124	7
141.0562	338
141.6017	8
142.0686	323
142.4625	6
143.0780	664
144.0774	208
145.0942	630
146.0955	72
146.5740	6
147.1223	204
147.6736	3
148.1146	21
149.0995	27
149.5014	3
150.0430	28
150.5177	4
151.0693	47
152.0801	158
153.0712	222
154.0618	126
154.4928	4
155.0998	444
156.1058	250
157.1139	519
158.1422	81
158.6174	6
159.1313	338
160.1088	45
161.1394	154
162.0355	11
163.1257	30
164.0674	25
164.3884	6
165.1099	341
166.0996	85
167.1122	236
168.1171	126
169.1186	433
170.1180	113
170.6803	6
171.1416	293
171.5297	8
172.1466	50
173.1328	174
173.6060	3
174.1807	20
174.4209	4
174.6417	3
175.1585	140
176.1077	31
176.3829	4
176.6374	4
177.1618	99
178.0816	187
178.4755	8
179.1035	291
179.6426	6
180.0969	130
181.1075	335
181.5218	8
182.1105	120
183.1237	365
183.5664	6
184.1321	79
185.1298	207
186.0875	31
187.1479	96
187.5621	8
188.1123	18
189.1193	93
190.0763	30
190.5908	7
191.0844	102
191.5654	7
192.1140	113
192.5490	6
193.1189	266
193.6791	7
194.1131	146
195.1205	338
196.1256	64
197.1312	286
198.1035	37
198.5272	4
199.1467	88
200.1623	28
200.4370	7
201.1558	105
202.0849	88
203.1217	137
204.0729	37
204.2959	14
205.1092	140
205.5569	8
206.1093	76
206.4724	4
207.1239	184
208.1348	82
209.1518	204
209.5862	7
210.1453	45
210.4906	3
211.1504	106
211.7424	6
212.1660	27
213.1508	48
214.1572	16
215.1287	64
216.1289	38
216.7009	3
217.1423	74
218.1547	55
218.5070	4
219.1661	82
219.6862	3
220.1879	48
221.1703	117
222.1943	33
222.7505	8
223.1931	81
223.6713	6
224.2222	33
225.2338	81
226.1662	31
227.1557	40
227.6463	3
228.1570	31
228.6464	7
229.1701	62
230.1337	31
230.6305	4
231.1531	69
232.1587	35
232.7044	4
233.1989	96
234.1896	25
234.5802	7
235.1991	67
236.1776	30
237.2121	52
238.2184	23
238.6581	6
239.2264	69
240.1334	27
241.2250	51
242.2240	30
243.1733	68
243.6395	6
244.1945	23
244.7352	6
245.1845	37
245.7583	3
246.1991	24
246.4610	6
247.1797	75
248.1992	42
248.7406	4
249.2277	51
250.1514	13
251.2271	71
252.2057	18
252.7789	3
253.2175	58
253.7279	4
254.2483	21
255.2092	42
256.1918	17
257.1603	45
258.2483	13
259.1758	47
260.2126	23
261.2253	57
262.2226	17
262.8248	4
263.2589	69
263.6183	3
264.2796	11
264.5212	6
265.2172	64
265.7796	1
266.3076	24
266.6299	7
267.2678	50
268.2806	50
269.2348	41
270.2021	11
270.7470	4
271.2214	30
271.8642	4
272.2166	8
272.8380	6
273.2911	31
274.2062	7
275.2553	27
276.2126	11
276.8259	3
277.2536	13
277.4537	7
278.2876	16
278.8206	4
279.2485	28
280.2686	14
280.8379	7
281.2875	54
281.5989	8
282.2058	6
282.5992	1
283.1822	18
283.7654	3
284.2909	6
285.1968	13
285.9012	6
286.3665	11
287.2138	21
287.6965	1
288.2528	6
289.2749	21
290.1904	10
290.4702	3
290.7831	7
291.2316	25
291.5388	3
291.7278	1
292.1692	13
293.2397	23
294.3248	17
295.2789	10
296.2476	7
297.2756	14
297.8807	3
298.2101	4
299.1317	16
299.3772	4
299.6691	3
300.2759	3
301.1878	28
302.3846	6
303.2477	28
304.2772	13
305.3040	31
305.7162	1
306.1994	6
306.5408	1
307.3177	10
308.3105	7
308.7779	4
309.1557	7
309.4698	1
310.2892	6
310.7047	4
311.2187	13
312.4424	1
313.2376	8
313.7127	1
314.2835	13
314.7312	3
315.2688	23
315.8484	1
316.2267	4
317.2616	14
318.2735	4
318.8709	1
319.3030	20
320.2746	13
321.3103	10
321.7991	1
322.3301	13
323.3139	4
324.2891	4
325.3108	7
325.5295	4
326.1799	4
326.4697	6
327.2608	8
328.2766	14
328.7824	1
329.2854	11
330.3567	11
331.3527	23
332.1372	3
332.5795	1
333.2930	30
334.2751	7
335.2238	13
336.3164	3
336.7619	4
337.3380	7
337.9317	6
338.4339	3
338.6705	1
339.1060	7
339.4675	3
340.4315	6
341.2796	13
341.8024	3
343.2519	14
343.6325	3
343.8722	1
344.1685	6
344.5841	1
345.3440	24
346.4033	23
347.3218	24
348.3452	3
349.0139	1
349.2625	3
350.2541	4
351.3356	7
351.9082	6
353.2819	4
353.7965	4
354.3388	4
355.4031	8
357.2501	16
358.5811	6
359.4118	33
360.2280	8
360.8537	4
361.2117	1
361.9248	4
362.2188	4
362.9393	4
363.3250	3
364.3455	6
365.2326	11
365.5307	3
366.3042	16
367.3178	13
368.0610	3
368.4028	3
369.3483	10
370.3564	10
371.2949	14
372.3367	10
373.1400	6
373.5563	8
374.2884	1
375.3321	7
377.3820	4
377.5494	1
378.0751	3
378.4232	13
379.0406	7
379.4033	11
380.2393	4
380.5102	6
381.3842	20
382.3297	17
382.8426	3
383.3991	28
384.3667	10
385.3592	14
386.3357	13
387.4070	10
387.9493	6
389.4685	3
390.2442	3
390.7123	1
391.3963	7
391.7638	4
392.5601	4
392.8912	3
393.3215	3
393.9298	1
394.5410	6
395.2953	8
395.8460	1
396.3700	6
396.7979	1
397.2332	1
397.5869	1
398.6235	3
399.3792	30
399.8990	3
400.3839	10
400.9227	3
401.1469	3
401.5445	7
403.2777	1
404.4984	4
405.3609	10
405.7455	6
406.4740	4
407.4139	8
408.3218	1
409.3274	7
410.3462	4
410.6873	1
411.3549	8
411.7194	1
412.4110	25
413.4129	20
413.9823	1
414.4440	11
415.0572	7
415.3966	8
416.2298	4
417.1752	1
418.1484	1
420.2815	4
420.7216	3
421.0656	8
421.3847	7
422.1994	3
422.5273	3
422.9354	3
423.3217	4
423.9018	7
424.5024	11
425.3377	27
425.9720	11
426.7782	11
427.2711	24
427.5335	10
427.8777	8
428.3487	16
428.6039	6
429.2149	3
429.6553	10
430.4648	16
430.8163	6
432.2005	6
433.2611	3
434.1787	4
435.4802	8
435.8508	3
436.0580	1
436.3178	4
436.8154	3
437.8618	3
439.4585	10
440.5138	10
441.0247	4
441.5824	7
441.8437	3
442.5007	3
442.9197	8
443.5095	23
443.9169	17
444.4805	512
445.1464	4
445.4399	4
445.7929	4
447.2497	6
447.5968	4
448.2021	4
449.4855	3
449.9246	1
450.2484	3
450.8596	4
451.3906	8
452.1360	3
452.7604	7
453.4038	7
454.0049	3
454.3508	3
454.8279	4
455.6421	7
456.4827	17
457.4371	16
458.1639	1
459.5345	1
460.1432	1
462.1651	1
462.8425	4
463.4119	1
464.1668	6
464.4968	1
465.2912	6
465.5861	6
466.1469	4
466.7690	3
467.1999	4
467.5299	1
468.3230	7
468.5275	4
469.0139	4
469.5412	1
470.2306	4
470.8894	6
471.2298	3
472.5194	3
472.7936	4
473.5915	6
475.5872	1
476.3269	7
476.9164	3
477.4825	8
478.4149	3
478.5944	1
479.3168	6
480.5470	13
481.5978	3
482.7378	1
484.4456	4
486.4456	3
487.8415	4
489.5367	8
490.0989	6
490.4538	1
490.7108	4
491.5170	6
492.4969	4
492.8314	7
493.5763	6
494.4468	10
498.4420	1
501.4558	6
501.6570	3
502.0417	4
502.3857	6
503.3681	4
503.6494	1
504.5080	4
505.4250	25
505.8740	6
506.5038	16
507.0417	4
507.4879	7
508.6470	4
509.4227	3
511.2178	1
511.8463	4
512.1832	3
512.6718	1
513.0801	4
513.3411	6
513.8093	3
514.4394	8
515.4881	10
516.0118	8
516.3458	7
516.7250	6
517.8016	11
518.4683	28
519.2299	17
519.8018	14
520.5429	71
521.5307	201
522.1421	8
522.6251	14
523.2263	3
523.9573	10
524.9614	11
526.3055	17
527.3563	16
528.1926	13
528.9546	20
529.5968	20
530.9646	35
536.5316	999
538.0532	330
538.7966	153
539.9824	65
540.4229	31
541.2176	21
541.7717	13
542.5738	10
543.7521	11
