Mass spectrum: (+)-gamma-Tocopherol; EI-EBEB; MS; POS
Name: gamma-Tocopherol
Name: (+)-gamma-Tocopherol
Class: Natural Product; Lipid; Tocopherol
Formula: C28H48O2
Exact mass: 416.36543
SMILES: [C@H](CCC[C@@](C2)(C)Oc(c(C2)1)c(C)c(C)c(O)c1)(C)CCC[C@H](C)CCCC(C)C
InChI: InChI=1S/C28H48O2/c1-20(2)11-8-12-21(3)13-9-14-22(4)15-10-17-28(7)18-16-25-19-26(29)23(5)24(6)27(25)30-28/h19-22,29H,8-18H2,1-7H3/t21-,22-,28-/m1/s1
Instrument: JMS-HX/HX 110A, JEOL
Instrument type: EI-EBEB
Ms type: MS
Ion mode: POSITIVE
Ionization: EI
Base peak: 416.5011
m/z	relative intensity
15.0069	0
25.9927	1
26.9982	8
28.0056	1
29.0089	11
30.9793	0
36.9797	1
37.9932	2
38.9975	18
40.0015	3
41.0100	37
42.0161	4
43.0201	75
45.0095	0
48.9890	0
49.9980	2
51.0020	6
52.0074	3
53.0101	13
54.0231	3
55.0294	52
56.0384	8
57.0469	54
58.0163	0
60.9952	0
61.9996	1
63.0085	3
64.0086	1
65.0206	7
66.0110	3
67.0132	18
68.0243	4
69.0356	32
70.0500	3
71.0555	25
74.0017	1
75.0014	1
76.0105	1
77.0192	17
78.0205	4
79.0301	12
80.0261	2
81.0404	13
82.0350	1
83.0468	14
84.0597	0
85.0748	9
86.0132	0
87.0242	0
88.0053	0
89.0337	2
90.0357	1
91.0456	18
92.0451	1
93.0607	6
94.0381	2
95.0633	10
95.5499	0
96.0255	1
97.0788	7
98.0720	0
99.0815	0
101.0087	0
102.0319	1
103.0472	4
104.0371	1
105.0491	8
106.0479	1
107.0335	22
108.0371	4
109.0608	5
109.5418	0
110.0356	1
111.0420	6
112.0318	0
113.0901	0
114.0676	0
115.0326	5
116.0387	1
117.0471	3
118.0280	1
119.0385	5
120.0279	2
121.0332	22
122.0438	18
123.0512	9
124.0161	1
125.0472	2
126.0505	0
127.0442	1
128.0366	3
129.0450	2
130.0446	1
131.0355	4
132.0487	2
133.0403	5
134.0349	3
135.0464	31
136.0320	4
137.0377	25
138.0442	11
139.0569	1
140.0543	0
141.0740	2
142.0870	1
143.0845	1
144.0773	1
145.0785	7
146.0717	2
147.0732	8
148.0667	7
149.0783	15
150.0754	157
151.0851	827
152.0966	25
153.1039	1
154.1366	0
155.1014	1
156.1408	0
157.0960	2
158.0942	2
159.1072	5
160.0826	2
161.0826	13
162.0810	10
163.0865	25
164.0882	23
165.0982	11
166.0868	0
167.1230	0
169.0996	0
170.1386	0
171.0937	2
172.1041	3
173.1095	5
174.0836	4
175.0878	33
176.0914	15
177.0999	25
178.0990	1
179.1206	1
183.1355	0
184.1108	0
185.1297	1
186.1268	1
187.1222	4
188.1158	4
189.1142	47
190.1230	13
191.1333	142
192.1474	2
193.1197	0
198.1457	0
199.2003	0
200.2063	0
201.1694	2
202.1551	1
203.1767	8
204.1831	3
205.1920	10
206.1877	2
213.1928	0
215.1971	1
216.1887	0
217.1682	2
218.1882	1
219.1951	2
220.2123	0
229.2175	0
231.2166	0
232.2003	3
233.2133	1
234.2065	0
243.2549	0
245.2409	0
246.2189	1
247.2598	0
259.2504	0
260.2594	6
261.2653	0
262.3230	0
273.2363	0
274.2615	4
275.2060	0
276.2495	0
287.2955	0
288.2905	5
290.3326	0
301.2523	0
302.3120	9
303.3719	0
304.3034	0
313.3988	0
315.3559	0
316.3521	1
329.3742	0
330.3829	10
332.3401	0
343.4168	0
344.3842	6
345.4072	0
346.4189	0
356.4285	0
358.4338	5
359.4726	0
360.4336	1
363.8570	0
364.7517	0
365.3652	0
366.7379	0
367.4543	0
370.5306	0
372.4431	4
373.4679	3
374.4566	1
383.7133	0
385.4312	0
386.4524	1
387.5541	2
388.5824	0
398.5318	0
399.5258	3
400.5142	9
401.5932	6
402.3674	0
406.5508	0
407.2150	0
416.5011	999
