Mass spectrum: beta-Carotene-5,8,5'8'-diepoxide; FAB-EBEB; MS2; m/z: 568.43; [M]+*
Name: beta-Carotene-5,8,5'8'-diepoxide
Formula: C40H56O2
Exact mass: 568.42803
SMILES: C(C=CC=C(C)C=CC=C(C)C(C=4)OC(C43)(CCCC(C)(C)3)C)=C(C)C=CC=C(C)C(C=2)OC(C21)(CCCC(C)(C)1)C
InChI: InChI=1S/C40H56O2/c1-29(19-13-21-31(3)33-27-35-37(5,6)23-15-25-39(35,9)41-33)17-11-12-18-30(2)20-14-22-32(4)34-28-36-38(7,8)24-16-26-40(36,10)42-34/h11-14,17-22,27-28,33-34H,15-16,23-26H2,1-10H3/b12-11+,19-13+,20-14+,29-17+,30-18+,31-21+,32-22+/t33?,34?,39-,40-/m1/s1
Instrument: JMS-HX/HX 110A, JEOL
Instrument type: FAB-EBEB
Ms type: MS2
Ion mode: POSITIVE
Collision energy: 3 kV
Ionization: FAB
Base peak: 164.9874
Precursor m/z: 568.43
Precursor type: [M]+*
m/z	relative intensity
0.1918	0
0.5354	0
0.5685	0
4.0496	2
8.1354	0
8.6782	0
12.9658	0
13.9691	1
14.9696	10
22.9131	1
23.9437	0
24.9470	2
25.8345	1
25.9402	14
26.4297	1
26.8176	1
26.9494	96
27.9556	11
28.9595	76
29.0936	0
29.9496	1
31.0382	0
35.8914	2
36.9299	11
37.9295	34
38.0609	0
38.4217	1
38.5629	1
38.9368	262
39.0868	1
39.4319	2
39.5210	1
39.9513	41
40.3314	0
40.9546	513
41.2472	0
41.9503	19
42.9337	901
43.9357	14
44.9369	13
45.7406	0
47.8231	1
48.8476	1
48.9402	3
49.6254	0
49.9238	56
50.2087	2
50.9295	138
51.0535	2
51.3539	2
51.4694	1
51.6306	1
51.9351	59
52.1052	1
52.4802	1
52.9406	220
53.0608	1
53.9372	15
54.9482	633
55.1296	0
55.9601	25
56.9577	73
57.9634	8
58.3905	1
58.9520	21
59.8790	1
59.9485	0
60.4169	0
60.9154	9
61.1422	1
61.9164	31
62.7246	1
62.9273	88
63.1208	3
63.2790	0
63.5216	2
63.7173	1
63.9253	21
64.2711	2
64.3235	1
64.4467	1
64.5020	0
64.9335	176
65.2449	2
65.5825	1
65.7377	0
65.9379	49
66.1130	0
66.2988	1
66.9434	268
67.1225	1
67.9408	19
68.9511	783
69.1349	2
69.2621	1
69.9576	39
70.0874	0
70.5749	2
70.9363	52
71.4377	0
71.9068	1
72.0473	1
72.3043	1
72.7966	1
72.9352	4
73.3962	2
73.8978	15
74.5690	1
74.9201	22
75.0504	2
75.1848	1
75.3343	2
75.4647	1
75.5981	2
75.6915	2
75.9144	22
76.1479	1
76.4241	3
76.6527	6
76.9188	450
77.0796	3
77.1979	4
77.4539	3
77.5782	3
77.9175	104
78.0881	2
78.2337	1
78.3606	2
78.4764	3
78.9279	469
79.1078	1
79.2403	1
79.3418	2
79.4433	0
79.9324	111
80.2664	0
80.3317	0
80.6448	2
80.9423	401
81.1061	3
81.1804	2
81.2530	1
81.3845	2
81.9307	27
82.0849	1
82.2759	0
82.4552	2
82.7299	2
82.9479	194
83.1274	2
83.9452	4
84.9315	15
85.4853	1
85.6994	3
85.7842	2
85.9161	9
86.4892	1
86.9038	13
87.3938	1
87.7157	1
87.8147	4
87.9167	10
88.1622	1
88.4331	2
88.5797	4
88.9207	48
89.0879	5
89.1656	2
89.2703	6
89.4461	8
89.6028	4
89.9439	15
90.0712	5
90.3246	5
90.5195	2
90.9279	802
91.1534	1
91.3076	3
91.5018	2
91.6429	2
91.9293	101
92.0904	1
92.3020	3
92.4135	1
92.6343	2
92.9402	675
93.2305	1
93.3526	3
93.9539	72
94.1717	1
94.3129	2
94.4049	3
94.5139	1
94.5863	1
94.9416	947
95.1287	3
95.2477	4
95.3752	3
95.4508	1
95.5405	2
95.9374	57
96.2491	1
96.3628	2
96.4337	1
96.9482	49
97.4584	2
97.9157	8
98.8132	1
98.9668	5
99.3388	0
99.9259	5
100.3042	1
100.6888	3
100.9368	15
101.1732	4
101.3040	3
101.4763	2
101.5745	3
101.7037	1
101.9336	46
102.1568	1
102.2341	1
102.3918	3
102.5997	4
102.9440	160
103.3281	3
103.4483	2
103.5643	1
103.9432	70
104.1865	2
104.4019	3
104.4908	1
104.6336	4
104.9518	806
105.1563	6
105.2938	4
105.3640	2
105.4275	1
105.5127	2
105.6173	1
105.9509	101
106.2001	2
106.2574	0
106.3664	0
106.9633	477
107.2470	3
107.5327	1
107.6336	2
107.9506	174
108.1568	2
108.3033	1
108.9508	368
109.1667	1
109.2635	0
109.4640	1
109.5383	1
109.6901	1
109.9357	18
110.4517	3
110.6932	0
110.9674	41
111.1509	2
111.9299	6
112.1200	0
112.4362	2
112.5957	1
112.9385	12
113.2489	7
113.3432	3
113.5909	1
113.9129	16
114.0431	3
114.3615	4
114.4698	3
114.5511	4
114.6096	3
114.9195	372
115.1483	4
115.2825	3
115.4824	1
115.9259	132
116.0672	6
116.2648	4
116.5287	3
116.9217	326
117.1992	7
117.3149	2
117.4458	5
117.6166	0
117.9241	85
118.1076	3
118.3153	2
118.4470	4
118.9361	692
119.1111	6
119.1948	4
119.3387	4
119.4795	3
119.5747	3
119.9414	130
120.1903	3
120.4805	1
120.9316	574
121.2189	3
121.3760	3
121.5490	1
121.9238	157
122.2707	2
122.4700	1
122.5847	1
122.9352	390
123.1672	2
123.2539	2
123.3667	2
123.4930	4
123.5664	1
123.6620	1
123.9262	25
124.0819	1
124.4848	3
124.6451	4
124.7543	3
124.9441	19
125.1294	1
125.2611	2
125.3711	1
125.7471	3
125.8988	13
126.2475	1
126.3384	2
126.4530	3
126.5638	2
126.8943	104
127.2698	8
127.5044	2
127.9007	353
128.0842	9
128.3101	4
128.8975	404
129.1184	2
129.4166	3
129.9013	172
130.1090	2
130.2035	1
130.4416	2
130.9101	389
131.2379	1
131.3306	2
131.4840	3
131.6186	1
131.9125	108
132.1749	2
132.2568	3
132.3361	1
132.4464	1
132.5186	1
132.9199	318
133.2020	5
133.4015	4
133.6004	6
133.9085	67
134.1223	2
134.3221	6
134.4811	3
134.9079	594
135.1862	2
135.3249	2
135.4836	4
135.5536	3
135.9154	121
136.1689	4
136.2552	2
136.4511	1
136.5432	1
136.9222	64
137.1916	1
137.3351	2
137.4501	1
137.5845	0
137.7099	2
137.9132	7
138.0712	0
138.1960	2
138.3825	5
138.5308	1
138.8898	49
139.2105	1
139.3198	2
139.3914	2
139.5151	4
139.8888	16
140.1330	8
140.2737	3
140.3584	3
140.4770	10
140.8908	259
141.0883	5
141.2018	3
141.3127	3
141.5116	2
141.9017	233
142.1615	3
142.3423	3
142.5682	7
142.9156	439
143.1992	3
143.3599	4
143.4952	4
143.9136	138
144.1059	6
144.1929	4
144.4205	8
144.9243	513
145.1607	8
145.3807	6
145.5680	4
145.9138	68
146.2100	4
146.9259	305
147.1810	3
147.2867	2
147.3359	1
147.5399	1
147.9239	79
148.1714	4
148.3053	2
148.4544	5
148.9280	720
149.2461	6
149.4512	3
149.5393	1
149.9266	50
150.1627	1
150.3732	6
150.9168	40
151.2342	6
151.3599	4
151.5107	4
151.9086	122
152.1103	7
152.2704	3
152.3864	5
152.9132	149
153.1744	4
153.4362	8
153.5821	5
153.9147	94
154.2249	6
154.4230	3
154.9349	297
155.2164	3
155.3234	4
155.6175	9
155.9494	178
156.1670	5
156.2404	2
156.3171	2
156.5533	3
156.9496	393
157.2818	4
157.6175	5
157.9526	99
158.2937	6
158.3925	2
158.5614	3
158.9565	267
159.2521	6
159.5260	7
159.9638	78
160.2736	3
160.4767	8
160.9660	217
161.3007	1
161.4880	3
161.6726	5
161.9730	78
162.2886	6
162.3578	4
162.4881	3
162.6908	6
162.9847	197
163.2308	5
163.4204	6
163.5615	8
163.9834	254
164.3308	7
164.9874	999
165.3758	11
165.5304	7
165.9716	109
166.1889	5
166.5316	13
166.9685	191
167.1866	7
167.3441	3
167.5042	4
167.6657	5
167.9630	95
168.4468	4
168.5765	2
168.9773	274
169.2562	1
169.5046	3
169.9756	116
170.1975	2
170.3954	4
170.5633	3
170.9873	223
171.2253	4
171.4634	3
171.9677	72
172.2419	3
172.3594	3
172.4255	2
172.5603	3
172.9815	188
173.2192	5
173.5238	4
173.6927	1
173.9860	33
174.3261	2
174.4625	2
174.9738	147
175.4954	3
175.5924	1
175.7335	2
175.9784	45
176.2909	4
176.3738	3
176.9910	485
177.2019	5
177.9607	119
178.1985	2
178.2776	1
178.3929	0
178.5390	6
178.9585	209
179.3997	4
179.9584	89
180.2267	3
180.3609	4
180.4575	5
180.9575	224
181.2495	4
181.4046	1
181.5476	6
181.9734	97
182.2118	2
182.3885	6
182.5195	5
182.9637	215
183.3166	2
183.5344	4
183.9715	90
184.3871	3
184.5304	6
184.9711	172
185.3298	3
185.4738	1
185.6037	2
185.9760	50
186.2514	5
186.4353	3
186.5255	2
186.9762	118
187.3091	3
187.4256	1
187.5308	7
187.6656	5
187.9722	30
188.1812	2
188.3323	4
188.4530	8
188.9540	133
189.2812	6
189.4580	5
189.6118	3
189.9512	55
190.1558	4
190.2928	5
190.4177	4
190.5419	5
190.9821	373
191.2070	4
191.3644	3
191.4914	9
191.6501	7
191.9900	204
192.4157	12
192.9517	162
193.2857	3
193.4446	3
193.5251	3
193.9525	75
194.2732	2
194.4173	5
194.6108	6
194.9634	190
195.2328	2
195.3208	6
195.3905	3
195.9552	81
196.3880	2
196.5017	2
196.9719	168
197.2138	6
197.4090	5
197.5404	4
197.9661	66
198.3573	3
198.5512	5
198.6889	7
198.9764	108
199.3814	3
199.5965	2
199.9805	47
200.2588	5
200.3592	3
200.5289	6
200.6308	3
200.9811	97
201.4225	4
201.5399	2
201.6479	3
201.9448	55
202.2824	2
202.3558	2
202.9694	157
203.2474	5
203.3256	3
203.5051	8
203.9728	49
204.3414	8
205.0040	870
205.3285	10
205.4898	4
205.9928	126
206.2440	3
206.3822	3
206.5272	3
206.9630	115
207.2129	3
207.2967	2
207.4329	4
207.6134	5
207.9690	53
208.1905	5
208.3540	4
208.4460	3
208.9749	161
209.2701	3
209.3533	3
209.4896	3
209.6444	4
209.9738	70
210.1661	3
210.2793	5
210.3769	3
210.4730	2
210.9765	128
211.2556	3
211.3914	4
211.9763	46
212.1565	9
212.2432	4
212.3545	3
212.4562	2
212.6221	5
212.9916	82
213.2566	2
213.3775	4
213.4758	4
213.6589	3
213.9827	30
214.3257	5
214.4139	1
214.6100	5
214.9880	110
215.2293	4
215.5164	5
215.9622	42
216.3596	4
216.6195	6
217.0019	129
217.3037	4
217.4884	2
217.5781	4
218.0243	180
218.2283	6
218.4001	2
218.9827	58
219.2868	4
219.3710	2
219.6128	5
219.7182	1
220.0005	37
220.2861	2
220.5191	2
221.0002	73
221.2387	3
221.4114	5
221.6246	1
221.9913	38
222.4350	3
223.0063	92
223.3053	3
223.5448	3
223.6950	2
224.0298	52
224.2858	2
224.4327	3
224.5171	3
224.6111	5
225.0223	84
225.2969	5
225.3635	3
225.4466	1
225.5949	2
226.0309	36
226.2733	6
226.5921	5
226.7397	3
227.0482	86
227.4604	2
228.0061	48
228.2302	3
228.4288	3
228.5470	2
229.0175	60
229.3316	1
229.6087	3
229.8468	8
230.0183	27
230.1802	5
230.3092	2
230.5013	5
230.6022	4
231.0524	226
231.2892	7
231.5260	2
231.6324	2
231.8411	6
232.0677	34
232.3492	3
232.5840	2
232.6692	1
233.0236	56
233.2633	2
233.4165	1
233.5182	4
233.7215	3
234.0389	32
234.3296	2
234.4664	7
235.0237	53
235.2630	2
235.3826	6
235.5063	2
235.7188	5
236.0233	19
236.3410	2
236.5480	2
236.6801	1
237.0281	62
237.3253	2
237.5014	3
237.5634	1
237.8255	7
238.0484	39
238.2617	4
238.4118	2
239.0305	59
239.3748	2
239.4815	2
240.0474	149
240.4641	5
240.6948	5
241.0447	101
241.4236	6
241.5538	2
241.6689	4
242.0231	34
242.3683	2
242.5316	3
242.7164	3
243.0403	92
243.4877	1
243.6042	1
243.7594	5
244.0297	26
244.2379	7
244.3896	3
244.5331	2
244.6848	4
245.0145	43
245.3208	1
245.4133	2
245.6113	2
246.0232	18
246.3972	2
246.5690	2
247.0246	50
247.4035	3
247.5665	2
247.7391	5
248.0325	20
248.2908	1
248.3826	1
248.5560	4
249.0304	44
249.5243	1
250.0238	24
250.1047	13
250.3120	4
250.5310	4
250.8151	5
251.0493	40
251.3611	2
251.4986	2
251.6438	5
251.7482	4
252.0524	26
252.2404	6
252.4216	3
252.7342	4
253.0495	52
253.3988	2
253.5856	2
254.0594	25
254.1507	15
254.2829	3
254.5111	3
254.5851	2
255.0638	132
255.3426	3
255.5820	4
256.0643	59
256.3155	2
256.4449	3
256.6104	6
257.0748	54
257.2237	12
257.3026	3
257.4341	4
257.7906	7
258.0842	82
258.3619	1
258.5309	4
258.7054	3
259.0580	39
259.3087	3
259.4611	2
259.5802	2
259.8338	5
260.0285	21
260.2065	5
260.6923	3
260.7872	4
261.0568	28
261.4630	1
261.5995	4
261.7236	1
262.0106	12
262.1492	13
262.3718	4
262.5652	3
262.6810	3
263.0659	47
263.2046	13
263.3661	4
263.5368	1
263.7684	3
264.0757	21
264.3774	2
264.4878	1
264.6605	6
264.7556	3
265.0837	36
265.5299	4
265.7298	2
266.0948	21
266.2239	8
266.3079	1
266.5779	6
266.7133	7
267.0819	56
267.3700	4
267.5436	3
267.6894	1
268.0832	55
268.3922	5
268.6735	4
269.0805	76
269.3507	3
269.5480	4
269.8899	14
270.1101	64
270.3325	3
270.4283	3
270.6139	4
270.7536	6
271.1143	159
271.4854	4
271.6196	2
271.7162	1
272.1284	29
272.3436	3
272.4782	3
272.7592	3
272.8466	3
273.0450	29
273.1345	14
273.2664	3
273.4856	1
273.6161	4
273.8028	1
274.0255	9
274.1123	5
274.2233	6
274.3163	5
274.4378	1
274.6204	3
275.0799	18
275.3236	2
275.4333	1
275.7054	1
276.0533	16
276.2200	3
276.4707	3
276.5929	7
276.6922	5
276.7825	3
276.8547	2
277.0930	34
277.4944	3
277.8036	7
277.8835	6
278.0023	14
278.1280	10
278.3246	1
278.5588	3
278.7318	3
279.0827	40
279.4038	3
279.4976	1
279.6602	4
279.7589	4
279.8284	4
280.0988	21
280.5097	5
280.5792	1
280.7252	3
281.1069	75
281.3725	6
281.4990	1
281.6026	1
282.0804	48
282.3398	4
282.4365	3
282.5742	2
283.1167	166
283.3574	6
283.5717	9
283.6712	9
284.0956	55
284.4094	5
284.6265	3
284.7671	2
285.0984	19
285.2898	2
285.7004	2
285.8995	3
286.0659	11
286.2023	7
286.4063	3
286.5246	3
286.8017	3
287.0935	14
287.2975	2
287.3824	3
287.5482	2
287.6888	3
287.9145	2
288.0754	6
288.1882	3
288.4513	2
288.6342	3
288.8019	2
289.1031	31
289.3431	2
289.4677	0
289.6179	4
290.0973	11
290.2289	7
290.3729	1
290.6144	1
290.7710	4
291.0960	26
291.2769	5
291.4767	2
291.7572	7
291.8895	4
292.1025	10
292.2515	4
292.5077	1
292.6518	2
293.0842	47
293.4261	4
293.5591	2
293.6873	2
293.7924	5
294.0689	23
294.2437	5
294.4151	3
294.5377	1
294.6463	5
295.0970	82
295.3980	4
295.5380	6
296.1059	84
296.4571	2
296.5428	0
296.7957	9
297.1094	58
297.5331	2
297.7095	3
297.8370	2
298.0880	21
298.3369	4
298.5704	2
298.7649	2
298.9894	10
299.2139	3
299.4559	1
299.6219	2
299.9154	2
300.0431	5
300.1414	10
300.2844	3
300.4357	1
300.8821	7
301.0391	10
301.1451	6
301.2462	3
301.5057	3
301.6292	4
301.7304	1
301.8420	4
302.0052	6
302.1364	5
302.2236	3
302.3855	1
302.5879	1
302.7309	4
303.0282	15
303.2019	11
303.5167	3
303.7121	2
303.8950	7
304.0681	18
304.1762	5
304.2691	5
304.4073	1
304.6021	3
305.0949	25
305.3916	2
305.5648	2
305.7540	4
305.9439	6
306.1534	9
306.3790	3
306.5179	2
307.0703	36
307.4440	2
307.5334	2
307.6955	1
308.0999	26
308.5051	3
309.1011	128
309.3652	8
309.5259	4
309.6328	2
310.1017	31
310.2583	12
310.4134	4
310.5036	4
310.7007	2
310.7664	2
311.0914	42
311.4430	4
311.6262	2
311.8764	4
312.0016	9
312.1631	6
312.5427	3
312.7252	3
312.9692	8
313.1084	7
313.3762	3
313.5482	2
313.8825	3
314.1735	6
314.2742	3
314.6750	2
315.0772	18
315.3808	0
315.4725	1
315.5690	2
315.8467	3
316.0566	4
316.1966	6
316.3974	3
316.6654	1
317.0461	18
317.3323	6
317.7158	1
317.9272	3
318.0721	14
318.1764	8
318.2821	4
318.4669	1
318.5453	2
318.6720	3
319.0682	30
319.3496	4
319.5652	6
319.6829	1
320.0666	13
320.2325	8
320.4811	1
320.6961	3
321.1177	38
321.4559	5
321.6002	2
322.1038	24
322.4366	4
322.7252	4
323.1042	20
323.5526	2
323.7095	4
324.1264	92
324.5181	6
324.6800	3
324.8265	6
324.9302	4
325.0977	8
325.2911	5
325.4762	2
325.6942	4
325.8981	3
326.0867	5
326.2248	4
326.3390	2
326.4295	4
326.8445	2
327.0849	8
327.2287	4
327.3289	1
327.4853	2
327.5484	1
328.1227	9
328.3814	1
328.7945	3
329.1318	12
329.5056	1
329.6038	3
329.7672	2
329.9005	1
330.0857	2
330.2435	3
330.4035	1
330.5501	1
330.8370	4
331.1127	28
331.2488	10
331.5260	2
331.6458	4
331.8230	4
331.8966	2
332.0493	14
332.2413	11
332.3317	4
332.4242	1
332.5447	2
332.6302	1
333.1227	27
333.3589	4
333.4311	1
333.6175	5
333.7682	3
333.9259	7
334.1487	17
334.3541	2
334.5504	7
334.6639	3
335.1392	68
335.3543	14
335.6824	11
336.1395	409
336.4740	9
336.6486	5
337.1492	48
337.5524	5
337.6429	2
337.7726	2
338.1275	7
338.4908	3
338.5939	2
338.7952	3
339.1115	6
339.9000	3
339.9989	1
340.1596	5
340.2543	5
340.3609	2
340.7826	5
341.0401	11
341.2373	6
341.4822	4
341.7116	1
341.8218	3
341.9102	1
342.0695	5
342.2043	3
342.5124	2
342.9566	5
343.0942	7
343.2423	7
343.3427	1
343.5680	3
343.9190	6
344.0692	8
344.2272	5
344.6077	1
344.8337	2
345.0970	24
345.2726	4
345.4853	0
345.6279	4
346.0997	10
346.2992	3
346.3870	6
346.5281	2
346.6819	2
347.1349	37
347.3934	3
347.7670	2
348.1147	37
348.3192	5
348.3936	3
348.5320	3
348.6409	3
348.7905	5
349.1530	110
349.5542	10
349.6280	4
350.1493	60
350.4669	4
350.5351	3
350.6349	2
350.8071	3
350.9244	2
351.1620	11
351.3215	2
351.6328	3
352.0805	8
352.2155	8
352.3392	3
352.5416	2
352.7560	1
353.0020	4
353.1363	7
353.2200	3
353.3121	1
353.4196	3
353.5476	2
353.9919	5
354.0910	8
354.1965	8
354.3055	3
354.4377	1
354.7955	1
355.1689	45
355.4312	3
355.9959	2
356.1331	3
356.2632	6
356.3750	2
356.6690	3
357.0650	11
357.2239	14
357.3154	3
357.6910	1
357.8746	1
358.1342	10
358.3692	2
358.5182	2
358.6776	2
358.8278	3
359.0784	23
359.1592	14
359.3221	9
359.4751	2
359.7194	4
359.9027	2
360.1758	26
360.7439	7
361.1785	47
361.4672	2
361.5381	2
361.7144	3
361.8499	4
361.9665	10
362.1779	42
362.3436	13
362.4469	5
362.5143	2
362.6021	2
362.7166	1
363.1753	84
363.5153	6
363.8279	3
364.0386	6
364.2353	12
364.4018	5
364.7004	2
364.8283	1
365.2217	7
365.3770	1
365.5204	4
365.6068	3
365.7762	1
365.9546	1
366.0530	3
366.2104	3
366.5049	2
366.8345	3
367.0573	2
367.1718	3
367.3279	1
367.7819	3
368.1143	28
368.2578	21
368.3969	4
368.7006	1
368.8742	1
369.1477	8
369.3291	3
369.4163	2
369.5590	2
369.6918	3
369.8986	2
370.0321	3
370.1854	6
370.2888	4
370.3984	3
370.5349	3
370.6544	1
370.8773	2
371.2000	6
371.3414	3
371.4434	1
371.5735	4
371.8329	2
372.0728	5
372.2648	12
372.4800	1
372.5939	4
372.7486	4
372.8168	2
373.1571	43
373.4335	2
373.5762	2
373.6697	3
373.7893	3
374.1662	37
374.3533	10
374.4567	5
374.6339	2
375.1712	94
375.5475	4
375.8008	4
376.1946	65
376.4338	10
376.5956	2
376.7504	5
376.9931	8
377.1809	14
377.3554	9
377.4834	1
377.5671	2
377.7402	2
378.0807	4
378.2771	4
378.4846	4
378.6570	3
378.8153	1
379.1411	10
379.3438	9
379.4986	3
379.8210	2
379.9631	3
380.1003	6
380.2925	6
380.4515	0
380.6190	3
380.9921	6
381.2208	15
381.4545	5
381.7016	1
382.0226	2
382.1620	4
382.3098	2
382.5512	1
382.9680	3
383.2503	4
383.4615	1
383.7749	4
384.1255	8
384.5705	4
385.0522	9
385.2381	6
385.4036	2
385.5797	2
385.8149	5
386.1691	14
386.3706	6
386.5276	5
386.6129	2
386.9002	10
387.2031	44
387.4285	11
387.6356	1
387.8850	3
388.1815	39
388.3598	19
388.5246	5
388.7071	3
389.2024	92
389.4765	4
389.8590	1
390.0909	6
390.2635	3
390.3678	2
390.5742	4
390.6553	2
390.8181	1
391.0844	10
391.1909	2
391.3093	7
391.5298	2
391.6919	2
391.7962	1
391.8893	3
391.9731	2
392.1134	3
392.1867	3
392.2649	3
392.3784	4
392.7999	5
393.0036	7
393.2785	13
393.4498	4
393.6909	2
393.7938	3
393.9207	2
394.1321	12
394.3098	11
394.4522	5
394.5981	3
394.7137	1
394.9436	7
395.2016	40
395.3321	20
395.8912	5
396.1965	7
396.3897	3
396.8551	3
397.1851	10
397.3544	4
397.7860	1
397.9884	1
398.1125	2
398.2804	3
398.4052	2
398.5886	3
398.7353	1
398.8982	1
399.1119	3
399.2847	6
399.3581	2
399.5739	1
399.7136	2
399.8716	4
399.9591	3
400.1587	5
400.2646	4
400.3718	4
400.5277	4
400.6815	4
400.7922	2
400.8917	3
401.1915	35
401.4265	12
401.6516	4
401.8068	3
402.2301	87
403.2364	280
404.2314	114
404.7576	5
404.9630	5
405.1924	8
405.4154	4
405.5554	2
405.6539	3
405.7827	5
405.9480	4
406.0500	1
406.2358	6
406.3224	7
406.4553	1
406.5595	2
406.6467	2
406.7185	1
406.8613	1
407.2568	14
407.3814	6
407.6685	6
407.7262	2
408.2315	64
408.9149	3
409.1950	10
409.4646	3
409.6652	4
409.7891	1
410.2360	44
410.5049	3
410.5986	1
410.8323	3
411.1054	3
411.2279	4
411.3229	3
412.0516	4
412.2347	5
412.3431	2
412.4297	3
412.9043	2
413.0662	4
413.1570	6
413.3225	6
413.6366	5
413.8598	3
414.0394	6
414.1436	2
414.2661	5
414.3795	3
414.5274	3
414.6436	2
414.8457	3
415.0901	9
415.3091	9
415.4084	2
415.5028	2
415.8557	3
415.9965	2
416.1641	8
416.3001	3
416.3916	3
416.6494	4
417.1989	45
417.4708	3
417.6793	3
417.8378	3
417.9526	1
418.1731	4
418.4254	3
419.0566	5
419.1870	2
419.3342	8
419.4448	3
419.8929	1
420.1008	3
420.2192	3
420.3742	2
421.2338	33
421.5677	4
421.7458	2
422.2319	111
422.6235	3
422.7242	2
422.9708	3
423.2195	13
423.3808	3
423.5512	2
423.9091	2
424.1479	6
424.3283	2
424.4149	4
424.8750	3
425.0913	3
425.3245	2
425.5246	4
425.6444	1
425.7522	1
426.0397	1
426.2123	5
426.6978	1
426.7888	2
426.9600	4
427.0777	3
427.2172	3
427.3152	2
427.4857	1
427.8994	5
428.0664	5
428.2405	8
428.4315	3
428.7416	1
429.0362	6
429.2279	15
429.3900	3
429.4711	3
430.1330	7
430.2789	6
430.4107	4
430.5609	3
430.6750	5
431.1305	26
431.3603	19
431.4907	7
431.5506	3
432.2112	110
432.4629	10
432.6970	6
432.8979	3
433.0862	12
433.1567	4
433.3020	3
433.5699	3
433.7377	3
433.9859	2
434.1072	4
434.3138	6
434.4119	8
434.4859	2
434.7334	1
435.1340	6
435.2680	8
435.4224	1
435.6404	2
435.9979	3
436.1524	3
436.3992	3
436.5212	2
436.8104	2
436.9197	1
437.1384	6
437.3056	3
437.4805	3
437.5990	2
437.8586	2
437.9877	3
438.0427	1
438.2458	1
438.4145	3
438.6762	4
438.7961	2
438.9160	6
439.0092	2
439.1643	4
439.3104	4
439.4924	2
439.5848	2
439.6744	3
439.8070	1
440.0667	5
440.2417	4
440.4392	5
440.6848	3
440.7722	2
440.8731	5
441.1328	11
441.2838	5
441.3431	2
441.4616	1
441.6853	3
441.8088	3
441.9619	3
442.1976	5
442.4728	3
442.5603	3
442.6605	4
442.8539	1
442.9992	3
443.3239	8
443.4601	1
443.5786	2
443.7960	3
443.9711	2
444.1193	10
444.2160	1
444.3515	6
444.4948	1
444.7347	3
445.2274	19
445.6036	0
445.8006	2
445.9114	4
446.0822	8
446.2312	6
446.3476	5
446.6265	1
446.7430	1
446.8305	2
446.9943	3
447.1305	12
447.3176	8
447.6296	5
447.8386	1
447.9664	1
448.1599	11
448.3060	5
448.3823	3
448.5877	1
448.6929	2
448.8405	4
448.9238	4
449.2090	29
449.3828	19
449.4978	7
449.7160	5
449.8403	1
450.0345	3
450.3840	2
450.6679	2
450.8105	2
450.9151	2
451.1460	4
451.3437	3
451.5436	1
451.6862	3
452.0168	3
452.0704	1
452.2534	5
452.3996	2
452.4949	1
452.6658	2
452.7647	1
452.9681	3
453.2139	1
453.3587	3
453.5042	4
453.6370	4
453.9266	3
454.1258	7
454.2523	4
454.3137	2
454.4500	4
454.6952	5
455.1331	7
455.2737	3
455.4362	6
455.6827	7
455.7555	3
456.0491	4
456.3813	5
456.6217	5
456.7839	3
456.8692	4
457.0209	6
457.3114	15
457.5068	10
457.5921	3
457.7226	4
457.8996	7
458.1443	13
458.2776	8
458.4391	9
458.6140	5
458.7431	3
458.8524	4
458.9526	4
459.0683	10
459.2940	11
459.4294	7
459.5973	5
459.8181	3
459.9041	4
460.2385	11
460.3929	11
460.4995	5
460.7548	2
460.9142	3
461.2762	15
461.5103	7
462.2335	28
462.4790	9
462.8049	4
462.9073	1
463.0815	4
463.2685	7
463.3793	3
463.8605	4
464.0115	2
464.2295	5
464.3763	3
464.5872	3
464.7778	2
465.0142	3
465.1292	1
465.3381	2
465.7227	3
466.2117	1
466.3268	3
466.4016	1
466.5512	1
466.6479	1
466.7537	3
466.8532	3
467.0043	2
467.2696	7
467.3882	8
467.5011	5
467.7270	13
467.9790	14
468.2832	18
468.6008	14
469.0370	18
469.2445	26
469.5855	17
469.9625	16
470.3521	17
470.7482	10
471.2254	26
471.4068	14
471.6038	11
471.8163	10
472.1729	19
472.3882	7
472.4913	5
472.6636	8
472.8959	12
473.1818	36
473.3365	20
473.6521	2
473.7333	4
473.9070	9
474.2318	18
474.3914	16
474.6266	3
474.7989	3
475.2762	39
475.4662	17
476.2727	77
476.6965	1
476.8491	3
476.9239	3
477.1344	5
477.3131	2
477.4748	2
477.9756	3
478.1578	2
478.3083	2
478.5287	1
478.9476	1
479.3128	3
479.6617	1
479.9839	4
480.2417	2
480.5328	1
481.1163	4
481.2265	5
481.3586	2
481.5353	1
481.6363	1
481.8009	2
482.0072	6
482.1450	3
482.2708	3
482.7569	1
483.1978	6
483.4563	4
483.5488	2
483.6519	1
483.9843	2
484.1453	5
484.2448	4
484.3818	6
484.5498	4
484.7567	1
484.9106	3
485.0920	1
485.3935	5
485.5354	5
485.7062	6
485.8954	6
485.9901	7
486.2668	11
486.4257	8
486.5380	1
486.6651	4
486.7399	2
486.8557	9
487.3316	20
487.5780	10
488.3011	641
488.6203	36
488.7291	7
489.3187	32
489.5913	10
489.7481	5
489.8971	3
490.0256	3
490.2114	4
490.3872	2
490.5567	5
490.6839	1
490.8272	1
490.9325	3
491.3252	6
491.4375	2
491.5561	1
491.6543	2
491.9467	1
492.1614	4
492.4934	6
493.0147	3
493.1179	5
493.3255	1
493.5438	2
493.8780	1
494.1259	2
494.2877	2
494.5469	3
494.8196	2
495.0146	2
495.2223	3
495.3792	4
495.5982	1
495.7564	3
496.0489	3
496.2807	5
496.3859	6
496.8000	2
497.0833	3
497.3122	7
497.4952	3
497.6040	3
498.1213	4
498.2654	6
498.4392	2
498.7325	2
498.8448	2
498.9487	3
499.0985	5
499.2229	4
499.3572	4
499.4632	2
500.1642	4
500.3134	2
500.4010	4
501.1678	3
501.3204	2
501.5353	2
501.6823	1
502.6174	2
504.1053	2
504.1774	3
504.4595	1
505.1685	1
505.3035	1
505.3643	0
506.2049	4
506.3958	2
506.4651	1
506.5626	3
506.7634	3
506.9769	2
507.2831	4
507.3955	5
507.4966	2
507.8770	0
508.0014	1
508.1754	5
508.2644	5
508.3535	3
508.4638	2
509.1328	6
509.3406	5
509.5103	4
509.5874	3
509.7270	3
509.9673	4
510.1872	2
510.3317	3
511.0084	3
511.2050	13
511.4165	9
511.5018	7
511.5892	2
512.1404	3
512.3209	6
512.7150	2
512.8439	2
513.1231	4
513.3705	11
513.4826	6
513.5574	2
514.1312	2
514.2158	3
514.4513	3
514.5535	2
514.7467	2
514.9920	4
515.0527	2
515.4609	3
515.6294	3
515.9875	2
516.0969	1
516.3337	3
516.4995	3
516.5763	1
516.8492	0
516.9860	3
517.2835	2
517.4062	1
517.5903	3
517.6763	1
517.8258	3
518.1036	3
518.2877	3
518.4978	3
518.8723	1
518.9717	3
519.3193	3
519.4562	2
519.6691	1
519.8574	0
520.1353	2
520.3617	4
520.5295	3
520.9379	1
521.0902	4
521.2645	2
521.6827	6
521.9380	6
522.0798	5
522.3422	8
522.4550	7
522.5855	3
522.6560	1
522.8021	3
522.9911	3
523.0905	7
523.2577	14
523.4185	8
523.5194	3
523.5864	2
523.8354	1
524.2135	11
524.4068	20
524.5507	5
524.8498	2
525.1030	4
525.2314	14
525.4283	9
525.6978	2
525.8649	4
525.9715	4
526.1168	6
526.2988	13
526.4244	5
526.5958	3
526.6932	3
526.9789	4
527.0989	4
527.2365	4
527.3966	5
527.4996	2
527.6139	4
527.7917	2
527.9724	4
528.2687	5
528.3491	3
528.6525	1
528.7336	2
528.8557	4
529.2255	2
529.4280	3
529.5952	2
529.7441	8
530.0136	4
530.1957	3
530.3417	2
530.4109	1
530.4984	2
531.0009	2
531.1060	4
531.2111	1
531.3466	1
531.5619	3
531.6430	2
531.8660	3
531.9296	1
532.2895	3
532.4687	4
532.6762	3
532.9825	5
533.1476	3
533.3361	4
533.4688	9
533.5810	3
533.6946	1
533.8301	6
534.0595	5
534.1922	3
534.2917	4
534.4689	1
534.5790	1
534.6757	3
534.8373	3
535.2022	16
535.3632	16
535.5784	1
535.7662	4
535.9307	2
536.1128	12
536.2003	5
536.3535	8
536.5102	4
536.6260	4
536.7601	4
536.8674	3
537.2740	35
537.4371	11
537.5662	7
537.7978	4
538.3110	19
538.5800	7
538.6852	7
538.8977	7
539.0601	17
539.3467	22
539.6644	7
539.8211	6
539.9609	4
540.0739	7
540.3351	12
540.5787	9
540.7538	10
540.9240	11
541.1273	7
541.3292	6
541.5375	10
541.7056	6
541.8263	10
542.0728	12
542.1913	7
542.3665	13
542.6044	15
542.8361	8
543.0881	14
543.1990	17
543.7237	16
544.4384	17
544.8860	18
545.0259	15
545.1883	16
545.4030	14
545.9475	19
546.3359	25
546.7908	20
547.1382	19
547.4073	27
547.6051	15
547.9703	26
548.5114	35
549.2650	47
550.3790	224
550.6898	64
551.4033	85
551.7841	34
552.3492	78
553.3590	728
554.2379	30
554.8113	23
555.3044	24
555.7057	27
556.2623	31
556.8641	27
557.8976	27
558.4183	29
559.0123	22
559.3834	36
559.9535	39
560.3627	34
561.2687	49
561.5150	42
568.2390	999
569.3381	967
570.0157	481
570.7795	228
571.6866	122
572.5175	63
573.2376	52
573.4826	34
573.9373	32
574.4160	24
574.6511	16
574.8057	15
