Mass spectrum: 5?-Cholanic Acid-3?-ol-6-one; LC-ESI-QTOF; MS2; CE: 20; R=; [M+H]+
Name: 5?-Cholanic Acid-3?-ol-6-one
Name: 5alpha-CHOLANIC ACID-3alpha-OL-6-ONE
Name: 4-(3-hydroxy-10,13-dimethyl-6-oxo-1,2,3,4,5,7,8,9,11,12,14,15,16,17-tetradecahydrocyclopenta[a]phenanthren-17-yl)pentanoic acid
Formula: C24H38O4
Exact mass: 390.2770
SMILES: CC(CCC(=O)O)C1CCC2C1(CCC3C2CC(=O)C4C3(CCC(C4)O)C)C
InChI: InChI=1S/C24H38O4/c1-14(4-7-22(27)28)17-5-6-18-16-13-21(26)20-12-15(25)8-10-24(20,3)19(16)9-11-23(17,18)2/h14-20,25H,4-13H2,1-3H3,(H,27,28)
Instrument: maXis plus UHR-ToF-MS, Bruker Daltonics
Instrument type: LC-ESI-QTOF
Ms type: MS2
Ion mode: POSITIVE
Ionization: ESI
Fragmentation mode: CID
Collision energy: 20
Column name: BEH C18 1.7um, 2.1x100mm, Waters
Retention time: 4.945 min
Base peak: 781.5613
Precursor m/z: 391.2843
Precursor type: [M+H]+
m/z	relative intensity
81.0699	1
95.0855	1
159.1164	3
175.1112	1
191.1427	1
193.1228	1
213.1612	1
227.1795	1
235.1694	1
263.1959	1
319.2414	1
337.2531	7
338.2578	1
355.2622	18
356.2669	4
372.1937	1
373.2733	999
374.2768	325
375.2804	32
376.2824	2
391.2838	2
