Mass spectrum: osas#9; LC-ESI-QTOF; MS2; CE: 40; R=; [M+H]+
Name: osas#9
Formula: C23H33NO10
Exact mass: 483.2104
SMILES: CC(CCC(O)=O)O[C@@H]1OC(C)[C@@H](CC1O)OC(=O)CCC(=O)NC[C@H](O)C1=CC=C(O)C=C1
InChI: InChI=1S/C23H33NO10/c1-13(3-9-21(29)30)32-23-17(26)11-19(14(2)33-23)34-22(31)10-8-20(28)24-12-18(27)15-4-6-16(25)7-5-15/h4-7,13-14,17-19,23,25-27H,3,8-12H2,1-2H3,(H,24,28)(H,29,30)/t13?,14?,17?,18-,19+,23+/m0/s1
Instrument: maXis plus UHR-ToF-MS, Bruker Daltonics
Instrument type: LC-ESI-QTOF
Ms type: MS2
Ion mode: POSITIVE
Ionization: ESI
Fragmentation mode: CID
Collision energy: 40
Column name: BEH C18 1.7um, 2.1x100mm, Waters
Retention time: 3.105 min
Base peak: 88.0753
Precursor m/z: 484.2177
Precursor type: [M+H]+
m/z	relative intensity
55.0387	3
57.033	6
57.2446	3
59.0477	2
62.0934	2
67.0538	27
69.0317	3
71.0475	3
72.0438	3
73.0274	7
74.0344	3
78.0215	3
79.0506	4
81.0695	4
83.0497	63
84.0525	3
84.0801	9
84.2444	4
85.0643	31
91.0537	10
94.0158	2
95.049	25
100.039	43
101.0234	74
101.0595	39
105.1141	3
105.2419	3
107.0485	6
112.0636	4
113.0591	28
115.1529	4
116.1655	4
118.086	4
119.0492	10
120.0546	4
121.1639	3
124.0154	2
125.9948	3
128.0061	4
129.0035	4
130.0251	6
130.1569	2
134.1973	3
135.0318	5
136.0754	190
137.0933	2
139.9705	2
140.0781	3
143.0845	4
146.0233	2
148.0745	5
153.0427	3
153.0667	3
154.087	5
154.2163	3
155.0718	7
156.1767	5
157.0475	4
157.1959	4
159.0256	3
162.0503	2
163.1821	3
166.1876	5
167.0416	4
167.9799	6
169.1341	4
172.0745	14
173.0596	12
173.0854	7
173.0958	20
174.0576	7
176.1231	2
176.1481	3
183.0996	3
185.2122	3
186.0756	4
187.0709	4
187.1518	2
190.0857	14
190.1227	96
191.0883	7
191.1282	21
192.1998	2
194.2181	3
195.0867	3
200.0706	123
201.0526	17
201.074	24
201.9933	7
202.0562	5
202.0793	3
203.1252	3
207.9596	4
210.1547	2
213.0756	5
213.0886	4
213.1094	2
218.0808	999
219.0853	130
220.0429	4
220.0855	21
220.1108	5
222.1612	3
223.0698	2
236.0913	284
237.0956	34
237.18	5
238.0967	10
242.981	3
246.018	4
248.1306	2
250.1002	2
253.1153	4
265.1174	3
272.1303	5
290.1385	16
331.1294	4
343.9833	3
348.1437	26
349.1463	8
431.2233	3
436.1826	2
