Mass spectrum: C10-homoserine lactone; LC-ESI-QTOF; MS2; CE: 20; R=; [M+H]+
Name: C10-homoserine lactone
Name: N-Decanoyl-DL-homoserine lactone
Name: N-(2-oxooxolan-3-yl)decanamide
Formula: C14H25NO3
Exact mass: 255.18344
SMILES: CCCCCCCCCC(=O)NC1CCOC1=O
InChI: InChI=1S/C14H25NO3/c1-2-3-4-5-6-7-8-9-13(16)15-12-10-11-18-14(12)17/h12H,2-11H2,1H3,(H,15,16)
Instrument: maXis plus UHR-ToF-MS, Bruker Daltonics
Instrument type: LC-ESI-QTOF
Ms type: MS2
Ion mode: POSITIVE
Ionization: ESI
Fragmentation mode: CID
Collision energy: 20
Column name: BEH C18 1.7um, 2.1x100mm, Waters
Retention time: 5.113 min
Base peak: 256.1903
Precursor m/z: 256.1907
Precursor type: [M+H]+
m/z	relative intensity
59.048	2
73.0642	8
74.023	70
79.0537	5
81.0692	713
83.0849	39
84.044	43
85.1006	904
87.08	6
93.07	1
95.0851	522
96.0884	32
97.101	11
99.0805	3
100.0758	1
102.0547	999
114.0547	2
137.132	16
138.1359	2
140.07	1
155.1426	135
228.1953	3
238.1798	95
239.1829	11
256.1909	9
