Mass spectrum: 3-Dehydrocholic acid; LC-ESI-QTOF; MS2; CE: 40; R=; [M-H]-
Name: 3-Dehydrocholic acid
Name: (4R)-4-[(5R,7R,8R,9S,10S,12S,13R,14S,17S)-7,12-dihydroxy-10,13-dimethyl-3-oxo-1,2,4,5,6,7,8,9,11,12,14,15,16,17-tetradecahydrocyclopenta[a]phenanthren-17-yl]pentanoic acid
Formula: C24H38O5
Exact mass: 406.2719
SMILES: C[C@H](CCC(=O)O)[C@@H]1CC[C@@H]2[C@@]1([C@H](C[C@H]3[C@H]2[C@@H](C[C@H]4[C@@]3(CCC(=O)C4)C)O)O)C
InChI: InChI=1S/C24H38O5/c1-13(4-7-21(28)29)16-5-6-17-22-18(12-20(27)24(16,17)3)23(2)9-8-15(25)10-14(23)11-19(22)26/h13-14,16-20,22,26-27H,4-12H2,1-3H3,(H,28,29)/t13-,14+,16+,17+,18+,19-,20+,22+,23+,24-/m1/s1
Instrument: maXis plus UHR-ToF-MS, Bruker Daltonics
Instrument type: LC-ESI-QTOF
Ms type: MS2
Ion mode: NEGATIVE
Ionization: ESI
Fragmentation mode: CID
Collision energy: 40
Column name: BEH C18 1.7um, 2.1x100mm, Waters
Retention time: 4.643 min
Base peak: 811.5365
Precursor m/z: 405.2646
Precursor type: [M-H]-
m/z	relative intensity
83.0503	2
215.1783	2
245.1923	2
259.1764	2
261.2209	4
271.2067	7
272.2085	2
273.223	5
289.2173	152
290.2211	18
291.2323	13
315.2356	1
325.255	8
327.2324	1
341.2494	6
343.2269	3
343.2645	45
344.2651	7
359.2589	11
361.2748	133
363.2775	2
367.2276	2
369.244	9
387.2563	3
405.2642	999
