Mass spectrum: Nicotinamide; LC-ESI-QTOF; MS2; CE: 40; R=; [M+H]+
Name: Nicotinamide
Name: pyridine-3-carboxamide
Formula: C6H6N2O
Exact mass: 122.04801
SMILES: c1cc(cnc1)C(=O)N
InChI: InChI=1S/C6H6N2O/c7-6(9)5-2-1-3-8-4-5/h1-4H,(H2,7,9)
Instrument: maXis plus UHR-ToF-MS, Bruker Daltonics
Instrument type: LC-ESI-QTOF
Ms type: MS2
Ion mode: POSITIVE
Ionization: ESI
Fragmentation mode: CID
Collision energy: 40
Column name: BEH C18 1.7um, 2.1x100mm, Waters
Retention time: 0.698 min
Base peak: 123.0553
Precursor m/z: 123.0553
Precursor type: [M+H]+
m/z	relative intensity
70.0294	1
78.0333	460
80.0489	999
95.0601	1
96.0442	161
105.0446	2
111.0314	1
123.0548	1
