Mass spectrum: 5?-CHOLANIC ACID-3?-OL-6_7-DIONE; LC-ESI-QTOF; MS2; CE: 40; R=; [M+H]+
Name: 5?-CHOLANIC ACID-3?-OL-6_7-DIONE
Formula: C24H36O5
Exact mass: 404.2563
SMILES: C[C@H](CCC(=O)O)[C@H]1CC[C@@H]2[C@@]1(CC[C@H]3[C@H]2C(=O)C(=O)[C@H]4[C@@]3(CC[C@H](C4)O)C)C
InChI: InChI=1S/C24H36O5/c1-13(4-7-19(26)27)15-5-6-16-20-17(9-11-23(15,16)2)24(3)10-8-14(25)12-18(24)21(28)22(20)29/h13-18,20,25H,4-12H2,1-3H3,(H,26,27)/t13-,14-,15-,16+,17+,18+,20+,23-,24-/m1/s1
Instrument: maXis plus UHR-ToF-MS, Bruker Daltonics
Instrument type: LC-ESI-QTOF
Ms type: MS2
Ion mode: POSITIVE
Ionization: ESI
Fragmentation mode: CID
Collision energy: 40
Column name: BEH C18 1.7um, 2.1x100mm, Waters
Retention time: 4.983 min
Base peak: 405.2627
Precursor m/z: 405.2636
Precursor type: [M+H]+
m/z	relative intensity
48.008	10
50.0605	8
54.1618	8
57.0697	11
60.0083	9
61.0153	7
61.9876	5
68.0372	6
68.0581	21
68.1192	4
70.0164	7
70.029	5
73.0029	8
73.0643	6
73.2525	5
74.0157	5
77.9955	8
81.0691	759
82.1568	5
83.0488	125
83.0855	80
84.136	9
85.064	185
87.9896	6
89.0014	4
90.0053	6
91.0535	213
93.0691	593
94.0496	6
95.0848	999
96.0648	5
96.9773	5
97.0167	6
97.0399	4
97.0645	57
97.1013	68
98.0599	8
99.0434	97
99.0797	200
100.048	6
101.0596	75
103.0411	7
104.1619	7
105.0695	351
106.0295	7
106.0733	27
106.1204	7
107.0489	39
107.0851	355
108.0888	41
109.0642	117
109.0866	6
110.0608	6
110.0677	12
110.1302	5
110.2458	15
111.0164	14
111.0684	14
111.0807	44
111.1964	6
111.2106	6
115.0747	5
115.1683	8
115.2489	5
116.1978	8
117.069	76
118.1561	7
119.0851	171
120.0424	12
120.0881	10
121.0643	73
121.1009	104
122.0681	10
122.1049	31
123.0158	8
123.0805	154
124.084	26
124.1301	4
125.0227	5
125.0963	18
125.1295	10
126.0021	7
128.0098	5
128.0192	6
128.0575	7
128.1782	13
130.0345	11
130.0736	13
130.0863	6
130.1771	4
131.1171	7
131.1654	9
131.9687	7
131.9813	8
132.0279	9
132.0689	17
132.2823	8
133.0646	10
133.1004	124
133.2007	9
134.1061	10
135.1168	33
135.2541	18
135.9914	5
136.1575	8
137.0955	7
137.1166	4
138.0168	5
139.0015	7
139.0751	5
139.1535	8
140.1978	9
141.1222	7
142.0573	9
142.1925	8
143.1637	6
144.0174	7
144.0566	9
144.093	20
145.0634	27
145.1004	217
146.0721	5
146.0827	10
146.108	27
147.0792	36
147.1154	162
149.0571	17
149.0955	57
150.0996	17
150.1361	5
150.2344	9
151.111	58
152.116	10
153.0904	13
153.1274	5
154.0254	5
154.0961	7
155.0733	21
155.1531	6
155.9695	14
155.9921	5
156.0313	6
156.0902	28
156.2089	17
157.0658	8
157.1007	142
158.0682	12
158.1057	33
158.1882	6
159.0807	69
159.116	208
159.976	12
159.9861	7
160.0869	25
160.1193	30
160.2192	6
161.001	8
161.0594	8
161.0711	10
161.0952	115
161.1313	79
161.9985	7
162.0193	6
162.1361	8
162.1811	6
163.023	7
163.0382	8
163.1112	124
164.2339	6
165.0688	15
166.0715	5
167.0842	21
167.1042	8
167.9687	11
168.0583	9
168.0863	17
168.9882	6
169.0175	10
169.1002	60
170.0079	5
170.0689	5
170.0901	6
170.1016	10
170.1907	5
171.0024	7
171.0799	55
171.1156	156
171.2534	8
172.0161	5
172.1206	20
172.1454	6
172.2396	8
173.0382	13
173.0953	253
173.1316	200
174.1012	38
174.136	26
174.1852	6
175.0755	24
175.1111	345
176.0226	5
177.091	38
177.1279	39
177.2571	5
178.0724	10
178.1318	7
179.087	13
179.1065	90
179.1391	12
179.2004	5
179.2359	5
180.0383	5
180.0749	4
180.0921	9
181.1017	82
181.1239	18
181.1993	7
181.2748	9
182.11	21
183.0292	9
183.0758	10
183.1169	67
184.017	6
184.0835	7
184.1244	18
184.2017	6
185.0103	6
185.0966	25
185.1322	128
186.0146	5
186.0404	7
186.08	5
186.0987	18
186.1375	43
186.2407	6
187.0128	6
187.0752	9
187.0884	6
187.1116	107
187.1484	30
188.0688	6
189.0906	25
189.1272	181
190.0943	10
190.1321	12
190.1444	5
190.1691	4
191.0225	10
191.0585	7
191.0849	13
191.1061	146
191.1428	36
191.1753	13
192.1112	12
192.137	6
193.0658	7
193.1019	40
193.1199	42
193.1949	5
194.1066	30
194.2031	8
195.0813	11
195.1174	100
195.139	17
195.9995	7
196.0826	8
196.1225	40
196.1953	6
196.2252	6
197.0959	29
197.1114	8
197.1308	146
197.1874	9
198.1036	13
198.1211	7
198.1379	23
198.1578	7
198.9982	13
199.1118	91
199.1477	165
199.9834	11
200.1127	8
200.1206	16
200.1511	51
201.0909	16
201.1267	315
201.164	21
202.1301	43
202.1608	8
203.0242	6
203.0622	5
203.0869	9
203.1037	30
203.14	22
204.1101	5
204.1832	8
204.2814	7
205.1028	6
205.1204	14
206.1149	6
207.115	60
207.1381	28
208.0249	5
208.1236	15
208.1557	9
208.2602	6
209.0931	20
209.1325	172
209.2249	10
210.0043	6
210.0672	4
210.1006	5
210.1368	42
210.2538	4
211.1112	33
211.1321	6
211.1483	112
212.0386	5
212.0795	5
212.1146	41
212.1525	36
213.0929	5
213.1271	114
213.1491	13
213.163	100
213.2454	6
214.13	29
214.169	20
215.0823	11
215.1433	206
215.1764	23
215.9678	5
216.0181	5
216.1468	35
216.2832	5
217.1022	6
217.1213	46
217.1569	25
217.2409	5
217.2894	14
218.0541	6
218.1072	7
218.1251	12
219.0906	5
219.1166	38
219.1382	13
219.1765	6
220.1056	5
221.0613	6
221.1327	112
221.1514	15
222.0862	15
222.0993	5
222.1384	26
223.1119	29
223.1478	155
224.1154	15
224.1318	5
224.1537	26
225.0931	7
225.1251	157
225.1627	101
225.1815	13
226.0873	5
226.1308	67
226.1663	30
227.1074	16
227.1419	190
227.179	28
228.1474	68
228.1817	13
229.1225	18
229.1573	146
229.1823	9
230.0131	4
230.062	7
230.1075	10
230.1471	4
230.1619	18
231.1206	8
231.1376	59
232.1426	16
232.9979	7
233.1329	30
233.1509	9
234.0401	6
234.0971	9
234.1483	5
235.0353	10
235.1093	12
235.1466	118
236.1174	9
236.1362	7
236.1536	42
237.1269	30
237.1644	55
237.1828	6
238.1355	12
238.1672	6
239.1048	7
239.1437	100
239.1793	35
239.1976	7
240.0693	6
240.112	5
240.1464	12
240.1867	91
241.123	8
241.1584	111
241.1926	50
242.1635	36
242.1872	13
242.1985	13
243.137	80
243.1718	18
244.0741	5
244.1246	4
244.1444	14
244.1605	4
245.1331	28
245.1531	22
245.1669	15
245.1913	8
246.1167	6
246.1367	25
246.1606	12
246.204	5
246.2411	5
247.1472	32
247.1696	7
248.1492	8
249.0643	6
249.1253	22
249.1632	99
250.107	6
250.1299	6
250.1712	50
250.2125	6
250.237	6
251.1253	5
251.1423	53
251.1789	33
251.1996	8
252.0528	6
252.1493	14
252.1833	15
252.2321	5
253.1569	129
253.1922	38
254.1608	18
254.2351	6
255.0743	13
255.1385	22
255.1758	52
256.1252	6
256.1448	13
256.1797	21
256.2642	6
257.0381	8
257.1532	23
257.1882	13
257.2464	6
258.1091	5
258.136	4
258.1725	8
258.2054	17
259.0052	9
259.0562	12
259.148	48
259.2275	6
260.047	10
260.1551	23
260.1791	5
261.1473	68
261.1654	19
262.1211	9
262.1476	8
262.1584	12
262.1709	10
263.1429	39
263.1796	75
264.1492	18
264.1835	17
264.9995	8
265.0817	11
265.1573	21
265.1948	28
266.1593	6
266.1937	4
267.14	6
267.1552	4
267.1732	51
267.2104	7
268.1798	67
268.2208	6
269.0191	5
269.1546	20
269.1867	30
270.1604	9
271.145	6
271.1587	8
271.1708	25
271.208	6
272.1561	13
273.1623	43
274.126	8
274.1669	21
274.2023	6
274.2617	8
275.1383	5
275.177	13
275.1852	12
275.9789	4
276.1882	32
277.1577	108
277.1947	54
278.1126	4
278.1247	5
278.1629	34
278.2003	19
279.1733	20
279.1947	8
279.2118	6
280.2124	4
281.0732	13
281.1486	12
281.161	15
281.1882	33
281.2186	4
282.0802	7
282.1978	4
283.0529	5
283.075	8
283.2041	13
283.2223	5
284.1769	8
285.1633	13
285.1863	16
286.1268	5
286.1736	16
286.1867	16
287.0258	5
287.1422	10
287.1789	40
288.1365	8
288.18	10
289.1939	63
290.1661	32
290.2024	50
291.1734	97
291.2097	186
292.1793	23
292.2151	37
293.0066	9
293.1889	48
293.2142	5
293.2265	10
294.196	29
294.2555	5
295.1475	5
295.1676	53
295.205	20
295.2423	21
295.2655	6
296.1761	11
296.2058	9
296.2384	5
297.2225	8
298.1171	5
298.1736	7
298.1926	9
299.0784	10
299.2165	5
300.0543	5
300.1882	72
300.9925	6
301.192	22
302.2091	9
302.2231	5
303.1758	23
303.2132	7
304.0619	6
304.1834	21
304.2141	28
305.19	50
305.2256	374
306.1157	5
306.1932	26
306.2301	81
307.1456	5
307.2011	18
307.2372	11
308.2121	13
308.2796	10
309.1485	6
309.1846	50
309.2206	39
310.1939	17
310.2212	26
311.2	15
312.2065	5
313.0639	5
313.1789	7
313.2113	12
315.1202	10
315.2088	193
316.2118	33
317.1937	5
318.1975	145
319.1993	26
321.2207	14
322.1882	6
322.2317	11
323.2003	22
323.2357	128
324.0514	8
324.2044	11
324.2426	31
325.1538	7
326.1908	5
326.2199	10
327.1507	4
327.2323	6
327.2577	8
330.0628	8
331.2026	12
332.2237	8
333.2205	871
334.225	194
334.245	12
335.0659	5
335.2286	11
336.2079	34
337.212	11
339.2299	8
340.1049	8
340.198	6
341.0899	8
341.2108	9
341.2459	156
341.9819	5
342.0808	5
342.2516	49
343.2564	9
344.122	5
350.1715	6
351.2313	982
352.2347	266
353.173	8
353.2411	14
354.214	5
354.242	7
369.2416	70
369.276	6
370.2459	24
371.2446	7
378.1467	4
385.1272	10
387.2128	9
387.2466	16
408.0489	8
