Mass spectrum: Phenazine; LC-ESI-QTOF; MS2; CE: 40; R=; [M+H]+
Name: Phenazine
Formula: C12H8N2
Exact mass: 180.06875
SMILES: c1ccc2c(c1)nc3ccccc3n2
InChI: InChI=1S/C12H8N2/c1-2-6-10-9(5-1)13-11-7-3-4-8-12(11)14-10/h1-8H
Instrument: maXis plus UHR-ToF-MS, Bruker Daltonics
Instrument type: LC-ESI-QTOF
Ms type: MS2
Ion mode: POSITIVE
Ionization: ESI
Fragmentation mode: CID
Collision energy: 40
Column name: BEH C18 1.7um, 2.1x100mm, Waters
Retention time: 4.356 min
Base peak: 181.0763
Precursor m/z: 181.076
Precursor type: [M+H]+
m/z	relative intensity
55.0167	1
64.0178	1
74.0145	21
75.0222	264
76.0175	56
79.0176	1
81.0326	14
89.0378	1
90.0331	3
90.046	1
91.0413	3
92.0493	8
95.0486	915
96.0442	17
101.0028	1
101.0381	1
102.0335	177
103.0538	8
104.0491	23
105.0445	308
115.0412	1
115.0542	2
117.0573	5
117.0695	1
118.0647	1
120.0445	32
121.0401	1
125.0384	2
126.0458	5
127.0542	38
128.0496	27
129.0447	49
130.04	87
140.0495	3
141.0561	1
142.0527	5
145.0646	16
146.0594	5
152.0491	20
153.0447	7
153.0567	34
154.0647	144
155.0604	31
164.048	1
166.0514	1
170.0599	4
171.0547	2
178.0521	1
179.0599	159
180.0675	239
181.0753	999
