Mass spectrum: Glycolithocholic acid; LC-ESI-QTOF; MS2; CE: 20; R=; [M+H]+
Name: Glycolithocholic acid
Name: AC1N3NBH
Name: 2-[4-(3-hydroxy-10,13-dimethyl-2,3,4,5,6,7,8,9,11,12,14,15,16,17-tetradecahydro-1H-cyclopenta[a]phenanthren-17-yl)pentanoylamino]acetic acid
Formula: C26H43NO4
Exact mass: 433.3192
SMILES: CC(CCC(=O)NCC(=O)O)C1CCC2C1(CCC3C2CCC4C3(CCC(C4)O)C)C
InChI: InChI=1S/C26H43NO4/c1-16(4-9-23(29)27-15-24(30)31)20-7-8-21-19-6-5-17-14-18(28)10-12-25(17,2)22(19)11-13-26(20,21)3/h16-22,28H,4-15H2,1-3H3,(H,27,29)(H,30,31)
Instrument: maXis plus UHR-ToF-MS, Bruker Daltonics
Instrument type: LC-ESI-QTOF
Ms type: MS2
Ion mode: POSITIVE
Ionization: ESI
Fragmentation mode: CID
Collision energy: 20
Column name: BEH C18 1.7um, 2.1x100mm, Waters
Retention time: 5.455 min
Base peak: 88.075
Precursor m/z: 434.3265
Precursor type: [M+H]+
m/z	relative intensity
76.0388	199
81.0694	3
85.0648	8
95.0858	2
135.1173	1
149.1325	1
151.1118	1
158.0808	2
159.1163	1
163.1479	2
172.0952	1
175.1456	1
177.1265	3
177.1643	1
187.1475	2
189.1628	1
191.1437	1
201.162	1
203.1791	1
205.158	1
212.1274	1
213.164	3
215.1791	2
217.1952	2
219.174	1
226.1439	6
227.1793	2
229.1934	2
231.1744	1
231.2123	1
238.1431	1
240.1588	4
241.1632	1
241.1943	1
252.1591	8
254.1742	3
266.1759	3
268.1882	2
280.1908	4
294.2059	3
306.2069	3
308.22	1
320.2223	4
321.2226	1
323.2731	111
324.2767	25
325.2789	2
334.236	4
341.2835	198
342.287	45
360.2535	1
398.3081	2
399.3079	1
416.3158	999
417.3194	396
418.3221	48
419.3254	1
434.3278	4
