Mass spectrum: 5?-CHOLANIC ACID-3?_ 12?-DIOL-7-ONE; LC-ESI-QTOF; MS2; CE: 10; R=; [M+H]+
Name: 5?-CHOLANIC ACID-3?_ 12?-DIOL-7-ONE
Name: 7-Ketodeoxycholic acid
Name: (4R)-4-[(3R,5S,8R,9S,10S,12S,13R,14S,17R)-3,12-dihydroxy-10,13-dimethyl-7-oxo-1,2,3,4,5,6,8,9,11,12,14,15,16,17-tetradecahydrocyclopenta[a]phenanthren-17-yl]pentanoic acid
Formula: C24H38O5
Exact mass: 406.2719
SMILES: C[C@H](CCC(=O)O)[C@H]1CC[C@@H]2[C@@]1([C@H](C[C@H]3[C@H]2C(=O)C[C@H]4[C@@]3(CC[C@H](C4)O)C)O)C
InChI: InChI=1S/C24H38O5/c1-13(4-7-21(28)29)16-5-6-17-22-18(12-20(27)24(16,17)3)23(2)9-8-15(25)10-14(23)11-19(22)26/h13-18,20,22,25,27H,4-12H2,1-3H3,(H,28,29)/t13-,14+,15-,16-,17+,18+,20+,22+,23+,24-/m1/s1
Instrument: maXis plus UHR-ToF-MS, Bruker Daltonics
Instrument type: LC-ESI-QTOF
Ms type: MS2
Ion mode: POSITIVE
Ionization: ESI
Fragmentation mode: CID
Collision energy: 10
Column name: BEH C18 1.7um, 2.1x100mm, Waters
Retention time: 4.389 min
Base peak: 389.2686
Precursor m/z: 407.2792
Precursor type: [M+H]+
m/z	relative intensity
97.0643	34
131.2952	20
135.0044	21
141.0297	31
147.0447	17
155.065	27
199.1314	25
205.9705	30
207.0646	20
207.099	30
212.055	16
221.0213	17
222.1488	16
224.1153	28
246.1233	16
246.1605	17
256.1758	21
257.1911	17
271.1675	31
272.1725	32
313.0945	25
324.0702	16
326.1326	20
329.2809	30
335.2347	81
336.2386	28
348.1381	30
349.0718	19
353.2176	18
353.2461	361
354.2515	68
354.2812	24
365.0928	18
370.0137	28
371.2589	260
372.2618	126
373.1687	28
374.2652	32
381.2161	24
389.2687	999
390.2706	203
391.2708	52
407.2805	807
409.2804	17
