Mass spectrum: Acetyl-L-Carnitine; LC-ESI-QTOF; MS2; CE: 10; R=; [M+H]+
Name: Acetyl-L-Carnitine
Name: acetyl-d-carnitine
Name: (3S)-3-acetyloxy-4-(trimethylazaniumyl)butanoate
Formula: C9H17NO4
Exact mass: 203.1158
SMILES: CC(=O)O[C@@H](CC(=O)[O-])C[N+](C)(C)C
InChI: InChI=1S/C9H17NO4/c1-7(11)14-8(5-9(12)13)6-10(2,3)4/h8H,5-6H2,1-4H3/t8-/m0/s1
Instrument: maXis plus UHR-ToF-MS, Bruker Daltonics
Instrument type: LC-ESI-QTOF
Ms type: MS2
Ion mode: POSITIVE
Ionization: ESI
Fragmentation mode: CID
Collision energy: 10
Column name: BEH C18 1.7um, 2.1x100mm, Waters
Retention time: 0.668 min
Base peak: 204.1224
Precursor m/z: 204.123
Precursor type: [M+H]+
m/z	relative intensity
85.0279	197
144.1016	2
145.0496	17
204.1224	999
