Mass spectrum: L-Serine; LC-ESI-QTOF; MS2; CE: 10; R=; [M+H]+
Name: L-Serine
Name: (2S)-2-amino-3-hydroxypropanoic acid
Formula: C3H7NO3
Exact mass: 105.04259
SMILES: C([C@@H](C(=O)O)N)O
InChI: InChI=1S/C3H7NO3/c4-2(1-5)3(6)7/h2,5H,1,4H2,(H,6,7)/t2-/m0/s1
Instrument: maXis plus UHR-ToF-MS, Bruker Daltonics
Instrument type: LC-ESI-QTOF
Ms type: MS2
Ion mode: POSITIVE
Ionization: ESI
Fragmentation mode: CID
Collision energy: 10
Column name: BEH C18 1.7um, 2.1x100mm, Waters
Retention time: 0.602 min
Base peak: 60.0435
Precursor m/z: 106.0499
Precursor type: [M+H]+
m/z	relative intensity
58.0283	7
64.0152	13
70.0282	224
88.0389	999
97.0268	16
106.0495	879
