Mass spectrum: 3-Methylhippuric acid; LC-ESI-QTOF; MS2; CE: 40; R=; [M+H]+
Name: 3-Methylhippuric acid
Name: 2-[(3-methylbenzoyl)amino]acetic acid
Formula: C10H11NO3
Exact mass: 193.0739
SMILES: Cc1cccc(c1)C(=O)NCC(O)=O
InChI: InChI=1S/C10H11NO3/c1-7-3-2-4-8(5-7)10(14)11-6-9(12)13/h2-5H,6H2,1H3,(H,11,14)(H,12,13)
Instrument: maXis plus UHR-ToF-MS, Bruker Daltonics
Instrument type: LC-ESI-QTOF
Ms type: MS2
Ion mode: POSITIVE
Ionization: ESI
Fragmentation mode: CID
Collision energy: 40
Column name: BEH C18 1.7um, 2.1x100mm, Waters
Retention time: 3.251 min
Base peak: 194.0806
Precursor m/z: 194.0812
Precursor type: [M+H]+
m/z	relative intensity
55.017	1
74.0236	1
91.0538	999
95.0491	1
109.0644	64
110.0686	2
119.0489	42
119.06	29
120.0527	5
