Mass spectrum: Palmitoyl Ethanolamide; LC-ESI-QTOF; MS2; CE: 20; R=; [M+H]+
Name: Palmitoyl Ethanolamide
Name: Palmitoylethanolamide
Name: N-(2-hydroxyethyl)hexadecanamide
Formula: C18H37NO2
Exact mass: 299.28243
SMILES: CCCCCCCCCCCCCCCC(=O)NCCO
InChI: InChI=1S/C18H37NO2/c1-2-3-4-5-6-7-8-9-10-11-12-13-14-15-18(21)19-16-17-20/h20H,2-17H2,1H3,(H,19,21)
Instrument: maXis plus UHR-ToF-MS, Bruker Daltonics
Instrument type: LC-ESI-QTOF
Ms type: MS2
Ion mode: POSITIVE
Ionization: ESI
Fragmentation mode: CID
Collision energy: 20
Column name: BEH C18 1.7um, 2.1x100mm, Waters
Retention time: 6.721 min
Base peak: 88.0752
Precursor m/z: 300.2897
Precursor type: [M+H]+
m/z	relative intensity
62.0597	999
65.0831	252
71.086	252
85.1007	505
195.1038	264
228.1271	361
263.0553	264
283.2641	710
