Mass spectrum: 3?-Hydroxy-7 Ketolithocholic Acid; LC-ESI-QTOF; MS2; CE: 20; R=; [M+H]+
Name: 3?-Hydroxy-7 Ketolithocholic Acid
Name: (4R)-4-[(3R,5S,8R,9S,10S,13R,14S,17R)-3-hydroxy-10,13-dimethyl-7-oxo-1,2,3,4,5,6,8,9,11,12,14,15,16,17-tetradecahydrocyclopenta[a]phenanthren-17-yl]pentanoic acid
Formula: C24H38O4
Exact mass: 390.2770
SMILES: C[C@H](CCC(O)=O)[C@H]1CC[C@H]2[C@H]3[C@H](CC[C@]12C)[C@@]1(C)CC[C@@H](O)C[C@H]1CC3=O
InChI: InChI=1S/C24H38O4/c1-14(4-7-21(27)28)17-5-6-18-22-19(9-11-24(17,18)3)23(2)10-8-16(25)12-15(23)13-20(22)26/h14-19,22,25H,4-13H2,1-3H3,(H,27,28)/t14-,15+,16-,17-,18+,19+,22+,23+,24-/m1/s1
Instrument: maXis plus UHR-ToF-MS, Bruker Daltonics
Instrument type: LC-ESI-QTOF
Ms type: MS2
Ion mode: POSITIVE
Ionization: ESI
Fragmentation mode: CID
Collision energy: 20
Column name: BEH C18 1.7um, 2.1x100mm, Waters
Retention time: 4.972 min
Base peak: 781.5609
Precursor m/z: 391.2843
Precursor type: [M+H]+
m/z	relative intensity
79.0539	1
85.0641	3
93.0691	3
95.0852	9
99.0442	1
101.0595	5
105.0698	2
107.0855	4
109.1005	4
111.0809	2
121.1013	2
123.0804	2
125.0964	1
131.0855	2
135.1161	1
137.0967	1
145.1009	3
149.1327	3
151.1108	2
157.1007	1
159.0661	1
159.1161	14
160.1204	1
161.132	2
163.1111	1
165.1267	6
167.1061	1
173.1324	6
175.1107	1
175.1467	4
181.1214	4
185.1325	3
187.1484	2
189.1644	1
191.1084	1
191.143	7
193.1214	2
195.1174	1
195.1378	2
197.1323	1
199.1477	11
201.1635	2
203.1421	3
203.1811	1
204.1449	1
205.1229	2
207.1375	6
208.1398	1
209.132	3
211.1461	1
213.1637	11
214.1679	1
215.1773	4
217.1578	3
221.1536	2
223.1481	3
225.1638	2
227.1429	7
227.179	10
228.1454	1
228.1829	1
229.1582	3
230.1649	1
231.1736	2
232.1778	1
233.153	1
235.1693	1
237.1635	2
241.1583	8
241.1952	7
242.1615	1
243.1737	3
245.1546	3
245.1889	7
246.1915	1
247.1687	16
248.1724	2
249.1869	1
253.1942	1
255.1744	2
255.2099	3
256.2168	1
259.1697	8
259.2064	1
260.1745	1
261.1845	7
263.1802	1
273.1856	3
274.1884	1
275.2011	2
281.1862	1
287.2013	2
289.2135	1
293.2248	2
295.2059	1
295.2427	3
296.2456	1
299.2001	2
301.2158	1
309.2226	3
309.2594	7
310.2639	1
313.2125	1
319.2422	53
320.2458	10
321.2495	1
327.2688	6
328.2724	1
337.2524	405
338.2556	103
355.2631	999
356.2663	309
358.273	1
373.2734	379
374.2774	104
376.2812	1
391.2836	5
