Mass spectrum: Salicylic acid; LC-ESI-QTOF; MS2; CE: 40; R=; [M+H]+
Name: Salicylic acid
Formula: C7H6O3
Exact mass: 138.0317
SMILES: c1ccc(c(c1)C(=O)O)O
InChI: InChI=1S/C7H6O3/c8-6-4-2-1-3-5(6)7(9)10/h1-4,8H,(H,9,10)
Instrument: maXis plus UHR-ToF-MS, Bruker Daltonics
Instrument type: LC-ESI-QTOF
Ms type: MS2
Ion mode: POSITIVE
Ionization: ESI
Fragmentation mode: CID
Collision energy: 40
Column name: BEH C18 1.7um, 2.1x100mm, Waters
Retention time: 3.612 min
Base peak: 329.9821
Precursor m/z: 139.039
Precursor type: [M+H]+
m/z	relative intensity
63.0223	999
75.0233	134
93.034	465
111.044	306
121.0293	389
121.0387	489
