Mass spectrum: Perlargonic acid; LC-ESI-QTOF; MS2; CE: 20; R=; [M-H]-
Name: Perlargonic acid
Name: nonanoic acid
Formula: C9H18O2
Exact mass: 158.1307
SMILES: CCCCCCCCC(=O)O
InChI: InChI=1S/C9H18O2/c1-2-3-4-5-6-7-8-9(10)11/h2-8H2,1H3,(H,10,11)
Instrument: maXis plus UHR-ToF-MS, Bruker Daltonics
Instrument type: LC-ESI-QTOF
Ms type: MS2
Ion mode: NEGATIVE
Ionization: ESI
Fragmentation mode: CID
Collision energy: 20
Column name: BEH C18 1.7um, 2.1x100mm, Waters
Retention time: 5.202 min
Base peak: 157.1234
Precursor m/z: 157.1234
Precursor type: [M-H]-
m/z	relative intensity
84.0088	92
157.1236	999
