Mass spectrum: Stearoyl-L-Carnitine; LC-ESI-QTOF; MS2; CE: 40; R=; [M+H]+
Name: Stearoyl-L-Carnitine
Name: stearoylcarnitine
Name: 3-octadecanoyloxy-4-(trimethylazaniumyl)butanoate
Formula: C25H49NO4
Exact mass: 427.3662
SMILES: CCCCCCCCCCCCCCCCCC(=O)OC(CC(=O)[O-])C[N+](C)(C)C
InChI: InChI=1S/C25H49NO4/c1-5-6-7-8-9-10-11-12-13-14-15-16-17-18-19-20-25(29)30-23(21-24(27)28)22-26(2,3)4/h23H,5-22H2,1-4H3
Instrument: maXis plus UHR-ToF-MS, Bruker Daltonics
Instrument type: LC-ESI-QTOF
Ms type: MS2
Ion mode: POSITIVE
Ionization: ESI
Fragmentation mode: CID
Collision energy: 40
Column name: BEH C18 1.7um, 2.1x100mm, Waters
Retention time: 6.105 min
Base peak: 428.3733
Precursor m/z: 428.3734
Precursor type: [M+H]+
m/z	relative intensity
57.0324	5
71.0849	20
81.0694	6
83.0851	2
84.08	1
85.0277	999
95.0851	5
97.101	2
109.1007	1
144.1015	4
428.3728	2
