Mass spectrum: Myristoyl Ethanolamide; LC-ESI-QTOF; MS2; CE: 40; R=; [M+H]+
Name: Myristoyl Ethanolamide
Name: N-(2-hydroxyethyl)tetradecanamide
Formula: C16H33NO2
Exact mass: 271.25113
SMILES: O=C(CCCCCCCCCCCCC)NCCO
InChI: InChI=1S/C16H33NO2/c1-2-3-4-5-6-7-8-9-10-11-12-13-16(19)17-14-15-18/h18H,2-15H2,1H3,(H,17,19)
Instrument: maXis plus UHR-ToF-MS, Bruker Daltonics
Instrument type: LC-ESI-QTOF
Ms type: MS2
Ion mode: POSITIVE
Ionization: ESI
Fragmentation mode: CID
Collision energy: 40
Column name: BEH C18 1.7um, 2.1x100mm, Waters
Retention time: 6.104 min
Base peak: 272.2577
Precursor m/z: 272.2584
Precursor type: [M+H]+
m/z	relative intensity
52.2187	1
53.0389	1
55.1695	1
57.0693	295
62.0595	999
63.1743	1
65.0382	9
66.1855	1
67.0537	156
69.0693	66
71.085	203
73.0276	4
79.054	9
81.0694	73
83.0849	9
85.063	1
85.101	28
87.0436	1
95.085	59
96.0891	1
98.0599	2
109.0162	1
109.1019	4
113.1083	1
123.1172	1
123.1621	1
138.1363	1
221.0589	1
254.2458	9
255.2303	3
255.2529	5
256.1332	1
