Mass spectrum: 3?-Hydroxy-7 Ketolithocholic Acid; LC-ESI-QTOF; MS2; CE: 40; R=; [M+H]+
Name: 3?-Hydroxy-7 Ketolithocholic Acid
Name: (4R)-4-[(3R,5S,8R,9S,10S,13R,14S,17R)-3-hydroxy-10,13-dimethyl-7-oxo-1,2,3,4,5,6,8,9,11,12,14,15,16,17-tetradecahydrocyclopenta[a]phenanthren-17-yl]pentanoic acid
Formula: C24H38O4
Exact mass: 390.2770
SMILES: C[C@H](CCC(O)=O)[C@H]1CC[C@H]2[C@H]3[C@H](CC[C@]12C)[C@@]1(C)CC[C@@H](O)C[C@H]1CC3=O
InChI: InChI=1S/C24H38O4/c1-14(4-7-21(27)28)17-5-6-18-22-19(9-11-24(17,18)3)23(2)10-8-16(25)12-15(23)13-20(22)26/h14-19,22,25H,4-13H2,1-3H3,(H,27,28)/t14-,15+,16-,17-,18+,19+,22+,23+,24-/m1/s1
Instrument: maXis plus UHR-ToF-MS, Bruker Daltonics
Instrument type: LC-ESI-QTOF
Ms type: MS2
Ion mode: POSITIVE
Ionization: ESI
Fragmentation mode: CID
Collision energy: 40
Column name: BEH C18 1.7um, 2.1x100mm, Waters
Retention time: 4.972 min
Base peak: 781.5609
Precursor m/z: 391.2843
Precursor type: [M+H]+
m/z	relative intensity
49.0077	4
63.1747	2
68.01	1
71.0857	3
72.1716	2
73.0281	3
74.072	2
77.0382	36
77.2118	2
78.0422	2
78.234	2
79.0537	301
79.9887	2
81.0694	999
83.0486	120
83.0849	230
84.0522	13
84.1723	2
85.0642	206
87.0685	3
89.0014	2
89.9974	1
91.0539	195
92.0572	26
93.0695	538
94.0143	1
94.0366	2
94.0729	23
94.2143	2
95.0486	51
95.0852	797
96.0419	3
96.0884	62
97.0643	80
97.1007	39
98.0361	3
99.0437	89
99.0805	8
100.0483	5
100.2604	3
101.0592	97
103.0545	3
105.0697	371
106.0727	22
106.2296	2
107.0489	19
107.0851	388
108.0888	20
109.0642	91
109.1012	226
110.0475	2
110.0692	7
110.1044	35
111.0807	63
112.112	2
113.0967	2
115.0147	4
115.0617	4
115.0753	4
116.0627	4
118.0738	5
119.0585	9
119.0853	159
120.0886	14
121.0647	26
121.1003	152
122.1054	14
123.0327	1
123.0807	35
123.1169	21
123.1374	2
123.2328	4
125.0384	3
125.0955	17
126.1003	1
127.0754	24
129.0699	14
130.0134	3
130.0774	6
131.0853	71
132.0895	13
132.2445	1
133.1005	76
133.1232	4
134.1774	2
135.0411	2
135.0794	19
135.1172	46
136.0182	1
136.1205	4
136.1559	2
136.1821	1
137.0546	2
137.0965	24
137.1315	2
139.0382	3
139.1126	3
140.0434	5
140.1765	2
140.9957	2
141.0862	3
141.2776	4
143.0855	46
143.2211	2
144.0516	2
144.0885	20
145.1011	146
146.1042	17
147.0806	21
147.1168	132
148.0128	4
148.0226	6
148.1203	19
149.0591	2
149.0961	20
149.1318	45
149.2467	2
149.9976	2
151.0509	2
151.0718	2
151.1116	36
151.1688	2
152.0489	3
152.1977	2
153.0414	2
153.052	2
153.0669	2
153.0922	9
154.1931	4
154.2657	4
154.9857	5
155.0255	4
155.0851	36
156.0312	6
156.0673	1
156.0902	13
157.1007	149
158.0359	2
158.1044	18
159.1165	334
160.0066	2
160.0871	3
160.1204	38
161.0951	27
161.1322	160
162.1013	4
162.1375	17
163.0186	3
163.111	54
163.148	8
164.1067	3
164.1168	7
165.0709	8
165.0922	4
165.1269	64
165.9885	2
166.0722	3
166.0934	4
166.1313	6
167.0842	7
167.1073	5
168.0687	2
168.0903	5
169.0229	2
169.1006	37
169.1439	2
169.1817	3
170.0139	4
170.106	9
171.0791	13
171.1161	96
173.1322	209
174.0999	2
174.1355	27
175.111	49
175.148	58
176.1528	9
176.1644	4
176.201	2
177.0893	5
177.1271	50
178.0765	2
178.1299	3
179.0083	2
179.0586	2
179.0853	3
179.1035	4
180.0907	3
181.0034	1
181.1003	22
181.1217	9
182.1067	5
182.1247	3
183.116	57
184.0755	2
184.122	9
184.1684	2
185.096	12
185.1322	188
186.0664	2
186.0776	5
186.0907	3
186.1042	3
186.1368	25
187.1482	96
187.9748	5
188.1142	3
188.1507	13
188.1897	1
189.1268	52
190.1328	7
190.1683	5
191.0076	2
191.0335	3
191.1426	45
192.0825	2
193.0775	3
193.1023	2
193.122	10
194.0906	2
194.1053	2
194.1138	3
195.117	43
195.1368	10
196.1584	2
197.0956	3
197.1319	66
198.0919	2
198.1373	11
199.1474	323
200.117	5
200.1509	51
200.2385	3
201.1273	15
201.1632	62
202.1309	4
202.1686	8
203.1423	62
203.1787	13
204.1482	10
204.1621	2
205.1221	10
205.1589	5
206.0224	1
206.1269	2
207.118	4
207.1371	29
207.1583	2
207.1813	2
208.1086	4
208.1253	10
208.1821	2
209.1312	113
210.1359	13
211.1477	95
212.1181	6
212.1501	19
213.1268	20
213.1633	230
214.0493	2
214.1671	35
215.1425	30
215.1792	55
216.1459	6
216.1818	9
217.1582	75
217.1953	5
220.1235	2
220.1418	3
221.1183	2
221.1332	6
221.1542	5
222.1446	1
222.2202	2
223.147	133
224.1507	28
224.1722	2
225.1507	4
225.1637	82
226.0938	1
226.1484	1
226.1662	20
227.1428	111
227.1787	124
228.0545	3
228.148	19
228.1821	29
229.1593	56
229.1928	7
230.1618	14
231.0425	2
231.1736	42
232.1213	3
232.177	8
232.2377	1
233.0683	3
233.1528	10
235.147	14
235.1686	13
236.1452	3
236.1712	2
237.1632	55
238.1453	3
238.1699	12
238.2487	1
239.1405	3
239.179	69
240.1816	20
240.2447	2
241.1583	94
241.1935	53
241.2134	6
242.102	1
242.1631	32
242.1975	10
242.2225	2
243.1082	2
243.1737	50
245.1529	26
245.189	45
245.2255	2
246.1569	8
246.1949	8
246.3005	2
247.1683	53
247.2025	6
248.1543	6
248.1715	9
248.2153	4
249.1651	24
250.1639	7
251.1435	2
251.1793	34
252.1868	6
253.1454	3
254.2022	71
255.0015	4
255.174	27
255.2092	35
256.1791	11
256.2121	6
257.153	4
257.1893	23
257.2123	2
258.1971	2
259.0838	2
259.1688	32
259.2079	4
260.1318	1
260.1719	3
260.247	1
261.1411	6
261.1637	4
261.1864	28
262.1885	3
263.1799	55
263.1995	4
264.1844	14
265.1919	14
266.1943	2
267.1746	7
267.2085	5
268.1814	5
268.2133	2
269.1301	2
269.1908	15
269.2264	2
270.13	2
270.1946	4
270.265	2
271.065	1
271.2061	4
272.2145	2
273.1838	15
274.1897	15
275.0117	3
275.1792	2
276.2037	2
277.011	1
277.1607	2
277.1953	22
278.195	4
279.2089	8
280.1806	2
280.2148	9
281.1059	3
282.193	2
282.2334	2
283.1942	5
283.2734	2
284.1639	2
284.1883	1
287.2011	10
289.1955	4
289.2182	4
290.2016	3
291.0952	2
291.2109	6
292.2172	3
293.1349	2
293.1893	1
293.2273	7
293.2467	1
294.1925	3
294.229	6
295.2057	26
295.2412	31
295.9769	2
296.211	6
296.241	8
297.0881	2
297.2215	6
299.2387	2
299.2633	2
300.2107	7
300.241	3
301.2135	6
303.2088	1
304.2165	9
304.2361	2
305.2568	2
306.0084	2
307.1353	2
308.1762	3
309.2199	23
309.2576	36
310.2274	6
310.2631	7
311.2635	2
312.274	3
312.991	3
313.0595	1
313.2141	7
313.2556	7
314.2054	2
314.222	3
317.0491	1
317.2266	4
318.1273	2
318.1907	2
319.2422	200
320.2451	48
320.2664	4
321.2488	6
322.2247	5
325.0634	1
326.2231	2
327.2304	7
329.2406	2
335.0825	2
337.2524	269
338.2554	53
339.2457	3
340.2379	3
341.2423	1
345.2778	2
353.2427	4
355.2624	182
356.2665	56
357.2689	12
373.2694	2
373.281	3
380.076	2
