Mass spectrum: 1-Hydroxyphenanzine; LC-ESI-QTOF; MS2; CE: 10; R=; [M+H]+
Name: 1-Hydroxyphenanzine
Formula: C12H8N2O
Exact mass: 196.06366
SMILES: c1ccc2c(c1)nc3cccc(c3n2)O
InChI: InChI=1S/C12H8N2O/c15-11-7-3-6-10-12(11)14-9-5-2-1-4-8(9)13-10/h1-7,15H
Instrument: maXis plus UHR-ToF-MS, Bruker Daltonics
Instrument type: LC-ESI-QTOF
Ms type: MS2
Ion mode: POSITIVE
Ionization: ESI
Fragmentation mode: CID
Collision energy: 10
Column name: BEH C18 1.7um, 2.1x100mm, Waters
Retention time: 4.102 min
Base peak: 197.0707
Precursor m/z: 197.0709
Precursor type: [M+H]+
m/z	relative intensity
168.0682	1
169.076	12
179.0604	2
197.0706	999
