Mass spectrum: Suberic acid; LC-ESI-QTOF; MS2; CE: 40; R=; [M-H]-
Name: Suberic acid
Name: Octanedioic acid
Formula: C8H14O4
Exact mass: 174.0892
SMILES: OC(=O)CCCCCCC(O)=O
InChI: InChI=1S/C8H14O4/c9-7(10)5-3-1-2-4-6-8(11)12/h1-6H2,(H,9,10)(H,11,12)
Instrument: maXis plus UHR-ToF-MS, Bruker Daltonics
Instrument type: LC-ESI-QTOF
Ms type: MS2
Ion mode: NEGATIVE
Ionization: ESI
Fragmentation mode: CID
Collision energy: 40
Column name: BEH C18 1.7um, 2.1x100mm, Waters
Retention time: 3.095 min
Base peak: 173.0825
Precursor m/z: 173.0819
Precursor type: [M-H]-
m/z	relative intensity
57.0343	474
67.0559	277
71.014	50
80.0272	88
81.0347	999
83.0505	914
109.0657	318
111.0821	84
