Mass spectrum: Arachidonoyl Ethanolamide; LC-ESI-QTOF; MS2; CE: 20; R=; [M+H]+
Name: Arachidonoyl Ethanolamide
Name: Anandamide
Name: (5Z,8Z,11Z,14Z)-N-(2-hydroxyethyl)icosa-5,8,11,14-tetraenamide
Formula: C22H37NO2
Exact mass: 347.28243
SMILES: CCCCC/C=C\C/C=C\C/C=C\C/C=C\CCCC(=O)NCCO
InChI: InChI=1S/C22H37NO2/c1-2-3-4-5-6-7-8-9-10-11-12-13-14-15-16-17-18-19-22(25)23-20-21-24/h6-7,9-10,12-13,15-16,24H,2-5,8,11,14,17-21H2,1H3,(H,23,25)/b7-6-,10-9-,13-12-,16-15-
Instrument: maXis plus UHR-ToF-MS, Bruker Daltonics
Instrument type: LC-ESI-QTOF
Ms type: MS2
Ion mode: POSITIVE
Ionization: ESI
Fragmentation mode: CID
Collision energy: 20
Column name: BEH C18 1.7um, 2.1x100mm, Waters
Retention time: 6.390 min
Base peak: 88.0755
Precursor m/z: 348.2897
Precursor type: [M+H]+
m/z	relative intensity
57.0701	9
62.0597	999
63.0071	5
63.0673	9
67.0539	67
68.0579	7
69.0319	6
69.0701	55
70.0289	8
71.0479	5
71.0856	12
77.0228	3
79.0536	30
81.0698	68
82.0738	9
83.0862	18
84.0522	5
85.0649	4
85.102	15
85.1462	4
91.0543	24
92.0953	9
93.0695	34
95.086	34
97.0648	4
97.1018	6
105.0694	14
107.086	4
109.1011	18
109.1217	5
119.0857	7
120.0928	3
121.1008	18
127.016	4
130.0035	3
131.0842	6
136.226	6
143.0848	6
144.1008	3
145.1001	8
148.1208	4
149.0936	16
151.1112	4
157.1009	15
158.1058	4
159.1154	6
161.0958	13
163.1103	12
163.1481	15
164.1188	4
166.0276	10
170.2493	6
171.1168	37
172.1218	13
173.1339	5
174.1378	4
175.1103	18
175.1466	35
176.118	7
177.1287	9
177.1634	14
184.134	6
185.1324	31
186.1374	8
187.1484	6
189.1279	11
189.1641	24
189.2797	4
190.1299	5
191.1801	23
199.1097	3
199.1489	14
200.1518	16
203.1426	10
203.1786	145
204.1823	20
205.1573	8
210.1493	4
212.1631	8
213.1611	7
215.0008	3
217.1556	3
217.1938	5
222.1494	3
224.1642	4
225.1369	4
226.1803	6
227.0931	4
227.1784	7
232.0826	3
243.0044	5
243.1935	5
243.2116	19
244.2131	12
245.2261	84
246.2319	12
247.2184	3
259.2016	7
259.2438	19
269.187	5
269.2252	83
270.228	15
278.2089	5
284.1783	4
287.2359	85
288.0448	3
288.24	31
289.2465	9
308.102	3
330.2782	35
331.28	7
348.29	70
