Mass spectrum: D-Glucose-6-phosphate; LC-ESI-QTOF; MS2; CE: 10; R=; [M+H]+
Name: D-Glucose-6-phosphate
Name: Robison ester
Name: [(2R,3S,4S,5R)-3,4,5,6-tetrahydroxyoxan-2-yl]methyl dihydrogen phosphate
Formula: C6H13O9P
Exact mass: 260.0297
SMILES: O[C@H]1[C@H](O)[C@@H](COP(O)(O)=O)OC(O)[C@@H]1O
InChI: InChI=1S/C6H13O9P/c7-3-2(1-14-16(11,12)13)15-6(10)5(9)4(3)8/h2-10H,1H2,(H2,11,12,13)/t2-,3-,4+,5-,6?/m1/s1
Instrument: maXis plus UHR-ToF-MS, Bruker Daltonics
Instrument type: LC-ESI-QTOF
Ms type: MS2
Ion mode: POSITIVE
Ionization: ESI
Fragmentation mode: CID
Collision energy: 10
Column name: BEH C18 1.7um, 2.1x100mm, Waters
Retention time: 0.644 min
Base peak: 203.0525
Precursor m/z: 261.037
Precursor type: [M+H]+
m/z	relative intensity
85.0294	455
98.9847	407
109.0275	125
116.9941	120
119.9835	167
145.0465	224
155.9769	99
163.0621	491
187.9697	193
192.0589	125
197.9738	135
207.0043	334
222.0396	94
225.0153	130
243.0249	999
244.0331	183
