Mass spectrum: Dipropylphthalate; LC-ESI-QTOF; MS2; CE: 10; R=; [M+H]+
Name: Dipropylphthalate
Name: Dipropyl phthalate
Name: dipropyl benzene-1,2-dicarboxylate
Formula: C14H18O4
Exact mass: 250.12051
SMILES: CCCOC(=O)c1ccccc1C(=O)OCCC
InChI: InChI=1S/C14H18O4/c1-3-9-17-13(15)11-7-5-6-8-12(11)14(16)18-10-4-2/h5-8H,3-4,9-10H2,1-2H3
Instrument: maXis plus UHR-ToF-MS, Bruker Daltonics
Instrument type: LC-ESI-QTOF
Ms type: MS2
Ion mode: POSITIVE
Ionization: ESI
Fragmentation mode: CID
Collision energy: 10
Column name: BEH C18 1.7um, 2.1x100mm, Waters
Retention time: 5.535 min
Base peak: 149.0243
Precursor m/z: 251.1278
Precursor type: [M+H]+
m/z	relative intensity
149.0242	999
150.0268	128
151.0284	9
167.034	1
191.07	486
192.0735	60
193.0759	4
251.128	42
