Mass spectrum: Ortophosphate; LC-ESI-QTOF; MS2; CE: 10; R=; [M-H]-
Name: Ortophosphate
Name: phosphoric acid
Formula: H3O4P
Exact mass: 97.9769
SMILES: OP(=O)(O)O
InChI: InChI=1S/H3O4P/c1-5(2,3)4/h(H3,1,2,3,4)
Instrument: maXis plus UHR-ToF-MS, Bruker Daltonics
Instrument type: LC-ESI-QTOF
Ms type: MS2
Ion mode: NEGATIVE
Ionization: ESI
Fragmentation mode: CID
Collision energy: 10
Column name: BEH C18 1.7um, 2.1x100mm, Waters
Retention time: 0.656 min
Base peak: 78.9591
Precursor m/z: 96.9696
Precursor type: [M-H]-
m/z	relative intensity
78.9591	999
96.9702	126
