Mass spectrum: Kaempferol-3-glucoside; LC-ESI-QTOF; MS2; CE: 40; R=; [M+H]+
Name: Kaempferol-3-glucoside
Name: Astragalin
Name: 5,7-dihydroxy-2-(4-hydroxyphenyl)-3-[(2S,3R,4S,5S,6R)-3,4,5-trihydroxy-6-(hydroxymethyl)oxan-2-yl]oxychromen-4-one
Formula: C21H20O11
Exact mass: 448.1006
SMILES: OC[C@H]1O[C@@H](Oc2c(oc3cc(O)cc(O)c3c2=O)-c2ccc(O)cc2)[C@H](O)[C@@H](O)[C@@H]1O
InChI: InChI=1S/C21H20O11/c22-7-13-15(26)17(28)18(29)21(31-13)32-20-16(27)14-11(25)5-10(24)6-12(14)30-19(20)8-1-3-9(23)4-2-8/h1-6,13,15,17-18,21-26,28-29H,7H2/t13-,15-,17+,18-,21+/m1/s1
Instrument: maXis plus UHR-ToF-MS, Bruker Daltonics
Instrument type: LC-ESI-QTOF
Ms type: MS2
Ion mode: POSITIVE
Ionization: ESI
Fragmentation mode: CID
Collision energy: 40
Column name: BEH C18 1.7um, 2.1x100mm, Waters
Retention time: 3.168 min
Base peak: 449.1079
Precursor m/z: 449.1078
Precursor type: [M+H]+
m/z	relative intensity
55.0173	1
73.0277	4
81.0329	17
82.0366	1
83.0131	1
85.028	80
87.0439	3
91.0389	2
91.1112	1
95.1185	1
97.0283	13
109.0274	4
127.0399	2
129.9981	1
137.026	1
153.0173	3
165.018	3
166.0206	1
176.9778	1
185.0301	1
193.031	1
197.0833	1
203.0362	1
204.111	1
213.0559	1
237.9919	1
241.0495	1
245.0562	1
248.0994	1
258.0531	2
259.0604	1
261.0715	1
273.9894	1
274.0554	1
286.0617	1
287.0551	999
288.0586	169
289.0318	1
289.0606	17
