Mass spectrum: Luteolin; LC-ESI-QTOF; MS2; CE: 20; R=; [M+H]+
Name: Luteolin
Name: 2-(3,4-dihydroxyphenyl)-5,7-dihydroxychromen-4-one
Formula: C15H10O6
Exact mass: 286.0477
SMILES: c1cc(c(cc1c2cc(=O)c3c(cc(cc3o2)O)O)O)O
InChI: InChI=1S/C15H10O6/c16-8-4-11(19)15-12(20)6-13(21-14(15)5-8)7-1-2-9(17)10(18)3-7/h1-6,16-19H
Instrument: maXis plus UHR-ToF-MS, Bruker Daltonics
Instrument type: LC-ESI-QTOF
Ms type: MS2
Ion mode: POSITIVE
Ionization: ESI
Fragmentation mode: CID
Collision energy: 20
Column name: BEH C18 1.7um, 2.1x100mm, Waters
Retention time: 3.670 min
Base peak: 287.0545
Precursor m/z: 287.055
Precursor type: [M+H]+
m/z	relative intensity
153.0189	1
257.0445	5
286.047	2
287.0544	999
289.0605	16
