Mass spectrum: Palmitoyl-L-Carnitine; LC-ESI-QTOF; MS2; CE: 40; R=; [M+H]+
Name: Palmitoyl-L-Carnitine
Name: L-Palmitoylcarnitine
Name: (3R)-3-hexadecanoyloxy-4-(trimethylazaniumyl)butanoate
Formula: C23H45NO4
Exact mass: 399.3349
SMILES: CCCCCCCCCCCCCCCC(=O)O[C@H](CC(=O)[O-])C[N+](C)(C)C
InChI: InChI=1S/C23H45NO4/c1-5-6-7-8-9-10-11-12-13-14-15-16-17-18-23(27)28-21(19-22(25)26)20-24(2,3)4/h21H,5-20H2,1-4H3/t21-/m1/s1
Instrument: maXis plus UHR-ToF-MS, Bruker Daltonics
Instrument type: LC-ESI-QTOF
Ms type: MS2
Ion mode: POSITIVE
Ionization: ESI
Fragmentation mode: CID
Collision energy: 40
Column name: BEH C18 1.7um, 2.1x100mm, Waters
Retention time: 5.781 min
Base peak: 400.3428
Precursor m/z: 400.3421
Precursor type: [M+H]+
m/z	relative intensity
57.0326	6
71.0849	21
81.0693	6
83.0851	4
84.0804	2
85.0278	999
95.0852	5
97.1011	1
109.1006	1
144.1012	3
