Mass spectrum: L-Leucine; LC-ESI-QTOF; MS2; CE: 20; R=; [M+H]+
Name: L-Leucine
Name: (2S)-2-amino-4-methylpentanoic acid
Formula: C6H13NO2
Exact mass: 131.09463
SMILES: CC(C)C[C@@H](C(=O)O)N
InChI: InChI=1S/C6H13NO2/c1-4(2)3-5(7)6(8)9/h4-5H,3,7H2,1-2H3,(H,8,9)/t5-/m0/s1
Instrument: maXis plus UHR-ToF-MS, Bruker Daltonics
Instrument type: LC-ESI-QTOF
Ms type: MS2
Ion mode: POSITIVE
Ionization: ESI
Fragmentation mode: CID
Collision energy: 20
Column name: BEH C18 1.7um, 2.1x100mm, Waters
Retention time: 0.844 min
Base peak: 86.0959
Precursor m/z: 132.1019
Precursor type: [M+H]+
m/z	relative intensity
55.0545	1
69.0693	23
72.044	1
73.0266	3
73.063	3
86.0961	999
96.0081	1
97.0615	1
