Mass spectrum: osas#9; LC-ESI-QTOF; MS2; CE: 20; R=; [M+H]+
Name: osas#9
Formula: C23H33NO10
Exact mass: 483.2104
SMILES: CC(CCC(O)=O)O[C@@H]1OC(C)[C@@H](CC1O)OC(=O)CCC(=O)NC[C@H](O)C1=CC=C(O)C=C1
InChI: InChI=1S/C23H33NO10/c1-13(3-9-21(29)30)32-23-17(26)11-19(14(2)33-23)34-22(31)10-8-20(28)24-12-18(27)15-4-6-16(25)7-5-15/h4-7,13-14,17-19,23,25-27H,3,8-12H2,1-2H3,(H,24,28)(H,29,30)/t13?,14?,17?,18-,19+,23+/m0/s1
Instrument: maXis plus UHR-ToF-MS, Bruker Daltonics
Instrument type: LC-ESI-QTOF
Ms type: MS2
Ion mode: POSITIVE
Ionization: ESI
Fragmentation mode: CID
Collision energy: 20
Column name: BEH C18 1.7um, 2.1x100mm, Waters
Retention time: 3.105 min
Base peak: 88.0753
Precursor m/z: 484.2177
Precursor type: [M+H]+
m/z	relative intensity
79.0414	1
95.0444	1
95.999	1
98.0929	1
101.0593	2
102.0297	1
108.021	1
113.0586	1
114.1466	1
115.124	1
118.1596	1
119.238	1
132.0193	1
134.0477	1
136.0736	5
139.0253	2
139.1102	1
141.0784	1
143.1432	1
143.1498	1
144.2141	2
146.0456	1
148.0091	1
152	1
153.046	2
153.9631	1
153.9873	1
155.0678	2
158.1101	1
159.0066	1
159.202	1
162.0118	1
162.0457	1
162.9722	1
163.0824	1
164.0163	1
167.0734	1
168.1187	1
168.9628	1
170.0659	1
171.0787	1
173.0939	1
174.2203	1
176.1273	1
180.0629	1
180.1703	1
183.1379	1
184.0917	1
184.102	1
184.9957	3
188.0408	1
188.114	1
188.1482	1
190.087	2
190.123	4
193.0936	1
193.105	2
195.0422	2
196.0615	1
197.1461	1
200.0029	1
200.069	1
201.0189	1
201.0552	1
201.0924	1
201.1447	1
201.2406	1
203.0139	1
204.0252	1
205.0358	1
206.002	1
211.1351	1
213.074	1
213.0882	2
213.1732	1
213.9701	1
214.0218	1
215.0779	1
217.1143	1
218.0809	127
219.0139	1
219.0858	13
219.1039	1
219.1212	1
220.1543	1
222.2407	1
225.0886	1
226.0098	1
227.051	1
227.163	1
228.1474	1
230.1208	1
231.0224	1
231.0527	1
231.0745	1
231.1041	2
232.0175	1
234.1996	1
235.0439	1
236.0915	243
237.0277	2
237.0959	31
237.2102	1
238.0987	1
238.1161	1
238.1353	1
240.0492	1
242.1028	1
243.1156	1
248.1296	1
248.1769	1
249.0896	1
250.1063	6
250.1895	1
253.9928	2
254.0033	2
254.1005	4
255.9641	1
256.0979	1
261.0802	1
262.0639	1
263.216	1
266.0981	1
273.0597	1
273.2276	1
275.9718	1
276.0592	2
277.1272	1
283.987	3
285.0037	1
287.1058	1
289.1328	1
290.1391	25
291.1399	3
292.1959	1
292.2732	1
294.1119	1
298.1607	1
299.1568	1
300.158	1
300.9791	1
301.9796	1
303.1991	1
305.0046	1
307.0785	1
312.1247	2
317.0059	1
317.0397	1
317.1974	1
320.034	1
320.0781	1
320.1517	3
321.0926	1
325.251	1
327.0392	1
330.1348	8
331.1399	1
336.986	1
338.9573	1
339.2343	1
342.1502	1
344.0235	1
347.1982	1
347.2121	2
347.2413	1
348.144	999
349.1477	217
350.1179	2
350.1502	20
350.205	1
351.1278	1
351.1613	1
352.0125	1
353.1386	1
366.1548	43
367	1
367.1578	13
368.1656	2
378.0545	1
390.1864	1
456.1243	1
466.207	35
467.2134	12
468.2136	2
