Mass spectrum: N2_N2-Dimethylguanosine; LC-ESI-QTOF; MS2; CE: 20; R=; [M+H]+
Name: N2_N2-Dimethylguanosine
Name: N,N-Dimethylguanosine
Name: 9-[(2R,3R,4S,5R)-3,4-dihydroxy-5-(hydroxymethyl)oxolan-2-yl]-2-(dimethylamino)-3H-purin-6-one
Formula: C12H17N5O5
Exact mass: 311.1230
SMILES: CN(C)c1[nH]c(=O)c2c(n1)n(cn2)[C@H]3[C@@H]([C@@H]([C@H](O3)CO)O)O
InChI: InChI=1S/C12H17N5O5/c1-16(2)12-14-9-6(10(21)15-12)13-4-17(9)11-8(20)7(19)5(3-18)22-11/h4-5,7-8,11,18-20H,3H2,1-2H3,(H,14,15,21)/t5-,7-,8-,11-/m1/s1
Instrument: maXis plus UHR-ToF-MS, Bruker Daltonics
Instrument type: LC-ESI-QTOF
Ms type: MS2
Ion mode: POSITIVE
Ionization: ESI
Fragmentation mode: CID
Collision energy: 20
Column name: BEH C18 1.7um, 2.1x100mm, Waters
Retention time: 1.604 min
Base peak: 312.1302
Precursor m/z: 312.1302
Precursor type: [M+H]+
m/z	relative intensity
85.0288	1
91.9855	1
97.0848	1
104.9977	1
108.1376	1
114.1158	1
120.1109	1
122.1284	1
143.0765	1
146.995	1
153.0863	1
161.0196	1
165.0643	1
179.117	1
180.0875	999
181.0906	62
182.0913	2
312.1301	1
