Mass spectrum: 3-Methyladipic acid; LC-ESI-QTOF; MS2; CE: 40; R=; [M+H]+
Name: 3-Methyladipic acid
Name: 3-methylhexanedioic acid
Formula: C7H12O4
Exact mass: 160.0736
SMILES: CC(CCC(O)=O)CC(O)=O
InChI: InChI=1S/C7H12O4/c1-5(4-7(10)11)2-3-6(8)9/h5H,2-4H2,1H3,(H,8,9)(H,10,11)
Instrument: maXis plus UHR-ToF-MS, Bruker Daltonics
Instrument type: LC-ESI-QTOF
Ms type: MS2
Ion mode: POSITIVE
Ionization: ESI
Fragmentation mode: CID
Collision energy: 40
Column name: BEH C18 1.7um, 2.1x100mm, Waters
Retention time: 2.711 min
Base peak: 69.0688
Precursor m/z: 161.0808
Precursor type: [M+H]+
m/z	relative intensity
55.0177	999
59.0494	523
95.0485	243
97.0284	255
97.0642	889
