Mass spectrum: Genistein; LC-ESI-QTOF; MS2; CE: 40; R=; [M-H]-
Name: Genistein
Name: 5,7-dihydroxy-3-(4-hydroxyphenyl)chromen-4-one
Formula: C15H10O5
Exact mass: 270.0528
SMILES: Oc1ccc(cc1)C\3=C\Oc2cc(O)cc(O)c2C/3=O
InChI: InChI=1S/C15H10O5/c16-9-3-1-8(2-4-9)11-7-20-13-6-10(17)5-12(18)14(13)15(11)19/h1-7,16-18H
Instrument: maXis plus UHR-ToF-MS, Bruker Daltonics
Instrument type: LC-ESI-QTOF
Ms type: MS2
Ion mode: NEGATIVE
Ionization: ESI
Fragmentation mode: CID
Collision energy: 40
Column name: BEH C18 1.7um, 2.1x100mm, Waters
Retention time: 3.962 min
Base peak: 269.0455
Precursor m/z: 269.0455
Precursor type: [M-H]-
m/z	relative intensity
63.024	999
63.9956	3
65.0033	709
67.0187	7
68.9981	11
75.0239	3
77.0402	10
81.0348	1
83.0138	30
89.0036	17
89.0397	9
91.0189	121
93.0353	3
95.0134	1
95.0505	1
104.0269	2
105.0345	5
107.0143	79
108.0184	1
109.0301	1
119.0509	2
123.0097	1
123.046	7
130.0432	1
131.0494	1
132.022	9
133.0299	58
135.01	2
135.0454	13
136.0531	1
143.0513	1
148.0173	1
151.0045	4
154.0421	1
155.0508	11
156.0579	3
157.03	15
157.0664	2
158.0365	3
159.0453	42
160.0505	2
161.0242	2
167.0509	5
168.0585	1
169.0668	10
171.0462	6
173.0611	3
176.0145	2
179.0509	1
180.0591	36
181.0671	17
182.0376	12
183.0461	30
184.0521	3
185.0607	1
195.0454	9
196.0535	15
197.0614	10
198.0315	2
199.0411	11
200.051	1
201.0567	22
208.0533	1
211.0409	3
212.0479	3
213.0572	7
223.0413	19
224.0483	39
225.0555	13
226.0274	1
227.0359	6
239.035	10
240.0434	12
241.0517	5
267.0302	1
268.0401	1
269.0458	258
