Mass spectrum: 3-Ketocholanic Acid; LC-ESI-QTOF; MS2; CE: 40; R=; [M+H]+
Name: 3-Ketocholanic Acid
Name: AC1LBW7M
Name: 4-(10,13-dimethyl-3-oxo-1,2,4,5,6,7,8,9,11,12,14,15,16,17-tetradecahydrocyclopenta[a]phenanthren-17-yl)pentanoic acid
Formula: C24H38O3
Exact mass: 374.2821
SMILES: CC(CCC(=O)O)C1CCC2C1(CCC3C2CCC4C3(CCC(=O)C4)C)C
InChI: InChI=1S/C24H38O3/c1-15(4-9-22(26)27)19-7-8-20-18-6-5-16-14-17(25)10-12-23(16,2)21(18)11-13-24(19,20)3/h15-16,18-21H,4-14H2,1-3H3,(H,26,27)
Instrument: maXis plus UHR-ToF-MS, Bruker Daltonics
Instrument type: LC-ESI-QTOF
Ms type: MS2
Ion mode: POSITIVE
Ionization: ESI
Fragmentation mode: CID
Collision energy: 40
Column name: BEH C18 1.7um, 2.1x100mm, Waters
Retention time: 6.211 min
Base peak: 88.075
Precursor m/z: 375.2894
Precursor type: [M+H]+
m/z	relative intensity
55.0537	78
60.0802	21
67.0537	938
71.049	38
71.0851	20
77.038	32
79.0537	327
80.058	52
81.0696	999
83.0494	109
83.0851	131
85.0514	28
85.0643	166
91.0538	110
92.0586	32
93.0695	556
95.0854	624
97.1006	39
99.0444	62
101.0338	35
101.0601	37
106.0741	90
107.0854	313
109.0647	26
109.1009	208
115.075	26
117.066	17
119.0848	249
121.1006	91
133.101	89
135.1175	152
136.0184	27
136.1197	58
143.0843	33
145.1002	94
147.1171	298
148.1207	73
149.1314	231
151.1132	38
156.0948	21
156.102	27
157.1008	33
159.1163	185
160.1217	24
161.095	23
161.1322	477
162.0065	20
162.1371	40
163.1125	35
163.1476	58
169.1009	80
170.1064	33
171.1155	68
173.1318	99
175.1094	17
175.1484	172
177.0916	21
177.1275	111
178.0962	24
178.1323	18
179.1058	29
183.008	20
183.1159	64
185.1337	88
188.1516	22
189.0058	18
189.1228	32
189.162	26
191.1445	20
193.1202	19
195.1399	20
199.1438	17
201.1255	26
201.163	205
202.1661	20
203.141	20
204.1855	18
205.1583	39
210.1575	26
211.1464	64
213.1642	83
215.14	44
215.18	95
216.1833	37
220.1825	19
221.154	17
225.1627	47
227.1774	54
229.1914	24
239.1813	45
241.1954	35
241.2376	22
243.2097	45
257.2274	17
261.1818	23
265.1964	55
269.2141	18
269.2271	56
270.2333	22
275.2021	22
279.2123	36
289.2126	20
297.0773	23
297.2158	28
299.234	35
301.2225	31
316.2345	23
319.2449	23
321.2552	45
322.2599	28
338.0117	19
358.2853	46
