Mass spectrum: N6-Methyladenosine; LC-ESI-QTOF; MS2; CE: 40; R=; [M+H]+
Name: N6-Methyladenosine
Name: (2R,3S,4R,5R)-2-(hydroxymethyl)-5-[6-(methylamino)purin-9-yl]oxolane-3,4-diol
Formula: C11H15N5O4
Exact mass: 281.1124
SMILES: CNc1c2c(ncn1)n(cn2)[C@H]3[C@@H]([C@@H]([C@H](O3)CO)O)O
InChI: InChI=1S/C11H15N5O4/c1-12-9-6-10(14-3-13-9)16(4-15-6)11-8(19)7(18)5(2-17)20-11/h3-5,7-8,11,17-19H,2H2,1H3,(H,12,13,14)/t5-,7-,8-,11-/m1/s1
Instrument: maXis plus UHR-ToF-MS, Bruker Daltonics
Instrument type: LC-ESI-QTOF
Ms type: MS2
Ion mode: POSITIVE
Ionization: ESI
Fragmentation mode: CID
Collision energy: 40
Column name: BEH C18 1.7um, 2.1x100mm, Waters
Retention time: 1.023 min
Base peak: 282.1198
Precursor m/z: 282.1197
Precursor type: [M+H]+
m/z	relative intensity
54.0089	1
55.0164	5
57.0323	11
59.048	2
61.0269	5
64.1117	1
64.1246	1
68.9977	2
69.032	18
71.0116	20
71.0227	2
73.0275	13
74.0723	1
79.0285	2
81.1258	1
85.0276	11
87.0059	1
87.0417	1
88.051	1
92.0009	1
94.0394	75
96.0557	8
97.0275	5
97.0611	1
98.0317	2
99.0792	1
100.0231	1
105.0323	1
106.0403	3
108.0434	1
109.0373	1
109.0495	3
109.9997	1
112.0509	5
115.0356	1
118.1217	1
119.0368	2
119.0561	2
121.0508	4
122.0931	1
123.0666	6
124.0698	2
126.076	1
128.0215	1
129.0977	1
133.05	6
135.0536	5
142.0046	1
144.0845	1
145.1095	1
146.0053	1
146.1	1
146.9917	1
148.0017	1
148.0621	9
149.0301	1
150.0772	999
151.0803	57
153.0846	1
192.0869	1
