Mass spectrum: Uridine; LC-ESI-QTOF; MS2; CE: 20; R=; [M+H]+
Name: Uridine
Name: 1-[(2R,3R,4S,5R)-3,4-dihydroxy-5-(hydroxymethyl)oxolan-2-yl]pyrimidine-2,4-dione
Formula: C9H12N2O6
Exact mass: 244.0695
SMILES: c1cn(c(=O)nc1O)[C@H]2[C@@H]([C@@H]([C@H](O2)CO)O)O
InChI: InChI=1S/C9H12N2O6/c12-3-4-6(14)7(15)8(17-4)11-2-1-5(13)10-9(11)16/h1-2,4,6-8,12,14-15H,3H2,(H,10,13,16)/t4-,6-,7-,8-/m1/s1
Instrument: maXis plus UHR-ToF-MS, Bruker Daltonics
Instrument type: LC-ESI-QTOF
Ms type: MS2
Ion mode: POSITIVE
Ionization: ESI
Fragmentation mode: CID
Collision energy: 20
Column name: BEH C18 1.7um, 2.1x100mm, Waters
Retention time: 0.698 min
Base peak: 245.0766
Precursor m/z: 245.0768
Precursor type: [M+H]+
m/z	relative intensity
57.0325	37
59.049	9
61.0271	16
69.0323	34
70.0283	50
71.0122	16
73.0277	63
85.0279	32
87.0431	30
95.0242	7
96.0079	20
97.0287	20
103.0394	9
113.0344	999
114.0157	6
115.0388	26
122.0601	5
133.0522	13
166.0508	4
