Mass spectrum: Myristoyl Ethanolamide; LC-ESI-QTOF; MS2; CE: 10; R=; [M+H]+
Name: Myristoyl Ethanolamide
Name: N-(2-hydroxyethyl)tetradecanamide
Formula: C16H33NO2
Exact mass: 271.25113
SMILES: O=C(CCCCCCCCCCCCC)NCCO
InChI: InChI=1S/C16H33NO2/c1-2-3-4-5-6-7-8-9-10-11-12-13-16(19)17-14-15-18/h18H,2-15H2,1H3,(H,17,19)
Instrument: maXis plus UHR-ToF-MS, Bruker Daltonics
Instrument type: LC-ESI-QTOF
Ms type: MS2
Ion mode: POSITIVE
Ionization: ESI
Fragmentation mode: CID
Collision energy: 10
Column name: BEH C18 1.7um, 2.1x100mm, Waters
Retention time: 6.104 min
Base peak: 272.2577
Precursor m/z: 272.2584
Precursor type: [M+H]+
m/z	relative intensity
211.2047	2
254.2467	3
255.2314	31
272.2577	999
274.2638	15
