Mass spectrum: alpha-Linolenoyl Ethanolamide; LC-ESI-QTOF; MS2; CE: 10; R=; [M+H]+
Name: alpha-Linolenoyl Ethanolamide
Name: (9Z,12Z,15Z)-N-(2-hydroxyethyl)octadeca-9,12,15-trienamide
Formula: C20H35NO2
Exact mass: 321.26678
SMILES: OCCNC(=O)CCCCCCC/C=C\C/C=C\C/C=C\CC
InChI: InChI=1S/C20H35NO2/c1-2-3-4-5-6-7-8-9-10-11-12-13-14-15-16-17-20(23)21-18-19-22/h3-4,6-7,9-10,22H,2,5,8,11-19H2,1H3,(H,21,23)/b4-3-,7-6-,10-9-
Instrument: maXis plus UHR-ToF-MS, Bruker Daltonics
Instrument type: LC-ESI-QTOF
Ms type: MS2
Ion mode: POSITIVE
Ionization: ESI
Fragmentation mode: CID
Collision energy: 10
Column name: BEH C18 1.7um, 2.1x100mm, Waters
Retention time: 6.063 min
Base peak: 88.0751
Precursor m/z: 322.2741
Precursor type: [M+H]+
m/z	relative intensity
69.0698	1
81.0693	3
99.0808	1
109.1011	3
123.1174	1
145.1011	1
147.2186	1
149.132	1
158.1163	1
163.1472	1
164.1526	1
172.1323	5
175.1435	1
177.1636	5
184.1336	3
186.1488	10
190.2512	1
198.1481	2
200.1652	11
201.1654	2
210.1479	1
212.1653	3
214.1802	13
215.1893	1
219.9917	1
226.1797	4
227.1808	1
228.1952	6
229.2015	1
230.2029	1
233.2241	1
238.1785	4
240.1948	7
242.2117	3
243.211	17
244.2132	2
252.1955	4
252.21	1
254.21	1
256.2262	1
261.2214	31
262.224	6
263.0513	1
263.238	1
266.2113	4
267.2116	2
279.2335	2
280.2285	3
287.072	1
304.2636	18
305.2472	26
306.2512	4
312.1734	1
322.2742	999
324.2292	1
