Mass spectrum: L-Valine; LC-ESI-QTOF; MS2; CE: 20; R=; [M-H]-
Name: L-Valine
Name: (2S)-2-azaniumyl-3-methylbutanoate
Formula: C5H11NO2
Exact mass: 117.07898
SMILES: CC(C)[C@@H](C(=O)O)N
InChI: InChI=1S/C5H11NO2/c1-3(2)4(6)5(7)8/h3-4H,6H2,1-2H3,(H,7,8)/t4-/m0/s1
Instrument: maXis plus UHR-ToF-MS, Bruker Daltonics
Instrument type: LC-ESI-QTOF
Ms type: MS2
Ion mode: NEGATIVE
Ionization: ESI
Fragmentation mode: CID
Collision energy: 20
Column name: BEH C18 1.7um, 2.1x100mm, Waters
Retention time: 0.669 min
Base peak: 69.0041
Precursor m/z: 116.0717
Precursor type: [M-H]-
m/z	relative intensity
116.0712	999
