Mass spectrum: 3-oxo-C4-homoserine lactone; LC-ESI-QTOF; MS2; CE: 20; R=; [M+H]+
Name: 3-oxo-C4-homoserine lactone
Name: Butanamide, 3-oxo-N-(tetrahydro-2-oxo-3-furanyl)-
Name: 3-oxo-N-(2-oxooxolan-3-yl)butanamide
Formula: C8H11NO4
Exact mass: 185.06881
SMILES: CC(=O)CC(=O)NC1CCOC1=O
InChI: InChI=1S/C8H11NO4/c1-5(10)4-7(11)9-6-2-3-13-8(6)12/h6H,2-4H2,1H3,(H,9,11)
Instrument: maXis plus UHR-ToF-MS, Bruker Daltonics
Instrument type: LC-ESI-QTOF
Ms type: MS2
Ion mode: POSITIVE
Ionization: ESI
Fragmentation mode: CID
Collision energy: 20
Column name: BEH C18 1.7um, 2.1x100mm, Waters
Retention time: 0.967 min
Base peak: 186.0757
Precursor m/z: 186.0761
Precursor type: [M+H]+
m/z	relative intensity
74.0232	248
74.0596	999
84.0443	116
85.0277	398
87.0317	6
98.0595	25
102.0549	695
104.0588	7
128.0713	29
140.0705	27
149.0179	5
158.0813	19
168.0666	10
169.0012	9
192.0416	11
