Mass spectrum: L-Asparagine; LC-ESI-QTOF; MS2; CE: 10; R=; [M+H]+
Name: L-Asparagine
Name: (2S)-2,4-diamino-4-oxobutanoic acid
Formula: C4H8N2O3
Exact mass: 132.05349
SMILES: C([C@@H](C(=O)O)N)C(=N)O
InChI: InChI=1S/C4H8N2O3/c5-2(4(8)9)1-3(6)7/h2H,1,5H2,(H2,6,7)(H,8,9)/t2-/m0/s1
Instrument: maXis plus UHR-ToF-MS, Bruker Daltonics
Instrument type: LC-ESI-QTOF
Ms type: MS2
Ion mode: POSITIVE
Ionization: ESI
Fragmentation mode: CID
Collision energy: 10
Column name: BEH C18 1.7um, 2.1x100mm, Waters
Retention time: 0.576 min
Base peak: 87.0546
Precursor m/z: 133.0608
Precursor type: [M+H]+
m/z	relative intensity
60.0434	4
70.0283	28
70.0644	3
73.0397	4
74.0228	788
76.027	2
87.0546	999
88.0386	199
88.0514	10
96.0063	3
98.0225	11
99.0065	3
116.0334	48
133.06	176
