Mass spectrum: 3-hydroxy-C8-homoserine lactone; LC-ESI-QTOF; MS2; CE: 40; R=; [M+H]+
Name: 3-hydroxy-C8-homoserine lactone
Name: 3-hydroxy-N-(2-oxooxolan-3-yl)octanamide
Formula: C12H21NO4
Exact mass: 243.14706
SMILES: CCCCCC(O)CC(=O)NC1CCOC1=O
InChI: InChI=1S/C12H21NO4/c1-2-3-4-5-9(14)8-11(15)13-10-6-7-17-12(10)16/h9-10,14H,2-8H2,1H3,(H,13,15)
Instrument: maXis plus UHR-ToF-MS, Bruker Daltonics
Instrument type: LC-ESI-QTOF
Ms type: MS2
Ion mode: POSITIVE
Ionization: ESI
Fragmentation mode: CID
Collision energy: 40
Column name: BEH C18 1.7um, 2.1x100mm, Waters
Retention time: 3.575 min
Base peak: 244.1538
Precursor m/z: 244.1543
Precursor type: [M+H]+
m/z	relative intensity
54.0337	2
55.0168	109
57.0323	11
59.048	25
63.1615	3
69.0323	59
71.0488	4
71.0862	1
76.1087	2
76.9863	1
80.049	1
81.0691	426
82.0647	5
82.1207	1
83.0482	67
83.0847	372
84.0436	999
85.0278	190
87.0441	4
91.0537	63
94.0653	8
95.0482	12
95.0849	11
97.101	136
100.0391	8
101.0565	1
101.0939	8
102.0547	703
103.037	2
105.0698	15
107.0851	17
108.0815	1
110.022	4
110.0948	2
119.0608	4
125.0945	10
129.993	2
150.126	2
208.13	2
