Mass spectrum: C8-homoserine lactone; LC-ESI-QTOF; MS2; CE: 10; R=; [M+H]+
Name: C8-homoserine lactone
Name: N-Octanoyl-DL-homoserine lactone
Name: N-(2-oxooxolan-3-yl)octanamide
Formula: C12H21NO3
Exact mass: 227.15214
SMILES: CCCCCCCC(=O)NC1CCOC1=O
InChI: InChI=1S/C12H21NO3/c1-2-3-4-5-6-7-11(14)13-10-8-9-16-12(10)15/h10H,2-9H2,1H3,(H,13,14)
Instrument: maXis plus UHR-ToF-MS, Bruker Daltonics
Instrument type: LC-ESI-QTOF
Ms type: MS2
Ion mode: POSITIVE
Ionization: ESI
Fragmentation mode: CID
Collision energy: 10
Column name: BEH C18 1.7um, 2.1x100mm, Waters
Retention time: 4.396 min
Base peak: 228.159
Precursor m/z: 228.1594
Precursor type: [M+H]+
m/z	relative intensity
83.0851	3
84.0436	4
102.0547	999
109.101	27
127.1119	349
200.1644	83
210.1488	121
211.1521	11
228.1593	843
230.1644	6
