Mass spectrum: Biotin; LC-ESI-QTOF; MS2; CE: 20; R=; [M+H]+
Name: Biotin
Name: 5-[(3aS,4S,6aR)-2-oxo-1,3,3a,4,6,6a-hexahydrothieno[3,4-d]imidazol-4-yl]pentanoic acid
Formula: C10H16N2O3S
Exact mass: 244.08816
SMILES: O=C1N[C@@H]2[C@@H](SC[C@@H]2N1)CCCCC(=O)O
InChI: InChI=1S/C10H16N2O3S/c13-8(14)4-2-1-3-7-9-6(5-16-7)11-10(15)12-9/h6-7,9H,1-5H2,(H,13,14)(H2,11,12,15)/t6-,7-,9-/m0/s1
Instrument: maXis plus UHR-ToF-MS, Bruker Daltonics
Instrument type: LC-ESI-QTOF
Ms type: MS2
Ion mode: POSITIVE
Ionization: ESI
Fragmentation mode: CID
Collision energy: 20
Column name: BEH C18 1.7um, 2.1x100mm, Waters
Retention time: 2.811 min
Base peak: 245.095
Precursor m/z: 245.0954
Precursor type: [M+H]+
m/z	relative intensity
61.0158	1
76.9685	1
81.1274	1
97.0101	2
97.0392	12
100.0217	1
105.0453	1
105.0701	1
109.0625	1
111.0262	1
115.0569	1
123.0266	3
125.041	1
132.105	1
149.043	1
151.0868	1
165.9883	1
166.0685	12
167.0514	10
167.0683	1
168.0584	1
175.0843	1
182.0619	1
184.0786	11
185.0805	1
192.046	4
193.0999	1
194.0869	1
199.0897	18
200.0924	1
209.0744	25
210.057	1
211.0672	1
227.0844	999
228.0876	110
230.0851	3
245.0945	33
