Mass spectrum: Sinapinic acid; LC-ESI-QTOF; MS2; CE: 40; R=; [M-H]-
Name: Sinapic acid
Name: 3,5-dimethoxy-4-hydroxycinnamic acid
Name: 3-(4-hydroxy-3,5-dimethoxy-phenyl)prop-2-enoic acid
Formula: C11H12O5
Exact mass: 224.06847
SMILES: COC1=CC(=CC(=C1O)OC)/C=C/C(=O)O
InChI: InChI=1S/C11H12O5/c1-15-8-5-7(3-4-10(12)13)6-9(16-2)11(8)14/h3-6,14H,1-2H3,(H,12,13)/b4-3+
Instrument: maXis plus UHR-ToF-MS, Bruker Daltonics
Instrument type: LC-ESI-QTOF
Ms type: MS2
Ion mode: NEGATIVE
Ionization: ESI
Fragmentation mode: CID
Collision energy: 40
Column name: BEH C18 1.7um, 2.1x100mm, Waters
Retention time: 3.149 min
Base peak: 223.0617
Precursor m/z: 223.0612
Precursor type: [M-H]-
m/z	relative intensity
65.0033	55
67.0188	6
77.0393	16
79.0194	1
92.0272	1
93.0347	999
94.0384	26
105.035	2
107.0147	1
107.0492	1
121.03	100
122.0342	5
135.045	9
148.0175	8
149.0248	28
150.0282	2
163.0409	6
165.0198	26
193.0149	58
