Mass spectrum: Theobromine; LC-ESI-QTOF; MS2; CE: 20; R=; [M+H]+
Name: Theobromine
Name: 3,7-dimethylpurine-2,6-dione
Formula: C7H8N4O2
Exact mass: 180.0647
SMILES: CN1C=NC2=C1C(=O)NC(=O)N2C
InChI: InChI=1S/C7H8N4O2/c1-10-3-8-5-4(10)6(12)9-7(13)11(5)2/h3H,1-2H3,(H,9,12,13)
Instrument: maXis plus UHR-ToF-MS, Bruker Daltonics
Instrument type: LC-ESI-QTOF
Ms type: MS2
Ion mode: POSITIVE
Ionization: ESI
Fragmentation mode: CID
Collision energy: 20
Column name: BEH C18 1.7um, 2.1x100mm, Waters
Retention time: 1.550 min
Base peak: 181.0717
Precursor m/z: 181.072
Precursor type: [M+H]+
m/z	relative intensity
68.0341	1
72.0443	3
79.0294	2
82.0502	1
83.0244	3
83.0599	24
85.0389	2
86.0478	1
96.0552	5
108.0548	19
109.039	3
110.0709	65
111.0754	4
113.0345	5
113.9937	1
115.0509	1
120.0456	2
121.0464	3
122.0568	6
123.0414	2
125.079	1
129.0433	2
132.0024	1
135.0655	9
136.0703	2
137.0814	20
138.0655	129
139.0607	2
139.0695	5
156.0758	3
163.0614	61
164.0213	1
164.0641	6
166.0477	1
172.0691	2
174.0511	1
181.0716	999
183.0763	6
