Mass spectrum: Caffeic acid; LC-ESI-QTOF; MS2; CE: 40; R=; [M-H]-
Name: Caffeic acid
Name: (E)-3-(3,4-dihydroxyphenyl)prop-2-enoic acid
Formula: C9H8O4
Exact mass: 180.0423
SMILES: O=C(O)\C=C\c1cc(O)c(O)cc1
InChI: InChI=1S/C9H8O4/c10-7-3-1-6(5-8(7)11)2-4-9(12)13/h1-5,10-11H,(H,12,13)/b4-2+
Instrument: maXis plus UHR-ToF-MS, Bruker Daltonics
Instrument type: LC-ESI-QTOF
Ms type: MS2
Ion mode: NEGATIVE
Ionization: ESI
Fragmentation mode: CID
Collision energy: 40
Column name: BEH C18 1.7um, 2.1x100mm, Waters
Retention time: 2.696 min
Base peak: 179.0356
Precursor m/z: 179.035
Precursor type: [M-H]-
m/z	relative intensity
65.0031	85
65.0398	54
67.0191	15
77.0394	42
79.0194	28
79.0552	99
89.04	999
90.0432	53
91.0198	33
91.0557	59
93.0346	43
95.0505	22
106.0432	115
107.0502	81
108.0211	82
109.0298	40
120.021	8
133.0308	18
134.0377	411
135.0451	312
