Mass spectrum: Oleic acid; LC-ESI-QTOF; MS2; CE: 20; R=; [M-H]-
Name: Oleic acid
Name: (Z)-octadec-9-enoic acid
Formula: C18H34O2
Exact mass: 282.2559
SMILES: CCCCCCCC/C=C\CCCCCCCC(=O)O
InChI: InChI=1S/C18H34O2/c1-2-3-4-5-6-7-8-9-10-11-12-13-14-15-16-17-18(19)20/h9-10H,2-8,11-17H2,1H3,(H,19,20)/b10-9-
Instrument: maXis plus UHR-ToF-MS, Bruker Daltonics
Instrument type: LC-ESI-QTOF
Ms type: MS2
Ion mode: NEGATIVE
Ionization: ESI
Fragmentation mode: CID
Collision energy: 20
Column name: BEH C18 1.7um, 2.1x100mm, Waters
Retention time: 7.283 min
Base peak: 100.9339
Precursor m/z: 281.2486
Precursor type: [M-H]-
m/z	relative intensity
281.2488	999
