Mass spectrum: Glycochenodeoxycholate; LC-ESI-QTOF; MS2; CE: 10; R=; [M+H]+
Name: Glycochenodeoxycholate
Name: GLYCOCHENODEOXYCHOLIC ACID
Name: 2-[[(4R)-4-[(3R,5S,7R,8R,9S,10S,13R,14S,17R)-3,7-dihydroxy-10,13-dimethyl-2,3,4,5,6,7,8,9,11,12,14,15,16,17-tetradecahydro-1H-cyclopenta[a]phenanthren-17-yl]pentanoyl]amino]acetic acid
Formula: C26H43NO5
Exact mass: 449.3141
SMILES: C[C@H](CC/C(=N/CC(=O)O)/O)[C@H]1CC[C@@H]2[C@@]1(CC[C@H]3[C@H]2[C@@H](C[C@H]4[C@@]3(CC[C@H](C4)O)C)O)C
InChI: InChI=1S/C26H43NO5/c1-15(4-7-22(30)27-14-23(31)32)18-5-6-19-24-20(9-11-26(18,19)3)25(2)10-8-17(28)12-16(25)13-21(24)29/h15-21,24,28-29H,4-14H2,1-3H3,(H,27,30)(H,31,32)/t15-,16+,17-,18-,19+,20+,21-,24+,25+,26-/m1/s1
Instrument: maXis plus UHR-ToF-MS, Bruker Daltonics
Instrument type: LC-ESI-QTOF
Ms type: MS2
Ion mode: POSITIVE
Ionization: ESI
Fragmentation mode: CID
Collision energy: 10
Column name: BEH C18 1.7um, 2.1x100mm, Waters
Retention time: 4.724 min
Base peak: 450.3209
Precursor m/z: 450.3214
Precursor type: [M+H]+
m/z	relative intensity
330.3148	1
339.268	4
361.1084	1
401.0658	1
414.3003	548
414.3208	28
415.3039	131
416.3064	15
417.3121	1
431.3154	1
432.3108	999
433.3139	340
434.3179	38
435.3195	1
450.3213	775
452.3279	32
