Mass spectrum: Allocholic Acid; LC-ESI-QTOF; MS2; CE: 20; R=; [M+H]+
Name: Allocholic Acid
Name: (4R)-4-[(3R,5R,7R,8R,9S,10S,12S,13R,14S,17R)-3,7,12-trihydroxy-10,13-dimethyl-2,3,4,5,6,7,8,9,11,12,14,15,16,17-tetradecahydro-1H-cyclopenta[a]phenanthren-17-yl]pentanoic acid
Formula: C24H40O5
Exact mass: 408.2876
SMILES: C[C@H](CCC(=O)O)[C@H]1CC[C@@H]2[C@@]1([C@H](C[C@H]3[C@H]2[C@@H](C[C@@H]4[C@@]3(CC[C@H](C4)O)C)O)O)C
InChI: InChI=1S/C24H40O5/c1-13(4-7-21(28)29)16-5-6-17-22-18(12-20(27)24(16,17)3)23(2)9-8-15(25)10-14(23)11-19(22)26/h13-20,22,25-27H,4-12H2,1-3H3,(H,28,29)/t13-,14-,15-,16-,17+,18+,19-,20+,22+,23+,24-/m1/s1
Instrument: maXis plus UHR-ToF-MS, Bruker Daltonics
Instrument type: LC-ESI-QTOF
Ms type: MS2
Ion mode: POSITIVE
Ionization: ESI
Fragmentation mode: CID
Collision energy: 20
Column name: BEH C18 1.7um, 2.1x100mm, Waters
Retention time: 4.617 min
Base peak: 373.2734
Precursor m/z: 409.2949
Precursor type: [M+H]+
m/z	relative intensity
89.0351	7
91.0422	5
123.1157	3
125.2693	4
131.0482	5
136.0297	7
143.0826	3
146.1049	6
147.1167	7
152.9825	3
154.1299	4
159.1159	6
161.1312	18
163.039	6
169.1235	6
172.133	6
177.1275	4
182.0793	3
185.0262	4
185.1369	5
187.1499	3
190.2164	3
193.1241	9
195.1374	5
195.1636	3
197.2024	4
198.2094	3
201.0304	5
205.0858	3
209.1374	3
209.3191	3
210.0095	8
211.1459	4
213.1622	21
214.0714	3
214.2532	4
215.1425	4
217.1535	4
221.1541	4
223.1489	4
223.1688	10
225.161	4
227.1424	5
227.1771	6
229.1594	6
230.037	3
231.1742	17
232.1818	3
233.2248	9
234.1947	4
235.169	5
236.221	5
239.1809	3
241.1758	7
241.1912	4
243.0516	6
243.1766	5
245.1542	15
246.1579	5
247.1683	23
247.985	3
248.1727	6
248.2498	7
249.0914	4
249.1294	3
252.1954	5
252.2657	3
254.2017	4
255.2046	3
259.1686	7
259.1993	5
260.9805	3
261.0634	5
261.9883	6
262.1613	4
263.0439	4
263.1976	8
266.295	6
268.1631	4
270.0778	5
273.1908	7
277.276	3
279.19	7
279.229	8
281.1082	6
289.001	3
290.1512	5
295.2033	4
297.0793	3
299.0636	3
299.2006	8
300.1752	4
300.2104	4
305.1339	7
305.99	5
306.2266	3
307.2874	4
308.1254	6
315.1383	3
316.2089	3
317.0946	3
319.2434	9
325.1226	3
326.2068	4
326.2601	6
331.1315	4
334.2073	3
337.0716	6
337.2512	35
339.2675	10
340.2601	3
345.0394	3
345.1826	6
346.1054	4
347.0955	3
347.1639	4
352.0937	3
355.263	580
356.2271	8
356.265	134
357.2638	15
357.9864	3
358.2816	5
361.0573	4
361.0932	3
367.121	7
371.2533	4
372.2879	12
373.2735	999
374.2781	227
374.9924	6
375.277	17
376.0441	4
376.2727	7
376.2855	6
386.0083	3
391.2874	9
392.2328	7
402.2676	7
413.2667	3
