Mass spectrum: 3-hydroxy-C10-homoserine lactone; LC-ESI-QTOF; MS2; CE: 40; R=; [M-H]-
Name: 3-hydroxy-C10-homoserine lactone
Name: 3-hydroxy-N-(2-oxooxolan-3-yl)decanamide
Formula: C14H25NO4
Exact mass: 271.1784
SMILES: CCCCCCCC(O)CC(=O)NC1CCOC1=O
InChI: InChI=1S/C14H25NO4/c1-2-3-4-5-6-7-11(16)10-13(17)15-12-8-9-19-14(12)18/h11-12,16H,2-10H2,1H3,(H,15,17)
Instrument: maXis plus UHR-ToF-MS, Bruker Daltonics
Instrument type: LC-ESI-QTOF
Ms type: MS2
Ion mode: NEGATIVE
Ionization: ESI
Fragmentation mode: CID
Collision energy: 40
Column name: BEH C18 1.7um, 2.1x100mm, Waters
Retention time: 4.381 min
Base peak: 270.1711
Precursor m/z: 270.1711
Precursor type: [M-H]-
m/z	relative intensity
57.0346	88
58.0296	6
59.0134	4
68.0146	44
69.0348	126
70.0042	7
70.0293	16
71.0139	20
71.0503	7
81.0344	9
84.0457	999
85.05	26
97.0297	39
112.0407	234
113.0479	7
114.0204	5
142.0523	8
195.0696	4
