Mass spectrum: Lithocholenic Acid; LC-ESI-QTOF; MS2; CE: 40; R=; [M+H]+
Name: Lithocholenic Acid
Name: AC1N11MC
Name: 4-(3-hydroxy-10,13-dimethyl-2,3,4,5,6,7,8,9,14,15,16,17-dodecahydro-1H-cyclopenta[a]phenanthren-17-yl)pentanoic acid
Formula: C24H38O3
Exact mass: 374.2821
SMILES: CC(CCC(=O)O)C1CCC2C1(C=CC3C2CCC4C3(CCC(C4)O)C)C
InChI: InChI=1S/C24H38O3/c1-15(4-9-22(26)27)19-7-8-20-18-6-5-16-14-17(25)10-12-23(16,2)21(18)11-13-24(19,20)3/h11,13,15-21,25H,4-10,12,14H2,1-3H3,(H,26,27)
Instrument: maXis plus UHR-ToF-MS, Bruker Daltonics
Instrument type: LC-ESI-QTOF
Ms type: MS2
Ion mode: POSITIVE
Ionization: ESI
Fragmentation mode: CID
Collision energy: 40
Column name: BEH C18 1.7um, 2.1x100mm, Waters
Retention time: 5.860 min
Base peak: 88.0748
Precursor m/z: 375.2894
Precursor type: [M+H]+
m/z	relative intensity
52.0888	19
56.1775	32
59.0486	34
61.0883	23
65.0384	20
67.0295	27
71.0485	80
79.0538	326
80.0578	30
81.0693	999
83.049	56
83.0848	178
85.0643	88
85.0758	22
88.2404	23
91.0388	19
91.0539	244
93.0694	419
94.0736	17
95.085	622
97.0645	47
99.0223	20
105.0697	199
107.0585	24
107.0855	233
108.0882	28
109.0638	38
109.1009	168
110.1043	38
114.198	30
116.084	21
117.067	17
119.0857	50
121.101	219
123.0768	27
123.1177	23
133.1006	103
133.2731	19
134.104	53
135.117	169
135.2306	23
136.1196	26
138.1408	22
143.0848	22
145.1011	146
146.1055	32
147.1169	352
149.1324	161
151.9885	23
155.0326	15
155.0851	28
156.0089	29
156.0452	39
157.1021	47
159.1166	233
160.1245	24
161.1322	340
162.1357	30
163.1126	127
164.1506	26
169.0998	48
170.223	21
171.1158	36
173.1327	123
175.1105	44
175.1477	251
176.1154	24
176.1508	76
176.2351	17
177.1265	64
177.1623	28
178.1317	20
178.166	16
181.1221	59
183.0928	23
183.1169	18
185.1321	55
186.1377	76
187.1472	106
188.1505	17
189.1233	23
189.1644	93
191.1043	22
191.1417	47
195.1169	23
196.1229	22
197.1314	40
199.0244	37
199.0844	23
199.1476	41
201.1218	21
201.1622	124
201.277	24
202.1691	47
203.1798	65
207.1372	26
209.1507	28
211.148	36
213.1623	29
214.1665	67
215.1798	159
216.1875	30
217.158	18
217.1961	42
218.2018	26
219.1747	22
220.0635	17
221.1542	63
222.1488	19
225.1647	41
229.1934	32
233.149	49
235.1485	23
235.1693	29
238.19	27
241.192	40
243.1682	16
243.2103	71
245.2239	22
246.1852	27
247.1672	92
249.1717	17
249.185	18
250.191	17
257.1901	19
261.1858	42
263.2028	27
273.1812	29
275.1968	31
276.2048	19
279.2104	29
284.2462	17
287.203	34
295.2384	27
298.2591	17
313.2495	19
321.2512	17
339.2644	21
341.2407	33
355.9959	20
357.277	118
358.281	34
360.2646	26
