Mass spectrum: Benzoic acid; LC-ESI-QTOF; MS2; CE: 10; R=; [M-H]-
Name: Benzoic acid
Formula: C7H6O2
Exact mass: 122.0368
SMILES: OC(=O)c1ccccc1
InChI: InChI=1S/C7H6O2/c8-7(9)6-4-2-1-3-5-6/h1-5H,(H,8,9)
Instrument: maXis plus UHR-ToF-MS, Bruker Daltonics
Instrument type: LC-ESI-QTOF
Ms type: MS2
Ion mode: NEGATIVE
Ionization: ESI
Fragmentation mode: CID
Collision energy: 10
Column name: BEH C18 1.7um, 2.1x100mm, Waters
Retention time: 3.532 min
Base peak: 68.9893
Precursor m/z: 121.0295
Precursor type: [M-H]-
m/z	relative intensity
121.0304	999
