Mass spectrum: L-Threonine; LC-ESI-QTOF; MS2; CE: 20; R=; [M+H]+
Name: L-Threonine
Name: D-threonine
Name: (2R,3S)-2-azaniumyl-3-hydroxybutanoate
Formula: C4H9NO3
Exact mass: 119.05824
SMILES: C[C@@H]([C@H](C(=O)O)N)O
InChI: InChI=1S/C4H9NO3/c1-2(6)3(5)4(7)8/h2-3,6H,5H2,1H3,(H,7,8)/t2-,3+/m0/s1
Instrument: maXis plus UHR-ToF-MS, Bruker Daltonics
Instrument type: LC-ESI-QTOF
Ms type: MS2
Ion mode: POSITIVE
Ionization: ESI
Fragmentation mode: CID
Collision energy: 20
Column name: BEH C18 1.7um, 2.1x100mm, Waters
Retention time: 0.601 min
Base peak: 74.0593
Precursor m/z: 120.0655
Precursor type: [M+H]+
m/z	relative intensity
58.0284	1
74.0595	999
75.0446	2
76.039	2
76.0638	2
84.0443	32
85.0282	2
102.0541	20
