Mass spectrum: Catechin(+); LC-ESI-QTOF; MS2; CE: 10; R=; [M+H]+
Name: Catechin(+)
Name: (+)-catechin
Name: (2R,3S)-2-(3,4-dihydroxyphenyl)-3,4-dihydro-2H-chromene-3,5,7-triol
Formula: C15H14O6
Exact mass: 290.0790
SMILES: Oc1ccc(cc1O)[C@H]3Oc2cc(O)cc(O)c2C[C@@H]3O
InChI: InChI=1S/C15H14O6/c16-8-4-11(18)9-6-13(20)15(21-14(9)5-8)7-1-2-10(17)12(19)3-7/h1-5,13,15-20H,6H2/t13-,15+/m0/s1
Instrument: maXis plus UHR-ToF-MS, Bruker Daltonics
Instrument type: LC-ESI-QTOF
Ms type: MS2
Ion mode: POSITIVE
Ionization: ESI
Fragmentation mode: CID
Collision energy: 10
Column name: BEH C18 1.7um, 2.1x100mm, Waters
Retention time: 2.548 min
Base peak: 291.0866
Precursor m/z: 291.0863
Precursor type: [M+H]+
m/z	relative intensity
64.0183	1
68.9971	1
81.021	1
94.0251	1
97.0609	1
101.0103	2
103.0545	1
113.0315	1
116.0258	1
123.0436	30
124.0468	3
133.0405	1
135.0523	1
137.003	1
139.0384	66
139.9754	2
140.042	4
140.0913	1
147.0429	9
148.0055	1
148.0513	1
151.0389	11
152.0777	1
153.0536	4
154.0369	1
163.0381	5
163.0482	1
165.0542	95
166.058	8
168.0748	1
169.0491	5
175.9752	1
181.0251	1
181.0489	2
182.106	1
185.0975	1
188.0663	1
203.0216	1
203.0686	1
205.0524	1
207.0635	3
211.9972	1
224.981	1
228.0766	1
231.0624	1
237.0525	1
243.0654	1
243.9761	1
244.9846	1
245.0454	1
248.9902	1
249.0413	1
249.0773	3
250.0731	1
257.0191	1
259.0609	1
264.9875	1
272.9919	1
273.0761	29
274.0797	5
281.0681	1
289.0707	37
290.0759	5
291.0862	999
293.0914	12
