Mass spectrum: 3-oxo-C10-homoserine lactone; LC-ESI-QTOF; MS2; CE: 40; R=; [M-H]-
Name: 3-oxo-C10-homoserine lactone
Name: N-(3-Oxodecanoyl)-DL-homoserine lactone
Name: 3-oxo-N-(2-oxooxolan-3-yl)decanamide
Formula: C14H23NO4
Exact mass: 269.1627
SMILES: CCCCCCCC(=O)CC(=O)NC1CCOC1=O
InChI: InChI=1S/C14H23NO4/c1-2-3-4-5-6-7-11(16)10-13(17)15-12-8-9-19-14(12)18/h12H,2-10H2,1H3,(H,15,17)
Instrument: maXis plus UHR-ToF-MS, Bruker Daltonics
Instrument type: LC-ESI-QTOF
Ms type: MS2
Ion mode: NEGATIVE
Ionization: ESI
Fragmentation mode: CID
Collision energy: 40
Column name: BEH C18 1.7um, 2.1x100mm, Waters
Retention time: 4.591 min
Base peak: 268.1558
Precursor m/z: 268.1554
Precursor type: [M-H]-
m/z	relative intensity
52.0189	4
57.0346	999
67.0196	6
68.0143	7
68.0502	6
68.9982	67
69.0346	79
70.0059	10
70.0299	25
71.0139	5
71.0508	7
72.0089	42
72.0459	2
79.0193	3
80.0253	2
80.0501	2
81.0349	14
83.0126	2
84.0202	2
84.046	48
93.033	1
94.0306	15
96.0212	1
96.0452	3
97.0487	1
98.0012	15
98.0255	3
98.0691	1
106.0419	1
112.041	29
121.0545	1
123.0311	1
125.0962	4
126.0193	2
139.1117	3
141.1287	33
143.1082	14
150.0228	2
152.0341	1
167.1079	68
168.1118	2
190.0876	1
192.1405	2
195.1404	3
202.122	1
220.1348	29
221.1401	2
222.1151	5
223.1222	3
236.079	1
250.145	8
268.1552	3
