Mass spectrum: 3-hydroxy-C6-homoserine lactone; LC-ESI-QTOF; MS2; CE: 10; R=; [M+H]+
Name: 3-hydroxy-C6-homoserine lactone
Name: 3OH-C6-HSL RS/RS
Name: 3-hydroxy-N-(2-oxooxolan-3-yl)hexanamide
Formula: C10H17NO4
Exact mass: 215.11576
SMILES: CCCC(O)CC(=O)NC1CCOC1=O
InChI: InChI=1S/C10H17NO4/c1-2-3-7(12)6-9(13)11-8-4-5-15-10(8)14/h7-8,12H,2-6H2,1H3,(H,11,13)
Instrument: maXis plus UHR-ToF-MS, Bruker Daltonics
Instrument type: LC-ESI-QTOF
Ms type: MS2
Ion mode: POSITIVE
Ionization: ESI
Fragmentation mode: CID
Collision energy: 10
Column name: BEH C18 1.7um, 2.1x100mm, Waters
Retention time: 2.644 min
Base peak: 102.0545
Precursor m/z: 216.123
Precursor type: [M+H]+
m/z	relative intensity
73.0642	9
74.023	13
84.0439	8
85.0271	1
97.0645	36
98.0682	3
102.0545	999
104.0588	4
114.089	1
115.0751	4
170.1177	7
180.102	2
188.1293	2
198.1119	119
199.1153	9
216.1225	336
218.1258	1
