Mass spectrum: N6-Isopentenyladenosine; LC-ESI-QTOF; MS2; CE: 40; R=; [M+H]+
Name: N6-Isopentenyladenosine
Name: Riboprine
Name: (2R,3S,4R,5R)-2-(hydroxymethyl)-5-[6-(3-methylbut-2-enylamino)purin-9-yl]oxolane-3,4-diol
Formula: C15H21N5O4
Exact mass: 335.1594
SMILES: CC(=CCNc1c2c(ncn1)n(cn2)[C@H]3[C@@H]([C@@H]([C@H](O3)CO)O)O)C
InChI: InChI=1S/C15H21N5O4/c1-8(2)3-4-16-13-10-14(18-6-17-13)20(7-19-10)15-12(23)11(22)9(5-21)24-15/h3,6-7,9,11-12,15,21-23H,4-5H2,1-2H3,(H,16,17,18)/t9-,11-,12-,15-/m1/s1
Instrument: maXis plus UHR-ToF-MS, Bruker Daltonics
Instrument type: LC-ESI-QTOF
Ms type: MS2
Ion mode: POSITIVE
Ionization: ESI
Fragmentation mode: CID
Collision energy: 40
Column name: BEH C18 1.7um, 2.1x100mm, Waters
Retention time: 3.145 min
Base peak: 336.167
Precursor m/z: 336.1666
Precursor type: [M+H]+
m/z	relative intensity
55.0169	3
57.0325	15
59.0481	1
61.0274	6
71.012	21
73.0275	17
85.028	22
87.0433	2
94.0398	10
97.0277	5
103.0398	1
115.0392	1
119.0353	17
121.0512	4
136.0621	999
137.0649	54
138.0679	1
148.0616	573
149.0644	41
178.0721	1
204.1241	107
205.1277	10
