Mass spectrum: Linoleic acid; LC-ESI-QTOF; MS2; CE: 10; R=; [M+H]+
Name: Linoleic acid
Name: (9Z,12Z)-octadeca-9,12-dienoic acid
Formula: C18H32O2
Exact mass: 280.2402
SMILES: CCCCC/C=C\C/C=C\CCCCCCCC(=O)O
InChI: InChI=1S/C18H32O2/c1-2-3-4-5-6-7-8-9-10-11-12-13-14-15-16-17-18(19)20/h6-7,9-10H,2-5,8,11-17H2,1H3,(H,19,20)/b7-6-,10-9-
Instrument: maXis plus UHR-ToF-MS, Bruker Daltonics
Instrument type: LC-ESI-QTOF
Ms type: MS2
Ion mode: POSITIVE
Ionization: ESI
Fragmentation mode: CID
Collision energy: 10
Column name: BEH C18 1.7um, 2.1x100mm, Waters
Retention time: 6.958 min
Base peak: 88.0749
Precursor m/z: 281.2475
Precursor type: [M+H]+
m/z	relative intensity
56.1558	8
56.1765	10
64.0628	7
67.0862	5
83.0849	102
85.1006	6
89.2476	5
93.0289	4
94.016	7
95.0847	22
97.0654	8
97.1009	135
99.081	20
103.1702	8
109.1016	11
111.1171	49
117.1138	4
123.0306	7
123.0802	5
123.1161	9
124.1121	4
125.0961	5
125.1327	28
126.0785	4
127.0402	6
132.9914	4
139.1489	14
147.1159	11
149.0229	15
149.1324	15
151.1131	19
151.1474	8
153.102	7
153.1269	9
153.1633	11
155.106	12
157.1229	14
160.1238	8
161.0708	4
161.1332	19
162.1404	9
163.0557	6
163.0881	7
163.1477	31
165.0094	5
165.1629	14
167.1444	38
167.1795	4
168.0646	4
169.1219	22
169.1543	6
170.0932	8
171.1387	52
171.2112	4
175.1473	28
179.0239	4
179.1073	10
179.1787	23
181.1581	13
181.1705	5
182.0225	5
183.1371	34
183.1745	5
185.1553	28
185.1763	5
187.1079	5
188.0476	4
189.1639	19
190.0285	4
193.1592	45
194.0827	4
194.1611	5
195.1618	5
197.1542	49
199.1679	30
200.1752	4
203.1798	8
205.0847	22
205.1702	4
207.1732	34
208.179	5
211.1673	41
213.1584	5
214.1223	4
217.2526	4
218.2127	6
219.2077	7
221.0926	4
221.2252	27
225.1844	47
227.2003	5
228.1601	6
229.2653	10
230.1418	7
232.1793	6
236.1067	4
237.2088	5
239.2018	8
240.0538	5
242.13	5
243.0891	6
243.1933	5
245.2264	298
246.0076	4
246.022	11
246.2295	42
247.2262	8
247.2392	28
256.0619	6
256.2389	8
260.0446	4
263.237	999
264.2402	124
277.2018	4
277.2466	12
278.1631	6
279.2322	41
280.1328	7
281.2473	609
283.2482	12
