Mass spectrum: Dioctylphthalate; LC-ESI-QTOF; MS2; CE: 40; R=; [M+H]+
Name: Dioctylphthalate
Name: Dioctyl phthalate
Name: dioctyl benzene-1,2-dicarboxylate
Formula: C24H38O4
Exact mass: 390.27701
SMILES: CCCCCCCCOC(=O)c1ccccc1C(=O)OCCCCCCCC
InChI: InChI=1S/C24H38O4/c1-3-5-7-9-11-15-19-27-23(25)21-17-13-14-18-22(21)24(26)28-20-16-12-10-8-6-4-2/h13-14,17-18H,3-12,15-16,19-20H2,1-2H3
Instrument: maXis plus UHR-ToF-MS, Bruker Daltonics
Instrument type: LC-ESI-QTOF
Ms type: MS2
Ion mode: POSITIVE
Ionization: ESI
Fragmentation mode: CID
Collision energy: 40
Column name: BEH C18 1.7um, 2.1x100mm, Waters
Retention time: 7.638 min
Base peak: 391.2846
Precursor m/z: 391.2843
Precursor type: [M+H]+
m/z	relative intensity
58.005	5
71.0851	170
80.0584	9
84.2664	5
93.0337	9
99.0806	6
107.1639	5
116.0828	7
118.1108	5
121.0254	5
149.0229	999
150.0263	71
151.0274	8
167.0332	18
167.09	7
191.069	10
209.079	13
