Mass spectrum: 2-Hydroxyphenanzine-1-Carboxylic acid; LC-ESI-QTOF; MS2; CE: 20; R=; [M+H]+
Name: 2-Hydroxyphenanzine-1-Carboxylic acid
Name: 2-Hydroxyphenazine-1-carboxylic acid
Name: 2-oxo-10H-phenazine-1-carboxylic acid
Formula: C13H8N2O3
Exact mass: 240.05349
SMILES: C1=CC=C2C(=C1)NC3=C(C(=O)C=CC3=N2)C(=O)O
InChI: InChI=1S/C13H8N2O3/c16-10-6-5-9-12(11(10)13(17)18)15-8-4-2-1-3-7(8)14-9/h1-6,15H,(H,17,18)
Instrument: maXis plus UHR-ToF-MS, Bruker Daltonics
Instrument type: LC-ESI-QTOF
Ms type: MS2
Ion mode: POSITIVE
Ionization: ESI
Fragmentation mode: CID
Collision energy: 20
Column name: BEH C18 1.7um, 2.1x100mm, Waters
Retention time: 4.236 min
Base peak: 79.0203
Precursor m/z: 241.0608
Precursor type: [M+H]+
m/z	relative intensity
57.0545	1
88.0517	1
93.0173	1
99.044	1
99.0679	1
100.0152	1
115.0622	1
122.0424	1
123.052	1
127.0163	1
137.0119	1
139.0156	1
141.0767	1
144.0088	1
149.0679	1
152.0468	1
152.9924	1
156.0565	1
161.0823	1
167.0594	11
168.0389	1
169.025	1
179.0603	25
180.0633	3
191.0444	1
193.0274	1
195.0554	6
200.0309	1
201.0629	1
213.0022	1
217.0164	1
219.989	1
223.0501	999
224.0533	123
232.0332	1
241.061	649
243.0655	9
