Mass spectrum: L-Tryptophan; LC-ESI-QTOF; MS2; CE: 10; R=; [M+H]+
Name: L-Tryptophan
Name: (2S)-2-amino-3-(1H-indol-3-yl)propanoic acid
Formula: C11H12N2O2
Exact mass: 204.08988
SMILES: c1ccc2c(c1)c(c[nH]2)C[C@@H](C(=O)O)N
InChI: InChI=1S/C11H12N2O2/c12-9(11(14)15)5-7-6-13-10-4-2-1-3-8(7)10/h1-4,6,9,13H,5,12H2,(H,14,15)/t9-/m0/s1
Instrument: maXis plus UHR-ToF-MS, Bruker Daltonics
Instrument type: LC-ESI-QTOF
Ms type: MS2
Ion mode: POSITIVE
Ionization: ESI
Fragmentation mode: CID
Collision energy: 10
Column name: BEH C18 1.7um, 2.1x100mm, Waters
Retention time: 2.369 min
Base peak: 188.07
Precursor m/z: 205.0972
Precursor type: [M+H]+
m/z	relative intensity
74.0233	1
132.0807	1
144.0805	4
146.0598	40
147.0635	2
159.0909	15
170.0597	4
188.0699	999
205.0965	153
