Mass spectrum: Retinoic acid; LC-ESI-QTOF; MS2; CE: 40; R=; [M+H]+
Name: Retinoic acid
Name: (2E,4E,6E,8E)-3,7-dimethyl-9-(2,6,6-trimethylcyclohexen-1-yl)nona-2,4,6,8-tetraenoic acid
Formula: C20H28O2
Exact mass: 300.2089
SMILES: CC1=C(C(CCC1)(C)C)/C=C/C(=C/C=C/C(=C/C(=O)O)/C)/C
InChI: InChI=1S/C20H28O2/c1-15(8-6-9-16(2)14-19(21)22)11-12-18-17(3)10-7-13-20(18,4)5/h6,8-9,11-12,14H,7,10,13H2,1-5H3,(H,21,22)/b9-6+,12-11+,15-8+,16-14+
Instrument: maXis plus UHR-ToF-MS, Bruker Daltonics
Instrument type: LC-ESI-QTOF
Ms type: MS2
Ion mode: POSITIVE
Ionization: ESI
Fragmentation mode: CID
Collision energy: 40
Column name: BEH C18 1.7um, 2.1x100mm, Waters
Retention time: 6.910 min
Base peak: 88.0748
Precursor m/z: 301.2162
Precursor type: [M+H]+
m/z	relative intensity
63.0108	1
77.0381	25
78.0429	1
79.0536	193
80.0583	6
81.0692	999
83.0484	6
85.0643	13
87.0433	1
91.0537	129
92.0577	12
93.0695	92
95.0485	15
95.0853	155
96.08	1
96.0889	6
97.0639	8
97.1017	1
99.0804	2
100.0886	1
103.0537	8
105.0696	128
107.0853	44
109.0642	7
109.1009	11
111.0801	6
111.1172	1
112.1004	1
115.0142	1
115.0535	4
116.0576	2
117.0698	16
118.0771	1
119.0594	1
119.0857	29
120.0901	4
121.0653	9
121.1008	19
121.1333	1
122.0684	4
123.1164	92
124.1198	5
129.0693	9
130.0781	4
131.0848	14
133.1008	18
134.1037	3
135.2113	1
141.0698	8
142.0767	9
143.0847	18
144.0932	11
145.0651	6
145.1007	27
146.0721	10
146.1082	5
147.1154	4
148.9969	1
151.0051	1
152.0625	5
153.0691	4
155.0853	13
156.0921	17
157.0633	4
157.1002	37
158.0721	8
158.1082	11
159.0791	8
159.1162	59
160.1199	9
161.0959	35
161.1311	11
162.0988	3
163.0763	2
165.0694	3
166.0771	3
168.0926	5
169.0624	3
169.1005	21
170.0723	2
170.108	16
171.0791	8
171.1162	24
172.0877	11
172.122	3
173.095	4
173.1324	16
174.0999	2
174.1368	4
175.1485	3
177.0924	1
180.0876	2
181.0641	1
181.0996	6
182.0717	1
182.108	4
183.0803	3
183.1159	13
184.0901	6
184.1244	5
185.0944	16
185.1317	13
186.1029	2
186.1355	4
187.1112	3
187.1478	17
188.1166	1
188.1517	2
189.1242	1
193.0972	2
194.1076	1
195.082	1
195.1178	4
196.0893	2
196.1213	1
197.0959	2
197.1323	6
198.1049	2
198.1393	5
199.1091	2
199.147	7
201.0899	1
201.1229	1
201.1635	4
202.1709	1
207.1152	3
208.0848	1
209.0963	1
209.1315	1
210.1023	2
210.1377	1
211.1106	2
211.1485	4
212.1194	1
212.1539	1
213.1258	3
213.1648	1
215.1067	1
223.1088	1
225.1611	3
226.1698	1
227.0688	1
227.0859	1
229.1215	1
241.197	1
253.1606	1
256.1439	1
271.1708	3
