Mass spectrum: ?-Tauromuricholic acid; LC-ESI-QTOF; MS2; CE: 40; R=; [M+H]+
Name: ?-Tauromuricholic acid
Name: 2-[4-(3,6,7-trihydroxy-10,13-dimethyl-2,3,4,5,6,7,8,9,11,12,14,15,16,17-tetradecahydro-1H-cyclopenta[a]phenanthren-17-yl)pentanoylamino]ethanesulfonic acid
Formula: C26H45NO7S
Exact mass: 515.2917
SMILES: CC(CCC(=O)NCCS(=O)(=O)O)C1CCC2C1(CCC3C2C(C(C4C3(CCC(C4)O)C)O)O)C
InChI: InChI=1S/C26H45NO7S/c1-15(4-7-21(29)27-12-13-35(32,33)34)17-5-6-18-22-19(9-11-25(17,18)2)26(3)10-8-16(28)14-20(26)23(30)24(22)31/h15-20,22-24,28,30-31H,4-14H2,1-3H3,(H,27,29)(H,32,33,34)
Instrument: maXis plus UHR-ToF-MS, Bruker Daltonics
Instrument type: LC-ESI-QTOF
Ms type: MS2
Ion mode: POSITIVE
Ionization: ESI
Fragmentation mode: CID
Collision energy: 40
Column name: BEH C18 1.7um, 2.1x100mm, Waters
Retention time: 3.727 min
Base peak: 88.0752
Precursor m/z: 516.299
Precursor type: [M+H]+
m/z	relative intensity
60.0445	11
70.2524	13
77.1234	7
81.0696	77
82.0626	21
82.1445	8
82.3108	14
83.0855	16
85.0645	84
91.0595	10
95.0853	58
96.105	10
99.045	7
99.0789	16
99.2113	10
105.0689	41
108.0103	45
108.3024	12
109.0363	9
109.0642	7
110.1051	18
113.2836	9
116.1845	8
117.2116	17
119.0866	12
119.1816	10
119.1889	10
120.1712	7
120.2129	7
121.2531	8
123.118	13
124.0973	8
125.269	7
125.3231	8
126.0211	518
127.0157	12
127.1974	12
128.0182	26
128.2911	7
129.2488	7
129.2875	12
131.1437	12
131.228	12
133.0771	7
133.0907	9
133.3111	14
134.0143	8
134.0731	12
135.1164	20
135.1736	9
135.9584	14
139.0416	8
139.1134	7
140.2941	7
140.9596	9
142.007	12
143.0435	13
143.0837	18
143.1462	8
144.306	13
145.0552	11
145.1002	37
146.0007	7
146.1004	9
147.1057	8
147.1175	60
147.1501	16
147.2695	7
147.3115	7
148.1203	15
148.3574	10
149.1321	33
149.2331	10
150.2107	10
150.2343	10
150.2981	7
151.0109	8
151.3049	19
153.1858	8
154.0367	11
154.0703	12
154.1315	7
154.1436	7
155.2448	18
156.9971	19
157.1011	55
157.2469	8
157.3313	7
158.1018	11
158.1982	9
159.1162	309
160.0662	9
160.1188	22
160.1525	16
160.3179	7
161.0941	9
161.1326	170
161.341	10
162.1361	46
162.1514	7
163.1101	60
163.1501	18
163.2047	12
163.3447	9
164.0385	14
164.1144	9
164.3081	16
165.1272	9
165.1825	7
169.1009	18
170.1043	7
171.1168	39
171.1653	11
171.2815	10
172.1571	7
173.1323	115
173.2034	22
174.1358	25
174.2191	7
174.2674	11
175.1117	46
175.1474	89
176.1153	9
177.0952	7
177.125	37
177.1663	13
177.9786	7
180.0382	13
181.9389	9
182.2326	10
182.9707	17
183.1187	32
183.1576	7
184.0849	15
185.0677	8
185.0967	23
185.132	157
186.0936	7
186.1349	23
186.2095	7
186.3047	12
187.149	57
188.1227	8
188.1513	23
189.1053	7
189.1276	54
189.1631	20
189.173	9
190.163	8
191.1444	50
193.1258	8
194.2556	7
195.1056	8
195.1843	7
197.0956	7
197.133	30
199.147	207
200.119	8
200.1514	42
201.1268	14
201.1634	25
202.0742	10
203.0167	8
203.1461	33
204.182	17
204.2072	7
205.1195	8
205.1626	17
206.0512	10
206.1313	7
207.1309	8
208.0627	214
208.9709	14
209.0685	33
209.1327	87
209.1512	11
209.9354	18
210.1336	26
211.1158	9
211.1482	101
212.151	13
212.3296	14
213.0489	12
213.0651	7
213.1279	52
213.1626	129
213.2632	18
213.3343	19
214.0784	10
214.1708	18
215.0675	9
215.1444	44
215.1778	34
215.3074	7
216.0377	9
216.1824	25
217.1585	52
218.051	8
218.0861	9
218.1745	9
218.2369	9
219.0809	9
220.0638	7
221.132	14
222.0819	7
222.1416	7
223.1494	48
223.2678	7
224.1589	12
225.1658	30
225.1797	8
225.2845	8
226.1653	17
227.0855	7
227.1077	7
227.1418	130
227.179	71
228.1314	15
228.1463	21
228.1847	31
229.1545	16
229.1694	12
229.1934	9
230.1632	19
230.1921	10
231.063	7
231.1717	11
231.2264	7
233.1887	9
234.0768	12
234.1912	8
235.1541	8
236.2802	16
236.9839	7
237.1632	48
238.1617	13
239.05	7
239.1362	14
239.179	28
240.0981	12
240.1802	18
241.1012	15
241.1601	64
241.1942	33
242.1612	14
242.1743	10
242.1992	10
243.0189	7
243.1746	17
243.3177	7
244.1778	7
245.1909	10
246.0768	13
246.1194	11
248.0438	11
248.2967	8
249.1159	14
249.1631	16
250.975	17
251.1793	20
251.953	7
252.1884	36
253.0067	17
253.1588	10
253.1952	60
254.0346	11
254.0411	11
254.2026	19
255.1042	9
255.1783	26
255.2039	10
255.9325	8
256.1282	7
256.1789	8
257.194	11
260.0944	10
261.9621	9
262.0174	8
262.1128	22
263.18	20
263.1944	7
263.9805	8
263.9928	7
264.1825	19
264.2714	9
265.1966	10
265.3054	7
266.2738	12
267.0868	7
267.1716	13
267.2137	10
269.0833	7
269.1926	65
270.1816	7
270.1997	12
271.2077	9
272.9671	14
274.1109	19
277.1926	13
278.1406	9
279.2154	9
280.2186	9
281.0848	22
281.1891	9
282.2421	7
284.9722	7
285.2419	8
286.105	9
288.1135	7
288.1256	47
289.1393	7
289.2584	13
290.3439	9
291.0626	7
291.2074	19
292.1198	25
292.2082	8
293.2261	22
295.144	8
295.2063	19
295.2417	51
295.9759	9
296.2442	9
296.311	10
298.105	8
299.9675	15
300.126	29
302.1391	25
303.1467	14
304.2462	14
305.1635	10
305.1756	9
306.151	8
307.2409	12
308.2491	8
308.271	12
309.2177	8
309.2312	10
309.259	126
309.3012	9
311.2663	8
313.2561	12
314.1406	38
315.1479	23
316.1576	13
318.1598	11
318.2523	9
318.277	11
319.2424	457
320.2439	84
320.944	9
321.2521	24
324.0648	12
325.1012	8
325.2499	17
326.1385	16
326.242	8
326.2576	21
327.2392	7
327.2674	35
328.161	12
331.9417	14
333.9395	9
337.2529	999
338.2542	271
339.0621	8
339.2575	17
339.3309	10
340.1551	26
342.1753	8
342.941	13
343.2083	8
351.2579	9
351.2925	8
354.1736	23
354.3516	14
355.2631	898
356.111	11
356.2071	11
356.2661	212
357.1974	7
357.2725	25
363.1217	9
366.1743	14
368.1946	18
369.1245	7
370.1845	7
373.2716	21
374.2709	11
379.3164	12
380.1948	16
382.2044	16
383.2047	9
389.9476	8
396.113	9
396.2239	12
410.9897	9
421.2255	10
435.2395	10
450.27	12
450.3046	7
451.2698	18
452.2878	7
460.2108	9
461.1366	10
462.2689	262
463.2695	69
463.3138	8
464.2606	27
480.0747	7
480.2794	60
481.2773	33
482.2799	24
559.2909	12
