Mass spectrum: 3-hydroxy-C14 homoserine lactone; LC-ESI-QTOF; MS2; CE: 40; R=; [M+H]+
Name: 3-hydroxy-C14 homoserine lactone
Name: N-(3-Hydroxytetradecanoyl)-DL-homoserine lactone
Name: 3-hydroxy-N-(2-oxooxolan-3-yl)tetradecanamide
Formula: C18H33NO4
Exact mass: 327.24096
SMILES: CCCCCCCCCCCC(O)CC(=O)NC1CCOC1=O
InChI: InChI=1S/C18H33NO4/c1-2-3-4-5-6-7-8-9-10-11-15(20)14-17(21)19-16-12-13-23-18(16)22/h15-16,20H,2-14H2,1H3,(H,19,21)
Instrument: maXis plus UHR-ToF-MS, Bruker Daltonics
Instrument type: LC-ESI-QTOF
Ms type: MS2
Ion mode: POSITIVE
Ionization: ESI
Fragmentation mode: CID
Collision energy: 40
Column name: BEH C18 1.7um, 2.1x100mm, Waters
Retention time: 5.731 min
Base peak: 328.2477
Precursor m/z: 328.2482
Precursor type: [M+H]+
m/z	relative intensity
57.0323	10
57.0694	58
70.026	4
75.0195	5
76.0262	8
79.0538	221
80.0376	4
81.0698	126
83.0484	35
83.0847	327
84.0438	482
85.0072	3
85.0277	66
85.0635	7
85.1015	16
91.0546	22
93.0697	93
94.0735	15
95.0849	94
96.0884	7
97.065	67
97.1012	113
100.0398	11
102.0545	999
103.2048	3
104.0573	6
104.0623	8
111.0799	6
111.1167	4
112.04	3
121.1004	12
127.1112	5
185.1336	4
199.1638	3
209.1857	6
