Mass spectrum: Pantothenic acid; LC-ESI-QTOF; MS2; CE: 20; R=; [M+H]+
Name: Pantothenic acid
Name: D-pantothenic acid
Name: 3-[(2,4-dihydroxy-3,3-dimethylbutanoyl)amino]propanoic acid
Formula: C9H17NO5
Exact mass: 219.1107
SMILES: CC(C)(CO)C(O)C(=O)NCCC(O)=O
InChI: InChI=1S/C9H17NO5/c1-9(2,5-11)7(14)8(15)10-4-3-6(12)13/h7,11,14H,3-5H2,1-2H3,(H,10,15)(H,12,13)
Instrument: maXis plus UHR-ToF-MS, Bruker Daltonics
Instrument type: LC-ESI-QTOF
Ms type: MS2
Ion mode: POSITIVE
Ionization: ESI
Fragmentation mode: CID
Collision energy: 20
Column name: BEH C18 1.7um, 2.1x100mm, Waters
Retention time: 1.630 min
Base peak: 220.1181
Precursor m/z: 220.1179
Precursor type: [M+H]+
m/z	relative intensity
55.0174	5
55.0541	3
57.0694	17
59.0489	48
61.0281	3
67.0391	2
72.0439	268
73.0279	54
73.0655	3
83.0484	13
85.0644	142
86.0932	3
87.0801	17
90.0546	999
95.0494	32
96.08	7
97.0504	2
98.0237	83
99.0282	2
100.0393	23
103.075	45
113.0191	3
113.0588	7
115.0971	2
116.0338	42
119.1154	2
124.0746	34
125.0801	3
126.0784	2
135.0527	6
142.0853	29
149.1054	2
150.0181	2
154.0845	3
156.1021	12
156.1509	2
157.0827	3
160.0967	37
161.0998	3
164.055	3
166.025	2
166.0855	25
174.1128	16
182.0455	3
184.0963	242
185.102	28
186.1001	2
202.107	331
203.0771	2
203.1103	22
204.088	2
220.1176	140
