Mass spectrum: Kaempferol-3-glucoside; LC-ESI-QTOF; MS2; CE: 20; R=; [M+H]+
Name: Kaempferol-3-glucoside
Name: Astragalin
Name: 5,7-dihydroxy-2-(4-hydroxyphenyl)-3-[(2S,3R,4S,5S,6R)-3,4,5-trihydroxy-6-(hydroxymethyl)oxan-2-yl]oxychromen-4-one
Formula: C21H20O11
Exact mass: 448.1006
SMILES: OC[C@H]1O[C@@H](Oc2c(oc3cc(O)cc(O)c3c2=O)-c2ccc(O)cc2)[C@H](O)[C@@H](O)[C@@H]1O
InChI: InChI=1S/C21H20O11/c22-7-13-15(26)17(28)18(29)21(31-13)32-20-16(27)14-11(25)5-10(24)6-12(14)30-19(20)8-1-3-9(23)4-2-8/h1-6,13,15,17-18,21-26,28-29H,7H2/t13-,15-,17+,18-,21+/m1/s1
Instrument: maXis plus UHR-ToF-MS, Bruker Daltonics
Instrument type: LC-ESI-QTOF
Ms type: MS2
Ion mode: POSITIVE
Ionization: ESI
Fragmentation mode: CID
Collision energy: 20
Column name: BEH C18 1.7um, 2.1x100mm, Waters
Retention time: 3.168 min
Base peak: 449.1079
Precursor m/z: 449.1078
Precursor type: [M+H]+
m/z	relative intensity
81.033	1
85.0279	36
87.0441	3
91.0386	3
97.028	6
99.0435	2
127.039	1
145.0501	4
275.9775	1
287.0549	999
288.0584	168
289.0609	18
