Mass spectrum: Lipoic acid reduced; LC-ESI-QTOF; MS2; CE: 10; R=; [M-H]-
Name: Lipoic acid reduced
Name: Dihydrolipoic acid
Name: 6,8-bis(sulfanyl)octanoic acid
Formula: C8H16O2S2
Exact mass: 208.0592
SMILES: OC(=O)CCCCC(S)CCS
InChI: InChI=1S/C8H16O2S2/c9-8(10)4-2-1-3-7(12)5-6-11/h7,11-12H,1-6H2,(H,9,10)
Instrument: maXis plus UHR-ToF-MS, Bruker Daltonics
Instrument type: LC-ESI-QTOF
Ms type: MS2
Ion mode: NEGATIVE
Ionization: ESI
Fragmentation mode: CID
Collision energy: 10
Column name: BEH C18 1.7um, 2.1x100mm, Waters
Retention time: 4.395 min
Base peak: 207.0525
Precursor m/z: 207.0519
Precursor type: [M-H]-
m/z	relative intensity
129.0748	6
139.0771	6
173.0652	761
175.0605	10
207.053	999
