Mass spectrum: N-Alpha-Acetyl-Ornithine; LC-ESI-QTOF; MS2; CE: 20; R=; [M+H]+
Name: N-Alpha-Acetyl-Ornithine
Name: N-acetylornithine
Name: (2S)-2-acetamido-5-aminopentanoic acid
Formula: C7H14N2O3
Exact mass: 174.1004
SMILES: CC(=O)N[C@@H](CCCN)C(O)=O
InChI: InChI=1S/C7H14N2O3/c1-5(10)9-6(7(11)12)3-2-4-8/h6H,2-4,8H2,1H3,(H,9,10)(H,11,12)/t6-/m0/s1
Instrument: maXis plus UHR-ToF-MS, Bruker Daltonics
Instrument type: LC-ESI-QTOF
Ms type: MS2
Ion mode: POSITIVE
Ionization: ESI
Fragmentation mode: CID
Collision energy: 20
Column name: BEH C18 1.7um, 2.1x100mm, Waters
Retention time: 0.602 min
Base peak: 175.1074
Precursor m/z: 175.1077
Precursor type: [M+H]+
m/z	relative intensity
45.0444	1
53.0236	1
54.0216	1
54.0335	2
55.0179	1
56.0831	1
60.0431	147
65.0023	2
66.0463	1
67.0058	2
67.0266	1
67.042	1
67.1102	1
68.0829	1
68.1053	1
69.0703	2
71.0482	824
72.081	1
74.0228	521
81.0343	5
86.059	25
87.0909	58
88.0386	43
88.075	237
96.0896	1
97.0756	81
98.0595	53
98.079	3
99.0438	29
99.0638	4
99.1244	2
100.0475	3
102.0674	1
107.1049	1
108.0328	1
111.0911	23
112.0756	195
113.0785	14
114.0781	1
115.0866	999
116.0705	507
116.0897	65
117.0541	2
117.074	25
118.0747	3
130.0869	3
133.0112	1
133.0968	10
134.9951	1
139.0866	10
140.0706	4
149.0447	1
157.0479	1
157.0967	15
158.0805	324
175.1072	12
