Mass spectrum: N-Acetyl-D-Mannosamine; LC-ESI-QTOF; MS2; CE: 40; R=; [M+H]+
Name: N-Acetyl-D-Mannosamine
Name: aldehydo-N-acetyl-D-mannosamine
Name: N-[(2R,3S,4R,5S)-3,4,5,6-tetrahydroxy-1-oxohexan-2-yl]acetamide
Formula: C8H15NO6
Exact mass: 221.0899
SMILES: CC(=O)N[C@@H](C=O)[C@H](O)[C@@H](O)[C@@H](O)CO
InChI: InChI=1S/C8H15NO6/c1-4(12)9-5(2-10)7(14)8(15)6(13)3-11/h2,5-8,11,13-15H,3H2,1H3,(H,9,12)/t5-,6-,7-,8-/m0/s1
Instrument: maXis plus UHR-ToF-MS, Bruker Daltonics
Instrument type: LC-ESI-QTOF
Ms type: MS2
Ion mode: POSITIVE
Ionization: ESI
Fragmentation mode: CID
Collision energy: 40
Column name: BEH C18 1.7um, 2.1x100mm, Waters
Retention time: 0.601 min
Base peak: 204.0864
Precursor m/z: 222.0972
Precursor type: [M+H]+
m/z	relative intensity
55.0165	39
55.0395	9
61.0274	47
69.0327	143
71.0113	16
71.0495	15
72.0438	47
73.0278	27
79.0536	11
81.0322	177
82.0648	36
83.0128	72
83.037	17
83.0487	36
84.0438	999
86.0568	10
91.055	12
96.0441	501
97.0281	62
97.0491	35
98.0593	70
99.0449	22
100.0394	23
109.0286	35
110.1027	10
126.055	28
138.0312	10
138.0552	56
144.0641	36
