Mass spectrum: 3-oxo-C4-homoserine lactone; LC-ESI-QTOF; MS2; CE: 40; R=; [M-H]-
Name: 3-oxo-C4-homoserine lactone
Name: Butanamide, 3-oxo-N-(tetrahydro-2-oxo-3-furanyl)-
Name: 3-oxo-N-(2-oxooxolan-3-yl)butanamide
Formula: C8H11NO4
Exact mass: 185.0688
SMILES: CC(=O)CC(=O)NC1CCOC1=O
InChI: InChI=1S/C8H11NO4/c1-5(10)4-7(11)9-6-2-3-13-8(6)12/h6H,2-4H2,1H3,(H,9,11)
Instrument: maXis plus UHR-ToF-MS, Bruker Daltonics
Instrument type: LC-ESI-QTOF
Ms type: MS2
Ion mode: NEGATIVE
Ionization: ESI
Fragmentation mode: CID
Collision energy: 40
Column name: BEH C18 1.7um, 2.1x100mm, Waters
Retention time: 0.954 min
Base peak: 184.0624
Precursor m/z: 184.0615
Precursor type: [M-H]-
m/z	relative intensity
57.0341	999
67.0182	137
70.03	82
83.0139	367
