Mass spectrum: Ala-Phe; LC-ESI-QTOF; MS2; CE: 20; R=; [M+H]+
Name: Ala-Phe
Name: (2S)-2-[[(2S)-2-azaniumylpropanoyl]amino]-3-phenylpropanoate
Formula: C12H16N2O3
Exact mass: 236.1161
SMILES: C[C@H](N)C(=O)N[C@@H](Cc1ccccc1)C(O)=O
InChI: InChI=1S/C12H16N2O3/c1-8(13)11(15)14-10(12(16)17)7-9-5-3-2-4-6-9/h2-6,8,10H,7,13H2,1H3,(H,14,15)(H,16,17)/t8-,10-/m0/s1
Instrument: maXis plus UHR-ToF-MS, Bruker Daltonics
Instrument type: LC-ESI-QTOF
Ms type: MS2
Ion mode: POSITIVE
Ionization: ESI
Fragmentation mode: CID
Collision energy: 20
Column name: BEH C18 1.7um, 2.1x100mm, Waters
Retention time: 2.425 min
Base peak: 237.1227
Precursor m/z: 237.1234
Precursor type: [M+H]+
m/z	relative intensity
58.0048	1
83.0599	1
93.0698	1
103.0241	1
103.0539	6
107.0487	3
120.0807	890
121.0842	71
122.0851	1
131.0485	6
146.0241	1
146.0936	2
148.0742	2
149.0592	16
150.0633	1
166.0853	999
167.0887	94
173.105	1
191.1169	29
192.1207	4
237.1225	10
