Mass spectrum: tsas#9; LC-ESI-QTOF; MS2; CE: 20; R=; [M+H]+
Name: tsas#9
Formula: C23H33NO9
Exact mass: 467.2155
SMILES: CC(CCC(O)=O)O[C@@H]1OC(C)[C@@H](CC1O)OC(=O)CCC(=O)NCCC1=CC=C(O)C=C1
InChI: InChI=1S/C23H33NO9/c1-14(3-9-21(28)29)31-23-18(26)13-19(15(2)32-23)33-22(30)10-8-20(27)24-12-11-16-4-6-17(25)7-5-16/h4-7,14-15,18-19,23,25-26H,3,8-13H2,1-2H3,(H,24,27)(H,28,29)/t14?,15?,18?,19-,23-/m1/s1
Instrument: maXis plus UHR-ToF-MS, Bruker Daltonics
Instrument type: LC-ESI-QTOF
Ms type: MS2
Ion mode: POSITIVE
Ionization: ESI
Fragmentation mode: CID
Collision energy: 20
Column name: BEH C18 1.7um, 2.1x100mm, Waters
Retention time: 3.376 min
Base peak: 350.1599
Precursor m/z: 468.2228
Precursor type: [M+H]+
m/z	relative intensity
81.0653	1
82.1923	1
83.0476	1
85.0133	1
85.0639	1
95.0485	6
101.0596	3
113.06	7
115.0181	1
120.2459	1
121.066	8
121.195	1
122.2248	1
126.0302	1
128.0939	1
136.0857	1
140.0909	1
147.1177	1
148.2115	1
150.0665	1
153.0005	1
153.0089	1
153.9783	1
154.1864	1
157.0863	1
164.1561	1
166.1208	1
171.0427	1
171.073	1
172.009	1
175.1109	2
177.2422	1
179.0264	1
182.0855	1
187.0622	1
190.0452	1
192.0606	1
192.1347	1
192.27	1
193.1844	1
194.1934	1
195.993	1
196.2337	1
198.9913	1
201.0409	1
203.9988	1
204.0244	1
204.0915	1
206.1333	1
211.0122	1
213.9995	1
215.1272	1
220.0964	804
221.1	89
222.0244	1
222.1031	5
229.0305	1
237.1172	1
238.107	999
239.1104	136
240.1141	12
241.119	1
241.2242	1
250.1063	3
250.1451	1
274.1425	3
276.182	1
281.2146	1
286.1677	1
292.154	73
293.1586	10
294.1625	1
307.9934	1
314.138	1
319.1151	1
332.1408	1
332.1527	1
338.0835	1
340.2025	1
350.1596	952
351.1631	208
352.1658	24
353.1717	1
