Mass spectrum: L-Histidine; LC-ESI-QTOF; MS2; CE: 40; R=; [M+H]+
Name: L-Histidine
Name: (2S)-2-azaniumyl-3-(1H-imidazol-5-yl)propanoate
Formula: C6H9N3O2
Exact mass: 155.06948
SMILES: c1c([nH]cn1)C[C@@H](C(=O)O)N
InChI: InChI=1S/C6H9N3O2/c7-5(6(10)11)1-4-2-8-3-9-4/h2-3,5H,1,7H2,(H,8,9)(H,10,11)/t5-/m0/s1
Instrument: maXis plus UHR-ToF-MS, Bruker Daltonics
Instrument type: LC-ESI-QTOF
Ms type: MS2
Ion mode: POSITIVE
Ionization: ESI
Fragmentation mode: CID
Collision energy: 40
Column name: BEH C18 1.7um, 2.1x100mm, Waters
Retention time: 0.549 min
Base peak: 156.0762
Precursor m/z: 156.0768
Precursor type: [M+H]+
m/z	relative intensity
55.0413	13
68.0489	114
69.0441	38
74.0231	4
78.0331	1
81.0443	470
82.052	553
83.0599	999
84.0429	2
93.0444	319
94.0477	14
95.0597	32
96.0426	1
97.0398	2
99.055	1
110.0713	43
111.053	2
111.0747	4
