Mass spectrum: Palmitoleoyl Ethanolamide; LC-ESI-QTOF; MS2; CE: 40; R=; [M+H]+
Name: Palmitoleoyl Ethanolamide
Name: Palmitoleoyl-EA
Name: (Z)-N-(2-hydroxyethyl)hexadec-9-enamide
Formula: C18H35NO2
Exact mass: 297.26678
SMILES: CCCCCC/C=C\CCCCCCCC(NCCO)=O
InChI: InChI=1S/C18H35NO2/c1-2-3-4-5-6-7-8-9-10-11-12-13-14-15-18(21)19-16-17-20/h7-8,20H,2-6,9-17H2,1H3,(H,19,21)/b8-7-
Instrument: maXis plus UHR-ToF-MS, Bruker Daltonics
Instrument type: LC-ESI-QTOF
Ms type: MS2
Ion mode: POSITIVE
Ionization: ESI
Fragmentation mode: CID
Collision energy: 40
Column name: BEH C18 1.7um, 2.1x100mm, Waters
Retention time: 6.261 min
Base peak: 298.2739
Precursor m/z: 298.2741
Precursor type: [M+H]+
m/z	relative intensity
47.1792	2
48.2685	2
50.0965	2
57.0323	22
58.1924	1
59.0478	3
59.0937	1
60.2323	2
61.0028	2
61.0637	3
70.0281	84
71.0483	32
73.0279	12
73.0651	7
77.0382	28
79.0536	812
81.0693	999
82.0647	4
83.0484	36
83.0851	733
85.0522	18
85.0651	10
86.0595	8
86.1539	1
88.0394	5
91.0537	77
92.037	3
93.0697	428
93.9932	1
94.0733	14
95.0476	20
95.0851	356
96.0893	25
97.0645	44
97.1012	132
98.0598	51
99.0436	13
99.0634	3
99.0804	5
105.0451	13
105.0703	14
107.0854	64
109.0649	2
109.1005	39
110.105	3
119.0573	2
120.0577	1
121.1005	31
127.0737	1
135.1175	14
136.1198	2
147.1157	2
150.1362	2
151.1489	1
154.1223	2
155.0811	1
161.132	1
175.1457	1
183.1032	4
196.0166	2
214.2171	2
238.2143	2
243.0057	2
252.2679	2
280.2163	3
280.2637	41
281.2488	5
281.269	5
282.2891	1
