Mass spectrum: 3-Hydroxyphenylacetic acid; LC-ESI-QTOF; MS2; CE: 10; R=; [M+H]+
Name: 3-Hydroxyphenylacetic acid
Name: 2-(3-hydroxyphenyl)acetic acid
Formula: C8H8O3
Exact mass: 152.0473
SMILES: OC(=O)Cc1cccc(O)c1
InChI: InChI=1S/C8H8O3/c9-7-3-1-2-6(4-7)5-8(10)11/h1-4,9H,5H2,(H,10,11)
Instrument: maXis plus UHR-ToF-MS, Bruker Daltonics
Instrument type: LC-ESI-QTOF
Ms type: MS2
Ion mode: POSITIVE
Ionization: ESI
Fragmentation mode: CID
Collision energy: 10
Column name: BEH C18 1.7um, 2.1x100mm, Waters
Retention time: 2.843 min
Base peak: 107.0489
Precursor m/z: 153.0546
Precursor type: [M+H]+
m/z	relative intensity
65.0235	5
73.0645	3
95.0492	3
107.0488	999
135.0434	4
153.0542	8
