Mass spectrum: N-Oleoyl-Phenylalanine; LC-ESI-QTOF; MS2; CE: 40; R=; [M+H]+
Name: N-Oleoyl-Phenylalanine
Name: N-oleoyl phenylalanine
Name: (2S)-2-[[(Z)-octadec-9-enoyl]amino]-3-phenylpropanoic acid
Formula: C27H43NO3
Exact mass: 429.3243
SMILES: CCCCCCCC/C=C\CCCCCCCC(=O)N[C@@H](CC1=CC=CC=C1)C(=O)O
InChI: InChI=1S/C27H43NO3/c1-2-3-4-5-6-7-8-9-10-11-12-13-14-15-19-22-26(29)28-25(27(30)31)23-24-20-17-16-18-21-24/h9-10,16-18,20-21,25H,2-8,11-15,19,22-23H2,1H3,(H,28,29)(H,30,31)/b10-9-/t25-/m0/s1
Instrument: maXis plus UHR-ToF-MS, Bruker Daltonics
Instrument type: LC-ESI-QTOF
Ms type: MS2
Ion mode: POSITIVE
Ionization: ESI
Fragmentation mode: CID
Collision energy: 40
Column name: BEH C18 1.7um, 2.1x100mm, Waters
Retention time: 7.193 min
Base peak: 430.3314
Precursor m/z: 430.3316
Precursor type: [M+H]+
m/z	relative intensity
47.1673	1
54.3278	2
64.0522	2
71.0484	2
78.091	1
79.0537	30
81.0693	64
83.0851	77
85.0633	6
85.1011	5
86.0006	1
86.3412	1
87.0889	1
88.9872	1
91.0539	15
92.0501	1
93.0692	48
94.0735	2
95.0853	45
97.0645	2
97.1008	17
98.0714	1
99.0805	4
103.0543	44
105.044	1
105.0707	1
106.1352	1
107.049	10
107.0853	11
109.064	1
109.1014	7
111.0798	3
113.2359	2
115.1559	2
115.2267	1
120.0807	999
121.0841	60
121.1012	10
122.0943	2
123.1368	1
125.1295	2
131.0324	1
131.0491	8
135.1164	2
135.1737	2
136.0518	1
136.1201	1
139.9903	1
140.0015	1
144.0939	1
149.0021	1
149.0591	17
149.1527	1
150.0686	1
151.0962	1
153.0331	1
159.0634	1
161.3192	3
165.2661	2
165.2782	1
166.0857	231
190.0859	1
248.2445	2
260.2391	1
