Mass spectrum: N-Oleyl-Leucine; LC-ESI-QTOF; MS2; CE: 10; R=; [M+H]+
Name: N-Oleyl-Leucine
Name: N-oleoyl leucine
Name: (2S)-4-methyl-2-[[(Z)-octadec-9-enoyl]amino]pentanoic acid
Formula: C24H45NO3
Exact mass: 395.3399
SMILES: CCCCCCCC/C=C\CCCCCCCC(=O)N[C@@H](CC(C)C)C(=O)O
InChI: InChI=1S/C24H45NO3/c1-4-5-6-7-8-9-10-11-12-13-14-15-16-17-18-19-23(26)25-22(24(27)28)20-21(2)3/h11-12,21-22H,4-10,13-20H2,1-3H3,(H,25,26)(H,27,28)/b12-11-/t22-/m0/s1
Instrument: maXis plus UHR-ToF-MS, Bruker Daltonics
Instrument type: LC-ESI-QTOF
Ms type: MS2
Ion mode: POSITIVE
Ionization: ESI
Fragmentation mode: CID
Collision energy: 10
Column name: BEH C18 1.7um, 2.1x100mm, Waters
Retention time: 7.227 min
Base peak: 396.3473
Precursor m/z: 396.3472
Precursor type: [M+H]+
m/z	relative intensity
86.0959	46
132.1018	41
265.2537	1
350.3416	14
351.3456	2
378.3369	24
379.3409	5
396.3476	999
398.3535	34
