Mass spectrum: C8-homoserine lactone; LC-ESI-QTOF; MS2; CE: 40; R=; [M+H]+
Name: C8-homoserine lactone
Name: N-Octanoyl-DL-homoserine lactone
Name: N-(2-oxooxolan-3-yl)octanamide
Formula: C12H21NO3
Exact mass: 227.15214
SMILES: CCCCCCCC(=O)NC1CCOC1=O
InChI: InChI=1S/C12H21NO3/c1-2-3-4-5-6-7-11(14)13-10-8-9-16-12(10)15/h10H,2-9H2,1H3,(H,13,14)
Instrument: maXis plus UHR-ToF-MS, Bruker Daltonics
Instrument type: LC-ESI-QTOF
Ms type: MS2
Ion mode: POSITIVE
Ionization: ESI
Fragmentation mode: CID
Collision energy: 40
Column name: BEH C18 1.7um, 2.1x100mm, Waters
Retention time: 4.396 min
Base peak: 228.159
Precursor m/z: 228.1594
Precursor type: [M+H]+
m/z	relative intensity
52.0517	2
59.0482	13
59.0609	4
68.025	2
69.033	1
70.0658	3
71.0471	1
71.0849	10
72.044	1
74.0231	786
74.0594	999
75.1019	1
76.026	1
79.0543	22
80.049	3
80.0583	2
81.0694	61
82.0651	3
83.0859	10
84.0436	180
85.0278	98
86.037	1
91.0546	2
94.0606	1
94.0773	3
102.0548	133
109.1015	19
127.1111	6
