Mass spectrum: all trans-Retinal; LC-ESI-QTOF; MS2; CE: 10; R=; [M+H]+
Name: all trans-Retinal
Name: retinal
Name: (2E,4E,6E,8E)-3,7-dimethyl-9-(2,6,6-trimethylcyclohexen-1-yl)nona-2,4,6,8-tetraenal
Formula: C20H28O
Exact mass: 284.2140
SMILES: [H]C(=O)\C=C(C)\C=C\C=C(C)\C=C\C1=C(C)CCCC1(C)C
InChI: InChI=1S/C20H28O/c1-16(8-6-9-17(2)13-15-21)11-12-19-18(3)10-7-14-20(19,4)5/h6,8-9,11-13,15H,7,10,14H2,1-5H3/b9-6+,12-11+,16-8+,17-13+
Instrument: maXis plus UHR-ToF-MS, Bruker Daltonics
Instrument type: LC-ESI-QTOF
Ms type: MS2
Ion mode: POSITIVE
Ionization: ESI
Fragmentation mode: CID
Collision energy: 10
Column name: BEH C18 1.7um, 2.1x100mm, Waters
Retention time: 7.056 min
Base peak: 88.0747
Precursor m/z: 285.2213
Precursor type: [M+H]+
m/z	relative intensity
71.0487	23
75.0182	14
81.1281	11
83.086	16
85.0763	18
95.0856	36
97.064	52
97.1003	43
101.1897	12
105.07	24
109.0648	16
110.0366	8
110.1055	10
112.0761	9
117.0697	11
118.0423	21
120.0316	10
121.1007	25
123.1159	26
124.0987	7
126.0681	7
127.9901	7
133.0167	20
136.1808	8
140.1203	10
142.134	10
143.0252	8
145.1016	14
147.054	10
147.0806	15
147.114	8
154.0649	10
157.1009	19
159.069	7
160.1921	10
161.0951	999
164.0593	13
164.1555	29
165.1269	14
169.098	9
171.1125	11
171.1987	10
173.1332	17
175.0751	20
175.1482	398
176.1509	27
177.1259	19
177.1624	137
177.2309	7
178.0646	7
178.1814	8
185.1308	40
187.147	18
189.1259	20
189.1631	38
193.1575	233
197.133	28
200.0007	11
200.1534	9
201.0575	12
201.1605	12
203.1417	15
203.1804	7
205.1593	16
207.1177	14
210.0121	13
211.11	9
211.1468	59
215.1782	26
219.0116	9
221.1389	15
227.1785	14
245.1189	7
247.028	13
255.0538	14
257.2242	23
267.2096	246
268.2165	33
270.1336	8
271.1107	9
274.0269	8
283.1423	15
283.178	11
283.2052	35
285.2204	880
287.1995	13
