Mass spectrum: Gentiobiose; LC-ESI-QTOF; MS2; CE: 20; R=; [M-H]-
Name: Gentiobiose
Name: (2R,3R,4S,5S,6R)-6-[[(2R,3R,4S,5S,6R)-3,4,5-trihydroxy-6-(hydroxymethyl)oxan-2-yl]oxymethyl]oxane-2,3,4,5-tetrol
Formula: C12H22O11
Exact mass: 342.1162
SMILES: O(C[C@H]1O[C@@H](O)[C@H](O)[C@@H](O)[C@@H]1O)[C@@H]2O[C@@H]([C@@H](O)[C@H](O)[C@H]2O)CO
InChI: InChI=1S/C12H22O11/c13-1-3-5(14)8(17)10(19)12(23-3)21-2-4-6(15)7(16)9(18)11(20)22-4/h3-20H,1-2H2/t3-,4-,5-,6-,7+,8+,9-,10-,11-,12-/m1/s1
Instrument: maXis plus UHR-ToF-MS, Bruker Daltonics
Instrument type: LC-ESI-QTOF
Ms type: MS2
Ion mode: NEGATIVE
Ionization: ESI
Fragmentation mode: CID
Collision energy: 20
Column name: BEH C18 1.7um, 2.1x100mm, Waters
Retention time: 0.578 min
Base peak: 341.1094
Precursor m/z: 341.1089
Precursor type: [M-H]-
m/z	relative intensity
59.0142	315
89.0243	999
179.0564	354
