Mass spectrum: 3?-Hydroxy-7 Ketolithocholic Acid; LC-ESI-QTOF; MS2; CE: 10; R=; [M+H]+
Name: 3?-Hydroxy-7 Ketolithocholic Acid
Name: (4R)-4-[(3R,5S,8R,9S,10S,13R,14S,17R)-3-hydroxy-10,13-dimethyl-7-oxo-1,2,3,4,5,6,8,9,11,12,14,15,16,17-tetradecahydrocyclopenta[a]phenanthren-17-yl]pentanoic acid
Formula: C24H38O4
Exact mass: 390.2770
SMILES: C[C@H](CCC(O)=O)[C@H]1CC[C@H]2[C@H]3[C@H](CC[C@]12C)[C@@]1(C)CC[C@@H](O)C[C@H]1CC3=O
InChI: InChI=1S/C24H38O4/c1-14(4-7-21(27)28)17-5-6-18-22-19(9-11-24(17,18)3)23(2)10-8-16(25)12-15(23)13-20(22)26/h14-19,22,25H,4-13H2,1-3H3,(H,27,28)/t14-,15+,16-,17-,18+,19+,22+,23+,24-/m1/s1
Instrument: maXis plus UHR-ToF-MS, Bruker Daltonics
Instrument type: LC-ESI-QTOF
Ms type: MS2
Ion mode: POSITIVE
Ionization: ESI
Fragmentation mode: CID
Collision energy: 10
Column name: BEH C18 1.7um, 2.1x100mm, Waters
Retention time: 4.972 min
Base peak: 781.5609
Precursor m/z: 391.2843
Precursor type: [M+H]+
m/z	relative intensity
165.1227	1
191.1423	1
247.1679	1
319.2429	2
320.2431	1
327.265	1
337.2519	61
338.256	10
355.2627	452
356.2661	104
357.2698	10
358.2726	1
373.2734	999
374.2769	283
375.2799	28
376.2817	2
391.2841	720
393.2913	21
