Mass spectrum: Daidzein; LC-ESI-QTOF; MS2; CE: 40; R=; [M-H]-
Name: Daidzein
Name: 7-hydroxy-3-(4-hydroxyphenyl)chromen-4-one
Formula: C15H10O4
Exact mass: 254.0579
SMILES: O=C\1c3c(O/C=C/1c2ccc(O)cc2)cc(O)cc3
InChI: InChI=1S/C15H10O4/c16-10-3-1-9(2-4-10)13-8-19-14-7-11(17)5-6-12(14)15(13)18/h1-8,16-17H
Instrument: maXis plus UHR-ToF-MS, Bruker Daltonics
Instrument type: LC-ESI-QTOF
Ms type: MS2
Ion mode: NEGATIVE
Ionization: ESI
Fragmentation mode: CID
Collision energy: 40
Column name: BEH C18 1.7um, 2.1x100mm, Waters
Retention time: 3.597 min
Base peak: 253.0512
Precursor m/z: 253.0506
Precursor type: [M-H]-
m/z	relative intensity
63.0234	13
65.0035	28
79.0183	8
89.0404	42
91.0193	822
92.0219	43
93.0353	18
95.0142	10
104.0267	23
116.0269	9
120.0216	6
132.0215	37
133.0305	78
135.0098	32
153.0216	7
167.0504	34
168.0575	20
169.0668	55
180.0593	176
181.0644	31
182.0384	10
195.0469	212
196.0537	177
197.0613	78
200.0492	6
206.0367	7
207.0426	6
208.0537	663
209.0615	211
210.0338	33
211.0408	27
223.0411	652
224.0487	536
225.0566	133
251.0338	33
252.0431	81
253.0512	999
