Mass spectrum: Xanthosine; LC-ESI-QTOF; MS2; CE: 10; R=; [M+H]+
Name: Xanthosine
Name: 9-[(2R,3R,4S,5R)-3,4-dihydroxy-5-(hydroxymethyl)oxolan-2-yl]-3H-purine-2,6-dione
Formula: C10H12N4O6
Exact mass: 284.0757
SMILES: OC[C@H]1O[C@H]([C@H](O)[C@@H]1O)N1C=NC2=C1NC(=O)NC2=O
InChI: InChI=1S/C10H12N4O6/c15-1-3-5(16)6(17)9(20-3)14-2-11-4-7(14)12-10(19)13-8(4)18/h2-3,5-6,9,15-17H,1H2,(H2,12,13,18,19)/t3-,5-,6-,9-/m1/s1
Instrument: maXis plus UHR-ToF-MS, Bruker Daltonics
Instrument type: LC-ESI-QTOF
Ms type: MS2
Ion mode: POSITIVE
Ionization: ESI
Fragmentation mode: CID
Collision energy: 10
Column name: BEH C18 1.7um, 2.1x100mm, Waters
Retention time: 0.725 min
Base peak: 153.0404
Precursor m/z: 285.083
Precursor type: [M+H]+
m/z	relative intensity
55.0181	3
57.0319	6
61.0275	4
69.0329	6
73.0281	14
80.0472	2
84.0536	2
85.0283	10
87.0436	5
93.0529	3
97.0271	8
110.0716	2
115.0393	2
127.0254	3
129.0172	3
133.0488	23
134.0529	5
138.0328	2
149.096	2
152.0277	6
153.0404	999
154.0438	36
155.0294	2
155.0463	2
155.0899	2
178.0779	3
195.0558	2
205.9845	2
213.0923	7
285.083	182
