Mass spectrum: ?-Estradiol; LC-ESI-QTOF; MS2; CE: 20; R=; [M+H]+
Name: ?-Estradiol
Name: estradiol
Name: (8R,9S,13S,14S,17S)-13-methyl-6,7,8,9,11,12,14,15,16,17-decahydrocyclopenta[a]phenanthrene-3,17-diol
Formula: C18H24O2
Exact mass: 272.1776
SMILES: C[C@]12CC[C@H]3[C@H]([C@@H]1CC[C@@H]2O)CCC4=C3C=CC(=C4)O
InChI: InChI=1S/C18H24O2/c1-18-9-8-14-13-5-3-12(19)10-11(13)2-4-15(14)16(18)6-7-17(18)20/h3,5,10,14-17,19-20H,2,4,6-9H2,1H3/t14-,15-,16+,17+,18+/m1/s1
Instrument: maXis plus UHR-ToF-MS, Bruker Daltonics
Instrument type: LC-ESI-QTOF
Ms type: MS2
Ion mode: POSITIVE
Ionization: ESI
Fragmentation mode: CID
Collision energy: 20
Column name: BEH C18 1.7um, 2.1x100mm, Waters
Retention time: 4.483 min
Base peak: 255.1739
Precursor m/z: 273.1849
Precursor type: [M+H]+
m/z	relative intensity
56.0132	9
57.0206	7
82.0734	23
85.0641	30
86.1096	12
87.1038	7
91.0535	31
93.069	77
95.0848	114
97.0657	20
100.0747	8
103.0057	6
107.0489	972
108.0524	71
109.0519	13
109.1002	107
111.0802	10
119.0855	9
121.0646	50
122.1054	18
123.09	9
123.1048	9
125.0609	12
130.0042	7
133.0155	9
133.0529	8
133.0636	73
135.1163	293
136.004	10
136.1215	41
137.093	10
141.0704	23
145.0638	81
146.0718	41
146.1103	13
147.0795	59
147.0925	11
147.1158	59
148.124	6
149.1322	76
150.1365	20
153.1267	8
155.1439	8
157.0648	75
157.1094	14
158.1765	10
159.0799	999
160.084	71
161.0957	16
161.1329	35
161.2016	8
162.0172	6
167.0858	17
169.1024	6
170.129	7
172.0879	68
173.096	244
174.1004	25
175.0738	30
175.1807	12
177.0896	7
177.1278	6
178.145	7
179.1429	46
180.1481	15
182.0098	11
185.0956	282
186.0422	8
186.1027	93
187.075	7
187.1126	17
188.0481	9
188.0829	45
189.1739	13
191.1057	26
192.1513	6
197.0937	16
198.1034	9
199.0542	6
199.1109	88
199.1429	6
200.1164	11
201.0919	17
201.1278	51
202.132	8
211.1133	27
213.1277	84
214.1311	23
215.1403	14
225.1288	20
226.0434	9
226.1348	32
227.1409	22
228.1509	30
229.1568	19
229.1677	6
234.0075	18
236.1783	6
239.1414	7
239.9932	6
243.1763	7
244.1467	27
252.0689	7
253.1581	178
254.1675	25
255.1742	668
256.1783	131
257.0927	8
264.0764	9
270.1602	8
271.1467	9
272.1773	141
273.1842	397
