Mass spectrum: 3-oxo-C12 homoserine lactone; LC-ESI-QTOF; MS2; CE: 10; R=; [M+H]+
Name: 3-oxo-C12 homoserine lactone
Name: PA Autoinducer
Name: 3-oxo-N-(2-oxooxolan-3-yl)dodecanamide
Formula: C16H27NO4
Exact mass: 297.19401
SMILES: CCCCCCCCCC(=O)CC(=O)NC1CCOC1=O
InChI: InChI=1S/C16H27NO4/c1-2-3-4-5-6-7-8-9-13(18)12-15(19)17-14-10-11-21-16(14)20/h14H,2-12H2,1H3,(H,17,19)
Instrument: maXis plus UHR-ToF-MS, Bruker Daltonics
Instrument type: LC-ESI-QTOF
Ms type: MS2
Ion mode: POSITIVE
Ionization: ESI
Fragmentation mode: CID
Collision energy: 10
Column name: BEH C18 1.7um, 2.1x100mm, Waters
Retention time: 5.277 min
Base peak: 298.2009
Precursor m/z: 298.2013
Precursor type: [M+H]+
m/z	relative intensity
71.0852	1
84.044	4
95.0853	1
98.0594	16
102.0544	465
104.0588	1
155.1428	3
197.1532	247
198.1568	27
240.1955	24
241.1985	2
252.1963	9
253.2005	2
256.1905	17
257.1958	2
270.2062	65
280.1907	13
281.1926	2
298.2009	999
300.2073	16
