Mass spectrum: L-Tryptophan; LC-ESI-QTOF; MS2; CE: 20; R=; [M+H]+
Name: L-Tryptophan
Name: (2S)-2-amino-3-(1H-indol-3-yl)propanoic acid
Formula: C11H12N2O2
Exact mass: 204.08988
SMILES: c1ccc2c(c1)c(c[nH]2)C[C@@H](C(=O)O)N
InChI: InChI=1S/C11H12N2O2/c12-9(11(14)15)5-7-6-13-10-4-2-1-3-8(7)10/h1-4,6,9,13H,5,12H2,(H,14,15)/t9-/m0/s1
Instrument: maXis plus UHR-ToF-MS, Bruker Daltonics
Instrument type: LC-ESI-QTOF
Ms type: MS2
Ion mode: POSITIVE
Ionization: ESI
Fragmentation mode: CID
Collision energy: 20
Column name: BEH C18 1.7um, 2.1x100mm, Waters
Retention time: 2.369 min
Base peak: 188.07
Precursor m/z: 205.0972
Precursor type: [M+H]+
m/z	relative intensity
74.0232	85
77.0381	1
86.0027	1
91.0539	6
98.0684	1
115.0545	4
116.036	1
117.0569	3
117.0696	12
118.065	183
119.0681	14
130.0655	12
131.0703	2
132.0802	53
133.0852	4
142.0641	18
143.0725	25
144.0804	184
145.0842	17
146.0596	999
147.063	94
159.0912	119
160.075	12
160.0947	13
170.0596	138
171.0625	12
188.07	923
