Mass spectrum: Taurocholic acid; LC-ESI-QTOF; MS2; CE: 10; R=; [M+H]+
Name: Taurocholic acid
Name: 2-[[(4R)-4-[(3R,5S,7R,8R,9S,10S,12S,13R,14S,17R)-3,7,12-trihydroxy-10,13-dimethyl-2,3,4,5,6,7,8,9,11,12,14,15,16,17-tetradecahydro-1H-cyclopenta[a]phenanthren-17-yl]pentanoyl]amino]ethanesulfonic acid
Formula: C26H45NO7S
Exact mass: 515.2917
SMILES: C[C@H](CC/C(=N/CCS(=O)(=O)O)/O)[C@H]1CC[C@@H]2[C@@]1([C@H](C[C@H]3[C@H]2[C@@H](C[C@H]4[C@@]3(CC[C@H](C4)O)C)O)O)C
InChI: InChI=1S/C26H45NO7S/c1-15(4-7-23(31)27-10-11-35(32,33)34)18-5-6-19-24-20(14-22(30)26(18,19)3)25(2)9-8-17(28)12-16(25)13-21(24)29/h15-22,24,28-30H,4-14H2,1-3H3,(H,27,31)(H,32,33,34)/t15-,16+,17-,18-,19+,20+,21-,22+,24+,25+,26-/m1/s1
Instrument: maXis plus UHR-ToF-MS, Bruker Daltonics
Instrument type: LC-ESI-QTOF
Ms type: MS2
Ion mode: POSITIVE
Ionization: ESI
Fragmentation mode: CID
Collision energy: 10
Column name: BEH C18 1.7um, 2.1x100mm, Waters
Retention time: 3.915 min
Base peak: 516.2982
Precursor m/z: 516.299
Precursor type: [M+H]+
m/z	relative intensity
227.1389	1
246.1543	1
281.2193	1
283.2543	1
287.2679	1
294.1346	1
308.0062	1
310.2397	1
317.9709	1
319.2388	1
329.3199	1
329.9741	1
337.2529	4
343.0056	1
348.131	1
351.1956	1
368.1864	1
377.2042	1
381.3234	1
387.2718	1
387.3223	1
410.0207	1
416.9688	1
420.2185	1
422.155	1
444.23	1
462.2667	192
463.27	38
464.1597	1
464.271	5
465.2655	1
471.9943	1
476.1899	1
480.2775	344
481.2801	65
482.281	17
483.276	1
492.2918	1
497.149	1
497.1882	1
497.3029	1
498.2882	754
499.2914	205
500.2911	44
501.2477	1
501.29	6
504.102	1
515.1395	1
515.1616	1
515.1758	1
516.2983	999
518.3007	67
520.2974	1
