Mass spectrum: cAMP; LC-ESI-QTOF; MS2; CE: 20; R=; [M+H]+
Name: cAMP
Name: Cyclic Adenosine Monophosphate
Name: (4aR,6S,7S,7aR)-6-(6-aminopurin-9-yl)-2-hydroxy-2-oxo-4a,6,7,7a-tetrahydro-4H-furo[3,2-d][1,3,2]dioxaphosphinin-7-ol
Formula: C10H12N5O6P
Exact mass: 329.0525
SMILES: NC1=C2N=CN([C@H]3O[C@@H]4CO[P@](O)(=O)O[C@@H]4[C@@H]3O)C2=NC=N1
InChI: InChI=1S/C10H12N5O6P/c11-8-5-9(13-2-12-8)15(3-14-5)10-6(16)7-4(20-10)1-19-22(17,18)21-7/h2-4,6-7,10,16H,1H2,(H,17,18)(H2,11,12,13)/t4-,6+,7+,10+/m1/s1
Instrument: maXis plus UHR-ToF-MS, Bruker Daltonics
Instrument type: LC-ESI-QTOF
Ms type: MS2
Ion mode: POSITIVE
Ionization: ESI
Fragmentation mode: CID
Collision energy: 20
Column name: BEH C18 1.7um, 2.1x100mm, Waters
Retention time: 0.710 min
Base peak: 330.0598
Precursor m/z: 330.0598
Precursor type: [M+H]+
m/z	relative intensity
69.0335	1
97.0281	12
136.0613	80
176.9953	1
178.0726	1
204.0864	2
214.0749	2
232.082	7
250.094	2
312.0489	49
313.0539	4
330.0598	999
332.0654	12
