Mass spectrum: Taurochenodeoxycholate; LC-ESI-QTOF; MS2; CE: 20; R=; [M+H]+
Name: Taurochenodeoxycholate
Name: TAUROCHENODEOXYCHOLIC ACID
Name: 2-[[(4R)-4-[(3R,5S,7R,8R,9S,10S,13R,14S,17R)-3,7-dihydroxy-10,13-dimethyl-2,3,4,5,6,7,8,9,11,12,14,15,16,17-tetradecahydro-1H-cyclopenta[a]phenanthren-17-yl]pentanoyl]amino]ethanesulfonic acid
Formula: C26H45NO6S
Exact mass: 499.2968
SMILES: C[C@H](CC/C(=N/CCS(=O)(=O)O)/O)[C@H]1CC[C@@H]2[C@@]1(CC[C@H]3[C@H]2[C@@H](C[C@H]4[C@@]3(CC[C@H](C4)O)C)O)C
InChI: InChI=1S/C26H45NO6S/c1-16(4-7-23(30)27-12-13-34(31,32)33)19-5-6-20-24-21(9-11-26(19,20)3)25(2)10-8-18(28)14-17(25)15-22(24)29/h16-22,24,28-29H,4-15H2,1-3H3,(H,27,30)(H,31,32,33)/t16-,17+,18-,19-,20+,21+,22-,24+,25+,26-/m1/s1
Instrument: maXis plus UHR-ToF-MS, Bruker Daltonics
Instrument type: LC-ESI-QTOF
Ms type: MS2
Ion mode: POSITIVE
Ionization: ESI
Fragmentation mode: CID
Collision energy: 20
Column name: BEH C18 1.7um, 2.1x100mm, Waters
Retention time: 4.293 min
Base peak: 88.075
Precursor m/z: 500.304
Precursor type: [M+H]+
m/z	relative intensity
126.0207	1
161.132	1
189.1629	1
190.169	1
200.3165	1
201.1625	3
208.0626	2
215.1771	2
274.1109	1
276.1259	1
287.2484	1
288.1271	3
300.1264	1
302.1412	2
314.1418	2
316.1537	1
321.2595	3
328.1578	1
339.2679	17
340.2734	3
341.2683	1
342.1789	1
354.1765	2
368.1871	1
382.2071	3
463.035	1
463.2777	1
463.2927	1
463.3362	1
464.2825	999
465.2859	340
466.2854	71
467.2827	8
482.2927	41
483.2966	13
484.2937	2
