Mass spectrum: Allocholic Acid; LC-ESI-QTOF; MS2; CE: 40; R=; [M+H]+
Name: Allocholic Acid
Name: (4R)-4-[(3R,5R,7R,8R,9S,10S,12S,13R,14S,17R)-3,7,12-trihydroxy-10,13-dimethyl-2,3,4,5,6,7,8,9,11,12,14,15,16,17-tetradecahydro-1H-cyclopenta[a]phenanthren-17-yl]pentanoic acid
Formula: C24H40O5
Exact mass: 408.2876
SMILES: C[C@H](CCC(=O)O)[C@H]1CC[C@@H]2[C@@]1([C@H](C[C@H]3[C@H]2[C@@H](C[C@@H]4[C@@]3(CC[C@H](C4)O)C)O)O)C
InChI: InChI=1S/C24H40O5/c1-13(4-7-21(28)29)16-5-6-17-22-18(12-20(27)24(16,17)3)23(2)9-8-15(25)10-14(23)11-19(22)26/h13-20,22,25-27H,4-12H2,1-3H3,(H,28,29)/t13-,14-,15-,16-,17+,18+,19-,20+,22+,23+,24-/m1/s1
Instrument: maXis plus UHR-ToF-MS, Bruker Daltonics
Instrument type: LC-ESI-QTOF
Ms type: MS2
Ion mode: POSITIVE
Ionization: ESI
Fragmentation mode: CID
Collision energy: 40
Column name: BEH C18 1.7um, 2.1x100mm, Waters
Retention time: 4.617 min
Base peak: 373.2734
Precursor m/z: 409.2949
Precursor type: [M+H]+
m/z	relative intensity
69.07	65
81.0697	57
85.0645	115
89.0811	84
92.9968	55
93.0696	253
95.0851	271
105.0047	47
105.0709	152
107.2005	63
109.1067	57
117.0444	65
119.0596	81
121.1004	50
130.0648	57
131.0847	92
133.1002	168
135.1178	60
143.0859	65
147.1159	548
148.121	89
149.1331	129
155.0827	84
159.1171	295
160.0716	65
161.1312	513
167.045	84
167.106	65
169.0995	197
171.1152	305
172.122	57
173.095	57
173.1163	50
173.1329	168
174.1391	110
175.1485	176
176.1515	47
177.1288	47
181.0996	79
183.1104	81
185.1314	266
185.3061	63
187.1076	52
187.1481	192
189.0881	50
189.127	68
191.1399	55
195.1395	181
199.1461	255
200.0379	57
200.1049	92
201.1636	86
205.1218	84
207.1355	50
210.1408	76
211.1467	260
211.1692	60
213.1643	645
214.1675	139
215.1765	68
221.132	63
223.1374	89
223.1501	89
223.1706	105
224.1422	97
225.1624	92
226.1667	73
227.1392	126
227.1732	97
227.1842	94
228.1127	47
229.1582	129
230.1611	50
231.1732	237
232.1782	52
235.1463	68
235.1634	63
237.1587	52
241.1563	97
241.1957	52
242.0813	60
243.0723	63
243.1763	52
245.1301	97
245.153	89
247.169	353
248.1551	63
248.1759	71
249.158	52
249.1699	108
249.1848	76
251.062	47
254.203	142
255.1711	76
259.1683	84
261.1856	166
265.039	57
267.1632	76
277.1995	60
285.1871	57
287.1979	63
289.2132	52
295.2489	57
303.0884	52
309.254	60
319.2412	139
323.1878	55
331.2273	55
337.2521	113
355.0866	110
355.2617	999
356.2684	424
367.0251	52
373.2811	108
391.2009	63
