Mass spectrum: D-Sorbitol; LC-ESI-QTOF; MS2; CE: 10; R=; [M-H]-
Name: D-Sorbitol
Name: Sorbo
Name: (3S,4S,5R)-hexane-1,2,3,4,5,6-hexol
Formula: C6H14O6
Exact mass: 182.0790
SMILES: OC([C@H](O)[C@@H](O)[C@H](O)CO)CO
InChI: InChI=1S/C6H14O6/c7-1-3(9)5(11)6(12)4(10)2-8/h3-12H,1-2H2/t3-,4?,5+,6+/m1/s1
Instrument: maXis plus UHR-ToF-MS, Bruker Daltonics
Instrument type: LC-ESI-QTOF
Ms type: MS2
Ion mode: NEGATIVE
Ionization: ESI
Fragmentation mode: CID
Collision energy: 10
Column name: BEH C18 1.7um, 2.1x100mm, Waters
Retention time: 0.603 min
Base peak: 181.0726
Precursor m/z: 181.0718
Precursor type: [M-H]-
m/z	relative intensity
58.0063	2
59.0141	19
71.0144	36
73.03	20
89.0248	46
101.0244	10
115.0402	4
180.0637	2
181.0727	999
