Mass spectrum: Ala-Phe; LC-ESI-QTOF; MS2; CE: 40; R=; [M+H]+
Name: Ala-Phe
Name: (2S)-2-[[(2S)-2-azaniumylpropanoyl]amino]-3-phenylpropanoate
Formula: C12H16N2O3
Exact mass: 236.1161
SMILES: C[C@H](N)C(=O)N[C@@H](Cc1ccccc1)C(O)=O
InChI: InChI=1S/C12H16N2O3/c1-8(13)11(15)14-10(12(16)17)7-9-5-3-2-4-6-9/h2-6,8,10H,7,13H2,1H3,(H,14,15)(H,16,17)/t8-,10-/m0/s1
Instrument: maXis plus UHR-ToF-MS, Bruker Daltonics
Instrument type: LC-ESI-QTOF
Ms type: MS2
Ion mode: POSITIVE
Ionization: ESI
Fragmentation mode: CID
Collision energy: 40
Column name: BEH C18 1.7um, 2.1x100mm, Waters
Retention time: 2.425 min
Base peak: 237.1227
Precursor m/z: 237.1234
Precursor type: [M+H]+
m/z	relative intensity
74.0227	1
79.0536	118
80.0488	3
91.0539	59
93.0692	153
95.049	12
97.0727	1
102.0463	1
103.0541	473
104.0577	24
105.0699	2
107.0484	47
108.0521	4
117.057	1
118.0645	3
119.0731	1
120.0808	999
121.0841	63
122.0828	1
129.0688	1
131.0499	5
149.0574	1
166.0861	9
167.0923	2
