Mass spectrum: Biotin; LC-ESI-QTOF; MS2; CE: 40; R=; [M+H]+
Name: Biotin
Name: 5-[(3aS,4S,6aR)-2-oxo-1,3,3a,4,6,6a-hexahydrothieno[3,4-d]imidazol-4-yl]pentanoic acid
Formula: C10H16N2O3S
Exact mass: 244.08816
SMILES: O=C1N[C@@H]2[C@@H](SC[C@@H]2N1)CCCCC(=O)O
InChI: InChI=1S/C10H16N2O3S/c13-8(14)4-2-1-3-7-9-6(5-16-7)11-10(15)12-9/h6-7,9H,1-5H2,(H,13,14)(H2,11,12,15)/t6-,7-,9-/m0/s1
Instrument: maXis plus UHR-ToF-MS, Bruker Daltonics
Instrument type: LC-ESI-QTOF
Ms type: MS2
Ion mode: POSITIVE
Ionization: ESI
Fragmentation mode: CID
Collision energy: 40
Column name: BEH C18 1.7um, 2.1x100mm, Waters
Retention time: 2.811 min
Base peak: 245.095
Precursor m/z: 245.0954
Precursor type: [M+H]+
m/z	relative intensity
56.0135	9
59.0478	22
67.0411	62
69.0325	19
69.0442	60
69.1393	10
70.0272	81
71.0237	5
71.0482	38
72.043	11
73.0101	113
73.064	19
75.1124	7
76.021	164
77.0381	76
78.0178	5
79.0536	765
80.0158	7
80.029	12
80.0489	91
81.0548	29
81.0693	301
82.0279	237
83.0484	66
85.0101	193
85.0391	63
85.063	10
86.0059	30
86.0403	6
86.0586	7
87.0257	77
88.0207	7
88.0383	9
89.0602	4
89.9753	6
91.0537	188
93.0325	7
93.0569	13
93.0693	86
94.0652	44
94.0729	16
95.0487	43
95.072	13
96.0441	10
96.0803	25
97.0101	569
97.0393	999
97.97	8
98.0136	29
98.036	10
98.0439	32
98.0592	4
98.0962	15
99.0064	30
99.0256	41
99.0915	6
100.0069	12
100.0216	109
100.0762	22
100.9692	6
101.0229	10
101.042	35
102.0004	14
102.0192	7
102.0453	5
103.0247	5
105.0575	18
105.07	328
105.9738	6
106.0277	7
106.0736	46
107.0509	5
107.0742	21
107.0846	35
108.0442	21
108.0803	49
109.0102	11
109.0637	27
109.0836	5
110.988	5
111.026	101
111.0522	13
111.058	16
112.0208	50
113.0166	7
113.0412	26
114.0181	9
114.0375	15
114.0913	11
115.0394	12
115.0539	15
116.0525	6
116.0631	20
118.0638	17
119.0614	5
120.0214	6
120.0444	6
120.0807	9
121.0663	28
122.0608	11
122.0965	26
123.0265	204
123.0897	12
124.0769	6
125.0279	35
125.0409	46
126.0458	6
126.9972	5
130.0627	7
131.0266	11
131.073	11
132.0815	17
133.0893	18
134.0111	5
134.0693	6
136.022	6
136.0771	6
138.0005	23
138.0357	5
138.0952	10
139.0419	8
140.1099	5
141.0539	7
142.0312	5
143.0275	6
143.074	5
143.9898	4
148.0746	19
149.0418	40
149.071	6
149.1112	6
150.043	11
150.0902	6
151.0397	10
151.0861	36
152.0321	5
152.0926	25
153.1045	39
154.0017	5
154.0648	9
155.0273	4
156.0478	13
156.0836	36
157.0872	7
158.0308	6
158.0464	7
158.0631	6
158.994	6
162.0114	6
163.0867	24
163.1028	8
164.0164	9
164.0519	9
165.0382	13
165.053	8
165.0895	10
165.1032	30
166.0109	8
166.0685	146
167.0518	46
167.0736	22
168.0534	18
168.1028	5
169.9659	6
174.0396	5
176.0926	5
182.0627	12
183.0635	4
184.0593	6
184.0791	110
185.0721	23
192.0485	37
194.0415	6
199.0908	64
200.0931	10
204.0407	4
209.0745	37
210.073	9
227.0853	112
228.086	10
231.0705	4
