Mass spectrum: Indolacetic acid; LC-ESI-QTOF; MS2; CE: 10; R=; [M+H]+
Name: Indolacetic acid
Name: indole-3-acetic acid
Name: 2-(1H-indol-3-yl)acetic acid
Formula: C10H9NO2
Exact mass: 175.0633
SMILES: OC(=O)CC1=CNC2=C1C=CC=C2
InChI: InChI=1S/C10H9NO2/c12-10(13)5-7-6-11-9-4-2-1-3-8(7)9/h1-4,6,11H,5H2,(H,12,13)
Instrument: maXis plus UHR-ToF-MS, Bruker Daltonics
Instrument type: LC-ESI-QTOF
Ms type: MS2
Ion mode: POSITIVE
Ionization: ESI
Fragmentation mode: CID
Collision energy: 10
Column name: BEH C18 1.7um, 2.1x100mm, Waters
Retention time: 3.517 min
Base peak: 176.0698
Precursor m/z: 176.0706
Precursor type: [M+H]+
m/z	relative intensity
50.0475	1
51.0789	1
60.081	1
61.0635	1
68.0586	2
69.07	1
77.0379	1
80.0261	1
96.0775	1
97.9995	2
103.0512	3
107.0334	1
118.0251	1
118.0533	1
119.0482	1
119.0595	1
130.0646	311
131.0679	29
132.0806	1
136.0644	1
150.0681	1
158.0585	4
159.0624	4
162.0548	1
172.0703	1
173.0717	1
175.0618	81
176.0697	999
178.075	4
