Mass spectrum: D-sphingosine; LC-ESI-QTOF; MS2; CE: 10; R=; [M+H]+
Name: D-sphingosine
Name: sphingosine
Name: (E,2S,3R)-2-aminooctadec-4-ene-1,3-diol
Formula: C18H37NO2
Exact mass: 299.2824
SMILES: CCCCCCCCCCCCC/C=C/[C@H]([C@H](CO)N)O
InChI: InChI=1S/C18H37NO2/c1-2-3-4-5-6-7-8-9-10-11-12-13-14-15-18(21)17(19)16-20/h14-15,17-18,20-21H,2-13,16,19H2,1H3/b15-14+/t17-,18+/m0/s1
Instrument: maXis plus UHR-ToF-MS, Bruker Daltonics
Instrument type: LC-ESI-QTOF
Ms type: MS2
Ion mode: POSITIVE
Ionization: ESI
Fragmentation mode: CID
Collision energy: 10
Column name: BEH C18 1.7um, 2.1x100mm, Waters
Retention time: 5.325 min
Base peak: 282.2787
Precursor m/z: 300.2897
Precursor type: [M+H]+
m/z	relative intensity
81.0692	2
83.0849	1
93.0694	1
95.0846	2
97.1006	1
109.1004	1
121.1012	1
135.1168	1
211.205	13
247.242	1
252.2681	14
253.2711	1
264.2679	5
265.2521	5
266.2572	1
282.2787	999
283.2821	213
300.2892	262
302.295	4
