Mass spectrum: 1-Hydroxyphenanzine; LC-ESI-QTOF; MS2; CE: 40; R=; [M+H]+
Name: 1-Hydroxyphenanzine
Formula: C12H8N2O
Exact mass: 196.06366
SMILES: c1ccc2c(c1)nc3cccc(c3n2)O
InChI: InChI=1S/C12H8N2O/c15-11-7-3-6-10-12(11)14-9-5-2-1-4-8(9)13-10/h1-7,15H
Instrument: maXis plus UHR-ToF-MS, Bruker Daltonics
Instrument type: LC-ESI-QTOF
Ms type: MS2
Ion mode: POSITIVE
Ionization: ESI
Fragmentation mode: CID
Collision energy: 40
Column name: BEH C18 1.7um, 2.1x100mm, Waters
Retention time: 4.102 min
Base peak: 197.0707
Precursor m/z: 197.0709
Precursor type: [M+H]+
m/z	relative intensity
61.0071	1
68.9977	1
74.0148	3
75.0223	48
76.0176	8
76.0266	4
78.0331	87
79.0412	60
80.045	3
81.0328	2
82.028	1
89.0384	12
90.0332	2
90.0467	2
91.0541	15
92.049	37
93.0331	1
95.0489	161
96.044	23
99.0228	3
100.0181	1
101.0391	3
102.0337	48
104.0487	3
105.0444	52
106.0283	1
106.0482	3
107.0499	1
114.0467	5
115.0543	141
116.0499	13
116.0574	13
117.0576	4
119.0605	4
120.044	17
120.0678	1
125.0385	19
126.0351	3
126.0419	2
127.0548	1
128.0497	18
129.045	29
130.04	39
133.0627	1
135.0803	1
138.0545	1
140.049	10
141.0571	9
142.0532	4
142.0655	14
143.0486	1
143.0613	4
146.061	2
147.0561	2
148.0498	1
151.0416	4
152.0493	125
153.0447	64
154.0475	6
166.0525	2
167.0603	18
168.0679	786
169.0755	999
170.06	29
171.0558	14
172.0622	1
177.043	2
178.0529	3
179.0601	277
180.0632	36
196.0626	1
197.0708	122
