Mass spectrum: ascr#1; LC-ESI-QTOF; MS2; CE: 20; R=; [M+H]+
Name: ascr#1
Name: daumone
Name: (6R)-6-[(2R,3R,5R,6S)-3,5-dihydroxy-6-methyloxan-2-yl]oxyheptanoic acid
Formula: C13H24O6
Exact mass: 276.1573
SMILES: C[C@H](CCCCC(O)=O)O[C@@H]1O[C@@H](C)[C@H](O)C[C@H]1O
InChI: InChI=1S/C13H24O6/c1-8(5-3-4-6-12(16)17)18-13-11(15)7-10(14)9(2)19-13/h8-11,13-15H,3-7H2,1-2H3,(H,16,17)/t8-,9+,10-,11-,13-/m1/s1
Instrument: maXis plus UHR-ToF-MS, Bruker Daltonics
Instrument type: LC-ESI-QTOF
Ms type: MS2
Ion mode: POSITIVE
Ionization: ESI
Fragmentation mode: CID
Collision energy: 20
Column name: BEH C18 1.7um, 2.1x100mm, Waters
Retention time: 3.037 min
Base peak: 88.0753
Precursor m/z: 277.1646
Precursor type: [M+H]+
m/z	relative intensity
55.0178	35
67.0537	18
69.034	27
69.0695	166
83.0854	999
85.0652	41
97.0641	35
98.0687	17
111.08	322
115.0744	15
129.0904	512
147.0772	33
147.101	39
221.1163	19
