Mass spectrum: Glycodeoxycholic acid; LC-ESI-QTOF; MS2; CE: 20; R=; [M+H]+
Name: Glycodeoxycholic acid
Name: 2-[[(4R)-4-[(3R,8R,9S,10S,12S,13R,14S,17R)-3,12-dihydroxy-10,13-dimethyl-2,3,4,5,6,7,8,9,11,12,14,15,16,17-tetradecahydro-1H-cyclopenta[a]phenanthren-17-yl]pentanoyl]amino]acetic acid
Formula: C26H43NO5
Exact mass: 449.3141
SMILES: C[C@H](CCC(=O)NCC(=O)O)[C@H]1CC[C@@H]2[C@@]1([C@H](C[C@H]3[C@H]2CCC4[C@@]3(CC[C@H](C4)O)C)O)C
InChI: InChI=1S/C26H43NO5/c1-15(4-9-23(30)27-14-24(31)32)19-7-8-20-18-6-5-16-12-17(28)10-11-25(16,2)21(18)13-22(29)26(19,20)3/h15-22,28-29H,4-14H2,1-3H3,(H,27,30)(H,31,32)/t15-,16?,17-,18+,19-,20+,21+,22+,25+,26-/m1/s1
Instrument: maXis plus UHR-ToF-MS, Bruker Daltonics
Instrument type: LC-ESI-QTOF
Ms type: MS2
Ion mode: POSITIVE
Ionization: ESI
Fragmentation mode: CID
Collision energy: 20
Column name: BEH C18 1.7um, 2.1x100mm, Waters
Retention time: 4.819 min
Base peak: 450.3211
Precursor m/z: 450.3214
Precursor type: [M+H]+
m/z	relative intensity
81.0692	1
85.0643	1
107.0851	2
121.1019	1
135.1168	3
147.1167	1
158.0809	3
161.1325	2
172.0979	1
175.1475	2
189.1624	1
201.1634	1
203.179	1
211.1471	2
212.1278	1
215.1789	8
216.1829	1
224.1272	1
225.1644	1
229.1576	3
229.1949	2
238.1426	1
241.1952	1
243.2103	2
250.1427	1
252.1598	3
257.1882	1
264.1606	1
266.1754	2
278.1745	5
279.176	1
280.191	3
292.1915	2
304.1913	7
305.1929	1
306.2068	2
318.2069	2
320.2238	1
321.2578	27
322.2601	4
332.223	4
339.2683	93
340.2717	19
341.2745	1
357.2778	1
396.2912	2
414.3002	999
415.3039	364
416.3071	49
417.3088	1
432.3107	98
433.3144	32
434.3174	3
450.3223	11
