Mass spectrum: 5?-CHOLANIC ACID-3?-OL-6_7-DIONE; LC-ESI-QTOF; MS2; CE: 10; R=; [M+H]+
Name: 5?-CHOLANIC ACID-3?-OL-6_7-DIONE
Formula: C24H36O5
Exact mass: 404.2563
SMILES: C[C@H](CCC(=O)O)[C@H]1CC[C@@H]2[C@@]1(CC[C@H]3[C@H]2C(=O)C(=O)[C@H]4[C@@]3(CC[C@H](C4)O)C)C
InChI: InChI=1S/C24H36O5/c1-13(4-7-19(26)27)15-5-6-16-20-17(9-11-23(15,16)2)24(3)10-8-14(25)12-18(24)21(28)22(20)29/h13-18,20,25H,4-12H2,1-3H3,(H,26,27)/t13-,14-,15-,16+,17+,18+,20+,23-,24-/m1/s1
Instrument: maXis plus UHR-ToF-MS, Bruker Daltonics
Instrument type: LC-ESI-QTOF
Ms type: MS2
Ion mode: POSITIVE
Ionization: ESI
Fragmentation mode: CID
Collision energy: 10
Column name: BEH C18 1.7um, 2.1x100mm, Waters
Retention time: 4.983 min
Base peak: 405.2627
Precursor m/z: 405.2636
Precursor type: [M+H]+
m/z	relative intensity
175.1104	1
227.1437	1
323.2381	1
333.2195	10
334.22	2
341.2472	4
351.2312	112
352.2345	19
353.2384	1
369.2414	249
370.245	50
371.2475	5
387.2523	252
388.2553	56
389.2583	5
405.2627	999
407.2689	35
