Mass spectrum: L-Glutamic acid; LC-ESI-QTOF; MS2; CE: 10; R=; [M+H]+
Name: L-Glutamic acid
Name: (2S)-2-azaniumyl-5-hydroxy-5-oxopentanoate
Formula: C5H9NO4
Exact mass: 147.05316
SMILES: C(CC(=O)O)[C@@H](C(=O)O)N
InChI: InChI=1S/C5H9NO4/c6-3(5(9)10)1-2-4(7)8/h3H,1-2,6H2,(H,7,8)(H,9,10)/t3-/m0/s1
Instrument: maXis plus UHR-ToF-MS, Bruker Daltonics
Instrument type: LC-ESI-QTOF
Ms type: MS2
Ion mode: POSITIVE
Ionization: ESI
Fragmentation mode: CID
Collision energy: 10
Column name: BEH C18 1.7um, 2.1x100mm, Waters
Retention time: 0.590 min
Base peak: 148.0599
Precursor m/z: 148.0604
Precursor type: [M+H]+
m/z	relative intensity
60.0802	2
77.9979	2
84.0442	999
85.0279	10
86.0479	2
99.0429	2
102.0549	377
127.9734	2
130.0496	172
131.0328	3
131.0531	17
134.0334	2
136.0709	2
148.0596	519
