Mass spectrum: D-Glucose-6-phosphate; LC-ESI-QTOF; MS2; CE: 10; R=; [M-H]-
Name: D-Glucose-6-phosphate
Name: Robison ester
Name: [(2R,3S,4S,5R)-3,4,5,6-tetrahydroxyoxan-2-yl]methyl dihydrogen phosphate
Formula: C6H13O9P
Exact mass: 260.0297
SMILES: O[C@H]1[C@H](O)[C@@H](COP(O)(O)=O)OC(O)[C@@H]1O
InChI: InChI=1S/C6H13O9P/c7-3-2(1-14-16(11,12)13)15-6(10)5(9)4(3)8/h2-10H,1H2,(H2,11,12,13)/t2-,3-,4+,5-,6?/m1/s1
Instrument: maXis plus UHR-ToF-MS, Bruker Daltonics
Instrument type: LC-ESI-QTOF
Ms type: MS2
Ion mode: NEGATIVE
Ionization: ESI
Fragmentation mode: CID
Collision energy: 10
Column name: BEH C18 1.7um, 2.1x100mm, Waters
Retention time: 0.660 min
Base peak: 259.0221
Precursor m/z: 259.0224
Precursor type: [M-H]-
m/z	relative intensity
96.9722	142
168.9888	16
199.0022	62
259.0231	999
