Mass spectrum: Homovanillic acid; LC-ESI-QTOF; MS2; CE: 20; R=; [M+H]+
Name: Homovanillic acid
Name: 2-(4-hydroxy-3-methoxyphenyl)acetic acid
Formula: C9H10O4
Exact mass: 182.0579
SMILES: O=C(O)Cc1cc(OC)c(O)cc1
InChI: InChI=1S/C9H10O4/c1-13-8-4-6(5-9(11)12)2-3-7(8)10/h2-4,10H,5H2,1H3,(H,11,12)
Instrument: maXis plus UHR-ToF-MS, Bruker Daltonics
Instrument type: LC-ESI-QTOF
Ms type: MS2
Ion mode: POSITIVE
Ionization: ESI
Fragmentation mode: CID
Collision energy: 20
Column name: BEH C18 1.7um, 2.1x100mm, Waters
Retention time: 2.844 min
Base peak: 137.0599
Precursor m/z: 183.0652
Precursor type: [M+H]+
m/z	relative intensity
77.0384	7
78.0462	2
81.0693	10
85.0601	2
91.0538	19
93.0342	4
94.0405	53
97.0613	2
100.0234	1
105.0341	4
105.0451	2
107.0713	1
109.028	41
109.065	7
115.0043	1
117.0336	1
122.0362	77
123.0397	2
136.0474	1
137.0595	999
138.0622	81
151.0397	1
182.0569	5
