Mass spectrum: Dimethylphthalate; LC-ESI-QTOF; MS2; CE: 40; R=; [M+H]+
Name: Dimethylphthalate
Name: Dimethyl phthalate
Name: dimethyl benzene-1,2-dicarboxylate
Formula: C10H10O4
Exact mass: 194.05791
SMILES: O=C(OC)c1ccccc1C(=O)OC
InChI: InChI=1S/C10H10O4/c1-13-9(11)7-5-3-4-6-8(7)10(12)14-2/h3-6H,1-2H3
Instrument: maXis plus UHR-ToF-MS, Bruker Daltonics
Instrument type: LC-ESI-QTOF
Ms type: MS2
Ion mode: POSITIVE
Ionization: ESI
Fragmentation mode: CID
Collision energy: 40
Column name: BEH C18 1.7um, 2.1x100mm, Waters
Retention time: 4.112 min
Base peak: 163.0402
Precursor m/z: 195.0652
Precursor type: [M+H]+
m/z	relative intensity
67.0537	1
77.0392	999
81.0328	9
91.0537	14
92.025	649
93.0286	35
95.0485	448
96.0522	24
105.0332	166
105.0442	193
106.0369	10
107.0491	9
118.0654	1
120.0207	34
121.0239	2
133.0286	82
134.0322	5
135.0443	93
136.0475	7
138.0316	4
163.0386	45
164.0424	3
