Mass spectrum: L-Phenylalanine; LC-ESI-QTOF; MS2; CE: 20; R=; [M+H]+
Name: L-Phenylalanine
Name: (2S)-2-azaniumyl-3-phenylpropanoate
Formula: C9H11NO2
Exact mass: 165.07898
SMILES: c1ccc(cc1)C[C@@H](C(=O)O)N
InChI: InChI=1S/C9H11NO2/c10-8(9(11)12)6-7-4-2-1-3-5-7/h1-5,8H,6,10H2,(H,11,12)/t8-/m0/s1
Instrument: maXis plus UHR-ToF-MS, Bruker Daltonics
Instrument type: LC-ESI-QTOF
Ms type: MS2
Ion mode: POSITIVE
Ionization: ESI
Fragmentation mode: CID
Collision energy: 20
Column name: BEH C18 1.7um, 2.1x100mm, Waters
Retention time: 1.410 min
Base peak: 166.0857
Precursor m/z: 166.0863
Precursor type: [M+H]+
m/z	relative intensity
77.0382	8
79.0538	55
80.0491	1
91.0537	13
93.0694	63
94.0643	1
94.073	4
95.0485	5
102.0464	1
103.0541	203
104.0571	13
105.0437	1
105.0702	1
107.049	49
108.0521	3
118.0648	1
120.0807	999
121.084	76
131.0486	7
166.0867	1
