Mass spectrum: Docosahexaenoyl Ethanolamide; LC-ESI-QTOF; MS2; CE: 10; R=; [M+H]+
Name: Docosahexaenoyl Ethanolamide
Name: Synaptamide
Name: (4Z,7Z,10Z,13Z,16Z,19Z)-N-(2-hydroxyethyl)docosa-4,7,10,13,16,19-hexaenamide
Formula: C24H37NO2
Exact mass: 371.28243
SMILES: CC/C=C\C/C=C\C/C=C\C/C=C\C/C=C\C/C=C\CCC(=O)NCCO
InChI: InChI=1S/C24H37NO2/c1-2-3-4-5-6-7-8-9-10-11-12-13-14-15-16-17-18-19-20-21-24(27)25-22-23-26/h3-4,6-7,9-10,12-13,15-16,18-19,26H,2,5,8,11,14,17,20-23H2,1H3,(H,25,27)/b4-3-,7-6-,10-9-,13-12-,16-15-,19-18-
Instrument: maXis plus UHR-ToF-MS, Bruker Daltonics
Instrument type: LC-ESI-QTOF
Ms type: MS2
Ion mode: POSITIVE
Ionization: ESI
Fragmentation mode: CID
Collision energy: 10
Column name: BEH C18 1.7um, 2.1x100mm, Waters
Retention time: 6.335 min
Base peak: 88.0753
Precursor m/z: 372.2897
Precursor type: [M+H]+
m/z	relative intensity
60.0438	7
62.0019	23
91.0534	7
156.0313	10
163.0421	7
163.1448	12
171.1131	7
173.1313	24
175.113	10
175.1478	27
176.1556	8
177.1278	7
183.1238	12
185.1312	24
187.147	28
188.1532	13
189.1257	29
196.1327	20
196.1825	10
197.1322	15
199.112	21
201.1643	16
202.1723	8
208.1316	12
209.04	8
210.1478	6
211.148	8
213.1238	10
213.1602	28
215.1805	28
220.1326	11
223.1476	13
224.1632	16
225.1628	12
226.1797	6
227.1444	6
227.1809	41
228.0443	7
229.1569	10
230.1632	8
231.1737	11
235.0138	10
238.1791	10
241.161	23
242.1621	22
247.2884	13
250.179	30
251.1811	23
254.2049	9
262.179	8
264.1981	14
265.192	11
267.2129	8
269.2263	58
270.2286	13
274.2734	7
281.1968	8
283.2481	7
290.2111	15
291.2183	7
293.2251	37
293.2865	9
310.0666	11
311.2379	30
312.2351	9
339.0084	9
354.2786	31
354.3034	8
360.0794	13
371.2431	11
372.2903	999
374.2013	10
374.2954	26
