Mass spectrum: Docosahexaenoic acid; LC-ESI-QTOF; MS2; CE: 40; R=; [M+H]+
Name: Docosahexaenoic acid
Name: Docosahexaenoic acid (22:6(n-3))
Name: 4Z,7Z,10Z,13Z,16Z,19Z-Docosahexaenoic acid
Name: DHA
Formula: C22H32O2
Exact mass: 328.24023
SMILES: CC/C=C\C/C=C\C/C=C\C/C=C\C/C=C\C/C=C\CCC(=O)O
InChI: InChI=1S/C22H32O2/c1-2-3-4-5-6-7-8-9-10-11-12-13-14-15-16-17-18-19-20-21-22(23)24/h3-4,6-7,9-10,12-13,15-16,18-19H,2,5,8,11,14,17,20-21H2,1H3,(H,23,24)/b4-3-,7-6-,10-9-,13-12-,16-15-,19-18-
Instrument: maXis plus UHR-ToF-MS, Bruker Daltonics
Instrument type: LC-ESI-QTOF
Ms type: MS2
Ion mode: POSITIVE
Ionization: ESI
Fragmentation mode: CID
Collision energy: 40
Column name: BEH C18 1.7um, 2.1x100mm, Waters
Retention time: 6.780 min
Base peak: 88.075
Precursor m/z: 329.2475
Precursor type: [M+H]+
m/z	relative intensity
66.0427	36
67.0536	999
79.0634	31
81.0696	700
85.0287	40
86.0964	30
91.0537	713
92.0582	41
93.0696	466
95.0856	231
105.042	40
105.0701	115
107.086	236
109.0644	110
111.0808	40
113.0592	33
117.0662	100
119.1552	108
121.1003	198
129.0698	68
135.0767	36
138.1133	40
141.0688	48
145.1025	140
147.1159	156
151.1436	76
157.1018	86
158.106	33
161.1314	120
167.0856	36
171.1153	51
173.1421	53
175.1493	30
181.1021	30
185.134	33
187.1479	85
188.1508	30
189.1615	35
199.1485	46
200.0471	38
200.1508	31
201.1628	46
209.0248	33
212.1527	58
223.1493	65
225.126	38
227.1773	43
229.1598	36
245.0027	30
