Mass spectrum: Perlargonic acid; LC-ESI-QTOF; MS2; CE: 10; R=; [M+H]+
Name: Perlargonic acid
Name: nonanoic acid
Formula: C9H18O2
Exact mass: 158.1307
SMILES: CCCCCCCCC(=O)O
InChI: InChI=1S/C9H18O2/c1-2-3-4-5-6-7-8-9(10)11/h2-8H2,1H3,(H,10,11)
Instrument: maXis plus UHR-ToF-MS, Bruker Daltonics
Instrument type: LC-ESI-QTOF
Ms type: MS2
Ion mode: POSITIVE
Ionization: ESI
Fragmentation mode: CID
Collision energy: 10
Column name: BEH C18 1.7um, 2.1x100mm, Waters
Retention time: 5.185 min
Base peak: 159.1372
Precursor m/z: 159.138
Precursor type: [M+H]+
m/z	relative intensity
47.0855	2
57.0693	63
59.049	15
67.054	45
69.0693	131
71.0486	29
71.085	278
73.0288	2
73.0649	21
75.0436	102
79.0548	2
81.0696	84
83.0492	105
83.085	44
85.0646	12
85.1004	15
87.044	49
89.0594	999
89.9975	2
93.0692	4
95.0862	4
97.0643	36
97.1013	20
98.0686	7
99.0812	2
101.0596	43
103.0749	303
107.0694	6
111.0813	5
111.1177	4
114.0203	3
115.0188	1
117.0907	31
121.086	3
136.1125	2
139.1121	4
148.0515	4
149.1185	2
154.1298	2
159.1372	912
161.1411	8
172.003	1
175.0124	2
