Mass spectrum: Pentadecanoyl Ethanolamide; LC-ESI-QTOF; MS2; CE: 20; R=; [M+H]+
Name: Pentadecanoyl Ethanolamide
Name: Pentadecanoyl-EA
Name: N-(2-hydroxyethyl)pentadecanamide
Formula: C17H35NO2
Exact mass: 285.26678
SMILES: O=C(CCCCCCCCCCCCCC)NCCO
InChI: InChI=1S/C17H35NO2/c1-2-3-4-5-6-7-8-9-10-11-12-13-14-17(20)18-15-16-19/h19H,2-16H2,1H3,(H,18,20)
Instrument: maXis plus UHR-ToF-MS, Bruker Daltonics
Instrument type: LC-ESI-QTOF
Ms type: MS2
Ion mode: POSITIVE
Ionization: ESI
Fragmentation mode: CID
Collision energy: 20
Column name: BEH C18 1.7um, 2.1x100mm, Waters
Retention time: 6.414 min
Base peak: 286.2736
Precursor m/z: 286.2741
Precursor type: [M+H]+
m/z	relative intensity
57.0695	19
62.0595	999
67.0537	6
69.0696	12
71.0854	54
81.0696	13
83.0853	7
85.101	21
95.0854	15
96.0887	1
97.1006	2
99.1161	1
109.1013	5
123.1159	1
207.2106	1
225.2211	6
268.2632	33
269.2473	108
286.2738	46
