Mass spectrum: 2-Hydroxyphenylacetic acid; LC-ESI-QTOF; MS2; CE: 20; R=; [M+H]+
Name: 2-Hydroxyphenylacetic acid
Name: 2-(2-hydroxyphenyl)acetic acid
Formula: C8H8O3
Exact mass: 152.0473
SMILES: OC(=O)Cc1ccccc1O
InChI: InChI=1S/C8H8O3/c9-7-4-2-1-3-6(7)5-8(10)11/h1-4,9H,5H2,(H,10,11)
Instrument: maXis plus UHR-ToF-MS, Bruker Daltonics
Instrument type: LC-ESI-QTOF
Ms type: MS2
Ion mode: POSITIVE
Ionization: ESI
Fragmentation mode: CID
Collision energy: 20
Column name: BEH C18 1.7um, 2.1x100mm, Waters
Retention time: 3.019 min
Base peak: 107.0489
Precursor m/z: 153.0546
Precursor type: [M+H]+
m/z	relative intensity
77.038	59
78.0458	6
80.0579	10
85.0763	2
93.0708	3
95.0482	57
105.0431	15
106.0408	5
107.0489	999
108.0519	64
135.0438	16
