Mass spectrum: 3-Methyladipic acid; LC-ESI-QTOF; MS2; CE: 20; R=; [M+H]+
Name: 3-Methyladipic acid
Name: 3-methylhexanedioic acid
Formula: C7H12O4
Exact mass: 160.0736
SMILES: CC(CCC(O)=O)CC(O)=O
InChI: InChI=1S/C7H12O4/c1-5(4-7(10)11)2-3-6(8)9/h5H,2-4H2,1H3,(H,8,9)(H,10,11)
Instrument: maXis plus UHR-ToF-MS, Bruker Daltonics
Instrument type: LC-ESI-QTOF
Ms type: MS2
Ion mode: POSITIVE
Ionization: ESI
Fragmentation mode: CID
Collision energy: 20
Column name: BEH C18 1.7um, 2.1x100mm, Waters
Retention time: 2.711 min
Base peak: 69.0688
Precursor m/z: 161.0808
Precursor type: [M+H]+
m/z	relative intensity
67.0538	48
71.0486	15
71.0849	10
80.0588	8
81.0076	16
81.0696	75
97.0644	999
98.0678	76
105.0457	14
107.001	10
107.0483	11
115.0754	255
125.059	83
126.0641	10
143.0691	114
