Mass spectrum: 3-hydroxy-C12 homoserine lactone; LC-ESI-QTOF; MS2; CE: 20; R=; [M-H]-
Name: 3-hydroxy-C12 homoserine lactone
Name: 3-hydroxy-N-(2-oxooxolan-3-yl)dodecanamide
Formula: C16H29NO4
Exact mass: 299.2097
SMILES: CCCCCCCCCC(O)CC(=O)NC1CCOC1=O
InChI: InChI=1S/C16H29NO4/c1-2-3-4-5-6-7-8-9-13(18)12-15(19)17-14-10-11-21-16(14)20/h13-14,18H,2-12H2,1H3,(H,17,19)
Instrument: maXis plus UHR-ToF-MS, Bruker Daltonics
Instrument type: LC-ESI-QTOF
Ms type: MS2
Ion mode: NEGATIVE
Ionization: ESI
Fragmentation mode: CID
Collision energy: 20
Column name: BEH C18 1.7um, 2.1x100mm, Waters
Retention time: 5.057 min
Base peak: 298.2023
Precursor m/z: 298.2024
Precursor type: [M-H]-
m/z	relative intensity
68.0503	16
69.034	11
71.0497	14
84.0459	261
98.0614	27
112.0408	999
113.0441	33
142.0512	485
143.0545	24
298.2023	8
