Mass spectrum: osas#9; LC-ESI-QTOF; MS2; CE: 20; R=; [M-H]-
Name: osas#9
Formula: C23H33NO10
Exact mass: 483.2104
SMILES: CC(CCC(O)=O)O[C@@H]1OC(C)[C@@H](CC1O)OC(=O)CCC(=O)NC[C@H](O)C1=CC=C(O)C=C1
InChI: InChI=1S/C23H33NO10/c1-13(3-9-21(29)30)32-23-17(26)11-19(14(2)33-23)34-22(31)10-8-20(28)24-12-18(27)15-4-6-16(25)7-5-15/h4-7,13-14,17-19,23,25-27H,3,8-12H2,1-2H3,(H,24,28)(H,29,30)/t13?,14?,17?,18-,19+,23+/m0/s1
Instrument: maXis plus UHR-ToF-MS, Bruker Daltonics
Instrument type: LC-ESI-QTOF
Ms type: MS2
Ion mode: NEGATIVE
Ionization: ESI
Fragmentation mode: CID
Collision energy: 20
Column name: BEH C18 1.7um, 2.1x100mm, Waters
Retention time: 3.104 min
Base peak: 482.1986
Precursor m/z: 482.2032
Precursor type: [M-H]-
m/z	relative intensity
159.1495	3
183.221	3
200.09	4
216.0713	37
217.0758	4
234.0817	52
235.0865	8
247.1231	999
248.1275	72
249.1328	8
318.1365	5
360.1832	5
363.087	3
389.1693	4
393.9516	5
395.1162	4
461.0537	4
464.1895	109
465.1926	35
482.1991	265
