Mass spectrum: N6-Methyladenosine; LC-ESI-QTOF; MS2; CE: 20; R=; [M+H]+
Name: N6-Methyladenosine
Name: (2R,3S,4R,5R)-2-(hydroxymethyl)-5-[6-(methylamino)purin-9-yl]oxolane-3,4-diol
Formula: C11H15N5O4
Exact mass: 281.1124
SMILES: CNc1c2c(ncn1)n(cn2)[C@H]3[C@@H]([C@@H]([C@H](O3)CO)O)O
InChI: InChI=1S/C11H15N5O4/c1-12-9-6-10(14-3-13-9)16(4-15-6)11-8(19)7(18)5(2-17)20-11/h3-5,7-8,11,17-19H,2H2,1H3,(H,12,13,14)/t5-,7-,8-,11-/m1/s1
Instrument: maXis plus UHR-ToF-MS, Bruker Daltonics
Instrument type: LC-ESI-QTOF
Ms type: MS2
Ion mode: POSITIVE
Ionization: ESI
Fragmentation mode: CID
Collision energy: 20
Column name: BEH C18 1.7um, 2.1x100mm, Waters
Retention time: 1.023 min
Base peak: 282.1198
Precursor m/z: 282.1197
Precursor type: [M+H]+
m/z	relative intensity
57.0325	2
61.0272	1
70.9996	1
73.0274	1
76.0034	1
85.0274	5
87.0424	1
106.9963	1
125.0356	1
144.0066	1
148.0615	3
149.1379	1
150.0768	999
152.0811	1
192.0886	1
282.1195	130
