Mass spectrum: 3-oxo-C6-homoserine lactone; LC-ESI-QTOF; MS2; CE: 10; R=; [M+H]+
Name: 3-oxo-C6-homoserine lactone
Name: Autoinducer 1
Name: 3-oxo-N-(2-oxooxolan-3-yl)hexanamide
Formula: C10H15NO4
Exact mass: 213.10011
SMILES: CCCC(=O)CC(=O)NC1CCOC1=O
InChI: InChI=1S/C10H15NO4/c1-2-3-7(12)6-9(13)11-8-4-5-15-10(8)14/h8H,2-6H2,1H3,(H,11,13)
Instrument: maXis plus UHR-ToF-MS, Bruker Daltonics
Instrument type: LC-ESI-QTOF
Ms type: MS2
Ion mode: POSITIVE
Ionization: ESI
Fragmentation mode: CID
Collision energy: 10
Column name: BEH C18 1.7um, 2.1x100mm, Waters
Retention time: 2.750 min
Base peak: 214.1072
Precursor m/z: 214.1074
Precursor type: [M+H]+
m/z	relative intensity
71.0483	145
74.023	5
84.0441	4
98.0599	15
102.0548	999
104.0584	3
113.0595	112
114.0626	5
126.0547	1
156.1014	28
157.1047	1
168.1021	25
169.1049	2
172.0966	3
186.1121	137
196.097	31
197.1005	3
214.1073	610
