Mass spectrum: N6-Isopentenyladenosine; LC-ESI-QTOF; MS2; CE: 20; R=; [M+H]+
Name: N6-Isopentenyladenosine
Name: Riboprine
Name: (2R,3S,4R,5R)-2-(hydroxymethyl)-5-[6-(3-methylbut-2-enylamino)purin-9-yl]oxolane-3,4-diol
Formula: C15H21N5O4
Exact mass: 335.1594
SMILES: CC(=CCNc1c2c(ncn1)n(cn2)[C@H]3[C@@H]([C@@H]([C@H](O3)CO)O)O)C
InChI: InChI=1S/C15H21N5O4/c1-8(2)3-4-16-13-10-14(18-6-17-13)20(7-19-10)15-12(23)11(22)9(5-21)24-15/h3,6-7,9,11-12,15,21-23H,4-5H2,1-2H3,(H,16,17,18)/t9-,11-,12-,15-/m1/s1
Instrument: maXis plus UHR-ToF-MS, Bruker Daltonics
Instrument type: LC-ESI-QTOF
Ms type: MS2
Ion mode: POSITIVE
Ionization: ESI
Fragmentation mode: CID
Collision energy: 20
Column name: BEH C18 1.7um, 2.1x100mm, Waters
Retention time: 3.145 min
Base peak: 336.167
Precursor m/z: 336.1666
Precursor type: [M+H]+
m/z	relative intensity
73.0277	1
85.0278	1
115.0393	1
133.0501	1
136.062	113
137.0648	5
148.0616	250
149.0645	13
204.1239	999
205.1271	125
206.1304	3
268.1043	3
280.1048	4
336.167	359
338.1721	5
