Mass spectrum: Homovanillic acid; LC-ESI-QTOF; MS2; CE: 10; R=; [M+H]+
Name: Homovanillic acid
Name: 2-(4-hydroxy-3-methoxyphenyl)acetic acid
Formula: C9H10O4
Exact mass: 182.0579
SMILES: O=C(O)Cc1cc(OC)c(O)cc1
InChI: InChI=1S/C9H10O4/c1-13-8-4-6(5-9(11)12)2-3-7(8)10/h2-4,10H,5H2,1H3,(H,11,12)
Instrument: maXis plus UHR-ToF-MS, Bruker Daltonics
Instrument type: LC-ESI-QTOF
Ms type: MS2
Ion mode: POSITIVE
Ionization: ESI
Fragmentation mode: CID
Collision energy: 10
Column name: BEH C18 1.7um, 2.1x100mm, Waters
Retention time: 2.844 min
Base peak: 137.0599
Precursor m/z: 183.0652
Precursor type: [M+H]+
m/z	relative intensity
63.0683	2
64.0183	1
64.063	2
72.0807	5
73.0281	1
78.0057	1
79.0549	2
82.077	1
91.9891	1
93.0342	1
96.9912	1
103.0022	2
107.0486	4
109.0283	1
118.9843	1
119.0371	1
122.0313	1
123.0395	3
126.0782	2
130.9862	1
132.0216	1
132.0327	2
135.0804	1
137.06	999
138.0631	108
151.003	1
153.0541	3
179.9928	3
181.0483	8
182.0574	164
183.0644	61
