Mass spectrum: Palmitoleoyl Ethanolamide; LC-ESI-QTOF; MS2; CE: 20; R=; [M+H]+
Name: Palmitoleoyl Ethanolamide
Name: Palmitoleoyl-EA
Name: (Z)-N-(2-hydroxyethyl)hexadec-9-enamide
Formula: C18H35NO2
Exact mass: 297.26678
SMILES: CCCCCC/C=C\CCCCCCCC(NCCO)=O
InChI: InChI=1S/C18H35NO2/c1-2-3-4-5-6-7-8-9-10-11-12-13-14-15-18(21)19-16-17-20/h7-8,20H,2-6,9-17H2,1H3,(H,19,21)/b8-7-
Instrument: maXis plus UHR-ToF-MS, Bruker Daltonics
Instrument type: LC-ESI-QTOF
Ms type: MS2
Ion mode: POSITIVE
Ionization: ESI
Fragmentation mode: CID
Collision energy: 20
Column name: BEH C18 1.7um, 2.1x100mm, Waters
Retention time: 6.261 min
Base peak: 298.2739
Precursor m/z: 298.2741
Precursor type: [M+H]+
m/z	relative intensity
46.0523	1
48.1875	2
53.047	1
53.1539	1
53.9974	1
57.0331	3
58.041	1
58.0779	2
58.1228	1
58.229	2
59.1062	1
60.045	4
64.0631	14
71.0482	17
71.0849	41
73.0275	3
79.0539	36
80.0579	1
80.0704	1
81.0693	225
83.0851	267
85.0514	1
85.0642	18
85.1007	21
87.08	2
88.0388	15
91.0537	3
91.0754	1
93.0696	45
94.0734	1
95.0852	130
96.0799	1
96.0892	9
97.0648	26
97.1007	122
99.045	2
99.0799	12
100.0749	1
100.1113	1
101.0964	2
107.0852	25
109.1015	39
110.0598	1
111.0802	9
111.117	36
113.0963	5
119.0855	1
119.1295	1
121.1013	51
122.1046	4
123.1164	15
124.1204	2
125.0959	3
125.1314	2
127.1113	2
129.1251	1
135.1167	21
136.1197	3
137.132	5
139.1122	5
140.1176	1
141.0893	1
141.1283	1
149.0471	1
149.1324	15
150.1363	1
151.1483	3
153.1285	6
158.1166	1
160.0832	1
163.1481	8
164.1523	1
165.1257	1
167.1403	2
170.0162	1
170.0477	1
171.1738	1
173.0481	1
175.0129	1
177.1637	8
178.1667	1
179.0611	2
179.0934	1
179.1793	1
181.1403	1
183.1385	1
186.1496	2
188.0235	1
190.1716	1
191.0703	1
192.2418	1
192.2819	1
193.194	1
197.085	1
199.0012	1
206.0141	2
207.0434	1
212.0438	2
212.2393	1
214.2117	1
215.2127	1
217.1948	1
219.2111	71
220.2009	1
220.2141	11
221.1908	1
225.2309	1
228.2791	1
229.1532	1
229.2394	1
230.1282	1
231.0564	1
232.2124	1
232.2512	2
236.2704	1
237.2211	97
238.1166	1
238.2238	13
239.1881	1
240.1875	1
242.2596	1
246.2108	1
248.0488	1
252.2575	1
253.0949	1
255.1258	1
255.232	1
256.2629	1
260.2199	1
263.0093	1
264.2398	1
267.1812	1
267.2805	1
279.2515	1
280.2638	383
281.2476	965
284.0805	1
298.2744	999
