Mass spectrum: alpha-Hydroxyhippuric acid; LC-ESI-QTOF; MS2; CE: 20; R=; [M-H]-
Name: alpha-Hydroxyhippuric acid
Name: 2-benzamido-2-hydroxyacetic acid
Formula: C9H9NO4
Exact mass: 195.0532
SMILES: OC(NC(=O)c1ccccc1)C(O)=O
InChI: InChI=1S/C9H9NO4/c11-7(10-8(12)9(13)14)6-4-2-1-3-5-6/h1-5,8,12H,(H,10,11)(H,13,14)
Instrument: maXis plus UHR-ToF-MS, Bruker Daltonics
Instrument type: LC-ESI-QTOF
Ms type: MS2
Ion mode: NEGATIVE
Ionization: ESI
Fragmentation mode: CID
Collision energy: 20
Column name: BEH C18 1.7um, 2.1x100mm, Waters
Retention time: 3.109 min
Base peak: 194.0465
Precursor m/z: 194.0459
Precursor type: [M-H]-
m/z	relative intensity
65.0396	7
74.0248	18
93.0347	999
94.0385	17
100.0042	4
121.0294	3
123.0464	1
150.0566	194
194.0468	23
