Mass spectrum: Sinapinic acid; LC-ESI-QTOF; MS2; CE: 20; R=; [M+H]+
Name: Sinapic acid
Name: 3,5-dimethoxy-4-hydroxycinnamic acid
Name: 3-(4-hydroxy-3,5-dimethoxy-phenyl)prop-2-enoic acid
Formula: C11H12O5
Exact mass: 224.06847
SMILES: COC1=CC(=CC(=C1O)OC)/C=C/C(=O)O
InChI: InChI=1S/C11H12O5/c1-15-8-5-7(3-4-10(12)13)6-9(16-2)11(8)14/h3-6,14H,1-2H3,(H,12,13)/b4-3+
Instrument: maXis plus UHR-ToF-MS, Bruker Daltonics
Instrument type: LC-ESI-QTOF
Ms type: MS2
Ion mode: POSITIVE
Ionization: ESI
Fragmentation mode: CID
Collision energy: 20
Column name: BEH C18 1.7um, 2.1x100mm, Waters
Retention time: 3.156 min
Base peak: 207.0644
Precursor m/z: 225.0757
Precursor type: [M+H]+
m/z	relative intensity
67.0541	1
71.999	1
75.0227	1
77.038	9
78.0427	2
79.054	7
81.0696	1
83.0813	1
89.0101	1
89.0387	1
91.0539	231
92.0577	9
93.0342	3
93.0697	10
94.0739	2
95.0486	20
95.0603	1
96.0327	1
96.0525	2
97.1008	1
99.0096	1
101.0378	1
103.0537	27
105.0297	1
105.0457	1
105.0707	2
106.0423	1
107.0486	4
115.0387	1
118.0418	5
119.0491	304
120.0528	22
121.0294	1
121.0641	8
121.0858	1
122.0679	1
123.0429	31
123.9877	1
124.0487	4
126.0685	1
127.0275	1
127.0422	1
129.0338	2
131.0005	1
131.0486	2
132.0216	2
133.0296	3
134.0322	1
140.0469	2
145.0257	1
146.0352	4
147.0436	309
148.0471	30
149.0225	12
149.0587	4
151.0294	1
151.0757	1
155.0699	19
156.0729	1
157.0396	9
159.0187	1
159.0326	1
160.015	1
161.0204	2
162.0303	2
163.0384	6
163.0744	1
164.0462	25
166.0265	1
166.0598	1
167.0713	1
168.0509	1
169.0014	1
173.0227	1
174.0296	8
175.0384	999
176.042	100
177.017	9
179.0701	42
180.0731	2
181.0482	2
181.085	2
183.0653	32
184.0679	2
191.0326	1
192.0411	451
193.0465	33
194.0446	3
195.0533	1
207.0648	809
208.0682	83
209.0435	9
209.069	9
224.0679	22
