Mass spectrum: 4-Hydroxybenzoic acid; LC-ESI-QTOF; MS2; CE: 40; R=; [M+H]+
Name: 4-Hydroxybenzoic acid
Formula: C7H6O3
Exact mass: 138.0317
SMILES: OC(=O)C1=CC=C(O)C=C1
InChI: InChI=1S/C7H6O3/c8-6-3-1-5(2-4-6)7(9)10/h1-4,8H,(H,9,10)
Instrument: maXis plus UHR-ToF-MS, Bruker Daltonics
Instrument type: LC-ESI-QTOF
Ms type: MS2
Ion mode: POSITIVE
Ionization: ESI
Fragmentation mode: CID
Collision energy: 40
Column name: BEH C18 1.7um, 2.1x100mm, Waters
Retention time: 2.548 min
Base peak: 468.0135
Precursor m/z: 139.039
Precursor type: [M+H]+
m/z	relative intensity
50.015	64
66.0332	39
77.0383	999
79.0541	34
82.0374	45
95.049	480
105.0443	133
121.0293	58
