Mass spectrum: L-Histidine; LC-ESI-QTOF; MS2; CE: 20; R=; [M+H]+
Name: L-Histidine
Name: (2S)-2-azaniumyl-3-(1H-imidazol-5-yl)propanoate
Formula: C6H9N3O2
Exact mass: 155.06948
SMILES: c1c([nH]cn1)C[C@@H](C(=O)O)N
InChI: InChI=1S/C6H9N3O2/c7-5(6(10)11)1-4-2-8-3-9-4/h2-3,5H,1,7H2,(H,8,9)(H,10,11)/t5-/m0/s1
Instrument: maXis plus UHR-ToF-MS, Bruker Daltonics
Instrument type: LC-ESI-QTOF
Ms type: MS2
Ion mode: POSITIVE
Ionization: ESI
Fragmentation mode: CID
Collision energy: 20
Column name: BEH C18 1.7um, 2.1x100mm, Waters
Retention time: 0.549 min
Base peak: 156.0762
Precursor m/z: 156.0768
Precursor type: [M+H]+
m/z	relative intensity
67.0411	1
68.049	27
69.0445	1
74.0226	2
81.0443	32
82.0521	102
83.0599	391
84.0435	1
93.0445	168
94.0402	2
94.0481	9
95.0602	151
96.0635	8
110.0711	999
111.0551	9
156.0763	28
