Mass spectrum: Catechin(+); LC-ESI-QTOF; MS2; CE: 40; R=; [M+H]+
Name: Catechin(+)
Name: (+)-catechin
Name: (2R,3S)-2-(3,4-dihydroxyphenyl)-3,4-dihydro-2H-chromene-3,5,7-triol
Formula: C15H14O6
Exact mass: 290.0790
SMILES: Oc1ccc(cc1O)[C@H]3Oc2cc(O)cc(O)c2C[C@@H]3O
InChI: InChI=1S/C15H14O6/c16-8-4-11(18)9-6-13(20)15(21-14(9)5-8)7-1-2-10(17)12(19)3-7/h1-5,13,15-20H,6H2/t13-,15+/m0/s1
Instrument: maXis plus UHR-ToF-MS, Bruker Daltonics
Instrument type: LC-ESI-QTOF
Ms type: MS2
Ion mode: POSITIVE
Ionization: ESI
Fragmentation mode: CID
Collision energy: 40
Column name: BEH C18 1.7um, 2.1x100mm, Waters
Retention time: 2.548 min
Base peak: 291.0866
Precursor m/z: 291.0863
Precursor type: [M+H]+
m/z	relative intensity
51.0227	22
59.0489	34
64.0889	11
67.0172	37
68.0365	14
71.0486	23
79.0538	30
83.0126	35
83.0483	175
86.0946	10
91.0536	245
93.0333	148
97.0276	74
99.0072	29
105.033	101
107.0494	36
109.0284	16
111.0098	32
111.0437	153
112.0484	22
115.0538	24
115.997	14
117.0346	13
119.049	174
123.0437	985
127.0384	15
130.0741	10
135.0448	43
139.0382	999
143.048	136
144.0537	12
145.0278	22
147.0436	668
148.0465	107
149.0601	34
150.0336	10
151.0224	12
151.0744	16
151.084	10
152.0453	17
152.0803	15
153.0267	10
153.0551	13
157.0656	14
159.0425	18
161.059	445
162.0623	59
163.0384	125
163.0595	12
165.0541	68
169.0615	23
169.0896	10
177.0523	65
179.0715	44
189.0553	82
189.1005	11
190.0847	21
193.9939	13
207.0634	24
225.0557	15
231.0637	19
245.0431	79
