Mass spectrum: 7-Methylxanthine; LC-ESI-QTOF; MS2; CE: 20; R=; [M+H]+
Name: 7-Methylxanthine
Name: 7-methyl-3H-purine-2,6-dione
Formula: C6H6N4O2
Exact mass: 166.0491
SMILES: Cn1cnc2[nH]c(=O)[nH]c(=O)c12
InChI: InChI=1S/C6H6N4O2/c1-10-2-7-4-3(10)5(11)9-6(12)8-4/h2H,1H3,(H2,8,9,11,12)
Instrument: maXis plus UHR-ToF-MS, Bruker Daltonics
Instrument type: LC-ESI-QTOF
Ms type: MS2
Ion mode: POSITIVE
Ionization: ESI
Fragmentation mode: CID
Collision energy: 20
Column name: BEH C18 1.7um, 2.1x100mm, Waters
Retention time: 0.819 min
Base peak: 167.0558
Precursor m/z: 167.0564
Precursor type: [M+H]+
m/z	relative intensity
69.044	58
79.0267	8
81.044	6
96.0553	39
97.0374	6
124.0498	243
125.0563	14
126.0048	6
142.0603	122
148.0147	14
149.0456	19
150.0291	147
154.0347	10
165.9989	13
167.0558	999
169.0363	5
