Mass spectrum: L-Tyrosine; LC-ESI-QTOF; MS2; CE: 10; R=; [M+H]+
Name: L-Tyrosine
Name: (2S)-2-amino-3-(4-hydroxyphenyl)propanoic acid
Formula: C9H11NO3
Exact mass: 181.07389
SMILES: c1cc(ccc1C[C@@H](C(=O)O)N)O
InChI: InChI=1S/C9H11NO3/c10-8(9(12)13)5-6-1-3-7(11)4-2-6/h1-4,8,11H,5,10H2,(H,12,13)/t8-/m0/s1
Instrument: maXis plus UHR-ToF-MS, Bruker Daltonics
Instrument type: LC-ESI-QTOF
Ms type: MS2
Ion mode: POSITIVE
Ionization: ESI
Fragmentation mode: CID
Collision energy: 10
Column name: BEH C18 1.7um, 2.1x100mm, Waters
Retention time: 0.709 min
Base peak: 182.0807
Precursor m/z: 182.0812
Precursor type: [M+H]+
m/z	relative intensity
58.0037	1
60.9921	1
61.9874	2
63.0072	1
74.0148	2
91.0539	5
93.0205	1
95.0492	3
95.9842	1
104.0449	1
105.0344	1
119.0487	11
123.0442	14
129.0893	2
136.075	136
141.9896	1
147.0433	44
148.0476	7
155.0588	1
163.085	1
165.054	999
168.066	1
173.0807	1
182.0807	584
184.0856	2
