Mass spectrum: L-Cystathione; LC-ESI-QTOF; MS2; CE: 20; R=; [M-H]-
Name: L-Cystathione
Name: L-cystathionine
Name: (2S)-2-azaniumyl-4-[(2R)-2-azaniumyl-2-carboxylatoethyl]sulfanylbutanoate
Formula: C7H14N2O4S
Exact mass: 222.0674
SMILES: C(CSC[C@@H](C(=O)O)N)[C@@H](C(=O)O)N
InChI: InChI=1S/C7H14N2O4S/c8-4(6(10)11)1-2-14-3-5(9)7(12)13/h4-5H,1-3,8-9H2,(H,10,11)(H,12,13)/t4-,5-/m0/s1
Instrument: maXis plus UHR-ToF-MS, Bruker Daltonics
Instrument type: LC-ESI-QTOF
Ms type: MS2
Ion mode: NEGATIVE
Ionization: ESI
Fragmentation mode: CID
Collision energy: 20
Column name: BEH C18 1.7um, 2.1x100mm, Waters
Retention time: 0.563 min
Base peak: 221.061
Precursor m/z: 221.0602
Precursor type: [M-H]-
m/z	relative intensity
86.0249	610
120.0117	999
134.0285	990
221.0602	511
