Mass spectrum: Arachidoyl Ethanolamide; LC-ESI-QTOF; MS2; CE: 40; R=; [M+H]+
Name: Arachidoyl Ethanolamide
Name: N-(2-hydroxyethyl)icosanamide
Formula: C22H45NO2
Exact mass: 355.34503
SMILES: CCCCCCCCCCCCCCCCCCCC(=O)NCCO
InChI: InChI=1S/C22H45NO2/c1-2-3-4-5-6-7-8-9-10-11-12-13-14-15-16-17-18-19-22(25)23-20-21-24/h24H,2-21H2,1H3,(H,23,25)
Instrument: maXis plus UHR-ToF-MS, Bruker Daltonics
Instrument type: LC-ESI-QTOF
Ms type: MS2
Ion mode: POSITIVE
Ionization: ESI
Fragmentation mode: CID
Collision energy: 40
Column name: BEH C18 1.7um, 2.1x100mm, Waters
Retention time: 7.769 min
Base peak: 356.3519
Precursor m/z: 356.3523
Precursor type: [M+H]+
m/z	relative intensity
52.0393	4
54.1282	4
58.0861	5
59.3313	4
61.0402	3
64.0637	5
66.2556	2
67.0536	363
68.0578	13
69.0693	201
71.0849	999
73.0276	9
79.0537	9
81.0692	221
83.085	99
85.1006	290
91.9999	4
93.0701	3
95.0852	196
97.0626	4
97.1013	39
101.0601	3
109.1013	26
111.1171	7
123.1137	4
124.1196	5
132.3264	4
150.0174	3
168.1359	3
168.2887	5
184.1445	5
191.0464	6
235.0738	2
258.2086	2
270.1106	6
283.3014	3
287.1382	4
333.2802	4
338.3414	326
339.3259	85
339.3448	69
340.0113	3
340.3508	5
