Mass spectrum: 2-Hydroxyphenylacetic acid; LC-ESI-QTOF; MS2; CE: 10; R=; [M+H]+
Name: 2-Hydroxyphenylacetic acid
Name: 2-(2-hydroxyphenyl)acetic acid
Formula: C8H8O3
Exact mass: 152.04734
SMILES: c1ccc(c(c1)CC(=O)O)O
InChI: InChI=1S/C8H8O3/c9-7-4-2-1-3-6(7)5-8(10)11/h1-4,9H,5H2,(H,10,11)
Instrument: maXis plus UHR-ToF-MS, Bruker Daltonics
Instrument type: LC-ESI-QTOF
Ms type: MS2
Ion mode: POSITIVE
Ionization: ESI
Fragmentation mode: CID
Collision energy: 10
Column name: BEH C18 1.7um, 2.1x100mm, Waters
Retention time: 3.035 min
Base peak: 107.0489
Precursor m/z: 153.0546
Precursor type: [M+H]+
m/z	relative intensity
95.0492	31
97.0656	2
104.0346	3
107.0488	999
108.052	67
135.0431	97
137.0483	2
153.0538	83
