Mass spectrum: 3-oxo-C10-homoserine lactone; LC-ESI-QTOF; MS2; CE: 20; R=; [M+H]+
Name: 3-oxo-C10-homoserine lactone
Name: N-(3-Oxodecanoyl)-DL-homoserine lactone
Name: 3-oxo-N-(2-oxooxolan-3-yl)decanamide
Formula: C14H23NO4
Exact mass: 269.16271
SMILES: CCCCCCCC(=O)CC(=O)NC1CCOC1=O
InChI: InChI=1S/C14H23NO4/c1-2-3-4-5-6-7-11(16)10-13(17)15-12-8-9-19-14(12)18/h12H,2-10H2,1H3,(H,15,17)
Instrument: maXis plus UHR-ToF-MS, Bruker Daltonics
Instrument type: LC-ESI-QTOF
Ms type: MS2
Ion mode: POSITIVE
Ionization: ESI
Fragmentation mode: CID
Collision energy: 20
Column name: BEH C18 1.7um, 2.1x100mm, Waters
Retention time: 4.607 min
Base peak: 270.1696
Precursor m/z: 270.17
Precursor type: [M+H]+
m/z	relative intensity
59.0479	2
67.0536	32
68.9965	2
69.07	1
70.0283	4
71.012	21
71.0483	1
81.0331	1
83.0485	1
83.0849	4
84.0439	46
85.0279	7
85.064	1
97.1009	1
98.0598	103
99.0442	2
99.0786	1
102.0546	999
109.1011	26
113.0597	3
123.1164	1
126.0541	2
127.1114	135
169.1217	597
170.1251	55
200.1642	3
210.1484	10
212.1641	57
213.1666	4
224.1649	23
225.1684	2
228.1599	10
242.1754	9
252.1591	11
270.1699	15
