Mass spectrum: Quercetin; LC-ESI-QTOF; MS2; CE: 20; R=; [M+H]+
Name: Quercetin
Name: 2-(3,4-dihydroxyphenyl)-3,5,7-trihydroxychromen-4-one
Formula: C15H10O7
Exact mass: 302.0427
SMILES: OC1=CC(O)=C2C(OC(=C(O)C2=O)C2=CC=C(O)C(O)=C2)=C1
InChI: InChI=1S/C15H10O7/c16-7-4-10(19)12-11(5-7)22-15(14(21)13(12)20)6-1-2-8(17)9(18)3-6/h1-5,16-19,21H
Instrument: maXis plus UHR-ToF-MS, Bruker Daltonics
Instrument type: LC-ESI-QTOF
Ms type: MS2
Ion mode: POSITIVE
Ionization: ESI
Fragmentation mode: CID
Collision energy: 20
Column name: BEH C18 1.7um, 2.1x100mm, Waters
Retention time: 3.696 min
Base peak: 303.05
Precursor m/z: 303.0499
Precursor type: [M+H]+
m/z	relative intensity
153.0179	2
165.0188	1
195.0286	1
201.053	1
229.049	4
247.061	1
257.0447	4
273.0395	4
274.0427	1
275.0538	1
285.0391	2
301.033	2
303.0498	999
305.0559	17
