Mass spectrum: Allocholic Acid; LC-ESI-QTOF; MS2; CE: 10; R=; [M+H]+
Name: Allocholic Acid
Name: (4R)-4-[(3R,5R,7R,8R,9S,10S,12S,13R,14S,17R)-3,7,12-trihydroxy-10,13-dimethyl-2,3,4,5,6,7,8,9,11,12,14,15,16,17-tetradecahydro-1H-cyclopenta[a]phenanthren-17-yl]pentanoic acid
Formula: C24H40O5
Exact mass: 408.2876
SMILES: C[C@H](CCC(=O)O)[C@H]1CC[C@@H]2[C@@]1([C@H](C[C@H]3[C@H]2[C@@H](C[C@@H]4[C@@]3(CC[C@H](C4)O)C)O)O)C
InChI: InChI=1S/C24H40O5/c1-13(4-7-21(28)29)16-5-6-17-22-18(12-20(27)24(16,17)3)23(2)9-8-15(25)10-14(23)11-19(22)26/h13-20,22,25-27H,4-12H2,1-3H3,(H,28,29)/t13-,14-,15-,16-,17+,18+,19-,20+,22+,23+,24-/m1/s1
Instrument: maXis plus UHR-ToF-MS, Bruker Daltonics
Instrument type: LC-ESI-QTOF
Ms type: MS2
Ion mode: POSITIVE
Ionization: ESI
Fragmentation mode: CID
Collision energy: 10
Column name: BEH C18 1.7um, 2.1x100mm, Waters
Retention time: 4.617 min
Base peak: 373.2734
Precursor m/z: 409.2949
Precursor type: [M+H]+
m/z	relative intensity
96.0807	2
104.1615	5
117.1648	3
128.0105	2
130.998	2
158.0676	2
161.0805	2
162.2926	2
165.056	2
177.0669	3
189.0908	2
191.0466	2
196.0495	2
197.2834	2
208.0979	2
209.092	2
212.2492	3
212.983	2
214.1431	5
228.0289	2
231.1178	2
231.2092	2
238.1159	2
244.1088	2
245.0233	2
251.9991	3
254.1585	2
255.1098	2
256.1926	4
257.2015	2
262.0607	3
267.0336	3
268.2037	3
270.1112	2
270.9877	2
273.0745	2
274.0825	3
278.2836	2
286.0726	4
287.0675	6
294.117	2
295.9768	2
301.9864	2
303.9736	4
304.0253	4
304.1742	4
305.0004	3
311.1784	4
314.2918	2
319.241	2
324.2111	2
336.2567	3
338.2601	2
340.1039	2
346.1704	3
349.1807	3
350.0109	2
355.0504	4
355.2636	84
356.2686	11
357.2682	3
368.2642	3
372.1826	2
373.2733	999
374.2771	252
375.302	2
376.2734	2
379.1742	2
381.2201	2
391.284	127
391.3069	9
392.285	27
393.2953	6
407.2502	3
409.2935	39
411.1875	2
412.1646	2
