Mass spectrum: 3-hydroxy-C8-homoserine lactone; LC-ESI-QTOF; MS2; CE: 20; R=; [M+H]+
Name: 3-hydroxy-C8-homoserine lactone
Name: 3-hydroxy-N-(2-oxooxolan-3-yl)octanamide
Formula: C12H21NO4
Exact mass: 243.14706
SMILES: CCCCCC(O)CC(=O)NC1CCOC1=O
InChI: InChI=1S/C12H21NO4/c1-2-3-4-5-9(14)8-11(15)13-10-6-7-17-12(10)16/h9-10,14H,2-8H2,1H3,(H,13,15)
Instrument: maXis plus UHR-ToF-MS, Bruker Daltonics
Instrument type: LC-ESI-QTOF
Ms type: MS2
Ion mode: POSITIVE
Ionization: ESI
Fragmentation mode: CID
Collision energy: 20
Column name: BEH C18 1.7um, 2.1x100mm, Waters
Retention time: 3.575 min
Base peak: 244.1538
Precursor m/z: 244.1543
Precursor type: [M+H]+
m/z	relative intensity
55.0162	3
59.0474	3
69.0324	21
75.0557	1
80.0575	1
83.0486	8
83.0848	110
84.0436	80
85.0274	9
85.0646	1
97.1007	256
101.0954	2
102.0545	999
107.0855	16
125.096	33
126.0999	2
142.1213	1
180.1374	1
198.1492	4
208.133	5
226.1432	8
227.1465	1
244.1531	1
