Mass spectrum: D-sphingosine; LC-ESI-QTOF; MS2; CE: 40; R=; [M+H]+
Name: D-sphingosine
Name: sphingosine
Name: (E,2S,3R)-2-aminooctadec-4-ene-1,3-diol
Formula: C18H37NO2
Exact mass: 299.2824
SMILES: CCCCCCCCCCCCC/C=C/[C@H]([C@H](CO)N)O
InChI: InChI=1S/C18H37NO2/c1-2-3-4-5-6-7-8-9-10-11-12-13-14-15-18(21)17(19)16-20/h14-15,17-18,20-21H,2-13,16,19H2,1H3/b15-14+/t17-,18+/m0/s1
Instrument: maXis plus UHR-ToF-MS, Bruker Daltonics
Instrument type: LC-ESI-QTOF
Ms type: MS2
Ion mode: POSITIVE
Ionization: ESI
Fragmentation mode: CID
Collision energy: 40
Column name: BEH C18 1.7um, 2.1x100mm, Waters
Retention time: 5.325 min
Base peak: 282.2787
Precursor m/z: 300.2897
Precursor type: [M+H]+
m/z	relative intensity
45.0575	2
45.0696	1
48.0318	2
48.0441	3
50.0715	2
50.2968	1
54.0091	5
54.055	3
57.0322	116
59.0473	2
59.2732	2
61.0632	3
61.1094	1
61.2405	3
62.1664	1
62.2028	1
62.2973	1
64.0053	4
64.0264	3
66.2215	1
71.0481	108
73.0289	2
73.0636	2
78.0662	2
78.079	3
83.0484	462
84.0801	75
85.0643	12
85.1004	118
86.0593	359
91.0536	450
92.1078	3
93.0692	999
94.0493	3
94.0647	72
94.0729	71
95.0489	102
95.0724	77
95.085	990
96.0804	400
97.0643	114
97.1007	191
98.061	2
98.0678	6
98.0959	9
99.0685	8
99.081	4
100.0752	41
100.2187	2
105.0452	55
105.0694	32
106.2534	2
107.0848	132
107.9839	3
108.0806	28
109.0637	6
109.1006	98
110.096	43
111.0229	1
111.0798	4
111.1178	4
113.0832	1
114.0915	7
119.058	4
119.0857	5
121.1014	27
123.1167	7
124.1127	4
125.1166	1
131.0488	1
133.0765	1
134.2612	1
135.0227	1
138.0777	1
138.1266	2
152.1429	2
157.1451	1
160.0839	1
162.008	3
168.1751	2
168.1967	1
171.2191	1
172.0495	4
173.0958	1
175.0744	1
176.1448	1
181.1559	1
182.188	3
184.207	6
186.16	2
191.0812	2
193.1959	1
194.1639	2
194.1888	1
196.0742	2
198.2235	5
201.0696	1
202.0227	2
211.2275	2
212.1209	2
219.2078	4
220.2017	3
221.1656	1
224.2322	1
226.0153	1
226.2532	5
227.0963	1
230.1624	1
231.0078	2
234.2209	3
236.2382	3
237.2324	1
238.2489	3
242.0381	1
250.2141	2
250.2518	5
252.2684	107
253.0306	2
253.1912	1
253.2707	14
254.1038	2
254.1729	3
254.247	1
254.2834	2
255.244	1
262.2529	122
263.2548	26
264.2681	153
265.1102	1
265.2495	3
265.2717	29
266.2711	4
282.2806	48
283.2802	13
284.2844	2
