Mass spectrum: Isolithocholic acid; LC-ESI-QTOF; MS2; CE: 20; R=; [M+H]+
Name: Isolithocholic acid
Name: (4R)-4-[(3S,5R,8R,9S,10S,13R,14S,17R)-3-hydroxy-10,13-dimethyl-2,3,4,5,6,7,8,9,11,12,14,15,16,17-tetradecahydro-1H-cyclopenta[a]phenanthren-17-yl]pentanoic acid
Formula: C24H40O3
Exact mass: 376.2977
SMILES: [H][C@@]12CC[C@H]([C@H](C)CCC(O)=O)[C@@]1(C)CC[C@@]1([H])[C@@]2([H])CC[C@]2([H])C[C@@H](O)CC[C@]12C
InChI: InChI=1S/C24H40O3/c1-15(4-9-22(26)27)19-7-8-20-18-6-5-16-14-17(25)10-12-23(16,2)21(18)11-13-24(19,20)3/h15-21,25H,4-14H2,1-3H3,(H,26,27)/t15-,16-,17+,18+,19-,20+,21+,23+,24-/m1/s1
Instrument: maXis plus UHR-ToF-MS, Bruker Daltonics
Instrument type: LC-ESI-QTOF
Ms type: MS2
Ion mode: POSITIVE
Ionization: ESI
Fragmentation mode: CID
Collision energy: 20
Column name: BEH C18 1.7um, 2.1x100mm, Waters
Retention time: 5.809 min
Base peak: 88.0749
Precursor m/z: 377.305
Precursor type: [M+H]+
m/z	relative intensity
79.0547	456
108.0533	528
161.129	399
163.1471	442
181.0885	271
215.178	385
219.1718	299
223.1687	271
228.1812	328
245.2234	428
246.139	328
257.1889	342
263.2012	356
277.2175	285
289.2138	385
303.2329	528
323.2741	999
324.2769	742
339.271	356
341.2868	984
343.2621	485
357.2792	513
359.2942	328
361.2755	442
373.2122	627
373.2837	371
375.2085	271
