Mass spectrum: ?-linolenic acid; LC-ESI-QTOF; MS2; CE: 20; R=; [M+H]+
Name: ?-linolenic acid
Name: linolenic acid
Name: (9Z,12Z,15Z)-octadeca-9,12,15-trienoic acid
Formula: C18H30O2
Exact mass: 278.2246
SMILES: CC/C=C\C/C=C\C/C=C\CCCCCCCC(=O)O
InChI: InChI=1S/C18H30O2/c1-2-3-4-5-6-7-8-9-10-11-12-13-14-15-16-17-18(19)20/h3-4,6-7,9-10H,2,5,8,11-17H2,1H3,(H,19,20)/b4-3-,7-6-,10-9-
Instrument: maXis plus UHR-ToF-MS, Bruker Daltonics
Instrument type: LC-ESI-QTOF
Ms type: MS2
Ion mode: POSITIVE
Ionization: ESI
Fragmentation mode: CID
Collision energy: 20
Column name: BEH C18 1.7um, 2.1x100mm, Waters
Retention time: 6.658 min
Base peak: 88.0752
Precursor m/z: 279.2319
Precursor type: [M+H]+
m/z	relative intensity
57.0693	10
65.0131	8
67.0536	791
69.0339	7
69.0694	77
71.0487	21
79.0549	25
81.0695	999
82.0732	38
83.0855	51
93.0693	33
95.0853	444
96.0886	43
97.1008	36
99.0439	6
107.0859	13
109.1012	181
109.2162	12
110.1048	11
111.0223	6
119.0845	6
120.0805	7
121.1001	9
123.117	62
131.0821	10
137.1319	55
139.0397	8
141.034	15
145.1017	11
149.0245	28
149.1328	18
151.1111	18
151.1474	8
153.1266	14
156.1028	8
159.1161	17
161.1323	22
163.1121	7
163.1468	10
163.1699	8
165.0902	10
165.1234	39
167.1067	7
171.1373	10
173.1315	62
174.1387	6
174.21	10
177.1646	9
178.1708	6
181.1237	16
187.1465	41
188.1506	7
189.0586	8
191.1442	19
193.1549	11
195.1374	15
201.1631	15
205.1585	9
209.1519	11
211.1705	9
215.1809	11
223.1682	41
235.1344	7
237.1834	6
243.2107	39
261.2224	51
263.227	7
277.2049	8
279.2305	297
