Mass spectrum: 3-oxo-C14 homoserine lactone; LC-ESI-QTOF; MS2; CE: 40; R=; [M-H]-
Name: 3-oxo-C14 homoserine lactone
Name: N-(3-Oxotetradecanoyl)-DL-homoserine lactone
Name: 3-oxo-N-(2-oxooxolan-3-yl)tetradecanamide
Formula: C18H31NO4
Exact mass: 325.2253
SMILES: CCCCCCCCCCCC(=O)CC(=O)NC1CCOC1=O
InChI: InChI=1S/C18H31NO4/c1-2-3-4-5-6-7-8-9-10-11-15(20)14-17(21)19-16-12-13-23-18(16)22/h16H,2-14H2,1H3,(H,19,21)
Instrument: maXis plus UHR-ToF-MS, Bruker Daltonics
Instrument type: LC-ESI-QTOF
Ms type: MS2
Ion mode: NEGATIVE
Ionization: ESI
Fragmentation mode: CID
Collision energy: 40
Column name: BEH C18 1.7um, 2.1x100mm, Waters
Retention time: 5.901 min
Base peak: 324.2173
Precursor m/z: 324.218
Precursor type: [M-H]-
m/z	relative intensity
57.0346	999
68.9977	48
69.0342	88
70.0295	40
71.0501	10
72.0089	43
81.0221	7
81.034	8
83.0143	26
84.045	45
94.0296	29
112.0407	116
122.0229	11
140.0343	7
142.0498	11
149.0477	7
179.1445	11
181.1606	26
196.0641	7
197.1917	220
198.1971	39
199.1715	202
223.172	130
223.2071	22
224.1752	10
234.195	9
249.2062	9
250.2182	17
251.204	14
276.1975	135
277.2022	7
278.1765	7
279.1838	15
306.2064	63
324.2178	108
