Mass spectrum: Catechin(+); LC-ESI-QTOF; MS2; CE: 20; R=; [M-H]-
Name: Catechin(+)
Name: (+)-catechin
Name: (2R,3S)-2-(3,4-dihydroxyphenyl)-3,4-dihydro-2H-chromene-3,5,7-triol
Formula: C15H14O6
Exact mass: 290.0790
SMILES: Oc1ccc(cc1O)[C@H]3Oc2cc(O)cc(O)c2C[C@@H]3O
InChI: InChI=1S/C15H14O6/c16-8-4-11(18)9-6-13(20)15(21-14(9)5-8)7-1-2-10(17)12(19)3-7/h1-5,13,15-20H,6H2/t13-,15+/m0/s1
Instrument: maXis plus UHR-ToF-MS, Bruker Daltonics
Instrument type: LC-ESI-QTOF
Ms type: MS2
Ion mode: NEGATIVE
Ionization: ESI
Fragmentation mode: CID
Collision energy: 20
Column name: BEH C18 1.7um, 2.1x100mm, Waters
Retention time: 2.555 min
Base peak: 289.0717
Precursor m/z: 289.0718
Precursor type: [M-H]-
m/z	relative intensity
95.0503	13
97.0293	18
109.0304	32
149.0239	15
151.0398	54
152.045	10
159.0441	14
161.024	9
161.0605	11
162.0338	9
165.0197	59
167.0339	22
175.0396	16
177.0596	9
179.036	43
180.0449	8
187.0398	39
188.0494	17
200.0518	7
201.0568	8
202.0659	10
203.0719	172
205.0509	186
213.053	7
217.0541	8
221.0833	22
227.0721	31
245.0821	577
247.0604	9
247.0854	7
249.0622	6
259.0585	6
271.0594	9
289.0715	999
