Mass spectrum: C14-homoserine lactone; LC-ESI-QTOF; MS2; CE: 40; R=; [M+H]+
Name: C14-homoserine lactone
Name: N-(2-oxooxolan-3-yl)tetradecanamide
Formula: C18H33NO3
Exact mass: 311.24604
SMILES: CCCCCCCCCCCCCC(=O)NC1CCOC1=O
InChI: InChI=1S/C18H33NO3/c1-2-3-4-5-6-7-8-9-10-11-12-13-17(20)19-16-14-15-22-18(16)21/h16H,2-15H2,1H3,(H,19,20)
Instrument: maXis plus UHR-ToF-MS, Bruker Daltonics
Instrument type: LC-ESI-QTOF
Ms type: MS2
Ion mode: POSITIVE
Ionization: ESI
Fragmentation mode: CID
Collision energy: 40
Column name: BEH C18 1.7um, 2.1x100mm, Waters
Retention time: 6.385 min
Base peak: 88.0751
Precursor m/z: 312.2533
Precursor type: [M+H]+
m/z	relative intensity
56.0473	257
57.0695	300
65.0348	101
71.0851	999
74.0596	708
81.0692	315
84.0438	101
85.1013	237
90.0542	106
102.0544	155
123.1174	164
135.0063	213
266.0117	150
315.2416	87
