Mass spectrum: L-Phenylalanine; LC-ESI-QTOF; MS2; CE: 40; R=; [M+H]+
Name: L-Phenylalanine
Name: (2S)-2-azaniumyl-3-phenylpropanoate
Formula: C9H11NO2
Exact mass: 165.07898
SMILES: c1ccc(cc1)C[C@@H](C(=O)O)N
InChI: InChI=1S/C9H11NO2/c10-8(9(11)12)6-7-4-2-1-3-5-7/h1-5,8H,6,10H2,(H,11,12)/t8-/m0/s1
Instrument: maXis plus UHR-ToF-MS, Bruker Daltonics
Instrument type: LC-ESI-QTOF
Ms type: MS2
Ion mode: POSITIVE
Ionization: ESI
Fragmentation mode: CID
Collision energy: 40
Column name: BEH C18 1.7um, 2.1x100mm, Waters
Retention time: 1.410 min
Base peak: 166.0857
Precursor m/z: 166.0863
Precursor type: [M+H]+
m/z	relative intensity
51.0224	11
53.0381	30
63.0224	1
65.0382	39
67.0537	2
74.0234	1
75.0234	1
77.0381	999
78.0417	53
79.0538	286
80.0493	14
80.0573	15
81.0332	7
81.0533	1
91.0539	339
92.0492	3
92.0573	21
93.0572	6
93.0697	93
94.0645	5
94.0733	7
95.0488	275
96.0523	13
102.0461	29
103.054	867
104.0572	63
105.0445	100
107.0484	3
117.0581	1
118.065	5
119.0734	6
120.0806	82
121.0842	9
