Mass spectrum: Glycoursodeoxycholic acid; LC-ESI-QTOF; MS2; CE: 40; R=; [M+H]+
Name: Glycoursodeoxycholic acid
Name: 2-[[(4R)-4-[(3R,5S,7S,10S,13R,17R)-3,7-dihydroxy-10,13-dimethyl-2,3,4,5,6,7,8,9,11,12,14,15,16,17-tetradecahydro-1H-cyclopenta[a]phenanthren-17-yl]pentanoyl]amino]acetic acid
Formula: C26H43NO5
Exact mass: 449.3141
SMILES: C[C@H](CCC(=O)NCC(=O)O)[C@H]1CCC2[C@@]1(CCC3C2[C@H](C[C@H]4[C@@]3(CC[C@H](C4)O)C)O)C
InChI: InChI=1S/C26H43NO5/c1-15(4-7-22(30)27-14-23(31)32)18-5-6-19-24-20(9-11-26(18,19)3)25(2)10-8-17(28)12-16(25)13-21(24)29/h15-21,24,28-29H,4-14H2,1-3H3,(H,27,30)(H,31,32)/t15-,16+,17-,18-,19?,20?,21+,24?,25+,26-/m1/s1
Instrument: maXis plus UHR-ToF-MS, Bruker Daltonics
Instrument type: LC-ESI-QTOF
Ms type: MS2
Ion mode: POSITIVE
Ionization: ESI
Fragmentation mode: CID
Collision energy: 40
Column name: BEH C18 1.7um, 2.1x100mm, Waters
Retention time: 4.256 min
Base peak: 432.3104
Precursor m/z: 450.3214
Precursor type: [M+H]+
m/z	relative intensity
45.1512	1
47.0239	1
50.0476	1
51.1043	1
55.0174	1
55.1117	2
55.1692	1
56.0495	1
57.1148	1
59.1068	2
62.2484	1
63.0074	1
66.0082	1
68.05	1
68.0837	1
69.0696	49
71.0477	2
71.0856	1
71.1662	2
74.2845	1
76.0387	999
81.0694	277
82.04	2
82.1794	1
83.0484	17
83.085	67
84.0055	1
84.0448	3
85.0643	180
86	1
86.0608	1
89.0604	1
90.1973	1
91.0836	2
92.058	2
92.1315	1
93.0692	130
94.0995	1
95.085	166
97.0645	7
98.0213	1
98.0606	3
98.1741	1
98.19	1
98.2818	1
99.0801	8
100.1551	1
100.1664	1
100.2761	1
101.0952	1
102.1482	1
102.9904	1
103.3197	1
104.0237	2
105.0689	77
106.0728	4
106.1344	1
107.0848	110
108.0889	9
108.3228	1
109.0635	7
109.1007	75
109.9965	1
110.0159	1
110.1048	4
110.2237	2
110.2834	1
111.0804	14
111.1173	5
111.2098	1
111.2539	1
111.991	1
112.0064	1
112.0753	9
112.0998	1
112.154	1
113.0016	1
113.0224	1
113.1081	1
113.2914	2
114.0541	2
114.0797	1
114.0919	1
114.2425	2
114.2754	1
114.9907	2
116.998	1
117.0692	7
118.0737	1
118.25	1
119.0856	41
119.1304	2
120.069	1
120.0891	2
121.1003	68
122.0482	1
122.1047	4
122.1515	2
122.1667	1
122.2978	1
123.0795	6
123.1156	10
123.1464	1
123.9941	2
124.2034	1
125.0957	7
125.9831	1
126.0541	1
126.0921	1
126.2543	1
127.0292	1
127.0959	3
127.109	2
128.0702	1
128.2497	2
129.0074	1
129.1287	1
129.9894	1
130.0741	2
130.0998	2
131.0864	13
131.1732	1
132.0317	1
132.0871	1
132.29	2
133.1003	29
134.0589	1
135.0787	2
135.1167	33
135.3139	2
136.0361	3
136.1194	5
136.2392	1
136.2603	1
137.0063	1
137.0959	2
137.2126	2
138.0512	2
138.0885	2
139.0263	1
139.055	1
139.1107	2
139.3351	1
140.1549	2
140.2212	1
141.0689	3
141.0867	1
141.1	1
141.2567	1
141.9937	1
142.0213	1
142.0513	2
142.0764	2
142.2543	2
143.0535	1
143.0856	12
144.061	2
144.0899	2
145.1013	48
146.1033	5
147.0085	4
147.1162	62
148.0616	2
148.0829	1
148.1212	6
149.0944	7
149.119	3
149.1317	39
150.0678	1
150.0864	1
150.1349	4
150.1607	1
151.0479	1
151.1113	6
151.9948	1
152.0607	2
152.0847	1
152.1071	1
152.1143	3
152.1416	1
152.251	1
152.3453	2
153.088	1
153.1259	2
154.009	1
154.0241	2
154.0602	2
154.1098	1
154.3223	2
155.0176	2
155.0855	10
155.9807	1
156.0029	1
156.0655	7
156.0897	3
156.2071	1
156.2308	1
157.1007	32
158.0808	44
158.1042	9
159.0835	5
159.1163	92
159.9791	1
160.0852	1
160.12	10
161.0944	6
161.1324	85
162.0305	1
162.0992	1
162.136	16
162.2803	3
163.1115	52
163.148	20
163.9996	1
164.1141	4
164.1524	4
164.3296	2
165.0531	2
165.0655	1
165.1277	6
165.3036	1
166.0718	1
166.0867	1
166.1224	3
166.2883	1
166.3215	1
167.0114	1
167.0466	1
167.1983	1
168.077	2
168.0902	1
168.1003	1
168.1489	1
169.057	1
169.0654	1
169.1009	21
170.1051	3
171.1163	32
171.3138	2
172.0963	3
172.1188	2
173.0956	7
173.1317	62
174.0113	1
174.1352	8
174.1627	1
175.111	21
175.1477	84
176.0362	1
176.0553	1
176.116	4
176.1512	12
176.3162	1
177.1272	64
177.1626	6
178.0599	2
178.1091	1
178.1294	10
178.17	1
179.1421	3
179.2944	1
180.0416	1
180.0805	1
180.1352	1
180.1609	1
181.0443	2
181.104	4
181.117	1
182.106	1
182.2255	1
183.0115	1
183.0888	1
183.1167	19
183.1384	1
184.0969	4
185.1326	56
185.9962	1
186.0416	1
186.1153	3
186.1353	9
187.1125	2
187.1482	53
187.9854	1
188.023	1
188.0792	2
188.1501	7
189.127	32
189.163	38
190.0422	2
190.1674	6
190.2519	1
191.0543	2
191.0951	4
191.1262	1
191.142	19
191.9926	1
192.1014	1
193.1029	1
195.1041	1
195.1171	3
196.132	1
196.1692	1
197.1325	23
198.1116	2
198.1387	4
198.2284	2
199.1477	56
199.9969	1
200.1531	6
200.3166	2
201.1268	8
201.1635	155
202.1664	25
202.9976	1
203.0589	1
203.1268	1
203.1426	19
203.1782	20
203.998	1
204.1124	1
204.1598	1
204.1855	3
205.0366	1
205.1583	6
205.1945	1
205.2242	1
206.3252	1
207.051	1
207.1716	1
207.3125	1
209.0903	1
209.1333	4
210.1107	2
210.1361	1
211.1479	78
212.1144	2
212.128	9
212.151	13
213.1643	82
214.0577	1
214.1326	1
214.1421	2
214.1667	11
215.1793	120
216.1535	5
216.1826	26
217.007	2
217.1582	18
217.1924	6
217.2932	1
218.1615	3
218.2008	4
219.1752	5
220.0773	1
221.1149	1
222.0778	1
222.2882	1
223.0522	1
223.0781	1
223.1498	4
224.1274	4
224.1519	2
225.0056	3
225.1322	2
225.1645	48
226.1424	2
226.1669	9
227.1426	3
227.1789	59
228.1577	1
228.1818	7
229.1584	57
229.1952	34
230.0147	1
230.1326	1
230.162	6
230.199	5
231.1728	15
232.0329	1
232.1306	1
232.1789	10
232.2075	2
232.2508	1
233.19	4
236.1275	1
236.1622	1
237.1634	7
238.0291	1
238.1423	6
238.1685	1
239.1795	65
240.143	1
240.156	3
240.1829	14
241.1612	3
241.1944	34
242.0318	1
242.0446	1
242.2001	5
242.2315	1
243.1744	31
243.2108	26
244.154	1
244.1763	5
244.212	3
245.1911	12
245.3048	1
246.0149	1
246.1944	2
246.3284	1
247.9915	1
249.1138	1
249.1844	1
250.0004	1
250.1435	6
250.1762	1
251.1261	1
251.1491	1
251.1805	20
251.3026	1
252.0535	1
252.102	1
252.1185	3
252.1579	10
252.1815	7
252.2316	1
253.195	21
254.173	1
254.203	23
255.0272	1
255.1764	2
255.2099	30
256.2152	7
257.1897	29
258.023	1
258.1929	6
259.2024	1
259.2415	1
260.2123	1
264.0568	1
264.1609	7
264.1894	1
265.1955	52
266.1743	4
266.1981	10
267.1774	1
267.2122	13
267.2908	1
268.1698	1
268.217	1
269.1893	7
269.2187	1
269.9813	1
270.1952	2
270.2279	1
271.1802	1
271.2051	3
272.2001	1
272.2117	3
272.2912	1
273.1613	1
273.2204	2
274.1822	1
274.2248	1
275.0938	1
278.1745	2
279.1796	1
279.2108	25
280.0726	1
280.188	2
280.2165	6
281.1933	1
281.2275	8
282.1689	1
282.2266	2
283.2045	10
283.2441	2
284.2116	3
284.2386	1
285.1387	1
285.2214	9
285.2415	1
285.2588	2
286.2223	1
288.126	1
290.185	2
292.084	1
292.1909	5
292.2199	1
293.2254	12
294.2292	2
295.2411	11
295.3137	1
296.2456	5
297.222	10
297.2569	24
298.0196	1
298.0364	1
298.2264	2
298.2597	4
302.3257	1
304.1916	4
305.1963	2
306.0975	2
306.2071	4
306.2286	2
307.2455	1
308.2342	1
309.1262	1
309.2523	2
309.3176	1
311.2351	5
311.2721	3
312.2391	2
312.2789	4
313.2499	1
314.0232	1
314.0681	1
314.1457	1
314.2117	1
314.2428	1
317.2019	1
318.2066	5
319.2392	2
319.2688	1
320.2238	1
321.2581	279
322.2612	81
323.2658	5
323.2831	1
324.1096	1
329.3108	1
330.2816	1
332.2231	4
334.2386	1
337.2693	1
338.257	1
338.3355	1
339.2686	240
340.2709	68
341.1617	1
341.2744	6
341.3019	1
352.2531	1
357.2806	7
358.2353	3
368.2911	2
369.3036	1
376.9961	1
386.3066	2
396.1891	2
396.2895	3
397.2922	1
397.3313	1
407.0175	1
410.2177	1
411.1553	2
412.114	2
414.2794	1
414.2996	19
415.3051	8
416.3101	2
426.9956	1
434.2439	1
436.2927	1
