Mass spectrum: Tauroursodeoxycholic acid; LC-ESI-QTOF; MS2; CE: 40; R=; [M+H]+
Name: Tauroursodeoxycholic acid
Name: 2-[[(4R)-4-[(3R,5S,7S,8R,9S,10S,13R,14S,17R)-3,7-dihydroxy-10,13-dimethyl-2,3,4,5,6,7,8,9,11,12,14,15,16,17-tetradecahydro-1H-cyclopenta[a]phenanthren-17-yl]pentanoyl]amino]ethanesulfonic acid
Formula: C26H45NO6S
Exact mass: 499.2968
SMILES: C[C@H](CCC(=O)NCCS(=O)(=O)O)[C@H]1CC[C@@H]2[C@@]1(CC[C@H]3[C@H]2[C@H](C[C@H]4[C@@]3(CC[C@H](C4)O)C)O)C
InChI: InChI=1S/C26H45NO6S/c1-16(4-7-23(30)27-12-13-34(31,32)33)19-5-6-20-24-21(9-11-26(19,20)3)25(2)10-8-18(28)14-17(25)15-22(24)29/h16-22,24,28-29H,4-15H2,1-3H3,(H,27,30)(H,31,32,33)/t16-,17+,18-,19-,20+,21+,22+,24+,25+,26-/m1/s1
Instrument: maXis plus UHR-ToF-MS, Bruker Daltonics
Instrument type: LC-ESI-QTOF
Ms type: MS2
Ion mode: POSITIVE
Ionization: ESI
Fragmentation mode: CID
Collision energy: 40
Column name: BEH C18 1.7um, 2.1x100mm, Waters
Retention time: 3.883 min
Base peak: 88.0749
Precursor m/z: 500.304
Precursor type: [M+H]+
m/z	relative intensity
48.175	7
52.0156	6
54.1402	7
57.3391	9
59.0496	11
59.9995	9
62.1176	10
65.0389	8
67.9721	6
68.3435	15
69.0326	15
69.0694	61
71.0478	6
71.1675	10
72.9854	8
73.1046	9
74.0024	6
74.0472	7
74.3184	13
75.0916	8
77.0383	20
77.229	13
78.0189	13
78.1399	10
81.0693	370
82.0317	6
83.04	9
83.048	9
83.085	148
83.1698	10
84.0838	16
85.0643	174
86.0512	6
86.0935	8
87.0784	8
87.1737	6
87.2689	15
88.2037	8
90.1858	6
92.1407	6
92.1764	6
92.3281	8
93.008	13
93.0578	8
93.0692	122
93.1299	8
94.0259	12
94.0567	8
95.3542	17
96.0687	10
96.0886	41
96.1495	10
97.0647	12
97.1005	37
98.0713	8
99.1377	6
99.183	11
99.2921	7
100.0148	6
101.0371	8
102.0393	8
102.3121	10
104.0491	16
105.0698	44
106.0739	6
106.1634	6
106.2174	8
107.0393	19
107.0558	10
107.0855	144
108.0113	14
108.0845	19
109.0672	23
109.1016	98
109.1572	9
109.2519	13
110.1517	13
111.1171	10
111.2327	9
112.2969	11
114.0758	10
114.2818	10
116.0437	7
117.0699	13
117.1355	6
117.1689	12
117.1753	9
118.0695	8
118.1231	6
119.0083	6
119.0848	55
119.1312	10
119.1721	6
119.2081	8
119.9699	9
120.1059	6
120.1536	7
121.1007	92
121.9788	8
122.0254	7
122.1025	21
122.1677	19
123.0566	8
123.0801	28
123.0874	14
123.1457	6
123.2232	7
123.3494	11
124.0051	7
124.3251	8
125.0977	8
125.2333	6
126.0209	469
127.0197	31
127.0371	11
127.2488	6
128.0155	22
128.0382	15
128.0667	7
128.1417	17
129.033	9
129.0809	10
130.0148	15
132.1817	9
133.0257	16
133.0893	8
133.1013	50
133.1646	9
133.2537	14
133.9664	6
134.1006	12
134.1409	8
134.9771	7
135.0221	6
135.1159	56
135.2101	13
135.2792	6
136.1171	15
136.2407	10
137.0973	22
137.1746	7
137.9845	8
138.0561	10
138.2586	7
138.3001	14
139.1591	7
139.1735	17
140.1292	8
140.2044	6
140.2945	8
140.3362	10
140.352	7
141.0338	11
141.0685	8
141.0797	7
141.1282	8
142.0809	12
142.2036	6
142.2386	10
143.0837	9
143.2436	9
144.0036	7
144.1881	14
144.9772	12
145.0136	9
145.1006	75
145.9764	9
146.1036	23
147.0617	15
147.1169	155
148.0283	8
148.0776	10
148.12	29
149.0131	12
149.0231	10
149.0464	20
149.0951	25
149.1324	179
150.135	25
150.1657	6
151.1105	10
151.2065	15
151.9553	7
151.964	7
152.0655	14
152.1147	9
152.2956	6
152.9637	7
153.0719	7
153.1574	6
153.1863	6
153.2055	8
154.0257	10
154.1562	10
154.1961	10
154.2146	6
154.9824	17
155.0863	15
155.1219	8
155.9668	17
156.0905	10
156.1955	6
157.1961	7
157.2613	8
157.2885	9
158.1042	10
158.2347	9
159.085	14
159.1165	263
159.1375	23
160.1002	13
160.122	10
161.0937	27
161.1322	324
162.0495	8
162.0819	6
162.0997	11
162.135	32
162.1899	14
163.0136	10
163.0544	12
163.1106	163
163.1477	100
163.9732	9
164.1154	23
164.1518	9
165.0224	11
165.0648	11
165.1256	32
165.1566	12
165.1644	12
165.2057	10
166.0495	6
167.0742	17
167.1292	8
167.2754	16
167.9524	10
167.9812	7
168.2357	6
168.325	11
169.1002	45
171.0454	7
171.1157	38
171.162	21
171.1875	12
171.96	9
172.0569	9
172.116	11
172.1451	17
172.2472	6
172.9615	6
173.1333	111
173.1872	13
174.0892	8
174.133	10
174.1916	6
175.1118	95
175.1473	327
175.9963	6
176.0512	8
176.1154	9
176.1496	24
176.2711	16
176.3195	6
177.0775	15
177.1265	283
177.1627	22
178.0789	6
178.1308	22
179.1318	8
179.1897	8
179.9775	8
180.0314	16
180.048	8
180.1342	12
180.9895	7
181.1036	6
181.9552	6
182.0443	7
182.1065	6
182.9634	14
183.0399	11
183.0764	11
183.1162	39
184.1193	18
184.1599	7
185.0792	14
185.0942	17
185.1321	181
186.1366	8
186.1695	14
186.2956	6
187.051	10
187.1118	20
187.1346	9
187.1479	145
187.3208	7
188.1175	7
188.1515	30
189.1271	67
189.1491	34
189.1636	246
190.0931	8
190.1308	17
190.1667	65
191.1428	125
191.177	18
191.9471	6
192.069	15
192.0851	6
192.1458	22
192.1812	6
192.2214	6
192.3022	8
193.0515	8
193.0627	17
193.148	6
194.0334	6
194.0456	11
194.1181	6
195.062	8
195.1162	11
195.1368	7
196.1726	8
197.1317	68
198.1335	20
199.1475	102
199.1736	6
199.9572	6
200.1507	10
200.2241	15
201.1633	999
201.9564	9
202.0211	12
202.1478	10
202.1661	165
203.1446	91
203.1801	104
203.318	8
203.9826	8
204.0869	12
204.1788	15
204.3128	8
205.0349	6
205.0622	8
205.1561	18
205.1891	11
206.046	8
206.1608	19
206.1755	9
206.2954	6
207.1411	9
207.1733	14
207.2038	6
208.0634	747
209.0498	9
209.0649	52
209.1311	22
209.2164	6
209.3268	6
210.0251	7
210.0632	22
211.0545	9
211.1267	11
211.1475	150
211.2856	9
212.0211	13
212.1499	45
213.0751	13
213.1634	127
213.2504	8
214.1655	62
215.179	785
216.0131	6
216.1816	126
216.9853	8
217.1592	64
217.194	83
218.0819	8
218.1287	6
218.162	22
218.1955	17
219.0342	8
219.0817	7
219.1694	7
220.0642	13
220.1318	15
222.0791	51
222.1363	8
222.3207	8
223.075	11
223.1368	8
223.1476	10
223.1635	9
223.969	7
225.0116	8
225.1641	127
226.013	15
226.172	29
226.3221	9
227.1388	7
227.1783	144
227.2172	21
227.3324	22
228.0397	10
228.1813	20
229.1584	247
229.1958	158
230.1627	27
230.2002	17
231.1736	77
231.211	10
232.1154	6
232.2277	6
234.0787	78
234.1026	12
235.0829	11
235.3213	6
236.0021	9
236.0971	23
236.2011	6
236.276	9
237.0496	8
237.1627	6
237.2754	8
237.9444	8
238.3105	6
239.1788	123
240.1816	7
240.1997	7
240.3262	8
241.1503	8
241.1942	71
242.196	15
242.3258	6
243.1729	151
243.2104	164
244.2148	37
245.1905	50
246.2003	8
246.2404	7
247.1618	8
248.0961	68
249.2715	7
250.1123	35
251.0116	8
251.1776	37
251.3211	10
251.338	16
252.1028	7
252.183	15
253.1083	6
253.1953	37
254.2023	39
255.1159	6
255.212	13
257.1903	129
257.2254	10
258.0408	6
258.0853	6
258.1383	20
258.1944	11
258.23	13
259.2062	14
259.2608	9
259.9577	6
259.9809	6
260.0974	18
260.9719	11
261.101	6
262.1107	138
262.3288	10
263.1089	26
263.2045	9
264.1032	7
264.127	10
264.2228	8
265.1191	9
265.1316	15
265.1941	40
266.2	21
267.2078	17
268.2145	7
268.3263	10
269.1894	17
269.9738	7
270.1131	10
271.2059	19
272.2136	10
273.1271	14
273.2115	6
273.2275	12
274.1131	52
274.2857	8
275.0343	17
275.1167	20
275.2143	6
275.3042	10
276.101	12
276.1262	68
277.1292	22
278.1393	20
278.1966	6
278.2454	10
278.299	10
279.0904	6
279.2074	12
280.2135	28
281.1761	8
281.1959	11
281.2259	22
282.2326	10
282.2989	7
283.2039	41
283.2369	11
283.32	18
285.0358	7
285.0791	7
285.2288	7
285.2562	8
286.112	15
287.0248	6
287.1191	8
288.1252	151
289.1298	20
289.2012	9
290.036	13
290.1317	7
290.9927	7
291.1476	9
293.0402	6
293.1596	9
293.1791	7
293.2267	11
294.1287	6
295.2446	37
295.3124	7
296.0709	7
296.1306	7
296.2455	9
297.0458	8
297.2205	19
297.2335	12
297.2566	84
298.2226	16
298.2601	23
300.1253	72
300.1843	8
301.1012	16
301.1346	6
301.1859	11
302.1414	150
303.1474	16
303.944	7
304.1367	7
304.1554	22
307.0779	6
308.968	8
311.1613	9
311.2357	17
311.2737	30
311.2927	6
312.2778	8
314.0757	6
314.1431	75
315.1455	12
316.0321	6
316.1563	68
316.2108	7
316.2617	8
317.1584	16
318.1524	10
318.1726	6
320.2375	8
321.2576	817
322.141	10
322.2604	192
323.2707	14
324.2759	7
325.9671	8
326.1054	12
326.9712	6
328.1553	38
329.2705	7
330.171	39
331.1913	7
332.3046	7
339.2681	891
340.1608	19
340.2733	253
341.1562	7
341.2738	19
342.1752	37
342.2744	26
343.1799	16
344.1923	15
345.0214	6
348.2321	9
350.1778	12
351.9916	6
354.174	77
355.175	16
356.0897	6
356.1891	51
357.1974	10
357.2761	18
358.1399	6
358.212	6
364.1929	9
368.1878	61
369.1884	8
370.1975	14
371.2054	6
371.2163	6
374.2483	6
379.0464	9
380.0657	13
381.1992	8
382.2072	41
382.2408	8
383.201	14
384.1619	10
394.2071	13
401.9916	8
406.0129	12
408.2175	12
410.213	8
422.2366	7
426.0931	9
430.1174	7
447.2495	10
452.003	11
463.1834	7
463.2766	6
464.2821	301
465.2845	92
466.2789	16
466.2939	12
466.3312	6
468.0377	8
474.1596	7
480.1466	11
483.2978	7
488.2919	7
496.2439	10
