Mass spectrum: Sinapinic acid; LC-ESI-QTOF; MS2; CE: 20; R=; [M-H]-
Name: Sinapic acid
Name: 3,5-dimethoxy-4-hydroxycinnamic acid
Name: 3-(4-hydroxy-3,5-dimethoxy-phenyl)prop-2-enoic acid
Formula: C11H12O5
Exact mass: 224.06847
SMILES: COC1=CC(=CC(=C1O)OC)/C=C/C(=O)O
InChI: InChI=1S/C11H12O5/c1-15-8-5-7(3-4-10(12)13)6-9(16-2)11(8)14/h3-6,14H,1-2H3,(H,12,13)/b4-3+
Instrument: maXis plus UHR-ToF-MS, Bruker Daltonics
Instrument type: LC-ESI-QTOF
Ms type: MS2
Ion mode: NEGATIVE
Ionization: ESI
Fragmentation mode: CID
Collision energy: 20
Column name: BEH C18 1.7um, 2.1x100mm, Waters
Retention time: 3.149 min
Base peak: 223.0617
Precursor m/z: 223.0612
Precursor type: [M-H]-
m/z	relative intensity
93.0349	8
109.0302	7
122.9929	1
135.0462	9
136.0156	1
136.0528	1
137.0254	1
139.0056	1
148.0173	3
149.0252	295
150.0284	12
151.0312	1
152.0133	11
163.041	112
164.0488	673
165.0199	19
165.0528	34
166.023	1
166.0533	2
167.0261	1
167.0383	1
169.051	7
179.0721	29
193.0153	899
195.0217	4
196.0249	1
207.03	5
208.0387	999
223.0626	85
