Mass spectrum: Ala-Phe; LC-ESI-QTOF; MS2; CE: 40; R=; [M-H]-
Name: Ala-Phe
Name: (2S)-2-[[(2S)-2-azaniumylpropanoyl]amino]-3-phenylpropanoate
Formula: C12H16N2O3
Exact mass: 236.1161
SMILES: C[C@H](N)C(=O)N[C@@H](Cc1ccccc1)C(O)=O
InChI: InChI=1S/C12H16N2O3/c1-8(13)11(15)14-10(12(16)17)7-9-5-3-2-4-6-9/h2-6,8,10H,7,13H2,1H3,(H,14,15)(H,16,17)/t8-,10-/m0/s1
Instrument: maXis plus UHR-ToF-MS, Bruker Daltonics
Instrument type: LC-ESI-QTOF
Ms type: MS2
Ion mode: NEGATIVE
Ionization: ESI
Fragmentation mode: CID
Collision energy: 40
Column name: BEH C18 1.7um, 2.1x100mm, Waters
Retention time: 2.427 min
Base peak: 235.1095
Precursor m/z: 235.1088
Precursor type: [M-H]-
m/z	relative intensity
70.0297	199
72.009	67
77.0392	18
87.0565	999
91.0558	130
103.0561	38
