Mass spectrum: Uridine; LC-ESI-QTOF; MS2; CE: 20; R=; [M-H]-
Name: Uridine
Name: 1-[(2R,3R,4S,5R)-3,4-dihydroxy-5-(hydroxymethyl)oxolan-2-yl]pyrimidine-2,4-dione
Formula: C9H12N2O6
Exact mass: 244.0695
SMILES: c1cn(c(=O)nc1O)[C@H]2[C@@H]([C@@H]([C@H](O2)CO)O)O
InChI: InChI=1S/C9H12N2O6/c12-3-4-6(14)7(15)8(17-4)11-2-1-5(13)10-9(11)16/h1-2,4,6-8,12,14-15H,3H2,(H,10,13,16)/t4-,6-,7-,8-/m1/s1
Instrument: maXis plus UHR-ToF-MS, Bruker Daltonics
Instrument type: LC-ESI-QTOF
Ms type: MS2
Ion mode: NEGATIVE
Ionization: ESI
Fragmentation mode: CID
Collision energy: 20
Column name: BEH C18 1.7um, 2.1x100mm, Waters
Retention time: 0.711 min
Base peak: 243.0624
Precursor m/z: 243.0623
Precursor type: [M-H]-
m/z	relative intensity
94.029	41
96.0457	38
110.0256	999
111.0275	50
140.0354	72
152.0353	77
200.0566	297
243.0602	130
