Mass spectrum: N-Oleyl-Leucine; LC-ESI-QTOF; MS2; CE: 40; R=; [M-H]-
Name: N-Oleyl-Leucine
Name: N-oleoyl leucine
Name: (2S)-4-methyl-2-[[(Z)-octadec-9-enoyl]amino]pentanoic acid
Formula: C24H45NO3
Exact mass: 395.3399
SMILES: CCCCCCCC/C=C\CCCCCCCC(=O)N[C@@H](CC(C)C)C(=O)O
InChI: InChI=1S/C24H45NO3/c1-4-5-6-7-8-9-10-11-12-13-14-15-16-17-18-19-23(26)25-22(24(27)28)20-21(2)3/h11-12,21-22H,4-10,13-20H2,1-3H3,(H,25,26)(H,27,28)/b12-11-/t22-/m0/s1
Instrument: maXis plus UHR-ToF-MS, Bruker Daltonics
Instrument type: LC-ESI-QTOF
Ms type: MS2
Ion mode: NEGATIVE
Ionization: ESI
Fragmentation mode: CID
Collision energy: 40
Column name: BEH C18 1.7um, 2.1x100mm, Waters
Retention time: 7.257 min
Base peak: 394.3322
Precursor m/z: 394.3327
Precursor type: [M-H]-
m/z	relative intensity
58.0302	27
66.0347	27
82.0667	36
84.0818	18
85.0665	5
113.0583	15
128.1083	14
130.0878	999
131.091	62
265.2545	14
280.2635	18
294.283	9
348.3354	7
350.3425	140
394.3325	23
