Mass spectrum: alpha-Linolenoyl Ethanolamide; LC-ESI-QTOF; MS2; CE: 40; R=; [M+H]+
Name: alpha-Linolenoyl Ethanolamide
Name: (9Z,12Z,15Z)-N-(2-hydroxyethyl)octadeca-9,12,15-trienamide
Formula: C20H35NO2
Exact mass: 321.26678
SMILES: OCCNC(=O)CCCCCCC/C=C\C/C=C\C/C=C\CC
InChI: InChI=1S/C20H35NO2/c1-2-3-4-5-6-7-8-9-10-11-12-13-14-15-16-17-20(23)21-18-19-22/h3-4,6-7,9-10,22H,2,5,8,11-19H2,1H3,(H,21,23)/b4-3-,7-6-,10-9-
Instrument: maXis plus UHR-ToF-MS, Bruker Daltonics
Instrument type: LC-ESI-QTOF
Ms type: MS2
Ion mode: POSITIVE
Ionization: ESI
Fragmentation mode: CID
Collision energy: 40
Column name: BEH C18 1.7um, 2.1x100mm, Waters
Retention time: 6.063 min
Base peak: 88.0751
Precursor m/z: 322.2741
Precursor type: [M+H]+
m/z	relative intensity
53.0391	36
55.017	9
56.0497	10
63.0556	26
64.0637	20
66.0419	9
70.0282	64
71.0486	47
71.0851	10
77.0389	54
79.0537	999
80.0573	82
81.0692	975
83.0483	20
83.0859	72
85.0641	15
91.0539	221
92.0575	32
93.0693	531
94.0728	65
95.0499	64
95.0854	395
96.0805	13
98.0598	17
105.0452	12
105.0703	87
107.0859	139
109.1009	47
117.0707	20
121.1007	48
122.1055	8
131.0853	19
145.1012	10
147.1181	9
149.1321	10
159.1142	8
161.1314	9
161.2707	7
202.1692	28
304.2707	12
