Mass spectrum: 5?-CHOLANIC ACID-3?-OL-6_7-DIONE; LC-ESI-QTOF; MS2; CE: 20; R=; [M+H]+
Name: 5?-CHOLANIC ACID-3?-OL-6_7-DIONE
Formula: C24H36O5
Exact mass: 404.2563
SMILES: C[C@H](CCC(=O)O)[C@H]1CC[C@@H]2[C@@]1(CC[C@H]3[C@H]2C(=O)C(=O)[C@H]4[C@@]3(CC[C@H](C4)O)C)C
InChI: InChI=1S/C24H36O5/c1-13(4-7-19(26)27)15-5-6-16-20-17(9-11-23(15,16)2)24(3)10-8-14(25)12-18(24)21(28)22(20)29/h13-18,20,25H,4-12H2,1-3H3,(H,26,27)/t13-,14-,15-,16+,17+,18+,20+,23-,24-/m1/s1
Instrument: maXis plus UHR-ToF-MS, Bruker Daltonics
Instrument type: LC-ESI-QTOF
Ms type: MS2
Ion mode: POSITIVE
Ionization: ESI
Fragmentation mode: CID
Collision energy: 20
Column name: BEH C18 1.7um, 2.1x100mm, Waters
Retention time: 4.983 min
Base peak: 405.2627
Precursor m/z: 405.2636
Precursor type: [M+H]+
m/z	relative intensity
85.0648	1
99.0433	1
99.0799	8
105.0705	1
119.0852	2
123.0815	1
135.9865	1
145.1	1
149.0947	1
157.1094	1
159.116	1
160.0689	1
163.1101	1
165.9938	1
171.08	1
171.1184	1
173.0955	3
173.133	2
175.0753	1
175.1111	11
175.1472	1
176.1142	1
179.1064	1
181.1197	1
185.1316	1
187.1119	1
189.1279	2
191.1058	2
191.1427	2
192.1124	1
197.1413	1
199.1477	2
200.0507	1
201.1262	8
201.1437	1
202.2051	1
203.1431	1
207.1368	2
209.1326	1
209.1506	1
211.147	2
213.1239	1
215.1422	8
216.1463	1
217.1205	2
223.1484	1
224.1639	1
225.1262	1
226.1314	1
227.1432	5
228.146	1
228.2184	1
229.1581	5
230.1624	1
239.1431	2
240.1883	1
241.1573	6
243.1385	2
248.154	1
251.1449	1
251.1801	1
253.159	1
253.2013	1
253.9983	1
255.1395	1
255.1737	2
259.1652	1
261.1473	2
269.1545	2
269.1895	1
270.1913	1
274.0431	1
277.1576	1
289.1953	1
291.2096	5
292.2137	1
293.1921	1
295.1691	2
296.2446	1
297.2554	1
305.2265	17
306.2297	3
307.2028	1
307.2322	1
307.2432	1
309.1854	1
309.2213	2
315.2098	6
316.2131	1
323.2364	21
324.2395	5
333.2205	270
334.2241	49
335.2286	4
339.2313	1
341.2467	73
342.2493	17
343.2539	1
347.2703	1
351.2311	999
352.2343	280
353.2381	24
354.2418	1
359.26	1
369.2415	638
370.245	167
371.2487	15
372.2517	1
387.2521	106
388.2556	28
389.2584	4
405.2622	64
407.269	2
