Mass spectrum: 3?-Hydroxy-12 Ketolithocholic Acid; LC-ESI-QTOF; MS2; CE: 20; R=; [M+H]+
Name: 3?-Hydroxy-12 Ketolithocholic Acid
Name: 12-Ketolithocholic acid
Name: (4R)-4-[(3R,5R,8R,9S,10S,13R,14S,17R)-3-hydroxy-10,13-dimethyl-12-oxo-1,2,3,4,5,6,7,8,9,11,14,15,16,17-tetradecahydrocyclopenta[a]phenanthren-17-yl]pentanoic acid
Formula: C24H38O4
Exact mass: 390.2770
SMILES: C[C@H](CCC(=O)O)[C@H]1CC[C@@H]2[C@@]1(C(=O)C[C@H]3[C@H]2CC[C@H]4[C@@]3(CC[C@H](C4)O)C)C
InChI: InChI=1S/C24H38O4/c1-14(4-9-22(27)28)18-7-8-19-17-6-5-15-12-16(25)10-11-23(15,2)20(17)13-21(26)24(18,19)3/h14-20,25H,4-13H2,1-3H3,(H,27,28)/t14-,15-,16-,17+,18-,19+,20+,23+,24-/m1/s1
Instrument: maXis plus UHR-ToF-MS, Bruker Daltonics
Instrument type: LC-ESI-QTOF
Ms type: MS2
Ion mode: POSITIVE
Ionization: ESI
Fragmentation mode: CID
Collision energy: 20
Column name: BEH C18 1.7um, 2.1x100mm, Waters
Retention time: 5.054 min
Base peak: 391.2841
Precursor m/z: 391.2843
Precursor type: [M+H]+
m/z	relative intensity
145.1011	15
146.1049	1
147.1168	4
149.1318	9
157.1006	1
159.1173	4
161.1316	5
162.1349	1
163.1478	6
164.1518	1
171.1145	1
173.1318	1
175.1486	1
177.1648	1
179.1049	1
181.1227	1
185.1318	2
187.1477	2
189.1628	1
191.1051	2
193.1226	5
199.1482	8
201.1638	10
202.166	1
203.1798	2
205.1215	3
207.1374	1
209.1331	2
211.1496	2
213.1633	9
214.1657	1
215.1792	30
216.1834	3
219.1389	3
223.1499	2
225.1635	2
227.1435	5
227.1788	8
228.1829	1
229.1587	8
229.195	1
231.1388	1
231.174	1
233.1543	3
235.1686	1
237.1635	1
239.1782	1
241.1606	1
241.1958	3
243.175	1
243.2111	1
245.1534	26
246.1587	3
247.1678	7
248.1728	2
253.197	1
255.1738	12
255.2111	2
256.1768	2
259.169	13
260.1738	2
261.1865	8
262.1872	1
263.0063	1
273.186	3
274.1876	1
279.2095	2
281.1893	1
293.2237	1
295.2052	3
295.2435	2
297.2224	2
299.2018	2
309.2575	917
309.2784	56
310.261	223
313.2167	2
319.242	39
320.2454	7
321.2493	1
327.2676	29
328.2714	5
337.2525	288
338.2553	61
355.2631	999
355.2865	60
356.2665	262
357.2696	19
373.2735	596
374.2773	186
375.2802	14
376.2827	1
391.2843	30
