Mass spectrum: 2`-O-Methyladenosine; LC-ESI-QTOF; MS2; CE: 40; R=; [M+H]+
Name: 2`-O-Methyladenosine
Name: (2R,3R,4R,5R)-5-(6-aminopurin-9-yl)-2-(hydroxymethyl)-4-methoxyoxolan-3-ol
Formula: C11H15N5O4
Exact mass: 281.1124
SMILES: CO[C@@H]1[C@@H]([C@H](O[C@H]1n2cnc3c2ncnc3N)CO)O
InChI: InChI=1S/C11H15N5O4/c1-19-8-7(18)5(2-17)20-11(8)16-4-15-6-9(12)13-3-14-10(6)16/h3-5,7-8,11,17-18H,2H2,1H3,(H2,12,13,14)/t5-,7-,8-,11-/m1/s1
Instrument: maXis plus UHR-ToF-MS, Bruker Daltonics
Instrument type: LC-ESI-QTOF
Ms type: MS2
Ion mode: POSITIVE
Ionization: ESI
Fragmentation mode: CID
Collision energy: 40
Column name: BEH C18 1.7um, 2.1x100mm, Waters
Retention time: 0.778 min
Base peak: 282.1194
Precursor m/z: 282.1197
Precursor type: [M+H]+
m/z	relative intensity
53.0389	3
53.0946	2
55.0166	24
57.0322	60
59.0482	67
60.0201	7
61.0276	36
67.0168	2
69.0326	488
71.0123	37
71.0474	16
73.028	24
73.0649	31
74.0347	4
75.0433	71
83.0489	4
85.0274	27
87.0432	61
89.0596	10
89.0942	3
92.0244	5
92.9973	2
94.04	67
97.0282	36
99.0423	2
101.0598	38
102.0319	3
102.9895	2
108.0578	3
109.0495	10
112.0035	2
115.0369	2
119.0343	66
120.0396	6
127.0576	2
129.0544	2
131.9989	2
136.0617	999
137.0451	21
137.0647	61
149.0235	2
149.0709	2
178.0667	4
192.0865	2
