Mass spectrum: C4-homoserine lactone; LC-ESI-QTOF; MS2; CE: 20; R=; [M+H]+
Name: C4-homoserine lactone
Name: N-Butyrylhomoserine lactone
Name: N-(2-oxooxolan-3-yl)butanamide
Formula: C8H13NO3
Exact mass: 171.08954
SMILES: CCCC(=O)NC1CCOC1=O
InChI: InChI=1S/C8H13NO3/c1-2-3-7(10)9-6-4-5-12-8(6)11/h6H,2-5H2,1H3,(H,9,10)
Instrument: maXis plus UHR-ToF-MS, Bruker Daltonics
Instrument type: LC-ESI-QTOF
Ms type: MS2
Ion mode: POSITIVE
Ionization: ESI
Fragmentation mode: CID
Collision energy: 20
Column name: BEH C18 1.7um, 2.1x100mm, Waters
Retention time: 2.223 min
Base peak: 172.0964
Precursor m/z: 172.0968
Precursor type: [M+H]+
m/z	relative intensity
57.0325	2
71.0483	999
84.0439	47
85.0281	33
102.0546	244
154.0856	24
