Mass spectrum: Glycine; LC-ESI-QTOF; MS2; CE: 10; R=; [M-H]-
Name: Glycine
Name: 2-azaniumylacetate
Formula: C2H5NO2
Exact mass: 75.03203
SMILES: C(C(=O)O)N
InChI: InChI=1S/C2H5NO2/c3-1-2(4)5/h1,3H2,(H,4,5)
Instrument: maXis plus UHR-ToF-MS, Bruker Daltonics
Instrument type: LC-ESI-QTOF
Ms type: MS2
Ion mode: NEGATIVE
Ionization: ESI
Fragmentation mode: CID
Collision energy: 10
Column name: BEH C18 1.7um, 2.1x100mm, Waters
Retention time: 0.587 min
Base peak: 74.0253
Precursor m/z: 74.0248
Precursor type: [M-H]-
m/z	relative intensity
74.0253	999
