Mass spectrum: Oleoyl-L-Carnitine; LC-ESI-QTOF; MS2; CE: 40; R=; [M+H]+
Name: Oleoyl-L-Carnitine
Name: (3R)-3-[(Z)-octadec-9-enoyl]oxy-4-(trimethylazaniumyl)butanoate
Formula: C25H47NO4
Exact mass: 425.3505
SMILES: CCCCCCCC/C=C\CCCCCCCC(=O)O[C@H](CC(=O)[O-])C[N+](C)(C)C
InChI: InChI=1S/C25H47NO4/c1-5-6-7-8-9-10-11-12-13-14-15-16-17-18-19-20-25(29)30-23(21-24(27)28)22-26(2,3)4/h12-13,23H,5-11,14-22H2,1-4H3/b13-12-/t23-/m1/s1
Instrument: maXis plus UHR-ToF-MS, Bruker Daltonics
Instrument type: LC-ESI-QTOF
Ms type: MS2
Ion mode: POSITIVE
Ionization: ESI
Fragmentation mode: CID
Collision energy: 40
Column name: BEH C18 1.7um, 2.1x100mm, Waters
Retention time: 5.863 min
Base peak: 426.3579
Precursor m/z: 426.3578
Precursor type: [M+H]+
m/z	relative intensity
55.054	3
57.033	6
57.0694	4
60.0803	126
67.054	11
69.0693	19
71.0486	1
71.0852	7
79.0538	2
81.0693	17
83.0853	13
84.08	2
85.0279	999
93.07	5
95.085	7
97.0652	1
97.1016	5
107.085	1
109.1009	1
121.1021	1
135.1176	1
144.1012	8
149.132	1
426.3567	1
