Mass spectrum: Sinapinic acid; LC-ESI-QTOF; MS2; CE: 10; R=; [M-H]-
Name: Sinapic acid
Name: 3,5-dimethoxy-4-hydroxycinnamic acid
Name: 3-(4-hydroxy-3,5-dimethoxy-phenyl)prop-2-enoic acid
Formula: C11H12O5
Exact mass: 224.06847
SMILES: COC1=CC(=CC(=C1O)OC)/C=C/C(=O)O
InChI: InChI=1S/C11H12O5/c1-15-8-5-7(3-4-10(12)13)6-9(16-2)11(8)14/h3-6,14H,1-2H3,(H,12,13)/b4-3+
Instrument: maXis plus UHR-ToF-MS, Bruker Daltonics
Instrument type: LC-ESI-QTOF
Ms type: MS2
Ion mode: NEGATIVE
Ionization: ESI
Fragmentation mode: CID
Collision energy: 10
Column name: BEH C18 1.7um, 2.1x100mm, Waters
Retention time: 3.149 min
Base peak: 223.0617
Precursor m/z: 223.0612
Precursor type: [M-H]-
m/z	relative intensity
149.0252	6
163.0411	3
164.0488	70
165.0522	2
179.0721	31
193.0152	17
208.0387	348
223.0619	999
