Mass spectrum: Tetradecanoyl-L-Carnitine; LC-ESI-QTOF; MS2; CE: 40; R=; [M+H]+
Name: Tetradecanoyl-L-Carnitine
Name: L-Myristoylcarnitine
Name: (3R)-3-tetradecanoyloxy-4-(trimethylazaniumyl)butanoate
Formula: C21H41NO4
Exact mass: 371.3036
SMILES: CCCCCCCCCCCCCC(=O)O[C@H](CC(=O)[O-])C[N+](C)(C)C
InChI: InChI=1S/C21H41NO4/c1-5-6-7-8-9-10-11-12-13-14-15-16-21(25)26-19(17-20(23)24)18-22(2,3)4/h19H,5-18H2,1-4H3/t19-/m1/s1
Instrument: maXis plus UHR-ToF-MS, Bruker Daltonics
Instrument type: LC-ESI-QTOF
Ms type: MS2
Ion mode: POSITIVE
Ionization: ESI
Fragmentation mode: CID
Collision energy: 40
Column name: BEH C18 1.7um, 2.1x100mm, Waters
Retention time: 5.378 min
Base peak: 372.3129
Precursor m/z: 372.3108
Precursor type: [M+H]+
m/z	relative intensity
46.1589	1
49.0073	1
49.1221	1
55.1122	1
55.1695	2
56.0008	1
56.107	1
57.033	362
57.0694	370
58.0646	211
59.0497	1
67.0538	275
68.0574	8
69.0694	354
70.0037	1
71.085	999
73.0645	4
75.044	5
77.0387	1
78.0311	2
79.0542	10
79.2639	1
79.2868	3
81.0696	351
81.9897	1
82.0155	1
82.0626	1
82.0731	15
82.0858	2
83.0491	9
83.0852	97
84.0805	167
88.1462	2
88.2763	1
89.0595	26
90.1035	2
95.0853	377
96.0888	18
97.0648	5
97.1006	47
98.097	4
99.0788	4
99.1167	9
100.1113	1
101.0585	2
103.0385	28
103.0752	18
109.101	90
110.1057	7
111.1169	14
112.0161	1
113.1325	1
117.0889	3
121.1011	1
123.1168	16
124.1197	3
125.0973	2
128.0705	2
129.0788	31
130.0814	1
131.1068	1
135.1165	1
136.1212	2
137.1293	1
144.1019	161
145.0848	1
145.1047	9
146.1044	1
162.113	4
185.1404	1
211.2041	6
229.2168	4
313.2395	3
314.2419	2
372.3105	13
