Mass spectrum: Linoleic acid; LC-ESI-QTOF; MS2; CE: 20; R=; [M+H]+
Name: Linoleic acid
Name: (9Z,12Z)-octadeca-9,12-dienoic acid
Formula: C18H32O2
Exact mass: 280.2402
SMILES: CCCCC/C=C\C/C=C\CCCCCCCC(=O)O
InChI: InChI=1S/C18H32O2/c1-2-3-4-5-6-7-8-9-10-11-12-13-14-15-16-17-18(19)20/h6-7,9-10H,2-5,8,11-17H2,1H3,(H,19,20)/b7-6-,10-9-
Instrument: maXis plus UHR-ToF-MS, Bruker Daltonics
Instrument type: LC-ESI-QTOF
Ms type: MS2
Ion mode: POSITIVE
Ionization: ESI
Fragmentation mode: CID
Collision energy: 20
Column name: BEH C18 1.7um, 2.1x100mm, Waters
Retention time: 6.958 min
Base peak: 88.0749
Precursor m/z: 281.2475
Precursor type: [M+H]+
m/z	relative intensity
71.0361	24
71.085	256
73.0068	20
83.0849	999
85.0644	62
89.0601	42
93.0689	99
95.0848	290
97.0647	90
97.1005	536
99.0795	24
100.0181	17
100.0276	32
105.0709	22
107.0858	104
111.0809	23
111.117	149
119.0856	32
123.0809	54
123.1164	20
133.1005	103
135.0813	18
135.1168	29
143.1072	27
147.1168	87
148.1204	31
149.0231	171
149.1316	161
151.0868	33
151.1108	110
153.165	19
161.1311	187
162.1356	47
163.1468	75
165.1275	50
167.1423	50
168.1521	23
175.1471	246
177.1645	27
179.178	58
181.1563	66
189.1656	127
190.1657	27
191.1401	22
193.0638	18
193.1588	70
203.1782	54
205.193	21
207.1759	31
208.1808	46
209.1543	18
217.1967	22
219.21	98
221.1896	64
221.2268	87
243.2119	20
245.2259	511
246.236	36
262.2248	23
263.2378	205
264.2341	22
265.2522	42
279.0889	21
283.2288	21
