Mass spectrum: Tauroursodeoxycholic acid; LC-ESI-QTOF; MS2; CE: 20; R=; [M+H]+
Name: Tauroursodeoxycholic acid
Name: 2-[[(4R)-4-[(3R,5S,7S,8R,9S,10S,13R,14S,17R)-3,7-dihydroxy-10,13-dimethyl-2,3,4,5,6,7,8,9,11,12,14,15,16,17-tetradecahydro-1H-cyclopenta[a]phenanthren-17-yl]pentanoyl]amino]ethanesulfonic acid
Formula: C26H45NO6S
Exact mass: 499.2968
SMILES: C[C@H](CCC(=O)NCCS(=O)(=O)O)[C@H]1CC[C@@H]2[C@@]1(CC[C@H]3[C@H]2[C@H](C[C@H]4[C@@]3(CC[C@H](C4)O)C)O)C
InChI: InChI=1S/C26H45NO6S/c1-16(4-7-23(30)27-12-13-34(31,32)33)19-5-6-20-24-21(9-11-26(19,20)3)25(2)10-8-18(28)14-17(25)15-22(24)29/h16-22,24,28-29H,4-15H2,1-3H3,(H,27,30)(H,31,32,33)/t16-,17+,18-,19-,20+,21+,22+,24+,25+,26-/m1/s1
Instrument: maXis plus UHR-ToF-MS, Bruker Daltonics
Instrument type: LC-ESI-QTOF
Ms type: MS2
Ion mode: POSITIVE
Ionization: ESI
Fragmentation mode: CID
Collision energy: 20
Column name: BEH C18 1.7um, 2.1x100mm, Waters
Retention time: 3.883 min
Base peak: 88.0749
Precursor m/z: 500.304
Precursor type: [M+H]+
m/z	relative intensity
126.022	1
149.1305	1
175.1475	5
189.1638	2
201.1634	8
203.1782	1
208.0635	8
213.1652	1
215.1784	3
229.1928	1
243.2084	1
257.1905	1
263.2701	1
276.1311	1
288.1262	4
290.1474	1
300.1271	1
302.142	4
314.1432	3
316.1582	2
321.2589	5
322.2571	1
328.1567	1
330.172	2
339.2676	31
340.2712	7
342.1718	2
354.173	3
355.1778	1
356.1883	1
368.1881	1
370.2089	1
382.2042	3
383.2067	1
463.2517	1
463.2747	1
463.3159	1
463.3389	1
464.2827	999
465.2856	333
466.2853	60
467.2833	8
482.2929	9
483.2974	2
