Mass spectrum: L-Alanine; LC-ESI-QTOF; MS2; CE: 10; R=; [M-H]-
Name: L-Alanine
Name: (2S)-2-azaniumylpropanoate
Formula: C3H7NO2
Exact mass: 89.04768
SMILES: C[C@@H](C(=O)O)N
InChI: InChI=1S/C3H7NO2/c1-2(4)3(5)6/h2H,4H2,1H3,(H,5,6)/t2-/m0/s1
Instrument: maXis plus UHR-ToF-MS, Bruker Daltonics
Instrument type: LC-ESI-QTOF
Ms type: MS2
Ion mode: NEGATIVE
Ionization: ESI
Fragmentation mode: CID
Collision energy: 10
Column name: BEH C18 1.7um, 2.1x100mm, Waters
Retention time: 0.601 min
Base peak: 88.0409
Precursor m/z: 88.0404
Precursor type: [M-H]-
m/z	relative intensity
88.0411	999
89.036	32
