Mass spectrum: Ala-Phe; LC-ESI-QTOF; MS2; CE: 20; R=; [M-H]-
Name: Ala-Phe
Name: (2S)-2-[[(2S)-2-azaniumylpropanoyl]amino]-3-phenylpropanoate
Formula: C12H16N2O3
Exact mass: 236.1161
SMILES: C[C@H](N)C(=O)N[C@@H](Cc1ccccc1)C(O)=O
InChI: InChI=1S/C12H16N2O3/c1-8(13)11(15)14-10(12(16)17)7-9-5-3-2-4-6-9/h2-6,8,10H,7,13H2,1H3,(H,14,15)(H,16,17)/t8-,10-/m0/s1
Instrument: maXis plus UHR-ToF-MS, Bruker Daltonics
Instrument type: LC-ESI-QTOF
Ms type: MS2
Ion mode: NEGATIVE
Ionization: ESI
Fragmentation mode: CID
Collision energy: 20
Column name: BEH C18 1.7um, 2.1x100mm, Waters
Retention time: 2.427 min
Base peak: 235.1095
Precursor m/z: 235.1088
Precursor type: [M-H]-
m/z	relative intensity
70.0296	9
72.0087	2
87.0566	999
89.0608	2
91.0555	54
92.0594	6
99.0562	2
103.0562	10
147.0453	40
164.0721	27
167.0709	1
191.1204	18
235.1089	224
