Mass spectrum: 3-oxo-C10-homoserine lactone; LC-ESI-QTOF; MS2; CE: 40; R=; [M+H]+
Name: 3-oxo-C10-homoserine lactone
Name: N-(3-Oxodecanoyl)-DL-homoserine lactone
Name: 3-oxo-N-(2-oxooxolan-3-yl)decanamide
Formula: C14H23NO4
Exact mass: 269.16271
SMILES: CCCCCCCC(=O)CC(=O)NC1CCOC1=O
InChI: InChI=1S/C14H23NO4/c1-2-3-4-5-6-7-11(16)10-13(17)15-12-8-9-19-14(12)18/h12H,2-10H2,1H3,(H,15,17)
Instrument: maXis plus UHR-ToF-MS, Bruker Daltonics
Instrument type: LC-ESI-QTOF
Ms type: MS2
Ion mode: POSITIVE
Ionization: ESI
Fragmentation mode: CID
Collision energy: 40
Column name: BEH C18 1.7um, 2.1x100mm, Waters
Retention time: 4.607 min
Base peak: 270.1696
Precursor m/z: 270.17
Precursor type: [M+H]+
m/z	relative intensity
45.0911	1
53.0382	2
59.0483	8
68.9965	90
69.0328	5
69.0694	27
71.0121	308
71.0485	22
74.0231	659
74.0595	999
81.0326	14
81.0693	74
82.0649	1
82.0729	5
83.0491	8
83.0852	22
84.0438	202
85.0282	57
85.0639	7
91.0545	2
95.0479	3
97.0636	2
97.1004	1
98.0606	14
99.0437	23
99.0631	1
102.0546	245
104.0577	1
105.0689	1
109.1007	20
110.1048	2
111.0451	1
111.0803	1
113.0596	17
127.1108	5
169.1221	82
170.126	7
210.1485	1
