Mass spectrum: Daidzein; LC-ESI-QTOF; MS2; CE: 10; R=; [M-H]-
Name: Daidzein
Name: 7-hydroxy-3-(4-hydroxyphenyl)chromen-4-one
Formula: C15H10O4
Exact mass: 254.0579
SMILES: O=C\1c3c(O/C=C/1c2ccc(O)cc2)cc(O)cc3
InChI: InChI=1S/C15H10O4/c16-10-3-1-9(2-4-10)13-8-19-14-7-11(17)5-6-12(14)15(13)18/h1-8,16-17H
Instrument: maXis plus UHR-ToF-MS, Bruker Daltonics
Instrument type: LC-ESI-QTOF
Ms type: MS2
Ion mode: NEGATIVE
Ionization: ESI
Fragmentation mode: CID
Collision energy: 10
Column name: BEH C18 1.7um, 2.1x100mm, Waters
Retention time: 3.597 min
Base peak: 253.0512
Precursor m/z: 253.0506
Precursor type: [M-H]-
m/z	relative intensity
253.0515	999
