Mass spectrum: 3-oxo-C6-homoserine lactone; LC-ESI-QTOF; MS2; CE: 40; R=; [M+H]+
Name: 3-oxo-C6-homoserine lactone
Name: Autoinducer 1
Name: 3-oxo-N-(2-oxooxolan-3-yl)hexanamide
Formula: C10H15NO4
Exact mass: 213.10011
SMILES: CCCC(=O)CC(=O)NC1CCOC1=O
InChI: InChI=1S/C10H15NO4/c1-2-3-7(12)6-9(13)11-8-4-5-15-10(8)14/h8H,2-6H2,1H3,(H,11,13)
Instrument: maXis plus UHR-ToF-MS, Bruker Daltonics
Instrument type: LC-ESI-QTOF
Ms type: MS2
Ion mode: POSITIVE
Ionization: ESI
Fragmentation mode: CID
Collision energy: 40
Column name: BEH C18 1.7um, 2.1x100mm, Waters
Retention time: 2.750 min
Base peak: 214.1072
Precursor m/z: 214.1074
Precursor type: [M+H]+
m/z	relative intensity
57.0318	16
66.0919	5
68.0574	6
68.1193	2
69.0334	14
70.0282	20
71.0121	147
71.0483	914
73.0164	5
73.0523	4
74.023	999
74.0594	781
75.0806	2
84.0437	227
85.028	57
86.0476	4
95.0471	3
97.0251	2
98.0595	14
102.0546	173
113.0598	43
114.0632	10
