Mass spectrum: L-Isoleucine; LC-ESI-QTOF; MS2; CE: 20; R=; [M+H]+
Name: L-Isoleucine
Name: (2S,3S)-2-amino-3-methylpentanoic acid
Formula: C6H13NO2
Exact mass: 131.09463
SMILES: CC[C@H](C)[C@@H](C(=O)O)N
InChI: InChI=1S/C6H13NO2/c1-3-4(2)5(7)6(8)9/h4-5H,3,7H2,1-2H3,(H,8,9)/t4-,5-/m0/s1
Instrument: maXis plus UHR-ToF-MS, Bruker Daltonics
Instrument type: LC-ESI-QTOF
Ms type: MS2
Ion mode: POSITIVE
Ionization: ESI
Fragmentation mode: CID
Collision energy: 20
Column name: BEH C18 1.7um, 2.1x100mm, Waters
Retention time: 0.736 min
Base peak: 86.0958
Precursor m/z: 132.1019
Precursor type: [M+H]+
m/z	relative intensity
59.0476	1
67.0537	6
73.0643	4
86.0959	999
