Mass spectrum: Salicylic acid; LC-ESI-QTOF; MS2; CE: 20; R=; [M-H]-
Name: Salicylic acid
Formula: C7H6O3
Exact mass: 138.0317
SMILES: c1ccc(c(c1)C(=O)O)O
InChI: InChI=1S/C7H6O3/c8-6-4-2-1-3-5(6)7(9)10/h1-4,8H,(H,9,10)
Instrument: maXis plus UHR-ToF-MS, Bruker Daltonics
Instrument type: LC-ESI-QTOF
Ms type: MS2
Ion mode: NEGATIVE
Ionization: ESI
Fragmentation mode: CID
Collision energy: 20
Column name: BEH C18 1.7um, 2.1x100mm, Waters
Retention time: 3.600 min
Base peak: 93.0346
Precursor m/z: 137.0244
Precursor type: [M-H]-
m/z	relative intensity
65.0397	45
93.0345	999
137.0251	2
