Mass spectrum: 1-Stearoyl-sn-glycero-3-phosphocholine; LC-ESI-QTOF; MS2; CE: 40; R=; [M+H]+
Name: 1-Stearoyl-sn-glycero-3-phosphocholine
Name: 1-octadecanoyl-sn-glycero-3-phosphocholine
Name: [(2R)-2-hydroxy-3-octadecanoyloxypropyl] 2-(trimethylazaniumyl)ethyl phosphate
Formula: C26H54NO7P
Exact mass: 523.3638
SMILES: [H][C@@](O)(COC(=O)CCCCCCCCCCCCCCCCC)COP([O-])(=O)OCC[N+](C)(C)C
InChI: InChI=1S/C26H54NO7P/c1-5-6-7-8-9-10-11-12-13-14-15-16-17-18-19-20-26(29)32-23-25(28)24-34-35(30,31)33-22-21-27(2,3)4/h25,28H,5-24H2,1-4H3/t25-/m1/s1
Instrument: maXis plus UHR-ToF-MS, Bruker Daltonics
Instrument type: LC-ESI-QTOF
Ms type: MS2
Ion mode: POSITIVE
Ionization: ESI
Fragmentation mode: CID
Collision energy: 40
Column name: BEH C18 1.7um, 2.1x100mm, Waters
Retention time: 6.585 min
Base peak: 524.3709
Precursor m/z: 524.3711
Precursor type: [M+H]+
m/z	relative intensity
69.0694	2
71.0848	16
81.0696	4
83.085	3
85.1007	8
86.0958	377
95.0852	5
97.1012	3
98.9837	2
99.1173	1
104.1067	970
106.1126	1
109.0998	2
124.9996	27
163.0145	2
166.0623	7
181.0246	2
184.0727	999
185.0761	50
186.0779	6
199.0368	1
240.1	1
258.1102	13
259.1101	1
341.3051	57
342.3087	9
343.3086	1
447.2873	8
448.29	2
506.3602	41
507.3629	11
508.3677	1
524.3709	9
