Mass spectrum: ascr#7; LC-ESI-QTOF; MS2; CE: 20; R=; [M+H]+
Name: ascr#7
Name: (E,6R)-6-[(2R,3R,5R,6S)-3,5-dihydroxy-6-methyloxan-2-yl]oxyhept-2-enoic acid
Formula: C13H22O6
Exact mass: 274.1416
SMILES: C[C@H](CC\C=C\C(O)=O)O[C@@H]1O[C@@H](C)[C@H](O)C[C@H]1O
InChI: InChI=1S/C13H22O6/c1-8(5-3-4-6-12(16)17)18-13-11(15)7-10(14)9(2)19-13/h4,6,8-11,13-15H,3,5,7H2,1-2H3,(H,16,17)/b6-4+/t8-,9+,10-,11-,13-/m1/s1
Instrument: maXis plus UHR-ToF-MS, Bruker Daltonics
Instrument type: LC-ESI-QTOF
Ms type: MS2
Ion mode: POSITIVE
Ionization: ESI
Fragmentation mode: CID
Collision energy: 20
Column name: BEH C18 1.7um, 2.1x100mm, Waters
Retention time: 2.926 min
Base peak: 275.1487
Precursor m/z: 275.1489
Precursor type: [M+H]+
m/z	relative intensity
55.0175	26
59.0489	8
68.0585	5
68.9972	2
69.0329	10
71.0485	198
81.0691	347
83.0487	551
85.0643	999
86.0146	4
89.1319	4
91.0606	2
95.0487	137
99.0401	3
109.0643	324
110.0684	28
113.0594	767
114.0629	34
115.0603	2
127.075	301
131.0692	131
145.0879	4
159.0549	3
181.0485	2
181.0766	2
191.1269	2
257.1356	9
258.1418	10
