Mass spectrum: Methyl trans-cinnamic acid; LC-ESI-QTOF; MS2; CE: 10; R=; [M+H]+
Name: Methyl trans-cinnamic acid
Name: 4-Methylcinnamic acid
Name: (E)-3-(4-methylphenyl)prop-2-enoic acid
Formula: C10H10O2
Exact mass: 162.0681
SMILES: Cc1ccc(cc1)/C=C/C(=O)O
InChI: InChI=1S/C10H10O2/c1-8-2-4-9(5-3-8)6-7-10(11)12/h2-7H,1H3,(H,11,12)/b7-6+
Instrument: maXis plus UHR-ToF-MS, Bruker Daltonics
Instrument type: LC-ESI-QTOF
Ms type: MS2
Ion mode: POSITIVE
Ionization: ESI
Fragmentation mode: CID
Collision energy: 10
Column name: BEH C18 1.7um, 2.1x100mm, Waters
Retention time: 4.849 min
Base peak: 88.0752
Precursor m/z: 163.0754
Precursor type: [M+H]+
m/z	relative intensity
59.0365	24
61.0888	13
88.0751	197
103.0551	56
121.0656	10
131.0487	999
132.0533	107
161.0603	20
163.0748	820
