Mass spectrum: D-Sorbitol; LC-ESI-QTOF; MS2; CE: 20; R=; [M-H]-
Name: D-Sorbitol
Name: Sorbo
Name: (3S,4S,5R)-hexane-1,2,3,4,5,6-hexol
Formula: C6H14O6
Exact mass: 182.0790
SMILES: OC([C@H](O)[C@@H](O)[C@H](O)CO)CO
InChI: InChI=1S/C6H14O6/c7-1-3(9)5(11)6(12)4(10)2-8/h3-12H,1-2H2/t3-,4?,5+,6+/m1/s1
Instrument: maXis plus UHR-ToF-MS, Bruker Daltonics
Instrument type: LC-ESI-QTOF
Ms type: MS2
Ion mode: NEGATIVE
Ionization: ESI
Fragmentation mode: CID
Collision energy: 20
Column name: BEH C18 1.7um, 2.1x100mm, Waters
Retention time: 0.603 min
Base peak: 181.0726
Precursor m/z: 181.0718
Precursor type: [M-H]-
m/z	relative intensity
55.0191	12
57.0344	23
59.014	793
69.0349	28
71.014	999
73.0296	342
81.035	7
83.0139	29
85.0298	66
89.0248	310
101.0247	125
113.0248	13
151.0358	5
181.0731	121
