Mass spectrum: Pseudouridine; LC-ESI-QTOF; MS2; CE: 20; R=; [M+H]+
Name: Pseudouridine
Name: 5-[(2S,3R,4S,5R)-3,4-dihydroxy-5-(hydroxymethyl)oxolan-2-yl]-1H-pyrimidine-2,4-dione
Formula: C9H12N2O6
Exact mass: 244.0695
SMILES: c1c(c(nc(n1)O)O)[C@H]2[C@@H]([C@@H]([C@H](O2)CO)O)O
InChI: InChI=1S/C9H12N2O6/c12-2-4-5(13)6(14)7(17-4)3-1-10-9(16)11-8(3)15/h1,4-7,12-14H,2H2,(H2,10,11,15,16)/t4-,5-,6-,7+/m1/s1
Instrument: maXis plus UHR-ToF-MS, Bruker Daltonics
Instrument type: LC-ESI-QTOF
Ms type: MS2
Ion mode: POSITIVE
Ionization: ESI
Fragmentation mode: CID
Collision energy: 20
Column name: BEH C18 1.7um, 2.1x100mm, Waters
Retention time: 0.658 min
Base peak: 245.0762
Precursor m/z: 245.0768
Precursor type: [M+H]+
m/z	relative intensity
47.0478	4
51.1042	5
53.0833	5
55.0166	7
59.0242	3
61.9879	3
63.0555	3
65.0112	3
66.0668	4
71.0943	6
80.0498	14
82.0284	89
83.0851	3
84.0436	41
85.0277	8
85.0366	7
89.0348	3
91.041	6
91.0613	13
92.0493	11
92.9929	7
94.0293	6
96.0432	16
98.032	5
100.0398	24
102.0164	5
104.0615	6
105.9777	5
106.0535	3
110.0593	10
115.0188	4
117.1028	11
118.9839	6
120.0323	6
120.0432	13
121.0532	9
125.0344	140
126.0378	12
127.0377	3
127.0604	7
132.0625	5
135.042	3
137.0344	6
138.0532	11
139.0512	19
143.0356	3
144.0279	8
144.0411	8
146.022	5
147.0547	14
148.0382	81
149.041	8
150.0553	4
151.049	44
153.0312	6
153.0634	13
155.0442	404
159.9858	4
162.0187	4
163.0492	217
164.0535	18
165.0309	7
166.0493	99
167.0443	320
168.0307	6
168.048	14
169.0377	4
171.0865	5
171.9802	5
172.9719	4
173.0284	6
174.018	3
174.0665	4
176.0734	3
179.0451	263
180.0483	18
181.0595	46
187.0934	7
191.0446	999
192.0277	5
192.0478	56
194.03	3
196.0565	5
197.051	6
209.0547	486
210.0586	44
245.0765	11
