Mass spectrum: Ethyl vanillate; LC-ESI-QTOF; MS2; CE: 20; R=; [M-H]-
Name: Ethyl vanillate
Name: ethyl 4-hydroxy-3-methoxybenzoate
Formula: C10H12O4
Exact mass: 196.0736
SMILES: CCOC(=O)C1=CC(=C(C=C1)O)OC
InChI: InChI=1S/C10H12O4/c1-3-14-10(12)7-4-5-8(11)9(6-7)13-2/h4-6,11H,3H2,1-2H3
Instrument: maXis plus UHR-ToF-MS, Bruker Daltonics
Instrument type: LC-ESI-QTOF
Ms type: MS2
Ion mode: NEGATIVE
Ionization: ESI
Fragmentation mode: CID
Collision energy: 20
Column name: BEH C18 1.7um, 2.1x100mm, Waters
Retention time: 4.069 min
Base peak: 195.0666
Precursor m/z: 195.0663
Precursor type: [M-H]-
m/z	relative intensity
65.9983	1
67.0195	1
79.0192	3
81.0349	17
107.014	62
108.0175	3
125.025	3
126.0274	1
151.0042	208
167.0353	1
180.0434	999
195.0668	35
