Mass spectrum: Glycoursodeoxycholic acid; LC-ESI-QTOF; MS2; CE: 20; R=; [M+H]+
Name: Glycoursodeoxycholic acid
Name: 2-[[(4R)-4-[(3R,5S,7S,10S,13R,17R)-3,7-dihydroxy-10,13-dimethyl-2,3,4,5,6,7,8,9,11,12,14,15,16,17-tetradecahydro-1H-cyclopenta[a]phenanthren-17-yl]pentanoyl]amino]acetic acid
Formula: C26H43NO5
Exact mass: 449.3141
SMILES: C[C@H](CCC(=O)NCC(=O)O)[C@H]1CCC2[C@@]1(CCC3C2[C@H](C[C@H]4[C@@]3(CC[C@H](C4)O)C)O)C
InChI: InChI=1S/C26H43NO5/c1-15(4-7-22(30)27-14-23(31)32)18-5-6-19-24-20(9-11-26(18,19)3)25(2)10-8-17(28)12-16(25)13-21(24)29/h15-21,24,28-29H,4-14H2,1-3H3,(H,27,30)(H,31,32)/t15-,16+,17-,18-,19?,20?,21+,24?,25+,26-/m1/s1
Instrument: maXis plus UHR-ToF-MS, Bruker Daltonics
Instrument type: LC-ESI-QTOF
Ms type: MS2
Ion mode: POSITIVE
Ionization: ESI
Fragmentation mode: CID
Collision energy: 20
Column name: BEH C18 1.7um, 2.1x100mm, Waters
Retention time: 4.256 min
Base peak: 432.3104
Precursor m/z: 450.3214
Precursor type: [M+H]+
m/z	relative intensity
76.0389	57
81.0698	2
85.0643	2
121.1004	2
147.1155	2
149.1325	2
156.0647	1
158.0807	12
161.1313	7
163.1109	1
163.1487	1
172.0959	1
175.1472	12
176.1506	1
177.1272	2
186.1108	1
187.1473	1
189.1634	7
190.1648	1
198.1108	1
199.1467	1
201.1631	13
202.1658	2
203.1782	2
211.1498	1
212.1272	3
213.1646	1
215.1789	12
216.1829	1
217.1937	1
224.1283	2
225.1604	1
226.1441	3
227.1789	1
229.1581	1
229.1934	3
238.1435	13
239.1483	2
239.1785	1
240.1586	3
241.1947	1
243.21	3
244.2134	1
250.1435	1
252.159	10
257.1896	2
264.1582	4
266.1769	4
278.1736	3
280.1898	2
292.1895	4
294.2066	1
297.2572	1
304.1901	5
305.1966	1
306.2053	3
318.2067	2
320.2224	1
321.2576	48
322.261	9
332.2212	9
333.2239	1
339.2678	148
340.2714	29
357.2771	2
396.2894	3
414.3003	999
415.3036	360
416.3062	40
417.3075	2
432.3099	37
433.3136	10
434.3166	1
450.3222	1
