Mass spectrum: Oleoyl Ethanolamide; LC-ESI-QTOF; MS2; CE: 20; R=; [M+H]+
Name: Oleoyl Ethanolamide
Name: n-oleoylethanolamine
Name: (Z)-N-(2-hydroxyethyl)octadec-9-enamide
Formula: C20H39NO2
Exact mass: 325.29808
SMILES: CCCCCCCC/C=C\CCCCCCCC(=O)NCCO
InChI: InChI=1S/C20H39NO2/c1-2-3-4-5-6-7-8-9-10-11-12-13-14-15-16-17-20(23)21-18-19-22/h9-10,22H,2-8,11-19H2,1H3,(H,21,23)/b10-9-
Instrument: maXis plus UHR-ToF-MS, Bruker Daltonics
Instrument type: LC-ESI-QTOF
Ms type: MS2
Ion mode: POSITIVE
Ionization: ESI
Fragmentation mode: CID
Collision energy: 20
Column name: BEH C18 1.7um, 2.1x100mm, Waters
Retention time: 6.845 min
Base peak: 88.075
Precursor m/z: 326.3054
Precursor type: [M+H]+
m/z	relative intensity
55.2994	1
57.0702	4
60.0443	1
61.0031	1
62.0595	999
69.0694	8
71.0849	2
83.0857	10
95.0861	13
97.0615	1
97.1012	8
109.0642	2
109.1008	1
121.0979	2
135.1158	2
141.1638	1
142.1594	1
144.0891	1
149.1326	2
153.1266	1
154.0791	1
161.0808	1
163.0984	1
163.1495	1
164.1559	1
164.1993	1
165.1635	5
177.2326	1
191.1791	1
196.1008	1
207.031	1
211.0046	1
224.0516	1
234.1157	2
242.2455	2
243.0745	2
247.2184	1
247.2421	9
248.2472	2
253.1569	1
256.1116	1
257.9937	1
259.0011	2
261.0192	1
265.2514	10
266.2091	1
266.2569	4
267.0308	1
270.1159	2
271.0944	1
272.1447	1
275.067	1
307.0712	1
307.1434	1
308.2937	32
309.278	92
310.1285	1
310.179	1
310.2531	1
310.2827	20
311.2792	5
326.305	214
328.3089	4
