Mass spectrum: 5-Methylcytidine; LC-ESI-QTOF; MS2; CE: 40; R=; [M+H]+
Name: 5-Methylcytidine
Name: 4-amino-1-[(2R,3R,4S,5R)-3,4-dihydroxy-5-(hydroxymethyl)oxolan-2-yl]-5-methylpyrimidin-2-one
Formula: C10H15N3O5
Exact mass: 257.1012
SMILES: Cc1cn(c(=O)nc1N)[C@H]2[C@@H]([C@@H]([C@H](O2)CO)O)O
InChI: InChI=1S/C10H15N3O5/c1-4-2-13(10(17)12-8(4)11)9-7(16)6(15)5(3-14)18-9/h2,5-7,9,14-16H,3H2,1H3,(H2,11,12,17)/t5-,6-,7-,9-/m1/s1
Instrument: maXis plus UHR-ToF-MS, Bruker Daltonics
Instrument type: LC-ESI-QTOF
Ms type: MS2
Ion mode: POSITIVE
Ionization: ESI
Fragmentation mode: CID
Collision energy: 40
Column name: BEH C18 1.7um, 2.1x100mm, Waters
Retention time: 0.657 min
Base peak: 126.0663
Precursor m/z: 258.1084
Precursor type: [M+H]+
m/z	relative intensity
56.997	1
57.0324	18
59.0491	1
61.0279	9
63.0433	1
69.0326	25
71.012	19
71.023	20
73.0275	16
81.0441	98
82.0284	33
83.0599	475
84.044	2
85.0277	16
87.0427	1
97.0282	3
108.0556	148
109.0395	261
110.0424	9
112.0513	1
113.0922	1
126.0664	999
127.0694	47
