Mass spectrum: 5?-Cholanic Acid-3?-ol-6-one; LC-ESI-QTOF; MS2; CE: 40; R=; [M+H]+
Name: 5?-Cholanic Acid-3?-ol-6-one
Name: 5alpha-CHOLANIC ACID-3alpha-OL-6-ONE
Name: 4-(3-hydroxy-10,13-dimethyl-6-oxo-1,2,3,4,5,7,8,9,11,12,14,15,16,17-tetradecahydrocyclopenta[a]phenanthren-17-yl)pentanoic acid
Formula: C24H38O4
Exact mass: 390.2770
SMILES: CC(CCC(=O)O)C1CCC2C1(CCC3C2CC(=O)C4C3(CCC(C4)O)C)C
InChI: InChI=1S/C24H38O4/c1-14(4-7-22(27)28)17-5-6-18-16-13-21(26)20-12-15(25)8-10-24(20,3)19(16)9-11-23(17,18)2/h14-20,25H,4-13H2,1-3H3,(H,27,28)
Instrument: maXis plus UHR-ToF-MS, Bruker Daltonics
Instrument type: LC-ESI-QTOF
Ms type: MS2
Ion mode: POSITIVE
Ionization: ESI
Fragmentation mode: CID
Collision energy: 40
Column name: BEH C18 1.7um, 2.1x100mm, Waters
Retention time: 4.945 min
Base peak: 781.5613
Precursor m/z: 391.2843
Precursor type: [M+H]+
m/z	relative intensity
44.9974	5
52.0182	7
57.0331	7
60.0438	5
61.1218	16
65.0381	31
66.0548	4
68.0578	25
69.0332	36
69.0693	196
71.0488	28
71.0854	4
73.0644	5
77.0477	4
79.0058	13
79.0535	238
79.0971	12
80.0588	5
81.0695	999
82.2297	4
83.0494	182
83.0855	127
85.0642	205
86.1875	6
90.0918	4
91.0538	159
91.0635	27
93.0698	471
94.0738	47
95.0854	952
96.0884	109
97.0643	58
97.1014	51
98.0682	15
99.044	35
100.0488	13
101.0591	106
101.1743	6
103.0545	9
105.0697	217
106.073	38
106.214	12
107.0854	251
109.0643	127
109.1011	196
111.081	26
113.059	7
117.0703	18
119.0852	121
120.0213	4
121.0642	52
121.1009	137
122.0696	8
122.0844	4
122.1663	4
123.0812	137
123.1175	22
124.0838	5
127.0262	5
127.0754	44
127.1116	4
129.0086	4
133.1003	64
134.0367	7
135.0802	33
135.0921	11
135.1037	6
135.1161	107
135.1368	7
136.0119	10
137.0137	11
137.0961	38
139.0427	8
139.0745	6
141.9764	5
142.2287	8
143.0847	41
143.1538	9
144.0938	8
145.1005	150
146.1039	15
147.0797	18
147.1159	157
148.0188	4
148.1195	18
149.0963	49
149.1323	100
149.9943	6
150.1367	13
151.027	4
151.0747	7
151.1106	40
151.1472	5
152.0348	7
152.0713	4
153.0906	12
154.0937	7
155.033	5
155.0863	28
155.1291	4
157.1002	135
158.1085	5
158.1416	4
159.1163	595
159.978	8
160.0399	4
160.0847	5
160.12	46
161.0962	46
161.1322	189
162.0348	4
162.0999	8
162.1366	12
163.1102	105
163.1481	25
163.1679	6
164.115	16
165.0308	5
165.0922	10
165.1262	29
166.0415	7
166.1318	11
167.1066	18
167.2215	8
169.1001	42
171.0815	12
171.0975	10
171.1164	93
171.1328	14
172.0142	14
172.1204	7
172.1466	6
173.0916	21
173.1321	208
174.136	15
175.1112	348
175.1475	101
175.984	7
176.1168	33
176.1528	12
176.1764	5
177.1271	343
178.1314	35
178.1444	11
178.1797	6
178.9998	9
179.0859	13
179.1051	21
181.0146	10
181.1221	39
182.1078	8
182.1274	7
183.1165	45
184.121	23
185.0965	16
185.1124	11
185.1317	173
186.1347	25
187.0584	14
187.1107	20
187.1472	123
188.1521	27
188.165	6
189.0294	4
189.1273	66
189.1641	42
190.1313	4
191.1427	60
191.1994	4
192.1255	10
192.146	28
192.9935	6
193.072	5
193.0995	4
193.1228	13
193.1565	7
195.115	34
195.1369	98
196.0616	6
196.1232	8
196.1413	13
197.132	100
198.1378	20
199.1101	18
199.1475	231
200.1533	22
201.0422	5
201.0592	6
201.126	38
201.149	7
201.1625	51
201.183	4
202.1675	20
203.1048	13
203.1437	48
203.1761	14
203.2929	4
204.1523	4
205.1006	4
205.1206	18
205.1593	20
207.1161	12
207.1363	21
209.1333	14
209.153	15
210.1354	9
210.2322	5
211.1111	10
211.1483	66
212.1553	13
213.1283	19
213.1632	162
214.1673	20
215.1445	68
215.1797	41
216.0585	5
216.1455	19
216.1865	9
217.1572	115
218.0344	9
218.1605	14
219.1355	13
219.173	5
220.0487	4
220.1541	6
220.1785	8
220.2521	6
221.1335	7
221.1505	8
222.1344	4
222.1733	7
223.1475	55
224.1275	8
224.1526	8
224.1834	4
225.1237	5
225.164	37
226.1633	6
226.1732	10
227.179	50
228.1509	7
228.1684	9
229.1189	5
229.1589	66
229.1954	7
231.1448	5
231.1726	25
232.1441	5
232.1793	8
233.1507	23
233.1896	16
234.1569	9
235.149	12
235.1692	62
236.1731	7
237.164	23
238.1674	4
239.1017	5
239.1779	54
240.1807	5
241.1586	32
242.0238	8
242.0833	5
242.1627	11
242.2006	17
243.0058	4
243.1369	10
243.1751	10
245.0791	5
245.1524	24
246.1568	5
247.1701	12
249.1621	21
249.1857	41
250.1661	20
251.1812	11
253.1542	10
253.193	23
253.9991	4
254.1672	4
254.2024	24
255.1761	11
255.2093	33
257.19	38
258.0501	10
259.1652	5
259.1758	14
261.1863	22
262.2362	5
262.9831	6
263.066	10
263.1772	36
263.2019	7
264.1827	12
265.1989	4
266.1648	4
266.1998	4
267.1728	10
267.2101	26
268.2114	7
269.1966	8
271.1762	6
271.2063	19
272.0199	4
272.1401	8
273.187	9
273.2184	12
275.1995	6
277.1925	30
278.1863	5
278.2064	9
281.188	37
282.1912	11
284.1869	5
285.1857	12
285.2229	8
286.1896	8
287.2095	12
289.19	7
289.9943	6
290.2179	6
291.0952	5
293.2313	8
294.229	9
294.9926	9
295.2072	52
295.2435	29
296.2078	14
297.224	14
299.2019	27
300.2294	6
301.2136	18
302.2542	6
303.2319	4
304.1464	6
304.9851	7
306.0998	4
309.2597	21
310.2307	5
310.2756	4
310.2985	4
311.2311	9
313.2164	45
314.2117	8
314.2555	7
315.2322	18
316.1088	6
316.1956	8
316.2347	7
316.2578	4
319.2189	5
319.2425	50
320.2454	9
322.2259	11
327.2012	7
327.2305	8
327.2668	12
328.2415	7
328.274	6
331.2285	7
331.2662	4
333.2228	6
337.2524	102
338.2534	39
340.2354	4
341.1796	10
344.1071	4
346.0863	4
355.2625	250
356.2656	65
357.2413	7
357.2724	12
358.2495	6
373.2732	841
374.2769	212
375.124	7
375.2805	26
