Mass spectrum: 2-Hydroxyphenanzine-1-Carboxylic acid; LC-ESI-QTOF; MS2; CE: 10; R=; [M-H]-
Name: 2-Hydroxyphenanzine-1-Carboxylic acid
Name: 2-Hydroxyphenazine-1-carboxylic acid
Name: 2-oxo-10H-phenazine-1-carboxylic acid
Formula: C13H8N2O3
Exact mass: 240.0535
SMILES: C1=CC=C2C(=C1)NC3=C(C(=O)C=CC3=N2)C(=O)O
InChI: InChI=1S/C13H8N2O3/c16-10-6-5-9-12(11(10)13(17)18)15-8-4-2-1-3-7(8)14-9/h1-6,15H,(H,17,18)
Instrument: maXis plus UHR-ToF-MS, Bruker Daltonics
Instrument type: LC-ESI-QTOF
Ms type: MS2
Ion mode: NEGATIVE
Ionization: ESI
Fragmentation mode: CID
Collision energy: 10
Column name: BEH C18 1.7um, 2.1x100mm, Waters
Retention time: 4.245 min
Base peak: 68.9959
Precursor m/z: 239.0462
Precursor type: [M-H]-
m/z	relative intensity
195.0582	250
239.0478	999
