Mass spectrum: Glycolithocholic acid; LC-ESI-QTOF; MS2; CE: 10; R=; [M+H]+
Name: Glycolithocholic acid
Name: AC1N3NBH
Name: 2-[4-(3-hydroxy-10,13-dimethyl-2,3,4,5,6,7,8,9,11,12,14,15,16,17-tetradecahydro-1H-cyclopenta[a]phenanthren-17-yl)pentanoylamino]acetic acid
Formula: C26H43NO4
Exact mass: 433.3192
SMILES: CC(CCC(=O)NCC(=O)O)C1CCC2C1(CCC3C2CCC4C3(CCC(C4)O)C)C
InChI: InChI=1S/C26H43NO4/c1-16(4-9-23(29)27-15-24(30)31)20-7-8-21-19-6-5-17-14-18(28)10-12-25(17,2)22(19)11-13-26(20,21)3/h16-22,28H,4-15H2,1-3H3,(H,27,29)(H,30,31)
Instrument: maXis plus UHR-ToF-MS, Bruker Daltonics
Instrument type: LC-ESI-QTOF
Ms type: MS2
Ion mode: POSITIVE
Ionization: ESI
Fragmentation mode: CID
Collision energy: 10
Column name: BEH C18 1.7um, 2.1x100mm, Waters
Retention time: 5.455 min
Base peak: 88.075
Precursor m/z: 434.3265
Precursor type: [M+H]+
m/z	relative intensity
76.0391	3
226.1431	1
323.2735	3
341.2838	11
342.2861	1
416.3158	999
417.3196	332
418.3229	38
419.3258	1
434.3265	398
436.3324	14
