Mass spectrum: Ethyl vanillate; LC-ESI-QTOF; MS2; CE: 40; R=; [M+H]+
Name: Ethyl vanillate
Name: ethyl 4-hydroxy-3-methoxybenzoate
Formula: C10H12O4
Exact mass: 196.0736
SMILES: CCOC(=O)C1=CC(=C(C=C1)O)OC
InChI: InChI=1S/C10H12O4/c1-3-14-10(12)7-4-5-8(11)9(6-7)13-2/h4-6,11H,3H2,1-2H3
Instrument: maXis plus UHR-ToF-MS, Bruker Daltonics
Instrument type: LC-ESI-QTOF
Ms type: MS2
Ion mode: POSITIVE
Ionization: ESI
Fragmentation mode: CID
Collision energy: 40
Column name: BEH C18 1.7um, 2.1x100mm, Waters
Retention time: 4.072 min
Base peak: 197.0799
Precursor m/z: 197.0808
Precursor type: [M+H]+
m/z	relative intensity
54.0459	2
55.0537	1
57.0907	1
58.062	1
59.0123	2
60.0081	1
61.0857	1
62.0145	5
62.0599	1
63.0105	2
64.0522	3
64.0999	2
71.0128	3
71.0492	2
79.0535	21
81.0327	354
82.0406	82
83.0446	3
91.0534	42
92.0256	37
92.0361	2
92.0577	3
93.033	999
94.0366	63
95.0488	173
96.0165	1
97.0277	17
97.065	5
102.0464	1
103.0546	11
104.0575	2
105.0334	2
105.0445	34
106.0643	1
107.0121	2
107.049	3
108.0202	206
109.0278	86
110.036	385
111.0436	163
112.0469	12
121.029	2
123.044	9
124.0507	16
125.0239	5
125.0597	7
126.0628	1
136.0158	7
137.0225	2
138.0202	1
141.0551	8
151.0389	69
151.0497	48
152.0426	5
153.0554	1
154.0257	7
