Mass spectrum: Phenanzine-1_6-dicarboxylic acid; LC-ESI-QTOF; MS2; CE: 20; R=; [M+H]+
Name: Phenanzine-1_6-dicarboxylic acid
Name: phenazine-1,6-dicarboxylic acid
Formula: C14H8N2O4
Exact mass: 268.04841
SMILES: c1cc(c2c(c1)nc3c(cccc3n2)C(=O)O)C(=O)O
InChI: InChI=1S/C14H8N2O4/c17-13(18)7-3-1-5-9-11(7)16-10-6-2-4-8(14(19)20)12(10)15-9/h1-6H,(H,17,18)(H,19,20)
Instrument: maXis plus UHR-ToF-MS, Bruker Daltonics
Instrument type: LC-ESI-QTOF
Ms type: MS2
Ion mode: POSITIVE
Ionization: ESI
Fragmentation mode: CID
Collision energy: 20
Column name: BEH C18 1.7um, 2.1x100mm, Waters
Retention time: 4.018 min
Base peak: 79.0204
Precursor m/z: 269.0557
Precursor type: [M+H]+
m/z	relative intensity
49.0763	1
55.0624	1
61.0072	2
71.0726	1
75.0076	1
75.979	2
81.0451	1
83.0205	2
89.0386	1
91.9986	1
92.0364	1
94.9998	1
95.0206	1
104.0701	1
115.0545	1
118.004	1
124.0749	1
126.0345	2
131.0501	1
134.0578	2
135.0562	1
136.0166	1
136.9982	1
137.9968	1
139.0355	1
139.0482	1
147.0135	1
148.0382	2
150.0458	1
153.0448	1
154.0467	1
155.0232	1
156.9907	1
166.061	1
166.9951	1
168.0574	1
174.0341	1
177.0647	1
177.9871	1
178.0523	1
179.0604	51
180.0488	2
180.0642	5
183.0777	1
184.0396	1
185.0052	1
190.0242	1
191.0579	1
191.9861	1
194.0542	3
195.054	1
202.0524	1
204.0548	1
207.0562	8
208.0589	1
211.0518	4
212.0585	2
213.0637	1
223.0514	21
224.0537	7
225.0641	2
226.0617	1
230.0318	1
231.0664	1
234.0014	1
239.0696	1
241.0615	4
249.0237	1
251.0452	999
252.0489	109
269.056	881
