Mass spectrum: Isolithocholic acid; LC-ESI-QTOF; MS2; CE: 10; R=; [M+H]+
Name: Isolithocholic acid
Name: (4R)-4-[(3S,5R,8R,9S,10S,13R,14S,17R)-3-hydroxy-10,13-dimethyl-2,3,4,5,6,7,8,9,11,12,14,15,16,17-tetradecahydro-1H-cyclopenta[a]phenanthren-17-yl]pentanoic acid
Formula: C24H40O3
Exact mass: 376.2977
SMILES: [H][C@@]12CC[C@H]([C@H](C)CCC(O)=O)[C@@]1(C)CC[C@@]1([H])[C@@]2([H])CC[C@]2([H])C[C@@H](O)CC[C@]12C
InChI: InChI=1S/C24H40O3/c1-15(4-9-22(26)27)19-7-8-20-18-6-5-16-14-17(25)10-12-23(16,2)21(18)11-13-24(19,20)3/h15-21,25H,4-14H2,1-3H3,(H,26,27)/t15-,16-,17+,18+,19-,20+,21+,23+,24-/m1/s1
Instrument: maXis plus UHR-ToF-MS, Bruker Daltonics
Instrument type: LC-ESI-QTOF
Ms type: MS2
Ion mode: POSITIVE
Ionization: ESI
Fragmentation mode: CID
Collision energy: 10
Column name: BEH C18 1.7um, 2.1x100mm, Waters
Retention time: 5.809 min
Base peak: 88.0749
Precursor m/z: 377.305
Precursor type: [M+H]+
m/z	relative intensity
149.1314	53
163.1476	71
173.133	76
176.2006	78
180.0223	41
183.1385	46
195.1369	44
218.2016	57
221.1636	41
227.1769	53
229.061	101
235.165	57
237.1858	46
245.2226	64
254.0817	46
261.1828	57
263.2014	60
277.218	69
318.3133	62
323.2721	203
341.2837	343
353.2936	57
355.2602	101
357.2745	57
357.2863	50
359.2945	999
360.2992	343
375.2799	74
376.2939	46
