Mass spectrum: 2`-O-Methyladenosine; LC-ESI-QTOF; MS2; CE: 20; R=; [M+H]+
Name: 2`-O-Methyladenosine
Name: (2R,3R,4R,5R)-5-(6-aminopurin-9-yl)-2-(hydroxymethyl)-4-methoxyoxolan-3-ol
Formula: C11H15N5O4
Exact mass: 281.1124
SMILES: CO[C@@H]1[C@@H]([C@H](O[C@H]1n2cnc3c2ncnc3N)CO)O
InChI: InChI=1S/C11H15N5O4/c1-19-8-7(18)5(2-17)20-11(8)16-4-15-6-9(12)13-3-14-10(6)16/h3-5,7-8,11,17-18H,2H2,1H3,(H2,12,13,14)/t5-,7-,8-,11-/m1/s1
Instrument: maXis plus UHR-ToF-MS, Bruker Daltonics
Instrument type: LC-ESI-QTOF
Ms type: MS2
Ion mode: POSITIVE
Ionization: ESI
Fragmentation mode: CID
Collision energy: 20
Column name: BEH C18 1.7um, 2.1x100mm, Waters
Retention time: 0.778 min
Base peak: 282.1194
Precursor m/z: 282.1197
Precursor type: [M+H]+
m/z	relative intensity
54.1026	1
55.0166	4
57.033	5
58.9999	2
59.0483	30
61.027	9
64.0055	3
69.0328	95
71.0122	3
71.0487	8
73.0271	3
73.0635	5
75.0435	9
76.0501	2
79.1118	2
81.9899	1
85.0279	11
87.0436	44
89.0595	5
92.1305	2
94.0649	1
97.001	1
97.0287	16
98.0329	2
101.0594	66
105.101	2
107.0455	3
107.9992	2
111.0446	3
112.0033	1
112.0164	3
115.0379	15
115.1232	1
116.0488	3
117.0529	1
125.011	3
125.0195	1
125.1144	4
126.0526	1
129.0538	8
134.1245	3
136.0614	999
137.0645	64
138.0688	2
147.0654	10
149.0256	3
178.0727	1
189.9765	1
192.0876	4
210.0081	1
217.0575	1
218.029	2
240.9974	2
247.0608	3
251.9901	1
280.1061	1
282.1199	192
284.1223	3
