Mass spectrum: L-Isoleucine; LC-ESI-QTOF; MS2; CE: 10; R=; [M-H]-
Name: L-Isoleucine
Name: (2S,3S)-2-amino-3-methylpentanoic acid
Formula: C6H13NO2
Exact mass: 131.09463
SMILES: CC[C@H](C)[C@@H](C(=O)O)N
InChI: InChI=1S/C6H13NO2/c1-3-4(2)5(7)6(8)9/h4-5H,3,7H2,1-2H3,(H,8,9)/t4-,5-/m0/s1
Instrument: maXis plus UHR-ToF-MS, Bruker Daltonics
Instrument type: LC-ESI-QTOF
Ms type: MS2
Ion mode: NEGATIVE
Ionization: ESI
Fragmentation mode: CID
Collision energy: 10
Column name: BEH C18 1.7um, 2.1x100mm, Waters
Retention time: 0.762 min
Base peak: 576.283
Precursor m/z: 130.0874
Precursor type: [M-H]-
m/z	relative intensity
130.0865	999
