Mass spectrum: Glycodeoxycholic acid; LC-ESI-QTOF; MS2; CE: 40; R=; [M+H]+
Name: Glycodeoxycholic acid
Name: 2-[[(4R)-4-[(3R,8R,9S,10S,12S,13R,14S,17R)-3,12-dihydroxy-10,13-dimethyl-2,3,4,5,6,7,8,9,11,12,14,15,16,17-tetradecahydro-1H-cyclopenta[a]phenanthren-17-yl]pentanoyl]amino]acetic acid
Formula: C26H43NO5
Exact mass: 449.3141
SMILES: C[C@H](CCC(=O)NCC(=O)O)[C@H]1CC[C@@H]2[C@@]1([C@H](C[C@H]3[C@H]2CCC4[C@@]3(CC[C@H](C4)O)C)O)C
InChI: InChI=1S/C26H43NO5/c1-15(4-9-23(30)27-14-24(31)32)19-7-8-20-18-6-5-16-12-17(28)10-11-25(16,2)21(18)13-22(29)26(19,20)3/h15-22,28-29H,4-14H2,1-3H3,(H,27,30)(H,31,32)/t15-,16?,17-,18+,19-,20+,21+,22+,25+,26-/m1/s1
Instrument: maXis plus UHR-ToF-MS, Bruker Daltonics
Instrument type: LC-ESI-QTOF
Ms type: MS2
Ion mode: POSITIVE
Ionization: ESI
Fragmentation mode: CID
Collision energy: 40
Column name: BEH C18 1.7um, 2.1x100mm, Waters
Retention time: 4.819 min
Base peak: 450.3211
Precursor m/z: 450.3214
Precursor type: [M+H]+
m/z	relative intensity
50.0025	1
56.013	3
57.032	1
59.0481	1
60.044	1
64.1118	1
66.0333	1
68.0489	1
68.1771	1
68.2136	1
69.0694	68
70.0658	1
70.3103	1
70.3471	1
71.0477	6
75.1983	1
76.0386	999
77.0225	1
77.1042	1
77.1777	1
79.0536	71
80.2949	1
81.0693	306
82.1342	1
83.0489	13
83.0849	91
84.0083	1
84.0571	3
84.0649	1
85.0642	73
86.0213	1
86.1094	1
88.0998	1
88.1913	1
89.0024	1
90.0544	1
91.0538	35
92.0582	3
92.1306	1
93.0695	134
94.1592	1
94.2144	1
95.085	210
96.0438	1
96.1754	1
96.303	1
97.0077	1
97.0644	11
97.1006	13
98.032	1
99.0397	1
99.0802	6
100.2989	1
101.2141	1
102.0337	2
102.0754	1
103.0746	1
103.3243	1
104.0366	1
105.0694	92
106.0742	8
107.0851	159
108.0886	7
108.1877	1
108.208	1
108.2314	1
108.2896	2
109.0653	8
109.101	108
110.0156	1
110.0608	1
110.104	8
110.2241	1
111.0396	1
111.0563	1
111.08	10
111.116	3
111.1619	1
112.0391	2
112.0755	11
113.0795	2
114.0462	1
114.0559	3
114.0907	1
116.1206	1
117.0178	1
117.2665	1
117.9896	1
118.0506	1
118.1438	2
119.0853	52
120.0894	4
121.1009	66
121.9728	1
122.1038	9
123.0807	15
123.2776	1
123.3127	1
124.0837	1
124.119	2
124.2756	1
125.0452	1
125.0607	1
125.095	12
125.1265	1
125.2194	2
125.9958	1
126.0923	1
126.3133	1
127.1559	1
127.2496	1
127.2852	1
129.0688	3
129.1371	2
130.0514	1
130.0788	1
130.0978	1
130.1476	1
130.2587	1
130.9859	1
131.9942	1
133.101	33
134.102	3
135.0806	3
135.1166	42
136.0836	2
136.119	4
136.2848	1
137.0033	1
137.0964	8
137.1338	1
138.0912	2
138.2439	1
139.1114	3
139.2151	1
139.3198	1
140.0679	1
140.2562	1
141.0047	1
141.0494	1
141.0864	1
141.15	1
141.2986	1
142.0299	1
142.0426	1
142.0497	2
142.0767	1
142.2719	1
142.3319	1
143.0741	1
143.0853	10
143.2248	1
144.043	1
144.0896	1
145.1013	35
146.1039	4
146.2679	1
147.0778	2
147.1166	39
148.0366	1
148.0872	2
148.1092	1
148.1206	7
149.0955	21
149.1323	41
150.0988	1
150.1352	4
151.0738	1
151.1113	4
151.144	1
151.1539	1
151.1804	1
152.0226	1
152.1057	2
152.1154	1
152.3153	2
153.031	1
153.0575	1
153.0986	1
153.1278	1
153.1477	1
153.3152	1
154.0123	1
154.0403	1
154.0719	1
155.0854	9
155.1145	1
156.0215	1
156.0649	10
156.0923	1
156.115	1
157.0698	2
157.1003	23
157.1341	1
158.0804	49
158.1026	3
159.0857	6
159.1164	87
160.0226	1
160.1197	8
160.1327	2
160.2069	1
161.1322	76
162.1354	9
162.3275	1
163.0468	2
163.1115	15
163.1473	26
163.1816	1
164.0352	1
164.1518	2
165.0446	1
165.1271	1
166.0813	1
166.122	1
166.1301	1
166.1762	2
166.216	1
167.0435	1
168.0507	1
168.1008	2
168.1224	1
168.1358	1
168.162	1
168.2546	1
168.3388	1
168.9892	1
169.1005	29
170.0004	1
170.0806	1
170.1064	1
171.0406	1
171.1171	24
171.1633	1
172.0622	1
172.0955	3
172.1302	2
173.0958	8
173.1322	42
173.2701	2
174.0998	1
174.1345	6
174.1711	1
175.1109	18
175.1479	48
176.0863	1
176.103	1
176.1161	1
176.1292	1
176.1524	7
177.1267	48
177.1638	8
178.1305	7
178.1673	2
178.2503	1
179.0364	1
179.979	1
180.1367	1
181.0986	3
181.9872	1
182.0594	1
182.0694	1
182.2611	1
183.1168	25
183.9741	1
184.0307	1
184.0965	5
184.1203	4
184.1833	1
185.1324	54
186.073	1
186.1115	4
186.1344	5
186.1704	1
187.1114	13
187.1475	73
187.9846	1
188.0577	1
188.1162	2
188.1511	9
188.2257	1
189.1274	24
189.1637	35
189.9908	1
190.0932	1
190.1312	4
190.1672	6
191.0951	2
191.1049	1
191.1433	24
191.1676	1
192.1459	1
192.2161	1
193.1197	1
194.1144	1
195.0028	1
195.1165	4
195.9751	1
196.0464	1
196.0725	1
196.0961	2
196.1239	3
196.1439	1
196.3063	1
197.1324	25
197.1721	1
197.2341	1
198.048	1
198.1128	5
198.1371	2
199.1479	56
200.1267	2
200.1504	10
200.2692	1
201.1637	95
202.1679	14
203.1425	45
203.1791	31
204.053	1
204.0813	1
204.145	8
204.1822	9
205.0346	1
205.1573	9
207.0388	1
207.1179	1
207.1628	1
207.299	1
207.9926	1
208.0022	1
208.1315	1
208.1429	1
208.1765	1
208.2954	1
209.133	5
209.1756	1
209.3086	1
210.0268	1
210.0379	1
210.0992	1
210.1123	11
210.14	2
211.1475	145
212.1292	9
212.1521	17
212.2156	1
212.2575	1
213.1637	72
214.1663	15
215.1426	10
215.1793	171
216.148	4
216.1826	22
217.1586	32
217.1941	16
217.9874	1
218.1611	3
218.1981	3
219.1744	3
219.2063	2
221.1423	1
221.1903	1
222.2886	1
223.1498	6
224.128	7
224.2805	1
225.1638	84
226.1445	4
226.167	20
226.2524	1
227.1794	71
227.9923	1
228.1182	1
228.1821	12
229.1583	128
229.1953	61
230.1632	15
230.1981	9
231.1744	43
232.1769	5
233.0484	1
233.1884	3
233.2184	1
234.1493	2
235.1527	1
235.1655	1
235.2766	1
236.1291	2
236.1585	1
236.2078	1
237.1621	6
238.1431	8
238.1627	1
239.1795	51
240.1583	1
240.1828	12
241.1551	1
241.1945	31
242.1982	7
243.1741	58
243.2109	33
243.9902	1
244.1775	10
244.2125	10
245.1895	32
245.2094	2
245.9924	1
246.1924	2
246.2571	1
247.1772	1
248.2017	1
250.1291	1
250.1432	5
250.1672	1
251.1793	13
251.281	1
252.1579	15
252.1829	3
253.0618	1
253.158	1
253.1666	1
253.194	10
254.198	2
254.3057	1
255.1729	1
255.2117	10
256.1443	1
256.1773	1
256.2117	2
257.1893	43
257.2251	2
258.029	1
258.1945	6
259.2032	5
259.228	1
260.1666	1
261.1642	1
262.223	1
263.2496	1
264.1577	5
265.1958	31
266.0799	1
266.1746	10
266.2014	3
266.2468	1
267.178	2
267.2089	6
268.0229	1
268.1895	1
269.1907	5
270.0188	1
270.1135	1
270.2267	2
270.2549	1
270.3289	1
271.0095	1
271.2041	2
272.2078	1
273.2243	1
274.1804	1
277.0459	1
278.1758	15
278.2501	1
279.178	2
279.2104	17
280.005	1
280.1913	3
280.2147	4
281.0274	1
281.1949	1
281.2254	11
282.2008	1
282.2311	3
282.2526	1
283.2042	13
283.238	1
284.1194	1
284.2088	1
285.2197	3
286.2224	2
287.133	1
288.0786	1
288.1941	1
289.1823	1
290.1715	2
290.2116	1
291.0499	1
291.0672	1
292.1931	8
292.2133	1
292.2859	1
293.1984	1
293.2261	7
294.2055	2
294.2295	4
295.2417	30
296.2452	5
296.9982	2
297.2215	41
297.2572	42
298.2257	8
298.2614	11
299.2693	1
299.2956	1
301.2154	1
302.2085	1
303.1724	1
304.1905	18
305.1551	1
305.1963	4
306.2069	14
307.209	2
308.2268	1
311.2369	5
311.273	13
312.2774	3
313.1117	1
314.1201	1
314.1973	1
317.3147	1
318.2069	9
319.2096	2
320.2212	5
320.2497	1
321.2578	392
322.2611	90
323.2653	12
327.052	1
330.0518	1
332.1707	1
332.2218	8
333.2252	1
334.2304	1
334.9863	1
335.1518	1
339.2686	337
340.2716	86
343.0574	1
344.2223	2
345.3292	1
346.242	1
357.1653	1
357.2785	4
358.2394	2
360.3265	1
368.2949	2
369.3026	3
371.167	1
386.137	1
396.2874	7
397.2939	1
413.3375	1
414.3002	76
415.303	28
416.0154	1
416.2929	1
416.3065	2
433.2957	1
460.2427	1
