Mass spectrum: L-Cystathione; LC-ESI-QTOF; MS2; CE: 10; R=; [M+H]+
Name: L-Cystathione
Name: L-cystathionine
Name: (2S)-2-azaniumyl-4-[(2R)-2-azaniumyl-2-carboxylatoethyl]sulfanylbutanoate
Formula: C7H14N2O4S
Exact mass: 222.0674
SMILES: C(CSC[C@@H](C(=O)O)N)[C@@H](C(=O)O)N
InChI: InChI=1S/C7H14N2O4S/c8-4(6(10)11)1-2-14-3-5(9)7(12)13/h4-5H,1-3,8-9H2,(H,10,11)(H,12,13)/t4-,5-/m0/s1
Instrument: maXis plus UHR-ToF-MS, Bruker Daltonics
Instrument type: LC-ESI-QTOF
Ms type: MS2
Ion mode: POSITIVE
Ionization: ESI
Fragmentation mode: CID
Collision energy: 10
Column name: BEH C18 1.7um, 2.1x100mm, Waters
Retention time: 0.589 min
Base peak: 66.0342
Precursor m/z: 223.0747
Precursor type: [M+H]+
m/z	relative intensity
49.0075	1
71.0006	1
72.1015	1
87.0547	1
89.0059	1
95.0885	1
99.1047	1
101.0354	1
107.0572	1
113.0011	1
113.117	1
121.0884	1
125.0708	1
130.066	1
132.0758	1
134.0271	70
135.0293	3
143.0397	1
147.0888	1
154.0109	1
159.9683	1
160.0419	2
160.056	1
162.0929	1
164.1041	1
173.0275	1
173.0388	2
177.0689	11
180.0327	1
202.0179	1
205.0284	1
205.0679	2
206.0473	1
223.0744	999
