Mass spectrum: 3-hydroxy-C8-homoserine lactone; LC-ESI-QTOF; MS2; CE: 10; R=; [M+H]+
Name: 3-hydroxy-C8-homoserine lactone
Name: 3-hydroxy-N-(2-oxooxolan-3-yl)octanamide
Formula: C12H21NO4
Exact mass: 243.14706
SMILES: CCCCCC(O)CC(=O)NC1CCOC1=O
InChI: InChI=1S/C12H21NO4/c1-2-3-4-5-9(14)8-11(15)13-10-6-7-17-12(10)16/h9-10,14H,2-8H2,1H3,(H,13,15)
Instrument: maXis plus UHR-ToF-MS, Bruker Daltonics
Instrument type: LC-ESI-QTOF
Ms type: MS2
Ion mode: POSITIVE
Ionization: ESI
Fragmentation mode: CID
Collision energy: 10
Column name: BEH C18 1.7um, 2.1x100mm, Waters
Retention time: 3.575 min
Base peak: 244.1538
Precursor m/z: 244.1543
Precursor type: [M+H]+
m/z	relative intensity
69.0322	1
85.0272	1
97.1008	22
102.0545	999
125.0959	17
126.0999	1
198.149	3
208.1331	2
216.1582	1
226.1435	145
227.1467	15
244.1542	290
246.1591	2
