Mass spectrum: Xanthosine; LC-ESI-QTOF; MS2; CE: 20; R=; [M+H]+
Name: Xanthosine
Name: 9-[(2R,3R,4S,5R)-3,4-dihydroxy-5-(hydroxymethyl)oxolan-2-yl]-3H-purine-2,6-dione
Formula: C10H12N4O6
Exact mass: 284.0757
SMILES: OC[C@H]1O[C@H]([C@H](O)[C@@H]1O)N1C=NC2=C1NC(=O)NC2=O
InChI: InChI=1S/C10H12N4O6/c15-1-3-5(16)6(17)9(20-3)14-2-11-4-7(14)12-10(19)13-8(4)18/h2-3,5-6,9,15-17H,1H2,(H2,12,13,18,19)/t3-,5-,6-,9-/m1/s1
Instrument: maXis plus UHR-ToF-MS, Bruker Daltonics
Instrument type: LC-ESI-QTOF
Ms type: MS2
Ion mode: POSITIVE
Ionization: ESI
Fragmentation mode: CID
Collision energy: 20
Column name: BEH C18 1.7um, 2.1x100mm, Waters
Retention time: 0.725 min
Base peak: 153.0404
Precursor m/z: 285.083
Precursor type: [M+H]+
m/z	relative intensity
61.0278	19
69.0327	48
71.0114	10
73.0277	68
85.0276	39
87.0435	11
97.0278	32
103.0355	7
115.0389	22
119.0583	6
131.0469	3
133.049	22
135.0552	4
136.0158	4
149.982	5
150.0881	5
153.0401	999
154.0264	11
154.0361	23
154.045	68
155.046	6
157.0298	3
