Mass spectrum: 3-hydroxy-C4-homoserine lactone; LC-ESI-QTOF; MS2; CE: 20; R=; [M+H]+
Name: 3-hydroxy-C4-homoserine lactone
Name: 3-hydroxy-N-(2-oxooxolan-3-yl)butanamide
Formula: C8H13NO4
Exact mass: 187.08446
SMILES: CC(O)CC(=O)NC1CCOC1=O
InChI: InChI=1S/C8H13NO4/c1-5(10)4-7(11)9-6-2-3-13-8(6)12/h5-6,10H,2-4H2,1H3,(H,9,11)
Instrument: maXis plus UHR-ToF-MS, Bruker Daltonics
Instrument type: LC-ESI-QTOF
Ms type: MS2
Ion mode: POSITIVE
Ionization: ESI
Fragmentation mode: CID
Collision energy: 20
Column name: BEH C18 1.7um, 2.1x100mm, Waters
Retention time: 0.913 min
Base peak: 188.0912
Precursor m/z: 188.0917
Precursor type: [M+H]+
m/z	relative intensity
69.0331	87
74.0593	872
84.0437	199
85.0275	40
87.0434	189
102.0546	999
128.0334	6
