Mass spectrum: Adenosine; LC-ESI-QTOF; MS2; CE: 40; R=; [M+H]+
Name: Adenosine
Name: (2R,3R,4S,5R)-2-(6-aminopurin-9-yl)-5-(hydroxymethyl)oxolane-3,4-diol
Formula: C10H13N5O4
Exact mass: 267.0968
SMILES: NC1=C2N=CN([C@@H]3O[C@H](CO)[C@@H](O)[C@H]3O)C2=NC=N1
InChI: InChI=1S/C10H13N5O4/c11-8-5-9(13-2-12-8)15(3-14-5)10-7(18)6(17)4(1-16)19-10/h2-4,6-7,10,16-18H,1H2,(H2,11,12,13)/t4-,6-,7-,10-/m1/s1
Instrument: maXis plus UHR-ToF-MS, Bruker Daltonics
Instrument type: LC-ESI-QTOF
Ms type: MS2
Ion mode: POSITIVE
Ionization: ESI
Fragmentation mode: CID
Collision energy: 40
Column name: BEH C18 1.7um, 2.1x100mm, Waters
Retention time: 0.724 min
Base peak: 268.1036
Precursor m/z: 268.104
Precursor type: [M+H]+
m/z	relative intensity
48.0811	1
55.0174	17
55.0545	1
58.0412	1
59.0482	8
61.0279	18
67.0288	12
68.118	1
69.0328	62
71.0125	64
73.028	46
85.0285	40
87.0441	1
92.024	6
94.0397	140
97.0289	13
98.9956	1
109.0511	12
115.0392	1
119.0353	108
120.0408	2
133.0477	2
136.0618	999
137.0453	24
138.0655	1
