Mass spectrum: 3-oxo-C8-homoserine lactone; LC-ESI-QTOF; MS2; CE: 40; R=; [M-H]-
Name: 3-oxo-C8-homoserine lactone
Name: N-(3X-Oxooctanoyl)-DL-homoserine lactone
Name: 3-oxo-N-(2-oxooxolan-3-yl)octanamide
Formula: C12H19NO4
Exact mass: 241.1314
SMILES: CCCCCC(=O)CC(=O)NC1CCOC1=O
InChI: InChI=1S/C12H19NO4/c1-2-3-4-5-9(14)8-11(15)13-10-6-7-17-12(10)16/h10H,2-8H2,1H3,(H,13,15)
Instrument: maXis plus UHR-ToF-MS, Bruker Daltonics
Instrument type: LC-ESI-QTOF
Ms type: MS2
Ion mode: NEGATIVE
Ionization: ESI
Fragmentation mode: CID
Collision energy: 40
Column name: BEH C18 1.7um, 2.1x100mm, Waters
Retention time: 3.786 min
Base peak: 240.1247
Precursor m/z: 240.1241
Precursor type: [M-H]-
m/z	relative intensity
57.0346	999
66.0352	4
67.0196	3
68.0511	6
68.9981	73
69.0346	64
70.0298	27
71.0504	13
72.0091	85
78.0104	3
80.0261	3
83.0499	4
84.0463	30
85.0656	40
94.0296	9
95.014	3
95.0505	10
95.0872	7
96.0085	5
96.045	2
97.014	2
97.03	11
98.0009	19
98.0246	4
109.0274	2
112.0403	16
113.0356	2
113.0981	44
115.0771	9
124.04	2
139.0774	24
139.1116	3
152.037	3
192.1032	26
193.1086	2
195.0913	3
196.0601	2
233.1164	2
