Mass spectrum: Dibutylphthalate; LC-ESI-QTOF; MS2; CE: 10; R=; [M+H]+
Name: Dibutylphthalate
Name: dibutyl phthalate
Name: dibutyl benzene-1,2-dicarboxylate
Formula: C16H22O4
Exact mass: 278.15181
SMILES: CCCCOC(=O)c1ccccc1C(=O)OCCCC
InChI: InChI=1S/C16H22O4/c1-3-5-11-19-15(17)13-9-7-8-10-14(13)16(18)20-12-6-4-2/h7-10H,3-6,11-12H2,1-2H3
Instrument: maXis plus UHR-ToF-MS, Bruker Daltonics
Instrument type: LC-ESI-QTOF
Ms type: MS2
Ion mode: POSITIVE
Ionization: ESI
Fragmentation mode: CID
Collision energy: 10
Column name: BEH C18 1.7um, 2.1x100mm, Waters
Retention time: 6.087 min
Base peak: 149.024
Precursor m/z: 279.1591
Precursor type: [M+H]+
m/z	relative intensity
149.0239	999
150.0268	108
151.0285	7
167.0338	1
205.0855	395
206.0891	52
207.0915	3
279.1593	59
