Mass spectrum: 5?-CHOLANIC ACID-3?-OL-7_12-DIONE; LC-ESI-QTOF; MS2; CE: 20; R=; [M+H]+
Name: 5?-CHOLANIC ACID-3?-OL-7_12-DIONE
Name: 3-Hydroxy-7,12-diketocholanoic acid
Name: (4R)-4-[(3R,5S,8R,9S,10S,13R,14S,17R)-3-hydroxy-10,13-dimethyl-7,12-dioxo-2,3,4,5,6,8,9,11,14,15,16,17-dodecahydro-1H-cyclopenta[a]phenanthren-17-yl]pentanoic acid
Formula: C24H36O5
Exact mass: 404.2563
SMILES: C[C@H](CCC(=O)O)[C@H]1CC[C@@H]2[C@@]1(C(=O)C[C@H]3[C@H]2C(=O)C[C@H]4[C@@]3(CC[C@H](C4)O)C)C
InChI: InChI=1S/C24H36O5/c1-13(4-7-21(28)29)16-5-6-17-22-18(12-20(27)24(16,17)3)23(2)9-8-15(25)10-14(23)11-19(22)26/h13-18,22,25H,4-12H2,1-3H3,(H,28,29)/t13-,14+,15-,16-,17+,18+,22+,23+,24-/m1/s1
Instrument: maXis plus UHR-ToF-MS, Bruker Daltonics
Instrument type: LC-ESI-QTOF
Ms type: MS2
Ion mode: POSITIVE
Ionization: ESI
Fragmentation mode: CID
Collision energy: 20
Column name: BEH C18 1.7um, 2.1x100mm, Waters
Retention time: 4.147 min
Base peak: 405.2631
Precursor m/z: 405.2636
Precursor type: [M+H]+
m/z	relative intensity
81.0697	4
85.0648	1
91.0543	1
93.0692	1
95.0847	7
99.0434	7
105.0696	1
107.0855	2
109.1007	2
113.0597	1
123.0795	5
145.1009	2
147.1163	3
149.0952	1
155.0843	1
158.0946	1
159.1164	4
161.1323	1
163.1109	1
167.1073	3
171.1173	1
173.0935	1
173.1319	1
175.1102	2
183.1169	3
185.1325	5
189.0899	1
191.1056	1
195.1162	11
196.1199	1
197.1312	5
198.1363	1
199.1473	5
200.15	1
203.1049	1
205.1218	1
207.1179	1
209.1316	4
210.1338	1
211.1487	5
213.1289	1
215.1431	2
221.1323	1
223.1103	1
223.1463	4
224.1516	1
225.1271	2
226.1355	1
227.1419	1
229.1583	4
231.1359	1
235.1469	1
237.1623	1
241.1209	5
243.1379	20
244.1416	3
244.1619	1
245.1494	2
247.167	2
249.1639	1
251.1451	1
251.1804	3
253.1591	1
255.1383	4
255.2561	1
256.1399	1
257.1535	2
257.1896	1
259.1326	9
259.1697	1
260.1351	1
263.1813	1
269.1526	11
269.1893	2
270.1572	2
271.1713	1
271.205	2
273.1595	1
281.1532	1
281.1899	1
283.169	2
284.2448	1
289.2146	1
291.1745	3
291.2109	1
293.1881	1
295.1691	1
297.1846	2
301.2873	1
305.2258	135
306.2297	23
307.2384	2
309.1847	17
309.2207	1
310.1461	1
310.1884	2
311.2	4
312.2017	1
315.2108	6
316.2124	1
323.2366	340
324.24	71
325.2456	5
329.2119	5
330.2141	1
332.2159	1
333.2208	85
334.2251	17
334.2538	1
335.2293	1
341.2477	34
342.2503	6
343.2525	1
351.2314	999
352.235	284
354.2401	1
359.2542	1
369.242	920
370.2456	252
371.2485	23
372.2505	1
387.2526	625
388.256	159
389.2575	15
390.2614	1
405.2635	21
