Mass spectrum: 1-Methyladenosine; LC-ESI-QTOF; MS2; CE: 20; R=; [M+H]+
Name: 1-Methyladenosine
Formula: C11H15N5O4
Exact mass: 281.1124
SMILES: Cn1cnc2c(c1=N)ncn2[C@H]3[C@@H]([C@@H]([C@H](O3)CO)O)O
InChI: InChI=1S/C11H15N5O4/c1-15-3-14-10-6(9(15)12)13-4-16(10)11-8(19)7(18)5(2-17)20-11/h3-5,7-8,11-12,17-19H,2H2,1H3/t5-,7-,8-,11-/m1/s1
Instrument: maXis plus UHR-ToF-MS, Bruker Daltonics
Instrument type: LC-ESI-QTOF
Ms type: MS2
Ion mode: POSITIVE
Ionization: ESI
Fragmentation mode: CID
Collision energy: 20
Column name: BEH C18 1.7um, 2.1x100mm, Waters
Retention time: 0.629 min
Base peak: 282.1192
Precursor m/z: 282.1197
Precursor type: [M+H]+
m/z	relative intensity
69.0337	1
73.0275	1
85.0274	2
148.0615	1
150.0767	999
151.0799	63
282.1192	90
