Mass spectrum: Uridine; LC-ESI-QTOF; MS2; CE: 10; R=; [M+H]+
Name: Uridine
Name: 1-[(2R,3R,4S,5R)-3,4-dihydroxy-5-(hydroxymethyl)oxolan-2-yl]pyrimidine-2,4-dione
Formula: C9H12N2O6
Exact mass: 244.0695
SMILES: c1cn(c(=O)nc1O)[C@H]2[C@@H]([C@@H]([C@H](O2)CO)O)O
InChI: InChI=1S/C9H12N2O6/c12-3-4-6(14)7(15)8(17-4)11-2-1-5(13)10-9(11)16/h1-2,4,6-8,12,14-15H,3H2,(H,10,13,16)/t4-,6-,7-,8-/m1/s1
Instrument: maXis plus UHR-ToF-MS, Bruker Daltonics
Instrument type: LC-ESI-QTOF
Ms type: MS2
Ion mode: POSITIVE
Ionization: ESI
Fragmentation mode: CID
Collision energy: 10
Column name: BEH C18 1.7um, 2.1x100mm, Waters
Retention time: 0.698 min
Base peak: 245.0766
Precursor m/z: 245.0768
Precursor type: [M+H]+
m/z	relative intensity
57.0326	13
61.0287	3
70.0277	11
71.0117	9
73.0278	12
85.028	13
96.0088	4
103.0379	8
113.0343	999
115.0387	23
130.0116	4
133.0492	57
134.0533	3
198.0721	9
200.9926	4
209.0506	5
220.0585	6
227.0673	3
245.0757	142
