Mass spectrum: cAMP; LC-ESI-QTOF; MS2; CE: 40; R=; [M+H]+
Name: cAMP
Name: Cyclic Adenosine Monophosphate
Name: (4aR,6S,7S,7aR)-6-(6-aminopurin-9-yl)-2-hydroxy-2-oxo-4a,6,7,7a-tetrahydro-4H-furo[3,2-d][1,3,2]dioxaphosphinin-7-ol
Formula: C10H12N5O6P
Exact mass: 329.0525
SMILES: NC1=C2N=CN([C@H]3O[C@@H]4CO[P@](O)(=O)O[C@@H]4[C@@H]3O)C2=NC=N1
InChI: InChI=1S/C10H12N5O6P/c11-8-5-9(13-2-12-8)15(3-14-5)10-6(16)7-4(20-10)1-19-22(17,18)21-7/h2-4,6-7,10,16H,1H2,(H,17,18)(H2,11,12,13)/t4-,6+,7+,10+/m1/s1
Instrument: maXis plus UHR-ToF-MS, Bruker Daltonics
Instrument type: LC-ESI-QTOF
Ms type: MS2
Ion mode: POSITIVE
Ionization: ESI
Fragmentation mode: CID
Collision energy: 40
Column name: BEH C18 1.7um, 2.1x100mm, Waters
Retention time: 0.710 min
Base peak: 330.0598
Precursor m/z: 330.0598
Precursor type: [M+H]+
m/z	relative intensity
59.0489	2
67.0179	4
67.0286	2
68.049	2
69.0327	94
72.0066	4
78.0223	4
80.9733	3
82.077	4
87.0422	2
92.0236	4
94.0396	44
94.0651	2
97.0288	42
98.0313	7
98.9837	59
102.028	2
102.0874	2
109.0512	5
110.9848	2
119.0348	15
120.0062	2
123.023	3
126.0267	4
132.0073	3
134.9869	5
136.061	999
137.0449	10
148.0622	4
148.9515	2
159.0655	3
162.0752	4
174.0771	2
176.0655	2
176.9957	14
177.9975	2
178.0733	5
186.077	5
188.0837	2
204.0886	5
214.0707	7
232.083	6
312.0491	4
330.0608	11
