Mass spectrum: Indolacetic acid; LC-ESI-QTOF; MS2; CE: 40; R=; [M+H]+
Name: Indolacetic acid
Name: indole-3-acetic acid
Name: 2-(1H-indol-3-yl)acetic acid
Formula: C10H9NO2
Exact mass: 175.0633
SMILES: OC(=O)CC1=CNC2=C1C=CC=C2
InChI: InChI=1S/C10H9NO2/c12-10(13)5-7-6-11-9-4-2-1-3-8(7)9/h1-4,6,11H,5H2,(H,12,13)
Instrument: maXis plus UHR-ToF-MS, Bruker Daltonics
Instrument type: LC-ESI-QTOF
Ms type: MS2
Ion mode: POSITIVE
Ionization: ESI
Fragmentation mode: CID
Collision energy: 40
Column name: BEH C18 1.7um, 2.1x100mm, Waters
Retention time: 3.517 min
Base peak: 176.0698
Precursor m/z: 176.0706
Precursor type: [M+H]+
m/z	relative intensity
55.0162	4
65.0388	7
66.0466	2
68.0247	2
74.0144	2
76.0161	1
80.0131	2
80.0502	5
81.0323	4
89.0379	22
91.0415	1
91.055	4
93.0316	2
95.0489	255
96.0522	8
102.0471	35
103.0538	999
104.0489	45
104.0571	48
105.0443	99
109.0491	2
116.049	2
128.0498	8
129.0526	3
130.0646	458
131.0682	50
146.0352	2
146.061	10
