Mass spectrum: 5-Methyluridine; LC-ESI-QTOF; MS2; CE: 10; R=; [M+H]+
Name: 5-Methyluridine
Name: 1-[(2R,3R,4S,5R)-3,4-dihydroxy-5-(hydroxymethyl)oxolan-2-yl]-5-methylpyrimidine-2,4-dione
Formula: C10H14N2O6
Exact mass: 258.0852
SMILES: Cc1cn(c(=O)[nH]c1=O)[C@H]2[C@@H]([C@@H]([C@H](O2)CO)O)O
InChI: InChI=1S/C10H14N2O6/c1-4-2-12(10(17)11-8(4)16)9-7(15)6(14)5(3-13)18-9/h2,5-7,9,13-15H,3H2,1H3,(H,11,16,17)/t5-,6-,7-,9-/m1/s1
Instrument: maXis plus UHR-ToF-MS, Bruker Daltonics
Instrument type: LC-ESI-QTOF
Ms type: MS2
Ion mode: POSITIVE
Ionization: ESI
Fragmentation mode: CID
Collision energy: 10
Column name: BEH C18 1.7um, 2.1x100mm, Waters
Retention time: 0.806 min
Base peak: 259.0919
Precursor m/z: 259.0925
Precursor type: [M+H]+
m/z	relative intensity
73.027	40
85.0276	65
87.0448	30
97.0263	18
127.0498	999
128.0547	37
129.0513	16
133.0494	95
174.0779	23
193.0614	18
197.9953	15
223.0675	43
224.0791	17
243.0713	17
256.9917	16
259.0922	935
261.0976	34
