Mass spectrum: L-Glutamic acid; LC-ESI-QTOF; MS2; CE: 10; R=; [M-H]-
Name: L-Glutamic acid
Name: (2S)-2-azaniumyl-5-hydroxy-5-oxopentanoate
Formula: C5H9NO4
Exact mass: 147.05316
SMILES: C(CC(=O)O)[C@@H](C(=O)O)N
InChI: InChI=1S/C5H9NO4/c6-3(5(9)10)1-2-4(7)8/h3H,1-2,6H2,(H,7,8)(H,9,10)/t3-/m0/s1
Instrument: maXis plus UHR-ToF-MS, Bruker Daltonics
Instrument type: LC-ESI-QTOF
Ms type: MS2
Ion mode: NEGATIVE
Ionization: ESI
Fragmentation mode: CID
Collision energy: 10
Column name: BEH C18 1.7um, 2.1x100mm, Waters
Retention time: 0.601 min
Base peak: 68.9969
Precursor m/z: 146.0459
Precursor type: [M-H]-
m/z	relative intensity
85.0299	33
102.0562	650
128.0355	405
146.0462	999
