Mass spectrum: p-Coumaric acid; LC-ESI-QTOF; MS2; CE: 10; R=; [M+H]+
Name: p-Coumaric acid
Name: (E)-3-(4-hydroxyphenyl)prop-2-enoic acid
Formula: C9H8O3
Exact mass: 164.0473
SMILES: c1cc(ccc1/C=C/C(=O)O)O
InChI: InChI=1S/C9H8O3/c10-8-4-1-7(2-5-8)3-6-9(11)12/h1-6,10H,(H,11,12)/b6-3+
Instrument: maXis plus UHR-ToF-MS, Bruker Daltonics
Instrument type: LC-ESI-QTOF
Ms type: MS2
Ion mode: POSITIVE
Ionization: ESI
Fragmentation mode: CID
Collision energy: 10
Column name: BEH C18 1.7um, 2.1x100mm, Waters
Retention time: 3.032 min
Base peak: 147.0436
Precursor m/z: 165.0546
Precursor type: [M+H]+
m/z	relative intensity
49.0288	1
59.049	1
65.0384	1
76.0189	1
80.047	2
90.0064	1
91.0534	6
100.0177	1
104.0368	1
106.9994	1
107.0238	1
108.0198	1
119.0481	8
120.054	2
123.0443	1
126.0209	1
127.9857	1
128.0498	2
130.0661	1
139.0014	1
143.0608	1
147.0435	999
148.0471	66
164.0471	2
165.0541	223
