Mass spectrum: Chorismic acid; LC-ESI-QTOF; MS2; CE: 10; R=; [M+H]+
Name: Chorismic acid
Name: (3R,4R)-3-(1-carboxyethenoxy)-4-hydroxycyclohexa-1,5-diene-1-carboxylic acid
Formula: C10H10O6
Exact mass: 226.0477
SMILES: O[C@@H]1C=CC(=C[C@H]1OC(=C)C(O)=O)C(O)=O
InChI: InChI=1S/C10H10O6/c1-5(9(12)13)16-8-4-6(10(14)15)2-3-7(8)11/h2-4,7-8,11H,1H2,(H,12,13)(H,14,15)/t7-,8-/m1/s1
Instrument: maXis plus UHR-ToF-MS, Bruker Daltonics
Instrument type: LC-ESI-QTOF
Ms type: MS2
Ion mode: POSITIVE
Ionization: ESI
Fragmentation mode: CID
Collision energy: 10
Column name: BEH C18 1.7um, 2.1x100mm, Waters
Retention time: 2.428 min
Base peak: 191.0334
Precursor m/z: 227.055
Precursor type: [M+H]+
m/z	relative intensity
70.0525	8
95.0332	7
138.0312	11
139.034	16
143.9814	7
159.9751	9
161.9684	8
173.024	77
191.0335	999
192.0374	74
193.0388	16
209.0444	92
219.0509	7
227.056	21
