Mass spectrum: Caffeic acid; LC-ESI-QTOF; MS2; CE: 10; R=; [M-H]-
Name: Caffeic acid
Name: (E)-3-(3,4-dihydroxyphenyl)prop-2-enoic acid
Formula: C9H8O4
Exact mass: 180.0423
SMILES: O=C(O)\C=C\c1cc(O)c(O)cc1
InChI: InChI=1S/C9H8O4/c10-7-3-1-6(5-8(7)11)2-4-9(12)13/h1-5,10-11H,(H,12,13)/b4-2+
Instrument: maXis plus UHR-ToF-MS, Bruker Daltonics
Instrument type: LC-ESI-QTOF
Ms type: MS2
Ion mode: NEGATIVE
Ionization: ESI
Fragmentation mode: CID
Collision energy: 10
Column name: BEH C18 1.7um, 2.1x100mm, Waters
Retention time: 2.696 min
Base peak: 179.0356
Precursor m/z: 179.035
Precursor type: [M-H]-
m/z	relative intensity
77.04	1
105.0355	1
133.0305	5
135.0457	46
179.0356	999
