Mass spectrum: Caffeic acid; LC-ESI-QTOF; MS2; CE: 40; R=; [M+H]+
Name: Caffeic acid
Name: (E)-3-(3,4-dihydroxyphenyl)prop-2-enoic acid
Formula: C9H8O4
Exact mass: 180.0423
SMILES: O=C(O)\C=C\c1cc(O)c(O)cc1
InChI: InChI=1S/C9H8O4/c10-7-3-1-6(5-8(7)11)2-4-9(12)13/h1-5,10-11H,(H,12,13)/b4-2+
Instrument: maXis plus UHR-ToF-MS, Bruker Daltonics
Instrument type: LC-ESI-QTOF
Ms type: MS2
Ion mode: POSITIVE
Ionization: ESI
Fragmentation mode: CID
Collision energy: 40
Column name: BEH C18 1.7um, 2.1x100mm, Waters
Retention time: 2.706 min
Base peak: 163.0384
Precursor m/z: 181.0495
Precursor type: [M+H]+
m/z	relative intensity
61.0756	1
68.0574	1
68.9965	20
79.0536	59
80.0574	3
89.038	999
91.0541	8
92.0585	1
94.0367	1
95.049	38
105.034	10
105.0448	9
107.0491	7
108.0572	1
111.0436	1
117.0334	27
117.0575	1
135.0439	6
136.051	1
