Mass spectrum: ?-Tauromuricholic acid; LC-ESI-QTOF; MS2; CE: 10; R=; [M+H]+
Name: ?-Tauromuricholic acid
Name: 2-[4-(3,6,7-trihydroxy-10,13-dimethyl-2,3,4,5,6,7,8,9,11,12,14,15,16,17-tetradecahydro-1H-cyclopenta[a]phenanthren-17-yl)pentanoylamino]ethanesulfonic acid
Formula: C26H45NO7S
Exact mass: 515.2917
SMILES: CC(CCC(=O)NCCS(=O)(=O)O)C1CCC2C1(CCC3C2C(C(C4C3(CCC(C4)O)C)O)O)C
InChI: InChI=1S/C26H45NO7S/c1-15(4-7-21(29)27-12-13-35(32,33)34)17-5-6-18-22-19(9-11-25(17,18)2)26(3)10-8-16(28)14-20(26)23(30)24(22)31/h15-20,22-24,28,30-31H,4-14H2,1-3H3,(H,27,29)(H,32,33,34)
Instrument: maXis plus UHR-ToF-MS, Bruker Daltonics
Instrument type: LC-ESI-QTOF
Ms type: MS2
Ion mode: POSITIVE
Ionization: ESI
Fragmentation mode: CID
Collision energy: 10
Column name: BEH C18 1.7um, 2.1x100mm, Waters
Retention time: 3.591 min
Base peak: 516.2986
Precursor m/z: 516.299
Precursor type: [M+H]+
m/z	relative intensity
162.3497	1
186.0137	1
214.1617	1
229.9557	1
237.0623	1
238.1531	1
240.1004	1
240.2337	1
243.2956	1
246.2446	1
264.2174	1
275.0267	1
277.0032	1
279.352	1
283.1049	1
283.9819	1
285.3361	1
291.0996	1
293.0782	1
304.183	1
305.3146	1
309.0794	1
311.1536	1
321.0565	2
332.0711	1
333.2308	1
336.1416	1
337.257	1
339.9564	1
349.1306	1
355.2597	2
359.021	1
366.2604	1
369.2295	1
374.0916	1
374.2871	1
376.1063	1
378.291	1
389.9334	1
390.3525	1
390.9924	1
396.3237	1
398.1897	1
402.1236	1
408.1113	1
411.0558	1
413.2013	1
418.9672	1
425.3063	1
427.0783	1
427.2662	1
427.9547	1
428.013	1
441.0369	1
447.1633	1
449.0598	1
450.2664	4
451.0572	1
451.2631	1
452.1942	1
453.217	1
456.3053	1
462.2671	85
463.1703	1
463.2688	17
463.3038	1
464.2647	4
473.1347	1
479.1318	1
479.2396	1
479.2535	1
479.2918	1
479.3079	1
480.2776	999
481.2811	281
482.2797	56
482.9584	1
483.2794	9
484.2751	1
490.032	1
497.2743	2
497.2891	1
497.3257	1
498.2876	491
499.2907	145
500.2899	24
501.2909	4
501.9392	1
502.2861	1
515.2837	1
516.2985	521
518.2986	30
519.2986	5
