Mass spectrum: L-Phenylalanine; LC-ESI-QTOF; MS2; CE: 10; R=; [M+H]+
Name: L-Phenylalanine
Name: (2S)-2-azaniumyl-3-phenylpropanoate
Formula: C9H11NO2
Exact mass: 165.07898
SMILES: c1ccc(cc1)C[C@@H](C(=O)O)N
InChI: InChI=1S/C9H11NO2/c10-8(9(11)12)6-7-4-2-1-3-5-7/h1-5,8H,6,10H2,(H,11,12)/t8-/m0/s1
Instrument: maXis plus UHR-ToF-MS, Bruker Daltonics
Instrument type: LC-ESI-QTOF
Ms type: MS2
Ion mode: POSITIVE
Ionization: ESI
Fragmentation mode: CID
Collision energy: 10
Column name: BEH C18 1.7um, 2.1x100mm, Waters
Retention time: 1.410 min
Base peak: 166.0857
Precursor m/z: 166.0863
Precursor type: [M+H]+
m/z	relative intensity
77.0383	1
79.0537	2
93.0694	1
103.054	11
104.0576	1
107.0492	6
120.0807	999
121.084	73
131.0488	10
148.076	1
149.0591	16
166.0856	481
