Mass spectrum: 3-hydroxy-C14 homoserine lactone; LC-ESI-QTOF; MS2; CE: 10; R=; [M+H]+
Name: 3-hydroxy-C14 homoserine lactone
Name: N-(3-Hydroxytetradecanoyl)-DL-homoserine lactone
Name: 3-hydroxy-N-(2-oxooxolan-3-yl)tetradecanamide
Formula: C18H33NO4
Exact mass: 327.24096
SMILES: CCCCCCCCCCCC(O)CC(=O)NC1CCOC1=O
InChI: InChI=1S/C18H33NO4/c1-2-3-4-5-6-7-8-9-10-11-15(20)14-17(21)19-16-12-13-23-18(16)22/h15-16,20H,2-14H2,1H3,(H,19,21)
Instrument: maXis plus UHR-ToF-MS, Bruker Daltonics
Instrument type: LC-ESI-QTOF
Ms type: MS2
Ion mode: POSITIVE
Ionization: ESI
Fragmentation mode: CID
Collision energy: 10
Column name: BEH C18 1.7um, 2.1x100mm, Waters
Retention time: 5.731 min
Base peak: 328.2477
Precursor m/z: 328.2482
Precursor type: [M+H]+
m/z	relative intensity
74.0598	21
83.0851	1
84.0438	5
97.1005	1
102.0546	546
104.0578	1
115.038	1
120.0654	1
123.0411	1
129.1019	1
135.1964	1
147.1472	1
171.1391	1
173.0075	1
173.2341	1
191.1792	5
193.0983	1
209.1894	16
213.1915	1
218.0817	1
225.0495	1
231.099	1
237.1007	1
283.2122	1
289.0342	1
292.2259	1
294.0742	1
300.2557	1
310.2372	256
311.2402	41
322.2317	1
327.2153	1
328.2479	999
330.2534	22
