Mass spectrum: 12-Methyltetradecanoic acid; LC-ESI-QTOF; MS2; CE: 20; R=; [M+H]+
Name: 12-Methyltetradecanoic acid
Formula: C15H30O2
Exact mass: 242.2246
SMILES: CCC(C)CCCCCCCCCCC(=O)O
InChI: InChI=1S/C15H30O2/c1-3-14(2)12-10-8-6-4-5-7-9-11-13-15(16)17/h14H,3-13H2,1-2H3,(H,16,17)
Instrument: maXis plus UHR-ToF-MS, Bruker Daltonics
Instrument type: LC-ESI-QTOF
Ms type: MS2
Ion mode: POSITIVE
Ionization: ESI
Fragmentation mode: CID
Collision energy: 20
Column name: BEH C18 1.7um, 2.1x100mm, Waters
Retention time: 6.965 min
Base peak: 88.0748
Precursor m/z: 243.2319
Precursor type: [M+H]+
m/z	relative intensity
67.0538	105
69.0078	105
69.0692	999
81.0692	286
83.0486	272
85.1008	803
93.0698	205
95.0861	95
103.0755	219
108.094	258
137.1329	138
154.1301	119
163.1117	86
163.1432	215
187.1699	90
241.154	90
243.2326	439
