Mass spectrum: Salicylic acid; LC-ESI-QTOF; MS2; CE: 10; R=; [M+H]+
Name: Salicylic acid
Formula: C7H6O3
Exact mass: 138.0317
SMILES: c1ccc(c(c1)C(=O)O)O
InChI: InChI=1S/C7H6O3/c8-6-4-2-1-3-5(6)7(9)10/h1-4,8H,(H,9,10)
Instrument: maXis plus UHR-ToF-MS, Bruker Daltonics
Instrument type: LC-ESI-QTOF
Ms type: MS2
Ion mode: POSITIVE
Ionization: ESI
Fragmentation mode: CID
Collision energy: 10
Column name: BEH C18 1.7um, 2.1x100mm, Waters
Retention time: 3.612 min
Base peak: 329.9821
Precursor m/z: 139.039
Precursor type: [M+H]+
m/z	relative intensity
65.047	2
95.049	3
120.0212	2
121.0282	999
122.0318	51
123.0326	8
124.0387	5
138.0303	4
139.0381	458
