Mass spectrum: alpha-Hydroxyhippuric acid; LC-ESI-QTOF; MS2; CE: 10; R=; [M+H]+
Name: alpha-Hydroxyhippuric acid
Name: 2-benzamido-2-hydroxyacetic acid
Formula: C9H9NO4
Exact mass: 195.0532
SMILES: OC(NC(=O)c1ccccc1)C(O)=O
InChI: InChI=1S/C9H9NO4/c11-7(10-8(12)9(13)14)6-4-2-1-3-5-6/h1-5,8,12H,(H,10,11)(H,13,14)
Instrument: maXis plus UHR-ToF-MS, Bruker Daltonics
Instrument type: LC-ESI-QTOF
Ms type: MS2
Ion mode: POSITIVE
Ionization: ESI
Fragmentation mode: CID
Collision energy: 10
Column name: BEH C18 1.7um, 2.1x100mm, Waters
Retention time: 3.102 min
Base peak: 196.0596
Precursor m/z: 196.0604
Precursor type: [M+H]+
m/z	relative intensity
51.0231	1
72.0657	1
76.0058	2
83.0606	1
85.0626	1
93.9901	1
108.0183	1
113.9979	1
114.0472	1
119.0323	1
121.0284	999
122.0313	67
123.032	2
142.0057	1
150.0551	3
151.0025	1
165.049	1
178.0495	22
179.0542	2
189.99	1
196.06	795
