Mass spectrum: L-Tryptophan; LC-ESI-QTOF; MS2; CE: 40; R=; [M+H]+
Name: L-Tryptophan
Name: (2S)-2-amino-3-(1H-indol-3-yl)propanoic acid
Formula: C11H12N2O2
Exact mass: 204.08988
SMILES: c1ccc2c(c1)c(c[nH]2)C[C@@H](C(=O)O)N
InChI: InChI=1S/C11H12N2O2/c12-9(11(14)15)5-7-6-13-10-4-2-1-3-8(7)10/h1-4,6,9,13H,5,12H2,(H,14,15)/t9-/m0/s1
Instrument: maXis plus UHR-ToF-MS, Bruker Daltonics
Instrument type: LC-ESI-QTOF
Ms type: MS2
Ion mode: POSITIVE
Ionization: ESI
Fragmentation mode: CID
Collision energy: 40
Column name: BEH C18 1.7um, 2.1x100mm, Waters
Retention time: 2.369 min
Base peak: 188.07
Precursor m/z: 205.0972
Precursor type: [M+H]+
m/z	relative intensity
53.0019	3
53.0383	1
63.0225	1
65.0381	36
66.0336	4
67.0418	7
74.0233	69
77.0384	31
78.0417	3
79.0539	7
80.05	1
82.0506	1
89.0381	12
90.0462	25
91.0539	999
92.0575	66
93.0571	7
95.0493	8
101.0383	1
102.0458	1
103.0543	32
104.0495	5
105.0442	3
105.0697	23
109.0635	2
115.0543	369
116.0609	43
117.0572	231
117.0687	67
118.0651	829
119.0684	73
127.0535	5
128.0495	5
128.0619	3
129.0562	1
130.0651	65
131.0692	8
132.0806	53
133.0845	3
134.0595	2
140.05	4
141.0573	3
142.0649	57
143.0725	147
144.0791	45
145.065	7
146.0604	26
147.0632	1
155.0604	8
157.0759	1
158.0817	1
159.0921	7
160.0755	2
170.06	17
