Mass spectrum: Ortophosphate; LC-ESI-QTOF; MS2; CE: 20; R=; [M+H]+
Name: Ortophosphate
Name: phosphoric acid
Formula: H3O4P
Exact mass: 97.97690
SMILES: OP(=O)(O)O
InChI: InChI=1S/H3O4P/c1-5(2,3)4/h(H3,1,2,3,4)
Instrument: maXis plus UHR-ToF-MS, Bruker Daltonics
Instrument type: LC-ESI-QTOF
Ms type: MS2
Ion mode: POSITIVE
Ionization: ESI
Fragmentation mode: CID
Collision energy: 20
Column name: BEH C18 1.7um, 2.1x100mm, Waters
Retention time: 0.658 min
Base peak: 98.9841
Precursor m/z: 98.9842
Precursor type: [M+H]+
m/z	relative intensity
62.9629	57
80.9731	170
98.984	999
