Mass spectrum: Eicosapentaenoic acid; LC-ESI-QTOF; MS2; CE: 20; R=; [M+H]+
Name: Eicosapentaenoic acid
Name: (5Z,8Z,11Z,14Z,17Z)-icosa-5,8,11,14,17-pentaenoic acid
Formula: C20H30O2
Exact mass: 302.2246
SMILES: CC/C=C\C/C=C\C/C=C\C/C=C\C/C=C\CCCC(=O)O
InChI: InChI=1S/C20H30O2/c1-2-3-4-5-6-7-8-9-10-11-12-13-14-15-16-17-18-19-20(21)22/h3-4,6-7,9-10,12-13,15-16H,2,5,8,11,14,17-19H2,1H3,(H,21,22)/b4-3-,7-6-,10-9-,13-12-,16-15-
Instrument: maXis plus UHR-ToF-MS, Bruker Daltonics
Instrument type: LC-ESI-QTOF
Ms type: MS2
Ion mode: POSITIVE
Ionization: ESI
Fragmentation mode: CID
Collision energy: 20
Column name: BEH C18 1.7um, 2.1x100mm, Waters
Retention time: 6.590 min
Base peak: 88.075
Precursor m/z: 303.2319
Precursor type: [M+H]+
m/z	relative intensity
48.0573	10
51.0805	9
57.0698	9
69.0695	18
71.0491	14
82.0734	19
86.9945	8
91.0391	9
91.0541	56
92.0583	11
93.069	65
95.0852	44
96.0312	9
97.1005	26
103.0187	8
104.1303	12
105.0691	24
109.0165	10
119.086	24
121.1017	54
131.0865	12
133.101	24
135.0796	16
143.0608	8
145.1005	18
147.1155	32
148.1196	8
149.0958	13
149.1323	58
153.1154	9
155.0826	10
157.1009	23
159.1153	14
161.0966	34
161.1318	62
162.1352	16
163.1123	24
164.1151	8
165.1237	17
167.1063	28
169.1022	8
169.9873	11
171.1162	40
171.1391	8
172.124	11
173.0583	8
173.1332	28
175.1114	46
175.1491	100
176.1536	22
177.0292	13
177.1265	15
177.1608	9
179.1072	18
180.0686	8
180.1604	18
181.1224	37
182.1294	23
183.0536	8
183.116	28
184.1189	14
185.1341	23
187.1132	28
187.1463	25
188.1512	8
189.1273	18
189.162	64
190.1304	23
190.1668	13
191.1079	26
191.1396	22
193.1212	65
194.1609	11
194.1786	8
195.1381	16
197.1328	51
200.2249	9
201.0527	8
201.1286	36
201.1625	14
202.169	18
203.1437	9
203.1763	22
203.2493	14
207.1393	32
208.096	10
209.0261	9
211.1474	52
213.0692	9
214.1676	8
215.1438	18
219.1373	45
220.1467	10
220.2076	18
221.1544	83
225.1619	14
228.0432	9
230.1626	10
231.0921	21
233.1538	46
234.1602	15
235.1675	15
235.2055	10
236.1861	14
237.185	15
239.179	14
241.1915	33
243.1733	21
243.2097	36
244.1784	15
246.2062	14
247.1701	43
249.1855	14
255.1157	10
257.1899	41
258.1988	11
258.2098	13
261.185	51
265.1942	10
267.0207	10
267.2098	54
268.2133	46
269.1064	11
271.0877	9
274.0846	19
279.1838	10
285.2217	96
286.2308	14
301.1911	24
303.2321	999
