Mass spectrum: 3-oxo-C14 homoserine lactone; LC-ESI-QTOF; MS2; CE: 20; R=; [M+H]+
Name: 3-oxo-C14 homoserine lactone
Name: N-(3-Oxotetradecanoyl)-DL-homoserine lactone
Name: 3-oxo-N-(2-oxooxolan-3-yl)tetradecanamide
Formula: C18H31NO4
Exact mass: 325.22531
SMILES: CCCCCCCCCCCC(=O)CC(=O)NC1CCOC1=O
InChI: InChI=1S/C18H31NO4/c1-2-3-4-5-6-7-8-9-10-11-15(20)14-17(21)19-16-12-13-23-18(16)22/h16H,2-14H2,1H3,(H,19,21)
Instrument: maXis plus UHR-ToF-MS, Bruker Daltonics
Instrument type: LC-ESI-QTOF
Ms type: MS2
Ion mode: POSITIVE
Ionization: ESI
Fragmentation mode: CID
Collision energy: 20
Column name: BEH C18 1.7um, 2.1x100mm, Waters
Retention time: 5.928 min
Base peak: 326.2322
Precursor m/z: 326.2326
Precursor type: [M+H]+
m/z	relative intensity
68.0491	1
70.0287	6
71.0131	5
71.0849	43
74.023	35
74.0593	384
76.0629	1
81.0697	17
83.085	32
84.044	24
85.0277	2
85.1008	32
93.0419	1
95.0852	42
97.0526	1
97.1006	4
98.0598	56
99.0428	1
99.0805	1
99.1167	6
102.0547	682
104.0583	4
108.2171	1
109.1009	17
110.1047	2
113.058	1
113.1331	1
114.0316	1
118.1096	1
122.1282	1
123.1164	1
124.0488	1
128.0494	1
136.0525	1
136.1815	1
143.1302	1
144.0641	1
148.0275	1
149.1334	1
159.1119	1
161.1619	1
165.1629	5
169.9865	1
171.0213	1
175.0741	1
183.1738	126
185.9922	1
190.0137	1
190.0494	1
192.0537	1
192.2464	1
199.1912	1
208.1944	1
209.0382	1
212.0326	1
212.1592	1
223.0754	1
224.1262	1
225.1844	999
226.1879	141
226.9984	1
227.1897	8
256.2266	5
262.2147	1
266.2114	17
267.2169	2
268.2265	79
269.2294	14
280.2268	26
281.2299	6
284.2216	24
285.2257	4
298.2368	14
308.2208	11
309.2276	3
326.2326	38
328.2345	1
