Mass spectrum: Perlargonic acid; LC-ESI-QTOF; MS2; CE: 20; R=; [M+H]+
Name: Perlargonic acid
Name: nonanoic acid
Formula: C9H18O2
Exact mass: 158.1307
SMILES: CCCCCCCCC(=O)O
InChI: InChI=1S/C9H18O2/c1-2-3-4-5-6-7-8-9(10)11/h2-8H2,1H3,(H,10,11)
Instrument: maXis plus UHR-ToF-MS, Bruker Daltonics
Instrument type: LC-ESI-QTOF
Ms type: MS2
Ion mode: POSITIVE
Ionization: ESI
Fragmentation mode: CID
Collision energy: 20
Column name: BEH C18 1.7um, 2.1x100mm, Waters
Retention time: 5.185 min
Base peak: 159.1372
Precursor m/z: 159.138
Precursor type: [M+H]+
m/z	relative intensity
59.0488	125
65.0381	12
67.054	210
69.0695	903
71.0489	296
71.0853	234
73.029	60
75.0439	489
81.0696	372
83.0486	137
87.0439	34
88.0764	9
89.0594	999
93.0694	69
95.0855	66
97.1002	28
103.0744	156
159.1394	11
