Mass spectrum: Pyocyanin; LC-ESI-QTOF; MS2; CE: 40; R=; [M+H]+
Name: Pyocyanin
Name: 5-methylphenazin-1-one
Formula: C13H10N2O
Exact mass: 210.0793
SMILES: C[n+]1c2ccccc2nc3c1cccc3[O-]
InChI: InChI=1S/C13H10N2O/c1-15-10-6-3-2-5-9(10)14-13-11(15)7-4-8-12(13)16/h2-8H,1H3
Instrument: maXis plus UHR-ToF-MS, Bruker Daltonics
Instrument type: LC-ESI-QTOF
Ms type: MS2
Ion mode: POSITIVE
Ionization: ESI
Fragmentation mode: CID
Collision energy: 40
Column name: BEH C18 1.7um, 2.1x100mm, Waters
Retention time: 4.735 min
Base peak: 211.0862
Precursor m/z: 211.0866
Precursor type: [M+H]+
m/z	relative intensity
66.0422	1
67.0543	1
77.038	23
79.0536	1
80.0488	4
81.0342	1
90.033	3
91.054	6
92.0487	8
95.0483	5
96.0432	1
101.0824	1
104.0501	1
105.0326	1
105.0443	2
114.0475	1
116.0496	2
118.0521	5
119.0594	1
129.0455	1
131.0613	1
136.0734	1
139.0536	1
140.0487	3
141.0572	5
142.0532	3
143.0593	1
154.0654	1
156.0794	3
166.0521	1
166.0646	3
167.0605	20
168.0677	999
169.0709	110
181.0759	38
182.0833	46
183.0911	120
192.0682	5
193.0747	6
196.0625	171
210.0793	1
211.086	55
213.0913	1
