Mass spectrum: C14-homoserine lactone; LC-ESI-QTOF; MS2; CE: 10; R=; [M+H]+
Name: C14-homoserine lactone
Name: N-(2-oxooxolan-3-yl)tetradecanamide
Formula: C18H33NO3
Exact mass: 311.24604
SMILES: CCCCCCCCCCCCCC(=O)NC1CCOC1=O
InChI: InChI=1S/C18H33NO3/c1-2-3-4-5-6-7-8-9-10-11-12-13-17(20)19-16-14-15-22-18(16)21/h16H,2-15H2,1H3,(H,19,20)
Instrument: maXis plus UHR-ToF-MS, Bruker Daltonics
Instrument type: LC-ESI-QTOF
Ms type: MS2
Ion mode: POSITIVE
Ionization: ESI
Fragmentation mode: CID
Collision energy: 10
Column name: BEH C18 1.7um, 2.1x100mm, Waters
Retention time: 6.385 min
Base peak: 88.0751
Precursor m/z: 312.2533
Precursor type: [M+H]+
m/z	relative intensity
71.0854	9
74.0599	35
102.0553	48
107.0472	8
107.1638	7
125.997	6
134.1099	6
149.1535	9
161.0117	6
165.0535	10
172.1317	8
172.2412	7
179.0801	6
196.1531	6
204.0307	9
205.0464	6
209.1989	7
211.2042	102
217.1578	8
220.1143	7
240.0636	10
259.1687	10
271.0577	14
273.1108	9
277.1398	12
277.2124	8
279.1562	8
284.2574	18
294.2404	51
295.229	8
296.2691	14
301.2458	6
309.2057	9
310.2102	7
311.1643	6
312.2536	999
