Mass spectrum: Suberic acid; LC-ESI-QTOF; MS2; CE: 10; R=; [M+H]+
Name: Suberic acid
Name: Octanedioic acid
Formula: C8H14O4
Exact mass: 174.0892
SMILES: OC(=O)CCCCCCC(O)=O
InChI: InChI=1S/C8H14O4/c9-7(10)5-3-1-2-4-6-8(11)12/h1-6H2,(H,9,10)(H,11,12)
Instrument: maXis plus UHR-ToF-MS, Bruker Daltonics
Instrument type: LC-ESI-QTOF
Ms type: MS2
Ion mode: POSITIVE
Ionization: ESI
Fragmentation mode: CID
Collision energy: 10
Column name: BEH C18 1.7um, 2.1x100mm, Waters
Retention time: 3.087 min
Base peak: 85.0582
Precursor m/z: 175.0965
Precursor type: [M+H]+
m/z	relative intensity
48.9918	2
55.018	3
61.0028	4
62.06	2
63.0314	3
64.0051	3
69.0181	3
72.0204	2
73.0767	4
79.0537	3
80.0212	2
83.085	389
84.0806	4
87.0555	6
87.0813	5
93.0693	2
95.0457	4
95.0847	3
97.064	7
101.0595	2
105.0427	6
111.0799	154
112.0529	2
112.0841	8
113.0563	3
119.992	2
120.0788	3
121.0278	3
126.0422	3
127.0051	2
129.1027	3
136.0757	5
139.075	14
146.0226	4
155.1181	3
157.085	876
158.0887	62
170.0691	2
172.997	5
175.0954	999
177.0989	12
