Mass spectrum: Phenanzine-1-carboxylic acid; LC-ESI-QTOF; MS2; CE: 20; R=; [M+H]+
Name: Phenanzine-1-carboxylic acid
Name: phenazine-1-carboxylic acid
Formula: C13H8N2O2
Exact mass: 224.05858
SMILES: c1ccc2c(c1)nc3cccc(c3n2)C(=O)O
InChI: InChI=1S/C13H8N2O2/c16-13(17)8-4-3-7-11-12(8)15-10-6-2-1-5-9(10)14-11/h1-7H,(H,16,17)
Instrument: maXis plus UHR-ToF-MS, Bruker Daltonics
Instrument type: LC-ESI-QTOF
Ms type: MS2
Ion mode: POSITIVE
Ionization: ESI
Fragmentation mode: CID
Collision energy: 20
Column name: BEH C18 1.7um, 2.1x100mm, Waters
Retention time: 4.344 min
Base peak: 79.0203
Precursor m/z: 225.0659
Precursor type: [M+H]+
m/z	relative intensity
152.0493	2
153.0445	2
171.0555	1
179.0599	196
180.064	20
181.0757	6
197.0702	3
207.0548	999
208.0583	133
225.0657	235
