Mass spectrum: Myristoyl Ethanolamide; LC-ESI-QTOF; MS2; CE: 20; R=; [M+H]+
Name: Myristoyl Ethanolamide
Name: N-(2-hydroxyethyl)tetradecanamide
Formula: C16H33NO2
Exact mass: 271.25113
SMILES: O=C(CCCCCCCCCCCCC)NCCO
InChI: InChI=1S/C16H33NO2/c1-2-3-4-5-6-7-8-9-10-11-12-13-16(19)17-14-15-18/h18H,2-15H2,1H3,(H,17,19)
Instrument: maXis plus UHR-ToF-MS, Bruker Daltonics
Instrument type: LC-ESI-QTOF
Ms type: MS2
Ion mode: POSITIVE
Ionization: ESI
Fragmentation mode: CID
Collision energy: 20
Column name: BEH C18 1.7um, 2.1x100mm, Waters
Retention time: 6.104 min
Base peak: 272.2577
Precursor m/z: 272.2584
Precursor type: [M+H]+
m/z	relative intensity
56.1436	1
58.0868	1
60.1142	2
60.1869	2
61.0079	2
64.0637	16
66.0465	2
67.0537	85
69.0694	155
71.0851	525
74.1171	1
79.0536	1
79.0984	1
79.1106	1
81.0695	115
83.0852	50
85.1007	208
94.0737	2
95.085	157
96.0893	8
97.1006	25
97.1223	2
101.2467	3
103.0005	3
109.1012	63
111.1168	21
116.2496	3
117.245	1
118.1099	3
122.047	2
123.1165	13
125.1328	2
130.075	1
131.1169	1
134.1285	1
149.1531	2
151.1473	5
155.0116	2
159.1867	2
160.0283	2
166.0638	3
171.1591	3
174.0788	2
175.1453	3
178.077	1
184.1062	2
184.2199	3
185.1554	2
186.2421	2
193.1527	2
193.1937	2
197.1425	3
199.075	3
201.1582	3
203.1561	1
204.2675	2
205.146	3
206.106	1
211.2058	83
217.0267	3
219.1378	1
221.0796	1
223.9885	1
233.0121	1
235.2302	2
236.1763	2
240.1277	3
243.2677	2
251.0341	1
254.2473	375
255.2313	999
258.2653	2
272.2585	281
277.1409	1
