Mass spectrum: tsas#9; LC-ESI-QTOF; MS2; CE: 40; R=; [M-H]-
Name: tsas#9
Formula: C23H33NO9
Exact mass: 467.2155
SMILES: CC(CCC(O)=O)O[C@@H]1OC(C)[C@@H](CC1O)OC(=O)CCC(=O)NCCC1=CC=C(O)C=C1
InChI: InChI=1S/C23H33NO9/c1-14(3-9-21(28)29)31-23-18(26)13-19(15(2)32-23)33-22(30)10-8-20(27)24-12-11-16-4-6-17(25)7-5-16/h4-7,14-15,18-19,23,25-26H,3,8-13H2,1-2H3,(H,24,27)(H,28,29)/t14?,15?,18?,19-,23-/m1/s1
Instrument: maXis plus UHR-ToF-MS, Bruker Daltonics
Instrument type: LC-ESI-QTOF
Ms type: MS2
Ion mode: NEGATIVE
Ionization: ESI
Fragmentation mode: CID
Collision energy: 40
Column name: BEH C18 1.7um, 2.1x100mm, Waters
Retention time: 3.401 min
Base peak: 466.2051
Precursor m/z: 466.2083
Precursor type: [M-H]-
m/z	relative intensity
87.044	58
96.0086	120
99.0432	288
111.0457	193
197.177	58
218.0878	999
219.0895	76
236.0984	645
247.1248	452
294.0225	69
355.1214	54
473.1812	51
