Mass spectrum: Docosahexaenoyl Ethanolamide; LC-ESI-QTOF; MS2; CE: 40; R=; [M+H]+
Name: Docosahexaenoyl Ethanolamide
Name: Synaptamide
Name: (4Z,7Z,10Z,13Z,16Z,19Z)-N-(2-hydroxyethyl)docosa-4,7,10,13,16,19-hexaenamide
Formula: C24H37NO2
Exact mass: 371.28243
SMILES: CC/C=C\C/C=C\C/C=C\C/C=C\C/C=C\C/C=C\CCC(=O)NCCO
InChI: InChI=1S/C24H37NO2/c1-2-3-4-5-6-7-8-9-10-11-12-13-14-15-16-17-18-19-20-21-24(27)25-22-23-26/h3-4,6-7,9-10,12-13,15-16,18-19,26H,2,5,8,11,14,17,20-23H2,1H3,(H,25,27)/b4-3-,7-6-,10-9-,13-12-,16-15-,19-18-
Instrument: maXis plus UHR-ToF-MS, Bruker Daltonics
Instrument type: LC-ESI-QTOF
Ms type: MS2
Ion mode: POSITIVE
Ionization: ESI
Fragmentation mode: CID
Collision energy: 40
Column name: BEH C18 1.7um, 2.1x100mm, Waters
Retention time: 6.335 min
Base peak: 88.0753
Precursor m/z: 372.2897
Precursor type: [M+H]+
m/z	relative intensity
55.0542	102
60.0448	99
65.0388	81
68.0497	55
69.0704	113
79.0538	999
81.0694	265
91.0538	375
93.0704	297
105.0701	341
141.069	60
143.0843	102
144.0932	102
145.1	105
157.1001	81
158.1176	78
159.0178	47
172.1247	76
261.2164	86
