Mass spectrum: L-Tyrosine; LC-ESI-QTOF; MS2; CE: 20; R=; [M-H]-
Name: L-Tyrosine
Name: (2S)-2-amino-3-(4-hydroxyphenyl)propanoic acid
Formula: C9H11NO3
Exact mass: 181.07389
SMILES: c1cc(ccc1C[C@@H](C(=O)O)N)O
InChI: InChI=1S/C9H11NO3/c10-8(9(12)13)5-6-1-3-7(11)4-2-6/h1-4,8,11H,5,10H2,(H,12,13)/t8-/m0/s1
Instrument: maXis plus UHR-ToF-MS, Bruker Daltonics
Instrument type: LC-ESI-QTOF
Ms type: MS2
Ion mode: NEGATIVE
Ionization: ESI
Fragmentation mode: CID
Collision energy: 20
Column name: BEH C18 1.7um, 2.1x100mm, Waters
Retention time: 0.723 min
Base peak: 180.0671
Precursor m/z: 180.0666
Precursor type: [M-H]-
m/z	relative intensity
74.0252	165
93.0341	323
119.051	639
163.0413	999
180.0659	596
