Mass spectrum: 3-oxo-C14 homoserine lactone; LC-ESI-QTOF; MS2; CE: 20; R=; [M-H]-
Name: 3-oxo-C14 homoserine lactone
Name: N-(3-Oxotetradecanoyl)-DL-homoserine lactone
Name: 3-oxo-N-(2-oxooxolan-3-yl)tetradecanamide
Formula: C18H31NO4
Exact mass: 325.2253
SMILES: CCCCCCCCCCCC(=O)CC(=O)NC1CCOC1=O
InChI: InChI=1S/C18H31NO4/c1-2-3-4-5-6-7-8-9-10-11-15(20)14-17(21)19-16-12-13-23-18(16)22/h16H,2-14H2,1H3,(H,19,21)
Instrument: maXis plus UHR-ToF-MS, Bruker Daltonics
Instrument type: LC-ESI-QTOF
Ms type: MS2
Ion mode: NEGATIVE
Ionization: ESI
Fragmentation mode: CID
Collision energy: 20
Column name: BEH C18 1.7um, 2.1x100mm, Waters
Retention time: 5.901 min
Base peak: 324.2173
Precursor m/z: 324.218
Precursor type: [M-H]-
m/z	relative intensity
69.9938	1
72.0095	1
95.0385	1
96.0452	1
100.0411	3
113.0431	1
126.0203	8
142.0514	11
143.0551	1
181.1591	1
197.1923	130
198.1138	1
198.1971	6
199.1713	403
200.1754	20
223.1715	2
232.2054	1
241.1783	1
250.2187	34
251.2228	4
262.2187	17
263.2224	2
276.1988	1
280.2289	1
282.2056	1
324.2178	999
