Mass spectrum: D-Ribose; LC-ESI-QTOF; MS2; CE: 20; R=; [M-H]-
Name: D-Ribose
Name: (2R,3R,4R)-2,3,4,5-tetrahydroxypentanal
Formula: C5H10O5
Exact mass: 150.0528
SMILES: C([C@H]([C@H]([C@H](C=O)O)O)O)O
InChI: InChI=1S/C5H10O5/c6-1-3(8)5(10)4(9)2-7/h1,3-5,7-10H,2H2/t3-,4+,5-/m0/s1
Instrument: maXis plus UHR-ToF-MS, Bruker Daltonics
Instrument type: LC-ESI-QTOF
Ms type: MS2
Ion mode: NEGATIVE
Ionization: ESI
Fragmentation mode: CID
Collision energy: 20
Column name: BEH C18 1.7um, 2.1x100mm, Waters
Retention time: 0.616 min
Base peak: 89.0247
Precursor m/z: 149.0455
Precursor type: [M-H]-
m/z	relative intensity
59.0135	999
