Mass spectrum: Shikimic acid; LC-ESI-QTOF; MS2; CE: 20; R=; [M-H]-
Name: Shikimic acid
Name: (3R,4S,5R)-3,4,5-trihydroxycyclohexene-1-carboxylic acid
Formula: C7H10O5
Exact mass: 174.0528
SMILES: C1[C@H]([C@@H]([C@@H](C=C1C(=O)O)O)O)O
InChI: InChI=1S/C7H10O5/c8-4-1-3(7(11)12)2-5(9)6(4)10/h1,4-6,8-10H,2H2,(H,11,12)/t4-,5-,6-/m1/s1
Instrument: maXis plus UHR-ToF-MS, Bruker Daltonics
Instrument type: LC-ESI-QTOF
Ms type: MS2
Ion mode: NEGATIVE
Ionization: ESI
Fragmentation mode: CID
Collision energy: 20
Column name: BEH C18 1.7um, 2.1x100mm, Waters
Retention time: 0.656 min
Base peak: 173.0462
Precursor m/z: 173.0455
Precursor type: [M-H]-
m/z	relative intensity
58.0063	51
59.0144	40
69.0344	88
71.0136	139
71.0504	16
73.0296	999
81.034	52
81.055	15
83.0504	294
84.0548	10
85.0289	47
93.0349	855
94.0384	48
99.0454	65
111.0456	55
