Mass spectrum: 3-Methyladipic acid; LC-ESI-QTOF; MS2; CE: 40; R=; [M-H]-
Name: 3-Methyladipic acid
Name: 3-methylhexanedioic acid
Formula: C7H12O4
Exact mass: 160.0736
SMILES: CC(CCC(O)=O)CC(O)=O
InChI: InChI=1S/C7H12O4/c1-5(4-7(10)11)2-3-6(8)9/h5H,2-4H2,1H3,(H,8,9)(H,10,11)
Instrument: maXis plus UHR-ToF-MS, Bruker Daltonics
Instrument type: LC-ESI-QTOF
Ms type: MS2
Ion mode: NEGATIVE
Ionization: ESI
Fragmentation mode: CID
Collision energy: 40
Column name: BEH C18 1.7um, 2.1x100mm, Waters
Retention time: 2.732 min
Base peak: 159.0671
Precursor m/z: 159.0663
Precursor type: [M-H]-
m/z	relative intensity
67.0558	107
80.0273	367
81.0347	651
82.0391	55
95.0506	999
97.066	206
