Mass spectrum: Retinoic acid; LC-ESI-QTOF; MS2; CE: 20; R=; [M+H]+
Name: Retinoic acid
Name: (2E,4E,6E,8E)-3,7-dimethyl-9-(2,6,6-trimethylcyclohexen-1-yl)nona-2,4,6,8-tetraenoic acid
Formula: C20H28O2
Exact mass: 300.2089
SMILES: CC1=C(C(CCC1)(C)C)/C=C/C(=C/C=C/C(=C/C(=O)O)/C)/C
InChI: InChI=1S/C20H28O2/c1-15(8-6-9-16(2)14-19(21)22)11-12-18-17(3)10-7-13-20(18,4)5/h6,8-9,11-12,14H,7,10,13H2,1-5H3,(H,21,22)/b9-6+,12-11+,15-8+,16-14+
Instrument: maXis plus UHR-ToF-MS, Bruker Daltonics
Instrument type: LC-ESI-QTOF
Ms type: MS2
Ion mode: POSITIVE
Ionization: ESI
Fragmentation mode: CID
Collision energy: 20
Column name: BEH C18 1.7um, 2.1x100mm, Waters
Retention time: 6.910 min
Base peak: 88.0748
Precursor m/z: 301.2162
Precursor type: [M+H]+
m/z	relative intensity
47.0608	2
58.0525	3
59.0493	5
68.0578	4
70.0529	1
70.1718	1
71.0485	111
71.0849	14
73.0643	1
78.0193	2
79.0538	89
81.0693	756
83.0487	8
83.0858	83
84.0206	2
85.0641	204
85.1013	19
87.044	16
87.1036	3
90.0464	2
91.0172	3
91.0535	31
92.0622	8
92.1552	3
92.1775	2
93.0695	150
95.0851	454
96.0886	29
97.0065	2
97.0649	18
97.1003	28
97.9994	1
99.0434	2
99.1168	1
101.0589	4
101.1902	1
102.0068	2
102.0909	4
103.1477	2
103.2053	2
105.0696	75
106.0736	5
107.0847	136
108.0568	3
108.0801	1
108.0884	23
109.0644	15
109.1011	182
110.0689	3
110.105	30
111.0435	29
111.0802	7
111.1169	35
113.0598	18
114.1608	2
115.076	2
117.029	1
119.0854	71
120.0925	10
121.0645	6
121.1013	82
122.1042	5
123.1168	999
124.1198	100
125.0602	14
125.0972	1
125.1543	1
126.0675	1
127.0754	14
128.0268	3
128.1207	2
129.0431	4
130.1224	1
131.0859	25
133.0391	2
133.0728	2
133.1003	36
134.0108	4
134.0682	2
134.104	7
135.08	6
135.117	14
136.0872	2
136.096	2
136.1204	5
136.9985	4
137.0351	3
137.128	4
138.0333	1
138.1992	1
142.0764	2
143.0856	11
143.1186	2
144.1254	2
145.0638	7
145.1009	70
146.0598	3
146.0713	10
146.1055	9
146.2018	2
147.0791	8
147.1162	31
147.1487	2
147.1729	4
148.1201	5
148.1461	2
149.059	5
149.0959	7
149.1327	5
149.2013	2
150.1041	2
151.0629	2
151.0878	5
151.1121	12
152.0611	2
153.069	4
153.0909	12
154.0162	2
154.029	1
154.0427	2
155.0853	5
156.0931	9
156.1139	2
157.1022	76
158.0712	6
158.1088	11
159.0801	25
159.1165	234
160.0618	2
160.0852	4
160.122	36
161.0958	555
161.132	101
162.0986	62
162.1113	4
162.1352	9
163.0543	2
163.0759	10
163.1105	22
163.1479	2
163.2054	1
164.0822	17
165.0463	2
165.0669	4
165.0906	9
165.1285	1
166.0997	3
167.1053	15
167.997	2
168.0918	6
169.0661	1
169.1013	12
169.9874	1
170.1089	15
171.0799	12
171.1162	90
171.995	1
172.1209	11
173.0962	77
173.1323	94
174.0545	2
174.105	10
174.1371	17
175.1116	22
175.1477	86
176.1159	8
177.0906	105
177.1642	23
178.0732	2
178.1299	2
178.1663	2
179.1063	180
180.0921	2
181.0288	1
181.1009	4
182.1085	4
183.0813	2
183.0923	3
183.1163	36
183.9948	3
184.1224	13
185.0958	43
185.1321	124
186.0062	1
186.1053	6
186.1371	18
186.174	2
186.2214	2
187.1113	103
187.1472	57
188.0828	2
188.1152	11
189.0901	15
189.1281	7
189.1621	7
191.1067	68
191.1429	5
191.1756	4
193.0978	3
193.1226	12
194.0372	2
195.1141	7
196.1244	1
197.0974	8
197.1322	75
198.0205	2
198.1041	7
198.1374	6
199.1113	57
199.1481	107
200.1162	9
200.1518	19
201.1282	21
201.1637	231
202.1313	6
202.1686	63
203.1052	34
203.144	3
203.1781	12
204.1127	3
204.1844	4
205.1218	284
207.1162	12
209.1313	10
210.0291	3
210.1049	10
211.1125	11
211.1316	2
211.1486	14
212.1203	6
213.1273	55
213.1638	38
214.1704	8
215.1056	13
215.1405	8
215.1785	9
216.1851	2
217.1218	67
219.1379	56
219.1715	3
220.1809	2
221.0376	3
221.1544	3
221.2235	3
223.1478	7
224.1539	6
225.1268	32
225.1647	9
226.1338	6
226.1692	6
227.1436	67
227.1799	7
228.1466	12
228.181	2
229.122	41
229.1588	2
230.1311	17
230.1561	1
231.1372	96
234.1607	1
237.1648	2
237.2098	2
238.1364	4
238.1658	2
239.1079	1
239.1429	7
239.1794	34
240.1838	12
241.1579	48
241.1955	75
242.1628	4
242.1977	20
243.1369	88
244.1097	2
245.1537	144
246.0783	3
247.1547	1
247.2126	1
248.1506	2
248.1661	1
249.1579	2
250.1687	2
253.1599	2
253.195	14
253.2165	2
254.1988	6
255.1739	9
255.2108	172
256.1435	7
256.1768	4
256.2131	40
257.1855	3
259.019	1
259.1693	16
263.1771	1
265.1941	15
266.1648	4
266.1927	1
267.1755	9
267.1992	1
268.1782	2
269.0815	2
271.0373	1
271.1717	3
271.1995	1
272.2154	1
273.1837	3
277.2299	3
278.0625	1
279.1851	2
280.0021	1
281.1885	27
282.1911	2
283.2055	132
284.2091	23
285.1844	106
286.1908	21
287.0717	2
293.1039	1
299.2011	58
300.1734	2
300.2079	21
301.216	609
306.1928	2
