Mass spectrum: 3-hydroxy-C10-homoserine lactone; LC-ESI-QTOF; MS2; CE: 10; R=; [M+H]+
Name: 3-hydroxy-C10-homoserine lactone
Name: 3-hydroxy-N-(2-oxooxolan-3-yl)decanamide
Formula: C14H25NO4
Exact mass: 271.17836
SMILES: CCCCCCCC(O)CC(=O)NC1CCOC1=O
InChI: InChI=1S/C14H25NO4/c1-2-3-4-5-6-7-11(16)10-13(17)15-12-8-9-19-14(12)18/h11-12,16H,2-10H2,1H3,(H,15,17)
Instrument: maXis plus UHR-ToF-MS, Bruker Daltonics
Instrument type: LC-ESI-QTOF
Ms type: MS2
Ion mode: POSITIVE
Ionization: ESI
Fragmentation mode: CID
Collision energy: 10
Column name: BEH C18 1.7um, 2.1x100mm, Waters
Retention time: 4.384 min
Base peak: 272.1848
Precursor m/z: 272.1856
Precursor type: [M+H]+
m/z	relative intensity
69.0694	7
74.023	10
74.0593	35
81.0699	1
83.0853	2
84.0439	8
85.0278	1
93.069	1
95.0849	1
97.0644	2
102.0545	999
107.0863	1
135.1161	3
153.1267	15
154.13	1
214.1807	1
226.1792	3
236.1637	2
244.1904	1
254.1744	169
255.1777	22
256.1806	1
272.1849	380
274.1908	5
