Mass spectrum: L-Arginine; LC-ESI-QTOF; MS2; CE: 20; R=; [M+H]+
Name: L-Arginine
Name: (2S)-2-amino-5-(diaminomethylideneazaniumyl)pentanoate
Formula: C6H14N4O2
Exact mass: 174.11168
SMILES: C(C[C@@H](C(=O)O)N)CNC(=N)N
InChI: InChI=1S/C6H14N4O2/c7-4(5(11)12)2-1-3-10-6(8)9/h4H,1-3,7H2,(H,11,12)(H4,8,9,10)/t4-/m0/s1
Instrument: maXis plus UHR-ToF-MS, Bruker Daltonics
Instrument type: LC-ESI-QTOF
Ms type: MS2
Ion mode: POSITIVE
Ionization: ESI
Fragmentation mode: CID
Collision energy: 20
Column name: BEH C18 1.7um, 2.1x100mm, Waters
Retention time: 0.547 min
Base peak: 65.0596
Precursor m/z: 175.119
Precursor type: [M+H]+
m/z	relative intensity
61.0518	59
71.0487	215
72.0804	710
87.0321	16
97.0763	36
98.0599	30
103.0131	24
112.0871	101
113.091	31
115.0852	16
116.0703	880
130.0972	282
131.0061	30
158.0919	485
175.1183	999
