Mass spectrum: Diethylphthalate; LC-ESI-QTOF; MS2; CE: 40; R=; [M+H]+
Name: Diethylphthalate
Name: DIETHYL PHTHALATE
Name: diethyl benzene-1,2-dicarboxylate
Formula: C12H14O4
Exact mass: 222.08921
SMILES: CCOC(=O)c1ccccc1C(=O)OCC
InChI: InChI=1S/C12H14O4/c1-3-15-11(13)9-7-5-6-8-10(9)12(14)16-4-2/h5-8H,3-4H2,1-2H3
Instrument: maXis plus UHR-ToF-MS, Bruker Daltonics
Instrument type: LC-ESI-QTOF
Ms type: MS2
Ion mode: POSITIVE
Ionization: ESI
Fragmentation mode: CID
Collision energy: 40
Column name: BEH C18 1.7um, 2.1x100mm, Waters
Retention time: 4.816 min
Base peak: 149.0237
Precursor m/z: 223.0965
Precursor type: [M+H]+
m/z	relative intensity
80.025	25
93.0326	597
98.0358	2
111.0437	116
112.0473	5
121.0283	903
121.0386	475
122.0318	63
149.0233	999
150.0267	85
151.0283	6
167.0333	1
