Mass spectrum: ascr#17; LC-ESI-QTOF; MS2; CE: 40; R=; [M+H]+
Name: ascr#17
Name: (E)-10-(3,5-dihydroxy-6-methyloxan-2-yl)oxyundec-2-enoic acid
Formula: C17H30O6
Exact mass: 330.2042
SMILES: CC(CCCCCC\C=C\C(O)=O)OC1OC(C)C(O)CC1O
InChI: InChI=1S/C17H30O6/c1-12(9-7-5-3-4-6-8-10-16(20)21)22-17-15(19)11-14(18)13(2)23-17/h8,10,12-15,17-19H,3-7,9,11H2,1-2H3,(H,20,21)/b10-8+
Instrument: maXis plus UHR-ToF-MS, Bruker Daltonics
Instrument type: LC-ESI-QTOF
Ms type: MS2
Ion mode: POSITIVE
Ionization: ESI
Fragmentation mode: CID
Collision energy: 40
Column name: BEH C18 1.7um, 2.1x100mm, Waters
Retention time: 3.971 min
Base peak: 261.1325
Precursor m/z: 331.2115
Precursor type: [M+H]+
m/z	relative intensity
53.0381	2
55.0175	4
55.0538	26
65.038	9
67.0537	516
69.0694	146
73.028	24
77.0385	1
79.0536	35
80.0575	2
81.0694	999
83.0487	54
83.0853	8
85.0642	30
91.055	11
93.0696	9
94.0737	1
95.0852	402
97.0651	2
99.0437	3
101.0596	1
105.0694	7
106.0731	1
107.0859	4
109.0654	5
109.1015	6
111.0801	2
113.0597	8
121.1005	3
122.1049	1
123.1171	6
131.07	1
137.1319	21
144.0942	1
147.1167	6
148.1207	1
165.1275	22
166.13	3
183.1379	32
184.1407	4
201.1482	21
