Mass spectrum: N2_N2-Dimethylguanosine; LC-ESI-QTOF; MS2; CE: 10; R=; [M+H]+
Name: N2_N2-Dimethylguanosine
Name: N,N-Dimethylguanosine
Name: 9-[(2R,3R,4S,5R)-3,4-dihydroxy-5-(hydroxymethyl)oxolan-2-yl]-2-(dimethylamino)-3H-purin-6-one
Formula: C12H17N5O5
Exact mass: 311.1230
SMILES: CN(C)c1[nH]c(=O)c2c(n1)n(cn2)[C@H]3[C@@H]([C@@H]([C@H](O3)CO)O)O
InChI: InChI=1S/C12H17N5O5/c1-16(2)12-14-9-6(10(21)15-12)13-4-17(9)11-8(20)7(19)5(3-18)22-11/h4-5,7-8,11,18-20H,3H2,1-2H3,(H,14,15,21)/t5-,7-,8-,11-/m1/s1
Instrument: maXis plus UHR-ToF-MS, Bruker Daltonics
Instrument type: LC-ESI-QTOF
Ms type: MS2
Ion mode: POSITIVE
Ionization: ESI
Fragmentation mode: CID
Collision energy: 10
Column name: BEH C18 1.7um, 2.1x100mm, Waters
Retention time: 1.604 min
Base peak: 312.1302
Precursor m/z: 312.1302
Precursor type: [M+H]+
m/z	relative intensity
72.1135	1
79.0612	1
83.0575	1
83.9849	1
83.9992	1
94.0846	1
107.1292	1
109.0003	1
111.1234	1
118.039	1
124.0459	1
131.1254	1
136.0488	1
142.0351	1
142.1461	1
145.058	1
145.1286	1
146.0204	1
146.0533	1
147.0448	1
148.0276	1
153.0507	1
154.0331	1
157.1075	1
158.0081	1
158.1417	1
159.012	1
162.012	1
169.0232	1
170.1135	1
175.0345	1
180.0875	999
181.0905	53
182.0139	1
182.0896	1
184.0917	1
194.9977	1
196.0163	1
198.0647	1
212.0529	1
212.0926	1
218.0058	1
221.0229	1
225.0999	1
225.9956	1
237.9753	1
248.1479	1
257.1216	2
299.12	1
301.0196	1
311.1208	2
312.1301	540
314.1308	5
