Mass spectrum: ascr#17; LC-ESI-QTOF; MS2; CE: 10; R=; [M+H]+
Name: ascr#17
Name: (E)-10-(3,5-dihydroxy-6-methyloxan-2-yl)oxyundec-2-enoic acid
Formula: C17H30O6
Exact mass: 330.2042
SMILES: CC(CCCCCC\C=C\C(O)=O)OC1OC(C)C(O)CC1O
InChI: InChI=1S/C17H30O6/c1-12(9-7-5-3-4-6-8-10-16(20)21)22-17-15(19)11-14(18)13(2)23-17/h8,10,12-15,17-19H,3-7,9,11H2,1-2H3,(H,20,21)/b10-8+
Instrument: maXis plus UHR-ToF-MS, Bruker Daltonics
Instrument type: LC-ESI-QTOF
Ms type: MS2
Ion mode: POSITIVE
Ionization: ESI
Fragmentation mode: CID
Collision energy: 10
Column name: BEH C18 1.7um, 2.1x100mm, Waters
Retention time: 3.971 min
Base peak: 261.1325
Precursor m/z: 331.2115
Precursor type: [M+H]+
m/z	relative intensity
69.0705	1
81.0695	41
94.0625	1
95.0856	10
105.0691	1
123.1175	4
123.9899	1
131.1181	1
137.132	21
138.1354	1
140.9818	1
147.1164	12
148.1201	1
150.032	1
165.1269	195
166.1303	14
173.9935	1
181.0711	1
183.1373	562
184.1403	55
201.148	999
203.1539	9
204.1555	1
224.1614	1
313.1981	3
331.2101	1
