Mass spectrum: ascr#1; LC-ESI-QTOF; MS2; CE: 40; R=; [M+H]+
Name: ascr#1
Name: daumone
Name: (6R)-6-[(2R,3R,5R,6S)-3,5-dihydroxy-6-methyloxan-2-yl]oxyheptanoic acid
Formula: C13H24O6
Exact mass: 276.1573
SMILES: C[C@H](CCCCC(O)=O)O[C@@H]1O[C@@H](C)[C@H](O)C[C@H]1O
InChI: InChI=1S/C13H24O6/c1-8(5-3-4-6-12(16)17)18-13-11(15)7-10(14)9(2)19-13/h8-11,13-15H,3-7H2,1-2H3,(H,16,17)/t8-,9+,10-,11-,13-/m1/s1
Instrument: maXis plus UHR-ToF-MS, Bruker Daltonics
Instrument type: LC-ESI-QTOF
Ms type: MS2
Ion mode: POSITIVE
Ionization: ESI
Fragmentation mode: CID
Collision energy: 40
Column name: BEH C18 1.7um, 2.1x100mm, Waters
Retention time: 3.037 min
Base peak: 88.0753
Precursor m/z: 277.1646
Precursor type: [M+H]+
m/z	relative intensity
83.0492	121
83.0849	999
85.0284	19
85.0652	41
87.0799	33
111.0805	23
126.116	12
260.1717	12
