Mass spectrum: Glycochenodeoxycholate; LC-ESI-QTOF; MS2; CE: 40; R=; [M+H]+
Name: Glycochenodeoxycholate
Name: GLYCOCHENODEOXYCHOLIC ACID
Name: 2-[[(4R)-4-[(3R,5S,7R,8R,9S,10S,13R,14S,17R)-3,7-dihydroxy-10,13-dimethyl-2,3,4,5,6,7,8,9,11,12,14,15,16,17-tetradecahydro-1H-cyclopenta[a]phenanthren-17-yl]pentanoyl]amino]acetic acid
Formula: C26H43NO5
Exact mass: 449.3141
SMILES: C[C@H](CC/C(=N/CC(=O)O)/O)[C@H]1CC[C@@H]2[C@@]1(CC[C@H]3[C@H]2[C@@H](C[C@H]4[C@@]3(CC[C@H](C4)O)C)O)C
InChI: InChI=1S/C26H43NO5/c1-15(4-7-22(30)27-14-23(31)32)18-5-6-19-24-20(9-11-26(18,19)3)25(2)10-8-17(28)12-16(25)13-21(24)29/h15-21,24,28-29H,4-14H2,1-3H3,(H,27,30)(H,31,32)/t15-,16+,17-,18-,19+,20+,21-,24+,25+,26-/m1/s1
Instrument: maXis plus UHR-ToF-MS, Bruker Daltonics
Instrument type: LC-ESI-QTOF
Ms type: MS2
Ion mode: POSITIVE
Ionization: ESI
Fragmentation mode: CID
Collision energy: 40
Column name: BEH C18 1.7um, 2.1x100mm, Waters
Retention time: 4.724 min
Base peak: 450.3209
Precursor m/z: 450.3214
Precursor type: [M+H]+
m/z	relative intensity
48.0557	1
50.0029	1
53.0382	1
55.0184	3
57.0323	1
59.037	1
61.0074	1
62.0962	1
65.0138	1
65.0382	4
66.2558	1
68.0133	1
68.0574	4
69.0328	4
70.0532	1
71.0485	4
71.0853	1
72.3387	1
76.0387	999
77.0958	1
78.042	2
79.0537	37
80.0574	1
81.0694	230
82.073	7
83.0488	11
83.0852	51
84.0448	1
85.0643	205
87.0526	1
88.2992	1
90.0299	1
90.0884	1
91.0541	31
92.0578	2
92.0817	2
92.105	1
92.1314	2
92.3079	1
93.0697	82
94.0397	1
95.085	140
96.0886	7
96.1347	1
96.196	1
97.0013	1
97.0643	6
97.1004	14
98.0083	1
98.0574	3
98.1183	1
99.08	2
100.0036	1
100.1662	1
101.0576	1
101.0963	1
102.0052	1
102.2207	1
102.2799	1
103.0164	1
103.2293	1
104.0107	1
105.0696	45
105.1509	3
105.1717	2
106.0734	6
106.2168	1
107.085	113
109.0648	6
109.1006	63
110.0018	1
110.0107	2
110.0346	1
110.2462	1
111.0181	1
111.0805	5
111.1174	2
111.2533	1
111.2685	2
112.0377	1
112.0752	7
113.0955	2
114.0207	1
114.031	1
114.0545	1
114.0897	1
114.1327	3
115.074	1
115.2852	1
117.0697	7
117.1387	1
117.2862	1
118.0408	1
119.0853	39
119.9919	1
120.0681	1
121.1007	40
122.0149	1
122.0696	1
122.1031	4
122.2825	1
123.0184	1
123.0803	2
123.1174	7
123.2397	1
123.2542	1
123.2923	1
124.005	2
124.1244	1
124.1548	1
124.1686	1
124.2846	1
125.0954	6
125.2191	1
126.0799	1
126.0921	1
127.0006	1
127.012	1
128.0363	2
129.0692	2
129.9889	1
130.0425	1
131.085	6
131.1511	1
132.0161	1
132.2075	1
133.1007	27
134.0004	1
134.1032	1
134.2854	2
135.0519	1
135.0803	2
135.1048	1
135.1168	20
135.175	1
136.0996	1
136.1218	4
136.2489	1
136.2852	1
137.0961	5
137.1993	1
138.09	4
138.1012	1
138.1341	1
138.2178	1
138.3204	1
139.0105	1
139.1101	1
139.1409	1
139.2054	1
139.2348	2
139.3372	1
140.0676	1
141.0797	1
141.1685	1
141.2054	1
142.2543	1
143.044	1
143.0851	6
143.1735	1
144.0041	1
144.0871	3
145.1009	31
146.0609	1
146.0838	2
146.1044	3
146.113	1
146.19	1
147.1167	48
148.0349	1
148.1195	7
148.3332	1
149.095	4
149.1164	1
149.1326	34
149.2008	1
150.0452	2
150.1131	1
150.135	2
150.317	2
151.1104	11
152.0418	1
152.0807	1
153.0001	1
153.1133	1
153.1282	2
153.1495	1
153.2297	1
154.077	1
154.1207	1
154.2289	1
155.0558	1
155.0859	4
156.066	10
156.0908	2
157.0826	2
157.1011	16
157.2368	1
157.2827	1
158.0811	56
158.1057	4
159.0838	5
159.1164	54
160.0872	2
160.1206	4
160.2643	2
161.1318	90
162.065	2
162.1357	8
163.0611	1
163.1117	37
163.147	21
164.0248	1
164.0838	1
164.116	3
164.1505	1
164.1608	1
164.1993	1
165.1262	5
165.2781	1
165.3164	1
165.9917	1
166.0743	1
166.122	6
167.1534	1
167.9982	1
168.255	1
169.1006	17
170.1034	1
170.1413	1
170.9915	1
171.0902	1
171.1171	19
171.3033	1
171.3264	1
171.9941	1
172.0973	8
172.1219	2
172.2469	1
173.0574	2
173.0956	4
173.1324	27
173.1748	2
174.0552	1
174.0665	1
174.1357	9
175.1112	25
175.1478	78
176.0561	1
176.0649	1
176.1157	5
176.1397	1
176.1511	9
176.2134	3
176.2789	1
177.1267	75
177.1643	3
178.0292	2
178.1003	1
178.1648	1
179.0245	1
179.0429	1
179.1423	1
180.0191	1
180.0741	1
180.0901	1
180.1013	1
180.1378	2
181.1691	1
181.2734	1
182.0346	1
183.1174	12
184.0959	7
184.1186	1
185.1326	52
186.0349	1
186.1129	3
186.1357	7
186.2567	1
187.1104	5
187.1476	55
188.0577	1
188.1151	2
188.1508	5
189.1267	20
189.1637	40
190.0078	1
190.0275	1
190.1674	10
190.2048	1
191.1425	26
191.2613	1
192.0571	1
192.0764	1
193.1426	1
193.1595	1
194.1148	1
194.1975	1
195.1155	3
195.1337	1
195.172	1
196.0995	2
196.1288	2
197.1329	22
197.1721	1
198.0179	1
198.1134	7
198.1344	1
199.1479	40
199.9971	1
200.1278	1
200.151	9
200.2146	1
200.278	1
201.1634	208
201.9872	1
202.1677	27
203.1426	19
203.1799	15
203.2384	1
204.0664	1
204.1198	1
204.1838	1
204.276	1
205.0291	1
205.1425	1
205.1607	5
205.1883	1
206.0774	1
208.0644	1
208.0845	2
208.1326	1
209.1297	2
210.1107	2
210.1336	4
210.1841	1
211.1482	54
211.9879	3
212.0925	1
212.1063	2
212.1279	19
212.1508	10
213.1635	59
214.1336	1
214.1446	1
214.1669	6
215.1419	11
215.1793	165
216.1465	2
216.1826	24
217.1586	24
217.195	14
218.1629	3
218.2014	3
218.2333	1
223.1497	3
223.2243	1
224.1286	7
224.1505	2
225.1021	2
225.1638	38
226.1445	6
226.1666	6
227.1447	3
227.1795	41
227.3162	2
228.1208	2
228.1841	10
228.34	1
229.159	45
229.1954	33
229.981	1
230.0081	1
230.1612	5
230.1986	4
231.0778	1
231.1752	29
232.0672	1
232.1333	2
232.2629	1
233.1887	2
234.1497	2
234.3359	1
235.0006	1
235.1637	1
235.9947	1
236.0301	1
236.1235	1
236.1525	1
237.161	5
237.3174	1
238.0808	1
238.1431	21
238.3327	1
239.1464	3
239.1794	57
240.1587	4
240.1823	12
241.0002	1
241.0371	1
241.1947	27
241.2176	1
242.0429	1
242.1976	6
243.097	1
243.1743	30
243.2109	26
244.0649	1
244.1767	3
244.215	5
245.187	8
245.2907	1
245.3052	1
246.0397	1
246.1921	3
246.2361	1
247.1704	1
248.1264	1
248.1576	1
248.2008	1
248.235	1
249.1619	1
250.1451	7
250.1667	1
251.1301	1
251.181	12
251.3023	1
251.9821	1
252.1595	17
252.1832	2
252.3251	1
253.0316	1
253.1235	1
253.1657	2
253.1944	12
254.1758	2
254.2029	49
255.1772	1
255.2084	29
256.2154	4
257.1902	40
257.223	3
258.1937	10
259.2079	2
260.3077	1
261.1724	1
264.1279	1
264.1592	11
265.0291	1
265.1396	1
265.1633	3
265.1956	24
266.0159	1
266.1768	11
266.1972	4
267.1805	2
267.2107	7
268.1821	1
268.2092	1
269.189	3
269.2272	2
270.1218	1
271.0113	1
271.1536	1
271.2074	4
272.2114	1
273.3374	1
274.1797	1
275.0619	1
275.1124	1
275.2067	1
276.1615	1
278.053	1
278.0643	1
278.1759	5
279.1533	2
279.176	1
279.2099	15
279.9973	1
280.1905	3
280.2132	5
281.2263	6
281.2865	1
282.086	1
282.2092	1
282.2326	2
282.317	1
283.2057	8
283.2272	1
283.249	1
284.2074	2
284.2297	1
285.2046	1
285.2216	7
285.2635	1
285.3374	1
286.2318	1
287.1942	1
288.1932	1
289.1202	1
291.1346	1
291.9736	1
292.191	7
293.1956	3
293.2295	4
294.2303	2
295.2404	11
296.2542	1
297.2219	15
297.2571	28
298.2251	3
298.2599	4
299.0225	2
299.2687	1
301.1817	1
301.2379	1
301.2859	1
302.2321	1
304.1916	10
305.1955	3
306.2054	7
306.2376	3
307.237	1
308.1382	1
308.2229	1
308.2725	1
309.228	1
311.2386	5
311.2752	7
312.28	3
314.1757	1
314.2463	1
315.0132	1
315.3133	1
316.0788	1
317.1031	1
318.2061	11
319.2098	1
319.2317	1
320.2214	1
320.2534	2
321.2577	312
322.262	79
323.0632	1
323.2644	8
325.1573	1
332.0468	1
332.2221	7
333.2269	3
334.2356	1
339.2691	319
340.2723	88
341.0083	1
341.273	7
344.2222	1
345.1613	1
346.2387	2
351.2691	1
356.2677	1
357.2797	4
358.2362	2
368.2934	2
369.2956	1
381.0178	1
391.0966	1
396.2913	7
398.1221	1
398.3383	1
409.2708	1
410.127	1
414.3007	91
415.3045	24
416.2761	1
416.3073	3
444.1406	1
459.2687	1
459.2866	2
483.236	1
