Mass spectrum: 2`-O-Methyladenosine; LC-ESI-QTOF; MS2; CE: 10; R=; [M+H]+
Name: 2`-O-Methyladenosine
Name: (2R,3R,4R,5R)-5-(6-aminopurin-9-yl)-2-(hydroxymethyl)-4-methoxyoxolan-3-ol
Formula: C11H15N5O4
Exact mass: 281.1124
SMILES: CO[C@@H]1[C@@H]([C@H](O[C@H]1n2cnc3c2ncnc3N)CO)O
InChI: InChI=1S/C11H15N5O4/c1-19-8-7(18)5(2-17)20-11(8)16-4-15-6-9(12)13-3-14-10(6)16/h3-5,7-8,11,17-18H,2H2,1H3,(H2,12,13,14)/t5-,7-,8-,11-/m1/s1
Instrument: maXis plus UHR-ToF-MS, Bruker Daltonics
Instrument type: LC-ESI-QTOF
Ms type: MS2
Ion mode: POSITIVE
Ionization: ESI
Fragmentation mode: CID
Collision energy: 10
Column name: BEH C18 1.7um, 2.1x100mm, Waters
Retention time: 0.778 min
Base peak: 282.1194
Precursor m/z: 282.1197
Precursor type: [M+H]+
m/z	relative intensity
136.0617	74
137.0644	3
182.0622	1
282.1195	999
