Mass spectrum: Glycohyodeoxycholic acid; LC-ESI-QTOF; MS2; CE: 40; R=; [M+H]+
Name: Glycohyodeoxycholic acid
Name: SCHEMBL1654508
Name: 2-[4-(3,6-dihydroxy-10,13-dimethyl-2,3,4,5,6,7,8,9,11,12,14,15,16,17-tetradecahydro-1H-cyclopenta[a]phenanthren-17-yl)pentanoylamino]acetic acid
Formula: C26H43NO5
Exact mass: 449.3141
SMILES: CC(CCC(=O)NCC(=O)O)C1CCC2C1(CCC3C2CC(C4C3(CCC(C4)O)C)O)C
InChI: InChI=1S/C26H43NO5/c1-15(4-7-23(30)27-14-24(31)32)18-5-6-19-17-13-22(29)21-12-16(28)8-10-26(21,3)20(17)9-11-25(18,19)2/h15-22,28-29H,4-14H2,1-3H3,(H,27,30)(H,31,32)
Instrument: maXis plus UHR-ToF-MS, Bruker Daltonics
Instrument type: LC-ESI-QTOF
Ms type: MS2
Ion mode: POSITIVE
Ionization: ESI
Fragmentation mode: CID
Collision energy: 40
Column name: BEH C18 1.7um, 2.1x100mm, Waters
Retention time: 4.231 min
Base peak: 450.3212
Precursor m/z: 450.3214
Precursor type: [M+H]+
m/z	relative intensity
48.0442	6
48.1747	6
52.2758	5
52.3	6
53.9974	6
54.0082	6
56.1562	14
58.1719	6
59.2371	6
63.2552	9
64.0512	6
64.3121	10
65.1169	6
68.0104	5
68.1408	10
68.213	8
68.2378	12
71.0008	6
71.2006	16
76.0035	10
78.2923	12
80.1281	6
81.0909	15
81.3019	6
86.3424	12
87.1952	7
87.3043	6
90.1845	8
91.9892	7
92.1051	12
92.2381	16
94.0001	8
95.1067	6
96.0283	9
96.0408	9
96.0902	5
97.0008	13
98.0803	6
98.1513	6
99.0102	9
99.065	8
99.0814	6
99.2536	6
101.0139	8
101.0383	11
101.0943	6
101.174	6
102.2801	9
103.0837	6
103.1239	9
104.1067	8
104.1635	6
105.0793	10
105.1265	6
105.1376	5
106.1111	11
106.3466	12
107.0366	7
108.3259	6
109.049	12
109.1211	7
109.2383	10
112.019	6
112.2477	8
112.2847	11
112.2969	7
113.0967	11
113.1982	10
113.2266	6
113.3048	7
113.3195	9
115.0044	6
115.0734	7
116.1628	6
116.3439	11
117.0753	6
117.2778	13
117.9888	7
119.1172	8
119.3307	15
119.9849	6
120.0408	5
120.0867	11
120.1725	7
121.0741	7
121.2021	6
121.2771	10
122.0463	10
122.3038	10
122.3261	7
122.99	8
123.3117	5
123.9979	15
124.0193	6
125.1078	9
126.1397	6
126.1846	12
126.2073	6
127.2638	6
128.0218	32
128.1647	8
129.0901	6
129.2095	7
129.3231	6
131.0535	9
131.0723	7
132.2542	10
132.311	5
133.1003	5
133.1088	7
133.1954	11
134.0228	6
134.0547	7
134.1136	9
135.198	9
137.0464	6
138.1341	15
138.2264	15
139.0242	6
139.0598	7
139.0868	11
140.1546	6
140.2017	9
140.2227	6
141.005	7
141.0752	15
142.0811	9
142.1915	6
143.061	15
143.085	44
143.9924	9
144.0943	14
144.1023	8
144.1237	6
144.2175	8
145.0692	12
145.1009	186
145.2049	13
146.1042	11
146.1755	7
147.0803	22
147.1166	276
148.1191	41
149.0197	11
149.063	9
149.0953	52
149.1205	10
149.1317	167
149.9775	12
150.0094	5
150.1259	10
150.1352	47
150.186	6
150.2548	6
151.0834	6
151.1116	50
152.0501	13
152.1057	14
152.2217	11
153.0687	12
153.0898	6
153.258	7
153.9929	7
154.0356	5
154.0665	6
154.079	14
154.1098	6
154.1552	8
155.0864	62
155.1504	6
155.2365	6
155.2594	6
155.985	13
156.0064	14
156.0647	75
156.0945	22
156.1117	6
157.0284	7
157.1007	149
158.0161	16
158.0316	26
158.0809	190
158.1052	28
159.1167	508
160.0857	13
160.1202	71
160.1322	15
160.2017	9
160.3011	11
161.0949	65
161.1325	663
162.1358	99
162.1824	8
163.0037	15
163.1118	181
163.1485	147
163.2183	14
164.1017	9
164.1535	22
164.2597	8
165.0328	7
165.1269	29
165.1821	5
165.9934	11
166.0052	6
166.0356	8
166.0725	6
167.0455	6
167.1022	6
167.2729	9
168.073	9
168.2292	10
169.0024	7
169.0712	11
169.1016	51
169.1169	7
170.1078	8
171.1164	187
172.0957	40
172.1223	23
173.132	353
174.1355	56
175.111	158
175.1479	579
176.0479	6
176.1525	75
177.1272	382
178.0607	7
178.1294	61
178.2486	16
179.1312	9
179.1412	34
180.0246	10
180.2859	9
181.1043	15
181.216	5
182.012	6
182.1062	5
182.1159	7
182.1539	7
182.2817	5
183.1169	142
183.2174	20
184.0832	9
184.098	32
184.1181	32
185.1319	459
185.9903	6
186.0036	9
186.1117	21
186.1358	37
187.1117	33
187.1477	302
187.1694	17
188.0537	8
188.1512	38
189.1258	210
189.1634	148
189.9932	7
190.1307	21
190.1674	20
191.0732	8
191.1426	158
192.0988	6
192.1827	6
192.283	6
193.0999	6
193.1604	15
194.074	6
194.0905	6
194.1073	12
195.0889	6
195.1227	13
195.2971	5
196.0241	10
196.1245	30
196.1715	13
197.0565	8
197.0894	6
197.1328	122
198.0678	23
198.0783	6
198.1133	31
198.135	19
198.3141	7
199.1472	299
200.0945	6
200.1525	46
200.2236	6
200.2798	6
201.1636	672
202.1193	9
202.134	6
202.1544	13
202.1663	84
203.1427	204
203.1796	106
204.1465	47
204.1639	9
204.1868	15
205.1102	7
205.1582	83
205.2601	13
206.0192	11
206.0797	9
206.091	6
206.1128	7
206.1617	12
207.233	7
207.9873	10
208.1689	9
208.2644	7
208.9981	11
209.0387	6
209.1065	7
209.1316	31
209.2147	7
209.3139	7
210.0288	7
210.1137	35
210.1399	19
211.1483	289
212.1288	57
212.1515	69
213.164	313
213.1866	15
214.0118	5
214.0204	9
214.0404	8
214.1158	7
214.1672	67
214.2754	6
215.143	70
215.1794	563
216.0214	9
216.1344	5
216.1457	15
216.1827	60
216.2687	8
217.1584	161
217.1956	52
218.162	20
219.1764	14
220.3173	12
223.007	21
223.1497	31
224.0982	8
224.128	66
224.1532	20
224.2571	6
225.1638	185
226.0118	7
226.1431	51
226.168	65
227.1404	19
227.1789	173
228.1613	8
228.1819	47
229.0336	11
229.1587	214
229.1938	117
230.1257	6
230.1976	45
231.1733	90
231.2021	15
231.2406	10
231.9771	6
232.1804	24
233.0417	9
233.1886	6
233.2226	17
234.1481	11
236.1273	7
237.1633	26
238.0255	6
238.1462	81
238.1645	7
239.148	16
239.1796	311
240.1592	8
240.1827	88
241.1959	170
242.0194	11
242.1998	52
242.2971	6
243.1725	124
243.2105	99
243.2986	6
244.0006	11
244.0232	14
244.1793	40
244.2131	24
245.1862	22
245.2805	10
246.1418	25
246.197	14
246.3362	15
247.0824	6
247.1194	11
247.2006	8
248.2128	5
249.1696	8
250.1481	21
251.1829	23
252.1585	72
252.1827	23
253.0683	5
253.1476	8
253.1607	12
253.1944	61
253.2142	7
253.9712	11
254.2027	42
255.1094	14
255.2098	75
256.1831	8
257.1903	136
257.2179	9
258.1932	49
259.1947	14
259.2056	34
259.2759	10
260.2138	10
261.1809	8
264.158	41
264.1814	7
264.2744	10
265.053	7
265.1396	7
265.1639	7
265.195	145
266.1266	6
266.1761	21
266.1962	46
266.2417	7
266.9813	9
267.1796	6
267.204	18
268.1738	7
268.2104	8
269.1916	14
269.2268	14
270.2001	9
270.2347	6
271.0517	6
271.0757	6
271.2049	19
272.0443	6
272.2224	14
273.2219	41
274.0442	6
274.0564	11
274.1091	13
274.2246	11
276.0329	6
277.2131	14
278.1289	7
278.1764	32
279.173	9
279.2108	79
280.1877	18
280.2137	28
281.2249	30
282.0283	10
282.2029	6
282.2334	8
283.0771	5
283.1904	14
283.2059	41
283.2361	6
283.2846	5
284.2072	6
285.2228	15
286.2044	18
289.3431	6
290.1759	10
292.1896	20
292.2193	12
293.2238	46
294.2043	8
294.2291	6
295.0476	7
295.2416	39
296.0295	7
296.1965	8
296.247	17
297.2206	36
297.2572	88
298.2217	12
298.2625	34
299.2503	8
299.2612	12
299.9957	6
302.2563	9
304.1898	41
305.1924	6
305.3206	11
306.0149	10
306.2042	29
307.2139	8
307.3369	8
308.2	8
308.2232	7
311.2351	21
311.2749	37
311.3067	6
312.2454	7
313.0038	6
313.2465	11
313.2785	6
314.2063	8
314.2189	5
315.2709	6
318.2093	16
319.0532	5
319.2423	6
320.1589	7
320.2098	8
320.2226	9
320.2477	11
320.3292	6
321.2574	988
322.0298	12
322.2032	13
322.243	10
322.26	202
323.0384	5
323.2678	35
324.133	7
324.2438	8
325.1249	7
327.1792	6
329.3219	7
331.0405	13
332.2132	7
332.2295	22
333.2257	10
334.233	31
335.2475	17
335.3244	10
339.2687	999
340.0867	14
340.2706	190
341.0649	7
341.257	5
341.2723	54
342.0659	13
342.1915	7
344.2186	11
346.2422	6
348.2492	7
357.0527	10
357.2649	11
357.2807	25
358.2374	7
358.2507	6
358.2834	13
359.2161	6
361.3453	6
378.2848	10
385.3458	12
396.2914	14
397.2977	17
398.0503	6
406.2883	7
408.1605	6
413.3442	6
414.2986	170
415.3021	62
416.3087	19
436.2808	13
446.3146	8
