Mass spectrum: D-Glucose; LC-ESI-QTOF; MS2; CE: 10; R=; [M-H]-
Name: D-Glucose
Name: (3R,4S,5S,6R)-6-(hydroxymethyl)oxane-2,3,4,5-tetrol
Formula: C6H12O6
Exact mass: 180.0634
SMILES: OC[C@H]1OC(O)[C@H](O)[C@@H](O)[C@@H]1O
InChI: InChI=1S/C6H12O6/c7-1-2-3(8)4(9)5(10)6(11)12-2/h2-11H,1H2/t2-,3-,4+,5-,6?/m1/s1
Instrument: maXis plus UHR-ToF-MS, Bruker Daltonics
Instrument type: LC-ESI-QTOF
Ms type: MS2
Ion mode: NEGATIVE
Ionization: ESI
Fragmentation mode: CID
Collision energy: 10
Column name: BEH C18 1.7um, 2.1x100mm, Waters
Retention time: 0.604 min
Base peak: 179.0572
Precursor m/z: 179.0561
Precursor type: [M-H]-
m/z	relative intensity
59.0138	715
71.014	679
72.9928	77
89.0251	999
101.0234	102
