Mass spectrum: cAMP; LC-ESI-QTOF; MS2; CE: 40; R=; [M-H]-
Name: cAMP
Name: SCHEMBL1264
Name: (4aR,6S,7S,7aR)-6-(6-aminopurin-9-yl)-2-hydroxy-2-oxo-4a,6,7,7a-tetrahydro-4H-furo[3,2-d][1,3,2]dioxaphosphinin-7-ol
Formula: C10H12N5O6P
Exact mass: 329.0525
SMILES: NC1=C2N=CN([C@H]3O[C@@H]4CO[P@](O)(=O)O[C@@H]4[C@@H]3O)C2=NC=N1
InChI: InChI=1S/C10H12N5O6P/c11-8-5-9(13-2-12-8)15(3-14-5)10-6(16)7-4(20-10)1-19-22(17,18)21-7/h2-4,6-7,10,16H,1H2,(H,17,18)(H2,11,12,13)/t4-,6+,7+,10+/m1/s1
Instrument: maXis plus UHR-ToF-MS, Bruker Daltonics
Instrument type: LC-ESI-QTOF
Ms type: MS2
Ion mode: NEGATIVE
Ionization: ESI
Fragmentation mode: CID
Collision energy: 40
Column name: BEH C18 1.7um, 2.1x100mm, Waters
Retention time: 0.710 min
Base peak: 328.0482
Precursor m/z: 328.0452
Precursor type: [M-H]-
m/z	relative intensity
85.0264	7
92.0235	34
93.0457	7
107.036	149
134.0496	999
134.9874	14
135.0523	55
170.9698	7
193.0002	11
219.0986	7
249.0652	12
275.959	6
