Mass spectrum: Glycohyodeoxycholic acid; LC-ESI-QTOF; MS2; CE: 20; R=; [M+H]+
Name: Glycohyodeoxycholic acid
Name: SCHEMBL1654508
Name: 2-[4-(3,6-dihydroxy-10,13-dimethyl-2,3,4,5,6,7,8,9,11,12,14,15,16,17-tetradecahydro-1H-cyclopenta[a]phenanthren-17-yl)pentanoylamino]acetic acid
Formula: C26H43NO5
Exact mass: 449.3141
SMILES: CC(CCC(=O)NCC(=O)O)C1CCC2C1(CCC3C2CC(C4C3(CCC(C4)O)C)O)C
InChI: InChI=1S/C26H43NO5/c1-15(4-7-23(30)27-14-24(31)32)18-5-6-19-17-13-22(29)21-12-16(28)8-10-26(21,3)20(17)9-11-25(18,19)2/h15-22,28-29H,4-14H2,1-3H3,(H,27,30)(H,31,32)
Instrument: maXis plus UHR-ToF-MS, Bruker Daltonics
Instrument type: LC-ESI-QTOF
Ms type: MS2
Ion mode: POSITIVE
Ionization: ESI
Fragmentation mode: CID
Collision energy: 20
Column name: BEH C18 1.7um, 2.1x100mm, Waters
Retention time: 4.231 min
Base peak: 450.3212
Precursor m/z: 450.3214
Precursor type: [M+H]+
m/z	relative intensity
147.1172	2
149.133	2
158.0811	5
159.1165	1
161.1321	8
162.1326	1
163.1478	1
175.148	6
177.1265	1
185.1342	1
187.1488	1
189.1646	3
199.1485	1
201.1635	9
202.1674	1
203.1425	1
203.1799	3
211.1469	1
215.1785	6
217.1571	1
224.1271	1
226.1436	5
229.158	2
229.1937	3
236.1306	1
238.1429	5
239.1466	1
240.1587	1
243.2104	3
250.1442	2
252.1593	6
257.1916	1
264.1589	3
266.1757	2
267.1817	1
278.1749	6
279.1779	1
280.1902	2
292.1897	3
297.2557	1
304.1912	3
318.2062	2
319.2098	1
321.2577	22
322.2617	6
332.2231	5
333.2247	1
334.2379	7
335.2427	1
339.2682	106
340.2717	18
348.2511	1
357.2782	4
372.2555	1
396.2889	2
397.2909	1
414.3003	999
415.3035	307
416.306	29
417.308	3
432.3106	155
433.3139	43
434.3158	2
450.3206	1
