Mass spectrum: Phenanzine-1-carboxylic acid; LC-ESI-QTOF; MS2; CE: 40; R=; [M+H]+
Name: Phenanzine-1-carboxylic acid
Name: phenazine-1-carboxylic acid
Formula: C13H8N2O2
Exact mass: 224.05858
SMILES: c1ccc2c(c1)nc3cccc(c3n2)C(=O)O
InChI: InChI=1S/C13H8N2O2/c16-13(17)8-4-3-7-11-12(8)15-10-6-2-1-5-9(10)14-11/h1-7H,(H,16,17)
Instrument: maXis plus UHR-ToF-MS, Bruker Daltonics
Instrument type: LC-ESI-QTOF
Ms type: MS2
Ion mode: POSITIVE
Ionization: ESI
Fragmentation mode: CID
Collision energy: 40
Column name: BEH C18 1.7um, 2.1x100mm, Waters
Retention time: 4.344 min
Base peak: 79.0203
Precursor m/z: 225.0659
Precursor type: [M+H]+
m/z	relative intensity
51.0225	1
76.0186	1
77.0381	6
78.0334	4
95.0489	3
102.033	4
103.0181	1
105.0451	1
120.0438	2
125.0379	4
128.0492	10
129.0435	2
130.04	4
131.045	1
146.0598	2
151.0416	2
152.0491	168
153.0446	91
154.0476	6
170.0599	28
171.0553	34
172.0587	2
178.0527	4
179.0599	999
180.0632	140
181.0731	7
197.0705	53
207.0553	13
208.0591	2
225.0655	11
