Mass spectrum: osas#9; LC-ESI-QTOF; MS2; CE: 40; R=; [M-H]-
Name: osas#9
Formula: C23H33NO10
Exact mass: 483.2104
SMILES: CC(CCC(O)=O)O[C@@H]1OC(C)[C@@H](CC1O)OC(=O)CCC(=O)NC[C@H](O)C1=CC=C(O)C=C1
InChI: InChI=1S/C23H33NO10/c1-13(3-9-21(29)30)32-23-17(26)11-19(14(2)33-23)34-22(31)10-8-20(28)24-12-18(27)15-4-6-16(25)7-5-15/h4-7,13-14,17-19,23,25-27H,3,8-12H2,1-2H3,(H,24,28)(H,29,30)/t13?,14?,17?,18-,19+,23+/m0/s1
Instrument: maXis plus UHR-ToF-MS, Bruker Daltonics
Instrument type: LC-ESI-QTOF
Ms type: MS2
Ion mode: NEGATIVE
Ionization: ESI
Fragmentation mode: CID
Collision energy: 40
Column name: BEH C18 1.7um, 2.1x100mm, Waters
Retention time: 3.104 min
Base peak: 482.1986
Precursor m/z: 482.2032
Precursor type: [M-H]-
m/z	relative intensity
87.0245	28
93.0308	53
98.0228	151
99.0085	80
99.0459	86
111.0448	34
140.035	23
170.0632	25
172.0456	56
190.0909	43
190.2037	38
198.0606	22
216.0714	999
217.0734	65
234.0823	101
247.1245	132
248.1304	31
267.1146	23
403.1878	23
432.1513	29
