Mass spectrum: 3-hydroxy-C10-homoserine lactone; LC-ESI-QTOF; MS2; CE: 20; R=; [M-H]-
Name: 3-hydroxy-C10-homoserine lactone
Name: 3-hydroxy-N-(2-oxooxolan-3-yl)decanamide
Formula: C14H25NO4
Exact mass: 271.1784
SMILES: CCCCCCCC(O)CC(=O)NC1CCOC1=O
InChI: InChI=1S/C14H25NO4/c1-2-3-4-5-6-7-11(16)10-13(17)15-12-8-9-19-14(12)18/h11-12,16H,2-10H2,1H3,(H,15,17)
Instrument: maXis plus UHR-ToF-MS, Bruker Daltonics
Instrument type: LC-ESI-QTOF
Ms type: MS2
Ion mode: NEGATIVE
Ionization: ESI
Fragmentation mode: CID
Collision energy: 20
Column name: BEH C18 1.7um, 2.1x100mm, Waters
Retention time: 4.381 min
Base peak: 270.1711
Precursor m/z: 270.1711
Precursor type: [M-H]-
m/z	relative intensity
57.0346	9
68.051	26
69.0349	10
71.0504	10
84.0458	324
85.0501	13
98.0617	21
99.0653	4
112.0407	999
113.044	44
114.048	6
124.0402	6
142.0516	329
143.0552	32
205.1244	5
