Mass spectrum: Taurodeoxycholate; LC-ESI-QTOF; MS2; CE: 40; R=; [M+H]+
Name: Taurodeoxycholate
Name: 2-[[(4R)-4-[(3R,5R,8R,9S,10S,12S,13R,14S,17R)-3,12-dihydroxy-10,13-dimethyl-2,3,4,5,6,7,8,9,11,12,14,15,16,17-tetradecahydro-1H-cyclopenta[a]phenanthren-17-yl]pentanoyl]amino]ethanesulfonic acid
Formula: C26H45NO6S
Exact mass: 499.2968
SMILES: C[C@H](CC/C(=N/CCS(=O)(=O)O)/O)[C@H]1CC[C@@H]2[C@@]1([C@H](C[C@H]3[C@H]2CC[C@H]4[C@@]3(CC[C@H](C4)O)C)O)C
InChI: InChI=1S/C26H45NO6S/c1-16(4-9-24(30)27-12-13-34(31,32)33)20-7-8-21-19-6-5-17-14-18(28)10-11-25(17,2)22(19)15-23(29)26(20,21)3/h16-23,28-29H,4-15H2,1-3H3,(H,27,30)(H,31,32,33)/t16-,17-,18-,19+,20-,21+,22+,23+,25+,26-/m1/s1
Instrument: maXis plus UHR-ToF-MS, Bruker Daltonics
Instrument type: LC-ESI-QTOF
Ms type: MS2
Ion mode: POSITIVE
Ionization: ESI
Fragmentation mode: CID
Collision energy: 40
Column name: BEH C18 1.7um, 2.1x100mm, Waters
Retention time: 4.401 min
Base peak: 500.3041
Precursor m/z: 500.304
Precursor type: [M+H]+
m/z	relative intensity
45.0086	3
46.029	8
53.0136	3
55.0411	3
58.0778	3
59.3305	3
60.1912	6
62.0359	3
62.2846	4
66.0493	3
67.0536	89
67.2632	4
68.1071	7
68.159	5
69.1634	7
69.2783	4
70.138	4
70.1595	3
72.0078	6
73.1623	4
75.0897	3
75.9787	12
77.32	10
78.021	5
78.0333	4
79.0543	51
79.1477	3
80.0134	3
81.0697	249
82.073	10
82.2522	4
83.0488	17
83.0851	93
84.0354	3
85.0645	57
85.2791	7
87.0658	5
88.0388	5
88.2974	4
89.0603	4
89.9641	3
90.0101	3
90.0887	6
91.0374	5
91.0539	31
91.0628	13
91.1234	6
93.0697	87
94.0769	7
94.2171	5
94.9675	7
95.0853	130
95.1436	8
96.0524	4
96.0553	4
96.1598	3
96.1878	3
96.3377	3
97.0645	23
97.198	4
98.0442	5
98.2606	4
99.0811	11
99.1059	3
99.2962	4
101.0716	3
101.1111	4
101.1194	6
101.1356	4
102.1318	3
103.1603	3
103.2291	3
104.0491	5
104.1764	3
104.3099	3
105.0704	36
105.1635	4
105.208	6
105.338	3
105.9901	4
106.0137	6
106.0738	10
107.0852	135
107.9848	5
108.0109	22
108.0469	5
108.0885	15
109.1007	98
109.9959	3
110.1024	21
110.9875	6
111.0422	3
111.0794	10
112.0063	5
112.2297	4
112.9531	5
113.0132	3
113.0427	8
113.062	3
113.1068	3
113.9611	3
114.1142	5
114.1463	3
115.1	4
115.1941	5
115.2062	4
115.263	4
115.2862	5
115.3451	5
115.9849	5
117.0097	5
117.0369	7
117.0703	12
117.1139	4
117.2635	3
117.9962	3
118.1725	3
118.2694	6
118.2858	3
119.0852	46
119.1093	3
120.0715	4
120.1352	5
120.2923	4
120.3298	7
121.1004	44
121.1563	4
121.3091	6
122.103	15
122.2088	4
122.2269	3
123.0793	13
123.0896	4
123.1053	3
123.1165	19
123.1363	5
123.2152	4
124.0738	3
124.2308	4
125.0859	4
125.0951	29
126.022	306
126.9691	5
127.0248	17
127.266	4
128.0185	20
128.0425	9
129.0759	6
129.9879	4
130.0073	9
130.3306	4
130.9957	3
131.0106	3
131.0383	3
131.0879	6
131.2746	5
132.0185	3
132.0357	5
132.0808	3
132.1569	3
132.3115	3
132.3221	3
132.9598	3
133.0096	3
133.0274	3
133.0674	3
133.101	45
133.1716	4
133.1889	7
133.2376	3
133.2939	6
133.3324	5
134.0367	3
134.2654	5
135.0814	7
135.1165	25
135.2127	3
135.3091	4
135.3265	5
136.0861	6
136.1239	3
136.1843	9
136.2028	4
136.3123	5
137.0941	5
138.0693	4
138.3359	5
140.1206	5
140.9721	8
141.1146	5
141.198	4
142.119	4
142.2213	3
142.2957	5
143.085	15
143.1571	5
143.2423	4
143.9756	5
144.0945	9
145.1014	42
145.1299	4
145.242	4
145.3453	15
146.039	10
146.0968	3
146.1086	3
146.9758	5
147.0775	5
147.1168	80
148.0322	3
148.1202	17
148.1712	7
148.3577	4
149.0374	4
149.0969	26
149.1325	77
149.2906	4
149.9634	4
149.9977	12
150.0091	3
150.1003	4
150.1092	5
150.1335	22
150.3301	4
151.022	3
151.1138	14
151.1802	4
151.2046	5
151.2535	3
152.0618	3
152.1148	5
152.1272	8
152.2201	3
152.2499	3
152.9501	3
153.0908	4
153.1136	4
153.1228	6
153.2478	3
154.0759	4
154.1095	4
154.1364	5
154.2582	5
155.0852	25
155.2827	3
156.2383	3
156.2923	3
156.3021	3
157.1021	31
157.1428	4
157.2818	4
158.0602	9
158.1127	7
158.2007	3
158.2102	4
158.3004	5
159.1165	109
160.0719	6
160.1203	11
160.1477	5
161.0969	12
161.1322	177
162.0917	4
162.1066	3
162.1348	16
162.1684	7
162.1882	3
162.2922	4
162.9727	3
162.9862	4
163.1122	39
163.1481	57
163.2927	3
163.3366	3
163.9936	4
164.1151	7
164.9645	8
165.0429	4
165.0638	5
165.1276	3
165.1619	4
165.2131	3
166.0013	5
166.171	5
166.3473	3
166.3587	3
166.9925	4
167.1735	4
167.2411	4
168.0259	3
168.0559	3
168.1336	8
168.1762	3
169.0546	5
169.1017	18
170.1217	4
170.1311	5
170.1507	11
170.2134	4
170.268	3
170.9937	7
171.1161	31
171.1787	3
171.2416	4
172.1377	3
172.1821	4
172.9941	3
173.0957	11
173.1331	71
173.9613	4
174.1145	5
174.1339	9
175.1103	43
175.1483	90
176.1154	4
176.149	9
176.1576	7
176.1839	3
176.2573	7
177.0575	6
177.1073	4
177.1274	63
177.1487	5
177.1625	20
177.3395	5
177.3508	3
177.9801	3
178.059	3
178.1308	11
178.1705	12
178.3136	3
179.0634	3
179.1066	4
179.139	4
179.2935	7
180.0323	18
180.216	4
180.3383	5
181.0988	7
181.2146	7
181.2983	9
182.078	5
182.1867	8
182.2515	4
183.0173	3
183.1147	9
183.9707	3
183.9921	3
184.0553	3
184.0633	4
184.0833	3
184.1216	6
184.177	3
184.2505	3
185.0019	4
185.0521	4
185.1322	44
186.0318	3
186.136	8
186.1833	5
187.1101	7
187.1486	112
187.2173	5
187.2493	6
187.9716	5
188.0795	3
188.1504	13
189.0489	4
189.1275	62
189.1646	88
189.9731	5
189.9919	4
190.0124	5
190.0873	7
190.1306	8
190.1707	23
190.2236	4
191.0281	4
191.1094	4
191.1414	48
191.1836	7
191.9661	5
192.0195	6
192.0587	5
192.1511	10
192.2115	3
192.2642	4
192.3395	5
192.9845	4
193.0475	5
193.1542	4
193.2008	3
193.2587	3
194.0481	13
194.2338	5
194.3033	5
195.0089	3
195.1634	4
195.2926	6
195.9819	3
196.1258	19
196.2164	3
196.9691	8
197.133	30
197.1538	7
197.2136	3
198.0117	3
198.0255	3
198.0365	3
198.0669	6
198.1377	6
198.2017	6
199.0229	3
199.0778	5
199.1481	47
199.2197	3
199.9679	3
200.0662	3
200.0819	3
200.137	4
200.1504	20
200.2614	4
201.1636	181
202.0398	5
202.0671	4
202.1673	35
202.2738	3
203.0994	7
203.1436	139
203.181	73
203.9974	5
204.111	4
204.1261	4
204.1457	18
204.1854	22
205.037	3
205.1582	31
205.1808	4
205.1935	6
205.2517	4
206.0133	5
206.0477	12
206.2276	3
206.9871	3
207.0114	7
207.0817	5
207.2565	3
208.0634	348
208.9784	3
209.0688	27
209.1333	12
209.1881	5
209.3048	3
210.0448	5
210.06	18
210.1012	3
210.1412	6
210.1899	6
211.1479	281
212.0698	5
212.0968	7
212.1512	31
213.0262	4
213.1632	92
213.2837	10
213.9831	3
214.1656	28
215.1428	28
215.1791	559
216.1458	6
216.1822	74
216.9852	5
217.0517	8
217.1104	7
217.1359	6
217.1589	89
217.1955	56
217.209	10
217.998	5
218.0667	3
218.0806	6
218.1208	4
218.161	13
218.1854	5
218.1994	10
218.229	3
218.9577	3
219.0387	4
219.1351	3
219.1591	4
219.1765	7
219.2813	3
220.0642	4
220.1621	3
220.1794	7
221.9785	4
222.0809	53
222.2903	4
223.0858	9
223.1382	4
223.1498	3
224.0797	10
224.3346	3
225.164	147
226.1459	7
226.1669	26
226.9919	4
227.1076	6
227.1402	5
227.1796	79
227.2942	4
228.1824	15
229.1585	314
229.1945	234
229.9953	5
230.1609	39
230.199	36
230.2593	3
230.3286	5
231.1742	103
231.9567	7
232.0091	3
232.0246	3
232.0565	5
232.1768	15
232.1921	3
233.1808	6
233.1922	8
233.9821	5
234.0785	57
234.1921	3
235.0835	5
236.0058	4
236.0744	6
236.094	15
236.1622	5
237.0946	5
237.1663	7
237.3504	4
238.2118	3
239.1801	108
239.9339	3
240.1827	15
240.3282	5
240.9763	3
241.1957	42
242.2017	17
243.1743	135
243.2109	150
244.1791	24
244.2142	33
245.1002	3
245.1914	44
246.0795	11
246.194	10
247.0789	4
247.1748	3
247.2171	4
247.3422	3
248.0112	3
248.0317	3
248.0949	35
248.114	9
248.1457	5
248.2308	4
248.31	3
248.3314	3
249.0997	9
250.1129	24
250.1324	3
250.1462	3
250.2408	3
251.1818	17
252.1948	7
253.0799	5
253.1957	14
254.0904	6
254.1973	3
254.2172	3
255.1723	6
255.1957	4
255.2158	5
256.0381	4
256.2197	3
257.1897	155
257.2133	7
257.2264	18
258.0331	3
258.1937	31
259.0308	11
259.0678	5
259.1916	9
259.203	5
260.0963	36
260.2064	3
261.0926	9
261.1065	8
261.1279	3
261.1447	3
261.1822	3
261.2037	6
261.2835	5
261.986	4
262.1106	72
263.0604	5
263.1151	5
263.1589	3
263.2362	5
264.1454	6
265.0807	5
265.138	4
265.1667	5
265.1949	40
265.9807	3
266.1972	9
266.2784	3
266.9994	4
267.1162	3
267.2075	8
267.2288	3
268.9615	4
269.1894	6
269.2266	12
271.2087	9
271.267	3
273.1124	5
273.2189	3
274.1099	73
274.23	7
274.3204	6
275.1135	6
275.2968	4
276.0899	9
276.1275	17
277.1304	3
277.3431	3
278.083	8
278.1377	6
279.0825	6
279.1749	8
279.2127	45
280.0295	3
280.2131	6
281.227	9
281.2738	3
282.0477	5
282.2315	4
283.0192	3
283.0766	4
283.1069	3
283.1319	3
283.2037	33
283.2426	8
283.9397	3
284.048	3
284.212	4
285.2102	4
285.2586	16
286.109	5
286.1226	3
287.2224	5
287.2721	3
288.1256	44
288.19	3
288.9929	3
289.1271	10
290.0605	3
290.1265	8
290.1424	27
290.2314	3
291.9988	3
292.9735	3
292.9901	4
293.228	9
294.2227	4
294.3301	3
295.2409	29
295.9719	3
296.2445	9
296.3121	7
297.129	6
297.2223	112
297.2572	92
297.9887	3
298.1081	3
298.2097	3
298.2247	17
298.2588	12
299.2671	6
299.974	4
300.1252	36
301.0953	5
301.1262	8
301.97	6
302.1426	119
303.1452	15
304.1558	12
304.2995	6
305.0614	3
306.1268	3
307.0306	7
307.2739	3
307.2886	5
309.0363	4
310.1476	5
311.1834	5
311.2282	4
311.2388	5
311.2748	37
311.992	6
312.1006	7
312.1167	12
312.1631	3
312.2401	4
312.2805	6
313.2903	5
313.3492	6
313.9378	6
313.9827	5
314.097	4
314.1434	46
314.2859	3
315.3361	3
316.1595	43
316.33	4
317.1583	14
318.0058	4
318.1637	5
319.1849	5
319.2521	5
320.0179	4
321.2582	692
322.2619	130
322.9907	5
323.195	7
323.2692	16
324.1614	8
324.2241	3
325.2523	3
325.2994	6
325.9994	9
326.0972	4
327.1582	3
327.968	7
328.1589	79
328.3118	4
328.9498	3
329.1617	4
329.2242	3
330.1549	6
330.1745	42
331.0833	7
332.153	5
338.1841	6
339.2685	999
340.2728	253
341.1334	4
341.1601	3
341.2737	27
341.9952	7
342.1736	77
342.2759	3
343.1049	3
343.1256	4
343.1776	17
343.3189	3
344.0528	3
344.1641	5
344.1887	11
344.2933	3
344.3301	6
345.1956	3
346.2003	3
348.0047	3
348.3042	6
349.0708	3
351.1195	4
351.9599	3
353.1662	3
354.1738	128
355.177	26
356.1885	87
357.1944	17
357.2687	4
357.2783	4
357.3458	3
358.1858	4
358.2053	10
359.2125	5
359.3375	3
360.1414	4
361.0711	6
361.2084	6
363.145	6
365.1933	4
367.0519	4
368.1902	60
368.2621	5
369.0013	4
369.0391	4
369.1923	12
370.2044	40
371.1822	3
371.1984	7
371.244	3
372.2098	3
374.1379	6
375.206	7
382.1798	3
382.2052	78
382.2973	5
383.2037	15
383.2563	3
384.2037	7
384.224	9
384.2676	3
386.2055	3
386.2243	4
386.9474	5
393.973	3
394.2044	9
396.2263	3
399.2589	4
399.9476	3
408.216	4
408.3505	3
412.2867	3
417.9968	3
422.2371	5
427.2549	6
430.2839	6
432.2305	3
434.1687	3
437.2535	5
439.1033	4
446.2725	15
447.2771	10
451.175	3
453.2214	5
455.9745	4
456.1276	6
456.3364	3
459.1526	8
460.1173	3
460.2116	5
462.2541	4
463.2231	7
463.2528	3
464.2835	737
464.3122	46
465.2861	230
466.0158	3
466.1219	4
466.1961	3
466.2858	45
467.2856	9
467.9746	4
468.2557	4
468.2876	4
469.0021	3
471.1137	3
472.2952	18
478.2512	3
