Mass spectrum: 5?-CHOLANIC ACID-3?_ 6?_7?-TRIOL; LC-ESI-QTOF; MS2; CE: 20; R=; [M+H]+
Name: 5?-CHOLANIC ACID-3?_ 6?_7?-TRIOL
Name: Hyocholic acid
Name: (4R)-4-[(3R,5R,6R,7S,8S,9S,10R,13R,14S,17R)-3,6,7-trihydroxy-10,13-dimethyl-2,3,4,5,6,7,8,9,11,12,14,15,16,17-tetradecahydro-1H-cyclopenta[a]phenanthren-17-yl]pentanoic acid
Formula: C24H40O5
Exact mass: 408.2876
SMILES: C[C@H](CCC(=O)O)[C@H]1CC[C@@H]2[C@@]1(CC[C@H]3[C@H]2[C@@H]([C@@H]([C@H]4[C@@]3(CC[C@H](C4)O)C)O)O)C
InChI: InChI=1S/C24H40O5/c1-13(4-7-19(26)27)15-5-6-16-20-17(9-11-23(15,16)2)24(3)10-8-14(25)12-18(24)21(28)22(20)29/h13-18,20-22,25,28-29H,4-12H2,1-3H3,(H,26,27)/t13-,14-,15-,16+,17+,18+,20+,21-,22+,23-,24-/m1/s1
Instrument: maXis plus UHR-ToF-MS, Bruker Daltonics
Instrument type: LC-ESI-QTOF
Ms type: MS2
Ion mode: POSITIVE
Ionization: ESI
Fragmentation mode: CID
Collision energy: 20
Column name: BEH C18 1.7um, 2.1x100mm, Waters
Retention time: 4.512 min
Base peak: 817.5828
Precursor m/z: 409.2949
Precursor type: [M+H]+
m/z	relative intensity
81.0695	7
83.0854	1
93.0693	1
95.085	4
99.0436	1
101.0599	4
105.0699	3
107.085	2
109.101	3
110.1053	1
119.086	1
121.1012	2
133.1008	1
135.118	3
145.1006	2
146.1062	1
147.1169	5
149.1321	2
159.1167	28
160.1205	2
161.1326	11
162.1376	2
163.148	1
165.1283	2
167.1053	1
171.1174	1
173.132	5
174.1379	1
175.1483	2
177.129	1
181.1218	4
185.1325	2
187.113	1
187.1475	2
191.1428	1
193.1221	4
194.1258	1
195.1387	3
199.1474	5
201.1636	1
203.1407	1
205.1229	2
207.1382	5
208.1415	1
209.1333	1
209.1528	1
211.1479	1
213.1629	4
215.1805	2
219.1398	2
221.1529	4
223.1474	2
225.1658	1
227.1437	2
227.1789	2
228.1493	1
233.1537	1
235.1697	3
237.1635	1
241.1952	5
245.1535	5
247.1713	3
249.184	1
254.2035	1
255.2098	4
259.169	1
261.1837	1
273.1851	4
275.2005	1
295.2419	4
296.2449	1
299.199	1
309.2215	1
309.2589	5
310.2615	1
312.0282	1
313.217	1
319.2424	24
320.2455	3
325.254	1
327.2681	3
337.253	136
338.2563	25
339.2591	2
343.2631	10
344.2683	1
345.2803	5
346.28	1
355.2638	999
356.2672	301
358.2734	2
373.2741	438
374.2774	124
375.2804	8
391.2851	17
392.2886	4
