Mass spectrum: Heptadecanoyl Ethanolamide; LC-ESI-QTOF; MS2; CE: 20; R=; [M+H]+
Name: Heptadecanoyl Ethanolamide
Name: Margaroyl-ethanolamine
Name: N-(2-hydroxyethyl)heptadecanamide
Formula: C19H39NO2
Exact mass: 313.29808
SMILES: CCCCCCCCCCCCCCCCC(=O)NCCO
InChI: InChI=1S/C19H39NO2/c1-2-3-4-5-6-7-8-9-10-11-12-13-14-15-16-19(22)20-17-18-21/h21H,2-18H2,1H3,(H,20,22)
Instrument: maXis plus UHR-ToF-MS, Bruker Daltonics
Instrument type: LC-ESI-QTOF
Ms type: MS2
Ion mode: POSITIVE
Ionization: ESI
Fragmentation mode: CID
Collision energy: 20
Column name: BEH C18 1.7um, 2.1x100mm, Waters
Retention time: 6.999 min
Base peak: 88.0749
Precursor m/z: 314.3054
Precursor type: [M+H]+
m/z	relative intensity
51.1744	1
51.1984	1
55.0538	5
59.1071	2
59.9951	1
61.1947	1
67.0538	33
69.0695	28
71.0851	232
74.0733	1
81.0696	72
82.0732	4
83.0856	73
85.101	109
95.0852	95
97.1009	43
98.0466	3
99.0797	1
99.1167	16
107.0823	1
109.1009	38
111.1163	3
113.0917	2
113.1326	1
115.9902	1
117.222	1
118.1357	1
123.1164	11
123.1986	1
125.0926	1
125.1325	2
127.1481	2
130.1178	1
131.0697	1
132.1019	2
135.1386	1
138.14	1
138.1972	1
142.1222	1
143.014	1
145.1561	1
147.149	1
150.2929	1
151.099	1
151.1469	1
152.1323	1
155.1309	1
158.21	1
161.152	1
164.0592	1
165.1631	1
167.0587	1
169.1956	1
173.0914	1
173.1768	1
179.1778	1
179.2815	1
180.0391	1
181.2165	1
183.1259	1
183.2095	1
183.3032	1
184.0765	1
184.0854	1
186.2809	1
188.0105	1
189.1473	1
191.2371	1
192.0916	1
196.1573	1
196.2016	1
197.1895	1
198.1823	1
199.3007	1
205.0958	1
206.0162	1
206.3051	1
209.2029	1
211.0547	2
211.2489	1
213.1707	1
214.2855	1
216.0014	1
217.0713	1
217.2017	1
218.062	1
223.2067	1
225.0162	1
226.1458	1
226.2744	1
227.2357	1
229.2055	1
230.0945	2
233.2249	1
235.1129	1
235.2421	7
236.0449	1
236.2477	3
238.1227	1
242.1778	1
244.1698	2
244.2875	1
250.2387	3
251.2545	1
252.0554	1
252.2647	1
253.2529	44
255.2559	1
260.2823	1
262.3004	1
263.0245	1
270.1387	1
270.199	1
283.1331	1
284.201	1
285.0922	1
294.287	1
295.0008	1
296.2944	236
297.2784	999
298.2823	190
299.0428	1
300.1809	1
300.2879	5
306.122	1
310.2626	1
311.0352	1
311.2206	1
311.2555	1
314.3051	915
