Mass spectrum: Leu-Gly-Gly; LC-ESI-QTOF; MS2; CE: 10; R=; [M+H]+
Name: Leu-Gly-Gly
Name: 2-[[2-[[(2S)-2-azaniumyl-4-methylpentanoyl]amino]acetyl]amino]acetate
Formula: C10H19N3O4
Exact mass: 245.1376
SMILES: CC(C)C[C@H](N)C(=O)NCC(=O)NCC(O)=O
InChI: InChI=1S/C10H19N3O4/c1-6(2)3-7(11)10(17)13-4-8(14)12-5-9(15)16/h6-7H,3-5,11H2,1-2H3,(H,12,14)(H,13,17)(H,15,16)/t7-/m0/s1
Instrument: maXis plus UHR-ToF-MS, Bruker Daltonics
Instrument type: LC-ESI-QTOF
Ms type: MS2
Ion mode: POSITIVE
Ionization: ESI
Fragmentation mode: CID
Collision energy: 10
Column name: BEH C18 1.7um, 2.1x100mm, Waters
Retention time: 0.806 min
Base peak: 246.1445
Precursor m/z: 246.1448
Precursor type: [M+H]+
m/z	relative intensity
46.1351	1
50.0362	1
52.0626	1
61.0756	2
63.0549	1
67.0169	1
70.0045	1
70.146	2
73.0033	3
76.0185	1
76.04	2
77.0836	1
80.0924	1
81.0784	2
81.0916	1
82.1351	1
85.065	1
86.0961	581
87.0295	1
87.0427	1
87.0995	32
94.0846	1
97.1207	1
99.0558	1
99.0917	1
101.14	1
103.0272	1
105.126	2
112.0525	1
114.1352	1
117.0084	1
117.1018	1
118.0248	2
119.0729	1
120.0996	3
121.157	2
123.0265	3
124.1407	1
126.0288	1
126.1345	1
128.022	1
128.0631	1
128.1043	1
128.9813	1
130.1318	2
130.142	1
132.0604	1
132.1464	1
133.0615	3
133.088	2
133.9864	2
134.0323	2
134.9939	1
139.022	1
139.145	1
140.0246	1
142.0657	2
143.0083	1
143.1144	2
144.0152	1
144.0897	2
145.0982	1
148.014	1
148.0616	1
149.0102	1
149.117	1
155.0298	2
155.0779	1
157.0566	1
157.0832	1
157.1561	1
158.0374	1
160.0111	1
160.0955	2
161.0578	1
162.0186	1
163.0019	1
163.0728	1
164.0558	1
165.0546	1
166.0686	2
168.1124	1
171.1124	386
172.1166	24
172.1417	1
173.1174	2
175.1214	1
175.1544	1
176.0346	1
178.0455	1
178.1439	2
180.1337	1
184.0217	1
190.0491	1
193.1384	1
198.1181	1
200.1615	1
201.1234	25
208.0251	1
208.0957	3
211.0319	2
211.1068	2
215.0096	2
218.1474	12
223.0369	1
228.1327	6
230.1137	1
240.0977	1
246.1449	999
248.1501	7
