Mass spectrum: 3-oxo-C14 homoserine lactone; LC-ESI-QTOF; MS2; CE: 40; R=; [M+H]+
Name: 3-oxo-C14 homoserine lactone
Name: N-(3-Oxotetradecanoyl)-DL-homoserine lactone
Name: 3-oxo-N-(2-oxooxolan-3-yl)tetradecanamide
Formula: C18H31NO4
Exact mass: 325.22531
SMILES: CCCCCCCCCCCC(=O)CC(=O)NC1CCOC1=O
InChI: InChI=1S/C18H31NO4/c1-2-3-4-5-6-7-8-9-10-11-15(20)14-17(21)19-16-12-13-23-18(16)22/h16H,2-14H2,1H3,(H,19,21)
Instrument: maXis plus UHR-ToF-MS, Bruker Daltonics
Instrument type: LC-ESI-QTOF
Ms type: MS2
Ion mode: POSITIVE
Ionization: ESI
Fragmentation mode: CID
Collision energy: 40
Column name: BEH C18 1.7um, 2.1x100mm, Waters
Retention time: 5.928 min
Base peak: 326.2322
Precursor m/z: 326.2326
Precursor type: [M+H]+
m/z	relative intensity
47.0237	2
50.0151	1
51.1743	2
52.0754	2
54.1282	3
65.038	8
65.1775	1
68.9965	37
70.0979	1
71.012	280
71.0848	395
73.0644	1
74.023	356
74.0593	999
75.0913	1
77.0261	4
79.0536	13
81.0331	21
83.0486	12
83.0851	74
84.0438	152
85.0279	38
85.0649	9
85.1006	110
87.0446	1
91.0536	2
93.0702	6
93.0994	1
95.0852	155
96.0535	1
96.0895	6
97.064	4
97.1012	14
98.0594	23
99.0436	11
99.0785	2
99.1173	4
102.0547	261
105.0662	2
109.0644	1
109.1007	33
110.1058	5
113.0582	10
123.1125	2
127.0745	4
139.1131	2
141.0884	4
155.1075	2
156.1118	1
161.2273	1
162.1004	3
163.1439	3
165.1919	1
167.0141	1
169.1218	1
177.0314	1
182.0481	1
183.1391	1
183.1748	8
186.2216	9
225.1838	152
226.1884	25
243.1945	1
