Mass spectrum: Heptadecanoyl Ethanolamide; LC-ESI-QTOF; MS2; CE: 40; R=; [M+H]+
Name: Heptadecanoyl Ethanolamide
Name: Margaroyl-ethanolamine
Name: N-(2-hydroxyethyl)heptadecanamide
Formula: C19H39NO2
Exact mass: 313.29808
SMILES: CCCCCCCCCCCCCCCCC(=O)NCCO
InChI: InChI=1S/C19H39NO2/c1-2-3-4-5-6-7-8-9-10-11-12-13-14-15-16-19(22)20-17-18-21/h21H,2-18H2,1H3,(H,20,22)
Instrument: maXis plus UHR-ToF-MS, Bruker Daltonics
Instrument type: LC-ESI-QTOF
Ms type: MS2
Ion mode: POSITIVE
Ionization: ESI
Fragmentation mode: CID
Collision energy: 40
Column name: BEH C18 1.7um, 2.1x100mm, Waters
Retention time: 6.999 min
Base peak: 88.0749
Precursor m/z: 314.3054
Precursor type: [M+H]+
m/z	relative intensity
57.0694	191
62.0595	999
64.0629	2
65.0579	1
67.0537	110
69.0693	38
71.0851	200
73.0273	5
79.0542	6
81.0696	52
83.0855	18
85.101	47
93.0694	1
95.0854	34
97.101	3
109.1019	6
110.1081	1
296.295	22
297.2793	5
297.2959	7
