Mass spectrum: D-Sorbitol; LC-ESI-QTOF; MS2; CE: 40; R=; [M+H]+
Name: D-Sorbitol
Name: Sorbo
Name: (3S,4S,5R)-hexane-1,2,3,4,5,6-hexol
Formula: C6H14O6
Exact mass: 182.07904
SMILES: OC([C@H](O)[C@@H](O)[C@H](O)CO)CO
InChI: InChI=1S/C6H14O6/c7-1-3(9)5(11)6(12)4(10)2-8/h3-12H,1-2H2/t3-,4?,5+,6+/m1/s1
Instrument: maXis plus UHR-ToF-MS, Bruker Daltonics
Instrument type: LC-ESI-QTOF
Ms type: MS2
Ion mode: POSITIVE
Ionization: ESI
Fragmentation mode: CID
Collision energy: 40
Column name: BEH C18 1.7um, 2.1x100mm, Waters
Retention time: 0.602 min
Base peak: 183.0867
Precursor m/z: 183.0863
Precursor type: [M+H]+
m/z	relative intensity
59.049	7
61.0281	112
63.0811	8
65.0468	15
69.0328	999
71.0123	14
71.0335	7
74.0569	7
81.0333	28
81.042	10
82.0369	20
83.0483	107
85.0289	47
99.0438	17
