Mass spectrum: Riboflavin; LC-ESI-QTOF; MS2; CE: 20; R=; [M+H]+
Name: Riboflavin
Name: 7,8-dimethyl-10-[(2S,3S,4R)-2,3,4,5-tetrahydroxypentyl]benzo[g]pteridine-2,4-dione
Formula: C17H20N4O6
Exact mass: 376.1383
SMILES: Cc1cc2nc3c(nc(=O)[nH]c3=O)n(C[C@H](O)[C@H](O)[C@H](O)CO)c2cc1C
InChI: InChI=1S/C17H20N4O6/c1-7-3-9-10(4-8(7)2)21(5-11(23)14(25)12(24)6-22)15-13(18-9)16(26)20-17(27)19-15/h3-4,11-12,14,22-25H,5-6H2,1-2H3,(H,20,26,27)/t11-,12+,14-/m0/s1
Instrument: maXis plus UHR-ToF-MS, Bruker Daltonics
Instrument type: LC-ESI-QTOF
Ms type: MS2
Ion mode: POSITIVE
Ionization: ESI
Fragmentation mode: CID
Collision energy: 20
Column name: BEH C18 1.7um, 2.1x100mm, Waters
Retention time: 2.751 min
Base peak: 377.1457
Precursor m/z: 377.1456
Precursor type: [M+H]+
m/z	relative intensity
57.0327	1
69.0329	7
71.0118	2
71.0484	2
73.0283	1
75.0442	2
81.0331	3
99.0441	5
117.0544	1
172.0856	1
243.0875	175
244.0906	14
359.1353	18
360.1356	1
377.1457	999
379.1514	22
