Mass spectrum: 1-pentadecanoyl-2-hydroxy-sn-glycero-3-phosphocholine; LC-ESI-QTOF; MS2; CE: 10; R=; [M+H]+
Name: 1-pentadecanoyl-2-hydroxy-sn-glycero-3-phosphocholine
Name: 1-pentadecanoyl-sn-glycero-3-phosphocholine
Name: [(2R)-2-hydroxy-3-pentadecanoyloxypropyl] 2-(trimethylazaniumyl)ethyl phosphate
Formula: C23H48NO7P
Exact mass: 481.3168
SMILES: [H][C@@](O)(COC(=O)CCCCCCCCCCCCCC)COP([O-])(=O)OCC[N+](C)(C)C
InChI: InChI=1S/C23H48NO7P/c1-5-6-7-8-9-10-11-12-13-14-15-16-17-23(26)29-20-22(25)21-31-32(27,28)30-19-18-24(2,3)4/h22,25H,5-21H2,1-4H3/t22-/m1/s1
Instrument: maXis plus UHR-ToF-MS, Bruker Daltonics
Instrument type: LC-ESI-QTOF
Ms type: MS2
Ion mode: POSITIVE
Ionization: ESI
Fragmentation mode: CID
Collision energy: 10
Column name: BEH C18 1.7um, 2.1x100mm, Waters
Retention time: 5.666 min
Base peak: 482.3238
Precursor m/z: 482.3241
Precursor type: [M+H]+
m/z	relative intensity
104.1065	7
184.0718	1
464.3135	6
465.3147	1
481.3085	1
482.3237	999
484.33	40
