Mass spectrum: 3-hydroxy-C14 homoserine lactone; LC-ESI-QTOF; MS2; CE: 20; R=; [M+H]+
Name: 3-hydroxy-C14 homoserine lactone
Name: N-(3-Hydroxytetradecanoyl)-DL-homoserine lactone
Name: 3-hydroxy-N-(2-oxooxolan-3-yl)tetradecanamide
Formula: C18H33NO4
Exact mass: 327.24096
SMILES: CCCCCCCCCCCC(O)CC(=O)NC1CCOC1=O
InChI: InChI=1S/C18H33NO4/c1-2-3-4-5-6-7-8-9-10-11-15(20)14-17(21)19-16-12-13-23-18(16)22/h15-16,20H,2-14H2,1H3,(H,19,21)
Instrument: maXis plus UHR-ToF-MS, Bruker Daltonics
Instrument type: LC-ESI-QTOF
Ms type: MS2
Ion mode: POSITIVE
Ionization: ESI
Fragmentation mode: CID
Collision energy: 20
Column name: BEH C18 1.7um, 2.1x100mm, Waters
Retention time: 5.731 min
Base peak: 328.2477
Precursor m/z: 328.2482
Precursor type: [M+H]+
m/z	relative intensity
61.1829	1
67.0543	8
71.0246	1
75.0554	1
83.0481	2
83.0851	38
85.0271	8
85.064	5
85.1007	6
86.0717	1
87.0801	3
87.1615	1
89.084	1
91.0549	2
93.0699	3
95.0851	16
97.0645	5
97.1005	27
99.0807	3
101.0586	1
101.0958	2
102.0545	999
104.0577	3
107.0862	4
109.1017	11
109.1594	1
110.105	4
111.0806	3
111.1165	11
113.0945	1
115.0722	1
121.1007	8
122.1056	2
123.1167	2
124.1707	1
125.0969	1
125.132	2
127.1088	2
132.1137	1
135.1157	5
137.1311	1
139.1124	1
144.066	1
149.1329	6
151.1438	2
153.1584	1
167.1808	2
188.0962	1
191.1788	64
192.1815	10
209.1897	60
210.1928	8
226.1425	1
226.2162	7
227.1297	1
238.2138	1
264.233	4
268.225	2
276.1116	1
282.2436	8
282.267	1
292.2268	14
293.2315	3
310.2369	58
311.2425	13
312.2469	1
