Mass spectrum: C10-homoserine lactone; LC-ESI-QTOF; MS2; CE: 10; R=; [M+H]+
Name: C10-homoserine lactone
Name: N-Decanoyl-DL-homoserine lactone
Name: N-(2-oxooxolan-3-yl)decanamide
Formula: C14H25NO3
Exact mass: 255.18344
SMILES: CCCCCCCCCC(=O)NC1CCOC1=O
InChI: InChI=1S/C14H25NO3/c1-2-3-4-5-6-7-8-9-13(16)15-12-10-11-18-14(12)17/h12H,2-11H2,1H3,(H,15,16)
Instrument: maXis plus UHR-ToF-MS, Bruker Daltonics
Instrument type: LC-ESI-QTOF
Ms type: MS2
Ion mode: POSITIVE
Ionization: ESI
Fragmentation mode: CID
Collision energy: 10
Column name: BEH C18 1.7um, 2.1x100mm, Waters
Retention time: 5.113 min
Base peak: 256.1903
Precursor m/z: 256.1907
Precursor type: [M+H]+
m/z	relative intensity
81.0692	74
83.0851	2
84.0438	5
85.1005	42
95.0851	48
97.1013	1
102.0545	894
104.059	3
137.1317	7
155.1426	186
228.1954	62
238.1799	91
239.1836	11
256.1901	999
258.196	13
