Mass spectrum: N4-Acetylcytidine; LC-ESI-QTOF; MS2; CE: 10; R=; [M-H]-
Name: N4-Acetylcytidine
Name: SCHEMBL14929347
Name: N-[1-[(2R,3S,5R)-3,4-dihydroxy-5-(hydroxymethyl)oxolan-2-yl]-2-oxopyrimidin-4-yl]acetamide
Formula: C11H15N3O6
Exact mass: 285.0961
SMILES: CC(=O)Nc1ccn(c(=O)n1)[C@H]2[C@H](C([C@H](O2)CO)O)O
InChI: InChI=1S/C11H15N3O6/c1-5(16)12-7-2-3-14(11(19)13-7)10-9(18)8(17)6(4-15)20-10/h2-3,6,8-10,15,17-18H,4H2,1H3,(H,12,13,16,19)/t6-,8?,9+,10-/m1/s1
Instrument: maXis plus UHR-ToF-MS, Bruker Daltonics
Instrument type: LC-ESI-QTOF
Ms type: MS2
Ion mode: NEGATIVE
Ionization: ESI
Fragmentation mode: CID
Collision energy: 10
Column name: BEH C18 1.7um, 2.1x100mm, Waters
Retention time: 1.186 min
Base peak: 284.0893
Precursor m/z: 284.0888
Precursor type: [M-H]-
m/z	relative intensity
110.038	7
241.0832	19
284.0892	999
