Mass spectrum: Docosahexaenoic acid; LC-ESI-QTOF; MS2; CE: 10; R=; [M+H]+
Name: Docosahexaenoic acid
Name: Docosahexaenoic acid (22:6(n-3))
Name: 4Z,7Z,10Z,13Z,16Z,19Z-Docosahexaenoic acid
Name: DHA
Formula: C22H32O2
Exact mass: 328.24023
SMILES: CC/C=C\C/C=C\C/C=C\C/C=C\C/C=C\C/C=C\CCC(=O)O
InChI: InChI=1S/C22H32O2/c1-2-3-4-5-6-7-8-9-10-11-12-13-14-15-16-17-18-19-20-21-22(23)24/h3-4,6-7,9-10,12-13,15-16,18-19H,2,5,8,11,14,17,20-21H2,1H3,(H,23,24)/b4-3-,7-6-,10-9-,13-12-,16-15-,19-18-
Instrument: maXis plus UHR-ToF-MS, Bruker Daltonics
Instrument type: LC-ESI-QTOF
Ms type: MS2
Ion mode: POSITIVE
Ionization: ESI
Fragmentation mode: CID
Collision energy: 10
Column name: BEH C18 1.7um, 2.1x100mm, Waters
Retention time: 6.780 min
Base peak: 88.075
Precursor m/z: 329.2475
Precursor type: [M+H]+
m/z	relative intensity
48.0447	1
91.0538	1
93.0566	3
94.0491	1
105.0333	1
106.0988	3
110.0601	1
112.1125	2
118.1474	1
124.1128	2
131.1067	3
132.2075	1
143.1416	1
144.0897	2
146.1401	1
147.1135	4
148.1104	2
149.1311	7
151.1348	1
153.0555	2
157.1598	1
161.1317	6
162.0555	1
162.1377	1
165.1261	1
167.238	2
169.0988	4
170.0929	2
170.1897	2
171.1175	3
172.112	1
173.0919	2
175.148	6
176.1528	5
177.1159	1
177.1262	2
180.1633	2
182.2231	1
185.0966	1
187.1106	3
188.0568	1
189.1641	4
190.215	2
191.105	3
195.9955	3
201.1265	3
201.1633	5
202.1713	1
203.1864	2
204.1472	1
205.0278	1
205.1215	3
207.08	1
207.2302	1
209.1197	1
209.1541	1
213.1631	1
215.1383	2
215.1804	5
216.0908	1
216.1847	3
219.1362	2
219.1974	1
220.2138	2
222.0791	2
223.145	2
225.055	2
226.0488	1
228.0702	2
233.1549	12
235.0524	2
235.132	2
237.1631	2
239.0576	1
240.1585	1
241.0779	2
241.1554	4
241.2165	3
242.0971	3
245.1261	2
245.1535	7
246.0436	1
246.1291	1
246.1856	1
248.1556	1
249.0447	2
249.1837	2
250.0727	1
251.05	1
251.1799	1
251.247	1
254.1984	2
255.1738	5
256.1765	1
257.1091	2
259.1116	2
259.1689	11
261.1708	1
261.2407	4
262.195	1
263.1993	1
264.0871	3
265.1906	2
266.1874	1
266.1983	2
267.2542	1
268.0893	2
269.1899	1
269.2266	6
270.2283	2
273.1829	4
274.1922	2
276.0309	1
278.1525	2
278.1662	3
281.0894	2
283.0996	2
283.206	7
283.2367	1
286.0376	2
287.1984	5
289.0598	1
289.1793	1
293.1547	2
293.2261	12
293.9993	1
294.2277	2
295.0998	2
298.1463	2
300.1585	1
301.203	2
303.0052	1
305.0331	1
309.2208	1
311.2363	51
311.26	2
312.2376	6
313.246	5
321.2433	3
324.2114	2
326.1599	4
327.0751	2
327.1489	2
327.1798	3
327.2312	2
328.2138	1
329.247	999
331.1054	1
332.0583	1
