Mass spectrum: 5?-CHOLANIC ACID-3?_ 6?_7?-TRIOL N-(2-SULPHOETHYL)-AMIDE SODIUM SALT; LC-ESI-QTOF; MS2; CE: 40; R=; [M+H]+
Name: 5?-CHOLANIC ACID-3?_ 6?_7?-TRIOL N-(2-SULPHOETHYL)-AMIDE SODIUM SALT
Name: Taurohyocholate
Name: 2-[[(4R)-4-[(3R,5R,6R,7S,8S,9S,10R,13R,14S,17R)-3,6,7-trihydroxy-10,13-dimethyl-2,3,4,5,6,7,8,9,11,12,14,15,16,17-tetradecahydro-1H-cyclopenta[a]phenanthren-17-yl]pentanoyl]amino]ethanesulfonic acid
Formula: C26H45NO7S
Exact mass: 515.2917
SMILES: C[C@H](CCC(=O)NCCS(=O)(=O)O)[C@H]1CC[C@@H]2[C@@]1(CC[C@H]3[C@H]2[C@@H]([C@@H]([C@H]4[C@@]3(CC[C@H](C4)O)C)O)O)C
InChI: InChI=1S/C26H45NO7S/c1-15(4-7-21(29)27-12-13-35(32,33)34)17-5-6-18-22-19(9-11-25(17,18)2)26(3)10-8-16(28)14-20(26)23(30)24(22)31/h15-20,22-24,28,30-31H,4-14H2,1-3H3,(H,27,29)(H,32,33,34)/t15-,16-,17-,18+,19+,20+,22+,23-,24+,25-,26-/m1/s1
Instrument: maXis plus UHR-ToF-MS, Bruker Daltonics
Instrument type: LC-ESI-QTOF
Ms type: MS2
Ion mode: POSITIVE
Ionization: ESI
Fragmentation mode: CID
Collision energy: 40
Column name: BEH C18 1.7um, 2.1x100mm, Waters
Retention time: 3.710 min
Base peak: 516.2988
Precursor m/z: 516.299
Precursor type: [M+H]+
m/z	relative intensity
47.2373	1
52.0051	1
52.2759	1
54.2918	3
55.0538	5
56.0621	2
56.1559	2
59.1824	1
60.0034	4
62.0718	5
62.1662	2
64.0268	1
67.1698	1
68.0576	2
70.1592	1
70.2867	2
71.2735	2
73.1095	4
73.2532	1
74.0641	2
75.0228	1
75.9613	1
76.2036	2
77.0386	4
77.1206	1
77.136	2
77.1532	2
78.0557	2
79.0535	21
80.0527	3
82.0325	3
83.0483	4
83.0852	17
84.0686	2
84.2808	1
85.064	82
85.9989	2
87.0349	1
87.1778	1
87.2561	2
88.1283	1
88.2995	1
89.0939	2
89.1163	2
89.2714	2
90.0576	2
90.102	1
91.0543	7
91.066	2
92.12	2
92.9968	3
93.1518	1
93.2127	2
93.2423	1
94.0734	3
95.0853	58
95.2589	3
95.9911	1
97.0562	2
97.0642	8
97.2028	1
99.1001	4
99.1823	1
99.1974	2
100.1485	1
100.3159	1
101.0592	1
102.1243	1
102.2218	3
102.2956	1
103.992	2
104.9791	1
105.0419	1
105.0688	30
105.1733	2
106.0323	1
106.1359	2
107.0766	3
107.0847	27
107.1415	3
107.1661	1
107.2099	1
107.264	2
107.2731	3
108.0107	46
108.9936	2
109.0157	2
109.1005	26
109.3098	1
110.0279	1
110.0873	2
110.1031	3
110.1173	2
110.1569	2
110.2096	2
110.3532	2
111.0139	3
111.0654	1
111.0782	2
111.9465	1
111.9856	4
112.0558	2
112.1126	2
112.1707	2
112.9923	4
113.0975	1
113.9934	1
114.0512	3
114.1451	4
114.1531	2
115.1158	2
115.2719	3
116.0129	3
116.0624	2
117.0356	2
117.0985	4
117.2087	2
118.0012	2
118.1095	1
119.04	2
119.0463	2
119.0759	1
119.0847	25
119.2017	2
120.0655	1
120.0852	2
121.0838	2
121.1009	22
121.1613	3
121.2168	2
121.2897	2
121.9685	3
122.0117	3
122.1016	2
122.11	2
122.172	2
122.2114	2
123.0037	1
123.0803	10
123.1289	2
123.1367	1
123.2025	1
124.1183	5
124.1317	1
124.144	2
124.2039	1
124.9699	1
125.0011	1
125.0076	2
125.0749	3
125.0944	7
125.1923	1
126.0219	617
126.9856	2
127.0252	18
127.1933	1
127.2108	3
127.2637	2
127.9984	1
128.0178	21
128.2528	2
129.071	4
129.1518	3
129.2131	1
129.2436	2
129.3144	1
130.0032	2
130.1388	1
130.2342	3
131.0836	8
131.1539	2
131.2406	2
132.0777	1
132.0923	3
132.1145	3
132.1904	2
132.2678	3
133.0171	2
133.0332	1
133.0554	2
133.0999	3
133.1504	2
134.0744	1
134.1046	3
134.1668	4
134.3402	2
135.0461	1
135.0781	2
135.1166	5
135.2365	1
135.2957	1
135.9568	2
135.9846	1
136.0589	2
136.1163	1
136.1343	2
136.1706	3
136.1943	1
137.0959	8
137.2489	2
137.978	1
138.0321	2
138.0708	3
138.0895	2
139.017	2
139.0674	2
139.1075	3
140.0905	2
140.113	3
140.1846	2
141.1293	1
141.3364	2
142.0782	2
142.1335	2
142.16	1
143.0076	1
143.044	1
143.0834	5
143.1084	2
143.9996	3
144.0739	1
144.0936	4
144.1046	4
144.2856	1
144.3459	1
144.3637	2
144.9936	2
145.088	1
145.101	17
146.1021	10
146.2277	3
147.0844	3
147.101	2
147.1171	45
147.9749	2
148.046	1
148.0562	2
148.12	4
148.1689	3
148.1764	3
148.2749	2
148.9712	1
148.9859	1
148.9986	3
149.0973	2
149.1323	16
149.188	2
149.2679	1
149.2827	3
149.2934	1
150.0682	4
150.9993	2
151.1123	10
151.1395	3
151.1493	2
151.1776	2
152.0714	2
152.1016	2
152.1387	3
152.3017	1
152.334	2
154.0762	1
154.1173	1
155.0863	7
155.1522	1
155.1819	2
155.9739	1
156.0385	1
156.0616	2
156.0761	2
156.0905	3
156.1098	2
156.1814	1
156.294	2
157.0851	2
157.1007	24
157.1193	2
157.1503	2
157.1818	4
157.197	1
157.2174	2
158.1074	3
158.1336	2
158.1866	1
159.1167	193
159.9455	2
160.0033	2
160.0873	2
160.0987	1
160.12	11
160.1454	1
160.18	1
160.3333	2
161.132	128
162.0641	3
162.0775	2
162.1042	1
162.1372	17
162.165	1
162.3148	1
162.9561	1
163.0457	1
163.0699	3
163.1117	24
163.1466	6
163.3439	2
163.9617	2
163.9978	1
164.091	2
164.1134	3
164.1513	3
164.9648	2
165.023	1
165.0342	4
165.0627	3
165.0991	3
165.1255	8
166.133	2
166.2016	3
166.3138	2
167.0567	3
167.0845	4
167.1036	1
167.1257	1
167.1799	2
167.1984	2
167.3314	1
167.971	2
168.0244	3
168.0719	1
168.1343	1
169.046	2
169.0992	5
169.9406	2
170.0356	1
170.1078	3
170.207	1
170.2152	3
170.2314	1
170.2592	4
170.9884	2
171.0583	1
171.0779	1
171.1181	20
172.0527	2
172.1202	8
172.2235	2
172.2455	1
172.3328	1
173.0963	5
173.1315	84
173.9495	2
174.0084	2
174.0304	2
174.0759	2
174.1355	8
174.241	4
174.2631	1
175.0529	2
175.1118	33
175.1471	41
175.1731	2
175.2457	2
175.3122	3
176.0888	1
176.1173	5
176.1406	1
176.1517	4
176.2038	2
176.9895	1
177.0575	1
177.1261	27
177.1596	3
177.2072	1
177.2889	5
178.0184	2
178.0263	2
178.1117	2
178.1316	9
178.1806	2
178.3451	3
179.0203	2
179.0406	1
179.0768	2
179.0904	1
179.1331	2
179.1484	2
179.1996	3
179.2574	1
180.0281	3
180.0446	2
180.0888	1
180.1358	1
180.1439	2
180.2569	3
180.2945	1
181.0143	4
181.0339	1
181.0998	8
181.1253	3
181.1419	1
181.2562	2
181.9789	1
182.0646	1
182.0752	2
182.0826	1
182.1724	2
182.2171	1
182.2271	1
183.0795	1
183.1169	9
183.2089	1
183.2918	2
183.3022	1
183.9687	3
184.0577	1
184.0704	1
184.1298	1
184.1961	2
184.2292	2
184.274	3
185.0937	4
185.1325	76
185.9582	1
185.9909	2
186.0649	1
186.1057	1
186.1354	10
186.1768	2
186.3204	2
186.9765	3
187.0011	3
187.0433	2
187.0577	2
187.0698	1
187.1127	8
187.1478	21
187.2161	1
187.9541	2
188.0506	1
188.0905	1
188.1203	4
188.1516	1
189.1272	42
189.1626	15
189.2452	2
189.3394	2
190.005	2
190.0266	4
190.064	2
190.1093	3
190.1308	5
190.1627	1
190.2272	1
190.2388	1
190.2528	2
190.965	2
191.0778	2
191.1028	2
191.142	30
191.1725	1
191.234	2
191.245	1
191.2797	1
191.9987	1
192.1485	4
192.2074	2
192.2296	1
192.2739	4
192.2915	2
192.9715	1
193.102	1
193.1617	2
193.2187	1
193.3159	3
194.004	2
194.023	1
194.0514	2
194.1648	3
194.9946	2
195.0792	2
195.0909	2
195.1177	10
196.0155	2
196.1192	2
196.1408	3
196.2039	1
197.0696	2
197.1082	1
197.132	30
197.2205	1
197.3293	1
198.0705	1
198.1407	4
199.1472	155
200.0044	1
200.1204	2
200.1306	3
200.1523	20
201.0148	2
201.1247	9
201.1438	2
201.1633	18
201.2128	5
201.284	2
201.2999	1
201.3236	1
201.352	6
202.0144	2
202.0362	3
202.1267	3
202.1648	4
202.1831	1
202.2378	5
202.3283	1
203.099	2
203.1153	2
203.1419	20
203.1814	4
203.329	1
203.9559	2
204.0085	1
204.0408	1
204.1466	1
204.1854	3
205.002	2
205.1594	4
206.0457	5
206.2838	1
206.9633	2
207.1145	2
208.0641	150
209.0142	2
209.1317	42
209.1684	3
209.2517	3
209.2615	4
209.2905	2
210.0335	1
210.0572	3
210.0723	4
210.1	1
210.1346	11
210.2535	1
210.2682	1
210.9657	3
211.1481	52
212.0282	1
212.0541	2
212.1125	2
212.1505	14
213.128	13
213.1629	118
214.0279	1
214.1285	6
214.1665	20
214.1958	1
214.961	2
215.0925	1
215.1438	17
215.1787	21
215.2821	1
216.1496	3
216.1881	2
216.991	1
217.0201	1
217.14	1
217.1593	15
217.1938	3
218.1658	2
218.3108	6
218.3239	1
219.116	2
219.2073	1
219.2989	3
220.0965	2
220.1767	1
220.2098	3
220.3094	5
221.1292	2
221.1512	2
221.2076	2
222.0779	5
222.1167	2
222.3497	1
223.0012	2
223.1486	43
223.976	4
223.9969	2
224.1048	1
224.1367	2
224.1489	8
225.1634	46
225.9633	1
226.1662	5
226.317	1
227.1421	82
227.1781	44
228.1273	1
228.1458	11
228.1812	10
228.2419	1
229.0041	2
229.0997	3
229.1595	26
229.194	4
229.2523	2
229.2843	3
229.9938	2
230.0281	1
230.1045	2
230.1618	8
230.1914	1
230.2022	3
230.2238	1
230.32	1
230.9965	2
231.098	1
231.1733	7
231.1966	1
232.1589	2
232.2325	1
232.3589	1
232.9651	1
233.1878	5
233.2879	2
233.3218	1
234.0103	4
234.0231	1
234.0834	3
234.1126	1
234.2301	2
234.2783	1
235.1466	5
235.1637	4
236.0692	3
236.0842	1
236.0945	4
236.1321	3
236.1465	5
237.0968	2
237.1638	26
238.1658	7
239.1377	2
239.1444	3
239.1791	41
239.9678	1
240.0969	2
240.1127	1
240.1832	6
240.2856	2
241.0142	1
241.0871	3
241.1225	2
241.158	33
241.1942	33
241.2769	2
241.2851	2
242.0586	1
242.0792	2
242.1622	7
242.1944	6
243.1317	2
243.1468	2
243.1735	12
243.2109	3
243.2283	1
244.1781	1
245.0706	3
245.1947	4
245.2455	1
246.1533	1
246.1964	2
246.331	1
247.1372	1
247.1955	1
247.9873	1
248.0936	6
248.1512	1
248.1778	1
248.2083	1
248.2473	2
248.3381	1
249.1635	8
249.2255	2
250.0181	2
250.0933	1
250.1097	4
250.1711	2
250.9728	2
251.0966	3
251.1627	2
251.1784	16
252.0299	1
252.1123	4
252.1536	3
252.1858	11
252.9763	1
253.084	3
253.1363	2
253.1547	2
253.1947	18
253.2797	2
254.1532	2
254.1727	2
254.2012	13
255.1721	21
255.2096	15
256.0969	1
256.1786	3
256.2131	1
257.0944	2
257.1062	1
257.1887	15
257.9938	1
258.0824	2
258.0928	2
258.1809	1
258.1927	3
259.1686	4
259.2075	2
259.2323	2
259.2594	2
260.0957	5
260.1642	3
260.9715	2
261.0907	1
261.1476	1
261.2206	2
261.2503	1
261.9386	3
262.1086	13
263.1793	29
263.256	1
263.2746	2
263.9812	1
264.1267	3
264.1852	6
264.345	1
264.9802	1
264.9957	2
265.1941	7
266.1714	1
266.3396	3
266.9572	2
267.1741	10
267.2148	4
268.1396	3
268.1761	3
269.0082	1
269.0853	1
269.1895	15
269.2255	2
270.1934	14
270.9819	1
271.1235	3
271.2043	10
271.3016	2
272.2107	4
272.2477	2
272.9735	1
273.1638	1
273.1893	6
273.3047	2
274.0861	2
274.1117	5
274.1804	2
274.293	4
275.0617	2
275.1124	1
275.1943	1
275.2827	2
276.1257	8
276.3467	2
276.9862	3
277.1958	17
277.2326	1
277.2469	2
277.3132	1
278.0205	1
278.048	2
278.0684	4
278.1987	2
279.2094	10
279.9867	1
280.0944	1
280.2349	1
280.3343	1
281.1899	16
281.215	6
281.2208	6
281.2597	1
281.3429	2
281.9345	1
282.192	5
282.2301	2
282.9516	1
283.0994	2
283.1398	1
283.2117	3
283.2437	3
283.3282	2
284.0461	1
284.0891	2
284.2689	2
285.2897	1
285.31	1
286.0827	3
286.112	4
287.1146	2
287.1944	1
287.2743	2
288.1274	29
288.1722	1
289.1346	4
289.2148	3
289.2389	1
289.3331	2
290.122	3
290.1483	6
290.2113	1
290.9934	1
291.1022	1
291.1824	1
291.2123	7
291.2506	5
291.9403	2
292.2612	2
293.1862	1
293.2258	14
293.945	3
293.9834	1
294.0694	2
294.1059	3
294.1427	3
294.2305	8
294.9699	2
295.151	2
295.2051	17
295.2414	35
295.9495	1
295.9722	1
296.2455	15
297.1263	2
297.2227	2
297.2546	1
297.9623	1
298.1122	2
299.0835	1
299.2386	2
300.0084	3
300.1275	32
300.2068	2
300.2975	2
300.335	1
301.0199	1
301.0402	2
301.129	4
302.0901	1
302.139	18
302.1997	3
303.1434	4
304.1335	4
304.1573	3
304.2203	2
304.3031	1
305.2176	3
305.2708	2
305.9582	5
306.234	2
306.2576	4
307.1128	2
307.2447	6
308.0865	2
308.2455	3
309.2206	8
309.2573	110
310.1451	3
310.1537	5
310.2226	2
310.261	17
311.0176	2
311.1301	3
311.146	2
311.2385	4
311.2637	3
311.9877	2
312.0117	1
312.0283	2
312.0562	3
312.1209	2
313.2389	1
313.2547	3
314.1424	38
315.1438	8
315.2641	3
315.3161	1
315.9608	3
316.0045	2
316.1299	1
316.156	5
317.1596	3
317.2301	3
317.306	1
318.0773	1
318.19	1
318.2009	2
318.2788	2
318.2896	2
319.2417	418
320.2451	105
320.9796	5
321.0407	1
321.2516	5
321.276	1
321.3508	2
322.0338	2
322.2769	2
323.3441	2
324.9427	5
325.2302	1
325.2512	20
326.1423	4
326.2255	2
326.2544	5
326.2918	1
326.9714	1
327.2682	18
328.1589	3
328.2685	3
329.1657	1
329.285	1
330.1789	2
330.2489	2
330.9688	2
333.1359	1
333.2215	1
334.1004	1
334.9874	2
336.1512	2
336.2521	3
336.3379	3
337.2524	868
338.2555	185
339.259	22
340.0494	1
340.1625	4
341.1895	2
342.1755	16
342.1974	2
342.3078	1
342.9839	3
343.1686	4
346.013	1
346.9477	2
347.0761	1
348.3646	1
349.0978	2
349.1146	4
352.1571	5
353.1038	1
353.1623	2
353.1877	2
353.3262	1
354.1739	5
354.2814	2
355.2631	999
356.267	186
357.0049	1
357.1834	2
357.1968	2
357.2718	16
358.2014	1
358.2764	4
359.1363	2
360.166	2
361.9424	2
362.067	2
362.2528	3
364.2583	1
366.1699	8
367.1763	1
368.0162	3
368.1818	5
368.3632	1
369.1022	1
369.1948	3
373.0825	2
373.2663	5
375.2578	2
377.2328	1
377.9796	2
378.1659	1
379.2845	2
382.1999	9
383.2067	2
384.1492	1
386.2793	2
389.024	2
391.0427	1
394.1051	2
394.1242	2
394.2037	5
395.2415	1
396.2368	1
397.2293	2
398.0063	1
406.2287	2
408.2136	2
417.1916	1
419.2823	1
420.2211	2
422.0653	2
422.1248	1
424.2378	3
426.2633	2
428.1079	1
433.051	1
435.9788	2
437.1985	2
444.2512	5
445.2061	1
450.2676	14
451.2646	2
452.1315	1
452.2928	2
453.2892	1
454.991	1
460.1253	2
462.2668	291
463.2697	67
463.9852	1
464.1244	1
464.2673	14
464.3441	2
465.2645	1
470.0849	1
474.9616	1
480.277	79
481.2792	19
481.3105	2
482.2761	3
484.0829	2
498.2857	2
509.128	2
521.1223	2
