Mass spectrum: L-Threonine; LC-ESI-QTOF; MS2; CE: 40; R=; [M+H]+
Name: L-Threonine
Name: D-threonine
Name: (2R,3S)-2-azaniumyl-3-hydroxybutanoate
Formula: C4H9NO3
Exact mass: 119.05824
SMILES: C[C@@H]([C@H](C(=O)O)N)O
InChI: InChI=1S/C4H9NO3/c1-2(6)3(5)4(7)8/h2-3,6H,5H2,1H3,(H,7,8)/t2-,3+/m0/s1
Instrument: maXis plus UHR-ToF-MS, Bruker Daltonics
Instrument type: LC-ESI-QTOF
Ms type: MS2
Ion mode: POSITIVE
Ionization: ESI
Fragmentation mode: CID
Collision energy: 40
Column name: BEH C18 1.7um, 2.1x100mm, Waters
Retention time: 0.601 min
Base peak: 74.0593
Precursor m/z: 120.0655
Precursor type: [M+H]+
m/z	relative intensity
54.0338	165
58.0647	999
68.0242	141
68.9967	413
69.0318	289
70.0036	159
71.0125	106
