Mass spectrum: Homogentisic acid; LC-ESI-QTOF; MS2; CE: 40; R=; [M+H]+
Name: Homogentisic acid
Name: 2-(2,5-dihydroxyphenyl)acetic acid
Formula: C8H8O4
Exact mass: 168.0423
SMILES: OC(=O)CC1=CC(O)=CC=C1O
InChI: InChI=1S/C8H8O4/c9-6-1-2-7(10)5(3-6)4-8(11)12/h1-3,9-10H,4H2,(H,11,12)
Instrument: maXis plus UHR-ToF-MS, Bruker Daltonics
Instrument type: LC-ESI-QTOF
Ms type: MS2
Ion mode: POSITIVE
Ionization: ESI
Fragmentation mode: CID
Collision energy: 40
Column name: BEH C18 1.7um, 2.1x100mm, Waters
Retention time: 1.387 min
Base peak: 390.0032
Precursor m/z: 169.0495
Precursor type: [M+H]+
m/z	relative intensity
55.0181	86
66.0459	98
67.0539	999
68.0582	24
77.0386	59
95.0483	301
123.044	31
