Mass spectrum: gamma-Linolenic acid; LC-ESI-QTOF; MS2; CE: 10; R=; [M+H]+
Name: gamma-Linolenic acid
Name: (6Z,9Z,12Z)-octadeca-6,9,12-trienoic acid
Formula: C18H30O2
Exact mass: 278.2246
SMILES: CCCCC\C=C/C\C=C/C\C=C/CCCCC(O)=O
InChI: InChI=1S/C18H30O2/c1-2-3-4-5-6-7-8-9-10-11-12-13-14-15-16-17-18(19)20/h6-7,9-10,12-13H,2-5,8,11,14-17H2,1H3,(H,19,20)/b7-6-,10-9-,13-12-
Instrument: maXis plus UHR-ToF-MS, Bruker Daltonics
Instrument type: LC-ESI-QTOF
Ms type: MS2
Ion mode: POSITIVE
Ionization: ESI
Fragmentation mode: CID
Collision energy: 10
Column name: BEH C18 1.7um, 2.1x100mm, Waters
Retention time: 6.691 min
Base peak: 88.0749
Precursor m/z: 279.2319
Precursor type: [M+H]+
m/z	relative intensity
80.0829	4
81.0694	29
95.0855	30
96.0813	4
96.9917	3
97.0978	5
99.1383	3
100.1127	5
109.1012	15
111.1163	6
113.2271	3
122.106	3
125.0967	5
133.1707	6
138.01	6
147.1378	7
148.182	7
151.1449	6
151.9902	3
152.1321	3
159.1181	4
161.1336	6
163.108	6
165.1651	9
170.1317	4
177.1276	14
177.1403	3
177.1639	3
179.1445	24
179.1795	3
180.1736	5
181.1575	8
182.1775	7
184.1246	5
195.1377	30
195.1859	5
196.1451	7
197.0279	4
199.1211	5
201.1651	4
203.2356	4
208.2195	5
209.1534	15
217.1889	6
219.1701	3
219.197	3
221.1313	10
223.0645	4
225.0889	3
233.1165	4
237.1853	7
237.2182	3
239.189	3
243.1594	6
243.1944	3
243.2119	35
251.1061	3
253.1353	5
260.0193	3
261.17	4
261.2214	81
262.2261	33
277.2186	5
279.2317	999
