Mass spectrum: 2-Hydroxyphenanzine-1-Carboxylic acid; LC-ESI-QTOF; MS2; CE: 10; R=; [M+H]+
Name: 2-Hydroxyphenanzine-1-Carboxylic acid
Name: 2-Hydroxyphenazine-1-carboxylic acid
Name: 2-oxo-10H-phenazine-1-carboxylic acid
Formula: C13H8N2O3
Exact mass: 240.05349
SMILES: C1=CC=C2C(=C1)NC3=C(C(=O)C=CC3=N2)C(=O)O
InChI: InChI=1S/C13H8N2O3/c16-10-6-5-9-12(11(10)13(17)18)15-8-4-2-1-3-7(8)14-9/h1-6,15H,(H,17,18)
Instrument: maXis plus UHR-ToF-MS, Bruker Daltonics
Instrument type: LC-ESI-QTOF
Ms type: MS2
Ion mode: POSITIVE
Ionization: ESI
Fragmentation mode: CID
Collision energy: 10
Column name: BEH C18 1.7um, 2.1x100mm, Waters
Retention time: 4.236 min
Base peak: 79.0203
Precursor m/z: 241.0608
Precursor type: [M+H]+
m/z	relative intensity
53.0021	1
70.0418	1
77.0343	1
94.0649	1
112.9878	1
148.9862	1
167.0603	1
179.062	1
181.0159	1
223.0504	253
224.0544	25
225.0547	1
226.0609	1
241.0611	999
