Mass spectrum: Guanosine; LC-ESI-QTOF; MS2; CE: 40; R=; [M+H]+
Name: Guanosine
Formula: C10H13N5O5
Exact mass: 283.091669
SMILES: C1=NC2=C(N1[C@H]3[C@@H]([C@@H]([C@H](O3)CO)O)O)N=C(NC2=O)N
InChI: InChI=1S/C10H13N5O5/c11-10-13-7-4(8(19)14-10)12-2-15(7)9-6(18)5(17)3(1-16)20-9/h2-3,5-6,9,16-18H,1H2,(H3,11,13,14,19)/t3-,5-,6-,9-/m1/s1
Instrument: maXis plus UHR-ToF-MS, Bruker Daltonics
Instrument type: LC-ESI-QTOF
Ms type: MS2
Ion mode: POSITIVE
Ionization: ESI
Fragmentation mode: CID
Collision energy: 40
Column name: BEH C18 1.7um, 2.1x100mm, Waters
Retention time: 0.712 min
Base peak: 152.0561
Precursor m/z: 284.0989
Precursor type: [M+H]+
m/z	relative intensity
54.1153	1
55.017	6
57.0321	16
59.0473	1
61.0273	8
65.0133	1
68.0134	1
69.0326	21
71.0124	19
73.0277	14
74.1047	1
77.0956	1
80.0243	2
82.04	6
82.0631	1
82.9972	1
84.0525	1
85.0277	14
86.0354	1
93.0088	1
95.0357	1
97.0269	2
97.0495	1
101.0137	1
107.0355	3
109.0502	14
110.0347	111
112.0846	1
117.0864	1
119.08	1
120.0617	1
122.114	1
126.0748	1
127.0101	1
128.0454	7
128.093	1
134.0453	5
135.0301	87
136.0148	1
136.0335	7
139.107	1
140.0126	1
140.0306	1
146.069	1
149.0217	1
152.0562	999
153.0401	131
154.025	1
154.0586	1
155.0372	1
171.054	1
