Mass spectrum: 3-oxo-C4-homoserine lactone; LC-ESI-QTOF; MS2; CE: 40; R=; [M+H]+
Name: 3-oxo-C4-homoserine lactone
Name: Butanamide, 3-oxo-N-(tetrahydro-2-oxo-3-furanyl)-
Name: 3-oxo-N-(2-oxooxolan-3-yl)butanamide
Formula: C8H11NO4
Exact mass: 185.06881
SMILES: CC(=O)CC(=O)NC1CCOC1=O
InChI: InChI=1S/C8H11NO4/c1-5(10)4-7(11)9-6-2-3-13-8(6)12/h6H,2-4H2,1H3,(H,9,11)
Instrument: maXis plus UHR-ToF-MS, Bruker Daltonics
Instrument type: LC-ESI-QTOF
Ms type: MS2
Ion mode: POSITIVE
Ionization: ESI
Fragmentation mode: CID
Collision energy: 40
Column name: BEH C18 1.7um, 2.1x100mm, Waters
Retention time: 0.967 min
Base peak: 186.0757
Precursor m/z: 186.0761
Precursor type: [M+H]+
m/z	relative intensity
55.0388	15
57.0442	24
59.0487	14
68.0493	31
70.0287	19
74.0231	999
74.0595	388
84.0438	177
85.0281	195
102.0553	38
174.9911	14
