Mass spectrum: Phenol; LC-ESI-QTOF; MS2; CE: 20; R=; [M+H]+
Name: Phenol
Formula: C6H6O
Exact mass: 94.04186
SMILES: c1ccc(cc1)O
InChI: InChI=1S/C6H6O/c7-6-4-2-1-3-5-6/h1-5,7H
Instrument: maXis plus UHR-ToF-MS, Bruker Daltonics
Instrument type: LC-ESI-QTOF
Ms type: MS2
Ion mode: POSITIVE
Ionization: ESI
Fragmentation mode: CID
Collision energy: 20
Column name: BEH C18 1.7um, 2.1x100mm, Waters
Retention time: 3.264 min
Base peak: 79.0205
Precursor m/z: 95.0491
Precursor type: [M+H]+
m/z	relative intensity
55.0175	124
78.0419	138
95.0485	999
105.0456	372
