Mass spectrum: Pentadecanoic acid; LC-ESI-QTOF; MS2; CE: 20; R=; [M+H]+
Name: Pentadecanoic acid
Formula: C15H30O2
Exact mass: 242.2246
SMILES: CCCCCCCCCCCCCCC(=O)O
InChI: InChI=1S/C15H30O2/c1-2-3-4-5-6-7-8-9-10-11-12-13-14-15(16)17/h2-14H2,1H3,(H,16,17)
Instrument: maXis plus UHR-ToF-MS, Bruker Daltonics
Instrument type: LC-ESI-QTOF
Ms type: MS2
Ion mode: POSITIVE
Ionization: ESI
Fragmentation mode: CID
Collision energy: 20
Column name: BEH C18 1.7um, 2.1x100mm, Waters
Retention time: 7.036 min
Base peak: 88.075
Precursor m/z: 243.2319
Precursor type: [M+H]+
m/z	relative intensity
55.0543	215
57.0697	809
67.0541	263
71.0852	999
75.0434	53
81.0706	122
83.0498	151
89.0594	346
95.0847	125
107.0713	114
111.0804	95
117.0907	55
151.112	74
173.1553	47
241.0967	90
