Mass spectrum: Inosine; LC-ESI-QTOF; MS2; CE: 20; R=; [M+H]+
Name: Inosine
Name: 9-[(2R,3R,4S,5R)-3,4-dihydroxy-5-(hydroxymethyl)oxolan-2-yl]-3H-purin-6-one
Formula: C10H12N4O5
Exact mass: 268.0808
SMILES: OC[C@H]1O[C@H]([C@H](O)[C@@H]1O)N1C=NC2=C(O)N=CN=C12
InChI: InChI=1S/C10H12N4O5/c15-1-4-6(16)7(17)10(19-4)14-3-13-5-8(14)11-2-12-9(5)18/h2-4,6-7,10,15-17H,1H2,(H,11,12,18)/t4-,6-,7-,10-/m1/s1
Instrument: maXis plus UHR-ToF-MS, Bruker Daltonics
Instrument type: LC-ESI-QTOF
Ms type: MS2
Ion mode: POSITIVE
Ionization: ESI
Fragmentation mode: CID
Collision energy: 20
Column name: BEH C18 1.7um, 2.1x100mm, Waters
Retention time: 0.724 min
Base peak: 269.0877
Precursor m/z: 269.088
Precursor type: [M+H]+
m/z	relative intensity
54.0343	4
55.0169	8
57.0322	5
61.0275	4
69.0323	13
71.0111	2
73.0273	26
80.0117	1
82.04	2
85.0282	9
87.0431	2
87.08	1
97.0285	15
97.0849	2
99.0641	3
107.0436	3
113.071	1
115.0052	1
115.0381	5
119.0364	2
125.1031	1
133.0472	3
134.0787	5
137.0457	999
138.0495	57
139.0373	1
139.0495	3
140.0114	1
269.0893	1
