Mass spectrum: ?-Tauromuricholic acid; LC-ESI-QTOF; MS2; CE: 20; R=; [M+H]+
Name: ?-Tauromuricholic acid
Name: 2-[4-(3,6,7-trihydroxy-10,13-dimethyl-2,3,4,5,6,7,8,9,11,12,14,15,16,17-tetradecahydro-1H-cyclopenta[a]phenanthren-17-yl)pentanoylamino]ethanesulfonic acid
Formula: C26H45NO7S
Exact mass: 515.2917
SMILES: CC(CCC(=O)NCCS(=O)(=O)O)C1CCC2C1(CCC3C2C(C(C4C3(CCC(C4)O)C)O)O)C
InChI: InChI=1S/C26H45NO7S/c1-15(4-7-21(29)27-12-13-35(32,33)34)17-5-6-18-22-19(9-11-25(17,18)2)26(3)10-8-16(28)14-20(26)23(30)24(22)31/h15-20,22-24,28,30-31H,4-14H2,1-3H3,(H,27,29)(H,32,33,34)
Instrument: maXis plus UHR-ToF-MS, Bruker Daltonics
Instrument type: LC-ESI-QTOF
Ms type: MS2
Ion mode: POSITIVE
Ionization: ESI
Fragmentation mode: CID
Collision energy: 20
Column name: BEH C18 1.7um, 2.1x100mm, Waters
Retention time: 3.591 min
Base peak: 516.2986
Precursor m/z: 516.299
Precursor type: [M+H]+
m/z	relative intensity
85.0651	2
96.0111	1
98.2849	1
126.0215	22
134.0636	1
135.9639	1
138.2469	1
158.9608	1
159.1168	2
160.1192	1
161.1324	1
165.1288	1
173.1312	1
175.1492	1
177.1127	1
185.1305	1
191.9372	1
199.1463	2
202.0712	1
206.0502	1
208.0614	2
209.0664	1
217.1575	1
223.1466	1
227.1428	1
232.1188	1
235.3287	1
241.16	1
246.09	1
251.9738	1
255.1759	1
265.1965	1
270.2929	1
271.1624	1
274.1016	1
289.1214	1
290.1465	1
295.2341	1
300.1306	2
302.1391	1
303.2237	1
309.2208	1
309.2613	1
310.3084	1
311.1763	1
311.2341	1
314.1424	2
316.1637	1
317.1617	1
319.2413	8
320.2474	3
325.2511	1
336.136	1
337.2529	60
338.2554	12
339.2579	2
340.1564	1
354.1746	1
355.2632	49
356.2666	9
357.2648	2
363.0188	1
366.1706	1
366.2291	1
373.1273	1
373.272	6
374.2729	1
375.9779	1
381.9987	1
382.2081	1
383.0799	1
383.2995	1
383.3229	1
392.0033	1
402.1991	1
405.0117	1
406.3436	1
418.2467	1
419.2809	1
444.0993	1
447.1099	1
449.3031	1
450.1911	1
450.2674	20
451.2694	4
452.0892	1
452.2831	2
455.9367	1
461.28	1
462.2673	399
463.2706	101
464.0715	1
464.2677	21
465.2814	2
479.199	1
479.2416	1
479.2661	1
479.3145	1
479.3377	2
480.2776	999
481.2807	303
482.2799	61
483.2834	10
498.2891	81
499.2905	24
500.2909	5
516.2953	1
