Mass spectrum: Dioctylphthalate; LC-ESI-QTOF; MS2; CE: 10; R=; [M+H]+
Name: Dioctylphthalate
Name: Dioctyl phthalate
Name: dioctyl benzene-1,2-dicarboxylate
Formula: C24H38O4
Exact mass: 390.27701
SMILES: CCCCCCCCOC(=O)c1ccccc1C(=O)OCCCCCCCC
InChI: InChI=1S/C24H38O4/c1-3-5-7-9-11-15-19-27-23(25)21-17-13-14-18-22(21)24(26)28-20-16-12-10-8-6-4-2/h13-14,17-18H,3-12,15-16,19-20H2,1-2H3
Instrument: maXis plus UHR-ToF-MS, Bruker Daltonics
Instrument type: LC-ESI-QTOF
Ms type: MS2
Ion mode: POSITIVE
Ionization: ESI
Fragmentation mode: CID
Collision energy: 10
Column name: BEH C18 1.7um, 2.1x100mm, Waters
Retention time: 7.638 min
Base peak: 391.2846
Precursor m/z: 391.2843
Precursor type: [M+H]+
m/z	relative intensity
45.0912	1
45.1638	1
50.0723	1
59.0606	1
65.1325	1
66.042	1
69.1268	1
72.1139	1
72.1512	1
74.1869	1
74.2024	1
75.1751	2
82.2501	1
90.1274	1
92.1979	3
93.0544	1
95.0595	1
97.0374	1
99.1734	1
102.0917	2
104.1037	1
106.1208	1
109.0274	1
110.0687	1
111.0528	1
111.1117	3
113.1323	13
113.9831	1
115.9894	1
119.2217	1
120.0648	1
123.0812	1
124.0396	1
126.0561	1
129.9889	2
130.215	1
134.0318	1
134.0803	1
134.2032	1
136.0263	1
139.0338	1
139.1228	1
140.1572	1
141.0906	1
141.1848	1
144.0651	1
147.1138	1
149.0232	726
150.026	51
150.0557	2
151.017	1
151.2045	1
156.2284	1
161.1658	1
167.0343	10
167.1655	1
170.2035	1
171.1499	2
172.1668	1
173.083	1
173.2106	2
174.0627	1
179.9934	1
182.1037	1
182.2965	3
183.1697	1
186.115	1
187.0372	2
189.0925	2
190.0612	1
191.0718	3
191.273	1
192.0199	1
194.0229	2
196.0188	1
196.0409	1
196.1249	1
204.9873	1
205.0831	1
205.2155	2
206.084	1
210.0111	1
211.1945	1
216.0743	1
216.1404	1
218.1283	1
220.0828	1
224.0796	1
224.2702	1
225.2187	2
226.0361	1
226.2166	2
229.241	1
232.203	2
233.9943	1
234.1019	1
239.0696	1
239.1509	1
240.001	1
242.0207	1
243.1491	1
244.3014	1
247.3127	2
249.0464	1
252.1594	1
253.1086	1
254.1559	1
254.2334	1
254.2496	1
256.1398	1
259.0493	1
260.2511	1
261.1485	999
262.1523	149
263.1203	1
263.1561	10
263.207	1
264.1586	2
264.2028	1
271.1571	1
273.2598	2
279.1593	11
283.3002	1
286.1421	1
291.0916	1
295.0128	1
296.9911	1
297.0602	2
298.0424	1
298.1181	1
302.0741	1
310.1783	1
319.1008	1
320.1428	1
330.2178	1
331.2327	1
332.0081	1
333.2357	1
334.227	1
339.253	1
339.278	1
343.005	1
345.1668	1
350.1768	1
359.1933	1
373.0794	1
380.0416	2
381.048	1
385.9941	1
391.2843	693
393.2185	1
393.2893	16
398.1038	1
406.2786	1
