Mass spectrum: (-)-Epigallocatechin gallate; LC-ESI-QTOF; MS2; CE: 20; R=; [M+H]+
Name: (-)-Epigallocatechin gallate
Name: [(2R,3R)-5,7-dihydroxy-2-(3,4,5-trihydroxyphenyl)-3,4-dihydro-2H-chromen-3-yl] 3,4,5-trihydroxybenzoate
Name: 3-O-Galloyl-(-)-epigallocatechin
Name: Benzoic acid, 3,4,5-trihydroxy-, (2R,3R)-3,4-dihydro-5,7-dihydroxy-2-(3,4,5-trihydroxyphenyl)-2H-1-benzopyran-3-yl ester
Name: (-)-Epigallocatechin 3-gallate
Name: Epigallocatechin-3-monogallate
Name: (-)-Epigallocatechin 3-O-gallate
Name: (-)-Epigallocatechol gallate
Name: Gallic acid, 3-ester with epigallocatechol, (-)-
Name: L-Epigallocatechin gallate
Formula: C22H18O11
Exact mass: 458.08491
SMILES: C1[C@H]([C@H](OC2=CC(=CC(=C21)O)O)C3=CC(=C(C(=C3)O)O)O)OC(=O)C4=CC(=C(C(=C4)O)O)O
InChI: InChI=1S/C22H18O11/c23-10-5-12(24)11-7-18(33-22(31)9-3-15(27)20(30)16(28)4-9)21(32-17(11)6-10)8-1-13(25)19(29)14(26)2-8/h1-6,18,21,23-30H,7H2/t18-,21-/m1/s1
Instrument: maXis plus UHR-ToF-MS, Bruker Daltonics
Instrument type: LC-ESI-QTOF
Ms type: MS2
Ion mode: POSITIVE
Ionization: ESI
Fragmentation mode: CID
Collision energy: 20
Column name: BEH C18 1.7um, 2.1x100mm, Waters
Retention time: 2.748 min
Base peak: 459.092
Precursor m/z: 459.0922
Precursor type: [M+H]+
m/z	relative intensity
58.0047	2
64.039	1
72.0411	1
73.0154	1
76.0758	1
79.0171	1
83.0607	1
84.1149	2
89.0445	3
90.0417	1
94.066	1
95.0498	1
96.0994	1
97.0082	1
97.0168	2
98.0313	1
99.1021	1
102.0786	1
103.998	1
106.0056	2
106.0835	1
107.9954	3
110.0567	1
115.1475	1
116.0111	2
116.0255	1
117.04	1
118.0262	1
120.0995	1
121.9988	1
122.1151	1
124.058	1
125.9675	2
127.0479	1
130.0136	1
130.0299	2
133.0642	1
133.1065	2
135.1139	2
136.0002	1
136.0874	1
136.9958	1
137.9921	1
139.0387	999
140.042	90
140.9975	2
141.0431	4
141.0769	2
142.0251	1
142.052	3
142.0747	1
143.1308	1
147.9955	1
148.1341	2
148.9732	3
149.0229	1
150.139	2
151.0384	202
152.0421	21
153.0178	117
155.046	2
155.0764	2
159.0651	1
160.0442	1
163.0389	33
164.0437	5
167.035	1
172.011	1
173.0146	1
173.0376	1
173.0561	1
173.1169	1
175.0391	1
175.9961	1
177.0518	1
177.9785	1
177.9927	1
178.028	1
179.0341	5
181.0494	79
182.0526	13
182.1083	2
183.0562	2
183.0899	1
183.1063	1
185.075	1
189.0234	1
189.0616	1
189.9823	2
190.0111	2
192.0041	2
192.1089	2
193.0049	2
194.1401	2
196.1347	3
197.0953	1
200.977	1
200.9886	2
201.1039	1
203.0848	1
205.0502	18
205.9846	1
207.1215	1
208.0336	1
210.1122	1
211.9527	3
213.041	2
213.0556	3
216.0166	3
219.1052	3
221.1335	1
221.9944	1
224.0455	1
225.0113	2
225.0238	1
228.0374	1
229.0484	3
229.0874	1
230.1251	1
231.0641	2
232.0354	1
232.9887	2
236.0987	1
237.0577	3
238.0011	1
240.0584	2
244.9653	2
245.0464	1
245.1192	1
247.0616	2
248.1264	1
249.9769	1
253.0474	3
253.9975	2
254.106	1
256.9861	1
257.0506	1
258.1297	1
259.0608	7
260.026	3
260.0616	1
261.0126	1
261.0426	1
261.0928	1
262.0038	2
262.0441	1
264.0624	1
265.0072	1
269.0446	1
271.0604	8
272.0664	1
275.0582	1
276.9717	1
277.0732	2
277.1209	2
279.1144	1
279.9686	1
280.9755	1
283.9538	1
284.1199	1
285.1265	2
287.0543	34
288.0649	6
289.0709	820
290.074	141
291.0498	7
291.0777	13
291.1501	1
291.9799	1
292.0575	3
293.065	4
293.0847	2
294.0034	1
298.9757	3
303.0174	1
305.0655	139
306.0684	18
307.0816	89
307.101	10
308.0833	12
309.0082	1
309.085	2
311.0121	1
321.0607	8
322.0553	2
333.0597	12
334.0645	2
370.0806	1
393.0691	2
432.9867	2
457.0883	1
459.0926	12
484.9508	1
