Mass spectrum: dhas#18; LC-ESI-QTOF; MS2; CE: 40; R=; [M+H]+
Name: dhas#18
Formula: C17H32O8
Exact mass: 364.2097
SMILES: CC(C[C@H](O)CCCC[C@@H](O)CC(O)=O)O[C@@H]1OC(C)[C@H](O)CC1O
InChI: InChI=1S/C17H32O8/c1-10(24-17-15(21)9-14(20)11(2)25-17)7-12(18)5-3-4-6-13(19)8-16(22)23/h10-15,17-21H,3-9H2,1-2H3,(H,22,23)/t10?,11?,12-,13-,14-,15?,17-/m1/s1
Instrument: maXis plus UHR-ToF-MS, Bruker Daltonics
Instrument type: LC-ESI-QTOF
Ms type: MS2
Ion mode: POSITIVE
Ionization: ESI
Fragmentation mode: CID
Collision energy: 40
Column name: BEH C18 1.7um, 2.1x100mm, Waters
Retention time: 2.780 min
Base peak: 235.1535
Precursor m/z: 365.217
Precursor type: [M+H]+
m/z	relative intensity
55.0174	47
57.091	11
61.0286	51
67.0539	349
68.058	12
69.0328	148
71.0488	752
73.0653	51
78.046	14
79.0537	999
81.0696	977
83.0486	422
84.0522	13
85.0648	391
85.0766	19
87.0075	11
88.1247	14
91.0539	96
93.0696	848
95.0856	509
96.0539	45
97.029	16
97.0652	226
97.1013	86
99.0795	59
100.0241	12
101.0591	13
105.0444	22
105.0699	35
109.0655	24
111.0447	66
111.1163	44
113.0563	14
113.0971	68
114.0051	19
115.0759	11
121.1005	656
122.1041	88
125.0602	36
125.9797	13
135.116	124
137.0952	26
139.0746	95
139.1117	717
140.1147	57
143.069	40
145.1012	98
147.0499	19
153.1275	33
157.1217	156
163.1118	313
173.1177	19
174.0098	19
180.1568	21
181.1224	773
182.0903	15
199.1321	909
200.1363	61
201.0751	15
217.1441	141
235.1549	349
