Mass spectrum: all trans-Retinal; LC-ESI-QTOF; MS2; CE: 40; R=; [M+H]+
Name: all trans-Retinal
Name: retinal
Name: (2E,4E,6E,8E)-3,7-dimethyl-9-(2,6,6-trimethylcyclohexen-1-yl)nona-2,4,6,8-tetraenal
Formula: C20H28O
Exact mass: 284.2140
SMILES: [H]C(=O)\C=C(C)\C=C\C=C(C)\C=C\C1=C(C)CCCC1(C)C
InChI: InChI=1S/C20H28O/c1-16(8-6-9-17(2)13-15-21)11-12-19-18(3)10-7-14-20(19,4)5/h6,8-9,11-13,15H,7,10,14H2,1-5H3/b9-6+,12-11+,16-8+,17-13+
Instrument: maXis plus UHR-ToF-MS, Bruker Daltonics
Instrument type: LC-ESI-QTOF
Ms type: MS2
Ion mode: POSITIVE
Ionization: ESI
Fragmentation mode: CID
Collision energy: 40
Column name: BEH C18 1.7um, 2.1x100mm, Waters
Retention time: 7.056 min
Base peak: 88.0747
Precursor m/z: 285.2213
Precursor type: [M+H]+
m/z	relative intensity
47.1799	31
55.0173	27
60.0438	29
61.0402	59
68.0581	37
69.0692	999
77.0386	29
81.0328	47
91.054	346
95.049	125
95.0856	124
96.0075	25
97.0644	32
105.0696	348
106.0732	74
109.0651	31
117.07	25
119.0846	156
121.1001	35
130.0739	45
133.1	109
145.0646	48
146.0712	75
147.1154	88
148.1197	29
154.0772	28
159.1156	37
160.1241	48
161.133	67
162.0205	32
167.0842	44
169.1015	64
173.1298	42
182.1095	35
187.1558	45
201.1583	34
