Mass spectrum: N6-Threonylcarbamoyladenosine; LC-ESI-QTOF; MS2; CE: 10; R=; [M+H]+
Name: N6-Threonylcarbamoyladenosine
Name: t(6)a
Name: (2S,3R)-2-[[9-[(2R,3R,4S,5R)-3,4-dihydroxy-5-(hydroxymethyl)oxolan-2-yl]purin-6-yl]carbamoylamino]-3-hydroxybutanoic acid
Formula: C15H20N6O8
Exact mass: 412.1343
SMILES: C[C@H]([C@@H](C(=O)O)NC(=O)Nc1c2c(ncn1)n(cn2)[C@H]3[C@@H]([C@@H]([C@H](O3)CO)O)O)O
InChI: InChI=1S/C15H20N6O8/c1-5(23)7(14(26)27)19-15(28)20-11-8-12(17-3-16-11)21(4-18-8)13-10(25)9(24)6(2-22)29-13/h3-7,9-10,13,22-25H,2H2,1H3,(H,26,27)(H2,16,17,19,20,28)/t5-,6-,7+,9-,10-,13-/m1/s1
Instrument: maXis plus UHR-ToF-MS, Bruker Daltonics
Instrument type: LC-ESI-QTOF
Ms type: MS2
Ion mode: POSITIVE
Ionization: ESI
Fragmentation mode: CID
Collision energy: 10
Column name: BEH C18 1.7um, 2.1x100mm, Waters
Retention time: 2.441 min
Base peak: 413.1411
Precursor m/z: 413.1415
Precursor type: [M+H]+
m/z	relative intensity
120.0656	1
136.0619	1
162.0405	10
268.1036	6
281.0989	999
282.1017	113
283.1038	6
294.0832	4
413.1415	815
415.1463	17
