Mass spectrum: 3?-Hydroxy-12 Ketolithocholic Acid; LC-ESI-QTOF; MS2; CE: 40; R=; [M+H]+
Name: 3?-Hydroxy-12 Ketolithocholic Acid
Name: 12-Ketolithocholic acid
Name: (4R)-4-[(3R,5R,8R,9S,10S,13R,14S,17R)-3-hydroxy-10,13-dimethyl-12-oxo-1,2,3,4,5,6,7,8,9,11,14,15,16,17-tetradecahydrocyclopenta[a]phenanthren-17-yl]pentanoic acid
Formula: C24H38O4
Exact mass: 390.2770
SMILES: C[C@H](CCC(=O)O)[C@H]1CC[C@@H]2[C@@]1(C(=O)C[C@H]3[C@H]2CC[C@H]4[C@@]3(CC[C@H](C4)O)C)C
InChI: InChI=1S/C24H38O4/c1-14(4-9-22(27)28)18-7-8-19-17-6-5-15-12-16(25)10-11-23(15,2)20(17)13-21(26)24(18,19)3/h14-20,25H,4-13H2,1-3H3,(H,27,28)/t14-,15-,16-,17+,18-,19+,20+,23+,24-/m1/s1
Instrument: maXis plus UHR-ToF-MS, Bruker Daltonics
Instrument type: LC-ESI-QTOF
Ms type: MS2
Ion mode: POSITIVE
Ionization: ESI
Fragmentation mode: CID
Collision energy: 40
Column name: BEH C18 1.7um, 2.1x100mm, Waters
Retention time: 5.054 min
Base peak: 391.2841
Precursor m/z: 391.2843
Precursor type: [M+H]+
m/z	relative intensity
48.2445	1
49.2528	2
49.9995	3
51.9947	1
52.039	3
53.0705	2
53.096	2
54.0462	2
55.0756	2
56.0616	3
62.0476	3
62.0602	1
64.1244	3
66.0426	2
66.198	1
71.0732	1
72.0807	1
73.0516	2
73.065	3
75.011	2
78.0067	3
78.0339	2
79.0266	2
79.9746	2
81.1846	1
82.0414	1
82.0743	2
82.193	4
85.9865	4
88.1126	3
89.0263	2
89.1544	2
90.0783	1
90.0908	2
90.1614	1
91.0993	1
91.9735	2
92.037	2
92.2703	2
93.0333	2
94.2862	3
95.1068	4
97.0368	2
97.2171	1
99.0227	2
99.1021	1
100.0388	4
100.1115	2
101.0101	1
101.2121	1
101.2685	3
102.0467	1
102.1029	1
104.1773	1
105.2211	3
107.0499	1
107.0693	3
108.1356	2
108.2438	1
109.0389	3
109.0753	4
109.1587	1
109.1958	1
109.2373	5
110.0228	1
110.0563	1
110.1661	1
111.0226	3
111.3041	3
112.018	2
112.0472	3
114.0327	1
114.0391	1
114.0468	2
114.0779	1
114.1251	3
114.2757	2
115.0143	3
115.227	2
116.0702	2
116.981	2
116.9968	2
117.1375	3
117.2575	3
119.0712	2
119.0816	2
120.0289	2
120.0456	1
120.0802	1
121.0974	2
121.29	4
124.0026	2
124.0748	2
125.0375	4
125.0914	2
125.1169	2
126.0426	3
126.0762	2
126.1247	4
127.0017	1
127.0262	4
127.0754	4
127.9989	2
128.0696	2
128.1441	4
128.1553	2
128.2499	3
129.0773	3
129.205	2
129.2211	2
129.9921	2
130.0265	2
130.0494	2
130.0988	3
130.1095	3
130.134	1
131.0344	2
131.0674	4
134.0031	2
134.0567	2
134.0804	4
134.1097	3
135.0224	3
135.0641	1
135.1172	2
135.15	1
135.2526	2
136.0063	3
136.0956	2
136.1458	6
137.0949	1
138.0668	3
138.075	2
138.1969	2
139.063	1
139.113	2
140.0206	2
140.0943	1
141.069	5
141.2208	2
142.0172	3
142.0632	2
142.0994	3
142.109	2
142.1471	2
142.2128	1
143.0851	58
144.0442	2
144.0882	16
145.1009	740
146.1041	83
147.0808	11
147.117	156
148.0624	2
148.0737	2
148.1194	24
148.1657	1
148.2759	1
149.0952	10
149.1321	209
150.0074	1
150.0387	2
150.0545	2
150.0667	2
150.1363	29
150.1981	1
151.0011	3
151.0746	2
151.1123	7
151.9966	1
152.0268	7
152.0494	2
152.0797	4
152.1183	2
152.9815	3
153.0538	1
153.0695	9
153.0884	1
153.2424	2
154.0402	2
154.0765	2
154.1705	2
155.0462	2
155.0583	2
155.0846	29
155.1188	2
155.165	2
155.9836	3
156.0697	1
156.0918	14
157.1009	222
158.0005	2
158.0218	3
158.104	17
158.1531	1
159.1165	361
160.0021	2
160.0229	3
160.1196	31
161.1319	172
161.9984	3
162.0321	3
162.0674	2
162.1008	3
162.1357	23
163.0728	2
163.1117	8
163.1482	39
163.9977	5
164.0457	4
164.1165	6
164.1525	9
164.9986	2
165.0662	3
165.0691	3
165.0913	4
165.124	3
165.1628	2
166.0612	1
166.1575	2
166.2492	1
167.0013	5
167.0851	12
167.1074	5
167.1391	1
167.9806	3
168.0904	3
168.1104	2
169.1011	53
170.188	2
171.1163	182
172.0197	2
172.03	3
172.1195	20
172.167	2
173.0962	19
173.1325	171
174.0176	2
174.1115	3
174.1355	23
174.2776	3
175.0752	4
175.1125	16
175.1477	68
175.9748	3
176.0378	2
176.0466	2
176.0845	1
176.1153	1
176.141	1
177.0913	9
177.126	9
178.0054	2
178.0936	2
178.1661	2
179.0222	2
179.0852	6
179.1084	5
179.1417	2
179.9792	1
180.0061	1
180.0921	5
180.1089	4
181.0036	1
181.101	24
181.1212	11
182.0676	1
182.1063	7
182.1246	2
182.1899	2
183.1161	94
183.9904	2
184.0636	3
184.123	19
185.095	26
185.1321	248
186.0447	2
186.1159	2
186.1359	26
187.1131	21
187.1473	164
188.0502	2
188.1181	9
188.1509	28
188.1655	4
188.1768	2
189.0303	2
189.0635	3
189.0882	5
189.1246	11
189.1635	32
190.0163	1
190.1297	2
190.1685	3
190.9956	2
191.0677	4
191.1062	22
191.1303	1
191.1424	6
191.1802	2
192.006	1
192.113	2
192.1727	3
193.1011	7
193.122	12
193.1562	3
193.2162	2
194.0111	1
194.1068	7
194.1245	4
194.1399	3
195.1011	1
195.1168	31
195.1388	6
196.0326	3
196.0495	2
196.1232	11
197.1327	66
197.2461	4
198.1374	20
198.1827	1
198.219	1
199.1477	823
200.1517	90
200.2514	4
201.1636	482
202.1324	5
202.1667	51
203.0068	2
203.1078	6
203.1422	14
203.1796	13
203.2359	2
203.9793	1
204.1463	5
204.2064	4
205.1231	11
205.1566	3
205.1929	2
205.9859	1
206.1025	1
206.1259	2
206.1558	1
206.2618	2
207.0669	2
207.1184	15
207.134	7
207.2071	2
207.2439	4
208.1301	5
209.1325	141
209.1506	10
210.0094	2
210.0988	1
210.1357	17
211.085	5
211.1478	74
212.0348	3
212.0597	2
212.1206	5
212.1514	9
213.1636	565
214.1325	4
214.1674	84
215.1789	390
215.9815	5
216.1828	47
216.2458	4
217.1162	1
217.1564	12
217.1935	10
217.2416	2
219.0285	1
219.0679	4
219.1162	1
219.1386	10
219.219	1
219.2442	1
219.267	1
219.2893	4
219.9784	2
220.1226	4
220.1781	2
220.216	2
221.0299	1
221.1343	6
221.1541	5
221.2569	2
222.1402	2
223.1481	50
223.2823	3
224.152	4
225.1646	100
226.1353	2
226.168	16
227.1431	126
227.1792	299
228.044	3
228.1466	15
228.1825	59
229.1222	2
229.1597	33
229.1946	19
229.2287	2
229.9954	2
230.1628	6
230.1993	4
230.2226	1
231.1394	11
231.1751	15
232.0599	1
232.1427	3
233.0807	1
233.1114	1
233.1557	8
233.19	4
233.2357	4
234.136	5
234.146	3
234.2231	1
235.0027	1
235.1479	13
235.1684	7
235.1997	3
236.1473	1
236.1565	3
237.1644	56
237.1836	5
238.1312	4
238.1668	5
239.1795	76
240.1086	2
240.1607	2
240.1855	27
240.2458	1
241.0154	2
241.1588	31
241.1945	57
242.1639	14
242.1996	16
242.2438	2
243.1364	5
243.1755	29
243.2111	9
244.0649	3
244.1395	4
244.1804	6
244.2197	6
245.1536	70
246.1571	20
246.2062	1
247.1223	2
247.1327	2
247.1691	22
247.242	1
248.0382	1
248.1742	9
248.1893	2
248.2219	1
249.1256	6
249.1637	11
249.2175	3
250.1722	4
250.24	1
251.1788	18
251.246	2
252.1825	12
252.2302	2
253.1956	43
254.2018	24
255.0402	2
255.1591	3
255.1747	39
255.2101	25
256.0823	1
256.1787	10
256.2144	5
257.0269	3
257.1518	5
257.1904	8
257.9802	2
258.009	2
258.2216	1
258.281	1
259.1464	4
259.1688	40
259.2042	4
259.237	5
261.1844	44
261.9991	3
262.1695	3
262.9851	1
263.0943	1
263.1801	23
264.1849	6
265.1936	15
266.1981	10
267.0271	2
267.1718	7
267.2092	28
268.1666	2
268.2147	8
268.9852	1
269.1521	1
269.189	13
269.2276	6
269.9814	1
270.1367	1
270.1922	3
271.1298	1
271.1716	4
272.2106	3
273.0632	2
273.1818	10
274.1925	8
275.1785	4
275.199	5
277.1949	25
278.2029	9
279.2107	31
279.252	1
280.0818	2
280.2137	10
281.0191	2
281.19	25
281.2252	15
282.0495	1
282.1835	2
282.1963	2
282.2318	8
283.039	2
283.1718	1
283.204	5
283.2272	3
283.242	3
284.209	3
285.1827	10
285.2809	3
286.1907	2
287.0959	1
287.1458	1
287.1999	6
288.2055	4
289.2591	1
290.098	1
290.2014	1
291.2129	3
292.215	5
293.0004	3
293.1786	2
293.2265	47
293.9799	3
294.1966	1
294.2313	24
294.2652	1
295.1214	2
295.2073	22
295.2414	26
296.0203	2
296.1259	2
296.2084	9
296.2458	4
297.0216	2
297.2227	17
297.2519	2
298.2267	6
298.9867	2
299.1193	2
299.178	1
299.2011	15
299.2189	1
300.2056	9
301.0608	3
301.2124	11
301.2496	2
302.2247	3
303.2146	3
303.2636	2
304.2131	3
304.2221	4
305.2208	2
306.2162	3
307.1667	1
307.2086	1
307.2377	2
307.9852	4
308.2234	3
309.2575	999
310.2611	204
311.0773	1
311.0919	2
311.133	1
311.2125	1
311.2236	3
311.2686	17
312.267	2
313.148	3
313.2109	7
313.2366	1
314.138	1
314.221	6
316.2278	4
317.2253	1
319.2422	73
319.2824	3
320.2454	15
320.9811	2
321.2516	7
321.9907	2
322.2272	1
325.259	2
326.2216	3
327.1438	2
327.2321	2
327.268	20
328.2688	3
329.0137	2
329.2667	1
329.2831	2
333.0097	1
337.2522	101
338.257	13
339.0102	2
339.2622	3
343.1905	1
345.2761	1
347.291	1
355.2628	130
356.0352	1
356.0939	1
356.2659	30
373.2774	4
374.2769	3
