Mass spectrum: all trans-Retinal; LC-ESI-QTOF; MS2; CE: 20; R=; [M+H]+
Name: all trans-Retinal
Name: retinal
Name: (2E,4E,6E,8E)-3,7-dimethyl-9-(2,6,6-trimethylcyclohexen-1-yl)nona-2,4,6,8-tetraenal
Formula: C20H28O
Exact mass: 284.2140
SMILES: [H]C(=O)\C=C(C)\C=C\C=C(C)\C=C\C1=C(C)CCCC1(C)C
InChI: InChI=1S/C20H28O/c1-16(8-6-9-17(2)13-15-21)11-12-19-18(3)10-7-14-20(19,4)5/h6,8-9,11-13,15H,7,10,14H2,1-5H3/b9-6+,12-11+,16-8+,17-13+
Instrument: maXis plus UHR-ToF-MS, Bruker Daltonics
Instrument type: LC-ESI-QTOF
Ms type: MS2
Ion mode: POSITIVE
Ionization: ESI
Fragmentation mode: CID
Collision energy: 20
Column name: BEH C18 1.7um, 2.1x100mm, Waters
Retention time: 7.056 min
Base peak: 88.0747
Precursor m/z: 285.2213
Precursor type: [M+H]+
m/z	relative intensity
59.049	34
64.0313	35
73.0031	20
75.211	20
83.0852	107
95.0497	18
95.0856	278
96.0901	39
104.0824	27
106.0776	25
107.0502	20
107.085	122
109.0656	136
109.1005	103
115.0297	27
119.085	163
120.0886	48
123.1157	71
124.1214	28
127.2059	35
129.0779	19
133.1001	139
134.104	21
145.1001	66
146.1089	51
147.1154	86
155.0805	24
156.0944	49
157.0981	38
159.1167	107
160.0899	25
160.1242	31
161.0958	658
161.1285	98
161.1547	33
163.0616	45
163.1103	33
163.1486	25
165.1038	33
168.0947	34
168.1389	33
169.1015	27
170.0839	25
170.1084	37
171.1156	70
172.1204	35
173.1329	85
173.1426	19
175.148	999
177.1611	109
183.1141	51
184.0056	40
184.1214	37
185.0847	23
185.131	75
187.0491	33
187.1495	31
189.1615	34
193.157	62
197.1312	94
198.1353	57
199.1491	101
201.1643	37
203.1801	113
211.1486	193
212.1523	29
223.1433	25
224.1539	18
225.1605	20
237.1613	21
241.1482	26
267.2078	65
285.222	68
293.0732	19
