Mass spectrum: Glycohyocholic acid; LC-ESI-QTOF; MS2; CE: 10; R=; [M+H]+
Name: Glycohyocholic acid
Name: AM022340
Name: 2-[4-(3,6,7-trihydroxy-10,13-dimethyl-2,3,4,5,6,7,8,9,11,12,14,15,16,17-tetradecahydro-1H-cyclopenta[a]phenanthren-17-yl)pentanoylamino]acetic acid
Formula: C26H43NO6
Exact mass: 465.3090
SMILES: CC(CCC(=O)NCC(=O)O)C1CCC2C1(CCC3C2C(C(C4C3(CCC(C4)O)C)O)O)C
InChI: InChI=1S/C26H43NO6/c1-14(4-7-20(29)27-13-21(30)31)16-5-6-17-22-18(9-11-25(16,17)2)26(3)10-8-15(28)12-19(26)23(32)24(22)33/h14-19,22-24,28,32-33H,4-13H2,1-3H3,(H,27,29)(H,30,31)
Instrument: maXis plus UHR-ToF-MS, Bruker Daltonics
Instrument type: LC-ESI-QTOF
Ms type: MS2
Ion mode: POSITIVE
Ionization: ESI
Fragmentation mode: CID
Collision energy: 10
Column name: BEH C18 1.7um, 2.1x100mm, Waters
Retention time: 4.069 min
Base peak: 466.3164
Precursor m/z: 466.3163
Precursor type: [M+H]+
m/z	relative intensity
76.0386	1
337.2558	2
355.2641	2
412.2848	31
413.2878	5
430.2956	361
431.299	86
432.3016	12
448.3063	450
449.3096	129
450.3132	15
451.3077	1
466.3165	999
468.3232	56
