Mass spectrum: 3-oxo-C8-homoserine lactone; LC-ESI-QTOF; MS2; CE: 20; R=; [M+H]+
Name: 3-oxo-C8-homoserine lactone
Name: N-(3X-Oxooctanoyl)-DL-homoserine lactone
Name: 3-oxo-N-(2-oxooxolan-3-yl)octanamide
Formula: C12H19NO4
Exact mass: 241.13141
SMILES: CCCCCC(=O)CC(=O)NC1CCOC1=O
InChI: InChI=1S/C12H19NO4/c1-2-3-4-5-9(14)8-11(15)13-10-6-7-17-12(10)16/h10H,2-8H2,1H3,(H,13,15)
Instrument: maXis plus UHR-ToF-MS, Bruker Daltonics
Instrument type: LC-ESI-QTOF
Ms type: MS2
Ion mode: POSITIVE
Ionization: ESI
Fragmentation mode: CID
Collision energy: 20
Column name: BEH C18 1.7um, 2.1x100mm, Waters
Retention time: 3.788 min
Base peak: 242.1382
Precursor m/z: 242.1387
Precursor type: [M+H]+
m/z	relative intensity
67.0538	4
68.049	2
68.9968	4
69.0694	3
70.0287	4
74.023	78
74.0593	796
81.0338	2
81.0692	3
84.044	58
85.0279	11
94.0403	1
95.0849	6
97.0639	1
98.0599	88
99.0802	692
102.0547	999
127.058	1
141.0901	167
142.0946	17
172.1317	1
182.1172	11
184.1327	54
185.1373	6
196.1321	32
197.1356	3
200.0547	1
200.1274	5
214.1434	15
224.1283	11
242.1389	14
