Mass spectrum: Sinapinic acid; LC-ESI-QTOF; MS2; CE: 40; R=; [M+H]+
Name: Sinapic acid
Name: 3,5-dimethoxy-4-hydroxycinnamic acid
Name: 3-(4-hydroxy-3,5-dimethoxy-phenyl)prop-2-enoic acid
Formula: C11H12O5
Exact mass: 224.06847
SMILES: COC1=CC(=CC(=C1O)OC)/C=C/C(=O)O
InChI: InChI=1S/C11H12O5/c1-15-8-5-7(3-4-10(12)13)6-9(16-2)11(8)14/h3-6,14H,1-2H3,(H,12,13)/b4-3+
Instrument: maXis plus UHR-ToF-MS, Bruker Daltonics
Instrument type: LC-ESI-QTOF
Ms type: MS2
Ion mode: POSITIVE
Ionization: ESI
Fragmentation mode: CID
Collision energy: 40
Column name: BEH C18 1.7um, 2.1x100mm, Waters
Retention time: 3.156 min
Base peak: 207.0644
Precursor m/z: 225.0757
Precursor type: [M+H]+
m/z	relative intensity
53.0382	2
62.0149	2
66.0418	23
76.0302	92
77.0379	127
79.0174	5
79.0535	77
80.0615	30
81.0329	6
81.0652	1
82.0408	3
88.0306	2
89.0381	165
90.046	84
91.0537	999
92.0255	5
92.0573	54
93.0333	40
94.0407	12
95.0489	57
96.0527	2
101.038	18
102.0456	4
103.0543	9
104.0256	30
105.0328	14
105.0438	8
106.0403	4
107.0488	23
108.021	1
108.0569	9
109.028	1
110.0363	3
111.0441	1
117.0333	12
118.0414	58
119.0488	70
120.0525	5
121.0286	27
123.0431	3
125.0221	2
129.0442	4
132.0203	8
133.0293	2
134.0364	4
135.0439	11
136.053	3
138.0305	1
140.0468	2
145.0274	2
146.035	4
147.0074	1
147.044	17
148.0475	2
149.0226	87
150.0276	8
153.0538	1
157.0399	1
162.0313	3
163.0382	8
164.0468	12
173.0222	1
174.0305	1
177.0183	13
178.022	2
179.0709	3
180.0781	1
191.0356	1
192.041	7
