Mass spectrum: Lithocholenic Acid; LC-ESI-QTOF; MS2; CE: 10; R=; [M+H]+
Name: Lithocholenic Acid
Name: AC1N11MC
Name: 4-(3-hydroxy-10,13-dimethyl-2,3,4,5,6,7,8,9,14,15,16,17-dodecahydro-1H-cyclopenta[a]phenanthren-17-yl)pentanoic acid
Formula: C24H38O3
Exact mass: 374.2821
SMILES: CC(CCC(=O)O)C1CCC2C1(C=CC3C2CCC4C3(CCC(C4)O)C)C
InChI: InChI=1S/C24H38O3/c1-15(4-9-22(26)27)19-7-8-20-18-6-5-16-14-17(25)10-12-23(16,2)21(18)11-13-24(19,20)3/h11,13,15-21,25H,4-10,12,14H2,1-3H3,(H,26,27)
Instrument: maXis plus UHR-ToF-MS, Bruker Daltonics
Instrument type: LC-ESI-QTOF
Ms type: MS2
Ion mode: POSITIVE
Ionization: ESI
Fragmentation mode: CID
Collision energy: 10
Column name: BEH C18 1.7um, 2.1x100mm, Waters
Retention time: 5.860 min
Base peak: 88.0748
Precursor m/z: 375.2894
Precursor type: [M+H]+
m/z	relative intensity
67.054	1
89.12	1
100.0403	2
111.0098	1
121.087	1
129.0654	1
134.0451	1
140.0215	1
140.106	1
144.1159	1
144.1383	2
146.1168	1
152.0955	1
153.0895	2
155.0564	1
156.0437	1
157.1002	1
164.2705	1
165.1267	1
165.2225	1
166.0429	1
167.1016	1
167.1542	1
167.2001	1
169.1186	1
172.2032	1
173.0925	1
173.1788	1
175.1568	1
176.12	1
177.1647	1
178.0417	1
178.1225	1
179.1043	1
180.1147	1
181.0366	1
181.101	1
181.1221	4
182.0111	1
184.0515	1
185.1781	1
187.1367	1
189.1636	2
191.174	1
195.1364	4
200.1265	1
201.0914	1
201.1633	4
202.0983	1
203.0799	1
205.0064	1
205.0369	1
206.0446	1
207.1377	1
208.0155	1
210.1572	1
211.1476	1
214.0063	1
215.1083	1
215.1758	2
217.0773	1
217.1914	1
218.0247	1
218.1635	2
219.1493	1
220.0584	1
220.1531	1
221.1558	1
225.1711	1
226.1356	1
229.1839	1
229.197	3
231.0444	1
231.0827	1
231.1696	2
236.9985	1
237.1142	1
240.1737	1
241.1944	1
243.2099	4
243.9939	1
244.1084	1
244.2283	1
245.1609	1
246.9909	1
247.1687	1
249.0454	1
249.1746	1
250.1674	1
257.0385	1
257.2287	1
258.0096	1
260.9944	1
262.121	2
262.9991	1
263.0233	1
264.9932	1
265.1194	1
266.2483	1
267.2331	1
270.1716	1
273.1523	1
274.1921	2
275.1994	1
275.2745	1
276.0654	1
276.2049	2
276.2207	1
282.1003	1
284.1438	1
285.9907	1
286.0316	1
286.1329	1
287.1979	2
293.1979	1
296.2725	1
297.2581	1
300.2195	1
301.2134	1
306.0551	1
308.0009	1
309.1137	1
310.0679	1
310.0872	1
311.0456	1
311.1314	3
312.2377	2
312.2669	2
313.0852	1
314.1982	1
314.2381	1
314.2556	1
315.0934	1
317.1054	2
320.1673	1
321.1354	1
321.2566	3
322.1957	1
323.1384	1
323.2819	1
327.2342	1
328.2717	1
333.056	1
333.2848	1
338.1324	1
339.2672	42
340.2699	5
341.1886	2
342.2274	1
343.0818	2
346.2237	2
348.0287	1
348.2673	2
350.1716	1
350.1992	1
350.2447	1
350.2561	1
352.1346	2
352.2585	1
354.2884	1
355.2615	2
357.2784	999
358.282	249
359.0093	1
359.0372	1
359.1551	1
359.2835	21
361.2148	1
362.2567	1
364.2469	2
366.0619	1
373.2716	8
375.2884	708
377.266	5
377.295	18
