Mass spectrum: D-sphingosine; LC-ESI-QTOF; MS2; CE: 20; R=; [M+H]+
Name: D-sphingosine
Name: sphingosine
Name: (E,2S,3R)-2-aminooctadec-4-ene-1,3-diol
Formula: C18H37NO2
Exact mass: 299.2824
SMILES: CCCCCCCCCCCCC/C=C/[C@H]([C@H](CO)N)O
InChI: InChI=1S/C18H37NO2/c1-2-3-4-5-6-7-8-9-10-11-12-13-14-15-18(21)17(19)16-20/h14-15,17-18,20-21H,2-13,16,19H2,1H3/b15-14+/t17-,18+/m0/s1
Instrument: maXis plus UHR-ToF-MS, Bruker Daltonics
Instrument type: LC-ESI-QTOF
Ms type: MS2
Ion mode: POSITIVE
Ionization: ESI
Fragmentation mode: CID
Collision energy: 20
Column name: BEH C18 1.7um, 2.1x100mm, Waters
Retention time: 5.325 min
Base peak: 282.2787
Precursor m/z: 300.2897
Precursor type: [M+H]+
m/z	relative intensity
57.0321	1
71.048	7
83.0481	18
86.0592	21
91.0536	1
95.0846	82
96.08	7
97.0642	10
97.1004	43
99.0794	1
99.1162	2
100.075	4
107.0851	24
108.0887	1
109.1006	30
110.0962	1
111.08	2
111.1162	9
121.1012	25
122.1042	2
123.1168	7
135.1166	9
137.1324	2
149.1321	2
184.2061	1
211.2057	5
238.2518	1
247.2417	1
252.2682	163
253.2716	31
262.2543	1
264.2682	104
265.2528	7
265.2713	21
266.2558	1
266.2727	1
282.2787	999
283.2822	246
