Mass spectrum: Lithocholenic Acid; LC-ESI-QTOF; MS2; CE: 20; R=; [M+H]+
Name: Lithocholenic Acid
Name: AC1N11MC
Name: 4-(3-hydroxy-10,13-dimethyl-2,3,4,5,6,7,8,9,14,15,16,17-dodecahydro-1H-cyclopenta[a]phenanthren-17-yl)pentanoic acid
Formula: C24H38O3
Exact mass: 374.2821
SMILES: CC(CCC(=O)O)C1CCC2C1(C=CC3C2CCC4C3(CCC(C4)O)C)C
InChI: InChI=1S/C24H38O3/c1-15(4-9-22(26)27)19-7-8-20-18-6-5-16-14-17(25)10-12-23(16,2)21(18)11-13-24(19,20)3/h11,13,15-21,25H,4-10,12,14H2,1-3H3,(H,26,27)
Instrument: maXis plus UHR-ToF-MS, Bruker Daltonics
Instrument type: LC-ESI-QTOF
Ms type: MS2
Ion mode: POSITIVE
Ionization: ESI
Fragmentation mode: CID
Collision energy: 20
Column name: BEH C18 1.7um, 2.1x100mm, Waters
Retention time: 5.860 min
Base peak: 88.0748
Precursor m/z: 375.2894
Precursor type: [M+H]+
m/z	relative intensity
67.054	4
69.0697	1
77.0264	1
83.085	4
85.0655	2
92.0583	1
92.2493	1
93.0415	1
93.0694	1
96.0884	1
101.0392	1
101.059	2
102.1149	2
105.0693	1
105.2781	1
106.1928	1
107.086	1
115.075	2
121.0378	1
121.0982	2
122.1099	1
131.033	2
131.0827	1
135.1176	2
137.0136	1
138.0474	1
142.1089	1
144.171	1
146.0242	1
147.1164	8
148.1192	2
149.0927	1
149.1329	6
151.1119	2
152.021	1
157.1959	1
159.1175	1
161.1326	18
162.065	2
162.1361	2
163.111	2
163.1486	10
165.0056	1
167.1057	2
169.1005	1
173.1333	2
174.1614	2
175.1479	13
176.0017	1
177.1267	1
177.1527	1
177.1867	1
179.0004	1
179.1418	2
180.1254	2
181.124	17
182.259	1
183.1153	1
185.1311	1
186.0216	1
187.148	4
189.1249	1
189.1629	16
191.0703	2
192.1357	1
193.1219	6
195.0411	1
195.138	17
196.124	1
197.9827	1
199.1453	1
200.1645	1
200.2517	1
201.1633	12
202.0609	1
202.1692	2
202.1913	1
203.1422	1
203.1784	13
204.1832	1
207.1374	18
208.1427	2
208.1888	1
208.9849	1
209.1305	1
209.1547	10
210.2181	1
211.0525	1
211.1476	2
213.0872	1
215.1788	26
216.1832	3
217.0365	1
217.1942	7
219.1707	3
221.0278	1
221.1518	12
223.1677	3
224.0824	1
225.0049	1
225.1707	1
226.1218	1
227.0839	1
227.1753	1
228.2663	1
229.1583	1
229.194	13
230.198	2
232.0008	1
234.1746	1
234.294	1
234.9879	1
235.0757	2
235.1553	1
235.169	4
236.0377	1
236.1715	3
236.9969	1
237.1834	5
240.198	1
241.1721	1
241.1944	2
243.1732	1
243.2097	18
244.0581	1
244.1828	1
244.2124	1
247.0757	1
247.1675	10
249.1844	4
249.2309	1
250.1703	1
250.1892	3
252.0565	1
254.1199	1
256.2279	2
257.185	3
258.1289	1
258.1949	2
258.2317	1
261.0343	1
261.1829	12
261.9995	1
262.1871	2
263.1996	4
264.0275	2
264.1984	1
265.2043	1
268.2146	1
270.1042	1
272.0139	1
272.2367	2
273.1803	2
274.2627	1
275.199	15
276.1982	1
278.1526	1
279.2065	1
280.0508	1
280.2295	1
281.2291	1
282.1416	1
284.25	1
287.0715	1
287.1317	1
288.0089	1
291.0701	1
291.2403	1
292.0607	1
292.2199	1
295.2432	2
296.032	1
297.2578	3
298.2681	1
299.0312	1
301.2157	3
302.0444	1
304.0493	1
305.2675	1
310.0613	1
310.2808	4
311.129	1
311.1453	1
312.2824	1
313.1884	1
315.2314	1
318.2911	1
321.2567	24
322.262	5
323.2483	1
326.0917	1
327.0071	1
339.102	2
339.2683	48
339.9874	1
340.272	14
341.2734	3
342.2533	1
345.1254	1
346.1912	1
356.1866	1
356.2705	2
357.278	999
358.2816	229
359.061	1
359.2837	22
373.2731	1
374.2807	1
375.288	38
