Mass spectrum: Riboflavin; LC-ESI-QTOF; MS2; CE: 40; R=; [M+H]+
Name: Riboflavin
Name: 7,8-dimethyl-10-[(2S,3S,4R)-2,3,4,5-tetrahydroxypentyl]benzo[g]pteridine-2,4-dione
Formula: C17H20N4O6
Exact mass: 376.1383
SMILES: Cc1cc2nc3c(nc(=O)[nH]c3=O)n(C[C@H](O)[C@H](O)[C@H](O)CO)c2cc1C
InChI: InChI=1S/C17H20N4O6/c1-7-3-9-10(4-8(7)2)21(5-11(23)14(25)12(24)6-22)15-13(18-9)16(26)20-17(27)19-15/h3-4,11-12,14,22-25H,5-6H2,1-2H3,(H,20,26,27)/t11-,12+,14-/m0/s1
Instrument: maXis plus UHR-ToF-MS, Bruker Daltonics
Instrument type: LC-ESI-QTOF
Ms type: MS2
Ion mode: POSITIVE
Ionization: ESI
Fragmentation mode: CID
Collision energy: 40
Column name: BEH C18 1.7um, 2.1x100mm, Waters
Retention time: 2.751 min
Base peak: 377.1457
Precursor m/z: 377.1456
Precursor type: [M+H]+
m/z	relative intensity
45.0318	1
48.056	1
49.1463	2
52.1122	2
54.1029	1
59.0481	11
59.0698	3
61.0275	42
69.0329	262
70.0029	1
71.0123	35
71.0486	51
73.0281	23
75.0432	17
75.1618	2
77.0258	1
78.0785	1
79.1563	1
81.033	41
82.0369	3
82.1441	2
85.1315	3
87.0448	4
87.1607	2
89.0603	2
90.1026	2
91.038	4
91.0628	1
98.0024	3
98.0919	1
99.0433	33
100.0522	1
100.0608	1
106.0136	1
107.0606	2
108.066	1
109.0377	1
109.9866	1
115.1433	1
117.0529	5
119.1278	1
123.1032	1
126.1447	1
127.0231	1
127.0637	1
128.0592	1
132.9884	1
135.1495	1
136.0405	1
140.0088	2
140.0827	2
141.0496	1
144.0365	1
144.0562	1
145.0764	13
145.1671	1
145.9934	2
146.0138	2
146.0817	2
147.0532	2
147.0922	1
148.0389	1
149.0103	1
149.9769	1
151.0024	2
152.1304	1
153.1827	1
156.0246	3
156.0587	1
156.1689	2
157.062	5
157.0878	1
157.1701	1
158.0573	1
158.0657	2
159.0925	4
159.1438	2
159.1733	1
160.064	2
160.1203	1
161.983	1
162.1267	2
162.9758	1
163.1438	1
165.996	1
169.0129	2
170.0702	5
171.0033	1
171.086	2
171.1489	3
171.1701	2
172.0867	375
172.993	1
173.0906	25
173.1076	4
174.0539	1
174.0919	2
174.1009	5
175.0869	1
176.0947	1
178.0408	2
179.9808	2
180.0407	1
180.1567	1
182.0687	4
183.028	2
183.0811	1
184.0877	4
184.1005	1
184.1586	1
185.1065	2
185.1774	2
186.1009	6
187.0063	2
187.0857	1
188.1325	2
189.0917	1
189.1311	1
189.1655	2
190.0991	17
191.0805	2
191.104	2
191.1252	1
193.0739	1
193.1126	1
194.1508	1
195.1293	2
196.0948	2
196.1109	1
197.0797	2
197.0953	11
198.0658	130
199.0394	1
199.0683	14
199.0949	2
199.1083	1
199.1261	1
200.0821	106
200.9977	1
201.0073	1
201.079	2
201.0888	3
201.0996	3
201.1587	1
201.9827	1
202.0913	1
202.1547	2
203.1035	1
205.0831	1
206.0601	2
209.0932	2
210.1101	2
210.9917	1
211.1072	1
212.0533	1
212.0765	1
213.0932	1
213.1138	2
213.976	3
214.0964	11
215.0804	3
215.1025	1
216.0768	213
217.0098	4
217.025	1
217.0792	25
218.0935	10
219.0892	3
219.1166	1
221.0884	1
223.108	1
224.1196	4
225.078	3
225.1043	3
226.06	5
226.0815	2
226.0998	2
227.0612	2
228.0638	1
228.0921	1
228.1133	3
229.088	2
229.1176	2
230.129	1
235.1691	1
235.9991	1
238.047	3
240.1197	1
241.0129	2
241.1165	1
242.0653	1
243.0877	999
244.0716	10
244.0915	111
245.0623	2
245.0935	9
248.1521	1
249.0152	1
249.9919	1
251.9865	1
252.1132	2
254.0893	3
256.0964	1
257.1012	1
257.1161	1
258.123	1
261.1066	1
263.1382	1
270.05	1
270.1197	2
271.1197	1
274.1156	2
280.0993	2
285.0693	2
285.0982	2
286.1024	2
297.0991	1
300.1097	1
315.1048	2
316.1308	6
316.1614	1
318.0276	1
318.1334	1
323.109	2
341.1271	3
342.1298	2
359.019	1
359.1337	4
360.1364	4
377.1458	5
379.0436	2
380.0845	1
386.9854	1
