Mass spectrum: 2-Hydroxyphenanzine; LC-ESI-QTOF; MS2; CE: 40; R=; [M+H]+
Name: 2-Hydroxyphenanzine
Formula: C12H8N2O
Exact mass: 196.06366
SMILES: c1ccc2c(c1)nc3ccc(cc3n2)O
InChI: InChI=1S/C12H8N2O/c15-8-5-6-11-12(7-8)14-10-4-2-1-3-9(10)13-11/h1-7,15H
Instrument: maXis plus UHR-ToF-MS, Bruker Daltonics
Instrument type: LC-ESI-QTOF
Ms type: MS2
Ion mode: POSITIVE
Ionization: ESI
Fragmentation mode: CID
Collision energy: 40
Column name: BEH C18 1.7um, 2.1x100mm, Waters
Retention time: 3.683 min
Base peak: 197.0712
Precursor m/z: 197.0709
Precursor type: [M+H]+
m/z	relative intensity
55.0167	4
69.0326	3
75.0223	24
78.0331	125
79.0409	75
80.0123	16
80.0456	4
81.0325	3
86.0028	1
89.0382	17
90.0335	10
91.0536	32
92.049	56
93.033	13
94.0276	1
95.0487	242
96.044	31
97.0526	1
101.0384	1
102.0336	29
103.0414	5
104.0493	5
105.0445	81
106.0481	4
110.059	1
111.0441	10
113.0383	1
114.0334	1
114.0459	8
115.0542	265
116.0496	50
117.0571	20
118.0649	10
119.0607	12
120.0444	13
121.0396	4
125.0388	9
128.0491	16
129.0446	35
130.04	31
132.0557	1
134.0612	3
140.0496	19
141.0573	22
142.0527	7
142.065	33
143.0608	18
144.044	2
144.0629	2
145.0392	1
147.0552	1
151.0405	1
152.049	43
153.0444	19
154.0471	1
154.0649	1
155.0603	2
166.0527	3
167.06	30
168.0676	999
169.0753	900
170.0597	11
171.0545	3
179.0599	98
180.0635	9
185.0697	1
195.055	2
196.0629	13
197.0706	344
199.0757	2
