Mass spectrum: Dipropylphthalate; LC-ESI-QTOF; MS2; CE: 40; R=; [M+H]+
Name: Dipropylphthalate
Name: Dipropyl phthalate
Name: dipropyl benzene-1,2-dicarboxylate
Formula: C14H18O4
Exact mass: 250.12051
SMILES: CCCOC(=O)c1ccccc1C(=O)OCCC
InChI: InChI=1S/C14H18O4/c1-3-9-17-13(15)11-7-5-6-8-12(11)14(16)18-10-4-2/h5-8H,3-4,9-10H2,1-2H3
Instrument: maXis plus UHR-ToF-MS, Bruker Daltonics
Instrument type: LC-ESI-QTOF
Ms type: MS2
Ion mode: POSITIVE
Ionization: ESI
Fragmentation mode: CID
Collision energy: 40
Column name: BEH C18 1.7um, 2.1x100mm, Waters
Retention time: 5.535 min
Base peak: 149.0243
Precursor m/z: 251.1278
Precursor type: [M+H]+
m/z	relative intensity
80.025	11
93.0327	272
98.036	1
111.0439	48
112.0472	2
121.0284	608
121.0386	205
122.0321	39
149.0236	999
150.027	84
151.0286	6
167.0337	1
