Mass spectrum: Folic acid; LC-ESI-QTOF; MS2; CE: 10; R=; [M+H]+
Name: Folic acid
Name: (2S)-2-[[4-[(2-amino-4-oxo-1H-pteridin-6-yl)methylamino]benzoyl]amino]pentanedioic acid
Name: Vitamin B11
Name: Vitamin B9
Name: Vitamin M
Formula: C19H19N7O6
Exact mass: 441.139681
SMILES: C1=CC(=CC=C1C(=O)N[C@@H](CCC(=O)O)C(=O)O)NCC2=CN=C3C(=N2)C(=O)NC(=N3)N
InChI: InChI=1S/C19H19N7O6/c20-19-25-15-14(17(30)26-19)23-11(8-22-15)7-21-10-3-1-9(2-4-10)16(29)24-12(18(31)32)5-6-13(27)28/h1-4,8,12,21H,5-7H2,(H,24,29)(H,27,28)(H,31,32)(H3,20,22,25,26,30)/t12-/m0/s1
Instrument: maXis plus UHR-ToF-MS, Bruker Daltonics
Instrument type: LC-ESI-QTOF
Ms type: MS2
Ion mode: POSITIVE
Ionization: ESI
Fragmentation mode: CID
Collision energy: 10
Column name: BEH C18 1.7um, 2.1x100mm, Waters
Retention time: 2.478 min
Base peak: 442.1468
Precursor m/z: 442.147
Precursor type: [M+H]+
m/z	relative intensity
58.1103	1
78.1271	1
98.0734	1
111.9872	1
157.1153	1
169.0872	1
186.0602	1
186.0856	1
205.0517	1
215.0759	1
217.9987	1
229.0469	1
237.0638	1
246.1543	1
251.9875	1
254.1091	1
261.0433	1
269.112	1
280.9803	1
293.086	2
295.0937	999
296.0966	149
297.0995	9
313.1045	39
314.1068	6
318.0927	1
340.9993	1
345.1515	1
420.0026	1
424.135	1
440.1314	8
441.1348	3
442.1467	713
444.1522	16
