Mass spectrum: Pseudouridine; LC-ESI-QTOF; MS2; CE: 20; R=; [M-H]-
Name: Pseudouridine
Name: 5-[(2S,3R,4S,5R)-3,4-dihydroxy-5-(hydroxymethyl)oxolan-2-yl]-1H-pyrimidine-2,4-dione
Formula: C9H12N2O6
Exact mass: 244.0695
SMILES: c1c(c(nc(n1)O)O)[C@H]2[C@@H]([C@@H]([C@H](O2)CO)O)O
InChI: InChI=1S/C9H12N2O6/c12-2-4-5(13)6(14)7(17-4)3-1-10-9(16)11-8(3)15/h1,4-7,12-14H,2H2,(H2,10,11,15,16)/t4-,5-,6-,7+/m1/s1
Instrument: maXis plus UHR-ToF-MS, Bruker Daltonics
Instrument type: LC-ESI-QTOF
Ms type: MS2
Ion mode: NEGATIVE
Ionization: ESI
Fragmentation mode: CID
Collision energy: 20
Column name: BEH C18 1.7um, 2.1x100mm, Waters
Retention time: 0.643 min
Base peak: 243.0623
Precursor m/z: 243.0623
Precursor type: [M-H]-
m/z	relative intensity
83.0129	6
89.0263	6
97.0299	12
111.0204	17
140.0366	29
141.0442	7
153.031	999
154.0349	20
155.0352	12
183.0415	190
243.0636	74
