Mass spectrum: Eicosapentaenoic acid; LC-ESI-QTOF; MS2; CE: 10; R=; [M+H]+
Name: Eicosapentaenoic acid
Name: (5Z,8Z,11Z,14Z,17Z)-icosa-5,8,11,14,17-pentaenoic acid
Formula: C20H30O2
Exact mass: 302.2246
SMILES: CC/C=C\C/C=C\C/C=C\C/C=C\C/C=C\CCCC(=O)O
InChI: InChI=1S/C20H30O2/c1-2-3-4-5-6-7-8-9-10-11-12-13-14-15-16-17-18-19-20(21)22/h3-4,6-7,9-10,12-13,15-16H,2,5,8,11,14,17-19H2,1H3,(H,21,22)/b4-3-,7-6-,10-9-,13-12-,16-15-
Instrument: maXis plus UHR-ToF-MS, Bruker Daltonics
Instrument type: LC-ESI-QTOF
Ms type: MS2
Ion mode: POSITIVE
Ionization: ESI
Fragmentation mode: CID
Collision energy: 10
Column name: BEH C18 1.7um, 2.1x100mm, Waters
Retention time: 6.590 min
Base peak: 88.075
Precursor m/z: 303.2319
Precursor type: [M+H]+
m/z	relative intensity
45.0572	1
63.1749	1
83.0128	1
87.1171	1
91.0546	2
91.112	1
94.0739	1
95.0851	2
103.1001	2
109.052	1
114.0308	1
126.0419	2
129.0412	2
135.0191	1
137.0697	2
137.1037	1
139.2434	2
143.999	1
145.0976	1
147.0802	1
147.2304	1
148.1695	2
149.0965	1
149.1039	1
149.1332	2
150.0903	1
151.1471	1
154.0786	1
158.1297	1
161.1339	2
162.0795	1
163.0289	1
163.1105	2
164.0842	1
164.1204	1
165.1281	2
167.0594	2
167.1079	7
168.1264	1
168.1608	2
173.1336	5
175.1235	1
175.1493	10
175.1792	1
177.1632	2
178.0419	1
179.1076	3
180.0304	2
181.122	5
183.1176	1
187.1109	1
189.1633	6
189.9917	1
190.1693	2
191.2001	1
193.0898	2
193.1224	4
194.1297	1
194.2017	1
195.1133	1
195.1377	2
197.1317	1
198.139	1
198.2227	1
199.013	1
199.1373	1
200.2368	1
201.1631	3
201.9912	2
203.1792	7
207.0246	1
207.1184	1
207.1377	7
212.1546	1
214.0173	1
215.1432	2
216.0007	1
216.1527	1
219.0311	1
219.1627	2
221.1536	6
222.1255	1
226.015	2
229.1587	4
231.1837	2
232.0738	1
233.0282	1
233.1533	6
235.1325	2
236.0008	1
236.1384	1
241.1092	1
243.0293	1
243.2097	2
243.2192	2
244.2134	1
245.9961	1
248.1457	1
257.1904	2
258.1251	1
259.0365	1
261.1863	6
264.1383	2
265.0515	2
267.0441	1
267.2104	18
268.2172	2
269.2033	2
270.1468	1
274.239	1
276.1244	1
279.009	1
282.1139	1
284.0474	4
285.1961	4
285.2212	61
286.1082	1
286.2239	7
289.1933	1
293.1872	2
299.1662	5
299.1856	7
300.1856	1
301.1658	1
303.2319	999
306.1946	1
