Mass spectrum: Octanoyl-L-Carnitine; LC-ESI-QTOF; MS2; CE: 40; R=; [M+H]+
Name: Octanoyl-L-Carnitine
Name: L-Octanoylcarnitine
Name: (3R)-3-octanoyloxy-4-(trimethylazaniumyl)butanoate
Formula: C15H29NO4
Exact mass: 287.2097
SMILES: CCCCCCCC(=O)O[C@H](CC(=O)[O-])C[N+](C)(C)C
InChI: InChI=1S/C15H29NO4/c1-5-6-7-8-9-10-15(19)20-13(11-14(17)18)12-16(2,3)4/h13H,5-12H2,1-4H3/t13-/m1/s1
Instrument: maXis plus UHR-ToF-MS, Bruker Daltonics
Instrument type: LC-ESI-QTOF
Ms type: MS2
Ion mode: POSITIVE
Ionization: ESI
Fragmentation mode: CID
Collision energy: 40
Column name: BEH C18 1.7um, 2.1x100mm, Waters
Retention time: 3.866 min
Base peak: 288.2176
Precursor m/z: 288.2169
Precursor type: [M+H]+
m/z	relative intensity
57.0329	16
57.0694	24
58.0647	8
67.0536	6
84.0805	10
85.0279	999
89.0594	1
144.1012	1
