Mass spectrum: 3-Hydroxyphenylacetic acid; LC-ESI-QTOF; MS2; CE: 40; R=; [M-H]-
Name: 3-Hydroxyphenylacetic acid
Name: 2-(3-hydroxyphenyl)acetic acid
Formula: C8H8O3
Exact mass: 152.0473
SMILES: OC(=O)Cc1cccc(O)c1
InChI: InChI=1S/C8H8O3/c9-7-3-1-2-6(4-7)5-8(10)11/h1-4,9H,5H2,(H,10,11)
Instrument: maXis plus UHR-ToF-MS, Bruker Daltonics
Instrument type: LC-ESI-QTOF
Ms type: MS2
Ion mode: NEGATIVE
Ionization: ESI
Fragmentation mode: CID
Collision energy: 40
Column name: BEH C18 1.7um, 2.1x100mm, Waters
Retention time: 2.850 min
Base peak: 107.0504
Precursor m/z: 151.0401
Precursor type: [M-H]-
m/z	relative intensity
65.0396	999
67.0186	192
107.0505	59
