Mass spectrum: N-Alpha-Acetyl-Ornithine; LC-ESI-QTOF; MS2; CE: 40; R=; [M+H]+
Name: N-Alpha-Acetyl-Ornithine
Name: N-acetylornithine
Name: (2S)-2-acetamido-5-aminopentanoic acid
Formula: C7H14N2O3
Exact mass: 174.1004
SMILES: CC(=O)N[C@@H](CCCN)C(O)=O
InChI: InChI=1S/C7H14N2O3/c1-5(10)9-6(7(11)12)3-2-4-8/h6H,2-4,8H2,1H3,(H,9,10)(H,11,12)/t6-/m0/s1
Instrument: maXis plus UHR-ToF-MS, Bruker Daltonics
Instrument type: LC-ESI-QTOF
Ms type: MS2
Ion mode: POSITIVE
Ionization: ESI
Fragmentation mode: CID
Collision energy: 40
Column name: BEH C18 1.7um, 2.1x100mm, Waters
Retention time: 0.602 min
Base peak: 175.1074
Precursor m/z: 175.1077
Precursor type: [M+H]+
m/z	relative intensity
57.9928	5
60.0431	60
60.0555	3
64.0152	7
65.997	3
66.0316	2
69.0336	22
69.0697	2
71.0481	999
73.0863	2
74.0229	390
75.0195	5
76.0261	5
80.0497	16
81.0335	19
82.0656	2
86.0582	4
87.0919	11
88.075	56
97.0757	82
98.06	87
99.0449	13
115.0864	22
116.0709	19
