Mass spectrum: L-Methionine; LC-ESI-QTOF; MS2; CE: 10; R=; [M+H]+
Name: L-Methionine
Name: (2S)-2-amino-4-methylsulfanylbutanoic acid
Formula: C5H11NO2S
Exact mass: 149.05105
SMILES: CSCC[C@@H](C(=O)O)N
InChI: InChI=1S/C5H11NO2S/c1-9-3-2-4(6)5(7)8/h4H,2-3,6H2,1H3,(H,7,8)/t4-/m0/s1
Instrument: maXis plus UHR-ToF-MS, Bruker Daltonics
Instrument type: LC-ESI-QTOF
Ms type: MS2
Ion mode: POSITIVE
Ionization: ESI
Fragmentation mode: CID
Collision energy: 10
Column name: BEH C18 1.7um, 2.1x100mm, Waters
Retention time: 0.698 min
Base peak: 104.0526
Precursor m/z: 150.0583
Precursor type: [M+H]+
m/z	relative intensity
74.023	17
74.0595	46
74.989	1
75.0257	2
84.044	13
85.0282	6
87.026	18
89.0215	1
102.0549	154
103.0581	5
104.0527	999
105.0359	3
107.0524	2
133.0318	194
150.0582	264
153.0572	1
