Mass spectrum: Glycohyocholic acid; LC-ESI-QTOF; MS2; CE: 40; R=; [M+H]+
Name: Glycohyocholic acid
Name: AM022340
Name: 2-[4-(3,6,7-trihydroxy-10,13-dimethyl-2,3,4,5,6,7,8,9,11,12,14,15,16,17-tetradecahydro-1H-cyclopenta[a]phenanthren-17-yl)pentanoylamino]acetic acid
Formula: C26H43NO6
Exact mass: 465.3090
SMILES: CC(CCC(=O)NCC(=O)O)C1CCC2C1(CCC3C2C(C(C4C3(CCC(C4)O)C)O)O)C
InChI: InChI=1S/C26H43NO6/c1-14(4-7-20(29)27-13-21(30)31)16-5-6-17-22-18(9-11-25(16,17)2)26(3)10-8-15(28)12-19(26)23(32)24(22)33/h14-19,22-24,28,32-33H,4-13H2,1-3H3,(H,27,29)(H,30,31)
Instrument: maXis plus UHR-ToF-MS, Bruker Daltonics
Instrument type: LC-ESI-QTOF
Ms type: MS2
Ion mode: POSITIVE
Ionization: ESI
Fragmentation mode: CID
Collision energy: 40
Column name: BEH C18 1.7um, 2.1x100mm, Waters
Retention time: 4.069 min
Base peak: 466.3164
Precursor m/z: 466.3163
Precursor type: [M+H]+
m/z	relative intensity
49.0761	1
49.1946	1
53.0391	1
53.2838	1
55.0538	3
59.0478	2
61.064	1
66.0342	1
67.0537	69
69.0416	1
69.0696	13
69.128	1
70.0978	1
71.0484	1
72.032	1
72.2451	1
75.2926	1
76.0387	999
78.0421	4
78.0542	1
78.2921	1
79.0538	21
79.2061	1
81.0696	93
82.073	4
83.0483	4
83.0849	21
84.0424	2
84.0807	2
85.0643	103
87.268	1
89.32	1
91.0538	11
93.0696	55
94.073	5
95.0852	60
96.0052	1
96.0889	7
97.0633	3
97.1014	5
98.0372	1
98.0484	1
99.0405	1
99.0802	4
100.0501	1
100.0598	1
101.059	1
101.1047	1
101.1895	1
103.2513	1
104.3318	1
105.0693	43
106.0727	3
107.0483	4
107.0856	40
108.0897	7
108.2665	1
109.0654	1
109.1011	27
110.1052	3
111.0814	6
112.9978	1
115.0497	1
115.06	1
115.2133	1
116.1061	1
116.1501	1
117.0691	5
117.9924	1
119.0374	1
119.0471	1
119.0863	15
119.1047	1
120.0554	2
120.0892	3
120.1366	1
121.063	2
121.1013	19
122.0717	1
122.1023	3
122.1866	1
122.3255	1
123.08	9
124.0354	2
124.0765	1
124.1234	1
124.2397	1
125.0192	1
125.0959	5
126.1338	1
127.2423	1
128.0137	1
128.0672	1
129.3393	1
130.0505	1
131.0859	9
131.1653	1
131.9679	1
131.9804	1
132.0625	1
133.0712	1
133.1009	18
134.1028	1
135.0231	1
135.0545	1
135.0758	1
135.1161	10
135.1627	1
135.1839	1
136.2062	1
137.0967	3
137.116	1
137.3124	1
137.967	1
139.2351	1
140.0269	2
140.1777	1
140.2566	1
140.2949	1
141.017	1
141.067	1
142.0523	1
142.0822	1
143.0861	8
144.0876	1
144.1599	1
145.1009	18
145.2819	1
145.2937	1
146.1055	3
146.1528	3
146.3062	1
147.1163	46
148.0478	1
148.119	7
148.2052	1
149.0331	1
149.0975	2
149.1325	18
149.256	1
150.0981	1
151.1129	4
152.1066	1
152.1173	1
152.2116	1
152.9824	1
153.0196	1
153.0688	1
153.1242	1
153.2058	1
154.0772	1
154.2644	1
155.0857	10
155.3041	1
155.9979	1
156.0136	1
156.0649	7
156.0932	2
157.1007	27
157.2467	1
158.0811	33
158.1027	3
159.1163	133
160.1196	17
160.227	1
161.0958	6
161.132	101
162.1005	1
162.1158	1
162.1351	9
162.2174	1
162.2863	1
162.336	1
163.0945	2
163.1111	17
163.1474	7
164.1146	1
164.177	1
164.3063	1
164.3149	1
165.0601	1
165.0685	1
165.1106	1
165.1266	4
166.1401	1
167.0856	4
168.0999	1
168.1362	1
168.2057	1
168.9967	1
169.0686	1
169.1004	12
169.1878	1
170.1042	3
170.2482	1
171.0803	1
171.1165	17
171.2911	1
172.0965	3
172.1232	1
172.2764	1
173.0952	4
173.1325	57
174.0299	1
174.1348	5
175.1111	32
175.1478	36
176.114	4
176.151	1
177.1274	24
178.0148	1
178.1295	4
179.0861	2
179.1794	1
179.2564	2
181.0066	1
181.0522	1
182.0835	1
182.1101	2
183.0811	1
183.1173	13
184.1013	1
184.1176	1
184.1749	1
185.1322	75
186.1066	1
186.1355	5
187.1125	10
187.1477	23
188.0998	1
188.1157	1
188.1508	3
189.1269	36
189.1634	7
189.9993	1
190.0273	1
190.1314	2
190.1669	1
191.106	1
191.1428	12
192.1109	1
192.1473	2
193.0975	1
193.1216	1
193.1588	1
195.0151	1
195.117	10
195.1377	1
196.0218	2
196.1258	3
196.3065	1
197.1325	29
198.0224	1
198.0535	1
198.074	1
198.1152	3
198.1369	3
199.1479	92
200.0657	1
200.1391	1
200.1512	11
200.2716	1
201.1278	7
201.1627	15
201.194	1
201.2628	2
202.132	1
202.1683	2
203.112	1
203.1425	9
203.1618	1
203.1797	5
203.2595	1
204.0318	1
204.1014	1
204.1475	3
204.1795	1
204.2448	1
204.2691	1
204.9939	1
205.1583	1
206.0765	1
206.154	1
207.0437	1
207.1093	1
207.1364	3
207.2598	1
208.1413	2
209.1325	55
210.1345	6
210.1932	1
210.316	1
211.1475	44
212.1173	1
212.1278	3
212.1535	12
213.1277	16
213.1635	78
214.1302	1
214.1667	12
215.031	1
215.1423	16
215.1792	20
215.3313	1
216.1446	3
216.1833	4
217.1582	12
217.1965	1
218.0425	2
218.0647	1
218.1616	2
219.1426	1
219.1803	1
220.1319	1
221.1325	3
222.1379	1
222.1596	1
223.1476	53
224.1266	3
224.1519	11
224.25	1
225.1242	2
225.1647	38
226.0969	1
226.1417	3
226.1674	6
227.1425	61
227.1802	40
228.1468	8
228.1827	5
228.2092	1
229.1581	25
229.1941	2
230.0232	1
230.0908	1
230.1618	4
231.0053	1
231.0163	1
231.1744	11
231.1961	1
231.204	1
232.1769	2
233.1899	1
233.984	1
234.9909	1
235.1464	5
236.1177	1
236.1303	2
236.1537	3
237.1628	32
237.9907	1
238.144	12
238.1654	3
238.2131	1
239.1491	3
239.1789	33
240.1612	2
240.1836	9
241.0625	2
241.1582	32
241.1953	19
241.994	1
242.1642	3
242.1964	3
243.151	1
243.1731	14
243.2145	1
244.1228	1
244.1753	1
244.1852	1
245.0474	1
245.1549	1
245.188	2
245.9781	1
247.1701	2
248.127	1
248.1651	1
249.0936	1
249.1641	15
250.1426	15
250.1685	3
251.1446	2
251.1793	17
252.0947	1
252.1595	9
252.1861	21
252.2101	1
253.1613	2
253.1949	23
254.199	7
254.2614	1
255.1736	23
255.2099	6
256.1765	2
256.2123	1
256.9991	1
257.1881	6
258.1034	1
258.1932	1
258.2645	1
259.1678	1
259.2057	2
261.1824	1
262.0355	1
262.2417	1
263.1797	25
264.0789	1
264.1592	13
264.1836	7
264.2637	1
265.164	3
265.1954	6
266.1636	1
266.1748	1
266.1982	1
267.1762	6
267.2098	7
268.2137	1
269.1898	11
270.0188	1
270.0533	1
270.1972	9
270.2852	1
271.2065	9
272.1158	1
272.2104	1
272.2579	1
273.145	2
273.1852	1
273.2625	1
273.9928	1
275.0905	1
275.3207	1
276.0886	1
276.1454	1
276.2581	1
277.1943	18
278.1764	2
278.1988	5
279.2102	4
280.2133	1
281.0743	1
281.1592	1
281.1884	14
281.2269	2
281.2465	1
282.1941	4
283.2052	4
283.2391	3
284.1927	1
284.2504	1
287.0453	1
287.206	1
288.0087	1
288.127	1
288.1588	1
289.1392	1
290.1794	1
290.2004	1
291.2112	9
292.1858	2
292.2125	3
292.9892	1
293.1993	2
293.2258	18
294.2321	3
295.1036	2
295.2062	11
295.2417	39
296.2065	1
296.2459	6
297.222	5
297.2566	1
298.1781	1
299.1993	1
299.2381	1
299.2972	1
301.246	1
302.1717	1
304.191	5
304.2189	4
305.0119	1
306.2536	1
307.2411	12
308.2478	3
308.3101	1
309.2223	9
309.2572	64
310.135	1
310.2255	1
310.2602	17
311.2349	1
311.2638	1
311.9938	1
313.2196	1
313.2525	3
316.1971	1
318.0015	1
318.2056	1
319.2417	328
320.245	80
321.2475	5
322.2564	1
325.2523	17
325.2869	1
326.2621	5
327.2151	1
327.269	12
328.2709	1
328.3118	1
330.3138	1
331.9746	1
332.2226	1
332.3218	1
333.2187	1
335.2254	1
336.2376	1
337.2524	470
338.255	135
339.2585	11
340.2752	1
342.2081	1
344.2241	1
346.2137	1
349.2026	1
353.2517	1
355.2636	179
356.2662	41
357.2681	4
366.2775	1
370.2325	1
371.2343	1
373.2739	4
374.272	2
384.2901	2
394.2766	3
395.2773	1
400.2849	6
402.2953	1
409.1861	1
412.2853	72
413.2876	29
414.2906	3
422.2446	1
424.1085	1
430.294	18
430.9795	1
431.2965	5
432.2932	1
453.2292	1
