Mass spectrum: Myristic acid; LC-ESI-QTOF; MS2; CE: 10; R=; [M+H]+
Name: Myristic acid
Name: tetradecanoic acid
Formula: C14H28O2
Exact mass: 228.2089
SMILES: CCCCCCCCCCCCCC(=O)O
InChI: InChI=1S/C14H28O2/c1-2-3-4-5-6-7-8-9-10-11-12-13-14(15)16/h2-13H2,1H3,(H,15,16)
Instrument: maXis plus UHR-ToF-MS, Bruker Daltonics
Instrument type: LC-ESI-QTOF
Ms type: MS2
Ion mode: POSITIVE
Ionization: ESI
Fragmentation mode: CID
Collision energy: 10
Column name: BEH C18 1.7um, 2.1x100mm, Waters
Retention time: 6.807 min
Base peak: 229.2167
Precursor m/z: 229.2162
Precursor type: [M+H]+
m/z	relative intensity
121.0072	8
153.1008	11
159.1385	9
167.1428	14
179.0469	7
190.1216	9
191.1808	10
195.1136	13
200.2147	9
209.1898	17
225.1964	8
228.1607	7
229.2164	999
231.2204	9
