Mass spectrum: C12-homoserine lactone; LC-ESI-QTOF; MS2; CE: 40; R=; [M+H]+
Name: C12-homoserine lactone
Name: N-Dodecanoyl-DL-homoserine lactone
Name: N-(2-oxooxolan-3-yl)dodecanamide
Formula: C16H29NO3
Exact mass: 283.21474
SMILES: CCCCCCCCCCCC(=O)NC1CCOC1=O
InChI: InChI=1S/C16H29NO3/c1-2-3-4-5-6-7-8-9-10-11-15(18)17-14-12-13-20-16(14)19/h14H,2-13H2,1H3,(H,17,18)
Instrument: maXis plus UHR-ToF-MS, Bruker Daltonics
Instrument type: LC-ESI-QTOF
Ms type: MS2
Ion mode: POSITIVE
Ionization: ESI
Fragmentation mode: CID
Collision energy: 40
Column name: BEH C18 1.7um, 2.1x100mm, Waters
Retention time: 5.799 min
Base peak: 284.2218
Precursor m/z: 284.222
Precursor type: [M+H]+
m/z	relative intensity
68.0712	2
70.0652	2
72.0314	2
74.0231	485
74.0595	999
76.0263	2
76.2055	2
78.2216	2
81.0693	371
82.065	5
83.0854	78
84.044	117
85.0278	126
85.063	8
85.101	104
93.0694	24
94.066	3
94.074	2
95.0853	321
96.0888	29
97.1003	17
99.1174	8
101.2272	2
102.0549	233
105.0698	2
109.1014	37
110.104	8
149.0247	3
149.0372	3
166.1701	3
183.1744	14
