Mass spectrum: Folic acid; LC-ESI-QTOF; MS2; CE: 40; R=; [M-H]-
Name: Folic acid
Name: (2S)-2-[[4-[(2-amino-4-oxo-1H-pteridin-6-yl)methylamino]benzoyl]amino]pentanedioic acid
Name: Vitamin B11
Name: Vitamin B9
Name: Vitamin M
Formula: C19H19N7O6
Exact mass: 441.139681
SMILES: C1=CC(=CC=C1C(=O)N[C@@H](CCC(=O)O)C(=O)O)NCC2=CN=C3C(=N2)C(=O)NC(=N3)N
InChI: InChI=1S/C19H19N7O6/c20-19-25-15-14(17(30)26-19)23-11(8-22-15)7-21-10-3-1-9(2-4-10)16(29)24-12(18(31)32)5-6-13(27)28/h1-4,8,12,21H,5-7H2,(H,24,29)(H,27,28)(H,31,32)(H3,20,22,25,26,30)/t12-/m0/s1
Instrument: maXis plus UHR-ToF-MS, Bruker Daltonics
Instrument type: LC-ESI-QTOF
Ms type: MS2
Ion mode: NEGATIVE
Ionization: ESI
Fragmentation mode: CID
Collision energy: 40
Column name: BEH C18 1.7um, 2.1x100mm, Waters
Retention time: 2.476 min
Base peak: 440.1306
Precursor m/z: 440.1324
Precursor type: [M-H]-
m/z	relative intensity
90.0076	10
92.0486	37
102.0544	31
119.0376	9
124.0401	13
128.038	9
148.0651	15
148.087	9
151.0368	10
160.1082	10
162.0472	31
168.0536	8
174.0469	19
175.0544	795
176.0608	94
177.1061	51
181.1517	11
198.059	8
203.0863	42
207.0454	43
220.0901	31
221.0983	202
222.0861	27
222.1013	16
224.0968	23
225.0543	12
225.1042	10
226.0662	8
237.0946	8
250.0771	21
253.1131	9
265.0888	19
266.0956	12
267.1048	67
268.0897	34
268.1124	8
280.1142	9
282.0986	10
284.1052	17
289.0987	10
292.1006	23
293.0833	176
294.0956	9
303.9754	9
308.1236	14
309.1071	8
310.1103	29
310.1316	9
311.0937	999
312.0966	84
326.1291	39
327.1336	14
334.145	32
335.1303	109
336.1287	15
337.1302	12
350.0178	9
353.1395	206
354.1452	38
378.133	263
379.1321	15
386.0656	8
396.1425	446
422.1186	12
440.1321	29
