Mass spectrum: 1-palmitoyl-2-hydroxy-sn-glycero-3-phosphoethanolamine; LC-ESI-QTOF; MS2; CE: 10; R=; [M+H]+
Name: 1-palmitoyl-2-hydroxy-sn-glycero-3-phosphoethanolamine
Name: 1-palmitoyl-sn-glycero-3-phosphoethanolamine
Name: 2-azaniumylethyl [(2R)-3-hexadecanoyloxy-2-hydroxypropyl] phosphate
Formula: C21H44NO7P
Exact mass: 453.2855
SMILES: [H][C@@](O)(COC(=O)CCCCCCCCCCCCCCC)COP(O)(=O)OCCN
InChI: InChI=1S/C21H44NO7P/c1-2-3-4-5-6-7-8-9-10-11-12-13-14-15-21(24)27-18-20(23)19-29-30(25,26)28-17-16-22/h20,23H,2-19,22H2,1H3,(H,25,26)/t20-/m1/s1
Instrument: maXis plus UHR-ToF-MS, Bruker Daltonics
Instrument type: LC-ESI-QTOF
Ms type: MS2
Ion mode: POSITIVE
Ionization: ESI
Fragmentation mode: CID
Collision energy: 10
Column name: BEH C18 1.7um, 2.1x100mm, Waters
Retention time: 5.967 min
Base peak: 454.2924
Precursor m/z: 454.2928
Precursor type: [M+H]+
m/z	relative intensity
216.0618	1
313.2736	62
314.2772	5
393.2401	4
436.2824	162
437.2858	25
438.2889	2
454.2927	999
456.2996	34
