Mass spectrum: Isoquercetin; LC-ESI-QTOF; MS2; CE: 20; R=; [M+H]+
Name: Isoquercetin
Name: Isoquercitrin
Name: 2-(3,4-dihydroxyphenyl)-5,7-dihydroxy-3-[(2S,3R,4S,5S,6R)-3,4,5-trihydroxy-6-(hydroxymethyl)oxan-2-yl]oxychromen-4-one
Formula: C21H20O12
Exact mass: 464.0955
SMILES: C1=CC(=C(C=C1C2=C(C(=O)C3=C(C=C(C=C3O2)O)O)O[C@H]4[C@@H]([C@H]([C@@H]([C@H](O4)CO)O)O)O)O)O
InChI: InChI=1S/C21H20O12/c22-6-13-15(27)17(29)18(30)21(32-13)33-20-16(28)14-11(26)4-8(23)5-12(14)31-19(20)7-1-2-9(24)10(25)3-7/h1-5,13,15,17-18,21-27,29-30H,6H2/t13-,15-,17+,18-,21+/m1/s1
Instrument: maXis plus UHR-ToF-MS, Bruker Daltonics
Instrument type: LC-ESI-QTOF
Ms type: MS2
Ion mode: POSITIVE
Ionization: ESI
Fragmentation mode: CID
Collision energy: 20
Column name: BEH C18 1.7um, 2.1x100mm, Waters
Retention time: 3.034 min
Base peak: 465.1025
Precursor m/z: 465.1028
Precursor type: [M+H]+
m/z	relative intensity
85.0279	37
87.0434	2
91.0382	3
97.0281	8
99.0434	1
127.0382	1
145.0492	2
301.0339	20
302.0379	2
303.0494	999
304.0531	199
305.0556	20
465.1009	1
