Mass spectrum: Theobromine; LC-ESI-QTOF; MS2; CE: 40; R=; [M+H]+
Name: Theobromine
Name: 3,7-dimethylpurine-2,6-dione
Formula: C7H8N4O2
Exact mass: 180.0647
SMILES: CN1C=NC2=C1C(=O)NC(=O)N2C
InChI: InChI=1S/C7H8N4O2/c1-10-3-8-5-4(10)6(12)9-7(13)11(5)2/h3H,1-2H3,(H,9,12,13)
Instrument: maXis plus UHR-ToF-MS, Bruker Daltonics
Instrument type: LC-ESI-QTOF
Ms type: MS2
Ion mode: POSITIVE
Ionization: ESI
Fragmentation mode: CID
Collision energy: 40
Column name: BEH C18 1.7um, 2.1x100mm, Waters
Retention time: 1.550 min
Base peak: 181.0717
Precursor m/z: 181.072
Precursor type: [M+H]+
m/z	relative intensity
54.0214	27
70.0286	54
79.0287	110
80.0133	34
81.0444	138
82.0291	34
82.0518	88
83.06	999
85.0389	245
93.0324	78
94.038	64
95.0237	56
95.0483	96
96.0551	30
108.0559	154
110.0706	203
122.0588	185
123.0423	159
124.0457	21
138.0646	110
148.0383	56
154.0619	28
163.0622	85
167.0568	24
