Mass spectrum: 3-oxo-C8-homoserine lactone; LC-ESI-QTOF; MS2; CE: 40; R=; [M+H]+
Name: 3-oxo-C8-homoserine lactone
Name: N-(3X-Oxooctanoyl)-DL-homoserine lactone
Name: 3-oxo-N-(2-oxooxolan-3-yl)octanamide
Formula: C12H19NO4
Exact mass: 241.13141
SMILES: CCCCCC(=O)CC(=O)NC1CCOC1=O
InChI: InChI=1S/C12H19NO4/c1-2-3-4-5-9(14)8-11(15)13-10-6-7-17-12(10)16/h10H,2-8H2,1H3,(H,13,15)
Instrument: maXis plus UHR-ToF-MS, Bruker Daltonics
Instrument type: LC-ESI-QTOF
Ms type: MS2
Ion mode: POSITIVE
Ionization: ESI
Fragmentation mode: CID
Collision energy: 40
Column name: BEH C18 1.7um, 2.1x100mm, Waters
Retention time: 3.788 min
Base peak: 242.1382
Precursor m/z: 242.1387
Precursor type: [M+H]+
m/z	relative intensity
52.0762	1
55.0163	2
55.0537	9
57.0325	20
67.0173	2
68.9966	114
69.0695	15
70.0282	24
70.1232	1
71.0122	186
71.0849	999
73.0276	3
74.0231	672
74.0594	829
75.0194	2
75.0557	3
76.0269	2
79.0536	5
81.0324	15
81.0697	17
83.0479	3
83.0862	3
84.0441	175
85.0285	51
86.0479	1
91.0544	1
93.0702	6
95.0488	3
95.085	27
97.0611	2
98.0604	18
98.0959	1
99.0438	27
99.08	67
102.0545	171
113.0599	5
139.1474	1
141.0904	32
142.0241	1
142.0956	2
