Mass spectrum: L-Methionine; LC-ESI-QTOF; MS2; CE: 40; R=; [M+H]+
Name: L-Methionine
Name: (2S)-2-amino-4-methylsulfanylbutanoic acid
Formula: C5H11NO2S
Exact mass: 149.05105
SMILES: CSCC[C@@H](C(=O)O)N
InChI: InChI=1S/C5H11NO2S/c1-9-3-2-4(6)5(7)8/h4H,2-3,6H2,1H3,(H,7,8)/t4-/m0/s1
Instrument: maXis plus UHR-ToF-MS, Bruker Daltonics
Instrument type: LC-ESI-QTOF
Ms type: MS2
Ion mode: POSITIVE
Ionization: ESI
Fragmentation mode: CID
Collision energy: 40
Column name: BEH C18 1.7um, 2.1x100mm, Waters
Retention time: 0.698 min
Base peak: 104.0526
Precursor m/z: 150.0583
Precursor type: [M+H]+
m/z	relative intensity
53.029	20
54.0333	31
57.0333	15
59.9902	19
60.0677	11
64.0086	16
66.034	9
67.0416	11
68.0247	14
70.9944	491
74.0231	999
74.0598	52
74.9899	63
75.0009	11
77.0061	39
84.0445	143
85.0278	35
86.9897	17
87.0256	185
102.0545	60
104.0527	26
