Mass spectrum: Adenosine; LC-ESI-QTOF; MS2; CE: 20; R=; [M+H]+
Name: Adenosine
Name: (2R,3R,4S,5R)-2-(6-aminopurin-9-yl)-5-(hydroxymethyl)oxolane-3,4-diol
Formula: C10H13N5O4
Exact mass: 267.0968
SMILES: NC1=C2N=CN([C@@H]3O[C@H](CO)[C@@H](O)[C@H]3O)C2=NC=N1
InChI: InChI=1S/C10H13N5O4/c11-8-5-9(13-2-12-8)15(3-14-5)10-7(18)6(17)4(1-16)19-10/h2-4,6-7,10,16-18H,1H2,(H2,11,12,13)/t4-,6-,7-,10-/m1/s1
Instrument: maXis plus UHR-ToF-MS, Bruker Daltonics
Instrument type: LC-ESI-QTOF
Ms type: MS2
Ion mode: POSITIVE
Ionization: ESI
Fragmentation mode: CID
Collision energy: 20
Column name: BEH C18 1.7um, 2.1x100mm, Waters
Retention time: 0.724 min
Base peak: 268.1036
Precursor m/z: 268.104
Precursor type: [M+H]+
m/z	relative intensity
57.033	9
61.028	2
69.033	6
71.0122	4
73.0275	13
77.023	1
85.0279	15
87.0433	2
94.0406	1
97.0282	6
103.0385	3
115.0393	7
119.0361	2
133.0492	4
134.0539	1
136.0618	999
137.0646	63
188.071	1
268.1041	211
270.1065	1
