Mass spectrum: Linoleic acid; LC-ESI-QTOF; MS2; CE: 40; R=; [M+H]+
Name: Linoleic acid
Name: (9Z,12Z)-octadeca-9,12-dienoic acid
Formula: C18H32O2
Exact mass: 280.2402
SMILES: CCCCC/C=C\C/C=C\CCCCCCCC(=O)O
InChI: InChI=1S/C18H32O2/c1-2-3-4-5-6-7-8-9-10-11-12-13-14-15-16-17-18(19)20/h6-7,9-10H,2-5,8,11-17H2,1H3,(H,19,20)/b7-6-,10-9-
Instrument: maXis plus UHR-ToF-MS, Bruker Daltonics
Instrument type: LC-ESI-QTOF
Ms type: MS2
Ion mode: POSITIVE
Ionization: ESI
Fragmentation mode: CID
Collision energy: 40
Column name: BEH C18 1.7um, 2.1x100mm, Waters
Retention time: 6.958 min
Base peak: 88.0749
Precursor m/z: 281.2475
Precursor type: [M+H]+
m/z	relative intensity
55.0174	27
57.0698	74
59.0486	60
68.0576	48
72.0439	33
72.0802	38
77.038	65
81.0694	999
83.049	98
83.0854	456
84.0926	47
87.0437	26
88.0748	30
92.0575	67
93.0697	272
95.0851	532
97.1007	113
108.0899	30
123.118	59
149.0233	74
151.1469	27
160.0762	29
