Mass spectrum: Docosahexaenoyl Ethanolamide; LC-ESI-QTOF; MS2; CE: 20; R=; [M+H]+
Name: Docosahexaenoyl Ethanolamide
Name: Synaptamide
Name: (4Z,7Z,10Z,13Z,16Z,19Z)-N-(2-hydroxyethyl)docosa-4,7,10,13,16,19-hexaenamide
Formula: C24H37NO2
Exact mass: 371.28243
SMILES: CC/C=C\C/C=C\C/C=C\C/C=C\C/C=C\C/C=C\CCC(=O)NCCO
InChI: InChI=1S/C24H37NO2/c1-2-3-4-5-6-7-8-9-10-11-12-13-14-15-16-17-18-19-20-21-24(27)25-22-23-26/h3-4,6-7,9-10,12-13,15-16,18-19,26H,2,5,8,11,14,17,20-23H2,1H3,(H,25,27)/b4-3-,7-6-,10-9-,13-12-,16-15-,19-18-
Instrument: maXis plus UHR-ToF-MS, Bruker Daltonics
Instrument type: LC-ESI-QTOF
Ms type: MS2
Ion mode: POSITIVE
Ionization: ESI
Fragmentation mode: CID
Collision energy: 20
Column name: BEH C18 1.7um, 2.1x100mm, Waters
Retention time: 6.335 min
Base peak: 88.0753
Precursor m/z: 372.2897
Precursor type: [M+H]+
m/z	relative intensity
66.0668	177
67.0539	654
77.998	101
88.0189	233
91.0542	385
92.0577	106
93.0705	380
95.0865	253
96.09	147
105.0426	167
121.1007	334
130.0875	212
131.1442	131
135.0789	101
145.1014	162
146.0114	126
146.1056	207
147.1154	289
149.0957	243
159.1171	121
160.1196	141
161.1328	192
171.1172	324
173.1329	365
175.1101	101
181.1019	177
185.0972	121
187.1125	136
187.1464	207
190.133	141
196.0951	116
199.1135	360
199.1487	365
201.1277	192
203.1413	167
203.1803	223
210.1373	152
210.1741	172
212.1537	111
215.0318	106
223.147	446
224.1033	147
227.1788	354
228.1837	91
230.1561	101
267.2119	197
269.2243	273
272.1974	162
283.2636	101
290.0467	106
293.2285	141
294.2304	116
298.2243	167
311.2462	223
312.2681	162
354.2725	131
369.2202	223
370.2287	121
370.2995	121
372.2931	999
