Mass spectrum: PC(16:0/0:0); LC-ESI-QTOF; MS2; CE: 40; R=; [M+H]+
Name: PC(16:0/0:0)
Name: Palmitoyllysolectithin
Name: (3-hexadecanoyloxy-2-hydroxypropyl) 2-(trimethylazaniumyl)ethyl phosphate
Formula: C24H50NO7P
Exact mass: 495.3325
SMILES: CCCCCCCCCCCCCCCC(=O)OCC(O)COP([O-])(=O)OCC[N+](C)(C)C
InChI: InChI=1S/C24H50NO7P/c1-5-6-7-8-9-10-11-12-13-14-15-16-17-18-24(27)30-21-23(26)22-32-33(28,29)31-20-19-25(2,3)4/h23,26H,5-22H2,1-4H3
Instrument: maXis plus UHR-ToF-MS, Bruker Daltonics
Instrument type: LC-ESI-QTOF
Ms type: MS2
Ion mode: POSITIVE
Ionization: ESI
Fragmentation mode: CID
Collision energy: 40
Column name: BEH C18 1.7um, 2.1x100mm, Waters
Retention time: 5.987 min
Base peak: 496.3396
Precursor m/z: 496.3398
Precursor type: [M+H]+
m/z	relative intensity
57.0329	1
69.0693	3
71.0848	26
81.0692	8
83.085	7
85.1008	11
86.0959	448
89.0606	1
95.0855	9
97.1007	3
98.9841	2
99.116	2
104.1068	811
106.1119	2
109.1015	1
124.9996	33
163.0157	4
166.0624	9
181.0257	3
184.0728	999
185.0766	54
186.0776	6
239.2392	2
240.1005	1
257.2474	1
258.1097	12
283.262	2
313.2736	71
314.2774	13
419.2562	8
420.2585	1
478.3293	21
479.332	7
480.3321	1
496.3382	3
