Mass spectrum: L-Lysine; LC-ESI-QTOF; MS2; CE: 20; R=; [M-H]-
Name: L-Lysine
Formula: C6H14N2O2
Exact mass: 146.10553
SMILES: C(CCN)C[C@@H](C(=O)O)N
InChI: InChI=1S/C6H14N2O2/c7-4-2-1-3-5(8)6(9)10/h5H,1-4,7-8H2,(H,9,10)/t5-/m0/s1
Instrument: maXis plus UHR-ToF-MS, Bruker Daltonics
Instrument type: LC-ESI-QTOF
Ms type: MS2
Ion mode: NEGATIVE
Ionization: ESI
Fragmentation mode: CID
Collision energy: 20
Column name: BEH C18 1.7um, 2.1x100mm, Waters
Retention time: 0.559 min
Base peak: 69.0041
Precursor m/z: 145.0983
Precursor type: [M-H]-
m/z	relative intensity
97.0781	999
