Mass spectrum: C12-homoserine lactone; LC-ESI-QTOF; MS2; CE: 20; R=; [M+H]+
Name: C12-homoserine lactone
Name: N-Dodecanoyl-DL-homoserine lactone
Name: N-(2-oxooxolan-3-yl)dodecanamide
Formula: C16H29NO3
Exact mass: 283.21474
SMILES: CCCCCCCCCCCC(=O)NC1CCOC1=O
InChI: InChI=1S/C16H29NO3/c1-2-3-4-5-6-7-8-9-10-11-15(18)17-14-12-13-20-16(14)19/h14H,2-13H2,1H3,(H,17,18)
Instrument: maXis plus UHR-ToF-MS, Bruker Daltonics
Instrument type: LC-ESI-QTOF
Ms type: MS2
Ion mode: POSITIVE
Ionization: ESI
Fragmentation mode: CID
Collision energy: 20
Column name: BEH C18 1.7um, 2.1x100mm, Waters
Retention time: 5.799 min
Base peak: 284.2218
Precursor m/z: 284.222
Precursor type: [M+H]+
m/z	relative intensity
58.0521	1
68.2014	1
75.0187	1
76.0636	5
79.0538	4
80.214	1
81.0695	275
82.0733	10
83.0849	313
84.0442	33
85.1007	604
89.1204	1
92.0209	1
93.069	1
94.0769	1
95.0852	583
97.1011	67
99.0788	3
99.1165	36
101.0943	2
102.0548	999
104.0612	5
104.1405	1
109.101	201
110.105	16
113.1333	7
114.0553	3
119.0608	1
122.037	1
123.1166	25
124.0893	3
127.0984	1
128.0699	1
129.2096	1
131.0248	1
136.1906	1
138.2195	1
141.0696	2
143.0336	1
147.08	1
147.1139	1
149.0217	1
158.0363	1
160.0338	1
164.0612	1
165.1634	31
166.1674	8
170.1552	1
183.1739	418
222.1992	1
228.1242	1
237.2071	1
238.118	1
245.1375	1
251.1258	1
256.2278	8
258.1979	2
266.2112	181
267.1934	2
267.2155	31
268.2143	1
281.1971	1
284.223	27
