Mass spectrum: 2`-O-Methylguanosine; LC-ESI-QTOF; MS2; CE: 10; R=; [M+H]+
Name: 2`-O-Methylguanosine
Name: 2-amino-9-[(2R,3R,4R,5R)-4-hydroxy-5-(hydroxymethyl)-3-methoxyoxolan-2-yl]-3H-purin-6-one
Formula: C11H15N5O5
Exact mass: 297.1073
SMILES: CO[C@@H]1[C@@H]([C@H](O[C@H]1n2cnc3c2nc([nH]c3=O)N)CO)O
InChI: InChI=1S/C11H15N5O5/c1-20-7-6(18)4(2-17)21-10(7)16-3-13-5-8(16)14-11(12)15-9(5)19/h3-4,6-7,10,17-18H,2H2,1H3,(H3,12,14,15,19)/t4-,6-,7-,10-/m1/s1
Instrument: maXis plus UHR-ToF-MS, Bruker Daltonics
Instrument type: LC-ESI-QTOF
Ms type: MS2
Ion mode: POSITIVE
Ionization: ESI
Fragmentation mode: CID
Collision energy: 10
Column name: BEH C18 1.7um, 2.1x100mm, Waters
Retention time: 0.928 min
Base peak: 152.0562
Precursor m/z: 298.1146
Precursor type: [M+H]+
m/z	relative intensity
53.0961	1
55.989	1
57.0909	1
71.0115	1
74.0831	1
89.0453	1
92.0679	1
97.0631	1
98.0957	1
99.9909	1
105.058	1
109.0349	1
109.0741	1
110.0206	1
120.0774	1
135.9739	2
137.0953	1
143.0675	1
145.0821	1
145.1285	1
147.0664	2
148.0627	1
148.1322	1
152.0562	999
153.059	40
154.0606	1
225.1068	1
277.0875	1
296.0714	1
298.1153	195
