Mass spectrum: ?-Tauromuricholic acid; LC-ESI-QTOF; MS2; CE: 20; R=; [M+H]+
Name: ?-Tauromuricholic acid
Name: 2-[[(4R)-4-[(3R,5R,6S,7S,8S,9S,10R,13R,14S)-3,6,7-trihydroxy-10,13-dimethyl-2,3,4,5,6,7,8,9,11,12,14,15,16,17-tetradecahydro-1H-cyclopenta[a]phenanthren-17-yl]pentanoyl]amino]ethanesulfonic acid
Formula: C26H45NO7S
Exact mass: 515.2917
SMILES: O=S(=O)(O)CCNC(=O)CC[C@H](C1CC[C@@H]2[C@]1(C)CC[C@H]4[C@H]2[C@H](O)[C@@H](O)[C@@H]3C[C@H](O)CC[C@@]34C)C
InChI: InChI=1S/C26H45NO7S/c1-15(4-7-21(29)27-12-13-35(32,33)34)17-5-6-18-22-19(9-11-25(17,18)2)26(3)10-8-16(28)14-20(26)23(30)24(22)31/h15-20,22-24,28,30-31H,4-14H2,1-3H3,(H,27,29)(H,32,33,34)/t15-,16-,17?,18+,19+,20+,22+,23+,24+,25-,26-/m1/s1
Instrument: maXis plus UHR-ToF-MS, Bruker Daltonics
Instrument type: LC-ESI-QTOF
Ms type: MS2
Ion mode: POSITIVE
Ionization: ESI
Fragmentation mode: CID
Collision energy: 20
Column name: BEH C18 1.7um, 2.1x100mm, Waters
Retention time: 3.549 min
Base peak: 516.2985
Precursor m/z: 516.299
Precursor type: [M+H]+
m/z	relative intensity
126.0228	5
208.0633	2
241.1931	1
291.3339	1
300.1295	1
315.1472	1
319.2421	3
320.2435	1
337.2528	44
338.2553	8
355.2632	53
356.2668	15
357.2712	1
368.1824	1
434.9938	1
450.2686	3
452.2865	1
462.2671	230
463.2707	59
464.2708	9
465.2765	1
479.2233	1
479.2756	2
479.2971	2
479.3326	1
480.2779	999
481.281	340
482.281	70
483.2819	9
484.2826	1
498.2868	19
499.2938	6
