Mass spectrum: Tetradecanoyl-L-Carnitine; LC-ESI-QTOF; MS2; CE: 20; R=; [M+H]+
Name: Tetradecanoyl-L-Carnitine
Name: L-Myristoylcarnitine
Name: (3R)-3-tetradecanoyloxy-4-(trimethylazaniumyl)butanoate
Formula: C21H41NO4
Exact mass: 371.3036
SMILES: CCCCCCCCCCCCCC(=O)O[C@H](CC(=O)[O-])C[N+](C)(C)C
InChI: InChI=1S/C21H41NO4/c1-5-6-7-8-9-10-11-12-13-14-15-16-21(25)26-19(17-20(23)24)18-22(2,3)4/h19H,5-18H2,1-4H3/t19-/m1/s1
Instrument: maXis plus UHR-ToF-MS, Bruker Daltonics
Instrument type: LC-ESI-QTOF
Ms type: MS2
Ion mode: POSITIVE
Ionization: ESI
Fragmentation mode: CID
Collision energy: 20
Column name: BEH C18 1.7um, 2.1x100mm, Waters
Retention time: 5.378 min
Base peak: 372.3129
Precursor m/z: 372.3108
Precursor type: [M+H]+
m/z	relative intensity
71.0849	2
83.0848	1
85.0276	929
95.085	4
97.1005	2
109.1007	2
111.1163	2
123.1166	1
137.132	1
144.1019	11
211.2053	28
229.2164	1
313.237	131
314.2408	25
315.2438	1
372.3108	999
374.3172	32
