Mass spectrum: 3-oxo-C8-homoserine lactone; LC-ESI-QTOF; MS2; CE: 10; R=; [M+H]+
Name: 3-oxo-C8-homoserine lactone
Name: N-(3X-Oxooctanoyl)-DL-homoserine lactone
Name: 3-oxo-N-(2-oxooxolan-3-yl)octanamide
Formula: C12H19NO4
Exact mass: 241.13141
SMILES: CCCCCC(=O)CC(=O)NC1CCOC1=O
InChI: InChI=1S/C12H19NO4/c1-2-3-4-5-9(14)8-11(15)13-10-6-7-17-12(10)16/h10H,2-8H2,1H3,(H,13,15)
Instrument: maXis plus UHR-ToF-MS, Bruker Daltonics
Instrument type: LC-ESI-QTOF
Ms type: MS2
Ion mode: POSITIVE
Ionization: ESI
Fragmentation mode: CID
Collision energy: 10
Column name: BEH C18 1.7um, 2.1x100mm, Waters
Retention time: 3.788 min
Base peak: 242.1382
Precursor m/z: 242.1387
Precursor type: [M+H]+
m/z	relative intensity
71.0849	11
74.0231	5
74.0594	46
84.0437	5
98.0596	22
99.0802	54
102.0547	848
141.0906	74
142.0942	9
182.1191	1
184.1325	44
185.136	4
196.1331	30
197.1368	3
200.1274	15
201.1311	1
214.1434	144
224.1279	31
225.1303	2
242.1383	999
244.1436	12
