Mass spectrum: L-Asparagine; LC-ESI-QTOF; MS2; CE: 10; R=; [M-H]-
Name: L-Asparagine
Name: (2S)-2,4-diamino-4-oxobutanoic acid
Formula: C4H8N2O3
Exact mass: 132.05349
SMILES: C([C@@H](C(=O)O)N)C(=N)O
InChI: InChI=1S/C4H8N2O3/c5-2(4(8)9)1-3(6)7/h2H,1,5H2,(H2,6,7)(H,8,9)/t2-/m0/s1
Instrument: maXis plus UHR-ToF-MS, Bruker Daltonics
Instrument type: LC-ESI-QTOF
Ms type: MS2
Ion mode: NEGATIVE
Ionization: ESI
Fragmentation mode: CID
Collision energy: 10
Column name: BEH C18 1.7um, 2.1x100mm, Waters
Retention time: 0.573 min
Base peak: 69.0045
Precursor m/z: 131.0462
Precursor type: [M-H]-
m/z	relative intensity
113.0366	999
114.0201	861
131.0466	970
