Mass spectrum: C6-homoserine lactone; LC-ESI-QTOF; MS2; CE: 20; R=; [M+H]+
Name: C6-homoserine lactone
Name: N-Hexanoyl-DL-homoserine lactone
Name: N-(2-oxooxolan-3-yl)hexanamide
Formula: C10H17NO3
Exact mass: 199.12084
SMILES: CCCCCC(=O)NC1CCOC1=O
InChI: InChI=1S/C10H17NO3/c1-2-3-4-5-9(12)11-8-6-7-14-10(8)13/h8H,2-7H2,1H3,(H,11,12)
Instrument: maXis plus UHR-ToF-MS, Bruker Daltonics
Instrument type: LC-ESI-QTOF
Ms type: MS2
Ion mode: POSITIVE
Ionization: ESI
Fragmentation mode: CID
Collision energy: 20
Column name: BEH C18 1.7um, 2.1x100mm, Waters
Retention time: 3.506 min
Base peak: 200.1277
Precursor m/z: 200.1281
Precursor type: [M+H]+
m/z	relative intensity
62.1305	1
69.091	1
70.0418	1
74.0593	999
81.0691	16
84.0438	64
85.0279	69
96.0409	1
98.0955	4
99.0802	758
102.0548	658
104.0583	3
117.0907	2
152.1405	1
172.1322	3
182.1176	63
183.12	8
200.1277	3
