Mass spectrum: 3-Ketocholanic Acid; LC-ESI-QTOF; MS2; CE: 10; R=; [M+H]+
Name: 3-Ketocholanic Acid
Name: AC1LBW7M
Name: 4-(10,13-dimethyl-3-oxo-1,2,4,5,6,7,8,9,11,12,14,15,16,17-tetradecahydrocyclopenta[a]phenanthren-17-yl)pentanoic acid
Formula: C24H38O3
Exact mass: 374.2821
SMILES: CC(CCC(=O)O)C1CCC2C1(CCC3C2CCC4C3(CCC(=O)C4)C)C
InChI: InChI=1S/C24H38O3/c1-15(4-9-22(26)27)19-7-8-20-18-6-5-16-14-17(25)10-12-23(16,2)21(18)11-13-24(19,20)3/h15-16,18-21H,4-14H2,1-3H3,(H,26,27)
Instrument: maXis plus UHR-ToF-MS, Bruker Daltonics
Instrument type: LC-ESI-QTOF
Ms type: MS2
Ion mode: POSITIVE
Ionization: ESI
Fragmentation mode: CID
Collision energy: 10
Column name: BEH C18 1.7um, 2.1x100mm, Waters
Retention time: 6.211 min
Base peak: 88.075
Precursor m/z: 375.2894
Precursor type: [M+H]+
m/z	relative intensity
69.0083	1
75.1382	1
85.0647	2
102.1267	1
107.0859	2
110.0019	1
113.0915	1
115.2995	1
120.068	1
121.0982	1
122.0229	1
123.0538	1
134.2957	1
140.1154	1
143.1295	1
149.1311	1
152.0206	2
154.1342	1
156.2094	1
158.1186	1
161.1328	3
162.1732	2
166.0768	1
167.1055	1
168.0651	1
169.0594	1
169.1237	3
171.1054	3
175.0249	1
175.1128	1
175.1457	2
178.1061	1
180.1623	3
181.1192	1
182.0324	1
187.1456	1
187.1553	1
189.1134	2
198.2105	1
199.0507	1
199.2275	2
201.1383	1
201.1645	3
201.197	2
202.0382	1
202.1722	2
202.2423	1
203.1432	1
203.1813	2
204.1269	1
207.1375	4
208.143	1
208.1841	1
209.1027	1
209.2121	1
213.1106	1
214.2671	1
215.0935	1
215.1803	2
219.0071	1
219.1707	2
221.1541	1
224.0255	3
227.0212	1
227.1432	2
229.1547	3
229.1687	1
229.1824	1
229.1948	1
231.2129	1
233.1853	1
234.1874	1
235.171	2
237.1853	6
243.1728	1
243.2117	3
244.0048	1
245.0028	1
247.1684	3
248.0823	1
250.0963	1
250.2178	1
250.2624	1
255.1757	1
256.1195	1
257.2277	2
259.1905	2
261.0901	2
261.1373	1
271.108	1
271.3122	1
272.0926	1
272.1629	1
273.0807	1
273.9986	1
274.0171	1
275.1978	2
275.2316	1
277.0873	1
280.1544	1
285.1232	1
286.2854	2
288.091	1
290.2032	3
292.1075	1
294.1112	1
294.1361	1
294.2407	1
295.2482	1
297.0602	1
298.0389	1
298.237	1
299.0565	1
301.216	2
302.2017	2
303.1505	1
306.1816	1
307.0756	1
309.0083	1
313.2023	1
313.2768	1
314.1673	1
314.1789	1
314.2236	1
316.0741	1
317.2677	1
318.1557	1
319.245	1
319.2949	1
321.0399	2
321.0659	1
321.2231	1
321.2598	9
322.1324	1
322.2611	1
323.2262	1
324.2152	1
325.1209	2
327.1368	1
327.2709	2
329.0113	1
330.0896	1
330.2219	1
331.028	1
331.2158	2
332.0128	1
333.0397	1
334.2054	1
335.2471	1
335.9983	3
337.1887	1
339.2683	175
340.2724	39
341.2778	3
344.255	1
345.2647	3
349.0223	1
356.2811	2
357.2788	999
358.2824	231
359.0422	1
359.0608	1
362.2416	1
364.2174	1
371.1389	3
371.2788	1
375.2898	481
377.2932	13
