Mass spectrum: 2`-O-Methylguanosine; LC-ESI-QTOF; MS2; CE: 20; R=; [M+H]+
Name: 2`-O-Methylguanosine
Name: 2-amino-9-[(2R,3R,4R,5R)-4-hydroxy-5-(hydroxymethyl)-3-methoxyoxolan-2-yl]-3H-purin-6-one
Formula: C11H15N5O5
Exact mass: 297.1073
SMILES: CO[C@@H]1[C@@H]([C@H](O[C@H]1n2cnc3c2nc([nH]c3=O)N)CO)O
InChI: InChI=1S/C11H15N5O5/c1-20-7-6(18)4(2-17)21-10(7)16-3-13-5-8(16)14-11(12)15-9(5)19/h3-4,6-7,10,17-18H,2H2,1H3,(H3,12,14,15,19)/t4-,6-,7-,10-/m1/s1
Instrument: maXis plus UHR-ToF-MS, Bruker Daltonics
Instrument type: LC-ESI-QTOF
Ms type: MS2
Ion mode: POSITIVE
Ionization: ESI
Fragmentation mode: CID
Collision energy: 20
Column name: BEH C18 1.7um, 2.1x100mm, Waters
Retention time: 0.928 min
Base peak: 152.0562
Precursor m/z: 298.1146
Precursor type: [M+H]+
m/z	relative intensity
50.0473	1
57.0319	2
58.0989	1
59.0491	1
67.0385	1
69.0325	7
71.0485	2
71.0853	1
73.0281	1
73.0389	1
74.0029	1
75.0437	1
75.994	1
76.1201	2
78.0893	1
85.0273	2
87.0438	7
87.0652	1
88.0843	1
94.0259	1
96.0311	1
97.0274	2
97.098	1
97.1323	1
98.0931	1
101.0594	6
104.0563	2
110.035	3
112.0401	1
113.0341	2
115.0379	1
121.0856	3
130.0407	1
131.1153	1
138.1343	1
139.1072	1
147.0649	2
148.0553	3
148.086	1
152.0562	999
153.0586	50
154.0604	2
