Mass spectrum: ascr#7; LC-ESI-QTOF; MS2; CE: 10; R=; [M+H]+
Name: ascr#7
Name: (E,6R)-6-[(2R,3R,5R,6S)-3,5-dihydroxy-6-methyloxan-2-yl]oxyhept-2-enoic acid
Formula: C13H22O6
Exact mass: 274.1416
SMILES: C[C@H](CC\C=C\C(O)=O)O[C@@H]1O[C@@H](C)[C@H](O)C[C@H]1O
InChI: InChI=1S/C13H22O6/c1-8(5-3-4-6-12(16)17)18-13-11(15)7-10(14)9(2)19-13/h4,6,8-11,13-15H,3,5,7H2,1-2H3,(H,16,17)/b6-4+/t8-,9+,10-,11-,13-/m1/s1
Instrument: maXis plus UHR-ToF-MS, Bruker Daltonics
Instrument type: LC-ESI-QTOF
Ms type: MS2
Ion mode: POSITIVE
Ionization: ESI
Fragmentation mode: CID
Collision energy: 10
Column name: BEH C18 1.7um, 2.1x100mm, Waters
Retention time: 2.926 min
Base peak: 275.1487
Precursor m/z: 275.1489
Precursor type: [M+H]+
m/z	relative intensity
65.0381	10
68.0574	6
80.0588	5
81.0691	137
83.0487	71
83.0861	9
85.0644	319
88.0749	5
95.0487	87
96.053	8
99.0221	4
103.0761	8
109.0647	123
113.0594	640
114.0632	54
114.1605	5
118.026	5
123.0775	9
127.0751	999
128.0783	90
131.0702	792
145.0855	578
147.1481	7
147.1744	5
153.0343	7
162.0178	5
163.0752	4
165.014	7
172.1314	8
192.0135	5
205.1431	5
211.0879	7
223.1313	9
226.0501	4
239.1263	9
239.1402	6
243.1242	11
243.989	5
257.138	919
258.1405	122
261.0967	4
275.1487	447
