Mass spectrum: Dibutylphthalate; LC-ESI-QTOF; MS2; CE: 40; R=; [M+H]+
Name: Dibutylphthalate
Name: dibutyl phthalate
Name: dibutyl benzene-1,2-dicarboxylate
Formula: C16H22O4
Exact mass: 278.15181
SMILES: CCCCOC(=O)c1ccccc1C(=O)OCCCC
InChI: InChI=1S/C16H22O4/c1-3-5-11-19-15(17)13-9-7-8-10-14(13)16(18)20-12-6-4-2/h7-10H,3-6,11-12H2,1-2H3
Instrument: maXis plus UHR-ToF-MS, Bruker Daltonics
Instrument type: LC-ESI-QTOF
Ms type: MS2
Ion mode: POSITIVE
Ionization: ESI
Fragmentation mode: CID
Collision energy: 40
Column name: BEH C18 1.7um, 2.1x100mm, Waters
Retention time: 6.087 min
Base peak: 149.024
Precursor m/z: 279.1591
Precursor type: [M+H]+
m/z	relative intensity
80.025	5
93.0329	133
94.0365	6
111.0439	21
121.0285	392
121.0388	88
122.032	24
149.0236	999
150.0271	83
151.0282	6
167.0336	1
