Mass spectrum: ?-Tauromuricholic acid; LC-ESI-QTOF; MS2; CE: 40; R=; [M+H]+
Name: ?-Tauromuricholic acid
Name: 2-[[(4R)-4-[(3R,5R,6S,7S,8S,9S,10R,13R,14S)-3,6,7-trihydroxy-10,13-dimethyl-2,3,4,5,6,7,8,9,11,12,14,15,16,17-tetradecahydro-1H-cyclopenta[a]phenanthren-17-yl]pentanoyl]amino]ethanesulfonic acid
Formula: C26H45NO7S
Exact mass: 515.2917
SMILES: O=S(=O)(O)CCNC(=O)CC[C@H](C1CC[C@@H]2[C@]1(C)CC[C@H]4[C@H]2[C@H](O)[C@@H](O)[C@@H]3C[C@H](O)CC[C@@]34C)C
InChI: InChI=1S/C26H45NO7S/c1-15(4-7-21(29)27-12-13-35(32,33)34)17-5-6-18-22-19(9-11-25(17,18)2)26(3)10-8-16(28)14-20(26)23(30)24(22)31/h15-20,22-24,28,30-31H,4-14H2,1-3H3,(H,27,29)(H,32,33,34)/t15-,16-,17?,18+,19+,20+,22+,23+,24+,25-,26-/m1/s1
Instrument: maXis plus UHR-ToF-MS, Bruker Daltonics
Instrument type: LC-ESI-QTOF
Ms type: MS2
Ion mode: POSITIVE
Ionization: ESI
Fragmentation mode: CID
Collision energy: 40
Column name: BEH C18 1.7um, 2.1x100mm, Waters
Retention time: 3.549 min
Base peak: 516.2985
Precursor m/z: 516.299
Precursor type: [M+H]+
m/z	relative intensity
48.0938	3
51.2684	2
55.0175	2
55.054	2
56.0831	2
56.9799	2
59.0768	4
61.0033	2
61.104	2
63.1982	4
64.1281	2
64.9924	5
67.0536	19
68.0167	2
71.0702	3
71.0849	2
73.016	2
73.027	2
73.2167	2
74.0597	2
74.3173	2
76.034	3
76.3577	2
78.1309	3
78.3288	3
81.0696	76
82.0429	2
83.0481	5
83.0863	8
83.152	2
84.0034	2
85.0642	43
86.2873	2
88.0359	3
88.0872	2
88.1252	5
88.2065	2
89.0809	2
89.9829	2
90.0112	1
90.0462	3
90.9725	3
91.0023	2
91.0446	4
91.0549	12
91.9746	2
93.0691	30
94.0263	1
94.0897	2
95.0486	6
95.0847	52
96.1016	3
96.1384	2
97.1019	6
98.0399	3
98.0957	2
98.1168	3
99.081	8
101.1053	6
102.0163	2
102.052	3
102.2824	2
103.0741	2
104.0164	2
104.118	7
104.1636	3
105.017	3
105.07	41
106.0733	4
106.3133	2
107.0855	31
108.0123	9
108.0674	4
108.1424	2
108.1595	3
109.055	5
109.0845	1
109.1006	33
109.2375	5
109.9952	2
110.0581	4
111.1476	4
112.0801	7
112.2096	4
112.231	3
112.9774	2
113.0085	2
113.047	3
113.0841	2
113.101	3
113.1774	2
113.2146	3
113.2918	2
114.9855	2
115.1333	2
115.2063	3
115.2483	2
116.2917	2
116.9815	5
117.0293	2
117.0682	5
117.9756	3
118.1724	3
118.2297	3
118.9908	2
119.0687	3
119.0866	13
119.151	4
119.2946	3
121.1018	6
122.0179	2
122.122	2
122.1395	3
122.1569	3
123.0816	9
123.1169	10
123.13	2
123.9647	2
123.9834	1
124.0585	3
124.1184	2
124.2488	2
125.013	2
125.097	4
126.0219	320
127.0275	4
127.0733	1
127.1605	4
127.9998	2
128.0181	7
128.1481	2
129.1266	2
129.2055	2
130.0023	4
130.0585	2
130.1256	3
131.0865	11
131.1274	2
132.0125	3
132.281	2
132.3102	2
133.1018	13
133.994	3
135.1056	3
135.1164	7
135.2401	2
135.3173	3
136.2025	2
136.2093	2
137.0546	2
137.0731	2
137.0804	2
137.0998	3
137.1247	2
137.965	2
138.0779	2
138.1273	5
139.0295	2
139.0865	2
139.2545	2
139.9571	2
139.9934	2
140.0046	1
140.1826	2
140.2391	3
140.2731	3
141.0722	2
141.0969	3
141.1413	2
141.9751	2
142.1993	1
142.2206	2
142.3608	2
142.9516	4
142.9658	3
143.0419	3
143.0625	2
143.0844	10
143.2443	2
144.0195	2
145.0791	2
145.1005	37
145.1475	2
146.0027	3
146.0172	2
146.1033	4
146.9737	3
147.0664	3
147.1178	24
147.1585	2
148.0844	3
148.1192	5
149.0351	2
149.0639	2
149.0973	3
149.132	17
149.2019	2
149.2691	4
149.3145	3
149.9751	3
150.0444	2
150.1347	4
151.0071	2
151.0954	2
151.1104	3
151.1189	6
151.313	2
151.9853	3
152.0876	2
152.1132	3
152.1481	2
152.16	2
152.317	2
154.222	1
154.2367	2
154.2994	1
155.0001	3
155.0255	2
155.0874	4
155.9507	3
156.0419	4
156.0901	6
157.0428	2
157.0636	1
157.1003	31
157.2274	2
158.1077	7
158.2249	2
159.1167	95
160.1193	21
160.202	1
160.2693	2
161.0951	19
161.1323	119
162.1352	13
162.161	2
162.2273	4
163.0251	5
163.1113	45
163.1251	4
163.1485	7
163.1677	3
163.97	4
164.0367	5
164.0531	2
164.0665	2
164.154	4
165.0284	2
165.0976	2
165.1255	5
165.2831	5
166.0523	2
166.109	4
166.1871	4
167.9901	3
168.0157	3
168.0469	2
168.0893	3
168.3471	2
169.101	12
169.3464	2
169.9957	2
170.1159	2
170.9901	2
171.0775	5
171.1159	21
171.2726	4
171.9965	1
172.0293	2
172.1052	2
172.1221	5
172.3074	2
172.3201	3
173.1316	66
173.9848	7
174.1346	13
174.9998	2
175.1113	37
175.1478	55
175.2495	2
175.3292	5
176.062	2
176.1526	6
177.0062	2
177.1264	36
177.1524	2
177.1602	2
177.3363	2
177.9565	5
178.0421	4
178.0558	1
178.1299	6
179.0574	3
179.1444	6
180.0326	2
180.1444	4
180.1976	3
180.2324	2
180.2873	3
181.004	2
181.0111	2
181.0581	2
181.1022	5
181.12	2
181.1428	3
182.0342	4
182.984	6
183.116	13
183.1634	2
184.12	3
185.0966	4
185.1322	41
185.1949	2
185.9977	1
186.0898	4
186.1375	6
186.1916	2
186.3195	3
187.1103	9
187.1331	4
187.1472	26
187.1917	3
187.2707	3
187.9669	1
187.9918	2
188.0251	2
188.1007	3
188.1153	2
188.1235	2
188.3023	2
188.9808	2
189.1274	27
189.1483	3
189.1628	11
189.2153	3
189.2619	2
189.9558	5
190.0573	2
190.1348	5
190.1683	2
190.3581	3
191.0283	2
191.0991	2
191.1426	34
191.1785	2
191.2616	2
191.3145	2
192.035	2
192.0914	2
192.2294	4
193.1022	5
193.1553	4
193.2094	2
194.1179	2
194.1574	2
195.1139	10
195.231	4
195.9698	2
196.1132	4
196.1303	4
197.1319	23
197.2352	2
197.252	2
198.0505	2
198.1303	5
198.1642	2
198.2029	2
198.2139	1
199.1484	115
200.0427	2
200.0668	4
200.1535	7
200.2759	4
200.9992	2
201.1259	14
201.1635	31
201.3065	2
202.1305	2
202.1678	3
202.1963	2
203.0682	2
203.1411	17
203.1768	2
203.1859	2
203.988	3
204.0811	2
204.147	3
204.1817	5
204.2084	2
204.9449	3
205.1213	3
205.3135	3
206.0486	8
206.1601	2
207.064	2
207.1151	2
207.1745	3
207.2406	2
207.2773	2
207.3162	2
208.0633	192
209.0662	13
209.0889	2
209.1328	49
209.1741	3
209.2218	2
210.0618	6
210.1335	7
211.0683	2
211.1137	3
211.1477	43
212.0983	1
212.1516	4
212.2228	1
212.247	3
212.2814	2
212.3207	3
213.1274	31
213.1633	85
214.0051	1
214.0518	3
214.1333	3
214.1659	13
214.3089	3
214.3599	3
214.9835	3
215.144	30
215.1672	3
215.1784	47
216.003	2
216.1432	8
216.1805	5
216.2856	3
217.1591	24
217.1795	2
217.2125	4
218.0151	2
218.0384	2
218.1571	6
218.2668	2
218.3231	1
218.9458	5
218.9567	2
219.038	3
219.1528	3
219.171	2
219.2191	3
219.2788	1
219.9567	2
220.016	3
221.1171	2
221.136	1
222.0788	11
223.0888	5
223.148	42
224.1518	7
224.1633	4
224.2381	3
225.1635	35
225.2645	4
225.2885	2
226.0308	2
226.0419	2
226.168	5
226.2378	2
226.2907	2
227.1426	62
227.1612	3
227.1788	65
227.2869	4
227.9631	3
228.1472	5
228.1835	6
228.2275	2
228.2464	2
229.1595	38
229.1917	3
229.9792	3
230.0536	2
230.084	3
230.1647	6
230.2565	3
231.0053	2
231.022	1
231.1608	2
231.1746	14
231.2153	2
232.0011	2
232.1441	3
232.1757	4
232.277	3
233.0282	4
233.2581	3
233.961	2
234.0785	8
235.1489	7
236.0453	3
236.0915	2
236.2301	2
237.1494	2
237.1634	35
237.189	2
237.2766	2
237.9565	2
238.1296	1
238.1692	13
238.2512	2
238.9789	1
239.1794	24
239.2316	3
240.0116	2
240.0832	2
240.1834	5
240.2115	2
240.9698	3
241.1227	6
241.1589	73
241.1952	50
242.1604	6
242.1994	12
243.1181	4
243.1743	25
244.077	2
244.0915	2
244.1268	3
244.1737	5
244.2475	3
245.1534	5
245.1911	4
245.2694	3
245.9581	2
246.0776	2
246.0861	2
246.1206	3
246.1602	2
246.3356	4
247.1554	2
248.0929	10
248.1767	3
248.2511	2
249.0416	3
249.1636	11
249.1823	3
249.9955	2
250.1017	2
250.116	5
250.1663	8
250.2989	2
251.1815	10
251.2547	2
252.0703	2
252.1899	5
252.9654	1
253.1609	8
253.1835	5
253.1948	16
253.9397	3
254.1595	2
254.2054	8
255.1743	25
255.2092	13
255.264	2
255.9529	4
256.1777	7
256.2224	3
257.0045	4
257.1906	18
257.2414	2
257.3391	2
258.1914	5
259.1696	2
259.2039	2
260.0547	1
260.0968	5
260.1671	2
260.2534	2
260.9647	3
261.0989	3
262.0249	3
262.1092	17
262.9671	2
263.1135	5
263.1652	5
263.1785	37
264.126	3
264.1821	3
265.0493	2
265.1799	2
265.1938	3
265.2862	2
267.1503	3
267.1729	10
267.2087	14
268.1786	2
268.36	2
269.1302	2
269.1928	9
269.2233	1
270.1943	2
270.247	2
271.2107	2
271.296	1
272.1704	2
272.2066	2
272.2486	2
273.1542	2
273.3243	5
274.1116	21
274.3243	2
275.1116	6
275.153	2
276.1273	8
276.1828	3
277.1962	22
277.3098	2
277.3487	2
278.0423	3
278.1334	3
278.1958	6
279.1275	2
279.1504	1
279.212	6
279.9924	5
280.1425	2
280.3395	2
281.0032	2
281.1898	22
281.2231	7
282.1938	6
282.2266	4
283.209	5
283.2406	3
283.9343	2
284.2038	2
284.2214	4
285.1147	2
285.1869	2
286.1133	4
288.104	5
288.127	38
288.2522	3
288.2894	2
289.131	10
289.174	4
290.1391	2
290.3312	3
290.3518	2
291.0437	2
291.2124	13
292.1932	2
292.2118	3
292.2228	3
292.2366	2
293.2274	16
294.2286	3
294.2642	2
295.2076	20
295.2417	52
296.2085	16
296.243	6
297.2269	3
298.1103	4
298.1878	2
298.2277	2
298.2974	2
299.2053	4
300.1279	45
301.1306	12
301.1514	4
301.3132	3
302.1121	5
302.1434	13
303.0251	3
303.1444	4
304.1466	3
304.947	2
306.1061	2
306.1569	2
306.9676	2
307.0035	3
307.0377	2
307.1887	2
307.2422	16
307.2795	2
307.9503	2
308.1361	2
308.2479	6
309.1281	5
309.2192	10
309.2575	67
310.2197	4
310.2621	12
311.2222	4
312.1761	2
312.3169	2
313.2554	2
314.0533	2
314.143	48
315.1433	2
315.158	2
316.1565	6
317.2157	4
318.0578	2
319.2424	400
320.2453	102
321.0508	2
321.2275	1
321.2484	10
321.2879	2
322.1896	2
322.2275	3
322.9685	2
325.2531	37
326.1439	8
326.2518	5
326.2634	4
326.9682	3
327.0458	2
327.2364	1
327.2666	11
328.1564	16
328.2882	2
329.0634	2
330.0365	2
334.0183	2
334.1508	4
334.1649	3
334.2562	1
335.2388	6
336.2386	2
337.2528	999
338.2565	248
339.0748	2
339.1374	2
339.2597	14
340.1567	5
340.194	3
340.2646	4
341.1664	3
342.1741	5
343.0403	1
344.1247	2
344.2751	2
348.3569	4
349.9798	6
351.1942	4
351.3115	2
352.0387	2
352.1571	2
352.1983	2
353.1609	2
353.1745	3
353.9669	4
354.1706	9
355.2635	147
356.1847	5
356.2666	31
357.029	3
357.1329	3
357.2626	5
357.2786	2
366.1735	5
367.1708	2
368.1938	4
369.1926	2
370.2454	2
370.3306	2
371.2514	2
373.06	3
376.2185	2
378.3002	2
379.0801	3
380.1866	1
382.2049	6
384.2105	3
384.3488	2
387.0286	2
388.1145	1
392.186	4
394.2045	2
396.009	5
396.222	4
397.2164	2
398.0071	2
403.3473	2
406.209	2
408.1966	2
408.2291	2
410.1049	2
419.1251	3
420.2181	2
422.0615	2
433.3279	2
435.2455	3
444.2532	6
444.2936	2
444.3396	3
445.2591	5
446.1019	2
446.2637	2
450.1726	3
450.2674	17
451.2709	10
452.2598	3
453.1865	2
453.2739	2
453.2875	2
454.1629	3
455.3355	2
462.2675	313
463.0525	3
463.2706	70
464.2416	2
464.269	21
465.047	2
465.2293	2
465.2641	4
473.3004	2
480.2783	18
481.2709	5
481.2863	11
483.2674	2
496.2087	2
498.2711	2
512.294	2
521.2266	2
536.2374	2
552.2377	2
