Mass spectrum: 13-methylmyristic acid; LC-ESI-QTOF; MS2; CE: 10; R=; [M+H]+
Name: 13-methylmyristic acid
Name: 13-methyltetradecanoic acid
Formula: C15H30O2
Exact mass: 242.2246
SMILES: CC(C)CCCCCCCCCCCC(=O)O
InChI: InChI=1S/C15H30O2/c1-14(2)12-10-8-6-4-3-5-7-9-11-13-15(16)17/h14H,3-13H2,1-2H3,(H,16,17)
Instrument: maXis plus UHR-ToF-MS, Bruker Daltonics
Instrument type: LC-ESI-QTOF
Ms type: MS2
Ion mode: POSITIVE
Ionization: ESI
Fragmentation mode: CID
Collision energy: 10
Column name: BEH C18 1.7um, 2.1x100mm, Waters
Retention time: 6.986 min
Base peak: 88.0749
Precursor m/z: 243.2319
Precursor type: [M+H]+
m/z	relative intensity
57.0447	14
79.0751	6
87.011	7
88.1245	11
95.085	14
97.1016	7
100.2188	6
104.1061	7
118.9994	6
121.1019	9
133.0757	8
139.1115	8
154.9998	11
157.0865	8
157.1236	22
174.1284	18
179.1417	9
183.1005	9
185.1172	10
189.1147	17
205.1964	10
212.1524	10
213.0559	8
213.1848	12
218.0847	17
225.2231	7
228.0667	8
236.153	13
240.159	8
241.1888	14
243.232	999
