Mass spectrum: ?-linolenic acid; LC-ESI-QTOF; MS2; CE: 10; R=; [M+H]+
Name: ?-linolenic acid
Name: linolenic acid
Name: (9Z,12Z,15Z)-octadeca-9,12,15-trienoic acid
Formula: C18H30O2
Exact mass: 278.2246
SMILES: CC/C=C\C/C=C\C/C=C\CCCCCCCC(=O)O
InChI: InChI=1S/C18H30O2/c1-2-3-4-5-6-7-8-9-10-11-12-13-14-15-16-17-18(19)20/h3-4,6-7,9-10H,2,5,8,11-17H2,1H3,(H,19,20)/b4-3-,7-6-,10-9-
Instrument: maXis plus UHR-ToF-MS, Bruker Daltonics
Instrument type: LC-ESI-QTOF
Ms type: MS2
Ion mode: POSITIVE
Ionization: ESI
Fragmentation mode: CID
Collision energy: 10
Column name: BEH C18 1.7um, 2.1x100mm, Waters
Retention time: 6.658 min
Base peak: 88.0752
Precursor m/z: 279.2319
Precursor type: [M+H]+
m/z	relative intensity
46.2291	1
60.1876	1
65.0389	2
67.2056	1
69.0701	1
74.1672	1
81.0694	23
83.0852	4
88.1123	2
95.0854	23
97.1013	5
103.0636	1
103.1481	2
105.221	1
109.0286	1
109.1009	20
110.1045	2
111.1167	4
111.1746	1
118.0514	2
123.1158	10
125.1295	2
129.009	1
131.0819	1
135.1159	1
136.004	1
137.0922	2
137.1298	4
140.0958	2
141.0323	1
141.1521	1
146.1537	2
147.1118	1
149.0464	1
150.0325	1
150.1033	1
151.0874	1
151.1115	1
151.1473	7
152.1163	1
156.0434	2
161.0254	3
161.1052	1
161.1161	2
161.1336	1
162.1353	2
163.1091	2
163.1457	1
165.1271	7
165.1623	2
166.051	2
166.0613	1
166.1319	1
167.0013	2
168.0533	1
169.0876	1
169.1216	3
173.0227	3
173.131	3
174.1375	1
177.1264	5
177.1614	3
179.142	6
180.1263	1
181.051	1
181.1206	6
182.1915	1
183.1368	6
184.1	1
184.1454	3
185.0922	2
185.1338	1
187.147	2
188.1271	1
188.2126	2
191.1429	1
191.1785	1
195.139	5
197.1528	2
198.1738	1
201.1644	4
204.9921	1
205.0851	3
205.159	5
206.142	2
209.1527	12
211.1563	1
212.0714	1
213.1395	1
219.0091	2
219.0223	1
219.0914	1
219.1711	1
219.2072	1
219.2451	1
220.1776	1
222.174	1
223.1679	12
224.0145	5
224.0264	1
224.0705	2
226.0485	2
226.1568	1
228.0907	1
231.1191	2
237.1855	5
238.1782	3
241.0643	1
242.0623	1
243.1722	1
243.21	24
244.1773	1
244.2137	3
246.066	1
251.2265	1
253.2392	2
256.0399	1
257.196	1
258.196	1
261.2196	38
262.2276	5
263.2469	1
265.0017	1
269.1168	1
275.1621	19
275.2486	2
278.1615	1
279.2311	999
281.1419	2
281.236	9
