Mass spectrum: Inosine; LC-ESI-QTOF; MS2; CE: 40; R=; [M+H]+
Name: Inosine
Name: 9-[(2R,3R,4S,5R)-3,4-dihydroxy-5-(hydroxymethyl)oxolan-2-yl]-3H-purin-6-one
Formula: C10H12N4O5
Exact mass: 268.0808
SMILES: OC[C@H]1O[C@H]([C@H](O)[C@@H]1O)N1C=NC2=C(O)N=CN=C12
InChI: InChI=1S/C10H12N4O5/c15-1-4-6(16)7(17)10(19-4)14-3-13-5-8(14)11-2-12-9(5)18/h2-4,6-7,10,15-17H,1H2,(H,11,12,18)/t4-,6-,7-,10-/m1/s1
Instrument: maXis plus UHR-ToF-MS, Bruker Daltonics
Instrument type: LC-ESI-QTOF
Ms type: MS2
Ion mode: POSITIVE
Ionization: ESI
Fragmentation mode: CID
Collision energy: 40
Column name: BEH C18 1.7um, 2.1x100mm, Waters
Retention time: 0.724 min
Base peak: 269.0877
Precursor m/z: 269.088
Precursor type: [M+H]+
m/z	relative intensity
49.0526	2
53.0386	3
55.0174	28
57.033	49
59.049	8
61.028	13
65.0136	2
69.0327	64
71.0127	33
73.028	32
75.031	4
82.0401	27
83.0236	6
85.0281	31
92.0251	8
94.0399	130
95.0243	3
95.0346	3
100.0759	2
103.0396	2
110.0349	141
115.0384	9
117.0303	3
119.0352	53
128.0456	2
136.0612	4
137.0453	999
137.9917	6
138.0304	4
138.0489	65
139.0461	4
175.034	2
224.9889	3
