Mass spectrum: Ethyl vanillate; LC-ESI-QTOF; MS2; CE: 10; R=; [M+H]+
Name: Ethyl vanillate
Name: ethyl 4-hydroxy-3-methoxybenzoate
Formula: C10H12O4
Exact mass: 196.0736
SMILES: CCOC(=O)C1=CC(=C(C=C1)O)OC
InChI: InChI=1S/C10H12O4/c1-3-14-10(12)7-4-5-8(11)9(6-7)13-2/h4-6,11H,3H2,1-2H3
Instrument: maXis plus UHR-ToF-MS, Bruker Daltonics
Instrument type: LC-ESI-QTOF
Ms type: MS2
Ion mode: POSITIVE
Ionization: ESI
Fragmentation mode: CID
Collision energy: 10
Column name: BEH C18 1.7um, 2.1x100mm, Waters
Retention time: 4.072 min
Base peak: 197.0799
Precursor m/z: 197.0808
Precursor type: [M+H]+
m/z	relative intensity
91.0551	1
93.0328	161
93.0692	23
94.0364	5
94.0736	1
97.0646	1
107.0486	2
110.0359	16
111.0434	17
121.0646	82
122.0681	6
125.0597	354
126.0625	19
151.0383	83
152.0417	5
153.0909	2
168.0408	3
169.0487	999
171.0536	6
181.0479	1
196.0723	5
197.0801	837
199.0857	5
