Mass spectrum: Tricosanoyl Ethanolamide; LC-ESI-QTOF; MS2; CE: 40; R=; [M+H]+
Name: Tricosanoyl Ethanolamide
Name: Tricosanoyl-EA
Name: N-(2-hydroxyethyl)tricosanamide
Formula: C25H51NO2
Exact mass: 397.39198
SMILES: O=C(CCCCCCCCCCCCCCCCCCCCCC)NCCO
InChI: InChI=1S/C25H51NO2/c1-2-3-4-5-6-7-8-9-10-11-12-13-14-15-16-17-18-19-20-21-22-25(28)26-23-24-27/h27H,2-24H2,1H3,(H,26,28)
Instrument: maXis plus UHR-ToF-MS, Bruker Daltonics
Instrument type: LC-ESI-QTOF
Ms type: MS2
Ion mode: POSITIVE
Ionization: ESI
Fragmentation mode: CID
Collision energy: 40
Column name: BEH C18 1.7um, 2.1x100mm, Waters
Retention time: 8.751 min
Base peak: 88.0752
Precursor m/z: 398.3993
Precursor type: [M+H]+
m/z	relative intensity
62.0595	999
67.0263	38
67.0545	37
81.0705	143
89.0575	76
95.0474	49
133.0843	45
269.1923	31
270.1966	34
302.1761	54
302.2142	31
308.3893	34
309.2193	56
363.2782	28
380.3911	51
381.3912	31
