Mass spectrum: 5?-CHOLANIC ACID-3?_ 6?_7?-TRIOL; LC-ESI-QTOF; MS2; CE: 40; R=; [M+H]+
Name: 5?-CHOLANIC ACID-3?_ 6?_7?-TRIOL
Name: Hyocholic acid
Name: (4R)-4-[(3R,5R,6R,7S,8S,9S,10R,13R,14S,17R)-3,6,7-trihydroxy-10,13-dimethyl-2,3,4,5,6,7,8,9,11,12,14,15,16,17-tetradecahydro-1H-cyclopenta[a]phenanthren-17-yl]pentanoic acid
Formula: C24H40O5
Exact mass: 408.2876
SMILES: C[C@H](CCC(=O)O)[C@H]1CC[C@@H]2[C@@]1(CC[C@H]3[C@H]2[C@@H]([C@@H]([C@H]4[C@@]3(CC[C@H](C4)O)C)O)O)C
InChI: InChI=1S/C24H40O5/c1-13(4-7-19(26)27)15-5-6-16-20-17(9-11-23(15,16)2)24(3)10-8-14(25)12-18(24)21(28)22(20)29/h13-18,20-22,25,28-29H,4-12H2,1-3H3,(H,26,27)/t13-,14-,15-,16+,17+,18+,20+,21-,22+,23-,24-/m1/s1
Instrument: maXis plus UHR-ToF-MS, Bruker Daltonics
Instrument type: LC-ESI-QTOF
Ms type: MS2
Ion mode: POSITIVE
Ionization: ESI
Fragmentation mode: CID
Collision energy: 40
Column name: BEH C18 1.7um, 2.1x100mm, Waters
Retention time: 4.512 min
Base peak: 817.5828
Precursor m/z: 409.2949
Precursor type: [M+H]+
m/z	relative intensity
53.133	8
55.0052	4
55.1692	4
62.015	4
62.0963	4
63.0443	6
69.034	12
70.1722	3
71.0854	11
72.2444	5
72.3024	4
74.024	8
74.0356	4
74.0568	3
75.023	3
75.0798	4
75.2677	5
76.1122	4
77.0383	26
78.0422	8
78.2556	7
79.0536	309
80.1047	5
81.0692	999
83.0484	192
83.0849	227
84.006	4
85.0647	124
86.0152	3
87.0912	4
87.2686	4
88.2024	9
88.2967	4
90.0523	4
91.0536	186
92.058	18
93.0692	520
94.037	3
94.073	62
95.0851	578
96.0532	8
96.089	42
97.0646	62
97.1002	43
99.0434	144
99.08	13
100.26	12
101.0592	139
101.0965	7
101.2831	10
102.0342	3
105.0698	315
106.136	4
107.0849	321
108.0887	26
109.0652	40
109.1009	344
110.104	49
110.2446	6
111.0802	13
111.1232	6
112.0149	4
112.0852	11
113.9967	5
115.0543	5
116.0576	6
117.0698	35
118.0496	4
119.0856	219
119.9932	5
120.0041	3
120.0534	4
120.3025	5
121.0657	10
121.1008	165
122.1054	8
123.0096	4
123.0802	29
123.1176	25
124.0188	5
124.1197	9
124.9841	4
125.0343	6
125.0688	3
125.0954	8
126.0109	9
126.1392	5
127.0297	3
127.0601	3
127.0754	12
127.1107	3
128.0067	4
128.0943	5
129.0569	4
129.0687	10
129.1146	3
130.0647	5
130.1113	10
130.1344	4
131.0363	9
131.0698	4
131.0866	58
131.2573	3
131.9999	4
132.1501	3
133.0045	8
133.1012	142
134.0839	5
134.0957	3
134.1054	23
135.1159	94
136.1203	19
137.0949	17
138.0893	7
139.2983	6
140.1415	3
140.2698	9
141.0441	5
141.0705	13
141.258	8
142.077	4
142.0876	6
142.9846	9
143.0851	53
143.2932	3
143.9675	3
144.0667	4
144.0776	5
145.1009	173
146.1314	5
147.116	261
148.1206	31
148.9864	6
149.0955	18
149.1034	8
149.1202	10
149.1322	91
150.099	10
150.1247	4
150.1372	8
151.0591	11
151.1122	21
153.0666	10
153.0772	8
154.1582	6
155.058	7
155.0858	17
155.1063	7
155.2001	4
156.0178	8
156.0939	4
157.1003	121
157.3099	7
158.1048	18
158.2098	3
159.1162	924
160.0729	4
160.1209	68
161.1317	462
162.0396	3
162.137	37
163.1114	65
163.1471	39
164.01	4
164.0316	7
164.1164	4
164.1515	7
165.0693	6
165.0865	6
165.1287	28
166.0734	5
166.1437	9
167.0831	3
167.1075	14
167.1438	8
169.1015	35
170.1192	3
171.015	8
171.1171	134
171.9774	3
172.1083	9
172.1198	27
172.2177	4
173.1321	300
174.0829	3
174.1354	47
174.2557	6
175.1114	70
175.1478	108
176.1158	19
177.1268	128
177.2637	9
178.0843	5
178.1308	14
179.0204	3
179.107	10
179.1282	6
179.1431	14
179.275	4
180.182	4
181.0228	3
181.1001	28
181.122	53
182.0217	3
182.0967	7
182.1051	8
182.1272	3
182.1611	6
183.1165	44
184.1224	6
185.1325	257
186.1107	3
186.1355	45
187.1128	18
187.1467	118
188.1516	15
188.1784	6
189.0924	6
189.1266	36
189.1635	52
190.134	6
190.1686	5
191.0675	4
191.1057	7
191.1432	46
191.1674	5
192.1454	10
192.989	7
193.1234	57
194.0811	4
194.1087	7
194.1268	16
194.9929	3
195.1159	22
195.1381	71
196.1218	9
196.1431	13
197.1318	86
198.1212	5
198.1366	21
199.1477	443
200.1212	5
200.1549	84
201.0059	6
201.1275	10
201.1639	66
202.1103	5
202.168	14
203.1431	28
203.181	9
203.9691	5
204.1021	4
204.1888	5
205.1233	31
205.1575	5
205.9723	6
206.1665	3
207.0598	4
207.1393	65
208.0179	3
208.1139	7
208.1415	10
208.2174	6
209.1333	64
209.1515	13
210.0313	4
210.1353	19
210.9887	4
211.1317	4
211.1463	35
211.2069	7
212.1533	30
212.2552	3
213.1281	21
213.1634	344
214.0607	4
214.1322	5
214.1683	56
215.1417	50
215.1786	93
216.1836	23
217.0618	4
217.1585	22
217.1958	11
218.1985	5
219.0169	4
219.1183	4
219.1373	36
219.1733	7
219.2103	6
220.1447	4
221.143	6
221.1545	21
222.1331	4
222.1456	6
223.0113	5
223.0926	3
223.1467	47
224.1537	10
224.9962	8
225.164	70
226.1309	4
226.1663	17
226.2504	9
227.1423	61
227.163	8
227.1797	147
227.9978	3
228.1457	15
228.1833	43
228.2303	3
229.0082	4
229.0707	3
229.1578	33
229.1941	19
230.0893	3
230.1639	6
231.139	16
231.175	33
233.1534	34
233.3055	3
234.0159	6
234.1595	3
235.1439	4
235.1688	39
235.2456	8
236.0001	5
236.1372	3
237.1642	44
238.1287	3
238.1504	3
238.1682	14
238.2047	7
239.0083	5
239.179	98
240.1724	7
240.1839	26
240.2874	3
241.1606	31
241.1947	85
242.161	14
243.1589	5
243.1758	23
243.205	6
244.1192	4
244.177	5
244.3134	3
245.1532	46
245.1912	10
246.0333	4
246.1601	11
247.1678	35
248.1518	5
248.172	7
249.1105	7
249.1399	8
249.1625	14
249.1852	6
251.1804	17
252.0421	3
252.3006	4
253.1954	26
254.2025	177
255.175	38
255.2099	123
256.0587	8
256.1757	4
256.216	23
257.1501	11
257.1691	4
257.1869	16
259.1676	35
259.2035	14
261.1843	18
261.2414	7
262.0791	3
263.1786	15
264.182	10
265.194	11
266.1961	6
267.2091	19
268.1785	5
269.0042	5
269.1902	8
270.1929	3
271.1684	10
271.2029	7
272.1715	4
273.1508	6
273.1854	60
274.1894	15
275.2692	5
276.1809	5
277.1932	11
277.9984	4
278.2009	4
279.2121	5
280.2169	8
281.1901	15
281.2279	6
282.0312	3
282.1926	4
282.2391	7
283.2078	9
285.1861	10
286.209	4
287.1486	5
287.1958	16
288.2053	10
289.2112	6
290.2089	6
291.0151	7
291.2135	18
292.1857	3
293.225	17
294.0913	3
294.2305	11
295.1996	5
295.2412	49
296.2104	6
296.2505	18
297.2215	3
299.1982	22
299.2443	7
300.0455	5
300.1457	3
300.2071	6
300.24	4
301.0526	5
301.2187	7
304.2215	7
305.0164	3
305.2151	5
306.2775	4
307.2452	3
309.2155	4
309.2578	36
310.2565	12
311.1954	4
311.267	3
313.2153	25
313.2582	3
314.2216	6
315.2279	7
316.2753	4
317.0132	7
319.2417	134
320.0207	5
320.1658	4
320.2446	31
321.2374	5
321.249	10
321.2655	3
322.2312	5
323.188	4
325.2137	5
326.2261	4
326.2977	3
327.2636	7
329.31	6
334.016	5
335.002	3
337.2522	167
338.2552	55
338.2851	7
339.0137	5
339.2629	4
339.3026	3
340.2387	20
343.2692	13
347.0521	3
348.0555	7
351.1561	4
355.263	725
356.2662	151
357.1568	4
357.265	14
358.2772	5
363.3162	3
373.2717	50
374.2778	13
