Mass spectrum: L-Carnitine; LC-ESI-QTOF; MS2; CE: 10; R=; [M+H]+
Name: L-Carnitine
Name: DL-Carnitine
Name: 3-hydroxy-4-(trimethylazaniumyl)butanoate
Formula: C7H15NO3
Exact mass: 161.10519
SMILES: C[N+](C)(C)CC(CC(=O)[O-])O
InChI: InChI=1S/C7H15NO3/c1-8(2,3)5-6(9)4-7(10)11/h6,9H,4-5H2,1-3H3
Instrument: maXis plus UHR-ToF-MS, Bruker Daltonics
Instrument type: LC-ESI-QTOF
Ms type: MS2
Ion mode: POSITIVE
Ionization: ESI
Fragmentation mode: CID
Collision energy: 10
Column name: BEH C18 1.7um, 2.1x100mm, Waters
Retention time: 0.590 min
Base peak: 162.112
Precursor m/z: 162.1125
Precursor type: [M+H]+
m/z	relative intensity
85.0278	15
102.0912	15
103.0387	66
162.1118	999
