Mass spectrum: Daidzein; LC-ESI-QTOF; MS2; CE: 20; R=; [M+H]+
Name: Daidzein
Name: 7-hydroxy-3-(4-hydroxyphenyl)chromen-4-one
Formula: C15H10O4
Exact mass: 254.0579
SMILES: O=C\1c3c(O/C=C/1c2ccc(O)cc2)cc(O)cc3
InChI: InChI=1S/C15H10O4/c16-10-3-1-9(2-4-10)13-8-19-14-7-11(17)5-6-12(14)15(13)18/h1-8,16-17H
Instrument: maXis plus UHR-ToF-MS, Bruker Daltonics
Instrument type: LC-ESI-QTOF
Ms type: MS2
Ion mode: POSITIVE
Ionization: ESI
Fragmentation mode: CID
Collision energy: 20
Column name: BEH C18 1.7um, 2.1x100mm, Waters
Retention time: 3.586 min
Base peak: 255.065
Precursor m/z: 255.0652
Precursor type: [M+H]+
m/z	relative intensity
137.0228	1
145.0284	1
181.0633	3
199.0746	22
211.0728	1
227.0702	13
237.0542	3
253.0511	1
255.0648	999
257.0704	14
