Mass spectrum: Phenanzine-1_6-dicarboxylic acid; LC-ESI-QTOF; MS2; CE: 10; R=; [M+H]+
Name: Phenanzine-1_6-dicarboxylic acid
Name: phenazine-1,6-dicarboxylic acid
Formula: C14H8N2O4
Exact mass: 268.04841
SMILES: c1cc(c2c(c1)nc3c(cccc3n2)C(=O)O)C(=O)O
InChI: InChI=1S/C14H8N2O4/c17-13(18)7-3-1-5-9-11(7)16-10-6-2-4-8(14(19)20)12(10)15-9/h1-6H,(H,17,18)(H,19,20)
Instrument: maXis plus UHR-ToF-MS, Bruker Daltonics
Instrument type: LC-ESI-QTOF
Ms type: MS2
Ion mode: POSITIVE
Ionization: ESI
Fragmentation mode: CID
Collision energy: 10
Column name: BEH C18 1.7um, 2.1x100mm, Waters
Retention time: 4.018 min
Base peak: 79.0204
Precursor m/z: 269.0557
Precursor type: [M+H]+
m/z	relative intensity
67.0167	1
88.9867	1
90.017	1
121.0522	1
130.0274	1
135.0666	1
143.0685	1
147.0226	1
169.0282	1
169.0732	1
174.002	1
179.0579	4
180.0655	1
190.9974	1
191.0226	1
200.0302	1
200.9831	2
211.0478	1
214.9975	1
219.0187	1
223.0467	1
245.0073	1
251.045	183
252.0483	21
269.0557	999
