Mass spectrum: Ethyl vanillate; LC-ESI-QTOF; MS2; CE: 20; R=; [M+H]+
Name: Ethyl vanillate
Name: ethyl 4-hydroxy-3-methoxybenzoate
Formula: C10H12O4
Exact mass: 196.0736
SMILES: CCOC(=O)C1=CC(=C(C=C1)O)OC
InChI: InChI=1S/C10H12O4/c1-3-14-10(12)7-4-5-8(11)9(6-7)13-2/h4-6,11H,3H2,1-2H3
Instrument: maXis plus UHR-ToF-MS, Bruker Daltonics
Instrument type: LC-ESI-QTOF
Ms type: MS2
Ion mode: POSITIVE
Ionization: ESI
Fragmentation mode: CID
Collision energy: 20
Column name: BEH C18 1.7um, 2.1x100mm, Waters
Retention time: 4.072 min
Base peak: 197.0799
Precursor m/z: 197.0808
Precursor type: [M+H]+
m/z	relative intensity
81.0328	1
93.0327	999
97.064	4
103.0536	3
107.0488	6
109.0283	2
110.0359	73
111.0437	132
112.047	6
121.0645	6
123.044	1
125.0597	166
126.0627	10
151.0383	74
152.0415	5
168.0409	1
169.0487	61
197.081	1
