Mass spectrum: 3-hydroxy-C10-homoserine lactone; LC-ESI-QTOF; MS2; CE: 40; R=; [M+H]+
Name: 3-hydroxy-C10-homoserine lactone
Name: 3-hydroxy-N-(2-oxooxolan-3-yl)decanamide
Formula: C14H25NO4
Exact mass: 271.17836
SMILES: CCCCCCCC(O)CC(=O)NC1CCOC1=O
InChI: InChI=1S/C14H25NO4/c1-2-3-4-5-6-7-11(16)10-13(17)15-12-8-9-19-14(12)18/h11-12,16H,2-10H2,1H3,(H,15,17)
Instrument: maXis plus UHR-ToF-MS, Bruker Daltonics
Instrument type: LC-ESI-QTOF
Ms type: MS2
Ion mode: POSITIVE
Ionization: ESI
Fragmentation mode: CID
Collision energy: 40
Column name: BEH C18 1.7um, 2.1x100mm, Waters
Retention time: 4.384 min
Base peak: 272.1848
Precursor m/z: 272.1856
Precursor type: [M+H]+
m/z	relative intensity
49.0072	1
53.0382	5
57.0325	10
59.0486	8
65.038	7
67.0536	234
71.0485	22
71.0849	5
72.0082	4
73.0638	12
74.023	999
74.0594	868
79.0537	156
80.0576	9
81.0694	82
82.0282	1
83.0484	26
83.0851	172
84.0438	318
85.0279	71
85.0643	3
87.0439	1
91.0539	25
93.0694	108
95.049	8
95.085	26
96.0886	1
97.0644	66
100.0397	2
102.0545	333
104.0573	1
105.0444	2
105.0706	5
107.0854	42
109.1009	7
111.0804	4
111.1167	1
135.1161	5
153.1269	1
