Mass spectrum: Homovanillic acid; LC-ESI-QTOF; MS2; CE: 40; R=; [M+H]+
Name: Homovanillic acid
Name: 2-(4-hydroxy-3-methoxyphenyl)acetic acid
Formula: C9H10O4
Exact mass: 182.0579
SMILES: O=C(O)Cc1cc(OC)c(O)cc1
InChI: InChI=1S/C9H10O4/c1-13-8-4-6(5-9(11)12)2-3-7(8)10/h2-4,10H,5H2,1H3,(H,11,12)
Instrument: maXis plus UHR-ToF-MS, Bruker Daltonics
Instrument type: LC-ESI-QTOF
Ms type: MS2
Ion mode: POSITIVE
Ionization: ESI
Fragmentation mode: CID
Collision energy: 40
Column name: BEH C18 1.7um, 2.1x100mm, Waters
Retention time: 2.844 min
Base peak: 137.0599
Precursor m/z: 183.0652
Precursor type: [M+H]+
m/z	relative intensity
45.0447	1
53.0129	1
76.0314	1
79.0173	4
79.0536	54
81.0327	97
81.0699	13
85.0276	1
91.0543	27
93.0335	10
94.0408	999
97.0278	1
105.0441	7
107.0493	9
109.0279	15
112.0517	1
122.0359	111
123.0394	12
135.0409	2
137.0592	55
138.0626	7
