Mass spectrum: 1-pentadecanoyl-2-hydroxy-sn-glycero-3-phosphocholine; LC-ESI-QTOF; MS2; CE: 40; R=; [M+H]+
Name: 1-pentadecanoyl-2-hydroxy-sn-glycero-3-phosphocholine
Name: 1-pentadecanoyl-sn-glycero-3-phosphocholine
Name: [(2R)-2-hydroxy-3-pentadecanoyloxypropyl] 2-(trimethylazaniumyl)ethyl phosphate
Formula: C23H48NO7P
Exact mass: 481.3168
SMILES: [H][C@@](O)(COC(=O)CCCCCCCCCCCCCC)COP([O-])(=O)OCC[N+](C)(C)C
InChI: InChI=1S/C23H48NO7P/c1-5-6-7-8-9-10-11-12-13-14-15-16-17-23(26)29-20-22(25)21-31-32(27,28)30-19-18-24(2,3)4/h22,25H,5-21H2,1-4H3/t22-/m1/s1
Instrument: maXis plus UHR-ToF-MS, Bruker Daltonics
Instrument type: LC-ESI-QTOF
Ms type: MS2
Ion mode: POSITIVE
Ionization: ESI
Fragmentation mode: CID
Collision energy: 40
Column name: BEH C18 1.7um, 2.1x100mm, Waters
Retention time: 5.666 min
Base peak: 482.3238
Precursor m/z: 482.3241
Precursor type: [M+H]+
m/z	relative intensity
67.0537	4
71.0724	30
71.0848	32
81.0691	7
83.0851	5
85.1007	12
86.0959	464
89.0591	1
95.0848	9
97.101	2
98.9836	1
104.1067	741
106.1113	2
109.1013	2
111.1147	2
124.9996	28
163.0161	3
166.0624	12
181.0255	1
184.0727	999
185.0761	43
186.0787	4
199.0366	1
225.2227	1
240.1002	1
258.1087	8
259.1152	1
269.2483	1
299.2575	60
300.2617	10
405.2407	6
464.3134	15
465.3132	3
466.3211	1
482.3208	2
