Mass spectrum: Pyocyanin; LC-ESI-QTOF; MS2; CE: 20; R=; [M+H]+
Name: Pyocyanin
Name: 5-methylphenazin-1-one
Formula: C13H10N2O
Exact mass: 210.0793
SMILES: C[n+]1c2ccccc2nc3c1cccc3[O-]
InChI: InChI=1S/C13H10N2O/c1-15-10-6-3-2-5-9(10)14-13-11(15)7-4-8-12(13)16/h2-8H,1H3
Instrument: maXis plus UHR-ToF-MS, Bruker Daltonics
Instrument type: LC-ESI-QTOF
Ms type: MS2
Ion mode: POSITIVE
Ionization: ESI
Fragmentation mode: CID
Collision energy: 20
Column name: BEH C18 1.7um, 2.1x100mm, Waters
Retention time: 4.735 min
Base peak: 211.0862
Precursor m/z: 211.0866
Precursor type: [M+H]+
m/z	relative intensity
168.0678	40
169.0709	3
181.0746	1
182.0837	1
183.0913	73
193.0767	1
196.0625	46
211.0862	999
213.0916	5
