Mass spectrum: ?-Estradiol; LC-ESI-QTOF; MS2; CE: 10; R=; [M+H]+
Name: ?-Estradiol
Name: estradiol
Name: (8R,9S,13S,14S,17S)-13-methyl-6,7,8,9,11,12,14,15,16,17-decahydrocyclopenta[a]phenanthrene-3,17-diol
Formula: C18H24O2
Exact mass: 272.1776
SMILES: C[C@]12CC[C@H]3[C@H]([C@@H]1CC[C@@H]2O)CCC4=C3C=CC(=C4)O
InChI: InChI=1S/C18H24O2/c1-18-9-8-14-13-5-3-12(19)10-11(13)2-4-15(14)16(18)6-7-17(18)20/h3,5,10,14-17,19-20H,2,4,6-9H2,1H3/t14-,15-,16+,17+,18+/m1/s1
Instrument: maXis plus UHR-ToF-MS, Bruker Daltonics
Instrument type: LC-ESI-QTOF
Ms type: MS2
Ion mode: POSITIVE
Ionization: ESI
Fragmentation mode: CID
Collision energy: 10
Column name: BEH C18 1.7um, 2.1x100mm, Waters
Retention time: 4.483 min
Base peak: 255.1739
Precursor m/z: 273.1849
Precursor type: [M+H]+
m/z	relative intensity
69.0692	1
80.0577	1
81.0694	2
95.085	5
100.0176	1
107.0485	12
109.0514	1
113.0834	1
121.102	1
133.0638	1
135.1161	9
136.1218	1
145.0638	2
149.1311	3
149.997	1
153.1278	1
159.0799	22
160.0832	2
161.0936	1
162.0096	1
162.1257	1
164.0133	1
170.0365	1
173.0949	8
174.0987	1
179.1436	1
185.0966	4
186.0989	3
196.0503	1
199.1073	1
210.0313	1
213.1258	1
215.0737	1
217.1717	1
222.0777	1
222.1159	1
226.1318	1
227.1327	1
231.0302	1
236.1073	1
237.0649	1
242.1046	1
242.1755	1
244.1559	1
248.1274	1
253.1586	9
255.174	130
256.1777	20
258.1839	1
263.1506	1
266.1751	1
268.0376	1
270.1618	2
271.1689	57
272.1762	109
273.1843	999
