Mass spectrum: Caffeic acid; LC-ESI-QTOF; MS2; CE: 20; R=; [M+H]+
Name: Caffeic acid
Name: (E)-3-(3,4-dihydroxyphenyl)prop-2-enoic acid
Formula: C9H8O4
Exact mass: 180.0423
SMILES: O=C(O)\C=C\c1cc(O)c(O)cc1
InChI: InChI=1S/C9H8O4/c10-7-3-1-6(5-8(7)11)2-4-9(12)13/h1-5,10-11H,(H,12,13)/b4-2+
Instrument: maXis plus UHR-ToF-MS, Bruker Daltonics
Instrument type: LC-ESI-QTOF
Ms type: MS2
Ion mode: POSITIVE
Ionization: ESI
Fragmentation mode: CID
Collision energy: 20
Column name: BEH C18 1.7um, 2.1x100mm, Waters
Retention time: 2.706 min
Base peak: 163.0384
Precursor m/z: 181.0495
Precursor type: [M+H]+
m/z	relative intensity
55.0179	1
61.0392	2
62.0155	1
65.038	17
66.0421	3
68.0581	2
68.9971	18
77.0379	30
79.0538	59
81.0337	7
83.0494	6
89.038	174
90.0181	1
90.0421	14
91.0543	19
94.0003	2
95.049	48
105.0338	24
105.0455	4
105.9778	3
107.0486	55
108.0524	8
111.0445	6
115.029	1
115.0415	2
117.0332	104
118.037	4
123.0403	2
124.0041	1
128.0097	1
132.0216	1
133.0293	16
133.0525	2
135.0434	134
136.0262	4
136.0477	9
139.036	5
141.0046	1
145.0276	195
146.0321	25
147.0323	3
147.0399	1
148.0028	1
151.0399	4
158.0461	1
163.0384	999
164.0423	84
179.0324	11
179.0459	1
