Mass spectrum: N-Oleyl-Isoleucine; LC-ESI-QTOF; MS2; CE: 40; R=; [M+H]+
Name: N-Oleyl-Isoleucine
Name: N-oleoyl isoleucine
Name: (2S,3S)-3-methyl-2-[[(Z)-octadec-9-enoyl]amino]pentanoic acid
Formula: C24H45NO3
Exact mass: 395.3399
SMILES: CCCCCCCC/C=C\CCCCCCCC(=O)N[C@@H]([C@@H](C)CC)C(=O)O
InChI: InChI=1S/C24H45NO3/c1-4-6-7-8-9-10-11-12-13-14-15-16-17-18-19-20-22(26)25-23(24(27)28)21(3)5-2/h12-13,21,23H,4-11,14-20H2,1-3H3,(H,25,26)(H,27,28)/b13-12-/t21-,23-/m0/s1
Instrument: maXis plus UHR-ToF-MS, Bruker Daltonics
Instrument type: LC-ESI-QTOF
Ms type: MS2
Ion mode: POSITIVE
Ionization: ESI
Fragmentation mode: CID
Collision energy: 40
Column name: BEH C18 1.7um, 2.1x100mm, Waters
Retention time: 7.239 min
Base peak: 396.347
Precursor m/z: 396.3472
Precursor type: [M+H]+
m/z	relative intensity
68.0575	1
79.0538	11
81.0693	22
82.0733	1
83.085	26
85.101	1
86.0958	999
93.0696	7
95.0851	15
97.0638	1
97.1008	6
107.085	2
109.1015	3
121.101	1
132.1016	15
135.1172	1
