Mass spectrum: Suberic acid; LC-ESI-QTOF; MS2; CE: 20; R=; [M-H]-
Name: Suberic acid
Name: Octanedioic acid
Formula: C8H14O4
Exact mass: 174.0892
SMILES: OC(=O)CCCCCCC(O)=O
InChI: InChI=1S/C8H14O4/c9-7(10)5-3-1-2-4-6-8(11)12/h1-6H2,(H,9,10)(H,11,12)
Instrument: maXis plus UHR-ToF-MS, Bruker Daltonics
Instrument type: LC-ESI-QTOF
Ms type: MS2
Ion mode: NEGATIVE
Ionization: ESI
Fragmentation mode: CID
Collision energy: 20
Column name: BEH C18 1.7um, 2.1x100mm, Waters
Retention time: 3.095 min
Base peak: 173.0825
Precursor m/z: 173.0819
Precursor type: [M-H]-
m/z	relative intensity
57.0347	224
59.0142	13
67.0555	5
69.0351	4
81.0346	15
83.0504	822
84.054	16
95.0499	3
109.0664	43
110.0706	8
111.0822	999
112.0854	42
173.0829	160
