Mass spectrum: Catechin(+); LC-ESI-QTOF; MS2; CE: 20; R=; [M+H]+
Name: Catechin(+)
Name: (+)-catechin
Name: (2R,3S)-2-(3,4-dihydroxyphenyl)-3,4-dihydro-2H-chromene-3,5,7-triol
Formula: C15H14O6
Exact mass: 290.0790
SMILES: Oc1ccc(cc1O)[C@H]3Oc2cc(O)cc(O)c2C[C@@H]3O
InChI: InChI=1S/C15H14O6/c16-8-4-11(18)9-6-13(20)15(21-14(9)5-8)7-1-2-10(17)12(19)3-7/h1-5,13,15-20H,6H2/t13-,15+/m0/s1
Instrument: maXis plus UHR-ToF-MS, Bruker Daltonics
Instrument type: LC-ESI-QTOF
Ms type: MS2
Ion mode: POSITIVE
Ionization: ESI
Fragmentation mode: CID
Collision energy: 20
Column name: BEH C18 1.7um, 2.1x100mm, Waters
Retention time: 2.548 min
Base peak: 291.0866
Precursor m/z: 291.0863
Precursor type: [M+H]+
m/z	relative intensity
65.0231	8
68.0348	9
69.034	7
78.0185	5
81.033	20
82.0415	6
83.0123	5
89.011	6
91.0994	7
93.0329	17
95.0482	23
105.0336	11
105.042	10
105.0656	6
111.0404	9
114.0264	8
117.0079	14
119.049	32
121.076	7
122.0354	6
123.0438	485
123.9802	9
124.011	11
136.0595	10
137.0592	7
139.0382	999
140.0421	104
141.0435	6
141.9854	6
145.0519	11
147.0431	426
149.0611	9
151.0386	61
153.0531	12
156.0446	19
157.9855	13
161.0588	103
162.0627	9
163.0387	109
164.0433	8
164.0593	8
165.0537	491
166.058	46
169.0481	39
170.0562	11
175.0849	9
176.0696	6
177.0041	5
177.0534	21
178.0142	9
179.0701	91
180.0743	9
181.0488	31
182.0528	7
186.9736	7
187.04	12
189.0553	36
190.0638	10
190.0834	5
194.0453	5
197.0579	11
198.0995	9
200.0448	18
203.0689	24
205.0495	33
205.0872	20
206.0939	13
207.0652	702
208.0686	66
209.0687	6
213.0548	7
227.0676	11
231.063	37
232.0673	17
241.0828	13
243.0654	13
249.0749	60
250.0793	31
255.0638	12
255.0842	6
271.062	8
273.0405	12
273.0758	70
274.0791	21
291.0862	150
