Mass spectrum: Diethylphthalate; LC-ESI-QTOF; MS2; CE: 20; R=; [M+H]+
Name: Diethylphthalate
Name: DIETHYL PHTHALATE
Name: diethyl benzene-1,2-dicarboxylate
Formula: C12H14O4
Exact mass: 222.08921
SMILES: CCOC(=O)c1ccccc1C(=O)OCC
InChI: InChI=1S/C12H14O4/c1-3-15-11(13)9-7-5-6-8-10(9)12(14)16-4-2/h5-8H,3-4H2,1-2H3
Instrument: maXis plus UHR-ToF-MS, Bruker Daltonics
Instrument type: LC-ESI-QTOF
Ms type: MS2
Ion mode: POSITIVE
Ionization: ESI
Fragmentation mode: CID
Collision energy: 20
Column name: BEH C18 1.7um, 2.1x100mm, Waters
Retention time: 4.816 min
Base peak: 149.0237
Precursor m/z: 223.0965
Precursor type: [M+H]+
m/z	relative intensity
93.0331	1
121.0284	7
149.024	999
150.0266	182
151.0283	12
167.0335	2
177.0541	62
178.0576	6
