Mass spectrum: Inosine; LC-ESI-QTOF; MS2; CE: 10; R=; [M+H]+
Name: Inosine
Name: 9-[(2R,3R,4S,5R)-3,4-dihydroxy-5-(hydroxymethyl)oxolan-2-yl]-3H-purin-6-one
Formula: C10H12N4O5
Exact mass: 268.0808
SMILES: OC[C@H]1O[C@H]([C@H](O)[C@@H]1O)N1C=NC2=C(O)N=CN=C12
InChI: InChI=1S/C10H12N4O5/c15-1-4-6(16)7(17)10(19-4)14-3-13-5-8(14)11-2-12-9(5)18/h2-4,6-7,10,15-17H,1H2,(H,11,12,18)/t4-,6-,7-,10-/m1/s1
Instrument: maXis plus UHR-ToF-MS, Bruker Daltonics
Instrument type: LC-ESI-QTOF
Ms type: MS2
Ion mode: POSITIVE
Ionization: ESI
Fragmentation mode: CID
Collision energy: 10
Column name: BEH C18 1.7um, 2.1x100mm, Waters
Retention time: 0.724 min
Base peak: 269.0877
Precursor m/z: 269.088
Precursor type: [M+H]+
m/z	relative intensity
69.0338	2
75.0787	1
81.0417	1
84.0524	2
85.029	3
97.0249	2
108.0661	1
114.0071	1
117.0564	1
117.1022	2
118.1086	1
120.0801	1
133.0484	3
137.0451	999
138.0484	57
139.0474	6
149.0976	1
268.0459	2
269.0875	227
