Mass spectrum: L-Proline; LC-ESI-QTOF; MS2; CE: 20; R=; [M-H]-
Name: L-Proline
Name: (2S)-pyrrolidine-2-carboxylic acid
Formula: C5H9NO2
Exact mass: 115.06333
SMILES: C1C[C@H](NC1)C(=O)O
InChI: InChI=1S/C5H9NO2/c7-5(8)4-2-1-3-6-4/h4,6H,1-3H2,(H,7,8)/t4-/m0/s1
Instrument: maXis plus UHR-ToF-MS, Bruker Daltonics
Instrument type: LC-ESI-QTOF
Ms type: MS2
Ion mode: NEGATIVE
Ionization: ESI
Fragmentation mode: CID
Collision energy: 20
Column name: BEH C18 1.7um, 2.1x100mm, Waters
Retention time: 0.627 min
Base peak: 69.004
Precursor m/z: 114.0561
Precursor type: [M-H]-
m/z	relative intensity
114.0563	999
