Mass spectrum: delta4-Dafachronic acid; LC-ESI-QTOF; MS2; CE: 20; R=; [M+H]+
Name: delta4-Dafachronic acid
Name: 3-Oxocholest-4-en-26-oic acid
Name: (6R)-6-[(8S,9S,10R,13R,14S,17R)-10,13-dimethyl-3-oxo-1,2,6,7,8,9,11,12,14,15,16,17-dodecahydrocyclopenta[a]phenanthren-17-yl]-2-methylheptanoic acid
Formula: C27H42O3
Exact mass: 414.3134
SMILES: C[C@H](CCCC(C)C(O)=O)[C@H]1CC[C@H]2[C@@H]3CCC4=CC(=O)CC[C@]4(C)[C@H]3CC[C@]12C
InChI: InChI=1S/C27H42O3/c1-17(6-5-7-18(2)25(29)30)22-10-11-23-21-9-8-19-16-20(28)12-14-26(19,3)24(21)13-15-27(22,23)4/h16-18,21-24H,5-15H2,1-4H3,(H,29,30)/t17-,18?,21+,22-,23+,24+,26+,27-/m1/s1
Instrument: maXis plus UHR-ToF-MS, Bruker Daltonics
Instrument type: LC-ESI-QTOF
Ms type: MS2
Ion mode: POSITIVE
Ionization: ESI
Fragmentation mode: CID
Collision energy: 20
Column name: BEH C18 1.7um, 2.1x100mm, Waters
Retention time: 6.662 min
Base peak: 88.075
Precursor m/z: 415.3207
Precursor type: [M+H]+
m/z	relative intensity
81.0697	8
83.0488	12
95.0857	3
97.0646	146
98.0679	6
105.0705	1
107.0848	1
109.0646	76
110.0681	5
121.1016	1
123.0807	1
123.1164	1
149.1331	1
159.1167	1
161.133	1
163.1485	1
171.1171	1
175.1476	1
177.1279	1
177.1639	1
187.1484	1
189.1255	1
189.1631	2
193.1582	1
199.1476	1
201.1644	1
203.1431	2
215.143	1
215.1791	2
217.1586	2
219.1741	1
223.1671	1
227.1794	1
229.1596	1
231.1751	2
233.1882	1
241.1946	2
243.1761	2
253.195	2
255.2103	2
256.2153	1
257.1881	3
267.2095	1
269.1896	2
271.2057	13
271.241	1
272.2097	2
273.221	1
281.2281	2
285.219	1
287.2371	1
289.2529	7
290.256	1
295.2429	1
297.222	1
299.2367	6
300.2398	2
301.2523	3
313.2512	1
315.2681	2
339.2695	1
351.3047	13
352.3089	3
361.2872	2
369.315	97
370.3177	24
371.3212	2
379.299	42
380.3017	11
397.3102	229
398.3135	62
399.3169	7
415.3206	999
417.3268	40
