Mass spectrum: C10-homoserine lactone; LC-ESI-QTOF; MS2; CE: 40; R=; [M+H]+
Name: C10-homoserine lactone
Name: N-Decanoyl-DL-homoserine lactone
Name: N-(2-oxooxolan-3-yl)decanamide
Formula: C14H25NO3
Exact mass: 255.18344
SMILES: CCCCCCCCCC(=O)NC1CCOC1=O
InChI: InChI=1S/C14H25NO3/c1-2-3-4-5-6-7-8-9-13(16)15-12-10-11-18-14(12)17/h12H,2-11H2,1H3,(H,15,16)
Instrument: maXis plus UHR-ToF-MS, Bruker Daltonics
Instrument type: LC-ESI-QTOF
Ms type: MS2
Ion mode: POSITIVE
Ionization: ESI
Fragmentation mode: CID
Collision energy: 40
Column name: BEH C18 1.7um, 2.1x100mm, Waters
Retention time: 5.113 min
Base peak: 256.1903
Precursor m/z: 256.1907
Precursor type: [M+H]+
m/z	relative intensity
49.0631	1
58.0409	1
59.0481	3
61.0516	1
66.0457	2
67.0536	533
70.0645	2
71.0848	999
73.0633	2
74.023	594
74.0593	975
75.0553	2
76.0624	1
78.0465	2
79.0539	78
80.0577	4
81.0694	515
82.0659	3
82.073	32
83.0724	1
83.0854	18
84.0438	189
85.0279	111
85.0642	10
85.1006	180
91.0551	1
93.0698	19
94.074	3
95.0851	289
97.1015	2
100.0748	1
102.0548	178
110.0943	1
154.1581	1
155.142	15
