Mass spectrum: N-Oleoyl-Phenylalanine; LC-ESI-QTOF; MS2; CE: 20; R=; [M-H]-
Name: N-Oleoyl-Phenylalanine
Name: N-oleoyl phenylalanine
Name: (2S)-2-[[(Z)-octadec-9-enoyl]amino]-3-phenylpropanoic acid
Formula: C27H43NO3
Exact mass: 429.3243
SMILES: CCCCCCCC/C=C\CCCCCCCC(=O)N[C@@H](CC1=CC=CC=C1)C(=O)O
InChI: InChI=1S/C27H43NO3/c1-2-3-4-5-6-7-8-9-10-11-12-13-14-15-19-22-26(29)28-25(27(30)31)23-24-20-17-16-18-21-24/h9-10,16-18,20-21,25H,2-8,11-15,19,22-23H2,1H3,(H,28,29)(H,30,31)/b10-9-/t25-/m0/s1
Instrument: maXis plus UHR-ToF-MS, Bruker Daltonics
Instrument type: LC-ESI-QTOF
Ms type: MS2
Ion mode: NEGATIVE
Ionization: ESI
Fragmentation mode: CID
Collision energy: 20
Column name: BEH C18 1.7um, 2.1x100mm, Waters
Retention time: 7.184 min
Base peak: 428.3165
Precursor m/z: 428.317
Precursor type: [M-H]-
m/z	relative intensity
91.0562	2
164.0717	23
165.0753	1
280.2646	2
428.3169	999
