Mass spectrum: L-Lysine; LC-ESI-QTOF; MS2; CE: 10; R=; [M+H]+
Name: L-Lysine
Formula: C6H14N2O2
Exact mass: 146.10553
SMILES: C(CCN)C[C@@H](C(=O)O)N
InChI: InChI=1S/C6H14N2O2/c7-4-2-1-3-5(8)6(9)10/h5H,1-4,7-8H2,(H,9,10)/t5-/m0/s1
Instrument: maXis plus UHR-ToF-MS, Bruker Daltonics
Instrument type: LC-ESI-QTOF
Ms type: MS2
Ion mode: POSITIVE
Ionization: ESI
Fragmentation mode: CID
Collision energy: 10
Column name: BEH C18 1.7um, 2.1x100mm, Waters
Retention time: 0.563 min
Base peak: 51.0564
Precursor m/z: 147.1128
Precursor type: [M+H]+
m/z	relative intensity
56.049	2
84.0802	999
85.0605	3
85.084	56
85.9999	1
92.0578	1
96.0522	2
101.1064	12
102.0909	6
103.0249	4
112.0751	1
117.0425	2
130.0859	250
147.1122	384
