Mass spectrum: Docosahexaenoic acid; LC-ESI-QTOF; MS2; CE: 10; R=; [M-H]-
Name: Docosahexaenoic acid
Name: Docosahexaenoic acid (22:6(n-3))
Name: 4Z,7Z,10Z,13Z,16Z,19Z-Docosahexaenoic acid
Name: DHA
Formula: C22H32O2
Exact mass: 328.24023
SMILES: CC/C=C\C/C=C\C/C=C\C/C=C\C/C=C\C/C=C\CCC(=O)O
InChI: InChI=1S/C22H32O2/c1-2-3-4-5-6-7-8-9-10-11-12-13-14-15-16-17-18-19-20-21-22(23)24/h3-4,6-7,9-10,12-13,15-16,18-19H,2,5,8,11,14,17,20-21H2,1H3,(H,23,24)/b4-3-,7-6-,10-9-,13-12-,16-15-,19-18-
Instrument: maXis plus UHR-ToF-MS, Bruker Daltonics
Instrument type: LC-ESI-QTOF
Ms type: MS2
Ion mode: NEGATIVE
Ionization: ESI
Fragmentation mode: CID
Collision energy: 10
Column name: BEH C18 1.7um, 2.1x100mm, Waters
Retention time: 6.764 min
Base peak: 327.2324
Precursor m/z: 327.233
Precursor type: [M-H]-
m/z	relative intensity
67.0547	2
131.0865	2
227.2023	2
229.1958	4
230.1989	2
249.1869	2
283.2432	126
298.2265	2
327.2321	999
