Mass spectrum: Taurochenodeoxycholate; LC-ESI-QTOF; MS2; CE: 10; R=; [M+H]+
Name: Taurochenodeoxycholate
Name: TAUROCHENODEOXYCHOLIC ACID
Name: 2-[[(4R)-4-[(3R,5S,7R,8R,9S,10S,13R,14S,17R)-3,7-dihydroxy-10,13-dimethyl-2,3,4,5,6,7,8,9,11,12,14,15,16,17-tetradecahydro-1H-cyclopenta[a]phenanthren-17-yl]pentanoyl]amino]ethanesulfonic acid
Formula: C26H45NO6S
Exact mass: 499.2968
SMILES: C[C@H](CC/C(=N/CCS(=O)(=O)O)/O)[C@H]1CC[C@@H]2[C@@]1(CC[C@H]3[C@H]2[C@@H](C[C@H]4[C@@]3(CC[C@H](C4)O)C)O)C
InChI: InChI=1S/C26H45NO6S/c1-16(4-7-23(30)27-12-13-34(31,32)33)19-5-6-20-24-21(9-11-26(19,20)3)25(2)10-8-18(28)14-17(25)15-22(24)29/h16-22,24,28-29H,4-15H2,1-3H3,(H,27,30)(H,31,32,33)/t16-,17+,18-,19-,20+,21+,22-,24+,25+,26-/m1/s1
Instrument: maXis plus UHR-ToF-MS, Bruker Daltonics
Instrument type: LC-ESI-QTOF
Ms type: MS2
Ion mode: POSITIVE
Ionization: ESI
Fragmentation mode: CID
Collision energy: 10
Column name: BEH C18 1.7um, 2.1x100mm, Waters
Retention time: 4.293 min
Base peak: 88.075
Precursor m/z: 500.304
Precursor type: [M+H]+
m/z	relative intensity
126.2012	1
150.1379	1
157.3316	1
158.2541	1
168.1289	1
184.0885	1
193.9546	1
212.9869	1
226.2552	1
238.0319	1
242.2337	1
246.0815	1
247.1368	1
248.0366	1
256.9938	1
258.2322	1
260.2025	1
262.1844	1
266.2628	1
268.3079	1
270.0295	1
270.2801	1
274.0792	1
274.2095	1
274.247	1
278.1644	1
283.0504	1
287.1945	1
288.0249	1
288.1257	1
288.2992	1
298.9976	1
302.2121	1
303.1495	1
303.2834	1
304.9558	1
310.3439	1
311.1314	1
311.2163	1
312.9745	1
318.0288	1
322.0954	1
325.0811	1
331.0737	1
331.9401	1
335.161	1
337.0425	1
339.2671	1
343.0617	1
343.1922	1
344.2918	1
347.9449	1
348.1878	1
349.0177	1
349.0266	1
350.2715	1
352.0343	1
361.2151	1
363.2857	1
365.1582	1
365.337	1
367.152	1
367.9758	1
368.1968	1
371.1321	1
379.1032	1
382.2045	1
382.3211	1
383.1399	1
386.0727	1
386.2259	1
390.2497	1
391.127	1
393.1095	1
394.2281	1
398.2481	1
399.1342	1
400.1545	1
400.263	1
400.2915	1
403.0624	1
403.1881	1
409.2549	1
409.2958	1
410.3292	1
411.099	1
411.1426	1
411.1807	1
412.2193	1
415.2576	1
415.2743	1
416.0869	1
416.1658	1
416.9504	1
421.194	1
423.1931	1
427.271	1
433.0674	1
434.1272	1
435.244	1
436.2105	1
438.1447	1
439.1459	1
440.2788	1
441.2706	1
442.1376	1
443.0908	1
445.1529	1
445.292	1
446.0072	1
447.2093	1
448.1642	1
449.9983	1
450.1248	1
451.2303	1
452.0583	1
453.1346	1
458.0073	1
462.1092	1
462.1567	1
463.1343	1
463.2452	1
463.2782	1
463.3061	1
464.2824	876
465.286	225
466.2862	45
467.2918	5
468.2837	1
472.116	1
473.1315	1
478.0527	2
480.2332	1
481.1812	1
481.24	1
481.2746	1
481.3067	1
482.2932	999
483.2962	304
484.2961	58
485.2327	1
485.2929	9
488.9783	1
499.1724	1
499.2342	2
499.2511	2
500.3034	629
502.3053	33
503.3055	6
