Mass spectrum: L-Cystathione; LC-ESI-QTOF; MS2; CE: 40; R=; [M+H]+
Name: L-Cystathione
Name: L-cystathionine
Name: (2S)-2-azaniumyl-4-[(2R)-2-azaniumyl-2-carboxylatoethyl]sulfanylbutanoate
Formula: C7H14N2O4S
Exact mass: 222.0674
SMILES: C(CSC[C@@H](C(=O)O)N)[C@@H](C(=O)O)N
InChI: InChI=1S/C7H14N2O4S/c8-4(6(10)11)1-2-14-3-5(9)7(12)13/h4-5H,1-3,8-9H2,(H,10,11)(H,12,13)/t4-,5-/m0/s1
Instrument: maXis plus UHR-ToF-MS, Bruker Daltonics
Instrument type: LC-ESI-QTOF
Ms type: MS2
Ion mode: POSITIVE
Ionization: ESI
Fragmentation mode: CID
Collision energy: 40
Column name: BEH C18 1.7um, 2.1x100mm, Waters
Retention time: 0.589 min
Base peak: 66.0342
Precursor m/z: 223.0747
Precursor type: [M+H]+
m/z	relative intensity
54.0317	1
70.0277	4
74.0226	3
88.0209	999
89.005	1
89.0237	22
90.0171	30
90.0366	2
106.9946	1
134.0262	6
