Mass spectrum: N-Oleoyl-Phenylalanine; LC-ESI-QTOF; MS2; CE: 20; R=; [M+H]+
Name: N-Oleoyl-Phenylalanine
Name: N-oleoyl phenylalanine
Name: (2S)-2-[[(Z)-octadec-9-enoyl]amino]-3-phenylpropanoic acid
Formula: C27H43NO3
Exact mass: 429.3243
SMILES: CCCCCCCC/C=C\CCCCCCCC(=O)N[C@@H](CC1=CC=CC=C1)C(=O)O
InChI: InChI=1S/C27H43NO3/c1-2-3-4-5-6-7-8-9-10-11-12-13-14-15-19-22-26(29)28-25(27(30)31)23-24-20-17-16-18-21-24/h9-10,16-18,20-21,25H,2-8,11-15,19,22-23H2,1H3,(H,28,29)(H,30,31)/b10-9-/t25-/m0/s1
Instrument: maXis plus UHR-ToF-MS, Bruker Daltonics
Instrument type: LC-ESI-QTOF
Ms type: MS2
Ion mode: POSITIVE
Ionization: ESI
Fragmentation mode: CID
Collision energy: 20
Column name: BEH C18 1.7um, 2.1x100mm, Waters
Retention time: 7.193 min
Base peak: 430.3314
Precursor m/z: 430.3316
Precursor type: [M+H]+
m/z	relative intensity
46.0651	1
49.1456	1
57.0208	1
58.3474	1
64.016	1
69.0698	4
73.2037	1
80.2136	1
81.0692	8
83.0852	2
93.069	1
95.0862	2
97.1003	3
103.0535	1
105.1628	1
107.048	1
108.1875	1
109.1021	1
112.3221	1
114.0067	1
117.0062	1
120.0806	134
121.0838	12
127.1568	1
130.0128	1
135.1171	2
140.0945	1
148.3136	1
149.0587	1
149.0709	2
151.1478	1
153.1625	1
166.0855	999
167.0887	91
168.0927	4
247.2417	7
265.2533	16
266.2549	5
364.0136	1
384.3256	46
385.3304	12
412.3201	6
413.3234	2
414.3227	1
426.2883	4
427.2947	3
429.3203	4
430.3314	139
432.3371	6
