Mass spectrum: 4-Methylvaleric acid; LC-ESI-QTOF; MS2; CE: 20; R=; [M+H]+
Name: 4-Methylvaleric acid
Name: 4-methylpentanoic acid
Formula: C6H12O2
Exact mass: 116.0837
SMILES: CC(C)CCC(O)=O
InChI: InChI=1S/C6H12O2/c1-5(2)3-4-6(7)8/h5H,3-4H2,1-2H3,(H,7,8)
Instrument: maXis plus UHR-ToF-MS, Bruker Daltonics
Instrument type: LC-ESI-QTOF
Ms type: MS2
Ion mode: POSITIVE
Ionization: ESI
Fragmentation mode: CID
Collision energy: 20
Column name: BEH C18 1.7um, 2.1x100mm, Waters
Retention time: 3.871 min
Base peak: 81.0692
Precursor m/z: 117.091
Precursor type: [M+H]+
m/z	relative intensity
61.0285	28
73.0642	365
77.0478	28
80.0588	36
81.0692	999
83.0488	158
97.0639	121
