Mass spectrum: Methyl trans-cinnamic acid; LC-ESI-QTOF; MS2; CE: 40; R=; [M+H]+
Name: Methyl trans-cinnamic acid
Name: 4-Methylcinnamic acid
Name: (E)-3-(4-methylphenyl)prop-2-enoic acid
Formula: C10H10O2
Exact mass: 162.0681
SMILES: Cc1ccc(cc1)/C=C/C(=O)O
InChI: InChI=1S/C10H10O2/c1-8-2-4-9(5-3-8)6-7-10(11)12/h2-7H,1H3,(H,11,12)/b7-6+
Instrument: maXis plus UHR-ToF-MS, Bruker Daltonics
Instrument type: LC-ESI-QTOF
Ms type: MS2
Ion mode: POSITIVE
Ionization: ESI
Fragmentation mode: CID
Collision energy: 40
Column name: BEH C18 1.7um, 2.1x100mm, Waters
Retention time: 4.849 min
Base peak: 88.0752
Precursor m/z: 163.0754
Precursor type: [M+H]+
m/z	relative intensity
49.0071	22
77.0382	999
81.0336	15
88.0757	49
91.0542	98
95.0486	699
96.052	53
103.0538	722
104.0587	52
105.0444	269
