Mass spectrum: 13-methylmyristic acid; LC-ESI-QTOF; MS2; CE: 40; R=; [M+H]+
Name: 13-methylmyristic acid
Name: 13-methyltetradecanoic acid
Formula: C15H30O2
Exact mass: 242.2246
SMILES: CC(C)CCCCCCCCCCCC(=O)O
InChI: InChI=1S/C15H30O2/c1-14(2)12-10-8-6-4-3-5-7-9-11-13-15(16)17/h14H,3-13H2,1-2H3,(H,16,17)
Instrument: maXis plus UHR-ToF-MS, Bruker Daltonics
Instrument type: LC-ESI-QTOF
Ms type: MS2
Ion mode: POSITIVE
Ionization: ESI
Fragmentation mode: CID
Collision energy: 40
Column name: BEH C18 1.7um, 2.1x100mm, Waters
Retention time: 6.986 min
Base peak: 88.0749
Precursor m/z: 243.2319
Precursor type: [M+H]+
m/z	relative intensity
67.0541	999
69.0693	846
71.0485	317
74.0958	246
102.0918	329
117.0572	434
143.071	305
172.0748	376
185.1169	293
198.1247	246
214.1205	293
