Mass spectrum: Hippuric acid; LC-ESI-QTOF; MS2; CE: 10; R=; [M+H]+
Name: Hippuric acid
Name: 2-benzamidoacetic acid
Formula: C9H9NO3
Exact mass: 179.0582
SMILES: OC(=O)CNC(=O)c1ccccc1
InChI: InChI=1S/C9H9NO3/c11-8(12)6-10-9(13)7-4-2-1-3-5-7/h1-5H,6H2,(H,10,13)(H,11,12)
Instrument: maXis plus UHR-ToF-MS, Bruker Daltonics
Instrument type: LC-ESI-QTOF
Ms type: MS2
Ion mode: POSITIVE
Ionization: ESI
Fragmentation mode: CID
Collision energy: 10
Column name: BEH C18 1.7um, 2.1x100mm, Waters
Retention time: 2.762 min
Base peak: 105.0333
Precursor m/z: 180.0655
Precursor type: [M+H]+
m/z	relative intensity
77.0381	8
95.0485	4
105.0334	999
106.0366	53
134.06	2
152.0704	1
162.0544	12
180.0648	183
182.0685	2
