Mass spectrum: Indolacetic acid; LC-ESI-QTOF; MS2; CE: 10; R=; [M-H]-
Name: Indolacetic acid
Name: indole-3-acetic acid
Name: 2-(1H-indol-3-yl)acetic acid
Formula: C10H9NO2
Exact mass: 175.0633
SMILES: OC(=O)CC1=CNC2=C1C=CC=C2
InChI: InChI=1S/C10H9NO2/c12-10(13)5-7-6-11-9-4-2-1-3-8(7)9/h1-4,6,11H,5H2,(H,12,13)
Instrument: maXis plus UHR-ToF-MS, Bruker Daltonics
Instrument type: LC-ESI-QTOF
Ms type: MS2
Ion mode: NEGATIVE
Ionization: ESI
Fragmentation mode: CID
Collision energy: 10
Column name: BEH C18 1.7um, 2.1x100mm, Waters
Retention time: 3.532 min
Base peak: 174.0568
Precursor m/z: 174.0561
Precursor type: [M-H]-
m/z	relative intensity
130.067	999
174.0569	697
