Mass spectrum: 3-oxo-C8-homoserine lactone; LC-ESI-QTOF; MS2; CE: 10; R=; [M-H]-
Name: 3-oxo-C8-homoserine lactone
Name: N-(3X-Oxooctanoyl)-DL-homoserine lactone
Name: 3-oxo-N-(2-oxooxolan-3-yl)octanamide
Formula: C12H19NO4
Exact mass: 241.1314
SMILES: CCCCCC(=O)CC(=O)NC1CCOC1=O
InChI: InChI=1S/C12H19NO4/c1-2-3-4-5-9(14)8-11(15)13-10-6-7-17-12(10)16/h10H,2-8H2,1H3,(H,13,15)
Instrument: maXis plus UHR-ToF-MS, Bruker Daltonics
Instrument type: LC-ESI-QTOF
Ms type: MS2
Ion mode: NEGATIVE
Ionization: ESI
Fragmentation mode: CID
Collision energy: 10
Column name: BEH C18 1.7um, 2.1x100mm, Waters
Retention time: 3.786 min
Base peak: 240.1247
Precursor m/z: 240.1241
Precursor type: [M-H]-
m/z	relative intensity
70.0301	1
100.0408	1
113.098	8
115.0772	109
126.0204	10
142.0515	2
166.1245	8
178.1248	2
192.1026	1
196.1331	1
240.1248	999
