Mass spectrum: Palmitoleoyl Ethanolamide; LC-ESI-QTOF; MS2; CE: 10; R=; [M+H]+
Name: Palmitoleoyl Ethanolamide
Name: Palmitoleoyl-EA
Name: (Z)-N-(2-hydroxyethyl)hexadec-9-enamide
Formula: C18H35NO2
Exact mass: 297.26678
SMILES: CCCCCC/C=C\CCCCCCCC(NCCO)=O
InChI: InChI=1S/C18H35NO2/c1-2-3-4-5-6-7-8-9-10-11-12-13-14-15-18(21)19-16-17-20/h7-8,20H,2-6,9-17H2,1H3,(H,19,21)/b8-7-
Instrument: maXis plus UHR-ToF-MS, Bruker Daltonics
Instrument type: LC-ESI-QTOF
Ms type: MS2
Ion mode: POSITIVE
Ionization: ESI
Fragmentation mode: CID
Collision energy: 10
Column name: BEH C18 1.7um, 2.1x100mm, Waters
Retention time: 6.261 min
Base peak: 298.2739
Precursor m/z: 298.2741
Precursor type: [M+H]+
m/z	relative intensity
219.2115	1
237.222	1
280.2634	3
281.2479	20
298.274	999
