Mass spectrum: N-Oleyl-Leucine; LC-ESI-QTOF; MS2; CE: 20; R=; [M+H]+
Name: N-Oleyl-Leucine
Name: N-oleoyl leucine
Name: (2S)-4-methyl-2-[[(Z)-octadec-9-enoyl]amino]pentanoic acid
Formula: C24H45NO3
Exact mass: 395.3399
SMILES: CCCCCCCC/C=C\CCCCCCCC(=O)N[C@@H](CC(C)C)C(=O)O
InChI: InChI=1S/C24H45NO3/c1-4-5-6-7-8-9-10-11-12-13-14-15-16-17-18-19-23(26)25-22(24(27)28)20-21(2)3/h11-12,21-22H,4-10,13-20H2,1-3H3,(H,25,26)(H,27,28)/b12-11-/t22-/m0/s1
Instrument: maXis plus UHR-ToF-MS, Bruker Daltonics
Instrument type: LC-ESI-QTOF
Ms type: MS2
Ion mode: POSITIVE
Ionization: ESI
Fragmentation mode: CID
Collision energy: 20
Column name: BEH C18 1.7um, 2.1x100mm, Waters
Retention time: 7.227 min
Base peak: 396.3473
Precursor m/z: 396.3472
Precursor type: [M+H]+
m/z	relative intensity
81.0692	8
83.0853	5
85.1006	2
86.0959	999
93.0702	1
95.0856	4
97.0643	1
97.1007	5
109.1009	3
111.1165	1
121.1015	3
132.1018	242
149.1322	1
247.2433	11
265.2528	30
266.2577	5
313.2952	1
350.3416	65
351.3459	13
352.3453	1
378.3373	10
379.34	4
396.3474	136
398.3537	3
399.3069	2
