Mass spectrum: p-Coumaric acid; LC-ESI-QTOF; MS2; CE: 40; R=; [M-H]-
Name: p-Coumaric acid
Name: (E)-3-(4-hydroxyphenyl)prop-2-enoic acid
Formula: C9H8O3
Exact mass: 164.0473
SMILES: c1cc(ccc1/C=C/C(=O)O)O
InChI: InChI=1S/C9H8O3/c10-8-4-1-7(2-5-8)3-6-9(11)12/h1-6,10H,(H,11,12)/b6-3+
Instrument: maXis plus UHR-ToF-MS, Bruker Daltonics
Instrument type: LC-ESI-QTOF
Ms type: MS2
Ion mode: NEGATIVE
Ionization: ESI
Fragmentation mode: CID
Collision energy: 40
Column name: BEH C18 1.7um, 2.1x100mm, Waters
Retention time: 3.019 min
Base peak: 163.0407
Precursor m/z: 163.0401
Precursor type: [M-H]-
m/z	relative intensity
65.0396	324
66.0433	9
89.04	19
91.0554	131
92.0273	13
93.0347	999
94.0381	40
104.027	13
117.0353	44
119.0508	286
