Mass spectrum: C6-homoserine lactone; LC-ESI-QTOF; MS2; CE: 40; R=; [M+H]+
Name: C6-homoserine lactone
Name: N-Hexanoyl-DL-homoserine lactone
Name: N-(2-oxooxolan-3-yl)hexanamide
Formula: C10H17NO3
Exact mass: 199.12084
SMILES: CCCCCC(=O)NC1CCOC1=O
InChI: InChI=1S/C10H17NO3/c1-2-3-4-5-9(12)11-8-6-7-14-10(8)13/h8H,2-7H2,1H3,(H,11,12)
Instrument: maXis plus UHR-ToF-MS, Bruker Daltonics
Instrument type: LC-ESI-QTOF
Ms type: MS2
Ion mode: POSITIVE
Ionization: ESI
Fragmentation mode: CID
Collision energy: 40
Column name: BEH C18 1.7um, 2.1x100mm, Waters
Retention time: 3.506 min
Base peak: 200.1277
Precursor m/z: 200.1281
Precursor type: [M+H]+
m/z	relative intensity
50.073	4
57.0326	10
70.0646	12
71.0849	911
74.0229	999
76.0261	8
79.0541	17
80.0491	3
81.0697	23
82.0529	8
84.0436	231
85.0282	87
85.1217	5
86.0344	15
99.079	33
100.0393	4
102.0544	94
112.0758	7
171.0889	4
