Mass spectrum: Dioctylphthalate; LC-ESI-QTOF; MS2; CE: 20; R=; [M+H]+
Name: Dioctylphthalate
Name: Dioctyl phthalate
Name: dioctyl benzene-1,2-dicarboxylate
Formula: C24H38O4
Exact mass: 390.27701
SMILES: CCCCCCCCOC(=O)c1ccccc1C(=O)OCCCCCCCC
InChI: InChI=1S/C24H38O4/c1-3-5-7-9-11-15-19-27-23(25)21-17-13-14-18-22(21)24(26)28-20-16-12-10-8-6-4-2/h13-14,17-18H,3-12,15-16,19-20H2,1-2H3
Instrument: maXis plus UHR-ToF-MS, Bruker Daltonics
Instrument type: LC-ESI-QTOF
Ms type: MS2
Ion mode: POSITIVE
Ionization: ESI
Fragmentation mode: CID
Collision energy: 20
Column name: BEH C18 1.7um, 2.1x100mm, Waters
Retention time: 7.638 min
Base peak: 391.2846
Precursor m/z: 391.2843
Precursor type: [M+H]+
m/z	relative intensity
60.0804	2
62.1297	3
65.0465	2
67.0755	2
71.085	118
73.1949	3
77.1068	3
83.2946	2
96.2651	2
105.0445	3
110.0228	1
111.0394	1
113.1333	1
117.0566	1
120.139	1
125.994	2
126.1141	2
128.2136	2
133.039	1
149.023	999
150.0265	86
151.0134	4
151.027	1
167.034	20
190.0531	3
191.0708	1
199.0047	1
209.0809	2
236.1665	1
261.0328	1
261.1501	6
