Mass spectrum: Quercetin; LC-ESI-QTOF; MS2; CE: 40; R=; [M+H]+
Name: Quercetin
Name: 2-(3,4-dihydroxyphenyl)-3,5,7-trihydroxychromen-4-one
Formula: C15H10O7
Exact mass: 302.0427
SMILES: OC1=CC(O)=C2C(OC(=C(O)C2=O)C2=CC=C(O)C(O)=C2)=C1
InChI: InChI=1S/C15H10O7/c16-7-4-10(19)12-11(5-7)22-15(14(21)13(12)20)6-1-2-8(17)9(18)3-6/h1-5,16-19,21H
Instrument: maXis plus UHR-ToF-MS, Bruker Daltonics
Instrument type: LC-ESI-QTOF
Ms type: MS2
Ion mode: POSITIVE
Ionization: ESI
Fragmentation mode: CID
Collision energy: 40
Column name: BEH C18 1.7um, 2.1x100mm, Waters
Retention time: 3.696 min
Base peak: 303.05
Precursor m/z: 303.0499
Precursor type: [M+H]+
m/z	relative intensity
52.0304	2
53.0597	6
57.008	3
65.038	61
68.9965	340
70.016	7
71.0128	16
77.9947	2
86.0734	3
86.0838	3
87.0194	2
89.0378	2
91.0547	11
91.9972	2
93.033	40
93.0694	2
94.0366	9
95.0485	73
96.0526	4
97.0238	7
99.0293	2
101.9944	3
104.062	7
105.0341	8
105.0451	2
107.0091	4
109.0121	3
109.0282	45
110.0359	8
111.0075	45
111.0392	5
112.0118	5
115.0534	9
115.985	4
116.0009	4
117.0298	7
117.0706	8
120.0162	3
121.029	23
122.0311	9
123.043	19
124.0262	2
124.0508	5
125.0242	4
125.997	2
127.0116	5
127.0383	6
130.0147	2
131.0459	9
134.0683	3
135.0431	17
137.0227	93
138.0266	9
139.0267	2
143.0377	2
143.0481	6
144.0166	4
144.0314	2
145.0284	14
145.0654	14
146.0309	2
146.0681	9
147.0062	2
149.0232	27
150.0314	8
151.0403	2
151.9598	5
151.9982	4
152.0092	3
153.0179	486
154.0212	48
154.0399	4
154.9989	4
155.0225	5
155.0488	63
156.0411	2
156.0509	6
157.0657	3
159.0451	14
160.0518	4
161.0229	2
161.0593	35
162.0028	2
162.0623	8
163.0384	60
163.9977	4
164.0419	6
165.0177	176
166.0267	23
167.0336	4
167.0484	3
168.0057	3
173.0234	9
173.0594	133
176.0436	3
177.0195	17
177.0546	13
177.9914	2
178.0217	3
179.0351	26
179.0567	3
179.9698	4
179.9937	2
181.0564	3
182.0309	2
183.0274	54
183.0438	71
184.0493	32
185.0571	9
185.9835	3
187.0163	4
187.0383	68
188.0366	4
188.049	3
189.0413	4
189.0574	2
189.0791	2
190.0584	2
191.0336	26
191.07	13
192.0419	7
193.0145	6
194.0163	5
195.0292	15
195.0459	3
199.0393	6
200.0489	12
201.0545	378
202.0586	44
203.0208	2
203.0336	9
204.0423	2
205.0123	6
205.0502	23
207.0296	10
208.0328	4
211.0389	44
212.0425	4
213.0543	11
214.0601	5
215.0332	9
215.0544	6
216.0328	3
216.0449	4
217.0492	15
217.9924	4
218.0529	7
218.0621	6
219.0264	7
219.0648	28
220.0371	2
221.0053	2
221.046	3
221.9956	2
222.0074	3
223.0301	4
225.0423	3
227.0326	2
228.0412	56
229.0493	999
230.0529	126
231.0254	8
231.0551	7
232.0351	24
233.0414	10
234.0497	3
234.9853	2
237.0369	7
239.0222	5
239.0333	50
240.0377	6
243.03	4
244.0024	2
245.0428	27
246.0471	15
247.0236	5
247.0598	65
249.0355	3
250.0208	2
256.0367	3
257.0446	412
258.0485	58
259.0493	5
261.0382	4
267.028	6
268.0318	5
269.0403	2
273.0382	9
274.0471	92
275.0562	13
277.0573	2
284.0295	4
285.0388	119
286.0451	22
301.0322	7
303.0499	671
305.0522	8
