Mass spectrum: Diisopropylphthalate; LC-ESI-QTOF; MS2; CE: 10; R=; [M+H]+
Name: Diisopropylphthalate
Name: DIISOPROPYL PHTHALATE
Name: dipropan-2-yl benzene-1,2-dicarboxylate
Formula: C14H18O4
Exact mass: 250.12051
SMILES: CC(C)OC(=O)c1ccccc1C(=O)OC(C)C
InChI: InChI=1S/C14H18O4/c1-9(2)17-13(15)11-7-5-6-8-12(11)14(16)18-10(3)4/h5-10H,1-4H3
Instrument: maXis plus UHR-ToF-MS, Bruker Daltonics
Instrument type: LC-ESI-QTOF
Ms type: MS2
Ion mode: POSITIVE
Ionization: ESI
Fragmentation mode: CID
Collision energy: 10
Column name: BEH C18 1.7um, 2.1x100mm, Waters
Retention time: 5.435 min
Base peak: 149.0246
Precursor m/z: 251.1278
Precursor type: [M+H]+
m/z	relative intensity
149.0246	999
150.0267	173
151.0287	13
167.0339	102
191.0698	281
192.0734	34
193.0755	2
209.0805	102
251.1277	87
