Mass spectrum: 3-oxo-C10-homoserine lactone; LC-ESI-QTOF; MS2; CE: 10; R=; [M+H]+
Name: 3-oxo-C10-homoserine lactone
Name: N-(3-Oxodecanoyl)-DL-homoserine lactone
Name: 3-oxo-N-(2-oxooxolan-3-yl)decanamide
Formula: C14H23NO4
Exact mass: 269.16271
SMILES: CCCCCCCC(=O)CC(=O)NC1CCOC1=O
InChI: InChI=1S/C14H23NO4/c1-2-3-4-5-6-7-11(16)10-13(17)15-12-8-9-19-14(12)18/h12H,2-10H2,1H3,(H,15,17)
Instrument: maXis plus UHR-ToF-MS, Bruker Daltonics
Instrument type: LC-ESI-QTOF
Ms type: MS2
Ion mode: POSITIVE
Ionization: ESI
Fragmentation mode: CID
Collision energy: 10
Column name: BEH C18 1.7um, 2.1x100mm, Waters
Retention time: 4.607 min
Base peak: 270.1696
Precursor m/z: 270.17
Precursor type: [M+H]+
m/z	relative intensity
74.0594	41
84.0441	5
98.0599	21
102.0546	711
127.1115	12
169.1217	291
170.1254	22
210.1486	1
212.1641	34
213.167	2
224.1643	19
225.1672	2
228.1589	20
229.1638	2
242.1746	105
252.1589	23
253.1621	2
270.1696	999
272.1757	12
