Mass spectrum: 7-Methylxanthine; LC-ESI-QTOF; MS2; CE: 10; R=; [M+H]+
Name: 7-Methylxanthine
Name: 7-methyl-3H-purine-2,6-dione
Formula: C6H6N4O2
Exact mass: 166.0491
SMILES: Cn1cnc2[nH]c(=O)[nH]c(=O)c12
InChI: InChI=1S/C6H6N4O2/c1-10-2-7-4-3(10)5(11)9-6(12)8-4/h2H,1H3,(H2,8,9,11,12)
Instrument: maXis plus UHR-ToF-MS, Bruker Daltonics
Instrument type: LC-ESI-QTOF
Ms type: MS2
Ion mode: POSITIVE
Ionization: ESI
Fragmentation mode: CID
Collision energy: 10
Column name: BEH C18 1.7um, 2.1x100mm, Waters
Retention time: 0.819 min
Base peak: 167.0558
Precursor m/z: 167.0564
Precursor type: [M+H]+
m/z	relative intensity
51.0225	2
89.0587	2
92.0362	1
124.0512	6
129.0276	2
142.06	5
149.0457	1
150.0299	8
150.05	2
165.066	1
166.0491	1
167.0556	999
169.0589	7
