Mass spectrum: 1-Methyladenosine; LC-ESI-QTOF; MS2; CE: 40; R=; [M+H]+
Name: 1-Methyladenosine
Formula: C11H15N5O4
Exact mass: 281.1124
SMILES: Cn1cnc2c(c1=N)ncn2[C@H]3[C@@H]([C@@H]([C@H](O3)CO)O)O
InChI: InChI=1S/C11H15N5O4/c1-15-3-14-10-6(9(15)12)13-4-16(10)11-8(19)7(18)5(2-17)20-11/h3-5,7-8,11-12,17-19H,2H2,1H3/t5-,7-,8-,11-/m1/s1
Instrument: maXis plus UHR-ToF-MS, Bruker Daltonics
Instrument type: LC-ESI-QTOF
Ms type: MS2
Ion mode: POSITIVE
Ionization: ESI
Fragmentation mode: CID
Collision energy: 40
Column name: BEH C18 1.7um, 2.1x100mm, Waters
Retention time: 0.629 min
Base peak: 282.1192
Precursor m/z: 282.1197
Precursor type: [M+H]+
m/z	relative intensity
55.017	5
57.0331	6
61.0281	3
67.0993	1
69.0332	11
69.0452	1
71.0121	8
73.0276	5
76.0157	1
79.0269	2
81.0444	2
85.028	6
89.0108	1
92.0247	2
94.0397	17
96.0552	1
97.0292	2
106.0402	2
108.0552	3
109.0506	28
112.0345	1
112.0525	1
119.0342	3
123.0653	4
133.0508	12
134.0539	1
135.0512	2
141.1211	1
144.0735	1
148.0603	1
150.0769	999
151.0798	63
152.083	1
