Mass spectrum: 3-Methyladipic acid; LC-ESI-QTOF; MS2; CE: 10; R=; [M+H]+
Name: 3-Methyladipic acid
Name: 3-methylhexanedioic acid
Formula: C7H12O4
Exact mass: 160.0736
SMILES: CC(CCC(O)=O)CC(O)=O
InChI: InChI=1S/C7H12O4/c1-5(4-7(10)11)2-3-6(8)9/h5H,2-4H2,1H3,(H,8,9)(H,10,11)
Instrument: maXis plus UHR-ToF-MS, Bruker Daltonics
Instrument type: LC-ESI-QTOF
Ms type: MS2
Ion mode: POSITIVE
Ionization: ESI
Fragmentation mode: CID
Collision energy: 10
Column name: BEH C18 1.7um, 2.1x100mm, Waters
Retention time: 2.711 min
Base peak: 69.0688
Precursor m/z: 161.0808
Precursor type: [M+H]+
m/z	relative intensity
64.063	10
71.0486	6
75.055	6
81.0693	13
91.051	7
115.0749	561
116.0439	17
125.0593	504
126.0636	30
127.0636	7
143.0698	999
144.0741	56
161.0802	864
