Mass spectrum: Chorismic acid; LC-ESI-QTOF; MS2; CE: 40; R=; [M+H]+
Name: Chorismic acid
Name: (3R,4R)-3-(1-carboxyethenoxy)-4-hydroxycyclohexa-1,5-diene-1-carboxylic acid
Formula: C10H10O6
Exact mass: 226.0477
SMILES: O[C@@H]1C=CC(=C[C@H]1OC(=C)C(O)=O)C(O)=O
InChI: InChI=1S/C10H10O6/c1-5(9(12)13)16-8-4-6(10(14)15)2-3-7(8)11/h2-4,7-8,11H,1H2,(H,12,13)(H,14,15)/t7-,8-/m1/s1
Instrument: maXis plus UHR-ToF-MS, Bruker Daltonics
Instrument type: LC-ESI-QTOF
Ms type: MS2
Ion mode: POSITIVE
Ionization: ESI
Fragmentation mode: CID
Collision energy: 40
Column name: BEH C18 1.7um, 2.1x100mm, Waters
Retention time: 2.428 min
Base peak: 191.0334
Precursor m/z: 227.055
Precursor type: [M+H]+
m/z	relative intensity
69.034	145
75.0229	502
83.049	302
87.0449	242
89.0133	169
89.0379	999
91.0543	696
93.0333	472
95.0497	296
105.0451	157
135.0438	108
191.031	339
