Mass spectrum: 3-hydroxy-C10-homoserine lactone; LC-ESI-QTOF; MS2; CE: 20; R=; [M+H]+
Name: 3-hydroxy-C10-homoserine lactone
Name: 3-hydroxy-N-(2-oxooxolan-3-yl)decanamide
Formula: C14H25NO4
Exact mass: 271.17836
SMILES: CCCCCCCC(O)CC(=O)NC1CCOC1=O
InChI: InChI=1S/C14H25NO4/c1-2-3-4-5-6-7-11(16)10-13(17)15-12-8-9-19-14(12)18/h11-12,16H,2-10H2,1H3,(H,15,17)
Instrument: maXis plus UHR-ToF-MS, Bruker Daltonics
Instrument type: LC-ESI-QTOF
Ms type: MS2
Ion mode: POSITIVE
Ionization: ESI
Fragmentation mode: CID
Collision energy: 20
Column name: BEH C18 1.7um, 2.1x100mm, Waters
Retention time: 4.384 min
Base peak: 272.1848
Precursor m/z: 272.1856
Precursor type: [M+H]+
m/z	relative intensity
55.0174	1
59.0479	1
71.0485	13
71.0848	1
73.0651	2
74.023	98
80.0574	1
81.0693	21
82.0731	1
83.0486	4
83.0848	61
84.0438	66
85.028	8
85.0653	2
87.0794	1
91.054	1
93.0696	26
94.0729	2
95.085	14
96.0884	1
97.0644	36
98.0679	2
102.0545	999
104.0588	2
107.0853	18
109.101	6
111.0809	4
111.1164	6
125.1315	2
135.1162	23
136.1204	1
153.1265	27
154.1307	3
170.1525	2
208.1697	1
226.1789	4
236.1638	9
237.1679	1
254.1747	15
255.1783	2
272.1845	1
