Mass spectrum: PC(16:0/0:0); LC-ESI-QTOF; MS2; CE: 20; R=; [M+H]+
Name: PC(16:0/0:0)
Name: Palmitoyllysolectithin
Name: (3-hexadecanoyloxy-2-hydroxypropyl) 2-(trimethylazaniumyl)ethyl phosphate
Formula: C24H50NO7P
Exact mass: 495.3325
SMILES: CCCCCCCCCCCCCCCC(=O)OCC(O)COP([O-])(=O)OCC[N+](C)(C)C
InChI: InChI=1S/C24H50NO7P/c1-5-6-7-8-9-10-11-12-13-14-15-16-17-18-24(27)30-21-23(26)22-32-33(28,29)31-20-19-25(2,3)4/h23,26H,5-22H2,1-4H3
Instrument: maXis plus UHR-ToF-MS, Bruker Daltonics
Instrument type: LC-ESI-QTOF
Ms type: MS2
Ion mode: POSITIVE
Ionization: ESI
Fragmentation mode: CID
Collision energy: 20
Column name: BEH C18 1.7um, 2.1x100mm, Waters
Retention time: 5.987 min
Base peak: 496.3396
Precursor m/z: 496.3398
Precursor type: [M+H]+
m/z	relative intensity
86.0957	4
104.1066	268
184.0729	118
185.0766	3
258.1098	1
313.2738	1
478.3292	94
479.3323	22
480.3363	2
495.2943	1
495.3301	2
496.3398	999
498.3456	53
