Mass spectrum: 5?-CHOLANIC ACID-3?_ 6?_7?-TRIOL; LC-ESI-QTOF; MS2; CE: 10; R=; [M+H]+
Name: 5?-CHOLANIC ACID-3?_ 6?_7?-TRIOL
Name: Hyocholic acid
Name: (4R)-4-[(3R,5R,6R,7S,8S,9S,10R,13R,14S,17R)-3,6,7-trihydroxy-10,13-dimethyl-2,3,4,5,6,7,8,9,11,12,14,15,16,17-tetradecahydro-1H-cyclopenta[a]phenanthren-17-yl]pentanoic acid
Formula: C24H40O5
Exact mass: 408.2876
SMILES: C[C@H](CCC(=O)O)[C@H]1CC[C@@H]2[C@@]1(CC[C@H]3[C@H]2[C@@H]([C@@H]([C@H]4[C@@]3(CC[C@H](C4)O)C)O)O)C
InChI: InChI=1S/C24H40O5/c1-13(4-7-19(26)27)15-5-6-16-20-17(9-11-23(15,16)2)24(3)10-8-14(25)12-18(24)21(28)22(20)29/h13-18,20-22,25,28-29H,4-12H2,1-3H3,(H,26,27)/t13-,14-,15-,16+,17+,18+,20+,21-,22+,23-,24-/m1/s1
Instrument: maXis plus UHR-ToF-MS, Bruker Daltonics
Instrument type: LC-ESI-QTOF
Ms type: MS2
Ion mode: POSITIVE
Ionization: ESI
Fragmentation mode: CID
Collision energy: 10
Column name: BEH C18 1.7um, 2.1x100mm, Waters
Retention time: 4.512 min
Base peak: 817.5828
Precursor m/z: 409.2949
Precursor type: [M+H]+
m/z	relative intensity
159.1143	1
309.2598	1
319.2432	2
337.252	20
338.2574	2
343.2619	1
345.2813	1
355.2632	384
356.2665	77
373.2741	999
374.2771	329
375.2805	27
376.283	1
391.2842	155
392.2877	34
393.2897	3
409.2945	189
