Mass spectrum: Oleoyl Ethanolamide; LC-ESI-QTOF; MS2; CE: 40; R=; [M+H]+
Name: Oleoyl Ethanolamide
Name: n-oleoylethanolamine
Name: (Z)-N-(2-hydroxyethyl)octadec-9-enamide
Formula: C20H39NO2
Exact mass: 325.29808
SMILES: CCCCCCCC/C=C\CCCCCCCC(=O)NCCO
InChI: InChI=1S/C20H39NO2/c1-2-3-4-5-6-7-8-9-10-11-12-13-14-15-16-17-20(23)21-18-19-22/h9-10,22H,2-8,11-19H2,1H3,(H,21,23)/b10-9-
Instrument: maXis plus UHR-ToF-MS, Bruker Daltonics
Instrument type: LC-ESI-QTOF
Ms type: MS2
Ion mode: POSITIVE
Ionization: ESI
Fragmentation mode: CID
Collision energy: 40
Column name: BEH C18 1.7um, 2.1x100mm, Waters
Retention time: 6.845 min
Base peak: 88.075
Precursor m/z: 326.3054
Precursor type: [M+H]+
m/z	relative intensity
51.0225	6
62.0596	999
64.0154	4
67.0536	240
69.0695	360
70.0286	10
71.0481	11
79.0538	34
81.0691	96
82.2536	5
83.0492	5
83.0853	93
85.0642	6
85.1009	6
86.0965	7
87.0433	5
93.0698	31
95.0491	6
97.1012	27
107.086	20
108.0886	6
111.0793	13
117.0693	7
121.1019	17
121.1105	5
135.1169	10
191.18	5
203.1086	5
308.2928	20
309.2811	6
309.2978	12
