Mass spectrum: N-Alpha-Acetyl-Ornithine; LC-ESI-QTOF; MS2; CE: 10; R=; [M+H]+
Name: N-Alpha-Acetyl-Ornithine
Name: N-acetylornithine
Name: (2S)-2-acetamido-5-aminopentanoic acid
Formula: C7H14N2O3
Exact mass: 174.1004
SMILES: CC(=O)N[C@@H](CCCN)C(O)=O
InChI: InChI=1S/C7H14N2O3/c1-5(10)9-6(7(11)12)3-2-4-8/h6H,2-4,8H2,1H3,(H,9,10)(H,11,12)/t6-/m0/s1
Instrument: maXis plus UHR-ToF-MS, Bruker Daltonics
Instrument type: LC-ESI-QTOF
Ms type: MS2
Ion mode: POSITIVE
Ionization: ESI
Fragmentation mode: CID
Collision energy: 10
Column name: BEH C18 1.7um, 2.1x100mm, Waters
Retention time: 0.602 min
Base peak: 175.1074
Precursor m/z: 175.1077
Precursor type: [M+H]+
m/z	relative intensity
48.0573	1
60.0433	10
62.0941	1
68.0239	1
71.0483	28
74.0229	6
83.107	1
86.0605	2
87.9901	1
88.0381	2
88.0756	6
97.0753	8
98.0595	1
98.0841	1
102.1037	1
107.0369	1
111.0926	7
112.0757	39
115.0866	914
116.0709	75
116.09	37
117.0536	1
117.0743	3
130.0863	1
133.0979	13
134.0945	1
139.0861	27
140.0213	1
140.0892	4
145.1074	1
151.038	1
155.0225	1
156.0633	1
157.0967	497
158.0809	383
159.1013	3
160.0828	1
175.1075	999
