Mass spectrum: Diethylphthalate; LC-ESI-QTOF; MS2; CE: 10; R=; [M+H]+
Name: Diethylphthalate
Name: DIETHYL PHTHALATE
Name: diethyl benzene-1,2-dicarboxylate
Formula: C12H14O4
Exact mass: 222.08921
SMILES: CCOC(=O)c1ccccc1C(=O)OCC
InChI: InChI=1S/C12H14O4/c1-3-15-11(13)9-7-5-6-8-10(9)12(14)16-4-2/h5-8H,3-4H2,1-2H3
Instrument: maXis plus UHR-ToF-MS, Bruker Daltonics
Instrument type: LC-ESI-QTOF
Ms type: MS2
Ion mode: POSITIVE
Ionization: ESI
Fragmentation mode: CID
Collision energy: 10
Column name: BEH C18 1.7um, 2.1x100mm, Waters
Retention time: 4.816 min
Base peak: 149.0237
Precursor m/z: 223.0965
Precursor type: [M+H]+
m/z	relative intensity
149.0229	950
150.0263	71
151.0282	5
177.055	999
178.0574	160
179.0598	12
223.0961	33
