Mass spectrum: N-Acetyl-D-Mannosamine; LC-ESI-QTOF; MS2; CE: 10; R=; [M+H]+
Name: N-Acetyl-D-Mannosamine
Name: aldehydo-N-acetyl-D-mannosamine
Name: N-[(2R,3S,4R,5S)-3,4,5,6-tetrahydroxy-1-oxohexan-2-yl]acetamide
Formula: C8H15NO6
Exact mass: 221.0899
SMILES: CC(=O)N[C@@H](C=O)[C@H](O)[C@@H](O)[C@@H](O)CO
InChI: InChI=1S/C8H15NO6/c1-4(12)9-5(2-10)7(14)8(15)6(13)3-11/h2,5-8,11,13-15H,3H2,1H3,(H,9,12)/t5-,6-,7-,8-/m0/s1
Instrument: maXis plus UHR-ToF-MS, Bruker Daltonics
Instrument type: LC-ESI-QTOF
Ms type: MS2
Ion mode: POSITIVE
Ionization: ESI
Fragmentation mode: CID
Collision energy: 10
Column name: BEH C18 1.7um, 2.1x100mm, Waters
Retention time: 0.601 min
Base peak: 204.0864
Precursor m/z: 222.0972
Precursor type: [M+H]+
m/z	relative intensity
45.0913	2
54.1028	4
57.0446	5
60.0443	4
61.0269	5
65.0593	5
71.0854	4
72.0213	2
76.0311	2
81.0569	4
84.0421	27
84.0941	3
85.0389	5
86.044	5
86.0847	4
88.0147	5
92.9815	3
98.0597	6
102.0518	3
103.0291	2
103.0427	2
118.0874	3
126.0544	123
129.0988	3
132.1007	2
134.0195	5
137.9829	3
138.0554	41
139.0595	6
141.0619	2
142.0255	3
143.0553	2
144.0657	33
145.9966	2
150.0647	2
152.0418	3
155.095	4
157.0124	3
160.0009	4
160.1221	2
168.0652	226
169.0689	15
170.016	9
170.0665	3
171.013	4
177.978	2
178.0841	6
178.9857	2
182.0026	4
186.0756	490
187.0682	8
187.079	34
188.0794	5
191.9937	3
197.0274	2
204.0862	999
205.09	72
222.0978	71
