Mass spectrum: Ala-Phe; LC-ESI-QTOF; MS2; CE: 10; R=; [M+H]+
Name: Ala-Phe
Name: (2S)-2-[[(2S)-2-azaniumylpropanoyl]amino]-3-phenylpropanoate
Formula: C12H16N2O3
Exact mass: 236.1161
SMILES: C[C@H](N)C(=O)N[C@@H](Cc1ccccc1)C(O)=O
InChI: InChI=1S/C12H16N2O3/c1-8(13)11(15)14-10(12(16)17)7-9-5-3-2-4-6-9/h2-6,8,10H,7,13H2,1H3,(H,14,15)(H,16,17)/t8-,10-/m0/s1
Instrument: maXis plus UHR-ToF-MS, Bruker Daltonics
Instrument type: LC-ESI-QTOF
Ms type: MS2
Ion mode: POSITIVE
Ionization: ESI
Fragmentation mode: CID
Collision energy: 10
Column name: BEH C18 1.7um, 2.1x100mm, Waters
Retention time: 2.425 min
Base peak: 237.1227
Precursor m/z: 237.1234
Precursor type: [M+H]+
m/z	relative intensity
120.0804	39
121.0839	2
149.0596	1
166.0854	999
167.0889	87
168.0905	3
191.1173	115
192.1205	10
219.1122	16
237.1227	915
239.1281	8
