Mass spectrum: 1-palmitoyl-2-hydroxy-sn-glycero-3-phosphoethanolamine; LC-ESI-QTOF; MS2; CE: 20; R=; [M+H]+
Name: 1-palmitoyl-2-hydroxy-sn-glycero-3-phosphoethanolamine
Name: 1-palmitoyl-sn-glycero-3-phosphoethanolamine
Name: 2-azaniumylethyl [(2R)-3-hexadecanoyloxy-2-hydroxypropyl] phosphate
Formula: C21H44NO7P
Exact mass: 453.2855
SMILES: [H][C@@](O)(COC(=O)CCCCCCCCCCCCCCC)COP(O)(=O)OCCN
InChI: InChI=1S/C21H44NO7P/c1-2-3-4-5-6-7-8-9-10-11-12-13-14-15-21(24)27-18-20(23)19-29-30(25,26)28-17-16-22/h20,23H,2-19,22H2,1H3,(H,25,26)/t20-/m1/s1
Instrument: maXis plus UHR-ToF-MS, Bruker Daltonics
Instrument type: LC-ESI-QTOF
Ms type: MS2
Ion mode: POSITIVE
Ionization: ESI
Fragmentation mode: CID
Collision energy: 20
Column name: BEH C18 1.7um, 2.1x100mm, Waters
Retention time: 5.967 min
Base peak: 454.2924
Precursor m/z: 454.2928
Precursor type: [M+H]+
m/z	relative intensity
64.0634	1
71.0851	1
142.0262	1
155.0105	4
173.0193	1
198.0515	7
216.0634	15
217.0651	1
239.236	4
282.2789	28
283.2831	4
313.2735	999
314.2771	232
315.2798	16
393.2399	113
394.2437	22
395.2493	2
436.2822	198
437.286	47
438.2874	3
454.2926	180
456.2975	5
