Mass spectrum: 3-Methylhippuric acid; LC-ESI-QTOF; MS2; CE: 20; R=; [M-H]-
Name: 3-Methylhippuric acid
Name: 2-[(3-methylbenzoyl)amino]acetic acid
Formula: C10H11NO3
Exact mass: 193.0739
SMILES: Cc1cccc(c1)C(=O)NCC(O)=O
InChI: InChI=1S/C10H11NO3/c1-7-3-2-4-8(5-7)10(14)11-6-9(12)13/h2-5H,6H2,1H3,(H,11,14)(H,12,13)
Instrument: maXis plus UHR-ToF-MS, Bruker Daltonics
Instrument type: LC-ESI-QTOF
Ms type: MS2
Ion mode: NEGATIVE
Ionization: ESI
Fragmentation mode: CID
Collision energy: 20
Column name: BEH C18 1.7um, 2.1x100mm, Waters
Retention time: 9.554 min
Base peak: 68.9899
Precursor m/z: 192.0666
Precursor type: [M-H]-
m/z	relative intensity
87.0806	749
115.0033	999
118.028	849
207.0655	849
