Mass spectrum: Pentadecanoic acid; LC-ESI-QTOF; MS2; CE: 10; R=; [M+H]+
Name: Pentadecanoic acid
Formula: C15H30O2
Exact mass: 242.2246
SMILES: CCCCCCCCCCCCCCC(=O)O
InChI: InChI=1S/C15H30O2/c1-2-3-4-5-6-7-8-9-10-11-12-13-14-15(16)17/h2-14H2,1H3,(H,16,17)
Instrument: maXis plus UHR-ToF-MS, Bruker Daltonics
Instrument type: LC-ESI-QTOF
Ms type: MS2
Ion mode: POSITIVE
Ionization: ESI
Fragmentation mode: CID
Collision energy: 10
Column name: BEH C18 1.7um, 2.1x100mm, Waters
Retention time: 7.036 min
Base peak: 88.075
Precursor m/z: 243.2319
Precursor type: [M+H]+
m/z	relative intensity
59.9952	7
69.0694	19
71.0852	57
82.2296	6
85.1007	17
87.0436	6
89.0593	13
99.1175	4
103.0759	21
107.0853	3
109.0654	4
111.1173	5
117.092	4
121.1009	12
125.0464	7
133.1459	3
140.1164	4
143.9855	4
145.1209	5
152.1439	9
173.1548	5
194.1032	8
199.0161	8
205.1952	6
207.2123	4
223.1811	8
223.2053	6
226.0982	5
227.1522	5
227.162	10
232.171	4
243.232	999
