Mass spectrum: 3-hydroxy-C12 homoserine lactone; LC-ESI-QTOF; MS2; CE: 20; R=; [M+H]+
Name: 3-hydroxy-C12 homoserine lactone
Name: 3-hydroxy-N-(2-oxooxolan-3-yl)dodecanamide
Formula: C16H29NO4
Exact mass: 299.20966
SMILES: CCCCCCCCCC(O)CC(=O)NC1CCOC1=O
InChI: InChI=1S/C16H29NO4/c1-2-3-4-5-6-7-8-9-13(18)12-15(19)17-14-10-11-21-16(14)20/h13-14,18H,2-12H2,1H3,(H,17,19)
Instrument: maXis plus UHR-ToF-MS, Bruker Daltonics
Instrument type: LC-ESI-QTOF
Ms type: MS2
Ion mode: POSITIVE
Ionization: ESI
Fragmentation mode: CID
Collision energy: 20
Column name: BEH C18 1.7um, 2.1x100mm, Waters
Retention time: 5.065 min
Base peak: 300.2164
Precursor m/z: 300.2169
Precursor type: [M+H]+
m/z	relative intensity
57.033	1
59.0482	2
67.0537	15
71.0484	6
71.0849	15
73.0638	2
74.0229	80
74.0593	270
79.054	4
81.0693	49
82.0736	4
83.0851	90
84.0438	51
85.0281	6
85.0645	7
93.0692	12
95.0852	17
97.0649	10
97.1008	59
99.0807	2
101.0602	1
102.0547	999
104.0589	2
107.0852	15
109.1011	2
111.0798	5
111.1176	3
121.1009	7
122.1042	1
163.1476	51
164.1512	6
181.158	39
182.1615	4
198.1848	2
236.2008	1
254.2117	6
264.1961	10
282.2064	22
283.2098	5
300.2179	1
