Mass spectrum: tsas#9; LC-ESI-QTOF; MS2; CE: 40; R=; [M+H]+
Name: tsas#9
Formula: C23H33NO9
Exact mass: 467.2155
SMILES: CC(CCC(O)=O)O[C@@H]1OC(C)[C@@H](CC1O)OC(=O)CCC(=O)NCCC1=CC=C(O)C=C1
InChI: InChI=1S/C23H33NO9/c1-14(3-9-21(28)29)31-23-18(26)13-19(15(2)32-23)33-22(30)10-8-20(27)24-12-11-16-4-6-17(25)7-5-16/h4-7,14-15,18-19,23,25-26H,3,8-13H2,1-2H3,(H,24,27)(H,28,29)/t14?,15?,18?,19-,23-/m1/s1
Instrument: maXis plus UHR-ToF-MS, Bruker Daltonics
Instrument type: LC-ESI-QTOF
Ms type: MS2
Ion mode: POSITIVE
Ionization: ESI
Fragmentation mode: CID
Collision energy: 40
Column name: BEH C18 1.7um, 2.1x100mm, Waters
Retention time: 3.376 min
Base peak: 350.1599
Precursor m/z: 468.2228
Precursor type: [M+H]+
m/z	relative intensity
53.0389	1
57.0324	1
59.0473	3
59.1673	1
65.0386	2
67.0536	24
68.0578	2
69.0335	1
71.0484	1
75.1621	1
77.0381	2
82.0038	1
83.0486	36
85.0646	14
87.9902	1
91.0539	1
93.0692	8
94.0742	1
95.0485	16
96.0529	2
100.0388	18
100.998	1
101.0226	10
101.0592	15
102.0756	1
111.2553	1
113.0601	15
116.0092	1
118.0654	1
119.0713	1
120.1719	1
121.0648	320
122.0686	25
125.1056	1
126.053	1
134.0008	1
138.033	1
138.0903	4
138.0982	2
139.0979	1
145.0446	1
151.9602	1
156.04	1
164.2491	1
165.1844	1
167.2068	1
169.208	1
173.0961	1
175.1112	11
176.1859	1
177.1094	1
178.2372	1
179.1629	1
182.0339	1
182.2611	1
183.1798	1
184.2253	1
186.9969	1
190.1603	1
190.1688	1
191.0999	1
195.061	1
195.0783	1
195.974	2
196.2081	1
199.9932	1
204.1701	1
204.2244	1
205.0846	1
210.1983	1
217.1297	1
218.1061	1
220.0965	999
221.1006	111
222.1032	7
232.0977	3
233.0159	1
238.1072	207
239.1099	30
240.1141	3
244.2123	1
250.1072	1
274.1426	4
275.1522	1
292.1544	5
350.1618	5
351.1603	1
382.0049	1
