Mass spectrum: L-Tyrosine; LC-ESI-QTOF; MS2; CE: 40; R=; [M+H]+
Name: L-Tyrosine
Name: (2S)-2-amino-3-(4-hydroxyphenyl)propanoic acid
Formula: C9H11NO3
Exact mass: 181.07389
SMILES: c1cc(ccc1C[C@@H](C(=O)O)N)O
InChI: InChI=1S/C9H11NO3/c10-8(9(12)13)5-6-1-3-7(11)4-2-6/h1-4,8,11H,5,10H2,(H,12,13)/t8-/m0/s1
Instrument: maXis plus UHR-ToF-MS, Bruker Daltonics
Instrument type: LC-ESI-QTOF
Ms type: MS2
Ion mode: POSITIVE
Ionization: ESI
Fragmentation mode: CID
Collision energy: 40
Column name: BEH C18 1.7um, 2.1x100mm, Waters
Retention time: 0.709 min
Base peak: 182.0807
Precursor m/z: 182.0812
Precursor type: [M+H]+
m/z	relative intensity
51.0228	1
59.0484	1
65.038	268
66.0423	13
67.0536	25
69.034	2
75.0233	1
77.0382	208
79.0543	11
81.0332	5
81.0706	11
82.0737	1
90.0462	1
91.0539	999
92.0574	58
93.0693	1
94.0419	10
94.0657	1
95.0489	280
96.0523	11
103.054	5
105.0447	43
107.0488	65
109.0651	7
117.0542	3
118.0656	4
119.0491	19
120.0572	1
123.0442	9
136.0741	1
