Mass spectrum: 3-Methylhippuric acid; LC-ESI-QTOF; MS2; CE: 10; R=; [M+H]+
Name: 3-Methylhippuric acid
Name: 2-[(3-methylbenzoyl)amino]acetic acid
Formula: C10H11NO3
Exact mass: 193.0739
SMILES: Cc1cccc(c1)C(=O)NCC(O)=O
InChI: InChI=1S/C10H11NO3/c1-7-3-2-4-8(5-7)10(14)11-6-9(12)13/h2-5H,6H2,1H3,(H,11,14)(H,12,13)
Instrument: maXis plus UHR-ToF-MS, Bruker Daltonics
Instrument type: LC-ESI-QTOF
Ms type: MS2
Ion mode: POSITIVE
Ionization: ESI
Fragmentation mode: CID
Collision energy: 10
Column name: BEH C18 1.7um, 2.1x100mm, Waters
Retention time: 3.251 min
Base peak: 194.0806
Precursor m/z: 194.0812
Precursor type: [M+H]+
m/z	relative intensity
87.0425	1
91.0541	14
105.0781	1
109.0626	3
119.0491	999
120.0525	88
121.0534	4
132.0926	1
146.0341	1
148.0747	5
166.0854	1
173.0805	1
176.0705	15
191.07	1
194.0805	438
