Mass spectrum: 1-palmitoyl-2-hydroxy-sn-glycero-3-phosphoethanolamine; LC-ESI-QTOF; MS2; CE: 40; R=; [M+H]+
Name: 1-palmitoyl-2-hydroxy-sn-glycero-3-phosphoethanolamine
Name: 1-palmitoyl-sn-glycero-3-phosphoethanolamine
Name: 2-azaniumylethyl [(2R)-3-hexadecanoyloxy-2-hydroxypropyl] phosphate
Formula: C21H44NO7P
Exact mass: 453.2855
SMILES: [H][C@@](O)(COC(=O)CCCCCCCCCCCCCCC)COP(O)(=O)OCCN
InChI: InChI=1S/C21H44NO7P/c1-2-3-4-5-6-7-8-9-10-11-12-13-14-15-21(24)27-18-20(23)19-29-30(25,26)28-17-16-22/h20,23H,2-19,22H2,1H3,(H,25,26)/t20-/m1/s1
Instrument: maXis plus UHR-ToF-MS, Bruker Daltonics
Instrument type: LC-ESI-QTOF
Ms type: MS2
Ion mode: POSITIVE
Ionization: ESI
Fragmentation mode: CID
Collision energy: 40
Column name: BEH C18 1.7um, 2.1x100mm, Waters
Retention time: 5.967 min
Base peak: 454.2924
Precursor m/z: 454.2928
Precursor type: [M+H]+
m/z	relative intensity
59.0041	1
63.198	2
65.0388	1
66.0092	1
66.2214	1
67.0537	61
68.0573	6
68.1434	1
69.0694	68
71.0849	420
72.0444	1
75.0446	3
76.2265	1
80.1567	1
81.0695	97
83.085	78
84.2942	2
85.1009	168
86.0153	1
86.1309	1
88.0056	2
89.0593	10
91.0017	1
92.0629	1
95.0851	95
95.9967	1
97.065	1
97.1007	28
98.9837	34
99.0789	3
99.1169	8
103.0752	7
109.1004	36
110.1061	3
111.1152	5
111.2079	1
112.1454	1
113.132	1
114.0453	1
114.1984	1
116.9921	1
117.0637	1
119.0211	1
119.0919	1
120.0986	1
121.3023	1
122.117	1
123.1165	4
123.2307	1
124.0167	4
124.95	2
124.9971	1
127.1491	1
128.0014	1
129.091	1
130.0995	1
131.1049	1
131.2013	1
132.2182	1
138.006	2
144.1856	1
144.3155	1
146.0787	1
147.118	1
147.992	1
148.2882	1
149.1174	1
150.0328	1
150.2552	1
151.1499	2
153.0591	1
154.308	1
155.0102	30
159.0804	1
159.1016	1
159.1387	1
160.1558	1
161.11	1
161.1747	1
164.2073	1
165.1638	1
166.1715	1
167.9761	1
168.2895	1
171.1379	1
171.2519	1
173.021	7
174.006	1
174.1056	1
174.991	1
176.0766	1
177.137	1
178.9886	1
179.1781	1
179.3381	1
179.3544	1
180.0024	1
180.3381	1
180.9771	1
182.2447	2
184.1376	1
185.9445	1
188.0912	2
188.9624	1
191.1123	1
193.0296	2
195.2306	1
196.2761	3
197.9721	1
198.0517	4
199.136	1
199.3124	1
201.1823	2
203.1221	1
204.3107	1
205.0284	1
206.3014	1
207.1871	1
209.0541	1
211.1213	1
213.0521	1
215.2789	2
216.0656	2
216.3041	1
216.982	1
218.2707	1
219.1149	2
219.1963	1
219.2101	2
220.0235	1
221.017	2
221.1921	1
221.2235	2
222.1637	1
223.156	1
228.1002	1
229.1126	2
229.9588	1
231.0065	1
231.3083	1
232.0977	1
235.0999	1
236.2795	1
238.0909	1
238.2958	1
239.2365	18
240.0005	1
240.2431	3
240.3128	1
243.2219	1
243.9894	2
244.2902	1
245.1647	1
245.1877	1
246.2207	1
248.1538	1
249.2128	1
249.9502	1
251.0938	1
252.0084	1
252.1134	1
253.9985	1
257.247	14
258.2486	4
260.0162	1
262.0108	1
262.2485	1
264.1363	1
264.2919	1
265.0325	1
266.136	2
266.1536	1
266.2766	1
269.1045	2
270.0851	2
271.0103	1
271.2313	1
271.3312	1
274.9488	1
274.9722	1
275.2574	2
276.2753	1
276.2927	1
281.3285	1
282.279	253
282.9906	2
283.282	41
284.1017	1
284.2849	4
285.0304	2
287.996	1
291.3372	1
294.951	1
295.0218	1
297.9743	1
298.0884	1
301.1402	1
301.2436	1
302.1962	1
308.2799	1
310.1522	1
311.9622	1
313.2737	999
314.2774	199
314.9809	1
315.1005	1
315.2523	1
315.2796	14
316.0137	1
316.1235	1
