Mass spectrum: delta7-Dafachronic acid; LC-ESI-QTOF; MS2; CE: 40; R=; [M+H]+
Name: delta7-Dafachronic acid
Name: Delta(7)-dafachronic acid
Name: (6R)-6-[(5S,9R,10S,13R,14R,17R)-10,13-dimethyl-3-oxo-1,2,4,5,6,9,11,12,14,15,16,17-dodecahydrocyclopenta[a]phenanthren-17-yl]-2-methylheptanoic acid
Formula: C27H42O3
Exact mass: 414.3134
SMILES: C[C@H](CCCC(C)C(O)=O)[C@H]1CC[C@H]2C3=CC[C@H]4CC(=O)CC[C@]4(C)[C@H]3CC[C@]12C
InChI: InChI=1S/C27H42O3/c1-17(6-5-7-18(2)25(29)30)22-10-11-23-21-9-8-19-16-20(28)12-14-26(19,3)24(21)13-15-27(22,23)4/h9,17-19,22-24H,5-8,10-16H2,1-4H3,(H,29,30)/t17-,18?,19+,22-,23+,24+,26+,27-/m1/s1
Instrument: maXis plus UHR-ToF-MS, Bruker Daltonics
Instrument type: LC-ESI-QTOF
Ms type: MS2
Ion mode: POSITIVE
Ionization: ESI
Fragmentation mode: CID
Collision energy: 40
Column name: BEH C18 1.7um, 2.1x100mm, Waters
Retention time: 6.774 min
Base peak: 88.075
Precursor m/z: 415.3207
Precursor type: [M+H]+
m/z	relative intensity
57.0698	91
71.0859	126
83.0491	126
91.0538	106
94.0617	111
95.0854	659
97.0641	349
97.1006	116
99.0814	91
105.0698	101
107.0848	431
109.1008	456
111.1157	111
119.0846	106
133.1007	207
147.1172	354
149.1334	131
155.0829	101
157.1009	431
158.1074	136
159.1168	999
163.1477	223
167.1077	111
171.114	152
172.1189	233
173.1313	507
174.136	121
175.1486	131
177.1284	157
185.1309	116
197.1318	157
199.1483	385
201.1655	309
203.1447	91
204.1517	177
211.1473	106
213.1642	441
219.1751	147
220.1781	197
226.1703	131
237.1864	141
247.2381	91
251.2024	91
254.1624	106
255.2113	106
257.1876	116
313.063	101
358.2852	101
368.1822	101
380.3017	101
397.3147	106
413.3189	273
