Mass spectrum: delta4-Dafachronic acid; LC-ESI-QTOF; MS2; CE: 40; R=; [M+H]+
Name: delta4-Dafachronic acid
Name: 3-Oxocholest-4-en-26-oic acid
Name: (6R)-6-[(8S,9S,10R,13R,14S,17R)-10,13-dimethyl-3-oxo-1,2,6,7,8,9,11,12,14,15,16,17-dodecahydrocyclopenta[a]phenanthren-17-yl]-2-methylheptanoic acid
Formula: C27H42O3
Exact mass: 414.3134
SMILES: C[C@H](CCCC(C)C(O)=O)[C@H]1CC[C@H]2[C@@H]3CCC4=CC(=O)CC[C@]4(C)[C@H]3CC[C@]12C
InChI: InChI=1S/C27H42O3/c1-17(6-5-7-18(2)25(29)30)22-10-11-23-21-9-8-19-16-20(28)12-14-26(19,3)24(21)13-15-27(22,23)4/h16-18,21-24H,5-15H2,1-4H3,(H,29,30)/t17-,18?,21+,22-,23+,24+,26+,27-/m1/s1
Instrument: maXis plus UHR-ToF-MS, Bruker Daltonics
Instrument type: LC-ESI-QTOF
Ms type: MS2
Ion mode: POSITIVE
Ionization: ESI
Fragmentation mode: CID
Collision energy: 40
Column name: BEH C18 1.7um, 2.1x100mm, Waters
Retention time: 6.662 min
Base peak: 88.075
Precursor m/z: 415.3207
Precursor type: [M+H]+
m/z	relative intensity
59.0488	1
65.0382	4
67.0537	70
69.0328	8
69.0693	103
71.0487	4
73.0655	1
77.0383	8
79.0538	131
80.0576	6
81.0694	262
82.0412	2
82.0525	1
82.0733	16
83.0488	108
83.0851	29
84.0525	4
85.0646	6
87.08	1
91.0538	24
92.0579	2
93.0697	48
95.0852	136
96.0885	10
97.0646	999
98.0679	61
99.0439	3
101.0605	2
105.0702	23
106.0728	2
107.049	5
107.0857	50
108.0885	4
109.0645	750
110.0681	54
110.104	2
111.08	2
111.1159	3
113.0587	2
117.07	2
120.0689	1
120.0882	1
121.0646	3
121.101	19
122.1055	4
123.0801	43
123.1168	20
124.0849	1
124.1204	2
125.0973	3
131.0851	7
133.1004	9
134.1048	1
135.0806	2
135.1178	6
137.0955	1
137.1326	3
141.09	1
143.0854	4
144.0887	1
145.0998	12
145.1948	1
146.3171	1
147.081	1
147.1027	1
147.1161	16
148.1193	2
149.0957	5
149.1319	12
153.242	1
156.0881	1
157.1011	13
158.1086	1
159.1165	25
160.1208	3
161.0949	5
161.1324	20
163.1113	15
163.148	9
164.1141	1
165.1249	1
169.1011	5
170.1073	1
171.1166	12
172.1202	2
173.0937	1
173.132	23
175.1111	4
175.1477	18
177.0789	1
177.1271	20
177.1625	6
178.1311	2
179.083	1
179.1438	1
181.1009	1
183.1171	8
184.1211	1
185.1321	23
186.1356	3
187.1129	2
187.1474	20
188.1523	2
189.1273	3
189.1635	11
190.1658	2
191.142	7
191.1806	3
193.1592	1
193.1932	2
195.1166	3
195.1393	1
197.1324	5
197.2141	1
199.148	17
200.1508	4
201.126	3
201.1631	10
203.1425	8
203.179	4
204.1467	2
205.1589	2
205.1936	2
207.1741	1
209.1324	1
211.1477	11
212.154	3
213.1641	19
214.1674	4
215.1023	1
215.1448	2
215.1794	13
216.1825	1
217.158	7
219.1739	4
219.2116	2
221.1858	1
223.1687	1
225.1625	8
227.1399	1
227.1796	10
228.1839	3
229.1581	7
229.1931	3
230.1644	2
231.1742	3
232.1777	1
233.1915	1
237.1868	2
239.1795	8
240.1851	2
241.1954	9
243.1743	2
243.2122	2
245.1896	2
245.2255	1
247.2443	1
249.179	1
251.1782	3
253.1949	23
254.1987	5
255.169	1
255.2099	6
257.1901	7
265.1576	1
265.1904	1
267.2067	3
269.1875	2
269.2288	1
270.2332	1
271.2054	12
272.2104	4
273.2206	1
273.2568	3
280.2169	1
281.2269	5
282.2343	1
295.24	5
296.2194	1
297.2237	3
299.2353	3
299.2739	1
300.2434	1
301.255	1
309.264	1
310.2661	1
311.2749	5
312.2749	1
331.0766	1
339.2712	1
341.2403	1
345.2105	1
345.2763	1
351.2679	1
351.305	9
352.3099	3
361.279	1
369.3157	9
370.3201	4
379.2995	7
380.3073	1
397.3125	10
398.3141	4
