Mass spectrum: 2-O-Methylguanosine; LC-ESI-QTOF; MS2; CE: 20; R=; [M-H]-
Name: 2-O-Methylguanosine
Name: 2`-O-Methylguanosine
Name: 2-amino-9-[(2R,3R,4R,5R)-4-hydroxy-5-(hydroxymethyl)-3-methoxyoxolan-2-yl]-3H-purin-6-one
Formula: C11H15N5O5
Exact mass: 297.1073
SMILES: CO[C@@H]1[C@@H]([C@H](O[C@H]1n2cnc3c2nc([nH]c3=O)N)CO)O
InChI: InChI=1S/C11H15N5O5/c1-20-7-6(18)4(2-17)21-10(7)16-3-13-5-8(16)14-11(12)15-9(5)19/h3-4,6-7,10,17-18H,2H2,1H3,(H3,12,14,15,19)/t4-,6-,7-,10-/m1/s1
Instrument: maXis plus UHR-ToF-MS, Bruker Daltonics
Instrument type: LC-ESI-QTOF
Ms type: MS2
Ion mode: NEGATIVE
Ionization: ESI
Fragmentation mode: CID
Collision energy: 20
Column name: BEH C18 1.7um, 2.1x100mm, Waters
Retention time: 0.902 min
Base peak: 296.1005
Precursor m/z: 296.1
Precursor type: [M-H]-
m/z	relative intensity
150.0417	122
260.0802	6
296.0993	999
