Mass spectrum: Xanthine; LC-ESI-QTOF; MS2; CE: 20; R=; [M+H]+
Name: Xanthine
Name: 3,7-dihydropurine-2,6-dione
Formula: C5H4N4O2
Exact mass: 152.0334
SMILES: O=C1NC2=C(NC=N2)C(=O)N1
InChI: InChI=1S/C5H4N4O2/c10-4-2-3(7-1-6-2)8-5(11)9-4/h1H,(H3,6,7,8,9,10,11)
Instrument: maXis plus UHR-ToF-MS, Bruker Daltonics
Instrument type: LC-ESI-QTOF
Ms type: MS2
Ion mode: POSITIVE
Ionization: ESI
Fragmentation mode: CID
Collision energy: 20
Column name: BEH C18 1.7um, 2.1x100mm, Waters
Retention time: 0.698 min
Base peak: 153.0403
Precursor m/z: 153.0407
Precursor type: [M+H]+
m/z	relative intensity
46.0288	2
56.9971	2
68.0124	6
69.0088	4
81.0081	28
82.0394	149
83.0234	16
84.0212	2
87.0436	3
93.009	5
94.0406	4
108.0182	11
110.0349	999
136.0138	86
136.0331	4
153.04	648
156.0278	6
