Mass spectrum: Palmitoyl Ethanolamide; LC-ESI-QTOF; MS2; CE: 10; R=; [M+H]+
Name: Palmitoyl Ethanolamide
Name: Palmitoylethanolamide
Name: N-(2-hydroxyethyl)hexadecanamide
Formula: C18H37NO2
Exact mass: 299.28243
SMILES: CCCCCCCCCCCCCCCC(=O)NCCO
InChI: InChI=1S/C18H37NO2/c1-2-3-4-5-6-7-8-9-10-11-12-13-14-15-18(21)19-16-17-20/h20H,2-17H2,1H3,(H,19,21)
Instrument: maXis plus UHR-ToF-MS, Bruker Daltonics
Instrument type: LC-ESI-QTOF
Ms type: MS2
Ion mode: POSITIVE
Ionization: ESI
Fragmentation mode: CID
Collision energy: 10
Column name: BEH C18 1.7um, 2.1x100mm, Waters
Retention time: 6.721 min
Base peak: 88.0752
Precursor m/z: 300.2897
Precursor type: [M+H]+
m/z	relative intensity
80.2708	85
152.1079	94
171.0796	94
216.0094	118
257.2461	312
267.1963	123
292.1803	85
297.1377	170
297.2798	99
298.2713	127
299.2429	85
300.2892	999
