Mass spectrum: PC(16:0/0:0); LC-ESI-QTOF; MS2; CE: 10; R=; [M+H]+
Name: PC(16:0/0:0)
Name: Palmitoyllysolectithin
Name: (3-hexadecanoyloxy-2-hydroxypropyl) 2-(trimethylazaniumyl)ethyl phosphate
Formula: C24H50NO7P
Exact mass: 495.3325
SMILES: CCCCCCCCCCCCCCCC(=O)OCC(O)COP([O-])(=O)OCC[N+](C)(C)C
InChI: InChI=1S/C24H50NO7P/c1-5-6-7-8-9-10-11-12-13-14-15-16-17-18-24(27)30-21-23(26)22-32-33(28,29)31-20-19-25(2,3)4/h23,26H,5-22H2,1-4H3
Instrument: maXis plus UHR-ToF-MS, Bruker Daltonics
Instrument type: LC-ESI-QTOF
Ms type: MS2
Ion mode: POSITIVE
Ionization: ESI
Fragmentation mode: CID
Collision energy: 10
Column name: BEH C18 1.7um, 2.1x100mm, Waters
Retention time: 5.987 min
Base peak: 496.3396
Precursor m/z: 496.3398
Precursor type: [M+H]+
m/z	relative intensity
104.1068	9
184.0729	2
478.3287	7
479.3305	1
495.3128	1
496.3397	999
498.3462	51
