Mass spectrum: Pentadecanoyl Ethanolamide; LC-ESI-QTOF; MS2; CE: 40; R=; [M+H]+
Name: Pentadecanoyl Ethanolamide
Name: Pentadecanoyl-EA
Name: N-(2-hydroxyethyl)pentadecanamide
Formula: C17H35NO2
Exact mass: 285.26678
SMILES: O=C(CCCCCCCCCCCCCC)NCCO
InChI: InChI=1S/C17H35NO2/c1-2-3-4-5-6-7-8-9-10-11-12-13-14-17(20)18-15-16-19/h19H,2-16H2,1H3,(H,18,20)
Instrument: maXis plus UHR-ToF-MS, Bruker Daltonics
Instrument type: LC-ESI-QTOF
Ms type: MS2
Ion mode: POSITIVE
Ionization: ESI
Fragmentation mode: CID
Collision energy: 40
Column name: BEH C18 1.7um, 2.1x100mm, Waters
Retention time: 6.414 min
Base peak: 286.2736
Precursor m/z: 286.2741
Precursor type: [M+H]+
m/z	relative intensity
53.0385	1
55.054	15
57.0695	262
60.0448	1
62.0596	999
67.0538	156
69.0697	51
71.0852	237
73.028	1
79.0539	9
81.0696	70
83.0853	19
85.1011	43
93.0694	3
95.0854	43
96.0889	2
97.1015	3
107.0852	1
109.1003	7
194.2493	1
268.2625	13
269.2471	2
269.2664	3
