Mass spectrum: DL-4-Hydroxyphenyllactic acid; LC-ESI-QTOF; MS2; CE: 10; R=; [M-H]-
Name: DL-4-Hydroxyphenyllactic acid
Name: 2-hydroxy-2-(4-hydroxyphenyl)propanoic acid
Formula: C9H10O4
Exact mass: 182.0579
SMILES: CC(c1ccc(cc1)O)(C(=O)O)O
InChI: InChI=1S/C9H10O4/c1-9(13,8(11)12)6-2-4-7(10)5-3-6/h2-5,10,13H,1H3,(H,11,12)
Instrument: maXis plus UHR-ToF-MS, Bruker Daltonics
Instrument type: LC-ESI-QTOF
Ms type: MS2
Ion mode: NEGATIVE
Ionization: ESI
Fragmentation mode: CID
Collision energy: 10
Column name: BEH C18 1.7um, 2.1x100mm, Waters
Retention time: 2.354 min
Base peak: 181.0506
Precursor m/z: 181.0506
Precursor type: [M-H]-
m/z	relative intensity
72.9938	36
74.0032	1
93.0354	2
100.0057	1
135.0462	7
136.0481	1
137.0491	1
163.0401	190
164.0436	11
181.0507	999
