Mass spectrum: 1-Stearoyl-sn-glycero-3-phosphocholine; LC-ESI-QTOF; MS2; CE: 10; R=; [M+H]+
Name: 1-Stearoyl-sn-glycero-3-phosphocholine
Name: 1-octadecanoyl-sn-glycero-3-phosphocholine
Name: [(2R)-2-hydroxy-3-octadecanoyloxypropyl] 2-(trimethylazaniumyl)ethyl phosphate
Formula: C26H54NO7P
Exact mass: 523.3638
SMILES: [H][C@@](O)(COC(=O)CCCCCCCCCCCCCCCCC)COP([O-])(=O)OCC[N+](C)(C)C
InChI: InChI=1S/C26H54NO7P/c1-5-6-7-8-9-10-11-12-13-14-15-16-17-18-19-20-26(29)32-23-25(28)24-34-35(30,31)33-22-21-27(2,3)4/h25,28H,5-24H2,1-4H3/t25-/m1/s1
Instrument: maXis plus UHR-ToF-MS, Bruker Daltonics
Instrument type: LC-ESI-QTOF
Ms type: MS2
Ion mode: POSITIVE
Ionization: ESI
Fragmentation mode: CID
Collision energy: 10
Column name: BEH C18 1.7um, 2.1x100mm, Waters
Retention time: 6.585 min
Base peak: 524.3709
Precursor m/z: 524.3711
Precursor type: [M+H]+
m/z	relative intensity
104.1062	5
184.0728	1
506.3626	4
523.2999	1
523.3347	1
523.3537	1
524.3709	999
526.3775	53
