Mass spectrum: L-Glutamine; LC-ESI-QTOF; MS2; CE: 40; R=; [M+H]+
Name: L-Glutamine
Name: (2S)-5-amino-2-azaniumyl-5-oxopentanoate
Formula: C5H10N2O3
Exact mass: 146.06914
SMILES: C(CC(=N)O)[C@@H](C(=O)O)N
InChI: InChI=1S/C5H10N2O3/c6-3(5(9)10)1-2-4(7)8/h3H,1-2,6H2,(H2,7,8)(H,9,10)/t3-/m0/s1
Instrument: maXis plus UHR-ToF-MS, Bruker Daltonics
Instrument type: LC-ESI-QTOF
Ms type: MS2
Ion mode: POSITIVE
Ionization: ESI
Fragmentation mode: CID
Collision energy: 40
Column name: BEH C18 1.7um, 2.1x100mm, Waters
Retention time: 0.604 min
Base peak: 147.0761
Precursor m/z: 147.0764
Precursor type: [M+H]+
m/z	relative intensity
55.0174	7
66.0344	18
74.0237	20
74.0602	4
83.0373	6
84.0443	999
85.028	20
