Mass spectrum: D-Sorbitol; LC-ESI-QTOF; MS2; CE: 20; R=; [M+H]+
Name: D-Sorbitol
Name: Sorbo
Name: (3S,4S,5R)-hexane-1,2,3,4,5,6-hexol
Formula: C6H14O6
Exact mass: 182.07904
SMILES: OC([C@H](O)[C@@H](O)[C@H](O)CO)CO
InChI: InChI=1S/C6H14O6/c7-1-3(9)5(11)6(12)4(10)2-8/h3-12H,1-2H2/t3-,4?,5+,6+/m1/s1
Instrument: maXis plus UHR-ToF-MS, Bruker Daltonics
Instrument type: LC-ESI-QTOF
Ms type: MS2
Ion mode: POSITIVE
Ionization: ESI
Fragmentation mode: CID
Collision energy: 20
Column name: BEH C18 1.7um, 2.1x100mm, Waters
Retention time: 0.602 min
Base peak: 183.0867
Precursor m/z: 183.0863
Precursor type: [M+H]+
m/z	relative intensity
49.0155	2
51.0228	2
55.0175	24
55.0537	32
67.0537	13
69.0329	999
73.0279	37
73.0643	3
75.044	3
81.0328	54
82.038	3
83.0487	215
84.0522	20
85.0276	187
87.0439	42
91.0395	5
99.0436	32
101.0587	2
103.0385	11
111.0447	34
112.0483	2
129.055	5
