Mass spectrum: Suberic acid; LC-ESI-QTOF; MS2; CE: 40; R=; [M+H]+
Name: Suberic acid
Name: Octanedioic acid
Formula: C8H14O4
Exact mass: 174.0892
SMILES: OC(=O)CCCCCCC(O)=O
InChI: InChI=1S/C8H14O4/c9-7(10)5-3-1-2-4-6-8(11)12/h1-6H2,(H,9,10)(H,11,12)
Instrument: maXis plus UHR-ToF-MS, Bruker Daltonics
Instrument type: LC-ESI-QTOF
Ms type: MS2
Ion mode: POSITIVE
Ionization: ESI
Fragmentation mode: CID
Collision energy: 40
Column name: BEH C18 1.7um, 2.1x100mm, Waters
Retention time: 3.087 min
Base peak: 85.0582
Precursor m/z: 175.0965
Precursor type: [M+H]+
m/z	relative intensity
53.0381	39
65.0383	27
67.0537	91
69.0695	999
73.028	27
77.0379	45
79.0535	29
83.0858	160
87.0556	30
87.0803	54
88.0751	46
91.0543	61
