Mass spectrum: N2_N2-Dimethylguanosine; LC-ESI-QTOF; MS2; CE: 40; R=; [M+H]+
Name: N2_N2-Dimethylguanosine
Name: N,N-Dimethylguanosine
Name: 9-[(2R,3R,4S,5R)-3,4-dihydroxy-5-(hydroxymethyl)oxolan-2-yl]-2-(dimethylamino)-3H-purin-6-one
Formula: C12H17N5O5
Exact mass: 311.1230
SMILES: CN(C)c1[nH]c(=O)c2c(n1)n(cn2)[C@H]3[C@@H]([C@@H]([C@H](O3)CO)O)O
InChI: InChI=1S/C12H17N5O5/c1-16(2)12-14-9-6(10(21)15-12)13-4-17(9)11-8(20)7(19)5(3-18)22-11/h4-5,7-8,11,18-20H,3H2,1-2H3,(H,14,15,21)/t5-,7-,8-,11-/m1/s1
Instrument: maXis plus UHR-ToF-MS, Bruker Daltonics
Instrument type: LC-ESI-QTOF
Ms type: MS2
Ion mode: POSITIVE
Ionization: ESI
Fragmentation mode: CID
Collision energy: 40
Column name: BEH C18 1.7um, 2.1x100mm, Waters
Retention time: 1.604 min
Base peak: 312.1302
Precursor m/z: 312.1302
Precursor type: [M+H]+
m/z	relative intensity
55.0996	1
57.0326	4
59.0483	1
62.0002	1
63.9797	1
67.0741	1
69.0328	3
71.0121	5
71.0366	1
71.0945	1
73.0289	3
85.0289	1
86.0809	2
90.0095	1
97.029	1
110.0349	42
111.0395	2
111.1218	1
115.0411	1
115.1191	1
116.0912	1
116.1034	1
117.1224	1
122.0592	1
123.1132	1
126.1107	1
127.0926	2
128.0458	4
128.1039	1
135.0296	3
137.0816	8
137.0923	1
140.0539	1
141.0295	1
144.1382	2
147.0532	2
150.1035	1
153.0401	12
154.0236	1
154.0486	2
158.1413	1
159.1018	1
160.156	1
161.0273	1
161.0501	1
161.0699	1
162.0773	13
163.0066	1
163.0595	2
163.0801	2
165.0642	8
166.0453	1
168.1441	1
173.1299	1
177.11	1
178.0558	1
178.0721	2
180.0874	999
181.0904	71
182.0929	2
