Mass spectrum: Arachidonoyl Ethanolamide; LC-ESI-QTOF; MS2; CE: 40; R=; [M+H]+
Name: Arachidonoyl Ethanolamide
Name: Anandamide
Name: (5Z,8Z,11Z,14Z)-N-(2-hydroxyethyl)icosa-5,8,11,14-tetraenamide
Formula: C22H37NO2
Exact mass: 347.28243
SMILES: CCCCC/C=C\C/C=C\C/C=C\C/C=C\CCCC(=O)NCCO
InChI: InChI=1S/C22H37NO2/c1-2-3-4-5-6-7-8-9-10-11-12-13-14-15-16-17-18-19-22(25)23-20-21-24/h6-7,9-10,12-13,15-16,24H,2-5,8,11,14,17-21H2,1H3,(H,23,25)/b7-6-,10-9-,13-12-,16-15-
Instrument: maXis plus UHR-ToF-MS, Bruker Daltonics
Instrument type: LC-ESI-QTOF
Ms type: MS2
Ion mode: POSITIVE
Ionization: ESI
Fragmentation mode: CID
Collision energy: 40
Column name: BEH C18 1.7um, 2.1x100mm, Waters
Retention time: 6.390 min
Base peak: 88.0755
Precursor m/z: 348.2897
Precursor type: [M+H]+
m/z	relative intensity
55.054	63
60.0441	26
62.0598	999
65.0382	35
66.2919	9
67.0539	603
69.0336	9
69.07	158
70.0281	99
77.0381	28
79.0536	422
80.0577	51
81.0698	330
82.0647	11
82.0733	37
83.0489	42
83.0857	33
88.0387	19
91.0139	16
91.0538	288
93.0701	106
95.0484	13
95.0853	121
103.0544	17
105.0696	58
119.0847	14
120.0926	15
131.0852	25
133.0999	23
143.0848	24
145.0857	16
145.1005	10
146.1037	20
147.0813	16
147.1182	20
149.0953	14
157.101	29
159.1155	15
160.1262	13
161.1321	29
166.0048	10
166.1228	8
172.1236	11
192.1361	10
