Mass spectrum: D-Sorbitol; LC-ESI-QTOF; MS2; CE: 10; R=; [M+H]+
Name: D-Sorbitol
Name: Sorbo
Name: (3S,4S,5R)-hexane-1,2,3,4,5,6-hexol
Formula: C6H14O6
Exact mass: 182.07904
SMILES: OC([C@H](O)[C@@H](O)[C@H](O)CO)CO
InChI: InChI=1S/C6H14O6/c7-1-3(9)5(11)6(12)4(10)2-8/h3-12H,1-2H2/t3-,4?,5+,6+/m1/s1
Instrument: maXis plus UHR-ToF-MS, Bruker Daltonics
Instrument type: LC-ESI-QTOF
Ms type: MS2
Ion mode: POSITIVE
Ionization: ESI
Fragmentation mode: CID
Collision energy: 10
Column name: BEH C18 1.7um, 2.1x100mm, Waters
Retention time: 0.602 min
Base peak: 183.0867
Precursor m/z: 183.0863
Precursor type: [M+H]+
m/z	relative intensity
59.0493	2
61.0278	41
69.0329	999
70.077	2
71.0133	5
71.0362	7
71.0488	32
81.033	39
82.0365	3
83.0488	137
84.0524	1
85.0283	84
87.0436	73
91.0383	28
95.9926	2
99.0443	40
101.0588	8
111.044	71
112.0482	2
117.0536	7
118.9995	3
129.0545	97
130.0572	5
130.0832	2
130.1111	1
133.0466	2
140.0226	3
147.0651	125
165.0757	178
167.0783	3
183.086	221
