Mass spectrum: L-Aspartic acid; LC-ESI-QTOF; MS2; CE: 10; R=; [M-H]-
Name: L-Aspartic acid
Name: (2S)-2-aminobutanedioic acid
Formula: C4H7NO4
Exact mass: 133.03751
SMILES: C([C@@H](C(=O)O)N)C(=O)O
InChI: InChI=1S/C4H7NO4/c5-2(4(8)9)1-3(6)7/h2H,1,5H2,(H,6,7)(H,8,9)/t2-/m0/s1
Instrument: maXis plus UHR-ToF-MS, Bruker Daltonics
Instrument type: LC-ESI-QTOF
Ms type: MS2
Ion mode: NEGATIVE
Ionization: ESI
Fragmentation mode: CID
Collision energy: 10
Column name: BEH C18 1.7um, 2.1x100mm, Waters
Retention time: 0.627 min
Base peak: 69.0042
Precursor m/z: 132.0302
Precursor type: [M-H]-
m/z	relative intensity
115.0048	591
132.0292	999
