Mass spectrum: Coenzyme Q2; LC-ESI-QTOF; MS2; CE: 20; R=; [M+H]+
Name: Coenzyme Q2
Name: Ubiquinone-2
Name: 2-[(2E)-3,7-dimethylocta-2,6-dienyl]-5,6-dimethoxy-3-methylcyclohexa-2,5-diene-1,4-dione
Formula: C19H26O4
Exact mass: 318.1831
SMILES: CC1=C(C(=O)C(=C(C1=O)OC)OC)C/C=C(\C)/CCC=C(C)C
InChI: InChI=1S/C19H26O4/c1-12(2)8-7-9-13(3)10-11-15-14(4)16(20)18(22-5)19(23-6)17(15)21/h8,10H,7,9,11H2,1-6H3/b13-10+
Instrument: maXis plus UHR-ToF-MS, Bruker Daltonics
Instrument type: LC-ESI-QTOF
Ms type: MS2
Ion mode: POSITIVE
Ionization: ESI
Fragmentation mode: CID
Collision energy: 20
Column name: BEH C18 1.7um, 2.1x100mm, Waters
Retention time: 6.409 min
Base peak: 88.0747
Precursor m/z: 319.1904
Precursor type: [M+H]+
m/z	relative intensity
47.1067	3
55.0539	2
55.9895	5
59.2006	5
64.0392	4
65.026	2
67.0058	3
67.0543	8
73.0643	3
74.1085	2
75.0675	2
77.0958	5
78.1244	7
79.054	10
79.1691	2
81.0691	30
83.085	13
83.9841	3
84.0213	4
87.1172	2
87.9791	3
89.1168	2
89.9816	4
91.005	3
91.0511	2
92.1034	7
93.0335	5
93.0698	13
94.0416	4
94.073	2
95.0851	30
96.1152	3
97.1016	15
99.045	2
99.0796	6
103.0424	2
103.133	2
105.1023	3
105.1488	7
106.0009	6
106.0997	2
107.0702	2
108.0157	2
109.0658	2
109.1016	19
110.0944	3
111.1035	2
111.9795	3
111.9914	2
112.063	3
116.0587	3
120.1154	6
121.1021	3
123.0444	3
123.08	3
123.1163	18
123.9934	4
124.0894	3
125.9827	2
128.0482	3
129.03	4
129.9906	2
130.0038	2
130.0263	3
130.157	5
131.0458	4
131.1534	4
133.0256	2
133.1428	3
134.1425	2
135.0088	2
135.0298	3
135.08	8
136.0239	3
136.9882	5
137.0246	3
137.1887	2
138.0914	2
139.9884	2
140.0358	2
140.058	3
142.1225	4
143.0089	2
143.0237	3
143.0815	6
144.1157	3
145.0654	3
145.1016	5
147.0239	2
147.1025	3
148.0015	2
148.0742	2
148.1208	3
149.0127	5
149.0598	3
150.0069	2
150.0621	3
151.0748	10
151.1115	5
152.0458	3
153.0534	4
153.0856	4
153.1142	2
153.1649	2
154.0656	9
156.0175	5
156.9884	3
157.0872	3
157.0985	4
158.0013	2
158.0955	3
159.0772	5
160.1465	3
161.0268	3
161.0571	3
161.0948	5
161.1547	4
162.1816	3
163.0341	5
163.0762	2
163.216	3
164.0413	6
164.1574	4
164.9821	3
165.018	3
165.0538	2
165.0701	4
165.092	4
165.9762	2
165.9903	4
166.1727	7
167.0716	4
167.1083	3
167.9984	2
168.0869	2
169.0857	17
169.1967	2
170.1266	3
171.0662	2
171.0802	5
171.1248	3
173.0936	4
173.1088	5
174.0277	4
174.0388	3
175.0746	19
175.0966	2
175.1131	6
176.0815	3
176.1169	7
176.1559	2
176.9832	3
176.9986	3
177.0713	2
177.0921	13
178.0396	3
178.0567	3
179.0227	2
179.0715	5
179.9827	2
181.0497	7
181.0862	66
181.182	3
182.0885	2
182.1177	2
182.1313	2
182.1917	2
183.0168	2
183.1593	2
184.9987	3
185.0588	4
185.0957	6
185.2024	3
186.0051	3
186.1349	4
186.1992	3
187.0545	6
187.0749	16
187.1117	5
187.1802	2
187.9974	2
188.0804	4
189.059	3
189.0916	19
189.1238	3
190.0377	5
190.0542	2
190.0969	6
190.1702	2
191.0685	21
191.1054	15
191.1178	3
191.1792	3
192.0822	6
193.0837	17
194.0581	7
194.1862	5
195.1012	31
196.0101	3
196.1039	4
196.123	2
196.1933	4
197.0801	999
198.104	4
199.0387	3
199.0526	4
199.0757	12
199.0856	19
199.1462	6
200.0359	2
200.0799	8
201.0912	9
202.0636	2
202.0955	3
203.0712	10
203.1073	14
204.0647	3
204.0784	5
204.1024	3
204.113	6
204.1377	3
205.0848	69
206.0906	10
207.0572	2
207.0764	3
207.1005	23
208.0487	4
208.0743	4
208.1113	3
209.0029	2
209.0814	22
209.1185	6
209.1322	3
209.1483	3
210.0786	3
210.147	2
210.1622	5
211.0968	9
211.1244	2
211.146	3
213.0403	2
213.0896	8
213.1294	3
213.1639	5
214.0148	2
215.0706	4
215.0904	4
215.1029	11
216.0761	2
217.0855	50
217.122	14
218.0903	17
218.126	10
219.1006	166
220.0491	4
220.1067	18
221.012	5
221.0797	58
221.1157	24
221.1652	5
222.0924	7
222.1214	3
223.0956	67
224.0444	2
224.1476	4
224.9825	2
225.031	3
227.1061	6
227.1446	17
228.1351	2
228.1467	3
228.1977	5
229.1164	2
230.09	5
230.1253	2
231.1013	204
231.1382	10
232.0357	2
232.1048	23
233.0606	3
233.1168	66
233.9973	4
234.0091	3
234.1202	12
235.0952	170
235.1326	27
236.08	3
236.1395	7
237.1109	57
238.0537	3
238.1178	13
238.1368	4
238.18	2
239.1055	2
239.1396	3
240.1155	4
240.1766	4
241.0607	3
241.1229	4
241.159	17
242.129	4
243.1045	4
244.1477	2
245.1159	70
245.1557	5
246.1052	4
246.121	18
247.132	16
247.1573	3
248.01	5
248.1355	5
248.1895	6
249.1121	25
249.1513	8
251.127	40
252.0186	2
252.0992	5
252.1108	4
252.1336	9
254.1294	8
255.0802	3
255.138	56
256.0594	2
256.1427	11
257.009	5
259.13	15
259.1686	42
259.9727	4
260.1746	6
261.0306	2
261.1484	6
261.211	2
262.0982	2
262.1516	3
263.1288	36
264.1366	5
265.1348	3
265.1682	2
266.1403	3
268.1455	2
269.0551	6
269.1517	49
270.1583	18
271.165	3
272.1423	14
273.1842	104
274.1864	9
275.1386	2
277.1763	2
279.0503	3
281.0535	4
281.1754	2
283.1678	3
285.1233	5
286.1533	3
287.1638	187
288.0174	2
288.1695	31
289.1774	8
291.1972	14
292.071	3
293.1508	2
299.1298	4
300.0985	3
300.1605	2
301.1787	229
302.1833	43
303.1856	5
304.1655	7
309.1805	4
314.1378	2
315.1234	19
316.1758	2
317.1645	4
319.1898	685
321.1966	9
324.0724	2
