Mass spectrum: alpha-Linolenoyl Ethanolamide; LC-ESI-QTOF; MS2; CE: 20; R=; [M+H]+
Name: alpha-Linolenoyl Ethanolamide
Name: (9Z,12Z,15Z)-N-(2-hydroxyethyl)octadeca-9,12,15-trienamide
Formula: C20H35NO2
Exact mass: 321.26678
SMILES: OCCNC(=O)CCCCCCC/C=C\C/C=C\C/C=C\CC
InChI: InChI=1S/C20H35NO2/c1-2-3-4-5-6-7-8-9-10-11-12-13-14-15-16-17-20(23)21-18-19-22/h3-4,6-7,9-10,22H,2,5,8,11-19H2,1H3,(H,21,23)/b4-3-,7-6-,10-9-
Instrument: maXis plus UHR-ToF-MS, Bruker Daltonics
Instrument type: LC-ESI-QTOF
Ms type: MS2
Ion mode: POSITIVE
Ionization: ESI
Fragmentation mode: CID
Collision energy: 20
Column name: BEH C18 1.7um, 2.1x100mm, Waters
Retention time: 6.063 min
Base peak: 88.0751
Precursor m/z: 322.2741
Precursor type: [M+H]+
m/z	relative intensity
45.0318	14
47.0364	18
53.1897	18
54.0212	11
55.1484	10
57.0332	10
57.0783	13
58.1224	15
59.0488	14
63.0558	50
67.0536	999
71.0488	68
81.0693	869
83.0483	43
83.0852	113
85.0639	74
85.102	20
88.0386	43
91.0539	43
93.0691	339
94.005	12
94.0736	38
95.085	531
96.0888	37
97.0654	66
98.0597	33
98.1661	14
99.0423	32
99.0796	10
103.2295	11
105.07	64
107.1068	12
109.1008	183
110.1644	12
121.1007	157
123.1159	62
131.0844	18
131.094	30
132.0214	13
133.1004	64
135.0809	18
140.1063	17
141.9933	11
143.189	12
145.1008	53
147.1165	54
148.1214	13
149.0944	31
149.1321	165
150.1373	23
152.1035	14
152.163	12
153.0924	10
155.1053	12
156.1009	10
156.2701	17
157.9971	18
158.1168	44
159.1163	143
161.0701	28
161.1332	136
162.1263	21
162.1357	28
163.0288	15
163.1483	174
164.0566	18
165.128	15
166.1202	22
166.2531	11
172.1338	49
173.1323	112
174.1376	17
175.1493	64
177.1248	12
177.164	111
179.1442	20
181.0859	12
181.1215	15
182.0105	10
183.1373	34
184.0507	12
184.1315	38
186.0047	14
186.1489	87
187.1475	57
188.1505	23
189.1634	25
191.1405	31
194.1544	10
195.1372	21
195.1725	17
197.1547	21
198.1476	31
200.1505	11
210.1508	16
210.1632	12
214.1796	70
215.1798	22
217.1936	26
218.2012	14
220.0166	10
220.1667	16
220.2187	10
224.1948	25
225.1844	20
226.1804	36
227.1746	25
233.2277	45
234.1814	17
236.2515	10
238.1802	15
238.2167	14
243.0648	12
243.2118	205
243.234	12
244.2132	52
245.2154	12
246.117	13
249.1831	28
261.2219	663
262.2247	146
263.226	12
266.2097	24
287.2139	12
304.2636	667
305.2475	316
319.203	21
322.2741	543
324.2799	12
326.2233	16
