Mass spectrum: C6-homoserine lactone; LC-ESI-QTOF; MS2; CE: 10; R=; [M+H]+
Name: C6-homoserine lactone
Name: N-Hexanoyl-DL-homoserine lactone
Name: N-(2-oxooxolan-3-yl)hexanamide
Formula: C10H17NO3
Exact mass: 199.12084
SMILES: CCCCCC(=O)NC1CCOC1=O
InChI: InChI=1S/C10H17NO3/c1-2-3-4-5-9(12)11-8-6-7-14-10(8)13/h8H,2-7H2,1H3,(H,11,12)
Instrument: maXis plus UHR-ToF-MS, Bruker Daltonics
Instrument type: LC-ESI-QTOF
Ms type: MS2
Ion mode: POSITIVE
Ionization: ESI
Fragmentation mode: CID
Collision energy: 10
Column name: BEH C18 1.7um, 2.1x100mm, Waters
Retention time: 3.506 min
Base peak: 200.1277
Precursor m/z: 200.1281
Precursor type: [M+H]+
m/z	relative intensity
81.0692	1
85.0279	2
99.0801	999
102.0547	850
117.0919	1
172.1329	58
182.1174	113
183.1209	10
200.1279	599
