Mass spectrum: 4-Hydroxybenzoic acid; LC-ESI-QTOF; MS2; CE: 10; R=; [M+H]+
Name: 4-Hydroxybenzoic acid
Formula: C7H6O3
Exact mass: 138.0317
SMILES: OC(=O)C1=CC=C(O)C=C1
InChI: InChI=1S/C7H6O3/c8-6-3-1-5(2-4-6)7(9)10/h1-4,8H,(H,9,10)
Instrument: maXis plus UHR-ToF-MS, Bruker Daltonics
Instrument type: LC-ESI-QTOF
Ms type: MS2
Ion mode: POSITIVE
Ionization: ESI
Fragmentation mode: CID
Collision energy: 10
Column name: BEH C18 1.7um, 2.1x100mm, Waters
Retention time: 2.548 min
Base peak: 468.0135
Precursor m/z: 139.039
Precursor type: [M+H]+
m/z	relative intensity
77.039	41
94.0411	8
95.0488	999
110.0464	14
111.0405	14
120.0439	6
121.0279	72
139.0381	721
