Mass spectrum: 3-oxo-C12 homoserine lactone; LC-ESI-QTOF; MS2; CE: 40; R=; [M+H]+
Name: 3-oxo-C12 homoserine lactone
Name: PA Autoinducer
Name: 3-oxo-N-(2-oxooxolan-3-yl)dodecanamide
Formula: C16H27NO4
Exact mass: 297.19401
SMILES: CCCCCCCCCC(=O)CC(=O)NC1CCOC1=O
InChI: InChI=1S/C16H27NO4/c1-2-3-4-5-6-7-8-9-13(18)12-15(19)17-14-10-11-21-16(14)20/h14H,2-12H2,1H3,(H,17,19)
Instrument: maXis plus UHR-ToF-MS, Bruker Daltonics
Instrument type: LC-ESI-QTOF
Ms type: MS2
Ion mode: POSITIVE
Ionization: ESI
Fragmentation mode: CID
Collision energy: 40
Column name: BEH C18 1.7um, 2.1x100mm, Waters
Retention time: 5.277 min
Base peak: 298.2009
Precursor m/z: 298.2013
Precursor type: [M+H]+
m/z	relative intensity
46.0289	1
51.1981	1
55.0168	9
59.0475	4
64.0509	2
66.1274	1
67.9888	1
71.0117	999
73.0278	18
73.0644	6
75.019	5
79.9889	2
80.0004	3
81.0328	49
81.0691	797
83.0338	3
83.0482	25
83.0848	50
84.0438	596
85.0277	139
85.1006	589
87.023	3
87.042	6
87.0793	2
91.054	13
93.0694	33
95.085	507
96.0523	3
97.0643	14
97.1003	12
98.06	68
99.0438	54
99.0555	2
102.0545	848
104.0574	2
105.0692	8
105.1634	3
107.0849	4
109.0649	3
109.1009	9
110.1044	4
111.0427	4
111.0814	3
111.1172	2
113.0587	58
114.0663	2
117.055	3
119.0848	5
121.1009	3
127.0746	9
137.0934	3
140.0355	2
141.091	3
152.0825	2
155.0607	2
155.1058	1
155.1417	12
161.1317	3
165.0317	3
169.0836	1
182.2021	2
184.0102	1
191.0884	1
197.1534	320
198.1564	36
198.174	3
206.0369	2
206.2048	2
241.0224	3
252.0272	1
