Mass spectrum: Daidzein; LC-ESI-QTOF; MS2; CE: 40; R=; [M+H]+
Name: Daidzein
Name: 7-hydroxy-3-(4-hydroxyphenyl)chromen-4-one
Formula: C15H10O4
Exact mass: 254.0579
SMILES: O=C\1c3c(O/C=C/1c2ccc(O)cc2)cc(O)cc3
InChI: InChI=1S/C15H10O4/c16-10-3-1-9(2-4-10)13-8-19-14-7-11(17)5-6-12(14)15(13)18/h1-8,16-17H
Instrument: maXis plus UHR-ToF-MS, Bruker Daltonics
Instrument type: LC-ESI-QTOF
Ms type: MS2
Ion mode: POSITIVE
Ionization: ESI
Fragmentation mode: CID
Collision energy: 40
Column name: BEH C18 1.7um, 2.1x100mm, Waters
Retention time: 3.586 min
Base peak: 255.065
Precursor m/z: 255.0652
Precursor type: [M+H]+
m/z	relative intensity
46.005	5
48.9922	2
50.0471	2
56.0254	2
63.0804	2
67.0545	4
70.0779	2
73.0519	3
74.0109	2
77.0108	1
77.0228	3
77.9981	3
80.049	3
81.0328	167
82.0366	13
83.0452	3
83.9949	2
85.028	2
86.0722	2
88.0753	2
91.0536	999
92.0264	3
92.0575	44
92.9818	3
93.0578	2
93.0654	3
95.0233	3
102.9899	2
103.0543	8
104.0698	3
105.0325	37
106.0412	47
107.046	7
109.038	3
112.0313	2
115.0541	14
116.0586	4
117.0335	2
117.0689	2
118.041	11
119.0012	5
119.0488	62
119.0603	7
120.0408	2
120.0541	2
121.0275	29
122.0324	1
123.0316	2
123.039	3
123.9912	1
124.017	3
125.9834	2
125.9977	6
126.9891	2
127.0395	6
127.0552	2
127.0763	2
128.0615	56
129.0286	4
129.0707	38
131.0481	27
132.0178	3
132.0668	2
133.0895	3
134.0352	13
135.9894	4
137.0224	140
138.0266	18
142.0781	4
143.0014	2
143.0847	11
144.0054	2
144.0576	5
145.0277	35
145.0641	5
147.0441	6
148.0479	2
149.0231	16
149.0552	2
150.0272	2
151.0151	3
151.0287	2
151.0393	3
151.0542	41
152.0611	384
153.0689	322
154.0737	27
155.0489	9
155.0575	8
155.0688	2
156.0576	3
157.0645	56
158.0683	9
159.0445	5
160.0299	2
163.0396	2
163.0546	10
164.0621	2
165.0699	18
166.072	2
167.0323	2
168.0571	7
169.0644	37
169.9873	2
171.0797	116
172.0127	1
172.0284	2
175.017	2
175.0381	7
178.0634	3
179.0592	10
181.0646	798
182.0697	106
183.0405	5
183.0748	17
183.0902	2
184.0516	100
185.0248	5
185.0583	28
186.0456	3
186.0618	12
187.0409	7
187.061	3
190.9968	2
197.0596	80
198.0667	82
199.0751	605
200.0471	5
201.0648	3
208.0101	3
208.0506	2
209.0599	52
210.0202	2
210.0318	5
210.0694	26
211.0754	11
212.0462	18
213.0543	11
219.046	3
225.0525	25
226.063	13
227.07	237
235.0695	2
237.0552	143
238.026	3
238.0588	36
239.0564	2
255.0649	232
257.0671	12
