Mass spectrum: Taurolithocholate; LC-ESI-QTOF; MS2; CE: 20; R=; [M+H]+
Name: Taurolithocholate
Name: 2-[[(4R)-4-[(3R,5R,8R,9S,10S,13R,14S,17R)-3-hydroxy-10,13-dimethyl-2,3,4,5,6,7,8,9,11,12,14,15,16,17-tetradecahydro-1H-cyclopenta[a]phenanthren-17-yl]pentanoyl]amino]ethanesulfonic acid
Formula: C26H45NO5S
Exact mass: 483.3018
SMILES: C[C@H](CC/C(=N/CCS(=O)(=O)O)/O)[C@H]1CC[C@@H]2[C@@]1(CC[C@H]3[C@H]2CC[C@H]4[C@@]3(CC[C@H](C4)O)C)C
InChI: InChI=1S/C26H45NO5S/c1-17(4-9-24(29)27-14-15-33(30,31)32)21-7-8-22-20-6-5-18-16-19(28)10-12-25(18,2)23(20)11-13-26(21,22)3/h17-23,28H,4-16H2,1-3H3,(H,27,29)(H,30,31,32)/t17-,18-,19-,20+,21-,22+,23+,25+,26-/m1/s1
Instrument: maXis plus UHR-ToF-MS, Bruker Daltonics
Instrument type: LC-ESI-QTOF
Ms type: MS2
Ion mode: POSITIVE
Ionization: ESI
Fragmentation mode: CID
Collision energy: 20
Column name: BEH C18 1.7um, 2.1x100mm, Waters
Retention time: 4.902 min
Base peak: 88.0751
Precursor m/z: 484.3091
Precursor type: [M+H]+
m/z	relative intensity
126.0219	5
128.0197	1
149.1319	1
163.1474	1
177.1639	1
208.0638	3
209.0605	1
231.1776	1
239.1195	1
262.1112	2
276.1268	4
290.1443	2
292.1677	1
302.1413	4
303.1516	1
304.1574	2
310.1727	1
316.1592	3
318.1774	1
323.2729	23
324.2755	3
330.1735	4
331.175	1
341.2835	66
342.1724	1
342.2876	13
343.2904	1
344.1882	2
345.1881	1
356.1871	2
358.2025	1
370.2049	4
384.2206	6
385.2257	1
386.2252	1
386.2403	1
465.1353	1
465.312	1
465.3292	1
466.2987	999
467.3017	321
468.3023	69
469.2991	6
484.3083	1
