Mass spectrum: Homovanillic acid; LC-ESI-QTOF; MS2; CE: 20; R=; [M-H]-
Name: Homovanillic acid
Name: 2-(4-hydroxy-3-methoxyphenyl)acetic acid
Formula: C9H10O4
Exact mass: 182.0579
SMILES: O=C(O)Cc1cc(OC)c(O)cc1
InChI: InChI=1S/C9H10O4/c1-13-8-4-6(5-9(11)12)2-3-7(8)10/h2-4,10H,5H2,1H3,(H,11,12)
Instrument: maXis plus UHR-ToF-MS, Bruker Daltonics
Instrument type: LC-ESI-QTOF
Ms type: MS2
Ion mode: NEGATIVE
Ionization: ESI
Fragmentation mode: CID
Collision energy: 20
Column name: BEH C18 1.7um, 2.1x100mm, Waters
Retention time: 2.841 min
Base peak: 181.0513
Precursor m/z: 181.0506
Precursor type: [M-H]-
m/z	relative intensity
77.0391	241
94.0429	182
95.0511	91
108.0219	103
109.0302	41
122.0384	848
123.0461	44
137.0613	999
153.0567	53
181.0509	250
