Mass spectrum: 3-oxo-C12 homoserine lactone; LC-ESI-QTOF; MS2; CE: 40; R=; [M-H]-
Name: 3-oxo-C12 homoserine lactone
Name: PA Autoinducer
Name: 3-oxo-N-(2-oxooxolan-3-yl)dodecanamide
Formula: C16H27NO4
Exact mass: 297.1940
SMILES: CCCCCCCCCC(=O)CC(=O)NC1CCOC1=O
InChI: InChI=1S/C16H27NO4/c1-2-3-4-5-6-7-8-9-13(18)12-15(19)17-14-10-11-21-16(14)20/h14H,2-12H2,1H3,(H,17,19)
Instrument: maXis plus UHR-ToF-MS, Bruker Daltonics
Instrument type: LC-ESI-QTOF
Ms type: MS2
Ion mode: NEGATIVE
Ionization: ESI
Fragmentation mode: CID
Collision energy: 40
Column name: BEH C18 1.7um, 2.1x100mm, Waters
Retention time: 5.292 min
Base peak: 296.1864
Precursor m/z: 296.1867
Precursor type: [M-H]-
m/z	relative intensity
52.0194	9
55.019	2
57.0346	999
67.0189	3
68.0137	5
68.9983	75
69.0349	58
70.0056	7
70.0299	33
71.0129	4
71.0344	4
71.0496	8
72.0093	55
81.0347	7
84.0459	36
88.0066	2
95.0381	13
96.0085	13
96.046	24
97.0305	5
98.0011	24
98.0253	3
109.0178	2
109.0286	2
112.0412	59
121.1234	3
135.0669	3
142.0507	2
170.166	4
171.1403	69
172.1455	4
178.1595	2
179.1452	8
181.1609	2
194.156	3
195.1402	97
195.1761	7
213.1488	3
223.1726	5
234.1877	7
248.1668	86
249.1693	5
250.1456	8
250.1827	5
251.1521	6
266.1773	5
278.177	19
279.1834	4
296.1877	25
