Mass spectrum: gamma-Linolenic acid; LC-ESI-QTOF; MS2; CE: 20; R=; [M+H]+
Name: gamma-Linolenic acid
Name: (6Z,9Z,12Z)-octadeca-6,9,12-trienoic acid
Formula: C18H30O2
Exact mass: 278.2246
SMILES: CCCCC\C=C/C\C=C/C\C=C/CCCCC(O)=O
InChI: InChI=1S/C18H30O2/c1-2-3-4-5-6-7-8-9-10-11-12-13-14-15-16-17-18(19)20/h6-7,9-10,12-13H,2-5,8,11,14-17H2,1H3,(H,19,20)/b7-6-,10-9-,13-12-
Instrument: maXis plus UHR-ToF-MS, Bruker Daltonics
Instrument type: LC-ESI-QTOF
Ms type: MS2
Ion mode: POSITIVE
Ionization: ESI
Fragmentation mode: CID
Collision energy: 20
Column name: BEH C18 1.7um, 2.1x100mm, Waters
Retention time: 6.691 min
Base peak: 88.0749
Precursor m/z: 279.2319
Precursor type: [M+H]+
m/z	relative intensity
69.0693	162
79.0541	241
81.0694	999
82.0731	91
93.0703	58
95.0847	489
97.0974	51
102.078	35
107.0865	89
109.0647	83
109.1009	80
111.081	42
111.1163	41
121.1012	109
122.1048	32
131.0851	37
141.0291	44
145.1024	146
149.0959	89
149.1316	121
159.1159	141
159.1376	57
161.1322	91
163.1449	98
165.1612	91
167.105	53
177.1248	155
177.172	37
179.107	32
181.1003	32
181.123	144
191.144	94
201.1591	32
206.1669	33
209.1537	94
211.1573	78
213.163	87
219.2086	44
233.2246	55
234.2353	33
243.2093	293
261.2186	116
279.2337	309
