Mass spectrum: Glycoursodeoxycholic acid; LC-ESI-QTOF; MS2; CE: 10; R=; [M+H]+
Name: Glycoursodeoxycholic acid
Name: 2-[[(4R)-4-[(3R,5S,7S,10S,13R,17R)-3,7-dihydroxy-10,13-dimethyl-2,3,4,5,6,7,8,9,11,12,14,15,16,17-tetradecahydro-1H-cyclopenta[a]phenanthren-17-yl]pentanoyl]amino]acetic acid
Formula: C26H43NO5
Exact mass: 449.3141
SMILES: C[C@H](CCC(=O)NCC(=O)O)[C@H]1CCC2[C@@]1(CCC3C2[C@H](C[C@H]4[C@@]3(CC[C@H](C4)O)C)O)C
InChI: InChI=1S/C26H43NO5/c1-15(4-7-22(30)27-14-23(31)32)18-5-6-19-24-20(9-11-26(18,19)3)25(2)10-8-17(28)12-16(25)13-21(24)29/h15-21,24,28-29H,4-14H2,1-3H3,(H,27,30)(H,31,32)/t15-,16+,17-,18-,19?,20?,21+,24?,25+,26-/m1/s1
Instrument: maXis plus UHR-ToF-MS, Bruker Daltonics
Instrument type: LC-ESI-QTOF
Ms type: MS2
Ion mode: POSITIVE
Ionization: ESI
Fragmentation mode: CID
Collision energy: 10
Column name: BEH C18 1.7um, 2.1x100mm, Waters
Retention time: 4.256 min
Base peak: 432.3104
Precursor m/z: 450.3214
Precursor type: [M+H]+
m/z	relative intensity
76.0391	1
321.2582	2
339.2687	9
340.2745	2
414.3003	999
415.3039	299
417.3123	2
432.3108	736
433.3145	258
434.3175	29
435.3193	2
450.3217	304
452.3273	11
