Mass spectrum: L-Carnitine; LC-ESI-QTOF; MS2; CE: 20; R=; [M+H]+
Name: L-Carnitine
Name: DL-Carnitine
Name: 3-hydroxy-4-(trimethylazaniumyl)butanoate
Formula: C7H15NO3
Exact mass: 161.10519
SMILES: C[N+](C)(C)CC(CC(=O)[O-])O
InChI: InChI=1S/C7H15NO3/c1-8(2,3)5-6(9)4-7(10)11/h6,9H,4-5H2,1-3H3
Instrument: maXis plus UHR-ToF-MS, Bruker Daltonics
Instrument type: LC-ESI-QTOF
Ms type: MS2
Ion mode: POSITIVE
Ionization: ESI
Fragmentation mode: CID
Collision energy: 20
Column name: BEH C18 1.7um, 2.1x100mm, Waters
Retention time: 0.590 min
Base peak: 162.112
Precursor m/z: 162.1125
Precursor type: [M+H]+
m/z	relative intensity
57.0325	27
61.0274	4
85.0276	747
87.0321	2
102.0911	318
103.0387	999
121.0503	1
162.1121	315
164.117	2
