Mass spectrum: 1-tridecanoyl-2-hydroxy-sn-glycero-3-phosphocholine; LC-ESI-QTOF; MS2; CE: 10; R=; [M+H]+
Name: 1-tridecanoyl-2-hydroxy-sn-glycero-3-phosphocholine
Name: 1-tridecanoyl-sn-glycero-3-phosphocholine
Name: [(2R)-2-hydroxy-3-tridecanoyloxypropyl] 2-(trimethylazaniumyl)ethyl phosphate
Formula: C21H44NO7P
Exact mass: 453.2855
SMILES: [H][C@@](O)(COC(=O)CCCCCCCCCCCC)COP([O-])(=O)OCC[N+](C)(C)C
InChI: InChI=1S/C21H44NO7P/c1-5-6-7-8-9-10-11-12-13-14-15-21(24)27-18-20(23)19-29-30(25,26)28-17-16-22(2,3)4/h20,23H,5-19H2,1-4H3/t20-/m1/s1
Instrument: maXis plus UHR-ToF-MS, Bruker Daltonics
Instrument type: LC-ESI-QTOF
Ms type: MS2
Ion mode: POSITIVE
Ionization: ESI
Fragmentation mode: CID
Collision energy: 10
Column name: BEH C18 1.7um, 2.1x100mm, Waters
Retention time: 5.077 min
Base peak: 454.2923
Precursor m/z: 454.2928
Precursor type: [M+H]+
m/z	relative intensity
104.1065	17
184.0725	4
436.2818	13
437.2872	1
454.2925	999
456.2985	39
