Mass spectrum: dhas#18; LC-ESI-QTOF; MS2; CE: 20; R=; [M-H]-
Name: dhas#18
Formula: C17H32O8
Exact mass: 364.2097
SMILES: CC(C[C@H](O)CCCC[C@@H](O)CC(O)=O)O[C@@H]1OC(C)[C@H](O)CC1O
InChI: InChI=1S/C17H32O8/c1-10(24-17-15(21)9-14(20)11(2)25-17)7-12(18)5-3-4-6-13(19)8-16(22)23/h10-15,17-21H,3-9H2,1-2H3,(H,22,23)/t10?,11?,12-,13-,14-,15?,17-/m1/s1
Instrument: maXis plus UHR-ToF-MS, Bruker Daltonics
Instrument type: LC-ESI-QTOF
Ms type: MS2
Ion mode: NEGATIVE
Ionization: ESI
Fragmentation mode: CID
Collision energy: 20
Column name: BEH C18 1.7um, 2.1x100mm, Waters
Retention time: 2.778 min
Base peak: 363.2042
Precursor m/z: 363.2024
Precursor type: [M-H]-
m/z	relative intensity
147.0697	1
233.1492	1
303.1833	1
346.199	1
363.2045	999
