Mass spectrum: 3-hydroxy-C6-homoserine lactone; LC-ESI-QTOF; MS2; CE: 40; R=; [M+H]+
Name: 3-hydroxy-C6-homoserine lactone
Name: 3OH-C6-HSL RS/RS
Name: 3-hydroxy-N-(2-oxooxolan-3-yl)hexanamide
Formula: C10H17NO4
Exact mass: 215.11576
SMILES: CCCC(O)CC(=O)NC1CCOC1=O
InChI: InChI=1S/C10H17NO4/c1-2-3-7(12)6-9(13)11-8-4-5-15-10(8)14/h7-8,12H,2-6H2,1H3,(H,11,13)
Instrument: maXis plus UHR-ToF-MS, Bruker Daltonics
Instrument type: LC-ESI-QTOF
Ms type: MS2
Ion mode: POSITIVE
Ionization: ESI
Fragmentation mode: CID
Collision energy: 40
Column name: BEH C18 1.7um, 2.1x100mm, Waters
Retention time: 2.644 min
Base peak: 102.0545
Precursor m/z: 216.123
Precursor type: [M+H]+
m/z	relative intensity
54.0463	2
55.0166	25
55.0753	9
61.016	5
67.0175	3
68.0579	3
71.0476	4
72.0073	11
73.0639	259
74.0593	999
75.0435	4
76.0261	2
76.0633	3
79.0537	20
84.0438	410
85.0279	137
95.0492	2
96.0805	3
97.0652	11
102.0547	253
104.059	2
