Mass spectrum: 3-hydroxy-C4-homoserine lactone; LC-ESI-QTOF; MS2; CE: 10; R=; [M+H]+
Name: 3-hydroxy-C4-homoserine lactone
Name: 3-hydroxy-N-(2-oxooxolan-3-yl)butanamide
Formula: C8H13NO4
Exact mass: 187.08446
SMILES: CC(O)CC(=O)NC1CCOC1=O
InChI: InChI=1S/C8H13NO4/c1-5(10)4-7(11)9-6-2-3-13-8(6)12/h5-6,10H,2-4H2,1H3,(H,9,11)
Instrument: maXis plus UHR-ToF-MS, Bruker Daltonics
Instrument type: LC-ESI-QTOF
Ms type: MS2
Ion mode: POSITIVE
Ionization: ESI
Fragmentation mode: CID
Collision energy: 10
Column name: BEH C18 1.7um, 2.1x100mm, Waters
Retention time: 0.913 min
Base peak: 188.0912
Precursor m/z: 188.0917
Precursor type: [M+H]+
m/z	relative intensity
63.0916	1
69.0332	12
74.0231	21
84.0447	11
87.0435	69
90.0757	1
102.0546	999
104.0584	1
115.0839	2
123.0392	2
128.036	2
131.032	1
142.0259	1
143.0224	1
145.0039	3
149.0306	3
150.078	2
160.0962	7
170.0815	18
182.0558	2
183.0999	2
186.0776	2
188.0917	436
