Mass spectrum: D(+)-Melezitose; LC-ESI-QTOF; MS2; CE: 10; R=; [M+H]+
Name: D(+)-Melezitose
Name: Melezitose
Name: (2R,3R,4S,5S,6R)-2-[(2S,3S,4R,5R)-4-hydroxy-2,5-bis(hydroxymethyl)-2-[(2R,3R,4S,5S,6R)-3,4,5-trihydroxy-6-(hydroxymethyl)oxan-2-yl]oxyoxolan-3-yl]oxy-6-(hydroxymethyl)oxane-3,4,5-triol
Formula: C18H32O16
Exact mass: 504.1690
SMILES: O1[C@H](CO)[C@@H](O)[C@H](O)[C@@H](O)[C@H]1O[C@@]3(O[C@@H]([C@@H](O)[C@@H]3O[C@H]2O[C@H](CO)[C@@H](O)[C@H](O)[C@H]2O)CO)CO
InChI: InChI=1S/C18H32O16/c19-1-5-8(23)11(26)13(28)16(30-5)32-15-10(25)7(3-21)33-18(15,4-22)34-17-14(29)12(27)9(24)6(2-20)31-17/h5-17,19-29H,1-4H2/t5-,6-,7-,8-,9-,10-,11+,12+,13-,14-,15+,16-,17-,18+/m1/s1
Instrument: maXis plus UHR-ToF-MS, Bruker Daltonics
Instrument type: LC-ESI-QTOF
Ms type: MS2
Ion mode: POSITIVE
Ionization: ESI
Fragmentation mode: CID
Collision energy: 10
Column name: BEH C18 1.7um, 2.1x100mm, Waters
Retention time: 0.576 min
Base peak: 325.1128
Precursor m/z: 505.1763
Precursor type: [M+H]+
m/z	relative intensity
85.0287	77
163.0587	51
170.1867	59
181.9685	53
259.0822	61
260.0799	74
268.1011	51
289.0895	105
289.115	46
307.1292	48
314.1611	48
325.0808	95
325.1128	999
325.1356	95
326.1172	82
327.1146	136
329.0779	46
343.1193	84
347.1366	51
487.1601	215
488.1688	123
507.176	64
