Mass spectrum: Pentadecanoyl Ethanolamide; LC-ESI-QTOF; MS2; CE: 10; R=; [M+H]+
Name: Pentadecanoyl Ethanolamide
Name: Pentadecanoyl-EA
Name: N-(2-hydroxyethyl)pentadecanamide
Formula: C17H35NO2
Exact mass: 285.26678
SMILES: O=C(CCCCCCCCCCCCCC)NCCO
InChI: InChI=1S/C17H35NO2/c1-2-3-4-5-6-7-8-9-10-11-12-13-14-17(20)18-15-16-19/h19H,2-16H2,1H3,(H,18,20)
Instrument: maXis plus UHR-ToF-MS, Bruker Daltonics
Instrument type: LC-ESI-QTOF
Ms type: MS2
Ion mode: POSITIVE
Ionization: ESI
Fragmentation mode: CID
Collision energy: 10
Column name: BEH C18 1.7um, 2.1x100mm, Waters
Retention time: 6.414 min
Base peak: 286.2736
Precursor m/z: 286.2741
Precursor type: [M+H]+
m/z	relative intensity
62.0595	309
225.2219	1
268.2635	3
269.2472	32
286.2736	999
