Mass spectrum: Caffeic acid; LC-ESI-QTOF; MS2; CE: 10; R=; [M+H]+
Name: Caffeic acid
Name: (E)-3-(3,4-dihydroxyphenyl)prop-2-enoic acid
Formula: C9H8O4
Exact mass: 180.0423
SMILES: O=C(O)\C=C\c1cc(O)c(O)cc1
InChI: InChI=1S/C9H8O4/c10-7-3-1-6(5-8(7)11)2-4-9(12)13/h1-5,10-11H,(H,12,13)/b4-2+
Instrument: maXis plus UHR-ToF-MS, Bruker Daltonics
Instrument type: LC-ESI-QTOF
Ms type: MS2
Ion mode: POSITIVE
Ionization: ESI
Fragmentation mode: CID
Collision energy: 10
Column name: BEH C18 1.7um, 2.1x100mm, Waters
Retention time: 2.706 min
Base peak: 163.0384
Precursor m/z: 181.0495
Precursor type: [M+H]+
m/z	relative intensity
68.9976	1
95.0486	3
95.0602	1
109.0241	1
114.034	1
114.047	1
135.0436	1
139.0263	1
139.0383	2
145.0285	14
151.0399	2
161.0222	1
163.0386	999
164.042	80
165.0434	4
179.0337	51
181.0491	93
183.0525	2
