Mass spectrum: Coenzyme Q2; LC-ESI-QTOF; MS2; CE: 40; R=; [M+H]+
Name: Coenzyme Q2
Name: Ubiquinone-2
Name: 2-[(2E)-3,7-dimethylocta-2,6-dienyl]-5,6-dimethoxy-3-methylcyclohexa-2,5-diene-1,4-dione
Formula: C19H26O4
Exact mass: 318.1831
SMILES: CC1=C(C(=O)C(=C(C1=O)OC)OC)C/C=C(\C)/CCC=C(C)C
InChI: InChI=1S/C19H26O4/c1-12(2)8-7-9-13(3)10-11-15-14(4)16(20)18(22-5)19(23-6)17(15)21/h8,10H,7,9,11H2,1-6H3/b13-10+
Instrument: maXis plus UHR-ToF-MS, Bruker Daltonics
Instrument type: LC-ESI-QTOF
Ms type: MS2
Ion mode: POSITIVE
Ionization: ESI
Fragmentation mode: CID
Collision energy: 40
Column name: BEH C18 1.7um, 2.1x100mm, Waters
Retention time: 6.409 min
Base peak: 88.0747
Precursor m/z: 319.1904
Precursor type: [M+H]+
m/z	relative intensity
45.1272	23
46.0284	36
49.1955	20
51.0104	24
53.0388	24
58.1719	62
59.9842	23
60.0445	35
67.0059	47
67.0172	85
67.1688	21
69.993	26
71.0122	23
79.0536	404
81.033	32
81.0692	600
82.0732	26
83.0131	70
83.05	98
83.0849	171
83.1647	25
84.0077	33
85.0288	25
89.0836	22
89.1176	21
90.0208	23
91.0145	23
93.0289	32
93.0696	257
95.0459	54
95.0857	207
97.0651	21
97.1014	41
98.0456	65
99.0433	42
101.0969	36
103.0536	25
105.0695	203
105.9999	62
106.0172	24
106.0405	27
107.0858	177
108.0167	21
108.1025	30
108.1139	32
108.9871	26
109.0654	71
109.1018	72
109.1806	34
109.9866	38
111.0794	25
111.1175	25
113.0589	20
115.9852	20
121.0643	95
123.1163	44
123.1589	45
123.9933	20
128.1552	26
129.0922	22
130.0592	33
131.9802	53
132.0215	31
133.0076	26
134.0481	59
135.0552	27
135.08	31
136.0514	76
137.059	45
137.9834	20
138.0202	28
141.0702	93
142.0786	37
143.0849	94
144.0556	24
145.0528	20
145.0646	133
146.0713	26
146.082	27
147.0795	66
148.0525	110
150.0308	47
150.0537	24
150.0668	24
150.1003	34
151.0748	301
151.1811	21
153.0506	44
153.0671	23
154.0615	765
155.0208	53
155.0648	80
156.0732	67
157.0617	98
158.0681	77
158.0737	101
159.0325	46
159.0439	41
159.0795	96
159.1048	24
159.1172	27
160.0102	31
160.0503	232
160.085	26
161.0596	82
161.1655	45
162.0661	125
162.1487	42
163.0755	27
163.1341	28
164.0474	59
165.0511	30
165.0621	33
165.0866	54
165.1146	20
166.0429	41
166.0628	38
166.0741	37
166.1242	31
166.1937	28
167.0334	105
167.0492	20
167.0673	86
167.1057	31
168.0554	38
168.075	40
168.0884	47
169.0483	43
169.0845	250
170.0896	46
171.0438	32
171.1125	62
172.087	89
173.0337	20
173.0949	141
173.1072	32
173.9826	63
174.0665	701
174.0999	37
175.0179	25
175.0364	23
175.0738	437
175.1123	105
176.0482	75
176.0798	56
177.0545	104
177.0702	23
177.0896	151
178.0588	83
178.0993	25
178.179	47
179.0329	87
179.0701	34
179.084	49
179.1051	38
179.1153	55
180.135	27
181.0504	85
181.0849	247
181.1002	90
181.196	81
182.0037	24
182.033	42
182.0448	45
182.0567	356
183.1117	63
183.1729	20
184.1113	23
185.0615	95
185.0947	101
186.0665	74
187.0756	167
187.1087	49
188.0463	27
188.0818	145
189.0544	123
189.0901	237
190.0616	141
191.023	23
191.0366	31
191.07	355
191.1059	57
193.0611	28
193.0731	31
193.0874	71
194.0563	83
195.0686	26
195.1011	35
196.0713	21
197.0804	999
198.0661	49
198.0805	121
198.1259	23
198.1725	46
199.1119	51
199.1584	23
201.0587	57
201.1257	36
201.9789	20
202.0008	21
202.0621	143
202.0969	61
203.0695	116
203.1062	179
204.0767	83
204.1252	21
205.0499	135
205.0847	245
205.1197	27
206.0067	32
206.0575	115
206.0909	77
207.0682	52
207.0885	30
208.0729	42
209.1321	34
211.1116	119
212.1196	26
214.0947	26
215.103	63
215.9829	36
216.0752	113
217.0851	134
218.0906	105
219.0652	77
219.0995	207
219.1712	22
220.0729	170
220.1034	104
220.121	23
221.0795	490
221.1137	70
223.1451	20
225.0922	53
225.2102	30
226.0976	25
226.1331	32
227.1432	65
229.0857	94
229.1195	26
230.0926	46
231.1002	116
232.147	23
233.0472	25
233.0803	193
233.1171	22
233.1505	27
234.0802	38
234.0896	52
234.1054	20
235.0963	698
239.1079	130
240.1162	92
242.1295	22
243.1031	34
243.1363	36
244.117	20
245.1167	63
246.1198	21
248.1037	22
249.1105	83
253.9956	23
254.1299	24
255.1384	21
257.1197	31
258.114	40
258.1284	52
258.1595	44
261.1399	23
261.9907	26
263.1287	32
271.1343	86
273.1927	24
274.1253	20
