Mass spectrum: L-Cystathione; LC-ESI-QTOF; MS2; CE: 20; R=; [M+H]+
Name: L-Cystathione
Name: L-cystathionine
Name: (2S)-2-azaniumyl-4-[(2R)-2-azaniumyl-2-carboxylatoethyl]sulfanylbutanoate
Formula: C7H14N2O4S
Exact mass: 222.0674
SMILES: C(CSC[C@@H](C(=O)O)N)[C@@H](C(=O)O)N
InChI: InChI=1S/C7H14N2O4S/c8-4(6(10)11)1-2-14-3-5(9)7(12)13/h4-5H,1-3,8-9H2,(H,10,11)(H,12,13)/t4-,5-/m0/s1
Instrument: maXis plus UHR-ToF-MS, Bruker Daltonics
Instrument type: LC-ESI-QTOF
Ms type: MS2
Ion mode: POSITIVE
Ionization: ESI
Fragmentation mode: CID
Collision energy: 20
Column name: BEH C18 1.7um, 2.1x100mm, Waters
Retention time: 0.589 min
Base peak: 66.0342
Precursor m/z: 223.0747
Precursor type: [M+H]+
m/z	relative intensity
58.0627	2
59.0735	1
69.0731	5
74.0222	1
84.042	3
85.0031	1
85.0425	2
88.0209	999
90.0172	17
90.0364	13
91.0133	1
94.0299	2
101.083	1
102.0533	5
114.0084	4
115.0617	2
119.0284	1
121.0675	1
134.0269	327
135.02	3
135.0305	9
136.0226	15
137.0424	1
138.0262	1
160.0441	4
177.0699	2
206.0591	2
223.0747	33
