Mass spectrum: C14-homoserine lactone; LC-ESI-QTOF; MS2; CE: 20; R=; [M+H]+
Name: C14-homoserine lactone
Name: N-(2-oxooxolan-3-yl)tetradecanamide
Formula: C18H33NO3
Exact mass: 311.24604
SMILES: CCCCCCCCCCCCCC(=O)NC1CCOC1=O
InChI: InChI=1S/C18H33NO3/c1-2-3-4-5-6-7-8-9-10-11-12-13-17(20)19-16-14-15-22-18(16)21/h16H,2-15H2,1H3,(H,19,20)
Instrument: maXis plus UHR-ToF-MS, Bruker Daltonics
Instrument type: LC-ESI-QTOF
Ms type: MS2
Ion mode: POSITIVE
Ionization: ESI
Fragmentation mode: CID
Collision energy: 20
Column name: BEH C18 1.7um, 2.1x100mm, Waters
Retention time: 6.385 min
Base peak: 88.0751
Precursor m/z: 312.2533
Precursor type: [M+H]+
m/z	relative intensity
57.0695	359
67.0543	477
70.04	198
71.0849	874
74.0229	148
81.0694	347
82.0739	130
85.1005	378
102.0547	999
109.1008	204
121.0984	198
127.0721	124
140.0672	130
175.1457	192
203.1401	204
211.2068	353
212.2115	117
229.2421	124
260.1584	111
271.1327	136
273.1812	117
274.1867	142
294.2412	676
315.1911	111
