Mass spectrum: N2_N2-Dimethylguanosine; LC-ESI-QTOF; MS2; CE: 10; R=; [M-H]-
Name: N2_N2-Dimethylguanosine
Name: N,N-Dimethylguanosine
Name: 9-[(2R,3R,4S,5R)-3,4-dihydroxy-5-(hydroxymethyl)oxolan-2-yl]-2-(dimethylamino)-3H-purin-6-one
Formula: C12H17N5O5
Exact mass: 311.1230
SMILES: CN(C)c1[nH]c(=O)c2c(n1)n(cn2)[C@H]3[C@@H]([C@@H]([C@H](O3)CO)O)O
InChI: InChI=1S/C12H17N5O5/c1-16(2)12-14-9-6(10(21)15-12)13-4-17(9)11-8(20)7(19)5(3-18)22-11/h4-5,7-8,11,18-20H,3H2,1-2H3,(H,14,15,21)/t5-,7-,8-,11-/m1/s1
Instrument: maXis plus UHR-ToF-MS, Bruker Daltonics
Instrument type: LC-ESI-QTOF
Ms type: MS2
Ion mode: NEGATIVE
Ionization: ESI
Fragmentation mode: CID
Collision energy: 10
Column name: BEH C18 1.7um, 2.1x100mm, Waters
Retention time: 1.595 min
Base peak: 310.116
Precursor m/z: 310.1157
Precursor type: [M-H]-
m/z	relative intensity
310.1156	999
