Mass spectrum: Tricosanoyl Ethanolamide; LC-ESI-QTOF; MS2; CE: 10; R=; [M+H]+
Name: Tricosanoyl Ethanolamide
Name: Tricosanoyl-EA
Name: N-(2-hydroxyethyl)tricosanamide
Formula: C25H51NO2
Exact mass: 397.39198
SMILES: O=C(CCCCCCCCCCCCCCCCCCCCCC)NCCO
InChI: InChI=1S/C25H51NO2/c1-2-3-4-5-6-7-8-9-10-11-12-13-14-15-16-17-18-19-20-21-22-25(28)26-23-24-27/h27H,2-24H2,1H3,(H,26,28)
Instrument: maXis plus UHR-ToF-MS, Bruker Daltonics
Instrument type: LC-ESI-QTOF
Ms type: MS2
Ion mode: POSITIVE
Ionization: ESI
Fragmentation mode: CID
Collision energy: 10
Column name: BEH C18 1.7um, 2.1x100mm, Waters
Retention time: 8.751 min
Base peak: 88.0752
Precursor m/z: 398.3993
Precursor type: [M+H]+
m/z	relative intensity
62.0602	10
149.105	3
167.0618	6
173.0481	5
201.2575	4
213.0348	3
236.2935	3
251.1085	3
253.0492	3
260.187	5
272.2261	3
279.164	3
284.363	4
285.1845	3
290.1275	3
297.1163	3
306.4068	3
316.0846	4
327.9875	3
353.1792	4
358.0492	3
376.1983	3
379.3344	3
381.3713	4
396.3249	6
397.2388	3
397.2604	4
398.3992	999
400.3109	15
400.3789	3
401.2768	7
401.3074	4
