Mass spectrum: Coenzyme Q2; LC-ESI-QTOF; MS2; CE: 10; R=; [M+H]+
Name: Coenzyme Q2
Name: Ubiquinone-2
Name: 2-[(2E)-3,7-dimethylocta-2,6-dienyl]-5,6-dimethoxy-3-methylcyclohexa-2,5-diene-1,4-dione
Formula: C19H26O4
Exact mass: 318.1831
SMILES: CC1=C(C(=O)C(=C(C1=O)OC)OC)C/C=C(\C)/CCC=C(C)C
InChI: InChI=1S/C19H26O4/c1-12(2)8-7-9-13(3)10-11-15-14(4)16(20)18(22-5)19(23-6)17(15)21/h8,10H,7,9,11H2,1-6H3/b13-10+
Instrument: maXis plus UHR-ToF-MS, Bruker Daltonics
Instrument type: LC-ESI-QTOF
Ms type: MS2
Ion mode: POSITIVE
Ionization: ESI
Fragmentation mode: CID
Collision energy: 10
Column name: BEH C18 1.7um, 2.1x100mm, Waters
Retention time: 6.409 min
Base peak: 88.0747
Precursor m/z: 319.1904
Precursor type: [M+H]+
m/z	relative intensity
111.1157	3
117.0192	1
121.0124	1
123.117	1
133.0141	1
135.0564	1
135.118	1
139.0387	1
141.0629	1
143.0115	1
163.0264	1
168.0312	1
169.064	1
177.0903	1
178.9855	1
179.1756	1
180.9992	1
181.0647	1
181.0852	3
184.0495	1
185.0027	1
186.1211	1
188.1273	1
189.0185	1
191.0715	1
192.137	1
193.0853	1
194.0603	1
195.1005	2
197.0806	119
202.0301	1
205.0869	2
206.0901	2
207.101	1
208.0046	1
209.0813	5
213.15	1
216.0788	1
216.162	1
217.0848	3
219.1004	11
219.1399	1
219.1621	1
220.1036	1
220.1162	1
221.0803	2
221.1162	2
223.0977	3
227.1411	1
231.1005	6
232.106	1
233.116	3
235.0959	8
235.1318	2
237.0638	1
237.1104	5
238.0776	1
245.117	6
247.1309	1
248.1209	1
248.139	1
249.1138	1
250.0486	1
250.1189	1
251.1276	17
255.1387	4
258.1614	1
259.168	2
263.0359	1
263.128	6
265.9945	1
268.1396	1
269.1542	4
270.157	1
273.1841	2
274.1869	2
275.1987	1
277.1876	1
281.16	1
287.1644	33
288.1678	4
291.1586	1
291.1949	8
296.0695	1
301.1798	41
302.1835	8
303.1232	1
319.1902	999
321.1966	17
