Mass spectrum: Eicosapentaenoic acid; LC-ESI-QTOF; MS2; CE: 40; R=; [M+H]+
Name: Eicosapentaenoic acid
Name: (5Z,8Z,11Z,14Z,17Z)-icosa-5,8,11,14,17-pentaenoic acid
Formula: C20H30O2
Exact mass: 302.2246
SMILES: CC/C=C\C/C=C\C/C=C\C/C=C\C/C=C\CCCC(=O)O
InChI: InChI=1S/C20H30O2/c1-2-3-4-5-6-7-8-9-10-11-12-13-14-15-16-17-18-19-20(21)22/h3-4,6-7,9-10,12-13,15-16H,2,5,8,11,14,17-19H2,1H3,(H,21,22)/b4-3-,7-6-,10-9-,13-12-,16-15-
Instrument: maXis plus UHR-ToF-MS, Bruker Daltonics
Instrument type: LC-ESI-QTOF
Ms type: MS2
Ion mode: POSITIVE
Ionization: ESI
Fragmentation mode: CID
Collision energy: 40
Column name: BEH C18 1.7um, 2.1x100mm, Waters
Retention time: 6.590 min
Base peak: 88.075
Precursor m/z: 303.2319
Precursor type: [M+H]+
m/z	relative intensity
68.0574	211
69.0331	105
77.0381	83
80.0585	96
81.0692	944
83.0497	65
91.0262	60
91.0534	999
93.0698	895
94.0857	112
95.0492	110
95.0858	277
105.0703	469
106.0727	58
107.085	259
117.0563	67
117.0704	56
119.0857	293
120.0899	72
131.0854	148
145.1	103
154.0773	49
155.0865	105
159.0771	65
159.1154	151
160.1192	40
161.1316	92
162.1025	115
163.1118	40
170.1034	78
171.1173	115
174.1361	63
183.1176	135
187.1074	56
189.1352	42
195.1127	76
197.1287	40
201.1709	42
207.1374	56
213.1659	63
234.1603	51
247.168	54
