Mass spectrum: 5?-CHOLANIC ACID-3?_ 6?_7?-TRIOL N-(2-SULPHOETHYL)-AMIDE SODIUM SALT; LC-ESI-QTOF; MS2; CE: 20; R=; [M+H]+
Name: 5?-CHOLANIC ACID-3?_ 6?_7?-TRIOL N-(2-SULPHOETHYL)-AMIDE SODIUM SALT
Name: Taurohyocholate
Name: 2-[[(4R)-4-[(3R,5R,6R,7S,8S,9S,10R,13R,14S,17R)-3,6,7-trihydroxy-10,13-dimethyl-2,3,4,5,6,7,8,9,11,12,14,15,16,17-tetradecahydro-1H-cyclopenta[a]phenanthren-17-yl]pentanoyl]amino]ethanesulfonic acid
Formula: C26H45NO7S
Exact mass: 515.2917
SMILES: C[C@H](CCC(=O)NCCS(=O)(=O)O)[C@H]1CC[C@@H]2[C@@]1(CC[C@H]3[C@H]2[C@@H]([C@@H]([C@H]4[C@@]3(CC[C@H](C4)O)C)O)O)C
InChI: InChI=1S/C26H45NO7S/c1-15(4-7-21(29)27-12-13-35(32,33)34)17-5-6-18-22-19(9-11-25(17,18)2)26(3)10-8-16(28)14-20(26)23(30)24(22)31/h15-20,22-24,28,30-31H,4-14H2,1-3H3,(H,27,29)(H,32,33,34)/t15-,16-,17-,18+,19+,20+,22+,23-,24+,25-,26-/m1/s1
Instrument: maXis plus UHR-ToF-MS, Bruker Daltonics
Instrument type: LC-ESI-QTOF
Ms type: MS2
Ion mode: POSITIVE
Ionization: ESI
Fragmentation mode: CID
Collision energy: 20
Column name: BEH C18 1.7um, 2.1x100mm, Waters
Retention time: 3.710 min
Base peak: 516.2988
Precursor m/z: 516.299
Precursor type: [M+H]+
m/z	relative intensity
126.0221	15
159.1154	1
161.1296	1
208.0657	1
223.1524	1
300.1269	1
302.1438	1
319.2433	4
337.2524	37
338.2557	5
352.1599	1
355.2631	43
356.2678	5
357.2707	1
382.2026	1
450.2667	1
452.281	1
462.2669	351
463.2704	83
464.2704	18
465.27	2
479.2691	1
479.2987	1
479.3123	1
480.2775	999
481.2809	345
482.2807	71
483.2807	10
498.2881	229
499.2922	68
500.2902	10
501.2899	2
516.2994	26
518.299	1
