Mass spectrum: 1-tridecanoyl-2-hydroxy-sn-glycero-3-phosphocholine; LC-ESI-QTOF; MS2; CE: 40; R=; [M+H]+
Name: 1-tridecanoyl-2-hydroxy-sn-glycero-3-phosphocholine
Name: 1-tridecanoyl-sn-glycero-3-phosphocholine
Name: [(2R)-2-hydroxy-3-tridecanoyloxypropyl] 2-(trimethylazaniumyl)ethyl phosphate
Formula: C21H44NO7P
Exact mass: 453.2855
SMILES: [H][C@@](O)(COC(=O)CCCCCCCCCCCC)COP([O-])(=O)OCC[N+](C)(C)C
InChI: InChI=1S/C21H44NO7P/c1-5-6-7-8-9-10-11-12-13-14-15-21(24)27-18-20(23)19-29-30(25,26)28-17-16-22(2,3)4/h20,23H,5-19H2,1-4H3/t20-/m1/s1
Instrument: maXis plus UHR-ToF-MS, Bruker Daltonics
Instrument type: LC-ESI-QTOF
Ms type: MS2
Ion mode: POSITIVE
Ionization: ESI
Fragmentation mode: CID
Collision energy: 40
Column name: BEH C18 1.7um, 2.1x100mm, Waters
Retention time: 5.077 min
Base peak: 454.2923
Precursor m/z: 454.2928
Precursor type: [M+H]+
m/z	relative intensity
55.0546	1
57.0325	3
61.0774	1
69.0695	5
81.0692	13
83.085	7
85.0644	1
85.1004	17
86.0958	737
89.0591	1
95.0853	20
97.1011	6
98.9837	5
99.1159	2
103.0756	1
104.1067	999
106.111	2
109.1007	7
111.1169	1
123.1171	1
124.9996	60
163.0151	4
166.0618	16
181.0267	2
184.0726	918
185.0761	50
186.0769	3
197.1904	3
199.0348	1
215.1995	1
240.0994	1
258.11	5
271.2261	72
272.2299	12
273.2337	1
377.208	4
378.2119	1
436.2831	8
437.2836	1
454.2925	1
