Mass spectrum: 5?-CHOLANIC ACID-3?_ 12?-DIOL-7-ONE; LC-ESI-QTOF; MS2; CE: 40; R=; [M+H]+
Name: 5?-CHOLANIC ACID-3?_ 12?-DIOL-7-ONE
Name: 7-Ketodeoxycholic acid
Name: (4R)-4-[(3R,5S,8R,9S,10S,12S,13R,14S,17R)-3,12-dihydroxy-10,13-dimethyl-7-oxo-1,2,3,4,5,6,8,9,11,12,14,15,16,17-tetradecahydrocyclopenta[a]phenanthren-17-yl]pentanoic acid
Formula: C24H38O5
Exact mass: 406.2719
SMILES: C[C@H](CCC(=O)O)[C@H]1CC[C@@H]2[C@@]1([C@H](C[C@H]3[C@H]2C(=O)C[C@H]4[C@@]3(CC[C@H](C4)O)C)O)C
InChI: InChI=1S/C24H38O5/c1-13(4-7-21(28)29)16-5-6-17-22-18(12-20(27)24(16,17)3)23(2)9-8-15(25)10-14(23)11-19(22)26/h13-18,20,22,25,27H,4-12H2,1-3H3,(H,28,29)/t13-,14+,15-,16-,17+,18+,20+,22+,23+,24-/m1/s1
Instrument: maXis plus UHR-ToF-MS, Bruker Daltonics
Instrument type: LC-ESI-QTOF
Ms type: MS2
Ion mode: POSITIVE
Ionization: ESI
Fragmentation mode: CID
Collision energy: 40
Column name: BEH C18 1.7um, 2.1x100mm, Waters
Retention time: 4.389 min
Base peak: 389.2686
Precursor m/z: 407.2792
Precursor type: [M+H]+
m/z	relative intensity
55.0538	287
81.0692	437
83.0853	547
83.2937	396
93.0702	971
95.0858	656
105.0692	875
109.0255	465
109.1013	287
119.2217	383
143.085	602
148.0046	369
149.0258	328
151.0967	314
155.0829	273
162.2342	273
165.1277	273
171.104	301
177.0057	273
182.106	287
185.1308	301
187.1468	342
193.1184	301
195.1213	287
197.1327	520
198.1324	260
199.1458	670
201.162	465
209.1323	396
211.1443	246
213.1631	287
215.1509	492
225.1637	355
229.122	355
229.1587	520
235.1483	437
239.1603	273
239.1792	369
243.1368	999
244.1427	889
249.1603	355
251.1796	273
253.1551	260
253.1975	355
257.0452	260
261.1466	273
263.1794	697
267.1981	355
277.1935	287
285.1949	260
286.1887	287
287.1964	383
288.0312	369
293.2227	246
307.2423	478
317.2218	465
318.2324	451
325.222	342
352.9985	369
353.2476	752
354.2432	862
371.2478	260
