Mass spectrum: Genistein; LC-ESI-QTOF; MS2; CE: 40; R=; [M+H]+
Name: Genistein
Name: 5,7-dihydroxy-3-(4-hydroxyphenyl)chromen-4-one
Formula: C15H10O5
Exact mass: 270.0528
SMILES: Oc1ccc(cc1)C\3=C\Oc2cc(O)cc(O)c2C/3=O
InChI: InChI=1S/C15H10O5/c16-9-3-1-8(2-4-9)11-7-20-13-6-10(17)5-12(18)14(13)15(11)19/h1-7,16-18H
Instrument: maXis plus UHR-ToF-MS, Bruker Daltonics
Instrument type: LC-ESI-QTOF
Ms type: MS2
Ion mode: POSITIVE
Ionization: ESI
Fragmentation mode: CID
Collision energy: 40
Column name: BEH C18 1.7um, 2.1x100mm, Waters
Retention time: 3.962 min
Base peak: 271.0596
Precursor m/z: 271.0601
Precursor type: [M+H]+
m/z	relative intensity
46.0414	1
50.0474	1
50.0727	1
56.9972	1
63.0105	1
63.9787	1
69.0328	35
78.0459	1
81.0328	28
84	1
85.0277	2
89.038	40
90.0432	3
91.0537	999
92.9965	1
94.0015	1
94.0632	1
95.0124	21
95.0499	4
96.0199	1
97.0155	1
97.0281	16
99.0111	1
102.0529	1
103.0536	15
104.0572	2
105.0334	12
105.0431	1
106.0403	1
107.0487	49
108.0207	3
108.0523	4
109.0282	15
109.0657	1
110.033	1
111.0077	12
111.0438	2
111.0547	1
113.0143	1
115.0545	28
116.057	2
117.0051	1
117.0327	2
117.07	11
118.0406	3
119.0489	67
120.052	5
120.0694	1
121.0284	39
122.0315	1
122.0438	1
123.0071	1
125.0235	1
127.0036	1
127.0387	1
127.0536	1
128.063	4
129.0332	1
129.0409	1
129.069	6
130.0159	1
130.0745	1
131.0485	18
131.0852	5
133.0282	4
133.0613	1
135.0444	7
135.0688	1
137.0239	5
137.0466	1
137.9833	1
139.0349	1
139.055	1
140.0562	1
141.0697	39
142.0734	4
144.0562	5
144.0805	1
145.0276	19
145.0446	1
145.0641	13
146.0313	3
147.044	10
147.0807	6
149.0224	55
150.0413	1
151.0428	1
151.053	4
152.0423	1
152.0609	9
153.0174	354
153.9925	1
154.0209	17
154.9966	1
155.0226	2
155.0483	10
156.0535	2
156.0693	1
156.989	1
157.0649	8
159.0438	27
159.0804	12
160.9814	1
162.0789	1
163.0398	6
165.0175	25
166.0223	1
167.0432	1
167.087	1
168.0565	7
169.0641	135
170.0316	1
170.0445	1
170.0679	12
171.0299	1
171.0442	3
171.0776	1
172.0021	1
172.0529	2
173.0591	15
174.0661	2
175.0752	9
177.0541	1
178.0265	4
178.9864	2
179.0478	1
181.0642	5
182.0697	1
183.0298	3
183.0429	17
184.039	1
184.0489	3
185.0335	1
185.0601	9
186.0644	1
187.0384	15
187.0741	27
188.0416	1
191.0344	8
194.0331	1
196.0101	1
196.0492	1
197.059	175
198.065	18
199.0379	1
200.0461	24
201.0288	1
201.0527	15
202.0593	1
203.0325	2
204.0383	1
207.0446	1
209.0579	2
211.0376	7
211.0731	1
213.0542	18
214.0608	3
215.0697	280
216.0419	2
217.0519	1
218.0678	1
219.0658	2
221.082	1
225.0541	26
226.0014	1
226.0615	11
227.072	4
228.0405	6
229.0477	10
235.039	1
239.0704	1
241.048	4
242.0571	13
243.0642	148
247.0613	1
252.0429	1
253.0491	124
254.0525	14
269.042	3
270.0499	1
271.0592	200
273.064	1
