Mass spectrum: Glycochenodeoxycholate; LC-ESI-QTOF; MS2; CE: 20; R=; [M+H]+
Name: Glycochenodeoxycholate
Name: GLYCOCHENODEOXYCHOLIC ACID
Name: 2-[[(4R)-4-[(3R,5S,7R,8R,9S,10S,13R,14S,17R)-3,7-dihydroxy-10,13-dimethyl-2,3,4,5,6,7,8,9,11,12,14,15,16,17-tetradecahydro-1H-cyclopenta[a]phenanthren-17-yl]pentanoyl]amino]acetic acid
Formula: C26H43NO5
Exact mass: 449.3141
SMILES: C[C@H](CC/C(=N/CC(=O)O)/O)[C@H]1CC[C@@H]2[C@@]1(CC[C@H]3[C@H]2[C@@H](C[C@H]4[C@@]3(CC[C@H](C4)O)C)O)C
InChI: InChI=1S/C26H43NO5/c1-15(4-7-22(30)27-14-23(31)32)18-5-6-19-24-20(9-11-26(18,19)3)25(2)10-8-17(28)12-16(25)13-21(24)29/h15-21,24,28-29H,4-14H2,1-3H3,(H,27,30)(H,31,32)/t15-,16+,17-,18-,19+,20+,21-,24+,25+,26-/m1/s1
Instrument: maXis plus UHR-ToF-MS, Bruker Daltonics
Instrument type: LC-ESI-QTOF
Ms type: MS2
Ion mode: POSITIVE
Ionization: ESI
Fragmentation mode: CID
Collision energy: 20
Column name: BEH C18 1.7um, 2.1x100mm, Waters
Retention time: 4.724 min
Base peak: 450.3209
Precursor m/z: 450.3214
Precursor type: [M+H]+
m/z	relative intensity
76.0388	23
85.0647	1
147.116	1
149.1325	1
158.0809	8
161.1319	2
175.1479	4
189.1642	4
201.1638	5
202.1681	1
203.1809	1
213.1613	1
215.1793	6
224.1276	1
226.1448	1
229.195	1
238.1446	6
240.16	1
243.2109	1
250.1431	1
252.1602	4
257.1901	1
264.1588	2
266.1755	2
278.1752	2
280.1898	1
292.191	2
304.1906	3
305.1931	1
306.2062	1
318.2059	1
321.2577	18
322.262	3
332.2234	4
339.2682	65
340.2724	13
341.2742	2
396.2893	1
414.2999	999
415.3035	340
416.3064	45
417.3077	2
432.3108	175
433.3142	57
434.3166	6
450.3209	4
