Mass spectrum: L-tert-Leucine; LC-ESI-QTOF; MS2; CE: 40; R=; [M+H]+
Name: L-tert-Leucine
Name: (2S)-2-azaniumyl-3,3-dimethylbutanoate
Formula: C6H13NO2
Exact mass: 131.09463
SMILES: CC(C)(C)[C@@H](C(=O)O)N
InChI: InChI=1S/C6H13NO2/c1-6(2,3)4(7)5(8)9/h4H,7H2,1-3H3,(H,8,9)/t4-/m1/s1
Instrument: maXis plus UHR-ToF-MS, Bruker Daltonics
Instrument type: LC-ESI-QTOF
Ms type: MS2
Ion mode: POSITIVE
Ionization: ESI
Fragmentation mode: CID
Collision energy: 40
Column name: BEH C18 1.7um, 2.1x100mm, Waters
Retention time: 0.726 min
Base peak: 86.0958
Precursor m/z: 132.1019
Precursor type: [M+H]+
m/z	relative intensity
57.0338	1
57.0701	2
58.0282	1
59.0483	269
67.0537	28
68.0577	1
69.0692	433
70.0645	999
71.0724	646
82.0417	5
83.0451	2
85.0283	3
86.0959	127
