Mass spectrum: 3-Ketocholanic Acid; LC-ESI-QTOF; MS2; CE: 20; R=; [M+H]+
Name: 3-Ketocholanic Acid
Name: AC1LBW7M
Name: 4-(10,13-dimethyl-3-oxo-1,2,4,5,6,7,8,9,11,12,14,15,16,17-tetradecahydrocyclopenta[a]phenanthren-17-yl)pentanoic acid
Formula: C24H38O3
Exact mass: 374.2821
SMILES: CC(CCC(=O)O)C1CCC2C1(CCC3C2CCC4C3(CCC(=O)C4)C)C
InChI: InChI=1S/C24H38O3/c1-15(4-9-22(26)27)19-7-8-20-18-6-5-16-14-17(25)10-12-23(16,2)21(18)11-13-24(19,20)3/h15-16,18-21H,4-14H2,1-3H3,(H,26,27)
Instrument: maXis plus UHR-ToF-MS, Bruker Daltonics
Instrument type: LC-ESI-QTOF
Ms type: MS2
Ion mode: POSITIVE
Ionization: ESI
Fragmentation mode: CID
Collision energy: 20
Column name: BEH C18 1.7um, 2.1x100mm, Waters
Retention time: 6.211 min
Base peak: 88.075
Precursor m/z: 375.2894
Precursor type: [M+H]+
m/z	relative intensity
68.1768	4
69.0658	2
81.0698	23
83.295	2
85.0654	10
93.0707	8
94.0731	4
95.0443	3
101.0605	6
104.2348	3
105.992	3
106.0128	4
107.0851	6
108.0284	3
109.0741	3
110.1307	2
111.077	5
120.1509	4
121.1022	13
122.0247	2
128.2144	2
133.1015	8
135.1169	11
136.0185	2
138.0788	2
141.0661	2
145.1011	4
147.1168	25
148.0063	4
148.1199	5
149.0973	4
149.1324	18
150.1394	3
153.0915	5
153.1264	3
153.1384	5
155.1057	3
159.1175	6
161.1325	67
162.1378	7
163.1118	8
167.0255	5
167.1057	8
167.1397	2
168.0191	2
168.0896	5
168.1762	4
170.0458	3
170.1081	3
170.2974	3
171.1014	3
171.1971	3
173.1328	13
175.1481	53
176.1536	2
178.1115	2
178.1304	3
178.1683	3
179.1082	4
179.1436	3
179.9937	3
181.1231	23
182.1261	4
184.1413	2
185.1329	5
187.1453	10
189.1632	26
190.1685	2
191.1435	6
192.0179	3
193.0152	5
193.1224	2
195.1381	38
201.1632	19
202.0654	2
203.142	9
203.1776	6
205.1598	6
206.1616	3
207.0187	8
207.1376	26
208.1402	6
209.1548	15
210.127	6
211.1449	5
212.0628	4
213.1267	4
213.1631	5
213.1815	4
214.1917	2
215.1784	22
216.1855	3
217.12	2
217.1588	8
217.1934	11
218.0966	2
219.1741	12
220.1768	9
221.1532	19
221.9967	2
222.16	3
223.049	4
223.0727	3
223.1697	6
224.1743	5
225.1623	7
227.18	3
229.159	42
229.196	15
229.2772	2
230.1628	4
230.198	2
231.1724	11
232.1781	2
233.1615	2
235.1711	23
236.0264	2
236.0816	4
236.1391	3
236.1724	4
237.1871	13
238.1877	3
238.1994	3
239.1759	5
240.0556	3
243.1278	3
243.1735	12
243.2113	13
244.2023	4
244.216	7
246.2082	5
247.003	5
247.1697	25
248.1745	3
249.1829	16
251.1762	4
253.0644	3
257.1891	6
257.2259	9
261.1839	33
262.1864	10
262.2967	4
264.014	2
264.2026	5
267.2085	4
269.0729	2
269.2	5
269.2247	5
270.2326	2
270.3017	3
271.2017	5
275.2003	28
279.1189	2
283.2391	5
284.1461	3
285.1577	4
291.0065	2
291.2311	3
292.2979	3
293.0474	2
295.241	2
297.219	2
297.257	5
301.2117	2
302.2191	4
303.1457	2
304.1357	8
305.2548	7
306.1863	4
312.111	2
316.1588	3
321.2592	54
322.2605	23
323.2605	2
328.1926	3
338.2623	2
339.2681	295
340.273	73
343.2175	4
357.2786	999
358.2826	255
359.1726	3
360.2686	2
361.1659	3
361.274	3
372.2805	5
375.2881	16
