Mass spectrum: Luteolin; LC-ESI-QTOF; MS2; CE: 40; R=; [M+H]+
Name: Luteolin
Name: 2-(3,4-dihydroxyphenyl)-5,7-dihydroxychromen-4-one
Formula: C15H10O6
Exact mass: 286.0477
SMILES: c1cc(c(cc1c2cc(=O)c3c(cc(cc3o2)O)O)O)O
InChI: InChI=1S/C15H10O6/c16-8-4-11(19)15-12(20)6-13(21-14(15)5-8)7-1-2-9(17)10(18)3-7/h1-6,16-19H
Instrument: maXis plus UHR-ToF-MS, Bruker Daltonics
Instrument type: LC-ESI-QTOF
Ms type: MS2
Ion mode: POSITIVE
Ionization: ESI
Fragmentation mode: CID
Collision energy: 40
Column name: BEH C18 1.7um, 2.1x100mm, Waters
Retention time: 3.670 min
Base peak: 287.0545
Precursor m/z: 287.055
Precursor type: [M+H]+
m/z	relative intensity
69.033	7
77.0382	8
78.0463	1
79.0184	3
79.0534	16
81.0655	1
85.0276	1
88.0062	1
89.0382	39
90.0421	3
91.018	2
92.0368	1
93.0334	1
94.0267	1
101.0269	1
103.0545	4
105.0293	1
105.0443	1
107.0489	12
109.0292	3
111.0076	6
111.0444	3
115.0533	3
117.0337	12
118.0364	2
120.0575	1
121.0031	1
121.9854	1
123.0445	1
125.0238	2
129.0323	1
129.0564	1
129.0663	3
130.062	1
133.0152	2
135.0431	27
136.0483	1
137.0222	10
137.0322	3
139.0532	3
140.0229	1
140.0574	1
141.07	1
143.018	1
145.0653	2
148.0388	1
151.0337	1
152	1
153.0172	334
154.0208	23
154.0589	1
155.0096	1
155.0216	2
155.0507	1
157.0656	4
161.0224	42
162.0272	3
164.0139	1
165.0155	1
165.9994	1
167.007	1
167.0479	2
169.0636	2
169.9855	1
170.0338	1
171.0276	27
171.0427	14
172.0318	1
172.0527	1
174.0635	1
175.0363	1
177.014	1
179.0331	17
180.0401	1
183.029	1
183.0443	1
185.0246	1
185.0589	14
186.0637	2
187.9853	1
188.0009	1
189.0552	2
191.9922	1
192.028	1
192.0386	1
192.0666	1
195.0423	2
195.0534	1
196.049	1
199.0378	6
201.0524	3
203.0328	15
203.0691	2
204.037	1
205.0333	1
208.9823	1
209.0218	1
211.04	1
212.0474	1
213.0536	24
216.03	1
216.0445	1
217.054	1
218.0585	4
219.0655	2
223.0407	6
224.0437	1
227.031	2
227.0561	1
228.0358	1
229.0464	6
230.0547	1
231.0634	7
233.9691	1
240.0438	1
241.0488	77
244.0375	2
245.0441	6
246.0476	1
247.0696	1
250.0468	1
257.0445	3
258.0501	8
259.0561	6
263.0536	6
267.0607	1
269.0436	36
270.0475	5
277.9855	1
279.0418	1
283.0456	1
286.0451	4
287.054	999
289.0596	15
