Mass spectrum: Isoquercetin; LC-ESI-QTOF; MS2; CE: 40; R=; [M+H]+
Name: Isoquercetin
Name: Isoquercitrin
Name: 2-(3,4-dihydroxyphenyl)-5,7-dihydroxy-3-[(2S,3R,4S,5S,6R)-3,4,5-trihydroxy-6-(hydroxymethyl)oxan-2-yl]oxychromen-4-one
Formula: C21H20O12
Exact mass: 464.0955
SMILES: C1=CC(=C(C=C1C2=C(C(=O)C3=C(C=C(C=C3O2)O)O)O[C@H]4[C@@H]([C@H]([C@@H]([C@H](O4)CO)O)O)O)O)O
InChI: InChI=1S/C21H20O12/c22-6-13-15(27)17(29)18(30)21(32-13)33-20-16(28)14-11(26)4-8(23)5-12(14)31-19(20)7-1-2-9(24)10(25)3-7/h1-5,13,15,17-18,21-27,29-30H,6H2/t13-,15-,17+,18-,21+/m1/s1
Instrument: maXis plus UHR-ToF-MS, Bruker Daltonics
Instrument type: LC-ESI-QTOF
Ms type: MS2
Ion mode: POSITIVE
Ionization: ESI
Fragmentation mode: CID
Collision energy: 40
Column name: BEH C18 1.7um, 2.1x100mm, Waters
Retention time: 3.034 min
Base peak: 465.1025
Precursor m/z: 465.1028
Precursor type: [M+H]+
m/z	relative intensity
81.033	14
83.0134	1
85.0278	113
87.0434	4
91.0387	5
97.0279	21
99.0439	4
109.0286	4
127.0392	1
153.017	2
165.0175	4
190.9534	1
201.0542	2
205.0292	1
217.05	1
229.0487	9
230.0985	1
245.045	4
247.0593	1
257.0444	10
258.0516	1
273.0385	5
274.0453	2
275.054	1
285.0393	5
286.0429	1
301.036	8
302.0382	1
303.0498	999
304.0531	194
305.0562	16
306.0555	2
