Mass spectrum: alpha-Hydroxyhippuric acid; LC-ESI-QTOF; MS2; CE: 40; R=; [M+H]+
Name: alpha-Hydroxyhippuric acid
Name: 2-benzamido-2-hydroxyacetic acid
Formula: C9H9NO4
Exact mass: 195.0532
SMILES: OC(NC(=O)c1ccccc1)C(O)=O
InChI: InChI=1S/C9H9NO4/c11-7(10-8(12)9(13)14)6-4-2-1-3-5-6/h1-5,8,12H,(H,10,11)(H,13,14)
Instrument: maXis plus UHR-ToF-MS, Bruker Daltonics
Instrument type: LC-ESI-QTOF
Ms type: MS2
Ion mode: POSITIVE
Ionization: ESI
Fragmentation mode: CID
Collision energy: 40
Column name: BEH C18 1.7um, 2.1x100mm, Waters
Retention time: 3.102 min
Base peak: 196.0596
Precursor m/z: 196.0604
Precursor type: [M+H]+
m/z	relative intensity
55.0164	8
68.9974	8
71.0134	4
80.0252	28
83.0126	6
83.0493	7
92.0247	6
93.0331	483
98.0351	11
111.0438	191
112.0472	9
121.0283	999
122.0325	70
123.0312	3
139.038	3
