Mass spectrum: Xanthine; LC-ESI-QTOF; MS2; CE: 10; R=; [M+H]+
Name: Xanthine
Name: 3,7-dihydropurine-2,6-dione
Formula: C5H4N4O2
Exact mass: 152.0334
SMILES: O=C1NC2=C(NC=N2)C(=O)N1
InChI: InChI=1S/C5H4N4O2/c10-4-2-3(7-1-6-2)8-5(11)9-4/h1H,(H3,6,7,8,9,10,11)
Instrument: maXis plus UHR-ToF-MS, Bruker Daltonics
Instrument type: LC-ESI-QTOF
Ms type: MS2
Ion mode: POSITIVE
Ionization: ESI
Fragmentation mode: CID
Collision energy: 10
Column name: BEH C18 1.7um, 2.1x100mm, Waters
Retention time: 0.698 min
Base peak: 153.0403
Precursor m/z: 153.0407
Precursor type: [M+H]+
m/z	relative intensity
66.01	1
67.9894	1
82.0395	2
110.0344	25
128.0434	1
136.0137	4
143.0068	1
146.0089	1
153.0403	999
