Mass spectrum: Anthranilic acid; LC-ESI-QTOF; MS2; CE: 40; R=; [M+H]+
Name: Anthranilic acid
Name: 2-azaniumylbenzoate
Formula: C7H7NO2
Exact mass: 137.0477
SMILES: NC1=CC=CC=C1C(O)=O
InChI: InChI=1S/C7H7NO2/c8-6-4-2-1-3-5(6)7(9)10/h1-4H,8H2,(H,9,10)
Instrument: maXis plus UHR-ToF-MS, Bruker Daltonics
Instrument type: LC-ESI-QTOF
Ms type: MS2
Ion mode: POSITIVE
Ionization: ESI
Fragmentation mode: CID
Collision energy: 40
Column name: BEH C18 1.7um, 2.1x100mm, Waters
Retention time: 3.089 min
Base peak: 120.0442
Precursor m/z: 138.055
Precursor type: [M+H]+
m/z	relative intensity
59.0607	1
62.0596	1
63.0099	1
83.0477	2
84.0451	2
90.0332	9
91.0411	10
92.0489	999
93.0525	64
110.0601	13
120.0442	19
121.0472	2
