Mass spectrum: ?-Estradiol; LC-ESI-QTOF; MS2; CE: 40; R=; [M+H]+
Name: ?-Estradiol
Name: estradiol
Name: (8R,9S,13S,14S,17S)-13-methyl-6,7,8,9,11,12,14,15,16,17-decahydrocyclopenta[a]phenanthrene-3,17-diol
Formula: C18H24O2
Exact mass: 272.1776
SMILES: C[C@]12CC[C@H]3[C@H]([C@@H]1CC[C@@H]2O)CCC4=C3C=CC(=C4)O
InChI: InChI=1S/C18H24O2/c1-18-9-8-14-13-5-3-12(19)10-11(13)2-4-15(14)16(18)6-7-17(18)20/h3,5,10,14-17,19-20H,2,4,6-9H2,1H3/t14-,15-,16+,17+,18+/m1/s1
Instrument: maXis plus UHR-ToF-MS, Bruker Daltonics
Instrument type: LC-ESI-QTOF
Ms type: MS2
Ion mode: POSITIVE
Ionization: ESI
Fragmentation mode: CID
Collision energy: 40
Column name: BEH C18 1.7um, 2.1x100mm, Waters
Retention time: 4.483 min
Base peak: 255.1739
Precursor m/z: 273.1849
Precursor type: [M+H]+
m/z	relative intensity
57.0337	9
66.0465	4
71.0488	11
74.0607	6
81.0327	17
81.0692	227
83.0491	16
91.0536	126
92.0579	19
92.0826	6
93.0692	298
94.0733	15
94.0856	5
95.0483	55
95.0846	88
99.9894	7
103.0539	14
105.0449	20
105.0691	105
106.0744	9
107.0488	999
107.0852	79
108.0079	11
108.0526	52
109.1007	29
119.0608	11
119.0861	10
121.0645	32
123.0439	9
124.0193	4
131.05	8
131.0852	19
133.0643	40
134.0683	8
135.1182	21
141.0698	18
142.0742	5
144.0571	48
145.0647	83
146.1037	10
147.0793	17
148.0841	10
155.0573	4
157.0649	112
157.1019	6
158.074	16
159.0792	148
160.0872	25
161.0935	11
165.069	10
169.0763	17
171.0774	18
173.0961	21
175.0395	12
175.0768	18
178.0738	7
185.0946	23
187.1066	7
194.093	4
195.09	8
195.1166	6
197.0977	5
198.1038	16
199.11	8
201.1262	5
213.1276	32
214.1241	5
253.1529	5
