Mass spectrum: (-)-Epigallocatechin gallate; LC-ESI-QTOF; MS2; CE: 10; R=; [M+H]+
Name: (-)-Epigallocatechin gallate
Name: [(2R,3R)-5,7-dihydroxy-2-(3,4,5-trihydroxyphenyl)-3,4-dihydro-2H-chromen-3-yl] 3,4,5-trihydroxybenzoate
Name: 3-O-Galloyl-(-)-epigallocatechin
Name: Benzoic acid, 3,4,5-trihydroxy-, (2R,3R)-3,4-dihydro-5,7-dihydroxy-2-(3,4,5-trihydroxyphenyl)-2H-1-benzopyran-3-yl ester
Name: (-)-Epigallocatechin 3-gallate
Name: Epigallocatechin-3-monogallate
Name: (-)-Epigallocatechin 3-O-gallate
Name: (-)-Epigallocatechol gallate
Name: Gallic acid, 3-ester with epigallocatechol, (-)-
Name: L-Epigallocatechin gallate
Formula: C22H18O11
Exact mass: 458.08491
SMILES: C1[C@H]([C@H](OC2=CC(=CC(=C21)O)O)C3=CC(=C(C(=C3)O)O)O)OC(=O)C4=CC(=C(C(=C4)O)O)O
InChI: InChI=1S/C22H18O11/c23-10-5-12(24)11-7-18(33-22(31)9-3-15(27)20(30)16(28)4-9)21(32-17(11)6-10)8-1-13(25)19(29)14(26)2-8/h1-6,18,21,23-30H,7H2/t18-,21-/m1/s1
Instrument: maXis plus UHR-ToF-MS, Bruker Daltonics
Instrument type: LC-ESI-QTOF
Ms type: MS2
Ion mode: POSITIVE
Ionization: ESI
Fragmentation mode: CID
Collision energy: 10
Column name: BEH C18 1.7um, 2.1x100mm, Waters
Retention time: 2.748 min
Base peak: 459.092
Precursor m/z: 459.0922
Precursor type: [M+H]+
m/z	relative intensity
88.1254	1
91.1327	1
109.123	1
116.0499	1
124.9954	1
133.1232	1
135.1141	1
139.0386	131
140.0427	8
141.0447	1
151.0386	76
152.0416	6
153.0183	5
153.0418	1
154.0734	1
157.0709	2
163.0397	2
167.0789	1
176.0592	1
177.0463	1
181.0505	2
187.0966	1
190.0738	1
204.9972	1
205.0478	1
206.1278	1
208.0645	1
215.0701	1
223.0488	1
224.1273	1
230.1183	1
238.059	1
248.095	1
249.0698	1
252.9987	1
261.1528	1
271.0609	2
272.0983	1
287.0553	16
288.06	2
289.0704	740
290.0741	104
291.0164	1
291.0503	3
291.0756	11
292.0773	1
305.0655	66
306.0696	12
307.0814	15
308.0838	3
312.1279	1
332.0082	1
333.0606	31
334.064	4
354.0232	1
360.9996	1
394.0576	1
400.0602	1
421.0373	1
439.0706	1
441.0867	1
455.0686	1
457.0765	9
457.0999	1
458.0341	1
458.0822	2
459.0925	999
461.0982	39
462.0304	1
