Mass spectrum: osas#9; LC-ESI-QTOF; MS2; CE: 10; R=; [M+H]+
Name: osas#9
Formula: C23H33NO10
Exact mass: 483.2104
SMILES: CC(CCC(O)=O)O[C@@H]1OC(C)[C@@H](CC1O)OC(=O)CCC(=O)NC[C@H](O)C1=CC=C(O)C=C1
InChI: InChI=1S/C23H33NO10/c1-13(3-9-21(29)30)32-23-17(26)11-19(14(2)33-23)34-22(31)10-8-20(28)24-12-18(27)15-4-6-16(25)7-5-15/h4-7,13-14,17-19,23,25-27H,3,8-12H2,1-2H3,(H,24,28)(H,29,30)/t13?,14?,17?,18-,19+,23+/m0/s1
Instrument: maXis plus UHR-ToF-MS, Bruker Daltonics
Instrument type: LC-ESI-QTOF
Ms type: MS2
Ion mode: POSITIVE
Ionization: ESI
Fragmentation mode: CID
Collision energy: 10
Column name: BEH C18 1.7um, 2.1x100mm, Waters
Retention time: 3.105 min
Base peak: 88.0753
Precursor m/z: 484.2177
Precursor type: [M+H]+
m/z	relative intensity
105.9899	1
113.2138	1
116.1252	1
117.1363	1
126.1457	2
127.0825	1
132.077	1
134.0655	2
137.1901	2
139.2047	1
142.0494	1
143.0893	1
143.166	1
144.0812	1
151.2411	1
153.0264	1
153.9741	1
163.0981	1
164.0316	3
166.251	1
168.0806	2
168.1267	3
169.0422	1
172.0356	1
173.2173	1
175.1747	3
175.9889	1
177.091	1
177.9626	1
178.0228	2
178.1573	1
185.0434	1
185.1651	1
186.1039	1
186.1353	1
187.9774	1
188.2343	1
196.1075	1
196.1461	3
196.9883	1
198.0308	2
198.0481	1
200.018	2
200.0645	2
201.0328	2
207.2025	1
208.0287	1
211.0923	3
213.078	1
213.9876	1
214.0521	1
214.1447	1
214.9989	1
216.9634	1
217.2628	2
217.9509	2
218.0813	8
221.1346	1
222.012	1
222.1395	1
224.9906	2
225.1318	1
225.1762	1
225.2222	2
228.1359	1
229.1259	1
234.0381	1
234.1869	1
234.2262	3
235.1152	2
235.2407	1
236.0928	7
236.127	2
239.2476	1
240.022	1
241.1124	1
242.9946	1
243.1051	1
244.1865	1
245.9515	1
247.1546	1
248.0963	2
250.0529	1
250.9657	1
251.0099	3
251.057	1
251.1533	2
252.1327	3
254.1009	1
256.9776	2
258.1605	2
258.9925	3
259.993	3
260.1093	1
260.1914	1
262.0886	1
264.0875	3
264.1469	1
265.9635	1
268.0022	1
272.0909	1
272.9822	2
274.1314	1
275.1552	1
276.1402	1
280.0031	2
282.9854	1
284.083	1
287.0045	1
287.1033	1
287.1188	1
288.046	1
288.1316	2
288.1638	2
288.9555	2
289.0457	2
290.0515	1
290.1372	1
292.1079	1
295.1037	1
295.1798	1
297.179	2
298.0613	1
298.0958	1
300.0952	3
301.1068	1
301.1788	1
302.1236	3
303.2265	2
304.1941	1
306.0252	1
306.0791	2
308.0303	1
308.0532	2
308.1671	3
309.0088	1
310.2146	1
311.2509	2
311.9521	1
313.0905	1
314.1593	1
316.2072	2
317.1917	1
318.1003	1
321.0534	1
322.0462	1
322.1701	2
323.0142	1
323.1875	1
324.1466	1
324.9698	1
325.984	2
326.0394	1
327.9975	1
331.1327	1
333.0219	2
334.1597	1
336.1122	1
337.2001	2
338.1483	1
339.1335	1
344.0803	1
345.1426	1
345.9912	1
348.1437	999
349.1483	176
350.068	2
350.1212	1
350.1521	21
351.1527	3
352.1241	3
352.1491	1
355.0283	1
360.2008	1
361.0862	1
362.1952	1
364.0678	1
365.0777	2
366.1549	569
367.1588	131
368.0122	1
368.0424	1
368.1136	1
368.1594	15
369.0249	2
369.1665	3
369.2234	1
372.1305	1
376.1872	1
380.2574	1
383.0001	1
383.1921	2
384.2171	1
386.2218	1
388.0685	1
394.0407	1
398.9869	1
404.1256	1
408.1141	2
408.1585	1
422.0025	1
428.9751	1
432.0814	1
444.995	1
447.9556	1
453.1204	1
453.9623	1
453.9801	1
455.1711	1
459.178	1
461.1967	1
462.0707	1
463.0523	2
465.0338	2
466.2072	492
467.2118	154
468.0057	1
468.2154	18
469.2225	4
470.1986	2
470.9948	1
480.1968	1
484.2176	36
