Mass spectrum: Xanthine; LC-ESI-QTOF; MS2; CE: 40; R=; [M+H]+
Name: Xanthine
Name: 3,7-dihydropurine-2,6-dione
Formula: C5H4N4O2
Exact mass: 152.0334
SMILES: O=C1NC2=C(NC=N2)C(=O)N1
InChI: InChI=1S/C5H4N4O2/c10-4-2-3(7-1-6-2)8-5(11)9-4/h1H,(H3,6,7,8,9,10,11)
Instrument: maXis plus UHR-ToF-MS, Bruker Daltonics
Instrument type: LC-ESI-QTOF
Ms type: MS2
Ion mode: POSITIVE
Ionization: ESI
Fragmentation mode: CID
Collision energy: 40
Column name: BEH C18 1.7um, 2.1x100mm, Waters
Retention time: 0.698 min
Base peak: 153.0403
Precursor m/z: 153.0407
Precursor type: [M+H]+
m/z	relative intensity
53.9975	16
56.0116	26
65.0128	94
65.9973	4
68.0121	19
69.0082	34
69.9922	21
80.0245	12
81.008	999
82.0395	396
83.0237	32
83.0373	12
93.0086	74
107.0323	5
108.0197	24
110.0344	158
136.0143	7
