Mass spectrum: Decanoyl-L-Carnitine; LC-ESI-QTOF; MS2; CE: 20; R=; [M+H]+
Name: Decanoyl-L-Carnitine
Name: Decanoylcarnitine
Name: 3-decanoyloxy-4-(trimethylazaniumyl)butanoate
Formula: C17H33NO4
Exact mass: 315.2410
SMILES: CCCCCCCCCC(=O)OC(CC(=O)[O-])C[N+](C)(C)C
InChI: InChI=1S/C17H33NO4/c1-5-6-7-8-9-10-11-12-17(21)22-15(13-16(19)20)14-18(2,3)4/h15H,5-14H2,1-4H3
Instrument: maXis plus UHR-ToF-MS, Bruker Daltonics
Instrument type: LC-ESI-QTOF
Ms type: MS2
Ion mode: POSITIVE
Ionization: ESI
Fragmentation mode: CID
Collision energy: 20
Column name: BEH C18 1.7um, 2.1x100mm, Waters
Retention time: 4.393 min
Base peak: 316.2494
Precursor m/z: 316.2482
Precursor type: [M+H]+
m/z	relative intensity
71.085	6
81.0692	6
85.0283	999
95.0851	6
137.1319	1
144.1021	8
155.1428	25
173.1533	1
257.1743	118
259.1805	1
316.2479	453
318.2541	8
