Mass spectrum: Dimethylphthalate; LC-ESI-QTOF; MS2; CE: 10; R=; [M+H]+
Name: Dimethylphthalate
Name: Dimethyl phthalate
Name: dimethyl benzene-1,2-dicarboxylate
Formula: C10H10O4
Exact mass: 194.05791
SMILES: O=C(OC)c1ccccc1C(=O)OC
InChI: InChI=1S/C10H10O4/c1-13-9(11)7-5-3-4-6-8(7)10(12)14-2/h3-6H,1-2H3
Instrument: maXis plus UHR-ToF-MS, Bruker Daltonics
Instrument type: LC-ESI-QTOF
Ms type: MS2
Ion mode: POSITIVE
Ionization: ESI
Fragmentation mode: CID
Collision energy: 10
Column name: BEH C18 1.7um, 2.1x100mm, Waters
Retention time: 4.112 min
Base peak: 163.0402
Precursor m/z: 195.0652
Precursor type: [M+H]+
m/z	relative intensity
77.0381	1
133.029	1
163.0395	999
164.0419	139
195.0648	12
