Mass spectrum: 2`-O-Methylguanosine; LC-ESI-QTOF; MS2; CE: 40; R=; [M+H]+
Name: 2`-O-Methylguanosine
Name: 2-amino-9-[(2R,3R,4R,5R)-4-hydroxy-5-(hydroxymethyl)-3-methoxyoxolan-2-yl]-3H-purin-6-one
Formula: C11H15N5O5
Exact mass: 297.1073
SMILES: CO[C@@H]1[C@@H]([C@H](O[C@H]1n2cnc3c2nc([nH]c3=O)N)CO)O
InChI: InChI=1S/C11H15N5O5/c1-20-7-6(18)4(2-17)21-10(7)16-3-13-5-8(16)14-11(12)15-9(5)19/h3-4,6-7,10,17-18H,2H2,1H3,(H3,12,14,15,19)/t4-,6-,7-,10-/m1/s1
Instrument: maXis plus UHR-ToF-MS, Bruker Daltonics
Instrument type: LC-ESI-QTOF
Ms type: MS2
Ion mode: POSITIVE
Ionization: ESI
Fragmentation mode: CID
Collision energy: 40
Column name: BEH C18 1.7um, 2.1x100mm, Waters
Retention time: 0.928 min
Base peak: 152.0562
Precursor m/z: 298.1146
Precursor type: [M+H]+
m/z	relative intensity
54.0552	3
55.0166	11
55.0286	5
57.0324	20
59.0481	16
61.0279	19
69.0328	166
71.0123	8
71.0488	11
73.0273	4
73.0635	14
74.015	2
74.1091	6
75.0435	26
80.0239	6
82.0414	7
85.0271	7
87.0439	15
89.1195	2
92.057	2
93.0643	3
97.0282	7
99.0426	8
101.0586	8
104.094	2
107.0337	4
109.0507	13
110.0341	65
110.0463	4
111.0195	2
111.111	3
112.0755	2
112.1251	2
113.0206	4
115.0389	5
119.9992	2
128.0439	11
128.0502	9
132.0854	8
135.0294	69
136.0297	2
136.1293	5
137.0841	5
139.0529	2
147.9803	4
149.1005	2
152.056	999
153.0396	207
153.0581	72
154.0426	10
154.0627	2
181.0729	2
