Mass spectrum: Pentadecanoic acid; LC-ESI-QTOF; MS2; CE: 40; R=; [M+H]+
Name: Pentadecanoic acid
Formula: C15H30O2
Exact mass: 242.2246
SMILES: CCCCCCCCCCCCCCC(=O)O
InChI: InChI=1S/C15H30O2/c1-2-3-4-5-6-7-8-9-10-11-12-13-14-15(16)17/h2-14H2,1H3,(H,16,17)
Instrument: maXis plus UHR-ToF-MS, Bruker Daltonics
Instrument type: LC-ESI-QTOF
Ms type: MS2
Ion mode: POSITIVE
Ionization: ESI
Fragmentation mode: CID
Collision energy: 40
Column name: BEH C18 1.7um, 2.1x100mm, Waters
Retention time: 7.036 min
Base peak: 88.075
Precursor m/z: 243.2319
Precursor type: [M+H]+
m/z	relative intensity
57.0696	913
60.0444	290
67.0537	375
69.0705	999
75.0436	440
88.0757	225
94.0525	193
97.1003	290
170.0928	290
