Mass spectrum: N-Oleyl-Isoleucine; LC-ESI-QTOF; MS2; CE: 10; R=; [M+H]+
Name: N-Oleyl-Isoleucine
Name: N-oleoyl isoleucine
Name: (2S,3S)-3-methyl-2-[[(Z)-octadec-9-enoyl]amino]pentanoic acid
Formula: C24H45NO3
Exact mass: 395.3399
SMILES: CCCCCCCC/C=C\CCCCCCCC(=O)N[C@@H]([C@@H](C)CC)C(=O)O
InChI: InChI=1S/C24H45NO3/c1-4-6-7-8-9-10-11-12-13-14-15-16-17-18-19-20-22(26)25-23(24(27)28)21(3)5-2/h12-13,21,23H,4-11,14-20H2,1-3H3,(H,25,26)(H,27,28)/b13-12-/t21-,23-/m0/s1
Instrument: maXis plus UHR-ToF-MS, Bruker Daltonics
Instrument type: LC-ESI-QTOF
Ms type: MS2
Ion mode: POSITIVE
Ionization: ESI
Fragmentation mode: CID
Collision energy: 10
Column name: BEH C18 1.7um, 2.1x100mm, Waters
Retention time: 7.239 min
Base peak: 396.347
Precursor m/z: 396.3472
Precursor type: [M+H]+
m/z	relative intensity
86.0958	62
132.1022	31
350.3417	35
351.3464	5
378.3371	37
379.3395	7
396.3472	999
398.3534	37
