Mass spectrum: Trans-Cinnamic acid; LC-ESI-QTOF; MS2; CE: 40; R=; [M+H]+
Name: Trans-Cinnamic acid
Name: CINNAMIC ACID
Name: (E)-3-phenylprop-2-enoic acid
Formula: C9H8O2
Exact mass: 148.0524
SMILES: O=C(O)\C=C\c1ccccc1
InChI: InChI=1S/C9H8O2/c10-9(11)7-6-8-4-2-1-3-5-8/h1-7H,(H,10,11)/b7-6+
Instrument: maXis plus UHR-ToF-MS, Bruker Daltonics
Instrument type: LC-ESI-QTOF
Ms type: MS2
Ion mode: POSITIVE
Ionization: ESI
Fragmentation mode: CID
Collision energy: 40
Column name: BEH C18 1.7um, 2.1x100mm, Waters
Retention time: 3.950 min
Base peak: 131.0492
Precursor m/z: 149.0597
Precursor type: [M+H]+
m/z	relative intensity
46.0527	1
65.0022	1
65.0381	4
73.0074	1
74.0145	3
76.0301	4
79.0534	107
80.025	1
81.0327	18
91.0543	1
95.0486	999
102.046	85
103.0538	813
104.0574	64
105.0445	377
118.064	2
121.0652	1
129.0436	3
131.0489	4
