Mass spectrum: Taurolithocholate; LC-ESI-QTOF; MS2; CE: 40; R=; [M+H]+
Name: Taurolithocholate
Name: 2-[[(4R)-4-[(3R,5R,8R,9S,10S,13R,14S,17R)-3-hydroxy-10,13-dimethyl-2,3,4,5,6,7,8,9,11,12,14,15,16,17-tetradecahydro-1H-cyclopenta[a]phenanthren-17-yl]pentanoyl]amino]ethanesulfonic acid
Formula: C26H45NO5S
Exact mass: 483.3018
SMILES: C[C@H](CC/C(=N/CCS(=O)(=O)O)/O)[C@H]1CC[C@@H]2[C@@]1(CC[C@H]3[C@H]2CC[C@H]4[C@@]3(CC[C@H](C4)O)C)C
InChI: InChI=1S/C26H45NO5S/c1-17(4-9-24(29)27-14-15-33(30,31)32)21-7-8-22-20-6-5-18-16-19(28)10-12-25(18,2)23(20)11-13-26(21,22)3/h17-23,28H,4-16H2,1-3H3,(H,27,29)(H,30,31,32)/t17-,18-,19-,20+,21-,22+,23+,25+,26-/m1/s1
Instrument: maXis plus UHR-ToF-MS, Bruker Daltonics
Instrument type: LC-ESI-QTOF
Ms type: MS2
Ion mode: POSITIVE
Ionization: ESI
Fragmentation mode: CID
Collision energy: 40
Column name: BEH C18 1.7um, 2.1x100mm, Waters
Retention time: 4.902 min
Base peak: 88.0751
Precursor m/z: 484.3091
Precursor type: [M+H]+
m/z	relative intensity
55.0987	9
60.0446	11
67.0536	147
69.0694	65
70.0781	11
71.048	13
76.2226	6
78.3488	9
79.054	64
79.1695	8
81.0694	432
82.0447	12
82.0507	17
82.0738	33
82.2324	7
83.0483	7
83.2399	6
83.2766	13
84.0187	6
84.081	10
85.0646	300
89.0588	7
91.0551	20
93.0691	80
93.1851	12
94.0428	7
95.0853	286
97.0642	11
97.1008	6
98.2632	6
99.0782	10
101.0588	8
103.0003	7
103.0909	8
103.3038	8
103.9855	5
104.1317	5
104.1807	7
105.0708	25
105.2243	15
107.0854	146
108.0111	44
108.0896	15
109.0287	7
109.1007	117
111.0172	9
111.0786	16
111.1294	7
111.3139	15
112.031	9
112.2482	7
113.095	6
116.0146	9
116.1499	13
117.0688	14
117.2655	7
118.2527	11
118.2903	9
119.0215	5
119.086	9
119.2644	9
119.3405	15
121.0012	19
121.1002	97
121.1995	6
122.1276	10
123.0814	33
123.1164	21
123.2906	9
124.0152	7
124.1191	12
124.149	6
124.3429	10
126.0218	655
127.0249	20
127.9852	12
128.0183	23
128.2798	12
129.0075	12
130.9856	6
131.0843	10
131.1508	7
132.0328	6
133.1001	24
135.0439	6
135.0753	7
135.1171	77
136.1196	19
136.2469	6
137.0293	6
137.1337	6
137.2175	5
137.9983	6
139.1091	7
139.273	6
142.1565	5
142.2559	6
143.0117	9
143.3174	7
144.1988	5
145.0039	13
145.1004	40
146.0627	5
147.1174	67
148.1198	24
148.1478	7
148.2079	7
148.3222	6
149.0549	10
149.0955	14
149.1316	172
149.9935	9
150.1361	16
151.1103	62
151.1486	26
151.227	5
151.2855	9
152.1145	10
152.1768	6
153.1142	15
153.1383	5
153.1608	8
153.1922	9
153.3164	6
154.1842	10
155.3142	10
156.117	7
157.1013	30
158.109	7
158.2011	5
158.9781	7
159.1161	151
160.0927	15
160.1208	7
160.1322	7
160.2214	21
161.1062	8
161.1324	128
161.1748	7
161.3075	9
161.9835	7
162.1357	16
163.0881	6
163.1113	56
163.1474	125
163.1736	7
163.239	9
164.0105	6
164.0287	8
164.0365	14
164.1532	17
165.1297	40
165.2631	5
168.9727	15
169.1003	6
170.0144	8
171.1149	20
171.186	6
171.2883	8
173.0755	9
173.1041	5
173.133	101
174.0842	5
174.1377	7
174.2414	5
174.2987	5
175.0792	10
175.1115	12
175.1478	145
175.1828	11
176.0154	6
176.1511	15
176.3291	6
177.1271	194
177.1637	147
178.0968	5
178.1298	39
178.1656	14
179.1434	18
179.1692	5
180.032	28
180.1451	7
180.2121	8
180.3278	7
180.9945	5
181.0662	8
182.1887	5
183.0153	7
183.1142	5
183.9876	15
185.0562	7
185.1339	54
185.3151	9
186.0155	16
186.1357	8
187.1476	162
187.3107	9
188.1509	12
188.2265	13
188.2443	13
189.1292	14
189.1638	201
190.1168	6
190.1658	44
191.1125	8
191.1426	123
192.1467	10
192.1838	9
193.0512	7
193.1456	5
194.0394	6
196.1798	6
197.0781	6
197.1651	10
199.0306	10
199.0894	5
199.1484	55
199.1707	8
200.1218	6
200.1488	10
201.163	127
202.1375	9
202.1648	15
203.0804	6
203.1413	31
203.179	119
203.2831	7
203.3377	6
203.9513	6
204.1863	17
205.0974	7
205.1568	76
205.1995	17
206.0461	11
206.1614	15
206.2619	7
207.1536	6
207.1746	12
208.0632	226
208.1787	11
209.0645	17
211.0717	5
211.0787	8
211.9882	5
212.1482	5
212.2128	8
213.1635	279
213.9433	5
214.1676	39
215.1798	164
215.2015	15
215.9743	8
216.1842	34
216.9979	15
217.073	7
217.1209	7
217.1576	49
217.1939	102
217.2165	6
218.2001	19
219.1757	19
220.1577	11
220.1822	16
221.2687	5
222.0791	92
222.2268	6
222.237	6
223.0825	23
224.0719	9
225.1678	12
226.1411	6
226.1898	9
226.9542	15
227.179	178
228.0431	10
228.1836	58
229.1956	128
229.2145	8
230.012	6
230.1961	23
231.1736	120
231.2098	53
232.1838	8
232.2163	14
233.1882	31
234.0118	8
234.0563	9
234.0794	40
235.1283	8
236.0685	10
236.096	37
237.098	12
238.0168	5
238.0901	20
239.1813	12
239.3376	7
239.9793	9
240.157	11
241.1948	160
242.0824	6
242.1365	5
242.1907	12
242.2011	27
243.0668	7
243.1513	7
243.2095	52
244.2109	9
245.191	95
245.2272	33
246.0771	5
246.1346	6
246.1955	7
246.2317	5
247.2068	39
248.0935	20
249.0968	12
249.1813	11
250.0883	6
250.1076	14
251.1151	7
253.1949	37
253.9556	5
254.0042	9
254.1976	22
254.2257	5
255.2087	32
257.2121	6
257.2213	8
257.2715	7
258.0061	7
258.2278	7
259.204	92
260.0014	11
260.0967	19
260.1927	5
260.2103	37
261.0418	11
261.0945	6
262.1098	35
262.9934	5
263.9488	8
264.0812	14
264.1073	6
264.1192	11
265.1313	11
267.2105	43
267.2395	9
268.2153	7
268.3228	11
269.2241	19
272.185	7
272.2529	8
274.1132	22
275.1093	6
276.1055	5
276.1241	76
277.1341	6
278.1408	11
281.1611	5
281.222	13
283.2377	13
283.2692	5
283.31	6
283.3387	5
284.1336	9
285.2207	24
285.3246	5
287.0784	8
287.2655	5
288.1009	8
288.1271	34
288.2272	10
290.1081	7
290.1414	89
290.2368	7
291.1449	16
294.24	9
295.2314	9
296.2435	5
297.2554	25
297.9704	13
298.1497	9
298.2023	6
298.2686	10
299.2418	6
299.273	70
300.1282	6
300.2458	7
301.1108	5
301.1393	7
301.2722	5
302.1425	69
302.2487	6
303.146	11
303.9899	8
304.1588	36
304.2799	7
305.0414	5
305.1326	9
305.1568	14
306.1108	8
308.252	9
309.2554	5
313.2527	17
313.2864	9
314.1279	6
314.172	6
314.2907	11
316.1568	49
316.1802	7
318.1596	8
318.1747	32
318.2182	6
319.171	8
319.1846	12
320.1833	6
323.2735	999
324.277	278
324.9872	11
325.0566	6
325.0843	15
325.2604	8
325.2831	28
326.0929	6
327.1327	5
327.1616	8
329.3086	6
330.1757	38
331.0216	5
331.1745	11
331.1896	8
332.1334	13
332.1621	9
332.1894	7
333.1109	5
333.194	5
335.2762	5
341.2831	665
342.2871	232
343.2895	24
344.189	27
345.1885	6
356.1916	35
358.2045	16
359.1982	6
370.2049	35
371.2025	11
372.2081	7
372.2216	14
382.2136	9
384.2169	23
385.2217	17
385.2548	5
386.2385	6
390.2578	12
396.2187	10
410.2366	7
414.1854	7
417.03	5
433.9971	5
448.2815	7
449.2843	6
450.1661	12
466.2981	209
466.3399	10
467.2996	65
468.1007	7
468.2941	21
468.3063	18
