Mass spectrum: 2-Hydroxyphenanzine; LC-ESI-QTOF; MS2; CE: 40; R=; [M-H]-
Name: 2-Hydroxyphenanzine
Formula: C12H8N2O
Exact mass: 196.0637
SMILES: c1ccc2c(c1)nc3ccc(cc3n2)O
InChI: InChI=1S/C12H8N2O/c15-8-5-6-11-12(7-8)14-10-4-2-1-3-9(10)13-11/h1-7,15H
Instrument: maXis plus UHR-ToF-MS, Bruker Daltonics
Instrument type: LC-ESI-QTOF
Ms type: MS2
Ion mode: NEGATIVE
Ionization: ESI
Fragmentation mode: CID
Collision energy: 40
Column name: BEH C18 1.7um, 2.1x100mm, Waters
Retention time: 3.679 min
Base peak: 195.057
Precursor m/z: 195.0564
Precursor type: [M-H]-
m/z	relative intensity
63.0116	2
65.014	2
91.0302	4
165.0448	4
167.0625	999
195.0574	155
