Mass spectrum: 3-oxo-C4-homoserine lactone; LC-ESI-QTOF; MS2; CE: 10; R=; [M+H]+
Name: 3-oxo-C4-homoserine lactone
Name: Butanamide, 3-oxo-N-(tetrahydro-2-oxo-3-furanyl)-
Name: 3-oxo-N-(2-oxooxolan-3-yl)butanamide
Formula: C8H11NO4
Exact mass: 185.06881
SMILES: CC(=O)CC(=O)NC1CCOC1=O
InChI: InChI=1S/C8H11NO4/c1-5(10)4-7(11)9-6-2-3-13-8(6)12/h6H,2-4H2,1H3,(H,9,11)
Instrument: maXis plus UHR-ToF-MS, Bruker Daltonics
Instrument type: LC-ESI-QTOF
Ms type: MS2
Ion mode: POSITIVE
Ionization: ESI
Fragmentation mode: CID
Collision energy: 10
Column name: BEH C18 1.7um, 2.1x100mm, Waters
Retention time: 0.967 min
Base peak: 186.0757
Precursor m/z: 186.0761
Precursor type: [M+H]+
m/z	relative intensity
53.9977	3
74.0237	34
84.0439	10
85.0282	115
97.0729	2
98.0597	8
100.0474	3
102.0546	999
109.0402	4
128.0708	22
136.0758	5
139.9859	4
140.0697	17
141.0649	3
141.0733	4
143.0342	4
144.9887	3
147.0328	3
150.0194	12
150.0665	3
158.081	199
168.0665	23
169.0701	4
179.0197	3
180.0617	4
186.0761	686
