Mass spectrum: Adenosine; LC-ESI-QTOF; MS2; CE: 10; R=; [M+H]+
Name: Adenosine
Name: (2R,3R,4S,5R)-2-(6-aminopurin-9-yl)-5-(hydroxymethyl)oxolane-3,4-diol
Formula: C10H13N5O4
Exact mass: 267.0968
SMILES: NC1=C2N=CN([C@@H]3O[C@H](CO)[C@@H](O)[C@H]3O)C2=NC=N1
InChI: InChI=1S/C10H13N5O4/c11-8-5-9(13-2-12-8)15(3-14-5)10-7(18)6(17)4(1-16)19-10/h2-4,6-7,10,16-18H,1H2,(H2,11,12,13)/t4-,6-,7-,10-/m1/s1
Instrument: maXis plus UHR-ToF-MS, Bruker Daltonics
Instrument type: LC-ESI-QTOF
Ms type: MS2
Ion mode: POSITIVE
Ionization: ESI
Fragmentation mode: CID
Collision energy: 10
Column name: BEH C18 1.7um, 2.1x100mm, Waters
Retention time: 0.724 min
Base peak: 268.1036
Precursor m/z: 268.104
Precursor type: [M+H]+
m/z	relative intensity
136.0616	138
137.0645	6
268.1039	999
270.109	10
