Mass spectrum: C12-homoserine lactone; LC-ESI-QTOF; MS2; CE: 10; R=; [M+H]+
Name: C12-homoserine lactone
Name: N-Dodecanoyl-DL-homoserine lactone
Name: N-(2-oxooxolan-3-yl)dodecanamide
Formula: C16H29NO3
Exact mass: 283.21474
SMILES: CCCCCCCCCCCC(=O)NC1CCOC1=O
InChI: InChI=1S/C16H29NO3/c1-2-3-4-5-6-7-8-9-10-11-15(18)17-14-12-13-20-16(14)19/h14H,2-13H2,1H3,(H,17,18)
Instrument: maXis plus UHR-ToF-MS, Bruker Daltonics
Instrument type: LC-ESI-QTOF
Ms type: MS2
Ion mode: POSITIVE
Ionization: ESI
Fragmentation mode: CID
Collision energy: 10
Column name: BEH C18 1.7um, 2.1x100mm, Waters
Retention time: 5.799 min
Base peak: 284.2218
Precursor m/z: 284.222
Precursor type: [M+H]+
m/z	relative intensity
67.0537	2
71.0848	13
81.0691	6
83.0851	10
85.1005	9
95.0852	20
97.1009	2
99.1162	1
102.0547	349
109.1014	13
110.1049	1
123.1171	2
165.163	2
183.1741	189
256.227	37
266.2113	55
267.2152	6
284.2222	999
286.2275	14
