Mass spectrum: 3-oxo-C14 homoserine lactone; LC-ESI-QTOF; MS2; CE: 10; R=; [M+H]+
Name: 3-oxo-C14 homoserine lactone
Name: N-(3-Oxotetradecanoyl)-DL-homoserine lactone
Name: 3-oxo-N-(2-oxooxolan-3-yl)tetradecanamide
Formula: C18H31NO4
Exact mass: 325.22531
SMILES: CCCCCCCCCCCC(=O)CC(=O)NC1CCOC1=O
InChI: InChI=1S/C18H31NO4/c1-2-3-4-5-6-7-8-9-10-11-15(20)14-17(21)19-16-12-13-23-18(16)22/h16H,2-14H2,1H3,(H,19,21)
Instrument: maXis plus UHR-ToF-MS, Bruker Daltonics
Instrument type: LC-ESI-QTOF
Ms type: MS2
Ion mode: POSITIVE
Ionization: ESI
Fragmentation mode: CID
Collision energy: 10
Column name: BEH C18 1.7um, 2.1x100mm, Waters
Retention time: 5.928 min
Base peak: 326.2322
Precursor m/z: 326.2326
Precursor type: [M+H]+
m/z	relative intensity
74.023	2
74.0593	9
84.0438	1
98.0598	5
102.0548	165
183.1735	2
225.1845	155
226.188	17
268.2272	13
269.2307	1
280.2262	5
281.2287	1
284.2218	10
285.2244	2
298.2372	38
300.2429	1
308.2229	6
326.2322	999
328.2384	19
