Mass spectrum: L-Histidine; LC-ESI-QTOF; MS2; CE: 40; R=; [M-H]-
Name: L-Histidine
Name: (2S)-2-azaniumyl-3-(1H-imidazol-5-yl)propanoate
Formula: C6H9N3O2
Exact mass: 155.06948
SMILES: c1c([nH]cn1)C[C@@H](C(=O)O)N
InChI: InChI=1S/C6H9N3O2/c7-5(6(10)11)1-4-2-8-3-9-4/h2-3,5H,1,7H2,(H,8,9)(H,10,11)/t5-/m0/s1
Instrument: maXis plus UHR-ToF-MS, Bruker Daltonics
Instrument type: LC-ESI-QTOF
Ms type: MS2
Ion mode: NEGATIVE
Ionization: ESI
Fragmentation mode: CID
Collision energy: 40
Column name: BEH C18 1.7um, 2.1x100mm, Waters
Retention time: 0.574 min
Base peak: 154.0626
Precursor m/z: 154.0622
Precursor type: [M-H]-
m/z	relative intensity
66.0356	999
81.0462	578
93.046	599
