Mass spectrum: ascr#17; LC-ESI-QTOF; MS2; CE: 20; R=; [M+H]+
Name: ascr#17
Name: (E)-10-(3,5-dihydroxy-6-methyloxan-2-yl)oxyundec-2-enoic acid
Formula: C17H30O6
Exact mass: 330.2042
SMILES: CC(CCCCCC\C=C\C(O)=O)OC1OC(C)C(O)CC1O
InChI: InChI=1S/C17H30O6/c1-12(9-7-5-3-4-6-8-10-16(20)21)22-17-15(19)11-14(18)13(2)23-17/h8,10,12-15,17-19H,3-7,9,11H2,1-2H3,(H,20,21)/b10-8+
Instrument: maXis plus UHR-ToF-MS, Bruker Daltonics
Instrument type: LC-ESI-QTOF
Ms type: MS2
Ion mode: POSITIVE
Ionization: ESI
Fragmentation mode: CID
Collision energy: 20
Column name: BEH C18 1.7um, 2.1x100mm, Waters
Retention time: 3.971 min
Base peak: 261.1325
Precursor m/z: 331.2115
Precursor type: [M+H]+
m/z	relative intensity
53.1903	1
57.0333	2
57.0695	1
64.9873	1
67.9895	1
69.0329	1
69.0693	34
73.0284	2
73.0646	7
79.0541	5
81.0694	999
85.064	15
91.1684	1
94.0739	1
95.0852	260
96.0298	1
96.0891	14
97.0645	2
97.1016	4
98.0076	1
98.0209	2
98.0735	1
101.0595	2
105.0691	12
105.2205	1
106.0492	1
106.0731	4
107.0849	7
108.0645	2
109.0645	6
109.1007	7
111.0803	2
113.0592	4
119.0856	3
122.1042	2
123.0796	2
123.1164	37
124.1204	4
127.0746	2
128.0951	2
132.0163	1
133.0131	1
133.1656	1
137.1313	259
138.0402	1
138.1355	28
139.1369	2
141.0875	1
143.0306	1
147.1164	85
148.0622	1
148.1193	5
152.0145	1
155.1433	4
165.1267	465
166.1299	57
167.1307	1
168.078	1
169.1534	1
183.1369	427
184.1403	47
201.1475	83
295.1923	1
313.1979	1
314.2038	1
