Mass spectrum: Biotin; LC-ESI-QTOF; MS2; CE: 10; R=; [M-H]-
Name: Biotin
Name: 5-[(3aS,4S,6aR)-2-oxo-1,3,3a,4,6,6a-hexahydrothieno[3,4-d]imidazol-4-yl]pentanoic acid
Formula: C10H16N2O3S
Exact mass: 244.0882
SMILES: O=C1N[C@@H]2[C@@H](SC[C@@H]2N1)CCCCC(=O)O
InChI: InChI=1S/C10H16N2O3S/c13-8(14)4-2-1-3-7-9-6(5-16-7)11-10(15)12-9/h6-7,9H,1-5H2,(H,13,14)(H2,11,12,15)/t6-,7-,9-/m0/s1
Instrument: maXis plus UHR-ToF-MS, Bruker Daltonics
Instrument type: LC-ESI-QTOF
Ms type: MS2
Ion mode: NEGATIVE
Ionization: ESI
Fragmentation mode: CID
Collision energy: 10
Column name: BEH C18 1.7um, 2.1x100mm, Waters
Retention time: 2.796 min
Base peak: 243.0814
Precursor m/z: 243.0809
Precursor type: [M-H]-
m/z	relative intensity
156.0899	1
166.0902	2
199.0919	4
209.0941	3
210.096	1
243.0815	999
