Mass spectrum: 1-heptadecanoyl-2-hydroxy-sn-glycero-3-phosphocholine; LC-ESI-QTOF; MS2; CE: 40; R=; [M+H]+
Name: 1-heptadecanoyl-2-hydroxy-sn-glycero-3-phosphocholine
Name: 1-heptadecanoyl-sn-glycero-3-phosphocholine
Name: [(2R)-3-heptadecanoyloxy-2-hydroxypropyl] 2-(trimethylazaniumyl)ethyl phosphate
Formula: C25H52NO7P
Exact mass: 509.3481
SMILES: [H][C@@](O)(COC(=O)CCCCCCCCCCCCCCCC)COP([O-])(=O)OCC[N+](C)(C)C
InChI: InChI=1S/C25H52NO7P/c1-5-6-7-8-9-10-11-12-13-14-15-16-17-18-19-25(28)31-22-24(27)23-33-34(29,30)32-21-20-26(2,3)4/h24,27H,5-23H2,1-4H3/t24-/m1/s1
Instrument: maXis plus UHR-ToF-MS, Bruker Daltonics
Instrument type: LC-ESI-QTOF
Ms type: MS2
Ion mode: POSITIVE
Ionization: ESI
Fragmentation mode: CID
Collision energy: 40
Column name: BEH C18 1.7um, 2.1x100mm, Waters
Retention time: 6.291 min
Base peak: 510.3549
Precursor m/z: 510.3554
Precursor type: [M+H]+
m/z	relative intensity
69.0692	2
71.0848	16
72.0814	1
81.0692	4
83.0852	4
85.1008	7
86.0959	311
95.0852	5
97.1007	4
99.1169	1
104.1067	660
106.1119	3
109.1006	2
111.1152	1
124.999	16
128.3286	1
143.0117	1
163.0143	4
166.0623	11
181.0262	3
184.0726	999
185.0765	47
186.0764	5
199.0368	1
240.0986	1
258.1105	12
259.1152	1
271.2645	1
297.2751	1
327.2899	54
328.2933	8
433.2714	9
434.2778	1
492.3451	26
493.3468	6
510.3564	4
