Mass spectrum: Acetylsalicylic acid; LC-ESI-QTOF; MS2; CE: 10; R=; [M-H]-
Name: Acetylsalicylic acid
Name: aspirin
Name: 2-acetyloxybenzoic acid
Formula: C9H8O4
Exact mass: 180.0423
SMILES: CC(=O)Oc1ccccc1C(=O)O
InChI: InChI=1S/C9H8O4/c1-6(10)13-8-5-3-2-4-7(8)9(11)12/h2-5H,1H3,(H,11,12)
Instrument: maXis plus UHR-ToF-MS, Bruker Daltonics
Instrument type: LC-ESI-QTOF
Ms type: MS2
Ion mode: NEGATIVE
Ionization: ESI
Fragmentation mode: CID
Collision energy: 10
Column name: BEH C18 1.7um, 2.1x100mm, Waters
Retention time: 8.412 min
Base peak: 68.9893
Precursor m/z: 179.035
Precursor type: [M-H]-
m/z	relative intensity
110.0243	999
113.0349	874
