Mass spectrum: Docosahexaenoic acid; LC-ESI-QTOF; MS2; CE: 20; R=; [M+H]+
Name: Docosahexaenoic acid
Name: Docosahexaenoic acid (22:6(n-3))
Name: 4Z,7Z,10Z,13Z,16Z,19Z-Docosahexaenoic acid
Name: DHA
Formula: C22H32O2
Exact mass: 328.24023
SMILES: CC/C=C\C/C=C\C/C=C\C/C=C\C/C=C\C/C=C\CCC(=O)O
InChI: InChI=1S/C22H32O2/c1-2-3-4-5-6-7-8-9-10-11-12-13-14-15-16-17-18-19-20-21-22(23)24/h3-4,6-7,9-10,12-13,15-16,18-19H,2,5,8,11,14,17,20-21H2,1H3,(H,23,24)/b4-3-,7-6-,10-9-,13-12-,16-15-,19-18-
Instrument: maXis plus UHR-ToF-MS, Bruker Daltonics
Instrument type: LC-ESI-QTOF
Ms type: MS2
Ion mode: POSITIVE
Ionization: ESI
Fragmentation mode: CID
Collision energy: 20
Column name: BEH C18 1.7um, 2.1x100mm, Waters
Retention time: 6.780 min
Base peak: 88.075
Precursor m/z: 329.2475
Precursor type: [M+H]+
m/z	relative intensity
67.1694	22
69.9919	8
75.0313	8
82.074	11
83.0854	11
85.0283	7
88.0524	22
93.0702	34
94.0739	14
95.0851	36
97.1019	8
107.0851	39
109.0075	8
109.1022	26
110.1058	15
117.0203	9
118.1093	16
119.0815	8
121.1023	14
123.1178	16
127.1236	20
131.0845	8
134.0925	10
135.0797	11
138.0426	9
147.1175	56
148.1192	12
149.1331	11
151.0747	8
153.0898	13
160.1218	8
161.097	11
161.1329	32
162.1607	9
163.1108	8
163.1468	82
164.0375	8
167.1069	19
171.1127	11
172.1241	11
173.072	12
173.093	13
173.1318	51
175.0304	7
175.1104	8
175.1472	45
176.1512	9
177.0286	21
177.1156	8
179.1055	8
181.1004	24
183.118	14
185.0969	11
186.1398	11
187.1106	14
187.1459	60
189.1634	51
191.1438	8
191.1801	8
193.1218	20
193.1477	8
194.1303	11
195.091	10
195.104	8
196.04	7
196.1216	7
199.1126	17
199.1463	8
200.1544	9
201.1633	48
203.1063	20
203.1431	15
203.1798	14
204.1962	9
205.1207	25
207.1374	58
207.1722	8
208.239	8
209.1302	12
209.1543	8
215.178	37
216.1883	28
219.1377	12
221.1528	21
223.137	7
223.1491	17
224.0469	10
225.1584	10
227.1426	37
229.001	28
229.1558	33
229.1942	21
234.1592	8
234.236	8
235.1674	16
237.1638	22
239.1369	10
241.1575	32
243.1693	8
244.1712	11
245.1542	27
247.1706	17
254.096	10
255.1753	13
258.0291	7
259.1685	32
261.1141	10
261.1829	13
264.9914	20
265.1933	11
265.205	7
265.2301	16
267.2068	15
269.1637	8
269.1873	9
269.2269	67
270.2326	27
271.2032	8
283.2028	27
288.2081	13
289.0719	11
289.2019	7
293.2283	55
294.2296	8
299.2021	8
301.216	12
304.2131	14
310.1556	7
311.2018	14
311.2371	105
320.199	8
327.245	10
329.2471	999
331.1564	11
331.1818	7
331.2045	11
331.2528	19
