Mass spectrum: 3-oxo-C6-homoserine lactone; LC-ESI-QTOF; MS2; CE: 20; R=; [M-H]-
Name: 3-oxo-C6-homoserine lactone
Name: Autoinducer 1
Name: 3-oxo-N-(2-oxooxolan-3-yl)hexanamide
Formula: C10H15NO4
Exact mass: 213.1001
SMILES: CCCC(=O)CC(=O)NC1CCOC1=O
InChI: InChI=1S/C10H15NO4/c1-2-3-7(12)6-9(13)11-8-4-5-15-10(8)14/h8H,2-6H2,1H3,(H,11,13)
Instrument: maXis plus UHR-ToF-MS, Bruker Daltonics
Instrument type: LC-ESI-QTOF
Ms type: MS2
Ion mode: NEGATIVE
Ionization: ESI
Fragmentation mode: CID
Collision energy: 20
Column name: BEH C18 1.7um, 2.1x100mm, Waters
Retention time: 2.746 min
Base peak: 212.0937
Precursor m/z: 212.0928
Precursor type: [M-H]-
m/z	relative intensity
52.0193	2
54.0348	1
57.0348	150
69.0341	1
70.0297	31
71.0345	1
72.0093	5
82.0303	10
85.0661	999
87.0453	397
95.0384	9
97.0651	1
98.0247	2
99.045	2
99.0652	1
100.04	3
109.0661	1
111.0458	14
112.0407	10
125.0964	1
126.02	15
128.072	1
138.0931	7
142.0529	7
164.0733	27
165.0764	2
166.0519	1
167.0591	4
167.0718	4
176.0704	1
185.0929	1
194.0833	5
212.094	272
