Mass spectrum: Perlargonic acid; LC-ESI-QTOF; MS2; CE: 40; R=; [M+H]+
Name: Perlargonic acid
Name: nonanoic acid
Formula: C9H18O2
Exact mass: 158.1307
SMILES: CCCCCCCCC(=O)O
InChI: InChI=1S/C9H18O2/c1-2-3-4-5-6-7-8-9(10)11/h2-8H2,1H3,(H,10,11)
Instrument: maXis plus UHR-ToF-MS, Bruker Daltonics
Instrument type: LC-ESI-QTOF
Ms type: MS2
Ion mode: POSITIVE
Ionization: ESI
Fragmentation mode: CID
Collision energy: 40
Column name: BEH C18 1.7um, 2.1x100mm, Waters
Retention time: 5.185 min
Base peak: 159.1372
Precursor m/z: 159.138
Precursor type: [M+H]+
m/z	relative intensity
55.0048	88
55.054	999
57.0701	488
59.0492	307
65.0381	177
69.033	66
71.0492	347
73.0651	81
74.0359	85
75.0441	273
77.038	140
