Mass spectrum: Taurodeoxycholate; LC-ESI-QTOF; MS2; CE: 20; R=; [M+H]+
Name: Taurodeoxycholate
Name: 2-[[(4R)-4-[(3R,5R,8R,9S,10S,12S,13R,14S,17R)-3,12-dihydroxy-10,13-dimethyl-2,3,4,5,6,7,8,9,11,12,14,15,16,17-tetradecahydro-1H-cyclopenta[a]phenanthren-17-yl]pentanoyl]amino]ethanesulfonic acid
Formula: C26H45NO6S
Exact mass: 499.2968
SMILES: C[C@H](CC/C(=N/CCS(=O)(=O)O)/O)[C@H]1CC[C@@H]2[C@@]1([C@H](C[C@H]3[C@H]2CC[C@H]4[C@@]3(CC[C@H](C4)O)C)O)C
InChI: InChI=1S/C26H45NO6S/c1-16(4-9-24(30)27-12-13-34(31,32)33)20-7-8-21-19-6-5-17-14-18(28)10-11-25(17,2)22(19)15-23(29)26(20,21)3/h16-23,28-29H,4-15H2,1-3H3,(H,27,30)(H,31,32,33)/t16-,17-,18-,19+,20-,21+,22+,23+,25+,26-/m1/s1
Instrument: maXis plus UHR-ToF-MS, Bruker Daltonics
Instrument type: LC-ESI-QTOF
Ms type: MS2
Ion mode: POSITIVE
Ionization: ESI
Fragmentation mode: CID
Collision energy: 20
Column name: BEH C18 1.7um, 2.1x100mm, Waters
Retention time: 4.401 min
Base peak: 500.3041
Precursor m/z: 500.304
Precursor type: [M+H]+
m/z	relative intensity
126.0223	1
161.1327	1
208.0634	1
215.1803	1
229.1967	1
297.2226	1
302.1395	2
321.257	2
328.1577	2
330.1787	1
339.2682	24
340.2721	4
342.1777	1
354.1748	3
356.189	1
368.189	2
382.2049	2
463.3235	1
463.3386	1
464.283	999
465.2869	345
466.2863	68
467.2859	7
482.294	100
483.297	30
484.2985	6
500.3036	21
502.3056	2
