Mass spectrum: Phenanzine-1_6-dicarboxylic acid; LC-ESI-QTOF; MS2; CE: 40; R=; [M+H]+
Name: Phenanzine-1_6-dicarboxylic acid
Name: phenazine-1,6-dicarboxylic acid
Formula: C14H8N2O4
Exact mass: 268.04841
SMILES: c1cc(c2c(c1)nc3c(cccc3n2)C(=O)O)C(=O)O
InChI: InChI=1S/C14H8N2O4/c17-13(18)7-3-1-5-9-11(7)16-10-6-2-4-8(14(19)20)12(10)15-9/h1-6H,(H,17,18)(H,19,20)
Instrument: maXis plus UHR-ToF-MS, Bruker Daltonics
Instrument type: LC-ESI-QTOF
Ms type: MS2
Ion mode: POSITIVE
Ionization: ESI
Fragmentation mode: CID
Collision energy: 40
Column name: BEH C18 1.7um, 2.1x100mm, Waters
Retention time: 4.018 min
Base peak: 79.0204
Precursor m/z: 269.0557
Precursor type: [M+H]+
m/z	relative intensity
57.0078	4
59.0477	2
64.0309	2
72.0085	2
80.0251	1
83.011	1
88.0179	3
89.9974	2
92.0259	1
93.041	1
95.0121	7
95.0493	2
96.0555	6
97.0612	1
101.0242	2
103.0178	2
110.0369	4
111.979	2
119.9915	2
122.0223	4
123.069	2
124.0307	1
126.0377	2
128.9811	1
130.0392	6
130.0652	2
131.0679	1
138.0184	1
142.0514	6
144.0422	3
144.0572	1
147.0094	2
147.0536	3
149.0831	2
150.0083	2
151.0112	2
151.0409	1
152.0494	77
153.0449	19
154.0451	3
155.0576	9
157.0489	2
159.9913	2
163.0735	2
165.0206	1
166.0001	2
167.0555	1
168.0414	1
168.0578	1
169.0365	3
170.06	32
171.0568	14
172.0072	1
174.9917	2
177.0418	3
177.0621	2
178.0376	1
178.052	11
179.0597	999
180.0632	90
182.0472	7
183.0541	4
184.0625	2
185.0701	2
186.0557	1
189.0458	2
194.0466	65
195.0553	5
196.0515	2
197.0706	21
198.0415	2
199.9759	2
206.0443	1
206.0543	2
208.0287	3
211.0491	115
212.0571	156
213.0598	15
214.038	5
222.0541	24
223.051	19
225.0669	2
226.0374	86
235.0742	1
241.0593	8
244.0477	59
245.048	4
251.0463	17
251.0553	17
252.0484	5
269.0542	32
