Mass spectrum: Retinoic acid; LC-ESI-QTOF; MS2; CE: 10; R=; [M+H]+
Name: Retinoic acid
Name: (2E,4E,6E,8E)-3,7-dimethyl-9-(2,6,6-trimethylcyclohexen-1-yl)nona-2,4,6,8-tetraenoic acid
Formula: C20H28O2
Exact mass: 300.2089
SMILES: CC1=C(C(CCC1)(C)C)/C=C/C(=C/C=C/C(=C/C(=O)O)/C)/C
InChI: InChI=1S/C20H28O2/c1-15(8-6-9-16(2)14-19(21)22)11-12-18-17(3)10-7-13-20(18,4)5/h6,8-9,11-12,14H,7,10,13H2,1-5H3,(H,21,22)/b9-6+,12-11+,15-8+,16-14+
Instrument: maXis plus UHR-ToF-MS, Bruker Daltonics
Instrument type: LC-ESI-QTOF
Ms type: MS2
Ion mode: POSITIVE
Ionization: ESI
Fragmentation mode: CID
Collision energy: 10
Column name: BEH C18 1.7um, 2.1x100mm, Waters
Retention time: 6.910 min
Base peak: 88.0748
Precursor m/z: 301.2162
Precursor type: [M+H]+
m/z	relative intensity
69.0693	5
81.0694	17
82.073	1
83.0853	2
85.064	14
87.0438	1
93.0692	5
95.085	29
97.1007	2
109.0645	1
109.101	17
110.1053	2
111.0449	1
111.0814	1
111.116	6
113.0603	2
119.0846	3
121.1012	4
123.1167	120
124.1199	10
127.0752	8
127.1113	1
135.1165	1
139.0767	1
143.0851	1
145.1017	2
147.1163	2
153.0924	1
157.1018	3
159.1159	8
160.1234	1
161.0958	30
161.1324	7
162.0995	2
163.0761	1
163.111	1
164.0833	4
167.1066	1
171.1178	3
172.0875	1
173.0948	11
173.1324	5
174.0991	1
174.1359	2
175.1105	1
175.1484	6
176.0826	1
176.1552	3
177.0912	19
177.1633	5
179.1061	129
183.1167	2
183.1362	1
185.095	1
185.132	4
187.1118	5
187.1482	3
188.1509	1
189.0906	1
189.1275	1
190.1713	1
191.1068	19
197.1327	5
199.1107	1
199.1471	6
200.1556	1
201.1635	25
202.1684	3
203.1072	4
203.1801	1
204.1152	1
205.1222	68
207.1375	1
209.1325	1
211.1124	1
211.1489	1
212.1175	1
213.1279	2
213.1639	2
214.1678	1
215.1061	1
215.1789	1
217.1235	4
218.129	2
219.1379	7
225.1273	2
227.1437	2
229.122	6
230.1303	4
231.1371	5
239.1788	2
241.1583	7
241.194	8
242.1606	2
243.138	24
245.1527	11
253.1952	5
255.1749	2
255.2106	39
256.2138	7
257.153	5
259.17	1
265.1951	1
281.1904	3
282.1937	1
283.2055	61
284.209	9
285.1857	11
299.2005	192
300.2066	106
301.2162	999
