Mass spectrum: Glycohyocholic acid; LC-ESI-QTOF; MS2; CE: 20; R=; [M+H]+
Name: Glycohyocholic acid
Name: AM022340
Name: 2-[4-(3,6,7-trihydroxy-10,13-dimethyl-2,3,4,5,6,7,8,9,11,12,14,15,16,17-tetradecahydro-1H-cyclopenta[a]phenanthren-17-yl)pentanoylamino]acetic acid
Formula: C26H43NO6
Exact mass: 465.3090
SMILES: CC(CCC(=O)NCC(=O)O)C1CCC2C1(CCC3C2C(C(C4C3(CCC(C4)O)C)O)O)C
InChI: InChI=1S/C26H43NO6/c1-14(4-7-20(29)27-13-21(30)31)16-5-6-17-22-18(9-11-25(16,17)2)26(3)10-8-15(28)12-19(26)23(32)24(22)33/h14-19,22-24,28,32-33H,4-13H2,1-3H3,(H,27,29)(H,30,31)
Instrument: maXis plus UHR-ToF-MS, Bruker Daltonics
Instrument type: LC-ESI-QTOF
Ms type: MS2
Ion mode: POSITIVE
Ionization: ESI
Fragmentation mode: CID
Collision energy: 20
Column name: BEH C18 1.7um, 2.1x100mm, Waters
Retention time: 4.069 min
Base peak: 466.3164
Precursor m/z: 466.3163
Precursor type: [M+H]+
m/z	relative intensity
76.0386	97
85.0641	4
147.1179	1
158.0821	3
159.1172	3
162.1339	1
173.1319	1
175.1477	2
185.1323	1
191.1427	1
199.1492	1
209.132	1
213.1636	1
223.148	1
225.1658	1
227.143	1
229.1602	1
238.1439	1
239.181	1
241.1566	1
250.1441	1
264.1582	1
266.1773	1
295.2438	1
302.1782	1
304.1909	1
309.2564	2
319.2417	23
320.2458	3
327.268	1
332.2224	1
337.2528	113
338.256	21
339.2587	1
355.2632	71
356.267	12
357.268	1
373.2735	7
374.276	1
394.2717	2
400.2842	8
401.2873	2
402.298	2
412.2848	338
413.2883	98
414.2916	8
430.2954	999
431.2989	369
432.3024	43
433.3051	2
448.3059	212
449.3095	61
450.3122	7
466.3168	37
468.3224	1
