Mass spectrum: 3-oxo-C10-homoserine lactone; LC-ESI-QTOF; MS2; CE: 20; R=; [M-H]-
Name: 3-oxo-C10-homoserine lactone
Name: N-(3-Oxodecanoyl)-DL-homoserine lactone
Name: 3-oxo-N-(2-oxooxolan-3-yl)decanamide
Formula: C14H23NO4
Exact mass: 269.1627
SMILES: CCCCCCCC(=O)CC(=O)NC1CCOC1=O
InChI: InChI=1S/C14H23NO4/c1-2-3-4-5-6-7-11(16)10-13(17)15-12-8-9-19-14(12)18/h12H,2-10H2,1H3,(H,15,17)
Instrument: maXis plus UHR-ToF-MS, Bruker Daltonics
Instrument type: LC-ESI-QTOF
Ms type: MS2
Ion mode: NEGATIVE
Ionization: ESI
Fragmentation mode: CID
Collision energy: 20
Column name: BEH C18 1.7um, 2.1x100mm, Waters
Retention time: 4.591 min
Base peak: 268.1558
Precursor m/z: 268.1554
Precursor type: [M-H]-
m/z	relative intensity
52.0193	1
57.0347	31
69.0334	1
70.0299	23
72.0095	3
81.0343	1
82.0299	7
84.0089	1
84.0459	1
95.0383	7
112.0406	14
113.0978	1
125.0967	1
126.0205	32
141.1293	51
142.0517	12
143.1086	79
153.1295	1
167.1086	5
168.1128	1
176.1454	2
194.156	43
195.1596	3
206.1566	15
207.1591	1
220.135	15
223.1353	2
224.1655	1
238.1459	2
250.145	4
255.1135	1
268.1561	999
