Mass spectrum: osas#9; LC-ESI-QTOF; MS2; CE: 10; R=; [M-H]-
Name: osas#9
Formula: C23H33NO10
Exact mass: 483.2104
SMILES: CC(CCC(O)=O)O[C@@H]1OC(C)[C@@H](CC1O)OC(=O)CCC(=O)NC[C@H](O)C1=CC=C(O)C=C1
InChI: InChI=1S/C23H33NO10/c1-13(3-9-21(29)30)32-23-17(26)11-19(14(2)33-23)34-22(31)10-8-20(28)24-12-18(27)15-4-6-16(25)7-5-15/h4-7,13-14,17-19,23,25-27H,3,8-12H2,1-2H3,(H,24,28)(H,29,30)/t13?,14?,17?,18-,19+,23+/m0/s1
Instrument: maXis plus UHR-ToF-MS, Bruker Daltonics
Instrument type: LC-ESI-QTOF
Ms type: MS2
Ion mode: NEGATIVE
Ionization: ESI
Fragmentation mode: CID
Collision energy: 10
Column name: BEH C18 1.7um, 2.1x100mm, Waters
Retention time: 3.104 min
Base peak: 482.1986
Precursor m/z: 482.2032
Precursor type: [M-H]-
m/z	relative intensity
234.0805	8
247.1239	72
248.1263	27
257.2042	10
278.0668	7
351.9863	10
369.0334	9
415.2115	10
445.0707	7
464.1909	46
465.1962	18
481.1576	8
483.2022	999
