Mass spectrum: N-Oleyl-Isoleucine; LC-ESI-QTOF; MS2; CE: 20; R=; [M+H]+
Name: N-Oleyl-Isoleucine
Name: N-oleoyl isoleucine
Name: (2S,3S)-3-methyl-2-[[(Z)-octadec-9-enoyl]amino]pentanoic acid
Formula: C24H45NO3
Exact mass: 395.3399
SMILES: CCCCCCCC/C=C\CCCCCCCC(=O)N[C@@H]([C@@H](C)CC)C(=O)O
InChI: InChI=1S/C24H45NO3/c1-4-6-7-8-9-10-11-12-13-14-15-16-17-18-19-20-22(26)25-23(24(27)28)21(3)5-2/h12-13,21,23H,4-11,14-20H2,1-3H3,(H,25,26)(H,27,28)/b13-12-/t21-,23-/m0/s1
Instrument: maXis plus UHR-ToF-MS, Bruker Daltonics
Instrument type: LC-ESI-QTOF
Ms type: MS2
Ion mode: POSITIVE
Ionization: ESI
Fragmentation mode: CID
Collision energy: 20
Column name: BEH C18 1.7um, 2.1x100mm, Waters
Retention time: 7.239 min
Base peak: 396.347
Precursor m/z: 396.3472
Precursor type: [M+H]+
m/z	relative intensity
81.0692	4
83.0851	4
86.0957	999
95.0848	3
97.1008	2
109.1019	1
132.1018	148
135.1162	1
247.2413	5
248.2436	1
265.2519	12
266.2579	2
350.3417	105
351.3455	27
378.3369	12
379.34	3
396.3473	97
398.3527	2
399.3094	2
