Mass spectrum: 13-methylmyristic acid; LC-ESI-QTOF; MS2; CE: 20; R=; [M+H]+
Name: 13-methylmyristic acid
Name: 13-methyltetradecanoic acid
Formula: C15H30O2
Exact mass: 242.2246
SMILES: CC(C)CCCCCCCCCCCC(=O)O
InChI: InChI=1S/C15H30O2/c1-14(2)12-10-8-6-4-3-5-7-9-11-13-15(16)17/h14H,3-13H2,1-2H3,(H,16,17)
Instrument: maXis plus UHR-ToF-MS, Bruker Daltonics
Instrument type: LC-ESI-QTOF
Ms type: MS2
Ion mode: POSITIVE
Ionization: ESI
Fragmentation mode: CID
Collision energy: 20
Column name: BEH C18 1.7um, 2.1x100mm, Waters
Retention time: 6.986 min
Base peak: 88.0749
Precursor m/z: 243.2319
Precursor type: [M+H]+
m/z	relative intensity
69.0696	999
73.0654	97
75.0439	154
79.0549	73
85.1009	467
89.0589	588
95.0851	393
97.0656	215
103.0752	154
109.1019	174
133.1598	85
146.0955	97
182.0817	97
200.014	150
200.1184	142
239.0832	158
243.233	134
252.1454	215
