Mass spectrum: D(-)-Fructose; LC-ESI-QTOF; MS2; CE: 10; R=; [M-H]-
Name: D(-)-Fructose
Name: beta-D-Fructose
Name: (2R,3S,4S,5R)-2,5-bis(hydroxymethyl)oxolane-2,3,4-triol
Formula: C6H12O6
Exact mass: 180.0634
SMILES: O[C@H]1[C@H](O)[C@H](O[C@]1(O)CO)CO
InChI: InChI=1S/C6H12O6/c7-1-3-4(9)5(10)6(11,2-8)12-3/h3-5,7-11H,1-2H2/t3-,4-,5+,6-/m1/s1
Instrument: maXis plus UHR-ToF-MS, Bruker Daltonics
Instrument type: LC-ESI-QTOF
Ms type: MS2
Ion mode: NEGATIVE
Ionization: ESI
Fragmentation mode: CID
Collision energy: 10
Column name: BEH C18 1.7um, 2.1x100mm, Waters
Retention time: 0.602 min
Base peak: 179.0564
Precursor m/z: 179.0561
Precursor type: [M-H]-
m/z	relative intensity
89.0253	999
113.0241	48
