Mass spectrum: 1-heptadecanoyl-2-hydroxy-sn-glycero-3-phosphocholine; LC-ESI-QTOF; MS2; CE: 10; R=; [M+H]+
Name: 1-heptadecanoyl-2-hydroxy-sn-glycero-3-phosphocholine
Name: 1-heptadecanoyl-sn-glycero-3-phosphocholine
Name: [(2R)-3-heptadecanoyloxy-2-hydroxypropyl] 2-(trimethylazaniumyl)ethyl phosphate
Formula: C25H52NO7P
Exact mass: 509.3481
SMILES: [H][C@@](O)(COC(=O)CCCCCCCCCCCCCCCC)COP([O-])(=O)OCC[N+](C)(C)C
InChI: InChI=1S/C25H52NO7P/c1-5-6-7-8-9-10-11-12-13-14-15-16-17-18-19-25(28)31-22-24(27)23-33-34(29,30)32-21-20-26(2,3)4/h24,27H,5-23H2,1-4H3/t24-/m1/s1
Instrument: maXis plus UHR-ToF-MS, Bruker Daltonics
Instrument type: LC-ESI-QTOF
Ms type: MS2
Ion mode: POSITIVE
Ionization: ESI
Fragmentation mode: CID
Collision energy: 10
Column name: BEH C18 1.7um, 2.1x100mm, Waters
Retention time: 6.291 min
Base peak: 510.3549
Precursor m/z: 510.3554
Precursor type: [M+H]+
m/z	relative intensity
104.1068	4
184.0726	1
492.345	5
493.347	1
509.2665	1
509.3253	1
509.3496	2
510.3554	999
512.3609	51
