Mass spectrum: Pantothenic acid; LC-ESI-QTOF; MS2; CE: 40; R=; [M+H]+
Name: Pantothenic acid
Name: D-pantothenic acid
Name: 3-[(2,4-dihydroxy-3,3-dimethylbutanoyl)amino]propanoic acid
Formula: C9H17NO5
Exact mass: 219.1107
SMILES: CC(C)(CO)C(O)C(=O)NCCC(O)=O
InChI: InChI=1S/C9H17NO5/c1-9(2,5-11)7(14)8(15)10-4-3-6(12)13/h7,11,14H,3-5H2,1-2H3,(H,10,15)(H,12,13)
Instrument: maXis plus UHR-ToF-MS, Bruker Daltonics
Instrument type: LC-ESI-QTOF
Ms type: MS2
Ion mode: POSITIVE
Ionization: ESI
Fragmentation mode: CID
Collision energy: 40
Column name: BEH C18 1.7um, 2.1x100mm, Waters
Retention time: 1.630 min
Base peak: 220.1181
Precursor m/z: 220.1179
Precursor type: [M+H]+
m/z	relative intensity
53.0384	6
55.0161	16
57.0693	111
59.0486	84
60.0444	25
67.0537	795
68.1187	14
69.07	77
70.0282	999
71.0475	8
72.0441	182
73.0282	85
74.0234	80
79.0545	49
80.0501	20
81.0574	19
83.0493	28
84.0814	21
85.0641	114
91.0599	15
95.0481	164
96.0808	91
98.0235	64
124.0755	19
