Mass spectrum: Homogentisic acid; LC-ESI-QTOF; MS2; CE: 20; R=; [M+H]+
Name: Homogentisic acid
Name: 2-(2,5-dihydroxyphenyl)acetic acid
Formula: C8H8O4
Exact mass: 168.0423
SMILES: OC(=O)CC1=CC(O)=CC=C1O
InChI: InChI=1S/C8H8O4/c9-6-1-2-7(10)5(3-6)4-8(11)12/h1-3,9-10H,4H2,(H,11,12)
Instrument: maXis plus UHR-ToF-MS, Bruker Daltonics
Instrument type: LC-ESI-QTOF
Ms type: MS2
Ion mode: POSITIVE
Ionization: ESI
Fragmentation mode: CID
Collision energy: 20
Column name: BEH C18 1.7um, 2.1x100mm, Waters
Retention time: 1.387 min
Base peak: 390.0032
Precursor m/z: 169.0495
Precursor type: [M+H]+
m/z	relative intensity
65.0381	999
66.0457	109
69.034	117
94.0408	142
121.0285	190
149.0221	255
150.0271	89
