Mass spectrum: 3-hydroxy-C12 homoserine lactone; LC-ESI-QTOF; MS2; CE: 40; R=; [M+H]+
Name: 3-hydroxy-C12 homoserine lactone
Name: 3-hydroxy-N-(2-oxooxolan-3-yl)dodecanamide
Formula: C16H29NO4
Exact mass: 299.20966
SMILES: CCCCCCCCCC(O)CC(=O)NC1CCOC1=O
InChI: InChI=1S/C16H29NO4/c1-2-3-4-5-6-7-8-9-13(18)12-15(19)17-14-10-11-21-16(14)20/h13-14,18H,2-12H2,1H3,(H,17,19)
Instrument: maXis plus UHR-ToF-MS, Bruker Daltonics
Instrument type: LC-ESI-QTOF
Ms type: MS2
Ion mode: POSITIVE
Ionization: ESI
Fragmentation mode: CID
Collision energy: 40
Column name: BEH C18 1.7um, 2.1x100mm, Waters
Retention time: 5.065 min
Base peak: 300.2164
Precursor m/z: 300.2169
Precursor type: [M+H]+
m/z	relative intensity
57.033	4
59.0482	6
67.0536	148
69.0692	423
71.0483	4
71.085	22
72.008	3
72.2086	1
73.0642	8
74.023	947
74.0593	999
76.0271	1
77.0381	11
79.0538	159
81.0696	147
82.0735	4
83.0488	15
83.0852	285
84.044	347
85.028	71
85.0641	8
87.0439	1
87.0799	3
91.0538	16
92.0574	1
93.0696	63
94.0734	5
95.0477	5
95.0853	67
96.0799	1
97.0644	46
97.101	67
98.0578	1
98.0685	2
99.0808	1
100.0395	2
102.0547	464
104.0587	3
105.0448	2
105.0695	2
107.0849	35
108.0886	3
109.0651	2
109.1008	7
111.0814	6
111.1162	2
121.1005	17
122.1046	1
163.1493	1
181.1568	1
