Mass spectrum: Pseudouridine; LC-ESI-QTOF; MS2; CE: 10; R=; [M+H]+
Name: Pseudouridine
Name: 5-[(2S,3R,4S,5R)-3,4-dihydroxy-5-(hydroxymethyl)oxolan-2-yl]-1H-pyrimidine-2,4-dione
Formula: C9H12N2O6
Exact mass: 244.0695
SMILES: c1c(c(nc(n1)O)O)[C@H]2[C@@H]([C@@H]([C@H](O2)CO)O)O
InChI: InChI=1S/C9H12N2O6/c12-2-4-5(13)6(14)7(17-4)3-1-10-9(16)11-8(3)15/h1,4-7,12-14H,2H2,(H2,10,11,15,16)/t4-,5-,6-,7+/m1/s1
Instrument: maXis plus UHR-ToF-MS, Bruker Daltonics
Instrument type: LC-ESI-QTOF
Ms type: MS2
Ion mode: POSITIVE
Ionization: ESI
Fragmentation mode: CID
Collision energy: 10
Column name: BEH C18 1.7um, 2.1x100mm, Waters
Retention time: 0.658 min
Base peak: 245.0762
Precursor m/z: 245.0768
Precursor type: [M+H]+
m/z	relative intensity
53.0017	1
55.0055	1
64.0389	2
64.0871	1
66.0215	1
72.0417	1
76.0268	2
76.0725	2
80.9815	1
81.0334	1
85.028	2
87.0444	1
89.0579	1
89.9944	1
90.0107	1
91.038	1
91.0975	1
94.0412	2
97.9873	2
100.0051	1
100.0959	1
101.035	1
101.9931	1
102.0553	1
103.9857	1
108.0816	1
109.0043	1
110.9933	1
112.999	1
113.0468	1
114.9902	1
115.9732	1
117.978	2
117.9898	2
119.0115	1
121.0264	1
122.0322	1
123.0392	2
125.0341	11
125.0709	1
127.0011	1
128.0503	1
129.0891	2
130.0347	1
133.0852	1
138.0437	2
141.0858	1
142.0007	1
142.06	1
144.0849	2
144.9981	1
146.0925	1
147.0628	1
148.049	1
151.0338	1
151.0497	1
153.0608	3
155.0447	83
156.049	8
156.0891	2
156.9976	1
157.0216	1
157.0328	1
158.9812	1
160.0334	1
160.9882	1
163.0507	4
163.0643	2
164.0501	1
166.0494	8
167.0452	8
167.0701	1
168.0413	2
168.0501	1
168.9826	2
170.993	1
172.0441	1
173.9767	2
174.0643	1
175.0349	1
175.0822	1
175.9844	1
176.0303	1
177.0245	1
177.1137	1
179.0444	115
181.0484	3
181.0611	5
186.9745	1
187.0083	1
190.0688	2
191.0449	97
192.0481	12
193.0835	1
195.9863	1
200.0643	1
202.033	1
203.0285	1
204.0495	1
206.0285	1
206.0665	2
209.0551	999
210.0586	82
211.0608	9
212.0661	2
213.0973	1
221.9896	1
225.0743	1
227.0666	14
238.9941	2
245.0764	446
247.0811	6
