Mass spectrum: Benzoic acid; LC-ESI-QTOF; MS2; CE: 40; R=; [M+H]+
Name: Benzoic acid
Formula: C7H6O2
Exact mass: 122.0368
SMILES: OC(=O)c1ccccc1
InChI: InChI=1S/C7H6O2/c8-7(9)6-4-2-1-3-5-6/h1-5H,(H,8,9)
Instrument: maXis plus UHR-ToF-MS, Bruker Daltonics
Instrument type: LC-ESI-QTOF
Ms type: MS2
Ion mode: POSITIVE
Ionization: ESI
Fragmentation mode: CID
Collision energy: 40
Column name: BEH C18 1.7um, 2.1x100mm, Waters
Retention time: 3.520 min
Base peak: 79.0537
Precursor m/z: 123.0441
Precursor type: [M+H]+
m/z	relative intensity
74.0147	17
75.0232	9
77.0381	999
79.0544	97
81.0338	15
95.049	359
105.0439	113
106.0413	12
