Mass spectrum: L-Cysteine; LC-ESI-QTOF; MS2; CE: 20; R=; [M+H]+
Name: L-Cysteine
Name: (2R)-2-azaniumyl-3-sulfanylpropanoate
Formula: C3H7NO2S
Exact mass: 121.01975
SMILES: C([C@@H](C(=O)O)N)S
InChI: InChI=1S/C3H7NO2S/c4-2(1-7)3(5)6/h2,7H,1,4H2,(H,5,6)/t2-/m0/s1
Instrument: maXis plus UHR-ToF-MS, Bruker Daltonics
Instrument type: LC-ESI-QTOF
Ms type: MS2
Ion mode: POSITIVE
Ionization: ESI
Fragmentation mode: CID
Collision energy: 20
Column name: BEH C18 1.7um, 2.1x100mm, Waters
Retention time: 0.604 min
Base peak: 76.0209
Precursor m/z: 122.027
Precursor type: [M+H]+
m/z	relative intensity
62.9893	7
76.0209	999
77.004	2
77.0237	13
86.9895	128
88.0387	4
104.9997	19
110.0569	1
