Mass spectrum: C8-homoserine lactone; LC-ESI-QTOF; MS2; CE: 20; R=; [M+H]+
Name: C8-homoserine lactone
Name: N-Octanoyl-DL-homoserine lactone
Name: N-(2-oxooxolan-3-yl)octanamide
Formula: C12H21NO3
Exact mass: 227.15214
SMILES: CCCCCCCC(=O)NC1CCOC1=O
InChI: InChI=1S/C12H21NO3/c1-2-3-4-5-6-7-11(14)13-10-8-9-16-12(10)15/h10H,2-9H2,1H3,(H,13,14)
Instrument: maXis plus UHR-ToF-MS, Bruker Daltonics
Instrument type: LC-ESI-QTOF
Ms type: MS2
Ion mode: POSITIVE
Ionization: ESI
Fragmentation mode: CID
Collision energy: 20
Column name: BEH C18 1.7um, 2.1x100mm, Waters
Retention time: 4.396 min
Base peak: 228.159
Precursor m/z: 228.1594
Precursor type: [M+H]+
m/z	relative intensity
48.175	1
59.0484	15
61.0651	1
69.0693	4
71.0482	6
71.0849	6
74.0231	90
80.0829	1
81.0696	12
83.0852	31
84.0441	53
85.028	61
85.0645	9
86.0716	1
100.0392	1
100.0764	1
102.0548	999
104.0578	2
109.101	156
110.1049	10
120.0666	1
126.1287	1
127.1116	197
128.0698	1
140.0719	2
152.1397	1
200.1654	4
210.1488	102
211.152	12
228.1603	8
