Mass spectrum: 5?-CHOLANIC ACID-3?_ 12?-DIOL-7-ONE; LC-ESI-QTOF; MS2; CE: 20; R=; [M+H]+
Name: 5?-CHOLANIC ACID-3?_ 12?-DIOL-7-ONE
Name: 7-Ketodeoxycholic acid
Name: (4R)-4-[(3R,5S,8R,9S,10S,12S,13R,14S,17R)-3,12-dihydroxy-10,13-dimethyl-7-oxo-1,2,3,4,5,6,8,9,11,12,14,15,16,17-tetradecahydrocyclopenta[a]phenanthren-17-yl]pentanoic acid
Formula: C24H38O5
Exact mass: 406.2719
SMILES: C[C@H](CCC(=O)O)[C@H]1CC[C@@H]2[C@@]1([C@H](C[C@H]3[C@H]2C(=O)C[C@H]4[C@@]3(CC[C@H](C4)O)C)O)C
InChI: InChI=1S/C24H38O5/c1-13(4-7-21(28)29)16-5-6-17-22-18(12-20(27)24(16,17)3)23(2)9-8-15(25)10-14(23)11-19(22)26/h13-18,20,22,25,27H,4-12H2,1-3H3,(H,28,29)/t13-,14+,15-,16-,17+,18+,20+,22+,23+,24-/m1/s1
Instrument: maXis plus UHR-ToF-MS, Bruker Daltonics
Instrument type: LC-ESI-QTOF
Ms type: MS2
Ion mode: POSITIVE
Ionization: ESI
Fragmentation mode: CID
Collision energy: 20
Column name: BEH C18 1.7um, 2.1x100mm, Waters
Retention time: 4.389 min
Base peak: 389.2686
Precursor m/z: 407.2792
Precursor type: [M+H]+
m/z	relative intensity
83.0815	19
104.2349	20
112.2602	24
165.0877	23
172.2243	25
199.0607	20
199.147	22
206.1276	19
211.026	21
235.1404	24
243.1358	36
245.1535	75
253.1582	36
253.2184	38
254.1633	27
257.2572	22
268.1096	47
269.9955	19
271.1693	124
272.1751	40
274.2762	24
282.1588	20
287.1991	22
293.1856	21
293.2788	33
297.1846	24
307.2413	50
312.1925	25
315.0037	25
315.1878	19
317.2242	34
318.2115	19
318.2278	29
324.2924	19
325.255	58
328.0415	39
335.1386	31
335.2369	319
336.2435	87
340.2369	20
345.2153	45
350.1529	36
351.2265	23
353.2472	999
354.2501	276
355.9884	22
369.2447	21
371.2593	471
372.2637	88
389.2684	301
390.2743	69
393.1354	20
