Mass spectrum: delta7-Dafachronic acid; LC-ESI-QTOF; MS2; CE: 10; R=; [M+H]+
Name: delta7-Dafachronic acid
Name: Delta(7)-dafachronic acid
Name: (6R)-6-[(5S,9R,10S,13R,14R,17R)-10,13-dimethyl-3-oxo-1,2,4,5,6,9,11,12,14,15,16,17-dodecahydrocyclopenta[a]phenanthren-17-yl]-2-methylheptanoic acid
Formula: C27H42O3
Exact mass: 414.3134
SMILES: C[C@H](CCCC(C)C(O)=O)[C@H]1CC[C@H]2C3=CC[C@H]4CC(=O)CC[C@]4(C)[C@H]3CC[C@]12C
InChI: InChI=1S/C27H42O3/c1-17(6-5-7-18(2)25(29)30)22-10-11-23-21-9-8-19-16-20(28)12-14-26(19,3)24(21)13-15-27(22,23)4/h9,17-19,22-24H,5-8,10-16H2,1-4H3,(H,29,30)/t17-,18?,19+,22-,23+,24+,26+,27-/m1/s1
Instrument: maXis plus UHR-ToF-MS, Bruker Daltonics
Instrument type: LC-ESI-QTOF
Ms type: MS2
Ion mode: POSITIVE
Ionization: ESI
Fragmentation mode: CID
Collision energy: 10
Column name: BEH C18 1.7um, 2.1x100mm, Waters
Retention time: 6.774 min
Base peak: 88.075
Precursor m/z: 415.3207
Precursor type: [M+H]+
m/z	relative intensity
83.0459	2
95.0852	2
112.239	2
113.0563	2
155.1375	2
182.1081	2
189.1586	2
206.9956	3
218.083	2
220.1409	2
224.2707	4
228.0901	3
228.1863	2
230.1679	2
236.9974	2
239.0943	3
244.0077	2
244.1812	2
252.0802	3
269.0952	3
271.2054	3
276.0781	2
277.273	5
302.0001	2
303.2677	2
311.2467	2
315.2668	2
318.1674	2
320.1719	2
325.0374	2
346.0924	2
351.3016	3
358.2581	3
369.3213	10
370.3218	3
372.1225	3
395.2933	4
397.31	81
398.033	3
398.1622	4
398.3163	15
399.3241	7
400.3192	3
407.3132	3
413.3024	3
413.3188	11
414.3088	7
415.3208	999
417.2313	2
417.3007	4
417.3274	33
