Mass spectrum: 3-hydroxy-C12 homoserine lactone; LC-ESI-QTOF; MS2; CE: 10; R=; [M+H]+
Name: 3-hydroxy-C12 homoserine lactone
Name: 3-hydroxy-N-(2-oxooxolan-3-yl)dodecanamide
Formula: C16H29NO4
Exact mass: 299.20966
SMILES: CCCCCCCCCC(O)CC(=O)NC1CCOC1=O
InChI: InChI=1S/C16H29NO4/c1-2-3-4-5-6-7-8-9-13(18)12-15(19)17-14-10-11-21-16(14)20/h13-14,18H,2-12H2,1H3,(H,17,19)
Instrument: maXis plus UHR-ToF-MS, Bruker Daltonics
Instrument type: LC-ESI-QTOF
Ms type: MS2
Ion mode: POSITIVE
Ionization: ESI
Fragmentation mode: CID
Collision energy: 10
Column name: BEH C18 1.7um, 2.1x100mm, Waters
Retention time: 5.065 min
Base peak: 300.2164
Precursor m/z: 300.2169
Precursor type: [M+H]+
m/z	relative intensity
74.0594	37
81.0694	2
83.0848	2
84.0437	11
85.0278	1
95.085	1
97.0643	1
97.1007	3
102.0546	999
163.1476	8
181.1578	18
182.1628	1
198.1869	1
242.2117	1
254.211	2
264.1949	1
272.2226	1
282.206	215
283.2096	35
300.2168	514
302.2224	8
