Mass spectrum: Oleoyl Ethanolamide; LC-ESI-QTOF; MS2; CE: 10; R=; [M+H]+
Name: Oleoyl Ethanolamide
Name: n-oleoylethanolamine
Name: (Z)-N-(2-hydroxyethyl)octadec-9-enamide
Formula: C20H39NO2
Exact mass: 325.29808
SMILES: CCCCCCCC/C=C\CCCCCCCC(=O)NCCO
InChI: InChI=1S/C20H39NO2/c1-2-3-4-5-6-7-8-9-10-11-12-13-14-15-16-17-20(23)21-18-19-22/h9-10,22H,2-8,11-19H2,1H3,(H,21,23)/b10-9-
Instrument: maXis plus UHR-ToF-MS, Bruker Daltonics
Instrument type: LC-ESI-QTOF
Ms type: MS2
Ion mode: POSITIVE
Ionization: ESI
Fragmentation mode: CID
Collision energy: 10
Column name: BEH C18 1.7um, 2.1x100mm, Waters
Retention time: 6.845 min
Base peak: 88.075
Precursor m/z: 326.3054
Precursor type: [M+H]+
m/z	relative intensity
130.1923	1
229.0716	1
252.1026	1
273.2397	1
308.2903	1
309.2786	8
326.3046	999
328.3117	17
