Mass spectrum: ?-Tauromuricholic acid; LC-ESI-QTOF; MS2; CE: 40; R=; [M+H]+
Name: ?-Tauromuricholic acid
Name: 2-[4-(3,6,7-trihydroxy-10,13-dimethyl-2,3,4,5,6,7,8,9,11,12,14,15,16,17-tetradecahydro-1H-cyclopenta[a]phenanthren-17-yl)pentanoylamino]ethanesulfonic acid
Formula: C26H45NO7S
Exact mass: 515.2917
SMILES: CC(CCC(=O)NCCS(=O)(=O)O)C1CCC2C1(CCC3C2C(C(C4C3(CCC(C4)O)C)O)O)C
InChI: InChI=1S/C26H45NO7S/c1-15(4-7-21(29)27-12-13-35(32,33)34)17-5-6-18-22-19(9-11-25(17,18)2)26(3)10-8-16(28)14-20(26)23(30)24(22)31/h15-20,22-24,28,30-31H,4-14H2,1-3H3,(H,27,29)(H,32,33,34)
Instrument: maXis plus UHR-ToF-MS, Bruker Daltonics
Instrument type: LC-ESI-QTOF
Ms type: MS2
Ion mode: POSITIVE
Ionization: ESI
Fragmentation mode: CID
Collision energy: 40
Column name: BEH C18 1.7um, 2.1x100mm, Waters
Retention time: 3.591 min
Base peak: 516.2986
Precursor m/z: 516.299
Precursor type: [M+H]+
m/z	relative intensity
47.1667	12
48.044	5
51.9978	5
52.039	8
57.0551	7
60.0449	10
61.0677	5
61.1458	9
62.0603	6
62.284	12
66.0552	6
70.0268	8
71.0481	5
71.0852	5
72.0197	9
73.0649	5
77.271	6
77.9639	5
78.0502	5
79.0543	20
80.0251	6
81.0698	170
83.0484	6
83.085	50
84.0448	6
85.0644	168
86.1899	11
87.2108	7
88.1239	6
89.0104	11
89.1931	9
91.0538	35
94.0738	8
95.0851	107
96.0051	6
96.0892	16
97.0368	5
97.0669	9
97.1013	9
99.2897	6
100.2639	7
100.3166	7
102.006	11
102.0179	8
103.0035	9
103.1133	5
103.3075	7
105.0694	62
106.037	6
106.0719	6
106.3264	5
107.0461	5
107.0846	65
108.0115	72
108.0589	7
108.9944	6
109.0186	15
109.0625	13
109.1011	52
109.1979	5
110.1052	6
111.0798	7
111.2321	5
112.9894	9
114.0502	5
114.164	10
114.2632	5
115.1351	15
115.2706	14
116.0714	9
116.1436	17
118.3272	10
118.9964	7
119.183	5
119.2789	7
121.1004	18
122.1034	9
122.1933	5
123.0473	5
123.0829	11
123.1171	14
123.2232	10
125.0948	13
125.2351	5
126.0216	604
127.0271	8
128.0176	26
128.088	5
128.9805	7
129.1147	8
129.2116	7
129.9775	6
130.2585	5
131.0849	17
131.225	6
131.3165	6
133.0337	5
133.0661	5
133.1011	24
133.1792	7
133.2167	8
135.1166	17
136.054	6
137.0879	7
137.0955	6
137.229	6
138.0133	8
138.2271	6
138.2401	7
139.0649	7
139.1393	11
139.1764	7
140.0546	9
141.0712	7
141.3202	7
141.9823	5
142.9986	14
143.0845	27
143.1227	7
143.1588	10
143.279	5
144.0908	6
144.9853	14
145.0838	11
145.1009	53
146.2446	5
147.0361	8
147.0828	9
147.1166	133
147.9455	6
148.0246	7
148.9957	5
149.0958	15
149.1323	59
149.9715	5
149.9912	6
150.1323	5
150.1395	5
150.2411	7
151.1038	15
151.2478	6
152.1165	13
152.2115	13
153.0696	9
153.1263	7
153.3141	9
154.2505	5
154.314	15
154.9921	5
155.0862	27
155.1273	5
155.2128	6
155.268	6
157.0615	7
157.1016	61
157.3303	9
158.0452	6
158.1931	5
159.1165	259
160.0313	5
160.1197	50
160.1898	5
161.0966	15
161.1321	272
162.1349	23
163.1111	64
163.1472	34
163.2029	5
164.1147	6
164.1487	7
164.3017	5
165.1299	14
165.2117	10
168.0234	5
168.9777	14
169.1001	8
170.1065	14
171.0817	7
171.1169	31
172.1201	6
172.2479	5
173.0957	10
173.1322	143
174.0862	7
174.0964	5
174.9917	8
175.0165	10
175.112	99
175.1333	5
175.1476	101
176.0654	5
176.1143	10
176.1502	29
177.128	91
178.1311	20
178.9958	7
179.1437	18
180.1893	6
180.9535	9
181.1026	9
181.1341	7
182.9836	5
183.1175	26
183.2538	6
184.117	8
184.1261	5
184.3026	6
185.0959	6
185.1331	119
185.2195	7
186.1334	11
187.0851	5
187.1101	13
187.1471	81
187.2445	7
187.9816	7
188.0659	9
188.258	12
189.0518	7
189.0801	11
189.1278	83
189.1585	9
189.2868	6
189.9892	11
190.0312	5
190.1308	15
190.232	5
191.0072	7
191.1256	8
191.1424	56
191.2723	6
192.1177	7
192.1453	7
193.1218	18
194.0071	5
194.1611	12
195.119	18
195.2991	5
197.1323	52
198.0314	11
198.1316	6
199.1478	202
200.1525	22
200.9482	8
201.0689	5
201.1273	42
201.1646	45
202.1632	9
202.2775	5
203.1421	34
203.178	12
204.1507	9
204.1858	9
205.1575	9
205.2397	8
205.9517	8
206.0473	11
206.1357	6
206.2214	7
207.0879	9
208.0636	297
209.0685	14
209.132	89
209.3133	12
210.024	6
210.0568	11
210.0648	12
210.1353	16
211.0194	7
211.1489	69
211.3457	7
212.111	13
212.1535	6
212.3426	9
212.9609	9
213.0761	9
213.1279	21
213.1638	174
214.1666	25
215.1239	7
215.1415	23
215.1792	86
216.1437	6
216.1866	11
216.3226	7
217.1582	35
217.3015	5
218.2626	5
219.1496	8
221.1337	13
221.1534	10
222.0819	16
222.1327	6
222.3281	7
223.13	5
223.1465	105
224.1499	27
225.0702	13
225.165	67
225.2705	5
225.9385	7
226.1682	14
227.144	91
227.1798	76
227.3225	9
228.1449	13
228.1831	15
228.9668	10
229.1596	67
229.1948	14
230.1624	17
230.2307	7
231.1052	5
231.124	8
231.1713	23
232.0208	11
232.1822	8
232.2471	7
233.1892	7
233.29	9
234.107	8
234.9582	5
235.0141	6
235.0501	7
235.1498	17
235.2369	13
235.2479	7
235.321	8
236.047	5
236.0933	19
236.27	5
237.1629	35
238.1593	8
238.1795	5
238.9919	5
239.1003	7
239.1787	41
240.1864	24
240.2922	6
240.9671	5
241.1592	85
241.1981	39
242.0032	9
242.164	24
242.1983	9
243.029	7
243.1752	41
243.2109	7
243.3169	9
244.1853	6
245.0343	8
245.067	15
245.1538	17
245.1809	6
245.192	9
247.9654	5
248.0689	6
248.094	14
249.1628	25
249.1856	8
249.2702	7
250.0943	8
250.2603	6
251.1765	33
252.0285	6
252.1897	14
252.9989	9
253.0236	5
253.1623	6
253.1956	56
253.2132	9
253.2435	5
254.0348	7
254.2009	17
255.038	5
255.1767	39
255.2105	16
256.077	6
256.1789	13
257.1882	11
258.0981	9
258.2013	5
259.085	7
260.0961	6
261.0134	6
261.1885	5
262.1097	13
262.9698	8
263.1788	51
264.1847	20
264.3631	7
264.9442	5
265.0406	7
265.0539	8
265.1871	16
266.2029	11
266.2266	10
266.9914	7
267.176	6
267.211	24
268.177	5
268.2159	7
268.9774	13
269.1908	25
269.2865	5
270.1772	8
270.1966	15
271.2058	16
272.2101	5
273.0268	15
273.145	11
274.111	7
274.1229	5
274.1351	8
274.96	8
275.1737	7
276.1258	12
277.1274	5
277.1968	36
277.287	10
278.0448	5
278.1978	26
279.2111	13
279.249	15
280.9949	5
281.099	10
281.1909	42
281.2264	16
282.1957	7
282.2279	13
283.2043	15
283.2401	13
285.2644	5
286.0362	10
286.1149	7
287.2378	5
288.1132	11
288.125	55
289.1719	5
290.1258	5
290.1617	5
291.2105	28
292.1756	9
293.1912	8
293.2283	26
294.2296	15
295.2059	40
295.2403	78
295.9521	5
296.2091	8
296.2474	14
296.2642	6
297.215	12
298.0497	6
299.2104	14
299.3235	5
300.1266	51
300.3607	5
301.128	11
301.1576	5
302.1429	15
303.2103	8
304.1365	14
304.1892	9
304.9706	9
304.9837	5
305.3296	14
307.2437	28
308.2107	7
309.2189	12
309.2585	159
309.2943	9
310.0236	13
310.2289	5
310.2595	26
311.234	20
311.2715	7
311.9589	11
313.256	7
314.1433	79
315.1212	13
315.9609	8
316.0386	9
316.157	16
316.1664	15
319.2022	32
319.2433	496
320.1316	11
320.2454	135
320.2726	15
320.2953	6
321.2489	10
325.2538	40
325.2997	5
326.1468	7
326.2583	11
327.2704	40
327.3057	13
328.159	15
328.2762	12
329.1722	6
332.1543	8
333.3404	5
334.0565	7
334.3102	14
337.2531	999
338.2552	270
339.0402	6
339.2591	31
339.9566	6
340.1542	10
342.1797	17
345.0781	13
354.1716	11
355.2628	490
356.1951	8
356.2664	129
357.2752	6
357.2826	9
358.1524	5
358.2136	7
366.1755	8
368.1896	6
370.2035	5
372.1781	5
373.2765	25
383.2042	5
387.0835	6
401.2093	7
406.2097	7
408.1527	7
409.1391	7
419.9589	5
420.2232	14
421.0502	5
427.0789	5
431.9907	7
432.0046	5
432.2556	7
436.2539	7
438.2717	7
444.2547	10
445.2627	6
447.93	8
450.2659	33
452.2816	6
462.268	268
463.1426	5
463.2717	53
464.268	26
480.278	32
481.2917	9
