Mass spectrum: 3-hydroxy-C4-homoserine lactone; LC-ESI-QTOF; MS2; CE: 20; R=; [M-H]-
Name: 3-hydroxy-C4-homoserine lactone
Name: 3-hydroxy-N-(2-oxooxolan-3-yl)butanamide
Formula: C8H13NO4
Exact mass: 187.0845
SMILES: CC(O)CC(=O)NC1CCOC1=O
InChI: InChI=1S/C8H13NO4/c1-5(10)4-7(11)9-6-2-3-13-8(6)12/h5-6,10H,2-4H2,1H3,(H,9,11)
Instrument: maXis plus UHR-ToF-MS, Bruker Daltonics
Instrument type: LC-ESI-QTOF
Ms type: MS2
Ion mode: NEGATIVE
Ionization: ESI
Fragmentation mode: CID
Collision energy: 20
Column name: BEH C18 1.7um, 2.1x100mm, Waters
Retention time: 0.903 min
Base peak: 186.0781
Precursor m/z: 186.0772
Precursor type: [M-H]-
m/z	relative intensity
68.0511	36
80.0502	57
84.0457	999
112.0408	517
142.0514	175
