Mass spectrum: (-)-Epigallocatechin gallate; LC-ESI-QTOF; MS2; CE: 20; R=; [M-H]-
Name: (-)-Epigallocatechin gallate
Name: [(2R,3R)-5,7-dihydroxy-2-(3,4,5-trihydroxyphenyl)-3,4-dihydro-2H-chromen-3-yl] 3,4,5-trihydroxybenzoate
Name: 3-O-Galloyl-(-)-epigallocatechin
Name: Benzoic acid, 3,4,5-trihydroxy-, (2R,3R)-3,4-dihydro-5,7-dihydroxy-2-(3,4,5-trihydroxyphenyl)-2H-1-benzopyran-3-yl ester
Name: (-)-Epigallocatechin 3-gallate
Name: Epigallocatechin-3-monogallate
Name: (-)-Epigallocatechin 3-O-gallate
Name: (-)-Epigallocatechol gallate
Name: Gallic acid, 3-ester with epigallocatechol, (-)-
Name: L-Epigallocatechin gallate
Formula: C22H18O11
Exact mass: 458.08491
SMILES: C1[C@H]([C@H](OC2=CC(=CC(=C21)O)O)C3=CC(=C(C(=C3)O)O)O)OC(=O)C4=CC(=C(C(=C4)O)O)O
InChI: InChI=1S/C22H18O11/c23-10-5-12(24)11-7-18(33-22(31)9-3-15(27)20(30)16(28)4-9)21(32-17(11)6-10)8-1-13(25)19(29)14(26)2-8/h1-6,18,21,23-30H,7H2/t18-,21-/m1/s1
Instrument: maXis plus UHR-ToF-MS, Bruker Daltonics
Instrument type: LC-ESI-QTOF
Ms type: MS2
Ion mode: NEGATIVE
Ionization: ESI
Fragmentation mode: CID
Collision energy: 20
Column name: BEH C18 1.7um, 2.1x100mm, Waters
Retention time: 2.833 min
Base peak: 457.0733
Precursor m/z: 457.0776
Precursor type: [M-H]-
m/z	relative intensity
161.027	14
167.0005	19
169.0147	999
170.0182	23
171.0189	5
179.0439	5
193.0151	7
194.024	8
204.0409	7
269.0481	12
285.0422	8
287.0563	23
288.0597	5
305.0668	77
306.0715	9
317.0344	6
318.0324	8
319.045	12
331.0459	44
332.045	7
