Mass spectrum: tsas#9; LC-ESI-QTOF; MS2; CE: 20; R=; [M-H]-
Name: tsas#9
Formula: C23H33NO9
Exact mass: 467.2155
SMILES: CC(CCC(O)=O)O[C@@H]1OC(C)[C@@H](CC1O)OC(=O)CCC(=O)NCCC1=CC=C(O)C=C1
InChI: InChI=1S/C23H33NO9/c1-14(3-9-21(28)29)31-23-18(26)13-19(15(2)32-23)33-22(30)10-8-20(27)24-12-11-16-4-6-17(25)7-5-16/h4-7,14-15,18-19,23,25-26H,3,8-13H2,1-2H3,(H,24,27)(H,28,29)/t14?,15?,18?,19-,23-/m1/s1
Instrument: maXis plus UHR-ToF-MS, Bruker Daltonics
Instrument type: LC-ESI-QTOF
Ms type: MS2
Ion mode: NEGATIVE
Ionization: ESI
Fragmentation mode: CID
Collision energy: 20
Column name: BEH C18 1.7um, 2.1x100mm, Waters
Retention time: 3.401 min
Base peak: 466.2051
Precursor m/z: 466.2083
Precursor type: [M-H]-
m/z	relative intensity
98.0238	15
99.0444	4
109.0373	1
214.1348	1
218.0878	35
219.0885	3
223.0626	1
236.098	2
247.1238	764
248.1276	69
249.1281	4
257.1415	2
264.0822	1
343.0313	1
345.9902	1
385.073	1
404.0598	1
410.1607	1
416.0951	1
466.2053	999
