Mass spectrum: Taurochenodeoxycholate; LC-ESI-QTOF; MS2; CE: 40; R=; [M+H]+
Name: Taurochenodeoxycholate
Name: TAUROCHENODEOXYCHOLIC ACID
Name: 2-[[(4R)-4-[(3R,5S,7R,8R,9S,10S,13R,14S,17R)-3,7-dihydroxy-10,13-dimethyl-2,3,4,5,6,7,8,9,11,12,14,15,16,17-tetradecahydro-1H-cyclopenta[a]phenanthren-17-yl]pentanoyl]amino]ethanesulfonic acid
Formula: C26H45NO6S
Exact mass: 499.2968
SMILES: C[C@H](CC/C(=N/CCS(=O)(=O)O)/O)[C@H]1CC[C@@H]2[C@@]1(CC[C@H]3[C@H]2[C@@H](C[C@H]4[C@@]3(CC[C@H](C4)O)C)O)C
InChI: InChI=1S/C26H45NO6S/c1-16(4-7-23(30)27-12-13-34(31,32)33)19-5-6-20-24-21(9-11-26(19,20)3)25(2)10-8-18(28)14-17(25)15-22(24)29/h16-22,24,28-29H,4-15H2,1-3H3,(H,27,30)(H,31,32,33)/t16-,17+,18-,19-,20+,21+,22-,24+,25+,26-/m1/s1
Instrument: maXis plus UHR-ToF-MS, Bruker Daltonics
Instrument type: LC-ESI-QTOF
Ms type: MS2
Ion mode: POSITIVE
Ionization: ESI
Fragmentation mode: CID
Collision energy: 40
Column name: BEH C18 1.7um, 2.1x100mm, Waters
Retention time: 4.293 min
Base peak: 88.075
Precursor m/z: 500.304
Precursor type: [M+H]+
m/z	relative intensity
59.0006	8
60.0442	12
61.0391	7
62.0605	7
63.0226	12
65.0954	7
65.2479	8
65.2719	18
66.0191	10
66.0669	8
67.0538	108
67.2424	8
68.1236	12
69.0323	5
69.0452	9
71.1821	13
72.042	6
73.0735	10
76.0395	8
77.0167	6
77.0351	10
78.0792	8
78.1313	17
80.0501	8
81.0693	302
82.1585	6
82.2163	6
82.2867	6
83.0525	6
83.0847	62
83.9664	11
84.0295	11
85.0646	216
86.0706	5
86.1904	8
87.1735	10
87.9895	13
88.0387	8
89.0751	9
91.0129	7
91.0541	29
91.0745	8
91.2056	14
92.0585	13
92.3304	6
93.0294	11
93.0693	85
93.1508	9
94.0731	10
95.085	112
96.089	20
97.1008	15
97.2805	9
98.0484	7
99.0593	10
99.1071	7
100.1095	5
100.2633	10
101.0351	6
101.1405	5
102.9729	5
103.0899	10
103.286	5
104.1302	7
104.3302	7
105.0691	36
106.1083	9
106.2019	12
107.0848	150
107.3385	9
108.0057	12
108.0586	5
108.3474	7
108.995	6
109.1007	110
110.9783	11
111.0823	10
111.1138	23
111.1835	5
112.0115	8
112.0885	5
112.1156	6
112.2237	5
112.2405	8
113.0434	6
113.0973	11
113.1767	11
113.3404	7
113.9797	13
114.043	16
114.3495	8
114.9825	5
115.0075	9
115.2877	11
116.0396	8
117.1489	7
118.0991	8
118.1477	6
118.157	12
118.9663	12
118.9775	10
119.0852	56
120.1126	7
121.0649	5
121.1001	50
121.9975	9
122.022	9
122.0689	5
122.1025	16
122.1501	10
122.1758	8
122.2595	9
122.2835	9
123.1007	5
123.1164	18
124.1447	12
124.1553	6
124.3584	6
125.0606	7
125.0983	8
126.0213	356
126.9744	6
127.0178	9
127.2414	6
128.0013	11
128.0171	8
128.0426	10
129.0369	17
130.1921	7
130.3149	11
131.0061	10
131.0118	11
131.0344	15
132.013	10
132.1486	10
133.0002	10
133.0294	6
133.0675	5
133.1022	18
133.1225	15
133.1804	6
133.2795	5
134.0597	12
134.072	5
134.1692	6
134.2325	10
134.2898	6
134.3543	10
135.1167	24
135.278	8
136.0005	11
136.1214	11
137.1004	11
137.1109	6
138.0201	6
138.095	7
138.1269	5
138.3494	8
139.1259	10
139.3226	12
140.1398	6
140.9778	7
141.0387	6
141.1893	9
141.3234	6
142.1128	5
143.0899	5
144.1341	6
145.0998	30
145.1109	6
145.9523	9
146.0664	6
146.1944	11
146.2261	8
147.1159	85
148.1213	40
148.2399	12
149.0561	16
149.0946	11
149.1318	107
149.1527	8
149.237	8
149.2833	6
149.2964	7
150.0988	7
150.1345	5
150.2446	7
150.3206	6
151.1088	18
152.095	10
153.9437	5
155.0124	8
155.1906	14
155.9466	5
156.0149	7
157.0735	6
157.0993	24
157.1168	7
157.2572	6
157.2804	13
158.0788	6
158.114	10
158.1648	8
158.9965	11
159.1164	90
160.1185	14
160.2382	9
161.1317	296
162.1028	23
162.1095	20
162.1352	33
162.1472	9
162.3308	17
163.0374	5
163.111	115
163.1354	9
163.1469	62
163.1981	7
164.0238	6
164.0335	13
164.0991	8
164.1514	11
164.9613	9
165.0041	6
165.0762	21
165.1245	16
166.216	9
166.9877	9
167.0658	8
167.1386	12
167.1684	8
167.2136	9
168.0447	6
168.1295	6
168.1566	9
168.945	5
169.0016	9
169.0272	6
169.0998	13
169.9382	6
170.0646	9
170.1949	9
170.3022	5
171.1151	26
171.1633	5
171.1826	6
171.3274	8
172.1204	13
172.9687	5
173.1312	50
174.1348	11
175.1121	44
175.1476	254
176.1167	8
176.1515	23
176.1865	7
176.3522	5
177.127	222
177.1645	12
178.0076	11
178.1274	12
178.1361	7
178.1441	7
178.1644	7
178.2199	11
179.1354	13
179.1536	10
180.0308	15
180.0865	6
180.9954	6
181.0345	9
181.1003	11
181.3475	6
182.1179	10
183.0481	5
183.114	11
183.1959	18
184.0431	5
184.0885	6
185.0801	6
185.1085	10
185.1319	127
185.2823	11
186.0435	10
186.1346	15
186.9672	6
187.1093	10
187.1481	71
187.2944	10
187.9643	6
188.1126	7
188.1535	10
188.1743	14
189.0879	11
189.1101	10
189.1262	96
189.1633	191
189.2416	11
190.0578	8
190.1278	14
190.1676	15
191.0162	10
191.129	22
191.1422	82
191.2314	6
191.995	9
192.0944	6
192.2555	6
193.0658	6
195.0975	8
195.1403	5
195.1939	21
195.9886	10
196.0454	8
196.1224	12
196.2411	6
197.1008	9
197.1324	43
197.9984	8
198.1337	10
199.1475	129
200.1135	12
200.129	8
200.1521	13
200.2198	5
201.1633	999
202.0186	7
202.0821	8
202.0962	7
202.1669	109
202.252	9
203.0709	5
203.1216	6
203.142	90
203.1807	99
203.2976	16
203.3186	6
203.3546	5
204.1494	6
204.1804	22
204.3257	7
204.9674	6
205.0511	5
205.1133	10
205.1574	7
205.2772	7
205.2921	8
206.0486	23
206.1598	19
206.2976	15
206.9706	8
207.0509	11
207.3344	9
208.0633	631
209.0654	37
209.2309	7
209.3427	7
210.0601	28
210.1381	11
211.0791	6
211.1128	23
211.1291	8
211.148	122
211.1855	7
211.3247	6
212.0702	8
212.1053	7
212.1513	15
213.0661	16
213.1628	132
213.9665	7
214.1658	23
215.179	714
215.9776	6
216.022	6
216.1819	128
217.1173	8
217.1598	85
217.1941	52
217.9961	7
218.0434	9
218.1998	13
219.1728	15
220.2651	6
221.0384	7
222.0768	47
222.1043	6
222.1431	7
223.148	13
223.2136	7
223.2753	5
224.0788	10
224.2183	13
225.0694	17
225.075	18
225.1291	5
225.1633	56
225.2599	7
226.0895	6
226.1662	29
226.1776	7
226.2134	7
226.3227	6
227.1775	73
227.2659	8
228.1817	7
229.1584	205
229.1948	119
230.119	7
230.1597	22
230.1976	32
230.9877	10
231.075	6
231.1721	52
231.2248	5
232.1094	7
232.1624	7
232.1782	8
232.2262	6
233.0344	6
233.1279	7
233.194	9
234.0775	34
236.0932	44
237.0954	12
237.161	15
238.2149	6
238.9935	11
239.1789	90
239.9838	5
240.0373	8
240.1853	32
240.2101	10
241.0604	8
241.0737	6
241.1962	62
241.2151	6
242.0937	6
242.134	7
242.2009	8
242.9932	8
243.1095	8
243.1744	102
243.193	13
243.2098	157
244.1772	20
244.2124	26
245.0564	6
245.1743	5
245.1893	29
246.1296	6
246.1886	7
247.1729	5
248.0971	58
249.9825	10
250.0918	9
250.1163	27
250.2607	6
250.986	6
251.1113	10
251.1782	30
252.9425	9
253.1955	48
254.202	16
255.1301	8
255.1813	6
255.2121	23
255.2439	6
256.2106	7
257.1899	165
257.225	13
258.1079	6
258.1943	34
258.2248	8
258.2553	7
259.0053	24
260.0947	25
261.0984	6
261.2216	8
261.3491	12
262.1103	158
263.1151	21
264.0553	12
264.1207	15
264.1638	8
265.1234	5
265.1724	7
265.195	57
266.1943	13
267.1364	10
267.207	16
269.0878	8
269.1879	23
270.9848	6
271.2047	21
273.2018	7
274.073	8
274.11	56
275.0564	6
275.1109	11
276.1278	64
279.2106	25
279.2387	6
280.0347	7
280.2164	10
281.2251	7
282.1206	5
282.1595	5
282.2283	5
282.2566	8
282.2811	17
283.1908	11
283.206	20
283.3287	6
284.1315	21
284.2017	8
284.2225	7
285.2217	12
286.1095	35
287.198	7
288.1263	139
289.1314	37
290.1405	36
290.9709	11
292.2139	9
293.1434	8
293.228	26
295.2389	24
295.2802	9
296.1002	9
296.228	5
297.1388	7
297.2193	14
297.2565	94
298.2601	17
299.2616	5
300.1271	76
301.0266	6
301.1251	9
301.2688	6
302.1409	165
303.0109	6
303.1255	6
303.1417	26
304.1496	22
304.1646	10
305.133	7
305.1607	7
309.2879	16
311.2354	18
311.2725	40
312.2499	6
312.272	10
313.3243	7
314.1176	7
314.1428	94
315.016	7
315.1436	37
315.1861	5
316.1569	55
317.1098	5
317.1581	15
318.2132	6
321.2566	713
322.2081	8
322.2605	166
323.1536	6
323.2652	14
323.2901	5
324.1621	7
325.988	16
326.1408	7
328.136	7
328.1565	52
329.1531	7
330.1692	27
331.0361	8
332.0072	7
332.0754	10
333.1405	6
335.3052	5
338.3108	6
339.2674	999
340.1552	24
340.2734	188
341.0644	9
341.277	24
342.172	65
342.1826	56
343.1797	16
344.1621	10
344.1873	16
345.1798	8
346.2167	13
347.0946	8
354.1266	5
354.1737	86
354.2008	8
355.0694	7
355.1759	29
356.1877	63
356.21	12
357.1616	12
357.1921	11
358.1806	8
358.2061	8
366.182	9
368.1865	63
369.0683	6
369.0773	10
369.185	14
370.1993	11
377.1414	9
378.2624	8
378.3467	5
382.1655	6
382.2036	76
383.2111	10
384.2251	9
393.2251	6
395.2286	6
396.2247	8
408.2203	7
409.1663	8
409.2273	7
410.233	8
422.234	13
423.2373	8
423.2651	13
428.9474	13
432.2805	10
434.2081	10
446.2688	8
447.2755	19
449.1153	6
454.2622	6
462.3297	6
464.282	745
465.2852	169
465.321	11
466.2826	40
467.2798	6
469.0894	6
493.2722	12
509.3047	5
521.2182	6
