Mass spectrum: Suberic acid; LC-ESI-QTOF; MS2; CE: 20; R=; [M+H]+
Name: Suberic acid
Name: Octanedioic acid
Formula: C8H14O4
Exact mass: 174.0892
SMILES: OC(=O)CCCCCCC(O)=O
InChI: InChI=1S/C8H14O4/c9-7(10)5-3-1-2-4-6-8(11)12/h1-6H2,(H,9,10)(H,11,12)
Instrument: maXis plus UHR-ToF-MS, Bruker Daltonics
Instrument type: LC-ESI-QTOF
Ms type: MS2
Ion mode: POSITIVE
Ionization: ESI
Fragmentation mode: CID
Collision energy: 20
Column name: BEH C18 1.7um, 2.1x100mm, Waters
Retention time: 3.087 min
Base peak: 85.0582
Precursor m/z: 175.0965
Precursor type: [M+H]+
m/z	relative intensity
67.0537	31
68.058	1
79.0541	8
83.0849	999
87.0803	25
89.0805	1
95.0492	3
95.0851	4
97.065	3
107.0483	1
111.0797	44
121.0645	1
129.0903	2
139.0765	2
157.0859	5
175.0965	13
