Mass spectrum: L-Rhamnose; LC-ESI-QTOF; MS2; CE: 10; R=; [M-H]-
Name: L-Rhamnose
Name: (2R,3R,4S,5S)-2,3,4,5-tetrahydroxyhexanal
Formula: C6H12O5
Exact mass: 164.06848
SMILES: C[C@@H]([C@@H]([C@H]([C@H](C=O)O)O)O)O
InChI: InChI=1S/C6H12O5/c1-3(8)5(10)6(11)4(9)2-7/h2-6,8-11H,1H3/t3-,4-,5-,6-/m0/s1
Instrument: maXis plus UHR-ToF-MS, Bruker Daltonics
Instrument type: LC-ESI-QTOF
Ms type: MS2
Ion mode: NEGATIVE
Ionization: ESI
Fragmentation mode: CID
Collision energy: 10
Column name: BEH C18 1.7um, 2.1x100mm, Waters
Retention time: 0.604 min
Base peak: 163.0617
Precursor m/z: 163.0612
Precursor type: [M-H]-
m/z	relative intensity
59.0138	999
146.0325	387
