Mass spectrum: D(+)-Raffinose; LC-ESI-QTOF; MS2; CE: 20; R=; [M+H]+
Name: D(+)-Raffinose
Name: RAFFINOSE
Name: (2S,3R,4S,5R,6R)-2-[[(2R,3S,4S,5R,6R)-6-[(2S,3S,4S,5R)-3,4-dihydroxy-2,5-bis(hydroxymethyl)oxolan-2-yl]oxy-3,4,5-trihydroxyoxan-2-yl]methoxy]-6-(hydroxymethyl)oxane-3,4,5-triol
Formula: C18H32O16
Exact mass: 504.16903
SMILES: C([C@@H]1[C@@H]([C@@H]([C@H]([C@H](O1)OC[C@@H]2[C@H]([C@@H]([C@H]([C@H](O2)O[C@]3([C@H]([C@@H]([C@H](O3)CO)O)O)CO)O)O)O)O)O)O)O
InChI: InChI=1S/C18H32O16/c19-1-5-8(22)11(25)13(27)16(31-5)30-3-7-9(23)12(26)14(28)17(32-7)34-18(4-21)15(29)10(24)6(2-20)33-18/h5-17,19-29H,1-4H2/t5-,6-,7-,8+,9-,10-,11+,12+,13-,14-,15+,16+,17-,18+/m1/s1
Instrument: maXis plus UHR-ToF-MS, Bruker Daltonics
Instrument type: LC-ESI-QTOF
Ms type: MS2
Ion mode: POSITIVE
Ionization: ESI
Fragmentation mode: CID
Collision energy: 20
Column name: BEH C18 1.7um, 2.1x100mm, Waters
Retention time: 0.590 min
Base peak: 325.1129
Precursor m/z: 505.1763
Precursor type: [M+H]+
m/z	relative intensity
85.028	216
163.0595	597
190.2027	185
205.0839	195
255.2576	216
307.0953	195
325.1147	999
326.1143	195
