Mass spectrum: Sinapinic acid; LC-ESI-QTOF; MS2; CE: 10; R=; [M+H]+
Name: Sinapic acid
Name: 3,5-dimethoxy-4-hydroxycinnamic acid
Name: 3-(4-hydroxy-3,5-dimethoxy-phenyl)prop-2-enoic acid
Formula: C11H12O5
Exact mass: 224.06847
SMILES: COC1=CC(=CC(=C1O)OC)/C=C/C(=O)O
InChI: InChI=1S/C11H12O5/c1-15-8-5-7(3-4-10(12)13)6-9(16-2)11(8)14/h3-6,14H,1-2H3,(H,12,13)/b4-3+
Instrument: maXis plus UHR-ToF-MS, Bruker Daltonics
Instrument type: LC-ESI-QTOF
Ms type: MS2
Ion mode: POSITIVE
Ionization: ESI
Fragmentation mode: CID
Collision energy: 10
Column name: BEH C18 1.7um, 2.1x100mm, Waters
Retention time: 3.156 min
Base peak: 207.0644
Precursor m/z: 225.0757
Precursor type: [M+H]+
m/z	relative intensity
119.0481	1
147.0437	6
149.0596	1
155.0708	1
175.0385	107
176.042	6
181.0863	2
183.0651	18
184.0677	1
192.0412	6
193.0494	5
207.0645	999
208.0682	120
209.0436	3
223.0592	3
224.0674	13
225.0753	145
