Mass spectrum: 3-Hydroxyphenylacetic acid; LC-ESI-QTOF; MS2; CE: 20; R=; [M+H]+
Name: 3-Hydroxyphenylacetic acid
Name: 2-(3-hydroxyphenyl)acetic acid
Formula: C8H8O3
Exact mass: 152.04734
SMILES: c1cc(cc(c1)O)CC(=O)O
InChI: InChI=1S/C8H8O3/c9-7-3-1-2-6(4-7)5-8(10)11/h1-4,9H,5H2,(H,10,11)
Instrument: maXis plus UHR-ToF-MS, Bruker Daltonics
Instrument type: LC-ESI-QTOF
Ms type: MS2
Ion mode: POSITIVE
Ionization: ESI
Fragmentation mode: CID
Collision energy: 20
Column name: BEH C18 1.7um, 2.1x100mm, Waters
Retention time: 2.875 min
Base peak: 107.0491
Precursor m/z: 153.0546
Precursor type: [M+H]+
m/z	relative intensity
77.0384	36
79.0541	81
105.0429	11
107.0488	999
129.0447	5
