Mass spectrum: Xanthosine; LC-ESI-QTOF; MS2; CE: 40; R=; [M+H]+
Name: Xanthosine
Name: 9-[(2R,3R,4S,5R)-3,4-dihydroxy-5-(hydroxymethyl)oxolan-2-yl]-3H-purine-2,6-dione
Formula: C10H12N4O6
Exact mass: 284.0757
SMILES: OC[C@H]1O[C@H]([C@H](O)[C@@H]1O)N1C=NC2=C1NC(=O)NC2=O
InChI: InChI=1S/C10H12N4O6/c15-1-3-5(16)6(17)9(20-3)14-2-11-4-7(14)12-10(19)13-8(4)18/h2-3,5-6,9,15-17H,1H2,(H2,12,13,18,19)/t3-,5-,6-,9-/m1/s1
Instrument: maXis plus UHR-ToF-MS, Bruker Daltonics
Instrument type: LC-ESI-QTOF
Ms type: MS2
Ion mode: POSITIVE
Ionization: ESI
Fragmentation mode: CID
Collision energy: 40
Column name: BEH C18 1.7um, 2.1x100mm, Waters
Retention time: 0.725 min
Base peak: 153.0404
Precursor m/z: 285.083
Precursor type: [M+H]+
m/z	relative intensity
55.0173	163
57.0335	347
61.0279	214
69.0334	214
71.0122	409
73.0281	413
79.055	31
81.0089	35
83.0734	38
85.0282	240
87.0445	25
97.0273	57
103.0379	58
110.0353	173
133.0519	39
135.0315	29
136.0138	313
150.0414	44
153.0403	999
154.0237	519
154.0441	46
155.029	62
