Mass spectrum: ?-Tauromuricholic acid; LC-ESI-QTOF; MS2; CE: 10; R=; [M+H]+
Name: ?-Tauromuricholic acid
Name: 2-[[(4R)-4-[(3R,5R,6S,7S,8S,9S,10R,13R,14S)-3,6,7-trihydroxy-10,13-dimethyl-2,3,4,5,6,7,8,9,11,12,14,15,16,17-tetradecahydro-1H-cyclopenta[a]phenanthren-17-yl]pentanoyl]amino]ethanesulfonic acid
Formula: C26H45NO7S
Exact mass: 515.2917
SMILES: O=S(=O)(O)CCNC(=O)CC[C@H](C1CC[C@@H]2[C@]1(C)CC[C@H]4[C@H]2[C@H](O)[C@@H](O)[C@@H]3C[C@H](O)CC[C@@]34C)C
InChI: InChI=1S/C26H45NO7S/c1-15(4-7-21(29)27-12-13-35(32,33)34)17-5-6-18-22-19(9-11-25(17,18)2)26(3)10-8-16(28)14-20(26)23(30)24(22)31/h15-20,22-24,28,30-31H,4-14H2,1-3H3,(H,27,29)(H,32,33,34)/t15-,16-,17?,18+,19+,20+,22+,23+,24+,25-,26-/m1/s1
Instrument: maXis plus UHR-ToF-MS, Bruker Daltonics
Instrument type: LC-ESI-QTOF
Ms type: MS2
Ion mode: POSITIVE
Ionization: ESI
Fragmentation mode: CID
Collision energy: 10
Column name: BEH C18 1.7um, 2.1x100mm, Waters
Retention time: 3.549 min
Base peak: 516.2985
Precursor m/z: 516.299
Precursor type: [M+H]+
m/z	relative intensity
337.2517	1
355.2636	1
427.3388	1
462.2676	13
463.2506	1
463.2719	2
479.1868	1
479.2358	1
479.2472	1
479.2703	2
479.2893	1
479.3184	2
480.2777	999
481.2807	295
482.2795	63
483.2785	8
498.2881	88
499.292	22
500.2906	6
501.296	1
514.2908	1
515.2771	1
516.2988	384
518.3015	22
519.3002	3
