Mass spectrum: ascr#17; LC-ESI-QTOF; MS2; CE: 40; R=; [M-H]-
Name: ascr#17
Name: (E)-10-(3,5-dihydroxy-6-methyloxan-2-yl)oxyundec-2-enoic acid
Formula: C17H30O6
Exact mass: 330.2042
SMILES: CC(CCCCCC\C=C\C(O)=O)OC1OC(C)C(O)CC1O
InChI: InChI=1S/C17H30O6/c1-12(9-7-5-3-4-6-8-10-16(20)21)22-17-15(19)11-14(18)13(2)23-17/h8,10,12-15,17-19H,3-7,9,11H2,1-2H3,(H,20,21)/b10-8+
Instrument: maXis plus UHR-ToF-MS, Bruker Daltonics
Instrument type: LC-ESI-QTOF
Ms type: MS2
Ion mode: NEGATIVE
Ionization: ESI
Fragmentation mode: CID
Collision energy: 40
Column name: BEH C18 1.7um, 2.1x100mm, Waters
Retention time: 3.956 min
Base peak: 329.1994
Precursor m/z: 329.197
Precursor type: [M-H]-
m/z	relative intensity
80.0225	3
81.0306	150
83.0464	999
87.0333	2
97.0248	3
109.0306	4
111.0451	65
112.0489	8
126.0347	3
128.0515	1
140.1161	3
147.9655	2
199.1071	1
199.1384	20
292.191	1
