Mass spectrum: 12-Methyltetradecanoic acid; LC-ESI-QTOF; MS2; CE: 10; R=; [M+H]+
Name: 12-Methyltetradecanoic acid
Formula: C15H30O2
Exact mass: 242.2246
SMILES: CCC(C)CCCCCCCCCCC(=O)O
InChI: InChI=1S/C15H30O2/c1-3-14(2)12-10-8-6-4-5-7-9-11-13-15(16)17/h14H,3-13H2,1-2H3,(H,16,17)
Instrument: maXis plus UHR-ToF-MS, Bruker Daltonics
Instrument type: LC-ESI-QTOF
Ms type: MS2
Ion mode: POSITIVE
Ionization: ESI
Fragmentation mode: CID
Collision energy: 10
Column name: BEH C18 1.7um, 2.1x100mm, Waters
Retention time: 6.965 min
Base peak: 88.0748
Precursor m/z: 243.2319
Precursor type: [M+H]+
m/z	relative intensity
49.0526	17
57.0695	38
69.07	6
71.0491	14
71.0854	42
85.1004	37
89.059	10
101.0591	13
109.1021	6
113.1208	8
171.1384	9
177.1624	6
181.1569	6
183.1986	9
187.1705	36
190.2055	6
191.1418	8
195.1383	15
200.2026	8
205.1826	8
208.0015	9
221.1922	6
223.2054	8
226.1799	9
233.1653	9
240.1595	6
243.2318	999
245.1178	9
245.1303	12
