Mass spectrum: L-Carnitine; LC-ESI-QTOF; MS2; CE: 40; R=; [M+H]+
Name: L-Carnitine
Name: DL-Carnitine
Name: 3-hydroxy-4-(trimethylazaniumyl)butanoate
Formula: C7H15NO3
Exact mass: 161.10519
SMILES: C[N+](C)(C)CC(CC(=O)[O-])O
InChI: InChI=1S/C7H15NO3/c1-8(2,3)5-6(9)4-7(10)11/h6,9H,4-5H2,1-3H3
Instrument: maXis plus UHR-ToF-MS, Bruker Daltonics
Instrument type: LC-ESI-QTOF
Ms type: MS2
Ion mode: POSITIVE
Ionization: ESI
Fragmentation mode: CID
Collision energy: 40
Column name: BEH C18 1.7um, 2.1x100mm, Waters
Retention time: 0.590 min
Base peak: 162.112
Precursor m/z: 162.1125
Precursor type: [M+H]+
m/z	relative intensity
46.1224	1
48.0443	2
48.0553	1
54.0085	2
55.063	1
57.0325	504
61.0274	104
66.0094	1
67.0163	2
70.0646	6
71.0127	2
71.0725	3
73.0285	4
73.0881	11
84.0445	2
84.0808	14
85.0279	999
87.0679	5
87.0894	2
100.1118	2
102.0909	403
103.0387	90
103.986	1
105.0442	4
105.0794	1
