Mass spectrum: 3-oxo-C12 homoserine lactone; LC-ESI-QTOF; MS2; CE: 20; R=; [M+H]+
Name: 3-oxo-C12 homoserine lactone
Name: PA Autoinducer
Name: 3-oxo-N-(2-oxooxolan-3-yl)dodecanamide
Formula: C16H27NO4
Exact mass: 297.19401
SMILES: CCCCCCCCCC(=O)CC(=O)NC1CCOC1=O
InChI: InChI=1S/C16H27NO4/c1-2-3-4-5-6-7-8-9-13(18)12-15(19)17-14-10-11-21-16(14)20/h14H,2-12H2,1H3,(H,17,19)
Instrument: maXis plus UHR-ToF-MS, Bruker Daltonics
Instrument type: LC-ESI-QTOF
Ms type: MS2
Ion mode: POSITIVE
Ionization: ESI
Fragmentation mode: CID
Collision energy: 20
Column name: BEH C18 1.7um, 2.1x100mm, Waters
Retention time: 5.277 min
Base peak: 298.2009
Precursor m/z: 298.2013
Precursor type: [M+H]+
m/z	relative intensity
68.0492	1
68.0583	1
71.0115	16
73.0631	1
81.0692	95
84.0439	40
85.0276	6
85.1007	78
87.0802	1
95.085	67
97.1005	3
98.0596	106
99.0429	1
102.0546	999
104.0587	2
113.0585	2
126.0541	3
137.1327	4
155.1423	70
197.1531	789
198.1565	106
199.1585	3
228.197	2
238.1792	13
239.1824	2
240.1952	66
241.1989	10
252.1952	25
253.1981	3
256.1903	12
257.1938	2
257.209	1
270.2061	14
280.1902	14
281.1945	2
298.2011	30
