Mass spectrum: Uric acid; LC-ESI-QTOF; MS2; CE: 10; R=; [M+H]+
Name: Uric acid
Name: 7,9-dihydro-3H-purine-2,6,8-trione
Formula: C5H4N4O3
Exact mass: 168.0283
SMILES: c12c([nH]c(n1)O)nc(nc2O)O
InChI: InChI=1S/C5H4N4O3/c10-3-1-2(7-4(11)6-1)8-5(12)9-3/h(H4,6,7,8,9,10,11,12)
Instrument: maXis plus UHR-ToF-MS, Bruker Daltonics
Instrument type: LC-ESI-QTOF
Ms type: MS2
Ion mode: POSITIVE
Ionization: ESI
Fragmentation mode: CID
Collision energy: 10
Column name: BEH C18 1.7um, 2.1x100mm, Waters
Retention time: 0.683 min
Base peak: 60.0436
Precursor m/z: 169.0356
Precursor type: [M+H]+
m/z	relative intensity
169.0355	999
