Mass spectrum: DL-4-Hydroxyphenyllactic acid; LC-ESI-QTOF; MS2; CE: 20; R=; [M-H]-
Name: DL-4-Hydroxyphenyllactic acid
Name: 2-hydroxy-2-(4-hydroxyphenyl)propanoic acid
Formula: C9H10O4
Exact mass: 182.0579
SMILES: CC(c1ccc(cc1)O)(C(=O)O)O
InChI: InChI=1S/C9H10O4/c1-9(13,8(11)12)6-2-4-7(10)5-3-6/h2-5,10,13H,1H3,(H,11,12)
Instrument: maXis plus UHR-ToF-MS, Bruker Daltonics
Instrument type: LC-ESI-QTOF
Ms type: MS2
Ion mode: NEGATIVE
Ionization: ESI
Fragmentation mode: CID
Collision energy: 20
Column name: BEH C18 1.7um, 2.1x100mm, Waters
Retention time: 2.354 min
Base peak: 181.0506
Precursor m/z: 181.0506
Precursor type: [M-H]-
m/z	relative intensity
72.9937	999
74.0016	26
107.0508	7
119.0514	182
120.0552	8
134.0371	14
135.0449	226
136.049	20
163.0398	455
164.0427	17
181.05	135
