Mass spectrum: 5?-CHOLANIC ACID-3?-OL-7_12-DIONE; LC-ESI-QTOF; MS2; CE: 10; R=; [M+H]+
Name: 5?-CHOLANIC ACID-3?-OL-7_12-DIONE
Name: 3-Hydroxy-7,12-diketocholanoic acid
Name: (4R)-4-[(3R,5S,8R,9S,10S,13R,14S,17R)-3-hydroxy-10,13-dimethyl-7,12-dioxo-2,3,4,5,6,8,9,11,14,15,16,17-dodecahydro-1H-cyclopenta[a]phenanthren-17-yl]pentanoic acid
Formula: C24H36O5
Exact mass: 404.2563
SMILES: C[C@H](CCC(=O)O)[C@H]1CC[C@@H]2[C@@]1(C(=O)C[C@H]3[C@H]2C(=O)C[C@H]4[C@@]3(CC[C@H](C4)O)C)C
InChI: InChI=1S/C24H36O5/c1-13(4-7-21(28)29)16-5-6-17-22-18(12-20(27)24(16,17)3)23(2)9-8-15(25)10-14(23)11-19(22)26/h13-18,22,25H,4-12H2,1-3H3,(H,28,29)/t13-,14+,15-,16-,17+,18+,22+,23+,24-/m1/s1
Instrument: maXis plus UHR-ToF-MS, Bruker Daltonics
Instrument type: LC-ESI-QTOF
Ms type: MS2
Ion mode: POSITIVE
Ionization: ESI
Fragmentation mode: CID
Collision energy: 10
Column name: BEH C18 1.7um, 2.1x100mm, Waters
Retention time: 4.147 min
Base peak: 405.2631
Precursor m/z: 405.2636
Precursor type: [M+H]+
m/z	relative intensity
243.1361	1
305.2268	3
309.1846	1
323.2368	13
324.239	2
333.2208	2
341.2475	1
351.2316	84
352.235	13
353.2382	1
369.2422	172
370.2452	32
371.2469	3
387.2525	999
388.2558	264
389.2592	28
390.2654	1
405.2633	865
407.2699	25
