Mass spectrum: Eicosapentaenoic acid; LC-ESI-QTOF; MS2; CE: 10; R=; [M-H]-
Name: Eicosapentaenoic acid
Name: (5Z,8Z,11Z,14Z,17Z)-icosa-5,8,11,14,17-pentaenoic acid
Formula: C20H30O2
Exact mass: 302.2246
SMILES: CC/C=C\C/C=C\C/C=C\C/C=C\C/C=C\CCCC(=O)O
InChI: InChI=1S/C20H30O2/c1-2-3-4-5-6-7-8-9-10-11-12-13-14-15-16-17-18-19-20(21)22/h3-4,6-7,9-10,12-13,15-16H,2,5,8,11,14,17-19H2,1H3,(H,21,22)/b4-3-,7-6-,10-9-,13-12-,16-15-
Instrument: maXis plus UHR-ToF-MS, Bruker Daltonics
Instrument type: LC-ESI-QTOF
Ms type: MS2
Ion mode: NEGATIVE
Ionization: ESI
Fragmentation mode: CID
Collision energy: 10
Column name: BEH C18 1.7um, 2.1x100mm, Waters
Retention time: 6.580 min
Base peak: 301.2167
Precursor m/z: 301.2173
Precursor type: [M-H]-
m/z	relative intensity
127.1128	1
203.1775	2
217.1213	2
257.2271	45
271.2072	2
301.2166	999
