Mass spectrum: Kaempferol; LC-ESI-QTOF; MS2; CE: 40; R=; [M+H]+
Name: Kaempferol
Name: 3,5,7-trihydroxy-2-(4-hydroxyphenyl)chromen-4-one
Formula: C15H10O6
Exact mass: 286.0477
SMILES: c1cc(ccc1c2c(c(=O)c3c(cc(cc3o2)O)O)O)O
InChI: InChI=1S/C15H10O6/c16-8-3-1-7(2-4-8)15-14(20)13(19)12-10(18)5-9(17)6-11(12)21-15/h1-6,16-18,20H
Instrument: maXis plus UHR-ToF-MS, Bruker Daltonics
Instrument type: LC-ESI-QTOF
Ms type: MS2
Ion mode: POSITIVE
Ionization: ESI
Fragmentation mode: CID
Collision energy: 40
Column name: BEH C18 1.7um, 2.1x100mm, Waters
Retention time: 3.992 min
Base peak: 287.0548
Precursor m/z: 287.055
Precursor type: [M+H]+
m/z	relative intensity
62.0234	2
75.0649	4
76.998	3
79.0416	2
83.0344	2
85.0519	2
87.0184	4
88.9983	3
90.068	6
93.0063	2
93.0664	4
94.0161	2
98.0145	2
99.0297	2
101.0837	4
102.0099	3
103.0022	3
104.0501	2
106.0515	2
106.0618	3
107.0092	3
109.0285	4
110.9945	2
113.9794	3
117.9778	2
122.0564	2
123.0515	3
125.0266	4
126.0542	2
127.0188	5
131.0585	2
131.9925	2
134.0107	2
135.0679	1
137.0252	6
139.0541	2
139.0618	3
140.0693	4
141.0642	3
142.0403	2
143.0307	4
143.0454	4
143.9915	2
144.0403	2
144.0653	3
145.0241	3
145.0877	3
146.0689	4
147.0451	52
148.0165	2
148.0507	5
149.0258	5
150.0155	3
150.0326	2
150.0468	3
151.0548	1
153.0194	846
154.0226	46
154.0578	2
154.0662	4
155.0229	9
155.0486	5
156.0365	2
157.0292	7
157.066	101
158.0145	3
158.0358	3
158.0698	11
159.0434	3
161.0219	3
162.0416	3
162.0496	2
162.0647	6
163.0377	5
165.0195	245
165.9782	4
165.9868	2
167.024	6
167.0498	13
167.9956	4
168.0173	5
168.0576	5
169.0281	4
169.0663	12
169.9985	1
171.0457	55
172.0494	11
173.061	10
174.0056	3
174.0318	2
175.0397	7
175.0764	7
176.0472	3
177.0216	1
178.0455	2
179.0059	3
179.036	7
179.0501	6
180.0572	2
180.9767	2
181.0164	9
181.0278	3
181.0769	3
183.028	7
183.0368	6
184.0365	2
184.0532	17
185.0607	72
186.064	12
186.9879	4
187.0395	5
187.0637	2
188.0473	5
189.0573	10
191.0342	3
191.0695	2
192.0815	3
193.0092	3
194.0224	10
195.0271	4
195.0456	7
195.0559	4
197.0007	3
197.0594	19
199.0389	5
201.0071	3
201.0549	18
202.0626	13
203.0347	12
203.0713	22
204.0415	5
207.0246	3
209.0563	2
211.026	5
212.0461	13
213.0545	341
214.0574	39
215.0334	4
216.0412	10
217.0498	13
217.076	3
218.0176	3
218.052	2
219.0292	3
221.0085	1
223.0393	9
224.0487	4
227.0344	3
229.0499	75
230.0547	10
231.0299	3
231.0649	56
232.0348	8
239.0359	2
241.0492	73
242.055	26
243.0417	2
243.0651	16
244.037	4
245.0422	6
246.0497	6
249.0294	3
252.0538	3
257.0452	13
258.0523	166
259.0004	4
259.0592	75
259.9999	2
262.992	1
265.0594	2
269.0437	27
269.069	1
285.0386	10
286.046	2
287.0545	999
