Mass spectrum: 3-oxo-C8-homoserine lactone; LC-ESI-QTOF; MS2; CE: 20; R=; [M-H]-
Name: 3-oxo-C8-homoserine lactone
Name: N-(3X-Oxooctanoyl)-DL-homoserine lactone
Name: 3-oxo-N-(2-oxooxolan-3-yl)octanamide
Formula: C12H19NO4
Exact mass: 241.1314
SMILES: CCCCCC(=O)CC(=O)NC1CCOC1=O
InChI: InChI=1S/C12H19NO4/c1-2-3-4-5-9(14)8-11(15)13-10-6-7-17-12(10)16/h10H,2-8H2,1H3,(H,13,15)
Instrument: maXis plus UHR-ToF-MS, Bruker Daltonics
Instrument type: LC-ESI-QTOF
Ms type: MS2
Ion mode: NEGATIVE
Ionization: ESI
Fragmentation mode: CID
Collision energy: 20
Column name: BEH C18 1.7um, 2.1x100mm, Waters
Retention time: 3.786 min
Base peak: 240.1247
Precursor m/z: 240.1241
Precursor type: [M-H]-
m/z	relative intensity
52.0194	2
57.0346	84
69.035	2
70.0299	45
72.0097	9
81.035	1
82.0299	9
84.0093	1
85.066	3
94.0307	2
95.0382	9
96.0212	1
96.0462	1
98.0018	3
98.025	5
100.0408	10
101.0483	1
110.0258	1
112.0413	20
113.0978	301
115.0771	212
124.0412	1
126.0205	23
142.0516	16
148.1121	2
166.1246	37
167.1284	2
178.1249	10
179.1282	2
181.0879	1
192.1035	32
193.1073	2
195.1017	5
196.1357	3
198.1143	3
208.0979	1
210.1141	7
222.1147	10
238.1091	3
240.1249	999
