Mass spectrum: L-Methionine; LC-ESI-QTOF; MS2; CE: 20; R=; [M+H]+
Name: L-Methionine
Name: (2S)-2-amino-4-methylsulfanylbutanoic acid
Formula: C5H11NO2S
Exact mass: 149.05105
SMILES: CSCC[C@@H](C(=O)O)N
InChI: InChI=1S/C5H11NO2S/c1-9-3-2-4(6)5(7)8/h4H,2-3,6H2,1H3,(H,7,8)/t4-/m0/s1
Instrument: maXis plus UHR-ToF-MS, Bruker Daltonics
Instrument type: LC-ESI-QTOF
Ms type: MS2
Ion mode: POSITIVE
Ionization: ESI
Fragmentation mode: CID
Collision energy: 20
Column name: BEH C18 1.7um, 2.1x100mm, Waters
Retention time: 0.698 min
Base peak: 104.0526
Precursor m/z: 150.0583
Precursor type: [M+H]+
m/z	relative intensity
48.0554	2
49.0282	1
52.0754	1
54.0496	1
55.0447	2
57.0325	25
58.0285	2
58.0523	3
64.0092	6
68.9798	1
70.9954	4
72.0023	11
74.023	999
74.0595	741
74.9895	46
75.0257	68
75.9615	1
77.0052	43
77.0222	3
78.0079	1
78.985	2
84.0438	340
85.0106	41
85.0281	241
87.0258	944
89.0214	34
89.0414	13
90.0365	9
91.0211	17
101.0463	9
102.0547	565
103.0582	26
104.0526	962
105	33
105.0367	33
105.0556	48
106.0036	2
115.0208	4
116.0252	2
133.0314	176
150.0589	14
