Mass spectrum: Glycohyodeoxycholic acid; LC-ESI-QTOF; MS2; CE: 10; R=; [M+H]+
Name: Glycohyodeoxycholic acid
Name: SCHEMBL1654508
Name: 2-[4-(3,6-dihydroxy-10,13-dimethyl-2,3,4,5,6,7,8,9,11,12,14,15,16,17-tetradecahydro-1H-cyclopenta[a]phenanthren-17-yl)pentanoylamino]acetic acid
Formula: C26H43NO5
Exact mass: 449.3141
SMILES: CC(CCC(=O)NCC(=O)O)C1CCC2C1(CCC3C2CC(C4C3(CCC(C4)O)C)O)C
InChI: InChI=1S/C26H43NO5/c1-15(4-7-23(30)27-14-24(31)32)18-5-6-19-17-13-22(29)21-12-16(28)8-10-26(21,3)20(17)9-11-25(18,19)2/h15-22,28-29H,4-14H2,1-3H3,(H,27,30)(H,31,32)
Instrument: maXis plus UHR-ToF-MS, Bruker Daltonics
Instrument type: LC-ESI-QTOF
Ms type: MS2
Ion mode: POSITIVE
Ionization: ESI
Fragmentation mode: CID
Collision energy: 10
Column name: BEH C18 1.7um, 2.1x100mm, Waters
Retention time: 4.231 min
Base peak: 450.3212
Precursor m/z: 450.3214
Precursor type: [M+H]+
m/z	relative intensity
175.1489	1
252.1592	1
278.1743	1
315.0705	1
318.2074	1
321.2528	2
334.242	1
339.2692	8
340.2697	1
357.2792	1
414.3002	914
414.3228	65
415.3035	234
416.3064	26
417.3055	1
432.3108	999
432.3345	57
433.314	311
434.3158	31
435.3206	2
441.3115	2
450.3213	582
452.3285	21
