Mass spectrum: Oleoyl-L-Carnitine; LC-ESI-QTOF; MS2; CE: 20; R=; [M+H]+
Name: Oleoyl-L-Carnitine
Name: (3R)-3-[(Z)-octadec-9-enoyl]oxy-4-(trimethylazaniumyl)butanoate
Formula: C25H47NO4
Exact mass: 425.3505
SMILES: CCCCCCCC/C=C\CCCCCCCC(=O)O[C@H](CC(=O)[O-])C[N+](C)(C)C
InChI: InChI=1S/C25H47NO4/c1-5-6-7-8-9-10-11-12-13-14-15-16-17-18-19-20-25(29)30-23(21-24(27)28)22-26(2,3)4/h12-13,23H,5-11,14-22H2,1-4H3/b13-12-/t23-/m1/s1
Instrument: maXis plus UHR-ToF-MS, Bruker Daltonics
Instrument type: LC-ESI-QTOF
Ms type: MS2
Ion mode: POSITIVE
Ionization: ESI
Fragmentation mode: CID
Collision energy: 20
Column name: BEH C18 1.7um, 2.1x100mm, Waters
Retention time: 5.863 min
Base peak: 426.3579
Precursor m/z: 426.3578
Precursor type: [M+H]+
m/z	relative intensity
60.0802	30
71.0851	1
81.0701	1
85.028	107
241.141	1
247.2426	2
255.1591	2
265.2533	4
269.1743	3
283.1916	2
297.2056	1
311.221	2
367.2847	29
368.2887	6
426.3578	999
428.3645	36
