Mass spectrum: N-Alpha-Acetyl-Ornithine; LC-ESI-QTOF; MS2; CE: 10; R=; [M-H]-
Name: N-Alpha-Acetyl-Ornithine
Name: N-acetylornithine
Name: (2S)-2-acetamido-5-aminopentanoic acid
Formula: C7H14N2O3
Exact mass: 174.1004
SMILES: CC(=O)N[C@@H](CCCN)C(O)=O
InChI: InChI=1S/C7H14N2O3/c1-5(10)9-6(7(11)12)3-2-4-8/h6H,2-4,8H2,1H3,(H,9,10)(H,11,12)/t6-/m0/s1
Instrument: maXis plus UHR-ToF-MS, Bruker Daltonics
Instrument type: LC-ESI-QTOF
Ms type: MS2
Ion mode: NEGATIVE
Ionization: ESI
Fragmentation mode: CID
Collision energy: 10
Column name: BEH C18 1.7um, 2.1x100mm, Waters
Retention time: 0.604 min
Base peak: 173.0942
Precursor m/z: 173.0932
Precursor type: [M-H]-
m/z	relative intensity
58.0296	12
85.0767	4
112.0776	6
129.1043	4
131.0835	124
132.0857	5
173.0942	999
