Mass spectrum: Arachidonoyl Ethanolamide; LC-ESI-QTOF; MS2; CE: 10; R=; [M+H]+
Name: Arachidonoyl Ethanolamide
Name: Anandamide
Name: (5Z,8Z,11Z,14Z)-N-(2-hydroxyethyl)icosa-5,8,11,14-tetraenamide
Formula: C22H37NO2
Exact mass: 347.28243
SMILES: CCCCC/C=C\C/C=C\C/C=C\C/C=C\CCCC(=O)NCCO
InChI: InChI=1S/C22H37NO2/c1-2-3-4-5-6-7-8-9-10-11-12-13-14-15-16-17-18-19-22(25)23-20-21-24/h6-7,9-10,12-13,15-16,24H,2-5,8,11,14,17-21H2,1H3,(H,23,25)/b7-6-,10-9-,13-12-,16-15-
Instrument: maXis plus UHR-ToF-MS, Bruker Daltonics
Instrument type: LC-ESI-QTOF
Ms type: MS2
Ion mode: POSITIVE
Ionization: ESI
Fragmentation mode: CID
Collision energy: 10
Column name: BEH C18 1.7um, 2.1x100mm, Waters
Retention time: 6.390 min
Base peak: 88.0755
Precursor m/z: 348.2897
Precursor type: [M+H]+
m/z	relative intensity
61.0155	1
62.0598	175
95.0847	2
97.1008	1
100.1124	2
105.0704	1
109.1012	1
113.0482	1
141.0887	2
142.0606	1
142.1537	1
144.1006	4
149.095	1
158.104	1
163.0498	1
163.11	4
163.1481	4
165.1158	1
168.233	1
170.1185	3
170.1493	1
171.116	2
171.2573	1
171.2916	1
172.1329	1
173.0574	1
173.1325	3
177.126	2
177.161	5
177.2588	1
178.1535	1
179.0927	1
180.1486	1
182.1608	1
184.0321	2
184.0502	2
184.1344	2
185.1315	1
187.0055	1
187.0981	1
187.1448	1
189.1271	1
189.1646	7
190.1677	2
191.1811	3
194.0092	1
194.0822	1
196.1097	1
196.1328	5
197.1332	1
197.1654	1
198.1494	3
199.1479	2
201.1636	2
202.0732	1
203.1432	2
203.1789	29
204.1507	1
204.1634	1
205.1968	3
206.0115	1
208.1826	1
209.1643	2
210.1405	1
210.1725	1
212.1641	11
213.0184	1
213.1836	1
217.1606	1
222.1478	1
224.1633	4
224.2729	1
225.1637	1
228.1939	1
234.1973	1
234.2232	1
236.1642	4
237.1711	1
238.2057	2
238.2672	1
240.0824	1
240.1955	1
241.0617	1
243.2088	1
245.2255	21
246.2299	1
247.0182	1
247.0514	1
248.1528	1
249.2773	1
250.1822	4
251.0857	1
251.1673	1
251.2181	1
252.1392	2
252.205	1
253.0725	2
254.2112	3
255.2509	1
259.0616	1
259.2406	10
262.1686	1
265.2523	2
269.2254	35
272.2804	1
273.1284	1
274.1084	1
275.142	1
277.1424	1
278.0722	1
279.2078	2
279.2184	1
282.243	1
283.1292	1
287.2374	107
288.2415	13
288.2821	3
289.0603	3
289.2404	2
294.0332	1
295.205	1
304.1356	2
304.2969	1
305.2565	1
306.2518	1
308.1094	2
314.2678	1
319.1657	1
320.2976	1
324.2518	1
330.2779	8
330.3017	2
331.2719	4
334.154	2
335.0582	1
346.1296	1
347.1778	1
348.2901	999
350.2546	1
350.2954	10
351.1721	2
