Mass spectrum: ?-linolenic acid; LC-ESI-QTOF; MS2; CE: 40; R=; [M+H]+
Name: ?-linolenic acid
Name: linolenic acid
Name: (9Z,12Z,15Z)-octadeca-9,12,15-trienoic acid
Formula: C18H30O2
Exact mass: 278.2246
SMILES: CC/C=C\C/C=C\C/C=C\CCCCCCCC(=O)O
InChI: InChI=1S/C18H30O2/c1-2-3-4-5-6-7-8-9-10-11-12-13-14-15-16-17-18(19)20/h3-4,6-7,9-10H,2,5,8,11-17H2,1H3,(H,19,20)/b4-3-,7-6-,10-9-
Instrument: maXis plus UHR-ToF-MS, Bruker Daltonics
Instrument type: LC-ESI-QTOF
Ms type: MS2
Ion mode: POSITIVE
Ionization: ESI
Fragmentation mode: CID
Collision energy: 40
Column name: BEH C18 1.7um, 2.1x100mm, Waters
Retention time: 6.658 min
Base peak: 88.0752
Precursor m/z: 279.2319
Precursor type: [M+H]+
m/z	relative intensity
55.0183	5
55.0541	15
57.0694	15
65.0381	32
66.0465	5
67.0536	999
71.0487	4
71.0861	4
73.0284	3
79.0541	103
80.0587	8
81.0692	479
83.0856	3
93.0694	32
94.0732	11
95.0852	141
96.0887	12
105.0448	3
105.0693	6
107.0855	6
109.1014	24
149.0224	3
159.1184	4
