Mass spectrum: Catechin(+); LC-ESI-QTOF; MS2; CE: 10; R=; [M-H]-
Name: Catechin(+)
Name: (+)-catechin
Name: (2R,3S)-2-(3,4-dihydroxyphenyl)-3,4-dihydro-2H-chromene-3,5,7-triol
Formula: C15H14O6
Exact mass: 290.0790
SMILES: Oc1ccc(cc1O)[C@H]3Oc2cc(O)cc(O)c2C[C@@H]3O
InChI: InChI=1S/C15H14O6/c16-8-4-11(18)9-6-13(20)15(21-14(9)5-8)7-1-2-10(17)12(19)3-7/h1-5,13,15-20H,6H2/t13-,15+/m0/s1
Instrument: maXis plus UHR-ToF-MS, Bruker Daltonics
Instrument type: LC-ESI-QTOF
Ms type: MS2
Ion mode: NEGATIVE
Ionization: ESI
Fragmentation mode: CID
Collision energy: 10
Column name: BEH C18 1.7um, 2.1x100mm, Waters
Retention time: 2.555 min
Base peak: 289.0717
Precursor m/z: 289.0718
Precursor type: [M-H]-
m/z	relative intensity
179.0391	3
203.0726	2
205.0494	2
219.0691	1
231.0309	1
245.0825	31
259.06	3
287.0562	7
289.072	999
