Mass spectrum: dhas#18; LC-ESI-QTOF; MS2; CE: 20; R=; [M+H]+
Name: dhas#18
Formula: C17H32O8
Exact mass: 364.2097
SMILES: CC(C[C@H](O)CCCC[C@@H](O)CC(O)=O)O[C@@H]1OC(C)[C@H](O)CC1O
InChI: InChI=1S/C17H32O8/c1-10(24-17-15(21)9-14(20)11(2)25-17)7-12(18)5-3-4-6-13(19)8-16(22)23/h10-15,17-21H,3-9H2,1-2H3,(H,22,23)/t10?,11?,12-,13-,14-,15?,17-/m1/s1
Instrument: maXis plus UHR-ToF-MS, Bruker Daltonics
Instrument type: LC-ESI-QTOF
Ms type: MS2
Ion mode: POSITIVE
Ionization: ESI
Fragmentation mode: CID
Collision energy: 20
Column name: BEH C18 1.7um, 2.1x100mm, Waters
Retention time: 2.780 min
Base peak: 235.1535
Precursor m/z: 365.217
Precursor type: [M+H]+
m/z	relative intensity
55.0539	2
61.0391	1
65.1321	1
66.1045	1
66.1406	2
69.0699	3
71.0491	5
74.9955	3
78.235	2
81.0693	10
82.073	1
83.0485	2
85.0642	9
92.0376	1
93.0699	1
94.1571	1
99.991	1
100.0237	1
100.182	2
101.9972	2
107.0703	3
109.0168	1
111.0451	1
112.1122	1
112.1459	1
113.0965	3
117.1022	1
119.9932	1
120.2452	1
121.1008	8
125.107	1
126.0476	2
126.0625	1
127.0801	1
128.0618	1
128.1206	1
128.9921	1
129.0547	4
129.0785	1
133.9954	1
135.0755	1
138.9996	1
139.111	29
139.999	1
140.1154	7
141.0902	1
143.0699	12
143.0931	1
144.1935	2
145.0982	2
146.0728	1
148.0317	1
150.199	1
151.0605	1
151.9973	2
152.1531	1
153.1278	3
153.1686	2
153.1907	1
154.0021	1
154.0223	1
155.0088	1
156.9625	1
157.0575	2
157.0857	12
157.1232	11
157.1707	3
158.0885	3
159.2105	1
159.9634	1
159.9839	1
161.0147	2
162.0253	1
163.111	30
164.2349	1
165.09	3
166.0941	2
167.9999	1
173.1168	4
173.2001	1
173.9819	1
175.1707	2
175.213	1
178.0368	1
178.0792	1
181.1216	540
182.0891	2
182.1259	36
183.1111	1
183.1271	2
183.2308	1
185.0661	1
187.0321	1
189.0731	1
189.0954	1
190.1235	1
190.1631	2
192.0137	1
192.0452	2
195.997	1
197.009	1
198.1624	1
199.1324	999
200.1359	116
201.1366	7
202.1342	1
204.9732	1
205.1313	1
212.0592	1
214.0905	1
215.9676	1
217.143	181
218.0808	1
218.1298	1
219.1429	2
222.2287	1
231.2034	1
233.0769	1
235.1533	436
237.1578	10
237.1696	1
252.1802	1
286.1771	1
311.1804	1
311.1932	1
369.1661	1
