Mass spectrum: 5?-CHOLANIC ACID-3?-OL-7_12-DIONE; LC-ESI-QTOF; MS2; CE: 40; R=; [M+H]+
Name: 5?-CHOLANIC ACID-3?-OL-7_12-DIONE
Name: 3-Hydroxy-7,12-diketocholanoic acid
Name: (4R)-4-[(3R,5S,8R,9S,10S,13R,14S,17R)-3-hydroxy-10,13-dimethyl-7,12-dioxo-2,3,4,5,6,8,9,11,14,15,16,17-dodecahydro-1H-cyclopenta[a]phenanthren-17-yl]pentanoic acid
Formula: C24H36O5
Exact mass: 404.2563
SMILES: C[C@H](CCC(=O)O)[C@H]1CC[C@@H]2[C@@]1(C(=O)C[C@H]3[C@H]2C(=O)C[C@H]4[C@@]3(CC[C@H](C4)O)C)C
InChI: InChI=1S/C24H36O5/c1-13(4-7-21(28)29)16-5-6-17-22-18(12-20(27)24(16,17)3)23(2)9-8-15(25)10-14(23)11-19(22)26/h13-18,22,25H,4-12H2,1-3H3,(H,28,29)/t13-,14+,15-,16-,17+,18+,22+,23+,24-/m1/s1
Instrument: maXis plus UHR-ToF-MS, Bruker Daltonics
Instrument type: LC-ESI-QTOF
Ms type: MS2
Ion mode: POSITIVE
Ionization: ESI
Fragmentation mode: CID
Collision energy: 40
Column name: BEH C18 1.7um, 2.1x100mm, Waters
Retention time: 4.147 min
Base peak: 405.2631
Precursor m/z: 405.2636
Precursor type: [M+H]+
m/z	relative intensity
45.0911	1
47.1062	3
48.0315	2
50.0235	3
51.9941	1
56.0366	2
58.1721	4
62.2601	1
63.0679	2
66.1033	1
68.001	1
68.0256	1
68.0474	1
69.0333	15
69.0692	52
70.1922	1
71.0851	4
73.0279	8
73.0643	4
74.0002	2
74.0593	1
74.1084	2
75.232	3
75.2688	1
75.9898	1
76.0271	2
79.0538	141
80.0102	1
81.0693	341
83.0486	65
83.085	105
85.0643	82
86.0114	3
87.0909	2
87.1746	1
89.0711	1
90.0784	1
91.054	61
91.096	3
92.2501	2
93.0695	350
93.9888	4
94.0053	3
94.0727	19
94.1109	1
94.2136	1
95.0849	386
96.0161	3
96.0289	1
96.0893	22
96.2088	2
96.9766	1
97.064	17
97.2159	2
98.0028	6
98.1305	2
99.0435	63
99.0813	9
99.9789	3
101.0238	2
101.0596	29
101.2845	2
102.0333	1
102.2183	1
103.0389	1
104.0703	4
105.0693	176
106.0166	1
106.0738	15
107.0852	282
108.032	2
108.056	2
108.09	23
108.2808	1
109.0652	22
109.1008	110
110.1039	7
111.0449	2
111.0552	2
111.066	1
111.2099	1
113.059	14
113.096	3
113.1534	1
114.0877	2
114.2342	2
115.0536	4
116.0677	1
117.042	1
117.0693	23
117.1855	2
118.017	5
118.0263	2
118.0742	3
118.111	1
118.1361	2
119.085	80
120.0436	5
121.0067	4
121.0643	24
121.1002	49
121.1427	4
121.9948	2
122.0678	1
122.0823	1
122.1874	2
122.9791	1
123.0809	17
123.1164	14
123.9885	1
124.0059	2
124.0267	1
125.0091	2
125.0598	1
125.0962	10
125.9823	2
125.99	4
126.0203	1
126.053	1
126.0674	1
126.0778	2
126.1032	1
126.1392	1
127.0473	1
127.0757	3
127.9742	1
128.0792	3
129.0501	2
129.0705	11
129.1141	2
129.2056	2
130.1113	1
131.0845	35
131.9914	2
132.0454	1
133.0646	2
133.1008	39
133.1437	2
134.0217	1
134.1786	5
134.2228	1
135.0175	1
135.0805	9
135.1163	13
135.1381	1
135.2177	2
135.2688	2
136.0833	1
136.1657	3
137.0325	1
137.0546	2
138.0157	1
139.0754	2
140.012	1
140.0435	1
140.0787	1
140.1417	2
140.2133	1
141.069	9
141.2637	2
141.2784	1
142.0266	1
142.0777	9
143.0855	37
143.2378	2
143.9847	2
144.0086	2
144.2096	3
145.1006	79
145.9972	1
146.0114	2
146.054	2
146.1043	7
146.1181	3
146.1663	1
146.2042	1
147.0799	8
147.1167	74
148.1198	6
149.0956	16
149.132	9
149.1542	2
150.0456	2
150.0546	1
150.1121	2
150.1365	2
151.0067	2
151.0742	1
151.0955	2
151.1794	1
152.0009	2
152.1031	1
152.2696	3
153.0398	2
153.0694	4
153.0914	4
153.112	2
153.1496	1
154.0347	1
154.053	3
154.0775	9
154.0942	1
154.1082	4
154.249	2
155.0224	5
155.0649	3
155.0845	48
156.0365	4
156.0926	7
156.1931	1
156.2457	2
157.0648	6
157.1004	122
158.0015	1
158.032	1
159.0802	8
159.1163	147
159.9861	2
160.0139	3
160.0244	1
160.1211	16
160.1448	1
161.0806	2
161.0947	13
161.1322	42
161.1788	3
162.1024	1
162.1347	1
163.0602	2
163.0748	3
163.1115	44
164.0422	1
164.9824	1
165.0697	17
165.0908	2
165.1145	2
165.1269	8
166.0128	1
166.0769	7
166.1349	2
166.1774	3
166.1923	1
166.251	1
167.0222	1
167.0462	3
167.0724	3
167.0855	27
167.1065	1
167.1321	2
168.0047	2
168.0198	2
168.0568	3
168.0922	19
169.1005	106
169.9983	1
170.1042	13
171.0807	11
171.1165	65
172.0008	2
172.0356	1
172.0804	4
172.1193	5
172.2607	1
173.0548	2
173.0764	2
173.0966	22
173.1188	4
173.1315	36
174.1372	10
174.1985	2
174.2387	2
175.0181	2
175.0753	7
175.1114	15
175.1448	4
175.1578	2
175.987	2
176.0826	1
176.1622	1
176.2142	2
176.2563	2
176.9976	3
177.0496	1
177.0715	4
177.0897	6
177.2416	1
178.0665	1
178.0782	4
178.1468	3
178.1918	2
179.086	18
179.1038	1
179.1416	4
180.0295	4
180.0573	1
180.0941	8
180.1592	1
180.1882	2
181.0126	4
181.0291	2
181.086	2
181.1007	45
181.1206	6
182.0585	1
182.0697	1
182.1078	23
182.2031	1
183.1163	154
183.9865	2
184.0196	2
184.0726	1
184.1197	14
185.0958	13
185.1321	180
186.0989	2
186.1344	21
187.0189	2
187.0528	2
187.0638	5
187.0755	4
187.1114	14
187.1339	2
187.1474	23
188.0117	1
188.032	1
188.0559	4
188.1578	3
188.9916	1
189.0574	2
189.0908	5
189.1271	10
190.0397	1
190.0942	3
191.0548	2
191.0905	2
191.1053	11
191.1421	2
191.1744	2
191.1997	2
192.0693	1
192.0918	5
192.1032	2
192.1493	1
192.1946	1
193.1003	14
193.1204	3
193.1804	2
194.0043	1
194.1068	18
194.1273	3
194.1529	1
195.1167	326
196.1215	43
196.1783	3
197.1319	348
198.1353	39
199.1109	22
199.1473	121
200.024	3
200.1152	3
200.1517	12
200.1757	2
200.1892	1
201.0487	1
201.0698	3
201.0922	6
201.1279	13
201.1628	18
201.205	2
201.2571	1
201.999	1
202.0418	3
202.1003	1
202.1098	2
202.1672	5
203.0018	2
203.0622	1
203.1065	9
203.1422	12
203.1806	5
204.0053	2
204.0292	1
204.0529	1
204.2434	2
204.266	1
205.0004	1
205.0252	2
205.0741	1
205.1011	5
205.1205	11
205.1541	1
205.253	1
206.0645	2
206.1005	2
206.1097	6
206.1291	5
206.2365	2
207.1161	40
208.0277	1
208.0518	2
208.0829	2
208.0967	1
208.1226	30
208.1466	1
208.1925	1
209.1322	273
210.0195	3
210.1059	2
210.1372	34
211.1475	281
212.1514	30
213.1276	76
213.1635	33
214.1139	1
214.1295	7
214.1674	5
214.2294	1
215.1028	5
215.1429	62
215.1652	3
216.0914	1
216.1144	2
216.1473	6
216.9762	1
216.9911	1
217.1011	2
217.1226	7
217.1583	6
217.205	1
217.2393	1
218.1054	2
218.1193	1
218.2697	2
218.9946	3
219.0394	2
219.0691	3
219.1168	16
219.1355	5
220.0319	1
220.1236	4
221.0117	2
221.0975	8
221.1327	52
221.1542	9
222.0386	1
222.1376	15
222.1568	2
223.1112	23
223.1477	243
224.1155	4
224.1515	34
225.1278	87
225.1633	32
226.0286	1
226.0842	2
226.1305	8
226.1672	4
227.142	53
227.1767	8
228.0312	2
228.0551	1
228.1456	13
228.1667	2
229.1585	92
230.163	11
231.0084	1
231.0394	1
231.1179	6
231.1375	6
231.1761	4
232.0118	1
232.0953	2
232.1248	4
233.0025	1
233.0244	3
233.133	17
233.1536	7
234.1393	11
234.156	3
234.175	1
235.1474	84
236.0925	2
236.1182	3
236.153	30
237.1267	17
237.1636	113
238.1275	8
238.1678	21
239.0577	2
239.091	2
239.1435	40
239.1793	15
240.02	2
240.0381	1
240.128	1
240.1469	7
240.1834	4
241.1218	66
241.1583	26
242.0834	2
242.0964	2
242.126	6
242.1607	3
243.1375	227
243.9917	2
244.1243	3
244.1411	36
244.2045	2
245.1322	8
245.1535	14
245.1912	1
245.9837	3
246.0307	2
246.1222	1
246.1403	7
246.1594	5
246.2197	1
247.0524	3
247.0645	1
247.1465	20
247.1759	2
247.192	2
248.0686	1
248.1187	3
248.1533	11
248.1724	1
248.2261	1
249.1632	120
250.1371	2
250.1701	40
251.142	41
251.1785	107
252.0871	1
252.1446	7
252.1825	15
252.23	1
252.2636	2
253.037	1
253.0587	2
253.0937	1
253.1068	2
253.1583	16
253.1833	3
253.1947	8
253.203	5
253.2477	1
254.0442	1
254.1618	8
254.2251	2
255.0659	1
255.1181	2
255.1366	26
255.1743	24
256.1402	3
256.18	2
257.136	3
257.1533	53
257.1885	10
258.0291	4
258.1403	5
258.155	10
258.1715	1
258.198	1
259.05	2
259.0914	4
259.1047	2
259.133	21
259.1674	7
259.2192	4
259.2314	1
259.9908	3
260.0646	2
260.1123	2
260.1356	4
260.154	9
260.2449	1
261.1277	1
261.1624	22
261.2639	2
261.9784	2
262.0765	1
262.1344	2
262.1523	1
262.1695	7
263.179	92
264.0308	2
264.0443	1
264.1452	2
264.1583	1
264.1841	17
264.2143	1
265.1233	1
265.1573	16
265.1959	17
265.217	1
265.2825	3
266.01	1
266.088	2
266.1605	3
266.1894	1
266.2029	5
266.2347	2
267.0808	2
267.1123	1
267.1381	3
267.1738	22
267.2104	3
268.0879	3
268.1808	12
268.1997	1
269.1527	70
269.1905	16
269.2145	4
269.2861	4
270.1264	1
270.1583	16
270.1915	2
270.9881	3
271.0655	1
271.1484	5
271.1691	13
272.0183	1
272.1538	3
273.145	1
273.1625	26
273.1826	3
274.1517	2
274.1684	8
274.1886	1
275.0385	1
275.1445	2
275.1589	1
275.1805	14
276.0433	2
276.1566	3
276.1859	12
276.251	2
277.1595	18
277.1943	26
278.1595	4
278.201	14
279.061	1
279.1753	21
279.2105	19
279.2703	2
279.2913	1
280.0616	1
280.1798	3
280.2035	1
280.2156	1
280.2872	1
281.0311	1
281.0994	1
281.1545	14
281.1901	8
281.2248	8
282.1564	4
282.1938	4
282.2324	2
283.1679	36
283.187	3
284.1457	4
284.1718	5
284.2834	2
285.1794	5
286.0645	2
286.1225	1
286.1691	3
286.1905	7
287.1268	2
287.1781	13
288.0332	2
288.1237	2
288.1429	1
288.1839	2
288.2385	1
289.1571	1
289.196	30
290.079	2
290.0982	2
290.2014	35
291.0637	4
291.1739	70
291.2098	52
291.9725	1
291.9885	2
292.0462	3
292.1113	1
292.1766	18
292.2125	13
292.2768	1
293.0944	2
293.1659	2
293.1894	38
293.2255	3
294.1041	1
294.1627	3
294.1927	12
294.2212	2
295.0222	2
295.1707	38
295.2075	6
295.2416	20
296.0297	1
296.1523	1
296.1745	10
296.2104	4
296.2465	5
297.0376	1
297.0524	2
297.186	29
297.2161	1
297.2787	1
298.1878	4
299.0602	1
299.1339	1
299.1885	1
299.2672	3
300.1871	15
301.006	1
301.192	4
301.2757	1
302.1784	1
303.1333	1
303.1688	1
303.184	1
303.2111	6
304.0391	1
304.1025	1
304.185	1
304.2177	1
305.2261	999
306.229	204
307.1004	1
307.1572	1
307.2065	13
307.2326	22
308.0299	1
308.2101	3
309.1853	107
309.2213	27
309.9943	2
310.1896	20
310.2244	8
311.2006	82
311.2274	5
312.086	1
312.2048	16
312.2267	2
313.179	2
313.2012	1
313.2771	1
314.1705	1
315.2101	54
316.215	11
316.2373	1
317.2178	5
318.1929	3
319.2029	2
320.1209	1
320.1311	1
321.0197	1
321.1869	3
321.222	1
321.2555	1
322.0395	2
322.0698	1
322.1006	1
322.1947	5
323.2365	329
324.133	4
324.2412	67
325.1521	1
325.172	1
325.2145	5
325.2455	8
326.2234	3
327.1984	2
327.2321	3
327.9975	3
328.2344	1
329.2122	4
331.0753	1
331.2109	1
331.2576	1
332.0813	1
333.2209	203
334.2249	62
335.0202	1
335.0683	1
335.2258	3
336.1217	2
336.209	11
336.2614	1
337.0157	1
337.2109	3
339.2494	2
340.1692	1
340.2137	1
341.0082	1
341.2484	16
341.2809	1
342.2246	1
342.257	1
343.2394	1
345.9982	1
346.1525	1
348.0845	1
348.2277	1
351.2316	638
352.2349	136
353.2373	10
353.2593	1
357.1562	2
359.2591	4
369.242	548
370.246	114
371.1763	1
371.2488	11
372.2535	2
374.2063	1
379.1202	1
381.1359	1
387.254	2
388.2464	1
388.2587	2
413.9907	2
