Mass spectrum: Genistein; LC-ESI-QTOF; MS2; CE: 20; R=; [M+H]+
Name: Genistein
Name: 5,7-dihydroxy-3-(4-hydroxyphenyl)chromen-4-one
Formula: C15H10O5
Exact mass: 270.0528
SMILES: Oc1ccc(cc1)C\3=C\Oc2cc(O)cc(O)c2C/3=O
InChI: InChI=1S/C15H10O5/c16-9-3-1-8(2-4-9)11-7-20-13-6-10(17)5-12(18)14(13)15(11)19/h1-7,16-18H
Instrument: maXis plus UHR-ToF-MS, Bruker Daltonics
Instrument type: LC-ESI-QTOF
Ms type: MS2
Ion mode: POSITIVE
Ionization: ESI
Fragmentation mode: CID
Collision energy: 20
Column name: BEH C18 1.7um, 2.1x100mm, Waters
Retention time: 3.962 min
Base peak: 271.0596
Precursor m/z: 271.0601
Precursor type: [M+H]+
m/z	relative intensity
91.0541	1
149.0229	2
153.0176	8
197.0599	1
215.0703	12
225.0541	1
243.0653	14
253.0491	4
271.0598	999
273.0658	15
