Mass spectrum: Spermidine; LC-ESI-QTOF; MS2; CE: 10; R=; [M+H]+
Name: Spermidine
Name: N`-(3-aminopropyl)butane-1,4-diamine
Formula: C7H19N3
Exact mass: 145.15790
SMILES: NCCCCNCCCN
InChI: InChI=1S/C7H19N3/c8-4-1-2-6-10-7-3-5-9/h10H,1-9H2
Instrument: maXis plus UHR-ToF-MS, Bruker Daltonics
Instrument type: LC-ESI-QTOF
Ms type: MS2
Ion mode: POSITIVE
Ionization: ESI
Fragmentation mode: CID
Collision energy: 10
Column name: BEH C18 1.7um, 2.1x100mm, Waters
Retention time: 0.588 min
Base peak: 72.0796
Precursor m/z: 146.1652
Precursor type: [M+H]+
m/z	relative intensity
89.1065	2
112.1119	413
127.1227	1
128.1071	1
129.1387	488
146.1652	999
