Mass spectrum: Apigenin; LC-ESI-QTOF; MS2; CE: 40; R=; [M-H]-
Name: Apigenin
Name: 5,7-dihydroxy-2-(4-hydroxyphenyl)chromen-4-one
Formula: C15H10O5
Exact mass: 270.0528
SMILES: Oc1ccc(cc1)-c1cc(=O)c2c(O)cc(O)cc2o1
InChI: InChI=1S/C15H10O5/c16-9-3-1-8(2-4-9)13-7-12(19)15-11(18)5-10(17)6-14(15)20-13/h1-7,16-18H
Instrument: maXis plus UHR-ToF-MS, Bruker Daltonics
Instrument type: LC-ESI-QTOF
Ms type: MS2
Ion mode: NEGATIVE
Ionization: ESI
Fragmentation mode: CID
Collision energy: 40
Column name: BEH C18 1.7um, 2.1x100mm, Waters
Retention time: 3.949 min
Base peak: 269.0455
Precursor m/z: 269.0455
Precursor type: [M-H]-
m/z	relative intensity
63.0239	228
63.9952	4
65.0032	999
67.0191	10
77.0392	10
79.0188	10
81.0342	26
83.0141	142
89.0397	8
93.0349	18
95.0505	2
105.035	25
107.0137	85
108.0172	11
117.0349	386
118.0385	30
121.0296	17
149.0251	51
151.0048	85
155.0502	4
157.0652	3
159.0457	18
161.0241	5
181.0646	9
183.0442	7
186.0284	2
196.0529	4
197.0609	8
201.057	6
213.0532	3
223.0407	3
224.0468	5
225.0565	21
227.035	43
269.0461	94
