Mass spectrum: Folic acid; LC-ESI-QTOF; MS2; CE: 40; R=; [M+H]+
Name: Folic acid
Name: (2S)-2-[[4-[(2-amino-4-oxo-1H-pteridin-6-yl)methylamino]benzoyl]amino]pentanedioic acid
Name: Vitamin B11
Name: Vitamin B9
Name: Vitamin M
Formula: C19H19N7O6
Exact mass: 441.139681
SMILES: C1=CC(=CC=C1C(=O)N[C@@H](CCC(=O)O)C(=O)O)NCC2=CN=C3C(=N2)C(=O)NC(=N3)N
InChI: InChI=1S/C19H19N7O6/c20-19-25-15-14(17(30)26-19)23-11(8-22-15)7-21-10-3-1-9(2-4-10)16(29)24-12(18(31)32)5-6-13(27)28/h1-4,8,12,21H,5-7H2,(H,24,29)(H,27,28)(H,31,32)(H3,20,22,25,26,30)/t12-/m0/s1
Instrument: maXis plus UHR-ToF-MS, Bruker Daltonics
Instrument type: LC-ESI-QTOF
Ms type: MS2
Ion mode: POSITIVE
Ionization: ESI
Fragmentation mode: CID
Collision energy: 40
Column name: BEH C18 1.7um, 2.1x100mm, Waters
Retention time: 2.478 min
Base peak: 442.1468
Precursor m/z: 442.147
Precursor type: [M+H]+
m/z	relative intensity
85.0281	1
97.0515	1
106.0001	1
106.0648	1
107.0668	1
108.0551	6
110.0468	1
120.0441	53
121.0476	2
121.1065	1
123.9884	1
124.0155	1
126.15	1
132.0654	1
143.0338	1
143.0722	1
148.0617	3
148.1529	1
149.105	1
154.0623	1
158.1511	1
163.0677	2
165.0544	1
165.0631	1
166.0197	1
172.0328	1
176.0564	259
177.0193	1
177.0289	1
177.06	19
179.0817	1
182.0263	1
185.0479	1
190.0354	1
193.1574	1
197.0358	1
197.079	1
206.1114	1
209.1115	1
210.1767	1
216.017	1
229.1532	1
233.052	1
235.0418	1
236.1135	1
248.0283	1
248.1444	1
250.073	2
250.1385	1
251.0723	1
252.0834	1
253.0903	1
254.0167	1
260.0828	1
263.1168	1
264.1539	1
265.0826	2
266.0897	1
267.0982	2
267.1101	1
276.0865	1
280.094	1
280.1392	1
281.1204	1
285.9878	1
290.0636	1
290.0964	1
293.0781	15
293.1035	1
294.0781	1
295.0937	999
296.0965	161
297.0519	1
297.0809	2
297.1003	8
297.1293	1
311.087	2
313.1045	75
314.1095	11
355.1488	1
