Mass spectrum: ascr#1; LC-ESI-QTOF; MS2; CE: 10; R=; [M+H]+
Name: ascr#1
Name: daumone
Name: (6R)-6-[(2R,3R,5R,6S)-3,5-dihydroxy-6-methyloxan-2-yl]oxyheptanoic acid
Formula: C13H24O6
Exact mass: 276.1573
SMILES: C[C@H](CCCCC(O)=O)O[C@@H]1O[C@@H](C)[C@H](O)C[C@H]1O
InChI: InChI=1S/C13H24O6/c1-8(5-3-4-6-12(16)17)18-13-11(15)7-10(14)9(2)19-13/h8-11,13-15H,3-7H2,1-2H3,(H,16,17)/t8-,9+,10-,11-,13-/m1/s1
Instrument: maXis plus UHR-ToF-MS, Bruker Daltonics
Instrument type: LC-ESI-QTOF
Ms type: MS2
Ion mode: POSITIVE
Ionization: ESI
Fragmentation mode: CID
Collision energy: 10
Column name: BEH C18 1.7um, 2.1x100mm, Waters
Retention time: 3.037 min
Base peak: 88.0753
Precursor m/z: 277.1646
Precursor type: [M+H]+
m/z	relative intensity
67.9899	13
69.0701	24
83.0485	12
93.0452	12
100.0476	12
111.0796	64
111.0874	23
113.0563	28
123.0804	12
129.0909	412
147.101	999
197.115	35
225.147	16
239.0878	12
241.1138	23
243.1239	30
246.0486	14
261.1587	24
279.118	24
