Mass spectrum: 3-oxo-C6-homoserine lactone; LC-ESI-QTOF; MS2; CE: 10; R=; [M-H]-
Name: 3-oxo-C6-homoserine lactone
Name: Autoinducer 1
Name: 3-oxo-N-(2-oxooxolan-3-yl)hexanamide
Formula: C10H15NO4
Exact mass: 213.1001
SMILES: CCCC(=O)CC(=O)NC1CCOC1=O
InChI: InChI=1S/C10H15NO4/c1-2-3-7(12)6-9(13)11-8-4-5-15-10(8)14/h8H,2-6H2,1H3,(H,11,13)
Instrument: maXis plus UHR-ToF-MS, Bruker Daltonics
Instrument type: LC-ESI-QTOF
Ms type: MS2
Ion mode: NEGATIVE
Ionization: ESI
Fragmentation mode: CID
Collision energy: 10
Column name: BEH C18 1.7um, 2.1x100mm, Waters
Retention time: 2.746 min
Base peak: 212.0937
Precursor m/z: 212.0928
Precursor type: [M-H]-
m/z	relative intensity
57.0347	2
82.0305	1
85.066	82
87.0454	605
100.04	3
126.0207	18
127.0238	2
138.0934	3
142.0516	7
150.0938	7
164.0732	1
212.0939	999
