Mass spectrum: Arachidoyl Ethanolamide; LC-ESI-QTOF; MS2; CE: 20; R=; [M+H]+
Name: Arachidoyl Ethanolamide
Name: N-(2-hydroxyethyl)icosanamide
Formula: C22H45NO2
Exact mass: 355.34503
SMILES: CCCCCCCCCCCCCCCCCCCC(=O)NCCO
InChI: InChI=1S/C22H45NO2/c1-2-3-4-5-6-7-8-9-10-11-12-13-14-15-16-17-18-19-22(25)23-20-21-24/h24H,2-21H2,1H3,(H,23,25)
Instrument: maXis plus UHR-ToF-MS, Bruker Daltonics
Instrument type: LC-ESI-QTOF
Ms type: MS2
Ion mode: POSITIVE
Ionization: ESI
Fragmentation mode: CID
Collision energy: 20
Column name: BEH C18 1.7um, 2.1x100mm, Waters
Retention time: 7.769 min
Base peak: 356.3519
Precursor m/z: 356.3523
Precursor type: [M+H]+
m/z	relative intensity
57.2576	1
67.0536	6
69.0698	5
71.0851	34
81.0693	11
83.0852	11
85.0641	1
85.1006	22
86.0603	1
89.0113	1
95.0853	16
97.101	6
99.1168	2
101.0221	1
109.1017	6
111.1176	3
113.1336	1
123.1165	1
143.3552	1
145.2044	1
146.0341	1
146.0797	1
149.1653	1
150.0087	1
151.1481	1
168.2802	1
177.1036	1
183.2114	1
184.3194	1
187.325	1
190.3214	1
210.0207	1
217.1337	1
224.3422	1
244.2049	1
248.0069	1
248.297	1
277.2871	3
278.2939	1
280.273	1
290.0539	1
293.1273	1
295.3006	8
296.3064	2
317.2332	1
327.0899	1
338.3417	68
339.3254	340
340.3294	69
341.332	5
345.1346	1
355.2811	10
355.3099	1
356.3522	999
358.3087	1
358.357	25
