Mass spectrum: Apigenin; LC-ESI-QTOF; MS2; CE: 40; R=; [M+H]+
Name: Apigenin
Name: 5,7-dihydroxy-2-(4-hydroxyphenyl)chromen-4-one
Formula: C15H10O5
Exact mass: 270.0528
SMILES: Oc1ccc(cc1)-c1cc(=O)c2c(O)cc(O)cc2o1
InChI: InChI=1S/C15H10O5/c16-9-3-1-8(2-4-9)13-7-12(19)15-11(18)5-10(17)6-14(15)20-13/h1-7,16-18H
Instrument: maXis plus UHR-ToF-MS, Bruker Daltonics
Instrument type: LC-ESI-QTOF
Ms type: MS2
Ion mode: POSITIVE
Ionization: ESI
Fragmentation mode: CID
Collision energy: 40
Column name: BEH C18 1.7um, 2.1x100mm, Waters
Retention time: 3.938 min
Base peak: 85.0577
Precursor m/z: 271.0601
Precursor type: [M+H]+
m/z	relative intensity
48.0808	3
54.0679	2
57.9918	1
63.0232	2
69.0331	14
79.0175	2
80	1
82.0253	1
82.0504	1
83.0125	6
85.0278	4
86.0147	1
86.0576	2
88.0636	1
89.0382	2
90.046	1
91.0536	167
92.9967	1
95.0498	3
98.0313	1
99.0644	1
101.0844	1
103.9977	2
105.0668	1
105.9904	1
107.0122	2
107.0497	1
111.0075	7
112.0316	1
117.02	1
117.0427	1
118.0366	1
119.0487	94
121.0284	30
122.031	2
122.0451	2
125.0241	1
126.007	3
127.0854	1
128.0359	1
129.0059	1
129.0205	4
129.9916	2
131.0211	1
135.0225	2
137.0188	1
137.0451	1
137.9814	1
140.0502	1
141.0702	3
142.0593	1
143.0298	1
145.028	31
145.0661	1
146.0674	1
147.0599	1
150.0783	1
153.0177	400
154.021	30
155.0213	2
155.0485	4
156.0524	1
157.0641	2
157.9869	1
159.0416	2
159.0917	1
161.0067	2
163.0385	33
164.0059	1
164.0414	2
167.0327	1
169.0258	1
169.0652	15
170.0681	2
171.0287	33
172.0309	3
173.0588	7
175.0705	1
182.0345	1
183.0454	1
185.0599	3
186.0349	1
187.0393	9
188.0429	1
191.0737	1
191.9861	1
196.0641	1
197.059	17
198.0618	2
200.0491	2
201.0537	3
202.0608	4
203.0339	1
203.0705	4
205.0482	2
206.0445	1
207.0679	2
211.0372	2
215.0703	4
216.9906	1
223.0218	1
225.0544	26
226.0585	6
228.9857	1
229.0493	19
230.0076	1
230.0527	4
231.0527	1
233.0192	1
235.0376	3
235.0857	1
242.0587	2
243.0659	43
244.9963	2
247.0595	1
250.0253	2
252.0391	2
253.0504	16
254.0532	2
257.0196	1
262.0154	2
263.9953	1
265.9942	1
267.9864	2
271.0602	999
274.0224	1
