Mass spectrum: Uridine; LC-ESI-QTOF; MS2; CE: 40; R=; [M+H]+
Name: Uridine
Name: 1-[(2R,3R,4S,5R)-3,4-dihydroxy-5-(hydroxymethyl)oxolan-2-yl]pyrimidine-2,4-dione
Formula: C9H12N2O6
Exact mass: 244.0695
SMILES: c1cn(c(=O)nc1O)[C@H]2[C@@H]([C@@H]([C@H](O2)CO)O)O
InChI: InChI=1S/C9H12N2O6/c12-3-4-6(14)7(15)8(17-4)11-2-1-5(13)10-9(11)16/h1-2,4,6-8,12,14-15H,3H2,(H,10,13,16)/t4-,6-,7-,8-/m1/s1
Instrument: maXis plus UHR-ToF-MS, Bruker Daltonics
Instrument type: LC-ESI-QTOF
Ms type: MS2
Ion mode: POSITIVE
Ionization: ESI
Fragmentation mode: CID
Collision energy: 40
Column name: BEH C18 1.7um, 2.1x100mm, Waters
Retention time: 0.698 min
Base peak: 245.0766
Precursor m/z: 245.0768
Precursor type: [M+H]+
m/z	relative intensity
55.0162	31
57.032	49
59.048	4
61.028	13
68.0121	12
69.0326	72
70.0279	999
71.0116	67
73.0271	51
85.0274	22
96.0083	193
97.0033	6
97.0286	12
113.0345	293
115.0365	5
