Mass spectrum: 5-Methylcytidine; LC-ESI-QTOF; MS2; CE: 20; R=; [M-H]-
Name: 5-Methylcytidine
Name: 4-amino-1-[(2R,3R,4S,5R)-3,4-dihydroxy-5-(hydroxymethyl)oxolan-2-yl]-5-methylpyrimidin-2-one
Formula: C10H15N3O5
Exact mass: 257.1012
SMILES: Cc1cn(c(=O)nc1N)[C@H]2[C@@H]([C@@H]([C@H](O2)CO)O)O
InChI: InChI=1S/C10H15N3O5/c1-4-2-13(10(17)12-8(4)11)9-7(16)6(15)5(3-14)18-9/h2,5-7,9,14-16H,3H2,1H3,(H2,11,12,17)/t5-,6-,7-,9-/m1/s1
Instrument: maXis plus UHR-ToF-MS, Bruker Daltonics
Instrument type: LC-ESI-QTOF
Ms type: MS2
Ion mode: NEGATIVE
Ionization: ESI
Fragmentation mode: CID
Collision energy: 20
Column name: BEH C18 1.7um, 2.1x100mm, Waters
Retention time: 0.656 min
Base peak: 256.0938
Precursor m/z: 256.0939
Precursor type: [M-H]-
m/z	relative intensity
81.0464	204
123.0571	397
124.052	261
166.0643	533
196.0729	181
256.0954	999
