Mass spectrum: Taurocholic acid; LC-ESI-QTOF; MS2; CE: 40; R=; [M+H]+
Name: Taurocholic acid
Name: 2-[[(4R)-4-[(3R,5S,7R,8R,9S,10S,12S,13R,14S,17R)-3,7,12-trihydroxy-10,13-dimethyl-2,3,4,5,6,7,8,9,11,12,14,15,16,17-tetradecahydro-1H-cyclopenta[a]phenanthren-17-yl]pentanoyl]amino]ethanesulfonic acid
Formula: C26H45NO7S
Exact mass: 515.2917
SMILES: C[C@H](CC/C(=N/CCS(=O)(=O)O)/O)[C@H]1CC[C@@H]2[C@@]1([C@H](C[C@H]3[C@H]2[C@@H](C[C@H]4[C@@]3(CC[C@H](C4)O)C)O)O)C
InChI: InChI=1S/C26H45NO7S/c1-15(4-7-23(31)27-10-11-35(32,33)34)18-5-6-19-24-20(14-22(30)26(18,19)3)25(2)9-8-17(28)12-16(25)13-21(24)29/h15-22,24,28-30H,4-14H2,1-3H3,(H,27,31)(H,32,33,34)/t15-,16+,17-,18-,19+,20+,21-,22+,24+,25+,26-/m1/s1
Instrument: maXis plus UHR-ToF-MS, Bruker Daltonics
Instrument type: LC-ESI-QTOF
Ms type: MS2
Ion mode: POSITIVE
Ionization: ESI
Fragmentation mode: CID
Collision energy: 40
Column name: BEH C18 1.7um, 2.1x100mm, Waters
Retention time: 3.915 min
Base peak: 516.2982
Precursor m/z: 516.299
Precursor type: [M+H]+
m/z	relative intensity
49.0651	2
49.2766	4
49.9822	2
55.193	1
57.0365	2
58.1933	2
60.0081	1
61.0763	4
62.0346	1
63.174	4
64.015	2
65.0139	2
65.0426	2
66.1025	2
66.1309	2
67.0538	21
69.0321	2
69.0694	11
69.2455	1
70.2534	2
71.147	1
75.0081	2
76.2038	3
77.0841	1
77.1201	1
77.9881	1
78.0098	4
78.0669	2
78.108	3
79.0536	15
79.1195	1
79.246	1
79.263	1
80.0364	1
80.1426	2
80.2492	2
82.0143	2
82.0992	2
83.0368	2
83.0474	7
83.0693	1
83.0854	17
84.0833	3
84.1953	1
85.0641	46
85.1825	2
85.9934	3
86.1751	1
87.0474	2
88.2637	4
89.0168	4
89.1541	2
90.0711	1
91.0544	6
91.2994	2
91.3453	2
92.1779	1
93.0302	3
93.0694	28
93.0993	1
93.1155	2
94.1714	1
95.0852	27
96.0941	1
96.1881	2
96.268	1
97.065	4
97.9911	1
98.1	4
99.0801	2
99.195	2
100.0258	2
100.1022	2
101.1407	2
101.1942	1
102.1443	1
102.2054	1
103.1484	2
104.2354	1
105.0696	21
105.0818	2
105.0992	1
105.1189	2
105.2431	1
106.2169	3
106.3322	2
107.0847	48
107.1464	3
107.9863	1
108.0155	7
108.0899	7
108.1362	1
109.0064	2
109.0529	2
109.0667	6
109.1011	25
109.1326	3
109.2917	2
109.3317	2
109.9699	2
110.0091	2
110.0963	1
111.0344	1
111.0794	4
111.2955	3
111.9897	5
112.2637	2
113.2269	2
113.9787	2
113.9991	2
114.1015	2
115.0758	2
116.0608	3
116.2595	3
116.2737	1
117.1925	2
118.0707	6
118.9678	1
119.0479	2
119.0852	17
120.0156	3
120.1121	2
120.1376	2
120.1927	2
120.2348	2
121.0201	3
121.0664	2
121.1	12
121.9902	2
121.9961	2
122.0452	2
122.0727	2
122.1049	3
122.9769	3
123.0826	5
123.118	4
123.2774	1
123.9841	1
124.0122	2
124.024	1
124.0808	1
124.9967	1
125.0945	8
125.161	2
125.2834	1
126.0217	158
127.0058	3
127.0179	2
127.027	4
127.0543	1
128.0191	5
128.0954	3
128.1083	2
128.1488	1
129.0213	2
129.07	4
129.9805	1
130.1923	1
130.3151	1
130.346	2
131.0661	1
131.2258	1
131.2502	2
131.9873	4
132.2558	2
132.2875	1
132.9754	1
133.0997	6
133.1318	1
133.1599	3
133.2985	1
133.995	1
134.0116	4
134.0464	1
134.0917	6
134.1689	1
134.1781	2
134.2687	1
135.0103	2
135.0461	2
135.0573	1
135.0802	4
135.1115	7
135.1778	2
135.2962	4
135.999	2
136.1271	3
136.2105	4
136.3153	2
137.0081	2
137.0909	1
137.11	2
137.1199	3
137.1561	1
137.174	1
137.2465	2
138.0533	2
138.07	2
138.0832	2
138.1298	1
138.1495	2
138.1594	6
138.1709	1
138.297	1
139.0353	4
139.0754	1
139.2175	2
140.119	1
140.2557	1
141.0693	1
141.0871	2
141.1206	1
141.2115	2
141.2828	1
141.299	3
142.0416	1
142.1796	4
142.2771	1
142.9957	1
143.086	8
143.1351	2
143.2027	1
143.2307	3
143.2469	2
143.2625	5
143.3542	2
144.1929	2
144.2173	4
145.0383	2
145.0613	1
145.1011	15
145.1296	2
145.1668	1
146.015	1
146.1029	2
146.1503	1
146.3396	2
147.0033	1
147.1154	21
147.2668	2
147.2946	1
147.9886	2
148.1212	3
148.1461	1
148.1679	1
149.0961	5
149.1302	9
149.1818	4
149.2928	3
149.3131	1
149.3213	2
150.0174	3
150.0982	2
150.1347	2
150.1492	1
151.0118	1
151.0407	1
151.0541	1
151.1112	4
151.1535	2
151.208	2
152.1061	1
152.2961	1
152.9943	1
153.0205	3
153.0819	2
153.1611	1
153.1797	1
153.2519	2
153.2824	2
154.1058	1
154.971	2
155.0308	1
155.0846	2
155.1147	1
155.1685	1
155.2861	2
156.0395	1
156.0661	2
156.0919	4
156.1078	2
156.1385	1
156.34	1
156.9678	2
156.9999	2
157.0137	2
157.0485	3
157.0997	41
157.1438	4
157.9791	1
157.9948	1
158.05	1
158.1058	3
158.2357	2
158.3381	1
158.981	5
159.1162	79
159.1403	5
159.9937	4
160.0109	3
160.027	1
160.1196	8
160.1658	1
160.1906	3
160.2318	1
160.2664	1
161.0964	2
161.1162	1
161.1319	14
161.1746	5
161.2301	1
161.2837	1
161.3256	2
162.1452	1
162.1854	2
162.2314	1
163.1118	6
163.1974	2
163.2665	1
163.3005	2
163.9969	1
164.0193	1
164.0376	8
164.3121	2
164.9793	2
165.042	3
165.1382	1
166.0028	1
166.029	2
167.0859	2
167.1341	3
167.1916	1
167.2227	2
167.9873	4
168.0518	2
168.066	2
168.0866	4
168.2754	1
168.3483	2
169.0316	1
169.1027	15
169.1492	1
170.0621	2
170.0839	1
170.1029	2
170.133	3
171.0661	2
171.0825	2
171.1167	34
171.1684	5
171.2227	2
172.0261	3
172.1207	2
172.3131	2
173.0048	2
173.0641	4
173.0768	1
173.0927	1
173.1329	21
173.2886	4
173.9497	2
174.1014	1
174.942	2
175.0425	1
175.097	1
175.1107	14
175.1473	28
175.2548	2
175.2674	1
175.2757	2
175.3343	2
175.9768	2
176.0139	2
176.1175	2
176.1481	2
176.1695	1
176.2023	2
176.9721	1
177.0223	1
177.1126	1
177.1266	12
177.1629	3
177.9912	2
178.1776	4
178.1959	1
179.0845	1
179.3032	1
180.0169	1
180.0355	9
180.2284	1
180.2908	3
181.1013	5
181.1772	1
181.272	2
181.3006	2
182.0127	2
182.0672	3
182.2434	1
182.2859	3
183.0663	2
183.0978	2
183.1161	46
183.1521	3
183.9563	2
184.0073	3
184.125	3
184.1491	1
184.2227	1
184.2707	2
184.3198	2
185.0976	16
185.1319	56
185.9728	1
185.9871	1
186.0968	2
186.1342	9
186.1819	3
187.013	1
187.0335	4
187.1117	10
187.1465	27
187.2062	3
188.1145	2
188.1532	2
188.3308	1
189.1281	15
189.163	15
189.2708	4
189.9597	3
190.0104	1
190.1379	2
190.1934	1
191.1423	3
191.2025	1
191.2207	4
191.9358	2
191.9802	1
192.0249	3
192.1015	1
192.1603	3
192.1979	2
192.245	1
192.3104	2
192.9857	2
193.1215	2
193.221	2
193.2875	1
193.3032	1
194.0238	2
194.0472	5
194.1113	2
194.1369	4
195.0232	2
195.0898	2
195.1166	17
195.1942	2
195.2998	2
196.0735	1
196.1193	2
196.1465	1
196.2111	2
196.2192	2
197.1324	25
197.1938	2
198.0465	3
198.1333	2
198.1463	2
198.2013	1
198.3265	5
199.1476	142
199.9488	3
199.9813	2
200.1499	26
200.9773	2
201.04	2
201.0993	4
201.1262	3
201.1638	25
201.2195	1
201.9383	2
201.9815	1
202.001	1
202.0464	3
202.1024	2
202.1333	3
202.1686	4
202.2805	2
202.3304	1
203.0617	2
203.118	2
203.1431	7
203.1771	7
203.314	2
203.963	2
204.1454	3
204.2354	2
204.2574	3
205.1549	3
205.2447	1
206.0493	3
206.2142	2
206.3169	2
207.0904	3
207.12	4
207.1647	3
207.1898	1
207.2415	1
208.0633	234
209.1322	264
210.0685	8
210.0883	3
210.1358	59
210.1975	4
211.1473	59
211.2717	2
212.0426	2
212.1499	6
212.2636	4
212.3051	3
212.3428	1
213.163	187
214.0455	1
214.1086	2
214.168	26
215.039	4
215.09	2
215.1427	11
215.1601	1
215.1792	20
215.2064	2
215.3142	1
215.9486	1
215.9704	1
216.0635	4
216.1447	3
216.1817	4
216.2277	2
217.1566	4
218.1601	3
218.2639	1
218.3254	1
219.1444	1
220.0071	1
220.1054	1
220.1597	4
221.017	1
221.1308	4
221.2595	1
222.0121	2
222.0792	9
222.1075	2
222.2223	2
222.2611	1
222.9709	2
222.9914	3
223.0154	2
223.0689	1
223.0853	2
223.147	35
223.2691	3
224.0675	1
224.1498	5
224.1712	2
225.1264	4
225.1639	56
226.1048	1
226.1663	14
226.228	1
227.1427	363
227.1788	132
228.0717	5
228.0932	2
228.147	55
228.1818	26
229.1584	59
229.1904	6
230.1279	2
230.1386	1
230.1603	7
231.0072	4
231.1735	10
232.0898	2
232.1509	1
232.1797	2
232.962	1
233.2532	1
233.9352	3
234.0491	1
234.0807	14
234.1343	3
234.2536	2
234.9994	3
235.0813	3
235.1467	9
235.3435	2
236.0041	4
236.0983	3
236.1266	1
236.2625	2
237.1123	2
237.164	39
238.154	2
238.1664	5
238.3326	2
238.9702	1
239.1336	1
239.1788	24
240.1773	4
240.2017	1
240.2864	1
241.0176	4
241.1601	55
241.1951	75
241.9479	1
242.0514	2
242.0644	1
242.1609	8
242.1985	20
242.2503	2
243.1407	2
243.1744	33
243.9604	1
244.1758	8
245.1479	1
245.1892	5
246.0805	5
246.1919	2
246.2634	2
247.2502	1
247.3277	1
248.0958	36
248.22	5
248.2849	2
248.9888	1
249.0268	1
249.0976	4
249.1617	9
249.2561	1
250.1122	9
250.1698	4
250.2677	1
251.1777	15
252.083	2
252.1799	4
252.2699	1
252.2891	1
253.1597	5
253.1941	20
253.2934	2
254.1006	1
254.1997	2
255.1732	32
255.2091	6
255.2708	4
256.1768	5
256.1972	1
256.2175	3
257.0165	1
257.074	1
257.1892	4
257.2153	2
258.1131	2
259.1149	1
259.164	1
259.9369	1
260.0137	2
260.0945	13
260.1674	1
261.0968	1
261.1395	2
261.1613	3
261.2165	2
261.9864	2
262.0516	1
262.1118	18
262.2129	2
262.267	1
263.117	6
263.1802	24
263.3547	3
264.1782	5
264.2867	1
265.1163	2
265.1934	8
266.0199	2
266.1487	1
267.0285	1
267.176	5
267.1981	2
267.2118	3
267.2334	2
268.1755	2
268.2123	2
268.2249	2
268.2571	2
268.9507	2
269.1879	4
270.9526	1
271.0904	2
271.1666	2
271.2021	2
271.2779	3
271.291	2
272.3289	1
273.0224	2
273.3362	3
273.9445	1
273.9897	3
274.0204	1
274.1119	23
275.1092	3
276.1012	4
276.1311	4
277.1283	1
277.1951	25
278.0214	2
278.1985	5
278.9632	2
279.1435	1
279.18	1
279.2094	13
279.239	2
279.9474	1
280.1308	2
280.2152	5
281.04	1
281.0658	2
281.1888	20
281.2266	11
282.0134	2
282.1111	3
282.196	2
282.2302	3
283.0683	3
283.1858	1
283.208	7
283.2448	2
284.0194	3
284.0307	1
284.1572	2
284.2172	2
284.245	2
284.2792	2
285.1028	1
285.2546	2
286.1057	6
286.2931	2
286.3441	1
287.2052	1
287.2334	2
287.9766	1
288.1281	9
289.1299	4
290.0967	1
290.1247	2
290.1986	1
290.3051	2
290.9629	2
291.2098	8
292.0243	2
292.0612	2
292.133	3
292.2146	3
292.3393	1
292.9496	1
293.0496	2
293.1014	3
293.1271	1
293.2262	38
293.2686	2
293.3119	3
293.3402	2
294.0067	1
294.0728	5
294.2297	8
295.2051	46
295.2415	82
295.9526	2
296.0082	3
296.0866	1
296.2095	8
296.246	17
296.3427	2
297.0759	1
297.2459	2
299.1378	2
300.006	1
300.0193	1
300.1252	18
300.1476	3
300.9917	1
301.1288	3
302.0201	1
302.1401	5
302.2228	3
302.3418	2
303.1288	2
303.1472	4
304.3566	2
305.0687	1
305.0817	1
305.2036	2
305.9576	2
307.0504	1
307.2421	2
307.3119	2
308.2194	1
308.3259	1
308.9616	3
309.0141	2
309.1217	4
309.2241	4
309.2558	55
309.9634	1
309.9874	1
310.078	2
310.136	2
310.1919	2
310.2398	2
310.2605	13
311.1125	1
311.2502	1
311.9867	1
312.159	1
312.206	2
312.2206	1
312.2939	1
313.3208	2
314.0029	2
314.1222	1
314.1459	10
314.2299	2
315.1857	1
316.1391	2
316.1556	8
316.2914	2
317.022	2
317.3511	3
318.1679	2
319.242	551
320.2455	127
320.9907	2
321.1484	3
321.2501	19
321.3397	2
321.964	1
322.0921	2
323.1293	2
323.2077	2
324.0115	4
324.1232	1
326.1376	1
326.3545	1
327.1369	1
327.269	1
327.2934	1
328.1573	9
328.241	1
328.3032	1
329.1547	4
330.1783	2
330.9773	1
332.2615	3
334.072	1
336.2394	1
336.2504	1
336.3314	2
337.2523	999
338.256	232
339.1635	1
339.2426	1
339.2588	14
340.0009	2
340.1139	2
340.1333	2
340.1567	5
340.1901	1
340.2644	2
341.16	2
342.1751	10
344.1879	8
344.9866	4
345.1568	1
345.2705	1
347.0678	3
347.2877	2
349.098	2
351.9778	2
352.1576	23
352.1945	1
353.1581	2
353.2433	1
354.0033	2
354.1472	2
354.1719	19
354.3255	1
355.1773	2
355.2662	14
356.026	2
356.1788	6
356.1908	6
356.2645	5
357.1862	2
358.1992	1
358.2758	2
358.9828	2
361.0054	1
361.1028	2
362.2802	1
365.08	2
366.1743	8
367.0277	1
367.1741	5
368.1872	26
368.2259	1
368.2645	1
369.1294	1
369.1936	2
370.1797	3
370.1905	2
372.9561	1
374.0344	1
377.0356	5
377.2801	1
377.9698	2
380.1914	1
380.207	1
382.0279	2
382.1981	2
383.0667	2
383.209	1
384.2225	2
385.2253	3
387.1936	2
388.1956	2
390.1493	1
392.1946	3
392.2389	4
394.1819	2
394.2072	1
398.3486	1
400.1421	2
400.181	1
404.2209	2
406.2007	3
407.3261	1
407.9392	2
408.2244	9
409.2241	3
410.216	1
410.262	1
417.1971	1
417.2374	2
420.2196	4
423.2229	1
428.1354	2
429.2866	1
431.1444	1
433.2789	2
434.247	2
436.1922	1
436.9868	1
441.9394	1
441.9955	1
443.9574	1
444.2585	9
445.1386	1
445.1871	1
445.2149	1
445.2616	3
446.1042	1
448.9383	1
453.1892	2
457.1861	1
459.0271	1
461.202	1
462.2674	661
463.2704	168
463.9981	2
464.16	2
464.2113	5
464.2685	42
465.1033	2
465.188	2
465.2685	6
466.214	2
466.271	1
466.2979	1
467.0624	1
467.2188	1
472.1892	1
480.2818	5
480.3157	2
480.9799	2
485.0247	2
490.9815	2
498.2782	1
501.9376	1
502.2449	1
519.2658	3
521.1833	1
