Mass spectrum: Pantothenic acid; LC-ESI-QTOF; MS2; CE: 10; R=; [M+H]+
Name: Pantothenic acid
Name: D-pantothenic acid
Name: 3-[(2,4-dihydroxy-3,3-dimethylbutanoyl)amino]propanoic acid
Formula: C9H17NO5
Exact mass: 219.1107
SMILES: CC(C)(CO)C(O)C(=O)NCCC(O)=O
InChI: InChI=1S/C9H17NO5/c1-9(2,5-11)7(14)8(15)10-4-3-6(12)13/h7,11,14H,3-5H2,1-2H3,(H,10,15)(H,12,13)
Instrument: maXis plus UHR-ToF-MS, Bruker Daltonics
Instrument type: LC-ESI-QTOF
Ms type: MS2
Ion mode: POSITIVE
Ionization: ESI
Fragmentation mode: CID
Collision energy: 10
Column name: BEH C18 1.7um, 2.1x100mm, Waters
Retention time: 1.630 min
Base peak: 220.1181
Precursor m/z: 220.1179
Precursor type: [M+H]+
m/z	relative intensity
69.0697	2
72.0439	2
73.0285	1
75.0895	1
85.0631	2
90.0547	124
91.0599	2
95.0471	1
103.0754	2
116.0338	5
124.074	1
125.0814	1
146.0603	1
156.1021	1
174.1132	2
175.1166	1
184.0965	39
185.101	4
202.1077	116
203.1109	8
220.1181	999
222.1229	8
