Mass spectrum: Tauroursodeoxycholic acid; LC-ESI-QTOF; MS2; CE: 10; R=; [M+H]+
Name: Tauroursodeoxycholic acid
Name: 2-[[(4R)-4-[(3R,5S,7S,8R,9S,10S,13R,14S,17R)-3,7-dihydroxy-10,13-dimethyl-2,3,4,5,6,7,8,9,11,12,14,15,16,17-tetradecahydro-1H-cyclopenta[a]phenanthren-17-yl]pentanoyl]amino]ethanesulfonic acid
Formula: C26H45NO6S
Exact mass: 499.2968
SMILES: C[C@H](CCC(=O)NCCS(=O)(=O)O)[C@H]1CC[C@@H]2[C@@]1(CC[C@H]3[C@H]2[C@H](C[C@H]4[C@@]3(CC[C@H](C4)O)C)O)C
InChI: InChI=1S/C26H45NO6S/c1-16(4-7-23(30)27-12-13-34(31,32)33)19-5-6-20-24-21(9-11-26(19,20)3)25(2)10-8-18(28)14-17(25)15-22(24)29/h16-22,24,28-29H,4-15H2,1-3H3,(H,27,30)(H,31,32,33)/t16-,17+,18-,19-,20+,21+,22+,24+,25+,26-/m1/s1
Instrument: maXis plus UHR-ToF-MS, Bruker Daltonics
Instrument type: LC-ESI-QTOF
Ms type: MS2
Ion mode: POSITIVE
Ionization: ESI
Fragmentation mode: CID
Collision energy: 10
Column name: BEH C18 1.7um, 2.1x100mm, Waters
Retention time: 3.883 min
Base peak: 88.0749
Precursor m/z: 500.304
Precursor type: [M+H]+
m/z	relative intensity
201.3403	1
246.3283	1
253.2978	1
336.3263	1
339.2695	1
385.0802	1
394.2509	1
397.091	1
417.9842	1
424.1778	1
459.2166	1
463.0821	1
463.2834	1
463.3012	1
463.3204	1
463.3439	1
464.2823	999
465.2856	277
466.2849	63
467.2877	4
468.2768	1
481.2607	1
482.2928	443
483.2964	120
484.2946	19
486.2989	1
500.3031	232
502.2362	1
502.3047	13
