Mass spectrum: Quercetin; LC-ESI-QTOF; MS2; CE: 20; R=; [M-H]-
Name: Quercetin
Name: 2-(3,4-dihydroxyphenyl)-3,5,7-trihydroxychromen-4-one
Formula: C15H10O7
Exact mass: 302.0427
SMILES: OC1=CC(O)=C2C(OC(=C(O)C2=O)C2=CC=C(O)C(O)=C2)=C1
InChI: InChI=1S/C15H10O7/c16-7-4-10(19)12-11(5-7)22-15(14(21)13(12)20)6-1-2-8(17)9(18)3-6/h1-5,16-19,21H
Instrument: maXis plus UHR-ToF-MS, Bruker Daltonics
Instrument type: LC-ESI-QTOF
Ms type: MS2
Ion mode: NEGATIVE
Ionization: ESI
Fragmentation mode: CID
Collision energy: 20
Column name: BEH C18 1.7um, 2.1x100mm, Waters
Retention time: 3.820 min
Base peak: 68.9897
Precursor m/z: 301.0354
Precursor type: [M-H]-
m/z	relative intensity
151.0073	604
179.002	999
179.0363	394
192.058	525
209.0104	420
