Mass spectrum: Tricosanoyl Ethanolamide; LC-ESI-QTOF; MS2; CE: 20; R=; [M+H]+
Name: Tricosanoyl Ethanolamide
Name: Tricosanoyl-EA
Name: N-(2-hydroxyethyl)tricosanamide
Formula: C25H51NO2
Exact mass: 397.39198
SMILES: O=C(CCCCCCCCCCCCCCCCCCCCCC)NCCO
InChI: InChI=1S/C25H51NO2/c1-2-3-4-5-6-7-8-9-10-11-12-13-14-15-16-17-18-19-20-21-22-25(28)26-23-24-27/h27H,2-24H2,1H3,(H,26,28)
Instrument: maXis plus UHR-ToF-MS, Bruker Daltonics
Instrument type: LC-ESI-QTOF
Ms type: MS2
Ion mode: POSITIVE
Ionization: ESI
Fragmentation mode: CID
Collision energy: 20
Column name: BEH C18 1.7um, 2.1x100mm, Waters
Retention time: 8.751 min
Base peak: 88.0752
Precursor m/z: 398.3993
Precursor type: [M+H]+
m/z	relative intensity
89.0599	25
151.1475	13
185.0695	11
208.0822	11
211.1487	11
225.1953	11
250.0954	14
251.1035	13
261.316	18
278.2235	16
283.3337	12
305.1878	16
309.1214	13
321.351	25
330.2792	11
331.1652	16
331.2155	17
345.3508	12
355.2878	12
366.293	24
374.0832	19
380.3836	25
381.3714	112
382.3804	20
383.3769	30
388.3425	13
389.0805	15
393.3887	14
397.2756	23
397.3304	23
398.3988	999
400.31	88
