Mass spectrum: Taurocholic acid; LC-ESI-QTOF; MS2; CE: 20; R=; [M+H]+
Name: Taurocholic acid
Name: 2-[[(4R)-4-[(3R,5S,7R,8R,9S,10S,12S,13R,14S,17R)-3,7,12-trihydroxy-10,13-dimethyl-2,3,4,5,6,7,8,9,11,12,14,15,16,17-tetradecahydro-1H-cyclopenta[a]phenanthren-17-yl]pentanoyl]amino]ethanesulfonic acid
Formula: C26H45NO7S
Exact mass: 515.2917
SMILES: C[C@H](CC/C(=N/CCS(=O)(=O)O)/O)[C@H]1CC[C@@H]2[C@@]1([C@H](C[C@H]3[C@H]2[C@@H](C[C@H]4[C@@]3(CC[C@H](C4)O)C)O)O)C
InChI: InChI=1S/C26H45NO7S/c1-15(4-7-23(31)27-10-11-35(32,33)34)18-5-6-19-24-20(14-22(30)26(18,19)3)25(2)9-8-17(28)12-16(25)13-21(24)29/h15-22,24,28-30H,4-14H2,1-3H3,(H,27,31)(H,32,33,34)/t15-,16+,17-,18-,19+,20+,21-,22+,24+,25+,26-/m1/s1
Instrument: maXis plus UHR-ToF-MS, Bruker Daltonics
Instrument type: LC-ESI-QTOF
Ms type: MS2
Ion mode: POSITIVE
Ionization: ESI
Fragmentation mode: CID
Collision energy: 20
Column name: BEH C18 1.7um, 2.1x100mm, Waters
Retention time: 3.915 min
Base peak: 516.2982
Precursor m/z: 516.299
Precursor type: [M+H]+
m/z	relative intensity
126.0217	1
208.0648	2
209.1321	1
227.144	2
227.1802	1
265.1884	1
307.0243	1
319.2419	11
320.2442	1
337.252	119
338.2559	21
339.26	3
342.175	1
352.1579	1
354.1719	1
355.1791	1
355.2608	2
376.0387	1
420.2204	3
453.2062	1
460.941	1
461.0659	1
461.3002	1
461.3211	1
462.2665	999
463.2697	318
464.2693	64
465.2711	8
465.3132	1
480.2767	334
481.2801	91
482.2797	21
483.279	3
498.2872	116
499.291	32
500.2898	9
516.299	17
