Mass spectrum: Apigenin; LC-ESI-QTOF; MS2; CE: 10; R=; [M+H]+
Name: Apigenin
Name: 5,7-dihydroxy-2-(4-hydroxyphenyl)chromen-4-one
Formula: C15H10O5
Exact mass: 270.0528
SMILES: Oc1ccc(cc1)-c1cc(=O)c2c(O)cc(O)cc2o1
InChI: InChI=1S/C15H10O5/c16-9-3-1-8(2-4-9)13-7-12(19)15-11(18)5-10(17)6-14(15)20-13/h1-7,16-18H
Instrument: maXis plus UHR-ToF-MS, Bruker Daltonics
Instrument type: LC-ESI-QTOF
Ms type: MS2
Ion mode: POSITIVE
Ionization: ESI
Fragmentation mode: CID
Collision energy: 10
Column name: BEH C18 1.7um, 2.1x100mm, Waters
Retention time: 3.938 min
Base peak: 85.0577
Precursor m/z: 271.0601
Precursor type: [M+H]+
m/z	relative intensity
158.0122	1
271.0601	999
