Mass spectrum: (-)-Epigallocatechin gallate; LC-ESI-QTOF; MS2; CE: 40; R=; [M+H]+
Name: (-)-Epigallocatechin gallate
Name: [(2R,3R)-5,7-dihydroxy-2-(3,4,5-trihydroxyphenyl)-3,4-dihydro-2H-chromen-3-yl] 3,4,5-trihydroxybenzoate
Name: 3-O-Galloyl-(-)-epigallocatechin
Name: Benzoic acid, 3,4,5-trihydroxy-, (2R,3R)-3,4-dihydro-5,7-dihydroxy-2-(3,4,5-trihydroxyphenyl)-2H-1-benzopyran-3-yl ester
Name: (-)-Epigallocatechin 3-gallate
Name: Epigallocatechin-3-monogallate
Name: (-)-Epigallocatechin 3-O-gallate
Name: (-)-Epigallocatechol gallate
Name: Gallic acid, 3-ester with epigallocatechol, (-)-
Name: L-Epigallocatechin gallate
Formula: C22H18O11
Exact mass: 458.08491
SMILES: C1[C@H]([C@H](OC2=CC(=CC(=C21)O)O)C3=CC(=C(C(=C3)O)O)O)OC(=O)C4=CC(=C(C(=C4)O)O)O
InChI: InChI=1S/C22H18O11/c23-10-5-12(24)11-7-18(33-22(31)9-3-15(27)20(30)16(28)4-9)21(32-17(11)6-10)8-1-13(25)19(29)14(26)2-8/h1-6,18,21,23-30H,7H2/t18-,21-/m1/s1
Instrument: maXis plus UHR-ToF-MS, Bruker Daltonics
Instrument type: LC-ESI-QTOF
Ms type: MS2
Ion mode: POSITIVE
Ionization: ESI
Fragmentation mode: CID
Collision energy: 40
Column name: BEH C18 1.7um, 2.1x100mm, Waters
Retention time: 2.748 min
Base peak: 459.092
Precursor m/z: 459.0922
Precursor type: [M+H]+
m/z	relative intensity
53.0388	1
55.054	1
59.086	2
67.0546	3
68.9967	16
71.0702	4
79.0021	1
79.0173	4
79.998	1
80.0099	1
85.9872	1
93.0337	6
93.9889	2
95.0495	4
96.9914	1
98.0116	1
98.0733	1
99.1035	1
100.0393	1
101.0234	1
102.0795	1
107.0724	1
108.0425	1
110.0312	1
110.0783	1
111.0077	5
111.0433	15
112.0472	3
113.0954	1
121.0281	5
121.0385	2
123.0429	12
124.9987	1
125.0265	1
127.0414	3
128.0439	2
133.0278	1
135.0407	3
137.0674	2
139.0387	999
140.0423	87
141.0338	1
141.0448	12
141.0691	2
142.0485	1
143.036	2
143.1131	1
144.9629	1
145.0713	1
146.9795	3
151.0395	75
152.0419	8
153.0179	165
153.9912	1
154.0209	9
154.0764	1
156.0487	1
159.0403	2
160.0183	1
161.0607	1
162.0678	2
163.0389	92
164.0434	8
165.0419	1
167.03	1
169.0466	2
169.0657	1
170.1058	1
173.1291	1
176.0016	2
176.9755	1
177.0176	1
179.0341	21
179.0696	8
180.0377	1
181.0483	37
182.0525	2
183.0457	1
185.0581	3
186.0398	1
187.0363	1
187.0747	2
188.045	3
190.1295	2
191.07	1
192.0178	1
195.0675	3
199.0373	3
201.0549	4
202.9994	1
203.0352	1
203.0447	2
204.9617	1
205.0494	22
205.0753	1
207.0265	1
213.0535	3
215.0683	2
221.0389	2
221.0475	3
223.0441	1
223.0593	5
227.0316	2
229.0486	1
231.033	2
231.0648	1
236.9514	1
238.9966	1
241.0484	8
243.0624	2
244.9831	1
245.0383	1
247.0618	5
248.0572	2
249.006	1
257.0454	3
258.0512	2
259.0607	3
259.1025	3
265.0723	1
269.036	1
271.0599	3
271.1194	2
272.0652	1
273.0486	1
276.9889	2
287.0543	11
288.058	2
289.0701	26
290.0733	3
305.0672	12
306.063	1
331.0558	1
337.9659	1
