Mass spectrum: Indolacetic acid; LC-ESI-QTOF; MS2; CE: 20; R=; [M+H]+
Name: Indolacetic acid
Name: indole-3-acetic acid
Name: 2-(1H-indol-3-yl)acetic acid
Formula: C10H9NO2
Exact mass: 175.0633
SMILES: OC(=O)CC1=CNC2=C1C=CC=C2
InChI: InChI=1S/C10H9NO2/c12-10(13)5-7-6-11-9-4-2-1-3-8(7)9/h1-4,6,11H,5H2,(H,12,13)
Instrument: maXis plus UHR-ToF-MS, Bruker Daltonics
Instrument type: LC-ESI-QTOF
Ms type: MS2
Ion mode: POSITIVE
Ionization: ESI
Fragmentation mode: CID
Collision energy: 20
Column name: BEH C18 1.7um, 2.1x100mm, Waters
Retention time: 3.517 min
Base peak: 176.0698
Precursor m/z: 176.0706
Precursor type: [M+H]+
m/z	relative intensity
59.0481	2
78.046	1
82.0399	2
84.0573	1
85.0273	2
86.0363	2
88.0752	9
95.0487	5
103.0545	43
104.0474	2
105.0412	2
106.0641	1
111.0101	1
117.057	4
130.0649	999
131.0679	87
145.0153	2
154.0164	4
158.0604	5
162.0541	5
175.0618	7
176.0708	37
