Mass spectrum: L-Cystine; LC-ESI-QTOF; MS2; CE: 40; R=; [M+H]+
Name: L-Cystine
Name: (2R)-2-azaniumyl-3-[[(2R)-2-azaniumyl-2-carboxylatoethyl]disulfanyl]propanoate
Formula: C6H12N2O4S2
Exact mass: 240.0238
SMILES: N[C@@H](CSSC[C@H](N)C(O)=O)C(O)=O
InChI: InChI=1S/C6H12N2O4S2/c7-3(5(9)10)1-13-14-2-4(8)6(11)12/h3-4H,1-2,7-8H2,(H,9,10)(H,11,12)/t3-,4-/m0/s1
Instrument: maXis plus UHR-ToF-MS, Bruker Daltonics
Instrument type: LC-ESI-QTOF
Ms type: MS2
Ion mode: POSITIVE
Ionization: ESI
Fragmentation mode: CID
Collision energy: 40
Column name: BEH C18 1.7um, 2.1x100mm, Waters
Retention time: 0.576 min
Base peak: 76.0206
Precursor m/z: 241.0311
Precursor type: [M+H]+
m/z	relative intensity
62.9899	61
74.0226	253
76.0208	999
77.0292	33
86.9889	181
90.0298	33
104.9996	107
122.0275	79
