Mass spectrum: N2-Methylguanosine; LC-ESI-QTOF; MS2; CE: 10; R=; [M+H]+
Name: N2-Methylguanosine
Name: 9-[(2R,3R,4S,5R)-3,4-dihydroxy-5-(hydroxymethyl)oxolan-2-yl]-2-(methylamino)-3H-purin-6-one
Formula: C11H15N5O5
Exact mass: 297.1073
SMILES: CNc1[nH]c(=O)c2c(n1)n(cn2)[C@H]3[C@@H]([C@@H]([C@H](O3)CO)O)O
InChI: InChI=1S/C11H15N5O5/c1-12-11-14-8-5(9(20)15-11)13-3-16(8)10-7(19)6(18)4(2-17)21-10/h3-4,6-7,10,17-19H,2H2,1H3,(H2,12,14,15,20)/t4-,6-,7-,10-/m1/s1
Instrument: maXis plus UHR-ToF-MS, Bruker Daltonics
Instrument type: LC-ESI-QTOF
Ms type: MS2
Ion mode: POSITIVE
Ionization: ESI
Fragmentation mode: CID
Collision energy: 10
Column name: BEH C18 1.7um, 2.1x100mm, Waters
Retention time: 0.941 min
Base peak: 298.1148
Precursor m/z: 298.1146
Precursor type: [M+H]+
m/z	relative intensity
56.0253	22
111.0413	13
117.0554	31
122.0459	11
143.0491	21
145.9966	12
158.9896	18
166.0721	999
167.0654	21
167.078	39
169.0917	12
222.0659	18
234.0736	24
288.0818	17
298.1135	245
300.1171	22
