Mass spectrum: N-Acetyl-D-Mannosamine; LC-ESI-QTOF; MS2; CE: 20; R=; [M+H]+
Name: N-Acetyl-D-Mannosamine
Name: aldehydo-N-acetyl-D-mannosamine
Name: N-[(2R,3S,4R,5S)-3,4,5,6-tetrahydroxy-1-oxohexan-2-yl]acetamide
Formula: C8H15NO6
Exact mass: 221.0899
SMILES: CC(=O)N[C@@H](C=O)[C@H](O)[C@@H](O)[C@@H](O)CO
InChI: InChI=1S/C8H15NO6/c1-4(12)9-5(2-10)7(14)8(15)6(13)3-11/h2,5-8,11,13-15H,3H2,1H3,(H,9,12)/t5-,6-,7-,8-/m0/s1
Instrument: maXis plus UHR-ToF-MS, Bruker Daltonics
Instrument type: LC-ESI-QTOF
Ms type: MS2
Ion mode: POSITIVE
Ionization: ESI
Fragmentation mode: CID
Collision energy: 20
Column name: BEH C18 1.7um, 2.1x100mm, Waters
Retention time: 0.601 min
Base peak: 204.0864
Precursor m/z: 222.0972
Precursor type: [M+H]+
m/z	relative intensity
61.0268	20
66.0313	7
69.0317	13
73.0279	8
75.0424	6
81.0329	37
82.0285	6
82.0368	14
84.0438	999
85.0847	12
90.112	5
96.0324	6
96.0442	51
97.0287	25
98.0603	36
99.0447	12
101.0222	8
103.0394	6
109.0286	32
118.1224	8
126.0543	280
127.0579	27
138.0547	422
139.0581	63
142.0508	6
143.1029	7
144.0655	199
144.0785	32
145.0723	15
156.0627	7
168.0659	132
169.0822	7
173.055	9
186.0761	68
204.0869	57
