Mass spectrum: 2-Hydroxyphenylacetic acid; LC-ESI-QTOF; MS2; CE: 20; R=; [M-H]-
Name: 2-Hydroxyphenylacetic acid
Name: 2-(2-hydroxyphenyl)acetic acid
Formula: C8H8O3
Exact mass: 152.0473
SMILES: OC(=O)Cc1ccccc1O
InChI: InChI=1S/C8H8O3/c9-7-4-2-1-3-6(7)5-8(10)11/h1-4,9H,5H2,(H,10,11)
Instrument: maXis plus UHR-ToF-MS, Bruker Daltonics
Instrument type: LC-ESI-QTOF
Ms type: MS2
Ion mode: NEGATIVE
Ionization: ESI
Fragmentation mode: CID
Collision energy: 20
Column name: BEH C18 1.7um, 2.1x100mm, Waters
Retention time: 3.029 min
Base peak: 107.0502
Precursor m/z: 151.0401
Precursor type: [M-H]-
m/z	relative intensity
106.0433	9
107.0506	999
