Mass spectrum: Trans-Cinnamic acid; LC-ESI-QTOF; MS2; CE: 10; R=; [M+H]+
Name: Trans-Cinnamic acid
Name: CINNAMIC ACID
Name: (E)-3-phenylprop-2-enoic acid
Formula: C9H8O2
Exact mass: 148.0524
SMILES: O=C(O)\C=C\c1ccccc1
InChI: InChI=1S/C9H8O2/c10-9(11)7-6-8-4-2-1-3-5-8/h1-7H,(H,10,11)/b7-6+
Instrument: maXis plus UHR-ToF-MS, Bruker Daltonics
Instrument type: LC-ESI-QTOF
Ms type: MS2
Ion mode: POSITIVE
Ionization: ESI
Fragmentation mode: CID
Collision energy: 10
Column name: BEH C18 1.7um, 2.1x100mm, Waters
Retention time: 3.950 min
Base peak: 131.0492
Precursor m/z: 149.0597
Precursor type: [M+H]+
m/z	relative intensity
77.0383	7
103.054	150
104.0573	12
105.07	1
107.0491	3
131.0492	999
132.0523	90
149.0591	119
