Mass spectrum: ?-Tauromuricholic acid; LC-ESI-QTOF; MS2; CE: 10; R=; [M+H]+
Name: ?-Tauromuricholic acid
Name: 2-[4-(3,6,7-trihydroxy-10,13-dimethyl-2,3,4,5,6,7,8,9,11,12,14,15,16,17-tetradecahydro-1H-cyclopenta[a]phenanthren-17-yl)pentanoylamino]ethanesulfonic acid
Formula: C26H45NO7S
Exact mass: 515.2917
SMILES: CC(CCC(=O)NCCS(=O)(=O)O)C1CCC2C1(CCC3C2C(C(C4C3(CCC(C4)O)C)O)O)C
InChI: InChI=1S/C26H45NO7S/c1-15(4-7-21(29)27-12-13-35(32,33)34)17-5-6-18-22-19(9-11-25(17,18)2)26(3)10-8-16(28)14-20(26)23(30)24(22)31/h15-20,22-24,28,30-31H,4-14H2,1-3H3,(H,27,29)(H,32,33,34)
Instrument: maXis plus UHR-ToF-MS, Bruker Daltonics
Instrument type: LC-ESI-QTOF
Ms type: MS2
Ion mode: POSITIVE
Ionization: ESI
Fragmentation mode: CID
Collision energy: 10
Column name: BEH C18 1.7um, 2.1x100mm, Waters
Retention time: 3.727 min
Base peak: 88.0752
Precursor m/z: 516.299
Precursor type: [M+H]+
m/z	relative intensity
196.0614	1
230.091	1
245.0551	1
247.0052	1
260.1267	1
263.007	1
266.2286	1
285.0598	1
287.9343	1
291.9437	1
294.0196	1
295.242	1
297.2047	1
297.354	1
297.9722	1
301.1827	1
301.9797	1
304.3224	1
306.062	1
309.0219	1
309.0519	1
309.9871	1
324.2111	1
324.3087	1
331.0403	1
332.15	1
332.1765	1
336.2564	1
344.153	1
346.0368	1
348.1558	1
349.0243	1
351.9797	2
355.2553	1
358.2126	1
361.3001	1
362.2261	1
363.0703	1
363.2196	1
366.1033	1
367.3474	1
369.1868	1
369.9936	2
374.3226	1
377.9342	1
377.9542	1
378.2823	1
381.0473	1
383.2353	1
384.2226	1
384.9907	1
386.079	1
386.9816	1
387.2559	1
388.1358	1
388.2557	1
390.0059	1
390.2679	2
395.1022	1
396.2401	1
396.3135	1
399.0975	1
399.2683	1
399.3195	1
401.9478	1
404.2803	1
405.2148	1
405.9489	1
406.0119	1
406.1951	1
406.3422	1
407.9347	2
409.228	1
413.1377	1
413.1589	1
414.3362	1
415.0824	1
415.1983	1
416.1881	1
416.2656	1
417.0162	1
424.1629	1
425.2416	1
426.056	1
432.2281	1
435.2949	1
436.9843	1
438.1572	1
440.3411	1
442.1428	1
443.2957	2
447.3167	1
449.0674	1
453.0486	1
454.0243	1
455.1861	1
456.1708	1
456.284	1
457.1033	1
458.1397	1
459.0396	1
459.9791	1
462.2682	21
463.2648	2
463.279	2
464.2671	2
465.2021	1
467.9807	1
476.0521	1
476.215	1
477.1752	1
479.0176	1
479.3359	1
480.2781	197
481.2825	41
482.0354	1
482.1897	1
482.282	8
483.2814	1
494.1125	1
496.274	1
497.2185	1
497.2488	1
497.2842	1
497.327	2
498.2884	493
499.2921	117
500.2922	33
501.2869	4
502.2964	1
507.1714	1
515.2892	1
516.2992	999
518.3013	53
519.2998	9
520.9924	1
