Mass spectrum: delta7-Dafachronic acid; LC-ESI-QTOF; MS2; CE: 20; R=; [M+H]+
Name: delta7-Dafachronic acid
Name: Delta(7)-dafachronic acid
Name: (6R)-6-[(5S,9R,10S,13R,14R,17R)-10,13-dimethyl-3-oxo-1,2,4,5,6,9,11,12,14,15,16,17-dodecahydrocyclopenta[a]phenanthren-17-yl]-2-methylheptanoic acid
Formula: C27H42O3
Exact mass: 414.3134
SMILES: C[C@H](CCCC(C)C(O)=O)[C@H]1CC[C@H]2C3=CC[C@H]4CC(=O)CC[C@]4(C)[C@H]3CC[C@]12C
InChI: InChI=1S/C27H42O3/c1-17(6-5-7-18(2)25(29)30)22-10-11-23-21-9-8-19-16-20(28)12-14-26(19,3)24(21)13-15-27(22,23)4/h9,17-19,22-24H,5-8,10-16H2,1-4H3,(H,29,30)/t17-,18?,19+,22-,23+,24+,26+,27-/m1/s1
Instrument: maXis plus UHR-ToF-MS, Bruker Daltonics
Instrument type: LC-ESI-QTOF
Ms type: MS2
Ion mode: POSITIVE
Ionization: ESI
Fragmentation mode: CID
Collision energy: 20
Column name: BEH C18 1.7um, 2.1x100mm, Waters
Retention time: 6.774 min
Base peak: 88.075
Precursor m/z: 415.3207
Precursor type: [M+H]+
m/z	relative intensity
69.0699	11
95.0862	15
99.0803	20
123.1163	10
135.116	13
139.017	19
147.1177	14
149.1328	13
150.0411	31
159.1162	41
161.1295	32
164.155	9
171.1127	10
177.1262	11
179.1441	13
183.1155	24
185.1331	24
190.1733	17
191.142	17
198.0219	13
199.1479	9
201.0535	9
202.1657	9
203.1409	26
205.1308	10
213.1621	51
219.1732	33
220.121	10
223.1685	18
227.1795	37
229.1464	15
229.1552	15
229.1956	12
231.1742	25
235.1683	25
235.2075	9
237.1588	18
237.1846	37
241.1938	19
247.125	17
248.0692	9
249.1852	21
253.194	14
255.2095	20
256.217	13
262.2863	15
271.2042	23
272.2081	9
274.1892	10
275.1997	18
277.2166	20
280.2121	12
283.1824	12
283.2005	10
287.238	11
288.2144	11
289.2185	24
295.017	12
296.0937	9
298.2255	13
303.2385	25
311.2745	14
313.1517	10
314.9965	11
315.1881	13
315.2288	42
315.2657	16
317.2455	14
329.2378	14
331.27	12
332.2709	12
333.191	12
335.0204	11
337.255	9
341.0609	9
345.2741	17
351.3028	27
354.0403	10
355.2187	14
355.9891	19
357.2766	14
358.2964	26
361.2874	19
362.2979	11
363.2915	14
366.2652	9
369.3125	79
379.1414	10
379.2983	50
380.3122	25
381.3075	11
385.1523	9
394.2582	10
397.3097	847
398.3149	206
400.2936	15
413.2803	24
414.0597	19
414.2867	11
414.3201	10
415.3207	999
417.3265	23
