Mass spectrum: 2-Hydroxyphenanzine-1-Carboxylic acid; LC-ESI-QTOF; MS2; CE: 40; R=; [M+H]+
Name: 2-Hydroxyphenanzine-1-Carboxylic acid
Name: 2-Hydroxyphenazine-1-carboxylic acid
Name: 2-oxo-10H-phenazine-1-carboxylic acid
Formula: C13H8N2O3
Exact mass: 240.05349
SMILES: C1=CC=C2C(=C1)NC3=C(C(=O)C=CC3=N2)C(=O)O
InChI: InChI=1S/C13H8N2O3/c16-10-6-5-9-12(11(10)13(17)18)15-8-4-2-1-3-7(8)14-9/h1-6,15H,(H,17,18)
Instrument: maXis plus UHR-ToF-MS, Bruker Daltonics
Instrument type: LC-ESI-QTOF
Ms type: MS2
Ion mode: POSITIVE
Ionization: ESI
Fragmentation mode: CID
Collision energy: 40
Column name: BEH C18 1.7um, 2.1x100mm, Waters
Retention time: 4.236 min
Base peak: 79.0203
Precursor m/z: 241.0608
Precursor type: [M+H]+
m/z	relative intensity
49.063	2
55.0166	2
64.0176	3
67.0295	2
72.0061	2
75.0098	1
77.0381	4
80.0377	2
84.0448	1
85.0026	2
86.0346	2
88.0145	3
90.0543	3
92.0489	16
93.07	1
95.0485	4
104.0115	2
106.0507	1
109.9977	2
112.0178	1
114.0505	3
115.0553	2
116.9973	4
118.0382	1
120.0413	2
123.0802	2
124.0404	3
129.0407	3
130.0413	5
135.015	2
138.0539	1
140.0239	3
140.0488	61
141.0533	8
143.0457	1
143.0607	5
145.0638	2
146.0449	3
146.0575	2
150.0519	2
151.042	7
152.05	43
153.0204	2
153.0446	18
155.0558	2
157.008	3
158.0713	5
165.0456	1
166.0537	10
167.0599	999
168.0639	73
169.0379	1
170.0608	18
171.0323	2
171.055	23
172.0606	5
173.9962	1
176.0563	1
179.06	951
180.0637	89
181.0658	4
185.0707	38
195.0554	178
196.0585	19
197.0702	4
213.9864	2
223.0505	152
224.0538	21
240.0407	2
241.0607	129
243.0632	3
