Mass spectrum: ascr#7; LC-ESI-QTOF; MS2; CE: 40; R=; [M+H]+
Name: ascr#7
Name: (E,6R)-6-[(2R,3R,5R,6S)-3,5-dihydroxy-6-methyloxan-2-yl]oxyhept-2-enoic acid
Formula: C13H22O6
Exact mass: 274.1416
SMILES: C[C@H](CC\C=C\C(O)=O)O[C@@H]1O[C@@H](C)[C@H](O)C[C@H]1O
InChI: InChI=1S/C13H22O6/c1-8(5-3-4-6-12(16)17)18-13-11(15)7-10(14)9(2)19-13/h4,6,8-11,13-15H,3,5,7H2,1-2H3,(H,16,17)/b6-4+/t8-,9+,10-,11-,13-/m1/s1
Instrument: maXis plus UHR-ToF-MS, Bruker Daltonics
Instrument type: LC-ESI-QTOF
Ms type: MS2
Ion mode: POSITIVE
Ionization: ESI
Fragmentation mode: CID
Collision energy: 40
Column name: BEH C18 1.7um, 2.1x100mm, Waters
Retention time: 2.926 min
Base peak: 275.1487
Precursor m/z: 275.1489
Precursor type: [M+H]+
m/z	relative intensity
53.0381	9
53.0596	2
57.0701	14
69.0329	18
75.0433	13
81.0693	800
83.0485	999
85.0278	15
85.0646	306
87.0449	4
95.0482	76
96.0528	3
97.0654	3
99.0795	6
109.0642	59
110.0675	3
113.0592	53
114.0625	4
127.0741	19
131.0702	7
