Mass spectrum: 7-Methylxanthine; LC-ESI-QTOF; MS2; CE: 40; R=; [M+H]+
Name: 7-Methylxanthine
Name: 7-methyl-3H-purine-2,6-dione
Formula: C6H6N4O2
Exact mass: 166.0491
SMILES: Cn1cnc2[nH]c(=O)[nH]c(=O)c12
InChI: InChI=1S/C6H6N4O2/c1-10-2-7-4-3(10)5(11)9-6(12)8-4/h2H,1H3,(H2,8,9,11,12)
Instrument: maXis plus UHR-ToF-MS, Bruker Daltonics
Instrument type: LC-ESI-QTOF
Ms type: MS2
Ion mode: POSITIVE
Ionization: ESI
Fragmentation mode: CID
Collision energy: 40
Column name: BEH C18 1.7um, 2.1x100mm, Waters
Retention time: 0.819 min
Base peak: 167.0558
Precursor m/z: 167.0564
Precursor type: [M+H]+
m/z	relative intensity
56.0113	385
68.0112	369
70.0283	715
79.0288	637
80.0135	196
80.034	228
81.0449	707
95.0237	542
96.0547	999
97.0403	275
124.0488	385
