Mass spectrum: 3-hydroxy-C6-homoserine lactone; LC-ESI-QTOF; MS2; CE: 40; R=; [M-H]-
Name: 3-hydroxy-C6-homoserine lactone
Name: 3OH-C6-HSL RS/RS
Name: 3-hydroxy-N-(2-oxooxolan-3-yl)hexanamide
Formula: C10H17NO4
Exact mass: 215.1158
SMILES: CCCC(O)CC(=O)NC1CCOC1=O
InChI: InChI=1S/C10H17NO4/c1-2-3-7(12)6-9(13)11-8-4-5-15-10(8)14/h7-8,12H,2-6H2,1H3,(H,11,13)
Instrument: maXis plus UHR-ToF-MS, Bruker Daltonics
Instrument type: LC-ESI-QTOF
Ms type: MS2
Ion mode: NEGATIVE
Ionization: ESI
Fragmentation mode: CID
Collision energy: 40
Column name: BEH C18 1.7um, 2.1x100mm, Waters
Retention time: 2.640 min
Base peak: 214.1092
Precursor m/z: 214.1085
Precursor type: [M-H]-
m/z	relative intensity
57.0343	221
69.0351	131
71.0135	36
82.0299	19
84.0457	999
94.0304	29
97.03	117
98.0256	20
112.0413	46
