Mass spectrum: L-Tyrosine; LC-ESI-QTOF; MS2; CE: 20; R=; [M+H]+
Name: L-Tyrosine
Name: (2S)-2-amino-3-(4-hydroxyphenyl)propanoic acid
Formula: C9H11NO3
Exact mass: 181.07389
SMILES: c1cc(ccc1C[C@@H](C(=O)O)N)O
InChI: InChI=1S/C9H11NO3/c10-8(9(12)13)5-6-1-3-7(11)4-2-6/h1-4,8,11H,5,10H2,(H,12,13)/t8-/m0/s1
Instrument: maXis plus UHR-ToF-MS, Bruker Daltonics
Instrument type: LC-ESI-QTOF
Ms type: MS2
Ion mode: POSITIVE
Ionization: ESI
Fragmentation mode: CID
Collision energy: 20
Column name: BEH C18 1.7um, 2.1x100mm, Waters
Retention time: 0.709 min
Base peak: 182.0807
Precursor m/z: 182.0812
Precursor type: [M+H]+
m/z	relative intensity
64.0869	8
65.0381	21
69.0574	4
74.0231	4
77.0386	35
78.0551	6
91.0539	999
92.0572	62
93.0703	33
94.0773	8
95.0487	391
96.0524	25
100.0864	10
103.0548	41
106.0654	7
107.0494	12
107.0689	9
108.0807	6
109.0632	19
117.0063	10
118.0643	15
119.0491	440
121.0659	15
123.0441	634
124.047	40
125.0443	6
136.0756	876
137.0574	9
137.0784	75
147.0439	273
148.0478	41
165.0545	362
