Mass spectrum: Chorismic acid; LC-ESI-QTOF; MS2; CE: 20; R=; [M+H]+
Name: Chorismic acid
Name: (3R,4R)-3-(1-carboxyethenoxy)-4-hydroxycyclohexa-1,5-diene-1-carboxylic acid
Formula: C10H10O6
Exact mass: 226.0477
SMILES: O[C@@H]1C=CC(=C[C@H]1OC(=C)C(O)=O)C(O)=O
InChI: InChI=1S/C10H10O6/c1-5(9(12)13)16-8-4-6(10(14)15)2-3-7(8)11/h2-4,7-8,11H,1H2,(H,12,13)(H,14,15)/t7-,8-/m1/s1
Instrument: maXis plus UHR-ToF-MS, Bruker Daltonics
Instrument type: LC-ESI-QTOF
Ms type: MS2
Ion mode: POSITIVE
Ionization: ESI
Fragmentation mode: CID
Collision energy: 20
Column name: BEH C18 1.7um, 2.1x100mm, Waters
Retention time: 2.428 min
Base peak: 191.0334
Precursor m/z: 227.055
Precursor type: [M+H]+
m/z	relative intensity
58.0648	12
65.0381	17
81.0338	9
83.0491	30
91.0541	37
93.0338	9
95.0494	9
107.0493	10
129.0284	10
135.0446	30
139.0246	26
149.0348	41
151.0398	9
157.0522	9
163.0385	35
164.0417	12
165.0514	32
165.992	12
173.023	88
178.0257	21
191.0339	999
192.0013	10
192.0379	77
209.0399	13
