Mass spectrum: Glycolithocholic acid; LC-ESI-QTOF; MS2; CE: 40; R=; [M+H]+
Name: Glycolithocholic acid
Name: AC1N3NBH
Name: 2-[4-(3-hydroxy-10,13-dimethyl-2,3,4,5,6,7,8,9,11,12,14,15,16,17-tetradecahydro-1H-cyclopenta[a]phenanthren-17-yl)pentanoylamino]acetic acid
Formula: C26H43NO4
Exact mass: 433.3192
SMILES: CC(CCC(=O)NCC(=O)O)C1CCC2C1(CCC3C2CCC4C3(CCC(C4)O)C)C
InChI: InChI=1S/C26H43NO4/c1-16(4-9-23(29)27-15-24(30)31)20-7-8-21-19-6-5-17-14-18(28)10-12-25(17,2)22(19)11-13-26(20,21)3/h16-22,28H,4-15H2,1-3H3,(H,27,29)(H,30,31)
Instrument: maXis plus UHR-ToF-MS, Bruker Daltonics
Instrument type: LC-ESI-QTOF
Ms type: MS2
Ion mode: POSITIVE
Ionization: ESI
Fragmentation mode: CID
Collision energy: 40
Column name: BEH C18 1.7um, 2.1x100mm, Waters
Retention time: 5.455 min
Base peak: 88.075
Precursor m/z: 434.3265
Precursor type: [M+H]+
m/z	relative intensity
57.0694	4
60.0082	1
64.2188	1
65.0104	1
67.0539	126
69.0695	36
71.0485	3
71.0855	2
71.201	1
76.0388	999
77.1053	1
78.0425	3
79.054	35
81.0694	272
82.0729	16
83.0496	5
83.0853	51
85.0645	188
86.1544	1
91.0537	19
92.0579	2
93.0693	77
94.0729	4
95.0853	162
96.0895	11
97.0643	5
97.1008	13
99.0797	7
101.0951	1
105.0698	42
106.0727	1
107.0852	93
108.0887	7
109.0644	3
109.1011	66
110.1043	10
111.0806	8
111.1172	2
112.0765	1
112.0838	1
112.2058	1
113.0561	1
113.0958	3
114.0542	2
114.1833	1
117.0704	4
118.0768	1
119.0846	28
120.089	2
121.1013	41
123.1171	15
125.0951	4
127.0849	1
129.075	1
129.9891	1
130.05	1
131.0846	8
131.3308	1
132.1375	1
132.2073	1
133.1015	18
134.1775	1
134.305	2
135.0815	2
135.1162	27
136.1216	7
137.0546	1
137.0812	1
137.0959	1
137.1325	2
138.2347	1
139.1096	1
142.071	1
143.0851	3
145.1013	17
146.1035	3
147.1165	38
148.1192	3
148.2635	1
149.0943	4
149.1321	27
150.1371	2
151.1127	7
151.2414	1
152.025	1
152.1074	2
152.2953	1
155.0567	1
155.0856	1
157.0747	1
157.1005	11
158.0805	12
158.1043	2
159.116	52
160.121	7
161.1317	60
162.1349	5
163.1112	12
163.1478	25
164.1173	3
164.1517	3
165.1282	6
166.2275	1
169.1546	1
171.1167	13
172.1191	1
173.1322	39
173.9806	1
174.1358	3
175.1102	2
175.1479	34
176.0416	1
176.1169	1
176.1512	2
176.1633	1
177.1267	34
177.1635	12
178.1318	2
179.1422	5
180.0806	1
180.1376	1
180.2661	1
181.0247	1
182.0905	1
182.2464	1
183.0233	1
185.0681	1
185.0992	1
185.1322	22
186.1106	1
186.1345	1
187.1476	45
188.1507	9
189.1262	2
189.1632	39
190.167	5
191.1423	13
191.181	3
193.1582	1
197.0484	1
197.1324	3
198.0876	1
198.1109	1
199.1477	30
199.2182	1
200.136	1
200.1512	6
201.1633	51
202.1673	13
203.1431	3
203.1786	30
204.1846	3
205.1577	8
205.1942	1
206.1632	2
207.9963	1
210.1116	1
211.1446	1
211.1555	1
212.1279	1
213.1635	95
214.166	17
214.2955	1
215.179	68
216.1816	7
216.206	1
217.1585	4
217.1944	26
218.1629	1
218.1979	5
219.1732	9
219.2106	1
220.1789	1
221.1891	2
221.2355	1
222.2049	1
224.126	1
225.1641	2
226.1418	1
227.1786	69
228.1819	13
229.1942	42
230.1974	8
231.1732	14
231.2102	6
232.1773	3
233.082	1
233.1913	4
233.2669	1
236.1272	2
237.1335	1
238.1419	1
239.1798	7
239.2311	1
240.1607	1
240.1834	1
241.1953	73
242.0911	1
242.1973	13
243.0981	1
243.2109	18
244.1808	1
244.2154	2
245.1888	13
245.2255	2
246.1929	3
247.2045	7
248.215	1
250.1384	2
252.1575	3
253.1939	18
254.1763	2
254.1996	2
254.2307	1
255.2101	20
256.2153	4
257.1884	1
257.2266	8
259.2054	9
259.2261	1
261.2095	1
266.1726	1
267.1033	1
267.2102	24
268.2144	3
269.2267	6
270.231	1
271.2072	3
271.2442	1
273.2187	1
274.2291	1
277.161	1
277.2392	1
280.1908	1
281.2257	8
282.2276	1
283.2404	4
285.2218	7
285.2553	1
286.2282	1
295.2453	3
297.2588	5
299.2346	2
299.2725	5
299.2908	1
300.2384	2
300.2762	4
306.2096	1
307.2057	1
308.2239	1
308.2497	1
313.2514	2
313.2901	1
322.2332	1
323.2728	276
324.2758	66
334.2462	1
335.161	1
341.2839	123
342.2867	35
343.2892	2
360.2512	1
370.3129	2
371.3154	1
398.3042	1
416.3159	12
417.32	3
