Mass spectrum: ?-Tauromuricholic acid; LC-ESI-QTOF; MS2; CE: 20; R=; [M+H]+
Name: ?-Tauromuricholic acid
Name: 2-[4-(3,6,7-trihydroxy-10,13-dimethyl-2,3,4,5,6,7,8,9,11,12,14,15,16,17-tetradecahydro-1H-cyclopenta[a]phenanthren-17-yl)pentanoylamino]ethanesulfonic acid
Formula: C26H45NO7S
Exact mass: 515.2917
SMILES: CC(CCC(=O)NCCS(=O)(=O)O)C1CCC2C1(CCC3C2C(C(C4C3(CCC(C4)O)C)O)O)C
InChI: InChI=1S/C26H45NO7S/c1-15(4-7-21(29)27-12-13-35(32,33)34)17-5-6-18-22-19(9-11-25(17,18)2)26(3)10-8-16(28)14-20(26)23(30)24(22)31/h15-20,22-24,28,30-31H,4-14H2,1-3H3,(H,27,29)(H,32,33,34)
Instrument: maXis plus UHR-ToF-MS, Bruker Daltonics
Instrument type: LC-ESI-QTOF
Ms type: MS2
Ion mode: POSITIVE
Ionization: ESI
Fragmentation mode: CID
Collision energy: 20
Column name: BEH C18 1.7um, 2.1x100mm, Waters
Retention time: 3.727 min
Base peak: 88.0752
Precursor m/z: 516.299
Precursor type: [M+H]+
m/z	relative intensity
110.0556	1
125.1393	1
126.0218	9
128.023	1
128.0718	1
139.0767	1
149.132	1
157.1018	1
168.1525	1
168.3325	1
169.1002	1
171.9578	1
173.1337	1
182.9692	1
183.2777	1
195.1143	1
199.1501	1
201.0973	1
203.1542	1
204.0848	1
208.067	3
209.2136	1
211.157	1
212.0545	1
212.9427	1
215.1799	1
216.1212	1
219.1155	1
224.0615	1
227.1795	1
230.9479	1
236.0053	1
236.2624	1
238.1751	1
242.2032	1
244.0936	1
249.0437	1
254.0621	1
254.2205	1
260.1109	1
260.9487	1
260.9563	1
262.2693	1
268.1779	1
268.2141	1
273.1436	1
274.0625	1
274.9724	1
277.9485	1
278.1628	1
281.9807	1
286.3057	1
287.164	1
288.1247	1
289.1494	1
291.077	1
292.1366	1
293.1404	1
297.2593	1
300.9978	1
302.1445	1
304.0765	1
304.3077	1
305.2342	1
307.1888	1
308.3522	1
309.261	1
311.1106	1
314.1385	1
314.9599	1
316.1592	1
316.3302	1
319.2477	3
323.3101	1
326.0348	1
326.3125	1
327.17	1
327.2693	1
329.2386	1
330.1555	1
332.1626	1
333.048	1
337.2529	35
337.9999	1
338.1808	1
338.2567	4
339.2658	1
339.9483	1
340.0737	1
344.9743	1
345.0805	1
346.2233	1
347.2196	1
350.3272	1
352.1567	2
355.2631	40
356.1236	1
356.2685	5
357.1223	1
357.2765	2
358.2099	1
365.0692	1
365.3085	1
366.2407	1
367.3377	1
370.0367	1
372.9624	1
373.2708	1
374.3082	1
374.95	1
378.9405	1
380.1163	1
380.3362	1
381.949	1
382.1995	2
383.0522	1
383.1968	1
389.0359	1
391.131	1
393.2596	1
395.1207	1
399.0231	1
399.0485	1
401.09	1
402.2432	1
402.9885	1
404.9798	1
407.0859	1
408.9698	1
418.2622	1
428.1475	1
432.3187	1
433.0131	1
436.961	1
437.0528	1
438.232	1
439.091	1
444.2808	1
450.2681	4
451.271	1
452.3015	1
452.352	1
453.0324	1
453.2891	1
455.2422	1
457.9534	1
459.1163	1
461.0769	1
461.1735	1
461.3256	1
462.2676	250
463.2701	73
463.9628	1
464.0877	1
464.2704	15
465.2617	1
465.2809	2
466.047	1
471.0793	1
473.1619	1
473.2785	1
475.2577	1
479.0197	1
479.1961	1
479.2271	2
479.2445	1
479.2761	1
479.3045	2
479.3312	2
480.2777	999
481.2817	248
482.2805	53
483.0724	1
483.1099	1
483.2869	5
484.2882	1
495.094	1
497.2661	1
497.3019	1
498.2886	166
499.2915	48
500.2906	9
501.1337	1
501.2735	1
501.2909	2
516.2997	21
