Mass spectrum: Arachidoyl Ethanolamide; LC-ESI-QTOF; MS2; CE: 10; R=; [M+H]+
Name: Arachidoyl Ethanolamide
Name: N-(2-hydroxyethyl)icosanamide
Formula: C22H45NO2
Exact mass: 355.34503
SMILES: CCCCCCCCCCCCCCCCCCCC(=O)NCCO
InChI: InChI=1S/C22H45NO2/c1-2-3-4-5-6-7-8-9-10-11-12-13-14-15-16-17-18-19-22(25)23-20-21-24/h24H,2-21H2,1H3,(H,23,25)
Instrument: maXis plus UHR-ToF-MS, Bruker Daltonics
Instrument type: LC-ESI-QTOF
Ms type: MS2
Ion mode: POSITIVE
Ionization: ESI
Fragmentation mode: CID
Collision energy: 10
Column name: BEH C18 1.7um, 2.1x100mm, Waters
Retention time: 7.769 min
Base peak: 356.3519
Precursor m/z: 356.3523
Precursor type: [M+H]+
m/z	relative intensity
338.3412	1
339.3256	3
340.3304	1
355.2807	2
356.3522	999
358.3587	29
