Mass spectrum: 3-Cholic acid; LC-ESI-QTOF; MS2; CE: 40; R=; [M-H]-
Name: 3-Cholic acid
Name: 3-Epicholic acid
Name: (4R)-4-[(3S,5S,7R,8R,9S,10S,12S,13R,14S,17R)-3,7,12-trihydroxy-10,13-dimethyl-2,3,4,5,6,7,8,9,11,12,14,15,16,17-tetradecahydro-1H-cyclopenta[a]phenanthren-17-yl]pentanoic acid
Formula: C24H40O5
Exact mass: 408.2876
SMILES: C[C@H](CCC(=O)O)[C@H]1CC[C@@H]2[C@@]1([C@H](C[C@H]3[C@H]2[C@@H](C[C@H]4[C@@]3(CC[C@@H](C4)O)C)O)O)C
InChI: InChI=1S/C24H40O5/c1-13(4-7-21(28)29)16-5-6-17-22-18(12-20(27)24(16,17)3)23(2)9-8-15(25)10-14(23)11-19(22)26/h13-20,22,25-27H,4-12H2,1-3H3,(H,28,29)/t13-,14+,15+,16-,17+,18+,19-,20+,22+,23+,24-/m1/s1
Instrument: maXis plus UHR-ToF-MS, Bruker Daltonics
Instrument type: LC-ESI-QTOF
Ms type: MS2
Ion mode: NEGATIVE
Ionization: ESI
Fragmentation mode: CID
Collision energy: 40
Column name: BEH C18 1.7um, 2.1x100mm, Waters
Retention time: 4.263 min
Base peak: 815.5671
Precursor m/z: 407.2803
Precursor type: [M-H]-
m/z	relative intensity
69.0351	11
95.05	10
169.159	2
205.1568	3
215.1453	2
251.2031	5
252.2063	3
289.2172	19
290.2223	6
322.1322	3
325.2538	4
343.2644	69
344.2655	8
345.2818	5
353.2486	4
363.292	35
387.2686	2
389.2688	15
390.2787	3
405.2686	3
407.2805	999
