Mass spectrum: Spermidine; LC-ESI-QTOF; MS2; CE: 40; R=; [M+H]+
Name: Spermidine
Name: N`-(3-aminopropyl)butane-1,4-diamine
Formula: C7H19N3
Exact mass: 145.15790
SMILES: NCCCCNCCCN
InChI: InChI=1S/C7H19N3/c8-4-1-2-6-10-7-3-5-9/h10H,1-9H2
Instrument: maXis plus UHR-ToF-MS, Bruker Daltonics
Instrument type: LC-ESI-QTOF
Ms type: MS2
Ion mode: POSITIVE
Ionization: ESI
Fragmentation mode: CID
Collision energy: 40
Column name: BEH C18 1.7um, 2.1x100mm, Waters
Retention time: 0.588 min
Base peak: 72.0796
Precursor m/z: 146.1652
Precursor type: [M+H]+
m/z	relative intensity
82.0646	7
84.08	999
96.081	1
112.1118	5
