Mass spectrum: Pseudouridine; LC-ESI-QTOF; MS2; CE: 40; R=; [M+H]+
Name: Pseudouridine
Name: 5-[(2S,3R,4S,5R)-3,4-dihydroxy-5-(hydroxymethyl)oxolan-2-yl]-1H-pyrimidine-2,4-dione
Formula: C9H12N2O6
Exact mass: 244.0695
SMILES: c1c(c(nc(n1)O)O)[C@H]2[C@@H]([C@@H]([C@H](O2)CO)O)O
InChI: InChI=1S/C9H12N2O6/c12-2-4-5(13)6(14)7(17-4)3-1-10-9(16)11-8(3)15/h1,4-7,12-14H,2H2,(H2,10,11,15,16)/t4-,5-,6-,7+/m1/s1
Instrument: maXis plus UHR-ToF-MS, Bruker Daltonics
Instrument type: LC-ESI-QTOF
Ms type: MS2
Ion mode: POSITIVE
Ionization: ESI
Fragmentation mode: CID
Collision energy: 40
Column name: BEH C18 1.7um, 2.1x100mm, Waters
Retention time: 0.658 min
Base peak: 245.0762
Precursor m/z: 245.0768
Precursor type: [M+H]+
m/z	relative intensity
55.0173	81
57.0326	18
61.028	29
64.076	12
65.0379	456
67.017	48
67.0416	56
69.0334	77
69.9927	33
70.0519	9
70.0773	9
73.0282	10
78.0337	54
79.0172	19
80.0492	417
81.0331	18
81.0529	41
82.0281	999
82.0645	140
83.0124	13
83.0682	9
84.0436	283
90.0343	50
92.0488	386
93.0326	106
93.0532	23
94.0289	24
94.0373	18
94.0643	9
95.0121	9
96.044	219
97.0283	16
99.0225	11
100.0388	286
103.0173	19
105.0331	52
108.0437	61
110.0212	20
110.0588	32
111.0426	25
111.0647	16
112.0387	40
120.0447	54
121.0271	29
122.0429	14
125.0336	85
126.0542	21
127.0499	16
128.0683	16
139.0113	16
139.0464	14
148.0405	38
155.0451	117
156.0499	10
163.0499	131
164.0546	15
166.0466	10
167.0467	52
168.0172	9
169.0614	11
179.0439	24
180.052	9
191.0428	14
192.0528	14
