Mass spectrum: Stearic acid; LC-ESI-QTOF; MS2; CE: 10; R=; [M-H]-
Name: Stearic acid
Name: octadecanoic acid
Formula: C18H36O2
Exact mass: 284.2715
SMILES: CCCCCCCCCCCCCCCCCC(=O)O
InChI: InChI=1S/C18H36O2/c1-2-3-4-5-6-7-8-9-10-11-12-13-14-15-16-17-18(19)20/h2-17H2,1H3,(H,19,20)
Instrument: maXis plus UHR-ToF-MS, Bruker Daltonics
Instrument type: LC-ESI-QTOF
Ms type: MS2
Ion mode: NEGATIVE
Ionization: ESI
Fragmentation mode: CID
Collision energy: 10
Column name: BEH C18 1.7um, 2.1x100mm, Waters
Retention time: 7.705 min
Base peak: 100.9341
Precursor m/z: 283.2643
Precursor type: [M-H]-
m/z	relative intensity
283.2635	999
