Mass spectrum: Catechin(+); LC-ESI-QTOF; MS2; CE: 40; R=; [M-H]-
Name: Catechin(+)
Name: (+)-catechin
Name: (2R,3S)-2-(3,4-dihydroxyphenyl)-3,4-dihydro-2H-chromene-3,5,7-triol
Formula: C15H14O6
Exact mass: 290.0790
SMILES: Oc1ccc(cc1O)[C@H]3Oc2cc(O)cc(O)c2C[C@@H]3O
InChI: InChI=1S/C15H14O6/c16-8-4-11(18)9-6-13(20)15(21-14(9)5-8)7-1-2-10(17)12(19)3-7/h1-5,13,15-20H,6H2/t13-,15+/m0/s1
Instrument: maXis plus UHR-ToF-MS, Bruker Daltonics
Instrument type: LC-ESI-QTOF
Ms type: MS2
Ion mode: NEGATIVE
Ionization: ESI
Fragmentation mode: CID
Collision energy: 40
Column name: BEH C18 1.7um, 2.1x100mm, Waters
Retention time: 2.555 min
Base peak: 289.0717
Precursor m/z: 289.0718
Precursor type: [M-H]-
m/z	relative intensity
57.0346	617
69.0342	190
77.04	97
79.0192	137
80.0274	156
81.0343	587
83.0143	587
95.0147	132
95.05	328
97.0295	607
108.0227	146
109.0305	999
110.0365	161
121.0298	190
122.0385	225
123.0462	430
125.0256	151
145.0376	68
149.0265	78
150.0347	146
151.0406	68
158.0363	68
159.0458	386
164.013	220
173.0614	112
175.0778	117
179.0387	68
187.0385	97
188.0482	127
189.0179	73
202.0649	195
203.0729	190
205.0515	200
221.084	97
232.0362	83
