Mass spectrum: 3-oxo-C6-homoserine lactone; LC-ESI-QTOF; MS2; CE: 20; R=; [M+H]+
Name: 3-oxo-C6-homoserine lactone
Name: Autoinducer 1
Name: 3-oxo-N-(2-oxooxolan-3-yl)hexanamide
Formula: C10H15NO4
Exact mass: 213.10011
SMILES: CCCC(=O)CC(=O)NC1CCOC1=O
InChI: InChI=1S/C10H15NO4/c1-2-3-7(12)6-9(13)11-8-4-5-15-10(8)14/h8H,2-6H2,1H3,(H,11,13)
Instrument: maXis plus UHR-ToF-MS, Bruker Daltonics
Instrument type: LC-ESI-QTOF
Ms type: MS2
Ion mode: POSITIVE
Ionization: ESI
Fragmentation mode: CID
Collision energy: 20
Column name: BEH C18 1.7um, 2.1x100mm, Waters
Retention time: 2.750 min
Base peak: 214.1072
Precursor m/z: 214.1074
Precursor type: [M+H]+
m/z	relative intensity
57.0448	1
71.0482	999
84.0438	52
85.0281	11
85.0653	1
98.0593	40
99.0647	1
102.0547	548
104.0589	3
113.0595	146
114.0625	8
126.055	2
154.0863	3
156.1014	15
157.1051	1
168.1016	18
169.1047	2
186.1116	9
196.0967	11
214.1076	5
