Mass spectrum: Phenanzine-1-carboxylic acid; LC-ESI-QTOF; MS2; CE: 10; R=; [M+H]+
Name: Phenanzine-1-carboxylic acid
Name: phenazine-1-carboxylic acid
Formula: C13H8N2O2
Exact mass: 224.05858
SMILES: c1ccc2c(c1)nc3cccc(c3n2)C(=O)O
InChI: InChI=1S/C13H8N2O2/c16-13(17)8-4-3-7-11-12(8)15-10-6-2-1-5-9(10)14-11/h1-7H,(H,16,17)
Instrument: maXis plus UHR-ToF-MS, Bruker Daltonics
Instrument type: LC-ESI-QTOF
Ms type: MS2
Ion mode: POSITIVE
Ionization: ESI
Fragmentation mode: CID
Collision energy: 10
Column name: BEH C18 1.7um, 2.1x100mm, Waters
Retention time: 4.344 min
Base peak: 79.0203
Precursor m/z: 225.0659
Precursor type: [M+H]+
m/z	relative intensity
179.0598	10
180.066	1
207.0549	517
208.0584	60
225.0653	999
