Mass spectrum: L-Glutamine; LC-ESI-QTOF; MS2; CE: 10; R=; [M-H]-
Name: L-Glutamine
Name: (2S)-5-amino-2-azaniumyl-5-oxopentanoate
Formula: C5H10N2O3
Exact mass: 146.06914
SMILES: C(CC(=N)O)[C@@H](C(=O)O)N
InChI: InChI=1S/C5H10N2O3/c6-3(5(9)10)1-2-4(7)8/h3H,1-2,6H2,(H2,7,8)(H,9,10)/t3-/m0/s1
Instrument: maXis plus UHR-ToF-MS, Bruker Daltonics
Instrument type: LC-ESI-QTOF
Ms type: MS2
Ion mode: NEGATIVE
Ionization: ESI
Fragmentation mode: CID
Collision energy: 10
Column name: BEH C18 1.7um, 2.1x100mm, Waters
Retention time: 0.641 min
Base peak: 69.0044
Precursor m/z: 145.0619
Precursor type: [M-H]-
m/z	relative intensity
127.0512	999
128.0335	494
