Mass spectrum: L-Aspartic acid; LC-ESI-QTOF; MS2; CE: 20; R=; [M+H]+
Name: L-Aspartic acid
Name: (2S)-2-aminobutanedioic acid
Formula: C4H7NO4
Exact mass: 133.03751
SMILES: C([C@@H](C(=O)O)N)C(=O)O
InChI: InChI=1S/C4H7NO4/c5-2(4(8)9)1-3(6)7/h2H,1,5H2,(H,6,7)(H,8,9)/t2-/m0/s1
Instrument: maXis plus UHR-ToF-MS, Bruker Daltonics
Instrument type: LC-ESI-QTOF
Ms type: MS2
Ion mode: POSITIVE
Ionization: ESI
Fragmentation mode: CID
Collision energy: 20
Column name: BEH C18 1.7um, 2.1x100mm, Waters
Retention time: 0.589 min
Base peak: 88.0389
Precursor m/z: 134.0448
Precursor type: [M+H]+
m/z	relative intensity
69.034	47
75.0429	29
76.0269	39
88.0389	999
96.0076	48
