Mass spectrum: dhas#18; LC-ESI-QTOF; MS2; CE: 10; R=; [M+H]+
Name: dhas#18
Formula: C17H32O8
Exact mass: 364.2097
SMILES: CC(C[C@H](O)CCCC[C@@H](O)CC(O)=O)O[C@@H]1OC(C)[C@H](O)CC1O
InChI: InChI=1S/C17H32O8/c1-10(24-17-15(21)9-14(20)11(2)25-17)7-12(18)5-3-4-6-13(19)8-16(22)23/h10-15,17-21H,3-9H2,1-2H3,(H,22,23)/t10?,11?,12-,13-,14-,15?,17-/m1/s1
Instrument: maXis plus UHR-ToF-MS, Bruker Daltonics
Instrument type: LC-ESI-QTOF
Ms type: MS2
Ion mode: POSITIVE
Ionization: ESI
Fragmentation mode: CID
Collision energy: 10
Column name: BEH C18 1.7um, 2.1x100mm, Waters
Retention time: 2.780 min
Base peak: 235.1535
Precursor m/z: 365.217
Precursor type: [M+H]+
m/z	relative intensity
63.1745	1
129.1378	1
157.121	1
159.9735	1
167.0497	1
172.2028	1
177.0757	1
181.122	20
196.2194	1
199.1324	90
200.1352	9
201.1395	2
207.1708	1
217.143	51
221.0384	1
234.2331	1
235.1537	999
237.1587	12
238.1589	1
347.2059	2
365.2187	5
