Mass spectrum: L-Arginine; LC-ESI-QTOF; MS2; CE: 10; R=; [M+H]+
Name: L-Arginine
Name: (2S)-2-amino-5-(diaminomethylideneazaniumyl)pentanoate
Formula: C6H14N4O2
Exact mass: 174.11168
SMILES: C(C[C@@H](C(=O)O)N)CNC(=N)N
InChI: InChI=1S/C6H14N4O2/c7-4(5(11)12)2-1-3-10-6(8)9/h4H,1-3,7H2,(H,11,12)(H4,8,9,10)/t4-/m0/s1
Instrument: maXis plus UHR-ToF-MS, Bruker Daltonics
Instrument type: LC-ESI-QTOF
Ms type: MS2
Ion mode: POSITIVE
Ionization: ESI
Fragmentation mode: CID
Collision energy: 10
Column name: BEH C18 1.7um, 2.1x100mm, Waters
Retention time: 0.547 min
Base peak: 65.0596
Precursor m/z: 175.119
Precursor type: [M+H]+
m/z	relative intensity
46.0985	1
61.0508	1
74.0474	1
114.1015	1
115.0877	1
116.0706	17
130.0964	7
132.0504	1
157.1075	10
158.0915	41
175.1185	999
