Mass spectrum: L-Cysteine; LC-ESI-QTOF; MS2; CE: 10; R=; [M+H]+
Name: L-Cysteine
Name: (2R)-2-azaniumyl-3-sulfanylpropanoate
Formula: C3H7NO2S
Exact mass: 121.01975
SMILES: C([C@@H](C(=O)O)N)S
InChI: InChI=1S/C3H7NO2S/c4-2(1-7)3(5)6/h2,7H,1,4H2,(H,5,6)/t2-/m0/s1
Instrument: maXis plus UHR-ToF-MS, Bruker Daltonics
Instrument type: LC-ESI-QTOF
Ms type: MS2
Ion mode: POSITIVE
Ionization: ESI
Fragmentation mode: CID
Collision energy: 10
Column name: BEH C18 1.7um, 2.1x100mm, Waters
Retention time: 0.604 min
Base peak: 76.0209
Precursor m/z: 122.027
Precursor type: [M+H]+
m/z	relative intensity
70.0291	1
74.0064	1
76.0208	999
77.0585	1
86.9894	167
105	137
122.0264	75
125.0257	1
