Mass spectrum: L-Phenylalanine; LC-ESI-QTOF; MS2; CE: 10; R=; [M-H]-
Name: L-Phenylalanine
Name: (2S)-2-azaniumyl-3-phenylpropanoate
Formula: C9H11NO2
Exact mass: 165.07898
SMILES: c1ccc(cc1)C[C@@H](C(=O)O)N
InChI: InChI=1S/C9H11NO2/c10-8(9(11)12)6-7-4-2-1-3-5-7/h1-5,8H,6,10H2,(H,11,12)/t8-/m0/s1
Instrument: maXis plus UHR-ToF-MS, Bruker Daltonics
Instrument type: LC-ESI-QTOF
Ms type: MS2
Ion mode: NEGATIVE
Ionization: ESI
Fragmentation mode: CID
Collision energy: 10
Column name: BEH C18 1.7um, 2.1x100mm, Waters
Retention time: 1.398 min
Base peak: 164.072
Precursor m/z: 164.0717
Precursor type: [M-H]-
m/z	relative intensity
72.0097	188
147.0452	208
164.072	999
