Mass spectrum: L-tert-Leucine; LC-ESI-QTOF; MS2; CE: 20; R=; [M+H]+
Name: L-tert-Leucine
Name: (2S)-2-azaniumyl-3,3-dimethylbutanoate
Formula: C6H13NO2
Exact mass: 131.09463
SMILES: CC(C)(C)[C@@H](C(=O)O)N
InChI: InChI=1S/C6H13NO2/c1-6(2,3)4(7)5(8)9/h4H,7H2,1-3H3,(H,8,9)/t4-/m1/s1
Instrument: maXis plus UHR-ToF-MS, Bruker Daltonics
Instrument type: LC-ESI-QTOF
Ms type: MS2
Ion mode: POSITIVE
Ionization: ESI
Fragmentation mode: CID
Collision energy: 20
Column name: BEH C18 1.7um, 2.1x100mm, Waters
Retention time: 0.726 min
Base peak: 86.0958
Precursor m/z: 132.1019
Precursor type: [M+H]+
m/z	relative intensity
70.0645	10
71.0724	46
86.096	999
