Mass spectrum: Heptadecanoyl Ethanolamide; LC-ESI-QTOF; MS2; CE: 10; R=; [M+H]+
Name: Heptadecanoyl Ethanolamide
Name: Margaroyl-ethanolamine
Name: N-(2-hydroxyethyl)heptadecanamide
Formula: C19H39NO2
Exact mass: 313.29808
SMILES: CCCCCCCCCCCCCCCCC(=O)NCCO
InChI: InChI=1S/C19H39NO2/c1-2-3-4-5-6-7-8-9-10-11-12-13-14-15-16-19(22)20-17-18-21/h21H,2-18H2,1H3,(H,20,22)
Instrument: maXis plus UHR-ToF-MS, Bruker Daltonics
Instrument type: LC-ESI-QTOF
Ms type: MS2
Ion mode: POSITIVE
Ionization: ESI
Fragmentation mode: CID
Collision energy: 10
Column name: BEH C18 1.7um, 2.1x100mm, Waters
Retention time: 6.999 min
Base peak: 88.0749
Precursor m/z: 314.3054
Precursor type: [M+H]+
m/z	relative intensity
62.0594	168
296.2931	2
297.2788	16
298.2823	2
314.305	999
