Mass spectrum: L-Tryptophan; LC-ESI-QTOF; MS2; CE: 10; R=; [M-H]-
Name: L-Tryptophan
Name: (2S)-2-amino-3-(1H-indol-3-yl)propanoic acid
Formula: C11H12N2O2
Exact mass: 204.08988
SMILES: c1ccc2c(c1)c(c[nH]2)C[C@@H](C(=O)O)N
InChI: InChI=1S/C11H12N2O2/c12-9(11(14)15)5-7-6-13-10-4-2-1-3-8(7)10/h1-4,6,9,13H,5,12H2,(H,14,15)/t9-/m0/s1
Instrument: maXis plus UHR-ToF-MS, Bruker Daltonics
Instrument type: LC-ESI-QTOF
Ms type: MS2
Ion mode: NEGATIVE
Ionization: ESI
Fragmentation mode: CID
Collision energy: 10
Column name: BEH C18 1.7um, 2.1x100mm, Waters
Retention time: 2.399 min
Base peak: 203.0826
Precursor m/z: 203.0826
Precursor type: [M-H]-
m/z	relative intensity
72.0095	12
116.0517	16
117.0554	2
159.0935	19
186.0558	6
203.0826	999
