Mass spectrum: L-Proline; LC-ESI-QTOF; MS2; CE: 40; R=; [M+H]+
Name: L-Proline
Name: (2S)-pyrrolidine-2-carboxylic acid
Formula: C5H9NO2
Exact mass: 115.06333
SMILES: C1C[C@H](NC1)C(=O)O
InChI: InChI=1S/C5H9NO2/c7-5(8)4-2-1-3-6-4/h4,6H,1-3H2,(H,7,8)/t4-/m0/s1
Instrument: maXis plus UHR-ToF-MS, Bruker Daltonics
Instrument type: LC-ESI-QTOF
Ms type: MS2
Ion mode: POSITIVE
Ionization: ESI
Fragmentation mode: CID
Collision energy: 40
Column name: BEH C18 1.7um, 2.1x100mm, Waters
Retention time: 0.617 min
Base peak: 70.0645
Precursor m/z: 116.0706
Precursor type: [M+H]+
m/z	relative intensity
68.0491	48
70.0646	999
