Mass spectrum: L-Norleucine; LC-ESI-QTOF; MS2; CE: 20; R=; [M+H]+
Name: L-Norleucine
Name: (2S)-2-azaniumylhexanoate
Formula: C6H13NO2
Exact mass: 131.09463
SMILES: CCCC[C@@H](C(=O)O)N
InChI: InChI=1S/C6H13NO2/c1-2-3-4-5(7)6(8)9/h5H,2-4,7H2,1H3,(H,8,9)/t5-/m0/s1
Instrument: maXis plus UHR-ToF-MS, Bruker Daltonics
Instrument type: LC-ESI-QTOF
Ms type: MS2
Ion mode: POSITIVE
Ionization: ESI
Fragmentation mode: CID
Collision energy: 20
Column name: BEH C18 1.7um, 2.1x100mm, Waters
Retention time: 0.954 min
Base peak: 86.0959
Precursor m/z: 132.1019
Precursor type: [M+H]+
m/z	relative intensity
67.0539	2
86.0959	999
