Mass spectrum: delta4-Dafachronic acid; LC-ESI-QTOF; MS2; CE: 40; R=; [M-H]-
Name: delta4-Dafachronic acid
Name: 3-Oxocholest-4-en-26-oic acid
Name: (6R)-6-[(8S,9S,10R,13R,14S,17R)-10,13-dimethyl-3-oxo-1,2,6,7,8,9,11,12,14,15,16,17-dodecahydrocyclopenta[a]phenanthren-17-yl]-2-methylheptanoic acid
Formula: C27H42O3
Exact mass: 414.3134
SMILES: C[C@H](CCCC(C)C(O)=O)[C@H]1CC[C@H]2[C@@H]3CCC4=CC(=O)CC[C@]4(C)[C@H]3CC[C@]12C
InChI: InChI=1S/C27H42O3/c1-17(6-5-7-18(2)25(29)30)22-10-11-23-21-9-8-19-16-20(28)12-14-26(19,3)24(21)13-15-27(22,23)4/h16-18,21-24H,5-15H2,1-4H3,(H,29,30)/t17-,18?,21+,22-,23+,24+,26+,27-/m1/s1
Instrument: maXis plus UHR-ToF-MS, Bruker Daltonics
Instrument type: LC-ESI-QTOF
Ms type: MS2
Ion mode: NEGATIVE
Ionization: ESI
Fragmentation mode: CID
Collision energy: 40
Column name: BEH C18 1.7um, 2.1x100mm, Waters
Retention time: 6.726 min
Base peak: 827.5914
Precursor m/z: 413.3061
Precursor type: [M-H]-
m/z	relative intensity
68.0014	9
164.1282	8
208.1549	8
216.2716	9
225.1598	8
413.3048	999
