Mass spectrum: Pyrocatechol; LC-ESI-QTOF; MS2; CE: 10; R=; [M+H]+
Name: Pyrocatechol
Name: benzene-1,2-diol
Formula: C6H6O2
Exact mass: 110.0368
SMILES: OC1=CC=CC=C1O
InChI: InChI=1S/C6H6O2/c7-5-3-1-2-4-6(5)8/h1-4,7-8H
Instrument: maXis plus UHR-ToF-MS, Bruker Daltonics
Instrument type: LC-ESI-QTOF
Ms type: MS2
Ion mode: POSITIVE
Ionization: ESI
Fragmentation mode: CID
Collision energy: 10
Column name: BEH C18 1.7um, 2.1x100mm, Waters
Retention time: 2.563 min
Base peak: 88.0753
Precursor m/z: 111.0441
Precursor type: [M+H]+
m/z	relative intensity
80.0258	15
81.0332	999
82.0372	61
93.0332	430
109.0274	343
111.0436	452
