Mass spectrum: Anthranilic acid; LC-ESI-QTOF; MS2; CE: 20; R=; [M+H]+
Name: Anthranilic acid
Name: 2-azaniumylbenzoate
Formula: C7H7NO2
Exact mass: 137.0477
SMILES: NC1=CC=CC=C1C(O)=O
InChI: InChI=1S/C7H7NO2/c8-6-4-2-1-3-5(6)7(9)10/h1-4H,8H2,(H,9,10)
Instrument: maXis plus UHR-ToF-MS, Bruker Daltonics
Instrument type: LC-ESI-QTOF
Ms type: MS2
Ion mode: POSITIVE
Ionization: ESI
Fragmentation mode: CID
Collision energy: 20
Column name: BEH C18 1.7um, 2.1x100mm, Waters
Retention time: 3.089 min
Base peak: 120.0442
Precursor m/z: 138.055
Precursor type: [M+H]+
m/z	relative intensity
92.0488	999
110.0596	4
120.0443	914
121.0476	57
