Mass spectrum: Benzoic acid; LC-ESI-QTOF; MS2; CE: 20; R=; [M+H]+
Name: Benzoic acid
Formula: C7H6O2
Exact mass: 122.0368
SMILES: OC(=O)c1ccccc1
InChI: InChI=1S/C7H6O2/c8-7(9)6-4-2-1-3-5-6/h1-5H,(H,8,9)
Instrument: maXis plus UHR-ToF-MS, Bruker Daltonics
Instrument type: LC-ESI-QTOF
Ms type: MS2
Ion mode: POSITIVE
Ionization: ESI
Fragmentation mode: CID
Collision energy: 20
Column name: BEH C18 1.7um, 2.1x100mm, Waters
Retention time: 3.520 min
Base peak: 79.0537
Precursor m/z: 123.0441
Precursor type: [M+H]+
m/z	relative intensity
77.0381	195
79.0538	999
81.033	1
82.0375	1
95.0484	109
105.0335	59
105.0454	36
106.0383	10
