Mass spectrum: Leu-Gly-Gly; LC-ESI-QTOF; MS2; CE: 10; R=; [M-H]-
Name: Leu-Gly-Gly
Name: 2-[[2-[[(2S)-2-azaniumyl-4-methylpentanoyl]amino]acetyl]amino]acetate
Formula: C10H19N3O4
Exact mass: 245.1376
SMILES: CC(C)C[C@H](N)C(=O)NCC(=O)NCC(O)=O
InChI: InChI=1S/C10H19N3O4/c1-6(2)3-7(11)10(17)13-4-8(14)12-5-9(15)16/h6-7H,3-5,11H2,1-2H3,(H,12,14)(H,13,17)(H,15,16)/t7-/m0/s1
Instrument: maXis plus UHR-ToF-MS, Bruker Daltonics
Instrument type: LC-ESI-QTOF
Ms type: MS2
Ion mode: NEGATIVE
Ionization: ESI
Fragmentation mode: CID
Collision energy: 10
Column name: BEH C18 1.7um, 2.1x100mm, Waters
Retention time: 0.779 min
Base peak: 244.1314
Precursor m/z: 244.1303
Precursor type: [M-H]-
m/z	relative intensity
74.025	43
87.0558	6
200.1401	40
244.1319	999
