Mass spectrum: (-)-Epigallocatechin gallate; LC-ESI-QTOF; MS2; CE: 40; R=; [M-H]-
Name: (-)-Epigallocatechin gallate
Name: [(2R,3R)-5,7-dihydroxy-2-(3,4,5-trihydroxyphenyl)-3,4-dihydro-2H-chromen-3-yl] 3,4,5-trihydroxybenzoate
Formula: C22H18O11
Exact mass: 458.0849
SMILES: O=C(O[C@@H]2Cc3c(O[C@@H]2c1cc(O)c(O)c(O)c1)cc(O)cc3O)c4cc(O)c(O)c(O)c4
InChI: InChI=1S/C22H18O11/c23-10-5-12(24)11-7-18(33-22(31)9-3-15(27)20(30)16(28)4-9)21(32-17(11)6-10)8-1-13(25)19(29)14(26)2-8/h1-6,18,21,23-30H,7H2/t18-,21-/m1/s1
Instrument: maXis plus UHR-ToF-MS, Bruker Daltonics
Instrument type: LC-ESI-QTOF
Ms type: MS2
Ion mode: NEGATIVE
Ionization: ESI
Fragmentation mode: CID
Collision energy: 40
Column name: BEH C18 1.7um, 2.1x100mm, Waters
Retention time: 2.833 min
Base peak: 457.0733
Precursor m/z: 457.0776
Precursor type: [M-H]-
m/z	relative intensity
81.0342	14
125.0249	161
161.0253	36
162.0338	16
164.0135	13
165.0202	19
169.0154	999
170.0184	43
179.0343	18
193.0178	19
219.0657	31
229.0207	17
261.0769	14
269.0472	18
305.0677	24
