Mass spectrum: gamma-Linolenic acid; LC-ESI-QTOF; MS2; CE: 20; R=; [M-H]-
Name: gamma-Linolenic acid
Name: (6Z,9Z,12Z)-octadeca-6,9,12-trienoic acid
Formula: C18H30O2
Exact mass: 278.2246
SMILES: CCCCC\C=C/C\C=C/C\C=C/CCCCC(O)=O
InChI: InChI=1S/C18H30O2/c1-2-3-4-5-6-7-8-9-10-11-12-13-14-15-16-17-18(19)20/h6-7,9-10,12-13H,2-5,8,11,14-17H2,1H3,(H,19,20)/b7-6-,10-9-,13-12-
Instrument: maXis plus UHR-ToF-MS, Bruker Daltonics
Instrument type: LC-ESI-QTOF
Ms type: MS2
Ion mode: NEGATIVE
Ionization: ESI
Fragmentation mode: CID
Collision energy: 20
Column name: BEH C18 1.7um, 2.1x100mm, Waters
Retention time: 6.703 min
Base peak: 277.2176
Precursor m/z: 277.2173
Precursor type: [M-H]-
m/z	relative intensity
177.1661	23
277.2186	999
