Mass spectrum: Phenazine; LC-ESI-QTOF; MS2; CE: 10; R=; [M+H]+
Name: Phenazine
Formula: C12H8N2
Exact mass: 180.06875
SMILES: c1ccc2c(c1)nc3ccccc3n2
InChI: InChI=1S/C12H8N2/c1-2-6-10-9(5-1)13-11-7-3-4-8-12(11)14-10/h1-8H
Instrument: maXis plus UHR-ToF-MS, Bruker Daltonics
Instrument type: LC-ESI-QTOF
Ms type: MS2
Ion mode: POSITIVE
Ionization: ESI
Fragmentation mode: CID
Collision energy: 10
Column name: BEH C18 1.7um, 2.1x100mm, Waters
Retention time: 4.356 min
Base peak: 181.0763
Precursor m/z: 181.076
Precursor type: [M+H]+
m/z	relative intensity
101.0028	2
180.0671	1
181.0756	999
