Mass spectrum: Phenanzine-1_6-dicarboxylic acid; LC-ESI-QTOF; MS2; CE: 10; R=; [M-H]-
Name: Phenanzine-1_6-dicarboxylic acid
Name: phenazine-1,6-dicarboxylic acid
Formula: C14H8N2O4
Exact mass: 268.0484
SMILES: c1cc(c2c(c1)nc3c(cccc3n2)C(=O)O)C(=O)O
InChI: InChI=1S/C14H8N2O4/c17-13(18)7-3-1-5-9-11(7)16-10-6-2-4-8(14(19)20)12(10)15-9/h1-6H,(H,17,18)(H,19,20)
Instrument: maXis plus UHR-ToF-MS, Bruker Daltonics
Instrument type: LC-ESI-QTOF
Ms type: MS2
Ion mode: NEGATIVE
Ionization: ESI
Fragmentation mode: CID
Collision energy: 10
Column name: BEH C18 1.7um, 2.1x100mm, Waters
Retention time: 4.033 min
Base peak: 267.0412
Precursor m/z: 267.0411
Precursor type: [M-H]-
m/z	relative intensity
102.033	11
154.0051	11
160.0203	10
195.0547	13
223.0519	999
267.0415	163
280.0115	10
