Mass spectrum: 4-Hydroxybenzoic acid; LC-ESI-QTOF; MS2; CE: 20; R=; [M+H]+
Name: 4-Hydroxybenzoic acid
Formula: C7H6O3
Exact mass: 138.0317
SMILES: OC(=O)C1=CC=C(O)C=C1
InChI: InChI=1S/C7H6O3/c8-6-3-1-5(2-4-6)7(9)10/h1-4,8H,(H,9,10)
Instrument: maXis plus UHR-ToF-MS, Bruker Daltonics
Instrument type: LC-ESI-QTOF
Ms type: MS2
Ion mode: POSITIVE
Ionization: ESI
Fragmentation mode: CID
Collision energy: 20
Column name: BEH C18 1.7um, 2.1x100mm, Waters
Retention time: 2.548 min
Base peak: 468.0135
Precursor m/z: 139.039
Precursor type: [M+H]+
m/z	relative intensity
66.0461	7
67.054	78
77.0384	415
81.0337	7
93.0335	12
94.0406	6
95.0489	999
105.0444	80
111.0444	31
121.0378	65
122.0329	7
