Mass spectrum: Ethyl vanillate; LC-ESI-QTOF; MS2; CE: 40; R=; [M-H]-
Name: Ethyl vanillate
Name: ethyl 4-hydroxy-3-methoxybenzoate
Formula: C10H12O4
Exact mass: 196.0736
SMILES: CCOC(=O)C1=CC(=C(C=C1)O)OC
InChI: InChI=1S/C10H12O4/c1-3-14-10(12)7-4-5-8(11)9(6-7)13-2/h4-6,11H,3H2,1-2H3
Instrument: maXis plus UHR-ToF-MS, Bruker Daltonics
Instrument type: LC-ESI-QTOF
Ms type: MS2
Ion mode: NEGATIVE
Ionization: ESI
Fragmentation mode: CID
Collision energy: 40
Column name: BEH C18 1.7um, 2.1x100mm, Waters
Retention time: 4.069 min
Base peak: 195.0666
Precursor m/z: 195.0663
Precursor type: [M-H]-
m/z	relative intensity
51.0238	128
65.0037	8
67.0189	15
69.0344	183
79.0188	952
80.0235	19
81.0346	583
83.0378	3
95.0142	85
97.0293	21
98.0342	6
107.014	999
123.0083	8
125.025	80
151.0046	60
