Mass spectrum: Pyrocatechol; LC-ESI-QTOF; MS2; CE: 40; R=; [M-H]-
Name: Pyrocatechol
Name: benzene-1,2-diol
Formula: C6H6O2
Exact mass: 110.0368
SMILES: OC1=CC=CC=C1O
InChI: InChI=1S/C6H6O2/c7-5-3-1-2-4-6(5)8/h1-4,7-8H
Instrument: maXis plus UHR-ToF-MS, Bruker Daltonics
Instrument type: LC-ESI-QTOF
Ms type: MS2
Ion mode: NEGATIVE
Ionization: ESI
Fragmentation mode: CID
Collision energy: 40
Column name: BEH C18 1.7um, 2.1x100mm, Waters
Retention time: 2.599 min
Base peak: 109.0289
Precursor m/z: 109.0295
Precursor type: [M-H]-
m/z	relative intensity
80.0228	161
108.0209	999
109.0294	139
