Mass spectrum: Diisopropylphthalate; LC-ESI-QTOF; MS2; CE: 20; R=; [M+H]+
Name: Diisopropylphthalate
Name: DIISOPROPYL PHTHALATE
Name: dipropan-2-yl benzene-1,2-dicarboxylate
Formula: C14H18O4
Exact mass: 250.12051
SMILES: CC(C)OC(=O)c1ccccc1C(=O)OC(C)C
InChI: InChI=1S/C14H18O4/c1-9(2)17-13(15)11-7-5-6-8-12(11)14(16)18-10(3)4/h5-10H,1-4H3
Instrument: maXis plus UHR-ToF-MS, Bruker Daltonics
Instrument type: LC-ESI-QTOF
Ms type: MS2
Ion mode: POSITIVE
Ionization: ESI
Fragmentation mode: CID
Collision energy: 20
Column name: BEH C18 1.7um, 2.1x100mm, Waters
Retention time: 5.435 min
Base peak: 149.0246
Precursor m/z: 251.1278
Precursor type: [M+H]+
m/z	relative intensity
65.038	1
93.033	1
121.0285	5
149.0247	999
150.0268	227
151.0287	16
167.034	46
191.0702	2
209.0811	1
