Mass spectrum: Folic acid; LC-ESI-QTOF; MS2; CE: 20; R=; [M-H]-
Name: Folic acid
Name: (2S)-2-[[4-[(2-amino-4-oxo-1H-pteridin-6-yl)methylamino]benzoyl]amino]pentanedioic acid
Formula: C19H19N7O6
Exact mass: 441.1397
SMILES: Nc1nc2ncc(CNc3ccc(cc3)C(=O)N[C@@H](CCC(O)=O)C(O)=O)nc2c(=O)[nH]1
InChI: InChI=1S/C19H19N7O6/c20-19-25-15-14(17(30)26-19)23-11(8-22-15)7-21-10-3-1-9(2-4-10)16(29)24-12(18(31)32)5-6-13(27)28/h1-4,8,12,21H,5-7H2,(H,24,29)(H,27,28)(H,31,32)(H3,20,22,25,26,30)/t12-/m0/s1
Instrument: maXis plus UHR-ToF-MS, Bruker Daltonics
Instrument type: LC-ESI-QTOF
Ms type: MS2
Ion mode: NEGATIVE
Ionization: ESI
Fragmentation mode: CID
Collision energy: 20
Column name: BEH C18 1.7um, 2.1x100mm, Waters
Retention time: 2.476 min
Base peak: 440.1306
Precursor m/z: 440.1324
Precursor type: [M-H]-
m/z	relative intensity
211.0113	1
241.1318	1
264.0264	1
267.9863	1
268.113	1
311.0943	61
312.0989	5
335.1306	1
378.1335	1
396.1437	12
397.1246	1
422.1222	14
423.1269	1
424.1244	1
440.1309	999
