Mass spectrum: N-Acetyl-D-Mannosamine; LC-ESI-QTOF; MS2; CE: 40; R=; [M-H]-
Name: N-Acetyl-D-Mannosamine
Name: aldehydo-N-acetyl-D-mannosamine
Name: N-[(2R,3S,4R,5S)-3,4,5,6-tetrahydroxy-1-oxohexan-2-yl]acetamide
Formula: C8H15NO6
Exact mass: 221.0899
SMILES: CC(=O)N[C@@H](C=O)[C@H](O)[C@@H](O)[C@@H](O)CO
InChI: InChI=1S/C8H15NO6/c1-4(12)9-5(2-10)7(14)8(15)6(13)3-11/h2,5-8,11,13-15H,3H2,1H3,(H,9,12)/t5-,6-,7-,8-/m0/s1
Instrument: maXis plus UHR-ToF-MS, Bruker Daltonics
Instrument type: LC-ESI-QTOF
Ms type: MS2
Ion mode: NEGATIVE
Ionization: ESI
Fragmentation mode: CID
Collision energy: 40
Column name: BEH C18 1.7um, 2.1x100mm, Waters
Retention time: 0.617 min
Base peak: 220.0835
Precursor m/z: 220.0827
Precursor type: [M-H]-
m/z	relative intensity
59.014	999
