Mass spectrum: Isovaleric acid; LC-ESI-QTOF; MS2; CE: 40; R=; [M+H]+
Name: Isovaleric acid
Name: 3-methylbutanoic acid
Formula: C5H10O2
Exact mass: 102.0681
SMILES: CC(C)CC(O)=O
InChI: InChI=1S/C5H10O2/c1-4(2)3-5(6)7/h4H,3H2,1-2H3,(H,6,7)
Instrument: maXis plus UHR-ToF-MS, Bruker Daltonics
Instrument type: LC-ESI-QTOF
Ms type: MS2
Ion mode: POSITIVE
Ionization: ESI
Fragmentation mode: CID
Collision energy: 40
Column name: BEH C18 1.7um, 2.1x100mm, Waters
Retention time: 3.275 min
Base peak: 85.0582
Precursor m/z: 103.0754
Precursor type: [M+H]+
m/z	relative intensity
66.0425	999
