Mass spectrum: Shikimic acid; LC-ESI-QTOF; MS2; CE: 40; R=; [M+H]+
Name: Shikimic acid
Name: (3R,4S,5R)-3,4,5-trihydroxycyclohexene-1-carboxylic acid
Formula: C7H10O5
Exact mass: 174.0528
SMILES: C1[C@H]([C@@H]([C@@H](C=C1C(=O)O)O)O)O
InChI: InChI=1S/C7H10O5/c8-4-1-3(7(11)12)2-5(9)6(4)10/h1,4-6,8-10H,2H2,(H,11,12)/t4-,5-,6-/m1/s1
Instrument: maXis plus UHR-ToF-MS, Bruker Daltonics
Instrument type: LC-ESI-QTOF
Ms type: MS2
Ion mode: POSITIVE
Ionization: ESI
Fragmentation mode: CID
Collision energy: 40
Column name: BEH C18 1.7um, 2.1x100mm, Waters
Retention time: 0.657 min
Base peak: 157.0488
Precursor m/z: 175.0601
Precursor type: [M+H]+
m/z	relative intensity
77.039	999
