Mass spectrum: 3-hydroxy-C14 homoserine lactone; LC-ESI-QTOF; MS2; CE: 10; R=; [M-H]-
Name: 3-hydroxy-C14 homoserine lactone
Name: N-(3-Hydroxytetradecanoyl)-DL-homoserine lactone
Name: 3-hydroxy-N-(2-oxooxolan-3-yl)tetradecanamide
Formula: C18H33NO4
Exact mass: 327.2410
SMILES: CCCCCCCCCCCC(O)CC(=O)NC1CCOC1=O
InChI: InChI=1S/C18H33NO4/c1-2-3-4-5-6-7-8-9-10-11-15(20)14-17(21)19-16-12-13-23-18(16)22/h15-16,20H,2-14H2,1H3,(H,19,21)
Instrument: maXis plus UHR-ToF-MS, Bruker Daltonics
Instrument type: LC-ESI-QTOF
Ms type: MS2
Ion mode: NEGATIVE
Ionization: ESI
Fragmentation mode: CID
Collision energy: 10
Column name: BEH C18 1.7um, 2.1x100mm, Waters
Retention time: 5.740 min
Base peak: 326.2329
Precursor m/z: 326.2337
Precursor type: [M-H]-
m/z	relative intensity
113.0441	7
131.092	6
142.0522	74
326.2334	999
