Mass spectrum: Palmitoyl-L-Carnitine; LC-ESI-QTOF; MS2; CE: 10; R=; [M+H]+
Name: Palmitoyl-L-Carnitine
Name: L-Palmitoylcarnitine
Name: (3R)-3-hexadecanoyloxy-4-(trimethylazaniumyl)butanoate
Formula: C23H45NO4
Exact mass: 399.3349
SMILES: CCCCCCCCCCCCCCCC(=O)O[C@H](CC(=O)[O-])C[N+](C)(C)C
InChI: InChI=1S/C23H45NO4/c1-5-6-7-8-9-10-11-12-13-14-15-16-17-18-23(27)28-21(19-22(25)26)20-24(2,3)4/h21H,5-20H2,1-4H3/t21-/m1/s1
Instrument: maXis plus UHR-ToF-MS, Bruker Daltonics
Instrument type: LC-ESI-QTOF
Ms type: MS2
Ion mode: POSITIVE
Ionization: ESI
Fragmentation mode: CID
Collision energy: 10
Column name: BEH C18 1.7um, 2.1x100mm, Waters
Retention time: 5.781 min
Base peak: 400.3428
Precursor m/z: 400.3421
Precursor type: [M+H]+
m/z	relative intensity
85.0277	6
341.268	2
400.3423	999
402.349	32
