Mass spectrum: 3-oxo-C12 homoserine lactone; LC-ESI-QTOF; MS2; CE: 20; R=; [M-H]-
Name: 3-oxo-C12 homoserine lactone
Name: PA Autoinducer
Name: 3-oxo-N-(2-oxooxolan-3-yl)dodecanamide
Formula: C16H27NO4
Exact mass: 297.1940
SMILES: CCCCCCCCCC(=O)CC(=O)NC1CCOC1=O
InChI: InChI=1S/C16H27NO4/c1-2-3-4-5-6-7-8-9-13(18)12-15(19)17-14-10-11-21-16(14)20/h14H,2-12H2,1H3,(H,17,19)
Instrument: maXis plus UHR-ToF-MS, Bruker Daltonics
Instrument type: LC-ESI-QTOF
Ms type: MS2
Ion mode: NEGATIVE
Ionization: ESI
Fragmentation mode: CID
Collision energy: 20
Column name: BEH C18 1.7um, 2.1x100mm, Waters
Retention time: 5.292 min
Base peak: 296.1864
Precursor m/z: 296.1867
Precursor type: [M-H]-
m/z	relative intensity
57.035	8
70.0302	8
82.0302	3
95.0382	2
96.0456	1
112.0406	8
126.0206	18
142.0523	11
169.1608	142
171.1402	340
195.1392	2
222.1874	38
223.1904	1
234.1873	13
248.1657	7
252.1973	2
278.1763	1
296.187	999
