Mass spectrum: 3-oxo-C6-homoserine lactone; LC-ESI-QTOF; MS2; CE: 40; R=; [M-H]-
Name: 3-oxo-C6-homoserine lactone
Name: Autoinducer 1
Name: 3-oxo-N-(2-oxooxolan-3-yl)hexanamide
Formula: C10H15NO4
Exact mass: 213.1001
SMILES: CCCC(=O)CC(=O)NC1CCOC1=O
InChI: InChI=1S/C10H15NO4/c1-2-3-7(12)6-9(13)11-8-4-5-15-10(8)14/h8H,2-6H2,1H3,(H,11,13)
Instrument: maXis plus UHR-ToF-MS, Bruker Daltonics
Instrument type: LC-ESI-QTOF
Ms type: MS2
Ion mode: NEGATIVE
Ionization: ESI
Fragmentation mode: CID
Collision energy: 40
Column name: BEH C18 1.7um, 2.1x100mm, Waters
Retention time: 2.746 min
Base peak: 212.0937
Precursor m/z: 212.0928
Precursor type: [M-H]-
m/z	relative intensity
55.0174	6
57.0347	999
66.0432	4
67.0189	6
67.0554	4
68.051	7
68.9987	52
69.0347	74
70.0067	8
70.0301	20
72.0093	39
78.0113	4
78.0351	6
81.034	4
83.0503	5
84.0084	4
85.0663	230
87.0451	30
93.0193	3
93.0324	4
94.0297	16
95.0491	5
96.0218	6
96.0446	5
97.0301	8
97.0488	3
98.0008	20
111.0459	27
112.0397	9
168.0771	4
174.0993	3
