Mass spectrum: 3-hydroxy-C6-homoserine lactone; LC-ESI-QTOF; MS2; CE: 20; R=; [M-H]-
Name: 3-hydroxy-C6-homoserine lactone
Name: 3OH-C6-HSL RS/RS
Name: 3-hydroxy-N-(2-oxooxolan-3-yl)hexanamide
Formula: C10H17NO4
Exact mass: 215.1158
SMILES: CCCC(O)CC(=O)NC1CCOC1=O
InChI: InChI=1S/C10H17NO4/c1-2-3-7(12)6-9(13)11-8-4-5-15-10(8)14/h7-8,12H,2-6H2,1H3,(H,11,13)
Instrument: maXis plus UHR-ToF-MS, Bruker Daltonics
Instrument type: LC-ESI-QTOF
Ms type: MS2
Ion mode: NEGATIVE
Ionization: ESI
Fragmentation mode: CID
Collision energy: 20
Column name: BEH C18 1.7um, 2.1x100mm, Waters
Retention time: 2.640 min
Base peak: 214.1092
Precursor m/z: 214.1085
Precursor type: [M-H]-
m/z	relative intensity
57.0348	29
68.0502	49
69.0338	32
84.0458	738
97.0299	39
112.041	999
113.0433	60
140.0361	26
142.0506	225
143.0557	15
