Mass spectrum: D-Sorbitol; LC-ESI-QTOF; MS2; CE: 40; R=; [M-H]-
Name: D-Sorbitol
Name: Sorbo
Name: (3S,4S,5R)-hexane-1,2,3,4,5,6-hexol
Formula: C6H14O6
Exact mass: 182.0790
SMILES: OC([C@H](O)[C@@H](O)[C@H](O)CO)CO
InChI: InChI=1S/C6H14O6/c7-1-3(9)5(11)6(12)4(10)2-8/h3-12H,1-2H2/t3-,4?,5+,6+/m1/s1
Instrument: maXis plus UHR-ToF-MS, Bruker Daltonics
Instrument type: LC-ESI-QTOF
Ms type: MS2
Ion mode: NEGATIVE
Ionization: ESI
Fragmentation mode: CID
Collision energy: 40
Column name: BEH C18 1.7um, 2.1x100mm, Waters
Retention time: 0.603 min
Base peak: 181.0726
Precursor m/z: 181.0718
Precursor type: [M-H]-
m/z	relative intensity
59.014	648
71.0141	999
89.0243	23
