Mass spectrum: DL-4-Hydroxyphenyllactic acid; LC-ESI-QTOF; MS2; CE: 20; R=; [M+H]+
Name: DL-4-Hydroxyphenyllactic acid
Name: 2-hydroxy-2-(4-hydroxyphenyl)propanoic acid
Formula: C9H10O4
Exact mass: 182.0579
SMILES: CC(c1ccc(cc1)O)(C(=O)O)O
InChI: InChI=1S/C9H10O4/c1-9(13,8(11)12)6-2-4-7(10)5-3-6/h2-5,10,13H,1H3,(H,11,12)
Instrument: maXis plus UHR-ToF-MS, Bruker Daltonics
Instrument type: LC-ESI-QTOF
Ms type: MS2
Ion mode: POSITIVE
Ionization: ESI
Fragmentation mode: CID
Collision energy: 20
Column name: BEH C18 1.7um, 2.1x100mm, Waters
Retention time: 2.347 min
Base peak: 165.0542
Precursor m/z: 183.0652
Precursor type: [M+H]+
m/z	relative intensity
81.0701	111
91.0539	999
92.0587	165
95.0495	342
107.0486	288
119.0491	995
120.0533	75
123.0435	147
137.0599	93
147.0406	100
