Mass spectrum: 3-hydroxy-C8-homoserine lactone; LC-ESI-QTOF; MS2; CE: 40; R=; [M-H]-
Name: 3-hydroxy-C8-homoserine lactone
Name: 3-hydroxy-N-(2-oxooxolan-3-yl)octanamide
Formula: C12H21NO4
Exact mass: 243.1471
SMILES: CCCCCC(O)CC(=O)NC1CCOC1=O
InChI: InChI=1S/C12H21NO4/c1-2-3-4-5-9(14)8-11(15)13-10-6-7-17-12(10)16/h9-10,14H,2-8H2,1H3,(H,13,15)
Instrument: maXis plus UHR-ToF-MS, Bruker Daltonics
Instrument type: LC-ESI-QTOF
Ms type: MS2
Ion mode: NEGATIVE
Ionization: ESI
Fragmentation mode: CID
Collision energy: 40
Column name: BEH C18 1.7um, 2.1x100mm, Waters
Retention time: 3.592 min
Base peak: 242.1377
Precursor m/z: 242.1398
Precursor type: [M-H]-
m/z	relative intensity
68.0595	74
69.043	611
80.0274	15
85.0525	51
112.041	999
124.0395	80
