Mass spectrum: N-Oleyl-Isoleucine; LC-ESI-QTOF; MS2; CE: 40; R=; [M-H]-
Name: N-Oleyl-Isoleucine
Name: N-oleoyl isoleucine
Name: (2S,3S)-3-methyl-2-[[(Z)-octadec-9-enoyl]amino]pentanoic acid
Formula: C24H45NO3
Exact mass: 395.3399
SMILES: CCCCCCCC/C=C\CCCCCCCC(=O)N[C@@H]([C@@H](C)CC)C(=O)O
InChI: InChI=1S/C24H45NO3/c1-4-6-7-8-9-10-11-12-13-14-15-16-17-18-19-20-22(26)25-23(24(27)28)21(3)5-2/h12-13,21,23H,4-11,14-20H2,1-3H3,(H,25,26)(H,27,28)/b13-12-/t21-,23-/m0/s1
Instrument: maXis plus UHR-ToF-MS, Bruker Daltonics
Instrument type: LC-ESI-QTOF
Ms type: MS2
Ion mode: NEGATIVE
Ionization: ESI
Fragmentation mode: CID
Collision energy: 40
Column name: BEH C18 1.7um, 2.1x100mm, Waters
Retention time: 7.236 min
Base peak: 394.3325
Precursor m/z: 394.3327
Precursor type: [M-H]-
m/z	relative intensity
82.0666	36
128.1088	33
130.0881	999
131.091	69
263.2386	16
265.2534	27
266.2594	6
280.2656	8
348.325	13
350.3438	273
367.3097	8
394.3307	17
