Mass spectrum: Hexanoyl-L-Carnitine; LC-ESI-QTOF; MS2; CE: 20; R=; [M+H]+
Name: Hexanoyl-L-Carnitine
Name: L-Hexanoylcarnitine
Name: (3R)-3-hexanoyloxy-4-(trimethylazaniumyl)butanoate
Formula: C13H25NO4
Exact mass: 259.1784
SMILES: CCCCCC(=O)O[C@H](CC(=O)[O-])C[N+](C)(C)C
InChI: InChI=1S/C13H25NO4/c1-5-6-7-8-13(17)18-11(9-12(15)16)10-14(2,3)4/h11H,5-10H2,1-4H3/t11-/m1/s1
Instrument: maXis plus UHR-ToF-MS, Bruker Daltonics
Instrument type: LC-ESI-QTOF
Ms type: MS2
Ion mode: POSITIVE
Ionization: ESI
Fragmentation mode: CID
Collision energy: 20
Column name: BEH C18 1.7um, 2.1x100mm, Waters
Retention time: 3.163 min
Base peak: 260.1863
Precursor m/z: 260.1856
Precursor type: [M+H]+
m/z	relative intensity
57.0325	1
85.029	999
99.08	83
117.0908	2
144.1019	6
201.1117	101
260.1853	217
262.1909	2
