Mass spectrum: Guanosine; LC-ESI-QTOF; MS2; CE: 10; R=; [M-H]-
Name: Guanosine
Formula: C10H13N5O5
Exact mass: 283.0917
SMILES: c1nc2c(n1[C@H]3[C@@H]([C@@H]([C@H](O3)CO)O)O)[nH]c(=N)nc2O
InChI: InChI=1S/C10H13N5O5/c11-10-13-7-4(8(19)14-10)12-2-15(7)9-6(18)5(17)3(1-16)20-9/h2-3,5-6,9,16-18H,1H2,(H3,11,13,14,19)/t3-,5-,6-,9-/m1/s1
Instrument: maXis plus UHR-ToF-MS, Bruker Daltonics
Instrument type: LC-ESI-QTOF
Ms type: MS2
Ion mode: NEGATIVE
Ionization: ESI
Fragmentation mode: CID
Collision energy: 10
Column name: BEH C18 1.7um, 2.1x100mm, Waters
Retention time: 0.714 min
Base peak: 282.0842
Precursor m/z: 282.0844
Precursor type: [M-H]-
m/z	relative intensity
150.0425	36
282.084	999
293.0486	1
