Mass spectrum: 7-Methylguanosine; LC-ESI-QTOF; MS2; CE: 10; R=; [M+H]+
Name: 7-Methylguanosine
Name: 2-amino-9-[(2R,3R,4S,5R)-3,4-dihydroxy-5-(hydroxymethyl)oxolan-2-yl]-7-methyl-3H-purin-9-ium-6-one
Formula: [C11H16N5O5]+
Exact mass: 298.1151
SMILES: C[n+]1cn(c2c1c(=O)[nH]c(n2)N)[C@H]3[C@@H]([C@@H]([C@H](O3)CO)O)O
InChI: InChI=1S/C11H15N5O5/c1-15-3-16(8-5(15)9(20)14-11(12)13-8)10-7(19)6(18)4(2-17)21-10/h3-4,6-7,10,17-19H,2H2,1H3,(H2-,12,13,14,20)/p+1/t4-,6-,7-,10-/m1/s1
Instrument: maXis plus UHR-ToF-MS, Bruker Daltonics
Instrument type: LC-ESI-QTOF
Ms type: MS2
Ion mode: POSITIVE
Ionization: ESI
Fragmentation mode: CID
Collision energy: 10
Column name: BEH C18 1.7um, 2.1x100mm, Waters
Retention time: 0.832 min
Base peak: 186.9554
Precursor m/z: 299.1224
Precursor type: [M+H]+
m/z	relative intensity
108.0404	23
109.1083	20
166.0717	999
167.1143	23
240.0916	21
298.1152	257
