Mass spectrum: beta-Estradiol; LC-ESI-QTOF; MS2; CE: 40; R=; [M-H]-
Name: beta-Estradiol
Name: estradiol
Name: (8R,9S,13S,14S,17S)-13-methyl-6,7,8,9,11,12,14,15,16,17-decahydrocyclopenta[a]phenanthrene-3,17-diol
Formula: C18H24O2
Exact mass: 272.1776
SMILES: C[C@]12CC[C@H]3[C@H]([C@@H]1CC[C@@H]2O)CCC4=C3C=CC(=C4)O
InChI: InChI=1S/C18H24O2/c1-18-9-8-14-13-5-3-12(19)10-11(13)2-4-15(14)16(18)6-7-17(18)20/h3,5,10,14-17,19-20H,2,4,6-9H2,1H3/t14-,15-,16+,17+,18+/m1/s1
Instrument: maXis plus UHR-ToF-MS, Bruker Daltonics
Instrument type: LC-ESI-QTOF
Ms type: MS2
Ion mode: NEGATIVE
Ionization: ESI
Fragmentation mode: CID
Collision energy: 40
Column name: BEH C18 1.7um, 2.1x100mm, Waters
Retention time: 4.481 min
Base peak: 271.1702
Precursor m/z: 271.1704
Precursor type: [M-H]-
m/z	relative intensity
145.0656	12
158.0726	12
183.0823	19
206.0754	10
216.114	8
239.1424	18
253.1591	13
269.1551	25
271.1702	999
