Mass spectrum: N6-Isopentenyladenosine; LC-ESI-QTOF; MS2; CE: 10; R=; [M-H]-
Name: N6-Isopentenyladenosine
Name: Riboprine
Name: (2R,3S,4R,5R)-2-(hydroxymethyl)-5-[6-(3-methylbut-2-enylamino)purin-9-yl]oxolane-3,4-diol
Formula: C15H21N5O4
Exact mass: 335.1594
SMILES: CC(=CCNc1c2c(ncn1)n(cn2)[C@H]3[C@@H]([C@@H]([C@H](O3)CO)O)O)C
InChI: InChI=1S/C15H21N5O4/c1-8(2)3-4-16-13-10-14(18-6-17-13)20(7-19-10)15-12(23)11(22)9(5-21)24-15/h3,6-7,9,11-12,15,21-23H,4-5H2,1-2H3,(H,16,17,18)/t9-,11-,12-,15-/m1/s1
Instrument: maXis plus UHR-ToF-MS, Bruker Daltonics
Instrument type: LC-ESI-QTOF
Ms type: MS2
Ion mode: NEGATIVE
Ionization: ESI
Fragmentation mode: CID
Collision energy: 10
Column name: BEH C18 1.7um, 2.1x100mm, Waters
Retention time: 3.153 min
Base peak: 380.1573
Precursor m/z: 334.1521
Precursor type: [M-H]-
m/z	relative intensity
202.1082	847
334.1488	999
