Mass spectrum: Guanosine; LC-ESI-QTOF; MS2; CE: 20; R=; [M+H]+
Name: Guanosine
Formula: C10H13N5O5
Exact mass: 283.091669
SMILES: C1=NC2=C(N1[C@H]3[C@@H]([C@@H]([C@H](O3)CO)O)O)N=C(NC2=O)N
InChI: InChI=1S/C10H13N5O5/c11-10-13-7-4(8(19)14-10)12-2-15(7)9-6(18)5(17)3(1-16)20-9/h2-3,5-6,9,16-18H,1H2,(H3,11,13,14,19)/t3-,5-,6-,9-/m1/s1
Instrument: maXis plus UHR-ToF-MS, Bruker Daltonics
Instrument type: LC-ESI-QTOF
Ms type: MS2
Ion mode: POSITIVE
Ionization: ESI
Fragmentation mode: CID
Collision energy: 20
Column name: BEH C18 1.7um, 2.1x100mm, Waters
Retention time: 0.712 min
Base peak: 152.0561
Precursor m/z: 284.0989
Precursor type: [M+H]+
m/z	relative intensity
61.0275	1
69.0322	1
73.0269	1
85.0274	3
115.0389	1
135.0289	2
152.0562	999
154.0598	1
284.0989	1
