Mass spectrum: N2-Methylguanosine; LC-ESI-QTOF; MS2; CE: 20; R=; [M-H]-
Name: N2-Methylguanosine
Name: 9-[(2R,3R,4S,5R)-3,4-dihydroxy-5-(hydroxymethyl)oxolan-2-yl]-2-(methylamino)-3H-purin-6-one
Formula: C11H15N5O5
Exact mass: 297.1073
SMILES: CNc1[nH]c(=O)c2c(n1)n(cn2)[C@H]3[C@@H]([C@@H]([C@H](O3)CO)O)O
InChI: InChI=1S/C11H15N5O5/c1-12-11-14-8-5(9(20)15-11)13-3-16(8)10-7(19)6(18)4(2-17)21-10/h3-4,6-7,10,17-19H,2H2,1H3,(H2,12,14,15,20)/t4-,6-,7-,10-/m1/s1
Instrument: maXis plus UHR-ToF-MS, Bruker Daltonics
Instrument type: LC-ESI-QTOF
Ms type: MS2
Ion mode: NEGATIVE
Ionization: ESI
Fragmentation mode: CID
Collision energy: 20
Column name: BEH C18 1.7um, 2.1x100mm, Waters
Retention time: 0.928 min
Base peak: 68.9964
Precursor m/z: 296.1
Precursor type: [M-H]-
m/z	relative intensity
142.1222	271
164.0596	999
187.0113	199
