Mass spectrum: alpha-linolenic acid; LC-ESI-QTOF; MS2; CE: 10; R=; [M-H]-
Name: alpha-linolenic acid
Name: linolenic acid
Name: (9Z,12Z,15Z)-octadeca-9,12,15-trienoic acid
Formula: C18H30O2
Exact mass: 278.2246
SMILES: CC/C=C\C/C=C\C/C=C\CCCCCCCC(=O)O
InChI: InChI=1S/C18H30O2/c1-2-3-4-5-6-7-8-9-10-11-12-13-14-15-16-17-18(19)20/h3-4,6-7,9-10H,2,5,8,11-17H2,1H3,(H,19,20)/b4-3-,7-6-,10-9-
Instrument: maXis plus UHR-ToF-MS, Bruker Daltonics
Instrument type: LC-ESI-QTOF
Ms type: MS2
Ion mode: NEGATIVE
Ionization: ESI
Fragmentation mode: CID
Collision energy: 10
Column name: BEH C18 1.7um, 2.1x100mm, Waters
Retention time: 6.664 min
Base peak: 277.2177
Precursor m/z: 277.2173
Precursor type: [M-H]-
m/z	relative intensity
277.2173	999
