Mass spectrum: Methiocarb; LC-ESI-QFT; MS2; CE: 35 NCE; R=35000; [M+H]+
Name: Methiocarb
Name: (3,5-dimethyl-4-methylsulfanylphenyl) N-methylcarbamate
Formula: C11H15NO2S
Exact mass: 225.08235
SMILES: CNC(=O)Oc1cc(C)c(SC)c(C)c1
InChI: InChI=1S/C11H15NO2S/c1-7-5-9(14-11(13)12-3)6-8(2)10(7)15-4/h5-6H,1-4H3,(H,12,13)
Instrument: Q Exactive Plus Orbitrap Thermo Scientific
Instrument type: LC-ESI-QFT
Ms type: MS2
Ion mode: POSITIVE
Ionization: ESI
Fragmentation mode: HCD
Collision energy: 35  (nominal)
Resolution: 35000
Column name: Kinetex C18 EVO 2.6 um, 2.1x50 mm, precolumn 2.1x5 mm, Phenomenex
Retention time: 11.070 min
Base peak: 276.0816
Precursor m/z: 226.0896
Precursor type: [M+H]+
m/z	relative intensity	assigned
53.0388	4	C4H5+
67.0544	1	C5H7+
77.0385	9	C6H5+
79.0541	1	C6H7+
91.0542	50	C7H7+
93.0699	103	C7H9+
95.0492	14	C6H7O+
95.0855	2	C7H11+
103.0541	1	C8H7+
105.0448	4	C6H5N2+
107.0491	17	C7H7O+
109.065	1	C7H9O+
121.0648	999	C8H9O+
122.0726	250	C8H10O+
123.0805	12	C8H11O+
139.0753	2	C8H11O2+
141.0734	4	C8H13S+
153.037	7	C8H9OS+
153.091	16	C9H13O2+
154.0446	12	C8H10OS+
169.0681	926	C9H13OS+
226.0896	5	C11H16NO2S+
