Mass spectrum: Raloxifene; LC-ESI-QFT; MS2; CE: 35 NCE; R=35000; [M+H]+
Name: Raloxifene
Name: [6-hydroxy-2-(4-hydroxyphenyl)-1-benzothiophen-3-yl]-[4-(2-piperidin-1-ylethoxy)phenyl]methanone
Formula: C28H27NO4S
Exact mass: 473.16608
SMILES: Oc1ccc(cc1)-c1sc2cc(O)ccc2c1C(=O)c1ccc(OCCN2CCCCC2)cc1
InChI: InChI=1S/C28H27NO4S/c30-21-8-4-20(5-9-21)28-26(24-13-10-22(31)18-25(24)34-28)27(32)19-6-11-23(12-7-19)33-17-16-29-14-2-1-3-15-29/h4-13,18,30-31H,1-3,14-17H2
Instrument: Q Exactive Plus Orbitrap Thermo Scientific
Instrument type: LC-ESI-QFT
Ms type: MS2
Ion mode: POSITIVE
Ionization: ESI
Fragmentation mode: HCD
Collision energy: 35  (nominal)
Resolution: 35000
Column name: Kinetex C18 EVO 2.6 um, 2.1x50 mm, precolumn 2.1x5 mm, Phenomenex
Retention time: 8.611 min
Base peak: 474.173
Precursor m/z: 474.1734
Precursor type: [M+H]+
m/z	relative intensity	assigned
55.0544	18	C4H7+
56.0497	40	C3H6N+
58.0653	30	C3H8N+
67.0543	4	C5H7+
69.0699	79	C5H9+
70.0652	20	C4H8N+
82.0651	3	C5H8N+
83.0729	1	C5H9N+
83.0855	3	C6H11+
84.0808	345	C5H10N+
85.0886	129	C5H11N+
86.0964	11	C5H12N+
97.0886	3	C6H11N+
98.0964	7	C6H12N+
103.0179	5	C7H3O+
110.0964	13	C7H12N+
112.1121	691	C7H14N+
121.0285	1	C7H5O2+
147.044	28	C9H7O2+
197.0597	13	C13H9O2+
213.0369	7	C13H9OS+
241.0315	2	C14H9O2S+
269.0267	75	C15H9O3S+
305.0622	1	C19H13O2S+
317.0622	1	C20H13O2S+
333.058	1	C20H13O3S+
345.0583	4	C21H13O3S+
361.0533	3	C21H13O4S+
362.0608	5	C21H14O4S+
389.0853	1	C23H17O4S+
474.1736	999	C28H28NO4S+
