Mass spectrum: Enalapril; LC-ESI-QFT; MS2; CE: 35 NCE; R=35000; [M-H]-
Name: Enalapril
Name: (2S)-1-[(2S)-2-[[(2S)-1-ethoxy-1-oxo-4-phenylbutan-2-yl]azaniumyl]propanoyl]pyrrolidine-2-carboxylate
Formula: C20H28N2O5
Exact mass: 376.19982
SMILES: CCOC(=O)[C@H](CCc1ccccc1)N[C@@H](C)C(=O)N1CCC[C@H]1C(O)=O
InChI: InChI=1S/C20H28N2O5/c1-3-27-20(26)16(12-11-15-8-5-4-6-9-15)21-14(2)18(23)22-13-7-10-17(22)19(24)25/h4-6,8-9,14,16-17,21H,3,7,10-13H2,1-2H3,(H,24,25)/t14-,16-,17-/m0/s1
Instrument: Q Exactive Plus Orbitrap Thermo Scientific
Instrument type: LC-ESI-QFT
Ms type: MS2
Ion mode: NEGATIVE
Ionization: ESI
Fragmentation mode: HCD
Collision energy: 35  (nominal)
Resolution: 35000
Column name: Kinetex C18 EVO 2.6 um, 2.1x50 mm, precolumn 2.1x5 mm, Phenomenex
Retention time: 8.189 min
Base peak: 375.1925
Precursor m/z: 375.1925
Precursor type: [M-H]-
m/z	relative intensity	assigned
105.1127	12	C2H17O4-
114.0552	585	C3H6N4O-
126.0921	219	C7H12NO-
158.097	14	C11H12N-
168.0671	12	C8H10NO3-
170.0822	54	C8H12NO3-
186.0921	16	C12H12NO-
375.1925	999	C20H27N2O5-
