Mass spectrum: Carbaryl; LC-ESI-QFT; MS2; CE: 35 NCE; R=35000; [M+H]+
Name: Carbaryl
Name: naphthalen-1-yl N-methylcarbamate
Formula: C12H11NO2
Exact mass: 201.07898
SMILES: CNC(=O)Oc1cccc2ccccc12
InChI: InChI=1S/C12H11NO2/c1-13-12(14)15-11-8-4-6-9-5-2-3-7-10(9)11/h2-8H,1H3,(H,13,14)
Instrument: Q Exactive Plus Orbitrap Thermo Scientific
Instrument type: LC-ESI-QFT
Ms type: MS2
Ion mode: POSITIVE
Ionization: ESI
Fragmentation mode: HCD
Collision energy: 35  (nominal)
Resolution: 35000
Column name: Kinetex C18 EVO 2.6 um, 2.1x50 mm, precolumn 2.1x5 mm, Phenomenex
Retention time: 9.468 min
Base peak: 145.0646
Precursor m/z: 202.0863
Precursor type: [M+H]+
m/z	relative intensity	assigned
58.0289	4	C2H4NO+
91.0541	1	C7H7+
103.0542	7	C8H7+
115.0541	5	C9H7+
117.0699	88	C9H9+
127.0541	9	C10H7+
144.0569	1	C10H8O+
145.0647	999	C10H9O+
155.0603	48	C10H7N2+
202.0855	2	C12H12NO2+
