Mass spectrum: Promethazin; LC-ESI-QFT; MS2; CE: 35 NCE; R=35000; [M+H]+
Name: Promethazin
Name: N,N-dimethyl-1-phenothiazin-10-ylpropan-2-amine
Formula: C17H20N2S
Exact mass: 284.13472
SMILES: CC(CN1C2=C(SC3=C1C=CC=C3)C=CC=C2)N(C)C
InChI: InChI=1S/C17H20N2S/c1-13(18(2)3)12-19-14-8-4-6-10-16(14)20-17-11-7-5-9-15(17)19/h4-11,13H,12H2,1-3H3
Instrument: Q Exactive Plus Orbitrap Thermo Scientific
Instrument type: LC-ESI-QFT
Ms type: MS2
Ion mode: POSITIVE
Ionization: ESI
Fragmentation mode: HCD
Collision energy: 35  (nominal)
Resolution: 35000
Column name: Kinetex C18 EVO 2.6 um, 2.1x50 mm, precolumn 2.1x5 mm, Phenomenex
Retention time: 8.328 min
Base peak: 285.1417
Precursor m/z: 285.142
Precursor type: [M+H]+
m/z	relative intensity	assigned
56.0496	8	C3H6N+
58.0653	5	C3H8N+
70.0651	2	C4H8N+
71.073	57	C4H9N+
84.0808	9	C5H10N+
86.0964	999	C5H12N+
105.0698	3	C8H9+
136.0216	1	C7H6NS+
162.0372	9	C9H8NS+
198.0372	228	C12H8NS+
206.0964	1	C15H12N+
207.1042	4	C15H13N+
225.0607	6	C14H11NS+
240.0841	73	C15H14NS+
285.142	272	C17H21N2S+
