Mass spectrum: Ethylenethiourea; LC-ESI-QFT; MS2; CE: 35 NCE; R=35000; [M+H]+
Name: Ethylenethiourea
Name: 2-Imidazolidinethione
Name: Imidazolidine-2-thione
Formula: C3H6N2S
Exact mass: 102.02517
SMILES: S=C1NCCN1
InChI: InChI=1S/C3H6N2S/c6-3-4-1-2-5-3/h1-2H2,(H2,4,5,6)
Instrument: Q Exactive Plus Orbitrap Thermo Scientific
Instrument type: LC-ESI-QFT
Ms type: MS2
Ion mode: POSITIVE
Ionization: ESI
Fragmentation mode: HCD
Collision energy: 35  (nominal)
Resolution: 35000
Column name: Kinetex C18 EVO 2.6 um, 2.1x50 mm, precolumn 2.1x5 mm, Phenomenex
Retention time: 0.488 min
Base peak: 189.1595
Precursor m/z: 103.0324
Precursor type: [M+H]+
m/z	relative intensity	assigned
58.9951	1	C2H3S+
60.0558	55	CH6N3+
69.0448	4	C3H5N2+
76.0216	4	C2H6NS+
86.0059	24	C3H4NS+
86.0349	10	C2H4N3O+
103.0324	999	C3H7N2S+
