Mass spectrum: TDCPP; LC-ESI-QFT; MS2; CE: 35 NCE; R=35000; [M+H]+
Name: TDCPP
Name: Tris(1,3-dichloropropan-2-yl) phosphate
Formula: C9H15Cl6O4P
Exact mass: 427.88391
SMILES: ClCC(CCl)OP(=O)(OC(CCl)CCl)OC(CCl)CCl
InChI: InChI=1S/C9H15Cl6O4P/c10-1-7(2-11)17-20(16,18-8(3-12)4-13)19-9(5-14)6-15/h7-9H,1-6H2
Instrument: Q Exactive Plus Orbitrap Thermo Scientific
Instrument type: LC-ESI-QFT
Ms type: MS2
Ion mode: POSITIVE
Ionization: ESI
Fragmentation mode: HCD
Collision energy: 35  (nominal)
Resolution: 35000
Column name: Kinetex C18 EVO 2.6 um, 2.1x50 mm, precolumn 2.1x5 mm, Phenomenex
Retention time: 12.642 min
Base peak: 305.1081
Precursor m/z: 428.8912
Precursor type: [M+H]+
m/z	relative intensity	assigned
74.9997	126	C3H4Cl+
98.9842	999	H4O4P+
116.9947	4	CH6ClO4+
131.0106	5	C2H8ClO4+
136.9998	4	C3H6O4P+
158.074	1	C4H16ClN2P+
172.9766	2	C4H7Cl2O3+
206.0235	1	C9H7N2O2P+
208.9533	182	C3H8Cl2O4P+
282.9455	1	C6H11Cl3O4P+
318.9224	186	C7H12Cl5O3+
428.8917	61	C9H16Cl6O4P+
