Mass spectrum: 1,2,3-Triazole; LC-ESI-QFT; MS2; CE: 35 NCE; R=35000; [M+H]+
Name: 1,2,3-Triazole
Name: 1H-1,2,3-Triazole
Name: 2H-triazole
Formula: C2H3N3
Exact mass: 69.03270
SMILES: N1C=CN=N1
InChI: InChI=1S/C2H3N3/c1-2-4-5-3-1/h1-2H,(H,3,4,5)
Instrument: Q Exactive Plus Orbitrap Thermo Scientific
Instrument type: LC-ESI-QFT
Ms type: MS2
Ion mode: POSITIVE
Ionization: ESI
Fragmentation mode: HCD
Collision energy: 35  (nominal)
Resolution: 35000
Column name: Kinetex C18 EVO 2.6 um, 2.1x50 mm, precolumn 2.1x5 mm, Phenomenex
Retention time: 0.582 min
Base peak: 70.04
Precursor m/z: 70.04
Precursor type: [M+H]+
m/z	relative intensity	assigned
70.04	999	C2H4N3+
