Mass spectrum: Fenofibrate; LC-ESI-QFT; MS2; CE: 35 NCE; R=35000; [M+H]+
Name: Fenofibrate
Name: propan-2-yl 2-[4-(4-chlorobenzoyl)phenoxy]-2-methylpropanoate
Formula: C20H21ClO4
Exact mass: 360.11284
SMILES: CC(C)OC(=O)C(C)(C)Oc1ccc(cc1)C(=O)c1ccc(Cl)cc1
InChI: InChI=1S/C20H21ClO4/c1-13(2)24-19(23)20(3,4)25-17-11-7-15(8-12-17)18(22)14-5-9-16(21)10-6-14/h5-13H,1-4H3
Instrument: Q Exactive Plus Orbitrap Thermo Scientific
Instrument type: LC-ESI-QFT
Ms type: MS2
Ion mode: POSITIVE
Ionization: ESI
Fragmentation mode: HCD
Collision energy: 35  (nominal)
Resolution: 35000
Column name: Kinetex C18 EVO 2.6 um, 2.1x50 mm, precolumn 2.1x5 mm, Phenomenex
Retention time: 13.657 min
Base peak: 361.1198
Precursor m/z: 361.1201
Precursor type: [M+H]+
m/z	relative intensity	assigned
59.0493	6	C3H7O+
65.0387	4	C5H5+
75.0231	1	C6H3+
86.9996	4	C4H4Cl+
87.044	6	C4H7O2+
93.0333	3	C6H5O+
110.9993	5	C6H4Cl+
111.0441	7	C6H7O2+
121.0284	456	C7H5O2+
129.0102	12	C6H6ClO+
138.9945	999	C7H4ClO+
233.0364	735	C13H10ClO2+
273.0676	5	C16H14ClO2+
319.073	5	C17H16ClO4+
361.1201	289	C20H22ClO4+
