Mass spectrum: Megestrol-17-acetate; LC-ESI-QFT; MS2; CE: 35 NCE; R=35000; [M+H]+
Name: Megestrol-17-acetate
Name: Megestrol acetate
Name: [(8R,9S,10R,13S,14S,17R)-17-acetyl-6,10,13-trimethyl-3-oxo-2,8,9,11,12,14,15,16-octahydro-1H-cyclopenta[a]phenanthren-17-yl] acetate
Formula: C24H32O4
Exact mass: 384.23006
SMILES: CC(=O)O[C@@]1(CC[C@H]2[C@@H]3C=C(C)C4=CC(=O)CC[C@]4(C)[C@H]3CC[C@]12C)C(C)=O
InChI: InChI=1S/C24H32O4/c1-14-12-18-19(22(4)9-6-17(27)13-21(14)22)7-10-23(5)20(18)8-11-24(23,15(2)25)28-16(3)26/h12-13,18-20H,6-11H2,1-5H3/t18-,19+,20+,22-,23+,24+/m1/s1
Instrument: Q Exactive Plus Orbitrap Thermo Scientific
Instrument type: LC-ESI-QFT
Ms type: MS2
Ion mode: POSITIVE
Ionization: ESI
Fragmentation mode: HCD
Collision energy: 35  (nominal)
Resolution: 35000
Column name: Kinetex C18 EVO 2.6 um, 2.1x50 mm, precolumn 2.1x5 mm, Phenomenex
Retention time: 12.354 min
Base peak: 385.2369
Precursor m/z: 385.2373
Precursor type: [M+H]+
m/z	relative intensity	assigned
55.0545	1	C4H7+
57.07	1	C4H9+
59.0493	3	C3H7O+
67.0543	4	C5H7+
69.0699	1	C5H9+
71.0492	1	C4H7O+
79.0543	5	C6H7+
81.0699	10	C6H9+
83.0491	19	C5H7O+
85.0648	6	C5H9O+
91.0543	4	C7H7+
93.0699	11	C7H9+
95.0855	9	C7H11+
97.0648	31	C6H9O+
99.0804	8	C6H11O+
105.0699	12	C8H9+
107.0855	15	C8H11+
109.0648	4	C7H9O+
109.1012	13	C8H13+
111.0804	4	C7H11O+
113.0598	1	C6H9O2+
117.0698	4	C9H9+
119.0855	14	C9H11+
121.0648	18	C8H9O+
121.1013	10	C9H13+
123.0805	6	C8H11O+
123.1166	1	C9H15+
128.0617	1	C10H8+
129.0696	5	C10H9+
131.0855	9	C10H11+
133.1011	36	C10H13+
135.0806	7	C9H11O+
135.1167	4	C10H15+
137.0961	7	C9H13O+
141.07	1	C11H9+
142.0777	5	C11H10+
143.0853	9	C11H11+
145.1011	23	C11H13+
147.0806	6	C10H11O+
147.1168	13	C11H15+
149.0961	7	C10H13O+
151.1118	8	C10H15O+
155.0855	10	C12H11+
156.0934	3	C12H12+
157.1012	27	C12H13+
159.0801	5	C11H11O+
159.1168	16	C12H15+
161.0961	32	C11H13O+
161.1324	2	C12H17+
162.1037	1	C11H14O+
163.1117	5	C11H15O+
165.1273	1	C11H17O+
167.0853	3	C13H11+
168.0934	1	C13H12+
169.1011	33	C13H13+
171.0805	4	C12H11O+
171.1167	28	C13H15+
173.0961	22	C12H13O+
173.1324	11	C13H17+
174.1041	1	C12H14O+
175.1117	65	C12H15O+
177.1271	1	C12H17O+
179.0853	5	C14H11+
180.0934	1	C14H12+
181.1012	9	C14H13+
182.1091	2	C14H14+
183.1168	62	C14H15+
185.0962	8	C13H13O+
185.1324	14	C14H17+
187.1117	59	C13H15O+
187.148	3	C14H19+
188.1201	2	C13H16O+
189.1273	15	C13H17O+
193.101	9	C15H13+
194.109	7	C15H14+
195.1168	17	C15H15+
196.1245	4	C15H16+
197.1325	33	C15H17+
198.1402	24	C15H18+
199.1115	1	C14H15O+
199.1482	16	C15H19+
200.1559	1	C15H20+
201.1273	4	C14H17O+
201.1634	1	C15H21+
206.1093	1	C16H14+
207.1167	10	C16H15+
208.1245	8	C16H16+
209.1324	139	C16H17+
210.1402	11	C16H18+
211.1117	4	C15H15O+
211.1481	59	C16H19+
212.1558	3	C16H20+
213.1272	7	C15H17O+
213.1637	6	C16H21+
215.1433	8	C15H19O+
219.1169	5	C17H15+
220.1247	1	C17H16+
221.1327	10	C17H17+
222.1399	7	C17H18+
223.1481	70	C17H19+
224.1559	319	C17H20+
225.1269	5	C16H17O+
225.1637	80	C17H21+
227.143	1	C16H19O+
229.159	3	C16H21O+
231.1384	1	C15H19O2+
232.125	1	C18H16+
233.1324	2	C18H17+
234.1405	16	C18H18+
235.1481	10	C18H19+
236.1562	1	C18H20+
237.127	5	C17H17O+
237.1637	21	C18H21+
239.1429	12	C17H19O+
239.1789	6	C18H23+
241.1587	34	C17H21O+
243.1743	7	C17H23O+
245.1322	1	C19H17+
247.1481	9	C19H19+
248.1561	1	C19H20+
249.1637	52	C19H21+
250.1713	5	C19H22+
251.143	6	C18H19O+
252.1513	3	C18H20O+
253.1586	6	C18H21O+
255.1743	42	C18H23O+
260.1562	1	C20H20+
263.1795	17	C20H23+
264.1873	7	C20H24+
265.1589	16	C19H21O+
265.1951	123	C20H25+
266.1668	2	C19H22O+
267.1743	401	C19H23O+
274.1716	1	C21H22+
281.19	44	C20H25O+
282.1978	141	C20H26O+
283.2057	43	C20H27O+
289.1949	13	C22H25+
292.1819	1	C21H24O+
295.1699	1	C20H23O2+
307.2057	52	C22H27O+
310.193	4	C21H26O2+
323.2008	1	C22H27O2+
325.2162	531	C22H29O2+
385.2373	999	C24H33O4+
