Mass spectrum: Daidzein; LC-ESI-QFT; MS2; CE: 35 NCE; R=35000; [M-H]-
Name: Daidzein
Name: 7-hydroxy-3-(4-hydroxyphenyl)chromen-4-one
Formula: C15H10O4
Exact mass: 254.05791
SMILES: OC1=CC=C(C=C1)C1=COC2=CC(O)=CC=C2C1=O
InChI: InChI=1S/C15H10O4/c16-10-3-1-9(2-4-10)13-8-19-14-7-11(17)5-6-12(14)15(13)18/h1-8,16-17H
Instrument: Q Exactive Plus Orbitrap Thermo Scientific
Instrument type: LC-ESI-QFT
Ms type: MS2
Ion mode: NEGATIVE
Ionization: ESI
Fragmentation mode: HCD
Collision energy: 35  (nominal)
Resolution: 35000
Column name: Kinetex C18 EVO 2.6 um, 2.1x50 mm, precolumn 2.1x5 mm, Phenomenex
Retention time: 9.231 min
Base peak: 253.0506
Precursor m/z: 253.0506
Precursor type: [M-H]-
m/z	relative intensity	assigned
132.0214	3	C8H4O2-
133.0293	10	C8H5O2-
135.0087	11	C7H3O3-
153.0191	1	C7H5O4-
160.0165	1	C9H4O3-
169.066	4	C12H9O-
180.0579	4	C13H8O-
181.0658	2	C13H9O-
183.0446	1	C12H7O2-
195.0454	2	C13H7O2-
196.053	6	C13H8O2-
197.0609	9	C13H9O2-
208.053	13	C14H8O2-
209.0607	19	C14H9O2-
210.032	1	C13H6O3-
211.04	1	C13H7O3-
223.0399	7	C14H7O3-
224.0479	25	C14H8O3-
225.0557	12	C14H9O3-
252.043	7	C15H8O4-
253.0506	999	C15H9O4-
