Mass spectrum: m-Xylene-4-sulfonic acid; LC-ESI-QFT; MS2; CE: 35 NCE; R=35000; [M-H]-
Name: m-Xylene-4-sulfonic acid
Name: 2,4-dimethylbenzenesulfonic acid
Formula: C8H10O3S
Exact mass: 186.03507
SMILES: Cc1ccc(c(c1)C)S(=O)(=O)O
InChI: InChI=1S/C8H10O3S/c1-6-3-4-8(7(2)5-6)12(9,10)11/h3-5H,1-2H3,(H,9,10,11)
Instrument: Q Exactive Plus Orbitrap Thermo Scientific
Instrument type: LC-ESI-QFT
Ms type: MS2
Ion mode: NEGATIVE
Ionization: ESI
Fragmentation mode: HCD
Collision energy: 35  (nominal)
Resolution: 35000
Column name: Kinetex C18 EVO 2.6 um, 2.1x50 mm, precolumn 2.1x5 mm, Phenomenex
Retention time: 7.209 min
Base peak: 185.0278
Precursor m/z: 185.0278
Precursor type: [M-H]-
m/z	relative intensity	assigned
185.0277	999	C8H9O3S-
