Mass spectrum: Aniline; LC-ESI-QFT; MS2; CE: 35 NCE; R=35000; [M+H]+
Name: Aniline
Name: Anilin
Formula: C6H7N
Exact mass: 93.05785
SMILES: NC1=CC=CC=C1
InChI: InChI=1S/C6H7N/c7-6-4-2-1-3-5-6/h1-5H,7H2
Instrument: Q Exactive Plus Orbitrap Thermo Scientific
Instrument type: LC-ESI-QFT
Ms type: MS2
Ion mode: POSITIVE
Ionization: ESI
Fragmentation mode: HCD
Collision energy: 35  (nominal)
Resolution: 35000
Column name: Kinetex C18 EVO 2.6 um, 2.1x50 mm, precolumn 2.1x5 mm, Phenomenex
Retention time: 0.461 min
Base peak: 112.0555
Precursor m/z: 94.0651
Precursor type: [M+H]+
m/z	relative intensity	assigned
51.0231	3	C4H3+
53.0388	34	C4H5+
55.018	1	C3H3O+
67.0543	2	C5H7+
77.0386	21	C6H5+
81.0335	5	C5H5O+
93.0573	5	C6H7N+
94.0651	999	C6H8N+
105.0447	24	C6H5N2+
