Mass spectrum: Losartan; LC-ESI-QFT; MS2; CE: 35 NCE; R=35000; [M+H]+
Name: Losartan
Name: [2-butyl-5-chloro-3-[[4-[2-(2H-tetrazol-5-yl)phenyl]phenyl]methyl]imidazol-4-yl]methanol
Formula: C22H23ClN6O
Exact mass: 422.16219
SMILES: CCCCC1=NC(Cl)=C(CO)N1Cc1ccc(-c2ccccc2C2=NNN=N2)cc1
InChI: InChI=1S/C22H23ClN6O/c1-2-3-8-20-24-21(23)19(14-30)29(20)13-15-9-11-16(12-10-15)17-6-4-5-7-18(17)22-25-27-28-26-22/h4-7,9-12,30H,2-3,8,13-14H2,1H3,(H,25,26,27,28)
Instrument: Q Exactive Plus Orbitrap Thermo Scientific
Instrument type: LC-ESI-QFT
Ms type: MS2
Ion mode: POSITIVE
Ionization: ESI
Fragmentation mode: HCD
Collision energy: 35  (nominal)
Resolution: 35000
Column name: Kinetex C18 EVO 2.6 um, 2.1x50 mm, precolumn 2.1x5 mm, Phenomenex
Retention time: 10.921 min
Base peak: 423.1695
Precursor m/z: 423.1695
Precursor type: [M+H]+
m/z	relative intensity	assigned
77.0388	1	C6H5+
79.0543	11	C6H7+
80.0495	14	C5H6N+
83.0856	1	C6H11+
95.0492	4	C6H7O+
102.0107	1	C4H5ClN+
108.0808	3	C7H10N+
115.0058	1	C4H4ClN2+
129.0215	5	C5H6ClN2+
129.0447	7	C8H5N2+
135.0917	7	C8H11N2+
140.0493	7	C10H6N+
142.0293	27	C6H7ClN2+
144.0575	1	C7H11ClN+
151.0546	1	C12H7+
152.0621	13	C12H8+
153.0699	27	C12H9+
154.0655	1	C11H8N+
163.0543	3	C13H7+
165.07	11	C13H9+
166.0652	3	C12H8N+
166.0778	3	C13H10+
167.073	12	C12H9N+
169.065	4	C12H9O+
171.0684	130	C8H12ClN2+
177.0575	1	C13H7N+
178.0653	16	C13H8N+
178.0777	11	C14H10+
179.0606	3	C12H7N2+
179.073	24	C13H9N+
179.0853	1	C14H11+
180.0809	232	C13H10N+
183.0683	1	C9H12ClN2+
189.0791	7	C8H14ClN2O+
190.0653	67	C14H8N+
191.0734	7	C14H9N+
192.0683	48	C13H8N2+
192.0809	79	C14H10N+
194.0601	10	C13H8NO+
195.0918	6	C13H11N2+
196.0758	31	C13H10NO+
205.0763	86	C14H9N2+
206.0841	188	C14H10N2+
207.0918	999	C14H11N2+
208.0759	15	C14H10NO+
214.065	9	C16H8N+
216.0807	6	C16H10N+
218.084	1	C15H10N2+
219.092	3	C15H11N2+
229.0763	1	C16H9N2+
231.0923	5	C16H11N2+
232.1	3	C16H12N2+
233.1079	1	C16H13N2+
235.098	67	C14H11N4+
241.0761	17	C17H9N2+
242.0836	7	C17H10N2+
243.0915	7	C17H11N2+
244.1005	1	C16H17Cl+
254.0606	1	C15H11ClN2+
257.0948	3	C17H11N3+
258.1029	51	C17H12N3+
259.0869	27	C14H14ClN3+
259.1105	3	C17H13N3+
267.1244	1	C12H18ClN5+
281.0951	13	C19H11N3+
282.1028	14	C19H12N3+
294.0794	7	C17H13ClN3+
295.0635	3	C17H12ClN2O+
295.1106	3	C20H13N3+
298.1217	8	C19H14N4+
299.1298	2	C19H15N4+
311.129	1	C20H15N4+
314.1654	1	C21H20N3+
324.1499	18	C22H18N3+
341.1764	43	C22H21N4+
342.1601	1	C22H20N3O+
362.1422	31	C22H21ClN3+
377.1532	227	C22H22ClN4+
380.1535	1	C22H23ClN3O+
405.1593	527	C22H22ClN6+
423.1698	118	C22H24ClN6O+
