Mass spectrum: Diflufenican; LC-ESI-QFT; MS2; CE: 35 NCE; R=35000; [M+H]+
Name: Diflufenican
Name: N-(2,4-difluorophenyl)-2-[3-(trifluoromethyl)phenoxy]pyridine-3-carboxamide
Formula: C19H11F5N2O2
Exact mass: 394.07407
SMILES: Fc1ccc(NC(=O)c2cccnc2Oc2cccc(c2)C(F)(F)F)c(F)c1
InChI: InChI=1S/C19H11F5N2O2/c20-12-6-7-16(15(21)10-12)26-17(27)14-5-2-8-25-18(14)28-13-4-1-3-11(9-13)19(22,23)24/h1-10H,(H,26,27)
Instrument: Q Exactive Plus Orbitrap Thermo Scientific
Instrument type: LC-ESI-QFT
Ms type: MS2
Ion mode: POSITIVE
Ionization: ESI
Fragmentation mode: HCD
Collision energy: 35  (nominal)
Resolution: 35000
Column name: Kinetex C18 EVO 2.6 um, 2.1x50 mm, precolumn 2.1x5 mm, Phenomenex
Retention time: 13.192 min
Base peak: 252.1414
Precursor m/z: 395.0813
Precursor type: [M+H]+
m/z	relative intensity	assigned
78.0339	2	C5H4N+
95.0128	1	C5H3O2+
96.0444	9	C5H6NO+
122.0238	2	C6H4NO2+
140.0347	3	C6H6NO3+
141.0572	2	C2H8F5N+
145.0261	1	C7H4F3+
158.0398	1	C10H5FN+
169.0522	13	C11H7NO+
172.037	1	C8H5F3N+
178.0273	2	C7H4F4N+
183.0416	32	C10H6F3+
185.051	3	C11H6FN2+
188.051	1	C11H7FNO+
190.0462	25	C11H6F2N+
191.0541	2	C11H7F2N+
196.0387	1	C4H7F5NO2+
197.0472	1	C12H7NO2+
198.0547	3	C4H9F5NO2+
210.0525	19	C11H7F3N+
213.0459	3	C12H6FN2O+
214.0487	3	C7H8F4NO2+
216.0457	2	C12H7FNO2+
218.0412	35	C12H6F2NO+
219.0489	16	C12H7F2NO+
233.0521	40	C12H7F2N2O+
238.0474	112	C12H7F3NO+
246.0361	165	C13H6F2NO2+
265.0548	9	C13H9F2NO3+
266.0423	999	C13H7F3NO2+
284.0529	67	C16H8F2NO2+
298.0684	4	C17H10F2NO2+
307.0683	3	C18H9F2N2O+
335.0625	11	C19H9F2N2O2+
355.069	6	C19H10F3N2O2+
357.0658	3	C16H10F5N2O2+
375.0753	19	C19H11F4N2O2+
377.0707	11	C19H10F5N2O+
395.0815	750	C19H12F5N2O2+
