Mass spectrum: Tri(butoxyethyl)phosphate; LC-ESI-QFT; MS2; CE: 35 NCE; R=35000; [M+H]+
Name: Tri(butoxyethyl)phosphate
Name: Tris(2-butoxyethyl) phosphate
Formula: C18H39O7P
Exact mass: 398.24334
SMILES: CCCCOCCOP(=O)(OCCOCCCC)OCCOCCCC
InChI: InChI=1S/C18H39O7P/c1-4-7-10-20-13-16-23-26(19,24-17-14-21-11-8-5-2)25-18-15-22-12-9-6-3/h4-18H2,1-3H3
Instrument: Q Exactive Plus Orbitrap Thermo Scientific
Instrument type: LC-ESI-QFT
Ms type: MS2
Ion mode: POSITIVE
Ionization: ESI
Fragmentation mode: HCD
Collision energy: 35  (nominal)
Resolution: 35000
Column name: Kinetex C18 EVO 2.6 um, 2.1x50 mm, precolumn 2.1x5 mm, Phenomenex
Retention time: 13.456 min
Base peak: 399.2502
Precursor m/z: 399.2506
Precursor type: [M+H]+
m/z	relative intensity	assigned
53.0388	12	C4H5+
55.0544	383	C4H7+
57.0701	999	C4H9+
59.0493	79	C3H7O+
83.0855	246	C6H11+
89.0598	9	C4H9O2+
98.9842	303	H4O4P+
101.0961	259	C6H13O+
124.9998	71	C2H6O4P+
143.0104	136	C2H8O5P+
145.1228	1	C8H17O2+
151.0157	2	C4H8O4P+
169.026	2	C4H10O5P+
199.073	652	C6H16O5P+
225.0886	21	C8H18O5P+
243.0993	20	C8H20O6P+
255.1358	4	C10H24O5P+
299.1619	949	C12H28O6P+
343.188	3	C14H32O7P+
399.2508	716	C18H40O7P+
