Mass spectrum: Diphenyl phosphate; LC-ESI-QFT; MS2; CE: 35 NCE; R=35000; [M+H]+
Name: Diphenyl phosphate
Name: diphenyl hydrogen phosphate
Formula: C12H11O4P
Exact mass: 250.03950
SMILES: OP(=O)(OC1=CC=CC=C1)OC1=CC=CC=C1
InChI: InChI=1S/C12H11O4P/c13-17(14,15-11-7-3-1-4-8-11)16-12-9-5-2-6-10-12/h1-10H,(H,13,14)
Instrument: Q Exactive Plus Orbitrap Thermo Scientific
Instrument type: LC-ESI-QFT
Ms type: MS2
Ion mode: POSITIVE
Ionization: ESI
Fragmentation mode: HCD
Collision energy: 35  (nominal)
Resolution: 35000
Column name: Kinetex C18 EVO 2.6 um, 2.1x50 mm, precolumn 2.1x5 mm, Phenomenex
Retention time: 11.185 min
Base peak: 279.0932
Precursor m/z: 251.0468
Precursor type: [M+H]+
m/z	relative intensity	assigned
50.0154	3	H5NP+
53.0388	35	C4H5+
55.0181	1	C3H3O+
60.081	1	C3H10N+
77.0386	71	C6H5+
81.0336	3	C5H5O+
81.0699	1	C6H9+
94.0413	10	C6H6O+
95.0492	195	C6H7O+
98.9842	2	H4O4P+
105.0448	45	C6H5N2+
109.0649	1	C7H9O+
129.0101	2	C5H6O2P+
151.0542	2	C12H7+
152.0621	89	C12H8+
153.0699	125	C12H9+
157.005	9	C6H6O3P+
168.0571	9	C12H8O+
169.0649	6	C12H9O+
171.0806	6	C12H11O+
175.0156	56	C6H8O4P+
179.0605	2	C12H7N2+
181.0762	1	C12H9N2+
215.0257	13	C12H8O2P+
233.0364	92	C12H10O3P+
251.0469	999	C12H12O4P+
