Mass spectrum: 4-Methylpyrimidine; LC-ESI-QFT; MS2; CE: 35 NCE; R=35000; [M+H]+
Name: 4-Methylpyrimidine
Name: 4-Methylpyrimidin
Formula: C5H6N2
Exact mass: 94.05310
SMILES: CC1=CC=NC=N1
InChI: InChI=1S/C5H6N2/c1-5-2-3-6-4-7-5/h2-4H,1H3
Instrument: Q Exactive Plus Orbitrap Thermo Scientific
Instrument type: LC-ESI-QFT
Ms type: MS2
Ion mode: POSITIVE
Ionization: ESI
Fragmentation mode: HCD
Collision energy: 35  (nominal)
Resolution: 35000
Column name: Kinetex C18 EVO 2.6 um, 2.1x50 mm, precolumn 2.1x5 mm, Phenomenex
Retention time: 0.936 min
Base peak: 117.0909
Precursor m/z: 95.0604
Precursor type: [M+H]+
m/z	relative intensity	assigned
67.0543	3	C5H7+
68.0495	30	C4H6N+
78.0338	3	C5H4N+
95.0603	999	C5H7N2+
