Mass spectrum: Fipronil desulfinyl; LC-ESI-QFT; MS2; CE: 35 NCE; R=35000; [M-H]-
Name: Fipronil desulfinyl
Name: 5-amino-1-[2,6-dichloro-4-(trifluoromethyl)phenyl]-4-(trifluoromethyl)pyrazole-3-carbonitrile
Formula: C12H4Cl2F6N4
Exact mass: 387.97172
SMILES: NC1=C(C(=NN1C1=C(Cl)C=C(C=C1Cl)C(F)(F)F)C#N)C(F)(F)F
InChI: InChI=1S/C12H4Cl2F6N4/c13-5-1-4(11(15,16)17)2-6(14)9(5)24-10(22)8(12(18,19)20)7(3-21)23-24/h1-2H,22H2
Instrument: Q Exactive Plus Orbitrap Thermo Scientific
Instrument type: LC-ESI-QFT
Ms type: MS2
Ion mode: NEGATIVE
Ionization: ESI
Fragmentation mode: HCD
Collision energy: 35  (nominal)
Resolution: 35000
Column name: Kinetex C18 EVO 2.6 um, 2.1x50 mm, precolumn 2.1x5 mm, Phenomenex
Retention time: 12.129 min
Base peak: 386.9645
Precursor m/z: 386.9644
Precursor type: [M-H]-
m/z	relative intensity	assigned
135.0112	8	C5FN4-
193.0019	1	C9F3N2-
203.9833	31	C8H2ClF3N-
227.0175	1	C11HF2N4-
228.9786	10	C9HClF3N2-
236.9849	14	C8H2ClF4N2-
243.9897	2	C9H2ClF3N3-
246.0157	1	C11HF3N4-
261.9809	6	C9HClF4N3-
274.9881	2	C10H2ClF4N3-
276.0062	3	C12F4N4-
278.9753	1	C10HClF5N2-
281.9926	144	C11H2ClF3N4-
295.0047	12	C12F5N4-
296.0125	5	C12HF5N4-
298.9816	2	C10H2ClF6N2-
305.9863	27	C11H2ClF5N3-
310.9752	9	C12ClF4N4-
316.019	8	C12H2F6N4-
324.9848	35	C11H2ClF6N3-
330.9817	48	C12HClF5N4-
349.9799	2	C12HClF6N4-
350.9878	999	C12H2ClF6N4-
386.9645	14	C12H3Cl2F6N4-
