Mass spectrum: Phthalamic acid; LC-ESI-QFT; MS2; CE: 35 NCE; R=35000; [M+H]+
Name: Phthalamic acid
Name: 2-carbamoylbenzoic acid
Formula: C8H7NO3
Exact mass: 165.04259
SMILES: NC(=O)C1=CC=CC=C1C(O)=O
InChI: InChI=1S/C8H7NO3/c9-7(10)5-3-1-2-4-6(5)8(11)12/h1-4H,(H2,9,10)(H,11,12)
Instrument: Q Exactive Plus Orbitrap Thermo Scientific
Instrument type: LC-ESI-QFT
Ms type: MS2
Ion mode: POSITIVE
Ionization: ESI
Fragmentation mode: HCD
Collision energy: 35  (nominal)
Resolution: 35000
Column name: Kinetex C18 EVO 2.6 um, 2.1x50 mm, precolumn 2.1x5 mm, Phenomenex
Retention time: 0.959 min
Base peak: 101.0709
Precursor m/z: 166.0499
Precursor type: [M+H]+
m/z	relative intensity	assigned
59.0493	1	C3H7O+
65.0386	5	C5H5+
72.0445	1	C3H6NO+
87.0441	9	C4H7O2+
93.0335	4	C6H5O+
111.0439	1	C6H7O2+
120.0444	2	C7H6NO+
121.0285	39	C7H5O2+
121.0397	5	C6H5N2O+
124.0393	1	C6H6NO2+
130.0288	21	C8H4NO+
138.0552	2	C7H8NO2+
148.0393	106	C8H6NO2+
149.0234	999	C8H5O3+
166.05	4	C8H8NO3+
