Mass spectrum: Epoxiconazole; LC-ESI-QFT; MS2; CE: 35 NCE; R=35000; [M+H]+
Name: Epoxiconazole
Name: 1-[[3-(2-chlorophenyl)-2-(4-fluorophenyl)oxiran-2-yl]methyl]-1,2,4-triazole
Formula: C17H13ClFN3O
Exact mass: 329.07312
SMILES: FC1=CC=C(C=C1)C1(CN2C=NC=N2)OC1C1=CC=CC=C1Cl
InChI: InChI=1S/C17H13ClFN3O/c18-15-4-2-1-3-14(15)16-17(23-16,9-22-11-20-10-21-22)12-5-7-13(19)8-6-12/h1-8,10-11,16H,9H2
Instrument: Q Exactive Plus Orbitrap Thermo Scientific
Instrument type: LC-ESI-QFT
Ms type: MS2
Ion mode: POSITIVE
Ionization: ESI
Fragmentation mode: HCD
Collision energy: 35  (nominal)
Resolution: 35000
Column name: Kinetex C18 EVO 2.6 um, 2.1x50 mm, precolumn 2.1x5 mm, Phenomenex
Retention time: 11.960 min
Base peak: 330.08
Precursor m/z: 330.0804
Precursor type: [M+H]+
m/z	relative intensity	assigned
70.04	99	C2H4N3+
75.023	5	C6H3+
77.0386	6	C6H5+
91.0542	13	C7H7+
95.029	2	C6H4F+
95.0491	3	C6H7O+
101.0385	7	C8H5+
109.0448	3	C7H6F+
113.0153	9	C6H6Cl+
113.0397	5	C6H6FO+
119.0491	10	C8H7O+
121.0448	999	C8H6F+
123.0241	269	C7H4FO+
129.0448	41	C8H5N2+
138.9944	13	C7H4ClO+
141.0101	92	C7H6ClO+
190.0776	1	C10H9FN3+
196.0686	1	C14H9F+
197.0761	1	C14H10F+
231.0373	1	C14H9ClF+
261.0483	2	C15H11ClFO+
274.0429	1	C15H10ClFNO+
330.0805	558	C17H14ClFN3O+
