Mass spectrum: Tetrabromobisphenol A; LC-ESI-QFT; MS2; CE: 35 NCE; R=35000; [M-H]-
Name: Tetrabromobisphenol A
Name: 2,6-dibromo-4-[2-(3,5-dibromo-4-hydroxyphenyl)propan-2-yl]phenol
Formula: C15H12Br4O2
Exact mass: 539.75708
SMILES: CC(C)(C1=CC(Br)=C(O)C(Br)=C1)C1=CC(Br)=C(O)C(Br)=C1
InChI: InChI=1S/C15H12Br4O2/c1-15(2,7-3-9(16)13(20)10(17)4-7)8-5-11(18)14(21)12(19)6-8/h3-6,20-21H,1-2H3
Instrument: Q Exactive Plus Orbitrap Thermo Scientific
Instrument type: LC-ESI-QFT
Ms type: MS2
Ion mode: NEGATIVE
Ionization: ESI
Fragmentation mode: HCD
Collision energy: 35  (nominal)
Resolution: 35000
Column name: Kinetex C18 EVO 2.6 um, 2.1x50 mm, precolumn 2.1x5 mm, Phenomenex
Retention time: 13.309 min
Base peak: 327.0444
Precursor m/z: 538.7498
Precursor type: [M-H]-
m/z	relative intensity	assigned
288.8874	99	C9H7Br2O-
366.8079	25	C8H6Br3N2-
444.8072	33	C14H8Br3O2-
538.7498	999	C15H11Br4O2-
