Mass spectrum: 4,4`-Thiodianiline; LC-ESI-QFT; MS2; CE: 35 NCE; R=35000; [M+H]+
Name: 4,4`-Thiodianiline
Name: 4-(4-aminophenyl)sulfanylaniline
Formula: C12H12N2S
Exact mass: 216.07212
SMILES: C1=CC(=CC=C1N)SC2=CC=C(C=C2)N
InChI: InChI=1S/C12H12N2S/c13-9-1-5-11(6-2-9)15-12-7-3-10(14)4-8-12/h1-8H,13-14H2
Instrument: Q Exactive Plus Orbitrap Thermo Scientific
Instrument type: LC-ESI-QFT
Ms type: MS2
Ion mode: POSITIVE
Ionization: ESI
Fragmentation mode: HCD
Collision energy: 35  (nominal)
Resolution: 35000
Column name: Kinetex C18 EVO 2.6 um, 2.1x50 mm, precolumn 2.1x5 mm, Phenomenex
Retention time: 2.623 min
Base peak: 217.079
Precursor m/z: 217.0794
Precursor type: [M+H]+
m/z	relative intensity	assigned
80.0494	17	C5H6N+
93.0572	15	C6H7N+
97.0107	1	C5H5S+
114.9841	1	C2HN3OS+
115.0542	1	C9H7+
124.0215	496	C6H6NS+
125.0295	1	C6H7NS+
129.0698	1	C10H9+
134.0183	1	C8H6S+
139.0541	6	C11H7+
156.0809	2	C11H10N+
159.0263	1	C10H7S+
166.065	1	C12H8N+
167.0729	23	C12H9N+
171.026	4	C11H7S+
173.0416	1	C11H9S+
183.0262	25	C12H7S+
184.0341	21	C12H8S+
187.0212	1	C11H7OS+
199.0449	59	C12H9NS+
200.0528	64	C12H10NS+
201.037	5	C12H9OS+
211.0323	9	C12H7N2S+
215.0634	1	C12H11N2S+
216.0718	33	C12H12N2S+
217.0793	999	C12H13N2S+
