Mass spectrum: Azathioprine; LC-ESI-QFT; MS2; CE: 35 NCE; R=35000; [M-H]-
Name: Azathioprine
Name: 6-(3-methyl-5-nitroimidazol-4-yl)sulfanyl-7H-purine
Formula: C9H7N7O2S
Exact mass: 277.03819
SMILES: CN1C=NC(=C1SC1=C2NC=NC2=NC=N1)[N+]([O-])=O
InChI: InChI=1S/C9H7N7O2S/c1-15-4-14-7(16(17)18)9(15)19-8-5-6(11-2-10-5)12-3-13-8/h2-4H,1H3,(H,10,11,12,13)
Instrument: Q Exactive Plus Orbitrap Thermo Scientific
Instrument type: LC-ESI-QFT
Ms type: MS2
Ion mode: NEGATIVE
Ionization: ESI
Fragmentation mode: HCD
Collision energy: 35  (nominal)
Resolution: 35000
Column name: Kinetex C18 EVO 2.6 um, 2.1x50 mm, precolumn 2.1x5 mm, Phenomenex
Retention time: 3.705 min
Base peak: 276.0309
Precursor m/z: 276.0309
Precursor type: [M-H]-
m/z	relative intensity	assigned
134.0232	27	C5H2N4O-
138.9843	4	C4HN3OS-
144.0315	7	C6H2N5-
158.003	326	C4H4N3O2S-
229.0299	11	C9H5N6S-
230.0374	8	C9H6N6S-
276.0309	999	C9H6N7O2S-
