Mass spectrum: Glibenclamide; LC-ESI-QFT; MS2; CE: 35 NCE; R=35000; [M+H]+
Name: Glibenclamide
Name: Glyburide
Name: 5-chloro-N-[2-[4-(cyclohexylcarbamoylsulfamoyl)phenyl]ethyl]-2-methoxybenzamide
Formula: C23H28ClN3O5S
Exact mass: 493.14382
SMILES: COC1=C(C=C(Cl)C=C1)C(=O)NCCC1=CC=C(C=C1)S(=O)(=O)NC(=O)NC1CCCCC1
InChI: InChI=1S/C23H28ClN3O5S/c1-32-21-12-9-17(24)15-20(21)22(28)25-14-13-16-7-10-19(11-8-16)33(30,31)27-23(29)26-18-5-3-2-4-6-18/h7-12,15,18H,2-6,13-14H2,1H3,(H,25,28)(H2,26,27,29)
Instrument: Q Exactive Plus Orbitrap Thermo Scientific
Instrument type: LC-ESI-QFT
Ms type: MS2
Ion mode: POSITIVE
Ionization: ESI
Fragmentation mode: HCD
Collision energy: 35  (nominal)
Resolution: 35000
Column name: Kinetex C18 EVO 2.6 um, 2.1x50 mm, precolumn 2.1x5 mm, Phenomenex
Retention time: 12.241 min
Base peak: 494.151
Precursor m/z: 494.1511
Precursor type: [M+H]+
m/z	relative intensity	assigned
53.0388	1	C4H5+
55.0544	2	C4H7+
77.0387	2	C6H5+
79.0543	1	C6H7+
83.0856	8	C6H11+
91.0542	5	C7H7+
95.0491	4	C6H7O+
100.1121	33	C6H14N+
103.0542	18	C8H7+
105.0699	16	C8H9+
107.0491	10	C7H7O+
113.0152	8	C6H6Cl+
119.0492	14	C8H7O+
120.0571	1	C8H8O+
121.0648	7	C8H9O+
125.9866	7	C6H3ClO+
129.0101	2	C6H6ClO+
131.0604	16	C8H7N2+
134.0361	4	C8H6O2+
134.0964	8	C9H12N+
138.023	3	C8H7Cl+
139.0056	5	C6H4ClN2+
139.0309	1	C8H8Cl+
141.0101	4	C7H6ClO+
153.9815	1	C7H3ClO2+
154.9897	3	C7H4ClO2+
165.07	1	C13H9+
166.026	1	C8H6O4+
166.0323	1	C8H8NOS+
167.0161	19	C8H7O2S+
168.021	7	C8H7ClNO+
169.0051	999	C8H6ClO2+
171.9921	3	C7H5ClO3+
195.0805	3	C14H11O+
196.0885	1	C14H12O+
198.032	14	C9H9ClNO2+
208.0883	4	C15H12O+
209.0962	3	C15H13O+
210.1038	10	C4H21ClN3O2S+
217.0411	2	C13H10ClO+
224.0829	2	C4H19ClN3O3S+
244.0526	3	C14H11ClNO+
245.0361	2	C14H10ClO2+
245.0735	3	C15H14ClO+
245.9987	2	C9H9ClNO3S+
259.0521	44	C15H12ClO2+
262.063	11	C14H13ClNO2+
271.0522	1	C16H12ClO2+
288.0786	21	C16H15ClNO2+
303.0656	1	C16H14ClNO3+
304.0736	104	C16H15ClNO3+
352.0416	4	C22H10NO2S+
369.0673	658	C16H18ClN2O4S+
370.0511	5	C16H17ClNO5S+
395.0465	42	C17H16ClN2O5S+
494.1522	8	C23H29ClN3O5S+
