Mass spectrum: 2,4-Dihydroxybenzophenone; LC-ESI-QFT; MS2; CE: 35 NCE; R=35000; [M-H]-
Name: 2,4-Dihydroxybenzophenone
Name: (2,4-dihydroxyphenyl)-phenylmethanone
Formula: C13H10O3
Exact mass: 214.06299
SMILES: OC1=CC(O)=C(C=C1)C(=O)C1=CC=CC=C1
InChI: InChI=1S/C13H10O3/c14-10-6-7-11(12(15)8-10)13(16)9-4-2-1-3-5-9/h1-8,14-15H
Instrument: Q Exactive Plus Orbitrap Thermo Scientific
Instrument type: LC-ESI-QFT
Ms type: MS2
Ion mode: NEGATIVE
Ionization: ESI
Fragmentation mode: HCD
Collision energy: 35  (nominal)
Resolution: 35000
Column name: Kinetex C18 EVO 2.6 um, 2.1x50 mm, precolumn 2.1x5 mm, Phenomenex
Retention time: 10.566 min
Base peak: 213.0556
Precursor m/z: 213.0557
Precursor type: [M-H]-
m/z	relative intensity	assigned
135.0086	262	C7H3O3-
141.0711	5	C11H9-
143.0502	5	C10H7O-
153.0193	44	C7H5O4-
154.0425	2	C11H6O-
167.0351	6	C8H7O4-
167.0501	1	C12H7O-
169.0659	118	C12H9O-
171.0451	7	C11H7O2-
213.0556	999	C13H9O3-
