Mass spectrum: Dydrogesterone; LC-ESI-QFT; MS2; CE: 35 NCE; R=35000; [M+H]+
Name: Dydrogesterone
Name: (8S,9R,10S,13S,14S,17S)-17-acetyl-10,13-dimethyl-1,2,8,9,11,12,14,15,16,17-decahydrocyclopenta[a]phenanthren-3-one
Formula: C21H28O2
Exact mass: 312.20893
SMILES: CC(=O)[C@H]1CC[C@H]2[C@@H]3C=CC4=CC(=O)CC[C@@]4(C)[C@@H]3CC[C@]12C
InChI: InChI=1S/C21H28O2/c1-13(22)17-6-7-18-16-5-4-14-12-15(23)8-10-20(14,2)19(16)9-11-21(17,18)3/h4-5,12,16-19H,6-11H2,1-3H3/t16-,17+,18-,19+,20+,21+/m0/s1
Instrument: Q Exactive Plus Orbitrap Thermo Scientific
Instrument type: LC-ESI-QFT
Ms type: MS2
Ion mode: POSITIVE
Ionization: ESI
Fragmentation mode: HCD
Collision energy: 35  (nominal)
Resolution: 35000
Column name: Kinetex C18 EVO 2.6 um, 2.1x50 mm, precolumn 2.1x5 mm, Phenomenex
Retention time: 12.127 min
Base peak: 313.2159
Precursor m/z: 313.2162
Precursor type: [M+H]+
m/z	relative intensity	assigned
55.018	2	C3H3O+
55.0544	6	C4H7+
59.0493	1	C3H7O+
67.0543	13	C5H7+
69.07	7	C5H9+
71.0492	27	C4H7O+
79.0542	16	C6H7+
81.0699	28	C6H9+
83.0492	27	C5H7O+
83.0855	2	C6H11+
85.0648	75	C5H9O+
91.0542	13	C7H7+
93.0699	32	C7H9+
95.0855	52	C7H11+
97.0648	74	C6H9O+
99.0441	10	C5H7O2+
99.0805	1	C6H11O+
105.0699	33	C8H9+
107.0491	11	C7H7O+
107.0855	30	C8H11+
109.0648	28	C7H9O+
109.1012	23	C8H13+
111.0804	7	C7H11O+
113.0596	1	C6H9O2+
113.0961	5	C7H13O+
117.0699	8	C9H9+
119.0856	37	C9H11+
121.0648	30	C8H9O+
121.1013	18	C9H13+
123.0805	22	C8H11O+
123.1168	3	C9H15+
125.096	3	C8H13O+
127.0755	9	C7H11O2+
128.0619	1	C10H8+
129.0699	14	C10H9+
131.0855	43	C10H11+
133.0648	13	C9H9O+
133.1012	39	C10H13+
135.0805	7	C9H11O+
135.1168	19	C10H15+
137.096	11	C9H13O+
141.0698	5	C11H9+
142.0777	6	C11H10+
143.0855	36	C11H11+
144.0931	1	C11H12+
145.0649	3	C10H9O+
145.1012	45	C11H13+
147.0804	23	C10H11O+
147.1168	21	C11H15+
149.0961	23	C10H13O+
149.1327	5	C11H17+
151.1119	7	C10H15O+
153.0691	1	C12H9+
155.0855	34	C12H11+
156.0932	4	C12H12+
157.1012	56	C12H13+
158.0729	1	C11H10O+
159.0805	9	C11H11O+
159.1169	56	C12H15+
160.088	1	C11H12O+
161.0961	41	C11H13O+
161.1324	7	C12H17+
162.1039	1	C11H14O+
163.1117	36	C11H15O+
165.0698	1	C13H9+
166.0778	3	C13H10+
167.0856	4	C13H11+
168.093	1	C13H12+
169.1012	30	C13H13+
170.1092	1	C13H14+
171.0804	25	C12H11O+
171.1168	48	C13H15+
173.0961	66	C12H13O+
173.1326	18	C13H17+
175.1118	49	C12H15O+
175.1484	5	C13H19+
177.1274	22	C12H17O+
179.0856	1	C14H11+
180.0929	1	C14H12+
181.1011	18	C14H13+
182.1089	4	C14H14+
183.1169	34	C14H15+
184.1245	1	C14H16+
185.0958	7	C13H13O+
185.1325	23	C14H17+
187.1116	15	C13H15O+
187.1482	20	C14H19+
189.1274	16	C13H17O+
189.1635	1	C14H21+
191.1431	3	C13H19O+
192.093	1	C15H12+
193.1012	5	C15H13+
194.1089	1	C15H14+
195.1168	31	C15H15+
195.1251	1	C11H17NO2+
196.1243	6	C15H16+
197.096	2	C14H13O+
197.1325	37	C15H17+
198.14	1	C15H18+
199.1118	40	C14H15O+
199.1483	15	C15H19+
201.1275	17	C14H17O+
201.1638	4	C15H21+
203.1432	5	C14H19O+
206.1086	2	C16H14+
207.1168	11	C16H15+
207.1387	1	C13H19O2+
208.1245	1	C16H16+
209.1324	18	C16H17+
210.1402	5	C16H18+
211.1117	13	C15H15O+
211.1481	58	C16H19+
212.1198	1	C15H16O+
213.1273	18	C15H17O+
213.1637	14	C16H21+
214.1354	1	C15H18O+
215.1433	11	C15H19O+
215.1795	7	C16H23+
217.1585	6	C15H21O+
220.125	1	C17H16+
221.1326	23	C17H17+
222.1404	4	C17H18+
223.1482	5	C17H19+
224.12	1	C16H16O+
225.1274	26	C16H17O+
225.1638	28	C17H21+
227.143	12	C16H19O+
227.1793	5	C17H23+
228.151	3	C16H20O+
229.1588	49	C16H21O+
231.1745	6	C16H23O+
234.1405	1	C18H18+
235.1481	14	C18H19+
237.1637	38	C18H21+
239.1431	37	C17H19O+
240.1511	1	C17H20O+
241.1584	1	C17H21O+
243.1745	11	C17H23O+
245.1906	1	C17H25O+
248.1552	1	C19H20+
249.1638	8	C19H21+
251.1795	23	C19H23+
252.187	6	C19H24+
253.159	10	C18H21O+
253.1951	64	C19H25+
255.1742	42	C18H23O+
265.1597	1	C19H21O+
267.1746	11	C19H23O+
267.2107	7	C20H27+
269.1901	41	C19H25O+
271.2057	33	C19H27O+
277.1952	46	C21H25+
280.1818	1	C20H24O+
285.2207	1	C20H29O+
295.2058	284	C21H27O+
298.1928	1	C20H26O2+
313.2162	999	C21H29O2+
