Mass spectrum: Theophylline; LC-ESI-QFT; MS2; CE: 35 NCE; R=35000; [M+H]+
Name: Theophylline
Name: 1,3-dimethyl-7H-purine-2,6-dione
Formula: C7H8N4O2
Exact mass: 180.06473
SMILES: CN1C2=C(NC=N2)C(=O)N(C)C1=O
InChI: InChI=1S/C7H8N4O2/c1-10-5-4(8-3-9-5)6(12)11(2)7(10)13/h3H,1-2H3,(H,8,9)
Instrument: Q Exactive Plus Orbitrap Thermo Scientific
Instrument type: LC-ESI-QFT
Ms type: MS2
Ion mode: POSITIVE
Ionization: ESI
Fragmentation mode: HCD
Collision energy: 35  (nominal)
Resolution: 35000
Column name: Kinetex C18 EVO 2.6 um, 2.1x50 mm, precolumn 2.1x5 mm, Phenomenex
Retention time: 2.237 min
Base peak: 114.0912
Precursor m/z: 181.072
Precursor type: [M+H]+
m/z	relative intensity	assigned
69.0448	18	C3H5N2+
83.0239	2	C3H3N2O+
93.0698	1	C7H9+
96.0556	43	C4H6N3+
97.0397	1	C4H5N2O+
108.0556	1	C5H6N3+
110.0714	2	C5H8N3+
124.0505	377	C5H6N3O+
137.0821	7	C6H9N4+
142.061	18	C5H8N3O2+
181.0719	999	C7H9N4O2+
