Mass spectrum: 2-Benzothiazolesulfonic acid; LC-ESI-QFT; MS2; CE: 35 NCE; R=35000; [M-H]-
Name: 2-Benzothiazolesulfonic acid
Name: Benzothiazole-2-sulfonic acid
Name: 1,3-benzothiazole-2-sulfonic acid
Formula: C7H5NO3S2
Exact mass: 214.97108
SMILES: OS(=O)(=O)C1=NC2=CC=CC=C2S1
InChI: InChI=1S/C7H5NO3S2/c9-13(10,11)7-8-5-3-1-2-4-6(5)12-7/h1-4H,(H,9,10,11)
Instrument: Q Exactive Plus Orbitrap Thermo Scientific
Instrument type: LC-ESI-QFT
Ms type: MS2
Ion mode: NEGATIVE
Ionization: ESI
Fragmentation mode: HCD
Collision energy: 35  (nominal)
Resolution: 35000
Column name: Kinetex C18 EVO 2.6 um, 2.1x50 mm, precolumn 2.1x5 mm, Phenomenex
Retention time: 6.986 min
Base peak: 213.9637
Precursor m/z: 213.9638
Precursor type: [M-H]-
m/z	relative intensity	assigned
134.0069	854	C7H4NS-
150.0019	155	C7H4NOS-
213.9638	999	C7H4NO3S2-
