Mass spectrum: Ketoprofen; LC-ESI-QFT; MS2; CE: 35 NCE; R=35000; [M+H]+
Name: Ketoprofen
Name: 2-(3-benzoylphenyl)propanoic acid
Formula: C16H14O3
Exact mass: 254.09429
SMILES: CC(C(O)=O)c1cccc(c1)C(=O)c1ccccc1
InChI: InChI=1S/C16H14O3/c1-11(16(18)19)13-8-5-9-14(10-13)15(17)12-6-3-2-4-7-12/h2-11H,1H3,(H,18,19)
Instrument: Q Exactive Plus Orbitrap Thermo Scientific
Instrument type: LC-ESI-QFT
Ms type: MS2
Ion mode: POSITIVE
Ionization: ESI
Fragmentation mode: HCD
Collision energy: 35  (nominal)
Resolution: 35000
Column name: Kinetex C18 EVO 2.6 um, 2.1x50 mm, precolumn 2.1x5 mm, Phenomenex
Retention time: 10.810 min
Base peak: 255.1011
Precursor m/z: 255.1016
Precursor type: [M+H]+
m/z	relative intensity	assigned
51.023	2	C4H3+
53.0388	3	C4H5+
77.0385	33	C6H5+
79.0542	2	C6H7+
81.0335	2	C5H5O+
91.054	2	C7H7+
93.0698	7	C7H9+
94.0412	3	C6H6O+
95.0491	52	C6H7O+
103.0541	35	C8H7+
105.0334	951	C7H5O+
107.049	1	C7H7O+
121.0647	12	C8H9O+
131.049	44	C9H7O+
149.0593	2	C9H9O2+
165.0696	3	C13H9+
166.0774	5	C13H10+
177.0545	126	C10H9O3+
179.0853	1	C14H11+
181.1009	5	C14H13+
191.0853	4	C15H11+
194.0725	93	C14H10O+
209.0959	999	C15H13O+
255.1013	337	C16H15O3+
