Mass spectrum: 9-Anthracenecarboxylic acid; LC-ESI-QFT; MS2; CE: 35 NCE; R=35000; [M-H]-
Name: 9-Anthracenecarboxylic acid
Name: Anthracene-9-carboxylic acid
Formula: C15H10O2
Exact mass: 222.06808
SMILES: OC(=O)C1=C2C=CC=CC2=CC2=CC=CC=C12
InChI: InChI=1S/C15H10O2/c16-15(17)14-12-7-3-1-5-10(12)9-11-6-2-4-8-13(11)14/h1-9H,(H,16,17)
Instrument: Q Exactive Plus Orbitrap Thermo Scientific
Instrument type: LC-ESI-QFT
Ms type: MS2
Ion mode: NEGATIVE
Ionization: ESI
Fragmentation mode: HCD
Collision energy: 35  (nominal)
Resolution: 35000
Column name: Kinetex C18 EVO 2.6 um, 2.1x50 mm, precolumn 2.1x5 mm, Phenomenex
Retention time: 11.007 min
Base peak: 91.0022
Precursor m/z: 221.0608
Precursor type: [M-H]-
m/z	relative intensity	assigned
177.071	999	C14H9-
193.0656	2	C14H9O-
221.0608	231	C15H9O2-
