Mass spectrum: 2,4,6-Trimethylpyridine; LC-ESI-QFT; MS2; CE: 35 NCE; R=35000; [M+H]+
Name: 2,4,6-Trimethylpyridine
Name: 2,4,6-trimethylpyridin
Formula: C8H11N
Exact mass: 121.08915
SMILES: CC1=CC(C)=NC(C)=C1
InChI: InChI=1S/C8H11N/c1-6-4-7(2)9-8(3)5-6/h4-5H,1-3H3
Instrument: Q Exactive Plus Orbitrap Thermo Scientific
Instrument type: LC-ESI-QFT
Ms type: MS2
Ion mode: POSITIVE
Ionization: ESI
Fragmentation mode: HCD
Collision energy: 35  (nominal)
Resolution: 35000
Column name: Kinetex C18 EVO 2.6 um, 2.1x50 mm, precolumn 2.1x5 mm, Phenomenex
Retention time: 0.493 min
Base peak: 122.0963
Precursor m/z: 122.0964
Precursor type: [M+H]+
m/z	relative intensity	assigned
79.0542	3	C6H7+
81.0699	2	C6H9+
106.065	1	C7H8N+
107.0728	2	C7H9N+
121.0887	1	C8H11N+
122.0964	999	C8H12N+
124.0756	1	C7H10NO+
