Mass spectrum: 4`-Aminoacetanilide; LC-ESI-QFT; MS2; CE: 35 NCE; R=35000; [M+H]+
Name: 4`-Aminoacetanilide
Name: N-(4-aminophenyl)acetamide
Formula: C8H10N2O
Exact mass: 150.07931
SMILES: CC(=O)Nc1ccc(N)cc1
InChI: InChI=1S/C8H10N2O/c1-6(11)10-8-4-2-7(9)3-5-8/h2-5H,9H2,1H3,(H,10,11)
Instrument: Q Exactive Plus Orbitrap Thermo Scientific
Instrument type: LC-ESI-QFT
Ms type: MS2
Ion mode: POSITIVE
Ionization: ESI
Fragmentation mode: HCD
Collision energy: 35  (nominal)
Resolution: 35000
Column name: Kinetex C18 EVO 2.6 um, 2.1x50 mm, precolumn 2.1x5 mm, Phenomenex
Retention time: 0.469 min
Base peak: 189.1595
Precursor m/z: 151.0866
Precursor type: [M+H]+
m/z	relative intensity	assigned
65.0386	3	C5H5+
80.0495	1	C5H6N+
82.0651	3	C5H8N+
92.0495	76	C6H6N+
93.0572	3	C6H7N+
106.0651	5	C7H8N+
108.0682	20	C6H8N2+
109.076	761	C6H9N2+
110.06	32	C6H8NO+
133.076	52	C8H9N2+
134.0601	1	C8H8NO+
151.0865	999	C8H11N2O+
