Mass spectrum: Tris(2-chloroethyl)phosphate; LC-ESI-QFT; MS2; CE: 35 NCE; R=35000; [M+H]+
Name: Tris(2-chloroethyl)phosphate
Formula: C6H12Cl3O4P
Exact mass: 283.95388
SMILES: ClCCOP(=O)(OCCCl)OCCCl
InChI: InChI=1S/C6H12Cl3O4P/c7-1-4-11-14(10,12-5-2-8)13-6-3-9/h1-6H2
Instrument: Q Exactive Plus Orbitrap Thermo Scientific
Instrument type: LC-ESI-QFT
Ms type: MS2
Ion mode: POSITIVE
Ionization: ESI
Fragmentation mode: HCD
Collision energy: 35  (nominal)
Resolution: 35000
Column name: Kinetex C18 EVO 2.6 um, 2.1x50 mm, precolumn 2.1x5 mm, Phenomenex
Retention time: 9.087 min
Base peak: 284.961
Precursor m/z: 284.9612
Precursor type: [M+H]+
m/z	relative intensity	assigned
59.0493	1	C3H7O+
62.9997	999	C2H4Cl+
80.9737	3	H2O3P+
98.9842	828	H4O4P+
116.9503	2	ClH3O3P+
116.9947	2	CH6ClO4+
124.9998	397	C2H6O4P+
131.0105	1	C2H8ClO4+
160.9764	450	C2H7ClO4P+
186.9921	95	C4H9ClO4P+
222.9688	508	C4H10Cl2O4P+
248.9844	5	C6H12Cl2O4P+
284.9612	782	C6H13Cl3O4P+
