Mass spectrum: 5-Methyl-1-(propan-2-yl)-1H-indole-2,3dione; LC-ESI-QFT; MS2; CE: 35 NCE; R=35000; [M+H]+
Name: 5-Methyl-1-(propan-2-yl)-1H-indole-2,3dione
Name: F1707-0083
Name: 5-methyl-1-propan-2-ylindole-2,3-dione
Formula: C12H13NO2
Exact mass: 203.09463
SMILES: CC(C)N1C(=O)C(=O)C2=CC(C)=CC=C12
InChI: InChI=1S/C12H13NO2/c1-7(2)13-10-5-4-8(3)6-9(10)11(14)12(13)15/h4-7H,1-3H3
Instrument: Q Exactive Plus Orbitrap Thermo Scientific
Instrument type: LC-ESI-QFT
Ms type: MS2
Ion mode: POSITIVE
Ionization: ESI
Fragmentation mode: HCD
Collision energy: 35  (nominal)
Resolution: 35000
Column name: Kinetex C18 EVO 2.6 um, 2.1x50 mm, precolumn 2.1x5 mm, Phenomenex
Retention time: 9.756 min
Base peak: 204.1018
Precursor m/z: 204.1019
Precursor type: [M+H]+
m/z	relative intensity	assigned
79.0542	2	C6H7+
89.0387	1	C7H5+
91.0542	3	C7H7+
106.0651	16	C7H8N+
116.0494	4	C8H6N+
134.06	9	C8H8NO+
144.0444	17	C9H6NO+
144.0552	1	C8H6N3+
162.0549	999	C9H8NO2+
180.0655	1	C9H10NO3+
194.0812	1	C10H12NO3+
204.1019	253	C12H14NO2+
