Mass spectrum: Methyl pyrazine 2-carboxylate; LC-ESI-QFT; MS2; CE: 35 NCE; R=35000; [M+H]+
Name: Methyl pyrazine 2-carboxylate
Name: Methyl pyrazine-2-carboxylate
Formula: C6H6N2O2
Exact mass: 138.04293
SMILES: COC(=O)C1=CN=CC=N1
InChI: InChI=1S/C6H6N2O2/c1-10-6(9)5-4-7-2-3-8-5/h2-4H,1H3
Instrument: Q Exactive Plus Orbitrap Thermo Scientific
Instrument type: LC-ESI-QFT
Ms type: MS2
Ion mode: POSITIVE
Ionization: ESI
Fragmentation mode: HCD
Collision energy: 35  (nominal)
Resolution: 35000
Column name: Kinetex C18 EVO 2.6 um, 2.1x50 mm, precolumn 2.1x5 mm, Phenomenex
Retention time: 1.389 min
Base peak: 139.0499
Precursor m/z: 139.0502
Precursor type: [M+H]+
m/z	relative intensity	assigned
52.0183	12	C3H2N+
67.0542	1	C5H7+
69.0335	5	C4H5O+
69.0447	1	C3H5N2+
79.029	94	C4H3N2+
81.0334	7	C5H5O+
81.0446	14	C4H5N2+
83.0491	3	C5H7O+
95.0491	3	C6H7O+
97.0395	999	C4H5N2O+
99.0438	2	C5H7O2+
107.0239	62	C5H3N2O+
111.044	1	C6H7O2+
111.0552	5	C5H7N2O+
121.0397	1	C6H5N2O+
125.0344	996	C5H5N2O2+
127.0387	3	C6H7O3+
139.05	301	C6H7N2O2+
