Mass spectrum: Benzylidenacetone; LC-ESI-QFT; MS2; CE: 35 NCE; R=35000; [M+H]+
Name: Benzylidenacetone
Name: 4-Phenyl-but-3-en-2-one
Name: 4-phenylbut-3-en-2-one
Formula: C10H10O
Exact mass: 146.07316
SMILES: CC(=O)C=CC1=CC=CC=C1
InChI: InChI=1S/C10H10O/c1-9(11)7-8-10-5-3-2-4-6-10/h2-8H,1H3
Instrument: Q Exactive Plus Orbitrap Thermo Scientific
Instrument type: LC-ESI-QFT
Ms type: MS2
Ion mode: POSITIVE
Ionization: ESI
Fragmentation mode: HCD
Collision energy: 35  (nominal)
Resolution: 35000
Column name: Kinetex C18 EVO 2.6 um, 2.1x50 mm, precolumn 2.1x5 mm, Phenomenex
Retention time: 9.203 min
Base peak: 147.0802
Precursor m/z: 147.0804
Precursor type: [M+H]+
m/z	relative intensity	assigned
69.0335	6	C4H5O+
79.0542	1	C6H7+
91.0542	25	C7H7+
103.0542	10	C8H7+
105.0334	1	C7H5O+
105.0698	5	C8H9+
107.049	4	C7H7O+
115.0541	1	C9H7+
117.0699	6	C9H9+
119.049	1	C8H7O+
119.0855	22	C9H11+
127.0543	3	C10H7+
128.062	78	C10H8+
129.0698	900	C10H9+
132.0571	2	C9H8O+
145.0647	8	C10H9O+
147.0803	999	C10H11O+
155.0603	9	C10H7N2+
