Mass spectrum: Tris(1,3-dichlorisopropyl)phosphate (TDCPP); LC-ESI-QFT; MS2; CE: 35 NCE; R=35000; [M+H]+
Name: Tris(1,3-dichlorisopropyl)phosphate (TDCPP)
Name: TDCPP
Name: Tris(1,3-dichloropropan-2-yl) phosphate
Formula: C9H15Cl6O4P
Exact mass: 427.88391
SMILES: O=P(OC(CCl)CCl)(OC(CCl)CCl)OC(CCl)CCl
InChI: InChI=1S/C9H15Cl6O4P/c10-1-7(2-11)17-20(16,18-8(3-12)4-13)19-9(5-14)6-15/h7-9H,1-6H2
Instrument: Q Exactive Plus Orbitrap Thermo Scientific
Instrument type: LC-ESI-QFT
Ms type: MS2
Ion mode: POSITIVE
Ionization: ESI
Fragmentation mode: HCD
Collision energy: 35  (nominal)
Resolution: 35000
Column name: Kinetex C18 EVO 2.6 um, 2.1x50 mm, precolumn 2.1x5 mm, Phenomenex
Retention time: 12.553 min
Base peak: 164.9844
Precursor m/z: 428.8912
Precursor type: [M+H]+
m/z	relative intensity	assigned
74.9997	130	C3H4Cl+
80.9737	1	CH2ClO2+
98.9843	999	H4O4P+
116.9948	3	CH6ClO4+
131.0105	6	C2H8ClO4+
136.9998	3	C3H6O4P+
172.9769	4	C4H7Cl2O3+
180.0809	2	C9H13N2P+
208.9534	200	C4H8Cl3O3+
240.9797	2	C5H12Cl3O4+
318.9226	201	C7H12Cl5O3+
428.8919	56	C9H16Cl6O4P+
