Mass spectrum: Pirimicarb; LC-ESI-QFT; MS2; CE: 35 NCE; R=35000; [M+H]+
Name: Pirimicarb
Name: [2-(dimethylamino)-5,6-dimethylpyrimidin-4-yl] N,N-dimethylcarbamate
Formula: C11H18N4O2
Exact mass: 238.14298
SMILES: CN(C)C(=O)Oc1nc(nc(C)c1C)N(C)C
InChI: InChI=1S/C11H18N4O2/c1-7-8(2)12-10(14(3)4)13-9(7)17-11(16)15(5)6/h1-6H3
Instrument: Q Exactive Plus Orbitrap Thermo Scientific
Instrument type: LC-ESI-QFT
Ms type: MS2
Ion mode: POSITIVE
Ionization: ESI
Fragmentation mode: HCD
Collision energy: 35  (nominal)
Resolution: 35000
Column name: Kinetex C18 EVO 2.6 um, 2.1x50 mm, precolumn 2.1x5 mm, Phenomenex
Retention time: 6.530 min
Base peak: 239.1499
Precursor m/z: 239.1503
Precursor type: [M+H]+
m/z	relative intensity	assigned
56.0132	3	C2H2NO+
72.0445	999	C3H6NO+
83.024	5	C3H3N2O+
85.076	46	C4H9N2+
109.0761	21	C6H9N2+
137.0709	34	C7H9N2O+
138.0788	6	C7H10N2O+
150.1026	23	C8H12N3+
152.0819	2	C7H10N3O+
166.0975	4	C8H12N3O+
167.1054	9	C8H13N3O+
182.1289	527	C9H16N3O+
195.1605	43	C10H19N4+
239.1503	590	C11H19N4O2+
