Mass spectrum: Monoisobutyl phthalate; LC-ESI-QFT; MS2; CE: 35 NCE; R=35000; [M+H]+
Name: Monoisobutyl phthalate
Name: Isobutyl hydrogen phthalate
Name: 2-(2-methylpropoxycarbonyl)benzoic acid
Formula: C12H14O4
Exact mass: 222.08921
SMILES: CC(C)COC(=O)C1=CC=CC=C1C(O)=O
InChI: InChI=1S/C12H14O4/c1-8(2)7-16-12(15)10-6-4-3-5-9(10)11(13)14/h3-6,8H,7H2,1-2H3,(H,13,14)
Instrument: Q Exactive Plus Orbitrap Thermo Scientific
Instrument type: LC-ESI-QFT
Ms type: MS2
Ion mode: POSITIVE
Ionization: ESI
Fragmentation mode: HCD
Collision energy: 35  (nominal)
Resolution: 35000
Column name: Kinetex C18 EVO 2.6 um, 2.1x50 mm, precolumn 2.1x5 mm, Phenomenex
Retention time: 10.332 min
Base peak: 223.0963
Precursor m/z: 223.0965
Precursor type: [M+H]+
m/z	relative intensity	assigned
57.0701	51	C4H9+
65.0386	3	C5H5+
93.0335	2	C6H5O+
121.0285	25	C7H5O2+
121.0396	3	C6H5N2O+
149.0234	999	C8H5O3+
163.039	14	C9H7O3+
167.034	16	C8H7O4+
181.0496	13	C9H9O4+
