Mass spectrum: Ethion; LC-ESI-QFT; MS2; CE: 35 NCE; R=35000; [M+H]+
Name: Ethion
Name: diethoxyphosphinothioylsulfanylmethylsulfanyl-diethoxy-sulfanylidene-$l^{5}-phosphane
Formula: C9H22O4P2S4
Exact mass: 383.98762
SMILES: CCOP(=S)(OCC)SCSP(=S)(OCC)OCC
InChI: InChI=1S/C9H22O4P2S4/c1-5-10-14(16,11-6-2)18-9-19-15(17,12-7-3)13-8-4/h5-9H2,1-4H3
Instrument: Q Exactive Plus Orbitrap Thermo Scientific
Instrument type: LC-ESI-QFT
Ms type: MS2
Ion mode: POSITIVE
Ionization: ESI
Fragmentation mode: HCD
Collision energy: 35  (nominal)
Resolution: 35000
Column name: Kinetex C18 EVO 2.6 um, 2.1x50 mm, precolumn 2.1x5 mm, Phenomenex
Retention time: 13.793 min
Base peak: 384.9946
Precursor m/z: 384.9949
Precursor type: [M+H]+
m/z	relative intensity	assigned
63.0265	4	C2H7S+
64.979	5	H2O2P+
75.0263	19	C3H7S+
78.9402	1	OPS+
78.9671	2	CH3S2+
96.9508	138	H2O2PS+
110.9664	16	CH4O2PS+
112.9998	4	CH6O4P+
114.9613	691	H4O3PS+
115.9677	1	C2N2O2S+
124.9821	28	C2H6O2PS+
126.9436	25	CH4OPS2+
128.9228	12	H2O2PS2+
128.977	50	CH6O3PS+
132.9717	1	H6O4PS+
140.9595	1	C2H6OPS2+
142.9385	999	CH4O2PS2+
153.0133	36	C4H10O2PS+
154.9748	19	C3H8OPS2+
156.9541	6	C2H6O2PS2+
157.0085	6	C3H10O3PS+
158.9698	9	C2H8O2PS2+
170.9698	502	C3H8O2PS2+
171.0239	135	C4H12O3PS+
174.9105	16	CH4O2PS3+
174.9644	1	C2H8O3PS2+
184.9854	7	C4H10O2PS2+
185.0396	20	C5H14O3PS+
187.001	4	C4H12O2PS2+
199.0011	912	C5H12O2PS2+
202.9415	8	C3H8O2PS3+
215.0324	96	C6H16O2PS2+
230.9732	57	C5H12O2PS3+
276.9878	1	C6H15O4P2S2+
292.9652	6	C6H15O3P2S3+
338.9536	1	C7H17O3P2S4+
339.0076	11	C8H21O4P2S3+
384.9949	4	C9H23O4P2S4+
