Mass spectrum: N-Acetyl Mesalazine; LC-ESI-QFT; MS2; CE: 35 NCE; R=35000; [M-H]-
Name: N-Acetyl Mesalazine
Name: 5-Acetamidosalicylic acid
Name: 5-acetamido-2-hydroxybenzoic acid
Formula: C9H9NO4
Exact mass: 195.05316
SMILES: CC(=O)NC1=CC=C(O)C(=C1)C(O)=O
InChI: InChI=1S/C9H9NO4/c1-5(11)10-6-2-3-8(12)7(4-6)9(13)14/h2-4,12H,1H3,(H,10,11)(H,13,14)
Instrument: Q Exactive Plus Orbitrap Thermo Scientific
Instrument type: LC-ESI-QFT
Ms type: MS2
Ion mode: NEGATIVE
Ionization: ESI
Fragmentation mode: HCD
Collision energy: 35  (nominal)
Resolution: 35000
Column name: Kinetex C18 EVO 2.6 um, 2.1x50 mm, precolumn 2.1x5 mm, Phenomenex
Retention time: 3.869 min
Base peak: 194.0459
Precursor m/z: 194.0459
Precursor type: [M-H]-
m/z	relative intensity	assigned
132.0454	6	C8H6NO-
134.0245	2	C7H4NO2-
149.0483	2	C8H7NO2-
150.056	999	C8H8NO2-
194.0459	368	C9H8NO4-
