Mass spectrum: Propanil; LC-ESI-QFT; MS2; CE: 35 NCE; R=35000; [M+H]+
Name: Propanil
Name: N-(3,4-dichlorophenyl)propanamide
Formula: C9H9Cl2NO
Exact mass: 217.00612
SMILES: CCC(=O)Nc1ccc(Cl)c(Cl)c1
InChI: InChI=1S/C9H9Cl2NO/c1-2-9(13)12-6-3-4-7(10)8(11)5-6/h3-5H,2H2,1H3,(H,12,13)
Instrument: Q Exactive Plus Orbitrap Thermo Scientific
Instrument type: LC-ESI-QFT
Ms type: MS2
Ion mode: POSITIVE
Ionization: ESI
Fragmentation mode: HCD
Collision energy: 35  (nominal)
Resolution: 35000
Column name: Kinetex C18 EVO 2.6 um, 2.1x50 mm, precolumn 2.1x5 mm, Phenomenex
Retention time: 10.816 min
Base peak: 318.0129
Precursor m/z: 218.0134
Precursor type: [M+H]+
m/z	relative intensity	assigned
57.0336	63	C3H5O+
126.0105	1	C6H5ClN+
127.0183	414	C6H6ClN+
161.9871	999	C6H6Cl2N+
200.003	1	C9H8Cl2N+
218.0134	907	C9H10Cl2NO+
