Mass spectrum: Celecoxib; LC-ESI-QFT; MS2; CE: 35 NCE; R=35000; [M+H]+
Name: Celecoxib
Name: 4-[5-(4-methylphenyl)-3-(trifluoromethyl)pyrazol-1-yl]benzenesulfonamide
Formula: C17H14F3N3O2S
Exact mass: 381.07588
SMILES: CC1=CC=C(C=C1)C1=CC(=NN1C1=CC=C(C=C1)S(N)(=O)=O)C(F)(F)F
InChI: InChI=1S/C17H14F3N3O2S/c1-11-2-4-12(5-3-11)15-10-16(17(18,19)20)22-23(15)13-6-8-14(9-7-13)26(21,24)25/h2-10H,1H3,(H2,21,24,25)
Instrument: Q Exactive Plus Orbitrap Thermo Scientific
Instrument type: LC-ESI-QFT
Ms type: MS2
Ion mode: POSITIVE
Ionization: ESI
Fragmentation mode: HCD
Collision energy: 35  (nominal)
Resolution: 35000
Column name: Kinetex C18 EVO 2.6 um, 2.1x50 mm, precolumn 2.1x5 mm, Phenomenex
Retention time: 12.089 min
Base peak: 552.1908
Precursor m/z: 382.0832
Precursor type: [M+H]+
m/z	relative intensity	assigned
65.0387	1	C5H5+
79.9801	5	H2NO2S+
91.0542	5	C7H7+
105.0699	1	C8H9+
108.0443	1	C6H6NO+
109.0284	1	C6H5O2+
115.0543	7	C9H7+
116.0621	5	C9H8+
117.0573	1	C8H7N+
117.0699	12	C9H9+
118.0652	5	C8H8N+
130.0651	2	C9H8N+
131.073	5	C9H9N+
138.9847	1	C6H3O2S+
153.051	2	C9H7F2+
160.0557	1	C10H7FN+
165.0384	8	C9H5F2N+
166.0462	1	C9H6F2N+
180.062	4	C10H8F2N+
182.0413	1	C9H6F2NO+
184.0176	3	C6H6N3O2S+
184.0366	3	C6H10F2O2S+
185.0448	3	C9H6F3N+
187.0478	1	C8H6F3N2+
193.0887	3	C14H11N+
201.0635	1	C9H8F3N2+
204.0811	1	C15H10N+
205.0888	1	C15H11N+
206.0965	6	C15H12N+
207.1042	16	C15H13N+
208.1122	3	C15H14N+
221.0191	4	C7H7F2N2O2S+
231.0916	4	C16H11N2+
232.0995	4	C16H12N2+
233.1073	18	C16H13N2+
235.078	2	C8H14FN3O2S+
236.0865	2	C8H15FN3O2S+
242.0837	1	C17H10N2+
243.0918	1	C17H11N2+
247.0667	3	C16H8FN2+
254.0776	2	C16H10F2N+
255.0727	4	C15H9F2N2+
255.0858	1	C16H11F2N+
256.0932	1	C16H12F2N+
260.0739	1	C14H14NO2S+
261.0822	12	C17H10FN2+
262.09	8	C17H11FN2+
263.0979	17	C17H12FN2+
267.0729	22	C16H9F2N2+
272.0617	2	C17H7FN3+
273.0683	1	C14H13N2O2S+
275.079	7	C15H10F3N2+
279.0924	2	C17H12FN2O+
280.0811	3	C17H10F2N2+
281.0886	50	C17H11F2N2+
282.0964	68	C17H12F2N2+
283.1042	31	C17H13F2N2+
286.072	1	C16H9F3N2+
287.079	20	C16H10F3N2+
294.0794	1	C17H11FN2O2+
299.0987	2	C17H13F2N2O+
300.0871	47	C17H11F3N2+
301.0948	56	C17H12F3N2+
302.1025	44	C17H13F3N2+
303.1104	71	C17H14F3N2+
310.0646	1	C16H12N3O2S+
311.0725	2	C16H13N3O2S+
312.0709	1	C17H10F2N2O2+
313.1139	1	C16H13F2N5+
314.086	7	C17H12F2N2O2+
314.123	2	C13H15F3N5O+
315.1298	3	C16H15F2N5+
317.0901	4	C17H12F3N2O+
332.0767	27	C17H11F3N2O2+
334.0923	3	C17H13F3N2O2+
342.0709	10	C17H13FN3O2S+
362.077	170	C17H14F2N3O2S+
365.0567	1	C17H12F3N2O2S+
382.0832	999	C17H15F3N3O2S+
