Mass spectrum: N,N-Dimethyldodecylamine N-oxide; LC-ESI-QFT; MS2; CE: 35 NCE; R=35000; [M+H]+
Name: N,N-Dimethyldodecylamine N-oxide
Name: Lauramine oxide
Name: N,N-dimethyldodecan-1-amine oxide
Formula: C14H31NO
Exact mass: 229.24056
SMILES: CCCCCCCCCCCC[N+](C)(C)[O-]
InChI: InChI=1S/C14H31NO/c1-4-5-6-7-8-9-10-11-12-13-14-15(2,3)16/h4-14H2,1-3H3
Instrument: Q Exactive Plus Orbitrap Thermo Scientific
Instrument type: LC-ESI-QFT
Ms type: MS2
Ion mode: POSITIVE
Ionization: ESI
Fragmentation mode: HCD
Collision energy: 35  (nominal)
Resolution: 35000
Column name: Kinetex C18 EVO 2.6 um, 2.1x50 mm, precolumn 2.1x5 mm, Phenomenex
Retention time: 10.848 min
Base peak: 230.2476
Precursor m/z: 230.2478
Precursor type: [M+H]+
m/z	relative intensity	assigned
57.0701	29	C4H9+
58.0653	505	C3H8N+
62.0602	63	C2H8NO+
69.07	1	C5H9+
71.0856	18	C5H11+
83.0855	1	C6H11+
85.1012	7	C6H13+
212.2373	38	C14H30N+
213.2447	1	C14H31N+
230.2479	999	C14H32NO+
