Mass spectrum: Estrone-3-(beta-D-glucuronide); LC-ESI-QFT; MS2; CE: 35 NCE; R=35000; [M-H]-
Name: Estrone-3-(beta-D-glucuronide)
Name: Estrone glucuronide
Name: (2S,3S,4S,5R,6S)-3,4,5-trihydroxy-6-[[(8R,9S,13S,14S)-13-methyl-17-oxo-7,8,9,11,12,14,15,16-octahydro-6H-cyclopenta[a]phenanthren-3-yl]oxy]oxane-2-carboxylic acid
Formula: C24H30O8
Exact mass: 446.19407
SMILES: C[C@]12CC[C@H]3[C@@H](CCC4=C3C=CC(O[C@@H]3O[C@@H]([C@@H](O)[C@H](O)[C@H]3O)C(O)=O)=C4)[C@@H]1CCC2=O
InChI: InChI=1S/C24H30O8/c1-24-9-8-14-13-5-3-12(10-11(13)2-4-15(14)16(24)6-7-17(24)25)31-23-20(28)18(26)19(27)21(32-23)22(29)30/h3,5,10,14-16,18-21,23,26-28H,2,4,6-9H2,1H3,(H,29,30)/t14-,15-,16+,18+,19+,20-,21+,23-,24+/m1/s1
Instrument: Q Exactive Plus Orbitrap Thermo Scientific
Instrument type: LC-ESI-QFT
Ms type: MS2
Ion mode: NEGATIVE
Ionization: ESI
Fragmentation mode: HCD
Collision energy: 35  (nominal)
Resolution: 35000
Column name: Kinetex C18 EVO 2.6 um, 2.1x50 mm, precolumn 2.1x5 mm, Phenomenex
Retention time: 10.067 min
Base peak: 445.1866
Precursor m/z: 445.1868
Precursor type: [M-H]-
m/z	relative intensity	assigned
129.019	33	C5H5O4-
145.0658	8	C10H9O-
157.014	11	C6H5O5-
161.0243	2	C9H5O3-
175.0248	135	C6H7O6-
269.1547	603	C18H21O2-
427.1762	7	C24H27O7-
445.1867	999	C24H29O8-
