Mass spectrum: N-Phenyl-2-naphthylamine; LC-ESI-QFT; MS2; CE: 35 NCE; R=35000; [M+H]+
Name: N-Phenyl-2-naphthylamine
Name: N-Phenylnaphthalen-2-amine
Formula: C16H13N
Exact mass: 219.10480
SMILES: N(C1=CC=CC=C1)C1=CC2=CC=CC=C2C=C1
InChI: InChI=1S/C16H13N/c1-2-8-15(9-3-1)17-16-11-10-13-6-4-5-7-14(13)12-16/h1-12,17H
Instrument: Q Exactive Plus Orbitrap Thermo Scientific
Instrument type: LC-ESI-QFT
Ms type: MS2
Ion mode: POSITIVE
Ionization: ESI
Fragmentation mode: HCD
Collision energy: 35  (nominal)
Resolution: 35000
Column name: Kinetex C18 EVO 2.6 um, 2.1x50 mm, precolumn 2.1x5 mm, Phenomenex
Retention time: 12.814 min
Base peak: 220.1117
Precursor m/z: 220.1121
Precursor type: [M+H]+
m/z	relative intensity	assigned
65.0387	5	C5H5+
92.0495	63	C6H6N+
93.0573	15	C6H7N+
104.0495	1	C7H6N+
115.0542	25	C9H7+
124.0756	1	C7H10NO+
128.062	27	C10H8+
142.0651	31	C10H8N+
143.0729	289	C10H9N+
178.0776	2	C14H10+
193.1019	2	C15H13+
202.0777	4	C16H10+
203.0854	14	C16H11+
204.0811	4	C15H10N+
204.093	1	C16H12+
205.0887	9	C15H11N+
218.0961	2	C16H12N+
219.1051	7	C16H13N+
220.112	999	C16H14N+
