Mass spectrum: 4-Aminophenol; LC-ESI-QFT; MS2; CE: 35 NCE; R=35000; [M+H]+
Name: 4-Aminophenol
Formula: C6H7NO
Exact mass: 109.05276
SMILES: NC1=CC=C(O)C=C1
InChI: InChI=1S/C6H7NO/c7-5-1-3-6(8)4-2-5/h1-4,8H,7H2
Instrument: Q Exactive Plus Orbitrap Thermo Scientific
Instrument type: LC-ESI-QFT
Ms type: MS2
Ion mode: POSITIVE
Ionization: ESI
Fragmentation mode: HCD
Collision energy: 35  (nominal)
Resolution: 35000
Column name: Kinetex C18 EVO 2.6 um, 2.1x50 mm, precolumn 2.1x5 mm, Phenomenex
Retention time: 0.482 min
Base peak: 198.1275
Precursor m/z: 110.06
Precursor type: [M+H]+
m/z	relative intensity	assigned
55.0181	1	C3H3O+
65.0386	77	C5H5+
67.0416	2	C4H5N+
67.0543	6	C5H7+
80.0495	3	C5H6N+
82.0651	35	C5H8N+
92.0494	83	C6H6N+
93.0334	76	C6H5O+
93.0572	4	C6H7N+
109.0522	8	C6H7NO+
110.06	999	C6H8NO+
121.0396	11	C6H5N2O+
