Mass spectrum: Candesartan; LC-ESI-QFT; MS2; CE: 35 NCE; R=35000; [M+H]+
Name: Candesartan
Name: 2-Ethoxy-3-[[4-[2-(2H-tetrazol-5-yl)phenyl]phenyl]methyl]benzimidazole-4-carboxylic acid
Formula: C24H20N6O3
Exact mass: 440.15969
SMILES: CCOC1=Nc2cccc(C(O)=O)c2N1Cc1ccc(-c2ccccc2C2NN=NN=2)cc1
InChI: InChI=1S/C24H20N6O3/c1-2-33-24-25-20-9-5-8-19(23(31)32)21(20)30(24)14-15-10-12-16(13-11-15)17-6-3-4-7-18(17)22-26-28-29-27-22/h3-13H,2,14H2,1H3,(H,31,32)(H,26,27,28,29)
Instrument: Q Exactive Plus Orbitrap Thermo Scientific
Instrument type: LC-ESI-QFT
Ms type: MS2
Ion mode: POSITIVE
Ionization: ESI
Fragmentation mode: HCD
Collision energy: 35  (nominal)
Resolution: 35000
Column name: Kinetex C18 EVO 2.6 um, 2.1x50 mm, precolumn 2.1x5 mm, Phenomenex
Retention time: 11.262 min
Base peak: 441.1671
Precursor m/z: 441.167
Precursor type: [M+H]+
m/z	relative intensity	assigned
56.0497	2	C3H6N+
67.0419	2	C4H5N+
80.0496	3	C5H6N+
105.0451	1	C6H5N2+
108.0807	2	C7H10N+
115.0545	2	C9H7+
116.0496	2	C8H6N+
129.0449	2	C8H5N2+
129.0698	2	C10H9+
140.0496	9	C10H6N+
145.0396	3	C8H5N2O+
151.0499	2	C7H7N2O2+
152.0622	40	C12H8+
153.07	63	C12H9+
161.0347	26	C8H5N2O2+
163.0541	12	C13H7+
165.0701	195	C13H9+
166.0654	7	C12H8N+
166.078	6	C13H10+
167.0733	11	C12H9N+
167.0857	41	C13H11+
168.0806	1	C12H10N+
173.0346	15	C9H5N2O2+
177.0576	18	C13H7N+
177.0702	10	C14H9+
178.0653	6	C13H8N+
178.0779	121	C14H10+
179.0453	25	C8H7N2O3+
179.0733	16	C13H9N+
179.0858	15	C14H11+
180.0809	193	C13H10N+
181.0764	2	C12H9N2+
189.066	3	C10H9N2O2+
190.0653	188	C14H8N+
191.0455	10	C9H7N2O3+
191.0731	92	C14H9N+
191.086	7	C15H11+
192.0683	41	C13H8N2+
192.081	144	C14H10N+
193.0888	128	C14H11N+
194.0966	176	C14H12N+
195.0918	1	C13H11N2+
196.076	9	C13H10NO+
203.0729	3	C15H9N+
204.0808	2	C15H10N+
205.0761	59	C14H9N2+
206.0841	118	C14H10N2+
206.1097	11	C16H14+
207.0773	51	C10H11N2O3+
207.0919	302	C14H11N2+
208.0755	7	C14H10NO+
208.1123	53	C15H14N+
210.0915	280	C14H12NO+
217.0889	18	C16H11N+
218.0967	39	C16H12N+
219.0919	41	C15H11N2+
220.0999	50	C15H12N2+
224.1074	6	C15H14NO+
232.1001	3	C16H12N2+
233.0718	2	C15H9N2O+
233.1075	26	C16H13N2+
234.1155	63	C16H14N2+
235.0982	54	C14H11N4+
235.1232	168	C16H15N2+
239.0866	2	C19H11+
251.1297	7	C15H15N4+
263.1294	999	C16H15N4+
267.1246	3	C15H15N4O+
279.0926	2	C20H11N2+
281.1075	4	C20H13N2+
282.0917	8	C20H12NO+
294.0793	1	C20H10N2O+
294.103	2	C20H12N3+
295.1555	2	C17H19N4O+
297.1027	3	C20H13N2O+
307.0872	3	C21H11N2O+
308.0945	6	C21H12N2O+
308.1186	22	C21H14N3+
309.1025	49	C21H13N2O+
310.109	15	C19H12N5+
322.0982	10	C23H14O2+
323.1048	3	C21H13N3O+
324.1133	17	C21H14N3O+
334.0983	2	C24H14O2+
335.0805	1	C20H9N5O+
336.0909	1	C22H12N2O2+
337.0968	26	C22H13N2O2+
338.1054	86	C22H14N2O2+
348.1011	8	C22H12N4O+
349.085	21	C22H11N3O2+
349.1087	33	C22H13N4O+
350.0929	64	C22H12N3O2+
351.1009	17	C24H15O3+
352.1085	157	C22H14N3O2+
365.1037	3	C22H13N4O2+
367.1192	6	C22H15N4O2+
367.1431	2	C22H17N5O+
368.1029	6	C22H14N3O3+
377.1406	2	C24H17N4O+
380.14	24	C24H18N3O2+
395.127	4	C24H17N3O3+
395.1508	79	C24H19N4O2+
423.1569	504	C24H19N6O2+
441.168	48	C24H21N6O3+
