Mass spectrum: Butylparaben; LC-ESI-QFT; MS2; CE: 35 NCE; R=35000; [M-H]-
Name: Butylparaben
Name: Butyl 4-hydroxybenzoate
Formula: C11H14O3
Exact mass: 194.09429
SMILES: CCCCOC(=O)c1ccc(O)cc1
InChI: InChI=1S/C11H14O3/c1-2-3-8-14-11(13)9-4-6-10(12)7-5-9/h4-7,12H,2-3,8H2,1H3
Instrument: Q Exactive Plus Orbitrap Thermo Scientific
Instrument type: LC-ESI-QFT
Ms type: MS2
Ion mode: NEGATIVE
Ionization: ESI
Fragmentation mode: HCD
Collision energy: 35  (nominal)
Resolution: 35000
Column name: Kinetex C18 EVO 2.6 um, 2.1x50 mm, precolumn 2.1x5 mm, Phenomenex
Retention time: 11.128 min
Base peak: 112.9847
Precursor m/z: 193.087
Precursor type: [M-H]-
m/z	relative intensity	assigned
136.0164	219	C7H4O3-
137.0243	211	C7H5O3-
193.087	999	C11H13O3-
