Mass spectrum: Bicalutamide; LC-ESI-QFT; MS2; CE: 35 NCE; R=35000; [M-H]-
Name: Bicalutamide
Name: N-[4-cyano-3-(trifluoromethyl)phenyl]-3-(4-fluorophenyl)sulfonyl-2-hydroxy-2-methylpropanamide
Formula: C18H14F4N2O4S
Exact mass: 430.06104
SMILES: CC(O)(CS(=O)(=O)c1ccc(F)cc1)C(=O)Nc1ccc(C#N)c(c1)C(F)(F)F
InChI: InChI=1S/C18H14F4N2O4S/c1-17(26,10-29(27,28)14-6-3-12(19)4-7-14)16(25)24-13-5-2-11(9-23)15(8-13)18(20,21)22/h2-8,26H,10H2,1H3,(H,24,25)
Instrument: Q Exactive Plus Orbitrap Thermo Scientific
Instrument type: LC-ESI-QFT
Ms type: MS2
Ion mode: NEGATIVE
Ionization: ESI
Fragmentation mode: HCD
Collision energy: 35  (nominal)
Resolution: 35000
Column name: Kinetex C18 EVO 2.6 um, 2.1x50 mm, precolumn 2.1x5 mm, Phenomenex
Retention time: 10.964 min
Base peak: 429.0534
Precursor m/z: 429.0538
Precursor type: [M-H]-
m/z	relative intensity	assigned
95.0288	7	CH7N2OS-
111.0242	9	C9H3-
137.0407	1	C8H6FO-
157.9844	1	C6H3FO2S-
158.9923	28	C6H4FO2S-
173.0079	65	C7H6FO2S-
184.038	200	C9H5F3N-
185.0332	665	C8H4F3N2-
212.0329	1	C10H5F3NO-
227.0439	8	C10H6F3N2O-
243.0132	18	C10H8FO4S-
251.0439	3	C12H6F3N2O-
255.0387	999	C11H6F3N2O2-
411.0432	13	C18H11F4N2O3S-
429.0538	55	C18H13F4N2O4S-
