Mass spectrum: 7-Amino-4-methylcoumarin; LC-ESI-QFT; MS2; CE: 35 NCE; R=35000; [M+H]+
Name: 7-Amino-4-methylcoumarin
Name: 7-amino-4-methylchromen-2-one
Formula: C10H9NO2
Exact mass: 175.06333
SMILES: CC1=CC(=O)OC2=CC(N)=CC=C12
InChI: InChI=1S/C10H9NO2/c1-6-4-10(12)13-9-5-7(11)2-3-8(6)9/h2-5H,11H2,1H3
Instrument: Q Exactive Plus Orbitrap Thermo Scientific
Instrument type: LC-ESI-QFT
Ms type: MS2
Ion mode: POSITIVE
Ionization: ESI
Fragmentation mode: HCD
Collision energy: 35  (nominal)
Resolution: 35000
Column name: Kinetex C18 EVO 2.6 um, 2.1x50 mm, precolumn 2.1x5 mm, Phenomenex
Retention time: 7.003 min
Base peak: 134.0711
Precursor m/z: 176.0706
Precursor type: [M+H]+
m/z	relative intensity	assigned
68.0133	1	C3H2NO+
79.0543	1	C6H7+
91.0543	2	C7H7+
93.0573	1	C6H7N+
93.0698	1	C7H9+
103.0542	9	C8H7+
105.0699	9	C8H9+
109.0647	1	C7H9O+
115.0542	20	C9H7+
117.0573	45	C8H7N+
118.0652	1	C8H8N+
120.0808	86	C8H10N+
130.0651	10	C9H8N+
131.0492	3	C9H7O+
131.0729	8	C9H9N+
132.0808	26	C9H10N+
133.0523	4	C8H7NO+
133.0649	3	C9H9O+
134.0601	1	C8H8NO+
143.0607	1	C9H7N2+
148.0757	16	C9H10NO+
176.0706	999	C10H10NO2+
