Mass spectrum: 2-Mercaptobenzothiazole; LC-ESI-QFT; MS2; CE: 35 NCE; R=35000; [M-H]-
Name: 2-Mercaptobenzothiazole
Name: 3H-1,3-benzothiazole-2-thione
Formula: C7H5NS2
Exact mass: 166.98634
SMILES: SC1=NC2=CC=CC=C2S1
InChI: InChI=1S/C7H5NS2/c9-7-8-5-3-1-2-4-6(5)10-7/h1-4H,(H,8,9)
Instrument: Q Exactive Plus Orbitrap Thermo Scientific
Instrument type: LC-ESI-QFT
Ms type: MS2
Ion mode: NEGATIVE
Ionization: ESI
Fragmentation mode: HCD
Collision energy: 35  (nominal)
Resolution: 35000
Column name: Kinetex C18 EVO 2.6 um, 2.1x50 mm, precolumn 2.1x5 mm, Phenomenex
Retention time: 8.308 min
Base peak: 165.9791
Precursor m/z: 165.9791
Precursor type: [M-H]-
m/z	relative intensity	assigned
134.0069	141	C7H4NS-
164.9712	1	C7H3NS2-
165.9791	999	C7H4NS2-
