Mass spectrum: Chloridazon; LC-ESI-QFT; MS2; CE: 35 NCE; R=35000; [M-H]-
Name: Chloridazon
Name: 5-amino-4-chloro-2-phenylpyridazin-3-one
Formula: C10H8ClN3O
Exact mass: 221.03559
SMILES: NC1=C(Cl)C(=O)N(N=C1)c1ccccc1
InChI: InChI=1S/C10H8ClN3O/c11-9-8(12)6-13-14(10(9)15)7-4-2-1-3-5-7/h1-6H,12H2
Instrument: Q Exactive Plus Orbitrap Thermo Scientific
Instrument type: LC-ESI-QFT
Ms type: MS2
Ion mode: NEGATIVE
Ionization: ESI
Fragmentation mode: HCD
Collision energy: 35  (nominal)
Resolution: 35000
Column name: Kinetex C18 EVO 2.6 um, 2.1x50 mm, precolumn 2.1x5 mm, Phenomenex
Retention time: 6.567 min
Base peak: 112.9847
Precursor m/z: 220.0283
Precursor type: [M-H]-
m/z	relative intensity	assigned
193.987	53	C6HClN5O-
220.0284	999	C10H7ClN3O-
