Mass spectrum: Tetraglyme; LC-ESI-QFT; MS2; CE: 35 NCE; R=35000; [M+H]+
Name: Tetraglyme
Name: 1-methoxy-2-[2-[2-(2-methoxyethoxy)ethoxy]ethoxy]ethane
Formula: C10H22O5
Exact mass: 222.14672
SMILES: COCCOCCOCCOCCOC
InChI: InChI=1S/C10H22O5/c1-11-3-5-13-7-9-15-10-8-14-6-4-12-2/h3-10H2,1-2H3
Instrument: Q Exactive Plus Orbitrap Thermo Scientific
Instrument type: LC-ESI-QFT
Ms type: MS2
Ion mode: POSITIVE
Ionization: ESI
Fragmentation mode: HCD
Collision energy: 35  (nominal)
Resolution: 35000
Column name: Kinetex C18 EVO 2.6 um, 2.1x50 mm, precolumn 2.1x5 mm, Phenomenex
Retention time: 6.262 min
Base peak: 240.1803
Precursor m/z: 223.154
Precursor type: [M+H]+
m/z	relative intensity	assigned
59.0493	999	C3H7O+
73.0649	1	C4H9O+
89.0597	27	C4H9O2+
103.0754	739	C5H11O2+
133.086	9	C6H13O3+
147.1016	52	C7H15O3+
223.1542	4	C10H23O5+
