Mass spectrum: 4-Isopropylaniline; LC-ESI-QFT; MS2; CE: 35 NCE; R=35000; [M+H]+
Name: 4-Isopropylaniline
Name: 4-propan-2-ylaniline
Formula: C9H13N
Exact mass: 135.10480
SMILES: CC(C)C1=CC=C(C=C1)N
InChI: InChI=1S/C9H13N/c1-7(2)8-3-5-9(10)6-4-8/h3-7H,10H2,1-2H3
Instrument: Q Exactive Plus Orbitrap Thermo Scientific
Instrument type: LC-ESI-QFT
Ms type: MS2
Ion mode: POSITIVE
Ionization: ESI
Fragmentation mode: HCD
Collision energy: 35  (nominal)
Resolution: 35000
Column name: Kinetex C18 EVO 2.6 um, 2.1x50 mm, precolumn 2.1x5 mm, Phenomenex
Retention time: 2.208 min
Base peak: 136.1119
Precursor m/z: 136.1121
Precursor type: [M+H]+
m/z	relative intensity	assigned
77.0385	1	C6H5+
79.0543	1	C6H7+
91.0542	24	C7H7+
93.0573	2	C6H7N+
94.0651	245	C6H8N+
95.0491	2	C6H7O+
103.0543	1	C8H7+
104.062	2	C8H8+
117.0699	3	C9H9+
119.0857	1	C9H11+
120.0808	2	C8H10N+
121.0886	11	C8H11N+
136.112	999	C9H14N+
147.0916	3	C9H11N2+
