Mass spectrum: 2-Aminopyridine; LC-ESI-QFT; MS2; CE: 35 NCE; R=35000; [M+H]+
Name: 2-Aminopyridine
Name: 2-AMINOPYRIDINE
Name: pyridin-2-amine
Formula: C5H6N2
Exact mass: 94.05310
SMILES: NC1=NC=CC=C1
InChI: InChI=1S/C5H6N2/c6-5-3-1-2-4-7-5/h1-4H,(H2,6,7)
Instrument: Q Exactive Plus Orbitrap Thermo Scientific
Instrument type: LC-ESI-QFT
Ms type: MS2
Ion mode: POSITIVE
Ionization: ESI
Fragmentation mode: HCD
Collision energy: 35  (nominal)
Resolution: 35000
Column name: Kinetex C18 EVO 2.6 um, 2.1x50 mm, precolumn 2.1x5 mm, Phenomenex
Retention time: 0.488 min
Base peak: 95.0603
Precursor m/z: 95.0604
Precursor type: [M+H]+
m/z	relative intensity	assigned
67.0543	2	C5H7+
78.0338	18	C5H4N+
95.0603	999	C5H7N2+
