Mass spectrum: 2-Hydroxyatrazine; LC-ESI-QFT; MS2; CE: 35 NCE; R=35000; [M+H]+
Name: 2-Hydroxyatrazine
Name: Hydroxyatrazine
Name: 2-(ethylamino)-6-(propan-2-ylamino)-1H-1,3,5-triazin-4-one
Formula: C8H15N5O
Exact mass: 197.12766
SMILES: CCNC1=NC(=O)N=C(NC(C)C)N1
InChI: InChI=1S/C8H15N5O/c1-4-9-6-11-7(10-5(2)3)13-8(14)12-6/h5H,4H2,1-3H3,(H3,9,10,11,12,13,14)
Instrument: Q Exactive Plus Orbitrap Thermo Scientific
Instrument type: LC-ESI-QFT
Ms type: MS2
Ion mode: POSITIVE
Ionization: ESI
Fragmentation mode: HCD
Collision energy: 35  (nominal)
Resolution: 35000
Column name: Kinetex C18 EVO 2.6 um, 2.1x50 mm, precolumn 2.1x5 mm, Phenomenex
Retention time: 2.138 min
Base peak: 189.9819
Precursor m/z: 198.1349
Precursor type: [M+H]+
m/z	relative intensity	assigned
69.0084	16	C2HN2O+
71.0604	10	C3H7N2+
85.0508	1	C2H5N4+
86.0349	134	C2H4N3O+
96.0555	2	C4H6N3+
97.0396	28	C4H5N2O+
113.0821	4	C4H9N4+
114.0662	107	C4H8N3O+
128.0567	8	C3H6N5O+
128.0818	18	C5H10N3O+
156.088	404	C5H10N5O+
198.1349	999	C8H16N5O+
