Mass spectrum: Icaridin; LC-ESI-QFT; MS2; CE: 35 NCE; R=35000; [M+H]+
Name: Icaridin
Name: Bbutan-2-yl 2-(2-hydroxyethyl)piperidine-1-carboxylate
Formula: C12H23NO3
Exact mass: 229.16779
SMILES: CCC(C)OC(=O)N1CCCCC1CCO
InChI: InChI=1S/C12H23NO3/c1-3-10(2)16-12(15)13-8-5-4-6-11(13)7-9-14/h10-11,14H,3-9H2,1-2H3
Instrument: Q Exactive Plus Orbitrap Thermo Scientific
Instrument type: LC-ESI-QFT
Ms type: MS2
Ion mode: POSITIVE
Ionization: ESI
Fragmentation mode: HCD
Collision energy: 35  (nominal)
Resolution: 35000
Column name: Kinetex C18 EVO 2.6 um, 2.1x50 mm, precolumn 2.1x5 mm, Phenomenex
Retention time: 10.673 min
Base peak: 230.1749
Precursor m/z: 230.1751
Precursor type: [M+H]+
m/z	relative intensity	assigned
56.0497	3	C3H6N+
57.0337	1	C3H5O+
57.0701	3	C4H9+
67.0543	17	C5H7+
69.07	4	C5H9+
70.0652	7	C4H8N+
71.0492	31	C4H7O+
83.0855	1	C6H11+
84.0808	17	C5H10N+
93.0699	4	C7H9+
95.0856	50	C7H11+
112.1122	63	C7H14N+
113.0962	19	C7H13O+
128.0707	29	C6H10NO2+
130.1227	999	C7H16NO+
156.102	69	C8H14NO2+
174.1126	48	C8H16NO3+
186.1853	4	C11H24NO+
230.1753	34	C12H24NO3+
