Mass spectrum: Clopidogrel; LC-ESI-QFT; MS2; CE: 35 NCE; R=35000; [M+H]+
Name: Clopidogrel
Name: methyl 2-(2-chlorophenyl)-2-(6,7-dihydro-4H-thieno[3,2-c]pyridin-5-yl)acetate
Formula: C16H16ClNO2S
Exact mass: 321.05903
SMILES: COC(=O)C(N1CCc2sccc2C1)c1ccccc1Cl
InChI: InChI=1S/C16H16ClNO2S/c1-20-16(19)15(12-4-2-3-5-13(12)17)18-8-6-14-11(10-18)7-9-21-14/h2-5,7,9,15H,6,8,10H2,1H3
Instrument: Q Exactive Plus Orbitrap Thermo Scientific
Instrument type: LC-ESI-QFT
Ms type: MS2
Ion mode: POSITIVE
Ionization: ESI
Fragmentation mode: HCD
Collision energy: 35  (nominal)
Resolution: 35000
Column name: Kinetex C18 EVO 2.6 um, 2.1x50 mm, precolumn 2.1x5 mm, Phenomenex
Retention time: 11.065 min
Base peak: 322.0661
Precursor m/z: 322.0663
Precursor type: [M+H]+
m/z	relative intensity	assigned
91.0542	6	C7H7+
105.0334	3	C7H5O+
111.0262	8	C6H7S+
123.0262	1	C7H7S+
125.0152	102	C7H6Cl+
125.0416	5	C7H9S+
138.0374	3	C7H8NS+
139.045	4	C7H9NS+
148.0519	2	C9H8O2+
152.0261	310	C8H7ClN+
154.0418	28	C8H9ClN+
155.0258	366	C8H8ClO+
183.0208	223	C9H8ClO2+
184.0524	679	C9H11ClNO+
201.0312	4	C9H10ClO3+
212.0473	730	C10H11ClNO2+
262.0456	4	C14H13ClNS+
322.0664	999	C16H17ClNO2S+
