Mass spectrum: Tri-isobutyl phosphate; LC-ESI-QFT; MS2; CE: 35 NCE; R=35000; [M+H]+
Name: Tri-isobutyl phosphate
Name: Triisobutyl phosphate
Name: tris(2-methylpropyl) phosphate
Formula: C12H27O4P
Exact mass: 266.16470
SMILES: CC(C)COP(=O)(OCC(C)C)OCC(C)C
InChI: InChI=1S/C12H27O4P/c1-10(2)7-14-17(13,15-8-11(3)4)16-9-12(5)6/h10-12H,7-9H2,1-6H3
Instrument: Q Exactive Plus Orbitrap Thermo Scientific
Instrument type: LC-ESI-QFT
Ms type: MS2
Ion mode: POSITIVE
Ionization: ESI
Fragmentation mode: HCD
Collision energy: 35  (nominal)
Resolution: 35000
Column name: Kinetex C18 EVO 2.6 um, 2.1x50 mm, precolumn 2.1x5 mm, Phenomenex
Retention time: 13.062 min
Base peak: 267.1718
Precursor m/z: 267.172
Precursor type: [M+H]+
m/z	relative intensity	assigned
57.0701	21	C4H9+
80.9738	1	H2O3P+
98.9842	999	H4O4P+
116.9948	4	H6O5P+
131.0104	5	CH8O5P+
155.0468	39	C4H12O4P+
211.1095	16	C8H20O4P+
267.1721	1	C12H28O4P+
