Mass spectrum: Imidacloprid; LC-ESI-QFT; MS2; CE: 35 NCE; R=35000; [M-H]-
Name: Imidacloprid
Name: N-[1-[(6-chloropyridin-3-yl)methyl]-4,5-dihydroimidazol-2-yl]nitramide
Formula: C9H10ClN5O2
Exact mass: 255.05230
SMILES: [O-][N+](=O)NC1=NCCN1Cc1ccc(Cl)nc1
InChI: InChI=1S/C9H10ClN5O2/c10-8-2-1-7(5-12-8)6-14-4-3-11-9(14)13-15(16)17/h1-2,5H,3-4,6H2,(H,11,13)
Instrument: Q Exactive Plus Orbitrap Thermo Scientific
Instrument type: LC-ESI-QFT
Ms type: MS2
Ion mode: NEGATIVE
Ionization: ESI
Fragmentation mode: HCD
Collision energy: 35  (nominal)
Resolution: 35000
Column name: Kinetex C18 EVO 2.6 um, 2.1x50 mm, precolumn 2.1x5 mm, Phenomenex
Retention time: 6.234 min
Base peak: 112.9847
Precursor m/z: 254.045
Precursor type: [M-H]-
m/z	relative intensity	assigned
254.045	999	C9H9ClN5O2-
