Mass spectrum: Benzyl butyl phthalate; LC-ESI-QFT; MS2; CE: 35 NCE; R=35000; [M+H]+
Name: Benzyl butyl phthalate
Name: 2-O-benzyl 1-O-butyl benzene-1,2-dicarboxylate
Formula: C19H20O4
Exact mass: 312.13616
SMILES: CCCCOC(=O)C1=CC=CC=C1C(=O)OCC1=CC=CC=C1
InChI: InChI=1S/C19H20O4/c1-2-3-13-22-18(20)16-11-7-8-12-17(16)19(21)23-14-15-9-5-4-6-10-15/h4-12H,2-3,13-14H2,1H3
Instrument: Q Exactive Plus Orbitrap Thermo Scientific
Instrument type: LC-ESI-QFT
Ms type: MS2
Ion mode: POSITIVE
Ionization: ESI
Fragmentation mode: HCD
Collision energy: 35  (nominal)
Resolution: 35000
Column name: Kinetex C18 EVO 2.6 um, 2.1x50 mm, precolumn 2.1x5 mm, Phenomenex
Retention time: 13.193 min
Base peak: 313.1431
Precursor m/z: 313.1434
Precursor type: [M+H]+
m/z	relative intensity	assigned
57.0701	5	C4H9+
65.0387	11	C5H5+
91.0542	999	C7H7+
121.0284	4	C7H5O2+
149.0234	396	C8H5O3+
163.0389	7	C9H7O3+
181.0495	6	C9H9O4+
205.086	32	C12H13O3+
