Mass spectrum: Triclocarban; LC-ESI-QFT; MS2; CE: 35 NCE; R=35000; [M-H]-
Name: Triclocarban
Name: 1-(4-chlorophenyl)-3-(3,4-dichlorophenyl)urea
Formula: C13H9Cl3N2O
Exact mass: 313.97805
SMILES: ClC1=CC=C(NC(=O)NC2=CC=C(Cl)C(Cl)=C2)C=C1
InChI: InChI=1S/C13H9Cl3N2O/c14-8-1-3-9(4-2-8)17-13(19)18-10-5-6-11(15)12(16)7-10/h1-7H,(H2,17,18,19)
Instrument: Q Exactive Plus Orbitrap Thermo Scientific
Instrument type: LC-ESI-QFT
Ms type: MS2
Ion mode: NEGATIVE
Ionization: ESI
Fragmentation mode: HCD
Collision energy: 35  (nominal)
Resolution: 35000
Column name: Kinetex C18 EVO 2.6 um, 2.1x50 mm, precolumn 2.1x5 mm, Phenomenex
Retention time: 13.176 min
Base peak: 358.9763
Precursor m/z: 312.9708
Precursor type: [M-H]-
m/z	relative intensity	assigned
123.9955	13	C9O-
126.0112	97	C9H2O-
159.9727	999	C6H4Cl2N-
312.9709	34	C13H8Cl3N2O-
