Mass spectrum: 2-Aminophenol; LC-ESI-QFT; MS2; CE: 35 NCE; R=35000; [M+H]+
Name: 2-Aminophenol
Formula: C6H7NO
Exact mass: 109.05276
SMILES: NC1=C(O)C=CC=C1
InChI: InChI=1S/C6H7NO/c7-5-3-1-2-4-6(5)8/h1-4,8H,7H2
Instrument: Q Exactive Plus Orbitrap Thermo Scientific
Instrument type: LC-ESI-QFT
Ms type: MS2
Ion mode: POSITIVE
Ionization: ESI
Fragmentation mode: HCD
Collision energy: 35  (nominal)
Resolution: 35000
Column name: Kinetex C18 EVO 2.6 um, 2.1x50 mm, precolumn 2.1x5 mm, Phenomenex
Retention time: 0.450 min
Base peak: 95.0603
Precursor m/z: 110.06
Precursor type: [M+H]+
m/z	relative intensity	assigned
65.0387	43	C5H5+
67.0543	1	C5H7+
82.0651	6	C5H8N+
92.0494	288	C6H6N+
93.0335	34	C6H5O+
110.06	999	C6H8NO+
