Mass spectrum: Chloramphenicol; LC-ESI-QFT; MS2; CE: 35 NCE; R=35000; [M-H]-
Name: Chloramphenicol
Name: 2,2-dichloro-N-[(1R,2R)-1,3-dihydroxy-1-(4-nitrophenyl)propan-2-yl]acetamide
Formula: C11H12Cl2N2O5
Exact mass: 322.01233
SMILES: OC[C@@H](NC(=O)C(Cl)Cl)[C@H](O)C1=CC=C(C=C1)[N+]([O-])=O
InChI: InChI=1S/C11H12Cl2N2O5/c12-10(13)11(18)14-8(5-16)9(17)6-1-3-7(4-2-6)15(19)20/h1-4,8-10,16-17H,5H2,(H,14,18)/t8-,9-/m1/s1
Instrument: Q Exactive Plus Orbitrap Thermo Scientific
Instrument type: LC-ESI-QFT
Ms type: MS2
Ion mode: NEGATIVE
Ionization: ESI
Fragmentation mode: HCD
Collision energy: 35  (nominal)
Resolution: 35000
Column name: Kinetex C18 EVO 2.6 um, 2.1x50 mm, precolumn 2.1x5 mm, Phenomenex
Retention time: 6.873 min
Base peak: 137.0243
Precursor m/z: 321.0051
Precursor type: [M-H]-
m/z	relative intensity	assigned
84.0074	13	CN4O-
121.0289	404	C2H6ClN4-
125.9513	9	C2H2Cl2NO-
126.9355	38	C2HCl2O2-
135.0322	6	C7H5NO2-
148.0405	80	C8H6NO2-
150.0195	9	C7H4NO3-
151.0275	402	C7H5NO3-
152.0353	999	C7H6NO3-
159.0324	24	C9H5NO2-
164.0351	7	C8H6NO3-
166.0148	10	C7H4NO4-
176.0353	186	C9H6NO3-
194.046	265	C9H8NO4-
219.0411	11	C10H7N2O4-
237.0518	35	C10H9N2O5-
249.052	64	C11H9N2O5-
257.0335	511	C10H10ClN2O4-
321.005	971	C11H11Cl2N2O5-
