Mass spectrum: Indometacin; LC-ESI-QFT; MS2; CE: 35 NCE; R=35000; [M+H]+
Name: Indometacin
Name: 2-[1-(4-chlorobenzoyl)-5-methoxy-2-methylindol-3-yl]acetic acid
Formula: C19H16ClNO4
Exact mass: 357.07679
SMILES: COc1ccc2n(C(=O)c3ccc(Cl)cc3)c(C)c(CC(O)=O)c2c1
InChI: InChI=1S/C19H16ClNO4/c1-11-15(10-18(22)23)16-9-14(25-2)7-8-17(16)21(11)19(24)12-3-5-13(20)6-4-12/h3-9H,10H2,1-2H3,(H,22,23)
Instrument: Q Exactive Plus Orbitrap Thermo Scientific
Instrument type: LC-ESI-QFT
Ms type: MS2
Ion mode: POSITIVE
Ionization: ESI
Fragmentation mode: HCD
Collision energy: 35  (nominal)
Resolution: 35000
Column name: Kinetex C18 EVO 2.6 um, 2.1x50 mm, precolumn 2.1x5 mm, Phenomenex
Retention time: 12.347 min
Base peak: 559.2601
Precursor m/z: 358.0841
Precursor type: [M+H]+
m/z	relative intensity	assigned
51.0231	3	C4H3+
75.0228	2	C6H3+
79.0178	1	C5H3O+
86.9996	7	C4H4Cl+
93.0335	3	C6H5O+
110.9995	5	C6H4Cl+
111.0442	1	C6H7O2+
128.0021	1	C6H5ClO+
129.0101	23	C6H6ClO+
131.0727	1	C9H9N+
138.9944	999	C7H4ClO+
139.0056	58	C9HNO+
159.0679	2	C10H9NO+
174.0914	80	C11H12NO+
202.0865	1	C12H12NO2+
220.097	2	C12H14NO3+
312.0786	4	C18H15ClNO2+
358.0841	161	C19H17ClNO4+
