Mass spectrum: Dimethoate; LC-ESI-QFT; MS2; CE: 35 NCE; R=35000; [M+H]+
Name: Dimethoate
Name: 2-dimethoxyphosphinothioylsulfanyl-N-methylacetamide
Formula: C5H12NO3PS2
Exact mass: 228.99962
SMILES: CNC(=O)CSP(=S)(OC)OC
InChI: InChI=1S/C5H12NO3PS2/c1-6-5(7)4-12-10(11,8-2)9-3/h4H2,1-3H3,(H,6,7)
Instrument: Q Exactive Plus Orbitrap Thermo Scientific
Instrument type: LC-ESI-QFT
Ms type: MS2
Ion mode: POSITIVE
Ionization: ESI
Fragmentation mode: HCD
Collision energy: 35  (nominal)
Resolution: 35000
Column name: Kinetex C18 EVO 2.6 um, 2.1x50 mm, precolumn 2.1x5 mm, Phenomenex
Retention time: 6.076 min
Base peak: 230.0066
Precursor m/z: 230.0069
Precursor type: [M+H]+
m/z	relative intensity	assigned
58.9952	6	C2H3S+
61.0108	21	C2H5S+
62.0186	10	C2H6S+
76.0217	2	C2H6NS+
78.9944	79	CH4O2P+
86.0059	1	C3H4NS+
88.0215	474	C3H6NS+
93.01	27	C2H6O2P+
104.0164	7	C3H6NOS+
110.9661	6	CH4O2PS+
119.9936	20	C3H6NS2+
123.9981	18	C2H7NOPS+
124.9821	401	C2H6O2PS+
126.0105	2	C5H5NOP+
127.0155	6	C2H8O4P+
128.0075	14	CH8N2OS2+
128.977	15	CH6O3PS+
140.9591	3	C2H6OPS2+
142.9926	999	C2H8O3PS+
143.9994	2	H7N3O2PS+
144.9968	1	H7N3O2S2+
155.9701	14	C2H7NOPS2+
156.9542	102	C2H6O2PS2+
157.0083	24	C3H10O3PS+
158.9699	15	C2H8O2PS2+
170.9698	574	C3H8O2PS2+
188.9803	7	C3H10O3PS2+
197.9807	52	C4H9NO2PS2+
198.9647	867	C4H8O3PS2+
202.9961	1	C4H12O3PS2+
230.007	40	C5H13NO3PS2+
