Mass spectrum: Di(2-ethylhexyl)phthalate (DEHP); LC-ESI-QFT; MS2; CE: 35 NCE; R=35000; [M+H]+
Name: Di(2-ethylhexyl)phthalate (DEHP)
Name: DEHP
Name: Bis(2-ethylhexyl) benzene-1,2-dicarboxylate
Formula: C24H38O4
Exact mass: 390.27701
SMILES: CCCCC(CC)COC(=O)c1ccccc1C(=O)OCC(CC)CCCC
InChI: InChI=1S/C24H38O4/c1-5-9-13-19(7-3)17-27-23(25)21-15-11-12-16-22(21)24(26)28-18-20(8-4)14-10-6-2/h11-12,15-16,19-20H,5-10,13-14,17-18H2,1-4H3
Instrument: Q Exactive Plus Orbitrap Thermo Scientific
Instrument type: LC-ESI-QFT
Ms type: MS2
Ion mode: POSITIVE
Ionization: ESI
Fragmentation mode: HCD
Collision energy: 35  (nominal)
Resolution: 35000
Column name: Kinetex C18 EVO 2.6 um, 2.1x50 mm, precolumn 2.1x5 mm, Phenomenex
Retention time: 15.685 min
Base peak: 391.2841
Precursor m/z: 391.2843
Precursor type: [M+H]+
m/z	relative intensity	assigned
57.0701	82	C4H9+
65.0386	4	C5H5+
71.0857	130	C5H11+
93.0335	3	C6H5O+
113.1326	10	C8H17+
121.0286	22	C7H5O2+
121.0397	2	C6H5N2O+
149.0235	999	C8H5O3+
163.0391	25	C9H7O3+
167.0341	126	C8H7O4+
181.0496	20	C9H9O4+
279.1595	20	C16H23O4+
391.2849	2	C24H39O4+
