Mass spectrum: Bis(2-ethylhexyl)phosphate; LC-ESI-QFT; MS2; CE: 35 NCE; R=35000; [M+H]+
Name: Bis(2-ethylhexyl)phosphate
Name: Bis(2-ethylhexyl) hydrogen phosphate
Formula: C16H35O4P
Exact mass: 322.22730
SMILES: CCCCC(CC)COP(O)(=O)OCC(CC)CCCC
InChI: InChI=1S/C16H35O4P/c1-5-9-11-15(7-3)13-19-21(17,18)20-14-16(8-4)12-10-6-2/h15-16H,5-14H2,1-4H3,(H,17,18)
Instrument: Q Exactive Plus Orbitrap Thermo Scientific
Instrument type: LC-ESI-QFT
Ms type: MS2
Ion mode: POSITIVE
Ionization: ESI
Fragmentation mode: HCD
Collision energy: 35  (nominal)
Resolution: 35000
Column name: Kinetex C18 EVO 2.6 um, 2.1x50 mm, precolumn 2.1x5 mm, Phenomenex
Retention time: 19.898 min
Base peak: 149.012
Precursor m/z: 323.2346
Precursor type: [M+H]+
m/z	relative intensity	assigned
57.0701	85	C4H9+
71.0856	128	C5H11+
98.9842	999	H4O4P+
113.1326	6	C8H17+
116.9948	5	H6O5P+
131.0103	9	CH8O5P+
