Mass spectrum: 10-Azabenzo[a]pyrene; LC-ESI-QFT; MS2; CE: 35 NCE; R=35000; [M+H]+
Name: 10-Azabenzo[a]pyrene
Name: 10-Azabenzo(a)pyrene
Name: pyreno[1,2-b]pyridine
Formula: C19H11N
Exact mass: 253.08915
SMILES: c1cnc2c(c1)cc1ccc3cccc4ccc2c1c34
InChI: InChI=1S/C19H11N/c1-3-12-6-7-14-11-15-5-2-10-20-19(15)16-9-8-13(4-1)17(12)18(14)16/h1-11H
Instrument: Q Exactive Plus Orbitrap Thermo Scientific
Instrument type: LC-ESI-QFT
Ms type: MS2
Ion mode: POSITIVE
Ionization: ESI
Fragmentation mode: HCD
Collision energy: 35  (nominal)
Resolution: 35000
Column name: Kinetex C18 EVO 2.6 um, 2.1x50 mm, precolumn 2.1x5 mm, Phenomenex
Retention time: 13.058 min
Base peak: 254.0962
Precursor m/z: 254.0964
Precursor type: [M+H]+
m/z	relative intensity	assigned
226.0768	1	C18H10+
253.0886	24	C19H11N+
254.0964	999	C19H12N+
