Mass spectrum: Candesartan; LC-ESI-QFT; MS2; CE: 35 NCE; R=35000; [M-H]-
Name: Candesartan
Name: 2-Ethoxy-3-[[4-[2-(2H-tetrazol-5-yl)phenyl]phenyl]methyl]benzimidazole-4-carboxylic acid
Formula: C24H20N6O3
Exact mass: 440.15969
SMILES: CCOC1=Nc2cccc(C(O)=O)c2N1Cc1ccc(-c2ccccc2C2NN=NN=2)cc1
InChI: InChI=1S/C24H20N6O3/c1-2-33-24-25-20-9-5-8-19(23(31)32)21(20)30(24)14-15-10-12-16(13-11-15)17-6-3-4-7-18(17)22-26-28-29-27-22/h3-13H,2,14H2,1H3,(H,31,32)(H,26,27,28,29)
Instrument: Q Exactive Plus Orbitrap Thermo Scientific
Instrument type: LC-ESI-QFT
Ms type: MS2
Ion mode: NEGATIVE
Ionization: ESI
Fragmentation mode: HCD
Collision energy: 35  (nominal)
Resolution: 35000
Column name: Kinetex C18 EVO 2.6 um, 2.1x50 mm, precolumn 2.1x5 mm, Phenomenex
Retention time: 11.262 min
Base peak: 439.1522
Precursor m/z: 439.1524
Precursor type: [M-H]-
m/z	relative intensity	assigned
132.0327	412	C7H4N2O-
133.0406	352	C7H5N2O-
145.0406	14	C8H5N2O-
147.0199	83	C7H3N2O2-
161.072	67	C9H9N2O-
165.071	13	C13H9-
176.0227	50	C8H4N2O3-
177.0305	24	C8H5N2O3-
178.0661	6	C13H8N-
190.0661	31	C14H8N-
193.0771	1	C13H9N2-
195.0817	5	C14H11O-
205.0618	36	C10H9N2O3-
206.0849	17	C14H10N2-
266.0976	4	C20H12N-
281.1084	48	C20H13N2-
291.093	1	C21H11N2-
292.1007	37	C21H12N2-
293.1084	136	C21H13N2-
295.0873	2	C20H11N2O-
297.1033	1	C20H13N2O-
305.0955	2	C21H11N3-
306.1037	55	C21H12N3-
307.0876	7	C21H11N2O-
308.096	5	C21H12N2O-
309.1032	764	C21H13N2O-
310.1112	39	C21H14N2O-
311.1192	30	C21H15N2O-
321.1154	1	C23H15NO-
322.0984	1	C21H12N3O-
323.1063	8	C21H13N3O-
324.1141	54	C21H14N3O-
337.1123	1	C23H15NO2-
339.1247	8	C21H15N4O-
339.1471	1	C18H19N4O3-
352.1456	8	C23H18N3O-
354.101	62	C22H14N2O3-
367.1564	13	C23H19N4O-
368.104	7	C22H14N3O3-
395.1633	7	C23H19N6O-
396.1351	25	C24H18N3O3-
411.122	3	C22H15N6O3-
411.146	46	C24H19N4O3-
439.1524	999	C24H19N6O3-
