Mass spectrum: Ioperamide; LC-ESI-QFT; MS2; CE: 35 NCE; R=35000; [M+H]+
Name: Ioperamide
Name: 4-[4-(4-chlorophenyl)-4-hydroxypiperidin-1-yl]-N,N-dimethyl-2,2-diphenylbutanamide
Formula: C29H33ClN2O2
Exact mass: 476.22306
SMILES: CN(C)C(=O)C(CCN1CCC(O)(CC1)c1ccc(Cl)cc1)(c1ccccc1)c1ccccc1
InChI: InChI=1S/C29H33ClN2O2/c1-31(2)27(33)29(24-9-5-3-6-10-24,25-11-7-4-8-12-25)19-22-32-20-17-28(34,18-21-32)23-13-15-26(30)16-14-23/h3-16,34H,17-22H2,1-2H3
Instrument: Q Exactive Plus Orbitrap Thermo Scientific
Instrument type: LC-ESI-QFT
Ms type: MS2
Ion mode: POSITIVE
Ionization: ESI
Fragmentation mode: HCD
Collision energy: 35  (nominal)
Resolution: 35000
Column name: Kinetex C18 EVO 2.6 um, 2.1x50 mm, precolumn 2.1x5 mm, Phenomenex
Retention time: 9.808 min
Base peak: 477.23
Precursor m/z: 477.2303
Precursor type: [M+H]+
m/z	relative intensity	assigned
72.0444	56	C3H6NO+
91.0544	1	C7H7+
115.0542	12	C9H7+
167.0856	4	C13H11+
178.0775	3	C14H10+
193.1012	6	C15H13+
210.1277	274	C15H16N+
223.099	3	C15H13NO+
224.0837	2	C12H15ClNO+
238.1226	32	C16H16NO+
266.1539	999	C18H20NO+
477.2306	556	C29H34ClN2O2+
