Mass spectrum: Domperidone; LC-ESI-QFT; MS2; CE: 35 NCE; R=35000; [M+H]+
Name: Domperidone
Name: 6-chloro-3-[1-[3-(2-oxo-3H-benzimidazol-1-yl)propyl]piperidin-4-yl]-1H-benzimidazol-2-one
Formula: C22H24ClN5O2
Exact mass: 425.16185
SMILES: ClC1=CC2=C(C=C1)N(C1CCN(CCCN3C(=O)NC4=C3C=CC=C4)CC1)C(=O)N2
InChI: InChI=1S/C22H24ClN5O2/c23-15-6-7-20-18(14-15)25-22(30)28(20)16-8-12-26(13-9-16)10-3-11-27-19-5-2-1-4-17(19)24-21(27)29/h1-2,4-7,14,16H,3,8-13H2,(H,24,29)(H,25,30)
Instrument: Q Exactive Plus Orbitrap Thermo Scientific
Instrument type: LC-ESI-QFT
Ms type: MS2
Ion mode: POSITIVE
Ionization: ESI
Fragmentation mode: HCD
Collision energy: 35  (nominal)
Resolution: 35000
Column name: Kinetex C18 EVO 2.6 um, 2.1x50 mm, precolumn 2.1x5 mm, Phenomenex
Retention time: 7.663 min
Base peak: 426.1686
Precursor m/z: 426.1691
Precursor type: [M+H]+
m/z	relative intensity	assigned
84.0808	4	C5H10N+
98.0965	3	C6H12N+
119.0604	78	C7H7N2+
124.1121	3	C8H14N+
134.0474	2	C7H6N2O+
147.0552	643	C8H7N2O+
172.063	1	C10H8N2O+
175.0866	999	C10H11N2O+
207.032	5	C10H8ClN2O+
235.0634	9	C12H12ClN2O+
252.0898	12	C12H15ClN3O+
256.1447	2	C15H18N3O+
258.1601	4	C15H20N3O+
292.1215	2	C15H19ClN3O+
426.1691	721	C22H25ClN5O2+
