Mass spectrum: Bosentan; LC-ESI-QFT; MS2; CE: 35 NCE; R=35000; [M+H]+
Name: Bosentan
Name: 4-tert-butyl-N-[6-(2-hydroxyethoxy)-5-(2-methoxyphenoxy)-2-pyrimidin-2-ylpyrimidin-4-yl]benzenesulfonamide
Formula: C27H29N5O6S
Exact mass: 551.18385
SMILES: COC1=CC=CC=C1OC1=C(OCCO)N=C(N=C1NS(=O)(=O)C1=CC=C(C=C1)C(C)(C)C)C1=NC=CC=N1
InChI: InChI=1S/C27H29N5O6S/c1-27(2,3)18-10-12-19(13-11-18)39(34,35)32-23-22(38-21-9-6-5-8-20(21)36-4)26(37-17-16-33)31-25(30-23)24-28-14-7-15-29-24/h5-15,33H,16-17H2,1-4H3,(H,30,31,32)
Instrument: Q Exactive Plus Orbitrap Thermo Scientific
Instrument type: LC-ESI-QFT
Ms type: MS2
Ion mode: POSITIVE
Ionization: ESI
Fragmentation mode: HCD
Collision energy: 35  (nominal)
Resolution: 35000
Column name: Kinetex C18 EVO 2.6 um, 2.1x50 mm, precolumn 2.1x5 mm, Phenomenex
Retention time: 12.089 min
Base peak: 552.1908
Precursor m/z: 552.1911
Precursor type: [M+H]+
m/z	relative intensity	assigned
51.0232	1	C4H3+
52.0184	2	C3H2N+
53.0388	4	C4H5+
57.0701	6	C4H9+
65.0387	2	C5H5+
67.0543	6	C5H7+
69.0448	3	C3H5N2+
77.0386	8	C6H5+
78.0464	3	C6H6+
79.0293	2	C4H3N2+
79.0543	2	C6H7+
80.0131	18	C4H2NO+
80.0369	36	C4H4N2+
81.0447	8	C4H5N2+
91.0542	30	C7H7+
93.0699	4	C7H9+
94.0412	1	C6H6O+
95.0492	88	C6H7O+
97.0396	77	C4H5N2O+
104.0494	1	C7H6N+
105.0447	7	C6H5N2+
105.0572	3	C7H7N+
105.0699	31	C8H9+
106.0399	191	C5H4N3+
107.0478	7	C5H5N3+
108.057	34	C7H8O+
109.0522	12	C6H7NO+
109.0647	2	C7H9O+
112.0267	6	C4H4N2O2+
117.0573	3	C8H7N+
118.0414	1	C8H6O+
118.0525	3	C7H6N2+
118.0777	1	C9H10+
119.0478	1	C6H5N3+
119.0604	8	C7H7N2+
120.0444	23	C7H6NO+
121.0284	2	C7H5O2+
121.0648	17	C8H9O+
122.0587	63	C5H6N4+
123.044	37	C7H7O2+
123.0665	102	C5H7N4+
124.0505	60	C5H6N3O+
125.0347	5	C5H5N2O2+
131.0604	6	C8H7N2+
131.0855	4	C10H11+
132.0444	4	C8H6NO+
132.0681	18	C8H8N2+
133.0522	28	C8H7NO+
133.1013	3	C10H13+
134.035	1	C6H4N3O+
134.0598	17	C8H8NO+
135.044	36	C8H7O2+
135.0553	3	C7H7N2O+
135.0665	26	C6H7N4+
136.0744	3	C6H8N4+
143.0362	1	CH9N3O3S+
144.0443	6	C9H6NO+
147.0552	37	C8H7N2O+
147.0665	55	C7H7N4+
148.0617	4	C6H6N5+
148.0743	4	C7H8N4+
149.0458	85	C6H5N4O+
149.0697	16	C6H7N5+
150.0536	24	C6H6N4O+
150.0662	12	C7H8N3O+
151.1117	11	C10H15O+
159.0805	1	C11H11O+
160.0632	2	C9H8N2O+
161.0469	2	C9H7NO2+
161.0698	5	C7H7N5+
161.1073	47	C10H13N2+
162.0536	8	C7H6N4O+
163.0504	1	C8H7N2O2+
163.0617	1	C7H7N4O+
164.0342	1	C8H6NO3+
171.0549	2	C2H11N4O3S+
172.0394	1	C10H6NO2+
174.0408	1	C7H4N5O+
174.0775	4	C8H8N5+
175.0614	101	C8H7N4O+
175.0852	13	C8H9N5+
176.0567	11	C7H6N5O+
176.0693	3	C8H8N4O+
177.0407	10	C7H5N4O2+
177.0656	3	C9H9N2O2+
181.068	3	C10H13OS+
185.0458	3	C9H5N4O+
187.0502	1	C10H7N2O2+
188.0566	1	C8H6N5O+
189.0646	12	C8H7N5O+
190.0495	2	C2H12N3O5S+
190.0724	11	C8H8N5O+
191.0566	4	C8H7N4O2+
197.0632	18	C10H13O2S+
197.0822	5	C11H9N4+
202.0723	999	C9H8N5O+
203.0563	23	C9H7N4O2+
203.08	47	C9H9N5O+
204.0516	10	C8H6N5O2+
204.0642	3	C9H8N4O2+
204.0875	1	C9H10N5O+
205.059	9	C8H7N5O2+
220.074	3	C13H8N4+
221.0818	3	C13H9N4+
224.0927	8	C12H10N5+
225.0768	3	C12H9N4O+
232.083	1	C10H10N5O2+
236.093	2	C13H10N5+
237.0771	1	C13H9N4O+
237.1011	8	C13H11N5+
238.0851	1	C13H10N4O+
239.0925	1	C13H11N4O+
241.0891	18	C12H17O3S+
248.0929	5	C14H10N5+
249.0771	1	C14H9N4O+
251.0931	2	C8H17N3O4S+
252.088	10	C13H10N5O+
254.1038	3	C13H12N5O+
255.1115	17	C13H13N5O+
264.088	20	C14H10N5O+
265.0958	3	C14H11N5O+
268.0958	1	C14H12N4O2+
276.0652	5	C9H14N3O5S+
276.088	21	C15H10N5O+
279.0752	14	C14H9N5O2+
280.0829	472	C14H10N5O2+
282.0986	3	C14H12N5O2+
283.1065	9	C14H13N5O2+
292.083	9	C15H10N5O2+
293.0904	8	C15H11N5O2+
294.0985	30	C15H12N5O2+
306.0986	1	C16H12N5O2+
310.0936	11	C15H12N5O3+
311.1013	110	C15H13N5O3+
312.109	12	C15H14N5O3+
324.1092	15	C16H14N5O3+
338.1248	3	C17H16N5O3+
400.1447	4	C27H18N3O+
508.1656	38	C27H28N2O6S+
552.1914	849	C27H30N5O6S+
