Mass spectrum: Atrazine; LC-ESI-QFT; MS2; CE: 35 NCE; R=35000; [M+H]+
Name: Atrazine
Name: 6-chloro-4-N-ethyl-2-N-propan-2-yl-1,3,5-triazine-2,4-diamine
Formula: C8H14ClN5
Exact mass: 215.09377
SMILES: CCNc1nc(Cl)nc(NC(C)C)n1
InChI: InChI=1S/C8H14ClN5/c1-4-10-7-12-6(9)13-8(14-7)11-5(2)3/h5H,4H2,1-3H3,(H2,10,11,12,13,14)
Instrument: Q Exactive Plus Orbitrap Thermo Scientific
Instrument type: LC-ESI-QFT
Ms type: MS2
Ion mode: POSITIVE
Ionization: ESI
Fragmentation mode: HCD
Collision energy: 35  (nominal)
Resolution: 35000
Column name: Kinetex C18 EVO 2.6 um, 2.1x50 mm, precolumn 2.1x5 mm, Phenomenex
Retention time: 9.936 min
Base peak: 216.1007
Precursor m/z: 216.101
Precursor type: [M+H]+
m/z	relative intensity	assigned
68.0244	28	C2H2N3+
71.0604	16	C3H7N2+
79.0058	79	CH4ClN2+
85.076	1	C4H9N2+
90.0105	2	C3H5ClN+
96.0556	111	C4H6N3+
104.001	75	C2H3ClN3+
110.0461	6	C3H4N5+
132.0323	79	C4H7ClN3+
138.0774	20	C5H8N5+
138.1025	13	C7H12N3+
146.0228	58	C3H5ClN5+
146.0479	10	C5H9ClN3+
174.0541	616	C5H9ClN5+
180.125	2	C8H14N5+
188.0698	3	C6H11ClN5+
216.1011	999	C8H15ClN5+
