Mass spectrum: 4-Aminobenzamide; LC-ESI-QFT; MS2; CE: 35 NCE; R=35000; [M+H]+
Name: 4-Aminobenzamide
Formula: C7H8N2O
Exact mass: 136.06366
SMILES: C1=CC(=CC=C1C(=O)N)N
InChI: InChI=1S/C7H8N2O/c8-6-3-1-5(2-4-6)7(9)10/h1-4H,8H2,(H2,9,10)
Instrument: Q Exactive Plus Orbitrap Thermo Scientific
Instrument type: LC-ESI-QFT
Ms type: MS2
Ion mode: POSITIVE
Ionization: ESI
Fragmentation mode: HCD
Collision energy: 35  (nominal)
Resolution: 35000
Column name: Kinetex C18 EVO 2.6 um, 2.1x50 mm, precolumn 2.1x5 mm, Phenomenex
Retention time: 0.476 min
Base peak: 152.1432
Precursor m/z: 137.0709
Precursor type: [M+H]+
m/z	relative intensity	assigned
65.0386	4	C5H5+
68.0495	2	C4H6N+
77.0386	1	C6H5+
81.07	1	C6H9+
92.0495	24	C6H6N+
93.0572	1	C6H7N+
94.0651	192	C6H8N+
95.0492	1	C6H7O+
110.0601	4	C6H8NO+
119.0604	1	C7H7N2+
120.0444	999	C7H6NO+
137.0709	313	C7H9N2O+
