Mass spectrum: 3-Methylpyridazine; LC-ESI-QFT; MS2; CE: 35 NCE; R=35000; [M+H]+
Name: 3-Methylpyridazine
Name: 3-methylpyridazine
Formula: C5H6N2
Exact mass: 94.05310
SMILES: CC1=CC=CN=N1
InChI: InChI=1S/C5H6N2/c1-5-3-2-4-6-7-5/h2-4H,1H3
Instrument: Q Exactive Plus Orbitrap Thermo Scientific
Instrument type: LC-ESI-QFT
Ms type: MS2
Ion mode: POSITIVE
Ionization: ESI
Fragmentation mode: HCD
Collision energy: 35  (nominal)
Resolution: 35000
Column name: Kinetex C18 EVO 2.6 um, 2.1x50 mm, precolumn 2.1x5 mm, Phenomenex
Retention time: 0.555 min
Base peak: 95.0602
Precursor m/z: 95.0604
Precursor type: [M+H]+
m/z	relative intensity	assigned
65.0386	2	C5H5+
67.0417	6	C4H5N+
67.0543	1	C5H7+
68.0495	17	C4H6N+
78.0339	2	C5H4N+
95.0603	999	C5H7N2+
