Mass spectrum: Flufenacet; LC-ESI-QFT; MS2; CE: 35 NCE; R=35000; [M+H]+
Name: Flufenacet
Name: N-(4-fluorophenyl)-N-propan-2-yl-2-[[5-(trifluoromethyl)-1,3,4-thiadiazol-2-yl]oxy]acetamide
Formula: C14H13F4N3O2S
Exact mass: 363.06646
SMILES: CC(C)N(C(=O)COc1nnc(s1)C(F)(F)F)c1ccc(F)cc1
InChI: InChI=1S/C14H13F4N3O2S/c1-8(2)21(10-5-3-9(15)4-6-10)11(22)7-23-13-20-19-12(24-13)14(16,17)18/h3-6,8H,7H2,1-2H3
Instrument: Q Exactive Plus Orbitrap Thermo Scientific
Instrument type: LC-ESI-QFT
Ms type: MS2
Ion mode: POSITIVE
Ionization: ESI
Fragmentation mode: HCD
Collision energy: 35  (nominal)
Resolution: 35000
Column name: Kinetex C18 EVO 2.6 um, 2.1x50 mm, precolumn 2.1x5 mm, Phenomenex
Retention time: 11.903 min
Base peak: 284.141
Precursor m/z: 364.0737
Precursor type: [M+H]+
m/z	relative intensity	assigned
57.0701	8	C4H9+
83.0292	1	C5H4F+
97.0448	38	C6H6F+
104.0496	1	C7H6N+
109.0448	149	C7H6F+
110.0401	3	C6H5FN+
112.0557	2	C6H7FN+
123.0241	8	C7H4FO+
124.0557	501	C7H7FN+
125.0396	3	C2H5F2N3O+
132.0443	4	C8H6NO+
135.0604	1	C9H8F+
137.0637	1	C8H8FN+
138.0349	2	C7H5FNO+
152.0507	999	C8H7FNO+
152.087	139	C9H11FN+
166.1027	15	C10H13FN+
194.0977	569	C11H13FNO+
210.9786	1	C5H2F3N2O2S+
364.0739	29	C14H14F4N3O2S+
