Mass spectrum: Fluvoxamine; LC-ESI-QFT; MS2; CE: 35 NCE; R=35000; [M+H]+
Name: Fluvoxamine
Name: 2-[(E)-[5-methoxy-1-[4-(trifluoromethyl)phenyl]pentylidene]amino]oxyethanamine
Formula: C15H21F3N2O2
Exact mass: 318.15551
SMILES: COCCCC\C(=N/OCCN)C1=CC=C(C=C1)C(F)(F)F
InChI: InChI=1S/C15H21F3N2O2/c1-21-10-3-2-4-14(20-22-11-9-19)12-5-7-13(8-6-12)15(16,17)18/h5-8H,2-4,9-11,19H2,1H3/b20-14+
Instrument: Q Exactive Plus Orbitrap Thermo Scientific
Instrument type: LC-ESI-QFT
Ms type: MS2
Ion mode: POSITIVE
Ionization: ESI
Fragmentation mode: HCD
Collision energy: 35  (nominal)
Resolution: 35000
Column name: Kinetex C18 EVO 2.6 um, 2.1x50 mm, precolumn 2.1x5 mm, Phenomenex
Retention time: 9.085 min
Base peak: 319.1624
Precursor m/z: 319.1628
Precursor type: [M+H]+
m/z	relative intensity	assigned
53.0024	2	C3HO+
53.0388	6	C4H5+
55.0544	26	C4H7+
56.0258	6	C3H4O+
57.0701	13	C4H9+
60.0445	3	C2H6NO+
62.0602	30	C2H8NO+
71.0492	999	C4H7O+
87.0804	102	C5H11O+
114.0913	1	C6H12NO+
130.0651	6	C9H8N+
131.073	14	C9H9N+
159.0416	3	C8H6F3+
165.0512	1	C10H7F2+
171.0413	1	C9H6F3+
172.0368	13	C8H5F3N+
174.0529	1	C8H7F3N+
180.0619	12	C10H8F2N+
183.042	2	C10H6F3+
185.0573	3	C10H8F3+
191.0661	1	C12H9F2+
198.0526	6	C10H7F3N+
199.0604	1	C10H8F3N+
199.0729	2	C11H10F3+
200.0682	97	C10H9F3N+
209.0571	2	C12H8F3+
211.06	2	C11H8F3N+
212.0683	2	C11H9F3N+
214.0839	1	C11H11F3N+
224.0683	3	C12H9F3N+
226.0838	56	C12H11F3N+
227.0914	2	C12H12F3N+
228.0994	50	C12H13F3N+
240.099	1	C13H13F3N+
242.0794	1	C12H11F3NO+
242.0912	4	C13H13F3O+
244.0944	22	C12H13F3NO+
258.1102	128	C13H15F3NO+
259.118	66	C13H16F3NO+
260.1258	66	C13H17F3NO+
270.11	3	C14H15F3NO+
272.126	1	C14H17F3NO+
276.121	2	C13H17F3NO2+
302.1366	9	C15H19F3NO2+
319.1629	395	C15H22F3N2O2+
