Mass spectrum: Clothianidin; LC-ESI-QFT; MS2; CE: 35 NCE; R=35000; [M+H]+
Name: Clothianidin
Name: 1-[(2-chloro-1,3-thiazol-5-yl)methyl]-2-methyl-3-nitroguanidine
Formula: C6H8ClN5O2S
Exact mass: 249.00872
SMILES: CN=C(NCC1=CN=C(Cl)S1)N[N+]([O-])=O
InChI: InChI=1S/C6H8ClN5O2S/c1-8-6(11-12(13)14)10-3-4-2-9-5(7)15-4/h2H,3H2,1H3,(H2,8,10,11)
Instrument: Q Exactive Plus Orbitrap Thermo Scientific
Instrument type: LC-ESI-QFT
Ms type: MS2
Ion mode: POSITIVE
Ionization: ESI
Fragmentation mode: HCD
Collision energy: 35  (nominal)
Resolution: 35000
Column name: Kinetex C18 EVO 2.6 um, 2.1x50 mm, precolumn 2.1x5 mm, Phenomenex
Retention time: 5.944 min
Base peak: 230.0067
Precursor m/z: 250.016
Precursor type: [M+H]+
m/z	relative intensity	assigned
57.0449	9	C2H5N2+
58.0527	2	C2H6N2+
63.9949	4	CH3ClN+
69.0448	1	C3H5N2+
70.9951	21	C3H3S+
78.9403	3	CClS+
86.0059	23	C3H4NS+
87.0138	2	C3H5NS+
96.0556	1	C4H6N3+
109.0634	4	C5H7N3+
110.0713	158	C5H8N3+
111.0791	55	C5H9N3+
112.0089	2	C4H4N2S+
113.0168	253	C4H5N2S+
119.967	10	C3H3ClNS+
121.9825	2	C3H5ClNS+
125.0823	2	C5H9N4+
126.012	1	C4H4N3S+
127.0198	7	C4H5N3S+
131.9669	999	C4H3ClNS+
132.9748	4	C4H4ClNS+
135.0664	1	C6H7N4+
141.0354	1	C5H7N3S+
142.0434	17	C5H8N3S+
143.051	7	C5H9N3S+
145.9701	1	C4H3ClN2S+
146.9778	31	C4H4ClN2S+
147.9617	2	C4H3ClNOS+
147.9856	21	C4H5ClN2S+
148.9935	4	C4H6ClN2S+
152.0277	2	C6H6N3S+
153.023	10	C5H5N4S+
167.0387	10	C6H7N4S+
168.0464	229	C6H8N4S+
169.0542	998	C6H9N4S+
172.981	12	C5H4ClN3S+
174.9728	31	C5H4ClN2OS+
186.9967	2	C6H6ClN3S+
203.0154	5	C6H8ClN4S+
204.0232	24	C6H9ClN4S+
206.0151	31	C6H9ClN3OS+
220.0182	5	C6H9ClN4OS+
250.0161	82	C6H9ClN5O2S+
