Mass spectrum: Isoproturon; LC-ESI-QFT; MS2; CE: 35 NCE; R=35000; [M+H]+
Name: Isoproturon
Name: 1,1-dimethyl-3-(4-propan-2-ylphenyl)urea
Formula: C12H18N2O
Exact mass: 206.14191
SMILES: CC(C)c1ccc(NC(=O)N(C)C)cc1
InChI: InChI=1S/C12H18N2O/c1-9(2)10-5-7-11(8-6-10)13-12(15)14(3)4/h5-9H,1-4H3,(H,13,15)
Instrument: Q Exactive Plus Orbitrap Thermo Scientific
Instrument type: LC-ESI-QFT
Ms type: MS2
Ion mode: POSITIVE
Ionization: ESI
Fragmentation mode: HCD
Collision energy: 35  (nominal)
Resolution: 35000
Column name: Kinetex C18 EVO 2.6 um, 2.1x50 mm, precolumn 2.1x5 mm, Phenomenex
Retention time: 10.106 min
Base peak: 207.1489
Precursor m/z: 207.1492
Precursor type: [M+H]+
m/z	relative intensity	assigned
56.0132	1	C2H2NO+
72.0444	999	C3H6NO+
91.0542	1	C7H7+
92.0495	1	C6H6N+
107.0856	2	C8H11+
120.0444	7	C7H6NO+
134.0964	32	C9H12N+
162.0913	12	C10H12NO+
165.1023	160	C9H13N2O+
207.1492	822	C12H19N2O+
