Mass spectrum: Pantoprazole; LC-ESI-QFT; MS2; CE: 35 NCE; R=35000; [M+H]+
Name: Pantoprazole
Name: 6-(difluoromethoxy)-2-[(3,4-dimethoxypyridin-2-yl)methylsulfinyl]-1H-benzimidazole
Formula: C16H15F2N3O4S
Exact mass: 383.07513
SMILES: COC1=CC=NC(CS(=O)C2=NC3=CC=C(OC(F)F)C=C3N2)=C1OC
InChI: InChI=1S/C16H15F2N3O4S/c1-23-13-5-6-19-12(14(13)24-2)8-26(22)16-20-10-4-3-9(25-15(17)18)7-11(10)21-16/h3-7,15H,8H2,1-2H3,(H,20,21)
Instrument: Q Exactive Plus Orbitrap Thermo Scientific
Instrument type: LC-ESI-QFT
Ms type: MS2
Ion mode: POSITIVE
Ionization: ESI
Fragmentation mode: HCD
Collision energy: 35  (nominal)
Resolution: 35000
Column name: Kinetex C18 EVO 2.6 um, 2.1x50 mm, precolumn 2.1x5 mm, Phenomenex
Retention time: 8.773 min
Base peak: 384.0824
Precursor m/z: 384.0824
Precursor type: [M+H]+
m/z	relative intensity	assigned
92.0495	7	C6H6N+
93.0574	7	C6H7N+
107.0731	64	C7H9N+
108.0447	5	C6H6NO+
110.0602	17	C6H8NO+
122.0603	35	C7H8NO+
136.0395	24	C7H6NO2+
138.055	999	C7H8NO2+
139.0091	5	C6H5NOS+
152.0708	38	C8H10NO2+
153.0785	223	C8H11NO2+
153.996	7	C6H4NO2S+
154.05	26	C7H8NO3+
167.0037	21	C7H5NO2S+
168.0658	30	C8H10NO3+
170.0812	23	C8H12NO3+
181.0193	4	C8H7NO2S+
182.0271	9	C8H8NO2S+
185.0527	8	C2H13F2NO4S+
200.0378	866	C8H10NO3S+
215.0082	5	C8H5F2N2OS+
224.1099	4	C9H16F2NO3+
384.0828	84	C16H16F2N3O4S+
