Mass spectrum: Captopril; LC-ESI-QFT; MS2; CE: 35 NCE; R=35000; [M-H]-
Name: Captopril
Name: (2S)-1-[(2S)-2-methyl-3-sulfanylpropanoyl]pyrrolidine-2-carboxylic acid
Formula: C9H15NO3S
Exact mass: 217.07726
SMILES: C[C@H](CS)C(=O)N1CCC[C@H]1C(O)=O
InChI: InChI=1S/C9H15NO3S/c1-6(5-14)8(11)10-4-2-3-7(10)9(12)13/h6-7,14H,2-5H2,1H3,(H,12,13)/t6-,7+/m1/s1
Instrument: Q Exactive Plus Orbitrap Thermo Scientific
Instrument type: LC-ESI-QFT
Ms type: MS2
Ion mode: NEGATIVE
Ionization: ESI
Fragmentation mode: HCD
Collision energy: 35  (nominal)
Resolution: 35000
Column name: Kinetex C18 EVO 2.6 um, 2.1x50 mm, precolumn 2.1x5 mm, Phenomenex
Retention time: 5.838 min
Base peak: 216.07
Precursor m/z: 216.07
Precursor type: [M-H]-
m/z	relative intensity	assigned
126.092	24	C7H12NO-
130.033	33	C5H8NOS-
138.0926	59	C8H12NO-
170.0823	45	C8H12NO3-
182.0823	999	C9H12NO3-
216.0704	164	C9H14NO3S-
