Mass spectrum: N-Methylaniline; LC-ESI-QFT; MS2; CE: 35 NCE; R=35000; [M+H]+
Name: N-Methylaniline
Formula: C7H9N
Exact mass: 107.07350
SMILES: CNC1=CC=CC=C1
InChI: InChI=1S/C7H9N/c1-8-7-5-3-2-4-6-7/h2-6,8H,1H3
Instrument: Q Exactive Plus Orbitrap Thermo Scientific
Instrument type: LC-ESI-QFT
Ms type: MS2
Ion mode: POSITIVE
Ionization: ESI
Fragmentation mode: HCD
Collision energy: 35  (nominal)
Resolution: 35000
Column name: Kinetex C18 EVO 2.6 um, 2.1x50 mm, precolumn 2.1x5 mm, Phenomenex
Retention time: 0.476 min
Base peak: 152.1432
Precursor m/z: 108.0808
Precursor type: [M+H]+
m/z	relative intensity	assigned
66.0465	1	C5H6+
80.0495	1	C5H6N+
91.0542	6	C7H7+
92.0494	1	C6H6N+
93.0573	999	C6H7N+
108.0807	974	C7H10N+
