Mass spectrum: Orlistat; LC-ESI-QFT; MS2; CE: 35 NCE; R=35000; [M+H]+
Name: Orlistat
Name: [(2S)-1-[(2S,3S)-3-hexyl-4-oxooxetan-2-yl]tridecan-2-yl] (2S)-2-formamido-4-methylpentanoate
Formula: C29H53NO5
Exact mass: 495.39237
SMILES: CCCCCCCCCCC[C@@H](C[C@@H]1OC(=O)[C@H]1CCCCCC)OC(=O)[C@H](CC(C)C)NC=O
InChI: InChI=1S/C29H53NO5/c1-5-7-9-11-12-13-14-15-16-18-24(34-29(33)26(30-22-31)20-23(3)4)21-27-25(28(32)35-27)19-17-10-8-6-2/h22-27H,5-21H2,1-4H3,(H,30,31)/t24-,25-,26-,27-/m0/s1
Instrument: Q Exactive Plus Orbitrap Thermo Scientific
Instrument type: LC-ESI-QFT
Ms type: MS2
Ion mode: POSITIVE
Ionization: ESI
Fragmentation mode: HCD
Collision energy: 35  (nominal)
Resolution: 35000
Column name: Kinetex C18 EVO 2.6 um, 2.1x50 mm, precolumn 2.1x5 mm, Phenomenex
Retention time: 15.627 min
Base peak: 496.3996
Precursor m/z: 496.3997
Precursor type: [M+H]+
m/z	relative intensity	assigned
55.0545	106	C4H7+
57.0701	80	C4H9+
58.0289	8	C2H4NO+
67.0543	271	C5H7+
69.07	522	C5H9+
71.0493	3	C4H7O+
71.0856	62	C5H11+
72.0445	10	C3H6NO+
79.0543	45	C6H7+
81.0699	422	C6H9+
83.0492	14	C5H7O+
83.0855	188	C6H11+
85.0648	4	C5H9O+
85.1012	31	C6H13+
86.0965	161	C5H12N+
91.0542	28	C7H7+
93.0699	58	C7H9+
95.0855	507	C7H11+
97.0649	15	C6H9O+
97.1012	175	C7H13+
99.0806	3	C6H11O+
105.0699	37	C8H9+
107.0856	43	C8H11+
108.0041	2	H2N3O4+
109.0648	77	C7H9O+
109.1012	238	C8H13+
111.1169	73	C8H15+
113.0961	10	C7H13O+
114.0914	538	C6H12NO+
119.0856	26	C9H11+
121.1013	49	C9H13+
123.0806	15	C8H11O+
123.1168	111	C9H15+
125.1323	20	C9H17+
127.1117	3	C8H15O+
132.1019	103	C6H14NO2+
133.1012	28	C10H13+
135.1124	3	C5H15N2O2+
135.1167	26	C10H15+
137.096	3	C9H13O+
137.1324	64	C10H17+
142.0863	187	C7H12NO2+
147.117	6	C11H15+
149.1324	19	C11H17+
151.1482	40	C11H19+
160.0969	578	C7H14NO3+
161.1327	12	C12H17+
163.1482	12	C12H19+
165.1637	26	C12H21+
167.1431	21	C11H19O+
175.1484	19	C13H19+
177.1639	14	C13H21+
179.1431	87	C12H19O+
179.1795	19	C13H23+
181.1588	12	C12H21O+
189.1641	26	C14H21+
191.1794	37	C14H23+
193.1589	23	C13H21O+
193.1952	130	C14H25+
198.2092	2	C12H26N2+
203.18	11	C15H23+
205.1953	11	C15H25+
207.1747	10	C14H23O+
207.2109	10	C15H27+
211.169	3	C13H23O2+
211.2058	18	C14H27O+
217.195	23	C16H25+
219.2106	4	C16H27+
221.1901	13	C15H25O+
223.1206	2	C12H17NO3+
231.2112	12	C17H27+
235.2057	13	C16H27O+
238.0704	2	C11H12NO5+
241.0062	2	C20H+
245.2261	3	C18H29+
246.3037	2	C15H38N2+
249.2213	4	C17H29O+
291.3048	106	C21H39+
295.2626	3	C19H35O2+
301.2893	151	C22H37+
319.2998	999	C22H39O+
329.076	2	C16H13N2O6+
337.3103	345	C22H41O2+
370.2957	4	C21H40NO4+
409.216	2	C29H29O2+
447.3471	48	C28H47O4+
448.3503	16	C23H48N2O6+
468.4037	4	C28H54NO4+
496.4003	19	C29H54NO5+
