Mass spectrum: Prednisone; LC-ESI-QFT; MS2; CE: 35 NCE; R=35000; [M-H]-
Name: Prednisone
Name: Fernisone
Name: 17-hydroxy-17-(2-hydroxyacetyl)-10,13-dimethyl-6,7,8,9,12,14,15,16-octahydrocyclopenta[a]phenanthrene-3,11-dione
Formula: C21H26O5
Exact mass: 358.17802
SMILES: CC12CC(=O)C3C(CCC4=CC(=O)C=CC34C)C1CCC2(O)C(=O)CO
InChI: InChI=1S/C21H26O5/c1-19-7-5-13(23)9-12(19)3-4-14-15-6-8-21(26,17(25)11-22)20(15,2)10-16(24)18(14)19/h5,7,9,14-15,18,22,26H,3-4,6,8,10-11H2,1-2H3
Instrument: Q Exactive Plus Orbitrap Thermo Scientific
Instrument type: LC-ESI-QFT
Ms type: MS2
Ion mode: NEGATIVE
Ionization: ESI
Fragmentation mode: HCD
Collision energy: 35  (nominal)
Resolution: 35000
Column name: Kinetex C18 EVO 2.6 um, 2.1x50 mm, precolumn 2.1x5 mm, Phenomenex
Retention time: 9.577 min
Base peak: 403.176
Precursor m/z: 357.1707
Precursor type: [M-H]-
m/z	relative intensity	assigned
96.9775	33	HO6-
123.0446	168	C7H7O2-
125.0607	34	C7H9O2-
145.0656	39	C10H9O-
149.0608	73	C9H9O2-
201.0924	35	C13H13O2-
285.1504	70	C18H21O3-
299.1656	198	C19H23O3-
324.1369	46	C20H20O4-
327.1602	999	C20H23O4-
