Mass spectrum: Pentoxifylline; LC-ESI-QFT; MS2; CE: 35 NCE; R=35000; [M+H]+
Name: Pentoxifylline
Name: 3,7-dimethyl-1-(5-oxohexyl)purine-2,6-dione
Formula: C13H18N4O3
Exact mass: 278.13789
SMILES: CN1c2ncn(C)c2C(=O)N(CCCCC(C)=O)C1=O
InChI: InChI=1S/C13H18N4O3/c1-9(18)6-4-5-7-17-12(19)10-11(14-8-15(10)2)16(3)13(17)20/h8H,4-7H2,1-3H3
Instrument: Q Exactive Plus Orbitrap Thermo Scientific
Instrument type: LC-ESI-QFT
Ms type: MS2
Ion mode: POSITIVE
Ionization: ESI
Fragmentation mode: HCD
Collision energy: 35  (nominal)
Resolution: 35000
Column name: Kinetex C18 EVO 2.6 um, 2.1x50 mm, precolumn 2.1x5 mm, Phenomenex
Retention time: 7.982 min
Base peak: 279.1449
Precursor m/z: 279.1452
Precursor type: [M+H]+
m/z	relative intensity	assigned
67.0292	2	C3H3N2+
69.0448	5	C3H5N2+
79.0543	1	C6H7+
81.0698	7	C6H9+
83.0604	19	C4H7N2+
96.0557	2	C4H6N3+
99.0805	369	C6H11O+
108.0556	5	C5H6N3+
110.0713	79	C5H8N3+
112.0869	34	C5H10N3+
135.0665	9	C6H7N4+
137.0822	20	C6H9N4+
138.0662	196	C6H8N3O+
149.0235	1	C8H5O3+
156.0768	36	C6H10N3O2+
163.0613	13	C7H7N4O+
181.072	875	C7H9N4O2+
193.0722	10	C8H9N4O2+
221.1038	5	C10H13N4O2+
279.1453	999	C13H19N4O3+
