Mass spectrum: Fenoxycarb; LC-ESI-QFT; MS2; CE: 35 NCE; R=35000; [M+H]+
Name: Fenoxycarb
Name: ethyl N-[2-(4-phenoxyphenoxy)ethyl]carbamate
Formula: C17H19NO4
Exact mass: 301.13141
SMILES: CCOC(=O)NCCOC1=CC=C(OC2=CC=CC=C2)C=C1
InChI: InChI=1S/C17H19NO4/c1-2-20-17(19)18-12-13-21-14-8-10-16(11-9-14)22-15-6-4-3-5-7-15/h3-11H,2,12-13H2,1H3,(H,18,19)
Instrument: Q Exactive Plus Orbitrap Thermo Scientific
Instrument type: LC-ESI-QFT
Ms type: MS2
Ion mode: POSITIVE
Ionization: ESI
Fragmentation mode: HCD
Collision energy: 35  (nominal)
Resolution: 35000
Column name: Kinetex C18 EVO 2.6 um, 2.1x50 mm, precolumn 2.1x5 mm, Phenomenex
Retention time: 12.301 min
Base peak: 306.1032
Precursor m/z: 302.1387
Precursor type: [M+H]+
m/z	relative intensity	assigned
66.0465	2	C5H6+
70.0288	20	C3H4NO+
88.0393	999	C3H6NO2+
91.0543	1	C7H7+
94.0414	8	C6H6O+
107.0492	3	C7H7O+
116.0707	494	C5H10NO2+
118.0414	2	C8H6O+
119.0493	2	C8H7O+
120.057	5	C8H8O+
129.0699	3	C10H9+
134.0362	2	C8H6O2+
141.0698	2	C11H9+
163.0629	6	C9H9NO2+
167.0855	2	C13H11+
169.0648	2	C12H9O+
177.07	1	C14H9+
183.0808	5	C13H11O+
185.0598	3	C12H9O2+
186.0675	6	C12H10O2+
187.0756	2	C12H11O2+
195.0805	3	C14H11O+
211.0752	7	C14H11O2+
213.0546	9	C13H9O3+
213.091	3	C14H13O2+
230.1178	1	C14H16NO2+
238.0863	2	C15H12NO2+
256.0969	114	C15H14NO3+
302.1389	73	C17H20NO4+
