Mass spectrum: Ketoconazole; LC-ESI-QFT; MS2; CE: 35 NCE; R=35000; [M+H]+
Name: Ketoconazole
Name: 1-[4-[4-[[(2S,4R)-2-(2,4-dichlorophenyl)-2-(imidazol-1-ylmethyl)-1,3-dioxolan-4-yl]methoxy]phenyl]piperazin-1-yl]ethanone
Formula: C26H28Cl2N4O4
Exact mass: 530.14876
SMILES: CC(=O)N1CCN(CC1)c1ccc(OC[C@@H]2CO[C@](Cn3ccnc3)(O2)c2ccc(Cl)cc2Cl)cc1
InChI: InChI=1S/C26H28Cl2N4O4/c1-19(33)31-10-12-32(13-11-31)21-3-5-22(6-4-21)34-15-23-16-35-26(36-23,17-30-9-8-29-18-30)24-7-2-20(27)14-25(24)28/h2-9,14,18,23H,10-13,15-17H2,1H3/t23-,26-/m1/s1
Instrument: Q Exactive Plus Orbitrap Thermo Scientific
Instrument type: LC-ESI-QFT
Ms type: MS2
Ion mode: POSITIVE
Ionization: ESI
Fragmentation mode: HCD
Collision energy: 35  (nominal)
Resolution: 35000
Column name: Kinetex C18 EVO 2.6 um, 2.1x50 mm, precolumn 2.1x5 mm, Phenomenex
Retention time: 9.348 min
Base peak: 531.1559
Precursor m/z: 531.156
Precursor type: [M+H]+
m/z	relative intensity	assigned
54.034	3	C3H4N+
56.0496	5	C3H6N+
58.0652	1	C3H8N+
68.037	4	C3H4N2+
69.0448	19	C3H5N2+
70.0652	12	C4H8N+
71.0604	17	C3H7N2+
81.0447	72	C4H5N2+
82.0525	244	C4H6N2+
83.0603	6	C4H7N2+
86.06	14	C4H8NO+
107.0491	2	C7H7O+
107.0604	1	C6H7N2+
109.0759	1	C6H9N2+
112.0757	80	C6H10NO+
113.0707	1	C5H9N2O+
118.0651	3	C8H8N+
120.0444	11	C7H6NO+
120.0808	3	C8H10N+
122.06	11	C7H8NO+
127.0501	4	C5H7N2O2+
129.0696	1	C10H9+
130.0652	2	C9H8N+
131.0492	1	C9H7O+
131.0729	1	C9H9N+
132.0807	4	C9H10N+
133.0647	1	C9H9O+
134.06	9	C8H8NO+
135.0678	54	C8H9NO+
136.0756	20	C8H10NO+
144.0808	10	C10H10N+
145.0649	1	C10H9O+
145.0887	5	C10H11N+
146.0601	6	C9H8NO+
146.0964	14	C10H12N+
148.0756	40	C9H10NO+
149.015	1	C9H6Cl+
150.0229	3	C9H7Cl+
156.0807	3	C11H10N+
158.0964	4	C11H12N+
158.9763	19	C7H5Cl2+
160.0757	4	C10H10NO+
161.0832	1	C10H11NO+
162.0911	2	C10H12NO+
163.0308	3	C10H8Cl+
163.123	4	C10H15N2+
167.0257	4	C9H8ClO+
167.0816	31	C8H11N2O2+
169.9685	13	C8H4Cl2+
172.0756	7	C11H10NO+
172.112	2	C12H14N+
172.9555	16	C7H3Cl2O+
173.0836	1	C11H11NO+
174.0914	39	C11H12NO+
176.0945	1	C10H12N2O+
177.1022	53	C10H13N2O+
178.1102	11	C10H14N2O+
179.0257	1	C10H8ClO+
184.992	14	C9H7Cl2+
185.9634	36	C8H4Cl2O+
186.971	2	C8H5Cl2O+
188.1071	3	C12H14NO+
189.1383	5	C5H27Cl2O2+
190.0867	1	C8H15ClN2O+
192.1017	5	C11H14NO2+
200.1071	5	C13H14NO+
202.9661	4	C8H5Cl2O2+
203.0371	10	C11H8ClN2+
204.1021	3	C12H14NO2+
205.0971	2	C11H13N2O2+
205.1339	1	C9H20ClN3+
209.0366	8	C11H10ClO2+
215.118	3	C13H15N2O+
216.1019	17	C13H14NO2+
216.1256	3	C13H16N2O+
217.1336	44	C13H17N2O+
218.1177	1	C13H16NO2+
219.1128	49	C12H15N2O2+
220.1206	34	C12H16N2O2+
233.0478	1	C12H10ClN2O+
233.1287	1	C10H20ClN3O+
234.1126	8	C13H16NO3+
235.1442	17	C13H19N2O2+
238.0058	13	C11H8Cl2N2+
239.0136	2	C11H9Cl2N2+
244.0053	72	C11H10Cl2O2+
247.0633	5	C13H12ClN2O+
247.1442	1	C14H19N2O2+
255.0086	70	C11H9Cl2N2O+
259.144	6	C15H19N2O2+
267.0087	30	C12H9Cl2N2O+
268.0163	3	C12H10Cl2N2O+
277.1546	1	C15H21N2O3+
281.0245	5	C13H11Cl2N2O+
282.0323	9	C13H12Cl2N2O+
311.035	7	C14H13Cl2N2O2+
378.0656	4	C19H18Cl2NO3+
420.0765	3	C21H20Cl2NO4+
421.1079	6	C21H23Cl2N2O3+
446.1031	6	C22H22Cl2N3O3+
489.1457	97	C24H27Cl2N4O3+
531.1563	999	C26H29Cl2N4O4+
