Mass spectrum: 2-Naphthalene sulfonic acid; LC-ESI-QFT; MS2; CE: 35 NCE; R=35000; [M-H]-
Name: 2-Naphthalene sulfonic acid
Name: Naphthalene-2-sulfonic acid
Formula: C10H8O3S
Exact mass: 208.01942
SMILES: OS(=O)(=O)C1=CC2=CC=CC=C2C=C1
InChI: InChI=1S/C10H8O3S/c11-14(12,13)10-6-5-8-3-1-2-4-9(8)7-10/h1-7H,(H,11,12,13)
Instrument: Q Exactive Plus Orbitrap Thermo Scientific
Instrument type: LC-ESI-QFT
Ms type: MS2
Ion mode: NEGATIVE
Ionization: ESI
Fragmentation mode: HCD
Collision energy: 35  (nominal)
Resolution: 35000
Column name: Kinetex C18 EVO 2.6 um, 2.1x50 mm, precolumn 2.1x5 mm, Phenomenex
Retention time: 8.502 min
Base peak: 207.0121
Precursor m/z: 207.0121
Precursor type: [M-H]-
m/z	relative intensity	assigned
118.9924	2	C2H3N2O2S-
143.0502	245	C10H7O-
207.0122	999	C10H7O3S-
