Mass spectrum: Lauryl diethanolamide; LC-ESI-QFT; MS2; CE: 35 NCE; R=35000; [M+H]+
Name: Lauryl diethanolamide
Name: N,N-bis(2-hydroxyethyl)dodecanamide
Formula: C16H33NO3
Exact mass: 287.24604
SMILES: CCCCCCCCCCCC(=O)N(CCO)CCO
InChI: InChI=1S/C16H33NO3/c1-2-3-4-5-6-7-8-9-10-11-16(20)17(12-14-18)13-15-19/h18-19H,2-15H2,1H3
Instrument: Q Exactive Plus Orbitrap Thermo Scientific
Instrument type: LC-ESI-QFT
Ms type: MS2
Ion mode: POSITIVE
Ionization: ESI
Fragmentation mode: HCD
Collision energy: 35  (nominal)
Resolution: 35000
Column name: Kinetex C18 EVO 2.6 um, 2.1x50 mm, precolumn 2.1x5 mm, Phenomenex
Retention time: 12.948 min
Base peak: 288.253
Precursor m/z: 288.2533
Precursor type: [M+H]+
m/z	relative intensity	assigned
55.0544	2	C4H7+
57.0701	43	C4H9+
67.0543	9	C5H7+
68.0495	2	C4H6N+
69.07	2	C5H9+
70.0652	154	C4H8N+
71.0856	27	C5H11+
73.0284	2	C3H5O2+
81.0699	11	C6H9+
83.0855	7	C6H11+
85.1012	13	C6H13+
88.0757	558	C4H10NO+
95.0855	23	C7H11+
97.1012	4	C7H13+
106.0862	999	C4H12NO2+
109.1011	10	C8H13+
123.1167	1	C9H15+
183.1743	2	C12H23O+
226.2162	3	C14H28NO+
227.2005	193	C14H27O2+
270.2427	37	C16H32NO2+
288.2533	470	C16H34NO3+
