Mass spectrum: fluconazole; LC-ESI-QFT; MS2; CE: 35 NCE; R=35000; [M-H]-
Name: fluconazole
Name: 2-(2,4-difluorophenyl)-1,3-bis(1,2,4-triazol-1-yl)propan-2-ol
Formula: C13H12F2N6O
Exact mass: 306.10407
SMILES: OC(Cn1cncn1)(Cn1cncn1)c1ccc(F)cc1F
InChI: InChI=1S/C13H12F2N6O/c14-10-1-2-11(12(15)3-10)13(22,4-20-8-16-6-18-20)5-21-9-17-7-19-21/h1-3,6-9,22H,4-5H2
Instrument: Q Exactive Plus Orbitrap Thermo Scientific
Instrument type: LC-ESI-QFT
Ms type: MS2
Ion mode: NEGATIVE
Ionization: ESI
Fragmentation mode: HCD
Collision energy: 35  (nominal)
Resolution: 35000
Column name: Kinetex C18 EVO 2.6 um, 2.1x50 mm, precolumn 2.1x5 mm, Phenomenex
Retention time: 7.170 min
Base peak: 351.1022
Precursor m/z: 305.0968
Precursor type: [M-H]-
m/z	relative intensity	assigned
92.0819	6	H8N6-
108.0192	45	C2N6-
111.0427	5	C2H3N6-
122.0354	37	FH3N6O-
149.0577	6	C5H5N6-
191.0687	999	C7H7N6O-
