Mass spectrum: Climbazole; LC-ESI-QFT; MS2; CE: 35 NCE; R=35000; [M+H]+
Name: Climbazole
Name: 1-(4-chlorophenoxy)-1-imidazol-1-yl-3,3-dimethylbutan-2-one
Formula: C15H17ClN2O2
Exact mass: 292.09786
SMILES: CC(C)(C)C(=O)C(N1C=CN=C1)Oc1ccc(Cl)cc1
InChI: InChI=1S/C15H17ClN2O2/c1-15(2,3)13(19)14(18-9-8-17-10-18)20-12-6-4-11(16)5-7-12/h4-10,14H,1-3H3
Instrument: Q Exactive Plus Orbitrap Thermo Scientific
Instrument type: LC-ESI-QFT
Ms type: MS2
Ion mode: POSITIVE
Ionization: ESI
Fragmentation mode: HCD
Collision energy: 35  (nominal)
Resolution: 35000
Column name: Kinetex C18 EVO 2.6 um, 2.1x50 mm, precolumn 2.1x5 mm, Phenomenex
Retention time: 9.019 min
Base peak: 293.105
Precursor m/z: 293.1051
Precursor type: [M+H]+
m/z	relative intensity	assigned
53.0024	2	C3HO+
55.0544	4	C4H7+
57.0701	162	C4H9+
67.0543	11	C5H7+
69.07	730	C5H9+
70.0778	39	C5H10+
81.0448	5	C4H5N2+
82.0526	46	C4H6N2+
85.0648	2	C5H9O+
87.0804	1	C5H11O+
95.0491	1	C6H7O+
95.0603	2	C5H7N2+
98.9997	10	C5H4Cl+
103.0309	8	C5H8Cl+
109.0397	47	C5H5N2O+
110.9998	1	C6H4Cl+
113.0153	16	C6H6Cl+
115.0754	100	C6H11O2+
124.0631	3	C6H8N2O+
125.0151	1	C7H6Cl+
126.9946	67	C6H4ClO+
129.0102	108	C6H6ClO+
137.1073	30	C8H13N2+
139.0057	6	C6H4ClN2+
141.0102	156	C7H6ClO+
155.0258	61	C8H8ClO+
159.0206	2	C7H8ClO2+
161.0961	7	C11H13O+
162.1041	1	C11H14O+
165.1023	4	C9H13N2O+
166.1102	33	C9H14N2O+
190.0986	3	C12H14O2+
197.0729	426	C11H14ClO+
225.0677	18	C12H14ClO2+
293.1053	999	C15H18ClN2O2+
