Mass spectrum: Anthranilic acid; LC-ESI-QFT; MS2; CE: 35 NCE; R=35000; [M+H]+
Name: Anthranilic acid
Name: 2-Azaniumylbenzoate
Formula: C7H7NO2
Exact mass: 137.04768
SMILES: NC1=CC=CC=C1C(O)=O
InChI: InChI=1S/C7H7NO2/c8-6-4-2-1-3-5(6)7(9)10/h1-4H,8H2,(H,9,10)
Instrument: Q Exactive Plus Orbitrap Thermo Scientific
Instrument type: LC-ESI-QFT
Ms type: MS2
Ion mode: POSITIVE
Ionization: ESI
Fragmentation mode: HCD
Collision energy: 35  (nominal)
Resolution: 35000
Column name: Kinetex C18 EVO 2.6 um, 2.1x50 mm, precolumn 2.1x5 mm, Phenomenex
Retention time: 2.564 min
Base peak: 120.0443
Precursor m/z: 138.055
Precursor type: [M+H]+
m/z	relative intensity	assigned
65.0386	6	C5H5+
92.0495	64	C6H6N+
120.0444	999	C7H6NO+
138.0549	14	C7H8NO2+
