Mass spectrum: Irbesartan; LC-ESI-QFT; MS2; CE: 35 NCE; R=35000; [M+H]+
Name: Irbesartan
Name: 2-butyl-3-[[4-[2-(2H-tetrazol-5-yl)phenyl]phenyl]methyl]-1,3-diazaspiro[4.4]non-1-en-4-one
Formula: C25H28N6O
Exact mass: 428.23246
SMILES: CCCCC1=NC2(CCCC2)C(=O)N1Cc1ccc(-c2ccccc2C2NN=NN=2)cc1
InChI: InChI=1S/C25H28N6O/c1-2-3-10-22-26-25(15-6-7-16-25)24(32)31(22)17-18-11-13-19(14-12-18)20-8-4-5-9-21(20)23-27-29-30-28-23/h4-5,8-9,11-14H,2-3,6-7,10,15-17H2,1H3,(H,27,28,29,30)
Instrument: Q Exactive Plus Orbitrap Thermo Scientific
Instrument type: LC-ESI-QFT
Ms type: MS2
Ion mode: POSITIVE
Ionization: ESI
Fragmentation mode: HCD
Collision energy: 35  (nominal)
Resolution: 35000
Column name: Kinetex C18 EVO 2.6 um, 2.1x50 mm, precolumn 2.1x5 mm, Phenomenex
Retention time: 10.959 min
Base peak: 429.2396
Precursor m/z: 429.2397
Precursor type: [M+H]+
m/z	relative intensity	assigned
67.0544	3	C5H7+
79.0543	8	C6H7+
80.0495	7	C5H6N+
84.0808	80	C5H10N+
95.0493	3	C6H7O+
112.0759	4	C6H10NO+
129.0449	3	C8H5N2+
140.0494	3	C10H6N+
152.0621	5	C12H8+
153.07	12	C12H9+
165.0698	6	C13H9+
166.0778	2	C13H10+
167.0729	4	C12H9N+
167.1543	22	C10H19N2+
169.0648	1	C12H9O+
178.0653	11	C13H8N+
179.0604	2	C12H7N2+
179.073	14	C13H9N+
180.0809	148	C13H10N+
181.0763	1	C12H9N2+
190.0652	22	C14H8N+
191.0729	3	C14H9N+
192.0683	29	C13H8N2+
192.0809	53	C14H10N+
194.06	5	C13H8NO+
195.1494	155	C11H19N2O+
196.0758	20	C13H10NO+
205.0762	44	C14H9N2+
206.0841	133	C14H10N2+
207.0918	999	C14H11N2+
208.0758	10	C14H10NO+
235.098	10	C14H11N4+
386.2231	31	C25H28N3O+
401.2339	22	C25H29N4O+
429.2402	729	C25H29N6O+
