Mass spectrum: Ametryn; LC-ESI-QFT; MS2; CE: 35 NCE; R=35000; [M+H]+
Name: Ametryn
Name: 4-N-ethyl-6-methylsulfanyl-2-N-propan-2-yl-1,3,5-triazine-2,4-diamine
Formula: C9H17N5S
Exact mass: 227.12047
SMILES: CCNc1nc(NC(C)C)nc(SC)n1
InChI: InChI=1S/C9H17N5S/c1-5-10-7-12-8(11-6(2)3)14-9(13-7)15-4/h6H,5H2,1-4H3,(H2,10,11,12,13,14)
Instrument: Q Exactive Plus Orbitrap Thermo Scientific
Instrument type: LC-ESI-QFT
Ms type: MS2
Ion mode: POSITIVE
Ionization: ESI
Fragmentation mode: HCD
Collision energy: 35  (nominal)
Resolution: 35000
Column name: Kinetex C18 EVO 2.6 um, 2.1x50 mm, precolumn 2.1x5 mm, Phenomenex
Retention time: 8.784 min
Base peak: 228.1274
Precursor m/z: 228.1277
Precursor type: [M+H]+
m/z	relative intensity	assigned
68.0244	30	C2H2N3+
71.0604	42	C3H7N2+
74.0059	9	C2H4NS+
85.0509	5	C2H5N4+
85.076	3	C4H9N2+
91.0324	76	C2H7N2S+
96.0556	98	C4H6N3+
102.0372	5	C4H8NS+
110.0461	2	C3H4N5+
110.0712	1	C5H8N3+
113.0821	11	C4H9N4+
116.0277	42	C3H6N3S+
138.0774	37	C5H8N5+
138.1025	17	C7H12N3+
144.059	27	C5H10N3S+
158.0495	34	C4H8N5S+
158.0748	2	C6H12N3S+
180.1244	2	C8H14N5+
186.0808	551	C6H12N5S+
200.0967	1	C7H14N5S+
228.1278	999	C9H18N5S+
