Mass spectrum: Hexachlorophene; LC-ESI-QFT; MS2; CE: 35 NCE; R=35000; [M-H]-
Name: Hexachlorophene
Name: Hexachlorophen
Name: 3,4,6-trichloro-2-[(2,3,5-trichloro-6-hydroxyphenyl)methyl]phenol
Formula: C13H6Cl6O2
Exact mass: 403.84990
SMILES: OC1=C(CC2=C(Cl)C(Cl)=CC(Cl)=C2O)C(Cl)=C(Cl)C=C1Cl
InChI: InChI=1S/C13H6Cl6O2/c14-6-2-8(16)12(20)4(10(6)18)1-5-11(19)7(15)3-9(17)13(5)21/h2-3,20-21H,1H2
Instrument: Q Exactive Plus Orbitrap Thermo Scientific
Instrument type: LC-ESI-QFT
Ms type: MS2
Ion mode: NEGATIVE
Ionization: ESI
Fragmentation mode: HCD
Collision energy: 35  (nominal)
Resolution: 35000
Column name: Kinetex C18 EVO 2.6 um, 2.1x50 mm, precolumn 2.1x5 mm, Phenomenex
Retention time: 14.274 min
Base peak: 91.0021
Precursor m/z: 402.8426
Precursor type: [M-H]-
m/z	relative intensity	assigned
132.9615	2	C5H3Cl2-
158.941	124	C6HCl2O-
194.9176	995	C6H2Cl3O-
252.9344	1	C7H4Cl3N2O2-
266.9179	3	C12H2Cl3O-
302.8943	68	C12H3Cl4O-
330.8891	6	C13H3Cl4O2-
366.8657	275	C13H4Cl5O2-
402.8425	999	C13H5Cl6O2-
