Mass spectrum: Simazine; LC-ESI-QFT; MS2; CE: 35 NCE; R=35000; [M+H]+
Name: Simazine
Name: 6-chloro-2-N,4-N-diethyl-1,3,5-triazine-2,4-diamine
Formula: C7H12ClN5
Exact mass: 201.07812
SMILES: CCNc1nc(Cl)nc(NCC)n1
InChI: InChI=1S/C7H12ClN5/c1-3-9-6-11-5(8)12-7(13-6)10-4-2/h3-4H2,1-2H3,(H2,9,10,11,12,13)
Instrument: Q Exactive Plus Orbitrap Thermo Scientific
Instrument type: LC-ESI-QFT
Ms type: MS2
Ion mode: POSITIVE
Ionization: ESI
Fragmentation mode: HCD
Collision energy: 35  (nominal)
Resolution: 35000
Column name: Kinetex C18 EVO 2.6 um, 2.1x50 mm, precolumn 2.1x5 mm, Phenomenex
Retention time: 8.822 min
Base peak: 228.1274
Precursor m/z: 202.0854
Precursor type: [M+H]+
m/z	relative intensity	assigned
61.9792	2	CHClN+
68.0244	23	C2H2N3+
71.0604	45	C3H7N2+
79.0058	7	CH4ClN2+
90.0105	4	C3H5ClN+
96.0556	77	C4H6N3+
104.001	76	C2H3ClN3+
107.0371	1	C3H8ClN2+
124.0869	171	C6H10N3+
132.0323	178	C4H7ClN3+
138.0774	4	C5H8N5+
146.0227	3	C3H5ClN5+
166.1087	23	C7H12N5+
174.0541	44	C5H9ClN5+
202.0853	999	C7H13ClN5+
