Mass spectrum: Melperon; LC-ESI-QFT; MS2; CE: 35 NCE; R=35000; [M+H]+
Name: Melperon
Name: 1-(4-fluorophenyl)-4-(4-methylpiperidin-1-yl)butan-1-one
Formula: C16H22FNO
Exact mass: 263.16854
SMILES: CC1CCN(CCCC(=O)C2=CC=C(F)C=C2)CC1
InChI: InChI=1S/C16H22FNO/c1-13-8-11-18(12-9-13)10-2-3-16(19)14-4-6-15(17)7-5-14/h4-7,13H,2-3,8-12H2,1H3
Instrument: Q Exactive Plus Orbitrap Thermo Scientific
Instrument type: LC-ESI-QFT
Ms type: MS2
Ion mode: POSITIVE
Ionization: ESI
Fragmentation mode: HCD
Collision energy: 35  (nominal)
Resolution: 35000
Column name: Kinetex C18 EVO 2.6 um, 2.1x50 mm, precolumn 2.1x5 mm, Phenomenex
Retention time: 6.331 min
Base peak: 264.1755
Precursor m/z: 264.1758
Precursor type: [M+H]+
m/z	relative intensity	assigned
95.0289	3	C6H4F+
100.1121	26	C6H14N+
123.0241	539	C7H4FO+
165.0711	999	C10H10FO+
246.1658	2	C16H21FN+
264.1759	721	C16H23FNO+
