Mass spectrum: Thiacloprid; LC-ESI-QFT; MS2; CE: 35 NCE; R=35000; [M+H]+
Name: Thiacloprid
Name: [3-[(6-chloropyridin-3-yl)methyl]-1,3-thiazolidin-2-ylidene]cyanamide
Formula: C10H9ClN4S
Exact mass: 252.02364
SMILES: C1CSC(=NC#N)N1CC2=CN=C(C=C2)Cl
InChI: InChI=1S/C10H9ClN4S/c11-9-2-1-8(5-13-9)6-15-3-4-16-10(15)14-7-12/h1-2,5H,3-4,6H2
Instrument: Q Exactive Plus Orbitrap Thermo Scientific
Instrument type: LC-ESI-QFT
Ms type: MS2
Ion mode: POSITIVE
Ionization: ESI
Fragmentation mode: HCD
Collision energy: 35  (nominal)
Resolution: 35000
Column name: Kinetex C18 EVO 2.6 um, 2.1x50 mm, precolumn 2.1x5 mm, Phenomenex
Retention time: 7.779 min
Base peak: 253.0306
Precursor m/z: 253.0309
Precursor type: [M+H]+
m/z	relative intensity	assigned
63.0232	1	C5H3+
72.9839	2	C3H2Cl+
81.0336	1	C2H8ClN+
90.0338	25	C6H4N+
91.0416	3	C6H5N+
98.9995	10	C5H4Cl+
126.0105	999	C6H5ClN+
128.0261	1	C6H7ClN+
144.021	8	C6H7ClNO+
151.0056	5	C7H4ClN2+
157.051	1	C8H5N4+
186.0139	62	C8H9ClNS+
190.0432	2	C9H8N3S+
193.0276	1	C8H6ClN4+
194.0478	1	C9H9ClN3+
211.0091	8	C9H8ClN2S+
217.0543	8	C10H9N4S+
226.02	10	C9H9ClN3S+
236.0044	4	C10H7ClN3S+
253.0309	496	C10H10ClN4S+
