Mass spectrum: Glibenclamide; LC-ESI-QFT; MS2; CE: 35 NCE; R=35000; [M-H]-
Name: Glibenclamide
Name: Glyburide
Name: 5-chloro-N-[2-[4-(cyclohexylcarbamoylsulfamoyl)phenyl]ethyl]-2-methoxybenzamide
Formula: C23H28ClN3O5S
Exact mass: 493.14382
SMILES: COC1=C(C=C(Cl)C=C1)C(=O)NCCC1=CC=C(C=C1)S(=O)(=O)NC(=O)NC1CCCCC1
InChI: InChI=1S/C23H28ClN3O5S/c1-32-21-12-9-17(24)15-20(21)22(28)25-14-13-16-7-10-19(11-8-16)33(30,31)27-23(29)26-18-5-3-2-4-6-18/h7-12,15,18H,2-6,13-14H2,1H3,(H,25,28)(H2,26,27,29)
Instrument: Q Exactive Plus Orbitrap Thermo Scientific
Instrument type: LC-ESI-QFT
Ms type: MS2
Ion mode: NEGATIVE
Ionization: ESI
Fragmentation mode: HCD
Collision energy: 35  (nominal)
Resolution: 35000
Column name: Kinetex C18 EVO 2.6 um, 2.1x50 mm, precolumn 2.1x5 mm, Phenomenex
Retention time: 12.236 min
Base peak: 492.1366
Precursor m/z: 492.1365
Precursor type: [M-H]-
m/z	relative intensity	assigned
116.0134	12	C5N4-
126.9953	220	C6H4ClO-
132.0816	3	C9H10N-
151.9909	56	C7H3ClNO-
154.0094	17	C7H6O2S-
169.0205	5	C7H7NO2S-
170.0014	999	C7H5ClNO2-
182.0014	5	C8H5ClNO2-
184.0438	10	C8H10NO2S-
194.0157	1	C8H6N2O2S-
196.0075	3	C8H6NO3S-
196.0439	7	C9H10NO2S-
207.0235	3	C9H7N2O2S-
224.0498	26	C9H10N3O2S-
225.0339	8	C9H9N2O3S-
250.0294	2	C10H8N3O3S-
273.0572	1	C9H18ClO5S-
367.0523	208	C16H16ClN2O4S-
378.0321	47	C16H13ClN3O4S-
460.1104	49	C22H23ClN3O4S-
492.1365	545	C23H27ClN3O5S-
