Mass spectrum: Quinoxyfen; LC-ESI-QFT; MS2; CE: 35 NCE; R=35000; [M+H]+
Name: Quinoxyfen
Name: 5,7-dichloro-4-(4-fluorophenoxy)quinoline
Formula: C15H8Cl2FNO
Exact mass: 306.99670
SMILES: Fc1ccc(Oc2ccnc3cc(Cl)cc(Cl)c23)cc1
InChI: InChI=1S/C15H8Cl2FNO/c16-9-7-12(17)15-13(8-9)19-6-5-14(15)20-11-3-1-10(18)2-4-11/h1-8H
Instrument: Q Exactive Plus Orbitrap Thermo Scientific
Instrument type: LC-ESI-QFT
Ms type: MS2
Ion mode: POSITIVE
Ionization: ESI
Fragmentation mode: HCD
Collision energy: 35  (nominal)
Resolution: 35000
Column name: Kinetex C18 EVO 2.6 um, 2.1x50 mm, precolumn 2.1x5 mm, Phenomenex
Retention time: 13.458 min
Base peak: 308.0037
Precursor m/z: 308.004
Precursor type: [M+H]+
m/z	relative intensity	assigned
75.0231	1	C6H3+
95.0296	1	C6H4F+
113.0397	3	C6H6FO+
122.9995	1	C7H4Cl+
123.0353	5	C6H4FN2+
133.0521	1	C8H7NO+
150.0105	5	C8H5ClN+
162.0104	5	C9H5ClN+
166.0055	1	C8H5ClNO+
168.021	4	C8H7ClNO+
183.9715	1	C8H4Cl2N+
184.979	1	C11H2ClO+
195.9716	1	C9H4Cl2N+
196.9793	97	C9H5Cl2N+
209.0634	2	C14H8FN+
210.0715	1	C14H9FN+
212.9737	1	C9H5Cl2NO+
213.982	47	C9H6Cl2NO+
217.0216	1	C13H7ClF+
225.0342	1	C14H8ClN+
228.9692	28	C9H5Cl2NO2+
237.0582	6	C15H8FNO+
238.066	1	C15H9FNO+
244.0324	14	C14H8ClFN+
245.0402	20	C14H9ClFN+
253.0291	2	C15H8ClNO+
254.0367	2	C15H9ClNO+
260.002	1	C14H8Cl2N+
272.0272	81	C15H8ClFNO+
273.0352	2	C15H9ClFNO+
280.0091	8	C14H9Cl2FN+
287.9976	5	C15H8Cl2NO+
308.0039	999	C15H9Cl2FNO+
