Mass spectrum: Caffeine; LC-ESI-QFT; MS2; CE: 35 NCE; R=35000; [M+H]+
Name: Caffeine
Formula: C8H10N4O2
Exact mass: 194.08038
SMILES: CN1c2ncn(C)c2C(=O)N(C)C1=O
InChI: InChI=1S/C8H10N4O2/c1-10-4-9-6-5(10)7(13)12(3)8(14)11(6)2/h4H,1-3H3
Instrument: Q Exactive Plus Orbitrap Thermo Scientific
Instrument type: LC-ESI-QFT
Ms type: MS2
Ion mode: POSITIVE
Ionization: ESI
Fragmentation mode: HCD
Collision energy: 35  (nominal)
Resolution: 35000
Column name: Kinetex C18 EVO 2.6 um, 2.1x50 mm, precolumn 2.1x5 mm, Phenomenex
Retention time: 4.809 min
Base peak: 195.0874
Precursor m/z: 195.0877
Precursor type: [M+H]+
m/z	relative intensity	assigned
56.0496	1	C3H6N+
69.0448	13	C3H5N2+
83.0603	8	C4H7N2+
109.0397	3	C5H5N2O+
110.0712	51	C5H8N3+
111.0553	2	C5H7N2O+
123.0426	3	C5H5N3O+
138.0661	396	C6H8N3O+
151.0977	1	C7H11N4+
156.0766	1	C6H10N3O2+
180.064	1	C7H8N4O2+
195.0876	999	C8H11N4O2+
