Mass spectrum: 2-(2-(Chlorophenyl)amino)benzaldehyde; LC-ESI-QFT; MS2; CE: 35 NCE; R=35000; [M+H]+
Name: 2-(2-(Chlorophenyl)amino)benzaldehyde
Name: 2-(2-chloroanilino)benzaldehyde
Formula: C13H10ClNO
Exact mass: 231.04509
SMILES: ClC1=CC=CC=C1NC1=CC=CC=C1C=O
InChI: InChI=1S/C13H10ClNO/c14-11-6-2-4-8-13(11)15-12-7-3-1-5-10(12)9-16/h1-9,15H
Instrument: Q Exactive Plus Orbitrap Thermo Scientific
Instrument type: LC-ESI-QFT
Ms type: MS2
Ion mode: POSITIVE
Ionization: ESI
Fragmentation mode: HCD
Collision energy: 35  (nominal)
Resolution: 35000
Column name: Kinetex C18 EVO 2.6 um, 2.1x50 mm, precolumn 2.1x5 mm, Phenomenex
Retention time: 12.499 min
Base peak: 232.0523
Precursor m/z: 232.0524
Precursor type: [M+H]+
m/z	relative intensity	assigned
168.0814	1	C12H10N+
178.0651	9	C13H8N+
179.0728	8	C13H9N+
180.0807	34	C13H10N+
196.0758	6	C13H10NO+
197.0843	4	C13H11NO+
213.0348	1	C13H8ClN+
214.0417	999	C13H9ClN+
232.0523	46	C13H11ClNO+
