Mass spectrum: Acetyl-sulfamethoxazole; LC-ESI-QFT; MS2; CE: 35 NCE; R=35000; [M-H]-
Name: Acetyl-sulfamethoxazole
Name: N-[4-[(5-methyl-1,2-oxazol-3-yl)sulfamoyl]phenyl]acetamide
Formula: C12H13N3O4S
Exact mass: 295.06268
SMILES: Cc1cc(no1)NS(=O)(=O)c2ccc(cc2)/N=C(\C)/O
InChI: InChI=1S/C12H13N3O4S/c1-8-7-12(14-19-8)15-20(17,18)11-5-3-10(4-6-11)13-9(2)16/h3-7H,1-2H3,(H,13,16)(H,14,15)
Instrument: Q Exactive Plus Orbitrap Thermo Scientific
Instrument type: LC-ESI-QFT
Ms type: MS2
Ion mode: NEGATIVE
Ionization: ESI
Fragmentation mode: HCD
Collision energy: 35  (nominal)
Resolution: 35000
Column name: Kinetex C18 EVO 2.6 um, 2.1x50 mm, precolumn 2.1x5 mm, Phenomenex
Retention time: 7.722 min
Base peak: 294.0554
Precursor m/z: 294.0554
Precursor type: [M-H]-
m/z	relative intensity	assigned
134.061	547	C8H8NO-
150.0561	49	C8H8NO2-
178.0509	12	C9H8NO3-
198.0231	999	C8H8NO3S-
294.0555	356	C12H12N3O4S-
