Mass spectrum: 2-Hydroxyatrazine; LC-ESI-QFT; MS2; CE: 35 NCE; R=35000; [M-H]-
Name: 2-Hydroxyatrazine
Name: Hydroxyatrazine
Name: 2-(ethylamino)-6-(propan-2-ylamino)-1H-1,3,5-triazin-4-one
Formula: C8H15N5O
Exact mass: 197.12766
SMILES: CCNC1=NC(=O)N=C(NC(C)C)N1
InChI: InChI=1S/C8H15N5O/c1-4-9-6-11-7(10-5(2)3)13-8(14)12-6/h5H,4H2,1-3H3,(H3,9,10,11,12,13,14)
Instrument: Q Exactive Plus Orbitrap Thermo Scientific
Instrument type: LC-ESI-QFT
Ms type: MS2
Ion mode: NEGATIVE
Ionization: ESI
Fragmentation mode: HCD
Collision energy: 35  (nominal)
Resolution: 35000
Column name: Kinetex C18 EVO 2.6 um, 2.1x50 mm, precolumn 2.1x5 mm, Phenomenex
Retention time: 2.093 min
Base peak: 197.808
Precursor m/z: 196.1204
Precursor type: [M-H]-
m/z	relative intensity	assigned
125.0828	207	C5H9N4-
165.0976	105	C2H11N7O2-
196.1203	999	C8H14N5O-
