Mass spectrum: Dibenz[a,h]acridine; LC-ESI-QFT; MS2; CE: 35 NCE; R=35000; [M+H]+
Name: Dibenz[a,h]acridine
Name: Dibenzo[a,h]acridine
Formula: C21H13N
Exact mass: 279.10480
SMILES: C1=CC=C2C(C=CC3=NC4=C(C=CC5=CC=CC=C45)C=C23)=C1
InChI: InChI=1S/C21H13N/c1-3-7-17-14(5-1)11-12-20-19(17)13-16-10-9-15-6-2-4-8-18(15)21(16)22-20/h1-13H
Instrument: Q Exactive Plus Orbitrap Thermo Scientific
Instrument type: LC-ESI-QFT
Ms type: MS2
Ion mode: POSITIVE
Ionization: ESI
Fragmentation mode: HCD
Collision energy: 35  (nominal)
Resolution: 35000
Column name: Kinetex C18 EVO 2.6 um, 2.1x50 mm, precolumn 2.1x5 mm, Phenomenex
Retention time: 14.107 min
Base peak: 331.1899
Precursor m/z: 280.1121
Precursor type: [M+H]+
m/z	relative intensity	assigned
278.0958	1	C21H12N+
279.1039	4	C21H13N+
280.1119	999	C21H14N+
