Mass spectrum: Hydrocortisonacetate; LC-ESI-QFT; MS2; CE: 35 NCE; R=35000; [M+H]+
Name: Hydrocortisonacetate
Name: Hydrocortisone acetate
Name: [2-[(8S,9S,10R,11S,13S,14S,17R)-11,17-dihydroxy-10,13-dimethyl-3-oxo-2,6,7,8,9,11,12,14,15,16-decahydro-1H-cyclopenta[a]phenanthren-17-yl]-2-oxoethyl] acetate
Formula: C23H32O6
Exact mass: 404.21989
SMILES: CC(=O)OCC(=O)[C@@]1(O)CC[C@H]2[C@@H]3CCC4=CC(=O)CC[C@]4(C)[C@H]3[C@@H](O)C[C@]12C
InChI: InChI=1S/C23H32O6/c1-13(24)29-12-19(27)23(28)9-7-17-16-5-4-14-10-15(25)6-8-21(14,2)20(16)18(26)11-22(17,23)3/h10,16-18,20,26,28H,4-9,11-12H2,1-3H3/t16-,17-,18-,20+,21-,22-,23-/m0/s1
Instrument: Q Exactive Plus Orbitrap Thermo Scientific
Instrument type: LC-ESI-QFT
Ms type: MS2
Ion mode: POSITIVE
Ionization: ESI
Fragmentation mode: HCD
Collision energy: 35  (nominal)
Resolution: 35000
Column name: Kinetex C18 EVO 2.6 um, 2.1x50 mm, precolumn 2.1x5 mm, Phenomenex
Retention time: 10.838 min
Base peak: 271.1689
Precursor m/z: 405.2272
Precursor type: [M+H]+
m/z	relative intensity	assigned
55.018	1	C3H3O+
55.0545	1	C4H7+
57.0338	1	C3H5O+
59.0493	2	C3H7O+
61.0286	12	C2H5O2+
67.0543	13	C5H7+
69.0335	5	C4H5O+
69.07	8	C5H9+
71.0492	7	C4H7O+
77.0386	1	C6H5+
79.0542	17	C6H7+
81.0335	1	C5H5O+
81.0699	26	C6H9+
83.0491	29	C5H7O+
85.0649	1	C5H9O+
87.044	1	C4H7O2+
91.0541	24	C7H7+
93.0699	37	C7H9+
95.0491	10	C6H7O+
95.0855	27	C7H11+
97.0648	130	C6H9O+
99.0441	24	C5H7O2+
101.0233	44	C4H5O3+
103.0389	8	C4H7O3+
105.0699	53	C8H9+
107.0491	10	C7H7O+
107.0855	32	C8H11+
109.0648	66	C7H9O+
109.1012	8	C8H13+
111.0442	2	C6H7O2+
111.0804	5	C7H11O+
115.0543	5	C9H7+
116.0618	1	C9H8+
117.0699	15	C9H9+
119.0855	105	C9H11+
121.0648	209	C8H9O+
121.1011	13	C9H13+
123.0804	69	C8H11O+
125.0595	4	C7H9O2+
125.0958	1	C8H13O+
128.062	4	C10H8+
129.0699	23	C10H9+
130.078	1	C10H10+
131.0855	51	C10H11+
133.0648	18	C9H9O+
133.1011	31	C10H13+
135.0804	49	C9H11O+
135.1167	7	C10H15+
137.0596	4	C8H9O2+
137.096	10	C9H13O+
139.0752	1	C8H11O2+
141.0696	15	C11H9+
142.0776	7	C11H10+
143.0855	55	C11H11+
144.0932	5	C11H12+
145.0649	9	C10H9O+
145.1011	65	C11H13+
146.1089	1	C11H14+
147.0803	38	C10H11O+
147.1167	25	C11H15+
149.0961	22	C10H13O+
149.1321	2	C11H17+
151.0754	11	C9H11O2+
151.1116	1	C10H15O+
153.07	1	C12H9+
153.0911	4	C9H13O2+
154.0777	7	C12H10+
155.0855	36	C12H11+
156.0933	2	C12H12+
157.1012	63	C12H13+
158.0725	1	C11H10O+
159.0804	30	C11H11O+
159.1168	51	C12H15+
160.1248	1	C12H16+
161.0961	32	C11H13O+
161.1327	8	C12H17+
163.1117	65	C11H15O+
165.0698	5	C13H9+
165.0908	2	C10H13O2+
166.0777	2	C13H10+
167.0855	17	C13H11+
168.0932	6	C13H12+
169.1011	60	C13H13+
171.0805	14	C12H11O+
171.1168	40	C13H15+
172.1244	1	C13H16+
173.096	42	C12H13O+
173.1325	13	C13H17+
175.1117	31	C12H15O+
177.0908	2	C11H13O2+
177.1273	6	C12H17O+
179.0855	8	C14H11+
179.1061	2	C11H15O2+
180.093	1	C14H12+
181.1011	24	C14H13+
182.1089	5	C14H14+
183.1168	47	C14H15+
184.1248	1	C14H16+
185.0961	24	C13H13O+
185.1325	41	C14H17+
187.1117	52	C13H15O+
187.1479	7	C14H19+
189.1274	19	C13H17O+
191.1431	1	C13H19O+
192.0934	4	C15H12+
193.101	13	C15H13+
193.1227	1	C12H17O2+
194.109	5	C15H14+
195.1169	28	C15H15+
196.1247	2	C15H16+
197.0962	12	C14H13O+
197.1324	24	C15H17+
198.1039	4	C14H14O+
199.1117	25	C14H15O+
199.1478	16	C15H19+
201.1275	23	C14H17O+
201.1633	1	C15H21+
203.0855	1	C16H11+
203.1064	5	C13H15O2+
203.1433	7	C14H19O+
205.1011	4	C16H13+
205.1224	5	C13H17O2+
206.1093	1	C16H14+
207.1168	21	C16H15+
208.1244	4	C16H16+
209.0958	5	C15H13O+
209.1324	31	C16H17+
211.1118	25	C15H15O+
211.148	14	C16H19+
212.1192	1	C15H16O+
213.1273	39	C15H17O+
213.1637	6	C16H21+
215.1071	3	C14H15O2+
215.1428	8	C15H19O+
217.1224	4	C14H17O2+
217.1586	1	C15H21O+
218.1094	1	C17H14+
219.1169	5	C17H15+
219.1381	1	C14H19O2+
220.1242	3	C17H16+
221.0961	4	C16H13O+
221.1323	21	C17H17+
223.112	11	C16H15O+
223.1481	35	C17H19+
224.1186	1	C16H16O+
225.1273	38	C16H17O+
225.1638	9	C17H21+
226.1348	8	C16H18O+
227.143	27	C16H19O+
228.1512	1	C16H20O+
229.1231	1	C15H17O2+
229.1587	12	C16H21O+
231.1168	4	C18H15+
231.1386	9	C15H19O2+
232.1249	2	C18H16+
233.1321	14	C18H17+
235.1118	4	C17H15O+
235.1481	8	C18H19+
237.1274	9	C17H17O+
237.1638	4	C18H21+
239.1065	5	C16H15O2+
239.143	56	C17H19O+
239.1793	4	C18H23+
241.1586	141	C17H21O+
242.1664	2	C17H22O+
243.1381	4	C16H19O2+
243.1747	7	C17H23O+
245.133	1	C19H17+
245.1537	5	C16H21O2+
247.1482	7	C19H19+
248.1191	1	C18H16O+
248.1558	4	C19H20+
249.1277	8	C18H17O+
249.1637	21	C19H21+
250.1718	1	C19H22+
251.1303	2	C17H17NO+
251.1429	36	C18H19O+
251.1793	6	C19H23+
252.1513	2	C18H20O+
253.1221	2	C17H17O2+
253.1587	15	C18H21O+
255.137	1	C17H19O2+
257.1529	1	C17H21O2+
258.1406	2	C20H18+
261.1266	1	C19H17O+
263.143	13	C19H19O+
263.1791	18	C20H23+
265.1587	12	C19H21O+
266.1663	8	C19H22O+
267.1374	7	C18H19O2+
267.1743	71	C19H23O+
268.1827	7	C19H24O+
269.1536	8	C18H21O2+
269.19	21	C19H25O+
273.1495	2	C17H21O3+
273.1629	9	C21H21+
276.1506	2	C20H20O+
279.1742	7	C20H23O+
281.1536	24	C19H21O2+
281.19	48	C20H25O+
285.1484	1	C18H21O3+
285.185	13	C19H25O2+
286.1924	4	C19H26O2+
287.2004	7	C19H27O2+
291.1743	65	C21H23O+
294.1615	4	C20H22O2+
297.1848	11	C20H25O2+
299.1635	2	C19H23O3+
299.2005	18	C20H27O2+
309.1849	202	C21H25O2+
312.1712	2	C20H24O3+
315.1952	4	C20H27O3+
317.2102	1	C20H29O3+
327.1955	206	C21H27O3+
345.2061	39	C21H29O4+
369.2063	32	C23H29O4+
387.2167	22	C23H31O5+
405.2272	999	C23H33O6+
