Mass spectrum: Alizarin; LC-ESI-QFT; MS2; CE: 35 NCE; R=35000; [M-H]-
Name: Alizarin
Name: 1,2-Dihydroxyanthracene-9,10-dione
Formula: C14H8O4
Exact mass: 240.04226
SMILES: OC1=CC=C2C(=O)C3=CC=CC=C3C(=O)C2=C1O
InChI: InChI=1S/C14H8O4/c15-10-6-5-9-11(14(10)18)13(17)8-4-2-1-3-7(8)12(9)16/h1-6,15,18H
Instrument: Q Exactive Plus Orbitrap Thermo Scientific
Instrument type: LC-ESI-QFT
Ms type: MS2
Ion mode: NEGATIVE
Ionization: ESI
Fragmentation mode: HCD
Collision energy: 35  (nominal)
Resolution: 35000
Column name: Kinetex C18 EVO 2.6 um, 2.1x50 mm, precolumn 2.1x5 mm, Phenomenex
Retention time: 10.874 min
Base peak: 91.0021
Precursor m/z: 239.035
Precursor type: [M-H]-
m/z	relative intensity	assigned
155.0501	2	C11H7O-
167.0503	18	C12H7O-
183.0452	2	C12H7O2-
210.0323	20	C13H6O3-
211.04	63	C13H7O3-
238.0271	17	C14H6O4-
239.035	999	C14H7O4-
