Mass spectrum: Celecoxib; LC-ESI-QFT; MS2; CE: 35 NCE; R=35000; [M-H]-
Name: Celecoxib
Name: 4-[5-(4-methylphenyl)-3-(trifluoromethyl)pyrazol-1-yl]benzenesulfonamide
Formula: C17H14F3N3O2S
Exact mass: 381.07588
SMILES: CC1=CC=C(C=C1)C1=CC(=NN1C1=CC=C(C=C1)S(N)(=O)=O)C(F)(F)F
InChI: InChI=1S/C17H14F3N3O2S/c1-11-2-4-12(5-3-11)15-10-16(17(18,19)20)22-23(15)13-6-8-14(9-7-13)26(21,24)25/h2-10H,1H3,(H2,21,24,25)
Instrument: Q Exactive Plus Orbitrap Thermo Scientific
Instrument type: LC-ESI-QFT
Ms type: MS2
Ion mode: NEGATIVE
Ionization: ESI
Fragmentation mode: HCD
Collision energy: 35  (nominal)
Resolution: 35000
Column name: Kinetex C18 EVO 2.6 um, 2.1x50 mm, precolumn 2.1x5 mm, Phenomenex
Retention time: 12.081 min
Base peak: 380.0685
Precursor m/z: 380.0686
Precursor type: [M-H]-
m/z	relative intensity	assigned
87.9989	11	C3H4OS-
108.0055	4	C3H5FOS-
115.0294	1	C2H2FN5-
129.0455	1	C8H5N2-
130.0534	10	C8H6N2-
139.0301	15	C9H3N2-
159.0364	37	C9H4FN2-
179.0427	42	C9H5F2N2-
198.041	4	C9H5F3N2-
199.0491	1	C9H6F3N2-
220.1006	2	C15H12N2-
221.0961	12	C14H11N3-
221.1084	4	C15H13N2-
224.057	2	C11H7F3N2-
225.0523	6	C15H7F2-
225.0648	25	C11H8F3N2-
225.0836	1	C14H10FN2-
229.0772	4	C16H9N2-
245.0964	3	C16H11N3-
246.1038	16	C16H12N3-
247.1116	47	C16H13N3-
248.0868	3	C12H10F2N4-
249.0834	17	C16H10FN2-
251.0994	2	C16H12FN2-
255.0808	3	C14H10FN3O-
256.0882	18	C17H10N3-
268.0944	11	C17H12F2N-
269.0899	7	C16H11F2N2-
275.0873	7	C14H11F2N3O-
276.0943	102	C17H11FN3-
277.0785	3	C17H10FN2O-
295.0925	5	C17H11F2N3-
296.1005	73	C17H12F2N3-
315.0981	4	C17H12F3N3-
316.1067	227	C17H13F3N3-
317.0906	6	C17H12F3N2O-
380.0687	999	C17H13F3N3O2S-
