Mass spectrum: 6-Ethoxy-2-mercaptobenzothiazole; LC-ESI-QFT; MS2; CE: 35 NCE; R=35000; [M-H]-
Name: 6-Ethoxy-2-mercaptobenzothiazole
Name: 6-ethoxy-3H-1,3-benzothiazole-2-thione
Formula: C9H9NOS2
Exact mass: 211.01256
SMILES: CCOC1=CC=C2N=C(S)SC2=C1
InChI: InChI=1S/C9H9NOS2/c1-2-11-6-3-4-7-8(5-6)13-9(12)10-7/h3-5H,2H2,1H3,(H,10,12)
Instrument: Q Exactive Plus Orbitrap Thermo Scientific
Instrument type: LC-ESI-QFT
Ms type: MS2
Ion mode: NEGATIVE
Ionization: ESI
Fragmentation mode: HCD
Collision energy: 35  (nominal)
Resolution: 35000
Column name: Kinetex C18 EVO 2.6 um, 2.1x50 mm, precolumn 2.1x5 mm, Phenomenex
Retention time: 9.968 min
Base peak: 210.0052
Precursor m/z: 210.0053
Precursor type: [M-H]-
m/z	relative intensity	assigned
152.9712	7	C6H3NS2-
180.9661	999	C7H3NOS2-
210.0052	187	C9H8NOS2-
