Mass spectrum: Metconazole; LC-ESI-QFT; MS2; CE: 35 NCE; R=35000; [M+H]+
Name: Metconazole
Name: 5-[(4-chlorophenyl)methyl]-2,2-dimethyl-1-(1,2,4-triazol-1-ylmethyl)cyclopentan-1-ol
Formula: C17H22ClN3O
Exact mass: 319.14514
SMILES: CC1(C)CCC(Cc2ccc(Cl)cc2)C1(O)Cn1cncn1
InChI: InChI=1S/C17H22ClN3O/c1-16(2)8-7-14(9-13-3-5-15(18)6-4-13)17(16,22)10-21-12-19-11-20-21/h3-6,11-12,14,22H,7-10H2,1-2H3
Instrument: Q Exactive Plus Orbitrap Thermo Scientific
Instrument type: LC-ESI-QFT
Ms type: MS2
Ion mode: POSITIVE
Ionization: ESI
Fragmentation mode: HCD
Collision energy: 35  (nominal)
Resolution: 35000
Column name: Kinetex C18 EVO 2.6 um, 2.1x50 mm, precolumn 2.1x5 mm, Phenomenex
Retention time: 12.566 min
Base peak: 320.1522
Precursor m/z: 320.1524
Precursor type: [M+H]+
m/z	relative intensity	assigned
59.0493	1	C3H7O+
67.0543	1	C5H7+
69.0699	2	C5H9+
70.04	999	C2H4N3+
81.07	3	C6H9+
95.0855	10	C7H11+
107.0855	4	C8H11+
109.1012	1	C8H13+
125.0152	67	C7H6Cl+
139.0308	5	C8H8Cl+
142.0776	1	C11H10+
151.0307	2	C9H8Cl+
163.0309	4	C10H8Cl+
165.0466	1	C10H10Cl+
177.0465	13	C11H10Cl+
191.0621	4	C12H12Cl+
233.1093	6	C15H18Cl+
320.1525	749	C17H23ClN3O+
