Mass spectrum: 2,6-Dimethylpyridine; LC-ESI-QFT; MS2; CE: 35 NCE; R=35000; [M+H]+
Name: 2,6-Dimethylpyridine
Name: 2,6-dimethylpyridine
Formula: C7H9N
Exact mass: 107.07350
SMILES: CC1=CC=CC(C)=N1
InChI: InChI=1S/C7H9N/c1-6-4-3-5-7(2)8-6/h3-5H,1-2H3
Instrument: Q Exactive Plus Orbitrap Thermo Scientific
Instrument type: LC-ESI-QFT
Ms type: MS2
Ion mode: POSITIVE
Ionization: ESI
Fragmentation mode: HCD
Collision energy: 35  (nominal)
Resolution: 35000
Column name: Kinetex C18 EVO 2.6 um, 2.1x50 mm, precolumn 2.1x5 mm, Phenomenex
Retention time: 0.437 min
Base peak: 122.0962
Precursor m/z: 108.0808
Precursor type: [M+H]+
m/z	relative intensity	assigned
65.0386	2	C5H5+
67.0543	7	C5H7+
91.0542	85	C7H7+
92.0495	1	C6H6N+
93.0571	2	C6H7N+
107.073	1	C7H9N+
108.0807	999	C7H10N+
110.06	3	C6H8NO+
