Mass spectrum: Tebuconazole; LC-ESI-QFT; MS2; CE: 35 NCE; R=35000; [M+H]+
Name: Tebuconazole
Name: 1-(4-chlorophenyl)-4,4-dimethyl-3-(1,2,4-triazol-1-ylmethyl)pentan-3-ol
Formula: C16H22ClN3O
Exact mass: 307.14514
SMILES: CC(C)(C)C(O)(CCc1ccc(Cl)cc1)Cn1cncn1
InChI: InChI=1S/C16H22ClN3O/c1-15(2,3)16(21,10-20-12-18-11-19-20)9-8-13-4-6-14(17)7-5-13/h4-7,11-12,21H,8-10H2,1-3H3
Instrument: Q Exactive Plus Orbitrap Thermo Scientific
Instrument type: LC-ESI-QFT
Ms type: MS2
Ion mode: POSITIVE
Ionization: ESI
Fragmentation mode: HCD
Collision energy: 35  (nominal)
Resolution: 35000
Column name: Kinetex C18 EVO 2.6 um, 2.1x50 mm, precolumn 2.1x5 mm, Phenomenex
Retention time: 12.301 min
Base peak: 306.1032
Precursor m/z: 308.1524
Precursor type: [M+H]+
m/z	relative intensity	assigned
57.0701	7	C4H9+
59.0493	11	C3H7O+
67.0292	10	C3H3N2+
69.0698	1	C5H9+
70.04	999	C2H4N3+
71.0856	1	C5H11+
78.9944	1	C2H4ClO+
83.0855	6	C6H11+
95.0604	13	C5H7N2+
108.0556	40	C5H6N3+
109.059	2	H7N5O2+
109.076	3	C6H9N2+
115.0542	4	C9H7+
116.0621	5	C9H8+
123.0917	1	C7H11N2+
125.0152	56	C7H6Cl+
130.0778	2	C10H10+
136.0869	11	C7H10N3+
139.0308	9	C8H8Cl+
151.0309	29	C9H8Cl+
164.1182	39	C9H14N3+
165.0466	7	C10H10Cl+
165.1215	2	C4H15N5O2+
168.1128	1	C8H14N3O+
179.0615	1	C11H12Cl+
196.1439	1	C10H18N3O+
207.0895	2	C8H16ClN2O2+
308.1523	643	C16H23ClN3O+
