Mass spectrum: Triphenylphosphate; LC-ESI-QFT; MS2; CE: 35 NCE; R=35000; [M+H]+
Name: Triphenylphosphate
Name: Triphenyl phosphate
Formula: C18H15O4P
Exact mass: 326.07080
SMILES: O=P(OC1=CC=CC=C1)(OC1=CC=CC=C1)OC1=CC=CC=C1
InChI: InChI=1S/C18H15O4P/c19-23(20-16-10-4-1-5-11-16,21-17-12-6-2-7-13-17)22-18-14-8-3-9-15-18/h1-15H
Instrument: Q Exactive Plus Orbitrap Thermo Scientific
Instrument type: LC-ESI-QFT
Ms type: MS2
Ion mode: POSITIVE
Ionization: ESI
Fragmentation mode: HCD
Collision energy: 35  (nominal)
Resolution: 35000
Column name: Kinetex C18 EVO 2.6 um, 2.1x50 mm, precolumn 2.1x5 mm, Phenomenex
Retention time: 12.720 min
Base peak: 327.0778
Precursor m/z: 327.0781
Precursor type: [M+H]+
m/z	relative intensity	assigned
51.0232	3	H6NP+
53.0388	13	C4H5+
65.0387	1	C5H5+
77.0386	34	C6H5+
81.0335	2	C5H5O+
93.0335	2	C6H5O+
94.0413	7	C6H6O+
95.0492	76	C6H7O+
98.9842	2	H4O4P+
105.0447	22	C6H5N2+
109.0648	1	C7H9O+
111.044	1	C6H7O2+
121.0284	1	C7H5O2+
138.9941	1	C6H4O2P+
141.0698	1	C11H9+
143.0855	1	C11H11+
151.0542	4	C12H7+
152.0621	128	C12H8+
153.0699	135	C12H9+
157.0049	2	C6H6O3P+
168.057	36	C12H8O+
169.0648	12	C12H9O+
170.0726	2	C12H10O+
171.0804	19	C12H11O+
175.0155	11	C6H8O4P+
179.0603	3	C12H7N2+
181.0759	1	C12H9N2+
187.0308	6	C11H8OP+
202.0777	5	C16H10+
203.0856	1	C16H11+
215.0256	34	C12H8O2P+
216.0341	2	C12H9O2P+
226.078	1	C18H10+
227.0855	9	C18H11+
228.0934	47	C18H12+
229.1013	26	C18H13+
233.0363	186	C12H10O3P+
244.0887	1	C18H12O+
247.052	9	C13H12O3P+
251.0468	99	C12H12O4P+
291.0571	2	C18H12O2P+
309.0675	7	C18H14O3P+
326.071	1	C18H15O4P+
327.0782	999	C18H16O4P+
