Mass spectrum: Pyridine; LC-ESI-QFT; MS2; CE: 35 NCE; R=35000; [M+H]+
Name: Pyridine
Formula: C5H5N
Exact mass: 79.04220
SMILES: C1=CC=NC=C1
InChI: InChI=1S/C5H5N/c1-2-4-6-5-3-1/h1-5H
Instrument: Q Exactive Plus Orbitrap Thermo Scientific
Instrument type: LC-ESI-QFT
Ms type: MS2
Ion mode: POSITIVE
Ionization: ESI
Fragmentation mode: HCD
Collision energy: 35  (nominal)
Resolution: 35000
Column name: Kinetex C18 EVO 2.6 um, 2.1x50 mm, precolumn 2.1x5 mm, Phenomenex
Retention time: 0.438 min
Base peak: 145.0758
Precursor m/z: 80.0495
Precursor type: [M+H]+
m/z	relative intensity	assigned
80.0494	999	C5H6N+
96.0443	1	C5H6NO+
