Mass spectrum: Losartan; LC-ESI-QFT; MS2; CE: 35 NCE; R=35000; [M+H]+
Name: Losartan
Name: [2-butyl-5-chloro-3-[[4-[2-(2H-tetrazol-5-yl)phenyl]phenyl]methyl]imidazol-4-yl]methanol
Formula: C22H23ClN6O
Exact mass: 422.16219
SMILES: CCCCC1=NC(Cl)=C(CO)N1CC1=CC=C(C=C1)C1=C(C=CC=C1)C1=NNN=N1
InChI: InChI=1S/C22H23ClN6O/c1-2-3-8-20-24-21(23)19(14-30)29(20)13-15-9-11-16(12-10-15)17-6-4-5-7-18(17)22-25-27-28-26-22/h4-7,9-12,30H,2-3,8,13-14H2,1H3,(H,25,26,27,28)
Instrument: Q Exactive Plus Orbitrap Thermo Scientific
Instrument type: LC-ESI-QFT
Ms type: MS2
Ion mode: POSITIVE
Ionization: ESI
Fragmentation mode: HCD
Collision energy: 35  (nominal)
Resolution: 35000
Column name: Kinetex C18 EVO 2.6 um, 2.1x50 mm, precolumn 2.1x5 mm, Phenomenex
Retention time: 10.866 min
Base peak: 416.9898
Precursor m/z: 423.1695
Precursor type: [M+H]+
m/z	relative intensity	assigned
77.0387	3	C6H5+
79.0542	12	C6H7+
80.0495	16	C5H6N+
83.0855	2	C6H11+
95.0491	5	C6H7O+
102.0105	2	C4H5ClN+
105.0446	2	C6H5N2+
108.0807	5	C7H10N+
115.0055	3	C7HNO+
115.0543	2	C9H7+
129.0213	7	C5H6ClN2+
129.0447	7	C8H5N2+
135.0916	9	C8H11N2+
140.0494	6	C10H6N+
142.0291	34	C6H7ClN2+
144.0574	3	C7H11ClN+
152.0619	16	C12H8+
153.0698	35	C12H9+
154.0651	2	C11H8N+
160.9734	1	C2ClN5O2+
163.0541	4	C13H7+
165.0697	16	C13H9+
166.0649	3	C12H8N+
166.0774	4	C13H10+
167.0729	12	C12H9N+
168.0679	1	C11H8N2+
169.0646	6	C12H9O+
171.0682	145	C8H12ClN2+
177.0573	2	C13H7N+
178.0652	17	C13H8N+
178.0774	15	C14H10+
179.0603	3	C12H7N2+
179.0728	27	C13H9N+
179.0854	2	C14H11+
180.0807	270	C13H10N+
181.0762	3	C12H9N2+
182.0599	2	C12H8NO+
183.0681	2	C12H9NO+
189.079	6	C8H14ClN2O+
190.065	76	C14H8N+
191.0729	11	C14H9N+
192.0681	54	C13H8N2+
192.0807	99	C14H10N+
194.06	13	C13H8NO+
195.0916	5	C13H11N2+
196.0756	36	C13H10NO+
204.081	2	C15H10N+
205.076	95	C14H9N2+
206.0838	211	C14H10N2+
207.0916	999	C14H11N2+
208.0757	19	C14H10NO+
214.065	11	C16H8N+
216.0805	6	C16H10N+
218.0833	3	C15H10N2+
219.0916	4	C15H11N2+
229.0758	1	C16H9N2+
231.0914	8	C16H11N2+
232.0993	3	C16H12N2+
233.1069	1	C16H13N2+
235.0977	61	C14H11N4+
239.118	1	C15H15N2O+
241.076	20	C17H9N2+
242.0838	6	C17H10N2+
243.0917	7	C17H11N2+
254.0613	3	C15H11ClN2+
257.0948	2	C17H11N3+
258.1026	54	C17H12N3+
259.0866	25	C17H11N2O+
259.11	3	C17H13N3+
267.1241	1	C15H15N4O+
281.0949	11	C19H11N3+
282.1025	17	C19H12N3+
294.0792	6	C17H13ClN3+
295.0634	4	C17H12ClN2O+
295.1103	3	C20H13N3+
298.1212	10	C19H14N4+
299.1291	2	C19H15N4+
300.1128	1	C19H14N3O+
311.1291	2	C20H15N4+
324.1497	18	C22H18N3+
341.1761	41	C22H21N4+
348.139	2	C22H21ClN2+
362.1417	27	C22H21ClN3+
365.153	2	C21H22ClN4+
376.1449	2	C22H21ClN4+
377.1528	254	C22H22ClN4+
380.153	1	C22H23ClN3O+
393.159	2	C21H22ClN6+
405.1589	556	C22H22ClN6+
423.1694	134	C22H24ClN6O+
