Mass spectrum: 2,4-Dichloro-6-Methylphenol; LC-ESI-QFT; MS2; CE: 35 NCE; R=35000; [M-H]-
Name: 2,4-Dichloro-6-Methylphenol
Formula: C7H6Cl2O
Exact mass: 175.97957
SMILES: CC1=CC(Cl)=CC(Cl)=C1O
InChI: InChI=1S/C7H6Cl2O/c1-4-2-5(8)3-6(9)7(4)10/h2-3,10H,1H3
Instrument: Q Exactive Plus Orbitrap Thermo Scientific
Instrument type: LC-ESI-QFT
Ms type: MS2
Ion mode: NEGATIVE
Ionization: ESI
Fragmentation mode: HCD
Collision energy: 35  (nominal)
Resolution: 35000
Column name: Kinetex C18 EVO 2.6 um, 2.1x50 mm, precolumn 2.1x5 mm, Phenomenex
Retention time: 11.166 min
Base peak: 112.9847
Precursor m/z: 174.9723
Precursor type: [M-H]-
m/z	relative intensity	assigned
118.9656	238	C2ClN2O2-
132.9817	63	C3H2ClN2O2-
174.9723	999	C7H5Cl2O-
