Mass spectrum: Picoxystrobin; LC-ESI-QFT; MS2; CE: 35 NCE; R=35000; [M+H]+
Name: Picoxystrobin
Name: methyl 3-methoxy-2-[2-[[6-(trifluoromethyl)pyridin-2-yl]oxymethyl]phenyl]prop-2-enoate
Formula: C18H16F3NO4
Exact mass: 367.10314
SMILES: COC=C(C(=O)OC)C1=CC=CC=C1COC1=CC=CC(=N1)C(F)(F)F
InChI: InChI=1S/C18H16F3NO4/c1-24-11-14(17(23)25-2)13-7-4-3-6-12(13)10-26-16-9-5-8-15(22-16)18(19,20)21/h3-9,11H,10H2,1-2H3
Instrument: Q Exactive Plus Orbitrap Thermo Scientific
Instrument type: LC-ESI-QFT
Ms type: MS2
Ion mode: POSITIVE
Ionization: ESI
Fragmentation mode: HCD
Collision energy: 35  (nominal)
Resolution: 35000
Column name: Kinetex C18 EVO 2.6 um, 2.1x50 mm, precolumn 2.1x5 mm, Phenomenex
Retention time: 12.395 min
Base peak: 368.11
Precursor m/z: 368.1104
Precursor type: [M+H]+
m/z	relative intensity	assigned
91.0543	11	C7H7+
102.0464	5	C8H6+
103.0543	5	C8H7+
115.0543	65	C9H7+
117.0699	103	C9H9+
129.0699	5	C10H9+
130.0414	13	C9H6O+
131.0492	6	C9H7O+
131.0855	5	C10H11+
145.0648	999	C10H9O+
146.0728	14	C10H10O+
147.0805	1	C10H11O+
162.9955	1	C4HF2N2O3+
173.0598	16	C11H9O2+
177.0911	17	C11H13O2+
190.0631	1	C8H11FO4+
205.086	406	C12H13O3+
