Mass spectrum: Prosulfocarb; LC-ESI-QFT; MS2; CE: 35 NCE; R=35000; [M+H]+
Name: Prosulfocarb
Name: S-benzyl N,N-dipropylcarbamothioate
Formula: C14H21NOS
Exact mass: 251.13439
SMILES: CCCN(CCC)C(=O)SCc1ccccc1
InChI: InChI=1S/C14H21NOS/c1-3-10-15(11-4-2)14(16)17-12-13-8-6-5-7-9-13/h5-9H,3-4,10-12H2,1-2H3
Instrument: Q Exactive Plus Orbitrap Thermo Scientific
Instrument type: LC-ESI-QFT
Ms type: MS2
Ion mode: POSITIVE
Ionization: ESI
Fragmentation mode: HCD
Collision energy: 35  (nominal)
Resolution: 35000
Column name: Kinetex C18 EVO 2.6 um, 2.1x50 mm, precolumn 2.1x5 mm, Phenomenex
Retention time: 13.154 min
Base peak: 252.1412
Precursor m/z: 252.1417
Precursor type: [M+H]+
m/z	relative intensity	assigned
65.0387	8	C5H5+
86.06	26	C4H8NO+
91.0542	999	C7H7+
100.1122	1	C6H14N+
128.107	149	C7H14NO+
192.1748	1	C13H22N+
252.1416	246	C14H22NOS+
