Mass spectrum: Torasemide; LC-ESI-QFT; MS2; CE: 35 NCE; R=35000; [M-H]-
Name: Torasemide
Name: N-[4-(3-methylanilino)pyridin-1-ium-3-yl]sulfonyl-N`-propan-2-ylcarbamimidate
Formula: C16H20N4O3S
Exact mass: 348.12561
SMILES: CC(C)NC(=O)NS(=O)(=O)c1cnccc1Nc1cccc(C)c1
InChI: InChI=1S/C16H20N4O3S/c1-11(2)18-16(21)20-24(22,23)15-10-17-8-7-14(15)19-13-6-4-5-12(3)9-13/h4-11H,1-3H3,(H,17,19)(H2,18,20,21)
Instrument: Q Exactive Plus Orbitrap Thermo Scientific
Instrument type: LC-ESI-QFT
Ms type: MS2
Ion mode: NEGATIVE
Ionization: ESI
Fragmentation mode: HCD
Collision energy: 35  (nominal)
Resolution: 35000
Column name: Kinetex C18 EVO 2.6 um, 2.1x50 mm, precolumn 2.1x5 mm, Phenomenex
Retention time: 8.519 min
Base peak: 347.1181
Precursor m/z: 347.1183
Precursor type: [M-H]-
m/z	relative intensity	assigned
108.0318	27	C3H2N5-
150.9968	4	C6H3N2OS-
156	13	C5H4N2O2S-
180.0054	2	C6H2N3O4-
181.0643	8	C11H7N3-
181.0771	2	C12H9N2-
183.0926	8	C12H11N2-
194.0714	2	C12H8N3-
195.0801	60	C12H9N3-
196.088	58	C12H10N3-
198.1035	19	C12H12N3-
210.0672	8	C12H8N3O-
226.0449	4	C12H8N3S-
244.055	12	C12H10N3OS-
262.0656	999	C12H12N3O2S-
347.1189	19	C16H19N4O3S-
