Mass spectrum: Metolachlor OA; LC-ESI-QFT; MS2; CE: 35 NCE; R=35000; [M-H]-
Name: Metolachlor OA
Name: 2-[2-ethyl-N-(1-methoxypropan-2-yl)-6-methylanilino]-2-oxoacetic acid
Formula: C15H21NO4
Exact mass: 279.14706
SMILES: CCC1=CC=CC(C)=C1N(C(C)COC)C(=O)C(O)=O
InChI: InChI=1S/C15H21NO4/c1-5-12-8-6-7-10(2)13(12)16(11(3)9-20-4)14(17)15(18)19/h6-8,11H,5,9H2,1-4H3,(H,18,19)
Instrument: Q Exactive Plus Orbitrap Thermo Scientific
Instrument type: LC-ESI-QFT
Ms type: MS2
Ion mode: NEGATIVE
Ionization: ESI
Fragmentation mode: HCD
Collision energy: 35  (nominal)
Resolution: 35000
Column name: Kinetex C18 EVO 2.6 um, 2.1x50 mm, precolumn 2.1x5 mm, Phenomenex
Retention time: 11.464 min
Base peak: 278.1396
Precursor m/z: 278.1398
Precursor type: [M-H]-
m/z	relative intensity	assigned
134.0975	6	C9H12N-
135.0814	6	C9H11O-
142.066	3	C10H8N-
143.0739	3	C10H9N-
144.0819	31	C10H10N-
156.0819	15	C11H10N-
158.0976	120	C11H12N-
160.1132	47	C11H14N-
170.0975	11	C12H12N-
172.1132	61	C12H14N-
174.1289	114	C12H16N-
175.1004	15	C11H13NO-
189.1159	1	C12H15NO-
190.1237	4	C12H16NO-
204.1392	8	C13H18NO-
206.1551	999	C13H20NO-
250.1449	9	C14H20NO3-
278.1397	20	C15H20NO4-
