Mass spectrum: Triclosan; LC-ESI-QFT; MS2; CE: 35 NCE; R=35000; [M-H]-
Name: Triclosan
Name: 5-chloro-2-(2,4-dichlorophenoxy)phenol
Formula: C12H7Cl3O2
Exact mass: 287.95116
SMILES: Oc1cc(Cl)ccc1Oc1ccc(Cl)cc1Cl
InChI: InChI=1S/C12H7Cl3O2/c13-7-1-3-11(9(15)5-7)17-12-4-2-8(14)6-10(12)16/h1-6,16H
Instrument: Q Exactive Plus Orbitrap Thermo Scientific
Instrument type: LC-ESI-QFT
Ms type: MS2
Ion mode: NEGATIVE
Ionization: ESI
Fragmentation mode: HCD
Collision energy: 35  (nominal)
Resolution: 35000
Column name: Kinetex C18 EVO 2.6 um, 2.1x50 mm, precolumn 2.1x5 mm, Phenomenex
Retention time: 13.086 min
Base peak: 286.9439
Precursor m/z: 286.9439
Precursor type: [M-H]-
m/z	relative intensity	assigned
141.9831	129	C6H3ClO2-
286.9439	999	C12H6Cl3O2-
