Mass spectrum: Hexa(methoxymethyl)melamine; LC-ESI-QFT; MS2; CE: 35 NCE; R=35000; [M+H]+
Name: Hexa(methoxymethyl)melamine
Name: 2-N,2-N,4-N,4-N,6-N,6-N-hexakis(methoxymethyl)-1,3,5-triazine-2,4,6-triamine
Formula: C15H30N6O6
Exact mass: 390.22268
SMILES: COCN(COC)C1=NC(=NC(=N1)N(COC)COC)N(COC)COC
InChI: InChI=1S/C15H30N6O6/c1-22-7-19(8-23-2)13-16-14(20(9-24-3)10-25-4)18-15(17-13)21(11-26-5)12-27-6/h7-12H2,1-6H3
Instrument: Q Exactive Plus Orbitrap Thermo Scientific
Instrument type: LC-ESI-QFT
Ms type: MS2
Ion mode: POSITIVE
Ionization: ESI
Fragmentation mode: HCD
Collision energy: 35  (nominal)
Resolution: 35000
Column name: Kinetex C18 EVO 2.6 um, 2.1x50 mm, precolumn 2.1x5 mm, Phenomenex
Retention time: 9.935 min
Base peak: 391.2296
Precursor m/z: 391.23
Precursor type: [M+H]+
m/z	relative intensity	assigned
69.0448	21	C3H5N2+
82.0401	3	C3H4N3+
84.0556	1	C3H6N3+
94.04	1	C4H4N3+
96.0557	18	C4H6N3+
121.0509	1	C5H5N4+
123.0665	5	C5H7N4+
148.0617	3	C6H6N5+
150.0776	3	C6H8N5+
177.0884	999	C7H9N6+
191.104	3	C8H11N6+
193.1199	9	C8H13N6+
207.099	287	C8H11N6O+
209.1149	9	C8H13N6O+
223.1301	1	C9H15N6O+
239.1254	3	C9H15N6O2+
253.141	21	C10H17N6O2+
269.136	10	C10H17N6O3+
283.1516	398	C11H19N6O3+
301.1623	16	C11H21N6O4+
315.178	15	C12H23N6O4+
329.1935	9	C13H25N6O4+
345.1891	1	C15H27N3O6+
359.2041	83	C14H27N6O5+
377.2145	18	C14H29N6O6+
391.2305	9	C15H31N6O6+
