Mass spectrum: Telmisartan; LC-ESI-QFT; MS2; CE: 35 NCE; R=35000; [M-H]-
Name: Telmisartan
Name: 2-[4-[[4-methyl-6-(1-methylbenzimidazol-2-yl)-2-propylbenzimidazol-1-yl]methyl]phenyl]benzoic acid
Formula: C33H30N4O2
Exact mass: 514.23688
SMILES: CCCC1=Nc2c(C)cc(C3=Nc4ccccc4N3C)cc2N1Cc1ccc(-c2ccccc2C(O)=O)cc1
InChI: InChI=1S/C33H30N4O2/c1-4-9-30-35-31-21(2)18-24(32-34-27-12-7-8-13-28(27)36(32)3)19-29(31)37(30)20-22-14-16-23(17-15-22)25-10-5-6-11-26(25)33(38)39/h5-8,10-19H,4,9,20H2,1-3H3,(H,38,39)
Instrument: Q Exactive Plus Orbitrap Thermo Scientific
Instrument type: LC-ESI-QFT
Ms type: MS2
Ion mode: NEGATIVE
Ionization: ESI
Fragmentation mode: HCD
Collision energy: 35  (nominal)
Resolution: 35000
Column name: Kinetex C18 EVO 2.6 um, 2.1x50 mm, precolumn 2.1x5 mm, Phenomenex
Retention time: 10.327 min
Base peak: 513.2295
Precursor m/z: 513.2296
Precursor type: [M-H]-
m/z	relative intensity	assigned
260.1074	5	C18H14NO-
272.1067	27	C17H12N4-
274.1225	15	C17H14N4-
285.1139	2	C18H13N4-
287.1303	999	C18H15N4-
288.1387	4	C18H16N4-
299.1294	2	C19H15N4-
301.1461	36	C19H17N4-
302.1534	21	C19H18N4-
303.1615	227	C19H19N4-
306.1116	2	C17H14N4O2-
315.1617	26	C20H19N4-
334.1435	45	C19H18N4O2-
425.1785	4	C31H23NO-
426.1862	8	C31H24NO-
439.1929	15	C30H23N4-
440.2018	34	C32H26NO-
469.2397	418	C32H29N4-
513.2295	632	C33H29N4O2-
