Mass spectrum: Ebastin; LC-ESI-QFT; MS2; CE: 35 NCE; R=35000; [M+H]+
Name: Ebastin
Name: 4-(4-benzhydryloxypiperidin-1-yl)-1-(4-tert-butylphenyl)butan-1-one
Formula: C32H39NO2
Exact mass: 469.29808
SMILES: CC(C)(C)C1=CC=C(C=C1)C(=O)CCCN1CCC(CC1)OC(C1=CC=CC=C1)C1=CC=CC=C1
InChI: InChI=1S/C32H39NO2/c1-32(2,3)28-18-16-25(17-19-28)30(34)15-10-22-33-23-20-29(21-24-33)35-31(26-11-6-4-7-12-26)27-13-8-5-9-14-27/h4-9,11-14,16-19,29,31H,10,15,20-24H2,1-3H3
Instrument: Q Exactive Plus Orbitrap Thermo Scientific
Instrument type: LC-ESI-QFT
Ms type: MS2
Ion mode: POSITIVE
Ionization: ESI
Fragmentation mode: HCD
Collision energy: 35  (nominal)
Resolution: 35000
Column name: Kinetex C18 EVO 2.6 um, 2.1x50 mm, precolumn 2.1x5 mm, Phenomenex
Retention time: 11.405 min
Base peak: 470.305
Precursor m/z: 470.3054
Precursor type: [M+H]+
m/z	relative intensity	assigned
91.0542	2	C7H7+
105.0699	2	C8H9+
146.0727	7	C10H10O+
152.0621	45	C12H8+
161.0961	329	C11H13O+
165.0699	55	C13H9+
166.0778	20	C13H10+
167.0855	999	C13H11+
169.0647	1	C12H9O+
173.0963	1	C12H13O+
188.1196	14	C13H16O+
203.1431	556	C14H19O+
284.2014	2	C19H26NO+
302.2116	13	C19H28NO2+
470.3057	755	C32H40NO2+
