Mass spectrum: 2,3-Dinitrophenol; LC-ESI-QFT; MS2; CE: 35 NCE; R=35000; [M-H]-
Name: 2,3-Dinitrophenol
Formula: C6H4N2O5
Exact mass: 184.01202
SMILES: OC1=C(C(=CC=C1)[N+]([O-])=O)[N+]([O-])=O
InChI: InChI=1S/C6H4N2O5/c9-5-3-1-2-4(7(10)11)6(5)8(12)13/h1-3,9H
Instrument: Q Exactive Plus Orbitrap Thermo Scientific
Instrument type: LC-ESI-QFT
Ms type: MS2
Ion mode: NEGATIVE
Ionization: ESI
Fragmentation mode: HCD
Collision energy: 35  (nominal)
Resolution: 35000
Column name: Kinetex C18 EVO 2.6 um, 2.1x50 mm, precolumn 2.1x5 mm, Phenomenex
Retention time: 7.116 min
Base peak: 183.0047
Precursor m/z: 183.0047
Precursor type: [M-H]-
m/z	relative intensity	assigned
79.0173	13	C3HN3-
81.033	2	C3H3N3-
82.0043	1	C2N3O-
91.0174	13	C4HN3-
92.0126	4	C3N4-
93.0206	6	C3HN4-
94.0047	3	C3N3O-
95.0125	41	C3HN3O-
97.0282	8	C3H3N3O-
107.0128	8	C4HN3O-
109.0159	12	C3HN4O-
111.0077	2	C3HN3O2-
123.0083	21	C6H3O3-
125.0114	32	C5H3NO3-
136.004	1	C6H2NO3-
137.0118	207	C6H3NO3-
153.0068	73	C6H3NO4-
183.0048	999	C6H3N2O5-
