Mass spectrum: Vardenafil; LC-ESI-QFT; MS2; CE: 35 NCE; R=35000; [M-H]-
Name: Vardenafil
Formula: C23H32N6O4S
Exact mass: 488.2206
SMILES: CCCC1=NC(C)=C2N1NC(=NC2=O)C1=CC(=CC=C1OCC)S(=O)(=O)N1CCN(CC)CC1
InChI: InChI=1S/C23H32N6O4S/c1-5-8-20-24-16(4)21-23(30)25-22(26-29(20)21)18-15-17(9-10-19(18)33-7-3)34(31,32)28-13-11-27(6-2)12-14-28/h9-10,15H,5-8,11-14H2,1-4H3,(H,25,26,30)
Instrument: Q Exactive Plus Orbitrap Thermo Scientific
Instrument type: LC-ESI-QFT
Ms type: MS2
Ion mode: NEGATIVE
Ionization: ESI
Fragmentation mode: HCD
Collision energy: 35  (nominal)
Resolution: 35000
Column name: Kinetex C18 EVO 2.6 um, 2.1x50 mm, precolumn 2.1x5 mm, Phenomenex
Retention time: 8.499 min
Base peak: 487.2134
Precursor m/z: 487.2133
Precursor type: [M-H]-
m/z	relative intensity	assigned
132.0326	12	C7H4N2O-
133.0404	8	C7H5N2O-
135.0195	9	C6H3N2O2-
137.1542	8	C7H21O2-
160.1987	9	H26N5O4-
163.0148	11	C7H3N2O3-
164.0229	40	C7H4N2O3-
204.0242	8	C9H6N3OS-
229.0734	17	C11H9N4O2-
282.1123	392	C15H14N4O2-
285.0994	400	C14H13N4O3-
286.1072	41	C14H14N4O3-
288.086	14	C13H12N4O4-
310.1432	11	C9H22N6O4S-
459.1822	685	C21H27N6O4S-
487.2132	999	C23H31N6O4S-
