Mass spectrum: Prochloraz; LC-ESI-QFT; MS2; CE: 35 NCE; R=35000; [M+H]+
Name: Prochloraz
Name: N-propyl-N-[2-(2,4,6-trichlorophenoxy)ethyl]imidazole-1-carboxamide
Formula: C15H16Cl3N3O2
Exact mass: 375.03081
SMILES: CCCN(CCOc1c(Cl)cc(Cl)cc1Cl)C(=O)n1ccnc1
InChI: InChI=1S/C15H16Cl3N3O2/c1-2-4-20(15(22)21-5-3-19-10-21)6-7-23-14-12(17)8-11(16)9-13(14)18/h3,5,8-10H,2,4,6-7H2,1H3
Instrument: Q Exactive Plus Orbitrap Thermo Scientific
Instrument type: LC-ESI-QFT
Ms type: MS2
Ion mode: POSITIVE
Ionization: ESI
Fragmentation mode: HCD
Collision energy: 35  (nominal)
Resolution: 35000
Column name: Kinetex C18 EVO 2.6 um, 2.1x50 mm, precolumn 2.1x5 mm, Phenomenex
Retention time: 11.903 min
Base peak: 284.141
Precursor m/z: 376.0381
Precursor type: [M+H]+
m/z	relative intensity	assigned
56.0497	33	C3H6N+
57.0575	8	C3H7N+
59.0493	3	C3H7O+
60.0445	5	C2H6NO+
70.0288	372	C3H4NO+
70.0652	274	C4H8N+
72.0445	2	C3H6NO+
74.0601	9	C3H8NO+
84.0807	3	C5H10N+
85.0886	44	C5H11N+
98.06	11	C5H8NO+
106.0419	3	C4H9ClN+
113.0836	5	C6H11NO+
138.0108	4	C7H5ClN+
158.9762	9	C7H5Cl2+
159.9843	2	C7H6Cl2+
160.9554	2	C6H3Cl2O+
161.9637	4	C3H7Cl3N+
166.0055	6	C8H5ClNO+
166.9218	6	C5H2Cl3+
167.0133	8	C8H6ClNO+
173.9873	10	C7H6Cl2N+
174.9713	21	C7H5Cl2O+
179.9297	2	C6H3Cl3+
180.0209	2	C9H7ClNO+
186.9711	1	C8H5Cl2O+
187.9792	3	C8H6Cl2O+
192.9374	2	C7H4Cl3+
194.9166	38	C6H2Cl3O+
194.9529	3	C7H6Cl3+
196.9323	14	C6H4Cl3O+
201.9821	31	C8H6Cl2NO+
206.9281	1	C6H2Cl3N2+
208.0524	2	C11H11ClNO+
209.0603	5	C11H12ClNO+
215.9979	2	C9H8Cl2NO+
222.948	33	C8H6Cl3O+
237.9586	11	C8H7Cl3NO+
239.9745	14	C8H9Cl3NO+
244.0292	20	C11H12Cl2NO+
245.037	11	C11H13Cl2NO+
265.9538	78	C9H7Cl3NO2+
280.0058	25	C11H13Cl3NO+
283.9646	3	C9H9Cl3NO3+
297.9801	9	C10H11Cl3NO3+
308.0008	999	C12H13Cl3NO2+
340.027	26	C13H17Cl3NO3+
376.0384	29	C15H17Cl3N3O2+
