Mass spectrum: Diflubenzuron; LC-ESI-QFT; MS2; CE: 35 NCE; R=35000; [M+H]+
Name: Diflubenzuron
Name: N-[(4-chlorophenyl)carbamoyl]-2,6-difluorobenzamide
Formula: C14H9ClF2N2O2
Exact mass: 310.03206
SMILES: FC1=CC=CC(F)=C1C(=O)NC(=O)NC1=CC=C(Cl)C=C1
InChI: InChI=1S/C14H9ClF2N2O2/c15-8-4-6-9(7-5-8)18-14(21)19-13(20)12-10(16)2-1-3-11(12)17/h1-7H,(H2,18,19,20,21)
Instrument: Q Exactive Plus Orbitrap Thermo Scientific
Instrument type: LC-ESI-QFT
Ms type: MS2
Ion mode: POSITIVE
Ionization: ESI
Fragmentation mode: HCD
Collision energy: 35  (nominal)
Resolution: 35000
Column name: Kinetex C18 EVO 2.6 um, 2.1x50 mm, precolumn 2.1x5 mm, Phenomenex
Retention time: 12.074 min
Base peak: 459.0862
Precursor m/z: 311.0393
Precursor type: [M+H]+
m/z	relative intensity	assigned
93.0573	1	C6H7N+
113.0198	1	C6H3F2+
126.0104	1	C6H5ClN+
128.0261	7	C6H7ClN+
140.0306	7	C7H4F2N+
141.0145	470	C7H3F2O+
158.0412	999	C7H6F2NO+
311.0393	80	C14H10ClF2N2O2+
