Mass spectrum: Gestoden; LC-ESI-QFT; MS2; CE: 35 NCE; R=35000; [M+H]+
Name: Gestoden
Name: 13-ethyl-17-ethynyl-17-hydroxy-1,2,6,7,8,9,10,11,12,13,14,17-dodecahydro-3h-cyclopenta[a]phenanthren-3-one(non-preferred name)
Name: 13-ethyl-17-ethynyl-17-hydroxy-1,2,6,7,8,9,10,11,12,14-decahydrocyclopenta[a]phenanthren-3-one
Formula: C21H26O2
Exact mass: 310.19328
SMILES: CCC12CCC3C(CCC4=CC(=O)CCC34)C1C=CC2(O)C#C
InChI: InChI=1S/C21H26O2/c1-3-20-11-9-17-16-8-6-15(22)13-14(16)5-7-18(17)19(20)10-12-21(20,23)4-2/h2,10,12-13,16-19,23H,3,5-9,11H2,1H3
Instrument: Q Exactive Plus Orbitrap Thermo Scientific
Instrument type: LC-ESI-QFT
Ms type: MS2
Ion mode: POSITIVE
Ionization: ESI
Fragmentation mode: HCD
Collision energy: 35  (nominal)
Resolution: 35000
Column name: Kinetex C18 EVO 2.6 um, 2.1x50 mm, precolumn 2.1x5 mm, Phenomenex
Retention time: 11.331 min
Base peak: 311.2001
Precursor m/z: 311.2006
Precursor type: [M+H]+
m/z	relative intensity	assigned
53.0024	6	C3HO+
53.0388	4	C4H5+
55.018	8	C3H3O+
55.0544	7	C4H7+
57.0336	5	C3H5O+
65.0388	3	C5H5+
67.0543	28	C5H7+
69.0336	4	C4H5O+
69.0699	6	C5H9+
71.0492	2	C4H7O+
77.0386	5	C6H5+
79.0542	51	C6H7+
81.0335	75	C5H5O+
81.0699	48	C6H9+
83.0491	74	C5H7O+
91.0542	62	C7H7+
93.0698	43	C7H9+
95.0492	15	C6H7O+
95.0855	34	C7H11+
97.0649	6	C6H9O+
97.1012	1	C7H13+
103.0542	7	C8H7+
105.0335	19	C7H5O+
105.0699	53	C8H9+
107.0491	52	C7H7O+
107.0855	27	C8H11+
109.0648	218	C7H9O+
109.1012	18	C8H13+
111.0805	2	C7H11O+
115.0542	10	C9H7+
116.0621	1	C9H8+
117.0699	39	C9H9+
119.049	4	C8H7O+
119.0855	52	C9H11+
121.0648	19	C8H9O+
121.1012	19	C9H13+
123.0804	16	C8H11O+
123.1169	3	C9H15+
125.096	1	C8H13O+
128.0621	10	C10H8+
129.0699	41	C10H9+
130.0777	4	C10H10+
131.049	3	C9H7O+
131.0855	52	C10H11+
133.0648	37	C9H9O+
133.1011	32	C10H13+
135.0804	44	C9H11O+
135.1167	7	C10H15+
137.096	5	C9H13O+
141.0698	22	C11H9+
142.0777	11	C11H10+
143.0855	39	C11H11+
144.057	2	C10H8O+
144.0932	1	C11H12+
145.0647	14	C10H9O+
145.1011	45	C11H13+
146.0725	2	C10H10O+
147.0804	33	C10H11O+
147.1168	17	C11H15+
149.0961	36	C10H13O+
149.1324	4	C11H17+
151.1115	1	C10H15O+
153.0697	9	C12H9+
154.0777	6	C12H10+
155.0855	25	C12H11+
156.0932	2	C12H12+
157.0648	7	C11H9O+
157.1012	30	C12H13+
158.0726	2	C11H10O+
159.0804	24	C11H11O+
159.1169	19	C12H15+
160.0884	2	C11H12O+
161.0961	25	C11H13O+
161.1323	14	C12H17+
163.1116	17	C11H15O+
165.0701	6	C13H9+
166.0778	5	C13H10+
167.0855	17	C13H11+
168.0933	10	C13H12+
169.1012	21	C13H13+
170.109	1	C13H14+
171.0804	7	C12H11O+
171.1167	32	C13H15+
172.0883	2	C12H12O+
173.0961	15	C12H13O+
173.1326	18	C13H17+
174.104	1	C12H14O+
175.1117	21	C12H15O+
175.1484	5	C13H19+
177.1273	1	C12H17O+
178.0779	3	C14H10+
179.0854	7	C14H11+
180.0935	2	C14H12+
181.101	24	C14H13+
182.1089	3	C14H14+
183.0808	4	C13H11O+
183.1169	31	C14H15+
184.088	1	C13H12O+
185.096	9	C13H13O+
185.1325	19	C14H17+
187.1118	10	C13H15O+
187.1479	4	C14H19+
188.1195	2	C13H16O+
189.1274	8	C13H17O+
189.1645	2	C14H21+
191.0855	6	C15H11+
192.0931	2	C15H12+
193.1012	10	C15H13+
194.1089	3	C15H14+
195.0807	2	C14H11O+
195.1169	17	C15H15+
196.1247	2	C15H16+
197.0962	6	C14H13O+
197.1325	13	C15H17+
199.1117	11	C14H15O+
199.1479	7	C15H19+
201.1274	35	C14H17O+
201.1637	11	C15H21+
203.0851	2	C16H11+
203.1067	1	C13H15O2+
203.1431	9	C14H19O+
204.0934	3	C16H12+
205.1013	8	C16H13+
206.1092	2	C16H14+
207.1169	8	C16H15+
209.0961	6	C15H13O+
209.1324	11	C16H17+
211.1115	4	C15H15O+
211.148	7	C16H19+
213.1273	7	C15H17O+
213.1637	16	C16H21+
214.1353	1	C15H18O+
215.1075	1	C14H15O2+
215.1432	7	C15H19O+
217.1011	1	C17H13+
217.1588	2	C15H21O+
218.1091	3	C17H14+
219.117	7	C17H15+
219.1742	7	C15H23O+
220.1248	2	C17H16+
221.1325	7	C17H17+
223.1117	6	C16H15O+
223.1479	12	C17H19+
224.1193	1	C16H16O+
225.1275	3	C16H17O+
225.1638	12	C17H21+
227.1429	5	C16H19O+
228.1507	1	C16H20O+
229.1585	4	C16H21O+
230.1662	7	C16H22O+
231.1167	2	C18H15+
231.1743	19	C16H23O+
232.1245	1	C18H16+
233.1325	6	C18H17+
235.1481	12	C18H19+
237.1271	6	C17H17O+
237.1637	4	C18H21+
239.1429	5	C17H19O+
239.1796	3	C18H23+
241.159	7	C17H21O+
243.1744	18	C17H23O+
246.1401	3	C19H18+
247.1478	5	C19H19+
249.1634	5	C19H21+
251.1436	4	C18H19O+
251.1794	4	C19H23+
253.1587	5	C18H21O+
255.1381	2	C17H19O2+
255.1742	1	C18H23O+
264.151	3	C19H20O+
265.1587	6	C19H21O+
265.1951	3	C20H25+
267.175	1	C19H23O+
269.1897	2	C19H25O+
275.1795	7	C21H23+
283.1696	2	C19H23O2+
283.2055	2	C20H27O+
293.19	33	C21H25O+
311.2005	999	C21H27O2+
