Mass spectrum: 2,4-Dibromphenol; LC-ESI-QFT; MS2; CE: 35 NCE; R=35000; [M-H]-
Name: 2,4-Dibromphenol
Formula: C6H4Br2O
Exact mass: 249.86289
SMILES: OC1=C(Br)C=C(Br)C=C1
InChI: InChI=1S/C6H4Br2O/c7-4-1-2-6(9)5(8)3-4/h1-3,9H
Instrument: Q Exactive Plus Orbitrap Thermo Scientific
Instrument type: LC-ESI-QFT
Ms type: MS2
Ion mode: NEGATIVE
Ionization: ESI
Fragmentation mode: HCD
Collision energy: 35  (nominal)
Resolution: 35000
Column name: Kinetex C18 EVO 2.6 um, 2.1x50 mm, precolumn 2.1x5 mm, Phenomenex
Retention time: 10.665 min
Base peak: 91.0021
Precursor m/z: 248.8556
Precursor type: [M-H]-
m/z	relative intensity	assigned
168.9295	14	C6H2BrO-
248.8557	999	C6H3Br2O-
