Mass spectrum: Benalaxyl; LC-ESI-QFT; MS2; CE: 35 NCE; R=35000; [M+H]+
Name: Benalaxyl
Name: methyl 2-(2,6-dimethyl-N-(2-phenylacetyl)anilino)propanoate
Formula: C20H23NO3
Exact mass: 325.16779
SMILES: COC(=O)C(C)N(C(=O)Cc1ccccc1)c1c(C)cccc1C
InChI: InChI=1S/C20H23NO3/c1-14-9-8-10-15(2)19(14)21(16(3)20(23)24-4)18(22)13-17-11-6-5-7-12-17/h5-12,16H,13H2,1-4H3
Instrument: Q Exactive Plus Orbitrap Thermo Scientific
Instrument type: LC-ESI-QFT
Ms type: MS2
Ion mode: POSITIVE
Ionization: ESI
Fragmentation mode: HCD
Collision energy: 35  (nominal)
Resolution: 35000
Column name: Kinetex C18 EVO 2.6 um, 2.1x50 mm, precolumn 2.1x5 mm, Phenomenex
Retention time: 12.490 min
Base peak: 342.0768
Precursor m/z: 326.1751
Precursor type: [M+H]+
m/z	relative intensity	assigned
65.0386	4	C5H5+
91.0542	550	C7H7+
105.0698	2	C8H9+
106.065	4	C7H8N+
107.0729	1	C7H9N+
118.0651	1	C8H8N+
120.0808	3	C8H10N+
121.0885	282	C8H11N+
122.0963	23	C8H12N+
131.0856	2	C10H11+
133.0882	3	C9H11N+
148.1119	999	C10H14N+
208.1331	374	C12H18NO2+
211.1353	1	C15H17N+
266.1538	140	C18H20NO+
294.1487	375	C19H20NO2+
326.175	201	C20H24NO3+
