Mass spectrum: Norethindrone; LC-ESI-QFT; MS2; CE: 35 NCE; R=35000; [M+H]+
Name: Norethindrone
Name: 17-Ethynyl-17-hydroxyestr-4-en-3-one
Name: 17-ethynyl-17-hydroxy-13-methyl-1,2,6,7,8,9,10,11,12,14,15,16-dodecahydrocyclopenta[a]phenanthren-3-one
Formula: C20H26O2
Exact mass: 298.19328
SMILES: CC12CCC3C(CCC4=CC(=O)CCC34)C1CCC2(O)C#C
InChI: InChI=1S/C20H26O2/c1-3-20(22)11-9-18-17-6-4-13-12-14(21)5-7-15(13)16(17)8-10-19(18,20)2/h1,12,15-18,22H,4-11H2,2H3
Instrument: Q Exactive Plus Orbitrap Thermo Scientific
Instrument type: LC-ESI-QFT
Ms type: MS2
Ion mode: POSITIVE
Ionization: ESI
Fragmentation mode: HCD
Collision energy: 35  (nominal)
Resolution: 35000
Column name: Kinetex C18 EVO 2.6 um, 2.1x50 mm, precolumn 2.1x5 mm, Phenomenex
Retention time: 11.255 min
Base peak: 299.2003
Precursor m/z: 299.2006
Precursor type: [M+H]+
m/z	relative intensity	assigned
53.0388	2	C4H5+
55.0181	3	C3H3O+
55.0544	5	C4H7+
67.0543	18	C5H7+
69.07	6	C5H9+
77.0387	3	C6H5+
79.0542	48	C6H7+
81.0335	4	C5H5O+
81.0699	44	C6H9+
83.0492	82	C5H7O+
91.0542	53	C7H7+
93.0699	40	C7H9+
95.0492	7	C6H7O+
95.0855	27	C7H11+
97.0648	8	C6H9O+
103.0541	4	C8H7+
105.0699	56	C8H9+
107.0492	33	C7H7O+
107.0855	29	C8H11+
109.0648	201	C7H9O+
109.1012	18	C8H13+
111.0804	11	C7H11O+
115.0542	8	C9H7+
116.0622	2	C9H8+
117.0699	40	C9H9+
119.0855	73	C9H11+
121.0648	10	C8H9O+
121.1012	25	C9H13+
123.0805	17	C8H11O+
123.1169	5	C9H15+
128.062	8	C10H8+
129.0699	30	C10H9+
130.0777	5	C10H10+
131.0855	56	C10H11+
133.0648	6	C9H9O+
133.1012	25	C10H13+
135.0804	40	C9H11O+
135.1167	7	C10H15+
137.096	4	C9H13O+
141.0699	11	C11H9+
142.0779	5	C11H10+
143.0855	45	C11H11+
144.0935	3	C11H12+
145.1012	59	C11H13+
147.0805	9	C10H11O+
147.1168	13	C11H15+
149.0961	21	C10H13O+
149.1325	2	C11H17+
151.1119	1	C10H15O+
153.0699	2	C12H9+
154.0777	2	C12H10+
155.0854	15	C12H11+
156.0935	4	C12H12+
157.1012	28	C12H13+
158.1092	1	C12H14+
159.0805	10	C11H11O+
159.1168	20	C12H15+
161.096	19	C11H13O+
161.1325	11	C12H17+
163.1118	14	C11H15O+
165.07	4	C13H9+
166.0776	1	C13H10+
167.0855	6	C13H11+
168.0934	1	C13H12+
169.1012	27	C13H13+
170.1089	2	C13H14+
171.1168	49	C13H15+
173.0962	5	C12H13O+
173.1325	25	C13H17+
175.1117	12	C12H15O+
179.0851	4	C14H11+
180.0933	2	C14H12+
181.1011	14	C14H13+
182.1091	2	C14H14+
183.1167	16	C14H15+
185.0961	8	C13H13O+
185.1325	17	C14H17+
187.1117	7	C13H15O+
187.1484	5	C14H19+
189.1273	7	C13H17O+
191.0857	1	C15H11+
192.0935	1	C15H12+
193.1012	6	C15H13+
194.1089	2	C15H14+
195.1169	14	C15H15+
197.096	1	C14H13O+
197.1326	11	C15H17+
198.1402	1	C15H18+
199.1117	5	C14H15O+
199.1482	8	C15H19+
201.1276	6	C14H17O+
203.1436	1	C14H19O+
205.1014	1	C16H13+
206.1092	2	C16H14+
207.1169	10	C16H15+
208.1249	2	C16H16+
209.1323	5	C16H17+
211.1119	4	C15H15O+
211.1481	15	C16H19+
213.1274	5	C15H17O+
213.1639	26	C16H21+
215.143	2	C15H19O+
219.1172	1	C17H15+
221.1325	13	C17H17+
222.1402	2	C17H18+
223.1482	19	C17H19+
225.1278	5	C16H17O+
225.164	2	C17H21+
227.1424	4	C16H19O+
229.1589	2	C16H21O+
231.1744	62	C16H23O+
234.1394	1	C18H18+
235.148	7	C18H19+
237.1639	5	C18H21+
239.1433	3	C17H19O+
239.1794	8	C18H23+
241.1585	4	C17H21O+
248.1561	2	C19H20+
253.1583	5	C18H21O+
255.175	2	C18H23O+
257.1902	2	C18H25O+
263.1795	17	C20H23+
281.1904	32	C20H25O+
299.2007	999	C20H27O2+
