Mass spectrum: 2,2-Dipyridyl; LC-ESI-QFT; MS2; CE: 35 NCE; R=35000; [M+H]+
Name: 2,2-Dipyridyl
Name: 2,2`-Bipyridine
Name: 2-pyridin-2-ylpyridine
Formula: C10H8N2
Exact mass: 156.06875
SMILES: C1=CC=C(N=C1)C1=CC=CC=N1
InChI: InChI=1S/C10H8N2/c1-3-7-11-9(5-1)10-6-2-4-8-12-10/h1-8H
Instrument: Q Exactive Plus Orbitrap Thermo Scientific
Instrument type: LC-ESI-QFT
Ms type: MS2
Ion mode: POSITIVE
Ionization: ESI
Fragmentation mode: HCD
Collision energy: 35  (nominal)
Resolution: 35000
Column name: Kinetex C18 EVO 2.6 um, 2.1x50 mm, precolumn 2.1x5 mm, Phenomenex
Retention time: 1.022 min
Base peak: 157.0758
Precursor m/z: 157.076
Precursor type: [M+H]+
m/z	relative intensity	assigned
78.0336	2	C5H4N+
96.0443	3	C5H6NO+
130.065	14	C9H8N+
156.0684	1	C10H8N2+
157.0759	999	C10H9N2+
