Mass spectrum: 2,2`,4,4`-Tetrahydroxybenzophenone; LC-ESI-QFT; MS2; CE: 35 NCE; R=35000; [M-H]-
Name: 2,2`,4,4`-Tetrahydroxybenzophenone
Name: bis(2,4-dihydroxyphenyl)methanone
Formula: C13H10O5
Exact mass: 246.05282
SMILES: OC1=CC(O)=C(C=C1)C(=O)C1=C(O)C=C(O)C=C1
InChI: InChI=1S/C13H10O5/c14-7-1-3-9(11(16)5-7)13(18)10-4-2-8(15)6-12(10)17/h1-6,14-17H
Instrument: Q Exactive Plus Orbitrap Thermo Scientific
Instrument type: LC-ESI-QFT
Ms type: MS2
Ion mode: NEGATIVE
Ionization: ESI
Fragmentation mode: HCD
Collision energy: 35  (nominal)
Resolution: 35000
Column name: Kinetex C18 EVO 2.6 um, 2.1x50 mm, precolumn 2.1x5 mm, Phenomenex
Retention time: 8.846 min
Base peak: 245.0454
Precursor m/z: 245.0455
Precursor type: [M-H]-
m/z	relative intensity	assigned
129.0705	1	C10H9-
131.05	1	C9H7O-
135.0086	999	C7H3O3-
153.0193	295	C7H5O4-
156.0578	4	C11H8O-
157.0659	9	C11H9O-
158.0373	3	C10H6O2-
159.0451	23	C10H7O2-
167.0349	27	C8H7O4-
177.0557	7	C10H9O3-
201.0556	25	C12H9O3-
227.0347	12	C13H7O4-
245.0455	737	C13H9O5-
