Mass spectrum: Mycophenolic acid; LC-ESI-QFT; MS2; CE: 35 NCE; R=35000; [M-H]-
Name: Mycophenolic acid
Name: (E)-6-(4-hydroxy-6-methoxy-7-methyl-3-oxo-1H-2-benzofuran-5-yl)-4-methylhex-4-enoic acid
Formula: C17H20O6
Exact mass: 320.12599
SMILES: COc1c(C)c2COC(=O)c2c(O)c1C\C=C(/C)CCC(O)=O
InChI: InChI=1S/C17H20O6/c1-9(5-7-13(18)19)4-6-11-15(20)14-12(8-23-17(14)21)10(2)16(11)22-3/h4,20H,5-8H2,1-3H3,(H,18,19)/b9-4+
Instrument: Q Exactive Plus Orbitrap Thermo Scientific
Instrument type: LC-ESI-QFT
Ms type: MS2
Ion mode: NEGATIVE
Ionization: ESI
Fragmentation mode: HCD
Collision energy: 35  (nominal)
Resolution: 35000
Column name: Kinetex C18 EVO 2.6 um, 2.1x50 mm, precolumn 2.1x5 mm, Phenomenex
Retention time: 10.829 min
Base peak: 423.2387
Precursor m/z: 319.1187
Precursor type: [M-H]-
m/z	relative intensity	assigned
133.0658	5	C9H9O-
135.045	12	C8H7O2-
137.0246	1	C7H5O3-
137.0607	5	C8H9O2-
147.0451	8	C9H7O2-
148.053	8	C9H8O2-
149.0609	7	C9H9O2-
160.0529	4	C10H8O2-
161.0608	15	C10H9O2-
161.0973	7	C11H13O-
163.0401	6	C9H7O3-
163.0766	1	C10H11O2-
164.048	7	C9H8O3-
171.0815	1	C12H11O-
171.1183	1	C13H15-
173.0609	15	C11H9O2-
173.0972	3	C12H13O-
174.0686	2	C11H10O2-
177.0194	5	C9H5O4-
177.0555	1	C10H9O3-
178.0272	5	C9H6O4-
179.035	96	C9H7O4-
183.0817	4	C13H11O-
186.0682	1	C12H10O2-
187.0764	11	C12H11O2-
188.0847	2	C12H12O2-
189.0919	4	C12H13O2-
191.035	318	C10H7O4-
192.0428	88	C10H8O4-
193.0508	2	C10H9O4-
199.1129	16	C14H15O-
200.0845	1	C13H12O2-
201.0923	13	C13H13O2-
203.0351	26	C11H7O4-
204.0427	3	C11H8O4-
205.0507	131	C11H9O4-
206.0587	1	C11H10O4-
207.0663	35	C11H11O4-
210.0695	1	C14H10O2-
215.0714	1	C13H11O3-
215.108	19	C14H15O2-
217.0504	1	C12H9O4-
217.0871	1	C13H13O3-
224.0328	17	C10H8O6-
225.0921	4	C15H13O2-
227.0712	1	C14H11O3-
228.08	1	C14H12O3-
230.0587	1	C13H10O4-
231.0664	17	C13H11O4-
231.1032	1	C14H15O3-
232.0745	4	C13H12O4-
233.0823	13	C13H13O4-
241.0872	3	C15H13O3-
243.0666	8	C14H11O4-
243.1028	33	C15H15O3-
245.082	34	C14H13O4-
258.1266	1	C16H18O3-
259.098	4	C15H15O4-
269.0819	19	C16H13O4-
275.1291	174	C16H19O4-
285.0771	5	C16H13O5-
287.0925	75	C16H15O5-
301.1087	4	C17H17O5-
319.1187	999	C17H19O6-
