Mass spectrum: Losartan; LC-ESI-QFT; MS2; CE: 35 NCE; R=35000; [M-H]-
Name: Losartan
Name: [2-butyl-5-chloro-3-[[4-[2-(2H-tetrazol-5-yl)phenyl]phenyl]methyl]imidazol-4-yl]methanol
Formula: C22H23ClN6O
Exact mass: 422.16219
SMILES: CCCCC1=NC(Cl)=C(CO)N1Cc1ccc(-c2ccccc2C2=NNN=N2)cc1
InChI: InChI=1S/C22H23ClN6O/c1-2-3-8-20-24-21(23)19(14-30)29(20)13-15-9-11-16(12-10-15)17-6-4-5-7-18(17)22-25-27-28-26-22/h4-7,9-12,30H,2-3,8,13-14H2,1H3,(H,25,26,27,28)
Instrument: Q Exactive Plus Orbitrap Thermo Scientific
Instrument type: LC-ESI-QFT
Ms type: MS2
Ion mode: NEGATIVE
Ionization: ESI
Fragmentation mode: HCD
Collision energy: 35  (nominal)
Resolution: 35000
Column name: Kinetex C18 EVO 2.6 um, 2.1x50 mm, precolumn 2.1x5 mm, Phenomenex
Retention time: 10.864 min
Base peak: 421.1549
Precursor m/z: 421.1549
Precursor type: [M-H]-
m/z	relative intensity	assigned
113.9981	27	C7NO-
127.0065	446	C8HNO-
140.0145	4	C6H5ClN2-
141.9938	1	C5H3ClN2O-
155.0381	61	C7H8ClN2-
156.0459	8	C7H9ClN2-
157.0538	242	C7H10ClN2-
165.0709	8	C13H9-
169.0537	1	C8H10ClN2-
174.0196	1	C4H5ClN5O-
177.0708	1	C14H9-
178.0788	1	C14H10-
179.0866	243	C14H11-
180.0579	2	C13H8O-
185.0487	10	C8H10ClN2O-
187.0643	139	C8H12ClN2O-
188.0357	10	C7H9ClN2O2-
193.0659	19	C14H9O-
195.0815	45	C14H11O-
207.0922	1	C14H11N2-
216.081	1	C16H10N-
223.0767	2	C12H14ClNO-
241.0777	1	C17H9N2-
259.1365	1	C19H17N-
270.1169	1	C19H14N2-
272.1446	17	C20H18N-
277.0533	4	C20H7NO-
291.0693	12	C18H12ClN2-
292.0779	4	C18H13ClN2-
297.138	1	C15H22ClN2O2-
299.1556	7	C21H19N2-
320.1082	9	C20H17ClN2-
333.1173	1	C21H18ClN2-
335.1321	46	C21H20ClN2-
363.1389	14	C21H20ClN4-
393.1492	14	C22H22ClN4O-
421.1551	999	C22H22ClN6O-
