Mass spectrum: Dodecyl sulfate; LC-ESI-QFT; MS2; CE: 35 NCE; R=35000; [M-H]-
Name: Lauryl sulfate
Name: dodecyl hydrogen sulfate
Name: (Dodecyloxy)sulfonic acid
Name: Dodecyl sulfate
Formula: C12H26O4S
Exact mass: 266.1551803
SMILES: CCCCCCCCCCCCOS(=O)(=O)O
InChI: InChI=1S/C12H26O4S/c1-2-3-4-5-6-7-8-9-10-11-12-16-17(13,14)15/h2-12H2,1H3,(H,13,14,15)
Instrument: Q Exactive Plus Orbitrap Thermo Scientific
Instrument type: LC-ESI-QFT
Ms type: MS2
Ion mode: NEGATIVE
Ionization: ESI
Fragmentation mode: HCD
Collision energy: 35  (nominal)
Resolution: 35000
Column name: Kinetex C18 EVO 2.6 um, 2.1x50 mm, precolumn 2.1x5 mm, Phenomenex
Retention time: 17.291 min
Base peak: 112.9847
Precursor m/z: 265.1479
Precursor type: [M-H]-
m/z	relative intensity	assigned
265.1479	999	C12H25O4S-
