Mass spectrum: Fipronil; LC-ESI-QFT; MS2; CE: 35 NCE; R=35000; [M-H]-
Name: Fipronil
Name: 5-amino-1-[2,6-dichloro-4-(trifluoromethyl)phenyl]-4-(trifluoromethylsulfinyl)pyrazole-3-carbonitrile
Formula: C12H4Cl2F6N4OS
Exact mass: 435.93871
SMILES: NC1=C(C(=NN1C1=C(Cl)C=C(C=C1Cl)C(F)(F)F)C#N)S(=O)C(F)(F)F
InChI: InChI=1S/C12H4Cl2F6N4OS/c13-5-1-4(11(15,16)17)2-6(14)8(5)24-10(22)9(7(3-21)23-24)26(25)12(18,19)20/h1-2H,22H2
Instrument: Q Exactive Plus Orbitrap Thermo Scientific
Instrument type: LC-ESI-QFT
Ms type: MS2
Ion mode: NEGATIVE
Ionization: ESI
Fragmentation mode: HCD
Collision energy: 35  (nominal)
Resolution: 35000
Column name: Kinetex C18 EVO 2.6 um, 2.1x50 mm, precolumn 2.1x5 mm, Phenomenex
Retention time: 12.263 min
Base peak: 434.9313
Precursor m/z: 434.9314
Precursor type: [M-H]-
m/z	relative intensity	assigned
81.9739	1	ClFN2-
143.0052	4	C8FN2-
148.9914	1	C7H2ClN2-
150.0033	7	C7F2N2-
160.0014	1	CF4N4O-
162.0038	1	C8F2N2-
163.0113	27	C8HF2N2-
170.0098	72	C7HF3N2-
172.9829	1	C5H2FN2O2S-
182.0098	42	C8HF3N2-
183.0176	256	C8H2F3N2-
201.9985	4	C10F2N2O-
208.9583	5	C8H2ClN2OS-
212.9492	13	C7H2Cl2F3-
214.9896	1	C8H2F3N2S-
216.9788	6	C8HClF3N2-
217.9864	59	C8H2ClF3N2-
223.9833	4	C6H3ClF6-
227.9834	1	C10H2ClF3N-
228.9437	1	C2HCl2F4N3O-
233.9813	11	C8H2ClF3N2O-
235.9558	2	C8H2ClF3NS-
236.9977	1	C12H2ClN4-
242.9849	8	C9H2F3N2OS-
243.9896	82	C9H2ClF3N3-
244.9214	1	C7H2Cl2F3S-
245.9819	1	C7H2F6NS-
249.9586	592	C8H2ClF3N2S-
253.9867	20	C11H2ClF3N2-
255.9897	1	C10H2ClF3N3-
262.9524	1	C10H2Cl2F3N-
267.9896	47	C11H2ClF3N3-
271.9845	5	C10H2ClF3N3O-
277.9534	266	C9H2ClF3N2OS-
278.9966	1	C8H3F4N4OS-
280.9571	24	C9H2ClF4N2S-
281.9926	92	C11H2ClF3N4-
283.0008	1	C11H3ClF3N4-
287.9617	29	C10H2ClF3N3S-
303.9567	5	C10H2ClF3N3OS-
317.9693	182	C11H3Cl2F3N4-
329.9597	999	C11H2ClF3N4OS-
332.9635	23	C11H2ClF4N4S-
348.9329	4	C11H2Cl2F3N4S-
350.9875	8	C12H2ClF6N4-
364.9283	5	C11H2Cl2F3N4OS-
365.9361	50	C11H3Cl2F3N4OS-
398.9549	125	C12H2ClF6N4OS-
434.9316	144	C12H3Cl2F6N4OS-
