Mass spectrum: Monoethyl phthalate; LC-ESI-QFT; MS2; CE: 35 NCE; R=35000; [M-H]-
Name: Monoethyl phthalate
Name: 2-ethoxycarbonylbenzoic acid
Formula: C10H10O4
Exact mass: 194.05791
SMILES: CCOC(=O)C1=CC=CC=C1C(O)=O
InChI: InChI=1S/C10H10O4/c1-2-14-10(13)8-6-4-3-5-7(8)9(11)12/h3-6H,2H2,1H3,(H,11,12)
Instrument: Q Exactive Plus Orbitrap Thermo Scientific
Instrument type: LC-ESI-QFT
Ms type: MS2
Ion mode: NEGATIVE
Ionization: ESI
Fragmentation mode: HCD
Collision energy: 35  (nominal)
Resolution: 35000
Column name: Kinetex C18 EVO 2.6 um, 2.1x50 mm, precolumn 2.1x5 mm, Phenomenex
Retention time: 8.186 min
Base peak: 193.0506
Precursor m/z: 193.0506
Precursor type: [M-H]-
m/z	relative intensity	assigned
134.037	109	C8H6O2-
147.0088	207	C8H3O3-
147.045	31	C9H7O2-
149.0607	360	C9H9O2-
165.0195	36	C8H5O4-
179.0348	44	C9H7O4-
193.0506	999	C10H9O4-
