Mass spectrum: Myclobutanil; LC-ESI-QFT; MS2; CE: 35 NCE; R=35000; [M+H]+
Name: Myclobutanil
Name: 2-(4-chlorophenyl)-2-(1,2,4-triazol-1-ylmethyl)hexanenitrile
Formula: C15H17ClN4
Exact mass: 288.11417
SMILES: CCCCC(Cn1cncn1)(C#N)c1ccc(Cl)cc1
InChI: InChI=1S/C15H17ClN4/c1-2-3-8-15(9-17,10-20-12-18-11-19-20)13-4-6-14(16)7-5-13/h4-7,11-12H,2-3,8,10H2,1H3
Instrument: Q Exactive Plus Orbitrap Thermo Scientific
Instrument type: LC-ESI-QFT
Ms type: MS2
Ion mode: POSITIVE
Ionization: ESI
Fragmentation mode: HCD
Collision energy: 35  (nominal)
Resolution: 35000
Column name: Kinetex C18 EVO 2.6 um, 2.1x50 mm, precolumn 2.1x5 mm, Phenomenex
Retention time: 11.600 min
Base peak: 296.1157
Precursor m/z: 289.1215
Precursor type: [M+H]+
m/z	relative intensity	assigned
55.0544	3	C4H7+
57.07	1	C4H9+
70.04	999	C2H4N3+
81.07	3	C6H9+
82.0651	2	C5H8N+
83.0479	4	C3H5N3+
95.073	2	C6H9N+
115.0541	2	C9H7+
116.0622	2	C9H8+
125.0153	237	C7H6Cl+
130.0651	3	C9H8N+
139.031	1	C8H8Cl+
149.0152	2	C9H6Cl+
150.0105	3	C8H5ClN+
151.0309	54	C9H8Cl+
153.0699	2	C12H9+
164.0261	16	C9H7ClN+
165.034	5	C9H8ClN+
166.0419	7	C9H9ClN+
167.0857	1	C13H11+
168.0933	5	C13H12+
175.0309	3	C11H8Cl+
178.0418	13	C10H9ClN+
185.1197	1	C13H15N+
191.0499	1	C11H10ClN+
192.0574	3	C11H11ClN+
193.0777	7	C12H14Cl+
203.0623	7	C13H12Cl+
220.0887	22	C13H15ClN+
289.1215	691	C15H18ClN4+
