Mass spectrum: Triclocarban; LC-ESI-QFT; MS2; CE: 35 NCE; R=35000; [M+H]+
Name: Triclocarban
Name: 1-(4-chlorophenyl)-3-(3,4-dichlorophenyl)urea
Formula: C13H9Cl3N2O
Exact mass: 313.97805
SMILES: ClC1=CC=C(NC(=O)NC2=CC=C(Cl)C(Cl)=C2)C=C1
InChI: InChI=1S/C13H9Cl3N2O/c14-8-1-3-9(4-2-8)17-13(19)18-10-5-6-11(15)12(16)7-10/h1-7H,(H2,17,18,19)
Instrument: Q Exactive Plus Orbitrap Thermo Scientific
Instrument type: LC-ESI-QFT
Ms type: MS2
Ion mode: POSITIVE
Ionization: ESI
Fragmentation mode: HCD
Collision energy: 35  (nominal)
Resolution: 35000
Column name: Kinetex C18 EVO 2.6 um, 2.1x50 mm, precolumn 2.1x5 mm, Phenomenex
Retention time: 13.114 min
Base peak: 267.1717
Precursor m/z: 314.9853
Precursor type: [M+H]+
m/z	relative intensity	assigned
65.0387	1	C5H5+
92.0494	1	C6H6N+
93.0573	276	C6H7N+
98.9996	2	C5H4Cl+
126.0105	86	C6H5ClN+
127.0183	565	C6H6ClN+
128.0261	467	C6H7ClN+
132.9605	2	C5H3Cl2+
154.0054	38	C7H5ClNO+
159.9715	47	C6H4Cl2N+
161.9871	474	C6H6Cl2N+
187.9664	20	C7H4Cl2NO+
314.9853	999	C13H10Cl3N2O+
