Mass spectrum: 1,3-Dihydroxyanthraquinone; LC-ESI-QFT; MS2; CE: 35 NCE; R=35000; [M-H]-
Name: 1,3-Dihydroxyanthraquinone
Name: Xanthopurpurin
Name: 1,3-dihydroxyanthracene-9,10-dione
Formula: C14H8O4
Exact mass: 240.04226
SMILES: Oc1cc(O)c2C(=O)c3ccccc3C(=O)c2c1
InChI: InChI=1S/C14H8O4/c15-7-5-10-12(11(16)6-7)14(18)9-4-2-1-3-8(9)13(10)17/h1-6,15-16H
Instrument: Q Exactive Plus Orbitrap Thermo Scientific
Instrument type: LC-ESI-QFT
Ms type: MS2
Ion mode: NEGATIVE
Ionization: ESI
Fragmentation mode: HCD
Collision energy: 35  (nominal)
Resolution: 35000
Column name: Kinetex C18 EVO 2.6 um, 2.1x50 mm, precolumn 2.1x5 mm, Phenomenex
Retention time: 11.591 min
Base peak: 239.0349
Precursor m/z: 239.035
Precursor type: [M-H]-
m/z	relative intensity	assigned
155.0502	1	C11H7O-
167.0502	9	C12H7O-
183.0455	2	C12H7O2-
195.0451	120	C13H7O2-
197.0243	5	C12H5O3-
210.0323	4	C13H6O3-
211.0401	143	C13H7O3-
239.0349	999	C14H7O4-
