Mass spectrum: Monensin; LC-ESI-QFT; MS2; CE: 35 NCE; R=35000; [M-H]-
Name: Monensin
Formula: C36H62O11
Exact mass: 670.4292
SMILES: CC[C@]1(CC[C@@H](O1)[C@@]1(C)CC[C@]2(C[C@H](O)[C@@H](C)[C@H](O2)[C@H](C)[C@H](OC)[C@@H](C)C(O)=O)O1)[C@H]1O[C@@H](C[C@H]1C)[C@H]1O[C@@](O)(CO)[C@H](C)C[C@@H]1C
InChI: InChI=1S/C36H62O11/c1-10-34(31-20(3)16-26(43-31)28-19(2)15-21(4)36(41,18-37)46-28)12-11-27(44-34)33(8)13-14-35(47-33)17-25(38)22(5)30(45-35)23(6)29(42-9)24(7)32(39)40/h19-31,37-38,41H,10-18H2,1-9H3,(H,39,40)/t19-,20+,21+,22+,23+,24+,25-,26-,27+,28-,29-,30-,31-,33+,34-,35+,36-/m0/s1
Instrument: Q Exactive Plus Orbitrap Thermo Scientific
Instrument type: LC-ESI-QFT
Ms type: MS2
Ion mode: NEGATIVE
Ionization: ESI
Fragmentation mode: HCD
Collision energy: 35  (nominal)
Resolution: 35000
Column name: Kinetex C18 EVO 2.6 um, 2.1x50 mm, precolumn 2.1x5 mm, Phenomenex
Retention time: 14.973 min
Base peak: 669.4221
Precursor m/z: 669.4219
Precursor type: [M-H]-
m/z	relative intensity	assigned
135.0817	7	C9H11O-
137.097	49	C9H13O-
153.0922	18	C9H13O2-
194.304	7	C6H42O5-
276.2417	7	C14H32N2O3-
318.0174	8	C18H6O6-
507.1531	8	C27H25NO9-
637.3938	52	C35H57O10-
669.4219	999	C36H61O11-
