Mass spectrum: Indazole; LC-ESI-QFT; MS2; CE: 35 NCE; R=35000; [M+H]+
Name: Indazole
Name: 1H-indazole
Formula: C7H6N2
Exact mass: 118.05310
SMILES: N1N=CC2=CC=CC=C12
InChI: InChI=1S/C7H6N2/c1-2-4-7-6(3-1)5-8-9-7/h1-5H,(H,8,9)
Instrument: Q Exactive Plus Orbitrap Thermo Scientific
Instrument type: LC-ESI-QFT
Ms type: MS2
Ion mode: POSITIVE
Ionization: ESI
Fragmentation mode: HCD
Collision energy: 35  (nominal)
Resolution: 35000
Column name: Kinetex C18 EVO 2.6 um, 2.1x50 mm, precolumn 2.1x5 mm, Phenomenex
Retention time: 6.364 min
Base peak: 119.0602
Precursor m/z: 119.0604
Precursor type: [M+H]+
m/z	relative intensity	assigned
59.0493	2	C3H7O+
65.0386	7	C5H5+
92.0494	56	C6H6N+
119.0603	999	C7H7N2+
