Mass spectrum: Morpholine; LC-ESI-QFT; MS2; CE: 35 NCE; R=35000; [M+H]+
Name: Morpholine
Name: Morpholin
Formula: C4H9NO
Exact mass: 87.06841
SMILES: C1COCCN1
InChI: InChI=1S/C4H9NO/c1-3-6-4-2-5-1/h5H,1-4H2
Instrument: Q Exactive Plus Orbitrap Thermo Scientific
Instrument type: LC-ESI-QFT
Ms type: MS2
Ion mode: POSITIVE
Ionization: ESI
Fragmentation mode: HCD
Collision energy: 35  (nominal)
Resolution: 35000
Column name: Kinetex C18 EVO 2.6 um, 2.1x50 mm, precolumn 2.1x5 mm, Phenomenex
Retention time: 0.405 min
Base peak: 86.0963
Precursor m/z: 88.0757
Precursor type: [M+H]+
m/z	relative intensity	assigned
60.0445	2	C2H6NO+
68.0495	4	C4H6N+
70.0651	200	C4H8N+
71.0128	1	C3H3O2+
88.0756	999	C4H10NO+
