Mass spectrum: 2`-Methylacetanilide; LC-ESI-QFT; MS2; CE: 35 NCE; R=35000; [M+H]+
Name: 2`-Methylacetanilide
Name: o-Acetotoluidide
Name: N-(2-methylphenyl)acetamide
Formula: C9H11NO
Exact mass: 149.08406
SMILES: CC(=O)NC1=C(C)C=CC=C1
InChI: InChI=1S/C9H11NO/c1-7-5-3-4-6-9(7)10-8(2)11/h3-6H,1-2H3,(H,10,11)
Instrument: Q Exactive Plus Orbitrap Thermo Scientific
Instrument type: LC-ESI-QFT
Ms type: MS2
Ion mode: POSITIVE
Ionization: ESI
Fragmentation mode: HCD
Collision energy: 35  (nominal)
Resolution: 35000
Column name: Kinetex C18 EVO 2.6 um, 2.1x50 mm, precolumn 2.1x5 mm, Phenomenex
Retention time: 4.187 min
Base peak: 150.0911
Precursor m/z: 150.0913
Precursor type: [M+H]+
m/z	relative intensity	assigned
65.0388	1	C5H5+
91.0541	9	C7H7+
93.0573	54	C6H7N+
106.0651	1	C7H8N+
108.0807	999	C7H10N+
109.0648	20	C7H9O+
132.0807	9	C9H10N+
150.0913	764	C9H12NO+
