Mass spectrum: Chlorothalonil-4-hydroxy; LC-ESI-QFT; MS2; CE: 35 NCE; R=35000; [M-H]-
Name: Chlorothalonil-4-hydroxy
Name: 4-Hydroxychlorothalonil
Name: 2,4,5-trichloro-6-hydroxybenzene-1,3-dicarbonitrile
Formula: C8HCl3N2O
Exact mass: 245.91545
SMILES: Oc1c(Cl)c(Cl)c(C#N)c(Cl)c1C#N
InChI: InChI=1S/C8HCl3N2O/c9-5-3(1-12)6(10)7(11)8(14)4(5)2-13/h14H
Instrument: Q Exactive Plus Orbitrap Thermo Scientific
Instrument type: LC-ESI-QFT
Ms type: MS2
Ion mode: NEGATIVE
Ionization: ESI
Fragmentation mode: HCD
Collision energy: 35  (nominal)
Resolution: 35000
Column name: Kinetex C18 EVO 2.6 um, 2.1x50 mm, precolumn 2.1x5 mm, Phenomenex
Retention time: 12.918 min
Base peak: 244.9081
Precursor m/z: 244.9082
Precursor type: [M-H]-
m/z	relative intensity	assigned
146.9756	2	C7ClN2-
150.9705	1	C6ClN2O-
174.9704	17	C8ClN2O-
178.9654	2	C7ClN2O2-
181.9444	6	C7Cl2N2-
209.9394	10	C8Cl2N2O-
244.9081	999	C8Cl3N2O-
