Mass spectrum: 2-Methylindole; LC-ESI-QFT; MS2; CE: 35 NCE; R=35000; [M+H]+
Name: 2-Methylindole
Name: 2-METHYLINDOLE
Name: 2-methyl-1H-indole
Formula: C9H9N
Exact mass: 131.07350
SMILES: CC1=CC2=CC=CC=C2N1
InChI: InChI=1S/C9H9N/c1-7-6-8-4-2-3-5-9(8)10-7/h2-6,10H,1H3
Instrument: Q Exactive Plus Orbitrap Thermo Scientific
Instrument type: LC-ESI-QFT
Ms type: MS2
Ion mode: POSITIVE
Ionization: ESI
Fragmentation mode: HCD
Collision energy: 35  (nominal)
Resolution: 35000
Column name: Kinetex C18 EVO 2.6 um, 2.1x50 mm, precolumn 2.1x5 mm, Phenomenex
Retention time: 8.889 min
Base peak: 65.0597
Precursor m/z: 132.0808
Precursor type: [M+H]+
m/z	relative intensity	assigned
91.0542	1	C7H7+
105.0698	8	C8H9+
115.054	2	C9H7+
117.0572	88	C8H7N+
130.0652	1	C9H8N+
131.0729	1	C9H9N+
132.0807	999	C9H10N+
