Mass spectrum: 4,7-Phenanthroline; LC-ESI-QFT; MS2; CE: 35 NCE; R=35000; [M+H]+
Name: 4,7-Phenanthroline
Name: 4,7-phenanthrolin
Formula: C12H8N2
Exact mass: 180.06875
SMILES: C1=CN=C2C=CC3=NC=CC=C3C2=C1
InChI: InChI=1S/C12H8N2/c1-3-9-10-4-2-8-14-12(10)6-5-11(9)13-7-1/h1-8H
Instrument: Q Exactive Plus Orbitrap Thermo Scientific
Instrument type: LC-ESI-QFT
Ms type: MS2
Ion mode: POSITIVE
Ionization: ESI
Fragmentation mode: HCD
Collision energy: 35  (nominal)
Resolution: 35000
Column name: Kinetex C18 EVO 2.6 um, 2.1x50 mm, precolumn 2.1x5 mm, Phenomenex
Retention time: 2.881 min
Base peak: 181.0757
Precursor m/z: 181.076
Precursor type: [M+H]+
m/z	relative intensity	assigned
111.0231	1	C9H3+
121.0075	1	C10H+
139.018	1	C10H3O+
181.0759	999	C12H9N2+
