Mass spectrum: Ethylparaben; LC-ESI-QFT; MS2; CE: 35 NCE; R=35000; [M-H]-
Name: Ethylparaben
Name: Ethyl 4-hydroxybenzoate
Name: ethyl 4-hydroxybenzoate
Formula: C9H10O3
Exact mass: 166.06299
SMILES: CCOC(=O)c1ccc(O)cc1
InChI: InChI=1S/C9H10O3/c1-2-12-9(11)7-3-5-8(10)6-4-7/h3-6,10H,2H2,1H3
Instrument: Q Exactive Plus Orbitrap Thermo Scientific
Instrument type: LC-ESI-QFT
Ms type: MS2
Ion mode: NEGATIVE
Ionization: ESI
Fragmentation mode: HCD
Collision energy: 35  (nominal)
Resolution: 35000
Column name: Kinetex C18 EVO 2.6 um, 2.1x50 mm, precolumn 2.1x5 mm, Phenomenex
Retention time: 8.930 min
Base peak: 112.9847
Precursor m/z: 165.0557
Precursor type: [M-H]-
m/z	relative intensity	assigned
121.029	14	C7H5O2-
136.0165	237	C7H4O3-
137.0244	509	C7H5O3-
165.0557	999	C9H9O3-
