Mass spectrum: Ambroxol; LC-ESI-QFT; MS2; CE: 35 NCE; R=35000; [M+H]+
Name: Ambroxol
Name: 4-[(2-amino-3,5-dibromophenyl)methylamino]cyclohexan-1-ol
Formula: C13H18Br2N2O
Exact mass: 375.97859
SMILES: NC1=C(Br)C=C(Br)C=C1CNC1CCC(O)CC1
InChI: InChI=1S/C13H18Br2N2O/c14-9-5-8(13(16)12(15)6-9)7-17-10-1-3-11(18)4-2-10/h5-6,10-11,17-18H,1-4,7,16H2
Instrument: Q Exactive Plus Orbitrap Thermo Scientific
Instrument type: LC-ESI-QFT
Ms type: MS2
Ion mode: POSITIVE
Ionization: ESI
Fragmentation mode: HCD
Collision energy: 35  (nominal)
Resolution: 35000
Column name: Kinetex C18 EVO 2.6 um, 2.1x50 mm, precolumn 2.1x5 mm, Phenomenex
Retention time: 5.782 min
Base peak: 264.1756
Precursor m/z: 376.9859
Precursor type: [M+H]+
m/z	relative intensity	assigned
81.0699	29	C6H9+
98.0601	48	C5H8NO+
104.0496	11	C7H6N+
116.1071	77	C6H14NO+
166.0743	34	C8H10N2O2+
182.968	46	C7H6BrN+
261.8863	999	C7H6Br2N+
376.9863	228	C13H19Br2N2O+
