Mass spectrum: Lorazepam; LC-ESI-QFT; MS2; CE: 35 NCE; R=35000; [M-H]-
Name: Lorazepam
Name: 7-chloro-5-(2-chlorophenyl)-3-hydroxy-1,3-dihydro-1,4-benzodiazepin-2-one
Formula: C15H10Cl2N2O2
Exact mass: 320.01193
SMILES: OC1N=C(c2ccccc2Cl)c2cc(Cl)ccc2NC1=O
InChI: InChI=1S/C15H10Cl2N2O2/c16-8-5-6-12-10(7-8)13(19-15(21)14(20)18-12)9-3-1-2-4-11(9)17/h1-7,15,21H,(H,18,20)
Instrument: Q Exactive Plus Orbitrap Thermo Scientific
Instrument type: LC-ESI-QFT
Ms type: MS2
Ion mode: NEGATIVE
Ionization: ESI
Fragmentation mode: HCD
Collision energy: 35  (nominal)
Resolution: 35000
Column name: Kinetex C18 EVO 2.6 um, 2.1x50 mm, precolumn 2.1x5 mm, Phenomenex
Retention time: 10.387 min
Base peak: 319.0046
Precursor m/z: 319.0047
Precursor type: [M-H]-
m/z	relative intensity	assigned
116.0131	24	C5N4-
151.9907	30	C7H3ClNO-
179.9859	16	C8H3ClNO2-
255.0337	36	C14H8ClN2O-
283.0281	999	C15H8ClN2O2-
319.0048	187	C15H9Cl2N2O2-
