Mass spectrum: Acid Orange 7 (free acid); LC-ESI-QFT; MS2; CE: 35 NCE; R=35000; [M-H]-
Name: Acid Orange 7 (free acid)
Formula: C16H12N2O4S
Exact mass: 328.05178
SMILES: OC1=CC=C2C=CC=CC2=C1N=NC1=CC=C(C=C1)S(O)(=O)=O
InChI: InChI=1S/C16H12N2O4S/c19-15-10-5-11-3-1-2-4-14(11)16(15)18-17-12-6-8-13(9-7-12)23(20,21)22/h1-10,19H,(H,20,21,22)
Instrument: Q Exactive Plus Orbitrap Thermo Scientific
Instrument type: LC-ESI-QFT
Ms type: MS2
Ion mode: NEGATIVE
Ionization: ESI
Fragmentation mode: HCD
Collision energy: 35  (nominal)
Resolution: 35000
Column name: Kinetex C18 EVO 2.6 um, 2.1x50 mm, precolumn 2.1x5 mm, Phenomenex
Retention time: 13.232 min
Base peak: 327.0444
Precursor m/z: 327.0445
Precursor type: [M-H]-
m/z	relative intensity	assigned
93.0331	112	C4H3N3-
95.0124	26	C3HN3O-
106.0286	2	C4H2N4-
107.0365	75	C4H3N4-
155.9886	167	C6H4O3S-
156.9965	7	C6H5O3S-
157.0532	4	C10H7NO-
158.9757	17	C5H3O4S-
169.9916	17	C6H4NO3S-
170.9995	693	C6H5NO3S-
171.9835	7	C6H4O4S-
219.0815	9	C16H11O-
235.0761	2	C16H11O2-
247.0876	15	C16H11N2O-
263.0828	4	C16H11N2O2-
327.0444	999	C16H11N2O4S-
