Mass spectrum: Acid Orange 7 (free acid); LC-ESI-QFT; MS2; CE: 35 NCE; R=35000; [M+H]+
Name: Acid Orange 7 (free acid)
Formula: C16H12N2O4S
Exact mass: 328.05178
SMILES: OC1=CC=C2C=CC=CC2=C1N=NC1=CC=C(C=C1)S(O)(=O)=O
InChI: InChI=1S/C16H12N2O4S/c19-15-10-5-11-3-1-2-4-14(11)16(15)18-17-12-6-8-13(9-7-12)23(20,21)22/h1-10,19H,(H,20,21,22)
Instrument: Q Exactive Plus Orbitrap Thermo Scientific
Instrument type: LC-ESI-QFT
Ms type: MS2
Ion mode: POSITIVE
Ionization: ESI
Fragmentation mode: HCD
Collision energy: 35  (nominal)
Resolution: 35000
Column name: Kinetex C18 EVO 2.6 um, 2.1x50 mm, precolumn 2.1x5 mm, Phenomenex
Retention time: 13.403 min
Base peak: 164.9845
Precursor m/z: 329.0591
Precursor type: [M+H]+
m/z	relative intensity	assigned
75.0231	3	C6H3+
77.0387	4	C6H5+
80.0495	15	C5H6N+
81.0336	2	C5H5O+
91.0542	8	C7H7+
92.0496	3	C6H6N+
95.0491	7	C6H7O+
101.0385	6	C8H5+
105.0448	1	C6H5N2+
108.0444	155	C6H6NO+
109.0522	14	C6H7NO+
115.0542	1	C9H7+
119.0491	9	C8H7O+
127.0413	1	C9H5N+
128.0495	819	C9H6N+
129.0448	23	C8H5N2+
146.0601	129	C9H8NO+
156.0444	890	C10H6NO+
158.0602	7	C10H8NO+
160.0758	13	C10H10NO+
173.0142	480	C6H7NO3S+
174.0551	98	C10H8NO2+
174.9922	4	C3H3N4O3S+
188.0707	40	C11H10NO2+
218.0841	3	C15H10N2+
219.0918	11	C15H11N2+
220.076	1	C15H10NO+
220.0994	3	C15H12N2+
229.0763	2	C16H9N2+
230.0839	3	C16H10N2+
231.0917	10	C16H11N2+
232.0998	4	C16H12N2+
235.0866	1	C15H11N2O+
247.0869	12	C16H11N2O+
248.0945	18	C16H12N2O+
249.1023	4	C16H13N2O+
250.0741	1	C15H10N2O2+
251.0008	1	C11H7O5S+
279.0767	1	C16H11N2O3+
301.0639	1	C15H13N2O3S+
311.0487	79	C16H11N2O3S+
312.0565	328	C16H12N2O3S+
314.0356	6	C15H10N2O4S+
328.0512	3	C16H12N2O4S+
329.0593	999	C16H13N2O4S+
