Mass spectrum: Pyrrol; LC-ESI-QFT; MS2; CE: 35 NCE; R=35000; [M+H]+
Name: Pyrrol
Formula: C4H5N
Exact mass: 67.04220
SMILES: N1C=CC=C1
InChI: InChI=1S/C4H5N/c1-2-4-5-3-1/h1-5H
Instrument: Q Exactive Plus Orbitrap Thermo Scientific
Instrument type: LC-ESI-QFT
Ms type: MS2
Ion mode: POSITIVE
Ionization: ESI
Fragmentation mode: HCD
Collision energy: 35  (nominal)
Resolution: 35000
Column name: Kinetex C18 EVO 2.6 um, 2.1x50 mm, precolumn 2.1x5 mm, Phenomenex
Retention time: 0.915 min
Base peak: 117.0909
Precursor m/z: 68.0495
Precursor type: [M+H]+
m/z	relative intensity	assigned
53.0024	2	C3HO+
68.0496	999	C4H6N+
