Mass spectrum: 2-Mercaptobenzimidazole; LC-ESI-QFT; MS2; CE: 35 NCE; R=35000; [M+H]+
Name: 2-Mercaptobenzimidazole
Name: 1,3-dihydrobenzimidazole-2-thione
Formula: C7H6N2S
Exact mass: 150.02517
SMILES: SC1=NC2=CC=CC=C2N1
InChI: InChI=1S/C7H6N2S/c10-7-8-5-3-1-2-4-6(5)9-7/h1-4H,(H2,8,9,10)
Instrument: Q Exactive Plus Orbitrap Thermo Scientific
Instrument type: LC-ESI-QFT
Ms type: MS2
Ion mode: POSITIVE
Ionization: ESI
Fragmentation mode: HCD
Collision energy: 35  (nominal)
Resolution: 35000
Column name: Kinetex C18 EVO 2.6 um, 2.1x50 mm, precolumn 2.1x5 mm, Phenomenex
Retention time: 3.318 min
Base peak: 151.0323
Precursor m/z: 151.0324
Precursor type: [M+H]+
m/z	relative intensity	assigned
65.0385	1	C5H5+
92.0494	4	C6H6N+
93.0573	49	C6H7N+
118.0525	18	C7H6N2+
119.0604	9	C7H7N2+
150.0244	1	C7H6N2S+
151.0324	999	C7H7N2S+
