Mass spectrum: Pioglitazone; LC-ESI-QFT; MS2; CE: 35 NCE; R=35000; [M+H]+
Name: Pioglitazone
Name: 5-[[4-[2-(5-ethylpyridin-2-yl)ethoxy]phenyl]methyl]-1,3-thiazolidine-2,4-dione
Formula: C19H20N2O3S
Exact mass: 356.11946
SMILES: CCC1=CC=C(CCOC2=CC=C(CC3SC(=O)NC3=O)C=C2)N=C1
InChI: InChI=1S/C19H20N2O3S/c1-2-13-3-6-15(20-12-13)9-10-24-16-7-4-14(5-8-16)11-17-18(22)21-19(23)25-17/h3-8,12,17H,2,9-11H2,1H3,(H,21,22,23)
Instrument: Q Exactive Plus Orbitrap Thermo Scientific
Instrument type: LC-ESI-QFT
Ms type: MS2
Ion mode: POSITIVE
Ionization: ESI
Fragmentation mode: HCD
Collision energy: 35  (nominal)
Resolution: 35000
Column name: Kinetex C18 EVO 2.6 um, 2.1x50 mm, precolumn 2.1x5 mm, Phenomenex
Retention time: 8.023 min
Base peak: 357.1262
Precursor m/z: 357.1267
Precursor type: [M+H]+
m/z	relative intensity	assigned
79.0542	4	C6H7+
91.0543	1	C7H7+
93.0572	2	C6H7N+
95.0491	1	C6H7O+
96.0444	1	C5H6NO+
104.0494	2	C7H6N+
106.0651	14	C7H8N+
107.0729	2	C7H9N+
108.0808	1	C7H10N+
118.0651	3	C8H8N+
119.0729	142	C8H9N+
120.0807	19	C8H10N+
121.0886	11	C8H11N+
124.0757	5	C7H10NO+
134.0964	999	C9H12N+
135.1042	144	C9H13N+
167.0941	3	C9H13NO2+
240.1383	6	C16H18NO+
241.1461	6	C16H19NO+
286.1256	3	C17H20NOS+
357.1267	987	C19H21N2O3S+
