Mass spectrum: Metamitron; LC-ESI-QFT; MS2; CE: 35 NCE; R=35000; [M+H]+
Name: Metamitron
Name: 4-amino-3-methyl-6-phenyl-1,2,4-triazin-5-one
Formula: C10H10N4O
Exact mass: 202.08546
SMILES: CC1=NN=C(C(=O)N1N)c1ccccc1
InChI: InChI=1S/C10H10N4O/c1-7-12-13-9(10(15)14(7)11)8-5-3-2-4-6-8/h2-6H,11H2,1H3
Instrument: Q Exactive Plus Orbitrap Thermo Scientific
Instrument type: LC-ESI-QFT
Ms type: MS2
Ion mode: POSITIVE
Ionization: ESI
Fragmentation mode: HCD
Collision energy: 35  (nominal)
Resolution: 35000
Column name: Kinetex C18 EVO 2.6 um, 2.1x50 mm, precolumn 2.1x5 mm, Phenomenex
Retention time: 5.756 min
Base peak: 203.0924
Precursor m/z: 203.0927
Precursor type: [M+H]+
m/z	relative intensity	assigned
53.0388	1	C4H5+
55.0293	1	C2H3N2+
56.0133	3	C2H2NO+
57.0449	18	C2H5N2+
59.0241	2	CH3N2O+
72.0445	10	C3H6NO+
72.0557	9	C2H6N3+
77.0386	6	C6H5+
79.0543	23	C6H7+
83.024	14	C3H3N2O+
89.0386	10	C7H5+
91.0543	2	C7H7+
92.0495	3	C6H6N+
93.0573	1	C6H7N+
95.0492	9	C6H7O+
100.0506	2	C3H6N3O+
103.0542	1	C8H7+
104.0495	78	C7H6N+
105.0448	2	C6H5N2+
105.0574	6	C7H7N+
106.0652	37	C7H8N+
116.0496	2	C8H6N+
117.0335	2	C8H5O+
117.0447	4	C7H5N2+
117.0573	1	C8H7N+
118.0651	2	C8H8N+
119.0604	5	C7H7N2+
120.0806	2	C8H10N+
130.0651	15	C9H8N+
131.0607	1	C8H7N2+
132.0683	1	C8H8N2+
134.0601	1	C8H8NO+
134.0712	5	C7H8N3+
145.0397	37	C8H5N2O+
158.0603	2	C10H8NO+
158.0713	8	C9H8N3+
159.0792	5	C9H9N3+
173.071	1	C10H9N2O+
174.0788	75	C10H10N2O+
175.0979	204	C9H11N4+
186.0661	5	C10H8N3O+
187.0743	1	C10H9N3O+
203.0927	999	C10H11N4O+
