Mass spectrum: Oxybutynin; LC-ESI-QFT; MS2; CE: 35 NCE; R=35000; [M+H]+
Name: Oxybutynin
Name: 4-(diethylamino)but-2-ynyl 2-cyclohexyl-2-hydroxy-2-phenylacetate
Formula: C22H31NO3
Exact mass: 357.23039
SMILES: CCN(CC)CC#CCOC(=O)C(O)(C1CCCCC1)C1=CC=CC=C1
InChI: InChI=1S/C22H31NO3/c1-3-23(4-2)17-11-12-18-26-21(24)22(25,19-13-7-5-8-14-19)20-15-9-6-10-16-20/h5,7-8,13-14,20,25H,3-4,6,9-10,15-18H2,1-2H3
Instrument: Q Exactive Plus Orbitrap Thermo Scientific
Instrument type: LC-ESI-QFT
Ms type: MS2
Ion mode: POSITIVE
Ionization: ESI
Fragmentation mode: HCD
Collision energy: 35  (nominal)
Resolution: 35000
Column name: Kinetex C18 EVO 2.6 um, 2.1x50 mm, precolumn 2.1x5 mm, Phenomenex
Retention time: 9.182 min
Base peak: 358.2373
Precursor m/z: 358.2377
Precursor type: [M+H]+
m/z	relative intensity	assigned
53.0388	5	C4H5+
54.034	68	C3H4N+
55.0544	16	C4H7+
56.0497	12	C3H6N+
58.0653	60	C3H8N+
65.0387	1	C5H5+
67.0417	1	C4H5N+
67.0543	11	C5H7+
68.0496	48	C4H6N+
69.0336	41	C4H5O+
69.07	7	C5H9+
70.0652	14	C4H8N+
71.0492	1	C4H7O+
72.0808	182	C4H10N+
73.0887	5	C4H11N+
74.0965	2	C4H12N+
77.0386	2	C6H5+
79.0543	46	C6H7+
80.0495	11	C5H6N+
81.0574	12	C5H7N+
81.0699	17	C6H9+
82.0652	62	C5H8N+
83.0729	1	C5H9N+
83.0856	13	C6H11+
84.0808	12	C5H10N+
86.0964	10	C5H12N+
91.0542	29	C7H7+
93.0699	2	C7H9+
94.0651	45	C6H8N+
95.0491	5	C6H7O+
95.073	15	C6H9N+
95.0855	2	C7H11+
96.0808	56	C6H10N+
97.0284	98	C5H5O2+
98.0965	1	C6H12N+
99.0804	1	C6H11O+
105.0335	126	C7H5O+
107.0492	52	C7H7O+
107.0856	4	C8H11+
108.0808	16	C7H10N+
109.0648	1	C7H9O+
109.0886	19	C7H11N+
113.0232	3	C5H5O3+
115.0544	1	C9H7+
117.0699	4	C9H9+
122.0923	1	C3H12N3O2+
122.0965	20	C8H12N+
124.1121	132	C8H14N+
125.12	5	C8H15N+
128.062	2	C10H8+
129.0699	29	C10H9+
141.0697	3	C11H9+
142.1227	203	C8H16NO+
143.0855	6	C11H11+
157.0647	4	C11H9O+
166.0778	1	C13H10+
171.1168	28	C13H15+
173.0598	4	C11H9O2+
181.101	2	C14H13+
183.1042	1	C13H13N+
185.0596	4	C12H9O2+
187.0752	4	C12H11O2+
189.1274	36	C13H17O+
199.1119	14	C14H15O+
203.0704	2	C12H11O3+
229.1099	2	C14H15NO2+
258.149	8	C16H20NO2+
267.1381	3	C18H19O2+
340.2275	34	C22H30NO2+
358.2378	999	C22H32NO3+
