Mass spectrum: Chlorotoluron; LC-ESI-QFT; MS2; CE: 35 NCE; R=35000; [M+H]+
Name: Chlorotoluron
Name: 3-(3-chloro-4-methylphenyl)-1,1-dimethylurea
Formula: C10H13ClN2O
Exact mass: 212.07164
SMILES: CN(C)C(=O)Nc1ccc(C)c(Cl)c1
InChI: InChI=1S/C10H13ClN2O/c1-7-4-5-8(6-9(7)11)12-10(14)13(2)3/h4-6H,1-3H3,(H,12,14)
Instrument: Q Exactive Plus Orbitrap Thermo Scientific
Instrument type: LC-ESI-QFT
Ms type: MS2
Ion mode: POSITIVE
Ionization: ESI
Fragmentation mode: HCD
Collision energy: 35  (nominal)
Resolution: 35000
Column name: Kinetex C18 EVO 2.6 um, 2.1x50 mm, precolumn 2.1x5 mm, Phenomenex
Retention time: 9.785 min
Base peak: 213.0786
Precursor m/z: 213.0789
Precursor type: [M+H]+
m/z	relative intensity	assigned
56.0133	1	C2H2NO+
72.0444	999	C3H6NO+
140.0261	27	C7H7ClN+
149.0234	1	C5H8ClNO2+
168.0211	19	C8H7ClNO+
213.0789	664	C10H14ClN2O+
