Mass spectrum: Phthalamic acid; LC-ESI-QFT; MS2; CE: 35 NCE; R=35000; [M-H]-
Name: Phthalamic acid
Name: 2-carbamoylbenzoic acid
Formula: C8H7NO3
Exact mass: 165.04259
SMILES: NC(=O)C1=CC=CC=C1C(O)=O
InChI: InChI=1S/C8H7NO3/c9-7(10)5-3-1-2-4-6(5)8(11)12/h1-4H,(H2,9,10)(H,11,12)
Instrument: Q Exactive Plus Orbitrap Thermo Scientific
Instrument type: LC-ESI-QFT
Ms type: MS2
Ion mode: NEGATIVE
Ionization: ESI
Fragmentation mode: HCD
Collision energy: 35  (nominal)
Resolution: 35000
Column name: Kinetex C18 EVO 2.6 um, 2.1x50 mm, precolumn 2.1x5 mm, Phenomenex
Retention time: 0.980 min
Base peak: 164.0354
Precursor m/z: 164.0353
Precursor type: [M-H]-
m/z	relative intensity	assigned
164.0353	999	C8H6NO3-
