Mass spectrum: 2-Nitrobenzamide; LC-ESI-QFT; MS2; CE: 35 NCE; R=35000; [M+H]+
Name: 2-Nitrobenzamide
Name: 2-Nitrobenzamid
Formula: C7H6N2O3
Exact mass: 166.03784
SMILES: NC(=O)C1=C(C=CC=C1)[N+]([O-])=O
InChI: InChI=1S/C7H6N2O3/c8-7(10)5-3-1-2-4-6(5)9(11)12/h1-4H,(H2,8,10)
Instrument: Q Exactive Plus Orbitrap Thermo Scientific
Instrument type: LC-ESI-QFT
Ms type: MS2
Ion mode: POSITIVE
Ionization: ESI
Fragmentation mode: HCD
Collision energy: 35  (nominal)
Resolution: 35000
Column name: Kinetex C18 EVO 2.6 um, 2.1x50 mm, precolumn 2.1x5 mm, Phenomenex
Retention time: 0.946 min
Base peak: 117.0909
Precursor m/z: 167.0451
Precursor type: [M+H]+
m/z	relative intensity	assigned
50.0153	23	C4H2+
51.0232	83	C4H3+
52.0184	1	C3H2N+
76.031	1	C6H4+
78.0338	129	C5H4N+
81.0335	1	C5H5O+
92.0257	5	C6H4O+
96.0444	2	C5H6NO+
120.0205	1	C7H4O2+
150.0186	999	C7H4NO3+
