Mass spectrum: Propylparaben; LC-ESI-QFT; MS2; CE: 35 NCE; R=35000; [M-H]-
Name: Propylparaben
Name: Propyl 4-hydroxybenzoate
Formula: C10H12O3
Exact mass: 180.07864
SMILES: CCCOC(=O)c1ccc(O)cc1
InChI: InChI=1S/C10H12O3/c1-2-7-13-10(12)8-3-5-9(11)6-4-8/h3-6,11H,2,7H2,1H3
Instrument: Q Exactive Plus Orbitrap Thermo Scientific
Instrument type: LC-ESI-QFT
Ms type: MS2
Ion mode: NEGATIVE
Ionization: ESI
Fragmentation mode: HCD
Collision energy: 35  (nominal)
Resolution: 35000
Column name: Kinetex C18 EVO 2.6 um, 2.1x50 mm, precolumn 2.1x5 mm, Phenomenex
Retention time: 10.136 min
Base peak: 112.9847
Precursor m/z: 179.0714
Precursor type: [M-H]-
m/z	relative intensity	assigned
136.0166	240	C7H4O3-
137.0244	226	C7H5O3-
179.0714	999	C10H11O3-
