Mass spectrum: 2-Benzothiazolesulfonic acid; LC-ESI-QFT; MS2; CE: 35 NCE; R=35000; [M+H]+
Name: 2-Benzothiazolesulfonic acid
Name: Benzothiazole-2-sulfonic acid
Name: 1,3-benzothiazole-2-sulfonic acid
Formula: C7H5NO3S2
Exact mass: 214.97108
SMILES: OS(=O)(=O)C1=NC2=CC=CC=C2S1
InChI: InChI=1S/C7H5NO3S2/c9-13(10,11)7-8-5-3-1-2-4-6(5)12-7/h1-4H,(H,9,10,11)
Instrument: Q Exactive Plus Orbitrap Thermo Scientific
Instrument type: LC-ESI-QFT
Ms type: MS2
Ion mode: POSITIVE
Ionization: ESI
Fragmentation mode: HCD
Collision energy: 35  (nominal)
Resolution: 35000
Column name: Kinetex C18 EVO 2.6 um, 2.1x50 mm, precolumn 2.1x5 mm, Phenomenex
Retention time: 7.085 min
Base peak: 134.0711
Precursor m/z: 215.9784
Precursor type: [M+H]+
m/z	relative intensity	assigned
78.0339	12	C5H4N+
84.0029	1	C4H4S+
90.0338	11	C6H4N+
92.0495	41	C6H6N+
94.9951	5	C5H3S+
96.0444	7	C5H6NO+
98.006	1	C4H4NS+
106.0288	73	C6H4NO+
106.9949	2	C6H3S+
108.0031	1	C6H4S+
108.9979	1	C5H3NS+
109.0107	8	C6H5S+
110.006	6	C5H4NS+
114.9671	13	C4H3S2+
122.0059	8	C6H4NS+
124.0216	41	C6H6NS+
124.0392	2	C6H6NO2+
134.0059	315	C7H4NS+
135.0135	2	C7H5NS+
136.0214	3	C7H6NS+
138.0008	9	C6H4NOS+
141.978	37	C5H4NS2+
150.0009	5	C7H4NOS+
151.0085	1	C7H5NOS+
152.0165	241	C7H6NOS+
153.978	68	C6H4NS2+
162.012	24	C7H4N3S+
169.9729	170	C6H4NOS2+
173.9734	2	C4H2N2O4S+
215.9785	999	C7H6NO3S2+
