Mass spectrum: Propyphenazone; LC-ESI-QFT; MS2; CE: 35 NCE; R=35000; [M+H]+
Name: Propyphenazone
Name: 1,5-dimethyl-2-phenyl-4-propan-2-ylpyrazol-3-one
Formula: C14H18N2O
Exact mass: 230.14191
SMILES: CC(C)C1=C(C)N(C)N(C1=O)c1ccccc1
InChI: InChI=1S/C14H18N2O/c1-10(2)13-11(3)15(4)16(14(13)17)12-8-6-5-7-9-12/h5-10H,1-4H3
Instrument: Q Exactive Plus Orbitrap Thermo Scientific
Instrument type: LC-ESI-QFT
Ms type: MS2
Ion mode: POSITIVE
Ionization: ESI
Fragmentation mode: HCD
Collision energy: 35  (nominal)
Resolution: 35000
Column name: Kinetex C18 EVO 2.6 um, 2.1x50 mm, precolumn 2.1x5 mm, Phenomenex
Retention time: 9.727 min
Base peak: 231.1489
Precursor m/z: 231.1492
Precursor type: [M+H]+
m/z	relative intensity	assigned
56.0497	56	C3H6N+
58.0653	4	C3H8N+
70.0652	1	C4H8N+
79.0542	1	C6H7+
81.0699	2	C6H9+
82.0651	2	C5H8N+
92.0495	2	C6H6N+
94.0651	1	C6H8N+
95.0729	2	C6H9N+
96.0808	3	C6H10N+
97.0886	2	C6H11N+
98.06	1	C5H8NO+
100.112	1	C6H14N+
104.0494	2	C7H6N+
110.0964	6	C7H12N+
112.0757	2	C6H10NO+
112.1121	15	C7H14N+
118.0651	6	C8H8N+
120.0445	2	C7H6NO+
120.0808	9	C8H10N+
124.0756	5	C7H10NO+
130.0652	2	C9H8N+
131.073	5	C9H9N+
132.0808	2	C9H10N+
133.076	1	C8H9N2+
134.0964	1	C9H12N+
138.0912	3	C8H12NO+
144.0808	7	C10H10N+
146.084	4	C9H10N2+
146.0964	11	C10H12N+
147.0917	1	C9H11N2+
148.0758	1	C9H10NO+
148.112	1	C10H14N+
160.0997	3	C10H12N2+
161.1074	4	C10H13N2+
172.0757	1	C11H10NO+
172.1121	2	C12H14N+
188.0943	1	C11H12N2O+
189.1023	105	C11H13N2O+
201.1023	28	C12H13N2O+
203.1542	2	C13H19N2+
215.1179	1	C13H15N2O+
216.1257	7	C13H16N2O+
231.1493	999	C14H19N2O+
