Mass spectrum: Domperidone; LC-ESI-QFT; MS2; CE: 35 NCE; R=35000; [M-H]-
Name: Domperidone
Name: 6-chloro-3-[1-[3-(2-oxo-3H-benzimidazol-1-yl)propyl]piperidin-4-yl]-1H-benzimidazol-2-one
Formula: C22H24ClN5O2
Exact mass: 425.16185
SMILES: ClC1=CC2=C(C=C1)N(C1CCN(CCCN3C(=O)NC4=C3C=CC=C4)CC1)C(=O)N2
InChI: InChI=1S/C22H24ClN5O2/c23-15-6-7-20-18(14-15)25-22(30)28(20)16-8-12-26(13-9-16)10-3-11-27-19-5-2-1-4-17(19)24-21(27)29/h1-2,4-7,14,16H,3,8-13H2,(H,24,29)(H,25,30)
Instrument: Q Exactive Plus Orbitrap Thermo Scientific
Instrument type: LC-ESI-QFT
Ms type: MS2
Ion mode: NEGATIVE
Ionization: ESI
Fragmentation mode: HCD
Collision energy: 35  (nominal)
Resolution: 35000
Column name: Kinetex C18 EVO 2.6 um, 2.1x50 mm, precolumn 2.1x5 mm, Phenomenex
Retention time: 7.750 min
Base peak: 112.9847
Precursor m/z: 424.1546
Precursor type: [M-H]-
m/z	relative intensity	assigned
131.025	18	C7H3N2O-
133.0405	79	C7H5N2O-
165.994	72	C7H3ClN2O-
167.0017	614	C7H4ClN2O-
190.0987	17	C10H12N3O-
250.0752	31	C12H13ClN3O-
424.1549	999	C22H23ClN5O2-
