Mass spectrum: Benz[c]acridine; LC-ESI-QFT; MS2; CE: 35 NCE; R=35000; [M+H]+
Name: Benz[c]acridine
Name: Benzo[c]acridine
Formula: C17H11N
Exact mass: 229.08915
SMILES: C1=CC=C2C(C=CC3=CC4=CC=CC=C4N=C23)=C1
InChI: InChI=1S/C17H11N/c1-3-7-15-12(5-1)9-10-14-11-13-6-2-4-8-16(13)18-17(14)15/h1-11H
Instrument: Q Exactive Plus Orbitrap Thermo Scientific
Instrument type: LC-ESI-QFT
Ms type: MS2
Ion mode: POSITIVE
Ionization: ESI
Fragmentation mode: HCD
Collision energy: 35  (nominal)
Resolution: 35000
Column name: Kinetex C18 EVO 2.6 um, 2.1x50 mm, precolumn 2.1x5 mm, Phenomenex
Retention time: 12.416 min
Base peak: 230.096
Precursor m/z: 230.0964
Precursor type: [M+H]+
m/z	relative intensity	assigned
229.0881	3	C17H11N+
230.0963	999	C17H12N+
