Mass spectrum: Chloramphenicol; LC-ESI-QFT; MS2; CE: 35 NCE; R=35000; [M+H]+
Name: Chloramphenicol
Name: 2,2-dichloro-N-[(1R,2R)-1,3-dihydroxy-1-(4-nitrophenyl)propan-2-yl]acetamide
Formula: C11H12Cl2N2O5
Exact mass: 322.01233
SMILES: OC[C@@H](NC(=O)C(Cl)Cl)[C@H](O)C1=CC=C(C=C1)[N+]([O-])=O
InChI: InChI=1S/C11H12Cl2N2O5/c12-10(13)11(18)14-8(5-16)9(17)6-1-3-7(4-2-6)15(19)20/h1-4,8-10,16-17H,5H2,(H,14,18)/t8-,9-/m1/s1
Instrument: Q Exactive Plus Orbitrap Thermo Scientific
Instrument type: LC-ESI-QFT
Ms type: MS2
Ion mode: POSITIVE
Ionization: ESI
Fragmentation mode: HCD
Collision energy: 35  (nominal)
Resolution: 35000
Column name: Kinetex C18 EVO 2.6 um, 2.1x50 mm, precolumn 2.1x5 mm, Phenomenex
Retention time: 6.853 min
Base peak: 278.2114
Precursor m/z: 323.0196
Precursor type: [M+H]+
m/z	relative intensity	assigned
82.9451	123	CHCl2+
118.0652	15	C8H8N+
119.0731	73	C8H9N+
127.9669	11	C2H4Cl2NO+
132.0571	41	C9H8O+
145.0523	12	C9H7NO+
146.0604	8	C6H11ClN2+
148.0631	11	C8H8N2O+
149.0154	9	C9H6Cl+
150.0236	9	C9H7Cl+
164.0261	13	C9H7ClN+
165.0661	688	C8H9N2O2+
170.0603	18	C8H11ClN2+
178.0502	9	C6H11ClN2O2+
206.0368	57	C11H9ClNO+
229.0059	63	C10H9Cl2NO+
241.006	105	C11H9Cl2NO+
257.996	179	C10H8Cl2N2O2+
269.9961	11	C11H8Cl2N2O2+
274.9988	999	C10H9Cl2N2O3+
286.9988	19	C11H9Cl2N2O3+
305.0095	396	C11H11Cl2N2O4+
