Mass spectrum: 7-Hydroxymethotrexat; LC-ESI-QFT; MS2; CE: 35 NCE; R=35000; [M-H]-
Name: 7-Hydroxymethotrexat
Name: 7-Hydroxy Methotrexate
Name: 2-[[4-[(2,4-diamino-7-oxo-8H-pteridin-6-yl)methyl-methylamino]benzoyl]amino]pentanedioic acid
Formula: C20H22N8O6
Exact mass: 470.16623
SMILES: CN(CC1=Nc2c(N)nc(N)nc2NC1=O)c1ccc(cc1)C(=O)NC(CCC(O)=O)C(O)=O
InChI: InChI=1S/C20H22N8O6/c1-28(8-12-18(32)26-16-14(23-12)15(21)25-20(22)27-16)10-4-2-9(3-5-10)17(31)24-11(19(33)34)6-7-13(29)30/h2-5,11H,6-8H2,1H3,(H,24,31)(H,29,30)(H,33,34)(H5,21,22,25,26,27,32)
Instrument: Q Exactive Plus Orbitrap Thermo Scientific
Instrument type: LC-ESI-QFT
Ms type: MS2
Ion mode: NEGATIVE
Ionization: ESI
Fragmentation mode: HCD
Collision energy: 35  (nominal)
Resolution: 35000
Column name: Kinetex C18 EVO 2.6 um, 2.1x50 mm, precolumn 2.1x5 mm, Phenomenex
Retention time: 7.348 min
Base peak: 469.1589
Precursor m/z: 469.159
Precursor type: [M-H]-
m/z	relative intensity	assigned
120.045	30	C7H6NO-
146.0472	78	C6H4N5-
147.0314	93	C6H3N4O-
149.0476	19	C8H7NO2-
149.0724	26	C8H9N2O-
150.0559	110	C8H8NO2-
161.0722	68	C9H9N2O-
162.0423	39	C6H4N5O-
189.0532	230	C7H5N6O-
190.0609	233	C7H6N6O-
191.0683	16	C7H7N6O-
191.119	29	C11H15N2O-
234.1017	55	C12H14N2O3-
235.1093	87	C12H15N2O3-
237.0839	17	C6H13N4O6-
278.0926	18	C14H10N6O-
279.0988	112	C13H15N2O5-
340.1165	325	C15H14N7O3-
425.1694	91	C19H21N8O4-
451.1483	29	C20H19N8O5-
456.1617	20	C18H20N10O5-
469.159	999	C20H21N8O6-
