Mass spectrum: Capecitabine; LC-ESI-QFT; MS2; CE: 35 NCE; R=35000; [M+H]+
Name: Capecitabine
Name: pentyl N-[1-[(2R,3R,4S,5R)-3,4-dihydroxy-5-methyloxolan-2-yl]-5-fluoro-2-oxopyrimidin-4-yl]carbamate
Formula: C15H22FN3O6
Exact mass: 359.14926
SMILES: CCCCCOC(=O)NC1=NC(=O)N(C=C1F)[C@@H]1O[C@H](C)[C@@H](O)[C@H]1O
InChI: InChI=1S/C15H22FN3O6/c1-3-4-5-6-24-15(23)18-12-9(16)7-19(14(22)17-12)13-11(21)10(20)8(2)25-13/h7-8,10-11,13,20-21H,3-6H2,1-2H3,(H,17,18,22,23)/t8-,10-,11-,13-/m1/s1
Instrument: Q Exactive Plus Orbitrap Thermo Scientific
Instrument type: LC-ESI-QFT
Ms type: MS2
Ion mode: POSITIVE
Ionization: ESI
Fragmentation mode: HCD
Collision energy: 35  (nominal)
Resolution: 35000
Column name: Kinetex C18 EVO 2.6 um, 2.1x50 mm, precolumn 2.1x5 mm, Phenomenex
Retention time: 9.588 min
Base peak: 360.1563
Precursor m/z: 360.1565
Precursor type: [M+H]+
m/z	relative intensity	assigned
71.0856	55	C5H11+
113.0146	7	C4H2FN2O+
130.0412	662	C4H5FN3O+
156.0201	5	C5H3FN3O2+
174.0311	748	C10H6O3+
244.1094	999	C15H16O3+
360.157	6	C15H23FN3O6+
372.0136	3	C15H5FN4O7+
