Mass spectrum: fluconazole; LC-ESI-QFT; MS2; CE: 35 NCE; R=35000; [M+H]+
Name: fluconazole
Name: 2-(2,4-difluorophenyl)-1,3-bis(1,2,4-triazol-1-yl)propan-2-ol
Formula: C13H12F2N6O
Exact mass: 306.10407
SMILES: OC(Cn1cncn1)(Cn1cncn1)c1ccc(F)cc1F
InChI: InChI=1S/C13H12F2N6O/c14-10-1-2-11(12(15)3-10)13(22,4-20-8-16-6-18-20)5-21-9-17-7-19-21/h1-3,6-9,22H,4-5H2
Instrument: Q Exactive Plus Orbitrap Thermo Scientific
Instrument type: LC-ESI-QFT
Ms type: MS2
Ion mode: POSITIVE
Ionization: ESI
Fragmentation mode: HCD
Collision energy: 35  (nominal)
Resolution: 35000
Column name: Kinetex C18 EVO 2.6 um, 2.1x50 mm, precolumn 2.1x5 mm, Phenomenex
Retention time: 7.188 min
Base peak: 307.111
Precursor m/z: 307.1113
Precursor type: [M+H]+
m/z	relative intensity	assigned
70.04	340	C2H4N3+
82.04	6	C3H4N3+
83.0477	7	C3H5N3+
84.0556	2	C3H6N3+
91.0541	2	C2H6FN3+
100.0505	1	C3H6N3O+
101.0387	1	C8H5+
119.0292	1	C8H4F+
119.0491	1	C8H7O+
121.0448	105	C8H6F+
127.0354	204	C7H5F2+
129.0446	9	C3H4FN5+
139.0353	155	C8H5F2+
141.0146	23	C7H3F2O+
141.051	126	C8H7F2+
145.0448	1	C10H6F+
146.0397	1	C4H4F2N4+
147.035	1	C3H3F2N5+
149.0396	3	C4H5F2N3O+
151.0354	133	C9H5F2+
163.0556	1	C10H8FO+
164.0432	2	C10H6F2+
165.0512	1	C10H7F2+
166.0463	22	C9H6F2N+
167.0503	3	C9H8FO2+
168.0617	2	C9H8F2N+
169.046	495	C9H7F2O+
170.0713	4	C10H8N3+
172.0556	4	C6H6F2N4+
173.0511	39	C10H6FN2+
176.0304	1	C10H4F2N+
177.0457	7	C4H5F2N5O+
178.0462	3	C10H6F2N+
187.0566	3	C9H9F2O2+
193.0572	19	C10H7F2N2+
200.0619	74	C11H7FN3+
208.0677	3	C10H8F2N3+
219.0606	1	C11H7F2N3+
220.0681	820	C11H8F2N3+
238.0786	677	C11H10F2N3O+
289.1008	63	C13H11F2N6+
307.1114	999	C13H13F2N6O+
