Mass spectrum: Bis(2-ethylhexyl)phosphate; LC-ESI-QFT; MS2; CE: 35 NCE; R=35000; [M-H]-
Name: Bis(2-ethylhexyl)phosphate
Name: Bis(2-ethylhexyl) hydrogen phosphate
Formula: C16H35O4P
Exact mass: 322.22730
SMILES: CCCCC(CC)COP(O)(=O)OCC(CC)CCCC
InChI: InChI=1S/C16H35O4P/c1-5-9-11-15(7-3)13-19-21(17,18)20-14-16(8-4)12-10-6-2/h15-16H,5-14H2,1-4H3,(H,17,18)
Instrument: Q Exactive Plus Orbitrap Thermo Scientific
Instrument type: LC-ESI-QFT
Ms type: MS2
Ion mode: NEGATIVE
Ionization: ESI
Fragmentation mode: HCD
Collision energy: 35  (nominal)
Resolution: 35000
Column name: Kinetex C18 EVO 2.6 um, 2.1x50 mm, precolumn 2.1x5 mm, Phenomenex
Retention time: 19.386 min
Base peak: 263.1784
Precursor m/z: 321.22
Precursor type: [M-H]-
m/z	relative intensity	assigned
321.2205	999	C16H34O4P-
