Mass spectrum: Difenoconazole; LC-ESI-QFT; MS2; CE: 35 NCE; R=35000; [M+H]+
Name: Difenoconazole
Name: 1-[[2-[2-chloro-4-(4-chlorophenoxy)phenyl]-4-methyl-1,3-dioxolan-2-yl]methyl]-1,2,4-triazole
Formula: C19H17Cl2N3O3
Exact mass: 405.06470
SMILES: CC1COC(CN2C=NC=N2)(O1)C1=C(Cl)C=C(OC2=CC=C(Cl)C=C2)C=C1
InChI: InChI=1S/C19H17Cl2N3O3/c1-13-9-25-19(27-13,10-24-12-22-11-23-24)17-7-6-16(8-18(17)21)26-15-4-2-14(20)3-5-15/h2-8,11-13H,9-10H2,1H3
Instrument: Q Exactive Plus Orbitrap Thermo Scientific
Instrument type: LC-ESI-QFT
Ms type: MS2
Ion mode: POSITIVE
Ionization: ESI
Fragmentation mode: HCD
Collision energy: 35  (nominal)
Resolution: 35000
Column name: Kinetex C18 EVO 2.6 um, 2.1x50 mm, precolumn 2.1x5 mm, Phenomenex
Retention time: 12.983 min
Base peak: 406.0718
Precursor m/z: 406.072
Precursor type: [M+H]+
m/z	relative intensity	assigned
70.0401	3	C2H4N3+
86.9995	1	C4H4Cl+
126.9946	1	C6H4ClO+
129.0101	2	C6H6ClO+
129.0699	8	C10H9+
139.0057	5	C6H4ClN2+
139.0309	3	C8H8Cl+
141.01	7	C7H6ClO+
152.0621	22	C12H8+
153.0699	9	C12H9+
163.031	1	C10H8Cl+
164.0386	12	C10H9Cl+
181.0647	11	C13H9O+
187.0309	22	C12H8Cl+
188.0387	68	C12H9Cl+
215.0255	7	C13H8ClO+
216.0333	5	C13H9ClO+
223.0076	39	C12H9Cl2+
251.0025	999	C13H9Cl2O+
256.0649	1	C16H13ClO+
261.9946	4	C14H8Cl2O+
263.0036	3	C14H9Cl2O+
264.9818	40	C13H7Cl2O2+
273.0312	1	C15H10ClO3+
291.0338	23	C16H13Cl2O+
323.0237	14	C16H13Cl2O3+
337.0393	88	C17H15Cl2O3+
406.0721	719	C19H18Cl2N3O3+
