Mass spectrum: Spiroxamine; LC-ESI-QFT; MS2; CE: 35 NCE; R=35000; [M+H]+
Name: Spiroxamine
Name: N-[(8-tert-butyl-1,4-dioxaspiro[4.5]decan-3-yl)methyl]-N-ethylpropan-1-amine
Formula: C18H35NO2
Exact mass: 297.26678
SMILES: CCCN(CC)CC1COC2(CCC(CC2)C(C)(C)C)O1
InChI: InChI=1S/C18H35NO2/c1-6-12-19(7-2)13-16-14-20-18(21-16)10-8-15(9-11-18)17(3,4)5/h15-16H,6-14H2,1-5H3
Instrument: Q Exactive Plus Orbitrap Thermo Scientific
Instrument type: LC-ESI-QFT
Ms type: MS2
Ion mode: POSITIVE
Ionization: ESI
Fragmentation mode: HCD
Collision energy: 35  (nominal)
Resolution: 35000
Column name: Kinetex C18 EVO 2.6 um, 2.1x50 mm, precolumn 2.1x5 mm, Phenomenex
Retention time: 9.577 min
Base peak: 298.2737
Precursor m/z: 298.2741
Precursor type: [M+H]+
m/z	relative intensity	assigned
57.0701	1	C4H9+
58.0653	19	C3H8N+
72.0808	47	C4H10N+
83.0855	2	C6H11+
84.0808	5	C5H10N+
86.0965	3	C5H12N+
100.1121	386	C6H14N+
102.0913	12	C5H12NO+
116.1071	1	C6H14NO+
126.1278	6	C8H16N+
144.1383	999	C8H18NO+
160.1334	4	C8H18NO2+
298.2742	703	C18H36NO2+
