Mass spectrum: Ketoprofen; LC-ESI-QFT; MS2; CE: 35 NCE; R=35000; [M-H]-
Name: Ketoprofen
Name: 2-(3-benzoylphenyl)propanoic acid
Formula: C16H14O3
Exact mass: 254.09429
SMILES: CC(C(O)=O)c1cccc(c1)C(=O)c1ccccc1
InChI: InChI=1S/C16H14O3/c1-11(16(18)19)13-8-5-9-14(10-13)15(17)12-6-3-2-4-7-12/h2-11H,1H3,(H,18,19)
Instrument: Q Exactive Plus Orbitrap Thermo Scientific
Instrument type: LC-ESI-QFT
Ms type: MS2
Ion mode: NEGATIVE
Ionization: ESI
Fragmentation mode: HCD
Collision energy: 35  (nominal)
Resolution: 35000
Column name: Kinetex C18 EVO 2.6 um, 2.1x50 mm, precolumn 2.1x5 mm, Phenomenex
Retention time: 10.829 min
Base peak: 423.2387
Precursor m/z: 253.087
Precursor type: [M-H]-
m/z	relative intensity	assigned
161.0126	7	C8H3NO3-
185.0612	15	C12H9O2-
197.0608	999	C13H9O2-
209.0974	38	C15H13O-
223.0769	11	C15H11O2-
241.0873	19	C15H13O3-
253.0872	35	C16H13O3-
