Mass spectrum: Fenuron; LC-ESI-QFT; MS2; CE: 35 NCE; R=35000; [M+H]+
Name: Fenuron
Name: 1,1-dimethyl-3-phenylurea
Formula: C9H12N2O
Exact mass: 164.09496
SMILES: CN(C)C(=O)Nc1ccccc1
InChI: InChI=1S/C9H12N2O/c1-11(2)9(12)10-8-6-4-3-5-7-8/h3-7H,1-2H3,(H,10,12)
Instrument: Q Exactive Plus Orbitrap Thermo Scientific
Instrument type: LC-ESI-QFT
Ms type: MS2
Ion mode: POSITIVE
Ionization: ESI
Fragmentation mode: HCD
Collision energy: 35  (nominal)
Resolution: 35000
Column name: Kinetex C18 EVO 2.6 um, 2.1x50 mm, precolumn 2.1x5 mm, Phenomenex
Retention time: 5.491 min
Base peak: 165.102
Precursor m/z: 165.1022
Precursor type: [M+H]+
m/z	relative intensity	assigned
56.0132	1	C2H2NO+
72.0444	999	C3H6NO+
77.0386	1	C6H5+
92.0495	13	C6H6N+
95.0493	2	C6H7O+
120.0444	34	C7H6NO+
165.1023	459	C9H13N2O+
