Mass spectrum: Bisoprolol; LC-ESI-QFT; MS2; CE: 35 NCE; R=35000; [M+H]+
Name: Bisoprolol
Name: 1-(propan-2-ylamino)-3-[4-(2-propan-2-yloxyethoxymethyl)phenoxy]propan-2-ol
Formula: C18H31NO4
Exact mass: 325.22531
SMILES: CC(C)NCC(O)COc1ccc(COCCOC(C)C)cc1
InChI: InChI=1S/C18H31NO4/c1-14(2)19-11-17(20)13-23-18-7-5-16(6-8-18)12-21-9-10-22-15(3)4/h5-8,14-15,17,19-20H,9-13H2,1-4H3
Instrument: Q Exactive Plus Orbitrap Thermo Scientific
Instrument type: LC-ESI-QFT
Ms type: MS2
Ion mode: POSITIVE
Ionization: ESI
Fragmentation mode: HCD
Collision energy: 35  (nominal)
Resolution: 35000
Column name: Kinetex C18 EVO 2.6 um, 2.1x50 mm, precolumn 2.1x5 mm, Phenomenex
Retention time: 7.320 min
Base peak: 260.1642
Precursor m/z: 326.2326
Precursor type: [M+H]+
m/z	relative intensity	assigned
56.0497	85	C3H6N+
58.0653	13	C3H8N+
60.0809	2	C3H10N+
69.07	1	C5H9+
72.0808	98	C4H10N+
74.0601	275	C3H8NO+
75.0441	6	C3H7O2+
79.0542	2	C6H7+
84.0808	3	C5H10N+
89.0386	7	C7H5+
91.0542	22	C7H7+
98.0964	71	C6H12N+
100.1122	2	C6H14N+
105.0699	9	C8H9+
107.0491	38	C7H7O+
116.107	596	C6H14NO+
117.0699	1	C9H9+
119.0491	15	C8H7O+
119.0856	2	C9H11+
121.0648	10	C8H9O+
129.0699	1	C10H9+
133.0648	31	C9H9O+
134.06	2	C8H8NO+
137.0597	6	C8H9O2+
145.0648	17	C10H9O+
147.0804	27	C10H11O+
162.0913	16	C10H12NO+
163.0753	6	C10H11O2+
180.1016	1	C10H14NO2+
204.1384	15	C13H18NO+
222.1488	26	C13H20NO2+
326.2327	999	C18H32NO4+
