Mass spectrum: Phenazine; LC-ESI-QFT; MS2; CE: 35 NCE; R=35000; [M+H]+
Name: Phenazine
Formula: C12H8N2
Exact mass: 180.06875
SMILES: C1=CC2=NC3=CC=CC=C3N=C2C=C1
InChI: InChI=1S/C12H8N2/c1-2-6-10-9(5-1)13-11-7-3-4-8-12(11)14-10/h1-8H
Instrument: Q Exactive Plus Orbitrap Thermo Scientific
Instrument type: LC-ESI-QFT
Ms type: MS2
Ion mode: POSITIVE
Ionization: ESI
Fragmentation mode: HCD
Collision energy: 35  (nominal)
Resolution: 35000
Column name: Kinetex C18 EVO 2.6 um, 2.1x50 mm, precolumn 2.1x5 mm, Phenomenex
Retention time: 10.128 min
Base peak: 181.0757
Precursor m/z: 181.076
Precursor type: [M+H]+
m/z	relative intensity	assigned
111.0231	1	C9H3+
121.0076	1	C10H+
154.0645	1	C11H8N+
180.0678	1	C12H8N2+
181.0758	999	C12H9N2+
