Mass spectrum: 4`-Bromacetanilide; LC-ESI-QFT; MS2; CE: 35 NCE; R=35000; [M-H]-
Name: 4`-Bromacetanilide
Name: 4`-Bromoacetanilid
Name: N-(4-bromophenyl)acetamide
Formula: C8H8BrNO
Exact mass: 212.97893
SMILES: CC(=O)NC1=CC=C(Br)C=C1
InChI: InChI=1S/C8H8BrNO/c1-6(11)10-8-4-2-7(9)3-5-8/h2-5H,1H3,(H,10,11)
Instrument: Q Exactive Plus Orbitrap Thermo Scientific
Instrument type: LC-ESI-QFT
Ms type: MS2
Ion mode: NEGATIVE
Ionization: ESI
Fragmentation mode: HCD
Collision energy: 35  (nominal)
Resolution: 35000
Column name: Kinetex C18 EVO 2.6 um, 2.1x50 mm, precolumn 2.1x5 mm, Phenomenex
Retention time: 8.720 min
Base peak: 112.9848
Precursor m/z: 211.9716
Precursor type: [M-H]-
m/z	relative intensity	assigned
169.9611	356	C6H5BrN-
211.9717	999	C8H7BrNO-
