Mass spectrum: Diuron; LC-ESI-QFT; MS2; CE: 35 NCE; R=35000; [M-H]-
Name: Diuron
Name: 3-(3,4-dichlorophenyl)-1,1-dimethylurea
Formula: C9H10Cl2N2O
Exact mass: 232.01702
SMILES: CN(C)C(=O)NC1=CC=C(Cl)C(Cl)=C1
InChI: InChI=1S/C9H10Cl2N2O/c1-13(2)9(14)12-6-3-4-7(10)8(11)5-6/h3-5H,1-2H3,(H,12,14)
Instrument: Q Exactive Plus Orbitrap Thermo Scientific
Instrument type: LC-ESI-QFT
Ms type: MS2
Ion mode: NEGATIVE
Ionization: ESI
Fragmentation mode: HCD
Collision energy: 35  (nominal)
Resolution: 35000
Column name: Kinetex C18 EVO 2.6 um, 2.1x50 mm, precolumn 2.1x5 mm, Phenomenex
Retention time: 10.126 min
Base peak: 112.9847
Precursor m/z: 231.0097
Precursor type: [M-H]-
m/z	relative intensity	assigned
111.9849	2	C3H6Cl2-
149.9753	84	C7HClNO-
159.9727	107	C6H4Cl2N-
185.952	375	C7H2Cl2NO-
217.9776	3	C8H6Cl2NO2-
231.0098	999	C9H9Cl2N2O-
