Mass spectrum: Mebeverine; LC-ESI-QFT; MS2; CE: 35 NCE; R=35000; [M+H]+
Name: Mebeverine
Name: 4-[ethyl-[1-(4-methoxyphenyl)propan-2-yl]amino]butyl 3,4-dimethoxybenzoate
Formula: C25H35NO5
Exact mass: 429.25152
SMILES: CCN(CCCCOC(=O)C1=CC(OC)=C(OC)C=C1)C(C)CC1=CC=C(OC)C=C1
InChI: InChI=1S/C25H35NO5/c1-6-26(19(2)17-20-9-12-22(28-3)13-10-20)15-7-8-16-31-25(27)21-11-14-23(29-4)24(18-21)30-5/h9-14,18-19H,6-8,15-17H2,1-5H3
Instrument: Q Exactive Plus Orbitrap Thermo Scientific
Instrument type: LC-ESI-QFT
Ms type: MS2
Ion mode: POSITIVE
Ionization: ESI
Fragmentation mode: HCD
Collision energy: 35  (nominal)
Resolution: 35000
Column name: Kinetex C18 EVO 2.6 um, 2.1x50 mm, precolumn 2.1x5 mm, Phenomenex
Retention time: 8.687 min
Base peak: 430.2583
Precursor m/z: 430.2588
Precursor type: [M+H]+
m/z	relative intensity	assigned
65.0387	1	C5H5+
77.0387	1	C6H5+
78.0465	3	C6H6+
91.0542	39	C7H7+
93.0698	19	C7H9+
94.0412	2	C6H6O+
95.0491	1	C6H7O+
100.1121	33	C6H14N+
106.0411	2	C7H6O+
107.0491	3	C7H7O+
108.0571	4	C7H8O+
109.0647	18	C7H9O+
115.0541	2	C9H7+
117.0699	6	C9H9+
119.0604	3	C7H7N2+
121.0648	999	C8H9O+
134.0727	6	C9H10O+
149.0961	880	C10H13O+
165.0546	27	C9H9O3+
248.2007	1	C16H26NO+
430.259	766	C25H36NO5+
