Mass spectrum: quinmerac; LC-ESI-QFT; MS2; CE: 35 NCE; R=35000; [M+H]+
Name: quinmerac
Name: 7-chloro-3-methylquinoline-8-carboxylic acid
Formula: C11H8ClNO2
Exact mass: 221.02436
SMILES: CC1=CC2=C(N=C1)C(C(O)=O)=C(Cl)C=C2
InChI: InChI=1S/C11H8ClNO2/c1-6-4-7-2-3-8(12)9(11(14)15)10(7)13-5-6/h2-5H,1H3,(H,14,15)
Instrument: Q Exactive Plus Orbitrap Thermo Scientific
Instrument type: LC-ESI-QFT
Ms type: MS2
Ion mode: POSITIVE
Ionization: ESI
Fragmentation mode: HCD
Collision energy: 35  (nominal)
Resolution: 35000
Column name: Kinetex C18 EVO 2.6 um, 2.1x50 mm, precolumn 2.1x5 mm, Phenomenex
Retention time: 6.133 min
Base peak: 230.0066
Precursor m/z: 222.0316
Precursor type: [M+H]+
m/z	relative intensity	assigned
140.0493	8	C10H6N+
141.0571	16	C10H7N+
149.0152	11	C9H6Cl+
176.0261	35	C10H7ClN+
194.0368	20	C10H9ClNO+
204.021	999	C11H7ClNO+
222.0316	298	C11H9ClNO2+
