Mass spectrum: 2,6-Dichlorobenzamide; LC-ESI-QFT; MS2; CE: 35 NCE; R=35000; [M+H]+
Name: 2,6-Dichlorobenzamide
Formula: C7H5Cl2NO
Exact mass: 188.97482
SMILES: NC(=O)c1c(Cl)cccc1Cl
InChI: InChI=1S/C7H5Cl2NO/c8-4-2-1-3-5(9)6(4)7(10)11/h1-3H,(H2,10,11)
Instrument: Q Exactive Plus Orbitrap Thermo Scientific
Instrument type: LC-ESI-QFT
Ms type: MS2
Ion mode: POSITIVE
Ionization: ESI
Fragmentation mode: HCD
Collision energy: 35  (nominal)
Resolution: 35000
Column name: Kinetex C18 EVO 2.6 um, 2.1x50 mm, precolumn 2.1x5 mm, Phenomenex
Retention time: 2.327 min
Base peak: 189.9819
Precursor m/z: 189.9821
Precursor type: [M+H]+
m/z	relative intensity	assigned
75.0233	1	C6H3+
84.9839	2	C4H2Cl+
108.9842	1	C6H2Cl+
126.9944	1	C6H4ClO+
128.0024	1	C6H5ClO+
139.0058	1	C6H4ClN2+
144.9605	2	C6H3Cl2+
146.9762	11	C6H5Cl2+
155.0006	1	C6H4ClN2O+
162.971	2	C6H5Cl2O+
164.001	1	C7H3ClN3+
171.9714	32	C7H4Cl2N+
172.9555	791	C7H3Cl2O+
189.982	999	C7H6Cl2NO+
