Mass spectrum: Metformin; LC-ESI-QFT; MS2; CE: 35 NCE; R=35000; [M+H]+
Name: Metformin
Formula: C4H11N5
Exact mass: 129.10145
SMILES: CN(C)C(=N)N=C(N)N
InChI: InChI=1S/C4H11N5/c1-9(2)4(7)8-3(5)6/h1-2H3,(H5,5,6,7,8)
Instrument: Q Exactive Plus Orbitrap Thermo Scientific
Instrument type: LC-ESI-QFT
Ms type: MS2
Ion mode: POSITIVE
Ionization: ESI
Fragmentation mode: HCD
Collision energy: 35  (nominal)
Resolution: 35000
Column name: Kinetex C18 EVO 2.6 um, 2.1x50 mm, precolumn 2.1x5 mm, Phenomenex
Retention time: 0.394 min
Base peak: 114.1276
Precursor m/z: 130.1087
Precursor type: [M+H]+
m/z	relative intensity	assigned
60.0558	999	CH6N3+
68.0244	6	C2H2N3+
71.0604	371	C3H7N2+
85.0509	219	C2H5N4+
88.0869	212	C3H10N3+
113.0822	106	C4H9N4+
130.1087	770	C4H12N5+
