Mass spectrum: 7-Diethylamino-4-methylcoumarin; LC-ESI-QFT; MS2; CE: 35 NCE; R=35000; [M+H]+
Name: 7-Diethylamino-4-methylcoumarin
Name: 7-(Diethylamino)-4-methylchromen-2-one
Formula: C14H17NO2
Exact mass: 231.12593
SMILES: CCN(CC)C1=CC=C2C(C)=CC(=O)OC2=C1
InChI: InChI=1S/C14H17NO2/c1-4-15(5-2)11-6-7-12-10(3)8-14(16)17-13(12)9-11/h6-9H,4-5H2,1-3H3
Instrument: Q Exactive Plus Orbitrap Thermo Scientific
Instrument type: LC-ESI-QFT
Ms type: MS2
Ion mode: POSITIVE
Ionization: ESI
Fragmentation mode: HCD
Collision energy: 35  (nominal)
Resolution: 35000
Column name: Kinetex C18 EVO 2.6 um, 2.1x50 mm, precolumn 2.1x5 mm, Phenomenex
Retention time: 11.355 min
Base peak: 232.1329
Precursor m/z: 232.1332
Precursor type: [M+H]+
m/z	relative intensity	assigned
67.018	1	C4H3O+
68.0132	4	C3H2NO+
91.0543	1	C7H7+
96.0444	4	C5H6NO+
105.0699	1	C8H9+
117.0699	1	C9H9+
118.0653	1	C8H8N+
130.065	2	C9H8N+
131.0729	1	C9H9N+
132.0808	4	C9H10N+
144.0809	8	C10H10N+
147.0679	1	C9H9NO+
148.0758	1	C9H10NO+
148.1121	4	C10H14N+
158.0965	2	C11H12N+
159.1044	1	C11H13N+
160.0757	22	C10H10NO+
160.1123	3	C11H14N+
161.12	1	C11H15N+
162.0912	1	C10H12NO+
172.1121	1	C12H14N+
173.1197	1	C12H15N+
174.0913	3	C11H12NO+
175.0628	4	C10H9NO2+
175.0992	45	C11H13NO+
176.0706	7	C10H10NO2+
176.1071	12	C11H14NO+
176.1434	10	C12H18N+
188.0706	211	C11H10NO2+
189.1149	1	C12H15NO+
202.0864	12	C12H12NO2+
203.0941	354	C12H13NO2+
204.102	155	C12H14NO2+
216.1021	1	C13H14NO2+
217.1107	2	C13H15NO2+
232.1333	999	C14H18NO2+
