Mass spectrum: Perfluorooctanesulfonic acid; LC-ESI-QFT; MS2; CE: 35 NCE; R=35000; [M-H]-
Name: Perfluorooctanesulfonic acid
Name: 1,1,2,2,3,3,4,4,5,5,6,6,7,7,8,8,8-heptadecafluorooctane-1-sulfonic acid
Formula: C8HF17O3S
Exact mass: 499.93749
SMILES: OS(=O)(=O)C(F)(F)C(F)(F)C(F)(F)C(F)(F)C(F)(F)C(F)(F)C(F)(F)C(F)(F)F
InChI: InChI=1S/C8HF17O3S/c9-1(10,3(13,14)5(17,18)7(21,22)23)2(11,12)4(15,16)6(19,20)8(24,25)29(26,27)28/h(H,26,27,28)
Instrument: Q Exactive Plus Orbitrap Thermo Scientific
Instrument type: LC-ESI-QFT
Ms type: MS2
Ion mode: NEGATIVE
Ionization: ESI
Fragmentation mode: HCD
Collision energy: 35  (nominal)
Resolution: 35000
Column name: Kinetex C18 EVO 2.6 um, 2.1x50 mm, precolumn 2.1x5 mm, Phenomenex
Retention time: 15.459 min
Base peak: 498.9297
Precursor m/z: 498.9302
Precursor type: [M-H]-
m/z	relative intensity	assigned
498.9313	999	C8F17O3S-
