Mass spectrum: Prednisone; LC-ESI-QFT; MS2; CE: 35 NCE; R=35000; [M+H]+
Name: Prednisone
Name: Fernisone
Name: 17-hydroxy-17-(2-hydroxyacetyl)-10,13-dimethyl-6,7,8,9,12,14,15,16-octahydrocyclopenta[a]phenanthrene-3,11-dione
Formula: C21H26O5
Exact mass: 358.17802
SMILES: CC12CC(=O)C3C(CCC4=CC(=O)C=CC34C)C1CCC2(O)C(=O)CO
InChI: InChI=1S/C21H26O5/c1-19-7-5-13(23)9-12(19)3-4-14-15-6-8-21(26,17(25)11-22)20(15,2)10-16(24)18(14)19/h5,7,9,14-15,18,22,26H,3-4,6,8,10-11H2,1-2H3
Instrument: Q Exactive Plus Orbitrap Thermo Scientific
Instrument type: LC-ESI-QFT
Ms type: MS2
Ion mode: POSITIVE
Ionization: ESI
Fragmentation mode: HCD
Collision energy: 35  (nominal)
Resolution: 35000
Column name: Kinetex C18 EVO 2.6 um, 2.1x50 mm, precolumn 2.1x5 mm, Phenomenex
Retention time: 9.583 min
Base peak: 359.185
Precursor m/z: 359.1853
Precursor type: [M+H]+
m/z	relative intensity	assigned
55.0545	16	C4H7+
57.0337	4	C3H5O+
65.0388	2	C5H5+
67.0543	42	C5H7+
69.0336	30	C4H5O+
69.07	16	C5H9+
71.0493	17	C4H7O+
73.0648	10	C4H9O+
75.0441	3	C3H7O2+
77.0387	4	C6H5+
79.0542	66	C6H7+
81.0335	10	C5H5O+
81.0699	80	C6H9+
83.0492	26	C5H7O+
85.0284	3	C4H5O2+
85.0648	10	C5H9O+
91.0542	68	C7H7+
93.0699	169	C7H9+
95.0492	86	C6H7O+
95.0856	121	C7H11+
97.0649	36	C6H9O+
99.044	19	C5H7O2+
99.0806	3	C6H11O+
101.0597	30	C5H9O2+
105.0699	86	C8H9+
107.0492	12	C7H7O+
107.0855	124	C8H11+
109.0648	111	C7H9O+
109.1012	22	C8H13+
111.0441	14	C6H7O2+
111.0804	44	C7H11O+
113.0596	5	C6H9O2+
115.0545	11	C9H7+
115.0754	3	C6H11O2+
116.0621	2	C9H8+
117.0699	46	C9H9+
119.0855	73	C9H11+
121.0648	216	C8H9O+
123.044	3	C7H7O2+
123.0804	59	C8H11O+
125.0597	10	C7H9O2+
125.0961	25	C8H13O+
128.0619	4	C10H8+
129.0699	18	C10H9+
131.0855	55	C10H11+
132.0571	5	C9H8O+
133.0648	31	C9H9O+
133.1012	12	C10H13+
135.0804	191	C9H11O+
137.0597	15	C8H9O2+
137.096	43	C9H13O+
139.0754	33	C8H11O2+
141.0547	2	C7H9O3+
141.0699	19	C11H9+
143.0854	24	C11H11+
144.0571	16	C10H8O+
145.0648	78	C10H9O+
145.1012	10	C11H13+
146.0726	31	C10H10O+
147.0804	728	C10H11O+
149.0596	4	C9H9O2+
149.0962	10	C10H13O+
151.0754	10	C9H11O2+
152.0623	2	C12H8+
153.0699	16	C12H9+
153.0911	49	C9H13O2+
155.0701	3	C8H11O3+
155.0856	16	C12H11+
157.0648	4	C11H9O+
157.1012	9	C12H13+
158.0726	47	C11H10O+
159.0805	274	C11H11O+
160.0885	12	C11H12O+
161.0961	134	C11H13O+
163.0754	51	C10H11O2+
165.0699	9	C13H9+
165.091	13	C10H13O2+
167.0706	2	C9H11O3+
167.0855	20	C13H11+
169.0649	17	C12H9O+
169.0768	2	C11H9N2+
169.1013	18	C13H13+
170.0727	10	C12H10O+
171.0804	460	C12H11O+
172.0881	12	C12H12O+
173.0962	213	C12H13O+
175.0756	10	C11H11O2+
175.1118	4	C12H15O+
177.0911	21	C11H13O2+
178.0782	4	C14H10+
179.0856	56	C14H11+
180.0934	4	C14H12+
181.0646	12	C13H9O+
181.0857	29	C10H13O3+
181.1011	18	C14H13+
182.0727	25	C13H10O+
183.0805	58	C13H11O+
183.1018	49	C10H15O3+
183.1166	3	C14H15+
184.0883	13	C13H12O+
185.0597	15	C12H9O2+
185.0962	78	C13H13O+
186.1042	13	C13H14O+
187.0753	94	C12H11O2+
187.1118	82	C13H15O+
189.0912	36	C12H13O2+
191.0855	5	C15H11+
192.0938	3	C15H12+
192.1225	2	C8H18NO4+
193.101	16	C15H13+
194.0726	13	C14H10O+
194.1087	4	C15H14+
195.0805	44	C14H11O+
195.1015	4	C11H15O3+
195.1169	11	C15H15+
196.0883	24	C14H12O+
197.0962	231	C14H13O+
198.104	10	C14H14O+
199.1117	107	C14H15O+
201.091	5	C13H13O2+
201.1273	5	C14H17O+
203.1068	10	C13H15O2+
204.0931	11	C16H12+
205.1014	11	C16H13+
207.0808	12	C15H11O+
207.117	20	C16H15+
208.0883	56	C15H12O+
209.0961	132	C15H13O+
209.1328	14	C16H17+
210.1039	45	C15H14O+
211.1117	103	C15H15O+
212.1195	27	C15H16O+
213.0907	17	C14H13O2+
213.1274	111	C15H17O+
215.1067	38	C14H15O2+
217.1013	4	C17H13+
218.1089	4	C17H14+
219.0803	10	C16H11O+
219.117	22	C17H15+
220.0882	16	C16H12O+
221.0962	103	C16H13O+
221.1326	11	C17H17+
222.104	139	C16H14O+
223.1118	130	C16H15O+
224.0826	3	C15H12O2+
224.1194	16	C16H16O+
225.0911	14	C15H13O2+
225.1275	103	C16H17O+
227.1064	28	C15H15O2+
227.1431	65	C16H19O+
228.0935	4	C18H12+
229.1012	3	C18H13+
230.1092	5	C18H14+
231.0805	11	C17H11O+
233.0964	27	C17H13O+
233.1322	3	C18H17+
234.104	48	C17H14O+
235.1119	112	C17H15O+
236.1196	20	C17H16O+
237.1274	377	C17H17O+
238.0984	23	C16H14O2+
238.1352	14	C17H18O+
239.1067	76	C16H15O2+
239.143	84	C17H19O+
241.1219	19	C16H17O2+
243.1167	5	C19H15+
243.1387	3	C16H19O2+
245.0965	16	C18H13O+
245.1326	10	C19H17+
246.1042	28	C18H14O+
247.1117	43	C18H15O+
247.1481	5	C19H19+
248.1197	62	C18H16O+
249.1275	113	C18H17O+
250.1351	10	C18H18O+
251.1069	4	C17H15O2+
251.1432	47	C18H19O+
252.1512	9	C18H20O+
253.1223	124	C17H17O2+
253.1588	43	C18H21O+
255.138	96	C17H19O2+
257.096	9	C19H13O+
258.1039	9	C19H14O+
259.1119	11	C19H15O+
259.1477	3	C20H19+
260.1195	17	C19H16O+
261.1275	92	C19H17O+
262.1352	44	C19H18O+
263.1068	11	C18H15O2+
263.1432	153	C19H19O+
264.1507	54	C19H20O+
265.1226	17	C18H17O2+
265.1588	274	C19H21O+
267.138	254	C18H19O2+
267.1742	35	C19H23O+
269.1533	3	C18H21O2+
272.1194	26	C20H16O+
275.1431	39	C20H19O+
276.1136	4	C19H16O2+
277.1237	18	C19H17O2+
277.1588	157	C20H21O+
279.1378	27	C19H19O2+
280.146	5	C19H20O2+
281.1537	60	C19H21O2+
283.1697	51	C19H23O2+
287.1431	76	C21H19O+
290.1302	12	C20H18O2+
292.1457	23	C20H20O2+
293.1537	74	C20H21O2+
295.1695	298	C20H23O2+
297.1486	35	C19H21O3+
299.1637	2	C19H23O3+
305.1538	191	C21H21O2+
311.1638	50	C20H23O3+
313.1799	375	C20H25O3+
323.1643	353	C21H23O3+
341.1749	748	C21H25O4+
359.1854	999	C21H27O5+
