Mass spectrum: Pioglitazone; LC-ESI-QFT; MS2; CE: 35 NCE; R=35000; [M-H]-
Name: Pioglitazone
Name: 5-[[4-[2-(5-ethylpyridin-2-yl)ethoxy]phenyl]methyl]-1,3-thiazolidine-2,4-dione
Formula: C19H20N2O3S
Exact mass: 356.11946
SMILES: CCC1=CC=C(CCOC2=CC=C(CC3SC(=O)NC3=O)C=C2)N=C1
InChI: InChI=1S/C19H20N2O3S/c1-2-13-3-6-15(20-12-13)9-10-24-16-7-4-14(5-8-16)11-17-18(22)21-19(23)25-17/h3-8,12,17H,2,9-11H2,1H3,(H,21,22,23)
Instrument: Q Exactive Plus Orbitrap Thermo Scientific
Instrument type: LC-ESI-QFT
Ms type: MS2
Ion mode: NEGATIVE
Ionization: ESI
Fragmentation mode: HCD
Collision energy: 35  (nominal)
Resolution: 35000
Column name: Kinetex C18 EVO 2.6 um, 2.1x50 mm, precolumn 2.1x5 mm, Phenomenex
Retention time: 8.036 min
Base peak: 355.1123
Precursor m/z: 355.1122
Precursor type: [M-H]-
m/z	relative intensity	assigned
119.0494	2	H11N2O3S-
150.0145	32	C8H6OS-
178.0095	3	C9H6O2S-
234.995	1	C10H5NO4S-
284.1115	2	C17H18NOS-
312.1063	32	C18H18NO2S-
355.1122	999	C19H19N2O3S-
