Mass spectrum: Daidzein; LC-ESI-QFT; MS2; CE: 35 NCE; R=35000; [M+H]+
Name: Daidzein
Name: 7-hydroxy-3-(4-hydroxyphenyl)chromen-4-one
Formula: C15H10O4
Exact mass: 254.05791
SMILES: OC1=CC=C(C=C1)C1=COC2=CC(O)=CC=C2C1=O
InChI: InChI=1S/C15H10O4/c16-10-3-1-9(2-4-10)13-8-19-14-7-11(17)5-6-12(14)15(13)18/h1-8,16-17H
Instrument: Q Exactive Plus Orbitrap Thermo Scientific
Instrument type: LC-ESI-QFT
Ms type: MS2
Ion mode: POSITIVE
Ionization: ESI
Fragmentation mode: HCD
Collision energy: 35  (nominal)
Resolution: 35000
Column name: Kinetex C18 EVO 2.6 um, 2.1x50 mm, precolumn 2.1x5 mm, Phenomenex
Retention time: 9.257 min
Base peak: 255.0649
Precursor m/z: 255.0652
Precursor type: [M+H]+
m/z	relative intensity	assigned
55.0181	1	C3H3O+
68.9972	2	C3HO2+
81.0335	1	C5H5O+
91.0542	11	C7H7+
105.0335	1	C7H5O+
119.0492	7	C8H7O+
121.0284	3	C7H5O2+
128.062	3	C10H8+
129.0699	6	C10H9+
131.0492	1	C9H7O+
131.0856	1	C10H11+
133.0284	5	C8H5O2+
134.0362	1	C8H6O2+
137.0233	55	C7H5O3+
141.0699	1	C11H9+
143.0857	3	C11H11+
145.0284	11	C9H5O2+
149.0233	4	C8H5O3+
152.0621	1	C12H8+
153.0698	11	C12H9+
157.0649	9	C11H9O+
165.07	2	C13H9+
169.0648	1	C12H9O+
171.0804	9	C12H11O+
181.0648	23	C13H9O+
182.0725	1	C13H10O+
184.0523	2	C12H8O2+
185.0598	2	C12H9O2+
197.0598	2	C13H9O2+
198.0677	1	C13H10O2+
199.0754	97	C13H11O2+
209.0597	4	C14H9O2+
209.0709	2	C13H9N2O+
210.0679	1	C14H10O2+
211.0752	3	C14H11O2+
226.0622	1	C14H10O3+
227.0703	42	C14H11O3+
237.0546	19	C15H9O3+
255.0652	999	C15H11O4+
