Mass spectrum: Naproxen; LC-ESI-QFT; MS2; CE: 35 NCE; R=35000; [M+H]+
Name: Naproxen
Name: 2-(6-methoxynaphthalen-2-yl)propanoic acid
Formula: C14H14O3
Exact mass: 230.09429
SMILES: COc1ccc2cc(ccc2c1)C(C)C(O)=O
InChI: InChI=1S/C14H14O3/c1-9(14(15)16)10-3-4-12-8-13(17-2)6-5-11(12)7-10/h3-9H,1-2H3,(H,15,16)
Instrument: Q Exactive Plus Orbitrap Thermo Scientific
Instrument type: LC-ESI-QFT
Ms type: MS2
Ion mode: POSITIVE
Ionization: ESI
Fragmentation mode: HCD
Collision energy: 35  (nominal)
Resolution: 35000
Column name: Kinetex C18 EVO 2.6 um, 2.1x50 mm, precolumn 2.1x5 mm, Phenomenex
Retention time: 10.942 min
Base peak: 423.169
Precursor m/z: 231.1016
Precursor type: [M+H]+
m/z	relative intensity	assigned
56.0496	1	C3H6N+
115.054	3	C9H7+
128.0619	2	C10H8+
129.0698	4	C10H9+
141.0698	1	C11H9+
142.0776	4	C11H10+
143.0492	1	C10H7O+
152.0617	2	C12H8+
153.0698	36	C12H9+
154.0776	41	C12H10+
155.0854	31	C12H11+
156.0569	4	C11H8O+
157.0648	3	C11H9O+
158.0726	24	C11H10O+
169.0646	6	C12H9O+
170.0725	136	C12H10O+
171.0803	2	C12H11O+
181.0762	2	C12H9N2+
184.0882	1	C13H12O+
185.096	999	C13H13O+
189.102	4	C11H13N2O+
201.1023	1	C12H13N2O+
231.1016	68	C14H15O3+
