Mass spectrum: Diphenylsulfone; LC-ESI-QFT; MS2; CE: 35 NCE; R=35000; [M+H]+
Name: Diphenylsulfone
Name: Diphenyl sulfone
Name: Benzenesulfonylbenzene
Formula: C12H10O2S
Exact mass: 218.04015
SMILES: O=S(=O)(C1=CC=CC=C1)C1=CC=CC=C1
InChI: InChI=1S/C12H10O2S/c13-15(14,11-7-3-1-4-8-11)12-9-5-2-6-10-12/h1-10H
Instrument: Q Exactive Plus Orbitrap Thermo Scientific
Instrument type: LC-ESI-QFT
Ms type: MS2
Ion mode: POSITIVE
Ionization: ESI
Fragmentation mode: HCD
Collision energy: 35  (nominal)
Resolution: 35000
Column name: Kinetex C18 EVO 2.6 um, 2.1x50 mm, precolumn 2.1x5 mm, Phenomenex
Retention time: 9.673 min
Base peak: 65.0597
Precursor m/z: 219.0474
Precursor type: [M+H]+
m/z	relative intensity	assigned
50.0153	6	C4H2+
51.0232	19	C4H3+
53.0388	219	C4H5+
55.018	11	C3H3O+
68.9971	1	C3HO2+
77.0386	185	C6H5+
78.0464	12	C6H6+
79.0543	1	C6H7+
81.0335	30	C5H5O+
81.0699	5	C6H9+
94.0413	38	C6H6O+
95.0491	611	C6H7O+
97.0106	10	C5H5S+
105.0447	192	C6H5N2+
106.0418	1	C7H6O+
107.0493	1	C7H7O+
109.0648	9	C7H9O+
125.0055	14	C6H5OS+
126.0132	3	C6H6OS+
141.0004	844	C6H5O2S+
149.0238	1	C8H5O3+
159.0115	1	C6H7O3S+
173.0266	3	C7H9O3S+
219.0475	999	C12H11O2S+
