Mass spectrum: Triadimenol; LC-ESI-QFT; MS2; CE: 35 NCE; R=35000; [M+H]+
Name: Triadimenol
Name: 1-(4-chlorophenoxy)-3,3-dimethyl-1-(1,2,4-triazol-1-yl)butan-2-ol
Formula: C14H18ClN3O2
Exact mass: 295.10875
SMILES: CC(C)(C)C(O)C(Oc1ccc(Cl)cc1)n1cncn1
InChI: InChI=1S/C14H18ClN3O2/c1-14(2,3)12(19)13(18-9-16-8-17-18)20-11-6-4-10(15)5-7-11/h4-9,12-13,19H,1-3H3
Instrument: Q Exactive Plus Orbitrap Thermo Scientific
Instrument type: LC-ESI-QFT
Ms type: MS2
Ion mode: POSITIVE
Ionization: ESI
Fragmentation mode: HCD
Collision energy: 35  (nominal)
Resolution: 35000
Column name: Kinetex C18 EVO 2.6 um, 2.1x50 mm, precolumn 2.1x5 mm, Phenomenex
Retention time: 11.581 min
Base peak: 292.1208
Precursor m/z: 296.116
Precursor type: [M+H]+
m/z	relative intensity	assigned
57.0701	6	C4H9+
59.0493	2	C3H7O+
69.0699	3	C5H9+
70.0401	999	C2H4N3+
99.0805	42	C6H11O+
127.0122	1	C2HN5O2+
141.0101	1	C7H6ClO+
169.0414	1	C9H10ClO+
209.0729	1	C12H14ClO+
227.0833	14	C12H16ClO2+
296.1164	3	C14H19ClN3O2+
