Mass spectrum: Benzimidazole; LC-ESI-QFT; MS2; CE: 35 NCE; R=35000; [M+H]+
Name: Benzimidazole
Name: 1H-Benzimidazole
Formula: C7H6N2
Exact mass: 118.05310
SMILES: N1C=NC2=CC=CC=C12
InChI: InChI=1S/C7H6N2/c1-2-4-7-6(3-1)8-5-9-7/h1-5H,(H,8,9)
Instrument: Q Exactive Plus Orbitrap Thermo Scientific
Instrument type: LC-ESI-QFT
Ms type: MS2
Ion mode: POSITIVE
Ionization: ESI
Fragmentation mode: HCD
Collision energy: 35  (nominal)
Resolution: 35000
Column name: Kinetex C18 EVO 2.6 um, 2.1x50 mm, precolumn 2.1x5 mm, Phenomenex
Retention time: 0.476 min
Base peak: 152.1432
Precursor m/z: 119.0604
Precursor type: [M+H]+
m/z	relative intensity	assigned
59.0493	23	C3H7O+
65.0386	1	C5H5+
92.0494	3	C6H6N+
119.0603	999	C7H7N2+
