Mass spectrum: Diazepam; LC-ESI-QFT; MS2; CE: 35 NCE; R=35000; [M+H]+
Name: Diazepam
Name: 7-chloro-1-methyl-5-phenyl-3H-1,4-benzodiazepin-2-one
Formula: C16H13ClN2O
Exact mass: 284.07164
SMILES: CN1c2ccc(Cl)cc2C(=NCC1=O)c1ccccc1
InChI: InChI=1S/C16H13ClN2O/c1-19-14-8-7-12(17)9-13(14)16(18-10-15(19)20)11-5-3-2-4-6-11/h2-9H,10H2,1H3
Instrument: Q Exactive Plus Orbitrap Thermo Scientific
Instrument type: LC-ESI-QFT
Ms type: MS2
Ion mode: POSITIVE
Ionization: ESI
Fragmentation mode: HCD
Collision energy: 35  (nominal)
Resolution: 35000
Column name: Kinetex C18 EVO 2.6 um, 2.1x50 mm, precolumn 2.1x5 mm, Phenomenex
Retention time: 11.075 min
Base peak: 372.2317
Precursor m/z: 285.0789
Precursor type: [M+H]+
m/z	relative intensity	assigned
58.0289	3	C2H4NO+
91.0542	19	C7H7+
104.0494	2	C7H6N+
105.0335	20	C7H5O+
116.0493	3	C8H6N+
117.0572	5	C8H7N+
118.065	3	C8H8N+
119.0729	1	C8H9N+
125.0152	2	C7H6Cl+
140.026	1	C7H7ClN+
141.0339	3	C7H8ClN+
143.0602	1	C9H7N2+
144.0681	1	C9H8N2+
147.0678	5	C9H9NO+
150.0106	2	C8H5ClN+
152.0261	2	C8H7ClN+
154.0417	132	C8H9ClN+
165.0699	1	C13H9+
167.0132	11	C8H6ClNO+
172.0631	11	C10H8N2O+
179.0369	10	C9H8ClN2+
180.021	9	C9H7ClNO+
182.0366	25	C9H9ClNO+
192.0808	1	C14H10N+
193.0885	87	C14H11N+
194.0967	2	C14H12N+
204.0809	2	C15H10N+
205.0882	2	C15H11N+
206.0837	2	C14H10N2+
207.0319	1	C10H8ClN2O+
207.0914	3	C14H11N2+
216.0574	5	C13H11ClN+
220.0995	1	C15H12N2+
221.1072	8	C15H13N2+
222.115	79	C15H14N2+
226.0415	2	C14H9ClN+
227.0494	7	C14H10ClN+
228.0573	55	C14H11ClN+
230.0727	3	C14H13ClN+
240.0568	2	C15H11ClN+
241.0526	16	C14H10ClN2+
242.0601	4	C14H11ClN2+
255.0684	7	C15H12ClN2+
256.0763	1	C15H13ClN2+
257.0839	70	C15H14ClN2+
285.0788	999	C16H14ClN2O+
