Mass spectrum: Cumarin; LC-ESI-QFT; MS2; CE: 35 NCE; R=35000; [M+H]+
Name: Cumarin
Name: Coumarin
Name: chromen-2-one
Formula: C9H6O2
Exact mass: 146.03678
SMILES: O=C1OC2=CC=CC=C2C=C1
InChI: InChI=1S/C9H6O2/c10-9-6-5-7-3-1-2-4-8(7)11-9/h1-6H
Instrument: Q Exactive Plus Orbitrap Thermo Scientific
Instrument type: LC-ESI-QFT
Ms type: MS2
Ion mode: POSITIVE
Ionization: ESI
Fragmentation mode: HCD
Collision energy: 35  (nominal)
Resolution: 35000
Column name: Kinetex C18 EVO 2.6 um, 2.1x50 mm, precolumn 2.1x5 mm, Phenomenex
Retention time: 7.095 min
Base peak: 147.0438
Precursor m/z: 147.0441
Precursor type: [M+H]+
m/z	relative intensity	assigned
77.0386	1	C6H5+
91.0542	83	C7H7+
95.0491	3	C6H7O+
102.0464	1	C8H6+
103.0542	266	C8H7+
105.0446	1	C6H5N2+
119.0492	3	C8H7O+
147.0439	999	C9H7O2+
