Mass spectrum: Duloxetine; LC-ESI-QFT; MS2; CE: 35 NCE; R=35000; [M+H]+
Name: Duloxetine
Name: (3S)-N-methyl-3-naphthalen-1-yloxy-3-thiophen-2-ylpropan-1-amine
Formula: C18H19NOS
Exact mass: 297.11874
SMILES: CNCC[C@H](Oc1cccc2ccccc12)c1cccs1
InChI: InChI=1S/C18H19NOS/c1-19-12-11-17(18-10-5-13-21-18)20-16-9-4-7-14-6-2-3-8-15(14)16/h2-10,13,17,19H,11-12H2,1H3/t17-/m0/s1
Instrument: Q Exactive Plus Orbitrap Thermo Scientific
Instrument type: LC-ESI-QFT
Ms type: MS2
Ion mode: POSITIVE
Ionization: ESI
Fragmentation mode: HCD
Collision energy: 35  (nominal)
Resolution: 35000
Column name: Kinetex C18 EVO 2.6 um, 2.1x50 mm, precolumn 2.1x5 mm, Phenomenex
Retention time: 8.896 min
Base peak: 298.1257
Precursor m/z: 298.126
Precursor type: [M+H]+
m/z	relative intensity	assigned
97.0107	40	C5H5S+
123.0263	124	C7H7S+
124.0341	53	C7H8S+
129.0698	38	C10H9+
154.0687	112	C8H12NS+
155.0858	67	C12H11+
157.0649	128	C11H9O+
165.0696	15	C13H9+
183.0805	178	C13H11O+
239.0524	18	C15H11OS+
267.0836	79	C17H15OS+
298.1262	999	C18H20NOS+
