Mass spectrum: Sulfamethoxazole; LC-ESI-QFT; MS2; CE: 35 NCE; R=35000; [M+H]+
Name: Sulfamethoxazole
Name: 4-amino-N-(5-methyl-1,2-oxazol-3-yl)benzenesulfonamide
Formula: C10H11N3O3S
Exact mass: 253.05211
SMILES: Cc1cc(NS(=O)(=O)c2ccc(N)cc2)no1
InChI: InChI=1S/C10H11N3O3S/c1-7-6-10(12-16-7)13-17(14,15)9-4-2-8(11)3-5-9/h2-6H,11H2,1H3,(H,12,13)
Instrument: Q Exactive Plus Orbitrap Thermo Scientific
Instrument type: LC-ESI-QFT
Ms type: MS2
Ion mode: POSITIVE
Ionization: ESI
Fragmentation mode: HCD
Collision energy: 35  (nominal)
Resolution: 35000
Column name: Kinetex C18 EVO 2.6 um, 2.1x50 mm, precolumn 2.1x5 mm, Phenomenex
Retention time: 5.918 min
Base peak: 189.1019
Precursor m/z: 254.0594
Precursor type: [M+H]+
m/z	relative intensity	assigned
54.0341	2	C3H4N+
55.018	1	C3H3O+
65.0387	50	C5H5+
68.0495	42	C4H6N+
69.0335	4	C4H5O+
72.0445	5	C3H6NO+
78.0338	7	C5H4N+
79.0178	8	C5H3O+
80.0495	16	C5H6N+
92.0494	481	C6H6N+
93.0573	192	C6H7N+
94.0651	28	C6H8N+
95.0365	1	C5H5NO+
96.0444	6	C5H6NO+
97.0397	1	C4H5N2O+
99.0553	195	C4H7N2O+
107.0603	41	C6H7N2+
108.0444	626	C6H6NO+
109.0521	1	C6H7NO+
110.06	50	C6H8NO+
119.0603	2	C7H7N2+
120.0555	6	C6H6N3+
121.076	5	C7H9N2+
131.0603	7	C8H7N2+
132.0681	3	C8H8N2+
133.0633	3	C7H7N3+
133.076	2	C8H9N2+
143.0603	2	C9H7N2+
145.0761	2	C9H9N2+
146.0712	44	C8H8N3+
147.079	155	C8H9N3+
148.0868	33	C8H10N3+
156.0113	926	C6H6NO2S+
160.0869	131	C9H10N3+
161.0014	12	C4H5N2O3S+
161.0708	2	C9H9N2O+
163.0866	1	C9H11N2O+
172.0868	2	C10H10N3+
173.0584	3	C9H7N3O+
174.022	7	C6H8NO3S+
174.0787	1	C10H10N2O+
176.0276	8	C8H6N3S+
188.0818	138	C10H10N3O+
190.0975	42	C10H12N3O+
194.0382	32	C8H8N3OS+
254.0593	999	C10H12N3O3S+
