Mass spectrum: Dodecylbenzenesulfonic acid; LC-ESI-QFT; MS2; CE: 35 NCE; R=35000; [M-H]-
Name: Dodecylbenzenesulfonic acid
Formula: C18H30O3S
Exact mass: 326.19157
SMILES: CCCCCCCCCCCCC1=CC=C(C=C1)S(O)(=O)=O
InChI: InChI=1S/C18H30O3S/c1-2-3-4-5-6-7-8-9-10-11-12-17-13-15-18(16-14-17)22(19,20)21/h13-16H,2-12H2,1H3,(H,19,20,21)
Instrument: Q Exactive Plus Orbitrap Thermo Scientific
Instrument type: LC-ESI-QFT
Ms type: MS2
Ion mode: NEGATIVE
Ionization: ESI
Fragmentation mode: HCD
Collision energy: 35  (nominal)
Resolution: 35000
Column name: Kinetex C18 EVO 2.6 um, 2.1x50 mm, precolumn 2.1x5 mm, Phenomenex
Retention time: 23.195 min
Base peak: 112.9848
Precursor m/z: 325.1843
Precursor type: [M-H]-
m/z	relative intensity	assigned
170.0042	9	C7H6O3S-
183.0121	219	C8H7O3S-
184.0199	28	C8H8O3S-
197.0277	23	C9H9O3S-
255.1376	5	C9H23N2O4S-
261.2236	4	C18H29O-
325.1842	999	C18H29O3S-
