Mass spectrum: Pyrazophos; LC-ESI-QFT; MS2; CE: 35 NCE; R=35000; [M+H]+
Name: Pyrazophos
Name: ethyl 2-diethoxyphosphinothioyloxy-5-methylpyrazolo[1,5-a]pyrimidine-6-carboxylate
Formula: C14H20N3O5PS
Exact mass: 373.08613
SMILES: CCOC(=O)c1cn2nc(OP(=S)(OCC)OCC)cc2nc1C
InChI: InChI=1S/C14H20N3O5PS/c1-5-19-14(18)11-9-17-12(15-10(11)4)8-13(16-17)22-23(24,20-6-2)21-7-3/h8-9H,5-7H2,1-4H3
Instrument: Q Exactive Plus Orbitrap Thermo Scientific
Instrument type: LC-ESI-QFT
Ms type: MS2
Ion mode: POSITIVE
Ionization: ESI
Fragmentation mode: HCD
Collision energy: 35  (nominal)
Resolution: 35000
Column name: Kinetex C18 EVO 2.6 um, 2.1x50 mm, precolumn 2.1x5 mm, Phenomenex
Retention time: 12.807 min
Base peak: 374.0931
Precursor m/z: 374.0934
Precursor type: [M+H]+
m/z	relative intensity	assigned
64.9787	21	H2O2P+
82.9892	3	H4O3P+
93.01	19	C2H6O2P+
96.9507	15	H2O2PS+
98.9664	2	H4O2PS+
98.9842	4	H4O4P+
109.0048	2	C2H6O3P+
110.9664	2	CH4O2PS+
111.0205	1	C2H8O3P+
113.9535	69	H3O3PS+
114.9613	91	H4O3PS+
124.9822	1	C2H6O2PS+
125.9898	5	C2H7O2PS+
128.9769	3	CH6O3PS+
130.9562	4	H4O4PS+
133.0632	1	C7H7N3+
139.0502	4	C6H7N2O2+
141.9848	21	C2H7O3PS+
142.9925	13	C2H8O3PS+
148.0504	16	C7H6N3O+
149.0347	2	C7H5N2O2+
150.066	2	C7H8N3O+
151.0503	1	C7H7N2O2+
159.0426	9	C8H5N3O+
165.0116	5	C7H5N2OS+
166.0611	14	C7H8N3O2+
170.0159	20	C4H11O3PS+
176.0454	179	C8H6N3O2+
177.0295	8	C8H5N2O3+
177.0532	73	C8H7N3O2+
178.0611	3	C8H8N3O2+
180.0893	4	C9H12N2O2+
181.0064	9	C7H5N2O2S+
183.0223	66	C7H7N2O2S+
190.0071	1	C8H4N3OS+
192.0225	22	C8H6N3OS+
194.056	642	C8H8N3O3+
195.076	1	C9H11N2O3+
199.0171	3	C7H7N2O3S+
205.0845	58	C10H11N3O2+
206.0926	4	C10H12N3O2+
208.0175	17	C8H6N3O2S+
208.0714	2	C9H10N3O3+
209.0375	4	C9H9N2O2S+
210.0331	94	C8H8N3O2S+
211.0535	56	C9H11N2O2S+
222.0872	733	C10H12N3O3+
227.0481	1	C9H11N2O3S+
236.0487	42	C10H10N3O2S+
238.0643	196	C10H12N3O2S+
239.0844	1	C11H15N2O2S+
250.1184	2	C12H16N3O3+
253.9781	4	C12H2N2O3S+
256.0118	4	C8H7N3O5P+
266.0955	3	C12H16N3O2S+
271.9888	10	C8H7N3O4PS+
274.0221	3	C14H11O2PS+
289.9989	4	C12H6N2O5S+
300.0204	17	C10H11N3O4PS+
302.0535	2	C14H10N2O6+
304.0143	1	C13H8N2O5S+
318.0309	23	C10H13N3O5PS+
328.0515	8	C12H15N3O4PS+
332.0465	2	C11H15N3O5PS+
346.062	80	C12H17N3O5PS+
374.0934	999	C14H21N3O5PS+
