Mass spectrum: Captopril; LC-ESI-QFT; MS2; CE: 35 NCE; R=35000; [M+H]+
Name: Captopril
Name: (2S)-1-[(2S)-2-methyl-3-sulfanylpropanoyl]pyrrolidine-2-carboxylic acid
Formula: C9H15NO3S
Exact mass: 217.07726
SMILES: C[C@H](CS)C(=O)N1CCC[C@H]1C(O)=O
InChI: InChI=1S/C9H15NO3S/c1-6(5-14)8(11)10-4-2-3-7(10)9(12)13/h6-7,14H,2-5H2,1H3,(H,12,13)/t6-,7+/m1/s1
Instrument: Q Exactive Plus Orbitrap Thermo Scientific
Instrument type: LC-ESI-QFT
Ms type: MS2
Ion mode: POSITIVE
Ionization: ESI
Fragmentation mode: HCD
Collision energy: 35  (nominal)
Resolution: 35000
Column name: Kinetex C18 EVO 2.6 um, 2.1x50 mm, precolumn 2.1x5 mm, Phenomenex
Retention time: 5.861 min
Base peak: 189.1019
Precursor m/z: 218.0845
Precursor type: [M+H]+
m/z	relative intensity	assigned
70.0652	934	C4H8N+
75.0263	531	C3H7S+
95.0855	3	C7H11+
97.0647	2	C6H9O+
103.0212	11	C4H7OS+
109.1011	1	C8H13+
114.0549	2	C5H8NO2+
116.0706	999	C5H10NO2+
137.0957	1	C9H13O+
155.1065	2	C9H15O2+
172.079	248	C8H14NOS+
184.0969	4	C9H14NO3+
200.0739	40	C9H14NO2S+
218.0845	390	C9H16NO3S+
