Mass spectrum: Propranolol; LC-ESI-QFT; MS2; CE: 35 NCE; R=35000; [M+H]+
Name: Propranolol
Name: 1-naphthalen-1-yloxy-3-(propan-2-ylamino)propan-2-ol
Formula: C16H21NO2
Exact mass: 259.15723
SMILES: CC(C)NCC(O)COc1cccc2ccccc12
InChI: InChI=1S/C16H21NO2/c1-12(2)17-10-14(18)11-19-16-9-5-7-13-6-3-4-8-15(13)16/h3-9,12,14,17-18H,10-11H2,1-2H3
Instrument: Q Exactive Plus Orbitrap Thermo Scientific
Instrument type: LC-ESI-QFT
Ms type: MS2
Ion mode: POSITIVE
Ionization: ESI
Fragmentation mode: HCD
Collision energy: 35  (nominal)
Resolution: 35000
Column name: Kinetex C18 EVO 2.6 um, 2.1x50 mm, precolumn 2.1x5 mm, Phenomenex
Retention time: 7.301 min
Base peak: 260.1642
Precursor m/z: 260.1645
Precursor type: [M+H]+
m/z	relative intensity	assigned
56.0496	75	C3H6N+
58.0653	81	C3H8N+
60.0809	6	C3H10N+
72.0808	107	C4H10N+
74.0601	122	C3H8NO+
84.0808	3	C5H10N+
86.0964	23	C5H12N+
90.0548	3	C3H8NO2+
98.0964	86	C6H12N+
100.112	15	C6H14N+
115.0542	2	C9H7+
116.107	210	C6H14NO+
128.0621	1	C10H8+
129.0698	22	C10H9+
132.1018	4	C6H14NO2+
141.0698	15	C11H9+
143.0491	2	C10H7O+
145.0648	12	C10H9O+
153.0699	10	C12H9+
154.0776	1	C12H10+
155.0855	67	C12H11+
157.0648	73	C11H9O+
165.07	18	C13H9+
168.0571	4	C12H8O+
171.0803	2	C12H11O+
183.0805	125	C13H11O+
218.1175	19	C13H16NO2+
242.1536	3	C16H20NO+
260.1645	999	C16H22NO2+
