Mass spectrum: Glimepiride; LC-ESI-QFT; MS2; CE: 35 NCE; R=35000; [M+H]+
Name: Glimepiride
Name: 4-ethyl-3-methyl-N-[2-[4-[(4-methylcyclohexyl)carbamoylsulfamoyl]phenyl]ethyl]-5-oxo-2H-pyrrole-1-carboxamide
Formula: C24H34N4O5S
Exact mass: 490.22499
SMILES: CCC1=C(C)CN(C(=O)NCCC2=CC=C(C=C2)S(=O)(=O)NC(=O)NC2CCC(C)CC2)C1=O
InChI: InChI=1S/C24H34N4O5S/c1-4-21-17(3)15-28(22(21)29)24(31)25-14-13-18-7-11-20(12-8-18)34(32,33)27-23(30)26-19-9-5-16(2)6-10-19/h7-8,11-12,16,19H,4-6,9-10,13-15H2,1-3H3,(H,25,31)(H2,26,27,30)
Instrument: Q Exactive Plus Orbitrap Thermo Scientific
Instrument type: LC-ESI-QFT
Ms type: MS2
Ion mode: POSITIVE
Ionization: ESI
Fragmentation mode: HCD
Collision energy: 35  (nominal)
Resolution: 35000
Column name: Kinetex C18 EVO 2.6 um, 2.1x50 mm, precolumn 2.1x5 mm, Phenomenex
Retention time: 12.526 min
Base peak: 491.2323
Precursor m/z: 491.2323
Precursor type: [M+H]+
m/z	relative intensity	assigned
53.0388	2	C4H5+
55.0544	24	C4H7+
70.0653	5	C4H8N+
77.0387	3	C6H5+
79.0542	6	C6H7+
81.0699	30	C6H9+
83.0856	10	C6H11+
91.0542	3	C7H7+
93.0573	1	C6H7N+
95.0492	6	C6H7O+
96.0444	3	C5H6NO+
96.0808	3	C6H10N+
97.0523	4	C5H7NO+
97.1012	11	C7H13+
98.0601	12	C5H8NO+
98.0965	9	C6H12N+
103.0542	36	C8H7+
108.0808	18	C7H10N+
109.0648	44	C7H9O+
110.0599	1	C6H8NO+
114.1278	18	C7H16N+
118.0652	15	C8H8N+
119.0493	3	C8H7O+
120.057	1	C8H8O+
120.0809	3	C8H10N+
121.0649	26	C8H9O+
124.0757	54	C7H10NO+
126.0914	999	C7H12NO+
131.0604	44	C8H7N2+
151.0211	6	C8H7OS+
151.0865	6	C8H11N2O+
152.0705	20	C8H10NO2+
160.076	1	C10H10NO+
167.0162	79	C8H7O2S+
168.0654	1	C8H10NO3+
170.0812	76	C8H12NO3+
174.0663	21	C9H8N3O+
179.0817	6	C9H11N2O2+
181.0972	94	C9H13N2O2+
184.0428	4	C8H10NO2S+
184.0971	4	C9H14NO3+
192.0119	2	C9H6NO2S+
210.0221	15	C9H8NO3S+
228.0324	3	C9H10NO4S+
229.0646	3	C17H9O+
242.0488	1	C10H12NO4S+
243.1484	1	C7H23N4O3S+
246.043	3	C9H12NO5S+
260.0586	1	C10H14NO5S+
271.1441	4	C16H19N2O2+
287.1392	4	C16H19N2O3+
292.0993	6	C21H12N2+
335.1061	48	C16H19N2O4S+
352.1327	807	C16H22N3O4S+
353.118	1	C24H17O3+
353.139	1	C21H21O5+
378.112	23	C17H20N3O5S+
491.2333	6	C24H35N4O5S+
