Mass spectrum: Fipronil sulfide; LC-ESI-QFT; MS2; CE: 35 NCE; R=35000; [M-H]-
Name: Fipronil sulfide
Name: 5-amino-1-[2,6-dichloro-4-(trifluoromethyl)phenyl]-4-(trifluoromethylsulfanyl)pyrazole-3-carbonitrile
Formula: C12H4Cl2F6N4S
Exact mass: 419.94379
SMILES: C1=C(C=C(C(=C1Cl)N2C(=C(C(=N2)C#N)SC(F)(F)F)N)Cl)C(F)(F)F
InChI: InChI=1S/C12H4Cl2F6N4S/c13-5-1-4(11(15,16)17)2-6(14)8(5)24-10(22)9(7(3-21)23-24)25-12(18,19)20/h1-2H,22H2
Instrument: Q Exactive Plus Orbitrap Thermo Scientific
Instrument type: LC-ESI-QFT
Ms type: MS2
Ion mode: NEGATIVE
Ionization: ESI
Fragmentation mode: HCD
Collision energy: 35  (nominal)
Resolution: 35000
Column name: Kinetex C18 EVO 2.6 um, 2.1x50 mm, precolumn 2.1x5 mm, Phenomenex
Retention time: 12.495 min
Base peak: 418.9365
Precursor m/z: 418.9365
Precursor type: [M-H]-
m/z	relative intensity	assigned
89.9973	1	F4N-
150.0035	49	C7F2N2-
170.0097	345	C7HF3N2-
182.0094	1	C8HF3N2-
183.0178	6	C8H2F3N2-
192.9636	9	C8H2ClN2S-
213.9818	2	C8HF3N2S-
214.9896	6	C8H2F3N2S-
217.9864	501	C8H2ClF3N2-
226.9896	20	C9H2F3N2S-
229.9524	1	C8HClF2N2S-
233.9813	90	C9F2N4S-
234.9475	5	C8HClF3NS-
245.9814	38	C10F2N4S-
249.9586	39	C8H2ClF3N2S-
261.9586	821	C9H2ClF3N2S-
280.9582	1	C9H2ClF4N2S-
287.9617	1	C10H2ClF3N3S-
313.9648	313	C11H2ClF3N4S-
330.9536	15	C10H2ClF6N2S-
349.9413	1	C11H3Cl2F3N4S-
382.9599	999	C12H2ClF6N4S-
418.9366	66	C12H3Cl2F6N4S-
