Mass spectrum: Mefenamic acid; LC-ESI-QFT; MS2; CE: 35 NCE; R=35000; [M+H]+
Name: Mefenamic acid
Name: 2-(2,3-dimethylanilino)benzoic acid
Formula: C15H15NO2
Exact mass: 241.11028
SMILES: Cc1cccc(Nc2ccccc2C(O)=O)c1C
InChI: InChI=1S/C15H15NO2/c1-10-6-5-9-13(11(10)2)16-14-8-4-3-7-12(14)15(17)18/h3-9,16H,1-2H3,(H,17,18)
Instrument: Q Exactive Plus Orbitrap Thermo Scientific
Instrument type: LC-ESI-QFT
Ms type: MS2
Ion mode: POSITIVE
Ionization: ESI
Fragmentation mode: HCD
Collision energy: 35  (nominal)
Resolution: 35000
Column name: Kinetex C18 EVO 2.6 um, 2.1x50 mm, precolumn 2.1x5 mm, Phenomenex
Retention time: 12.974 min
Base peak: 242.1172
Precursor m/z: 242.1176
Precursor type: [M+H]+
m/z	relative intensity	assigned
180.0806	4	C13H10N+
181.0886	2	C13H11N+
208.0756	5	C14H10NO+
209.0836	131	C14H11NO+
222.0912	4	C15H12NO+
223.0995	2	C15H13NO+
224.107	999	C15H14NO+
242.1176	92	C15H16NO2+
