Mass spectrum: N-Methyl-2-pyrrolidone; LC-ESI-QFT; MS2; CE: 35 NCE; R=35000; [M+H]+
Name: N-Methyl-2-pyrrolidone
Name: 1-Methyl-2-Pyrrolidinone
Name: 1-Methylpyrrolidin-2-one
Formula: C5H9NO
Exact mass: 99.06841
SMILES: CN1CCCC1=O
InChI: InChI=1S/C5H9NO/c1-6-4-2-3-5(6)7/h2-4H2,1H3
Instrument: Q Exactive Plus Orbitrap Thermo Scientific
Instrument type: LC-ESI-QFT
Ms type: MS2
Ion mode: POSITIVE
Ionization: ESI
Fragmentation mode: HCD
Collision energy: 35  (nominal)
Resolution: 35000
Column name: Kinetex C18 EVO 2.6 um, 2.1x50 mm, precolumn 2.1x5 mm, Phenomenex
Retention time: 0.846 min
Base peak: 232.1442
Precursor m/z: 100.0757
Precursor type: [M+H]+
m/z	relative intensity	assigned
58.0288	24	C2H4NO+
69.0335	19	C4H5O+
71.0491	2	C4H7O+
72.0808	1	C4H10N+
82.0651	5	C5H8N+
98.0599	4	C5H8NO+
100.0755	999	C5H10NO+
