Mass spectrum: Iminostilbene; LC-ESI-QFT; MS2; CE: 35 NCE; R=35000; [M+H]+
Name: Iminostilbene
Name: 11H-benzo[b][1]benzazepine
Formula: C14H11N
Exact mass: 193.08915
SMILES: N1C2=CC=CC=C2C=CC2=CC=CC=C12
InChI: InChI=1S/C14H11N/c1-3-7-13-11(5-1)9-10-12-6-2-4-8-14(12)15-13/h1-10,15H
Instrument: Q Exactive Plus Orbitrap Thermo Scientific
Instrument type: LC-ESI-QFT
Ms type: MS2
Ion mode: POSITIVE
Ionization: ESI
Fragmentation mode: HCD
Collision energy: 35  (nominal)
Resolution: 35000
Column name: Kinetex C18 EVO 2.6 um, 2.1x50 mm, precolumn 2.1x5 mm, Phenomenex
Retention time: 11.298 min
Base peak: 194.0965
Precursor m/z: 194.0964
Precursor type: [M+H]+
m/z	relative intensity	assigned
107.073	4	C7H9N+
116.0494	1	C8H6N+
121.0884	2	C8H11N+
122.0964	1	C8H12N+
134.06	15	C8H8NO+
165.07	1	C13H9+
167.0855	2	C13H11+
177.0697	1	C14H9+
179.073	10	C13H9N+
192.0806	1	C14H10N+
193.0888	22	C14H11N+
194.0965	999	C14H12N+
