Mass spectrum: Guanylurea; LC-ESI-QFT; MS2; CE: 35 NCE; R=35000; [M+H]+
Name: Guanylurea
Name: Amidinourea
Name: Diaminomethylideneurea
Formula: C2H6N4O
Exact mass: 102.05416
SMILES: NC(=N)NC(N)=O
InChI: InChI=1S/C2H6N4O/c3-1(4)6-2(5)7/h(H6,3,4,5,6,7)
Instrument: Q Exactive Plus Orbitrap Thermo Scientific
Instrument type: LC-ESI-QFT
Ms type: MS2
Ion mode: POSITIVE
Ionization: ESI
Fragmentation mode: HCD
Collision energy: 35  (nominal)
Resolution: 35000
Column name: Kinetex C18 EVO 2.6 um, 2.1x50 mm, precolumn 2.1x5 mm, Phenomenex
Retention time: 0.412 min
Base peak: 114.1276
Precursor m/z: 103.0614
Precursor type: [M+H]+
m/z	relative intensity	assigned
60.0558	999	CH6N3+
61.0398	6	CH5N2O+
69.0084	3	C2HN2O+
86.0349	193	C2H4N3O+
103.0614	155	C2H7N4O+
