Mass spectrum: Benzamide; LC-ESI-QFT; MS2; CE: 35 NCE; R=35000; [M+H]+
Name: Benzamide
Formula: C7H7NO
Exact mass: 121.05276
SMILES: NC(=O)C1=CC=CC=C1
InChI: InChI=1S/C7H7NO/c8-7(9)6-4-2-1-3-5-6/h1-5H,(H2,8,9)
Instrument: Q Exactive Plus Orbitrap Thermo Scientific
Instrument type: LC-ESI-QFT
Ms type: MS2
Ion mode: POSITIVE
Ionization: ESI
Fragmentation mode: HCD
Collision energy: 35  (nominal)
Resolution: 35000
Column name: Kinetex C18 EVO 2.6 um, 2.1x50 mm, precolumn 2.1x5 mm, Phenomenex
Retention time: 1.757 min
Base peak: 122.0599
Precursor m/z: 122.06
Precursor type: [M+H]+
m/z	relative intensity	assigned
51.0231	2	C4H3+
53.0388	3	C4H5+
77.0385	18	C6H5+
79.0542	721	C6H7+
81.0335	1	C5H5O+
94.0651	1	C6H8N+
95.0491	34	C6H7O+
104.0495	4	C7H6N+
105.0335	998	C7H5O+
122.06	999	C7H8NO+
