Mass spectrum: N-phenyl-1-naphthylamine; LC-ESI-QFT; MS2; CE: 35 NCE; R=35000; [M+H]+
Name: N-phenyl-1-naphthylamine
Name: N-phenylnaphthalen-1-amine
Formula: C16H13N
Exact mass: 219.10480
SMILES: C1=CC=C(C=C1)NC2=CC=CC3=CC=CC=C32
InChI: InChI=1S/C16H13N/c1-2-9-14(10-3-1)17-16-12-6-8-13-7-4-5-11-15(13)16/h1-12,17H
Instrument: Q Exactive Plus Orbitrap Thermo Scientific
Instrument type: LC-ESI-QFT
Ms type: MS2
Ion mode: POSITIVE
Ionization: ESI
Fragmentation mode: HCD
Collision energy: 35  (nominal)
Resolution: 35000
Column name: Kinetex C18 EVO 2.6 um, 2.1x50 mm, precolumn 2.1x5 mm, Phenomenex
Retention time: 12.812 min
Base peak: 220.1117
Precursor m/z: 220.1121
Precursor type: [M+H]+
m/z	relative intensity	assigned
65.0387	5	C5H5+
92.0494	59	C6H6N+
93.0572	14	C6H7N+
104.0494	1	C7H6N+
115.0542	24	C9H7+
124.0757	1	C7H10NO+
127.0544	1	C10H7+
128.062	24	C10H8+
142.0651	28	C10H8N+
143.0729	272	C10H9N+
155.0603	1	C10H7N2+
178.0776	1	C14H10+
193.1012	2	C15H13+
202.0779	4	C16H10+
203.0855	14	C16H11+
204.0812	3	C15H10N+
204.0933	1	C16H12+
205.0886	10	C15H11N+
218.0962	3	C16H12N+
219.1047	7	C16H13N+
220.112	999	C16H14N+
