Mass spectrum: Flumequine; LC-ESI-QFT; MS2; CE: 35 NCE; R=35000; [M+H]+
Name: Flumequine
Formula: C14H12FNO3
Exact mass: 261.08012
SMILES: CC1CCc2cc(F)cc3C(=O)C(=CN1c23)C(O)=O
InChI: InChI=1S/C14H12FNO3/c1-7-2-3-8-4-9(15)5-10-12(8)16(7)6-11(13(10)17)14(18)19/h4-7H,2-3H2,1H3,(H,18,19)
Instrument: Q Exactive Plus Orbitrap Thermo Scientific
Instrument type: LC-ESI-QFT
Ms type: MS2
Ion mode: POSITIVE
Ionization: ESI
Fragmentation mode: HCD
Collision energy: 35  (nominal)
Resolution: 35000
Column name: Kinetex C18 EVO 2.6 um, 2.1x50 mm, precolumn 2.1x5 mm, Phenomenex
Retention time: 9.427 min
Base peak: 453.1505
Precursor m/z: 262.0874
Precursor type: [M+H]+
m/z	relative intensity	assigned
174.0352	1	C10H5FNO+
176.0872	2	C11H11FN+
202.0297	43	C11H5FNO2+
216.0823	1	C13H11FNO+
220.0404	53	C11H7FNO3+
234.0561	3	C12H9FNO3+
238.0509	16	C14H8NO3+
244.0768	282	C14H11FNO2+
252.0665	3	C12H11FNO4+
262.0874	999	C14H13FNO3+
