Mass spectrum: Bisphenol S; LC-ESI-QFT; MS2; CE: 35 NCE; R=35000; [M-H]-
Name: Bisphenol S
Name: 4,4`-Sulfonyldiphenol
Name: 4-(4-hydroxyphenyl)sulfonylphenol
Formula: C12H10O4S
Exact mass: 250.02998
SMILES: Oc1ccc(cc1)S(=O)(=O)c1ccc(O)cc1
InChI: InChI=1S/C12H10O4S/c13-9-1-5-11(6-2-9)17(15,16)12-7-3-10(14)4-8-12/h1-8,13-14H
Instrument: Q Exactive Plus Orbitrap Thermo Scientific
Instrument type: LC-ESI-QFT
Ms type: MS2
Ion mode: NEGATIVE
Ionization: ESI
Fragmentation mode: HCD
Collision energy: 35  (nominal)
Resolution: 35000
Column name: Kinetex C18 EVO 2.6 um, 2.1x50 mm, precolumn 2.1x5 mm, Phenomenex
Retention time: 7.493 min
Base peak: 249.0226
Precursor m/z: 249.0227
Precursor type: [M-H]-
m/z	relative intensity	assigned
155.9887	87	C6H4O3S-
184.0534	14	C12H8O2-
185.0613	15	C12H9O2-
249.0229	999	C12H9O4S-
