Mass spectrum: N-Ethyl-o-toluenesulfonamide; LC-ESI-QFT; MS2; CE: 35 NCE; R=35000; [M+H]+
Name: N-Ethyl-o-toluenesulfonamide
Name: N-ethyl-2-methylbenzenesulfonamide
Formula: C9H13NO2S
Exact mass: 199.06670
SMILES: CCNS(=O)(=O)C1=C(C)C=CC=C1
InChI: InChI=1S/C9H13NO2S/c1-3-10-13(11,12)9-7-5-4-6-8(9)2/h4-7,10H,3H2,1-2H3
Instrument: Q Exactive Plus Orbitrap Thermo Scientific
Instrument type: LC-ESI-QFT
Ms type: MS2
Ion mode: POSITIVE
Ionization: ESI
Fragmentation mode: HCD
Collision energy: 35  (nominal)
Resolution: 35000
Column name: Kinetex C18 EVO 2.6 um, 2.1x50 mm, precolumn 2.1x5 mm, Phenomenex
Retention time: 8.719 min
Base peak: 200.0738
Precursor m/z: 200.074
Precursor type: [M+H]+
m/z	relative intensity	assigned
53.0388	1	C4H5+
55.018	8	C3H3O+
55.0544	1	C4H7+
65.0387	76	C5H5+
67.0543	37	C5H7+
77.0387	4	C6H5+
91.0543	676	C7H7+
94.0413	1	C6H6O+
95.0492	14	C6H7O+
105.0448	1	C6H5N2+
108.057	16	C7H8O+
109.0648	501	C7H9O+
119.0604	648	C7H7N2+
120.0575	5	C8H8O+
123.0805	2	C8H11O+
155.0162	999	C7H7O2S+
173.0265	1	C7H9O3S+
187.0425	1	C8H11O3S+
200.0741	78	C9H14NO2S+
