Mass spectrum: Diatrizoate; LC-ESI-QFT; MS2; CE: 35 NCE; R=35000; [M-H]-
Name: Diatrizoate
Name: Diatrizoic acid
Name: 3,5-diacetamido-2,4,6-triiodobenzoic acid
Formula: C11H9I3N2O4
Exact mass: 613.7697
SMILES: CC(=O)Nc1c(I)c(NC(C)=O)c(I)c(C(O)=O)c1I
InChI: InChI=1S/C11H9I3N2O4/c1-3(17)15-9-6(12)5(11(19)20)7(13)10(8(9)14)16-4(2)18/h1-2H3,(H,15,17)(H,16,18)(H,19,20)
Instrument: Q Exactive Plus Orbitrap Thermo Scientific
Instrument type: LC-ESI-QFT
Ms type: MS2
Ion mode: NEGATIVE
Ionization: ESI
Fragmentation mode: HCD
Collision energy: 35  (nominal)
Resolution: 35000
Column name: Kinetex C18 EVO 2.6 um, 2.1x50 mm, precolumn 2.1x5 mm, Phenomenex
Retention time: 1.619 min
Base peak: 134.0359
Precursor m/z: 612.7624
Precursor type: [M-H]-
m/z	relative intensity	assigned
112.0279	999	C4H4N2O2-
