Mass spectrum: Imidacloprid urea; LC-ESI-QFT; MS2; CE: 35 NCE; R=35000; [M+H]+
Name: Imidacloprid urea
Name: 1-[(6-chloropyridin-3-yl)methyl]imidazolidin-2-one
Formula: C9H10ClN3O
Exact mass: 211.05124
SMILES: c1cc(ncc1CN2CCN=C2O)Cl
InChI: InChI=1S/C9H10ClN3O/c10-8-2-1-7(5-12-8)6-13-4-3-11-9(13)14/h1-2,5H,3-4,6H2,(H,11,14)
Instrument: Q Exactive Plus Orbitrap Thermo Scientific
Instrument type: LC-ESI-QFT
Ms type: MS2
Ion mode: POSITIVE
Ionization: ESI
Fragmentation mode: HCD
Collision energy: 35  (nominal)
Resolution: 35000
Column name: Kinetex C18 EVO 2.6 um, 2.1x50 mm, precolumn 2.1x5 mm, Phenomenex
Retention time: 5.737 min
Base peak: 203.0925
Precursor m/z: 212.0585
Precursor type: [M+H]+
m/z	relative intensity	assigned
56.0496	5	C3H6N+
57.0701	1	C4H9+
65.0387	2	C5H5+
67.0543	1	C5H7+
69.0084	1	C2HN2O+
70.0288	3	C3H4NO+
71.0605	4	C3H7N2+
85.0396	5	C3H5N2O+
86.0349	9	C2H4N3O+
90.0338	3	C6H4N+
92.0495	8	C6H6N+
93.0572	7	C6H7N+
97.0396	3	C4H5N2O+
99.0553	205	C4H7N2O+
106.0651	1	C7H8N+
107.0604	2	C6H7N2+
110.0599	3	C6H8NO+
114.0105	13	C5H5ClN+
114.0662	5	C4H8N3O+
126.0105	130	C6H5ClN+
127.0183	8	C6H6ClN+
128.0261	762	C6H7ClN+
133.076	6	C8H9N2+
142.0054	2	C6H5ClNO+
144.0209	2	C6H7ClNO+
156.088	96	C5H10N5O+
167.0372	1	C8H8ClN2+
168.0209	1	C8H7ClNO+
169.0164	3	C7H6ClN2O+
169.0526	8	C8H10ClN2+
176.0818	13	C9H10N3O+
194.048	7	C9H9ClN3+
195.032	20	C9H8ClN2O+
212.0585	999	C9H11ClN3O+
