Mass spectrum: Tris(1-chloro-2-propyl)phosphate; LC-ESI-QFT; MS2; CE: 35 NCE; R=35000; [M+H]+
Name: Tris(1-chloro-2-propyl)phosphate
Name: Tris(1-chloropropan-2-yl) phosphate
Formula: C9H18Cl3O4P
Exact mass: 326.00083
SMILES: CC(CCl)OP(=O)(OC(C)CCl)OC(C)CCl
InChI: InChI=1S/C9H18Cl3O4P/c1-7(4-10)14-17(13,15-8(2)5-11)16-9(3)6-12/h7-9H,4-6H2,1-3H3
Instrument: Q Exactive Plus Orbitrap Thermo Scientific
Instrument type: LC-ESI-QFT
Ms type: MS2
Ion mode: POSITIVE
Ionization: ESI
Fragmentation mode: HCD
Collision energy: 35  (nominal)
Resolution: 35000
Column name: Kinetex C18 EVO 2.6 um, 2.1x50 mm, precolumn 2.1x5 mm, Phenomenex
Retention time: 11.392 min
Base peak: 232.1329
Precursor m/z: 327.0081
Precursor type: [M+H]+
m/z	relative intensity	assigned
77.0153	4	C3H6Cl+
80.9735	2	H2O3P+
98.9842	999	H4O4P+
116.9947	2	CH6ClO4+
131.0103	4	C2H8ClO4+
139.0155	1	C3H8O4P+
174.9922	192	C3H9ClO4P+
251.0002	142	C6H14Cl2O4P+
327.0083	29	C9H19Cl3O4P+
