Mass spectrum: 4-Methylumbelliferyl sulfate; LC-ESI-QFT; MS2; CE: 35 NCE; R=35000; [M-H]-
Name: 4-Methylumbelliferyl sulfate
Name: (4-methyl-2-oxochromen-7-yl) hydrogen sulfate
Formula: C10H8O6S
Exact mass: 256.00416
SMILES: CC1=CC(=O)OC2=CC(OS(O)(=O)=O)=CC=C12
InChI: InChI=1S/C10H8O6S/c1-6-4-10(11)15-9-5-7(2-3-8(6)9)16-17(12,13)14/h2-5H,1H3,(H,12,13,14)
Instrument: Q Exactive Plus Orbitrap Thermo Scientific
Instrument type: LC-ESI-QFT
Ms type: MS2
Ion mode: NEGATIVE
Ionization: ESI
Fragmentation mode: HCD
Collision energy: 35  (nominal)
Resolution: 35000
Column name: Kinetex C18 EVO 2.6 um, 2.1x50 mm, precolumn 2.1x5 mm, Phenomenex
Retention time: 8.138 min
Base peak: 254.9968
Precursor m/z: 254.9969
Precursor type: [M-H]-
m/z	relative intensity	assigned
131.05	7	C9H7O-
133.0293	6	C8H5O2-
147.045	4	C9H7O2-
175.04	999	C10H7O3-
254.9969	175	C10H7O6S-
