Mass spectrum: Mesalazine; LC-ESI-QFT; MS2; CE: 35 NCE; R=35000; [M+H]+
Name: Mesalazine
Name: 5-Aminosalicylic acid
Name: 5-amino-2-hydroxybenzoic acid
Formula: C7H7NO3
Exact mass: 153.04259
SMILES: NC1=CC(C(O)=O)=C(O)C=C1
InChI: InChI=1S/C7H7NO3/c8-4-1-2-6(9)5(3-4)7(10)11/h1-3,9H,8H2,(H,10,11)
Instrument: Q Exactive Plus Orbitrap Thermo Scientific
Instrument type: LC-ESI-QFT
Ms type: MS2
Ion mode: POSITIVE
Ionization: ESI
Fragmentation mode: HCD
Collision energy: 35  (nominal)
Resolution: 35000
Column name: Kinetex C18 EVO 2.6 um, 2.1x50 mm, precolumn 2.1x5 mm, Phenomenex
Retention time: 0.428 min
Base peak: 261.1959
Precursor m/z: 154.0499
Precursor type: [M+H]+
m/z	relative intensity	assigned
55.018	5	C3H3O+
63.0232	1	C5H3+
67.0543	13	C5H7+
72.0444	1	C3H6NO+
80.0494	30	C5H6N+
81.0334	1	C5H5O+
91.0542	10	C7H7+
92.0494	8	C6H6N+
108.0443	215	C6H6NO+
136.0392	999	C7H6NO2+
154.0498	735	C7H8NO3+
