Mass spectrum: Bisphenol S; LC-ESI-QFT; MS2; CE: 35 NCE; R=35000; [M+H]+
Name: Bisphenol S
Name: 4,4`-Sulfonyldiphenol
Name: 4-(4-hydroxyphenyl)sulfonylphenol
Formula: C12H10O4S
Exact mass: 250.02998
SMILES: Oc1ccc(cc1)S(=O)(=O)c1ccc(O)cc1
InChI: InChI=1S/C12H10O4S/c13-9-1-5-11(6-2-9)17(15,16)12-7-3-10(14)4-8-12/h1-8,13-14H
Instrument: Q Exactive Plus Orbitrap Thermo Scientific
Instrument type: LC-ESI-QFT
Ms type: MS2
Ion mode: POSITIVE
Ionization: ESI
Fragmentation mode: HCD
Collision energy: 35  (nominal)
Resolution: 35000
Column name: Kinetex C18 EVO 2.6 um, 2.1x50 mm, precolumn 2.1x5 mm, Phenomenex
Retention time: 7.489 min
Base peak: 251.0371
Precursor m/z: 251.0373
Precursor type: [M+H]+
m/z	relative intensity	assigned
55.018	5	C3H3O+
65.0387	158	C5H5+
68.9972	9	C3HO2+
69.0336	1	C4H5O+
71.0128	11	C3H3O2+
79.0179	5	C5H3O+
81.0335	6	C5H5O+
93.0334	45	C6H5O+
94.0413	6	C6H6O+
97.0284	2	C5H5O2+
109.0284	283	C6H5O2+
110.0363	6	C6H6O2+
111.0441	229	C6H7O2+
121.0396	460	C6H5N2O+
122.0367	3	C7H6O2+
141.0002	2	C6H5O2S+
156.9954	913	C6H5O3S+
251.0372	999	C12H11O4S+
