Mass spectrum: Omeprazole; LC-ESI-QFT; MS2; CE: 35 NCE; R=35000; [M-H]-
Name: Omeprazole
Name: 6-methoxy-2-[(4-methoxy-3,5-dimethylpyridin-2-yl)methylsulfinyl]-1H-benzimidazole
Formula: C17H19N3O3S
Exact mass: 345.11471
SMILES: COC1=CC=C2N=C(NC2=C1)S(=O)CC1=NC=C(C)C(OC)=C1C
InChI: InChI=1S/C17H19N3O3S/c1-10-8-18-15(11(2)16(10)23-4)9-24(21)17-19-13-6-5-12(22-3)7-14(13)20-17/h5-8H,9H2,1-4H3,(H,19,20)
Instrument: Q Exactive Plus Orbitrap Thermo Scientific
Instrument type: LC-ESI-QFT
Ms type: MS2
Ion mode: NEGATIVE
Ionization: ESI
Fragmentation mode: HCD
Collision energy: 35  (nominal)
Resolution: 35000
Column name: Kinetex C18 EVO 2.6 um, 2.1x50 mm, precolumn 2.1x5 mm, Phenomenex
Retention time: 8.138 min
Base peak: 254.9968
Precursor m/z: 344.1074
Precursor type: [M-H]-
m/z	relative intensity	assigned
147.02	166	C7H3N2O2-
178.992	599	C7H3N2O2S-
194.0155	999	C8H6N2O2S-
344.1084	18	C17H18N3O3S-
