Mass spectrum: Medroxyprogesteroneacetate; LC-ESI-QFT; MS2; CE: 35 NCE; R=35000; [M+H]+
Name: Medroxyprogesteroneacetate
Name: Medroxyprogesterone acetate
Name: [(6S,8R,9S,10R,13S,14S,17R)-17-acetyl-6,10,13-trimethyl-3-oxo-2,6,7,8,9,11,12,14,15,16-decahydro-1H-cyclopenta[a]phenanthren-17-yl] acetate
Formula: C24H34O4
Exact mass: 386.24571
SMILES: C[C@H]1C[C@H]2[C@@H]3CC[C@](OC(C)=O)(C(C)=O)[C@@]3(C)CC[C@@H]2[C@@]2(C)CCC(=O)C=C12
InChI: InChI=1S/C24H34O4/c1-14-12-18-19(22(4)9-6-17(27)13-21(14)22)7-10-23(5)20(18)8-11-24(23,15(2)25)28-16(3)26/h13-14,18-20H,6-12H2,1-5H3/t14-,18+,19-,20-,22+,23-,24-/m0/s1
Instrument: Q Exactive Plus Orbitrap Thermo Scientific
Instrument type: LC-ESI-QFT
Ms type: MS2
Ion mode: POSITIVE
Ionization: ESI
Fragmentation mode: HCD
Collision energy: 35  (nominal)
Resolution: 35000
Column name: Kinetex C18 EVO 2.6 um, 2.1x50 mm, precolumn 2.1x5 mm, Phenomenex
Retention time: 12.468 min
Base peak: 315.2316
Precursor m/z: 387.253
Precursor type: [M+H]+
m/z	relative intensity	assigned
55.0181	1	C3H3O+
55.0544	5	C4H7+
59.0493	1	C3H7O+
61.0286	1	C2H5O2+
67.0543	24	C5H7+
69.0337	1	C4H5O+
69.0699	7	C5H9+
77.0388	1	C6H5+
79.0542	16	C6H7+
81.0335	1	C5H5O+
81.0699	24	C6H9+
83.0491	50	C5H7O+
85.0648	5	C5H9O+
91.0541	10	C7H7+
93.0699	35	C7H9+
95.0491	8	C6H7O+
95.0855	59	C7H11+
97.0648	402	C6H9O+
99.0804	12	C6H11O+
105.0699	36	C8H9+
107.0855	32	C8H11+
108.0569	3	C7H8O+
109.0647	17	C7H9O+
109.1012	22	C8H13+
111.0804	40	C7H11O+
117.0698	7	C9H9+
119.0855	38	C9H11+
121.0646	9	C8H9O+
121.1012	20	C9H13+
123.0804	751	C8H11O+
125.0963	1	C8H13O+
129.0699	4	C10H9+
131.0854	24	C10H11+
133.1012	36	C10H13+
135.0804	13	C9H11O+
135.1168	16	C10H15+
137.096	87	C9H13O+
139.1117	1	C9H15O+
141.0702	1	C11H9+
142.078	1	C11H10+
143.0856	20	C11H11+
144.0931	1	C11H12+
145.1011	72	C11H13+
147.1167	67	C11H15+
149.0961	5	C10H13O+
149.1326	8	C11H17+
151.1118	7	C10H15O+
155.0855	8	C12H11+
156.0933	5	C12H12+
157.1011	28	C12H13+
158.1087	1	C12H14+
159.0803	2	C11H11O+
159.1168	38	C12H15+
161.096	7	C11H13O+
161.1324	45	C12H17+
163.1117	12	C11H15O+
163.1481	13	C12H19+
165.1271	1	C11H17O+
169.1013	18	C13H13+
170.109	1	C13H14+
171.1168	53	C13H15+
173.096	4	C12H13O+
173.1325	76	C13H17+
174.1405	2	C13H18+
175.1118	20	C12H15O+
175.1481	104	C13H19+
177.1273	18	C12H17O+
177.1637	1	C13H21+
181.1011	4	C14H13+
182.1087	3	C14H14+
183.1169	18	C14H15+
184.1244	1	C14H16+
185.1324	30	C14H17+
187.1118	14	C13H15O+
187.148	38	C14H19+
189.1273	25	C13H17O+
189.1639	8	C14H21+
191.143	11	C13H19O+
195.1169	9	C15H15+
196.1243	1	C15H16+
197.1325	27	C15H17+
198.1398	4	C15H18+
199.1481	29	C15H19+
201.1276	4	C14H17O+
201.1638	12	C15H21+
203.1431	20	C14H19O+
203.1794	5	C15H23+
205.1586	42	C14H21O+
207.1168	1	C16H15+
209.1322	10	C16H17+
211.1481	23	C16H19+
213.1273	7	C15H17O+
213.1636	14	C16H21+
214.1351	81	C15H18O+
215.143	29	C15H19O+
215.1795	1	C16H23+
217.1588	17	C15H21O+
221.1325	7	C17H17+
223.1477	6	C17H19+
224.1557	2	C17H20+
225.1638	30	C17H21+
226.1712	2	C17H22+
227.143	7	C16H19O+
227.1792	29	C17H23+
229.1589	1	C16H21O+
231.1743	6	C16H23O+
233.1541	1	C15H21O2+
235.1477	2	C18H19+
237.1637	3	C18H21+
238.1709	1	C18H22+
239.1429	6	C17H19O+
239.18	7	C18H23+
241.1589	4	C17H21O+
241.1947	2	C18H25+
243.174	9	C17H23O+
245.1899	10	C17H25O+
249.1634	5	C19H21+
251.1795	16	C19H23+
252.1877	1	C19H24+
253.1585	5	C18H21O+
255.1746	1	C18H23O+
257.1535	38	C17H21O2+
265.195	11	C20H25+
266.203	30	C20H26+
267.1741	5	C19H23O+
267.2107	104	C20H27+
269.1901	21	C19H25O+
275.1629	1	C17H23O3+
281.1898	2	C20H25O+
281.2269	3	C21H29+
283.2057	35	C20H27O+
284.2137	28	C20H28O+
285.2213	241	C20H29O+
291.2108	16	C22H27+
301.2167	1	C20H29O2+
303.2321	6	C20H31O2+
309.2213	72	C22H29O+
317.1749	1	C19H25O4+
327.2319	601	C22H31O2+
345.2424	7	C22H33O3+
387.253	999	C24H35O4+
