Mass spectrum: 2,4-Dinitrophenol; LC-ESI-QFT; MS2; CE: 35 NCE; R=35000; [M-H]-
Name: 2,4-Dinitrophenol
Formula: C6H4N2O5
Exact mass: 184.01202
SMILES: OC1=C(C=C(C=C1)[N+]([O-])=O)[N+]([O-])=O
InChI: InChI=1S/C6H4N2O5/c9-6-2-1-4(7(10)11)3-5(6)8(12)13/h1-3,9H
Instrument: Q Exactive Plus Orbitrap Thermo Scientific
Instrument type: LC-ESI-QFT
Ms type: MS2
Ion mode: NEGATIVE
Ionization: ESI
Fragmentation mode: HCD
Collision energy: 35  (nominal)
Resolution: 35000
Column name: Kinetex C18 EVO 2.6 um, 2.1x50 mm, precolumn 2.1x5 mm, Phenomenex
Retention time: 6.228 min
Base peak: 183.0048
Precursor m/z: 183.0047
Precursor type: [M-H]-
m/z	relative intensity	assigned
79.0172	2	C3HN3-
95.0125	40	C3HN3O-
108.0082	1	C3N4O-
109.0159	23	C3HN4O-
123.0082	133	C6H3O3-
125.0113	6	C5H3NO3-
137.0117	30	C6H3NO3-
153.0068	137	C6H3NO4-
183.0048	999	C6H3N2O5-
