Mass spectrum: Oxadiazone; LC-ESI-QFT; MS2; CE: 35 NCE; R=35000; [M+H]+
Name: Oxadiazone
Name: 5-tert-butyl-3-(2,4-dichloro-5-propan-2-yloxyphenyl)-1,3,4-oxadiazol-2-one
Formula: C15H18Cl2N2O3
Exact mass: 344.06945
SMILES: CC(C)OC1=CC(N2N=C(OC2=O)C(C)(C)C)=C(Cl)C=C1Cl
InChI: InChI=1S/C15H18Cl2N2O3/c1-8(2)21-12-7-11(9(16)6-10(12)17)19-14(20)22-13(18-19)15(3,4)5/h6-8H,1-5H3
Instrument: Q Exactive Plus Orbitrap Thermo Scientific
Instrument type: LC-ESI-QFT
Ms type: MS2
Ion mode: POSITIVE
Ionization: ESI
Fragmentation mode: HCD
Collision energy: 35  (nominal)
Resolution: 35000
Column name: Kinetex C18 EVO 2.6 um, 2.1x50 mm, precolumn 2.1x5 mm, Phenomenex
Retention time: 13.610 min
Base peak: 345.0767
Precursor m/z: 345.0767
Precursor type: [M+H]+
m/z	relative intensity	assigned
53.0026	3	ClH4N+
57.0701	73	C4H9+
84.0808	4	C5H10N+
84.9839	1	C4H2Cl+
94.0288	1	C5H4NO+
111.9949	3	C5H3ClN+
112.9788	12	C5H2ClO+
120.9606	3	C4H3Cl2+
122.0236	1	C6H4NO2+
127.9898	9	C5H3ClNO+
128.9976	22	C5H4ClNO+
129.9816	3	C5H3ClO2+
130.0053	5	C5H5ClNO+
139.0057	3	C6H4ClN2+
139.9896	6	C6H3ClNO+
140.9737	32	C6H2ClO2+
147.9715	23	C5H4Cl2N+
148.0027	10	C7H2NO3+
148.9556	100	C5H3Cl2O+
155.0005	4	C6H4ClN2O+
155.9847	37	C6H3ClNO2+
156.9922	1	C9HO3+
163.9664	5	C5H4Cl2NO+
173.9508	52	C6H2Cl2NO+
175.9665	34	C6H4Cl2NO+
176.9505	761	C6H3Cl2O2+
182.9956	12	C7H4ClN2O2+
183.9797	138	C7H3ClNO3+
184.003	9	C10H2NO3+
184.9875	664	C7H4ClNO3+
191.9614	5	C6H4Cl2NO2+
195.0686	5	C10H12ClN2+
201.9457	61	C7H2Cl2NO2+
202.9534	9	C7H3Cl2NO2+
202.9777	4	C7H5Cl2N2O+
208.9766	3	C7H7Cl2O3+
218.9726	11	C7H5Cl2N2O2+
219.9563	842	C7H4Cl2NO3+
223.063	3	C11H12ClN2O+
224.071	1	C11H13ClN2O+
233.9715	1	C8H6Cl2NO3+
239.058	1	C11H12ClN2O2+
246.9674	1	C8H5Cl2N2O3+
259.0397	9	C11H13Cl2N2O+
285.0638	3	C12H14ClN2O4+
303.0299	999	C12H13Cl2N2O3+
307.0624	1	C12H17Cl2N2O3+
321.0402	1	C12H15Cl2N2O4+
335.0557	11	C13H17Cl2N2O4+
345.0769	540	C15H19Cl2N2O3+
