Mass spectrum: 3,4-Dichloroaniline; LC-ESI-QFT; MS2; CE: 35 NCE; R=35000; [M+H]+
Name: 3,4-Dichloroaniline
Formula: C6H5Cl2N
Exact mass: 160.97990
SMILES: C1=CC(=C(C=C1N)Cl)Cl
InChI: InChI=1S/C6H5Cl2N/c7-5-2-1-4(9)3-6(5)8/h1-3H,9H2
Instrument: Q Exactive Plus Orbitrap Thermo Scientific
Instrument type: LC-ESI-QFT
Ms type: MS2
Ion mode: POSITIVE
Ionization: ESI
Fragmentation mode: HCD
Collision energy: 35  (nominal)
Resolution: 35000
Column name: Kinetex C18 EVO 2.6 um, 2.1x50 mm, precolumn 2.1x5 mm, Phenomenex
Retention time: 8.385 min
Base peak: 114.0912
Precursor m/z: 161.9872
Precursor type: [M+H]+
m/z	relative intensity	assigned
126.0105	1	C6H5ClN+
127.0183	439	C6H6ClN+
144.9606	2	C6H3Cl2+
160.9792	1	C6H5Cl2N+
161.9871	999	C6H6Cl2N+
172.9668	8	C6H3Cl2N2+
