Mass spectrum: Tricresylphosphate; LC-ESI-QFT; MS2; CE: 35 NCE; R=35000; [M+H]+
Name: Tricresylphosphate
Name: Tri-o-cresyl phosphate
Name: Tris(2-methylphenyl) phosphate
Formula: C21H21O4P
Exact mass: 368.11775
SMILES: CC1=C(OP(=O)(OC2=C(C)C=CC=C2)OC2=C(C)C=CC=C2)C=CC=C1
InChI: InChI=1S/C21H21O4P/c1-16-10-4-7-13-19(16)23-26(22,24-20-14-8-5-11-17(20)2)25-21-15-9-6-12-18(21)3/h4-15H,1-3H3
Instrument: Q Exactive Plus Orbitrap Thermo Scientific
Instrument type: LC-ESI-QFT
Ms type: MS2
Ion mode: POSITIVE
Ionization: ESI
Fragmentation mode: HCD
Collision energy: 35  (nominal)
Resolution: 35000
Column name: Kinetex C18 EVO 2.6 um, 2.1x50 mm, precolumn 2.1x5 mm, Phenomenex
Retention time: 14.043 min
Base peak: 369.1247
Precursor m/z: 369.125
Precursor type: [M+H]+
m/z	relative intensity	assigned
65.0387	22	C5H5+
77.0386	1	C6H5+
79.0543	18	C6H7+
91.0542	135	C7H7+
95.0491	2	C6H7O+
105.0698	2	C8H9+
107.0491	64	C7H7O+
108.057	2	C7H8O+
109.0648	18	C7H9O+
119.0604	9	C7H7N2+
141.0698	5	C11H9+
152.0622	2	C12H8+
153.0099	4	C7H6O2P+
153.0699	13	C12H9+
154.0178	4	C7H7O2P+
165.0699	129	C13H9+
166.0777	193	C13H10+
171.0208	1	C7H8O3P+
178.0776	4	C14H10+
179.0854	18	C14H11+
180.0933	3	C14H12+
181.1011	33	C14H13+
187.0155	2	C7H8O4P+
189.0311	11	C7H10O4P+
195.0807	2	C14H11O+
196.0883	26	C14H12O+
197.0963	2	C14H13O+
199.1117	9	C14H15O+
215.0622	4	C13H12OP+
241.1012	15	C19H13+
243.057	28	C14H12O2P+
255.1167	6	C20H15+
256.1246	30	C20H16+
261.0676	134	C14H14O3P+
271.1482	2	C21H19+
275.0831	9	C15H16O3P+
277.0625	1	C14H14O4P+
279.0782	45	C14H16O4P+
333.1042	1	C21H18O2P+
351.1143	4	C21H20O3P+
369.1252	999	C21H22O4P+
