Mass spectrum: Triallate; LC-ESI-QFT; MS2; CE: 35 NCE; R=35000; [M+H]+
Name: Triallate
Name: S-(2,3,3-trichloroprop-2-enyl) N,N-di(propan-2-yl)carbamothioate
Formula: C10H16Cl3NOS
Exact mass: 303.00182
SMILES: CC(C)N(C(C)C)C(=O)SCC(Cl)=C(Cl)Cl
InChI: InChI=1S/C10H16Cl3NOS/c1-6(2)14(7(3)4)10(15)16-5-8(11)9(12)13/h6-7H,5H2,1-4H3
Instrument: Q Exactive Plus Orbitrap Thermo Scientific
Instrument type: LC-ESI-QFT
Ms type: MS2
Ion mode: POSITIVE
Ionization: ESI
Fragmentation mode: HCD
Collision energy: 35  (nominal)
Resolution: 35000
Column name: Kinetex C18 EVO 2.6 um, 2.1x50 mm, precolumn 2.1x5 mm, Phenomenex
Retention time: 13.774 min
Base peak: 384.9947
Precursor m/z: 304.0091
Precursor type: [M+H]+
m/z	relative intensity	assigned
53.0024	2	C3HO+
58.0653	11	C3H8N+
78.9404	2	CClS+
80.9561	1	CH2ClS+
82.945	69	CHCl2+
86.06	457	C4H8NO+
96.9607	7	C2H3Cl2+
104.956	4	C3H2ClS+
111.1168	2	C8H15+
118.032	5	C4H8NOS+
128.107	157	C7H14NO+
140.9326	94	C3H3Cl2S+
142.9216	665	C3H2Cl3+
160.0791	6	C7H14NOS+
176.9093	10	C3H4Cl3S+
201.9045	3	C4H3Cl3NS+
218.956	2	C6H10Cl3S+
219.9153	3	C4H5Cl3NOS+
261.9622	77	C7H11Cl3NOS+
304.0091	999	C10H17Cl3NOS+
