Mass spectrum: 4-Fluorobenzoylpropionic acid; LC-ESI-QFT; MS2; CE: 35 NCE; R=35000; [M+H]+
Name: 4-Fluorobenzoylpropionic acid
Name: 3-(4-Fluorobenzoyl)propionic acid
Name: 4-(4-fluorophenyl)-4-oxobutanoic acid
Formula: C10H9FO3
Exact mass: 196.05357
SMILES: OC(=O)CCC(=O)C1=CC=C(F)C=C1
InChI: InChI=1S/C10H9FO3/c11-8-3-1-7(2-4-8)9(12)5-6-10(13)14/h1-4H,5-6H2,(H,13,14)
Instrument: Q Exactive Plus Orbitrap Thermo Scientific
Instrument type: LC-ESI-QFT
Ms type: MS2
Ion mode: POSITIVE
Ionization: ESI
Fragmentation mode: HCD
Collision energy: 35  (nominal)
Resolution: 35000
Column name: Kinetex C18 EVO 2.6 um, 2.1x50 mm, precolumn 2.1x5 mm, Phenomenex
Retention time: 7.699 min
Base peak: 296.0696
Precursor m/z: 197.0608
Precursor type: [M+H]+
m/z	relative intensity	assigned
55.018	4	C3H3O+
57.0701	1	C4H9+
67.0543	6	C5H7+
69.0699	3	C5H9+
79.0543	3	C6H7+
81.0699	8	C6H9+
83.0492	1	C5H7O+
85.0283	1	C4H5O2+
85.0648	3	C5H9O+
91.054	2	C7H7+
93.0699	5	C7H9+
95.0293	3	C6H4F+
95.0491	3	C6H7O+
97.0648	7	C6H9O+
99.0441	1	C5H7O2+
103.0543	4	C8H7+
105.0699	4	C8H9+
109.0448	3	C7H6F+
109.0648	15	C7H9O+
111.044	3	C6H7O2+
113.0398	1	C6H6FO+
113.0597	2	C6H9O2+
115.0541	5	C9H7+
121.0449	14	C8H6F+
121.0646	1	C8H9O+
123.0241	505	C7H4FO+
133.0448	59	C9H6F+
135.0605	22	C9H8F+
137.0597	13	C8H9O2+
151.0554	337	C9H8FO+
161.0399	1	C10H6FO+
179.0503	999	C10H8FO2+
197.0603	2	C10H10FO3+
