Mass spectrum: Acetaminophen; LC-ESI-QFT; MS2; CE: 35 NCE; R=35000; [M+H]+
Name: Acetaminophen
Name: N-(4-hydroxyphenyl)acetamide
Formula: C8H9NO2
Exact mass: 151.06333
SMILES: CC(=O)Nc1ccc(O)cc1
InChI: InChI=1S/C8H9NO2/c1-6(10)9-7-2-4-8(11)5-3-7/h2-5,11H,1H3,(H,9,10)
Instrument: Q Exactive Plus Orbitrap Thermo Scientific
Instrument type: LC-ESI-QFT
Ms type: MS2
Ion mode: POSITIVE
Ionization: ESI
Fragmentation mode: HCD
Collision energy: 35  (nominal)
Resolution: 35000
Column name: Kinetex C18 EVO 2.6 um, 2.1x50 mm, precolumn 2.1x5 mm, Phenomenex
Retention time: 1.185 min
Base peak: 152.0704
Precursor m/z: 152.0706
Precursor type: [M+H]+
m/z	relative intensity	assigned
65.0386	10	C5H5+
82.0651	7	C5H8N+
92.0494	17	C6H6N+
93.0335	26	C6H5O+
109.0522	1	C6H7NO+
110.06	827	C6H8NO+
111.044	16	C6H7O2+
134.06	20	C8H8NO+
152.0705	999	C8H10NO2+
