Mass spectrum: 2-Methyl-6-phenyl-4H-pyran-4-one; LC-ESI-QFT; MS2; CE: 35 NCE; R=35000; [M+H]+
Name: 2-Methyl-6-phenyl-4H-pyran-4-one
Name: 2-methyl-6-phenylpyran-4-one
Formula: C12H10O2
Exact mass: 186.06808
SMILES: CC1=CC(=O)C=C(O1)C1=CC=CC=C1
InChI: InChI=1S/C12H10O2/c1-9-7-11(13)8-12(14-9)10-5-3-2-4-6-10/h2-8H,1H3
Instrument: Q Exactive Plus Orbitrap Thermo Scientific
Instrument type: LC-ESI-QFT
Ms type: MS2
Ion mode: POSITIVE
Ionization: ESI
Fragmentation mode: HCD
Collision energy: 35  (nominal)
Resolution: 35000
Column name: Kinetex C18 EVO 2.6 um, 2.1x50 mm, precolumn 2.1x5 mm, Phenomenex
Retention time: 9.340 min
Base peak: 187.0751
Precursor m/z: 187.0754
Precursor type: [M+H]+
m/z	relative intensity	assigned
68.9971	1	C3HO2+
85.0284	3	C4H5O2+
91.0542	3	C7H7+
103.0542	4	C8H7+
105.0335	3	C7H5O+
129.0335	1	C9H5O+
131.0854	1	C10H11+
141.0699	1	C11H9+
144.057	1	C10H8O+
187.0753	999	C12H11O2+
