Mass spectrum: Crotamiton; LC-ESI-QFT; MS2; CE: 35 NCE; R=35000; [M+H]+
Name: Crotamiton
Name: (E)-N-ethyl-N-(2-methylphenyl)but-2-enamide
Formula: C13H17NO
Exact mass: 203.13101
SMILES: CCN(C(=O)\C=C\C)c1ccccc1C
InChI: InChI=1S/C13H17NO/c1-4-8-13(15)14(5-2)12-10-7-6-9-11(12)3/h4,6-10H,5H2,1-3H3/b8-4+
Instrument: Q Exactive Plus Orbitrap Thermo Scientific
Instrument type: LC-ESI-QFT
Ms type: MS2
Ion mode: POSITIVE
Ionization: ESI
Fragmentation mode: HCD
Collision energy: 35  (nominal)
Resolution: 35000
Column name: Kinetex C18 EVO 2.6 um, 2.1x50 mm, precolumn 2.1x5 mm, Phenomenex
Retention time: 10.999 min
Base peak: 204.138
Precursor m/z: 204.1383
Precursor type: [M+H]+
m/z	relative intensity	assigned
68.0495	36	C4H6N+
69.0336	308	C4H5O+
71.0856	1	C5H11+
91.0542	8	C7H7+
96.0808	43	C6H10N+
97.0648	4	C6H9O+
105.0698	2	C8H9+
106.0651	13	C7H8N+
107.0729	5	C7H9N+
108.0808	21	C7H10N+
109.0648	2	C7H9O+
116.0495	1	C8H6N+
118.0651	1	C8H8N+
121.0886	7	C8H11N+
130.0652	1	C9H8N+
134.06	90	C8H8NO+
134.0964	16	C9H12N+
136.112	131	C9H14N+
146.0963	1	C10H12N+
148.112	1	C10H14N+
158.0964	13	C11H12N+
161.0832	1	C10H11NO+
162.0913	28	C10H12NO+
162.1278	1	C11H16N+
176.1069	5	C11H14NO+
176.1433	1	C12H18N+
186.1276	2	C13H16N+
204.1383	999	C13H18NO+
