Mass spectrum: Sulcotrione; LC-ESI-QFT; MS2; CE: 35 NCE; R=35000; [M+H]+
Name: Sulcotrione
Name: 2-(2-chloro-4-methylsulfonylbenzoyl)cyclohexane-1,3-dione
Formula: C14H13ClO5S
Exact mass: 328.01722
SMILES: CS(=O)(=O)c1ccc(C(=O)C2C(=O)CCCC2=O)c(Cl)c1
InChI: InChI=1S/C14H13ClO5S/c1-21(19,20)8-5-6-9(10(15)7-8)14(18)13-11(16)3-2-4-12(13)17/h5-7,13H,2-4H2,1H3
Instrument: Q Exactive Plus Orbitrap Thermo Scientific
Instrument type: LC-ESI-QFT
Ms type: MS2
Ion mode: POSITIVE
Ionization: ESI
Fragmentation mode: HCD
Collision energy: 35  (nominal)
Resolution: 35000
Column name: Kinetex C18 EVO 2.6 um, 2.1x50 mm, precolumn 2.1x5 mm, Phenomenex
Retention time: 9.260 min
Base peak: 252.1228
Precursor m/z: 329.0245
Precursor type: [M+H]+
m/z	relative intensity	assigned
55.018	10	C3H3O+
68.9972	461	C3HO2+
78.9848	12	CH3O2S+
83.0491	2	C5H7O+
87.0441	1	C4H7O2+
97.0284	20	C5H5O2+
98.9841	7	CH4ClO3+
111.044	575	C6H7O2+
139.0389	361	C7H7O3+
157.0495	774	C7H9O4+
159.0538	1	C3H12ClN2O3+
171.0651	65	C8H11O4+
178.9899	2	C9H4ClO2+
190.9927	21	C7H8ClO2S+
202.0623	9	C12H10O3+
214.0624	26	C13H10O3+
215.0697	4	C13H11O3+
230.0574	6	C13H10O4+
231.0648	2	C13H11O4+
240.972	11	C10H6ClO3S+
246.0524	15	C13H10O5+
249.0312	16	C13H10ClO3+
250.0388	3	C13H11ClO3+
283.0189	4	C13H12ClO3S+
293.0478	91	C14H13O5S+
311.0136	2	C14H12ClO4S+
329.0245	999	C14H14ClO5S+
