Mass spectrum: 4-Aminobenzamide; LC-ESI-QFT; MS2; CE: 35 NCE; R=35000; [M+H]+
Name: 4-Aminobenzamide
Formula: C7H8N2O
Exact mass: 136.06366
SMILES: NC(=O)c1ccc(N)cc1
InChI: InChI=1S/C7H8N2O/c8-6-3-1-5(2-4-6)7(9)10/h1-4H,8H2,(H2,9,10)
Instrument: Q Exactive Plus Orbitrap Thermo Scientific
Instrument type: LC-ESI-QFT
Ms type: MS2
Ion mode: POSITIVE
Ionization: ESI
Fragmentation mode: HCD
Collision energy: 35  (nominal)
Resolution: 35000
Column name: Kinetex C18 EVO 2.6 um, 2.1x50 mm, precolumn 2.1x5 mm, Phenomenex
Retention time: 0.544 min
Base peak: 137.0708
Precursor m/z: 137.0709
Precursor type: [M+H]+
m/z	relative intensity	assigned
65.0386	3	C5H5+
68.0495	1	C4H6N+
77.0384	1	C6H5+
81.07	1	C6H9+
92.0495	25	C6H6N+
94.0651	184	C6H8N+
95.0492	2	C6H7O+
109.0648	1	C7H9O+
110.06	3	C6H8NO+
120.0444	999	C7H6NO+
137.0709	311	C7H9N2O+
