Mass spectrum: PHIP; LC-ESI-QFT; MS2; CE: 35 NCE; R=35000; [M-H]-
Name: PHIP
Name: 1-methyl-6-phenylimidazo[4,5-b]pyridin-2-amine
Formula: C13H12N4
Exact mass: 224.10620
SMILES: Cn1c2cc(cnc2[nH]c1=N)-c1ccccc1
InChI: InChI=1S/C13H12N4/c1-17-11-7-10(9-5-3-2-4-6-9)8-15-12(11)16-13(17)14/h2-8H,1H3,(H2,14,15,16)
Instrument: Q Exactive Plus Orbitrap Thermo Scientific
Instrument type: LC-ESI-QFT
Ms type: MS2
Ion mode: NEGATIVE
Ionization: ESI
Fragmentation mode: HCD
Collision energy: 35  (nominal)
Resolution: 35000
Column name: Kinetex C18 EVO 2.6 um, 2.1x50 mm, precolumn 2.1x5 mm, Phenomenex
Retention time: 5.958 min
Base peak: 112.9847
Precursor m/z: 223.0989
Precursor type: [M-H]-
m/z	relative intensity	assigned
223.0985	999	C13H11N4-
