Mass spectrum: Triphenylphosphine oxide; LC-ESI-QFT; MS2; CE: 35 NCE; R=35000; [M+H]+
Name: Triphenylphosphine oxide
Name: Diphenylphosphorylbenzene
Formula: C18H15OP
Exact mass: 278.08605
SMILES: O=P(C1=CC=CC=C1)(C1=CC=CC=C1)C1=CC=CC=C1
InChI: InChI=1S/C18H15OP/c19-20(16-10-4-1-5-11-16,17-12-6-2-7-13-17)18-14-8-3-9-15-18/h1-15H
Instrument: Q Exactive Plus Orbitrap Thermo Scientific
Instrument type: LC-ESI-QFT
Ms type: MS2
Ion mode: POSITIVE
Ionization: ESI
Fragmentation mode: HCD
Collision energy: 35  (nominal)
Resolution: 35000
Column name: Kinetex C18 EVO 2.6 um, 2.1x50 mm, precolumn 2.1x5 mm, Phenomenex
Retention time: 11.128 min
Base peak: 279.0931
Precursor m/z: 279.0933
Precursor type: [M+H]+
m/z	relative intensity	assigned
77.039	3	C2H8NP+
95.0045	1	C5H4P+
95.0491	2	C6H7O+
122.9995	1	C6H4OP+
128.062	1	C10H8+
129.0701	1	C10H9+
141.0101	2	C6H6O2P+
154.0776	1	C12H10+
171.036	4	C11H8P+
173.0516	25	C11H10P+
183.0358	3	C12H8P+
201.0464	211	C12H10OP+
219.057	242	C12H12O2P+
233.0727	38	C13H14O2P+
278.0853	1	C18H15OP+
279.0935	999	C18H16OP+
