Mass spectrum: Diphenhydramine; LC-ESI-QFT; MS2; CE: 35 NCE; R=35000; [M+H]+
Name: Diphenhydramine
Name: 2-benzhydryloxy-N,N-dimethylethanamine
Formula: C17H21NO
Exact mass: 255.16231
SMILES: CN(C)CCOC(c1ccccc1)c1ccccc1
InChI: InChI=1S/C17H21NO/c1-18(2)13-14-19-17(15-9-5-3-6-10-15)16-11-7-4-8-12-16/h3-12,17H,13-14H2,1-2H3
Instrument: Q Exactive Plus Orbitrap Thermo Scientific
Instrument type: LC-ESI-QFT
Ms type: MS2
Ion mode: POSITIVE
Ionization: ESI
Fragmentation mode: HCD
Collision energy: 35  (nominal)
Resolution: 35000
Column name: Kinetex C18 EVO 2.6 um, 2.1x50 mm, precolumn 2.1x5 mm, Phenomenex
Retention time: 7.528 min
Base peak: 256.1692
Precursor m/z: 256.1696
Precursor type: [M+H]+
m/z	relative intensity	assigned
88.0757	2	C4H10NO+
151.054	1	C12H7+
152.062	39	C12H8+
165.0699	50	C13H9+
166.0778	17	C13H10+
167.0855	999	C13H11+
169.0649	1	C12H9O+
256.1695	3	C17H22NO+
