Mass spectrum: Efavirenz; LC-ESI-QFT; MS2; CE: 35 NCE; R=35000; [M-H]-
Name: Efavirenz
Name: (4S)-6-chloro-4-(2-cyclopropylethynyl)-4-(trifluoromethyl)-1H-3,1-benzoxazin-2-one
Formula: C14H9ClF3NO2
Exact mass: 315.02739
SMILES: FC(F)(F)[C@]1(OC(=O)NC2=C1C=C(Cl)C=C2)C#CC1CC1
InChI: InChI=1S/C14H9ClF3NO2/c15-9-3-4-11-10(7-9)13(14(16,17)18,21-12(20)19-11)6-5-8-1-2-8/h3-4,7-8H,1-2H2,(H,19,20)/t13-/m0/s1
Instrument: Q Exactive Plus Orbitrap Thermo Scientific
Instrument type: LC-ESI-QFT
Ms type: MS2
Ion mode: NEGATIVE
Ionization: ESI
Fragmentation mode: HCD
Collision energy: 35  (nominal)
Resolution: 35000
Column name: Kinetex C18 EVO 2.6 um, 2.1x50 mm, precolumn 2.1x5 mm, Phenomenex
Retention time: 12.374 min
Base peak: 314.0202
Precursor m/z: 314.0201
Precursor type: [M-H]-
m/z	relative intensity	assigned
111.0055	14	C6HF2-
126.0113	4	C9H2O-
151.9909	18	C7H3ClNO-
161.0221	19	C7H4F3O-
164.0509	3	C12H6N-
198.0116	10	C12H5ClN-
200.0273	57	C12H7ClN-
202.0064	17	C11H5ClNO-
203.9858	5	C10H3ClNO2-
206.0226	4	C11H3F3N-
208.0405	26	C13H6NO2-
210.0118	14	C13H5ClN-
214.0474	27	C13H6F2N-
215.0139	4	C12H6ClNO-
216.0223	50	C12H7ClNO-
218.0012	3	C11H5ClNO2-
221.993	41	C11H3ClF2N-
224.9721	2	C11HClF3-
226.0065	21	C13H5ClNO-
230.018	106	C13H6ClFN-
232.9865	2	C9H3ClF3NO-
241.9991	196	C11H4ClF3N-
244.0172	307	C13H7ClNO2-
245.9942	3	C10H4ClF3NO-
246.0131	6	C13H6ClFNO-
247.9738	5	C9H2ClF3NO2-
250.0242	98	C13H7ClF2N-
254.0014	14	C14H5ClNO2-
270.0299	25	C13H8ClF3N-
272.0125	3	C14H7ClNO3-
274.0074	20	C14H6ClFNO2-
294.0141	4	C14H7ClF2NO2-
296.0096	18	C14H6ClF3NO-
314.0203	999	C14H8ClF3NO2-
