Mass spectrum: Mebendazole; LC-ESI-QFT; MS2; CE: 35 NCE; R=35000; [M+H]+
Name: Mebendazole
Name: methyl N-(6-benzoyl-1H-benzimidazol-2-yl)carbamate
Formula: C16H13N3O3
Exact mass: 295.09569
SMILES: COC(=O)Nc1nc2ccc(cc2[nH]1)C(=O)c1ccccc1
InChI: InChI=1S/C16H13N3O3/c1-22-16(21)19-15-17-12-8-7-11(9-13(12)18-15)14(20)10-5-3-2-4-6-10/h2-9H,1H3,(H2,17,18,19,21)
Instrument: Q Exactive Plus Orbitrap Thermo Scientific
Instrument type: LC-ESI-QFT
Ms type: MS2
Ion mode: POSITIVE
Ionization: ESI
Fragmentation mode: HCD
Collision energy: 35  (nominal)
Resolution: 35000
Column name: Kinetex C18 EVO 2.6 um, 2.1x50 mm, precolumn 2.1x5 mm, Phenomenex
Retention time: 9.807 min
Base peak: 296.1027
Precursor m/z: 296.103
Precursor type: [M+H]+
m/z	relative intensity	assigned
53.0388	3	C4H5+
77.0386	8	C6H5+
95.0491	13	C6H7O+
105.0335	164	C7H5O+
159.0432	1	C8H5N3O+
160.0507	1	C8H6N3O+
186.0298	10	C9H4N3O2+
186.0411	1	C8H4N5O+
208.087	1	C13H10N3+
236.0816	2	C14H10N3O+
237.09	1	C14H11N3O+
264.0768	999	C15H10N3O2+
296.103	704	C16H14N3O3+
