Mass spectrum: 4`-Bromacetanilide; LC-ESI-QFT; MS2; CE: 35 NCE; R=35000; [M+H]+
Name: 4`-Bromacetanilide
Name: 4`-Bromoacetanilid
Name: N-(4-bromophenyl)acetamide
Formula: C8H8BrNO
Exact mass: 212.97893
SMILES: CC(=O)NC1=CC=C(Br)C=C1
InChI: InChI=1S/C8H8BrNO/c1-6(11)10-8-4-2-7(9)3-5-8/h2-5H,1H3,(H,10,11)
Instrument: Q Exactive Plus Orbitrap Thermo Scientific
Instrument type: LC-ESI-QFT
Ms type: MS2
Ion mode: POSITIVE
Ionization: ESI
Fragmentation mode: HCD
Collision energy: 35  (nominal)
Resolution: 35000
Column name: Kinetex C18 EVO 2.6 um, 2.1x50 mm, precolumn 2.1x5 mm, Phenomenex
Retention time: 8.693 min
Base peak: 213.986
Precursor m/z: 213.9862
Precursor type: [M+H]+
m/z	relative intensity	assigned
66.0465	1	C5H6+
92.0494	2	C6H6N+
93.0573	999	C6H7N+
94.0413	1	C6H6O+
135.0678	61	C8H9NO+
171.9756	400	C6H7BrN+
172.96	2	C6H6BrO+
195.9756	3	C8H7BrN+
213.9861	889	C8H9BrNO+
