Mass spectrum: 2-Morpholinothiobenzothiazole; LC-ESI-QFT; MS2; CE: 35 NCE; R=35000; [M+H]+
Name: 2-Morpholinothiobenzothiazole
Name: 2-(Morpholinothio)benzothiazole
Name: 4-(1,3-benzothiazol-2-ylsulfanyl)morpholine
Formula: C11H12N2OS2
Exact mass: 252.03911
SMILES: C1CN(CCO1)SC1=NC2=CC=CC=C2S1
InChI: InChI=1S/C11H12N2OS2/c1-2-4-10-9(3-1)12-11(15-10)16-13-5-7-14-8-6-13/h1-4H,5-8H2
Instrument: Q Exactive Plus Orbitrap Thermo Scientific
Instrument type: LC-ESI-QFT
Ms type: MS2
Ion mode: POSITIVE
Ionization: ESI
Fragmentation mode: HCD
Collision energy: 35  (nominal)
Resolution: 35000
Column name: Kinetex C18 EVO 2.6 um, 2.1x50 mm, precolumn 2.1x5 mm, Phenomenex
Retention time: 11.242 min
Base peak: 194.1173
Precursor m/z: 253.0464
Precursor type: [M+H]+
m/z	relative intensity	assigned
56.0497	149	C3H6N+
57.0575	69	C3H7N+
58.0653	31	C3H8N+
68.0496	2	C4H6N+
72.0445	3	C3H6NO+
86.0601	734	C4H8NO+
87.0679	289	C4H9NO+
118.0322	10	C4H8NOS+
136.0216	34	C7H6NS+
148.0214	3	C8H6NS+
162.0373	2	C9H8NS+
163.0327	2	C8H7N2S+
163.0453	3	C9H9NS+
165.9781	48	C7H4NS2+
166.9859	12	C7H5NS2+
167.9937	59	C7H6NS2+
175.0325	1	C9H7N2S+
176.0406	1	C9H8N2S+
182.0091	1	C8H8NS2+
192.0353	1	C9H8N2OS+
198.0043	4	C8H8NOS2+
205.0432	2	C10H9N2OS+
219.0592	1	C11H11N2OS+
220.0666	72	C11H12N2OS+
253.0465	999	C11H13N2OS2+
