Mass spectrum: 3-Iodopropynyl butylcarbamate; LC-ESI-QFT; MS2; CE: 35 NCE; R=35000; [M+H]+
Name: 3-Iodopropynyl butylcarbamate
Name: 3-iodoprop-1-ynyl N-butylcarbamate
Formula: C8H12INO2
Exact mass: 280.99128
SMILES: CCCCNC(=O)OC#CCI
InChI: InChI=1S/C8H12INO2/c1-2-3-6-10-8(11)12-7-4-5-9/h2-3,5-6H2,1H3,(H,10,11)
Instrument: Q Exactive Plus Orbitrap Thermo Scientific
Instrument type: LC-ESI-QFT
Ms type: MS2
Ion mode: POSITIVE
Ionization: ESI
Fragmentation mode: HCD
Collision energy: 35  (nominal)
Resolution: 35000
Column name: Kinetex C18 EVO 2.6 um, 2.1x50 mm, precolumn 2.1x5 mm, Phenomenex
Retention time: 10.162 min
Base peak: 192.1381
Precursor m/z: 281.9986
Precursor type: [M+H]+
m/z	relative intensity	assigned
55.0181	24	C3H3O+
57.0701	256	C4H9+
68.0497	2	C4H6N+
74.0237	4	C2H4NO2+
86.0965	7	C5H12N+
88.0393	2	C3H6NO2+
96.0808	2	C6H10N+
100.0758	5	C5H10NO+
116.0708	3	C5H10NO2+
126.9037	2	I+
155.0942	11	C8H13NO2+
164.9198	999	C3H2I+
166.9353	3	C3H4I+
181.9465	2	C3H5IN+
182.9301	2	C3H4IO+
238.0091	1	C7H13IN+
281.999	23	C8H13INO2+
