Mass spectrum: Clozapine; LC-ESI-QFT; MS2; CE: 35 NCE; R=35000; [M+H]+
Name: Clozapine
Name: 3-chloro-6-(4-methylpiperazin-1-yl)-5H-benzo[b][1,4]benzodiazepine
Formula: C18H19ClN4
Exact mass: 326.12982
SMILES: CN1CCN(CC1)C2=NC3=C(C=CC(=C3)Cl)NC4=CC=CC=C42
InChI: InChI=1S/C18H19ClN4/c1-22-8-10-23(11-9-22)18-14-4-2-3-5-15(14)20-16-7-6-13(19)12-17(16)21-18/h2-7,12,20H,8-11H2,1H3
Instrument: Q Exactive Plus Orbitrap Thermo Scientific
Instrument type: LC-ESI-QFT
Ms type: MS2
Ion mode: POSITIVE
Ionization: ESI
Fragmentation mode: HCD
Collision energy: 35  (nominal)
Resolution: 35000
Column name: Kinetex C18 EVO 2.6 um, 2.1x50 mm, precolumn 2.1x5 mm, Phenomenex
Retention time: 7.037 min
Base peak: 327.1368
Precursor m/z: 327.1371
Precursor type: [M+H]+
m/z	relative intensity	assigned
58.0653	9	C3H8N+
82.0651	1	C5H8N+
84.0808	155	C5H10N+
85.076	8	C4H9N2+
99.0917	1	C5H11N2+
191.0603	1	C13H7N2+
192.0681	124	C13H8N2+
200.0261	1	C12H7ClN+
206.0839	2	C14H10N2+
218.0837	2	C15H10N2+
220.0871	2	C14H10N3+
226.0292	4	C13H7ClN2+
227.0371	96	C13H8ClN2+
228.045	4	C13H9ClN2+
229.0528	6	C13H10ClN2+
234.1027	3	C15H12N3+
235.1104	7	C15H13N3+
241.053	2	C14H10ClN2+
243.0686	2	C14H12ClN2+
244.0637	2	C13H11ClN3+
246.1031	1	C16H12N3+
253.0527	9	C15H10ClN2+
254.0607	1	C15H11ClN2+
255.0559	7	C14H10ClN3+
268.0631	3	C15H11ClN3+
270.0793	999	C15H13ClN3+
281.0716	2	C16H12ClN3+
296.0951	84	C17H15ClN3+
327.1372	923	C18H20ClN4+
