Mass spectrum: Azinphos methyl; LC-ESI-QFT; MS2; CE: 35 NCE; R=35000; [M+H]+
Name: Azinphos methyl
Name: Azinphos-methyl
Name: 3-(dimethoxyphosphinothioylsulfanylmethyl)-1,2,3-benzotriazin-4-one
Formula: C10H12N3O3PS2
Exact mass: 317.00577
SMILES: COP(=S)(OC)SCN1N=Nc2ccccc2C1=O
InChI: InChI=1S/C10H12N3O3PS2/c1-15-17(18,16-2)19-7-13-10(14)8-5-3-4-6-9(8)11-12-13/h3-6H,7H2,1-2H3
Instrument: Q Exactive Plus Orbitrap Thermo Scientific
Instrument type: LC-ESI-QFT
Ms type: MS2
Ion mode: POSITIVE
Ionization: ESI
Fragmentation mode: HCD
Collision energy: 35  (nominal)
Resolution: 35000
Column name: Kinetex C18 EVO 2.6 um, 2.1x50 mm, precolumn 2.1x5 mm, Phenomenex
Retention time: 10.778 min
Base peak: 318.0129
Precursor m/z: 318.013
Precursor type: [M+H]+
m/z	relative intensity	assigned
51.0233	8	H6NP+
53.0388	50	H8NP+
62.0187	15	C2H6S+
62.9996	2	CH4OP+
77.0386	81	C6H5+
78.034	2	CH7N2P+
78.9944	125	CH4O2P+
81.0336	4	C5H5O+
93.01	21	C2H6O2P+
94.0414	11	C6H6O+
95.0492	161	C6H7O+
104.0495	202	C7H6N+
105.0335	172	C7H5O+
105.0448	54	C6H5N2+
109.0651	2	C3H12NOP+
120.0446	18	C3H9N2OP+
124.9821	227	C2H6O2PS+
130.0401	31	C7H4N3+
132.0444	673	C8H6NO+
135.0441	17	C8H7O2+
137.0056	11	C7H5OS+
142.9927	999	C2H8O3PS+
148.0215	17	C8H6NS+
150.0551	70	C8H8NO2+
151.9927	10	C7H4O2S+
154.0087	2	C3H9NO2PS+
157.0084	88	C3H10O3PS+
160.0507	125	C8H6N3O+
164.0705	20	C9H10NO2+
167.0162	164	C8H7O2S+
167.9698	9	C7H4OS2+
170.9698	100	C3H8O2PS2+
182.9934	47	C8H7OS2+
260.9805	247	C9H10O3PS2+
