Mass spectrum: Diazinone; LC-ESI-QFT; MS2; CE: 35 NCE; R=35000; [M+H]+
Name: Diazinone
Name: diethoxy-(6-methyl-2-propan-2-ylpyrimidin-4-yl)oxy-sulfanylidene-$l^{5}-phosphane
Formula: C12H21N2O3PS
Exact mass: 304.10105
SMILES: CCOP(=S)(OCC)OC1=CC(C)=NC(=N1)C(C)C
InChI: InChI=1S/C12H21N2O3PS/c1-6-15-18(19,16-7-2)17-11-8-10(5)13-12(14-11)9(3)4/h8-9H,6-7H2,1-5H3
Instrument: Q Exactive Plus Orbitrap Thermo Scientific
Instrument type: LC-ESI-QFT
Ms type: MS2
Ion mode: POSITIVE
Ionization: ESI
Fragmentation mode: HCD
Collision energy: 35  (nominal)
Resolution: 35000
Column name: Kinetex C18 EVO 2.6 um, 2.1x50 mm, precolumn 2.1x5 mm, Phenomenex
Retention time: 12.528 min
Base peak: 305.108
Precursor m/z: 305.1083
Precursor type: [M+H]+
m/z	relative intensity	assigned
70.0652	9	C4H8N+
84.0444	27	C4H6NO+
96.9508	35	H2O2PS+
98.0965	1	C6H12N+
98.9842	5	H4O4P+
100.0216	36	C4H6NS+
109.0049	10	C2H6O3P+
110.9664	4	CH4O2PS+
112.9999	1	CH6O4P+
114.9614	168	H4O3PS+
124.982	5	C2H6O2PS+
128.977	9	CH6O3PS+
142.9929	2	C2H8O3PS+
153.1023	424	C8H13N2O+
168.0722	2	C8H12N2S+
169.0794	762	C8H13N2S+
171.024	5	C4H12O3PS+
181.1336	14	C10H17N2O+
197.1107	3	C10H17N2S+
231.0354	2	C8H12N2O2PS+
249.0458	4	C8H14N2O3PS+
277.0772	6	C10H18N2O3PS+
305.1085	999	C12H22N2O3PS+
