Mass spectrum: Risperidone; LC-ESI-QFT; MS2; CE: 35 NCE; R=35000; [M+H]+
Name: Risperidone
Name: 3-[2-[4-(6-fluoro-1,2-benzoxazol-3-yl)piperidin-1-yl]ethyl]-2-methyl-6,7,8,9-tetrahydropyrido[1,2-a]pyrimidin-4-one
Formula: C23H27FN4O2
Exact mass: 410.21180
SMILES: CC1=C(CCN2CCC(CC2)c2noc3cc(F)ccc23)C(=O)N2CCCCC2=N1
InChI: InChI=1S/C23H27FN4O2/c1-15-18(23(29)28-10-3-2-4-21(28)25-15)9-13-27-11-7-16(8-12-27)22-19-6-5-17(24)14-20(19)30-26-22/h5-6,14,16H,2-4,7-13H2,1H3
Instrument: Q Exactive Plus Orbitrap Thermo Scientific
Instrument type: LC-ESI-QFT
Ms type: MS2
Ion mode: POSITIVE
Ionization: ESI
Fragmentation mode: HCD
Collision energy: 35  (nominal)
Resolution: 35000
Column name: Kinetex C18 EVO 2.6 um, 2.1x50 mm, precolumn 2.1x5 mm, Phenomenex
Retention time: 7.132 min
Base peak: 411.2188
Precursor m/z: 411.2191
Precursor type: [M+H]+
m/z	relative intensity	assigned
67.0543	1	C5H7+
69.0335	7	C4H5O+
82.0651	7	C5H8N+
107.0728	1	C2H8FN4+
110.06	19	C6H8NO+
148.112	3	C5H13FN4+
150.0788	1	C8H10N2O+
163.0867	3	C9H11N2O+
163.1229	5	C10H15N2+
191.1178	999	C11H15N2O+
411.2191	455	C23H28FN4O2+
