Mass spectrum: Ondansetron; LC-ESI-QFT; MS2; CE: 35 NCE; R=35000; [M+H]+
Name: Ondansetron
Formula: C18H19N3O
Exact mass: 293.15281
SMILES: CN1C2=C(C3=C1C=CC=C3)C(=O)C(CN1C=CN=C1C)CC2
InChI: InChI=1S/C18H19N3O/c1-12-19-9-10-21(12)11-13-7-8-16-17(18(13)22)14-5-3-4-6-15(14)20(16)2/h3-6,9-10,13H,7-8,11H2,1-2H3
Instrument: Q Exactive Plus Orbitrap Thermo Scientific
Instrument type: LC-ESI-QFT
Ms type: MS2
Ion mode: POSITIVE
Ionization: ESI
Fragmentation mode: HCD
Collision energy: 35  (nominal)
Resolution: 35000
Column name: Kinetex C18 EVO 2.6 um, 2.1x50 mm, precolumn 2.1x5 mm, Phenomenex
Retention time: 6.277 min
Base peak: 294.1598
Precursor m/z: 294.1601
Precursor type: [M+H]+
m/z	relative intensity	assigned
83.0604	7	C4H7N2+
143.0729	2	C10H9N+
143.0856	3	C11H11+
154.065	1	C11H8N+
155.0731	1	C11H9N+
167.073	7	C12H9N+
168.0808	3	C12H10N+
169.0886	21	C12H11N+
170.0964	544	C12H12N+
171.0676	6	C11H9NO+
182.0965	27	C13H12N+
183.1041	1	C13H13N+
184.1121	369	C13H14N+
212.1069	157	C14H14NO+
294.16	999	C18H20N3O+
