Mass spectrum: Picolinafen; LC-ESI-QFT; MS2; CE: 35 NCE; R=35000; [M+H]+
Name: Picolinafen
Name: N-(4-fluorophenyl)-6-[3-(trifluoromethyl)phenoxy]pyridine-2-carboxamide
Formula: C19H12F4N2O2
Exact mass: 376.08349
SMILES: FC1=CC=C(NC(=O)C2=NC(OC3=CC=CC(=C3)C(F)(F)F)=CC=C2)C=C1
InChI: InChI=1S/C19H12F4N2O2/c20-13-7-9-14(10-8-13)24-18(26)16-5-2-6-17(25-16)27-15-4-1-3-12(11-15)19(21,22)23/h1-11H,(H,24,26)
Instrument: Q Exactive Plus Orbitrap Thermo Scientific
Instrument type: LC-ESI-QFT
Ms type: MS2
Ion mode: POSITIVE
Ionization: ESI
Fragmentation mode: HCD
Collision energy: 35  (nominal)
Resolution: 35000
Column name: Kinetex C18 EVO 2.6 um, 2.1x50 mm, precolumn 2.1x5 mm, Phenomenex
Retention time: 13.647 min
Base peak: 377.0907
Precursor m/z: 377.0908
Precursor type: [M+H]+
m/z	relative intensity	assigned
53.0024	2	C3HO+
73.0084	7	C3H2FO+
101.0197	1	C5H3F2+
113.0397	3	C6H6FO+
123.0353	4	C6H4FN2+
141.0574	1	C10H7N+
143.0304	1	C7H5F2O+
145.0259	27	C7H4F3+
163.0365	6	C7H6F3O+
173.0322	28	C7H4F3N2+
183.0416	14	C10H6F3+
188.0507	3	C11H7FNO+
190.0463	32	C11H6F2N+
196.038	1	C7H6F4NO+
210.0525	37	C11H7F3N+
218.0412	11	C12H6F2NO+
236.0518	35	C12H8F2NO2+
238.0474	716	C12H7F3NO+
243.0566	1	C13H8FN2O2+
256.058	999	C12H9F3NO2+
257.0641	3	C15H9F2NO+
270.0736	30	C13H11F3NO2+
284.053	105	C16H8F2NO2+
289.077	8	C18H10FN2O+
298.0688	3	C17H10F2NO2+
309.0834	10	C18H11F2N2O+
329.09	6	C18H12F3N2O+
337.0785	33	C19H11F2N2O2+
357.0846	26	C19H12F3N2O2+
359.0803	452	C19H11F4N2O+
377.0909	883	C19H13F4N2O2+
