Mass spectrum: Capecitabine; LC-ESI-QFT; MS2; CE: 35 NCE; R=35000; [M-H]-
Name: Capecitabine
Name: pentyl N-[1-[(2R,3R,4S,5R)-3,4-dihydroxy-5-methyloxolan-2-yl]-5-fluoro-2-oxopyrimidin-4-yl]carbamate
Formula: C15H22FN3O6
Exact mass: 359.14926
SMILES: CCCCCOC(=O)NC1=NC(=O)N(C=C1F)[C@@H]1O[C@H](C)[C@@H](O)[C@H]1O
InChI: InChI=1S/C15H22FN3O6/c1-3-4-5-6-24-15(23)18-12-9(16)7-19(14(22)17-12)13-11(21)10(20)8(2)25-13/h7-8,10-11,13,20-21H,3-6H2,1-2H3,(H,17,18,22,23)/t8-,10-,11-,13-/m1/s1
Instrument: Q Exactive Plus Orbitrap Thermo Scientific
Instrument type: LC-ESI-QFT
Ms type: MS2
Ion mode: NEGATIVE
Ionization: ESI
Fragmentation mode: HCD
Collision energy: 35  (nominal)
Resolution: 35000
Column name: Kinetex C18 EVO 2.6 um, 2.1x50 mm, precolumn 2.1x5 mm, Phenomenex
Retention time: 9.634 min
Base peak: 358.1418
Precursor m/z: 358.142
Precursor type: [M-H]-
m/z	relative intensity	assigned
85.0643	2	C3H7N3-
106.0161	4	C3N5-
107.024	10	C3HN5-
113.0146	2	C7HN2-
125.0152	24	C5H2FN2O-
127.0308	1	C5H4FN2O-
129.0103	9	C4H2FN2O2-
133.0044	1	C6HN2O2-
135.02	1	C6H3N2O2-
136.0151	1	C5H2N3O2-
148.0151	1	C6H2N3O2-
150.0069	3	C6H2N2O3-
153.0105	74	C6H2FN2O2-
154.0058	525	C5HFN3O2-
155.0826	15	C7H11N2O2-
164.0095	1	C6H2N3O3-
168.0216	1	C11H4O2-
176.0101	3	C7H2N3O3-
196.0163	5	C7H3FN3O3-
199.0887	19	C9H12FN2O2-
221.0932	10	C11H13N2O3-
242.0946	19	C10H13FN3O3-
284.105	14	C12H15FN3O4-
358.142	999	C15H21FN3O6-
