Mass spectrum: Chlorfenvinphos; LC-ESI-QFT; MS2; CE: 35 NCE; R=35000; [M+H]+
Name: Chlorfenvinphos
Name: [(Z)-2-chloro-1-(2,4-dichlorophenyl)ethenyl] diethyl phosphate
Formula: C12H14Cl3O4P
Exact mass: 357.96953
SMILES: CCOP(=O)(OCC)O\C(=C/Cl)c1ccc(Cl)cc1Cl
InChI: InChI=1S/C12H14Cl3O4P/c1-3-17-20(16,18-4-2)19-12(8-13)10-6-5-9(14)7-11(10)15/h5-8H,3-4H2,1-2H3/b12-8-
Instrument: Q Exactive Plus Orbitrap Thermo Scientific
Instrument type: LC-ESI-QFT
Ms type: MS2
Ion mode: POSITIVE
Ionization: ESI
Fragmentation mode: HCD
Collision energy: 35  (nominal)
Resolution: 35000
Column name: Kinetex C18 EVO 2.6 um, 2.1x50 mm, precolumn 2.1x5 mm, Phenomenex
Retention time: 12.636 min
Base peak: 358.9767
Precursor m/z: 358.9768
Precursor type: [M+H]+
m/z	relative intensity	assigned
80.9737	2	CH2ClO2+
98.9842	999	H4O4P+
109.0048	7	C2H6O3P+
116.9946	3	CH6ClO4+
127.0155	458	C2H8O4P+
131.0104	3	C2H8ClO4+
155.0467	758	C4H12O4P+
168.9606	7	C8H3Cl2+
169.9684	389	C8H4Cl2+
196.9667	1	Cl3H13O3P+
200.9863	1	C8H7ClO2P+
204.9373	453	C8H4Cl3+
236.9634	1	C8H8Cl2O2P+
330.9455	34	C10H11Cl3O4P+
358.9769	163	C12H15Cl3O4P+
