Mass spectrum: Valsartan; LC-ESI-QFT; MS2; CE: 35 NCE; R=35000; [M-H]-
Name: Valsartan
Name: (2S)-3-methyl-2-[pentanoyl-[[4-[2-(2H-tetrazol-5-yl)phenyl]phenyl]methyl]amino]butanoic acid
Formula: C24H29N5O3
Exact mass: 435.22704
SMILES: CCCCC(=O)N(CC1=CC=C(C=C1)C1=CC=CC=C1C1=NNN=N1)[C@@H](C(C)C)C(O)=O
InChI: InChI=1S/C24H29N5O3/c1-4-5-10-21(30)29(22(16(2)3)24(31)32)15-17-11-13-18(14-12-17)19-8-6-7-9-20(19)23-25-27-28-26-23/h6-9,11-14,16,22H,4-5,10,15H2,1-3H3,(H,31,32)(H,25,26,27,28)/t22-/m0/s1
Instrument: Q Exactive Plus Orbitrap Thermo Scientific
Instrument type: LC-ESI-QFT
Ms type: MS2
Ion mode: NEGATIVE
Ionization: ESI
Fragmentation mode: HCD
Collision energy: 35  (nominal)
Resolution: 35000
Column name: Kinetex C18 EVO 2.6 um, 2.1x50 mm, precolumn 2.1x5 mm, Phenomenex
Retention time: 11.928 min
Base peak: 434.2196
Precursor m/z: 434.2198
Precursor type: [M-H]-
m/z	relative intensity	assigned
83.0485	2	C3H5N3-
99.0802	6	C4H9N3-
100.0755	23	C3H8N4-
101.0596	31	C3H7N3O-
114.0915	6	C4H10N4-
116.0709	214	C3H8N4O-
125.0967	15	C8H13O-
141.1284	38	C9H17O-
154.1237	1	C9H16NO-
156.1394	74	C9H18NO-
164.0632	19	C13H8-
165.0712	9	C13H9-
167.0503	7	C12H7O-
178.0787	81	C14H10-
179.0866	604	C14H11-
180.0579	7	C13H8O-
181.0659	5	C13H9O-
190.0664	1	C14H8N-
192.0583	16	C14H8O-
192.0819	119	C14H10N-
193.0659	27	C14H9O-
194.0977	4	C14H12N-
195.045	7	C13H7O2-
195.0813	2	C14H11O-
200.1292	5	C10H18NO3-
204.0823	10	C15H10N-
205.1022	6	C16H13-
206.0847	14	C14H10N2-
207.0927	26	C14H11N2-
209.0613	2	C14H9O2-
210.0689	2	C14H10O2-
221.134	1	C17H17-
222.1039	2	C14H12N3-
223.0763	5	C15H11O2-
234.0914	7	C14H10N4-
234.1283	1	C17H16N-
235.0989	59	C14H11N4-
248.1443	13	C18H18N-
250.1098	5	C14H12N5-
276.1507	65	C18H18N3-
278.1548	5	C19H20NO-
294.1507	8	C19H20NO2-
304.1568	61	C18H18N5-
307.1451	44	C19H19N2O2-
316.206	2	C23H26N-
332.2019	20	C23H26NO-
334.1679	1	C19H20N5O-
334.2179	2	C23H28NO-
350.1621	197	C19H20N5O2-
362.2237	5	C23H28N3O-
390.2298	5	C23H28N5O-
391.2031	39	C24H27N2O3-
406.2137	5	C24H28N3O3-
416.2092	2	C24H26N5O2-
434.2197	999	C24H28N5O3-
