Mass spectrum: 2-Methylbenzothiazole; LC-ESI-QFT; MS2; CE: 35 NCE; R=35000; [M+H]+
Name: 2-Methylbenzothiazole
Name: 2-methyl-1,3-benzothiazole
Formula: C8H7NS
Exact mass: 149.02992
SMILES: CC1=NC2=CC=CC=C2S1
InChI: InChI=1S/C8H7NS/c1-6-9-7-4-2-3-5-8(7)10-6/h2-5H,1H3
Instrument: Q Exactive Plus Orbitrap Thermo Scientific
Instrument type: LC-ESI-QFT
Ms type: MS2
Ion mode: POSITIVE
Ionization: ESI
Fragmentation mode: HCD
Collision energy: 35  (nominal)
Resolution: 35000
Column name: Kinetex C18 EVO 2.6 um, 2.1x50 mm, precolumn 2.1x5 mm, Phenomenex
Retention time: 9.295 min
Base peak: 221.074
Precursor m/z: 150.0372
Precursor type: [M+H]+
m/z	relative intensity	assigned
59.0493	13	C3H7O+
65.0387	5	C5H5+
92.0496	17	C6H6N+
105.0336	12	C7H5O+
107.0494	4	C7H7O+
109.0108	40	C6H5S+
110.0601	45	C6H8NO+
117.0573	16	C8H7N+
120.0445	160	C7H6NO+
124.0217	13	C6H6NS+
134.0061	4	C7H4NS+
134.0599	3	C8H8NO+
152.0167	999	C7H6NOS+
