Mass spectrum: Melamine; LC-ESI-QFT; MS2; CE: 35 NCE; R=35000; [M+H]+
Name: Melamine
Name: 1,3,5-triazine-2,4,6-triamine
Formula: C3H6N6
Exact mass: 126.06539
SMILES: Nc1nc(N)nc(N)n1
InChI: InChI=1S/C3H6N6/c4-1-7-2(5)9-3(6)8-1/h(H6,4,5,6,7,8,9)
Instrument: Q Exactive Plus Orbitrap Thermo Scientific
Instrument type: LC-ESI-QFT
Ms type: MS2
Ion mode: POSITIVE
Ionization: ESI
Fragmentation mode: HCD
Collision energy: 35  (nominal)
Resolution: 35000
Column name: Kinetex C18 EVO 2.6 um, 2.1x50 mm, precolumn 2.1x5 mm, Phenomenex
Retention time: 0.412 min
Base peak: 114.1276
Precursor m/z: 127.0727
Precursor type: [M+H]+
m/z	relative intensity	assigned
60.0558	8	CH6N3+
68.0244	6	C2H2N3+
85.0509	154	C2H5N4+
110.0461	6	C3H4N5+
127.0726	999	C3H7N6+
