Mass spectrum: 2-Methylnaphtho(1,2-d)thiazole; LC-ESI-QFT; MS2; CE: 35 NCE; R=35000; [M+H]+
Name: 2-Methylnaphtho(1,2-d)thiazole
Name: 2-Methylnaphtho[1,2-d]thiazole
Name: 2-methylbenzo[e][1,3]benzothiazole
Formula: C12H9NS
Exact mass: 199.04557
SMILES: CC1=NC2=C(S1)C=CC1=CC=CC=C21
InChI: InChI=1S/C12H9NS/c1-8-13-12-10-5-3-2-4-9(10)6-7-11(12)14-8/h2-7H,1H3
Instrument: Q Exactive Plus Orbitrap Thermo Scientific
Instrument type: LC-ESI-QFT
Ms type: MS2
Ion mode: POSITIVE
Ionization: ESI
Fragmentation mode: HCD
Collision energy: 35  (nominal)
Resolution: 35000
Column name: Kinetex C18 EVO 2.6 um, 2.1x50 mm, precolumn 2.1x5 mm, Phenomenex
Retention time: 11.723 min
Base peak: 200.0526
Precursor m/z: 200.0528
Precursor type: [M+H]+
m/z	relative intensity	assigned
115.0542	34	C9H7+
159.0263	188	C10H7S+
167.0725	1	C12H9N+
168.0807	1	C12H10N+
185.0295	1	C11H7NS+
199.045	1	C12H9NS+
200.0528	999	C12H10NS+
