Mass spectrum: Norgestrel; LC-ESI-QFT; MS2; CE: 35 NCE; R=35000; [M+H]+
Name: Norgestrel
Name: 13-ethyl-17-ethynyl-17-hydroxy-1,2,6,7,8,9,10,11,12,14,15,16-dodecahydrocyclopenta[a]phenanthren-3-one
Formula: C21H28O2
Exact mass: 312.20893
SMILES: CCC12CCC3C(CCC4=CC(=O)CCC34)C1CCC2(O)C#C
InChI: InChI=1S/C21H28O2/c1-3-20-11-9-17-16-8-6-15(22)13-14(16)5-7-18(17)19(20)10-12-21(20,23)4-2/h2,13,16-19,23H,3,5-12H2,1H3
Instrument: Q Exactive Plus Orbitrap Thermo Scientific
Instrument type: LC-ESI-QFT
Ms type: MS2
Ion mode: POSITIVE
Ionization: ESI
Fragmentation mode: HCD
Collision energy: 35  (nominal)
Resolution: 35000
Column name: Kinetex C18 EVO 2.6 um, 2.1x50 mm, precolumn 2.1x5 mm, Phenomenex
Retention time: 11.804 min
Base peak: 313.2158
Precursor m/z: 313.2162
Precursor type: [M+H]+
m/z	relative intensity	assigned
53.0388	3	C4H5+
55.0544	10	C4H7+
57.0337	5	C3H5O+
57.0701	2	C4H9+
65.0387	1	C5H5+
67.0543	46	C5H7+
69.0336	1	C4H5O+
69.07	14	C5H9+
71.0493	1	C4H7O+
77.0387	1	C6H5+
79.0542	59	C6H7+
81.0336	5	C5H5O+
81.0699	70	C6H9+
83.0491	95	C5H7O+
91.0542	99	C7H7+
93.0699	69	C7H9+
95.0491	13	C6H7O+
95.0855	56	C7H11+
97.0648	12	C6H9O+
97.1012	1	C7H13+
103.0542	5	C8H7+
105.0699	92	C8H9+
107.0491	55	C7H7O+
107.0855	53	C8H11+
109.0648	241	C7H9O+
109.1011	24	C8H13+
111.0805	3	C7H11O+
115.0542	6	C9H7+
116.0622	4	C9H8+
117.0699	55	C9H9+
119.0855	68	C9H11+
121.0648	18	C8H9O+
121.1012	27	C9H13+
123.0804	42	C8H11O+
123.1168	28	C9H15+
125.096	14	C8H13O+
128.0619	11	C10H8+
129.0699	48	C10H9+
130.0777	7	C10H10+
131.0855	85	C10H11+
133.0648	14	C9H9O+
133.1012	82	C10H13+
135.0804	71	C9H11O+
135.1168	22	C10H15+
137.096	7	C9H13O+
137.1325	6	C10H17+
141.0698	15	C11H9+
142.0777	8	C11H10+
143.0855	55	C11H11+
144.0571	1	C10H8O+
144.0933	4	C11H12+
145.0649	5	C10H9O+
145.1012	66	C11H13+
147.0804	20	C10H11O+
147.1168	29	C11H15+
148.0882	1	C10H12O+
149.0961	45	C10H13O+
149.1324	8	C11H17+
151.1116	6	C10H15O+
153.07	4	C12H9+
154.0777	1	C12H10+
155.0855	21	C12H11+
156.0935	4	C12H12+
157.065	4	C11H9O+
157.1012	62	C12H13+
158.1089	3	C12H14+
159.0804	16	C11H11O+
159.1168	55	C12H15+
161.0961	31	C11H13O+
161.1324	11	C12H17+
163.1117	21	C11H15O+
163.1482	3	C12H19+
165.07	4	C13H9+
165.1276	1	C11H17O+
166.0777	1	C13H10+
167.0855	12	C13H11+
168.0931	5	C13H12+
169.1012	24	C13H13+
170.1089	4	C13H14+
171.0804	3	C12H11O+
171.1168	40	C13H15+
173.096	8	C12H13O+
173.1325	21	C13H17+
175.1118	22	C12H15O+
175.1481	14	C13H19+
177.1274	3	C12H17O+
178.0785	1	C14H10+
179.0854	6	C14H11+
180.0931	1	C14H12+
181.101	18	C14H13+
182.1092	3	C14H14+
183.1169	32	C14H15+
184.1249	1	C14H16+
185.0961	9	C13H13O+
185.1325	50	C14H17+
187.1118	13	C13H15O+
187.1481	25	C14H19+
188.1195	4	C13H16O+
189.1274	15	C13H17O+
191.1427	2	C13H19O+
193.1012	10	C15H13+
194.109	1	C15H14+
195.1169	19	C15H15+
196.1247	1	C15H16+
197.0961	2	C14H13O+
197.1326	20	C15H17+
198.1402	1	C15H18+
199.1116	8	C14H15O+
199.1482	23	C15H19+
201.1272	9	C14H17O+
201.164	5	C15H21+
203.1431	6	C14H19O+
205.1015	1	C16H13+
206.1093	4	C16H14+
207.1167	13	C16H15+
208.1247	3	C16H16+
209.1323	11	C16H17+
210.1403	1	C16H18+
211.1118	5	C15H15O+
211.1483	10	C16H19+
213.1272	7	C15H17O+
213.1636	4	C16H21+
215.143	6	C15H19O+
215.1793	3	C16H23+
217.1587	1	C15H21O+
219.1164	3	C17H15+
220.1248	3	C17H16+
221.1324	14	C17H17+
222.14	1	C17H18+
223.1488	6	C17H19+
225.1269	6	C16H17O+
225.1638	18	C17H21+
227.1429	4	C16H19O+
227.1794	37	C17H23+
229.1584	1	C16H21O+
233.1325	3	C18H17+
234.1402	1	C18H18+
235.1481	13	C18H19+
236.1554	1	C18H20+
237.1638	23	C18H21+
238.1355	1	C17H18O+
239.1434	6	C17H19O+
239.1796	4	C18H23+
241.1587	5	C17H21O+
243.1744	5	C17H23O+
245.19	127	C17H25O+
247.1481	1	C19H19+
248.1559	5	C19H20+
249.1639	9	C19H21+
251.1798	5	C19H23+
253.1586	4	C18H21O+
253.1954	5	C19H25+
255.1745	4	C18H23O+
266.1664	6	C19H22O+
267.1745	8	C19H23O+
267.2104	1	C20H27+
277.1952	18	C21H25+
284.177	1	C19H24O2+
295.2058	48	C21H27O+
313.2162	999	C21H29O2+
