Mass spectrum: Diclofenac; LC-ESI-QFT; MS2; CE: 35 NCE; R=35000; [M+H]+
Name: Diclofenac
Name: 2-[2-(2,6-dichloroanilino)phenyl]acetic acid
Formula: C14H11Cl2NO2
Exact mass: 295.01668
SMILES: OC(=O)Cc1ccccc1Nc1c(Cl)cccc1Cl
InChI: InChI=1S/C14H11Cl2NO2/c15-10-5-3-6-11(16)14(10)17-12-7-2-1-4-9(12)8-13(18)19/h1-7,17H,8H2,(H,18,19)
Instrument: Q Exactive Plus Orbitrap Thermo Scientific
Instrument type: LC-ESI-QFT
Ms type: MS2
Ion mode: POSITIVE
Ionization: ESI
Fragmentation mode: HCD
Collision energy: 35  (nominal)
Resolution: 35000
Column name: Kinetex C18 EVO 2.6 um, 2.1x50 mm, precolumn 2.1x5 mm, Phenomenex
Retention time: 12.253 min
Base peak: 296.0239
Precursor m/z: 296.024
Precursor type: [M+H]+
m/z	relative intensity	assigned
179.0729	2	C13H9N+
180.0806	13	C13H10N+
214.0417	796	C13H9ClN+
215.0495	999	C13H10ClN+
243.0402	6	C9H10ClN3O3+
250.0185	530	C13H10Cl2N+
278.0134	287	C14H10Cl2NO+
296.024	164	C14H12Cl2NO2+
