Mass spectrum: 4-Iodphenol; LC-ESI-QFT; MS2; CE: 35 NCE; R=35000; [M-H]-
Name: 4-Iodphenol
Formula: C6H5IO
Exact mass: 219.93851
SMILES: OC1=CC=C(I)C=C1
InChI: InChI=1S/C6H5IO/c7-5-1-3-6(8)4-2-5/h1-4,8H
Instrument: Q Exactive Plus Orbitrap Thermo Scientific
Instrument type: LC-ESI-QFT
Ms type: MS2
Ion mode: NEGATIVE
Ionization: ESI
Fragmentation mode: HCD
Collision energy: 35  (nominal)
Resolution: 35000
Column name: Kinetex C18 EVO 2.6 um, 2.1x50 mm, precolumn 2.1x5 mm, Phenomenex
Retention time: 9.312 min
Base peak: 91.0021
Precursor m/z: 218.9312
Precursor type: [M-H]-
m/z	relative intensity	assigned
126.9047	999	I-
218.9313	411	C6H4IO-
