Mass spectrum: 2-Methyl-6-phenyl-4H-pyran-4-one; LC-ESI-QFT; MS2; CE: 35 NCE; R=35000; [M-H]-
Name: 2-Methyl-6-phenyl-4H-pyran-4-one
Name: 2-methyl-6-phenylpyran-4-one
Formula: C12H10O2
Exact mass: 186.06808
SMILES: CC1=CC(=O)C=C(O1)C1=CC=CC=C1
InChI: InChI=1S/C12H10O2/c1-9-7-11(13)8-12(14-9)10-5-3-2-4-6-10/h2-8H,1H3
Instrument: Q Exactive Plus Orbitrap Thermo Scientific
Instrument type: LC-ESI-QFT
Ms type: MS2
Ion mode: NEGATIVE
Ionization: ESI
Fragmentation mode: HCD
Collision energy: 35  (nominal)
Resolution: 35000
Column name: Kinetex C18 EVO 2.6 um, 2.1x50 mm, precolumn 2.1x5 mm, Phenomenex
Retention time: 9.060 min
Base peak: 91.0021
Precursor m/z: 185.0608
Precursor type: [M-H]-
m/z	relative intensity	assigned
129.0706	3	C10H9-
143.0501	5	C10H7O-
156.058	7	C11H8O-
157.0659	42	C11H9O-
167.0502	2	C12H7O-
183.0452	3	C12H7O2-
184.053	9	C12H8O2-
185.0608	999	C12H9O2-
