Mass spectrum: 10,11-Dihydro-10,11-dihydroxycarbamazepine; LC-ESI-QFT; MS2; CE: 35 NCE; R=35000; [M+H]+
Name: 10,11-Dihydro-10,11-dihydroxycarbamazepine
Name: Dihydroxycarbazepine
Name: 5,6-dihydroxy-5,6-dihydrobenzo[b][1]benzazepine-11-carboxamide
Formula: C15H14N2O3
Exact mass: 270.10044
SMILES: NC(=O)N1c2ccccc2C(O)C(O)c2ccccc12
InChI: InChI=1S/C15H14N2O3/c16-15(20)17-11-7-3-1-5-9(11)13(18)14(19)10-6-2-4-8-12(10)17/h1-8,13-14,18-19H,(H2,16,20)
Instrument: Q Exactive Plus Orbitrap Thermo Scientific
Instrument type: LC-ESI-QFT
Ms type: MS2
Ion mode: POSITIVE
Ionization: ESI
Fragmentation mode: HCD
Collision energy: 35  (nominal)
Resolution: 35000
Column name: Kinetex C18 EVO 2.6 um, 2.1x50 mm, precolumn 2.1x5 mm, Phenomenex
Retention time: 8.039 min
Base peak: 279.1449
Precursor m/z: 271.1077
Precursor type: [M+H]+
m/z	relative intensity	assigned
165.0698	3	C13H9+
167.073	17	C12H9N+
179.0726	2	C13H9N+
180.0808	999	C13H10N+
181.0886	28	C13H11N+
182.0965	238	C13H12N+
192.0808	6	C14H10N+
193.0887	2	C14H11N+
208.0757	39	C14H10NO+
210.0913	517	C14H12NO+
236.0706	40	C15H10NO2+
253.0972	216	C15H13N2O2+
254.0812	460	C15H12NO3+
255.0872	3	C13H11N4O2+
271.1078	7	C15H15N2O3+
