Mass spectrum: Indoline; LC-ESI-QFT; MS2; CE: 35 NCE; R=35000; [M+H]+
Name: Indoline
Name: 2,3-dihydro-1H-indole
Formula: C8H9N
Exact mass: 119.07350
SMILES: C1CC2=CC=CC=C2N1
InChI: InChI=1S/C8H9N/c1-2-4-8-7(3-1)5-6-9-8/h1-4,9H,5-6H2
Instrument: Q Exactive Plus Orbitrap Thermo Scientific
Instrument type: LC-ESI-QFT
Ms type: MS2
Ion mode: POSITIVE
Ionization: ESI
Fragmentation mode: HCD
Collision energy: 35  (nominal)
Resolution: 35000
Column name: Kinetex C18 EVO 2.6 um, 2.1x50 mm, precolumn 2.1x5 mm, Phenomenex
Retention time: 0.424 min
Base peak: 86.0963
Precursor m/z: 120.0808
Precursor type: [M+H]+
m/z	relative intensity	assigned
77.0383	1	C6H5+
79.0542	1	C6H7+
91.0541	2	C7H7+
93.0572	1	C6H7N+
93.0698	6	C7H9+
94.065	3	C6H8N+
103.0541	17	C8H7+
118.065	8	C8H8N+
119.0729	2	C8H9N+
120.0806	999	C8H10N+
