Mass spectrum: Chlorpropham; LC-ESI-QFT; MS2; CE: 35 NCE; R=35000; [M+H]+
Name: Chlorpropham
Name: propan-2-yl N-(3-chlorophenyl)carbamate
Formula: C10H12ClNO2
Exact mass: 213.05566
SMILES: CC(C)OC(=O)Nc1cccc(Cl)c1
InChI: InChI=1S/C10H12ClNO2/c1-7(2)14-10(13)12-9-5-3-4-8(11)6-9/h3-7H,1-2H3,(H,12,13)
Instrument: Q Exactive Plus Orbitrap Thermo Scientific
Instrument type: LC-ESI-QFT
Ms type: MS2
Ion mode: POSITIVE
Ionization: ESI
Fragmentation mode: HCD
Collision energy: 35  (nominal)
Resolution: 35000
Column name: Kinetex C18 EVO 2.6 um, 2.1x50 mm, precolumn 2.1x5 mm, Phenomenex
Retention time: 11.506 min
Base peak: 289.1212
Precursor m/z: 214.0629
Precursor type: [M+H]+
m/z	relative intensity	assigned
53.0023	10	C3HO+
68.0246	61	C2H2N3+
69.0336	15	C4H5O+
71.0492	12	C4H7O+
71.0605	147	C3H7N2+
72.0445	230	C3H6NO+
77.0389	13	C6H5+
79.0543	20	C6H7+
81.0699	19	C6H9+
91.0544	62	C7H7+
93.0574	20	C6H7N+
94.0652	999	C6H8N+
95.0492	288	C6H7O+
95.0857	22	C7H11+
96.0557	212	C4H6N3+
99.0555	29	C4H7N2O+
105.0448	14	C6H5N2+
106.0652	772	C7H8N+
107.0855	18	C8H11+
109.0648	26	C7H9O+
109.1014	16	C8H13+
111.044	16	C6H7O2+
124.087	536	C6H10N3+
126.0106	61	C6H5ClN+
134.0601	104	C8H8NO+
137.0959	13	C9H13O+
154.0055	264	C7H5ClNO+
171.0405	21	C3H10ClN3O3+
