Mass spectrum: Cyclamate; LC-ESI-QFT; MS2; CE: 35 NCE; R=35000; [M-H]-
Name: Cyclamate
Name: Cyclamic acid
Name: cyclohexylsulfamic acid
Formula: C6H13NO3S
Exact mass: 179.0616
SMILES: OS(=O)(=O)NC1CCCCC1
InChI: InChI=1S/C6H13NO3S/c8-11(9,10)7-6-4-2-1-3-5-6/h6-7H,1-5H2,(H,8,9,10)
Instrument: Q Exactive Plus Orbitrap Thermo Scientific
Instrument type: LC-ESI-QFT
Ms type: MS2
Ion mode: NEGATIVE
Ionization: ESI
Fragmentation mode: HCD
Collision energy: 35  (nominal)
Resolution: 35000
Column name: Kinetex C18 EVO 2.6 um, 2.1x50 mm, precolumn 2.1x5 mm, Phenomenex
Retention time: 3.864 min
Base peak: 178.0543
Precursor m/z: 178.0543
Precursor type: [M-H]-
m/z	relative intensity	assigned
178.0543	999	C6H12NO3S-
