Mass spectrum: Benzanthrone; LC-ESI-QFT; MS2; CE: 35 NCE; R=35000; [M+H]+
Name: Benzanthrone
Name: 1,9-Benz-10-anthrone
Name: Benzo[a]phenalen-7-one
Formula: C17H10O
Exact mass: 230.07316
SMILES: O=C1c2ccccc2-c2cccc3cccc1c23
InChI: InChI=1S/C17H10O/c18-17-14-8-2-1-7-12(14)13-9-3-5-11-6-4-10-15(17)16(11)13/h1-10H
Instrument: Q Exactive Plus Orbitrap Thermo Scientific
Instrument type: LC-ESI-QFT
Ms type: MS2
Ion mode: POSITIVE
Ionization: ESI
Fragmentation mode: HCD
Collision energy: 35  (nominal)
Resolution: 35000
Column name: Kinetex C18 EVO 2.6 um, 2.1x50 mm, precolumn 2.1x5 mm, Phenomenex
Retention time: 12.359 min
Base peak: 231.0803
Precursor m/z: 231.0804
Precursor type: [M+H]+
m/z	relative intensity	assigned
202.0777	21	C16H10+
203.0856	24	C16H11+
230.0722	1	C17H10O+
231.0805	999	C17H11O+
