Mass spectrum: Warfarin; LC-ESI-QFT; MS2; CE: 35 NCE; R=35000; [M+H]+
Name: Warfarin
Name: 4-hydroxy-3-(3-oxo-1-phenylbutyl)chromen-2-one
Formula: C19H16O4
Exact mass: 308.10486
SMILES: CC(=O)CC(C1=CC=CC=C1)C1=C(O)C2=CC=CC=C2OC1=O
InChI: InChI=1S/C19H16O4/c1-12(20)11-15(13-7-3-2-4-8-13)17-18(21)14-9-5-6-10-16(14)23-19(17)22/h2-10,15,21H,11H2,1H3
Instrument: Q Exactive Plus Orbitrap Thermo Scientific
Instrument type: LC-ESI-QFT
Ms type: MS2
Ion mode: POSITIVE
Ionization: ESI
Fragmentation mode: HCD
Collision energy: 35  (nominal)
Resolution: 35000
Column name: Kinetex C18 EVO 2.6 um, 2.1x50 mm, precolumn 2.1x5 mm, Phenomenex
Retention time: 11.299 min
Base peak: 309.112
Precursor m/z: 309.1121
Precursor type: [M+H]+
m/z	relative intensity	assigned
68.9973	2	C3HO2+
77.0389	1	C6H5+
91.0543	4	C7H7+
95.0492	10	C6H7O+
105.07	2	C8H9+
121.0285	55	C7H5O2+
129.07	33	C10H9+
131.0491	17	C9H7O+
147.0805	171	C10H11O+
155.0856	35	C12H11+
157.0288	2	C10H5O2+
163.0391	999	C9H7O3+
167.0857	11	C13H11+
171.0803	8	C12H11O+
173.0235	14	C10H5O3+
175.0393	9	C10H7O3+
178.0778	2	C14H10+
179.0856	3	C14H11+
183.0807	64	C13H11O+
189.0547	9	C11H9O3+
191.034	117	C10H7O4+
194.0084	1	C8H4NO5+
195.0807	2	C14H11O+
205.0498	3	C11H9O4+
205.065	9	C15H9O+
223.0756	34	C15H11O2+
233.0598	17	C16H9O2+
251.0705	675	C16H11O3+
291.1023	15	C19H15O3+
309.1124	455	C19H17O4+
