Mass spectrum: Bifonazol; LC-ESI-QFT; MS2; CE: 35 NCE; R=35000; [M+H]+
Name: Bifonazol
Name: Bifonazole
Name: 1-[phenyl-(4-phenylphenyl)methyl]imidazole
Formula: C22H18N2
Exact mass: 310.14700
SMILES: C1=CN(C=N1)C(C1=CC=CC=C1)C1=CC=C(C=C1)C1=CC=CC=C1
InChI: InChI=1S/C22H18N2/c1-3-7-18(8-4-1)19-11-13-21(14-12-19)22(24-16-15-23-17-24)20-9-5-2-6-10-20/h1-17,22H
Instrument: Q Exactive Plus Orbitrap Thermo Scientific
Instrument type: LC-ESI-QFT
Ms type: MS2
Ion mode: POSITIVE
Ionization: ESI
Fragmentation mode: HCD
Collision energy: 35  (nominal)
Resolution: 35000
Column name: Kinetex C18 EVO 2.6 um, 2.1x50 mm, precolumn 2.1x5 mm, Phenomenex
Retention time: 9.695 min
Base peak: 311.1539
Precursor m/z: 311.1543
Precursor type: [M+H]+
m/z	relative intensity	assigned
91.0542	98	C7H7+
115.0543	52	C9H7+
141.0698	10	C11H9+
165.0699	107	C13H9+
166.0777	2	C13H10+
178.0776	2	C14H10+
202.0774	7	C16H10+
215.0856	33	C17H11+
227.0857	6	C18H11+
228.0934	93	C18H12+
241.1011	33	C19H13+
242.1091	11	C19H14+
243.1169	999	C19H15+
