Mass spectrum: Pravastatin; LC-ESI-QFT; MS2; CE: 35 NCE; R=35000; [M-H]-
Name: Pravastatin
Name: (3R,5R)-7-[(1S,2S,6S,8S,8aR)-6-hydroxy-2-methyl-8-[(2S)-2-methylbutanoyl]oxy-1,2,6,7,8,8a-hexahydronaphthalen-1-yl]-3,5-dihydroxyheptanoic acid
Formula: C23H36O7
Exact mass: 424.24610
SMILES: CC[C@H](C)C(=O)O[C@H]1C[C@H](O)C=C2C=C[C@H](C)[C@H](CC[C@@H](O)C[C@@H](O)CC(O)=O)[C@@H]12
InChI: InChI=1S/C23H36O7/c1-4-13(2)23(29)30-20-11-17(25)9-15-6-5-14(3)19(22(15)20)8-7-16(24)10-18(26)12-21(27)28/h5-6,9,13-14,16-20,22,24-26H,4,7-8,10-12H2,1-3H3,(H,27,28)/t13-,14-,16+,17+,18+,19-,20-,22-/m0/s1
Instrument: Q Exactive Plus Orbitrap Thermo Scientific
Instrument type: LC-ESI-QFT
Ms type: MS2
Ion mode: NEGATIVE
Ionization: ESI
Fragmentation mode: HCD
Collision energy: 35  (nominal)
Resolution: 35000
Column name: Kinetex C18 EVO 2.6 um, 2.1x50 mm, precolumn 2.1x5 mm, Phenomenex
Retention time: 10.829 min
Base peak: 423.2387
Precursor m/z: 423.2388
Precursor type: [M-H]-
m/z	relative intensity	assigned
127.0065	20	C8HNO-
129.0037	270	CH5O7-
141.071	47	C11H9-
142.0117	1	C2H6O7-
143.0867	7	C11H11-
146.1521	1	C5H22O4-
155.038	2	C10H5NO-
157.0352	35	C3H9O7-
157.0539	5	C10H7NO-
158.0431	6	C3H10O7-
159.0508	138	C3H11O7-
161.0968	1	C11H13O-
165.071	2	C13H9-
171.1182	2	C13H15-
177.071	1	C14H9-
179.0866	133	C14H11-
180.0579	1	C13H8O-
180.0905	7	C9H12N2O2-
187.0459	4	C4H11O8-
187.0647	4	C11H9NO2-
193.0657	10	C14H9O-
195.0815	26	C14H11O-
197.0973	1	C14H13O-
199.1128	19	C14H15O-
216.0816	1	C16H10N-
223.0774	1	C15H11O2-
252.0074	1	C14H4O5-
267.1389	2	C18H19O2-
270.1161	1	C19H14N2-
272.1447	11	C20H18N-
276.1545	1	C8H24N2O8-
284.13	1	C17H18NO3-
285.1499	9	C18H21O3-
293.0663	9	C14H13O7-
299.1552	5	C21H19N2-
303.1602	275	C18H23O4-
321.1707	522	C18H25O5-
322.1061	6	C16H18O7-
337.1289	27	C17H21O7-
365.1357	5	C17H21N2O7-
387.2193	1	C23H31O5-
395.1444	7	C18H23N2O8-
405.2269	2	C23H33O6-
423.239	999	C23H35O7-
