Mass spectrum: Azelastine; LC-ESI-QFT; MS2; CE: 35 NCE; R=35000; [M+H]+
Name: Azelastine
Name: 4-[(4-chlorophenyl)methyl]-2-(1-methylazepan-4-yl)phthalazin-1-one
Formula: C22H24ClN3O
Exact mass: 381.16079
SMILES: CN1CCCC(CC1)N1N=C(Cc2ccc(Cl)cc2)c2ccccc2C1=O
InChI: InChI=1S/C22H24ClN3O/c1-25-13-4-5-18(12-14-25)26-22(27)20-7-3-2-6-19(20)21(24-26)15-16-8-10-17(23)11-9-16/h2-3,6-11,18H,4-5,12-15H2,1H3
Instrument: Q Exactive Plus Orbitrap Thermo Scientific
Instrument type: LC-ESI-QFT
Ms type: MS2
Ion mode: POSITIVE
Ionization: ESI
Fragmentation mode: HCD
Collision energy: 35  (nominal)
Resolution: 35000
Column name: Kinetex C18 EVO 2.6 um, 2.1x50 mm, precolumn 2.1x5 mm, Phenomenex
Retention time: 8.953 min
Base peak: 382.1678
Precursor m/z: 382.1681
Precursor type: [M+H]+
m/z	relative intensity	assigned
55.0544	1	C4H7+
58.0653	133	C3H8N+
69.07	3	C5H9+
70.0652	9	C4H8N+
79.0543	12	C6H7+
81.0699	39	C6H9+
82.0651	1	C5H8N+
84.0808	32	C5H10N+
110.0964	3	C7H12N+
112.1121	999	C7H14N+
125.0152	3	C7H6Cl+
159.0553	6	C9H7N2O+
271.0632	20	C15H12ClN2O+
309.0787	2	C18H14ClN2O+
351.1261	11	C21H20ClN2O+
382.1681	929	C22H25ClN3O+
