Mass spectrum: Bupropion; LC-ESI-QFT; MS2; CE: 35 NCE; R=35000; [M+H]+
Name: Bupropion
Name: 2-(tert-butylamino)-1-(3-chlorophenyl)propan-1-one
Formula: C13H18ClNO
Exact mass: 239.10769
SMILES: CC(NC(C)(C)C)C(=O)c1cccc(Cl)c1
InChI: InChI=1S/C13H18ClNO/c1-9(15-13(2,3)4)12(16)10-6-5-7-11(14)8-10/h5-9,15H,1-4H3
Instrument: Q Exactive Plus Orbitrap Thermo Scientific
Instrument type: LC-ESI-QFT
Ms type: MS2
Ion mode: POSITIVE
Ionization: ESI
Fragmentation mode: HCD
Collision energy: 35  (nominal)
Resolution: 35000
Column name: Kinetex C18 EVO 2.6 um, 2.1x50 mm, precolumn 2.1x5 mm, Phenomenex
Retention time: 5.918 min
Base peak: 189.1019
Precursor m/z: 240.115
Precursor type: [M+H]+
m/z	relative intensity	assigned
57.07	97	C4H9+
103.0542	14	C8H7+
130.065	11	C9H8N+
131.0729	359	C9H9N+
132.0567	3	C9H8O+
139.0308	135	C8H8Cl+
151.0185	2	C8H6ClN+
166.0418	426	C9H9ClN+
167.0258	210	C9H8ClO+
184.0524	999	C9H11ClNO+
240.1149	219	C13H19ClNO+
