Mass spectrum: 3,4-Dichlorophenylurea; LC-ESI-QFT; MS2; CE: 35 NCE; R=35000; [M+H]+
Name: 3,4-Dichlorophenylurea
Name: 1-(3,4-Dichlorophenyl)urea
Name: (3,4-dichlorophenyl)urea
Formula: C7H6Cl2N2O
Exact mass: 203.98572
SMILES: NC(=O)Nc1ccc(Cl)c(Cl)c1
InChI: InChI=1S/C7H6Cl2N2O/c8-5-2-1-4(3-6(5)9)11-7(10)12/h1-3H,(H3,10,11,12)
Instrument: Q Exactive Plus Orbitrap Thermo Scientific
Instrument type: LC-ESI-QFT
Ms type: MS2
Ion mode: POSITIVE
Ionization: ESI
Fragmentation mode: HCD
Collision energy: 35  (nominal)
Resolution: 35000
Column name: Kinetex C18 EVO 2.6 um, 2.1x50 mm, precolumn 2.1x5 mm, Phenomenex
Retention time: 9.313 min
Base peak: 204.9927
Precursor m/z: 204.993
Precursor type: [M+H]+
m/z	relative intensity	assigned
125.003	1	C6H4ClN+
126.0108	1	C6H5ClN+
127.0183	613	C6H6ClN+
132.9605	2	C5H3Cl2+
159.9715	112	C6H4Cl2N+
161.9871	640	C6H6Cl2N+
172.9663	1	C6H3Cl2N2+
187.9664	82	C7H4Cl2NO+
204.993	999	C7H7Cl2N2O+
