Mass spectrum: Fipronil sulfone; LC-ESI-QFT; MS2; CE: 35 NCE; R=35000; [M-H]-
Name: Fipronil sulfone
Name: 5-amino-1-[2,6-dichloro-4-(trifluoromethyl)phenyl]-4-(trifluoromethylsulfonyl)pyrazole-3-carbonitrile
Formula: C12H4Cl2F6N4O2S
Exact mass: 451.93362
SMILES: C1=C(C=C(C(=C1Cl)N2C(=C(C(=N2)C#N)S(=O)(=O)C(F)(F)F)N)Cl)C(F)(F)F
InChI: InChI=1S/C12H4Cl2F6N4O2S/c13-5-1-4(11(15,16)17)2-6(14)8(5)24-10(22)9(7(3-21)23-24)27(25,26)12(18,19)20/h1-2H,22H2
Instrument: Q Exactive Plus Orbitrap Thermo Scientific
Instrument type: LC-ESI-QFT
Ms type: MS2
Ion mode: NEGATIVE
Ionization: ESI
Fragmentation mode: HCD
Collision energy: 35  (nominal)
Resolution: 35000
Column name: Kinetex C18 EVO 2.6 um, 2.1x50 mm, precolumn 2.1x5 mm, Phenomenex
Retention time: 12.688 min
Base peak: 450.9263
Precursor m/z: 450.9263
Precursor type: [M-H]-
m/z	relative intensity	assigned
132.9575	49	CF3O2S-
148.007	1	C10N2-
148.9911	1	C7H2ClN2-
150.0034	9	C7F2N2-
170.0097	41	C7HF3N2-
182.0097	24	C8HF3N2-
183.0176	187	C8H2F3N2-
194.0096	1	C9HF3N2-
198.0031	6	C11F2N2-
201.9985	1	C10F2N2O-
207.0106	6	C3HF6N4-
211.0062	1	C7H2F5NO-
216.9794	5	C5H2ClF4N2O-
216.9922	4	CH3ClF5N4O-
217.9865	85	C8H2ClF3N2-
218.0097	90	C11HF3N2-
226.0099	6	C8H2F6N-
227.0175	14	C11HF2N4-
233.9813	95	C8H2ClF3N2O-
235.0241	3	C10H2F3N4-
241.98	10	C11ClFN4-
243.9895	358	C9H2ClF3N3-
246.0159	156	C11HF3N4-
246.9896	1	C7H3F6NS-
251.0186	6	C10H2F3N4O-
253.9874	1	C8H3ClF4N2O-
257.9808	2	C10H2ClF3N2O-
257.9928	5	C9H2ClF3N4-
259.9845	14	C9H2ClF3N3O-
261.9864	80	C8H3ClF6N-
271.9843	12	C10H2ClF3N3O-
281.9925	649	C11H2ClF3N4-
283.0004	118	C11H3ClF3N4-
283.9841	5	C11H2ClF3N3O-
284.9795	4	C10HClF3N4O-
297.9874	65	C11H2ClF3N4O-
300.9907	9	C11H2ClF4N4-
313.9837	1	C9H2F6N3OS-
345.9545	22	C11H2ClF3N4O2S-
414.9499	999	C12H2ClF6N4O2S-
450.9266	312	C12H3Cl2F6N4O2S-
