Mass spectrum: Metolachlor; LC-ESI-QFT; MS2; CE: 35 NCE; R=35000; [M+H]+
Name: Metolachlor
Name: 2-chloro-N-(2-ethyl-6-methylphenyl)-N-(1-methoxypropan-2-yl)acetamide
Formula: C15H22ClNO2
Exact mass: 283.13391
SMILES: CCc1cccc(C)c1N(C(C)COC)C(=O)CCl
InChI: InChI=1S/C15H22ClNO2/c1-5-13-8-6-7-11(2)15(13)17(14(18)9-16)12(3)10-19-4/h6-8,12H,5,9-10H2,1-4H3
Instrument: Q Exactive Plus Orbitrap Thermo Scientific
Instrument type: LC-ESI-QFT
Ms type: MS2
Ion mode: POSITIVE
Ionization: ESI
Fragmentation mode: HCD
Collision energy: 35  (nominal)
Resolution: 35000
Column name: Kinetex C18 EVO 2.6 um, 2.1x50 mm, precolumn 2.1x5 mm, Phenomenex
Retention time: 11.941 min
Base peak: 284.1408
Precursor m/z: 284.1412
Precursor type: [M+H]+
m/z	relative intensity	assigned
73.0649	29	C4H9O+
76.9789	8	C2H2ClO+
91.0542	3	C7H7+
108.0809	2	C7H10N+
109.0648	1	C7H9O+
117.0699	3	C9H9+
118.0652	1	C8H8N+
119.0857	3	C9H11+
120.0807	3	C8H10N+
130.0653	1	C9H8N+
131.0731	2	C9H9N+
131.0856	1	C10H11+
132.0808	3	C9H10N+
133.0886	10	C9H11N+
134.0964	38	C9H12N+
135.0804	2	C9H11O+
136.112	1	C9H14N+
143.0728	2	C10H9N+
144.0809	2	C10H10N+
145.0885	5	C10H11N+
146.0964	16	C10H12N+
147.1041	2	C10H13N+
148.112	4	C10H14N+
158.0965	9	C11H12N+
159.1043	4	C11H13N+
160.1121	15	C11H14N+
162.0911	3	C10H12NO+
174.1281	2	C12H16N+
176.1434	222	C12H18N+
184.0525	11	C9H11ClNO+
194.0732	6	C11H13ClN+
202.123	1	C13H16NO+
212.0837	16	C11H15ClNO+
224.0828	1	C15H12O2+
224.1202	1	C13H19ClN+
252.115	999	C14H19ClNO+
284.1413	166	C15H23ClNO2+
