Mass spectrum: Bifenox free acid; LC-ESI-QFT; MS2; CE: 35 NCE; R=35000; [M-H]-
Name: Bifenox free acid
Name: Bifenox acid
Name: 5-(2,4-dichlorophenoxy)-2-nitrobenzoic acid
Formula: C13H7Cl2NO5
Exact mass: 326.97013
SMILES: OC(=O)C1=C(C=CC(OC2=C(Cl)C=C(Cl)C=C2)=C1)[N+]([O-])=O
InChI: InChI=1S/C13H7Cl2NO5/c14-7-1-4-12(10(15)5-7)21-8-2-3-11(16(19)20)9(6-8)13(17)18/h1-6H,(H,17,18)
Instrument: Q Exactive Plus Orbitrap Thermo Scientific
Instrument type: LC-ESI-QFT
Ms type: MS2
Ion mode: NEGATIVE
Ionization: ESI
Fragmentation mode: HCD
Collision energy: 35  (nominal)
Resolution: 35000
Column name: Kinetex C18 EVO 2.6 um, 2.1x50 mm, precolumn 2.1x5 mm, Phenomenex
Retention time: 12.689 min
Base peak: 325.9629
Precursor m/z: 325.9629
Precursor type: [M-H]-
m/z	relative intensity	assigned
79.0172	16	C3HN3-
81.0328	4	C3H3N3-
95.0126	32	C3HN3O-
97.028	8	C3H3N3O-
107.0128	17	C4HN3O-
109.0284	7	C4H3N3O-
122.0004	28	C6H2O3-
123.0082	14	C6H3O3-
124.9795	7	C6H2ClO-
125.0239	7	C6H5O3-
137.0117	236	C6H3NO3-
156.0214	5	C10H4O2-
160.9566	306	C6H3Cl2O-
164.003	13	C9H5ClO-
188.003	41	C11H5ClO-
250.967	4	C12H5Cl2O2-
251.9749	5	C12H6Cl2O2-
281.973	999	C12H6Cl2NO3-
325.9621	19	C13H6Cl2NO5-
