Mass spectrum: Diphenylphosphate; LC-ESI-QFT; MS2; CE: 35 NCE; R=35000; [M-H]-
Name: Diphenylphosphate
Name: Diphenyl hydrogen phosphate
Formula: C12H11O4P
Exact mass: 250.03950
SMILES: OP(=O)(OC1=CC=CC=C1)OC1=CC=CC=C1
InChI: InChI=1S/C12H11O4P/c13-17(14,15-11-7-3-1-4-8-11)16-12-9-5-2-6-10-12/h1-10H,(H,13,14)
Instrument: Q Exactive Plus Orbitrap Thermo Scientific
Instrument type: LC-ESI-QFT
Ms type: MS2
Ion mode: NEGATIVE
Ionization: ESI
Fragmentation mode: HCD
Collision energy: 35  (nominal)
Resolution: 35000
Column name: Kinetex C18 EVO 2.6 um, 2.1x50 mm, precolumn 2.1x5 mm, Phenomenex
Retention time: 11.084 min
Base peak: 249.0321
Precursor m/z: 249.0322
Precursor type: [M-H]-
m/z	relative intensity	assigned
154.9904	48	C6H4O3P-
173.0009	3	C6H6O4P-
249.0322	999	C12H10O4P-
