Mass spectrum: Oxazol; LC-ESI-QFT; MS2; CE: 35 NCE; R=35000; [M+H]+
Name: Oxazol
Name: 1,3-oxazole
Formula: C3H3NO
Exact mass: 69.02146
SMILES: O1C=CN=C1
InChI: InChI=1S/C3H3NO/c1-2-5-3-4-1/h1-3H
Instrument: Q Exactive Plus Orbitrap Thermo Scientific
Instrument type: LC-ESI-QFT
Ms type: MS2
Ion mode: POSITIVE
Ionization: ESI
Fragmentation mode: HCD
Collision energy: 35  (nominal)
Resolution: 35000
Column name: Kinetex C18 EVO 2.6 um, 2.1x50 mm, precolumn 2.1x5 mm, Phenomenex
Retention time: 0.700 min
Base peak: 136.1119
Precursor m/z: 70.0287
Precursor type: [M+H]+
m/z	relative intensity	assigned
70.0288	999	C3H4NO+
