Mass spectrum: Metalaxyl; LC-ESI-QFT; MS2; CE: 35 NCE; R=35000; [M+H]+
Name: Metalaxyl
Name: methyl 2-(N-(2-methoxyacetyl)-2,6-dimethylanilino)propanoate
Formula: C15H21NO4
Exact mass: 279.14706
SMILES: COCC(=O)N(C(C)C(=O)OC)c1c(C)cccc1C
InChI: InChI=1S/C15H21NO4/c1-10-7-6-8-11(2)14(10)16(13(17)9-19-4)12(3)15(18)20-5/h6-8,12H,9H2,1-5H3
Instrument: Q Exactive Plus Orbitrap Thermo Scientific
Instrument type: LC-ESI-QFT
Ms type: MS2
Ion mode: POSITIVE
Ionization: ESI
Fragmentation mode: HCD
Collision energy: 35  (nominal)
Resolution: 35000
Column name: Kinetex C18 EVO 2.6 um, 2.1x50 mm, precolumn 2.1x5 mm, Phenomenex
Retention time: 10.352 min
Base peak: 280.154
Precursor m/z: 280.1543
Precursor type: [M+H]+
m/z	relative intensity	assigned
91.0543	1	C7H7+
105.0699	8	C8H9+
107.0855	1	C8H11+
118.0652	3	C8H8N+
119.0856	5	C9H11+
120.081	1	C8H10N+
121.0886	6	C8H11N+
130.0652	3	C9H8N+
131.0731	5	C9H9N+
132.0808	23	C9H10N+
133.0886	36	C9H11N+
134.0965	78	C9H12N+
144.0806	4	C10H10N+
145.0887	50	C10H11N+
146.0965	42	C10H12N+
147.1044	1	C10H13N+
148.1121	163	C10H14N+
150.0914	5	C9H12NO+
158.0969	3	C11H12N+
160.1121	708	C11H14N+
161.0836	3	C10H11NO+
162.1277	105	C11H16N+
164.107	3	C10H14NO+
165.1149	24	C10H15NO+
188.1071	8	C12H14NO+
192.1383	721	C12H18NO+
208.1332	4	C12H18NO2+
220.1333	999	C13H18NO2+
248.1282	432	C14H18NO3+
252.1597	1	C14H22NO3+
280.1545	256	C15H22NO4+
