Mass spectrum: Chlorophene; LC-ESI-QFT; MS2; CE: 35 NCE; R=35000; [M-H]-
Name: Chlorophene
Name: 2-Benzyl-4-chlorophenol
Formula: C13H11ClO
Exact mass: 218.04984
SMILES: Oc1ccc(Cl)cc1Cc1ccccc1
InChI: InChI=1S/C13H11ClO/c14-12-6-7-13(15)11(9-12)8-10-4-2-1-3-5-10/h1-7,9,15H,8H2
Instrument: Q Exactive Plus Orbitrap Thermo Scientific
Instrument type: LC-ESI-QFT
Ms type: MS2
Ion mode: NEGATIVE
Ionization: ESI
Fragmentation mode: HCD
Collision energy: 35  (nominal)
Resolution: 35000
Column name: Kinetex C18 EVO 2.6 um, 2.1x50 mm, precolumn 2.1x5 mm, Phenomenex
Retention time: 12.258 min
Base peak: 116.9277
Precursor m/z: 217.0426
Precursor type: [M-H]-
m/z	relative intensity	assigned
152.0634	1	C12H8-
153.0709	5	C12H9-
180.058	5	C13H8O-
181.066	7	C13H9O-
217.0426	999	C13H10ClO-
