Mass spectrum: Flavone; LC-ESI-QFT; MS2; CE: 35 NCE; R=35000; [M+H]+
Name: Flavone
Name: 2-phenylchromen-4-one
Formula: C15H10O2
Exact mass: 222.06808
SMILES: O=C1C=C(OC2=CC=CC=C12)C1=CC=CC=C1
InChI: InChI=1S/C15H10O2/c16-13-10-15(11-6-2-1-3-7-11)17-14-9-5-4-8-12(13)14/h1-10H
Instrument: Q Exactive Plus Orbitrap Thermo Scientific
Instrument type: LC-ESI-QFT
Ms type: MS2
Ion mode: POSITIVE
Ionization: ESI
Fragmentation mode: HCD
Collision energy: 35  (nominal)
Resolution: 35000
Column name: Kinetex C18 EVO 2.6 um, 2.1x50 mm, precolumn 2.1x5 mm, Phenomenex
Retention time: 11.465 min
Base peak: 223.075
Precursor m/z: 223.0754
Precursor type: [M+H]+
m/z	relative intensity	assigned
65.0385	1	C5H5+
77.0389	2	C6H5+
93.0334	2	C6H5O+
95.0491	8	C6H7O+
103.0541	9	C8H7+
105.0334	1	C7H5O+
105.0446	1	C6H5N2+
121.0283	26	C7H5O2+
129.0333	7	C9H5O+
152.062	2	C12H8+
165.0698	1	C13H9+
167.0854	7	C13H11+
177.0699	1	C14H9+
178.0775	12	C14H10+
179.0852	1	C14H11+
223.0751	999	C15H11O2+
