Mass spectrum: Diuron; LC-ESI-QFT; MS2; CE: 35 NCE; R=35000; [M+H]+
Name: Diuron
Name: 3-(3,4-dichlorophenyl)-1,1-dimethylurea
Formula: C9H10Cl2N2O
Exact mass: 232.01702
SMILES: CN(C)C(=O)NC1=CC=C(Cl)C(Cl)=C1
InChI: InChI=1S/C9H10Cl2N2O/c1-13(2)9(14)12-6-3-4-7(10)8(11)5-6/h3-5H,1-2H3,(H,12,14)
Instrument: Q Exactive Plus Orbitrap Thermo Scientific
Instrument type: LC-ESI-QFT
Ms type: MS2
Ion mode: POSITIVE
Ionization: ESI
Fragmentation mode: HCD
Collision energy: 35  (nominal)
Resolution: 35000
Column name: Kinetex C18 EVO 2.6 um, 2.1x50 mm, precolumn 2.1x5 mm, Phenomenex
Retention time: 10.145 min
Base peak: 192.1379
Precursor m/z: 233.0243
Precursor type: [M+H]+
m/z	relative intensity	assigned
56.0133	3	C2H2NO+
72.0445	999	C3H6NO+
159.9716	27	C6H4Cl2N+
187.9665	12	C7H4Cl2NO+
233.0244	604	C9H11Cl2N2O+
