Mass spectrum: Imatinib; LC-ESI-QFT; MS2; CE: 35 NCE; R=35000; [M+H]+
Name: Imatinib
Name: 4-[(4-methylpiperazin-1-yl)methyl]-N-[4-methyl-3-[(4-pyridin-3-ylpyrimidin-2-yl)amino]phenyl]benzamide
Formula: C29H31N7O
Exact mass: 493.25901
SMILES: CN1CCN(CC2=CC=C(C=C2)C(=O)NC2=CC(NC3=NC(=CC=N3)C3=CN=CC=C3)=C(C)C=C2)CC1
InChI: InChI=1S/C29H31N7O/c1-21-5-10-25(18-27(21)34-29-31-13-11-26(33-29)24-4-3-12-30-19-24)32-28(37)23-8-6-22(7-9-23)20-36-16-14-35(2)15-17-36/h3-13,18-19H,14-17,20H2,1-2H3,(H,32,37)(H,31,33,34)
Instrument: Q Exactive Plus Orbitrap Thermo Scientific
Instrument type: LC-ESI-QFT
Ms type: MS2
Ion mode: POSITIVE
Ionization: ESI
Fragmentation mode: HCD
Collision energy: 35  (nominal)
Resolution: 35000
Column name: Kinetex C18 EVO 2.6 um, 2.1x50 mm, precolumn 2.1x5 mm, Phenomenex
Retention time: 7.777 min
Base peak: 247.6365
Precursor m/z: 494.2663
Precursor type: [M+H]+
m/z	relative intensity	assigned
56.0497	29	C3H6N+
58.0653	62	C3H8N+
70.0652	85	C4H8N+
72.0808	10	C4H10N+
78.0338	1	C5H4N+
80.0495	1	C5H6N+
82.0651	1	C5H8N+
83.0604	5	C4H7N2+
84.0682	14	C4H8N2+
90.0464	3	C7H6+
91.0542	12	C7H7+
94.0652	1	C6H8N+
95.0492	1	C6H7O+
97.076	39	C5H9N2+
98.0838	56	C5H10N2+
99.0917	163	C5H11N2+
100.0995	14	C5H12N2+
101.1073	1	C5H13N2+
104.0495	12	C7H6N+
105.0335	11	C7H5O+
105.0447	9	C6H5N2+
109.076	9	C6H9N2+
111.0917	43	C6H11N2+
112.0996	9	C6H12N2+
115.0541	1	C9H7+
117.0573	1	C8H7N+
118.0413	11	C8H6O+
119.0491	64	C8H7O+
121.076	17	C7H9N2+
131.0495	6	C9H7O+
131.0604	61	C8H7N2+
132.0444	5	C8H6NO+
132.0682	16	C8H8N2+
132.0806	3	C9H10N+
135.0916	6	C8H11N2+
146.0712	2	C8H8N3+
146.0964	1	C10H12N+
158.0602	12	C10H8NO+
158.0715	1	C9H8N3+
160.0755	6	C10H10NO+
162.0911	1	C10H12NO+
167.0851	1	C13H11+
173.0823	7	C9H9N4+
174.0662	4	C9H8N3O+
174.0912	12	C11H12NO+
174.1149	1	C11H14N2+
179.0855	4	C14H11+
185.0823	4	C10H9N4+
189.1387	42	C12H17N2+
194.0965	33	C14H12N+
195.1045	3	C14H13N+
196.0992	1	C13H12N2+
204.0809	7	C15H10N+
206.084	22	C14H10N2+
207.0678	4	C14H9NO+
210.0915	1	C14H12NO+
210.1153	1	C14H14N2+
217.1336	166	C13H17N2O+
219.0917	9	C15H11N2+
220.0755	3	C15H10NO+
220.0997	3	C15H12N2+
221.1074	38	C15H13N2+
222.0913	233	C15H12NO+
223.0991	45	C15H13NO+
224.0949	1	C14H12N2O+
232.0632	1	C15H8N2O+
237.1022	4	C15H13N2O+
237.1265	1	C15H15N3+
238.1101	38	C15H14N2O+
239.1177	1	C15H15N2O+
246.1024	1	C16H12N3+
247.0866	140	C16H11N2O+
248.0944	3	C16H12N2O+
249.0896	3	C15H11N3O+
249.1023	4	C16H13N2O+
259.0983	6	C16H11N4+
260.1054	4	C16H12N4+
261.1008	1	C15H11N5+
261.1136	4	C16H13N4+
262.1338	1	C17H16N3+
263.1056	1	C16H13N3O+
263.1179	14	C17H15N2O+
264.1132	102	C16H14N3O+
265.0972	69	C16H13N2O2+
272.1183	1	C18H14N3+
273.1023	3	C18H13N2O+
274.0972	13	C17H12N3O+
275.1052	2	C17H13N3O+
276.1247	5	C16H14N5+
277.1074	1	C14H11N7+
288.1123	1	C16H12N6+
290.1289	48	C18H16N3O+
348.1366	1	C23H16N4+
349.1452	4	C23H17N4+
350.1292	5	C23H16N3O+
351.1265	14	C24H17NO2+
351.162	25	C25H21NO+
361.1327	7	C23H15N5+
363.1247	1	C23H15N4O+
364.1198	2	C22H14N5O+
364.1564	4	C25H20N2O+
365.1632	1	C23H19N5+
366.1713	23	C23H20N5+
367.1554	1	C23H19N4O+
374.1408	1	C26H18N2O+
375.1467	1	C24H17N5+
376.1559	30	C24H18N5+
377.1398	40	C24H17N4O+
378.135	143	C23H16N5O+
379.1428	88	C23H17N5O+
393.1585	1	C24H19N5O+
394.1664	907	C24H20N5O+
396.1814	3	C24H22N5O+
397.1882	1	C24H23N5O+
476.2567	21	C29H30N7+
494.2665	999	C29H32N7O+
