Mass spectrum: Bezafibrate; LC-ESI-QFT; MS2; CE: 35 NCE; R=35000; [M+H]+
Name: Bezafibrate
Name: 2-[4-[2-[(4-chlorobenzoyl)amino]ethyl]phenoxy]-2-methylpropanoic acid
Formula: C19H20ClNO4
Exact mass: 361.10809
SMILES: CC(C)(Oc1ccc(CCNC(=O)c2ccc(Cl)cc2)cc1)C(O)=O
InChI: InChI=1S/C19H20ClNO4/c1-19(2,18(23)24)25-16-9-3-13(4-10-16)11-12-21-17(22)14-5-7-15(20)8-6-14/h3-10H,11-12H2,1-2H3,(H,21,22)(H,23,24)
Instrument: Q Exactive Plus Orbitrap Thermo Scientific
Instrument type: LC-ESI-QFT
Ms type: MS2
Ion mode: POSITIVE
Ionization: ESI
Fragmentation mode: HCD
Collision energy: 35  (nominal)
Resolution: 35000
Column name: Kinetex C18 EVO 2.6 um, 2.1x50 mm, precolumn 2.1x5 mm, Phenomenex
Retention time: 11.455 min
Base peak: 362.115
Precursor m/z: 362.1154
Precursor type: [M+H]+
m/z	relative intensity	assigned
59.0493	24	C3H7O+
69.0335	14	C4H5O+
75.0231	1	C6H3+
77.0387	2	C6H5+
86.9996	3	C4H4Cl+
87.044	27	C4H7O2+
91.0541	14	C7H7+
93.0334	2	C6H5O+
93.0698	32	C7H9+
95.0491	4	C6H7O+
103.0542	16	C8H7+
105.0446	1	C6H5N2+
105.0698	3	C8H9+
107.049	4	C7H7O+
110.9993	4	C6H4Cl+
119.0491	2	C8H7O+
119.0855	10	C9H11+
120.0569	9	C8H8O+
121.0647	545	C8H9O+
129.0101	8	C6H6ClO+
133.0646	6	C9H9O+
133.1011	2	C10H13+
138.9944	999	C7H4ClO+
143.0855	2	C11H11+
146.0725	1	C10H10O+
156.0211	3	C7H7ClNO+
161.096	117	C11H13O+
171.0802	3	C12H11O+
178.1225	3	C11H16NO+
182.0366	3	C9H9ClNO+
189.0909	11	C12H13O2+
207.1016	18	C12H15O3+
276.0785	218	C15H15ClNO2+
299.0836	2	C18H16ClO2+
316.1098	387	C18H19ClNO2+
326.0941	2	C19H17ClNO2+
344.1047	34	C19H19ClNO3+
362.1152	280	C19H21ClNO4+
