Mass spectrum: Phenazone; LC-ESI-QFT; MS2; CE: 35 NCE; R=35000; [M+H]+
Name: Phenazone
Formula: C11H12N2O
Exact mass: 188.09496
SMILES: CN1N(C(=O)C=C1C)c1ccccc1
InChI: InChI=1S/C11H12N2O/c1-9-8-11(14)13(12(9)2)10-6-4-3-5-7-10/h3-8H,1-2H3
Instrument: Q Exactive Plus Orbitrap Thermo Scientific
Instrument type: LC-ESI-QFT
Ms type: MS2
Ion mode: POSITIVE
Ionization: ESI
Fragmentation mode: HCD
Collision energy: 35  (nominal)
Resolution: 35000
Column name: Kinetex C18 EVO 2.6 um, 2.1x50 mm, precolumn 2.1x5 mm, Phenomenex
Retention time: 6.069 min
Base peak: 189.102
Precursor m/z: 189.1022
Precursor type: [M+H]+
m/z	relative intensity	assigned
56.0496	24	C3H6N+
58.0653	24	C3H8N+
65.0387	1	C5H5+
70.0652	1	C4H8N+
77.0388	1	C6H5+
91.0542	5	C7H7+
93.0335	1	C6H5O+
95.0492	1	C6H7O+
95.0604	1	C5H7N2+
96.0444	2	C5H6NO+
96.0682	10	C5H8N2+
98.0601	3	C5H8NO+
103.0542	1	C8H7+
104.0494	18	C7H6N+
105.0698	1	C8H9+
106.0651	9	C7H8N+
111.0553	1	C5H7N2O+
117.0572	2	C8H7N+
117.0699	4	C9H9+
118.0651	11	C8H8N+
120.0807	10	C8H10N+
130.0651	11	C9H8N+
131.0729	20	C9H9N+
132.0807	8	C9H10N+
133.052	1	C8H7NO+
133.0759	3	C8H9N2+
134.0964	1	C9H12N+
144.0807	17	C10H10N+
145.0647	7	C10H9O+
145.0757	1	C9H9N2+
146.0838	18	C9H10N2+
146.0963	5	C10H12N+
147.0916	25	C9H11N2+
148.0758	2	C9H10NO+
149.0709	1	C8H9N2O+
157.0521	1	C10H7NO+
158.0601	1	C10H8NO+
161.1073	18	C10H13N2+
172.0756	5	C11H10NO+
174.0787	11	C10H10N2O+
189.1022	999	C11H13N2O+
