Mass spectrum: Verapamil; LC-ESI-QFT; MS2; CE: 35 NCE; R=35000; [M+H]+
Name: Verapamil
Name: 2-(3,4-dimethoxyphenyl)-5-[2-(3,4-dimethoxyphenyl)ethyl-methylamino]-2-propan-2-ylpentanenitrile
Formula: C27H38N2O4
Exact mass: 454.28316
SMILES: COc1ccc(CCN(C)CCCC(C#N)(C(C)C)c2ccc(OC)c(OC)c2)cc1OC
InChI: InChI=1S/C27H38N2O4/c1-20(2)27(19-28,22-10-12-24(31-5)26(18-22)33-7)14-8-15-29(3)16-13-21-9-11-23(30-4)25(17-21)32-6/h9-12,17-18,20H,8,13-16H2,1-7H3
Instrument: Q Exactive Plus Orbitrap Thermo Scientific
Instrument type: LC-ESI-QFT
Ms type: MS2
Ion mode: POSITIVE
Ionization: ESI
Fragmentation mode: HCD
Collision energy: 35  (nominal)
Resolution: 35000
Column name: Kinetex C18 EVO 2.6 um, 2.1x50 mm, precolumn 2.1x5 mm, Phenomenex
Retention time: 8.760 min
Base peak: 455.2899
Precursor m/z: 455.2904
Precursor type: [M+H]+
m/z	relative intensity	assigned
58.0653	46	C3H8N+
77.0386	1	C6H5+
79.0543	26	C6H7+
84.0808	6	C5H10N+
86.0965	4	C5H12N+
91.0542	7	C7H7+
93.0699	1	C7H9+
94.0651	3	C6H8N+
95.0492	2	C6H7O+
95.0855	1	C7H11+
96.0808	10	C6H10N+
103.0542	23	C8H7+
104.062	4	C8H8+
105.0699	88	C8H9+
107.0492	8	C7H7O+
107.0856	3	C8H11+
108.0569	1	C7H8O+
108.0807	2	C7H10N+
109.0649	1	C7H9O+
110.0964	3	C7H12N+
115.0542	1	C9H7+
117.07	2	C9H9+
118.0414	13	C8H6O+
119.049	6	C8H7O+
120.0569	12	C8H8O+
121.0648	16	C8H9O+
122.0726	6	C8H10O+
122.0964	14	C8H12N+
123.0805	2	C8H11O+
124.0521	1	C7H8O2+
131.049	5	C9H7O+
132.0571	2	C9H8O+
133.0648	69	C9H9O+
134.0726	44	C9H10O+
135.0441	30	C8H7O2+
135.0805	29	C9H11O+
136.0519	3	C8H8O2+
137.0596	7	C8H9O2+
137.0963	2	C9H13O+
138.0677	4	C8H10O2+
139.0752	5	C8H11O2+
146.0726	2	C10H10O+
149.0596	6	C9H9O2+
150.0676	312	C9H10O2+
151.0754	35	C9H11O2+
152.0832	3	C9H12O2+
163.0754	1	C10H11O2+
164.0831	2	C10H12O2+
165.0911	999	C10H13O2+
175.0755	1	C11H11O2+
176.0708	2	C10H10NO2+
177.0911	27	C11H13O2+
187.099	3	C12H13NO+
190.0861	3	C11H12NO2+
191.1064	4	C12H15O2+
194.1175	1	C11H16NO2+
202.0864	4	C12H12NO2+
203.0942	3	C12H13NO2+
204.102	1	C12H14NO2+
212.1196	2	C15H16O+
214.1233	1	C14H16NO+
217.1099	5	C13H15NO2+
218.1176	12	C13H16NO2+
233.1541	2	C15H21O2+
243.1378	6	C16H19O2+
245.1411	4	C15H19NO2+
260.1646	48	C16H22NO2+
261.1599	12	C15H21N2O2+
303.2068	165	C18H27N2O2+
455.2906	811	C27H39N2O4+
