Mass spectrum: Prothioconazole-desthio; LC-ESI-QFT; MS2; CE: 35 NCE; R=35000; [M+H]+
Name: Prothioconazole-desthio
Name: 2-(1-chlorocyclopropyl)-1-(2-chlorophenyl)-3-(1,2,4-triazol-1-yl)propan-2-ol
Formula: C14H15Cl2N3O
Exact mass: 311.05922
SMILES: OC(Cc1ccccc1Cl)(Cn1cncn1)C1(Cl)CC1
InChI: InChI=1S/C14H15Cl2N3O/c15-12-4-2-1-3-11(12)7-14(20,13(16)5-6-13)8-19-10-17-9-18-19/h1-4,9-10,20H,5-8H2
Instrument: Q Exactive Plus Orbitrap Thermo Scientific
Instrument type: LC-ESI-QFT
Ms type: MS2
Ion mode: POSITIVE
Ionization: ESI
Fragmentation mode: HCD
Collision energy: 35  (nominal)
Resolution: 35000
Column name: Kinetex C18 EVO 2.6 um, 2.1x50 mm, precolumn 2.1x5 mm, Phenomenex
Retention time: 11.903 min
Base peak: 284.141
Precursor m/z: 312.0665
Precursor type: [M+H]+
m/z	relative intensity	assigned
56.0497	3	C3H6N+
57.0337	1	C3H5O+
65.0386	4	C5H5+
67.0543	3	C5H7+
70.0401	927	C2H4N3+
74.9997	3	C3H4Cl+
83.0491	3	C5H7O+
85.0887	2	C5H11N+
89.0153	2	C4H6Cl+
101.0153	2	C5H6Cl+
103.0542	6	C8H7+
113.0152	3	C6H6Cl+
115.0543	5	C9H7+
116.0621	4	C9H8+
125.0153	297	C7H6Cl+
128.0618	3	C10H8+
129.0698	2	C10H9+
130.0776	2	C10H10+
137.0153	2	C8H6Cl+
139.0309	19	C8H8Cl+
141.0698	3	C11H9+
142.0778	8	C11H10+
143.0857	1	C11H11+
144.0935	3	C11H12+
149.0154	2	C9H6Cl+
151.0309	15	C9H8Cl+
153.07	13	C12H9+
154.0777	18	C12H10+
155.0258	2	C8H8ClO+
158.9764	4	C7H5Cl2+
163.0307	3	C10H8Cl+
165.0466	2	C10H10Cl+
177.0465	6	C11H10Cl+
179.062	3	C11H12Cl+
189.0466	18	C12H10Cl+
196.992	1	C10H7Cl2+
225.0236	1	C12H11Cl2+
269.9486	3	C12Cl2N4+
312.0666	999	C14H16Cl2N3O+
