Mass spectrum: 3-Amino-1,2,4-triazole; LC-ESI-QFT; MS2; CE: 35 NCE; R=35000; [M+H]+
Name: 3-Amino-1,2,4-triazole
Name: 1H-1,2,4-triazol-5-amine
Formula: C2H4N4
Exact mass: 84.04360
SMILES: NC1=NNC=N1
InChI: InChI=1S/C2H4N4/c3-2-4-1-5-6-2/h1H,(H3,3,4,5,6)
Instrument: Q Exactive Plus Orbitrap Thermo Scientific
Instrument type: LC-ESI-QFT
Ms type: MS2
Ion mode: POSITIVE
Ionization: ESI
Fragmentation mode: HCD
Collision energy: 35  (nominal)
Resolution: 35000
Column name: Kinetex C18 EVO 2.6 um, 2.1x50 mm, precolumn 2.1x5 mm, Phenomenex
Retention time: 0.401 min
Base peak: 171.1853
Precursor m/z: 85.0509
Precursor type: [M+H]+
m/z	relative intensity	assigned
57.0449	32	C2H5N2+
58.0401	11	CH4N3+
85.0508	999	C2H5N4+
