Mass spectrum: Phenylbenzimidazole sulfonic acid; LC-ESI-QFT; MS2; CE: 35 NCE; R=35000; [M-H]-
Name: Phenylbenzimidazole sulfonic acid
Name: 2-phenyl-3H-benzimidazol-1-ium-5-sulfonate
Formula: C13H10N2O3S
Exact mass: 274.04121
SMILES: OS(=O)(=O)C1=CC=C2N=C(NC2=C1)C1=CC=CC=C1
InChI: InChI=1S/C13H10N2O3S/c16-19(17,18)10-6-7-11-12(8-10)15-13(14-11)9-4-2-1-3-5-9/h1-8H,(H,14,15)(H,16,17,18)
Instrument: Q Exactive Plus Orbitrap Thermo Scientific
Instrument type: LC-ESI-QFT
Ms type: MS2
Ion mode: NEGATIVE
Ionization: ESI
Fragmentation mode: HCD
Collision energy: 35  (nominal)
Resolution: 35000
Column name: Kinetex C18 EVO 2.6 um, 2.1x50 mm, precolumn 2.1x5 mm, Phenomenex
Retention time: 4.166 min
Base peak: 273.0339
Precursor m/z: 273.0339
Precursor type: [M-H]-
m/z	relative intensity	assigned
193.0771	752	C13H9N2-
208.0642	1	C13H8N2O-
209.0721	8	C13H9N2O-
273.034	999	C13H9N2O3S-
