Mass spectrum: 9-Acetylanthracene; LC-ESI-QFT; MS2; CE: 35 NCE; R=35000; [M+H]+
Name: 9-Acetylanthracene
Name: 9-Acetylanthracen
Name: 1-anthracen-9-ylethanone
Formula: C16H12O
Exact mass: 220.08882
SMILES: CC(=O)C1=C2C=CC=CC2=CC2=CC=CC=C12
InChI: InChI=1S/C16H12O/c1-11(17)16-14-8-4-2-6-12(14)10-13-7-3-5-9-15(13)16/h2-10H,1H3
Instrument: Q Exactive Plus Orbitrap Thermo Scientific
Instrument type: LC-ESI-QFT
Ms type: MS2
Ion mode: POSITIVE
Ionization: ESI
Fragmentation mode: HCD
Collision energy: 35  (nominal)
Resolution: 35000
Column name: Kinetex C18 EVO 2.6 um, 2.1x50 mm, precolumn 2.1x5 mm, Phenomenex
Retention time: 11.963 min
Base peak: 65.0597
Precursor m/z: 221.0961
Precursor type: [M+H]+
m/z	relative intensity	assigned
137.0598	2	C8H9O2+
162.055	1	C9H8NO2+
177.0695	1	C14H9+
178.0778	163	C14H10+
179.0855	471	C14H11+
193.1012	108	C15H13+
202.0776	6	C16H10+
203.0855	36	C16H11+
205.0651	2	C15H9O+
221.0961	999	C16H13O+
