Mass spectrum: Medroxyprogesterone; LC-ESI-QFT; MS2; CE: 35 NCE; R=35000; [M+H]+
Name: Medroxyprogesterone
Name: 17-acetyl-17-hydroxy-6,10,13-trimethyl-2,6,7,8,9,11,12,14,15,16-decahydro-1H-cyclopenta[a]phenanthren-3-one
Formula: C22H32O3
Exact mass: 344.23514
SMILES: CC1CC2C3CCC(O)(C(C)=O)C3(C)CCC2C2(C)CCC(=O)C=C12
InChI: InChI=1S/C22H32O3/c1-13-11-16-17(20(3)8-5-15(24)12-19(13)20)6-9-21(4)18(16)7-10-22(21,25)14(2)23/h12-13,16-18,25H,5-11H2,1-4H3
Instrument: Q Exactive Plus Orbitrap Thermo Scientific
Instrument type: LC-ESI-QFT
Ms type: MS2
Ion mode: POSITIVE
Ionization: ESI
Fragmentation mode: HCD
Collision energy: 35  (nominal)
Resolution: 35000
Column name: Kinetex C18 EVO 2.6 um, 2.1x50 mm, precolumn 2.1x5 mm, Phenomenex
Retention time: 12.203 min
Base peak: 345.2421
Precursor m/z: 345.2424
Precursor type: [M+H]+
m/z	relative intensity	assigned
55.018	2	C3H3O+
55.0544	3	C4H7+
67.0543	14	C5H7+
69.0335	1	C4H5O+
69.07	6	C5H9+
77.0387	1	C6H5+
79.0542	11	C6H7+
81.0699	13	C6H9+
83.0491	24	C5H7O+
85.0647	2	C5H9O+
87.044	3	C4H7O2+
91.0542	6	C7H7+
93.0698	22	C7H9+
95.0491	6	C6H7O+
95.0855	30	C7H11+
97.0648	383	C6H9O+
99.0803	2	C6H11O+
105.0698	19	C8H9+
107.0855	18	C8H11+
109.0647	10	C7H9O+
109.1011	8	C8H13+
111.0805	6	C7H11O+
117.0698	3	C9H9+
119.0855	23	C9H11+
121.0647	4	C8H9O+
121.1012	14	C9H13+
123.0804	865	C8H11O+
125.0962	1	C8H13O+
129.0695	2	C10H9+
131.0855	11	C10H11+
133.1011	17	C10H13+
135.0803	9	C9H11O+
135.1168	6	C10H15+
137.096	45	C9H13O+
143.0854	9	C11H11+
145.1011	23	C11H13+
147.0803	2	C10H11O+
147.1167	19	C11H15+
149.0962	6	C10H13O+
149.1325	4	C11H17+
151.1117	3	C10H15O+
155.0856	3	C12H11+
157.1011	10	C12H13+
159.1168	15	C12H15+
161.0961	6	C11H13O+
161.1324	13	C12H17+
163.1117	12	C11H15O+
163.1481	2	C12H19+
165.1274	1	C11H17O+
169.1012	5	C13H13+
171.1167	14	C13H15+
173.1324	26	C13H17+
175.1118	9	C12H15O+
175.1481	15	C13H19+
177.1273	13	C12H17O+
183.1168	6	C14H15+
185.0959	1	C13H13O+
185.1325	14	C14H17+
187.1119	5	C13H15O+
187.148	13	C14H19+
189.1273	11	C13H17O+
189.1637	4	C14H21+
191.1431	10	C13H19O+
195.1168	3	C15H15+
197.1323	11	C15H17+
199.1481	12	C15H19+
201.1638	3	C15H21+
203.1428	8	C14H19O+
203.1795	1	C15H23+
205.1587	11	C14H21O+
207.1178	1	C16H15+
209.1323	3	C16H17+
211.1482	8	C16H19+
213.1271	3	C15H17O+
213.1635	6	C16H21+
214.1351	7	C15H18O+
215.1431	14	C15H19O+
217.1589	6	C15H21O+
221.1324	1	C17H17+
223.1476	2	C17H19+
225.164	8	C17H21+
227.1431	1	C16H19O+
227.1794	10	C17H23+
229.159	4	C16H21O+
231.1743	4	C16H23O+
235.1484	1	C18H19+
237.1637	3	C18H21+
239.1426	6	C17H19O+
239.1794	3	C18H23+
241.1577	1	C17H21O+
241.1954	1	C18H25+
243.1743	3	C17H23O+
245.1897	2	C17H25O+
251.1797	8	C19H23+
253.1586	2	C18H21O+
255.1741	2	C18H23O+
257.1535	20	C17H21O2+
257.19	2	C18H25O+
259.2058	2	C18H27O+
265.1949	2	C20H25+
266.2028	3	C20H26+
267.1741	2	C19H23O+
267.2106	27	C20H27+
269.1897	8	C19H25O+
271.2056	1	C19H27O+
273.1843	1	C18H25O2+
275.1641	15	C17H23O3+
281.2271	1	C21H29+
283.2061	6	C20H27O+
284.2133	5	C20H28O+
285.2214	21	C20H29O+
287.2002	1	C19H27O2+
291.2109	5	C22H27+
299.2374	2	C21H31O+
303.2318	2	C20H31O2+
309.2213	22	C22H29O+
327.2319	34	C22H31O2+
345.2424	999	C22H33O3+
