Mass spectrum: Isophorone diamine; LC-ESI-QFT; MS2; CE: 35 NCE; R=35000; [M+H]+
Name: Isophorone diamine
Name: 3-(aminomethyl)-3,5,5-trimethylcyclohexan-1-amine
Formula: C10H22N2
Exact mass: 170.17830
SMILES: CC1(C)CC(N)CC(C)(CN)C1
InChI: InChI=1S/C10H22N2/c1-9(2)4-8(12)5-10(3,6-9)7-11/h8H,4-7,11-12H2,1-3H3
Instrument: Q Exactive Plus Orbitrap Thermo Scientific
Instrument type: LC-ESI-QFT
Ms type: MS2
Ion mode: POSITIVE
Ionization: ESI
Fragmentation mode: HCD
Collision energy: 35  (nominal)
Resolution: 35000
Column name: Kinetex C18 EVO 2.6 um, 2.1x50 mm, precolumn 2.1x5 mm, Phenomenex
Retention time: 0.394 min
Base peak: 114.1276
Precursor m/z: 171.1856
Precursor type: [M+H]+
m/z	relative intensity	assigned
57.07	5	C4H9+
67.0543	9	C5H7+
69.0699	13	C5H9+
71.0856	14	C5H11+
79.0542	3	C6H7+
81.0699	116	C6H9+
83.0855	1	C6H11+
93.0697	2	C7H9+
95.0855	106	C7H11+
107.0853	1	C8H11+
109.1012	7	C8H13+
111.0804	1	C7H11O+
125.096	1	C8H13O+
137.1324	236	C10H17+
154.1589	999	C10H20N+
171.1855	584	C10H23N2+
