Mass spectrum: 6-Bromo-2(1H)-quinolinone; LC-ESI-QFT; MS2; CE: 35 NCE; R=35000; [M+H]+
Name: 6-Bromo-2(1H)-quinolinone
Name: 6-Bromoquinolin-2(1H)-one
Name: 6-Bromo-1H-quinolin-2-one
Formula: C9H6BrNO
Exact mass: 222.96328
SMILES: BrC1=CC2=C(NC(=O)C=C2)C=C1
InChI: InChI=1S/C9H6BrNO/c10-7-2-3-8-6(5-7)1-4-9(12)11-8/h1-5H,(H,11,12)
Instrument: Q Exactive Plus Orbitrap Thermo Scientific
Instrument type: LC-ESI-QFT
Ms type: MS2
Ion mode: POSITIVE
Ionization: ESI
Fragmentation mode: HCD
Collision energy: 35  (nominal)
Resolution: 35000
Column name: Kinetex C18 EVO 2.6 um, 2.1x50 mm, precolumn 2.1x5 mm, Phenomenex
Retention time: 8.964 min
Base peak: 223.9705
Precursor m/z: 223.9706
Precursor type: [M+H]+
m/z	relative intensity	assigned
127.0418	13	C9H5N+
145.0524	5	C9H7NO+
205.9602	104	C9H5BrN+
223.9708	999	C9H7BrNO+
