Mass spectrum: Benzophenone-3; LC-ESI-QFT; MS2; CE: 35 NCE; R=35000; [M+H]+
Name: Benzophenone-3
Name: Oxybenzone
Name: (2-hydroxy-4-methoxyphenyl)-phenylmethanone
Formula: C14H12O3
Exact mass: 228.07864
SMILES: COc1ccc(C(=O)c2ccccc2)c(O)c1
InChI: InChI=1S/C14H12O3/c1-17-11-7-8-12(13(15)9-11)14(16)10-5-3-2-4-6-10/h2-9,15H,1H3
Instrument: Q Exactive Plus Orbitrap Thermo Scientific
Instrument type: LC-ESI-QFT
Ms type: MS2
Ion mode: POSITIVE
Ionization: ESI
Fragmentation mode: HCD
Collision energy: 35  (nominal)
Resolution: 35000
Column name: Kinetex C18 EVO 2.6 um, 2.1x50 mm, precolumn 2.1x5 mm, Phenomenex
Retention time: 11.957 min
Base peak: 229.0857
Precursor m/z: 229.0859
Precursor type: [M+H]+
m/z	relative intensity	assigned
53.0388	2	C4H5+
65.0387	1	C5H5+
67.0543	1	C5H7+
77.0386	13	C6H5+
81.0335	1	C5H5O+
94.0413	2	C6H6O+
95.0491	49	C6H7O+
105.0335	454	C7H5O+
108.0204	3	C6H4O2+
123.0441	6	C7H7O2+
141.0547	1	C7H9O3+
151.0389	999	C8H7O3+
168.0567	1	C12H8O+
211.0753	1	C14H11O2+
229.0859	842	C14H13O3+
