Mass spectrum: 4,4`-Thiodiphenol; LC-ESI-QFT; MS2; CE: 35 NCE; R=35000; [M-H]-
Name: 4,4`-Thiodiphenol
Name: 4-(4-hydroxyphenyl)sulfanylphenol
Formula: C12H10O2S
Exact mass: 218.04015
SMILES: OC1=CC=C(SC2=CC=C(O)C=C2)C=C1
InChI: InChI=1S/C12H10O2S/c13-9-1-5-11(6-2-9)15-12-7-3-10(14)4-8-12/h1-8,13-14H
Instrument: Q Exactive Plus Orbitrap Thermo Scientific
Instrument type: LC-ESI-QFT
Ms type: MS2
Ion mode: NEGATIVE
Ionization: ESI
Fragmentation mode: HCD
Collision energy: 35  (nominal)
Resolution: 35000
Column name: Kinetex C18 EVO 2.6 um, 2.1x50 mm, precolumn 2.1x5 mm, Phenomenex
Retention time: 9.989 min
Base peak: 91.0021
Precursor m/z: 217.0329
Precursor type: [M-H]-
m/z	relative intensity	assigned
123.9983	999	C6H4OS-
217.0329	806	C12H9O2S-
