Mass spectrum: Benzo[g]quinoline; LC-ESI-QFT; MS2; CE: 35 NCE; R=35000; [M+H]+
Name: Benzo[g]quinoline
Name: Benzo[h]chinolin
Formula: C13H9N
Exact mass: 179.07350
SMILES: C1=CC2=CC3=CC=CN=C3C=C2C=C1
InChI: InChI=1S/C13H9N/c1-2-5-11-9-13-12(6-3-7-14-13)8-10(11)4-1/h1-9H
Instrument: Q Exactive Plus Orbitrap Thermo Scientific
Instrument type: LC-ESI-QFT
Ms type: MS2
Ion mode: POSITIVE
Ionization: ESI
Fragmentation mode: HCD
Collision energy: 35  (nominal)
Resolution: 35000
Column name: Kinetex C18 EVO 2.6 um, 2.1x50 mm, precolumn 2.1x5 mm, Phenomenex
Retention time: 9.259 min
Base peak: 180.0805
Precursor m/z: 180.0808
Precursor type: [M+H]+
m/z	relative intensity	assigned
152.0616	1	C12H8+
179.0722	1	C13H9N+
180.0806	999	C13H10N+
