Mass spectrum: Imazalil; LC-ESI-QFT; MS2; CE: 35 NCE; R=35000; [M+H]+
Name: Imazalil
Name: 1-[2-(2,4-dichlorophenyl)-2-prop-2-enoxyethyl]imidazole
Formula: C14H14Cl2N2O
Exact mass: 296.04832
SMILES: ClC1=CC=C(C(CN2C=CN=C2)OCC=C)C(Cl)=C1
InChI: InChI=1S/C14H14Cl2N2O/c1-2-7-19-14(9-18-6-5-17-10-18)12-4-3-11(15)8-13(12)16/h2-6,8,10,14H,1,7,9H2
Instrument: Q Exactive Plus Orbitrap Thermo Scientific
Instrument type: LC-ESI-QFT
Ms type: MS2
Ion mode: POSITIVE
Ionization: ESI
Fragmentation mode: HCD
Collision energy: 35  (nominal)
Resolution: 35000
Column name: Kinetex C18 EVO 2.6 um, 2.1x50 mm, precolumn 2.1x5 mm, Phenomenex
Retention time: 8.500 min
Base peak: 297.0555
Precursor m/z: 297.0556
Precursor type: [M+H]+
m/z	relative intensity	assigned
53.0024	5	ClH4N+
67.0417	1	C4H5N+
69.0448	159	C3H5N2+
81.0448	36	C4H5N2+
82.0526	3	C4H6N2+
82.0652	7	C5H8N+
109.0761	55	C6H9N2+
129.07	2	C10H9+
137.0153	2	C8H6Cl+
138.0227	1	C8H7Cl+
141.0699	7	C11H9+
149.0154	2	C9H6Cl+
150.0232	4	C9H7Cl+
158.9764	245	C7H5Cl2+
163.031	1	C10H8Cl+
164.0385	6	C10H9Cl+
172.992	53	C8H7Cl2+
175.0308	3	C11H8Cl+
176.0388	62	C11H9Cl+
182.9763	2	C9H5Cl2+
184.9921	11	C9H7Cl2+
186.9713	5	C8H5Cl2O+
199.0076	7	C10H9Cl2+
200.9869	79	C9H7Cl2O+
203.0371	2	C11H8ClN2+
211.0075	8	C11H9Cl2+
229.0183	3	C11H11Cl2O+
255.0087	70	C11H9Cl2N2O+
297.0558	999	C14H15Cl2N2O+
