Mass spectrum: Mecoprop; LC-ESI-QFT; MS2; CE: 35 NCE; R=35000; [M-H]-
Name: Mecoprop
Name: 2-(4-chloro-2-methylphenoxy)propanoic acid
Formula: C10H11ClO3
Exact mass: 214.03967
SMILES: CC(Oc1ccc(Cl)cc1C)C(O)=O
InChI: InChI=1S/C10H11ClO3/c1-6-5-8(11)3-4-9(6)14-7(2)10(12)13/h3-5,7H,1-2H3,(H,12,13)
Instrument: Q Exactive Plus Orbitrap Thermo Scientific
Instrument type: LC-ESI-QFT
Ms type: MS2
Ion mode: NEGATIVE
Ionization: ESI
Fragmentation mode: HCD
Collision energy: 35  (nominal)
Resolution: 35000
Column name: Kinetex C18 EVO 2.6 um, 2.1x50 mm, precolumn 2.1x5 mm, Phenomenex
Retention time: 11.245 min
Base peak: 332.0902
Precursor m/z: 213.0324
Precursor type: [M-H]-
m/z	relative intensity	assigned
141.0112	999	C7H6ClO-
169.0425	2	C9H10ClO-
213.0324	17	C10H10ClO3-
