Mass spectrum: 1-Naphthol-5-sulfonic acid; LC-ESI-QFT; MS2; CE: 35 NCE; R=35000; [M-H]-
Name: 1-Naphthol-5-sulfonic acid
Name: 5-hydroxynaphthalene-1-sulfonic acid
Formula: C10H8O4S
Exact mass: 224.01433
SMILES: OC1=CC=CC2=C(C=CC=C12)S(O)(=O)=O
InChI: InChI=1S/C10H8O4S/c11-9-5-1-4-8-7(9)3-2-6-10(8)15(12,13)14/h1-6,11H,(H,12,13,14)
Instrument: Q Exactive Plus Orbitrap Thermo Scientific
Instrument type: LC-ESI-QFT
Ms type: MS2
Ion mode: NEGATIVE
Ionization: ESI
Fragmentation mode: HCD
Collision energy: 35  (nominal)
Resolution: 35000
Column name: Kinetex C18 EVO 2.6 um, 2.1x50 mm, precolumn 2.1x5 mm, Phenomenex
Retention time: 2.371 min
Base peak: 223.0071
Precursor m/z: 223.0071
Precursor type: [M-H]-
m/z	relative intensity	assigned
143.0502	33	C10H7O-
158.0374	7	C10H6O2-
159.0451	109	C10H7O2-
221.9993	1	C10H6O4S-
223.007	999	C10H7O4S-
