Mass spectrum: Dichlorprop; LC-ESI-QFT; MS2; CE: 35 NCE; R=35000; [M-H]-
Name: Dichlorprop
Name: 2-(2,4-dichlorophenoxy)propanoic acid
Formula: C9H8Cl2O3
Exact mass: 233.98505
SMILES: CC(Oc1ccc(Cl)cc1Cl)C(O)=O
InChI: InChI=1S/C9H8Cl2O3/c1-5(9(12)13)14-8-3-2-6(10)4-7(8)11/h2-5H,1H3,(H,12,13)
Instrument: Q Exactive Plus Orbitrap Thermo Scientific
Instrument type: LC-ESI-QFT
Ms type: MS2
Ion mode: NEGATIVE
Ionization: ESI
Fragmentation mode: HCD
Collision energy: 35  (nominal)
Resolution: 35000
Column name: Kinetex C18 EVO 2.6 um, 2.1x50 mm, precolumn 2.1x5 mm, Phenomenex
Retention time: 11.207 min
Base peak: 213.0323
Precursor m/z: 232.9778
Precursor type: [M-H]-
m/z	relative intensity	assigned
124.9795	33	C6H2ClO-
160.9566	999	C6H3Cl2O-
232.9776	6	C9H7Cl2O3-
