Mass spectrum: Clopyralid; LC-ESI-QFT; MS2; CE: 35 NCE; R=35000; [M+H]+
Name: Clopyralid
Name: 3,6-Dichloropicolinic acid
Name: 3,6-dichloropyridine-2-carboxylic acid
Formula: C6H3Cl2NO2
Exact mass: 190.95408
SMILES: OC(=O)c1nc(Cl)ccc1Cl
InChI: InChI=1S/C6H3Cl2NO2/c7-3-1-2-4(8)9-5(3)6(10)11/h1-2H,(H,10,11)
Instrument: Q Exactive Plus Orbitrap Thermo Scientific
Instrument type: LC-ESI-QFT
Ms type: MS2
Ion mode: POSITIVE
Ionization: ESI
Fragmentation mode: HCD
Collision energy: 35  (nominal)
Resolution: 35000
Column name: Kinetex C18 EVO 2.6 um, 2.1x50 mm, precolumn 2.1x5 mm, Phenomenex
Retention time: 2.478 min
Base peak: 189.982
Precursor m/z: 191.9614
Precursor type: [M+H]+
m/z	relative intensity	assigned
72.9841	2	C3H2Cl+
74.0153	2	C6H2+
75.0232	1	C6H3+
84.984	2	C4H2Cl+
108.9841	2	C6H2Cl+
109.9791	2	C5HClN+
117.9457	2	Cl2H2NO2+
127.9897	11	C5H3ClNO+
136.9669	1	C6ClNO+
139.0057	7	C6H4ClN2+
145.9558	31	C5H2Cl2N+
159.9459	10	C4Cl2N3+
163.9663	365	C5H4Cl2NO+
173.951	16	C6H2Cl2NO+
177.9563	31	C4H2Cl2N3O+
191.9613	999	C6H4Cl2NO2+
193.9653	1	C5H4Cl2N2O2+
