Mass spectrum: Tris(2-chloroethyl)phosphate; LC-ESI-QFT; MS2; CE: 35 NCE; R=35000; [M+H]+
Name: Tris(2-chloroethyl)phosphate
Name: Tris(2-chloroethyl) phosphate
Formula: C6H12Cl3O4P
Exact mass: 283.95388
SMILES: ClCCOP(=O)(OCCCl)OCCCl
InChI: InChI=1S/C6H12Cl3O4P/c7-1-4-11-14(10,12-5-2-8)13-6-3-9/h1-6H2
Instrument: Q Exactive Plus Orbitrap Thermo Scientific
Instrument type: LC-ESI-QFT
Ms type: MS2
Ion mode: POSITIVE
Ionization: ESI
Fragmentation mode: HCD
Collision energy: 35  (nominal)
Resolution: 35000
Column name: Kinetex C18 EVO 2.6 um, 2.1x50 mm, precolumn 2.1x5 mm, Phenomenex
Retention time: 9.099 min
Base peak: 284.9612
Precursor m/z: 284.9612
Precursor type: [M+H]+
m/z	relative intensity	assigned
59.0493	4	C3H7O+
62.9998	999	C2H4Cl+
80.9735	1	H2O3P+
98.9842	794	H4O4P+
116.9504	4	CH3Cl2O2+
116.9948	2	CH6ClO4+
124.9999	372	C2H6O4P+
131.0107	1	C2H8ClO4+
160.9766	384	C2H7ClO4P+
186.9923	86	C5H9Cl2O3+
222.9689	477	C5H10Cl3O3+
248.9847	5	C6H12Cl2O4P+
284.9614	667	C6H13Cl3O4P+
