Mass spectrum: Trenbolone; LC-ESI-QFT; MS2; CE: 35 NCE; R=35000; [M+H]+
Name: Trenbolone
Name: 17-hydroxy-13-methyl-2,6,7,8,14,15,16,17-octahydro-1H-cyclopenta[a]phenanthren-3-one
Formula: C18H22O2
Exact mass: 270.16198
SMILES: CC12C=CC3=C4CCC(=O)C=C4CCC3C1CCC2O
InChI: InChI=1S/C18H22O2/c1-18-9-8-14-13-5-3-12(19)10-11(13)2-4-15(14)16(18)6-7-17(18)20/h8-10,15-17,20H,2-7H2,1H3
Instrument: Q Exactive Plus Orbitrap Thermo Scientific
Instrument type: LC-ESI-QFT
Ms type: MS2
Ion mode: POSITIVE
Ionization: ESI
Fragmentation mode: HCD
Collision energy: 35  (nominal)
Resolution: 35000
Column name: Kinetex C18 EVO 2.6 um, 2.1x50 mm, precolumn 2.1x5 mm, Phenomenex
Retention time: 10.781 min
Base peak: 271.1689
Precursor m/z: 271.1693
Precursor type: [M+H]+
m/z	relative intensity	assigned
55.0545	1	C4H7+
67.0543	3	C5H7+
69.07	1	C5H9+
79.0543	3	C6H7+
81.0699	4	C6H9+
83.0492	20	C5H7O+
85.0648	1	C5H9O+
91.0543	5	C7H7+
93.0699	4	C7H9+
95.0856	3	C7H11+
97.0649	1	C6H9O+
105.0699	7	C8H9+
107.0492	15	C7H7O+
107.0856	6	C8H11+
109.0649	3	C7H9O+
109.1012	2	C8H13+
117.0699	4	C9H9+
119.0856	4	C9H11+
121.0648	7	C8H9O+
121.1012	1	C9H13+
123.0806	1	C8H11O+
128.0623	1	C10H8+
129.0699	5	C10H9+
131.0856	8	C10H11+
133.0648	16	C9H9O+
133.1013	4	C10H13+
135.0805	4	C9H11O+
141.0698	6	C11H9+
143.0856	10	C11H11+
145.0649	5	C10H9O+
145.1012	12	C11H13+
147.0805	6	C10H11O+
148.0882	2	C10H12O+
149.0962	1	C10H13O+
155.0855	7	C12H11+
156.0934	1	C12H12+
157.0649	14	C11H9O+
157.1013	4	C12H13+
159.0805	20	C11H11O+
159.1168	1	C12H15+
161.0962	4	C11H13O+
165.0699	3	C13H9+
166.0778	2	C13H10+
167.0856	6	C13H11+
168.0935	1	C13H12+
169.1012	10	C13H13+
171.0806	5	C12H11O+
171.1169	6	C13H15+
173.0963	5	C12H13O+
178.0779	3	C14H10+
179.0856	10	C14H11+
180.0937	1	C14H12+
181.1012	6	C14H13+
183.0805	4	C13H11O+
183.117	9	C14H15+
184.0884	4	C13H12O+
185.0963	9	C13H13O+
185.1325	1	C14H17+
186.1042	2	C13H14O+
187.1119	5	C13H15O+
189.1275	5	C13H17O+
192.0932	1	C15H12+
193.1013	8	C15H13+
194.109	1	C15H14+
195.117	9	C15H15+
196.088	1	C14H12O+
196.1248	1	C15H16+
197.0962	21	C14H13O+
197.1326	3	C15H17+
198.104	11	C14H14O+
199.1119	81	C14H15O+
200.1196	6	C14H16O+
205.1014	1	C16H13+
206.1091	1	C16H14+
207.117	5	C16H15+
209.1326	7	C16H17+
210.1046	1	C15H14O+
211.1118	16	C15H15O+
211.1483	5	C16H19+
212.1197	6	C15H16O+
213.1273	4	C15H17O+
214.1353	13	C15H18O+
215.1431	2	C15H19O+
220.1247	4	C17H16+
223.1122	1	C16H15O+
223.1483	1	C17H19+
224.1199	5	C16H16O+
225.1275	14	C16H17O+
225.1637	3	C17H21+
227.1431	32	C16H19O+
228.1517	1	C16H20O+
233.1323	1	C18H17+
235.1482	12	C18H19+
238.1353	10	C17H18O+
242.1301	1	C16H18O2+
243.1743	2	C17H23O+
253.1588	107	C18H21O+
271.1694	999	C18H23O2+
