Mass spectrum: Estrone-3-sulfate; LC-ESI-QFT; MS2; CE: 35 NCE; R=35000; [M-H]-
Name: Estrone-3-sulfate
Name: [6,7-3H] E1S
Name: (13-methyl-17-oxo-7,8,9,11,12,14,15,16-octahydro-6H-cyclopenta[a]phenanthren-3-yl) hydrogen sulfate
Formula: C18H22O5S
Exact mass: 350.11879
SMILES: CC12CCC3C(CCC4=CC(OS(O)(=O)=O)=CC=C34)C1CCC2=O
InChI: InChI=1S/C18H22O5S/c1-18-9-8-14-13-5-3-12(23-24(20,21)22)10-11(13)2-4-15(14)16(18)6-7-17(18)19/h3,5,10,14-16H,2,4,6-9H2,1H3,(H,20,21,22)
Instrument: Q Exactive Plus Orbitrap Thermo Scientific
Instrument type: LC-ESI-QFT
Ms type: MS2
Ion mode: NEGATIVE
Ionization: ESI
Fragmentation mode: HCD
Collision energy: 35  (nominal)
Resolution: 35000
Column name: Kinetex C18 EVO 2.6 um, 2.1x50 mm, precolumn 2.1x5 mm, Phenomenex
Retention time: 12.202 min
Base peak: 349.1113
Precursor m/z: 349.1115
Precursor type: [M-H]-
m/z	relative intensity	assigned
145.0657	4	C10H9O-
269.1546	594	C18H21O2-
285.15	1	C18H21O3-
349.1113	999	C18H21O5S-
