Mass spectrum: Azoxystrobin; LC-ESI-QFT; MS2; CE: 35 NCE; R=35000; [M+H]+
Name: Azoxystrobin
Name: Methyl (E)-2-[2-[6-(2-cyanophenoxy)pyrimidin-4-YL]oxyphenyl]-3-methoxy-prop-2-enoate
Formula: C22H17N3O5
Exact mass: 403.1168206
SMILES: CO/C=C(\C1=CC=CC=C1OC2=NC=NC(=C2)OC3=CC=CC=C3C#N)/C(=O)OC
InChI: InChI=1S/C22H17N3O5/c1-27-13-17(22(26)28-2)16-8-4-6-10-19(16)30-21-11-20(24-14-25-21)29-18-9-5-3-7-15(18)12-23/h3-11,13-14H,1-2H3/b17-13+
Instrument: Q Exactive Plus Orbitrap Thermo Scientific
Instrument type: LC-ESI-QFT
Ms type: MS2
Ion mode: POSITIVE
Ionization: ESI
Fragmentation mode: HCD
Collision energy: 35  (nominal)
Resolution: 35000
Column name: Kinetex C18 EVO 2.6 um, 2.1x50 mm, precolumn 2.1x5 mm, Phenomenex
Retention time: 11.316 min
Base peak: 404.1238
Precursor m/z: 404.1241
Precursor type: [M+H]+
m/z	relative intensity	assigned
82.0288	2	C4H4NO+
83.0128	2	C4H3O2+
89.0385	3	C7H5+
91.0543	2	C7H7+
103.0542	2	C8H7+
106.065	2	C7H8N+
107.0491	4	C7H7O+
114.0338	2	C8H4N+
116.0494	2	C8H6N+
120.0443	7	C7H6NO+
121.0648	2	C8H9O+
127.0416	1	C9H5N+
129.0447	12	C8H5N2+
130.04	6	C7H4N3+
130.0525	1	C8H6N2+
131.0491	2	C9H7O+
132.0444	2	C8H6NO+
133.0284	1	C8H5O2+
133.0522	11	C8H7NO+
134.06	38	C8H8NO+
141.0448	4	C9H5N2+
143.0368	2	C9H5NO+
143.0603	19	C9H7N2+
144.0447	1	C9H6NO+
145.0284	14	C9H5O2+
145.0521	10	C9H7NO+
146.0601	2	C9H8NO+
147.0441	1	C9H7O2+
155.0605	3	C10H7N2+
156.0443	34	C10H6NO+
157.0284	1	C10H5O2+
159.0553	3	C9H7N2O+
160.0392	3	C9H6NO2+
161.071	1	C9H9N2O+
162.0309	1	C9H6O3+
162.0548	4	C9H8NO2+
169.0395	11	C10H5N2O+
170.0474	2	C10H6N2O+
170.06	2	C11H8NO+
171.0313	5	C10H5NO2+
171.0552	13	C10H7N2O+
172.0392	50	C10H6NO2+
173.047	6	C10H7NO2+
175.0392	1	C10H7O3+
177.0544	8	C10H9O3+
182.0476	4	C11H6N2O+
182.0714	8	C11H8N3+
183.0553	73	C11H7N2O+
184.0395	2	C11H6NO2+
185.0234	2	C11H5O3+
186.0549	2	C11H8NO2+
186.0664	1	C10H8N3O+
187.0501	3	C10H7N2O2+
197.071	1	C12H9N2O+
199.0501	12	C11H7N2O2+
200.0341	19	C11H6NO3+
201.042	30	C11H7NO3+
201.0658	15	C11H9N2O2+
202.0498	1	C11H8NO3+
207.0553	2	C13H7N2O+
210.0423	24	C12H6N2O2+
210.0661	10	C12H8N3O+
211.0501	4	C12H7N2O2+
212.0341	1	C12H6NO3+
216.0656	29	C12H10NO3+
227.0453	1	C12H7N2O3+
231.0919	2	C16H11N2+
232.0757	1	C16H10NO+
233.0711	1	C15H9N2O+
242.0319	10	C12H6N2O4+
244.0872	2	C16H10N3+
245.0707	2	C16H9N2O+
245.0951	2	C16H11N3+
246.079	4	C16H10N2O+
247.0868	1	C16H11N2O+
256.0865	1	C17H10N3+
258.0795	1	C17H10N2O+
259.0866	2	C17H11N2O+
260.0706	1	C17H10NO2+
261.0665	1	C16H9N2O2+
261.0787	2	C17H11NO2+
261.1025	1	C17H13N2O+
262.0864	2	C17H12NO2+
271.0868	2	C18H11N2O+
272.0706	1	C18H10NO2+
272.082	21	C17H10N3O+
273.0659	12	C17H9N2O2+
273.0894	20	C17H11N3O+
274.0735	3	C17H10N2O2+
275.0818	4	C17H11N2O2+
284.0818	2	C18H10N3O+
285.0665	1	C18H9N2O2+
286.0735	2	C18H10N2O2+
287.0813	14	C18H11N2O2+
288.066	4	C18H10NO3+
288.0892	1	C18H12N2O2+
288.1134	3	C18H14N3O+
289.0968	5	C18H13N2O2+
299.0809	1	C19H11N2O2+
300.0766	22	C18H10N3O2+
301.0841	45	C18H11N3O2+
303.0762	13	C18H11N2O3+
312.0767	5	C19H10N3O2+
313.0608	2	C19H9N2O3+
314.0927	1	C19H12N3O2+
315.0768	2	C19H11N2O3+
315.1002	8	C19H13N3O2+
316.1082	45	C19H14N3O2+
317.0923	6	C19H13N2O3+
328.0717	63	C19H10N3O3+
329.0795	256	C19H11N3O3+
340.0713	1	C20H10N3O3+
344.103	289	C20H14N3O3+
372.098	999	C21H14N3O4+
404.1241	48	C22H18N3O5+
