Mass spectrum: Metolachlor ESA; LC-ESI-QFT; MS2; CE: 35 NCE; R=35000; [M+H]+
Name: Metolachlor ESA
Name: 2-[2-ethyl-N-(1-methoxypropan-2-yl)-6-methylanilino]-2-oxoethanesulfonic acid
Formula: C15H23NO5S
Exact mass: 329.12969
SMILES: CCC1=CC=CC(C)=C1N(C(C)COC)C(=O)CS(O)(=O)=O
InChI: InChI=1S/C15H23NO5S/c1-5-13-8-6-7-11(2)15(13)16(12(3)9-21-4)14(17)10-22(18,19)20/h6-8,12H,5,9-10H2,1-4H3,(H,18,19,20)
Instrument: Q Exactive Plus Orbitrap Thermo Scientific
Instrument type: LC-ESI-QFT
Ms type: MS2
Ion mode: POSITIVE
Ionization: ESI
Fragmentation mode: HCD
Collision energy: 35  (nominal)
Resolution: 35000
Column name: Kinetex C18 EVO 2.6 um, 2.1x50 mm, precolumn 2.1x5 mm, Phenomenex
Retention time: 12.107 min
Base peak: 330.137
Precursor m/z: 330.137
Precursor type: [M+H]+
m/z	relative intensity	assigned
73.0649	40	C4H9O+
82.0652	4	C5H8N+
108.0809	2	C7H10N+
117.0701	1	C9H9+
120.0808	3	C8H10N+
131.0732	1	C9H9N+
132.0808	13	C9H10N+
133.0888	5	C9H11N+
133.1012	1	C10H13+
134.0965	15	C9H12N+
135.1043	1	C9H13N+
136.1121	17	C9H14N+
143.0856	6	C11H11+
144.0808	8	C10H10N+
145.0887	5	C10H11N+
145.1012	2	C11H13+
146.0965	30	C10H12N+
148.0757	1	C9H10NO+
148.1121	6	C10H14N+
158.0965	8	C11H12N+
158.1091	5	C12H14+
159.1044	8	C11H13N+
160.1121	187	C11H14N+
162.0914	1	C10H12NO+
174.1279	84	C12H16N+
175.1357	32	C12H17N+
176.1435	76	C12H18N+
188.1071	12	C12H14NO+
188.1434	2	C13H18N+
202.1227	315	C13H16NO+
216.1389	2	C8H24O4S+
217.1462	10	C14H19NO+
218.1542	3	C14H20NO+
232.1331	2	C14H18NO2+
234.1491	10	C14H20NO2+
240.069	1	C11H14NO3S+
258.0796	7	C11H16NO4S+
280.0998	3	C14H18NO3S+
298.111	999	C14H20NO4S+
330.1372	199	C15H24NO5S+
