Mass spectrum: Acridinone; LC-ESI-QFT; MS2; CE: 35 NCE; R=35000; [M-H]-
Name: Acridinone
Name: 1-Acridinol
Name: 10H-acridin-1-one
Formula: C13H9NO
Exact mass: 195.06841
SMILES: O=c1cccc2[nH]c3ccccc3cc12
InChI: InChI=1S/C13H9NO/c15-13-7-3-6-12-10(13)8-9-4-1-2-5-11(9)14-12/h1-8,14H
Instrument: Q Exactive Plus Orbitrap Thermo Scientific
Instrument type: LC-ESI-QFT
Ms type: MS2
Ion mode: NEGATIVE
Ionization: ESI
Fragmentation mode: HCD
Collision energy: 35  (nominal)
Resolution: 35000
Column name: Kinetex C18 EVO 2.6 um, 2.1x50 mm, precolumn 2.1x5 mm, Phenomenex
Retention time: 9.135 min
Base peak: 194.0611
Precursor m/z: 194.0611
Precursor type: [M-H]-
m/z	relative intensity	assigned
194.0611	999	C13H8NO-
