Mass spectrum: Efavirenz; LC-ESI-QFT; MS2; CE: 35 NCE; R=35000; [M+H]+
Name: Efavirenz
Name: (4S)-6-chloro-4-(2-cyclopropylethynyl)-4-(trifluoromethyl)-1H-3,1-benzoxazin-2-one
Formula: C14H9ClF3NO2
Exact mass: 315.02739
SMILES: FC(F)(F)[C@]1(OC(=O)NC2=C1C=C(Cl)C=C2)C#CC1CC1
InChI: InChI=1S/C14H9ClF3NO2/c15-9-3-4-11-10(7-9)13(14(16,17)18,21-12(20)19-11)6-5-8-1-2-8/h3-4,7-8H,1-2H2,(H,19,20)/t13-/m0/s1
Instrument: Q Exactive Plus Orbitrap Thermo Scientific
Instrument type: LC-ESI-QFT
Ms type: MS2
Ion mode: POSITIVE
Ionization: ESI
Fragmentation mode: HCD
Collision energy: 35  (nominal)
Resolution: 35000
Column name: Kinetex C18 EVO 2.6 um, 2.1x50 mm, precolumn 2.1x5 mm, Phenomenex
Retention time: 12.374 min
Base peak: 316.0345
Precursor m/z: 316.0347
Precursor type: [M+H]+
m/z	relative intensity	assigned
50.0153	2	C4H2+
51.0232	23	C4H3+
53.0388	610	C4H5+
81.0336	8	C5H5O+
138.0277	3	C8H4F2+
141.0699	2	C11H9+
142.0776	3	C11H10+
151.0184	23	C8H6ClN+
154.065	8	C11H8N+
164.0261	21	C9H7ClN+
166.0651	20	C12H8N+
167.073	136	C12H9N+
168.0808	730	C12H10N+
170.0527	7	C12H7F+
174.0104	8	C10H5ClN+
175.0184	16	C10H6ClN+
177.057	3	C13H7N+
182.0168	6	C9H6ClFN+
182.0338	3	C10H5F3+
183.9957	2	C11HFO2+
184.9963	2	C9H4ClF2+
185.0448	37	C9H6F3N+
185.0637	9	C12H8FN+
188.0262	126	C11H7ClN+
189.0384	53	C11H5F2N+
192.0013	14	C10H4ClFN+
195.048	12	C13H6FN+
196.0561	7	C13H7FN+
197.0637	39	C13H8FN+
198.0525	8	C10H7F3N+
198.0711	7	C13H9FN+
200.0073	21	C9H5ClF2N+
200.0263	3	C12H7ClN+
201.034	164	C12H8ClN+
202.0417	158	C12H9ClN+
203.0497	235	C12H10ClN+
204.0015	3	C11H2F2O2+
206.0165	4	C14H3FO+
206.0412	8	C11H6F2NO+
208.0375	2	C11H5F3N+
209.0446	24	C11H6F3N+
210.0115	8	C10H6ClFNO+
212.0073	70	C10H5ClF2N+
212.0168	3	C3H8ClF3N2O3+
214.0464	2	C13H6F2N+
215.0542	40	C13H7F2N+
216.0368	3	C11H4F2N3+
216.062	69	C13H8F2N+
217.0699	94	C13H9F2N+
218.0367	3	C12H9ClNO+
219.0247	16	C12H7ClFN+
220.0136	94	C9H6ClF3N+
220.0322	7	C12H8ClFN+
222.0526	170	C12H7F3N+
223.0426	4	C14H6FNO+
224.0073	425	C11H5ClF2N+
226.0233	2	C11H5F3O2+
228.0213	4	C13H7ClNO+
229.029	25	C13H8ClNO+
230.0169	44	C13H6ClFN+
230.0356	2	C13H9ClNO+
231.025	2	C13H5F2O2+
232.0138	479	C10H6ClF3N+
232.0321	261	C13H8ClFN+
235.0603	49	C13H8F3N+
236.0683	142	C13H9F3N+
237.0153	59	C12H6ClF2N+
237.0761	323	C13H10F3N+
239.0308	10	C12H8ClF2N+
243.049	3	C14H7F2NO+
244.0137	999	C11H6ClF3N+
247.0397	9	C13H10ClNO2+
248.0269	8	C13H8ClFNO+
250.0231	189	C13H7ClF2N+
251.0305	2	C13H8ClF2N+
252.0387	163	C13H9ClF2N+
256.0132	8	C12H6ClF3N+
257.0211	27	C12H7ClF3N+
258.0114	12	C14H6ClFNO+
263.0552	14	C14H8F3NO+
270.0291	69	C13H8ClF3N+
272.0449	368	C13H10ClF3N+
276.0226	8	C14H8ClFNO2+
278.018	93	C14H7ClF2NO+
296.0288	10	C14H9ClF2NO2+
298.0243	73	C14H8ClF3NO+
316.0349	332	C14H10ClF3NO2+
