Mass spectrum: Memantine; LC-ESI-QFT; MS2; CE: 35 NCE; R=35000; [M+H]+
Name: Memantine
Name: 3,5-dimethyladamantan-1-amine
Formula: C12H21N
Exact mass: 179.16740
SMILES: CC12CC3CC(C)(C1)CC(N)(C3)C2
InChI: InChI=1S/C12H21N/c1-10-3-9-4-11(2,6-10)8-12(13,5-9)7-10/h9H,3-8,13H2,1-2H3
Instrument: Q Exactive Plus Orbitrap Thermo Scientific
Instrument type: LC-ESI-QFT
Ms type: MS2
Ion mode: POSITIVE
Ionization: ESI
Fragmentation mode: HCD
Collision energy: 35  (nominal)
Resolution: 35000
Column name: Kinetex C18 EVO 2.6 um, 2.1x50 mm, precolumn 2.1x5 mm, Phenomenex
Retention time: 7.018 min
Base peak: 180.1744
Precursor m/z: 180.1747
Precursor type: [M+H]+
m/z	relative intensity	assigned
69.0699	2	C5H9+
81.0699	6	C6H9+
91.054	2	C7H7+
93.0698	10	C7H9+
95.0855	4	C7H11+
105.0698	1	C8H9+
107.0855	129	C8H11+
121.1012	11	C9H13+
135.1168	5	C10H15+
163.148	999	C12H19+
180.1746	323	C12H22N+
