Mass spectrum: Tetrachlorosalicylanilide; LC-ESI-QFT; MS2; CE: 35 NCE; R=35000; [M-H]-
Name: Tetrachlorosalicylanilide
Name: TCSA
Name: 3,5-dichloro-N-(3,4-dichlorophenyl)-2-hydroxybenzamide
Formula: C13H7Cl4NO2
Exact mass: 348.92309
SMILES: Oc1c(Cl)cc(Cl)cc1C(=O)Nc1ccc(Cl)c(Cl)c1
InChI: InChI=1S/C13H7Cl4NO2/c14-6-3-8(12(19)11(17)4-6)13(20)18-7-1-2-9(15)10(16)5-7/h1-5,19H,(H,18,20)
Instrument: Q Exactive Plus Orbitrap Thermo Scientific
Instrument type: LC-ESI-QFT
Ms type: MS2
Ion mode: NEGATIVE
Ionization: ESI
Fragmentation mode: HCD
Collision energy: 35  (nominal)
Resolution: 35000
Column name: Kinetex C18 EVO 2.6 um, 2.1x50 mm, precolumn 2.1x5 mm, Phenomenex
Retention time: 14.355 min
Base peak: 349.9127
Precursor m/z: 347.9158
Precursor type: [M-H]-
m/z	relative intensity	assigned
123.9955	1	C9O-
124.9795	125	C6H2ClO-
158.941	5	C6HCl2O-
159.9727	54	C6H4Cl2N-
160.9567	296	C6H3Cl2O-
185.9519	7	C7H2Cl2NO-
329.9054	1	C13H4Cl4NO-
347.9157	999	C13H6Cl4NO2-
