Mass spectrum: 4-Methylumbelliferyl-beta-D-glucuronide; LC-ESI-QFT; MS2; CE: 35 NCE; R=35000; [M-H]-
Name: 4-Methylumbelliferyl-beta-D-glucuronide
Name: 4-Methylumbelliferyl glucuronide
Name: (2S,3S,4S,5R,6S)-3,4,5-trihydroxy-6-(4-methyl-2-oxochromen-7-yl)oxyoxane-2-carboxylic acid
Formula: C16H16O9
Exact mass: 352.07943
SMILES: CC1=CC(=O)OC2=C1C=CC(=C2)O[C@H]3[C@@H]([C@H]([C@@H]([C@H](O3)C(=O)O)O)O)O
InChI: InChI=1S/C16H16O9/c1-6-4-10(17)24-9-5-7(2-3-8(6)9)23-16-13(20)11(18)12(19)14(25-16)15(21)22/h2-5,11-14,16,18-20H,1H3,(H,21,22)/t11-,12-,13+,14-,16+/m0/s1
Instrument: Q Exactive Plus Orbitrap Thermo Scientific
Instrument type: LC-ESI-QFT
Ms type: MS2
Ion mode: NEGATIVE
Ionization: ESI
Fragmentation mode: HCD
Collision energy: 35  (nominal)
Resolution: 35000
Column name: Kinetex C18 EVO 2.6 um, 2.1x50 mm, precolumn 2.1x5 mm, Phenomenex
Retention time: 5.946 min
Base peak: 351.0722
Precursor m/z: 351.0722
Precursor type: [M-H]-
m/z	relative intensity	assigned
98.0091	1	H4NO5-
129.0189	18	C5H5O4-
130.0424	2	C9H6O-
131.0501	16	C9H7O-
133.0293	13	C8H5O2-
147.0452	8	C9H7O2-
157.0144	12	C6H5O5-
175.0249	179	C6H7O6-
175.0401	999	C10H7O3-
351.0721	171	C16H15O9-
