Mass spectrum: 2,4-Diaminobenzenesulfonic acid; LC-ESI-QFT; MS2; CE: 35 NCE; R=35000; [M-H]-
Name: 2,4-Diaminobenzenesulfonic acid
Formula: C6H8N2O3S
Exact mass: 188.02556
SMILES: Nc1ccc(c(N)c1)S(O)(=O)=O
InChI: InChI=1S/C6H8N2O3S/c7-4-1-2-6(5(8)3-4)12(9,10)11/h1-3H,7-8H2,(H,9,10,11)
Instrument: Q Exactive Plus Orbitrap Thermo Scientific
Instrument type: LC-ESI-QFT
Ms type: MS2
Ion mode: NEGATIVE
Ionization: ESI
Fragmentation mode: HCD
Collision energy: 35  (nominal)
Resolution: 35000
Column name: Kinetex C18 EVO 2.6 um, 2.1x50 mm, precolumn 2.1x5 mm, Phenomenex
Retention time: 0.492 min
Base peak: 129.0103
Precursor m/z: 187.0183
Precursor type: [M-H]-
m/z	relative intensity	assigned
123.0559	7	C6H7N2O-
129.0103	4	CH7NO4S-
151.0262	1	C5H3N4O2-
187.0183	999	C6H7N2O3S-
