Mass spectrum: Metolachlor OA; LC-ESI-QFT; MS2; CE: 35 NCE; R=35000; [M+H]+
Name: Metolachlor OA
Name: 2-[2-ethyl-N-(1-methoxypropan-2-yl)-6-methylanilino]-2-oxoacetic acid
Formula: C15H21NO4
Exact mass: 279.14706
SMILES: CCC1=CC=CC(C)=C1N(C(C)COC)C(=O)C(O)=O
InChI: InChI=1S/C15H21NO4/c1-5-12-8-6-7-10(2)13(12)16(11(3)9-20-4)14(17)15(18)19/h6-8,11H,5,9H2,1-4H3,(H,18,19)
Instrument: Q Exactive Plus Orbitrap Thermo Scientific
Instrument type: LC-ESI-QFT
Ms type: MS2
Ion mode: POSITIVE
Ionization: ESI
Fragmentation mode: HCD
Collision energy: 35  (nominal)
Resolution: 35000
Column name: Kinetex C18 EVO 2.6 um, 2.1x50 mm, precolumn 2.1x5 mm, Phenomenex
Retention time: 11.652 min
Base peak: 280.1542
Precursor m/z: 280.1543
Precursor type: [M+H]+
m/z	relative intensity	assigned
59.0493	13	C3H7O+
73.0649	97	C4H9O+
91.0542	10	C7H7+
93.0699	5	C7H9+
105.0699	2	C8H9+
108.0808	1	C7H10N+
117.0572	1	C8H7N+
117.0699	8	C9H9+
118.0651	9	C8H8N+
119.0729	5	C8H9N+
119.0855	10	C9H11+
120.0808	4	C8H10N+
129.0699	5	C10H9+
130.0651	2	C9H8N+
131.0729	47	C9H9N+
132.0808	17	C9H10N+
133.0886	11	C9H11N+
134.0602	5	C8H8NO+
134.0964	32	C9H12N+
144.0808	35	C10H10N+
145.0887	10	C10H11N+
146.0964	107	C10H12N+
147.1041	3	C10H13N+
148.112	72	C10H14N+
158.0965	2	C11H12N+
159.1043	4	C11H13N+
160.0757	10	C10H10NO+
160.1121	17	C11H14N+
161.1198	1	C11H15N+
162.0913	22	C10H12NO+
174.0914	3	C11H12NO+
174.1278	13	C12H16N+
176.1435	42	C12H18N+
184.1124	3	C13H14N+
202.1226	15	C13H16NO+
204.1384	7	C13H18NO+
206.1543	2	C13H20NO+
208.0969	4	C11H14NO3+
220.1332	23	C13H18NO2+
234.1489	11	C14H20NO2+
248.1282	999	C14H18NO3+
280.1545	75	C15H22NO4+
