Mass spectrum: Carbendazim; LC-ESI-QFT; MS2; CE: 35 NCE; R=35000; [M+H]+
Name: Carbendazim
Name: Methyl N-(1H-benzimidazol-2-yl)carbamate
Name: methyl N-(1H-benzimidazol-2-yl)carbamate
Formula: C9H9N3O2
Exact mass: 191.06948
SMILES: COC(=O)NC1=NC2=CC=CC=C2N1
InChI: InChI=1S/C9H9N3O2/c1-14-9(13)12-8-10-6-4-2-3-5-7(6)11-8/h2-5H,1H3,(H2,10,11,12,13)
Instrument: Q Exactive Plus Orbitrap Thermo Scientific
Instrument type: LC-ESI-QFT
Ms type: MS2
Ion mode: POSITIVE
Ionization: ESI
Fragmentation mode: HCD
Collision energy: 35  (nominal)
Resolution: 35000
Column name: Kinetex C18 EVO 2.6 um, 2.1x50 mm, precolumn 2.1x5 mm, Phenomenex
Retention time: 1.262 min
Base peak: 192.0765
Precursor m/z: 192.0768
Precursor type: [M+H]+
m/z	relative intensity	assigned
92.0496	1	C6H6N+
132.0556	6	C7H6N3+
133.0633	3	C7H7N3+
135.0554	1	C7H7N2O+
160.0505	999	C8H6N3O+
192.0767	438	C9H10N3O2+
