Mass spectrum: Methylchloroisothiazolinone; LC-ESI-QFT; MS2; CE: 35 NCE; R=35000; [M+H]+
Name: Methylchloroisothiazolinone
Name: 5-Chloro-2-methyl-4-isothiazolin-3-one
Name: 5-Chloro-2-methyl-1,2-thiazol-3-one
Formula: C4H4ClNOS
Exact mass: 148.97021
SMILES: CN1SC(Cl)=CC1=O
InChI: InChI=1S/C4H4ClNOS/c1-6-4(7)2-3(5)8-6/h2H,1H3
Instrument: Q Exactive Plus Orbitrap Thermo Scientific
Instrument type: LC-ESI-QFT
Ms type: MS2
Ion mode: POSITIVE
Ionization: ESI
Fragmentation mode: HCD
Collision energy: 35  (nominal)
Resolution: 35000
Column name: Kinetex C18 EVO 2.6 um, 2.1x50 mm, precolumn 2.1x5 mm, Phenomenex
Retention time: 2.149 min
Base peak: 136.1119
Precursor m/z: 149.9775
Precursor type: [M+H]+
m/z	relative intensity	assigned
58.0289	5	C2H4NO+
58.9952	3	C2H3S+
59.9904	3	CH2NS+
63.9949	1	CH3ClN+
66.0106	1	CH5ClN+
70.9951	6	C3H3S+
78.0105	4	C2H5ClN+
78.9404	2	CClS+
86.0059	4	C3H4NS+
87.0137	1	C3H5NS+
92.9559	2	C2H2ClS+
94.9717	5	C2H4ClS+
95.9902	9	C4H2NS+
102.9404	1	C3ClS+
102.9946	2	C4H4ClO+
104.956	8	C3H2ClS+
106.0054	3	C3H5ClNO+
106.9717	8	C3H4ClS+
114.0008	1	C4H4NOS+
115.0087	20	C4H5NOS+
116.9976	2	C4H4ClNO+
118.9353	11	C3ClOS+
120.9509	7	C3H2ClOS+
121.9824	1	C3H5ClNS+
132.9509	5	C4H2ClOS+
134.954	6	C3H2ClNOS+
149.9775	999	C4H5ClNOS+
