Mass spectrum: 2,7-Naphthalenedisulfonic acid; LC-ESI-QFT; MS2; CE: 35 NCE; R=35000; [M-H]-
Name: 2,7-Naphthalenedisulfonic acid
Name: Naphthalene-2,7-disulfonic acid
Formula: C10H8O6S2
Exact mass: 287.9762
SMILES: OS(=O)(=O)c1ccc2ccc(cc2c1)S(O)(=O)=O
InChI: InChI=1S/C10H8O6S2/c11-17(12,13)9-3-1-7-2-4-10(18(14,15)16)6-8(7)5-9/h1-6H,(H,11,12,13)(H,14,15,16)
Instrument: Q Exactive Plus Orbitrap Thermo Scientific
Instrument type: LC-ESI-QFT
Ms type: MS2
Ion mode: NEGATIVE
Ionization: ESI
Fragmentation mode: HCD
Collision energy: 35  (nominal)
Resolution: 35000
Column name: Kinetex C18 EVO 2.6 um, 2.1x50 mm, precolumn 2.1x5 mm, Phenomenex
Retention time: 1.964 min
Base peak: 142.9808
Precursor m/z: 286.969
Precursor type: [M-H]-
m/z	relative intensity	assigned
143.0503	223	C10H7O-
159.0455	1	C10H7O2-
206.0044	2	C10H6O3S-
207.0122	883	C10H7O3S-
223.0072	4	C10H7O4S-
286.969	999	C10H7O6S2-
