Mass spectrum: 3,4-Dichlorophenylurea; LC-ESI-QFT; MS2; CE: 35 NCE; R=35000; [M-H]-
Name: 3,4-Dichlorophenylurea
Name: 1-(3,4-Dichlorophenyl)urea
Name: (3,4-dichlorophenyl)urea
Formula: C7H6Cl2N2O
Exact mass: 203.98572
SMILES: NC(=O)Nc1ccc(Cl)c(Cl)c1
InChI: InChI=1S/C7H6Cl2N2O/c8-5-2-1-4(3-6(5)9)11-7(10)12/h1-3H,(H3,10,11,12)
Instrument: Q Exactive Plus Orbitrap Thermo Scientific
Instrument type: LC-ESI-QFT
Ms type: MS2
Ion mode: NEGATIVE
Ionization: ESI
Fragmentation mode: HCD
Collision energy: 35  (nominal)
Resolution: 35000
Column name: Kinetex C18 EVO 2.6 um, 2.1x50 mm, precolumn 2.1x5 mm, Phenomenex
Retention time: 9.230 min
Base peak: 112.9847
Precursor m/z: 202.9784
Precursor type: [M-H]-
m/z	relative intensity	assigned
159.9726	999	C6H4Cl2N-
