Mass spectrum: 1-(3-carboxypropyl)-3,7-dimethylxanthine; LC-ESI-QFT; MS2; CE: 35 NCE; R=35000; [M+H]+
Name: 1-(3-carboxypropyl)-3,7-dimethylxanthine
Name: 4-(3,7-dimethyl-2,6-dioxopurin-1-yl)butanoic acid
Formula: C11H14N4O4
Exact mass: 266.10150
SMILES: CN1C=NC2=C1C(=O)N(CCCC(O)=O)C(=O)N2C
InChI: InChI=1S/C11H14N4O4/c1-13-6-12-9-8(13)10(18)15(11(19)14(9)2)5-3-4-7(16)17/h6H,3-5H2,1-2H3,(H,16,17)
Instrument: Q Exactive Plus Orbitrap Thermo Scientific
Instrument type: LC-ESI-QFT
Ms type: MS2
Ion mode: POSITIVE
Ionization: ESI
Fragmentation mode: HCD
Collision energy: 35  (nominal)
Resolution: 35000
Column name: Kinetex C18 EVO 2.6 um, 2.1x50 mm, precolumn 2.1x5 mm, Phenomenex
Retention time: 6.484 min
Base peak: 267.1087
Precursor m/z: 267.1088
Precursor type: [M+H]+
m/z	relative intensity	assigned
56.0497	2	C3H6N+
69.0448	6	C3H5N2+
81.0448	3	C4H5N2+
83.024	4	C3H3N2O+
83.0604	4	C4H7N2+
87.044	5	C4H7O2+
108.0557	6	C5H6N3+
109.076	1	C6H9N2+
110.0713	17	C5H8N3+
121.0635	1	C6H7N3+
122.0712	6	C6H8N3+
135.0665	1	C6H7N4+
136.0505	8	C6H6N3O+
136.0868	1	C7H10N3+
137.0822	2	C6H9N4+
138.0662	137	C6H8N3O+
149.0824	5	C7H9N4+
150.0663	1	C7H8N3O+
150.1026	19	C8H12N3+
154.0612	10	C6H8N3O2+
162.0898	1	C8H10N4+
163.0615	4	C7H7N4O+
165.077	14	C7H9N4O+
178.0977	1	C9H12N3O+
180.0639	8	C7H8N4O2+
181.072	242	C7H9N4O2+
193.0721	627	C8H9N4O2+
205.1084	28	C10H13N4O+
207.0877	8	C9H11N4O2+
211.0826	93	C8H11N4O3+
221.1033	999	C10H13N4O2+
225.0984	7	C9H13N4O3+
249.0983	888	C11H13N4O3+
267.1088	390	C11H15N4O4+
