Mass spectrum: Diphenylphosphate; LC-ESI-QFT; MS2; CE: 35 NCE; R=35000; [M+H]+
Name: Diphenylphosphate
Name: Diphenyl hydrogen phosphate
Formula: C12H11O4P
Exact mass: 250.03950
SMILES: OP(=O)(OC1=CC=CC=C1)OC1=CC=CC=C1
InChI: InChI=1S/C12H11O4P/c13-17(14,15-11-7-3-1-4-8-11)16-12-9-5-2-6-10-12/h1-10H,(H,13,14)
Instrument: Q Exactive Plus Orbitrap Thermo Scientific
Instrument type: LC-ESI-QFT
Ms type: MS2
Ion mode: POSITIVE
Ionization: ESI
Fragmentation mode: HCD
Collision energy: 35  (nominal)
Resolution: 35000
Column name: Kinetex C18 EVO 2.6 um, 2.1x50 mm, precolumn 2.1x5 mm, Phenomenex
Retention time: 11.166 min
Base peak: 279.093
Precursor m/z: 251.0468
Precursor type: [M+H]+
m/z	relative intensity	assigned
50.0153	2	C4H2+
53.0388	36	C4H5+
77.0386	67	C6H5+
81.0336	4	C5H5O+
94.0413	11	C6H6O+
95.0492	212	C6H7O+
98.9842	3	H4O4P+
105.0447	45	C6H5N2+
109.0647	2	C7H9O+
129.01	2	C5H6O2P+
151.0539	1	C12H7+
152.0621	91	C12H8+
153.0699	133	C12H9+
157.0049	8	C6H6O3P+
168.0569	9	C12H8O+
169.0648	7	C12H9O+
171.0804	8	C12H11O+
175.0155	63	C6H8O4P+
179.0603	2	C12H7N2+
181.0758	2	C12H9N2+
215.0256	13	C12H8O2P+
233.0363	93	C12H10O3P+
251.0468	999	C12H12O4P+
