Mass spectrum: Cetirizine; LC-ESI-QFT; MS2; CE: 35 NCE; R=35000; [M-H]-
Name: Cetirizine
Name: 2-[2-[4-[(4-chlorophenyl)-phenylmethyl]piperazin-1-yl]ethoxy]acetic acid
Formula: C21H25ClN2O3
Exact mass: 388.15537
SMILES: OC(=O)COCCN1CCN(CC1)C(c1ccccc1)c1ccc(Cl)cc1
InChI: InChI=1S/C21H25ClN2O3/c22-19-8-6-18(7-9-19)21(17-4-2-1-3-5-17)24-12-10-23(11-13-24)14-15-27-16-20(25)26/h1-9,21H,10-16H2,(H,25,26)
Instrument: Q Exactive Plus Orbitrap Thermo Scientific
Instrument type: LC-ESI-QFT
Ms type: MS2
Ion mode: NEGATIVE
Ionization: ESI
Fragmentation mode: HCD
Collision energy: 35  (nominal)
Resolution: 35000
Column name: Kinetex C18 EVO 2.6 um, 2.1x50 mm, precolumn 2.1x5 mm, Phenomenex
Retention time: 10.038 min
Base peak: 112.9847
Precursor m/z: 387.1481
Precursor type: [M-H]-
m/z	relative intensity	assigned
101.0232	15	C2H3N3O2-
185.0933	8	C8H13N2O3-
220.0328	1	C18H4-
327.0341	1	C20H8ClN2O-
387.1483	999	C21H24ClN2O3-
