Mass spectrum: Bromoxynil; LC-ESI-QFT; MS2; CE: 35 NCE; R=35000; [M-H]-
Name: Bromoxynil
Name: 3,5-dibromo-4-hydroxybenzonitrile
Formula: C7H3Br2NO
Exact mass: 274.85814
SMILES: Oc1c(Br)cc(cc1Br)C#N
InChI: InChI=1S/C7H3Br2NO/c8-5-1-4(3-10)2-6(9)7(5)11/h1-2,11H
Instrument: Q Exactive Plus Orbitrap Thermo Scientific
Instrument type: LC-ESI-QFT
Ms type: MS2
Ion mode: NEGATIVE
Ionization: ESI
Fragmentation mode: HCD
Collision energy: 35  (nominal)
Resolution: 35000
Column name: Kinetex C18 EVO 2.6 um, 2.1x50 mm, precolumn 2.1x5 mm, Phenomenex
Retention time: 9.455 min
Base peak: 239.0495
Precursor m/z: 273.8509
Precursor type: [M-H]-
m/z	relative intensity	assigned
166.9377	2	C6H2BrN-
193.9246	6	C7HBrNO-
273.8508	999	C7H2Br2NO-
