Mass spectrum: Dimethenamid; LC-ESI-QFT; MS2; CE: 35 NCE; R=35000; [M+H]+
Name: Dimethenamid
Name: 2-chloro-N-(2,4-dimethylthiophen-3-yl)-N-(1-methoxypropan-2-yl)acetamide
Formula: C12H18ClNO2S
Exact mass: 275.07468
SMILES: COCC(C)N(C(=O)CCl)C1=C(C)SC=C1C
InChI: InChI=1S/C12H18ClNO2S/c1-8-7-17-10(3)12(8)14(11(15)5-13)9(2)6-16-4/h7,9H,5-6H2,1-4H3
Instrument: Q Exactive Plus Orbitrap Thermo Scientific
Instrument type: LC-ESI-QFT
Ms type: MS2
Ion mode: POSITIVE
Ionization: ESI
Fragmentation mode: HCD
Collision energy: 35  (nominal)
Resolution: 35000
Column name: Kinetex C18 EVO 2.6 um, 2.1x50 mm, precolumn 2.1x5 mm, Phenomenex
Retention time: 11.052 min
Base peak: 276.0817
Precursor m/z: 276.082
Precursor type: [M+H]+
m/z	relative intensity	assigned
56.0497	1	C3H6N+
58.9952	2	C2H3S+
73.0648	15	C4H9O+
76.9789	9	C2H2ClO+
93.0699	3	C7H9+
94.0651	1	C6H8N+
95.073	3	C6H9N+
99.0264	1	C5H7S+
107.0856	1	C8H11+
108.0808	3	C7H10N+
111.0263	65	C6H7S+
112.034	1	C6H8S+
113.0419	3	C6H9S+
114.0372	1	C5H8NS+
116.0263	2	C5H7ClN+
117.0699	2	C9H9+
120.0808	1	C8H10N+
122.0964	1	C8H12N+
124.034	2	C7H8S+
125.0419	6	C7H9S+
126.0372	19	C6H8NS+
127.0213	2	C6H7OS+
127.045	1	C6H9NS+
127.0576	3	C7H11S+
128.0528	7	C6H10NS+
129.037	3	C6H9OS+
133.0886	1	C9H11N+
134.0964	4	C9H12N+
135.1042	11	C9H13N+
137.0295	2	C7H7NS+
138.0371	9	C7H8NS+
139.0575	1	C8H11S+
140.0528	2	C7H10NS+
141.0732	1	C8H13S+
149.042	1	C9H9S+
150.0372	6	C8H8NS+
151.0449	1	C8H9NS+
151.0576	19	C9H11S+
152.0164	3	C7H6NOS+
152.0528	13	C8H10NS+
153.0243	8	C7H7NOS+
153.0607	3	C8H11NS+
154.0322	1	C7H8NOS+
166.0322	4	C8H8NOS+
166.0685	5	C9H12NS+
167.0763	18	C9H13NS+
168.0842	257	C9H14NS+
174.0137	1	C7H9ClNS+
186.0139	15	C8H9ClNS+
202.0088	3	C8H9ClNOS+
203.0166	8	C8H10ClNOS+
204.0246	5	C8H11ClNOS+
244.0558	999	C11H15ClNOS+
276.0821	120	C12H19ClNO2S+
