Mass spectrum: Labetalol; LC-ESI-QFT; MS2; CE: 35 NCE; R=35000; [M-H]-
Name: Labetalol
Name: 2-hydroxy-5-[1-hydroxy-2-(4-phenylbutan-2-ylamino)ethyl]benzamide
Formula: C19H24N2O3
Exact mass: 328.17869
SMILES: CC(CCC1=CC=CC=C1)NCC(O)C1=CC(C(N)=O)=C(O)C=C1
InChI: InChI=1S/C19H24N2O3/c1-13(7-8-14-5-3-2-4-6-14)21-12-18(23)15-9-10-17(22)16(11-15)19(20)24/h2-6,9-11,13,18,21-23H,7-8,12H2,1H3,(H2,20,24)
Instrument: Q Exactive Plus Orbitrap Thermo Scientific
Instrument type: LC-ESI-QFT
Ms type: MS2
Ion mode: NEGATIVE
Ionization: ESI
Fragmentation mode: HCD
Collision energy: 35  (nominal)
Resolution: 35000
Column name: Kinetex C18 EVO 2.6 um, 2.1x50 mm, precolumn 2.1x5 mm, Phenomenex
Retention time: 7.247 min
Base peak: 327.1715
Precursor m/z: 327.1714
Precursor type: [M-H]-
m/z	relative intensity	assigned
106.0413	22	C5H4N3-
118.029	11	C5H2N4-
131.0376	49	C8H5NO-
132.0453	50	C8H6NO-
133.0531	15	C8H7NO-
146.0247	5	C8H4NO2-
149.0482	60	C8H7NO2-
157.0408	40	C9H5N2O-
158.0488	3	C9H6N2O-
159.0562	6	C9H7N2O-
175.0513	89	C9H7N2O2-
176.0591	149	C9H8N2O2-
177.0669	6	C9H9N2O2-
185.0719	4	C11H9N2O-
187.0877	13	C11H11N2O-
199.0878	3	C12H11N2O-
266.1554	61	C18H20NO-
291.1503	120	C19H19N2O-
309.1608	460	C19H21N2O2-
327.1714	999	C19H23N2O3-
