Mass spectrum: Genistein; LC-ESI-QFT; MS2; CE: 35 NCE; R=35000; [M-H]-
Name: Genistein
Name: 5,7-dihydroxy-3-(4-hydroxyphenyl)chromen-4-one
Formula: C15H10O5
Exact mass: 270.05282
SMILES: OC1=CC=C(C=C1)C1=COC2=CC(O)=CC(O)=C2C1=O
InChI: InChI=1S/C15H10O5/c16-9-3-1-8(2-4-9)11-7-20-13-6-10(17)5-12(18)14(13)15(11)19/h1-7,16-18H
Instrument: Q Exactive Plus Orbitrap Thermo Scientific
Instrument type: LC-ESI-QFT
Ms type: MS2
Ion mode: NEGATIVE
Ionization: ESI
Fragmentation mode: HCD
Collision energy: 35  (nominal)
Resolution: 35000
Column name: Kinetex C18 EVO 2.6 um, 2.1x50 mm, precolumn 2.1x5 mm, Phenomenex
Retention time: 9.955 min
Base peak: 269.0455
Precursor m/z: 269.0455
Precursor type: [M-H]-
m/z	relative intensity	assigned
132.0215	3	C8H4O2-
133.0294	44	C8H5O2-
135.0087	5	C7H3O3-
135.0451	8	C8H7O2-
151.0037	3	C7H3O4-
155.0502	4	C11H7O-
157.0296	6	C10H5O2-
157.0659	2	C11H9O-
159.0452	18	C10H7O2-
161.0247	2	C9H5O3-
167.0502	1	C12H7O-
169.066	7	C12H9O-
171.045	2	C11H7O2-
173.0607	2	C11H9O2-
176.0118	1	C9H4O4-
180.0581	10	C13H8O-
181.0659	18	C13H9O-
182.0373	1	C12H6O2-
183.0452	12	C12H7O2-
195.0451	2	C13H7O2-
196.0531	8	C13H8O2-
197.0609	8	C13H9O2-
199.0401	6	C12H7O3-
201.0558	14	C12H9O3-
213.0556	5	C13H9O3-
223.0403	2	C14H7O3-
224.0481	14	C14H8O3-
225.0559	11	C14H9O3-
227.0351	4	C13H7O4-
240.0424	4	C14H8O4-
241.0508	5	C14H9O4-
268.0374	1	C15H8O5-
269.0456	999	C15H9O5-
