Mass spectrum: Propanil; LC-ESI-QFT; MS2; CE: 35 NCE; R=35000; [M-H]-
Name: Propanil
Name: N-(3,4-dichlorophenyl)propanamide
Formula: C9H9Cl2NO
Exact mass: 217.00612
SMILES: CCC(=O)Nc1ccc(Cl)c(Cl)c1
InChI: InChI=1S/C9H9Cl2NO/c1-2-9(13)12-6-3-4-7(10)8(11)5-6/h3-5H,2H2,1H3,(H,12,13)
Instrument: Q Exactive Plus Orbitrap Thermo Scientific
Instrument type: LC-ESI-QFT
Ms type: MS2
Ion mode: NEGATIVE
Ionization: ESI
Fragmentation mode: HCD
Collision energy: 35  (nominal)
Resolution: 35000
Column name: Kinetex C18 EVO 2.6 um, 2.1x50 mm, precolumn 2.1x5 mm, Phenomenex
Retention time: 10.789 min
Base peak: 215.9988
Precursor m/z: 215.9988
Precursor type: [M-H]-
m/z	relative intensity	assigned
123.9954	13	C9O-
159.9726	661	C6H4Cl2N-
160.9565	3	C6H3Cl2O-
185.952	1	C7H2Cl2NO-
215.9987	999	C9H8Cl2NO-
