Mass spectrum: Diphenylamine; LC-ESI-QFT; MS2; CE: 35 NCE; R=35000; [M+H]+
Name: Diphenylamine
Name: N-phenylaniline
Formula: C12H11N
Exact mass: 169.08915
SMILES: N(C1=CC=CC=C1)C1=CC=CC=C1
InChI: InChI=1S/C12H11N/c1-3-7-11(8-4-1)13-12-9-5-2-6-10-12/h1-10,13H
Instrument: Q Exactive Plus Orbitrap Thermo Scientific
Instrument type: LC-ESI-QFT
Ms type: MS2
Ion mode: POSITIVE
Ionization: ESI
Fragmentation mode: HCD
Collision energy: 35  (nominal)
Resolution: 35000
Column name: Kinetex C18 EVO 2.6 um, 2.1x50 mm, precolumn 2.1x5 mm, Phenomenex
Retention time: 11.409 min
Base peak: 65.0597
Precursor m/z: 170.0964
Precursor type: [M+H]+
m/z	relative intensity	assigned
65.0386	6	C5H5+
92.0494	134	C6H6N+
93.0572	160	C6H7N+
124.0755	2	C7H10NO+
128.062	2	C10H8+
143.0855	4	C11H11+
152.0621	2	C12H8+
153.0697	12	C12H9+
155.0729	2	C11H9N+
168.0814	1	C12H10N+
169.0885	3	C12H11N+
170.0963	999	C12H12N+
