Mass spectrum: Benzophenone-4; LC-ESI-QFT; MS2; CE: 35 NCE; R=35000; [M+H]+
Name: Benzophenone-4
Name: Sulisobenzone
Name: 5-benzoyl-4-hydroxy-2-methoxybenzenesulfonic acid
Formula: C14H12O6S
Exact mass: 308.03546
SMILES: COC1=CC(O)=C(C=C1S(O)(=O)=O)C(=O)C1=CC=CC=C1
InChI: InChI=1S/C14H12O6S/c1-20-12-8-11(15)10(7-13(12)21(17,18)19)14(16)9-5-3-2-4-6-9/h2-8,15H,1H3,(H,17,18,19)
Instrument: Q Exactive Plus Orbitrap Thermo Scientific
Instrument type: LC-ESI-QFT
Ms type: MS2
Ion mode: POSITIVE
Ionization: ESI
Fragmentation mode: HCD
Collision energy: 35  (nominal)
Resolution: 35000
Column name: Kinetex C18 EVO 2.6 um, 2.1x50 mm, precolumn 2.1x5 mm, Phenomenex
Retention time: 10.334 min
Base peak: 254.1431
Precursor m/z: 309.0427
Precursor type: [M+H]+
m/z	relative intensity	assigned
55.0181	3	C3H3O+
68.9972	7	C3HO2+
77.0387	4	C6H5+
79.0179	7	C5H3O+
95.0492	12	C6H7O+
97.0285	21	C5H5O2+
105.0335	115	C7H5O+
107.0128	5	C6H3O2+
119.0128	2	C7H3O2+
121.0283	8	C7H5O2+
122.0362	1	C7H6O2+
123.0076	3	C6H3O3+
125.0233	6	C6H5O3+
128.0621	1	C10H8+
133.9998	3	C7H2O3+
135.0077	129	C7H3O3+
141.0182	7	C6H5O4+
141.0699	16	C11H9+
149.0237	3	C8H5O3+
151.039	18	C8H7O3+
152.0105	6	C7H4O4+
153.0697	1	C12H9+
155.0341	1	C7H7O4+
167.0341	5	C8H7O4+
169.0649	2	C12H9O+
183.0288	3	C8H7O5+
183.0441	3	C12H7O2+
197.0598	15	C13H9O2+
198.9696	110	C7H3O5S+
211.039	33	C13H7O3+
212.0469	10	C13H8O3+
227.0702	5	C14H11O3+
228.0413	8	C13H8O4+
230.9959	999	C8H7O6S+
243.0653	27	C14H11O4+
291.0326	4	C14H11O5S+
309.0429	898	C14H13O6S+
