Mass spectrum: Acetamiprid; LC-ESI-QFT; MS2; CE: 35 NCE; R=35000; [M+H]+
Name: Acetamiprid
Name: N-[(6-chloropyridin-3-yl)methyl]-N`-cyano-N-methylethanimidamide
Formula: C10H11ClN4
Exact mass: 222.06722
SMILES: CN(CC1=CN=C(Cl)C=C1)C(\C)=N\C#N
InChI: InChI=1S/C10H11ClN4/c1-8(14-7-12)15(2)6-9-3-4-10(11)13-5-9/h3-5H,6H2,1-2H3/b14-8+
Instrument: Q Exactive Plus Orbitrap Thermo Scientific
Instrument type: LC-ESI-QFT
Ms type: MS2
Ion mode: POSITIVE
Ionization: ESI
Fragmentation mode: HCD
Collision energy: 35  (nominal)
Resolution: 35000
Column name: Kinetex C18 EVO 2.6 um, 2.1x50 mm, precolumn 2.1x5 mm, Phenomenex
Retention time: 7.021 min
Base peak: 223.0742
Precursor m/z: 223.0745
Precursor type: [M+H]+
m/z	relative intensity	assigned
56.0497	358	C3H6N+
63.0231	1	C5H3+
72.9839	2	C3H2Cl+
73.0761	1	C3H9N2+
81.0335	1	C5H5O+
90.0338	28	C6H4N+
91.0417	2	C6H5N+
98.9996	10	C5H4Cl+
126.0105	999	C6H5ClN+
144.021	9	C6H7ClNO+
146.0712	2	C8H8N3+
155.0371	3	C7H8ClN2+
168.0321	1	C7H7ClN3+
181.0526	12	C9H10ClN2+
182.0482	3	C8H9ClN3+
187.0979	19	C10H11N4+
196.0636	10	C9H11ClN3+
206.048	9	C10H9ClN3+
223.0745	594	C10H12ClN4+
