Mass spectrum: Procymidone; LC-ESI-QFT; MS2; CE: 35 NCE; R=35000; [M+H]+
Name: Procymidone
Name: 3-(3,5-dichlorophenyl)-1,5-dimethyl-3-azabicyclo[3.1.0]hexane-2,4-dione
Formula: C13H11Cl2NO2
Exact mass: 283.01668
SMILES: CC12CC1(C)C(=O)N(C2=O)c1cc(Cl)cc(Cl)c1
InChI: InChI=1S/C13H11Cl2NO2/c1-12-6-13(12,2)11(18)16(10(12)17)9-4-7(14)3-8(15)5-9/h3-5H,6H2,1-2H3
Instrument: Q Exactive Plus Orbitrap Thermo Scientific
Instrument type: LC-ESI-QFT
Ms type: MS2
Ion mode: POSITIVE
Ionization: ESI
Fragmentation mode: HCD
Collision energy: 35  (nominal)
Resolution: 35000
Column name: Kinetex C18 EVO 2.6 um, 2.1x50 mm, precolumn 2.1x5 mm, Phenomenex
Retention time: 11.594 min
Base peak: 195.1144
Precursor m/z: 284.024
Precursor type: [M+H]+
m/z	relative intensity	assigned
60.0809	11	C3H10N+
65.0387	13	C5H5+
67.0544	149	C5H7+
69.0336	9	C4H5O+
69.07	26	C5H9+
95.0492	136	C6H7O+
96.057	4	C6H8O+
113.0596	11	C6H9O2+
127.0181	2	C9H3O+
132.9607	2	C5H3Cl2+
134.0967	2	C9H12N+
146.0964	3	C10H12N+
151.0185	3	C8H6ClN+
157.029	2	C7H8ClNO+
157.0889	9	C11H11N+
158.0966	3	C11H12N+
159.9716	50	C6H4Cl2N+
161.9871	4	C6H6Cl2N+
165.0342	3	C9H8ClN+
171.9716	23	C7H4Cl2N+
172.9668	4	C9ClNO+
173.9876	4	C7H6Cl2N+
177.0468	4	C11H10Cl+
178.0419	23	C10H9ClN+
179.0133	8	C9H6ClNO+
179.0497	5	C10H10ClN+
180.021	35	C9H7ClNO+
185.9873	68	C8H6Cl2N+
187.9665	39	C7H4Cl2NO+
188.0023	2	C11H5ClO+
192.0574	36	C11H11ClN+
193.0655	21	C11H12ClN+
197.9872	18	C9H6Cl2N+
199.9664	12	C8H4Cl2NO+
200.0028	3	C9H8Cl2N+
202.042	3	C12H9ClN+
203.0497	14	C12H10ClN+
206.0373	2	C11H9ClNO+
212.003	33	C10H8Cl2N+
213.0117	2	C10H9Cl2N+
213.0227	4	C11H11Cl2+
213.9822	52	C9H6Cl2NO+
214.0187	9	C10H10Cl2N+
214.9901	2	C9H7Cl2NO+
220.0525	16	C12H11ClNO+
221.0601	14	C12H12ClNO+
227.9978	4	C10H8Cl2NO+
228.0341	66	C11H12Cl2N+
238.0186	25	C12H10Cl2N+
241.0052	8	C11H9Cl2NO+
256.0291	372	C12H12Cl2NO+
284.0242	999	C13H12Cl2NO2+
