Mass spectrum: Metolachlor ESA; LC-ESI-QFT; MS2; CE: 35 NCE; R=35000; [M-H]-
Name: Metolachlor ESA
Name: 2-[2-ethyl-N-(1-methoxypropan-2-yl)-6-methylanilino]-2-oxoethanesulfonic acid
Formula: C15H23NO5S
Exact mass: 329.12969
SMILES: CCC1=CC=CC(C)=C1N(C(C)COC)C(=O)CS(O)(=O)=O
InChI: InChI=1S/C15H23NO5S/c1-5-13-8-6-7-11(2)15(13)16(12(3)9-21-4)14(17)10-22(18,19)20/h6-8,12H,5,9-10H2,1-4H3,(H,18,19,20)
Instrument: Q Exactive Plus Orbitrap Thermo Scientific
Instrument type: LC-ESI-QFT
Ms type: MS2
Ion mode: NEGATIVE
Ionization: ESI
Fragmentation mode: HCD
Collision energy: 35  (nominal)
Resolution: 35000
Column name: Kinetex C18 EVO 2.6 um, 2.1x50 mm, precolumn 2.1x5 mm, Phenomenex
Retention time: 11.894 min
Base peak: 328.1224
Precursor m/z: 328.1224
Precursor type: [M-H]-
m/z	relative intensity	assigned
120.9595	246	C2HO4S-
134.0974	1	C9H12N-
135.0815	44	C9H11O-
158.0976	3	C11H12N-
174.129	5	C12H16N-
177.0103	2	C5H7NO4S-
192.0336	27	C6H10NO4S-
206.1553	3	C13H20NO-
238.0542	1	C11H12NO3S-
256.0652	7	C11H14NO4S-
296.0963	7	C14H18NO4S-
328.1225	999	C15H22NO5S-
