Mass spectrum: Sulcotrione; LC-ESI-QFT; MS2; CE: 35 NCE; R=35000; [M-H]-
Name: Sulcotrione
Name: 2-(2-chloro-4-methylsulfonylbenzoyl)cyclohexane-1,3-dione
Formula: C14H13ClO5S
Exact mass: 328.01722
SMILES: CS(=O)(=O)C1=CC=C(C(=O)C2C(=O)CCCC2=O)C(Cl)=C1
InChI: InChI=1S/C14H13ClO5S/c1-21(19,20)8-5-6-9(10(15)7-8)14(18)13-11(16)3-2-4-12(13)17/h5-7,13H,2-4H2,1H3
Instrument: Q Exactive Plus Orbitrap Thermo Scientific
Instrument type: LC-ESI-QFT
Ms type: MS2
Ion mode: NEGATIVE
Ionization: ESI
Fragmentation mode: HCD
Collision energy: 35  (nominal)
Resolution: 35000
Column name: Kinetex C18 EVO 2.6 um, 2.1x50 mm, precolumn 2.1x5 mm, Phenomenex
Retention time: 9.508 min
Base peak: 91.0021
Precursor m/z: 327.0099
Precursor type: [M-H]-
m/z	relative intensity	assigned
212.0482	65	C13H8O3-
215.0354	43	C12H7O4-
241.9668	11	C12H2O4S-
249.0228	61	C12H9O4S-
291.0333	999	C14H11O5S-
327.0106	50	C14H12ClO5S-
