Mass spectrum: Diallyl phthalate; LC-ESI-QFT; MS2; CE: 35 NCE; R=35000; [M+H]+
Name: Diallyl phthalate
Name: bis(prop-2-enyl) benzene-1,2-dicarboxylate
Formula: C14H14O4
Exact mass: 246.08921
SMILES: C=CCOC(=O)C1=CC=CC=C1C(=O)OCC=C
InChI: InChI=1S/C14H14O4/c1-3-9-17-13(15)11-7-5-6-8-12(11)14(16)18-10-4-2/h3-8H,1-2,9-10H2
Instrument: Q Exactive Plus Orbitrap Thermo Scientific
Instrument type: LC-ESI-QFT
Ms type: MS2
Ion mode: POSITIVE
Ionization: ESI
Fragmentation mode: HCD
Collision energy: 35  (nominal)
Resolution: 35000
Column name: Kinetex C18 EVO 2.6 um, 2.1x50 mm, precolumn 2.1x5 mm, Phenomenex
Retention time: 11.296 min
Base peak: 247.0961
Precursor m/z: 247.0965
Precursor type: [M+H]+
m/z	relative intensity	assigned
53.0024	59	C3HO+
53.9976	14	C2NO+
149.0231	27	C8H5O3+
189.0546	999	C11H9O3+
