Mass spectrum: Triethylcitrate; LC-ESI-QFT; MS2; CE: 35 NCE; R=35000; [M+H]+
Name: Triethylcitrate
Name: triethyl 2-hydroxypropane-1,2,3-tricarboxylate
Formula: C12H20O7
Exact mass: 276.12090
SMILES: CCOC(=O)CC(O)(CC(=O)OCC)C(=O)OCC
InChI: InChI=1S/C12H20O7/c1-4-17-9(13)7-12(16,11(15)19-6-3)8-10(14)18-5-2/h16H,4-8H2,1-3H3
Instrument: Q Exactive Plus Orbitrap Thermo Scientific
Instrument type: LC-ESI-QFT
Ms type: MS2
Ion mode: POSITIVE
Ionization: ESI
Fragmentation mode: HCD
Collision energy: 35  (nominal)
Resolution: 35000
Column name: Kinetex C18 EVO 2.6 um, 2.1x50 mm, precolumn 2.1x5 mm, Phenomenex
Retention time: 9.239 min
Base peak: 277.1279
Precursor m/z: 277.1282
Precursor type: [M+H]+
m/z	relative intensity	assigned
68.9972	34	C3HO2+
87.0076	11	C3H3O3+
101.0234	6	C4H5O3+
105.0182	58	C3H5O4+
111.0077	28	C5H3O3+
115.039	75	C5H7O3+
119.0339	9	C4H7O4+
129.0182	107	C5H5O4+
133.0495	161	C5H9O4+
139.0026	60	C6H3O4+
143.0339	1	C6H7O4+
147.0649	2	C6H11O4+
157.0496	999	C7H9O4+
167.0339	3	C8H7O4+
185.0446	12	C8H9O5+
189.0757	6	C8H13O5+
203.0914	120	C9H15O5+
213.0757	11	C10H13O5+
277.128	1	C12H21O7+
