Mass spectrum: Flufenoxuron; LC-ESI-QFT; MS2; CE: 35 NCE; R=35000; [M+H]+
Name: Flufenoxuron
Name: N-[[4-[2-chloro-4-(trifluoromethyl)phenoxy]-2-fluorophenyl]carbamoyl]-2,6-difluorobenzamide
Formula: C21H11ClF6N2O3
Exact mass: 488.03624
SMILES: FC1=CC(OC2=CC=C(C=C2Cl)C(F)(F)F)=CC=C1NC(=O)NC(=O)C1=C(F)C=CC=C1F
InChI: InChI=1S/C21H11ClF6N2O3/c22-12-8-10(21(26,27)28)4-7-17(12)33-11-5-6-16(15(25)9-11)29-20(32)30-19(31)18-13(23)2-1-3-14(18)24/h1-9H,(H2,29,30,31,32)
Instrument: Q Exactive Plus Orbitrap Thermo Scientific
Instrument type: LC-ESI-QFT
Ms type: MS2
Ion mode: POSITIVE
Ionization: ESI
Fragmentation mode: HCD
Collision energy: 35  (nominal)
Resolution: 35000
Column name: Kinetex C18 EVO 2.6 um, 2.1x50 mm, precolumn 2.1x5 mm, Phenomenex
Retention time: 14.154 min
Base peak: 489.0436
Precursor m/z: 489.0435
Precursor type: [M+H]+
m/z	relative intensity	assigned
63.0232	2	C5H3+
111.0479	8	C6H6FN+
113.0197	2	C6H3F2+
140.0306	14	C7H4F2N+
141.0146	659	C7H3F2O+
158.0412	999	C7H6F2NO+
286.0244	1	C13H8ClF3NO+
306.0304	25	C13H9ClF4NO+
489.0439	93	C21H12ClF6N2O3+
