Mass spectrum: Clopyralid; LC-ESI-QFT; MS2; CE: 35 NCE; R=35000; [M-H]-
Name: Clopyralid
Name: 3,6-Dichloropicolinic acid
Name: 3,6-dichloropyridine-2-carboxylic acid
Formula: C6H3Cl2NO2
Exact mass: 190.95408
SMILES: OC(=O)c1nc(Cl)ccc1Cl
InChI: InChI=1S/C6H3Cl2NO2/c7-3-1-2-4(8)9-5(3)6(10)11/h1-2H,(H,10,11)
Instrument: Q Exactive Plus Orbitrap Thermo Scientific
Instrument type: LC-ESI-QFT
Ms type: MS2
Ion mode: NEGATIVE
Ionization: ESI
Fragmentation mode: HCD
Collision energy: 35  (nominal)
Resolution: 35000
Column name: Kinetex C18 EVO 2.6 um, 2.1x50 mm, precolumn 2.1x5 mm, Phenomenex
Retention time: 2.379 min
Base peak: 189.9468
Precursor m/z: 189.9468
Precursor type: [M-H]-
m/z	relative intensity	assigned
145.957	999	C5H2Cl2N-
189.9467	71	C6H2Cl2NO2-
