Mass spectrum: Thiabendazole; LC-ESI-QFT; MS2; CE: 35 NCE; R=35000; [M+H]+
Name: Thiabendazole
Name: 4-(1H-benzimidazol-2-yl)-1,3-thiazole
Formula: C10H7N3S
Exact mass: 201.03607
SMILES: N1C2=CC=CC=C2N=C1C1=CSC=N1
InChI: InChI=1S/C10H7N3S/c1-2-4-8-7(3-1)12-10(13-8)9-5-14-6-11-9/h1-6H,(H,12,13)
Instrument: Q Exactive Plus Orbitrap Thermo Scientific
Instrument type: LC-ESI-QFT
Ms type: MS2
Ion mode: POSITIVE
Ionization: ESI
Fragmentation mode: HCD
Collision energy: 35  (nominal)
Resolution: 35000
Column name: Kinetex C18 EVO 2.6 um, 2.1x50 mm, precolumn 2.1x5 mm, Phenomenex
Retention time: 2.337 min
Base peak: 202.0431
Precursor m/z: 202.0433
Precursor type: [M+H]+
m/z	relative intensity	assigned
92.0494	1	C6H6N+
131.0603	4	C8H7N2+
143.0604	1	C9H7N2+
158.0714	2	C9H8N3+
175.0325	82	C9H7N2S+
202.0433	999	C10H8N3S+
