Mass spectrum: 4-Amino-N,N-dimethylbenzenesulfonamide; LC-ESI-QFT; MS2; CE: 35 NCE; R=35000; [M+H]+
Name: 4-Amino-N,N-dimethylbenzenesulfonamide
Formula: C8H12N2O2S
Exact mass: 200.06195
SMILES: CN(C)S(=O)(=O)C1=CC=C(N)C=C1
InChI: InChI=1S/C8H12N2O2S/c1-10(2)13(11,12)8-5-3-7(9)4-6-8/h3-6H,9H2,1-2H3
Instrument: Q Exactive Plus Orbitrap Thermo Scientific
Instrument type: LC-ESI-QFT
Ms type: MS2
Ion mode: POSITIVE
Ionization: ESI
Fragmentation mode: HCD
Collision energy: 35  (nominal)
Resolution: 35000
Column name: Kinetex C18 EVO 2.6 um, 2.1x50 mm, precolumn 2.1x5 mm, Phenomenex
Retention time: 4.250 min
Base peak: 201.069
Precursor m/z: 201.0692
Precursor type: [M+H]+
m/z	relative intensity	assigned
65.0387	30	C5H5+
68.0496	25	C4H6N+
69.0336	2	C4H5O+
78.0339	2	C5H4N+
79.0179	3	C5H3O+
80.0495	3	C5H6N+
92.0495	321	C6H6N+
96.0444	4	C5H6NO+
108.0444	358	C6H6NO+
110.06	31	C6H8NO+
120.0556	6	C6H6N3+
156.0113	999	C6H6NO2S+
201.0692	47	C8H13N2O2S+
