Mass spectrum: N-Nitrosomorpholine; LC-ESI-QFT; MS2; CE: 35 NCE; R=35000; [M+H]+
Name: N-Nitrosomorpholine
Name: 4-nitrosomorpholine
Formula: C4H8N2O2
Exact mass: 116.05858
SMILES: O=NN1CCOCC1
InChI: InChI=1S/C4H8N2O2/c7-5-6-1-3-8-4-2-6/h1-4H2
Instrument: Q Exactive Plus Orbitrap Thermo Scientific
Instrument type: LC-ESI-QFT
Ms type: MS2
Ion mode: POSITIVE
Ionization: ESI
Fragmentation mode: HCD
Collision energy: 35  (nominal)
Resolution: 35000
Column name: Kinetex C18 EVO 2.6 um, 2.1x50 mm, precolumn 2.1x5 mm, Phenomenex
Retention time: 0.751 min
Base peak: 134.0711
Precursor m/z: 117.0659
Precursor type: [M+H]+
m/z	relative intensity	assigned
56.0496	18	C3H6N+
57.0575	43	C3H7N+
59.0493	347	C3H7O+
71.0491	1	C4H7O+
72.0444	4	C3H6NO+
73.0397	82	C2H5N2O+
86.06	238	C4H8NO+
87.0678	377	C4H9NO+
117.0658	999	C4H9N2O2+
