Mass spectrum: 2-Mercaptobenzothiazole; LC-ESI-QFT; MS2; CE: 35 NCE; R=35000; [M+H]+
Name: 2-Mercaptobenzothiazole
Name: 3H-1,3-benzothiazole-2-thione
Formula: C7H5NS2
Exact mass: 166.98634
SMILES: SC1=NC2=CC=CC=C2S1
InChI: InChI=1S/C7H5NS2/c9-7-8-5-3-1-2-4-6(5)10-7/h1-4H,(H,8,9)
Instrument: Q Exactive Plus Orbitrap Thermo Scientific
Instrument type: LC-ESI-QFT
Ms type: MS2
Ion mode: POSITIVE
Ionization: ESI
Fragmentation mode: HCD
Collision energy: 35  (nominal)
Resolution: 35000
Column name: Kinetex C18 EVO 2.6 um, 2.1x50 mm, precolumn 2.1x5 mm, Phenomenex
Retention time: 8.235 min
Base peak: 167.9934
Precursor m/z: 167.9936
Precursor type: [M+H]+
m/z	relative intensity	assigned
65.0386	1	C5H5+
92.0495	16	C6H6N+
104.0495	1	C7H6N+
109.0106	12	C6H5S+
110.0185	4	C6H6S+
124.0215	22	C6H6NS+
135.0137	29	C7H5NS+
136.0215	20	C7H6NS+
140.9824	2	C6H5S2+
167.9936	999	C7H6NS2+
