Mass spectrum: 2,4-Dichlorophenoxyacetic acid; LC-ESI-QFT; MS2; CE: 35 NCE; R=35000; [M-H]-
Name: 2,4-Dichlorophenoxyacetic acid
Name: 2-(2,4-dichlorophenoxy)acetic acid
Formula: C8H6Cl2O3
Exact mass: 219.96940
SMILES: OC(=O)COc1ccc(Cl)cc1Cl
InChI: InChI=1S/C8H6Cl2O3/c9-5-1-2-7(6(10)3-5)13-4-8(11)12/h1-3H,4H2,(H,11,12)
Instrument: Q Exactive Plus Orbitrap Thermo Scientific
Instrument type: LC-ESI-QFT
Ms type: MS2
Ion mode: NEGATIVE
Ionization: ESI
Fragmentation mode: HCD
Collision energy: 35  (nominal)
Resolution: 35000
Column name: Kinetex C18 EVO 2.6 um, 2.1x50 mm, precolumn 2.1x5 mm, Phenomenex
Retention time: 10.262 min
Base peak: 218.9621
Precursor m/z: 218.9621
Precursor type: [M-H]-
m/z	relative intensity	assigned
124.9795	32	C6H2ClO-
160.9566	999	C6H3Cl2O-
218.9621	10	C8H5Cl2O3-
