Mass spectrum: Monobenzyl phthalate; LC-ESI-QFT; MS2; CE: 35 NCE; R=35000; [M-H]-
Name: Monobenzyl phthalate
Name: 2-phenylmethoxycarbonylbenzoic acid
Formula: C15H12O4
Exact mass: 256.07356
SMILES: OC(=O)C1=CC=CC=C1C(=O)OCC1=CC=CC=C1
InChI: InChI=1S/C15H12O4/c16-14(17)12-8-4-5-9-13(12)15(18)19-10-11-6-2-1-3-7-11/h1-9H,10H2,(H,16,17)
Instrument: Q Exactive Plus Orbitrap Thermo Scientific
Instrument type: LC-ESI-QFT
Ms type: MS2
Ion mode: NEGATIVE
Ionization: ESI
Fragmentation mode: HCD
Collision energy: 35  (nominal)
Resolution: 35000
Column name: Kinetex C18 EVO 2.6 um, 2.1x50 mm, precolumn 2.1x5 mm, Phenomenex
Retention time: 10.562 min
Base peak: 255.0662
Precursor m/z: 255.0663
Precursor type: [M-H]-
m/z	relative intensity	assigned
123.0446	60	C7H7O2-
133.0293	11	C8H5O2-
137.0608	10	C8H9O2-
147.0087	191	C8H3O3-
149.0244	107	C8H5O3-
151.04	82	C8H7O3-
165.0192	30	C8H5O4-
179.0349	60	C9H7O4-
180.0579	2	C13H8O-
181.0661	24	C13H9O-
183.0815	956	C13H11O-
190.9984	18	C9H3O5-
197.0609	22	C13H9O2-
211.0764	230	C14H11O2-
227.0718	4	C14H11O3-
237.0556	20	C15H9O3-
255.0663	999	C15H11O4-
