Mass spectrum: Propyzamide; LC-ESI-QFT; MS2; CE: 35 NCE; R=35000; [M+H]+
Name: Propyzamide
Name: 3,5-dichloro-N-(2-methylbut-3-yn-2-yl)benzamide
Formula: C12H11Cl2NO
Exact mass: 255.02177
SMILES: CC(C)(NC(=O)C1=CC(Cl)=CC(Cl)=C1)C#C
InChI: InChI=1S/C12H11Cl2NO/c1-4-12(2,3)15-11(16)8-5-9(13)7-10(14)6-8/h1,5-7H,2-3H3,(H,15,16)
Instrument: Q Exactive Plus Orbitrap Thermo Scientific
Instrument type: LC-ESI-QFT
Ms type: MS2
Ion mode: POSITIVE
Ionization: ESI
Fragmentation mode: HCD
Collision energy: 35  (nominal)
Resolution: 35000
Column name: Kinetex C18 EVO 2.6 um, 2.1x50 mm, precolumn 2.1x5 mm, Phenomenex
Retention time: 11.240 min
Base peak: 334.1044
Precursor m/z: 256.029
Precursor type: [M+H]+
m/z	relative intensity	assigned
57.0701	1	C4H9+
65.0387	40	C5H5+
67.0543	118	C5H7+
84.9839	3	C4H2Cl+
85.0648	7	C5H9O+
108.9841	1	C6H2Cl+
120.9606	1	C4H3Cl2+
126.9945	4	C6H4ClO+
128.0023	3	C6H5ClO+
139.0056	2	C9HNO+
144.9602	4	C6H3Cl2+
146.9762	31	C6H5Cl2+
158.9762	1	C7H5Cl2+
162.9712	8	C6H5Cl2O+
171.9712	4	C10HClO+
172.9556	564	C7H3Cl2O+
172.9661	28	C9ClNO+
189.982	999	C7H6Cl2NO+
201.9819	2	C8H6Cl2NO+
256.029	380	C12H12Cl2NO+
