Mass spectrum: Hexazinone; LC-ESI-QFT; MS2; CE: 35 NCE; R=35000; [M+H]+
Name: Hexazinone
Name: 3-cyclohexyl-6-(dimethylamino)-1-methyl-1,3,5-triazine-2,4-dione
Formula: C12H20N4O2
Exact mass: 252.15863
SMILES: CN(C)C1=NC(=O)N(C2CCCCC2)C(=O)N1C
InChI: InChI=1S/C12H20N4O2/c1-14(2)10-13-11(17)16(12(18)15(10)3)9-7-5-4-6-8-9/h9H,4-8H2,1-3H3
Instrument: Q Exactive Plus Orbitrap Thermo Scientific
Instrument type: LC-ESI-QFT
Ms type: MS2
Ion mode: POSITIVE
Ionization: ESI
Fragmentation mode: HCD
Collision energy: 35  (nominal)
Resolution: 35000
Column name: Kinetex C18 EVO 2.6 um, 2.1x50 mm, precolumn 2.1x5 mm, Phenomenex
Retention time: 9.051 min
Base peak: 224.0914
Precursor m/z: 253.1659
Precursor type: [M+H]+
m/z	relative intensity	assigned
55.0544	3	C4H7+
71.0604	164	C3H7N2+
72.0444	4	C3H6NO+
83.024	5	C3H3N2O+
83.0855	6	C6H11+
85.076	106	C4H9N2+
101.0346	10	C3H5N2O2+
114.0661	9	C4H8N3O+
128.082	3	C5H10N3O+
171.0876	999	C6H11N4O2+
253.1659	314	C12H21N4O2+
