Mass spectrum: Chlorpyrifos; LC-ESI-QFT; MS2; CE: 35 NCE; R=35000; [M+H]+
Name: Chlorpyrifos
Name: Diethoxy-sulfanylidene-(3,5,6-trichloropyridin-2-yl)oxy-$l^{5}-phosphane
Formula: C9H11Cl3NO3PS
Exact mass: 348.92628
SMILES: CCOP(=S)(OCC)OC1=NC(Cl)=C(Cl)C=C1Cl
InChI: InChI=1S/C9H11Cl3NO3PS/c1-3-14-17(18,15-4-2)16-9-7(11)5-6(10)8(12)13-9/h5H,3-4H2,1-2H3
Instrument: Q Exactive Plus Orbitrap Thermo Scientific
Instrument type: LC-ESI-QFT
Ms type: MS2
Ion mode: POSITIVE
Ionization: ESI
Fragmentation mode: HCD
Collision energy: 35  (nominal)
Resolution: 35000
Column name: Kinetex C18 EVO 2.6 um, 2.1x50 mm, precolumn 2.1x5 mm, Phenomenex
Retention time: 13.753 min
Base peak: 164.9843
Precursor m/z: 349.9336
Precursor type: [M+H]+
m/z	relative intensity	assigned
64.9788	5	CH2ClO+
78.9402	1	OPS+
96.9507	108	H2O2PS+
106.945	3	C3HCl2+
110.9665	15	CH4O2PS+
112.9997	8	C2H6ClO3+
114.9613	999	H4O3PS+
124.982	21	C2H6O2PS+
128.9769	61	CH6O3PS+
132.9718	1	CH6ClO3S+
133.9558	22	C3H2ClNOP+
142.9926	19	C2H8O3PS+
146.9874	1	C2H8ClO3S+
150.9171	1	C4HCl2S+
153.0133	7	C4H10O2PS+
157.0084	6	C4H10ClO2S+
171.0239	138	C4H12O3PS+
177.9279	2	C4H2ClNOPS+
179.9612	37	C4H4ClNO3P+
186.038	1	C7H11N2PS+
195.9383	1	C4H4ClNO2PS+
197.9274	949	C5H3Cl3NO+
212.8973	3	C5H2Cl3NS+
213.9046	99	C5H3Cl3NS+
224.0495	1	C9H10N3O2S+
225.9584	7	C6H7Cl2NO2P+
275.8605	27	C5H2Cl3NO2PS+
277.8946	1	C7Cl2N2O4S+
293.8709	118	C5H4Cl3NO3PS+
303.8921	3	C7H6Cl3NO2PS+
307.8871	7	C6H6Cl3NO3PS+
321.9023	257	C7H8Cl3NO3PS+
349.9337	363	C9H12Cl3NO3PS+
