Mass spectrum: Perfluorodecanoic acid; LC-ESI-QFT; MS2; CE: 35 NCE; R=35000; [M-H]-
Name: Perfluorodecanoic acid
Name: Perfluorocapric acid
Name: 2,2,3,3,4,4,5,5,6,6,7,7,8,8,9,9,10,10,10-nonadecafluorodecanoic acid
Formula: C10HF19O2
Exact mass: 513.96732
SMILES: OC(=O)C(F)(F)C(F)(F)C(F)(F)C(F)(F)C(F)(F)C(F)(F)C(F)(F)C(F)(F)C(F)(F)F
InChI: InChI=1S/C10HF19O2/c11-2(12,1(30)31)3(13,14)4(15,16)5(17,18)6(19,20)7(21,22)8(23,24)9(25,26)10(27,28)29/h(H,30,31)
Instrument: Q Exactive Plus Orbitrap Thermo Scientific
Instrument type: LC-ESI-QFT
Ms type: MS2
Ion mode: NEGATIVE
Ionization: ESI
Fragmentation mode: HCD
Collision energy: 35  (nominal)
Resolution: 35000
Column name: Kinetex C18 EVO 2.6 um, 2.1x50 mm, precolumn 2.1x5 mm, Phenomenex
Retention time: 16.603 min
Base peak: 512.9594
Precursor m/z: 512.96
Precursor type: [M-H]-
m/z	relative intensity	assigned
168.9894	238	C3F7-
196.9842	8	C4F7O-
218.9862	365	C4F9-
268.9831	310	C5F11-
318.9795	48	C6F13-
468.9701	999	C9F19-
