Mass spectrum: 2,4-Dichlorophenol; LC-ESI-QFT; MS2; CE: 35 NCE; R=35000; [M-H]-
Name: 2,4-Dichlorophenol
Formula: C6H4Cl2O
Exact mass: 161.96392
SMILES: Oc1ccc(Cl)cc1Cl
InChI: InChI=1S/C6H4Cl2O/c7-4-1-2-6(9)5(8)3-4/h1-3,9H
Instrument: Q Exactive Plus Orbitrap Thermo Scientific
Instrument type: LC-ESI-QFT
Ms type: MS2
Ion mode: NEGATIVE
Ionization: ESI
Fragmentation mode: HCD
Collision energy: 35  (nominal)
Resolution: 35000
Column name: Kinetex C18 EVO 2.6 um, 2.1x50 mm, precolumn 2.1x5 mm, Phenomenex
Retention time: 9.943 min
Base peak: 112.9848
Precursor m/z: 160.9566
Precursor type: [M-H]-
m/z	relative intensity	assigned
124.9795	175	C6H2ClO-
132.9815	6	C3H2ClN2O2-
160.9567	999	C6H3Cl2O-
