Mass spectrum: Diphenylsulfoxide; LC-ESI-QFT; MS2; CE: 35 NCE; R=35000; [M+H]+
Name: Diphenylsulfoxide
Name: Diphenyl sulfoxide
Name: Benzenesulfinylbenzene
Formula: C12H10OS
Exact mass: 202.04524
SMILES: O=S(C1=CC=CC=C1)C1=CC=CC=C1
InChI: InChI=1S/C12H10OS/c13-14(11-7-3-1-4-8-11)12-9-5-2-6-10-12/h1-10H
Instrument: Q Exactive Plus Orbitrap Thermo Scientific
Instrument type: LC-ESI-QFT
Ms type: MS2
Ion mode: POSITIVE
Ionization: ESI
Fragmentation mode: HCD
Collision energy: 35  (nominal)
Resolution: 35000
Column name: Kinetex C18 EVO 2.6 um, 2.1x50 mm, precolumn 2.1x5 mm, Phenomenex
Retention time: 9.390 min
Base peak: 203.0522
Precursor m/z: 203.0525
Precursor type: [M+H]+
m/z	relative intensity	assigned
53.0388	2	C4H5+
65.0388	1	C5H5+
77.0388	7	C6H5+
78.0464	9	C6H6+
81.0335	2	C5H5O+
94.0413	12	C6H6O+
95.0491	5	C6H7O+
97.0106	51	C5H5S+
105.0447	1	C6H5N2+
109.0106	62	C6H5S+
110.0184	6	C6H6S+
111.0263	1	C6H7S+
125.0055	276	C6H5OS+
126.0133	15	C6H6OS+
141.0698	1	C11H9+
142.0775	1	C11H10+
147.0262	4	C9H7S+
153.0697	2	C12H9+
154.0775	5	C12H10+
155.0855	8	C12H11+
170.0725	1	C12H10O+
171.0264	3	C11H7S+
175.0573	1	C11H11S+
184.0339	2	C12H8S+
185.0419	84	C12H9S+
186.0497	468	C12H10S+
203.0524	999	C12H11OS+
