Mass spectrum: Metribuzin; LC-ESI-QFT; MS2; CE: 35 NCE; R=35000; [M+H]+
Name: Metribuzin
Name: 4-amino-6-tert-butyl-3-methylsulfanyl-1,2,4-triazin-5-one
Formula: C8H14N4OS
Exact mass: 214.08883
SMILES: CSC1=NN=C(C(=O)N1N)C(C)(C)C
InChI: InChI=1S/C8H14N4OS/c1-8(2,3)5-6(13)12(9)7(14-4)11-10-5/h9H2,1-4H3
Instrument: Q Exactive Plus Orbitrap Thermo Scientific
Instrument type: LC-ESI-QFT
Ms type: MS2
Ion mode: POSITIVE
Ionization: ESI
Fragmentation mode: HCD
Collision energy: 35  (nominal)
Resolution: 35000
Column name: Kinetex C18 EVO 2.6 um, 2.1x50 mm, precolumn 2.1x5 mm, Phenomenex
Retention time: 8.538 min
Base peak: 215.0959
Precursor m/z: 215.0961
Precursor type: [M+H]+
m/z	relative intensity	assigned
57.07	18	C4H9+
58.0401	25	CH4N3+
59.9904	5	CH2NS+
60.9982	1	CH3NS+
62.006	8	CH4NS+
69.0084	3	C2HN2O+
69.0699	3	C5H9+
74.0059	16	C2H4NS+
76.0216	5	C2H6NS+
79.0542	1	C6H7+
82.0651	6	C5H8N+
83.0239	2	C3H3N2O+
84.0807	30	C5H10N+
86.9898	1	C3H3OS+
87.0011	7	C2H3N2S+
88.009	1	C2H4N2S+
89.0168	20	C2H5N2S+
89.042	3	C4H9S+
97.0647	9	C6H9O+
99.0916	2	C5H11N2+
104.0276	6	C2H6N3S+
110.06	2	C6H8NO+
112.0757	1	C6H10NO+
114.996	18	C3H3N2OS+
130.0687	2	C6H12NS+
131.0274	9	C4H7N2OS+
131.0385	21	C3H7N4S+
139.0864	1	C7H11N2O+
140.1055	1	C6H12N4+
143.0636	1	C6H11N2S+
145.0541	7	C4H9N4S+
155.051	1	C6H9N3S+
155.0637	1	C7H11N2S+
156.059	1	C6H10N3S+
157.0429	2	C6H9N2OS+
167.0925	2	C7H11N4O+
171.0586	17	C7H11N2OS+
172.0664	1	C7H12N2OS+
172.0774	3	C6H12N4S+
183.0461	1	C7H9N3OS+
184.0538	3	C7H10N3OS+
186.0821	20	C8H14N2OS+
187.1011	190	C7H15N4S+
200.0726	1	C7H12N4OS+
215.0961	999	C8H15N4OS+
