Mass spectrum: Creatinine; LC-ESI-QFT; MS2; CE: 35 NCE; R=35000; [M+H]+
Name: Creatinine
Name: 2-Amino-3-methyl-4H-imidazol-5-one
Formula: C4H7N3O
Exact mass: 113.0589
SMILES: CN1CC(=O)N=C1N
InChI: InChI=1S/C4H7N3O/c1-7-2-3(8)6-4(7)5/h2H2,1H3,(H2,5,6,8)
Instrument: Q Exactive Plus Orbitrap Thermo Scientific
Instrument type: LC-ESI-QFT
Ms type: MS2
Ion mode: POSITIVE
Ionization: ESI
Fragmentation mode: HCD
Collision energy: 35  (nominal)
Resolution: 35000
Column name: Kinetex C18 EVO 2.6 um, 2.1x50 mm, precolumn 2.1x5 mm, Phenomenex
Retention time: 0.412 min
Base peak: 114.1276
Precursor m/z: 114.0662
Precursor type: [M+H]+
m/z	relative intensity	assigned
57.0575	2	C3H7N+
58.0653	69	C3H8N+
70.0653	2	C4H8N+
72.0445	11	C3H6NO+
86.0713	71	C3H8N3+
114.0662	999	C4H8N3O+
