Mass spectrum: Acetochlor; LC-ESI-QFT; MS2; CE: 35 NCE; R=35000; [M+H]+
Name: Acetochlor
Name: 2-chloro-N-(ethoxymethyl)-N-(2-ethyl-6-methylphenyl)acetamide
Formula: C14H20ClNO2
Exact mass: 269.11826
SMILES: CCOCN(C(=O)CCl)c1c(C)cccc1CC
InChI: InChI=1S/C14H20ClNO2/c1-4-12-8-6-7-11(3)14(12)16(10-18-5-2)13(17)9-15/h6-8H,4-5,9-10H2,1-3H3
Instrument: Q Exactive Plus Orbitrap Thermo Scientific
Instrument type: LC-ESI-QFT
Ms type: MS2
Ion mode: POSITIVE
Ionization: ESI
Fragmentation mode: HCD
Collision energy: 35  (nominal)
Resolution: 35000
Column name: Kinetex C18 EVO 2.6 um, 2.1x50 mm, precolumn 2.1x5 mm, Phenomenex
Retention time: 11.858 min
Base peak: 224.0834
Precursor m/z: 270.1255
Precursor type: [M+H]+
m/z	relative intensity	assigned
59.0493	215	C3H7O+
75.9948	1	C2H3ClN+
76.9788	10	C2H2ClO+
90.0105	68	C3H5ClN+
91.0544	4	C7H7+
93.0701	1	C7H9+
104.0262	1	C4H7ClN+
105.0698	1	C8H9+
117.0573	1	C8H7N+
120.0809	9	C8H10N+
131.0728	1	C9H9N+
131.0855	29	C10H11+
132.0807	15	C9H10N+
133.0886	84	C9H11N+
134.0965	3	C9H12N+
143.0733	1	C10H9N+
144.0809	1	C10H10N+
145.0886	4	C10H11N+
146.0965	12	C10H12N+
147.1045	8	C10H13N+
148.1121	633	C10H14N+
149.0962	55	C10H13O+
156.0811	1	C11H10N+
157.0887	1	C11H11N+
158.0964	6	C11H12N+
159.1045	1	C11H13N+
160.1121	4	C11H14N+
170.0964	5	C12H12N+
171.1042	2	C12H13N+
173.0839	1	C11H11NO+
188.1072	6	C12H14NO+
192.0575	7	C11H11ClN+
194.0732	23	C11H13ClN+
206.0733	27	C12H13ClN+
210.068	17	C11H13ClNO+
224.0837	999	C12H15ClNO+
240.1149	7	C13H19ClNO+
256.11	4	C13H19ClNO2+
270.1256	158	C14H21ClNO2+
