Mass spectrum: 2,4,5-Trichlorphenol; LC-ESI-QFT; MS2; CE: 35 NCE; R=35000; [M-H]-
Name: 2,4,5-Trichlorphenol
Formula: C6H3Cl3O
Exact mass: 195.92495
SMILES: OC1=C(Cl)C=C(Cl)C(Cl)=C1
InChI: InChI=1S/C6H3Cl3O/c7-3-1-5(9)6(10)2-4(3)8/h1-2,10H
Instrument: Q Exactive Plus Orbitrap Thermo Scientific
Instrument type: LC-ESI-QFT
Ms type: MS2
Ion mode: NEGATIVE
Ionization: ESI
Fragmentation mode: HCD
Collision energy: 35  (nominal)
Resolution: 35000
Column name: Kinetex C18 EVO 2.6 um, 2.1x50 mm, precolumn 2.1x5 mm, Phenomenex
Retention time: 11.544 min
Base peak: 194.9177
Precursor m/z: 194.9177
Precursor type: [M-H]-
m/z	relative intensity	assigned
122.964	1	C6ClO-
158.941	329	C6HCl2O-
194.9177	999	C6H2Cl3O-
