Mass spectrum: Sulfadimethoxine; LC-ESI-QFT; MS2; CE: 35 NCE; R=35000; [M+H]+
Name: Sulfadimethoxine
Name: 4-amino-N-(2,6-dimethoxypyrimidin-4-yl)benzenesulfonamide
Formula: C12H14N4O4S
Exact mass: 310.07358
SMILES: COC1=CC(NS(=O)(=O)C2=CC=C(N)C=C2)=NC(OC)=N1
InChI: InChI=1S/C12H14N4O4S/c1-19-11-7-10(14-12(15-11)20-2)16-21(17,18)9-5-3-8(13)4-6-9/h3-7H,13H2,1-2H3,(H,14,15,16)
Instrument: Q Exactive Plus Orbitrap Thermo Scientific
Instrument type: LC-ESI-QFT
Ms type: MS2
Ion mode: POSITIVE
Ionization: ESI
Fragmentation mode: HCD
Collision energy: 35  (nominal)
Resolution: 35000
Column name: Kinetex C18 EVO 2.6 um, 2.1x50 mm, precolumn 2.1x5 mm, Phenomenex
Retention time: 8.004 min
Base peak: 311.0803
Precursor m/z: 311.0809
Precursor type: [M+H]+
m/z	relative intensity	assigned
56.0496	1	C3H6N+
57.0449	1	C2H5N2+
58.0289	1	C2H4NO+
65.0386	25	C5H5+
67.0291	3	C3H3N2+
68.0495	19	C4H6N+
72.0445	1	C3H6NO+
78.0338	2	C5H4N+
79.0178	2	C5H3O+
80.0494	5	C5H6N+
81.0448	1	C4H5N2+
82.0287	2	C4H4NO+
89.0709	3	C3H9N2O+
92.0494	214	C6H6N+
93.0573	10	C6H7N+
96.0444	1	C5H6NO+
99.0553	4	C4H7N2O+
108.0443	285	C6H6NO+
109.0521	1	C6H7NO+
110.06	22	C6H8NO+
120.0555	4	C6H6N3+
124.0504	3	C5H6N3O+
125.0583	6	C5H7N3O+
126.0661	5	C5H8N3O+
127.0501	22	C5H7N2O2+
140.0455	3	C5H6N3O2+
141.0532	9	C5H7N3O2+
154.061	36	C6H8N3O2+
155.0688	29	C6H9N3O2+
156.0113	318	C6H6NO2S+
156.0767	442	C6H10N3O2+
157.048	2	C5H7N3O3+
170.0559	1	C6H8N3O3+
172.0737	1	C9H8N4+
173.0583	39	C9H7N3O+
201.0766	1	C10H9N4O+
218.023	51	C6H8N3O4S+
229.072	1	C11H9N4O2+
230.0799	19	C11H10N4O2+
236.0336	2	C12H4N4O2+
245.1033	92	C12H13N4O2+
247.1189	1	C12H15N4O2+
311.0808	999	C12H15N4O4S+
