Mass spectrum: Bezafibrate; LC-ESI-QFT; MS2; CE: 35 NCE; R=35000; [M-H]-
Name: Bezafibrate
Name: 2-[4-[2-[(4-chlorobenzoyl)amino]ethyl]phenoxy]-2-methylpropanoic acid
Formula: C19H20ClNO4
Exact mass: 361.10809
SMILES: CC(C)(Oc1ccc(CCNC(=O)c2ccc(Cl)cc2)cc1)C(O)=O
InChI: InChI=1S/C19H20ClNO4/c1-19(2,18(23)24)25-16-9-3-13(4-10-16)11-12-21-17(22)14-5-7-15(20)8-6-14/h3-10H,11-12H2,1-2H3,(H,21,22)(H,23,24)
Instrument: Q Exactive Plus Orbitrap Thermo Scientific
Instrument type: LC-ESI-QFT
Ms type: MS2
Ion mode: NEGATIVE
Ionization: ESI
Fragmentation mode: HCD
Collision energy: 35  (nominal)
Resolution: 35000
Column name: Kinetex C18 EVO 2.6 um, 2.1x50 mm, precolumn 2.1x5 mm, Phenomenex
Retention time: 11.436 min
Base peak: 360.1007
Precursor m/z: 360.1008
Precursor type: [M-H]-
m/z	relative intensity	assigned
85.0278	241	C2H3N3O-
93.0331	1	C4H3N3-
119.0495	9	C6H5N3-
154.0065	410	C7H5ClNO-
162.056	9	C9H8NO2-
274.064	999	C15H13ClNO2-
360.1008	253	C19H19ClNO4-
