Mass spectrum: N-Ethyl-o-toluenesulfonamide; LC-ESI-QFT; MS2; CE: 35 NCE; R=35000; [M+H]+
Name: N-Ethyl-o-toluenesulfonamide
Name: N-ethyl-2-methylbenzenesulfonamide
Formula: C9H13NO2S
Exact mass: 199.06670
SMILES: CCNS(=O)(=O)C1=C(C)C=CC=C1
InChI: InChI=1S/C9H13NO2S/c1-3-10-13(11,12)9-7-5-4-6-8(9)2/h4-7,10H,3H2,1-2H3
Instrument: Q Exactive Plus Orbitrap Thermo Scientific
Instrument type: LC-ESI-QFT
Ms type: MS2
Ion mode: POSITIVE
Ionization: ESI
Fragmentation mode: HCD
Collision energy: 35  (nominal)
Resolution: 35000
Column name: Kinetex C18 EVO 2.6 um, 2.1x50 mm, precolumn 2.1x5 mm, Phenomenex
Retention time: 8.746 min
Base peak: 200.0737
Precursor m/z: 200.074
Precursor type: [M+H]+
m/z	relative intensity	assigned
53.0388	1	C4H5+
55.0181	6	C3H3O+
65.0387	72	C5H5+
67.0543	36	C5H7+
77.0387	2	C6H5+
91.0542	589	C7H7+
95.0491	11	C6H7O+
108.0569	14	C7H8O+
109.0648	444	C7H9O+
119.0604	569	C7H7N2+
120.0575	3	C8H8O+
123.0804	2	C8H11O+
155.0161	999	C7H7O2S+
172.0425	2	C7H10NO2S+
187.0424	2	C8H11O3S+
200.074	86	C9H14NO2S+
