Mass spectrum: Atorvastatin; LC-ESI-QFT; MS2; CE: 35 NCE; R=35000; [M-H]-
Name: Atorvastatin
Name: (3R,5R)-7-[2-(4-fluorophenyl)-3-phenyl-4-(phenylcarbamoyl)-5-propan-2-ylpyrrol-1-yl]-3,5-dihydroxyheptanoic acid
Formula: C33H35FN2O5
Exact mass: 558.25300
SMILES: CC(C)c1c(C(=O)Nc2ccccc2)c(c(-c2ccc(F)cc2)n1CC[C@@H](O)C[C@@H](O)CC(O)=O)-c1ccccc1
InChI: InChI=1S/C33H35FN2O5/c1-21(2)31-30(33(41)35-25-11-7-4-8-12-25)29(22-9-5-3-6-10-22)32(23-13-15-24(34)16-14-23)36(31)18-17-26(37)19-27(38)20-28(39)40/h3-16,21,26-27,37-38H,17-20H2,1-2H3,(H,35,41)(H,39,40)/t26-,27-/m1/s1
Instrument: Q Exactive Plus Orbitrap Thermo Scientific
Instrument type: LC-ESI-QFT
Ms type: MS2
Ion mode: NEGATIVE
Ionization: ESI
Fragmentation mode: HCD
Collision energy: 35  (nominal)
Resolution: 35000
Column name: Kinetex C18 EVO 2.6 um, 2.1x50 mm, precolumn 2.1x5 mm, Phenomenex
Retention time: 12.398 min
Base peak: 557.2455
Precursor m/z: 557.2457
Precursor type: [M-H]-
m/z	relative intensity	assigned
85.0279	161	C2H3N3O-
92.0491	19	FH9O4-
262.1037	14	C18H13FN-
276.1196	6	C19H15FN-
278.135	903	C19H17FN-
295.102	1	C18H14FNO2-
342.1663	1	C24H21FN-
360.1772	1	C24H23FNO-
395.1557	1	C29H19N2-
397.1721	599	C26H22FN2O-
451.2198	1	C30H28FN2O-
453.1985	133	C29H26FN2O2-
477.2343	3	C32H30FN2O-
479.2137	24	C31H28FN2O2-
495.2443	1	C32H32FN2O2-
521.2244	13	C33H30FN2O3-
539.2356	6	C33H32FN2O4-
557.2457	999	C33H34FN2O5-
