Mass spectrum: Labetalol; LC-ESI-QFT; MS2; CE: 35 NCE; R=35000; [M+H]+
Name: Labetalol
Name: 2-hydroxy-5-[1-hydroxy-2-(4-phenylbutan-2-ylamino)ethyl]benzamide
Formula: C19H24N2O3
Exact mass: 328.17869
SMILES: CC(CCC1=CC=CC=C1)NCC(O)C1=CC(C(N)=O)=C(O)C=C1
InChI: InChI=1S/C19H24N2O3/c1-13(7-8-14-5-3-2-4-6-14)21-12-18(23)15-9-10-17(22)16(11-15)19(20)24/h2-6,9-11,13,18,21-23H,7-8,12H2,1H3,(H2,20,24)
Instrument: Q Exactive Plus Orbitrap Thermo Scientific
Instrument type: LC-ESI-QFT
Ms type: MS2
Ion mode: POSITIVE
Ionization: ESI
Fragmentation mode: HCD
Collision energy: 35  (nominal)
Resolution: 35000
Column name: Kinetex C18 EVO 2.6 um, 2.1x50 mm, precolumn 2.1x5 mm, Phenomenex
Retention time: 7.324 min
Base peak: 329.186
Precursor m/z: 329.186
Precursor type: [M+H]+
m/z	relative intensity	assigned
65.0387	7	C5H5+
79.0543	4	C6H7+
91.0543	842	C7H7+
94.0652	3	C6H8N+
105.0701	3	C8H9+
106.0652	31	C7H8N+
107.0493	12	C7H7O+
116.0494	11	C8H6N+
117.0334	1	C8H5O+
118.0652	3	C8H8N+
119.0492	6	C8H7O+
120.0445	10	C7H6NO+
133.0523	4	C8H7NO+
133.1013	9	C10H13+
134.0601	72	C8H8NO+
135.0442	12	C8H7O2+
136.0758	5	C8H10NO+
144.0445	13	C9H6NO+
145.0284	3	C9H5O2+
147.044	20	C9H7O2+
148.0758	1	C9H10NO+
148.112	1	C10H14N+
161.0599	4	C10H9O2+
162.055	999	C9H8NO2+
164.0707	91	C9H10NO2+
165.0548	81	C9H9O3+
172.076	1	C11H10NO+
179.0816	97	C9H11N2O2+
180.0656	23	C9H10NO3+
190.0864	109	C11H12NO2+
194.0813	13	C10H12NO3+
207.113	146	C11H15N2O2+
208.0976	6	C11H14NO3+
222.113	1	C12H16NO3+
252.1021	1	C16H14NO2+
294.1491	257	C19H20NO2+
311.1757	950	C19H23N2O2+
312.1597	32	C19H22NO3+
329.1862	610	C19H25N2O3+
