Mass spectrum: Clotrimazole; LC-ESI-QFT; MS2; CE: 35 NCE; R=35000; [M+H]+
Name: Clotrimazole
Name: 1-[(2-chlorophenyl)-diphenylmethyl]imidazole
Formula: C22H17ClN2
Exact mass: 344.10803
SMILES: Clc1ccccc1C(c1ccccc1)(c1ccccc1)n1ccnc1
InChI: InChI=1S/C22H17ClN2/c23-21-14-8-7-13-20(21)22(25-16-15-24-17-25,18-9-3-1-4-10-18)19-11-5-2-6-12-19/h1-17H
Instrument: Q Exactive Plus Orbitrap Thermo Scientific
Instrument type: LC-ESI-QFT
Ms type: MS2
Ion mode: POSITIVE
Ionization: ESI
Fragmentation mode: HCD
Collision energy: 35  (nominal)
Resolution: 35000
Column name: Kinetex C18 EVO 2.6 um, 2.1x50 mm, precolumn 2.1x5 mm, Phenomenex
Retention time: 9.765 min
Base peak: 292.2056
Precursor m/z: 345.1153
Precursor type: [M+H]+
m/z	relative intensity	assigned
77.0024	16	C2H4ClN+
165.07	587	C13H9+
199.0309	82	C13H8Cl+
231.0918	173	C16H11N2+
232.0992	140	C16H12N2+
233.1074	73	C16H13N2+
241.1014	99	C19H13+
242.1094	127	C19H14+
277.0782	999	C19H14Cl+
345.1154	298	C22H18ClN2+
