Mass spectrum: Terbinafine; LC-ESI-QFT; MS2; CE: 35 NCE; R=35000; [M+H]+
Name: Terbinafine
Name: (E)-N,6,6-trimethyl-N-(naphthalen-1-ylmethyl)hept-2-en-4-yn-1-amine
Formula: C21H25N
Exact mass: 291.19870
SMILES: CN(C\C=C\C#CC(C)(C)C)Cc1cccc2ccccc12
InChI: InChI=1S/C21H25N/c1-21(2,3)15-8-5-9-16-22(4)17-19-13-10-12-18-11-6-7-14-20(18)19/h5-7,9-14H,16-17H2,1-4H3/b9-5+
Instrument: Q Exactive Plus Orbitrap Thermo Scientific
Instrument type: LC-ESI-QFT
Ms type: MS2
Ion mode: POSITIVE
Ionization: ESI
Fragmentation mode: HCD
Collision energy: 35  (nominal)
Resolution: 35000
Column name: Kinetex C18 EVO 2.6 um, 2.1x50 mm, precolumn 2.1x5 mm, Phenomenex
Retention time: 9.803 min
Base peak: 292.2056
Precursor m/z: 292.206
Precursor type: [M+H]+
m/z	relative intensity	assigned
53.0388	2	C4H5+
55.0544	1	C4H7+
57.07	2	C4H9+
77.0386	4	C6H5+
79.0543	19	C6H7+
91.0542	29	C7H7+
93.0699	86	C7H9+
95.0491	10	C6H7O+
103.0543	3	C8H7+
105.0446	2	C6H5N2+
105.0699	18	C8H9+
106.0777	1	C8H10+
115.0542	6	C9H7+
119.0855	4	C9H11+
121.1012	6	C9H13+
123.0804	2	C8H11O+
141.0698	999	C11H9+
150.1278	8	C10H16N+
165.0698	1	C13H9+
170.0965	18	C12H12N+
179.0856	4	C14H11+
190.0777	1	C15H10+
191.0859	1	C15H11+
193.1012	1	C15H13+
203.0856	1	C16H11+
205.1011	10	C16H13+
236.143	2	C17H18N+
249.1638	1	C19H21+
261.1638	5	C20H21+
292.206	328	C21H26N+
