Mass spectrum: Desethylatrazine; LC-ESI-QFT; MS2; CE: 35 NCE; R=35000; [M+H]+
Name: Desethylatrazine
Name: Deethylatrazine
Name: 6-chloro-2-N-propan-2-yl-1,3,5-triazine-2,4-diamine
Formula: C6H10ClN5
Exact mass: 187.06247
SMILES: CC(C)Nc1nc(N)nc(Cl)n1
InChI: InChI=1S/C6H10ClN5/c1-3(2)9-6-11-4(7)10-5(8)12-6/h3H,1-2H3,(H3,8,9,10,11,12)
Instrument: Q Exactive Plus Orbitrap Thermo Scientific
Instrument type: LC-ESI-QFT
Ms type: MS2
Ion mode: POSITIVE
Ionization: ESI
Fragmentation mode: HCD
Collision energy: 35  (nominal)
Resolution: 35000
Column name: Kinetex C18 EVO 2.6 um, 2.1x50 mm, precolumn 2.1x5 mm, Phenomenex
Retention time: 6.738 min
Base peak: 188.0695
Precursor m/z: 188.0697
Precursor type: [M+H]+
m/z	relative intensity	assigned
61.9795	2	CHClN+
68.0244	27	C2H2N3+
79.0058	71	CH4ClN2+
86.0348	6	C2H4N3O+
104.001	72	C2H3ClN3+
110.0461	48	C3H4N5+
110.0713	3	C5H8N3+
128.0567	8	C3H6N5O+
146.0227	693	C3H5ClN5+
188.0697	999	C6H11ClN5+
