Mass spectrum: 2,6-Xylidine; LC-ESI-QFT; MS2; CE: 35 NCE; R=35000; [M+H]+
Name: 2,6-Xylidine
Name: 2,6-Dimethylaniline
Formula: C8H11N
Exact mass: 121.08915
SMILES: CC1=CC=CC(C)=C1N
InChI: InChI=1S/C8H11N/c1-6-4-3-5-7(2)8(6)9/h3-5H,9H2,1-2H3
Instrument: Q Exactive Plus Orbitrap Thermo Scientific
Instrument type: LC-ESI-QFT
Ms type: MS2
Ion mode: POSITIVE
Ionization: ESI
Fragmentation mode: HCD
Collision energy: 35  (nominal)
Resolution: 35000
Column name: Kinetex C18 EVO 2.6 um, 2.1x50 mm, precolumn 2.1x5 mm, Phenomenex
Retention time: 1.640 min
Base peak: 153.1021
Precursor m/z: 122.0964
Precursor type: [M+H]+
m/z	relative intensity	assigned
77.0385	2	C6H5+
79.0542	20	C6H7+
95.0491	2	C6H7O+
103.0542	10	C8H7+
105.0699	257	C8H9+
106.0649	2	C7H8N+
107.073	146	C7H9N+
120.057	1	C8H8O+
120.0808	3	C8H10N+
122.0964	999	C8H12N+
133.076	10	C8H9N2+
