Mass spectrum: Dexamethasone; LC-ESI-QFT; MS2; CE: 35 NCE; R=35000; [M+H]+
Name: Dexamethasone
Name: 9-Fluoro-11,17,21-trihydroxy-16-methylpregna-1,4-diene-3,20-dione
Name: 9-fluoro-11,17-dihydroxy-17-(2-hydroxyacetyl)-10,13,16-trimethyl-6,7,8,11,12,14,15,16-octahydrocyclopenta[a]phenanthren-3-one
Formula: C22H29FO5
Exact mass: 392.19990
SMILES: CC1CC2C3CCC4=CC(=O)C=CC4(C)C3(F)C(O)CC2(C)C1(O)C(=O)CO
InChI: InChI=1S/C22H29FO5/c1-12-8-16-15-5-4-13-9-14(25)6-7-19(13,2)21(15,23)17(26)10-20(16,3)22(12,28)18(27)11-24/h6-7,9,12,15-17,24,26,28H,4-5,8,10-11H2,1-3H3
Instrument: Q Exactive Plus Orbitrap Thermo Scientific
Instrument type: LC-ESI-QFT
Ms type: MS2
Ion mode: POSITIVE
Ionization: ESI
Fragmentation mode: HCD
Collision energy: 35  (nominal)
Resolution: 35000
Column name: Kinetex C18 EVO 2.6 um, 2.1x50 mm, precolumn 2.1x5 mm, Phenomenex
Retention time: 10.534 min
Base peak: 393.2069
Precursor m/z: 393.2072
Precursor type: [M+H]+
m/z	relative intensity	assigned
55.0545	8	C4H7+
57.0337	9	C3H5O+
65.0387	6	C5H5+
67.0543	48	C5H7+
69.0336	28	C4H5O+
69.07	32	C5H9+
71.0492	18	C4H7O+
77.0385	5	C6H5+
79.0543	28	C6H7+
81.0699	45	C6H9+
83.0492	9	C5H7O+
83.0855	7	C6H11+
91.0543	71	C7H7+
93.0699	91	C7H9+
95.0493	38	C6H7O+
95.0855	141	C7H11+
97.0648	44	C6H9O+
99.044	9	C5H7O2+
105.0699	103	C8H9+
107.0491	17	C7H7O+
107.0856	242	C8H11+
109.065	52	C7H9O+
109.1012	74	C8H13+
111.044	7	C6H7O2+
111.0805	33	C7H11O+
115.0544	5	C9H7+
115.0757	37	C6H11O2+
116.0617	4	C9H8+
117.07	38	C9H9+
119.0856	178	C9H11+
121.0648	273	C8H9O+
121.1012	86	C9H13+
123.0805	102	C8H11O+
125.0598	72	C7H9O2+
125.0961	26	C8H13O+
128.0619	33	C10H8+
129.0699	24	C10H9+
131.0856	117	C10H11+
132.057	8	C9H8O+
133.0649	46	C9H9O+
133.1011	56	C10H13+
135.0805	218	C9H11O+
137.0596	10	C8H9O2+
137.0961	63	C9H13O+
139.0753	5	C8H11O2+
141.0702	18	C11H9+
142.0777	9	C11H10+
143.0856	87	C11H11+
144.0571	9	C10H8O+
145.0649	87	C10H9O+
145.1011	53	C11H13+
146.0726	6	C10H10O+
147.0805	715	C10H11O+
149.0962	126	C10H13O+
151.0753	39	C9H11O2+
151.1119	18	C10H15O+
153.0697	5	C12H9+
153.0909	94	C9H13O2+
155.0854	24	C12H11+
157.1012	39	C12H13+
158.0728	36	C11H10O+
159.0805	242	C11H11O+
160.0884	5	C11H12O+
161.0962	171	C11H13O+
163.0753	25	C10H11O2+
163.1118	4	C11H15O+
165.0706	10	C10H10FO+
165.0914	18	C10H13O2+
167.0855	25	C13H11+
167.1069	31	C10H15O2+
168.0929	5	C13H12+
169.0649	26	C12H9O+
169.1014	19	C13H13+
170.0728	11	C12H10O+
171.0805	346	C12H11O+
172.0881	10	C12H12O+
173.0962	249	C12H13O+
175.0753	7	C11H11O2+
175.1119	20	C12H15O+
177.091	93	C11H13O2+
178.078	5	C14H10+
179.0857	32	C14H11+
179.1067	7	C11H15O2+
180.0936	6	C14H12+
181.0646	6	C13H9O+
181.1013	22	C14H13+
182.0731	9	C13H10O+
183.0808	39	C13H11O+
185.0962	183	C13H13O+
187.0754	91	C12H11O2+
187.1118	71	C13H15O+
189.091	28	C12H13O2+
190.0777	6	C15H10+
191.0859	7	C15H11+
191.1066	5	C12H15O2+
192.0931	8	C15H12+
193.1012	47	C15H13+
194.1091	7	C15H14+
195.0806	45	C14H11O+
195.1015	38	C11H15O3+
195.1169	24	C15H15+
196.0882	40	C14H12O+
197.0961	129	C14H13O+
198.1038	7	C14H14O+
199.1116	56	C14H15O+
201.0911	11	C13H13O2+
201.1273	9	C14H17O+
203.0849	8	C16H11+
203.1068	26	C13H15O2+
204.0932	35	C16H12+
205.1011	32	C16H13+
206.0724	5	C15H10O+
206.1092	18	C16H14+
207.1164	33	C16H15+
208.0884	38	C15H12O+
209.0963	97	C15H13O+
209.1326	35	C16H17+
210.1038	44	C15H14O+
211.0756	7	C14H11O2+
211.1118	143	C15H15O+
212.1196	32	C15H16O+
213.091	28	C14H13O2+
213.1276	91	C15H17O+
215.0854	6	C17H11+
215.1068	89	C14H15O2+
216.0939	6	C17H12+
217.1015	7	C17H13+
218.1089	6	C17H14+
219.0813	6	C13H12FO2+
219.1171	53	C17H15+
220.0884	8	C16H12O+
221.0961	100	C16H13O+
221.1326	18	C17H17+
222.104	146	C16H14O+
223.1118	175	C16H15O+
224.0827	5	C15H12O2+
224.1191	34	C16H16O+
225.0911	8	C15H13O2+
225.1275	105	C16H17O+
226.099	6	C15H14O2+
227.1065	9	C15H15O2+
227.1428	42	C16H19O+
229.1014	17	C18H13+
230.1088	6	C18H14+
231.117	6	C18H15+
233.0965	23	C17H13O+
233.1329	21	C18H17+
234.1042	29	C17H14O+
235.1118	149	C17H15O+
235.1475	13	C18H19+
236.1195	22	C17H16O+
237.1275	477	C17H17O+
238.135	5	C17H18O+
239.1069	36	C16H15O2+
239.1432	148	C17H19O+
241.1225	47	C16H17O2+
243.1021	5	C15H15O3+
243.1171	11	C19H15+
245.0961	26	C18H13O+
245.1324	7	C19H17+
246.1039	20	C18H14O+
247.1118	42	C18H15O+
247.1228	4	C17H15N2+
248.1192	48	C18H16O+
249.1275	108	C18H17O+
249.1632	6	C19H21+
250.135	8	C18H18O+
251.1065	17	C17H15O2+
251.1435	47	C18H19O+
252.1509	9	C18H20O+
253.1225	105	C17H17O2+
253.1587	36	C18H21O+
255.1382	34	C17H19O2+
257.132	7	C20H17+
258.14	5	C20H18+
259.1118	27	C19H15O+
259.1481	8	C20H19+
260.1195	27	C19H16O+
261.1278	73	C19H17O+
261.1631	13	C20H21+
262.1352	53	C19H18O+
263.1432	180	C19H19O+
264.1508	8	C19H20O+
265.159	30	C19H21O+
267.138	57	C18H19O2+
267.1745	36	C19H23O+
271.1117	10	C20H15O+
272.119	17	C20H16O+
273.1266	10	C20H17O+
273.1499	5	C14H22FO4+
273.1637	19	C21H21+
274.1355	26	C20H18O+
275.1432	100	C20H19O+
276.1512	36	C20H20O+
277.1224	22	C19H17O2+
277.1588	191	C20H21O+
278.1669	61	C20H22O+
279.1381	23	C19H19O2+
279.1745	421	C20H23O+
281.1536	15	C19H21O2+
281.1907	29	C17H26FO2+
286.1352	43	C21H18O+
288.1506	5	C21H20O+
289.1588	89	C21H21O+
291.1745	245	C21H23O+
293.1539	24	C20H21O2+
294.162	5	C17H23FO3+
295.1333	24	C19H19O3+
295.1697	88	C20H23O2+
296.1778	9	C17H25FO3+
297.185	56	C20H25O2+
301.1589	122	C22H21O+
304.1466	7	C18H21FO3+
306.1614	8	C21H22O2+
307.1695	118	C21H23O2+
309.1851	193	C21H25O2+
311.1642	54	C20H23O3+
313.1795	10	C20H25O3+
319.1695	349	C22H23O2+
325.18	106	C21H25O3+
327.1956	61	C21H27O3+
337.1799	497	C22H25O3+
343.191	22	C18H28FO5+
352.1725	4	C22H23FNO2+
355.1905	999	C22H27O4+
357.1868	16	C22H26FO3+
373.2013	766	C22H29O5+
393.2072	169	C22H30FO5+
