Mass spectrum: Clomazone; LC-ESI-QFT; MS2; CE: 35 NCE; R=35000; [M+H]+
Name: Clomazone
Name: 2-[(2-chlorophenyl)methyl]-4,4-dimethyl-1,2-oxazolidin-3-one
Formula: C12H14ClNO2
Exact mass: 239.07131
SMILES: CC1(C)CON(Cc2ccccc2Cl)C1=O
InChI: InChI=1S/C12H14ClNO2/c1-12(2)8-16-14(11(12)15)7-9-5-3-4-6-10(9)13/h3-6H,7-8H2,1-2H3
Instrument: Q Exactive Plus Orbitrap Thermo Scientific
Instrument type: LC-ESI-QFT
Ms type: MS2
Ion mode: POSITIVE
Ionization: ESI
Fragmentation mode: HCD
Collision energy: 35  (nominal)
Resolution: 35000
Column name: Kinetex C18 EVO 2.6 um, 2.1x50 mm, precolumn 2.1x5 mm, Phenomenex
Retention time: 10.674 min
Base peak: 240.0783
Precursor m/z: 240.0786
Precursor type: [M+H]+
m/z	relative intensity	assigned
89.0385	4	C7H5+
98.9997	1	C5H4Cl+
100.0758	2	C5H10NO+
114.0548	1	C5H8NO2+
125.0153	999	C7H6Cl+
128.0706	13	C6H10NO2+
140.0261	1	C7H7ClN+
240.0786	317	C12H15ClNO2+
