Mass spectrum: Dichlorophen; LC-ESI-QFT; MS2; CE: 35 NCE; R=35000; [M-H]-
Name: Dichlorophen
Formula: C13H10Cl2O2
Exact mass: 268.00578
SMILES: OC1=CC=C(Cl)C=C1CC1=C(O)C=CC(Cl)=C1
InChI: InChI=1S/C13H10Cl2O2/c14-10-1-3-12(16)8(6-10)5-9-7-11(15)2-4-13(9)17/h1-4,6-7,16-17H,5H2
Instrument: Q Exactive Plus Orbitrap Thermo Scientific
Instrument type: LC-ESI-QFT
Ms type: MS2
Ion mode: NEGATIVE
Ionization: ESI
Fragmentation mode: HCD
Collision energy: 35  (nominal)
Resolution: 35000
Column name: Kinetex C18 EVO 2.6 um, 2.1x50 mm, precolumn 2.1x5 mm, Phenomenex
Retention time: 12.084 min
Base peak: 266.9986
Precursor m/z: 266.9985
Precursor type: [M-H]-
m/z	relative intensity	assigned
126.9952	999	C6H4ClO-
231.0213	3	C13H8ClO2-
266.9985	631	C13H9Cl2O2-
