Mass spectrum: Canrenone; LC-ESI-QFT; MS2; CE: 35 NCE; R=35000; [M+H]+
Name: Canrenone
Name: Spirolactone SC 14266
Name: 10,13-dimethylspiro[2,8,9,11,12,14,15,16-octahydro-1H-cyclopenta[a]phenanthrene-17,5`-oxolane]-2`,3-dione
Formula: C22H28O3
Exact mass: 340.20384
SMILES: CC12CCC3C(C=CC4=CC(=O)CCC34C)C1CCC21CCC(=O)O1
InChI: InChI=1S/C22H28O3/c1-20-9-5-15(23)13-14(20)3-4-16-17(20)6-10-21(2)18(16)7-11-22(21)12-8-19(24)25-22/h3-4,13,16-18H,5-12H2,1-2H3
Instrument: Q Exactive Plus Orbitrap Thermo Scientific
Instrument type: LC-ESI-QFT
Ms type: MS2
Ion mode: POSITIVE
Ionization: ESI
Fragmentation mode: HCD
Collision energy: 35  (nominal)
Resolution: 35000
Column name: Kinetex C18 EVO 2.6 um, 2.1x50 mm, precolumn 2.1x5 mm, Phenomenex
Retention time: 11.501 min
Base peak: 289.2158
Precursor m/z: 341.2111
Precursor type: [M+H]+
m/z	relative intensity	assigned
67.0543	5	C5H7+
69.0699	2	C5H9+
71.0492	7	C4H7O+
79.0542	22	C6H7+
81.0699	8	C6H9+
83.0491	26	C5H7O+
85.0647	1	C5H9O+
91.0542	23	C7H7+
93.0699	19	C7H9+
95.0491	2	C6H7O+
95.0854	5	C7H11+
97.0648	73	C6H9O+
99.044	39	C5H7O2+
105.0699	38	C8H9+
107.0855	259	C8H11+
109.0647	9	C7H9O+
109.101	2	C8H13+
111.044	5	C6H7O2+
111.0805	2	C7H11O+
113.0596	3	C6H9O2+
117.0699	5	C9H9+
119.0855	26	C9H11+
121.0648	6	C8H9O+
121.1011	16	C9H13+
123.0804	7	C8H11O+
125.0596	2	C7H9O2+
129.0699	5	C10H9+
131.0855	18	C10H11+
133.0647	5	C9H9O+
133.1011	14	C10H13+
135.0804	11	C9H11O+
135.1168	3	C10H15+
137.096	5	C9H13O+
141.0697	4	C11H9+
142.0778	2	C11H10+
143.0855	46	C11H11+
145.0648	3	C10H9O+
145.1011	36	C11H13+
147.0804	14	C10H11O+
147.1167	5	C11H15+
149.0961	12	C10H13O+
153.0908	3	C9H13O2+
154.0779	2	C12H10+
155.0855	9	C12H11+
157.1011	16	C12H13+
159.0805	12	C11H11O+
159.1168	13	C12H15+
161.096	20	C11H13O+
163.1117	11	C11H15O+
165.0909	6	C10H13O2+
167.0855	2	C13H11+
167.1069	3	C10H15O2+
169.1011	51	C13H13+
170.1089	1	C13H14+
171.0801	4	C12H11O+
171.1168	8	C13H15+
173.0961	51	C12H13O+
175.1117	22	C12H15O+
177.1271	3	C12H17O+
179.1067	9	C11H15O2+
181.101	7	C14H13+
181.1222	1	C11H17O2+
183.1168	11	C14H15+
185.0959	1	C13H13O+
185.1325	12	C14H17+
186.1405	1	C14H18+
187.1117	102	C13H15O+
189.1274	2	C13H17O+
193.1014	2	C15H13+
195.1169	5	C15H15+
197.1323	3	C15H17+
199.1116	5	C14H15O+
199.1481	2	C15H19+
201.1275	2	C14H17O+
205.1223	35	C13H17O2+
207.117	3	C16H15+
209.1324	6	C16H17+
210.1404	2	C16H18+
211.1119	2	C15H15O+
211.1481	2	C16H19+
213.1273	4	C15H17O+
217.1228	1	C14H17O2+
221.1322	5	C17H17+
223.1481	7	C17H19+
225.1273	2	C16H17O+
225.1637	2	C17H21+
227.1431	4	C16H19O+
235.1481	3	C18H19+
237.164	2	C18H21+
239.143	2	C17H19O+
241.1584	5	C17H21O+
243.1747	1	C17H23O+
245.1534	2	C16H21O2+
247.148	4	C19H19+
249.1271	2	C18H17O+
249.1639	2	C19H21+
253.1586	2	C18H21O+
257.1534	2	C17H21O2+
259.1688	3	C17H23O2+
261.1633	3	C20H21+
263.143	1	C19H19O+
263.1792	6	C20H23+
265.1585	7	C19H21O+
267.1745	1	C19H23O+
268.1816	3	C19H24O+
271.1692	1	C18H23O2+
277.1589	1	C20H21O+
277.1953	2	C21H25+
279.1741	4	C20H23O+
281.1902	5	C20H25O+
283.1692	25	C19H23O2+
287.1793	3	C22H23+
295.2055	4	C21H27O+
297.1851	1	C20H25O2+
305.1901	11	C22H25O+
323.2005	23	C22H27O2+
341.2112	999	C22H29O3+
