Mass spectrum: Pethoxamid; LC-ESI-QFT; MS2; CE: 35 NCE; R=35000; [M+H]+
Name: Pethoxamid
Name: 2-chloro-N-(2-ethoxyethyl)-N-(2-methyl-1-phenylprop-1-enyl)acetamide
Formula: C16H22ClNO2
Exact mass: 295.13391
SMILES: CCOCCN(C(=O)CCl)C(=C(C)C)c1ccccc1
InChI: InChI=1S/C16H22ClNO2/c1-4-20-11-10-18(15(19)12-17)16(13(2)3)14-8-6-5-7-9-14/h5-9H,4,10-12H2,1-3H3
Instrument: Q Exactive Plus Orbitrap Thermo Scientific
Instrument type: LC-ESI-QFT
Ms type: MS2
Ion mode: POSITIVE
Ionization: ESI
Fragmentation mode: HCD
Collision energy: 35  (nominal)
Resolution: 35000
Column name: Kinetex C18 EVO 2.6 um, 2.1x50 mm, precolumn 2.1x5 mm, Phenomenex
Retention time: 11.865 min
Base peak: 296.141
Precursor m/z: 296.1412
Precursor type: [M+H]+
m/z	relative intensity	assigned
65.0387	1	C5H5+
70.0401	1	C2H4N3+
73.0648	54	C4H9O+
91.0542	253	C7H7+
103.0543	8	C8H7+
104.0494	2	C7H6N+
105.0699	13	C8H9+
115.0541	9	C9H7+
116.0621	32	C9H8+
120.0211	2	C4H7ClNO+
128.0622	1	C10H8+
129.0699	67	C10H9+
131.0855	999	C10H11+
132.0806	1	C9H10N+
133.0648	1	C9H9O+
134.0367	5	C5H9ClNO+
146.0964	1	C10H12N+
147.104	3	C10H13N+
148.0523	8	C6H11ClNO+
148.112	1	C10H14N+
159.1042	1	C11H13N+
160.1121	14	C11H14N+
172.1118	1	C12H14N+
174.1278	7	C12H16N+
176.107	5	C11H14NO+
190.1224	2	C12H16NO+
219.1619	3	C14H21NO+
220.1696	33	C14H22NO+
250.0994	396	C14H17ClNO+
296.1413	268	C16H23ClNO2+
