Mass spectrum: Venlafaxine; LC-ESI-QFT; MS2; CE: 35 NCE; R=35000; [M+H]+
Name: Venlafaxine
Formula: C17H27NO2
Exact mass: 277.20418
SMILES: COC1=CC=C(C=C1)C(CN(C)C)C1(O)CCCCC1
InChI: InChI=1S/C17H27NO2/c1-18(2)13-16(17(19)11-5-4-6-12-17)14-7-9-15(20-3)10-8-14/h7-10,16,19H,4-6,11-13H2,1-3H3
Instrument: Q Exactive Plus Orbitrap Thermo Scientific
Instrument type: LC-ESI-QFT
Ms type: MS2
Ion mode: POSITIVE
Ionization: ESI
Fragmentation mode: HCD
Collision energy: 35  (nominal)
Resolution: 35000
Column name: Kinetex C18 EVO 2.6 um, 2.1x50 mm, precolumn 2.1x5 mm, Phenomenex
Retention time: 7.004 min
Base peak: 278.2113
Precursor m/z: 278.2115
Precursor type: [M+H]+
m/z	relative intensity	assigned
58.0653	999	C3H8N+
79.0544	4	C6H7+
81.0699	9	C6H9+
107.0859	5	C8H11+
121.0649	134	C8H9O+
135.0806	4	C9H11O+
147.0805	59	C10H11O+
152.1434	3	C10H18N+
159.0804	10	C11H11O+
173.0964	27	C12H13O+
215.1433	44	C15H19O+
222.0779	2	C14H10N2O+
260.2013	241	C17H26NO+
278.2118	400	C17H28NO2+
