Mass spectrum: 2,3,5-Trichlorphenol; LC-ESI-QFT; MS2; CE: 35 NCE; R=35000; [M-H]-
Name: 2,3,5-Trichlorphenol
Formula: C6H3Cl3O
Exact mass: 195.92495
SMILES: OC1=C(Cl)C(Cl)=CC(Cl)=C1
InChI: InChI=1S/C6H3Cl3O/c7-3-1-4(8)6(9)5(10)2-3/h1-2,10H
Instrument: Q Exactive Plus Orbitrap Thermo Scientific
Instrument type: LC-ESI-QFT
Ms type: MS2
Ion mode: NEGATIVE
Ionization: ESI
Fragmentation mode: HCD
Collision energy: 35  (nominal)
Resolution: 35000
Column name: Kinetex C18 EVO 2.6 um, 2.1x50 mm, precolumn 2.1x5 mm, Phenomenex
Retention time: 11.679 min
Base peak: 194.9177
Precursor m/z: 194.9177
Precursor type: [M-H]-
m/z	relative intensity	assigned
158.941	195	C6HCl2O-
194.9176	999	C6H2Cl3O-
