Mass spectrum: Benzocaine; LC-ESI-QFT; MS2; CE: 35 NCE; R=35000; [M+H]+
Name: Benzocaine
Name: Benzocain
Name: ethyl 4-aminobenzoate
Formula: C9H11NO2
Exact mass: 165.07898
SMILES: CCOC(=O)C1=CC=C(N)C=C1
InChI: InChI=1S/C9H11NO2/c1-2-12-9(11)7-3-5-8(10)6-4-7/h3-6H,2,10H2,1H3
Instrument: Q Exactive Plus Orbitrap Thermo Scientific
Instrument type: LC-ESI-QFT
Ms type: MS2
Ion mode: POSITIVE
Ionization: ESI
Fragmentation mode: HCD
Collision energy: 35  (nominal)
Resolution: 35000
Column name: Kinetex C18 EVO 2.6 um, 2.1x50 mm, precolumn 2.1x5 mm, Phenomenex
Retention time: 7.774 min
Base peak: 325.1706
Precursor m/z: 166.0863
Precursor type: [M+H]+
m/z	relative intensity	assigned
53.0388	3	C4H5+
65.0385	3	C5H5+
67.0542	1	C5H7+
77.0385	9	C6H5+
92.0494	9	C6H6N+
93.0573	8	C6H7N+
94.0651	490	C6H8N+
95.0491	18	C6H7O+
105.0447	5	C6H5N2+
120.0444	486	C7H6NO+
122.0965	2	C8H12N+
138.0549	999	C7H8NO2+
166.0863	155	C9H12NO2+
