Mass spectrum: Lorazepam; LC-ESI-QFT; MS2; CE: 35 NCE; R=35000; [M+H]+
Name: Lorazepam
Name: 7-chloro-5-(2-chlorophenyl)-3-hydroxy-1,3-dihydro-1,4-benzodiazepin-2-one
Formula: C15H10Cl2N2O2
Exact mass: 320.01193
SMILES: OC1N=C(c2ccccc2Cl)c2cc(Cl)ccc2NC1=O
InChI: InChI=1S/C15H10Cl2N2O2/c16-8-5-6-12-10(7-8)13(19-15(21)14(20)18-12)9-3-1-2-4-11(9)17/h1-7,15,21H,(H,18,20)
Instrument: Q Exactive Plus Orbitrap Thermo Scientific
Instrument type: LC-ESI-QFT
Ms type: MS2
Ion mode: POSITIVE
Ionization: ESI
Fragmentation mode: HCD
Collision energy: 35  (nominal)
Resolution: 35000
Column name: Kinetex C18 EVO 2.6 um, 2.1x50 mm, precolumn 2.1x5 mm, Phenomenex
Retention time: 10.410 min
Base peak: 321.0191
Precursor m/z: 321.0192
Precursor type: [M+H]+
m/z	relative intensity	assigned
93.0573	10	C6H7N+
128.0262	20	C6H7ClN+
130.04	2	C7H4N3+
138.0105	54	C7H5ClN+
153.0214	6	C7H6ClN2+
156.0211	2	C7H7ClNO+
163.0057	63	C8H4ClN2+
166.0053	9	C8H5ClNO+
177.0578	1	C13H7N+
181.0163	1	C8H6ClN2O+
194.0839	17	C13H10N2+
205.0761	7	C14H9N2+
214.0421	2	C13H9ClN+
229.0527	292	C13H10ClN2+
239.037	21	C14H8ClN2+
240.0446	1	C14H9ClN2+
241.0292	4	C11H11Cl2N2+
248.003	2	C13H8Cl2N+
250.0188	5	C13H10Cl2N+
257.0477	5	C14H10ClN2O+
263.0136	2	C13H9Cl2N2+
265.0294	22	C13H11Cl2N2+
274.0057	1	C14H8Cl2N2+
275.0137	999	C14H9Cl2N2+
275.9981	4	C14H8Cl2NO+
291.009	4	C14H9Cl2N2O+
292.0164	2	C14H10Cl2N2O+
303.0087	313	C15H9Cl2N2O+
321.0193	655	C15H11Cl2N2O2+
