Mass spectrum: Atorvastatin; LC-ESI-QFT; MS2; CE: 35 NCE; R=35000; [M+H]+
Name: Atorvastatin
Name: (3R,5R)-7-[2-(4-fluorophenyl)-3-phenyl-4-(phenylcarbamoyl)-5-propan-2-ylpyrrol-1-yl]-3,5-dihydroxyheptanoic acid
Formula: C33H35FN2O5
Exact mass: 558.25300
SMILES: CC(C)c1c(C(=O)Nc2ccccc2)c(c(-c2ccc(F)cc2)n1CC[C@@H](O)C[C@@H](O)CC(O)=O)-c1ccccc1
InChI: InChI=1S/C33H35FN2O5/c1-21(2)31-30(33(41)35-25-11-7-4-8-12-25)29(22-9-5-3-6-10-22)32(23-13-15-24(34)16-14-23)36(31)18-17-26(37)19-27(38)20-28(39)40/h3-16,21,26-27,37-38H,17-20H2,1-2H3,(H,35,41)(H,39,40)/t26-,27-/m1/s1
Instrument: Q Exactive Plus Orbitrap Thermo Scientific
Instrument type: LC-ESI-QFT
Ms type: MS2
Ion mode: POSITIVE
Ionization: ESI
Fragmentation mode: HCD
Collision energy: 35  (nominal)
Resolution: 35000
Column name: Kinetex C18 EVO 2.6 um, 2.1x50 mm, precolumn 2.1x5 mm, Phenomenex
Retention time: 12.404 min
Base peak: 559.2603
Precursor m/z: 559.2603
Precursor type: [M+H]+
m/z	relative intensity	assigned
53.0388	2	C4H5+
55.0544	6	C4H7+
57.0336	1	C3H5O+
59.0493	2	C3H7O+
65.0387	1	C5H5+
71.0129	7	C3H3O2+
71.0492	4	C4H7O+
77.0386	2	C6H5+
79.0542	29	C6H7+
83.0491	23	C5H7O+
85.0648	1	C5H9O+
89.0233	8	C3H5O3+
91.0543	1	C7H7+
92.0495	28	C6H6N+
95.0491	9	C6H7O+
97.0284	5	C5H5O2+
97.0647	4	C6H9O+
99.0805	1	C6H11O+
101.0597	15	C5H9O2+
104.0494	4	C7H6N+
105.07	1	C8H9+
107.049	3	C7H7O+
109.0447	5	C7H6F+
115.0543	8	C9H7+
117.0574	3	C8H7N+
120.0444	25	C7H6NO+
122.0399	6	C7H5FN+
125.0598	4	C7H9O2+
128.062	1	C10H8+
129.07	8	C10H9+
132.0443	2	C8H6NO+
133.0447	10	C9H6F+
135.0477	2	C8H6FN+
147.0603	2	C10H8F+
154.0651	2	C11H8N+
167.0727	1	C12H9N+
172.0555	1	C11H7FN+
179.0857	1	C14H11+
180.0804	1	C13H10N+
185.0765	3	C13H10F+
197.0961	1	C14H13O+
198.071	1	C13H9FN+
203.0855	8	C16H11+
209.0762	15	C15H10F+
215.0854	1	C17H11+
218.0968	1	C16H12N+
221.0759	4	C16H10F+
222.0845	1	C16H11F+
223.0917	7	C16H12F+
223.101	1	C12H14FNO2+
230.0963	16	C17H12N+
233.0761	39	C17H10F+
234.084	1	C17H11F+
235.0791	19	C16H10FN+
236.0871	4	C16H11FN+
237.0947	17	C16H12FN+
238.1026	78	C16H13FN+
242.0969	1	C18H12N+
248.0871	50	C17H11FN+
249.0948	97	C17H12FN+
250.1027	999	C17H13FN+
251.11	5	C17H14FN+
252.1184	31	C17H15FN+
256.0749	1	C12H13FO5+
259.0929	3	C19H12F+
261.0947	13	C18H12FN+
262.1028	58	C18H13FN+
263.1105	4	C18H14FN+
264.0819	17	C17H11FNO+
264.1181	21	C18H15FN+
264.1309	1	C19H17F+
274.1024	11	C19H13FN+
275.1105	12	C19H14FN+
275.1228	1	C20H16F+
276.0829	36	C18H11FNO+
276.1184	392	C19H15FN+
277.0885	1	C21H11N+
277.1263	19	C19H16FN+
278.0972	6	C18H13FNO+
278.1341	8	C19H17FN+
279.1418	13	C19H18FN+
280.1497	28	C19H19FN+
287.1095	1	C20H14FN+
288.1184	16	C20H15FN+
289.1258	7	C20H16FN+
290.1342	24	C20H17FN+
291.1423	1	C20H18FN+
292.1496	341	C20H19FN+
294.0926	4	C18H13FNO2+
294.1288	5	C19H17FNO+
294.1653	49	C20H21FN+
300.1186	5	C21H15FN+
301.1258	3	C21H16FN+
302.0975	14	C20H13FNO+
302.1339	55	C21H17FN+
303.1054	1	C20H14FNO+
303.1416	6	C21H18FN+
304.1141	1	C20H15FNO+
304.1495	4	C21H19FN+
306.129	30	C20H17FNO+
308.1454	1	C20H19FNO+
316.1126	1	C24H14N+
316.1494	15	C22H19FN+
318.1289	15	C21H17FNO+
318.1653	57	C22H21FN+
320.1081	7	C20H15FNO2+
320.1446	36	C21H19FNO+
326.1349	1	C23H17FN+
334.1233	2	C21H17FNO2+
334.1972	1	C23H25FN+
336.1392	2	C21H19FNO2+
336.1759	14	C22H23FNO+
342.1294	4	C23H17FNO+
344.1443	20	C23H19FNO+
344.1814	3	C24H23FN+
346.1245	1	C22H17FNO2+
360.1391	7	C23H19FNO2+
360.2126	1	C25H27FN+
361.1475	4	C23H20FNO2+
362.1551	126	C23H21FNO2+
362.1878	9	C24H26O3+
369.1399	2	C24H18FN2O+
370.1239	4	C24H17FNO2+
378.2237	7	C25H29FNO+
379.1578	13	C23H22FNO3+
380.1657	178	C23H23FNO3+
380.2006	14	C27H26NO+
398.1761	26	C23H25FNO4+
402.1864	8	C26H25FNO2+
404.2025	31	C26H27FNO2+
406.1446	4	C24H21FNO4+
406.1819	6	C25H25FNO3+
413.202	4	C27H26FN2O+
422.2127	115	C26H29FNO3+
424.1567	7	C30H20N2O+
430.1823	8	C27H25FNO3+
440.2234	851	C26H31FNO4+
448.1924	20	C27H27FNO4+
466.2027	216	C27H29FNO5+
467.2065	4	C28H27N4O3+
541.2485	3	C33H34FN2O4+
559.2605	562	C33H36FN2O5+
