Mass spectrum: Pantoprazole; LC-ESI-QFT; MS2; CE: 35 NCE; R=35000; [M-H]-
Name: Pantoprazole
Name: 6-(difluoromethoxy)-2-[(3,4-dimethoxypyridin-2-yl)methylsulfinyl]-1H-benzimidazole
Formula: C16H15F2N3O4S
Exact mass: 383.07513
SMILES: COC1=CC=NC(CS(=O)C2=NC3=CC=C(OC(F)F)C=C3N2)=C1OC
InChI: InChI=1S/C16H15F2N3O4S/c1-23-13-5-6-19-12(14(13)24-2)8-26(22)16-20-10-4-3-9(25-15(17)18)7-11(10)21-16/h3-7,15H,8H2,1-2H3,(H,20,21)
Instrument: Q Exactive Plus Orbitrap Thermo Scientific
Instrument type: LC-ESI-QFT
Ms type: MS2
Ion mode: NEGATIVE
Ionization: ESI
Fragmentation mode: HCD
Collision energy: 35  (nominal)
Resolution: 35000
Column name: Kinetex C18 EVO 2.6 um, 2.1x50 mm, precolumn 2.1x5 mm, Phenomenex
Retention time: 8.646 min
Base peak: 382.0678
Precursor m/z: 382.0679
Precursor type: [M-H]-
m/z	relative intensity	assigned
102.0211	17	FH5NO4-
130.017	3	C7H2N2O-
133.9943	1	C6H2N2S-
141.0095	1	C8HN2O-
147.0198	6	C7H3N2O2-
150.997	1	C6H3N2OS-
161.0156	135	C8H2FN2O-
161.9893	29	C7H2N2OS-
162.0234	36	C8H3FN2O-
178.0184	18	C8H3FN2O2-
178.992	17	C7H3N2O2S-
181.995	1	C10H2N2S-
182.0298	2	C8H4F2N2O-
189.9838	6	C8H2N2O2S-
198.0246	2	C8H4F2N2O2-
209.9904	60	C8H3FN2O2S-
229.9966	999	C8H4F2N2O2S-
382.0677	15	C16H14F2N3O4S-
