Mass spectrum: Trifloxystrobin; LC-ESI-QFT; MS2; CE: 35 NCE; R=35000; [M+H]+
Name: Trifloxystrobin
Name: methyl (2Z)-2-methoxyimino-2-[2-[[(E)-1-[3-(trifluoromethyl)phenyl]ethylideneamino]oxymethyl]phenyl]acetate
Formula: C20H19F3N2O4
Exact mass: 408.12969
SMILES: CO\N=C(/C(=O)OC)c1ccccc1CO\N=C(/C)c1cccc(c1)C(F)(F)F
InChI: InChI=1S/C20H19F3N2O4/c1-13(14-8-6-9-16(11-14)20(21,22)23)24-29-12-15-7-4-5-10-17(15)18(25-28-3)19(26)27-2/h4-11H,12H2,1-3H3/b24-13+,25-18-
Instrument: Q Exactive Plus Orbitrap Thermo Scientific
Instrument type: LC-ESI-QFT
Ms type: MS2
Ion mode: POSITIVE
Ionization: ESI
Fragmentation mode: HCD
Collision energy: 35  (nominal)
Resolution: 35000
Column name: Kinetex C18 EVO 2.6 um, 2.1x50 mm, precolumn 2.1x5 mm, Phenomenex
Retention time: 13.230 min
Base peak: 409.1365
Precursor m/z: 409.137
Precursor type: [M+H]+
m/z	relative intensity	assigned
79.0542	2	C6H7+
89.0385	13	C7H5+
90.0463	2	C7H6+
91.0542	22	C7H7+
101.0198	3	C5H3F2+
103.0542	4	C8H7+
105.0698	18	C8H9+
109.0648	2	C7H9O+
115.0543	2	C9H7+
116.0494	216	C8H6N+
117.0572	31	C8H7N+
118.0413	1	C8H6O+
118.0651	28	C8H8N+
119.0492	9	C8H7O+
119.073	2	C8H9N+
128.0494	1	C9H6N+
130.0651	19	C9H8N+
131.0729	152	C9H9N+
132.0444	15	C8H6NO+
132.0807	92	C9H10N+
134.06	19	C8H8NO+
143.0303	4	C7H5F2O+
145.0259	192	C7H4F3+
146.06	67	C9H8NO+
147.0678	11	C9H9NO+
148.0756	12	C9H10NO+
149.0471	2	C8H7NO2+
159.0419	2	C8H6F3+
161.0471	13	C9H7NO2+
162.0913	16	C10H12NO+
163.0363	10	C7H6F3O+
173.0321	58	C7H4F3N2+
174.055	1	C10H8NO2+
175.0629	6	C10H9NO2+
178.0859	4	C10H12NO2+
186.0525	999	C9H7F3N+
192.0659	1	C10H10NO3+
206.0811	255	C11H12NO3+
409.137	94	C20H20F3N2O4+
