Mass spectrum: Piperidine; LC-ESI-QFT; MS2; CE: 35 NCE; R=35000; [M+H]+
Name: Piperidine
Formula: C5H11N
Exact mass: 85.08915
SMILES: C1CCNCC1
InChI: InChI=1S/C5H11N/c1-2-4-6-5-3-1/h6H,1-5H2
Instrument: Q Exactive Plus Orbitrap Thermo Scientific
Instrument type: LC-ESI-QFT
Ms type: MS2
Ion mode: POSITIVE
Ionization: ESI
Fragmentation mode: HCD
Collision energy: 35  (nominal)
Resolution: 35000
Column name: Kinetex C18 EVO 2.6 um, 2.1x50 mm, precolumn 2.1x5 mm, Phenomenex
Retention time: 0.387 min
Base peak: 88.0755
Precursor m/z: 86.0964
Precursor type: [M+H]+
m/z	relative intensity	assigned
67.0542	1	C5H7+
69.0698	31	C5H9+
86.0962	999	C5H12N+
