Mass spectrum: Tetrachlorosalicylanilide; LC-ESI-QFT; MS2; CE: 35 NCE; R=35000; [M-H]-
Name: Tetrachlorosalicylanilide
Name: 2,3,4,5-tetrachloro-6-hydroxy-N-phenylbenzamide
Formula: C13H7Cl4NO2
Exact mass: 348.92309
SMILES: OC1=C(Cl)C(Cl)=C(Cl)C(Cl)=C1C(=O)NC1=CC=CC=C1
InChI: InChI=1S/C13H7Cl4NO2/c14-8-7(12(19)11(17)10(16)9(8)15)13(20)18-6-4-2-1-3-5-6/h1-5,19H,(H,18,20)
Instrument: Q Exactive Plus Orbitrap Thermo Scientific
Instrument type: LC-ESI-QFT
Ms type: MS2
Ion mode: NEGATIVE
Ionization: ESI
Fragmentation mode: HCD
Collision energy: 35  (nominal)
Resolution: 35000
Column name: Kinetex C18 EVO 2.6 um, 2.1x50 mm, precolumn 2.1x5 mm, Phenomenex
Retention time: 14.383 min
Base peak: 349.9126
Precursor m/z: 347.9158
Precursor type: [M-H]-
m/z	relative intensity	assigned
123.9953	1	C9O-
124.9795	118	C6H2ClO-
158.9409	4	C6HCl2O-
159.9726	56	C6H4Cl2N-
160.9566	303	C6H3Cl2O-
185.9518	6	C7H2Cl2NO-
347.9156	999	C13H6Cl4NO2-
