Mass spectrum: Glimepiride; LC-ESI-QFT; MS2; CE: 35 NCE; R=35000; [M-H]-
Name: Glimepiride
Name: 4-ethyl-3-methyl-N-[2-[4-[(4-methylcyclohexyl)carbamoylsulfamoyl]phenyl]ethyl]-5-oxo-2H-pyrrole-1-carboxamide
Formula: C24H34N4O5S
Exact mass: 490.22499
SMILES: CCC1=C(C)CN(C(=O)NCCC2=CC=C(C=C2)S(=O)(=O)NC(=O)NC2CCC(C)CC2)C1=O
InChI: InChI=1S/C24H34N4O5S/c1-4-21-17(3)15-28(22(21)29)24(31)25-14-13-18-7-11-20(12-8-18)34(32,33)27-23(30)26-19-9-5-16(2)6-10-19/h7-8,11-12,16,19H,4-6,9-10,13-15H2,1-3H3,(H,25,31)(H2,26,27,30)
Instrument: Q Exactive Plus Orbitrap Thermo Scientific
Instrument type: LC-ESI-QFT
Ms type: MS2
Ion mode: NEGATIVE
Ionization: ESI
Fragmentation mode: HCD
Collision energy: 35  (nominal)
Resolution: 35000
Column name: Kinetex C18 EVO 2.6 um, 2.1x50 mm, precolumn 2.1x5 mm, Phenomenex
Retention time: 12.512 min
Base peak: 489.2178
Precursor m/z: 489.2177
Precursor type: [M-H]-
m/z	relative intensity	assigned
109.0522	1	C4H5N4-
124.0763	28	C7H10NO-
169.0202	7	C7H7NO2S-
182.0281	6	C8H8NO2S-
210.0234	4	C9H8NO3S-
225.034	999	C9H9N2O3S-
350.1181	80	C16H20N3O4S-
364.1339	142	C17H22N3O4S-
376.0973	33	C17H18N3O5S-
489.2179	409	C24H33N4O5S-
