Mass spectrum: Enalapril; LC-ESI-QFT; MS2; CE: 35 NCE; R=35000; [M+H]+
Name: Enalapril
Name: (2S)-1-[(2S)-2-[[(2S)-1-ethoxy-1-oxo-4-phenylbutan-2-yl]azaniumyl]propanoyl]pyrrolidine-2-carboxylate
Formula: C20H28N2O5
Exact mass: 376.19982
SMILES: CCOC(=O)[C@H](CCc1ccccc1)N[C@@H](C)C(=O)N1CCC[C@H]1C(O)=O
InChI: InChI=1S/C20H28N2O5/c1-3-27-20(26)16(12-11-15-8-5-4-6-9-15)21-14(2)18(23)22-13-7-10-17(22)19(24)25/h4-6,8-9,14,16-17,21H,3,7,10-13H2,1-2H3,(H,24,25)/t14-,16-,17-/m0/s1
Instrument: Q Exactive Plus Orbitrap Thermo Scientific
Instrument type: LC-ESI-QFT
Ms type: MS2
Ion mode: POSITIVE
Ionization: ESI
Fragmentation mode: HCD
Collision energy: 35  (nominal)
Resolution: 35000
Column name: Kinetex C18 EVO 2.6 um, 2.1x50 mm, precolumn 2.1x5 mm, Phenomenex
Retention time: 8.191 min
Base peak: 377.2068
Precursor m/z: 377.2071
Precursor type: [M+H]+
m/z	relative intensity	assigned
56.0497	34	C3H6N+
58.0653	1	C3H8N+
70.0652	15	C4H8N+
73.0648	27	C4H9O+
82.0651	1	C5H8N+
84.0444	2	C4H6NO+
91.0542	117	C7H7+
98.06	3	C5H8NO+
102.055	77	C4H8NO2+
105.0699	5	C8H9+
115.0541	3	C9H7+
116.0706	25	C5H10NO2+
117.0699	362	C9H9+
119.0854	1	C9H11+
130.0863	267	C6H12NO2+
134.0964	136	C9H12N+
142.0863	2	C7H12NO2+
143.0855	4	C11H11+
144.0807	4	C10H10N+
160.1121	265	C11H14N+
162.1276	6	C11H16N+
188.1071	2	C12H14NO+
206.1175	17	C12H16NO2+
206.1538	2	C13H20NO+
232.1334	9	C14H18NO2+
234.1489	699	C14H20NO2+
257.1652	1	C16H21N2O+
280.1539	2	C15H22NO4+
303.1704	185	C17H23N2O3+
377.2072	999	C20H29N2O5+
