Mass spectrum: 3-Phenoxyphenol; LC-ESI-QFT; MS2; CE: 35 NCE; R=35000; [M+H]+
Name: 3-Phenoxyphenol
Formula: C12H10O2
Exact mass: 186.06808
SMILES: OC1=CC(OC2=CC=CC=C2)=CC=C1
InChI: InChI=1S/C12H10O2/c13-10-5-4-8-12(9-10)14-11-6-2-1-3-7-11/h1-9,13H
Instrument: Q Exactive Plus Orbitrap Thermo Scientific
Instrument type: LC-ESI-QFT
Ms type: MS2
Ion mode: POSITIVE
Ionization: ESI
Fragmentation mode: HCD
Collision energy: 35  (nominal)
Resolution: 35000
Column name: Kinetex C18 EVO 2.6 um, 2.1x50 mm, precolumn 2.1x5 mm, Phenomenex
Retention time: 10.667 min
Base peak: 65.0597
Precursor m/z: 187.0754
Precursor type: [M+H]+
m/z	relative intensity	assigned
103.0541	8	C8H7+
115.054	6	C9H7+
116.0619	10	C9H8+
117.0697	1	C9H9+
127.054	8	C10H7+
128.0619	18	C10H8+
129.0698	198	C10H9+
131.0491	5	C9H7O+
131.0854	5	C10H11+
141.0698	2	C11H9+
143.0491	2	C10H7O+
144.0568	625	C10H8O+
145.0646	27	C10H9O+
155.0602	29	C10H7N2+
157.0647	449	C11H9O+
158.0724	1	C11H10O+
159.0803	260	C11H11O+
169.0759	1	C11H9N2+
171.0439	10	C11H7O2+
172.0517	47	C11H8O2+
185.0596	14	C12H9O2+
187.0752	999	C12H11O2+
