Mass spectrum: Primidone; LC-ESI-QFT; MS2; CE: 35 NCE; R=35000; [M+H]+
Name: Primidone
Name: 5-ethyl-5-phenyl-1,3-diazinane-4,6-dione
Formula: C12H14N2O2
Exact mass: 218.10553
SMILES: CCC1(C(=O)NCNC1=O)c1ccccc1
InChI: InChI=1S/C12H14N2O2/c1-2-12(9-6-4-3-5-7-9)10(15)13-8-14-11(12)16/h3-7H,2,8H2,1H3,(H,13,15)(H,14,16)
Instrument: Q Exactive Plus Orbitrap Thermo Scientific
Instrument type: LC-ESI-QFT
Ms type: MS2
Ion mode: POSITIVE
Ionization: ESI
Fragmentation mode: HCD
Collision energy: 35  (nominal)
Resolution: 35000
Column name: Kinetex C18 EVO 2.6 um, 2.1x50 mm, precolumn 2.1x5 mm, Phenomenex
Retention time: 6.372 min
Base peak: 294.1597
Precursor m/z: 219.1128
Precursor type: [M+H]+
m/z	relative intensity	assigned
91.0542	502	C7H7+
95.0491	4	C6H7O+
105.0698	1	C8H9+
106.0651	172	C7H8N+
115.0544	3	C9H7+
117.0699	132	C9H9+
119.0855	379	C9H11+
131.0855	9	C10H11+
133.0522	1	C8H7NO+
134.0964	43	C9H12N+
144.081	3	C10H10N+
145.0648	24	C10H9O+
146.0965	6	C10H12N+
147.0678	1	C9H9NO+
162.0913	999	C10H12NO+
174.0914	46	C11H12NO+
176.1069	4	C11H14NO+
201.1024	1	C12H13N2O+
208.097	10	C11H14NO3+
219.1128	157	C12H15N2O2+
