Mass spectrum: Citalopram; LC-ESI-QFT; MS2; CE: 35 NCE; R=35000; [M+H]+
Name: Citalopram
Name: 1-[3-(dimethylamino)propyl]-1-(4-fluorophenyl)-3H-2-benzofuran-5-carbonitrile
Formula: C20H21FN2O
Exact mass: 324.1638
SMILES: Fc1ccc(cc1)C3(OCc2cc(C#N)ccc23)CCCN(C)C
InChI: InChI=1S/C20H21FN2O/c1-23(2)11-3-10-20(17-5-7-18(21)8-6-17)19-9-4-15(13-22)12-16(19)14-24-20/h4-9,12H,3,10-11,14H2,1-2H3
Instrument: Q Exactive Plus Orbitrap Thermo Scientific
Instrument type: LC-ESI-QFT
Ms type: MS2
Ion mode: POSITIVE
Ionization: ESI
Fragmentation mode: HCD
Collision energy: 35  (nominal)
Resolution: 35000
Column name: Kinetex C18 EVO 2.6 um, 2.1x50 mm, precolumn 2.1x5 mm, Phenomenex
Retention time: 7.755 min
Base peak: 325.1706
Precursor m/z: 325.1711
Precursor type: [M+H]+
m/z	relative intensity	assigned
58.0653	51	C3H8N+
70.0652	2	C4H8N+
72.0808	2	C4H10N+
83.0291	4	C5H4F+
84.0808	10	C5H10N+
89.0386	1	C7H5+
97.0447	1	C6H6F+
109.0448	719	C7H6F+
116.0494	106	C8H6N+
121.0447	5	C8H6F+
123.024	9	C7H4FO+
123.0604	3	C8H8F+
125.0398	1	C7H6FO+
129.0699	7	C10H9+
130.0651	5	C9H8N+
133.0449	2	C9H6F+
137.0761	2	C9H10F+
140.0494	7	C10H6N+
142.0651	5	C10H8N+
144.0443	8	C9H6NO+
146.0527	1	C10H7F+
147.0602	3	C10H8F+
154.065	4	C11H8N+
156.0807	23	C11H10N+
158.06	2	C10H8NO+
159.0604	2	C11H8F+
166.0651	52	C12H8N+
168.0804	3	C12H10N+
184.0757	3	C12H10NO+
215.0854	12	C17H11+
218.06	4	C15H8NO+
220.068	7	C16H9F+
221.0634	34	C15H8FN+
222.0712	17	C15H9FN+
224.0868	2	C15H11FN+
227.0728	25	C17H9N+
233.076	6	C17H10F+
234.0713	113	C16H9FN+
235.0791	4	C16H10FN+
235.0917	18	C17H12F+
236.0869	8	C16H11FN+
238.066	13	C15H9FNO+
240.0804	5	C18H10N+
241.0885	8	C18H11N+
242.0963	26	C18H12N+
245.076	4	C18H10F+
246.0714	10	C17H9FN+
246.084	3	C18H11F+
247.0791	67	C17H10FN+
250.1025	15	C17H13FN+
260.0866	7	C18H11FN+
261.0947	7	C18H12FN+
262.1026	228	C18H13FN+
280.1131	16	C18H15FNO+
307.1605	19	C20H20FN2+
325.171	999	C20H22FN2O+
