Mass spectrum: 2-(Methylthio)benzothiazole; LC-ESI-QFT; MS2; CE: 35 NCE; R=35000; [M+H]+
Name: 2-(Methylthio)benzothiazole
Name: 2-methylsulfanyl-1,3-benzothiazole
Formula: C8H7NS2
Exact mass: 181.00199
SMILES: CSC1=NC2=CC=CC=C2S1
InChI: InChI=1S/C8H7NS2/c1-10-8-9-6-4-2-3-5-7(6)11-8/h2-5H,1H3
Instrument: Q Exactive Plus Orbitrap Thermo Scientific
Instrument type: LC-ESI-QFT
Ms type: MS2
Ion mode: POSITIVE
Ionization: ESI
Fragmentation mode: HCD
Collision energy: 35  (nominal)
Resolution: 35000
Column name: Kinetex C18 EVO 2.6 um, 2.1x50 mm, precolumn 2.1x5 mm, Phenomenex
Retention time: 10.844 min
Base peak: 182.009
Precursor m/z: 182.0093
Precursor type: [M+H]+
m/z	relative intensity	assigned
109.0105	2	C6H5S+
135.0137	8	C7H5NS+
136.0216	3	C7H6NS+
166.9858	201	C7H5NS2+
182.0092	999	C8H8NS2+
