Mass spectrum: Valsartan; LC-ESI-QFT; MS2; CE: 35 NCE; R=35000; [M+H]+
Name: Valsartan
Name: (2S)-3-methyl-2-[pentanoyl-[[4-[2-(2H-tetrazol-5-yl)phenyl]phenyl]methyl]amino]butanoic acid
Formula: C24H29N5O3
Exact mass: 435.22704
SMILES: CCCCC(=O)N(CC1=CC=C(C=C1)C1=CC=CC=C1C1=NNN=N1)[C@@H](C(C)C)C(O)=O
InChI: InChI=1S/C24H29N5O3/c1-4-5-10-21(30)29(22(16(2)3)24(31)32)15-17-11-13-18(14-12-17)19-8-6-7-9-20(19)23-25-27-28-26-23/h6-9,11-14,16,22H,4-5,10,15H2,1-3H3,(H,31,32)(H,25,26,27,28)/t22-/m0/s1
Instrument: Q Exactive Plus Orbitrap Thermo Scientific
Instrument type: LC-ESI-QFT
Ms type: MS2
Ion mode: POSITIVE
Ionization: ESI
Fragmentation mode: HCD
Collision energy: 35  (nominal)
Resolution: 35000
Column name: Kinetex C18 EVO 2.6 um, 2.1x50 mm, precolumn 2.1x5 mm, Phenomenex
Retention time: 11.967 min
Base peak: 373.2847
Precursor m/z: 436.2343
Precursor type: [M+H]+
m/z	relative intensity	assigned
55.0544	4	C4H7+
57.0701	4	C4H9+
67.0418	2	C4H5N+
72.0808	2	C4H10N+
79.0542	4	C6H7+
80.0496	9	C5H6N+
83.0493	2	C5H7O+
84.0808	11	C5H10N+
85.0648	3	C5H9O+
98.06	7	C5H8NO+
105.0447	3	C6H5N2+
109.1662	1	H21N4O2+
115.0542	4	C9H7+
129.0445	7	C8H5N2+
140.0494	24	C10H6N+
141.0701	3	C11H9+
152.0618	14	C12H8+
153.0699	99	C12H9+
163.0541	22	C13H7+
165.0698	26	C13H9+
166.0651	8	C12H8N+
167.0669	1	C5H7N6O+
167.073	14	C12H9N+
167.0857	3	C13H11+
168.0686	2	C11H8N2+
177.0579	3	C13H7N+
178.0656	6	C13H8N+
178.0777	110	C14H10+
179.073	10	C13H9N+
179.0853	22	C14H11+
180.0808	387	C13H10N+
181.0648	9	C13H9O+
181.0757	3	C12H9N2+
190.0651	318	C14H8N+
191.073	41	C14H9N+
192.0682	82	C13H8N2+
192.0804	14	C14H10N+
193.0888	26	C14H11N+
194.06	4	C13H8NO+
194.0965	83	C14H12N+
195.0807	4	C14H11O+
195.0918	1	C13H11N2+
196.0759	15	C13H10NO+
199.0976	2	C11H11N4+
205.076	47	C14H9N2+
206.0839	199	C14H10N2+
207.0917	999	C14H11N2+
208.0757	103	C14H10NO+
209.1074	44	C14H13N2+
210.0914	135	C14H12NO+
224.1073	2	C15H14NO+
234.0912	2	C16H12NO+
235.0866	95	C15H11N2O+
235.0977	819	C14H11N4+
267.124	42	C15H15N4O+
290.1413	3	C19H18N2O+
291.1492	729	C19H19N2O+
293.1653	2	C19H21N2O+
306.1714	323	C18H20N5+
352.1768	124	C19H22N5O2+
362.2228	259	C23H28N3O+
390.2286	8	C23H28N5O+
408.2283	96	C24H30N3O3+
418.2238	221	C24H28N5O2+
436.2352	41	C24H30N5O3+
