Mass spectrum: Pyrazol; LC-ESI-QFT; MS2; CE: 35 NCE; R=35000; [M+H]+
Name: Pyrazol
Formula: C3H4N2
Exact mass: 68.03745
SMILES: N1C=CC=N1
InChI: InChI=1S/C3H4N2/c1-2-4-5-3-1/h1-3H,(H,4,5)
Instrument: Q Exactive Plus Orbitrap Thermo Scientific
Instrument type: LC-ESI-QFT
Ms type: MS2
Ion mode: POSITIVE
Ionization: ESI
Fragmentation mode: HCD
Collision energy: 35  (nominal)
Resolution: 35000
Column name: Kinetex C18 EVO 2.6 um, 2.1x50 mm, precolumn 2.1x5 mm, Phenomenex
Retention time: 0.764 min
Base peak: 117.0908
Precursor m/z: 69.0447
Precursor type: [M+H]+
m/z	relative intensity	assigned
69.0448	999	C3H5N2+
