Mass spectrum: Cinnamamide; LC-ESI-QFT; MS2; CE: 35 NCE; R=35000; [M+H]+
Name: Cinnamamide
Name: (E)-3-phenylprop-2-enamide
Formula: C9H9NO
Exact mass: 147.06841
SMILES: NC(=O)\C=C\C1=CC=CC=C1
InChI: InChI=1S/C9H9NO/c10-9(11)7-6-8-4-2-1-3-5-8/h1-7H,(H2,10,11)/b7-6+
Instrument: Q Exactive Plus Orbitrap Thermo Scientific
Instrument type: LC-ESI-QFT
Ms type: MS2
Ion mode: POSITIVE
Ionization: ESI
Fragmentation mode: HCD
Collision energy: 35  (nominal)
Resolution: 35000
Column name: Kinetex C18 EVO 2.6 um, 2.1x50 mm, precolumn 2.1x5 mm, Phenomenex
Retention time: 6.621 min
Base peak: 148.0754
Precursor m/z: 148.0757
Precursor type: [M+H]+
m/z	relative intensity	assigned
77.0388	4	C6H5+
79.0542	2	C6H7+
95.0491	1	C6H7O+
102.0462	1	C8H6+
103.0542	215	C8H7+
105.0698	58	C8H9+
106.0651	12	C7H8N+
130.0652	2	C9H8N+
131.0491	999	C9H7O+
148.0756	394	C9H10NO+
