Mass spectrum: Purpurin; LC-ESI-QFT; MS2; CE: 35 NCE; R=35000; [M-H]-
Name: Purpurin
Name: 1,2,4-trihydroxyanthracene-9,10-dione
Formula: C14H8O5
Exact mass: 256.03717
SMILES: OC1=CC(O)=C2C(=O)C3=CC=CC=C3C(=O)C2=C1O
InChI: InChI=1S/C14H8O5/c15-8-5-9(16)14(19)11-10(8)12(17)6-3-1-2-4-7(6)13(11)18/h1-5,15-16,19H
Instrument: Q Exactive Plus Orbitrap Thermo Scientific
Instrument type: LC-ESI-QFT
Ms type: MS2
Ion mode: NEGATIVE
Ionization: ESI
Fragmentation mode: HCD
Collision energy: 35  (nominal)
Resolution: 35000
Column name: Kinetex C18 EVO 2.6 um, 2.1x50 mm, precolumn 2.1x5 mm, Phenomenex
Retention time: 11.840 min
Base peak: 91.0021
Precursor m/z: 255.0299
Precursor type: [M-H]-
m/z	relative intensity	assigned
171.0449	14	C11H7O2-
183.0453	18	C12H7O2-
227.035	205	C13H7O4-
255.03	999	C14H7O5-
