Mass spectrum: Pirimiphos-methyl; LC-ESI-QFT; MS2; CE: 35 NCE; R=35000; [M+H]+
Name: Pirimiphos-methyl
Name: 4-dimethoxyphosphinothioyloxy-N,N-diethyl-6-methylpyrimidin-2-amine
Formula: C11H20N3O3PS
Exact mass: 305.09630
SMILES: CCN(CC)c1nc(C)cc(OP(=S)(OC)OC)n1
InChI: InChI=1S/C11H20N3O3PS/c1-6-14(7-2)11-12-9(3)8-10(13-11)17-18(19,15-4)16-5/h8H,6-7H2,1-5H3
Instrument: Q Exactive Plus Orbitrap Thermo Scientific
Instrument type: LC-ESI-QFT
Ms type: MS2
Ion mode: POSITIVE
Ionization: ESI
Fragmentation mode: HCD
Collision energy: 35  (nominal)
Resolution: 35000
Column name: Kinetex C18 EVO 2.6 um, 2.1x50 mm, precolumn 2.1x5 mm, Phenomenex
Retention time: 12.282 min
Base peak: 306.103
Precursor m/z: 306.1036
Precursor type: [M+H]+
m/z	relative intensity	assigned
62.0186	1	C2H6S+
67.0291	75	C3H3N2+
68.0496	2	C4H6N+
70.0652	3	C4H8N+
78.9943	7	CH4O2P+
84.0442	2	C4H6NO+
88.0215	2	C3H6NS+
95.0604	100	C5H7N2+
99.0917	2	C5H11N2+
100.0215	6	C4H6NS+
108.0556	289	C5H6N3+
109.076	29	C6H9N2+
116.0528	2	C5H10NS+
119.0604	3	C7H7N2+
121.0633	1	C6H7N3+
123.0916	15	C7H11N2+
124.982	21	C2H6O2PS+
127.0154	9	C2H8O4P+
136.0869	83	C7H10N3+
140.0817	1	C6H10N3O+
142.9926	46	C2H8O3PS+
150.0315	1	C4H9NO3P+
151.0267	10	C3H8N2O3P+
157.0081	5	C3H10O3PS+
164.1182	347	C9H14N3+
168.0592	1	C7H10N3S+
168.1132	7	C8H14N3O+
179.058	13	C5H12N2O3P+
184.0902	1	C8H14N3S+
196.1444	12	C10H18N3O+
197.0988	2	C11H17OS+
207.0893	23	C7H16N2O3P+
208.0193	1	C6H11NO3PS+
218.0152	2	C6H9N3O2PS+
223.0662	1	C11H13NO2S+
233.0145	9	C7H10N2O3PS+
236.0255	3	C6H11N3O3PS+
246.0461	14	C8H13N3O2PS+
247.1201	1	C10H20N2O3P+
250.0411	7	C7H13N3O3PS+
264.0559	2	C8H15N3O3PS+
274.0773	23	C10H17N3O2PS+
278.0723	53	C9H17N3O3PS+
304.088	1	C11H19N3O3PS+
306.1035	999	C11H21N3O3PS+
