Mass spectrum: Perfluorohexanoic acid; LC-ESI-QFT; MS2; CE: 35 NCE; R=35000; [M-H]-
Name: Perfluorohexanoic acid
Name: 2,2,3,3,4,4,5,5,6,6,6-undecafluorohexanoic acid
Formula: C6HF11O2
Exact mass: 313.98009
SMILES: OC(=O)C(F)(F)C(F)(F)C(F)(F)C(F)(F)C(F)(F)F
InChI: InChI=1S/C6HF11O2/c7-2(8,1(18)19)3(9,10)4(11,12)5(13,14)6(15,16)17/h(H,18,19)
Instrument: Q Exactive Plus Orbitrap Thermo Scientific
Instrument type: LC-ESI-QFT
Ms type: MS2
Ion mode: NEGATIVE
Ionization: ESI
Fragmentation mode: HCD
Collision energy: 35  (nominal)
Resolution: 35000
Column name: Kinetex C18 EVO 2.6 um, 2.1x50 mm, precolumn 2.1x5 mm, Phenomenex
Retention time: 12.826 min
Base peak: 312.9728
Precursor m/z: 312.9728
Precursor type: [M-H]-
m/z	relative intensity	assigned
225.9904	8	C5F8N-
268.9831	999	C5F11-
312.9727	17	C6F11O2-
