Mass spectrum: Anastrozole; LC-ESI-QFT; MS2; CE: 35 NCE; R=35000; [M+H]+
Name: Anastrozole
Name: 2-[3-(2-cyanopropan-2-yl)-5-(1,2,4-triazol-1-ylmethyl)phenyl]-2-methylpropanenitrile
Formula: C17H19N5
Exact mass: 293.16405
SMILES: CC(C)(C#N)c1cc(Cn2cncn2)cc(c1)C(C)(C)C#N
InChI: InChI=1S/C17H19N5/c1-16(2,9-18)14-5-13(8-22-12-20-11-21-22)6-15(7-14)17(3,4)10-19/h5-7,11-12H,8H2,1-4H3
Instrument: Q Exactive Plus Orbitrap Thermo Scientific
Instrument type: LC-ESI-QFT
Ms type: MS2
Ion mode: POSITIVE
Ionization: ESI
Fragmentation mode: HCD
Collision energy: 35  (nominal)
Resolution: 35000
Column name: Kinetex C18 EVO 2.6 um, 2.1x50 mm, precolumn 2.1x5 mm, Phenomenex
Retention time: 9.142 min
Base peak: 294.171
Precursor m/z: 294.1713
Precursor type: [M+H]+
m/z	relative intensity	assigned
115.0543	1	C9H7+
129.0698	2	C10H9+
130.0777	10	C10H10+
131.0855	4	C10H11+
142.0651	6	C10H8N+
156.081	1	C11H10N+
156.0934	1	C12H12+
157.0887	14	C11H11N+
158.0964	2	C11H12N+
168.0807	1	C12H10N+
170.0962	1	C12H12N+
171.1168	2	C13H15+
183.1041	2	C13H13N+
195.0916	3	C13H11N2+
198.1277	12	C14H16N+
209.1071	6	C14H13N2+
210.1151	34	C14H14N2+
225.1386	999	C15H17N2+
261.1595	1	C13H19N5O+
267.1598	2	C16H19N4+
294.1714	464	C17H20N5+
