Mass spectrum: Oryzalin; LC-ESI-QFT; MS2; CE: 35 NCE; R=35000; [M+H]+
Name: Oryzalin
Name: 4-(dipropylamino)-3,5-dinitrobenzenesulfonamide
Formula: C12H18N4O6S
Exact mass: 346.09471
SMILES: CCCN(CCC)C1=C(C=C(C=C1[N+]([O-])=O)S(N)(=O)=O)[N+]([O-])=O
InChI: InChI=1S/C12H18N4O6S/c1-3-5-14(6-4-2)12-10(15(17)18)7-9(23(13,21)22)8-11(12)16(19)20/h7-8H,3-6H2,1-2H3,(H2,13,21,22)
Instrument: Q Exactive Plus Orbitrap Thermo Scientific
Instrument type: LC-ESI-QFT
Ms type: MS2
Ion mode: POSITIVE
Ionization: ESI
Fragmentation mode: HCD
Collision energy: 35  (nominal)
Resolution: 35000
Column name: Kinetex C18 EVO 2.6 um, 2.1x50 mm, precolumn 2.1x5 mm, Phenomenex
Retention time: 11.922 min
Base peak: 284.1409
Precursor m/z: 347.102
Precursor type: [M+H]+
m/z	relative intensity	assigned
52.0184	8	C3H2N+
53.0024	7	C3HO+
56.0133	46	C2H2NO+
56.0497	3	C3H6N+
57.0337	21	C3H5O+
58.0289	1	C2H4NO+
58.0653	6	C3H8N+
59.0494	4	C3H7O+
60.0809	4	C3H10N+
63.9853	6	H2NOS+
64.0183	2	C4H2N+
65.0261	6	C4H3N+
66.0213	1	C3H2N2+
66.0339	2	C4H4N+
68.0132	2	C3H2NO+
70.0289	2	C3H4NO+
70.0653	1	C4H8N+
77.0261	1	C5H3N+
78.0339	17	C5H4N+
79.0291	8	C4H3N2+
79.0418	1	C5H5N+
80.0132	7	C4H2NO+
80.0368	1	C4H4N2+
80.0495	2	C5H6N+
84.0444	5	C4H6NO+
85.0888	1	C5H11N+
91.0291	1	C5H3N2+
91.0542	2	C7H7+
92.0133	1	C5H2NO+
92.0369	9	C5H4N2+
92.0495	2	C6H6N+
93.021	2	C5H3NO+
93.0448	6	C5H5N2+
93.07	1	C7H9+
94.0288	2	C5H4NO+
94.0526	1	C5H6N2+
95.0241	4	C4H3N2O+
96.0081	1	C4H2NO2+
102.0549	2	C4H8NO2+
103.0543	1	C8H7+
104.0245	1	C5H2N3+
104.0494	6	C7H6N+
105.0211	1	C6H3NO+
105.0448	11	C6H5N2+
105.0572	2	C7H7N+
106.0526	1	C6H6N2+
107.024	2	C5H3N2O+
108.0079	1	C5H2NO2+
109.0158	2	C5H3NO2+
115.0545	1	C9H7+
117.0321	1	C6H3N3+
117.0448	2	C7H5N2+
117.0574	25	C8H7N+
118.0397	1	C6H4N3+
118.0649	1	C8H8N+
119.0241	13	C6H3N2O+
120.0557	2	C6H6N3+
120.0807	6	C8H10N+
121.0396	8	C6H5N2O+
122.0239	1	C6H4NO2+
123.0188	1	C5H3N2O2+
124.0266	1	C5H4N2O2+
125.0343	1	C5H5N2O2+
130.0652	1	C9H8N+
131.0241	1	C7H3N2O+
131.0603	5	C8H7N2+
131.0731	2	C9H9N+
132.0187	1	C6H2N3O+
132.0317	15	C7H4N2O+
132.0557	1	C7H6N3+
132.0808	18	C9H10N+
133.0397	32	C7H5N2O+
133.0521	2	C8H7NO+
134.0351	1	C6H4N3O+
134.0475	5	C7H6N2O+
135.0188	2	C6H3N2O2+
135.0426	1	C6H5N3O+
136.0268	5	C6H4N2O2+
137.0347	1	C6H5N2O2+
143.0599	1	CH11N4O2S+
144.1019	7	C7H14NO2+
145.0397	39	C8H5N2O+
145.076	7	C9H9N2+
145.1052	11	C2H15N3O4+
146.0843	1	C3H16NO3S+
148.0142	7	C6H2N3O2+
148.0505	6	C7H6N3O+
148.0756	6	C9H10NO+
149.0222	2	C6H3N3O2+
149.0347	15	C7H5N2O2+
150.0301	1	C6H4N3O2+
150.0421	1	C7H6N2O2+
151.05	1	C7H7N2O2+
152.0215	5	C6H4N2O3+
159.0552	2	C9H7N2O+
160.0636	1	C3H14NO4S+
161.0456	1	C7H5N4O+
161.0708	14	C9H9N2O+
163.0503	1	C8H7N2O2+
165.0172	1	H9N2O6S+
165.0295	2	C7H5N2O3+
166.0371	1	C7H6N2O3+
167.0453	2	C7H7N2O3+
168.0167	1	C6H4N2O4+
170.0144	9	C6H6N2O2S+
171.0223	10	C6H7N2O2S+
176.0817	1	C9H10N3O+
177.066	13	C9H9N2O2+
178.0249	4	C7H4N3O3+
178.0739	5	C9H10N2O2+
179.0325	4	C7H5N3O3+
180.0404	4	C7H6N3O3+
182.0197	5	C6H4N3O4+
182.0962	1	C5H16N3O2S+
184.0352	4	C6H6N3O4+
194.0187	1	C7H4N3O4+
196.0353	2	C7H6N3O4+
197.0252	8	C7H7N3O2S+
198.0146	146	C6H4N3O5+
201.0206	1	C6H7N3O3S+
206.0308	9	CH10N4O6S+
212.0124	14	C7H6N3O3S+
213.0204	24	C7H7N3O3S+
214.0164	1	C8H8NO4S+
214.0285	4	C7H8N3O3S+
217.0151	7	C6H7N3O4S+
218.0227	1	C6H8N3O4S+
223.041	1	C9H9N3O2S+
224.0489	4	C9H10N3O2S+
224.0667	5	C9H10N3O4+
225.057	9	C9H11N3O2S+
227.0236	1	C7H7N4O3S+
227.9958	3	C8H6NO5S+
228.0074	41	C7H6N3O4S+
229.9866	2	C6H4N3O5S+
230.012	1	C8H8NO5S+
230.0234	5	C7H8N3O4S+
231.0183	17	C6H7N4O4S+
231.9792	1	C6H4N2O6S+
232.0024	20	C6H6N3O5S+
238.028	1	C9H8N3O3S+
240.044	13	C9H10N3O3S+
240.0616	103	C9H10N3O5+
241.0513	2	C9H11N3O3S+
241.9868	4	C7H4N3O5S+
242.0105	14	C7H6N4O4S+
243.0184	106	C7H7N4O4S+
244.9862	1	C7H5N2O6S+
244.9979	10	C6H5N4O5S+
245.9817	133	C6H4N3O6S+
246.0053	7	C6H6N4O5S+
247.0133	126	C6H7N4O5S+
255.0179	1	C8H7N4O4S+
256.0388	17	C9H10N3O4S+
256.0555	2	C9H10N3O6+
259.0133	96	C7H7N4O5S+
263.0083	91	C6H7N4O6S+
267.1222	1	C12H17N3O4+
269.0341	12	C9H9N4O4S+
270.0421	8	C9H10N4O4S+
271.0496	22	C9H11N4O4S+
271.0874	1	C12H17NO4S+
278.0078	2	C7H8N3O7S+
287.0446	56	C9H11N4O5S+
288.0287	230	C9H10N3O6S+
289.0601	5	C9H13N4O5S+
301.0604	44	C10H13N4O5S+
305.0552	211	C9H13N4O6S+
309.0607	6	C7H13N6O6S+
313.097	9	C12H17N4O4S+
329.0918	2	C12H17N4O5S+
347.1022	999	C12H19N4O6S+
