Mass spectrum: Bupirimate; LC-ESI-QFT; MS2; CE: 35 NCE; R=35000; [M+H]+
Name: Bupirimate
Name: [5-butyl-2-(ethylamino)-6-methylpyrimidin-4-yl] N,N-dimethylsulfamate
Formula: C13H24N4O3S
Exact mass: 316.15691
SMILES: CCCCC1=C(C)N=C(NCC)N=C1OS(=O)(=O)N(C)C
InChI: InChI=1S/C13H24N4O3S/c1-6-8-9-11-10(3)15-13(14-7-2)16-12(11)20-21(18,19)17(4)5/h6-9H2,1-5H3,(H,14,15,16)
Instrument: Q Exactive Plus Orbitrap Thermo Scientific
Instrument type: LC-ESI-QFT
Ms type: MS2
Ion mode: POSITIVE
Ionization: ESI
Fragmentation mode: HCD
Collision energy: 35  (nominal)
Resolution: 35000
Column name: Kinetex C18 EVO 2.6 um, 2.1x50 mm, precolumn 2.1x5 mm, Phenomenex
Retention time: 10.882 min
Base peak: 317.1639
Precursor m/z: 317.1642
Precursor type: [M+H]+
m/z	relative intensity	assigned
67.0543	1	C5H7+
69.0084	3	C2HN2O+
69.0449	1	C3H5N2+
70.0651	2	C4H8N+
71.0604	3	C3H7N2+
81.0699	1	C6H9+
82.0652	1	C5H8N+
84.0808	1	C5H10N+
86.0712	4	C3H8N3+
93.0699	1	C7H9+
95.0603	2	C5H7N2+
95.0855	2	C7H11+
96.0444	11	C5H6NO+
96.0807	2	C6H10N+
97.0396	6	C4H5N2O+
98.06	10	C5H8NO+
108.0114	228	C2H6NO2S+
109.0759	2	C6H9N2+
110.06	1	C6H8NO+
110.0713	1	C5H8N3+
110.0964	6	C7H12N+
112.0506	1	C4H6N3O+
112.1121	2	C7H14N+
120.0807	1	C8H10N+
122.0712	3	C6H8N3+
122.0964	1	C8H12N+
123.0554	1	C6H7N2O+
123.0917	1	C7H11N2+
124.0632	1	C6H8N2O+
124.087	1	C6H10N3+
137.0947	1	C7H11N3+
137.1072	2	C8H13N2+
138.0661	10	C6H8N3O+
138.0913	2	C8H12NO+
138.1024	3	C7H12N3+
139.0739	10	C6H9N3O+
139.123	1	C8H15N2+
140.1069	43	C8H14NO+
142.0975	1	C6H12N3O+
148.0869	7	C8H10N3+
150.1026	68	C8H12N3+
151.074	1	C7H9N3O+
151.123	5	C9H15N2+
152.0819	6	C7H10N3O+
153.0896	2	C7H11N3O+
154.0974	2	C7H12N3O+
164.0817	2	C8H10N3O+
164.1183	1	C9H14N3+
165.0898	15	C8H11N3O+
165.1022	20	C9H13N2O+
166.0975	253	C8H12N3O+
167.1053	26	C8H13N3O+
179.129	1	C9H15N4+
180.1132	6	C9H14N3O+
180.1495	13	C10H18N3+
181.1209	4	C9H15N3O+
182.1289	8	C9H16N3O+
191.1178	1	C11H15N2O+
192.1494	16	C11H18N3+
193.1335	18	C11H17N2O+
194.1288	26	C10H16N3O+
196.1318	1	C9H16N4O+
208.1444	104	C11H18N3O+
209.1522	26	C11H19N3O+
210.16	145	C11H20N3O+
224.1756	8	C12H22N3O+
228.0804	1	C9H14N3O2S+
237.2073	96	C13H25N4+
244.0753	2	C9H14N3O3S+
253.2021	1	C13H25N4O+
254.0957	3	C11H16N3O2S+
262.0857	5	C9H16N3O4S+
272.1063	102	C11H18N3O3S+
290.117	4	C11H20N3O4S+
317.1643	999	C13H25N4O3S+
