Mass spectrum: Dichlorvos; LC-ESI-QFT; MS2; CE: 35 NCE; R=35000; [M+H]+
Name: Dichlorvos
Name: 2,2-dichloroethenyl dimethyl phosphate
Formula: C4H7Cl2O4P
Exact mass: 219.94590
SMILES: COP(=O)(OC)OC=C(Cl)Cl
InChI: InChI=1S/C4H7Cl2O4P/c1-8-11(7,9-2)10-3-4(5)6/h3H,1-2H3
Instrument: Q Exactive Plus Orbitrap Thermo Scientific
Instrument type: LC-ESI-QFT
Ms type: MS2
Ion mode: POSITIVE
Ionization: ESI
Fragmentation mode: HCD
Collision energy: 35  (nominal)
Resolution: 35000
Column name: Kinetex C18 EVO 2.6 um, 2.1x50 mm, precolumn 2.1x5 mm, Phenomenex
Retention time: 8.616 min
Base peak: 220.953
Precursor m/z: 220.9532
Precursor type: [M+H]+
m/z	relative intensity	assigned
76.9788	6	C2H2ClO+
78.9943	68	CH4O2P+
94.9449	2	C2HCl2+
94.9894	1	C2H4ClO2+
96.9604	11	CH3ClOP+
97.0049	2	CH6O3P+
98.9841	1	H4O4P+
108.9607	1	C3H3Cl2+
109.0047	3	C2H6O3P+
112.9997	10	CH6O4P+
127.0154	999	C2H8O4P+
128.0218	3	C4H4N2O3+
130.9659	1	CH5ClO3P+
144.9815	67	C2H7ClO3P+
188.9269	1	C3H4Cl2O3P+
220.9531	439	C4H8Cl2O4P+
