Mass spectrum: Cyclohexylamine; LC-ESI-QFT; MS2; CE: 35 NCE; R=35000; [M+H]+
Name: Cyclohexylamine
Formula: C6H13N
Exact mass: 99.10480
SMILES: NC1CCCCC1
InChI: InChI=1S/C6H13N/c7-6-4-2-1-3-5-6/h6H,1-5,7H2
Instrument: Q Exactive Plus Orbitrap Thermo Scientific
Instrument type: LC-ESI-QFT
Ms type: MS2
Ion mode: POSITIVE
Ionization: ESI
Fragmentation mode: HCD
Collision energy: 35  (nominal)
Resolution: 35000
Column name: Kinetex C18 EVO 2.6 um, 2.1x50 mm, precolumn 2.1x5 mm, Phenomenex
Retention time: 0.501 min
Base peak: 198.1275
Precursor m/z: 100.1121
Precursor type: [M+H]+
m/z	relative intensity	assigned
53.0388	8	C4H5+
55.0544	253	C4H7+
58.029	1	C2H4NO+
83.0855	999	C6H11+
100.1121	329	C6H14N+
