Mass spectrum: Flurtamone; LC-ESI-QFT; MS2; CE: 35 NCE; R=35000; [M-H]-
Name: Flurtamone
Name: 5-(methylamino)-2-phenyl-4-[3-(trifluoromethyl)phenyl]furan-3-one
Formula: C18H14F3NO2
Exact mass: 333.09766
SMILES: CNC1=C(C(=O)C(O1)c1ccccc1)c1cccc(c1)C(F)(F)F
InChI: InChI=1S/C18H14F3NO2/c1-22-17-14(12-8-5-9-13(10-12)18(19,20)21)15(23)16(24-17)11-6-3-2-4-7-11/h2-10,16,22H,1H3
Instrument: Q Exactive Plus Orbitrap Thermo Scientific
Instrument type: LC-ESI-QFT
Ms type: MS2
Ion mode: NEGATIVE
Ionization: ESI
Fragmentation mode: HCD
Collision energy: 35  (nominal)
Resolution: 35000
Column name: Kinetex C18 EVO 2.6 um, 2.1x50 mm, precolumn 2.1x5 mm, Phenomenex
Retention time: 11.226 min
Base peak: 332.0903
Precursor m/z: 332.0904
Precursor type: [M-H]-
m/z	relative intensity	assigned
134.061	16	C8H8NO-
145.027	28	C7H4F3-
159.0423	2	C8H6F3-
161.0217	3	C7H4F3O-
169.027	10	C9H4F3-
171.0426	4	C9H6F3-
183.03	28	C9H4F3N-
185.0219	54	C9H4F3O-
186.0559	3	C11H8NO2-
189.0166	2	C8H4F3O2-
198.0535	26	C10H7F3N-
207.0612	2	C15H8F-
210.0535	1	C11H7F3N-
227.0674	6	C15H9F2-
239.0198	1	C11H4F3NO2-
240.0278	7	C11H5F3NO2-
247.074	83	C15H10F3-
254.0442	2	C12H7F3NO2-
255.0508	1	C12H8F3NO2-
255.0626	2	C16H9F2O-
259.0737	1	C16H10F3-
274.0608	4	C16H9F3O-
275.069	12	C16H10F3O-
277.0851	3	C16H12F3O-
286.0845	4	C17H11F3N-
288.0642	1	C16H9F3NO-
291.0643	4	C16H10F3O2-
304.0954	16	C17H13F3NO-
314.0791	3	C18H11F3NO-
316.0592	10	C17H9F3NO2-
317.0668	7	C17H10F3NO2-
332.0904	999	C18H13F3NO2-
