Mass spectrum: Mefenamic acid; LC-ESI-QFT; MS2; CE: 35 NCE; R=35000; [M-H]-
Name: Mefenamic acid
Name: 2-(2,3-dimethylanilino)benzoic acid
Formula: C15H15NO2
Exact mass: 241.11028
SMILES: Cc1cccc(Nc2ccccc2C(O)=O)c1C
InChI: InChI=1S/C15H15NO2/c1-10-6-5-9-13(11(10)2)16-14-8-4-3-7-12(14)15(17)18/h3-9,16H,1-2H3,(H,17,18)
Instrument: Q Exactive Plus Orbitrap Thermo Scientific
Instrument type: LC-ESI-QFT
Ms type: MS2
Ion mode: NEGATIVE
Ionization: ESI
Fragmentation mode: HCD
Collision energy: 35  (nominal)
Resolution: 35000
Column name: Kinetex C18 EVO 2.6 um, 2.1x50 mm, precolumn 2.1x5 mm, Phenomenex
Retention time: 12.922 min
Base peak: 240.1029
Precursor m/z: 240.103
Precursor type: [M-H]-
m/z	relative intensity	assigned
179.0865	12	C14H11-
180.0818	29	C13H10N-
192.0818	30	C14H10N-
194.0974	21	C14H12N-
196.1131	999	C14H14N-
240.1029	541	C15H14NO2-
