Mass spectrum: Raloxifene; LC-ESI-QFT; MS2; CE: 35 NCE; R=35000; [M-H]-
Name: Raloxifene
Name: [6-hydroxy-2-(4-hydroxyphenyl)-1-benzothiophen-3-yl]-[4-(2-piperidin-1-ylethoxy)phenyl]methanone
Formula: C28H27NO4S
Exact mass: 473.16608
SMILES: Oc1ccc(cc1)-c1sc2cc(O)ccc2c1C(=O)c1ccc(OCCN2CCCCC2)cc1
InChI: InChI=1S/C28H27NO4S/c30-21-8-4-20(5-9-21)28-26(24-13-10-22(31)18-25(24)34-28)27(32)19-6-11-23(12-7-19)33-17-16-29-14-2-1-3-15-29/h4-13,18,30-31H,1-3,14-17H2
Instrument: Q Exactive Plus Orbitrap Thermo Scientific
Instrument type: LC-ESI-QFT
Ms type: MS2
Ion mode: NEGATIVE
Ionization: ESI
Fragmentation mode: HCD
Collision energy: 35  (nominal)
Resolution: 35000
Column name: Kinetex C18 EVO 2.6 um, 2.1x50 mm, precolumn 2.1x5 mm, Phenomenex
Retention time: 8.649 min
Base peak: 472.1585
Precursor m/z: 472.1588
Precursor type: [M-H]-
m/z	relative intensity	assigned
93.0331	12	C4H3N3-
181.0656	1	C13H9O-
211.0221	15	C13H7OS-
212.03	20	C13H8OS-
229.0326	1	C13H9O2S-
238.0094	1	C14H6O2S-
239.0172	145	C14H7O2S-
240.025	102	C14H8O2S-
241.0329	72	C14H9O2S-
253.0329	2	C15H9O2S-
266.0043	5	C15H6O3S-
266.0413	1	C16H10O2S-
267.0123	42	C15H7O3S-
303.0485	3	C19H11O2S-
305.0269	1	C24H3N-
315.0487	1	C20H11O2S-
316.0559	4	C20H12O2S-
331.0427	11	C26H5N-
332.0511	20	C20H12O3S-
343.0432	14	C21H11O3S-
350.1218	3	C21H20NO2S-
359.0387	14	C21H11O4S-
360.0462	354	C21H12O4S-
361.054	210	C21H13O4S-
374.0615	1	C22H14O4S-
378.1174	1	C22H20NO3S-
387.0697	3	C23H15O4S-
472.1588	999	C28H26NO4S-
