Mass spectrum: Ziprasidone; LC-ESI-QFT; MS2; CE: 35 NCE; R=35000; [M+H]+
Name: Ziprasidone
Name: 5-[2-[4-(1,2-benzothiazol-3-yl)piperazin-1-yl]ethyl]-6-chloro-1,3-dihydroindol-2-one
Formula: C21H21ClN4OS
Exact mass: 412.11246
SMILES: ClC1=CC2=C(CC(=O)N2)C=C1CCN1CCN(CC1)C1=NSC2=C1C=CC=C2
InChI: InChI=1S/C21H21ClN4OS/c22-17-13-18-15(12-20(27)23-18)11-14(17)5-6-25-7-9-26(10-8-25)21-16-3-1-2-4-19(16)28-24-21/h1-4,11,13H,5-10,12H2,(H,23,27)
Instrument: Q Exactive Plus Orbitrap Thermo Scientific
Instrument type: LC-ESI-QFT
Ms type: MS2
Ion mode: POSITIVE
Ionization: ESI
Fragmentation mode: HCD
Collision energy: 35  (nominal)
Resolution: 35000
Column name: Kinetex C18 EVO 2.6 um, 2.1x50 mm, precolumn 2.1x5 mm, Phenomenex
Retention time: 8.194 min
Base peak: 413.1193
Precursor m/z: 413.1197
Precursor type: [M+H]+
m/z	relative intensity	assigned
103.0541	3	C8H7+
109.0105	1	C6H5S+
130.0651	19	C9H8N+
131.073	24	C9H9N+
136.0215	8	C7H6NS+
139.0309	4	C8H8Cl+
150.0374	4	C8H8NS+
151.0313	4	C9H8Cl+
158.0601	20	C10H8NO+
159.0679	189	C10H9NO+
166.0418	152	C9H9ClN+
177.0481	159	C9H9N2S+
194.0368	999	C10H9ClNO+
201.1021	1	C12H13N2O+
203.0639	6	C11H11N2S+
205.0795	10	C11H13N2S+
217.0671	2	C11H11N3S+
220.0904	31	C11H14N3S+
232.0903	6	C12H14N3S+
237.0789	11	C12H14ClN2O+
411.104	4	C21H20ClN4OS+
413.1199	846	C21H22ClN4OS+
