Mass spectrum: 7-Hydroxymethotrexat; LC-ESI-QFT; MS2; CE: 35 NCE; R=35000; [M+H]+
Name: 7-Hydroxymethotrexat
Name: 7-Hydroxy Methotrexate
Name: 2-[[4-[(2,4-diamino-7-oxo-8H-pteridin-6-yl)methyl-methylamino]benzoyl]amino]pentanedioic acid
Formula: C20H22N8O6
Exact mass: 470.16623
SMILES: CN(CC1=Nc2c(N)nc(N)nc2NC1=O)c1ccc(cc1)C(=O)NC(CCC(O)=O)C(O)=O
InChI: InChI=1S/C20H22N8O6/c1-28(8-12-18(32)26-16-14(23-12)15(21)25-20(22)27-16)10-4-2-9(3-5-10)17(31)24-11(19(33)34)6-7-13(29)30/h2-5,11H,6-8H2,1H3,(H,24,31)(H,29,30)(H,33,34)(H5,21,22,25,26,27,32)
Instrument: Q Exactive Plus Orbitrap Thermo Scientific
Instrument type: LC-ESI-QFT
Ms type: MS2
Ion mode: POSITIVE
Ionization: ESI
Fragmentation mode: HCD
Collision energy: 35  (nominal)
Resolution: 35000
Column name: Kinetex C18 EVO 2.6 um, 2.1x50 mm, precolumn 2.1x5 mm, Phenomenex
Retention time: 7.378 min
Base peak: 261.0319
Precursor m/z: 471.1735
Precursor type: [M+H]+
m/z	relative intensity	assigned
106.04	12	C5H4N3+
118.0651	2	C8H8N+
121.0508	12	C5H5N4+
122.0462	1	C4H4N5+
134.06	57	C8H8NO+
146.06	1	C9H8NO+
148.0617	176	C6H6N5+
149.0459	4	C6H5N4O+
158.06	1	C10H8NO+
163.0726	16	C6H7N6+
165.052	1	C5H5N6O+
174.041	1	C7H4N5O+
186.0553	1	C11H8NO2+
191.0676	999	C7H7N6O+
210.0778	1	C11H8N5+
254.1036	1	C13H12N5O+
265.0832	5	C13H9N6O+
268.1303	1	C13H14N7+
279.099	1	C14H11N6O+
280.0941	20	C13H10N7O+
281.1021	6	C14H17O6+
282.0984	1	C14H12N5O2+
293.0776	1	C14H9N6O2+
296.1257	5	C15H20O6+
298.1413	15	C15H22O6+
324.1205	531	C15H14N7O2+
471.1746	1	C20H23N8O6+
