Mass spectrum: N-Acetyl Mesalazine; LC-ESI-QFT; MS2; CE: 35 NCE; R=35000; [M+H]+
Name: N-Acetyl Mesalazine
Name: 5-Acetamidosalicylic acid
Name: 5-acetamido-2-hydroxybenzoic acid
Formula: C9H9NO4
Exact mass: 195.05316
SMILES: CC(=O)NC1=CC=C(O)C(=C1)C(O)=O
InChI: InChI=1S/C9H9NO4/c1-5(11)10-6-2-3-8(12)7(4-6)9(13)14/h2-4,12H,1H3,(H,10,11)(H,13,14)
Instrument: Q Exactive Plus Orbitrap Thermo Scientific
Instrument type: LC-ESI-QFT
Ms type: MS2
Ion mode: POSITIVE
Ionization: ESI
Fragmentation mode: HCD
Collision energy: 35  (nominal)
Resolution: 35000
Column name: Kinetex C18 EVO 2.6 um, 2.1x50 mm, precolumn 2.1x5 mm, Phenomenex
Retention time: 3.965 min
Base peak: 217.0969
Precursor m/z: 196.0604
Precursor type: [M+H]+
m/z	relative intensity	assigned
65.0386	2	C5H5+
73.0284	5	C3H5O2+
80.0494	19	C5H6N+
81.0335	4	C5H5O+
92.0495	4	C6H6N+
93.0335	1	C6H5O+
108.0443	177	C6H6NO+
109.0283	3	C6H5O2+
110.06	39	C6H8NO+
122.0599	4	C7H8NO+
134.0599	4	C8H8NO+
136.0392	680	C7H6NO2+
137.0232	2	C7H5O3+
150.055	11	C8H8NO2+
152.0705	57	C8H10NO2+
154.0498	29	C7H8NO3+
178.0498	999	C9H8NO3+
196.0604	585	C9H10NO4+
