Mass spectrum: Michler`s ketone; LC-ESI-QFT; MS2; CE: 35 NCE; R=35000; [M+H]+
Name: Michler`s ketone
Name: bis[4-(dimethylamino)phenyl]methanone
Formula: C17H20N2O
Exact mass: 268.15756
SMILES: CN(C)C1=CC=C(C=C1)C(=O)C2=CC=C(C=C2)N(C)C
InChI: InChI=1S/C17H20N2O/c1-18(2)15-9-5-13(6-10-15)17(20)14-7-11-16(12-8-14)19(3)4/h5-12H,1-4H3
Instrument: Q Exactive Plus Orbitrap Thermo Scientific
Instrument type: LC-ESI-QFT
Ms type: MS2
Ion mode: POSITIVE
Ionization: ESI
Fragmentation mode: HCD
Collision energy: 35  (nominal)
Resolution: 35000
Column name: Kinetex C18 EVO 2.6 um, 2.1x50 mm, precolumn 2.1x5 mm, Phenomenex
Retention time: 12.000 min
Base peak: 269.1644
Precursor m/z: 269.1648
Precursor type: [M+H]+
m/z	relative intensity	assigned
79.0542	11	C6H7+
81.0334	1	C5H5O+
91.0542	4	C7H7+
92.0621	1	C7H8+
93.0698	5	C7H9+
95.0491	1	C6H7O+
96.0807	1	C6H10N+
103.0542	2	C8H7+
105.0572	7	C7H7N+
118.0651	2	C8H8N+
119.0727	1	C8H9N+
120.0807	33	C8H10N+
124.0758	2	C7H10NO+
148.0755	999	C9H10NO+
254.142	1	C16H18N2O+
269.1647	831	C17H21N2O+
