Mass spectrum: Bendiocarb; LC-ESI-QFT; MS2; CE: 35 NCE; R=35000; [M+H]+
Name: Bendiocarb
Name: (2,2-dimethyl-1,3-benzodioxol-4-yl) N-methylcarbamate
Formula: C11H13NO4
Exact mass: 223.08446
SMILES: CNC(=O)Oc1cccc2OC(C)(C)Oc12
InChI: InChI=1S/C11H13NO4/c1-11(2)15-8-6-4-5-7(9(8)16-11)14-10(13)12-3/h4-6H,1-3H3,(H,12,13)
Instrument: Q Exactive Plus Orbitrap Thermo Scientific
Instrument type: LC-ESI-QFT
Ms type: MS2
Ion mode: POSITIVE
Ionization: ESI
Fragmentation mode: HCD
Collision energy: 35  (nominal)
Resolution: 35000
Column name: Kinetex C18 EVO 2.6 um, 2.1x50 mm, precolumn 2.1x5 mm, Phenomenex
Retention time: 9.032 min
Base peak: 253.1656
Precursor m/z: 224.0917
Precursor type: [M+H]+
m/z	relative intensity	assigned
53.0388	1	C4H5+
59.0493	139	C3H7O+
81.0335	124	C5H5O+
109.0284	999	C6H5O2+
110.0346	1	C4H4N3O+
121.0647	2	C8H9O+
127.039	25	C6H7O3+
141.0543	2	C7H9O3+
149.0598	2	C9H9O2+
167.0703	583	C9H11O3+
224.0917	3	C11H14NO4+
