Mass spectrum: Irgarol; LC-ESI-QFT; MS2; CE: 35 NCE; R=35000; [M+H]+
Name: Irgarol
Name: Cybutryne
Name: 2-N-tert-butyl-4-N-cyclopropyl-6-methylsulfanyl-1,3,5-triazine-2,4-diamine
Formula: C11H19N5S
Exact mass: 253.13612
SMILES: CSC1=NC(NC2CC2)=NC(NC(C)(C)C)=N1
InChI: InChI=1S/C11H19N5S/c1-11(2,3)16-9-13-8(12-7-5-6-7)14-10(15-9)17-4/h7H,5-6H2,1-4H3,(H2,12,13,14,15,16)
Instrument: Q Exactive Plus Orbitrap Thermo Scientific
Instrument type: LC-ESI-QFT
Ms type: MS2
Ion mode: POSITIVE
Ionization: ESI
Fragmentation mode: HCD
Collision energy: 35  (nominal)
Resolution: 35000
Column name: Kinetex C18 EVO 2.6 um, 2.1x50 mm, precolumn 2.1x5 mm, Phenomenex
Retention time: 10.466 min
Base peak: 254.1431
Precursor m/z: 254.1434
Precursor type: [M+H]+
m/z	relative intensity	assigned
56.0497	15	C3H6N+
57.0701	5	C4H9+
58.0653	5	C3H8N+
68.0244	5	C2H2N3+
70.0401	1	C2H4N3+
74.0059	14	C2H4NS+
81.0449	3	C4H5N2+
83.0604	87	C4H7N2+
87.0263	7	C4H7S+
89.042	2	C4H9S+
91.0325	119	C2H7N2S+
108.0557	50	C5H6N3+
114.0121	3	C3H4N3S+
114.0373	9	C5H8NS+
116.0277	24	C3H6N3S+
125.0822	36	C5H9N4+
127.0075	1	C3H3N4S+
131.0637	1	C5H11N2S+
150.0775	14	C6H8N5+
152.0932	2	C6H10N5+
156.0339	13	C4H6N5S+
156.059	28	C6H10N3S+
158.0495	3	C4H8N5S+
170.0495	8	C5H8N5S+
171.07	4	C6H11N4S+
198.0809	999	C7H12N5S+
239.1204	1	C10H17N5S+
254.1435	805	C11H20N5S+
