Mass spectrum: Diflubenzuron; LC-ESI-QFT; MS2; CE: 35 NCE; R=35000; [M-H]-
Name: Diflubenzuron
Name: N-[(4-chlorophenyl)carbamoyl]-2,6-difluorobenzamide
Formula: C14H9ClF2N2O2
Exact mass: 310.03206
SMILES: FC1=CC=CC(F)=C1C(=O)NC(=O)NC1=CC=C(Cl)C=C1
InChI: InChI=1S/C14H9ClF2N2O2/c15-8-4-6-9(7-5-8)18-14(21)19-13(20)12-10(16)2-1-3-11(12)17/h1-7H,(H2,18,19,20,21)
Instrument: Q Exactive Plus Orbitrap Thermo Scientific
Instrument type: LC-ESI-QFT
Ms type: MS2
Ion mode: NEGATIVE
Ionization: ESI
Fragmentation mode: HCD
Collision energy: 35  (nominal)
Resolution: 35000
Column name: Kinetex C18 EVO 2.6 um, 2.1x50 mm, precolumn 2.1x5 mm, Phenomenex
Retention time: 12.064 min
Base peak: 309.0247
Precursor m/z: 309.0248
Precursor type: [M-H]-
m/z	relative intensity	assigned
126.0112	191	C9H2O-
151.0068	374	C7H4ClN2-
156.0266	767	C7H4F2NO-
246.0128	8	C13H6ClFNO-
289.0186	999	C14H7ClFN2O2-
309.0249	441	C14H8ClF2N2O2-
