Mass spectrum: Propoxycarbazone; LC-ESI-QFT; MS2; CE: 35 NCE; R=35000; [M+H]+
Name: Propoxycarbazone
Name: methyl 2-[(4-methyl-5-oxo-3-propoxy-1,2,4-triazole-1-carbonyl)sulfamoyl]benzoate
Formula: C15H18N4O7S
Exact mass: 398.08962
SMILES: CCCOC1=NN(C(=O)NS(=O)(=O)C2=CC=CC=C2C(=O)OC)C(=O)N1C
InChI: InChI=1S/C15H18N4O7S/c1-4-9-26-14-16-19(15(22)18(14)2)13(21)17-27(23,24)11-8-6-5-7-10(11)12(20)25-3/h5-8H,4,9H2,1-3H3,(H,17,21)
Instrument: Q Exactive Plus Orbitrap Thermo Scientific
Instrument type: LC-ESI-QFT
Ms type: MS2
Ion mode: POSITIVE
Ionization: ESI
Fragmentation mode: HCD
Collision energy: 35  (nominal)
Resolution: 35000
Column name: Kinetex C18 EVO 2.6 um, 2.1x50 mm, precolumn 2.1x5 mm, Phenomenex
Retention time: 10.220 min
Base peak: 278.1052
Precursor m/z: 399.0969
Precursor type: [M+H]+
m/z	relative intensity	assigned
53.0388	15	C4H5+
58.0289	36	C2H4NO+
59.0241	3	CH3N2O+
71.0605	4	C3H7N2+
77.0386	28	C6H5+
78.9848	8	CH3O2S+
79.0542	41	C6H7+
81.0335	6	C5H5O+
84.0445	1	C4H6NO+
90.0338	56	C6H4N+
92.0256	14	C6H4O+
94.0414	4	C6H6O+
95.0491	67	C6H7O+
97.0105	1	C5H5S+
99.0553	17	C4H7N2O+
100.0755	1	C5H10NO+
104.0257	1	C7H4O+
105.0335	11	C7H5O+
105.0448	23	C6H5N2+
107.0492	9	C7H7O+
114.0298	49	C3H4N3O2+
116.0455	974	C3H6N3O2+
118.0288	2	C7H4NO+
120.0206	19	C7H4O2+
120.0443	4	C7H6NO+
121.0284	1	C7H5O2+
128.0455	6	C4H6N3O2+
130.04	9	C7H4N3+
130.0611	5	C4H8N3O2+
133.0395	1	C7H5N2O+
135.044	456	C8H7O2+
138.0311	13	C7H6O3+
141.0002	1	C6H5O2S+
146.0236	67	C8H4NO2+
151.9926	1	C7H4O2S+
156.0768	21	C6H10N3O2+
158.0924	654	C6H12N3O2+
168.9954	56	C7H5O3S+
172.1082	7	C7H14N3O2+
173.0666	1	C5H9N4O3+
174.0515	1	C5H8N3O4+
178.0496	1	C9H8NO3+
184.0063	1	C7H6NO3S+
199.006	999	C8H7O4S+
209.9856	265	C8H4NO4S+
215.1139	13	C8H15N4O3+
217.0162	1	C8H9O5S+
224.9967	8	C8H5N2O4S+
227.9962	4	C8H6NO5S+
231.0324	13	C9H11O5S+
242.0115	3	C9H8NO5S+
268.0023	1	C9H6N3O5S+
282.018	23	C10H8N3O5S+
324.0647	3	C13H14N3O5S+
325.0238	79	C11H9N4O6S+
367.0709	277	C14H15N4O6S+
399.097	5	C15H19N4O7S+
