Mass spectrum: Flusilazole; LC-ESI-QFT; MS2; CE: 35 NCE; R=35000; [M+H]+
Name: Flusilazole
Name: bis(4-fluorophenyl)-methyl-(1,2,4-triazol-1-ylmethyl)silane
Formula: C16H15F2N3Si
Exact mass: 315.10033
SMILES: C[Si](Cn1cncn1)(c1ccc(F)cc1)c1ccc(F)cc1
InChI: InChI=1S/C16H15F2N3Si/c1-22(12-21-11-19-10-20-21,15-6-2-13(17)3-7-15)16-8-4-14(18)5-9-16/h2-11H,12H2,1H3
Instrument: Q Exactive Plus Orbitrap Thermo Scientific
Instrument type: LC-ESI-QFT
Ms type: MS2
Ion mode: POSITIVE
Ionization: ESI
Fragmentation mode: HCD
Collision energy: 35  (nominal)
Resolution: 35000
Column name: Kinetex C18 EVO 2.6 um, 2.1x50 mm, precolumn 2.1x5 mm, Phenomenex
Retention time: 12.149 min
Base peak: 316.1072
Precursor m/z: 316.1076
Precursor type: [M+H]+
m/z	relative intensity	assigned
53.0388	9	C4H5+
61.0106	4	CH5OSi+
77.0386	32	C6H5+
79.001	5	CH4FOSi+
79.0543	12	C6H7+
81.0335	1	C5H5O+
91.0542	27	C7H7+
94.0413	4	C6H6O+
95.0491	40	C6H7O+
103.0542	7	C8H7+
105.0447	14	C6H5N2+
105.0699	27	C8H9+
109.0315	5	CH3F2N4+
109.0447	9	C7H6F+
115.0542	6	C9H7+
128.0622	3	C10H8+
129.0697	1	C5H8FN3+
139.0541	1	C11H7+
141.0167	2	C6H6FOSi+
141.0698	12	C11H9+
151.0373	4	C8H8FSi+
152.0621	20	C12H8+
153.0698	26	C12H9+
155.0855	2	C12H11+
159.0605	1	C11H8F+
164.0619	6	C8H7FN3+
165.0699	390	C13H9+
166.0777	47	C13H10+
167.0324	4	C8H8FOSi+
168.0571	1	C12H8O+
169.028	2	C8H7F2Si+
169.0479	21	C8H10FOSi+
171.0436	24	C8H9F2Si+
171.0804	1	C12H11O+
175.0221	6	C10H3F2N+
178.0776	9	C14H10+
179.0855	9	C14H11+
181.0757	2	C12H9N2+
181.1011	1	C14H13+
183.0605	16	C13H8F+
183.0799	1	C11H9N3+
184.0684	1	C13H9F+
185.0761	52	C13H10F+
188.0648	2	C6H11FN3OSi+
189.0376	2	C11H5F2N+
193.0759	1	C13H9N2+
199.0384	2	C9H9F2OSi+
205.0691	1	C12H9F2N+
217.048	9	C12H10FOSi+
219.0435	3	C12H9F2Si+
220.0698	3	C10H11FN3Si+
227.0685	8	C9H11F2N3Si+
231.044	2	C13H9F2Si+
232.051	3	C13H10F2Si+
233.0596	1	C13H11F2Si+
235.0391	2	C12H9F2OSi+
235.0583	3	C15H11OSi+
237.0543	10	C12H11F2OSi+
245.059	1	C14H11F2Si+
245.0794	7	C14H14FOSi+
247.0751	9	C14H13F2Si+
249.054	1	C16H10FSi+
253.049	1	C15H10FOSi+
265.0852	5	C12H13F2N3Si+
316.1077	999	C16H16F2N3Si+
