Mass spectrum: Acetyl-sulfamethoxazole; LC-ESI-QFT; MS2; CE: 35 NCE; R=35000; [M+H]+
Name: Acetyl-sulfamethoxazole
Name: N-[4-[(5-methyl-1,2-oxazol-3-yl)sulfamoyl]phenyl]acetamide
Formula: C12H13N3O4S
Exact mass: 295.06268
SMILES: Cc1cc(no1)NS(=O)(=O)c2ccc(cc2)/N=C(\C)/O
InChI: InChI=1S/C12H13N3O4S/c1-8-7-12(14-19-8)15-20(17,18)11-5-3-10(4-6-11)13-9(2)16/h3-7H,1-2H3,(H,13,16)(H,14,15)
Instrument: Q Exactive Plus Orbitrap Thermo Scientific
Instrument type: LC-ESI-QFT
Ms type: MS2
Ion mode: POSITIVE
Ionization: ESI
Fragmentation mode: HCD
Collision energy: 35  (nominal)
Resolution: 35000
Column name: Kinetex C18 EVO 2.6 um, 2.1x50 mm, precolumn 2.1x5 mm, Phenomenex
Retention time: 7.661 min
Base peak: 296.0696
Precursor m/z: 296.07
Precursor type: [M+H]+
m/z	relative intensity	assigned
65.0386	145	C5H5+
68.0495	1	C4H6N+
72.0444	1	C3H6NO+
79.0542	1	C6H7+
80.0494	5	C5H6N+
92.0494	36	C6H6N+
93.0334	98	C6H5O+
93.0572	64	C6H7N+
94.0651	34	C6H8N+
97.0395	1	C4H5N2O+
98.0474	2	C4H6N2O+
99.0552	52	C4H7N2O+
106.065	5	C7H8N+
107.0603	11	C6H7N2+
108.0443	214	C6H6NO+
110.06	9	C6H8NO+
111.044	1	C6H7O2+
118.0652	2	C8H8N+
119.06	1	C7H7N2+
121.076	1	C7H9N2+
124.0391	1	C6H6NO2+
131.0603	4	C8H7N2+
132.0681	6	C8H8N2+
133.0759	1	C8H9N2+
134.06	391	C8H8NO+
135.0677	14	C8H9NO+
136.0756	141	C8H10NO+
140.0163	2	C6H6NOS+
143.0604	1	C9H7N2+
145.0758	1	C9H9N2+
146.0712	68	C8H8N3+
147.0551	3	C8H7N2O+
147.079	42	C8H9N3+
148.063	2	C8H8N2O+
148.0868	10	C8H10N3+
149.0709	4	C8H9N2O+
150.0549	29	C8H8NO2+
150.0787	1	C8H10N2O+
151.0324	3	C7H7N2S+
152.0706	19	C8H10NO2+
156.0112	35	C6H6NO2S+
156.9953	2	C6H5O3S+
160.0868	91	C9H10N3+
161.0014	11	C4H5N2O3S+
161.071	3	C9H9N2O+
162.0661	54	C8H8N3O+
172.0296	1	C6H8N2O2S+
172.0868	4	C10H10N3+
173.0582	1	C9H7N3O+
174.022	9	C6H8NO3S+
176.0276	17	C8H6N3S+
177.0113	2	C8H5N2OS+
188.0817	116	C10H10N3O+
189.0896	22	C10H11N3O+
190.0974	40	C10H12N3O+
191.0816	1	C10H11N2O2+
193.0429	1	C9H9N2OS+
194.0382	66	C8H8N3OS+
195.022	3	C8H7N2O2S+
198.0218	248	C8H8NO3S+
201.0658	8	C11H9N2O2+
202.0971	6	C11H12N3O+
214.0973	6	C12H12N3O+
216.0323	4	C8H10NO4S+
216.0894	2	C12H12N2O2+
218.0383	6	C10H8N3OS+
230.0922	12	C12H12N3O2+
232.108	8	C12H14N3O2+
236.0487	34	C10H10N3O2S+
254.0594	5	C10H12N3O3S+
278.06	3	C12H12N3O3S+
296.0699	999	C12H14N3O4S+
