Mass spectrum: p-Toluenesulfonamide; LC-ESI-QFT; MS2; CE: 35 NCE; R=35000; [M+H]+
Name: p-Toluenesulfonamide
Name: 4-methylbenzenesulfonimidic acid
Formula: C7H9NO2S
Exact mass: 171.03540
SMILES: CC1=CC=C(C=C1)S(N)(=O)=O
InChI: InChI=1S/C7H9NO2S/c1-6-2-4-7(5-3-6)11(8,9)10/h2-5H,1H3,(H2,8,9,10)
Instrument: Q Exactive Plus Orbitrap Thermo Scientific
Instrument type: LC-ESI-QFT
Ms type: MS2
Ion mode: POSITIVE
Ionization: ESI
Fragmentation mode: HCD
Collision energy: 35  (nominal)
Resolution: 35000
Column name: Kinetex C18 EVO 2.6 um, 2.1x50 mm, precolumn 2.1x5 mm, Phenomenex
Retention time: 4.079 min
Base peak: 201.069
Precursor m/z: 172.0427
Precursor type: [M+H]+
m/z	relative intensity	assigned
55.0181	15	C3H3O+
55.0544	4	C4H7+
65.0387	104	C5H5+
67.0543	55	C5H7+
72.0444	6	C3H6NO+
79.0542	4	C6H7+
81.0698	4	C6H9+
89.0708	8	C3H9N2O+
91.0542	999	C7H7+
93.0698	4	C7H9+
95.0492	27	C6H7O+
109.0648	763	C7H9O+
111.0441	4	C6H7O2+
119.0604	897	C7H7N2+
130.9819	4	C7HNS+
155.0161	642	C7H7O2S+
158.9883	5	C7HN3S+
