Mass spectrum: Fenpropimorph; LC-ESI-QFT; MS2; CE: 35 NCE; R=35000; [M+H]+
Name: Fenpropimorph
Name: (2R,6S)-4-[3-(4-tert-butylphenyl)-2-methylpropyl]-2,6-dimethylmorpholine
Formula: C20H33NO
Exact mass: 303.25621
SMILES: CC(CN1C[C@H](C)O[C@H](C)C1)Cc1ccc(cc1)C(C)(C)C
InChI: InChI=1S/C20H33NO/c1-15(12-21-13-16(2)22-17(3)14-21)11-18-7-9-19(10-8-18)20(4,5)6/h7-10,15-17H,11-14H2,1-6H3/t15?,16-,17+
Instrument: Q Exactive Plus Orbitrap Thermo Scientific
Instrument type: LC-ESI-QFT
Ms type: MS2
Ion mode: POSITIVE
Ionization: ESI
Fragmentation mode: HCD
Collision energy: 35  (nominal)
Resolution: 35000
Column name: Kinetex C18 EVO 2.6 um, 2.1x50 mm, precolumn 2.1x5 mm, Phenomenex
Retention time: 9.520 min
Base peak: 298.2738
Precursor m/z: 304.2635
Precursor type: [M+H]+
m/z	relative intensity	assigned
56.0497	1	C3H6N+
57.0701	29	C4H9+
58.0653	1	C3H8N+
59.0493	2	C3H7O+
70.0652	3	C4H8N+
72.0809	4	C4H10N+
81.0698	1	C6H9+
86.0964	1	C5H12N+
88.0758	2	C4H10NO+
91.0542	5	C7H7+
98.0965	45	C6H12N+
100.1121	1	C6H14N+
102.0913	4	C5H12NO+
105.0699	12	C8H9+
107.0855	1	C8H11+
112.1122	2	C7H14N+
116.107	43	C6H14NO+
119.0855	15	C9H11+
130.1227	62	C7H16NO+
132.0934	7	C10H12+
147.1168	146	C11H15+
161.1326	4	C12H17+
189.1638	5	C14H21+
248.2008	1	C16H26NO+
304.2637	999	C20H34NO+
