Mass spectrum: 2-(4-Morpholinyl)benzothiazole; LC-ESI-QFT; MS2; CE: 35 NCE; R=35000; [M+H]+
Name: 2-(4-Morpholinyl)benzothiazole
Name: 4-(1,3-benzothiazol-2-yl)morpholine
Formula: C11H12N2OS
Exact mass: 220.06703
SMILES: C1CN(CCO1)C1=NC2=CC=CC=C2S1
InChI: InChI=1S/C11H12N2OS/c1-2-4-10-9(3-1)12-11(15-10)13-5-7-14-8-6-13/h1-4H,5-8H2
Instrument: Q Exactive Plus Orbitrap Thermo Scientific
Instrument type: LC-ESI-QFT
Ms type: MS2
Ion mode: POSITIVE
Ionization: ESI
Fragmentation mode: HCD
Collision energy: 35  (nominal)
Resolution: 35000
Column name: Kinetex C18 EVO 2.6 um, 2.1x50 mm, precolumn 2.1x5 mm, Phenomenex
Retention time: 9.370 min
Base peak: 221.074
Precursor m/z: 221.0743
Precursor type: [M+H]+
m/z	relative intensity	assigned
109.0106	7	C6H5S+
117.0574	3	C8H7N+
124.0216	2	C6H6NS+
136.0215	32	C7H6NS+
144.0684	1	C9H8N2+
150.0373	43	C8H8NS+
175.0327	2	C9H7N2S+
176.0403	1	C9H8N2S+
177.0481	130	C9H9N2S+
190.056	1	C10H10N2S+
203.0638	2	C11H11N2S+
219.0587	1	C11H11N2OS+
221.0744	999	C11H13N2OS+
