Mass spectrum: Anthrone; LC-ESI-QFT; MS2; CE: 35 NCE; R=35000; [M+H]+
Name: Anthrone
Name: 10H-anthracen-9-one
Formula: C14H10O
Exact mass: 194.07316
SMILES: O=C1C2=CC=CC=C2CC2=CC=CC=C12
InChI: InChI=1S/C14H10O/c15-14-12-7-3-1-5-10(12)9-11-6-2-4-8-13(11)14/h1-8H,9H2
Instrument: Q Exactive Plus Orbitrap Thermo Scientific
Instrument type: LC-ESI-QFT
Ms type: MS2
Ion mode: POSITIVE
Ionization: ESI
Fragmentation mode: HCD
Collision energy: 35  (nominal)
Resolution: 35000
Column name: Kinetex C18 EVO 2.6 um, 2.1x50 mm, precolumn 2.1x5 mm, Phenomenex
Retention time: 11.341 min
Base peak: 65.0597
Precursor m/z: 195.0804
Precursor type: [M+H]+
m/z	relative intensity	assigned
55.0544	5	C4H7+
57.07	16	C4H9+
69.0699	41	C5H9+
71.0856	13	C5H11+
83.0855	8	C6H11+
89.0598	1	C4H9O2+
133.0283	2	C8H5O2+
135.0441	2	C8H7O2+
152.0619	7	C12H8+
165.0696	9	C13H9+
166.0776	3	C13H10+
167.0855	18	C13H11+
176.0619	3	C14H8+
177.0699	89	C14H9+
178.0777	22	C14H10+
181.0646	26	C13H9O+
194.0727	40	C14H10O+
195.0805	999	C14H11O+
205.0761	4	C14H9N2+
