Mass spectrum: DEET; LC-ESI-QFT; MS2; CE: 35 NCE; R=35000; [M+H]+
Name: DEET
Name: N,N-diethyl-3-methylbenzamide
Formula: C12H17NO
Exact mass: 191.13101
SMILES: CCN(CC)C(=O)C1=CC(C)=CC=C1
InChI: InChI=1S/C12H17NO/c1-4-13(5-2)12(14)11-8-6-7-10(3)9-11/h6-9H,4-5H2,1-3H3
Instrument: Q Exactive Plus Orbitrap Thermo Scientific
Instrument type: LC-ESI-QFT
Ms type: MS2
Ion mode: POSITIVE
Ionization: ESI
Fragmentation mode: HCD
Collision energy: 35  (nominal)
Resolution: 35000
Column name: Kinetex C18 EVO 2.6 um, 2.1x50 mm, precolumn 2.1x5 mm, Phenomenex
Retention time: 10.164 min
Base peak: 192.138
Precursor m/z: 192.1383
Precursor type: [M+H]+
m/z	relative intensity	assigned
65.0387	4	C5H5+
67.0543	1	C5H7+
72.0444	43	C3H6NO+
72.0808	4	C4H10N+
91.0542	41	C7H7+
95.0492	1	C6H7O+
100.0757	53	C5H10NO+
108.0569	1	C7H8O+
109.0648	40	C7H9O+
118.0651	1	C8H8N+
119.0491	999	C8H7O+
123.0806	1	C8H11O+
192.1383	803	C12H18NO+
