Mass spectrum: 2,4-Dinitrophenol; LC-ESI-QFT; MS2; CE: 35 NCE; R=35000; [M-H]-
Name: 2,4-Dinitrophenol
Formula: C6H4N2O5
Exact mass: 184.01202
SMILES: OC1=C(C=C(C=C1)[N+]([O-])=O)[N+]([O-])=O
InChI: InChI=1S/C6H4N2O5/c9-6-2-1-4(7(10)11)3-5(6)8(12)13/h1-3,9H
Instrument: Q Exactive Plus Orbitrap Thermo Scientific
Instrument type: LC-ESI-QFT
Ms type: MS2
Ion mode: NEGATIVE
Ionization: ESI
Fragmentation mode: HCD
Collision energy: 35  (nominal)
Resolution: 35000
Column name: Kinetex C18 EVO 2.6 um, 2.1x50 mm, precolumn 2.1x5 mm, Phenomenex
Retention time: 6.373 min
Base peak: 183.0047
Precursor m/z: 183.0047
Precursor type: [M-H]-
m/z	relative intensity	assigned
79.0173	4	C3HN3-
95.0125	45	C3HN3O-
97.0281	3	C3H3N3O-
109.0159	27	C3HN4O-
123.0083	142	C6H3O3-
125.0114	7	C5H3NO3-
137.0118	41	C6H3NO3-
153.0068	144	C6H3NO4-
183.0048	999	C6H3N2O5-
