Mass spectrum: 2-Aminobiphenyl; LC-ESI-QFT; MS2; CE: 35 NCE; R=35000; [M+H]+
Name: 2-Aminobiphenyl
Name: 2-phenylaniline
Formula: C12H11N
Exact mass: 169.08915
SMILES: NC1=C(C=CC=C1)C1=CC=CC=C1
InChI: InChI=1S/C12H11N/c13-12-9-5-4-8-11(12)10-6-2-1-3-7-10/h1-9H,13H2
Instrument: Q Exactive Plus Orbitrap Thermo Scientific
Instrument type: LC-ESI-QFT
Ms type: MS2
Ion mode: POSITIVE
Ionization: ESI
Fragmentation mode: HCD
Collision energy: 35  (nominal)
Resolution: 35000
Column name: Kinetex C18 EVO 2.6 um, 2.1x50 mm, precolumn 2.1x5 mm, Phenomenex
Retention time: 8.437 min
Base peak: 170.0962
Precursor m/z: 170.0964
Precursor type: [M+H]+
m/z	relative intensity	assigned
65.0386	1	C5H5+
92.0494	7	C6H6N+
93.0572	6	C6H7N+
103.0542	1	C8H7+
110.06	3	C6H8NO+
115.0541	1	C9H7+
128.062	9	C10H8+
129.0699	2	C10H9+
143.0855	18	C11H11+
152.062	18	C12H8+
153.0698	74	C12H9+
154.0649	1	C11H8N+
154.0777	1	C12H10+
155.0729	7	C11H9N+
168.0809	2	C12H10N+
169.0654	1	C12H9O+
169.0885	14	C12H11N+
170.0963	999	C12H12N+
181.0758	1	C12H9N2+
