Mass spectrum: Terbuthylazine-2-hydroxy; LC-ESI-QFT; MS2; CE: 35 NCE; R=35000; [M+H]+
Name: Terbuthylazine-2-hydroxy
Name: Hydroxyterbuthylazine
Name: 2-(tert-butylamino)-6-(ethylamino)-1H-1,3,5-triazin-4-one
Formula: C9H17N5O
Exact mass: 211.14331
SMILES: CCNC1=NC(=O)N=C(NC(C)(C)C)N1
InChI: InChI=1S/C9H17N5O/c1-5-10-6-11-7(13-8(15)12-6)14-9(2,3)4/h5H2,1-4H3,(H3,10,11,12,13,14,15)
Instrument: Q Exactive Plus Orbitrap Thermo Scientific
Instrument type: LC-ESI-QFT
Ms type: MS2
Ion mode: POSITIVE
Ionization: ESI
Fragmentation mode: HCD
Collision energy: 35  (nominal)
Resolution: 35000
Column name: Kinetex C18 EVO 2.6 um, 2.1x50 mm, precolumn 2.1x5 mm, Phenomenex
Retention time: 5.737 min
Base peak: 203.0925
Precursor m/z: 212.1506
Precursor type: [M+H]+
m/z	relative intensity	assigned
56.0496	7	C3H6N+
57.0701	1	C4H9+
65.0387	3	C5H5+
67.0543	1	C5H7+
69.0084	1	C2HN2O+
70.0288	4	C3H4NO+
71.0605	5	C3H7N2+
85.0396	6	C3H5N2O+
86.0349	12	C2H4N3O+
90.0338	3	C6H4N+
92.0495	11	C6H6N+
93.0572	9	C6H7N+
97.0396	5	C4H5N2O+
99.0553	269	C4H7N2O+
106.0651	1	C7H8N+
107.0604	3	C6H7N2+
110.0599	4	C6H8NO+
114.0105	17	C8H2O+
114.0662	6	C4H8N3O+
126.0105	171	C9H2O+
127.0183	10	C9H3O+
128.0261	999	C9H4O+
133.076	8	C8H9N2+
142.0054	2	C9H2O2+
144.0209	2	C9H4O2+
156.088	126	C5H10N5O+
176.0818	17	C9H10N3O+
