Mass spectrum: Desisopropylatrazine; LC-ESI-QFT; MS2; CE: 35 NCE; R=35000; [M+H]+
Name: Desisopropylatrazine
Name: 6-chloro-2-N-ethyl-1,3,5-triazine-2,4-diamine
Formula: C5H8ClN5
Exact mass: 173.04682
SMILES: CCNc1nc(N)nc(Cl)n1
InChI: InChI=1S/C5H8ClN5/c1-2-8-5-10-3(6)9-4(7)11-5/h2H2,1H3,(H3,7,8,9,10,11)
Instrument: Q Exactive Plus Orbitrap Thermo Scientific
Instrument type: LC-ESI-QFT
Ms type: MS2
Ion mode: POSITIVE
Ionization: ESI
Fragmentation mode: HCD
Collision energy: 35  (nominal)
Resolution: 35000
Column name: Kinetex C18 EVO 2.6 um, 2.1x50 mm, precolumn 2.1x5 mm, Phenomenex
Retention time: 3.748 min
Base peak: 174.054
Precursor m/z: 174.0541
Precursor type: [M+H]+
m/z	relative intensity	assigned
61.9793	2	CHClN+
68.0244	40	C2H2N3+
71.0604	23	C3H7N2+
79.0058	103	CH4ClN2+
90.0105	4	C3H5ClN+
96.0556	111	C4H6N3+
104.001	59	C2H3ClN3+
110.0461	9	C3H4N5+
128.0566	1	C3H6N5O+
132.0323	107	C4H7ClN3+
138.0774	23	C5H8N5+
146.0228	58	C3H5ClN5+
160.0131	1	C2H3ClN7+
174.0542	999	C5H9ClN5+
