Mass spectrum: Dimethachlor; LC-ESI-QFT; MS2; CE: 35 NCE; R=35000; [M+H]+
Name: Dimethachlor
Name: 2-chloro-N-(2,6-dimethylphenyl)-N-(2-methoxyethyl)acetamide
Formula: C13H18ClNO2
Exact mass: 255.10261
SMILES: COCCN(C(=O)CCl)C1=C(C)C=CC=C1C
InChI: InChI=1S/C13H18ClNO2/c1-10-5-4-6-11(2)13(10)15(7-8-17-3)12(16)9-14/h4-6H,7-9H2,1-3H3
Instrument: Q Exactive Plus Orbitrap Thermo Scientific
Instrument type: LC-ESI-QFT
Ms type: MS2
Ion mode: POSITIVE
Ionization: ESI
Fragmentation mode: HCD
Collision energy: 35  (nominal)
Resolution: 35000
Column name: Kinetex C18 EVO 2.6 um, 2.1x50 mm, precolumn 2.1x5 mm, Phenomenex
Retention time: 10.522 min
Base peak: 256.1096
Precursor m/z: 256.1099
Precursor type: [M+H]+
m/z	relative intensity	assigned
76.9789	15	C2H2ClO+
79.0542	2	C6H7+
91.0542	1	C7H7+
103.0543	1	C8H7+
105.0698	13	C8H9+
118.065	2	C8H8N+
119.0858	2	C9H11+
120.0808	2	C8H10N+
121.0648	3	C8H9O+
131.0729	5	C9H9N+
131.0854	4	C10H11+
132.0807	17	C9H10N+
133.0887	7	C9H11N+
144.0807	2	C10H10N+
146.0964	5	C10H12N+
147.1043	5	C10H13N+
148.112	318	C10H14N+
174.0914	3	C11H12NO+
224.0836	999	C12H15ClNO+
256.1098	83	C13H19ClNO2+
