Mass spectrum: Furosemide; LC-ESI-QFT; MS2; CE: 35 NCE; R=35000; [M-H]-
Name: Furosemide
Name: 4-chloro-2-(furan-2-ylmethylamino)-5-sulfamoylbenzoic acid
Formula: C12H11ClN2O5S
Exact mass: 330.00772
SMILES: NS(=O)(=O)c1cc(C(O)=O)c(NCc2ccco2)cc1Cl
InChI: InChI=1S/C12H11ClN2O5S/c13-9-5-10(15-6-7-2-1-3-20-7)8(12(16)17)4-11(9)21(14,18)19/h1-5,15H,6H2,(H,16,17)(H2,14,18,19)
Instrument: Q Exactive Plus Orbitrap Thermo Scientific
Instrument type: LC-ESI-QFT
Ms type: MS2
Ion mode: NEGATIVE
Ionization: ESI
Fragmentation mode: HCD
Collision energy: 35  (nominal)
Resolution: 35000
Column name: Kinetex C18 EVO 2.6 um, 2.1x50 mm, precolumn 2.1x5 mm, Phenomenex
Retention time: 9.167 min
Base peak: 329.0005
Precursor m/z: 329.0004
Precursor type: [M-H]-
m/z	relative intensity	assigned
79.0172	13	C3HN3-
94.0283	3	C3H2N4-
116.0497	3	H10N3O2S-
126.0111	186	C9H2O-
140.9984	2	C9HO2-
141.0459	1	C9H5N2-
142.0661	3	C10H8N-
144.046	1	C6H9ClN2-
146.0609	2	C9H8NO-
156.0692	7	C10H8N2-
157.0532	7	C10H7NO-
157.077	7	C10H9N2-
158.0484	1	C9H6N2O-
167.0613	6	C11H7N2-
169.0079	8	C6H5N2O2S-
169.0531	2	C11H7NO-
170.0616	13	C11H8NO-
172.0404	2	C10H6NO2-
173.0722	2	C10H9N2O-
178.0427	3	C10H9ClN-
179.0375	2	C12H5NO-
184.0647	1	C11H8N2O-
185.0485	2	C11H7NO2-
185.0718	23	C11H9N2O-
187.9583	2	C6H3ClNO2S-
189.9741	1	C6H5ClNO2S-
201.0667	2	C11H9N2O2-
203.9757	1	C9H2NO3S-
204.9843	999	C6H6ClN2O2S-
206.0377	83	C11H9ClNO-
221.0486	2	C11H10ClN2O-
228.9843	6	C8H6ClN2O2S-
243.0002	3	C9H8ClN2O2S-
249.0338	25	C11H9N2O3S-
257.016	3	C10H10ClN2O2S-
267.0003	8	C11H8ClN2O2S-
269.9867	3	C10H7ClN2O3S-
285.0106	896	C11H10ClN2O3S-
329.0004	792	C12H10ClN2O5S-
