Mass spectrum: Clofibric acid; LC-ESI-QFT; MS2; CE: 35 NCE; R=35000; [M-H]-
Name: Clofibric acid
Name: 2-(4-chlorophenoxy)-2-methylpropanoic acid
Formula: C10H11ClO3
Exact mass: 214.03967
SMILES: CC(C)(Oc1ccc(Cl)cc1)C(O)=O
InChI: InChI=1S/C10H11ClO3/c1-10(2,9(12)13)14-8-5-3-7(11)4-6-8/h3-6H,1-2H3,(H,12,13)
Instrument: Q Exactive Plus Orbitrap Thermo Scientific
Instrument type: LC-ESI-QFT
Ms type: MS2
Ion mode: NEGATIVE
Ionization: ESI
Fragmentation mode: HCD
Collision energy: 35  (nominal)
Resolution: 35000
Column name: Kinetex C18 EVO 2.6 um, 2.1x50 mm, precolumn 2.1x5 mm, Phenomenex
Retention time: 10.676 min
Base peak: 213.0324
Precursor m/z: 213.0324
Precursor type: [M-H]-
m/z	relative intensity	assigned
126.9953	999	C6H4ClO-
213.0325	13	C10H10ClO3-
