Mass spectrum: Mebendazole; LC-ESI-QFT; MS2; CE: 35 NCE; R=35000; [M-H]-
Name: Mebendazole
Name: methyl N-(6-benzoyl-1H-benzimidazol-2-yl)carbamate
Formula: C16H13N3O3
Exact mass: 295.09569
SMILES: COC(=O)Nc1nc2ccc(cc2[nH]1)C(=O)c1ccccc1
InChI: InChI=1S/C16H13N3O3/c1-22-16(21)19-15-17-12-8-7-11(9-13(12)18-15)14(20)10-5-3-2-4-6-10/h2-9H,1H3,(H2,17,18,19,21)
Instrument: Q Exactive Plus Orbitrap Thermo Scientific
Instrument type: LC-ESI-QFT
Ms type: MS2
Ion mode: NEGATIVE
Ionization: ESI
Fragmentation mode: HCD
Collision energy: 35  (nominal)
Resolution: 35000
Column name: Kinetex C18 EVO 2.6 um, 2.1x50 mm, precolumn 2.1x5 mm, Phenomenex
Retention time: 9.737 min
Base peak: 262.0622
Precursor m/z: 294.0884
Precursor type: [M-H]-
m/z	relative intensity	assigned
157.0281	16	C8H3N3O-
262.0623	999	C15H8N3O2-
294.0886	52	C16H12N3O3-
