Mass spectrum: 2-Aminoanthracene; LC-ESI-QFT; MS2; CE: 35 NCE; R=35000; [M+H]+
Name: 2-Aminoanthracene
Name: anthracen-2-amine
Formula: C14H11N
Exact mass: 193.08915
SMILES: NC1=CC2=CC3=CC=CC=C3C=C2C=C1
InChI: InChI=1S/C14H11N/c15-14-6-5-12-7-10-3-1-2-4-11(10)8-13(12)9-14/h1-9H,15H2
Instrument: Q Exactive Plus Orbitrap Thermo Scientific
Instrument type: LC-ESI-QFT
Ms type: MS2
Ion mode: POSITIVE
Ionization: ESI
Fragmentation mode: HCD
Collision energy: 35  (nominal)
Resolution: 35000
Column name: Kinetex C18 EVO 2.6 um, 2.1x50 mm, precolumn 2.1x5 mm, Phenomenex
Retention time: 9.134 min
Base peak: 194.0962
Precursor m/z: 194.0964
Precursor type: [M+H]+
m/z	relative intensity	assigned
128.062	2	C10H8+
152.0618	2	C12H8+
153.0698	27	C12H9+
165.0698	2	C13H9+
167.0855	25	C13H11+
176.062	4	C14H8+
177.0698	62	C14H9+
178.0777	27	C14H10+
181.0647	21	C13H9O+
193.0887	88	C14H11N+
194.0963	999	C14H12N+
