Mass spectrum: Dicyclohexyl phthalate; LC-ESI-QFT; MS2; CE: 35 NCE; R=35000; [M+H]+
Name: Dicyclohexyl phthalate
Name: Dicyclohexyl benzene-1,2-dicarboxylate
Formula: C20H26O4
Exact mass: 330.18311
SMILES: O=C(OC1CCCCC1)C1=CC=CC=C1C(=O)OC1CCCCC1
InChI: InChI=1S/C20H26O4/c21-19(23-15-9-3-1-4-10-15)17-13-7-8-14-18(17)20(22)24-16-11-5-2-6-12-16/h7-8,13-16H,1-6,9-12H2
Instrument: Q Exactive Plus Orbitrap Thermo Scientific
Instrument type: LC-ESI-QFT
Ms type: MS2
Ion mode: POSITIVE
Ionization: ESI
Fragmentation mode: HCD
Collision energy: 35  (nominal)
Resolution: 35000
Column name: Kinetex C18 EVO 2.6 um, 2.1x50 mm, precolumn 2.1x5 mm, Phenomenex
Retention time: 14.107 min
Base peak: 331.1899
Precursor m/z: 331.1904
Precursor type: [M+H]+
m/z	relative intensity	assigned
55.0544	3	C4H7+
65.0389	2	C5H5+
83.0855	13	C6H11+
121.0283	6	C7H5O2+
149.0233	999	C8H5O3+
163.0389	18	C9H7O3+
167.0338	236	C8H7O4+
181.0494	15	C9H9O4+
231.1016	12	C14H15O3+
249.1121	86	C14H17O4+
331.1903	16	C20H27O4+
