Mass spectrum: 1-Naphthylamine; LC-ESI-QFT; MS2; CE: 35 NCE; R=35000; [M+H]+
Name: 1-Naphthylamine
Name: 1-Aminonaphthalene
Name: naphthalen-1-amine
Formula: C10H9N
Exact mass: 143.07350
SMILES: NC1=CC=CC2=CC=CC=C12
InChI: InChI=1S/C10H9N/c11-10-7-3-5-8-4-1-2-6-9(8)10/h1-7H,11H2
Instrument: Q Exactive Plus Orbitrap Thermo Scientific
Instrument type: LC-ESI-QFT
Ms type: MS2
Ion mode: POSITIVE
Ionization: ESI
Fragmentation mode: HCD
Collision energy: 35  (nominal)
Resolution: 35000
Column name: Kinetex C18 EVO 2.6 um, 2.1x50 mm, precolumn 2.1x5 mm, Phenomenex
Retention time: 2.789 min
Base peak: 144.0806
Precursor m/z: 144.0808
Precursor type: [M+H]+
m/z	relative intensity	assigned
103.0542	9	C8H7+
115.054	1	C9H7+
117.0699	27	C9H9+
127.0542	6	C10H7+
128.0622	2	C10H8+
143.0729	33	C10H9N+
144.0807	999	C10H10N+
155.0603	28	C10H7N2+
