Mass spectrum: Octhilinone; LC-ESI-QFT; MS2; CE: 35 NCE; R=35000; [M+H]+
Name: Octhilinone
Name: 2-Octyl-4-isothiazolin-3-one
Name: 2-Octyl-1,2-thiazol-3-one
Formula: C11H19NOS
Exact mass: 213.11874
SMILES: CCCCCCCCN1SC=CC1=O
InChI: InChI=1S/C11H19NOS/c1-2-3-4-5-6-7-9-12-11(13)8-10-14-12/h8,10H,2-7,9H2,1H3
Instrument: Q Exactive Plus Orbitrap Thermo Scientific
Instrument type: LC-ESI-QFT
Ms type: MS2
Ion mode: POSITIVE
Ionization: ESI
Fragmentation mode: HCD
Collision energy: 35  (nominal)
Resolution: 35000
Column name: Kinetex C18 EVO 2.6 um, 2.1x50 mm, precolumn 2.1x5 mm, Phenomenex
Retention time: 11.809 min
Base peak: 214.1257
Precursor m/z: 214.126
Precursor type: [M+H]+
m/z	relative intensity	assigned
57.0701	163	C4H9+
58.9952	1	C2H3S+
71.0856	167	C5H11+
83.9902	1	C3H2NS+
84.9742	1	C3HOS+
102.0008	999	C3H4NOS+
214.126	594	C11H20NOS+
