Mass spectrum: Octocrylene; LC-ESI-QFT; MS2; CE: 35 NCE; R=35000; [M+H]+
Name: Octocrylene
Name: 2-Ethylhexyl 2-cyano-3,3-diphenylprop-2-enoate
Name: 2-Ethylhexyl 2-cyano-3,3-diphenylacrylate
Formula: C24H27NO2
Exact mass: 361.20418
SMILES: CCCCC(CC)COC(=O)C(C#N)=C(C1=CC=CC=C1)C1=CC=CC=C1
InChI: InChI=1S/C24H27NO2/c1-3-5-12-19(4-2)18-27-24(26)22(17-25)23(20-13-8-6-9-14-20)21-15-10-7-11-16-21/h6-11,13-16,19H,3-5,12,18H2,1-2H3
Instrument: Q Exactive Plus Orbitrap Thermo Scientific
Instrument type: LC-ESI-QFT
Ms type: MS2
Ion mode: POSITIVE
Ionization: ESI
Fragmentation mode: HCD
Collision energy: 35  (nominal)
Resolution: 35000
Column name: Kinetex C18 EVO 2.6 um, 2.1x50 mm, precolumn 2.1x5 mm, Phenomenex
Retention time: 14.495 min
Base peak: 65.0597
Precursor m/z: 362.2115
Precursor type: [M+H]+
m/z	relative intensity	assigned
53.0388	2	C4H5+
57.07	54	C4H9+
68.9972	2	C3HO2+
71.0856	63	C5H11+
95.0492	6	C6H7O+
104.0494	16	C7H6N+
105.0335	231	C7H5O+
113.1325	1	C8H17+
128.0494	2	C9H6N+
129.0335	10	C9H5O+
147.044	11	C9H7O2+
153.0699	3	C12H9+
154.0284	1	C10H4NO+
157.0284	14	C10H5O2+
165.0696	2	C13H9+
167.0855	1	C13H11+
175.039	9	C10H7O3+
176.0618	9	C14H8+
177.0698	40	C14H9+
178.0775	7	C14H10+
179.0854	5	C14H11+
181.0653	2	C13H9O+
182.0963	13	C13H12N+
183.0804	4	C13H11O+
195.0808	7	C14H11O+
203.0729	43	C15H9N+
204.0808	244	C15H10N+
205.076	12	C14H9N2+
206.0965	14	C15H12N+
207.0803	6	C15H11O+
222.0914	11	C15H12NO+
232.0757	891	C16H10NO+
236.1069	5	C16H14NO+
250.0863	999	C16H12NO2+
264.1021	13	C17H14NO2+
282.1124	7	C17H16NO3+
362.2112	1	C24H28NO2+
