Mass spectrum: Progesterone; LC-ESI-QFT; MS2; CE: 35 NCE; R=35000; [M+H]+
Name: Progesterone
Name: (4-14c)pregn-4-ene-3,20-dione
Name: 17-acetyl-10,13-dimethyl-1,2,6,7,8,9,11,12,14,15,16,17-dodecahydrocyclopenta[a]phenanthren-3-one
Formula: C21H30O2
Exact mass: 314.22458
SMILES: CC(=O)C1CCC2C3CCC4=CC(=O)CCC4(C)C3CCC12C
InChI: InChI=1S/C21H30O2/c1-13(22)17-6-7-18-16-5-4-14-12-15(23)8-10-20(14,2)19(16)9-11-21(17,18)3/h12,16-19H,4-11H2,1-3H3
Instrument: Q Exactive Plus Orbitrap Thermo Scientific
Instrument type: LC-ESI-QFT
Ms type: MS2
Ion mode: POSITIVE
Ionization: ESI
Fragmentation mode: HCD
Collision energy: 35  (nominal)
Resolution: 35000
Column name: Kinetex C18 EVO 2.6 um, 2.1x50 mm, precolumn 2.1x5 mm, Phenomenex
Retention time: 12.449 min
Base peak: 315.2315
Precursor m/z: 315.2319
Precursor type: [M+H]+
m/z	relative intensity	assigned
55.0181	2	C3H3O+
67.0543	9	C5H7+
69.0699	8	C5H9+
71.0492	5	C4H7O+
79.0542	35	C6H7+
81.0699	38	C6H9+
83.0491	31	C5H7O+
85.0648	19	C5H9O+
91.0541	10	C7H7+
93.0699	17	C7H9+
95.0491	2	C6H7O+
95.0855	26	C7H11+
97.0648	750	C6H9O+
105.0699	16	C8H9+
107.0492	2	C7H7O+
107.0855	16	C8H11+
109.0648	615	C7H9O+
111.0804	2	C7H11O+
117.0698	3	C9H9+
119.0855	21	C9H11+
121.0648	5	C8H9O+
121.1011	18	C9H13+
123.0804	55	C8H11O+
129.0699	2	C10H9+
131.0855	15	C10H11+
133.1012	18	C10H13+
135.0804	1	C9H11O+
135.1167	8	C10H15+
137.0961	8	C9H13O+
143.0856	5	C11H11+
145.1011	20	C11H13+
147.1167	17	C11H15+
149.096	6	C10H13O+
149.1323	5	C11H17+
151.1116	3	C10H15O+
155.0855	2	C12H11+
157.1011	9	C12H13+
159.1167	21	C12H15+
161.0961	2	C11H13O+
161.1324	11	C12H17+
163.1116	11	C11H15O+
163.1479	3	C12H19+
169.1012	3	C13H13+
171.1168	12	C13H15+
173.1325	16	C13H17+
175.1123	1	C12H15O+
175.1481	6	C13H19+
177.1274	14	C12H17O+
179.1427	2	C12H19O+
183.1167	6	C14H15+
185.1326	7	C14H17+
187.1118	2	C13H15O+
187.1481	7	C14H19+
189.1273	6	C13H17O+
189.1635	3	C14H21+
191.143	4	C13H19O+
195.1167	1	C15H15+
197.1326	6	C15H17+
199.1482	5	C15H19+
201.1274	2	C14H17O+
201.1637	11	C15H21+
203.143	1	C14H19O+
205.1585	1	C14H21O+
209.1324	3	C16H17+
211.1478	2	C16H19+
213.1638	9	C16H21+
215.1429	5	C15H19O+
215.1795	11	C16H23+
219.1744	2	C15H23O+
223.148	7	C17H19+
225.1633	2	C17H21+
227.1432	1	C16H19O+
227.1794	7	C17H23+
229.1585	4	C16H21O+
231.1744	2	C16H23O+
233.1899	4	C16H25O+
237.1636	3	C18H21+
239.1793	13	C18H23+
241.1583	7	C17H21O+
245.1904	3	C17H25O+
251.1795	2	C19H23+
253.1949	7	C19H25+
255.1741	2	C18H23O+
255.2107	17	C19H27+
257.1893	3	C18H25O+
269.2266	1	C20H29+
271.2052	2	C19H27O+
273.2211	10	C19H29O+
279.2108	24	C21H27+
297.2213	63	C21H29O+
315.2319	999	C21H31O2+
