Mass spectrum: Omeprazole; LC-ESI-QFT; MS2; CE: 35 NCE; R=35000; [M+H]+
Name: Omeprazole
Name: 6-methoxy-2-[(4-methoxy-3,5-dimethylpyridin-2-yl)methylsulfinyl]-1H-benzimidazole
Formula: C17H19N3O3S
Exact mass: 345.11471
SMILES: COC1=CC=C2N=C(NC2=C1)S(=O)CC1=NC=C(C)C(OC)=C1C
InChI: InChI=1S/C17H19N3O3S/c1-10-8-18-15(11(2)16(10)23-4)9-24(21)17-19-13-6-5-12(22-3)7-14(13)20-17/h5-8H,9H2,1-4H3,(H,19,20)
Instrument: Q Exactive Plus Orbitrap Thermo Scientific
Instrument type: LC-ESI-QFT
Ms type: MS2
Ion mode: POSITIVE
Ionization: ESI
Fragmentation mode: HCD
Collision energy: 35  (nominal)
Resolution: 35000
Column name: Kinetex C18 EVO 2.6 um, 2.1x50 mm, precolumn 2.1x5 mm, Phenomenex
Retention time: 8.222 min
Base peak: 346.1219
Precursor m/z: 346.122
Precursor type: [M+H]+
m/z	relative intensity	assigned
108.081	8	C7H10N+
120.0809	20	C8H10N+
121.0888	47	C8H11N+
122.0964	15	C8H12N+
136.0758	483	C8H10NO+
149.0711	177	C8H9N2O+
150.0916	114	C9H12NO+
151.0994	353	C9H13NO+
152.0167	8	C7H6NOS+
165.0246	16	C8H7NOS+
166.0864	19	C9H12NO2+
168.1022	180	C9H14NO2+
179.0275	69	C8H7N2OS+
180.048	302	C9H10NOS+
181.0557	53	C9H11NOS+
198.0586	999	C9H12NO2S+
208.0966	3	C11H14NO3+
236.1349	3	C13H20N2S+
328.1126	4	C17H18N3O2S+
346.1228	36	C17H20N3O3S+
