Mass spectrum: Imidacloprid; LC-ESI-QFT; MS2; CE: 35 NCE; R=35000; [M+H]+
Name: Imidacloprid
Name: N-[1-[(6-chloropyridin-3-yl)methyl]-4,5-dihydroimidazol-2-yl]nitramide
Formula: C9H10ClN5O2
Exact mass: 255.05230
SMILES: [O-][N+](=O)NC1=NCCN1Cc1ccc(Cl)nc1
InChI: InChI=1S/C9H10ClN5O2/c10-8-2-1-7(5-12-8)6-14-4-3-11-9(14)13-15(16)17/h1-2,5H,3-4,6H2,(H,11,13)
Instrument: Q Exactive Plus Orbitrap Thermo Scientific
Instrument type: LC-ESI-QFT
Ms type: MS2
Ion mode: POSITIVE
Ionization: ESI
Fragmentation mode: HCD
Collision energy: 35  (nominal)
Resolution: 35000
Column name: Kinetex C18 EVO 2.6 um, 2.1x50 mm, precolumn 2.1x5 mm, Phenomenex
Retention time: 6.284 min
Base peak: 256.0592
Precursor m/z: 256.0596
Precursor type: [M+H]+
m/z	relative intensity	assigned
56.0497	27	C3H6N+
57.0449	1	C2H5N2+
71.0604	7	C3H7N2+
72.0683	4	C3H8N2+
84.0556	239	C3H6N3+
90.0338	6	C6H4N+
92.0494	2	C6H6N+
93.0572	1	C6H7N+
97.0634	11	C4H7N3+
98.0713	10	C4H8N3+
99.0553	31	C4H7N2O+
106.0652	1	C7H8N+
107.0604	1	C6H7N2+
114.0104	2	C5H5ClN+
119.0602	1	C7H7N2+
126.0105	62	C6H5ClN+
127.0184	2	C6H6ClN+
128.0075	140	CN6O2+
128.0261	128	C6H7ClN+
131.0603	2	C8H7N2+
132.0682	1	C8H8N2+
133.0633	5	C7H7N3+
133.076	7	C8H9N2+
134.0713	5	C7H8N3+
140.0134	2	C6H5ClN2+
141.0214	7	C6H6ClN2+
146.0585	5	C7H6N4+
146.0713	15	C8H8N3+
147.0665	14	C7H7N4+
148.0869	6	C8H10N3+
151.0184	15	C8H6ClN+
153.0212	2	C7H6ClN2+
158.0713	7	C9H8N3+
159.0662	3	C8H7N4+
159.0792	6	C9H9N3+
166.029	1	C8H7ClN2+
167.0248	6	C7H6ClN3+
167.037	12	C8H8ClN2+
168.0322	2	C7H7ClN3+
168.0448	1	C8H9ClN2+
173.0821	25	C9H9N4+
174.09	105	C9H10N4+
175.0978	873	C9H11N4+
176.0819	3	C9H10N3O+
180.0323	4	C8H7ClN3+
181.0276	6	C7H6ClN4+
181.0397	4	C8H8ClN3+
193.0402	6	C9H8ClN3+
194.0478	9	C9H9ClN3+
195.0319	3	C9H8ClN2O+
195.0434	3	C8H8ClN4+
208.0514	1	C9H9ClN4+
209.0588	999	C9H10ClN4+
210.0666	192	C9H11ClN4+
212.0585	167	C9H11ClN3O+
226.0617	4	C9H11ClN4O+
256.0595	290	C9H11ClN5O2+
