Mass spectrum: Sulfamethazine; LC-ESI-QFT; MS2; CE: 35 NCE; R=35000; [M+H]+
Name: Sulfamethazine
Name: 4-amino-N-(4,6-dimethylpyrimidin-2-yl)benzenesulfonamide
Formula: C12H14N4O2S
Exact mass: 278.08375
SMILES: Cc1cc(C)nc(NS(=O)(=O)c2ccc(N)cc2)n1
InChI: InChI=1S/C12H14N4O2S/c1-8-7-9(2)15-12(14-8)16-19(17,18)11-5-3-10(13)4-6-11/h3-7H,13H2,1-2H3,(H,14,15,16)
Instrument: Q Exactive Plus Orbitrap Thermo Scientific
Instrument type: LC-ESI-QFT
Ms type: MS2
Ion mode: POSITIVE
Ionization: ESI
Fragmentation mode: HCD
Collision energy: 35  (nominal)
Resolution: 35000
Column name: Kinetex C18 EVO 2.6 um, 2.1x50 mm, precolumn 2.1x5 mm, Phenomenex
Retention time: 4.832 min
Base peak: 279.0908
Precursor m/z: 279.091
Precursor type: [M+H]+
m/z	relative intensity	assigned
54.0341	2	C3H4N+
65.0387	25	C5H5+
68.0495	22	C4H6N+
78.0338	2	C5H4N+
79.0179	4	C5H3O+
80.0494	5	C5H6N+
81.0447	16	C4H5N2+
82.0651	2	C5H8N+
92.0494	234	C6H6N+
93.0573	9	C6H7N+
94.0651	8	C6H8N+
95.0603	33	C5H7N2+
96.0443	2	C5H6NO+
105.0447	2	C6H5N2+
107.0603	2	C6H7N2+
108.0444	293	C6H6NO+
110.06	22	C6H8NO+
120.0555	3	C6H6N3+
122.0712	52	C6H8N3+
123.079	9	C6H9N3+
124.0869	448	C6H10N3+
125.0709	7	C6H9N2O+
149.0233	3	C8H5O3+
156.0112	288	C6H6NO2S+
174.0219	9	C12H2N2+
186.0331	37	C6H8N3O2S+
196.0869	2	C12H10N3+
204.0437	528	C12H4N4+
205.0497	2	C4H9N6O2S+
213.1134	65	C12H13N4+
215.1292	1	C12H15N4+
218.0596	2	C7H12N3O3S+
279.091	999	C12H15N4O2S+
