Mass spectrum: Nonivamide; LC-ESI-QFT; MS2; CE: 35 NCE; R=35000; [M+H]+
Name: Nonivamide
Name: N-[(4-hydroxy-3-methoxyphenyl)methyl]nonanamide
Formula: C17H27NO3
Exact mass: 293.19909
SMILES: CCCCCCCCC(=O)NCC1=CC=C(O)C(OC)=C1
InChI: InChI=1S/C17H27NO3/c1-3-4-5-6-7-8-9-17(20)18-13-14-10-11-15(19)16(12-14)21-2/h10-12,19H,3-9,13H2,1-2H3,(H,18,20)
Instrument: Q Exactive Plus Orbitrap Thermo Scientific
Instrument type: LC-ESI-QFT
Ms type: MS2
Ion mode: POSITIVE
Ionization: ESI
Fragmentation mode: HCD
Collision energy: 35  (nominal)
Resolution: 35000
Column name: Kinetex C18 EVO 2.6 um, 2.1x50 mm, precolumn 2.1x5 mm, Phenomenex
Retention time: 11.829 min
Base peak: 294.2063
Precursor m/z: 294.2064
Precursor type: [M+H]+
m/z	relative intensity	assigned
57.0701	7	C4H9+
71.0857	10	C5H11+
81.0699	2	C6H9+
91.0543	1	C7H7+
94.0414	7	C6H6O+
122.0363	30	C7H6O2+
137.0597	999	C8H9O2+
141.1274	21	C9H17O+
158.1541	11	C9H20NO+
170.1539	8	C10H20NO+
294.2064	16	C17H28NO3+
