Mass spectrum: Benzanilide; LC-ESI-QFT; MS2; CE: 35 NCE; R=35000; [M+H]+
Name: Benzanilide
Name: N-phenylbenzamide
Formula: C13H11NO
Exact mass: 197.08406
SMILES: O=C(NC1=CC=CC=C1)C1=CC=CC=C1
InChI: InChI=1S/C13H11NO/c15-13(11-7-3-1-4-8-11)14-12-9-5-2-6-10-12/h1-10H,(H,14,15)
Instrument: Q Exactive Plus Orbitrap Thermo Scientific
Instrument type: LC-ESI-QFT
Ms type: MS2
Ion mode: POSITIVE
Ionization: ESI
Fragmentation mode: HCD
Collision energy: 35  (nominal)
Resolution: 35000
Column name: Kinetex C18 EVO 2.6 um, 2.1x50 mm, precolumn 2.1x5 mm, Phenomenex
Retention time: 9.334 min
Base peak: 198.091
Precursor m/z: 198.0913
Precursor type: [M+H]+
m/z	relative intensity	assigned
53.0388	1	C4H5+
77.0384	15	C6H5+
79.0542	4	C6H7+
81.0335	1	C5H5O+
92.0494	21	C6H6N+
94.0412	1	C6H6O+
95.0491	24	C6H7O+
104.0495	1	C7H6N+
105.0334	999	C7H5O+
120.0443	110	C7H6NO+
180.0805	4	C13H10N+
198.0912	956	C13H12NO+
