Mass spectrum: Anthraflavic acid; LC-ESI-QFT; MS2; CE: 35 NCE; R=35000; [M-H]-
Name: Anthraflavic acid
Name: 2,6-dihydroxyanthracene-9,10-dione
Formula: C14H8O4
Exact mass: 240.04226
SMILES: OC1=CC=C2C(=O)C3=CC(O)=CC=C3C(=O)C2=C1
InChI: InChI=1S/C14H8O4/c15-7-1-3-9-11(5-7)14(18)10-4-2-8(16)6-12(10)13(9)17/h1-6,15-16H
Instrument: Q Exactive Plus Orbitrap Thermo Scientific
Instrument type: LC-ESI-QFT
Ms type: MS2
Ion mode: NEGATIVE
Ionization: ESI
Fragmentation mode: HCD
Collision energy: 35  (nominal)
Resolution: 35000
Column name: Kinetex C18 EVO 2.6 um, 2.1x50 mm, precolumn 2.1x5 mm, Phenomenex
Retention time: 9.971 min
Base peak: 239.035
Precursor m/z: 239.035
Precursor type: [M-H]-
m/z	relative intensity	assigned
139.0552	1	C11H7-
153.0345	2	C11H5O-
167.0503	13	C12H7O-
183.0452	2	C12H7O2-
195.0451	61	C13H7O2-
210.0323	7	C13H6O3-
211.0401	62	C13H7O3-
238.0273	14	C14H6O4-
239.035	999	C14H7O4-
