Mass spectrum: Monoisobutyl phthalate; LC-ESI-QFT; MS2; CE: 35 NCE; R=35000; [M-H]-
Name: Monoisobutyl phthalate
Name: Isobutyl hydrogen phthalate
Name: 2-(2-methylpropoxycarbonyl)benzoic acid
Formula: C12H14O4
Exact mass: 222.08921
SMILES: CC(C)COC(=O)C1=CC=CC=C1C(O)=O
InChI: InChI=1S/C12H14O4/c1-8(2)7-16-12(15)10-6-4-3-5-9(10)11(13)14/h3-6,8H,7H2,1-2H3,(H,13,14)
Instrument: Q Exactive Plus Orbitrap Thermo Scientific
Instrument type: LC-ESI-QFT
Ms type: MS2
Ion mode: NEGATIVE
Ionization: ESI
Fragmentation mode: HCD
Collision energy: 35  (nominal)
Resolution: 35000
Column name: Kinetex C18 EVO 2.6 um, 2.1x50 mm, precolumn 2.1x5 mm, Phenomenex
Retention time: 10.353 min
Base peak: 221.0818
Precursor m/z: 221.0819
Precursor type: [M-H]-
m/z	relative intensity	assigned
134.0372	999	C8H6O2-
135.0451	52	C8H7O2-
147.0087	145	C8H3O3-
147.0815	23	C10H11O-
149.0972	176	C10H13O-
151.0401	5	C8H7O3-
159.0818	2	C11H11O-
165.0192	28	C8H5O4-
175.0762	4	C11H11O2-
177.092	209	C11H13O2-
179.035	51	C9H7O4-
190.9988	13	C9H3O5-
193.0869	4	C11H13O3-
221.0819	621	C12H13O4-
