Mass spectrum: 4-Phenoxyphenol; LC-ESI-QFT; MS2; CE: 35 NCE; R=35000; [M-H]-
Name: 4-Phenoxyphenol
Formula: C12H10O2
Exact mass: 186.0681
SMILES: OC1=CC=C(OC2=CC=CC=C2)C=C1
InChI: InChI=1S/C12H10O2/c13-10-6-8-12(9-7-10)14-11-4-2-1-3-5-11/h1-9,13H
Instrument: Q Exactive Plus Orbitrap Thermo Scientific
Instrument type: LC-ESI-QFT
Ms type: MS2
Ion mode: NEGATIVE
Ionization: ESI
Fragmentation mode: HCD
Collision energy: 35  (nominal)
Resolution: 35000
Column name: Kinetex C18 EVO 2.6 um, 2.1x50 mm, precolumn 2.1x5 mm, Phenomenex
Retention time: 9.719 min
Base peak: 91.0022
Precursor m/z: 185.0608
Precursor type: [M-H]-
m/z	relative intensity	assigned
129.0707	4	C10H9-
141.0711	1	C11H9-
156.0581	1	C11H8O-
157.0659	1	C11H9O-
167.05	1	C12H7O-
184.053	33	C12H8O2-
185.0608	999	C12H9O2-
