Mass spectrum: Cyromazine; LC-ESI-QFT; MS2; CE: 35 NCE; R=35000; [M+H]+
Name: Cyromazine
Name: 2-N-cyclopropyl-1,3,5-triazine-2,4,6-triamine
Formula: C6H10N6
Exact mass: 166.09669
SMILES: NC1=NC(NC2CC2)=NC(N)=N1
InChI: InChI=1S/C6H10N6/c7-4-10-5(8)12-6(11-4)9-3-1-2-3/h3H,1-2H2,(H5,7,8,9,10,11,12)
Instrument: Q Exactive Plus Orbitrap Thermo Scientific
Instrument type: LC-ESI-QFT
Ms type: MS2
Ion mode: POSITIVE
Ionization: ESI
Fragmentation mode: HCD
Collision energy: 35  (nominal)
Resolution: 35000
Column name: Kinetex C18 EVO 2.6 um, 2.1x50 mm, precolumn 2.1x5 mm, Phenomenex
Retention time: 0.398 min
Base peak: 167.1038
Precursor m/z: 167.104
Precursor type: [M+H]+
m/z	relative intensity	assigned
56.0496	4	C3H6N+
58.0653	12	C3H8N+
60.0557	92	CH6N3+
68.0244	9	C2H2N3+
70.04	2	C2H4N3+
81.0447	2	C4H5N2+
83.0604	42	C4H7N2+
85.0508	157	C2H5N4+
100.0869	4	C4H10N3+
108.0556	31	C5H6N3+
110.0461	5	C3H4N5+
112.0617	2	C3H6N5+
125.0821	83	C5H9N4+
127.0727	3	C3H7N6+
139.0725	14	C4H7N6+
140.093	5	C5H10N5+
150.0775	3	C6H8N5+
167.1039	999	C6H11N6+
