Mass spectrum: Oxazepam; LC-ESI-QFT; MS2; CE: 35 NCE; R=35000; [M-H]-
Name: Oxazepam
Name: 7-chloro-3-hydroxy-5-phenyl-1,3-dihydro-1,4-benzodiazepin-2-one
Formula: C15H11ClN2O2
Exact mass: 286.05091
SMILES: OC1N=C(c2ccccc2)c2cc(Cl)ccc2NC1=O
InChI: InChI=1S/C15H11ClN2O2/c16-10-6-7-12-11(8-10)13(9-4-2-1-3-5-9)18-15(20)14(19)17-12/h1-8,15,20H,(H,17,19)
Instrument: Q Exactive Plus Orbitrap Thermo Scientific
Instrument type: LC-ESI-QFT
Ms type: MS2
Ion mode: NEGATIVE
Ionization: ESI
Fragmentation mode: HCD
Collision energy: 35  (nominal)
Resolution: 35000
Column name: Kinetex C18 EVO 2.6 um, 2.1x50 mm, precolumn 2.1x5 mm, Phenomenex
Retention time: 10.251 min
Base peak: 285.0437
Precursor m/z: 285.0436
Precursor type: [M-H]-
m/z	relative intensity	assigned
179.0013	16	C11HNO2-
257.0489	189	C14H10ClN2O-
285.0437	999	C15H10ClN2O2-
