Mass spectrum: Lauric isopropanolamide; LC-ESI-QFT; MS2; CE: 35 NCE; R=35000; [M+H]+
Name: Lauric isopropanolamide
Name: N-(2-hydroxypropyl)dodecanamide
Formula: C15H31NO2
Exact mass: 257.23548
SMILES: CCCCCCCCCCCC(=O)NCC(C)O
InChI: InChI=1S/C15H31NO2/c1-3-4-5-6-7-8-9-10-11-12-15(18)16-13-14(2)17/h14,17H,3-13H2,1-2H3,(H,16,18)
Instrument: Q Exactive Plus Orbitrap Thermo Scientific
Instrument type: LC-ESI-QFT
Ms type: MS2
Ion mode: POSITIVE
Ionization: ESI
Fragmentation mode: HCD
Collision energy: 35  (nominal)
Resolution: 35000
Column name: Kinetex C18 EVO 2.6 um, 2.1x50 mm, precolumn 2.1x5 mm, Phenomenex
Retention time: 13.251 min
Base peak: 258.2425
Precursor m/z: 258.2428
Precursor type: [M+H]+
m/z	relative intensity	assigned
55.0544	3	C4H7+
57.07	81	C4H9+
58.0653	831	C3H8N+
59.0493	2	C3H7O+
67.0543	15	C5H7+
69.0699	5	C5H9+
71.0856	51	C5H11+
76.0757	999	C3H10NO+
81.0699	19	C6H9+
83.0855	10	C6H11+
85.1012	30	C6H13+
95.0855	49	C7H11+
97.1012	4	C7H13+
109.1012	27	C8H13+
123.1168	5	C9H15+
165.1637	2	C12H21+
183.1744	10	C12H23O+
240.2321	174	C15H30NO+
241.2162	48	C15H29O2+
258.2428	414	C15H32NO2+
