Mass spectrum: Chloridazon; LC-ESI-QFT; MS2; CE: 35 NCE; R=35000; [M+H]+
Name: Chloridazon
Name: 5-amino-4-chloro-2-phenylpyridazin-3-one
Formula: C10H8ClN3O
Exact mass: 221.03559
SMILES: NC1=C(Cl)C(=O)N(N=C1)c1ccccc1
InChI: InChI=1S/C10H8ClN3O/c11-9-8(12)6-13-14(10(9)15)7-4-2-1-3-5-7/h1-6H,12H2
Instrument: Q Exactive Plus Orbitrap Thermo Scientific
Instrument type: LC-ESI-QFT
Ms type: MS2
Ion mode: POSITIVE
Ionization: ESI
Fragmentation mode: HCD
Collision energy: 35  (nominal)
Resolution: 35000
Column name: Kinetex C18 EVO 2.6 um, 2.1x50 mm, precolumn 2.1x5 mm, Phenomenex
Retention time: 6.549 min
Base peak: 239.1499
Precursor m/z: 222.0429
Precursor type: [M+H]+
m/z	relative intensity	assigned
53.0388	1	C4H5+
55.0293	2	C2H3N2+
63.9949	1	CH3ClN+
65.0387	9	C5H5+
75.9949	1	C2H3ClN+
77.0385	7	C6H5+
83.024	3	C3H3N2O+
87.9948	2	C3H3ClN+
92.0495	56	C6H6N+
93.0573	2	C6H7N+
94.0651	19	C6H8N+
95.0491	11	C6H7O+
100.9901	2	C3H2ClN2+
104.0495	90	C7H6N+
105.0448	3	C6H5N2+
119.0007	1	C3H4ClN2O+
119.0602	2	C7H7N2+
120.0444	1	C7H6NO+
128.985	16	C4H2ClN2O+
130.065	1	C9H8N+
131.0603	1	C8H7N2+
132.0444	1	C8H6NO+
146.0115	11	C4H5ClN3O+
149.0151	1	C9H6Cl+
150.0104	1	C8H5ClN+
159.0554	2	C9H7N2O+
177.0214	1	C9H6ClN2+
186.0662	5	C10H8N3O+
193.0291	8	C10H8ClNO+
195.0317	1	C9H8ClN2O+
205.0165	3	C10H6ClN2O+
222.0428	999	C10H9ClN3O+
