Mass spectrum: 5-Methylbenzotriazole; LC-ESI-QFT; MS2; CE: 35 NCE; R=35000; [M+H]+
Name: 5-Methylbenzotriazole
Name: 5-Methyl-1H-benzotriazole
Name: 5-Methyl-2H-benzotriazole
Formula: C7H7N3
Exact mass: 133.06400
SMILES: CC1=CC=C2NN=NC2=C1
InChI: InChI=1S/C7H7N3/c1-5-2-3-6-7(4-5)9-10-8-6/h2-4H,1H3,(H,8,9,10)
Instrument: Q Exactive Plus Orbitrap Thermo Scientific
Instrument type: LC-ESI-QFT
Ms type: MS2
Ion mode: POSITIVE
Ionization: ESI
Fragmentation mode: HCD
Collision energy: 35  (nominal)
Resolution: 35000
Column name: Kinetex C18 EVO 2.6 um, 2.1x50 mm, precolumn 2.1x5 mm, Phenomenex
Retention time: 6.984 min
Base peak: 134.0711
Precursor m/z: 134.0713
Precursor type: [M+H]+
m/z	relative intensity	assigned
53.0387	1	C4H5+
77.0386	8	C6H5+
79.0542	72	C6H7+
80.0495	1	C5H6N+
89.0385	1	C7H5+
95.0491	9	C6H7O+
96.0445	1	C5H6NO+
105.0447	2	C6H5N2+
106.0651	41	C7H8N+
134.0712	999	C7H8N3+
