Mass spectrum: Parathion-methyl; LC-ESI-QFT; MS2; CE: 35 NCE; R=35000; [M+H]+
Name: Parathion-methyl
Name: dimethoxy-(4-nitrophenoxy)-sulfanylidene-$l^{5}-phosphane
Formula: C8H10NO5PS
Exact mass: 263.00173
SMILES: COP(=S)(OC)Oc1ccc(cc1)[N+]([O-])=O
InChI: InChI=1S/C8H10NO5PS/c1-12-15(16,13-2)14-8-5-3-7(4-6-8)9(10)11/h3-6H,1-2H3
Instrument: Q Exactive Plus Orbitrap Thermo Scientific
Instrument type: LC-ESI-QFT
Ms type: MS2
Ion mode: POSITIVE
Ionization: ESI
Fragmentation mode: HCD
Collision energy: 35  (nominal)
Resolution: 35000
Column name: Kinetex C18 EVO 2.6 um, 2.1x50 mm, precolumn 2.1x5 mm, Phenomenex
Retention time: 10.968 min
Base peak: 196.0028
Precursor m/z: 264.009
Precursor type: [M+H]+
m/z	relative intensity	assigned
78.9849	12	CH3O2S+
78.9944	193	CH4O2P+
92.0257	21	C6H4O+
95.0494	13	C2H10NOP+
108.0444	75	C6H6NO+
122.0601	656	C7H8NO+
123.0317	119	C6H5NO2+
123.0679	217	C7H9NO+
123.9979	20	C6H4OS+
124.9822	148	C2H6O2PS+
127.0156	466	C2H8O4P+
138.0008	18	C6H4NOS+
139.009	26	C6H5NOS+
141.9849	19	C2H7O3PS+
142.9927	829	C2H8O3PS+
150.03	29	C6H4N3O2+
153.9638	18	C6H3OPS+
154.9715	32	C6H4OPS+
157.0083	77	C3H10O3PS+
185.9899	50	C7H7O2PS+
199.9569	54	C6H3NO3PS+
217.9672	27	C6H5NO4PS+
231.9831	22	C7H7NO4PS+
249.9936	700	C7H9NO5PS+
264.0092	999	C8H11NO5PS+
