Mass spectrum: Drospirenone; LC-ESI-QFT; MS2; CE: 35 NCE; R=35000; [M+H]+
Name: Drospirenone
Formula: C24H30O3
Exact mass: 366.21949
SMILES: CC12CCC3C(C4CC4C4=CC(=O)CCC34C)C1C1CC1C21CCC(=O)O1
InChI: InChI=1S/C24H30O3/c1-22-6-3-12(25)9-17(22)13-10-14(13)20-16(22)4-7-23(2)21(20)15-11-18(15)24(23)8-5-19(26)27-24/h9,13-16,18,20-21H,3-8,10-11H2,1-2H3
Instrument: Q Exactive Plus Orbitrap Thermo Scientific
Instrument type: LC-ESI-QFT
Ms type: MS2
Ion mode: POSITIVE
Ionization: ESI
Fragmentation mode: HCD
Collision energy: 35  (nominal)
Resolution: 35000
Column name: Kinetex C18 EVO 2.6 um, 2.1x50 mm, precolumn 2.1x5 mm, Phenomenex
Retention time: 11.463 min
Base peak: 289.2158
Precursor m/z: 367.2268
Precursor type: [M+H]+
m/z	relative intensity	assigned
55.018	6	C3H3O+
55.0544	5	C4H7+
65.0387	3	C5H5+
67.0543	35	C5H7+
69.0336	3	C4H5O+
69.0699	8	C5H9+
71.0491	2	C4H7O+
77.0386	2	C6H5+
79.0542	37	C6H7+
81.0699	34	C6H9+
83.0491	59	C5H7O+
85.0284	6	C4H5O2+
85.0648	2	C5H9O+
91.0542	38	C7H7+
93.0699	66	C7H9+
95.0491	6	C6H7O+
95.0855	17	C7H11+
97.0648	278	C6H9O+
99.044	4	C5H7O2+
103.0543	1	C8H7+
105.0699	65	C8H9+
107.049	4	C7H7O+
107.0855	49	C8H11+
109.0648	21	C7H9O+
109.1011	4	C8H13+
111.0441	33	C6H7O2+
111.0804	5	C7H11O+
115.0543	2	C9H7+
116.062	1	C9H8+
117.0699	25	C9H9+
119.0855	47	C9H11+
121.0648	23	C8H9O+
121.1012	11	C9H13+
123.0804	36	C8H11O+
125.0597	5	C7H9O2+
128.062	5	C10H8+
129.0698	22	C10H9+
130.0777	1	C10H10+
131.0855	69	C10H11+
133.0647	5	C9H9O+
133.1012	24	C10H13+
135.0804	34	C9H11O+
135.1167	5	C10H15+
136.0883	2	C9H12O+
137.0595	2	C8H9O2+
137.096	5	C9H13O+
141.0698	9	C11H9+
142.0777	7	C11H10+
143.0855	56	C11H11+
144.0933	3	C11H12+
145.0647	4	C10H9O+
145.1011	38	C11H13+
147.0804	30	C10H11O+
147.1168	8	C11H15+
149.0961	37	C10H13O+
151.0753	5	C9H11O2+
151.1117	1	C10H15O+
153.0698	3	C12H9+
153.091	12	C9H13O2+
154.0776	2	C12H10+
155.0855	22	C12H11+
156.0934	6	C12H12+
157.1012	43	C12H13+
158.1088	1	C12H14+
159.0804	32	C11H11O+
159.1168	37	C12H15+
160.0882	2	C11H12O+
161.0961	13	C11H13O+
161.1323	3	C12H17+
163.0753	2	C10H11O2+
163.1118	3	C11H15O+
165.0697	4	C13H9+
165.091	6	C10H13O2+
167.0856	5	C13H11+
167.1067	2	C10H15O2+
168.0935	3	C13H12+
169.1011	29	C13H13+
170.1088	1	C13H14+
171.0805	4	C12H11O+
171.1168	56	C13H15+
173.0961	16	C12H13O+
173.1324	11	C13H17+
175.1117	7	C12H15O+
177.091	25	C11H13O2+
177.1272	4	C12H17O+
179.0855	5	C14H11+
179.1065	2	C11H15O2+
180.0931	3	C14H12+
181.1011	12	C14H13+
182.1094	4	C14H14+
183.0805	2	C13H11O+
183.1169	25	C14H15+
184.1244	1	C14H16+
185.0961	10	C13H13O+
185.1324	18	C14H17+
187.1117	10	C13H15O+
187.1483	2	C14H19+
189.0906	1	C12H13O2+
189.1273	7	C13H17O+
191.1067	3	C12H15O2+
193.1013	8	C15H13+
194.1092	2	C15H14+
195.1169	22	C15H15+
197.0961	5	C14H13O+
197.1325	37	C15H17+
199.1118	11	C14H15O+
199.1481	5	C15H19+
201.091	1	C13H13O2+
201.1274	12	C14H17O+
203.1069	3	C13H15O2+
203.1431	1	C14H19O+
205.1013	3	C16H13+
205.1222	2	C13H17O2+
206.109	2	C16H14+
207.1168	6	C16H15+
208.1246	1	C16H16+
209.0962	1	C15H13O+
209.1324	12	C16H17+
211.1117	6	C15H15O+
211.148	9	C16H19+
213.1273	10	C15H17O+
215.1064	3	C14H15O2+
215.1429	7	C15H19O+
217.1223	4	C14H17O2+
219.1164	3	C17H15+
219.1381	8	C14H19O2+
220.1249	1	C17H16+
221.1324	13	C17H17+
223.1118	2	C16H15O+
223.148	8	C17H19+
225.1272	5	C16H17O+
225.1639	4	C17H21+
227.143	6	C16H19O+
229.1221	2	C15H17O2+
231.1169	1	C18H15+
231.1379	11	C15H19O2+
233.132	4	C18H17+
235.1483	10	C18H19+
237.1273	5	C17H17O+
237.164	4	C18H21+
239.1431	19	C17H19O+
241.1222	1	C16H17O2+
241.1589	3	C17H21O+
243.1379	2	C16H19O2+
247.1481	4	C19H19+
249.1641	3	C19H21+
251.1429	4	C18H19O+
251.1788	3	C19H23+
253.1589	9	C18H21O+
255.1378	3	C17H19O2+
257.1534	15	C17H21O2+
261.1635	3	C20H21+
263.1432	1	C19H19O+
263.1791	1	C20H23+
265.1585	4	C19H21O+
267.1744	2	C19H23O+
269.1538	2	C18H21O2+
269.1899	1	C19H25O+
271.1695	1	C18H23O2+
275.143	1	C20H19O+
275.1791	2	C21H23+
276.1873	2	C21H24+
279.1384	1	C19H19O2+
279.1745	2	C20H23O+
281.1534	2	C19H21O2+
283.1697	3	C19H23O2+
285.1849	2	C19H25O2+
287.1797	2	C22H23+
289.159	1	C21H21O+
289.195	8	C22H25+
291.1743	1	C21H23O+
293.1531	3	C20H21O2+
295.1693	9	C20H23O2+
303.2104	1	C23H27+
305.1899	2	C22H25O+
307.1694	1	C21H23O2+
307.2055	10	C22H27O+
309.1849	1	C21H25O2+
313.1949	3	C24H25+
321.1851	2	C22H25O2+
321.2209	5	C23H29O+
323.1999	1	C22H27O2+
331.2055	11	C24H27O+
349.2161	33	C24H29O2+
367.2269	999	C24H31O3+
