Mass spectrum: Telmisartan; LC-ESI-QFT; MS2; CE: 35 NCE; R=35000; [M+H]+
Name: Telmisartan
Name: 2-[4-[[4-methyl-6-(1-methylbenzimidazol-2-yl)-2-propylbenzimidazol-1-yl]methyl]phenyl]benzoic acid
Formula: C33H30N4O2
Exact mass: 514.23688
SMILES: CCCC1=Nc2c(C)cc(C3=Nc4ccccc4N3C)cc2N1Cc1ccc(-c2ccccc2C(O)=O)cc1
InChI: InChI=1S/C33H30N4O2/c1-4-9-30-35-31-21(2)18-24(32-34-27-12-7-8-13-28(27)36(32)3)19-29(31)37(30)20-22-14-16-23(17-15-22)25-10-5-6-11-26(25)33(38)39/h5-8,10-19H,4,9,20H2,1-3H3,(H,38,39)
Instrument: Q Exactive Plus Orbitrap Thermo Scientific
Instrument type: LC-ESI-QFT
Ms type: MS2
Ion mode: POSITIVE
Ionization: ESI
Fragmentation mode: HCD
Collision energy: 35  (nominal)
Resolution: 35000
Column name: Kinetex C18 EVO 2.6 um, 2.1x50 mm, precolumn 2.1x5 mm, Phenomenex
Retention time: 10.446 min
Base peak: 515.2444
Precursor m/z: 515.2442
Precursor type: [M+H]+
m/z	relative intensity	assigned
106.0651	1	C7H8N+
133.0284	1	C8H5O2+
152.0623	4	C12H8+
155.0858	4	C12H11+
165.07	8	C13H9+
166.0781	2	C13H10+
167.0857	3	C13H11+
183.0806	5	C13H11O+
193.0651	77	C14H9O+
211.0755	79	C14H11O2+
260.1063	1	C16H12N4+
261.1135	18	C16H13N4+
262.1217	8	C16H14N4+
274.1216	4	C17H14N4+
275.1293	26	C17H15N4+
276.1373	622	C17H16N4+
287.1292	3	C18H15N4+
288.137	6	C18H16N4+
289.1451	123	C18H17N4+
302.1527	5	C19H18N4+
303.1608	64	C19H19N4+
305.1764	58	C19H21N4+
317.1765	23	C20H21N4+
453.1714	3	C30H21N4O+
455.1868	6	C30H23N4O+
467.1872	27	C31H23N4O+
471.1834	1	C30H23N4O2+
485.1975	9	C31H25N4O2+
497.2342	232	C33H29N4O+
515.2449	999	C33H31N4O2+
