Mass spectrum: Desloratadine; LC-ESI-QFT; MS2; CE: 35 NCE; R=35000; [M+H]+
Name: Desloratadine
Name: 8-chloro-11-piperidin-4-ylidene-5,6-dihydrobenzo[1,2]cyclohepta[2,4-b]pyridine
Formula: C19H19ClN2
Exact mass: 310.12368
SMILES: Clc1ccc2c(CCc3cccnc3C2=C2CCNCC2)c1
InChI: InChI=1S/C19H19ClN2/c20-16-5-6-17-15(12-16)4-3-14-2-1-9-22-19(14)18(17)13-7-10-21-11-8-13/h1-2,5-6,9,12,21H,3-4,7-8,10-11H2
Instrument: Q Exactive Plus Orbitrap Thermo Scientific
Instrument type: LC-ESI-QFT
Ms type: MS2
Ion mode: POSITIVE
Ionization: ESI
Fragmentation mode: HCD
Collision energy: 35  (nominal)
Resolution: 35000
Column name: Kinetex C18 EVO 2.6 um, 2.1x50 mm, precolumn 2.1x5 mm, Phenomenex
Retention time: 6.202 min
Base peak: 311.1307
Precursor m/z: 311.131
Precursor type: [M+H]+
m/z	relative intensity	assigned
80.0494	2	C5H6N+
82.0651	4	C5H8N+
93.0572	2	C6H7N+
214.0415	2	C13H9ClN+
218.0966	2	C16H12N+
219.1039	1	C16H13N+
228.0573	6	C14H11ClN+
229.0652	3	C14H12ClN+
230.0732	2	C14H13ClN+
230.096	3	C17H12N+
231.1042	12	C17H13N+
232.112	4	C17H14N+
233.1197	3	C17H15N+
243.1042	19	C18H13N+
244.1121	18	C18H14N+
245.12	2	C18H15N+
246.1277	6	C18H16N+
247.1355	12	C18H17N+
252.0572	5	C16H11ClN+
253.0652	19	C16H12ClN+
256.1127	2	C19H14N+
257.1199	5	C19H15N+
258.1278	183	C19H16N+
259.1355	999	C19H17N+
264.0578	1	C17H11ClN+
266.073	18	C17H13ClN+
267.0809	74	C17H14ClN+
268.0886	5	C17H15ClN+
277.0652	1	C18H12ClN+
278.0734	10	C18H13ClN+
279.0809	93	C18H14ClN+
280.0888	33	C18H15ClN+
281.0966	15	C18H16ClN+
282.1044	200	C18H17ClN+
292.0887	33	C19H15ClN+
293.0965	4	C19H16ClN+
294.1043	310	C19H17ClN+
309.1151	5	C19H18ClN2+
311.1309	959	C19H20ClN2+
