Mass spectrum: Sulfadimethoxine; LC-ESI-QFT; MS2; CE: 35 NCE; R=35000; [M-H]-
Name: Sulfadimethoxine
Name: 4-amino-N-(2,6-dimethoxypyrimidin-4-yl)benzenesulfonamide
Formula: C12H14N4O4S
Exact mass: 310.07358
SMILES: COC1=CC(NS(=O)(=O)C2=CC=C(N)C=C2)=NC(OC)=N1
InChI: InChI=1S/C12H14N4O4S/c1-19-11-7-10(14-12(15-11)20-2)16-21(17,18)9-5-3-8(13)4-6-9/h3-7H,13H2,1-2H3,(H,14,15,16)
Instrument: Q Exactive Plus Orbitrap Thermo Scientific
Instrument type: LC-ESI-QFT
Ms type: MS2
Ion mode: NEGATIVE
Ionization: ESI
Fragmentation mode: HCD
Collision energy: 35  (nominal)
Resolution: 35000
Column name: Kinetex C18 EVO 2.6 um, 2.1x50 mm, precolumn 2.1x5 mm, Phenomenex
Retention time: 7.996 min
Base peak: 355.1122
Precursor m/z: 309.0663
Precursor type: [M-H]-
m/z	relative intensity	assigned
67.0554	26	C5H7-
154.0621	35	C6H8N3O2-
185.0132	30	C5H5N4O2S-
202.0255	25	C9H4N3O3-
213.079	35	C11H9N4O-
309.0664	999	C12H13N4O4S-
