Mass spectrum: Desethylterbutylazine; LC-ESI-QFT; MS2; CE: 35 NCE; R=35000; [M+H]+
Name: Desethylterbutylazine
Name: Terbuthylazin-desethyl
Name: 2-N-tert-butyl-6-chloro-1,3,5-triazine-2,4-diamine
Formula: C7H12ClN5
Exact mass: 201.07812
SMILES: CC(C)(C)Nc1nc(N)nc(Cl)n1
InChI: InChI=1S/C7H12ClN5/c1-7(2,3)13-6-11-4(8)10-5(9)12-6/h1-3H3,(H3,9,10,11,12,13)
Instrument: Q Exactive Plus Orbitrap Thermo Scientific
Instrument type: LC-ESI-QFT
Ms type: MS2
Ion mode: POSITIVE
Ionization: ESI
Fragmentation mode: HCD
Collision energy: 35  (nominal)
Resolution: 35000
Column name: Kinetex C18 EVO 2.6 um, 2.1x50 mm, precolumn 2.1x5 mm, Phenomenex
Retention time: 9.275 min
Base peak: 202.0851
Precursor m/z: 202.0854
Precursor type: [M+H]+
m/z	relative intensity	assigned
57.0701	12	C4H9+
61.9795	1	CHClN+
68.0244	14	C2H2N3+
79.0058	38	CH4ClN2+
86.0349	3	C2H4N3O+
96.0556	1	C4H6N3+
104.001	34	C2H3ClN3+
110.0461	30	C3H4N5+
124.087	3	C6H10N3+
128.0567	5	C3H6N5O+
132.0322	2	C4H7ClN3+
146.0228	999	C3H5ClN5+
202.0854	323	C7H13ClN5+
