Mass spectrum: Cotinine; LC-ESI-QFT; MS2; CE: 35 NCE; R=35000; [M+H]+
Name: Cotinine
Name: S-(-)-Cotinine
Name: 1-methyl-5-pyridin-3-ylpyrrolidin-2-one
Formula: C10H12N2O
Exact mass: 176.09496
SMILES: CN1C(CCC1=O)c1cccnc1
InChI: InChI=1S/C10H12N2O/c1-12-9(4-5-10(12)13)8-3-2-6-11-7-8/h2-3,6-7,9H,4-5H2,1H3
Instrument: Q Exactive Plus Orbitrap Thermo Scientific
Instrument type: LC-ESI-QFT
Ms type: MS2
Ion mode: POSITIVE
Ionization: ESI
Fragmentation mode: HCD
Collision energy: 35  (nominal)
Resolution: 35000
Column name: Kinetex C18 EVO 2.6 um, 2.1x50 mm, precolumn 2.1x5 mm, Phenomenex
Retention time: 0.450 min
Base peak: 189.1595
Precursor m/z: 177.1022
Precursor type: [M+H]+
m/z	relative intensity	assigned
70.0652	4	C4H8N+
80.0495	247	C5H6N+
98.06	97	C5H8NO+
106.065	1	C7H8N+
118.0651	8	C8H8N+
120.0808	5	C8H10N+
146.06	28	C9H8NO+
148.0755	1	C9H10NO+
149.0709	5	C8H9N2O+
159.0918	2	C10H11N2+
177.1022	999	C10H13N2O+
