Mass spectrum: Dinoseb; LC-ESI-QFT; MS2; CE: 35 NCE; R=35000; [M-H]-
Name: Dinoseb
Name: 2-Butan-2-yl-4,6-dinitrophenol
Formula: C10H12N2O5
Exact mass: 240.07462
SMILES: CCC(C)c1cc(cc(c1O)N(=O)=O)N(=O)=O
InChI: InChI=1S/C10H12N2O5/c1-3-6(2)8-4-7(11(14)15)5-9(10(8)13)12(16)17/h4-6,13H,3H2,1-2H3
Instrument: Q Exactive Plus Orbitrap Thermo Scientific
Instrument type: LC-ESI-QFT
Ms type: MS2
Ion mode: NEGATIVE
Ionization: ESI
Fragmentation mode: HCD
Collision energy: 35  (nominal)
Resolution: 35000
Column name: Kinetex C18 EVO 2.6 um, 2.1x50 mm, precolumn 2.1x5 mm, Phenomenex
Retention time: 12.334 min
Base peak: 239.0673
Precursor m/z: 239.0673
Precursor type: [M-H]-
m/z	relative intensity	assigned
51.9954	4	C3O-
136.0401	5	C7H6NO2-
176.0351	10	C9H6NO3-
177.0426	6	C9H7NO3-
178.0509	4	C9H8NO3-
179.0711	16	C10H11O3-
180.0306	5	C8H6NO4-
192.0669	58	C10H10NO3-
193.0255	127	C8H5N2O4-
194.0459	145	C9H8NO4-
207.0412	18	C9H7N2O4-
208.0615	5	C10H10NO4-
209.0208	5	C8H5N2O5-
209.0697	9	C10H11NO4-
210.0285	6	C8H6N2O5-
221.0564	7	C10H9N2O4-
222.0646	9	C10H10N2O4-
239.0674	999	C10H11N2O5-
