Mass spectrum: 3-Acetylphenanthrene; LC-ESI-QFT; MS2; CE: 35 NCE; R=35000; [M+H]+
Name: 3-Acetylphenanthrene
Name: 1-phenanthren-3-ylethanone
Formula: C16H12O
Exact mass: 220.08882
SMILES: CC(=O)C1=CC=C2C=CC3=CC=CC=C3C2=C1
InChI: InChI=1S/C16H12O/c1-11(17)14-9-8-13-7-6-12-4-2-3-5-15(12)16(13)10-14/h2-10H,1H3
Instrument: Q Exactive Plus Orbitrap Thermo Scientific
Instrument type: LC-ESI-QFT
Ms type: MS2
Ion mode: POSITIVE
Ionization: ESI
Fragmentation mode: HCD
Collision energy: 35  (nominal)
Resolution: 35000
Column name: Kinetex C18 EVO 2.6 um, 2.1x50 mm, precolumn 2.1x5 mm, Phenomenex
Retention time: 12.265 min
Base peak: 164.9843
Precursor m/z: 221.0961
Precursor type: [M+H]+
m/z	relative intensity	assigned
88.0757	1	C4H10NO+
178.078	2	C14H10+
179.0855	79	C14H11+
221.0961	999	C16H13O+
