Mass spectrum: 3-Bromo-N,N-dimethylaniline; LC-ESI-QFT; MS2; CE: 35 NCE; R=35000; [M+H]+
Name: 3-Bromo-N,N-dimethylaniline
Formula: C8H10BrN
Exact mass: 198.99966
SMILES: CN(C)C1=CC(Br)=CC=C1
InChI: InChI=1S/C8H10BrN/c1-10(2)8-5-3-4-7(9)6-8/h3-6H,1-2H3
Instrument: Q Exactive Plus Orbitrap Thermo Scientific
Instrument type: LC-ESI-QFT
Ms type: MS2
Ion mode: POSITIVE
Ionization: ESI
Fragmentation mode: HCD
Collision energy: 35  (nominal)
Resolution: 35000
Column name: Kinetex C18 EVO 2.6 um, 2.1x50 mm, precolumn 2.1x5 mm, Phenomenex
Retention time: 10.583 min
Base peak: 198.1022
Precursor m/z: 200.0069
Precursor type: [M+H]+
m/z	relative intensity	assigned
53.0387	4	C4H5+
77.0385	4	C6H5+
81.0335	1	C5H5O+
95.0491	19	C6H7O+
105.0447	7	C6H5N2+
106.065	6	C7H8N+
120.0807	3	C8H10N+
121.0885	35	C8H11N+
183.9756	49	C7H7BrN+
184.9834	548	C7H8BrN+
200.0068	999	C8H11BrN+
