Mass spectrum: Ethyl-4-dimethylaminobenzoate; LC-ESI-QFT; MS2; CE: 35 NCE; R=35000; [M+H]+
Name: Ethyl-4-dimethylaminobenzoate
Name: Ethyl 4-dimethylaminobenzoate
Name: Ethyl 4-(dimethylamino)benzoate
Formula: C11H15NO2
Exact mass: 193.11028
SMILES: CCOC(=O)C1=CC=C(C=C1)N(C)C
InChI: InChI=1S/C11H15NO2/c1-4-14-11(13)9-5-7-10(8-6-9)12(2)3/h5-8H,4H2,1-3H3
Instrument: Q Exactive Plus Orbitrap Thermo Scientific
Instrument type: LC-ESI-QFT
Ms type: MS2
Ion mode: POSITIVE
Ionization: ESI
Fragmentation mode: HCD
Collision energy: 35  (nominal)
Resolution: 35000
Column name: Kinetex C18 EVO 2.6 um, 2.1x50 mm, precolumn 2.1x5 mm, Phenomenex
Retention time: 11.279 min
Base peak: 194.1172
Precursor m/z: 194.1176
Precursor type: [M+H]+
m/z	relative intensity	assigned
107.073	16	C7H9N+
121.0886	10	C8H11N+
122.0964	8	C8H12N+
134.06	73	C8H8NO+
135.0678	4	C8H9NO+
148.0757	2	C9H10NO+
150.0549	7	C8H8NO2+
151.0628	280	C8H9NO2+
164.0705	6	C9H10NO2+
166.0863	418	C9H12NO2+
178.0859	4	C10H12NO2+
179.0941	259	C10H13NO2+
194.1175	999	C11H16NO2+
