Mass spectrum: Thiazole; LC-ESI-QFT; MS2; CE: 35 NCE; R=35000; [M+H]+
Name: Thiazole
Name: 1,3-thiazole
Formula: C3H3NS
Exact mass: 84.99862
SMILES: S1C=CN=C1
InChI: InChI=1S/C3H3NS/c1-2-5-3-4-1/h1-3H
Instrument: Q Exactive Plus Orbitrap Thermo Scientific
Instrument type: LC-ESI-QFT
Ms type: MS2
Ion mode: POSITIVE
Ionization: ESI
Fragmentation mode: HCD
Collision energy: 35  (nominal)
Resolution: 35000
Column name: Kinetex C18 EVO 2.6 um, 2.1x50 mm, precolumn 2.1x5 mm, Phenomenex
Retention time: 0.896 min
Base peak: 117.0908
Precursor m/z: 86.0059
Precursor type: [M+H]+
m/z	relative intensity	assigned
57.9873	1	C2H2S+
58.9951	26	C2H3S+
86.0059	999	C3H4NS+
