Mass spectrum: 4-Aminoazobenzene; LC-ESI-QFT; MS2; CE: 35 NCE; R=35000; [M+H]+
Name: 4-Aminoazobenzene
Name: 4-phenyldiazenylaniline
Formula: C12H11N3
Exact mass: 197.09530
SMILES: C1=CC=C(C=C1)N=NC2=CC=C(C=C2)N
InChI: InChI=1S/C12H11N3/c13-10-6-8-12(9-7-10)15-14-11-4-2-1-3-5-11/h1-9H,13H2
Instrument: Q Exactive Plus Orbitrap Thermo Scientific
Instrument type: LC-ESI-QFT
Ms type: MS2
Ion mode: POSITIVE
Ionization: ESI
Fragmentation mode: HCD
Collision energy: 35  (nominal)
Resolution: 35000
Column name: Kinetex C18 EVO 2.6 um, 2.1x50 mm, precolumn 2.1x5 mm, Phenomenex
Retention time: 10.583 min
Base peak: 198.1022
Precursor m/z: 198.1026
Precursor type: [M+H]+
m/z	relative intensity	assigned
50.0153	9	C4H2+
51.0231	9	C4H3+
53.0388	29	C4H5+
55.018	3	C3H3O+
65.0386	2	C5H5+
77.0386	205	C6H5+
79.0542	3	C6H7+
81.0335	29	C5H5O+
81.0699	4	C6H9+
91.0541	1	C7H7+
92.0494	9	C6H6N+
93.0573	20	C6H7N+
94.0413	36	C6H6O+
95.0491	528	C6H7O+
105.0447	223	C6H5N2+
106.0416	1	C7H6O+
106.0524	3	C6H6N2+
107.0491	1	C7H7O+
109.0648	8	C7H9O+
110.0601	1	C6H8NO+
128.062	1	C10H8+
152.062	3	C12H8+
153.0699	4	C12H9+
169.0886	2	C12H11N+
170.0961	1	C12H12N+
181.0756	1	C12H9N2+
196.0868	1	C12H10N3+
198.1025	999	C12H12N3+
