Mass spectrum: Temazepam; LC-ESI-QFT; MS2; CE: 35 NCE; R=35000; [M+H]+
Name: Temazepam
Name: 7-chloro-3-hydroxy-1-methyl-5-phenyl-3H-1,4-benzodiazepin-2-one
Formula: C16H13ClN2O2
Exact mass: 300.06656
SMILES: CN1c2ccc(Cl)cc2C(=NC(O)C1=O)c1ccccc1
InChI: InChI=1S/C16H13ClN2O2/c1-19-13-8-7-11(17)9-12(13)14(18-15(20)16(19)21)10-5-3-2-4-6-10/h2-9,15,20H,1H3
Instrument: Q Exactive Plus Orbitrap Thermo Scientific
Instrument type: LC-ESI-QFT
Ms type: MS2
Ion mode: POSITIVE
Ionization: ESI
Fragmentation mode: HCD
Collision energy: 35  (nominal)
Resolution: 35000
Column name: Kinetex C18 EVO 2.6 um, 2.1x50 mm, precolumn 2.1x5 mm, Phenomenex
Retention time: 10.581 min
Base peak: 301.0736
Precursor m/z: 301.0738
Precursor type: [M+H]+
m/z	relative intensity	assigned
58.0289	1	C2H4NO+
95.0491	1	C6H7O+
104.0494	6	C7H6N+
117.0574	4	C8H7N+
125.0152	5	C7H6Cl+
138.0105	2	C7H5ClN+
150.0106	1	C8H5ClN+
152.0261	5	C8H7ClN+
165.0698	1	C13H9+
166.0057	1	C8H5ClNO+
170.0366	1	C8H9ClNO+
177.0214	20	C9H6ClN2+
180.021	24	C9H7ClNO+
181.0883	1	C13H11N+
193.0886	45	C14H11N+
205.0758	2	C14H9N2+
216.0575	13	C13H11ClN+
219.0916	1	C15H11N2+
221.0834	1	C15H11NO+
228.0573	34	C14H11ClN+
239.0369	5	C14H8ClN2+
245.0842	4	C14H14ClN2+
255.0683	999	C15H12ClN2+
257.0472	3	C14H10ClN2O+
271.0632	1	C15H12ClN2O+
273.079	1	C15H14ClN2O+
283.0633	211	C16H12ClN2O+
301.0739	412	C16H14ClN2O2+
