Mass spectrum: 2,4,6-Tribromphenol; LC-ESI-QFT; MS2; CE: 35 NCE; R=35000; [M-H]-
Name: 2,4,6-Tribromphenol
Formula: C6H3Br3O
Exact mass: 327.77340
SMILES: OC1=C(Br)C=C(Br)C=C1Br
InChI: InChI=1S/C6H3Br3O/c7-3-1-4(8)6(10)5(9)2-3/h1-2,10H
Instrument: Q Exactive Plus Orbitrap Thermo Scientific
Instrument type: LC-ESI-QFT
Ms type: MS2
Ion mode: NEGATIVE
Ionization: ESI
Fragmentation mode: HCD
Collision energy: 35  (nominal)
Resolution: 35000
Column name: Kinetex C18 EVO 2.6 um, 2.1x50 mm, precolumn 2.1x5 mm, Phenomenex
Retention time: 11.937 min
Base peak: 328.7642
Precursor m/z: 326.7661
Precursor type: [M-H]-
m/z	relative intensity	assigned
266.7534	4	Br3NO-
326.7662	999	C6H2Br3O-
