Mass spectrum: Simetryn; LC-ESI-QFT; MS2; CE: 35 NCE; R=35000; [M+H]+
Name: Simetryn
Name: 2-N,4-N-diethyl-6-methylsulfanyl-1,3,5-triazine-2,4-diamine
Formula: C8H15N5S
Exact mass: 213.10482
SMILES: CCNc1nc(NCC)nc(SC)n1
InChI: InChI=1S/C8H15N5S/c1-4-9-6-11-7(10-5-2)13-8(12-6)14-3/h4-5H2,1-3H3,(H2,9,10,11,12,13)
Instrument: Q Exactive Plus Orbitrap Thermo Scientific
Instrument type: LC-ESI-QFT
Ms type: MS2
Ion mode: POSITIVE
Ionization: ESI
Fragmentation mode: HCD
Collision energy: 35  (nominal)
Resolution: 35000
Column name: Kinetex C18 EVO 2.6 um, 2.1x50 mm, precolumn 2.1x5 mm, Phenomenex
Retention time: 7.572 min
Base peak: 214.1118
Precursor m/z: 214.1121
Precursor type: [M+H]+
m/z	relative intensity	assigned
68.0244	30	C2H2N3+
71.0604	61	C3H7N2+
74.0059	6	C2H4NS+
91.0324	3	C2H7N2S+
96.0556	97	C4H6N3+
102.0372	7	C4H8NS+
113.0823	2	C4H9N4+
116.0277	26	C3H6N3S+
119.0637	1	C4H11N2S+
124.0869	195	C6H10N3+
138.0774	3	C5H8N5+
141.1133	1	C6H13N4+
144.0589	79	C5H10N3S+
158.0492	1	C4H8N5S+
166.1087	38	C7H12N5+
186.0808	25	C6H12N5S+
199.0883	2	C7H13N5S+
214.112	999	C8H16N5S+
