Mass spectrum: 4-Methoxy-1-Naphthaldehyde; LC-ESI-QFT; MS2; CE: 35 NCE; R=35000; [M+H]+
Name: 4-Methoxy-1-Naphthaldehyde
Name: 4-methoxynaphthalene-1-carbaldehyde
Formula: C12H10O2
Exact mass: 186.06808
SMILES: COC1=CC=C(C=O)C2=CC=CC=C12
InChI: InChI=1S/C12H10O2/c1-14-12-7-6-9(8-13)10-4-2-3-5-11(10)12/h2-8H,1H3
Instrument: Q Exactive Plus Orbitrap Thermo Scientific
Instrument type: LC-ESI-QFT
Ms type: MS2
Ion mode: POSITIVE
Ionization: ESI
Fragmentation mode: HCD
Collision energy: 35  (nominal)
Resolution: 35000
Column name: Kinetex C18 EVO 2.6 um, 2.1x50 mm, precolumn 2.1x5 mm, Phenomenex
Retention time: 10.987 min
Base peak: 187.0751
Precursor m/z: 187.0754
Precursor type: [M+H]+
m/z	relative intensity	assigned
91.0542	1	C7H7+
103.0542	11	C8H7+
115.054	8	C9H7+
116.062	12	C9H8+
127.054	8	C10H7+
128.062	10	C10H8+
129.0698	8	C10H9+
131.0855	6	C10H11+
141.07	3	C11H9+
143.049	5	C10H7O+
144.0569	787	C10H8O+
145.0647	30	C10H9O+
155.0603	30	C10H7N2+
158.0726	11	C11H10O+
159.0804	533	C11H11O+
172.0516	2	C11H8O2+
187.0753	999	C12H11O2+
