Mass spectrum: Procymidone; LC-ESI-QFT; MS2; CE: 35 NCE; R=35000; [M-H]-
Name: Procymidone
Name: 3-(3,5-dichlorophenyl)-1,5-dimethyl-3-azabicyclo[3.1.0]hexane-2,4-dione
Formula: C13H11Cl2NO2
Exact mass: 283.01668
SMILES: CC12CC1(C)C(=O)N(C2=O)c1cc(Cl)cc(Cl)c1
InChI: InChI=1S/C13H11Cl2NO2/c1-12-6-13(12,2)11(18)16(10(12)17)9-4-7(14)3-8(15)5-9/h3-5H,6H2,1-2H3
Instrument: Q Exactive Plus Orbitrap Thermo Scientific
Instrument type: LC-ESI-QFT
Ms type: MS2
Ion mode: NEGATIVE
Ionization: ESI
Fragmentation mode: HCD
Collision energy: 35  (nominal)
Resolution: 35000
Column name: Kinetex C18 EVO 2.6 um, 2.1x50 mm, precolumn 2.1x5 mm, Phenomenex
Retention time: 11.605 min
Base peak: 193.0999
Precursor m/z: 282.0094
Precursor type: [M-H]-
m/z	relative intensity	assigned
95.0486	17	C4H5N3-
159.9725	99	C6H4Cl2N-
160.9564	21	C6H3Cl2O-
212.9752	57	C9H5Cl2NO-
239.0042	21	C12H9Cl2O-
254.0148	123	C12H10Cl2NO-
266.9856	16	C12H7Cl2NO2-
282.0093	999	C13H10Cl2NO2-
