Mass spectrum: Bromochlorophen; LC-ESI-QFT; MS2; CE: 35 NCE; R=35000; [M-H]-
Name: Bromochlorophen
Formula: C13H8Br2Cl2O2
Exact mass: 423.82681
SMILES: Oc1c(Br)cc(Cl)cc1Cc1cc(Cl)cc(Br)c1O
InChI: InChI=1S/C13H8Br2Cl2O2/c14-10-4-8(16)2-6(12(10)18)1-7-3-9(17)5-11(15)13(7)19/h2-5,18-19H,1H2
Instrument: Q Exactive Plus Orbitrap Thermo Scientific
Instrument type: LC-ESI-QFT
Ms type: MS2
Ion mode: NEGATIVE
Ionization: ESI
Fragmentation mode: HCD
Collision energy: 35  (nominal)
Resolution: 35000
Column name: Kinetex C18 EVO 2.6 um, 2.1x50 mm, precolumn 2.1x5 mm, Phenomenex
Retention time: 13.748 min
Base peak: 424.8172
Precursor m/z: 422.8195
Precursor type: [M-H]-
m/z	relative intensity	assigned
124.9794	4	C6H2ClO-
204.9061	999	C6H3BrClO-
342.8932	32	C13H6BrCl2O2-
386.8432	2	C13H6Br2ClO2-
422.8197	681	C13H7Br2Cl2O2-
