Mass spectrum: Fluoxastrobin; LC-ESI-QFT; MS2; CE: 35 NCE; R=35000; [M+H]+
Name: Fluoxastrobin
Name: (E)-1-[2-[6-(2-chlorophenoxy)-5-fluoropyrimidin-4-yl]oxyphenyl]-1-(5,6-dihydro-1,4,2-dioxazin-3-yl)-N-methoxymethanimine
Formula: C21H16ClFN4O5
Exact mass: 458.07933
SMILES: CO\N=C(\C1=NOCCO1)C1=C(OC2=C(F)C(OC3=C(Cl)C=CC=C3)=NC=N2)C=CC=C1
InChI: InChI=1S/C21H16ClFN4O5/c1-28-26-18(21-27-30-11-10-29-21)13-6-2-4-8-15(13)31-19-17(23)20(25-12-24-19)32-16-9-5-3-7-14(16)22/h2-9,12H,10-11H2,1H3/b26-18+
Instrument: Q Exactive Plus Orbitrap Thermo Scientific
Instrument type: LC-ESI-QFT
Ms type: MS2
Ion mode: POSITIVE
Ionization: ESI
Fragmentation mode: HCD
Collision energy: 35  (nominal)
Resolution: 35000
Column name: Kinetex C18 EVO 2.6 um, 2.1x50 mm, precolumn 2.1x5 mm, Phenomenex
Retention time: 11.998 min
Base peak: 330.0801
Precursor m/z: 459.0866
Precursor type: [M+H]+
m/z	relative intensity	assigned
63.0231	2	C5H3+
65.0387	33	C5H5+
69.9925	6	C2NO2+
73.0196	2	C2H2FN2+
73.0285	5	C3H5O2+
75.0229	8	C6H3+
77.0386	8	C6H5+
78.0338	13	C5H4N+
79.0418	2	C5H5N+
79.0542	1	C6H7+
80.0495	2	C5H6N+
81.0336	2	C5H5O+
86.0238	6	C3H4NO2+
86.9877	2	C3FO2+
86.9997	7	C4H4Cl+
90.0338	62	C6H4N+
91.019	1	C3H4FO2+
91.0418	1	C6H5N+
91.0542	11	C7H7+
92.0256	2	C6H4O+
92.0496	7	C6H6N+
93.0335	23	C6H5O+
94.0413	2	C6H6O+
95.0492	18	C6H7O+
96.0443	1	C5H6NO+
97.0035	1	ClH4N3O+
98.9996	10	C5H4Cl+
102.0337	8	C2H3FN4+
104.0141	1	C3H3FNO2+
104.0495	24	C7H6N+
105.0336	7	C7H5O+
105.0448	11	C6H5N2+
106.0288	24	C6H4NO+
106.0526	2	C6H6N2+
106.0653	1	C7H8N+
107.0292	1	C7H4F+
107.0494	2	C4H10ClN+
108.0445	4	C6H6NO+
110.9998	6	C6H4Cl+
111.0441	17	C6H7O2+
112.0076	2	C6H5Cl+
113.0398	1	C6H6FO+
115.0419	1	C8H5N+
116.037	2	C7H4N2+
117.0448	2	C7H5N2+
117.0575	5	C8H7N+
118.0289	2	C7H4NO+
118.0525	1	C7H6N2+
119.0366	14	C7H5NO+
120.0444	93	C7H6NO+
121.0396	2	C6H5N2O+
122.0401	18	C7H5FN+
123.0354	2	C6H4FN2+
125.0155	1	C7H6Cl+
125.0598	2	C7H9O2+
126.0107	2	C6H5ClN+
128.0024	8	C6H5ClO+
129.01	38	CH5ClFN3O+
129.0448	33	C8H5N2+
130.029	31	C8H4NO+
130.04	45	C7H4N3+
130.0524	2	C8H6N2+
131.0605	2	C8H7N2+
132.0244	1	C8H3FN+
132.0291	1	C4H6NO4+
132.0444	18	C8H6NO+
132.0556	4	C7H6N3+
133.0324	5	C8H4FN+
133.0397	6	C7H5N2O+
133.0521	1	C8H7NO+
134.0239	2	C7H4NO2+
134.0401	7	C8H5FN+
134.0474	2	C7H6N2O+
134.0601	7	C8H8NO+
136.0395	7	C7H6NO2+
138.0105	203	C7H5ClN+
138.9945	14	C7H4ClO+
139.0057	60	C6H4ClN2+
140.9902	2	C7H3ClF+
141.0102	2	C7H6ClO+
142.0402	5	CH12ClFO4+
143.0059	2	C7H5ClF+
143.0607	1	C9H7N2+
144.0318	12	C8H4N2O+
144.0557	9	C8H6N3+
145.0397	107	C8H5N2O+
146.0239	7	C5H7ClN2O+
147.0354	4	C8H4FN2+
147.0553	4	C8H7N2O+
149.0512	1	C8H6FN2+
150.035	96	C8H5FNO+
151.0057	8	C7H4ClN2+
154.0401	11	C9H4N3+
154.9896	5	C7H4ClO2+
156.0012	2	C7H4ClFN+
157.0398	5	C9H5N2O+
158.0171	1	C7H6ClFN+
159.0355	7	C9H4FN2+
160.0269	8	C8H4N2O2+
160.0432	8	C9H5FN2+
160.0505	6	C8H6N3O+
161.0277	3	C6H7ClFN2+
161.0345	26	C8H5N2O2+
162.035	10	C9H5FNO+
162.0425	13	C8H6N2O2+
162.0551	7	C9H8NO2+
162.9947	1	C9H4ClO+
163.0058	15	C8H4ClN2+
163.0501	14	C8H7N2O2+
164.0342	73	C8H6NO3+
165.0461	2	C8H6FN2O+
166.0056	7	C8H5ClNO+
167.0374	1	C8H6FNO2+
168.0012	30	C8H4ClFN+
168.0456	1	C8H7FNO2+
170.035	21	C9H4N3O+
173.0345	1	C9H5N2O2+
174.0463	5	C14H6+
175.0304	32	C9H4FN2O+
176.0382	26	C9H5FN2O+
177.0227	1	C6H7ClFN2O+
177.046	2	C9H6FN2O+
178.03	72	C9H5FNO2+
179.0008	43	C8H4ClN2O+
180.0454	1	C9H7FNO2+
182.0352	1	C3H12ClFO5+
182.0608	1	C9H11ClN2+
183.0121	6	C8H5ClFN2+
183.9962	22	C8H4ClFNO+
184.0504	1	C10H6N3O+
185.0343	1	C10H5N2O2+
186.0298	1	C9H4N3O2+
186.0464	4	C15H6+
187.0305	5	C7H7ClFN3+
187.0547	1	C15H7+
188.0381	574	C10H5FN2O+
189.0456	8	C10H6FN2O+
190.0412	9	C9H5FN3O+
190.05	12	C10H8NO3+
191.0253	13	C9H4FN2O2+
195.0122	1	C9H5ClFN2+
195.0568	1	C6H11ClFN3O+
196.0502	1	C11H6N3O+
198.0303	2	C7H7ClN4O+
200.0272	1	C9H8ClFNO+
200.0381	1	C11H5FN2O+
201.0328	1	C6H11ClFO4+
202.0417	8	C12H9ClN+
202.0525	1	C14H6N2+
203.0254	5	C7H7ClFN3O+
204.0331	2	C10H5FN2O2+
204.0567	2	C10H7FN3O+
204.0768	10	C10H10N3O2+
205.0409	38	C10H6FN2O2+
205.0609	21	C10H9N2O3+
207.1256	1	C12H17NO2+
211.0069	1	C9H5ClFN2O+
211.9908	9	C9H4ClFNO2+
213.0334	2	C16H5O+
214.0068	20	C9H6ClFNO2+
214.0407	8	C7H12ClFO4+
214.0612	8	C11H8N3O2+
215.0494	4	C8H9ClFN4+
216.0569	5	C16H8O+
217.0406	1	C11H6FN2O2+
218.0362	12	C15H6O2+
220.0279	7	C10H5FN2O3+
220.0521	1	C7H10ClFN4O+
221.0357	5	C10H6FN2O3+
221.0461	1	C5H13ClFNO5+
221.9995	1	C10H4ClFN2O+
223.0071	9	C10H5ClFN2O+
223.0667	1	C14H8FN2+
223.9911	8	C10H4ClFNO2+
225.0585	4	C14H8FNO+
228.0442	7	C11H5FN4O+
228.0556	1	C15H6N3+
229.028	8	C11H4FN3O2+
229.0522	5	C16H7NO+
230.0362	61	C16H6O2+
231.0202	25	C11H4FN2O3+
232.0524	8	C13H11ClNO+
232.0625	1	C6H14ClFN2O4+
239.0369	2	C14H8ClN2+
240.0437	6	C8H12ClFNO4+
241.0182	2	C10H7ClFN2O2+
241.0522	9	C17H7NO+
242.06	10	C17H8NO+
243.0442	4	C17H7O2+
244.0516	9	C12H7FN3O2+
245.0224	1	C11H6ClN4O+
245.0597	1	C17H9O2+
246.031	52	C11H5FN3O3+
247.0515	1	C12H8FN2O3+
248.0617	1	C15H7FN3+
250.0184	2	C16H7ClO+
251.0614	7	C15H8FN2O+
252.0689	5	C15H9FN2O+
255.0317	10	C14H8ClN2O+
256.0391	1	C12H5FN4O2+
257.0469	9	C12H6FN4O2+
260.0584	1	C13H11ClN3O+
261.068	2	C15H14ClO2+
262.0542	2	C13H10ClFN3+
264.0323	2	C15H7ClN3+
266.013	26	C16H7ClO2+
267.0323	5	C15H8ClN2O+
271.0627	1	C18H9NO2+
272.0346	1	C14H9ClN2O2+
274.0624	18	C18H10O3+
277.0647	7	C21H9O+
278.0717	11	C12H16ClFO4+
279.0198	1	C15H4FN2O3+
279.0571	6	C18H12ClO+
280.0646	8	C13H12ClFN3O+
281.0672	1	C14H9N4O3+
286.0613	1	C17H8N3O2+
290.0578	5	C15H13ClNO3+
294.0669	1	C16H11ClN4+
299.0571	2	C14H8FN4O3+
300.0656	2	C19H10NO3+
301.0724	2	C17H9N4O2+
304.0521	6	C14H10ClFN4O+
304.0754	2	C17H9FN4O+
306.0674	138	C17H9FN3O2+
308.0231	5	C13H8ClFN3O3+
312.0341	1	C21H9ClO+
313.0416	4	C21H10ClO+
313.0722	1	C18H9N4O2+
315.0332	40	C16H9ClFN2O2+
318.0673	12	C18H9FN3O2+
320.0225	2	C17H5FN2O4+
321.0549	2	C14H11ClFN4O2+
321.0778	1	C13H17ClFNO5+
327.0453	1	C21H8FO3+
331.0628	12	C18H8FN4O2+
339.0442	5	C17H9ClFN4O+
340.0288	36	C17H8ClFN3O2+
340.0492	2	C17H9FN2O5+
341.0376	1	C19H11ClFO3+
342.0441	19	C17H10ClFN3O2+
343.04	2	C21H8FO4+
347.0327	1	C21H5N3O3+
349.0491	1	C18H8FN3O4+
355.0393	2	C17H9ClFN4O2+
358.039	5	C17H10ClFN3O3+
367.0397	62	C18H9ClFN4O2+
368.0244	1	C20H10ClFO4+
369.0555	2	C18H11ClFN4O2+
383.0344	49	C18H9ClFN4O3+
385.0505	9	C20H13ClFNO4+
391.0835	2	C20H12FN4O4+
397.0507	5	C21H13ClFNO4+
427.0608	999	C20H13ClFN4O4+
428.066	1	C21H9FN6O4+
459.0869	816	C21H17ClFN4O5+
