Mass spectrum: Thiacloprid amide; LC-ESI-QFT; MS2; CE: 35 NCE; R=35000; [M+H]+
Name: Thiacloprid amide
Name: [3-[(6-chloropyridin-3-yl)methyl]-1,3-thiazolidin-2-ylidene]urea
Formula: C10H11ClN4OS
Exact mass: 270.03421
SMILES: NC(=O)N=C1SCCN1CC1=CN=C(Cl)C=C1
InChI: InChI=1S/C10H11ClN4OS/c11-8-2-1-7(5-13-8)6-15-3-4-17-10(15)14-9(12)16/h1-2,5H,3-4,6H2,(H2,12,16)
Instrument: Q Exactive Plus Orbitrap Thermo Scientific
Instrument type: LC-ESI-QFT
Ms type: MS2
Ion mode: POSITIVE
Ionization: ESI
Fragmentation mode: HCD
Collision energy: 35  (nominal)
Resolution: 35000
Column name: Kinetex C18 EVO 2.6 um, 2.1x50 mm, precolumn 2.1x5 mm, Phenomenex
Retention time: 6.190 min
Base peak: 222.0314
Precursor m/z: 271.0415
Precursor type: [M+H]+
m/z	relative intensity	assigned
61.0108	1	C2H5S+
72.9842	1	C3H2Cl+
90.0338	15	C6H4N+
91.0417	1	C6H5N+
98.9995	7	C5H4Cl+
101.0168	13	C3H5N2S+
103.0324	10	C3H7N2S+
126.0105	999	C6H5ClN+
127.0183	1	C6H6ClN+
128.0259	2	C9H4O+
129.0117	5	C4H5N2OS+
132.0556	8	C7H6N3+
143.0372	2	C6H8ClN2+
144.0211	5	C6H7ClNO+
165.0481	3	C8H9N2S+
168.0323	5	C7H7ClN3+
186.0139	39	C8H9ClNS+
192.0589	20	C9H10N3S+
211.0089	3	C9H8ClN2S+
228.0356	331	C9H11ClN3S+
229.0192	1	C9H10ClN2OS+
254.0149	466	C10H9ClN3OS+
271.0414	126	C10H12ClN4OS+
