Mass spectrum: Amitriptyline; LC-ESI-QFT; MS2; CE: 35 NCE; R=35000; [M+H]+
Name: Amitriptyline
Name: 3-(5,6-dihydrodibenzo[2,1-b:2`,1`-f][7]annulen-11-ylidene)-N,N-dimethylpropan-1-amine
Formula: C20H23N
Exact mass: 277.18305
SMILES: CN(C)CCC=C1c2ccccc2CCc2ccccc12
InChI: InChI=1S/C20H23N/c1-21(2)15-7-12-20-18-10-5-3-8-16(18)13-14-17-9-4-6-11-19(17)20/h3-6,8-12H,7,13-15H2,1-2H3
Instrument: Q Exactive Plus Orbitrap Thermo Scientific
Instrument type: LC-ESI-QFT
Ms type: MS2
Ion mode: POSITIVE
Ionization: ESI
Fragmentation mode: HCD
Collision energy: 35  (nominal)
Resolution: 35000
Column name: Kinetex C18 EVO 2.6 um, 2.1x50 mm, precolumn 2.1x5 mm, Phenomenex
Retention time: 8.835 min
Base peak: 278.19
Precursor m/z: 278.1903
Precursor type: [M+H]+
m/z	relative intensity	assigned
58.0653	30	C3H8N+
65.0387	2	C5H5+
70.0652	4	C4H8N+
79.0543	4	C6H7+
84.0808	83	C5H10N+
85.0886	5	C5H11N+
91.0542	310	C7H7+
103.0542	7	C8H7+
105.0699	269	C8H9+
115.0542	11	C9H7+
117.0699	245	C9H9+
129.0699	35	C10H9+
141.0698	12	C11H9+
153.0699	4	C12H9+
154.0778	1	C12H10+
155.0855	77	C12H11+
165.0699	2	C13H9+
178.0777	32	C14H10+
179.0855	36	C14H11+
190.0777	3	C15H10+
191.0855	140	C15H11+
192.0933	11	C15H12+
193.1012	17	C15H13+
203.0855	22	C16H11+
204.0934	28	C16H12+
205.1012	68	C16H13+
207.117	8	C16H15+
216.0937	2	C17H12+
217.1011	5	C17H13+
218.109	76	C17H14+
231.1171	8	C18H15+
233.1325	284	C18H17+
278.1904	999	C20H24N+
