Mass spectrum: 4-Nitroquinoline-1-oxide; LC-ESI-QFT; MS2; CE: 35 NCE; R=35000; [M+H]+
Name: 4-Nitroquinoline-1-oxide
Name: 4-Nitroquinoline N-oxide
Name: 4-nitro-1-oxidoquinolin-1-ium
Formula: C9H6N2O3
Exact mass: 190.03784
SMILES: [O-][N+](=O)c1cc[n+]([O-])c2ccccc12
InChI: InChI=1S/C9H6N2O3/c12-10-6-5-9(11(13)14)7-3-1-2-4-8(7)10/h1-6H
Instrument: Q Exactive Plus Orbitrap Thermo Scientific
Instrument type: LC-ESI-QFT
Ms type: MS2
Ion mode: POSITIVE
Ionization: ESI
Fragmentation mode: HCD
Collision energy: 35  (nominal)
Resolution: 35000
Column name: Kinetex C18 EVO 2.6 um, 2.1x50 mm, precolumn 2.1x5 mm, Phenomenex
Retention time: 6.555 min
Base peak: 191.0449
Precursor m/z: 191.0451
Precursor type: [M+H]+
m/z	relative intensity	assigned
53.0388	3	C4H5+
66.0465	3	C5H6+
77.0386	7	C6H5+
89.0385	4	C7H5+
90.0464	26	C7H6+
91.0417	25	C6H5N+
93.0571	3	C6H7N+
94.0413	1	C6H6O+
95.0492	18	C6H7O+
101.0389	2	C8H5+
104.0495	51	C7H6N+
105.0336	2	C7H5O+
105.0448	5	C6H5N2+
105.0574	7	C7H7N+
109.0524	1	C6H7NO+
116.0495	95	C8H6N+
117.0573	15	C8H7N+
119.0366	1	C7H5NO+
120.0445	2	C7H6NO+
121.0522	1	C7H7NO+
128.0495	138	C9H6N+
132.0444	64	C8H6NO+
133.0522	12	C8H7NO+
134.0238	3	C7H4NO2+
144.0444	45	C9H6NO+
145.0522	509	C9H7NO+
148.0392	2	C8H6NO2+
149.0472	65	C8H7NO2+
160.0393	14	C9H6NO2+
161.0471	393	C9H7NO2+
162.0186	51	C8H4NO3+
176.0343	1	C9H6NO3+
177.0421	164	C9H7NO3+
180.0292	45	C8H6NO4+
191.0451	999	C9H7N2O3+
