Mass spectrum: 5-Aminonaphthalene-2-sulfonic acid; LC-ESI-QFT; MS2; CE: 35 NCE; R=35000; [M-H]-
Name: 5-Aminonaphthalene-2-sulfonic acid
Name: 5-Amino-2-naphthalenesulfonic acid
Formula: C10H9NO3S
Exact mass: 223.03031
SMILES: NC1=C2C=CC(=CC2=CC=C1)S(O)(=O)=O
InChI: InChI=1S/C10H9NO3S/c11-10-3-1-2-7-6-8(15(12,13)14)4-5-9(7)10/h1-6H,11H2,(H,12,13,14)
Instrument: Q Exactive Plus Orbitrap Thermo Scientific
Instrument type: LC-ESI-QFT
Ms type: MS2
Ion mode: NEGATIVE
Ionization: ESI
Fragmentation mode: HCD
Collision energy: 35  (nominal)
Resolution: 35000
Column name: Kinetex C18 EVO 2.6 um, 2.1x50 mm, precolumn 2.1x5 mm, Phenomenex
Retention time: 0.803 min
Base peak: 222.023
Precursor m/z: 222.023
Precursor type: [M-H]-
m/z	relative intensity	assigned
107.0491	1	C5H5N3-
131.0502	1	C9H7O-
157.0533	1	C10H7NO-
158.0611	202	C10H8NO-
222.023	999	C10H8NO3S-
