Mass spectrum: Tetracain; LC-ESI-QFT; MS2; CE: 35 NCE; R=35000; [M+H]+
Name: Tetracain
Name: 2-(dimethylamino)ethyl 4-(butylamino)benzoate
Formula: C15H24N2O2
Exact mass: 264.18378
SMILES: CCCCNc1ccc(cc1)C(=O)OCCN(C)C
InChI: InChI=1S/C15H24N2O2/c1-4-5-10-16-14-8-6-13(7-9-14)15(18)19-12-11-17(2)3/h6-9,16H,4-5,10-12H2,1-3H3
Instrument: Q Exactive Plus Orbitrap Thermo Scientific
Instrument type: LC-ESI-QFT
Ms type: MS2
Ion mode: POSITIVE
Ionization: ESI
Fragmentation mode: HCD
Collision energy: 35  (nominal)
Resolution: 35000
Column name: Kinetex C18 EVO 2.6 um, 2.1x50 mm, precolumn 2.1x5 mm, Phenomenex
Retention time: 7.396 min
Base peak: 265.1907
Precursor m/z: 265.1911
Precursor type: [M+H]+
m/z	relative intensity	assigned
65.0386	1	C5H5+
70.0652	7	C4H8N+
72.0808	269	C4H10N+
92.0494	9	C6H6N+
105.057	2	C7H7N+
106.0651	3	C7H8N+
120.0444	12	C7H6NO+
148.112	3	C10H14N+
176.107	999	C11H14NO+
220.1332	72	C13H18NO2+
265.1911	131	C15H25N2O2+
