Mass spectrum: N-Cyclohexyl-2-benzothiazol-amine; LC-ESI-QFT; MS2; CE: 35 NCE; R=35000; [M+H]+
Name: N-Cyclohexyl-2-benzothiazol-amine
Name: N-cyclohexyl-1,3-benzothiazol-2-amine
Formula: C13H16N2S
Exact mass: 232.10342
SMILES: C1CCC(CC1)NC1=NC2=CC=CC=C2S1
InChI: InChI=1S/C13H16N2S/c1-2-6-10(7-3-1)14-13-15-11-8-4-5-9-12(11)16-13/h4-5,8-10H,1-3,6-7H2,(H,14,15)
Instrument: Q Exactive Plus Orbitrap Thermo Scientific
Instrument type: LC-ESI-QFT
Ms type: MS2
Ion mode: POSITIVE
Ionization: ESI
Fragmentation mode: HCD
Collision energy: 35  (nominal)
Resolution: 35000
Column name: Kinetex C18 EVO 2.6 um, 2.1x50 mm, precolumn 2.1x5 mm, Phenomenex
Retention time: 9.692 min
Base peak: 233.1104
Precursor m/z: 233.1107
Precursor type: [M+H]+
m/z	relative intensity	assigned
55.0544	31	C4H7+
83.0855	45	C6H11+
92.0496	2	C6H6N+
109.0107	3	C6H5S+
124.0216	6	C6H6NS+
151.0325	711	C7H7N2S+
233.1107	999	C13H17N2S+
