Mass spectrum: 4-Androstene-3,17-dione; LC-ESI-QFT; MS2; CE: 35 NCE; R=35000; [M+H]+
Name: 4-Androstene-3,17-dione
Name: 10,13-dimethyl-2,6,7,8,9,11,12,14,15,16-decahydro-1H-cyclopenta[a]phenanthrene-3,17-dione
Formula: C19H26O2
Exact mass: 286.19328
SMILES: CC12CCC3C(CCC4=CC(=O)CCC34C)C1CCC2=O
InChI: InChI=1S/C19H26O2/c1-18-9-7-13(20)11-12(18)3-4-14-15-5-6-17(21)19(15,2)10-8-16(14)18/h11,14-16H,3-10H2,1-2H3
Instrument: Q Exactive Plus Orbitrap Thermo Scientific
Instrument type: LC-ESI-QFT
Ms type: MS2
Ion mode: POSITIVE
Ionization: ESI
Fragmentation mode: HCD
Collision energy: 35  (nominal)
Resolution: 35000
Column name: Kinetex C18 EVO 2.6 um, 2.1x50 mm, precolumn 2.1x5 mm, Phenomenex
Retention time: 11.141 min
Base peak: 287.2002
Precursor m/z: 287.2006
Precursor type: [M+H]+
m/z	relative intensity	assigned
55.0181	1	C3H3O+
67.0543	4	C5H7+
69.0699	5	C5H9+
79.0542	18	C6H7+
81.0699	15	C6H9+
83.0491	21	C5H7O+
91.0542	3	C7H7+
93.0699	6	C7H9+
95.0491	1	C6H7O+
95.0855	6	C7H11+
97.0648	592	C6H9O+
105.0699	7	C8H9+
107.0855	5	C8H11+
109.0648	385	C7H9O+
117.0699	2	C9H9+
119.0855	8	C9H11+
121.0647	1	C8H9O+
121.1011	5	C9H13+
123.0804	32	C8H11O+
131.0855	6	C10H11+
133.1012	8	C10H13+
135.1167	2	C10H15+
137.096	2	C9H13O+
143.0854	3	C11H11+
145.1011	12	C11H13+
147.1167	6	C11H15+
149.0961	1	C10H13O+
155.0854	2	C12H11+
157.1012	4	C12H13+
159.1167	9	C12H15+
161.1323	4	C12H17+
163.1116	1	C11H15O+
169.1012	5	C13H13+
171.1168	5	C13H15+
173.0964	1	C12H13O+
173.1325	16	C13H17+
179.143	1	C12H19O+
183.1167	3	C14H15+
185.1325	10	C14H17+
187.1482	6	C14H19+
195.1169	4	C15H15+
199.1482	3	C15H19+
205.1591	2	C14H21O+
209.1325	4	C16H17+
211.148	15	C16H19+
213.1273	1	C15H17O+
217.1582	3	C15H21O+
225.1637	2	C17H21+
227.1794	3	C17H23+
229.1588	6	C16H21O+
241.1949	1	C18H25+
251.1794	12	C19H23+
269.19	25	C19H25O+
287.2005	999	C19H27O2+
