Mass spectrum: 4-Fluoraniline; LC-ESI-QFT; MS2; CE: 35 NCE; R=35000; [M+H]+
Name: 4-Fluoraniline
Formula: C6H6FN
Exact mass: 111.04843
SMILES: NC1=CC=C(F)C=C1
InChI: InChI=1S/C6H6FN/c7-5-1-3-6(8)4-2-5/h1-4H,8H2
Instrument: Q Exactive Plus Orbitrap Thermo Scientific
Instrument type: LC-ESI-QFT
Ms type: MS2
Ion mode: POSITIVE
Ionization: ESI
Fragmentation mode: HCD
Collision energy: 35  (nominal)
Resolution: 35000
Column name: Kinetex C18 EVO 2.6 um, 2.1x50 mm, precolumn 2.1x5 mm, Phenomenex
Retention time: 0.461 min
Base peak: 112.0555
Precursor m/z: 112.0557
Precursor type: [M+H]+
m/z	relative intensity	assigned
50.0153	1	C4H2+
51.0231	1	C4H3+
65.0386	12	C5H5+
71.0292	3	C4H4F+
75.0228	2	C6H3+
79.0178	1	C5H3O+
85.0448	4	C5H6F+
92.0494	144	C6H6N+
95.029	2	C6H4F+
111.0478	9	C6H6FN+
112.0556	999	C6H7FN+
123.0353	18	C6H4FN2+
