Mass spectrum: Cetirizine; LC-ESI-QFT; MS2; CE: 35 NCE; R=35000; [M+H]+
Name: Cetirizine
Name: 2-[2-[4-[(4-chlorophenyl)-phenylmethyl]piperazin-1-yl]ethoxy]acetic acid
Formula: C21H25ClN2O3
Exact mass: 388.15537
SMILES: OC(=O)COCCN1CCN(CC1)C(c1ccccc1)c1ccc(Cl)cc1
InChI: InChI=1S/C21H25ClN2O3/c22-19-8-6-18(7-9-19)21(17-4-2-1-3-5-17)24-12-10-23(11-13-24)14-15-27-16-20(25)26/h1-9,21H,10-16H2,(H,25,26)
Instrument: Q Exactive Plus Orbitrap Thermo Scientific
Instrument type: LC-ESI-QFT
Ms type: MS2
Ion mode: POSITIVE
Ionization: ESI
Fragmentation mode: HCD
Collision energy: 35  (nominal)
Resolution: 35000
Column name: Kinetex C18 EVO 2.6 um, 2.1x50 mm, precolumn 2.1x5 mm, Phenomenex
Retention time: 10.069 min
Base peak: 389.1622
Precursor m/z: 389.1626
Precursor type: [M+H]+
m/z	relative intensity	assigned
58.0653	1	C3H8N+
70.0652	5	C4H8N+
72.0808	75	C4H10N+
84.0682	2	C4H8N2+
129.0701	2	C10H9+
130.0732	1	C5H10N2O2+
145.0647	1	C10H9O+
165.0698	99	C13H9+
166.0777	295	C13H10+
183.0805	18	C13H11O+
187.1077	13	C8H15N2O3+
193.0761	11	C13H9N2+
199.031	2	C13H8Cl+
201.0465	999	C13H10Cl+
389.1626	174	C21H26ClN2O3+
