Mass spectrum: Triphenylphosphate; LC-ESI-QFT; MS2; CE: 35 NCE; R=35000; [M+H]+
Name: Triphenylphosphate
Name: Triphenyl phosphate
Formula: C18H15O4P
Exact mass: 326.07080
SMILES: O=P(OC1=CC=CC=C1)(OC1=CC=CC=C1)OC1=CC=CC=C1
InChI: InChI=1S/C18H15O4P/c19-23(20-16-10-4-1-5-11-16,21-17-12-6-2-7-13-17)22-18-14-8-3-9-15-18/h1-15H
Instrument: Q Exactive Plus Orbitrap Thermo Scientific
Instrument type: LC-ESI-QFT
Ms type: MS2
Ion mode: POSITIVE
Ionization: ESI
Fragmentation mode: HCD
Collision energy: 35  (nominal)
Resolution: 35000
Column name: Kinetex C18 EVO 2.6 um, 2.1x50 mm, precolumn 2.1x5 mm, Phenomenex
Retention time: 12.755 min
Base peak: 327.0777
Precursor m/z: 327.0781
Precursor type: [M+H]+
m/z	relative intensity	assigned
51.0232	4	H6NP+
53.0388	14	C4H5+
65.0387	1	C5H5+
77.0386	35	C6H5+
81.0335	1	C5H5O+
93.0335	1	C6H5O+
94.0413	6	C6H6O+
95.0492	71	C6H7O+
98.9842	1	H4O4P+
105.0447	20	C6H5N2+
109.0648	1	C7H9O+
121.0284	1	C7H5O2+
138.9943	2	C6H4O2P+
151.0542	3	C12H7+
152.0621	119	C12H8+
153.0699	107	C12H9+
157.0048	2	C6H6O3P+
168.057	32	C12H8O+
169.0648	12	C12H9O+
170.0727	1	C12H10O+
171.0805	14	C12H11O+
175.0155	10	C6H8O4P+
179.0603	4	C12H7N2+
181.0758	1	C12H9N2+
187.0309	5	C11H8OP+
202.0776	3	C16H10+
215.0257	32	C12H8O2P+
216.0338	1	C12H9O2P+
226.0768	1	C18H10+
227.0856	9	C18H11+
228.0934	41	C18H12+
229.1013	20	C18H13+
233.0363	155	C12H10O3P+
244.0881	1	C18H12O+
247.0519	9	C13H12O3P+
251.0468	82	C12H12O4P+
291.0577	1	C18H12O2P+
309.0678	6	C18H14O3P+
327.0782	999	C18H16O4P+
