Mass spectrum: Thiamethoxam; LC-ESI-QFT; MS2; CE: 35 NCE; R=35000; [M+H]+
Name: Thiamethoxam
Name: (NE)-N-[3-[(2-chloro-1,3-thiazol-5-yl)methyl]-5-methyl-1,3,5-oxadiazinan-4-ylidene]nitramide
Formula: C8H10ClN5O3S
Exact mass: 291.01929
SMILES: CN1COCN(CC2=CN=C(Cl)S2)\C1=N\[N+]([O-])=O
InChI: InChI=1S/C8H10ClN5O3S/c1-12-4-17-5-13(8(12)11-14(15)16)3-6-2-10-7(9)18-6/h2H,3-5H2,1H3/b11-8+
Instrument: Q Exactive Plus Orbitrap Thermo Scientific
Instrument type: LC-ESI-QFT
Ms type: MS2
Ion mode: POSITIVE
Ionization: ESI
Fragmentation mode: HCD
Collision energy: 35  (nominal)
Resolution: 35000
Column name: Kinetex C18 EVO 2.6 um, 2.1x50 mm, precolumn 2.1x5 mm, Phenomenex
Retention time: 3.729 min
Base peak: 174.054
Precursor m/z: 292.0266
Precursor type: [M+H]+
m/z	relative intensity	assigned
57.0449	4	C2H5N2+
67.0418	4	C4H5N+
69.0448	101	C3H5N2+
70.0527	1	C3H6N2+
70.9951	23	C3H3S+
72.0683	1	C3H8N2+
81.0448	1	C4H5N2+
87.9949	1	C3H3ClN+
96.0556	1	C4H6N3+
98.0059	3	C4H4NS+
99.0012	28	C3H3N2S+
99.0554	3	C4H7N2O+
100.0632	3	C4H8N2O+
108.0556	18	C5H6N3+
110.0713	1	C5H8N3+
112.0215	7	C5H6NS+
113.0168	7	C4H5N2S+
122.0713	112	C6H8N3+
123.0791	12	C6H9N3+
125.0168	28	C5H5N2S+
126.0246	3	C5H6N2S+
131.9669	744	C4H3ClNS+
138.012	17	C5H4N3S+
139.0324	14	C6H7N2S+
140.0277	1	C5H6N3S+
144.0642	1	C4H8N4O2+
144.9746	2	C5H4ClNS+
145.97	3	C4H3ClN2S+
146.9778	3	C4H4ClN2S+
147.0665	4	C7H7N4+
151.0199	34	C6H5N3S+
152.0277	102	C6H6N3S+
154.0433	7	C6H8N3S+
155.0511	3	C6H9N3S+
160.9934	8	C5H6ClN2S+
165.0232	3	C6H5N4S+
165.0771	3	C7H9N4O+
172.9809	3	C5H4ClN3S+
174.9728	32	C5H4ClN2OS+
179.0386	5	C7H7N4S+
180.0464	90	C7H8N4S+
181.0542	426	C7H9N4S+
185.9887	2	C6H5ClN3S+
186.9968	3	C6H6ClN3S+
199.0649	18	C7H11N4OS+
210.057	170	C8H10N4OS+
211.0648	999	C8H11N4OS+
215.0155	7	C7H8ClN4S+
216.0232	1	C7H9ClN4S+
245.0259	10	C8H10ClN4OS+
246.0338	48	C8H11ClN4OS+
248.0252	10	C8H11ClN3O2S+
262.0166	1	C7H9ClN5O2S+
292.0266	62	C8H11ClN5O3S+
