Mass spectrum: Fenthion; LC-ESI-QFT; MS2; CE: 35 NCE; R=35000; [M+H]+
Name: Fenthion
Name: dimethoxy-(3-methyl-4-methylsulfanylphenoxy)-sulfanylidene-$l^{5}-phosphane
Formula: C10H15O3PS2
Exact mass: 278.02002
SMILES: COP(=S)(OC)Oc1ccc(SC)c(C)c1
InChI: InChI=1S/C10H15O3PS2/c1-8-7-9(5-6-10(8)16-4)13-14(15,11-2)12-3/h5-7H,1-4H3
Instrument: Q Exactive Plus Orbitrap Thermo Scientific
Instrument type: LC-ESI-QFT
Ms type: MS2
Ion mode: POSITIVE
Ionization: ESI
Fragmentation mode: HCD
Collision energy: 35  (nominal)
Resolution: 35000
Column name: Kinetex C18 EVO 2.6 um, 2.1x50 mm, precolumn 2.1x5 mm, Phenomenex
Retention time: 11.290 min
Base peak: 279.0272
Precursor m/z: 279.0273
Precursor type: [M+H]+
m/z	relative intensity	assigned
58.9951	9	C2H3S+
61.0108	4	C2H5S+
62.0187	1	C2H6S+
77.0388	1	C6H5+
78.0466	1	C6H6+
78.9944	8	CH4O2P+
79.0543	3	C6H7+
91.0542	19	C7H7+
92.0621	1	C7H8+
93.01	1	C2H6O2P+
93.0699	8	C7H9+
95.0492	1	C6H7O+
97.0107	26	C5H5S+
103.0542	11	C8H7+
104.062	8	C8H8+
105.0699	2	C8H9+
107.0492	2	C7H7O+
109.0107	4	C6H5S+
109.0648	8	C7H9O+
110.0183	3	C6H6S+
121.0106	1	C7H5S+
122.0184	14	C7H6S+
124.982	11	C2H6O2PS+
125.0419	25	C7H9S+
135.0262	5	C8H7S+
136.0344	2	C8H8S+
137.0419	20	C8H9S+
138.0133	7	C7H6OS+
138.0497	13	C8H10S+
142.9926	64	C2H8O3PS+
149.0233	8	C8H5O3+
152.0291	1	C8H8OS+
153.0368	231	C8H9OS+
154.0444	5	C8H10OS+
155.0525	20	C8H11OS+
157.0083	5	C3H10O3PS+
168.9871	38	C7H6OPS+
183.0207	5	C8H8O3P+
185.0456	2	C9H13S2+
185.9899	53	C7H7O2PS+
198.9979	5	C8H8O2PS+
200.0055	31	C8H9O2PS+
200.9771	8	C7H6O3PS+
201.0136	4	C8H10O2PS+
201.0464	6	C4H14N2O3PS+
213.0131	2	C9H10O2PS+
214.9924	1	C8H8O3PS+
216.0005	452	C8H9O3PS+
217.0083	19	C8H10O3PS+
219.0238	2	C8H12O3PS+
219.0569	7	C4H16N2O4PS+
231.024	999	C9H12O3PS+
231.9774	3	C8H9O2PS2+
247.0012	15	C9H12O2PS2+
264.0043	2	C9H13O3PS2+
279.0274	479	C10H16O3PS2+
