Mass spectrum: Nitrendipin; LC-ESI-QFT; MS2; CE: 35 NCE; R=35000; [M+H]+
Name: Nitrendipin
Name: Nitrendipine
Name: 5-O-ethyl 3-O-methyl 2,6-dimethyl-4-(3-nitrophenyl)-1,4-dihydropyridine-3,5-dicarboxylate
Formula: C18H20N2O6
Exact mass: 360.13214
SMILES: CCOC(=O)C1=C(C)NC(C)=C(C1C1=CC=CC(=C1)[N+]([O-])=O)C(=O)OC
InChI: InChI=1S/C18H20N2O6/c1-5-26-18(22)15-11(3)19-10(2)14(17(21)25-4)16(15)12-7-6-8-13(9-12)20(23)24/h6-9,16,19H,5H2,1-4H3
Instrument: Q Exactive Plus Orbitrap Thermo Scientific
Instrument type: LC-ESI-QFT
Ms type: MS2
Ion mode: POSITIVE
Ionization: ESI
Fragmentation mode: HCD
Collision energy: 35  (nominal)
Resolution: 35000
Column name: Kinetex C18 EVO 2.6 um, 2.1x50 mm, precolumn 2.1x5 mm, Phenomenex
Retention time: 11.669 min
Base peak: 361.139
Precursor m/z: 361.1394
Precursor type: [M+H]+
m/z	relative intensity	assigned
67.018	25	C4H3O+
84.0444	8	C4H6NO+
85.0284	4	C4H5O2+
99.0441	15	C5H7O2+
106.065	1	C7H8N+
110.0234	1	C5H4NO2+
113.0596	2	C6H9O2+
115.0541	1	C9H7+
118.0413	1	C8H6O+
126.0549	4	C6H8NO2+
128.0496	1	C9H6N+
128.062	2	C10H8+
134.06	6	C8H8NO+
139.0539	2	C11H7+
140.0618	4	C11H8+
140.0705	17	C7H10NO2+
141.07	2	C11H9+
142.0499	4	C6H8NO3+
142.0775	2	C11H10+
150.0187	4	C7H4NO3+
152.0341	1	C7H6NO3+
152.0705	1	C8H10NO2+
153.0695	1	C12H9+
154.041	2	C11H6O+
154.0861	4	C8H12NO2+
156.0572	1	C11H8O+
156.0655	1	C7H10NO3+
166.0862	27	C9H12NO2+
167.0731	4	C12H9N+
168.0572	15	C12H8O+
168.0808	26	C12H10N+
171.1039	4	C12H13N+
174.0549	2	C10H8NO2+
176.0341	9	C9H6NO3+
178.0496	1	C9H8NO3+
180.0809	13	C13H10N+
181.0885	16	C13H11N+
182.0596	1	C12H8NO+
182.0728	1	C13H10O+
182.0966	17	C13H12N+
183.068	1	C12H9NO+
183.1045	16	C13H13N+
184.0523	1	C12H8O2+
184.0756	1	C12H10NO+
185.1197	1	C13H15N+
186.055	29	C11H8NO2+
194.0965	2	C14H12N+
195.0678	4	C13H9NO+
196.0522	1	C13H8O2+
196.0759	7	C13H10NO+
196.112	1	C14H14N+
197.0474	1	C12H7NO2+
197.0835	6	C13H11NO+
197.1201	4	C14H15N+
198.0677	1	C13H10O2+
198.0914	6	C13H12NO+
200.0343	18	C11H6NO3+
200.0706	1	C12H10NO2+
207.0678	2	C14H9NO+
208.0755	18	C14H10NO+
209.0836	67	C14H11NO+
210.077	4	C10H12NO4+
210.0914	60	C14H12NO+
211.0874	1	C13H11N2O+
211.0991	29	C14H13NO+
212.0704	8	C13H10NO2+
212.0944	5	C13H12N2O+
213.0786	1	C13H11NO2+
214.0497	9	C12H8NO3+
214.0866	2	C13H12NO2+
215.0814	1	C12H11N2O2+
215.0943	2	C13H13NO2+
216.0661	1	C12H10NO3+
217.0607	5	C11H9N2O3+
221.071	1	C14H9N2O+
222.0553	1	C14H8NO2+
223.0639	1	C14H9NO2+
223.0869	4	C14H11N2O+
224.0705	2	C14H10NO2+
224.1072	1	C15H14NO+
225.066	5	C13H9N2O2+
225.0784	10	C14H11NO2+
226.0863	87	C14H12NO2+
227.0815	31	C13H11N2O2+
227.0938	6	C14H13NO2+
228.0648	1	C13H10NO3+
228.0891	6	C13H12N2O2+
228.1007	1	C12H12N4O+
229.0976	5	C13H13N2O2+
229.1095	1	C14H15NO2+
232.0607	5	C12H10NO4+
235.0624	1	C15H9NO2+
236.0705	12	C15H10NO2+
237.0783	18	C15H11NO2+
238.05	1	C14H8NO3+
238.0736	11	C14H10N2O2+
238.1079	1	C12H16NO4+
239.0816	15	C14H11N2O2+
240.0658	8	C14H10NO3+
240.0896	23	C14H12N2O2+
240.1009	2	C15H14NO2+
241.0608	14	C13H9N2O3+
241.0734	15	C14H11NO3+
242.0446	2	C13H8NO4+
242.0687	4	C13H10N2O3+
242.0811	9	C14H12NO3+
243.0892	10	C14H13NO3+
246.0764	1	C13H12NO4+
253.0732	25	C15H11NO3+
254.0812	79	C15H12NO3+
255.0764	90	C14H11N2O3+
255.0892	53	C15H13NO3+
256.0846	6	C14H12N2O3+
256.0968	4	C15H14NO3+
257.069	1	C14H11NO4+
257.0922	30	C14H13N2O3+
257.1051	2	C15H15NO3+
259.0721	1	C13H11N2O4+
265.061	2	C15H9N2O3+
266.0687	4	C15H10N2O3+
267.0759	1	C15H11N2O3+
267.0891	24	C16H13NO3+
268.0969	42	C16H14NO3+
269.0687	7	C15H11NO4+
269.1046	78	C16H15NO3+
270.0765	3	C15H12NO4+
270.0998	1	C15H14N2O3+
271.0716	1	C14H11N2O4+
272.0553	5	C14H10NO5+
273.0868	8	C14H13N2O4+
281.0917	1	C16H13N2O3+
281.1053	1	C17H15NO3+
282.1126	2	C17H16NO3+
283.0714	113	C15H11N2O4+
283.1199	11	C17H17NO3+
284.0789	18	C15H12N2O4+
284.0923	2	C16H14NO4+
285.0634	13	C15H11NO5+
285.1234	1	C16H17N2O3+
287.0789	12	C15H13NO5+
287.1028	4	C15H15N2O4+
290.0656	1	C14H12NO6+
297.0876	2	C16H13N2O4+
298.0949	39	C16H14N2O4+
299.0794	12	C16H13NO5+
301.0815	92	C15H13N2O5+
301.0941	9	C16H15NO5+
312.1104	12	C17H16N2O4+
315.0976	999	C16H15N2O5+
318.0966	1	C16H16NO6+
329.1133	777	C17H17N2O5+
333.1093	1	C16H17N2O6+
361.1395	226	C18H21N2O6+
