Mass spectrum: Losartan; LC-ESI-QFT; MS2; CE: 35 NCE; R=35000; [M-H]-
Name: Losartan
Name: [2-butyl-5-chloro-3-[[4-[2-(2H-tetrazol-5-yl)phenyl]phenyl]methyl]imidazol-4-yl]methanol
Formula: C22H23ClN6O
Exact mass: 422.16219
SMILES: CCCCC1=NC(Cl)=C(CO)N1CC1=CC=C(C=C1)C1=C(C=CC=C1)C1=NNN=N1
InChI: InChI=1S/C22H23ClN6O/c1-2-3-8-20-24-21(23)19(14-30)29(20)13-15-9-11-16(12-10-15)17-6-4-5-7-18(17)22-25-27-28-26-22/h4-7,9-12,30H,2-3,8,13-14H2,1H3,(H,25,26,27,28)
Instrument: Q Exactive Plus Orbitrap Thermo Scientific
Instrument type: LC-ESI-QFT
Ms type: MS2
Ion mode: NEGATIVE
Ionization: ESI
Fragmentation mode: HCD
Collision energy: 35  (nominal)
Resolution: 35000
Column name: Kinetex C18 EVO 2.6 um, 2.1x50 mm, precolumn 2.1x5 mm, Phenomenex
Retention time: 10.849 min
Base peak: 421.1549
Precursor m/z: 421.1549
Precursor type: [M-H]-
m/z	relative intensity	assigned
113.9982	29	C7NO-
127.0066	471	C8HNO-
140.0144	1	C9H2NO-
155.0018	3	C6H4ClN2O-
155.0382	68	C7H8ClN2-
156.0461	10	C7H9ClN2-
157.0539	243	C7H10ClN2-
165.071	4	C13H9-
177.0712	1	C14H9-
179.0867	249	C14H11-
180.0579	2	C13H8O-
185.0489	6	C8H10ClN2O-
187.0644	144	C8H12ClN2O-
188.0358	10	C7H9ClN2O2-
193.066	19	C14H9O-
195.0816	45	C14H11O-
207.0931	1	C14H11N2-
216.0824	1	C16H10N-
223.0764	1	C12H14ClNO-
229.0782	1	C15H14Cl-
230.0977	1	C17H12N-
241.0774	1	C17H9N2-
272.1446	17	C20H18N-
277.0537	3	C17H10ClN2-
291.0694	15	C18H12ClN2-
292.0781	1	C18H13ClN2-
299.1556	9	C21H19N2-
320.1079	8	C20H17ClN2-
333.1174	1	C21H18ClN2-
335.1322	47	C21H20ClN2-
363.1387	13	C21H20ClN4-
393.1492	12	C22H22ClN4O-
421.1552	999	C22H22ClN6O-
