Mass spectrum: Albendazole; LC-ESI-QFT; MS2; CE: 35 NCE; R=35000; [M+H]+
Name: Albendazole
Name: methyl N-(6-propylsulfanyl-1H-benzimidazol-2-yl)carbamate
Formula: C12H15N3O2S
Exact mass: 265.08850
SMILES: CCCSc1ccc2nc(NC(=O)OC)[nH]c2c1
InChI: InChI=1S/C12H15N3O2S/c1-3-6-18-8-4-5-9-10(7-8)14-11(13-9)15-12(16)17-2/h4-5,7H,3,6H2,1-2H3,(H2,13,14,15,16)
Instrument: Q Exactive Plus Orbitrap Thermo Scientific
Instrument type: LC-ESI-QFT
Ms type: MS2
Ion mode: POSITIVE
Ionization: ESI
Fragmentation mode: HCD
Collision energy: 35  (nominal)
Resolution: 35000
Column name: Kinetex C18 EVO 2.6 um, 2.1x50 mm, precolumn 2.1x5 mm, Phenomenex
Retention time: 9.275 min
Base peak: 266.0953
Precursor m/z: 266.0958
Precursor type: [M+H]+
m/z	relative intensity	assigned
159.0426	33	C8H5N3O+
160.0503	2	C8H6N3O+
164.0279	2	C7H6N3S+
179.0512	1	C8H9N3S+
190.0067	2	C8H4N3OS+
191.0146	152	C8H5N3OS+
192.0224	149	C8H6N3OS+
205.0306	1	C9H7N3OS+
223.0406	5	C9H9N3O2S+
234.0694	999	C11H12N3OS+
266.0957	720	C12H16N3O2S+
