Mass spectrum: Propiconazole; LC-ESI-QFT; MS2; CE: 35 NCE; R=35000; [M+H]+
Name: Propiconazole
Name: 1-[[2-(2,4-dichlorophenyl)-4-propyl-1,3-dioxolan-2-yl]methyl]-1,2,4-triazole
Formula: C15H17Cl2N3O2
Exact mass: 341.06978
SMILES: CCCC1COC(Cn2cncn2)(O1)c1ccc(Cl)cc1Cl
InChI: InChI=1S/C15H17Cl2N3O2/c1-2-3-12-7-21-15(22-12,8-20-10-18-9-19-20)13-5-4-11(16)6-14(13)17/h4-6,9-10,12H,2-3,7-8H2,1H3
Instrument: Q Exactive Plus Orbitrap Thermo Scientific
Instrument type: LC-ESI-QFT
Ms type: MS2
Ion mode: POSITIVE
Ionization: ESI
Fragmentation mode: HCD
Collision energy: 35  (nominal)
Resolution: 35000
Column name: Kinetex C18 EVO 2.6 um, 2.1x50 mm, precolumn 2.1x5 mm, Phenomenex
Retention time: 12.414 min
Base peak: 368.11
Precursor m/z: 342.0771
Precursor type: [M+H]+
m/z	relative intensity	assigned
53.0024	3	C3HO+
53.9976	1	C2NO+
67.0543	11	C5H7+
69.0699	362	C5H9+
70.04	41	C2H4N3+
87.0804	4	C5H11O+
122.9997	1	C7H4Cl+
158.9763	819	C7H5Cl2+
169.005	1	C8H6ClO2+
172.9556	23	C7H3Cl2O+
172.9921	5	C8H7Cl2+
186.9712	44	C8H5Cl2O+
190.966	13	C7H5Cl2O2+
204.9818	40	C8H7Cl2O2+
220.0271	1	C10H7ClN3O+
256.0038	2	C10H8Cl2N3O+
259.0287	11	C12H13Cl2O2+
273.0444	8	C13H15Cl2O2+
342.0772	999	C15H18Cl2N3O2+
