Mass spectrum: Testosterone; LC-ESI-QFT; MS2; CE: 35 NCE; R=35000; [M+H]+
Name: Testosterone
Name: 17-Hydroxyandrost-4-en-3-one
Name: 17-hydroxy-10,13-dimethyl-1,2,6,7,8,9,11,12,14,15,16,17-dodecahydrocyclopenta[a]phenanthren-3-one
Formula: C19H28O2
Exact mass: 288.20893
SMILES: CC12CCC3C(CCC4=CC(=O)CCC34C)C1CCC2O
InChI: InChI=1S/C19H28O2/c1-18-9-7-13(20)11-12(18)3-4-14-15-5-6-17(21)19(15,2)10-8-16(14)18/h11,14-17,21H,3-10H2,1-2H3
Instrument: Q Exactive Plus Orbitrap Thermo Scientific
Instrument type: LC-ESI-QFT
Ms type: MS2
Ion mode: POSITIVE
Ionization: ESI
Fragmentation mode: HCD
Collision energy: 35  (nominal)
Resolution: 35000
Column name: Kinetex C18 EVO 2.6 um, 2.1x50 mm, precolumn 2.1x5 mm, Phenomenex
Retention time: 11.482 min
Base peak: 289.2159
Precursor m/z: 289.2162
Precursor type: [M+H]+
m/z	relative intensity	assigned
67.0543	7	C5H7+
69.07	5	C5H9+
79.0542	24	C6H7+
81.0699	32	C6H9+
83.0492	29	C5H7O+
85.0648	1	C5H9O+
91.0542	8	C7H7+
93.0699	22	C7H9+
95.0492	2	C6H7O+
95.0855	23	C7H11+
97.0648	601	C6H9O+
105.0699	13	C8H9+
107.0493	1	C7H7O+
107.0856	14	C8H11+
109.0648	478	C7H9O+
117.07	2	C9H9+
119.0856	15	C9H11+
121.0648	6	C8H9O+
121.1012	12	C9H13+
123.0805	40	C8H11O+
129.07	1	C10H9+
131.0855	8	C10H11+
133.1013	11	C10H13+
135.0806	1	C9H11O+
135.1168	6	C10H15+
137.096	1	C9H13O+
143.0855	6	C11H11+
145.1011	12	C11H13+
147.1168	12	C11H15+
149.0961	2	C10H13O+
149.1326	4	C11H17+
155.0856	2	C12H11+
157.1013	10	C12H13+
159.1169	13	C12H15+
161.0963	2	C11H13O+
161.1324	8	C12H17+
163.1118	6	C11H15O+
163.1481	2	C12H19+
169.1012	2	C13H13+
171.1168	9	C13H15+
173.1325	6	C13H17+
175.1119	3	C12H15O+
175.1482	11	C13H19+
177.1274	5	C12H17O+
183.1165	3	C14H15+
185.1326	4	C14H17+
187.1482	12	C14H19+
189.1273	3	C13H17O+
189.1641	7	C14H21+
197.1325	8	C15H17+
199.1482	9	C15H19+
201.1638	6	C15H21+
211.1481	7	C16H19+
213.1638	11	C16H21+
215.1431	2	C15H19O+
219.1744	2	C15H23O+
225.1639	3	C17H21+
227.1797	3	C17H23+
243.2107	2	C18H27+
253.1951	39	C19H25+
271.2058	37	C19H27O+
289.2163	999	C19H29O2+
