Mass spectrum: Paroxetine; LC-ESI-QFT; MS2; CE: 35 NCE; R=35000; [M+H]+
Name: Paroxetine
Name: (3S,4R)-3-(1,3-benzodioxol-5-yloxymethyl)-4-(4-fluorophenyl)piperidine
Formula: C19H20FNO3
Exact mass: 329.14272
SMILES: Fc1ccc(cc1)[C@@H]1CCNC[C@H]1COc1ccc2OCOc2c1
InChI: InChI=1S/C19H20FNO3/c20-15-3-1-13(2-4-15)17-7-8-21-10-14(17)11-22-16-5-6-18-19(9-16)24-12-23-18/h1-6,9,14,17,21H,7-8,10-12H2/t14-,17-/m0/s1
Instrument: Q Exactive Plus Orbitrap Thermo Scientific
Instrument type: LC-ESI-QFT
Ms type: MS2
Ion mode: POSITIVE
Ionization: ESI
Fragmentation mode: HCD
Collision energy: 35  (nominal)
Resolution: 35000
Column name: Kinetex C18 EVO 2.6 um, 2.1x50 mm, precolumn 2.1x5 mm, Phenomenex
Retention time: 8.722 min
Base peak: 330.1494
Precursor m/z: 330.15
Precursor type: [M+H]+
m/z	relative intensity	assigned
56.0497	12	C3H6N+
57.0575	3	C3H7N+
58.0653	2	C3H8N+
65.0387	1	C5H5+
68.0496	9	C4H6N+
70.0652	223	C4H8N+
71.073	3	C4H9N+
82.0651	8	C5H8N+
83.0729	2	C5H9N+
84.0808	5	C5H10N+
86.06	4	C4H8NO+
93.0334	2	C6H5O+
96.0807	3	C6H10N+
97.0886	11	C6H11N+
103.0542	1	C8H7+
109.0284	3	C6H5O2+
109.0448	23	C7H6F+
111.0441	1	C6H7O2+
123.0441	18	C7H7O2+
123.0605	34	C8H8F+
135.0439	1	C8H7O2+
135.0604	18	C9H8F+
136.0682	6	C9H9F+
137.076	6	C9H10F+
138.0714	4	C8H9FN+
139.0389	4	C7H7O3+
147.0604	6	C10H8F+
148.0682	3	C10H9F+
149.0761	3	C10H10F+
150.0714	6	C9H9FN+
151.039	43	C8H7O3+
161.0596	1	C10H9O2+
161.0761	12	C11H10F+
163.0917	25	C11H12F+
164.087	6	C10H11FN+
175.092	3	C12H12F+
176.0996	6	C12H13F+
178.1027	24	C11H13FN+
190.1028	3	C12H13FN+
192.1183	184	C12H15FN+
193.1262	9	C12H16FN+
208.1135	3	C12H15FNO+
313.1232	5	C19H18FO3+
330.1501	999	C19H21FNO3+
