Mass spectrum: Pendimethalin; LC-ESI-QFT; MS2; CE: 35 NCE; R=35000; [M+H]+
Name: Pendimethalin
Name: 3,4-dimethyl-2,6-dinitro-N-pentan-3-ylaniline
Formula: C13H19N3O4
Exact mass: 281.13756
SMILES: CCC(CC)Nc1c(cc(C)c(C)c1[N+]([O-])=O)[N+]([O-])=O
InChI: InChI=1S/C13H19N3O4/c1-5-10(6-2)14-12-11(15(17)18)7-8(3)9(4)13(12)16(19)20/h7,10,14H,5-6H2,1-4H3
Instrument: Q Exactive Plus Orbitrap Thermo Scientific
Instrument type: LC-ESI-QFT
Ms type: MS2
Ion mode: POSITIVE
Ionization: ESI
Fragmentation mode: HCD
Collision energy: 35  (nominal)
Resolution: 35000
Column name: Kinetex C18 EVO 2.6 um, 2.1x50 mm, precolumn 2.1x5 mm, Phenomenex
Retention time: 13.761 min
Base peak: 282.1446
Precursor m/z: 282.1448
Precursor type: [M+H]+
m/z	relative intensity	assigned
57.0701	8	C4H9+
60.081	58	C3H10N+
66.034	5	C4H4N+
67.0418	9	C4H5N+
68.0496	5	C4H6N+
69.0701	5	C5H9+
71.0857	71	C5H11+
72.089	21	H12N2O2+
73.0649	53	C4H9O+
78.0339	24	C5H4N+
80.0495	28	C5H6N+
81.053	13	H7N3O2+
81.07	6	C6H9+
91.0417	77	C6H5N+
91.0543	8	C7H7+
92.0451	34	CH6N3O2+
92.0496	12	C6H6N+
95.0856	6	C7H11+
96.0445	9	C5H6NO+
103.0417	9	C7H5N+
104.0451	5	C2H6N3O2+
105.0449	12	C6H5N2+
107.0604	8	C6H7N2+
108.0809	7	C7H10N+
109.1016	5	C8H13+
118.0526	36	C7H6N2+
119.056	22	C2H7N4O2+
119.0605	25	C7H7N2+
119.0855	6	C9H11+
120.0639	21	C2H8N4O2+
120.0809	11	C8H10N+
121.0398	5	C6H5N2O+
131.0483	6	C7H5N3+
131.0603	5	C8H7N2+
133.0887	12	C9H11N+
134.0964	94	C9H12N+
135.0551	10	C7H7N2O+
136.0586	6	C2H8N4O3+
145.0891	7	C10H11N+
146.0966	41	C10H12N+
147.0553	12	C8H7N2O+
148.0631	27	C8H8N2O+
148.0935	6	CH14N3O5+
148.112	7	C10H14N+
149.0587	24	C7H7N3O+
149.0667	20	C3H9N4O3+
150.062	9	C2H8N5O3+
150.0682	5	C9H10O2+
151.0628	6	C8H9NO2+
158.0965	20	C11H12N+
159.1044	9	C11H13N+
160.112	37	C11H14N+
163.0505	6	C8H7N2O2+
176.1435	582	C12H18N+
177.0532	8	C8H7N3O2+
178.0608	9	C8H8N3O2+
179.0651	6	C3H9N5O4+
181.0506	5	C10H5N4+
184.0525	24	C12H8O2+
187.0454	6	C5H7N4O4+
194.0562	58	C8H8N3O3+
195.0523	6	C9H9NO4+
195.0596	65	C3H9N5O5+
196.0608	110	C9H10NO4+
197.0689	30	C9H11NO4+
202.1223	5	C13H16NO+
212.0667	135	C8H10N3O4+
214.0715	999	C9H12NO5+
238.048	6	C12H6N4O2+
242.051	53	C7H8N5O5+
256.0581	10	C12H8N4O3+
269.0743	9	C9H11N5O5+
284.0189	21	C12H4N4O5+
284.0537	24	C13H8N4O4+
284.0988	55	C10H14N5O5+
