Mass spectrum: Boscalid; LC-ESI-QFT; MS2; CE: 35 NCE; R=35000; [M+H]+
Name: Boscalid
Name: 2-chloro-N-[2-(4-chlorophenyl)phenyl]pyridine-3-carboxamide
Formula: C18H12Cl2N2O
Exact mass: 342.03267
SMILES: Clc1ccc(cc1)-c1ccccc1NC(=O)c1cccnc1Cl
InChI: InChI=1S/C18H12Cl2N2O/c19-13-9-7-12(8-10-13)14-4-1-2-6-16(14)22-18(23)15-5-3-11-21-17(15)20/h1-11H,(H,22,23)
Instrument: Q Exactive Plus Orbitrap Thermo Scientific
Instrument type: LC-ESI-QFT
Ms type: MS2
Ion mode: POSITIVE
Ionization: ESI
Fragmentation mode: HCD
Collision energy: 35  (nominal)
Resolution: 35000
Column name: Kinetex C18 EVO 2.6 um, 2.1x50 mm, precolumn 2.1x5 mm, Phenomenex
Retention time: 11.316 min
Base peak: 404.1238
Precursor m/z: 343.0399
Precursor type: [M+H]+
m/z	relative intensity	assigned
76.0183	1	C5H2N+
78.0339	8	C5H4N+
94.0287	2	C5H4NO+
96.0444	39	C5H6NO+
110.0603	1	C3H11ClN2+
111.9949	7	C5H3ClN+
112.0393	43	C2H9ClN2O+
114.0105	16	C5H5ClN+
130.0054	12	C5H5ClNO+
139.9897	326	C6H3ClNO+
152.0622	2	C12H8+
227.073	1	C17H9N+
228.0807	2	C17H10N+
229.0889	3	C17H11N+
230.0367	2	C13H9ClNO+
238.0418	2	C15H9ClN+
242.0834	3	C17H10N2+
243.0916	23	C17H11N2+
244.0761	1	C14H13ClN2+
244.0997	9	C17H12N2+
253.076	14	C18H9N2+
254.0838	22	C18H10N2+
264.0569	3	C17H11ClN+
270.0784	6	C18H10N2O+
271.0866	293	C18H11N2O+
272.0944	291	C18H12N2O+
279.0683	2	C17H12ClN2+
289.0527	51	C18H10ClN2+
305.0482	1	C18H10ClN2O+
306.0558	3	C18H11ClN2O+
307.0633	999	C18H12ClN2O+
343.0401	851	C18H13Cl2N2O+
