Mass spectrum: 9-Acetylphenanthren; LC-ESI-QFT; MS2; CE: 35 NCE; R=35000; [M+H]+
Name: 9-Acetylphenanthren
Name: 9-Acetylphenanthrene
Name: 1-phenanthren-9-ylethanone
Formula: C16H12O
Exact mass: 220.08882
SMILES: CC(=O)C1=CC2=CC=CC=C2C2=CC=CC=C12
InChI: InChI=1S/C16H12O/c1-11(17)16-10-12-6-2-3-7-13(12)14-8-4-5-9-15(14)16/h2-10H,1H3
Instrument: Q Exactive Plus Orbitrap Thermo Scientific
Instrument type: LC-ESI-QFT
Ms type: MS2
Ion mode: POSITIVE
Ionization: ESI
Fragmentation mode: HCD
Collision energy: 35  (nominal)
Resolution: 35000
Column name: Kinetex C18 EVO 2.6 um, 2.1x50 mm, precolumn 2.1x5 mm, Phenomenex
Retention time: 12.085 min
Base peak: 164.9843
Precursor m/z: 221.0961
Precursor type: [M+H]+
m/z	relative intensity	assigned
81.07	1	C6H9+
137.0592	2	C8H9O2+
178.0772	1	C14H10+
179.0856	55	C14H11+
203.0856	12	C16H11+
221.0962	999	C16H13O+
