Mass spectrum: Oryzalin; LC-ESI-QFT; MS2; CE: 35 NCE; R=35000; [M-H]-
Name: Oryzalin
Name: 4-(dipropylamino)-3,5-dinitrobenzenesulfonamide
Formula: C12H18N4O6S
Exact mass: 346.09471
SMILES: CCCN(CCC)C1=C(C=C(C=C1[N+]([O-])=O)S(N)(=O)=O)[N+]([O-])=O
InChI: InChI=1S/C12H18N4O6S/c1-3-5-14(6-4-2)12-10(15(17)18)7-9(23(13,21)22)8-11(12)16(19)20/h7-8H,3-6H2,1-2H3,(H2,13,21,22)
Instrument: Q Exactive Plus Orbitrap Thermo Scientific
Instrument type: LC-ESI-QFT
Ms type: MS2
Ion mode: NEGATIVE
Ionization: ESI
Fragmentation mode: HCD
Collision energy: 35  (nominal)
Resolution: 35000
Column name: Kinetex C18 EVO 2.6 um, 2.1x50 mm, precolumn 2.1x5 mm, Phenomenex
Retention time: 11.911 min
Base peak: 345.0872
Precursor m/z: 345.0874
Precursor type: [M-H]-
m/z	relative intensity	assigned
92.0127	2	C3N4-
95.0237	1	C2HN5-
96.0078	2	C2N4O-
106.0161	6	C3N5-
107.024	7	C3HN5-
108.0318	3	C3H2N5-
109.0395	2	C3H3N5-
120.0194	1	C3N6-
122.024	2	C4H2N4O-
122.0478	1	C4H4N5-
123.0191	1	C3HN5O-
124.0274	1	C5H4N2O2-
129.033	5	C7H3N3-
130.0408	1	C7H4N3-
131.0487	4	C7H5N3-
132.0328	3	C7H4N2O-
132.0566	1	C7H6N3-
133.028	3	C6H3N3O-
133.0405	3	C7H5N2O-
134.0358	9	C6H4N3O-
134.0609	1	C8H8NO-
135.02	4	C6H3N2O2-
135.0437	4	C6H5N3O-
136.0516	6	C6H6N3O-
137.0355	2	C6H5N2O2-
144.0566	2	C8H6N3-
144.0693	2	C9H8N2-
145.0281	3	C7H3N3O-
146.036	6	C7H4N3O-
146.0486	1	C8H6N2O-
146.0722	1	C8H8N3-
147.02	1	C7H3N2O2-
147.0438	29	C7H5N3O-
147.0563	4	C8H7N2O-
148.028	4	C7H4N2O2-
148.0517	1	C7H6N3O-
149.0356	4	C7H5N2O2-
150.0308	7	C6H4N3O2-
151.0386	1	C6H5N3O2-
152.0226	4	C6H4N2O3-
153.0179	1	C5H3N3O3-
156.0566	2	C9H6N3-
157.0647	4	C9H7N3-
158.0359	2	C8H4N3O-
158.0722	2	C9H8N3-
159.0564	1	C9H7N2O-
160.0515	6	C8H6N3O-
160.0642	2	C9H8N2O-
161.072	9	C9H9N2O-
162.0309	3	C7H4N3O2-
163.0147	1	C7H3N2O3-
163.0261	4	C6H3N4O2-
164.01	1	C6H2N3O3-
171.0679	2	C9H7N4-
172.0514	2	C9H6N3O-
173.0596	3	C9H7N3O-
174.0673	22	C9H8N3O-
175.0514	4	C9H7N2O2-
175.0751	2	C9H9N3O-
176.0339	2	C7H4N4O2-
176.0465	1	C8H6N3O2-
176.0828	3	C9H10N3O-
177.0415	1	C7H5N4O2-
180.0288	8	C6H4N4O3-
182.0207	12	C6H4N3O4-
186.0104	2	C6H6N2O3S-
190.0621	2	C9H8N3O2-
191.021	6	C7H3N4O3-
191.07	4	C9H9N3O2-
192.0288	6	C7H4N4O3-
192.9951	1	C7H3N3O2S-
194.0029	1	C7H4N3O2S-
197.0031	1	C7H5N2O3S-
199.0183	1	C7H7N2O3S-
203.0575	10	C9H7N4O2-
204.0653	2	C9H8N4O2-
211.0052	3	C7H5N3O3S-
212.0135	4	C7H6N3O3S-
221.0679	5	C9H9N4O3-
222.0344	5	C9H8N3O2S-
223.0421	3	C9H9N3O2S-
224.05	2	C9H10N3O2S-
226.9879	5	C6H3N4O4S-
227.0004	2	C7H5N3O4S-
228.0083	5	C7H6N3O4S-
234.1248	14	C12H16N3O2-
238.029	2	C9H8N3O3S-
238.0706	1	C9H10N4O4-
240.0449	5	C9H10N3O3S-
241.0038	15	C7H5N4O4S-
244.0029	4	C7H6N3O5S-
256.0398	4	C9H10N3O4S-
258.0555	3	C9H12N3O4S-
267.0193	2	C9H7N4O4S-
268.0271	3	C9H8N4O4S-
269.0348	1	C9H9N4O4S-
272.0349	1	C9H10N3O5S-
272.9936	3	C7H5N4O6S-
281.1255	96	C12H17N4O4-
283.0507	2	C10H11N4O4S-
299.0456	9	C10H11N4O5S-
309.0664	1	C12H13N4O4S-
345.0873	999	C12H17N4O6S-
