Mass spectrum: 4-(Dimethylamino)pyridine; LC-ESI-QFT; MS2; CE: 35 NCE; R=35000; [M+H]+
Name: 4-(Dimethylamino)pyridine
Name: 4-Dimethylaminopyridine
Name: N,N-dimethylpyridin-4-amine
Formula: C7H10N2
Exact mass: 122.08440
SMILES: CN(C)C1=CC=NC=C1
InChI: InChI=1S/C7H10N2/c1-9(2)7-3-5-8-6-4-7/h3-6H,1-2H3
Instrument: Q Exactive Plus Orbitrap Thermo Scientific
Instrument type: LC-ESI-QFT
Ms type: MS2
Ion mode: POSITIVE
Ionization: ESI
Fragmentation mode: HCD
Collision energy: 35  (nominal)
Resolution: 35000
Column name: Kinetex C18 EVO 2.6 um, 2.1x50 mm, precolumn 2.1x5 mm, Phenomenex
Retention time: 0.411 min
Base peak: 123.0915
Precursor m/z: 123.0917
Precursor type: [M+H]+
m/z	relative intensity	assigned
79.0414	2	C5H5N+
80.0494	5	C5H6N+
107.0602	6	C6H7N2+
108.0681	10	C6H8N2+
123.0914	999	C7H11N2+
