Mass spectrum: Miconazole; LC-ESI-QFT; MS2; CE: 35 NCE; R=35000; [M+H]+
Name: Miconazole
Name: 1-[2-(2,4-dichlorophenyl)-2-[(2,4-dichlorophenyl)methoxy]ethyl]imidazole
Formula: C18H14Cl4N2O
Exact mass: 413.98602
SMILES: Clc1ccc(COC(Cn2ccnc2)c2ccc(Cl)cc2Cl)c(Cl)c1
InChI: InChI=1S/C18H14Cl4N2O/c19-13-2-1-12(16(21)7-13)10-25-18(9-24-6-5-23-11-24)15-4-3-14(20)8-17(15)22/h1-8,11,18H,9-10H2
Instrument: Q Exactive Plus Orbitrap Thermo Scientific
Instrument type: LC-ESI-QFT
Ms type: MS2
Ion mode: POSITIVE
Ionization: ESI
Fragmentation mode: HCD
Collision energy: 35  (nominal)
Resolution: 35000
Column name: Kinetex C18 EVO 2.6 um, 2.1x50 mm, precolumn 2.1x5 mm, Phenomenex
Retention time: 10.885 min
Base peak: 423.1689
Precursor m/z: 414.9933
Precursor type: [M+H]+
m/z	relative intensity	assigned
69.0448	60	C3H5N2+
81.0447	1	C4H5N2+
82.0526	2	C4H6N2+
89.0386	1	C7H5+
98.9996	1	C5H4Cl+
122.9996	7	C7H4Cl+
124.0074	1	C7H5Cl+
158.9763	999	C7H5Cl2+
227.0136	17	C10H9Cl2N2+
414.9933	579	C18H15Cl4N2O+
