Mass spectrum: Phenyltetrazole; LC-ESI-QFT; MS2; CE: 35 NCE; R=35000; [M+H]+
Name: Phenyltetrazole
Name: 5-Phenyl-1H-tetrazole
Name: 5-phenyl-2H-tetrazole
Formula: C7H6N4
Exact mass: 146.05925
SMILES: N1N=NN=C1C1=CC=CC=C1
InChI: InChI=1S/C7H6N4/c1-2-4-6(5-3-1)7-8-10-11-9-7/h1-5H,(H,8,9,10,11)
Instrument: Q Exactive Plus Orbitrap Thermo Scientific
Instrument type: LC-ESI-QFT
Ms type: MS2
Ion mode: POSITIVE
Ionization: ESI
Fragmentation mode: HCD
Collision energy: 35  (nominal)
Resolution: 35000
Column name: Kinetex C18 EVO 2.6 um, 2.1x50 mm, precolumn 2.1x5 mm, Phenomenex
Retention time: 5.801 min
Base peak: 147.0663
Precursor m/z: 147.0665
Precursor type: [M+H]+
m/z	relative intensity	assigned
65.0386	1	C5H5+
66.0464	1	C5H6+
77.0384	3	C6H5+
90.0464	2	C7H6+
91.0542	8	C7H7+
92.0492	1	C6H6N+
95.0489	1	C6H7O+
104.0494	999	C7H6N+
119.0603	18	C7H7N2+
147.0664	147	C7H7N4+
