Mass spectrum: 3-Methylpyrazole; LC-ESI-QFT; MS2; CE: 35 NCE; R=35000; [M+H]+
Name: 3-Methylpyrazole
Name: 5-methyl-1H-pyrazole
Name: 3-Methyl-1H-pyrazole
Formula: C4H6N2
Exact mass: 82.05310
SMILES: CC1=NNC=C1
InChI: InChI=1S/C4H6N2/c1-4-2-3-5-6-4/h2-3H,1H3,(H,5,6)
Instrument: Q Exactive Plus Orbitrap Thermo Scientific
Instrument type: LC-ESI-QFT
Ms type: MS2
Ion mode: POSITIVE
Ionization: ESI
Fragmentation mode: HCD
Collision energy: 35  (nominal)
Resolution: 35000
Column name: Kinetex C18 EVO 2.6 um, 2.1x50 mm, precolumn 2.1x5 mm, Phenomenex
Retention time: 0.630 min
Base peak: 83.0602
Precursor m/z: 83.0604
Precursor type: [M+H]+
m/z	relative intensity	assigned
56.0496	12	C3H6N+
66.0339	1	C4H4N+
83.0603	999	C4H7N2+
