Mass spectrum: 4-Aminoantipyrine; LC-ESI-QFT; MS2; CE: 35 NCE; R=35000; [M+H]+
Name: 4-Aminoantipyrine
Name: 4-amino-1,5-dimethyl-2-phenylpyrazol-3-one
Formula: C11H13N3O
Exact mass: 203.10586
SMILES: CN1N(C(=O)C(N)=C1C)c1ccccc1
InChI: InChI=1S/C11H13N3O/c1-8-10(12)11(15)14(13(8)2)9-6-4-3-5-7-9/h3-7H,12H2,1-2H3
Instrument: Q Exactive Plus Orbitrap Thermo Scientific
Instrument type: LC-ESI-QFT
Ms type: MS2
Ion mode: POSITIVE
Ionization: ESI
Fragmentation mode: HCD
Collision energy: 35  (nominal)
Resolution: 35000
Column name: Kinetex C18 EVO 2.6 um, 2.1x50 mm, precolumn 2.1x5 mm, Phenomenex
Retention time: 0.959 min
Base peak: 101.0709
Precursor m/z: 204.1131
Precursor type: [M+H]+
m/z	relative intensity	assigned
56.0497	999	C3H6N+
58.0653	31	C3H8N+
68.0496	13	C4H6N+
77.0386	2	C6H5+
83.0604	237	C4H7N2+
84.0682	1	C4H8N2+
85.0761	137	C4H9N2+
94.0652	208	C6H8N+
95.0491	4	C6H7O+
104.0495	39	C7H6N+
106.0653	1	C7H8N+
109.0648	4	C7H9O+
111.0553	68	C5H7N2O+
118.0652	21	C8H8N+
120.0444	3	C7H6NO+
123.0806	1	C8H11O+
128.0494	5	C9H6N+
130.0652	11	C9H8N+
131.0604	1	C8H7N2+
132.0444	5	C8H6NO+
132.0809	6	C9H10N+
134.06	1	C8H8NO+
141.091	1	C8H13O2+
142.0652	3	C10H8N+
144.0806	1	C10H10N+
145.0761	32	C9H9N2+
146.0601	83	C9H8NO+
147.0919	1	C9H11N2+
158.0601	25	C10H8NO+
159.0917	247	C10H11N2+
160.076	2	C10H10NO+
161.0712	1	C9H9N2O+
161.0949	1	C9H11N3+
163.0863	1	C9H11N2O+
170.0601	2	C11H8NO+
172.0631	4	C10H8N2O+
173.0711	62	C10H9N2O+
176.1182	9	C10H14N3+
177.1024	3	C10H13N2O+
185.071	3	C11H9N2O+
187.0867	208	C11H11N2O+
188.082	1	C10H10N3O+
189.0898	51	C10H11N3O+
204.1133	711	C11H14N3O+
