Mass spectrum: Lenacil; LC-ESI-QFT; MS2; CE: 35 NCE; R=35000; [M+H]+
Name: Lenacil
Name: 3-cyclohexyl-1,5,6,7-tetrahydrocyclopenta[d]pyrimidine-2,4-dione
Formula: C13H18N2O2
Exact mass: 234.13683
SMILES: O=C1NC2=C(CCC2)C(=O)N1C1CCCCC1
InChI: InChI=1S/C13H18N2O2/c16-12-10-7-4-8-11(10)14-13(17)15(12)9-5-2-1-3-6-9/h9H,1-8H2,(H,14,17)
Instrument: Q Exactive Plus Orbitrap Thermo Scientific
Instrument type: LC-ESI-QFT
Ms type: MS2
Ion mode: POSITIVE
Ionization: ESI
Fragmentation mode: HCD
Collision energy: 35  (nominal)
Resolution: 35000
Column name: Kinetex C18 EVO 2.6 um, 2.1x50 mm, precolumn 2.1x5 mm, Phenomenex
Retention time: 10.144 min
Base peak: 207.1489
Precursor m/z: 235.1441
Precursor type: [M+H]+
m/z	relative intensity	assigned
55.0544	3	C4H7+
82.0651	9	C5H8N+
83.0855	10	C6H11+
110.0601	8	C6H8NO+
135.0553	11	C7H7N2O+
136.0393	22	C7H6NO2+
153.0658	999	C7H9N2O2+
235.1441	110	C13H19N2O2+
