Mass spectrum: Oxazepam; LC-ESI-QFT; MS2; CE: 35 NCE; R=35000; [M+H]+
Name: Oxazepam
Name: 7-chloro-3-hydroxy-5-phenyl-1,3-dihydro-1,4-benzodiazepin-2-one
Formula: C15H11ClN2O2
Exact mass: 286.05091
SMILES: OC1N=C(c2ccccc2)c2cc(Cl)ccc2NC1=O
InChI: InChI=1S/C15H11ClN2O2/c16-10-6-7-12-11(8-10)13(9-4-2-1-3-5-9)18-15(20)14(19)17-12/h1-8,15,20H,(H,17,19)
Instrument: Q Exactive Plus Orbitrap Thermo Scientific
Instrument type: LC-ESI-QFT
Ms type: MS2
Ion mode: POSITIVE
Ionization: ESI
Fragmentation mode: HCD
Collision energy: 35  (nominal)
Resolution: 35000
Column name: Kinetex C18 EVO 2.6 um, 2.1x50 mm, precolumn 2.1x5 mm, Phenomenex
Retention time: 10.259 min
Base peak: 287.0578
Precursor m/z: 287.0582
Precursor type: [M+H]+
m/z	relative intensity	assigned
79.0542	1	C6H7+
93.0573	23	C6H7N+
95.0491	1	C6H7O+
104.0494	145	C7H6N+
118.0525	2	C7H6N2+
128.0261	64	C6H7ClN+
138.0105	9	C7H5ClN+
153.0213	31	C7H6ClN2+
156.0209	8	C7H7ClNO+
163.0057	39	C8H4ClN2+
166.0054	28	C8H5ClNO+
181.0163	2	C8H6ClN2O+
195.032	1	C9H8ClN2O+
195.0916	5	C13H11N2+
205.0753	3	C14H9N2+
206.0841	1	C14H10N2+
207.0678	6	C14H9NO+
214.0416	3	C13H9ClN+
216.0577	4	C13H11ClN+
229.0525	5	C13H10ClN2+
231.0683	114	C13H12ClN2+
239.0368	1	C14H8ClN2+
241.0526	999	C14H10ClN2+
242.0363	10	C14H9ClNO+
257.0477	11	C14H10ClN2O+
258.0545	2	C14H11ClN2O+
259.0631	1	C14H12ClN2O+
269.0475	520	C15H10ClN2O+
287.0581	759	C15H12ClN2O2+
