Mass spectrum: Metazachlor; LC-ESI-QFT; MS2; CE: 35 NCE; R=35000; [M+H]+
Name: Metazachlor
Name: 2-chloro-N-(2,6-dimethylphenyl)-N-(pyrazol-1-ylmethyl)acetamide
Formula: C14H16ClN3O
Exact mass: 277.09819
SMILES: Cc1cccc(C)c1N(Cn1cccn1)C(=O)CCl
InChI: InChI=1S/C14H16ClN3O/c1-11-5-3-6-12(2)14(11)18(13(19)9-15)10-17-8-4-7-16-17/h3-8H,9-10H2,1-2H3
Instrument: Q Exactive Plus Orbitrap Thermo Scientific
Instrument type: LC-ESI-QFT
Ms type: MS2
Ion mode: POSITIVE
Ionization: ESI
Fragmentation mode: HCD
Collision energy: 35  (nominal)
Resolution: 35000
Column name: Kinetex C18 EVO 2.6 um, 2.1x50 mm, precolumn 2.1x5 mm, Phenomenex
Retention time: 10.257 min
Base peak: 278.1052
Precursor m/z: 278.1055
Precursor type: [M+H]+
m/z	relative intensity	assigned
76.9788	12	C2H2ClO+
77.0388	1	C6H5+
105.0698	9	C8H9+
123.0803	1	C8H11O+
132.0809	1	C9H10N+
134.0964	999	C9H12N+
210.068	473	C11H13ClNO+
242.0943	3	C12H17ClNO2+
278.1055	16	C14H17ClN3O+
