Mass spectrum: Tribenzylamine; LC-ESI-QFT; MS2; CE: 35 NCE; R=35000; [M+H]+
Name: Tribenzylamine
Name: N,N-dibenzyl-1-phenylmethanamine
Formula: C21H21N
Exact mass: 287.16740
SMILES: C(N(CC1=CC=CC=C1)CC1=CC=CC=C1)C1=CC=CC=C1
InChI: InChI=1S/C21H21N/c1-4-10-19(11-5-1)16-22(17-20-12-6-2-7-13-20)18-21-14-8-3-9-15-21/h1-15H,16-18H2
Instrument: Q Exactive Plus Orbitrap Thermo Scientific
Instrument type: LC-ESI-QFT
Ms type: MS2
Ion mode: POSITIVE
Ionization: ESI
Fragmentation mode: HCD
Collision energy: 35  (nominal)
Resolution: 35000
Column name: Kinetex C18 EVO 2.6 um, 2.1x50 mm, precolumn 2.1x5 mm, Phenomenex
Retention time: 9.986 min
Base peak: 288.1742
Precursor m/z: 288.1747
Precursor type: [M+H]+
m/z	relative intensity	assigned
65.0386	12	C5H5+
91.0542	999	C7H7+
106.065	2	C7H8N+
115.0541	1	C9H7+
120.0807	29	C8H10N+
141.0695	2	C11H9+
153.0699	3	C12H9+
165.0699	10	C13H9+
166.0776	30	C13H10+
179.0853	7	C14H11+
181.101	123	C14H13+
196.112	71	C14H14N+
288.1746	569	C21H22N+
