Mass spectrum: Fenpropidin; LC-ESI-QFT; MS2; CE: 35 NCE; R=35000; [M+H]+
Name: Fenpropidin
Name: 1-[3-(4-tert-butylphenyl)-2-methylpropyl]piperidine
Formula: C19H31N
Exact mass: 273.24565
SMILES: CC(CN1CCCCC1)CC1=CC=C(C=C1)C(C)(C)C
InChI: InChI=1S/C19H31N/c1-16(15-20-12-6-5-7-13-20)14-17-8-10-18(11-9-17)19(2,3)4/h8-11,16H,5-7,12-15H2,1-4H3
Instrument: Q Exactive Plus Orbitrap Thermo Scientific
Instrument type: LC-ESI-QFT
Ms type: MS2
Ion mode: POSITIVE
Ionization: ESI
Fragmentation mode: HCD
Collision energy: 35  (nominal)
Resolution: 35000
Column name: Kinetex C18 EVO 2.6 um, 2.1x50 mm, precolumn 2.1x5 mm, Phenomenex
Retention time: 9.162 min
Base peak: 274.2524
Precursor m/z: 274.2529
Precursor type: [M+H]+
m/z	relative intensity	assigned
57.0701	25	C4H9+
69.07	3	C5H9+
84.0807	2	C5H10N+
85.089	1	C5H11N+
86.0964	95	C5H12N+
91.0542	3	C7H7+
105.0699	8	C8H9+
119.0855	9	C9H11+
132.0932	5	C10H12+
147.1168	132	C11H15+
161.1325	4	C12H17+
189.1637	4	C14H21+
218.1902	2	C15H24N+
259.2295	1	C18H29N+
274.2529	999	C19H32N+
