Mass spectrum: 2-Hydroxybenzothiazole; LC-ESI-QFT; MS2; CE: 35 NCE; R=35000; [M+H]+
Name: 2-Hydroxybenzothiazole
Name: Benzothiazolone
Name: 3H-1,3-benzothiazol-2-one
Formula: C7H5NOS
Exact mass: 151.00918
SMILES: O=C1NC2=C(S1)C=CC=C2
InChI: InChI=1S/C7H5NOS/c9-7-8-5-3-1-2-4-6(5)10-7/h1-4H,(H,8,9)
Instrument: Q Exactive Plus Orbitrap Thermo Scientific
Instrument type: LC-ESI-QFT
Ms type: MS2
Ion mode: POSITIVE
Ionization: ESI
Fragmentation mode: HCD
Collision energy: 35  (nominal)
Resolution: 35000
Column name: Kinetex C18 EVO 2.6 um, 2.1x50 mm, precolumn 2.1x5 mm, Phenomenex
Retention time: 7.587 min
Base peak: 237.015
Precursor m/z: 152.0165
Precursor type: [M+H]+
m/z	relative intensity	assigned
65.0386	3	C5H5+
80.0495	6	C5H6N+
92.0495	39	C6H6N+
97.0107	1	C5H5S+
109.0106	11	C6H5S+
119.0365	10	C7H5NO+
124.0215	47	C6H6NS+
152.0164	999	C7H6NOS+
