Mass spectrum: 3`-Aminoacetophenone; LC-ESI-QFT; MS2; CE: 35 NCE; R=35000; [M+H]+
Name: 3`-Aminoacetophenone
Name: 1-(3-aminophenyl)ethanone
Formula: C8H9NO
Exact mass: 135.06841
SMILES: CC(=O)C1=CC(N)=CC=C1
InChI: InChI=1S/C8H9NO/c1-6(10)7-3-2-4-8(9)5-7/h2-5H,9H2,1H3
Instrument: Q Exactive Plus Orbitrap Thermo Scientific
Instrument type: LC-ESI-QFT
Ms type: MS2
Ion mode: POSITIVE
Ionization: ESI
Fragmentation mode: HCD
Collision energy: 35  (nominal)
Resolution: 35000
Column name: Kinetex C18 EVO 2.6 um, 2.1x50 mm, precolumn 2.1x5 mm, Phenomenex
Retention time: 0.894 min
Base peak: 136.0754
Precursor m/z: 136.0757
Precursor type: [M+H]+
m/z	relative intensity	assigned
53.0388	1	C4H5+
65.0387	1	C5H5+
77.0385	4	C6H5+
91.0542	77	C7H7+
93.0571	2	C6H7N+
94.0651	704	C6H8N+
95.0491	3	C6H7O+
119.0491	21	C8H7O+
136.0756	999	C8H10NO+
147.0552	1	C8H7N2O+
