Mass spectrum: Flutamide; LC-ESI-QFT; MS2; CE: 35 NCE; R=35000; [M-H]-
Name: Flutamide
Name: 2-methyl-N-[4-nitro-3-(trifluoromethyl)phenyl]propanamide
Formula: C11H11F3N2O3
Exact mass: 276.07218
SMILES: CC(C)C(=O)Nc1ccc(c(c1)C(F)(F)F)[N+]([O-])=O
InChI: InChI=1S/C11H11F3N2O3/c1-6(2)10(17)15-7-3-4-9(16(18)19)8(5-7)11(12,13)14/h3-6H,1-2H3,(H,15,17)
Instrument: Q Exactive Plus Orbitrap Thermo Scientific
Instrument type: LC-ESI-QFT
Ms type: MS2
Ion mode: NEGATIVE
Ionization: ESI
Fragmentation mode: HCD
Collision energy: 35  (nominal)
Resolution: 35000
Column name: Kinetex C18 EVO 2.6 um, 2.1x50 mm, precolumn 2.1x5 mm, Phenomenex
Retention time: 11.263 min
Base peak: 275.0648
Precursor m/z: 275.0649
Precursor type: [M-H]-
m/z	relative intensity	assigned
134.0046	1	C7HFNO-
154.0109	5	C7H2F2NO-
155.0187	1	C7H3F2NO-
160.0379	33	C7H5F3N-
161.9997	1	C8HFNO2-
165.0105	1	C7H2FN2O2-
171.0136	1	C7H3F2NO2-
173.0094	1	C7H2F3NO-
174.0171	1	C7H3F3NO-
175.0251	7	C7H4F3NO-
182.0059	27	C8H2F2NO2-
186.0171	11	C8H3F3NO-
190.0118	2	C7H3F3NO2-
191.0199	1	C7H4F3NO2-
202.0121	242	C8H3F3NO2-
205.023	124	C7H4F3N2O2-
206.007	7	C7H3F3NO3-
218.0432	1	C9H7F3NO2-
229.0721	13	C11H10F3NO-
232.0101	14	C8H3F3N2O3-
259.0338	1	C10H6F3N2O3-
275.065	999	C11H10F3N2O3-
