Mass spectrum: Propachlor; LC-ESI-QFT; MS2; CE: 35 NCE; R=35000; [M+H]+
Name: Propachlor
Name: 2-chloro-N-phenyl-N-propan-2-ylacetamide
Formula: C11H14ClNO
Exact mass: 211.07639
SMILES: CC(C)N(C(=O)CCl)c1ccccc1
InChI: InChI=1S/C11H14ClNO/c1-9(2)13(11(14)8-12)10-6-4-3-5-7-10/h3-7,9H,8H2,1-2H3
Instrument: Q Exactive Plus Orbitrap Thermo Scientific
Instrument type: LC-ESI-QFT
Ms type: MS2
Ion mode: POSITIVE
Ionization: ESI
Fragmentation mode: HCD
Collision energy: 35  (nominal)
Resolution: 35000
Column name: Kinetex C18 EVO 2.6 um, 2.1x50 mm, precolumn 2.1x5 mm, Phenomenex
Retention time: 10.144 min
Base peak: 207.1489
Precursor m/z: 212.0837
Precursor type: [M+H]+
m/z	relative intensity	assigned
76.9789	11	C2H2ClO+
77.0384	3	C6H5+
79.0542	5	C6H7+
91.0542	8	C7H7+
93.0573	1	C6H7N+
94.0651	138	C6H8N+
95.0491	35	C6H7O+
105.0447	1	C6H5N2+
106.0651	113	C7H8N+
134.06	15	C8H8NO+
134.0965	4	C9H12N+
152.0262	59	C8H7ClN+
170.0367	999	C8H9ClNO+
194.0727	2	C11H13ClN+
212.0837	358	C11H15ClNO+
