Mass spectrum: N-Butylbenzenesulfonamide; LC-ESI-QFT; MS2; CE: 35 NCE; R=35000; [M+H]+
Name: N-Butylbenzenesulfonamide
Formula: C10H15NO2S
Exact mass: 213.08235
SMILES: CCCCNS(=O)(=O)C1=CC=CC=C1
InChI: InChI=1S/C10H15NO2S/c1-2-3-9-11-14(12,13)10-7-5-4-6-8-10/h4-8,11H,2-3,9H2,1H3
Instrument: Q Exactive Plus Orbitrap Thermo Scientific
Instrument type: LC-ESI-QFT
Ms type: MS2
Ion mode: POSITIVE
Ionization: ESI
Fragmentation mode: HCD
Collision energy: 35  (nominal)
Resolution: 35000
Column name: Kinetex C18 EVO 2.6 um, 2.1x50 mm, precolumn 2.1x5 mm, Phenomenex
Retention time: 9.862 min
Base peak: 214.0894
Precursor m/z: 214.0896
Precursor type: [M+H]+
m/z	relative intensity	assigned
51.0231	12	C4H3+
53.0388	117	C4H5+
55.018	5	C3H3O+
57.0701	77	C4H9+
72.0808	35	C4H10N+
77.0386	255	C6H5+
79.0543	4	C6H7+
81.0335	15	C5H5O+
81.0699	4	C6H9+
94.0413	32	C6H6O+
95.0492	473	C6H7O+
105.0448	164	C6H5N2+
109.0648	6	C7H9O+
141.0004	999	C6H5O2S+
149.0234	1	C8H5O3+
158.0271	677	C6H8NO2S+
173.0268	3	C7H9O3S+
214.0896	96	C10H16NO2S+
