Mass spectrum: Secobarbital; LC-ESI-QFT; MS2; CE: 35 NCE; R=35000; [M-H]-
Name: Secobarbital
Name: 5-Pentan-2-yl-5-prop-2-enyl-1,3-diazinane-2,4,6-trione
Formula: C12H18N2O3
Exact mass: 238.13174
SMILES: CCCC(C)C1(CC=C)C(=O)NC(=O)NC1=O
InChI: InChI=1S/C12H18N2O3/c1-4-6-8(3)12(7-5-2)9(15)13-11(17)14-10(12)16/h5,8H,2,4,6-7H2,1,3H3,(H2,13,14,15,16,17)
Instrument: Q Exactive Plus Orbitrap Thermo Scientific
Instrument type: LC-ESI-QFT
Ms type: MS2
Ion mode: NEGATIVE
Ionization: ESI
Fragmentation mode: HCD
Collision energy: 35  (nominal)
Resolution: 35000
Column name: Kinetex C18 EVO 2.6 um, 2.1x50 mm, precolumn 2.1x5 mm, Phenomenex
Retention time: 10.048 min
Base peak: 445.1868
Precursor m/z: 237.1245
Precursor type: [M-H]-
m/z	relative intensity	assigned
194.1189	214	C11H16NO2-
237.1245	999	C12H17N2O3-
