Mass spectrum: Terbuthylazine; LC-ESI-QFT; MS2; CE: 35 NCE; R=35000; [M+H]+
Name: Terbuthylazine
Name: 2-N-tert-butyl-6-chloro-4-N-ethyl-1,3,5-triazine-2,4-diamine
Formula: C9H16ClN5
Exact mass: 229.10942
SMILES: CCNc1nc(Cl)nc(NC(C)(C)C)n1
InChI: InChI=1S/C9H16ClN5/c1-5-11-7-12-6(10)13-8(14-7)15-9(2,3)4/h5H2,1-4H3,(H2,11,12,13,14,15)
Instrument: Q Exactive Plus Orbitrap Thermo Scientific
Instrument type: LC-ESI-QFT
Ms type: MS2
Ion mode: POSITIVE
Ionization: ESI
Fragmentation mode: HCD
Collision energy: 35  (nominal)
Resolution: 35000
Column name: Kinetex C18 EVO 2.6 um, 2.1x50 mm, precolumn 2.1x5 mm, Phenomenex
Retention time: 11.127 min
Base peak: 230.1163
Precursor m/z: 230.1167
Precursor type: [M+H]+
m/z	relative intensity	assigned
57.07	11	C4H9+
61.9792	2	CHClN+
68.0244	18	C2H2N3+
71.0604	12	C3H7N2+
79.0058	73	CH4ClN2+
90.0105	2	C3H5ClN+
96.0556	79	C4H6N3+
104.001	31	C2H3ClN3+
110.0461	6	C3H4N5+
128.0565	1	C3H6N5O+
132.0322	72	C4H7ClN3+
138.0773	20	C5H8N5+
146.0227	55	C3H5ClN5+
174.0541	999	C5H9ClN5+
230.1167	585	C9H17ClN5+
