Mass spectrum: Dibutyl phthalate; LC-ESI-QFT; MS2; CE: 35 NCE; R=35000; [M+H]+
Name: Dibutyl phthalate
Name: dibutyl benzene-1,2-dicarboxylate
Formula: C16H22O4
Exact mass: 278.15181
SMILES: CCCCOC(=O)C1=CC=CC=C1C(=O)OCCCC
InChI: InChI=1S/C16H22O4/c1-3-5-11-19-15(17)13-9-7-8-10-14(13)16(18)20-12-6-4-2/h7-10H,3-6,11-12H2,1-2H3
Instrument: Q Exactive Plus Orbitrap Thermo Scientific
Instrument type: LC-ESI-QFT
Ms type: MS2
Ion mode: POSITIVE
Ionization: ESI
Fragmentation mode: HCD
Collision energy: 35  (nominal)
Resolution: 35000
Column name: Kinetex C18 EVO 2.6 um, 2.1x50 mm, precolumn 2.1x5 mm, Phenomenex
Retention time: 13.194 min
Base peak: 279.159
Precursor m/z: 279.1591
Precursor type: [M+H]+
m/z	relative intensity	assigned
57.0701	27	C4H9+
65.0386	2	C5H5+
93.0336	1	C6H5O+
121.0285	19	C7H5O2+
121.0394	1	C6H5N2O+
149.0234	999	C8H5O3+
163.0391	23	C9H7O3+
167.034	1	C8H7O4+
181.0496	25	C9H9O4+
205.0861	33	C12H13O3+
