Mass spectrum: 4-Hydroxybenzotriazole; LC-ESI-QFT; MS2; CE: 35 NCE; R=35000; [M+H]+
Name: 4-Hydroxybenzotriazole
Name: 1,2-dihydrobenzotriazol-4-one
Name: 2H-benzotriazol-4-ol
Name: 4-Hydroxy-1H-benzotriazole
Formula: C6H5N3O
Exact mass: 135.04326178
SMILES: C1=CC2=NNN=C2C(=C1)O
InChI: InChI=1S/C6H5N3O/c10-5-3-1-2-4-6(5)8-9-7-4/h1-3,10H,(H,7,8,9)
Instrument: Q Exactive Plus Orbitrap Thermo Scientific
Instrument type: LC-ESI-QFT
Ms type: MS2
Ion mode: POSITIVE
Ionization: ESI
Fragmentation mode: HCD
Collision energy: 35  (nominal)
Resolution: 35000
Column name: Kinetex C18 EVO 2.6 um, 2.1x50 mm, precolumn 2.1x5 mm, Phenomenex
Retention time: 1.545 min
Base peak: 136.0504
Precursor m/z: 136.0505
Precursor type: [M+H]+
m/z	relative intensity	assigned
53.0388	2	C4H5+
54.034	1	C3H4N+
63.0229	1	C5H3+
68.0132	1	C3H2NO+
80.0495	65	C5H6N+
81.0335	5	C5H5O+
90.0338	2	C6H4N+
108.0444	6	C6H6NO+
136.0505	999	C6H6N3O+
