Mass spectrum: Oxybenzone; LC-ESI-QFT; MS2; CE: 35 NCE; R=35000; [M+H]+
Name: Oxybenzone
Name: 2-hydroxy-4-methoxy-benzophenone
Name: (2-hydroxy-4-methoxyphenyl)-phenylmethanone
Formula: C14H12O3
Exact mass: 228.07864
SMILES: COC1=CC(O)=C(C=C1)C(=O)C1=CC=CC=C1
InChI: InChI=1S/C14H12O3/c1-17-11-7-8-12(13(15)9-11)14(16)10-5-3-2-4-6-10/h2-9,15H,1H3
Instrument: Q Exactive Plus Orbitrap Thermo Scientific
Instrument type: LC-ESI-QFT
Ms type: MS2
Ion mode: POSITIVE
Ionization: ESI
Fragmentation mode: HCD
Collision energy: 35  (nominal)
Resolution: 35000
Column name: Kinetex C18 EVO 2.6 um, 2.1x50 mm, precolumn 2.1x5 mm, Phenomenex
Retention time: 11.968 min
Base peak: 65.0597
Precursor m/z: 229.0859
Precursor type: [M+H]+
m/z	relative intensity	assigned
53.0388	4	C4H5+
65.0386	2	C5H5+
67.0543	1	C5H7+
77.0385	9	C6H5+
81.0334	1	C5H5O+
94.0413	1	C6H6O+
95.0491	51	C6H7O+
105.0334	457	C7H5O+
108.0204	4	C6H4O2+
123.044	6	C7H7O2+
151.0389	999	C8H7O3+
168.0569	1	C12H8O+
169.0497	1	C8H9O4+
229.0859	806	C14H13O3+
