Mass spectrum: Linuron; LC-ESI-QFT; MS2; CE: 35 NCE; R=35000; [M+H]+
Name: Linuron
Name: 3-(3,4-dichlorophenyl)-1-methoxy-1-methylurea
Formula: C9H10Cl2N2O2
Exact mass: 248.01193
SMILES: CON(C)C(=O)Nc1ccc(Cl)c(Cl)c1
InChI: InChI=1S/C9H10Cl2N2O2/c1-13(15-2)9(14)12-6-3-4-7(10)8(11)5-6/h3-5H,1-2H3,(H,12,14)
Instrument: Q Exactive Plus Orbitrap Thermo Scientific
Instrument type: LC-ESI-QFT
Ms type: MS2
Ion mode: POSITIVE
Ionization: ESI
Fragmentation mode: HCD
Collision energy: 35  (nominal)
Resolution: 35000
Column name: Kinetex C18 EVO 2.6 um, 2.1x50 mm, precolumn 2.1x5 mm, Phenomenex
Retention time: 10.844 min
Base peak: 249.019
Precursor m/z: 249.0192
Precursor type: [M+H]+
m/z	relative intensity	assigned
58.029	1	C2H4NO+
60.0446	135	C2H6NO+
62.0602	190	C2H8NO+
88.0393	37	C3H6NO2+
106.0499	12	ClH11N2O2+
120.0655	8	C4H10NO3+
123.9948	18	C6H3ClN+
125.0027	56	C6H4ClN+
127.0185	2	C6H6ClN+
132.9606	149	C5H3Cl2+
140.0263	1	C7H7ClN+
142.0056	3	C6H5ClNO+
147.0553	2	C8H7N2O+
153.0214	54	C7H6ClN2+
154.029	5	C7H7ClN2+
157.0291	1	C7H8ClNO+
159.9716	999	C6H4Cl2N+
160.9794	219	C6H5Cl2N+
165.0215	9	C8H6ClN2+
167.0007	2	C7H4ClN2O+
174.9951	3	C7H7Cl2N+
176.9744	1	C6H5Cl2NO+
181.0163	38	C8H6ClN2O+
182.0241	767	C8H7ClN2O+
187.9664	13	C7H4Cl2NO+
188.9983	1	C7H7Cl2N2+
191.998	8	C7H8Cl2NO+
216.9931	63	C8H7Cl2N2O+
218.001	24	C8H8Cl2N2O+
249.0193	690	C9H11Cl2N2O2+
