Mass spectrum: Perfluorooctanesulfonamide; LC-ESI-QFT; MS2; CE: 35 NCE; R=35000; [M-H]-
Name: Perfluorooctanesulfonamide
Name: 1,1,2,2,3,3,4,4,5,5,6,6,7,7,8,8,8-heptadecafluorooctane-1-sulfonamide
Formula: C8H2F17NO2S
Exact mass: 498.95348
SMILES: NS(=O)(=O)C(F)(F)C(F)(F)C(F)(F)C(F)(F)C(F)(F)C(F)(F)C(F)(F)C(F)(F)F
InChI: InChI=1S/C8H2F17NO2S/c9-1(10,3(13,14)5(17,18)7(21,22)23)2(11,12)4(15,16)6(19,20)8(24,25)29(26,27)28/h(H2,26,27,28)
Instrument: Q Exactive Plus Orbitrap Thermo Scientific
Instrument type: LC-ESI-QFT
Ms type: MS2
Ion mode: NEGATIVE
Ionization: ESI
Fragmentation mode: HCD
Collision energy: 35  (nominal)
Resolution: 35000
Column name: Kinetex C18 EVO 2.6 um, 2.1x50 mm, precolumn 2.1x5 mm, Phenomenex
Retention time: 13.447 min
Base peak: 497.9462
Precursor m/z: 497.9462
Precursor type: [M-H]-
m/z	relative intensity	assigned
118.992	6	C2F5-
168.9892	13	C3F7-
218.9863	4	C4F9-
477.9399	6	C8F16NO2S-
497.9466	999	C8HF17NO2S-
