Mass spectrum: Benzophenone-4; LC-ESI-QFT; MS2; CE: 35 NCE; R=35000; [M-H]-
Name: Benzophenone-4
Name: Sulisobenzone
Name: 5-benzoyl-4-hydroxy-2-methoxybenzenesulfonic acid
Formula: C14H12O6S
Exact mass: 308.03546
SMILES: COC1=CC(O)=C(C=C1S(O)(=O)=O)C(=O)C1=CC=CC=C1
InChI: InChI=1S/C14H12O6S/c1-20-12-8-11(15)10(7-13(12)21(17,18)19)14(16)9-5-3-2-4-6-9/h2-8,15H,1H3,(H,17,18,19)
Instrument: Q Exactive Plus Orbitrap Thermo Scientific
Instrument type: LC-ESI-QFT
Ms type: MS2
Ion mode: NEGATIVE
Ionization: ESI
Fragmentation mode: HCD
Collision energy: 35  (nominal)
Resolution: 35000
Column name: Kinetex C18 EVO 2.6 um, 2.1x50 mm, precolumn 2.1x5 mm, Phenomenex
Retention time: 10.276 min
Base peak: 307.028
Precursor m/z: 307.0282
Precursor type: [M-H]-
m/z	relative intensity	assigned
122.0004	2	C6H2O3-
123.0082	1	C6H3O3-
145.0295	6	C9H5O2-
149.996	3	C7H2O4-
154.0424	3	C11H6O-
155.0504	1	C11H7O-
158.0373	3	C10H6O2-
182.0373	31	C12H6O2-
183.045	4	C12H7O2-
184.0531	6	C12H8O2-
185.9626	4	C6H2O5S-
197.0244	2	C12H5O3-
198.0322	4	C12H6O3-
199.0401	5	C12H7O3-
200.0479	16	C12H8O3-
200.9861	3	C7H5O5S-
210.0322	25	C13H6O3-
211.0401	62	C13H7O3-
212.048	15	C13H8O3-
213.9578	15	C7H2O6S-
226.027	2	C13H6O4-
227.0714	94	C14H11O3-
228.0428	52	C13H8O4-
228.9812	31	C8H5O6S-
263.002	13	C12H7O5S-
264.0098	15	C12H8O5S-
290.9969	47	C13H7O6S-
292.0046	9	C13H8O6S-
307.0281	999	C14H11O6S-
