Mass spectrum: Chloroxuron; LC-ESI-QFT; MS2; CE: 35 NCE; R=35000; [M+H]+
Name: Chloroxuron
Name: 3-[4-(4-chlorophenoxy)phenyl]-1,1-dimethylurea
Formula: C15H15ClN2O2
Exact mass: 290.08221
SMILES: CN(C)C(=O)Nc1ccc(Oc2ccc(Cl)cc2)cc1
InChI: InChI=1S/C15H15ClN2O2/c1-18(2)15(19)17-12-5-9-14(10-6-12)20-13-7-3-11(16)4-8-13/h3-10H,1-2H3,(H,17,19)
Instrument: Q Exactive Plus Orbitrap Thermo Scientific
Instrument type: LC-ESI-QFT
Ms type: MS2
Ion mode: POSITIVE
Ionization: ESI
Fragmentation mode: HCD
Collision energy: 35  (nominal)
Resolution: 35000
Column name: Kinetex C18 EVO 2.6 um, 2.1x50 mm, precolumn 2.1x5 mm, Phenomenex
Retention time: 11.638 min
Base peak: 291.0892
Precursor m/z: 291.0895
Precursor type: [M+H]+
m/z	relative intensity	assigned
56.0133	3	C2H2NO+
70.04	25	C2H4N3+
72.0444	999	C3H6NO+
106.0651	2	C7H8N+
118.0652	16	C8H8N+
119.073	5	C8H9N+
120.0806	1	C8H10N+
126.9944	2	C6H4ClO+
147.0679	7	C9H9NO+
163.0309	8	C10H8Cl+
163.0865	5	C9H11N2O+
164.0945	30	C9H12N2O+
218.0368	36	C12H9ClNO+
246.0316	2	C13H9ClNO2+
291.0896	818	C15H16ClN2O2+
