Mass spectrum: Bosentan; LC-ESI-QFT; MS2; CE: 35 NCE; R=35000; [M-H]-
Name: Bosentan
Name: 4-tert-butyl-N-[6-(2-hydroxyethoxy)-5-(2-methoxyphenoxy)-2-pyrimidin-2-ylpyrimidin-4-yl]benzenesulfonamide
Formula: C27H29N5O6S
Exact mass: 551.18385
SMILES: COC1=CC=CC=C1OC1=C(OCCO)N=C(N=C1NS(=O)(=O)C1=CC=C(C=C1)C(C)(C)C)C1=NC=CC=N1
InChI: InChI=1S/C27H29N5O6S/c1-27(2,3)18-10-12-19(13-11-18)39(34,35)32-23-22(38-21-9-6-5-8-20(21)36-4)26(37-17-16-33)31-25(30-23)24-28-14-7-15-29-24/h5-15,33H,16-17H2,1-4H3,(H,30,31,32)
Instrument: Q Exactive Plus Orbitrap Thermo Scientific
Instrument type: LC-ESI-QFT
Ms type: MS2
Ion mode: NEGATIVE
Ionization: ESI
Fragmentation mode: HCD
Collision energy: 35  (nominal)
Resolution: 35000
Column name: Kinetex C18 EVO 2.6 um, 2.1x50 mm, precolumn 2.1x5 mm, Phenomenex
Retention time: 12.100 min
Base peak: 380.0684
Precursor m/z: 550.1766
Precursor type: [M-H]-
m/z	relative intensity	assigned
108.0207	4	C4H2N3O-
118.0291	14	C5H2N4-
119.0356	1	C4H7O4-
132.0327	4	C7H4N2O-
134.0246	9	C7H4NO2-
147.0563	3	C8H7N2O-
149.0972	37	C10H13O-
158.0361	6	C8H4N3O-
173.0343	11	C7H3N5O-
173.0467	1	C8H5N4O-
173.1084	6	C11H13N2-
175.0262	2	C7H3N4O2-
177.0925	1	C11H13O2-
181.0332	3	C9H9O2S-
185.034	2	C8H3N5O-
197.0641	790	C10H13O2S-
200.0577	6	C9H6N5O-
201.0418	19	C9H5N4O2-
202.0371	7	C8H4N5O2-
203.0459	1	C10H7N2O3-
212.0748	1	C10H14NO2S-
246.076	7	C11H10N4O3-
248.0574	4	C13H6N5O-
249.0658	7	C13H7N5O-
250.0736	2	C13H8N5O-
262.0735	1	C14H8N5O-
265.0608	5	C13H7N5O2-
276.0528	2	C14H6N5O2-
277.0604	28	C14H7N5O2-
278.0682	31	C14H8N5O2-
280.084	6	C14H10N5O2-
293.0556	5	C14H7N5O3-
294.0637	2	C8H14N4O6S-
306.1359	1	C17H16N5O-
308.0789	38	C15H10N5O3-
318.1354	1	C18H16N5O-
322.0948	7	C16H12N5O3-
334.131	3	C18H16N5O2-
338.09	4	C16H12N5O4-
370.0987	2	C25H12N3O-
396.1139	1	C19H18N5O3S-
398.0926	1	C18H16N5O4S-
413.1862	2	C24H23N5O2-
440.1728	2	C25H22N5O3-
458.0945	3	C25H18N2O5S-
474.1247	10	C24H20N5O4S-
506.1509	6	C25H24N5O5S-
550.1766	999	C27H28N5O6S-
