Mass spectrum: 2-Benzothiazolesulfonic acid; LC-ESI-QFT; MS2; CE: 35 NCE; R=35000; [M+H]+
Name: 2-Benzothiazolesulfonic acid
Name: Benzothiazole-2-sulfonic acid
Name: 1,3-benzothiazole-2-sulfonic acid
Formula: C7H5NO3S2
Exact mass: 214.97108
SMILES: OS(=O)(=O)C1=NC2=CC=CC=C2S1
InChI: InChI=1S/C7H5NO3S2/c9-13(10,11)7-8-5-3-1-2-4-6(5)12-7/h1-4H,(H,9,10,11)
Instrument: Q Exactive Plus Orbitrap Thermo Scientific
Instrument type: LC-ESI-QFT
Ms type: MS2
Ion mode: POSITIVE
Ionization: ESI
Fragmentation mode: HCD
Collision energy: 35  (nominal)
Resolution: 35000
Column name: Kinetex C18 EVO 2.6 um, 2.1x50 mm, precolumn 2.1x5 mm, Phenomenex
Retention time: 7.040 min
Base peak: 134.0711
Precursor m/z: 215.9784
Precursor type: [M+H]+
m/z	relative intensity	assigned
68.0496	1	C4H6N+
78.0339	12	C5H4N+
82.995	1	C4H3S+
90.0338	11	C6H4N+
92.0495	37	C6H6N+
94.995	4	C5H3S+
96.0444	6	C5H6NO+
98.006	1	C4H4NS+
106.0287	68	C6H4NO+
106.995	2	C6H3S+
108.998	1	C5H3NS+
109.0107	8	C6H5S+
110.0059	6	C5H4NS+
114.9671	11	C4H3S2+
122.0059	7	C6H4NS+
124.0216	36	C6H6NS+
124.0393	2	C6H6NO2+
134.0059	268	C7H4NS+
135.0134	3	C7H5NS+
136.0213	2	C7H6NS+
138.0008	9	C6H4NOS+
141.978	34	C5H4NS2+
150.0011	3	C7H4NOS+
151.0086	1	C7H5NOS+
152.0165	219	C7H6NOS+
153.978	63	C6H4NS2+
162.012	21	C7H4N3S+
169.9729	155	C6H4NOS2+
215.9784	999	C7H6NO3S2+
