Mass spectrum: Butylamine; LC-ESI-QFT; MS2; CE: 35 NCE; R=35000; [M+H]+
Name: Butylamine
Name: Butan-1-amine
Formula: C4H11N
Exact mass: 73.08915
SMILES: CCCCN
InChI: InChI=1S/C4H11N/c1-2-3-4-5/h2-5H2,1H3
Instrument: Q Exactive Plus Orbitrap Thermo Scientific
Instrument type: LC-ESI-QFT
Ms type: MS2
Ion mode: POSITIVE
Ionization: ESI
Fragmentation mode: HCD
Collision energy: 35  (nominal)
Resolution: 35000
Column name: Kinetex C18 EVO 2.6 um, 2.1x50 mm, precolumn 2.1x5 mm, Phenomenex
Retention time: 0.400 min
Base peak: 117.0908
Precursor m/z: 74.0964
Precursor type: [M+H]+
m/z	relative intensity	assigned
53.0024	14	C3HO+
53.9977	3	C2NO+
55.0544	2	C4H7+
56.0496	2	C3H6N+
57.07	999	C4H9+
74.0965	434	C4H12N+
