Mass spectrum: Flurtamone; LC-ESI-QFT; MS2; CE: 35 NCE; R=35000; [M+H]+
Name: Flurtamone
Name: 5-(methylamino)-2-phenyl-4-[3-(trifluoromethyl)phenyl]furan-3-one
Formula: C18H14F3NO2
Exact mass: 333.09766
SMILES: CNC1=C(C(=O)C(O1)c1ccccc1)c1cccc(c1)C(F)(F)F
InChI: InChI=1S/C18H14F3NO2/c1-22-17-14(12-8-5-9-13(10-12)18(19,20)21)15(23)16(24-17)11-6-3-2-4-7-11/h2-10,16,22H,1H3
Instrument: Q Exactive Plus Orbitrap Thermo Scientific
Instrument type: LC-ESI-QFT
Ms type: MS2
Ion mode: POSITIVE
Ionization: ESI
Fragmentation mode: HCD
Collision energy: 35  (nominal)
Resolution: 35000
Column name: Kinetex C18 EVO 2.6 um, 2.1x50 mm, precolumn 2.1x5 mm, Phenomenex
Retention time: 11.240 min
Base peak: 334.1044
Precursor m/z: 334.1049
Precursor type: [M+H]+
m/z	relative intensity	assigned
53.0388	2	C4H5+
58.0289	48	C2H4NO+
77.0385	3	C6H5+
91.0542	2	C7H7+
95.0492	8	C6H7O+
103.0542	20	C8H7+
105.0335	186	C7H5O+
118.0651	1	C8H8N+
120.0808	43	C8H10N+
131.0491	16	C9H7O+
159.0414	1	C8H6F3+
171.0415	14	C9H6F3+
173.0209	2	C8H4F3O+
178.0777	82	C14H10+
188.0683	1	C9H9F3N+
196.0687	3	C14H9F+
197.021	9	C10H4F3O+
199.0364	8	C10H6F3O+
200.0681	1	C10H9F3N+
207.0605	16	C15H8F+
209.0762	10	C15H10F+
210.0524	2	C11H7F3N+
214.0584	1	C14H8F2+
225.0157	15	C11H4F3O2+
227.0666	73	C15H9F2+
228.0631	5	C11H9F3NO+
229.0823	6	C15H11F2+
237.0712	5	C16H10FO+
238.0469	2	C12H7F3NO+
243.0263	5	C14H5F2O2+
246.0652	3	C15H9F3+
247.0729	387	C15H10F3+
249.0885	4	C15H12F3+
255.0613	1	C16H9F2O+
255.081	1	C16H12FO2+
256.0578	9	C12H9F3NO2+
257.0427	1	C12H8F3O3+
257.0771	12	C16H11F2O+
259.0735	2	C16H10F3+
262.0598	1	C15H9F3O+
269.0979	2	C17H14FO2+
275.0678	87	C16H10F3O+
275.0874	15	C16H13F2O2+
277.0835	24	C16H12F3O+
278.1149	2	C16H15F3N+
279.0999	2	C16H14F3O+
283.056	1	C17H9F2O2+
286.1039	4	C17H14F2NO+
288.0994	9	C17H13F3N+
303.0628	84	C17H10F3O2+
306.11	62	C17H15F3NO+
314.098	2	C18H14F2NO2+
316.0948	7	C18H13F3NO+
334.1049	999	C18H15F3NO2+
