Mass spectrum: 4-Bromophenol; LC-ESI-QFT; MS2; CE: 35 NCE; R=35000; [M-H]-
Name: 4-Bromophenol
Formula: C6H5BrO
Exact mass: 171.95238
SMILES: Oc1ccc(Br)cc1
InChI: InChI=1S/C6H5BrO/c7-5-1-3-6(8)4-2-5/h1-4,8H
Instrument: Q Exactive Plus Orbitrap Thermo Scientific
Instrument type: LC-ESI-QFT
Ms type: MS2
Ion mode: NEGATIVE
Ionization: ESI
Fragmentation mode: HCD
Collision energy: 35  (nominal)
Resolution: 35000
Column name: Kinetex C18 EVO 2.6 um, 2.1x50 mm, precolumn 2.1x5 mm, Phenomenex
Retention time: 8.428 min
Base peak: 112.9848
Precursor m/z: 170.9451
Precursor type: [M-H]-
m/z	relative intensity	assigned
142.9466	67	BrH4N2O2-
170.9451	999	C6H4BrO-
