Mass spectrum: Irbesartan; LC-ESI-QFT; MS2; CE: 35 NCE; R=35000; [M-H]-
Name: Irbesartan
Name: 2-butyl-3-[[4-[2-(2H-tetrazol-5-yl)phenyl]phenyl]methyl]-1,3-diazaspiro[4.4]non-1-en-4-one
Formula: C25H28N6O
Exact mass: 428.23246
SMILES: CCCCC1=NC2(CCCC2)C(=O)N1Cc1ccc(-c2ccccc2C2NN=NN=2)cc1
InChI: InChI=1S/C25H28N6O/c1-2-3-10-22-26-25(15-6-7-16-25)24(32)31(22)17-18-11-13-19(14-12-18)20-8-4-5-9-21(20)23-27-29-30-28-23/h4-5,8-9,11-14H,2-3,6-7,10,15-17H2,1H3,(H,27,28,29,30)
Instrument: Q Exactive Plus Orbitrap Thermo Scientific
Instrument type: LC-ESI-QFT
Ms type: MS2
Ion mode: NEGATIVE
Ionization: ESI
Fragmentation mode: HCD
Collision energy: 35  (nominal)
Resolution: 35000
Column name: Kinetex C18 EVO 2.6 um, 2.1x50 mm, precolumn 2.1x5 mm, Phenomenex
Retention time: 10.884 min
Base peak: 421.155
Precursor m/z: 427.2252
Precursor type: [M-H]-
m/z	relative intensity	assigned
95.0238	3	C2HN5-
110.0602	3	C4H6N4-
138.0798	19	C7H10N2O-
139.0876	4	C7H11N2O-
151.0877	7	C8H11N2O-
164.0955	38	C9H12N2O-
175.1241	7	C11H15N2-
177.071	5	C14H9-
193.1346	999	C11H17N2O-
195.0815	13	C14H11O-
287.1552	5	C20H19N2-
353.2019	4	C25H25N2-
371.2134	3	C25H27N2O-
399.219	44	C25H27N4O-
427.225	570	C25H27N6O-
