Mass spectrum: Hexa(methoxymethyl)melamine; LC-ESI-QFT; MS2; CE: 35 NCE; R=35000; [M+H]+
Name: Hexa(methoxymethyl)melamine
Name: 2-N,2-N,4-N,4-N,6-N,6-N-hexakis(methoxymethyl)-1,3,5-triazine-2,4,6-triamine
Formula: C15H30N6O6
Exact mass: 390.22268
SMILES: COCN(COC)C1=NC(=NC(=N1)N(COC)COC)N(COC)COC
InChI: InChI=1S/C15H30N6O6/c1-22-7-19(8-23-2)13-16-14(20(9-24-3)10-25-4)18-15(17-13)21(11-26-5)12-27-6/h7-12H2,1-6H3
Instrument: Q Exactive Plus Orbitrap Thermo Scientific
Instrument type: LC-ESI-QFT
Ms type: MS2
Ion mode: POSITIVE
Ionization: ESI
Fragmentation mode: HCD
Collision energy: 35  (nominal)
Resolution: 35000
Column name: Kinetex C18 EVO 2.6 um, 2.1x50 mm, precolumn 2.1x5 mm, Phenomenex
Retention time: 9.937 min
Base peak: 242.143
Precursor m/z: 391.23
Precursor type: [M+H]+
m/z	relative intensity	assigned
69.0448	19	C3H5N2+
80.0247	4	C3H2N3+
82.0401	1	C3H4N3+
96.0556	14	C4H6N3+
123.0665	3	C5H7N4+
148.062	3	C6H6N5+
150.0774	3	C6H8N5+
177.0884	999	C7H9N6+
191.1044	2	C8H11N6+
193.1199	10	C8H13N6+
207.099	329	C8H11N6O+
209.1147	9	C8H13N6O+
221.1151	1	C9H13N6O+
223.1302	2	C9H15N6O+
239.1251	4	C9H15N6O2+
253.1408	28	C10H17N6O2+
269.1357	15	C10H17N6O3+
283.1515	496	C11H19N6O3+
285.1673	1	C11H21N6O3+
301.1622	24	C11H21N6O4+
315.1779	21	C12H23N6O4+
329.1937	13	C13H25N6O4+
345.1882	2	C13H25N6O5+
359.204	98	C14H27N6O5+
377.2146	22	C14H29N6O6+
391.2299	14	C15H31N6O6+
