Mass spectrum: 4-Methoxycinnamic acid; LC-ESI-QFT; MS2; CE: 35 NCE; R=35000; [M+H]+
Name: 4-Methoxycinnamic acid
Name: (E)-3-(4-methoxyphenyl)prop-2-enoic acid
Formula: C10H10O3
Exact mass: 178.06299
SMILES: COC1=CC=C(\C=C\C(O)=O)C=C1
InChI: InChI=1S/C10H10O3/c1-13-9-5-2-8(3-6-9)4-7-10(11)12/h2-7H,1H3,(H,11,12)/b7-4+
Instrument: Q Exactive Plus Orbitrap Thermo Scientific
Instrument type: LC-ESI-QFT
Ms type: MS2
Ion mode: POSITIVE
Ionization: ESI
Fragmentation mode: HCD
Collision energy: 35  (nominal)
Resolution: 35000
Column name: Kinetex C18 EVO 2.6 um, 2.1x50 mm, precolumn 2.1x5 mm, Phenomenex
Retention time: 14.637 min
Base peak: 164.9845
Precursor m/z: 179.0703
Precursor type: [M+H]+
m/z	relative intensity	assigned
77.0388	1	C6H5+
79.0543	17	C6H7+
90.0464	2	C7H6+
91.0543	1	C7H7+
94.0414	1	C6H6O+
95.0491	2	C6H7O+
103.0542	19	C8H7+
105.0699	17	C8H9+
109.0648	5	C7H9O+
118.0413	29	C8H6O+
132.0684	1	C8H8N2+
133.0648	304	C9H9O+
137.0597	7	C8H9O2+
146.0362	1	C9H6O2+
146.9949	1	C7HNO3+
161.0597	999	C10H9O2+
179.0704	13	C10H11O3+
