Mass spectrum: 6-Ethoxy-2-mercaptobenzothiazole; LC-ESI-QFT; MS2; CE: 35 NCE; R=35000; [M+H]+
Name: 6-Ethoxy-2-mercaptobenzothiazole
Name: 6-ethoxy-3H-1,3-benzothiazole-2-thione
Formula: C9H9NOS2
Exact mass: 211.01256
SMILES: CCOC1=CC=C2N=C(S)SC2=C1
InChI: InChI=1S/C9H9NOS2/c1-2-11-6-3-4-7-8(5-6)13-9(12)10-7/h3-5H,2H2,1H3,(H,10,12)
Instrument: Q Exactive Plus Orbitrap Thermo Scientific
Instrument type: LC-ESI-QFT
Ms type: MS2
Ion mode: POSITIVE
Ionization: ESI
Fragmentation mode: HCD
Collision energy: 35  (nominal)
Resolution: 35000
Column name: Kinetex C18 EVO 2.6 um, 2.1x50 mm, precolumn 2.1x5 mm, Phenomenex
Retention time: 9.973 min
Base peak: 391.2299
Precursor m/z: 212.0198
Precursor type: [M+H]+
m/z	relative intensity	assigned
108.0444	13	C6H6NO+
122.006	1	C6H4NS+
125.0056	5	C6H5OS+
126.0135	6	C6H6OS+
140.0165	8	C6H6NOS+
150.0009	18	C7H4NOS+
151.0087	101	C7H5NOS+
152.0165	14	C7H6NOS+
155.9937	1	C6H6NS2+
156.9776	1	C6H5OS2+
179.04	13	C9H9NOS+
180.0478	2	C9H10NOS+
182.9809	12	C7H5NOS2+
183.9887	478	C7H6NOS2+
212.0199	999	C9H10NOS2+
