Mass spectrum: Bentazone; LC-ESI-QFT; MS2; CE: 35 NCE; R=35000; [M-H]-
Name: Bentazone
Name: Bentazon
Name: 2,2-dioxo-3-propan-2-yl-1H-2$l^{6},1,3-benzothiadiazin-4-one
Formula: C10H12N2O3S
Exact mass: 240.05686
SMILES: CC(C)N1C(=O)c2ccccc2NS1(=O)=O
InChI: InChI=1S/C10H12N2O3S/c1-7(2)12-10(13)8-5-3-4-6-9(8)11-16(12,14)15/h3-7,11H,1-2H3
Instrument: Q Exactive Plus Orbitrap Thermo Scientific
Instrument type: LC-ESI-QFT
Ms type: MS2
Ion mode: NEGATIVE
Ionization: ESI
Fragmentation mode: HCD
Collision energy: 35  (nominal)
Resolution: 35000
Column name: Kinetex C18 EVO 2.6 um, 2.1x50 mm, precolumn 2.1x5 mm, Phenomenex
Retention time: 9.455 min
Base peak: 239.0495
Precursor m/z: 239.0496
Precursor type: [M-H]-
m/z	relative intensity	assigned
105.0334	3	C5H3N3-
132.0327	237	C7H4N2O-
133.0405	120	C7H5N2O-
145.0659	2	C10H9O-
147.0814	9	C10H11O-
159.0567	1	C9H7N2O-
175.0876	130	C10H11N2O-
195.9947	21	C7H4N2O3S-
197.0026	151	C7H5N2O3S-
239.0495	999	C10H11N2O3S-
