Mass spectrum: Triethylphosphate; LC-ESI-QFT; MS2; CE: 35 NCE; R=35000; [M+H]+
Name: Triethylphosphate
Name: Triethyl phosphate
Formula: C6H15O4P
Exact mass: 182.07080
SMILES: CCOP(=O)(OCC)OCC
InChI: InChI=1S/C6H15O4P/c1-4-8-11(7,9-5-2)10-6-3/h4-6H2,1-3H3
Instrument: Q Exactive Plus Orbitrap Thermo Scientific
Instrument type: LC-ESI-QFT
Ms type: MS2
Ion mode: POSITIVE
Ionization: ESI
Fragmentation mode: HCD
Collision energy: 35  (nominal)
Resolution: 35000
Column name: Kinetex C18 EVO 2.6 um, 2.1x50 mm, precolumn 2.1x5 mm, Phenomenex
Retention time: 7.875 min
Base peak: 183.0778
Precursor m/z: 183.0781
Precursor type: [M+H]+
m/z	relative intensity	assigned
80.9734	1	H2O3P+
81.9816	1	H3O3P+
98.9841	999	H4O4P+
116.9947	3	H6O5P+
127.0155	377	C2H8O4P+
131.0102	1	CH8O5P+
155.0467	151	C4H12O4P+
183.0781	33	C6H16O4P+
