Mass spectrum: Torasemide; LC-ESI-QFT; MS2; CE: 35 NCE; R=35000; [M+H]+
Name: Torasemide
Name: N-[4-(3-methylanilino)pyridin-1-ium-3-yl]sulfonyl-N`-propan-2-ylcarbamimidate
Formula: C16H20N4O3S
Exact mass: 348.12561
SMILES: CC(C)NC(=O)NS(=O)(=O)c1cnccc1Nc1cccc(C)c1
InChI: InChI=1S/C16H20N4O3S/c1-11(2)18-16(21)20-24(22,23)15-10-17-8-7-14(15)19-13-6-4-5-12(3)9-13/h4-11H,1-3H3,(H,17,19)(H2,18,20,21)
Instrument: Q Exactive Plus Orbitrap Thermo Scientific
Instrument type: LC-ESI-QFT
Ms type: MS2
Ion mode: POSITIVE
Ionization: ESI
Fragmentation mode: HCD
Collision energy: 35  (nominal)
Resolution: 35000
Column name: Kinetex C18 EVO 2.6 um, 2.1x50 mm, precolumn 2.1x5 mm, Phenomenex
Retention time: 8.525 min
Base peak: 349.1328
Precursor m/z: 349.1329
Precursor type: [M+H]+
m/z	relative intensity	assigned
67.0417	1	C4H5N+
81.0448	1	C4H5N2+
94.0651	1	C6H8N+
98.006	1	C4H4NS+
122.0601	11	C7H8NO+
125.0168	58	C5H5N2S+
126.0009	3	C5H4NOS+
126.0245	2	C5H6N2S+
128.0164	1	C5H6NOS+
129.0698	1	C10H9+
137.0168	5	C6H5N2S+
153.0117	3	C6H5N2OS+
156.0808	3	C11H10N+
168.0682	64	C11H8N2+
169.0761	2	C11H9N2+
176.0404	1	C9H8N2S+
181.076	4	C12H9N2+
182.084	19	C12H10N2+
183.0918	200	C12H11N2+
184.0632	1	C11H8N2O+
185.0711	4	C11H9N2O+
186.0789	1	C11H10N2O+
191.0638	17	C10H11N2S+
198.0789	22	C12H10N2O+
199.0867	23	C12H11N2O+
201.0482	18	C11H9N2S+
202.056	1	C11H10N2S+
204.035	1	C10H8N2OS+
205.0431	1	C10H9N2OS+
214.0737	2	C12H10N2O2+
219.0588	43	C11H11N2OS+
229.0431	8	C12H9N2OS+
230.051	38	C12H10N2OS+
232.0299	1	C11H8N2O2S+
247.0537	34	C12H11N2O2S+
264.0803	999	C12H14N3O2S+
290.0595	198	C13H12N3O3S+
349.1331	138	C16H21N4O3S+
