Mass spectrum: Clothianidin; LC-ESI-QFT; MS2; CE: 35 NCE; R=35000; [M-H]-
Name: Clothianidin
Name: 1-[(2-chloro-1,3-thiazol-5-yl)methyl]-2-methyl-3-nitroguanidine
Formula: C6H8ClN5O2S
Exact mass: 249.00872
SMILES: CN=C(NCC1=CN=C(Cl)S1)N[N+]([O-])=O
InChI: InChI=1S/C6H8ClN5O2S/c1-8-6(11-12(13)14)10-3-4-2-9-5(7)15-4/h2H,3H2,1H3,(H2,8,10,11)
Instrument: Q Exactive Plus Orbitrap Thermo Scientific
Instrument type: LC-ESI-QFT
Ms type: MS2
Ion mode: NEGATIVE
Ionization: ESI
Fragmentation mode: HCD
Collision energy: 35  (nominal)
Resolution: 35000
Column name: Kinetex C18 EVO 2.6 um, 2.1x50 mm, precolumn 2.1x5 mm, Phenomenex
Retention time: 5.970 min
Base peak: 248.0014
Precursor m/z: 248.0014
Precursor type: [M-H]-
m/z	relative intensity	assigned
95.0236	76	C2HN5-
117.9518	86	C3HClNS-
122.0356	162	C5H4N3O-
139.0265	179	CH6ClN5O-
150.0004	414	C5H2N4S-
151.0085	73	C5H3N4S-
165.0239	999	C6H5N4S-
166.0318	388	C6H6N4S-
168.0238	61	C6H6N3OS-
195.022	47	C6H5N5OS-
208.0183	35	C3H7ClN7S-
212.0256	222	C6H6N5O2S-
248.0014	717	C6H7ClN5O2S-
