Mass spectrum: Sertraline; LC-ESI-QFT; MS2; CE: 35 NCE; R=35000; [M+H]+
Name: Sertraline
Name: (1S,4S)-4-(3,4-dichlorophenyl)-N-methyl-1,2,3,4-tetrahydronaphthalen-1-amine
Formula: C17H17Cl2N
Exact mass: 305.07380
SMILES: CN[C@H]1CC[C@@H](C2=CC=C(Cl)C(Cl)=C2)C2=C1C=CC=C2
InChI: InChI=1S/C17H17Cl2N/c1-20-17-9-7-12(13-4-2-3-5-14(13)17)11-6-8-15(18)16(19)10-11/h2-6,8,10,12,17,20H,7,9H2,1H3/t12-,17-/m0/s1
Instrument: Q Exactive Plus Orbitrap Thermo Scientific
Instrument type: LC-ESI-QFT
Ms type: MS2
Ion mode: POSITIVE
Ionization: ESI
Fragmentation mode: HCD
Collision energy: 35  (nominal)
Resolution: 35000
Column name: Kinetex C18 EVO 2.6 um, 2.1x50 mm, precolumn 2.1x5 mm, Phenomenex
Retention time: 9.386 min
Base peak: 306.0807
Precursor m/z: 306.0811
Precursor type: [M+H]+
m/z	relative intensity	assigned
91.0542	67	C7H7+
115.0542	7	C9H7+
122.9996	4	C7H4Cl+
128.062	5	C10H8+
129.0698	204	C10H9+
158.9762	999	C7H5Cl2+
162.023	3	C10H7Cl+
196.9918	13	C10H7Cl2+
205.1015	2	C16H13+
240.0698	9	C16H13Cl+
275.0388	709	C16H13Cl2+
306.0811	39	C17H18Cl2N+
