Mass spectrum: 2,4-Toluene diisocyanate; LC-ESI-QFT; MS2; CE: 35 NCE; R=35000; [M+H]+
Name: 2,4-Toluene diisocyanate
Name: 2,4-diisocyanato-1-methylbenzene
Formula: C9H6N2O2
Exact mass: 174.04293
SMILES: CC1=C(C=C(C=C1)N=C=O)N=C=O
InChI: InChI=1S/C9H6N2O2/c1-7-2-3-8(10-5-12)4-9(7)11-6-13/h2-4H,1H3
Instrument: Q Exactive Plus Orbitrap Thermo Scientific
Instrument type: LC-ESI-QFT
Ms type: MS2
Ion mode: POSITIVE
Ionization: ESI
Fragmentation mode: HCD
Collision energy: 35  (nominal)
Resolution: 35000
Column name: Kinetex C18 EVO 2.6 um, 2.1x50 mm, precolumn 2.1x5 mm, Phenomenex
Retention time: 8.033 min
Base peak: 256.129
Precursor m/z: 175.0502
Precursor type: [M+H]+
m/z	relative intensity	assigned
53.0388	4	C4H5+
65.0388	3	C5H5+
77.0387	11	C6H5+
79.0543	14	C6H7+
92.0497	21	C6H6N+
95.0492	18	C6H7O+
96.0445	10	C5H6NO+
104.0496	148	C7H6N+
105.0447	10	C6H5N2+
105.0574	2	C7H7N+
106.0289	42	C6H4NO+
107.0492	2	C7H7O+
119.0566	2	C2H7N4O2+
119.0605	40	C7H7N2+
120.0445	96	C7H6NO+
131.0605	44	C8H7N2+
132.0445	212	C8H6NO+
133.0523	31	C8H7NO+
147.0554	451	C8H7N2O+
148.0393	11	C8H6NO2+
158.9948	3	C8HNO3+
160.0269	162	C8H4N2O2+
160.0504	14	C8H6N3O+
161.0101	24	C8H3NO3+
173.0349	38	C9H5N2O2+
175.0504	999	C9H7N2O2+
