Mass spectrum: Furosemide; LC-ESI-QFT; MS2; CE: 35 NCE; R=35000; [M+H]+
Name: Furosemide
Name: 4-chloro-2-(furan-2-ylmethylamino)-5-sulfamoylbenzoic acid
Formula: C12H11ClN2O5S
Exact mass: 330.00772
SMILES: NS(=O)(=O)c1cc(C(O)=O)c(NCc2ccco2)cc1Cl
InChI: InChI=1S/C12H11ClN2O5S/c13-9-5-10(15-6-7-2-1-3-20-7)8(12(16)17)4-11(9)21(14,18)19/h1-5,15H,6H2,(H,16,17)(H2,14,18,19)
Instrument: Q Exactive Plus Orbitrap Thermo Scientific
Instrument type: LC-ESI-QFT
Ms type: MS2
Ion mode: POSITIVE
Ionization: ESI
Fragmentation mode: HCD
Collision energy: 35  (nominal)
Resolution: 35000
Column name: Kinetex C18 EVO 2.6 um, 2.1x50 mm, precolumn 2.1x5 mm, Phenomenex
Retention time: 9.085 min
Base peak: 319.1624
Precursor m/z: 331.015
Precursor type: [M+H]+
m/z	relative intensity	assigned
53.0388	39	C4H5+
81.0335	999	C5H5O+
96.0445	7	C5H6NO+
98.9842	18	CH4ClO3+
115.948	3	C4HClS+
134.0968	3	C9H12N+
185.9953	5	C7H5ClNO3+
203.0133	3	C11H6ClNO+
205.0101	26	C2H8ClN3O6+
222.0128	5	C12H4N3S+
231.9975	3	C12H7ClNS+
233.005	2	C12H8ClNS+
237.0003	6	C11H8ClNOS+
244.9784	3	C8H6ClN2O3S+
256.9946	3	C10HN4O5+
262.9889	18	C8H8ClN2O4S+
284.9914	6	C10H6ClN2O6+
