Mass spectrum: Ethofumesate; LC-ESI-QFT; MS2; CE: 35 NCE; R=35000; [M+H]+
Name: Ethofumesate
Name: (2-ethoxy-3,3-dimethyl-2H-1-benzofuran-5-yl) methanesulfonate
Formula: C13H18O5S
Exact mass: 286.08749
SMILES: CCOC1Oc2ccc(OS(C)(=O)=O)cc2C1(C)C
InChI: InChI=1S/C13H18O5S/c1-5-16-12-13(2,3)10-8-9(18-19(4,14)15)6-7-11(10)17-12/h6-8,12H,5H2,1-4H3
Instrument: Q Exactive Plus Orbitrap Thermo Scientific
Instrument type: LC-ESI-QFT
Ms type: MS2
Ion mode: POSITIVE
Ionization: ESI
Fragmentation mode: HCD
Collision energy: 35  (nominal)
Resolution: 35000
Column name: Kinetex C18 EVO 2.6 um, 2.1x50 mm, precolumn 2.1x5 mm, Phenomenex
Retention time: 11.089 min
Base peak: 276.0817
Precursor m/z: 287.0948
Precursor type: [M+H]+
m/z	relative intensity	assigned
55.0544	7	C4H7+
57.0701	2	C4H9+
71.0492	9	C4H7O+
77.0387	2	C6H5+
79.0542	4	C6H7+
81.0699	10	C6H9+
82.0652	2	C5H8N+
91.0542	26	C7H7+
93.0699	33	C7H9+
95.0491	6	C6H7O+
95.073	3	C6H9N+
103.0543	20	C8H7+
103.0573	2	C5H11S+
105.0699	48	C8H9+
107.0492	8	C7H7O+
109.0647	2	C7H9O+
115.0544	19	C9H7+
116.0619	2	C9H8+
117.0698	7	C9H9+
121.0648	999	C8H9O+
122.0682	105	C3H10N2O3+
123.0443	2	C7H7O2+
123.0685	12	CH15O4S+
130.0653	3	C3H14O3S+
133.0648	72	C9H9O+
134.0683	4	C4H10N2O3+
134.0727	23	C9H10O+
135.0718	2	C5H13NOS+
135.0805	11	C9H11O+
137.0597	72	C8H9O2+
138.063	7	C3H10N2O4+
139.0638	2	CH15O5S+
145.0649	14	C10H9O+
147.0437	6	C9H7O2+
147.1044	1	C4H19O3S+
149.0963	35	C10H13O+
150.0104	3	C11H2O+
153.0698	4	C12H9+
161.0597	262	C10H9O2+
162.063	11	C5H10N2O4+
162.0682	57	C10H10O2+
163.0754	69	C10H11O2+
164.0261	34	C12H4O+
164.0789	8	C5H12N2O4+
165.0339	10	C12H5O+
165.046	2	C5H11NO3S+
165.0816	12	C6H15NO2S+
166.0419	20	C12H6O+
167.0855	2	C13H11+
168.0934	12	C13H12+
173.0709	16	C10H9N2O+
178.0418	30	C13H6O+
179.0702	36	C10H11O3+
181.0756	8	C12H9N2+
185.1195	3	C13H15N+
241.0525	2	C11H13O4S+
242.0562	2	C6H14N2O6S+
243.0588	20	C13H11N2OS+
261.0695	43	C13H13N2O2S+
