Mass spectrum: 2-Hydroxycarbamazepine; LC-ESI-QFT; MS2; CE: 35 NCE; R=35000; [M-H]-
Name: 2-Hydroxycarbamazepine
Name: Oxcarbazepine
Name: 5-oxo-6H-benzo[b][1]benzazepine-11-carboxamide
Formula: C15H12N2O2
Exact mass: 252.08988
SMILES: NC(=O)N1c2ccccc2CC(=O)c2ccccc12
InChI: InChI=1S/C15H12N2O2/c16-15(19)17-12-7-3-1-5-10(12)9-14(18)11-6-2-4-8-13(11)17/h1-8H,9H2,(H2,16,19)
Instrument: Q Exactive Plus Orbitrap Thermo Scientific
Instrument type: LC-ESI-QFT
Ms type: MS2
Ion mode: NEGATIVE
Ionization: ESI
Fragmentation mode: HCD
Collision energy: 35  (nominal)
Resolution: 35000
Column name: Kinetex C18 EVO 2.6 um, 2.1x50 mm, precolumn 2.1x5 mm, Phenomenex
Retention time: 8.487 min
Base peak: 251.0825
Precursor m/z: 251.0826
Precursor type: [M-H]-
m/z	relative intensity	assigned
166.0663	165	C12H8N-
180.082	44	C13H10N-
182.0613	5	C12H8NO-
207.069	170	C14H9NO-
208.0768	999	C14H10NO-
251.0827	859	C15H11N2O2-
