Mass spectrum: Flufenoxuron; LC-ESI-QFT; MS2; CE: 35 NCE; R=35000; [M-H]-
Name: Flufenoxuron
Name: N-[[4-[2-chloro-4-(trifluoromethyl)phenoxy]-2-fluorophenyl]carbamoyl]-2,6-difluorobenzamide
Formula: C21H11ClF6N2O3
Exact mass: 488.03624
SMILES: FC1=CC(OC2=CC=C(C=C2Cl)C(F)(F)F)=CC=C1NC(=O)NC(=O)C1=C(F)C=CC=C1F
InChI: InChI=1S/C21H11ClF6N2O3/c22-12-8-10(21(26,27)28)4-7-17(12)33-11-5-6-16(15(25)9-11)29-20(32)30-19(31)18-13(23)2-1-3-14(18)24/h1-9H,(H2,29,30,31,32)
Instrument: Q Exactive Plus Orbitrap Thermo Scientific
Instrument type: LC-ESI-QFT
Ms type: MS2
Ion mode: NEGATIVE
Ionization: ESI
Fragmentation mode: HCD
Collision energy: 35  (nominal)
Resolution: 35000
Column name: Kinetex C18 EVO 2.6 um, 2.1x50 mm, precolumn 2.1x5 mm, Phenomenex
Retention time: 14.172 min
Base peak: 487.029
Precursor m/z: 487.029
Precursor type: [M-H]-
m/z	relative intensity	assigned
95.0124	38	F4H3O-
104.0131	253	CH2F4N-
124.02	69	C6H3FNO-
136.0402	11	C7H6NO2-
150.0236	141	C7H3FN2O-
156.0267	999	C7H4F2NO-
178.9881	260	C7H3ClF3-
194.9831	405	C7H3ClF3O-
222.9778	14	C8H3ClF3O2-
238.0485	39	C12H7F3NO-
241.9998	12	C11H2F4O2-
248.0332	46	C10H8ClF3N2-
249.0184	13	C7H8ClF4NO2-
256.015	23	C12H4F4O2-
268.0392	9	C13H6F4NO-
269.0368	136	C14H6FN2O3-
283.0019	53	C13H5ClF3NO-
284.0095	139	C13H6ClF3NO-
289.043	203	C14H7F2N2O3-
304.0158	763	C13H7ClF4NO-
327.0161	13	C11H8ClF4N2O3-
329.011	680	C14H6ClF4N2O-
367.0502	17	C20H7F4N2O-
396.042	9	C14H10ClF5N4O2-
411.04	425	C21H7F4N2O3-
444.0217	18	C20H9ClF6NO2-
447.0166	296	C21H8ClF4N2O3-
467.0227	432	C21H9ClF5N2O3-
487.0291	837	C21H10ClF6N2O3-
