Mass spectrum: MCPA; LC-ESI-QFT; MS2; CE: 35 NCE; R=35000; [M-H]-
Name: MCPA
Name: 2-(4-chloro-2-methylphenoxy)acetic acid
Formula: C9H9ClO3
Exact mass: 200.02402
SMILES: Cc1cc(Cl)ccc1OCC(O)=O
InChI: InChI=1S/C9H9ClO3/c1-6-4-7(10)2-3-8(6)13-5-9(11)12/h2-4H,5H2,1H3,(H,11,12)
Instrument: Q Exactive Plus Orbitrap Thermo Scientific
Instrument type: LC-ESI-QFT
Ms type: MS2
Ion mode: NEGATIVE
Ionization: ESI
Fragmentation mode: HCD
Collision energy: 35  (nominal)
Resolution: 35000
Column name: Kinetex C18 EVO 2.6 um, 2.1x50 mm, precolumn 2.1x5 mm, Phenomenex
Retention time: 10.378 min
Base peak: 199.0167
Precursor m/z: 199.0167
Precursor type: [M-H]-
m/z	relative intensity	assigned
125.016	5	C7H6Cl-
140.0034	2	C7H5ClO-
141.0112	999	C7H6ClO-
155.027	8	C8H8ClO-
199.0168	31	C9H8ClO3-
