Mass spectrum: Genistein; LC-ESI-QFT; MS2; CE: 35 NCE; R=35000; [M+H]+
Name: Genistein
Name: 5,7-dihydroxy-3-(4-hydroxyphenyl)chromen-4-one
Formula: C15H10O5
Exact mass: 270.05282
SMILES: OC1=CC=C(C=C1)C1=COC2=CC(O)=CC(O)=C2C1=O
InChI: InChI=1S/C15H10O5/c16-9-3-1-8(2-4-9)11-7-20-13-6-10(17)5-12(18)14(13)15(11)19/h1-7,16-18H
Instrument: Q Exactive Plus Orbitrap Thermo Scientific
Instrument type: LC-ESI-QFT
Ms type: MS2
Ion mode: POSITIVE
Ionization: ESI
Fragmentation mode: HCD
Collision energy: 35  (nominal)
Resolution: 35000
Column name: Kinetex C18 EVO 2.6 um, 2.1x50 mm, precolumn 2.1x5 mm, Phenomenex
Retention time: 9.918 min
Base peak: 242.1429
Precursor m/z: 271.0601
Precursor type: [M+H]+
m/z	relative intensity	assigned
67.0179	1	C4H3O+
68.9972	4	C3HO2+
91.0542	15	C7H7+
95.0128	1	C5H3O2+
107.0492	1	C7H7O+
111.0077	2	C5H3O3+
119.0492	7	C8H7O+
121.0285	3	C7H5O2+
131.0491	3	C9H7O+
131.0855	1	C10H11+
133.0285	1	C8H5O2+
135.0441	1	C8H7O2+
137.0233	1	C7H5O3+
141.0698	4	C11H9+
145.0284	15	C9H5O2+
145.065	2	C10H9O+
147.0441	1	C9H7O2+
147.0805	1	C10H11O+
149.0233	24	C8H5O3+
150.031	1	C8H6O3+
153.0182	66	C7H5O4+
159.0441	9	C10H7O2+
159.0805	1	C11H11O+
165.0183	6	C8H5O4+
169.0648	10	C12H9O+
173.0598	2	C11H9O2+
175.0755	1	C11H11O2+
183.0289	1	C8H7O5+
183.0439	1	C12H7O2+
187.0386	2	C11H7O3+
187.0754	5	C12H11O2+
197.0597	11	C13H9O2+
200.0471	1	C12H8O3+
201.0546	2	C12H9O3+
213.0547	1	C13H9O3+
215.0702	55	C13H11O3+
225.0546	4	C14H9O3+
227.0705	1	C14H11O3+
243.0653	40	C14H11O4+
253.0495	17	C15H9O4+
271.0601	999	C15H11O5+
