Mass spectrum: Cyproterone; LC-ESI-QFT; MS2; CE: 35 NCE; R=35000; [M+H]+
Name: Cyproterone
Formula: C22H27ClO3
Exact mass: 374.16487
SMILES: CC(=O)C1(O)CCC2C3C=C(Cl)C4=CC(=O)C5CC5C4(C)C3CCC12C
InChI: InChI=1S/C22H27ClO3/c1-11(24)22(26)7-5-14-12-9-18(23)17-10-19(25)13-8-16(13)21(17,3)15(12)4-6-20(14,22)2/h9-10,12-16,26H,4-8H2,1-3H3
Instrument: Q Exactive Plus Orbitrap Thermo Scientific
Instrument type: LC-ESI-QFT
Ms type: MS2
Ion mode: POSITIVE
Ionization: ESI
Fragmentation mode: HCD
Collision energy: 35  (nominal)
Resolution: 35000
Column name: Kinetex C18 EVO 2.6 um, 2.1x50 mm, precolumn 2.1x5 mm, Phenomenex
Retention time: 11.842 min
Base peak: 313.2158
Precursor m/z: 375.1721
Precursor type: [M+H]+
m/z	relative intensity	assigned
55.0181	2	C3H3O+
55.0545	2	C4H7+
59.0493	8	C3H7O+
61.0285	6	C2H5O2+
67.0543	8	C5H7+
69.0335	3	C4H5O+
69.07	3	C5H9+
71.0492	4	C4H7O+
79.0542	7	C6H7+
81.0699	11	C6H9+
83.0491	9	C5H7O+
85.0648	8	C5H9O+
87.044	16	C4H7O2+
91.0542	11	C7H7+
93.0699	15	C7H9+
95.0492	9	C6H7O+
95.0855	9	C7H11+
97.0648	8	C6H9O+
99.0441	1	C5H7O2+
99.0804	2	C6H11O+
105.0699	25	C8H9+
107.0491	4	C7H7O+
107.0855	13	C8H11+
109.0648	14	C7H9O+
109.1012	6	C8H13+
111.0805	15	C7H11O+
113.0597	2	C6H9O2+
115.0544	1	C9H7+
117.0699	8	C9H9+
119.0855	22	C9H11+
121.0648	13	C8H9O+
121.1012	10	C9H13+
123.0805	6	C8H11O+
127.031	2	C7H8Cl+
129.0699	9	C10H9+
130.0776	1	C10H10+
131.0855	13	C10H11+
133.0649	2	C9H9O+
133.1011	36	C10H13+
135.0805	5	C9H11O+
135.1167	4	C10H15+
137.0961	3	C9H13O+
139.0308	2	C8H8Cl+
141.0465	1	C8H10Cl+
141.0699	5	C11H9+
142.0775	6	C11H10+
143.0855	12	C11H11+
144.0568	1	C10H8O+
144.0932	1	C11H12+
145.0648	11	C10H9O+
145.1011	20	C11H13+
146.0724	2	C10H10O+
147.0803	11	C10H11O+
147.1168	33	C11H15+
149.0963	4	C10H13O+
151.1118	4	C10H15O+
154.0777	1	C12H10+
155.0261	2	C8H8ClO+
155.0854	15	C12H11+
156.0934	3	C12H12+
157.0413	1	C8H10ClO+
157.0647	3	C11H9O+
157.1012	16	C12H13+
158.0725	2	C11H10O+
159.0805	10	C11H11O+
159.1169	9	C12H15+
161.0961	5	C11H13O+
161.1323	1	C12H17+
163.0308	1	C10H8Cl+
163.1117	6	C11H15O+
165.0466	3	C10H10Cl+
165.0701	4	C13H9+
166.0778	1	C13H10+
167.0258	2	C9H8ClO+
167.0855	4	C13H11+
168.0934	4	C13H12+
169.0413	3	C9H10ClO+
169.0648	1	C12H9O+
169.1011	11	C13H13+
171.0804	9	C12H11O+
171.117	7	C13H15+
172.088	1	C12H12O+
173.0962	5	C12H13O+
175.1118	16	C12H15O+
177.0465	11	C11H10Cl+
177.1274	2	C12H17O+
178.0776	1	C14H10+
179.0256	2	C10H8ClO+
179.0622	3	C11H12Cl+
179.0853	5	C14H11+
180.0933	3	C14H12+
181.0414	12	C10H10ClO+
181.0778	3	C11H14Cl+
181.1012	13	C14H13+
182.1091	3	C14H14+
183.0572	4	C10H12ClO+
183.0804	5	C13H11O+
183.1168	15	C14H15+
184.0884	6	C13H12O+
184.125	1	C14H16+
185.0962	17	C13H13O+
185.1323	3	C14H17+
187.1119	4	C13H15O+
189.0466	6	C12H10Cl+
189.1271	4	C13H17O+
191.0257	7	C11H8ClO+
191.0621	6	C12H12Cl+
191.0854	2	C15H11+
192.0934	3	C15H12+
193.0414	4	C11H10ClO+
193.078	2	C12H14Cl+
193.1012	13	C15H13+
194.1088	3	C15H14+
195.0572	4	C11H12ClO+
195.0804	2	C14H11O+
195.1169	21	C15H15+
196.1246	5	C15H16+
197.0963	5	C14H13O+
197.1326	6	C15H17+
199.1121	4	C14H15O+
201.0464	3	C13H10Cl+
201.127	5	C14H17O+
203.0621	5	C13H12Cl+
203.0855	2	C16H11+
204.0932	1	C16H12+
205.0414	11	C12H10ClO+
205.0778	3	C13H14Cl+
205.1011	13	C16H13+
206.109	3	C16H14+
207.0571	5	C12H12ClO+
207.1168	19	C16H15+
208.0883	1	C15H12O+
208.1245	3	C16H16+
209.0963	7	C15H13O+
209.1323	12	C16H17+
210.104	1	C15H14O+
210.1398	3	C16H18+
211.1116	7	C15H15O+
211.148	2	C16H19+
213.1275	3	C15H17O+
215.0625	4	C14H12Cl+
217.0781	4	C14H14Cl+
217.1011	5	C17H13+
218.109	4	C17H14+
219.0572	54	C13H12ClO+
219.1168	14	C17H15+
220.1246	4	C17H16+
221.0728	6	C13H14ClO+
221.0961	4	C16H13O+
221.1326	14	C17H17+
222.1038	3	C16H14O+
222.1406	2	C17H18+
223.1117	9	C16H15O+
223.1483	6	C17H19+
224.1197	2	C16H16O+
225.1275	5	C16H17O+
226.1354	1	C16H18O+
227.1427	1	C16H19O+
229.0778	3	C15H14Cl+
229.1011	1	C18H13+
230.1092	2	C18H14+
231.0575	2	C14H12ClO+
231.0934	3	C15H16Cl+
231.1169	6	C18H15+
232.1246	5	C18H16+
233.0727	3	C14H14ClO+
233.1326	14	C18H17+
234.104	1	C17H14O+
234.1403	2	C18H18+
235.0884	2	C14H16ClO+
235.1118	9	C17H15O+
235.1481	19	C18H19+
236.1194	5	C17H16O+
236.1559	2	C18H20+
237.1276	13	C17H17O+
237.1635	7	C18H21+
238.1351	3	C17H18O+
239.143	9	C17H19O+
241.0778	3	C16H14Cl+
243.0937	3	C16H16Cl+
243.1164	2	C19H15+
244.1247	3	C19H16+
245.0731	10	C15H14ClO+
245.1093	3	C16H18Cl+
245.1324	7	C19H17+
246.14	6	C19H18+
247.0889	1	C15H16ClO+
247.1117	5	C18H15O+
247.148	13	C19H19+
248.1198	3	C18H16O+
248.1557	2	C19H20+
249.1272	10	C18H17O+
249.1637	13	C19H21+
250.1353	5	C18H18O+
250.1713	3	C19H22+
251.1432	16	C18H19O+
251.1792	8	C19H23+
252.1507	1	C18H20O+
253.1586	5	C18H21O+
255.0938	4	C17H16Cl+
257.1092	3	C17H18Cl+
259.0882	5	C16H16ClO+
259.1118	1	C19H15O+
259.1482	6	C20H19+
260.1557	7	C20H20+
261.1043	2	C16H18ClO+
261.1272	5	C19H17O+
261.1638	17	C20H21+
262.1354	4	C19H18O+
262.1722	1	C20H22+
263.143	39	C19H19O+
264.1513	4	C19H20O+
265.1228	2	C18H17O2+
265.1586	7	C19H21O+
269.1099	2	C18H18Cl+
270.1397	2	C21H18+
271.0886	2	C17H16ClO+
271.1248	2	C18H20Cl+
273.1038	9	C17H18ClO+
273.1271	1	C20H17O+
273.1632	1	C21H21+
274.1121	1	C17H19ClO+
275.1196	3	C17H20ClO+
275.1427	2	C20H19O+
275.1794	10	C21H23+
277.1587	31	C20H21O+
278.1665	23	C20H22O+
279.1744	61	C20H23O+
281.1087	1	C19H18Cl+
283.0887	1	C18H16ClO+
285.1038	3	C18H18ClO+
285.1636	3	C22H21+
287.1193	5	C18H20ClO+
288.1509	3	C21H20O+
289.1348	2	C18H22ClO+
291.1738	1	C21H23O+
293.1536	34	C20H21O2+
293.1895	12	C21H25O+
295.1697	1	C20H23O2+
296.133	1	C20H21Cl+
297.1402	3	C20H22Cl+
297.1853	4	C20H25O2+
299.1198	8	C19H20ClO+
301.1346	2	C19H22ClO+
303.1745	20	C22H23O+
306.1612	8	C21H22O2+
313.1353	26	C20H22ClO+
314.143	20	C20H23ClO+
315.151	19	C20H24ClO+
321.185	116	C22H25O2+
322.1929	3	C22H26O2+
329.1668	6	C21H26ClO+
331.1469	1	C20H24ClO2+
333.161	2	C20H26ClO2+
339.1512	6	C22H24ClO+
339.1955	6	C22H27O3+
357.1616	44	C22H26ClO2+
375.1722	999	C22H28ClO3+
