Mass spectrum: 4-Chloroaniline; LC-ESI-QFT; MS2; CE: 35 NCE; R=35000; [M+H]+
Name: 4-Chloroaniline
Formula: C6H6ClN
Exact mass: 127.01888
SMILES: NC1=CC=C(Cl)C=C1
InChI: InChI=1S/C6H6ClN/c7-5-1-3-6(8)4-2-5/h1-4H,8H2
Instrument: Q Exactive Plus Orbitrap Thermo Scientific
Instrument type: LC-ESI-QFT
Ms type: MS2
Ion mode: POSITIVE
Ionization: ESI
Fragmentation mode: HCD
Collision energy: 35  (nominal)
Resolution: 35000
Column name: Kinetex C18 EVO 2.6 um, 2.1x50 mm, precolumn 2.1x5 mm, Phenomenex
Retention time: 1.087 min
Base peak: 128.026
Precursor m/z: 128.0262
Precursor type: [M+H]+
m/z	relative intensity	assigned
65.0386	1	C5H5+
75.0227	1	C6H3+
86.9995	1	C4H4Cl+
92.0494	5	C6H6N+
93.0572	424	C6H7N+
110.9993	2	C6H4Cl+
128.026	999	C6H7ClN+
139.0055	7	C6H4ClN2+
