Mass spectrum: 3-Pyridinol; LC-ESI-QFT; MS2; CE: 35 NCE; R=35000; [M+H]+
Name: 3-Pyridinol
Name: 3-Hydroxypyridine
Name: pyridin-3-ol
Formula: C5H5NO
Exact mass: 95.03711
SMILES: OC1=CC=CN=C1
InChI: InChI=1S/C5H5NO/c7-5-2-1-3-6-4-5/h1-4,7H
Instrument: Q Exactive Plus Orbitrap Thermo Scientific
Instrument type: LC-ESI-QFT
Ms type: MS2
Ion mode: POSITIVE
Ionization: ESI
Fragmentation mode: HCD
Collision energy: 35  (nominal)
Resolution: 35000
Column name: Kinetex C18 EVO 2.6 um, 2.1x50 mm, precolumn 2.1x5 mm, Phenomenex
Retention time: 0.593 min
Base peak: 95.0602
Precursor m/z: 96.0444
Precursor type: [M+H]+
m/z	relative intensity	assigned
67.0417	1	C4H5N+
68.0495	22	C4H6N+
78.0338	1	C5H4N+
96.0444	999	C5H6NO+
