Mass spectrum: Dodemorph; LC-ESI-QFT; MS2; CE: 35 NCE; R=35000; [M+H]+
Name: Dodemorph
Name: 4-cyclododecyl-2,6-dimethylmorpholine
Formula: C18H35NO
Exact mass: 281.27186
SMILES: CC1CN(CC(C)O1)C1CCCCCCCCCCC1
InChI: InChI=1S/C18H35NO/c1-16-14-19(15-17(2)20-16)18-12-10-8-6-4-3-5-7-9-11-13-18/h16-18H,3-15H2,1-2H3
Instrument: Q Exactive Plus Orbitrap Thermo Scientific
Instrument type: LC-ESI-QFT
Ms type: MS2
Ion mode: POSITIVE
Ionization: ESI
Fragmentation mode: HCD
Collision energy: 35  (nominal)
Resolution: 35000
Column name: Kinetex C18 EVO 2.6 um, 2.1x50 mm, precolumn 2.1x5 mm, Phenomenex
Retention time: 8.992 min
Base peak: 282.2787
Precursor m/z: 282.2791
Precursor type: [M+H]+
m/z	relative intensity	assigned
55.0544	34	C4H7+
56.0497	6	C3H6N+
57.0701	7	C4H9+
58.0653	6	C3H8N+
67.0543	2	C5H7+
69.0699	77	C5H9+
70.0652	7	C4H8N+
71.0856	4	C5H11+
79.0543	1	C6H7+
81.0699	9	C6H9+
83.0855	46	C6H11+
85.1012	3	C6H13+
97.1012	49	C7H13+
98.0964	277	C6H12N+
109.1012	2	C8H13+
111.1168	14	C8H15+
116.107	526	C6H14NO+
282.2792	999	C18H36NO+
