Mass spectrum: Pyraclostrobin; LC-ESI-QFT; MS2; CE: 35 NCE; R=35000; [M+H]+
Name: Pyraclostrobin
Name: methyl N-[2-[[1-(4-chlorophenyl)pyrazol-3-yl]oxymethyl]phenyl]-N-methoxycarbamate
Formula: C19H18ClN3O4
Exact mass: 387.09858
SMILES: CON(C(=O)OC)C1=C(COC2=NN(C=C2)C2=CC=C(Cl)C=C2)C=CC=C1
InChI: InChI=1S/C19H18ClN3O4/c1-25-19(24)23(26-2)17-6-4-3-5-14(17)13-27-18-11-12-22(21-18)16-9-7-15(20)8-10-16/h3-12H,13H2,1-2H3
Instrument: Q Exactive Plus Orbitrap Thermo Scientific
Instrument type: LC-ESI-QFT
Ms type: MS2
Ion mode: POSITIVE
Ionization: ESI
Fragmentation mode: HCD
Collision energy: 35  (nominal)
Resolution: 35000
Column name: Kinetex C18 EVO 2.6 um, 2.1x50 mm, precolumn 2.1x5 mm, Phenomenex
Retention time: 12.775 min
Base peak: 388.1055
Precursor m/z: 388.1059
Precursor type: [M+H]+
m/z	relative intensity	assigned
65.0388	1	C5H5+
75.0441	8	C3H7O2+
77.0386	1	C6H5+
78.0339	1	C5H4N+
78.0465	1	C6H6+
79.0543	5	C6H7+
89.0384	1	C7H5+
91.0417	1	C6H5N+
91.0542	28	C7H7+
94.0414	4	C6H6O+
95.0491	1	C6H7O+
98.9996	1	C5H4Cl+
104.0495	45	C7H6N+
105.0573	135	C7H7N+
106.0651	27	C7H8N+
107.049	1	C7H7O+
107.073	10	C7H9N+
108.0443	1	C6H6NO+
109.0647	9	C7H9O+
116.0495	10	C8H6N+
117.0574	9	C8H7N+
118.0652	44	C8H8N+
119.0366	72	C7H5NO+
119.073	3	C8H9N+
120.0444	59	C7H6NO+
121.0649	18	C8H9O+
123.0679	15	C7H9NO+
126.0105	5	C6H5ClN+
128.0495	7	C9H6N+
129.0101	1	C6H6ClO+
129.0572	1	C9H7N+
130.0287	11	C8H4NO+
130.0652	1	C9H8N+
132.0444	136	C8H6NO+
133.0522	325	C8H7NO+
134.0235	7	C7H4NO2+
134.0601	87	C8H8NO+
135.0679	4	C8H9NO+
137.0597	1	C8H9O2+
137.0835	1	C8H11NO+
138.0105	3	C7H5ClN+
139.0058	6	C6H4ClN2+
144.0447	1	C6H9ClN2+
144.0809	1	C10H10N+
146.0601	26	C9H8NO+
147.0316	1	C8H5NO2+
148.0393	9	C8H6NO2+
149.0472	360	C8H7NO2+
151.0184	1	C8H6ClN+
151.063	8	C8H9NO2+
156.0444	3	C10H6NO+
159.0554	4	C9H7N2O+
162.055	182	C9H8NO2+
163.0628	844	C9H9NO2+
164.0706	434	C9H10NO2+
166.0862	11	C9H12NO2+
174.055	10	C10H8NO2+
179.0009	1	C8H4ClN2O+
179.0577	11	C9H9NO3+
180.021	1	C9H7ClNO+
181.0158	1	C11H3NO2+
185.0711	1	C11H9N2O+
188.0707	2	C11H10NO2+
191.0815	4	C10H11N2O2+
193.0162	3	C9H6ClN2O+
194.0813	999	C10H12NO3+
196.0973	1	C7H17ClN2O2+
204.0807	1	C15H10N+
207.0314	1	C13H5NO2+
216.0652	7	C12H10NO3+
218.0837	10	C15H10N2+
219.0912	1	C15H11N2+
232.0755	2	C16H10NO+
233.0947	4	C15H11N3+
234.0795	1	C12H13ClN3+
241.0526	2	C14H10ClN2+
243.0795	10	C16H9N3+
253.0528	19	C15H10ClN2+
261.0899	19	C16H11N3O+
267.056	1	C15H10ClN3+
268.0637	4	C15H11ClN3+
280.0635	5	C16H11ClN3+
281.048	6	C16H10ClN2O+
288.0768	1	C17H10N3O2+
296.0587	267	C16H11ClN3O+
298.0745	4	C16H13ClN3O+
299.0577	1	C19H9NO3+
300.0645	1	C19H10NO3+
324.0537	47	C17H11ClN3O2+
328.0846	5	C17H15ClN3O2+
356.0799	55	C18H15ClN3O3+
357.087	5	C18H16ClN3O3+
388.1061	87	C19H19ClN3O4+
