Mass spectrum: Terbutryn; LC-ESI-QFT; MS2; CE: 35 NCE; R=35000; [M+H]+
Name: Terbutryn
Name: 2-N-tert-butyl-4-N-ethyl-6-methylsulfanyl-1,3,5-triazine-2,4-diamine
Formula: C10H19N5S
Exact mass: 241.13612
SMILES: CCNC1=NC(NC(C)(C)C)=NC(SC)=N1
InChI: InChI=1S/C10H19N5S/c1-6-11-7-12-8(15-10(2,3)4)14-9(13-7)16-5/h6H2,1-5H3,(H2,11,12,13,14,15)
Instrument: Q Exactive Plus Orbitrap Thermo Scientific
Instrument type: LC-ESI-QFT
Ms type: MS2
Ion mode: POSITIVE
Ionization: ESI
Fragmentation mode: HCD
Collision energy: 35  (nominal)
Resolution: 35000
Column name: Kinetex C18 EVO 2.6 um, 2.1x50 mm, precolumn 2.1x5 mm, Phenomenex
Retention time: 9.956 min
Base peak: 242.143
Precursor m/z: 242.1434
Precursor type: [M+H]+
m/z	relative intensity	assigned
57.0701	5	C4H9+
68.0244	12	C2H2N3+
71.0604	45	C3H7N2+
74.0059	7	C2H4NS+
85.0509	6	C2H5N4+
91.0324	96	C2H7N2S+
96.0556	46	C4H6N3+
102.0372	5	C4H8NS+
110.0462	4	C3H4N5+
113.0822	11	C4H9N4+
116.0277	21	C3H6N3S+
138.0774	37	C5H8N5+
144.059	23	C5H10N3S+
158.0495	39	C4H8N5S+
171.0572	2	C5H9N5S+
186.0808	999	C6H12N5S+
242.1434	667	C10H20N5S+
