Mass spectrum: Nitrendipin; LC-ESI-QFT; MS2; CE: 35 NCE; R=35000; [M-H]-
Name: Nitrendipin
Name: Nitrendipine
Name: 5-O-ethyl 3-O-methyl 2,6-dimethyl-4-(3-nitrophenyl)-1,4-dihydropyridine-3,5-dicarboxylate
Formula: C18H20N2O6
Exact mass: 360.13214
SMILES: CCOC(=O)C1=C(C)NC(C)=C(C1C1=CC=CC(=C1)[N+]([O-])=O)C(=O)OC
InChI: InChI=1S/C18H20N2O6/c1-5-26-18(22)15-11(3)19-10(2)14(17(21)25-4)16(15)12-7-6-8-13(9-12)20(23)24/h6-9,16,19H,5H2,1-4H3
Instrument: Q Exactive Plus Orbitrap Thermo Scientific
Instrument type: LC-ESI-QFT
Ms type: MS2
Ion mode: NEGATIVE
Ionization: ESI
Fragmentation mode: HCD
Collision energy: 35  (nominal)
Resolution: 35000
Column name: Kinetex C18 EVO 2.6 um, 2.1x50 mm, precolumn 2.1x5 mm, Phenomenex
Retention time: 11.651 min
Base peak: 359.1249
Precursor m/z: 359.1249
Precursor type: [M-H]-
m/z	relative intensity	assigned
82.0044	22	C2N3O-
92.0253	184	C4H2N3-
93.0331	1	C4H3N3-
95.0125	46	C3HN3O-
108.0206	89	C4H2N3O-
122.0242	501	C6H4NO2-
123.0082	3	C6H3O3-
134.0609	1	C8H8NO-
136.0402	1	C7H6NO2-
140.0352	7	C6H6NO3-
146.0609	1	C9H8NO-
149.0483	8	C8H7NO2-
150.0561	14	C8H8NO2-
160.0766	5	C10H10NO-
162.0563	2	C9H8NO2-
163.0638	3	C9H9NO2-
164.0718	13	C9H10NO2-
166.0146	41	C7H4NO4-
166.0874	5	C9H12NO2-
177.0795	1	C10H11NO2-
178.0873	9	C10H12NO2-
192.1031	4	C11H14NO2-
207.0539	6	C10H9NO4-
208.0616	6	C10H10NO4-
208.0977	5	C11H14NO3-
209.0477	3	C13H7NO2-
209.0721	1	C13H9N2O-
221.0361	1	C13H5N2O2-
221.0697	4	C11H11NO4-
222.0776	1	C11H12NO4-
223.064	3	C14H9NO2-
224.0718	84	C14H10NO2-
236.0929	181	C12H14NO4-
237.0672	4	C14H9N2O2-
239.0466	7	C13H7N2O3-
242.0825	1	C14H12NO3-
251.0588	4	C15H9NO3-
253.0617	4	C14H9N2O3-
254.07	1	C14H10N2O3-
264.054	1	C15H8N2O3-
265.0747	5	C16H11NO3-
268.0615	34	C15H10NO4-
279.0901	4	C17H13NO3-
281.0566	1	C15H9N2O4-
282.0773	11	C16H12NO4-
283.0364	1	C14H7N2O5-
283.0842	1	C16H13NO4-
295.0725	15	C16H11N2O4-
296.0925	3	C17H14NO4-
298.0594	15	C15H10N2O5-
299.0672	1	C15H11N2O5-
309.0879	14	C17H13N2O4-
312.0752	13	C16H12N2O5-
313.0831	38	C16H13N2O5-
327.0986	43	C17H15N2O5-
359.125	999	C18H19N2O6-
