Mass spectrum: Saccharin; LC-ESI-QFT; MS2; CE: 35 NCE; R=35000; [M-H]-
Name: Saccharin
Name: 1,1-dioxo-1,2-benzothiazol-3-one
Formula: C7H5NO3S
Exact mass: 182.9990
SMILES: O=C1NS(=O)(=O)c2ccccc12
InChI: InChI=1S/C7H5NO3S/c9-7-5-3-1-2-4-6(5)12(10,11)8-7/h1-4H,(H,8,9)
Instrument: Q Exactive Plus Orbitrap Thermo Scientific
Instrument type: LC-ESI-QFT
Ms type: MS2
Ion mode: NEGATIVE
Ionization: ESI
Fragmentation mode: HCD
Collision energy: 35  (nominal)
Resolution: 35000
Column name: Kinetex C18 EVO 2.6 um, 2.1x50 mm, precolumn 2.1x5 mm, Phenomenex
Retention time: 2.874 min
Base peak: 181.9918
Precursor m/z: 181.9917
Precursor type: [M-H]-
m/z	relative intensity	assigned
181.9918	999	C7H4NO3S-
