Mass spectrum: Benzenesulfonic acid; LC-ESI-QFT; MS2; CE: 35 NCE; R=35000; [M-H]-
Name: Benzenesulfonic acid
Formula: C6H6O3S
Exact mass: 158.0038
SMILES: OS(=O)(=O)C1=CC=CC=C1
InChI: InChI=1S/C6H6O3S/c7-10(8,9)6-4-2-1-3-5-6/h1-5H,(H,7,8,9)
Instrument: Q Exactive Plus Orbitrap Thermo Scientific
Instrument type: LC-ESI-QFT
Ms type: MS2
Ion mode: NEGATIVE
Ionization: ESI
Fragmentation mode: HCD
Collision energy: 35  (nominal)
Resolution: 35000
Column name: Kinetex C18 EVO 2.6 um, 2.1x50 mm, precolumn 2.1x5 mm, Phenomenex
Retention time: 1.619 min
Base peak: 134.0359
Precursor m/z: 156.9965
Precursor type: [M-H]-
m/z	relative intensity	assigned
156.9965	999	C6H5O3S-
