Mass spectrum: Benzophenone-4; LC-ESI-QFT; MS2; CE: 35 NCE; R=35000; [M-H]-
Name: Benzophenone-4
Name: Sulisobenzone
Name: 5-benzoyl-4-hydroxy-2-methoxybenzenesulfonic acid
Formula: C14H12O6S
Exact mass: 308.03546
SMILES: COC1=CC(O)=C(C=C1S(O)(=O)=O)C(=O)C1=CC=CC=C1
InChI: InChI=1S/C14H12O6S/c1-20-12-8-11(15)10(7-13(12)21(17,18)19)14(16)9-5-3-2-4-6-9/h2-8,15H,1H3,(H,17,18,19)
Instrument: Q Exactive Plus Orbitrap Thermo Scientific
Instrument type: LC-ESI-QFT
Ms type: MS2
Ion mode: NEGATIVE
Ionization: ESI
Fragmentation mode: HCD
Collision energy: 35  (nominal)
Resolution: 35000
Column name: Kinetex C18 EVO 2.6 um, 2.1x50 mm, precolumn 2.1x5 mm, Phenomenex
Retention time: 10.224 min
Base peak: 307.0281
Precursor m/z: 307.0282
Precursor type: [M-H]-
m/z	relative intensity	assigned
122.0004	3	C6H2O3-
145.0295	7	C9H5O2-
149.0245	1	C8H5O3-
149.996	4	C7H2O4-
154.0423	2	C11H6O-
155.0504	1	C11H7O-
157.968	1	C5H2O4S-
158.0375	4	C10H6O2-
169.0297	1	C11H5O2-
182.0374	41	C12H6O2-
183.0451	5	C12H7O2-
184.0529	6	C12H8O2-
185.9629	5	C6H2O5S-
186.0323	1	C11H6O3-
197.0248	1	C12H5O3-
198.0324	5	C12H6O3-
199.04	6	C12H7O3-
200.0479	17	C12H8O3-
200.9863	3	C7H5O5S-
201.9944	1	C7H6O5S-
210.0323	26	C13H6O3-
211.0402	80	C13H7O3-
212.0481	17	C13H8O3-
213.9578	19	C7H2O6S-
226.0275	2	C13H6O4-
227.0714	92	C14H11O3-
228.0429	57	C13H8O4-
228.9813	33	C8H5O6S-
263.002	15	C12H7O5S-
264.0099	18	C12H8O5S-
275.0021	1	C13H7O5S-
290.997	53	C13H7O6S-
292.0048	9	C13H8O6S-
307.0282	999	C14H11O6S-
