Mass spectrum: L-Thyroxine; LC-ESI-QFT; MS2; CE: 35 NCE; R=35000; [M-H]-
Name: L-Thyroxine
Name: DL-Thyroxine
Name: 2-amino-3-[4-(4-hydroxy-3,5-diiodophenoxy)-3,5-diiodophenyl]propanoic acid
Formula: C15H11I4NO4
Exact mass: 776.68670
SMILES: NC(CC1=CC(I)=C(OC2=CC(I)=C(O)C(I)=C2)C(I)=C1)C(O)=O
InChI: InChI=1S/C15H11I4NO4/c16-8-4-7(5-9(17)13(8)21)24-14-10(18)1-6(2-11(14)19)3-12(20)15(22)23/h1-2,4-5,12,21H,3,20H2,(H,22,23)
Instrument: Q Exactive Plus Orbitrap Thermo Scientific
Instrument type: LC-ESI-QFT
Ms type: MS2
Ion mode: NEGATIVE
Ionization: ESI
Fragmentation mode: HCD
Collision energy: 35  (nominal)
Resolution: 35000
Column name: Kinetex C18 EVO 2.6 um, 2.1x50 mm, precolumn 2.1x5 mm, Phenomenex
Retention time: 11.088 min
Base peak: 775.6798
Precursor m/z: 775.6794
Precursor type: [M-H]-
m/z	relative intensity	assigned
126.9047	999	I-
483.7629	20	C3H7I3N2O2-
603.7798	23	C14H9I3NO2-
775.6789	23	C15H10I4NO4-
