Mass spectrum: 4-Amino-N,N-dimethylbenzenesulfonamide; LC-ESI-QFT; MS2; CE: 35 NCE; R=35000; [M+H]+
Name: 4-Amino-N,N-dimethylbenzenesulfonamide
Formula: C8H12N2O2S
Exact mass: 200.06195
SMILES: CN(C)S(=O)(=O)C1=CC=C(N)C=C1
InChI: InChI=1S/C8H12N2O2S/c1-10(2)13(11,12)8-5-3-7(9)4-6-8/h3-6H,9H2,1-2H3
Instrument: Q Exactive Plus Orbitrap Thermo Scientific
Instrument type: LC-ESI-QFT
Ms type: MS2
Ion mode: POSITIVE
Ionization: ESI
Fragmentation mode: HCD
Collision energy: 35  (nominal)
Resolution: 35000
Column name: Kinetex C18 EVO 2.6 um, 2.1x50 mm, precolumn 2.1x5 mm, Phenomenex
Retention time: 4.230 min
Base peak: 201.069
Precursor m/z: 201.0692
Precursor type: [M+H]+
m/z	relative intensity	assigned
53.0388	1	C4H5+
55.0181	1	C3H3O+
65.0387	29	C5H5+
68.0496	30	C4H6N+
69.0336	1	C4H5O+
78.0339	3	C5H4N+
79.0178	4	C5H3O+
80.0495	3	C5H6N+
92.0495	332	C6H6N+
95.0366	1	C5H5NO+
96.0443	4	C5H6NO+
108.0444	371	C6H6NO+
110.0601	33	C6H8NO+
120.0556	6	C6H6N3+
130.982	1	C7HNS+
144.9975	1	C8H3NS+
156.0113	999	C6H6NO2S+
201.0692	55	C8H13N2O2S+
