Mass spectrum: Perfluorobutanoic acid; LC-ESI-QFT; MS2; CE: 35 NCE; R=35000; [M-H]-
Name: Perfluorobutanoic acid
Name: Heptafluorobutyric acid
Name: 2,2,3,3,4,4,4-heptafluorobutanoic acid
Formula: C4HF7O2
Exact mass: 213.98648
SMILES: OC(=O)C(F)(F)C(F)(F)C(F)(F)F
InChI: InChI=1S/C4HF7O2/c5-2(6,1(12)13)3(7,8)4(9,10)11/h(H,12,13)
Instrument: Q Exactive Plus Orbitrap Thermo Scientific
Instrument type: LC-ESI-QFT
Ms type: MS2
Ion mode: NEGATIVE
Ionization: ESI
Fragmentation mode: HCD
Collision energy: 35  (nominal)
Resolution: 35000
Column name: Kinetex C18 EVO 2.6 um, 2.1x50 mm, precolumn 2.1x5 mm, Phenomenex
Retention time: 7.394 min
Base peak: 212.9791
Precursor m/z: 212.9792
Precursor type: [M-H]-
m/z	relative intensity	assigned
168.9894	999	C3F7-
212.979	17	C4F7O2-
