Mass spectrum: 2-Isopropylthioxanthone; LC-ESI-QFT; MS2; CE: 35 NCE; R=35000; [M+H]+
Name: 2-Isopropylthioxanthone
Name: 2-propan-2-ylthioxanthen-9-one
Formula: C16H14OS
Exact mass: 254.07654
SMILES: CC(C)C1=CC2=C(SC3=CC=CC=C3C2=O)C=C1
InChI: InChI=1S/C16H14OS/c1-10(2)11-7-8-15-13(9-11)16(17)12-5-3-4-6-14(12)18-15/h3-10H,1-2H3
Instrument: Q Exactive Plus Orbitrap Thermo Scientific
Instrument type: LC-ESI-QFT
Ms type: MS2
Ion mode: POSITIVE
Ionization: ESI
Fragmentation mode: HCD
Collision energy: 35  (nominal)
Resolution: 35000
Column name: Kinetex C18 EVO 2.6 um, 2.1x50 mm, precolumn 2.1x5 mm, Phenomenex
Retention time: 13.626 min
Base peak: 255.0836
Precursor m/z: 255.0838
Precursor type: [M+H]+
m/z	relative intensity	assigned
184.0341	11	C12H8S+
185.0418	2	C12H9S+
213.0369	787	C13H9OS+
239.0531	2	C15H11OS+
240.0608	3	C15H12OS+
255.0839	999	C16H15OS+
