Mass spectrum: Isophorone diamine; LC-ESI-QFT; MS2; CE: 35 NCE; R=35000; [M+H]+
Name: Isophorone diamine
Name: 3-(aminomethyl)-3,5,5-trimethylcyclohexan-1-amine
Formula: C10H22N2
Exact mass: 170.17830
SMILES: CC1(CC(CC(C1)(C)CN)N)C
InChI: InChI=1S/C10H22N2/c1-9(2)4-8(12)5-10(3,6-9)7-11/h8H,4-7,11-12H2,1-3H3
Instrument: Q Exactive Plus Orbitrap Thermo Scientific
Instrument type: LC-ESI-QFT
Ms type: MS2
Ion mode: POSITIVE
Ionization: ESI
Fragmentation mode: HCD
Collision energy: 35  (nominal)
Resolution: 35000
Column name: Kinetex C18 EVO 2.6 um, 2.1x50 mm, precolumn 2.1x5 mm, Phenomenex
Retention time: 0.382 min
Base peak: 171.1852
Precursor m/z: 171.1856
Precursor type: [M+H]+
m/z	relative intensity	assigned
57.07	6	C4H9+
67.0543	9	C5H7+
69.0699	10	C5H9+
71.0856	14	C5H11+
79.0542	1	C6H7+
81.0699	111	C6H9+
83.0856	1	C6H11+
95.0855	111	C7H11+
109.1012	5	C8H13+
137.1324	239	C10H17+
154.159	999	C10H20N+
171.1855	568	C10H23N2+
