Mass spectrum: Triglyme; LC-ESI-QFT; MS2; CE: 35 NCE; R=35000; [M+H]+
Name: Triglyme
Name: 1-methoxy-2-[2-(2-methoxyethoxy)ethoxy]ethane
Formula: C8H18O4
Exact mass: 178.12051
SMILES: COCCOCCOCCOC
InChI: InChI=1S/C8H18O4/c1-9-3-5-11-7-8-12-6-4-10-2/h3-8H2,1-2H3
Instrument: Q Exactive Plus Orbitrap Thermo Scientific
Instrument type: LC-ESI-QFT
Ms type: MS2
Ion mode: POSITIVE
Ionization: ESI
Fragmentation mode: HCD
Collision energy: 35  (nominal)
Resolution: 35000
Column name: Kinetex C18 EVO 2.6 um, 2.1x50 mm, precolumn 2.1x5 mm, Phenomenex
Retention time: 3.916 min
Base peak: 196.1542
Precursor m/z: 179.1278
Precursor type: [M+H]+
m/z	relative intensity	assigned
59.0493	999	C3H7O+
73.0284	1	C3H5O2+
89.0597	14	C4H9O2+
103.0754	582	C5H11O2+
133.0861	5	C6H13O3+
147.1015	5	C7H15O3+
179.1277	3	C8H19O4+
