Mass spectrum: Ethyl azinphos; LC-ESI-QFT; MS2; CE: 35 NCE; R=35000; [M+H]+
Name: Ethyl azinphos
Name: 3-(diethoxyphosphinothioylsulfanylmethyl)-1,2,3-benzotriazin-4-one
Formula: C12H16N3O3PS2
Exact mass: 345.03707
SMILES: CCOP(=S)(OCC)SCN1N=Nc2ccccc2C1=O
InChI: InChI=1S/C12H16N3O3PS2/c1-3-17-19(20,18-4-2)21-9-15-12(16)10-7-5-6-8-11(10)13-14-15/h5-8H,3-4,9H2,1-2H3
Instrument: Q Exactive Plus Orbitrap Thermo Scientific
Instrument type: LC-ESI-QFT
Ms type: MS2
Ion mode: POSITIVE
Ionization: ESI
Fragmentation mode: HCD
Collision energy: 35  (nominal)
Resolution: 35000
Column name: Kinetex C18 EVO 2.6 um, 2.1x50 mm, precolumn 2.1x5 mm, Phenomenex
Retention time: 11.896 min
Base peak: 346.0441
Precursor m/z: 346.0443
Precursor type: [M+H]+
m/z	relative intensity	assigned
50.0154	3	H5NP+
51.0232	5	H6NP+
53.0388	42	H8NP+
64.9788	4	H2O2P+
77.0386	93	C6H5+
81.0335	4	C5H5O+
94.0412	6	C6H6O+
95.0492	158	C6H7O+
96.9508	213	H2O2PS+
104.0495	211	C7H6N+
105.0335	181	C7H5O+
105.0447	57	C6H5N2+
109.0106	55	C6H5S+
110.9664	18	CH4O2PS+
114.9614	999	H4O3PS+
120.0444	14	C7H6NO+
120.9853	3	C5HN2S+
123.0267	4	C3H10NPS+
124.982	28	C2H6O2PS+
126.9437	5	CH4OPS2+
128.977	71	CH6O3PS+
130.0398	27	C7H4N3+
132.0444	595	C8H6NO+
135.9978	5	C7H4OS+
136.0215	8	C7H6NS+
137.0056	707	C7H5OS+
142.9385	396	CH4O2PS2+
142.9927	25	C2H8O3PS+
148.0215	45	C8H6NS+
149.0599	15	C5H12NO2P+
150.055	50	C8H8NO2+
152.9828	20	C7H5S2+
153.0005	34	C7H5O2S+
153.0132	28	C4H10O2PS+
160.0506	113	C8H6N3O+
164.0708	16	C5H13N2O2P+
166.0321	60	C8H8NOS+
168.9779	7	C3H8NOPS2+
170.9698	203	C3H8O2PS2+
171.024	107	C4H12O3PS+
172.9824	16	C6H6O2PS+
182.0095	9	C4H11N2PS2+
182.0399	4	C5H13NO2PS+
185.0396	15	C5H14O3PS+
199.001	46	C5H12O2PS2+
214.9382	14	C7H4O2PS2+
216.9721	16	C4H3N5O2S2+
232.9492	324	C7H6O3PS2+
260.9804	250	C9H10O3PS2+
261.976	27	C8H9NO3PS2+
289.0117	65	C11H14O3PS2+
