Mass spectrum: PHIP; LC-ESI-QFT; MS2; CE: 35 NCE; R=35000; [M+H]+
Name: PHIP
Name: 1-methyl-6-phenylimidazo[4,5-b]pyridin-2-amine
Formula: C13H12N4
Exact mass: 224.10620
SMILES: Cn1c2cc(cnc2[nH]c1=N)-c1ccccc1
InChI: InChI=1S/C13H12N4/c1-17-11-7-10(9-5-3-2-4-6-9)8-15-12(11)16-13(17)14/h2-8H,1H3,(H2,14,15,16)
Instrument: Q Exactive Plus Orbitrap Thermo Scientific
Instrument type: LC-ESI-QFT
Ms type: MS2
Ion mode: POSITIVE
Ionization: ESI
Fragmentation mode: HCD
Collision energy: 35  (nominal)
Resolution: 35000
Column name: Kinetex C18 EVO 2.6 um, 2.1x50 mm, precolumn 2.1x5 mm, Phenomenex
Retention time: 5.987 min
Base peak: 225.1132
Precursor m/z: 225.1135
Precursor type: [M+H]+
m/z	relative intensity	assigned
140.0492	1	C10H6N+
157.0761	2	C10H9N2+
165.0771	1	C7H9N4O+
167.0606	2	C11H7N2+
181.0757	1	C12H9N2+
183.0918	2	C12H11N2+
184.0869	2	C11H10N3+
208.0871	4	C13H10N3+
210.0901	43	C12H10N4+
225.1135	999	C13H13N4+
