Mass spectrum: Mycophenolic acid; LC-ESI-QFT; MS2; CE: 35 NCE; R=35000; [M+H]+
Name: Mycophenolic acid
Name: (E)-6-(4-hydroxy-6-methoxy-7-methyl-3-oxo-1H-2-benzofuran-5-yl)-4-methylhex-4-enoic acid
Formula: C17H20O6
Exact mass: 320.12599
SMILES: COc1c(C)c2COC(=O)c2c(O)c1C\C=C(/C)CCC(O)=O
InChI: InChI=1S/C17H20O6/c1-9(5-7-13(18)19)4-6-11-15(20)14-12(8-23-17(14)21)10(2)16(11)22-3/h4,20H,5-8H2,1-3H3,(H,18,19)/b9-4+
Instrument: Q Exactive Plus Orbitrap Thermo Scientific
Instrument type: LC-ESI-QFT
Ms type: MS2
Ion mode: POSITIVE
Ionization: ESI
Fragmentation mode: HCD
Collision energy: 35  (nominal)
Resolution: 35000
Column name: Kinetex C18 EVO 2.6 um, 2.1x50 mm, precolumn 2.1x5 mm, Phenomenex
Retention time: 10.904 min
Base peak: 423.1689
Precursor m/z: 321.1333
Precursor type: [M+H]+
m/z	relative intensity	assigned
55.0181	2	C3H3O+
79.0543	2	C6H7+
81.0699	16	C6H9+
91.0542	10	C7H7+
95.0491	1	C6H7O+
103.0542	9	C8H7+
109.0648	5	C7H9O+
127.0753	1	C7H11O2+
131.0492	3	C9H7O+
135.0804	8	C9H11O+
149.0596	2	C9H9O2+
159.044	138	C10H7O2+
161.0598	1	C10H9O2+
175.0752	3	C11H11O2+
177.0546	136	C10H9O3+
179.0702	6	C10H11O3+
191.0702	5	C11H11O3+
193.0495	3	C10H9O4+
195.0652	51	C10H11O4+
207.0652	999	C11H11O4+
215.1068	6	C14H15O2+
219.0654	4	C12H11O4+
221.081	3	C12H13O4+
223.0602	9	C11H11O5+
239.0913	6	C12H15O5+
239.1063	2	C16H15O2+
241.1223	2	C16H17O2+
259.0961	5	C15H15O4+
261.1121	5	C15H17O4+
270.0879	3	C16H14O4+
275.1277	102	C16H19O4+
285.1121	33	C17H17O4+
303.1227	150	C17H19O5+
321.1333	470	C17H21O6+
