Mass spectrum: 2-Methylimidazole; LC-ESI-QFT; MS2; CE: 35 NCE; R=35000; [M+H]+
Name: 2-Methylimidazole
Name: 2-METHYLIMIDAZOLE
Name: 2-methyl-1H-imidazole
Formula: C4H6N2
Exact mass: 82.05310
SMILES: CC1=NC=CN1
InChI: InChI=1S/C4H6N2/c1-4-5-2-3-6-4/h2-3H,1H3,(H,5,6)
Instrument: Q Exactive Plus Orbitrap Thermo Scientific
Instrument type: LC-ESI-QFT
Ms type: MS2
Ion mode: POSITIVE
Ionization: ESI
Fragmentation mode: HCD
Collision energy: 35  (nominal)
Resolution: 35000
Column name: Kinetex C18 EVO 2.6 um, 2.1x50 mm, precolumn 2.1x5 mm, Phenomenex
Retention time: 0.469 min
Base peak: 95.0603
Precursor m/z: 83.0604
Precursor type: [M+H]+
m/z	relative intensity	assigned
83.0603	999	C4H7N2+
