Mass spectrum: Indometacin; LC-ESI-QFT; MS2; CE: 35 NCE; R=35000; [M-H]-
Name: Indometacin
Name: 2-[1-(4-chlorobenzoyl)-5-methoxy-2-methylindol-3-yl]acetic acid
Formula: C19H16ClNO4
Exact mass: 357.07679
SMILES: COc1ccc2n(C(=O)c3ccc(Cl)cc3)c(C)c(CC(O)=O)c2c1
InChI: InChI=1S/C19H16ClNO4/c1-11-15(10-18(22)23)16-9-14(25-2)7-8-17(16)21(11)19(24)12-3-5-13(20)6-4-12/h3-9H,10H2,1-2H3,(H,22,23)
Instrument: Q Exactive Plus Orbitrap Thermo Scientific
Instrument type: LC-ESI-QFT
Ms type: MS2
Ion mode: NEGATIVE
Ionization: ESI
Fragmentation mode: HCD
Collision energy: 35  (nominal)
Resolution: 35000
Column name: Kinetex C18 EVO 2.6 um, 2.1x50 mm, precolumn 2.1x5 mm, Phenomenex
Retention time: 12.301 min
Base peak: 402.0749
Precursor m/z: 356.0695
Precursor type: [M-H]-
m/z	relative intensity	assigned
153.0115	17	C8H6ClO-
154.9904	8	C7H4ClO2-
157.0533	33	C10H7NO-
158.0612	305	C10H8NO-
172.0765	4	C11H10NO-
243.0285	2	C11H5N3O4-
243.1052	2	C18H13N-
253.0301	23	C15H8ClNO-
254.0378	67	C15H9ClNO-
255.0457	215	C15H10ClNO-
257.0253	3	C14H8ClNO2-
268.0538	28	C16H11ClNO-
269.025	27	C15H8ClNO2-
269.0614	135	C16H12ClNO-
270.0692	121	C16H13ClNO-
271.0404	3	C15H10ClNO2-
272.048	25	C18H8O3-
281.0247	12	C19H5O3-
282.0327	524	C16H9ClNO2-
284.0479	8	C19H8O3-
284.0855	9	C17H15ClNO-
296.0481	13	C17H11ClNO2-
297.0561	483	C17H12ClNO2-
301.0511	16	C16H12ClNO3-
312.0797	999	C18H15ClNO2-
329.046	8	C17H12ClNO4-
351.9759	2	C16H3ClN3O5-
