Mass spectrum: Tamoxifen; LC-ESI-QFT; MS2; CE: 35 NCE; R=35000; [M+H]+
Name: Tamoxifen
Name: 2-[4-[(Z)-1,2-diphenylbut-1-enyl]phenoxy]-N,N-dimethylethanamine
Formula: C26H29NO
Exact mass: 371.22491
SMILES: CC\C(=C(/c1ccccc1)c1ccc(OCCN(C)C)cc1)c1ccccc1
InChI: InChI=1S/C26H29NO/c1-4-25(21-11-7-5-8-12-21)26(22-13-9-6-10-14-22)23-15-17-24(18-16-23)28-20-19-27(2)3/h5-18H,4,19-20H2,1-3H3/b26-25-
Instrument: Q Exactive Plus Orbitrap Thermo Scientific
Instrument type: LC-ESI-QFT
Ms type: MS2
Ion mode: POSITIVE
Ionization: ESI
Fragmentation mode: HCD
Collision energy: 35  (nominal)
Resolution: 35000
Column name: Kinetex C18 EVO 2.6 um, 2.1x50 mm, precolumn 2.1x5 mm, Phenomenex
Retention time: 11.018 min
Base peak: 204.138
Precursor m/z: 372.2322
Precursor type: [M+H]+
m/z	relative intensity	assigned
56.0497	9	C3H6N+
57.0574	10	C3H7N+
58.0653	18	C3H8N+
70.0652	57	C4H8N+
72.0808	999	C4H10N+
91.0542	24	C7H7+
105.0698	6	C8H9+
107.0491	4	C7H7O+
115.0544	1	C9H7+
128.0618	2	C10H8+
129.0699	40	C10H9+
167.0856	2	C13H11+
178.0777	6	C14H10+
179.0854	2	C14H11+
191.0852	2	C15H11+
192.0937	1	C15H12+
193.1014	3	C15H13+
194.0729	1	C14H10O+
205.1012	1	C16H13+
206.109	1	C16H14+
207.0806	2	C15H11O+
207.1168	3	C16H15+
209.0962	4	C15H13O+
215.0853	1	C17H11+
221.0958	1	C16H13O+
249.1275	2	C18H17O+
253.1012	2	C20H13+
254.1089	1	C20H14+
283.1121	1	C21H15O+
285.1273	2	C21H17O+
298.1358	1	C22H18O+
300.1511	2	C22H20O+
327.1743	3	C24H23O+
372.2322	749	C26H30NO+
