Mass spectrum: Abietic acid; LC-ESI-QFT; MS2; CE: 35 NCE; R=35000; [M+H]+
Name: Abietic acid
Name: (1R,4aR,4bR,10aR)-1,4a-dimethyl-7-propan-2-yl-2,3,4,4b,5,6,10,10a-octahydrophenanthrene-1-carboxylic acid
Formula: C20H30O2
Exact mass: 302.22458
SMILES: CC(C)C1=CC2=CC[C@@H]3[C@](C)(CCC[C@@]3(C)C(O)=O)[C@H]2CC1
InChI: InChI=1S/C20H30O2/c1-13(2)14-6-8-16-15(12-14)7-9-17-19(16,3)10-5-11-20(17,4)18(21)22/h7,12-13,16-17H,5-6,8-11H2,1-4H3,(H,21,22)/t16-,17+,19+,20+/m0/s1
Instrument: Q Exactive Plus Orbitrap Thermo Scientific
Instrument type: LC-ESI-QFT
Ms type: MS2
Ion mode: POSITIVE
Ionization: ESI
Fragmentation mode: HCD
Collision energy: 35  (nominal)
Resolution: 35000
Column name: Kinetex C18 EVO 2.6 um, 2.1x50 mm, precolumn 2.1x5 mm, Phenomenex
Retention time: 14.844 min
Base peak: 164.9845
Precursor m/z: 303.2319
Precursor type: [M+H]+
m/z	relative intensity	assigned
57.0701	24	C4H9+
67.0543	66	C5H7+
69.07	54	C5H9+
79.0543	77	C6H7+
81.0699	246	C6H9+
91.0542	27	C7H7+
93.0699	293	C7H9+
95.0855	68	C7H11+
105.0699	30	C8H9+
107.0855	222	C8H11+
109.1013	290	C8H13+
111.1168	13	C8H15+
119.0855	23	C9H11+
121.1012	374	C9H13+
123.1169	999	C9H15+
133.1014	103	C10H13+
135.1169	274	C10H15+
137.1326	107	C10H17+
139.1119	124	C9H15O+
147.1167	87	C11H15+
149.1325	364	C11H17+
159.1165	20	C12H15+
161.1327	14	C12H17+
167.1067	108	C10H15O2+
173.1324	19	C13H17+
179.1067	17	C11H15O2+
193.1227	16	C12H17O2+
201.1637	65	C15H21+
257.2265	330	C19H29+
285.221	109	C20H29O+
303.2321	818	C20H31O2+
