Mass spectrum: 4-Methylcoumarin; LC-ESI-QFT; MS2; CE: 35 NCE; R=35000; [M+H]+
Name: 4-Methylcoumarin
Name: 4-methylchromen-2-one
Formula: C10H8O2
Exact mass: 160.05243
SMILES: CC1=CC(=O)OC2=CC=CC=C12
InChI: InChI=1S/C10H8O2/c1-7-6-10(11)12-9-5-3-2-4-8(7)9/h2-6H,1H3
Instrument: Q Exactive Plus Orbitrap Thermo Scientific
Instrument type: LC-ESI-QFT
Ms type: MS2
Ion mode: POSITIVE
Ionization: ESI
Fragmentation mode: HCD
Collision energy: 35  (nominal)
Resolution: 35000
Column name: Kinetex C18 EVO 2.6 um, 2.1x50 mm, precolumn 2.1x5 mm, Phenomenex
Retention time: 14.732 min
Base peak: 164.9845
Precursor m/z: 161.0597
Precursor type: [M+H]+
m/z	relative intensity	assigned
59.0494	2	C3H7O+
79.0543	64	C6H7+
90.0464	16	C7H6+
91.0544	11	C7H7+
95.0492	4	C6H7O+
101.0598	9	C5H9O2+
103.0543	60	C8H7+
105.0449	3	C6H5N2+
105.0699	59	C8H9+
117.0699	2	C9H9+
118.0414	106	C8H6O+
133.0649	779	C9H9O+
146.0364	3	C9H6O2+
161.0598	999	C10H9O2+
