Mass spectrum: Triamcinolone; LC-ESI-QFT; MS2; CE: 35 NCE; R=35000; [M+H]+
Name: Triamcinolone
Name: 9-Fluoro-11,16,17,21-tetrahydroxypregna-1,4-diene-3,20-dione
Name: 9-fluoro-11,16,17-trihydroxy-17-(2-hydroxyacetyl)-10,13-dimethyl-6,7,8,11,12,14,15,16-octahydrocyclopenta[a]phenanthren-3-one
Formula: C21H27FO6
Exact mass: 394.17917
SMILES: CC12CC(O)C3(F)C(CCC4=CC(=O)C=CC34C)C1CC(O)C2(O)C(=O)CO
InChI: InChI=1S/C21H27FO6/c1-18-6-5-12(24)7-11(18)3-4-13-14-8-15(25)21(28,17(27)10-23)19(14,2)9-16(26)20(13,18)22/h5-7,13-16,23,25-26,28H,3-4,8-10H2,1-2H3
Instrument: Q Exactive Plus Orbitrap Thermo Scientific
Instrument type: LC-ESI-QFT
Ms type: MS2
Ion mode: POSITIVE
Ionization: ESI
Fragmentation mode: HCD
Collision energy: 35  (nominal)
Resolution: 35000
Column name: Kinetex C18 EVO 2.6 um, 2.1x50 mm, precolumn 2.1x5 mm, Phenomenex
Retention time: 8.040 min
Base peak: 395.1863
Precursor m/z: 395.1864
Precursor type: [M+H]+
m/z	relative intensity	assigned
53.0388	2	C4H5+
55.0181	23	C3H3O+
55.0544	2	C4H7+
57.0336	2	C3H5O+
59.0493	10	C3H7O+
67.0543	21	C5H7+
69.0336	54	C4H5O+
69.07	10	C5H9+
71.0492	22	C4H7O+
73.0284	4	C3H5O2+
77.0386	2	C6H5+
79.0542	30	C6H7+
81.0334	19	C5H5O+
81.0699	38	C6H9+
83.0491	26	C5H7O+
85.0649	3	C5H9O+
87.044	76	C4H7O2+
91.0542	49	C7H7+
93.0699	62	C7H9+
95.0491	46	C6H7O+
95.0855	32	C7H11+
97.0285	9	C5H5O2+
97.0648	22	C6H9O+
99.0439	26	C5H7O2+
103.0543	3	C8H7+
105.0699	90	C8H9+
107.0492	20	C7H7O+
107.0855	26	C8H11+
109.0648	69	C7H9O+
111.0439	23	C6H7O2+
111.0804	3	C7H11O+
113.0597	23	C6H9O2+
115.039	13	C5H7O3+
115.0542	5	C9H7+
117.0545	4	C5H9O3+
117.0699	31	C9H9+
119.049	5	C8H7O+
119.0855	46	C9H11+
121.0648	231	C8H9O+
123.0443	17	C7H7O2+
123.0804	20	C8H11O+
125.0597	34	C7H9O2+
127.0389	3	C6H7O3+
127.0753	3	C7H11O2+
128.0619	26	C10H8+
129.0699	24	C10H9+
131.0855	31	C10H11+
132.0569	3	C9H8O+
133.0648	40	C9H9O+
133.1011	4	C10H13+
135.0804	75	C9H11O+
137.0597	61	C8H9O2+
139.0753	15	C8H11O2+
141.0547	19	C7H9O3+
141.0697	17	C11H9+
142.0777	12	C11H10+
143.0855	97	C11H11+
144.0569	3	C10H8O+
145.0647	77	C10H9O+
145.1008	16	C11H13+
146.0726	5	C10H10O+
147.0804	537	C10H11O+
149.0598	17	C9H9O2+
151.0389	5	C8H7O3+
151.0753	30	C9H11O2+
153.0548	5	C8H9O3+
153.0699	4	C12H9+
153.091	13	C9H13O2+
155.0605	2	C10H7N2+
155.0701	28	C8H11O3+
155.0854	36	C12H11+
156.0932	3	C12H12+
157.0648	12	C11H9O+
157.1011	31	C12H13+
158.0726	25	C11H10O+
159.0804	156	C11H11O+
160.0883	3	C11H12O+
161.0597	17	C10H9O2+
161.0961	76	C11H13O+
163.0754	33	C10H11O2+
165.0546	2	C9H9O3+
165.07	13	C13H9+
165.0912	2	C10H13O2+
166.0778	5	C13H10+
167.0703	10	C9H11O3+
167.0855	12	C13H11+
168.0929	2	C13H12+
169.0648	34	C12H9O+
169.1011	18	C13H13+
170.0724	9	C12H10O+
171.0804	282	C12H11O+
171.1168	18	C13H15+
172.0883	4	C12H12O+
173.0807	14	C8H13O4+
173.0961	93	C12H13O+
175.0754	72	C11H11O2+
177.0912	2	C11H13O2+
178.0777	14	C14H10+
179.0703	12	C10H11O3+
179.0856	28	C14H11+
180.0933	14	C14H12+
181.0646	5	C13H9O+
181.101	24	C14H13+
182.0726	10	C13H10O+
182.1091	8	C14H14+
183.0805	44	C13H11O+
183.1168	12	C14H15+
184.0884	9	C13H12O+
185.0961	138	C13H13O+
187.0754	190	C12H11O2+
187.1116	34	C13H15O+
189.0707	4	C12H10FO+
189.0909	17	C12H13O2+
190.0778	13	C15H10+
191.0857	22	C15H11+
192.0932	29	C15H12+
193.0862	2	C11H13O3+
193.1011	31	C15H13+
194.0727	10	C14H10O+
194.1094	2	C15H14+
195.0805	47	C14H11O+
195.1169	34	C15H15+
196.0882	35	C14H12O+
197.0809	12	C10H13O4+
197.0961	101	C14H13O+
197.1322	18	C15H17+
198.1039	12	C14H14O+
199.0752	4	C13H11O2+
199.1118	66	C14H15O+
201.091	13	C13H13O2+
202.0773	8	C16H10+
203.0855	11	C16H11+
203.1069	5	C13H15O2+
204.0933	11	C16H12+
205.1012	33	C16H13+
206.0729	3	C15H10O+
206.1089	24	C16H14+
207.0803	3	C15H11O+
207.1168	54	C16H15+
208.0882	52	C15H12O+
209.0961	130	C15H13O+
209.1324	15	C16H17+
210.1039	56	C15H14O+
211.1117	117	C15H15O+
212.1194	4	C15H16O+
213.0911	27	C14H13O2+
213.1273	107	C15H17O+
215.0857	5	C17H11+
215.1067	14	C14H15O2+
215.1433	3	C15H19O+
216.0938	9	C17H12+
217.1011	21	C17H13+
218.0726	4	C16H10O+
218.109	11	C17H14+
219.0803	13	C16H11O+
219.117	26	C17H15+
220.0879	19	C16H12O+
221.0961	83	C16H13O+
221.1324	43	C17H17+
222.1039	52	C16H14O+
223.1117	245	C16H15O+
224.1196	56	C16H16O+
225.1273	398	C16H17O+
226.0984	4	C15H14O2+
226.1347	2	C16H18O+
227.0855	4	C18H11+
227.1065	24	C15H15O2+
227.1431	15	C16H19O+
228.093	9	C18H12+
229.1009	9	C18H13+
230.1096	17	C18H14+
231.0805	14	C17H11O+
231.1168	11	C18H15+
232.088	17	C17H12O+
232.1245	12	C18H16+
233.096	43	C17H13O+
233.1322	25	C18H17+
234.1038	37	C17H14O+
235.1117	131	C17H15O+
236.1194	17	C17H16O+
237.091	13	C16H13O2+
237.1274	167	C17H17O+
238.0987	3	C16H14O2+
239.1067	29	C16H15O2+
239.143	67	C17H19O+
241.1016	4	C19H13+
241.1223	43	C16H17O2+
241.1583	3	C17H21O+
242.1089	16	C19H14+
243.1037	2	C12H16FO4+
243.1167	23	C19H15+
243.1378	11	C16H19O2+
245.0962	40	C18H13O+
245.1324	26	C19H17+
246.104	44	C18H14O+
247.112	43	C18H15O+
247.1485	15	C19H19+
248.1196	44	C18H16O+
249.1273	100	C18H17O+
250.1353	14	C18H18O+
251.1068	27	C17H15O2+
251.143	86	C18H19O+
252.114	2	C17H16O2+
252.151	4	C18H20O+
253.1222	68	C17H17O2+
253.1588	21	C18H21O+
255.1176	4	C17H16FO+
255.1379	11	C17H19O2+
257.1324	18	C20H17+
258.1039	20	C19H14O+
259.1119	35	C19H15O+
260.1195	73	C19H16O+
260.1326	4	C15H17FN2O+
261.0914	10	C18H13O2+
261.1274	162	C19H17O+
262.0991	4	C18H14O2+
262.1351	44	C19H18O+
263.1068	19	C18H15O2+
263.143	187	C19H19O+
264.1141	4	C18H16O2+
265.1224	26	C18H17O2+
265.1587	80	C19H21O+
267.1382	34	C18H19O2+
269.1174	5	C17H17O3+
269.1537	14	C18H21O2+
270.1033	5	C20H14O+
271.1327	8	C17H19O3+
273.1273	43	C20H17O+
275.143	204	C20H19O+
276.1149	21	C19H16O2+
277.1225	42	C19H17O2+
277.158	4	C20H21O+
278.1302	22	C19H18O2+
279.102	11	C18H15O3+
279.138	116	C19H19O2+
280.1457	24	C19H20O2+
281.1173	4	C18H17O3+
281.1536	68	C19H21O2+
283.1335	8	C15H20FO4+
283.1501	4	C19H20FO+
283.1694	14	C19H23O2+
285.1278	18	C21H17O+
285.1483	2	C18H21O3+
288.1145	15	C20H16O2+
290.1297	3	C20H18O2+
291.1379	142	C20H19O2+
293.1536	189	C20H21O2+
295.1331	45	C19H19O3+
297.1486	60	C19H21O3+
303.1381	126	C21H19O2+
308.1417	2	C17H21FO4+
309.1485	114	C20H21O3+
311.1641	164	C20H23O3+
313.1443	3	C16H22FO5+
315.1221	4	C18H19O5+
321.1486	333	C21H21O3+
327.1591	99	C20H23O4+
329.156	4	C20H22FO3+
329.1744	38	C20H25O4+
339.1592	411	C21H23O4+
341.1552	14	C21H22FO3+
345.1698	15	C20H25O5+
357.1696	718	C21H25O5+
359.1651	11	C21H24FO4+
375.1803	999	C21H27O6+
377.1762	3	C21H26FO5+
395.1866	276	C21H28FO6+
