Mass spectrum: 2,4-Dihydroxybenzophenone; LC-ESI-QFT; MS2; CE: 35 NCE; R=35000; [M+H]+
Name: 2,4-Dihydroxybenzophenone
Name: (2,4-dihydroxyphenyl)-phenylmethanone
Formula: C13H10O3
Exact mass: 214.06299
SMILES: OC1=CC(O)=C(C=C1)C(=O)C1=CC=CC=C1
InChI: InChI=1S/C13H10O3/c14-10-6-7-11(12(15)8-10)13(16)9-4-2-1-3-5-9/h1-8,14-15H
Instrument: Q Exactive Plus Orbitrap Thermo Scientific
Instrument type: LC-ESI-QFT
Ms type: MS2
Ion mode: POSITIVE
Ionization: ESI
Fragmentation mode: HCD
Collision energy: 35  (nominal)
Resolution: 35000
Column name: Kinetex C18 EVO 2.6 um, 2.1x50 mm, precolumn 2.1x5 mm, Phenomenex
Retention time: 10.635 min
Base peak: 215.0702
Precursor m/z: 215.0703
Precursor type: [M+H]+
m/z	relative intensity	assigned
77.0388	9	C6H5+
81.0336	19	C5H5O+
95.0493	6	C6H7O+
105.0336	239	C7H5O+
109.0289	2	C6H5O2+
137.0234	999	C7H5O3+
215.0705	671	C13H11O3+
