Mass spectrum: Warfarin; LC-ESI-QFT; MS2; CE: 35 NCE; R=35000; [M-H]-
Name: Warfarin
Name: 4-hydroxy-3-(3-oxo-1-phenylbutyl)chromen-2-one
Formula: C19H16O4
Exact mass: 308.10486
SMILES: CC(=O)CC(C1=CC=CC=C1)C1=C(O)C2=CC=CC=C2OC1=O
InChI: InChI=1S/C19H16O4/c1-12(20)11-15(13-7-3-2-4-8-13)17-18(21)14-9-5-6-10-16(14)23-19(17)22/h2-10,15,21H,11H2,1H3
Instrument: Q Exactive Plus Orbitrap Thermo Scientific
Instrument type: LC-ESI-QFT
Ms type: MS2
Ion mode: NEGATIVE
Ionization: ESI
Fragmentation mode: HCD
Collision energy: 35  (nominal)
Resolution: 35000
Column name: Kinetex C18 EVO 2.6 um, 2.1x50 mm, precolumn 2.1x5 mm, Phenomenex
Retention time: 11.306 min
Base peak: 307.0973
Precursor m/z: 307.0976
Precursor type: [M-H]-
m/z	relative intensity	assigned
130.0422	4	C9H6O-
133.0658	6	C9H9O-
157.0659	4	C11H9O-
161.0244	567	C9H5O3-
195.0815	3	C14H11O-
206.0737	11	C15H10O-
219.0815	2	C16H11O-
221.0608	2	C15H9O2-
221.0971	2	C16H13O-
222.0684	2	C15H10O2-
223.0763	18	C15H11O2-
250.0636	365	C16H10O3-
261.0925	3	C18H13O2-
263.1083	3	C18H15O2-
289.0875	3	C19H13O3-
307.0975	999	C19H15O4-
