Mass spectrum: DCOIT; LC-ESI-QFT; MS2; CE: 35 NCE; R=35000; [M+H]+
Name: DCOIT
Name: 4,5-dichloro-2-octyl-1,2-thiazol-3-one
Formula: C11H17Cl2NOS
Exact mass: 281.04079
SMILES: CCCCCCCCN1SC(Cl)=C(Cl)C1=O
InChI: InChI=1S/C11H17Cl2NOS/c1-2-3-4-5-6-7-8-14-11(15)9(12)10(13)16-14/h2-8H2,1H3
Instrument: Q Exactive Plus Orbitrap Thermo Scientific
Instrument type: LC-ESI-QFT
Ms type: MS2
Ion mode: POSITIVE
Ionization: ESI
Fragmentation mode: HCD
Collision energy: 35  (nominal)
Resolution: 35000
Column name: Kinetex C18 EVO 2.6 um, 2.1x50 mm, precolumn 2.1x5 mm, Phenomenex
Retention time: 13.475 min
Base peak: 399.2503
Precursor m/z: 282.0481
Precursor type: [M+H]+
m/z	relative intensity	assigned
53.0024	3	C3HO+
55.0544	2	C4H7+
57.0701	236	C4H9+
69.07	2	C5H9+
71.0856	250	C5H11+
126.9169	5	C2HCl2S+
134.954	7	C3H2ClNOS+
151.9123	3	C3Cl2NS+
169.9228	999	C3H2Cl2NOS+
282.0482	542	C11H18Cl2NOS+
