Mass spectrum: Sulcotrione; LC-ESI-QFT; MS2; CE: 35 NCE; R=35000; [M-H]-
Name: Sulcotrione
Name: 2-(2-chloro-4-methylsulfonylbenzoyl)cyclohexane-1,3-dione
Formula: C14H13ClO5S
Exact mass: 328.01722
SMILES: CS(=O)(=O)c1ccc(C(=O)C2C(=O)CCCC2=O)c(Cl)c1
InChI: InChI=1S/C14H13ClO5S/c1-21(19,20)8-5-6-9(10(15)7-8)14(18)13-11(16)3-2-4-12(13)17/h5-7,13H,2-4H2,1H3
Instrument: Q Exactive Plus Orbitrap Thermo Scientific
Instrument type: LC-ESI-QFT
Ms type: MS2
Ion mode: NEGATIVE
Ionization: ESI
Fragmentation mode: HCD
Collision energy: 35  (nominal)
Resolution: 35000
Column name: Kinetex C18 EVO 2.6 um, 2.1x50 mm, precolumn 2.1x5 mm, Phenomenex
Retention time: 9.398 min
Base peak: 322.0868
Precursor m/z: 327.0099
Precursor type: [M-H]-
m/z	relative intensity	assigned
122.07	3	C3H10N2O3-
168.0582	4	C12H8O-
170.0371	5	C11H6O2-
172.0534	4	C11H8O2-
212.0479	131	C13H8O3-
215.0351	62	C12H7O4-
216.0429	22	C12H8O4-
221.0278	4	C11H9O3S-
227.0347	5	C13H7O4-
237.0224	8	C11H9O4S-
247.0432	15	C13H11O3S-
249.0229	58	C12H9O4S-
263.0391	3	C13H11O4S-
291.0334	999	C14H11O5S-
327.0102	55	C14H12ClO5S-
