Mass spectrum: Dibenz[a,j]acridine; LC-ESI-QFT; MS2; CE: 35 NCE; R=35000; [M+H]+
Name: Dibenz[a,j]acridine
Formula: C21H13N
Exact mass: 279.10480
SMILES: C1=CC=C2C(C=CC3=NC4=C(C=C23)C2=CC=CC=C2C=C4)=C1
InChI: InChI=1S/C21H13N/c1-3-7-16-14(5-1)9-11-20-18(16)13-19-17-8-4-2-6-15(17)10-12-21(19)22-20/h1-13H
Instrument: Q Exactive Plus Orbitrap Thermo Scientific
Instrument type: LC-ESI-QFT
Ms type: MS2
Ion mode: POSITIVE
Ionization: ESI
Fragmentation mode: HCD
Collision energy: 35  (nominal)
Resolution: 35000
Column name: Kinetex C18 EVO 2.6 um, 2.1x50 mm, precolumn 2.1x5 mm, Phenomenex
Retention time: 11.820 min
Base peak: 280.1118
Precursor m/z: 280.1121
Precursor type: [M+H]+
m/z	relative intensity	assigned
278.0961	2	C21H12N+
279.1041	4	C21H13N+
280.112	999	C21H14N+
