Mass spectrum: 2-Hydroxyanthraquinone; LC-ESI-QFT; MS2; CE: 35 NCE; R=35000; [M-H]-
Name: 2-Hydroxyanthraquinone
Name: 2-hydroxyanthracene-9,10-dione
Formula: C14H8O3
Exact mass: 224.04734
SMILES: Oc1ccc2C(=O)c3ccccc3C(=O)c2c1
InChI: InChI=1S/C14H8O3/c15-8-5-6-11-12(7-8)14(17)10-4-2-1-3-9(10)13(11)16/h1-7,15H
Instrument: Q Exactive Plus Orbitrap Thermo Scientific
Instrument type: LC-ESI-QFT
Ms type: MS2
Ion mode: NEGATIVE
Ionization: ESI
Fragmentation mode: HCD
Collision energy: 35  (nominal)
Resolution: 35000
Column name: Kinetex C18 EVO 2.6 um, 2.1x50 mm, precolumn 2.1x5 mm, Phenomenex
Retention time: 10.747 min
Base peak: 223.0399
Precursor m/z: 223.0401
Precursor type: [M-H]-
m/z	relative intensity	assigned
195.0451	61	C13H7O2-
223.04	999	C14H7O3-
