Mass spectrum: Exemestane; LC-ESI-QFT; MS2; CE: 35 NCE; R=35000; [M+H]+
Name: Exemestane
Name: 10,13-dimethyl-6-methylidene-7,8,9,11,12,14,15,16-octahydrocyclopenta[a]phenanthrene-3,17-dione
Formula: C20H24O2
Exact mass: 296.17763
SMILES: CC12CCC3C(CC(=C)C4=CC(=O)C=CC34C)C1CCC2=O
InChI: InChI=1S/C20H24O2/c1-12-10-14-15-4-5-18(22)20(15,3)9-7-16(14)19(2)8-6-13(21)11-17(12)19/h6,8,11,14-16H,1,4-5,7,9-10H2,2-3H3
Instrument: Q Exactive Plus Orbitrap Thermo Scientific
Instrument type: LC-ESI-QFT
Ms type: MS2
Ion mode: POSITIVE
Ionization: ESI
Fragmentation mode: HCD
Collision energy: 35  (nominal)
Resolution: 35000
Column name: Kinetex C18 EVO 2.6 um, 2.1x50 mm, precolumn 2.1x5 mm, Phenomenex
Retention time: 11.255 min
Base peak: 299.2003
Precursor m/z: 297.1849
Precursor type: [M+H]+
m/z	relative intensity	assigned
55.018	11	C3H3O+
55.0545	10	C4H7+
57.0338	1	C3H5O+
67.0543	17	C5H7+
69.0335	2	C4H5O+
69.07	2	C5H9+
71.0493	1	C4H7O+
77.0386	8	C6H5+
79.0543	120	C6H7+
81.0699	32	C6H9+
83.0491	8	C5H7O+
91.0542	68	C7H7+
93.0699	262	C7H9+
95.0492	10	C6H7O+
95.0855	24	C7H11+
97.0648	61	C6H9O+
103.0541	2	C8H7+
105.0699	164	C8H9+
107.0492	8	C7H7O+
107.0855	129	C8H11+
109.0648	15	C7H9O+
109.1013	8	C8H13+
111.0804	4	C7H11O+
115.0544	7	C9H7+
117.0699	18	C9H9+
119.0855	49	C9H11+
121.0648	253	C8H9O+
121.1012	374	C9H13+
123.0804	14	C8H11O+
123.1168	6	C9H15+
125.096	1	C8H13O+
128.062	5	C10H8+
129.0699	29	C10H9+
130.0776	5	C10H10+
131.0855	72	C10H11+
132.0568	1	C9H8O+
133.0648	25	C9H9O+
133.1012	38	C10H13+
135.0804	115	C9H11O+
135.1169	15	C10H15+
137.0596	2	C8H9O2+
137.096	7	C9H13O+
142.0776	2	C11H10+
143.0856	20	C11H11+
145.0647	33	C10H9O+
145.1012	118	C11H13+
146.0728	1	C10H10O+
147.0804	86	C10H11O+
147.1168	30	C11H15+
149.0961	329	C10H13O+
151.1117	4	C10H15O+
155.0858	1	C12H11+
156.0934	5	C12H12+
157.065	1	C11H9O+
157.1011	6	C12H13+
158.0726	7	C11H10O+
159.0804	38	C11H11O+
159.1169	2	C12H15+
161.0961	49	C11H13O+
161.1325	4	C12H17+
163.1117	47	C11H15O+
167.0855	1	C13H11+
169.1011	2	C13H13+
171.0805	16	C12H11O+
171.1168	43	C13H15+
172.0882	2	C12H12O+
173.0961	37	C12H13O+
175.0754	7	C11H11O2+
175.1115	10	C12H15O+
177.1274	8	C12H17O+
179.0854	1	C14H11+
181.1012	2	C14H13+
183.0813	1	C13H11O+
183.1169	1	C14H15+
184.089	1	C13H12O+
185.0961	85	C13H13O+
187.0752	1	C12H11O2+
187.1117	22	C13H15O+
189.1274	35	C13H17O+
193.1013	2	C15H13+
195.0806	8	C14H11O+
197.0961	13	C14H13O+
198.1036	1	C14H14O+
199.1116	15	C14H15O+
201.1274	16	C14H17O+
207.1164	1	C16H15+
208.088	7	C15H12O+
209.096	15	C15H13O+
209.1323	2	C16H17+
211.1119	11	C15H15O+
213.1273	7	C15H17O+
215.1064	5	C14H15O2+
221.1322	1	C17H17+
222.1041	6	C16H14O+
223.1117	17	C16H15O+
224.1195	1	C16H16O+
225.1275	8	C16H17O+
227.1437	2	C16H19O+
235.1121	2	C17H15O+
236.1194	1	C17H16O+
237.1273	27	C17H17O+
239.1432	25	C17H19O+
246.1398	1	C19H18+
249.1273	1	C18H17O+
250.1353	4	C18H18O+
251.1434	14	C18H19O+
251.1797	1	C19H23+
253.1586	24	C18H21O+
255.1379	2	C17H19O2+
255.1744	6	C18H23O+
264.1509	7	C19H20O+
269.1902	2	C19H25O+
279.1745	232	C20H23O+
297.1851	999	C20H25O2+
