Mass spectrum: Phenylbenzimidazolesulfonic acid; LC-ESI-QFT; MS2; CE: 35 NCE; R=35000; [M+H]+
Name: Phenylbenzimidazolesulfonic acid
Name: 2-phenyl-3H-benzimidazol-1-ium-5-sulfonate
Formula: C13H10N2O3S
Exact mass: 274.04121
SMILES: OS(=O)(=O)C1=CC=C2N=C(NC2=C1)C1=CC=CC=C1
InChI: InChI=1S/C13H10N2O3S/c16-19(17,18)10-6-7-11-12(8-10)15-13(14-11)9-4-2-1-3-5-9/h1-8H,(H,14,15)(H,16,17,18)
Instrument: Q Exactive Plus Orbitrap Thermo Scientific
Instrument type: LC-ESI-QFT
Ms type: MS2
Ion mode: POSITIVE
Ionization: ESI
Fragmentation mode: HCD
Collision energy: 35  (nominal)
Resolution: 35000
Column name: Kinetex C18 EVO 2.6 um, 2.1x50 mm, precolumn 2.1x5 mm, Phenomenex
Retention time: 4.193 min
Base peak: 201.069
Precursor m/z: 275.0485
Precursor type: [M+H]+
m/z	relative intensity	assigned
80.0495	1	C5H6N+
92.0494	1	C6H6N+
108.0444	6	C6H6NO+
182.0838	3	C12H10N2+
193.0761	7	C13H9N2+
194.0839	137	C13H10N2+
195.0917	36	C13H11N2+
210.0787	4	C13H10N2O+
211.0866	22	C13H11N2O+
226.0737	33	C13H10N2O2+
275.0484	999	C13H11N2O3S+
