Mass spectrum: Leucine; LC-ESI-QTOF; MS2; CE:25 eV; [M+H]+
Name: Leucine
Name: 2-amino-4-methylpentanoic acid
Class: Natural Product; amino acid
Formula: C6H13NO2
Exact mass: 131.09463
SMILES: CC(C)CC(C(=O)O)N
InChI: InChI=1S/C6H13NO2/c1-4(2)3-5(7)6(8)9/h4-5H,3,7H2,1-2H3,(H,8,9)
Instrument: API QSTAR Pulsar i
Instrument type: LC-ESI-QTOF
Ms type: MS2
Ion mode: POSITIVE
Collision energy: 25 eV
Ionization: ESI
Precursor type: [M+H]+
m/z	relative intensity
39.023	1
41.040	26
43.056	90
44.052	217
55.057	3
57.072	0
58.068	0
62.933	3
69.073	39
73.066	4
86.099	999
132.104	0
