Mass spectrum: Codeine; LC-ESI-QQ; MS2; CE:35 eV; [M+H]+
Name: Codeine
Name: 7,8-Didehydro-4,5-epoxy-3-methoxy-17-methyl-(5,6)-morphinan-6-ol
Class: Natural Product; Morphinan Alkaloids
Formula: C18H21NO3
Exact mass: 299.15214
SMILES: CN1CC[C@]23[C@@H]4[C@H]1CC5=C2C(=C(C=C5)OC)O[C@H]3[C@H](C=C4)O
InChI: InChI=1S/C18H21NO3/c1-19-8-7-18-11-4-5-13(20)17(18)22-16-14(21-2)6-3-10(15(16)18)9-12(11)19/h3-6,11-13,17,20H,7-9H2,1-2H3/t11-,12+,13-,17-,18-/m0/s1
Instrument: TSQ 7000
Instrument type: LC-ESI-QQ
Ms type: MS2
Ion mode: POSITIVE
Collision energy: 35 eV
Ionization: ESI
Precursor type: [M+H]+
m/z	relative intensity
30.000	9
31.000	4
32.000	1
41.000	0
42.000	2
43.000	8
44.000	124
45.000	4
46.000	0
55.000	29
56.000	9
57.000	28
58.000	226
59.000	3
60.000	1
67.000	7
69.000	8
70.000	2
71.000	5
77.000	3
79.000	4
81.000	6
82.000	0
83.000	9
84.000	0
91.000	11
93.000	8
94.000	2
95.000	5
96.000	1
97.000	4
103.000	4
105.000	3
106.000	0
107.000	5
108.000	2
109.000	0
115.000	11
116.000	0
117.000	3
119.000	2
120.000	1
121.000	24
122.000	1
123.000	0
124.000	0
127.000	4
128.000	12
129.000	14
130.000	0
131.000	14
132.000	7
133.000	2
134.000	2
135.000	1
136.000	0
137.000	64
138.000	1
139.000	0
141.000	38
142.000	3
143.000	15
144.000	54
145.000	15
146.000	12
147.000	6
148.000	2
149.000	5
150.000	2
151.000	5
152.000	12
153.000	99
154.000	18
155.000	184
156.000	32
157.000	19
158.000	41
159.000	100
160.000	13
161.000	155
162.000	11
163.000	6
164.000	9
165.000	322
166.000	27
167.000	32
168.000	54
169.000	24
170.000	14
171.000	147
172.000	77
173.000	19
174.000	25
175.000	48
176.000	6
177.000	18
178.000	27
179.000	38
180.000	12
181.000	188
182.000	52
183.000	311
184.000	34
185.000	71
186.000	44
187.000	195
188.000	8
189.000	12
190.000	15
191.000	71
192.000	17
193.000	151
194.000	129
195.000	36
196.000	8
197.000	74
198.000	59
199.000	429
200.000	65
201.000	53
202.000	13
203.000	17
204.000	2
205.000	11
206.000	5
207.000	27
208.000	27
209.000	108
210.000	66
211.000	57
212.000	51
213.000	101
214.000	14
215.000	406
216.000	10
217.000	1
218.000	9
219.000	37
220.000	33
221.000	54
222.000	12
223.000	94
224.000	16
225.000	294
226.000	22
227.000	16
228.000	18
229.000	4
230.000	3
231.000	0
232.000	0
233.000	2
234.000	3
235.000	10
236.000	32
237.000	13
238.000	22
239.000	24
240.000	5
241.000	132
242.000	9
243.000	127
244.000	8
248.000	8
249.000	4
250.000	26
251.000	34
252.000	18
253.000	16
254.000	9
256.000	2
257.000	1
264.000	0
265.000	1
266.000	78
267.000	30
268.000	5
269.000	5
270.000	0
272.000	0
280.000	0
282.000	31
283.000	2
285.000	10
298.000	1
299.000	4
300.000	999
301.000	64
