Mass spectrum: Kinetin; LC-ESI-QTOF; MS2; CE:15 eV; [M+H]+
Name: Kinetin
Name: N-(furan-2-ylmethyl)-7H-purin-6-amine
Class: Natural Product
Formula: C10H9N5O
Exact mass: 215.08071
SMILES: C1=COC(=C1)CNC2=NC=NC3=C2NC=N3
InChI: InChI=1S/C10H9N5O/c1-2-7(16-3-1)4-11-9-8-10(13-5-12-8)15-6-14-9/h1-3,5-6H,4H2,(H2,11,12,13,14,15)
Instrument: micrOTOF-Q
Instrument type: LC-ESI-QTOF
Ms type: MS2
Ion mode: POSITIVE
Collision energy: 15 eV
Ionization: ESI
Precursor type: [M+H]+
m/z	relative intensity
119.034	10
121.050	7
135.066	6
136.060	103
137.059	5
144.053	0
146.054	1
147.066	2
147.931	0
147.983	0
148.060	999
149.062	74
159.063	1
160.062	1
161.080	8
162.076	6
171.065	19
172.063	4
173.068	126
174.070	14
175.065	0
187.081	0
188.091	304
189.093	32
198.075	24
199.067	3
201.061	3
215.857	0
215.963	0
216.086	950
217.088	107
218.094	1
