Mass spectrum: NAD+; LC-ESI-QTOF; MS2; CE:10 eV; M+
Name: NAD+
Name: Nicotinamide dinucleotide
Name: 1-[(2R,3R,4S,5R)-5-[[[[(2R,3S,4R,5R)-5-(6-aminopurin-9-yl)-3,4-dihydroxyoxolan-2-yl]methoxy-hydroxyphosphoryl]oxy-hydroxyphosphoryl]oxymethyl]-3,4-dihydroxyoxolan-2-yl]pyridin-1-ium-3-carboxylic acid
Class: Natural Product
Formula: [C21H28N7O14P2]+
Exact mass: 664.11695
SMILES: C1=CC(=C[N+](=C1)[C@H]2[C@@H]([C@@H]([C@H](O2)COP(=O)(O)OP(=O)(O)OC[C@@H]3[C@H]([C@H]([C@@H](O3)N4C=NC5=C(N=CN=C54)N)O)O)O)O)C(=O)N
InChI: InChI=1S/C21H27N7O14P2/c22-17-12-19(25-7-24-17)28(8-26-12)21-16(32)14(30)11(41-21)6-39-44(36,37)42-43(34,35)38-5-10-13(29)15(31)20(40-10)27-3-1-2-9(4-27)18(23)33/h1-4,7-8,10-11,13-16,20-21,29-32H,5-6H2,(H5-,22,23,24,25,33,34,35,36,37)/p+1/t10-,11-,13-,14-,15-,16-,20-,21-/m1/s1
Instrument: micrOTOF-Q
Instrument type: LC-ESI-QTOF
Ms type: MS2
Ion mode: POSITIVE
Collision energy: 10 eV
Ionization: ESI
Precursor type: [M]+
m/z	relative intensity
123.049	0
136.061	6
232.080	33
233.084	1
250.090	2
335.072	0
348.064	5
410.022	0
428.032	83
429.036	6
444.083	3
524.053	246
525.056	41
525.184	0
526.055	5
529.053	2
542.063	457
542.350	0
543.065	67
544.071	9
544.200	0
663.618	0
663.903	0
664.110	999
664.294	1
664.498	2
664.691	1
664.895	0
665.112	226
665.264	0
665.433	0
665.659	0
666.114	36
667.118	2
933.017	0
