Mass spectrum: Quercetin; LC-ESI-QQ; MS2; CE:30 eV; [M+H]+
Name: Quercetin
Name: 2-(3,4-dihydroxyphenyl)-3,5,7-trihydroxychromen-4-one
Class: Natural Product; Flavonoids
Formula: C15H10O7
Exact mass: 302.04265
SMILES: C1=CC(=C(C=C1C2=C(C(=O)C3=C(C=C(C=C3O2)O)O)O)O)O
InChI: InChI=1S/C15H10O7/c16-7-4-10(19)12-11(5-7)22-15(14(21)13(12)20)6-1-2-8(17)9(18)3-6/h1-5,16-19,21H
Instrument: TSQ QUANTUM AM
Instrument type: LC-ESI-QQ
Ms type: MS2
Ion mode: POSITIVE
Collision energy: 30 eV
Ionization: ESI
Precursor type: [M+H]+
m/z	relative intensity
53.000	1
55.000	2
65.000	6
67.000	12
69.000	42
71.000	2
77.000	7
79.000	0
81.000	18
91.000	1
93.000	24
95.000	24
97.000	0
99.000	7
101.000	5
103.000	6
105.000	13
107.000	9
109.000	103
110.000	7
111.000	92
115.000	14
117.000	25
118.000	0
119.000	4
120.000	0
121.000	121
122.000	4
123.000	45
125.000	2
126.000	1
127.000	47
128.000	3
129.000	5
130.000	1
131.000	29
133.000	14
135.000	29
136.000	3
137.000	419
138.000	1
139.000	10
140.000	0
143.000	2
144.000	4
145.000	65
147.000	7
149.000	77
151.000	8
152.000	1
153.000	676
155.000	66
156.000	0
157.000	10
159.000	28
160.000	0
161.000	90
162.000	0
163.000	130
165.000	454
166.000	40
167.000	4
168.000	2
171.000	0
173.000	144
174.000	8
175.000	4
176.000	0
177.000	38
178.000	1
179.000	36
181.000	0
183.000	127
184.000	5
185.000	2
186.000	0
187.000	88
188.000	1
189.000	3
190.000	1
191.000	36
193.000	7
194.000	9
195.000	41
199.000	5
200.000	4
201.000	425
202.000	3
203.000	5
205.000	31
207.000	15
211.000	37
213.000	35
215.000	28
216.000	1
217.000	6
219.000	67
221.000	18
225.000	0
228.000	56
229.000	999
230.000	0
231.000	6
232.000	10
233.000	1
236.000	0
239.000	48
240.000	1
241.000	2
243.000	11
245.000	21
246.000	16
247.000	79
256.000	1
257.000	457
258.000	10
259.000	0
261.000	1
267.000	7
269.000	3
273.000	2
274.000	131
275.000	10
285.000	159
286.000	7
301.000	0
302.000	0
303.000	995
