Mass spectrum: Amentoflavone; LC-ESI-QTOF; MS2; CE:30 eV; [M+H]+
Name: Amentoflavone
Name: 8-[5-(5,7-dihydroxy-4-oxochromen-2-yl)-2-hydroxyphenyl]-5,7-dihydroxy-2-(4-hydroxyphenyl)chromen-4-one
Class: Natural Product
Formula: C30H18O10
Exact mass: 538.09000
SMILES: C1=CC(=CC=C1C2=CC(=O)C3=C(O2)C(=C(C=C3O)O)C4=C(C=CC(=C4)C5=CC(=O)C6=C(C=C(C=C6O5)O)O)O)O
InChI: InChI=1S/C30H18O10/c31-15-4-1-13(2-5-15)24-12-23(38)29-21(36)10-20(35)27(30(29)40-24)17-7-14(3-6-18(17)33)25-11-22(37)28-19(34)8-16(32)9-26(28)39-25/h1-12,31-36H
Instrument: micrOTOF-Q
Instrument type: LC-ESI-QTOF
Ms type: MS2
Ion mode: POSITIVE
Collision energy: 30 eV
Ionization: ESI
Precursor type: [M+H]+
m/z	relative intensity
121.026	0
153.017	6
242.057	0
251.029	0
269.039	2
270.049	17
271.056	3
283.056	17
284.063	1
307.054	10
308.057	1
311.051	15
312.052	0
319.056	2
321.072	0
333.068	1
335.050	41
336.053	4
337.036	1
343.084	0
345.071	5
347.050	11
349.063	0
353.069	1
355.040	0
359.051	7
361.029	2
375.044	4
376.052	4
377.059	140
378.063	24
379.044	5
387.080	63
388.087	11
389.062	0
390.067	0
401.057	4
403.039	234
404.043	49
404.156	0
405.049	1
413.063	2
418.066	4
419.071	9
421.049	71
422.051	14
423.055	0
431.066	2
445.054	1
453.098	1
469.087	0
471.102	0
495.103	5
496.091	1
497.079	47
498.082	11
511.095	1
521.076	3
539.090	999
539.221	0
539.320	0
539.420	1
539.495	0
539.603	0
539.715	0
539.796	0
540.093	293
540.274	1
540.350	0
541.096	29
