Mass spectrum: 5-Hydroxyindole-3-acetic acid; LC-ESI-QTOF; MS2; CE:15 eV; [M+H]+
Name: 5-Hydroxyindole-3-acetic acid
Name: 2-(5-hydroxy-1H-indol-3-yl)acetic acid
Class: Natural Product; Indole
Formula: C10H9NO3
Exact mass: 191.05824
SMILES: C1=CC2=C(C=C1O)C(=CN2)CC(=O)O
InChI: InChI=1S/C10H9NO3/c12-7-1-2-9-8(4-7)6(5-11-9)3-10(13)14/h1-2,4-5,11-12H,3H2,(H,13,14)
Instrument: API QSTAR Pulsar i
Instrument type: LC-ESI-QTOF
Ms type: MS2
Ion mode: POSITIVE
Collision energy: 15 eV
Ionization: ESI
Precursor type: [M+H]+
m/z	relative intensity
59.057	13
60.060	7
145.940	5
146.060	999
147.064	14
192.065	482
192.174	26
193.069	7
