Mass spectrum: Caffeine; LC-ESI-QQ; MS2; CE:35 eV; [M+H]+
Name: Caffeine
Name: 1,3,7-trimethylpurine-2,6-dione
Class: Natural Product; Xanthines; Alkaloids
Formula: C8H10N4O2
Exact mass: 194.08038
SMILES: CN1C=NC2=C1C(=O)N(C(=O)N2C)C
InChI: InChI=1S/C8H10N4O2/c1-10-4-9-6-5(10)7(13)12(3)8(14)11(6)2/h4H,1-3H3
Instrument: TSQ 7000
Instrument type: LC-ESI-QQ
Ms type: MS2
Ion mode: POSITIVE
Collision energy: 35 eV
Ionization: ESI
Precursor type: [M+H]+
m/z	relative intensity
27.000	11
28.000	32
29.000	5
30.000	21
31.000	32
34.000	6
35.000	5
37.000	6
42.000	999
43.000	35
44.000	3
45.000	146
46.000	22
48.000	13
49.000	10
50.000	2
53.000	29
54.000	36
55.000	14
56.000	125
57.000	40
58.000	5
62.000	12
63.000	10
64.000	9
67.000	17
68.000	31
69.000	312
70.000	32
71.000	48
72.000	20
73.000	1
74.000	1
75.000	6
76.000	26
77.000	5
80.000	1
81.000	40
82.000	20
83.000	363
84.000	25
85.000	0
92.000	16
95.000	94
96.000	5
97.000	32
98.000	8
99.000	9
102.000	4
103.000	5
105.000	2
107.000	0
108.000	9
109.000	82
110.000	300
111.000	115
114.000	4
120.000	2
122.000	6
123.000	270
124.000	7
125.000	6
126.000	0
128.000	1
130.000	11
135.000	6
136.000	0
137.000	0
138.000	385
139.000	41
142.000	4
147.000	5
148.000	23
151.000	6
153.000	3
154.000	13
155.000	6
156.000	11
157.000	4
161.000	1
163.000	12
165.000	29
172.000	4
173.000	5
181.000	12
185.000	6
186.000	1
189.000	17
193.000	37
194.000	38
195.000	69
197.000	11
