Mass spectrum: Quercetin; LC-ESI-QTOF; MS2; CE:55 eV; [M-H]-
Name: Quercetin
Name: 2-(3,4-dihydroxyphenyl)-3,5,7-trihydroxychromen-4-one
Class: Natural Product; Flavonol
Formula: C15H10O7
Exact mass: 302.04265
SMILES: C1=CC(=C(C=C1C2=C(C(=O)C3=C(C=C(C=C3O2)O)O)O)O)O
InChI: InChI=1S/C15H10O7/c16-7-4-10(19)12-11(5-7)22-15(14(21)13(12)20)6-1-2-8(17)9(18)3-6/h1-5,16-19,21H
Instrument: API QSTAR Pulsar i
Instrument type: LC-ESI-QTOF
Ms type: MS2
Ion mode: NEGATIVE
Collision energy: 55 eV
Ionization: ESI
Precursor type: [M-H]-
m/z	relative intensity
63.024	712
65.003	999
67.019	16
83.012	313
93.033	451
95.014	34
96.021	41
107.016	528
108.024	144
109.031	153
115.057	14
117.034	38
119.015	24
120.023	24
121.030	531
124.016	23
130.042	15
131.050	21
132.022	24
133.029	109
134.037	14
135.045	50
137.025	18
139.041	130
143.052	18
145.032	35
146.038	14
147.044	25
148.019	31
149.026	53
151.005	240
155.053	16
157.034	14
158.040	35
159.048	56
161.027	89
162.035	13
163.009	44
164.014	21
169.019	20
171.046	17
175.038	18
177.056	17
182.036	16
183.043	35
187.038	18
199.036	27
211.039	23
227.035	42
243.034	16
