Mass spectrum: Biochanin A; LC-ESI-QTOF; MS2; CE:25 eV; [M+H]+
Name: Biochanin A
Name: 5,7-dihydroxy-3-(4-methoxyphenyl)chromen-4-one
Class: Natural Product; Phytoestrogens
Formula: C16H12O5
Exact mass: 284.06847
SMILES: COC1=CC=C(C=C1)C2=COC3=CC(=CC(=C3C2=O)O)O
InChI: InChI=1S/C16H12O5/c1-20-11-4-2-9(3-5-11)12-8-21-14-7-10(17)6-13(18)15(14)16(12)19/h2-8,17-18H,1H3
Instrument: micrOTOF-Q
Instrument type: LC-ESI-QTOF
Ms type: MS2
Ion mode: POSITIVE
Collision energy: 25 eV
Ionization: ESI
Precursor type: [M+H]+
m/z	relative intensity
118.040	15
119.043	1
121.028	5
121.065	0
123.042	37
124.014	32
125.016	0
128.061	1
130.040	1
131.047	3
132.054	2
133.063	23
134.067	0
135.042	3
137.021	0
139.038	5
140.053	0
141.067	4
144.052	3
145.028	0
145.062	5
146.069	2
147.041	1
149.021	70
150.027	5
151.039	0
152.009	188
153.016	95
154.018	4
155.046	0
157.060	1
158.035	60
159.040	6
159.075	2
160.051	0
161.059	1
161.093	4
163.038	5
165.067	0
167.031	2
168.055	9
169.062	11
170.019	59
171.031	2
172.048	3
173.059	7
176.042	0
177.049	0
179.031	25
180.037	1
181.064	1
183.048	1
183.073	6
184.052	2
185.057	8
186.063	15
187.072	4
191.031	0
192.039	0
196.048	9
197.057	58
198.063	9
199.069	3
200.043	8
201.052	14
202.060	0
210.032	2
211.038	3
211.070	14
212.046	6
213.052	394
214.057	105
215.064	12
216.038	19
217.043	1
217.073	0
224.043	15
225.051	51
226.058	29
227.056	8
228.041	4
229.082	395
230.086	42
231.087	0
235.039	0
239.065	7
240.070	1
241.046	165
241.787	0
242.053	746
242.171	0
243.057	81
244.062	1
252.037	76
252.109	0
253.046	484
254.049	57
255.057	13
256.058	2
257.077	18
258.080	1
261.067	1
267.059	7
268.733	0
269.040	526
269.891	0
270.048	774
271.051	85
272.051	1
274.045	6
284.796	0
284.969	0
285.071	999
286.075	132
286.196	0
287.072	4
