Mass spectrum: Cystine; LC-ESI-QTOF; MS2; CE:10 eV; [M+H]+
Name: Cystine
Name: 2-amino-3-(2-amino-3-hydroxy-3-oxopropyl)disulfanylpropanoic acid
Class: Natural Product; amino acid
Formula: C6H12N2O4S2
Exact mass: 240.02385
SMILES: C(C(C(=O)O)N)SSCC(C(=O)O)N
InChI: InChI=1S/C6H12N2O4S2/c7-3(5(9)10)1-13-14-2-4(8)6(11)12/h3-4H,1-2,7-8H2,(H,9,10)(H,11,12)
Instrument: API QSTAR Pulsar i
Instrument type: LC-ESI-QTOF
Ms type: MS2
Ion mode: POSITIVE
Collision energy: 10 eV
Ionization: ESI
Precursor type: [M+H]+
m/z	relative intensity
151.984	22
154.000	4
195.024	8
241.031	999
242.033	8
