Mass spectrum: Coumarin; LC-ESI-QQ; MS2; CE:28 eV; [M+H]+
Name: Coumarin
Name: chromen-2-one
Class: Natural Product; Coumarins
Formula: C9H6O2
Exact mass: 146.03678
SMILES: C1=CC=C2C(=C1)C=CC(=O)O2
InChI: InChI=1S/C9H6O2/c10-9-6-5-7-3-1-2-4-8(7)11-9/h1-6H
Instrument: TSQ QUANTUM AM
Instrument type: LC-ESI-QQ
Ms type: MS2
Ion mode: POSITIVE
Collision energy: 28 eV
Ionization: ESI
Precursor type: [M+H]+
m/z	relative intensity
39.000	1
40.000	0
41.000	3
42.000	6
43.000	4
44.000	5
45.000	6
47.000	0
51.000	6
55.000	3
56.000	3
57.000	9
60.000	10
61.000	1
63.000	10
64.000	1
65.000	288
67.000	4
69.000	5
75.000	0
77.000	281
82.000	0
84.000	13
85.000	0
91.000	999
97.000	1
101.000	4
102.000	10
103.000	172
106.000	7
107.000	0
109.000	0
111.000	4
117.000	0
119.000	4
129.000	2
132.000	3
147.000	22
