Mass spectrum: Phlorizin; LC-ESI-QTOF; MS2; CE:20 eV; [M+H]+
Name: Phlorizin
Name: 1-[2,4-dihydroxy-6-[(2S,3R,4S,5S,6R)-3,4,5-trihydroxy-6-(hydroxymethyl)oxan-2-yl]oxyphenyl]-3-(4-hydroxyphenyl)propan-1-one
Class: Natural Product; Glycosides
Formula: C21H24O10
Exact mass: 436.13695
SMILES: C1=CC(=CC=C1CCC(=O)C2=C(C=C(C=C2O[C@H]3[C@@H]([C@H]([C@@H]([C@H](O3)CO)O)O)O)O)O)O
InChI: InChI=1S/C21H24O10/c22-9-16-18(27)19(28)20(29)21(31-16)30-15-8-12(24)7-14(26)17(15)13(25)6-3-10-1-4-11(23)5-2-10/h1-2,4-5,7-8,16,18-24,26-29H,3,6,9H2/t16-,18-,19+,20-,21-/m1/s1
Instrument: micrOTOF-Q
Instrument type: LC-ESI-QTOF
Ms type: MS2
Ion mode: POSITIVE
Collision energy: 20 eV
Ionization: ESI
Precursor type: [M+H]+
m/z	relative intensity
107.048	45
108.044	0
114.698	0
121.065	12
121.703	1
123.038	1
127.037	43
131.046	26
131.064	0
132.050	2
139.037	6
145.053	14
145.080	0
149.058	157
150.059	11
151.038	30
152.047	2
152.616	2
153.012	0
153.047	1
155.028	0
157.071	1
159.079	3
161.076	1
162.055	1
166.030	2
168.734	1
169.048	708
169.461	0
170.051	35
170.101	1
173.057	57
173.129	0
174.055	0
174.073	1
175.036	0
179.066	1
181.047	34
187.071	6
191.065	37
192.070	3
193.048	73
194.052	6
197.055	4
199.076	3
199.959	0
203.068	1
205.044	10
206.047	0
207.060	8
209.041	1
210.141	0
211.058	96
211.167	0
212.029	1
212.059	7
213.064	0
215.067	97
215.189	0
216.069	6
217.049	9
218.095	0
219.058	3
219.595	1
221.071	1
223.048	5
227.072	7
229.039	5
231.059	1
232.737	1
233.075	81
233.172	1
234.082	14
235.057	177
236.063	29
239.070	6
241.053	6
242.048	0
245.037	8
245.122	0
247.057	73
247.114	1
248.062	14
249.071	0
249.490	2
251.087	1
256.072	2
257.076	44
257.164	0
258.084	6
258.127	0
259.056	67
259.158	1
260.065	6
263.044	1
265.068	5
269.085	7
269.151	1
271.099	2
275.087	999
275.195	10
275.241	1
275.276	1
275.756	1
276.090	150
277.069	57
277.130	0
278.069	4
278.917	0
279.054	1
281.011	0
281.079	21
281.111	1
281.144	0
282.033	0
282.082	3
285.064	0
285.133	0
286.992	1
287.087	152
287.215	1
288.094	17
288.206	0
294.099	0
295.080	19
295.137	0
296.098	0
299.087	87
300.090	7
301.080	3
304.085	1
307.212	2
309.060	0
310.108	0
311.093	15
312.094	2
313.090	5
315.080	0
315.554	0
317.098	139
317.869	0
318.101	15
319.086	3
322.172	1
323.088	12
324.099	3
325.127	1
327.114	1
333.100	1
335.087	25
336.097	3
336.176	0
337.080	3
338.114	0
341.097	108
342.101	9
347.084	4
353.097	233
354.106	35
354.242	2
355.113	3
358.089	0
364.977	0
365.098	85
365.149	0
365.189	0
365.312	0
366.095	10
366.144	1
371.107	3
371.186	1
383.110	30
383.215	0
384.120	3
385.127	0
390.233	41
390.317	2
391.225	1
392.217	2
398.732	0
401.119	1
401.185	1
408.242	19
409.226	20
409.278	1
411.220	1
436.236	63
436.292	1
436.390	0
437.240	22
437.356	2
438.236	0
475.907	0
477.094	0
643.817	0
810.368	1
