Mass spectrum: Benzoylcholine; LC-ESI-QTOF; MS2; CE:40 eV; M+
Name: Benzoylcholine
Name: 2-(benzoyloxy)ethyl-trimethylazanium
Class: Natural Product; choline ester
Formula: [C12H18NO2]+
Exact mass: 208.13375
SMILES: C[N+](C)(C)CCOC(=O)C1=CC=CC=C1
InChI: InChI=1S/C12H18NO2/c1-13(2,3)9-10-15-12(14)11-7-5-4-6-8-11/h4-8H,9-10H2,1-3H3/q+1
Instrument: API QSTAR Pulsar i
Instrument type: LC-ESI-QTOF
Ms type: MS2
Ion mode: POSITIVE
Collision energy: 40 eV
Ionization: ESI
Precursor type: [M]+
m/z	relative intensity
77.039	296
105.034	999
149.060	119
