Mass spectrum: Cinchonine; LC-ESI-QTOF; MS2; CE:20 eV; [M+H]+
Name: Cinchonine
Name: (S)-(5-ethenyl-1-azabicyclo[2.2.2]octan-7-yl)-quinolin-4-ylmethanol
Class: Natural Product
Formula: C19H22N2O
Exact mass: 294.17321
SMILES: C=C[C@H]1CN2CC[C@H]1C[C@@H]2[C@H](C3=CC=NC4=CC=CC=C34)O
InChI: InChI=1S/C19H22N2O/c1-2-13-12-21-10-8-14(13)11-18(21)19(22)16-7-9-20-17-6-4-3-5-15(16)17/h2-7,9,13-14,18-19,22H,1,8,10-12H2/t13-,14-,18+,19-/m0/s1
Instrument: micrOTOF-Q
Instrument type: LC-ESI-QTOF
Ms type: MS2
Ion mode: POSITIVE
Collision energy: 20 eV
Ionization: ESI
Precursor type: [M+H]+
m/z	relative intensity
122.096	0
124.110	0
130.063	18
131.067	0
132.078	1
134.094	4
135.102	0
136.108	4
138.126	1
142.063	6
143.069	4
144.078	5
154.063	8
155.071	0
156.079	11
157.083	0
158.059	0
159.067	1
166.063	1
166.120	8
167.070	1
168.078	15
169.077	5
170.091	1
171.093	0
172.075	3
180.078	5
181.076	1
182.093	0
183.089	2
184.075	1
192.079	0
194.093	2
195.094	1
196.108	4
197.104	7
198.110	0
204.077	1
205.084	0
206.093	4
207.096	2
208.108	5
209.107	3
210.118	1
214.119	0
217.084	0
218.094	2
219.098	3
220.108	5
221.106	5
222.117	10
223.119	17
224.131	4
231.102	0
232.107	3
233.110	1
234.124	24
235.121	19
236.132	16
237.134	1
238.151	1
246.124	4
247.125	1
248.139	15
249.137	6
250.149	1
252.133	7
253.134	0
260.139	0
265.165	0
266.151	4
267.178	3
275.151	1
277.165	279
278.168	44
295.175	999
295.511	0
296.179	149
297.183	1
