Mass spectrum: Kaempferol; LC-ESI-QQ; MS2; CE:25 eV; [M+H]+
Name: Kaempferol
Name: 3,5,7-trihydroxy-2-(4-hydroxyphenyl)chromen-4-one
Class: Natural Product; Flavonoids
Formula: C15H10O6
Exact mass: 286.04774
SMILES: C1=CC(=CC=C1C2=C(C(=O)C3=C(C=C(C=C3O2)O)O)O)O
InChI: InChI=1S/C15H10O6/c16-8-3-1-7(2-4-8)15-14(20)13(19)12-10(18)5-9(17)6-11(12)21-15/h1-6,16-18,20H
Instrument: TSQ QUANTUM AM
Instrument type: LC-ESI-QQ
Ms type: MS2
Ion mode: POSITIVE
Collision energy: 25 eV
Ionization: ESI
Precursor type: [M+H]+
m/z	relative intensity
69.000	1
79.000	0
81.000	0
93.000	2
103.000	0
105.000	3
107.000	4
109.000	2
111.000	11
121.000	43
127.000	0
129.000	0
133.000	10
135.000	1
136.000	0
137.000	18
141.000	1
145.000	6
147.000	12
149.000	0
153.000	90
157.000	10
161.000	3
165.000	82
167.000	0
169.000	0
171.000	7
173.000	0
175.000	2
177.000	0
183.000	0
185.000	13
189.000	3
197.000	5
199.000	1
201.000	1
203.000	5
205.000	0
213.000	53
215.000	0
216.000	0
217.000	1
223.000	0
228.000	0
229.000	2
231.000	23
241.000	32
243.000	4
245.000	1
258.000	44
259.000	12
269.000	4
286.000	0
287.000	999
