Mass spectrum: Sinapine; LC-ESI-QTOF; MS2; CE:20 eV; [M]+
Name: Sinapine
Name: 2-[(E)-3-(4-hydroxy-3,5-dimethoxyphenyl)prop-2-enoyl]oxyethyl-trimethylazanium
Class: Natural Product
Formula: [C16H24NO5]+
Exact mass: 310.16545
SMILES: C[N+](C)(C)CCOC(=O)C=CC1=CC(=C(C(=C1)OC)O)OC
InChI: InChI=1S/C16H23NO5/c1-17(2,3)8-9-22-15(18)7-6-12-10-13(20-4)16(19)14(11-12)21-5/h6-7,10-11H,8-9H2,1-5H3/p+1
Instrument: micrOTOF-Q
Instrument type: LC-ESI-QTOF
Ms type: MS2
Ion mode: POSITIVE
Collision energy: 20 eV
Ionization: ESI
Precursor m/z: 310.16545
Precursor type: [M]+
m/z	relative intensity
119.047	0
147.042	9
151.036	0
164.044	1
175.036	46
176.039	2
179.066	0
207.062	67
208.063	6
218.052	0
235.055	2
236.064	19
237.067	1
250.891	0
251.087	999
251.376	0
252.090	113
253.091	1
