Mass spectrum: Reserpine; LC-ESI-QTOF; MS2; CE:30 eV; [M+H]+
Name: Reserpine
Name: methyl (1R,15S,17R,18R,19S,20S)-6,18-dimethoxy-17-[(3,4,5-trimethoxyphenyl)carbonyloxy]- 3,13-diazapentacyclo[11.8.0.02,10.04,9.015,20]henicosa-2(10),4(9),5,7-tetraene-19-carboxylate
Class: Natural Product
Formula: C33H40N2O9
Exact mass: 608.27338
SMILES: CO[C@H]1[C@@H](C[C@@H]2CN3CCC4=C([C@H]3C[C@@H]2[C@@H]1C(=O)OC)NC5=C4C=CC(=C5)OC)OC(=O)C6=CC(=C(C(=C6)OC)OC)OC
InChI: InChI=1S/C33H40N2O9/c1-38-19-7-8-20-21-9-10-35-16-18-13-27(44-32(36)17-11-25(39-2)30(41-4)26(12-17)40-3)31(42-5)28(33(37)43-6)22(18)15-24(35)29(21)34-23(20)14-19/h7-8,11-12,14,18,22,24,27-28,31,34H,9-10,13,15-16H2,1-6H3/t18-,22+,24-,27-,28+,31+/m1/s1
Instrument: micrOTOF-Q
Instrument type: LC-ESI-QTOF
Ms type: MS2
Ion mode: POSITIVE
Collision energy: 30 eV
Ionization: ESI
Precursor type: [M+H]+
m/z	relative intensity
130.063	1
131.072	2
132.081	0
139.074	3
143.071	2
144.079	1
147.079	0
148.074	8
149.071	0
150.089	0
152.045	5
158.059	0
159.067	7
160.075	9
161.079	1
162.089	3
163.077	0
164.102	0
166.085	0
167.070	5
169.084	0
172.075	1
173.079	0
174.090	307
175.091	25
176.105	8
177.102	0
178.085	3
181.082	0
185.078	2
186.090	4
187.085	1
188.105	14
189.104	1
190.085	4
192.100	44
193.097	4
194.910	0
195.063	685
196.067	48
197.072	0
198.091	1
199.094	1
200.105	15
201.102	3
202.115	0
204.100	16
205.101	1
206.116	0
207.101	1
210.100	3
211.094	1
212.104	6
213.100	1
214.109	8
215.115	28
216.118	3
218.114	0
219.101	0
222.110	11
224.125	98
225.127	8
226.118	4
227.117	7
228.123	5
229.130	10
230.129	0
235.101	0
236.125	236
237.127	24
238.122	11
239.125	1
240.119	0
241.123	0
242.130	5
247.099	0
248.108	3
249.109	2
250.120	5
251.122	2
252.129	4
253.131	10
254.135	10
255.120	2
258.109	0
260.105	0
261.113	0
262.119	5
263.125	1
264.132	3
265.130	4
266.136	2
267.142	4
274.126	3
275.126	2
276.134	12
277.139	2
278.146	0
279.144	2
280.136	0
281.159	4
284.126	2
286.136	2
287.137	2
288.135	12
289.141	5
290.117	8
291.134	1
292.124	0
294.141	1
296.125	0
297.134	0
298.126	0
301.105	0
302.116	1
304.129	13
305.157	7
306.160	4
307.140	0
308.147	4
309.138	2
310.139	1
316.130	8
317.133	0
318.136	0
319.117	0
320.153	1
321.145	0
322.142	19
323.144	2
324.154	1
333.155	24
334.147	10
335.149	0
336.155	83
337.163	17
338.173	2
339.164	1
340.152	2
341.181	1
347.173	3
348.156	42
349.157	6
350.159	2
352.156	0
353.125	1
354.165	12
355.171	1
365.182	253
366.182	50
367.184	3
368.175	62
369.181	11
370.188	0
379.197	4
380.182	24
381.181	7
382.181	3
383.189	0
386.191	3
395.192	2
396.197	0
396.671	0
396.930	0
397.208	999
397.630	0
397.751	0
397.837	0
397.956	0
398.211	176
399.209	5
402.151	6
403.147	0
404.165	6
405.172	0
413.203	13
414.206	2
416.166	3
422.182	0
434.177	26
435.180	4
436.192	65
437.195	11
448.192	356
449.196	62
450.202	2
548.224	0
559.235	2
560.229	1
577.249	32
578.253	9
580.246	0
581.251	0
591.264	1
592.254	2
593.259	0
609.275	282
610.279	81
611.281	2
