Mass spectrum: Phenylalanine; LC-ESI-QTOF; MS2; CE:25 eV; [M+H]+
Name: Phenylalanine
Name: 2-amino-3-phenylpropanoic acid
Class: Natural Product; amiono acid
Formula: C9H11NO2
Exact mass: 165.07898
SMILES: C1=CC=C(C=C1)C[C@@H](C(=O)O)N
InChI: InChI=1S/C9H11NO2/c10-8(9(11)12)6-7-4-2-1-3-5-7/h1-5,8H,6,10H2,(H,11,12)/t8-/m0/s1
Instrument: API QSTAR Pulsar i
Instrument type: LC-ESI-QTOF
Ms type: MS2
Ion mode: POSITIVE
Collision energy: 25 eV
Ionization: ESI
Precursor type: [M+H]+
m/z	relative intensity
79.055	7
93.071	12
103.056	150
107.051	23
120.083	999
121.085	8
131.050	10
