Mass spectrum: NAD+; LC-ESI-QTOF; MS2; CE:15 eV; M+
Name: NAD+
Name: Nicotinamide dinucleotide
Name: 1-[(2R,3R,4S,5R)-5-[[[[(2R,3S,4R,5R)-5-(6-aminopurin-9-yl)-3,4-dihydroxyoxolan-2-yl]methoxy-hydroxyphosphoryl]oxy-hydroxyphosphoryl]oxymethyl]-3,4-dihydroxyoxolan-2-yl]pyridin-1-ium-3-carboxylic acid
Class: Natural Product
Formula: [C21H28N7O14P2]+
Exact mass: 664.11695
SMILES: C1=CC(=C[N+](=C1)[C@H]2[C@@H]([C@@H]([C@H](O2)COP(=O)(O)OP(=O)(O)OC[C@@H]3[C@H]([C@H]([C@@H](O3)N4C=NC5=C(N=CN=C54)N)O)O)O)O)C(=O)N
InChI: InChI=1S/C21H27N7O14P2/c22-17-12-19(25-7-24-17)28(8-26-12)21-16(32)14(30)11(41-21)6-39-44(36,37)42-43(34,35)38-5-10-13(29)15(31)20(40-10)27-3-1-2-9(4-27)18(23)33/h1-4,7-8,10-11,13-16,20-21,29-32H,5-6H2,(H5-,22,23,24,25,33,34,35,36,37)/p+1/t10-,11-,13-,14-,15-,16-,20-,21-/m1/s1
Instrument: micrOTOF-Q
Instrument type: LC-ESI-QTOF
Ms type: MS2
Ion mode: POSITIVE
Collision energy: 15 eV
Ionization: ESI
Precursor type: [M]+
m/z	relative intensity
136.060	68
137.060	1
219.087	0
232.080	239
233.083	28
234.075	0
250.090	23
328.099	0
330.055	4
335.063	5
348.066	26
349.067	0
370.989	9
371.993	0
388.998	0
410.022	6
415.033	0
427.587	0
428.032	668
428.203	0
428.364	0
428.462	0
429.034	71
429.166	0
430.038	11
431.034	0
444.088	28
445.090	4
511.045	1
523.668	0
524.052	999
524.513	1
524.653	0
524.775	0
524.890	0
525.056	166
525.205	2
526.054	27
527.051	0
529.054	9
530.060	1
541.869	0
542.063	945
542.302	1
542.419	0
542.597	0
542.744	0
543.067	161
544.067	25
545.065	1
664.110	434
664.253	5
664.460	0
665.112	106
665.308	1
665.425	0
666.114	21
667.117	0
