Mass spectrum: Harmane; LC-ESI-QTOF; MS2; CE:30 eV; [M+H]+
Name: Harmane
Name: 1-methyl-9H-pyrido[3,4-b]indole
Class: Natural Product
Formula: C12H10N2
Exact mass: 182.08440
SMILES: CC1=NC=CC2=C1NC3=CC=CC=C23
InChI: InChI=1S/C12H10N2/c1-8-12-10(6-7-13-8)9-4-2-3-5-11(9)14-12/h2-7,14H,1H3
Instrument: micrOTOF-Q
Instrument type: LC-ESI-QTOF
Ms type: MS2
Ion mode: POSITIVE
Collision energy: 30 eV
Ionization: ESI
Precursor type: [M+H]+
m/z	relative intensity
113.038	4
114.045	13
114.981	0
115.053	999
116.055	90
117.057	10
118.058	0
126.045	1
127.052	22
128.059	100
129.066	54
130.068	8
134.057	0
139.051	17
140.048	214
141.055	215
142.062	176
143.068	24
145.062	17
146.062	5
153.056	2
154.063	185
155.069	71
156.078	49
157.082	4
158.056	0
165.051	2
166.060	31
167.062	101
168.066	574
169.069	65
170.055	0
171.058	0
179.065	1
180.062	2
181.074	224
182.081	446
182.171	1
183.089	740
183.407	0
184.093	85
185.069	19
186.069	0
