Mass spectrum: Aloin; LC-ESI-QTOF; MS2; CE:10 eV; [M+H]+
Name: Aloin
Name: 1,8-dihydroxy-3-(hydroxymethyl)-10-[3,4,5-trihydroxy-6-(hydroxymethyl)oxan-2-yl]-10H-anthracen-9-one
Class: Natural Product; Anthron
Formula: C21H22O9
Exact mass: 418.12638
SMILES: C1=CC2=C(C(=C1)O)C(=O)C3=C(C=C(C=C3C2C4C(C(C(C(O4)CO)O)O)O)CO)O
InChI: InChI=1S/C21H22O9/c22-6-8-4-10-14(21-20(29)19(28)17(26)13(7-23)30-21)9-2-1-3-11(24)15(9)18(27)16(10)12(25)5-8/h1-5,13-14,17,19-26,28-29H,6-7H2
Instrument: micrOTOF-Q
Instrument type: LC-ESI-QTOF
Ms type: MS2
Ion mode: POSITIVE
Collision energy: 10 eV
Ionization: ESI
Precursor type: [M+H]+
m/z	relative intensity
168.045	0
211.074	110
212.078	11
213.078	0
215.173	0
221.058	1
224.124	0
227.698	0
228.072	0
238.822	0
238.855	1
239.069	999
239.188	1
239.394	0
240.072	141
241.074	2
255.062	7
256.069	5
257.079	274
258.082	29
262.458	0
262.533	0
263.073	3
265.090	0
269.082	3
277.084	0
281.080	6
285.076	2
293.079	1
297.068	1
305.075	2
307.072	0
312.080	0
350.890	1
354.104	0
365.104	5
382.102	0
383.113	25
384.117	2
401.123	33
402.124	10
418.129	0
419.132	66
420.141	9
621.579	0
706.565	0
