Mass spectrum: Aminocaproic acid; LC-ESI-QTOF; MS2; CE:40 eV; [M+H]+
Name: Aminocaproic acid
Name: 6-aminohexanoic acid
Class: Natural Product; amino acid
Formula: C6H13NO2
Exact mass: 131.09463
SMILES: C(CCC(=O)O)CCN
InChI: InChI=1S/C6H13NO2/c7-5-3-1-2-4-6(8)9/h1-5,7H2,(H,8,9)
Instrument: API QSTAR Pulsar i
Instrument type: LC-ESI-QTOF
Ms type: MS2
Ion mode: POSITIVE
Collision energy: 40 eV
Ionization: ESI
Precursor type: [M+H]+
m/z	relative intensity
39.024	267
41.040	972
43.020	43
43.055	49
45.035	76
51.025	18
53.042	76
55.057	999
56.051	19
57.035	13
58.043	9
59.050	12
62.930	7
65.040	15
67.057	118
68.051	54
69.071	408
70.067	18
71.050	17
72.081	8
73.066	167
77.039	330
79.055	225
80.052	17
81.058	24
95.051	62
96.083	14
105.046	16
