Mass spectrum: Xanthohumol; LC-ESI-QTOF; MS2; CE:15 eV; [M+H]+
Name: Xanthohumol
Name: (E)-1-[2,4-dihydroxy-6-methoxy-3-(3-methylbut-2-enyl)phenyl]-3-(4-hydroxyphenyl)prop-2-en-1-one
Class: Natural Product
Formula: C21H22O5
Exact mass: 354.14672
SMILES: CC(=CCC1=C(C(=C(C=C1O)OC)C(=O)/C=C/C2=CC=C(C=C2)O)O)C
InChI: InChI=1S/C21H22O5/c1-13(2)4-10-16-18(24)12-19(26-3)20(21(16)25)17(23)11-7-14-5-8-15(22)9-6-14/h4-9,11-12,22,24-25H,10H2,1-3H3/b11-7+
Instrument: micrOTOF-Q
Instrument type: LC-ESI-QTOF
Ms type: MS2
Ion mode: POSITIVE
Collision energy: 15 eV
Ionization: ESI
Precursor type: [M+H]+
m/z	relative intensity
151.035	0
178.911	0
179.031	999
180.035	62
181.037	1
197.041	66
198.044	4
235.093	21
236.097	1
257.076	40
258.080	4
299.086	463
300.089	69
301.093	1
355.148	18
356.151	3
