Mass spectrum: Rotenone; LC-ESI-QTOF; MS2; CE:15 eV; [M+H]+
Name: Rotenone
Name: (2R,6aS,12aS)-1,2,6,6a,12,12a-hexahydro-2-isopropenyl-8,9-dimethoxychromeno[3,4-b]furo(2,3-h)chromen-6-one
Class: Natural Product; Flavonoids
Formula: C23H22O6
Exact mass: 394.14164
SMILES: CC(=C)[C@H]1CC2=C(O1)C=CC3=C2O[C@@H]4COC5=CC(=C(C=C5[C@@H]4C3=O)OC)OC
InChI: InChI=1S/C23H22O6/c1-11(2)16-8-14-15(28-16)6-5-12-22(24)21-13-7-18(25-3)19(26-4)9-17(13)27-10-20(21)29-23(12)14/h5-7,9,16,20-21H,1,8,10H2,2-4H3/t16-,20-,21+/m1/s1
Instrument: micrOTOF-Q
Instrument type: LC-ESI-QTOF
Ms type: MS2
Ion mode: POSITIVE
Collision energy: 15 eV
Ionization: ESI
Precursor type: [M+H]+
m/z	relative intensity
135.041	0
139.073	5
147.042	0
155.068	0
161.059	0
167.068	25
168.073	1
175.072	1
179.067	23
180.068	0
189.088	19
190.092	1
191.068	12
192.075	75
193.082	13
195.073	3
198.066	0
203.067	54
204.070	4
207.098	0
213.088	185
214.091	18
215.071	0
215.096	1
217.082	1
219.061	5
220.070	7
221.115	1
223.069	0
229.083	1
233.115	0
241.082	88
242.086	9
245.115	0
257.114	0
299.086	1
311.086	0
312.093	1
327.080	4
335.117	0
336.130	0
339.134	0
364.124	0
365.137	0
367.148	71
368.153	11
377.133	7
378.138	0
380.118	0
394.748	0
394.838	0
394.927	0
395.142	999
395.415	0
395.644	0
396.146	200
397.150	8
