Mass spectrum: Harmane; LC-ESI-QTOF; MS2; CE:20 eV; [M+H]+
Name: Harmane
Name: 1-methyl-9H-pyrido[3,4-b]indole
Class: Natural Product
Formula: C12H10N2
Exact mass: 182.08440
SMILES: CC1=NC=CC2=C1NC3=CC=CC=C23
InChI: InChI=1S/C12H10N2/c1-8-12-10(6-7-13-8)9-4-2-3-5-11(9)14-12/h2-7,14H,1H3
Instrument: micrOTOF-Q
Instrument type: LC-ESI-QTOF
Ms type: MS2
Ion mode: POSITIVE
Collision energy: 20 eV
Ionization: ESI
Precursor type: [M+H]+
m/z	relative intensity
115.052	54
116.054	4
128.058	2
129.068	5
140.048	3
141.054	3
142.062	46
143.066	3
154.062	3
155.070	4
156.078	9
157.082	0
166.062	4
167.062	12
168.065	72
169.068	5
181.074	4
182.081	52
182.195	0
182.936	0
183.089	999
184.092	100
185.071	4
