Mass spectrum: 5-Hydroxyindole-3-acetic acid; LC-ESI-QTOF; MS2; CE:40 eV; [M+H]+
Name: 5-Hydroxyindole-3-acetic acid
Name: 2-(5-hydroxy-1H-indol-3-yl)acetic acid
Class: Natural Product; Indole
Formula: C10H9NO3
Exact mass: 191.05824
SMILES: C1=CC2=C(C=C1O)C(=CN2)CC(=O)O
InChI: InChI=1S/C10H9NO3/c12-7-1-2-9-8(4-7)6(5-11-9)3-10(13)14/h1-2,4-5,11-12H,3H2,(H,13,14)
Instrument: API QSTAR Pulsar i
Instrument type: LC-ESI-QTOF
Ms type: MS2
Ion mode: POSITIVE
Collision energy: 40 eV
Ionization: ESI
Precursor type: [M+H]+
m/z	relative intensity
39.022	3
41.033	3
53.031	2
58.074	2
65.034	36
67.057	3
75.022	4
77.041	12
78.045	7
79.046	2
80.013	2
81.072	3
82.080	1
89.040	2
91.054	455
92.068	8
95.045	2
101.042	10
102.030	2
103.052	16
104.047	5
105.055	5
106.063	1
116.053	31
117.059	201
118.067	357
119.052	253
120.050	17
128.050	93
129.054	15
130.048	7
133.051	21
134.072	3
144.022	4
144.045	9
145.045	5
145.941	3
146.060	999
147.064	22
148.032	4
168.933	1
