Mass spectrum: Betaine-Aldehyde; LC-ESI-QQ; MS2; CE:20 eV; M+
Name: Betaine-Aldehyde
Name: trimethyl-(2-oxoethyl)azanium
Class: Natural Product
Formula: [C5H12NO]+
Exact mass: 102.09189
SMILES: C[N+](C)(C)CC=O
InChI: InChI=1S/C5H12NO/c1-6(2,3)4-5-7/h5H,4H2,1-3H3/q+1
Instrument: TSQ 7000
Instrument type: LC-ESI-QQ
Ms type: MS2
Ion mode: POSITIVE
Collision energy: 20 eV
Ionization: ESI
Precursor type: [M]+
m/z	relative intensity
42.000	4
43.000	9
44.000	3
56.000	0
57.000	0
58.000	311
59.000	999
60.000	3
61.000	48
70.000	0
71.000	0
72.000	4
73.000	7
74.000	0
84.000	8
87.000	23
88.000	0
101.000	0
102.000	704
103.000	0
