Mass spectrum: N-Acetylindole; LC-ESI-QTOF; MS2; CE:15 eV; [M+H]+
Name: N-Acetylindole
Name: 1-indol-1-ylethanone
Class: Natural Product; indole
Formula: C10H9NO
Exact mass: 159.06841
SMILES: CC(=O)N1C=CC2=CC=CC=C21
InChI: InChI=1S/C10H9NO/c1-8(12)11-7-6-9-4-2-3-5-10(9)11/h2-7H,1H3
Instrument: API QSTAR Pulsar i
Instrument type: LC-ESI-QTOF
Ms type: MS2
Ion mode: POSITIVE
Collision energy: 15 eV
Ionization: ESI
Precursor type: [M+H]+
m/z	relative intensity
43.019	51
118.067	774
160.076	999
