Mass spectrum: 5-Hydroxyindole-3-acetic acid; LC-ESI-QTOF; MS2; CE:55 eV; [M+H]+
Name: 5-Hydroxyindole-3-acetic acid
Name: 2-(5-hydroxy-1H-indol-3-yl)acetic acid
Class: Natural Product; Indole
Formula: C10H9NO3
Exact mass: 191.05824
SMILES: C1=CC2=C(C=C1O)C(=CN2)CC(=O)O
InChI: InChI=1S/C10H9NO3/c12-7-1-2-9-8(4-7)6(5-11-9)3-10(13)14/h1-2,4-5,11-12H,3H2,(H,13,14)
Instrument: API QSTAR Pulsar i
Instrument type: LC-ESI-QTOF
Ms type: MS2
Ion mode: POSITIVE
Collision energy: 55 eV
Ionization: ESI
Precursor type: [M+H]+
m/z	relative intensity
39.027	5
41.037	17
43.054	3
51.024	22
52.022	4
53.011	4
55.021	8
56.068	1
59.049	1
63.027	12
65.038	701
66.038	16
67.044	4
70.968	4
72.927	7
75.022	77
77.038	104
78.044	52
79.042	11
89.039	54
90.045	64
91.056	999
92.057	35
92.081	5
93.050	6
95.056	19
96.054	9
101.043	36
102.046	29
103.047	5
104.054	47
105.049	28
106.042	7
116.050	54
117.059	407
118.066	189
119.026	3
119.052	73
120.049	11
128.052	64
129.049	27
130.042	10
133.056	10
144.054	4
145.052	9
146.060	180
