Mass spectrum: Tyrosine; LC-ESI-QTOF; MS2; CE:30 eV; [M+H]+
Name: Tyrosine
Name: 2-amino-3-(4-hydroxyphenyl)propanoic acid
Class: Natural Product; amino acid
Formula: C9H11NO3
Exact mass: 181.07389
SMILES: C1=CC(=CC=C1CC(C(=O)O)N)O
InChI: InChI=1S/C9H11NO3/c10-8(9(12)13)5-6-1-3-7(11)4-2-6/h1-4,8,11H,5,10H2,(H,12,13)
Instrument: API QSTAR Pulsar i
Instrument type: LC-ESI-QTOF
Ms type: MS2
Ion mode: POSITIVE
Collision energy: 30 eV
Ionization: ESI
Precursor type: [M+H]+
m/z	relative intensity
43.019	2
65.039	3
67.055	1
77.039	49
81.071	4
91.054	999
92.057	13
93.070	12
94.063	4
95.050	444
96.054	4
103.056	35
105.046	2
107.050	51
108.081	6
109.066	33
117.058	1
118.067	40
119.052	693
120.053	10
121.066	12
123.045	633
124.048	8
136.076	543
137.073	13
147.045	58
165.055	6
166.988	5
