Mass spectrum: Emetine; LC-ESI-QTOF; MS2; CE:15 eV; [M+H]+
Name: Emetine
Name: (2S,3R,11bS)-2-[[(1R)-6,7-dimethoxy-1,2,3,4-tetrahydroisoquinolin-1-yl]methyl]-3-ethyl-9,10-dimethoxy-2,3,4,6,7,11b-hexahydro-1H-pyrido[2,1-a]isoquinoline
Class: Natural Product
Formula: C29H40N2O4
Exact mass: 480.29881
SMILES: CC[C@H]1CN2CCC3=CC(=C(C=C3[C@@H]2C[C@@H]1C[C@@H]4C5=CC(=C(C=C5CCN4)OC)OC)OC)OC
InChI: InChI=1S/C29H40N2O4/c1-6-18-17-31-10-8-20-14-27(33-3)29(35-5)16-23(20)25(31)12-21(18)11-24-22-15-28(34-4)26(32-2)13-19(22)7-9-30-24/h13-16,18,21,24-25,30H,6-12,17H2,1-5H3/t18-,21-,24+,25-/m0/s1
Instrument: micrOTOF-Q
Instrument type: LC-ESI-QTOF
Ms type: MS2
Ion mode: POSITIVE
Collision energy: 15 eV
Ionization: ESI
Precursor type: [M+H]+
m/z	relative intensity
246.145	7
272.161	0
274.176	6
464.274	8
465.275	1
479.289	1
480.294	1
480.824	0
480.977	0
481.300	999
481.888	0
482.303	216
483.306	6
