Mass spectrum: Chelidonine; LC-ESI-QQ; MS2; CE:25 eV; [M+H]+
Name: Chelidonin
Name: (+)-Chelidonine
Name: [1,3]Benzodioxolo[5,6-c]-1,3-dioxolo[4,5-i]phenanthridin-6-ol, 5b,6,7,12b,13,14-hexahydro-13-methyl-, (5bR,6S,12bS)-
Class: Natural Product; Benzophenanthridine Alkaloids
Formula: C20H19NO5
Exact mass: 353.126323
SMILES: CN1CC2=C(C=CC3=C2OCO3)[C@@H]4[C@H]1C5=CC6=C(C=C5C[C@@H]4O)OCO6
InChI: InChI=1S/C20H19NO5/c1-21-7-13-11(2-3-15-20(13)26-9-23-15)18-14(22)4-10-5-16-17(25-8-24-16)6-12(10)19(18)21/h2-3,5-6,14,18-19,22H,4,7-9H2,1H3/t14-,18-,19+/m0/s1
Instrument: TSQ 7000
Instrument type: LC-ESI-QQ
Ms type: MS2
Ion mode: POSITIVE
Collision energy: 25 eV
Ionization: ESI
Precursor type: [M+H]+
m/z	relative intensity
32.000	4
33.000	3
103.000	1
135.000	53
136.000	5
143.000	1
149.000	4
150.000	0
151.000	0
159.000	0
161.000	16
162.000	1
163.000	26
164.000	4
173.000	12
174.000	1
175.000	0
176.000	6
177.000	0
187.000	3
188.000	6
189.000	3
190.000	1
217.000	2
235.000	2
237.000	4
245.000	0
247.000	106
248.000	4
249.000	0
251.000	0
263.000	1
265.000	16
266.000	1
267.000	1
275.000	999
276.000	18
277.000	0
279.000	0
293.000	37
294.000	1
295.000	84
296.000	7
304.000	0
305.000	336
306.000	19
307.000	4
323.000	454
324.000	19
334.000	0
336.000	93
337.000	4
354.000	662
355.000	35
