Mass spectrum: Cysteine; LC-ESI-QTOF; MS2; CE:10 eV; [M+H]+
Name: Cysteine
Name: 2-amino-3-sulfanylpropanoic acid
Class: Natural Product; amino acid
Formula: C3H7NO2S
Exact mass: 121.01975
SMILES: C(C(C(=O)O)N)S
InChI: InChI=1S/C3H7NO2S/c4-2(1-7)3(5)6/h2,7H,1,4H2,(H,5,6)
Instrument: API QSTAR Pulsar i
Instrument type: LC-ESI-QTOF
Ms type: MS2
Ion mode: POSITIVE
Collision energy: 10 eV
Ionization: ESI
Precursor type: [M+H]+
m/z	relative intensity
76.022	94
86.990	16
105.001	111
122.029	999
