Mass spectrum: Genistein; LC-ESI-QTOF; MS2; CE:55 eV; [M+H]+
Name: Genistein
Name: 5,7-dihydroxy-3-(4-hydroxyphenyl)chromen-4-one
Class: Natural Product; Isoflavone
Formula: C15H10O5
Exact mass: 270.05282
SMILES: C1=CC(=CC=C1C2=COC3=CC(=CC(=C3C2=O)O)O)O
InChI: InChI=1S/C15H10O5/c16-9-3-1-8(2-4-9)11-7-20-13-6-10(17)5-12(18)14(13)15(11)19/h1-7,16-18H
Instrument: API QSTAR Pulsar i
Instrument type: LC-ESI-QTOF
Ms type: MS2
Ion mode: POSITIVE
Collision energy: 55 eV
Ionization: ESI
Precursor type: [M+H]+
m/z	relative intensity
53.040	10
55.018	36
63.023	10
65.038	327
67.017	116
68.996	225
77.038	29
79.055	13
81.035	31
83.014	12
89.039	45
91.055	999
92.059	15
93.034	12
95.014	23
97.030	32
103.056	61
105.037	27
106.042	9
107.049	134
108.022	15
109.029	16
111.009	22
115.054	541
116.060	45
117.069	53
118.041	25
119.050	154
121.028	191
125.024	10
127.053	68
128.061	79
129.068	36
131.049	119
135.044	50
137.024	22
139.055	38
140.063	17
141.071	381
142.075	12
144.057	71
145.062	83
147.044	41
149.024	61
150.036	43
151.055	42
152.062	69
153.019	623
154.025	10
155.054	127
157.067	23
159.052	41
163.045	33
165.023	14
168.062	90
169.070	181
170.075	10
171.050	23
172.057	14
173.065	16
179.060	26
181.072	10
183.051	20
185.068	16
187.067	25
191.042	9
197.066	131
200.053	39
201.060	8
213.062	36
215.077	30
253.058	14
