Mass spectrum: Bergapten; LC-ESI-QTOF; MS2; CE:15 eV; [M+H]+
Name: Bergapten
Name: 4-methoxyfuro[3,2-g]chromen-7-one
Class: Natural Product
Formula: C12H8O4
Exact mass: 216.04226
SMILES: COC1=C2C=CC(=O)OC2=CC3=C1C=CO3
InChI: InChI=1S/C12H8O4/c1-14-12-7-2-3-11(13)16-10(7)6-9-8(12)4-5-15-9/h2-6H,1H3
Instrument: micrOTOF-Q
Instrument type: LC-ESI-QTOF
Ms type: MS2
Ion mode: POSITIVE
Collision energy: 15 eV
Ionization: ESI
Precursor type: [M+H]+
m/z	relative intensity
115.052	4
117.067	0
118.040	0
131.047	6
133.063	1
143.048	3
145.062	4
146.035	5
147.039	0
158.035	5
159.040	0
161.058	18
162.062	0
173.057	30
174.029	59
175.033	3
189.053	4
201.865	0
201.910	0
202.024	999
203.027	100
204.028	4
217.047	818
218.050	90
219.052	4
