Mass spectrum: 5-Hydroxytryptophan; LC-ESI-QTOF; MS2; CE:15 eV; [M+H]+
Name: 5-Hydroxytryptophan
Name: 2-amino-3-(5-hydroxy-1H-indol-3-yl)propanoic acid
Class: Natural Product; Amino acid
Formula: C11H12N2O3
Exact mass: 220.08479
SMILES: C1=CC2=C(C=C1O)C(=CN2)CC(C(=O)O)N
InChI: InChI=1S/C11H12N2O3/c12-9(11(15)16)3-6-5-13-10-2-1-7(14)4-8(6)10/h1-2,4-5,9,13-14H,3,12H2,(H,15,16)
Instrument: API QSTAR Pulsar i
Instrument type: LC-ESI-QTOF
Ms type: MS2
Ion mode: POSITIVE
Collision energy: 15 eV
Ionization: ESI
Precursor type: [M+H]+
m/z	relative intensity
71.082	4
85.094	2
111.082	2
139.064	5
161.107	3
162.053	68
165.111	3
175.082	19
204.065	999
205.072	30
221.095	80
