Mass spectrum: Cinchonine; LC-ESI-QTOF; MS2; CE:30 eV; [M+H]+
Name: Cinchonine
Name: (S)-(5-ethenyl-1-azabicyclo[2.2.2]octan-7-yl)-quinolin-4-ylmethanol
Class: Natural Product
Formula: C19H22N2O
Exact mass: 294.17321
SMILES: C=C[C@H]1CN2CC[C@H]1C[C@@H]2[C@H](C3=CC=NC4=CC=CC=C34)O
InChI: InChI=1S/C19H22N2O/c1-2-13-12-21-10-8-14(13)11-18(21)19(22)16-7-9-20-17-6-4-3-5-15(16)17/h2-7,9,13-14,18-19,22H,1,8,10-12H2/t13-,14-,18+,19-/m0/s1
Instrument: micrOTOF-Q
Instrument type: LC-ESI-QTOF
Ms type: MS2
Ion mode: POSITIVE
Collision energy: 30 eV
Ionization: ESI
Precursor type: [M+H]+
m/z	relative intensity
100.495	0
104.023	1
110.104	0
115.007	0
115.052	49
116.058	2
116.069	0
117.052	11
117.068	5
117.688	0
117.766	0
118.064	12
119.069	2
119.082	0
120.078	34
121.062	0
121.086	5
122.094	15
123.095	2
124.109	16
124.122	4
125.116	0
127.052	1
128.048	119
129.038	1
129.058	53
129.130	0
130.063	727
130.123	1
131.065	63
132.043	0
132.079	42
132.106	0
132.902	0
133.047	5
133.087	2
133.965	0
134.094	150
135.100	31
136.111	71
137.114	3
138.124	18
138.537	0
139.027	1
139.063	0
140.051	16
140.095	0
141.055	3
141.384	0
142.012	1
142.063	525
142.136	0
143.070	330
143.273	0
144.077	197
145.057	2
145.081	15
145.395	0
146.060	17
146.087	5
146.113	0
148.067	0
148.106	3
151.048	0
152.060	4
152.104	1
152.740	0
153.070	2
153.173	0
154.063	376
154.091	1
155.069	123
156.047	1
156.078	529
157.042	0
157.080	64
157.117	0
157.693	0
158.058	68
158.079	0
158.114	3
159.066	124
159.459	1
160.071	13
161.074	0
164.100	0
165.072	4
166.064	138
166.120	62
166.217	1
166.270	0
167.071	407
167.134	2
167.990	0
168.078	644
168.143	0
168.181	2
168.210	0
168.726	0
169.078	171
170.062	19
170.089	51
170.148	0
171.089	31
171.115	0
172.075	160
172.101	1
173.081	9
179.073	21
179.897	0
180.079	278
180.143	0
180.425	0
181.078	205
181.147	0
181.369	0
181.764	1
182.088	142
182.195	0
183.086	96
183.107	2
184.074	169
184.120	2
184.139	0
185.080	19
185.111	4
186.093	8
187.015	0
187.546	0
190.454	0
191.073	31
191.189	0
192.078	68
192.137	0
192.753	1
193.085	84
193.147	0
194.092	168
195.094	94
196.106	133
196.171	0
197.104	91
197.255	0
198.090	7
198.117	2
199.095	0
199.127	0
200.095	1
202.068	0
203.068	9
204.078	217
204.145	2
205.085	107
205.177	0
205.239	0
205.437	0
206.091	234
206.182	0
206.253	0
207.094	130
207.157	0
207.942	0
207.994	0
208.106	135
208.140	0
208.194	0
208.932	0
209.077	0
209.106	109
209.169	0
210.112	49
210.148	0
211.113	14
212.104	15
213.098	1
213.895	0
214.062	0
214.118	22
215.083	2
215.167	0
216.077	18
216.954	0
217.087	89
217.120	0
218.091	221
218.160	2
219.096	193
220.104	212
221.105	300
221.175	3
221.205	1
221.237	1
221.392	0
222.114	265
222.186	1
222.984	1
223.118	220
224.130	58
224.155	1
225.142	5
225.176	0
226.149	0
228.079	0
229.089	0
229.612	1
230.094	32
231.099	38
232.107	136
232.554	0
233.109	117
233.223	2
233.605	0
234.123	328
234.203	0
234.942	0
235.120	520
235.223	5
236.065	0
236.129	200
236.246	0
236.896	1
237.134	25
238.151	36
238.218	1
239.018	1
239.139	2
240.138	7
242.947	0
244.109	28
244.154	0
245.111	10
246.124	47
247.121	73
248.136	163
249.138	81
250.142	21
251.105	0
251.149	3
251.915	2
252.133	65
252.349	0
252.912	1
252.950	0
253.140	6
254.906	0
256.652	0
258.118	1
258.919	0
259.115	0
260.132	7
260.194	0
261.133	32
261.332	0
261.925	0
262.140	15
263.149	4
264.129	0
265.167	12
266.118	1
266.151	49
267.168	15
268.897	0
271.103	0
271.562	1
272.168	0
274.902	0
275.149	24
276.127	0
276.156	4
276.901	0
277.165	999
277.357	0
278.066	1
278.168	156
278.231	1
279.156	0
293.158	0
295.176	987
295.400	1
295.510	2
295.543	0
296.178	177
296.259	0
296.313	0
296.345	1
296.812	1
309.897	0
312.364	0
332.598	0
370.432	0
381.019	0
386.889	0
423.405	1
459.538	0
470.372	0
522.975	0
548.796	1
611.149	0
672.206	0
727.625	0
858.741	0
