Mass spectrum: Catechin; LC-ESI-QTOF; MS2; CE:40 eV; [M+H]+
Name: Catechin
Name: (2R,3S)-2-(3,4-dihydroxyphenyl)chroman-3,5,7-triol
Class: Natural Product; Flavanol
Formula: C15H14O6
Exact mass: 290.07904
SMILES: C1[C@@H]([C@H](OC2=CC(=CC(=C21)O)O)C3=CC(=C(C=C3)O)O)O
InChI: InChI=1S/C15H14O6/c16-8-4-11(18)9-6-13(20)15(21-14(9)5-8)7-1-2-10(17)12(19)3-7/h1-5,13,15-20H,6H2/t13-,15+/m0/s1
Instrument: API QSTAR Pulsar i
Instrument type: LC-ESI-QTOF
Ms type: MS2
Ion mode: POSITIVE
Collision energy: 40 eV
Ionization: ESI
Precursor type: [M+H]+
m/z	relative intensity
55.019	39
65.039	7
67.055	21
68.997	24
77.038	6
83.051	15
91.055	26
93.035	25
95.051	33
97.030	9
105.035	16
107.049	10
111.044	80
115.054	48
119.049	182
121.027	16
123.042	999
124.046	18
127.038	15
131.047	14
133.064	33
135.044	11
137.026	36
139.039	943
140.043	18
143.049	85
147.044	328
148.047	8
149.060	8
151.057	33
153.056	10
159.047	11
161.063	189
163.043	22
165.059	37
177.059	22
179.074	29
189.061	34
207.071	15
