Mass spectrum: Rifampicin; LC-ESI-QTOF; MS2; CE:15 eV; [M+H]+
Name: Rifampicin
Name: 5,6,9,17,19,21-Hexahydroxy-23-methoxy- 2,4,12,16,18,20,22-heptamethyl-8-[N-(4-methyl- 1-piperazinyl)formimidoyl]-2,7-(epoxypentadeca- [1,11,13]trienimino)-naphtho[2,1-b]furan- 1,11(2H)-dion-21-acetat
Class: Natural Product
Formula: C43H58N4O12
Exact mass: 822.40512
SMILES: C[C@H]1/C=C/C=C(C(=O)NC2=C(C(=C3C(=C2O)C(=C(C4=C3C(=O)[C@](O4)(O/C=C/[C@@H]([C@H]([C@H]([C@@H]([C@@H]([C@@H]([C@H]1O)C)O)C)OC(=O)C)C)OC)C)C)O)O)/C=N/N5CCN(CC5)C)/C
InChI: InChI=1S/C43H58N4O12/c1-21-12-11-13-22(2)42(55)45-33-28(20-44-47-17-15-46(9)16-18-47)37(52)30-31(38(33)53)36(51)26(6)40-32(30)41(54)43(8,59-40)57-19-14-29(56-10)23(3)39(58-27(7)48)25(5)35(50)24(4)34(21)49/h11-14,19-21,23-25,29,34-35,39,49-53H,15-18H2,1-10H3,(H,45,55)/b12-11+,19-14+,22-13-,44-20+/t21-,23+,24+,25+,29-,34-,35+,39+,43-/m0/s1
Instrument: micrOTOF-Q
Instrument type: LC-ESI-QTOF
Ms type: MS2
Ion mode: POSITIVE
Collision energy: 15 eV
Ionization: ESI
Precursor type: [M+H]+
m/z	relative intensity
123.079	1
137.095	1
139.074	0
145.099	0
147.115	1
151.073	16
152.077	0
153.090	1
155.107	1
159.118	0
161.095	2
163.110	11
165.125	1
173.099	0
175.109	1
177.124	1
179.105	19
180.107	0
181.119	0
191.106	6
193.120	1
201.123	2
203.139	0
207.103	0
209.117	12
211.126	0
213.125	0
217.149	0
219.136	5
220.138	0
221.152	0
231.135	2
233.147	0
235.132	0
237.142	1
239.137	0
243.169	0
249.144	2
251.174	2
253.156	1
255.152	0
259.162	1
261.171	2
269.187	7
271.165	9
277.180	0
279.171	10
280.177	0
281.174	0
287.200	2
289.176	14
290.181	2
297.180	42
298.184	5
299.061	0
315.192	54
316.195	8
317.199	0
331.186	0
333.202	39
334.204	5
375.212	17
376.215	3
380.122	1
393.226	0
397.146	35
398.151	13
399.162	187
400.164	35
401.167	3
415.159	1
423.159	0
425.140	0
437.141	4
438.142	0
451.298	0
452.306	0
519.217	5
520.222	1
521.233	0
523.177	0
541.189	0
667.290	2
668.292	0
729.340	0
731.356	4
732.362	1
773.368	0
789.362	36
789.573	0
790.364	20
790.580	0
790.806	0
791.377	999
791.843	0
792.019	0
792.135	0
792.380	426
792.725	0
792.869	0
792.982	0
793.167	0
793.383	91
793.536	1
794.385	7
805.393	0
821.387	21
821.592	0
822.391	13
822.576	0
823.403	288
823.986	0
824.407	133
824.859	0
825.406	31
825.558	0
826.409	1
