Mass spectrum: Salsolinol; LC-ESI-QQ; MS2; CE:20 eV; [M+H]+
Name: Salsolinol
Name: (1S)-1-methyl-1,2,3,4-tetrahydroisoquinoline-6,7-diol
Class: Natural Product; Isoquinoline Alkaloids
Formula: C10H13NO2
Exact mass: 179.09463
SMILES: C[C@H]1C2=CC(=C(C=C2CCN1)O)O
InChI: InChI=1S/C10H13NO2/c1-6-8-5-10(13)9(12)4-7(8)2-3-11-6/h4-6,11-13H,2-3H2,1H3/t6-/m0/s1
Instrument: TSQ 7000
Instrument type: LC-ESI-QQ
Ms type: MS2
Ion mode: POSITIVE
Collision energy: 20 eV
Ionization: ESI
Precursor type: [M+H]+
m/z	relative intensity
29.000	0
30.000	1
31.000	0
43.000	0
44.000	10
45.000	2
57.000	14
58.000	2
69.000	5
70.000	0
78.000	0
79.000	0
91.000	5
92.000	0
93.000	0
98.000	0
105.000	2
107.000	0
115.000	14
116.000	2
117.000	182
118.000	0
119.000	2
123.000	0
127.000	13
128.000	0
133.000	0
134.000	1
135.000	15
136.000	1
137.000	101
138.000	3
139.000	29
140.000	9
145.000	668
148.000	0
151.000	34
152.000	2
162.000	2
163.000	999
164.000	9
180.000	910
181.000	4
