Mass spectrum: Phenylalanine; LC-ESI-QTOF; MS2; CE:20 eV; [M+H]+
Name: Phenylalanine
Name: (2S)-2-amino-3-phenylpropanoic acid
Class: Natural Product
Formula: C9H11NO2
Exact mass: 165.07898
SMILES: C1=CC=C(C=C1)C[C@@H](C(=O)O)N
InChI: InChI=1S/C9H11NO2/c10-8(9(11)12)6-7-4-2-1-3-5-7/h1-5,8H,6,10H2,(H,11,12)/t8-/m0/s1
Instrument: micrOTOF-Q
Instrument type: LC-ESI-QTOF
Ms type: MS2
Ion mode: POSITIVE
Collision energy: 20 eV
Ionization: ESI
Precursor type: [M+H]+
m/z	relative intensity
103.052	11
104.056	0
117.055	4
118.064	42
119.070	24
119.981	0
120.079	999
120.339	0
121.082	84
122.084	0
131.049	3
