Mass spectrum: Methoxyindoleacetic acid; LC-ESI-QTOF; MS2; CE:30 eV; [M+H]+
Name: Methoxyindoleacetic acid
Name: 2-(5-methoxy-1H-indol-3-yl)acetic acid
Class: Natural Product; Indole
Formula: C11H11NO3
Exact mass: 205.07389
SMILES: COC1=CC2=C(C=C1)NC=C2CC(=O)O
InChI: InChI=1S/C11H11NO3/c1-15-8-2-3-10-9(5-8)7(6-12-10)4-11(13)14/h2-3,5-6,12H,4H2,1H3,(H,13,14)
Instrument: API QSTAR Pulsar i
Instrument type: LC-ESI-QTOF
Ms type: MS2
Ion mode: POSITIVE
Collision energy: 30 eV
Ionization: ESI
Precursor type: [M+H]+
m/z	relative intensity
103.054	10
117.057	34
130.063	21
132.077	7
133.062	68
145.049	132
146.055	4
147.065	4
160.075	999
161.079	29
