Mass spectrum: Xanthohumol; LC-ESI-QQ; MS2; CE:25 eV; [M-H]-
Name: Xanthohumol
Name: (E)-1-[2,4-dihydroxy-6-methoxy-3-(3-methylbut-2-enyl)phenyl]-3-(4-hydroxyphenyl)prop-2-en-1-one
Class: Natural Product; Chalcones
Formula: C21H22O5
Exact mass: 354.14672
SMILES: CC(=CCC1=C(C(=C(C=C1O)OC)C(=O)/C=C/C2=CC=C(C=C2)O)O)C
InChI: InChI=1S/C21H22O5/c1-13(2)4-10-16-18(24)12-19(26-3)20(21(16)25)17(23)11-7-14-5-8-15(22)9-6-14/h4-9,11-12,22,24-25H,10H2,1-3H3/b11-7+
Instrument: TSQ QUANTUM AM
Instrument type: LC-ESI-QQ
Ms type: MS2
Ion mode: NEGATIVE
Collision energy: 25 eV
Ionization: ESI
Precursor type: [M-H]-
m/z	relative intensity
97.000	2
98.000	0
119.000	999
120.000	0
121.000	4
129.000	2
131.000	4
132.000	0
133.000	43
134.000	1
135.000	1
137.000	2
138.000	7
139.000	0
145.000	35
146.000	4
147.000	0
148.000	5
149.000	0
150.000	17
151.000	2
157.000	13
159.000	36
160.000	2
161.000	17
162.000	9
163.000	93
164.000	5
165.000	129
169.000	0
171.000	1
173.000	29
174.000	18
175.000	179
176.000	16
177.000	14
182.000	0
185.000	0
187.000	3
189.000	211
190.000	104
191.000	9
192.000	13
197.000	2
199.000	5
200.000	2
201.000	13
203.000	74
204.000	27
205.000	19
207.000	16
208.000	2
209.000	5
211.000	2
213.000	3
217.000	11
218.000	250
219.000	10
223.000	0
225.000	0
231.000	9
232.000	24
233.000	910
238.000	0
239.000	2
241.000	10
242.000	4
247.000	57
251.000	15
253.000	9
254.000	0
255.000	5
257.000	0
259.000	1
265.000	1
266.000	0
267.000	5
268.000	0
269.000	5
270.000	21
277.000	19
281.000	3
282.000	1
283.000	66
291.000	0
293.000	8
295.000	239
296.000	9
297.000	0
309.000	7
310.000	16
311.000	31
321.000	1
323.000	20
325.000	5
337.000	2
338.000	2
353.000	204
