Mass spectrum: Epicatechin; LC-ESI-QTOF; MS2; CE:40 eV; [M+H]+
Name: Epicatechin
Name: (2R,3R)-2-(3,4-dihydroxyphenyl)chroman-3,5,7-triol
Class: Natural Product; Flavanol
Formula: C15H14O6
Exact mass: 290.07904
SMILES: C1[C@H]([C@H](OC2=CC(=CC(=C21)O)O)C3=CC(=C(C=C3)O)O)O
InChI: InChI=1S/C15H14O6/c16-8-4-11(18)9-6-13(20)15(21-14(9)5-8)7-1-2-10(17)12(19)3-7/h1-5,13,15-20H,6H2/t13-,15-/m1/s1
Instrument: API QSTAR Pulsar i
Instrument type: LC-ESI-QTOF
Ms type: MS2
Ion mode: POSITIVE
Collision energy: 40 eV
Ionization: ESI
Precursor type: [M+H]+
m/z	relative intensity
55.019	36
65.039	6
67.055	21
68.997	20
77.038	5
83.051	13
91.055	27
93.034	21
95.051	32
97.028	7
105.035	15
107.051	8
111.043	68
115.054	43
119.049	161
121.029	14
123.043	999
124.046	18
127.038	15
131.048	11
133.064	32
135.044	9
137.029	39
139.039	834
140.042	14
143.049	75
147.043	307
148.047	8
151.056	32
153.055	9
159.045	10
161.061	168
163.043	21
165.057	32
177.057	18
179.073	29
189.059	33
207.069	14
