Mass spectrum: Chelidonine; LC-ESI-QTOF; MS2; CE:15 eV; [M+H]+
Name: Chelidonin
Name: (+)-Chelidonine
Name: [1,3]Benzodioxolo[5,6-c]-1,3-dioxolo[4,5-i]phenanthridin-6-ol, 5b,6,7,12b,13,14-hexahydro-13-methyl-, (5bR,6S,12bS)-
Class: Natural Product
Formula: C20H19NO5
Exact mass: 353.126323
SMILES: CN1CC2=C(C=CC3=C2OCO3)[C@@H]4[C@H]1C5=CC6=C(C=C5C[C@@H]4O)OCO6
InChI: InChI=1S/C20H19NO5/c1-21-7-13-11(2-3-15-20(13)26-9-23-15)18-14(22)4-10-5-16-17(25-8-24-16)6-12(10)19(18)21/h2-3,5-6,14,18-19,22H,4,7-9H2,1H3/t14-,18-,19+/m0/s1
Instrument: micrOTOF-Q
Instrument type: LC-ESI-QTOF
Ms type: MS2
Ion mode: POSITIVE
Collision energy: 15 eV
Ionization: ESI
Precursor type: [M+H]+
m/z	relative intensity
135.042	9
161.058	3
163.037	6
173.057	0
176.069	1
188.068	1
189.068	0
217.064	3
235.073	1
237.088	2
245.057	2
247.072	58
248.077	5
263.068	1
265.082	13
266.084	1
267.062	0
275.067	553
276.070	76
277.077	2
279.062	1
293.077	19
294.081	1
295.093	70
296.096	9
305.077	410
306.081	64
307.091	6
308.092	0
323.088	366
324.091	54
325.100	0
336.119	86
337.123	13
354.130	999
354.600	0
355.133	165
356.137	3
