Mass spectrum: Laudanosine; LC-ESI-QTOF; MS2; CE:10 eV; [M+H]+
Name: Laudanosine
Name: 1-[(3,4-dimethoxyphenyl)methyl]-6,7-dimethoxy-2-methyl-3,4-dihydro-1H-isoquinoline
Class: Natural Product
Formula: C21H27NO4
Exact mass: 357.19401
SMILES: CN1CCC2=CC(=C(C=C2C1CC3=CC(=C(C=C3)OC)OC)OC)OC
InChI: InChI=1S/C21H27NO4/c1-22-9-8-15-12-20(25-4)21(26-5)13-16(15)17(22)10-14-6-7-18(23-2)19(11-14)24-3/h6-7,11-13,17H,8-10H2,1-5H3
Instrument: micrOTOF-Q
Instrument type: LC-ESI-QTOF
Ms type: MS2
Ion mode: POSITIVE
Collision energy: 10 eV
Ionization: ESI
Precursor type: [M+H]+
m/z	relative intensity
151.074	0
189.089	2
206.115	198
207.119	17
296.136	0
315.154	3
327.155	23
328.158	2
329.170	0
357.914	0
358.197	999
359.200	159
360.202	3
