Mass spectrum: Biochanin A; LC-ESI-QTOF; MS2; CE:30 eV; [M+H]+
Name: Biochanin A
Name: 5,7-dihydroxy-3-(4-methoxyphenyl)chromen-4-one
Class: Natural Product; Phytoestrogens
Formula: C16H12O5
Exact mass: 284.06847
SMILES: COC1=CC=C(C=C1)C2=COC3=CC(=CC(=C3C2=O)O)O
InChI: InChI=1S/C16H12O5/c1-20-11-4-2-9(3-5-11)12-8-21-14-7-10(17)6-13(18)15(14)16(12)19/h2-8,17-18H,1H3
Instrument: micrOTOF-Q
Instrument type: LC-ESI-QTOF
Ms type: MS2
Ion mode: POSITIVE
Collision energy: 30 eV
Ionization: ESI
Precursor type: [M+H]+
m/z	relative intensity
115.052	5
116.061	0
118.040	20
119.047	2
121.026	6
121.063	2
123.042	20
124.014	54
125.018	1
126.030	0
127.053	1
128.060	4
129.066	4
130.039	12
130.081	0
131.047	12
132.053	6
133.064	26
134.035	0
134.070	0
135.043	2
137.020	3
139.043	6
140.059	4
141.068	15
142.072	0
144.054	6
145.028	0
145.062	20
146.067	5
147.044	2
149.022	49
150.028	4
152.008	161
153.016	130
154.019	4
155.049	4
156.055	1
157.063	10
158.034	121
159.040	15
160.049	3
161.060	5
161.096	1
163.036	4
165.017	0
165.068	1
167.036	2
168.055	36
169.063	22
170.019	44
171.038	14
171.067	0
172.048	10
173.057	8
174.062	0
175.038	0
176.047	2
177.045	0
179.033	15
180.049	1
181.064	3
183.046	4
183.075	6
184.050	10
185.057	43
186.064	42
187.068	8
188.057	1
192.035	0
195.039	1
196.049	16
197.057	100
198.062	23
199.042	5
200.044	16
201.053	13
203.032	3
207.038	0
210.027	1
211.061	12
212.046	13
212.905	0
213.051	999
213.260	0
213.402	0
214.057	219
214.127	0
215.062	20
216.038	51
217.044	5
224.043	36
225.051	105
226.058	30
227.036	14
228.037	8
229.082	189
230.085	21
231.084	0
235.035	0
239.068	1
240.048	1
240.076	0
241.046	434
242.053	760
242.243	0
242.368	0
243.057	84
244.063	1
252.038	45
253.046	359
254.048	46
255.056	4
256.033	2
256.069	0
257.074	4
261.068	0
267.065	2
269.040	569
269.217	0
270.046	329
271.051	38
274.042	5
285.071	151
286.074	20
