Mass spectrum: Quercetin; LC-ESI-QTOF; MS2; CE:15 eV; [M+H]+
Name: Quercetin
Name: 2-(3,4-dihydroxyphenyl)-3,5,7-trihydroxychromen-4-one
Class: Natural Product; Flavonoids
Formula: C15H10O7
Exact mass: 302.04265
SMILES: C1=CC(=C(C=C1C2=C(C(=O)C3=C(C=C(C=C3O2)O)O)O)O)O
InChI: InChI=1S/C15H10O7/c16-7-4-10(19)12-11(5-7)22-15(14(21)13(12)20)6-1-2-8(17)9(18)3-6/h1-5,16-19,21H
Instrument: micrOTOF-Q
Instrument type: LC-ESI-QTOF
Ms type: MS2
Ion mode: POSITIVE
Collision energy: 15 eV
Ionization: ESI
Precursor type: [M+H]+
m/z	relative intensity
137.022	0
153.017	0
165.017	1
201.054	0
229.047	10
230.049	0
247.057	4
257.041	11
258.044	0
274.041	3
275.051	1
285.036	8
286.042	0
302.035	1
302.759	0
302.838	0
302.895	0
303.046	999
303.577	0
303.663	0
304.050	119
305.051	4
