Mass spectrum: Kaempferol; LC-ESI-QQ; MS2; CE:35 eV; [M+H]+
Name: Kaempferol
Name: 3,5,7-trihydroxy-2-(4-hydroxyphenyl)chromen-4-one
Class: Natural Product; Flavonoids
Formula: C15H10O6
Exact mass: 286.04774
SMILES: C1=CC(=CC=C1C2=C(C(=O)C3=C(C=C(C=C3O2)O)O)O)O
InChI: InChI=1S/C15H10O6/c16-8-3-1-7(2-4-8)15-14(20)13(19)12-10(18)5-9(17)6-11(12)21-15/h1-6,16-18,20H
Instrument: TSQ QUANTUM AM
Instrument type: LC-ESI-QQ
Ms type: MS2
Ion mode: POSITIVE
Collision energy: 35 eV
Ionization: ESI
Precursor type: [M+H]+
m/z	relative intensity
43.000	2
53.000	1
55.000	0
57.000	0
65.000	26
66.000	2
67.000	18
69.000	134
71.000	1
77.000	57
79.000	36
81.000	23
83.000	2
85.000	3
89.000	2
91.000	15
93.000	104
94.000	3
95.000	8
97.000	15
99.000	1
101.000	1
102.000	0
103.000	21
105.000	64
106.000	1
107.000	99
108.000	8
109.000	71
110.000	1
111.000	62
113.000	0
115.000	43
117.000	14
119.000	27
120.000	0
121.000	418
122.000	0
123.000	7
124.000	0
125.000	7
126.000	0
127.000	45
128.000	61
129.000	50
131.000	11
133.000	42
134.000	2
135.000	24
136.000	21
137.000	168
138.000	0
139.000	32
140.000	1
141.000	33
143.000	24
144.000	1
145.000	75
146.000	1
147.000	126
148.000	1
149.000	3
150.000	3
151.000	8
153.000	999
155.000	10
157.000	191
158.000	0
159.000	2
160.000	17
161.000	48
163.000	18
165.000	246
166.000	5
167.000	17
168.000	10
169.000	7
171.000	108
172.000	1
173.000	8
174.000	2
175.000	22
179.000	6
180.000	1
181.000	3
182.000	0
183.000	18
184.000	23
185.000	119
187.000	3
188.000	3
189.000	8
190.000	0
191.000	3
193.000	1
194.000	3
195.000	13
196.000	1
197.000	13
199.000	5
200.000	0
201.000	20
202.000	8
203.000	26
211.000	1
212.000	7
213.000	313
214.000	0
215.000	5
216.000	28
217.000	3
218.000	5
219.000	3
223.000	2
225.000	2
227.000	0
229.000	106
230.000	11
231.000	38
232.000	0
235.000	1
240.000	2
241.000	78
242.000	8
243.000	9
244.000	1
245.000	8
257.000	1
258.000	147
259.000	36
263.000	0
269.000	16
285.000	6
286.000	0
287.000	240
