Mass spectrum: Rotenone; LC-ESI-QTOF; MS2; CE:10 eV; [M+H]+
Name: Rotenone
Name: (2R,6aS,12aS)-1,2,6,6a,12,12a-hexahydro-2-isopropenyl-8,9-dimethoxychromeno[3,4-b]furo(2,3-h)chromen-6-one
Class: Natural Product; Flavonoids
Formula: C23H22O6
Exact mass: 394.14164
SMILES: CC(=C)[C@H]1CC2=C(O1)C=CC3=C2O[C@@H]4COC5=CC(=C(C=C5[C@@H]4C3=O)OC)OC
InChI: InChI=1S/C23H22O6/c1-11(2)16-8-14-15(28-16)6-5-12-22(24)21-13-7-18(25-3)19(26-4)9-17(13)27-10-20(21)29-23(12)14/h5-7,9,16,20-21H,1,8,10H2,2-4H3/t16-,20-,21+/m1/s1
Instrument: micrOTOF-Q
Instrument type: LC-ESI-QTOF
Ms type: MS2
Ion mode: POSITIVE
Collision energy: 10 eV
Ionization: ESI
Precursor type: [M+H]+
m/z	relative intensity
167.068	1
179.067	0
189.088	0
192.075	6
193.080	0
203.067	4
213.087	20
214.091	1
241.081	12
242.085	0
367.148	13
368.150	2
377.130	0
394.809	0
394.888	0
395.142	999
395.550	0
396.146	189
397.149	7
