Mass spectrum: Bergapten; LC-ESI-QTOF; MS2; CE:10 eV; [M+H]+
Name: Bergapten
Name: 4-methoxyfuro[3,2-g]chromen-7-one
Class: Natural Product
Formula: C12H8O4
Exact mass: 216.04226
SMILES: COC1=C2C=CC(=O)OC2=CC3=C1C=CO3
InChI: InChI=1S/C12H8O4/c1-14-12-7-2-3-11(13)16-10(7)6-9-8(12)4-5-15-9/h2-6H,1H3
Instrument: micrOTOF-Q
Instrument type: LC-ESI-QTOF
Ms type: MS2
Ion mode: POSITIVE
Collision energy: 10 eV
Ionization: ESI
Precursor type: [M+H]+
m/z	relative intensity
161.058	0
173.057	5
174.029	2
189.051	0
202.024	145
203.026	13
217.047	999
218.050	99
219.052	4
