Mass spectrum: Tryptophan; LC-ESI-QTOF; MS2; CE:55 eV; [M+H]+
Name: Tryptophan
Name: 2-amino-3-(1H-indol-3-yl)propanoic acid
Class: Natural Product; amino acid
Formula: C11H12N2O2
Exact mass: 204.08988
SMILES: C1=CC=C2C(=C1)C(=CN2)CC(C(=O)O)N
InChI: InChI=1S/C11H12N2O2/c12-9(11(14)15)5-7-6-13-10-4-2-1-3-8(7)10/h1-4,6,9,13H,5,12H2,(H,14,15)
Instrument: API QSTAR Pulsar i
Instrument type: LC-ESI-QTOF
Ms type: MS2
Ion mode: POSITIVE
Collision energy: 55 eV
Ionization: ESI
Precursor type: [M+H]+
m/z	relative intensity
65.039	42
74.024	9
77.038	43
79.053	4
89.039	133
90.046	78
91.055	651
92.058	16
93.056	9
95.052	2
101.040	11
102.046	16
103.057	85
104.054	13
105.071	29
106.064	4
113.039	5
114.047	14
115.054	999
116.058	186
117.058	692
118.066	375
119.067	9
126.046	7
127.054	25
128.050	55
129.052	9
130.066	248
131.071	24
132.081	37
140.052	36
141.058	32
142.066	184
143.075	228
144.080	16
146.059	4
155.063	5
158.087	2
