Mass spectrum: Citrulline; LC-ESI-QTOF; MS2; CE:25 eV; [M+H]+
Name: Citrulline
Name: 2-amino-5-(carbamoylamino)pentanoic acid
Class: Natural Product; amino acid
Formula: C6H13N3O3
Exact mass: 175.09569
SMILES: C(CC(C(=O)O)N)CNC(=O)N
InChI: InChI=1S/C6H13N3O3/c7-4(5(10)11)2-1-3-9-6(8)12/h4H,1-3,7H2,(H,10,11)(H3,8,9,12)
Instrument: API QSTAR Pulsar i
Instrument type: LC-ESI-QTOF
Ms type: MS2
Ion mode: POSITIVE
Collision energy: 25 eV
Ionization: ESI
Precursor type: [M+H]+
m/z	relative intensity
68.051	3
70.067	999
71.054	7
74.024	0
84.045	3
86.060	26
87.093	2
88.076	2
96.046	11
97.076	7
98.061	3
99.045	1
113.071	694
114.055	110
115.087	53
116.073	77
141.066	6
142.050	7
149.023	2
159.078	140
