Mass spectrum: Thebaine; LC-ESI-QQ; MS2; CE:25 eV; [M+H]+
Name: Thebaine
Name: Morphinan, 6,7,8,14-tetradehydro-4,5-epoxy-3,6-dimethoxy-17-methyl-, (5.alpha.)-
Class: Natural Product; Morphinan Alkaloids
Formula: C19H21NO3
Exact mass: 311.15214
SMILES: CN1CCC23C4C(=CC=C2C1CC5=C3C(=C(C=C5)OC)O4)OC
InChI: InChI=1S/C19H21NO3/c1-20-9-8-19-12-5-7-15(22-3)18(19)23-17-14(21-2)6-4-11(16(17)19)10-13(12)20/h4-7,13,18H,8-10H2,1-3H3
Instrument: TSQ 7000
Instrument type: LC-ESI-QQ
Ms type: MS2
Ion mode: POSITIVE
Collision energy: 25 eV
Ionization: ESI
Precursor type: [M+H]+
m/z	relative intensity
30.000	2
31.000	0
43.000	0
44.000	10
45.000	0
56.000	1
57.000	0
58.000	999
59.000	0
167.000	1
177.000	4
178.000	2
179.000	0
180.000	0
181.000	1
189.000	1
191.000	3
193.000	8
194.000	1
195.000	22
196.000	1
197.000	1
201.000	0
202.000	0
203.000	3
205.000	5
206.000	4
207.000	3
208.000	0
209.000	9
210.000	2
212.000	2
213.000	3
217.000	9
218.000	57
219.000	6
220.000	1
221.000	120
222.000	10
223.000	77
224.000	8
225.000	6
226.000	0
227.000	5
231.000	1
232.000	7
233.000	0
234.000	31
235.000	5
236.000	3
237.000	45
238.000	7
239.000	7
240.000	6
241.000	2
247.000	0
248.000	8
249.000	198
250.000	12
251.000	187
252.000	13
253.000	13
254.000	19
255.000	73
256.000	5
263.000	2
264.000	0
265.000	6
266.000	235
267.000	8
268.000	0
269.000	9
280.000	14
281.000	137
282.000	12
283.000	2
296.000	0
297.000	16
298.000	0
312.000	247
313.000	21
