Mass spectrum: Syringaldehyde; LC-ESI-QTOF; MS2; CE:35 eV; [M+H]+
Name: Syringaldehyde
Name: 4-hydroxy-3,5-dimethoxybenzaldehyde
Class: Natural Product; Benzaldehyde
Formula: C9H10O4
Exact mass: 182.05791
SMILES: COC1=CC(=CC(=C1O)OC)C=O
InChI: InChI=1S/C9H10O4/c1-12-7-3-6(5-10)4-8(13-2)9(7)11/h3-5,11H,1-2H3
Instrument: API QSTAR Pulsar i
Instrument type: LC-ESI-QTOF
Ms type: MS2
Ion mode: POSITIVE
Collision energy: 35 eV
Ionization: ESI
Precursor type: [M+H]+
m/z	relative intensity
41.040	14
55.021	62
65.040	331
67.055	177
77.041	999
80.028	41
93.037	41
95.054	550
97.034	86
105.048	48
123.044	21
125.026	211
140.052	139
