Mass spectrum: Tyramine; LC-ESI-QTOF; MS2; CE:10 eV; [M+H]+
Name: Tyramine
Name: 4-(2-aminoethyl)phenol
Class: Natural Product
Formula: C8H11NO
Exact mass: 137.08406
SMILES: C1=CC(=CC=C1CCN)O
InChI: InChI=1S/C8H11NO/c9-6-5-7-1-3-8(10)4-2-7/h1-4,10H,5-6,9H2
Instrument: micrOTOF-Q
Instrument type: LC-ESI-QTOF
Ms type: MS2
Ion mode: POSITIVE
Collision energy: 10 eV
Ionization: ESI
Precursor type: [M+H]+
m/z	relative intensity
103.054	1
121.063	999
122.067	81
138.089	1
