Mass spectrum: Kaempferol; LC-ESI-QTOF; MS2; CE:40 eV; [M+H]+
Name: Kaempferol
Name: 3,5,7-trihydroxy-2-(4-hydroxyphenyl)chromen-4-one
Class: Natural Product; Flavonol
Formula: C15H10O6
Exact mass: 286.04774
SMILES: C1=CC(=CC=C1C2=C(C(=O)C3=C(C=C(C=C3O2)O)O)O)O
InChI: InChI=1S/C15H10O6/c16-8-3-1-7(2-4-8)15-14(20)13(19)12-10(18)5-9(17)6-11(12)21-15/h1-6,16-18,20H
Instrument: API QSTAR Pulsar i
Instrument type: LC-ESI-QTOF
Ms type: MS2
Ion mode: POSITIVE
Collision energy: 40 eV
Ionization: ESI
Precursor type: [M+H]+
m/z	relative intensity
55.051	7
67.018	6
68.996	44
69.070	21
77.037	6
79.054	14
81.035	6
93.032	15
103.053	8
105.037	46
107.050	71
109.028	46
111.012	111
115.052	20
117.068	15
119.047	19
121.028	598
122.032	14
127.043	21
128.060	16
129.067	33
131.049	9
133.031	73
135.047	34
136.017	15
137.023	179
139.053	11
141.070	24
143.051	10
145.060	53
147.045	123
153.018	999
154.021	23
155.059	14
157.065	131
161.059	41
163.042	9
165.020	330
166.027	16
167.052	9
169.068	13
171.046	66
173.059	11
175.057	22
183.034	56
184.053	12
185.063	97
189.058	22
197.062	20
201.056	10
203.059	33
213.059	267
214.061	12
216.045	17
217.055	12
229.049	58
231.067	115
241.053	142
242.058	16
243.066	19
245.046	15
258.058	187
259.067	70
269.053	21
287.055	822
288.057	41
