Mass spectrum: Syringaldehyde; LC-ESI-QTOF; MS2; CE:45 eV; [M+H]+
Name: Syringaldehyde
Name: 4-hydroxy-3,5-dimethoxybenzaldehyde
Class: Natural Product; Benzaldehyde
Formula: C9H10O4
Exact mass: 182.05791
SMILES: COC1=CC(=CC(=C1O)OC)C=O
InChI: InChI=1S/C9H10O4/c1-12-7-3-6(5-10)4-8(13-2)9(7)11/h3-5,11H,1-2H3
Instrument: API QSTAR Pulsar i
Instrument type: LC-ESI-QTOF
Ms type: MS2
Ion mode: POSITIVE
Collision energy: 45 eV
Ionization: ESI
Precursor type: [M+H]+
m/z	relative intensity
39.024	46
41.040	85
51.026	113
52.034	130
55.020	96
65.040	676
66.045	29
67.056	155
69.036	23
77.042	999
79.020	30
80.029	113
95.054	278
97.034	293
105.048	35
107.016	47
125.026	156
