Mass spectrum: Aminocaproic acid; LC-ESI-QTOF; MS2; CE:15 eV; [M+H]+
Name: Aminocaproic acid
Name: 6-aminohexanoic acid
Class: Natural Product; amino acid
Formula: C6H13NO2
Exact mass: 131.09463
SMILES: C(CCC(=O)O)CCN
InChI: InChI=1S/C6H13NO2/c7-5-3-1-2-4-6(8)9/h1-5,7H2,(H,8,9)
Instrument: API QSTAR Pulsar i
Instrument type: LC-ESI-QTOF
Ms type: MS2
Ion mode: POSITIVE
Collision energy: 15 eV
Ionization: ESI
Precursor type: [M+H]+
m/z	relative intensity
68.051	5
69.071	138
73.066	28
79.055	53
96.083	83
97.067	148
114.093	999
115.077	134
132.103	746
