Mass spectrum: 5-methoxyindole-3-carbaldehyde; LC-ESI-QTOF; MS2; CE:30 eV; [M+H]+
Name: 5-methoxyindole-3-carbaldehyde
Class: Natural Product; indole
Formula: C10H9NO2
Exact mass: 175.06333
SMILES: COC1=CC2=C(C=C1)NC=C2C=O
InChI: InChI=1S/C10H9NO2/c1-13-8-2-3-10-9(4-8)7(6-12)5-11-10/h2-6,11H,1H3
Instrument: API QSTAR Pulsar i
Instrument type: LC-ESI-QTOF
Ms type: MS2
Ion mode: POSITIVE
Collision energy: 30 eV
Ionization: ESI
Precursor type: [M+H]+
m/z	relative intensity
77.038	4
78.044	1
79.040	6
89.038	8
91.053	22
93.069	2
104.049	23
105.058	254
106.060	3
116.049	113
117.058	395
118.064	31
120.081	5
121.064	70
132.043	56
133.051	999
134.058	50
144.054	27
147.067	43
148.075	275
149.078	2
161.045	3
176.071	4
