Mass spectrum: 5-methoxyindole-3-carbaldehyde; LC-ESI-QTOF; MS2; CE:50 eV; [M+H]+
Name: 5-methoxyindole-3-carbaldehyde
Class: Natural Product; indole
Formula: C10H9NO2
Exact mass: 175.06333
SMILES: COC1=CC2=C(C=C1)NC=C2C=O
InChI: InChI=1S/C10H9NO2/c1-13-8-2-3-10-9(4-8)7(6-12)5-11-10/h2-6,11H,1H3
Instrument: API QSTAR Pulsar i
Instrument type: LC-ESI-QTOF
Ms type: MS2
Ion mode: POSITIVE
Collision energy: 50 eV
Ionization: ESI
Precursor type: [M+H]+
m/z	relative intensity
51.024	11
52.031	18
53.039	0
62.930	1
63.023	26
64.027	0
65.038	61
66.044	1
76.030	10
77.038	111
78.045	274
79.041	281
80.048	5
89.038	217
90.045	162
91.053	97
95.049	13
96.046	4
104.050	999
105.057	493
106.049	20
115.044	2
116.049	47
117.058	273
118.063	9
121.065	23
132.043	83
133.050	95
134.059	7
144.055	3
