Mass spectrum: Indole-3-carboxylic acid; LC-ESI-QTOF; MS2; CE:10 eV; [M+H]+
Name: Indole-3-carboxylic acid
Name: 1H-indole-3-carboxylic acid
Class: Natural Product
Formula: C9H7NO2
Exact mass: 161.04768
SMILES: C1=CC=C2C(=C1)C(=CN2)C(=O)O
InChI: InChI=1S/C9H7NO2/c11-9(12)7-5-10-8-4-2-1-3-6(7)8/h1-5,10H,(H,11,12)
Instrument: micrOTOF-Q
Instrument type: LC-ESI-QTOF
Ms type: MS2
Ion mode: POSITIVE
Collision energy: 10 eV
Ionization: ESI
Precursor type: [M+H]+
m/z	relative intensity
116.048	103
117.055	102
118.063	767
118.180	0
119.067	69
120.069	0
134.060	6
135.060	0
144.043	843
145.046	77
146.049	2
161.045	1
161.951	0
161.971	0
162.053	999
162.179	0
162.321	0
162.381	0
163.057	76
164.058	1
254.037	0
