Mass spectrum: Scopoletin; LC-ESI-QQ; MS2; CE:25 eV; [M+H]+
Name: Scopoletin
Name: 7-hydroxy-6-methoxychromen-2-one
Class: Natural Product; Coumarins
Formula: C10H8O4
Exact mass: 192.04226
SMILES: COC1=C(C=C2C(=C1)C=CC(=O)O2)O
InChI: InChI=1S/C10H8O4/c1-13-9-4-6-2-3-10(12)14-8(6)5-7(9)11/h2-5,11H,1H3
Instrument: TSQ 7000
Instrument type: LC-ESI-QQ
Ms type: MS2
Ion mode: POSITIVE
Collision energy: 25 eV
Ionization: ESI
Precursor type: [M+H]+
m/z	relative intensity
26.000	0
28.000	1
29.000	7
34.000	4
35.000	0
36.000	3
37.000	3
38.000	0
41.000	1
42.000	6
46.000	1
50.000	3
51.000	1
52.000	0
53.000	0
56.000	1
57.000	2
59.000	5
61.000	2
62.000	0
64.000	1
65.000	2
66.000	2
67.000	3
68.000	0
69.000	1
70.000	5
71.000	0
73.000	1
76.000	1
77.000	15
78.000	8
79.000	3
80.000	2
81.000	6
82.000	1
83.000	0
84.000	0
87.000	0
89.000	25
90.000	1
91.000	11
92.000	0
93.000	3
94.000	57
96.000	1
100.000	1
101.000	7
104.000	0
105.000	42
106.000	8
107.000	7
109.000	8
110.000	6
111.000	0
112.000	3
113.000	6
114.000	3
115.000	5
116.000	0
117.000	27
119.000	0
121.000	2
122.000	182
123.000	6
124.000	0
128.000	0
129.000	0
130.000	1
132.000	0
133.000	999
134.000	34
135.000	0
137.000	396
138.000	7
139.000	1
141.000	2
143.000	1
144.000	4
147.000	0
148.000	2
149.000	22
150.000	141
151.000	1
152.000	0
153.000	0
154.000	1
156.000	0
160.000	0
161.000	17
162.000	0
164.000	2
165.000	24
167.000	2
168.000	0
169.000	7
170.000	0
171.000	0
172.000	0
173.000	0
174.000	4
175.000	0
178.000	783
179.000	18
181.000	0
182.000	0
183.000	5
184.000	0
185.000	2
191.000	0
192.000	0
193.000	430
194.000	8
196.000	1
197.000	5
199.000	0
