Mass spectrum: Resveratrol; LC-ESI-QTOF; MS2; CE:25 eV; [M-H]-
Name: Resveratrol
Name: 5-[(E)-2-(4-hydroxyphenyl)ethenyl]benzene-1,3-diol
Class: Natural Product; Stilbene
Formula: C14H12O3
Exact mass: 228.07864
SMILES: C1=CC(=CC=C1/C=C/C2=CC(=CC(=C2)O)O)O
InChI: InChI=1S/C14H12O3/c15-12-5-3-10(4-6-12)1-2-11-7-13(16)9-14(17)8-11/h1-9,15-17H/b2-1+
Instrument: API QSTAR Pulsar i
Instrument type: LC-ESI-QTOF
Ms type: MS2
Ion mode: NEGATIVE
Collision energy: 25 eV
Ionization: ESI
Precursor type: [M-H]-
m/z	relative intensity
107.048	7
114.986	12
117.032	10
119.048	19
130.981	9
141.071	36
143.050	260
145.029	16
157.066	53
159.082	96
181.064	29
182.071	43
183.078	123
184.053	9
185.057	517
225.057	18
227.071	999
