Mass spectrum: Resveratrol; LC-ESI-QTOF; MS2; CE:55 eV; [M-H]-
Name: Resveratrol
Name: 5-[(E)-2-(4-hydroxyphenyl)ethenyl]benzene-1,3-diol
Class: Natural Product; Stilbene
Formula: C14H12O3
Exact mass: 228.07864
SMILES: C1=CC(=CC=C1/C=C/C2=CC(=CC(=C2)O)O)O
InChI: InChI=1S/C14H12O3/c15-12-5-3-10(4-6-12)1-2-11-7-13(16)9-14(17)8-11/h1-9,15-17H/b2-1+
Instrument: API QSTAR Pulsar i
Instrument type: LC-ESI-QTOF
Ms type: MS2
Ion mode: NEGATIVE
Collision energy: 55 eV
Ionization: ESI
Precursor type: [M-H]-
m/z	relative intensity
64.999	10
65.035	24
89.035	9
93.031	133
114.045	12
115.053	821
116.024	27
117.032	460
119.048	195
129.069	7
130.039	6
139.054	20
141.034	43
142.041	18
143.050	999
152.065	8
156.059	29
157.066	26
167.050	39
169.065	18
180.056	70
181.063	31
182.069	10
183.042	24
