Mass spectrum: Resveratrol; LC-ESI-QTOF; MS2; CE:55 eV; [M+H]+
Name: Resveratrol
Name: 5-[(E)-2-(4-hydroxyphenyl)ethenyl]benzene-1,3-diol
Class: Natural Product; Stilbene
Formula: C14H12O3
Exact mass: 228.07864
SMILES: C1=CC(=CC=C1/C=C/C2=CC(=CC(=C2)O)O)O
InChI: InChI=1S/C14H12O3/c15-12-5-3-10(4-6-12)1-2-11-7-13(16)9-14(17)8-11/h1-9,15-17H/b2-1+
Instrument: API QSTAR Pulsar i
Instrument type: LC-ESI-QTOF
Ms type: MS2
Ion mode: POSITIVE
Collision energy: 55 eV
Ionization: ESI
Precursor type: [M+H]+
m/z	relative intensity
39.021	17
41.037	19
43.017	37
51.023	50
53.039	60
55.018	126
63.021	32
65.037	606
66.042	21
67.053	54
68.996	252
71.012	9
77.036	999
78.042	39
79.052	219
80.057	9
81.032	106
89.037	53
90.045	12
91.053	729
92.058	32
93.033	16
94.042	38
95.049	197
103.056	33
105.045	76
107.049	512
108.052	17
115.053	302
116.061	37
117.069	8
118.041	19
119.049	95
120.057	66
121.030	42
123.043	10
126.044	15
127.053	71
128.060	178
129.068	56
131.049	63
139.051	220
140.058	47
141.067	51
144.053	40
145.060	53
151.049	34
152.058	316
153.065	237
154.072	39
155.059	59
157.062	27
163.053	117
164.061	250
165.069	493
166.072	34
168.057	43
169.062	18
181.065	200
182.071	23
