Mass spectrum: Naringenin; LC-ESI-QTOF; MS2; CE:25 eV; [M-H]-
Name: Naringenin
Name: 5,7-dihydroxy-2-(4-hydroxyphenyl)chroman-4-one
Class: Natural Product; Flavanone
Formula: C15H12O5
Exact mass: 272.06847
SMILES: C1[C@H](OC2=CC(=CC(=C2C1=O)O)O)C3=CC=C(C=C3)O
InChI: InChI=1S/C15H12O5/c16-9-3-1-8(2-4-9)13-7-12(19)15-11(18)5-10(17)6-14(15)20-13/h1-6,13,16-18H,7H2/t13-/m0/s1
Instrument: API QSTAR Pulsar i
Instrument type: LC-ESI-QTOF
Ms type: MS2
Ion mode: NEGATIVE
Collision energy: 25 eV
Ionization: ESI
Precursor type: [M-H]-
m/z	relative intensity
83.014	14
93.035	86
107.017	170
119.050	492
125.024	15
145.031	13
151.003	999
165.021	51
169.012	22
177.017	151
185.058	9
227.071	31
271.061	425
