Mass spectrum: Quercetin; LC-ESI-QQ; MS2; CE:30 eV; [M-H]-
Name: Quercetin
Name: 2-(3,4-dihydroxyphenyl)-3,5,7-trihydroxychromen-4-one
Class: Natural Product; Flavonoids
Formula: C15H10O7
Exact mass: 302.04265
SMILES: C1=CC(=C(C=C1C2=C(C(=O)C3=C(C=C(C=C3O2)O)O)O)O)O
InChI: InChI=1S/C15H10O7/c16-7-4-10(19)12-11(5-7)22-15(14(21)13(12)20)6-1-2-8(17)9(18)3-6/h1-5,16-19,21H
Instrument: TSQ 7000
Instrument type: LC-ESI-QQ
Ms type: MS2
Ion mode: NEGATIVE
Collision energy: 30 eV
Ionization: ESI
Precursor type: [M-H]-
m/z	relative intensity
63.000	18
65.000	64
83.000	61
93.000	29
95.000	1
96.000	0
107.000	272
108.000	8
109.000	30
111.000	2
115.000	1
117.000	0
119.000	0
120.000	4
121.000	296
123.000	7
124.000	10
125.000	16
129.000	1
130.000	1
131.000	2
132.000	0
133.000	4
134.000	0
135.000	8
136.000	4
137.000	1
139.000	0
142.000	1
143.000	4
144.000	1
145.000	7
146.000	2
147.000	11
148.000	5
149.000	49
151.000	999
152.000	6
155.000	1
157.000	2
158.000	7
159.000	30
161.000	34
162.000	3
163.000	72
164.000	37
165.000	8
167.000	5
168.000	1
169.000	3
170.000	3
171.000	5
172.000	0
173.000	10
174.000	0
175.000	22
177.000	10
179.000	140
182.000	1
183.000	12
184.000	2
185.000	9
186.000	1
187.000	34
189.000	13
190.000	2
191.000	1
192.000	4
193.000	23
195.000	0
196.000	0
197.000	1
198.000	0
199.000	8
200.000	1
201.000	29
203.000	12
204.000	0
205.000	11
209.000	0
210.000	0
211.000	29
212.000	3
213.000	9
214.000	5
215.000	4
216.000	3
217.000	9
224.000	0
225.000	11
227.000	19
228.000	4
229.000	27
230.000	7
231.000	2
232.000	0
233.000	3
239.000	2
240.000	5
241.000	1
243.000	46
244.000	4
245.000	64
254.000	2
255.000	8
256.000	4
257.000	3
271.000	3
272.000	4
273.000	22
283.000	0
284.000	9
299.000	7
300.000	2
301.000	16
