Mass spectrum: Indole-3-acetyl-L-valine; LC-ESI-QTOF; MS2; CE:15 eV; [M+H]+
Name: Indole-3-acetyl-L-valine
Name: (2S)-2-[[2-(1H-indol-3-yl)acetyl]amino]-3-methylbutanoic acid
Class: Natural Product
Formula: C15H18N2O3
Exact mass: 274.13174
SMILES: CC(C)[C@@H](C(=O)O)NC(=O)CC1=CNC2=CC=CC=C21
InChI: InChI=1S/C15H18N2O3/c1-9(2)14(15(19)20)17-13(18)7-10-8-16-12-6-4-3-5-11(10)12/h3-6,8-9,14,16H,7H2,1-2H3,(H,17,18)(H,19,20)/t14-/m0/s1
Instrument: API QSTAR Pulsar i
Instrument type: LC-ESI-QTOF
Ms type: MS2
Ion mode: POSITIVE
Collision energy: 15 eV
Ionization: ESI
Precursor type: [M+H]+
m/z	relative intensity
72.079	32
118.087	141
130.065	119
229.133	999
257.120	100
275.138	933
