Mass spectrum: Lysine; LC-ESI-QTOF; MS2; CE:40 eV; [M+H]+
Name: Lysine
Name: 2,6-diaminohexanoic acid
Class: Natural Product; amino acid
Formula: C6H14N2O2
Exact mass: 146.10553
SMILES: C(CCN)CC(C(=O)O)N
InChI: InChI=1S/C6H14N2O2/c7-4-2-1-3-5(8)6(9)10/h5H,1-4,7-8H2,(H,9,10)
Instrument: API QSTAR Pulsar i
Instrument type: LC-ESI-QTOF
Ms type: MS2
Ion mode: POSITIVE
Collision energy: 40 eV
Ionization: ESI
Precursor type: [M+H]+
m/z	relative intensity
39.023	3
41.040	18
42.036	19
43.043	2
53.041	1
54.037	1
55.056	75
56.051	563
57.071	14
65.039	18
67.055	127
68.051	7
69.059	39
70.065	0
71.051	1
74.025	10
77.040	0
82.066	12
84.082	999
85.067	1
91.054	1
