Mass spectrum: Phloretin; LC-ESI-QTOF; MS2; CE:40 eV; [M+H]+
Name: Phloretin
Name: 3-(4-hydroxyphenyl)-1-(2,4,6-trihydroxyphenyl)propan-1-one
Class: Natural Product; Dihydrochalcone
Formula: C15H14O5
Exact mass: 274.08412
SMILES: C1=CC(=CC=C1CCC(=O)C2=C(C=C(C=C2O)O)O)O
InChI: InChI=1S/C15H14O5/c16-10-4-1-9(2-5-10)3-6-12(18)15-13(19)7-11(17)8-14(15)20/h1-2,4-5,7-8,16-17,19-20H,3,6H2
Instrument: API QSTAR Pulsar i
Instrument type: LC-ESI-QTOF
Ms type: MS2
Ion mode: POSITIVE
Collision energy: 40 eV
Ionization: ESI
Precursor type: [M+H]+
m/z	relative intensity
77.038	10
79.055	7
107.049	999
108.052	25
123.043	14
151.037	23
169.051	15
