Mass spectrum: Valine; LC-ESI-QTOF; MS2; CE:25 eV; [M+H]+
Name: Valine
Name: 2-amino-3-methylbutanoic acid
Class: Natural Product; amino acid
Formula: C5H11NO2
Exact mass: 117.07898
SMILES: CC(C)C(C(=O)O)N
InChI: InChI=1S/C5H11NO2/c1-3(2)4(6)5(7)8/h3-4H,6H2,1-2H3,(H,7,8)
Instrument: API QSTAR Pulsar i
Instrument type: LC-ESI-QTOF
Ms type: MS2
Ion mode: POSITIVE
Collision energy: 25 eV
Ionization: ESI
Precursor type: [M+H]+
m/z	relative intensity
44.051	3
53.042	4
55.057	629
57.060	36
59.051	14
72.082	999
