Mass spectrum: Serotonin; LC-ESI-QTOF; MS2; CE:40 eV; [M+H]+
Name: Serotonin
Name: 3-(2-aminoethyl)-1H-indol-5-ol
Class: Natural Product; Indole
Formula: C10H12N2O
Exact mass: 176.09496
SMILES: C1=CC2=C(C=C1O)C(=CN2)CCN
InChI: InChI=1S/C10H12N2O/c11-4-3-7-6-12-10-2-1-8(13)5-9(7)10/h1-2,5-6,12-13H,3-4,11H2
Instrument: API QSTAR Pulsar i
Instrument type: LC-ESI-QTOF
Ms type: MS2
Ion mode: POSITIVE
Collision energy: 40 eV
Ionization: ESI
Precursor type: [M+H]+
m/z	relative intensity
39.020	8
43.015	10
51.941	13
53.041	7
54.034	13
55.018	34
55.935	11
56.942	67
63.021	14
65.037	204
66.043	20
67.040	134
67.934	66
68.940	12
70.956	8
72.935	55
77.037	335
78.044	63
79.052	260
80.047	28
89.038	176
90.045	106
91.055	110
92.053	10
93.056	13
94.042	64
95.050	88
96.939	26
102.046	11
103.055	175
104.051	125
105.067	317
106.053	40
107.049	47
113.037	5
114.046	22
115.054	999
116.052	136
117.058	560
118.054	16
128.051	20
130.066	359
131.066	271
132.076	113
133.055	288
134.065	13
140.051	58
141.057	90
142.066	98
143.071	156
144.052	37
145.052	30
158.062	75
159.069	228
160.077	27
