Mass spectrum: 1-methoxyindole-3-carbaldehyde; LC-ESI-QTOF; MS2; CE:40 eV; [M+H]+
Name: 1-methoxyindole-3-carbaldehyde
Class: Natural Product; Indole, Glucosinolate degradation product
Formula: C10H9NO2
Exact mass: 175.06333
SMILES: CON1C=C(C2=CC=CC=C21)C=O
InChI: InChI=1S/C10H9NO2/c1-13-11-6-8(7-12)9-4-2-3-5-10(9)11/h2-7H,1H3
Instrument: API QSTAR Pulsar i
Instrument type: LC-ESI-QTOF
Ms type: MS2
Ion mode: POSITIVE
Collision energy: 40 eV
Ionization: ESI
Precursor m/z: 176.07115
Precursor type: [M+H]+
m/z	relative intensity
89.038	555
90.046	459
104.049	999
105.057	149
116.050	282
117.057	460
132.043	101
144.045	163
