Mass spectrum: Catechin; LC-ESI-QTOF; MS2; CE:15 eV; [M+H]+
Name: Catechin
Name: (2R,3S)-2-(3,4-dihydroxyphenyl)chroman-3,5,7-triol
Class: Natural Product; Flavanol
Formula: C15H14O6
Exact mass: 290.07904
SMILES: C1[C@@H]([C@H](OC2=CC(=CC(=C21)O)O)C3=CC(=C(C=C3)O)O)O
InChI: InChI=1S/C15H14O6/c16-8-4-11(18)9-6-13(20)15(21-14(9)5-8)7-1-2-10(17)12(19)3-7/h1-5,13,15-20H,6H2/t13-,15+/m0/s1
Instrument: API QSTAR Pulsar i
Instrument type: LC-ESI-QTOF
Ms type: MS2
Ion mode: POSITIVE
Collision energy: 15 eV
Ionization: ESI
Precursor type: [M+H]+
m/z	relative intensity
123.043	518
139.039	853
140.043	9
147.044	40
151.039	56
153.056	7
163.043	9
165.058	372
169.054	35
181.055	9
207.070	17
249.080	28
273.078	56
291.086	999
292.092	25
