Mass spectrum: Alanine; LC-ESI-QTOF; MS2; CE:10 eV; [M+H]+
Name: Alanine
Name: 2-aminopropanoic acid
Class: Natural Product; amino acid
Formula: C3H7NO2
Exact mass: 89.04768
SMILES: CC(C(=O)O)N
InChI: InChI=1S/C3H7NO2/c1-2(4)3(5)6/h2H,4H2,1H3,(H,5,6)
Instrument: API QSTAR Pulsar i
Instrument type: LC-ESI-QTOF
Ms type: MS2
Ion mode: POSITIVE
Collision energy: 10 eV
Ionization: ESI
Precursor type: [M+H]+
m/z	relative intensity
44.049	609
90.056	999
