Mass spectrum: Aloin; LC-ESI-QTOF; MS2; CE:15 eV; [M+H]+
Name: Aloin
Name: 1,8-dihydroxy-3-(hydroxymethyl)-10-[3,4,5-trihydroxy-6-(hydroxymethyl)oxan-2-yl]-10H-anthracen-9-one
Class: Natural Product; Anthron
Formula: C21H22O9
Exact mass: 418.12638
SMILES: C1=CC2=C(C(=C1)O)C(=O)C3=C(C=C(C=C3C2C4C(C(C(C(O4)CO)O)O)O)CO)O
InChI: InChI=1S/C21H22O9/c22-6-8-4-10-14(21-20(29)19(28)17(26)13(7-23)30-21)9-2-1-3-11(24)15(9)18(27)16(10)12(25)5-8/h1-5,13-14,17,19-26,28-29H,6-7H2
Instrument: micrOTOF-Q
Instrument type: LC-ESI-QTOF
Ms type: MS2
Ion mode: POSITIVE
Collision energy: 15 eV
Ionization: ESI
Precursor type: [M+H]+
m/z	relative intensity
168.042	0
206.167	0
209.056	1
211.073	285
212.077	27
215.960	0
226.066	0
227.067	17
233.038	0
238.885	0
238.910	0
239.068	999
239.908	0
240.071	124
241.088	6
255.062	16
256.068	4
256.094	0
257.078	291
257.197	1
258.080	37
263.065	14
263.132	0
264.068	0
267.066	2
267.239	0
268.069	1
269.077	6
273.643	0
278.068	1
279.058	0
281.086	7
285.079	0
290.869	0
293.074	2
294.084	0
295.090	0
297.071	0
305.085	0
307.059	0
311.194	0
317.078	2
319.094	1
321.060	0
329.155	0
329.527	0
335.090	3
337.904	0
347.094	2
363.096	0
365.095	6
365.878	0
383.113	9
384.112	0
419.116	2
420.163	0
420.220	0
421.224	3
491.101	0
