Mass spectrum: Tyrosine; LC-ESI-QTOF; MS2; CE:40 eV; [M+H]+
Name: Tyrosine
Name: 2-amino-3-(4-hydroxyphenyl)propanoic acid
Class: Natural Product; amino acid
Formula: C9H11NO3
Exact mass: 181.07389
SMILES: C1=CC(=CC=C1CC(C(=O)O)N)O
InChI: InChI=1S/C9H11NO3/c10-8(9(12)13)5-6-1-3-7(11)4-2-6/h1-4,8,11H,5,10H2,(H,12,13)
Instrument: API QSTAR Pulsar i
Instrument type: LC-ESI-QTOF
Ms type: MS2
Ion mode: POSITIVE
Collision energy: 40 eV
Ionization: ESI
Precursor type: [M+H]+
m/z	relative intensity
43.019	2
51.025	3
55.020	1
65.039	52
67.055	10
77.039	199
78.043	2
79.055	8
81.070	8
91.054	999
92.057	16
93.062	6
94.044	9
95.050	371
96.054	4
103.056	16
105.046	10
107.049	130
108.070	5
109.066	15
117.060	8
118.066	18
119.052	152
120.057	5
123.043	62
136.076	29
