Mass spectrum: Phenylglycine; LC-ESI-QTOF; MS2; CE:20 eV; [M+H]+
Name: Phenylglycine
Name: 2-amino-2-phenylacetic acid
Class: Natural Product
Formula: C8H9NO2
Exact mass: 151.06333
SMILES: C1=CC=C(C=C1)C(C(=O)O)N
InChI: InChI=1S/C8H9NO2/c9-7(8(10)11)6-4-2-1-3-5-6/h1-5,7H,9H2,(H,10,11)
Instrument: micrOTOF-Q
Instrument type: LC-ESI-QTOF
Ms type: MS2
Ion mode: POSITIVE
Collision energy: 20 eV
Ionization: ESI
Precursor type: [M+H]+
m/z	relative intensity
106.070	9
107.046	37
116.971	2
134.946	10
135.042	999
136.047	60
170.960	2
390.349	1
412.169	2
536.829	1
