Mass spectrum: Luteolin; LC-ESI-QTOF; MS2; CE:55 eV; [M+H]+
Name: Luteolin
Name: 5,7,3',4'-tetrahydroxy-flavone
Class: Natural Product; Flavone
Formula: C15H10O6
Exact mass: 286.04774
SMILES: C1=CC(=C(C=C1C2=CC(=O)C3=C(C=C(C=C3O2)O)O)O)O
InChI: InChI=1S/C15H10O6/c16-8-4-11(19)15-12(20)6-13(21-14(15)5-8)7-1-2-9(17)10(18)3-7/h1-6,16-19H
Instrument: API QSTAR Pulsar i
Instrument type: LC-ESI-QTOF
Ms type: MS2
Ion mode: POSITIVE
Collision energy: 55 eV
Ionization: ESI
Precursor type: [M+H]+
m/z	relative intensity
55.019	15
63.023	8
67.018	201
68.997	298
77.039	38
79.055	41
81.035	27
83.014	14
87.022	8
89.039	309
91.054	8
97.030	36
103.054	8
105.035	18
107.049	34
109.027	24
111.008	34
115.053	113
117.033	243
121.029	9
125.024	35
127.049	45
128.060	125
129.066	50
131.048	15
133.027	18
135.043	250
137.025	177
139.054	196
143.045	25
145.062	25
147.042	24
153.018	999
154.023	27
155.056	35
157.065	58
161.026	263
167.053	27
168.060	10
171.047	66
179.040	12
184.058	20
185.064	46
187.044	10
195.048	24
203.038	9
212.050	33
213.059	47
229.052	14
240.044	15
241.054	73
287.055	45
