Mass spectrum: IAA-Val , Indole-3-acetyl-L-valine; LC-ESI-QTOF; MS2; CE:10 eV; [M+H]+
Name: IAA-Val , Indole-3-acetyl-L-valine
Name: (2S)-2-[[2-(1H-indol-3-yl)acetyl]amino]-3-methylbutanoic acid
Class: Natural Product
Formula: C15H18N2O3
Exact mass: 274.13174
SMILES: CC(C)[C@@H](C(=O)O)NC(=O)CC1=CNC2=CC=CC=C21
InChI: InChI=1S/C15H18N2O3/c1-9(2)14(15(19)20)17-13(18)7-10-8-16-12-6-4-3-5-11(10)12/h3-6,8-9,14,16H,7H2,1-2H3,(H,17,18)(H,19,20)/t14-/m0/s1
Instrument: micrOTOF-Q
Instrument type: LC-ESI-QTOF
Ms type: MS2
Ion mode: POSITIVE
Collision energy: 10 eV
Ionization: ESI
Precursor type: [M+H]+
m/z	relative intensity
118.084	6
130.063	537
131.066	34
158.059	4
228.912	0
229.130	999
229.989	0
230.133	115
231.136	1
257.124	60
258.126	6
274.133	0
275.134	283
276.137	37
