Mass spectrum: Serotonin; LC-ESI-QTOF; MS2; CE:55 eV; [M+H]+
Name: Serotonin
Name: 3-(2-aminoethyl)-1H-indol-5-ol
Class: Natural Product; Indole
Formula: C10H12N2O
Exact mass: 176.09496
SMILES: C1=CC2=C(C=C1O)C(=CN2)CCN
InChI: InChI=1S/C10H12N2O/c11-4-3-7-6-12-10-2-1-8(13)5-9(7)10/h1-2,5-6,12-13H,3-4,11H2
Instrument: API QSTAR Pulsar i
Instrument type: LC-ESI-QTOF
Ms type: MS2
Ion mode: POSITIVE
Collision energy: 55 eV
Ionization: ESI
Precursor type: [M+H]+
m/z	relative intensity
39.021	48
41.031	21
42.034	7
43.016	16
50.015	12
51.023	223
51.938	25
52.029	45
52.951	7
53.038	45
54.034	16
55.017	47
55.934	52
56.941	78
59.929	11
62.014	19
63.022	273
64.026	39
65.038	525
66.045	78
67.042	91
67.934	101
68.941	36
70.950	6
72.936	86
74.013	6
75.022	52
76.031	20
77.036	999
78.044	339
79.049	224
80.048	26
81.032	11
87.021	15
88.027	29
89.038	825
90.045	272
91.053	77
92.050	16
93.054	16
94.042	48
95.049	226
96.041	9
101.035	4
102.046	44
103.055	281
104.051	348
105.048	228
106.045	28
107.048	23
113.037	38
114.046	52
115.055	512
116.052	79
117.058	152
118.047	17
128.049	27
129.054	11
130.066	308
131.056	129
132.050	44
133.056	64
140.048	60
141.060	51
142.066	42
143.068	9
144.048	12
158.060	28
159.070	14
