Mass spectrum: Chelidonine; LC-ESI-QTOF; MS2; CE:20 eV; [M+H]+
Name: Chelidonin
Name: (+)-Chelidonine
Name: [1,3]Benzodioxolo[5,6-c]-1,3-dioxolo[4,5-i]phenanthridin-6-ol, 5b,6,7,12b,13,14-hexahydro-13-methyl-, (5bR,6S,12bS)-
Class: Natural Product
Formula: C20H19NO5
Exact mass: 353.126323
SMILES: CN1CC2=C(C=CC3=C2OCO3)[C@@H]4[C@H]1C5=CC6=C(C=C5C[C@@H]4O)OCO6
InChI: InChI=1S/C20H19NO5/c1-21-7-13-11(2-3-15-20(13)26-9-23-15)18-14(22)4-10-5-16-17(25-8-24-16)6-12(10)19(18)21/h2-3,5-6,14,18-19,22H,4,7-9H2,1H3/t14-,18-,19+/m0/s1
Instrument: micrOTOF-Q
Instrument type: LC-ESI-QTOF
Ms type: MS2
Ion mode: POSITIVE
Collision energy: 20 eV
Ionization: ESI
Precursor type: [M+H]+
m/z	relative intensity
135.042	21
136.047	0
143.047	0
149.022	0
151.037	0
159.042	1
161.058	8
163.037	16
164.040	0
173.057	3
175.037	0
176.068	4
187.037	0
188.068	8
189.068	1
207.078	1
217.062	10
218.066	0
219.077	0
235.073	7
236.074	0
237.087	12
238.090	0
245.056	11
246.060	1
247.072	170
248.075	22
249.087	1
251.067	0
263.067	5
264.068	0
265.082	36
266.083	4
267.062	2
275.066	999
276.070	147
277.077	4
279.060	2
293.077	34
294.081	4
295.092	84
296.095	11
305.076	228
306.080	38
307.092	6
308.094	0
321.088	0
323.087	191
324.090	31
334.103	0
336.118	77
337.122	11
354.129	158
355.132	27
