Mass spectrum: 3-Formylindole; LC-ESI-QTOF; MS2; CE:45 eV; [M+H]+
Name: 3-Formylindole
Name: 1H-indole-3-carbaldehyde
Class: Natural Product; Indole
Formula: C9H7NO
Exact mass: 145.05276
SMILES: C1=CC=C2C(=C1)C(=CN2)C=O
InChI: InChI=1S/C9H7NO/c11-6-7-5-10-9-4-2-1-3-8(7)9/h1-6,10H
Instrument: API QSTAR Pulsar i
Instrument type: LC-ESI-QTOF
Ms type: MS2
Ion mode: POSITIVE
Collision energy: 45 eV
Ionization: ESI
Precursor type: [M+H]+
m/z	relative intensity
39.024	3
41.039	4
51.024	7
63.023	12
64.031	3
65.040	374
77.038	1
78.036	3
89.041	95
90.048	195
91.056	999
116.052	6
117.060	264
118.069	38
