Mass spectrum: Asparagine; LC-ESI-QTOF; MS2; CE:10 eV; [M+H]+
Name: Asparagine
Name: 2,4-diamino-4-oxobutanoic acid
Class: Natural Product; amino acid
Formula: C4H8N2O3
Exact mass: 132.05349
SMILES: C(C(C(=O)O)N)C(=O)N
InChI: InChI=1S/C4H8N2O3/c5-2(4(8)9)1-3(6)7/h2H,1,5H2,(H2,6,7)(H,8,9)
Instrument: API QSTAR Pulsar i
Instrument type: LC-ESI-QTOF
Ms type: MS2
Ion mode: POSITIVE
Collision energy: 10 eV
Ionization: ESI
Precursor type: [M+H]+
m/z	relative intensity
74.024	11
87.056	159
88.041	17
116.036	40
133.062	999
