Mass spectrum: 3,4,5-Trimethoxycinnamic acid; LC-ESI-QTOF; MS2; CE:15 eV; [M+H]+
Name: 3,4,5-Trimethoxycinnamic acid
Name: (E)-3-(3,4,5-trimethoxyphenyl)prop-2-enoic acid
Class: Natural Product
Formula: C12H14O5
Exact mass: 238.08412
SMILES: COC1=CC(=CC(=C1OC)OC)/C=C/C(=O)O
InChI: InChI=1S/C12H14O5/c1-15-9-6-8(4-5-11(13)14)7-10(16-2)12(9)17-3/h4-7H,1-3H3,(H,13,14)/b5-4+
Instrument: micrOTOF-Q
Instrument type: LC-ESI-QTOF
Ms type: MS2
Ion mode: POSITIVE
Collision energy: 15 eV
Ionization: ESI
Precursor type: [M+H]+
m/z	relative intensity
118.039	1
119.047	2
121.064	2
123.042	0
130.040	6
131.047	6
132.055	5
133.062	11
134.069	2
135.042	15
136.048	3
137.058	1
138.066	8
139.073	3
144.055	1
145.029	1
146.036	3
147.042	56
148.049	22
149.058	24
150.065	15
151.073	5
154.060	12
155.065	0
158.035	1
159.042	3
160.050	15
161.058	25
162.066	110
163.040	95
164.047	10
164.073	3
165.058	6
165.083	6
166.061	0
167.068	23
168.071	1
169.084	42
170.088	2
172.048	0
173.022	0
174.029	14
175.037	50
176.045	43
177.053	61
178.060	142
179.067	30
180.075	15
181.076	0
182.056	0
188.045	8
189.052	34
190.060	469
191.034	293
192.038	34
193.084	297
194.087	29
195.098	9
196.101	0
197.079	24
198.082	1
205.047	17
206.055	399
207.060	47
208.071	146
209.074	21
210.077	0
220.929	0
221.078	999
222.082	102
223.076	4
224.065	24
225.068	1
239.088	44
240.092	3
