Mass spectrum: Safranin; LC-ESI-QTOF; MS2; CE:30 eV; M+
Name: Safranin
Name: 3,7-dimethyl-10-phenylphenazin-10-ium-2,8-diamine
Class: Natural Product
Formula: [C20H19N4]+
Exact mass: 315.16097
SMILES: CC1=CC2=C(C=C1N)[N+](=C3C=C(C(=CC3=N2)C)N)C4=CC=CC=C4
InChI: InChI=1S/C20H18N4/c1-12-8-17-19(10-15(12)21)24(14-6-4-3-5-7-14)20-11-16(22)13(2)9-18(20)23-17/h3-11H,1-2H3,(H3,21,22)/p+1
Instrument: micrOTOF-Q
Instrument type: LC-ESI-QTOF
Ms type: MS2
Ion mode: POSITIVE
Collision energy: 30 eV
Ionization: ESI
Precursor type: [M]+
m/z	relative intensity
196.085	0
197.093	3
198.098	0
208.091	0
209.097	0
210.100	10
211.106	6
212.112	3
213.111	0
220.083	0
221.092	1
222.100	3
223.096	16
224.101	1
237.110	22
238.118	107
239.120	13
248.114	0
256.094	1
257.101	1
258.101	0
259.107	0
260.114	2
261.120	0
269.102	0
270.108	0
271.114	1
272.114	3
273.122	19
274.128	9
275.134	1
279.088	0
280.095	5
281.102	4
282.100	4
283.106	8
284.111	9
285.111	4
286.128	4
287.136	8
288.144	17
289.147	1
296.114	1
297.122	21
298.128	40
299.126	115
300.131	61
301.135	7
313.140	11
314.147	22
314.944	0
315.156	999
316.159	177
317.161	1
