Mass spectrum: Betaine-Aldehyde; LC-ESI-QQ; MS2; CE:25 eV; M+
Name: Betaine-Aldehyde
Name: trimethyl-(2-oxoethyl)azanium
Class: Natural Product
Formula: [C5H12NO]+
Exact mass: 102.09189
SMILES: C[N+](C)(C)CC=O
InChI: InChI=1S/C5H12NO/c1-6(2,3)4-5-7/h5H,4H2,1-3H3/q+1
Instrument: TSQ 7000
Instrument type: LC-ESI-QQ
Ms type: MS2
Ion mode: POSITIVE
Collision energy: 25 eV
Ionization: ESI
Precursor type: [M]+
m/z	relative intensity
30.000	2
31.000	0
42.000	7
43.000	21
44.000	5
45.000	1
56.000	6
57.000	1
58.000	999
59.000	926
61.000	17
70.000	2
71.000	1
72.000	12
73.000	2
74.000	0
84.000	6
87.000	26
101.000	0
102.000	123
103.000	3
