Mass spectrum: Catechin; LC-ESI-QTOF; MS2; CE:25 eV; [M-H]-
Name: Catechin
Name: (2R,3S)-2-(3,4-dihydroxyphenyl)chroman-3,5,7-triol
Class: Natural Product; Flavanol
Formula: C15H14O6
Exact mass: 290.07904
SMILES: C1[C@@H]([C@H](OC2=CC(=CC(=C21)O)O)C3=CC(=C(C=C3)O)O)O
InChI: InChI=1S/C15H14O6/c16-8-4-11(18)9-6-13(20)15(21-14(9)5-8)7-1-2-10(17)12(19)3-7/h1-5,13,15-20H,6H2/t13-,15+/m0/s1
Instrument: API QSTAR Pulsar i
Instrument type: LC-ESI-QTOF
Ms type: MS2
Ion mode: NEGATIVE
Collision energy: 25 eV
Ionization: ESI
Precursor type: [M-H]-
m/z	relative intensity
81.031	14
83.011	15
95.049	41
97.029	103
108.022	10
109.031	727
121.028	77
122.036	16
123.043	306
125.022	659
135.044	52
137.024	349
138.031	22
139.040	110
145.030	19
146.037	20
147.045	12
149.024	167
150.031	17
151.039	369
159.047	54
160.053	38
161.061	201
162.033	64
163.041	32
164.012	102
165.019	211
166.026	33
167.034	110
173.060	19
174.034	20
175.042	112
177.052	17
179.031	362
180.040	15
185.059	26
186.065	16
187.036	198
188.044	159
199.070	28
201.066	39
202.057	123
203.065	785
205.044	662
212.044	23
217.080	72
221.081	274
227.071	151
229.050	14
230.058	45
231.031	45
245.083	999
247.062	82
271.063	46
289.071	780
