Mass spectrum: Camalexin; LC-ESI-QTOF; MS2; CE:40 eV; [M+H]+
Name: Camalexin
Name: 3-(1,3-thiazol-2-yl)-1H-indole
Class: Natural Product; Indole
Formula: C11H8N2S
Exact mass: 200.04082
SMILES: C1=CC=C2C(=C1)C(=CN2)C3=NC=CS3
InChI: InChI=1S/C11H8N2S/c1-2-4-10-8(3-1)9(7-13-10)11-12-5-6-14-11/h1-7,13H
Instrument: API QSTAR Pulsar i
Instrument type: LC-ESI-QTOF
Ms type: MS2
Ion mode: POSITIVE
Collision energy: 40 eV
Ionization: ESI
Precursor type: [M+H]+
m/z	relative intensity
57.988	81
58.995	999
89.038	35
91.053	18
98.006	31
116.050	231
117.056	137
130.063	109
142.053	472
143.060	248
148.019	36
160.024	242
167.061	15
168.069	150
169.076	29
173.030	91
174.037	119
200.037	73
201.047	408
