Mass spectrum: Kaempferol; LC-ESI-QTOF; MS2; CE:25 eV; [M+H]+
Name: Kaempferol
Name: 3,5,7-trihydroxy-2-(4-hydroxyphenyl)chromen-4-one
Class: Natural Product
Formula: C15H10O6
Exact mass: 286.04774
SMILES: C1=CC(=CC=C1C2=C(C(=O)C3=C(C=C(C=C3O2)O)O)O)O
InChI: InChI=1S/C15H10O6/c16-8-3-1-7(2-4-8)15-14(20)13(19)12-10(18)5-9(17)6-11(12)21-15/h1-6,16-18,20H
Instrument: micrOTOF-Q
Instrument type: LC-ESI-QTOF
Ms type: MS2
Ion mode: POSITIVE
Collision energy: 25 eV
Ionization: ESI
Precursor type: [M+H]+
m/z	relative intensity
121.026	20
129.071	1
133.026	5
135.041	4
137.021	19
138.025	0
139.051	1
141.066	0
145.062	8
147.042	20
148.049	0
149.023	0
153.016	141
154.023	6
157.062	21
158.068	0
161.058	5
165.017	50
166.021	5
167.047	0
168.053	0
169.067	0
171.042	6
175.040	0
175.074	0
183.026	20
184.037	0
185.056	24
186.062	0
188.045	0
189.050	3
191.029	0
194.015	1
195.039	0
197.055	4
199.036	1
201.053	1
203.038	0
203.070	6
212.045	3
213.051	109
213.127	0
214.055	8
215.063	0
216.039	6
217.047	4
218.056	0
219.063	1
223.038	2
224.043	0
229.044	20
230.052	4
231.061	56
232.061	2
234.947	1
240.036	1
241.045	65
242.050	10
243.062	8
244.069	0
245.040	2
246.046	0
257.040	3
258.048	111
258.154	0
259.055	52
260.057	4
263.051	1
269.039	21
270.043	1
285.032	1
286.039	1
287.050	999
287.214	0
287.590	0
288.053	122
289.057	3
