Mass spectrum: S,R-Noscapine; LC-ESI-QTOF; MS2; CE:30 eV; [M+H]+
Name: S,R-Noscapine
Name: (3S)-6,7-dimethoxy-3-[(5R)-4-methoxy-6-methyl-7,8-dihydro-5H-[1,3]dioxolo[4,5-g]isoquinolin-5-yl]-3H-2-benzofuran-1-one
Class: Natural Product
Formula: C22H23NO7
Exact mass: 413.14745
SMILES: CN1CCC2=CC3=C(C(=C2[C@@H]1[C@@H]4C5=C(C(=C(C=C5)OC)OC)C(=O)O4)OC)OCO3
InChI: InChI=1S/C22H23NO7/c1-23-8-7-11-9-14-20(29-10-28-14)21(27-4)15(11)17(23)18-12-5-6-13(25-2)19(26-3)16(12)22(24)30-18/h5-6,9,17-18H,7-8,10H2,1-4H3/t17-,18+/m1/s1
Instrument: micrOTOF-Q
Instrument type: LC-ESI-QTOF
Ms type: MS2
Ion mode: POSITIVE
Collision energy: 30 eV
Ionization: ESI
Precursor type: [M+H]+
m/z	relative intensity
121.064	2
148.067	0
149.059	2
161.056	0
162.086	0
163.042	0
164.045	0
165.053	5
174.048	0
175.063	1
176.055	0
177.055	2
178.069	0
179.068	33
180.071	2
188.052	1
189.056	3
190.077	1
191.064	6
192.069	0
193.048	7
194.059	0
202.072	0
203.057	4
204.063	16
205.071	164
206.078	105
207.080	11
208.086	0
209.074	1
216.060	0
217.058	2
218.077	27
219.085	30
219.921	0
220.094	999
221.097	110
222.083	3
223.072	3
224.078	3
225.085	0
231.076	1
232.058	0
233.058	4
234.064	9
235.072	11
236.077	6
237.064	6
238.077	2
239.072	0
239.096	2
240.074	0
241.083	0
245.055	1
246.064	6
247.071	8
248.084	17
249.071	12
250.063	7
251.068	13
252.074	16
253.081	6
254.091	3
255.077	0
258.062	0
259.069	0
260.061	1
261.055	6
262.059	20
263.066	35
264.074	31
265.070	22
266.086	9
267.092	17
268.086	2
269.108	4
270.092	0
273.053	0
274.059	12
275.065	16
276.074	17
277.076	26
278.068	9
279.065	27
280.069	95
281.076	33
282.083	11
283.078	2
285.100	1
287.067	0
288.072	1
289.051	5
290.055	13
291.062	30
292.070	42
293.073	39
294.083	20
295.090	125
296.095	28
297.094	10
298.080	2
299.083	0
302.053	12
303.060	11
304.069	17
305.075	40
306.054	42
307.061	80
308.066	49
309.072	41
310.079	62
311.082	12
312.093	17
313.099	8
314.092	0
316.076	0
317.048	2
318.060	1
319.056	27
320.066	23
321.072	34
322.080	95
323.086	252
324.092	70
325.102	97
326.105	17
327.111	6
328.110	1
332.064	16
333.071	7
334.079	55
335.070	30
336.079	10
337.072	30
338.077	72
339.083	12
340.092	4
341.095	3
343.111	0
347.096	0
348.083	3
349.084	6
350.075	89
351.078	22
352.097	31
353.097	267
354.101	48
355.111	8
356.105	1
362.096	2
363.105	5
364.108	3
365.097	36
366.094	46
367.099	9
368.090	2
371.108	0
378.130	1
380.107	2
381.116	20
382.121	3
383.110	3
384.106	0
396.137	2
399.129	0
414.149	3
