Mass spectrum: Apomorphine; LC-ESI-QTOF; MS2; CE:10 eV; [M+H]+
Name: Apomorphine
Name: (6aS)-6-Methyl-5,6,6a,7-tetrahydro-4H-dibenzo[de,g]quinoline-10,11-diol
Class: Natural Product
Formula: C17H17NO2
Exact mass: 267.12593
SMILES: CN1CCC2=C3[C@H]1CC4=C(C3=CC=C2)C(=C(C=C4)O)O
InChI: InChI=1S/C17H17NO2/c1-18-8-7-10-3-2-4-12-15(10)13(18)9-11-5-6-14(19)17(20)16(11)12/h2-6,13,19-20H,7-9H2,1H3/t13-/m1/s1
Instrument: micrOTOF-Q
Instrument type: LC-ESI-QTOF
Ms type: MS2
Ion mode: POSITIVE
Collision energy: 10 eV
Ionization: ESI
Precursor type: [M+H]+
m/z	relative intensity
191.083	6
207.079	1
219.078	183
220.082	24
221.084	0
225.088	2
236.076	0
237.088	848
238.092	104
239.096	5
267.118	2
267.934	0
268.130	999
269.134	144
270.136	7
