Mass spectrum: Erythromycin; LC-ESI-QTOF; MS2; CE:20 eV; [M+H]+
Name: Erythromycin
Name: (2R,3R,4S,5R,8R,9S,10S,11R,12R,14R)-11-[(2S,3R,4S,6R)-4-(dimethylamino)-3-hydroxy-6-methyloxan-2-yl]oxy-5-ethyl-3,4,12-trihydroxy-9-[(2R,4R,5S,6S)-5-hydroxy-4-methoxy-4,6-dimethyloxan-2-yl]oxy-2,4,8,10,12,14-hexamethyl-6-oxacyclotetradecane-1,7-dione
Class: Natural Product
Formula: C37H67NO13
Exact mass: 733.46124
SMILES: CC[C@@H]1[C@@]([C@@H]([C@H](C(=O)[C@@H](C[C@@]([C@@H]([C@H]([C@@H]([C@H](C(=O)O1)C)O[C@H]2C[C@@]([C@H]([C@@H](O2)C)O)(C)OC)C)O[C@H]3[C@@H]([C@H](C[C@H](O3)C)N(C)C)O)(C)O)C)C)O)(C)O
InChI: InChI=1S/C37H67NO13/c1-14-25-37(10,45)30(41)20(4)27(39)18(2)16-35(8,44)32(51-34-28(40)24(38(11)12)15-19(3)47-34)21(5)29(22(6)33(43)49-25)50-26-17-36(9,46-13)31(42)23(7)48-26/h18-26,28-32,34,40-42,44-45H,14-17H2,1-13H3/t18-,19-,20+,21+,22-,23+,24+,25-,26+,28-,29+,30-,31+,32-,34+,35-,36-,37-/m1/s1
Instrument: micrOTOF-Q
Instrument type: LC-ESI-QTOF
Ms type: MS2
Ion mode: POSITIVE
Collision energy: 20 eV
Ionization: ESI
Precursor type: [M+H]+
m/z	relative intensity
116.106	2
127.074	2
158.117	397
159.119	27
160.122	0
176.127	1
233.151	2
284.182	2
289.176	0
307.187	1
316.209	54
317.212	7
325.198	7
326.201	0
342.224	4
343.225	0
347.219	2
365.229	11
366.233	1
383.239	12
384.243	1
401.250	0
408.271	9
409.273	1
444.292	0
464.296	5
465.300	0
482.307	5
483.310	0
500.318	7
501.321	1
522.338	133
523.341	36
524.344	4
540.349	101
541.352	27
542.356	3
558.360	208
559.362	61
560.365	8
574.354	0
576.370	999
576.928	0
577.374	278
578.376	38
579.379	1
698.441	10
699.445	3
716.452	18
717.456	6
718.460	0
734.463	100
735.466	36
736.468	6
