Mass spectrum: Spermidine; LC-ESI-QTOF; MS2; CE:15 eV; [M+H]+
Name: Spermidine
Name: N-(3-aminopropyl)butane-1,4-diamine
Class: Natural Product; biogenic amine
Formula: C7H19N3
Exact mass: 145.15790
SMILES: C(CCNCCCN)CN
InChI: InChI=1S/C7H19N3/c8-4-1-2-6-10-7-3-5-9/h10H,1-9H2
Instrument: API QSTAR Pulsar i
Instrument type: LC-ESI-QTOF
Ms type: MS2
Ion mode: POSITIVE
Collision energy: 15 eV
Ionization: ESI
Precursor type: [M+H]+
m/z	relative intensity
58.067	33
72.082	904
75.093	161
84.084	10
112.115	216
118.070	81
129.141	424
146.063	152
146.168	999
