Mass spectrum: Indole-3-carboxylic acid; LC-ESI-QTOF; MS2; CE:20 eV; [M+H]+
Name: Indole-3-carboxylic acid
Name: 1H-indole-3-carboxylic acid
Class: Natural Product
Formula: C9H7NO2
Exact mass: 161.04768
SMILES: C1=CC=C2C(=C1)C(=CN2)C(=O)O
InChI: InChI=1S/C9H7NO2/c11-9(12)7-5-10-8-4-2-1-3-6(7)8/h1-5,10H,(H,11,12)
Instrument: micrOTOF-Q
Instrument type: LC-ESI-QTOF
Ms type: MS2
Ion mode: POSITIVE
Collision energy: 20 eV
Ionization: ESI
Precursor type: [M+H]+
m/z	relative intensity
115.040	2
116.048	821
116.154	0
116.959	0
117.055	638
117.139	0
118.063	525
118.117	0
118.463	0
119.068	46
122.979	0
132.022	0
132.042	4
133.051	0
134.056	8
135.066	0
136.063	0
141.870	0
143.067	0
144.042	999
144.110	0
144.160	0
144.181	0
145.045	110
145.085	0
146.017	0
162.052	124
163.057	14
174.012	0
174.061	0
175.019	0
192.042	0
217.580	0
439.379	0
