Mass spectrum: Amentoflavone; LC-ESI-QTOF; MS2; CE:20 eV; [M+H]+
Name: Amentoflavone
Name: 8-[5-(5,7-dihydroxy-4-oxochromen-2-yl)-2-hydroxyphenyl]-5,7-dihydroxy-2-(4-hydroxyphenyl)chromen-4-one
Class: Natural Product
Formula: C30H18O10
Exact mass: 538.09000
SMILES: C1=CC(=CC=C1C2=CC(=O)C3=C(O2)C(=C(C=C3O)O)C4=C(C=CC(=C4)C5=CC(=O)C6=C(C=C(C=C6O5)O)O)O)O
InChI: InChI=1S/C30H18O10/c31-15-4-1-13(2-5-15)24-12-23(38)29-21(36)10-20(35)27(30(29)40-24)17-7-14(3-6-18(17)33)25-11-22(37)28-19(34)8-16(32)9-26(28)39-25/h1-12,31-36H
Instrument: micrOTOF-Q
Instrument type: LC-ESI-QTOF
Ms type: MS2
Ion mode: POSITIVE
Collision energy: 20 eV
Ionization: ESI
Precursor type: [M+H]+
m/z	relative intensity
335.048	0
377.061	3
387.080	1
403.042	8
421.052	1
497.081	0
538.613	0
538.764	0
538.881	0
539.090	999
539.332	0
539.437	0
539.513	1
539.639	0
539.818	0
539.928	0
540.093	280
540.349	0
540.482	0
540.712	0
541.097	27
