Mass spectrum: Naringenin; LC-ESI-QTOF; MS2; CE:55 eV; [M+H]+
Name: Naringenin
Name: 5,7-dihydroxy-2-(4-hydroxyphenyl)chroman-4-one
Class: Natural Product; Flavanone
Formula: C15H12O5
Exact mass: 272.06847
SMILES: C1[C@H](OC2=CC(=CC(=C2C1=O)O)O)C3=CC=C(C=C3)O
InChI: InChI=1S/C15H12O5/c16-9-3-1-8(2-4-9)13-7-12(19)15-11(18)5-10(17)6-14(15)20-13/h1-6,13,16-18H,7H2/t13-/m0/s1
Instrument: API QSTAR Pulsar i
Instrument type: LC-ESI-QTOF
Ms type: MS2
Ion mode: POSITIVE
Collision energy: 55 eV
Ionization: ESI
Precursor type: [M+H]+
m/z	relative intensity
53.037	10
55.017	70
65.038	111
67.018	165
68.997	238
69.035	194
77.039	59
79.018	32
81.034	12
83.014	46
85.030	8
91.054	774
92.058	15
92.999	10
95.050	91
97.029	90
107.049	63
111.011	37
115.054	28
119.050	538
120.054	13
123.044	23
125.022	17
128.060	19
147.043	58
152.060	30
153.018	999
154.024	43
157.068	9
