Mass spectrum: Naringin; LC-ESI-QTOF; MS2; CE:10 eV; [M+H]+
Name: Naringin
Name: (2S)-7-[(2S,3R,4S,5S,6R)-4,5-dihydroxy-6-(hydroxymethyl)-3-[(2S,3R,4R,5R,6S)-3,4,5-trihydroxy-6-methyloxan-2-yl]oxyoxan-2-yl]oxy-5-hydroxy-2-(4-hydroxyphenyl)-2,3-dihydrochromen-4-one
Class: Natural Product
Formula: C27H32O14
Exact mass: 580.17921
SMILES: C[C@H]1[C@@H]([C@H]([C@H]([C@@H](O1)O[C@@H]2[C@H]([C@@H]([C@H](O[C@H]2OC3=CC(=C4C(=O)C[C@H](OC4=C3)C5=CC=C(C=C5)O)O)CO)O)O)O)O)O
InChI: InChI=1S/C27H32O14/c1-10-20(32)22(34)24(36)26(37-10)41-25-23(35)21(33)18(9-28)40-27(25)38-13-6-14(30)19-15(31)8-16(39-17(19)7-13)11-2-4-12(29)5-3-11/h2-7,10,16,18,20-30,32-36H,8-9H2,1H3/t10-,16-,18+,20-,21+,22+,23-,24+,25+,26-,27+/m0/s1
Instrument: micrOTOF-Q
Instrument type: LC-ESI-QTOF
Ms type: MS2
Ion mode: POSITIVE
Collision energy: 10 eV
Ionization: ESI
Precursor type: [M+H]+
m/z	relative intensity
129.053	2
147.062	0
153.016	2
255.083	1
263.049	0
272.870	0
273.071	999
274.074	102
275.077	2
281.060	4
285.072	0
297.066	2
309.112	4
315.080	30
316.084	3
339.079	8
340.085	0
369.091	0
381.089	1
383.105	13
384.110	1
399.102	2
401.116	22
402.119	2
417.111	23
418.115	3
419.127	59
420.130	9
425.110	0
435.121	76
436.125	11
443.125	1
459.121	1
461.136	1
527.147	0
545.155	1
563.166	0
581.177	6
582.181	0
