Mass spectrum: Daidzein; LC-ESI-QTOF; MS2; CE:55 eV; [M+H]+
Name: Daidzein
Name: 7-hydroxy-3-(4-hydroxyphenyl)chromen-4-one
Class: Natural Product; Isoflavone
Formula: C15H10O4
Exact mass: 254.05791
SMILES: C1=CC(=CC=C1C2=COC3=C(C2=O)C=CC(=C3)O)O
InChI: InChI=1S/C15H10O4/c16-10-3-1-9(2-4-10)13-8-19-14-7-11(17)5-6-12(14)15(13)18/h1-8,16-17H
Instrument: API QSTAR Pulsar i
Instrument type: LC-ESI-QTOF
Ms type: MS2
Ion mode: POSITIVE
Collision energy: 55 eV
Ionization: ESI
Precursor type: [M+H]+
m/z	relative intensity
53.039	28
55.018	75
65.038	378
68.997	54
77.038	36
78.046	30
81.034	183
89.039	34
91.055	693
92.058	19
93.034	12
103.055	25
105.035	74
106.042	59
107.049	14
109.028	34
115.054	130
116.060	15
118.042	38
119.050	78
121.029	57
127.053	90
128.060	444
129.067	80
131.048	102
134.036	31
137.024	337
139.055	14
141.071	95
142.077	13
143.086	19
144.057	25
145.064	54
147.044	35
150.047	14
151.055	114
152.062	999
153.070	333
154.076	24
155.059	96
156.060	19
157.067	45
163.059	21
165.075	24
168.062	21
169.070	110
170.077	30
171.084	30
179.067	27
180.064	11
181.072	384
182.078	47
184.059	66
197.066	128
198.073	40
199.082	40
209.070	12
237.061	13
