Mass spectrum: Naringenin chalcone; LC-ESI-QTOF; MS2; CE:55 eV; [M+H]+
Name: Naringenin chalcone
Name: 3-(4-hydroxyphenyl)-1-(2,4,6-trihydroxyphenyl)prop-2-en-1-one
Class: Natural Product; Chalcone
Formula: C15H12O5
Exact mass: 272.06847
SMILES: C1=CC(=CC=C1/C=C/C(=O)C2=C(C=C(C=C2O)O)O)O
InChI: InChI=1S/C15H12O5/c16-10-4-1-9(2-5-10)3-6-12(18)15-13(19)7-11(17)8-14(15)20/h1-8,16-17,19-20H/b6-3+
Instrument: API QSTAR Pulsar i
Instrument type: LC-ESI-QTOF
Ms type: MS2
Ion mode: POSITIVE
Collision energy: 55 eV
Ionization: ESI
Precursor type: [M+H]+
m/z	relative intensity
53.038	11
55.016	78
65.038	128
67.018	178
68.997	262
69.035	214
77.039	66
79.018	35
81.036	12
83.014	48
85.029	10
91.054	825
92.057	16
92.996	10
95.050	95
97.029	94
107.049	62
111.011	37
115.055	30
119.050	536
120.054	11
123.044	22
125.022	17
128.061	15
147.043	55
152.061	28
153.018	999
154.022	20
