Mass spectrum: Tryptophan; LC-ESI-QTOF; MS2; CE:10 eV; [M+H]+
Name: Tryptophan
Name: (2S)-2-amino-3-(1H-indol-3-yl)propanoic acid
Class: Natural Product
Formula: C11H12N2O2
Exact mass: 204.08988
SMILES: C1=CC=C2C(=C1)C(=CN2)C[C@@H](C(=O)O)N
InChI: InChI=1S/C11H12N2O2/c12-9(11(14)15)5-7-6-13-10-4-2-1-3-8(7)10/h1-4,6,9,13H,5,12H2,(H,14,15)/t9-/m0/s1
Instrument: micrOTOF-Q
Instrument type: LC-ESI-QTOF
Ms type: MS2
Ion mode: POSITIVE
Collision energy: 10 eV
Ionization: ESI
Precursor type: [M+H]+
m/z	relative intensity
115.052	0
117.058	2
118.064	21
119.067	0
130.063	5
132.079	22
133.082	1
142.063	5
143.071	5
144.079	72
145.082	5
146.058	402
147.062	30
159.090	63
160.083	7
170.058	29
171.061	2
188.069	999
189.072	98
190.075	2
205.095	8
206.097	0
