Mass spectrum: Luteolin; LC-ESI-QTOF; MS2; CE:40 eV; [M+H]+
Name: Luteolin
Name: 5,7,3',4'-tetrahydroxy-flavone
Class: Natural Product; Flavone
Formula: C15H10O6
Exact mass: 286.04774
SMILES: C1=CC(=C(C=C1C2=CC(=O)C3=C(C=C(C=C3O2)O)O)O)O
InChI: InChI=1S/C15H10O6/c16-8-4-11(19)15-12(20)6-13(21-14(15)5-8)7-1-2-9(17)10(18)3-7/h1-6,16-19H
Instrument: API QSTAR Pulsar i
Instrument type: LC-ESI-QTOF
Ms type: MS2
Ion mode: POSITIVE
Collision energy: 40 eV
Ionization: ESI
Precursor type: [M+H]+
m/z	relative intensity
67.018	24
68.996	18
89.038	15
107.048	11
111.007	22
117.032	55
125.020	9
135.043	239
137.023	72
139.054	11
153.018	772
154.022	16
157.065	13
161.026	89
171.042	21
179.039	34
185.065	20
203.040	14
213.059	31
231.067	10
241.054	112
245.049	15
269.048	47
287.055	999
288.060	50
