Mass spectrum: Rifampicin; LC-ESI-QTOF; MS2; CE:20 eV; [M+H]+
Name: Rifampicin
Name: 5,6,9,17,19,21-Hexahydroxy-23-methoxy- 2,4,12,16,18,20,22-heptamethyl-8-[N-(4-methyl- 1-piperazinyl)formimidoyl]-2,7-(epoxypentadeca- [1,11,13]trienimino)-naphtho[2,1-b]furan- 1,11(2H)-dion-21-acetat
Class: Natural Product
Formula: C43H58N4O12
Exact mass: 822.40512
SMILES: C[C@H]1/C=C/C=C(C(=O)NC2=C(C(=C3C(=C2O)C(=C(C4=C3C(=O)[C@](O4)(O/C=C/[C@@H]([C@H]([C@H]([C@@H]([C@@H]([C@@H]([C@H]1O)C)O)C)OC(=O)C)C)OC)C)C)O)O)/C=N/N5CCN(CC5)C)/C
InChI: InChI=1S/C43H58N4O12/c1-21-12-11-13-22(2)42(55)45-33-28(20-44-47-17-15-46(9)16-18-47)37(52)30-31(38(33)53)36(51)26(6)40-32(30)41(54)43(8,59-40)57-19-14-29(56-10)23(3)39(58-27(7)48)25(5)35(50)24(4)34(21)49/h11-14,19-21,23-25,29,34-35,39,49-53H,15-18H2,1-10H3,(H,45,55)/b12-11+,19-14+,22-13-,44-20+/t21-,23+,24+,25+,29-,34-,35+,39+,43-/m0/s1
Instrument: micrOTOF-Q
Instrument type: LC-ESI-QTOF
Ms type: MS2
Ion mode: POSITIVE
Collision energy: 20 eV
Ionization: ESI
Precursor type: [M+H]+
m/z	relative intensity
109.061	0
119.083	3
121.063	0
121.100	4
123.079	13
124.083	0
125.096	4
131.083	0
133.099	6
135.080	10
135.113	3
137.094	20
138.097	1
139.074	5
141.089	0
143.082	0
145.099	9
146.104	0
147.115	16
148.118	0
149.058	0
149.095	0
149.129	3
151.074	139
152.077	11
153.089	18
154.097	0
155.104	12
156.107	0
157.098	4
159.114	16
160.117	1
161.094	23
162.100	2
163.110	81
164.113	7
165.124	17
166.128	0
167.068	1
169.087	1
171.113	3
173.097	22
174.101	1
175.111	25
176.115	2
177.123	16
178.129	1
179.104	147
180.108	14
181.118	8
183.132	6
185.127	7
187.121	1
187.142	2
189.091	3
189.123	0
191.104	68
192.107	6
193.120	21
194.125	1
195.129	3
197.128	1
198.138	1
199.143	5
200.152	2
201.125	22
202.127	2
203.138	12
205.122	3
207.101	3
209.115	90
210.118	9
211.126	7
212.138	0
213.126	8
214.126	0
215.140	7
216.147	0
217.132	10
218.158	0
219.135	48
220.137	7
221.135	8
222.145	1
223.138	5
224.144	0
225.158	6
226.146	0
227.136	7
228.139	0
229.126	1
231.135	30
232.139	2
233.148	7
235.132	8
236.137	1
237.141	17
238.148	1
239.140	6
240.143	0
241.156	6
241.183	1
242.148	0
242.195	0
243.169	8
244.172	1
245.151	2
246.146	0
247.135	2
249.145	13
250.143	2
251.175	18
252.178	2
253.154	15
254.157	2
255.155	8
256.163	1
257.150	5
258.152	0
259.167	8
260.168	0
261.171	16
262.176	2
263.164	0
264.146	1
265.143	1
267.170	1
269.186	50
270.190	8
271.166	50
272.169	8
273.178	5
274.181	0
275.164	0
277.176	6
278.177	0
279.170	75
280.172	13
281.171	9
282.170	0
285.181	5
286.183	0
287.197	31
288.201	5
289.175	77
290.179	13
291.183	0
297.047	1
297.180	253
297.304	0
298.053	0
298.184	42
299.062	6
299.187	4
300.067	0
303.190	1
305.202	0
311.182	0
313.175	0
315.191	301
316.195	57
317.198	5
329.213	0
331.188	0
333.202	179
334.205	34
335.207	2
347.215	2
349.196	2
354.100	0
357.201	7
358.207	0
365.228	0
375.212	88
376.213	20
377.217	1
379.133	1
380.120	9
381.124	0
382.135	0
384.146	0
393.221	5
394.223	0
397.145	134
398.150	60
398.693	0
398.824	0
399.161	999
399.652	0
399.770	0
399.861	0
400.164	193
401.166	20
402.166	0
406.126	0
407.229	0
408.233	0
415.153	5
416.157	0
419.118	1
421.133	0
423.158	0
425.143	0
429.174	0
437.140	9
438.144	2
451.303	0
452.305	2
453.310	0
474.146	0
519.218	10
520.218	3
521.234	2
522.232	0
523.172	4
541.188	2
549.231	1
607.273	0
658.258	0
667.289	8
668.289	3
676.267	2
711.325	1
729.341	2
730.341	0
731.353	12
732.358	4
763.374	0
771.352	0
772.349	0
773.364	2
774.374	1
787.569	0
789.359	30
790.364	18
790.775	0
791.375	866
791.898	0
792.102	1
792.379	382
792.729	1
793.381	82
793.572	0
793.981	0
794.388	5
805.392	0
821.387	3
822.394	2
823.403	33
824.405	15
825.390	4
