Mass spectrum: Glutamine; LC-ESI-QTOF; MS2; CE:30 eV; [M+H]+
Name: Glutamine
Name: 2,5-diamino-5-oxopentanoic acid
Class: Natural Product; amino acid
Formula: C5H10N2O3
Exact mass: 146.06914
SMILES: C(CC(=O)N)C(C(=O)O)N
InChI: InChI=1S/C5H10N2O3/c6-3(5(9)10)1-2-4(7)8/h3H,1-2,6H2,(H2,7,8)(H,9,10)
Instrument: API QSTAR Pulsar i
Instrument type: LC-ESI-QTOF
Ms type: MS2
Ion mode: POSITIVE
Collision energy: 30 eV
Ionization: ESI
Precursor type: [M+H]+
m/z	relative intensity
41.040	24
56.051	154
74.024	4
84.045	999
85.029	19
102.058	13
130.051	18
