Mass spectrum: Epicatechin; LC-ESI-QTOF; MS2; CE:55 eV; [M+H]+
Name: Epicatechin
Name: (2R,3R)-2-(3,4-dihydroxyphenyl)chroman-3,5,7-triol
Class: Natural Product; Flavanol
Formula: C15H14O6
Exact mass: 290.07904
SMILES: C1[C@H]([C@H](OC2=CC(=CC(=C21)O)O)C3=CC(=C(C=C3)O)O)O
InChI: InChI=1S/C15H14O6/c16-8-4-11(18)9-6-13(20)15(21-14(9)5-8)7-1-2-10(17)12(19)3-7/h1-5,13,15-20H,6H2/t13-,15-/m1/s1
Instrument: API QSTAR Pulsar i
Instrument type: LC-ESI-QTOF
Ms type: MS2
Ion mode: POSITIVE
Collision energy: 55 eV
Ionization: ESI
Precursor type: [M+H]+
m/z	relative intensity
53.042	14
55.019	131
65.039	71
67.018	29
67.055	49
68.998	96
69.033	18
71.014	8
77.039	78
79.055	11
81.070	7
83.051	30
91.055	140
93.035	50
95.051	40
97.030	15
103.056	14
105.036	70
107.050	12
111.044	121
115.054	173
119.049	204
121.032	18
123.043	999
124.047	22
127.039	7
131.048	26
133.062	23
137.026	31
139.039	276
143.048	48
147.043	136
161.062	36
163.042	12
