Mass spectrum: Quercetin; LC-ESI-QQ; MS2; CE:25 eV; [M+H]+
Name: Quercetin
Name: 2-(3,4-dihydroxyphenyl)-3,5,7-trihydroxychromen-4-one
Class: Natural Product; Flavonoids
Formula: C15H10O7
Exact mass: 302.04265
SMILES: C1=CC(=C(C=C1C2=C(C(=O)C3=C(C=C(C=C3O2)O)O)O)O)O
InChI: InChI=1S/C15H10O7/c16-7-4-10(19)12-11(5-7)22-15(14(21)13(12)20)6-1-2-8(17)9(18)3-6/h1-5,16-19,21H
Instrument: TSQ QUANTUM AM
Instrument type: LC-ESI-QQ
Ms type: MS2
Ion mode: POSITIVE
Collision energy: 25 eV
Ionization: ESI
Precursor type: [M+H]+
m/z	relative intensity
69.000	2
81.000	0
93.000	4
95.000	0
99.000	0
101.000	1
107.000	1
109.000	8
111.000	23
117.000	1
121.000	20
123.000	2
127.000	3
131.000	3
133.000	0
135.000	2
137.000	76
145.000	4
149.000	16
151.000	0
153.000	97
155.000	5
157.000	1
159.000	1
161.000	10
163.000	18
165.000	113
166.000	14
167.000	1
173.000	13
177.000	5
179.000	3
183.000	17
185.000	0
187.000	14
189.000	1
191.000	9
193.000	2
194.000	0
195.000	10
201.000	65
205.000	6
207.000	0
211.000	4
213.000	9
215.000	5
217.000	1
218.000	0
219.000	15
221.000	3
223.000	0
228.000	3
229.000	213
231.000	0
232.000	0
233.000	0
235.000	0
239.000	4
241.000	0
243.000	0
245.000	0
247.000	29
257.000	125
258.000	0
274.000	30
275.000	7
285.000	63
303.000	999
