Mass spectrum: Emetine; LC-ESI-QTOF; MS2; CE:20 eV; [M+H]+
Name: Emetine
Name: (2S,3R,11bS)-2-[[(1R)-6,7-dimethoxy-1,2,3,4-tetrahydroisoquinolin-1-yl]methyl]-3-ethyl-9,10-dimethoxy-2,3,4,6,7,11b-hexahydro-1H-pyrido[2,1-a]isoquinoline
Class: Natural Product
Formula: C29H40N2O4
Exact mass: 480.29881
SMILES: CC[C@H]1CN2CCC3=CC(=C(C=C3[C@@H]2C[C@@H]1C[C@@H]4C5=CC(=C(C=C5CCN4)OC)OC)OC)OC
InChI: InChI=1S/C29H40N2O4/c1-6-18-17-31-10-8-20-14-27(33-3)29(35-5)16-23(20)25(31)12-21(18)11-24-22-15-28(34-4)26(32-2)13-19(22)7-9-30-24/h13-16,18,21,24-25,30H,6-12,17H2,1-5H3/t18-,21-,24+,25-/m0/s1
Instrument: micrOTOF-Q
Instrument type: LC-ESI-QTOF
Ms type: MS2
Ion mode: POSITIVE
Collision energy: 20 eV
Ionization: ESI
Precursor type: [M+H]+
m/z	relative intensity
165.089	0
177.088	0
179.105	0
191.100	0
192.100	2
194.116	2
206.115	1
220.132	2
244.132	0
246.146	58
247.149	5
257.149	2
272.161	6
273.165	0
274.176	43
275.181	4
286.179	0
288.192	2
300.191	3
464.275	49
465.279	10
479.287	4
480.292	2
480.767	0
480.950	0
481.301	999
481.596	0
481.835	0
481.979	0
482.304	222
483.308	6
