Mass spectrum: Resveratrol; LC-ESI-QQ; MS2; CE:20 eV; [M-H]-
Name: Resveratrol
Name: 5-[(E)-2-(4-hydroxyphenyl)ethenyl]benzene-1,3-diol
Class: Natural Product; Stilbenes
Formula: C14H12O3
Exact mass: 228.07864
SMILES: C1=CC(=CC=C1/C=C/C2=CC(=CC(=C2)O)O)O
InChI: InChI=1S/C14H12O3/c15-12-5-3-10(4-6-12)1-2-11-7-13(16)9-14(17)8-11/h1-9,15-17H/b2-1+
Instrument: TSQ QUANTUM AM
Instrument type: LC-ESI-QQ
Ms type: MS2
Ion mode: NEGATIVE
Collision energy: 20 eV
Ionization: ESI
Precursor type: [M-H]-
m/z	relative intensity
107.000	0
115.000	2
116.000	0
117.000	8
119.000	12
141.000	41
143.000	375
145.000	20
155.000	1
156.000	2
157.000	76
159.000	117
161.000	1
165.000	3
167.000	5
168.000	5
170.000	2
180.000	0
181.000	36
182.000	56
183.000	174
184.000	7
185.000	768
197.000	0
199.000	3
209.000	8
211.000	0
212.000	18
225.000	28
226.000	2
227.000	999
