Mass spectrum: Glycine-Betaine; LC-ESI-QQ; MS2; CE:20 eV; M+
Name: Glycine-Betaine
Name: 2-trimethylazaniumylacetate
Class: Natural Product
Formula: C5H11NO2
Exact mass: 117.07898
SMILES: C[N+](C)(C)CC(=O)[O-]
InChI: InChI=1S/C5H11NO2/c1-6(2,3)4-5(7)8/h4H2,1-3H3
Instrument: TSQ 7000
Instrument type: LC-ESI-QQ
Ms type: MS2
Ion mode: POSITIVE
Collision energy: 20 eV
Ionization: ESI
Precursor type: [M]+
m/z	relative intensity
58.000	137
59.000	518
103.000	0
117.000	1
118.000	999
