Mass spectrum: Resveratrol; LC-ESI-QTOF; MS2; CE:40 eV; [M-H]-
Name: Resveratrol
Name: 5-[(E)-2-(4-hydroxyphenyl)ethenyl]benzene-1,3-diol
Class: Natural Product; Stilbene
Formula: C14H12O3
Exact mass: 228.07864
SMILES: C1=CC(=CC=C1/C=C/C2=CC(=CC(=C2)O)O)O
InChI: InChI=1S/C14H12O3/c15-12-5-3-10(4-6-12)1-2-11-7-13(16)9-14(17)8-11/h1-9,15-17H/b2-1+
Instrument: API QSTAR Pulsar i
Instrument type: LC-ESI-QTOF
Ms type: MS2
Ion mode: NEGATIVE
Collision energy: 40 eV
Ionization: ESI
Precursor type: [M-H]-
m/z	relative intensity
93.031	16
115.053	142
117.032	133
119.048	79
141.070	28
143.049	999
145.029	13
156.058	27
157.066	42
159.081	41
167.050	16
180.056	27
181.064	61
182.071	57
183.075	35
184.051	15
185.057	79
