Mass spectrum: 4-methoxy-1H-indole-3-carbaldehyde; LC-ESI-QTOF; MS2; CE:25 eV; [M+H]+
Name: 4-methoxy-1H-indole-3-carbaldehyde
Class: Natural Product; Indole, Glucosinolate degradation product
Formula: C10H9NO2
Exact mass: 175.06333
SMILES: COC1=CC=CC2=C1C(=CN2)C=O
InChI: InChI=1S/C10H9NO2/c1-13-9-4-2-3-8-10(9)7(6-12)5-11-8/h2-6,11H,1H3
Instrument: API QSTAR Pulsar i
Instrument type: LC-ESI-QTOF
Ms type: MS2
Ion mode: POSITIVE
Collision energy: 25 eV
Ionization: ESI
Precursor m/z: 176.07115
Precursor type: [M+H]+
m/z	relative intensity
117.058	43
120.082	55
130.064	31
133.051	266
146.060	109
148.075	307
160.039	154
161.047	999
174.054	48
176.070	225
