Mass spectrum: Sanguinarine; LC-ESI-QQ; MS2; CE:35 eV; M+
Name: Sanguinarine
Name: [1,3]Benzodioxolo[5,6-c]-1,3-dioxolo[4,5-i]phenanthridinium, 13-methyl-
Class: Natural Product; Benzophenanthridine Alkaloids
Formula: [C20H14NO4]+
Exact mass: 332.09228
SMILES: C[N+]1=C2C(=C3C=CC4=C(C3=C1)OCO4)C=CC5=CC6=C(C=C52)OCO6
InChI: InChI=1S/C20H14NO4/c1-21-8-15-12(4-5-16-20(15)25-10-22-16)13-3-2-11-6-17-18(24-9-23-17)7-14(11)19(13)21/h2-8H,9-10H2,1H3/q+1
Instrument: TSQ 7000
Instrument type: LC-ESI-QQ
Ms type: MS2
Ion mode: POSITIVE
Collision energy: 35 eV
Ionization: ESI
Precursor type: [M]+
m/z	relative intensity
36.000	0
51.000	0
103.000	1
125.000	0
162.000	0
163.000	0
175.000	0
176.000	2
177.000	1
179.000	2
181.000	2
187.000	0
189.000	12
190.000	0
191.000	1
200.000	0
201.000	2
202.000	6
203.000	6
204.000	10
205.000	6
206.000	2
207.000	2
212.000	1
214.000	5
215.000	15
216.000	80
217.000	22
218.000	105
219.000	11
220.000	5
226.000	4
227.000	4
228.000	16
229.000	3
230.000	6
231.000	9
232.000	8
233.000	37
234.000	5
235.000	2
242.000	0
243.000	1
244.000	145
245.000	8
246.000	421
247.000	63
248.000	60
249.000	1
254.000	0
256.000	1
257.000	9
258.000	14
259.000	23
260.000	19
261.000	53
262.000	9
263.000	0
266.000	0
271.000	0
272.000	19
273.000	14
274.000	924
275.000	112
276.000	122
277.000	5
282.000	0
284.000	2
286.000	11
287.000	37
288.000	30
289.000	100
290.000	12
291.000	0
301.000	9
302.000	180
303.000	50
304.000	471
305.000	21
314.000	5
315.000	6
316.000	43
317.000	741
318.000	12
322.000	0
330.000	169
331.000	10
332.000	999
333.000	50
341.000	1
