Mass spectrum: Aminocaproic acid; LC-ESI-QTOF; MS2; CE:30 eV; [M+H]+
Name: Aminocaproic acid
Name: 6-aminohexanoic acid
Class: Natural Product; amino acid
Formula: C6H13NO2
Exact mass: 131.09463
SMILES: C(CCC(=O)O)CCN
InChI: InChI=1S/C6H13NO2/c7-5-3-1-2-4-6(8)9/h1-5,7H2,(H,8,9)
Instrument: API QSTAR Pulsar i
Instrument type: LC-ESI-QTOF
Ms type: MS2
Ion mode: POSITIVE
Collision energy: 30 eV
Ionization: ESI
Precursor type: [M+H]+
m/z	relative intensity
39.024	42
41.040	286
43.020	12
43.055	15
45.034	8
55.056	317
67.056	89
68.051	38
69.071	999
70.067	22
71.050	27
72.082	11
73.066	229
77.039	74
79.055	400
81.059	15
86.097	17
95.050	17
96.083	70
97.067	47
114.093	23
