Mass spectrum: Daidzein; LC-ESI-QTOF; MS2; CE:55 eV; [M-H]-
Name: Daidzein
Name: 7-hydroxy-3-(4-hydroxyphenyl)chromen-4-one
Class: Natural Product; Isoflavone
Formula: C15H10O4
Exact mass: 254.05791
SMILES: C1=CC(=CC=C1C2=COC3=C(C2=O)C=CC(=C3)O)O
InChI: InChI=1S/C15H10O4/c16-10-3-1-9(2-4-10)13-8-19-14-7-11(17)5-6-12(14)15(13)18/h1-8,16-17H
Instrument: API QSTAR Pulsar i
Instrument type: LC-ESI-QTOF
Ms type: MS2
Ion mode: NEGATIVE
Collision energy: 55 eV
Ionization: ESI
Precursor type: [M-H]-
m/z	relative intensity
63.052	19
65.032	76
67.047	11
77.066	14
89.064	47
91.043	532
92.051	12
93.059	10
95.072	11
104.055	156
105.063	9
107.042	14
116.052	28
117.060	87
127.077	8
129.058	14
130.064	12
132.043	999
133.051	297
135.030	81
141.060	30
143.073	16
152.085	14
153.044	13
154.063	40
155.071	22
167.068	160
168.073	16
169.081	46
180.069	214
182.049	38
183.055	12
195.052	667
196.057	52
197.064	15
208.058	268
223.045	567
224.053	49
251.037	23
