Mass spectrum: Naringin; LC-ESI-QTOF; MS2; CE:20 eV; [M+H]+
Name: Naringin
Name: (2S)-7-[(2S,3R,4S,5S,6R)-4,5-dihydroxy-6-(hydroxymethyl)-3-[(2S,3R,4R,5R,6S)-3,4,5-trihydroxy-6-methyloxan-2-yl]oxyoxan-2-yl]oxy-5-hydroxy-2-(4-hydroxyphenyl)-2,3-dihydrochromen-4-one
Class: Natural Product
Formula: C27H32O14
Exact mass: 580.17921
SMILES: C[C@H]1[C@@H]([C@H]([C@H]([C@@H](O1)O[C@@H]2[C@H]([C@@H]([C@H](O[C@H]2OC3=CC(=C4C(=O)C[C@H](OC4=C3)C5=CC=C(C=C5)O)O)CO)O)O)O)O)O
InChI: InChI=1S/C27H32O14/c1-10-20(32)22(34)24(36)26(37-10)41-25-23(35)21(33)18(9-28)40-27(25)38-13-6-14(30)19-15(31)8-16(39-17(19)7-13)11-2-4-12(29)5-3-11/h2-7,10,16,18,20-30,32-36H,8-9H2,1H3/t10-,16-,18+,20-,21+,22+,23-,24+,25+,26-,27+/m0/s1
Instrument: micrOTOF-Q
Instrument type: LC-ESI-QTOF
Ms type: MS2
Ion mode: POSITIVE
Collision energy: 20 eV
Ionization: ESI
Precursor type: [M+H]+
m/z	relative intensity
129.053	1
147.044	3
153.016	55
154.020	1
171.026	5
179.031	2
195.026	7
219.026	3
231.061	1
245.041	1
261.034	1
263.051	9
264.053	0
273.072	999
274.075	111
275.077	3
279.046	0
281.061	4
285.071	8
286.076	0
297.067	8
298.071	0
299.071	0
315.082	21
316.085	2
339.081	19
340.084	2
351.082	2
363.080	0
365.096	3
369.093	1
381.091	3
383.107	9
384.108	0
399.103	4
400.104	0
401.116	3
417.111	5
418.115	0
419.127	3
435.123	5
436.130	0
