Mass spectrum: Glutamic acid; LC-ESI-QTOF; MS2; CE:30 eV; [M+H]+
Name: Glutamic acid
Name: 2-aminopentanedioic acid
Class: Natural Product; amino acid
Formula: C5H9NO4
Exact mass: 147.05316
SMILES: C(CC(=O)O)C(C(=O)O)N
InChI: InChI=1S/C5H9NO4/c6-3(5(9)10)1-2-4(7)8/h3H,1-2,6H2,(H,7,8)(H,9,10)
Instrument: API QSTAR Pulsar i
Instrument type: LC-ESI-QTOF
Ms type: MS2
Ion mode: POSITIVE
Collision energy: 30 eV
Ionization: ESI
Precursor type: [M+H]+
m/z	relative intensity
41.038	36
56.049	269
84.044	999
85.028	31
102.056	32
