Mass spectrum: Oxycodone; LC-ESI-QQ; MS2; CE:20 eV; [M+H]+
Name: Oxycodone
Name: Morphinan-6-one, 4,5alpha-epoxy-14-hydroxy-3-methoxy-17-methyl-
Class: Natural Product; Morphinan Alkaloids
Formula: C18H21NO4
Exact mass: 315.14706
SMILES: CN1CCC23C4C(=O)CCC2(C1CC5=C3C(=C(C=C5)OC)O4)O
InChI: InChI=1S/C18H21NO4/c1-19-8-7-17-14-10-3-4-12(22-2)15(14)23-16(17)11(20)5-6-18(17,21)13(19)9-10/h3-4,13,16,21H,5-9H2,1-2H3
Instrument: TSQ 7000
Instrument type: LC-ESI-QQ
Ms type: MS2
Ion mode: POSITIVE
Collision energy: 20 eV
Ionization: ESI
Precursor type: [M+H]+
m/z	relative intensity
70.000	2
175.000	0
187.000	3
197.000	1
202.000	0
224.000	1
229.000	0
241.000	14
242.000	1
252.000	0
256.000	13
257.000	1
280.000	1
298.000	481
299.000	11
316.000	999
317.000	7
