Mass spectrum: Methoxyindoleacetic acid; LC-ESI-QTOF; MS2; CE:60 eV; [M+H]+
Name: Methoxyindoleacetic acid
Name: 2-(5-methoxy-1H-indol-3-yl)acetic acid
Class: Natural Product; Indole
Formula: C11H11NO3
Exact mass: 205.07389
SMILES: COC1=CC2=C(C=C1)NC=C2CC(=O)O
InChI: InChI=1S/C11H11NO3/c1-15-8-2-3-10-9(5-8)7(6-12-10)4-11(13)14/h2-3,5-6,12H,4H2,1H3,(H,13,14)
Instrument: API QSTAR Pulsar i
Instrument type: LC-ESI-QTOF
Ms type: MS2
Ion mode: POSITIVE
Collision energy: 60 eV
Ionization: ESI
Precursor type: [M+H]+
m/z	relative intensity
45.032	5
51.022	8
63.021	7
64.029	8
65.038	13
66.045	3
75.020	21
76.028	3
77.037	253
78.035	29
79.052	21
89.037	351
90.044	588
91.050	74
92.024	11
93.053	1
94.039	2
95.048	29
96.046	3
101.038	16
102.043	21
103.052	92
104.049	137
105.048	17
115.049	4
116.048	135
117.057	999
118.053	140
119.044	13
120.047	1
128.049	10
129.043	11
130.062	20
132.043	17
133.063	28
134.058	2
144.041	4
145.049	76
146.056	16
160.075	11
