Mass spectrum: S,R-Noscapine; LC-ESI-QTOF; MS2; CE:15 eV; [M+H]+
Name: S,R-Noscapine
Name: (3S)-6,7-dimethoxy-3-[(5R)-4-methoxy-6-methyl-7,8-dihydro-5H-[1,3]dioxolo[4,5-g]isoquinolin-5-yl]-3H-2-benzofuran-1-one
Class: Natural Product
Formula: C22H23NO7
Exact mass: 413.14745
SMILES: CN1CCC2=CC3=C(C(=C2[C@@H]1[C@@H]4C5=C(C(=C(C=C5)OC)OC)C(=O)O4)OC)OCO3
InChI: InChI=1S/C22H23NO7/c1-23-8-7-11-9-14-20(29-10-28-14)21(27-4)15(11)17(23)18-12-5-6-13(25-2)19(26-3)16(12)22(24)30-18/h5-6,9,17-18H,7-8,10H2,1-4H3/t17-,18+/m1/s1
Instrument: micrOTOF-Q
Instrument type: LC-ESI-QTOF
Ms type: MS2
Ion mode: POSITIVE
Collision energy: 15 eV
Ionization: ESI
Precursor type: [M+H]+
m/z	relative intensity
179.068	12
205.070	6
206.078	8
218.079	2
219.087	3
220.095	836
221.098	77
222.100	1
236.087	0
248.088	7
295.091	0
307.088	0
308.097	0
312.097	0
320.069	0
322.081	0
323.087	5
324.095	8
325.102	2
327.120	1
334.080	3
335.087	4
337.100	0
338.096	0
339.118	1
341.097	0
350.075	8
351.083	1
352.091	6
353.098	166
354.101	24
355.113	4
365.097	59
366.101	9
367.111	1
368.142	0
371.108	5
372.110	0
378.130	3
379.128	0
381.116	5
382.119	0
383.109	8
384.116	0
396.140	18
397.143	2
413.836	0
414.151	999
414.557	0
415.154	179
416.157	8
