Mass spectrum: Choline; LC-ESI-QQ; MS2; CE:25 eV; M+
Name: Choline
Name: 2-hydroxyethyl-trimethylazanium
Class: Natural Product; Ethanolamines
Formula: [C5H14NO]+
Exact mass: 104.10754
SMILES: C[N+](C)(C)CCO
InChI: InChI=1S/C5H14NO/c1-6(2,3)4-5-7/h7H,4-5H2,1-3H3/q+1
Instrument: TSQ 7000
Instrument type: LC-ESI-QQ
Ms type: MS2
Ion mode: POSITIVE
Collision energy: 25 eV
Ionization: ESI
Precursor type: [M]+
m/z	relative intensity
58.000	252
59.000	131
60.000	999
71.000	0
86.000	1
88.000	2
103.000	2
104.000	341
