Mass spectrum: Thebaine; LC-ESI-QQ; MS2; CE:35 eV; [M+H]+
Name: Thebaine
Name: Morphinan, 6,7,8,14-tetradehydro-4,5-epoxy-3,6-dimethoxy-17-methyl-, (5.alpha.)-
Class: Natural Product; Morphinan Alkaloids
Formula: C19H21NO3
Exact mass: 311.15214
SMILES: CN1CCC23C4C(=CC=C2C1CC5=C3C(=C(C=C5)OC)O4)OC
InChI: InChI=1S/C19H21NO3/c1-20-9-8-19-12-5-7-15(22-3)18(19)23-17-14(21-2)6-4-11(16(17)19)10-13(12)20/h4-7,13,18H,8-10H2,1-3H3
Instrument: TSQ 7000
Instrument type: LC-ESI-QQ
Ms type: MS2
Ion mode: POSITIVE
Collision energy: 35 eV
Ionization: ESI
Precursor type: [M+H]+
m/z	relative intensity
30.000	9
31.000	0
42.000	0
43.000	7
44.000	23
55.000	0
56.000	11
57.000	1
58.000	999
59.000	0
152.000	3
153.000	1
165.000	13
166.000	2
167.000	10
169.000	1
176.000	2
177.000	30
178.000	18
179.000	6
180.000	9
181.000	6
182.000	3
183.000	1
184.000	2
189.000	19
190.000	17
191.000	15
192.000	3
193.000	19
194.000	12
195.000	64
196.000	6
197.000	12
198.000	1
199.000	0
201.000	0
202.000	6
203.000	8
204.000	0
205.000	32
206.000	32
207.000	12
208.000	5
209.000	26
210.000	16
211.000	10
212.000	11
213.000	2
216.000	0
217.000	21
218.000	84
219.000	12
220.000	6
221.000	100
222.000	16
223.000	52
224.000	13
225.000	17
226.000	2
227.000	8
228.000	0
231.000	1
232.000	3
233.000	17
234.000	54
235.000	22
236.000	48
237.000	20
238.000	12
239.000	41
240.000	20
241.000	3
242.000	0
246.000	0
247.000	0
248.000	9
249.000	30
250.000	11
251.000	298
252.000	5
253.000	8
254.000	16
255.000	21
256.000	0
263.000	0
264.000	5
265.000	12
266.000	62
267.000	2
268.000	5
269.000	1
280.000	8
281.000	24
282.000	7
296.000	6
297.000	7
312.000	21
313.000	0
