Mass spectrum: Tetrahydropapaveroline; LC-ESI-QTOF; MS2; CE:20 eV; [M+H]+
Name: Tetrahydropapaveroline
Name: 1-[(3,4-dihydroxyphenyl)methyl]-1,2,3,4-tetrahydroisoquinoline-6,7-diol
Class: Natural Product
Formula: C16H17NO4
Exact mass: 287.11576
SMILES: C1CNC(C2=CC(=C(C=C21)O)O)CC3=CC(=C(C=C3)O)O
InChI: InChI=1S/C16H17NO4/c18-13-2-1-9(6-14(13)19)5-12-11-8-16(21)15(20)7-10(11)3-4-17-12/h1-2,6-8,12,17-21H,3-5H2
Instrument: micrOTOF-Q
Instrument type: LC-ESI-QTOF
Ms type: MS2
Ion mode: POSITIVE
Collision energy: 20 eV
Ionization: ESI
Precursor type: [M+H]+
m/z	relative intensity
115.053	28
116.058	1
119.048	2
123.043	556
124.046	32
131.048	6
133.064	15
135.042	2
137.059	53
138.062	0
143.048	376
143.129	0
144.052	30
145.060	0
146.059	0
147.044	5
148.061	1
149.056	26
150.056	0
152.069	3
155.081	0
160.054	1
161.059	625
161.140	1
162.063	72
163.068	1
163.952	0
164.069	999
164.175	0
165.072	62
166.075	2
169.101	0
178.078	2
179.084	19
180.086	0
183.078	1
189.065	1
190.067	0
195.078	0
197.060	1
197.095	3
201.084	1
206.070	0
207.078	72
208.082	7
209.059	0
210.065	19
211.071	3
213.088	3
214.060	1
215.100	0
217.063	5
218.074	1
223.075	2
224.077	1
225.088	124
226.091	13
227.072	0
234.068	1
235.072	97
236.076	9
238.058	8
239.066	0
241.084	1
242.054	33
243.068	7
243.095	4
251.065	2
252.077	0
253.083	180
254.086	24
256.070	48
257.075	3
259.095	3
269.076	6
270.085	2
271.093	314
272.097	38
273.103	0
288.120	57
288.236	0
289.125	4
