Mass spectrum: Safranin; LC-ESI-QTOF; MS2; CE:20 eV; M+
Name: Safranin
Name: 3,7-dimethyl-10-phenylphenazin-10-ium-2,8-diamine
Class: Natural Product
Formula: [C20H19N4]+
Exact mass: 315.16097
SMILES: CC1=CC2=C(C=C1N)[N+](=C3C=C(C(=CC3=N2)C)N)C4=CC=CC=C4
InChI: InChI=1S/C20H18N4/c1-12-8-17-19(10-15(12)21)24(14-6-4-3-5-7-14)20-11-16(22)13(2)9-18(20)23-17/h3-11H,1-2H3,(H3,21,22)/p+1
Instrument: micrOTOF-Q
Instrument type: LC-ESI-QTOF
Ms type: MS2
Ion mode: POSITIVE
Collision energy: 20 eV
Ionization: ESI
Precursor type: [M]+
m/z	relative intensity
238.118	2
298.128	1
299.125	2
300.132	1
314.925	0
315.156	999
316.159	164
317.162	1
