Mass spectrum: Safranin; LC-ESI-QTOF; MS2; CE:35 eV; M+
Name: Safranin
Name: 3,7-dimethyl-10-phenylphenazin-10-ium-2,8-diamine
Class: Natural Product
Formula: [C20H19N4]+
Exact mass: 315.16097
SMILES: CC1=CC2=C(C=C1N)[N+](=C3C=C(C(=CC3=N2)C)N)C4=CC=CC=C4
InChI: InChI=1S/C20H18N4/c1-12-8-17-19(10-15(12)21)24(14-6-4-3-5-7-14)20-11-16(22)13(2)9-18(20)23-17/h3-11H,1-2H3,(H3,21,22)/p+1
Instrument: micrOTOF-Q
Instrument type: LC-ESI-QTOF
Ms type: MS2
Ion mode: POSITIVE
Collision energy: 35 eV
Ionization: ESI
Precursor type: [M]+
m/z	relative intensity
167.070	1
168.075	0
180.076	0
181.078	0
182.079	1
183.087	0
193.073	0
194.077	0
195.083	2
196.086	7
197.093	35
198.097	8
199.102	0
204.070	0
205.074	1
206.075	3
207.083	4
208.089	9
209.094	4
210.100	76
211.106	53
212.111	17
213.111	3
219.087	0
220.084	13
221.091	17
222.096	28
223.095	90
224.100	13
231.087	0
232.093	1
233.098	2
234.101	2
235.100	1
236.105	3
237.110	178
238.117	413
239.121	47
240.126	0
242.083	0
243.087	1
244.090	0
245.097	1
246.103	2
247.110	3
248.114	6
249.119	1
255.089	4
256.095	14
257.099	12
258.099	11
259.107	7
260.114	16
261.120	4
262.129	2
266.078	1
267.084	1
268.084	2
269.100	6
270.109	12
271.114	14
272.114	33
273.122	102
274.127	40
275.134	6
279.087	8
280.095	39
281.100	21
282.099	34
283.105	43
284.109	51
285.111	24
286.127	35
287.135	48
288.144	52
289.146	7
296.113	13
297.121	97
298.127	124
299.125	462
300.130	181
301.135	18
312.121	1
313.139	64
314.147	72
314.917	0
315.155	999
315.510	0
315.617	0
316.158	183
317.160	1
329.111	0
