Mass spectrum: Protopine; LC-ESI-QQ; MS2; CE:35 eV; [M+H]+
Name: Protopine
Name: Bis[1,3]benzodioxolo[4,5-c:5',6'-g]azecin-13(5H)-one, 4,6,7,14-tetrahydro-5-methyl-
Class: Natural Product; Berberine Alkaloids
Formula: C20H19NO5
Exact mass: 353.12632
SMILES: CN1CCC2=CC3=C(C=C2C(=O)CC4=C(C1)C5=C(C=C4)OCO5)OCO3
InChI: InChI=1S/C20H19NO5/c1-21-5-4-13-7-18-19(25-10-24-18)8-14(13)16(22)6-12-2-3-17-20(15(12)9-21)26-11-23-17/h2-3,7-8H,4-6,9-11H2,1H3
Instrument: TSQ 7000
Instrument type: LC-ESI-QQ
Ms type: MS2
Ion mode: POSITIVE
Collision energy: 35 eV
Ionization: ESI
Precursor type: [M+H]+
m/z	relative intensity
32.000	1
33.000	0
42.000	0
44.000	58
45.000	13
55.000	0
58.000	8
59.000	1
77.000	0
79.000	1
91.000	25
92.000	0
93.000	0
103.000	0
107.000	33
108.000	0
109.000	3
118.000	0
119.000	49
120.000	1
121.000	0
130.000	0
131.000	7
132.000	4
133.000	0
135.000	57
136.000	0
137.000	0
143.000	0
144.000	0
146.000	3
147.000	19
148.000	2
149.000	329
159.000	29
160.000	10
161.000	8
162.000	0
163.000	23
164.000	0
165.000	121
166.000	0
167.000	5
173.000	7
174.000	3
175.000	46
176.000	19
177.000	45
178.000	26
179.000	7
181.000	0
186.000	0
187.000	11
188.000	860
189.000	999
190.000	34
191.000	1
192.000	5
193.000	1
195.000	44
200.000	0
201.000	3
202.000	1
204.000	10
205.000	5
206.000	155
207.000	35
209.000	13
210.000	0
211.000	0
217.000	28
218.000	0
219.000	7
220.000	0
221.000	0
222.000	0
223.000	27
224.000	1
225.000	16
231.000	0
233.000	4
235.000	78
236.000	0
237.000	51
238.000	2
239.000	2
245.000	10
246.000	0
247.000	167
248.000	1
249.000	10
250.000	0
251.000	4
253.000	12
259.000	0
261.000	3
262.000	0
263.000	37
264.000	1
265.000	65
266.000	5
267.000	37
268.000	1
269.000	0
274.000	0
275.000	226
276.000	4
277.000	10
278.000	32
279.000	4
280.000	3
281.000	3
283.000	5
289.000	2
290.000	0
291.000	5
292.000	8
293.000	45
294.000	1
295.000	24
296.000	0
304.000	3
305.000	24
306.000	27
307.000	4
308.000	1
311.000	7
320.000	54
321.000	34
322.000	0
323.000	20
324.000	2
325.000	0
332.000	3
334.000	36
335.000	0
336.000	46
337.000	0
353.000	0
354.000	240
355.000	3
