Mass spectrum: Phlorizin; LC-ESI-QTOF; MS2; CE:15 eV; [M+H]+
Name: Phlorizin
Name: 1-[2,4-dihydroxy-6-[(2S,3R,4S,5S,6R)-3,4,5-trihydroxy-6-(hydroxymethyl)oxan-2-yl]oxyphenyl]-3-(4-hydroxyphenyl)propan-1-one
Class: Natural Product; Glycosides
Formula: C21H24O10
Exact mass: 436.13695
SMILES: C1=CC(=CC=C1CCC(=O)C2=C(C=C(C=C2O[C@H]3[C@@H]([C@H]([C@@H]([C@H](O3)CO)O)O)O)O)O)O
InChI: InChI=1S/C21H24O10/c22-9-16-18(27)19(28)20(29)21(31-16)30-15-8-12(24)7-14(26)17(15)13(25)6-3-10-1-4-11(23)5-2-10/h1-2,4-5,7-8,16,18-24,26-29H,3,6,9H2/t16-,18-,19+,20-,21-/m1/s1
Instrument: micrOTOF-Q
Instrument type: LC-ESI-QTOF
Ms type: MS2
Ion mode: POSITIVE
Collision energy: 15 eV
Ionization: ESI
Precursor type: [M+H]+
m/z	relative intensity
107.047	10
127.039	8
131.044	0
139.036	0
145.048	1
149.059	21
150.060	0
151.038	5
169.048	130
170.051	7
173.059	10
174.062	0
181.045	1
187.081	0
191.066	7
192.068	0
193.050	3
205.043	0
207.060	1
211.058	14
212.062	1
213.046	0
215.066	20
216.070	1
217.046	1
233.078	6
234.080	0
235.056	31
236.062	3
239.067	2
245.038	1
247.057	1
257.082	14
258.082	1
259.058	7
265.066	0
269.091	0
274.857	0
275.088	999
275.366	0
275.516	0
276.090	126
277.070	15
278.066	1
281.075	3
287.087	47
288.094	5
293.095	0
295.077	6
296.082	1
299.087	51
300.091	7
301.091	0
311.088	3
313.102	0
315.081	0
317.097	123
318.100	20
319.113	0
323.086	2
324.087	0
335.088	0
339.082	0
341.097	97
342.099	17
347.097	0
353.098	72
354.099	12
355.118	2
365.097	23
366.099	4
371.109	6
372.133	0
383.107	34
384.112	6
390.220	0
401.117	14
402.128	1
409.227	0
419.132	8
420.131	0
436.233	20
437.160	0
437.237	5
