Mass spectrum: (-)-Epicatechin; LC-ESI-QTOF; MS2; CE:10 eV; [M+H]+
Name: (-)-Epicatechin
Name: (2R,3R)-2-(3,4-dihydroxyphenyl)-3,4-dihydro-2H-chromene-3,5,7-triol
Class: Natural Product
Formula: C15H14O6
Exact mass: 290.07904
SMILES: C1[C@H]([C@H](OC2=CC(=CC(=C21)O)O)C3=CC(=C(C=C3)O)O)O
InChI: InChI=1S/C15H14O6/c16-8-4-11(18)9-6-13(20)15(21-14(9)5-8)7-1-2-10(17)12(19)3-7/h1-5,13,15-20H,6H2/t13-,15-/m1/s1
Instrument: micrOTOF-Q
Instrument type: LC-ESI-QTOF
Ms type: MS2
Ion mode: POSITIVE
Collision energy: 10 eV
Ionization: ESI
Precursor type: [M+H]+
m/z	relative intensity
119.048	2
123.042	272
124.047	16
127.037	3
135.046	0
137.058	2
138.895	0
138.931	0
138.965	0
139.037	999
139.157	0
139.234	0
140.041	51
141.045	0
143.051	0
147.042	123
148.045	5
151.037	32
151.094	0
152.042	2
153.053	6
161.059	10
163.038	16
164.036	0
165.052	287
166.056	19
167.032	0
169.047	36
170.056	0
179.065	8
181.047	18
182.048	1
189.051	6
203.064	2
205.082	8
206.089	0
207.062	112
208.067	9
213.050	3
227.063	1
231.061	16
232.066	0
233.041	0
244.067	0
245.076	1
249.072	82
250.075	8
255.062	7
273.072	104
274.075	10
289.065	0
290.070	4
291.082	696
291.247	0
291.548	0
292.086	78
292.172	0
292.217	0
293.095	1
