Mass spectrum: Catechin; LC-ESI-QTOF; MS2; CE:55 eV; [M-H]-
Name: Catechin
Name: (2R,3S)-2-(3,4-dihydroxyphenyl)chroman-3,5,7-triol
Class: Natural Product; Flavanol
Formula: C15H14O6
Exact mass: 290.07904
SMILES: C1[C@@H]([C@H](OC2=CC(=CC(=C21)O)O)C3=CC(=C(C=C3)O)O)O
InChI: InChI=1S/C15H14O6/c16-8-4-11(18)9-6-13(20)15(21-14(9)5-8)7-1-2-10(17)12(19)3-7/h1-5,13,15-20H,6H2/t13-,15+/m0/s1
Instrument: API QSTAR Pulsar i
Instrument type: LC-ESI-QTOF
Ms type: MS2
Ion mode: NEGATIVE
Collision energy: 55 eV
Ionization: ESI
Precursor type: [M-H]-
m/z	relative intensity
55.019	68
57.033	317
65.039	16
67.018	22
69.033	142
77.037	11
80.023	29
81.031	91
83.010	147
91.018	16
93.031	149
95.047	142
96.019	14
97.027	193
105.036	57
107.051	25
108.023	298
109.030	999
115.056	10
117.034	88
119.049	14
120.020	19
121.028	150
122.036	289
123.043	660
125.022	77
129.034	7
130.038	19
131.048	35
132.019	10
133.028	39
134.036	24
135.044	114
137.024	163
138.032	13
139.040	57
143.049	14
145.030	97
146.038	48
147.044	27
148.017	21
149.026	47
150.031	67
151.039	39
157.066	17
158.038	45
159.045	188
160.053	29
161.058	33
162.032	22
163.036	18
164.011	35
172.049	12
173.057	86
174.031	16
175.057	44
183.041	14
185.057	10
187.035	44
188.043	15
201.048	26
