Mass spectrum: Resveratrol; LC-ESI-QTOF; MS2; CE:10 eV; [M+H]+
Name: Resveratrol
Name: 5-[(E)-2-(4-hydroxyphenyl)ethenyl]benzene-1,3-diol
Class: Natural Product
Formula: C14H12O3
Exact mass: 228.07864
SMILES: C1=CC(=CC=C1/C=C/C2=CC(=CC(=C2)O)O)O
InChI: InChI=1S/C14H12O3/c15-12-5-3-10(4-6-12)1-2-11-7-13(16)9-14(17)8-11/h1-9,15-17H/b2-1+
Instrument: micrOTOF-Q
Instrument type: LC-ESI-QTOF
Ms type: MS2
Ion mode: POSITIVE
Collision energy: 10 eV
Ionization: ESI
Precursor type: [M+H]+
m/z	relative intensity
107.047	0
119.048	12
120.057	1
121.027	2
123.044	1
135.043	184
136.049	14
141.069	3
145.065	8
153.072	1
155.084	2
157.065	2
159.079	7
160.052	0
161.094	1
163.940	1
165.067	14
166.071	1
169.064	1
171.042	2
173.093	0
181.060	0
181.953	0
182.071	0
183.079	39
184.081	2
185.062	0
187.072	7
193.063	13
194.071	1
199.073	0
201.090	9
210.066	3
211.073	76
212.079	7
213.055	1
214.060	2
227.068	6
228.075	26
228.890	0
228.919	0
229.083	999
229.344	0
229.417	0
229.988	0
230.087	111
231.088	5
