Mass spectrum: Tetrahydropapaveroline; LC-ESI-QTOF; MS2; CE:15 eV; [M+H]+
Name: Tetrahydropapaveroline
Name: 1-[(3,4-dihydroxyphenyl)methyl]-1,2,3,4-tetrahydroisoquinoline-6,7-diol
Class: Natural Product
Formula: C16H17NO4
Exact mass: 287.11576
SMILES: C1CNC(C2=CC(=C(C=C21)O)O)CC3=CC(=C(C=C3)O)O
InChI: InChI=1S/C16H17NO4/c18-13-2-1-9(6-14(13)19)5-12-11-8-16(21)15(20)7-10(11)3-4-17-12/h1-2,6-8,12,17-21H,3-5H2
Instrument: micrOTOF-Q
Instrument type: LC-ESI-QTOF
Ms type: MS2
Ion mode: POSITIVE
Collision energy: 15 eV
Ionization: ESI
Precursor type: [M+H]+
m/z	relative intensity
115.053	8
123.043	247
124.047	10
131.047	0
133.065	2
135.043	0
137.058	23
138.062	0
143.048	123
144.051	7
147.044	2
149.058	13
152.068	3
161.059	473
162.062	48
163.066	0
164.069	918
165.073	66
166.074	1
178.085	1
179.086	0
197.091	0
207.079	14
208.078	0
210.068	2
211.072	0
213.083	0
217.062	0
218.067	0
225.088	39
226.088	3
235.073	41
236.077	2
238.062	0
241.079	0
242.054	10
242.124	0
243.088	13
253.083	119
253.179	1
254.088	12
256.070	9
257.078	0
259.093	5
269.078	2
270.105	3
271.094	999
271.276	1
272.097	122
272.191	0
273.104	2
288.120	633
288.255	0
289.123	94
290.129	3
