Mass spectrum: Kaempferol; LC-ESI-QQ; MS2; CE:40 eV; [M-H]-
Name: Kaempferol
Name: 3,5,7-trihydroxy-2-(4-hydroxyphenyl)chromen-4-one
Class: Natural Product; Flavonoids
Formula: C15H10O6
Exact mass: 286.04774
SMILES: C1=CC(=CC=C1C2=C(C(=O)C3=C(C=C(C=C3O2)O)O)O)O
InChI: InChI=1S/C15H10O6/c16-8-3-1-7(2-4-8)15-14(20)13(19)12-10(18)5-9(17)6-11(12)21-15/h1-6,16-18,20H
Instrument: TSQ QUANTUM AM
Instrument type: LC-ESI-QQ
Ms type: MS2
Ion mode: NEGATIVE
Collision energy: 40 eV
Ionization: ESI
Precursor type: [M-H]-
m/z	relative intensity
41.000	1
63.000	19
65.000	117
67.000	25
69.000	7
75.000	1
77.000	7
79.000	31
80.000	18
81.000	0
83.000	25
89.000	3
91.000	46
92.000	69
93.000	605
94.000	7
95.000	54
96.000	0
97.000	2
102.000	0
103.000	5
104.000	6
105.000	51
106.000	0
107.000	95
108.000	272
109.000	127
113.000	2
115.000	52
116.000	16
117.000	999
119.000	134
120.000	48
121.000	76
122.000	6
123.000	77
124.000	9
126.000	9
127.000	5
128.000	10
129.000	89
130.000	140
131.000	193
132.000	98
133.000	133
134.000	5
135.000	115
136.000	33
137.000	76
139.000	28
140.000	1
141.000	106
142.000	25
143.000	598
144.000	20
145.000	545
146.000	17
147.000	33
149.000	1
151.000	32
153.000	33
154.000	184
155.000	249
156.000	347
157.000	306
158.000	325
159.000	472
160.000	22
161.000	322
162.000	3
163.000	97
164.000	18
165.000	14
167.000	287
168.000	53
169.000	89
170.000	21
171.000	230
172.000	43
173.000	131
174.000	66
175.000	12
179.000	12
180.000	0
182.000	313
183.000	487
184.000	145
185.000	272
186.000	42
187.000	295
189.000	11
190.000	14
191.000	58
192.000	3
194.000	0
195.000	88
196.000	32
197.000	55
198.000	47
199.000	37
200.000	21
201.000	96
203.000	6
204.000	0
205.000	12
210.000	230
211.000	472
212.000	10
213.000	157
214.000	66
215.000	12
216.000	7
217.000	4
219.000	1
222.000	5
223.000	32
224.000	2
225.000	6
226.000	21
227.000	622
228.000	5
229.000	44
237.000	3
238.000	66
239.000	326
240.000	50
241.000	4
242.000	8
243.000	24
253.000	1
255.000	286
256.000	15
257.000	5
265.000	2
266.000	15
267.000	144
268.000	40
269.000	12
283.000	0
284.000	7
285.000	69
