Mass spectrum: Berberine; LC-ESI-QTOF; MS2; CE:15 eV; [M]+
Name: Berberine
Name: 9,10-dimethoxy-5,6-dihydro[1,3]dioxolo[4,5-g]isoquino[3,2-a]isoquinolin-7-ium
Class: Natural Product
Formula: [C20H18NO4]+
Exact mass: 336.12358
SMILES: COC1=C(C2=C[N+]3=C(C=C2C=C1)C4=CC5=C(C=C4CC3)OCO5)OC
InChI: InChI=1S/C20H18NO4/c1-22-17-4-3-12-7-16-14-9-19-18(24-11-25-19)8-13(14)5-6-21(16)10-15(12)20(17)23-2/h3-4,7-10H,5-6,11H2,1-2H3/q+1
Instrument: micrOTOF-Q
Instrument type: LC-ESI-QTOF
Ms type: MS2
Ion mode: POSITIVE
Collision energy: 15 eV
Ionization: ESI
Precursor m/z: 336.12358
Precursor type: [M]+
m/z	relative intensity
275.092	0
278.077	2
291.086	0
292.093	39
293.096	4
304.093	7
305.099	1
306.072	15
307.076	1
318.070	0
320.088	43
321.096	167
322.099	24
335.848	0
336.119	999
337.123	160
338.124	3
