Mass spectrum: Tyrosine; LC-ESI-QTOF; MS2; CE:25 eV; [M+H]+
Name: Tyrosine
Name: 2-amino-3-(4-hydroxyphenyl)propanoic acid
Class: Natural Product; amino acid
Formula: C9H11NO3
Exact mass: 181.07389
SMILES: C1=CC(=CC=C1CC(C(=O)O)N)O
InChI: InChI=1S/C9H11NO3/c10-8(9(12)13)5-6-1-3-7(11)4-2-6/h1-4,8,11H,5,10H2,(H,12,13)
Instrument: API QSTAR Pulsar i
Instrument type: LC-ESI-QTOF
Ms type: MS2
Ion mode: POSITIVE
Collision energy: 25 eV
Ionization: ESI
Precursor type: [M+H]+
m/z	relative intensity
91.055	36
95.050	14
119.052	201
121.066	11
123.043	385
136.076	999
137.076	20
147.045	204
165.057	355
182.082	21
