Mass spectrum: Xanthotoxin; LC-ESI-QTOF; MS2; CE:15 eV; [M+H]+
Name: Xanthotoxin
Name: 9-methoxyfuro[3,2-g]chromen-7-one
Class: Natural Product
Formula: C12H8O4
Exact mass: 216.04226
SMILES: COC1=C2C(=CC3=C1OC=C3)C=CC(=O)O2
InChI: InChI=1S/C12H8O4/c1-14-12-10-8(4-5-15-10)6-7-2-3-9(13)16-11(7)12/h2-6H,1H3
Instrument: micrOTOF-Q
Instrument type: LC-ESI-QTOF
Ms type: MS2
Ion mode: POSITIVE
Collision energy: 15 eV
Ionization: ESI
Precursor type: [M+H]+
m/z	relative intensity
115.053	7
117.069	0
118.040	2
129.032	0
130.040	2
131.048	9
133.063	2
143.049	3
145.063	6
146.035	11
147.040	0
157.027	9
158.035	16
159.040	1
161.058	179
162.061	14
171.043	0
173.057	41
174.029	128
175.033	10
185.021	71
186.025	7
189.053	84
190.056	7
201.017	1
201.912	0
202.024	783
202.253	0
203.027	77
204.029	3
216.039	0
216.893	0
217.047	999
218.050	106
219.053	5
