Mass spectrum: Asparagine; LC-ESI-QTOF; MS2; CE:15 eV; [M+H]+
Name: Asparagine
Name: 2,4-diamino-4-oxobutanoic acid
Class: Natural Product; amino acid
Formula: C4H8N2O3
Exact mass: 132.05349
SMILES: C(C(C(=O)O)N)C(=O)N
InChI: InChI=1S/C4H8N2O3/c5-2(4(8)9)1-3(6)7/h2H,1,5H2,(H2,6,7)(H,8,9)
Instrument: API QSTAR Pulsar i
Instrument type: LC-ESI-QTOF
Ms type: MS2
Ion mode: POSITIVE
Collision energy: 15 eV
Ionization: ESI
Precursor type: [M+H]+
m/z	relative intensity
44.050	12
46.030	33
60.045	5
70.030	20
74.024	737
87.056	999
88.041	285
98.026	10
105.071	10
116.036	322
133.061	681
