Mass spectrum: Scopoletin; LC-ESI-QQ; MS2; CE:20 eV; [M+H]+
Name: Scopoletin
Name: 7-hydroxy-6-methoxychromen-2-one
Class: Natural Product; Coumarins
Formula: C10H8O4
Exact mass: 192.04226
SMILES: COC1=C(C=C2C(=C1)C=CC(=O)O2)O
InChI: InChI=1S/C10H8O4/c1-13-9-4-6-2-3-10(12)14-8(6)5-7(9)11/h2-5,11H,1H3
Instrument: TSQ 7000
Instrument type: LC-ESI-QQ
Ms type: MS2
Ion mode: POSITIVE
Collision energy: 20 eV
Ionization: ESI
Precursor type: [M+H]+
m/z	relative intensity
26.000	0
27.000	0
28.000	6
29.000	0
30.000	0
31.000	0
32.000	0
35.000	0
37.000	0
40.000	1
41.000	1
42.000	1
46.000	4
49.000	0
51.000	0
52.000	3
53.000	0
55.000	0
56.000	0
57.000	4
63.000	0
64.000	2
66.000	2
69.000	0
76.000	1
77.000	5
78.000	1
79.000	1
81.000	3
82.000	0
83.000	1
85.000	2
88.000	0
89.000	2
90.000	7
91.000	1
94.000	3
95.000	0
96.000	0
100.000	1
101.000	0
104.000	1
105.000	6
106.000	0
107.000	2
108.000	0
109.000	2
110.000	1
114.000	0
115.000	0
116.000	0
117.000	16
118.000	0
120.000	2
121.000	2
122.000	19
124.000	1
126.000	2
130.000	0
131.000	0
133.000	486
134.000	6
135.000	2
137.000	122
138.000	4
141.000	0
144.000	0
146.000	0
147.000	0
148.000	0
149.000	46
150.000	24
155.000	0
156.000	0
161.000	11
162.000	0
163.000	0
165.000	51
166.000	0
167.000	0
168.000	0
170.000	0
172.000	2
175.000	2
176.000	3
178.000	303
179.000	18
180.000	0
181.000	0
182.000	1
183.000	0
184.000	0
187.000	0
189.000	2
191.000	0
192.000	1
193.000	999
194.000	13
196.000	0
197.000	0
