Mass spectrum: Erythromycin; LC-ESI-QTOF; MS2; CE:15 eV; [M+H]+
Name: Erythromycin
Name: (2R,3R,4S,5R,8R,9S,10S,11R,12R,14R)-11-[(2S,3R,4S,6R)-4-(dimethylamino)-3-hydroxy-6-methyloxan-2-yl]oxy-5-ethyl-3,4,12-trihydroxy-9-[(2R,4R,5S,6S)-5-hydroxy-4-methoxy-4,6-dimethyloxan-2-yl]oxy-2,4,8,10,12,14-hexamethyl-6-oxacyclotetradecane-1,7-dione
Class: Natural Product
Formula: C37H67NO13
Exact mass: 733.46124
SMILES: CC[C@@H]1[C@@]([C@@H]([C@H](C(=O)[C@@H](C[C@@]([C@@H]([C@H]([C@@H]([C@H](C(=O)O1)C)O[C@H]2C[C@@]([C@H]([C@@H](O2)C)O)(C)OC)C)O[C@H]3[C@@H]([C@H](C[C@H](O3)C)N(C)C)O)(C)O)C)C)O)(C)O
InChI: InChI=1S/C37H67NO13/c1-14-25-37(10,45)30(41)20(4)27(39)18(2)16-35(8,44)32(51-34-28(40)24(38(11)12)15-19(3)47-34)21(5)29(22(6)33(43)49-25)50-26-17-36(9,46-13)31(42)23(7)48-26/h18-26,28-32,34,40-42,44-45H,14-17H2,1-13H3/t18-,19-,20+,21+,22-,23+,24+,25-,26+,28-,29+,30-,31+,32-,34+,35-,36-,37-/m1/s1
Instrument: micrOTOF-Q
Instrument type: LC-ESI-QTOF
Ms type: MS2
Ion mode: POSITIVE
Collision energy: 15 eV
Ionization: ESI
Precursor type: [M+H]+
m/z	relative intensity
116.105	0
127.074	0
158.117	134
159.119	8
176.126	0
284.183	0
316.209	57
317.211	8
325.198	1
342.224	0
347.218	0
365.229	4
383.239	7
384.242	0
401.250	0
408.270	1
464.298	0
482.307	2
500.317	3
501.318	0
522.337	100
523.341	27
524.344	3
540.348	77
541.351	20
542.356	2
558.359	222
559.362	61
560.365	8
574.353	0
575.921	0
576.370	999
576.920	0
577.373	271
578.375	36
579.379	0
698.441	20
699.445	7
700.448	0
702.436	1
716.451	57
717.455	21
718.456	3
734.462	572
735.465	209
736.468	37
737.471	1
