Mass spectrum: Berberine; LC-ESI-QQ; MS2; CE:30 eV; M+
Name: Berberine
Name: [Benzo[g]-1,3-benzodioxolo[5,6-a]quinolizinium, 5,6-dihydro-9,10-dimethoxy-
Class: Natural Product; Berberine Alkaloids
Formula: [C20H18NO4]+
Exact mass: 336.12358
SMILES: COC1=C(C2=C[N+]3=C(C=C2C=C1)C4=CC5=C(C=C4CC3)OCO5)OC
InChI: InChI=1S/C20H18NO4/c1-22-17-4-3-12-7-16-14-9-19-18(24-11-25-19)8-13(14)5-6-21(16)10-15(12)20(17)23-2/h3-4,7-10H,5-6,11H2,1-2H3/q+1
Instrument: TSQ 7000
Instrument type: LC-ESI-QQ
Ms type: MS2
Ion mode: POSITIVE
Collision energy: 30 eV
Ionization: ESI
Precursor type: [M]+
m/z	relative intensity
263.000	3
264.000	0
275.000	45
276.000	3
277.000	0
278.000	40
279.000	0
291.000	25
292.000	684
293.000	2
303.000	1
304.000	144
305.000	8
306.000	204
307.000	2
318.000	19
319.000	2
320.000	999
321.000	307
335.000	0
336.000	289
337.000	4
