Mass spectrum: Thebaine; LC-ESI-QQ; MS2; CE:30 eV; [M+H]+
Name: Thebaine
Name: Morphinan, 6,7,8,14-tetradehydro-4,5-epoxy-3,6-dimethoxy-17-methyl-, (5.alpha.)-
Class: Natural Product; Morphinan Alkaloids
Formula: C19H21NO3
Exact mass: 311.15214
SMILES: CN1CCC23C4C(=CC=C2C1CC5=C3C(=C(C=C5)OC)O4)OC
InChI: InChI=1S/C19H21NO3/c1-20-9-8-19-12-5-7-15(22-3)18(19)23-17-14(21-2)6-4-11(16(17)19)10-13(12)20/h4-7,13,18H,8-10H2,1-3H3
Instrument: TSQ 7000
Instrument type: LC-ESI-QQ
Ms type: MS2
Ion mode: POSITIVE
Collision energy: 30 eV
Ionization: ESI
Precursor type: [M+H]+
m/z	relative intensity
30.000	8
31.000	0
42.000	0
43.000	3
44.000	20
45.000	0
56.000	5
57.000	0
58.000	999
59.000	0
126.000	0
152.000	0
153.000	0
165.000	6
166.000	0
167.000	10
168.000	0
177.000	22
178.000	9
179.000	4
180.000	4
181.000	7
182.000	0
183.000	0
184.000	0
185.000	0
189.000	9
190.000	7
191.000	11
192.000	3
193.000	25
194.000	7
195.000	70
196.000	4
197.000	9
198.000	0
199.000	1
201.000	1
202.000	3
203.000	14
204.000	0
205.000	18
206.000	20
207.000	11
208.000	3
209.000	23
210.000	13
211.000	4
212.000	11
213.000	3
216.000	0
217.000	21
218.000	116
219.000	14
220.000	8
221.000	178
222.000	14
223.000	78
224.000	22
225.000	21
226.000	3
227.000	14
228.000	2
231.000	3
232.000	7
233.000	10
234.000	70
235.000	27
236.000	20
237.000	44
238.000	11
239.000	39
240.000	18
241.000	8
246.000	0
247.000	0
248.000	13
249.000	121
250.000	22
251.000	402
252.000	12
253.000	22
254.000	33
255.000	67
256.000	4
263.000	2
264.000	4
265.000	10
266.000	186
267.000	8
268.000	5
269.000	7
270.000	0
279.000	0
280.000	14
281.000	94
282.000	9
283.000	0
296.000	6
297.000	19
298.000	0
312.000	109
313.000	12
