Mass spectrum: Berberine; LC-ESI-QQ; MS2; CE:35 eV; M+
Name: Berberine
Name: [Benzo[g]-1,3-benzodioxolo[5,6-a]quinolizinium, 5,6-dihydro-9,10-dimethoxy-
Class: Natural Product; Berberine Alkaloids
Formula: [C20H18NO4]+
Exact mass: 336.12358
SMILES: COC1=C(C2=C[N+]3=C(C=C2C=C1)C4=CC5=C(C=C4CC3)OCO5)OC
InChI: InChI=1S/C20H18NO4/c1-22-17-4-3-12-7-16-14-9-19-18(24-11-25-19)8-13(14)5-6-21(16)10-15(12)20(17)23-2/h3-4,7-10H,5-6,11H2,1-2H3/q+1
Instrument: TSQ 7000
Instrument type: LC-ESI-QQ
Ms type: MS2
Ion mode: POSITIVE
Collision energy: 35 eV
Ionization: ESI
Precursor type: [M]+
m/z	relative intensity
220.000	0
234.000	0
248.000	0
249.000	0
262.000	2
263.000	11
264.000	2
274.000	0
275.000	70
276.000	5
277.000	4
278.000	153
279.000	0
289.000	0
290.000	2
291.000	38
292.000	738
304.000	209
305.000	4
306.000	212
307.000	4
318.000	75
319.000	6
320.000	999
321.000	95
322.000	0
336.000	64
337.000	2
