Mass spectrum: Spermidine; LC-ESI-QTOF; MS2; CE:35 eV; [M+H]+
Name: Spermidine
Name: N-(3-aminopropyl)butane-1,4-diamine
Class: Natural Product; biogenic amine
Formula: C7H19N3
Exact mass: 145.15790
SMILES: C(CCNCCCN)CN
InChI: InChI=1S/C7H19N3/c8-4-1-2-6-10-7-3-5-9/h10H,1-9H2
Instrument: API QSTAR Pulsar i
Instrument type: LC-ESI-QTOF
Ms type: MS2
Ion mode: POSITIVE
Collision energy: 35 eV
Ionization: ESI
Precursor type: [M+H]+
m/z	relative intensity
42.036	6
55.057	37
56.053	4
58.068	136
65.041	6
70.067	12
72.082	999
84.084	333
90.048	2
91.056	143
112.115	45
117.061	34
118.070	34
