Mass spectrum: Bicuculline; LC-ESI-QTOF; MS2; CE:30 eV; [M+H]+
Name: Bicuculline
Name: (6R)-6-[(5S)-6-methyl-7,8-dihydro-5H-[1,3]dioxolo[4,5-g]isoquinolin-5-yl]-6H-furo[3,4-g][1,3]benzodioxol-8-one
Class: Natural Product
Formula: C20H17NO6
Exact mass: 367.10559
SMILES: CN1CCC2=CC3=C(C=C2[C@H]1[C@H]4C5=C(C6=C(C=C5)OCO6)C(=O)O4)OCO3
InChI: InChI=1S/C20H17NO6/c1-21-5-4-10-6-14-15(25-8-24-14)7-12(10)17(21)18-11-2-3-13-19(26-9-23-13)16(11)20(22)27-18/h2-3,6-7,17-18H,4-5,8-9H2,1H3/t17-,18+/m0/s1
Instrument: micrOTOF-Q
Instrument type: LC-ESI-QTOF
Ms type: MS2
Ion mode: POSITIVE
Collision energy: 30 eV
Ionization: ESI
Precursor type: [M+H]+
m/z	relative intensity
135.042	0
147.042	0
149.022	0
149.057	4
159.052	3
160.064	1
161.059	1
163.052	2
165.067	11
166.073	0
167.084	1
174.056	0
175.043	2
176.068	28
177.016	14
177.068	4
179.033	0
181.061	0
187.042	0
188.068	15
189.075	21
190.083	75
191.049	8
191.081	3
192.051	0
193.060	13
194.064	0
195.076	0
203.045	0
205.061	15
206.067	2
207.076	1
209.058	5
210.061	0
211.070	1
217.059	0
219.041	49
220.046	6
221.056	81
222.061	12
223.072	34
224.075	2
225.049	1
231.040	1
233.056	63
234.060	9
235.071	15
236.069	1
237.051	14
238.057	1
239.066	5
245.059	1
247.035	30
248.044	5
249.051	869
249.367	0
250.054	121
251.065	54
252.069	8
253.051	2
259.037	0
261.051	158
261.152	0
262.056	26
263.065	18
264.071	2
265.047	8
266.052	11
267.061	38
268.064	3
273.055	0
274.072	0
275.065	2
276.057	0
276.817	0
277.045	999
277.448	0
278.049	170
279.061	292
280.064	45
281.054	7
282.048	2
283.055	0
289.045	86
290.048	17
291.061	27
292.067	12
293.072	6
294.055	0
295.056	21
296.062	3
297.067	1
303.061	16
304.067	2
305.047	1
306.061	4
307.055	409
308.059	71
309.070	9
310.077	0
311.049	3
317.044	2
318.058	0
319.055	33
320.055	22
321.058	5
325.065	4
332.087	0
334.066	2
335.074	11
336.076	1
337.066	0
338.083	0
350.098	0
353.082	0
368.106	2
