Mass spectrum: Codeine; LC-ESI-QQ; MS2; CE:40 eV; [M+H]+
Name: Codeine
Name: 7,8-Didehydro-4,5-epoxy-3-methoxy-17-methyl-(5,6)-morphinan-6-ol
Class: Natural Product; Morphinan Alkaloids
Formula: C18H21NO3
Exact mass: 299.15214
SMILES: CN1CC[C@]23[C@@H]4[C@H]1CC5=C2C(=C(C=C5)OC)O[C@H]3[C@H](C=C4)O
InChI: InChI=1S/C18H21NO3/c1-19-8-7-18-11-4-5-13(20)17(18)22-16-14(21-2)6-3-10(15(16)18)9-12(11)19/h3-6,11-13,17,20H,7-9H2,1-2H3/t11-,12+,13-,17-,18-/m0/s1
Instrument: TSQ 7000
Instrument type: LC-ESI-QQ
Ms type: MS2
Ion mode: POSITIVE
Collision energy: 40 eV
Ionization: ESI
Precursor type: [M+H]+
m/z	relative intensity
28.000	0
29.000	2
30.000	28
31.000	14
32.000	3
33.000	0
41.000	6
42.000	9
43.000	29
44.000	301
45.000	15
46.000	0
53.000	1
55.000	106
56.000	25
57.000	82
58.000	400
59.000	5
60.000	2
65.000	0
67.000	24
68.000	1
69.000	28
70.000	4
71.000	15
72.000	0
77.000	19
78.000	0
79.000	17
80.000	0
81.000	18
82.000	2
83.000	24
84.000	1
85.000	0
86.000	0
91.000	40
92.000	0
93.000	23
94.000	9
95.000	12
96.000	2
97.000	11
103.000	19
104.000	1
105.000	11
106.000	1
107.000	16
108.000	5
109.000	4
110.000	1
112.000	0
115.000	58
116.000	6
117.000	15
118.000	3
119.000	5
120.000	4
121.000	47
122.000	11
123.000	1
124.000	1
127.000	36
128.000	70
129.000	57
130.000	7
131.000	48
132.000	22
133.000	6
134.000	7
135.000	4
136.000	3
137.000	128
138.000	5
139.000	4
140.000	0
141.000	177
142.000	20
143.000	48
144.000	206
145.000	42
146.000	35
147.000	19
148.000	9
149.000	13
150.000	5
151.000	14
152.000	78
153.000	422
154.000	72
155.000	522
156.000	125
157.000	66
158.000	144
159.000	213
160.000	38
161.000	336
162.000	22
163.000	11
164.000	31
165.000	999
166.000	92
167.000	89
168.000	179
169.000	76
170.000	69
171.000	481
172.000	192
173.000	38
174.000	61
175.000	84
176.000	18
177.000	48
178.000	91
179.000	89
180.000	44
181.000	510
182.000	183
183.000	485
184.000	109
185.000	204
186.000	100
187.000	262
188.000	18
189.000	41
190.000	57
191.000	134
192.000	30
193.000	235
194.000	298
195.000	85
196.000	26
197.000	190
198.000	181
199.000	690
200.000	138
201.000	92
202.000	36
203.000	25
204.000	4
205.000	32
206.000	20
207.000	69
208.000	81
209.000	169
210.000	170
211.000	98
212.000	127
213.000	171
214.000	28
215.000	354
216.000	25
217.000	3
218.000	30
219.000	62
220.000	84
221.000	90
222.000	23
223.000	186
224.000	39
225.000	346
226.000	52
227.000	27
228.000	29
229.000	5
230.000	4
231.000	1
232.000	2
233.000	5
234.000	11
235.000	28
236.000	55
237.000	21
238.000	36
239.000	37
240.000	10
241.000	164
242.000	14
243.000	92
244.000	5
246.000	1
248.000	26
249.000	8
250.000	45
251.000	33
252.000	31
253.000	11
254.000	11
256.000	3
257.000	1
264.000	2
265.000	2
266.000	115
267.000	34
268.000	6
269.000	3
270.000	1
272.000	0
280.000	0
281.000	0
282.000	19
283.000	2
284.000	1
285.000	12
298.000	1
299.000	2
300.000	418
301.000	48
