Mass spectrum: Quercetin; LC-ESI-QQ; MS2; CE:25 eV; [M-H]-
Name: Quercetin
Name: 2-(3,4-dihydroxyphenyl)-3,5,7-trihydroxychromen-4-one
Class: Natural Product; Flavonoids
Formula: C15H10O7
Exact mass: 302.04265
SMILES: C1=CC(=C(C=C1C2=C(C(=O)C3=C(C=C(C=C3O2)O)O)O)O)O
InChI: InChI=1S/C15H10O7/c16-7-4-10(19)12-11(5-7)22-15(14(21)13(12)20)6-1-2-8(17)9(18)3-6/h1-5,16-19,21H
Instrument: TSQ 7000
Instrument type: LC-ESI-QQ
Ms type: MS2
Ion mode: NEGATIVE
Collision energy: 25 eV
Ionization: ESI
Precursor type: [M-H]-
m/z	relative intensity
63.000	1
65.000	17
83.000	20
93.000	10
95.000	0
107.000	160
108.000	2
109.000	13
111.000	1
117.000	0
119.000	0
121.000	165
123.000	1
124.000	0
125.000	6
133.000	0
135.000	0
136.000	3
141.000	0
143.000	1
145.000	0
147.000	6
149.000	31
151.000	999
152.000	4
153.000	0
156.000	0
157.000	2
159.000	8
161.000	5
162.000	1
163.000	39
164.000	20
165.000	1
167.000	3
169.000	0
171.000	1
173.000	3
174.000	0
175.000	14
176.000	0
177.000	3
179.000	362
181.000	0
183.000	5
185.000	8
187.000	14
189.000	13
190.000	0
191.000	6
192.000	8
193.000	27
195.000	5
199.000	1
201.000	15
202.000	0
203.000	5
205.000	11
211.000	16
212.000	1
213.000	4
214.000	1
215.000	5
217.000	3
219.000	0
225.000	4
227.000	8
228.000	3
229.000	42
230.000	6
231.000	14
233.000	1
239.000	2
240.000	4
241.000	0
243.000	9
244.000	0
245.000	54
255.000	19
256.000	6
257.000	11
270.000	0
271.000	4
272.000	2
273.000	79
283.000	1
284.000	6
298.000	0
299.000	25
301.000	152
