Mass spectrum: Methoxyindoleacetic acid; LC-ESI-QTOF; MS2; CE:40 eV; [M+H]+
Name: Methoxyindoleacetic acid
Name: 2-(5-methoxy-1H-indol-3-yl)acetic acid
Class: Natural Product; Indole
Formula: C11H11NO3
Exact mass: 205.07389
SMILES: COC1=CC2=C(C=C1)NC=C2CC(=O)O
InChI: InChI=1S/C11H11NO3/c1-15-8-2-3-10-9(5-8)7(6-12-10)4-11(13)14/h2-3,5-6,12H,4H2,1H3,(H,13,14)
Instrument: API QSTAR Pulsar i
Instrument type: LC-ESI-QTOF
Ms type: MS2
Ion mode: POSITIVE
Collision energy: 40 eV
Ionization: ESI
Precursor type: [M+H]+
m/z	relative intensity
45.033	7
77.035	35
79.053	22
89.037	6
90.045	47
91.053	15
95.047	4
101.039	5
103.055	195
104.050	39
105.069	26
115.053	8
116.048	8
117.057	900
118.050	103
119.044	3
128.047	32
129.049	8
130.062	116
131.063	11
132.043	60
133.061	395
134.063	15
144.043	4
145.049	999
146.055	61
147.065	10
160.075	869
161.078	30
