Mass spectrum: Valine; LC-ESI-QTOF; MS2; CE:55 eV; [M+H]+
Name: Valine
Name: 2-amino-3-methylbutanoic acid
Class: Natural Product; amino acid
Formula: C5H11NO2
Exact mass: 117.07898
SMILES: CC(C)C(C(=O)O)N
InChI: InChI=1S/C5H11NO2/c1-3(2)4(6)5(7)8/h3-4H,6H2,1-2H3,(H,7,8)
Instrument: API QSTAR Pulsar i
Instrument type: LC-ESI-QTOF
Ms type: MS2
Ion mode: POSITIVE
Collision energy: 55 eV
Ionization: ESI
Precursor type: [M+H]+
m/z	relative intensity
37.007	4
38.013	4
39.024	225
41.040	89
42.035	670
43.019	65
44.051	65
44.997	49
45.035	119
53.042	122
55.057	521
56.052	999
57.060	946
58.067	22
59.051	32
69.034	1
72.084	30
