Mass spectrum: NAD+; LC-ESI-QTOF; MS2; CE:20 eV; M+
Name: NAD+
Name: Nicotinamide dinucleotide
Name: 1-[(2R,3R,4S,5R)-5-[[[[(2R,3S,4R,5R)-5-(6-aminopurin-9-yl)-3,4-dihydroxyoxolan-2-yl]methoxy-hydroxyphosphoryl]oxy-hydroxyphosphoryl]oxymethyl]-3,4-dihydroxyoxolan-2-yl]pyridin-1-ium-3-carboxylic acid
Class: Natural Product
Formula: [C21H28N7O14P2]+
Exact mass: 664.11695
SMILES: C1=CC(=C[N+](=C1)[C@H]2[C@@H]([C@@H]([C@H](O2)COP(=O)(O)OP(=O)(O)OC[C@@H]3[C@H]([C@H]([C@@H](O3)N4C=NC5=C(N=CN=C54)N)O)O)O)O)C(=O)N
InChI: InChI=1S/C21H27N7O14P2/c22-17-12-19(25-7-24-17)28(8-26-12)21-16(32)14(30)11(41-21)6-39-44(36,37)42-43(34,35)38-5-10-13(29)15(31)20(40-10)27-3-1-2-9(4-27)18(23)33/h1-4,7-8,10-11,13-16,20-21,29-32H,5-6H2,(H5-,22,23,24,25,33,34,35,36,37)/p+1/t10-,11-,13-,14-,15-,16-,20-,21-/m1/s1
Instrument: micrOTOF-Q
Instrument type: LC-ESI-QTOF
Ms type: MS2
Ion mode: POSITIVE
Collision energy: 20 eV
Ionization: ESI
Precursor type: [M]+
m/z	relative intensity
123.052	0
136.060	111
137.062	4
193.048	0
232.080	265
233.082	28
234.086	0
250.091	19
251.095	0
312.045	2
328.099	0
330.056	6
331.059	0
335.059	1
348.066	53
349.067	4
370.988	4
388.999	0
410.021	6
415.030	0
426.070	0
427.655	0
428.031	999
428.212	0
428.486	0
428.785	0
429.034	118
430.035	16
444.086	40
445.086	6
446.100	0
524.052	401
525.056	66
526.056	10
529.050	0
542.062	198
543.064	33
544.067	6
664.109	30
664.303	0
665.107	7
666.108	0
