Mass spectrum: Citrulline; LC-ESI-QTOF; MS2; CE:10 eV; [M+H]+
Name: Citrulline
Name: 2-amino-5-(carbamoylamino)pentanoic acid
Class: Natural Product; amino acid
Formula: C6H13N3O3
Exact mass: 175.09569
SMILES: C(CC(C(=O)O)N)CNC(=O)N
InChI: InChI=1S/C6H13N3O3/c7-4(5(10)11)2-1-3-9-6(8)12/h4H,1-3,7H2,(H,10,11)(H3,8,9,12)
Instrument: API QSTAR Pulsar i
Instrument type: LC-ESI-QTOF
Ms type: MS2
Ion mode: POSITIVE
Collision energy: 10 eV
Ionization: ESI
Precursor type: [M+H]+
m/z	relative intensity
113.071	3
115.089	2
130.097	5
133.096	5
158.094	5
159.078	514
176.102	999
