Mass spectrum: Thebaine; LC-ESI-QQ; MS2; CE:20 eV; [M+H]+
Name: Thebaine
Name: Morphinan, 6,7,8,14-tetradehydro-4,5-epoxy-3,6-dimethoxy-17-methyl-, (5.alpha.)-
Class: Natural Product; Morphinan Alkaloids
Formula: C19H21NO3
Exact mass: 311.15214
SMILES: CN1CCC23C4C(=CC=C2C1CC5=C3C(=C(C=C5)OC)O4)OC
InChI: InChI=1S/C19H21NO3/c1-20-9-8-19-12-5-7-15(22-3)18(19)23-17-14(21-2)6-4-11(16(17)19)10-13(12)20/h4-7,13,18H,8-10H2,1-3H3
Instrument: TSQ 7000
Instrument type: LC-ESI-QQ
Ms type: MS2
Ion mode: POSITIVE
Collision energy: 20 eV
Ionization: ESI
Precursor type: [M+H]+
m/z	relative intensity
30.000	0
32.000	0
43.000	0
44.000	7
56.000	0
57.000	0
58.000	999
177.000	0
178.000	0
193.000	0
195.000	2
203.000	0
205.000	0
206.000	0
207.000	0
209.000	0
213.000	1
217.000	1
218.000	17
219.000	2
220.000	0
221.000	65
222.000	2
223.000	46
224.000	3
225.000	0
227.000	1
231.000	0
232.000	1
234.000	8
235.000	0
236.000	0
237.000	36
238.000	1
239.000	1
240.000	1
241.000	0
248.000	1
249.000	217
250.000	21
251.000	47
252.000	6
253.000	6
254.000	6
255.000	69
256.000	3
263.000	1
265.000	2
266.000	248
267.000	5
269.000	17
280.000	21
281.000	185
282.000	12
283.000	3
297.000	3
312.000	632
313.000	16
