Mass spectrum: Harman; LC-ESI-QTOF; MS2; CE:25 eV; [M+H]+
Name: Harman
Name: 1-methyl-9H-pyrido[3,4-b]indole
Class: Natural Product; Harmine
Formula: C12H10N2
Exact mass: 182.08440
SMILES: CC1=NC=CC2=C1NC3=CC=CC=C23
InChI: InChI=1S/C12H10N2/c1-8-12-10(6-7-13-8)9-4-2-3-5-11(9)14-12/h2-7,14H,1H3
Instrument: API QSTAR Pulsar i
Instrument type: LC-ESI-QTOF
Ms type: MS2
Ion mode: POSITIVE
Collision energy: 25 eV
Ionization: ESI
Precursor type: [M+H]+
m/z	relative intensity
115.059	90
142.071	61
156.088	9
167.072	12
168.077	55
182.095	38
183.092	999
183.198	10
184.103	22
