Mass spectrum: Reserpine; LC-ESI-QTOF; MS2; CE:20 eV; [M+H]+
Name: Reserpine
Name: methyl (1R,15S,17R,18R,19S,20S)-6,18-dimethoxy-17-[(3,4,5-trimethoxyphenyl)carbonyloxy]- 3,13-diazapentacyclo[11.8.0.02,10.04,9.015,20]henicosa-2(10),4(9),5,7-tetraene-19-carboxylate
Class: Natural Product
Formula: C33H40N2O9
Exact mass: 608.27338
SMILES: CO[C@H]1[C@@H](C[C@@H]2CN3CCC4=C([C@H]3C[C@@H]2[C@@H]1C(=O)OC)NC5=C4C=CC(=C5)OC)OC(=O)C6=CC(=C(C(=C6)OC)OC)OC
InChI: InChI=1S/C33H40N2O9/c1-38-19-7-8-20-21-9-10-35-16-18-13-27(44-32(36)17-11-25(39-2)30(41-4)26(12-17)40-3)31(42-5)28(33(37)43-6)22(18)15-24(35)29(21)34-23(20)14-19/h7-8,11-12,14,18,22,24,27-28,31,34H,9-10,13,15-16H2,1-6H3/t18-,22+,24-,27-,28+,31+/m1/s1
Instrument: micrOTOF-Q
Instrument type: LC-ESI-QTOF
Ms type: MS2
Ion mode: POSITIVE
Collision energy: 20 eV
Ionization: ESI
Precursor type: [M+H]+
m/z	relative intensity
174.089	8
192.100	0
195.062	51
196.066	2
215.115	1
224.125	2
236.125	9
333.153	0
336.154	1
348.156	0
354.163	0
365.180	16
366.179	2
368.174	4
369.176	0
380.182	1
397.207	239
398.210	41
399.209	0
413.203	1
434.176	1
436.191	8
437.192	0
448.190	27
449.194	3
577.246	10
578.249	2
591.262	0
592.251	0
608.793	0
609.273	999
609.853	0
609.946	0
610.276	255
611.279	12
