Mass spectrum: Indole-3-acetonitrile; LC-ESI-QTOF; MS2; CE:20 eV; [M+H]+
Name: Indole-3-acetonitrile
Name: 2-(1H-indol-3-yl)acetonitrile
Class: Natural Product
Formula: C10H8N2
Exact mass: 156.06875
SMILES: C1=CC=C2C(=C1)C(=CN2)CC#N
InChI: InChI=1S/C10H8N2/c11-6-5-8-7-12-10-4-2-1-3-9(8)10/h1-4,7,12H,5H2
Instrument: micrOTOF-Q
Instrument type: LC-ESI-QTOF
Ms type: MS2
Ion mode: POSITIVE
Collision energy: 20 eV
Ionization: ESI
Precursor type: [M+H]+
m/z	relative intensity
116.047	9
117.056	735
118.059	60
128.048	50
129.054	5
130.063	999
130.148	0
131.066	95
132.071	1
146.058	21
147.063	0
155.058	25
156.064	3
