Mass spectrum: Histidine; LC-ESI-QTOF; MS2; CE:35 eV; [M+H]+
Name: Histidine
Name: 2-amino-3-(3H-imidazol-4-yl)propanoic acid
Class: Natural Product; amino acid
Formula: C6H9N3O2
Exact mass: 155.06948
SMILES: C1=C(NC=N1)CC(C(=O)O)N
InChI: InChI=1S/C6H9N3O2/c7-5(6(10)11)1-4-2-8-3-9-4/h2-3,5H,1,7H2,(H,8,9)(H,10,11)
Instrument: API QSTAR Pulsar i
Instrument type: LC-ESI-QTOF
Ms type: MS2
Ion mode: POSITIVE
Collision energy: 35 eV
Ionization: ESI
Precursor type: [M+H]+
m/z	relative intensity
41.039	12
54.034	20
55.042	15
56.049	331
66.033	34
67.040	5
68.048	86
69.044	13
81.044	157
82.052	415
83.059	999
93.044	606
95.060	112
110.070	750
111.054	16
