Mass spectrum: Allocryptopine; LC-ESI-QQ; MS2; CE:35 eV; [M+H]+
Name: Allocryptopine
Name: [1,3]Benzodioxolo[5,6-e][2]benzazecin-14(6H)-one, 5,7,8,15-tetrahydro-3,4-dimethoxy-6-methyl-
Class: Natural Product; Berberine Alkaloids
Formula: C21H23NO5
Exact mass: 369.15762
SMILES: CN1CCC2=CC3=C(C=C2C(=O)CC4=C(C1)C(=C(C=C4)OC)OC)OCO3
InChI: InChI=1S/C21H23NO5/c1-22-7-6-14-9-19-20(27-12-26-19)10-15(14)17(23)8-13-4-5-18(24-2)21(25-3)16(13)11-22/h4-5,9-10H,6-8,11-12H2,1-3H3
Instrument: TSQ 7000
Instrument type: LC-ESI-QQ
Ms type: MS2
Ion mode: POSITIVE
Collision energy: 35 eV
Ionization: ESI
Precursor type: [M+H]+
m/z	relative intensity
32.000	4
33.000	1
42.000	0
43.000	0
44.000	72
45.000	14
58.000	8
59.000	1
75.000	1
91.000	6
92.000	0
93.000	0
95.000	0
103.000	0
105.000	2
107.000	0
108.000	0
119.000	9
120.000	0
121.000	7
122.000	3
123.000	4
130.000	0
131.000	5
132.000	2
133.000	1
135.000	28
136.000	12
137.000	2
138.000	13
139.000	0
143.000	0
146.000	3
147.000	1
148.000	5
149.000	78
150.000	18
151.000	80
153.000	53
154.000	1
159.000	17
160.000	8
161.000	17
162.000	7
163.000	26
164.000	3
165.000	130
166.000	74
167.000	0
173.000	5
174.000	4
175.000	10
176.000	21
177.000	25
178.000	23
179.000	22
180.000	0
181.000	157
182.000	0
185.000	0
186.000	0
187.000	13
188.000	999
189.000	529
190.000	78
191.000	52
192.000	23
193.000	11
194.000	0
195.000	1
200.000	2
201.000	1
202.000	4
203.000	1
204.000	30
205.000	2
206.000	288
207.000	3
209.000	4
210.000	13
211.000	3
212.000	0
217.000	0
219.000	1
220.000	1
221.000	1
222.000	6
223.000	2
224.000	0
225.000	0
226.000	12
227.000	2
231.000	0
232.000	8
233.000	2
234.000	2
235.000	2
236.000	1
237.000	2
238.000	18
239.000	3
241.000	26
242.000	1
245.000	0
246.000	5
247.000	6
248.000	8
249.000	5
250.000	28
251.000	21
252.000	22
253.000	21
254.000	15
255.000	2
259.000	8
260.000	27
261.000	8
262.000	6
263.000	25
264.000	4
265.000	10
266.000	15
267.000	3
268.000	10
269.000	12
270.000	1
274.000	8
275.000	46
276.000	20
277.000	7
278.000	59
279.000	22
280.000	22
281.000	31
282.000	3
283.000	23
284.000	0
288.000	3
289.000	11
290.000	446
291.000	59
292.000	30
293.000	9
294.000	39
295.000	4
296.000	6
297.000	3
299.000	1
303.000	0
304.000	6
305.000	6
306.000	101
307.000	15
308.000	31
309.000	31
310.000	1
311.000	22
312.000	0
316.000	1
317.000	1
318.000	12
319.000	3
320.000	56
321.000	38
322.000	54
323.000	8
324.000	5
327.000	9
328.000	0
334.000	11
335.000	7
336.000	157
337.000	50
338.000	1
339.000	16
340.000	4
341.000	0
348.000	0
350.000	25
351.000	1
352.000	84
353.000	3
355.000	0
370.000	200
371.000	3
