Mass spectrum: Cystine; LC-ESI-QTOF; MS2; CE:40 eV; [M+H]+
Name: Cystine
Name: 2-amino-3-(2-amino-3-hydroxy-3-oxopropyl)disulfanylpropanoic acid
Class: Natural Product; amino acid
Formula: C6H12N2O4S2
Exact mass: 240.02385
SMILES: C(C(C(=O)O)N)SSCC(C(=O)O)N
InChI: InChI=1S/C6H12N2O4S2/c7-3(5(9)10)1-13-14-2-4(8)6(11)12/h3-4H,1-2,7-8H2,(H,9,10)(H,11,12)
Instrument: API QSTAR Pulsar i
Instrument type: LC-ESI-QTOF
Ms type: MS2
Ion mode: POSITIVE
Collision energy: 40 eV
Ionization: ESI
Precursor type: [M+H]+
m/z	relative intensity
41.039	3
42.037	0
43.056	4
46.031	4
47.993	9
55.021	14
55.057	19
57.072	7
58.997	11
59.052	1
62.931	1
64.932	0
67.057	5
69.073	16
70.031	0
73.029	32
74.017	999
75.018	6
76.023	47
77.042	0
78.970	6
79.057	4
81.071	2
83.087	2
84.962	33
86.992	19
88.040	3
91.057	3
92.018	27
93.073	3
95.087	1
97.104	0
102.985	4
105.003	24
105.980	2
107.089	0
107.996	0
120.012	228
121.016	1
122.028	26
151.986	3
