Mass spectrum: Vitexin-2''-O-rhamnoside; LC-ESI-QTOF; MS2; CE:10 eV; [M+H]+
Name: Vitexin-2''-O-rhamnoside
Name: 8-[(2S,3R,4S,5S,6R)-4,5-dihydroxy-6-(hydroxymethyl)-3-[(2S,3R,4R,5R,6S)-3,4,5-trihydroxy-6-methyloxan-2-yl]oxyoxan-2-yl]-5,7-dihydroxy-2-(4-hydroxyphenyl)chromen-4-one
Class: Natural Product
Formula: C27H30O14
Exact mass: 578.16356
SMILES: C[C@H]1[C@@H]([C@H]([C@H]([C@@H](O1)O[C@@H]2[C@H]([C@@H]([C@H](O[C@H]2C3=C(C=C(C4=C3OC(=CC4=O)C5=CC=C(C=C5)O)O)O)CO)O)O)O)O)O
InChI: InChI=1S/C27H30O14/c1-9-19(33)21(35)23(37)27(38-9)41-26-22(36)20(34)16(8-28)40-25(26)18-13(31)6-12(30)17-14(32)7-15(39-24(17)18)10-2-4-11(29)5-3-10/h2-7,9,16,19-23,25-31,33-37H,8H2,1H3/t9-,16+,19-,20+,21+,22-,23+,25-,26+,27-/m0/s1
Instrument: micrOTOF-Q
Instrument type: LC-ESI-QTOF
Ms type: MS2
Ion mode: POSITIVE
Collision energy: 10 eV
Ionization: ESI
Precursor type: [M+H]+
m/z	relative intensity
271.056	4
283.059	0
295.057	0
313.065	7
337.066	0
367.076	0
397.087	2
415.097	8
416.098	0
433.108	134
434.111	18
435.114	0
459.124	0
578.526	0
578.645	0
578.769	0
578.862	0
579.164	999
579.739	0
579.860	0
579.941	0
580.167	215
581.169	12
