Mass spectrum: Reserpine; LC-ESI-QTOF; MS2; CE:25 eV; [M+H]+
Name: Reserpine
Name: methyl (1R,15S,17R,18R,19S,20S)-6,18-dimethoxy-17-[(3,4,5-trimethoxyphenyl)carbonyloxy]- 3,13-diazapentacyclo[11.8.0.02,10.04,9.015,20]henicosa-2(10),4(9),5,7-tetraene-19-carboxylate
Class: Natural Product
Formula: C33H40N2O9
Exact mass: 608.27338
SMILES: CO[C@H]1[C@@H](C[C@@H]2CN3CCC4=C([C@H]3C[C@@H]2[C@@H]1C(=O)OC)NC5=C4C=CC(=C5)OC)OC(=O)C6=CC(=C(C(=C6)OC)OC)OC
InChI: InChI=1S/C33H40N2O9/c1-38-19-7-8-20-21-9-10-35-16-18-13-27(44-32(36)17-11-25(39-2)30(41-4)26(12-17)40-3)31(42-5)28(33(37)43-6)22(18)15-24(35)29(21)34-23(20)14-19/h7-8,11-12,14,18,22,24,27-28,31,34H,9-10,13,15-16H2,1-6H3/t18-,22+,24-,27-,28+,31+/m1/s1
Instrument: micrOTOF-Q
Instrument type: LC-ESI-QTOF
Ms type: MS2
Ion mode: POSITIVE
Collision energy: 25 eV
Ionization: ESI
Precursor type: [M+H]+
m/z	relative intensity
148.075	2
152.045	1
159.066	0
160.074	1
162.091	0
167.069	0
174.089	104
175.092	6
176.103	2
178.084	0
186.090	0
188.106	4
189.102	0
190.086	0
192.100	12
193.095	0
195.063	338
196.066	24
200.104	4
201.101	0
204.100	5
210.099	0
212.103	1
214.105	2
215.115	16
216.115	1
222.109	4
224.125	41
225.127	2
226.120	0
227.115	1
228.123	1
229.130	3
236.125	95
237.128	9
238.126	2
242.134	2
250.118	0
252.133	0
253.129	1
254.135	4
255.115	0
262.120	0
264.133	0
265.131	0
267.143	0
274.126	0
275.128	0
276.135	1
281.161	1
286.133	0
287.136	1
288.135	3
289.141	0
290.118	1
294.142	0
304.128	2
305.158	0
306.155	0
308.137	0
309.130	0
316.130	1
320.154	0
322.139	8
323.145	0
324.147	0
333.155	8
334.144	4
336.156	27
337.161	5
338.175	0
339.163	0
340.147	0
341.181	0
347.170	0
348.154	17
349.156	2
354.164	7
355.166	0
365.181	124
366.180	24
367.179	0
368.174	36
369.178	7
379.199	1
380.181	14
381.182	2
382.179	0
386.192	2
395.185	0
396.878	0
397.207	999
397.751	0
397.859	0
398.210	174
399.211	6
402.149	2
404.166	2
413.202	10
414.204	2
416.165	0
422.176	1
434.175	16
435.176	2
436.191	56
437.196	7
448.192	222
449.194	39
450.201	1
559.237	1
560.227	0
577.247	35
578.248	8
580.248	1
591.262	2
592.252	2
593.242	0
608.466	0
608.760	0
609.274	931
609.736	0
609.854	0
609.968	0
610.277	242
611.281	10
