Mass spectrum: 3-Formylindole; LC-ESI-QTOF; MS2; CE:15 eV; [M+H]+
Name: 3-Formylindole
Name: 1H-indole-3-carbaldehyde
Class: Natural Product; Indole
Formula: C9H7NO
Exact mass: 145.05276
SMILES: C1=CC=C2C(=C1)C(=CN2)C=O
InChI: InChI=1S/C9H7NO/c11-6-7-5-10-9-4-2-1-3-8(7)9/h1-6,10H
Instrument: API QSTAR Pulsar i
Instrument type: LC-ESI-QTOF
Ms type: MS2
Ion mode: POSITIVE
Collision energy: 15 eV
Ionization: ESI
Precursor type: [M+H]+
m/z	relative intensity
118.069	555
146.062	999
