Mass spectrum: Caffeine; LC-ESI-QQ; MS2; CE:30 eV; [M+H]+
Name: Caffeine
Name: 1,3,7-trimethylpurine-2,6-dione
Class: Natural Product; Xanthines; Alkaloids
Formula: C8H10N4O2
Exact mass: 194.08038
SMILES: CN1C=NC2=C1C(=O)N(C(=O)N2C)C
InChI: InChI=1S/C8H10N4O2/c1-10-4-9-6-5(10)7(13)12(3)8(14)11(6)2/h4H,1-3H3
Instrument: TSQ 7000
Instrument type: LC-ESI-QQ
Ms type: MS2
Ion mode: POSITIVE
Collision energy: 30 eV
Ionization: ESI
Precursor type: [M+H]+
m/z	relative intensity
27.000	5
28.000	4
30.000	11
32.000	3
36.000	3
37.000	13
40.000	2
41.000	0
42.000	372
43.000	2
44.000	1
45.000	41
46.000	6
48.000	5
52.000	3
53.000	2
54.000	22
55.000	2
56.000	22
57.000	13
58.000	3
59.000	1
62.000	0
66.000	4
67.000	12
68.000	7
69.000	203
70.000	33
72.000	22
73.000	43
74.000	0
81.000	16
82.000	1
83.000	295
84.000	22
88.000	0
89.000	12
92.000	2
93.000	16
95.000	8
97.000	26
98.000	13
104.000	1
108.000	11
109.000	96
110.000	362
111.000	19
112.000	9
113.000	22
114.000	2
115.000	1
118.000	3
119.000	8
120.000	9
121.000	9
122.000	34
123.000	87
124.000	19
126.000	7
127.000	0
128.000	1
131.000	11
132.000	1
135.000	25
136.000	15
137.000	2
138.000	999
140.000	3
142.000	14
150.000	1
154.000	3
155.000	15
158.000	3
160.000	2
163.000	37
166.000	1
168.000	15
169.000	3
174.000	4
177.000	2
180.000	10
181.000	12
186.000	4
190.000	2
194.000	2
195.000	104
196.000	11
197.000	9
199.000	2
