Mass spectrum: Leucine; LC-ESI-QTOF; MS2; CE:15 eV; [M+H]+
Name: Leucine
Name: 2-amino-4-methylpentanoic acid
Class: Natural Product; amino acid
Formula: C6H13NO2
Exact mass: 131.09463
SMILES: CC(C)CC(C(=O)O)N
InChI: InChI=1S/C6H13NO2/c1-4(2)3-5(7)6(8)9/h4-5H,3,7H2,1-2H3,(H,8,9)
Instrument: API QSTAR Pulsar i
Instrument type: LC-ESI-QTOF
Ms type: MS2
Ion mode: POSITIVE
Collision energy: 15 eV
Ionization: ESI
Precursor type: [M+H]+
m/z	relative intensity
86.099	999
132.106	134
