Mass spectrum: Safranin; LC-ESI-QTOF; MS2; CE:40 eV; M+
Name: Safranin
Name: 3,7-dimethyl-10-phenylphenazin-10-ium-2,8-diamine
Class: Natural Product
Formula: [C20H19N4]+
Exact mass: 315.16097
SMILES: CC1=CC2=C(C=C1N)[N+](=C3C=C(C(=CC3=N2)C)N)C4=CC=CC=C4
InChI: InChI=1S/C20H18N4/c1-12-8-17-19(10-15(12)21)24(14-6-4-3-5-7-14)20-11-16(22)13(2)9-18(20)23-17/h3-11H,1-2H3,(H3,21,22)/p+1
Instrument: micrOTOF-Q
Instrument type: LC-ESI-QTOF
Ms type: MS2
Ion mode: POSITIVE
Collision energy: 40 eV
Ionization: ESI
Precursor type: [M]+
m/z	relative intensity
115.054	0
130.065	0
131.059	0
141.065	0
143.069	0
144.076	0
145.073	2
146.076	0
152.058	0
153.063	0
154.065	0
155.060	2
157.069	0
158.071	0
160.085	0
165.067	3
166.064	3
167.070	11
168.070	5
169.073	6
170.077	2
171.087	0
172.084	0
179.065	2
180.073	5
181.078	5
182.080	10
183.086	6
184.087	1
185.094	0
186.101	0
191.067	1
192.067	2
193.075	8
194.079	7
195.081	19
196.085	52
197.092	132
198.098	38
199.101	2
203.062	1
204.069	4
205.072	9
206.071	27
207.079	19
208.082	32
209.091	21
210.099	378
210.235	0
211.106	223
212.109	55
213.111	7
217.077	0
218.081	4
219.085	4
220.084	75
221.091	75
222.095	114
223.095	268
224.099	36
225.106	1
227.065	0
228.074	1
229.075	3
230.085	2
231.087	9
232.093	7
233.096	15
234.100	6
235.096	9
236.105	15
236.991	0
237.110	714
237.302	0
237.477	0
237.936	0
238.117	758
239.121	88
240.125	0
241.079	2
242.083	9
243.086	6
244.091	6
245.100	15
246.103	13
247.109	18
248.114	20
249.120	3
252.078	0
253.078	2
254.087	4
255.089	37
256.095	59
257.098	61
258.099	53
259.106	27
260.115	36
261.121	13
262.129	8
263.134	0
265.073	1
266.080	10
267.083	12
268.086	17
269.102	39
270.107	45
271.113	61
272.115	159
273.122	242
274.128	84
275.133	11
276.133	0
279.087	58
280.095	113
281.099	68
282.100	136
283.105	109
284.106	195
285.111	76
286.129	144
287.136	145
288.143	74
289.147	10
294.098	0
295.106	7
296.114	68
297.121	238
298.126	254
298.791	0
298.893	0
298.958	0
299.125	999
299.413	0
299.524	0
299.719	0
299.830	0
300.130	288
301.135	25
311.125	3
312.130	9
313.140	172
314.147	112
315.156	569
316.159	107
317.118	2
329.111	0
