Mass spectrum: Daidzein; LC-ESI-QTOF; MS2; CE:40 eV; [M+H]+
Name: Daidzein
Name: 7-hydroxy-3-(4-hydroxyphenyl)chromen-4-one
Class: Natural Product; Isoflavone
Formula: C15H10O4
Exact mass: 254.05791
SMILES: C1=CC(=CC=C1C2=COC3=C(C2=O)C=CC(=C3)O)O
InChI: InChI=1S/C15H10O4/c16-10-3-1-9(2-4-10)13-8-19-14-7-11(17)5-6-12(14)15(13)18/h1-8,16-17H
Instrument: API QSTAR Pulsar i
Instrument type: LC-ESI-QTOF
Ms type: MS2
Ion mode: POSITIVE
Collision energy: 40 eV
Ionization: ESI
Precursor type: [M+H]+
m/z	relative intensity
55.020	60
65.040	39
68.999	33
81.036	37
89.040	14
91.056	394
93.036	12
105.035	45
106.042	26
109.029	28
115.054	53
118.041	27
119.050	215
121.028	119
127.052	29
128.061	283
129.069	194
131.049	105
133.028	77
134.036	67
137.023	999
138.027	27
141.071	56
143.086	117
144.061	15
145.029	157
147.044	22
149.024	98
151.054	40
152.062	393
153.070	598
154.075	36
155.062	53
156.059	12
157.066	206
158.071	9
165.074	38
167.040	9
168.060	13
169.069	71
170.076	25
171.084	235
175.043	22
179.065	10
181.069	984
182.076	112
184.057	130
185.064	30
197.064	124
198.071	88
199.078	984
200.082	48
209.067	133
210.072	43
211.079	29
212.052	28
213.059	11
225.055	22
226.063	45
227.070	456
228.074	21
237.056	308
238.060	16
255.068	471
256.072	25
