Mass spectrum: Valine; LC-ESI-QTOF; MS2; CE:40 eV; [M+H]+
Name: Valine
Name: 2-amino-3-methylbutanoic acid
Class: Natural Product; amino acid
Formula: C5H11NO2
Exact mass: 117.07898
SMILES: CC(C)C(C(=O)O)N
InChI: InChI=1S/C5H11NO2/c1-3(2)4(6)5(7)8/h3-4H,6H2,1-2H3,(H,7,8)
Instrument: API QSTAR Pulsar i
Instrument type: LC-ESI-QTOF
Ms type: MS2
Ion mode: POSITIVE
Collision energy: 40 eV
Ionization: ESI
Precursor type: [M+H]+
m/z	relative intensity
39.023	40
41.040	12
42.035	59
43.019	5
44.051	21
45.036	44
53.042	56
55.057	999
56.052	137
57.060	503
58.067	1
59.052	55
72.082	182
