Mass spectrum: Naringenin chalcone; LC-ESI-QTOF; MS2; CE:55 eV; [M-H]-
Name: Naringenin chalcone
Name: 3-(4-hydroxyphenyl)-1-(2,4,6-trihydroxyphenyl)prop-2-en-1-one
Class: Natural Product; Chalcone
Formula: C15H12O5
Exact mass: 272.06847
SMILES: C1=CC(=CC=C1/C=C/C(=O)C2=C(C=C(C=C2O)O)O)O
InChI: InChI=1S/C15H12O5/c16-10-4-1-9(2-5-10)3-6-12(18)15-13(19)7-11(17)8-14(15)20/h1-8,16-17,19-20H/b6-3+
Instrument: API QSTAR Pulsar i
Instrument type: LC-ESI-QTOF
Ms type: MS2
Ion mode: NEGATIVE
Collision energy: 55 eV
Ionization: ESI
Precursor type: [M-H]-
m/z	relative intensity
63.025	305
65.004	546
68.999	25
83.012	105
93.035	105
107.016	87
108.024	12
115.057	14
117.035	135
119.050	999
143.051	30
145.031	31
151.003	12
187.035	12
