Mass spectrum: Aminocaproic acid; LC-ESI-QTOF; MS2; CE:20 eV; [M+H]+
Name: Aminocaproic acid
Name: 6-aminohexanoic acid
Class: Natural Product; amino acid
Formula: C6H13NO2
Exact mass: 131.09463
SMILES: C(CCC(=O)O)CCN
InChI: InChI=1S/C6H13NO2/c7-5-3-1-2-4-6(8)9/h1-5,7H2,(H,8,9)
Instrument: API QSTAR Pulsar i
Instrument type: LC-ESI-QTOF
Ms type: MS2
Ion mode: POSITIVE
Collision energy: 20 eV
Ionization: ESI
Precursor type: [M+H]+
m/z	relative intensity
41.040	20
55.056	24
67.056	23
68.051	34
69.071	999
71.050	15
72.081	9
73.066	163
79.055	371
84.082	12
86.098	20
96.083	261
97.067	305
114.093	881
115.077	74
132.103	142
