Mass spectrum: Spermidine; LC-ESI-QTOF; MS2; CE:25 eV; [M+H]+
Name: Spermidine
Name: N-(3-aminopropyl)butane-1,4-diamine
Class: Natural Product; biogenic amine
Formula: C7H19N3
Exact mass: 145.15790
SMILES: C(CCNCCCN)CN
InChI: InChI=1S/C7H19N3/c8-4-1-2-6-10-7-3-5-9/h10H,1-9H2
Instrument: API QSTAR Pulsar i
Instrument type: LC-ESI-QTOF
Ms type: MS2
Ion mode: POSITIVE
Collision energy: 25 eV
Ionization: ESI
Precursor type: [M+H]+
m/z	relative intensity
55.057	3
58.068	99
70.068	3
72.082	999
75.093	17
84.084	137
91.057	32
112.115	199
117.061	6
118.070	99
129.142	15
