Mass spectrum: Proline; LC-ESI-QTOF; MS2; CE:55 eV; [M+H]+
Name: Proline
Name: pyrrolidine-2-carboxylic acid
Class: Natural Product; amino acid
Formula: C5H9NO2
Exact mass: 115.06333
SMILES: C1CC(NC1)C(=O)O
InChI: InChI=1S/C5H9NO2/c7-5(8)4-2-1-3-6-4/h4,6H,1-3H2,(H,7,8)
Instrument: API QSTAR Pulsar i
Instrument type: LC-ESI-QTOF
Ms type: MS2
Ion mode: POSITIVE
Collision energy: 55 eV
Ionization: ESI
Precursor type: [M+H]+
m/z	relative intensity
39.023	36
41.040	112
42.036	124
43.054	165
44.051	28
53.042	42
68.053	98
70.067	999
