Mass spectrum: Indole-3-carbinol; LC-ESI-QTOF; MS2; CE:20 eV; [M+H-H2O]+
Name: Indole-3-carbinol
Name: H-indol-3-ylmethanol
Class: Natural Product; Indole
Formula: C9H9NO
Exact mass: 147.06841
SMILES: C1=CC=C2C(=C1)C(=CN2)CO
InChI: InChI=1S/C9H9NO/c11-6-7-5-10-9-4-2-1-3-8(7)9/h1-5,10-11H,6H2
Instrument: API QSTAR Pulsar i
Instrument type: LC-ESI-QTOF
Ms type: MS2
Ion mode: POSITIVE
Collision energy: 20 eV
Ionization: ESI
Precursor type: [M+H-H2O]+
m/z	relative intensity
77.037	2
103.056	25
128.048	4
130.063	999
