Mass spectrum: Kinetin; LC-ESI-QTOF; MS2; CE:15 eV; [M+H]+
Name: Kinetin
Name: N-(furan-2-ylmethyl)-7H-purin-6-amine
Class: Natural Product
Formula: C10H9N5O
Exact mass: 215.08071
SMILES: C1=COC(=C1)CNC2=NC=NC3=C2NC=N3
InChI: InChI=1S/C10H9N5O/c1-2-7(16-3-1)4-11-9-8-10(13-5-12-8)15-6-14-9/h1-3,5-6H,4H2,(H2,11,12,13,14,15)
Instrument: API QSTAR Pulsar i
Instrument type: LC-ESI-QTOF
Ms type: MS2
Ion mode: POSITIVE
Collision energy: 15 eV
Ionization: ESI
Precursor type: [M+H]+
m/z	relative intensity
81.034	113
148.061	93
188.095	7
216.089	999
