Mass spectrum: Bicuculline; LC-ESI-QTOF; MS2; CE:15 eV; [M+H]+
Name: Bicuculline
Name: (6R)-6-[(5S)-6-methyl-7,8-dihydro-5H-[1,3]dioxolo[4,5-g]isoquinolin-5-yl]-6H-furo[3,4-g][1,3]benzodioxol-8-one
Class: Natural Product
Formula: C20H17NO6
Exact mass: 367.10559
SMILES: CN1CCC2=CC3=C(C=C2[C@H]1[C@H]4C5=C(C6=C(C=C5)OCO6)C(=O)O4)OCO3
InChI: InChI=1S/C20H17NO6/c1-21-5-4-10-6-14-15(25-8-24-14)7-12(10)17(21)18-11-2-3-13-19(26-9-23-13)16(11)20(22)27-18/h2-3,6-7,17-18H,4-5,8-9H2,1H3/t17-,18+/m0/s1
Instrument: micrOTOF-Q
Instrument type: LC-ESI-QTOF
Ms type: MS2
Ion mode: POSITIVE
Collision energy: 15 eV
Ionization: ESI
Precursor type: [M+H]+
m/z	relative intensity
149.059	4
176.070	4
188.068	1
189.076	4
190.084	54
191.089	7
223.073	0
233.057	0
235.073	0
249.052	14
250.054	1
251.066	3
261.053	6
262.057	0
263.067	3
265.074	0
267.062	2
277.047	57
278.051	8
279.062	11
280.067	0
281.076	7
282.081	0
289.047	16
290.050	1
291.063	6
292.069	3
293.077	4
294.082	0
295.057	13
296.060	0
297.073	1
303.062	4
307.057	773
307.297	0
308.060	116
309.067	10
310.079	0
319.057	100
320.061	14
321.073	4
325.067	57
326.071	8
332.087	1
335.076	5
337.068	30
338.071	3
339.086	1
350.098	10
351.100	1
367.722	0
367.857	0
368.110	999
369.113	174
370.115	7
