Mass spectrum: Quercetin; LC-ESI-QQ; MS2; CE:20 eV; [M-H]-
Name: Quercetin
Name: 2-(3,4-dihydroxyphenyl)-3,5,7-trihydroxychromen-4-one
Class: Natural Product; Flavonoids
Formula: C15H10O7
Exact mass: 302.04265
SMILES: C1=CC(=C(C=C1C2=C(C(=O)C3=C(C=C(C=C3O2)O)O)O)O)O
InChI: InChI=1S/C15H10O7/c16-7-4-10(19)12-11(5-7)22-15(14(21)13(12)20)6-1-2-8(17)9(18)3-6/h1-5,16-19,21H
Instrument: TSQ 7000
Instrument type: LC-ESI-QQ
Ms type: MS2
Ion mode: NEGATIVE
Collision energy: 20 eV
Ionization: ESI
Precursor type: [M-H]-
m/z	relative intensity
65.000	0
83.000	3
93.000	2
107.000	49
109.000	6
121.000	90
124.000	0
125.000	6
141.000	0
149.000	11
151.000	835
152.000	0
159.000	2
161.000	1
162.000	0
163.000	13
164.000	7
171.000	1
173.000	0
175.000	4
177.000	0
179.000	617
183.000	0
184.000	0
185.000	1
186.000	0
187.000	8
189.000	6
190.000	0
191.000	0
192.000	6
193.000	34
195.000	0
201.000	9
203.000	3
205.000	5
211.000	11
213.000	3
214.000	2
215.000	3
217.000	1
219.000	1
225.000	6
227.000	5
228.000	2
229.000	45
230.000	0
231.000	5
233.000	0
239.000	9
240.000	1
241.000	2
243.000	2
245.000	23
255.000	4
256.000	2
257.000	30
271.000	2
272.000	0
273.000	115
283.000	0
284.000	3
299.000	14
300.000	1
301.000	999
