Mass spectrum: 3-Acetylindole; LC-ESI-QTOF; MS2; CE:20 eV; [M+H]+
Name: 3-Acetylindole
Name: 1-(1H-indol-3-yl)ethanone
Class: Natural Product; indole
Formula: C10H9NO
Exact mass: 159.06841
SMILES: CC(=O)C1=CNC2=CC=CC=C21
InChI: InChI=1S/C10H9NO/c1-7(12)9-6-11-10-5-3-2-4-8(9)10/h2-6,11H,1H3
Instrument: API QSTAR Pulsar i
Instrument type: LC-ESI-QTOF
Ms type: MS2
Ion mode: POSITIVE
Collision energy: 20 eV
Ionization: ESI
Precursor type: [M+H]+
m/z	relative intensity
43.019	594
118.067	964
160.078	999
