Mass spectrum: Choline; LC-ESI-QQ; MS2; CE:20 eV; M+
Name: Choline
Name: 2-hydroxyethyl-trimethylazanium
Class: Natural Product; Ethanolamines
Formula: [C5H14NO]+
Exact mass: 104.10754
SMILES: C[N+](C)(C)CCO
InChI: InChI=1S/C5H14NO/c1-6(2,3)4-5-7/h7H,4-5H2,1-3H3/q+1
Instrument: TSQ 7000
Instrument type: LC-ESI-QQ
Ms type: MS2
Ion mode: POSITIVE
Collision energy: 20 eV
Ionization: ESI
Precursor type: [M]+
m/z	relative intensity
58.000	51
59.000	40
60.000	566
86.000	0
88.000	0
103.000	2
104.000	999
