Mass spectrum: Naringin; LC-ESI-QTOF; MS2; CE:30 eV; [M+H]+
Name: Naringin
Name: (2S)-7-[(2S,3R,4S,5S,6R)-4,5-dihydroxy-6-(hydroxymethyl)-3-[(2S,3R,4R,5R,6S)-3,4,5-trihydroxy-6-methyloxan-2-yl]oxyoxan-2-yl]oxy-5-hydroxy-2-(4-hydroxyphenyl)-2,3-dihydrochromen-4-one
Class: Natural Product
Formula: C27H32O14
Exact mass: 580.17921
SMILES: C[C@H]1[C@@H]([C@H]([C@H]([C@@H](O1)O[C@@H]2[C@H]([C@@H]([C@H](O[C@H]2OC3=CC(=C4C(=O)C[C@H](OC4=C3)C5=CC=C(C=C5)O)O)CO)O)O)O)O)O
InChI: InChI=1S/C27H32O14/c1-10-20(32)22(34)24(36)26(37-10)41-25-23(35)21(33)18(9-28)40-27(25)38-13-6-14(30)19-15(31)8-16(39-17(19)7-13)11-2-4-12(29)5-3-11/h2-7,10,16,18,20-30,32-36H,8-9H2,1H3/t10-,16-,18+,20-,21+,22+,23-,24+,25+,26-,27+/m0/s1
Instrument: micrOTOF-Q
Instrument type: LC-ESI-QTOF
Ms type: MS2
Ion mode: POSITIVE
Collision energy: 30 eV
Ionization: ESI
Precursor type: [M+H]+
m/z	relative intensity
119.047	0
121.063	0
129.053	0
147.042	45
148.046	2
151.038	0
153.016	288
154.020	16
165.016	2
171.026	32
172.031	1
177.016	0
179.031	8
189.050	0
191.031	0
195.026	27
196.027	0
203.030	0
219.025	23
220.028	1
231.054	8
233.043	0
237.036	0
243.025	1
245.041	11
246.046	0
249.036	2
255.062	2
261.035	10
262.040	0
263.050	18
264.055	1
271.053	0
272.059	0
273.071	999
274.075	128
275.078	3
279.046	3
281.061	1
285.071	13
286.075	1
297.069	11
298.073	0
315.081	6
316.084	0
323.084	0
339.082	12
340.085	1
351.079	4
352.085	0
363.079	0
365.097	2
369.091	0
381.092	1
383.108	0
399.104	0
