Mass spectrum: Tryptophan; LC-ESI-QTOF; MS2; CE:15 eV; [M+H]+
Name: Tryptophan
Name: (2S)-2-amino-3-(1H-indol-3-yl)propanoic acid
Class: Natural Product
Formula: C11H12N2O2
Exact mass: 204.08988
SMILES: C1=CC=C2C(=C1)C(=CN2)C[C@@H](C(=O)O)N
InChI: InChI=1S/C11H12N2O2/c12-9(11(14)15)5-7-6-13-10-4-2-1-3-8(7)10/h1-4,6,9,13H,5,12H2,(H,14,15)/t9-/m0/s1
Instrument: micrOTOF-Q
Instrument type: LC-ESI-QTOF
Ms type: MS2
Ion mode: POSITIVE
Collision energy: 15 eV
Ionization: ESI
Precursor type: [M+H]+
m/z	relative intensity
115.053	12
116.055	1
117.058	23
118.064	162
119.067	13
127.052	3
128.054	1
130.063	30
131.068	3
132.079	86
133.083	6
140.047	0
142.064	48
143.071	65
144.079	252
145.080	23
146.058	999
147.062	83
148.064	1
159.090	117
160.081	19
161.079	0
170.058	114
171.061	11
188.069	344
189.071	38
190.074	0
