Mass spectrum: Aspartic acid; LC-ESI-QTOF; MS2; CE:10 eV; [M+H]+
Name: Aspartic acid
Name: 2-aminobutanedioic acid
Class: Natural Product; amino acid
Formula: C4H7NO4
Exact mass: 133.03751
SMILES: C(C(C(=O)O)N)C(=O)O
InChI: InChI=1S/C4H7NO4/c5-2(4(8)9)1-3(6)7/h2H,1,5H2,(H,6,7)(H,8,9)
Instrument: API QSTAR Pulsar i
Instrument type: LC-ESI-QTOF
Ms type: MS2
Ion mode: POSITIVE
Collision energy: 10 eV
Ionization: ESI
Precursor type: [M+H]+
m/z	relative intensity
74.023	52
88.037	238
116.034	318
134.043	999
