Mass spectrum: Cystine; LC-ESI-QTOF; MS2; CE:20 eV; [M+H]+
Name: Cystine
Name: 2-amino-3-(2-amino-3-hydroxy-3-oxopropyl)disulfanylpropanoic acid
Class: Natural Product; amino acid
Formula: C6H12N2O4S2
Exact mass: 240.02385
SMILES: C(C(C(=O)O)N)SSCC(C(=O)O)N
InChI: InChI=1S/C6H12N2O4S2/c7-3(5(9)10)1-13-14-2-4(8)6(11)12/h3-4H,1-2,7-8H2,(H,9,10)(H,11,12)
Instrument: API QSTAR Pulsar i
Instrument type: LC-ESI-QTOF
Ms type: MS2
Ion mode: POSITIVE
Collision energy: 20 eV
Ionization: ESI
Precursor type: [M+H]+
m/z	relative intensity
57.073	4
69.073	7
71.087	3
73.029	2
74.025	133
83.087	6
84.962	15
88.040	12
90.056	6
97.104	7
111.118	3
120.012	478
121.015	2
121.103	3
122.028	337
136.972	8
137.038	6
139.113	3
151.984	999
152.986	8
154.000	72
178.000	34
195.025	94
205.993	5
224.004	12
241.031	232
