Mass spectrum: Rifampicin; LC-ESI-QTOF; MS2; CE:10 eV; [M+H]+
Name: Rifampicin
Name: 5,6,9,17,19,21-Hexahydroxy-23-methoxy- 2,4,12,16,18,20,22-heptamethyl-8-[N-(4-methyl- 1-piperazinyl)formimidoyl]-2,7-(epoxypentadeca- [1,11,13]trienimino)-naphtho[2,1-b]furan- 1,11(2H)-dion-21-acetat
Class: Natural Product
Formula: C43H58N4O12
Exact mass: 822.40512
SMILES: C[C@H]1/C=C/C=C(C(=O)NC2=C(C(=C3C(=C2O)C(=C(C4=C3C(=O)[C@](O4)(O/C=C/[C@@H]([C@H]([C@H]([C@@H]([C@@H]([C@@H]([C@H]1O)C)O)C)OC(=O)C)C)OC)C)C)O)O)/C=N/N5CCN(CC5)C)/C
InChI: InChI=1S/C43H58N4O12/c1-21-12-11-13-22(2)42(55)45-33-28(20-44-47-17-15-46(9)16-18-47)37(52)30-31(38(33)53)36(51)26(6)40-32(30)41(54)43(8,59-40)57-19-14-29(56-10)23(3)39(58-27(7)48)25(5)35(50)24(4)34(21)49/h11-14,19-21,23-25,29,34-35,39,49-53H,15-18H2,1-10H3,(H,45,55)/b12-11+,19-14+,22-13-,44-20+/t21-,23+,24+,25+,29-,34-,35+,39+,43-/m0/s1
Instrument: micrOTOF-Q
Instrument type: LC-ESI-QTOF
Ms type: MS2
Ion mode: POSITIVE
Collision energy: 10 eV
Ionization: ESI
Precursor type: [M+H]+
m/z	relative intensity
151.075	0
163.111	0
179.104	2
191.106	0
209.114	0
269.187	0
271.164	0
279.172	0
289.175	1
297.181	6
315.192	6
333.200	5
334.208	0
375.215	1
397.146	11
398.152	2
399.162	26
400.163	3
437.142	1
519.217	1
789.361	19
790.366	8
791.377	440
791.787	1
792.380	177
792.659	0
792.945	0
793.384	34
793.824	0
794.380	1
818.888	0
819.069	0
821.387	58
821.545	0
822.393	35
822.567	0
822.752	1
823.012	0
823.404	999
823.592	5
824.035	0
824.173	1
824.407	455
824.825	0
825.180	0
825.408	98
825.595	1
825.803	0
826.067	0
826.410	8
