Mass spectrum: Tyramine; LC-ESI-QTOF; MS2; CE:30 eV; [M+H]+
Name: Tyramine
Name: 4-(2-aminoethyl)phenol
Class: Natural Product; biogenic amine
Formula: C8H11NO
Exact mass: 137.08406
SMILES: C1=CC(=CC=C1CCN)O
InChI: InChI=1S/C8H11NO/c9-6-5-7-1-3-8(10)4-2-7/h1-4,10H,5-6,9H2
Instrument: API QSTAR Pulsar i
Instrument type: LC-ESI-QTOF
Ms type: MS2
Ion mode: POSITIVE
Collision energy: 30 eV
Ionization: ESI
Precursor type: [M+H]+
m/z	relative intensity
51.025	14
53.040	8
55.019	19
65.039	20
77.038	999
78.045	8
79.053	5
91.054	664
93.070	423
94.041	9
95.050	227
102.047	20
103.054	858
105.046	62
119.049	4
121.065	593
