Mass spectrum: Naringin; LC-ESI-QTOF; MS2; CE:15 eV; [M+H]+
Name: Naringin
Name: (2S)-7-[(2S,3R,4S,5S,6R)-4,5-dihydroxy-6-(hydroxymethyl)-3-[(2S,3R,4R,5R,6S)-3,4,5-trihydroxy-6-methyloxan-2-yl]oxyoxan-2-yl]oxy-5-hydroxy-2-(4-hydroxyphenyl)-2,3-dihydrochromen-4-one
Class: Natural Product
Formula: C27H32O14
Exact mass: 580.17921
SMILES: C[C@H]1[C@@H]([C@H]([C@H]([C@@H](O1)O[C@@H]2[C@H]([C@@H]([C@H](O[C@H]2OC3=CC(=C4C(=O)C[C@H](OC4=C3)C5=CC=C(C=C5)O)O)CO)O)O)O)O)O
InChI: InChI=1S/C27H32O14/c1-10-20(32)22(34)24(36)26(37-10)41-25-23(35)21(33)18(9-28)40-27(25)38-13-6-14(30)19-15(31)8-16(39-17(19)7-13)11-2-4-12(29)5-3-11/h2-7,10,16,18,20-30,32-36H,8-9H2,1H3/t10-,16-,18+,20-,21+,22+,23-,24+,25+,26-,27+/m0/s1
Instrument: micrOTOF-Q
Instrument type: LC-ESI-QTOF
Ms type: MS2
Ion mode: POSITIVE
Collision energy: 15 eV
Ionization: ESI
Precursor type: [M+H]+
m/z	relative intensity
129.053	2
147.056	0
153.017	15
171.027	1
179.032	0
195.026	2
219.025	0
231.067	0
245.040	0
255.081	0
261.035	0
263.050	2
272.853	0
273.071	999
274.074	110
275.076	3
281.061	5
285.072	3
297.066	6
299.071	0
315.081	28
316.084	3
339.079	15
340.083	1
351.080	0
365.094	1
369.090	1
381.090	3
383.105	18
384.110	1
399.101	5
400.105	0
401.116	11
402.120	1
407.097	0
417.112	15
418.114	2
419.126	15
420.130	1
435.122	29
436.125	4
