Mass spectrum: Biochanin A; LC-ESI-QTOF; MS2; CE:15 eV; [M+H]+
Name: Biochanin A
Name: 5,7-dihydroxy-3-(4-methoxyphenyl)chromen-4-one
Class: Natural Product; Phytoestrogens
Formula: C16H12O5
Exact mass: 284.06847
SMILES: COC1=CC=C(C=C1)C2=COC3=CC(=CC(=C3C2=O)O)O
InChI: InChI=1S/C16H12O5/c1-20-11-4-2-9(3-5-11)12-8-21-14-7-10(17)6-13(18)15(14)16(12)19/h2-8,17-18H,1H3
Instrument: micrOTOF-Q
Instrument type: LC-ESI-QTOF
Ms type: MS2
Ion mode: POSITIVE
Collision energy: 15 eV
Ionization: ESI
Precursor type: [M+H]+
m/z	relative intensity
123.043	0
149.022	1
152.008	2
153.017	0
170.019	0
213.051	1
229.083	17
230.086	0
241.047	0
242.054	6
252.038	1
253.046	13
254.049	0
257.076	3
269.040	7
270.048	38
271.051	2
285.071	999
285.342	0
285.434	0
286.075	118
287.077	3
