Mass spectrum: Resveratrol; LC-ESI-QQ; MS2; CE:25 eV; [M-H]-
Name: Resveratrol
Name: 5-[(E)-2-(4-hydroxyphenyl)ethenyl]benzene-1,3-diol
Class: Natural Product; Stilbenes
Formula: C14H12O3
Exact mass: 228.07864
SMILES: C1=CC(=CC=C1/C=C/C2=CC(=CC(=C2)O)O)O
InChI: InChI=1S/C14H12O3/c15-12-5-3-10(4-6-12)1-2-11-7-13(16)9-14(17)8-11/h1-9,15-17H/b2-1+
Instrument: TSQ QUANTUM AM
Instrument type: LC-ESI-QQ
Ms type: MS2
Ion mode: NEGATIVE
Collision energy: 25 eV
Ionization: ESI
Precursor type: [M-H]-
m/z	relative intensity
41.000	3
81.000	0
93.000	3
107.000	1
115.000	19
117.000	51
119.000	21
129.000	0
139.000	1
140.000	1
141.000	34
142.000	0
143.000	999
144.000	0
145.000	24
151.000	0
152.000	0
153.000	1
155.000	9
156.000	11
157.000	105
159.000	131
161.000	6
163.000	0
165.000	1
167.000	13
168.000	7
170.000	9
180.000	21
181.000	124
182.000	159
183.000	123
184.000	24
185.000	631
195.000	0
196.000	1
197.000	1
198.000	1
199.000	3
208.000	2
209.000	3
212.000	5
224.000	0
225.000	23
226.000	2
227.000	195
