Mass spectrum: Indoleacetic acid; LC-ESI-QTOF; MS2; CE:40 eV; [M+H]+
Name: Indoleacetic acid
Name: 2-(1H-indol-3-yl)acetic acid
Class: Natural Product; Indole
Formula: C10H9NO2
Exact mass: 175.06333
SMILES: C1=CC=C2C(=C1)C(=CN2)CC(=O)O
InChI: InChI=1S/C10H9NO2/c12-10(13)5-7-6-11-9-4-2-1-3-8(7)9/h1-4,6,11H,5H2,(H,12,13)
Instrument: API QSTAR Pulsar i
Instrument type: LC-ESI-QTOF
Ms type: MS2
Ion mode: POSITIVE
Collision energy: 40 eV
Ionization: ESI
Precursor type: [M+H]+
m/z	relative intensity
39.022	0
41.038	0
43.015	0
45.032	0
51.018	0
52.015	1
53.040	0
55.018	2
55.056	7
59.048	0
62.930	15
63.020	14
64.030	0
64.928	11
65.038	83
66.046	12
67.053	4
71.049	2
76.029	100
77.037	198
78.044	62
79.040	91
80.054	1
81.076	1
89.038	471
90.042	82
91.053	102
92.052	6
93.030	8
94.039	2
95.049	28
97.056	0
98.987	5
101.037	0
102.045	13
103.055	504
104.046	530
105.057	654
106.058	15
111.048	0
114.037	1
115.042	38
116.049	358
117.057	441
118.066	18
119.068	0
120.081	3
121.065	62
128.046	34
129.048	2
130.063	999
131.068	17
132.041	115
133.051	483
134.059	28
143.030	6
144.047	26
146.059	8
146.087	0
147.068	12
148.074	10
149.014	0
158.059	1
161.050	5
