Mass spectrum: Kaempferol; LC-ESI-QTOF; MS2; CE:30 eV; [M+H]+
Name: Kaempferol
Name: 3,5,7-trihydroxy-2-(4-hydroxyphenyl)chromen-4-one
Class: Natural Product
Formula: C15H10O6
Exact mass: 286.04774
SMILES: C1=CC(=CC=C1C2=C(C(=O)C3=C(C=C(C=C3O2)O)O)O)O
InChI: InChI=1S/C15H10O6/c16-8-3-1-7(2-4-8)15-14(20)13(19)12-10(18)5-9(17)6-11(12)21-15/h1-6,16-18,20H
Instrument: micrOTOF-Q
Instrument type: LC-ESI-QTOF
Ms type: MS2
Ion mode: POSITIVE
Collision energy: 30 eV
Ionization: ESI
Precursor type: [M+H]+
m/z	relative intensity
107.053	4
115.055	6
115.075	0
117.028	2
117.069	3
117.085	0
118.037	0
119.046	10
121.027	126
121.071	0
122.031	7
123.036	1
124.014	2
125.016	0
127.049	17
128.060	35
129.036	2
129.066	33
130.039	1
130.081	0
131.048	8
132.076	1
133.027	24
134.031	6
135.043	9
135.065	1
135.084	0
136.011	3
136.040	1
137.022	83
137.039	1
138.025	15
139.052	24
140.057	0
141.069	17
142.036	1
142.073	4
143.045	1
143.567	0
144.049	5
145.024	3
145.063	54
145.171	1
145.631	0
146.034	2
146.063	0
146.623	0
147.042	96
148.045	6
149.021	5
153.017	899
153.109	0
154.019	45
154.064	0
155.027	0
155.045	6
155.083	0
156.052	4
156.071	0
157.063	194
157.550	0
158.065	18
159.074	0
160.050	5
161.057	58
162.018	0
162.057	0
162.398	0
163.034	5
165.017	185
165.117	0
166.019	15
167.022	1
167.047	4
168.052	9
169.068	3
170.067	2
171.041	60
171.263	0
172.041	3
173.016	0
173.061	3
174.023	1
175.038	7
175.077	5
175.146	0
176.032	1
177.012	0
177.049	2
179.025	3
179.045	0
181.008	6
181.091	0
183.030	53
183.184	0
184.009	0
184.045	19
184.997	0
185.056	91
186.055	17
187.064	2
188.038	0
189.049	10
191.027	1
193.015	4
194.869	0
195.037	7
195.356	1
196.052	0
197.053	11
198.063	1
198.925	2
199.037	3
199.096	0
200.046	0
201.051	6
201.094	0
202.058	10
203.028	2
203.067	30
204.038	3
205.038	0
207.025	3
208.038	0
210.877	0
212.042	30
213.051	484
213.197	0
214.057	62
215.028	2
215.062	3
216.038	66
217.043	18
217.079	0
218.022	5
218.052	4
219.037	1
219.060	6
219.121	0
220.021	1
221.050	0
223.029	5
224.043	8
225.054	5
226.011	0
227.464	0
229.047	167
230.052	32
230.997	1
231.061	141
231.158	0
232.029	4
232.063	3
232.087	1
234.945	10
235.055	4
236.945	3
240.040	13
241.045	170
241.117	0
241.989	0
242.052	40
242.146	2
243.063	18
244.036	7
244.920	0
245.041	21
245.120	0
251.032	1
252.035	5
253.044	0
253.931	2
256.050	0
257.040	35
257.135	1
258.048	368
258.172	2
258.202	1
258.880	0
259.055	132
259.155	1
260.059	11
261.871	1
263.048	4
263.897	0
263.928	1
264.057	0
269.040	63
269.117	1
269.144	0
270.014	0
270.046	10
271.043	0
272.037	2
272.065	0
285.034	25
286.042	24
286.115	0
287.050	999
287.142	7
287.177	1
287.988	0
288.053	145
289.075	1
302.014	0
307.009	0
323.055	0
340.086	0
352.036	0
358.695	0
361.007	0
364.186	0
385.913	0
488.372	0
503.868	0
511.638	0
515.157	0
534.485	0
620.324	0
