Mass spectrum: Threonine; LC-ESI-QTOF; MS2; CE:15 eV; [M+H]+
Name: Threonine
Name: 2-amino-3-hydroxybutanoic acid
Class: Natural Product; amino acid
Formula: C4H9NO3
Exact mass: 119.05824
SMILES: CC(C(C(=O)O)N)O
InChI: InChI=1S/C4H9NO3/c1-2(6)3(5)4(7)8/h2-3,6H,5H2,1H3,(H,7,8)
Instrument: API QSTAR Pulsar i
Instrument type: LC-ESI-QTOF
Ms type: MS2
Ion mode: POSITIVE
Collision energy: 15 eV
Ionization: ESI
Precursor type: [M+H]+
m/z	relative intensity
56.051	326
57.034	15
74.061	999
84.045	77
102.056	407
120.067	278
