Mass spectrum: 5-Hydroxytryptophan; LC-ESI-QTOF; MS2; CE:40 eV; [M+H]+
Name: 5-Hydroxytryptophan
Name: 2-amino-3-(5-hydroxy-1H-indol-3-yl)propanoic acid
Class: Natural Product; Amino acid
Formula: C11H12N2O3
Exact mass: 220.08479
SMILES: C1=CC2=C(C=C1O)C(=CN2)CC(C(=O)O)N
InChI: InChI=1S/C11H12N2O3/c12-9(11(15)16)3-6-5-13-10-2-1-7(14)4-8(6)10/h1-2,4-5,9,13-14H,3,12H2,(H,15,16)
Instrument: API QSTAR Pulsar i
Instrument type: LC-ESI-QTOF
Ms type: MS2
Ion mode: POSITIVE
Collision energy: 40 eV
Ionization: ESI
Precursor type: [M+H]+
m/z	relative intensity
41.038	17
43.020	14
43.049	6
55.052	12
57.072	10
59.042	3
65.031	3
67.045	11
69.068	10
71.055	2
73.037	7
74.022	24
77.038	7
79.054	25
81.091	3
83.091	1
89.039	6
91.047	12
92.058	4
93.056	4
95.095	2
103.054	83
104.052	10
105.049	5
105.067	35
106.064	207
107.048	109
108.046	6
109.114	1
114.044	2
115.053	114
116.049	77
117.055	83
118.066	16
119.088	4
120.077	16
121.005	3
121.021	9
121.063	8
123.071	4
128.063	5
129.063	2
130.066	127
131.054	245
132.078	56
133.054	144
133.944	5
134.062	999
135.065	26
140.044	13
141.057	8
142.060	21
143.066	21
144.052	32
145.060	9
146.055	159
147.060	11
148.070	72
157.038	3
158.057	178
159.066	320
160.076	82
161.083	7
162.055	124
175.081	8
186.053	20
