Mass spectrum: Harmane; LC-ESI-QQ; MS2; CE:35 eV; [M+H]+
Name: Harmane
Name: 1-methyl-9H-pyrido[3,4-b]indole
Class: Natural Product; ?-Carboline Alkaloids
Formula: C12H10N2
Exact mass: 182.08440
SMILES: CC1=NC=CC2=C1NC3=CC=CC=C23
InChI: InChI=1S/C12H10N2/c1-8-12-10(6-7-13-8)9-4-2-3-5-11(9)14-12/h2-7,14H,1H3
Instrument: TSQ 7000
Instrument type: LC-ESI-QQ
Ms type: MS2
Ion mode: POSITIVE
Collision energy: 35 eV
Ionization: ESI
Precursor type: [M+H]+
m/z	relative intensity
63.000	0
65.000	2
77.000	0
89.000	10
90.000	0
91.000	0
113.000	0
114.000	8
115.000	999
116.000	16
117.000	2
127.000	6
128.000	23
129.000	20
130.000	1
139.000	3
140.000	35
141.000	30
142.000	65
143.000	1
154.000	22
155.000	12
156.000	11
166.000	12
167.000	32
168.000	147
181.000	34
182.000	98
183.000	343
