Mass spectrum: Isoleucine; LC-ESI-QTOF; MS2; CE:25 eV; [M+H]+
Name: Isoleucine
Name: 2-amino-3-methylpentanoic acid
Class: Natural Product; amino acid
Formula: C6H13NO2
Exact mass: 131.09463
SMILES: CCC(C)C(C(=O)O)N
InChI: InChI=1S/C6H13NO2/c1-3-4(2)5(7)6(8)9/h4-5H,3,7H2,1-2H3,(H,8,9)
Instrument: API QSTAR Pulsar i
Instrument type: LC-ESI-QTOF
Ms type: MS2
Ion mode: POSITIVE
Collision energy: 25 eV
Ionization: ESI
Precursor type: [M+H]+
m/z	relative intensity
39.024	2
41.040	28
44.052	121
45.036	6
55.058	3
56.053	3
57.059	19
58.067	20
59.052	1
62.931	0
67.058	3
69.073	503
71.075	0
73.067	5
86.099	999
