Mass spectrum: Asparagine; LC-ESI-QTOF; MS2; CE:20 eV; [M+H]+
Name: Asparagine
Name: 2,4-diamino-4-oxobutanoic acid
Class: Natural Product; amino acid
Formula: C4H8N2O3
Exact mass: 132.05349
SMILES: C(C(C(=O)O)N)C(=O)N
InChI: InChI=1S/C4H8N2O3/c5-2(4(8)9)1-3(6)7/h2H,1,5H2,(H2,6,7)(H,8,9)
Instrument: API QSTAR Pulsar i
Instrument type: LC-ESI-QTOF
Ms type: MS2
Ion mode: POSITIVE
Collision energy: 20 eV
Ionization: ESI
Precursor type: [M+H]+
m/z	relative intensity
43.019	12
44.050	28
46.030	40
60.045	9
70.030	61
74.024	999
87.056	325
88.041	90
98.026	8
99.010	7
105.073	15
116.036	90
133.063	42
