Mass spectrum: Xanthohumol; LC-ESI-QTOF; MS2; CE:20 eV; [M+H]+
Name: Xanthohumol
Name: (E)-1-[2,4-dihydroxy-6-methoxy-3-(3-methylbut-2-enyl)phenyl]-3-(4-hydroxyphenyl)prop-2-en-1-one
Class: Natural Product
Formula: C21H22O5
Exact mass: 354.14672
SMILES: CC(=CCC1=C(C(=C(C=C1O)OC)C(=O)/C=C/C2=CC=C(C=C2)O)O)C
InChI: InChI=1S/C21H22O5/c1-13(2)4-10-16-18(24)12-19(26-3)20(21(16)25)17(23)11-7-14-5-8-15(22)9-6-14/h4-9,11-12,22,24-25H,10H2,1-3H3/b11-7+
Instrument: micrOTOF-Q
Instrument type: LC-ESI-QTOF
Ms type: MS2
Ion mode: POSITIVE
Collision energy: 20 eV
Ionization: ESI
Precursor type: [M+H]+
m/z	relative intensity
151.037	3
161.018	0
178.899	0
179.031	999
180.035	68
181.038	0
197.042	64
198.045	3
235.092	7
257.076	35
258.080	3
299.087	33
300.089	4
