Mass spectrum: Nicotianamine; LC-ESI-QQ; MS2; CE:30 eV; [M-H]-
Name: Nicotianamine
Name: (2S)-1-[(3S)-3-{[(3S)-3-amino-3-carboxypropyl]amino}-3-carboxypropyl]azetidine-2-carboxylic acid
Class: Natural Product
Formula: C12H21N3O6
Exact mass: 303.14303
SMILES: C1CN([C@@H]1C(=O)O)CC[C@@H](C(=O)O)NCC[C@@H](C(=O)O)N
InChI: InChI=1S/C12H21N3O6/c13-7(10(16)17)1-4-14-8(11(18)19)2-5-15-6-3-9(15)12(20)21/h7-9,14H,1-6,13H2,(H,16,17)(H,18,19)(H,20,21)/t7-,8-,9-/m0/s1
Instrument: TSQ 7000
Instrument type: LC-ESI-QQ
Ms type: MS2
Ion mode: NEGATIVE
Collision energy: 30 eV
Ionization: ESI
Precursor type: [M-H]-
m/z	relative intensity
66.000	7
71.000	357
72.000	28
73.000	56
82.000	28
83.000	8
84.000	106
85.000	64
94.000	41
99.000	771
100.000	260
101.000	15
111.000	229
112.000	173
113.000	97
117.000	274
118.000	66
123.000	5
125.000	19
127.000	53
128.000	23
129.000	60
139.000	35
140.000	101
143.000	13
156.000	46
157.000	55
166.000	23
181.000	10
182.000	999
183.000	62
185.000	14
186.000	885
187.000	294
194.000	14
197.000	30
200.000	314
201.000	465
206.000	61
212.000	398
213.000	506
228.000	1
240.000	150
241.000	72
264.000	27
266.000	10
302.000	39
321.000	9
