Mass spectrum: Leucine; LC-ESI-QTOF; MS2; CE:40 eV; [M+H]+
Name: Leucine
Name: 2-amino-4-methylpentanoic acid
Class: Natural Product; amino acid
Formula: C6H13NO2
Exact mass: 131.09463
SMILES: CC(C)CC(C(=O)O)N
InChI: InChI=1S/C6H13NO2/c1-4(2)3-5(7)6(8)9/h4-5H,3,7H2,1-2H3,(H,8,9)
Instrument: API QSTAR Pulsar i
Instrument type: LC-ESI-QTOF
Ms type: MS2
Ion mode: POSITIVE
Collision energy: 40 eV
Ionization: ESI
Precursor type: [M+H]+
m/z	relative intensity
39.024	80
41.040	490
42.029	0
43.019	3
43.055	604
44.052	999
45.034	11
53.046	6
55.021	49
55.057	74
56.053	12
57.061	18
58.046	1
59.051	2
62.932	16
67.060	1
69.072	24
73.030	6
73.066	7
86.100	54
