Mass spectrum: Oxycodone; LC-ESI-QQ; MS2; CE:30 eV; [M+H]+
Name: Oxycodone
Name: Morphinan-6-one, 4,5alpha-epoxy-14-hydroxy-3-methoxy-17-methyl-
Class: Natural Product; Morphinan Alkaloids
Formula: C18H21NO4
Exact mass: 315.14706
SMILES: CN1CCC23C4C(=O)CCC2(C1CC5=C3C(=C(C=C5)OC)O4)O
InChI: InChI=1S/C18H21NO4/c1-19-8-7-17-14-10-3-4-12(22-2)15(14)23-16(17)11(20)5-6-18(17,21)13(19)9-10/h3-4,13,16,21H,5-9H2,1-2H3
Instrument: TSQ 7000
Instrument type: LC-ESI-QQ
Ms type: MS2
Ion mode: POSITIVE
Collision energy: 30 eV
Ionization: ESI
Precursor type: [M+H]+
m/z	relative intensity
32.000	0
42.000	0
43.000	0
44.000	3
45.000	2
55.000	0
58.000	16
59.000	5
70.000	83
71.000	7
82.000	0
84.000	0
91.000	3
92.000	0
94.000	5
95.000	2
108.000	11
109.000	0
110.000	2
122.000	0
131.000	2
133.000	1
137.000	1
141.000	0
143.000	0
145.000	0
151.000	1
153.000	0
154.000	0
157.000	4
159.000	2
160.000	4
161.000	10
162.000	0
164.000	0
165.000	1
166.000	0
167.000	0
169.000	0
170.000	0
174.000	2
175.000	26
176.000	4
177.000	0
181.000	23
182.000	3
185.000	2
186.000	1
187.000	111
188.000	16
189.000	6
190.000	1
193.000	2
195.000	4
196.000	8
197.000	12
198.000	5
199.000	19
200.000	0
201.000	6
202.000	7
203.000	6
205.000	0
207.000	2
208.000	0
209.000	5
210.000	4
211.000	1
212.000	5
213.000	40
214.000	13
215.000	4
216.000	2
217.000	2
219.000	0
221.000	5
223.000	3
224.000	35
225.000	35
226.000	5
227.000	17
228.000	15
229.000	17
230.000	0
234.000	0
235.000	1
237.000	2
238.000	1
239.000	10
240.000	11
241.000	317
242.000	18
243.000	2
248.000	1
249.000	5
250.000	0
252.000	15
253.000	0
254.000	4
255.000	13
256.000	292
257.000	24
258.000	0
265.000	5
266.000	12
267.000	5
268.000	7
269.000	7
270.000	34
273.000	0
280.000	13
281.000	2
282.000	5
283.000	13
284.000	1
297.000	1
298.000	999
299.000	41
301.000	0
316.000	153
317.000	18
