Mass spectrum: Xanthotoxin; LC-ESI-QTOF; MS2; CE:20 eV; [M+H]+
Name: Xanthotoxin
Name: 9-methoxyfuro[3,2-g]chromen-7-one
Class: Natural Product
Formula: C12H8O4
Exact mass: 216.04226
SMILES: COC1=C2C(=CC3=C1OC=C3)C=CC(=O)O2
InChI: InChI=1S/C12H8O4/c1-14-12-10-8(4-5-15-10)6-7-2-3-9(13)16-11(7)12/h2-6H,1H3
Instrument: micrOTOF-Q
Instrument type: LC-ESI-QTOF
Ms type: MS2
Ion mode: POSITIVE
Collision energy: 20 eV
Ionization: ESI
Precursor type: [M+H]+
m/z	relative intensity
115.053	14
116.058	1
117.067	1
118.041	18
119.043	0
129.032	7
130.040	6
131.048	37
132.052	3
133.063	4
143.048	4
144.055	1
145.028	23
146.035	81
147.039	6
157.027	29
158.035	27
159.040	2
161.058	354
162.061	32
163.064	0
171.042	1
172.049	0
173.056	19
174.029	673
175.033	59
176.035	1
185.021	57
186.026	6
189.053	60
190.056	5
201.017	1
201.886	0
202.024	999
202.332	0
203.027	106
204.029	5
217.047	206
218.050	23
219.054	0
