Mass spectrum: Quercetin; LC-ESI-QTOF; MS2; CE:40 eV; [M+H]+
Name: Quercetin
Name: 2-(3,4-dihydroxyphenyl)-3,5,7-trihydroxychromen-4-one
Class: Natural Product; Flavonol
Formula: C15H10O7
Exact mass: 302.04265
SMILES: C1=CC(=C(C=C1C2=C(C(=O)C3=C(C=C(C=C3O2)O)O)O)O)O
InChI: InChI=1S/C15H10O7/c16-7-4-10(19)12-11(5-7)22-15(14(21)13(12)20)6-1-2-8(17)9(18)3-6/h1-5,16-19,21H
Instrument: API QSTAR Pulsar i
Instrument type: LC-ESI-QTOF
Ms type: MS2
Ion mode: POSITIVE
Collision energy: 40 eV
Ionization: ESI
Precursor type: [M+H]+
m/z	relative intensity
55.017	10
68.997	34
81.034	12
93.034	26
95.052	30
105.045	15
107.056	15
109.028	79
110.035	10
111.009	134
115.054	15
117.066	27
121.028	186
123.043	62
127.042	38
129.066	9
131.047	26
133.045	24
135.044	44
137.024	601
138.029	14
139.048	10
143.050	9
145.061	66
149.026	69
151.042	9
153.018	912
154.023	19
155.050	104
157.066	15
159.045	23
161.060	63
163.043	120
165.020	370
166.028	54
173.058	141
177.041	40
179.037	36
183.042	162
184.052	12
185.062	8
187.042	82
191.051	43
195.033	35
200.048	10
201.056	384
202.059	14
203.038	10
205.047	40
207.033	20
211.042	43
213.057	20
215.038	19
217.051	12
219.056	76
228.043	78
229.050	999
230.054	40
232.038	22
233.046	14
239.035	63
245.046	26
246.055	19
247.063	101
257.050	414
258.055	25
274.049	102
275.056	16
285.038	131
286.043	11
303.050	689
304.054	31
