Mass spectrum: Quercetin; LC-ESI-QTOF; MS2; CE:55 eV; [M+H]+
Name: Quercetin
Name: 2-(3,4-dihydroxyphenyl)-3,5,7-trihydroxychromen-4-one
Class: Natural Product; Flavonol
Formula: C15H10O7
Exact mass: 302.04265
SMILES: C1=CC(=C(C=C1C2=C(C(=O)C3=C(C=C(C=C3O2)O)O)O)O)O
InChI: InChI=1S/C15H10O7/c16-7-4-10(19)12-11(5-7)22-15(14(21)13(12)20)6-1-2-8(17)9(18)3-6/h1-5,16-19,21H
Instrument: API QSTAR Pulsar i
Instrument type: LC-ESI-QTOF
Ms type: MS2
Ion mode: POSITIVE
Collision energy: 55 eV
Ionization: ESI
Precursor type: [M+H]+
m/z	relative intensity
53.036	21
55.016	60
65.037	52
67.017	68
67.055	38
68.996	304
77.038	50
79.053	13
81.034	105
83.014	11
89.037	10
91.051	35
93.032	34
95.049	60
97.028	29
103.053	40
105.042	94
107.048	47
108.021	25
109.028	131
110.035	18
111.013	73
113.036	13
115.053	172
116.060	17
117.067	143
119.045	22
121.029	255
122.034	14
123.043	93
124.020	11
125.023	14
126.040	25
127.049	218
128.060	60
129.060	22
131.047	124
133.025	22
135.042	54
136.017	24
137.025	530
138.030	14
139.051	31
141.036	12
143.050	18
144.056	18
145.062	204
147.042	22
149.029	40
150.031	10
151.039	9
153.018	999
154.025	27
155.051	594
156.055	25
157.063	16
159.044	49
160.054	19
161.053	72
163.043	68
165.021	66
166.028	14
171.046	19
172.053	10
173.061	186
176.049	10
177.036	35
179.037	55
183.047	168
184.055	46
187.044	110
191.049	15
200.049	47
201.058	180
203.037	50
211.043	70
217.053	23
219.044	16
227.036	13
228.045	72
229.053	372
230.056	16
232.040	14
239.036	32
245.049	40
257.053	47
285.041	25
