Mass spectrum: Tryptophan; LC-ESI-QTOF; MS2; CE:25 eV; [M+H]+
Name: Tryptophan
Name: 2-amino-3-(1H-indol-3-yl)propanoic acid
Class: Natural Product; amino acid
Formula: C11H12N2O2
Exact mass: 204.08988
SMILES: C1=CC=C2C(=C1)C(=CN2)CC(C(=O)O)N
InChI: InChI=1S/C11H12N2O2/c12-9(11(14)15)5-7-6-13-10-4-2-1-3-8(7)10/h1-4,6,9,13H,5,12H2,(H,14,15)
Instrument: API QSTAR Pulsar i
Instrument type: LC-ESI-QTOF
Ms type: MS2
Ion mode: POSITIVE
Collision energy: 25 eV
Ionization: ESI
Precursor type: [M+H]+
m/z	relative intensity
57.072	11
74.024	7
87.045	6
91.054	6
115.055	15
117.065	26
118.067	256
119.069	2
121.030	7
127.055	3
130.066	26
132.081	95
142.066	32
143.075	37
144.082	197
145.079	6
146.061	999
147.065	17
149.025	75
159.094	99
160.082	13
170.061	75
188.073	293
189.078	6
