Mass spectrum: Allocryptopine; LC-ESI-QQ; MS2; CE:30 eV; [M+H]+
Name: Allocryptopine
Name: [1,3]Benzodioxolo[5,6-e][2]benzazecin-14(6H)-one, 5,7,8,15-tetrahydro-3,4-dimethoxy-6-methyl-
Class: Natural Product; Berberine Alkaloids
Formula: C21H23NO5
Exact mass: 369.15762
SMILES: CN1CCC2=CC3=C(C=C2C(=O)CC4=C(C1)C(=C(C=C4)OC)OC)OCO3
InChI: InChI=1S/C21H23NO5/c1-22-7-6-14-9-19-20(27-12-26-19)10-15(14)17(23)8-13-4-5-18(24-2)21(25-3)16(13)11-22/h4-5,9-10H,6-8,11-12H2,1-3H3
Instrument: TSQ 7000
Instrument type: LC-ESI-QQ
Ms type: MS2
Ion mode: POSITIVE
Collision energy: 30 eV
Ionization: ESI
Precursor type: [M+H]+
m/z	relative intensity
32.000	5
33.000	1
44.000	42
45.000	10
58.000	5
59.000	1
75.000	0
91.000	1
105.000	0
119.000	2
121.000	2
123.000	0
131.000	1
132.000	1
133.000	0
135.000	19
136.000	5
137.000	0
138.000	3
139.000	0
146.000	0
147.000	0
148.000	1
149.000	73
150.000	6
151.000	53
152.000	1
153.000	26
154.000	0
159.000	5
160.000	2
161.000	10
162.000	5
163.000	13
164.000	1
165.000	109
166.000	38
167.000	0
173.000	2
174.000	0
175.000	5
176.000	14
177.000	19
178.000	33
179.000	12
180.000	0
181.000	208
182.000	2
185.000	0
187.000	9
188.000	943
189.000	404
190.000	86
191.000	49
192.000	32
193.000	14
200.000	2
201.000	0
202.000	3
204.000	30
205.000	0
206.000	284
207.000	0
209.000	0
210.000	4
217.000	0
218.000	0
219.000	0
222.000	7
223.000	0
226.000	5
227.000	1
232.000	1
233.000	0
234.000	0
235.000	0
238.000	10
239.000	1
241.000	21
242.000	1
246.000	0
247.000	1
248.000	3
249.000	1
250.000	10
251.000	9
252.000	8
253.000	10
254.000	9
255.000	1
259.000	1
260.000	8
261.000	6
262.000	1
263.000	13
264.000	2
265.000	4
266.000	8
267.000	2
268.000	5
269.000	23
274.000	2
275.000	12
276.000	13
277.000	4
278.000	30
279.000	15
280.000	8
281.000	31
282.000	2
283.000	22
285.000	1
286.000	0
288.000	0
289.000	8
290.000	389
291.000	46
292.000	18
293.000	7
294.000	37
295.000	3
296.000	3
297.000	3
299.000	6
304.000	2
305.000	3
306.000	88
307.000	16
308.000	16
309.000	40
310.000	3
311.000	30
312.000	0
316.000	0
317.000	0
318.000	3
319.000	2
320.000	32
321.000	68
322.000	60
323.000	14
324.000	3
327.000	16
334.000	3
335.000	2
336.000	96
337.000	69
338.000	1
339.000	33
340.000	7
341.000	1
350.000	37
352.000	261
353.000	3
355.000	0
369.000	1
370.000	999
371.000	0
