Mass spectrum: Cinchonine; LC-ESI-QTOF; MS2; CE:15 eV; [M+H]+
Name: Cinchonine
Name: (S)-(5-ethenyl-1-azabicyclo[2.2.2]octan-7-yl)-quinolin-4-ylmethanol
Class: Natural Product
Formula: C19H22N2O
Exact mass: 294.17321
SMILES: C=C[C@H]1CN2CC[C@H]1C[C@@H]2[C@H](C3=CC=NC4=CC=CC=C34)O
InChI: InChI=1S/C19H22N2O/c1-2-13-12-21-10-8-14(13)11-18(21)19(22)16-7-9-20-17-6-4-3-5-15(16)17/h2-7,9,13-14,18-19,22H,1,8,10-12H2/t13-,14-,18+,19-/m0/s1
Instrument: micrOTOF-Q
Instrument type: LC-ESI-QTOF
Ms type: MS2
Ion mode: POSITIVE
Collision energy: 15 eV
Ionization: ESI
Precursor type: [M+H]+
m/z	relative intensity
130.063	2
156.079	0
166.120	1
168.079	0
206.095	0
222.118	0
223.120	2
234.124	4
235.123	2
236.132	1
246.123	0
248.139	2
249.136	0
252.136	1
266.154	0
267.180	0
277.166	86
278.169	11
294.915	0
294.991	0
295.176	999
295.485	0
296.179	142
297.182	0
