Mass spectrum: Indoleacetic acid; LC-ESI-QTOF; MS2; CE:50 eV; [M+H]+
Name: Indoleacetic acid
Name: 2-(1H-indol-3-yl)acetic acid
Class: Natural Product; Indole
Formula: C10H9NO2
Exact mass: 175.06333
SMILES: C1=CC=C2C(=C1)C(=CN2)CC(=O)O
InChI: InChI=1S/C10H9NO2/c12-10(13)5-7-6-11-9-4-2-1-3-8(7)9/h1-4,6,11H,5H2,(H,12,13)
Instrument: API QSTAR Pulsar i
Instrument type: LC-ESI-QTOF
Ms type: MS2
Ion mode: POSITIVE
Collision energy: 50 eV
Ionization: ESI
Precursor type: [M+H]+
m/z	relative intensity
39.021	3
41.040	0
43.014	1
45.029	0
50.015	21
51.023	53
52.029	17
53.046	2
55.015	1
55.055	3
57.936	1
62.017	2
62.928	13
63.022	87
64.026	7
64.928	6
65.038	100
66.044	23
67.055	2
75.022	8
76.028	145
77.037	999
78.045	180
79.041	146
80.044	1
80.978	1
88.026	9
89.038	439
90.045	173
91.052	71
92.060	1
93.032	1
94.042	6
95.049	145
96.046	3
98.985	2
101.040	11
102.045	55
103.055	728
104.049	649
105.056	323
106.060	9
114.035	10
115.041	29
116.048	62
117.058	200
118.065	5
119.040	1
121.067	11
128.046	67
129.050	14
130.063	517
131.068	7
132.043	34
133.050	64
134.055	4
143.031	0
144.052	0
146.060	5
