Mass spectrum: Tyrosine; LC-ESI-QTOF; MS2; CE:15 eV; [M+H]+
Name: Tyrosine
Name: 2-amino-3-(4-hydroxyphenyl)propanoic acid
Class: Natural Product; amino acid
Formula: C9H11NO3
Exact mass: 181.07389
SMILES: C1=CC(=CC=C1CC(C(=O)O)N)O
InChI: InChI=1S/C9H11NO3/c10-8(9(12)13)5-6-1-3-7(11)4-2-6/h1-4,8,11H,5,10H2,(H,12,13)
Instrument: API QSTAR Pulsar i
Instrument type: LC-ESI-QTOF
Ms type: MS2
Ion mode: POSITIVE
Collision energy: 15 eV
Ionization: ESI
Precursor type: [M+H]+
m/z	relative intensity
119.052	43
123.046	101
136.075	821
147.043	84
165.056	999
182.082	357
