Mass spectrum: Resveratrol; LC-ESI-QTOF; MS2; CE:40 eV; [M+H]+
Name: Resveratrol
Name: 5-[(E)-2-(4-hydroxyphenyl)ethenyl]benzene-1,3-diol
Class: Natural Product; Stilbene
Formula: C14H12O3
Exact mass: 228.07864
SMILES: C1=CC(=CC=C1/C=C/C2=CC(=CC(=C2)O)O)O
InChI: InChI=1S/C14H12O3/c15-12-5-3-10(4-6-12)1-2-11-7-13(16)9-14(17)8-11/h1-9,15-17H/b2-1+
Instrument: API QSTAR Pulsar i
Instrument type: LC-ESI-QTOF
Ms type: MS2
Ion mode: POSITIVE
Collision energy: 40 eV
Ionization: ESI
Precursor type: [M+H]+
m/z	relative intensity
43.017	16
55.018	54
65.037	86
67.053	20
68.996	113
71.011	11
77.037	218
79.052	141
81.032	47
91.053	576
92.059	24
93.033	12
95.049	67
105.049	33
107.049	999
108.053	32
109.028	28
110.036	10
111.044	12
115.054	76
117.069	12
119.050	74
120.058	153
121.029	75
123.043	34
127.052	20
128.060	40
129.069	45
131.050	30
135.044	61
136.052	48
139.051	19
141.066	76
144.052	35
145.060	53
152.058	56
153.066	152
154.074	51
155.080	87
157.063	21
164.061	52
165.069	532
166.074	42
168.056	47
169.065	12
181.066	98
182.074	44
183.081	30
193.071	15
194.074	13
210.072	19
211.081	11
