Mass spectrum: Bergapten; LC-ESI-QTOF; MS2; CE:20 eV; [M+H]+
Name: Bergapten
Name: 4-methoxyfuro[3,2-g]chromen-7-one
Class: Natural Product
Formula: C12H8O4
Exact mass: 216.04226
SMILES: COC1=C2C=CC(=O)OC2=CC3=C1C=CO3
InChI: InChI=1S/C12H8O4/c1-14-12-7-2-3-11(13)16-10(7)6-9-8(12)4-5-15-9/h2-6H,1H3
Instrument: micrOTOF-Q
Instrument type: LC-ESI-QTOF
Ms type: MS2
Ion mode: POSITIVE
Collision energy: 20 eV
Ionization: ESI
Precursor type: [M+H]+
m/z	relative intensity
115.052	6
117.067	0
118.041	7
130.038	1
131.048	16
132.052	0
133.063	2
143.047	3
145.030	1
145.060	2
146.035	33
147.039	2
156.019	3
158.034	7
159.038	0
161.057	12
162.058	0
171.042	0
173.057	11
174.029	232
175.033	19
176.035	0
178.023	2
189.053	1
201.892	0
202.024	999
203.027	107
204.029	4
217.047	123
218.050	13
