Mass spectrum: Nicotianamine; LC-ESI-QQ; MS2; CE:20 eV; [M-H]-
Name: Nicotianamine
Name: (2S)-1-[(3S)-3-{[(3S)-3-amino-3-carboxypropyl]amino}-3-carboxypropyl]azetidine-2-carboxylic acid
Class: Natural Product
Formula: C12H21N3O6
Exact mass: 303.14303
SMILES: C1CN([C@@H]1C(=O)O)CC[C@@H](C(=O)O)NCC[C@@H](C(=O)O)N
InChI: InChI=1S/C12H21N3O6/c13-7(10(16)17)1-4-14-8(11(18)19)2-5-15-6-3-9(15)12(20)21/h7-9,14H,1-6,13H2,(H,16,17)(H,18,19)(H,20,21)/t7-,8-,9-/m0/s1
Instrument: TSQ 7000
Instrument type: LC-ESI-QQ
Ms type: MS2
Ion mode: NEGATIVE
Collision energy: 20 eV
Ionization: ESI
Precursor type: [M-H]-
m/z	relative intensity
57.000	7
70.000	7
71.000	11
99.000	8
100.000	6
101.000	4
117.000	23
122.000	0
128.000	6
129.000	5
140.000	25
151.000	1
157.000	4
165.000	0
182.000	103
183.000	9
184.000	11
186.000	42
197.000	1
200.000	43
201.000	32
202.000	1
212.000	103
213.000	9
214.000	1
218.000	0
223.000	1
230.000	0
231.000	1
240.000	87
241.000	10
256.000	6
258.000	29
259.000	2
267.000	1
274.000	8
283.000	4
284.000	999
285.000	23
302.000	131
303.000	4
