Mass spectrum: Kaempferol; LC-ESI-QQ; MS2; CE:35 eV; [M-H]-
Name: Kaempferol
Name: 3,5,7-trihydroxy-2-(4-hydroxyphenyl)chromen-4-one
Class: Natural Product; Flavonoids
Formula: C15H10O6
Exact mass: 286.04774
SMILES: C1=CC(=CC=C1C2=C(C(=O)C3=C(C=C(C=C3O2)O)O)O)O
InChI: InChI=1S/C15H10O6/c16-8-3-1-7(2-4-8)15-14(20)13(19)12-10(18)5-9(17)6-11(12)21-15/h1-6,16-18,20H
Instrument: TSQ QUANTUM AM
Instrument type: LC-ESI-QQ
Ms type: MS2
Ion mode: NEGATIVE
Collision energy: 35 eV
Ionization: ESI
Precursor type: [M-H]-
m/z	relative intensity
59.000	5
60.000	0
63.000	23
64.000	3
65.000	78
66.000	2
67.000	37
69.000	11
77.000	6
78.000	4
79.000	22
80.000	10
83.000	98
89.000	5
90.000	1
91.000	90
92.000	63
93.000	698
94.000	16
95.000	115
97.000	17
102.000	0
103.000	1
104.000	1
105.000	51
107.000	189
108.000	303
109.000	254
110.000	4
111.000	9
113.000	0
115.000	58
117.000	913
118.000	8
119.000	215
120.000	96
121.000	140
123.000	153
124.000	22
125.000	24
126.000	1
127.000	8
128.000	17
129.000	135
130.000	123
131.000	239
132.000	55
133.000	198
134.000	2
135.000	319
136.000	136
137.000	194
139.000	38
140.000	0
141.000	147
142.000	18
143.000	796
144.000	8
145.000	662
146.000	57
147.000	35
148.000	16
149.000	6
150.000	8
151.000	144
152.000	1
153.000	17
154.000	378
155.000	473
156.000	375
157.000	644
158.000	279
159.000	931
160.000	5
161.000	514
162.000	12
163.000	175
164.000	121
165.000	56
167.000	386
168.000	132
169.000	274
170.000	64
171.000	513
172.000	12
173.000	331
174.000	41
175.000	50
178.000	0
179.000	10
180.000	12
181.000	2
182.000	269
183.000	679
184.000	398
185.000	605
186.000	29
187.000	711
188.000	20
189.000	30
190.000	23
191.000	112
192.000	22
193.000	0
194.000	3
195.000	309
196.000	109
197.000	64
198.000	104
199.000	118
200.000	72
201.000	167
202.000	34
205.000	6
210.000	177
211.000	975
212.000	68
213.000	275
214.000	345
215.000	77
216.000	10
217.000	24
219.000	41
223.000	39
224.000	13
225.000	13
226.000	20
227.000	931
228.000	33
229.000	255
231.000	0
237.000	3
238.000	59
239.000	822
240.000	145
241.000	24
242.000	8
243.000	114
250.000	0
255.000	539
256.000	47
257.000	37
258.000	1
266.000	1
267.000	172
268.000	80
269.000	14
283.000	13
284.000	18
285.000	999
