Mass spectrum: Tyramine; LC-ESI-QTOF; MS2; CE:40 eV; [M+H]+
Name: Tyramine
Name: 4-(2-aminoethyl)phenol
Class: Natural Product; biogenic amine
Formula: C8H11NO
Exact mass: 137.08406
SMILES: C1=CC(=CC=C1CCN)O
InChI: InChI=1S/C8H11NO/c9-6-5-7-1-3-8(10)4-2-7/h1-4,10H,5-6,9H2
Instrument: API QSTAR Pulsar i
Instrument type: LC-ESI-QTOF
Ms type: MS2
Ion mode: POSITIVE
Collision energy: 40 eV
Ionization: ESI
Precursor type: [M+H]+
m/z	relative intensity
39.023	2
51.025	122
53.041	15
55.019	9
65.039	78
66.046	3
77.039	999
78.046	20
91.054	273
93.070	29
94.041	30
95.050	183
102.047	20
103.056	200
105.046	51
119.049	2
121.065	16
