Mass spectrum: Oxycodone; LC-ESI-QQ; MS2; CE:40 eV; [M+H]+
Name: Oxycodone
Name: Morphinan-6-one, 4,5alpha-epoxy-14-hydroxy-3-methoxy-17-methyl-
Class: Natural Product; Morphinan Alkaloids
Formula: C18H21NO4
Exact mass: 315.14706
SMILES: CN1CCC23C4C(=O)CCC2(C1CC5=C3C(=C(C=C5)OC)O4)O
InChI: InChI=1S/C18H21NO4/c1-19-8-7-17-14-10-3-4-12(22-2)15(14)23-16(17)11(20)5-6-18(17,21)13(19)9-10/h3-4,13,16,21H,5-9H2,1-2H3
Instrument: TSQ 7000
Instrument type: LC-ESI-QQ
Ms type: MS2
Ion mode: POSITIVE
Collision energy: 40 eV
Ionization: ESI
Precursor type: [M+H]+
m/z	relative intensity
28.000	1
29.000	2
31.000	0
32.000	1
41.000	2
42.000	31
43.000	43
44.000	72
45.000	18
46.000	1
55.000	16
56.000	9
57.000	3
58.000	90
59.000	44
67.000	0
68.000	1
69.000	4
70.000	147
71.000	37
72.000	6
80.000	6
81.000	1
82.000	9
83.000	5
84.000	8
91.000	24
92.000	1
93.000	3
94.000	72
95.000	3
96.000	6
97.000	2
103.000	6
105.000	2
106.000	3
107.000	0
108.000	25
109.000	9
110.000	8
115.000	15
116.000	5
117.000	0
118.000	4
119.000	4
120.000	5
121.000	1
122.000	9
123.000	0
124.000	2
128.000	14
129.000	13
130.000	12
131.000	48
132.000	39
133.000	26
134.000	1
135.000	3
136.000	2
137.000	11
140.000	0
141.000	17
142.000	11
143.000	10
144.000	20
145.000	8
146.000	5
147.000	2
148.000	10
149.000	5
151.000	1
152.000	5
153.000	57
154.000	15
155.000	17
156.000	8
157.000	27
158.000	15
159.000	72
160.000	35
161.000	38
162.000	22
163.000	5
164.000	3
165.000	20
166.000	1
167.000	48
168.000	13
169.000	36
170.000	12
171.000	14
172.000	30
173.000	20
174.000	54
175.000	202
176.000	29
177.000	2
178.000	5
179.000	13
180.000	1
181.000	163
182.000	28
183.000	33
184.000	46
185.000	22
186.000	15
187.000	236
188.000	42
189.000	24
190.000	10
191.000	3
192.000	1
193.000	13
194.000	22
195.000	80
196.000	61
197.000	79
198.000	56
199.000	129
200.000	42
201.000	24
202.000	66
203.000	38
204.000	1
205.000	1
206.000	3
207.000	13
208.000	8
209.000	37
210.000	50
211.000	58
212.000	320
213.000	260
214.000	31
215.000	22
216.000	13
218.000	2
219.000	3
220.000	34
221.000	49
222.000	28
223.000	36
224.000	134
225.000	119
226.000	260
227.000	126
228.000	89
229.000	37
230.000	14
231.000	2
233.000	3
234.000	12
235.000	7
236.000	16
237.000	44
238.000	44
239.000	32
240.000	190
241.000	999
242.000	107
243.000	17
247.000	2
248.000	37
249.000	11
250.000	26
251.000	2
252.000	56
253.000	6
254.000	68
255.000	70
256.000	466
257.000	62
264.000	25
265.000	39
266.000	67
267.000	42
268.000	43
269.000	21
270.000	60
271.000	22
280.000	36
282.000	43
283.000	28
284.000	11
296.000	0
297.000	3
298.000	489
299.000	42
300.000	1
315.000	4
316.000	29
