Mass spectrum: Syringaldehyde; LC-ESI-QTOF; MS2; CE:15 eV; [M+H]+
Name: Syringaldehyde
Name: 4-hydroxy-3,5-dimethoxybenzaldehyde
Class: Natural Product; Benzaldehyde
Formula: C9H10O4
Exact mass: 182.05791
SMILES: COC1=CC(=CC(=C1O)OC)C=O
InChI: InChI=1S/C9H10O4/c1-12-7-3-6(5-10)4-8(13-2)9(7)11/h3-5,11H,1-2H3
Instrument: API QSTAR Pulsar i
Instrument type: LC-ESI-QTOF
Ms type: MS2
Ion mode: POSITIVE
Collision energy: 15 eV
Ionization: ESI
Precursor type: [M+H]+
m/z	relative intensity
77.042	25
95.053	139
123.047	999
140.050	159
155.073	950
182.061	12
183.072	779
