Mass spectrum: o-Anisic acid; LC-ESI-QTOF; MS2; CE:40 eV; [M+H]+
Name: o-Anisic acid
Name: 2-methoxybenzoic acid
Class: Natural Product; benzenoid
Formula: C8H8O3
Exact mass: 152.04734
SMILES: COC1=CC=CC=C1C(=O)O
InChI: InChI=1S/C8H8O3/c1-11-7-5-3-2-4-6(7)8(9)10/h2-5H,1H3,(H,9,10)
Instrument: API QSTAR Pulsar i
Instrument type: LC-ESI-QTOF
Ms type: MS2
Ion mode: POSITIVE
Collision energy: 40 eV
Ionization: ESI
Precursor type: [M+H]+
m/z	relative intensity
51.024	161
63.024	23
64.032	80
77.039	999
79.058	29
92.027	704
95.053	138
105.044	66
135.045	52
