Mass spectrum: Biochanin A; LC-ESI-QTOF; MS2; CE:25 eV; [M+H]+
Name: Biochanin A
Name: 5,7-dihydroxy-3-(4-methoxyphenyl)chromen-4-one
Class: Natural Product; Isoflavone
Formula: C16H12O5
Exact mass: 284.06847
SMILES: COC1=CC=C(C=C1)C2=COC3=CC(=CC(=C3C2=O)O)O
InChI: InChI=1S/C16H12O5/c1-20-11-4-2-9(3-5-11)12-8-21-14-7-10(17)6-13(18)15(14)16(12)19/h2-8,17-18H,1H3
Instrument: API QSTAR Pulsar i
Instrument type: LC-ESI-QTOF
Ms type: MS2
Ion mode: POSITIVE
Collision energy: 25 eV
Ionization: ESI
Precursor type: [M+H]+
m/z	relative intensity
123.043	18
149.023	20
152.010	36
153.018	10
229.084	60
242.054	25
253.048	37
269.043	20
270.052	79
285.058	999
286.071	39
