Mass spectrum: Serotonin; LC-ESI-QTOF; MS2; CE:25 eV; [M+H]+
Name: Serotonin
Name: 3-(2-aminoethyl)-1H-indol-5-ol
Class: Natural Product; Indole
Formula: C10H12N2O
Exact mass: 176.09496
SMILES: C1=CC2=C(C=C1O)C(=CN2)CCN
InChI: InChI=1S/C10H12N2O/c11-4-3-7-6-12-10-2-1-8(13)5-9(7)10/h1-2,5-6,12-13H,3-4,11H2
Instrument: API QSTAR Pulsar i
Instrument type: LC-ESI-QTOF
Ms type: MS2
Ion mode: POSITIVE
Collision energy: 25 eV
Ionization: ESI
Precursor type: [M+H]+
m/z	relative intensity
56.942	13
67.040	63
72.937	10
74.951	10
77.034	5
79.052	13
85.945	8
91.053	17
94.040	11
96.939	26
103.053	10
105.070	130
107.049	10
114.946	10
115.054	447
115.980	6
116.050	17
117.058	259
130.067	42
131.066	78
131.973	16
132.083	447
133.065	165
140.051	10
141.057	8
142.065	183
143.072	117
144.048	20
145.052	14
159.069	147
160.076	999
