Mass spectrum: Kaempferol; LC-ESI-QTOF; MS2; CE:55 eV; [M+H]+
Name: Kaempferol
Name: 3,5,7-trihydroxy-2-(4-hydroxyphenyl)chromen-4-one
Class: Natural Product; Flavonol
Formula: C15H10O6
Exact mass: 286.04774
SMILES: C1=CC(=CC=C1C2=C(C(=O)C3=C(C=C(C=C3O2)O)O)O)O
InChI: InChI=1S/C15H10O6/c16-8-3-1-7(2-4-8)15-14(20)13(19)12-10(18)5-9(17)6-11(12)21-15/h1-6,16-18,20H
Instrument: API QSTAR Pulsar i
Instrument type: LC-ESI-QTOF
Ms type: MS2
Ion mode: POSITIVE
Collision energy: 55 eV
Ionization: ESI
Precursor type: [M+H]+
m/z	relative intensity
53.036	16
55.015	28
57.067	11
65.037	82
67.017	71
68.996	389
70.062	10
77.037	100
78.045	7
79.054	85
81.033	48
83.013	17
89.036	9
91.052	48
93.034	82
94.041	8
95.047	32
97.028	37
103.053	22
105.039	100
106.043	14
107.049	152
108.023	37
109.027	63
111.043	77
115.053	175
116.058	12
117.065	30
119.051	90
121.030	737
122.034	21
123.042	15
125.023	17
127.049	70
128.060	231
129.064	97
131.049	64
132.053	9
133.029	20
134.032	9
135.046	20
136.014	31
137.022	124
139.054	77
140.059	7
141.069	26
143.049	41
144.055	9
145.061	75
147.044	89
151.042	11
153.018	999
154.022	30
155.059	66
156.060	9
157.066	210
158.066	10
160.053	16
161.055	37
163.041	21
165.020	58
166.030	8
167.051	19
168.059	23
171.047	66
183.041	14
184.055	39
185.063	43
187.041	12
188.051	8
195.050	12
197.058	7
201.058	14
203.037	9
212.053	8
213.059	134
216.044	24
229.052	108
230.056	8
241.052	16
257.053	16
258.048	17
269.043	11
285.041	11
