Mass spectrum: S,R-Noscapine; LC-ESI-QTOF; MS2; CE:20 eV; [M+H]+
Name: S,R-Noscapine
Name: (3S)-6,7-dimethoxy-3-[(5R)-4-methoxy-6-methyl-7,8-dihydro-5H-[1,3]dioxolo[4,5-g]isoquinolin-5-yl]-3H-2-benzofuran-1-one
Class: Natural Product
Formula: C22H23NO7
Exact mass: 413.14745
SMILES: CN1CCC2=CC3=C(C(=C2[C@@H]1[C@@H]4C5=C(C(=C(C=C5)OC)OC)C(=O)O4)OC)OCO3
InChI: InChI=1S/C22H23NO7/c1-23-8-7-11-9-14-20(29-10-28-14)21(27-4)15(11)17(23)18-12-5-6-13(25-2)19(26-3)16(12)22(24)30-18/h5-6,9,17-18H,7-8,10H2,1-4H3/t17-,18+/m1/s1
Instrument: micrOTOF-Q
Instrument type: LC-ESI-QTOF
Ms type: MS2
Ion mode: POSITIVE
Collision energy: 20 eV
Ionization: ESI
Precursor type: [M+H]+
m/z	relative intensity
165.053	0
179.068	28
180.072	2
191.067	0
193.050	0
204.065	0
205.071	18
206.078	26
207.080	1
210.145	0
218.079	7
219.085	10
220.094	999
221.098	105
222.100	2
236.088	0
248.089	14
249.089	1
263.066	0
264.077	0
265.075	0
276.072	0
277.080	1
279.090	0
280.071	1
281.083	0
291.061	1
292.069	3
293.073	1
294.080	0
295.091	6
296.098	1
297.104	1
302.053	0
303.062	0
304.068	0
305.076	2
306.061	1
307.087	7
308.093	4
309.091	1
310.079	2
312.094	3
313.102	1
319.059	0
320.066	2
321.073	4
322.079	10
323.087	42
324.093	22
325.101	17
326.103	1
327.116	4
332.063	1
334.079	17
335.086	14
336.091	3
337.100	4
338.085	5
339.114	4
340.103	0
341.097	2
343.113	0
348.091	0
349.099	1
350.074	38
351.079	8
352.091	17
353.097	383
354.100	62
355.111	13
356.121	1
363.108	0
364.104	0
365.097	101
366.099	20
367.111	4
368.138	1
371.107	5
372.112	0
378.128	7
379.123	1
381.116	17
382.119	2
383.107	11
384.113	1
396.139	22
397.142	3
399.127	0
414.149	217
415.153	44
416.156	1
