Mass spectrum: 4-Hydroxybenzoylcholine; LC-ESI-QTOF; MS2; CE:55 eV; M+
Name: 4-Hydroxybenzoylcholine
Name: 2-(4-hydroxybenzoyl)oxyethyl-trimethylazanium
Class: Natural Product; phenolic choline ester
Formula: [C12H18NO3]+
Exact mass: 224.12867
SMILES: C[N+](C)(C)CCOC(=O)C1=CC=C(C=C1)O
InChI: InChI=1S/C12H17NO3/c1-13(2,3)8-9-16-12(15)10-4-6-11(14)7-5-10/h4-7H,8-9H2,1-3H3/p+1
Instrument: API QSTAR Pulsar i
Instrument type: LC-ESI-QTOF
Ms type: MS2
Ion mode: POSITIVE
Collision energy: 55 eV
Ionization: ESI
Precursor type: [M]+
m/z	relative intensity
65.038	464
93.033	361
121.031	999
