Mass spectrum: Kinetin; LC-ESI-QTOF; MS2; CE:20 eV; [M+H]+
Name: Kinetin
Name: N-(furan-2-ylmethyl)-7H-purin-6-amine
Class: Natural Product
Formula: C10H9N5O
Exact mass: 215.08071
SMILES: C1=COC(=C1)CNC2=NC=NC3=C2NC=N3
InChI: InChI=1S/C10H9N5O/c1-2-7(16-3-1)4-11-9-8-10(13-5-12-8)15-6-14-9/h1-3,5-6H,4H2,(H2,11,12,13,14,15)
Instrument: micrOTOF-Q
Instrument type: LC-ESI-QTOF
Ms type: MS2
Ion mode: POSITIVE
Collision energy: 20 eV
Ionization: ESI
Precursor type: [M+H]+
m/z	relative intensity
119.035	57
120.041	3
121.049	37
122.051	0
134.065	1
135.065	31
136.060	157
137.061	9
144.052	5
145.048	2
146.055	8
147.066	7
148.060	999
148.131	1
149.062	66
159.067	4
160.066	3
161.080	21
162.078	12
171.065	58
172.061	24
173.067	146
174.071	20
186.072	0
187.084	0
188.091	209
189.095	20
197.067	1
198.076	23
199.071	2
201.063	2
216.086	112
217.088	15
