Mass spectrum: Nicotianamine; LC-ESI-QQ; MS2; CE:35 eV; [M-H]-
Name: Nicotianamine
Name: (2S)-1-[(3S)-3-{[(3S)-3-amino-3-carboxypropyl]amino}-3-carboxypropyl]azetidine-2-carboxylic acid
Class: Natural Product
Formula: C12H21N3O6
Exact mass: 303.14303
SMILES: C1CN([C@@H]1C(=O)O)CC[C@@H](C(=O)O)NCC[C@@H](C(=O)O)N
InChI: InChI=1S/C12H21N3O6/c13-7(10(16)17)1-4-14-8(11(18)19)2-5-15-6-3-9(15)12(20)21/h7-9,14H,1-6,13H2,(H,16,17)(H,18,19)(H,20,21)/t7-,8-,9-/m0/s1
Instrument: TSQ 7000
Instrument type: LC-ESI-QQ
Ms type: MS2
Ion mode: NEGATIVE
Collision energy: 35 eV
Ionization: ESI
Precursor type: [M-H]-
m/z	relative intensity
59.000	220
68.000	21
69.000	15
70.000	105
71.000	852
72.000	220
73.000	106
84.000	97
85.000	15
86.000	9
94.000	105
95.000	45
96.000	10
97.000	21
98.000	58
99.000	489
100.000	432
112.000	262
117.000	45
118.000	53
125.000	228
129.000	232
140.000	119
143.000	57
155.000	301
156.000	34
157.000	185
165.000	34
167.000	326
181.000	37
182.000	999
183.000	70
186.000	890
187.000	59
195.000	27
200.000	401
205.000	34
212.000	179
213.000	107
240.000	10
304.000	12
