Mass spectrum: Quercetin; LC-ESI-QTOF; MS2; CE:20 eV; [M+H]+
Name: Quercetin
Name: 2-(3,4-dihydroxyphenyl)-3,5,7-trihydroxychromen-4-one
Class: Natural Product; Flavonoids
Formula: C15H10O7
Exact mass: 302.04265
SMILES: C1=CC(=C(C=C1C2=C(C(=O)C3=C(C=C(C=C3O2)O)O)O)O)O
InChI: InChI=1S/C15H10O7/c16-7-4-10(19)12-11(5-7)22-15(14(21)13(12)20)6-1-2-8(17)9(18)3-6/h1-5,16-19,21H
Instrument: micrOTOF-Q
Instrument type: LC-ESI-QTOF
Ms type: MS2
Ion mode: POSITIVE
Collision energy: 20 eV
Ionization: ESI
Precursor type: [M+H]+
m/z	relative intensity
121.028	0
137.022	10
149.022	2
153.017	20
154.021	0
161.059	0
163.038	1
165.016	16
166.022	1
183.029	4
187.036	0
195.026	2
201.051	9
202.055	0
205.045	1
207.027	0
211.036	0
213.051	1
215.030	1
219.054	6
228.040	2
229.046	78
230.050	7
233.037	1
239.029	2
245.045	0
246.049	0
247.056	21
248.059	1
257.041	71
258.044	8
267.019	0
274.043	19
275.049	9
285.036	37
286.038	6
302.763	0
303.046	999
303.423	0
303.633	0
304.049	120
304.157	0
305.050	3
