Mass spectrum: Naringin; LC-ESI-QTOF; MS2; CE:25 eV; [M+H]+
Name: Naringin
Name: (2S)-7-[(2S,3R,4S,5S,6R)-4,5-dihydroxy-6-(hydroxymethyl)-3-[(2S,3R,4R,5R,6S)-3,4,5-trihydroxy-6-methyloxan-2-yl]oxyoxan-2-yl]oxy-5-hydroxy-2-(4-hydroxyphenyl)-2,3-dihydrochromen-4-one
Class: Natural Product
Formula: C27H32O14
Exact mass: 580.17921
SMILES: C[C@H]1[C@@H]([C@H]([C@H]([C@@H](O1)O[C@@H]2[C@H]([C@@H]([C@H](O[C@H]2OC3=CC(=C4C(=O)C[C@H](OC4=C3)C5=CC=C(C=C5)O)O)CO)O)O)O)O)O
InChI: InChI=1S/C27H32O14/c1-10-20(32)22(34)24(36)26(37-10)41-25-23(35)21(33)18(9-28)40-27(25)38-13-6-14(30)19-15(31)8-16(39-17(19)7-13)11-2-4-12(29)5-3-11/h2-7,10,16,18,20-30,32-36H,8-9H2,1H3/t10-,16-,18+,20-,21+,22+,23-,24+,25+,26-,27+/m0/s1
Instrument: micrOTOF-Q
Instrument type: LC-ESI-QTOF
Ms type: MS2
Ion mode: POSITIVE
Collision energy: 25 eV
Ionization: ESI
Precursor type: [M+H]+
m/z	relative intensity
121.064	0
129.052	0
147.042	16
148.046	0
153.016	142
154.020	6
171.027	17
172.030	0
179.032	4
195.026	16
196.029	0
219.025	12
220.030	0
231.060	3
245.041	4
249.038	0
255.068	0
261.035	6
263.052	15
264.053	1
271.054	0
273.072	999
274.075	123
275.077	3
279.046	2
281.062	3
285.071	12
286.075	0
297.068	10
298.073	0
315.082	13
316.087	1
339.081	17
340.087	1
351.081	4
363.079	1
365.096	4
369.091	0
381.091	2
383.109	3
384.112	0
399.104	2
401.114	0
417.115	1
435.123	0
