Mass spectrum: Kaempferol; LC-ESI-QQ; MS2; CE:30 eV; [M-H]-
Name: Kaempferol
Name: 3,5,7-trihydroxy-2-(4-hydroxyphenyl)chromen-4-one
Class: Natural Product; Flavonoids
Formula: C15H10O6
Exact mass: 286.04774
SMILES: C1=CC(=CC=C1C2=C(C(=O)C3=C(C=C(C=C3O2)O)O)O)O
InChI: InChI=1S/C15H10O6/c16-8-3-1-7(2-4-8)15-14(20)13(19)12-10(18)5-9(17)6-11(12)21-15/h1-6,16-18,20H
Instrument: TSQ QUANTUM AM
Instrument type: LC-ESI-QQ
Ms type: MS2
Ion mode: NEGATIVE
Collision energy: 30 eV
Ionization: ESI
Precursor type: [M-H]-
m/z	relative intensity
65.000	4
67.000	1
79.000	0
83.000	10
91.000	1
92.000	4
93.000	68
95.000	4
105.000	9
107.000	30
108.000	17
109.000	35
115.000	4
116.000	1
117.000	35
119.000	17
120.000	11
121.000	6
123.000	10
124.000	0
127.000	0
129.000	4
130.000	15
131.000	24
132.000	2
133.000	23
134.000	0
135.000	29
136.000	13
137.000	34
139.000	1
141.000	11
142.000	0
143.000	67
145.000	72
146.000	4
147.000	8
148.000	2
149.000	2
151.000	26
152.000	2
153.000	4
154.000	72
155.000	48
156.000	18
157.000	77
158.000	18
159.000	117
160.000	0
161.000	61
162.000	1
163.000	43
164.000	30
165.000	9
167.000	60
168.000	25
169.000	73
170.000	5
171.000	112
172.000	3
173.000	60
174.000	9
175.000	5
179.000	4
181.000	1
182.000	11
183.000	51
184.000	35
185.000	163
186.000	6
187.000	137
189.000	18
190.000	0
191.000	7
192.000	6
193.000	0
194.000	0
195.000	36
196.000	11
197.000	9
198.000	21
199.000	11
200.000	4
201.000	50
202.000	1
210.000	15
211.000	124
212.000	14
213.000	62
214.000	84
215.000	37
217.000	3
219.000	19
222.000	0
223.000	4
224.000	0
226.000	1
227.000	93
228.000	2
229.000	113
238.000	1
239.000	187
240.000	28
241.000	15
242.000	2
243.000	55
255.000	94
256.000	12
257.000	21
266.000	3
267.000	25
268.000	21
270.000	0
283.000	1
284.000	14
285.000	999
