Mass spectrum: 5-Hydroxytryptophan; LC-ESI-QTOF; MS2; CE:25 eV; [M+H]+
Name: 5-Hydroxytryptophan
Name: 2-amino-3-(5-hydroxy-1H-indol-3-yl)propanoic acid
Class: Natural Product; Amino acid
Formula: C11H12N2O3
Exact mass: 220.08479
SMILES: C1=CC2=C(C=C1O)C(=CN2)CC(C(=O)O)N
InChI: InChI=1S/C11H12N2O3/c12-9(11(15)16)3-6-5-13-10-2-1-7(14)4-8(6)10/h1-2,4-5,9,13-14H,3,12H2,(H,15,16)
Instrument: API QSTAR Pulsar i
Instrument type: LC-ESI-QTOF
Ms type: MS2
Ion mode: POSITIVE
Collision energy: 25 eV
Ionization: ESI
Precursor type: [M+H]+
m/z	relative intensity
41.038	2
43.018	2
55.062	1
57.062	13
59.044	2
69.062	4
71.092	4
73.035	3
74.023	8
81.067	2
91.056	7
95.094	4
105.081	3
106.066	7
109.109	4
115.048	5
116.050	2
117.062	7
119.103	1
121.022	6
121.054	3
131.053	12
132.082	41
133.092	13
134.060	237
135.072	7
137.058	4
139.053	2
142.075	8
143.079	4
146.056	31
147.060	5
148.072	49
158.059	84
159.065	38
160.073	229
161.083	5
162.053	999
163.053	22
175.085	62
175.135	5
176.074	8
186.055	100
203.174	2
204.066	339
205.075	14
