Mass spectrum: Hesperidin methyl chalcone; LC-ESI-QTOF; MS2; CE:10 eV; [M+H]+
Name: Hesperidin methyl chalcone
Name: (E)-3-(3-hydroxy-4-methoxyphenyl)-1-[2-hydroxy-6-methoxy-4-[(2S,3R,4S,5S,6R)-3,4,5-trihydroxy-6-[[(2R,3R,4R,5R,6S)-3,4,5-trihydroxy-6-methyloxan-2-yl]oxymethyl]oxan-2-yl]oxyphenyl]prop-2-en-1-one
Class: Natural Product
Formula: C29H36O15
Exact mass: 624.20542
SMILES: C[C@H]1[C@@H]([C@H]([C@H]([C@@H](O1)OC[C@@H]2[C@H]([C@@H]([C@H]([C@@H](O2)OC3=CC(=C(C(=C3)OC)C(=O)/C=C/C4=CC(=C(C=C4)OC)O)O)O)O)O)O)O)O
InChI: InChI=1S/C29H36O15/c1-12-22(33)24(35)26(37)28(42-12)41-11-20-23(34)25(36)27(38)29(44-20)43-14-9-17(32)21(19(10-14)40-3)15(30)6-4-13-5-7-18(39-2)16(31)8-13/h4-10,12,20,22-29,31-38H,11H2,1-3H3/b6-4+/t12-,20+,22-,23+,24+,25-,26+,27+,28+,29+/m0/s1
Instrument: micrOTOF-Q
Instrument type: LC-ESI-QTOF
Ms type: MS2
Ion mode: POSITIVE
Collision energy: 10 eV
Ionization: ESI
Precursor type: [M+H]+
m/z	relative intensity
129.054	2
147.064	1
153.020	0
195.026	0
245.041	0
255.084	1
263.053	3
273.093	1
281.062	32
282.065	2
297.059	0
299.072	2
301.103	3
302.107	0
309.114	6
315.077	1
316.747	0
316.881	0
317.097	999
317.705	0
318.101	134
319.103	5
329.098	1
341.096	3
359.108	70
360.111	10
383.106	13
384.112	0
409.122	0
425.110	1
427.132	42
428.135	6
443.128	1
445.143	100
446.146	16
447.148	0
461.137	20
462.139	2
463.153	281
463.406	0
464.157	50
465.164	2
477.133	2
478.136	1
479.148	153
480.151	28
481.152	0
503.151	2
505.161	1
521.155	0
571.170	1
589.181	1
607.190	1
623.194	1
624.200	2
625.203	28
626.208	6
