Mass spectrum: Harmane; LC-ESI-QTOF; MS2; CE:25 eV; [M+H]+
Name: Harmane
Name: 1-methyl-9H-pyrido[3,4-b]indole
Class: Natural Product
Formula: C12H10N2
Exact mass: 182.08440
SMILES: CC1=NC=CC2=C1NC3=CC=CC=C23
InChI: InChI=1S/C12H10N2/c1-8-12-10(6-7-13-8)9-4-2-3-5-11(9)14-12/h2-7,14H,1H3
Instrument: micrOTOF-Q
Instrument type: LC-ESI-QTOF
Ms type: MS2
Ion mode: POSITIVE
Collision energy: 25 eV
Ionization: ESI
Precursor type: [M+H]+
m/z	relative intensity
114.044	1
115.052	325
116.055	30
117.056	1
127.052	1
128.059	21
129.067	26
130.068	4
139.054	2
140.048	39
141.055	33
142.063	116
143.068	13
145.064	3
146.059	0
154.063	28
155.071	15
156.079	31
157.080	2
166.063	15
167.062	47
168.066	273
169.069	25
181.074	43
182.082	217
182.938	0
183.089	999
183.379	0
184.092	112
185.069	12
