Mass spectrum: Asparagine; LC-ESI-QTOF; MS2; CE:30 eV; [M+H]+
Name: Asparagine
Name: 2,4-diamino-4-oxobutanoic acid
Class: Natural Product; amino acid
Formula: C4H8N2O3
Exact mass: 132.05349
SMILES: C(C(C(=O)O)N)C(=O)N
InChI: InChI=1S/C4H8N2O3/c5-2(4(8)9)1-3(6)7/h2H,1,5H2,(H2,6,7)(H,8,9)
Instrument: API QSTAR Pulsar i
Instrument type: LC-ESI-QTOF
Ms type: MS2
Ion mode: POSITIVE
Collision energy: 30 eV
Ionization: ESI
Precursor type: [M+H]+
m/z	relative intensity
43.019	53
44.050	64
45.043	14
46.030	67
60.045	23
70.030	139
71.015	3
74.024	999
79.056	3
87.056	44
88.040	12
91.055	9
98.027	4
99.010	12
105.071	15
116.036	10
