Mass spectrum: Naringenin; LC-ESI-QTOF; MS2; CE:25 eV; [M+H]+
Name: Naringenin
Name: 5,7-dihydroxy-2-(4-hydroxyphenyl)chroman-4-one
Class: Natural Product; Flavanone
Formula: C15H12O5
Exact mass: 272.06847
SMILES: C1[C@H](OC2=CC(=CC(=C2C1=O)O)O)C3=CC=C(C=C3)O
InChI: InChI=1S/C15H12O5/c16-9-3-1-8(2-4-9)13-7-12(19)15-11(18)5-10(17)6-14(15)20-13/h1-6,13,16-18H,7H2/t13-/m0/s1
Instrument: API QSTAR Pulsar i
Instrument type: LC-ESI-QTOF
Ms type: MS2
Ion mode: POSITIVE
Collision energy: 25 eV
Ionization: ESI
Precursor type: [M+H]+
m/z	relative intensity
119.051	45
123.044	36
147.044	606
148.048	10
151.039	11
153.018	999
154.023	26
179.036	13
189.058	16
255.067	15
273.076	527
274.081	23
