Mass spectrum: Xanthohumol; LC-ESI-QQ; MS2; CE:15 eV; [M-H]-
Name: Xanthohumol
Name: (E)-1-[2,4-dihydroxy-6-methoxy-3-(3-methylbut-2-enyl)phenyl]-3-(4-hydroxyphenyl)prop-2-en-1-one
Class: Natural Product; Chalcones
Formula: C21H22O5
Exact mass: 354.14672
SMILES: CC(=CCC1=C(C(=C(C=C1O)OC)C(=O)/C=C/C2=CC=C(C=C2)O)O)C
InChI: InChI=1S/C21H22O5/c1-13(2)4-10-16-18(24)12-19(26-3)20(21(16)25)17(23)11-7-14-5-8-15(22)9-6-14/h4-9,11-12,22,24-25H,10H2,1-3H3/b11-7+
Instrument: TSQ QUANTUM AM
Instrument type: LC-ESI-QQ
Ms type: MS2
Ion mode: NEGATIVE
Collision energy: 15 eV
Ionization: ESI
Precursor type: [M-H]-
m/z	relative intensity
119.000	51
131.000	0
145.000	0
165.000	1
173.000	0
175.000	1
189.000	2
190.000	1
218.000	6
233.000	221
247.000	3
283.000	1
295.000	5
309.000	0
310.000	0
311.000	0
321.000	0
338.000	0
353.000	999
