Mass spectrum: Rotenone; LC-ESI-QTOF; MS2; CE:20 eV; [M+H]+
Name: Rotenone
Name: (2R,6aS,12aS)-1,2,6,6a,12,12a-hexahydro-2-isopropenyl-8,9-dimethoxychromeno[3,4-b]furo(2,3-h)chromen-6-one
Class: Natural Product; Flavonoids
Formula: C23H22O6
Exact mass: 394.14164
SMILES: CC(=C)[C@H]1CC2=C(O1)C=CC3=C2O[C@@H]4COC5=CC(=C(C=C5[C@@H]4C3=O)OC)OC
InChI: InChI=1S/C23H22O6/c1-11(2)16-8-14-15(28-16)6-5-12-22(24)21-13-7-18(25-3)19(26-4)9-17(13)27-10-20(21)29-23(12)14/h5-7,9,16,20-21H,1,8,10H2,2-4H3/t16-,20-,21+/m1/s1
Instrument: micrOTOF-Q
Instrument type: LC-ESI-QTOF
Ms type: MS2
Ion mode: POSITIVE
Collision energy: 20 eV
Ionization: ESI
Precursor type: [M+H]+
m/z	relative intensity
123.042	0
124.049	6
133.023	0
133.060	3
134.068	0
135.042	15
136.050	3
137.059	3
139.074	81
140.074	4
144.056	0
145.063	1
147.043	2
147.077	19
148.049	1
148.083	0
149.020	1
149.061	0
150.062	1
151.074	13
152.050	0
153.052	3
155.069	7
159.043	2
161.032	1
161.056	17
162.065	16
163.068	4
165.054	0
165.072	0
165.089	5
167.068	169
168.073	8
169.062	1
171.074	7
172.084	0
173.059	0
174.058	0
175.041	1
175.073	11
176.043	4
177.052	13
178.060	12
179.068	175
180.073	11
181.051	4
183.065	1
185.060	1
185.090	4
187.035	0
189.088	121
190.093	12
191.067	116
191.317	0
192.076	559
192.149	0
192.204	0
192.226	0
193.081	115
194.085	7
195.076	54
196.081	4
197.054	1
198.066	23
199.068	5
201.087	5
203.067	353
204.070	35
205.044	1
205.073	0
207.066	2
207.098	1
209.094	0
211.075	3
212.084	0
213.088	999
213.228	0
214.091	122
215.076	3
215.101	9
216.114	0
217.085	5
218.091	1
219.062	35
220.070	54
221.078	3
221.111	10
223.072	14
224.073	0
226.065	3
227.067	5
227.096	0
229.082	20
230.082	2
231.089	0
233.111	3
241.082	363
241.178	1
241.211	0
242.086	41
243.104	1
244.101	0
245.110	4
257.113	3
259.094	2
275.103	0
283.076	0
289.125	0
294.086	0
295.059	0
296.098	0
298.081	0
299.087	7
300.102	0
307.092	0
307.123	2
309.068	4
311.088	9
312.095	17
313.097	3
317.111	1
321.108	6
323.083	0
324.095	0
325.098	0
327.081	25
328.084	3
331.103	0
335.124	14
336.129	12
337.088	1
337.131	4
339.149	4
340.155	1
346.114	1
349.128	8
350.136	1
351.119	1
352.127	6
353.116	2
359.128	1
359.649	0
362.113	1
363.121	2
364.123	13
365.132	14
366.137	3
367.148	158
367.269	1
368.150	35
368.239	0
369.152	0
377.133	50
378.137	7
380.121	5
381.129	0
394.806	0
395.143	773
395.321	2
395.544	0
395.720	0
395.805	0
396.147	167
396.325	0
397.152	7
