Mass spectrum: Laudanosine; LC-ESI-QTOF; MS2; CE:15 eV; [M+H]+
Name: Laudanosine
Name: 1-[(3,4-dimethoxyphenyl)methyl]-6,7-dimethoxy-2-methyl-3,4-dihydro-1H-isoquinoline
Class: Natural Product
Formula: C21H27NO4
Exact mass: 357.19401
SMILES: CN1CCC2=CC(=C(C=C2C1CC3=CC(=C(C=C3)OC)OC)OC)OC
InChI: InChI=1S/C21H27NO4/c1-22-9-8-15-12-20(25-4)21(26-5)13-16(15)17(22)10-14-6-7-18(23-2)19(11-14)24-3/h6-7,11-13,17H,8-10H2,1-5H3
Instrument: micrOTOF-Q
Instrument type: LC-ESI-QTOF
Ms type: MS2
Ion mode: POSITIVE
Collision energy: 15 eV
Ionization: ESI
Precursor type: [M+H]+
m/z	relative intensity
151.074	26
152.076	0
158.072	0
165.089	11
166.092	0
174.067	3
177.087	0
188.103	0
189.089	62
190.090	8
191.096	2
192.100	0
203.104	0
205.979	0
206.115	999
207.118	94
208.122	0
220.131	0
255.133	2
264.111	1
268.106	0
281.113	0
283.128	4
284.135	1
295.128	7
296.137	20
297.140	4
298.128	0
299.122	0
300.134	1
301.140	0
312.132	6
313.133	0
315.154	37
316.159	4
326.170	1
327.155	225
328.159	37
329.170	9
330.175	0
341.171	1
343.173	0
358.197	903
359.200	154
360.203	3
