Mass spectrum: Berberine; LC-ESI-QTOF; MS2; CE:30 eV; [M]+
Name: Berberine
Name: 9,10-dimethoxy-5,6-dihydro[1,3]dioxolo[4,5-g]isoquino[3,2-a]isoquinolin-7-ium
Class: Natural Product
Formula: [C20H18NO4]+
Exact mass: 336.12358
SMILES: COC1=C(C2=C[N+]3=C(C=C2C=C1)C4=CC5=C(C=C4CC3)OCO5)OC
InChI: InChI=1S/C20H18NO4/c1-22-17-4-3-12-7-16-14-9-19-18(24-11-25-19)8-13(14)5-6-21(16)10-15(12)20(17)23-2/h3-4,7-10H,5-6,11H2,1-2H3/q+1
Instrument: micrOTOF-Q
Instrument type: LC-ESI-QTOF
Ms type: MS2
Ion mode: POSITIVE
Collision energy: 30 eV
Ionization: ESI
Precursor m/z: 336.12358
Precursor type: [M]+
m/z	relative intensity
219.067	0
220.074	1
233.078	0
234.086	3
235.075	1
246.088	0
248.068	3
249.075	3
250.081	2
251.096	0
260.069	0
261.072	0
262.081	5
263.087	26
264.096	11
265.101	0
274.082	3
275.090	54
276.094	15
277.071	13
278.077	457
279.080	64
280.084	0
288.059	0
289.070	1
290.077	8
291.085	45
292.093	714
293.096	110
294.092	1
303.083	0
304.092	275
305.095	45
306.072	378
307.077	82
308.082	4
318.071	112
319.075	15
319.833	0
320.087	999
321.092	252
322.098	19
336.115	24
337.121	2
