Mass spectrum: Acetylcholine; LC-ESI-QTOF; MS2; CE:20 eV; M+
Name: Acetylcholine
Name: 2-acetyloxyethyl-trimethylazanium
Class: Natural Product; choline ester
Formula: [C7H16NO2]+
Exact mass: 146.11810
SMILES: CC(=O)OCC[N+](C)(C)C
InChI: InChI=1S/C7H16NO2/c1-7(9)10-6-5-8(2,3)4/h5-6H2,1-4H3/q+1
Instrument: API QSTAR Pulsar i
Instrument type: LC-ESI-QTOF
Ms type: MS2
Ion mode: POSITIVE
Collision energy: 20 eV
Ionization: ESI
Precursor type: [M]+
m/z	relative intensity
43.017	15
60.080	57
87.041	999
146.115	92
