Mass spectrum: Biochanin A; LC-ESI-QTOF; MS2; CE:20 eV; [M+H]+
Name: Biochanin A
Name: 5,7-dihydroxy-3-(4-methoxyphenyl)chromen-4-one
Class: Natural Product; Phytoestrogens
Formula: C16H12O5
Exact mass: 284.06847
SMILES: COC1=CC=C(C=C1)C2=COC3=CC(=CC(=C3C2=O)O)O
InChI: InChI=1S/C16H12O5/c1-20-11-4-2-9(3-5-11)12-8-21-14-7-10(17)6-13(18)15(14)16(12)19/h2-8,17-18H,1H3
Instrument: micrOTOF-Q
Instrument type: LC-ESI-QTOF
Ms type: MS2
Ion mode: POSITIVE
Collision energy: 20 eV
Ionization: ESI
Precursor type: [M+H]+
m/z	relative intensity
123.042	6
124.015	1
133.063	1
149.021	13
150.025	0
152.008	29
153.015	9
158.034	1
163.037	0
170.018	9
179.032	5
187.075	0
197.057	2
198.064	0
201.053	1
211.071	1
213.051	22
214.058	6
215.065	0
216.040	0
224.043	0
225.050	3
226.060	0
227.064	0
229.082	99
230.086	9
239.065	0
241.046	10
242.053	71
243.057	9
252.037	15
253.045	87
254.048	11
255.060	3
257.076	8
261.071	0
267.059	0
269.040	67
270.047	205
271.051	22
284.831	0
284.894	0
285.071	999
285.391	0
285.602	0
286.074	115
287.077	3
