Mass spectrum: 3,4,5-Trimethoxycinnamic acid; LC-ESI-QTOF; MS2; CE:10 eV; [M+H]+
Name: 3,4,5-Trimethoxycinnamic acid
Name: (E)-3-(3,4,5-trimethoxyphenyl)prop-2-enoic acid
Class: Natural Product
Formula: C12H14O5
Exact mass: 238.08412
SMILES: COC1=CC(=CC(=C1OC)OC)/C=C/C(=O)O
InChI: InChI=1S/C12H14O5/c1-15-9-6-8(4-5-11(13)14)7-10(16-2)12(9)17-3/h4-7H,1-3H3,(H,13,14)/b5-4+
Instrument: micrOTOF-Q
Instrument type: LC-ESI-QTOF
Ms type: MS2
Ion mode: POSITIVE
Collision energy: 10 eV
Ionization: ESI
Precursor type: [M+H]+
m/z	relative intensity
147.042	1
148.050	0
149.057	0
161.057	0
162.065	5
163.070	4
164.077	0
165.087	0
167.068	1
169.083	5
175.037	0
176.044	0
177.052	2
178.060	5
179.067	3
180.075	1
189.052	4
190.060	52
191.035	21
192.038	2
193.083	41
194.087	2
195.099	4
197.078	12
198.082	0
205.047	1
206.054	57
207.060	9
208.070	30
209.075	4
220.907	0
221.078	999
222.081	91
223.080	3
224.064	5
239.088	115
240.091	10
