Mass spectrum: Indole-3-acetonitrile; LC-ESI-QTOF; MS2; CE:10 eV; [M+H]+
Name: Indole-3-acetonitrile
Name: 2-(1H-indol-3-yl)acetonitrile
Class: Natural Product
Formula: C10H8N2
Exact mass: 156.06875
SMILES: C1=CC=C2C(=C1)C(=CN2)CC#N
InChI: InChI=1S/C10H8N2/c11-6-5-8-7-12-10-4-2-1-3-9(8)10/h1-4,7,12H,5H2
Instrument: micrOTOF-Q
Instrument type: LC-ESI-QTOF
Ms type: MS2
Ion mode: POSITIVE
Collision energy: 10 eV
Ionization: ESI
Precursor type: [M+H]+
m/z	relative intensity
117.056	150
118.059	12
128.049	3
129.052	0
130.064	999
130.342	0
131.067	84
132.070	0
146.059	0
155.059	6
156.064	3
157.074	48
158.077	3
