Mass spectrum: Biochanin A; LC-ESI-QTOF; MS2; CE:40 eV; [M+H]+
Name: Biochanin A
Name: 5,7-dihydroxy-3-(4-methoxyphenyl)chromen-4-one
Class: Natural Product; Isoflavone
Formula: C16H12O5
Exact mass: 284.06847
SMILES: COC1=CC=C(C=C1)C2=COC3=CC(=CC(=C3C2=O)O)O
InChI: InChI=1S/C16H12O5/c1-20-11-4-2-9(3-5-11)12-8-21-14-7-10(17)6-13(18)15(14)16(12)19/h2-8,17-18H,1H3
Instrument: API QSTAR Pulsar i
Instrument type: LC-ESI-QTOF
Ms type: MS2
Ion mode: POSITIVE
Collision energy: 40 eV
Ionization: ESI
Precursor type: [M+H]+
m/z	relative intensity
67.016	8
68.995	13
79.053	11
90.044	20
96.018	13
103.053	23
105.066	36
107.047	27
111.010	35
115.052	15
118.040	293
119.047	29
121.036	96
123.040	274
124.012	319
129.064	11
130.042	25
131.049	26
132.052	19
133.062	132
135.043	16
136.016	9
139.041	26
141.070	32
144.052	20
145.058	51
146.070	8
149.022	286
151.041	8
152.009	791
153.018	353
155.058	17
157.062	16
158.038	288
159.060	32
161.078	34
163.041	22
167.039	9
168.059	50
169.066	41
170.026	85
171.052	25
172.053	18
173.066	27
179.037	78
181.068	10
183.066	45
184.054	17
185.062	59
186.067	69
187.074	21
196.054	32
197.061	174
198.068	22
199.062	14
200.049	21
201.067	42
211.066	37
212.056	20
213.057	766
214.065	144
215.068	10
216.045	40
224.049	37
225.056	99
226.064	26
227.050	19
229.088	470
230.091	13
241.052	357
242.060	999
243.064	36
252.047	81
253.054	495
254.060	19
269.050	544
270.058	474
271.061	14
285.076	436
286.080	15
