Mass spectrum: Codeine; LC-ESI-QQ; MS2; CE:38 eV; [M+H]+
Name: Codeine
Name: 7,8-Didehydro-4,5-epoxy-3-methoxy-17-methyl-(5,6)-morphinan-6-ol
Class: Natural Product; Morphinan Alkaloids
Formula: C18H21NO3
Exact mass: 299.15214
SMILES: CN1CC[C@]23[C@@H]4[C@H]1CC5=C2C(=C(C=C5)OC)O[C@H]3[C@H](C=C4)O
InChI: InChI=1S/C18H21NO3/c1-19-8-7-18-11-4-5-13(20)17(18)22-16-14(21-2)6-3-10(15(16)18)9-12(11)19/h3-6,11-13,17,20H,7-9H2,1-2H3/t11-,12+,13-,17-,18-/m0/s1
Instrument: TSQ 7000
Instrument type: LC-ESI-QQ
Ms type: MS2
Ion mode: POSITIVE
Collision energy: 38 eV
Ionization: ESI
Precursor type: [M+H]+
m/z	relative intensity
29.000	2
30.000	29
31.000	12
32.000	5
33.000	0
41.000	5
42.000	12
43.000	27
44.000	328
45.000	18
46.000	1
53.000	1
55.000	96
56.000	25
57.000	88
58.000	485
59.000	4
60.000	3
65.000	0
67.000	24
68.000	1
69.000	26
70.000	6
71.000	17
72.000	0
77.000	17
79.000	16
80.000	2
81.000	20
82.000	2
83.000	24
84.000	2
85.000	0
86.000	0
91.000	36
92.000	1
93.000	21
94.000	10
95.000	12
96.000	3
97.000	12
98.000	1
103.000	15
104.000	0
105.000	10
106.000	0
107.000	16
108.000	8
109.000	2
110.000	2
112.000	0
115.000	48
116.000	9
117.000	15
118.000	3
119.000	6
120.000	3
121.000	53
122.000	11
123.000	2
124.000	2
127.000	28
128.000	52
129.000	53
130.000	4
131.000	45
132.000	23
133.000	7
134.000	8
135.000	6
136.000	3
137.000	156
138.000	8
139.000	3
140.000	1
141.000	164
142.000	14
143.000	46
144.000	208
145.000	40
146.000	40
147.000	22
148.000	11
149.000	15
150.000	5
151.000	14
152.000	65
153.000	368
154.000	65
155.000	539
156.000	105
157.000	63
158.000	143
159.000	250
160.000	31
161.000	393
162.000	25
163.000	16
164.000	30
165.000	999
166.000	86
167.000	87
168.000	174
169.000	78
170.000	54
171.000	483
172.000	202
173.000	54
174.000	68
175.000	106
176.000	18
177.000	49
178.000	91
179.000	94
180.000	39
181.000	527
182.000	162
183.000	627
184.000	101
185.000	220
186.000	112
187.000	368
188.000	21
189.000	40
190.000	59
191.000	157
192.000	40
193.000	293
194.000	341
195.000	90
196.000	25
197.000	181
198.000	190
199.000	902
200.000	157
201.000	119
202.000	38
203.000	41
204.000	6
205.000	32
206.000	17
207.000	74
208.000	78
209.000	228
210.000	182
211.000	122
212.000	144
213.000	212
214.000	39
215.000	564
216.000	46
217.000	3
218.000	26
219.000	83
220.000	88
221.000	116
222.000	29
223.000	240
224.000	42
225.000	503
226.000	54
227.000	35
228.000	41
229.000	10
230.000	6
231.000	1
232.000	3
233.000	5
234.000	13
235.000	27
236.000	77
237.000	28
238.000	43
239.000	48
240.000	17
241.000	229
242.000	17
243.000	162
244.000	11
246.000	0
248.000	29
249.000	10
250.000	56
251.000	53
252.000	39
253.000	23
254.000	17
255.000	0
256.000	5
257.000	4
264.000	3
265.000	4
266.000	168
267.000	49
268.000	9
269.000	8
270.000	2
272.000	1
280.000	1
281.000	0
282.000	38
283.000	3
284.000	1
285.000	18
286.000	0
298.000	2
299.000	5
300.000	935
301.000	89
