Mass spectrum: Tetrahydropapaveroline; LC-ESI-QTOF; MS2; CE:30 eV; [M+H]+
Name: Tetrahydropapaveroline
Name: 1-[(3,4-dihydroxyphenyl)methyl]-1,2,3,4-tetrahydroisoquinoline-6,7-diol
Class: Natural Product
Formula: C16H17NO4
Exact mass: 287.11576
SMILES: C1CNC(C2=CC(=C(C=C21)O)O)CC3=CC(=C(C=C3)O)O
InChI: InChI=1S/C16H17NO4/c18-13-2-1-9(6-14(13)19)5-12-11-8-16(21)15(20)7-10(11)3-4-17-12/h1-2,6-8,12,17-21H,3-5H2
Instrument: micrOTOF-Q
Instrument type: LC-ESI-QTOF
Ms type: MS2
Ion mode: POSITIVE
Collision energy: 30 eV
Ionization: ESI
Precursor type: [M+H]+
m/z	relative intensity
115.052	272
116.054	26
117.044	0
117.065	1
118.061	6
119.046	9
121.065	2
123.042	924
124.046	51
125.051	0
128.059	0
130.038	0
131.047	17
133.063	30
134.062	2
135.040	4
136.050	7
137.058	110
138.061	6
141.070	1
142.042	0
142.073	0
143.047	582
144.052	78
145.060	6
146.057	13
147.043	51
148.042	9
149.046	105
149.066	1
150.057	4
151.053	1
152.061	9
153.066	9
154.075	2
155.050	0
155.084	5
160.051	19
160.998	0
161.057	206
162.064	37
163.043	0
163.065	4
164.068	999
165.071	92
167.081	5
167.167	0
168.054	6
169.063	6
169.098	3
170.107	0
173.054	2
176.060	4
177.068	9
178.076	114
179.082	216
180.085	20
181.063	17
182.038	0
182.070	14
183.076	4
184.049	0
184.070	0
186.067	0
187.069	0
189.065	34
190.072	6
192.053	6
193.058	2
195.078	9
196.047	0
197.059	18
197.079	6
198.060	4
199.068	2
200.085	0
205.060	15
206.070	15
207.077	188
207.155	0
208.081	33
208.246	0
209.057	3
209.103	0
210.065	217
210.151	1
211.069	45
212.067	0
212.091	0
213.056	20
213.088	4
214.056	6
214.108	0
217.058	9
217.702	0
218.065	6
220.053	8
221.054	15
222.070	0
223.070	18
224.077	11
225.087	131
226.056	1
226.086	17
227.066	6
228.072	5
232.983	0
234.065	14
235.072	66
236.078	23
237.052	9
238.060	53
239.066	37
240.074	2
241.039	2
242.054	55
243.057	7
249.059	0
251.066	2
252.076	0
253.081	39
254.083	5
254.156	0
255.063	12
255.120	0
256.069	88
256.143	0
257.070	8
263.904	0
264.917	0
270.416	0
271.079	1
