Mass spectrum: Methoxyindoleacetic acid; LC-ESI-QTOF; MS2; CE:50 eV; [M+H]+
Name: Methoxyindoleacetic acid
Name: 2-(5-methoxy-1H-indol-3-yl)acetic acid
Class: Natural Product; Indole
Formula: C11H11NO3
Exact mass: 205.07389
SMILES: COC1=CC2=C(C=C1)NC=C2CC(=O)O
InChI: InChI=1S/C11H11NO3/c1-15-8-2-3-10-9(5-8)7(6-12-10)4-11(13)14/h2-3,5-6,12H,4H2,1H3,(H,13,14)
Instrument: API QSTAR Pulsar i
Instrument type: LC-ESI-QTOF
Ms type: MS2
Ion mode: POSITIVE
Collision energy: 50 eV
Ionization: ESI
Precursor type: [M+H]+
m/z	relative intensity
45.032	4
65.038	2
75.022	4
77.037	103
78.037	4
79.052	23
89.035	45
90.044	198
91.051	27
95.048	12
101.038	10
102.046	9
103.054	149
104.050	74
105.063	18
115.052	4
116.048	36
117.057	999
118.050	137
119.043	9
128.047	17
129.045	11
130.062	33
132.041	29
133.061	100
134.061	5
144.039	4
145.049	273
146.058	34
160.075	68
