Mass spectrum: 4-methoxy-1H-indole-3-carbaldehyde; LC-ESI-QTOF; MS2; CE:55 eV; [M+H]+
Name: 4-methoxy-1H-indole-3-carbaldehyde
Class: Natural Product; Indole, Glucosinolate degradation product
Formula: C10H9NO2
Exact mass: 175.06333
SMILES: COC1=CC=CC2=C1C(=CN2)C=O
InChI: InChI=1S/C10H9NO2/c1-13-9-4-2-3-8-10(9)7(6-12)5-11-8/h2-6,11H,1H3
Instrument: API QSTAR Pulsar i
Instrument type: LC-ESI-QTOF
Ms type: MS2
Ion mode: POSITIVE
Collision energy: 55 eV
Ionization: ESI
Precursor m/z: 176.07115
Precursor type: [M+H]+
m/z	relative intensity
77.038	72
78.037	71
89.038	114
91.054	30
103.043	50
104.050	999
105.057	65
114.034	26
117.057	57
131.035	62
132.043	103
160.039	230
