Mass spectrum: Tyramine; LC-ESI-QTOF; MS2; CE:20 eV; [M+H]+
Name: Tyramine
Name: 4-(2-aminoethyl)phenol
Class: Natural Product; biogenic amine
Formula: C8H11NO
Exact mass: 137.08406
SMILES: C1=CC(=CC=C1CCN)O
InChI: InChI=1S/C8H11NO/c9-6-5-7-1-3-8(10)4-2-7/h1-4,10H,5-6,9H2
Instrument: API QSTAR Pulsar i
Instrument type: LC-ESI-QTOF
Ms type: MS2
Ion mode: POSITIVE
Collision energy: 20 eV
Ionization: ESI
Precursor type: [M+H]+
m/z	relative intensity
77.039	19
91.054	38
93.070	109
95.049	4
103.054	53
121.065	999
