Mass spectrum: Indole-3-carbinol; LC-ESI-QTOF; MS2; CE:40 eV; [M+H-H2O]+
Name: Indole-3-carbinol
Name: H-indol-3-ylmethanol
Class: Natural Product; Indole
Formula: C9H9NO
Exact mass: 147.06841
SMILES: C1=CC=C2C(=C1)C(=CN2)CO
InChI: InChI=1S/C9H9NO/c11-6-7-5-10-9-4-2-1-3-8(7)9/h1-5,10-11H,6H2
Instrument: API QSTAR Pulsar i
Instrument type: LC-ESI-QTOF
Ms type: MS2
Ion mode: POSITIVE
Collision energy: 40 eV
Ionization: ESI
Precursor type: [M+H-H2O]+
m/z	relative intensity
50.017	3
51.024	138
53.040	4
63.023	1
75.023	8
77.038	999
78.036	3
91.050	1
95.050	128
101.041	6
102.048	44
103.056	193
104.050	2
105.045	42
119.049	1
128.050	24
129.047	5
130.063	83
