Mass spectrum: Nicotianamine; LC-ESI-QQ; MS2; CE:25 eV; [M-H]-
Name: Nicotianamine
Name: (2S)-1-[(3S)-3-{[(3S)-3-amino-3-carboxypropyl]amino}-3-carboxypropyl]azetidine-2-carboxylic acid
Class: Natural Product
Formula: C12H21N3O6
Exact mass: 303.14303
SMILES: C1CN([C@@H]1C(=O)O)CC[C@@H](C(=O)O)NCC[C@@H](C(=O)O)N
InChI: InChI=1S/C12H21N3O6/c13-7(10(16)17)1-4-14-8(11(18)19)2-5-15-6-3-9(15)12(20)21/h7-9,14H,1-6,13H2,(H,16,17)(H,18,19)(H,20,21)/t7-,8-,9-/m0/s1
Instrument: TSQ 7000
Instrument type: LC-ESI-QQ
Ms type: MS2
Ion mode: NEGATIVE
Collision energy: 25 eV
Ionization: ESI
Precursor type: [M-H]-
m/z	relative intensity
55.000	5
68.000	47
71.000	219
84.000	4
86.000	9
96.000	45
99.000	164
100.000	69
111.000	47
114.000	6
117.000	249
118.000	32
139.000	20
140.000	128
150.000	1
156.000	9
157.000	86
158.000	2
165.000	15
167.000	63
171.000	14
182.000	999
184.000	102
186.000	461
187.000	76
197.000	1
199.000	57
200.000	397
201.000	259
202.000	75
212.000	382
213.000	87
214.000	23
218.000	55
222.000	3
224.000	14
230.000	19
238.000	23
239.000	95
240.000	120
241.000	109
251.000	25
255.000	43
256.000	24
257.000	2
258.000	188
267.000	27
277.000	17
284.000	580
285.000	28
302.000	96
303.000	9
