Mass spectrum: (+/-) Salsolinol; LC-ESI-QTOF; MS2; CE:30 eV; [M+H]+
Name: (+/-) Salsolinol
Name: 1-methyl-1,2,3,4-tetrahydroisoquinoline-6,7-diol
Class: Natural Product
Formula: C10H13NO2
Exact mass: 179.09463
SMILES: CC1C2=CC(=C(C=C2CCN1)O)O
InChI: InChI=1S/C10H13NO2/c1-6-8-5-10(13)9(12)4-7(8)2-3-11-6/h4-6,11-13H,2-3H2,1H3
Instrument: micrOTOF-Q
Instrument type: LC-ESI-QTOF
Ms type: MS2
Ion mode: POSITIVE
Collision energy: 30 eV
Ionization: ESI
Precursor type: [M+H]+
m/z	relative intensity
102.042	0
113.038	0
114.045	1
115.052	999
116.058	134
117.068	157
118.069	17
119.053	2
119.071	0
120.054	3
122.059	2
123.042	60
124.047	7
125.038	0
126.045	30
127.053	97
128.058	13
130.040	25
131.049	6
132.043	10
133.060	26
134.040	33
135.043	3
135.077	10
136.047	14
137.056	5
143.059	1
144.056	11
145.063	164
145.140	0
146.065	18
147.044	3
148.050	15
150.054	13
151.064	35
152.074	2
161.057	0
163.075	6
