Mass spectrum: Emetine; LC-ESI-QTOF; MS2; CE:30 eV; [M+H]+
Name: Emetine
Name: (2S,3R,11bS)-2-[[(1R)-6,7-dimethoxy-1,2,3,4-tetrahydroisoquinolin-1-yl]methyl]-3-ethyl-9,10-dimethoxy-2,3,4,6,7,11b-hexahydro-1H-pyrido[2,1-a]isoquinoline
Class: Natural Product
Formula: C29H40N2O4
Exact mass: 480.29881
SMILES: CC[C@H]1CN2CCC3=CC(=C(C=C3[C@@H]2C[C@@H]1C[C@@H]4C5=CC(=C(C=C5CCN4)OC)OC)OC)OC
InChI: InChI=1S/C29H40N2O4/c1-6-18-17-31-10-8-20-14-27(33-3)29(35-5)16-23(20)25(31)12-21(18)11-24-22-15-28(34-4)26(32-2)13-19(22)7-9-30-24/h13-16,18,21,24-25,30H,6-12,17H2,1-5H3/t18-,21-,24+,25-/m0/s1
Instrument: micrOTOF-Q
Instrument type: LC-ESI-QTOF
Ms type: MS2
Ion mode: POSITIVE
Collision energy: 30 eV
Ionization: ESI
Precursor type: [M+H]+
m/z	relative intensity
131.070	0
146.071	1
147.069	3
150.065	5
151.074	7
159.075	0
160.085	7
161.083	3
162.088	13
163.093	2
164.081	2
165.089	73
166.093	2
174.068	1
175.078	0
176.078	9
177.088	49
178.092	4
179.103	39
180.105	1
188.079	1
188.099	0
189.088	9
190.086	10
191.102	45
192.099	64
193.108	7
194.115	102
195.117	8
201.088	12
202.103	3
203.102	19
204.101	12
205.107	24
206.115	49
207.117	5
208.129	0
213.101	0
214.119	7
215.107	5
216.103	4
217.117	7
218.116	14
219.128	2
220.131	49
221.131	4
222.144	2
226.132	11
227.109	0
228.107	7
229.117	6
230.116	38
231.125	21
232.130	6
233.140	1
234.147	0
239.118	0
240.132	2
241.128	1
242.128	11
243.132	8
244.130	40
245.146	16
246.145	999
247.148	120
248.157	7
254.130	0
255.128	0
256.134	11
257.149	45
258.146	36
259.156	11
260.162	3
262.178	0
268.152	0
269.151	1
270.146	17
271.157	6
272.161	147
273.166	28
274.176	527
275.180	68
276.191	4
283.163	1
284.159	10
285.168	7
286.176	50
287.181	7
288.192	37
289.196	4
290.206	0
298.175	6
299.180	0
300.191	40
301.196	5
302.208	3
303.203	4
338.150	0
339.153	0
376.206	0
404.215	0
405.240	0
406.221	1
407.216	0
408.212	0
418.231	1
419.247	0
420.241	5
421.233	0
422.235	1
432.248	3
433.247	1
434.229	11
435.241	3
436.243	32
437.251	9
438.260	1
447.250	0
448.241	19
448.351	0
449.259	9
450.264	1
451.255	6
452.271	5
453.273	0
462.260	9
463.257	1
464.274	232
464.427	0
465.276	65
465.398	0
466.277	4
479.286	27
480.293	8
481.300	684
481.484	0
481.561	0
482.303	168
482.431	0
483.306	5
