Mass spectrum: Arginine; LC-ESI-QTOF; MS2; CE:20 eV; [M+H]+
Name: Arginine
Name: 2-amino-5-(diaminomethylideneamino)pentanoic acid
Class: Natural Product; amino acid
Formula: C6H14N4O2
Exact mass: 174.11168
SMILES: C(CC(C(=O)O)N)CN=C(N)N
InChI: InChI=1S/C6H14N4O2/c7-4(5(11)12)2-1-3-10-6(8)9/h4H,1-3,7H2,(H,11,12)(H4,8,9,10)
Instrument: API QSTAR Pulsar i
Instrument type: LC-ESI-QTOF
Ms type: MS2
Ion mode: POSITIVE
Collision energy: 20 eV
Ionization: ESI
Precursor type: [M+H]+
m/z	relative intensity
60.056	665
70.066	999
72.081	71
97.078	11
98.061	7
98.987	11
112.087	88
113.073	10
114.104	20
115.089	23
116.073	798
130.097	292
141.068	9
157.110	38
158.094	246
175.120	785
