Mass spectrum: Apomorphine; LC-ESI-QTOF; MS2; CE:20 eV; [M+H]+
Name: Apomorphine
Name: (6aS)-6-Methyl-5,6,6a,7-tetrahydro-4H-dibenzo[de,g]quinoline-10,11-diol
Class: Natural Product
Formula: C17H17NO2
Exact mass: 267.12593
SMILES: CN1CCC2=C3[C@H]1CC4=C(C3=CC=C2)C(=C(C=C4)O)O
InChI: InChI=1S/C17H17NO2/c1-18-8-7-10-3-2-4-12-15(10)13(18)9-11-5-6-14(19)17(20)16(11)12/h2-6,13,19-20H,7-9H2,1H3/t13-/m1/s1
Instrument: micrOTOF-Q
Instrument type: LC-ESI-QTOF
Ms type: MS2
Ion mode: POSITIVE
Collision energy: 20 eV
Ionization: ESI
Precursor type: [M+H]+
m/z	relative intensity
179.084	1
187.053	2
188.061	0
189.069	14
190.075	17
191.084	454
192.087	54
193.091	1
200.060	7
201.068	21
202.074	7
205.064	1
207.079	8
208.082	2
209.091	1
218.071	17
219.078	957
220.082	148
221.084	5
225.089	0
233.091	0
236.076	0
237.088	999
238.092	144
239.096	7
268.129	19
269.135	2
