Mass spectrum: Tetrahydropapaveroline; LC-ESI-QTOF; MS2; CE:10 eV; [M+H]+
Name: Tetrahydropapaveroline
Name: 1-[(3,4-dihydroxyphenyl)methyl]-1,2,3,4-tetrahydroisoquinoline-6,7-diol
Class: Natural Product
Formula: C16H17NO4
Exact mass: 287.11576
SMILES: C1CNC(C2=CC(=C(C=C21)O)O)CC3=CC(=C(C=C3)O)O
InChI: InChI=1S/C16H17NO4/c18-13-2-1-9(6-14(13)19)5-12-11-8-16(21)15(20)7-10(11)3-4-17-12/h1-2,6-8,12,17-21H,3-5H2
Instrument: micrOTOF-Q
Instrument type: LC-ESI-QTOF
Ms type: MS2
Ion mode: POSITIVE
Collision energy: 10 eV
Ionization: ESI
Precursor type: [M+H]+
m/z	relative intensity
123.042	13
137.058	0
143.048	5
149.059	0
161.058	33
162.063	2
164.069	172
165.072	12
225.088	1
235.072	1
243.097	0
253.083	9
254.087	0
271.093	277
272.096	34
273.097	0
287.098	0
287.909	0
288.119	999
288.537	0
289.123	131
290.125	3
