Mass spectrum: Isoleucine; LC-ESI-QTOF; MS2; CE:40 eV; [M+H]+
Name: Isoleucine
Name: 2-amino-3-methylpentanoic acid
Class: Natural Product; amino acid
Formula: C6H13NO2
Exact mass: 131.09463
SMILES: CCC(C)C(C(=O)O)N
InChI: InChI=1S/C6H13NO2/c1-3-4(2)5(7)6(8)9/h4-5H,3,7H2,1-2H3,(H,8,9)
Instrument: API QSTAR Pulsar i
Instrument type: LC-ESI-QTOF
Ms type: MS2
Ion mode: POSITIVE
Collision energy: 40 eV
Ionization: ESI
Precursor type: [M+H]+
m/z	relative intensity
39.023	138
41.040	524
42.036	32
43.054	27
44.052	999
45.035	185
53.042	15
55.057	76
56.052	572
57.060	875
58.067	140
59.051	23
62.933	8
67.057	30
69.073	533
70.068	45
71.074	29
73.067	15
86.099	212
