Mass spectrum: Biochanin A; LC-ESI-QTOF; MS2; CE:55 eV; [M+H]+
Name: Biochanin A
Name: 5,7-dihydroxy-3-(4-methoxyphenyl)chromen-4-one
Class: Natural Product; Isoflavone
Formula: C16H12O5
Exact mass: 284.06847
SMILES: COC1=CC=C(C=C1)C2=COC3=CC(=CC(=C3C2=O)O)O
InChI: InChI=1S/C16H12O5/c1-20-11-4-2-9(3-5-11)12-8-21-14-7-10(17)6-13(18)15(14)16(12)19/h2-8,17-18H,1H3
Instrument: API QSTAR Pulsar i
Instrument type: LC-ESI-QTOF
Ms type: MS2
Ion mode: POSITIVE
Collision energy: 55 eV
Ionization: ESI
Precursor type: [M+H]+
m/z	relative intensity
55.015	7
65.036	10
67.016	27
68.023	6
68.995	56
77.037	36
79.052	40
89.036	66
90.044	178
91.051	22
95.048	13
96.018	74
102.044	42
103.052	52
105.065	21
107.046	8
108.022	25
111.009	36
115.052	137
116.057	25
117.061	29
118.040	274
119.046	23
121.037	108
123.038	50
124.012	393
125.020	9
127.049	19
128.058	55
129.063	66
130.041	110
131.046	58
132.051	23
133.060	51
134.037	10
135.040	10
136.014	14
137.021	11
139.052	59
140.060	41
141.068	87
143.047	35
144.053	34
145.059	68
147.043	13
149.022	38
151.049	9
152.007	145
153.018	230
155.052	46
156.055	7
157.058	101
158.040	201
159.048	30
160.052	19
167.048	16
168.057	107
169.064	59
170.024	17
171.044	127
172.051	15
173.060	15
179.047	13
181.065	8
183.052	25
184.053	39
185.061	193
186.067	57
187.049	15
195.047	19
196.053	25
197.060	157
198.059	11
199.040	28
200.047	15
201.056	9
211.049	12
212.049	17
213.055	999
214.061	82
216.043	56
224.047	24
225.054	71
227.036	22
229.081	14
241.050	405
242.058	116
253.052	88
269.048	144
