Mass spectrum: Tryptophan; LC-ESI-QTOF; MS2; CE:40 eV; [M+H]+
Name: Tryptophan
Name: 2-amino-3-(1H-indol-3-yl)propanoic acid
Class: Natural Product; amino acid
Formula: C11H12N2O2
Exact mass: 204.08988
SMILES: C1=CC=C2C(=C1)C(=CN2)CC(C(=O)O)N
InChI: InChI=1S/C11H12N2O2/c12-9(11(14)15)5-7-6-13-10-4-2-1-3-8(7)10/h1-4,6,9,13H,5,12H2,(H,14,15)
Instrument: API QSTAR Pulsar i
Instrument type: LC-ESI-QTOF
Ms type: MS2
Ion mode: POSITIVE
Collision energy: 40 eV
Ionization: ESI
Precursor type: [M+H]+
m/z	relative intensity
65.039	8
74.024	16
89.037	7
90.045	3
91.055	192
93.035	7
103.057	16
105.072	14
115.054	327
116.058	57
117.060	291
118.066	999
119.069	19
121.031	17
127.053	27
128.052	21
130.066	138
131.072	13
132.081	147
140.050	10
141.058	4
142.066	126
143.075	309
144.081	100
145.067	9
146.062	126
149.025	9
155.061	10
159.093	14
170.061	30
