Mass spectrum: Genistein; LC-ESI-QTOF; MS2; CE:25 eV; [M+H]+
Name: Genistein
Name: 5,7-dihydroxy-3-(4-hydroxyphenyl)chromen-4-one
Class: Natural Product
Formula: C15H10O5
Exact mass: 270.05282
SMILES: C1=CC(=CC=C1C2=COC3=CC(=CC(=C3C2=O)O)O)O
InChI: InChI=1S/C15H10O5/c16-9-3-1-8(2-4-9)11-7-20-13-6-10(17)5-12(18)14(13)15(11)19/h1-7,16-18H
Instrument: micrOTOF-Q
Instrument type: LC-ESI-QTOF
Ms type: MS2
Ion mode: POSITIVE
Collision energy: 25 eV
Ionization: ESI
Precursor type: [M+H]+
m/z	relative intensity
115.052	5
117.068	1
119.047	8
121.027	9
127.051	1
128.060	6
129.068	4
131.047	23
131.084	1
132.052	0
133.026	3
133.063	1
134.032	0
135.041	7
136.045	0
137.022	6
141.068	49
142.072	3
144.055	5
145.028	51
146.031	1
147.042	15
147.078	6
148.081	0
149.021	99
150.028	13
151.049	1
152.061	5
153.016	349
154.019	20
155.046	6
157.064	6
159.042	49
160.046	3
161.054	0
163.040	2
165.016	31
166.019	0
168.055	1
169.062	99
170.065	9
171.034	1
173.056	18
174.065	0
175.073	11
176.075	0
177.015	0
177.056	0
178.021	2
179.042	1
181.061	7
183.036	18
184.046	4
185.055	11
186.062	1
187.070	42
188.041	0
188.076	3
191.033	5
196.050	0
197.057	122
198.060	21
199.069	2
200.044	29
201.052	22
202.056	1
203.036	1
203.067	0
205.047	0
207.038	0
209.045	0
211.035	9
213.051	34
214.058	6
215.067	550
216.070	68
217.063	3
219.064	4
224.041	1
225.052	66
226.058	23
227.066	17
228.039	15
229.046	18
230.049	0
235.034	3
241.045	6
242.054	29
242.817	0
243.061	452
244.064	58
245.069	1
247.057	4
252.037	2
253.046	304
253.199	0
254.048	45
255.053	1
269.034	0
271.056	999
271.349	0
271.427	0
272.059	150
273.062	8
