Mass spectrum: Harmane; LC-ESI-QTOF; MS2; CE:10 eV; [M+H]+
Name: Harmane
Name: 1-methyl-9H-pyrido[3,4-b]indole
Class: Natural Product
Formula: C12H10N2
Exact mass: 182.08440
SMILES: CC1=NC=CC2=C1NC3=CC=CC=C23
InChI: InChI=1S/C12H10N2/c1-8-12-10(6-7-13-8)9-4-2-3-5-11(9)14-12/h2-7,14H,1H3
Instrument: micrOTOF-Q
Instrument type: LC-ESI-QTOF
Ms type: MS2
Ion mode: POSITIVE
Collision energy: 10 eV
Ionization: ESI
Precursor type: [M+H]+
m/z	relative intensity
115.052	0
142.063	0
168.067	0
182.081	1
183.089	999
184.092	97
185.095	0
