Mass spectrum: Methionine; LC-ESI-QTOF; MS2; CE:15 eV; [M+H]+
Name: Methionine
Name: 2-amino-4-methylsulfanylbutanoic acid
Class: Natural Product; amino acid
Formula: C5H11NO2S
Exact mass: 149.05105
SMILES: CSCCC(C(=O)O)N
InChI: InChI=1S/C5H11NO2S/c1-9-3-2-4(6)5(7)8/h4H,2-3,6H2,1H3,(H,7,8)
Instrument: API QSTAR Pulsar i
Instrument type: LC-ESI-QTOF
Ms type: MS2
Ion mode: POSITIVE
Collision energy: 15 eV
Ionization: ESI
Precursor type: [M+H]+
m/z	relative intensity
56.051	254
61.012	46
74.060	23
102.056	168
104.054	999
133.033	667
150.058	422
