Mass spectrum: Ononin; LC-ESI-QTOF; MS2; CE:55 eV; [M+H]+
Name: Ononin
Name: 3-(4-methoxyphenyl)-7-[(2S,3R,4S,5S,6R)-3,4,5-trihydroxy-6-(hydroxymethyl)oxan-2-yl]oxychromen-4-one
Class: Natural Product
Formula: C22H22O9
Exact mass: 430.12638
SMILES: COC1=CC=C(C=C1)C2=COC3=C(C2=O)C=CC(=C3)O[C@H]4[C@@H]([C@H]([C@@H]([C@H](O4)CO)O)O)O
InChI: InChI=1S/C22H22O9/c1-28-12-4-2-11(3-5-12)15-10-29-16-8-13(6-7-14(16)18(15)24)30-22-21(27)20(26)19(25)17(9-23)31-22/h2-8,10,17,19-23,25-27H,9H2,1H3/t17-,19-,20+,21-,22-/m1/s1
Instrument: API QSTAR Pulsar i
Instrument type: LC-ESI-QTOF
Ms type: MS2
Ion mode: POSITIVE
Collision energy: 55 eV
Ionization: ESI
Precursor type: [M+H]+
m/z	relative intensity
98.983	11
107.047	51
108.018	6
118.038	142
133.060	21
136.013	68
137.021	50
152.059	7
153.068	7
154.024	12
156.056	15
158.073	5
163.040	22
169.065	11
170.074	21
181.068	40
182.076	22
185.101	6
195.083	12
197.061	102
198.070	48
209.064	8
213.093	294
225.053	68
226.061	235
237.055	357
241.087	13
253.050	284
254.059	340
269.081	999
270.086	7
