Mass spectrum: Histidine; LC-ESI-QTOF; MS2; CE:25 eV; [M+H]+
Name: Histidine
Name: 2-amino-3-(3H-imidazol-4-yl)propanoic acid
Class: Natural Product; amino acid
Formula: C6H9N3O2
Exact mass: 155.06948
SMILES: C1=C(NC=N1)CC(C(=O)O)N
InChI: InChI=1S/C6H9N3O2/c7-5(6(10)11)1-4-2-8-3-9-4/h2-3,5H,1,7H2,(H,8,9)(H,10,11)
Instrument: API QSTAR Pulsar i
Instrument type: LC-ESI-QTOF
Ms type: MS2
Ion mode: POSITIVE
Collision energy: 25 eV
Ionization: ESI
Precursor type: [M+H]+
m/z	relative intensity
56.050	9
68.049	13
81.044	9
82.052	53
83.059	157
93.044	114
95.060	92
110.070	999
111.054	8
156.074	19
