Mass spectrum: (-)-Epicatechin; LC-ESI-QTOF; MS2; CE:15 eV; [M+H]+
Name: (-)-Epicatechin
Name: (2R,3R)-2-(3,4-dihydroxyphenyl)-3,4-dihydro-2H-chromene-3,5,7-triol
Class: Natural Product
Formula: C15H14O6
Exact mass: 290.07904
SMILES: C1[C@H]([C@H](OC2=CC(=CC(=C21)O)O)C3=CC(=C(C=C3)O)O)O
InChI: InChI=1S/C15H14O6/c16-8-4-11(18)9-6-13(20)15(21-14(9)5-8)7-1-2-10(17)12(19)3-7/h1-5,13,15-20H,6H2/t13-,15-/m1/s1
Instrument: micrOTOF-Q
Instrument type: LC-ESI-QTOF
Ms type: MS2
Ion mode: POSITIVE
Collision energy: 15 eV
Ionization: ESI
Precursor type: [M+H]+
m/z	relative intensity
119.048	7
121.028	0
123.043	270
124.046	19
127.039	4
135.043	4
137.020	1
137.059	3
138.954	0
139.037	999
139.203	0
140.042	52
141.044	0
143.049	8
147.043	205
148.046	16
151.037	25
152.046	1
153.052	8
159.042	1
161.058	62
162.061	4
163.037	19
164.040	1
165.052	127
166.055	8
167.029	1
169.047	25
177.054	8
178.062	0
179.068	56
180.072	2
181.047	19
185.057	0
187.068	0
189.052	26
190.053	1
203.066	4
205.083	9
206.088	0
207.062	254
208.066	23
213.052	5
227.066	2
231.064	17
245.073	2
249.071	32
250.077	3
255.062	7
273.073	29
274.072	1
291.082	34
292.087	2
