Mass spectrum: Sanguinarine; LC-ESI-QQ; MS2; CE:40 eV; M+
Name: Sanguinarine
Name: [1,3]Benzodioxolo[5,6-c]-1,3-dioxolo[4,5-i]phenanthridinium, 13-methyl-
Class: Natural Product; Benzophenanthridine Alkaloids
Formula: [C20H14NO4]+
Exact mass: 332.09228
SMILES: C[N+]1=C2C(=C3C=CC4=C(C3=C1)OCO4)C=CC5=CC6=C(C=C52)OCO6
InChI: InChI=1S/C20H14NO4/c1-21-8-15-12(4-5-16-20(15)25-10-22-16)13-3-2-11-6-17-18(24-9-23-17)7-14(11)19(13)21/h2-8H,9-10H2,1H3/q+1
Instrument: TSQ 7000
Instrument type: LC-ESI-QQ
Ms type: MS2
Ion mode: POSITIVE
Collision energy: 40 eV
Ionization: ESI
Precursor type: [M]+
m/z	relative intensity
26.000	0
34.000	1
40.000	0
41.000	0
42.000	1
47.000	0
52.000	2
63.000	0
75.000	1
76.000	0
77.000	0
94.000	0
98.000	0
101.000	0
118.000	0
120.000	2
121.000	0
130.000	0
131.000	0
138.000	1
144.000	1
153.000	0
162.000	0
164.000	0
165.000	1
175.000	0
176.000	2
177.000	7
178.000	4
179.000	7
180.000	1
181.000	5
188.000	5
189.000	73
190.000	18
191.000	10
192.000	0
194.000	0
197.000	0
200.000	0
201.000	17
202.000	17
203.000	32
204.000	29
205.000	24
206.000	3
207.000	4
213.000	0
214.000	14
215.000	77
216.000	245
217.000	104
218.000	333
219.000	32
220.000	11
221.000	1
224.000	1
226.000	7
227.000	15
228.000	37
229.000	14
230.000	9
231.000	37
232.000	42
233.000	102
234.000	10
235.000	4
240.000	3
241.000	1
242.000	2
243.000	5
244.000	289
245.000	51
246.000	540
247.000	160
248.000	80
249.000	1
251.000	0
256.000	15
257.000	29
258.000	19
259.000	97
260.000	53
261.000	112
262.000	12
263.000	1
267.000	0
270.000	1
272.000	42
273.000	60
274.000	999
275.000	202
276.000	119
277.000	0
280.000	0
284.000	2
285.000	1
286.000	22
287.000	73
288.000	78
289.000	112
290.000	13
291.000	1
292.000	2
294.000	0
300.000	3
301.000	3
302.000	124
303.000	56
304.000	292
305.000	5
308.000	0
314.000	10
315.000	6
316.000	109
317.000	702
318.000	17
321.000	0
330.000	108
331.000	5
332.000	437
333.000	17
336.000	1
347.000	0
