Mass spectrum: Erythromycin; LC-ESI-QTOF; MS2; CE:30 eV; [M+H]+
Name: Erythromycin
Name: (2R,3R,4S,5R,8R,9S,10S,11R,12R,14R)-11-[(2S,3R,4S,6R)-4-(dimethylamino)-3-hydroxy-6-methyloxan-2-yl]oxy-5-ethyl-3,4,12-trihydroxy-9-[(2R,4R,5S,6S)-5-hydroxy-4-methoxy-4,6-dimethyloxan-2-yl]oxy-2,4,8,10,12,14-hexamethyl-6-oxacyclotetradecane-1,7-dione
Class: Natural Product
Formula: C37H67NO13
Exact mass: 733.46124
SMILES: CC[C@@H]1[C@@]([C@@H]([C@H](C(=O)[C@@H](C[C@@]([C@@H]([C@H]([C@@H]([C@H](C(=O)O1)C)O[C@H]2C[C@@]([C@H]([C@@H](O2)C)O)(C)OC)C)O[C@H]3[C@@H]([C@H](C[C@H](O3)C)N(C)C)O)(C)O)C)C)O)(C)O
InChI: InChI=1S/C37H67NO13/c1-14-25-37(10,45)30(41)20(4)27(39)18(2)16-35(8,44)32(51-34-28(40)24(38(11)12)15-19(3)47-34)21(5)29(22(6)33(43)49-25)50-26-17-36(9,46-13)31(42)23(7)48-26/h18-26,28-32,34,40-42,44-45H,14-17H2,1-13H3/t18-,19-,20+,21+,22-,23+,24+,25-,26+,28-,29+,30-,31+,32-,34+,35-,36-,37-/m1/s1
Instrument: micrOTOF-Q
Instrument type: LC-ESI-QTOF
Ms type: MS2
Ion mode: POSITIVE
Collision energy: 30 eV
Ionization: ESI
Precursor type: [M+H]+
m/z	relative intensity
116.071	5
116.105	7
123.079	6
127.074	4
140.105	0
158.005	0
158.116	999
159.119	81
160.121	3
176.126	5
177.127	0
233.151	42
234.154	4
245.187	0
251.161	1
263.197	0
269.172	0
272.182	4
284.182	1
286.199	2
289.176	9
290.180	0
307.187	8
308.190	0
316.209	2
325.197	7
326.199	0
342.224	16
343.226	2
347.218	4
348.220	0
360.232	0
365.228	11
366.231	1
383.238	5
384.243	0
408.269	28
409.273	6
444.291	1
464.295	11
465.299	2
482.306	3
483.310	0
500.315	2
522.337	44
523.340	12
524.342	0
540.348	29
541.350	8
542.353	0
558.358	44
559.361	13
560.363	1
574.355	0
576.368	153
577.372	46
578.373	6
734.459	1
