Mass spectrum: Citrulline; LC-ESI-QTOF; MS2; CE:20 eV; [M+H]+
Name: Citrulline
Name: 2-amino-5-(carbamoylamino)pentanoic acid
Class: Natural Product; amino acid
Formula: C6H13N3O3
Exact mass: 175.09569
SMILES: C(CC(C(=O)O)N)CNC(=O)N
InChI: InChI=1S/C6H13N3O3/c7-4(5(10)11)2-1-3-9-6(8)12/h4H,1-3,7H2,(H,10,11)(H3,8,9,12)
Instrument: API QSTAR Pulsar i
Instrument type: LC-ESI-QTOF
Ms type: MS2
Ion mode: POSITIVE
Collision energy: 20 eV
Ionization: ESI
Precursor type: [M+H]+
m/z	relative intensity
70.067	550
86.061	8
87.093	9
96.046	3
97.078	15
113.071	833
114.055	143
115.087	182
116.073	147
130.099	7
131.081	3
133.096	8
141.068	27
142.050	18
149.024	3
159.078	999
176.106	17
