Mass spectrum: Arginine; LC-ESI-QTOF; MS2; CE:25 eV; [M+H]+
Name: Arginine
Name: 2-amino-5-(diaminomethylideneamino)pentanoic acid
Class: Natural Product; amino acid
Formula: C6H14N4O2
Exact mass: 174.11168
SMILES: C(CC(C(=O)O)N)CN=C(N)N
InChI: InChI=1S/C6H14N4O2/c7-4(5(11)12)2-1-3-10-6(8)9/h4H,1-3,7H2,(H,11,12)(H4,8,9,10)
Instrument: API QSTAR Pulsar i
Instrument type: LC-ESI-QTOF
Ms type: MS2
Ion mode: POSITIVE
Collision energy: 25 eV
Ionization: ESI
Precursor type: [M+H]+
m/z	relative intensity
60.057	317
70.066	999
71.051	15
72.081	47
112.087	35
116.073	222
130.097	113
158.094	32
175.120	39
