Mass spectrum: 1-methoxyindole-3-carbaldehyde; LC-ESI-QTOF; MS2; CE:25 eV; [M+H]+
Name: 1-methoxyindole-3-carbaldehyde
Class: Natural Product; Indole, Glucosinolate degradation product
Formula: C10H9NO2
Exact mass: 175.06333
SMILES: CON1C=C(C2=CC=CC=C21)C=O
InChI: InChI=1S/C10H9NO2/c1-13-11-6-8(7-12)9-4-2-3-5-10(9)11/h2-7H,1H3
Instrument: API QSTAR Pulsar i
Instrument type: LC-ESI-QTOF
Ms type: MS2
Ion mode: POSITIVE
Collision energy: 25 eV
Ionization: ESI
Precursor m/z: 176.07115
Precursor type: [M+H]+
m/z	relative intensity
89.038	73
90.046	40
91.053	32
104.050	340
105.057	545
116.050	537
117.057	571
118.065	17
132.044	102
133.051	999
144.044	221
145.052	282
148.074	72
159.031	25
160.041	32
161.048	309
176.070	43
