Mass spectrum: Epicatechin; LC-ESI-QTOF; MS2; CE:15 eV; [M+H]+
Name: Epicatechin
Name: (2R,3R)-2-(3,4-dihydroxyphenyl)chroman-3,5,7-triol
Class: Natural Product; Flavanol
Formula: C15H14O6
Exact mass: 290.07904
SMILES: C1[C@H]([C@H](OC2=CC(=CC(=C21)O)O)C3=CC(=C(C=C3)O)O)O
InChI: InChI=1S/C15H14O6/c16-8-4-11(18)9-6-13(20)15(21-14(9)5-8)7-1-2-10(17)12(19)3-7/h1-5,13,15-20H,6H2/t13-,15-/m1/s1
Instrument: API QSTAR Pulsar i
Instrument type: LC-ESI-QTOF
Ms type: MS2
Ion mode: POSITIVE
Collision energy: 15 eV
Ionization: ESI
Precursor type: [M+H]+
m/z	relative intensity
123.043	469
139.039	752
140.042	8
147.044	32
151.039	46
163.042	7
165.058	326
169.052	31
181.054	8
207.069	13
249.080	21
273.077	49
291.086	999
291.231	52
292.090	24
