Mass spectrum: Coumarin; LC-ESI-QQ; MS2; CE:25 eV; [M+H]+
Name: Coumarin
Name: chromen-2-one
Class: Natural Product; Coumarins
Formula: C9H6O2
Exact mass: 146.03678
SMILES: C1=CC=C2C(=C1)C=CC(=O)O2
InChI: InChI=1S/C9H6O2/c10-9-6-5-7-3-1-2-4-8(7)11-9/h1-6H
Instrument: TSQ QUANTUM AM
Instrument type: LC-ESI-QQ
Ms type: MS2
Ion mode: POSITIVE
Collision energy: 25 eV
Ionization: ESI
Precursor type: [M+H]+
m/z	relative intensity
41.000	6
42.000	7
43.000	2
44.000	3
45.000	8
51.000	4
55.000	5
57.000	7
60.000	22
61.000	0
63.000	6
64.000	0
65.000	152
67.000	1
68.000	0
69.000	6
70.000	3
71.000	2
74.000	1
75.000	4
77.000	266
79.000	1
81.000	2
84.000	12
88.000	4
91.000	999
92.000	0
93.000	0
101.000	1
102.000	17
103.000	441
106.000	22
110.000	1
111.000	13
115.000	0
116.000	5
119.000	10
124.000	1
127.000	0
128.000	1
129.000	3
147.000	79
