Mass spectrum: Genistein; LC-ESI-QTOF; MS2; CE:20 eV; [M+H]+
Name: Genistein
Name: 5,7-dihydroxy-3-(4-hydroxyphenyl)chromen-4-one
Class: Natural Product
Formula: C15H10O5
Exact mass: 270.05282
SMILES: C1=CC(=CC=C1C2=COC3=CC(=CC(=C3C2=O)O)O)O
InChI: InChI=1S/C15H10O5/c16-9-3-1-8(2-4-9)11-7-20-13-6-10(17)5-12(18)14(13)15(11)19/h1-7,16-18H
Instrument: micrOTOF-Q
Instrument type: LC-ESI-QTOF
Ms type: MS2
Ion mode: POSITIVE
Collision energy: 20 eV
Ionization: ESI
Precursor type: [M+H]+
m/z	relative intensity
119.047	0
121.028	0
131.048	0
141.068	1
145.027	10
147.043	0
147.077	0
149.021	15
150.027	1
153.016	56
154.019	1
159.042	6
165.016	5
169.063	5
173.058	1
175.073	0
183.032	0
187.068	4
197.058	11
200.045	0
201.052	1
211.035	0
213.052	2
215.067	133
216.070	15
225.052	12
226.058	2
227.065	3
228.045	1
229.046	1
242.051	2
243.062	137
244.066	15
247.055	0
253.046	65
254.049	8
271.056	999
271.352	0
272.060	131
273.062	7
