Mass spectrum: Sinapoylcholine; LC-ESI-QTOF; MS2; CE:15 eV; M+
Name: Sinapoylcholine
Name: 2-[(E)-3-(4-hydroxy-3,5-dimethoxyphenyl)prop-2-enoyl]oxyethyl-trimethylazanium
Class: Natural Product; phenolic choline ester
Formula: [C16H24NO5]+
Exact mass: 310.16545
SMILES: C[N+](C)(C)CCOC(=O)C=CC1=CC(=C(C(=C1)OC)O)OC
InChI: InChI=1S/C16H23NO5/c1-17(2,3)8-9-22-15(18)7-6-12-10-13(20-4)16(19)14(11-12)21-5/h6-7,10-11H,8-9H2,1-5H3/p+1
Instrument: API QSTAR Pulsar i
Instrument type: LC-ESI-QTOF
Ms type: MS2
Ion mode: POSITIVE
Collision energy: 15 eV
Ionization: ESI
Precursor type: [M]+
m/z	relative intensity
251.093	729
310.165	999
