Mass spectrum: Chelidonine; LC-ESI-QTOF; MS2; CE:30 eV; [M+H]+
Name: Chelidonin
Name: (+)-Chelidonine
Name: [1,3]Benzodioxolo[5,6-c]-1,3-dioxolo[4,5-i]phenanthridin-6-ol, 5b,6,7,12b,13,14-hexahydro-13-methyl-, (5bR,6S,12bS)-
Class: Natural Product
Formula: C20H19NO5
Exact mass: 353.126323
SMILES: CN1CC2=C(C=CC3=C2OCO3)[C@@H]4[C@H]1C5=CC6=C(C=C5C[C@@H]4O)OCO6
InChI: InChI=1S/C20H19NO5/c1-21-7-13-11(2-3-15-20(13)26-9-23-15)18-14(22)4-10-5-16-17(25-8-24-16)6-12(10)19(18)21/h2-3,5-6,14,18-19,22H,4,7-9H2,1H3/t14-,18-,19+/m0/s1
Instrument: micrOTOF-Q
Instrument type: LC-ESI-QTOF
Ms type: MS2
Ion mode: POSITIVE
Collision energy: 30 eV
Ionization: ESI
Precursor type: [M+H]+
m/z	relative intensity
131.047	2
135.042	25
136.045	0
143.047	2
146.059	1
149.055	1
159.042	6
160.073	0
161.058	8
162.057	0
163.037	29
164.041	0
173.055	3
175.047	0
176.067	5
177.070	0
178.074	0
179.082	4
187.040	2
188.068	28
189.067	52
190.071	6
191.083	3
201.059	0
205.062	5
206.068	0
207.078	20
208.082	1
209.059	1
217.061	151
218.065	20
219.076	17
220.079	1
221.056	0
222.064	2
223.070	0
233.055	2
234.062	0
235.071	48
236.074	5
237.087	60
238.091	7
245.055	42
246.062	14
247.071	657
248.075	91
249.085	7
250.063	2
251.065	1
262.061	0
263.067	14
264.071	2
265.082	67
266.083	9
267.063	0
274.060	0
274.877	0
275.066	999
275.176	0
275.338	0
275.402	0
276.069	152
277.078	8
278.056	4
279.062	2
280.066	2
281.070	0
291.066	0
292.069	0
293.076	21
294.081	2
295.091	24
296.097	3
304.080	0
305.076	14
306.088	3
307.091	0
308.076	0
320.087	1
321.084	0
323.086	7
324.089	0
334.105	1
336.118	11
337.122	1
354.128	0
