Mass spectrum: Hesperidin methyl chalcone; LC-ESI-QTOF; MS2; CE:20 eV; [M+H]+
Name: Hesperidin methyl chalcone
Name: (E)-3-(3-hydroxy-4-methoxyphenyl)-1-[2-hydroxy-6-methoxy-4-[(2S,3R,4S,5S,6R)-3,4,5-trihydroxy-6-[[(2R,3R,4R,5R,6S)-3,4,5-trihydroxy-6-methyloxan-2-yl]oxymethyl]oxan-2-yl]oxyphenyl]prop-2-en-1-one
Class: Natural Product
Formula: C29H36O15
Exact mass: 624.20542
SMILES: C[C@H]1[C@@H]([C@H]([C@H]([C@@H](O1)OC[C@@H]2[C@H]([C@@H]([C@H]([C@@H](O2)OC3=CC(=C(C(=C3)OC)C(=O)/C=C/C4=CC(=C(C=C4)OC)O)O)O)O)O)O)O)O
InChI: InChI=1S/C29H36O15/c1-12-22(33)24(35)26(37)28(42-12)41-11-20-23(34)25(36)27(38)29(44-20)43-14-9-17(32)21(19(10-14)40-3)15(30)6-4-13-5-7-18(39-2)16(31)8-13/h4-10,12,20,22-29,31-38H,11H2,1-3H3/b6-4+/t12-,20+,22-,23+,24+,25-,26+,27+,28+,29+/m0/s1
Instrument: micrOTOF-Q
Instrument type: LC-ESI-QTOF
Ms type: MS2
Ion mode: POSITIVE
Collision energy: 20 eV
Ionization: ESI
Precursor type: [M+H]+
m/z	relative intensity
129.053	4
147.065	0
153.017	10
165.089	0
171.029	0
179.033	4
191.068	7
195.027	12
196.032	0
219.026	8
245.041	7
261.035	0
263.052	52
264.055	4
279.047	0
281.062	32
282.068	2
289.068	0
297.058	0
299.079	7
300.084	0
301.103	6
302.108	2
315.086	9
316.084	3
316.790	0
316.906	0
317.098	999
317.411	0
317.628	0
318.102	135
319.104	6
329.099	7
330.101	0
341.097	7
342.103	0
359.108	38
360.112	5
371.105	0
383.108	24
384.111	3
409.123	7
410.130	0
425.117	0
427.134	35
428.137	5
443.129	0
445.143	17
446.147	3
461.138	1
463.154	11
464.160	1
477.134	1
478.138	1
479.149	10
480.154	1
