Mass spectrum: Caffeine; LC-ESI-QQ; MS2; CE:25 eV; [M+H]+
Name: Caffeine
Name: 1,3,7-trimethylpurine-2,6-dione
Class: Natural Product; Xanthines; Alkaloids
Formula: C8H10N4O2
Exact mass: 194.08038
SMILES: CN1C=NC2=C1C(=O)N(C(=O)N2C)C
InChI: InChI=1S/C8H10N4O2/c1-10-4-9-6-5(10)7(13)12(3)8(14)11(6)2/h4H,1-3H3
Instrument: TSQ 7000
Instrument type: LC-ESI-QQ
Ms type: MS2
Ion mode: POSITIVE
Collision energy: 25 eV
Ionization: ESI
Precursor type: [M+H]+
m/z	relative intensity
29.000	8
30.000	6
36.000	3
38.000	6
39.000	1
42.000	68
43.000	10
44.000	18
45.000	25
46.000	13
48.000	2
53.000	0
54.000	0
55.000	0
56.000	12
57.000	3
58.000	2
59.000	6
68.000	1
69.000	66
70.000	1
71.000	0
72.000	4
76.000	3
77.000	7
81.000	6
83.000	40
84.000	4
86.000	7
89.000	16
90.000	2
95.000	8
96.000	2
97.000	14
98.000	2
104.000	1
106.000	3
108.000	2
109.000	26
110.000	200
111.000	29
112.000	1
113.000	13
114.000	2
117.000	5
121.000	3
122.000	0
123.000	16
125.000	3
127.000	2
135.000	0
136.000	8
138.000	999
140.000	5
142.000	1
152.000	0
159.000	0
161.000	0
163.000	15
169.000	2
170.000	3
173.000	1
176.000	2
177.000	13
179.000	3
180.000	1
183.000	5
189.000	3
190.000	2
193.000	0
195.000	341
196.000	0
