Mass spectrum: Xanthohumol; LC-ESI-QQ; MS2; CE:20 eV; [M-H]-
Name: Xanthohumol
Name: (E)-1-[2,4-dihydroxy-6-methoxy-3-(3-methylbut-2-enyl)phenyl]-3-(4-hydroxyphenyl)prop-2-en-1-one
Class: Natural Product; Chalcones
Formula: C21H22O5
Exact mass: 354.14672
SMILES: CC(=CCC1=C(C(=C(C=C1O)OC)C(=O)/C=C/C2=CC=C(C=C2)O)O)C
InChI: InChI=1S/C21H22O5/c1-13(2)4-10-16-18(24)12-19(26-3)20(21(16)25)17(23)11-7-14-5-8-15(22)9-6-14/h4-9,11-12,22,24-25H,10H2,1-3H3/b11-7+
Instrument: TSQ QUANTUM AM
Instrument type: LC-ESI-QQ
Ms type: MS2
Ion mode: NEGATIVE
Collision energy: 20 eV
Ionization: ESI
Precursor type: [M-H]-
m/z	relative intensity
119.000	438
121.000	0
125.000	0
133.000	8
134.000	1
138.000	0
145.000	16
148.000	0
149.000	0
150.000	3
157.000	2
159.000	7
161.000	0
162.000	1
163.000	6
165.000	34
171.000	0
172.000	0
173.000	8
174.000	2
175.000	21
176.000	0
177.000	2
185.000	0
189.000	50
190.000	13
192.000	2
195.000	0
200.000	0
201.000	7
203.000	9
204.000	3
205.000	5
207.000	4
218.000	74
219.000	2
224.000	0
231.000	0
232.000	4
233.000	911
241.000	0
244.000	0
247.000	28
251.000	0
268.000	1
269.000	0
270.000	6
277.000	6
281.000	1
283.000	21
293.000	2
294.000	1
295.000	75
298.000	1
309.000	11
310.000	2
311.000	4
323.000	4
325.000	0
335.000	0
338.000	12
353.000	999
