Mass spectrum: 4-methoxy-1H-indole-3-carbaldehyde; LC-ESI-QTOF; MS2; CE:40 eV; [M+H]+
Name: 4-methoxy-1H-indole-3-carbaldehyde
Class: Natural Product; Indole, Glucosinolate degradation product
Formula: C10H9NO2
Exact mass: 175.06333
SMILES: COC1=CC=CC2=C1C(=CN2)C=O
InChI: InChI=1S/C10H9NO2/c1-13-9-4-2-3-8-10(9)7(6-12)5-11-8/h2-6,11H,1H3
Instrument: API QSTAR Pulsar i
Instrument type: LC-ESI-QTOF
Ms type: MS2
Ion mode: POSITIVE
Collision energy: 40 eV
Ionization: ESI
Precursor m/z: 176.07115
Precursor type: [M+H]+
m/z	relative intensity
89.038	44
91.054	36
103.049	24
104.050	338
105.057	134
116.049	42
117.057	101
118.065	51
131.035	84
132.043	111
133.051	148
143.040	19
146.060	40
159.031	62
160.039	999
161.047	160
