Mass spectrum: 5-methoxyindole-3-carbaldehyde; LC-ESI-QTOF; MS2; CE:60 eV; [M+H]+
Name: 5-methoxyindole-3-carbaldehyde
Class: Natural Product; indole
Formula: C10H9NO2
Exact mass: 175.06333
SMILES: COC1=CC2=C(C=C1)NC=C2C=O
InChI: InChI=1S/C10H9NO2/c1-13-8-2-3-10-9(4-8)7(6-12)5-11-10/h2-6,11H,1H3
Instrument: API QSTAR Pulsar i
Instrument type: LC-ESI-QTOF
Ms type: MS2
Ion mode: POSITIVE
Collision energy: 60 eV
Ionization: ESI
Precursor type: [M+H]+
m/z	relative intensity
39.021	5
50.015	14
51.023	68
52.031	86
53.037	4
63.023	78
64.030	11
65.039	80
75.022	3
76.029	16
77.037	315
78.043	393
79.041	297
80.045	5
89.038	275
90.045	174
91.053	46
95.048	32
96.043	16
102.035	3
104.050	999
105.056	185
106.048	6
116.051	16
117.058	93
132.043	21
133.050	11
