Mass spectrum: (-)-Epicatechin; LC-ESI-QTOF; MS2; CE:20 eV; [M+H]+
Name: (-)-Epicatechin
Name: (2R,3R)-2-(3,4-dihydroxyphenyl)-3,4-dihydro-2H-chromene-3,5,7-triol
Class: Natural Product
Formula: C15H14O6
Exact mass: 290.07904
SMILES: C1[C@H]([C@H](OC2=CC(=CC(=C21)O)O)C3=CC(=C(C=C3)O)O)O
InChI: InChI=1S/C15H14O6/c16-8-4-11(18)9-6-13(20)15(21-14(9)5-8)7-1-2-10(17)12(19)3-7/h1-5,13,15-20H,6H2/t13-,15-/m1/s1
Instrument: micrOTOF-Q
Instrument type: LC-ESI-QTOF
Ms type: MS2
Ion mode: POSITIVE
Collision energy: 20 eV
Ionization: ESI
Precursor type: [M+H]+
m/z	relative intensity
111.040	1
115.053	4
119.048	23
120.052	0
121.029	0
123.043	351
124.046	21
125.055	0
127.038	4
131.051	2
133.025	0
133.064	6
135.045	7
137.025	7
137.054	9
138.956	0
139.038	999
139.235	0
139.282	0
140.042	56
141.051	0
143.048	44
144.049	3
145.068	2
147.043	280
148.047	19
149.059	3
151.040	20
151.073	4
153.053	15
157.063	0
159.041	7
161.058	184
162.060	10
163.039	24
164.044	0
165.053	66
165.110	0
166.055	4
169.048	9
171.048	1
171.079	0
172.048	0
177.053	30
178.057	1
179.069	93
180.072	7
181.054	6
185.059	1
187.072	1
189.052	55
190.057	3
199.077	1
203.069	7
205.084	5
206.087	0
207.063	178
208.065	12
213.052	5
227.063	4
230.053	0
231.063	2
244.941	0
245.083	3
249.071	2
255.061	3
258.050	0
273.072	5
