Mass spectrum: Tyramine; LC-ESI-QTOF; MS2; CE:50 eV; [M+H]+
Name: Tyramine
Name: 4-(2-aminoethyl)phenol
Class: Natural Product; biogenic amine
Formula: C8H11NO
Exact mass: 137.08406
SMILES: C1=CC(=CC=C1CCN)O
InChI: InChI=1S/C8H11NO/c9-6-5-7-1-3-8(10)4-2-7/h1-4,10H,5-6,9H2
Instrument: API QSTAR Pulsar i
Instrument type: LC-ESI-QTOF
Ms type: MS2
Ion mode: POSITIVE
Collision energy: 50 eV
Ionization: ESI
Precursor type: [M+H]+
m/z	relative intensity
39.023	20
41.039	8
50.017	20
51.025	606
52.032	4
53.040	25
55.019	13
63.024	9
65.039	192
66.048	28
67.056	2
75.023	8
77.039	999
78.047	36
81.034	2
91.054	170
94.041	46
95.050	144
102.048	23
103.054	35
105.046	40
