Mass spectrum: Noscapine; LC-ESI-QQ; MS2; CE:25 eV; [M+H]+
Name: Noscapine
Name: (3S)-6,7-dimethoxy-3-[(5R)-4-methoxy-6-methyl-7,8-dihydro-5H-[1,3]dioxolo[4,5-g]isoquinolin-5-yl]-3H-2-benzofuran-1-one
Class: Natural Product; Isoquinoline Alkaloids
Formula: C22H23NO7
Exact mass: 413.14745
SMILES: CN1CCC2=CC3=C(C(=C2[C@@H]1[C@@H]4C5=C(C(=C(C=C5)OC)OC)C(=O)O4)OC)OCO3
InChI: InChI=1S/C22H23NO7/c1-23-8-7-11-9-14-20(29-10-28-14)21(27-4)15(11)17(23)18-12-5-6-13(25-2)19(26-3)16(12)22(24)30-18/h5-6,9,17-18H,7-8,10H2,1-4H3/t17-,18+/m1/s1
Instrument: TSQ 7000
Instrument type: LC-ESI-QQ
Ms type: MS2
Ion mode: POSITIVE
Collision energy: 25 eV
Ionization: ESI
Precursor type: [M+H]+
m/z	relative intensity
44.000	0
165.000	0
179.000	42
180.000	0
191.000	0
193.000	0
205.000	3
206.000	24
209.000	0
218.000	3
219.000	7
220.000	999
221.000	4
236.000	0
248.000	11
249.000	0
280.000	0
292.000	0
295.000	2
304.000	0
305.000	0
306.000	1
307.000	4
308.000	2
309.000	1
310.000	0
312.000	1
320.000	0
321.000	0
322.000	4
323.000	17
324.000	20
325.000	6
326.000	0
327.000	1
334.000	11
335.000	6
336.000	0
337.000	3
338.000	5
339.000	0
341.000	0
349.000	0
350.000	29
351.000	1
352.000	15
353.000	241
354.000	3
355.000	4
363.000	0
365.000	61
366.000	7
367.000	0
368.000	1
371.000	1
378.000	4
381.000	12
383.000	5
396.000	13
397.000	0
399.000	0
414.000	240
415.000	4
