Mass spectrum: Indoleacetic acid; LC-ESI-QTOF; MS2; CE:30 eV; [M+H]+
Name: Indoleacetic acid
Name: 2-(1H-indol-3-yl)acetic acid
Class: Natural Product; Indole
Formula: C10H9NO2
Exact mass: 175.06333
SMILES: C1=CC=C2C(=C1)C(=CN2)CC(=O)O
InChI: InChI=1S/C10H9NO2/c12-10(13)5-7-6-11-9-4-2-1-3-8(7)9/h1-4,6,11H,5H2,(H,12,13)
Instrument: API QSTAR Pulsar i
Instrument type: LC-ESI-QTOF
Ms type: MS2
Ion mode: POSITIVE
Collision energy: 30 eV
Ionization: ESI
Precursor type: [M+H]+
m/z	relative intensity
98.985	22
116.048	2
117.054	5
130.063	290
131.065	1
132.046	3
133.048	16
144.043	201
146.058	7
148.073	223
149.021	15
158.060	9
161.043	5
162.052	1
165.998	8
176.070	999
177.069	6
