Mass spectrum: Lysine; LC-ESI-QTOF; MS2; CE:15 eV; [M+H]+
Name: Lysine
Name: 2,6-diaminohexanoic acid
Class: Natural Product; amino acid
Formula: C6H14N2O2
Exact mass: 146.10553
SMILES: C(CCN)CC(C(=O)O)N
InChI: InChI=1S/C6H14N2O2/c7-4-2-1-3-5(8)6(9)10/h5H,1-4,7-8H2,(H,9,10)
Instrument: API QSTAR Pulsar i
Instrument type: LC-ESI-QTOF
Ms type: MS2
Ion mode: POSITIVE
Collision energy: 15 eV
Ionization: ESI
Precursor type: [M+H]+
m/z	relative intensity
84.082	635
101.110	11
102.094	5
129.102	43
130.086	999
147.113	375
