Mass spectrum: Resveratrol; LC-ESI-QTOF; MS2; CE:20 eV; [M+H]+
Name: Resveratrol
Name: 5-[(E)-2-(4-hydroxyphenyl)ethenyl]benzene-1,3-diol
Class: Natural Product
Formula: C14H12O3
Exact mass: 228.07864
SMILES: C1=CC(=CC=C1/C=C/C2=CC(=CC(=C2)O)O)O
InChI: InChI=1S/C14H12O3/c15-12-5-3-10(4-6-12)1-2-11-7-13(16)9-14(17)8-11/h1-9,15-17H/b2-1+
Instrument: micrOTOF-Q
Instrument type: LC-ESI-QTOF
Ms type: MS2
Ion mode: POSITIVE
Collision energy: 20 eV
Ionization: ESI
Precursor type: [M+H]+
m/z	relative intensity
103.223	0
105.067	0
107.048	27
108.050	0
110.032	0
115.054	36
116.075	0
117.031	0
117.065	8
117.078	0
117.934	0
119.048	41
120.036	0
120.057	119
121.029	66
121.063	4
122.027	1
123.044	53
124.010	0
124.055	1
126.042	0
126.787	0
127.053	14
128.061	17
129.068	30
129.116	0
130.076	7
131.048	27
131.087	18
131.927	0
132.055	8
132.086	3
133.065	8
134.036	0
134.065	2
134.436	0
135.043	360
136.050	169
137.020	5
137.042	0
137.057	10
139.055	14
139.729	0
140.058	4
141.069	140
142.072	11
143.064	0
144.055	40
144.111	2
145.064	100
145.079	0
145.096	2
145.923	0
146.074	8
146.923	0
146.956	0
147.045	26
147.651	0
148.049	0
150.065	0
151.057	4
152.061	42
152.918	0
153.069	224
154.075	76
155.084	207
155.122	0
156.088	14
156.741	0
156.948	0
157.064	65
158.073	28
159.078	51
159.097	1
160.052	27
161.023	0
161.060	22
163.050	6
163.582	0
163.934	0
163.980	0
164.065	9
164.925	0
164.971	0
165.069	999
165.150	3
165.186	2
165.210	0
165.248	0
165.748	0
166.071	145
167.067	5
168.054	93
168.986	0
169.063	44
170.070	6
171.044	12
171.077	5
172.044	4
172.086	3
173.061	31
173.091	0
174.056	0
174.090	1
175.045	0
176.064	0
177.951	0
179.047	0
181.063	135
182.071	96
182.140	1
183.079	269
184.083	46
184.105	0
185.059	12
185.132	0
186.066	20
187.071	27
188.081	1
188.101	1
192.055	6
192.463	0
193.064	101
194.068	51
194.139	0
195.074	14
196.047	9
197.057	20
197.093	0
198.062	8
199.074	60
200.079	9
201.086	20
202.092	0
209.055	13
210.065	97
210.096	0
210.152	1
210.869	0
211.074	196
211.149	0
211.281	0
211.314	0
212.080	70
212.164	0
213.055	33
214.060	29
215.069	0
219.049	0
226.057	2
227.068	42
227.092	0
227.170	0
228.075	48
228.141	0
229.083	63
230.086	7
230.930	0
231.093	2
240.057	0
241.572	0
252.355	0
256.936	0
263.904	0
276.579	0
290.046	0
313.102	0
357.678	0
370.852	0
385.850	0
424.196	0
491.078	0
535.609	0
565.663	1
573.603	0
