Mass spectrum: Resveratrol; LC-ESI-QTOF; MS2; CE:15 eV; [M+H]+
Name: Resveratrol
Name: 5-[(E)-2-(4-hydroxyphenyl)ethenyl]benzene-1,3-diol
Class: Natural Product
Formula: C14H12O3
Exact mass: 228.07864
SMILES: C1=CC(=CC=C1/C=C/C2=CC(=CC(=C2)O)O)O
InChI: InChI=1S/C14H12O3/c15-12-5-3-10(4-6-12)1-2-11-7-13(16)9-14(17)8-11/h1-9,15-17H/b2-1+
Instrument: micrOTOF-Q
Instrument type: LC-ESI-QTOF
Ms type: MS2
Ion mode: POSITIVE
Collision energy: 15 eV
Ionization: ESI
Precursor type: [M+H]+
m/z	relative intensity
101.085	0
104.141	1
106.926	0
107.049	24
111.043	7
112.962	0
113.213	0
115.051	1
115.077	0
117.070	1
117.932	0
118.038	0
119.048	78
119.092	0
120.056	82
120.127	0
121.028	51
122.031	1
122.063	2
123.043	52
124.044	2
126.044	0
127.054	3
128.060	1
128.499	0
129.069	6
129.099	0
130.078	1
130.113	0
131.048	17
131.082	12
132.046	0
133.063	9
133.102	1
134.145	0
134.601	0
134.919	0
135.043	999
135.125	2
135.234	0
135.584	0
136.049	202
136.625	0
136.986	0
137.023	10
137.055	10
138.035	0
139.053	0
140.069	0
141.069	84
141.084	0
141.953	0
142.002	0
142.069	6
143.085	11
144.055	17
144.953	0
145.063	116
145.096	2
145.126	0
146.067	19
147.042	29
150.638	0
152.056	7
152.071	0
153.069	80
154.027	0
154.074	17
155.085	126
155.142	1
156.088	10
157.064	36
158.047	0
158.072	10
159.079	59
160.050	11
160.082	10
161.055	4
161.093	28
162.098	0
163.062	0
163.787	0
163.938	3
164.060	0
164.948	0
165.069	456
165.140	0
166.073	50
166.109	0
167.080	2
168.054	18
168.073	0
169.061	29
169.089	0
170.066	5
171.042	29
171.074	0
172.059	0
173.061	35
173.096	5
174.069	5
174.088	1
175.079	0
177.064	0
177.766	0
181.065	28
181.083	0
182.068	19
182.575	0
183.078	400
183.165	0
183.248	0
184.082	45
184.977	0
185.056	15
186.066	17
186.883	0
186.964	0
187.070	64
187.277	0
188.072	7
193.062	156
194.069	30
195.042	0
195.071	1
195.865	0
196.047	5
197.058	11
198.069	1
199.073	33
199.142	0
200.080	10
201.089	57
201.157	0
202.090	7
209.059	8
210.065	53
210.140	0
210.948	0
211.073	407
211.119	0
211.171	0
211.508	0
211.728	0
211.966	0
212.022	0
212.078	76
212.172	0
213.057	22
213.083	1
214.061	51
214.143	1
215.064	3
215.953	0
216.016	0
219.046	0
225.020	1
226.077	0
227.000	0
227.068	78
227.338	0
228.075	88
228.145	0
229.083	930
229.182	2
229.289	0
230.086	124
230.155	0
231.055	1
231.084	7
231.117	0
249.013	0
250.933	0
279.052	0
281.758	0
286.037	0
317.059	0
322.527	0
323.915	0
330.370	0
347.239	0
364.976	0
393.336	0
597.376	0
990.990	1
