Mass spectrum: Norharmane; LC-ESI-QQ; MS2; CE:35 eV; [M+H]+
Name: Norharmane
Name: 9H-pyrido[3,4-b]indole
Class: Natural Product; ?-Carboline Alkaloids
Formula: C11H8N2
Exact mass: 168.06875
SMILES: C1=CC=C2C(=C1)C3=C(N2)C=NC=C3
InChI: InChI=1S/C11H8N2/c1-2-4-10-8(3-1)9-5-6-12-7-11(9)13-10/h1-7,13H
Instrument: TSQ 7000
Instrument type: LC-ESI-QQ
Ms type: MS2
Ion mode: POSITIVE
Collision energy: 35 eV
Ionization: ESI
Precursor type: [M+H]+
m/z	relative intensity
63.000	1
65.000	5
75.000	0
77.000	3
78.000	0
89.000	20
90.000	1
91.000	3
101.000	2
102.000	1
113.000	1
114.000	12
115.000	999
116.000	35
117.000	5
125.000	0
128.000	5
129.000	5
140.000	45
141.000	50
142.000	78
143.000	1
152.000	3
153.000	0
166.000	0
167.000	20
168.000	225
169.000	391
170.000	5
