Mass spectrum: Camalexin; LC-ESI-QTOF; MS2; CE:55 eV; [M+H]+
Name: Camalexin
Name: 3-(1,3-thiazol-2-yl)-1H-indole
Class: Natural Product; Indole
Formula: C11H8N2S
Exact mass: 200.04082
SMILES: C1=CC=C2C(=C1)C(=CN2)C3=NC=CS3
InChI: InChI=1S/C11H8N2S/c1-2-4-10-8(3-1)9(7-13-10)11-12-5-6-14-11/h1-7,13H
Instrument: API QSTAR Pulsar i
Instrument type: LC-ESI-QTOF
Ms type: MS2
Ion mode: POSITIVE
Collision energy: 55 eV
Ionization: ESI
Precursor type: [M+H]+
m/z	relative intensity
57.987	316
58.995	999
59.999	6
63.025	16
65.041	12
77.038	63
88.029	19
89.038	425
90.045	187
91.054	31
98.009	16
102.044	32
103.055	88
114.039	44
115.041	182
116.049	466
117.056	277
128.046	26
129.055	65
130.063	128
133.009	30
140.053	35
141.058	25
142.053	292
143.059	116
148.018	8
155.053	6
156.073	5
160.023	66
168.065	10
172.021	8
173.029	95
200.048	15
201.038	7
