Mass spectrum: 5-methoxyindole-3-carbaldehyde; LC-ESI-QTOF; MS2; CE:20 eV; [M+H]+
Name: 5-methoxyindole-3-carbaldehyde
Class: Natural Product; indole
Formula: C10H9NO2
Exact mass: 175.06333
SMILES: COC1=CC2=C(C=C1)NC=C2C=O
InChI: InChI=1S/C10H9NO2/c1-13-8-2-3-10-9(4-8)7(6-12)5-11-10/h2-6,11H,1H3
Instrument: API QSTAR Pulsar i
Instrument type: LC-ESI-QTOF
Ms type: MS2
Ion mode: POSITIVE
Collision energy: 20 eV
Ionization: ESI
Precursor type: [M+H]+
m/z	relative intensity
105.058	2
116.050	14
117.058	50
118.065	6
121.064	3
133.051	291
134.058	7
144.044	20
147.067	6
148.075	999
149.077	8
161.048	3
176.070	313
177.077	2
