Mass spectrum: Cystine; LC-ESI-QTOF; MS2; CE:30 eV; [M+H]+
Name: Cystine
Name: 2-amino-3-(2-amino-3-hydroxy-3-oxopropyl)disulfanylpropanoic acid
Class: Natural Product; amino acid
Formula: C6H12N2O4S2
Exact mass: 240.02385
SMILES: C(C(C(=O)O)N)SSCC(C(=O)O)N
InChI: InChI=1S/C6H12N2O4S2/c7-3(5(9)10)1-13-14-2-4(8)6(11)12/h3-4H,1-2,7-8H2,(H,9,10)(H,11,12)
Instrument: API QSTAR Pulsar i
Instrument type: LC-ESI-QTOF
Ms type: MS2
Ion mode: POSITIVE
Collision energy: 30 eV
Ionization: ESI
Precursor type: [M+H]+
m/z	relative intensity
55.021	7
55.058	10
57.072	7
58.997	2
67.057	3
69.073	21
71.086	3
73.029	29
74.024	977
75.025	5
76.023	32
78.970	4
79.056	1
81.073	4
83.087	8
84.962	35
86.993	9
88.040	17
90.056	0
92.018	46
93.072	4
95.087	3
97.103	6
102.984	6
105.003	33
105.982	3
107.995	6
120.012	999
121.015	8
121.102	3
122.028	308
136.974	17
151.984	194
154.000	5
177.997	5
