Mass spectrum: Quercetin; LC-ESI-QTOF; MS2; CE:40 eV; [M-H]-
Name: Quercetin
Name: 2-(3,4-dihydroxyphenyl)-3,5,7-trihydroxychromen-4-one
Class: Natural Product; Flavonol
Formula: C15H10O7
Exact mass: 302.04265
SMILES: C1=CC(=C(C=C1C2=C(C(=O)C3=C(C=C(C=C3O2)O)O)O)O)O
InChI: InChI=1S/C15H10O7/c16-7-4-10(19)12-11(5-7)22-15(14(21)13(12)20)6-1-2-8(17)9(18)3-6/h1-5,16-19,21H
Instrument: API QSTAR Pulsar i
Instrument type: LC-ESI-QTOF
Ms type: MS2
Ion mode: NEGATIVE
Collision energy: 40 eV
Ionization: ESI
Precursor type: [M-H]-
m/z	relative intensity
63.024	122
65.003	162
83.012	117
93.034	91
95.014	11
96.022	10
107.016	653
108.024	36
109.031	80
120.022	9
121.029	519
124.016	22
125.024	17
133.030	9
135.042	14
136.017	12
139.042	70
145.032	13
147.042	14
148.019	13
149.025	94
151.004	999
152.012	16
159.047	32
161.027	45
163.023	81
164.014	63
169.013	43
173.058	11
175.038	20
177.055	12
178.997	102
183.045	19
185.057	11
187.038	31
193.010	21
199.035	13
201.051	34
203.031	16
205.046	13
211.038	30
227.037	42
229.051	25
243.035	30
245.050	44
255.032	18
273.043	12
301.040	19
