Mass spectrum: (+/-) Salsolinol; LC-ESI-QTOF; MS2; CE:15 eV; [M+H]+
Name: (+/-) Salsolinol
Name: 1-methyl-1,2,3,4-tetrahydroisoquinoline-6,7-diol
Class: Natural Product
Formula: C10H13NO2
Exact mass: 179.09463
SMILES: CC1C2=CC(=C(C=C2CCN1)O)O
InChI: InChI=1S/C10H13NO2/c1-6-8-5-10(13)9(12)4-7(8)2-3-11-6/h4-6,11-13H,2-3H2,1H3
Instrument: micrOTOF-Q
Instrument type: LC-ESI-QTOF
Ms type: MS2
Ion mode: POSITIVE
Collision energy: 15 eV
Ionization: ESI
Precursor type: [M+H]+
m/z	relative intensity
115.052	169
116.057	16
117.068	156
118.072	14
119.049	1
123.043	5
126.044	0
127.052	23
128.056	1
130.040	0
133.062	12
134.045	0
134.064	0
134.092	1
135.045	17
135.077	24
136.079	0
137.058	87
138.062	4
144.056	0
144.973	0
145.063	999
146.066	87
147.068	1
148.049	8
151.073	85
152.076	6
161.058	3
162.089	2
163.073	725
164.077	63
165.080	0
180.100	210
181.103	17
