Mass spectrum: Genistein; LC-ESI-QTOF; MS2; CE:40 eV; [M+H]+
Name: Genistein
Name: 5,7-dihydroxy-3-(4-hydroxyphenyl)chromen-4-one
Class: Natural Product; Isoflavone
Formula: C15H10O5
Exact mass: 270.05282
SMILES: C1=CC(=CC=C1C2=COC3=CC(=CC(=C3C2=O)O)O)O
InChI: InChI=1S/C15H10O5/c16-9-3-1-8(2-4-9)11-7-20-13-6-10(17)5-12(18)14(13)15(11)19/h1-7,16-18H
Instrument: API QSTAR Pulsar i
Instrument type: LC-ESI-QTOF
Ms type: MS2
Ion mode: POSITIVE
Collision energy: 40 eV
Ionization: ESI
Precursor type: [M+H]+
m/z	relative intensity
65.038	12
67.018	26
68.997	46
89.038	10
91.054	293
95.013	11
103.054	12
105.034	14
107.048	46
109.026	20
111.006	35
115.052	57
117.067	35
119.047	198
121.026	127
127.050	11
128.059	22
129.067	26
131.048	92
133.030	16
135.042	39
137.022	39
141.068	204
144.054	25
145.027	170
147.043	56
149.021	292
150.028	27
151.051	10
152.060	21
153.015	999
154.020	12
155.050	43
157.064	17
159.046	158
163.041	12
165.020	109
168.059	14
169.066	282
173.061	54
175.077	35
178.028	9
181.068	14
183.044	52
185.062	22
187.074	101
191.037	20
197.061	276
198.067	13
200.048	50
201.055	42
211.041	16
213.056	38
215.070	542
216.069	16
225.053	67
226.060	16
227.068	15
228.039	21
229.049	16
242.057	30
243.065	354
253.049	215
271.057	370
