Mass spectrum: Resveratrol; LC-ESI-QTOF; MS2; CE:25 eV; [M+H]+
Name: Resveratrol
Name: 5-[(E)-2-(4-hydroxyphenyl)ethenyl]benzene-1,3-diol
Class: Natural Product; Stilbene
Formula: C14H12O3
Exact mass: 228.07864
SMILES: C1=CC(=CC=C1/C=C/C2=CC(=CC(=C2)O)O)O
InChI: InChI=1S/C14H12O3/c15-12-5-3-10(4-6-12)1-2-11-7-13(16)9-14(17)8-11/h1-9,15-17H/b2-1+
Instrument: API QSTAR Pulsar i
Instrument type: LC-ESI-QTOF
Ms type: MS2
Ion mode: POSITIVE
Collision energy: 25 eV
Ionization: ESI
Precursor type: [M+H]+
m/z	relative intensity
55.020	12
68.998	22
71.013	8
79.054	13
85.029	7
91.055	319
95.051	29
107.050	817
108.053	20
109.029	26
111.045	61
119.050	368
120.058	100
121.029	57
123.044	43
131.063	21
135.044	999
136.050	127
141.066	46
145.060	83
147.040	11
151.035	13
153.066	32
155.082	53
157.063	16
159.078	29
161.089	12
165.068	180
169.064	13
171.044	12
173.073	26
183.079	173
187.074	24
193.066	70
201.090	22
211.078	86
212.084	8
229.087	185
230.091	9
