Mass spectrum: Protopine; LC-ESI-QQ; MS2; CE:30 eV; [M+H]+
Name: Protopine
Name: Bis[1,3]benzodioxolo[4,5-c:5',6'-g]azecin-13(5H)-one, 4,6,7,14-tetrahydro-5-methyl-
Class: Natural Product; Berberine Alkaloids
Formula: C20H19NO5
Exact mass: 353.12632
SMILES: CN1CCC2=CC3=C(C=C2C(=O)CC4=C(C1)C5=C(C=C4)OCO5)OCO3
InChI: InChI=1S/C20H19NO5/c1-21-5-4-13-7-18-19(25-10-24-18)8-14(13)16(22)6-12-2-3-17-20(15(12)9-21)26-11-23-17/h2-3,7-8H,4-6,9-11H2,1H3
Instrument: TSQ 7000
Instrument type: LC-ESI-QQ
Ms type: MS2
Ion mode: POSITIVE
Collision energy: 30 eV
Ionization: ESI
Precursor type: [M+H]+
m/z	relative intensity
32.000	1
44.000	30
45.000	5
58.000	5
59.000	0
91.000	7
107.000	8
108.000	0
109.000	0
119.000	18
120.000	0
131.000	1
132.000	1
135.000	27
146.000	0
147.000	5
148.000	0
149.000	288
159.000	6
160.000	2
161.000	5
163.000	9
165.000	106
167.000	0
173.000	3
174.000	0
175.000	31
176.000	11
177.000	37
178.000	23
179.000	1
187.000	7
188.000	578
189.000	679
190.000	30
192.000	9
193.000	0
195.000	16
200.000	0
201.000	1
202.000	1
204.000	11
205.000	1
206.000	129
207.000	8
209.000	1
217.000	6
218.000	1
219.000	1
223.000	17
225.000	11
226.000	0
233.000	1
235.000	32
237.000	17
238.000	0
239.000	1
245.000	5
247.000	81
248.000	1
249.000	4
251.000	1
253.000	16
261.000	1
263.000	17
265.000	48
266.000	1
267.000	29
268.000	0
269.000	0
275.000	171
276.000	0
277.000	4
278.000	21
279.000	3
280.000	1
281.000	3
283.000	10
289.000	1
291.000	4
292.000	3
293.000	42
294.000	1
295.000	31
296.000	1
304.000	0
305.000	35
306.000	23
307.000	6
308.000	0
311.000	9
320.000	19
321.000	27
322.000	0
323.000	37
324.000	3
325.000	1
326.000	0
332.000	0
334.000	25
335.000	0
336.000	94
337.000	0
353.000	2
354.000	999
