Mass spectrum: Bicuculline; LC-ESI-QTOF; MS2; CE:10 eV; [M+H]+
Name: Bicuculline
Name: (6R)-6-[(5S)-6-methyl-7,8-dihydro-5H-[1,3]dioxolo[4,5-g]isoquinolin-5-yl]-6H-furo[3,4-g][1,3]benzodioxol-8-one
Class: Natural Product
Formula: C20H17NO6
Exact mass: 367.10559
SMILES: CN1CCC2=CC3=C(C=C2[C@H]1[C@H]4C5=C(C6=C(C=C5)OCO6)C(=O)O4)OCO3
InChI: InChI=1S/C20H17NO6/c1-21-5-4-10-6-14-15(25-8-24-14)7-12(10)17(21)18-11-2-3-13-19(26-9-23-13)16(11)20(22)27-18/h2-3,6-7,17-18H,4-5,8-9H2,1H3/t17-,18+/m0/s1
Instrument: micrOTOF-Q
Instrument type: LC-ESI-QTOF
Ms type: MS2
Ion mode: POSITIVE
Collision energy: 10 eV
Ionization: ESI
Precursor type: [M+H]+
m/z	relative intensity
190.084	7
249.051	1
277.046	4
279.060	0
289.046	0
295.054	0
307.056	85
308.060	11
319.056	10
320.059	0
325.067	10
326.071	1
337.068	4
350.098	1
367.822	0
368.109	999
368.486	0
369.112	163
370.115	7
