Mass spectrum: Catechin; LC-ESI-QTOF; MS2; CE:40 eV; [M-H]-
Name: Catechin
Name: (2R,3S)-2-(3,4-dihydroxyphenyl)chroman-3,5,7-triol
Class: Natural Product; Flavanol
Formula: C15H14O6
Exact mass: 290.07904
SMILES: C1[C@@H]([C@H](OC2=CC(=CC(=C21)O)O)C3=CC(=C(C=C3)O)O)O
InChI: InChI=1S/C15H14O6/c16-8-4-11(18)9-6-13(20)15(21-14(9)5-8)7-1-2-10(17)12(19)3-7/h1-5,13,15-20H,6H2/t13-,15+/m0/s1
Instrument: API QSTAR Pulsar i
Instrument type: LC-ESI-QTOF
Ms type: MS2
Ion mode: NEGATIVE
Collision energy: 40 eV
Ionization: ESI
Precursor type: [M-H]-
m/z	relative intensity
55.019	9
57.034	101
69.033	20
80.023	10
81.031	58
83.010	76
93.033	64
95.047	127
97.028	206
99.045	16
105.036	28
107.051	22
108.022	90
109.030	999
111.045	14
113.061	8
117.034	28
119.049	10
120.020	9
121.028	180
122.036	145
123.043	897
124.014	9
125.022	343
131.048	16
133.028	25
135.044	95
137.024	265
138.031	55
139.040	126
143.049	14
145.029	86
146.038	62
147.045	29
149.024	121
150.031	86
151.039	237
157.066	26
158.038	17
159.045	147
160.053	75
161.060	132
162.032	46
163.040	51
164.012	116
165.018	46
167.035	14
173.058	69
174.032	25
175.070	96
177.052	27
179.032	14
183.044	10
184.049	9
185.056	36
187.036	107
188.043	82
199.068	19
201.050	49
202.057	41
203.064	139
205.045	45
212.044	21
221.078	75
227.070	18
