Mass spectrum: o-Anisic acid; LC-ESI-QTOF; MS2; CE:15 eV; [M+H]+
Name: o-Anisic acid
Name: 2-methoxybenzoic acid
Class: Natural Product
Formula: C8H8O3
Exact mass: 152.04734
SMILES: COC1=CC=CC=C1C(=O)O
InChI: InChI=1S/C8H8O3/c1-11-7-5-3-2-4-6(7)8(9)10/h2-5H,1H3,(H,9,10)
Instrument: micrOTOF-Q
Instrument type: LC-ESI-QTOF
Ms type: MS2
Ion mode: POSITIVE
Collision energy: 15 eV
Ionization: ESI
Precursor type: [M+H]+
m/z	relative intensity
120.019	7
133.028	0
135.042	999
136.046	66
137.047	0
