Mass spectrum: Kaempferol; LC-ESI-QQ; MS2; CE:30 eV; [M+H]+
Name: Kaempferol
Name: 3,5,7-trihydroxy-2-(4-hydroxyphenyl)chromen-4-one
Class: Natural Product; Flavonoids
Formula: C15H10O6
Exact mass: 286.04774
SMILES: C1=CC(=CC=C1C2=C(C(=O)C3=C(C=C(C=C3O2)O)O)O)O
InChI: InChI=1S/C15H10O6/c16-8-3-1-7(2-4-8)15-14(20)13(19)12-10(18)5-9(17)6-11(12)21-15/h1-6,16-18,20H
Instrument: TSQ QUANTUM AM
Instrument type: LC-ESI-QQ
Ms type: MS2
Ion mode: POSITIVE
Collision energy: 30 eV
Ionization: ESI
Precursor type: [M+H]+
m/z	relative intensity
65.000	2
67.000	2
69.000	46
71.000	0
77.000	15
79.000	8
81.000	4
83.000	0
89.000	0
91.000	3
93.000	34
94.000	2
95.000	2
97.000	1
99.000	0
103.000	7
105.000	30
107.000	29
109.000	36
110.000	0
111.000	53
115.000	11
117.000	1
119.000	8
121.000	246
123.000	2
124.000	0
125.000	1
126.000	0
127.000	14
128.000	14
129.000	16
131.000	7
132.000	0
133.000	53
134.000	1
135.000	12
136.000	7
137.000	114
138.000	0
139.000	8
141.000	20
143.000	3
145.000	32
147.000	69
149.000	3
151.000	2
152.000	0
153.000	593
155.000	2
157.000	92
159.000	0
160.000	2
161.000	33
163.000	4
165.000	311
166.000	1
167.000	4
168.000	2
169.000	9
171.000	38
173.000	6
174.000	0
175.000	27
179.000	6
181.000	0
183.000	5
184.000	7
185.000	84
187.000	0
188.000	4
189.000	21
190.000	0
191.000	1
193.000	5
194.000	4
195.000	7
197.000	21
199.000	11
200.000	1
201.000	6
202.000	1
203.000	22
207.000	0
212.000	10
213.000	239
216.000	10
217.000	10
218.000	4
219.000	1
223.000	4
225.000	1
227.000	1
229.000	34
230.000	0
231.000	65
232.000	2
240.000	1
241.000	100
242.000	5
243.000	11
244.000	0
245.000	8
251.000	0
252.000	0
257.000	2
258.000	177
259.000	46
263.000	0
268.000	0
269.000	15
270.000	1
285.000	2
286.000	0
287.000	999
