Mass spectrum: Coumarin; LC-ESI-QQ; MS2; CE:23 eV; [M+H]+
Name: Coumarin
Name: chromen-2-one
Class: Natural Product; Coumarins
Formula: C9H6O2
Exact mass: 146.03678
SMILES: C1=CC=C2C(=C1)C=CC(=O)O2
InChI: InChI=1S/C9H6O2/c10-9-6-5-7-3-1-2-4-8(7)11-9/h1-6H
Instrument: TSQ QUANTUM AM
Instrument type: LC-ESI-QQ
Ms type: MS2
Ion mode: POSITIVE
Collision energy: 23 eV
Ionization: ESI
Precursor type: [M+H]+
m/z	relative intensity
41.000	1
42.000	9
43.000	0
44.000	1
45.000	7
51.000	1
55.000	2
56.000	2
57.000	8
60.000	21
61.000	0
63.000	2
65.000	125
69.000	6
70.000	5
73.000	3
75.000	0
77.000	260
79.000	1
83.000	6
84.000	16
85.000	1
87.000	0
88.000	0
91.000	999
92.000	2
93.000	0
98.000	0
101.000	0
102.000	26
103.000	541
105.000	5
106.000	27
109.000	1
110.000	2
111.000	16
115.000	0
117.000	0
119.000	7
124.000	1
128.000	1
129.000	1
130.000	0
132.000	1
144.000	0
147.000	193
