Mass spectrum: Cinnamoylcholine; LC-ESI-QTOF; MS2; CE:15 eV; M+
Name: Cinnamoylcholine
Name: trimethyl-[2-[(E)-3-phenylprop-2-enoyl]oxyethyl]azanium
Class: Natural Product; choline ester
Formula: [C14H20NO2]+
Exact mass: 234.14940
SMILES: C[N+](C)(C)CCOC(=O)/C=C/C1=CC=CC=C1
InChI: InChI=1S/C14H20NO2/c1-15(2,3)11-12-17-14(16)10-9-13-7-5-4-6-8-13/h4-10H,11-12H2,1-3H3/q+1/b10-9+
Instrument: API QSTAR Pulsar i
Instrument type: LC-ESI-QTOF
Ms type: MS2
Ion mode: POSITIVE
Collision energy: 15 eV
Ionization: ESI
Precursor type: [M]+
m/z	relative intensity
175.076	942
234.152	999
