Mass spectrum: Genistein; LC-ESI-QTOF; MS2; CE:30 eV; [M+H]+
Name: Genistein
Name: 5,7-dihydroxy-3-(4-hydroxyphenyl)chromen-4-one
Class: Natural Product
Formula: C15H10O5
Exact mass: 270.05282
SMILES: C1=CC(=CC=C1C2=COC3=CC(=CC(=C3C2=O)O)O)O
InChI: InChI=1S/C15H10O5/c16-9-3-1-8(2-4-9)11-7-20-13-6-10(17)5-12(18)14(13)15(11)19/h1-7,16-18H
Instrument: micrOTOF-Q
Instrument type: LC-ESI-QTOF
Ms type: MS2
Ion mode: POSITIVE
Collision energy: 30 eV
Ionization: ESI
Precursor type: [M+H]+
m/z	relative intensity
101.137	0
102.046	0
107.054	0
115.053	57
116.057	7
117.069	10
118.044	0
118.103	0
119.047	28
120.053	1
121.027	48
122.029	5
124.708	0
125.023	0
126.029	0
126.043	2
127.053	19
128.060	29
129.068	25
130.070	1
131.049	81
131.083	5
132.053	7
132.091	2
132.958	0
133.028	3
133.064	8
134.035	2
135.043	46
137.022	29
138.031	1
138.625	0
139.050	5
141.069	310
141.112	0
141.146	1
142.072	38
143.050	3
144.056	39
145.030	89
145.062	25
146.030	3
146.066	6
147.044	55
147.078	9
147.432	0
148.046	5
149.022	156
150.028	44
151.050	14
152.060	35
153.017	999
153.238	0
153.689	0
154.019	54
154.077	1
155.047	47
156.053	7
157.062	23
158.175	0
159.045	98
159.073	19
160.048	10
160.078	3
161.053	2
163.036	23
163.053	0
164.041	2
165.017	62
166.019	2
167.033	7
168.054	35
169.062	383
169.131	1
169.186	1
170.067	34
171.047	6
171.077	2
172.049	8
173.058	53
174.061	20
175.073	32
176.074	2
177.055	2
178.025	11
179.044	13
180.054	3
180.934	0
181.062	13
182.068	3
183.038	63
184.050	10
185.057	34
186.062	7
187.069	75
188.044	8
188.073	2
191.030	29
195.023	1
196.052	0
197.057	393
198.061	76
199.069	8
200.043	109
200.189	0
201.051	59
202.053	12
203.030	16
203.083	0
204.041	0
205.040	0
207.040	4
209.046	8
210.146	0
211.038	25
212.051	2
213.053	111
214.056	43
215.067	688
215.160	0
215.184	0
215.217	0
216.068	94
216.133	0
217.054	6
217.077	1
219.064	7
223.037	1
224.043	15
225.051	107
226.058	69
227.067	24
227.134	0
227.180	0
228.038	55
229.045	37
230.059	1
231.030	0
235.036	13
236.032	1
241.046	34
242.054	82
243.062	477
243.136	0
244.066	74
245.063	1
247.056	2
252.036	8
252.958	0
253.046	445
254.048	65
255.054	0
256.041	0
257.995	0
269.042	6
270.044	1
270.973	0
271.056	446
272.059	71
272.122	2
273.064	0
284.025	1
285.029	1
348.240	0
498.593	0
891.363	0
