Mass spectrum: Kaempferol; LC-ESI-QTOF; MS2; CE:20 eV; [M+H]+
Name: Kaempferol
Name: 3,5,7-trihydroxy-2-(4-hydroxyphenyl)chromen-4-one
Class: Natural Product
Formula: C15H10O6
Exact mass: 286.04774
SMILES: C1=CC(=CC=C1C2=C(C(=O)C3=C(C=C(C=C3O2)O)O)O)O
InChI: InChI=1S/C15H10O6/c16-8-3-1-7(2-4-8)15-14(20)13(19)12-10(18)5-9(17)6-11(12)21-15/h1-6,16-18,20H
Instrument: micrOTOF-Q
Instrument type: LC-ESI-QTOF
Ms type: MS2
Ion mode: POSITIVE
Collision energy: 20 eV
Ionization: ESI
Precursor type: [M+H]+
m/z	relative intensity
121.027	3
133.027	0
137.022	2
147.043	1
153.016	18
154.018	0
157.063	0
165.017	10
171.039	0
183.027	4
185.058	1
197.057	0
203.067	0
213.053	19
214.056	2
229.049	1
231.062	15
232.069	0
241.045	18
242.052	1
243.061	0
245.042	1
258.048	26
259.055	14
260.059	0
263.051	0
269.041	4
270.048	0
286.036	0
286.806	0
286.911	0
287.051	999
287.233	0
287.424	0
288.053	120
289.056	5
