Mass spectrum: Harmane; LC-ESI-QTOF; MS2; CE:15 eV; [M+H]+
Name: Harmane
Name: 1-methyl-9H-pyrido[3,4-b]indole
Class: Natural Product
Formula: C12H10N2
Exact mass: 182.08440
SMILES: CC1=NC=CC2=C1NC3=CC=CC=C23
InChI: InChI=1S/C12H10N2/c1-8-12-10(6-7-13-8)9-4-2-3-5-11(9)14-12/h2-7,14H,1H3
Instrument: micrOTOF-Q
Instrument type: LC-ESI-QTOF
Ms type: MS2
Ion mode: POSITIVE
Collision energy: 15 eV
Ionization: ESI
Precursor type: [M+H]+
m/z	relative intensity
115.052	6
116.055	0
129.068	0
142.063	9
156.078	1
166.062	0
167.062	1
168.066	12
169.068	0
182.082	8
182.947	0
183.089	999
184.092	92
185.083	0
