Mass spectrum: Sinapine; LC-ESI-QTOF; MS2; CE:30 eV; [M]+
Name: Sinapine
Name: 2-[(E)-3-(4-hydroxy-3,5-dimethoxyphenyl)prop-2-enoyl]oxyethyl-trimethylazanium
Class: Natural Product
Formula: [C16H24NO5]+
Exact mass: 310.16545
SMILES: C[N+](C)(C)CCOC(=O)C=CC1=CC(=C(C(=C1)OC)O)OC
InChI: InChI=1S/C16H23NO5/c1-17(2,3)8-9-22-15(18)7-6-12-10-13(20-4)16(19)14(11-12)21-5/h6-7,10-11H,8-9H2,1-5H3/p+1
Instrument: micrOTOF-Q
Instrument type: LC-ESI-QTOF
Ms type: MS2
Ion mode: POSITIVE
Collision energy: 30 eV
Ionization: ESI
Precursor m/z: 310.16545
Precursor type: [M]+
m/z	relative intensity
115.052	15
116.054	2
117.073	2
118.041	3
119.047	128
120.049	7
121.028	3
121.064	1
123.039	0
127.051	1
128.060	5
129.031	32
129.072	0
130.036	1
131.047	13
132.023	10
132.052	9
133.022	0
133.035	1
133.060	2
134.035	18
135.042	20
136.048	19
137.053	3
143.046	5
144.053	4
145.027	11
145.063	8
146.034	27
147.042	634
148.045	53
149.023	32
149.060	1
150.025	2
151.037	33
152.043	2
153.087	0
157.027	0
157.065	0
159.045	0
160.014	6
160.046	2
161.019	0
161.056	9
162.029	37
163.036	63
164.044	116
165.048	6
167.067	2
172.053	0
173.023	0
173.057	1
174.029	16
175.036	999
176.040	93
177.024	4
177.050	8
178.023	0
178.056	1
179.067	81
180.055	7
181.040	0
181.085	4
189.048	4
190.058	38
191.033	32
191.071	0
192.038	30
192.097	0
193.044	15
194.047	0
203.030	0
205.042	0
206.054	17
207.061	542
208.054	58
209.038	5
218.052	6
218.142	0
219.060	5
221.041	16
222.052	1
229.946	0
235.056	122
235.141	0
236.063	92
237.068	6
251.087	780
251.181	0
251.222	0
252.090	93
