Mass spectrum: Serotonin; LC-ESI-QTOF; MS2; CE:15 eV; [M+H]+
Name: Serotonin
Name: 3-(2-aminoethyl)-1H-indol-5-ol
Class: Natural Product; Indole
Formula: C10H12N2O
Exact mass: 176.09496
SMILES: C1=CC2=C(C=C1O)C(=CN2)CCN
InChI: InChI=1S/C10H12N2O/c11-4-3-7-6-12-10-2-1-8(13)5-9(7)10/h1-2,5-6,12-13H,3-4,11H2
Instrument: API QSTAR Pulsar i
Instrument type: LC-ESI-QTOF
Ms type: MS2
Ion mode: POSITIVE
Collision energy: 15 eV
Ionization: ESI
Precursor type: [M+H]+
m/z	relative intensity
115.979	13
132.083	26
159.951	18
160.073	999
