Mass spectrum: Epicatechin; LC-ESI-QTOF; MS2; CE:25 eV; [M+H]+
Name: Epicatechin
Name: (2R,3R)-2-(3,4-dihydroxyphenyl)chroman-3,5,7-triol
Class: Natural Product; Flavanol
Formula: C15H14O6
Exact mass: 290.07904
SMILES: C1[C@H]([C@H](OC2=CC(=CC(=C21)O)O)C3=CC(=C(C=C3)O)O)O
InChI: InChI=1S/C15H14O6/c16-8-4-11(18)9-6-13(20)15(21-14(9)5-8)7-1-2-10(17)12(19)3-7/h1-5,13,15-20H,6H2/t13-,15-/m1/s1
Instrument: API QSTAR Pulsar i
Instrument type: LC-ESI-QTOF
Ms type: MS2
Ion mode: POSITIVE
Collision energy: 25 eV
Ionization: ESI
Precursor type: [M+H]+
m/z	relative intensity
95.052	11
119.049	24
123.043	571
139.039	999
140.042	16
147.043	219
151.039	30
161.062	51
163.042	27
165.057	170
169.052	23
179.073	41
181.055	15
189.058	16
207.068	165
249.079	16
