Mass spectrum: Dopamine; LC-ESI-QTOF; MS2; CE:50 eV; [M+H]+
Name: Dopamine
Name: 4-(2-aminoethyl)benzene-1,2-diol
Class: Natural Product; biogenic amine
Formula: C8H11NO2
Exact mass: 153.07898
SMILES: C1=CC(=C(C=C1CCN)O)O
InChI: InChI=1S/C8H11NO2/c9-4-3-6-1-2-7(10)8(11)5-6/h1-2,5,10-11H,3-4,9H2
Instrument: API QSTAR Pulsar i
Instrument type: LC-ESI-QTOF
Ms type: MS2
Ion mode: POSITIVE
Collision energy: 50 eV
Ionization: ESI
Precursor type: [M+H]+
m/z	relative intensity
39.023	32
41.039	21
51.024	32
53.041	11
55.020	5
63.023	51
64.028	1
65.039	999
66.046	7
75.023	3
77.039	11
79.054	11
89.036	8
91.054	462
94.042	6
110.036	3
