Mass spectrum: Laudanosine; LC-ESI-QTOF; MS2; CE:20 eV; [M+H]+
Name: Laudanosine
Name: 1-[(3,4-dimethoxyphenyl)methyl]-6,7-dimethoxy-2-methyl-3,4-dihydro-1H-isoquinoline
Class: Natural Product
Formula: C21H27NO4
Exact mass: 357.19401
SMILES: CN1CCC2=CC(=C(C=C2C1CC3=CC(=C(C=C3)OC)OC)OC)OC
InChI: InChI=1S/C21H27NO4/c1-22-9-8-15-12-20(25-4)21(26-5)13-16(15)17(22)10-14-6-7-18(23-2)19(11-14)24-3/h6-7,11-13,17H,8-10H2,1-5H3
Instrument: micrOTOF-Q
Instrument type: LC-ESI-QTOF
Ms type: MS2
Ion mode: POSITIVE
Collision energy: 20 eV
Ionization: ESI
Precursor type: [M+H]+
m/z	relative intensity
135.043	0
136.051	2
139.074	0
145.065	0
150.065	3
151.074	117
152.077	7
158.071	8
159.077	2
162.088	0
163.074	1
165.089	44
166.093	2
173.081	0
174.066	20
175.074	2
176.090	0
177.088	5
178.088	0
179.102	0
188.102	2
189.089	196
190.090	22
191.094	9
192.099	5
193.107	1
194.115	0
203.103	2
204.102	0
205.106	0
205.984	0
206.115	999
207.118	97
208.121	1
220.131	2
223.108	1
224.117	2
240.112	1
241.118	0
251.104	0
252.111	2
253.118	1
254.108	0
255.134	9
256.137	0
263.104	0
264.111	5
265.115	2
266.123	1
267.130	0
268.106	5
269.120	2
270.122	0
280.107	2
281.113	9
282.118	1
283.129	10
284.137	9
285.132	1
287.160	0
295.129	13
296.137	78
297.137	14
298.126	2
299.126	3
300.132	8
301.139	3
310.149	0
312.132	28
313.135	4
314.147	0
315.155	38
316.158	4
325.138	0
326.164	1
327.155	218
328.159	37
329.169	8
330.173	0
341.171	0
343.173	2
358.197	211
359.200	37
360.199	0
