Mass spectrum: Camalexin; LC-ESI-QTOF; MS2; CE:25 eV; [M+H]+
Name: Camalexin
Name: 3-(1,3-thiazol-2-yl)-1H-indole
Class: Natural Product; Indole
Formula: C11H8N2S
Exact mass: 200.04082
SMILES: C1=CC=C2C(=C1)C(=CN2)C3=NC=CS3
InChI: InChI=1S/C11H8N2S/c1-2-4-10-8(3-1)9(7-13-10)11-12-5-6-14-11/h1-7,13H
Instrument: API QSTAR Pulsar i
Instrument type: LC-ESI-QTOF
Ms type: MS2
Ion mode: POSITIVE
Collision energy: 25 eV
Ionization: ESI
Precursor type: [M+H]+
m/z	relative intensity
58.995	29
142.053	20
160.026	9
168.070	11
174.038	10
201.047	999
202.052	36
