Mass spectrum: Indoleacetic acid; LC-ESI-QTOF; MS2; CE:10 eV; [M+H]+
Name: Indoleacetic acid
Name: 2-(1H-indol-3-yl)acetic acid
Class: Natural Product; Indole
Formula: C10H9NO2
Exact mass: 175.06333
SMILES: C1=CC=C2C(=C1)C(=CN2)CC(=O)O
InChI: InChI=1S/C10H9NO2/c12-10(13)5-7-6-11-9-4-2-1-3-8(7)9/h1-4,6,11H,5H2,(H,12,13)
Instrument: API QSTAR Pulsar i
Instrument type: LC-ESI-QTOF
Ms type: MS2
Ion mode: POSITIVE
Collision energy: 10 eV
Ionization: ESI
Precursor type: [M+H]+
m/z	relative intensity
130.063	81
144.043	5
148.072	10
176.070	999
177.072	8
