Mass spectrum: Bicuculline; LC-ESI-QTOF; MS2; CE:20 eV; [M+H]+
Name: Bicuculline
Name: (6R)-6-[(5S)-6-methyl-7,8-dihydro-5H-[1,3]dioxolo[4,5-g]isoquinolin-5-yl]-6H-furo[3,4-g][1,3]benzodioxol-8-one
Class: Natural Product
Formula: C20H17NO6
Exact mass: 367.10559
SMILES: CN1CCC2=CC3=C(C=C2[C@H]1[C@H]4C5=C(C6=C(C=C5)OCO6)C(=O)O4)OCO3
InChI: InChI=1S/C20H17NO6/c1-21-5-4-10-6-14-15(25-8-24-14)7-12(10)17(21)18-11-2-3-13-19(26-9-23-13)16(11)20(22)27-18/h2-3,6-7,17-18H,4-5,8-9H2,1H3/t17-,18+/m0/s1
Instrument: micrOTOF-Q
Instrument type: LC-ESI-QTOF
Ms type: MS2
Ion mode: POSITIVE
Collision energy: 20 eV
Ionization: ESI
Precursor type: [M+H]+
m/z	relative intensity
149.058	5
175.036	0
176.069	9
177.017	0
188.068	3
189.077	10
190.084	59
191.088	7
219.043	0
221.058	2
223.073	3
233.057	4
235.074	3
239.069	0
247.039	0
249.051	70
250.055	8
251.067	10
252.070	0
261.051	29
262.056	3
263.068	6
264.074	0
265.051	1
266.054	0
267.062	9
268.066	0
277.046	228
278.050	34
279.062	44
280.067	6
281.073	6
282.070	0
289.046	42
290.050	6
291.061	15
292.070	8
293.076	7
295.056	24
296.060	3
297.073	3
303.061	7
304.065	0
307.057	999
308.060	154
309.069	16
310.079	0
311.055	0
319.057	108
320.061	19
321.071	5
322.085	0
325.067	34
326.071	4
332.087	2
333.078	0
335.075	9
336.077	0
337.067	18
338.073	2
339.084	1
350.099	6
351.101	0
353.084	0
368.109	178
369.112	32
370.114	0
