Mass spectrum: Nicotinoylcholine; LC-ESI-QTOF; MS2; CE:15 eV; M+
Name: Nicotinoylcholine
Name: trimethyl-[2-(pyridine-3-carbonyloxy)ethyl]azanium
Class: Natural Product; choline ester
Formula: [C11H17N2O2]+
Exact mass: 209.12900
SMILES: C[N+](C)(C)CCOC(=O)C1=CN=CC=C1
InChI: InChI=1S/C11H17N2O2/c1-13(2,3)7-8-15-11(14)10-5-4-6-12-9-10/h4-6,9H,7-8H2,1-3H3/q+1
Instrument: API QSTAR Pulsar i
Instrument type: LC-ESI-QTOF
Ms type: MS2
Ion mode: POSITIVE
Collision energy: 15 eV
Ionization: ESI
Precursor type: [M]+
m/z	relative intensity
150.052	659
209.124	999
