Mass spectrum: Xanthotoxin; LC-ESI-QTOF; MS2; CE:10 eV; [M+H]+
Name: Xanthotoxin
Name: 9-methoxyfuro[3,2-g]chromen-7-one
Class: Natural Product
Formula: C12H8O4
Exact mass: 216.04226
SMILES: COC1=C2C(=CC3=C1OC=C3)C=CC(=O)O2
InChI: InChI=1S/C12H8O4/c1-14-12-10-8(4-5-15-10)6-7-2-3-9(13)16-11(7)12/h2-6H,1H3
Instrument: micrOTOF-Q
Instrument type: LC-ESI-QTOF
Ms type: MS2
Ion mode: POSITIVE
Collision energy: 10 eV
Ionization: ESI
Precursor type: [M+H]+
m/z	relative intensity
158.035	0
161.059	10
173.058	6
174.030	5
185.022	10
186.025	0
189.053	11
190.056	0
202.024	88
203.028	7
216.037	0
216.903	0
217.048	999
217.376	0
218.051	100
219.053	4
