Mass spectrum: Tyramine; LC-ESI-QTOF; MS2; CE:20 eV; [M+H]+
Name: Tyramine
Name: 4-(2-aminoethyl)phenol
Class: Natural Product
Formula: C8H11NO
Exact mass: 137.08406
SMILES: C1=CC(=CC=C1CCN)O
InChI: InChI=1S/C8H11NO/c9-6-5-7-1-3-8(10)4-2-7/h1-4,10H,5-6,9H2
Instrument: micrOTOF-Q
Instrument type: LC-ESI-QTOF
Ms type: MS2
Ion mode: POSITIVE
Collision energy: 20 eV
Ionization: ESI
Precursor type: [M+H]+
m/z	relative intensity
102.042	0
103.050	21
104.063	0
119.049	11
120.057	10
121.063	999
121.784	0
121.813	0
122.067	86
134.937	2
152.955	0
159.871	0
232.958	1
422.495	0
439.515	0
582.782	0
935.095	0
