Mass spectrum: Phlorizin; LC-ESI-QTOF; MS2; CE:10 eV; [M+H]+
Name: Phlorizin
Name: 1-[2,4-dihydroxy-6-[(2S,3R,4S,5S,6R)-3,4,5-trihydroxy-6-(hydroxymethyl)oxan-2-yl]oxyphenyl]-3-(4-hydroxyphenyl)propan-1-one
Class: Natural Product; Glycosides
Formula: C21H24O10
Exact mass: 436.13695
SMILES: C1=CC(=CC=C1CCC(=O)C2=C(C=C(C=C2O[C@H]3[C@@H]([C@H]([C@@H]([C@H](O3)CO)O)O)O)O)O)O
InChI: InChI=1S/C21H24O10/c22-9-16-18(27)19(28)20(29)21(31-16)30-15-8-12(24)7-14(26)17(15)13(25)6-3-10-1-4-11(23)5-2-10/h1-2,4-5,7-8,16,18-24,26-29H,3,6,9H2/t16-,18-,19+,20-,21-/m1/s1
Instrument: micrOTOF-Q
Instrument type: LC-ESI-QTOF
Ms type: MS2
Ion mode: POSITIVE
Collision energy: 10 eV
Ionization: ESI
Precursor type: [M+H]+
m/z	relative intensity
127.035	2
149.057	3
151.036	0
169.047	15
173.054	0
191.067	1
211.059	2
215.067	3
233.079	0
235.056	3
239.070	0
257.076	4
259.058	0
274.896	0
275.087	999
275.184	0
275.411	0
275.509	0
276.091	135
276.200	0
277.084	6
281.075	0
287.088	11
288.089	1
299.086	33
300.089	4
311.084	0
315.080	0
317.096	122
318.101	19
341.096	67
342.101	11
353.095	19
354.101	3
365.096	7
366.098	1
371.107	7
372.112	0
383.107	32
384.108	5
401.117	19
402.121	1
419.129	35
420.133	4
436.236	10
437.136	28
437.243	1
438.140	4
