Mass spectrum: 5-methoxyindole-3-carbaldehyde; LC-ESI-QTOF; MS2; CE:40 eV; [M+H]+
Name: 5-methoxyindole-3-carbaldehyde
Class: Natural Product; indole
Formula: C10H9NO2
Exact mass: 175.06333
SMILES: COC1=CC2=C(C=C1)NC=C2C=O
InChI: InChI=1S/C10H9NO2/c1-13-8-2-3-10-9(4-8)7(6-12)5-11-10/h2-6,11H,1H3
Instrument: API QSTAR Pulsar i
Instrument type: LC-ESI-QTOF
Ms type: MS2
Ion mode: POSITIVE
Collision energy: 40 eV
Ionization: ESI
Precursor type: [M+H]+
m/z	relative intensity
52.034	1
62.929	1
63.021	1
64.929	1
65.039	24
76.030	4
77.038	42
78.046	89
79.041	149
80.046	2
89.038	132
90.045	52
91.053	126
93.068	3
95.048	4
103.054	2
104.050	476
105.058	999
106.052	29
116.049	165
117.058	614
118.063	27
120.081	1
121.064	102
132.043	200
133.050	642
134.058	45
144.054	22
147.067	21
148.075	20
160.043	2
