Mass spectrum: Aloin; LC-ESI-QTOF; MS2; CE:20 eV; [M+H]+
Name: Aloin
Name: 1,8-dihydroxy-3-(hydroxymethyl)-10-[3,4,5-trihydroxy-6-(hydroxymethyl)oxan-2-yl]-10H-anthracen-9-one
Class: Natural Product; Anthron
Formula: C21H22O9
Exact mass: 418.12638
SMILES: C1=CC2=C(C(=C1)O)C(=O)C3=C(C=C(C=C3C2C4C(C(C(C(O4)CO)O)O)O)CO)O
InChI: InChI=1S/C21H22O9/c22-6-8-4-10-14(21-20(29)19(28)17(26)13(7-23)30-21)9-2-1-3-11(24)15(9)18(27)16(10)12(25)5-8/h1-5,13-14,17,19-26,28-29H,6-7H2
Instrument: micrOTOF-Q
Instrument type: LC-ESI-QTOF
Ms type: MS2
Ion mode: POSITIVE
Collision energy: 20 eV
Ionization: ESI
Precursor type: [M+H]+
m/z	relative intensity
127.039	2
147.606	0
155.974	0
164.822	0
169.059	0
171.554	0
183.086	0
193.072	1
196.914	0
197.250	0
201.597	0
209.050	1
211.074	575
211.156	3
211.347	0
211.422	0
211.693	0
212.077	73
212.147	0
212.177	0
213.078	0
221.056	2
222.059	0
226.064	12
227.067	47
228.068	2
235.074	0
238.062	1
238.875	1
238.907	1
238.959	0
239.002	1
239.068	999
239.177	1
239.206	0
240.070	127
241.077	12
241.940	0
251.065	0
255.064	19
256.067	6
257.078	280
257.162	0
257.204	0
258.083	28
263.067	11
265.082	1
267.065	4
269.074	2
270.081	1
275.060	0
277.083	2
279.067	2
280.098	0
281.073	7
282.416	1
285.076	3
285.932	0
289.174	0
291.126	1
293.089	7
294.077	1
295.102	0
301.089	0
304.901	0
305.070	1
306.088	3
308.058	1
311.108	0
312.050	0
317.074	3
317.399	0
319.088	2
319.394	0
320.062	0
321.078	1
323.032	0
323.082	0
335.089	0
339.101	1
347.096	0
353.858	0
355.043	0
356.061	0
358.648	0
358.796	0
359.340	0
360.219	0
365.092	1
365.172	0
383.363	0
391.011	0
398.514	0
479.145	0
484.047	0
493.965	0
531.972	0
533.091	0
557.009	0
661.899	0
