Mass spectrum: 4-methylumbelliferyl glucuronide; LC-ESI-QTOF; MS2; CE:15 eV; [M+H]+
Name: 4-methylumbelliferyl glucuronide
Name: (2S,3S,4S,5R,6S)-3,4,5-trihydroxy-6-(4-methyl-2-oxochromen-7-yl)oxyoxane-2-carboxylic acid
Class: Natural Product
Formula: C16H16O9
Exact mass: 352.07943
SMILES: CC1=CC(=O)OC2=C1C=CC(=C2)O[C@H]3[C@@H]([C@H]([C@@H]([C@H](O3)C(=O)O)O)O)O
InChI: InChI=1S/C16H16O9/c1-6-4-10(17)24-9-5-7(2-3-8(6)9)23-16-13(20)11(18)12(19)14(25-16)15(21)22/h2-5,11-14,16,18-20H,1H3,(H,21,22)/t11-,12-,13+,14-,16+/m0/s1
Instrument: micrOTOF-Q
Instrument type: LC-ESI-QTOF
Ms type: MS2
Ion mode: POSITIVE
Collision energy: 15 eV
Ionization: ESI
Precursor type: [M+H]+
m/z	relative intensity
121.065	0
133.064	0
149.060	0
176.949	0
177.054	999
178.057	78
179.058	0
353.085	15
354.087	1
