Mass spectrum: Daidzein; LC-ESI-QTOF; MS2; CE:40 eV; [M-H]-
Name: Daidzein
Name: 7-hydroxy-3-(4-hydroxyphenyl)chromen-4-one
Class: Natural Product; Isoflavone
Formula: C15H10O4
Exact mass: 254.05791
SMILES: C1=CC(=CC=C1C2=COC3=C(C2=O)C=CC(=C3)O)O
InChI: InChI=1S/C15H10O4/c16-10-3-1-9(2-4-10)13-8-19-14-7-11(17)5-6-12(14)15(13)18/h1-8,16-17H
Instrument: API QSTAR Pulsar i
Instrument type: LC-ESI-QTOF
Ms type: MS2
Ion mode: NEGATIVE
Collision energy: 40 eV
Ionization: ESI
Precursor type: [M-H]-
m/z	relative intensity
65.032	8
89.066	23
91.045	346
104.055	25
105.064	9
116.052	20
117.060	104
123.068	7
127.078	12
132.043	460
133.051	659
135.030	408
141.090	15
143.073	25
152.084	19
153.040	39
154.063	13
155.071	34
159.066	21
160.037	36
167.069	64
168.075	44
169.082	169
179.065	27
180.070	267
181.077	64
182.049	64
183.056	65
185.070	10
195.054	309
196.059	309
197.066	209
207.052	37
208.058	852
209.066	361
210.038	44
211.046	45
213.060	9
223.045	853
224.052	770
225.061	243
226.032	19
251.037	52
252.045	113
253.051	999
