Mass spectrum: Naringenin chalcone; LC-ESI-QTOF; MS2; CE:40 eV; [M+H]+
Name: Naringenin chalcone
Name: 3-(4-hydroxyphenyl)-1-(2,4,6-trihydroxyphenyl)prop-2-en-1-one
Class: Natural Product; Chalcone
Formula: C15H12O5
Exact mass: 272.06847
SMILES: C1=CC(=CC=C1/C=C/C(=O)C2=C(C=C(C=C2O)O)O)O
InChI: InChI=1S/C15H12O5/c16-10-4-1-9(2-5-10)3-6-12(18)15-13(19)7-11(17)8-14(15)20/h1-8,16-17,19-20H/b6-3+
Instrument: API QSTAR Pulsar i
Instrument type: LC-ESI-QTOF
Ms type: MS2
Ion mode: POSITIVE
Collision energy: 40 eV
Ionization: ESI
Precursor type: [M+H]+
m/z	relative intensity
67.019	19
68.997	12
69.036	10
91.054	79
95.050	20
97.029	12
107.049	22
119.050	350
123.044	36
147.044	218
153.018	999
154.022	16
