Mass spectrum: Salsolinol; LC-ESI-QQ; MS2; CE:25 eV; [M+H]+
Name: Salsolinol
Name: (1S)-1-methyl-1,2,3,4-tetrahydroisoquinoline-6,7-diol
Class: Natural Product; Isoquinoline Alkaloids
Formula: C10H13NO2
Exact mass: 179.09463
SMILES: C[C@H]1C2=CC(=C(C=C2CCN1)O)O
InChI: InChI=1S/C10H13NO2/c1-6-8-5-10(13)9(12)4-7(8)2-3-11-6/h4-6,11-13H,2-3H2,1H3/t6-/m0/s1
Instrument: TSQ 7000
Instrument type: LC-ESI-QQ
Ms type: MS2
Ion mode: POSITIVE
Collision energy: 25 eV
Ionization: ESI
Precursor type: [M+H]+
m/z	relative intensity
30.000	14
31.000	3
42.000	0
43.000	4
44.000	10
45.000	3
55.000	3
56.000	0
57.000	16
58.000	2
59.000	0
67.000	0
69.000	20
70.000	3
71.000	0
78.000	0
79.000	5
80.000	1
81.000	0
83.000	2
87.000	0
91.000	47
92.000	3
93.000	1
95.000	0
97.000	1
98.000	0
102.000	0
105.000	16
106.000	0
107.000	17
108.000	0
109.000	1
115.000	95
116.000	6
117.000	728
119.000	13
120.000	2
121.000	1
123.000	8
127.000	57
128.000	3
130.000	0
133.000	9
134.000	4
135.000	42
136.000	2
137.000	87
138.000	5
139.000	20
140.000	4
144.000	0
145.000	999
146.000	13
148.000	5
149.000	0
151.000	57
152.000	0
161.000	0
162.000	1
163.000	487
164.000	22
180.000	148
181.000	8
