Mass spectrum: Asparagine; LC-ESI-QTOF; MS2; CE:40 eV; [M+H]+
Name: Asparagine
Name: 2,4-diamino-4-oxobutanoic acid
Class: Natural Product; amino acid
Formula: C4H8N2O3
Exact mass: 132.05349
SMILES: C(C(C(=O)O)N)C(=O)N
InChI: InChI=1S/C4H8N2O3/c5-2(4(8)9)1-3(6)7/h2H,1,5H2,(H2,6,7)(H,8,9)
Instrument: API QSTAR Pulsar i
Instrument type: LC-ESI-QTOF
Ms type: MS2
Ion mode: POSITIVE
Collision energy: 40 eV
Ionization: ESI
Precursor type: [M+H]+
m/z	relative intensity
37.029	9
42.034	25
43.019	300
44.050	257
45.043	47
46.030	144
53.004	37
55.020	10
55.055	7
60.046	63
65.042	14
70.030	273
71.013	15
74.024	999
77.039	43
79.056	21
87.058	12
88.040	8
91.055	38
99.012	14
103.056	6
105.071	20
115.055	6
