Mass spectrum: Indole-3-acetonitrile; LC-ESI-QTOF; MS2; CE:15 eV; [M+H]+
Name: Indole-3-acetonitrile
Name: 2-(1H-indol-3-yl)acetonitrile
Class: Natural Product
Formula: C10H8N2
Exact mass: 156.06875
SMILES: C1=CC=C2C(=C1)C(=CN2)CC#N
InChI: InChI=1S/C10H8N2/c11-6-5-8-7-12-10-4-2-1-3-9(8)10/h1-4,7,12H,5H2
Instrument: micrOTOF-Q
Instrument type: LC-ESI-QTOF
Ms type: MS2
Ion mode: POSITIVE
Collision energy: 15 eV
Ionization: ESI
Precursor type: [M+H]+
m/z	relative intensity
116.047	1
117.056	398
118.059	30
128.048	14
129.053	1
129.966	0
130.063	999
130.186	0
131.066	80
132.067	0
146.058	4
155.059	14
156.064	2
157.073	3
