Mass spectrum: Hesperidin methyl chalcone; LC-ESI-QTOF; MS2; CE:15 eV; [M+H]+
Name: Hesperidin methyl chalcone
Name: (E)-3-(3-hydroxy-4-methoxyphenyl)-1-[2-hydroxy-6-methoxy-4-[(2S,3R,4S,5S,6R)-3,4,5-trihydroxy-6-[[(2R,3R,4R,5R,6S)-3,4,5-trihydroxy-6-methyloxan-2-yl]oxymethyl]oxan-2-yl]oxyphenyl]prop-2-en-1-one
Class: Natural Product
Formula: C29H36O15
Exact mass: 624.20542
SMILES: C[C@H]1[C@@H]([C@H]([C@H]([C@@H](O1)OC[C@@H]2[C@H]([C@@H]([C@H]([C@@H](O2)OC3=CC(=C(C(=C3)OC)C(=O)/C=C/C4=CC(=C(C=C4)OC)O)O)O)O)O)O)O)O
InChI: InChI=1S/C29H36O15/c1-12-22(33)24(35)26(37)28(42-12)41-11-20-23(34)25(36)27(38)29(44-20)43-14-9-17(32)21(19(10-14)40-3)15(30)6-4-13-5-7-18(39-2)16(31)8-13/h4-10,12,20,22-29,31-38H,11H2,1-3H3/b6-4+/t12-,20+,22-,23+,24+,25-,26+,27+,28+,29+/m0/s1
Instrument: micrOTOF-Q
Instrument type: LC-ESI-QTOF
Ms type: MS2
Ion mode: POSITIVE
Collision energy: 15 eV
Ionization: ESI
Precursor type: [M+H]+
m/z	relative intensity
129.054	4
147.067	0
153.018	2
179.033	1
191.069	1
195.027	4
219.027	1
245.040	1
255.086	0
263.053	18
264.055	0
281.063	37
282.068	2
297.059	0
299.076	4
301.105	6
302.108	2
309.116	0
315.084	4
315.118	0
316.088	1
316.878	0
317.100	999
317.513	0
317.772	0
318.103	134
319.105	4
329.099	3
341.099	5
359.109	59
360.113	9
383.109	19
384.112	3
409.124	4
410.132	0
425.111	1
427.136	52
428.140	8
443.132	1
445.145	54
446.149	8
461.139	8
462.148	0
463.156	58
464.159	11
477.133	2
478.140	3
479.150	58
480.154	9
