Mass spectrum: (+/-) Salsolinol; LC-ESI-QTOF; MS2; CE:20 eV; [M+H]+
Name: (+/-) Salsolinol
Name: 1-methyl-1,2,3,4-tetrahydroisoquinoline-6,7-diol
Class: Natural Product
Formula: C10H13NO2
Exact mass: 179.09463
SMILES: CC1C2=CC(=C(C=C2CCN1)O)O
InChI: InChI=1S/C10H13NO2/c1-6-8-5-10(13)9(12)4-7(8)2-3-11-6/h4-6,11-13H,2-3H2,1H3
Instrument: micrOTOF-Q
Instrument type: LC-ESI-QTOF
Ms type: MS2
Ion mode: POSITIVE
Collision energy: 20 eV
Ionization: ESI
Precursor type: [M+H]+
m/z	relative intensity
115.053	576
116.057	63
117.069	332
118.071	32
119.047	7
120.057	0
123.043	22
124.049	1
126.045	4
127.053	74
128.057	6
130.040	10
131.047	1
133.062	40
134.039	9
134.058	0
134.090	4
135.046	12
135.077	47
136.047	2
136.081	3
137.058	59
138.061	2
143.048	1
144.056	3
144.954	0
145.064	999
146.067	94
147.066	1
148.051	30
149.055	2
150.054	2
151.071	100
152.075	9
161.058	6
162.084	0
163.074	293
164.078	30
165.078	0
180.100	31
181.103	1
