Mass spectrum: Spermidine; LC-ESI-QTOF; MS2; CE:45 eV; [M+H]+
Name: Spermidine
Name: N-(3-aminopropyl)butane-1,4-diamine
Class: Natural Product; biogenic amine
Formula: C7H19N3
Exact mass: 145.15790
SMILES: C(CCNCCCN)CN
InChI: InChI=1S/C7H19N3/c8-4-1-2-6-10-7-3-5-9/h10H,1-9H2
Instrument: API QSTAR Pulsar i
Instrument type: LC-ESI-QTOF
Ms type: MS2
Ion mode: POSITIVE
Collision energy: 45 eV
Ionization: ESI
Precursor type: [M+H]+
m/z	relative intensity
39.025	5
41.041	15
42.036	52
43.045	6
44.052	13
53.042	6
55.057	166
56.052	25
58.068	186
65.041	93
70.068	18
72.082	999
84.084	457
89.042	24
90.048	43
91.057	254
112.116	5
117.061	67
118.070	9
