Mass spectrum: Apomorphine; LC-ESI-QTOF; MS2; CE:15 eV; [M+H]+
Name: Apomorphine
Name: (6aS)-6-Methyl-5,6,6a,7-tetrahydro-4H-dibenzo[de,g]quinoline-10,11-diol
Class: Natural Product
Formula: C17H17NO2
Exact mass: 267.12593
SMILES: CN1CCC2=C3[C@H]1CC4=C(C3=CC=C2)C(=C(C=C4)O)O
InChI: InChI=1S/C17H17NO2/c1-18-8-7-10-3-2-4-12-15(10)13(18)9-11-5-6-14(19)17(20)16(11)12/h2-6,13,19-20H,7-9H2,1H3/t13-/m1/s1
Instrument: micrOTOF-Q
Instrument type: LC-ESI-QTOF
Ms type: MS2
Ion mode: POSITIVE
Collision energy: 15 eV
Ionization: ESI
Precursor type: [M+H]+
m/z	relative intensity
189.068	1
190.076	1
191.083	53
192.086	5
200.060	0
201.067	2
202.073	0
207.078	4
208.082	0
218.070	1
219.078	402
220.081	60
221.085	2
225.088	1
236.077	0
236.923	0
237.088	999
238.092	136
239.096	6
268.130	144
269.133	23
270.136	0
