Mass spectrum: Quercetin; LC-ESI-QQ; MS2; CE:35 eV; [M+H]+
Name: Quercetin
Name: 2-(3,4-dihydroxyphenyl)-3,5,7-trihydroxychromen-4-one
Class: Natural Product; Flavonoids
Formula: C15H10O7
Exact mass: 302.04265
SMILES: C1=CC(=C(C=C1C2=C(C(=O)C3=C(C=C(C=C3O2)O)O)O)O)O
InChI: InChI=1S/C15H10O7/c16-7-4-10(19)12-11(5-7)22-15(14(21)13(12)20)6-1-2-8(17)9(18)3-6/h1-5,16-19,21H
Instrument: TSQ QUANTUM AM
Instrument type: LC-ESI-QQ
Ms type: MS2
Ion mode: POSITIVE
Collision energy: 35 eV
Ionization: ESI
Precursor type: [M+H]+
m/z	relative intensity
39.000	0
43.000	0
53.000	1
55.000	8
57.000	0
65.000	34
66.000	0
67.000	30
69.000	160
71.000	3
77.000	14
79.000	11
81.000	58
83.000	8
84.000	0
86.000	0
87.000	0
89.000	2
91.000	22
92.000	2
93.000	29
94.000	7
95.000	48
97.000	14
99.000	17
100.000	0
101.000	16
103.000	17
104.000	3
105.000	31
107.000	33
108.000	1
109.000	182
110.000	4
111.000	94
113.000	5
115.000	73
117.000	72
119.000	13
121.000	165
122.000	1
123.000	66
124.000	9
125.000	1
126.000	2
127.000	140
128.000	18
129.000	15
131.000	79
132.000	3
133.000	33
134.000	0
135.000	56
136.000	4
137.000	670
139.000	27
141.000	6
142.000	4
143.000	21
144.000	2
145.000	145
146.000	1
147.000	21
149.000	45
150.000	8
151.000	7
152.000	0
153.000	999
155.000	276
157.000	36
158.000	2
159.000	43
160.000	14
161.000	117
162.000	0
163.000	114
165.000	280
166.000	27
167.000	5
168.000	1
169.000	3
171.000	8
172.000	0
173.000	257
174.000	3
175.000	10
176.000	1
177.000	50
178.000	2
179.000	78
183.000	240
184.000	24
185.000	2
187.000	188
188.000	3
189.000	12
190.000	6
191.000	48
192.000	1
193.000	7
194.000	1
195.000	22
197.000	0
198.000	0
200.000	19
201.000	486
202.000	9
203.000	11
204.000	5
205.000	22
207.000	18
211.000	77
212.000	4
213.000	16
215.000	24
216.000	2
217.000	31
218.000	2
219.000	44
221.000	18
223.000	1
224.000	0
227.000	2
228.000	114
229.000	930
230.000	3
231.000	7
232.000	25
233.000	4
235.000	0
238.000	1
239.000	60
240.000	0
241.000	2
243.000	8
245.000	48
246.000	8
247.000	33
255.000	5
256.000	12
257.000	231
258.000	9
261.000	3
267.000	2
268.000	0
269.000	6
273.000	4
274.000	65
283.000	0
285.000	94
286.000	14
301.000	3
303.000	137
