Mass spectrum: Threonine; LC-ESI-QTOF; MS2; CE:30 eV; [M+H]+
Name: Threonine
Name: 2-amino-3-hydroxybutanoic acid
Class: Natural Product; amino acid
Formula: C4H9NO3
Exact mass: 119.05824
SMILES: CC(C(C(=O)O)N)O
InChI: InChI=1S/C4H9NO3/c1-2(6)3(5)4(7)8/h2-3,6H,5H2,1H3,(H,7,8)
Instrument: API QSTAR Pulsar i
Instrument type: LC-ESI-QTOF
Ms type: MS2
Ion mode: POSITIVE
Collision energy: 30 eV
Ionization: ESI
Precursor type: [M+H]+
m/z	relative intensity
46.030	21
56.051	999
57.034	199
58.029	5
58.066	5
74.061	266
84.046	11
