Mass spectrum: Methionine; LC-ESI-QTOF; MS2; CE:20 eV; [M+H]+
Name: Methionine
Name: 2-amino-4-methylsulfanylbutanoic acid
Class: Natural Product; amino acid
Formula: C5H11NO2S
Exact mass: 149.05105
SMILES: CSCCC(C(=O)O)N
InChI: InChI=1S/C5H11NO2S/c1-9-3-2-4(6)5(7)8/h4H,2-3,6H2,1H3,(H,7,8)
Instrument: API QSTAR Pulsar i
Instrument type: LC-ESI-QTOF
Ms type: MS2
Ion mode: POSITIVE
Collision energy: 20 eV
Ionization: ESI
Precursor type: [M+H]+
m/z	relative intensity
56.051	999
61.012	437
74.060	78
84.045	41
85.029	31
87.027	106
102.056	244
104.055	798
133.033	436
150.054	64
