Mass spectrum: Tryptophan; LC-ESI-QTOF; MS2; CE:15 eV; [M+H]+
Name: Tryptophan
Name: 2-amino-3-(1H-indol-3-yl)propanoic acid
Class: Natural Product; amino acid
Formula: C11H12N2O2
Exact mass: 204.08988
SMILES: C1=CC=C2C(=C1)C(=CN2)CC(C(=O)O)N
InChI: InChI=1S/C11H12N2O2/c12-9(11(14)15)5-7-6-13-10-4-2-1-3-8(7)10/h1-4,6,9,13H,5,12H2,(H,14,15)
Instrument: API QSTAR Pulsar i
Instrument type: LC-ESI-QTOF
Ms type: MS2
Ion mode: POSITIVE
Collision energy: 15 eV
Ionization: ESI
Precursor type: [M+H]+
m/z	relative intensity
57.071	6
118.068	5
132.081	8
144.082	8
146.062	68
149.025	53
159.094	24
188.073	999
189.077	16
205.100	104
