Mass spectrum: 3,4,5-Trimethoxycinnamic acid; LC-ESI-QTOF; MS2; CE:20 eV; [M+H]+
Name: 3,4,5-Trimethoxycinnamic acid
Name: (E)-3-(3,4,5-trimethoxyphenyl)prop-2-enoic acid
Class: Natural Product
Formula: C12H14O5
Exact mass: 238.08412
SMILES: COC1=CC(=CC(=C1OC)OC)/C=C/C(=O)O
InChI: InChI=1S/C12H14O5/c1-15-9-6-8(4-5-11(13)14)7-10(16-2)12(9)17-3/h4-7H,1-3H3,(H,13,14)/b5-4+
Instrument: micrOTOF-Q
Instrument type: LC-ESI-QTOF
Ms type: MS2
Ion mode: POSITIVE
Collision energy: 20 eV
Ionization: ESI
Precursor type: [M+H]+
m/z	relative intensity
102.044	0
107.047	2
115.052	4
116.059	0
117.032	3
117.070	0
118.040	18
119.048	38
120.053	8
121.063	43
122.069	8
123.043	10
124.051	3
125.058	2
129.033	6
130.040	83
131.047	82
132.055	75
133.030	67
133.060	67
134.036	6
134.068	20
135.042	217
136.048	27
137.058	19
138.066	64
139.039	0
139.072	21
140.040	0
142.038	1
144.055	9
145.027	27
146.035	38
147.042	505
148.049	151
149.058	180
150.065	82
151.073	22
152.048	8
153.054	3
154.061	57
155.063	2
157.026	0
158.035	15
159.042	28
160.050	125
161.057	161
162.066	476
162.270	0
162.944	0
163.038	999
163.186	0
163.351	0
163.467	0
164.043	92
164.080	1
165.054	58
166.058	6
167.068	52
168.073	5
169.084	84
170.035	1
170.086	6
172.049	3
173.021	12
174.030	48
175.037	386
176.044	183
177.053	289
177.143	0
178.060	606
178.199	0
179.066	116
180.075	25
181.050	9
182.056	7
187.038	8
188.045	43
189.053	53
190.061	894
190.382	0
190.454	0
190.898	0
191.033	860
191.268	0
192.037	102
193.083	491
194.087	59
195.068	0
195.094	4
196.066	0
197.079	14
198.079	0
205.047	82
206.055	599
207.060	78
208.071	234
208.261	0
209.065	29
210.067	1
221.078	361
222.082	42
223.069	2
224.066	25
225.068	2
239.090	7
