Mass spectrum: Syringaldehyde; LC-ESI-QTOF; MS2; CE:25 eV; [M+H]+
Name: Syringaldehyde
Name: 4-hydroxy-3,5-dimethoxybenzaldehyde
Class: Natural Product; Benzaldehyde
Formula: C9H10O4
Exact mass: 182.05791
SMILES: COC1=CC(=CC(=C1O)OC)C=O
InChI: InChI=1S/C9H10O4/c1-12-7-3-6(5-10)4-8(13-2)9(7)11/h3-5,11H,1-2H3
Instrument: API QSTAR Pulsar i
Instrument type: LC-ESI-QTOF
Ms type: MS2
Ion mode: POSITIVE
Collision energy: 25 eV
Ionization: ESI
Precursor type: [M+H]+
m/z	relative intensity
55.021	29
65.040	42
67.056	109
77.041	565
93.037	16
95.054	999
105.050	33
123.047	442
125.026	51
140.052	406
155.075	29
182.060	29
