Mass spectrum: Phenylalanine; LC-ESI-QTOF; MS2; CE:40 eV; [M+H]+
Name: Phenylalanine
Name: 2-amino-3-phenylpropanoic acid
Class: Natural Product; amiono acid
Formula: C9H11NO2
Exact mass: 165.07898
SMILES: C1=CC=C(C=C1)C[C@@H](C(=O)O)N
InChI: InChI=1S/C9H11NO2/c10-8(9(11)12)6-7-4-2-1-3-5-7/h1-5,8H,6,10H2,(H,11,12)/t8-/m0/s1
Instrument: API QSTAR Pulsar i
Instrument type: LC-ESI-QTOF
Ms type: MS2
Ion mode: POSITIVE
Collision energy: 40 eV
Ionization: ESI
Precursor type: [M+H]+
m/z	relative intensity
64.929	5
65.039	2
77.038	182
79.054	89
80.051	4
91.055	98
93.070	66
95.051	25
102.047	30
103.056	999
104.058	11
105.049	17
107.051	6
118.067	21
119.073	18
120.083	340
121.085	4
