Mass spectrum: Dopamine; LC-ESI-QTOF; MS2; CE:20 eV; [M+H]+
Name: Dopamine
Name: 4-(2-aminoethyl)benzene-1,2-diol
Class: Natural Product; biogenic amine
Formula: C8H11NO2
Exact mass: 153.07898
SMILES: C1=CC(=C(C=C1CCN)O)O
InChI: InChI=1S/C8H11NO2/c9-4-3-6-1-2-7(10)8(11)5-6/h1-2,5,10-11H,3-4,9H2
Instrument: API QSTAR Pulsar i
Instrument type: LC-ESI-QTOF
Ms type: MS2
Ion mode: POSITIVE
Collision energy: 20 eV
Ionization: ESI
Precursor type: [M+H]+
m/z	relative intensity
91.054	148
109.063	12
119.048	168
137.059	999
