Mass spectrum: Tryptophan; LC-ESI-QTOF; MS2; CE:20 eV; [M+H]+
Name: Tryptophan
Name: (2S)-2-amino-3-(1H-indol-3-yl)propanoic acid
Class: Natural Product
Formula: C11H12N2O2
Exact mass: 204.08988
SMILES: C1=CC=C2C(=C1)C(=CN2)C[C@@H](C(=O)O)N
InChI: InChI=1S/C11H12N2O2/c12-9(11(14)15)5-7-6-13-10-4-2-1-3-8(7)10/h1-4,6,9,13H,5,12H2,(H,14,15)/t9-/m0/s1
Instrument: micrOTOF-Q
Instrument type: LC-ESI-QTOF
Ms type: MS2
Ion mode: POSITIVE
Collision energy: 20 eV
Ionization: ESI
Precursor type: [M+H]+
m/z	relative intensity
115.053	101
116.056	14
117.058	127
118.064	609
119.067	56
126.046	0
127.053	25
128.052	15
129.055	2
130.064	133
131.068	19
132.079	250
133.082	22
140.048	8
141.055	3
142.064	211
143.071	411
144.079	421
145.075	45
145.967	0
146.059	999
147.062	93
148.065	1
158.082	6
159.090	137
160.078	32
161.074	1
170.058	226
171.061	22
188.069	66
189.071	8
