Mass spectrum: Catechin; LC-ESI-QTOF; MS2; CE:55 eV; [M+H]+
Name: Catechin
Name: (2R,3S)-2-(3,4-dihydroxyphenyl)chroman-3,5,7-triol
Class: Natural Product; Flavanol
Formula: C15H14O6
Exact mass: 290.07904
SMILES: C1[C@@H]([C@H](OC2=CC(=CC(=C21)O)O)C3=CC(=C(C=C3)O)O)O
InChI: InChI=1S/C15H14O6/c16-8-4-11(18)9-6-13(20)15(21-14(9)5-8)7-1-2-10(17)12(19)3-7/h1-5,13,15-20H,6H2/t13-,15+/m0/s1
Instrument: API QSTAR Pulsar i
Instrument type: LC-ESI-QTOF
Ms type: MS2
Ion mode: POSITIVE
Collision energy: 55 eV
Ionization: ESI
Precursor type: [M+H]+
m/z	relative intensity
53.040	21
55.019	121
65.039	80
67.055	45
68.997	94
71.013	11
77.039	87
79.055	8
81.034	6
83.051	33
91.055	145
93.035	56
95.051	43
97.032	13
103.055	16
105.036	80
107.049	13
111.045	135
115.054	181
119.049	217
121.031	20
123.043	999
124.046	20
127.038	9
131.049	24
133.063	25
137.026	33
139.040	309
143.049	52
147.044	140
161.063	35
163.042	14
