Mass spectrum: Boldine; LC-ESI-QQ; MS2; CE:30 eV; [M+H]+
Name: Boldine
Name: 4H-Dibenzo[de,g]quinoline-2,9-diol, 5,6,6a,7-tetrahydro-1,10-dimethoxy-6-methyl-, (6aS)-
Class: Natural Product; Aporphine Alkaloids
Formula: C19H21NO4
Exact mass: 327.14706
SMILES: CN1CCC2=CC(=C(C3=C2[C@@H]1CC4=CC(=C(C=C43)OC)O)OC)O
InChI: InChI=1S/C19H21NO4/c1-20-5-4-10-7-15(22)19(24-3)18-12-9-16(23-2)14(21)8-11(12)6-13(20)17(10)18/h7-9,13,21-22H,4-6H2,1-3H3/t13-/m0/s1
Instrument: TSQ 7000
Instrument type: LC-ESI-QQ
Ms type: MS2
Ion mode: POSITIVE
Collision energy: 30 eV
Ionization: ESI
Precursor type: [M+H]+
m/z	relative intensity
44.000	87
45.000	18
58.000	0
165.000	1
166.000	0
177.000	17
178.000	0
191.000	1
194.000	4
195.000	0
205.000	127
206.000	3
207.000	0
209.000	5
210.000	0
211.000	0
219.000	2
222.000	26
223.000	3
225.000	13
226.000	2
233.000	122
234.000	13
235.000	1
236.000	0
237.000	618
238.000	2
239.000	5
240.000	0
247.000	0
250.000	22
251.000	9
252.000	0
253.000	20
254.000	17
255.000	2
264.000	2
265.000	999
266.000	77
267.000	28
268.000	2
269.000	2
270.000	1
282.000	129
283.000	2
297.000	205
298.000	5
328.000	6
