Mass spectrum: Sinapine; LC-ESI-QTOF; MS2; CE:25 eV; [M]+
Name: Sinapine
Name: 2-[(E)-3-(4-hydroxy-3,5-dimethoxyphenyl)prop-2-enoyl]oxyethyl-trimethylazanium
Class: Natural Product
Formula: [C16H24NO5]+
Exact mass: 310.16545
SMILES: C[N+](C)(C)CCOC(=O)C=CC1=CC(=C(C(=C1)OC)O)OC
InChI: InChI=1S/C16H23NO5/c1-17(2,3)8-9-22-15(18)7-6-12-10-13(20-4)16(19)14(11-12)21-5/h6-7,10-11H,8-9H2,1-5H3/p+1
Instrument: micrOTOF-Q
Instrument type: LC-ESI-QTOF
Ms type: MS2
Ion mode: POSITIVE
Collision energy: 25 eV
Ionization: ESI
Precursor m/z: 310.16545
Precursor type: [M]+
m/z	relative intensity
115.052	3
117.070	0
119.048	14
120.052	0
129.031	4
131.046	0
132.020	0
132.055	1
134.034	0
135.043	1
136.049	2
143.046	0
145.062	3
146.037	0
146.070	0
147.042	93
148.046	7
149.023	0
149.056	0
151.038	6
160.050	0
161.059	1
162.030	2
163.037	5
164.045	17
165.049	0
174.029	3
175.037	279
176.041	25
177.051	1
179.069	11
180.056	0
181.084	1
190.059	6
191.034	6
192.041	6
193.047	0
206.054	1
207.062	245
208.062	19
209.049	0
218.056	2
219.064	1
221.044	1
235.057	21
236.064	54
237.065	4
250.897	0
251.088	999
251.528	0
252.091	103
253.094	1
