Mass spectrum: Citrulline; LC-ESI-QTOF; MS2; CE:30 eV; [M+H]+
Name: Citrulline
Name: 2-amino-5-(carbamoylamino)pentanoic acid
Class: Natural Product; amino acid
Formula: C6H13N3O3
Exact mass: 175.09569
SMILES: C(CC(C(=O)O)N)CNC(=O)N
InChI: InChI=1S/C6H13N3O3/c7-4(5(10)11)2-1-3-9-6(8)12/h4H,1-3,7H2,(H,10,11)(H3,8,9,12)
Instrument: API QSTAR Pulsar i
Instrument type: LC-ESI-QTOF
Ms type: MS2
Ion mode: POSITIVE
Collision energy: 30 eV
Ionization: ESI
Precursor type: [M+H]+
m/z	relative intensity
68.051	6
70.066	999
71.056	8
86.061	22
96.046	8
113.071	222
114.055	33
115.088	6
116.073	16
159.078	8
