Mass spectrum: Phenylglycine; LC-ESI-QTOF; MS2; CE:15 eV; [M+H]+
Name: Phenylglycine
Name: 2-amino-2-phenylacetic acid
Class: Natural Product
Formula: C8H9NO2
Exact mass: 151.06333
SMILES: C1=CC=C(C=C1)C(C(=O)O)N
InChI: InChI=1S/C8H9NO2/c9-7(8(10)11)6-4-2-1-3-5-6/h1-5,7H,9H2,(H,10,11)
Instrument: micrOTOF-Q
Instrument type: LC-ESI-QTOF
Ms type: MS2
Ion mode: POSITIVE
Collision energy: 15 eV
Ionization: ESI
Precursor type: [M+H]+
m/z	relative intensity
107.046	13
108.058	0
135.043	999
136.046	81
152.066	0
