Mass spectrum: 1H-indole-3-carboxylic acid; LC-ESI-QTOF; MS2; CE:15 eV; [M+H]+
Name: 1H-indole-3-carboxylic acid
Class: Natural Product; Indole
Formula: C9H7NO2
Exact mass: 161.04768
SMILES: C1=CC=C2C(=C1)C(=CN2)C(=O)O
InChI: InChI=1S/C9H7NO2/c11-9(12)7-5-10-8-4-2-1-3-6(7)8/h1-5,10H,(H,11,12)
Instrument: API QSTAR Pulsar i
Instrument type: LC-ESI-QTOF
Ms type: MS2
Ion mode: POSITIVE
Collision energy: 15 eV
Ionization: ESI
Precursor type: [M+H]+
m/z	relative intensity
116.053	25
118.068	999
144.045	457
162.060	945
