Mass spectrum: Spermine; LC-ESI-QTOF; MS2; CE:45 eV; [M+H]+
Name: Spermine
Name: N,N'-bis(3-aminopropyl)butane-1,4-diamine
Class: Natural Product; biogenic amine
Formula: C10H26N4
Exact mass: 202.21575
SMILES: C(CCNCCCN)CNCCCN
InChI: InChI=1S/C10H26N4/c11-5-3-9-13-7-1-2-8-14-10-4-6-12/h13-14H,1-12H2
Instrument: API QSTAR Pulsar i
Instrument type: LC-ESI-QTOF
Ms type: MS2
Ion mode: POSITIVE
Collision energy: 45 eV
Ionization: ESI
Precursor type: [M+H]+
m/z	relative intensity
41.040	3
42.035	12
55.055	18
56.050	9
58.066	111
67.056	1
70.066	35
72.081	55
84.081	999
98.097	4
112.114	205
