Mass spectrum: 5-Hydroxytryptophan; LC-ESI-QTOF; MS2; CE:55 eV; [M+H]+
Name: 5-Hydroxytryptophan
Name: 2-amino-3-(5-hydroxy-1H-indol-3-yl)propanoic acid
Class: Natural Product; Amino acid
Formula: C11H12N2O3
Exact mass: 220.08479
SMILES: C1=CC2=C(C=C1O)C(=CN2)CC(C(=O)O)N
InChI: InChI=1S/C11H12N2O3/c12-9(11(15)16)3-6-5-13-10-2-1-7(14)4-8(6)10/h1-2,4-5,9,13-14H,3,12H2,(H,15,16)
Instrument: API QSTAR Pulsar i
Instrument type: LC-ESI-QTOF
Ms type: MS2
Ion mode: POSITIVE
Collision energy: 55 eV
Ionization: ESI
Precursor type: [M+H]+
m/z	relative intensity
38.013	1
39.023	36
41.042	37
42.028	11
43.018	77
43.054	29
44.042	3
45.033	48
51.019	25
52.019	1
53.043	18
54.040	1
55.017	50
55.047	32
55.063	22
55.934	25
56.043	3
57.028	12
57.067	15
58.060	1
59.036	3
60.048	1
61.022	3
63.016	8
64.014	1
65.031	160
66.047	19
67.050	87
68.014	6
69.069	14
71.062	3
71.944	9
72.939	34
74.020	18
76.923	1
77.038	961
78.041	158
79.051	570
80.051	72
81.032	15
82.055	5
83.080	12
87.041	7
88.027	3
89.038	281
90.047	85
91.055	366
92.052	44
93.073	47
94.039	17
95.054	172
96.046	6
102.046	53
103.056	845
104.055	187
105.051	353
106.066	492
107.049	822
108.052	22
109.084	13
110.059	6
111.079	3
113.035	37
114.046	40
114.944	3
115.051	425
116.050	445
117.056	531
118.065	191
119.045	20
119.073	21
120.079	25
121.040	15
121.076	9
127.049	19
128.049	71
129.063	47
129.958	3
130.064	897
130.806	11
131.055	999
132.054	172
133.054	721
133.784	3
134.062	628
134.167	8
135.069	13
140.053	112
141.049	73
142.057	68
143.066	38
144.049	155
144.163	3
145.050	61
145.928	5
146.057	711
147.053	26
148.089	15
150.088	3
151.062	3
152.060	8
153.070	3
155.062	18
156.030	13
157.045	37
158.056	353
159.066	353
160.063	14
161.058	3
162.073	12
175.041	1
176.111	1
178.090	8
190.069	6
191.073	1
