Mass spectrum: (+/-) Salsolinol; LC-ESI-QTOF; MS2; CE:10 eV; [M+H]+
Name: (+/-) Salsolinol
Name: 1-methyl-1,2,3,4-tetrahydroisoquinoline-6,7-diol
Class: Natural Product
Formula: C10H13NO2
Exact mass: 179.09463
SMILES: CC1C2=CC(=C(C=C2CCN1)O)O
InChI: InChI=1S/C10H13NO2/c1-6-8-5-10(13)9(12)4-7(8)2-3-11-6/h4-6,11-13H,2-3H2,1H3
Instrument: micrOTOF-Q
Instrument type: LC-ESI-QTOF
Ms type: MS2
Ion mode: POSITIVE
Collision energy: 10 eV
Ionization: ESI
Precursor type: [M+H]+
m/z	relative intensity
115.053	28
116.057	2
117.069	31
118.071	2
123.042	0
127.053	3
133.061	1
134.093	0
135.044	4
135.078	4
137.058	56
138.062	3
145.063	396
146.067	33
147.069	0
148.051	0
151.073	32
152.077	1
161.057	0
163.074	865
164.077	69
165.078	1
179.970	0
180.100	999
180.444	0
181.103	82
182.106	1
