Mass spectrum: Indole-3-carboxylic acid; LC-ESI-QTOF; MS2; CE:15 eV; [M+H]+
Name: Indole-3-carboxylic acid
Name: 1H-indole-3-carboxylic acid
Class: Natural Product
Formula: C9H7NO2
Exact mass: 161.04768
SMILES: C1=CC=C2C(=C1)C(=CN2)C(=O)O
InChI: InChI=1S/C9H7NO2/c11-9(12)7-5-10-8-4-2-1-3-6(7)8/h1-5,10H,(H,11,12)
Instrument: micrOTOF-Q
Instrument type: LC-ESI-QTOF
Ms type: MS2
Ion mode: POSITIVE
Collision energy: 15 eV
Ionization: ESI
Precursor type: [M+H]+
m/z	relative intensity
116.047	390
117.055	209
118.063	618
119.067	52
120.070	0
132.038	0
134.058	9
144.042	999
144.120	1
144.370	0
145.046	94
146.047	3
162.052	337
163.055	30
164.063	0
