Mass spectrum: Aspartic acid; LC-ESI-QTOF; MS2; CE:30 eV; [M+H]+
Name: Aspartic acid
Name: 2-aminobutanedioic acid
Class: Natural Product; amino acid
Formula: C4H7NO4
Exact mass: 133.03751
SMILES: C(C(C(=O)O)N)C(=O)O
InChI: InChI=1S/C4H7NO4/c5-2(4(8)9)1-3(6)7/h2H,1,5H2,(H,6,7)(H,8,9)
Instrument: API QSTAR Pulsar i
Instrument type: LC-ESI-QTOF
Ms type: MS2
Ion mode: POSITIVE
Collision energy: 30 eV
Ionization: ESI
Precursor type: [M+H]+
m/z	relative intensity
37.028	2
43.017	162
44.049	4
46.028	116
61.028	1
64.928	1
70.027	267
74.023	999
88.038	146
106.072	5
