Mass spectrum: Serine; LC-ESI-QTOF; MS2; CE:20 eV; [M+H]+
Name: Serine
Name: 2-amino-3-hydroxypropanoic acid
Class: Natural Product; amino acid
Formula: C3H7NO3
Exact mass: 105.04259
SMILES: C(C(C(=O)O)N)O
InChI: InChI=1S/C3H7NO3/c4-2(1-5)3(6)7/h2,5H,1,4H2,(H,6,7)
Instrument: API QSTAR Pulsar i
Instrument type: LC-ESI-QTOF
Ms type: MS2
Ion mode: POSITIVE
Collision energy: 20 eV
Ionization: ESI
Precursor type: [M+H]+
m/z	relative intensity
42.035	100
43.019	6
60.045	999
70.030	79
88.041	78
106.053	20
