Mass spectrum: Chlorogenic Acid; LC-ESI-QTOF; MS2; CE:15 eV; [M+H]+
Name: Chlorogenic Acid
Name: (1S,3R,4R,5R)-3-[(E)-3-(3,4-dihydroxyphenyl)prop-2-enoyl]oxy-1,4,5-trihydroxycyclohexane-1-carboxylic acid
Class: Natural Product; Cinnamates
Formula: C16H18O9
Exact mass: 354.09508
SMILES: C1[C@H]([C@H]([C@@H](C[C@@]1(C(=O)O)O)OC(=O)/C=C/C2=CC(=C(C=C2)O)O)O)O
InChI: InChI=1S/C16H18O9/c17-9-3-1-8(5-10(9)18)2-4-13(20)25-12-7-16(24,15(22)23)6-11(19)14(12)21/h1-5,11-12,14,17-19,21,24H,6-7H2,(H,22,23)/b4-2+/t11-,12-,14-,16+/m1/s1
Instrument: micrOTOF-Q
Instrument type: LC-ESI-QTOF
Ms type: MS2
Ion mode: POSITIVE
Collision energy: 15 eV
Ionization: ESI
Precursor type: [M+H]+
m/z	relative intensity
117.032	1
134.032	0
135.043	33
136.048	2
145.027	54
146.030	2
163.038	999
163.235	0
163.281	0
163.334	0
164.041	80
165.040	0
180.041	0
181.049	7
337.089	16
338.093	0
