Mass spectrum: Cinchonine; LC-ESI-QTOF; MS2; CE:10 eV; [M+H]+
Name: Cinchonine
Name: (S)-(5-ethenyl-1-azabicyclo[2.2.2]octan-7-yl)-quinolin-4-ylmethanol
Class: Natural Product
Formula: C19H22N2O
Exact mass: 294.17321
SMILES: C=CC1CN2CCC1CC2C(C3=CC=NC4=CC=CC=C34)O
InChI: InChI=1S/C19H22N2O/c1-2-13-12-21-10-8-14(13)11-18(21)19(22)16-7-9-20-17-6-4-3-5-15(16)17/h2-7,9,13-14,18-19,22H,1,8,10-12H2/t13?,14?,18?,19-/m0/s1
Instrument: micrOTOF-Q
Instrument type: LC-ESI-QTOF
Ms type: MS2
Ion mode: POSITIVE
Collision energy: 10 eV
Ionization: ESI
Precursor type: [M+H]+
m/z	relative intensity
234.124	0
277.166	16
278.170	1
294.969	0
295.176	999
296.180	150
297.183	1
