Mass spectrum: 4-Coumaroylcholine; LC-ESI-QTOF; MS2; CE:25 eV; M+
Name: 4-Coumaroylcholine
Name: 2-[(E)-3-(4-hydroxyphenyl)prop-2-enoyl]oxyethyl-trimethylazanium
Class: Natural Product; phenolic choline ester
Formula: [C14H20NO3]+
Exact mass: 250.14432
SMILES: C[N+](C)(C)CCOC(=O)C=CC1=CC=C(C=C1)O
InChI: InChI=1S/C14H19NO3/c1-15(2,3)10-11-18-14(17)9-6-12-4-7-13(16)8-5-12/h4-9H,10-11H2,1-3H3/p+1
Instrument: API QSTAR Pulsar i
Instrument type: LC-ESI-QTOF
Ms type: MS2
Ion mode: POSITIVE
Collision energy: 25 eV
Ionization: ESI
Precursor type: [M]+
m/z	relative intensity
119.053	23
147.045	211
191.071	999
