Mass spectrum: Chlorogenic Acid; LC-ESI-QTOF; MS2; CE:20 eV; [M+H]+
Name: Chlorogenic Acid
Name: (1S,3R,4R,5R)-3-[(E)-3-(3,4-dihydroxyphenyl)prop-2-enoyl]oxy-1,4,5-trihydroxycyclohexane-1-carboxylic acid
Class: Natural Product; Cinnamates
Formula: C16H18O9
Exact mass: 354.09508
SMILES: C1[C@H]([C@H]([C@@H](C[C@@]1(C(=O)O)O)OC(=O)/C=C/C2=CC(=C(C=C2)O)O)O)O
InChI: InChI=1S/C16H18O9/c17-9-3-1-8(5-10(9)18)2-4-13(20)25-12-7-16(24,15(22)23)6-11(19)14(12)21/h1-5,11-12,14,17-19,21,24H,6-7H2,(H,22,23)/b4-2+/t11-,12-,14-,16+/m1/s1
Instrument: micrOTOF-Q
Instrument type: LC-ESI-QTOF
Ms type: MS2
Ion mode: POSITIVE
Collision energy: 20 eV
Ionization: ESI
Precursor type: [M+H]+
m/z	relative intensity
117.033	6
134.032	0
135.044	91
136.046	3
145.028	120
146.031	9
162.902	0
163.038	999
163.247	0
163.376	0
164.041	81
165.042	0
181.047	4
337.089	4
