Mass spectrum: Phenylalanine; LC-ESI-QTOF; MS2; CE:15 eV; [M+H]+
Name: Phenylalanine
Name: (2S)-2-amino-3-phenylpropanoic acid
Class: Natural Product
Formula: C9H11NO2
Exact mass: 165.07898
SMILES: C1=CC=C(C=C1)CC(C(=O)O)N
InChI: InChI=1S/C9H11NO2/c10-8(9(11)12)6-7-4-2-1-3-5-7/h1-5,8H,6,10H2,(H,11,12)/t8-/m0/s1
Instrument: micrOTOF-Q
Instrument type: LC-ESI-QTOF
Ms type: MS2
Ion mode: POSITIVE
Collision energy: 15 eV
Ionization: ESI
Precursor type: [M+H]+
m/z	relative intensity
103.052	6
117.055	1
118.063	16
119.071	7
119.995	0
120.079	999
121.082	83
122.085	0
131.048	11
149.057	1
166.084	2
