Mass spectrum: Naringenin; LC-ESI-QTOF; MS2; CE:40 eV; [M+H]+
Name: Naringenin
Name: 5,7-dihydroxy-2-(4-hydroxyphenyl)chroman-4-one
Class: Natural Product; Flavanone
Formula: C15H12O5
Exact mass: 272.06847
SMILES: C1C(OC2=CC(=CC(=C2C1=O)O)O)C3=CC=C(C=C3)O
InChI: InChI=1S/C15H12O5/c16-9-3-1-8(2-4-9)13-7-12(19)15-11(18)5-10(17)6-14(15)20-13/h1-6,13,16-18H,7H2
Instrument: API QSTAR Pulsar i
Instrument type: LC-ESI-QTOF
Ms type: MS2
Ion mode: POSITIVE
Collision energy: 40 eV
Ionization: ESI
Precursor type: [M+H]+
m/z	relative intensity
67.019	17
68.998	11
69.036	8
91.054	72
95.050	19
97.029	10
107.051	21
119.050	337
123.044	38
147.044	226
153.018	999
154.023	34
