Mass spectrum: Luteolin; LC-ESI-QTOF; MS2; CE:15 eV; [M+H]+
Name: Luteolin
Name: 5,7,3',4'-tetrahydroxy-flavone
Class: Natural Product; Flavone
Formula: C15H10O6
Exact mass: 286.04774
SMILES: C1=CC(=C(C=C1C2=CC(=O)C3=C(C=C(C=C3O2)O)O)O)O
InChI: InChI=1S/C15H10O6/c16-8-4-11(19)15-12(20)6-13(21-14(15)5-8)7-1-2-9(17)10(18)3-7/h1-6,16-19H
Instrument: API QSTAR Pulsar i
Instrument type: LC-ESI-QTOF
Ms type: MS2
Ion mode: POSITIVE
Collision energy: 15 eV
Ionization: ESI
Precursor type: [M+H]+
m/z	relative intensity
287.056	999
288.062	32
