Mass spectrum: Naringin; LC-ESI-QTOF; MS2; CE:40 eV; [M+H-(C12H20O9)]+
Name: Naringin
Name: (2S)-7-[(2S,3R,4S,5S,6R)-4,5-dihydroxy-6-(hydroxymethyl)-3-[(2S,3R,4R,5R,6S)-3,4,5-trihydroxy-6-methyloxan-2-yl]oxyoxan-2-yl]oxy-5-hydroxy-2-(4-hydroxyphenyl)chroman-4-one
Class: Natural Product; Flavanone glycoside
Formula: C27H32O14
Exact mass: 580.17921
SMILES: CC1C(C(C(C(O1)OC2C(C(C(OC2OC3=CC(=C4C(=O)CC(OC4=C3)C5=CC=C(C=C5)O)O)CO)O)O)O)O)O
InChI: InChI=1S/C27H32O14/c1-10-20(32)22(34)24(36)26(37-10)41-25-23(35)21(33)18(9-28)40-27(25)38-13-6-14(30)19-15(31)8-16(39-17(19)7-13)11-2-4-12(29)5-3-11/h2-7,10,16,18,20-30,32-36H,8-9H2,1H3/t10-,16-,18+,20-,21+,22+,23-,24+,25+,26-,27+/m0/s1
Instrument: API QSTAR Pulsar i
Instrument type: LC-ESI-QTOF
Ms type: MS2
Ion mode: POSITIVE
Collision energy: 40 eV
Ionization: ESI
Precursor type: [M+H-C12H20O9]+
m/z	relative intensity
67.017	101
68.996	39
69.032	9
81.034	7
91.054	38
95.049	11
97.029	20
107.048	17
111.007	19
119.048	194
121.060	9
123.042	22
125.022	27
147.044	136
153.018	999
154.022	16
171.034	18
