Mass spectrum: Methoxyindoleacetic acid; LC-ESI-QTOF; MS2; CE:20 eV; [M+H]+
Name: Methoxyindoleacetic acid
Name: 2-(5-methoxy-1H-indol-3-yl)acetic acid
Class: Natural Product; Indole
Formula: C11H11NO3
Exact mass: 205.07389
SMILES: COC1=CC2=C(C=C1)NC=C2CC(=O)O
InChI: InChI=1S/C11H11NO3/c1-15-8-2-3-10-9(5-8)7(6-12-10)4-11(13)14/h2-3,5-6,12H,4H2,1H3,(H,13,14)
Instrument: API QSTAR Pulsar i
Instrument type: LC-ESI-QTOF
Ms type: MS2
Ion mode: POSITIVE
Collision energy: 20 eV
Ionization: ESI
Precursor type: [M+H]+
m/z	relative intensity
160.075	999
161.078	22
206.079	74
