Mass spectrum: Caffeoylcholine; LC-ESI-QTOF; MS2; CE:15 eV; M+
Name: Caffeoylcholine
Name: 2-[(E)-3-(3,4-dihydroxyphenyl)prop-2-enoyl]oxyethyl-trimethylazanium
Class: Natural Product; phenolic choline ester
Formula: [C14H20NO4]+
Exact mass: 266.13923
SMILES: C[N+](C)(C)CCOC(=O)C=CC1=CC(=C(C=C1)O)O
InChI: InChI=1S/C14H19NO4/c1-15(2,3)8-9-19-14(18)7-5-11-4-6-12(16)13(17)10-11/h4-7,10H,8-9H2,1-3H3,(H-,16,17,18)/p+1
Instrument: API QSTAR Pulsar i
Instrument type: LC-ESI-QTOF
Ms type: MS2
Ion mode: POSITIVE
Collision energy: 15 eV
Ionization: ESI
Precursor type: [M]+
m/z	relative intensity
207.066	618
266.143	999
