Mass spectrum: (8Z)-2,15-dioxapentacyclo[22.2.2.13,7.110,14.016,21]triaconta-3(30),4,6,8,10(29),11,13,16(21),17,19,25,27-dodecaene-4,5,17-triol 1; LC-ESI-QTOF; MS2; CE: 30.58772; [M+H]+
Name: (8Z)-2,15-dioxapentacyclo[22.2.2.13,7.110,14.016,21]triaconta-3(30),4,6,8,10(29),11,13,16(21),17,19,25,27-dodecaene-4,5,17-triol 1
Name: 7,8,19,20-Tetrahydro-15,18-etheno-2,6:9,13-dimetheno-1,14-benzodioxacyclodocosin-11,12,24-triol
Name: (8Z)-2,15-dioxapentacyclo[22.2.2.13,7.110,14.016,21]triaconta-3(30),4,6,8,10(29),11,13,16(21),17,19,25,27-dodecaene-4,5,17-triol
Class: Lignane
Formula: C28H24O5
Exact mass: 440.162
SMILES: C1CC2=C(C(=CC=C2)O)OC3=CC=CC(=C3)/C=C\C4=CC(=C(C(=C4)O)O)OC5C=CC1C=C5
InChI: InChI=1S/C28H24O5/c29-24-6-2-4-21-12-9-18-10-13-22(14-11-18)32-26-17-20(16-25(30)27(26)31)8-7-19-3-1-5-23(15-19)33-28(21)24/h1-8,10-11,13-18,22,29-31H,9,12H2/b8-7-
Instrument: Bruker MicrOTOF-Q
Instrument type: LC-ESI-QTOF
Ms type: MS2
Ion mode: POSITIVE
Ionization: ESI
Collision energy: 30.58772
Fragmentation mode: CID
Column name: ACQUITY UPLC HSS T3 Column
Retention time: 10.219 min
Base peak: 441.1697
Precursor m/z: 441.1697
Precursor type: [M+H]+
m/z	relative intensity	assigned
115.06	4	C2H11O5+
117.07	13	C9H9+
119.05	11	C8H7O+
120.05	15	C8H8O+
121.06	56	C8H9O+
122.07	7	C8H10O+
123.04	35	C7H7O2+
125.02	8	C6H5O3+
129.07	5	C10H9+
131.05	11	C9H7O+
133.06	36	C9H9O+
134.07	5	C9H10O+
135.04	41	C8H7O2+
136.05	24	C8H8O2+
137.06	70	C8H9O2+
138.06	5	C8H10O2+
139.04	3	C7H7O3+
141.07	9	C11H9+
142.08	3	C11H10+
143.08	5	C11H11+
145.07	28	C10H9O+
146.07	7	C10H10O+
147.05	5	C9H7O2+
149.06	15	C9H9O2+
151.04	6	C8H7O3+
152.06	15	C12H8+
153.07	20	C12H9+
154.07	8	C8H10O3+
155.08	12	C12H11+
157.07	15	C11H9O+
158.07	3	C11H10O+
159.08	7	C11H11O+
160.08	2	C7H12O4+
161.06	7	C10H9O2+
164.07	4	C6H12O5+
165.07	68	C13H9+
166.08	27	C13H10+
167.09	40	C6H15O5+
168.06	17	C12H8O+
169.06	36	C12H9O+
170.08	8	C12H10O+
171.08	29	C12H11O+
172.09	5	C12H12O+
173.07	7	C11H9O2+
177.07	19	C14H9+
178.08	21	C14H10+
179.09	43	C7H15O5+
180.09	8	C14H12+
181.07	156	C13H9O+
182.07	57	C13H10O+
183.08	277	C13H11O+
184.08	45	C9H12O4+
185.1	49	C13H13O+
186.08	6	C9H14O4+
187.08	15	C12H11O2+
188.08	2	C12H12O2+
189.07	3	C15H9+
191.08	18	C15H11+
192.1	7	C8H16O5+
193.07	51	C14H9O+
194.08	57	C14H10O+
195.08	151	C14H11O+
196.06	94	C13H8O2+
197.06	254	C13H9O2+
198.07	99	C13H10O2+
199.08	439	C13H11O2+
200.08	67	C13H12O2+
201.09	26	C13H13O2+
202.08	3	C16H10+
203.08	8	C16H11+
204.09	2	C16H12+
205.07	4	C15H9O+
206.07	10	C15H10O+
207.08	59	C15H11O+
208.09	31	C15H12O+
209.07	187	C14H9O2+
210.07	183	C14H10O2+
211.08	999	C14H11O2+
211.98	3	C11O5+
212.08	518	C14H12O2+
212.97	4	C11HO5+
213.09	729	C14H13O2+
214.09	97	C10H14O5+
215.07	426	C13H11O3+
216.08	70	C13H12O3+
217.08	5	C13H13O3+
219.08	12	C16H11O+
220.09	11	C16H12O+
221.1	76	C16H13O+
222.1	20	C16H14O+
223.08	134	C15H11O2+
224.09	488	C15H12O2+
225.09	846	C15H13O2+
226.09	290	C11H14O5+
227.07	684	C14H11O3+
228.08	491	C14H12O3+
229.09	865	C14H13O3+
230.09	130	C14H14O3+
231.09	12	C17H11O+
235.08	15	C16H11O2+
236.08	6	C16H12O2+
237.09	83	C16H13O2+
238.1	54	C16H14O2+
239.11	941	C16H15O2+
239.97	3	C16O3+
240.09	247	C19H12+
241.09	671	C15H13O3+
242.09	133	C15H14O3+
243.08	32	C18H11O+
244.08	10	C14H12O4+
245.09	5	C18H13O+
249.09	4	C17H13O2+
251.07	4	C16H11O3+
253.09	18	C16H13O3+
254.09	27	C16H14O3+
255.1	400	C16H15O3+
256.11	77	C16H16O3+
257.1	14	C19H13O+
258.1	3	C19H14O+
259.11	7	C19H15O+
260.08	5	C18H12O2+
261.1	5	C18H13O2+
263.1	4	C18H15O2+
264.12	2	C18H16O2+
265.1	7	C21H13+
267.12	2	C14H19O5+
268.09	3	C20H12O+
269.09	6	C20H13O+
269.16	2	C18H21O2+
270.1	3	C20H14O+
271.11	6	C20H15O+
272.09	5	C19H12O2+
273.11	8	C16H17O4+
274.11	4	C16H18O4+
275.11	11	C19H15O2+
276.11	5	C19H16O2+
277.11	4	C15H17O5+
278.12	4	C15H18O5+
283.12	35	C21H15O+
284.12	11	C21H16O+
285.11	7	C17H17O4+
286.1	12	C20H14O2+
287.11	17	C20H15O2+
288.12	12	C20H16O2+
289.12	10	C20H17O2+
290.12	4	C16H18O5+
291.12	5	C16H19O5+
292.11	3	C19H16O3+
293.11	5	C19H17O3+
294.11	3	C22H14O+
296.09	5	C21H12O2+
297.09	9	C21H13O2+
298.1	6	C21H14O2+
299.11	37	C21H15O2+
300.12	12	C21H16O2+
301.12	80	C21H17O2+
302.13	30	C21H18O2+
303.13	22	C17H19O5+
304.13	10	C17H20O5+
305.12	16	C20H17O3+
306.12	6	C20H18O3+
307.12	3	C23H15O+
311.11	34	C22H15O2+
312.12	11	C22H16O2+
313.12	14	C22H17O2+
314.11	29	C25H14+
315.11	50	C25H15+
316.14	37	C22H20O2+
317.12	103	C21H17O3+
318.12	22	C21H18O3+
319.13	253	C21H19O3+
320.14	55	C21H20O3+
321.14	11	C21H21O3+
322.12	15	C20H18O4+
328.11	4	C22H16O3+
329.12	80	C22H17O3+
330.12	47	C22H18O3+
331.13	36	C22H19O3+
332.13	35	C25H16O+
333.12	274	C25H17O+
334.12	78	C21H18O4+
335.13	84	C21H19O4+
336.13	23	C21H20O4+
337.13	6	C24H17O2+
345.11	4	C22H17O4+
346.11	5	C22H18O4+
347.13	110	C22H19O4+
348.14	275	C22H20O4+
349.14	65	C22H21O4+
350.14	12	C25H18O2+
371.16	3	C25H23O3+
395.16	7	C27H23O3+
396.17	3	C27H24O3+
405.14	5	C28H21O3+
412.14	4	C26H20O5+
423.16	40	C28H23O4+
424.17	10	C28H24O4+
426.14	3	C27H22O5+
439.16	47	C28H23O5+
440.16	9	C28H24O5+
441.17	68	C28H25O5+
