Mass spectrum: 2,15-dioxapentacyclo[22.2.2.13,7.110,14.016,21]triaconta-1(26),3(30),4,6,10(29),11,13,16(21),17,19,24,27-dodecaene-4,5,8,17-tetrol 2; LC-ESI-QTOF; MS2; CE: 31.787345; [M+H]+
Name: 2,15-dioxapentacyclo[22.2.2.13,7.110,14.016,21]triaconta-1(26),3(30),4,6,10(29),11,13,16(21),17,19,24,27-dodecaene-4,5,8,17-tetrol 2
Name: NJNMMLUSUMUVMX-UHFFFAOYSA-N
Name: 2,15-dioxapentacyclo[22.2.2.13,7.110,14.016,21]triaconta-1(26),3(30),4,6,10(29),11,13,16(21),17,19,24,27-dodecaene-4,5,8,17-tetrol
Class: Lignane
Formula: C28H24O6
Exact mass: 456.157
SMILES: C1CC2=C(C(=CC=C2)O)OC3=CC=CC(=C3)CC(C4=CC(=C(C(=C4)O)O)OC5=CC=C1C=C5)O
InChI: InChI=1S/C28H24O6/c29-23-6-2-4-19-10-7-17-8-11-21(12-9-17)33-26-16-20(15-25(31)27(26)32)24(30)14-18-3-1-5-22(13-18)34-28(19)23/h1-6,8-9,11-13,15-16,24,29-32H,7,10,14H2
Instrument: Bruker MicrOTOF-Q
Instrument type: LC-ESI-QTOF
Ms type: MS2
Ion mode: POSITIVE
Ionization: ESI
Collision energy: 31.787345
Fragmentation mode: CID
Column name: ACQUITY UPLC HSS T3 Column
Retention time: 9.101 min
Base peak: 457.1646
Precursor m/z: 457.1646
Precursor type: [M+H]+
m/z	relative intensity	assigned
105.07	3	C8H9+
117.07	15	C9H9+
119.05	4	C8H7O+
121.06	21	C8H9O+
122.07	5	C8H10O+
123.04	61	C7H7O2+
124.05	6	C7H8O2+
125.03	3	C6H5O3+
128.06	4	C10H8+
131.05	9	C9H7O+
133.03	11	C8H5O2+
133.06	14	C9H9O+
135.04	43	C8H7O2+
136.05	31	C8H8O2+
137.06	87	C8H9O2+
138.06	8	C8H10O2+
139.04	9	C7H7O3+
141.07	9	C11H9+
143.08	3	C11H11+
144.05	3	C10H8O+
144.09	3	C11H12+
145.07	8	C3H13O6+
147.05	5	C9H7O2+
149.06	27	C9H9O2+
150.06	3	C9H10O2+
151.04	10	C8H7O3+
152.06	7	C12H8+
153.07	23	C12H9+
154.09	3	C5H14O5+
155.08	3	C12H11+
157.07	7	C4H13O6+
159.07	4	C7H11O4+
161.06	8	C10H9O2+
165.07	57	C13H9+
166.08	18	C13H10+
167.08	14	C13H11+
168.05	19	C12H8O+
169.07	41	C5H13O6+
170.07	8	C12H10O+
171.08	12	C12H11O+
172.05	3	C11H8O2+
173.11	3	C9H17O3+
174.09	3	C8H14O4+
177.07	4	C14H9+
178.16	3	C9H22O3+
179.08	9	C14H11+
180.09	3	C14H12+
181.06	92	C13H9O+
182.07	26	C13H10O+
183	3	C7H3O6+
183.08	251	C13H11O+
184.08	46	C9H12O4+
185.09	10	C13H13O+
186.07	3	C12H10O2+
187.08	17	C12H11O2+
188.08	5	C12H12O2+
189.06	6	C11H9O3+
190.07	3	C11H10O3+
191.08	10	C15H11+
193.06	17	C14H9O+
194.07	19	C14H10O+
195.08	85	C14H11O+
196.06	104	C13H8O2+
197.06	138	C13H9O2+
198.07	32	C13H10O2+
199.08	78	C13H11O2+
200.08	23	C13H12O2+
201.09	21	C13H13O2+
202.09	9	C9H14O5+
203.08	7	C16H11+
207.08	17	C15H11O+
208.08	15	C11H12O4+
209.07	129	C14H9O2+
210.07	66	C14H10O2+
211.08	461	C14H11O2+
212.08	169	C14H12O2+
213.06	275	C13H9O3+
214.06	48	C13H10O3+
214.16	3	C12H22O3+
215.07	606	C13H11O3+
216.07	80	C9H12O6+
217.08	11	C13H13O3+
218.07	6	C16H10O+
219.08	22	C16H11O+
220.09	10	C16H12O+
221.08	9	C12H13O4+
222.07	23	C15H10O2+
223.07	101	C15H11O2+
224.08	51	C15H12O2+
225.09	105	C15H13O2+
225.98	3	C12H2O5+
226.06	231	C14H10O3+
227.07	573	C14H11O3+
228	4	C19+
228.08	280	C14H12O3+
229.09	999	C14H13O3+
230.09	161	C14H14O3+
231.09	19	C10H15O6+
232.09	3	C17H12O+
235.07	10	C16H11O2+
235.14	3	C14H19O3+
236.08	9	C16H12O2+
237.09	94	C16H13O2+
238.1	45	C16H14O2+
239.07	116	C15H11O3+
240.08	630	C15H12O3+
241.09	889	C15H13O3+
242.09	198	C15H14O3+
243.09	65	C11H15O6+
244.1	12	C11H16O6+
245.1	6	C11H17O6+
248.07	4	C13H12O5+
251.07	3	C16H11O3+
253.09	26	C16H13O3+
254.1	18	C16H14O3+
254.99	4	C13H3O6+
255.1	902	C16H15O3+
256.11	152	C16H16O3+
257.1	12	C12H17O6+
265.1	3	C21H13+
266.15	3	C15H22O4+
267.12	3	C14H19O5+
270.08	6	C16H14O4+
271.12	13	C13H19O6+
272.08	3	C19H12O2+
273.08	7	C15H13O5+
274.08	4	C22H10+
276.1	3	C15H16O5+
277.09	6	C18H13O3+
281.11	7	C18H17O3+
282.1	9	C21H14O+
283.11	3	C21H15O+
286.1	5	C20H14O2+
287.1	7	C20H15O2+
289.11	4	C16H17O5+
290.12	3	C16H18O5+
291.1	7	C19H15O3+
297.1	4	C21H13O2+
298.1	4	C21H14O2+
299.11	31	C21H15O2+
300.09	10	C24H12+
301.12	19	C21H17O2+
302.1	6	C20H14O3+
303.1	12	C20H15O3+
304.11	6	C20H16O3+
305.01	3	C17H5O6+
305.1	5	C16H17O6+
306.11	9	C16H18O6+
307.11	7	C23H15O+
308.1	5	C19H16O4+
309.1	4	C22H13O2+
310.09	3	C18H14O5+
311.11	7	C22H15O2+
313.11	6	C18H17O5+
314.13	9	C22H18O2+
315.11	15	C25H15+
316.11	6	C21H16O3+
317.12	61	C21H17O3+
318.11	15	C17H18O6+
319.13	18	C21H19O3+
320.11	8	C20H16O4+
321.11	9	C20H17O4+
322.11	3	C20H18O4+
323.13	5	C20H19O4+
327.1	8	C22H15O3+
328.1	6	C18H16O6+
329.13	6	C26H17+
330.09	9	C21H14O4+
331.09	27	C21H15O4+
332.14	41	C22H20O3+
333.12	65	C25H17O+
334.12	12	C21H18O4+
335.13	141	C21H19O4+
336.13	45	C21H20O4+
337.14	7	C21H21O4+
345.11	23	C22H17O4+
346.12	35	C22H18O4+
347.11	17	C25H15O2+
348.11	8	C25H16O2+
349.11	102	C21H17O5+
350.11	26	C28H14+
351.12	28	C21H19O5+
352.13	9	C21H20O5+
362.12	3	C22H18O5+
363.12	37	C22H19O5+
364.13	68	C22H20O5+
365.14	28	C22H21O5+
376.97	3	C26HO4+
397.2	4	C27H25O3+
409.14	3	C27H21O4+
411.16	8	C27H23O4+
412.17	3	C27H24O4+
421.15	4	C28H21O4+
422.14	4	C28H22O4+
428.18	4	C27H24O5+
439.15	25	C28H23O5+
440.16	7	C28H24O5+
441.15	3	C27H21O6+
455.15	29	C28H23O6+
456.15	6	C28H24O6+
457.16	38	C28H25O6+
