Mass spectrum: 2,15-dioxapentacyclo[22.2.2.13,7.110,14.016,21]triaconta-1(26),3(30),4,6,10(29),11,13,16(21),17,19,24,27-dodecaene-4,5,8,17-tetrol 1; LC-ESI-QTOF; MS2; CE: 31.787345; [M+H]+
Name: 2,15-dioxapentacyclo[22.2.2.13,7.110,14.016,21]triaconta-1(26),3(30),4,6,10(29),11,13,16(21),17,19,24,27-dodecaene-4,5,8,17-tetrol 1
Name: NJNMMLUSUMUVMX-UHFFFAOYSA-N
Name: 2,15-dioxapentacyclo[22.2.2.13,7.110,14.016,21]triaconta-1(26),3(30),4,6,10(29),11,13,16(21),17,19,24,27-dodecaene-4,5,8,17-tetrol
Class: Lignane
Formula: C28H24O6
Exact mass: 456.157
SMILES: C1CC2=C(C(=CC=C2)O)OC3=CC=CC(=C3)CC(C4=CC(=C(C(=C4)O)O)OC5=CC=C1C=C5)O
InChI: InChI=1S/C28H24O6/c29-23-6-2-4-19-10-7-17-8-11-21(12-9-17)33-26-16-20(15-25(31)27(26)32)24(30)14-18-3-1-5-22(13-18)34-28(19)23/h1-6,8-9,11-13,15-16,24,29-32H,7,10,14H2
Instrument: Bruker MicrOTOF-Q
Instrument type: LC-ESI-QTOF
Ms type: MS2
Ion mode: POSITIVE
Ionization: ESI
Collision energy: 31.787345
Fragmentation mode: CID
Column name: ACQUITY UPLC HSS T3 Column
Retention time: 9.033 min
Base peak: 457.1646
Precursor m/z: 457.1646
Precursor type: [M+H]+
m/z	relative intensity	assigned
107.05	2	C7H7O+
115.05	4	C9H7+
117.07	6	C9H9+
119.05	7	C8H7O+
120.05	2	C8H8O+
121.06	25	C8H9O+
122.07	3	C8H10O+
123.04	40	C7H7O2+
124.04	4	C3H8O5+
125.02	6	C6H5O3+
128.06	2	C10H8+
129.07	5	C10H9+
131.05	7	C9H7O+
133.06	16	C9H9O+
134.03	1	C8H6O2+
134.06	1	C5H10O4+
135.04	41	C8H7O2+
136.05	34	C8H8O2+
137.06	76	C8H9O2+
138.06	6	C8H10O2+
139.04	7	C7H7O3+
141.07	5	C11H9+
142.07	1	C7H10O3+
143.05	1	C10H7O+
143.08	1	C11H11+
144.06	1	C3H12O6+
145.06	8	C10H9O+
146.07	1	C10H10O+
147.04	6	C9H7O2+
148.05	2	C9H8O2+
149.06	24	C9H9O2+
150.06	3	C9H10O2+
151.04	10	C8H7O3+
152.06	5	C12H8+
153.07	11	C12H9+
154.07	3	C8H10O3+
155.08	11	C12H11+
156.09	2	C12H12+
157.07	4	C4H13O6+
158.07	1	C11H10O+
159.08	4	C11H11O+
160.06	1	C10H8O2+
161.06	10	C10H9O2+
162.07	5	C10H10O2+
163.04	4	C9H7O3+
164.05	1	C9H8O3+
165.07	40	C13H9+
166.08	16	C13H10+
167.08	17	C13H11+
168.06	23	C5H12O6+
169.06	42	C12H9O+
170.07	6	C12H10O+
171.08	9	C12H11O+
172.08	2	C8H12O4+
173.06	4	C11H9O2+
177.06	6	C10H9O3+
178.08	5	C14H10+
179.08	19	C14H11+
180.09	5	C14H12+
181.07	70	C6H13O6+
182.07	22	C13H10O+
183.08	249	C13H11O+
184.08	34	C9H12O4+
185.09	9	C13H13O+
186.07	2	C12H10O2+
187.07	17	C12H11O2+
188.08	3	C12H12O2+
189.07	2	C15H9+
190.07	1	C11H10O3+
191.08	17	C15H11+
192.09	6	C15H12+
193.07	21	C7H13O6+
194.07	27	C14H10O+
195.08	77	C14H11O+
196.05	125	C13H8O2+
197.06	121	C13H9O2+
198.07	27	C13H10O2+
199.08	73	C13H11O2+
200.08	18	C13H12O2+
201.09	27	C13H13O2+
202.09	3	C9H14O5+
203.07	3	C12H11O3+
203.18	1	C15H23+
205.07	3	C8H13O6+
206.07	2	C15H10O+
207.08	21	C15H11O+
208.09	21	C15H12O+
209.08	87	C11H13O4+
210.07	71	C14H10O2+
211.07	443	C14H11O2+
212.08	172	C14H12O2+
213.06	297	C13H9O3+
213.09	11	C14H13O2+
214.06	55	C13H10O3+
214.07	2	C13H10O3+
215.07	636	C13H11O3+
216.07	85	C9H12O6+
217.08	14	C13H13O3+
218.08	3	C9H14O6+
219.08	15	C16H11O+
220.09	13	C16H12O+
221.09	7	C16H13O+
222.07	22	C15H10O2+
223.07	115	C15H11O2+
224.08	47	C15H12O2+
225.09	106	C15H13O2+
226.07	175	C14H10O3+
227.07	526	C14H11O3+
228.08	269	C14H12O3+
229.09	999	C14H13O3+
230.09	149	C14H14O3+
231.09	17	C10H15O6+
232.09	2	C17H12O+
235.08	8	C16H11O2+
236.08	4	C16H12O2+
237.09	103	C16H13O2+
238.1	44	C16H14O2+
239.07	93	C15H11O3+
240.08	631	C15H12O3+
241.09	962	C15H13O3+
242.09	191	C15H14O3+
243.1	72	C15H15O3+
244.09	11	C18H12O+
245.09	3	C18H13O+
251.07	2	C16H11O3+
252.08	2	C16H12O3+
253.09	18	C16H13O3+
254.09	17	C16H14O3+
255.1	977	C16H15O3+
255.97	1	C16O4+
256.1	175	C12H16O6+
257.1	23	C12H17O6+
258.1	4	C19H14O+
259.1	1	C15H15O4+
260.09	1	C18H12O2+
261.09	1	C18H13O2+
261.12	1	C19H17O+
262.09	1	C14H14O5+
263.08	1	C21H11+
264.07	1	C13H12O6+
265.09	3	C17H13O3+
266.09	1	C17H14O3+
267.1	2	C17H15O3+
269.09	3	C20H13O+
270.09	3	C16H14O4+
271.11	9	C20H15O+
272.1	1	C16H16O4+
272.11	1	C16H16O4+
273.09	1	C19H13O2+
273.11	2	C16H17O4+
274.1	2	C19H14O2+
275.1	4	C19H15O2+
276.09	2	C22H12+
277.09	3	C18H13O3+
278.09	1	C18H14O3+
279.1	3	C18H15O3+
281.09	6	C21H13O+
282.1	2	C21H14O+
283.11	5	C21H15O+
284.09	3	C20H12O2+
285.1	5	C20H13O2+
286.1	4	C20H14O2+
287.1	7	C20H15O2+
288.11	3	C20H16O2+
289.12	9	C20H17O2+
290.12	2	C16H18O5+
291.1	3	C19H15O3+
293.11	3	C19H17O3+
295.1	2	C18H15O4+
297.1	2	C21H13O2+
298.1	3	C21H14O2+
299.11	45	C21H15O2+
300.11	12	C21H16O2+
301.12	14	C21H17O2+
302.11	5	C24H14+
303.1	14	C20H15O3+
304.11	6	C20H16O3+
305.11	9	C20H17O3+
306.12	3	C20H18O3+
307.12	5	C16H19O6+
309.09	2	C22H13O2+
311.11	5	C22H15O2+
313.11	6	C18H17O5+
314.12	10	C18H18O5+
315.1	14	C21H15O3+
316.11	6	C21H16O3+
317.12	59	C21H17O3+
318.12	22	C21H18O3+
319.1	2	C24H15O+
319.13	21	C17H19O6+
320.12	5	C24H16O+
321.11	7	C20H17O4+
322.12	2	C20H18O4+
323.12	2	C20H19O4+
327.1	10	C22H15O3+
328.11	5	C22H16O3+
329.12	12	C22H17O3+
330.1	7	C25H14O+
331.1	26	C21H15O4+
332.14	38	C22H20O3+
333.11	71	C21H17O4+
334.12	20	C21H18O4+
335.13	195	C21H19O4+
336.13	49	C21H20O4+
337.13	8	C24H17O2+
345.11	28	C22H17O4+
346.12	30	C22H18O4+
347.12	25	C22H19O4+
348.13	9	C22H20O4+
349.11	112	C21H17O5+
350.11	28	C28H14+
351.12	34	C21H19O5+
352.12	8	C28H16+
362.11	2	C22H18O5+
363.12	61	C22H19O5+
364.13	87	C22H20O5+
365.13	21	C22H21O5+
366.13	4	C25H18O3+
393.15	2	C27H21O3+
411.16	8	C27H23O4+
412.16	2	C27H24O4+
421.14	5	C28H21O4+
427.15	2	C27H23O5+
439.15	38	C28H23O5+
440.16	11	C28H24O5+
441.16	2	C28H25O5+
455.15	7	C28H23O6+
456.15	3	C28H24O6+
457.16	40	C28H25O6+
459.17	2	C27H25NO6+
