Mass spectrum: (8Z)-2,15-dioxapentacyclo[22.2.2.13,7.110,14.016,21]triaconta-3(30),4,6,8,10(29),11,13,16(21),17,19,25,27-dodecaene-4,5,17-triol 1; LC-ESI-QTOF; MS2; CE: 30.58772; [M+H]+
Name: (8Z)-2,15-dioxapentacyclo[22.2.2.13,7.110,14.016,21]triaconta-3(30),4,6,8,10(29),11,13,16(21),17,19,25,27-dodecaene-4,5,17-triol 1
Name: 7,8,19,20-Tetrahydro-15,18-etheno-2,6:9,13-dimetheno-1,14-benzodioxacyclodocosin-11,12,24-triol
Name: (8Z)-2,15-dioxapentacyclo[22.2.2.13,7.110,14.016,21]triaconta-3(30),4,6,8,10(29),11,13,16(21),17,19,25,27-dodecaene-4,5,17-triol
Class: Lignane
Formula: C28H24O5
Exact mass: 440.162
SMILES: C1CC2=C(C(=CC=C2)O)OC3=CC=CC(=C3)/C=C\C4=CC(=C(C(=C4)O)O)OC5C=CC1C=C5
InChI: InChI=1S/C28H24O5/c29-24-6-2-4-21-12-9-18-10-13-22(14-11-18)32-26-17-20(16-25(30)27(26)31)8-7-19-3-1-5-23(15-19)33-28(21)24/h1-8,10-11,13-18,22,29-31H,9,12H2/b8-7-
Instrument: Bruker MicrOTOF-Q
Instrument type: LC-ESI-QTOF
Ms type: MS2
Ion mode: POSITIVE
Ionization: ESI
Collision energy: 30.58772
Fragmentation mode: CID
Column name: ACQUITY UPLC HSS T3 Column
Retention time: 10.035 min
Base peak: 441.1697
Precursor m/z: 441.1697
Precursor type: [M+H]+
m/z	relative intensity	assigned
107.05	3	C7H7O+
115.05	5	C9H7+
117.07	8	C9H9+
119.05	12	C8H7O+
120.05	7	C8H8O+
121.06	48	C8H9O+
122.07	4	C8H10O+
123.04	34	C7H7O2+
124.05	3	C7H8O2+
125.02	3	C6H5O3+
127.05	2	C10H7+
128.06	2	C10H8+
129.07	6	C10H9+
130.08	2	C10H10+
131.05	9	C9H7O+
132.05	2	C9H8O+
133.06	17	C9H9O+
134.07	2	C9H10O+
135.04	36	C8H7O2+
136.05	26	C8H8O2+
137.06	62	C8H9O2+
138.06	5	C8H10O2+
139.04	2	C7H7O3+
141.07	7	C11H9+
143.08	3	C11H11+
145.06	17	C10H9O+
146.07	4	C10H10O+
147.04	6	C9H7O2+
148.05	1	C9H8O2+
149.06	14	C9H9O2+
150.06	2	C9H10O2+
151.04	6	C8H7O3+
152.06	9	C12H8+
153.07	18	C12H9+
154.07	4	C8H10O3+
155.08	16	C12H11+
156.09	2	C12H12+
157.07	10	C11H9O+
158.07	2	C11H10O+
159.08	4	C11H11O+
161.06	6	C10H9O2+
162.07	2	C10H10O2+
163.05	2	C13H7+
164.06	2	C13H8+
165.07	73	C13H9+
166.08	28	C13H10+
167.09	41	C6H15O5+
168.06	14	C12H8O+
169.07	38	C12H9O+
170.07	9	C12H10O+
171.08	26	C12H11O+
172.08	4	C8H12O4+
173.06	6	C11H9O2+
177.07	12	C14H9+
178.08	19	C14H10+
179.08	35	C14H11+
180.09	7	C14H12+
181.07	151	C13H9O+
182.07	47	C13H10O+
183.08	232	C13H11O+
184.08	35	C9H12O4+
185.09	36	C13H13O+
186.09	4	C9H14O4+
187.07	12	C12H11O2+
188.08	2	C12H12O2+
191.09	14	C8H15O5+
192.09	7	C15H12+
193.08	24	C11H13O3+
193.09	14	C11H13O3+
194.07	54	C14H10O+
195.08	136	C14H11O+
196.06	76	C13H8O2+
197.06	255	C13H9O2+
198.07	74	C13H10O2+
199.08	294	C13H11O2+
200.08	61	C13H12O2+
201.09	22	C13H13O2+
202.08	6	C16H10+
203.08	11	C16H11+
204.09	2	C16H12+
205.07	3	C15H9O+
206.07	6	C15H10O+
207.08	59	C15H11O+
208.09	29	C15H12O+
209.07	169	C14H9O2+
210.07	161	C14H10O2+
211.08	898	C14H11O2+
212.08	527	C14H12O2+
212.98	1	C11HO5+
213.09	531	C14H13O2+
214.09	75	C10H14O5+
215.07	445	C13H11O3+
216.07	60	C13H12O3+
217.08	9	C13H13O3+
218.08	2	C16H10O+
219.08	12	C16H11O+
220.09	11	C16H12O+
221.1	60	C16H13O+
222.1	19	C16H14O+
223.08	118	C15H11O2+
224.08	514	C15H12O2+
224.97	1	C12HO5+
225.09	644	C15H13O2+
226.09	154	C11H14O5+
227.07	593	C14H11O3+
228.08	439	C14H12O3+
229.09	776	C14H13O3+
230.09	115	C14H14O3+
231.09	13	C17H11O+
235.08	9	C16H11O2+
236.08	5	C16H12O2+
237.09	57	C16H13O2+
238.1	31	C16H14O2+
239.11	999	C16H15O2+
240.1	170	C12H16O5+
241.09	517	C15H13O3+
242.09	92	C15H14O3+
243.07	33	C14H11O4+
244.08	7	C14H12O4+
245.09	3	C18H13O+
246.1	1	C18H14O+
247.08	2	C17H11O2+
248.08	1	C17H12O2+
249.09	4	C17H13O2+
250.09	2	C13H14O5+
251.1	2	C17H15O2+
252.08	2	C16H12O3+
253.09	15	C16H13O3+
254.09	15	C16H14O3+
255.1	253	C16H15O3+
256.11	46	C16H16O3+
257.1	8	C19H13O+
258.09	3	C15H14O4+
259.11	6	C19H15O+
260.09	6	C18H12O2+
261.09	6	C18H13O2+
262.1	2	C18H14O2+
263.1	3	C18H15O2+
264.1	1	C14H16O5+
265.1	6	C21H13+
266.1	2	C17H14O3+
267.11	2	C21H15+
268.09	4	C20H12O+
269.09	6	C20H13O+
270.1	3	C20H14O+
271.11	4	C20H15O+
272.09	2	C16H16O4+
272.1	1	C16H16O4+
273.12	7	C20H17O+
274.11	2	C16H18O4+
275.11	6	C19H15O2+
276.11	2	C19H16O2+
277.12	5	C19H17O2+
278.11	1	C22H14+
279.1	1	C18H15O3+
281.1	2	C21H13O+
282.1	2	C21H14O+
283.11	29	C21H15O+
284.12	9	C21H16O+
285.11	6	C17H17O4+
286.1	10	C20H14O2+
287.11	21	C20H15O2+
288.11	7	C20H16O2+
289.12	8	C20H17O2+
290.11	2	C23H14+
291.12	4	C16H19O5+
293.1	6	C22H13O+
294.11	3	C22H14O+
295.11	3	C22H15O+
297.1	6	C21H13O2+
298.1	4	C21H14O2+
299.11	28	C21H15O2+
300.11	9	C21H16O2+
301.12	73	C21H17O2+
302.12	29	C17H18O5+
303.13	26	C17H19O5+
304.12	7	C24H16+
305.12	11	C20H17O3+
306.12	4	C20H18O3+
307.11	2	C23H15O+
311.11	28	C22H15O2+
312.11	16	C22H16O2+
313.12	12	C22H17O2+
314.1	19	C21H14O3+
315.1	45	C21H15O3+
316.13	19	C18H20O5+
317.12	62	C21H17O3+
318.12	16	C21H18O3+
319.13	113	C21H19O3+
320.13	36	C24H16O+
321.13	6	C24H17O+
322.12	9	C20H18O4+
323.12	2	C20H19O4+
329.12	67	C22H17O3+
330.12	52	C22H18O3+
331.13	34	C22H19O3+
332.14	33	C22H20O3+
333.11	240	C21H17O4+
334.12	66	C21H18O4+
335.13	79	C21H19O4+
336.13	18	C21H20O4+
337.13	3	C24H17O2+
345.11	2	C22H17O4+
346.12	2	C22H18O4+
347.13	92	C22H19O4+
348.13	209	C22H20O4+
349.14	52	C22H21O4+
350.14	8	C25H18O2+
395.16	7	C27H23O3+
396.17	2	C27H24O3+
405.15	3	C28H21O3+
413.17	3	C27H25O4+
423.16	35	C28H23O4+
424.16	11	C28H24O4+
425.16	2	C28H25O4+
439.15	19	C28H23O5+
440.16	6	C28H24O5+
441.17	67	C28H25O5+
