Mass spectrum: (20S)-14-oxapentacyclo[20.2.2.210,13.115,19.02,7]nonacosa-1(24),2(7),3,5,10(29),11,13(28),15,17,19(27),22,25-dodecaene-5,16,20,24-tetrol; LC-ESI-QTOF; MS2; CE: 30.58772; [M+H]+
Name: (20S)-14-oxapentacyclo[20.2.2.210,13.115,19.02,7]nonacosa-1(24),2(7),3,5,10(29),11,13(28),15,17,19(27),22,25-dodecaene-5,16,20,24-tetrol
Name: Maruchantin E
Class: Lignane
Formula: C28H24O5
Exact mass: 440.162
SMILES: C1CC2=C(C=CC(=C2)O)C3=C(C=C(C[C@@H](C4=CC(=C(C=C4)O)OC5=CC=C1C=C5)O)C=C3)O
InChI: InChI=1S/C28H24O5/c29-21-7-11-23-19(15-21)5-1-17-2-8-22(9-3-17)33-28-16-20(6-12-25(28)30)26(31)13-18-4-10-24(23)27(32)14-18/h2-4,6-12,14-16,26,29-32H,1,5,13H2/t26-/m0/s1
Instrument: Bruker MicrOTOF-Q
Instrument type: LC-ESI-QTOF
Ms type: MS2
Ion mode: POSITIVE
Ionization: ESI
Collision energy: 30.58772
Fragmentation mode: CID
Column name: ACQUITY UPLC HSS T3 Column
Retention time: 10.538 min
Base peak: 441.1697
Precursor m/z: 441.1697
Precursor type: [M+H]+
m/z	relative intensity	assigned
107.04	9	C3H7O4+
115.05	10	C9H7+
117.06	12	C5H9O3+
119.05	25	C8H7O+
120.06	14	C8H8O+
121.06	108	C8H9O+
122.06	12	C4H10O4+
123.04	38	C7H7O2+
123.13	6	C2H19O5+
125.01	6	C5H3NO3+
128.06	12	C10H8+
132.05	6	C9H8O+
133.02	15	C4H5O5+
133.07	18	C9H9O+
133.12	10	C7H17O2+
134.07	8	C9H10O+
135.04	75	C8H7O2+
136.05	32	C8H8O2+
137.06	44	C8H9O2+
139.04	7	C7H7O3+
141.07	18	C11H9+
143.08	8	C11H11+
145.06	10	C10H9O+
147.04	6	C9H7O2+
148.04	10	C5H8O5+
151.04	15	C8H7O3+
151.1	7	C6H15O4+
152.06	35	C12H8+
153.07	28	C12H9+
155.08	12	C12H11+
157.09	9	C8H13O3+
158.07	7	C11H10O+
161.06	14	C10H9O2+
163.07	5	C10H11O2+
165.07	62	C13H9+
166.07	26	C9H10O3+
167.09	44	C6H15O5+
168.09	30	C13H12+
168.15	10	C11H20O+
169.07	36	C12H9O+
171.03	7	C7H7O5+
171.08	39	C12H11O+
172.09	9	C12H12O+
173.06	15	C11H9O2+
177.07	42	C14H9+
178.08	28	C14H10+
179.09	25	C7H15O5+
180.1	9	C7H16O5+
181.06	214	C13H9O+
182.07	59	C13H10O+
183.08	207	C13H11O+
184.09	24	C13H12O+
185.1	65	C13H13O+
186.09	6	C9H14O4+
187.07	31	C12H11O2+
189.08	6	C8H13O5+
190.08	8	C15H10+
192.08	6	C11H12O3+
193.07	55	C14H9O+
194.08	28	C14H10O+
195.08	260	C14H11O+
196.09	227	C14H12O+
197.06	319	C13H9O2+
198.07	162	C13H10O2+
199.08	472	C13H11O2+
200.08	87	C13H12O2+
201.09	47	C13H13O2+
203.09	15	C9H15O5+
205.09	15	C12H13O3+
206.08	7	C15H10O+
207.08	55	C15H11O+
207.16	7	C10H23O4+
208.09	28	C15H12O+
209.08	187	C11H13O4+
210.07	134	C14H10O2+
211.08	591	C14H11O2+
212.08	336	C14H12O2+
212.97	8	C11HO5+
213.09	999	C14H13O2+
214.09	199	C10H14O5+
215.07	665	C13H11O3+
216.07	115	C13H12O3+
217.1	7	C17H13+
219.07	7	C12H11O4+
219.17	10	C15H23O+
220.11	11	C13H16O3+
221.09	115	C16H13O+
222.09	27	C12H14O4+
223.08	54	C15H11O2+
223.16	8	C10H23O5+
224.08	240	C15H12O2+
225.09	714	C15H13O2+
226.07	190	C14H10O3+
227.07	673	C14H11O3+
228.08	579	C14H12O3+
229.08	808	C14H13O3+
230.09	169	C14H14O3+
231.09	16	C17H11O+
235.08	6	C16H11O2+
235.13	7	C14H19O3+
236.08	10	C16H12O2+
237.09	96	C16H13O2+
237.17	7	C11H25O5+
238	7	C17H2O2+
238.09	30	C12H14O5+
239.11	839	C16H15O2+
240.09	221	C19H12+
241.09	890	C15H13O3+
242.09	127	C15H14O3+
242.17	21	C17H22O+
243.08	24	C18H11O+
243.97	6	C15O4+
244.07	71	C14H12O4+
245.08	17	C14H13O4+
247.07	12	C17H11O2+
247.15	10	C19H19+
249.09	18	C17H13O2+
250.08	9	C20H10+
251.11	12	C17H15O2+
252.09	10	C20H12+
253.08	30	C16H13O3+
254.09	16	C16H14O3+
255.1	591	C16H15O3+
256.11	68	C16H16O3+
257.11	17	C16H17O3+
259.11	26	C19H15O+
260.11	7	C15H16O4+
261.09	6	C18H13O2+
263.09	9	C14H15O5+
264.12	7	C18H16O2+
268.09	8	C20H12O+
269.12	6	C17H17O3+
270.1	10	C20H14O+
271.1	6	C16H15O4+
273.08	15	C15H13O5+
274.08	6	C22H10+
275.1	16	C19H15O2+
276.11	6	C19H16O2+
277.11	6	C15H17O5+
281.15	7	C19H21O2+
283.11	31	C21H15O+
284.11	8	C17H16O4+
286	7	C21H2O2+
286.13	8	C21H18O+
287.1	26	C20H15O2+
287.19	9	C18H25NO2+
288.12	12	C20H16O2+
289.13	22	C20H17O2+
291.1	11	C19H15O3+
297.09	11	C21H13O2+
299.11	40	C21H15O2+
301.12	74	C21H17O2+
302.12	14	C17H18O5+
303.14	57	C21H19O2+
304.11	7	C20H16O3+
304.2	7	C22H24O+
306.13	19	C20H18O3+
307.14	6	C20H19O3+
311.14	7	C23H19O+
312.11	17	C22H16O2+
313.11	19	C18H17O5+
314.13	26	C22H18O2+
315.1	48	C21H15O3+
316.15	152	C22H20O2+
317.12	110	C21H17O3+
318.13	24	C21H18O3+
319.13	264	C21H19O3+
320.14	60	C21H20O3+
321.13	14	C24H17O+
322.13	8	C24H18O+
323.12	15	C20H19O4+
329.13	21	C26H17+
330.12	39	C22H18O3+
331.11	33	C25H15O+
331.97	8	C21O5+
332.14	67	C22H20O3+
333.11	197	C21H17O4+
334.11	38	C21H18O4+
335.13	90	C21H19O4+
336.13	54	C21H20O4+
337.13	8	C24H17O2+
338.13	8	C24H18O2+
344.14	9	C23H20O3+
345.05	6	C24H9O3+
346.11	10	C22H18O4+
347.13	87	C22H19O4+
348.13	85	C22H20O4+
349.12	18	C25H17O2+
350.07	6	C27H10O+
366.16	8	C26H22O2+
373.19	6	C25H25O3+
381.15	8	C26H21O3+
395.16	13	C27H23O3+
410.04	7	C28H10O4+
423.16	86	C28H23O4+
424.17	36	C28H24O4+
439.16	82	C28H23O5+
440.16	28	C28H24O5+
441.17	196	C28H25O5+
443.16	10	C26H23N2O5+
