Mass spectrum: Perrottetin E 2; LC-ESI-QTOF; MS2; CE: 29.53928; [M+H]+
Name: Perrottetin E 2
Name: Perrottetin E
Name: 4-[2-(3-hydroxyphenyl)ethyl]-2-[4-[2-(3-hydroxyphenyl)ethyl]phenoxy]phenol
Class: Lignane
Formula: C28H26O4
Exact mass: 426.183
SMILES: C1=CC(=CC(=C1)O)CCC2=CC=C(C=C2)OC3=C(C=CC(=C3)CCC4=CC(=CC=C4)O)O
InChI: InChI=1S/C28H26O4/c29-24-5-1-3-21(17-24)8-7-20-11-14-26(15-12-20)32-28-19-23(13-16-27(28)31)10-9-22-4-2-6-25(30)18-22/h1-6,11-19,29-31H,7-10H2
Instrument: Bruker MicrOTOF-Q
Instrument type: LC-ESI-QTOF
Ms type: MS2
Ion mode: POSITIVE
Ionization: ESI
Collision energy: 29.53928
Fragmentation mode: CID
Column name: ACQUITY UPLC HSS T3 Column
Retention time: 10.660 min
Base peak: 427.1904
Precursor m/z: 427.1904
Precursor type: [M+H]+
m/z	relative intensity	assigned
107.05	6	C7H7O+
119.04	3	C4H7O4+
120.05	2	C8H8O+
121.06	250	C8H9O+
122.07	22	C8H10O+
123.07	1	C4H11O4+
131.05	1	C9H7O+
132.06	1	C9H8O+
133.06	4	C9H9O+
135.04	3	C8H7O2+
143.08	1	C11H11+
144.05	1	C10H8O+
145.06	4	C10H9O+
147.08	11	C10H11O+
148.08	1	C6H12O4+
149.09	1	C10H13O+
151.05	1	C12H7+
151.11	1	C10H15O+
152.06	6	C12H8+
153.07	3	C12H9+
155.08	1	C12H11+
157.07	3	C11H9O+
158.07	1	C11H10O+
159.08	1	C11H11O+
160.09	1	C11H12O+
164.06	2	C13H8+
165.07	21	C13H9+
166.08	5	C13H10+
167.09	31	C13H11+
168.09	5	C13H12+
169.07	3	C12H9O+
170.08	2	C12H10O+
171.08	6	C12H11O+
172.08	1	C8H12O4+
175.07	1	C11H11O2+
176.06	1	C14H8+
177.07	19	C14H9+
178.07	5	C10H10O3+
179.09	5	C14H11+
180.09	1	C14H12+
181.07	6	C13H9O+
182.07	3	C13H10O+
183.08	38	C13H11O+
184.08	8	C9H12O4+
185.1	27	C13H13O+
186.1	4	C13H14O+
189.09	1	C12H13O2+
191.09	1	C15H11+
193.07	11	C14H9O+
194.07	8	C14H10O+
195.08	178	C14H11O+
196.09	38	C14H12O+
197.07	11	C10H13O4+
197.09	15	C10H13O4+
198.07	32	C13H10O2+
199.08	290	C13H11O2+
200.08	50	C13H12O2+
201.09	4	C13H13O2+
202.07	1	C12H10O3+
203.09	2	C16H11+
204.08	1	C12H12O3+
206.07	1	C15H10O+
207.08	10	C15H11O+
208.09	3	C15H12O+
209.1	17	C15H13O+
210.09	10	C11H14O4+
211.08	185	C14H11O2+
212.08	65	C14H12O2+
213.09	296	C14H13O2+
214.1	58	C14H14O2+
215.1	6	C14H15O2+
216.1	1	C17H12+
219.17	4	C15H23O+
220.18	1	C15H24O+
221.1	8	C16H13O+
222.1	2	C16H14O+
223.09	3	C12H15O4+
224.08	14	C15H12O2+
225.09	278	C15H13O2+
226.1	54	C15H14O2+
227.11	46	C15H15O2+
228.11	9	C15H16O2+
229.09	2	C14H13O3+
233.1	1	C17H13O+
237.09	3	C16H13O2+
239.11	99	C16H15O2+
240.11	21	C16H16O2+
241.12	5	C16H17O2+
242.11	1	C19H14+
242.12	1	C16H18O2+
249.09	2	C17H13O2+
252.11	1	C17H16O2+
255.11	1	C20H15+
257.1	1	C19H13O+
258.1	1	C19H14O+
267.1	1	C17H15O3+
268.09	1	C20H12O+
271.18	1	C15H27O4+
273.13	3	C20H17O+
273.2	1	C18H25O2+
275.11	1	C19H15O2+
283.11	2	C21H15O+
287.13	1	C17H19O4+
291.14	4	C20H19O2+
292.14	2	C20H20O2+
297.13	1	C22H17O+
299.11	1	C21H15O2+
300.11	1	C21H16O2+
301.12	16	C21H17O2+
302.12	3	C21H18O2+
304.12	1	C24H16+
305.14	1	C24H17+
315.14	4	C22H19O2+
316.16	1	C19H24O4+
317.12	3	C21H17O3+
318.12	1	C21H18O3+
319.13	999	C21H19O3+
320.14	221	C21H20O3+
320.98	1	C24HO2+
321.14	32	C21H21O3+
322.14	2	C24H18O+
333.15	158	C22H21O3+
334.15	36	C22H22O3+
335.16	4	C22H23O3+
427.18	1	C28H27O4+
