Mass spectrum: (8Z)-2,15-dioxapentacyclo[22.2.2.13,7.110,14.016,21]triaconta-3(30),4,6,8,10(29),11,13,16(21),17,19,25,27-dodecaene-4,5,17-triol 1; LC-ESI-QTOF; MS2; CE: 30.58772; [M+H]+
Name: (8Z)-2,15-dioxapentacyclo[22.2.2.13,7.110,14.016,21]triaconta-3(30),4,6,8,10(29),11,13,16(21),17,19,25,27-dodecaene-4,5,17-triol 1
Name: 7,8,19,20-Tetrahydro-15,18-etheno-2,6:9,13-dimetheno-1,14-benzodioxacyclodocosin-11,12,24-triol
Name: (8Z)-2,15-dioxapentacyclo[22.2.2.13,7.110,14.016,21]triaconta-3(30),4,6,8,10(29),11,13,16(21),17,19,25,27-dodecaene-4,5,17-triol
Class: Lignane
Formula: C28H24O5
Exact mass: 440.162
SMILES: C1CC2=C(C(=CC=C2)O)OC3=CC=CC(=C3)/C=C\C4=CC(=C(C(=C4)O)O)OC5C=CC1C=C5
InChI: InChI=1S/C28H24O5/c29-24-6-2-4-21-12-9-18-10-13-22(14-11-18)32-26-17-20(16-25(30)27(26)31)8-7-19-3-1-5-23(15-19)33-28(21)24/h1-8,10-11,13-18,22,29-31H,9,12H2/b8-7-
Instrument: Bruker MicrOTOF-Q
Instrument type: LC-ESI-QTOF
Ms type: MS2
Ion mode: POSITIVE
Ionization: ESI
Collision energy: 30.58772
Fragmentation mode: CID
Column name: ACQUITY UPLC HSS T3 Column
Retention time: 10.120 min
Base peak: 441.1697
Precursor m/z: 441.1697
Precursor type: [M+H]+
m/z	relative intensity	assigned
107.05	2	C7H7O+
115.05	6	C9H7+
117.07	10	C9H9+
119.05	13	C8H7O+
120.05	8	C8H8O+
121.06	55	C8H9O+
122.07	4	C8H10O+
123.04	40	C7H7O2+
124.04	5	C3H8O5+
125.02	4	C6H5O3+
128.06	3	C10H8+
129.07	7	C10H9+
130.08	5	C10H10+
131.05	10	C9H7O+
133.06	19	C9H9O+
135.04	44	C8H7O2+
136.05	25	C8H8O2+
137.06	58	C8H9O2+
141.07	6	C11H9+
143.09	5	C4H15O5+
145.06	19	C10H9O+
146.07	5	C10H10O+
147.04	4	C9H7O2+
149.06	15	C9H9O2+
151.04	8	C8H7O3+
152.06	9	C12H8+
153.07	15	C12H9+
154.07	7	C8H10O3+
155.08	17	C12H11+
157.06	13	C11H9O+
158.08	3	C11H10O+
161.06	4	C10H9O2+
162.07	3	C10H10O2+
163.04	4	C9H7O3+
165.07	78	C13H9+
166.07	32	C9H10O3+
167.09	52	C6H15O5+
168.06	17	C12H8O+
169.06	36	C12H9O+
170.07	13	C12H10O+
171.08	20	C12H11O+
172.09	3	C12H12O+
173.06	5	C11H9O2+
174.07	2	C11H10O2+
177.07	14	C14H9+
178.08	22	C14H10+
179.09	36	C7H15O5+
180.09	5	C14H12+
181.07	168	C13H9O+
182.07	50	C13H10O+
183.08	240	C13H11O+
184.08	37	C9H12O4+
185.1	43	C13H13O+
186.09	7	C9H14O4+
187.08	14	C12H11O2+
188.08	2	C12H12O2+
189.07	2	C15H9+
191.09	16	C8H15O5+
192.09	6	C15H12+
193.09	51	C11H13O3+
194.08	58	C14H10O+
195.08	155	C14H11O+
196.06	81	C13H8O2+
197.06	265	C13H9O2+
198.07	76	C13H10O2+
199.08	301	C13H11O2+
200.08	59	C13H12O2+
201.09	24	C13H13O2+
202.09	7	C9H14O5+
203.08	15	C16H11+
204.09	2	C16H12+
205.07	3	C15H9O+
206.07	9	C15H10O+
207.08	65	C15H11O+
208.09	27	C15H12O+
209.07	151	C14H9O2+
210.07	198	C14H10O2+
211.08	894	C14H11O2+
211.98	3	C11O5+
212.08	578	C14H12O2+
212.97	3	C11HO5+
213.09	555	C14H13O2+
214.09	86	C10H14O5+
215.07	468	C13H11O3+
216.07	62	C13H12O3+
217.08	7	C13H13O3+
219.08	20	C16H11O+
220.09	13	C16H12O+
221.1	62	C16H13O+
222.09	25	C12H14O4+
223.08	130	C15H11O2+
224.08	552	C15H12O2+
225.09	676	C15H13O2+
226.07	201	C14H10O3+
227.07	614	C14H11O3+
228.08	452	C14H12O3+
229.09	791	C14H13O3+
230.09	113	C14H14O3+
231.09	15	C17H11O+
232.08	2	C13H12O4+
234.07	4	C16H10O2+
235.08	11	C16H11O2+
236.08	7	C16H12O2+
237.09	70	C16H13O2+
238.1	35	C16H14O2+
239.11	999	C16H15O2+
239.99	3	C16O3+
240.1	182	C12H16O5+
241.09	532	C15H13O3+
242.09	82	C15H14O3+
243.08	36	C18H11O+
244.07	10	C14H12O4+
245.09	4	C18H13O+
246.15	2	C12H22O5+
247.08	5	C17H11O2+
249.1	5	C17H13O2+
252.09	4	C20H12+
253.09	19	C16H13O3+
254.09	21	C16H14O3+
255.1	258	C16H15O3+
256.11	46	C16H16O3+
257.1	9	C19H13O+
258.09	2	C15H14O4+
259.11	11	C19H15O+
260.08	7	C18H12O2+
261.09	8	C18H13O2+
262.1	3	C18H14O2+
263.11	5	C18H15O2+
265.1	3	C21H13+
266.11	2	C21H14+
267.11	4	C21H15+
268.09	7	C20H12O+
269.1	10	C20H13O+
270.1	4	C20H14O+
271.11	8	C20H15O+
272.09	4	C19H12O2+
273.12	11	C20H17O+
274.12	5	C16H18O4+
275.1	7	C19H15O2+
277.11	5	C15H17O5+
281.09	3	C21H13O+
283.11	27	C21H15O+
284.11	11	C17H16O4+
285.1	7	C20H13O2+
286.1	12	C20H14O2+
287.11	23	C20H15O2+
288.11	9	C20H16O2+
289.12	9	C20H17O2+
290.12	3	C16H18O5+
291.13	6	C16H19O5+
293.1	8	C22H13O+
296.09	3	C21H12O2+
297.1	10	C21H13O2+
298.11	3	C18H18O4+
299.11	35	C21H15O2+
300.11	11	C21H16O2+
301.12	70	C21H17O2+
302.12	28	C17H18O5+
303.13	29	C17H19O5+
304.12	9	C24H16+
305.11	12	C20H17O3+
306.12	5	C20H18O3+
307.11	3	C23H15O+
309.09	3	C22H13O2+
311.11	40	C22H15O2+
312.11	16	C22H16O2+
313.11	11	C18H17O5+
314.11	19	C25H14+
315.1	59	C21H15O3+
316.13	21	C18H20O5+
317.12	66	C21H17O3+
318.12	15	C21H18O3+
319.13	101	C21H19O3+
320.13	35	C24H16O+
321.13	4	C24H17O+
322.12	10	C20H18O4+
323.13	4	C20H19O4+
328.11	3	C22H16O3+
329.12	66	C22H17O3+
330.12	52	C22H18O3+
331.12	40	C25H15O+
332.13	33	C25H16O+
333.11	230	C21H17O4+
334.12	67	C21H18O4+
335.13	75	C21H19O4+
336.13	14	C21H20O4+
337.13	3	C24H17O2+
345.12	3	C26H17O+
346.12	6	C22H18O4+
347.13	104	C22H19O4+
348.13	202	C22H20O4+
349.14	48	C22H21O4+
350.14	7	C25H18O2+
395.16	4	C27H23O3+
396.17	3	C27H24O3+
411.16	5	C27H23O4+
413.17	4	C27H25O4+
421.14	3	C28H21O4+
423.16	35	C28H23O4+
424.16	11	C28H24O4+
439.15	113	C28H23O5+
440.16	35	C28H24O5+
441.17	64	C28H25O5+
