Mass spectrum: 2-oxapentacyclo[21.2.2.13,7.110,14.015,20]nonacosa-1(25),3,5,7(29),10(28),11,13,15(20),16,18,23,26-dodecaene-4,13,18-triol; LC-ESI-QTOF; MS2; CE: 29.3881025; [M+H]+
Name: 2-oxapentacyclo[21.2.2.13,7.110,14.015,20]nonacosa-1(25),3,5,7(29),10(28),11,13,15(20),16,18,23,26-dodecaene-4,13,18-triol
Name: UTQZPYPEAXCDNU-UHFFFAOYSA-N
Class: Lignane
Formula: C28H24O4
Exact mass: 424.167
SMILES: C1CC2=C(C=CC(=C2)O)C3=C(C=CC(=C3)CCC4=CC(=C(C=C4)O)OC5=CC=C1C=C5)O
InChI: InChI=1S/C28H24O4/c29-22-9-12-24-21(17-22)8-3-18-4-10-23(11-5-18)32-28-16-20(7-14-27(28)31)2-1-19-6-13-26(30)25(24)15-19/h4-7,9-17,29-31H,1-3,8H2
Instrument: Bruker MicrOTOF-Q
Instrument type: LC-ESI-QTOF
Ms type: MS2
Ion mode: POSITIVE
Ionization: ESI
Collision energy: 29.3881025
Fragmentation mode: CID
Column name: ACQUITY UPLC HSS T3 Column
Retention time: 11.877 min
Base peak: 425.1747
Precursor m/z: 425.1747
Precursor type: [M+H]+
m/z	relative intensity	assigned
107.05	4	C7H7O+
113	11	C8HO+
119.05	5	C8H7O+
119.08	6	C9H11+
120.06	11	C8H8O+
121.06	89	C8H9O+
122.06	9	C4H10O4+
129.07	9	C10H9+
130.08	4	C10H10+
131.05	8	C9H7O+
133.06	14	C9H9O+
135.05	17	C8H7O2+
135.11	8	C10H15+
141.07	5	C11H9+
143.08	4	C11H11+
145.07	9	C10H9O+
146.09	11	C7H14O3+
147.12	15	C11H15+
149.13	14	C11H17+
152.06	6	C12H8+
153.07	17	C12H9+
157.1	8	C12H13+
159.11	20	C12H15+
161.13	13	C12H17+
163.15	21	C12H19+
165.07	87	C13H9+
166.08	19	C13H10+
167.09	70	C13H11+
168.06	4	C12H8O+
168.09	5	C13H12+
169.02	38	C11H5O2+
170.08	7	C12H10O+
171.11	10	C13H15+
173.06	4	C11H9O2+
175.15	12	C13H19+
177.07	23	C14H9+
177.16	12	C13H21+
178.08	20	C14H10+
179.08	35	C14H11+
179.15	13	C12H19O+
180.1	4	C14H12+
181.07	39	C13H9O+
182.08	29	C13H10O+
183.08	148	C13H11O+
184.08	21	C9H12O4+
185.09	54	C13H13O+
186.11	7	C13H14O+
187.15	12	C14H19+
188.08	5	C12H12O2+
190.17	8	C14H22+
191.18	17	C14H23+
193.07	52	C14H9O+
194.07	50	C14H10O+
195.08	220	C14H11O+
196.09	132	C14H12O+
197.07	147	C13H9O2+
198.07	66	C13H10O2+
199.08	635	C13H11O2+
200.08	98	C13H12O2+
201.08	14	C13H13O2+
201.16	35	C15H21+
203.08	9	C16H11+
203.18	42	C15H23+
204.18	8	C15H24+
206.07	9	C15H10O+
208.09	35	C15H12O+
209.1	131	C15H13O+
211.08	934	C14H11O2+
212.08	901	C14H12O2+
213.09	999	C14H13O2+
214.1	142	C14H14O2+
215.1	23	C14H15O2+
215.18	16	C16H23+
217.2	11	C16H25+
219.09	6	C16H11O+
219.17	40	C15H23O+
220.18	5	C15H24O+
221.1	46	C16H13O+
221.19	6	C15H25O+
222.1	25	C16H14O+
223.08	58	C15H11O2+
224.08	170	C15H12O2+
225.09	748	C15H13O2+
226.1	148	C15H14O2+
227.1	46	C15H15O2+
227.18	13	C17H23+
228.11	10	C15H16O2+
229.19	16	C17H25+
231.13	6	C15H19O2+
233.09	5	C17H13O+
237.09	47	C16H13O2+
238.1	19	C16H14O2+
239.11	674	C16H15O2+
240.11	140	C16H16O2+
241.12	17	C16H17O2+
247.17	4	C16H23O2+
251.19	4	C15H25NO2+
253.19	11	C19H25+
267.12	6	C21H15+
268.14	5	C18H20O2+
270.11	4	C20H14O+
278.11	4	C22H14+
286.11	14	C17H18O4+
291.14	10	C20H19O2+
295.11	12	C22H15O+
296.13	5	C22H16O+
297.13	7	C22H17O+
299.1	20	C21H15O2+
300.12	9	C21H16O2+
301.12	41	C21H17O2+
302.11	10	C24H14+
303.13	41	C21H19O2+
306.13	7	C20H18O3+
313.12	28	C22H17O2+
314.13	17	C22H18O2+
315.13	15	C22H19O2+
316.14	50	C22H20O2+
317.12	203	C21H17O3+
318.12	52	C21H18O3+
319.13	867	C21H19O3+
320.14	195	C21H20O3+
321.14	25	C21H21O3+
329.12	7	C22H17O3+
331.13	70	C22H19O3+
332.14	205	C22H20O3+
333.14	50	C22H21O3+
334.15	10	C22H22O3+
425.18	35	C28H25O4+
