Mass spectrum: (20S)-14-oxapentacyclo[20.2.2.210,13.115,19.02,7]nonacosa-1(24),2(7),3,5,10(29),11,13(28),15,17,19(27),22,25-dodecaene-5,16,20,24-tetrol; LC-ESI-QTOF; MS2; CE: 30.58772; [M+H]+
Name: (20S)-14-oxapentacyclo[20.2.2.210,13.115,19.02,7]nonacosa-1(24),2(7),3,5,10(29),11,13(28),15,17,19(27),22,25-dodecaene-5,16,20,24-tetrol
Name: Maruchantin E
Class: Lignane
Formula: C28H24O5
Exact mass: 440.162
SMILES: C1CC2=C(C=CC(=C2)O)C3=C(C=C(C[C@@H](C4=CC(=C(C=C4)O)OC5=CC=C1C=C5)O)C=C3)O
InChI: InChI=1S/C28H24O5/c29-21-7-11-23-19(15-21)5-1-17-2-8-22(9-3-17)33-28-16-20(6-12-25(28)30)26(31)13-18-4-10-24(23)27(32)14-18/h2-4,6-12,14-16,26,29-32H,1,5,13H2/t26-/m0/s1
Instrument: Bruker MicrOTOF-Q
Instrument type: LC-ESI-QTOF
Ms type: MS2
Ion mode: POSITIVE
Ionization: ESI
Collision energy: 30.58772
Fragmentation mode: CID
Column name: ACQUITY UPLC HSS T3 Column
Retention time: 10.517 min
Base peak: 441.1697
Precursor m/z: 441.1697
Precursor type: [M+H]+
m/z	relative intensity	assigned
107.05	7	C7H7O+
115.06	3	C2H11O5+
117.07	6	C9H9+
119.05	16	C8H7O+
120.05	12	C8H8O+
121.06	100	C8H9O+
122.07	10	C8H10O+
123.04	34	C7H7O2+
124.04	3	C3H8O5+
125.02	7	C6H5O3+
127.05	2	C10H7+
128.06	3	C10H8+
129.07	6	C10H9+
130.07	3	C6H10O3+
131.05	12	C9H7O+
133.06	19	C9H9O+
135.04	53	C8H7O2+
136.05	19	C8H8O2+
137.06	19	C8H9O2+
139.04	4	C7H7O3+
140.05	2	C7H8O3+
141.07	5	C11H9+
143.08	5	C11H11+
144.06	2	C10H8O+
145.06	22	C10H9O+
146.07	3	C10H10O+
147.04	5	C9H7O2+
149.06	10	C9H9O2+
151.04	9	C8H7O3+
152.06	9	C12H8+
153.07	12	C12H9+
154.07	4	C8H10O3+
155.08	7	C12H11+
157.07	15	C11H9O+
158.07	2	C11H10O+
159.08	3	C11H11O+
161.06	6	C10H9O2+
163.07	2	C10H11O2+
164.07	20	C6H12O5+
165.07	53	C13H9+
166.08	19	C13H10+
167.08	80	C13H11+
168.08	10	C9H12O3+
169.06	38	C12H9O+
170.07	13	C12H10O+
171.08	37	C12H11O+
172.09	7	C12H12O+
173.06	4	C11H9O2+
175.07	1	C11H11O2+
176.06	3	C14H8+
177.07	21	C14H9+
178.08	27	C14H10+
179.09	34	C7H15O5+
180.1	7	C7H16O5+
181.07	169	C13H9O+
182.07	39	C13H10O+
183.08	182	C13H11O+
184.08	36	C9H12O4+
185.1	65	C13H13O+
186.1	10	C13H14O+
187.07	26	C12H11O2+
188.08	2	C12H12O2+
189.08	1	C8H13O5+
190.08	1	C15H10+
191.09	16	C8H15O5+
192.09	6	C15H12+
193.09	35	C11H13O3+
194.08	33	C14H10O+
195.08	231	C14H11O+
196.09	245	C14H12O+
197.06	209	C13H9O2+
198.07	109	C13H10O2+
199.08	440	C13H11O2+
200.08	82	C13H12O2+
201.09	28	C13H13O2+
202.09	8	C9H14O5+
203.08	14	C16H11+
204.09	3	C16H12+
205.07	3	C15H9O+
206.07	5	C15H10O+
207.08	60	C15H11O+
208.09	26	C15H12O+
209.09	187	C15H13O+
210.07	153	C14H10O2+
211.08	571	C14H11O2+
212.08	228	C14H12O2+
212.98	2	C11HO5+
213.09	999	C14H13O2+
214.09	153	C10H14O5+
215.07	698	C13H11O3+
216.07	88	C13H12O3+
217.08	9	C13H13O3+
219.08	9	C16H11O+
220.09	7	C16H12O+
221.1	61	C16H13O+
222.1	23	C16H14O+
223.08	100	C15H11O2+
224.08	251	C15H12O2+
225.09	625	C15H13O2+
226.07	155	C14H10O3+
227.07	612	C14H11O3+
228.08	481	C14H12O3+
229.09	738	C14H13O3+
230.09	110	C14H14O3+
231.09	10	C17H11O+
233.09	2	C17H13O+
235.08	6	C16H11O2+
236.08	6	C16H12O2+
237.09	76	C16H13O2+
238.1	26	C16H14O2+
239.11	868	C16H15O2+
240.09	207	C19H12+
241.09	925	C15H13O3+
242.09	158	C15H14O3+
243.07	29	C14H11O4+
244.07	48	C14H12O4+
245.08	8	C14H13O4+
246.08	1	C14H14O4+
246.11	1	C18H14O+
247.1	2	C14H15O4+
248.19	1	C16H24O2+
249.09	6	C17H13O2+
250.1	2	C17H14O2+
251.09	2	C13H15O5+
252.08	1	C16H12O3+
252.09	2	C20H12+
253.09	17	C16H13O3+
254.09	10	C16H14O3+
255.1	549	C16H15O3+
256.11	85	C16H16O3+
257.1	19	C19H13O+
258.1	4	C19H14O+
259.11	8	C19H15O+
261.1	2	C18H13O2+
262.1	2	C18H14O2+
263.1	4	C18H15O2+
265.1	6	C21H13+
267.1	3	C17H15O3+
268.09	2	C20H12O+
269.1	6	C20H13O+
271.11	6	C20H15O+
272.12	2	C20H16O+
273.12	6	C20H17O+
274.12	2	C16H18O4+
275.11	7	C19H15O2+
276.12	3	C19H16O2+
277.12	5	C19H17O2+
281.1	3	C21H13O+
283.11	17	C21H15O+
284.1	6	C17H16O4+
285.1	7	C20H13O2+
286.1	10	C20H14O2+
287.11	26	C20H15O2+
288.11	9	C20H16O2+
289.12	12	C20H17O2+
290.13	5	C20H18O2+
291.12	6	C16H19O5+
291.14	3	C16H19O5+
293.11	2	C19H17O3+
295.11	3	C22H15O+
296.12	2	C22H16O+
297.09	7	C21H13O2+
299.11	15	C21H15O2+
300.1	6	C17H16O5+
301.12	61	C21H17O2+
302.12	19	C17H18O5+
303.13	46	C17H19O5+
304.13	10	C17H20O5+
305.12	13	C20H17O3+
306.12	11	C20H18O3+
307.13	6	C20H19O3+
308.14	2	C20H20O3+
311.11	13	C22H15O2+
312.11	7	C22H16O2+
313.12	12	C22H17O2+
314.1	14	C21H14O3+
315.11	44	C25H15+
316.14	147	C22H20O2+
317.12	114	C21H17O3+
318.12	32	C21H18O3+
319.13	331	C21H19O3+
320.13	80	C24H16O+
321.12	10	C24H17O+
322.12	11	C20H18O4+
327.09	2	C25H11O+
327.1	2	C22H15O3+
328.11	2	C22H16O3+
329.12	50	C22H17O3+
330.12	26	C22H18O3+
331.13	34	C22H19O3+
332.14	43	C22H20O3+
333.11	185	C21H17O4+
334.12	41	C21H18O4+
335.13	105	C21H19O4+
336.13	23	C21H20O4+
337.13	3	C24H17O2+
345.11	16	C22H17O4+
346.12	6	C22H18O4+
347.13	57	C22H19O4+
348.13	69	C22H20O4+
349.14	17	C22H21O4+
350.14	3	C25H18O2+
363.13	2	C22H19O5+
377.16	3	C27H21O2+
381.15	3	C26H21O3+
393.15	3	C27H21O3+
395.16	19	C27H23O3+
396.18	3	C27H24O3+
397.16	2	C26H21O4+
405.15	6	C28H21O3+
406.15	2	C28H22O3+
411.16	3	C27H23O4+
413.17	9	C27H25O4+
414.17	4	C26H22O5+
423.16	98	C28H23O4+
424.16	30	C28H24O4+
425.16	6	C28H25O4+
439.16	33	C28H23O5+
440.16	8	C28H24O5+
441.17	186	C28H25O5+
