Mass spectrum: Marchantin J; LC-ESI-QTOF; MS2; CE: 34.0381325; [M+H]+
Name: Marchantin J
Name: OTBAZAYHHTYKFG-UHFFFAOYSA-N
Name: 8-methoxy-2,15-dioxapentacyclo[22.2.2.13,7.110,14.016,21]triaconta-1(26),3(30),4,6,10(29),11,13,16(21),17,19,24,27-dodecaene-4,5,17,18-tetrol
Class: Lignane
Formula: C29H26O7
Exact mass: 486.168
SMILES: COC1CC2=CC(=CC=C2)OC3=C(CCC4=CC=C(C=C4)OC5=C(C(=CC1=C5)O)O)C=CC(=C3O)O
InChI: InChI=1S/C29H26O7/c1-34-25-14-18-3-2-4-22(13-18)36-29-19(9-12-23(30)28(29)33)8-5-17-6-10-21(11-7-17)35-26-16-20(25)15-24(31)27(26)32/h2-4,6-7,9-13,15-16,25,30-33H,5,8,14H2,1H3
Instrument: Bruker MicrOTOF-Q
Instrument type: LC-ESI-QTOF
Ms type: MS2
Ion mode: POSITIVE
Ionization: ESI
Collision energy: 34.0381325
Fragmentation mode: CID
Column name: ACQUITY UPLC HSS T3 Column
Retention time: 9.382 min
Base peak: 487.1751
Precursor m/z: 487.1751
Precursor type: [M+H]+
m/z	relative intensity	assigned
117.07	3	C9H9+
119.05	5	C8H7O+
121.07	16	CH13O6+
123.04	18	C7H7O2+
128.06	3	C10H8+
129.07	4	C10H9+
131.05	7	C9H7O+
133.03	3	C8H5O2+
135.04	28	C8H7O2+
136.05	27	C8H8O2+
137.06	29	C8H9O2+
139.04	51	C7H7O3+
140.04	12	C7H8O3+
141.06	8	C7H9O3+
142.08	2	C11H10+
143.09	5	C4H15O5+
144.06	3	C3H12O6+
145.07	4	C3H13O6+
146.07	2	C10H10O+
147.04	5	C9H7O2+
149.06	10	C9H9O2+
151.04	9	C8H7O3+
152.05	6	C8H8O3+
153.06	62	C8H9O3+
154.06	8	C8H10O3+
155.04	15	C7H7O4+
155.09	12	C5H15O5+
157.06	6	C11H9O+
158.07	4	C11H10O+
159.08	4	C11H11O+
161.06	6	C10H9O2+
163.04	5	C9H7O3+
165.06	33	C9H9O3+
166.07	26	C9H10O3+
167.08	22	C13H11+
168.06	11	C5H12O6+
169.06	38	C12H9O+
170.07	9	C12H10O+
171.08	12	C12H11O+
172.09	6	C12H12O+
173.06	5	C11H9O2+
175.04	2	C10H7O3+
175.08	4	C4H15O7+
175.14	2	C9H19O3+
177.08	2	C7H13O5+
178.08	7	C14H10+
179.09	20	C7H15O5+
181.07	56	C6H13O6+
182.07	22	C13H10O+
183.08	110	C13H11O+
184.08	21	C9H12O4+
185.1	13	C6H17O6+
186.06	7	C12H10O2+
187.08	14	C5H15O7+
187.16	2	C7H23O5+
188.09	2	C5H16O7+
193.07	13	C7H13O6+
194.08	11	C7H14O6+
195.08	42	C14H11O+
196.05	50	C13H8O2+
197.06	105	C13H9O2+
198.07	42	C13H10O2+
199.08	62	C6H15O7+
200.08	15	C13H12O2+
201.09	16	C13H13O2+
201.16	3	C15H21+
202.09	4	C9H14O5+
204.09	2	C16H12+
205.08	4	C12H13O3+
206.07	5	C15H10O+
207.08	20	C15H11O+
208.08	10	C11H12O4+
209.07	42	C7H13O7+
210.07	33	C14H10O2+
211.08	202	C7H15O7+
212.08	79	C14H12O2+
213.08	119	C10H13O5+
214.07	26	C13H10O3+
215.07	613	C13H11O3+
216.07	83	C9H12O6+
217.08	24	C13H13O3+
219.08	3	C16H11O+
220.08	3	C12H12O4+
221.06	5	C15H9O2+
221.08	3	C12H13O4+
222.07	5	C15H10O2+
223.08	57	C8H15O7+
224.08	78	C15H12O2+
225.09	99	C15H13O2+
226.07	86	C14H10O3+
227.07	227	C14H11O3+
228.08	91	C14H12O3+
229.09	644	C14H13O3+
230.09	119	C14H14O3+
231.09	22	C10H15O6+
232.1	3	C10H16O6+
235.08	16	C9H15O7+
235.17	5	C15H23O2+
236.08	17	C16H12O2+
237.09	27	C16H13O2+
238.09	14	C12H14O5+
239.08	111	C19H11+
240.08	251	C15H12O3+
241.09	357	C15H13O3+
242.08	121	C11H14O6+
243.07	160	C14H11O4+
244.08	43	C14H12O4+
245.08	46	C14H13O4+
246.09	14	C14H14O4+
249.09	4	C17H13O2+
251.07	7	C16H11O3+
252.08	25	C16H12O3+
253.09	62	C16H13O3+
254.09	138	C16H14O3+
255.1	222	C16H15O3+
256.08	518	C15H12O4+
256.96	3	C12HO7+
257.08	220	C15H13O4+
258.09	64	C15H14O4+
259.1	122	C15H15O4+
260.1	18	C15H16O4+
263.09	3	C14H15O5+
265.09	8	C17H13O3+
266.1	5	C17H14O3+
267.1	49	C17H15O3+
268.1	13	C13H16O6+
269.08	118	C16H13O4+
270.09	999	C16H14O4+
271.1	329	C16H15O4+
272.1	54	C16H16O4+
273.11	22	C16H17O4+
274.11	5	C12H18O7+
275.16	11	C17H23O3+
276.08	3	C18H12O3+
277.18	26	C17H25O3+
278.18	4	C13H26O6+
279.1	6	C18H15O3+
283.1	12	C17H15O4+
284.1	4	C17H16O4+
285.11	452	C17H17O4+
286.12	86	C17H18O4+
287.11	16	C13H19O7+
289.12	4	C20H17O2+
291.12	2	C16H19O5+
292.1	3	C15H16O6+
293.12	5	C19H17O3+
295.09	6	C18H15O4+
297.1	6	C14H17O7+
298.09	4	C17H14O5+
299.1	14	C21H15O2+
300.08	2	C20H12O3+
301.12	5	C21H17O2+
302.1	8	C20H14O3+
303.11	6	C24H15+
304.11	6	C20H16O3+
305.13	5	C24H17+
306.08	2	C15H14O7+
308.12	2	C23H16O+
311.11	7	C15H19O7+
312.11	5	C22H16O2+
314.1	7	C21H14O3+
315.11	11	C25H15+
316.11	8	C21H16O3+
317.11	25	C21H17O3+
318.1	7	C24H14O+
319.13	4	C21H19O3+
320.1	7	C20H16O4+
321.11	7	C20H17O4+
323.14	2	C24H19O+
324.12	2	C16H20O7+
327.13	2	C19H19O5+
328.11	3	C22H16O3+
329.1	7	C18H17O6+
330.12	6	C22H18O3+
331.11	5	C25H15O+
332.11	7	C21H16O4+
333.11	33	C21H17O4+
334.11	15	C17H18O7+
335.13	162	C21H19O4+
336.13	47	C21H20O4+
337.13	4	C17H21O7+
342.09	3	C22H14O4+
345.12	10	C26H17O+
347.13	19	C22H19O4+
348.12	10	C18H20O7+
349.11	18	C21H17O5+
350.12	4	C21H18O5+
358.11	4	C19H18O7+
359.1	4	C26H15O2+
360.1	11	C22H16O5+
361.11	62	C22H17O5+
362.11	25	C29H14+
363.12	31	C22H19O5+
364.12	5	C29H16+
365.13	5	C29H17+
373.14	2	C24H21O4+
375.12	9	C23H19O5+
376.11	3	C26H16O3+
376.13	6	C23H20O5+
377.12	10	C26H17O3+
378.11	5	C22H18O6+
379.12	85	C22H19O6+
380.13	18	C22H20O6+
381.13	25	C29H17O+
382.14	4	C22H22O6+
385.14	3	C25H21O4+
391.13	3	C27H19O3+
393.14	11	C23H21O6+
394.14	9	C23H22O6+
395.15	2	C23H23O6+
397.14	6	C26H21O4+
398.15	2	C26H22O4+
403.13	2	C28H19O3+
409.14	5	C27H21O4+
409.15	3	C27H21O4+
410.13	2	C23H22O7+
419.17	2	C29H23O3+
423.15	3	C24H23O7+
425.14	9	C27H21O5+
426.15	2	C27H22O5+
427.16	5	C27H23O5+
435.13	3	C28H19O5+
437.16	7	C25H25O7+
439.16	6	C28H23O5+
440.16	3	C28H24O5+
441.18	7	C28H25O5+
451.16	9	C29H23O5+
452.15	5	C29H24O5+
453.13	6	C28H21O6+
454.14	8	C28H22O6+
455.15	6	C28H23O6+
456.16	3	C28H24O6+
457.14	3	C27H21O7+
469.16	60	C29H25O6+
470.17	21	C29H26O6+
472.16	13	C28H24O7+
485.16	29	C29H25O7+
486.16	18	C29H26O7+
487.17	26	C29H27O7+
