Mass spectrum: Marchantin G 2; LC-ESI-QTOF; MS2; CE: 31.6361675; [M+H]+
Name: Marchantin G 2
Name: Marchantin G
Name: 4,5,17-trihydroxy-2,15-dioxapentacyclo[22.2.2.13,7.110,14.016,21]triaconta-1(26),3(30),4,6,10(29),11,13,16(21),17,19,24,27-dodecaen-8-one
Class: Lignane
Formula: C28H22O6
Exact mass: 454.142
SMILES: C1CC2=C(C(=CC=C2)O)OC3=CC=CC(=C3)CC(=O)C4=CC(=C(C(=C4)O)O)OC5=CC=C1C=C5
InChI: InChI=1S/C28H22O6/c29-23-6-2-4-19-10-7-17-8-11-21(12-9-17)33-26-16-20(15-25(31)27(26)32)24(30)14-18-3-1-5-22(13-18)34-28(19)23/h1-6,8-9,11-13,15-16,29,31-32H,7,10,14H2
Instrument: Bruker MicrOTOF-Q
Instrument type: LC-ESI-QTOF
Ms type: MS2
Ion mode: POSITIVE
Ionization: ESI
Collision energy: 31.6361675
Fragmentation mode: CID
Column name: ACQUITY UPLC HSS T3 Column
Retention time: 7.593 min
Base peak: 455.1489
Precursor m/z: 455.1489
Precursor type: [M+H]+
m/z	relative intensity	assigned
121.06	6	C8H9O+
123.04	34	C7H7O2+
134.06	4	C5H10O4+
135.04	17	C8H7O2+
136.05	6	C8H8O2+
139.04	8	C7H7O3+
163.04	3	C9H7O3+
164.07	4	C6H12O5+
165.07	23	C13H9+
167.09	6	C6H15O5+
168.06	5	C5H12O6+
169.06	11	C12H9O+
172.09	3	C12H12O+
175.07	4	C11H11O2+
179.08	11	C14H11+
180.05	5	C13H8O+
181.06	54	C13H9O+
183.08	51	C13H11O+
184.09	11	C13H12O+
185.06	7	C12H9O2+
190.06	3	C11H10O3+
191.09	6	C8H15O5+
192.09	6	C15H12+
193.06	16	C14H9O+
194.07	14	C14H10O+
195.08	22	C14H11O+
197.06	58	C13H9O2+
198.06	14	C13H10O2+
199.08	36	C13H11O2+
204.09	8	C16H12+
206.07	10	C15H10O+
207.08	27	C15H11O+
209.06	38	C14H9O2+
210.07	71	C14H10O2+
211.08	185	C14H11O2+
212.08	34	C14H12O2+
213.05	599	C13H9O3+
214.06	105	C13H10O3+
215.07	77	C13H11O3+
216.08	14	C13H12O3+
218.07	7	C16H10O+
221.06	16	C15H9O2+
222.07	16	C15H10O2+
223.08	64	C15H11O2+
224.09	38	C15H12O2+
226.06	999	C14H10O3+
227.07	365	C14H11O3+
228.07	65	C10H12O6+
229.09	214	C14H13O3+
230.09	42	C14H14O3+
231.09	9	C10H15O6+
235.08	22	C16H11O2+
236.08	17	C16H12O2+
236.15	19	C18H20+
238.06	20	C15H10O3+
239.07	562	C15H11O3+
240.08	251	C15H12O3+
241.08	102	C15H13O3+
242.08	22	C11H14O6+
250.1	8	C17H14O2+
251.07	15	C16H11O3+
253.09	89	C16H13O3+
254.09	17	C16H14O3+
259.1	7	C15H15O4+
263.07	8	C17H11O3+
266.11	4	C21H14+
269.1	10	C13H17O6+
271.11	17	C20H15O+
273.09	6	C19H13O2+
274.1	7	C19H14O2+
275.11	10	C19H15O2+
280.13	19	C15H20O5+
285.09	16	C20H13O2+
291.1	5	C19H15O3+
294.14	3	C23H18+
298.1	13	C21H14O2+
299.11	12	C21H15O2+
301.08	13	C20H13O3+
303.1	57	C20H15O3+
304.11	27	C20H16O3+
307.09	5	C19H15O4+
313.09	21	C21H13O3+
314.08	8	C17H14O6+
315.1	43	C21H15O3+
316.1	24	C17H16O6+
317.12	61	C21H17O3+
319.1	18	C20H15O4+
320.11	10	C20H16O4+
321.11	11	C20H17O4+
327.11	10	C26H15+
329.09	25	C25H13O+
331.1	73	C21H15O4+
332.1	15	C21H16O4+
333.11	78	C21H17O4+
334.11	16	C21H18O4+
335.09	13	C20H15O5+
336.09	12	C27H12+
337.1	6	C27H13+
344.1	13	C22H16O4+
346.09	16	C21H14O5+
347.09	212	C21H15O5+
348.09	51	C28H12+
349.11	86	C21H17O5+
350.11	20	C28H14+
362.12	38	C22H18O5+
363.11	12	C25H15O3+
409.14	9	C27H21O4+
426.15	4	C27H22O5+
437.14	14	C28H21O5+
453.14	31	C28H21O6+
454.15	16	C28H22O6+
455.15	751	C28H23O6+
