Mass spectrum: Marchantin G 3; LC-ESI-QTOF; MS2; CE: 31.6361675; [M+H]+
Name: Marchantin G 3
Name: Marchantin G
Name: 4,5,17-trihydroxy-2,15-dioxapentacyclo[22.2.2.13,7.110,14.016,21]triaconta-1(26),3(30),4,6,10(29),11,13,16(21),17,19,24,27-dodecaen-8-one
Class: Lignane
Formula: C28H22O6
Exact mass: 454.142
SMILES: C1CC2=C(C(=CC=C2)O)OC3=CC=CC(=C3)CC(=O)C4=CC(=C(C(=C4)O)O)OC5=CC=C1C=C5
InChI: InChI=1S/C28H22O6/c29-23-6-2-4-19-10-7-17-8-11-21(12-9-17)33-26-16-20(15-25(31)27(26)32)24(30)14-18-3-1-5-22(13-18)34-28(19)23/h1-6,8-9,11-13,15-16,29,31-32H,7,10,14H2
Instrument: Bruker MicrOTOF-Q
Instrument type: LC-ESI-QTOF
Ms type: MS2
Ion mode: POSITIVE
Ionization: ESI
Collision energy: 31.6361675
Fragmentation mode: CID
Column name: ACQUITY UPLC HSS T3 Column
Retention time: 8.215 min
Base peak: 455.1489
Precursor m/z: 455.1489
Precursor type: [M+H]+
m/z	relative intensity	assigned
135.04	3	C8H7O2+
136.05	1	C8H8O2+
139.03	1	C3H7O6+
141.07	2	C11H9+
145.1	4	C11H13+
151.05	2	C12H7+
155.08	7	C12H11+
159.08	5	C11H11O+
161.06	2	C10H9O2+
164.07	12	C6H12O5+
167.08	2	C13H11+
168.06	3	C5H12O6+
169.06	5	C12H9O+
174.1	2	C12H14O+
179.09	4	C7H15O5+
180.08	5	C10H12O3+
181.07	10	C6H13O6+
182.07	5	C13H10O+
183.08	33	C13H11O+
184.08	9	C9H12O4+
186.07	5	C12H10O2+
192.09	7	C15H12+
193.09	3	C11H13O3+
194.07	3	C14H10O+
195.08	5	C14H11O+
196.07	11	C10H12O4+
197.06	19	C13H9O2+
199.07	21	C13H11O2+
201.09	13	C13H13O2+
203.18	4	C15H23+
207.08	3	C15H11O+
208.09	4	C15H12O+
209.06	11	C14H9O2+
210.07	14	C14H10O2+
211.08	101	C14H11O2+
212.08	38	C14H12O2+
213.08	60	C10H13O5+
215.07	93	C13H11O3+
216.07	11	C9H12O6+
218.07	2	C16H10O+
221.06	5	C15H9O2+
224.08	10	C15H12O2+
225.08	37	C11H13O5+
226.06	254	C14H10O3+
227.07	230	C14H11O3+
228.07	50	C10H12O6+
229.09	999	C14H13O3+
230.09	156	C14H14O3+
231.09	12	C10H15O6+
236.1	3	C13H16O4+
237.09	4	C16H13O2+
239.07	43	C15H11O3+
240.07	34	C11H12O6+
241.08	51	C15H13O3+
242.08	24	C11H14O6+
243.07	4	C14H11O4+
244.09	3	C18H12O+
251.08	2	C20H11+
253.08	27	C16H13O3+
254.09	17	C16H14O3+
255.09	13	C12H15O6+
256.09	10	C19H12O+
263.07	2	C17H11O3+
266.12	1	C14H18O5+
268.1	7	C13H16O6+
269.1	4	C13H17O6+
271.1	4	C16H15O4+
280.13	15	C15H20O5+
285.1	3	C20H13O2+
287.11	4	C20H15O2+
290.15	2	C17H22O4+
291.13	3	C16H19O5+
307.11	3	C23H15O+
313.09	3	C21H13O3+
315.11	4	C25H15+
316.1	6	C17H16O6+
317.11	12	C21H17O3+
318.11	12	C17H18O6+
319.13	48	C21H19O3+
320.13	15	C17H20O6+
330.11	9	C18H18O6+
333.11	5	C21H17O4+
342.12	1	C23H18O3+
345.08	6	C21H13O5+
347.1	11	C25H15O2+
348.11	14	C25H16O2+
349.11	15	C21H17O5+
350.11	4	C28H14+
351.12	2	C21H19O5+
355.14	2	C24H19O3+
360.09	2	C22H16O5+
363.09	16	C21H15O6+
367.13	4	C25H19O3+
373.15	1	C24H21O4+
383.14	2	C22H23O6+
398.17	7	C26H22O4+
408.16	13	C27H20O4+
409.15	9	C27H21O4+
410.16	5	C27H22O4+
413.14	2	C26H21O5+
425.14	3	C27H21O5+
453.13	62	C28H21O6+
454.16	40	C28H22O6+
455.15	72	C28H23O6+
