Mass spectrum: (20S)-14-oxapentacyclo[20.2.2.210,13.115,19.02,7]nonacosa-1(24),2(7),3,5,10(29),11,13(28),15,17,19(27),22,25-dodecaene-5,16,20,24-tetrol; LC-ESI-QTOF; MS2; CE: 30.58772; [M+H]+
Name: (20S)-14-oxapentacyclo[20.2.2.210,13.115,19.02,7]nonacosa-1(24),2(7),3,5,10(29),11,13(28),15,17,19(27),22,25-dodecaene-5,16,20,24-tetrol
Name: Maruchantin E
Class: Lignane
Formula: C28H24O5
Exact mass: 440.162
SMILES: C1CC2=C(C=CC(=C2)O)C3=C(C=C(C[C@@H](C4=CC(=C(C=C4)O)OC5=CC=C1C=C5)O)C=C3)O
InChI: InChI=1S/C28H24O5/c29-21-7-11-23-19(15-21)5-1-17-2-8-22(9-3-17)33-28-16-20(6-12-25(28)30)26(31)13-18-4-10-24(23)27(32)14-18/h2-4,6-12,14-16,26,29-32H,1,5,13H2/t26-/m0/s1
Instrument: Bruker MicrOTOF-Q
Instrument type: LC-ESI-QTOF
Ms type: MS2
Ion mode: POSITIVE
Ionization: ESI
Collision energy: 30.58772
Fragmentation mode: CID
Column name: ACQUITY UPLC HSS T3 Column
Retention time: 10.273 min
Base peak: 441.1697
Precursor m/z: 441.1697
Precursor type: [M+H]+
m/z	relative intensity	assigned
107.04	4	C3H7O4+
115.05	4	C9H7+
117.07	7	C9H9+
119.05	10	C8H7O+
120.05	10	C8H8O+
121.06	69	C8H9O+
122.07	6	C8H10O+
123.04	38	C7H7O2+
124.04	3	C3H8O5+
125.02	7	C6H5O3+
128.06	5	C10H8+
129.07	4	C10H9+
130.07	4	C6H10O3+
131.05	8	C9H7O+
131.08	4	C10H11+
132.05	5	C9H8O+
133.06	33	C9H9O+
134.07	6	C9H10O+
135.04	43	C8H7O2+
136.05	24	C8H8O2+
137.06	74	C8H9O2+
138.06	7	C8H10O2+
139.03	3	C9H3N2+
141.07	6	C11H9+
142.07	3	C7H10O3+
144.06	3	C10H8O+
145.06	28	C10H9O+
146.07	11	C10H10O+
147.05	6	C9H7O2+
149.06	17	C9H9O2+
151.05	4	C12H7+
152.06	7	C12H8+
153.07	16	C12H9+
154.07	5	C8H10O3+
155.08	16	C12H11+
157.06	16	C11H9O+
158.07	3	C11H10O+
159.08	6	C11H11O+
161.06	11	C10H9O2+
162.06	5	C10H10O2+
163.05	3	C13H7+
164.06	4	C13H8+
165.07	93	C13H9+
166.08	32	C13H10+
167.08	59	C13H11+
168.06	21	C12H8O+
169.06	32	C12H9O+
170.07	11	C12H10O+
171.08	31	C12H11O+
172.08	5	C8H12O4+
173.06	4	C11H9O2+
173.09	5	C12H13O+
176.06	6	C14H8+
177.07	15	C14H9+
178.08	22	C14H10+
179.08	35	C14H11+
180.09	7	C14H12+
181.07	186	C13H9O+
182.07	55	C13H10O+
183.08	291	C13H11O+
184.08	39	C9H12O4+
185.09	56	C13H13O+
186.08	3	C9H14O4+
187.07	18	C12H11O2+
188.08	3	C12H12O2+
189.06	3	C11H9O3+
191.08	18	C15H11+
192.09	9	C15H12+
193.09	43	C11H13O3+
194.07	73	C14H10O+
195.08	178	C14H11O+
196.06	87	C13H8O2+
197.06	271	C13H9O2+
198.07	96	C13H10O2+
199.07	465	C13H11O2+
200.08	88	C13H12O2+
201.09	33	C13H13O2+
202.09	7	C9H14O5+
203.08	14	C16H11+
204.09	3	C16H12+
205.07	4	C15H9O+
206.08	10	C15H10O+
207.08	64	C15H11O+
208.09	47	C15H12O+
209.07	186	C14H9O2+
210.07	191	C14H10O2+
211.08	988	C14H11O2+
212.08	556	C14H12O2+
213.09	808	C14H13O2+
214.09	114	C10H14O5+
215.07	477	C13H11O3+
216.07	62	C13H12O3+
217.08	7	C13H13O3+
219.08	17	C16H11O+
220.09	12	C16H12O+
221.1	61	C16H13O+
222.09	29	C12H14O4+
223.08	159	C15H11O2+
224.08	496	C15H12O2+
225.09	829	C15H13O2+
226.09	321	C11H14O5+
227.07	660	C14H11O3+
228.08	488	C14H12O3+
229.08	837	C14H13O3+
230.09	130	C14H14O3+
231.09	16	C17H11O+
234.08	3	C13H14O4+
235.08	13	C16H11O2+
236.08	6	C16H12O2+
237.09	98	C16H13O2+
238.1	51	C16H14O2+
239.11	999	C16H15O2+
240.09	274	C19H12+
241.09	632	C15H13O3+
242.09	128	C15H14O3+
243.08	29	C18H11O+
244.08	6	C14H12O4+
245.09	4	C18H13O+
247.07	3	C17H11O2+
249.09	6	C17H13O2+
251.1	3	C17H15O2+
253.08	28	C16H13O3+
254.09	18	C16H14O3+
255.1	412	C16H15O3+
256.1	84	C16H16O3+
257.1	11	C19H13O+
258.1	6	C19H14O+
259.1	6	C15H15O4+
260.1	4	C15H16O4+
261.09	5	C18H13O2+
262.1	5	C18H14O2+
263.1	5	C18H15O2+
265.1	7	C21H13+
268.09	4	C20H12O+
269.09	13	C20H13O+
270.1	4	C20H14O+
271.11	5	C20H15O+
272.09	6	C19H12O2+
273.12	15	C20H17O+
274.13	4	C20H18O+
275.11	8	C19H15O2+
276.11	3	C19H16O2+
277.11	5	C15H17O5+
281.09	4	C21H13O+
283.11	31	C21H15O+
284.11	9	C17H16O4+
285.12	7	C21H17O+
286.1	15	C20H14O2+
287.11	24	C20H15O2+
288.11	12	C20H16O2+
289.11	12	C16H17O5+
290.11	3	C23H14+
291.12	8	C16H19O5+
293.1	8	C22H13O+
294.1	5	C22H14O+
295.11	5	C22H15O+
296.12	4	C22H16O+
297.09	8	C21H13O2+
298.1	5	C21H14O2+
299.11	36	C21H15O2+
300.11	12	C21H16O2+
301.12	85	C21H17O2+
302.13	29	C21H18O2+
303.13	31	C17H19O5+
304.12	7	C24H16+
305.11	16	C20H17O3+
306.12	6	C20H18O3+
307.11	4	C23H15O+
311.11	34	C22H15O2+
312.11	16	C22H16O2+
313.12	19	C22H17O2+
314.11	17	C25H14+
315.1	56	C21H15O3+
316.13	38	C18H20O5+
317.12	86	C21H17O3+
318.12	24	C21H18O3+
319.13	243	C21H19O3+
320.13	71	C24H16O+
321.13	12	C24H17O+
322.12	7	C20H18O4+
327.1	4	C22H15O3+
329.12	62	C22H17O3+
330.12	54	C22H18O3+
331.12	47	C25H15O+
332.14	38	C22H20O3+
333.11	299	C21H17O4+
334.11	76	C21H18O4+
335.13	119	C21H19O4+
336.13	23	C21H20O4+
345.11	3	C22H17O4+
346.12	4	C22H18O4+
347.13	130	C22H19O4+
348.13	306	C22H20O4+
349.14	77	C22H21O4+
350.14	12	C25H18O2+
395.17	8	C27H23O3+
396.16	3	C27H24O3+
405.15	4	C28H21O3+
411.15	3	C27H23O4+
413.16	4	C27H25O4+
423.16	46	C28H23O4+
424.16	7	C28H24O4+
425.13	3	C27H21O5+
439.15	40	C28H23O5+
440.16	18	C28H24O5+
441.17	86	C28H25O5+
443.17	4	C27H25NO5+
