Mass spectrum: 2-oxapentacyclo[21.2.2.13,7.110,14.015,20]nonacosa-1(25),3,5,7(29),10(28),11,13,15(20),16,18,23,26-dodecaene-4,13,18-triol; LC-ESI-QTOF; MS2; CE: 29.3881025; [M+H]+
Name: 2-oxapentacyclo[21.2.2.13,7.110,14.015,20]nonacosa-1(25),3,5,7(29),10(28),11,13,15(20),16,18,23,26-dodecaene-4,13,18-triol
Name: UTQZPYPEAXCDNU-UHFFFAOYSA-N
Class: Lignane
Formula: C28H24O4
Exact mass: 424.167
SMILES: C1CC2=C(C=CC(=C2)O)C3=C(C=CC(=C3)CCC4=CC(=C(C=C4)O)OC5=CC=C1C=C5)O
InChI: InChI=1S/C28H24O4/c29-22-9-12-24-21(17-22)8-3-18-4-10-23(11-5-18)32-28-16-20(7-14-27(28)31)2-1-19-6-13-26(30)25(24)15-19/h4-7,9-17,29-31H,1-3,8H2
Instrument: Bruker MicrOTOF-Q
Instrument type: LC-ESI-QTOF
Ms type: MS2
Ion mode: POSITIVE
Ionization: ESI
Collision energy: 29.3881025
Fragmentation mode: CID
Column name: ACQUITY UPLC HSS T3 Column
Retention time: 11.201 min
Base peak: 425.1747
Precursor m/z: 425.1747
Precursor type: [M+H]+
m/z	relative intensity	assigned
107.05	3	C7H7O+
115.05	2	C9H7+
117.07	4	C9H9+
119.05	5	C8H7O+
120.06	14	C8H8O+
121.06	102	C8H9O+
122.07	8	C8H10O+
127.05	2	C10H7+
128.06	2	C10H8+
129.07	2	C10H9+
130.07	3	C6H10O3+
131.05	11	C9H7O+
132.05	4	C9H8O+
133.06	22	C9H9O+
134.07	1	C9H10O+
135.04	7	C8H7O2+
137.06	4	C8H9O2+
141.07	6	C11H9+
142.07	3	C7H10O3+
143.08	4	C11H11+
145.06	18	C10H9O+
146.07	4	C10H10O+
147.08	2	C10H11O+
152.06	7	C12H8+
153.07	12	C12H9+
155.09	9	C12H11+
156.09	2	C12H12+
157.07	12	C11H9O+
158.07	3	C11H10O+
159.08	2	C11H11O+
161.06	2	C10H9O2+
161.13	4	C12H17+
163.05	2	C13H7+
163.15	2	C12H19+
164.06	1	C13H8+
165.07	88	C13H9+
166.08	23	C13H10+
167.09	60	C13H11+
168.09	8	C13H12+
169.07	13	C12H9O+
170.07	10	C12H10O+
171.08	17	C12H11O+
172.08	4	C8H12O4+
173.06	2	C11H9O2+
176.06	3	C14H8+
177.07	24	C14H9+
178.08	26	C14H10+
179.08	25	C14H11+
180.09	5	C14H12+
181.07	55	C13H9O+
182.07	19	C13H10O+
183.08	131	C13H11O+
184.08	35	C9H12O4+
185.09	48	C13H13O+
186.09	6	C9H14O4+
187.07	1	C12H11O2+
188.08	1	C12H12O2+
189.16	2	C14H21+
191.09	7	C15H11+
192.09	7	C15H12+
193.07	48	C14H9O+
194.07	47	C14H10O+
195.08	204	C14H11O+
195.99	1	C15O+
196.09	117	C14H12O+
197.06	214	C13H9O2+
198.07	91	C13H10O2+
199.08	371	C13H11O2+
200.08	53	C13H12O2+
201.08	9	C13H13O2+
201.16	1	C15H21+
202.08	3	C16H10+
203.09	11	C16H11+
204.09	4	C16H12+
206.07	6	C15H10O+
207.08	33	C15H11O+
208.09	34	C15H12O+
209	1	C16HO+
209.1	149	C15H13O+
210.07	125	C14H10O2+
211.08	964	C14H11O2+
211.98	3	C15O2+
212.08	744	C14H12O2+
213.09	912	C14H13O2+
214.09	133	C14H14O2+
215.1	13	C14H15O2+
215.18	1	C16H23+
219.08	13	C16H11O+
219.17	18	C15H23O+
220.09	4	C16H12O+
221.1	62	C16H13O+
222.1	33	C16H14O+
223.08	86	C15H11O2+
224.08	317	C15H12O2+
225.09	999	C15H13O2+
226.1	231	C15H14O2+
227.09	42	C18H11+
228.08	13	C14H12O3+
229.09	2	C14H13O3+
231.08	2	C17H11O+
233.09	1	C17H13O+
234.07	1	C16H10O2+
235.07	5	C16H11O2+
236.08	2	C16H12O2+
237.09	66	C16H13O2+
238.1	54	C16H14O2+
239.11	662	C16H15O2+
240.11	114	C16H16O2+
241.12	7	C16H17O2+
242.09	1	C15H14O3+
243.1	2	C15H15O3+
245.08	1	C14H13O4+
248.09	3	C17H12O2+
249.09	5	C17H13O2+
250.09	3	C17H14O2+
252.09	2	C20H12+
253.11	1	C17H17O2+
255.11	2	C20H15+
257.1	4	C19H13O+
259.11	3	C19H15O+
261.09	9	C18H13O2+
262.1	3	C18H14O2+
263.09	2	C21H11+
265.1	2	C21H13+
267.12	10	C21H15+
268.12	2	C21H16+
269.1	3	C20H13O+
270.1	8	C20H14O+
271.1	5	C16H15O4+
272.12	3	C20H16O+
273.1	4	C19H13O2+
274.1	3	C19H14O2+
275.11	4	C19H15O2+
277.11	6	C19H17O2+
278.11	3	C22H14+
280.09	1	C21H12O+
283.11	4	C21H15O+
284.08	5	C20H12O2+
285.12	20	C21H17O+
286.13	4	C21H18O+
287.1	4	C20H15O2+
288.12	8	C20H16O2+
289.12	13	C20H17O2+
290.11	3	C23H14+
291.11	2	C23H15+
292.1	1	C19H16O3+
294.1	2	C22H14O+
295.11	18	C22H15O+
296.11	5	C18H16O4+
297.11	5	C18H17O4+
298.1	15	C21H14O2+
299.11	22	C21H15O2+
300.11	10	C21H16O2+
301.12	36	C21H17O2+
302.12	10	C21H18O2+
303.13	50	C21H19O2+
304.14	11	C21H20O2+
305.12	8	C20H17O3+
306.12	8	C20H18O3+
307.12	1	C23H15O+
311.11	4	C22H15O2+
312.11	1	C22H16O2+
313.12	45	C22H17O2+
314.13	20	C22H18O2+
315.13	14	C22H19O2+
316.14	50	C22H20O2+
317.12	285	C21H17O3+
318.12	85	C21H18O3+
319.13	141	C21H19O3+
320.13	26	C24H16O+
321.14	4	C21H21O3+
329.12	2	C22H17O3+
331.13	135	C22H19O3+
332.14	375	C22H20O3+
333.14	76	C22H21O3+
334.14	13	C25H18O+
379.17	1	C27H23O2+
396.13	1	C26H20O4+
397.18	3	C27H25O3+
407.16	10	C28H23O3+
423.17	3	C28H23O4+
425.17	26	C28H25O4+
