Mass spectrum: 2-oxapentacyclo[21.2.2.13,7.110,14.015,20]nonacosa-1(25),3,5,7(29),10(28),11,13,15(20),16,18,23,26-dodecaene-4,13,18-triol; LC-ESI-QTOF; MS2; CE: 29.3881025; [M+H]+
Name: 2-oxapentacyclo[21.2.2.13,7.110,14.015,20]nonacosa-1(25),3,5,7(29),10(28),11,13,15(20),16,18,23,26-dodecaene-4,13,18-triol
Name: UTQZPYPEAXCDNU-UHFFFAOYSA-N
Class: Lignane
Formula: C28H24O4
Exact mass: 424.167
SMILES: C1CC2=C(C=CC(=C2)O)C3=C(C=CC(=C3)CCC4=CC(=C(C=C4)O)OC5=CC=C1C=C5)O
InChI: InChI=1S/C28H24O4/c29-22-9-12-24-21(17-22)8-3-18-4-10-23(11-5-18)32-28-16-20(7-14-27(28)31)2-1-19-6-13-26(30)25(24)15-19/h4-7,9-17,29-31H,1-3,8H2
Instrument: Bruker MicrOTOF-Q
Instrument type: LC-ESI-QTOF
Ms type: MS2
Ion mode: POSITIVE
Ionization: ESI
Collision energy: 29.3881025
Fragmentation mode: CID
Column name: ACQUITY UPLC HSS T3 Column
Retention time: 10.107 min
Base peak: 425.1747
Precursor m/z: 425.1747
Precursor type: [M+H]+
m/z	relative intensity	assigned
117.06	1	C5H9O3+
119.05	7	C8H7O+
120.05	21	C8H8O+
121.06	31	C8H9O+
122.07	3	C8H10O+
128.06	1	C10H8+
129.06	1	C6H9O3+
131.05	3	C9H7O+
131.09	2	C10H11+
133.06	4	C9H9O+
133.11	1	C6H15NO2+
135.04	5	C8H7O2+
136.05	1	C8H8O2+
137.06	1	C8H9O2+
141.07	1	C11H9+
145.06	4	C10H9O+
146.07	2	C10H10O+
147.04	1	C9H7O2+
148.08	1	C6H12O4+
149.07	1	C8H9N2O+
152.06	5	C12H8+
153.07	2	C12H9+
154.07	1	C8H10O3+
155.08	1	C12H11+
157.07	8	C11H9O+
161.06	1	C10H9O2+
164.06	1	C13H8+
165.07	21	C13H9+
166.08	6	C13H10+
167.09	53	C13H11+
168.09	10	C13H12+
169.07	4	C12H9O+
170.07	6	C12H10O+
171.08	11	C12H11O+
176.06	4	C14H8+
177.07	28	C14H9+
178.08	15	C14H10+
179.08	9	C14H11+
180.06	1	C13H8O+
181.07	30	C13H9O+
182.07	7	C13H10O+
183.08	31	C13H11O+
184.08	6	C9H12O4+
185.1	47	C13H13O+
186.1	6	C13H14O+
187.07	1	C12H11O2+
190.07	1	C11H10O3+
191.08	5	C15H11+
192.06	1	C14H8O+
193.1	25	C15H13+
194.1	6	C11H14O3+
195.08	175	C14H11O+
196.09	42	C14H12O+
197.06	62	C13H9O2+
198.07	69	C13H10O2+
199.08	211	C13H11O2+
200.08	27	C13H12O2+
201.08	5	C13H13O2+
202.08	10	C16H10+
203.09	18	C16H11+
204.09	3	C16H12+
206.07	12	C15H10O+
207.08	18	C15H11O+
208.09	4	C15H12O+
209.09	22	C15H13O+
210.07	61	C14H10O2+
211.08	213	C14H11O2+
212.08	56	C14H12O2+
213.09	999	C14H13O2+
214.1	149	C14H14O2+
215.09	33	C17H11+
216.09	4	C17H12+
217.1	4	C17H13+
219.08	13	C16H11O+
220.09	7	C16H12O+
221.1	116	C16H13O+
222.1	25	C16H14O+
223.08	16	C15H11O2+
224.08	71	C15H12O2+
225.09	324	C15H13O2+
226.09	67	C15H14O2+
227.11	26	C15H15O2+
228.11	5	C15H16O2+
231.07	1	C13H11O4+
235.08	3	C16H11O2+
236.08	1	C16H12O2+
237.09	66	C16H13O2+
238.1	19	C16H14O2+
239.11	933	C16H15O2+
240.11	154	C16H16O2+
241.11	19	C16H17O2+
242.08	1	C18H10O+
244.09	1	C18H12O+
247.1	1	C14H15O4+
248.08	1	C17H12O2+
249.09	2	C17H13O2+
251.1	2	C17H15O2+
253.09	1	C16H13O3+
257.12	1	C16H17O3+
258.11	1	C19H14O+
259.11	2	C19H15O+
261.08	1	C18H13O2+
261.1	2	C18H13O2+
262.1	2	C18H14O2+
263.11	1	C18H15O2+
264.1	1	C18H16O2+
264.12	1	C18H16O2+
265.13	1	C18H17O2+
267.12	1	C21H15+
268.11	2	C17H16O3+
269.1	5	C20H13O+
270.1	3	C20H14O+
271.11	4	C20H15O+
273.09	2	C19H13O2+
275.11	8	C19H15O2+
277.12	3	C19H17O2+
279.14	1	C19H19O2+
281.09	2	C21H13O+
283.11	6	C21H15O+
284.11	2	C17H16O4+
285.12	10	C21H17O+
286.1	5	C20H14O2+
287.11	8	C20H15O2+
288.11	3	C20H16O2+
289.12	4	C20H17O2+
290.09	2	C19H14O3+
291.14	3	C20H19O2+
292.15	1	C20H20O2+
293.09	1	C22H13O+
294.11	1	C22H14O+
295.11	11	C22H15O+
296.12	2	C22H16O+
298.1	7	C21H14O2+
298.17	1	C23H22+
299.11	16	C21H15O2+
300.11	4	C21H16O2+
301.12	17	C21H17O2+
302.11	4	C24H14+
303.14	35	C21H19O2+
304.13	6	C24H16+
305.12	7	C20H17O3+
306.12	6	C20H18O3+
311.11	5	C22H15O2+
312.11	1	C22H16O2+
313.12	25	C22H17O2+
314.13	11	C22H18O2+
315.11	2	C25H15+
315.12	2	C25H15+
316.13	4	C25H16+
317.12	51	C21H17O3+
318.12	14	C21H18O3+
319.13	103	C21H19O3+
320.14	27	C21H20O3+
321.13	2	C24H17O+
322.14	1	C24H18O+
329.11	3	C22H17O3+
331.13	41	C22H19O3+
332.14	21	C22H20O3+
333.14	6	C22H21O3+
347.12	1	C22H19O4+
351.15	1	C22H23O4+
374.12	1	C27H18O2+
397.18	2	C27H25O3+
407.16	6	C28H23O3+
408.18	2	C28H24O3+
423.18	1	C28H23O4+
425.17	25	C28H25O4+
