Mass spectrum: Marchantin G 4; LC-ESI-QTOF; MS2; CE: 31.6361675; [M+H]+
Name: Marchantin G 4
Name: Marchantin G
Name: 4,5,17-trihydroxy-2,15-dioxapentacyclo[22.2.2.13,7.110,14.016,21]triaconta-1(26),3(30),4,6,10(29),11,13,16(21),17,19,24,27-dodecaen-8-one
Class: Lignane
Formula: C28H22O6
Exact mass: 454.142
SMILES: C1CC2=C(C(=CC=C2)O)OC3=CC=CC(=C3)CC(=O)C4=CC(=C(C(=C4)O)O)OC5=CC=C1C=C5
InChI: InChI=1S/C28H22O6/c29-23-6-2-4-19-10-7-17-8-11-21(12-9-17)33-26-16-20(15-25(31)27(26)32)24(30)14-18-3-1-5-22(13-18)34-28(19)23/h1-6,8-9,11-13,15-16,29,31-32H,7,10,14H2
Instrument: Bruker MicrOTOF-Q
Instrument type: LC-ESI-QTOF
Ms type: MS2
Ion mode: POSITIVE
Ionization: ESI
Collision energy: 31.6361675
Fragmentation mode: CID
Column name: ACQUITY UPLC HSS T3 Column
Retention time: 8.773 min
Base peak: 455.1489
Precursor m/z: 455.1489
Precursor type: [M+H]+
m/z	relative intensity	assigned
107.05	1	C7H7O+
115.06	1	C2H11O5+
119.05	1	C8H7O+
121.06	7	C8H9O+
123.04	24	C7H7O2+
124.04	2	C3H8O5+
129.07	1	C10H9+
131.05	1	C9H7O+
133.03	2	C8H5O2+
135.04	14	C8H7O2+
136.05	4	C8H8O2+
137.02	1	C7H5O3+
137.06	2	C8H9O2+
138.02	1	C3H6O6+
139.04	13	C7H7O3+
141.07	3	C11H9+
145.1	1	C11H13+
149.02	1	C8H5O3+
151.04	3	C8H7O3+
152.06	3	C12H8+
153.07	8	C12H9+
155.08	8	C12H11+
157.07	2	C4H13O6+
158.07	2	C11H10O+
159.11	1	C12H15+
160.05	1	C10H8O2+
161.06	1	C10H9O2+
163.04	1	C9H7O3+
163.14	1	C8H19O3+
164.07	3	C6H12O5+
165.07	15	C13H9+
166.07	4	C9H10O3+
167.09	6	C6H15O5+
168.06	4	C5H12O6+
169.07	13	C5H13O6+
170.07	4	C12H10O+
171.08	4	C12H11O+
172.09	1	C12H12O+
173.08	1	C8H13O4+
174.06	1	C11H10O2+
175.04	1	C10H7O3+
175.11	1	C12H15O+
177.07	2	C14H9+
177.15	1	C9H21O3+
178.07	6	C10H10O3+
179.08	10	C14H11+
180.06	2	C6H12O6+
181.07	48	C6H13O6+
182.07	15	C13H10O+
183.08	50	C13H11O+
184.08	9	C9H12O4+
185.06	9	C12H9O2+
186.07	1	C12H10O2+
187.08	3	C12H11O2+
187.15	1	C14H19+
189.06	4	C11H9O3+
190.07	1	C11H10O3+
191.09	2	C8H15O5+
192.09	2	C15H12+
193.06	15	C14H9O+
194.07	9	C14H10O+
195.08	22	C14H11O+
196.06	5	C13H8O2+
197.06	47	C13H9O2+
198.07	23	C13H10O2+
199.07	39	C13H11O2+
200.07	3	C9H12O5+
201.09	6	C13H13O2+
202.07	1	C12H10O3+
203.08	3	C16H11+
204.09	3	C16H12+
205.07	7	C8H13O6+
206.07	9	C15H10O+
207.08	21	C15H11O+
208.09	4	C15H12O+
209.06	40	C14H9O2+
210.07	49	C14H10O2+
211.08	136	C14H11O2+
212.08	38	C14H12O2+
213.06	547	C13H9O3+
214.06	84	C13H10O3+
215.07	67	C13H11O3+
216.07	9	C9H12O6+
217.07	6	C9H13O6+
218.07	2	C16H10O+
219.08	3	C16H11O+
219.17	1	C15H23O+
221.06	14	C15H9O2+
222.07	12	C15H10O2+
223.08	49	C15H11O2+
224.08	42	C15H12O2+
225.07	49	C18H9+
226.06	999	C14H10O3+
227.07	369	C14H11O3+
228.07	70	C10H12O6+
229.09	115	C14H13O3+
230.09	16	C14H14O3+
231.09	4	C10H15O6+
233.06	2	C16H9O2+
234.07	2	C16H10O2+
235.08	20	C16H11O2+
236.08	11	C16H12O2+
237.08	3	C12H13O5+
238.06	19	C15H10O3+
239.07	547	C15H11O3+
240.08	265	C15H12O3+
241.08	98	C15H13O3+
242.09	13	C15H14O3+
243.1	16	C15H15O3+
244.11	3	C15H16O3+
245.09	2	C18H13O+
246.09	1	C14H14O4+
247.08	3	C17H11O2+
250.06	2	C16H10O3+
251.07	6	C16H11O3+
252.08	5	C16H12O3+
253.09	72	C16H13O3+
254.09	14	C16H14O3+
255.08	4	C19H11O+
256.09	6	C19H12O+
257.1	11	C12H17O6+
258.1	3	C19H14O+
259.1	5	C15H15O4+
260.08	1	C18H12O2+
261.09	3	C18H13O2+
263.07	3	C17H11O3+
264.08	2	C17H12O3+
265.09	5	C17H13O3+
266.08	2	C13H14O6+
268.09	4	C20H12O+
269.1	6	C13H17O6+
270.1	4	C20H14O+
271.11	9	C20H15O+
273.09	3	C19H13O2+
274.09	4	C15H14O5+
275.11	4	C19H15O2+
277.09	2	C18H13O3+
278.09	2	C18H14O3+
279.08	2	C21H11O+
280.1	1	C14H16O6+
281.1	3	C14H17O6+
283.11	4	C21H15O+
284.09	6	C20H12O2+
285.09	16	C20H13O2+
286.1	6	C20H14O2+
287.11	14	C20H15O2+
288.1	3	C16H16O5+
289.09	7	C19H13O3+
290.11	2	C23H14+
291.1	3	C19H15O3+
292.1	1	C15H16O6+
293.08	1	C18H13O4+
295.08	1	C21H11O2+
296.08	2	C21H12O2+
297.09	9	C21H13O2+
298.09	6	C17H14O5+
299.11	14	C21H15O2+
300.1	6	C17H16O5+
301.09	10	C20H13O3+
302.1	8	C20H14O3+
303.1	54	C20H15O3+
304.11	26	C20H16O3+
305.11	8	C20H17O3+
307.1	5	C19H15O4+
308.1	1	C19H16O4+
309.09	1	C22H13O2+
311.1	4	C22H15O2+
312.11	6	C22H16O2+
313.09	18	C21H13O3+
314.09	7	C21H14O3+
315.1	39	C21H15O3+
316.1	16	C17H16O6+
317.11	66	C21H17O3+
318.1	8	C24H14O+
319.1	14	C20H15O4+
320.1	6	C20H16O4+
321.11	8	C20H17O4+
322.11	1	C20H18O4+
325.08	3	C22H13O3+
326.1	2	C22H14O3+
327.1	5	C22H15O3+
328.08	4	C21H12O4+
329.09	10	C25H13O+
330.12	23	C22H18O3+
331.1	62	C21H15O4+
332.1	14	C21H16O4+
333.11	71	C21H17O4+
334.11	18	C21H18O4+
335.1	7	C24H15O2+
336.1	16	C20H16O5+
337.1	4	C27H13+
343.1	6	C22H15O4+
344.1	8	C22H16O4+
345.11	15	C22H17O4+
346.1	10	C25H14O2+
347.09	224	C21H15O5+
348.1	62	C21H16O5+
349.11	106	C21H17O5+
350.11	20	C28H14+
351.11	5	C28H15+
361.11	16	C22H17O5+
362.11	41	C22H18O5+
363.11	7	C25H15O3+
364.09	3	C28H12O+
365.11	2	C25H17O3+
377.11	1	C26H17O3+
381.15	1	C26H21O3+
391.14	3	C27H19O3+
394.12	2	C26H18O4+
395.11	1	C26H19O4+
409.14	10	C27H21O4+
410.15	3	C27H22O4+
414.13	1	C26H22O5+
419.13	3	C28H19O4+
422.12	2	C27H18O5+
423.14	1	C27H19O5+
427.15	11	C27H23O5+
428.15	3	C26H20O6+
437.14	15	C28H21O5+
438.14	4	C28H22O5+
440.13	3	C27H20O6+
453.14	5	C28H21O6+
454.14	2	C28H22O6+
455.15	782	C28H23O6+
457.15	44	C27H23NO6+
