Mass spectrum: Marchantin G 1; LC-ESI-QTOF; MS2; CE: 31.6361675; [M+H]+
Name: Marchantin G 1
Name: Marchantin G
Name: 4,5,17-trihydroxy-2,15-dioxapentacyclo[22.2.2.13,7.110,14.016,21]triaconta-1(26),3(30),4,6,10(29),11,13,16(21),17,19,24,27-dodecaen-8-one
Class: Lignane
Formula: C28H22O6
Exact mass: 454.142
SMILES: C1CC2=C(C(=CC=C2)O)OC3=CC=CC(=C3)CC(=O)C4=CC(=C(C(=C4)O)O)OC5=CC=C1C=C5
InChI: InChI=1S/C28H22O6/c29-23-6-2-4-19-10-7-17-8-11-21(12-9-17)33-26-16-20(15-25(31)27(26)32)24(30)14-18-3-1-5-22(13-18)34-28(19)23/h1-6,8-9,11-13,15-16,29,31-32H,7,10,14H2
Instrument: Bruker MicrOTOF-Q
Instrument type: LC-ESI-QTOF
Ms type: MS2
Ion mode: POSITIVE
Ionization: ESI
Collision energy: 31.6361675
Fragmentation mode: CID
Column name: ACQUITY UPLC HSS T3 Column
Retention time: 7.067 min
Base peak: 455.1489
Precursor m/z: 455.1489
Precursor type: [M+H]+
m/z	relative intensity	assigned
123.04	9	C7H7O2+
129.07	7	C10H9+
135.06	5	C5H11O4+
137.02	13	C7H5O3+
138.02	7	C3H6O6+
139.04	18	C7H7O3+
155.08	8	C12H11+
165.07	24	C13H9+
166.08	21	C13H10+
167.09	5	C6H15O5+
169.06	36	C12H9O+
178.08	9	C14H10+
181.06	55	C13H9O+
182.07	22	C13H10O+
183.08	55	C13H11O+
184.09	11	C13H12O+
184.14	5	C11H20O2+
185.05	17	C8H9O5+
189.05	11	C11H9O3+
190.06	4	C11H10O3+
190.16	7	C10H22O3+
193.06	20	C14H9O+
194.07	42	C14H10O+
195.08	41	C14H11O+
196.14	7	C12H20O2+
197.06	213	C13H9O2+
198.06	26	C13H10O2+
199.07	24	C13H11O2+
200.08	21	C13H12O2+
201.06	7	C12H9O3+
202.08	11	C16H10+
203.08	8	C16H11+
204.09	6	C16H12+
207.08	16	C15H11O+
208.09	14	C15H12O+
209.06	26	C14H9O2+
210.07	52	C14H10O2+
211.07	151	C14H11O2+
212.08	106	C14H12O2+
213.06	120	C13H9O3+
214.07	12	C13H10O3+
215.07	74	C13H11O3+
216.08	5	C13H12O3+
218.08	13	C9H14O6+
221.06	71	C15H9O2+
222.06	36	C15H10O2+
223.08	56	C15H11O2+
224.08	21	C15H12O2+
225.05	57	C14H9O3+
226.06	254	C14H10O3+
227.07	666	C14H11O3+
228.07	147	C10H12O6+
229.08	99	C14H13O3+
230.08	13	C10H14O6+
233.1	6	C10H17O6+
234.07	9	C16H10O2+
235.08	8	C16H11O2+
236.08	5	C16H12O2+
239.07	161	C15H11O3+
240.07	44	C11H12O6+
241.06	13	C18H9O+
242.07	6	C18H10O+
242.12	5	C12H18O5+
244.09	6	C18H12O+
245.1	8	C11H17O6+
247.08	22	C17H11O2+
249.09	9	C17H13O2+
254.1	13	C16H14O3+
255.07	174	C15H11O4+
256.07	27	C15H12O4+
256.15	6	C17H20O2+
259.1	7	C15H15O4+
260.1	8	C15H16O4+
261.08	7	C14H13O5+
263.09	6	C14H15O5+
264.07	9	C13H12O6+
267.07	7	C16H11O4+
269.09	15	C20H13O+
270.1	7	C20H14O+
271.07	8	C19H11O2+
272.1	15	C16H16O4+
273.09	30	C19H13O2+
274.1	13	C19H14O2+
275.1	6	C19H15O2+
281.09	24	C21H13O+
283.08	10	C20H11O2+
284.08	22	C20H12O2+
285.09	35	C20H13O2+
286.1	13	C20H14O2+
287.11	11	C20H15O2+
288.09	10	C23H12+
289.1	11	C23H13+
290.1	6	C19H14O3+
291.1	14	C19H15O3+
294.09	8	C18H14O4+
297.09	23	C21H13O2+
298.1	8	C21H14O2+
299.11	35	C21H15O2+
299.96	6	C17O6+
300.09	20	C24H12+
301.09	50	C20H13O3+
302.1	13	C20H14O3+
303.1	79	C20H15O3+
304.11	24	C20H16O3+
305.12	13	C20H17O3+
309.1	6	C22H13O2+
311.1	31	C22H15O2+
312.1	29	C18H16O5+
313.09	125	C21H13O3+
314.09	35	C21H14O3+
315.1	37	C21H15O3+
316.12	9	C25H16+
317.12	51	C21H17O3+
318.08	9	C20H14O4+
319.11	16	C24H15O+
320.12	9	C24H16O+
325.08	9	C22H13O3+
327.1	17	C22H15O3+
328.1	11	C18H16O6+
329.08	183	C21H13O4+
330.09	146	C21H14O4+
331.1	229	C21H15O4+
332.1	36	C21H16O4+
333.12	12	C25H17O+
343.1	16	C22H15O4+
344.1	50	C22H16O4+
345.08	57	C21H13O5+
345.17	12	C27H21+
346.09	44	C21H14O5+
347.09	50	C21H15O5+
349.1	13	C28H13+
360.09	5	C22H16O5+
361.09	7	C25H13O3+
363.09	23	C21H15O6+
372.11	8	C27H16O2+
373.12	11	C27H17O2+
377.1	4	C22H17O6+
382.15	6	C26H22O3+
387.11	5	C27H15O3+
390.09	5	C26H14O4+
391.13	14	C27H19O3+
394.07	5	C28H10O3+
395.09	5	C25H15O5+
397.1	8	C25H17O5+
398.13	9	C25H18O5+
401	7	C25H5O6+
401.11	12	C28H17O3+
402.12	5	C28H18O3+
406.18	5	C28H22O3+
407.08	5	C26H15O5+
409.14	26	C27H21O4+
410.15	8	C27H22O4+
412.1	7	C25H16O6+
419.12	25	C28H19O4+
420.15	9	C28H20O4+
421.09	5	C27H17O5+
422.1	5	C27H18O5+
423.12	4	C27H19O5+
427.15	9	C27H23O5+
432.12	7	C28H16O5+
434.02	5	C24H6N2O7+
437.14	999	C28H21O5+
438.14	299	C28H22O5+
439.15	82	C28H23O5+
440.15	14	C27H20O6+
455.15	101	C28H23O6+
457.14	9	C26H21N2O6+
