Mass spectrum: Paleatin A; LC-ESI-QTOF; MS2; CE: 32.9896925; [M+H]+
Name: Paleatin A
Name: 5-[2-[3-[2-hydroxy-6-[2-(4-hydroxyphenyl)ethyl]phenoxy]phenyl]ethyl]-3-methoxybenzene-1,2-diol
Class: Lignane
Formula: C29H28O6
Exact mass: 472.189
SMILES: COC1=CC(=CC(=C1O)O)CCC2=CC(=CC=C2)OC3=C(C=CC=C3O)CCC4=CC=C(C=C4)O
InChI: InChI=1S/C29H28O6/c1-34-27-18-21(17-26(32)28(27)33)9-8-20-4-2-6-24(16-20)35-29-22(5-3-7-25(29)31)13-10-19-11-14-23(30)15-12-19/h2-7,11-12,14-18,30-33H,8-10,13H2,1H3
Instrument: Bruker MicrOTOF-Q
Instrument type: LC-ESI-QTOF
Ms type: MS2
Ion mode: POSITIVE
Ionization: ESI
Collision energy: 32.9896925
Fragmentation mode: CID
Column name: ACQUITY UPLC HSS T3 Column
Retention time: 9.534 min
Base peak: 473.1959
Precursor m/z: 473.1959
Precursor type: [M+H]+
m/z	relative intensity	assigned
103.05	1	C8H7+
107.05	4	C7H7O+
115.05	5	C9H7+
117.07	9	C9H9+
118.08	1	C9H10+
119.05	14	C8H7O+
120.06	9	CH12O6+
120.99	2	C6HO3+
121.06	653	C8H9O+
121.19	1	C8H25+
122.07	59	C8H10O+
123.05	8	C7H7O2+
124.05	1	C7H8O2+
125.03	3	C6H5O3+
125.06	1	C7H9O2+
127.05	1	C10H7+
128.06	3	C10H8+
129.07	8	C10H9+
130.07	2	C6H10O3+
131.05	7	C9H7O+
132.05	1	C9H8O+
133.06	24	C9H9O+
134.06	2	C5H10O4+
135.04	94	C8H7O2+
136.05	7	C8H8O2+
137.06	20	C8H9O2+
138.03	16	C7H6O3+
139.04	9	C7H7O3+
141.07	4	C11H9+
142.08	1	C11H10+
143.09	1	C4H15O5+
144.09	1	C11H12+
145.06	19	C10H9O+
146.07	4	C10H10O+
147.08	21	C10H11O+
148.08	2	C6H12O4+
149.06	12	C9H9O2+
150.06	2	C9H10O2+
151.07	13	C9H11O2+
152.05	75	C8H8O3+
153.05	497	C8H9O3+
154.06	50	C8H10O3+
155.07	10	C8H11O3+
156.08	1	C8H12O3+
156.09	1	C12H12+
157.07	16	C4H13O6+
158.07	2	C11H10O+
159.08	3	C11H11O+
161.06	6	C10H9O2+
165.07	43	C13H9+
166.08	15	C13H10+
167.07	844	C9H11O3+
168.07	94	C5H12O6+
169.07	30	C5H13O6+
170.07	9	C12H10O+
171.08	38	C12H11O+
172.09	5	C12H12O+
173.06	3	C11H9O2+
175.08	3	C11H11O2+
176.06	2	C14H8+
177.07	19	C14H9+
178.08	19	C14H10+
179.08	45	C14H11+
180.07	10	C6H12O6+
181.07	308	C6H13O6+
182.07	61	C13H10O+
183.08	120	C13H11O+
184.08	22	C9H12O4+
185.1	37	C6H17O6+
186.1	4	C13H14O+
187.08	6	C12H11O2+
191.08	10	C15H11+
192.09	5	C15H12+
193.1	49	C15H13+
194.08	28	C7H14O6+
195.08	136	C14H11O+
196.06	17	C13H8O2+
196.08	24	C10H12O4+
197.06	257	C13H9O2+
198.07	78	C13H10O2+
199.08	278	C13H11O2+
200.08	39	C13H12O2+
201.09	12	C13H13O2+
202.08	5	C16H10+
203.08	14	C16H11+
204.09	2	C16H12+
205.07	3	C8H13O6+
206.08	8	C8H14O6+
207.08	48	C15H11O+
208.09	13	C15H12O+
209.06	267	C14H9O2+
210.07	163	C14H10O2+
211.08	598	C14H11O2+
212.08	182	C14H12O2+
213.09	331	C14H13O2+
214.09	49	C10H14O5+
215.07	83	C13H11O3+
216.08	15	C13H12O3+
217.08	3	C13H13O3+
219.08	11	C16H11O+
220.09	8	C16H12O+
221.1	79	C9H17O6+
222.1	24	C16H14O+
223.08	84	C15H11O2+
224.08	480	C15H12O2+
225.09	439	C15H13O2+
226.09	118	C11H14O5+
227.08	429	C18H11+
228.08	82	C14H12O3+
229.09	148	C14H13O3+
230.09	26	C14H14O3+
231.1	6	C14H15O3+
232.1	2	C10H16O6+
233.09	1	C17H13O+
233.2	1	C9H29O6+
234.06	2	C16H10O2+
235.07	8	C16H11O2+
236.08	5	C16H12O2+
236.22	2	C16H28O+
237.09	36	C16H13O2+
238	1	C17H2O2+
238.1	34	C16H14O2+
239.11	999	C16H15O2+
240.11	182	C16H16O2+
241.09	143	C15H13O3+
242.09	286	C15H14O3+
243.07	52	C18H11O+
243.09	39	C18H11O+
244.08	46	C14H12O4+
245.08	6	C14H13O4+
245.11	5	C15H17O3+
247.08	4	C17H11O2+
249.09	4	C17H13O2+
251.11	7	C17H15O2+
252.11	4	C17H16O2+
253.11	22	C13H17O5+
254.1	9	C16H14O3+
255.1	29	C16H15O3+
256.11	15	C16H16O3+
257.08	219	C15H13O4+
258.09	55	C15H14O4+
259.09	15	C15H15O4+
260.1	11	C15H16O4+
261.1	8	C18H13O2+
262.1	3	C18H14O2+
263.11	3	C18H15O2+
265.11	8	C14H17O5+
267.1	6	C17H15O3+
268.09	4	C20H12O+
269.09	2	C20H13O+
269.11	2	C13H17O6+
270.13	26	C17H18O3+
271.1	22	C16H15O4+
272.1	12	C16H16O4+
273.11	19	C16H17O4+
274.1	2	C19H14O2+
274.12	2	C16H18O4+
275.11	6	C19H15O2+
277.11	2	C15H17O5+
277.12	4	C19H17O2+
281.09	3	C21H13O+
283.11	28	C21H15O+
284.12	6	C21H16O+
285.09	3	C20H13O2+
285.12	3	C21H17O+
286.1	10	C20H14O2+
287.11	10	C20H15O2+
288.1	2	C16H16O5+
291.14	5	C20H19O2+
293.1	8	C15H17O6+
294.11	2	C15H18O6+
297.09	2	C21H13O2+
299.11	8	C21H15O2+
300.11	4	C21H16O2+
301.12	62	C21H17O2+
302.13	13	C21H18O2+
303.11	2	C24H15+
304.11	4	C20H16O3+
305.12	4	C20H17O3+
310.1	3	C22H14O2+
311.11	31	C22H15O2+
312.11	9	C22H16O2+
313.11	4	C18H17O5+
314.1	12	C21H14O3+
315.11	13	C25H15+
316.11	4	C21H16O3+
317.12	8	C21H17O3+
319.13	42	C21H19O3+
320.14	9	C21H20O3+
321.14	2	C17H21O6+
327.1	4	C22H15O3+
328.11	4	C22H16O3+
329.12	47	C22H17O3+
330.12	13	C22H18O3+
331.1	6	C21H15O4+
332.1	5	C21H16O4+
333.15	80	C22H21O3+
334.15	21	C22H22O3+
335.15	2	C18H23O6+
343.13	4	C23H19O3+
345.12	3	C26H17O+
346.12	4	C22H18O4+
347.13	48	C22H19O4+
348.13	13	C22H20O4+
349.13	1	C25H17O2+
349.14	3	C22H21O4+
350.12	5	C21H18O5+
351.12	2	C21H19O5+
361.15	23	C23H21O4+
362.15	5	C23H22O4+
363.13	6	C22H19O5+
364.13	4	C22H20O5+
365.13	2	C29H17+
371.16	2	C25H23O3+
379.15	16	C23H23O5+
380.16	3	C23H24O5+
385.14	2	C25H21O4+
413.17	2	C27H25O4+
413.18	3	C27H25O4+
425.13	3	C27H21O5+
427.19	5	C28H27O4+
441.17	2	C28H25O5+
453.14	10	C28H21O6+
454.14	3	C28H22O6+
473.2	2	C29H29O6+
