Mass spectrum: Marchantin G 5; LC-ESI-QTOF; MS2; CE: 31.6361675; [M+H]+
Name: Marchantin G 5
Name: Marchantin G
Name: 4,5,17-trihydroxy-2,15-dioxapentacyclo[22.2.2.13,7.110,14.016,21]triaconta-1(26),3(30),4,6,10(29),11,13,16(21),17,19,24,27-dodecaen-8-one
Class: Lignane
Formula: C28H22O6
Exact mass: 454.142
SMILES: C1CC2=C(C(=CC=C2)O)OC3=CC=CC(=C3)CC(=O)C4=CC(=C(C(=C4)O)O)OC5=CC=C1C=C5
InChI: InChI=1S/C28H22O6/c29-23-6-2-4-19-10-7-17-8-11-21(12-9-17)33-26-16-20(15-25(31)27(26)32)24(30)14-18-3-1-5-22(13-18)34-28(19)23/h1-6,8-9,11-13,15-16,29,31-32H,7,10,14H2
Instrument: Bruker MicrOTOF-Q
Instrument type: LC-ESI-QTOF
Ms type: MS2
Ion mode: POSITIVE
Ionization: ESI
Collision energy: 31.6361675
Fragmentation mode: CID
Column name: ACQUITY UPLC HSS T3 Column
Retention time: 9.296 min
Base peak: 455.1489
Precursor m/z: 455.1489
Precursor type: [M+H]+
m/z	relative intensity	assigned
107.05	1	C7H7O+
115.05	2	C9H7+
119.05	4	C8H7O+
120.05	7	C8H8O+
121.06	9	C8H9O+
123.04	67	C7H7O2+
124.04	5	C3H8O5+
125.03	3	C6H5O3+
128.06	3	C10H8+
129.07	2	C10H9+
131.05	9	C9H7O+
132.06	2	C2H12O6+
135.04	8	C8H7O2+
136.05	2	C8H8O2+
137.02	10	C7H5O3+
139.04	3	C7H7O3+
141.07	13	C11H9+
142.07	3	C7H10O3+
143.08	2	C11H11+
145.06	3	C10H9O+
147.04	9	C9H7O2+
151.05	2	C12H7+
152.06	9	C12H8+
153.07	12	C12H9+
154.08	3	C12H10+
155.08	5	C12H11+
157.07	7	C4H13O6+
159.08	8	C11H11O+
164.06	1	C13H8+
165.07	32	C13H9+
166.08	22	C13H10+
167.09	57	C6H15O5+
168.06	7	C5H12O6+
169.06	117	C12H9O+
170.07	19	C12H10O+
171.08	25	C12H11O+
172.09	4	C12H12O+
173.06	7	C11H9O2+
174.06	1	C11H10O2+
176.06	2	C14H8+
177.07	17	C14H9+
178.08	13	C14H10+
179.08	60	C14H11+
180.09	26	C14H12+
181.07	51	C6H13O6+
182.07	27	C13H10O+
183.08	57	C13H11O+
184.07	7	C9H12O4+
185.09	31	C13H13O+
186.08	5	C9H14O4+
186.1	2	C13H14O+
187.08	65	C12H11O2+
188.08	9	C12H12O2+
189.07	2	C15H9+
190.06	1	C11H10O3+
191.09	4	C8H15O5+
192.09	12	C15H12+
193.07	11	C7H13O6+
194.07	34	C14H10O+
194.98	1	C7HNO6+
195.08	176	C14H11O+
196.08	48	C10H12O4+
197.06	320	C13H9O2+
198.07	136	C13H10O2+
199.08	257	C13H11O2+
200.08	41	C13H12O2+
201.07	2	C9H13O5+
201.08	3	C9H13O5+
202.09	1	C9H14O5+
203.07	2	C12H11O3+
205.06	4	C15H9O+
206.07	2	C15H10O+
207.08	45	C15H11O+
208.09	31	C15H12O+
209.09	44	C15H13O+
210.07	162	C14H10O2+
211.08	395	C14H11O2+
212.08	100	C14H12O2+
213.09	387	C14H13O2+
214.07	70	C13H10O3+
215.07	999	C13H11O3+
216.07	136	C9H12O6+
217.08	14	C13H13O3+
218.07	2	C16H10O+
219.07	2	C12H11O4+
221.06	5	C15H9O2+
222.06	3	C15H10O2+
222.08	1	C15H10O2+
223.08	114	C15H11O2+
224.08	44	C15H12O2+
225.09	284	C15H13O2+
226.08	58	C18H10+
227.07	290	C14H11O3+
228.08	76	C14H12O3+
229.08	135	C14H13O3+
230.08	20	C10H14O6+
231.06	1	C13H11O4+
231.07	3	C13H11O4+
233.09	1	C17H13O+
234.07	4	C16H10O2+
235.08	60	C16H11O2+
236.08	11	C16H12O2+
237.05	1	C15H9O3+
237.08	2	C12H13O5+
238.07	1	C15H10O3+
239.07	25	C15H11O3+
239.96	1	C12O6+
240.08	13	C15H12O3+
241.09	756	C15H13O3+
242.09	135	C15H14O3+
243.08	17	C18H11O+
244.08	2	C18H12O+
244.09	1	C18H12O+
245.09	3	C18H13O+
246.1	2	C18H14O+
247.08	3	C17H11O2+
249.09	3	C17H13O2+
253.09	15	C16H13O3+
255.07	33	C15H11O4+
256.07	6	C15H12O4+
257.09	4	C19H13O+
259.11	5	C19H15O+
261.09	2	C18H13O2+
263.1	2	C18H15O2+
265.09	3	C17H13O3+
269.09	9	C20H13O+
270.1	2	C20H14O+
271.11	3	C20H15O+
272.09	2	C19H12O2+
273.09	8	C19H13O2+
274.09	4	C15H14O5+
275.11	4	C19H15O2+
277.1	2	C15H17O5+
277.12	2	C15H17O5+
284.12	3	C21H16O+
285.09	6	C20H13O2+
286.1	4	C20H14O2+
287.11	24	C20H15O2+
288.11	10	C20H16O2+
289.12	4	C20H17O2+
291.1	11	C19H15O3+
292.1	4	C15H16O6+
293.11	2	C19H17O3+
297.09	6	C21H13O2+
298.1	4	C21H14O2+
299.11	12	C21H15O2+
300.09	5	C24H12+
301.1	14	C24H13+
302.13	41	C21H18O2+
303.11	39	C24H15+
304.11	21	C20H16O3+
305.12	43	C20H17O3+
306.12	12	C20H18O3+
307.1	7	C19H15O4+
308.1	3	C19H16O4+
315.1	29	C21H15O3+
316.11	23	C21H16O3+
317.12	32	C21H17O3+
318.12	18	C21H18O3+
319.1	67	C20H15O4+
320.1	29	C20H16O4+
321.11	31	C20H17O4+
322.11	6	C20H18O4+
323.11	2	C23H15O2+
329.08	3	C21H13O4+
330.1	2	C25H14O+
331.1	4	C21H15O4+
333.11	86	C21H17O4+
334.12	110	C21H18O4+
335.12	24	C21H19O4+
336.11	9	C24H16O2+
337.1	2	C27H13+
343.09	1	C22H15O4+
344.1	2	C22H16O4+
347.1	9	C25H15O2+
348.1	5	C21H16O5+
349.11	4	C21H17O5+
381.15	6	C26H21O3+
399.17	2	C26H23O4+
409.14	33	C27H21O4+
410.15	9	C27H22O4+
411.15	2	C27H23O4+
427.16	54	C27H23O5+
429.16	2	C26H23NO5+
437.14	10	C28H21O5+
438.14	2	C28H22O5+
455.15	26	C28H23O6+
