Mass spectrum: Marchantin E; LC-ESI-QTOF; MS2; CE: 32.838515; [M+H]+
Name: Marchantin E
Name: 8-methoxy-2,15-dioxapentacyclo[22.2.2.13,7.110,14.016,21]triaconta-1(26),3(30),4,6,10(29),11,13,16(21),17,19,24,27-dodecaene-4,5,17-triol
Class: Lignane
Formula: C29H26O6
Exact mass: 470.173
SMILES: COC1CC2=CC(=CC=C2)OC3=C(CCC4=CC=C(C=C4)OC5=C(C(=CC1=C5)O)O)C=CC=C3O
InChI: InChI=1S/C29H26O6/c1-33-26-15-19-4-2-6-23(14-19)35-29-20(5-3-7-24(29)30)11-8-18-9-12-22(13-10-18)34-27-17-21(26)16-25(31)28(27)32/h2-7,9-10,12-14,16-17,26,30-32H,8,11,15H2,1H3
Instrument: Bruker MicrOTOF-Q
Instrument type: LC-ESI-QTOF
Ms type: MS2
Ion mode: POSITIVE
Ionization: ESI
Collision energy: 32.838515
Fragmentation mode: CID
Column name: ACQUITY UPLC HSS T3 Column
Retention time: 10.297 min
Base peak: 471.1802
Precursor m/z: 471.1802
Precursor type: [M+H]+
m/z	relative intensity	assigned
107.05	3	C7H7O+
115.05	3	C9H7+
117.07	8	C9H9+
119.05	8	C8H7O+
121.06	29	C8H9O+
122.04	5	C7H6O2+
123.04	26	C7H7O2+
124.05	8	C7H8O2+
125.02	3	C6H5O3+
128.06	3	C10H8+
129.07	5	C10H9+
131.05	10	C9H7O+
133.03	10	C8H5O2+
133.06	9	C9H9O+
134.03	5	C8H6O2+
135.04	46	C8H7O2+
136.05	39	C8H8O2+
137.06	186	C8H9O2+
138.06	12	C8H10O2+
139.04	9	C7H7O3+
141.07	4	C11H9+
144.06	3	C3H12O6+
145.06	7	C10H9O+
147.05	4	C9H7O2+
149.06	32	C9H9O2+
150.07	25	C9H10O2+
151.07	64	C9H11O2+
152.07	10	C5H12O5+
153.06	25	C8H9O3+
154.07	5	C8H10O3+
155.08	13	C12H11+
157.07	8	C4H13O6+
159.08	5	C11H11O+
161.06	4	C10H9O2+
162.07	5	C10H10O2+
163.07	8	C10H11O2+
165.07	58	C13H9+
166.07	16	C9H10O3+
167.08	24	C13H11+
168.06	25	C5H12O6+
169.06	41	C12H9O+
170.07	8	C12H10O+
171.08	14	C12H11O+
175.08	9	C11H11O2+
176.08	3	C11H12O2+
177.06	3	C14H9+
177.07	6	C14H9+
178.07	10	C10H10O3+
179.09	24	C7H15O5+
180.09	6	C14H12+
181.07	119	C6H13O6+
182.07	39	C13H10O+
183.08	238	C13H11O+
184.08	38	C9H12O4+
185.07	3	C9H13O4+
185.09	10	C9H13O4+
186.07	3	C12H10O2+
187.08	13	C12H11O2+
188.08	3	C12H12O2+
190.07	3	C11H10O3+
191.08	28	C15H11+
192.09	7	C15H12+
193.07	30	C7H13O6+
194.07	38	C14H10O+
195.08	87	C14H11O+
196.05	260	C13H8O2+
197.06	179	C13H9O2+
198.07	34	C13H10O2+
199.07	107	C13H11O2+
200.08	31	C13H12O2+
201.09	23	C13H13O2+
202.1	3	C13H14O2+
203.08	3	C16H11+
207.08	34	C15H11O+
208.09	20	C15H12O+
209.07	179	C14H9O2+
210.07	133	C14H10O2+
211.08	649	C14H11O2+
212.08	156	C14H12O2+
213.06	112	C13H9O3+
214.07	47	C13H10O3+
215.07	468	C13H11O3+
216.08	70	C13H12O3+
217.09	10	C17H13+
217.1	7	C17H13+
218.08	3	C9H14O6+
219.08	26	C16H11O+
220.09	15	C16H12O+
221.1	7	C9H17O6+
222.07	43	C15H10O2+
223.08	134	C15H11O2+
224.08	72	C15H12O2+
225.09	174	C15H13O2+
226.09	200	C11H14O5+
227.07	711	C14H11O3+
227.97	3	C11O6+
228.08	336	C14H12O3+
228.98	3	C11HO6+
229.09	999	C14H13O3+
230.09	162	C14H14O3+
231.09	23	C10H15O6+
232.1	3	C10H16O6+
233.09	3	C17H13O+
235.08	13	C16H11O2+
236.08	9	C16H12O2+
236.15	19	C18H20+
237.09	174	C16H13O2+
238.1	88	C16H14O2+
239.07	161	C15H11O3+
240.08	250	C15H12O3+
241.09	791	C15H13O3+
242.09	254	C15H14O3+
243.1	406	C15H15O3+
244.1	72	C11H16O6+
245.1	8	C11H17O6+
246.11	2	C11H18O6+
247.08	4	C17H11O2+
249.09	4	C17H13O2+
251.1	13	C17H15O2+
252.08	4	C16H12O3+
253.09	93	C16H13O3+
254	2	C17H2O3+
254.09	803	C16H14O3+
255.1	702	C16H15O3+
256.1	117	C12H16O6+
257.11	47	C16H17O3+
258.1	12	C19H14O+
259.12	137	C12H19O6+
260.12	17	C19H16O+
261.13	15	C19H17O+
262.14	2	C12H22O6+
263.1	2	C18H15O2+
264.08	2	C17H12O3+
265.09	8	C17H13O3+
266.1	4	C17H14O3+
267.1	10	C17H15O3+
268.1	4	C13H16O6+
268.97	2	C13HO7+
269.12	831	C17H17O3+
270.12	147	C17H18O3+
271.11	35	C20H15O+
272.1	4	C16H16O4+
273.12	7	C20H17O+
274.12	2	C16H18O4+
275.11	7	C19H15O2+
277.1	3	C22H13+
279.1	6	C18H15O3+
281.09	3	C21H13O+
281.11	2	C14H17O6+
282.1	2	C21H14O+
282.19	8	C16H26O4+
283.11	12	C21H15O+
284.1	5	C17H16O4+
285.1	8	C20H13O2+
286.1	12	C20H14O2+
287.1	18	C20H15O2+
288.11	6	C20H16O2+
289.11	8	C16H17O5+
290.12	4	C16H18O5+
291.11	6	C23H15+
293.11	2	C19H17O3+
295.11	2	C22H15O+
297.1	5	C21H13O2+
298.1	7	C21H14O2+
299.11	51	C21H15O2+
300.11	20	C21H16O2+
301.12	33	C21H17O2+
302.12	5	C17H18O5+
303.1	17	C20H15O3+
304.11	6	C20H16O3+
305.12	9	C20H17O3+
307.13	3	C20H19O3+
309.1	4	C22H13O2+
311.11	13	C22H15O2+
312.11	4	C22H16O2+
313.1	8	C18H17O5+
313.11	6	C18H17O5+
314.11	14	C18H18O5+
314.12	4	C18H18O5+
315.1	31	C21H15O3+
316.11	13	C21H16O3+
317.12	58	C21H17O3+
318.12	17	C21H18O3+
319.13	21	C21H19O3+
320.14	6	C21H20O3+
321.13	4	C24H17O+
327.1	12	C22H15O3+
328.11	4	C22H16O3+
329.12	29	C22H17O3+
330.11	9	C18H18O6+
330.12	3	C22H18O3+
331.11	39	C25H15O+
332.13	34	C18H20O6+
333.11	103	C21H17O4+
334.12	29	C21H18O4+
335.13	158	C21H19O4+
336.13	32	C21H20O4+
337.13	6	C24H17O2+
344.11	9	C22H16O4+
345.11	33	C22H17O4+
346.13	26	C26H18O+
347.13	58	C22H19O4+
348.13	19	C22H20O4+
349.14	30	C22H21O4+
350.15	15	C22H22O4+
351.15	3	C22H23O4+
359.13	15	C23H19O4+
360.14	20	C23H20O4+
361.13	10	C26H17O2+
362.12	5	C26H18O2+
362.15	3	C26H18O2+
363.12	139	C22H19O5+
364.13	33	C22H20O5+
365.14	23	C22H21O5+
375.11	3	C26H15O3+
376.13	3	C23H20O5+
377.14	44	C23H21O5+
378.15	84	C23H22O5+
379.15	21	C23H23O5+
380.15	3	C26H20O3+
383.16	2	C26H23O3+
393.15	5	C27H21O3+
421.14	12	C28H21O4+
422.15	4	C28H22O4+
423.16	5	C28H23O4+
425.17	4	C28H25O4+
435.16	3	C29H23O4+
437.14	3	C28H21O5+
438.15	4	C28H22O5+
439.15	32	C28H23O5+
440.16	17	C28H24O5+
453.17	20	C29H25O5+
454.17	6	C29H26O5+
469.17	8	C29H25O6+
470.17	3	C29H26O6+
471.18	27	C29H27O6+
