Mass spectrum: Perrottetin E 1; LC-ESI-QTOF; MS2; CE: 29.53928; [M+H]+
Name: Perrottetin E 1
Name: Perrottetin E
Name: 4-[2-(3-hydroxyphenyl)ethyl]-2-[4-[2-(3-hydroxyphenyl)ethyl]phenoxy]phenol
Class: Lignane
Formula: C28H26O4
Exact mass: 426.183
SMILES: C1=CC(=CC(=C1)O)CCC2=CC=C(C=C2)OC3=C(C=CC(=C3)CCC4=CC(=CC=C4)O)O
InChI: InChI=1S/C28H26O4/c29-24-5-1-3-21(17-24)8-7-20-11-14-26(15-12-20)32-28-19-23(13-16-27(28)31)10-9-22-4-2-6-25(30)18-22/h1-6,11-19,29-31H,7-10H2
Instrument: Bruker MicrOTOF-Q
Instrument type: LC-ESI-QTOF
Ms type: MS2
Ion mode: POSITIVE
Ionization: ESI
Collision energy: 29.53928
Fragmentation mode: CID
Column name: ACQUITY UPLC HSS T3 Column
Retention time: 9.843 min
Base peak: 427.1904
Precursor m/z: 427.1904
Precursor type: [M+H]+
m/z	relative intensity	assigned
121.06	308	C8H9O+
122.06	40	C4H10O4+
181.06	9	C13H9O+
182.08	8	C13H10O+
184.07	13	C9H12O4+
193.07	15	C14H9O+
194.07	11	C14H10O+
195.08	11	C14H11O+
197.06	25	C13H9O2+
199.07	92	C13H11O2+
200.08	37	C13H12O2+
203.08	11	C16H11+
207.08	17	C15H11O+
210.06	18	C14H10O2+
211.07	239	C14H11O2+
212.08	55	C14H12O2+
213.09	112	C14H13O2+
223.08	10	C15H11O2+
224.08	16	C15H12O2+
225.09	336	C15H13O2+
226.1	56	C15H14O2+
227.11	11	C15H15O2+
239.11	104	C16H15O2+
240.11	14	C16H16O2+
259.11	6	C19H15O+
299.11	6	C21H15O2+
301.12	59	C21H17O2+
302.13	31	C21H18O2+
307.13	10	C20H19O3+
317.12	40	C21H17O3+
319.13	999	C21H19O3+
320.14	269	C21H20O3+
321.14	33	C21H21O3+
333.15	76	C22H21O3+
334.15	23	C22H22O3+
439.15	27	C28H23O5+
440.15	9	C27H22NO5+
