Mass spectrum: Biochanin A O-diglucoside malonylated; ESI-TOF; MS2; CE:15 eV; [M+H]+
Name: Biochanin A O-diglucoside malonylated
Class: Natural Product; isoflavone
Formula: C31H34O18
Exact mass: 694.174514248
Instrument: micrOTOF-Q
Instrument type: ESI-TOF
Ms type: MS2
Ion mode: POSITIVE
Collision energy: 15 eV
Ionization: ESI
Retention time: 404.164
Column name: Poroshell 120,EC-C18 2.1x100mm,2.7um
Precursor m/z: 695.449
Precursor type: [M+H]+
Base peak: 285.076
m/z	relative intensity
285.0758	999
286.0791	117
533.1306	206
534.1392	72
695.1834	462
696.1893	129
697.2003	44
