Mass spectrum: Chrysoeriol O-diglucoside; ESI-TOF; MS2; CE:15 eV; [M+H]+
Name: Chrysoeriol O-diglucoside
Class: Natural Product; flavone
Formula: C28H32O16
Exact mass: 624.169034944
Instrument: micrOTOF-Q
Instrument type: ESI-TOF
Ms type: MS2
Ion mode: POSITIVE
Collision energy: 15 eV
Ionization: ESI
Retention time: 241.114
Column name: Poroshell 120,EC-C18 2.1x100mm,2.7um
Precursor m/z: 625.18
Precursor type: [M+H]+
Base peak: 463.127
m/z	relative intensity
463.1203	999
