Mass spectrum: 2'-Hydroxygenistein C-glucoside malonylated; ESI-TOF; MS2; CE:15 eV; [M+H]+
Name: 2'-Hydroxygenistein C-glucoside malonylated
Name: 2'Hydroxygenistein C-glucoside malonylated
Class: Natural Product; isoflavone
Formula: C24H22O14
Exact mass: 534.1009553839999
Instrument: micrOTOF-Q
Instrument type: ESI-TOF
Ms type: MS2
Ion mode: POSITIVE
Collision energy: 15 eV
Ionization: ESI
Retention time: 260.12
Column name: Poroshell 120,EC-C18 2.1x100mm,2.7um
Precursor m/z: 535.112
Precursor type: [M+H]+
Base peak: 535.102
m/z	relative intensity
287.0559	27
299.0583	42
311.0572	103
312.0616	20
329.0679	388
330.0702	55
353.0684	212
354.0726	42
359.0764	61
360.0839	17
367.0881	31
371.0817	20
377.0685	88
378.0690	18
383.0781	13
395.0796	229
396.0850	38
397.0847	10
413.0926	114
414.0928	24
431.1023	85
432.1059	20
437.0895	14
449.1136	62
450.1106	17
455.1028	319
456.1083	62
457.1046	18
473.1132	226
474.1143	63
475.1178	14
481.0918	22
491.1244	89
492.1274	22
499.0917	191
500.0969	52
517.0995	413
518.1088	78
519.1080	30
535.1132	999
536.1174	174
537.1185	56
