Mass spectrum: 7,4'-Dihydroxyflavone; ESI-TOF; MS2; CE:15 eV; [M+H]+
Name: 7,4'-Dihydroxyflavone
Name: 4H-1-Benzopyran-4-one, 7-hydroxy-2-(4-hydroxyphenyl)
Name: 7-Hydroxy-2-(4-hydroxyphenyl)-4H-chromen-4-one
Class: Natural Product; flavone
Formula: C15H10O4
Exact mass: 254.0579088
SMILES: OC=1C=CC(=CC=1)C2=CC(=O)C3=CC=C(O)C=C3(O2)
InChI: InChI=1S/C15H10O4/c16-10-3-1-9(2-4-10)14-8-13(18)12-6-5-11(17)7-15(12)19-14/h1-8,16-17H
Instrument: micrOTOF-Q
Instrument type: ESI-TOF
Ms type: MS2
Ion mode: POSITIVE
Collision energy: 15 eV
Ionization: ESI
Retention time: 342.991
Column name: Poroshell 120,EC-C18 2.1x100mm,2.7um
Precursor m/z: 255.064
Precursor type: [M+H]+
Base peak: 137.023
m/z	relative intensity
81.033	92
89.037	74
91.054	323
92.057	17
93.033	33
95.012	48
107.050	36
109.029	108
115.054	49
117.034	56
119.048	246
120.050	26
121.028	96
128.061	83
129.066	26
131.047	40
137.023	999
138.027	75
139.050	39
141.072	24
145.029	788
146.031	71
152.060	135
153.067	66
155.035	18
157.061	57
167.053	20
169.064	23
181.062	74
227.072	34
234.935	25
252.950	23
255.063	57
