Mass spectrum: Wighteone O-glucoside; ESI-TOF; MS2; CE:15 eV; [M+H]+
Name: Wighteone O-glucoside
Class: Natural Product; isoflavone
Formula: C26H28O10
Exact mass: 500.16824709599996
Instrument: micrOTOF-Q
Instrument type: ESI-TOF
Ms type: MS2
Ion mode: POSITIVE
Collision energy: 15 eV
Ionization: ESI
Retention time: 445.841
Column name: Poroshell 120,EC-C18 2.1x100mm,2.7um
Precursor m/z: 501.177
Precursor type: [M+H]+
Base peak: 339.122
m/z	relative intensity
339.1217	999
