Mass spectrum: Luteolin; ESI-TOF; MS2; CE:15 eV; [M+H]+
Name: Luteolin
Name: Luteolol
Name: Flacitran
Class: Natural Product; flavone
Formula: C15H10O6
Exact mass: 286.04773804
SMILES: OC1=CC(O)=C2C(=O)C=C(OC2(=C1))C3=CC=C(O)C(O)=C3
InChI: InChI=1S/C15H10O6/c16-8-4-11(19)15-12(20)6-13(21-14(15)5-8)7-1-2-9(17)10(18)3-7/h1-6,16-19H
Instrument: micrOTOF-Q
Instrument type: ESI-TOF
Ms type: MS2
Ion mode: POSITIVE
Collision energy: 15 eV
Ionization: ESI
Retention time: 380.397
Column name: Poroshell 120,EC-C18 2.1x100mm,2.7um
Precursor m/z: 287.053
Precursor type: [M+H]+
Base peak: 153.018
m/z	relative intensity
89.038	158
90.042	16
97.027	26
107.047	28
109.029	22
111.011	25
115.054	45
117.034	126
127.047	16
128.063	43
129.067	18
135.044	232
136.048	20
137.022	117
139.053	83
145.062	15
153.018	999
154.022	62
157.063	47
161.023	146
162.024	18
167.048	21
171.041	32
179.036	16
185.057	56
195.042	17
212.042	12
213.054	42
241.047	64
242.052	16
269.048	17
287.053	135
288.056	31
