Mass spectrum: Luteone 4',7-O-diglucoside; ESI-TOF; MS2; CE:25 eV; [M-H]-
Name: Luteone 4',7-O-diglucoside
Class: Natural Product; isoflavone
Formula: C32H38O16
Exact mass: 678.215985136
SMILES: C1=CC(=CC(=C1C3=COC2=CC(=C(C(=C2C3=O)O)CC=C(C)C)O[C@H]4[C@@H]([C@H]([C@@H]([C@H](O4)CO)O)O)O)O)O[C@H]5[C@@H]([C@H]([C@@H]([C@H](O5)CO)O)O)O
InChI: InChI=1S/C32H38O16/c1-12(2)3-5-15-18(46-32-30(43)28(41)26(39)21(10-34)48-32)8-19-22(23(15)36)24(37)16(11-44-19)14-6-4-13(7-17(14)35)45-31-29(42)27(40)25(38)20(9-33)47-31/h3-4,6-8,11,20-21,25-36,38-43H,5,9-10H2,1-2H3/t20-,21-,25-,26-,27+,28+,29-,30-,31-,32-/m1/s1
Instrument: micrOTOF-Q
Instrument type: ESI-TOF
Ms type: MS2
Ion mode: NEGATIVE
Ionization: ESI
Collision energy: 25 eV
Retention time: 332.692
Column name: Poroshell 120,EC-C18 2.1x100mm,2.7um
Precursor m/z: 677.211
Precursor type: [M-H]-
Base peak: 515.161
m/z	relative intensity
353.105	315
515.162	999
516.167	262
