Mass spectrum: Biochanin A O-diglucoside methylmalonylated; ESI-TOF; MS2; CE:15 eV; [M+H]+
Name: Biochanin A O-diglucoside methylmalonylated
Class: Natural Product; isoflavone
Formula: C32H36O18
Exact mass: 708.190164312
SMILES: not available
InChI: not available
Instrument: micrOTOF-Q
Instrument type: ESI-TOF
Precursor m/z: 709.197
Precursor type: [M+H]+
Base peak: 285.08
m/z	relative intensity
285.0800	999
709.1962	189
