Mass spectrum: Apigenin O-glucoside malonylated; ESI-TOF; MS2; CE:25 eV; [M-H]-
Name: Apigenin O-glucoside malonylated
Class: Natural Product; flavone
Formula: C24H22O13
Exact mass: 518.106040764
Instrument: micrOTOF-Q
Instrument type: ESI-TOF
Ms type: MS2
Ion mode: NEGATIVE
Ionization: ESI
Collision energy: 25 eV
Retention time: 360.9
Column name: Poroshell 120,EC-C18 2.1x100mm,2.7um
Precursor m/z: 473.109
Precursor type: [M-H]-
Base peak: 268.039
m/z	relative intensity
268.039	999
269.046	959
434.808	506
473.109	756
