Mass spectrum: Keampferol; ESI-TOF; MS2; CE:15 eV; [M+H]+
Name: Keampferol
Name: Robigenin
Name: 3,5,7-Trihydroxy-2-(4-hydroxyphenyl)-4H-1-benzopyran-4-one
Class: Natural Product; flavonol
Formula: C15H10O6
Exact mass: 286.04773804
SMILES: OC=1C=CC(=CC=1)C=2OC3=CC(O)=CC(O)=C3(C(=O)C=2(O))
InChI: InChI=1S/C15H10O6/c16-8-3-1-7(2-4-8)15-14(20)13(19)12-10(18)5-9(17)6-11(12)21-15/h1-6,16-18,20H
Instrument: micrOTOF-Q
Instrument type: ESI-TOF
Ms type: MS2
Ion mode: POSITIVE
Collision energy: 15 eV
Ionization: ESI
Retention time: 447.179
Column name: Poroshell 120,EC-C18 2.1x100mm,2.7um
Precursor m/z: 287.052
Precursor type: [M+H]+
Base peak: 153.017
m/z	relative intensity
91.053	29
93.033	46
97.028	19
103.052	26
105.034	70
107.049	89
109.027	47
111.011	36
115.055	72
119.046	41
121.028	377
122.029	29
127.050	26
128.060	84
129.070	50
131.048	39
133.030	29
135.048	25
136.016	19
137.022	112
139.051	41
145.062	69
147.042	98
153.017	999
154.021	74
157.063	167
161.055	33
165.018	85
171.042	50
185.060	51
213.054	129
214.057	25
217.051	19
229.047	61
241.046	19
258.048	37
287.049	48
