Mass spectrum: Apigenin C-glucoside malonylated; ESI-TOF; MS2; CE:25 eV; [M-H]-
Name: Apigenin C-glucoside malonylated
Class: Natural Product; flavone
Formula: C24H22O13
Exact mass: 518.106040764
Instrument: micrOTOF-Q
Instrument type: ESI-TOF
Ms type: MS2
Ion mode: NEGATIVE
Ionization: ESI
Collision energy: 25 eV
Retention time: 293.593
Column name: Poroshell 120,EC-C18 2.1x100mm,2.7um
Precursor m/z: 517.086
Precursor type: [M-H]-
Base peak: 311.045
m/z	relative intensity
269.037	17
281.035	9
282.041	7
283.053	92
284.057	15
293.032	10
311.045	999
312.049	141
313.053	23
323.047	26
324.046	8
341.057	121
342.058	22
353.058	17
377.056	17
395.063	6
413.078	876
414.083	175
415.087	23
431.092	18
473.100	85
474.105	20
