Mass spectrum: Genistein; ESI-TOF; MS2; CE:25 eV; [M-H]-
Name: Genistein
Name: 5,7-Dihydroxy-3-(4-hydroxyphenyl)chromen-4-one
Name: 4',5,7-Trihydroxyisoflavone
Class: Natural Product; isoflavone
Formula: C15H10O5
Exact mass: 270.05282342
SMILES: OC=1C=CC(=CC=1)C2=COC3=CC(O)=CC(O)=C3(C2(=O))
InChI: InChI=1S/C15H10O5/c16-9-3-1-8(2-4-9)11-7-20-13-6-10(17)5-12(18)14(13)15(11)19/h1-7,16-18H
Instrument: micrOTOF-Q
Instrument type: ESI-TOF
Ms type: MS2
Ion mode: NEGATIVE
Ionization: ESI
Collision energy: 25 eV
Retention time: 427.243
Column name: Poroshell 120,EC-C18 2.1x100mm,2.7um
Precursor m/z: 269.041
Precursor type: [M-H]-
Base peak: 133.027
m/z	relative intensity
91.019	65
105.033	79
107.013	125
117.033	64
123.042	60
130.039	35
131.047	74
132.020	350
133.027	999
134.035	224
135.043	314
143.049	55
151.004	44
154.040	60
155.050	91
156.053	37
157.031	120
158.035	53
159.043	350
160.047	31
167.047	31
169.062	36
171.044	35
173.062	32
180.055	129
181.060	60
182.039	52
183.043	129
184.047	26
195.041	44
196.049	91
199.036	43
201.051	50
213.054	29
223.040	43
224.045	81
225.052	25
239.031	33
241.045	25
269.043	98
270.044	27
