Mass spectrum: Apigenin O-glucoside malonylated; ESI-TOF; MS2; CE:15 eV; [M+H]+
Name: Apigenin O-glucoside malonylated
Class: Natural Product; flavone
Formula: C24H22O13
Exact mass: 518.106040764
Instrument: micrOTOF-Q
Instrument type: ESI-TOF
Ms type: MS2
Ion mode: POSITIVE
Collision energy: 15 eV
Ionization: ESI
Retention time: 358.763
Column name: Poroshell 120,EC-C18 2.1x100mm,2.7um
Precursor m/z: 519.114
Precursor type: [M+H]+
Base peak: 271.06
m/z	relative intensity
271.0602	999
272.0628	130
519.1157	329
520.1182	109
