Mass spectrum: Genistein 4',7-O-diglucoside dimalonylated; ESI-TOF; MS2; CE:25 eV; [M-H]-
Name: Genistein 4',7-O-diglucoside dimalonylated
Class: Natural Product; isoflavone
Formula: C33H34O21
Exact mass: 766.159258108
Instrument: micrOTOF-Q
Instrument type: ESI-TOF
Ms type: MS2
Ion mode: NEGATIVE
Ionization: ESI
Collision energy: 25 eV
Retention time: 287.403
Column name: Poroshell 120,EC-C18 2.1x100mm,2.7um
Precursor m/z: 765.159
Precursor type: [M-H]-
Base peak: 473.109
m/z	relative intensity
473.1095	999
474.1186	237
475.1181	42
