Mass spectrum: Biochanin A 8-C-glucoside malonylated; ESI-TOF; MS2; CE:25 eV; [M-H]-
Name: Biochanin A 8-C-glucoside malonylated
Class: Natural Product; isoflavone
Formula: C25H24O13
Exact mass: 532.1216908279999
Instrument: micrOTOF-Q
Instrument type: ESI-TOF
Ms type: MS2
Ion mode: NEGATIVE
Ionization: ESI
Collision energy: 25 eV
Retention time: 362.598
Column name: Poroshell 120,EC-C18 2.1x100mm,2.7um
Precursor m/z: 487.127
Precursor type: [M-H]-
Base peak: 325.073
m/z	relative intensity
282.052	239
283.060	66
297.077	165
298.078	23
325.073	999
326.075	141
337.070	51
355.078	75
367.082	41
427.103	66
487.137	35
