Mass spectrum: Luteone O-glucoside; ESI-TOF; MS2; CE:15 eV; [M+H]+
Name: Luteone O-glucoside
Class: Natural Product; isoflavone
Formula: C26H28O11
Exact mass: 516.163161716
Instrument: micrOTOF-Q
Instrument type: ESI-TOF
Ms type: MS2
Ion mode: POSITIVE
Collision energy: 15 eV
Ionization: ESI
Retention time: 430.297
Column name: Poroshell 120,EC-C18 2.1x100mm,2.7um
Precursor m/z: 517.175
Precursor type: [M+H]+
Base peak: 299.057
m/z	relative intensity
299.0570	999
355.1176	600
