Mass spectrum: 2'-Hydroxygenistein C-glucoside malonylated; ESI-TOF; MS2; CE:15 eV; [M+H]+
Name: 2'-Hydroxygenistein C-glucoside malonylated
Name: 2'Hydroxygenistein C-glucoside malonylated
Class: Natural Product; isoflavone
Formula: C24H22O14
Exact mass: 534.1009553839999
Instrument: micrOTOF-Q
Instrument type: ESI-TOF
Ms type: MS2
Ion mode: POSITIVE
Collision energy: 15 eV
Ionization: ESI
Retention time: 270.066
Column name: Poroshell 120,EC-C18 2.1x100mm,2.7um
Precursor m/z: 535.109
Precursor type: [M+H]+
Base peak: 535.109
m/z	relative intensity
299.0547	83
311.0563	153
329.0668	450
330.0737	79
353.0658	283
354.0706	64
359.0781	64
367.0808	60
377.0677	100
395.0787	331
396.0819	79
413.0954	112
431.1101	94
449.1039	85
455.1005	337
456.1079	135
473.1165	329
474.1126	68
491.1234	119
499.0899	226
500.0932	56
517.1006	527
518.1075	102
519.0972	49
535.1113	999
536.1124	275
537.1390	79
