Mass spectrum: Isovitexin; ESI-TOF; MS2; CE:25 eV; [M-H]-
Name: Isovitexin
Name: Homovitexin
Name: Saponaretin
Name: Apigenin-6-C-glucoside
Class: Natural Product; flavone
Formula: C21H20O10
Exact mass: 432.10564683999996
SMILES: C1=CC(=CC=C1C2=CC(=O)C3=C(C(=C(C=C3O2)O)[C@H]4[C@@H]([C@H]([C@@H]([C@H](O4)CO)O)O)O)O)O
InChI: InChI=1S/C21H20O10/c22-7-14-17(26)19(28)20(29)21(31-14)16-11(25)6-13-15(18(16)27)10(24)5-12(30-13)8-1-3-9(23)4-2-8/h1-6,14,17,19-23,25-29H,7H2/t14-,17-,19+,20-,21+/m1/s1
Instrument: micrOTOF-Q
Instrument type: ESI-TOF
Ms type: MS2
Ion mode: NEGATIVE
Ionization: ESI
Collision energy: 25 eV
Retention time: 247.009
Column name: Poroshell 120,EC-C18 2.1x100mm,2.7um
Precursor m/z: 431.091
Precursor type: [M-H]-
Base peak: 311.05
m/z	relative intensity
161.026	8
239.069	8
268.036	11
269.042	61
270.043	9
281.043	57
282.049	100
283.058	451
284.064	73
285.061	11
293.041	10
295.055	28
309.039	17
311.050	999
312.054	134
313.057	32
314.040	11
323.052	125
324.058	30
325.068	14
341.061	385
342.062	47
343.067	11
349.069	8
353.057	40
355.073	8
365.058	9
383.072	13
413.085	10
431.089	12
