Mass spectrum: 2'-Hydroxygenistein O-glucoside malonylated; ESI-TOF; MS2; CE:15 eV; [M+H]+
Name: 2'-Hydroxygenistein O-glucoside malonylated
Class: Natural Product; isoflavone
Formula: C24H22O14
Exact mass: 534.1009553839999
Instrument: micrOTOF-Q
Instrument type: ESI-TOF
Ms type: MS2
Ion mode: POSITIVE
Collision energy: 15 eV
Ionization: ESI
Retention time: 285.464
Column name: Poroshell 120,EC-C18 2.1x100mm,2.7um
Precursor m/z: 535.103
Precursor type: [M+H]+
Base peak: 287.056
m/z	relative intensity
287.0535	999
288.0581	166
