Mass spectrum: Luteolin 3',7-O-diglucoside; ESI-TOF; MS2; CE:25 eV; [M-H]-
Name: 5-hydroxy-2-[4-hydroxy-3-[(2S,3R,4S,5R,6R)-3,4,5-trihydroxy-6-(hydroxymethyl)oxan-2-yl]oxy-phenyl]-7-[(2S,3R,4S,5R,6R)-3,4,5-trihydroxy-6-(hydroxymethyl)oxan-2-yl]oxy-chromen-4-one
Name: luteolin-3',7-di-O-glucoside
Name: Luteolin 3',7-O-diglucoside
Name: Luteolin-7,3'-di-O-glucoside
Name: Lutl-3p-Glc-7-Glc
Class: Natural Product; flavone
Formula: C27H30O16
Exact mass: 610.15338
SMILES: C1=CC(=C(C=C1C2=CC(=O)C3=C(C=C(C=C3O2)O[C@H]4[C@@H]([C@H]([C@@H]([C@H](O4)CO)O)O)O)O)O[C@H]5[C@@H]([C@H]([C@@H]([C@H](O5)CO)O)O)O)O
InChI: InChI=1S/C27H30O16/c28-7-17-20(33)22(35)24(37)26(42-17)39-10-4-12(31)19-13(32)6-14(40-16(19)5-10)9-1-2-11(30)15(3-9)41-27-25(38)23(36)21(34)18(8-29)43-27/h1-6,17-18,20-31,33-38H,7-8H2/t17-,18-,20-,21-,22+,23+,24-,25-,26-,27-/m1/s1
Instrument: micrOTOF-Q
Instrument type: ESI-TOF
Ms type: MS2
Ion mode: NEGATIVE
Ionization: ESI
Collision energy: 25 eV
Retention time: 207.968
Column name: Poroshell 120,EC-C18 2.1x100mm,2.7um
Precursor m/z: 609.147
Precursor type: [M-H]-
Base peak: 447.093
m/z	relative intensity
285.0392	24
447.0927	999
448.0968	214
449.0982	42
