Mass spectrum: Luteone O-glucoside; ESI-TOF; MS2; CE:25 eV; [M-H]-
Name: Luteone O-glucoside
Class: Natural Product; isoflavone
Formula: C26H28O11
Exact mass: 516.163161716
Instrument: micrOTOF-Q
Instrument type: ESI-TOF
Ms type: MS2
Ion mode: NEGATIVE
Ionization: ESI
Collision energy: 25 eV
Retention time: 429.44
Column name: Poroshell 120,EC-C18 2.1x100mm,2.7um
Precursor m/z: 515.157
Precursor type: [M-H]-
Base peak: 353.102
m/z	relative intensity
353.1023	999
