Mass spectrum: 2'-Hydroxygenistein C-glucoside malonylated; ESI-TOF; MS2; CE:25 eV; [M-H]-
Name: 2'-Hydroxygenistein C-glucoside malonylated
Name: 2'Hydroxygenistein C-glucoside malonylated
Class: Natural Product; isoflavone
Formula: C24H22O14
Exact mass: 534.100955384
Instrument: micrOTOF-Q
Instrument type: ESI-TOF
Ms type: MS2
Ion mode: NEGATIVE
Ionization: ESI
Collision energy: 25 eV
Retention time: 260.387
Column name: Poroshell 120,EC-C18 2.1x100mm,2.7um
Precursor m/z: 533.084
Precursor type: [M-H]-
Base peak: 327.039
m/z	relative intensity
327.0393	999
