Mass spectrum: 2'-Hydroxygenistein O,C-diglucoside malonylated; ESI-TOF; MS2; CE:25 eV; [M-H]-
Name: 2'-Hydroxygenistein O,C-diglucoside malonylated
Class: Natural Product; isoflavone
Formula: C30H32O19
Exact mass: 696.153778804
Instrument: micrOTOF-Q
Instrument type: ESI-TOF
Ms type: MS2
Ion mode: NEGATIVE
Ionization: ESI
Collision energy: 25 eV
Retention time: 263.344
Column name: Poroshell 120,EC-C18 2.1x100mm,2.7um
Precursor m/z: 695.148
Precursor type: [M-H]-
Base peak: 489.101
m/z	relative intensity
285.0393	21
447.0947	680
448.1022	144
449.0958	37
489.1053	999
490.1045	214
491.1086	44
