Mass spectrum: Luteone diglucoside malonylated; ESI-TOF; MS2; CE:25 eV; [M-H]-
Name: Luteone diglucoside malonylated
Class: Natural Product; isoflavone
Formula: C35H40O19
Exact mass: 764.21637906
Instrument: micrOTOF-Q
Instrument type: ESI-TOF
Ms type: MS2
Ion mode: NEGATIVE
Ionization: ESI
Collision energy: 25 eV
Retention time: 376.836 sec
Column name: Poroshell 120,EC-C18 2.1x100mm,2.7um
Precursor m/z: 719.22
Precursor type: [M-H]-
Base peak: 515.164
m/z	relative intensity
515.1644	999
