Mass spectrum: Kaempferol-7-O-glucoside; ESI-TOF; MS2; CE:15 eV; [M+H]+
Name: Kaempferol-7-O-glucoside
Name: Populnin
Class: Natural Product; flavonol
Formula: C21H20O11
Exact mass: 448.10056146
SMILES: C1=CC(=CC=C1C2=C(C(=O)C3=C(C=C(C=C3O2)O[C@H]4[C@@H]([C@H]([C@@H]([C@H](O4)CO)O)O)O)O)O)O
InChI: InChI=1S/C21H20O11/c22-7-13-15(25)17(27)19(29)21(32-13)30-10-5-11(24)14-12(6-10)31-20(18(28)16(14)26)8-1-3-9(23)4-2-8/h1-6,13,15,17,19,21-25,27-29H,7H2/t13-,15-,17+,19-,21-/m1/s1
Instrument: micrOTOF-Q
Instrument type: ESI-TOF
Ms type: MS2
Ion mode: POSITIVE
Collision energy: 15 eV
Ionization: ESI
Retention time: 304.533
Column name: Poroshell 120,EC-C18 2.1x100mm,2.7um
Precursor m/z: 449.104
Precursor type: [M+H]+
Base peak: 287.048
m/z	relative intensity
287.0515	999
288.0555	113
289.0574	15
