Mass spectrum: Biochanin A O-diglucoside methylmalonylated; ESI-TOF; MS2; CE:15 eV; [M+H]+
Name: Biochanin A O-diglucoside methylmalonylated
Class: Natural Product; isoflavone
Formula: C32H36O18
Exact mass: 708.190164312
Instrument: micrOTOF-Q
Instrument type: ESI-TOF
Ms type: MS2
Ion mode: POSITIVE
Collision energy: 15 eV
Ionization: ESI
Retention time: 434.857
Column name: Poroshell 120,EC-C18 2.1x100mm,2.7um
Precursor m/z: 709.197
Precursor type: [M+H]+
Base peak: 285.08
m/z	relative intensity
285.0800	999
709.1962	189
