Mass spectrum: Biochanin A 8-C-glucoside malonylated; ESI-TOF; MS2; CE:15 eV; [M+H]+
Name: Biochanin A 8-C-glucoside malonylated
Class: Natural Product; isoflavone
Formula: C25H24O13
Exact mass: 532.1216908279999
Instrument: micrOTOF-Q
Instrument type: ESI-TOF
Ms type: MS2
Ion mode: POSITIVE
Collision energy: 15 eV
Ionization: ESI
Retention time: 356.652
Column name: Poroshell 120,EC-C18 2.1x100mm,2.7um
Precursor m/z: 533.134
Precursor type: [M+H]+
Base peak: 533.133
m/z	relative intensity
285.0754	27
297.0771	46
309.0767	153
310.0783	27
327.0897	462
328.0914	87
351.0877	230
352.0941	52
357.0975	72
365.1019	44
369.0985	29
375.0871	95
381.1007	23
393.1021	233
394.1078	62
411.1123	144
412.1096	40
429.1234	112
430.1237	39
447.1289	76
453.1212	380
454.1248	79
455.1227	25
471.1352	361
472.1382	90
479.1085	33
489.1461	139
490.1461	32
497.1098	184
498.1157	52
515.1238	426
516.1268	111
517.1367	26
533.1334	999
534.1382	289
535.1410	101
660.8069	25
