Mass spectrum: Luteolin 7-O-glucoside; ESI-TOF; MS2; CE:25 eV; [M-H]-
Name: Luteolin 7-O-glucoside
Name: Luteolin-7-O-glucoside
Name: 7-O-Beta-D-Glucosyl-5,7,3',4'-tetrahydroxyflavone
Name: Cynaroside
Name: Glucoluteolin
Name: Luteoloside
Class: Natural Product; flavone
Formula: C21H20O11
Exact mass: 448.10056146
SMILES: OCC4OC(OC1=CC(O)=C2C(=O)C=C(OC2(=C1))C=3C=CC(O)=C(O)C=3)C(O)C(O)C4(O)
InChI: InChI=1S/C21H20O11/c22-7-16-18(27)19(28)20(29)21(32-16)30-9-4-12(25)17-13(26)6-14(31-15(17)5-9)8-1-2-10(23)11(24)3-8/h1-6,16,18-25,27-29H,7H2/t16-,18-,19+,20-,21-/m1/s1
Instrument: micrOTOF-Q
Instrument type: ESI-TOF
Ms type: MS2
Ion mode: NEGATIVE
Ionization: ESI
Collision energy: 25 eV
Retention time: 308.566
Column name: Poroshell 120,EC-C18 2.1x100mm,2.7um
Precursor m/z: 447.094
Precursor type: [M-H]-
Base peak: 285.04
m/z	relative intensity
285.040	999
286.044	159
287.047	26
412.830	70
