Mass spectrum: Genistein 7-O-glucosylglucoside malonylated; ESI-TOF; MS2; CE:15 eV; [M+H]+
Name: Genistein 7-O-glucosylglucoside malonylated
Class: Natural Product; isoflavone
Formula: C30H32O18
Exact mass: 680.158864184
Instrument: micrOTOF-Q
Instrument type: ESI-TOF
Ms type: MS2
Ion mode: POSITIVE
Collision energy: 15 eV
Ionization: ESI
Retention time: 299.416
Column name: Poroshell 120,EC-C18 2.1x100mm,2.7um
Precursor m/z: 681.17
Precursor type: [M+H]+
Base peak: 271.06
m/z	relative intensity
271.0599	999
