Mass spectrum: Biochanin A O-diglucoside malonylated; ESI-TOF; MS2; CE:25 eV; [M-H]-
Name: Biochanin A O-diglucoside malonylated
Class: Natural Product; isoflavone
Formula: C31H34O18
Exact mass: 694.174514248
Instrument: micrOTOF-Q
Instrument type: ESI-TOF
Ms type: MS2
Ion mode: NEGATIVE
Ionization: ESI
Collision energy: 25 eV
Retention time: 409.115
Column name: Poroshell 120,EC-C18 2.1x100mm,2.7um
Precursor m/z: 649.177
Precursor type: [M-H]-
Base peak: 283.059
m/z	relative intensity
283.059	999
