Mass spectrum: Biochanin A O-glucoside malonylated; ESI-TOF; MS2; CE:15 eV; [M+H]+
Name: Biochanin A O-glucoside malonylated
Class: Natural Product; isoflavone
Formula: C25H24O13
Exact mass: 532.1216908279999
SMILES: not available
InChI: not available
Instrument: micrOTOF-Q
Instrument type: ESI-TOF
Precursor m/z: 533.131
Precursor type: [M+H]+
Base peak: 285.076
m/z	relative intensity
285.0760	999
286.0793	102
287.0829	13
447.1287	39
448.1301	11
449.1355	4
489.1377	6
515.1185	7
533.1279	80
534.1285	18
