Mass spectrum: Biochanin A; ESI-TOF; MS2; CE:25 eV; [M-H]-
Name: Biochanin A
Name: 5,7-Dihydroxy-4'-methoxyisoflavone
Name: 4'-Methylgenistein
Class: Natural Product; isoflavone
Formula: C16H12O5
Exact mass: 284.068473484
SMILES: COC=1C=CC(=CC=1)C2=COC3=CC(O)=CC(O)=C3(C2(=O))
InChI: InChI=1S/C16H12O5/c1-20-11-4-2-9(3-5-11)12-8-21-14-7-10(17)6-13(18)15(14)16(12)19/h2-8,17-18H,1H3
Instrument: micrOTOF-Q
Instrument type: ESI-TOF
Ms type: MS2
Ion mode: NEGATIVE
Ionization: ESI
Collision energy: 25 eV
Retention time: 845.166
Column name: Poroshell 120,EC-C18 2.1x100mm,2.7um
Precursor m/z: 283.058
Precursor type: [M-H]-
Base peak: 239.031
m/z	relative intensity
91.016	13
104.023	28
107.011	20
132.019	304
133.024	29
134.034	25
135.007	62
142.039	15
143.047	10
147.008	18
151.001	31
154.041	31
155.046	8
156.051	10
166.042	13
167.047	73
168.055	32
170.035	10
171.043	10
172.046	7
179.047	14
180.054	17
182.035	12
183.042	62
184.051	70
194.034	7
195.042	162
196.048	72
197.046	8
198.035	17
199.036	18
200.047	10
210.030	11
211.038	820
212.041	174
213.043	18
222.027	10
223.038	163
224.045	78
225.041	9
226.024	50
227.030	10
239.031	999
240.039	183
241.041	33
250.025	10
251.033	9
267.026	791
268.033	409
269.036	47
270.041	8
