Mass spectrum: Biochanin A O-triglucoside; ESI-TOF; MS2; CE:15 eV; [M+H]+
Name: Biochanin A O-triglucoside
Class: Natural Product; isoflavone
Formula: C34H42O20
Exact mass: 770.226943744
Instrument: micrOTOF-Q
Instrument type: ESI-TOF
Ms type: MS2
Ion mode: POSITIVE
Collision energy: 15 eV
Ionization: ESI
Retention time: 307.499
Column name: Poroshell 120,EC-C18 2.1x100mm,2.7um
Precursor m/z: 771.238
Precursor type: [M+H]+
Base peak: 609.178
m/z	relative intensity
285.0765	833
447.1227	361
609.1782	999
610.1874	278
