Mass spectrum: Biochanin A; ESI-TOF; MS2; CE:15 eV; [M+H]+
Name: Biochanin A
Name: 5,7-Dihydroxy-4'-methoxyisoflavone
Name: 4'-Methylgenistein
Class: Natural Product; isoflavone
Formula: C16H12O5
Exact mass: 284.068473484
SMILES: COC=1C=CC(=CC=1)C2=COC3=CC(O)=CC(O)=C3(C2(=O))
InChI: InChI=1S/C16H12O5/c1-20-11-4-2-9(3-5-11)12-8-21-14-7-10(17)6-13(18)15(14)16(12)19/h2-8,17-18H,1H3
Instrument: micrOTOF-Q
Instrument type: ESI-TOF
Ms type: MS2
Ion mode: POSITIVE
Collision energy: 15 eV
Ionization: ESI
Retention time: 837.744
Column name: Poroshell 120,EC-C18 2.1x100mm,2.7um
Precursor m/z: 285.171
Precursor type: [M+H]+
Base peak: 213.053
m/z	relative intensity
89.039	82
90.046	87
91.053	17
95.058	15
96.021	37
102.046	40
103.053	45
105.050	12
108.022	17
111.008	27
115.055	63
116.056	11
117.052	11
118.042	182
119.048	23
121.039	37
123.044	58
124.016	279
125.017	27
128.061	19
129.066	29
130.045	47
131.049	42
132.051	24
133.063	67
135.045	11
137.024	11
139.052	20
140.059	24
141.069	57
144.052	22
145.061	44
149.024	43
152.011	191
153.017	223
154.023	19
155.046	21
157.058	35
158.038	241
159.044	39
160.051	20
168.057	72
169.064	49
170.026	24
171.044	41
172.048	21
173.063	14
183.053	16
184.053	26
185.060	134
186.065	69
187.063	16
196.049	26
197.058	155
198.060	27
200.048	16
211.060	15
213.053	999
214.057	172
215.056	22
216.044	35
217.048	12
224.046	19
225.055	63
226.060	13
227.041	18
229.083	30
241.048	248
242.056	231
243.057	40
253.049	90
254.049	16
269.044	175
270.047	63
271.054	11
