Mass spectrum: Apigenin 7-O-glucosylglucoside; ESI-TOF; MS2; CE:25 eV; [M-H]-
Name: Apigenin 7-O-glucosylglucoside
Class: Natural Product; flavone
Formula: C27H30O15
Exact mass: 594.1584702600001
SMILES: OCC5OC(OC4C(O)C(O)C(OC1=CC(O)=C2C(=O)C=C(OC2(=C1))C=3C=CC(O)=CC=3)OC4(CO))C(O)C(O)C5(O)
InChI: InChI=1S/C27H30O15/c28-8-17-20(33)21(34)23(36)27(40-17)42-25-18(9-29)41-26(24(37)22(25)35)38-12-5-13(31)19-14(32)7-15(39-16(19)6-12)10-1-3-11(30)4-2-10/h1-7,17-18,20-31,33-37H,8-9H2/t17-,18-,20-,21+,22-,23-,24-,25-,26?,27?/m0/s1
Instrument: micrOTOF-Q
Instrument type: ESI-TOF
Ms type: MS2
Ion mode: NEGATIVE
Ionization: ESI
Collision energy: 25 eV
Retention time: 276.394
Column name: Poroshell 120,EC-C18 2.1x100mm,2.7um
Precursor m/z: 593.151
Precursor type: [M-H]-
Base peak: 593.151
m/z	relative intensity
269.0434	910
593.1509	999
