Mass spectrum: 2'-Hydroxygenistein O,C-diglucoside malonylated; ESI-TOF; MS2; CE:15 eV; [M+H]+
Name: 2'-Hydroxygenistein O,C-diglucoside malonylated
Class: Natural Product; isoflavone
Formula: C30H32O19
Exact mass: 696.153778804
Instrument: micrOTOF-Q
Instrument type: ESI-TOF
Ms type: MS2
Ion mode: POSITIVE
Collision energy: 15 eV
Ionization: ESI
Retention time: 230.299
Column name: Poroshell 120,EC-C18 2.1x100mm,2.7um
Precursor m/z: 697.164
Precursor type: [M+H]+
Base peak: 697.158
m/z	relative intensity
431.1127	164
449.1102	629
491.1233	231
535.1121	343
697.1663	999
698.1649	322
