Mass spectrum: 2'-Hydroxygenistein O-glucoside malonylated; ESI-TOF; MS2; CE:25 eV; [M-H]-
Name: 2'-Hydroxygenistein O-glucoside malonylated
Class: Natural Product; isoflavone
Formula: C24H22O14
Exact mass: 534.1009553839999
Instrument: micrOTOF-Q
Instrument type: ESI-TOF
Ms type: MS2
Ion mode: NEGATIVE
Ionization: ESI
Collision energy: 25 eV
Retention time: 292.311
Column name: Poroshell 120,EC-C18 2.1x100mm,2.7um
Precursor m/z: 533.095
Precursor type: [M-H]-
Base peak: 285.038
m/z	relative intensity
285.038	999
286.040	278
327.056	299
489.101	237
