Mass spectrum: Biochanin A 8-C-glucoside; ESI-TOF; MS2; CE:15 eV; [M+H]+
Name: Biochanin A 8-C-glucoside
Class: Natural Product; isoflavone
Formula: C22H22O10
Exact mass: 446.12129690399996
SMILES: COC=1C=CC(=CC=1)C4=COC=3C(=C(O)C=C(O)C=3(C2OC(CO)C(O)C(O)C2(O)))C4(=O)
InChI: InChI=1S/C22H22O10/c1-30-10-4-2-9(3-5-10)11-8-31-21-15(17(11)26)12(24)6-13(25)16(21)22-20(29)19(28)18(27)14(7-23)32-22/h2-6,8,14,18-20,22-25,27-29H,7H2,1H3/t14-,18-,19+,20-,22?/m1/s1
Instrument: micrOTOF-Q
Instrument type: ESI-TOF
Ms type: MS2
Ion mode: POSITIVE
Collision energy: 15 eV
Ionization: ESI
Retention time: 323.321
Column name: Poroshell 120,EC-C18 2.1x100mm,2.7um
Precursor m/z: 447.133
Precursor type: [M+H]+
Base peak: 411.113
m/z	relative intensity
135.0453	3
217.0569	2
243.0306	2
285.0783	3
297.0774	28
298.0833	3
309.0732	7
310.0779	2
325.0838	3
327.0895	157
328.0929	24
329.0970	3
337.1033	7
339.0922	3
351.0879	144
352.0937	24
353.0919	4
355.0880	2
357.0987	89
358.1022	15
359.1106	2
363.0917	8
364.0885	2
365.1038	68
366.1101	12
367.1092	2
369.0993	28
370.1115	5
371.1085	1
375.0857	4
381.0994	217
382.1022	37
383.1137	12
384.1190	2
385.1024	1
387.1106	2
393.0997	192
394.1042	29
395.1101	5
399.1107	5
401.1210	1
411.1110	999
412.1129	155
413.1176	23
414.1158	3
429.1221	868
430.1254	143
431.1294	22
432.1311	3
447.1328	485
448.1381	64
449.1385	16
450.1463	2
