Mass spectrum: Genistein 7-O-glucosylglucoside; ESI-TOF; MS2; CE:15 eV; [M+H]+
Name: Genistein 7-O-glucosylglucoside
Class: Natural Product; isoflavone
Formula: C27H30O15
Exact mass: 594.15847026
SMILES: OCC5OC(OC4C(O)C(O)C(OC1=CC(O)=C2C(=O)C(=COC2(=C1))C=3C=CC(O)=CC=3)OC4(CO))C(O)C(O)C5(O)
InChI: InChI=1S/C27H30O15/c28-7-16-20(33)21(34)23(36)27(40-16)42-25-17(8-29)41-26(24(37)22(25)35)39-12-5-14(31)18-15(6-12)38-9-13(19(18)32)10-1-3-11(30)4-2-10/h1-6,9,16-17,20-31,33-37H,7-8H2/t16-,17-,20-,21+,22-,23-,24-,25-,26?,27?/m0/s1
Instrument: micrOTOF-Q
Instrument type: ESI-TOF
Ms type: MS2
Ion mode: POSITIVE
Collision energy: 15 eV
Ionization: ESI
Retention time: 119.077
Column name: Poroshell 120,EC-C18 2.1x100mm,2.7um
Precursor m/z: 595.166
Precursor type: [M+H]+
Base peak: 271.058
m/z	relative intensity
271.0583	999
272.0638	161
433.1133	431
595.1653	69
