Mass spectrum: Chrysoeriol glucosylglucoside; ESI-TOF; MS2; CE:25 eV; [M-H]-
Name: Chrysoeriol glucosylglucoside
Class: Natural Product; flavone
Formula: C28H32O16
Exact mass: 624.169034944
SMILES: not available
InChI: not available
Instrument: micrOTOF-Q
Instrument type: ESI-TOF
Precursor m/z: 623.167
Precursor type: [M-H]-
Base peak: 299.054
m/z	relative intensity
284.033	41
299.055	999
300.057	116
301.060	27
623.166	157
624.174	45
625.175	30
