Mass spectrum: Apigenin C-glucoside malonylated; ESI-TOF; MS2; CE:15 eV; [M+H]+
Name: Apigenin C-glucoside malonylated
Class: Natural Product; flavone
Formula: C24H22O13
Exact mass: 518.106040764
Instrument: micrOTOF-Q
Instrument type: ESI-TOF
Ms type: MS2
Ion mode: POSITIVE
Collision energy: 15 eV
Ionization: ESI
Retention time: 287.143
Column name: Poroshell 120,EC-C18 2.1x100mm,2.7um
Precursor m/z: 519.117
Precursor type: [M+H]+
Base peak: 519.116
m/z	relative intensity
271.0614	20
283.0610	45
295.0607	124
296.0630	23
313.0714	510
314.0750	60
315.0803	8
337.0714	81
338.0727	13
343.0849	19
351.0875	26
355.0801	12
361.0741	73
362.0788	17
367.0763	16
379.0818	267
380.0867	50
397.0930	183
398.0985	25
415.1045	128
416.1078	25
421.0887	15
433.1135	91
434.1191	14
439.1042	407
440.1106	73
441.1101	18
457.1167	270
458.1214	63
459.1139	10
465.0860	25
466.0934	13
475.1271	107
476.1330	12
483.0984	198
484.1037	49
485.1017	10
501.1051	394
502.1089	85
503.1107	19
519.1160	999
520.1219	162
521.1200	46
