Mass spectrum: Luteolin 4'-O-glucoside; ESI-TOF; MS2; CE:15 eV; [M+H]+
Name: Luteolin 4'-O-glucoside
Name: 4',5,7-TetrahydroxyFLAVone-4'-GLUCOSide
Name: Luteolin-4'-O-glucoside
Name: 3',4',5,7-TetrahydroxyFLAVone-4'-GLUCOSide
Class: Natural Product; flavone
Formula: C21H20O11
Exact mass: 448.10056146
SMILES: OCC4OC(OC=1C=CC(=CC=1(O))C2=CC(=O)C3=C(O)C=C(O)C=C3(O2))C(O)C(O)C4(O)
InChI: InChI=1S/C21H20O11/c22-7-16-18(27)19(28)20(29)21(32-16)31-13-2-1-8(3-10(13)24)14-6-12(26)17-11(25)4-9(23)5-15(17)30-14/h1-6,16,18-25,27-29H,7H2/t16-,18-,19+,20-,21-/m1/s1
Instrument: micrOTOF-Q
Instrument type: ESI-TOF
Ms type: MS2
Ion mode: POSITIVE
Collision energy: 15 eV
Ionization: ESI
Retention time: 323.782
Column name: Poroshell 120,EC-C18 2.1x100mm,2.7um
Precursor m/z: 449.109
Precursor type: [M+H]+
Base peak: 287.054
m/z	relative intensity
287.0542	999
288.0556	176
449.1108	327
450.1118	66
