Mass spectrum: Luteone O-glucoside; ESI-TOF; MS2; CE:15 eV; [M+H]+
Name: Luteone O-glucoside
Class: Natural Product; isoflavone
Formula: C26H28O11
Exact mass: 516.163161716
Instrument: micrOTOF-Q
Instrument type: ESI-TOF
Ms type: MS2
Ion mode: POSITIVE
Collision energy: 15 eV
Ionization: ESI
Retention time: 579.778
Column name: Poroshell 120,EC-C18 2.1x100mm,2.7um
Precursor m/z: 517.174
Precursor type: [M+H]+
Base peak: 461.111
m/z	relative intensity
299.0628	343
461.1114	999
