Mass spectrum: 2'-Hydroxygenistein-7-O-glucoside; ESI-TOF; MS2; CE:15 eV; [M+H]+
Name: 2'-Hydroxygenistein-7-O-glucoside
Class: Natural Product; isoflavone
Formula: C21H20O11
Exact mass: 448.10056146
SMILES: C1=CC(=C(C=C1O)O)C2=COC3=CC(=CC(=C3C2=O)O)OC4C(C(C(C(O4)CO)O)O)O
InChI: InChI=1S/C21H20O11/c22-6-15-18(27)19(28)20(29)21(32-15)31-9-4-13(25)16-14(5-9)30-7-11(17(16)26)10-2-1-8(23)3-12(10)24/h1-5,7,15,18-25,27-29H,6H2/t15-,18-,19+,20-,21-/m1/s1
Instrument: micrOTOF-Q
Instrument type: ESI-TOF
Ms type: MS2
Ion mode: POSITIVE
Collision energy: 15 eV
Ionization: ESI
Retention time: 214.365
Column name: Poroshell 120,EC-C18 2.1x100mm,2.7um
Precursor m/z: 449.103
Precursor type: [M+H]+
Base peak: 287.048
m/z	relative intensity
287.0520	999
288.0551	148
