Mass spectrum: Chrysoeriol 8-C-glucoside malonylated; ESI-TOF; MS2; CE:15 eV; [M+H]+
Name: Chrysoeriol 8-C-glucoside malonylated
Class: Natural Product; flavone
Formula: C25H25O14
Exact mass: 549.12443048
SMILES: not available
InChI: not available
Instrument: micrOTOF-Q
Instrument type: ESI-TOF
Precursor m/z: 549.127
Precursor type: [M+H]+
Base peak: 549.116
m/z	relative intensity
313.0685	17
325.0721	59
343.0831	292
344.0860	66
355.0774	14
367.0825	203
368.0888	33
373.0963	71
381.1048	29
391.0830	49
409.0902	152
410.0976	32
427.1022	78
428.1083	14
445.1190	67
463.1208	49
469.1146	275
470.1201	50
487.1297	179
488.1286	48
489.1241	20
495.0997	16
505.1336	118
506.1462	16
513.1096	153
514.1100	33
531.1113	275
532.1183	82
533.1229	16
549.1269	999
550.1274	209
551.1304	40
