Mass spectrum: Kaempferol O-glucoside malonylated; ESI-TOF; MS2; CE:15 eV; [M+H]+
Name: Kaempferol O-glucoside malonylated
Class: Natural Product; flavonol
Formula: C24H22O14
Exact mass: 534.100955384
Instrument: micrOTOF-Q
Instrument type: ESI-TOF
Ms type: MS2
Ion mode: POSITIVE
Collision energy: 15 eV
Ionization: ESI
Retention time: 310.527
Column name: Poroshell 120,EC-C18 2.1x100mm,2.7um
Precursor m/z: 535.102
Precursor type: [M+H]+
Base peak: 287.053
m/z	relative intensity
287.0526	999
288.0576	155
449.1082	39
535.1070	110
