Mass spectrum: Chrysoeriol diglucoside methylmalonylated; ESI-TOF; MS2; CE:15 eV; [M+H]+
Name: Chrysoeriol diglucoside methylmalonylated
Class: Natural Product; flavone
Formula: C32H36O19
Exact mass: 724.1850789319999
Instrument: micrOTOF-Q
Instrument type: ESI-TOF
Ms type: MS2
Ion mode: POSITIVE
Collision energy: 15 eV
Ionization: ESI
Retention time: 391.965
Column name: Poroshell 120,EC-C18 2.1x100mm,2.7um
Precursor m/z: 725.186
Precursor type: [M+H]+
Base peak: 301.068
m/z	relative intensity
301.0676	999
