Mass spectrum: 2'-Hydroxygenistein; ESI-TOF; MS2; CE:25 eV; [M-H]-
Name: 2'-Hydroxygenistein
Name: 2'-Hydroxy-genistein
Name: 5,7,2',4'-Tetrahydroxyisoflavone
Class: Natural Product; isoflavone
Formula: C15H10O6
Exact mass: 286.04773803999996
SMILES: OC1=CC=C(C(O)=C1)C2=COC3=CC(O)=CC(O)=C3(C2(=O))
InChI: InChI=1S/C15H10O6/c16-7-1-2-9(11(18)3-7)10-6-21-13-5-8(17)4-12(19)14(13)15(10)20/h1-6,16-19H
Instrument: micrOTOF-Q
Instrument type: ESI-TOF
Ms type: MS2
Ion mode: NEGATIVE
Ionization: ESI
Collision energy: 25 eV
Retention time: 361.026
Column name: Poroshell 120,EC-C18 2.1x100mm,2.7um
Precursor m/z: 285.04
Precursor type: [M-H]-
Base peak: 133.024
m/z	relative intensity
89.035	50
107.016	52
109.023	39
121.033	50
123.039	84
131.047	51
132.019	77
133.028	999
134.030	81
143.048	44
145.036	62
146.039	27
147.032	74
148.019	106
149.024	253
151.020	60
157.034	66
171.047	90
172.047	32
173.038	67
174.036	34
175.039	258
176.037	34
185.051	45
187.038	53
189.053	29
195.045	43
198.031	64
199.038	108
201.017	62
211.040	35
215.031	43
217.053	45
229.048	36
240.045	39
