Mass spectrum: Chrysoeriol 7-O-glucoside; ESI-TOF; MS2; CE:15 eV; [M+H]+
Name: Chrysoeriol 7-O-glucoside
Class: Natural Product; flavone
Formula: C22H22O11
Exact mass: 462.116211524
SMILES: COC=1C=C(C=CC=1(O))C2=CC(=O)C3=C(O)C=C(C=C3(O2))OC4OC(CO)C(O)C(O)C4(O)
InChI: InChI=1S/C22H22O11/c1-30-15-4-9(2-3-11(15)24)14-7-13(26)18-12(25)5-10(6-16(18)32-14)31-22-21(29)20(28)19(27)17(8-23)33-22/h2-7,17,19-25,27-29H,8H2,1H3/t17-,19-,20+,21-,22-/m1/s1
Instrument: micrOTOF-Q
Instrument type: ESI-TOF
Ms type: MS2
Ion mode: POSITIVE
Collision energy: 15 eV
Ionization: ESI
Retention time: 334.771
Column name: Poroshell 120,EC-C18 2.1x100mm,2.7um
Precursor m/z: 463.124
Precursor type: [M+H]+
Base peak: 301.072
m/z	relative intensity
301.0719	999
302.0755	129
303.0793	19
463.1224	18
