Mass spectrum: Chrysoeriol O-glucoside malonylated; ESI-TOF; MS2; CE:25 eV; [M-H]-
Name: Chrysoeriol O-glucoside malonylated
Class: Natural Product; flavone
Formula: C25H24O14
Exact mass: 548.116605448
Instrument: micrOTOF-Q
Instrument type: ESI-TOF
Ms type: MS2
Ion mode: NEGATIVE
Ionization: ESI
Collision energy: 25 eV
Retention time: 372.155
Column name: Poroshell 120,EC-C18 2.1x100mm,2.7um
Precursor m/z: 547.098
Precursor type: [M-H]-
Base peak: 299.046
m/z	relative intensity
284.025	169
299.046	999
300.050	130
