Mass spectrum: Genistein 4',7-O-diglucoside dimalonylated; ESI-TOF; MS2; CE:15 eV; [M+H]+
Name: Genistein 4',7-O-diglucoside dimalonylated
Class: Natural Product; isoflavone
Formula: C33H34O21
Exact mass: 766.1592581079999
SMILES: not available
InChI: not available
Instrument: micrOTOF-Q
Instrument type: ESI-TOF
Precursor m/z: 767.164
Precursor type: [M+H]+
Base peak: 767.172
m/z	relative intensity
271.0586	837
461.2671	415
519.1266	201
767.1721	999
768.1696	264
