Mass spectrum: 5(6)-EET-[d11]; LC-ESI-QTOF; MS2; CE: 10.0; R=N/A; [M-H]1-
Name: 5(6)-EET-[d11]
Class: Natural Product; Lipid Standard
Formula: C20H32O3
Exact mass: 320.23514
SMILES: CCCCC\C=C/C\C=C/C\C=C/CC1OC1CCCC(O)=O
InChI: InChI=1S/C20H32O3/c1-2-3-4-5-6-7-8-9-10-11-12-13-15-18-19(23-18)16-14-17-20(21)22/h6-7,9-10,12-13,18-19H,2-5,8,11,14-17H2,1H3,(H,21,22)/b7-6-,10-9-,13-12-
Instrument: Agilent QTof 6545, Agilent Technologies [MS:1000490]
Instrument type: LC-ESI-QTOF
Ms type: MS2
Ion mode: NEGATIVE
Ionization: ESI
Fragmentation mode: CID
Collision energy: 10.0 eV
Resolution: N/A
Base peak: 330.296905517578
Precursor m/z: 330.296905517578
Precursor type: [M-H]1-
m/z	relative intensity	assigned
59.01342040262917	90	
83.05044433387681	127	
115.0402629035678	111	
174.21859400424472	84	
202.24951319920783	595	
214.24917101904225	27	
230.24448169236865	67	
268.296563097992	88	
312.2870229455179	61	
330.2970024479428	999	precursor
