Mass spectrum: PGE2-[d4]; LC-ESI-QFT; MS2; CE: 40.0; R=30.000; [M-H]1-
Name: PGE2-[d4]
Class: Natural Product; Lipid Standard
Formula: C20H32O5
Exact mass: 352.22497
SMILES: CCCCC[C@H](O)\C=C\[C@H]1[C@H](O)CC(=O)[C@@H]1C\C=C/CCCC(O)=O
InChI: InChI=1S/C20H32O5/c1-2-3-6-9-15(21)12-13-17-16(18(22)14-19(17)23)10-7-4-5-8-11-20(24)25/h4,7,12-13,15-17,19,21,23H,2-3,5-6,8-11,14H2,1H3,(H,24,25)/b7-4-,13-12+/t15-,16+,17+,19+/m0/s1
Instrument: Q-Exactive HF, Thermo Scientific [MS:1002523]
Instrument type: LC-ESI-QFT
Ms type: MS2
Ion mode: NEGATIVE
Ionization: ESI
Fragmentation mode: HCD
Collision energy: 40.0 NCE
Resolution: 30.000
Base peak: 355.2428
Precursor m/z: 355.2428
Precursor type: [M-H]1-
m/z	relative intensity
179.13798828125	221
193.15358047485353	629
237.1435760498047	10
239.15907363891603	159
275.23175354003905	998
293.2424514770508	8
319.22156219482423	100
337.23228759765624	49
