Mass spectrum: 9-HOTrE; LC-ESI-QFT; MS2; CE: 20.0; R=30.000; [M-H]1-
Name: 9-HOTrE
Class: Natural Product; Lipid Standard
Formula: C18H30O3
Exact mass: 294.21949
SMILES: CC\C=C/C\C=C/C=C/C(O)CCCCCCCC(O)=O
InChI: InChI=1S/C18H30O3/c1-2-3-4-5-6-8-11-14-17(19)15-12-9-7-10-13-16-18(20)21/h3-4,6,8,11,14,17,19H,2,5,7,9-10,12-13,15-16H2,1H3,(H,20,21)/b4-3-,8-6-,14-11+
Instrument: Q-Exactive HF, Thermo Scientific [MS:1002523]
Instrument type: LC-ESI-QFT
Ms type: MS2
Ion mode: NEGATIVE
Ionization: ESI
Fragmentation mode: HCD
Collision energy: 20.0 NCE
Resolution: 30.000
Base peak: 293.2122
Precursor m/z: 293.2122
Precursor type: [M-H]1-
m/z	relative intensity	assigned
59.0135498046875	2	
71.01371256510417	0	
121.10239664713542	209	
171.1028580438523	479	
185.11842273530505	7	
231.21193004789808	43	
275.2018127441406	999	
293.2123776390439	593	precursor
