Mass spectrum: Resolvin D3; LC-ESI-QFT; MS2; CE: 20.0; R=30.000; [M-H]1-
Name: Resolvin D3
Class: Natural Product; Lipid Standard
Formula: C22H32O5
Exact mass: 376.22497
SMILES: C(=C/[C@@H](C\C=C/C=C/[C@H](C/C=C\CC)O)O)\C=C\C=C/[C@H](CCC(O)=O)O
InChI: InChI=1S/C22H32O5/c1-2-3-7-12-19(23)14-10-6-11-15-20(24)13-8-4-5-9-16-21(25)17-18-22(26)27/h3-11,13-14,16,19-21,23-25H,2,12,15,17-18H2,1H3,(H,26,27)/b5-4+,7-3-,11-6-,13-8+,14-10+,16-9-/t19-,20-,21+/m0/s1
Instrument: Q-Exactive HF, Thermo Scientific [MS:1002523]
Instrument type: LC-ESI-QFT
Ms type: MS2
Ion mode: NEGATIVE
Ionization: ESI
Fragmentation mode: HCD
Collision energy: 20.0 NCE
Resolution: 30.000
Base peak: 375.2177
Precursor m/z: 375.2177
Precursor type: [M-H]1-
m/z	relative intensity	assigned
69.03439585367839	130	
95.05037362234933	66	
115.04017711821056	141	
137.0973161969866	135	
147.11806306384858	999	
199.14944893973214	15	
357.20746430896577	54	
375.2178213936942	873	precursor
