Mass spectrum: TXB1; LC-ESI-QTOF; MS2; CE: 10.0; R=N/A; [M-H]1-
Name: TXB1
Class: Natural Product; Lipid Standard
Formula: C20H36O6
Exact mass: 372.25119
SMILES: CCCCC[C@H](O)\C=C\[C@H]1OC(O)C[C@H](O)[C@@H]1CCCCCCC(O)=O
InChI: InChI=1S/C20H36O6/c1-2-3-6-9-15(21)12-13-18-16(17(22)14-20(25)26-18)10-7-4-5-8-11-19(23)24/h12-13,15-18,20-22,25H,2-11,14H2,1H3,(H,23,24)/b13-12+/t15-,16-,17-,18+,20?/m0/s1
Instrument: Agilent QTof 6545, Agilent Technologies [MS:1000490]
Instrument type: LC-ESI-QTOF
Ms type: MS2
Ion mode: NEGATIVE
Ionization: ESI
Fragmentation mode: CID
Collision energy: 10.0 eV
Resolution: N/A
Base peak: 371.243896484375
Precursor m/z: 371.243896484375
Precursor type: [M-H]1-
m/z	relative intensity	assigned
171.10256384307988	999	
193.12334221950178	16	
197.1184921369208	642	
291.1974938882773	50	
309.20767169379394	42	
327.21731691704167	122	
371.24397861052955	187	precursor
