Mass spectrum: LTD4-[d5]; LC-ESI-QTOF; MS2; CE: 30.0; R=N/A; [M-H]1-
Name: LTD4-[d5]
Class: Natural Product; Lipid Standard
Formula: C25H40N2O6S
Exact mass: 496.26071
SMILES: CCCCC\C=C/C\C=C/C=C/C=C/[C@@H](SC[C@H](N)C(=O)NCC(O)=O)[C@@H](O)CCCC(O)=O
InChI: InChI=1S/C25H40N2O6S/c1-2-3-4-5-6-7-8-9-10-11-12-13-16-22(21(28)15-14-17-23(29)30)34-19-20(26)25(33)27-18-24(31)32/h6-7,9-13,16,20-22,28H,2-5,8,14-15,17-19,26H2,1H3,(H,27,33)(H,29,30)(H,31,32)/b7-6-,10-9-,12-11+,16-13+/t20-,21-,22+/m0/s1
Instrument: Agilent QTof 6545, Agilent Technologies [MS:1000490]
Instrument type: LC-ESI-QTOF
Ms type: MS2
Ion mode: NEGATIVE
Ionization: ESI
Fragmentation mode: CID
Collision energy: 30.0 eV
Resolution: N/A
Base peak: 500.284790039063
Precursor m/z: 500.284790039063
Precursor type: [M-H]1-
m/z	relative intensity
58.02953722320619	247
99.05668744657208	192
143.0462710064775	999
160.01987886838415	61
177.03399662966825	615
240.18493560955818	80
294.2320028247726	60
338.21958427507985	71
482.27497141916007	83
