Mass spectrum: 11-HDoHE; LC-ESI-QTOF; MS2; CE: 20.0; R=N/A; [M-H]1-
Name: 11-HDoHE
Class: Natural Product; Lipid Standard
Formula: C22H32O3
Exact mass: 344.23514
SMILES: CC\C=C/C\C=C/C\C=C/CC(O)\C=C\C=C/C\C=C/CCC(O)=O
InChI: InChI=1S/C22H32O3/c1-2-3-4-5-6-7-9-12-15-18-21(23)19-16-13-10-8-11-14-17-20-22(24)25/h3-4,6-7,10-16,19,21,23H,2,5,8-9,17-18,20H2,1H3,(H,24,25)/b4-3-,7-6-,13-10-,14-11-,15-12-,19-16+
Instrument: Agilent QTof 6545, Agilent Technologies [MS:1000490]
Instrument type: LC-ESI-QTOF
Ms type: MS2
Ion mode: NEGATIVE
Ionization: ESI
Fragmentation mode: CID
Collision energy: 20.0 eV
Resolution: N/A
Base peak: 343.227905273438
Precursor m/z: 343.227905273438
Precursor type: [M-H]1-
m/z	relative intensity	assigned
59.013452490089826	623	
95.05009802947673	185	
121.10206639565968	999	
149.1333091966177	300	
165.09187628462908	253	
281.2280091169188	129	
299.23768372840425	34	
343.22767631164896	74	precursor
