Mass spectrum: TXB2-[d4]; LC-ESI-QTOF; MS2; CE: 10.0; R=N/A; [M-H]1-
Name: TXB2-[d4]
Class: Natural Product; Lipid Standard
Formula: C20H34O6
Exact mass: 370.23554
SMILES: CCCCC[C@H](O)\C=C\[C@H]1OC(O)C[C@H](O)[C@@H]1C\C=C/CCCC(O)=O
InChI: InChI=1S/C20H34O6/c1-2-3-6-9-15(21)12-13-18-16(17(22)14-20(25)26-18)10-7-4-5-8-11-19(23)24/h4,7,12-13,15-18,20-22,25H,2-3,5-6,8-11,14H2,1H3,(H,23,24)/b7-4-,13-12+/t15-,16-,17-,18+,20?/m0/s1
Instrument: Agilent QTof 6545, Agilent Technologies [MS:1000490]
Instrument type: LC-ESI-QTOF
Ms type: MS2
Ion mode: NEGATIVE
Ionization: ESI
Fragmentation mode: CID
Collision energy: 10.0 eV
Resolution: N/A
Base peak: 373.253387451172
Precursor m/z: 373.253387451172
Precursor type: [M-H]1-
m/z	relative intensity	assigned
129.12166942549464	9	
155.13777939214688	7	
173.11214347330014	999	
181.11720438176886	27	
199.12799229689213	806	
293.2064954293998	64	
311.2165741771674	48	
329.2273025324444	107	
355.24171647822885	17	
373.25393644562814	207	precursor
