Mass spectrum: 12-HETE-[d8]; LC-ESI-QFT; MS2; CE: 40.0; R=30.000; [M-H]1-
Name: 12-HETE-[d8]
Class: Natural Product; Lipid Standard
Formula: C20H32O3
Exact mass: 320.23514
SMILES: [H]C(CCCC(O)=O)=CCC([H])=CC([H])=CC(O)CC([H])=CCCCCC
InChI: InChI=1S/C20H32O3/c1-2-3-4-5-10-13-16-19(21)17-14-11-8-6-7-9-12-15-18-20(22)23/h7-11,13-14,17,19,21H,2-6,12,15-16,18H2,1H3,(H,22,23)
Instrument: Q-Exactive HF, Thermo Scientific [MS:1002523]
Instrument type: LC-ESI-QFT
Ms type: MS2
Ion mode: NEGATIVE
Ionization: ESI
Fragmentation mode: HCD
Collision energy: 40.0 NCE
Resolution: 30.000
Base peak: 327.2781
Precursor m/z: 327.2781
Precursor type: [M-H]1-
m/z	relative intensity	assigned
59.01348474290636	999	
140.14937422010632	196	
169.15053473578558	110	
184.13907962375217	583	
214.14820946587457	25	
237.2462649875217	86	
265.2775149875217	368	
283.2880282931858	34	
309.2672610812717	219	
327.27777099609375	95	precursor
