Mass spectrum: 18-HEPE; LC-ESI-QTOF; MS2; CE: 30.0; R=N/A; [M-H]1-
Name: 18-HEPE
Class: Natural Product; Lipid Standard
Formula: C20H30O3
Exact mass: 318.21949
SMILES: C(CC)(/C=C/C=C\C/C=C\C/C=C\C/C=C\CCCC(=O)O)O
InChI: InChI=1S/C20H30O3/c1-2-19(21)17-15-13-11-9-7-5-3-4-6-8-10-12-14-16-18-20(22)23/h4-7,10-13,15,17,19,21H,2-3,8-9,14,16,18H2,1H3,(H,22,23)/b6-4-,7-5-,12-10-,13-11-,17-15+
Instrument: Agilent QTof 6545, Agilent Technologies [MS:1000490]
Instrument type: LC-ESI-QTOF
Ms type: MS2
Ion mode: NEGATIVE
Ionization: ESI
Fragmentation mode: CID
Collision energy: 30.0 eV
Resolution: N/A
Base peak: 317.212188720703
Precursor m/z: 317.212188720703
Precursor type: [M-H]1-
m/z	relative intensity
59.013723660014236	998
71.05015900477105	406
255.21246087983337	24
