Mass spectrum: TXB3; LC-ESI-QTOF; MS2; CE: 20.0; R=N/A; [M-H]1-
Name: TXB3
Class: Natural Product; Lipid Standard
Formula: C20H32O6
Exact mass: 368.21989
SMILES: CC\C=C/C[C@H](O)\C=C\[C@H]1OC(O)C[C@H](O)[C@@H]1C\C=C/CCCC(O)=O
InChI: InChI=1S/C20H32O6/c1-2-3-6-9-15(21)12-13-18-16(17(22)14-20(25)26-18)10-7-4-5-8-11-19(23)24/h3-4,6-7,12-13,15-18,20-22,25H,2,5,8-11,14H2,1H3,(H,23,24)/b6-3-,7-4-,13-12+/t15-,16-,17-,18+,20?/m0/s1
Instrument: Agilent QTof 6545, Agilent Technologies [MS:1000490]
Instrument type: LC-ESI-QTOF
Ms type: MS2
Ion mode: NEGATIVE
Ionization: ESI
Fragmentation mode: CID
Collision energy: 20.0 eV
Resolution: N/A
Base peak: 367.212585449219
Precursor m/z: 367.212585449219
Precursor type: [M-H]1-
m/z	relative intensity	assigned
69.03418423265549	9	
125.09710381889933	67	
151.11274632249908	27	
169.08721475790554	999	
177.09198302675784	61	
195.10261749542107	405	
287.16487157172827	29	
367.21213034791685	3	precursor
