Mass spectrum: TXB2-[d4]; LC-ESI-QFT; MS2; CE: 40.0; R=30.000; [M-H]1-
Name: TXB2-[d4]
Class: Natural Product; Lipid Standard
Formula: C20H34O6
Exact mass: 370.23554
SMILES: CCCCC[C@H](O)\C=C\[C@H]1OC(O)C[C@H](O)[C@@H]1C\C=C/CCCC(O)=O
InChI: InChI=1S/C20H34O6/c1-2-3-6-9-15(21)12-13-18-16(17(22)14-20(25)26-18)10-7-4-5-8-11-19(23)24/h4,7,12-13,15-18,20-22,25H,2-3,5-6,8-11,14H2,1H3,(H,23,24)/b7-4-,13-12+/t15-,16-,17-,18+,20?/m0/s1
Instrument: Q-Exactive HF, Thermo Scientific [MS:1002523]
Instrument type: LC-ESI-QFT
Ms type: MS2
Ion mode: NEGATIVE
Ionization: ESI
Fragmentation mode: HCD
Collision energy: 40.0 NCE
Resolution: 30.000
Base peak: 373.2534
Precursor m/z: 373.2534
Precursor type: [M-H]1-
m/z	relative intensity
129.12236300381747	147
155.1380018754439	75
173.11204251376066	999
181.1172305020419	72
199.12779097123578	232
293.20603249289775	28
311.21642150878904	0
