Mass spectrum: LTC4-[d5]; LC-ESI-QFT; MS2; CE: 30.0; R=30.000; [M-H]1-
Name: LTC4-[d5]
Class: Natural Product; Lipid Standard
Formula: C30H47N3O9S
Exact mass: 625.3033
SMILES: CCCCC\C=C/C\C=C/C=C/C=C/[C@@H](SC[C@H](NC(=O)CC[C@H](N)C(O)=O)C(=O)NCC(O)=O)[C@@H](O)CCCC(O)=O
InChI: InChI=1S/C30H47N3O9S/c1-2-3-4-5-6-7-8-9-10-11-12-13-16-25(24(34)15-14-17-27(36)37)43-21-23(29(40)32-20-28(38)39)33-26(35)19-18-22(31)30(41)42/h6-7,9-13,16,22-25,34H,2-5,8,14-15,17-21,31H2,1H3,(H,32,40)(H,33,35)(H,36,37)(H,38,39)(H,41,42)/b7-6-,10-9-,12-11+,16-13+/t22-,23-,24-,25+/m0/s1
Instrument: Q-Exactive HF, Thermo Scientific [MS:1002523]
Instrument type: LC-ESI-QFT
Ms type: MS2
Ion mode: NEGATIVE
Ionization: ESI
Fragmentation mode: HCD
Collision energy: 30.0 NCE
Resolution: 30.000
Base peak: 629.328
Precursor m/z: 629.328
Precursor type: [M-H]1-
m/z	relative intensity	assigned
128.03551864624023	643	
143.04635429382324	998	
210.08870601654053	444	
254.07852745056152	407	
272.08913803100586	429	
288.06639671325684	13	
306.07690048217773	45	
513.2803955078125	6	
611.3179244995117	3	
629.3280792236328	3	precursor
