Mass spectrum: PGF2alpha-[d4]; LC-ESI-QTOF; MS2; CE: 20.0; R=N/A; [M-H]1-
Name: PGF2alpha-[d4]
Class: Natural Product; Lipid Standard
Formula: C20H34O5
Exact mass: 354.24062
SMILES: CCCCC[C@H](O)\C=C\[C@H]1[C@H](O)C[C@H](O)[C@@H]1C\C=C/CCCC(O)=O
InChI: InChI=1S/C20H34O5/c1-2-3-6-9-15(21)12-13-17-16(18(22)14-19(17)23)10-7-4-5-8-11-20(24)25/h4,7,12-13,15-19,21-23H,2-3,5-6,8-11,14H2,1H3,(H,24,25)/b7-4-,13-12+/t15-,16+,17+,18-,19+/m0/s1
Instrument: Agilent QTof 6545, Agilent Technologies [MS:1000490]
Instrument type: LC-ESI-QTOF
Ms type: MS2
Ion mode: NEGATIVE
Ionization: ESI
Fragmentation mode: CID
Collision energy: 20.0 eV
Resolution: N/A
Base peak: 357.258514404297
Precursor m/z: 357.258514404297
Precursor type: [M-H]1-
m/z	relative intensity	assigned
59.013618686078104	90	
169.15378867161633	71	
175.12787210567816	113	
197.1483651835888	193	
213.14319956761804	169	
251.2321127467944	114	
295.22124128618924	338	
313.2316287363149	882	
357.2575109191547	999	precursor
