Mass spectrum: 9-HOTrE; LC-ESI-QTOF; MS2; CE: 30.0; R=N/A; [M-H]1-
Name: 9-HOTrE
Class: Natural Product; Lipid Standard
Formula: C18H30O3
Exact mass: 294.21949
SMILES: CC\C=C/C\C=C/C=C/C(O)CCCCCCCC(O)=O
InChI: InChI=1S/C18H30O3/c1-2-3-4-5-6-8-11-14-17(19)15-12-9-7-10-13-16-18(20)21/h3-4,6,8,11,14,17,19H,2,5,7,9-10,12-13,15-16H2,1H3,(H,20,21)/b4-3-,8-6-,14-11+
Instrument: Agilent QTof 6545, Agilent Technologies [MS:1000490]
Instrument type: LC-ESI-QTOF
Ms type: MS2
Ion mode: NEGATIVE
Ionization: ESI
Fragmentation mode: CID
Collision energy: 30.0 eV
Resolution: N/A
Base peak: 293.212188720703
Precursor m/z: 293.212188720703
Precursor type: [M-H]1-
m/z	relative intensity	assigned
59.01320516909144	180	
121.10229409931671	900	
171.10284992009073	999	
185.11793280084865	96	
231.2107988639479	37	
275.2009310781368	243	
293.212657340809	35	precursor
