Mass spectrum: 13-HOTrE; LC-ESI-QTOF; MS2; CE: 30.0; R=N/A; [M-H]1-
Name: 13-HOTrE
Class: Natural Product; Lipid Standard
Formula: C18H30O3
Exact mass: 294.21949
SMILES: CC\C=C/CC(O)\C=C\C=C/CCCCCCCC(O)=O
InChI: InChI=1S/C18H30O3/c1-2-3-11-14-17(19)15-12-9-7-5-4-6-8-10-13-16-18(20)21/h3,7,9,11-12,15,17,19H,2,4-6,8,10,13-14,16H2,1H3,(H,20,21)/b9-7-,11-3-,15-12+
Instrument: Agilent QTof 6545, Agilent Technologies [MS:1000490]
Instrument type: LC-ESI-QTOF
Ms type: MS2
Ion mode: NEGATIVE
Ionization: ESI
Fragmentation mode: CID
Collision energy: 30.0 eV
Resolution: N/A
Base peak: 293.212188720703
Precursor m/z: 293.212188720703
Precursor type: [M-H]1-
m/z	relative intensity	assigned
59.013156671732276	360	
179.1433600046786	215	
195.138659497907	999	
223.13349312757606	674	
275.2010067984162	205	
293.21261087128374	162	precursor
