Mass spectrum: PGD2-[d4]; LC-ESI-QTOF; MS2; CE: 20.0; R=N/A; [M-H]1-
Name: PGD2-[d4]
Class: Natural Product; Lipid Standard
Formula: C20H32O5
Exact mass: 352.22497
SMILES: CCCCC[C@H](O)\C=C\[C@@H]1[C@@H](C\C=C/CCCC(O)=O)[C@@H](O)CC1=O
InChI: InChI=1S/C20H32O5/c1-2-3-6-9-15(21)12-13-17-16(18(22)14-19(17)23)10-7-4-5-8-11-20(24)25/h4,7,12-13,15-18,21-22H,2-3,5-6,8-11,14H2,1H3,(H,24,25)/b7-4-,13-12+/t15-,16+,17+,18-/m0/s1
Instrument: Agilent QTof 6545, Agilent Technologies [MS:1000490]
Instrument type: LC-ESI-QTOF
Ms type: MS2
Ion mode: NEGATIVE
Ionization: ESI
Fragmentation mode: CID
Collision energy: 20.0 eV
Resolution: N/A
Base peak: 355.242797851563
Precursor m/z: 355.242797851563
Precursor type: [M-H]1-
m/z	relative intensity	assigned
121.06541855999988	18	
193.15345474361058	853	
203.1441077487613	79	
237.14381791332886	189	
275.2323304274602	999	
319.2211253814408	216	
337.23163503740034	23	
355.2420792653384	1	precursor
