Mass spectrum: 5-HETE-[d8]; LC-ESI-QTOF; MS2; CE: 20.0; R=N/A; [M-H]1-
Name: 5-HETE-[d8]
Class: Natural Product; Lipid Standard
Formula: C20H32O3
Exact mass: 320.23514
SMILES: CCCCC\C=C/C\C=C/C\C=C/C=C/C(O)CCCC(O)=O
InChI: InChI=1S/C20H32O3/c1-2-3-4-5-6-7-8-9-10-11-12-13-14-16-19(21)17-15-18-20(22)23/h6-7,9-10,12-14,16,19,21H,2-5,8,11,15,17-18H2,1H3,(H,22,23)/b7-6-,10-9-,13-12-,16-14+
Instrument: Agilent QTof 6545, Agilent Technologies [MS:1000490]
Instrument type: LC-ESI-QTOF
Ms type: MS2
Ion mode: NEGATIVE
Ionization: ESI
Fragmentation mode: CID
Collision energy: 20.0 eV
Resolution: N/A
Base peak: 327.278106689453
Precursor m/z: 327.278106689453
Precursor type: [M-H]1-
m/z	relative intensity	assigned
116.04611068757913	999	
210.2240764828122	155	
265.2778554218613	152	
309.2674014560714	133	
327.2768886679623	115	precursor
