Mass spectrum: 9-HETE; LC-ESI-QTOF; MS2; CE: 20.0; R=N/A; [M-H]1-
Name: 9-HETE
Class: Natural Product; Lipid Standard
Formula: C20H32O3
Exact mass: 320.23514
SMILES: CCCCC\C=C/C\C=C/CC(O)\C=C\C=C/CCCC(O)=O
InChI: InChI=1S/C20H32O3/c1-2-3-4-5-6-7-8-10-13-16-19(21)17-14-11-9-12-15-18-20(22)23/h6-7,9-11,13-14,17,19,21H,2-5,8,12,15-16,18H2,1H3,(H,22,23)/b7-6-,11-9-,13-10-,17-14+
Instrument: Agilent QTof 6545, Agilent Technologies [MS:1000490]
Instrument type: LC-ESI-QTOF
Ms type: MS2
Ion mode: NEGATIVE
Ionization: ESI
Fragmentation mode: CID
Collision energy: 20.0 eV
Resolution: N/A
Base peak: 319.227905273438
Precursor m/z: 319.227905273438
Precursor type: [M-H]1-
m/z	relative intensity	assigned
59.01346323652861	673	
69.0344911019177	999	
123.08131582653482	443	
139.07679766465608	146	
167.07105611796635	140	
179.14424466628896	213	
203.18002493999333	76	
257.22730150818825	225	
301.2166281218793	110	
319.22750232327746	197	precursor
