Mass spectrum: alpha-LA-[d14]; LC-ESI-QFT; MS2; CE: 40.0; R=30.000; [M-H]1-
Name: alpha-LA-[d14]
Class: Natural Product; Lipid Standard
Formula: C18H32O2
Exact mass: 280.24023
SMILES: CCCCC\C=C/C\C=C/CCCCCCCC(O)=O
InChI: InChI=1S/C18H32O2/c1-2-3-4-5-6-7-8-9-10-11-12-13-14-15-16-17-18(19)20/h6-7,9-10H,2-5,8,11-17H2,1H3,(H,19,20)/b7-6-,10-9-
Instrument: Q-Exactive HF, Thermo Scientific [MS:1002523]
Instrument type: LC-ESI-QFT
Ms type: MS2
Ion mode: NEGATIVE
Ionization: ESI
Fragmentation mode: HCD
Collision energy: 40.0 NCE
Resolution: 30.000
Base peak: 291.3052
Precursor m/z: 291.3052
Precursor type: [M-H]1-
m/z	relative intensity	assigned
61.02609888712565	36	
74.03257836235895	13	
89.08805380927191	5	
215.25905524359808	6	
247.31554158528647	7	
271.2821231418186	16	
291.30517738743833	999	precursor
