Mass spectrum: 14,15-DHET-[d11]; LC-ESI-QFT; MS2; CE: 20.0; R=30.000; [M-H]1-
Name: 14,15-DHET-[d11]
Class: Natural Product; Lipid Standard
Formula: C20H34O4
Exact mass: 338.24571
SMILES: CCCCCC(O)C(O)C\C=C/C\C=C/C\C=C/CCCC(O)=O
InChI: InChI=1S/C20H34O4/c1-2-3-12-15-18(21)19(22)16-13-10-8-6-4-5-7-9-11-14-17-20(23)24/h4,6-7,9-10,13,18-19,21-22H,2-3,5,8,11-12,14-17H2,1H3,(H,23,24)/b6-4-,9-7-,13-10-
Instrument: Q-Exactive HF, Thermo Scientific [MS:1002523]
Instrument type: LC-ESI-QFT
Ms type: MS2
Ion mode: NEGATIVE
Ionization: ESI
Fragmentation mode: HCD
Collision energy: 20.0 NCE
Resolution: 30.000
Base peak: 348.3075
Precursor m/z: 348.3075
Precursor type: [M-H]1-
m/z	relative intensity	assigned
59.01353645324707	2	
109.14446640014648	5	
140.16132659912108	78	
163.1494903564453	16	
207.13923568725585	402	
268.2966873168945	16	
330.2970733642578	77	
348.3073974609375	999	precursor
