Mass spectrum: PGE2-[d4]; LC-ESI-QTOF; MS2; CE: 10.0; R=N/A; [M-H]1-
Name: PGE2-[d4]
Class: Natural Product; Lipid Standard
Formula: C20H32O5
Exact mass: 352.22497
SMILES: CCCCC[C@H](O)\C=C\[C@H]1[C@H](O)CC(=O)[C@@H]1C\C=C/CCCC(O)=O
InChI: InChI=1S/C20H32O5/c1-2-3-6-9-15(21)12-13-17-16(18(22)14-19(17)23)10-7-4-5-8-11-20(24)25/h4,7,12-13,15-17,19,21,23H,2-3,5-6,8-11,14H2,1H3,(H,24,25)/b7-4-,13-12+/t15-,16+,17+,19+/m0/s1
Instrument: Agilent QTof 6545, Agilent Technologies [MS:1000490]
Instrument type: LC-ESI-QTOF
Ms type: MS2
Ion mode: NEGATIVE
Ionization: ESI
Fragmentation mode: CID
Collision energy: 10.0 eV
Resolution: N/A
Base peak: 355.242797851563
Precursor m/z: 355.242797851563
Precursor type: [M-H]1-
m/z	relative intensity	assigned
179.1380378328182	18	
193.1533883843665	235	
237.14347018418326	216	
239.15823419036596	13	
275.2311782276436	585	
293.2427479937211	23	
319.22109557193727	999	
337.23201823510743	734	
355.2433005929117	141	precursor
