Mass spectrum: 9-HODE; LC-ESI-QTOF; MS2; CE: 30.0; R=N/A; [M-H]1-
Name: 9-HODE
Class: Natural Product; Lipid Standard
Formula: C18H32O3
Exact mass: 296.23514
SMILES: CCCCC\C=C/C=C/C(O)CCCCCCCC(O)=O
InChI: InChI=1S/C18H32O3/c1-2-3-4-5-6-8-11-14-17(19)15-12-9-7-10-13-16-18(20)21/h6,8,11,14,17,19H,2-5,7,9-10,12-13,15-16H2,1H3,(H,20,21)/b8-6-,14-11+
Instrument: Agilent QTof 6545, Agilent Technologies [MS:1000490]
Instrument type: LC-ESI-QTOF
Ms type: MS2
Ion mode: NEGATIVE
Ionization: ESI
Fragmentation mode: CID
Collision energy: 30.0 eV
Resolution: N/A
Base peak: 295.227905273438
Precursor m/z: 295.227905273438
Precursor type: [M-H]1-
m/z	relative intensity	assigned
59.013536294525146	92	
171.1025772308809	999	
233.22720749875344	41	
277.21679647983905	633	
295.2280672460597	88	precursor
