Mass spectrum: Resolvin D1-[d5]; LC-ESI-QTOF; MS2; CE: 10.0; R=N/A; [M-H]1-
Name: Resolvin D1-[d5]
Class: Natural Product; Lipid Standard
Formula: C22H32O5
Exact mass: 376.22497
SMILES: C(\CCC(O)=O)=C\C[C@@H]([C@@H](\C=C\C=C\C=C/C=C/[C@H](C/C=C\CC)O)O)O
InChI: InChI=1S/C22H32O5/c1-2-3-9-14-19(23)15-10-6-4-5-7-11-16-20(24)21(25)17-12-8-13-18-22(26)27/h3-12,15-16,19-21,23-25H,2,13-14,17-18H2,1H3,(H,26,27)/b6-4-,7-5+,9-3-,12-8-,15-10+,16-11+/t19-,20+,21-/m0/s1
Instrument: Agilent QTof 6545, Agilent Technologies [MS:1000490]
Instrument type: LC-ESI-QTOF
Ms type: MS2
Ion mode: NEGATIVE
Ionization: ESI
Fragmentation mode: CID
Collision energy: 10.0 eV
Resolution: N/A
Base peak: 380.249114990234
Precursor m/z: 380.249114990234
Precursor type: [M-H]1-
m/z	relative intensity	assigned
59.013228296880015	24	
121.06576126988253	68	
135.081280466215	153	
141.05562886321724	891	
163.0756781648882	5	
220.17550030431946	279	
238.1859465727121	309	
362.2367227082822	14	
380.24955336868743	999	precursor
