Mass spectrum: 14(15)-EET-[d11]; LC-ESI-QTOF; MS2; CE: 10.0; R=N/A; [M-H]1-
Name: 14(15)-EET-[d11]
Class: Natural Product; Lipid Standard
Formula: C20H32O3
Exact mass: 320.23514
SMILES: CCCCCC1OC1C\C=C/C\C=C/C\C=C/CCCC(O)=O
InChI: InChI=1S/C20H32O3/c1-2-3-12-15-18-19(23-18)16-13-10-8-6-4-5-7-9-11-14-17-20(21)22/h4,6-7,9-10,13,18-19H,2-3,5,8,11-12,14-17H2,1H3,(H,21,22)/b6-4-,9-7-,13-10-
Instrument: Agilent QTof 6545, Agilent Technologies [MS:1000490]
Instrument type: LC-ESI-QTOF
Ms type: MS2
Ion mode: NEGATIVE
Ionization: ESI
Fragmentation mode: CID
Collision energy: 10.0 eV
Resolution: N/A
Base peak: 330.296905517578
Precursor m/z: 330.296905517578
Precursor type: [M-H]1-
m/z	relative intensity	assigned
59.01348888286385	40	
124.16623655263747	36	
150.1814869142101	17	
175.14906040596213	132	
214.24884436307738	37	
219.1388683286808	269	
268.2959086745949	194	
286.30719287830476	34	
312.286404729482	270	
330.2964007821112	998	precursor
