Mass spectrum: 15-HETE-[d8]; LC-ESI-QTOF; MS2; CE: 10.0; R=N/A; [M-H]1-
Name: 15-HETE-[d8]
Class: Natural Product; Lipid Standard
Formula: C20H32O3
Exact mass: 320.23514
SMILES: CCCCCC(O)\C=C\C=C/C\C=C/C\C=C/CCCC(O)=O
InChI: InChI=1S/C20H32O3/c1-2-3-13-16-19(21)17-14-11-9-7-5-4-6-8-10-12-15-18-20(22)23/h4-5,8-11,14,17,19,21H,2-3,6-7,12-13,15-16,18H2,1H3,(H,22,23)/b5-4-,10-8-,11-9-,17-14+
Instrument: Agilent QTof 6545, Agilent Technologies [MS:1000490]
Instrument type: LC-ESI-QTOF
Ms type: MS2
Ion mode: NEGATIVE
Ionization: ESI
Fragmentation mode: CID
Collision energy: 10.0 eV
Resolution: N/A
Base peak: 327.278106689453
Precursor m/z: 327.278106689453
Precursor type: [M-H]1-
m/z	relative intensity	assigned
59.01335991529362	9	
114.10392487047449	8	
182.19272757792572	131	
210.22456034306737	7	
226.18269652537447	346	
265.2766385970796	88	
283.28774353039137	24	
309.2670746050024	226	
327.27809481093743	999	precursor
