Mass spectrum: 5,6-DiHETE; LC-ESI-QTOF; MS2; CE: 30.0; R=N/A; [M-H]1-
Name: 5,6-DiHETE
Class: Natural Product; Lipid Standard
Formula: C20H32O4
Exact mass: 336.23006
SMILES: C([C@@H]([C@@H](/C=C/C=C/C=C\C/C=C\CCCCC)O)O)CCC(=O)O
InChI: InChI=1S/C20H32O4/c1-2-3-4-5-6-7-8-9-10-11-12-13-15-18(21)19(22)16-14-17-20(23)24/h6-7,9-13,15,18-19,21-22H,2-5,8,14,16-17H2,1H3,(H,23,24)/b7-6-,10-9-,12-11+,15-13+/t18-,19+/m1/s1
Instrument: Agilent QTof 6545, Agilent Technologies [MS:1000490]
Instrument type: LC-ESI-QTOF
Ms type: MS2
Ion mode: NEGATIVE
Ionization: ESI
Fragmentation mode: CID
Collision energy: 30.0 eV
Resolution: N/A
Base peak: 335.222808837891
Precursor m/z: 335.222808837891
Precursor type: [M-H]1-
m/z	relative intensity
59.01362606319582	999
69.03435722811717	560
115.03967399191521	752
163.14946922505516	149
189.16448325131262	70
219.17580035105993	30
