Mass spectrum: PGD2-[d4]; LC-ESI-QFT; MS2; CE: 20.0; R=30.000; [M-H]1-
Name: PGD2-[d4]
Class: Natural Product; Lipid Standard
Formula: C20H32O5
Exact mass: 352.22497
SMILES: CCCCC[C@H](O)\C=C\[C@@H]1[C@@H](C\C=C/CCCC(O)=O)[C@@H](O)CC1=O
InChI: InChI=1S/C20H32O5/c1-2-3-6-9-15(21)12-13-17-16(18(22)14-19(17)23)10-7-4-5-8-11-20(24)25/h4,7,12-13,15-18,21-22H,2-3,5-6,8-11,14H2,1H3,(H,24,25)/b7-4-,13-12+/t15-,16+,17+,18-/m0/s1
Instrument: Q-Exactive HF, Thermo Scientific [MS:1002523]
Instrument type: LC-ESI-QFT
Ms type: MS2
Ion mode: NEGATIVE
Ionization: ESI
Fragmentation mode: HCD
Collision energy: 20.0 NCE
Resolution: 30.000
Base peak: 355.2428
Precursor m/z: 355.2428
Precursor type: [M-H]1-
m/z	relative intensity	assigned
121.06595993041992	1	
193.15355802837172	403	
203.14456337376646	5	
237.14336274799547	856	
255.15397322805305	39	
275.23172157689146	792	
319.2214612458882	999	
337.2322628623561	116	
355.2427062988281	7	precursor
