Mass spectrum: 12-HEPE; LC-ESI-QTOF; MS2; CE: 30.0; R=N/A; [M-H]1-
Name: 12-HEPE
Class: Natural Product; Lipid Standard
Formula: C20H30O3
Exact mass: 318.21949
SMILES: C(\CC)=C\C/C=C\C[C@@H](/C=C/C=C\C/C=C\CCCC(=O)O)O
InChI: InChI=1S/C20H30O3/c1-2-3-4-5-10-13-16-19(21)17-14-11-8-6-7-9-12-15-18-20(22)23/h3-4,7-11,13-14,17,19,21H,2,5-6,12,15-16,18H2,1H3,(H,22,23)/b4-3-,9-7-,11-8-,13-10-,17-14+/t19-/m0/s1
Instrument: Agilent QTof 6545, Agilent Technologies [MS:1000490]
Instrument type: LC-ESI-QTOF
Ms type: MS2
Ion mode: NEGATIVE
Ionization: ESI
Fragmentation mode: CID
Collision energy: 30.0 eV
Resolution: N/A
Base peak: 317.212188720703
Precursor m/z: 317.212188720703
Precursor type: [M-H]1-
m/z	relative intensity
107.08653687424808	999
135.11822809239607	502
163.11287399438305	473
179.10751311183753	423
255.21093004514668	130
