Mass spectrum: 11,12-DHET-[d11]; LC-ESI-QFT; MS2; CE: 40.0; R=30.000; [M-H]1-
Name: 11,12-DHET-[d11]
Class: Natural Product; Lipid Standard
Formula: C20H34O4
Exact mass: 338.24571
SMILES: CCCCC\C=C/CC(O)C(O)C\C=C/C\C=C/CCCC(O)=O
InChI: InChI=1S/C20H34O4/c1-2-3-4-5-9-12-15-18(21)19(22)16-13-10-7-6-8-11-14-17-20(23)24/h6,8-10,12-13,18-19,21-22H,2-5,7,11,14-17H2,1H3,(H,23,24)/b8-6-,12-9-,13-10-
Instrument: Q-Exactive HF, Thermo Scientific [MS:1002523]
Instrument type: LC-ESI-QFT
Ms type: MS2
Ion mode: NEGATIVE
Ionization: ESI
Fragmentation mode: HCD
Collision energy: 40.0 NCE
Resolution: 30.000
Base peak: 348.3075
Precursor m/z: 348.3075
Precursor type: [M-H]1-
m/z	relative intensity	assigned
58.00569381713867	189	
149.09732360839843	112	
167.107918548584	999	
180.19265594482422	109	
197.1185417175293	69	
330.2969604492188	11	
348.30769500732424	13	precursor
