Mass spectrum: 9-HETE; LC-ESI-QTOF; MS2; CE: 30.0; R=N/A; [M-H]1-
Name: 9-HETE
Class: Natural Product; Lipid Standard
Formula: C20H32O3
Exact mass: 320.23514
SMILES: CCCCC\C=C/C\C=C/CC(O)\C=C\C=C/CCCC(O)=O
InChI: InChI=1S/C20H32O3/c1-2-3-4-5-6-7-8-10-13-16-19(21)17-14-11-9-12-15-18-20(22)23/h6-7,9-11,13-14,17,19,21H,2-5,8,12,15-16,18H2,1H3,(H,22,23)/b7-6-,11-9-,13-10-,17-14+
Instrument: Agilent QTof 6545, Agilent Technologies [MS:1000490]
Instrument type: LC-ESI-QTOF
Ms type: MS2
Ion mode: NEGATIVE
Ionization: ESI
Fragmentation mode: CID
Collision energy: 30.0 eV
Resolution: N/A
Base peak: 319.227905273438
Precursor m/z: 319.227905273438
Precursor type: [M-H]1-
m/z	relative intensity
59.01359251993523	999
69.03414588878755	950
123.08105262112447	109
139.07626669815625	36
203.18065269119617	33
257.2279256213395	17
301.21773244777825	15
