Mass spectrum: 12-HEPE; LC-ESI-QFT; MS2; CE: 20.0; R=30.000; [M-H]1-
Name: 12-HEPE
Class: Natural Product; Lipid Standard
Formula: C20H30O3
Exact mass: 318.21949
SMILES: C(\CC)=C\C/C=C\C[C@@H](/C=C/C=C\C/C=C\CCCC(=O)O)O
InChI: InChI=1S/C20H30O3/c1-2-3-4-5-10-13-16-19(21)17-14-11-8-6-7-9-12-15-18-20(22)23/h3-4,7-11,13-14,17,19,21H,2,5-6,12,15-16,18H2,1H3,(H,22,23)/b4-3-,9-7-,11-8-,13-10-,17-14+/t19-/m0/s1
Instrument: Q-Exactive HF, Thermo Scientific [MS:1002523]
Instrument type: LC-ESI-QFT
Ms type: MS2
Ion mode: NEGATIVE
Ionization: ESI
Fragmentation mode: HCD
Collision energy: 20.0 NCE
Resolution: 30.000
Base peak: 317.2122
Precursor m/z: 317.2122
Precursor type: [M-H]1-
m/z	relative intensity	assigned
59.01345666249593	15	
107.08661142985027	29	
135.1179110209147	84	
163.1128412882487	43	
179.10764185587564	583	
208.11036809285483	141	
255.21164067586264	243	
273.2222951253255	38	
299.2013473510742	221	
317.2117691040039	999	precursor
