Mass spectrum: 11,12-DHET-[d11]; LC-ESI-QFT; MS2; CE: 30.0; R=30.000; [M-H]1-
Name: 11,12-DHET-[d11]
Class: Natural Product; Lipid Standard
Formula: C20H34O4
Exact mass: 338.24571
SMILES: CCCCC\C=C/CC(O)C(O)C\C=C/C\C=C/CCCC(O)=O
InChI: InChI=1S/C20H34O4/c1-2-3-4-5-9-12-15-18(21)19(22)16-13-10-7-6-8-11-14-17-20(23)24/h6,8-10,12-13,18-19,21-22H,2-5,7,11,14-17H2,1H3,(H,23,24)/b8-6-,12-9-,13-10-
Instrument: Q-Exactive HF, Thermo Scientific [MS:1002523]
Instrument type: LC-ESI-QFT
Ms type: MS2
Ion mode: NEGATIVE
Ionization: ESI
Fragmentation mode: HCD
Collision energy: 30.0 NCE
Resolution: 30.000
Base peak: 348.3075
Precursor m/z: 348.3075
Precursor type: [M-H]1-
m/z	relative intensity	assigned
58.00569477081299	66	
149.09733963012695	35	
167.10790481567383	999	
180.19263229370117	197	
197.11853256225587	105	
330.2970825195313	66	
348.3075576782227	271	precursor
