Mass spectrum: 8(9)-EET-[d11]; LC-ESI-QTOF; MS2; CE: 10.0; R=N/A; [M-H]1-
Name: 8(9)-EET-[d11]
Class: Natural Product; Lipid Standard
Formula: C20H32O3
Exact mass: 320.23514
SMILES: CCCCC\C=C/C\C=C/CC1OC1C\C=C/CCCC(O)=O
InChI: InChI=1S/C20H32O3/c1-2-3-4-5-6-7-8-9-12-15-18-19(23-18)16-13-10-11-14-17-20(21)22/h6-7,9-10,12-13,18-19H,2-5,8,11,14-17H2,1H3,(H,21,22)/b7-6-,12-9-,13-10-
Instrument: Agilent QTof 6545, Agilent Technologies [MS:1000490]
Instrument type: LC-ESI-QTOF
Ms type: MS2
Ion mode: NEGATIVE
Ionization: ESI
Fragmentation mode: CID
Collision energy: 10.0 eV
Resolution: N/A
Base peak: 330.296905517578
Precursor m/z: 330.296905517578
Precursor type: [M-H]1-
m/z	relative intensity	assigned
69.03423400575434	138	
123.08157607860561	80	
127.07649425460616	85	
155.071182808312	139	
167.07095429149237	151	
190.21239192050746	73	
268.29585163787954	139	
286.30694520706487	47	
312.28659302954503	150	
330.29618033302023	999	precursor
