Mass spectrum: 15d-PGJ2-[d4]; LC-ESI-QFT; MS2; CE: 30.0; R=30.000; [M-H]1-
Name: 15d-PGJ2-[d4]
Class: Natural Product; Lipid Standard
Formula: C20H30O4
Exact mass: 334.21441
SMILES: CCCCC[C@H](O)\C=C\[C@@H]1[C@@H](C\C=C/CCCC(O)=O)C=CC1=O
InChI: InChI=1S/C20H30O4/c1-2-3-6-10-17(21)13-14-18-16(12-15-19(18)22)9-7-4-5-8-11-20(23)24/h4,7,12-18,21H,2-3,5-6,8-11H2,1H3,(H,23,24)/b7-4-,14-13+/t16-,17-,18+/m0/s1
Instrument: Q-Exactive HF, Thermo Scientific [MS:1002523]
Instrument type: LC-ESI-QFT
Ms type: MS2
Ion mode: NEGATIVE
Ionization: ESI
Fragmentation mode: HCD
Collision energy: 30.0 NCE
Resolution: 30.000
Base peak: 319.2217
Precursor m/z: 319.2217
Precursor type: [M-H]1-
m/z	relative intensity	assigned
59.01351776123047	21	
161.09271011352538	31	
203.14439697265624	137	
245.18786697387696	24	
275.23179321289064	999	
301.211164855957	35	
319.2216827392578	104	precursor
