Mass spectrum: alpha-LA-[d14]; LC-ESI-QTOF; MS2; CE: 10.0; R=N/A; [M-H]1-
Name: alpha-LA-[d14]
Class: Natural Product; Lipid Standard
Formula: C18H32O2
Exact mass: 280.24023
SMILES: CCCCC\C=C/C\C=C/CCCCCCCC(O)=O
InChI: InChI=1S/C18H32O2/c1-2-3-4-5-6-7-8-9-10-11-12-13-14-15-16-17-18(19)20/h6-7,9-10H,2-5,8,11-17H2,1H3,(H,19,20)/b7-6-,10-9-
Instrument: Agilent QTof 6545, Agilent Technologies [MS:1000490]
Instrument type: LC-ESI-QTOF
Ms type: MS2
Ion mode: NEGATIVE
Ionization: ESI
Fragmentation mode: CID
Collision energy: 10.0 eV
Resolution: N/A
Base peak: 291.305206298828
Precursor m/z: 291.305206298828
Precursor type: [M-H]1-
m/z	relative intensity	assigned
74.03267710915583	2	
271.2811643608389	1	
291.3052795462061	998	precursor
