Mass spectrum: 9-HOTrE; LC-ESI-QTOF; MS2; CE: 20.0; R=N/A; [M-H]1-
Name: 9-HOTrE
Class: Natural Product; Lipid Standard
Formula: C18H30O3
Exact mass: 294.21949
SMILES: CC\C=C/C\C=C/C=C/C(O)CCCCCCCC(O)=O
InChI: InChI=1S/C18H30O3/c1-2-3-4-5-6-8-11-14-17(19)15-12-9-7-10-13-16-18(20)21/h3-4,6,8,11,14,17,19H,2,5,7,9-10,12-13,15-16H2,1H3,(H,20,21)/b4-3-,8-6-,14-11+
Instrument: Agilent QTof 6545, Agilent Technologies [MS:1000490]
Instrument type: LC-ESI-QTOF
Ms type: MS2
Ion mode: NEGATIVE
Ionization: ESI
Fragmentation mode: CID
Collision energy: 20.0 eV
Resolution: N/A
Base peak: 293.212188720703
Precursor m/z: 293.212188720703
Precursor type: [M-H]1-
m/z	relative intensity	assigned
59.01366479633477	148	
71.01349857908525	32	
121.10227158358269	710	
171.10255049892	857	
185.11852198745228	58	
231.21163023150407	110	
275.20148255796096	998	
293.21261652282016	181	precursor
