Mass spectrum: 14(15)-EpETE; LC-ESI-QFT; MS2; CE: 40.0; R=30.000; [M-H]1-
Name: 14(15)-EpETE
Class: Natural Product; Lipid Standard
Formula: C20H30O3
Exact mass: 318.21949
SMILES: O=C(CCC/C=C\C/C=C\C/C=C\CC1C(O1)C/C=C\CC)O
InChI: InChI=1S/C20H30O3/c1-2-3-12-15-18-19(23-18)16-13-10-8-6-4-5-7-9-11-14-17-20(21)22/h3-4,6-7,9-10,12-13,18-19H,2,5,8,11,14-17H2,1H3,(H,21,22)/b6-4-,9-7-,12-3-,13-10-
Instrument: Q-Exactive HF, Thermo Scientific [MS:1002523]
Instrument type: LC-ESI-QFT
Ms type: MS2
Ion mode: NEGATIVE
Ionization: ESI
Fragmentation mode: HCD
Collision energy: 40.0 NCE
Resolution: 30.000
Base peak: 317.2122
Precursor m/z: 317.2122
Precursor type: [M-H]1-
m/z	relative intensity	assigned
59.0134672685103	999	
121.0658687244762	506	
175.14914911443537	65	
207.13903669877485	279	
219.13882862437856	51	
255.21177534623578	63	
273.2227325439453	15	
299.2015380859375	23	
317.2117531516335	39	precursor
