Mass spectrum: PGI2; LC-ESI-QTOF; MS2; CE: 10.0; R=N/A; [M-H]1-
Name: PGI2
Class: Natural Product; Lipid Standard
Formula: C20H32O5
Exact mass: 352.22497
SMILES: [H][C@]12C[C@@H](O)[C@H](\C=C\[C@@H](O)CCCCC)[C@@]1([H])C\C(O2)=C\CCCC(O)=O
InChI: InChI=1S/C20H32O5/c1-2-3-4-7-14(21)10-11-16-17-12-15(8-5-6-9-20(23)24)25-19(17)13-18(16)22/h8,10-11,14,16-19,21-22H,2-7,9,12-13H2,1H3,(H,23,24)/b11-10+,15-8-/t14-,16+,17+,18+,19-/m0/s1
Instrument: Agilent QTof 6545, Agilent Technologies [MS:1000490]
Instrument type: LC-ESI-QTOF
Ms type: MS2
Ion mode: NEGATIVE
Ionization: ESI
Fragmentation mode: CID
Collision energy: 10.0 eV
Resolution: N/A
Base peak: 351.217712402344
Precursor m/z: 351.217712402344
Precursor type: [M-H]1-
m/z	relative intensity	assigned
83.05065785167876	377	
189.1289850160407	54	
205.1602187501401	100	
271.20705201684024	55	
315.19605894010033	125	
323.22199304258714	109	
351.217937960273	999	precursor
