Mass spectrum: TXB1; LC-ESI-QTOF; MS2; CE: 20.0; R=N/A; [M-H]1-
Name: TXB1
Class: Natural Product; Lipid Standard
Formula: C20H36O6
Exact mass: 372.25119
SMILES: CCCCC[C@H](O)\C=C\[C@H]1OC(O)C[C@H](O)[C@@H]1CCCCCCC(O)=O
InChI: InChI=1S/C20H36O6/c1-2-3-6-9-15(21)12-13-18-16(17(22)14-20(25)26-18)10-7-4-5-8-11-19(23)24/h12-13,15-18,20-22,25H,2-11,14H2,1H3,(H,23,24)/b13-12+/t15-,16-,17-,18+,20?/m0/s1
Instrument: Agilent QTof 6545, Agilent Technologies [MS:1000490]
Instrument type: LC-ESI-QTOF
Ms type: MS2
Ion mode: NEGATIVE
Ionization: ESI
Fragmentation mode: CID
Collision energy: 20.0 eV
Resolution: N/A
Base peak: 371.243896484375
Precursor m/z: 371.243896484375
Precursor type: [M-H]1-
m/z	relative intensity
127.11235454821907	9
171.10241970592512	999
193.12291575161512	34
197.11851094039824	423
291.1957991989313	63
