Mass spectrum: 8-HDoHE; LC-ESI-QTOF; MS2; CE: 10.0; R=N/A; [M-H]1-
Name: 8-HDoHE
Class: Natural Product; Lipid Standard
Formula: C22H32O3
Exact mass: 344.23514
SMILES: CC\C=C/C\C=C/C\C=C/C\C=C/CC(O)\C=C\C=C/CCC(O)=O
InChI: InChI=1S/C22H32O3/c1-2-3-4-5-6-7-8-9-10-11-12-15-18-21(23)19-16-13-14-17-20-22(24)25/h3-4,6-7,9-10,12-16,19,21,23H,2,5,8,11,17-18,20H2,1H3,(H,24,25)/b4-3-,7-6-,10-9-,14-13-,15-12-,19-16+
Instrument: Agilent QTof 6545, Agilent Technologies [MS:1000490]
Instrument type: LC-ESI-QTOF
Ms type: MS2
Ion mode: NEGATIVE
Ionization: ESI
Fragmentation mode: CID
Collision energy: 10.0 eV
Resolution: N/A
Base peak: 343.227905273438
Precursor m/z: 343.227905273438
Precursor type: [M-H]1-
m/z	relative intensity	assigned
107.08607874549182	13	
109.0654176132281	783	
135.1173385426405	382	
189.16411111977945	999	
281.227547108846	96	
299.23758794154963	82	
343.22682407342876	732	precursor
