Mass spectrum: PGB2-[d4]; LC-ESI-QTOF; MS2; CE: 20.0; R=N/A; [M-H]1-
Name: PGB2-[d4]
Class: Natural Product; Lipid Standard
Formula: C20H30O4
Exact mass: 334.21441
SMILES: CCCCC[C@H](O)\C=C\C1=C(C\C=C/CCCC(O)=O)C(=O)CC1
InChI: InChI=1S/C20H30O4/c1-2-3-6-9-17(21)14-12-16-13-15-19(22)18(16)10-7-4-5-8-11-20(23)24/h4,7,12,14,17,21H,2-3,5-6,8-11,13,15H2,1H3,(H,23,24)/b7-4-,14-12+/t17-/m0/s1
Instrument: Agilent QTof 6545, Agilent Technologies [MS:1000490]
Instrument type: LC-ESI-QTOF
Ms type: MS2
Ion mode: NEGATIVE
Ionization: ESI
Fragmentation mode: CID
Collision energy: 20.0 eV
Resolution: N/A
Base peak: 337.232208251953
Precursor m/z: 337.232208251953
Precursor type: [M-H]1-
m/z	relative intensity	assigned
57.03396802278726	131	
113.0971035882818	816	
167.13822031155192	189	
179.13767127949515	841	
211.12768441099524	307	
239.15875870010936	844	
275.23140536696314	147	
319.22155210764726	374	
337.2319969554295	999	precursor
