Mass spectrum: EPA-[d5]; LC-ESI-QTOF; MS2; CE: 20.0; R=N/A; [M-H]1-
Name: EPA-[d5]
Class: Natural Product; Lipid Standard
Formula: C20H30O2
Exact mass: 302.22458
SMILES: CC\C=C/C\C=C/C\C=C/C\C=C/C\C=C/CCCC(O)=O
InChI: InChI=1S/C20H30O2/c1-2-3-4-5-6-7-8-9-10-11-12-13-14-15-16-17-18-19-20(21)22/h3-4,6-7,9-10,12-13,15-16H,2,5,8,11,14,17-19H2,1H3,(H,21,22)/b4-3-,7-6-,10-9-,13-12-,16-15-
Instrument: Agilent QTof 6545, Agilent Technologies [MS:1000490]
Instrument type: LC-ESI-QTOF
Ms type: MS2
Ion mode: NEGATIVE
Ionization: ESI
Fragmentation mode: CID
Collision energy: 20.0 eV
Resolution: N/A
Base peak: 306.248687744141
Precursor m/z: 306.248687744141
Precursor type: [M-H]1-
m/z	relative intensity	assigned
208.2122752283884	110	
262.2586933705134	514	
306.24832452647627	999	precursor
