Mass spectrum: PGF2alpha-[d4]; LC-ESI-QTOF; MS2; CE: 30.0; R=N/A; [M-H]1-
Name: PGF2alpha-[d4]
Class: Natural Product; Lipid Standard
Formula: C20H34O5
Exact mass: 354.24062
SMILES: CCCCC[C@H](O)\C=C\[C@H]1[C@H](O)C[C@H](O)[C@@H]1C\C=C/CCCC(O)=O
InChI: InChI=1S/C20H34O5/c1-2-3-6-9-15(21)12-13-17-16(18(22)14-19(17)23)10-7-4-5-8-11-20(24)25/h4,7,12-13,15-19,21-23H,2-3,5-6,8-11,14H2,1H3,(H,24,25)/b7-4-,13-12+/t15-,16+,17+,18-,19+/m0/s1
Instrument: Agilent QTof 6545, Agilent Technologies [MS:1000490]
Instrument type: LC-ESI-QTOF
Ms type: MS2
Ion mode: NEGATIVE
Ionization: ESI
Fragmentation mode: CID
Collision energy: 30.0 eV
Resolution: N/A
Base peak: 357.258514404297
Precursor m/z: 357.258514404297
Precursor type: [M-H]1-
m/z	relative intensity
59.01371179229986	436
83.05009656859015	296
169.1534643676494	216
175.12798152602332	241
197.14835106076595	999
213.14371027774905	355
251.23170997251427	430
295.22078459221245	356
313.23237824934904	358
