Mass spectrum: PGB2-[d4]; LC-ESI-QTOF; MS2; CE: 30.0; R=N/A; [M-H]1-
Name: PGB2-[d4]
Class: Natural Product; Lipid Standard
Formula: C20H30O4
Exact mass: 334.21441
SMILES: CCCCC[C@H](O)\C=C\C1=C(C\C=C/CCCC(O)=O)C(=O)CC1
InChI: InChI=1S/C20H30O4/c1-2-3-6-9-17(21)14-12-16-13-15-19(22)18(16)10-7-4-5-8-11-20(23)24/h4,7,12,14,17,21H,2-3,5-6,8-11,13,15H2,1H3,(H,23,24)/b7-4-,14-12+/t17-/m0/s1
Instrument: Agilent QTof 6545, Agilent Technologies [MS:1000490]
Instrument type: LC-ESI-QTOF
Ms type: MS2
Ion mode: NEGATIVE
Ionization: ESI
Fragmentation mode: CID
Collision energy: 30.0 eV
Resolution: N/A
Base peak: 337.232208251953
Precursor m/z: 337.232208251953
Precursor type: [M-H]1-
m/z	relative intensity
57.03441874397848	287
113.0970897203979	998
167.1383812951916	122
179.13785679630865	380
211.12810925349274	37
239.15883290694734	225
275.23288565992067	31
319.222942992183	76
