Mass spectrum: 5-HpETE; LC-ESI-QFT; MS2; CE: 30.0; R=30.000; [M-H]1-
Name: 5-HpETE
Class: Natural Product; Lipid Standard
Formula: C20H32O4
Exact mass: 336.23006
SMILES: C(CC/C=C\C/C=C\C/C=C\C=C\C(CCCC(=O)O)OO)CC
InChI: InChI=1S/C20H32O4/c1-2-3-4-5-6-7-8-9-10-11-12-13-14-16-19(24-23)17-15-18-20(21)22/h6-7,9-10,12-14,16,19,23H,2-5,8,11,15,17-18H2,1H3,(H,21,22)/b7-6-,10-9-,13-12-,16-14+
Instrument: Q-Exactive HF, Thermo Scientific [MS:1002523]
Instrument type: LC-ESI-QFT
Ms type: MS2
Ion mode: NEGATIVE
Ionization: ESI
Fragmentation mode: HCD
Collision energy: 30.0 NCE
Resolution: 30.000
Base peak: 335.2225
Precursor m/z: 335.2225
Precursor type: [M-H]1-
m/z	relative intensity	assigned
59.01345443725586	999	
109.06585624001242	185	
129.05574174360797	168	
155.0713750665838	220	
163.14923789284447	83	
203.18040466308594	332	
273.222412109375	66	
299.20153253728694	13	
317.211875221946	25	
335.22281222873266	9	precursor
