Mass spectrum: 12-HETE-[d8]; LC-ESI-QFT; MS2; CE: 20.0; R=30.000; [M-H]1-
Name: 12-HETE-[d8]
Class: Natural Product; Lipid Standard
Formula: C20H32O3
Exact mass: 320.23514
SMILES: [H]C(CCCC(O)=O)=CCC([H])=CC([H])=CC(O)CC([H])=CCCCCC
InChI: InChI=1S/C20H32O3/c1-2-3-4-5-10-13-16-19(21)17-14-11-8-6-7-9-12-15-18-20(22)23/h7-11,13-14,17,19,21H,2-6,12,15-16,18H2,1H3,(H,22,23)
Instrument: Q-Exactive HF, Thermo Scientific [MS:1002523]
Instrument type: LC-ESI-QFT
Ms type: MS2
Ion mode: NEGATIVE
Ionization: ESI
Fragmentation mode: HCD
Collision energy: 20.0 NCE
Resolution: 30.000
Base peak: 327.2781
Precursor m/z: 327.2781
Precursor type: [M-H]1-
m/z	relative intensity	assigned
59.01348428165211	5	
140.14935896131726	30	
169.15060085720486	20	
184.13904317220053	362	
214.14818572998047	44	
237.2460174560547	0	
265.27749972873266	70	
283.2879621717665	9	
309.2672237820095	148	
327.27757263183594	998	precursor
