Mass spectrum: PGF2alpha-[d4]; LC-ESI-QFT; MS2; CE: 40.0; R=30.000; [M-H]1-
Name: PGF2alpha-[d4]
Class: Natural Product; Lipid Standard
Formula: C20H34O5
Exact mass: 354.24062
SMILES: CCCCC[C@H](O)\C=C\[C@H]1[C@H](O)C[C@H](O)[C@@H]1C\C=C/CCCC(O)=O
InChI: InChI=1S/C20H34O5/c1-2-3-6-9-15(21)12-13-17-16(18(22)14-19(17)23)10-7-4-5-8-11-20(24)25/h4,7,12-13,15-19,21-23H,2-3,5-6,8-11,14H2,1H3,(H,24,25)/b7-4-,13-12+/t15-,16+,17+,18-,19+/m0/s1
Instrument: Q-Exactive HF, Thermo Scientific [MS:1002523]
Instrument type: LC-ESI-QFT
Ms type: MS2
Ion mode: NEGATIVE
Ionization: ESI
Fragmentation mode: HCD
Collision energy: 40.0 NCE
Resolution: 30.000
Base peak: 357.2588
Precursor m/z: 357.2588
Precursor type: [M-H]1-
m/z	relative intensity	assigned
59.01352100372314	183	
83.05027236938477	133	
169.15376052856445	321	
175.1279083251953	354	
197.14864349365234	999	
213.14367446899413	279	
251.23196334838866	479	
295.2217712402344	466	
313.232405090332	537	
357.2587463378906	142	precursor
