Mass spectrum: tetranor-12-HETE; LC-ESI-QTOF; MS2; CE: 20.0; R=N/A; [M-H]1-
Name: tetranor-12-HETE
Class: Natural Product; Lipid Standard
Formula: C16H26O3
Exact mass: 266.18819
SMILES: CCCCC\C=C/C[C@@H](O)\C=C\C=C/CCC(O)=O
InChI: InChI=1S/C16H26O3/c1-2-3-4-5-6-9-12-15(17)13-10-7-8-11-14-16(18)19/h6-10,13,15,17H,2-5,11-12,14H2,1H3,(H,18,19)/b8-7-,9-6-,13-10+/t15-/m1/s1
Instrument: Agilent QTof 6545, Agilent Technologies [MS:1000490]
Instrument type: LC-ESI-QTOF
Ms type: MS2
Ion mode: NEGATIVE
Ionization: ESI
Fragmentation mode: CID
Collision energy: 20.0 eV
Resolution: N/A
Base peak: 265.180908203125
Precursor m/z: 265.180908203125
Precursor type: [M-H]1-
m/z	relative intensity	assigned
91.05523866816075	36	
109.06587158581762	999	
139.11222142241087	7	
165.12851926744773	123	
203.18002153808004	32	
265.17994426039553	9	precursor
