Mass spectrum: 9(10)-EpOME-[d4]; LC-ESI-QTOF; MS2; CE: 30.0; R=N/A; [M-H]1-
Name: 9(10)-EpOME-[d4]
Class: Natural Product; Lipid Standard
Formula: C18H32O3
Exact mass: 296.23514
SMILES: CCCCC\C=C/CC1OC1CCCCCCCC(O)=O
InChI: InChI=1S/C18H32O3/c1-2-3-4-5-7-10-13-16-17(21-16)14-11-8-6-9-12-15-18(19)20/h7,10,16-17H,2-6,8-9,11-15H2,1H3,(H,19,20)/b10-7-
Instrument: Agilent QTof 6545, Agilent Technologies [MS:1000490]
Instrument type: LC-ESI-QTOF
Ms type: MS2
Ion mode: NEGATIVE
Ionization: ESI
Fragmentation mode: CID
Collision energy: 30.0 eV
Resolution: N/A
Base peak: 299.252990722656
Precursor m/z: 299.252990722656
Precursor type: [M-H]1-
m/z	relative intensity	assigned
172.10881819121735	999	
185.11524918592076	321	
280.2358263737697	75	
281.2420734764576	434	
299.2528135909608	68	precursor
