Mass spectrum: DHA-[d5]; LC-ESI-QFT; MS2; CE: 20.0; R=30.000; [M-H]1-
Name: DHA-[d5]
Class: Natural Product; Lipid Standard
Formula: C22H32O2
Exact mass: 328.24023
SMILES: C(\C/C=C\C/C=C\C/C=C\CC)=C\C/C=C\C/C=C\CCC(=O)O
InChI: InChI=1S/C22H32O2/c1-2-3-4-5-6-7-8-9-10-11-12-13-14-15-16-17-18-19-20-21-22(23)24/h3-4,6-7,9-10,12-13,15-16,18-19H,2,5,8,11,14,17,20-21H2,1H3,(H,23,24)/b4-3-,7-6-,10-9-,13-12-,16-15-,19-18-
Instrument: Q-Exactive HF, Thermo Scientific [MS:1002523]
Instrument type: LC-ESI-QFT
Ms type: MS2
Ion mode: NEGATIVE
Ionization: ESI
Fragmentation mode: HCD
Collision energy: 20.0 NCE
Resolution: 30.000
Base peak: 332.2643
Precursor m/z: 332.2643
Precursor type: [M-H]1-
m/z	relative intensity	assigned
59.01347198486328	34	
182.19611892700195	27	
234.2273910522461	114	
260.24336395263674	4	
288.27429656982423	636	
314.2533752441406	9	
332.26405639648436	999	precursor
