Mass spectrum: 14(15)-EpETE; LC-ESI-QTOF; MS2; CE: 10.0; R=N/A; [M-H]1-
Name: 14(15)-EpETE
Class: Natural Product; Lipid Standard
Formula: C20H30O3
Exact mass: 318.21949
SMILES: O=C(CCC/C=C\C/C=C\C/C=C\CC1C(O1)C/C=C\CC)O
InChI: InChI=1S/C20H30O3/c1-2-3-12-15-18-19(23-18)16-13-10-8-6-4-5-7-9-11-14-17-20(21)22/h3-4,6-7,9-10,12-13,18-19H,2,5,8,11,14-17H2,1H3,(H,21,22)/b6-4-,9-7-,12-3-,13-10-
Instrument: Agilent QTof 6545, Agilent Technologies [MS:1000490]
Instrument type: LC-ESI-QTOF
Ms type: MS2
Ion mode: NEGATIVE
Ionization: ESI
Fragmentation mode: CID
Collision energy: 10.0 eV
Resolution: N/A
Base peak: 317.212188720703
Precursor m/z: 317.212188720703
Precursor type: [M-H]1-
m/z	relative intensity	assigned
59.01328528523018	135	
121.06571482905674	44	
175.14856085605535	86	
207.13910349684087	637	
219.1385847456404	281	
248.14164531083074	285	
255.21148682654174	243	
273.22166839939536	65	
299.2015630277387	222	
317.2118913457427	999	precursor
