Mass spectrum: DHA-[d5]; LC-ESI-QTOF; MS2; CE: 10.0; R=N/A; [M-H]1-
Name: DHA-[d5]
Class: Natural Product; Lipid Standard
Formula: C22H32O2
Exact mass: 328.24023
SMILES: C(\C/C=C\C/C=C\C/C=C\CC)=C\C/C=C\C/C=C\CCC(=O)O
InChI: InChI=1S/C22H32O2/c1-2-3-4-5-6-7-8-9-10-11-12-13-14-15-16-17-18-19-20-21-22(23)24/h3-4,6-7,9-10,12-13,15-16,18-19H,2,5,8,11,14,17,20-21H2,1H3,(H,23,24)/b4-3-,7-6-,10-9-,13-12-,16-15-,19-18-
Instrument: Agilent QTof 6545, Agilent Technologies [MS:1000490]
Instrument type: LC-ESI-QTOF
Ms type: MS2
Ion mode: NEGATIVE
Ionization: ESI
Fragmentation mode: CID
Collision energy: 10.0 eV
Resolution: N/A
Base peak: 332.264312744141
Precursor m/z: 332.264312744141
Precursor type: [M-H]1-
m/z	relative intensity	assigned
59.01334957232543	42	
182.19589273676286	22	
234.22740575891214	64	
288.2745563890721	422	
332.26446481208285	999	precursor
