Mass spectrum: 13-HODE-[d4]; LC-ESI-QTOF; MS2; CE: 30.0; R=N/A; [M-H]1-
Name: 13-HODE-[d4]
Class: Natural Product; Lipid Standard
Formula: C18H32O3
Exact mass: 296.23514
SMILES: C(CCCCCCC/C=C\C=C\C(CCCCC)O)(=O)O
InChI: InChI=1S/C18H32O3/c1-2-3-11-14-17(19)15-12-9-7-5-4-6-8-10-13-16-18(20)21/h7,9,12,15,17,19H,2-6,8,10-11,13-14,16H2,1H3,(H,20,21)/b9-7-,15-12+
Instrument: Agilent QTof 6545, Agilent Technologies [MS:1000490]
Instrument type: LC-ESI-QTOF
Ms type: MS2
Ion mode: NEGATIVE
Ionization: ESI
Fragmentation mode: CID
Collision energy: 30.0 eV
Resolution: N/A
Base peak: 299.252990722656
Precursor m/z: 299.252990722656
Precursor type: [M-H]1-
m/z	relative intensity	assigned
114.10354368505017	350	
198.15761141904485	963	
280.2368656509348	291	
281.24228140464527	999	
299.2523099421305	507	precursor
