Mass spectrum: AA-[d8]; LC-ESI-QTOF; MS2; CE: 30.0; R=N/A; [M-H]1-
Name: AA-[d8]
Class: Natural Product; Lipid Standard
Formula: C20H32O2
Exact mass: 304.24023
SMILES: CCCCC\C=C/C\C=C/C\C=C/C\C=C/CCCC(O)=O
InChI: InChI=1S/C20H32O2/c1-2-3-4-5-6-7-8-9-10-11-12-13-14-15-16-17-18-19-20(21)22/h6-7,9-10,12-13,15-16H,2-5,8,11,14,17-19H2,1H3,(H,21,22)/b7-6-,10-9-,13-12-,16-15-
Instrument: Agilent QTof 6545, Agilent Technologies [MS:1000490]
Instrument type: LC-ESI-QTOF
Ms type: MS2
Ion mode: NEGATIVE
Ionization: ESI
Fragmentation mode: CID
Collision energy: 30.0 eV
Resolution: N/A
Base peak: 311.283203125
Precursor m/z: 311.283203125
Precursor type: [M-H]1-
m/z	relative intensity
59.01321949449454	999
