Mass spectrum: 15-HETE-[d8]; LC-ESI-QTOF; MS2; CE: 30.0; R=N/A; [M-H]1-
Name: 15-HETE-[d8]
Class: Natural Product; Lipid Standard
Formula: C20H32O3
Exact mass: 320.23514
SMILES: CCCCCC(O)\C=C\C=C/C\C=C/C\C=C/CCCC(O)=O
InChI: InChI=1S/C20H32O3/c1-2-3-13-16-19(21)17-14-11-9-7-5-4-6-8-10-12-15-18-20(22)23/h4-5,8-11,14,17,19,21H,2-3,6-7,12-13,15-16,18H2,1H3,(H,22,23)/b5-4-,10-8-,11-9-,17-14+
Instrument: Agilent QTof 6545, Agilent Technologies [MS:1000490]
Instrument type: LC-ESI-QTOF
Ms type: MS2
Ion mode: NEGATIVE
Ionization: ESI
Fragmentation mode: CID
Collision energy: 30.0 eV
Resolution: N/A
Base peak: 327.278106689453
Precursor m/z: 327.278106689453
Precursor type: [M-H]1-
m/z	relative intensity
114.10318916481862	999
182.19244134357118	109
210.22458681408563	248
265.2774654118598	153
309.2672841389123	184
