Mass spectrum: 8-HETE; LC-ESI-QTOF; MS2; CE: 20.0; R=N/A; [M-H]1-
Name: 8-HETE
Class: Natural Product; Lipid Standard
Formula: C20H32O3
Exact mass: 320.23514
SMILES: CCCCC\C=C/C\C=C/C=C/C(O)C\C=C/CCCC(O)=O
InChI: InChI=1S/C20H32O3/c1-2-3-4-5-6-7-8-9-10-13-16-19(21)17-14-11-12-15-18-20(22)23/h6-7,9-11,13-14,16,19,21H,2-5,8,12,15,17-18H2,1H3,(H,22,23)/b7-6-,10-9-,14-11-,16-13+
Instrument: Agilent QTof 6545, Agilent Technologies [MS:1000490]
Instrument type: LC-ESI-QTOF
Ms type: MS2
Ion mode: NEGATIVE
Ionization: ESI
Fragmentation mode: CID
Collision energy: 20.0 eV
Resolution: N/A
Base peak: 319.227905273438
Precursor m/z: 319.227905273438
Precursor type: [M-H]1-
m/z	relative intensity	assigned
59.01340331740852	232	
111.081384614796	216	
127.07623874045683	505	
155.07095141093694	865	
163.14863418383268	999	
203.18017445432275	133	
257.2272092427489	334	
275.23746350423914	67	
301.21683976711563	266	
319.227847868571	134	precursor
