Mass spectrum: 12(13)-EpOME-[d4]; LC-ESI-QTOF; MS2; CE: 10.0; R=N/A; [M-H]1-
Name: 12(13)-EpOME-[d4]
Class: Natural Product; Lipid Standard
Formula: C18H32O3
Exact mass: 296.23514
SMILES: CCCCCC1OC1C\C=C/CCCCCCCC(O)=O
InChI: InChI=1S/C18H32O3/c1-2-3-10-13-16-17(21-16)14-11-8-6-4-5-7-9-12-15-18(19)20/h8,11,16-17H,2-7,9-10,12-15H2,1H3,(H,19,20)/b11-8-
Instrument: Agilent QTof 6545, Agilent Technologies [MS:1000490]
Instrument type: LC-ESI-QTOF
Ms type: MS2
Ion mode: NEGATIVE
Ionization: ESI
Fragmentation mode: CID
Collision energy: 10.0 eV
Resolution: N/A
Base peak: 299.252990722656
Precursor m/z: 299.252990722656
Precursor type: [M-H]1-
m/z	relative intensity	assigned
59.01333668217696	5	
114.10359292648505	5	
185.15109067144238	11	
198.15796682981943	114	
281.24131082622813	91	
299.2522539994392	999	precursor
