Mass spectrum: TXB2-[d4]; LC-ESI-QTOF; MS2; CE: 30.0; R=N/A; [M-H]1-
Name: TXB2-[d4]
Class: Natural Product; Lipid Standard
Formula: C20H34O6
Exact mass: 370.23554
SMILES: CCCCC[C@H](O)\C=C\[C@H]1OC(O)C[C@H](O)[C@@H]1C\C=C/CCCC(O)=O
InChI: InChI=1S/C20H34O6/c1-2-3-6-9-15(21)12-13-18-16(17(22)14-20(25)26-18)10-7-4-5-8-11-19(23)24/h4,7,12-13,15-18,20-22,25H,2-3,5-6,8-11,14H2,1H3,(H,23,24)/b7-4-,13-12+/t15-,16-,17-,18+,20?/m0/s1
Instrument: Agilent QTof 6545, Agilent Technologies [MS:1000490]
Instrument type: LC-ESI-QTOF
Ms type: MS2
Ion mode: NEGATIVE
Ionization: ESI
Fragmentation mode: CID
Collision energy: 30.0 eV
Resolution: N/A
Base peak: 373.253387451172
Precursor m/z: 373.253387451172
Precursor type: [M-H]1-
m/z	relative intensity
129.12213442464392	224
155.13791498532103	86
173.1121076218203	999
181.11701683828773	76
199.1278476792568	203
293.2062625706964	20
