Mass spectrum: 11-HETE; LC-ESI-QTOF; MS2; CE: 20.0; R=N/A; [M-H]1-
Name: 11-HETE
Class: Natural Product; Lipid Standard
Formula: C20H32O3
Exact mass: 320.23514
SMILES: CCCCC\C=C/C=C/C(O)C\C=C/C\C=C/CCCC(O)=O
InChI: InChI=1S/C20H32O3/c1-2-3-4-5-7-10-13-16-19(21)17-14-11-8-6-9-12-15-18-20(22)23/h6-7,9-11,13-14,16,19,21H,2-5,8,12,15,17-18H2,1H3,(H,22,23)/b9-6-,10-7-,14-11-,16-13+
Instrument: Agilent QTof 6545, Agilent Technologies [MS:1000490]
Instrument type: LC-ESI-QTOF
Ms type: MS2
Ion mode: NEGATIVE
Ionization: ESI
Fragmentation mode: CID
Collision energy: 20.0 eV
Resolution: N/A
Base peak: 319.227905273438
Precursor m/z: 319.227905273438
Precursor type: [M-H]1-
m/z	relative intensity	assigned
149.09715578663744	93	
167.1076568165113	999	
195.10228760857393	16	
257.2261946589	17	
275.2374640373647	15	
301.217796755331	26	
319.2279459438691	72	precursor
