Mass spectrum: 8-HETE; LC-ESI-QTOF; MS2; CE: 10.0; R=N/A; [M-H]1-
Name: 8-HETE
Class: Natural Product; Lipid Standard
Formula: C20H32O3
Exact mass: 320.23514
SMILES: CCCCC\C=C/C\C=C/C=C/C(O)C\C=C/CCCC(O)=O
InChI: InChI=1S/C20H32O3/c1-2-3-4-5-6-7-8-9-10-13-16-19(21)17-14-11-12-15-18-20(22)23/h6-7,9-11,13-14,16,19,21H,2-5,8,12,15,17-18H2,1H3,(H,22,23)/b7-6-,10-9-,14-11-,16-13+
Instrument: Agilent QTof 6545, Agilent Technologies [MS:1000490]
Instrument type: LC-ESI-QTOF
Ms type: MS2
Ion mode: NEGATIVE
Ionization: ESI
Fragmentation mode: CID
Collision energy: 10.0 eV
Resolution: N/A
Base peak: 319.227905273438
Precursor m/z: 319.227905273438
Precursor type: [M-H]1-
m/z	relative intensity	assigned
59.01345145303933	30	
127.07642426549512	77	
155.0709432626574	622	
163.14896372834824	235	
203.1802478652425	54	
257.2268078020774	358	
275.23822018858124	30	
301.21710288742696	684	
319.22748963261085	999	precursor
