Mass spectrum: 8,9-DHET-[d11]; LC-ESI-QTOF; MS2; CE: 10.0; R=N/A; [M-H]1-
Name: 8,9-DHET-[d11]
Class: Natural Product; Lipid Standard
Formula: C20H34O4
Exact mass: 338.24571
SMILES: CCCCC\C=C/C\C=C/CC(O)C(O)C\C=C/CCCC(O)=O
InChI: InChI=1S/C20H34O4/c1-2-3-4-5-6-7-8-9-12-15-18(21)19(22)16-13-10-11-14-17-20(23)24/h6-7,9-10,12-13,18-19,21-22H,2-5,8,11,14-17H2,1H3,(H,23,24)/b7-6-,12-9-,13-10-
Instrument: Agilent QTof 6545, Agilent Technologies [MS:1000490]
Instrument type: LC-ESI-QTOF
Ms type: MS2
Ion mode: NEGATIVE
Ionization: ESI
Fragmentation mode: CID
Collision energy: 10.0 eV
Resolution: N/A
Base peak: 348.307495117188
Precursor m/z: 348.307495117188
Precursor type: [M-H]1-
m/z	relative intensity	assigned
111.08215464163519	8	
123.08170382781155	10	
127.07653076939543	33	
141.09243922242499	12	
185.08182877258724	44	
268.29717621786136	5	
330.2974976082322	28	
348.3079220303146	998	precursor
