Mass spectrum: 12-HETE-[d8]; LC-ESI-QFT; MS2; CE: 30.0; R=30.000; [M-H]1-
Name: 12-HETE-[d8]
Class: Natural Product; Lipid Standard
Formula: C20H32O3
Exact mass: 320.23514
SMILES: [H]C(CCCC(O)=O)=CCC([H])=CC([H])=CC(O)CC([H])=CCCCCC
InChI: InChI=1S/C20H32O3/c1-2-3-4-5-10-13-16-19(21)17-14-11-8-6-7-9-12-15-18-20(22)23/h7-11,13-14,17,19,21H,2-6,12,15-16,18H2,1H3,(H,22,23)
Instrument: Q-Exactive HF, Thermo Scientific [MS:1002523]
Instrument type: LC-ESI-QFT
Ms type: MS2
Ion mode: NEGATIVE
Ionization: ESI
Fragmentation mode: HCD
Collision energy: 30.0 NCE
Resolution: 30.000
Base peak: 327.2781
Precursor m/z: 327.2781
Precursor type: [M-H]1-
m/z	relative intensity	assigned
59.013488345675995	167	
140.14935472276477	188	
169.15055762396918	75	
184.13904571533203	999	
214.14820522732205	100	
237.24622684054904	23	
265.2774878607856	342	
283.28802998860675	58	
309.26724582248266	390	
327.27774895562067	540	precursor
