Mass spectrum: 9(10)-EpOME-[d4]; LC-ESI-QFT; MS2; CE: 40.0; R=30.000; [M-H]1-
Name: 9(10)-EpOME-[d4]
Class: Natural Product; Lipid Standard
Formula: C18H32O3
Exact mass: 296.23514
SMILES: CCCCC\C=C/CC1OC1CCCCCCCC(O)=O
InChI: InChI=1S/C18H32O3/c1-2-3-4-5-7-10-13-16-17(21-16)14-11-8-6-9-12-15-18(19)20/h7,10,16-17H,2-6,8-9,11-15H2,1H3,(H,19,20)/b10-7-
Instrument: Q-Exactive HF, Thermo Scientific [MS:1002523]
Instrument type: LC-ESI-QFT
Ms type: MS2
Ion mode: NEGATIVE
Ionization: ESI
Fragmentation mode: HCD
Collision energy: 40.0 NCE
Resolution: 30.000
Base peak: 299.253
Precursor m/z: 299.253
Precursor type: [M-H]1-
m/z	relative intensity	assigned
59.01350090720437	60	
172.10900185324928	982	
185.11519414728338	94	
198.15786743164062	4	
280.23586203835225	313	
281.241923939098	999	
299.2524580522017	283	precursor
