Mass spectrum: 16-HDoHE; LC-ESI-QTOF; MS2; CE: 10.0; R=N/A; [M-H]1-
Name: 16-HDoHE
Class: Natural Product; Lipid Standard
Formula: C22H32O3
Exact mass: 344.23514
SMILES: CC\C=C/C=C/C(O)C\C=C/C\C=C/C\C=C/C\C=C/CCC(O)=O
InChI: InChI=1S/C22H32O3/c1-2-3-4-15-18-21(23)19-16-13-11-9-7-5-6-8-10-12-14-17-20-22(24)25/h3-4,6-9,12-16,18,21,23H,2,5,10-11,17,19-20H2,1H3,(H,24,25)/b4-3-,8-6-,9-7-,14-12-,16-13-,18-15+
Instrument: Agilent QTof 6545, Agilent Technologies [MS:1000490]
Instrument type: LC-ESI-QTOF
Ms type: MS2
Ion mode: NEGATIVE
Ionization: ESI
Fragmentation mode: CID
Collision energy: 10.0 eV
Resolution: N/A
Base peak: 343.227905273438
Precursor m/z: 343.227905273438
Precursor type: [M-H]1-
m/z	relative intensity	assigned
59.013382556594365	24	
125.09719586594738	30	
135.11748882977255	15	
189.16428649016817	103	
233.15417364464588	734	
261.14986202083907	32	
281.22735368344775	56	
299.2373390872499	49	
325.2168049555691	96	
343.22720646115505	999	precursor
