Mass spectrum: 14(15)-EpETE; LC-ESI-QFT; MS2; CE: 30.0; R=30.000; [M-H]1-
Name: 14(15)-EpETE
Class: Natural Product; Lipid Standard
Formula: C20H30O3
Exact mass: 318.21949
SMILES: O=C(CCC/C=C\C/C=C\C/C=C\CC1C(O1)C/C=C\CC)O
InChI: InChI=1S/C20H30O3/c1-2-3-12-15-18-19(23-18)16-13-10-8-6-4-5-7-9-11-14-17-20(21)22/h3-4,6-7,9-10,12-13,18-19H,2,5,8,11,14-17H2,1H3,(H,21,22)/b6-4-,9-7-,12-3-,13-10-
Instrument: Q-Exactive HF, Thermo Scientific [MS:1002523]
Instrument type: LC-ESI-QFT
Ms type: MS2
Ion mode: NEGATIVE
Ionization: ESI
Fragmentation mode: HCD
Collision energy: 30.0 NCE
Resolution: 30.000
Base peak: 317.2122
Precursor m/z: 317.2122
Precursor type: [M-H]1-
m/z	relative intensity	assigned
59.01347038962624	491	
121.06587219238281	253	
175.14917408336294	188	
207.13898953524503	999	
219.1390186656605	218	
248.1415349786932	111	
255.21172402121803	291	
273.2222872647372	90	
299.20149369673294	168	
317.2119057395241	413	precursor
