Mass spectrum: 12-HHTrE; LC-ESI-QTOF; MS2; CE: 10.0; R=N/A; [M-H]1-
Name: 12-HHTrE
Class: Natural Product; Lipid Standard
Formula: C17H28O3
Exact mass: 280.20384
SMILES: CCCCCC(O)\C=C\C=C\C\C=C\CCCC(O)=O
InChI: InChI=1S/C17H28O3/c1-2-3-10-13-16(18)14-11-8-6-4-5-7-9-12-15-17(19)20/h5-8,11,14,16,18H,2-4,9-10,12-13,15H2,1H3,(H,19,20)/b7-5+,8-6+,14-11+
Instrument: Agilent QTof 6545, Agilent Technologies [MS:1000490]
Instrument type: LC-ESI-QTOF
Ms type: MS2
Ion mode: NEGATIVE
Ionization: ESI
Fragmentation mode: CID
Collision energy: 10.0 eV
Resolution: N/A
Base peak: 279.196594238281
Precursor m/z: 279.196594238281
Precursor type: [M-H]1-
m/z	relative intensity	assigned
59.01316407257411	70	
113.09711934116143	43	
135.11767542534517	236	
163.1490988257975	45	
179.10733850459766	460	
189.16432125411112	33	
217.1959119194238	178	
235.2054805132939	24	
261.18555774781464	322	
279.1962581913878	999	precursor
