Mass spectrum: DHA-[d5]; LC-ESI-QFT; MS2; CE: 30.0; R=30.000; [M-H]1-
Name: DHA-[d5]
Class: Natural Product; Lipid Standard
Formula: C22H32O2
Exact mass: 328.24023
SMILES: C(\C/C=C\C/C=C\C/C=C\CC)=C\C/C=C\C/C=C\CCC(=O)O
InChI: InChI=1S/C22H32O2/c1-2-3-4-5-6-7-8-9-10-11-12-13-14-15-16-17-18-19-20-21-22(23)24/h3-4,6-7,9-10,12-13,15-16,18-19H,2,5,8,11,14,17,20-21H2,1H3,(H,23,24)/b4-3-,7-6-,10-9-,13-12-,16-15-,19-18-
Instrument: Q-Exactive HF, Thermo Scientific [MS:1002523]
Instrument type: LC-ESI-QFT
Ms type: MS2
Ion mode: NEGATIVE
Ionization: ESI
Fragmentation mode: HCD
Collision energy: 30.0 NCE
Resolution: 30.000
Base peak: 332.2643
Precursor m/z: 332.2643
Precursor type: [M-H]1-
m/z	relative intensity	assigned
59.01346988677979	614	
182.19612503051758	83	
234.22739868164064	301	
260.2431015014648	55	
288.2743286132812	999	
314.2535400390625	38	
332.26410522460935	920	precursor
