Mass spectrum: Resolvin D1-[d5]; LC-ESI-QTOF; MS2; CE: 20.0; R=N/A; [M-H]1-
Name: Resolvin D1-[d5]
Class: Natural Product; Lipid Standard
Formula: C22H32O5
Exact mass: 376.22497
SMILES: C(\CCC(O)=O)=C\C[C@@H]([C@@H](\C=C\C=C\C=C/C=C/[C@H](C/C=C\CC)O)O)O
InChI: InChI=1S/C22H32O5/c1-2-3-9-14-19(23)15-10-6-4-5-7-11-16-20(24)21(25)17-12-8-13-18-22(26)27/h3-12,15-16,19-21,23-25H,2,13-14,17-18H2,1H3,(H,26,27)/b6-4-,7-5+,9-3-,12-8-,15-10+,16-11+/t19-,20+,21-/m0/s1
Instrument: Agilent QTof 6545, Agilent Technologies [MS:1000490]
Instrument type: LC-ESI-QTOF
Ms type: MS2
Ion mode: NEGATIVE
Ionization: ESI
Fragmentation mode: CID
Collision energy: 20.0 eV
Resolution: N/A
Base peak: 380.249114990234
Precursor m/z: 380.249114990234
Precursor type: [M-H]1-
m/z	relative intensity
59.013409638062114	242
121.06576738884137	498
135.08147083415778	479
141.0557454661644	862
163.0766451513525	31
220.17566018441832	998
238.18626974724248	217
277.14445141086844	8
362.2368716841957	12
