Mass spectrum: Resolvin D3; LC-ESI-QFT; MS2; CE: 30.0; R=30.000; [M-H]1-
Name: Resolvin D3
Class: Natural Product; Lipid Standard
Formula: C22H32O5
Exact mass: 376.22497
SMILES: C(=C/[C@@H](C\C=C/C=C/[C@H](C/C=C\CC)O)O)\C=C\C=C/[C@H](CCC(O)=O)O
InChI: InChI=1S/C22H32O5/c1-2-3-7-12-19(23)14-10-6-11-15-20(24)13-8-4-5-9-16-21(25)17-18-22(26)27/h3-11,13-14,16,19-21,23-25H,2,12,15,17-18H2,1H3,(H,26,27)/b5-4+,7-3-,11-6-,13-8+,14-10+,16-9-/t19-,20-,21+/m0/s1
Instrument: Q-Exactive HF, Thermo Scientific [MS:1002523]
Instrument type: LC-ESI-QFT
Ms type: MS2
Ion mode: NEGATIVE
Ionization: ESI
Fragmentation mode: HCD
Collision energy: 30.0 NCE
Resolution: 30.000
Base peak: 375.2177
Precursor m/z: 375.2177
Precursor type: [M-H]1-
m/z	relative intensity	assigned
69.03439598083496	133	
95.05037155151368	83	
115.04017372131348	155	
137.09730758666993	146	
147.1180503845215	999	
199.14942779541016	28	
357.20740814208983	7	
375.21798553466795	20	precursor
