Mass spectrum: TXB1; LC-ESI-QFT; MS2; CE: 20.0; R=30.000; [M-H]1-
Name: TXB1
Class: Natural Product; Lipid Standard
Formula: C20H36O6
Exact mass: 372.25119
SMILES: CCCCC[C@H](O)\C=C\[C@H]1OC(O)C[C@H](O)[C@@H]1CCCCCCC(O)=O
InChI: InChI=1S/C20H36O6/c1-2-3-6-9-15(21)12-13-18-16(17(22)14-20(25)26-18)10-7-4-5-8-11-19(23)24/h12-13,15-18,20-22,25H,2-11,14H2,1H3,(H,23,24)/b13-12+/t15-,16-,17-,18+,20?/m0/s1
Instrument: Q-Exactive HF, Thermo Scientific [MS:1002523]
Instrument type: LC-ESI-QFT
Ms type: MS2
Ion mode: NEGATIVE
Ionization: ESI
Fragmentation mode: HCD
Collision energy: 20.0 NCE
Resolution: 30.000
Base peak: 371.2439
Precursor m/z: 371.2439
Precursor type: [M-H]1-
m/z	relative intensity	assigned
127.11320495605469	0	
171.1026397705078	999	
193.12359771728515	2	
197.11827697753907	598	
291.1965835571289	69	
309.2070602416992	42	
327.21758728027345	63	
371.24388275146487	46	precursor
