Mass spectrum: Resolvin D3; LC-ESI-QTOF; MS2; CE: 20.0; R=N/A; [M-H]1-
Name: Resolvin D3
Class: Natural Product; Lipid Standard
Formula: C22H32O5
Exact mass: 376.22497
SMILES: C(=C/[C@@H](C\C=C/C=C/[C@H](C/C=C\CC)O)O)\C=C\C=C/[C@H](CCC(O)=O)O
InChI: InChI=1S/C22H32O5/c1-2-3-7-12-19(23)14-10-6-11-15-20(24)13-8-4-5-9-16-21(25)17-18-22(26)27/h3-11,13-14,16,19-21,23-25H,2,12,15,17-18H2,1H3,(H,26,27)/b5-4+,7-3-,11-6-,13-8+,14-10+,16-9-/t19-,20-,21+/m0/s1
Instrument: Agilent QTof 6545, Agilent Technologies [MS:1000490]
Instrument type: LC-ESI-QTOF
Ms type: MS2
Ion mode: NEGATIVE
Ionization: ESI
Fragmentation mode: CID
Collision energy: 20.0 eV
Resolution: N/A
Base peak: 375.217712402344
Precursor m/z: 375.217712402344
Precursor type: [M-H]1-
m/z	relative intensity	assigned
69.0343438386651	131	
95.05031743441546	228	
115.04031580492851	202	
137.09753071744328	178	
147.11773785292402	999	
199.14959373880822	43	
357.20930532787287	27	
375.21754230569263	47	precursor
