Mass spectrum: Resolvin D3; LC-ESI-QTOF; MS2; CE: 10.0; R=N/A; [M-H]1-
Name: Resolvin D3
Class: Natural Product; Lipid Standard
Formula: C22H32O5
Exact mass: 376.22497
SMILES: C(=C/[C@@H](C\C=C/C=C/[C@H](C/C=C\CC)O)O)\C=C\C=C/[C@H](CCC(O)=O)O
InChI: InChI=1S/C22H32O5/c1-2-3-7-12-19(23)14-10-6-11-15-20(24)13-8-4-5-9-16-21(25)17-18-22(26)27/h3-11,13-14,16,19-21,23-25H,2,12,15,17-18H2,1H3,(H,26,27)/b5-4+,7-3-,11-6-,13-8+,14-10+,16-9-/t19-,20-,21+/m0/s1
Instrument: Agilent QTof 6545, Agilent Technologies [MS:1000490]
Instrument type: LC-ESI-QTOF
Ms type: MS2
Ion mode: NEGATIVE
Ionization: ESI
Fragmentation mode: CID
Collision energy: 10.0 eV
Resolution: N/A
Base peak: 375.217712402344
Precursor m/z: 375.217712402344
Precursor type: [M-H]1-
m/z	relative intensity	assigned
69.03458461319302	12	
95.05027511028837	34	
115.04073812699795	2	
137.09694838668483	4	
147.1177983996362	171	
199.14938694421357	5	
357.20638805094507	40	
375.217179486286	999	precursor
