Mass spectrum: LTB4-[d4]; LC-ESI-QTOF; MS2; CE: 10.0; R=N/A; [M-H]1-
Name: LTB4-[d4]
Class: Natural Product; Lipid Standard
Formula: C20H32O4
Exact mass: 336.23006
SMILES: CCCCC\C=C/C[C@@H](O)\C=C\C=C\C=C/[C@@H](O)CCCC(O)=O
InChI: InChI=1S/C20H32O4/c1-2-3-4-5-6-9-13-18(21)14-10-7-8-11-15-19(22)16-12-17-20(23)24/h6-11,14-15,18-19,21-22H,2-5,12-13,16-17H2,1H3,(H,23,24)/b8-7+,9-6-,14-10+,15-11-/t18-,19-/m1/s1
Instrument: Agilent QTof 6545, Agilent Technologies [MS:1000490]
Instrument type: LC-ESI-QTOF
Ms type: MS2
Ion mode: NEGATIVE
Ionization: ESI
Fragmentation mode: CID
Collision energy: 10.0 eV
Resolution: N/A
Base peak: 339.247894287109
Precursor m/z: 339.247894287109
Precursor type: [M-H]1-
m/z	relative intensity	assigned
59.01348058145047	76	
71.01357228142012	30	
130.06190259405508	24	
153.12582253872935	29	
197.11519018218516	206	
277.24705286494344	8	
321.2366351716589	84	
339.24830455481913	999	precursor
