Mass spectrum: 11,12-DHET-[d11]; LC-ESI-QTOF; MS2; CE: 20.0; R=N/A; [M-H]1-
Name: 11,12-DHET-[d11]
Class: Natural Product; Lipid Standard
Formula: C20H34O4
Exact mass: 338.24571
SMILES: CCCCC\C=C/CC(O)C(O)C\C=C/C\C=C/CCCC(O)=O
InChI: InChI=1S/C20H34O4/c1-2-3-4-5-9-12-15-18(21)19(22)16-13-10-7-6-8-11-14-17-20(23)24/h6,8-10,12-13,18-19,21-22H,2-5,7,11,14-17H2,1H3,(H,23,24)/b8-6-,12-9-,13-10-
Instrument: Agilent QTof 6545, Agilent Technologies [MS:1000490]
Instrument type: LC-ESI-QTOF
Ms type: MS2
Ion mode: NEGATIVE
Ionization: ESI
Fragmentation mode: CID
Collision energy: 20.0 eV
Resolution: N/A
Base peak: 348.307495117188
Precursor m/z: 348.307495117188
Precursor type: [M-H]1-
m/z	relative intensity	assigned
58.005725335365746	198	
167.10762998660798	999	
180.19250724502396	162	
197.118713450818	84	
330.2964881300463	42	
348.3069458134931	252	precursor
