Mass spectrum: Maresin 1; LC-ESI-QFT; MS2; CE: 30.0; R=30.000; [M-H]1-
Name: Maresin 1
Class: Natural Product; Lipid Standard
Formula: C22H32O4
Exact mass: 360.23006
SMILES: C(CC/C=C\C[C@@H](O)/C=C/C=C/C=C\[C@H](C/C=C\C/C=C\CC)O)(O)=O
InChI: InChI=1S/C22H32O4/c1-2-3-4-5-6-10-15-20(23)16-11-7-8-12-17-21(24)18-13-9-14-19-22(25)26/h3-4,6-13,16-17,20-21,23-24H,2,5,14-15,18-19H2,1H3,(H,25,26)/b4-3-,8-7+,10-6-,13-9-,16-11-,17-12+/t20-,21-/m0/s1
Instrument: Q-Exactive HF, Thermo Scientific [MS:1002523]
Instrument type: LC-ESI-QFT
Ms type: MS2
Ion mode: NEGATIVE
Ionization: ESI
Fragmentation mode: HCD
Collision energy: 30.0 NCE
Resolution: 30.000
Base peak: 359.2228
Precursor m/z: 359.2228
Precursor type: [M-H]1-
m/z	relative intensity	assigned
59.01348056793213	608	
93.0345890045166	884	
113.06083946228027	999	
123.08156127929688	769	
177.12845916748046	611	
228.15180053710938	522	
250.1209289550781	393	
297.22227478027344	154	
341.2118835449219	56	
359.2228149414062	119	precursor
