Mass spectrum: 12-HEPE; LC-ESI-QTOF; MS2; CE: 30.0; R=N/A; [M-H]1-
Name: 12-HEPE
Class: Natural Product; Lipid Standard
Formula: C20H30O3
Exact mass: 318.219495
SMILES: CC/C=C\C/C=C\CC(/C=C/C=C\C/C=C\CCCC(=O)O)O
InChI: InChI=1S/C20H30O3/c1-2-3-4-5-10-13-16-19(21)17-14-11-8-6-7-9-12-15-18-20(22)23/h3-4,7-11,13-14,17,19,21H,2,5-6,12,15-16,18H2,1H3,(H,22,23)/b4-3-,9-7-,11-8-,13-10-,17-14+
Instrument: Q-Exactive HF, Thermo Scientific [MS:1002523]
Instrument type: LC-ESI-QTOF
Ms type: MS2
Ion mode: NEGATIVE
Ionization: ESI
Fragmentation mode: HCD
Collision energy: 30.0 eV
Resolution: N/A
Base peak: 317.2122
Precursor m/z: 317.2122
Precursor type: [M-H]1-
m/z	relative intensity	assigned
59.01345478404652	307	
107.08662483908914	122	
135.11791714754972	333	
163.11282348632812	197	
179.1076521439986	999	
208.11042369495738	147	
255.21167685768822	512	
273.22235107421875	86	
299.201396595348	222	
317.2118280584162	362	precursor
