Mass spectrum: PGE2-[d9]; LC-ESI-QFT; MS2; CE: 30.0; R=30.000; [M-H]1-
Name: PGE2-[d9]
Class: Natural Product; Lipid Standard
Formula: C20H32O5
Exact mass: 352.22497
SMILES: CCCCC[C@H](O)\C=C\[C@H]1[C@H](O)CC(=O)[C@@H]1C\C=C/CCCC(O)=O
InChI: InChI=1S/C20H32O5/c1-2-3-6-9-15(21)12-13-17-16(18(22)14-19(17)23)10-7-4-5-8-11-20(24)25/h4,7,12-13,15-17,19,21,23H,2-3,5-6,8-11,14H2,1H3,(H,24,25)/b7-4-,13-12+/t15-,16+,17+,19+/m0/s1
Instrument: Q-Exactive HF, Thermo Scientific [MS:1002523]
Instrument type: LC-ESI-QFT
Ms type: MS2
Ion mode: NEGATIVE
Ionization: ESI
Fragmentation mode: HCD
Collision energy: 30.0 NCE
Resolution: 30.000
Base peak: 360.2738
Precursor m/z: 360.2738
Precursor type: [M-H]1-
m/z	relative intensity	assigned
59.013494873046874	14	
122.15371284484863	58	
175.1127197265625	97	
189.12846832275392	362	
226.21621475219726	32	
233.11825256347657	27	
280.2630447387695	999	
324.2528305053711	202	
342.2633514404297	203	
360.2737553914388	0	precursor
