Mass spectrum: 8,9-DHET-[d11]; LC-ESI-QTOF; MS2; CE: 20.0; R=N/A; [M-H]1-
Name: 8,9-DHET-[d11]
Class: Natural Product; Lipid Standard
Formula: C20H34O4
Exact mass: 338.24571
SMILES: CCCCC\C=C/C\C=C/CC(O)C(O)C\C=C/CCCC(O)=O
InChI: InChI=1S/C20H34O4/c1-2-3-4-5-6-7-8-9-12-15-18(21)19(22)16-13-10-11-14-17-20(23)24/h6-7,9-10,12-13,18-19,21-22H,2-5,8,11,14-17H2,1H3,(H,23,24)/b7-6-,12-9-,13-10-
Instrument: Agilent QTof 6545, Agilent Technologies [MS:1000490]
Instrument type: LC-ESI-QTOF
Ms type: MS2
Ion mode: NEGATIVE
Ionization: ESI
Fragmentation mode: CID
Collision energy: 20.0 eV
Resolution: N/A
Base peak: 348.307495117188
Precursor m/z: 348.307495117188
Precursor type: [M-H]1-
m/z	relative intensity	assigned
73.02923043348555	234	
111.08163014518622	124	
123.08164550562373	218	
127.07598820327357	998	
141.09236834930113	217	
185.08232698110785	310	
220.22394948638023	61	
268.2964089949572	44	
330.295869454738	242	
348.3072390935151	610	precursor
