Mass spectrum: 5,6-DiHETE; LC-ESI-QTOF; MS2; CE: 10.0; R=N/A; [M-H]1-
Name: 5,6-DiHETE
Class: Natural Product; Lipid Standard
Formula: C20H32O4
Exact mass: 336.23006
SMILES: C([C@@H]([C@@H](/C=C/C=C/C=C\C/C=C\CCCCC)O)O)CCC(=O)O
InChI: InChI=1S/C20H32O4/c1-2-3-4-5-6-7-8-9-10-11-12-13-15-18(21)19(22)16-14-17-20(23)24/h6-7,9-13,15,18-19,21-22H,2-5,8,14,16-17H2,1H3,(H,23,24)/b7-6-,10-9-,12-11+,15-13+/t18-,19+/m1/s1
Instrument: Agilent QTof 6545, Agilent Technologies [MS:1000490]
Instrument type: LC-ESI-QTOF
Ms type: MS2
Ion mode: NEGATIVE
Ionization: ESI
Fragmentation mode: CID
Collision energy: 10.0 eV
Resolution: N/A
Base peak: 335.222808837891
Precursor m/z: 335.222808837891
Precursor type: [M-H]1-
m/z	relative intensity	assigned
59.01348900088861	160	
69.03399403436697	76	
115.03974024266995	999	
145.05030048286386	282	
163.14903935936127	74	
189.16412776270357	131	
219.1751636056831	141	
273.22237141890815	121	
317.2120344274603	807	
335.22219271892436	605	precursor
