Mass spectrum: LTB4-[d4]; LC-ESI-QTOF; MS2; CE: 20.0; R=N/A; [M-H]1-
Name: LTB4-[d4]
Class: Natural Product; Lipid Standard
Formula: C20H32O4
Exact mass: 336.23006
SMILES: CCCCC\C=C/C[C@@H](O)\C=C\C=C\C=C/[C@@H](O)CCCC(O)=O
InChI: InChI=1S/C20H32O4/c1-2-3-4-5-6-9-13-18(21)14-10-7-8-11-15-19(22)16-12-17-20(23)24/h6-11,14-15,18-19,21-22H,2-5,12-13,16-17H2,1H3,(H,23,24)/b8-7+,9-6-,14-10+,15-11-/t18-,19-/m1/s1
Instrument: Agilent QTof 6545, Agilent Technologies [MS:1000490]
Instrument type: LC-ESI-QTOF
Ms type: MS2
Ion mode: NEGATIVE
Ionization: ESI
Fragmentation mode: CID
Collision energy: 20.0 eV
Resolution: N/A
Base peak: 339.247894287109
Precursor m/z: 339.247894287109
Precursor type: [M-H]1-
m/z	relative intensity	assigned
71.0136337578165	401	
130.06205557745596	428	
153.12539628699054	308	
197.1150847237013	999	
277.24760861697985	61	
321.2369505038359	249	
339.24750228047424	349	precursor
