Mass spectrum: Resolvin D5; LC-ESI-QTOF; MS2; CE: 20.0; R=N/A; [M-H]1-
Name: Resolvin D5
Class: Natural Product; Lipid Standard
Formula: C22H32O4
Exact mass: 360.23006
SMILES: C(C(O)=O)CC/C=C\[C@@H](/C=C/C=C\C\C=C/C=C/[C@H](C/C=C\CC)O)O
InChI: InChI=1S/C22H32O4/c1-2-3-10-15-20(23)16-11-7-5-4-6-8-12-17-21(24)18-13-9-14-19-22(25)26/h3,5-8,10-13,16-18,20-21,23-24H,2,4,9,14-15,19H2,1H3,(H,25,26)/b7-5-,8-6-,10-3-,16-11+,17-12+,18-13-/t20-,21+/m0/s1
Instrument: Agilent QTof 6545, Agilent Technologies [MS:1000490]
Instrument type: LC-ESI-QTOF
Ms type: MS2
Ion mode: NEGATIVE
Ionization: ESI
Fragmentation mode: CID
Collision energy: 20.0 eV
Resolution: N/A
Base peak: 359.222808837891
Precursor m/z: 359.222808837891
Precursor type: [M-H]1-
m/z	relative intensity	assigned
59.01354791288238	246	
119.08624459508123	327	
141.05535026967527	162	
199.14922636705302	999	
227.1435616004345	191	
279.21246097963245	248	
341.2138522591339	43	
359.22300137017106	57	precursor
