Mass spectrum: 5-OxoETE-[d7]; LC-ESI-QTOF; MS2; CE: 10.0; R=N/A; [M-H]1-
Name: 5-OxoETE-[d7]
Class: Natural Product; Lipid Standard
Formula: C20H30O3
Exact mass: 318.21949
SMILES: CCCCC\C=C/C\C=C/C\C=C/C=C/C(=O)CCCC(O)=O
InChI: InChI=1S/C20H30O3/c1-2-3-4-5-6-7-8-9-10-11-12-13-14-16-19(21)17-15-18-20(22)23/h6-7,9-10,12-14,16H,2-5,8,11,15,17-18H2,1H3,(H,22,23)/b7-6-,10-9-,13-12-,16-14+
Instrument: Agilent QTof 6545, Agilent Technologies [MS:1000490]
Instrument type: LC-ESI-QTOF
Ms type: MS2
Ion mode: NEGATIVE
Ionization: ESI
Fragmentation mode: CID
Collision energy: 10.0 eV
Resolution: N/A
Base peak: 324.256195068359
Precursor m/z: 324.256195068359
Precursor type: [M-H]1-
m/z	relative intensity	assigned
59.01369050665275	93	
71.01392321537443	27	
131.06832297673776	16	
167.17391780399893	16	
210.22458718624347	33	
252.23535317881013	8	
280.2662397347222	37	
324.25573419064386	999	precursor
