Mass spectrum: Resolvin D2-[d5]; LC-ESI-QTOF; MS2; CE: 20.0; R=N/A; [M-H]1-
Name: Resolvin D2-[d5]
Class: Natural Product; Lipid Standard
Formula: C22H32O5
Exact mass: 376.22497
SMILES: C(C/C=C\C[C@@H](/C=C/C=C\C=C\C=C\[C@H]([C@H](C/C=C\CC)O)O)O)C(O)=O
InChI: InChI=1S/C22H32O5/c1-2-3-9-16-20(24)21(25)17-12-7-5-4-6-10-14-19(23)15-11-8-13-18-22(26)27/h3-12,14,17,19-21,23-25H,2,13,15-16,18H2,1H3,(H,26,27)/b6-4-,7-5+,9-3-,11-8-,14-10+,17-12+/t19-,20+,21-/m1/s1
Instrument: Agilent QTof 6545, Agilent Technologies [MS:1000490]
Instrument type: LC-ESI-QTOF
Ms type: MS2
Ion mode: NEGATIVE
Ionization: ESI
Fragmentation mode: CID
Collision energy: 20.0 eV
Resolution: N/A
Base peak: 380.249114990234
Precursor m/z: 380.249114990234
Precursor type: [M-H]1-
m/z	relative intensity	assigned
59.01369817775703	328	
69.03431687349489	435	
113.0611742628289	585	
135.0815681446317	217	
141.0554753680996	502	
175.07646279781466	999	
215.1443110088005	199	
259.1330021777229	215	
277.1447327310549	17	
380.24878701460875	176	precursor
