Mass spectrum: Maresin 1; LC-ESI-QFT; MS2; CE: 20.0; R=30.000; [M-H]1-
Name: Maresin 1
Class: Natural Product; Lipid Standard
Formula: C22H32O4
Exact mass: 360.23006
SMILES: C(CC/C=C\C[C@@H](O)/C=C/C=C/C=C\[C@H](C/C=C\C/C=C\CC)O)(O)=O
InChI: InChI=1S/C22H32O4/c1-2-3-4-5-6-10-15-20(23)16-11-7-8-12-17-21(24)18-13-9-14-19-22(25)26/h3-4,6-13,16-17,20-21,23-24H,2,5,14-15,18-19H2,1H3,(H,25,26)/b4-3-,8-7+,10-6-,13-9-,16-11-,17-12+/t20-,21-/m0/s1
Instrument: Q-Exactive HF, Thermo Scientific [MS:1002523]
Instrument type: LC-ESI-QFT
Ms type: MS2
Ion mode: NEGATIVE
Ionization: ESI
Fragmentation mode: HCD
Collision energy: 20.0 NCE
Resolution: 30.000
Base peak: 359.2228
Precursor m/z: 359.2228
Precursor type: [M-H]1-
m/z	relative intensity	assigned
59.01348094940185	73	
93.03459777832032	51	
113.06083450317382	207	
123.08155555725098	138	
177.12845458984376	237	
228.1518211364746	40	
250.12091445922852	170	
297.22225189208984	145	
341.2119537353516	149	
359.22268829345705	999	precursor
