Mass spectrum: alpha-LA-[d14]; LC-ESI-QFT; MS2; CE: 20.0; R=30.000; [M-H]1-
Name: alpha-LA-[d14]
Class: Natural Product; Lipid Standard
Formula: C18H32O2
Exact mass: 280.24023
SMILES: CCCCC\C=C/C\C=C/CCCCCCCC(O)=O
InChI: InChI=1S/C18H32O2/c1-2-3-4-5-6-7-8-9-10-11-12-13-14-15-16-17-18(19)20/h6-7,9-10H,2-5,8,11-17H2,1H3,(H,19,20)/b7-6-,10-9-
Instrument: Q-Exactive HF, Thermo Scientific [MS:1002523]
Instrument type: LC-ESI-QFT
Ms type: MS2
Ion mode: NEGATIVE
Ionization: ESI
Fragmentation mode: HCD
Collision energy: 20.0 NCE
Resolution: 30.000
Base peak: 291.3052
Precursor m/z: 291.3052
Precursor type: [M-H]1-
m/z	relative intensity	assigned
61.026070064968536	0	
74.03257751464844	0	
215.25920867919922	0	
247.31560940212674	1	
271.2819112141927	0	
291.3050424676192	999	precursor
