Mass spectrum: 12-HETE-[d8]; LC-ESI-QTOF; MS2; CE: 10.0; R=N/A; [M-H]1-
Name: 12-HETE-[d8]
Class: Natural Product; Lipid Standard
Formula: C20H32O3
Exact mass: 320.23514
SMILES: [H]C(CCCC(O)=O)=CCC([H])=CC([H])=CC(O)CC([H])=CCCCCC
InChI: InChI=1S/C20H32O3/c1-2-3-4-5-10-13-16-19(21)17-14-11-8-6-7-9-12-15-18-20(22)23/h7-11,13-14,17,19,21H,2-6,12,15-16,18H2,1H3,(H,22,23)
Instrument: Agilent QTof 6545, Agilent Technologies [MS:1000490]
Instrument type: LC-ESI-QTOF
Ms type: MS2
Ion mode: NEGATIVE
Ionization: ESI
Fragmentation mode: CID
Collision energy: 10.0 eV
Resolution: N/A
Base peak: 327.278106689453
Precursor m/z: 327.278106689453
Precursor type: [M-H]1-
m/z	relative intensity	assigned
59.013061020705194	9	
140.14902253311985	29	
169.15070730456637	20	
184.13876116562173	264	
214.14807409564185	67	
265.27704943282566	50	
283.28743955883994	2	
309.2671732170626	117	
327.27784306871683	999	precursor
