Mass spectrum: PGE2-[d4]; LC-ESI-QFT; MS2; CE: 30.0; R=30.000; [M-H]1-
Name: PGE2-[d4]
Class: Natural Product; Lipid Standard
Formula: C20H32O5
Exact mass: 352.22497
SMILES: CCCCC[C@H](O)\C=C\[C@H]1[C@H](O)CC(=O)[C@@H]1C\C=C/CCCC(O)=O
InChI: InChI=1S/C20H32O5/c1-2-3-6-9-15(21)12-13-17-16(18(22)14-19(17)23)10-7-4-5-8-11-20(24)25/h4,7,12-13,15-17,19,21,23H,2-3,5-6,8-11,14H2,1H3,(H,24,25)/b7-4-,13-12+/t15-,16+,17+,19+/m0/s1
Instrument: Q-Exactive HF, Thermo Scientific [MS:1002523]
Instrument type: LC-ESI-QFT
Ms type: MS2
Ion mode: NEGATIVE
Ionization: ESI
Fragmentation mode: HCD
Collision energy: 30.0 NCE
Resolution: 30.000
Base peak: 355.2428
Precursor m/z: 355.2428
Precursor type: [M-H]1-
m/z	relative intensity	assigned
179.1379867553711	100	
193.15358352661133	393	
237.14348983764648	31	
239.15907516479493	91	
275.2317413330078	999	
293.24241638183594	13	
319.22152252197264	231	
337.2322494506836	190	
355.24205017089844	0	precursor
