Mass spectrum: AA-[d8]; LC-ESI-QFT; MS2; CE: 30.0; R=30.000; [M-H]1-
Name: AA-[d8]
Class: Natural Product; Lipid Standard
Formula: C20H32O2
Exact mass: 304.24023
SMILES: CCCCC\C=C/C\C=C/C\C=C/C\C=C/CCCC(O)=O
InChI: InChI=1S/C20H32O2/c1-2-3-4-5-6-7-8-9-10-11-12-13-14-15-16-17-18-19-20(21)22/h6-7,9-10,12-13,15-16H,2-5,8,11,14,17-19H2,1H3,(H,21,22)/b7-6-,10-9-,13-12-,16-15-
Instrument: Q-Exactive HF, Thermo Scientific [MS:1002523]
Instrument type: LC-ESI-QFT
Ms type: MS2
Ion mode: NEGATIVE
Ionization: ESI
Fragmentation mode: HCD
Collision energy: 30.0 NCE
Resolution: 30.000
Base peak: 311.2832
Precursor m/z: 311.2832
Precursor type: [M-H]1-
m/z	relative intensity	assigned
59.01350141826429	65	
183.20234037700453	1	
212.24018378006784	14	
239.2618512605366	10	
267.2929382324219	108	
311.28222977487667	998	precursor
