Mass spectrum: PGE2-[d4]; LC-ESI-QFT; MS2; CE: 20.0; R=30.000; [M-H]1-
Name: PGE2-[d4]
Class: Natural Product; Lipid Standard
Formula: C20H32O5
Exact mass: 352.22497
SMILES: CCCCC[C@H](O)\C=C\[C@H]1[C@H](O)CC(=O)[C@@H]1C\C=C/CCCC(O)=O
InChI: InChI=1S/C20H32O5/c1-2-3-6-9-15(21)12-13-17-16(18(22)14-19(17)23)10-7-4-5-8-11-20(24)25/h4,7,12-13,15-17,19,21,23H,2-3,5-6,8-11,14H2,1H3,(H,24,25)/b7-4-,13-12+/t15-,16+,17+,19+/m0/s1
Instrument: Q-Exactive HF, Thermo Scientific [MS:1002523]
Instrument type: LC-ESI-QFT
Ms type: MS2
Ion mode: NEGATIVE
Ionization: ESI
Fragmentation mode: HCD
Collision energy: 20.0 NCE
Resolution: 30.000
Base peak: 355.2428
Precursor m/z: 355.2428
Precursor type: [M-H]1-
m/z	relative intensity	assigned
179.13799972534179	37	
193.1535758972168	314	
237.1434181213379	194	
239.15903701782227	29	
275.2317459106445	986	
293.2423889160156	20	
319.22149658203125	999	
337.2322143554687	755	
355.24279327392577	46	precursor
