Mass spectrum: 9-HOTrE; LC-ESI-QTOF; MS2; CE: 10.0; R=N/A; [M-H]1-
Name: 9-HOTrE
Class: Natural Product; Lipid Standard
Formula: C18H30O3
Exact mass: 294.21949
SMILES: CC\C=C/C\C=C/C=C/C(O)CCCCCCCC(O)=O
InChI: InChI=1S/C18H30O3/c1-2-3-4-5-6-8-11-14-17(19)15-12-9-7-10-13-16-18(20)21/h3-4,6,8,11,14,17,19H,2,5,7,9-10,12-13,15-16H2,1H3,(H,20,21)/b4-3-,8-6-,14-11+
Instrument: Agilent QTof 6545, Agilent Technologies [MS:1000490]
Instrument type: LC-ESI-QTOF
Ms type: MS2
Ion mode: NEGATIVE
Ionization: ESI
Fragmentation mode: CID
Collision energy: 10.0 eV
Resolution: N/A
Base peak: 293.212188720703
Precursor m/z: 293.212188720703
Precursor type: [M-H]1-
m/z	relative intensity	assigned
59.01338571353156	11	
121.10243110889276	192	
171.10263646402362	404	
185.11805294938728	5	
231.2116976056444	36	
275.2015664196343	999	
293.21201973103206	665	precursor
