Mass spectrum: 11(12)-EET-[d11]; LC-ESI-QTOF; MS2; CE: 20.0; R=N/A; [M-H]1-
Name: 11(12)-EET-[d11]
Class: Natural Product; Lipid Standard
Formula: C20H32O3
Exact mass: 320.23514
SMILES: CCCCC\C=C/CC1OC1C\C=C/C\C=C/CCCC(O)=O
InChI: InChI=1S/C20H32O3/c1-2-3-4-5-9-12-15-18-19(23-18)16-13-10-7-6-8-11-14-17-20(21)22/h6,8-10,12-13,18-19H,2-5,7,11,14-17H2,1H3,(H,21,22)/b8-6-,12-9-,13-10-
Instrument: Agilent QTof 6545, Agilent Technologies [MS:1000490]
Instrument type: LC-ESI-QTOF
Ms type: MS2
Ion mode: NEGATIVE
Ionization: ESI
Fragmentation mode: CID
Collision energy: 20.0 eV
Resolution: N/A
Base peak: 330.296905517578
Precursor m/z: 330.296905517578
Precursor type: [M-H]1-
m/z	relative intensity	assigned
149.09709100941143	211	
167.10762422189023	999	
179.10816725813956	188	
208.11088313973394	33	
214.25002463659862	52	
268.2950537906166	199	
312.28504657556465	93	
330.2967368883133	173	precursor
