Mass spectrum: TXB2-[d4]; LC-ESI-QFT; MS2; CE: 30.0; R=30.000; [M-H]1-
Name: TXB2-[d4]
Class: Natural Product; Lipid Standard
Formula: C20H34O6
Exact mass: 370.23554
SMILES: CCCCC[C@H](O)\C=C\[C@H]1OC(O)C[C@H](O)[C@@H]1C\C=C/CCCC(O)=O
InChI: InChI=1S/C20H34O6/c1-2-3-6-9-15(21)12-13-18-16(17(22)14-20(25)26-18)10-7-4-5-8-11-19(23)24/h4,7,12-13,15-18,20-22,25H,2-3,5-6,8-11,14H2,1H3,(H,23,24)/b7-4-,13-12+/t15-,16-,17-,18+,20?/m0/s1
Instrument: Q-Exactive HF, Thermo Scientific [MS:1002523]
Instrument type: LC-ESI-QFT
Ms type: MS2
Ion mode: NEGATIVE
Ionization: ESI
Fragmentation mode: HCD
Collision energy: 30.0 NCE
Resolution: 30.000
Base peak: 373.2534
Precursor m/z: 373.2534
Precursor type: [M-H]1-
m/z	relative intensity	assigned
129.12236913045248	33	
155.13800175984701	33	
173.11202112833658	999	
181.11722946166992	63	
199.12777837117514	461	
293.2060317993164	66	
311.21649678548175	8	
329.2277526855469	0	
373.2530822753906	0	precursor
