Mass spectrum: PGF2alpha-[d4]; LC-ESI-QTOF; MS2; CE: 10.0; R=N/A; [M-H]1-
Name: PGF2alpha-[d4]
Class: Natural Product; Lipid Standard
Formula: C20H34O5
Exact mass: 354.24062
SMILES: CCCCC[C@H](O)\C=C\[C@H]1[C@H](O)C[C@H](O)[C@@H]1C\C=C/CCCC(O)=O
InChI: InChI=1S/C20H34O5/c1-2-3-6-9-15(21)12-13-17-16(18(22)14-19(17)23)10-7-4-5-8-11-20(24)25/h4,7,12-13,15-19,21-23H,2-3,5-6,8-11,14H2,1H3,(H,24,25)/b7-4-,13-12+/t15-,16+,17+,18-,19+/m0/s1
Instrument: Agilent QTof 6545, Agilent Technologies [MS:1000490]
Instrument type: LC-ESI-QTOF
Ms type: MS2
Ion mode: NEGATIVE
Ionization: ESI
Fragmentation mode: CID
Collision energy: 10.0 eV
Resolution: N/A
Base peak: 357.258514404297
Precursor m/z: 357.258514404297
Precursor type: [M-H]1-
m/z	relative intensity	assigned
175.12788341499964	5	
197.148208074176	5	
213.14286636641336	7	
251.2318695827416	5	
295.22224296527645	12	
313.2330232201047	23	
357.25753919500414	999	precursor
