Mass spectrum: LTC4-[d5]; LC-ESI-QTOF; MS2; CE: 30.0; R=N/A; [M-H]1-
Name: LTC4-[d5]
Class: Natural Product; Lipid Standard
Formula: C30H47N3O9S
Exact mass: 625.3033
SMILES: CCCCC\C=C/C\C=C/C=C/C=C/[C@@H](SC[C@H](NC(=O)CC[C@H](N)C(O)=O)C(=O)NCC(O)=O)[C@@H](O)CCCC(O)=O
InChI: InChI=1S/C30H47N3O9S/c1-2-3-4-5-6-7-8-9-10-11-12-13-16-25(24(34)15-14-17-27(36)37)43-21-23(29(40)32-20-28(38)39)33-26(35)19-18-22(31)30(41)42/h6-7,9-13,16,22-25,34H,2-5,8,14-15,17-21,31H2,1H3,(H,32,40)(H,33,35)(H,36,37)(H,38,39)(H,41,42)/b7-6-,10-9-,12-11+,16-13+/t22-,23-,24-,25+/m0/s1
Instrument: Agilent QTof 6545, Agilent Technologies [MS:1000490]
Instrument type: LC-ESI-QTOF
Ms type: MS2
Ion mode: NEGATIVE
Ionization: ESI
Fragmentation mode: CID
Collision energy: 30.0 eV
Resolution: N/A
Base peak: 629.327392578125
Precursor m/z: 629.327392578125
Precursor type: [M-H]1-
m/z	relative intensity	assigned
128.0355357665954	798	
143.04633991567692	876	
210.0886669580571	417	
254.07809781256128	552	
272.0892061763269	998	
306.0761424883981	113	
611.3167054367551	62	
629.3271603370964	253	precursor
