Mass spectrum: 14(15)-EpETE; LC-ESI-QFT; MS2; CE: 20.0; R=30.000; [M-H]1-
Name: 14(15)-EpETE
Class: Natural Product; Lipid Standard
Formula: C20H30O3
Exact mass: 318.21949
SMILES: O=C(CCC/C=C\C/C=C\C/C=C\CC1C(O1)C/C=C\CC)O
InChI: InChI=1S/C20H30O3/c1-2-3-12-15-18-19(23-18)16-13-10-8-6-4-5-7-9-11-14-17-20(21)22/h3-4,6-7,9-10,12-13,18-19H,2,5,8,11,14-17H2,1H3,(H,21,22)/b6-4-,9-7-,12-3-,13-10-
Instrument: Q-Exactive HF, Thermo Scientific [MS:1002523]
Instrument type: LC-ESI-QFT
Ms type: MS2
Ion mode: NEGATIVE
Ionization: ESI
Fragmentation mode: HCD
Collision energy: 20.0 NCE
Resolution: 30.000
Base peak: 317.2122
Precursor m/z: 317.2122
Precursor type: [M-H]1-
m/z	relative intensity	assigned
59.01346830888228	49	
121.06585693359375	33	
175.14916437322444	121	
207.13896595348012	692	
219.1389687278054	295	
248.14159046519887	274	
255.21175176447088	290	
273.22231223366475	82	
299.2014520818537	245	
317.21188909357244	999	precursor
