Mass spectrum: DHA-[d5]; LC-ESI-QFT; MS2; CE: 40.0; R=30.000; [M-H]1-
Name: DHA-[d5]
Class: Natural Product; Lipid Standard
Formula: C22H32O2
Exact mass: 328.24023
SMILES: C(\C/C=C\C/C=C\C/C=C\CC)=C\C/C=C\C/C=C\CCC(=O)O
InChI: InChI=1S/C22H32O2/c1-2-3-4-5-6-7-8-9-10-11-12-13-14-15-16-17-18-19-20-21-22(23)24/h3-4,6-7,9-10,12-13,15-16,18-19H,2,5,8,11,14,17,20-21H2,1H3,(H,23,24)/b4-3-,7-6-,10-9-,13-12-,16-15-,19-18-
Instrument: Q-Exactive HF, Thermo Scientific [MS:1002523]
Instrument type: LC-ESI-QFT
Ms type: MS2
Ion mode: NEGATIVE
Ionization: ESI
Fragmentation mode: HCD
Collision energy: 40.0 NCE
Resolution: 30.000
Base peak: 332.2643
Precursor m/z: 332.2643
Precursor type: [M-H]1-
m/z	relative intensity	assigned
59.01346889295076	999	
182.1961525364926	15	
234.22738647460938	62	
260.24305162931745	29	
288.27440121299344	120	
314.2537485758464	8	
332.2641537314967	113	precursor
