Mass spectrum: PGI2; LC-ESI-QFT; MS2; CE: 30.0; R=30.000; [M-H]1-
Name: PGI2
Class: Natural Product; Lipid Standard
Formula: C20H32O5
Exact mass: 352.22497
SMILES: [H][C@]12C[C@@H](O)[C@H](\C=C\[C@@H](O)CCCCC)[C@@]1([H])C\C(O2)=C\CCCC(O)=O
InChI: InChI=1S/C20H32O5/c1-2-3-4-7-14(21)10-11-16-17-12-15(8-5-6-9-20(23)24)25-19(17)13-18(16)22/h8,10-11,14,16-19,21-22H,2-7,9,12-13H2,1H3,(H,23,24)/b11-10+,15-8-/t14-,16+,17+,18+,19-/m0/s1
Instrument: Q-Exactive HF, Thermo Scientific [MS:1002523]
Instrument type: LC-ESI-QFT
Ms type: MS2
Ion mode: NEGATIVE
Ionization: ESI
Fragmentation mode: HCD
Collision energy: 30.0 NCE
Resolution: 30.000
Base peak: 351.2177
Precursor m/z: 351.2177
Precursor type: [M-H]1-
m/z	relative intensity	assigned
83.05027285489169	621	
105.0710844560103	198	
187.14936689897016	308	
189.12864407626066	329	
205.15991488370028	364	
215.10789489746094	340	
271.2069202769886	246	
315.1965859153054	379	
323.2228282581676	328	
351.2178566672585	999	precursor
