Mass spectrum: Resolvin D5; LC-ESI-QTOF; MS2; CE: 10.0; R=N/A; [M-H]1-
Name: Resolvin D5
Class: Natural Product; Lipid Standard
Formula: C22H32O4
Exact mass: 360.23006
SMILES: C(C(O)=O)CC/C=C\[C@@H](/C=C/C=C\C\C=C/C=C/[C@H](C/C=C\CC)O)O
InChI: InChI=1S/C22H32O4/c1-2-3-10-15-20(23)16-11-7-5-4-6-8-12-17-21(24)18-13-9-14-19-22(25)26/h3,5-8,10-13,16-18,20-21,23-24H,2,4,9,14-15,19H2,1H3,(H,25,26)/b7-5-,8-6-,10-3-,16-11+,17-12+,18-13-/t20-,21+/m0/s1
Instrument: Agilent QTof 6545, Agilent Technologies [MS:1000490]
Instrument type: LC-ESI-QTOF
Ms type: MS2
Ion mode: NEGATIVE
Ionization: ESI
Fragmentation mode: CID
Collision energy: 10.0 eV
Resolution: N/A
Base peak: 359.222808837891
Precursor m/z: 359.222808837891
Precursor type: [M-H]1-
m/z	relative intensity	assigned
59.01322062253638	53	
119.08673309987952	134	
141.05596474317096	473	
199.14879126804962	830	
227.14514796253104	162	
261.14909951026584	99	
279.2118479719358	295	
297.2219721274636	252	
341.2111943666398	362	
359.22241782060536	999	precursor
