Mass spectrum: 15d-PGJ2-[d4]; LC-ESI-QTOF; MS2; CE: 10.0; R=N/A; [M-H]1-
Name: 15d-PGJ2-[d4]
Class: Natural Product; Lipid Standard
Formula: C20H30O4
Exact mass: 334.21441
SMILES: CCCCC[C@H](O)\C=C\[C@@H]1[C@@H](C\C=C/CCCC(O)=O)C=CC1=O
InChI: InChI=1S/C20H30O4/c1-2-3-6-10-17(21)13-14-18-16(12-15-19(18)22)9-7-4-5-8-11-20(23)24/h4,7,12-18,21H,2-3,5-6,8-11H2,1H3,(H,23,24)/b7-4-,14-13+/t16-,17-,18+/m0/s1
Instrument: Agilent QTof 6545, Agilent Technologies [MS:1000490]
Instrument type: LC-ESI-QTOF
Ms type: MS2
Ion mode: NEGATIVE
Ionization: ESI
Fragmentation mode: CID
Collision energy: 10.0 eV
Resolution: N/A
Base peak: 319.221710205078
Precursor m/z: 319.221710205078
Precursor type: [M-H]1-
m/z	relative intensity	assigned
59.01343641086835	10	
161.09249350165325	12	
203.14458026592828	27	
245.188083512607	11	
275.23170921487025	999	
301.21105431719167	25	
319.2212912583852	652	precursor
