Mass spectrum: 11(12)-EET-[d11]; LC-ESI-QFT; MS2; CE: 40.0; R=30.000; [M-H]-
Name: 11(12)-EET-[d11]
Class: Natural Product; Lipid Standard
Formula: C20H32O3
Exact mass: 320.23514
SMILES: CCCCC\C=C/CC1OC1C\C=C/C\C=C/CCCC(O)=O
InChI: InChI=1S/C20H32O3/c1-2-3-4-5-9-12-15-18-19(23-18)16-13-10-7-6-8-11-14-17-20(21)22/h6,8-10,12-13,18-19H,2-5,7,11,14-17H2,1H3,(H,21,22)/b8-6-,12-9-,13-10-
Instrument: Q-Exactive HF, Thermo Scientific [MS:1002523]
Instrument type: LC-ESI-QFT
Ms type: MS2
Ion mode: NEGATIVE
Ionization: ESI
Fragmentation mode: HCD
Collision energy: 40.0 NCE
Resolution: 30.000
Base peak: 330.2969
Precursor m/z: 330.2969
Precursor type: [M-H]-
m/z	relative intensity	assigned
59.01347223917643	894	
149.0971213446723	396	
167.10770670572916	999	
179.10772026909723	137	
208.11051262749567	12	
214.24956766764322	81	
268.29639689127606	123	
312.286127726237	42	
330.2966885036892	85	precursor
