Mass spectrum: 10-HDoHE; LC-ESI-QTOF; MS2; CE: 10.0; R=N/A; [M-H]-
Name: 10-HDoHE
Class: Natural Product; Lipid Standard
Formula: C22H32O3
Exact mass: 344.23514
SMILES: CC\C=C/C\C=C/C\C=C/C=C/C(O)C\C=C/C\C=C/CCC(O)=O
InChI: InChI=1S/C22H32O3/c1-2-3-4-5-6-7-8-9-12-15-18-21(23)19-16-13-10-11-14-17-20-22(24)25/h3-4,6-7,9,11-16,18,21,23H,2,5,8,10,17,19-20H2,1H3,(H,24,25)/b4-3-,7-6-,12-9-,14-11-,16-13-,18-15+
Instrument: Q-Exactive HF, Thermo Scientific [MS:1002523]
Instrument type: LC-ESI-QTOF
Ms type: MS2
Ion mode: NEGATIVE
Ionization: ESI
Fragmentation mode: HCD
Collision energy: 10.0 eV
Resolution: N/A
Base peak: 343.2279
Precursor m/z: 343.2279
Precursor type: [M-H]-
m/z	relative intensity	assigned
59.01344680786133	5	
121.06583150227864	5	
153.09200337727864	479	
161.13348185221355	130	
181.08688557942708	254	
227.1803456624349	29	
281.2271362304688	421	
299.23772583007815	84	
325.21689656575523	294	
343.2273234049479	998	precursor
