Mass spectrum: 8-HETE; LC-ESI-QFT; MS2; CE: 40.0; R=30.000; [M-H]-
Name: 8-HETE
Class: Natural Product; Lipid Standard
Formula: C20H32O3
Exact mass: 320.23514
SMILES: CCCCC\C=C/C\C=C/C=C/C(O)C\C=C/CCCC(O)=O
InChI: InChI=1S/C20H32O3/c1-2-3-4-5-6-7-8-9-10-13-16-19(21)17-14-11-12-15-18-20(22)23/h6-7,9-11,13-14,16,19,21H,2-5,8,12,15,17-18H2,1H3,(H,22,23)/b7-6-,10-9-,14-11-,16-13+
Instrument: Q-Exactive HF, Thermo Scientific [MS:1002523]
Instrument type: LC-ESI-QFT
Ms type: MS2
Ion mode: NEGATIVE
Ionization: ESI
Fragmentation mode: HCD
Collision energy: 40.0 NCE
Resolution: 30.000
Base peak: 319.2279
Precursor m/z: 319.2279
Precursor type: [M-H]-
m/z	relative intensity	assigned
59.01346484097567	215	
111.08153395219283	356	
127.07643682306463	488	
155.07135287198153	796	
163.14920460094106	999	
203.18042408336294	116	
257.2273864746094	211	
275.2377624511719	21	
301.21714089133525	94	
319.2278137207031	36	precursor
