Mass spectrum: EPA-[d5]; LC-ESI-QTOF; MS2; CE: 10.0; R=N/A; [M-H]-
Name: EPA-[d5]
Class: Natural Product; Lipid Standard
Formula: C20H30O2
Exact mass: 302.22458
SMILES: CC\C=C/C\C=C/C\C=C/C\C=C/C\C=C/CCCC(O)=O
InChI: InChI=1S/C20H30O2/c1-2-3-4-5-6-7-8-9-10-11-12-13-14-15-16-17-18-19-20(21)22/h3-4,6-7,9-10,12-13,15-16H,2,5,8,11,14,17-19H2,1H3,(H,21,22)/b4-3-,7-6-,10-9-,13-12-,16-15-
Instrument: Q-Exactive HF, Thermo Scientific [MS:1002523]
Instrument type: LC-ESI-QTOF
Ms type: MS2
Ion mode: NEGATIVE
Ionization: ESI
Fragmentation mode: HCD
Collision energy: 10.0 eV
Resolution: N/A
Base peak: 306.2487
Precursor m/z: 306.2487
Precursor type: [M-H]-
m/z	relative intensity	assigned
59.01349385579427	4	
208.2119623819987	30	
262.25873311360675	198	
306.2484308878581	999	precursor
