Mass spectrum: 5,12-DiHETE; LC-ESI-QTOF; MS2; CE: 10.0; R=N/A; [M-H]-
Name: 5,12-DiHETE
Class: Natural Product; Lipid Standard
Formula: C20H32O4
Exact mass: 336.23006
SMILES: CCCCC\C=C/C[C@@H](O)\C=C\C=C\C=C/[C@@H](O)CCCC(O)=O
InChI: InChI=1S/C20H32O4/c1-2-3-4-5-6-9-13-18(21)14-10-7-8-11-15-19(22)16-12-17-20(23)24/h6-11,14-15,18-19,21-22H,2-5,12-13,16-17H2,1H3,(H,23,24)/b8-7+,9-6-,14-10+,15-11-/t18-,19-/m1/s1
Instrument: Q-Exactive HF, Thermo Scientific [MS:1002523]
Instrument type: LC-ESI-QTOF
Ms type: MS2
Ion mode: NEGATIVE
Ionization: ESI
Fragmentation mode: HCD
Collision energy: 10.0 eV
Resolution: N/A
Base peak: 335.2225
Precursor m/z: 335.2225
Precursor type: [M-H]-
m/z	relative intensity	assigned
59.01346810658773	6	
71.01360130310059	5	
123.08151499430339	1	
129.05574544270834	9	
151.11280059814453	1	
181.0869280497233	5	
195.10253524780273	66	
273.2224833170573	5	
317.21189371744794	61	
335.222417195638	999	precursor
