Mass spectrum: 12-HEPE; LC-ESI-QTOF; MS2; CE: 10.0; R=N/A; [M-H]-
Name: 12-HEPE
Class: Natural Product; Lipid Standard
Formula: C20H30O3
Exact mass: 318.219495
SMILES: CC/C=C\C/C=C\CC(/C=C/C=C\C/C=C\CCCC(=O)O)O
InChI: InChI=1S/C20H30O3/c1-2-3-4-5-10-13-16-19(21)17-14-11-8-6-7-9-12-15-18-20(22)23/h3-4,7-11,13-14,17,19,21H,2,5-6,12,15-16,18H2,1H3,(H,22,23)/b4-3-,9-7-,11-8-,13-10-,17-14+
Instrument: Q-Exactive HF, Thermo Scientific [MS:1002523]
Instrument type: LC-ESI-QTOF
Ms type: MS2
Ion mode: NEGATIVE
Ionization: ESI
Fragmentation mode: HCD
Collision energy: 10.0 eV
Resolution: N/A
Base peak: 317.2122
Precursor m/z: 317.2122
Precursor type: [M-H]-
m/z	relative intensity	assigned
59.013493277809836	2	
107.0866216023763	9	
135.11790974934897	25	
163.11283747355142	13	
179.10764439900717	239	
208.11038080851236	64	
255.21166229248047	92	
273.22237396240234	13	
299.20133717854816	123	
317.21174875895184	999	precursor
