Mass spectrum: PGE2-[d4]; LC-ESI-QTOF; MS2; CE: 10.0; R=N/A; [M-H]-
Name: PGE2-[d4]
Class: Natural Product; Lipid Standard
Formula: C20H32O5
Exact mass: 352.22497
SMILES: CCCCC[C@H](O)\C=C\[C@H]1[C@H](O)CC(=O)[C@@H]1C\C=C/CCCC(O)=O
InChI: InChI=1S/C20H32O5/c1-2-3-6-9-15(21)12-13-17-16(18(22)14-19(17)23)10-7-4-5-8-11-20(24)25/h4,7,12-13,15-17,19,21,23H,2-3,5-6,8-11,14H2,1H3,(H,24,25)/b7-4-,13-12+/t15-,16+,17+,19+/m0/s1
Instrument: Q-Exactive HF, Thermo Scientific [MS:1002523]
Instrument type: LC-ESI-QTOF
Ms type: MS2
Ion mode: NEGATIVE
Ionization: ESI
Fragmentation mode: HCD
Collision energy: 10.0 eV
Resolution: N/A
Base peak: 355.2428
Precursor m/z: 355.2428
Precursor type: [M-H]-
m/z	relative intensity	assigned
179.13792492094495	4	
193.15358261835007	88	
237.14338902064733	191	
239.15880839029947	3	
275.2317403157552	293	
293.24220784505206	5	
319.2214733305432	999	
337.23218500046505	753	
355.24278041294644	356	precursor
