Mass spectrum: 12-HHTrE; LC-ESI-QFT; MS2; CE: 20.0; R=30.000; [M-H]-
Name: 12-HHTrE
Class: Natural Product; Lipid Standard
Formula: C17H28O3
Exact mass: 280.20384
SMILES: CCCCCC(O)\C=C\C=C\C\C=C\CCCC(O)=O
InChI: InChI=1S/C17H28O3/c1-2-3-10-13-16(18)14-11-8-6-4-5-7-9-12-15-17(19)20/h5-8,11,14,16,18H,2-4,9-10,12-13,15H2,1H3,(H,19,20)/b7-5+,8-6+,14-11+
Instrument: Q-Exactive HF, Thermo Scientific [MS:1002523]
Instrument type: LC-ESI-QFT
Ms type: MS2
Ion mode: NEGATIVE
Ionization: ESI
Fragmentation mode: HCD
Collision energy: 20.0 NCE
Resolution: 30.000
Base peak: 279.1966
Precursor m/z: 279.1966
Precursor type: [M-H]-
m/z	relative intensity	assigned
59.01349173651801	19	
113.09723620944553	35	
135.11797502305774	192	
163.149292839898	38	
179.1077355278863	463	
189.16486273871527	23	
217.19610680474176	161	
235.20665571424695	38	
261.1858317057292	331	
279.1963857014974	999	precursor
