Mass spectrum: LTD4-[d5]; LC-ESI-QFT; MS2; CE: 20.0; R=30.000; [M-H]-
Name: LTD4-[d5]
Class: Natural Product; Lipid Standard
Formula: C25H40N2O6S
Exact mass: 496.26071
SMILES: CCCCC\C=C/C\C=C/C=C/C=C/[C@@H](SC[C@H](N)C(=O)NCC(O)=O)[C@@H](O)CCCC(O)=O
InChI: InChI=1S/C25H40N2O6S/c1-2-3-4-5-6-7-8-9-10-11-12-13-16-22(21(28)15-14-17-23(29)30)34-19-20(26)25(33)27-18-24(31)32/h6-7,9-13,16,20-22,28H,2-5,8,14-15,17-19,26H2,1H3,(H,27,33)(H,29,30)(H,31,32)/b7-6-,10-9-,12-11+,16-13+/t20-,21-,22+/m0/s1
Instrument: Q-Exactive HF, Thermo Scientific [MS:1002523]
Instrument type: LC-ESI-QFT
Ms type: MS2
Ion mode: NEGATIVE
Ionization: ESI
Fragmentation mode: HCD
Collision energy: 20.0 NCE
Resolution: 30.000
Base peak: 500.2851
Precursor m/z: 500.2851
Precursor type: [M-H]-
m/z	relative intensity	assigned
58.02949199676514	5	
99.05651741027832	22	
143.04629974365236	432	
160.02012405395507	20	
177.03399353027345	998	
240.18422622680663	11	
294.23107147216797	14	
338.220947265625	60	
482.27442169189453	173	
500.2849655151367	232	precursor
