Mass spectrum: 13-HOTrE; LC-ESI-QFT; MS2; CE: 40.0; R=30.000; [M-H]-
Name: 13-HOTrE
Class: Natural Product; Lipid Standard
Formula: C18H30O3
Exact mass: 294.21949
SMILES: CC\C=C/CC(O)\C=C\C=C/CCCCCCCC(O)=O
InChI: InChI=1S/C18H30O3/c1-2-3-11-14-17(19)15-12-9-7-5-4-6-8-10-13-16-18(20)21/h3,7,9,11-12,15,17,19H,2,4-6,8,10,13-14,16H2,1H3,(H,20,21)/b9-7-,11-3-,15-12+
Instrument: Q-Exactive HF, Thermo Scientific [MS:1002523]
Instrument type: LC-ESI-QFT
Ms type: MS2
Ion mode: NEGATIVE
Ionization: ESI
Fragmentation mode: HCD
Collision energy: 40.0 NCE
Resolution: 30.000
Base peak: 293.2122
Precursor m/z: 293.2122
Precursor type: [M-H]-
m/z	relative intensity	assigned
59.013488578796384	67	
179.14411468505858	122	
195.13897781372071	754	
197.1547538757324	9	
223.13389587402344	558	
225.14974011872945	3	
256.13153381347655	9	
275.20162200927734	348	
293.21211700439454	999	precursor
