Mass spectrum: 14(15)-EET-[d11]; LC-ESI-QTOF; MS2; CE: 20.0; R=N/A; [M-H]-
Name: 14(15)-EET-[d11]
Class: Natural Product; Lipid Standard
Formula: C20H32O3
Exact mass: 320.23514
SMILES: CCCCCC1OC1C\C=C/C\C=C/C\C=C/CCCC(O)=O
InChI: InChI=1S/C20H32O3/c1-2-3-12-15-18-19(23-18)16-13-10-8-6-4-5-7-9-11-14-17-20(21)22/h4,6-7,9-10,13,18-19H,2-3,5,8,11-12,14-17H2,1H3,(H,21,22)/b6-4-,9-7-,13-10-
Instrument: Q-Exactive HF, Thermo Scientific [MS:1002523]
Instrument type: LC-ESI-QTOF
Ms type: MS2
Ion mode: NEGATIVE
Ionization: ESI
Fragmentation mode: HCD
Collision energy: 20.0 eV
Resolution: N/A
Base peak: 330.2969
Precursor m/z: 330.2969
Precursor type: [M-H]-
m/z	relative intensity	assigned
59.01347879263071	24	
124.16622337928185	42	
150.18185424804688	10	
175.149173443134	164	
214.24958683894232	46	
219.13895240196814	288	
268.2963608961839	269	
286.3069763183594	54	
312.2860999474159	298	
330.2965745192308	999	precursor
