Mass spectrum: TXB2-[d4]; LC-ESI-QTOF; MS2; CE: 10.0; R=N/A; [M-H]-
Name: TXB2-[d4]
Class: Natural Product; Lipid Standard
Formula: C20H34O6
Exact mass: 370.23554
SMILES: CCCCC[C@H](O)\C=C\[C@H]1OC(O)C[C@H](O)[C@@H]1C\C=C/CCCC(O)=O
InChI: InChI=1S/C20H34O6/c1-2-3-6-9-15(21)12-13-18-16(17(22)14-20(25)26-18)10-7-4-5-8-11-19(23)24/h4,7,12-13,15-18,20-22,25H,2-3,5-6,8-11,14H2,1H3,(H,23,24)/b7-4-,13-12+/t15-,16-,17-,18+,20?/m0/s1
Instrument: Q-Exactive HF, Thermo Scientific [MS:1002523]
Instrument type: LC-ESI-QTOF
Ms type: MS2
Ion mode: NEGATIVE
Ionization: ESI
Fragmentation mode: HCD
Collision energy: 10.0 eV
Resolution: N/A
Base peak: 373.2534
Precursor m/z: 373.2534
Precursor type: [M-H]-
m/z	relative intensity	assigned
129.12243041992187	0	
155.13813018798828	0	
173.11205037434897	999	
181.11721165974936	9	
199.12777201334634	959	
293.20609283447266	37	
311.2165298461914	54	
329.2269795735677	309	
355.24274190266925	37	
373.2532221476237	702	precursor
