Mass spectrum: 11-HDoHE; LC-ESI-QTOF; MS2; CE: 10.0; R=N/A; [M-H]-
Name: 11-HDoHE
Class: Natural Product; Lipid Standard
Formula: C22H32O3
Exact mass: 344.23514
SMILES: CC\C=C/C\C=C/C\C=C/CC(O)\C=C\C=C/C\C=C/CCC(O)=O
InChI: InChI=1S/C22H32O3/c1-2-3-4-5-6-7-9-12-15-18-21(23)19-16-13-10-8-11-14-17-20-22(24)25/h3-4,6-7,10-16,19,21,23H,2,5,8-9,17-18,20H2,1H3,(H,24,25)/b4-3-,7-6-,13-10-,14-11-,15-12-,19-16+
Instrument: Q-Exactive HF, Thermo Scientific [MS:1002523]
Instrument type: LC-ESI-QTOF
Ms type: MS2
Ion mode: NEGATIVE
Ionization: ESI
Fragmentation mode: HCD
Collision energy: 10.0 eV
Resolution: N/A
Base peak: 343.2279
Precursor m/z: 343.2279
Precursor type: [M-H]-
m/z	relative intensity	assigned
59.0135366651747	1	
95.05023252047025	7	
121.10223271296574	216	
149.1334686279297	72	
165.0920187143179	101	
194.09473595252405	47	
281.227290226863	80	
299.2378939115084	25	
325.217036320613	52	
343.22742872971753	999	precursor
