Mass spectrum: 13-HOTrE; LC-ESI-QFT; MS2; CE: 30.0; R=30.000; [M-H]-
Name: 13-HOTrE
Class: Natural Product; Lipid Standard
Formula: C18H30O3
Exact mass: 294.21949
SMILES: CC\C=C/CC(O)\C=C\C=C/CCCCCCCC(O)=O
InChI: InChI=1S/C18H30O3/c1-2-3-11-14-17(19)15-12-9-7-5-4-6-8-10-13-16-18(20)21/h3,7,9,11-12,15,17,19H,2,4-6,8,10,13-14,16H2,1H3,(H,20,21)/b9-7-,11-3-,15-12+
Instrument: Q-Exactive HF, Thermo Scientific [MS:1002523]
Instrument type: LC-ESI-QFT
Ms type: MS2
Ion mode: NEGATIVE
Ionization: ESI
Fragmentation mode: HCD
Collision energy: 30.0 NCE
Resolution: 30.000
Base peak: 293.2122
Precursor m/z: 293.2122
Precursor type: [M-H]-
m/z	relative intensity	assigned
59.01349105834961	5	
179.14411468505858	16	
195.13899917602538	259	
197.1546318054199	0	
223.13391036987304	181	
225.14978790283203	0	
256.131608581543	25	
275.2016082763672	188	
293.2120986938477	999	precursor
