Mass spectrum: Resolvin D1-[d5]; LC-ESI-QTOF; MS2; CE: 20.0; R=N/A; [M-H]-
Name: Resolvin D1-[d5]
Class: Natural Product; Lipid Standard
Formula: C22H32O5
Exact mass: 376.22497
SMILES: C(\CCC(O)=O)=C\C[C@@H]([C@@H](\C=C\C=C\C=C/C=C/[C@H](C/C=C\CC)O)O)O
InChI: InChI=1S/C22H32O5/c1-2-3-9-14-19(23)15-10-6-4-5-7-11-16-20(24)21(25)17-12-8-13-18-22(26)27/h3-12,15-16,19-21,23-25H,2,13-14,17-18H2,1H3,(H,26,27)/b6-4-,7-5+,9-3-,12-8-,15-10+,16-11+/t19-,20+,21-/m0/s1
Instrument: Q-Exactive HF, Thermo Scientific [MS:1002523]
Instrument type: LC-ESI-QTOF
Ms type: MS2
Ion mode: NEGATIVE
Ionization: ESI
Fragmentation mode: HCD
Collision energy: 20.0 eV
Resolution: N/A
Base peak: 380.2491
Precursor m/z: 380.2491
Precursor type: [M-H]-
m/z	relative intensity	assigned
59.013494344858024	16	
121.06593557504507	36	
135.08160869891827	194	
141.0557403564453	999	
163.07652634840744	100	
220.17547607421875	352	
238.186037503756	389	
277.14446786733777	28	
362.2386075533353	18	
380.2490492600661	400	precursor
