Mass spectrum: 12-HHTrE; LC-ESI-QFT; MS2; CE: 40.0; R=30.000; [M-H]-
Name: 12-HHTrE
Class: Natural Product; Lipid Standard
Formula: C17H28O3
Exact mass: 280.20384
SMILES: CCCCCC(O)\C=C\C=C\C\C=C\CCCC(O)=O
InChI: InChI=1S/C17H28O3/c1-2-3-10-13-16(18)14-11-8-6-4-5-7-9-12-15-17(19)20/h5-8,11,14,16,18H,2-4,9-10,12-13,15H2,1H3,(H,19,20)/b7-5+,8-6+,14-11+
Instrument: Q-Exactive HF, Thermo Scientific [MS:1002523]
Instrument type: LC-ESI-QFT
Ms type: MS2
Ion mode: NEGATIVE
Ionization: ESI
Fragmentation mode: HCD
Collision energy: 40.0 NCE
Resolution: 30.000
Base peak: 279.1966
Precursor m/z: 279.1966
Precursor type: [M-H]-
m/z	relative intensity	assigned
59.01348338407629	998	
113.09723977481617	259	
135.11800070369944	178	
163.14929288976333	251	
179.1077611586627	204	
189.16485146915213	569	
217.19613557703354	397	
235.20674223058364	29	
261.1858825683594	293	
279.19651525160845	79	precursor
