Mass spectrum: 8(9)-EET-[d11]; LC-ESI-QTOF; MS2; CE: 20.0; R=N/A; [M-H]-
Name: 8(9)-EET-[d11]
Class: Natural Product; Lipid Standard
Formula: C20H32O3
Exact mass: 320.23514
SMILES: CCCCC\C=C/C\C=C/CC1OC1C\C=C/CCCC(O)=O
InChI: InChI=1S/C20H32O3/c1-2-3-4-5-6-7-8-9-12-15-18-19(23-18)16-13-10-11-14-17-20(21)22/h6-7,9-10,12-13,18-19H,2-5,8,11,14-17H2,1H3,(H,21,22)/b7-6-,12-9-,13-10-
Instrument: Q-Exactive HF, Thermo Scientific [MS:1002523]
Instrument type: LC-ESI-QTOF
Ms type: MS2
Ion mode: NEGATIVE
Ionization: ESI
Fragmentation mode: HCD
Collision energy: 20.0 eV
Resolution: N/A
Base peak: 330.2969
Precursor m/z: 330.2969
Precursor type: [M-H]-
m/z	relative intensity	assigned
69.03431599934896	165	
123.08155005318778	134	
127.07645743233817	117	
155.07135620117188	189	
167.0713134765625	215	
190.21317647298176	116	
268.296375819615	203	
286.3069370814732	68	
312.28609575544084	174	
330.29656982421875	999	precursor
