Mass spectrum: DHA-[d5]; LC-ESI-QTOF; MS2; CE: 10.0; R=N/A; [M-H]-
Name: DHA-[d5]
Class: Natural Product; Lipid Standard
Formula: C22H32O2
Exact mass: 328.24023
SMILES: [2H]C([2H])([2H])C([2H])([2H])/C=C\C/C=C\C/C=C\C/C=C\C/C=C\C/C=C\CCC(=O)O
InChI: InChI=1S/C22H32O2/c1-2-3-4-5-6-7-8-9-10-11-12-13-14-15-16-17-18-19-20-21-22(23)24/h3-4,6-7,9-10,12-13,15-16,18-19H,2,5,8,11,14,17,20-21H2,1H3,(H,23,24)/b4-3-,7-6-,10-9-,13-12-,16-15-,19-18-/i1D3,2D2
Instrument: Q-Exactive HF, Thermo Scientific [MS:1002523]
Instrument type: LC-ESI-QTOF
Ms type: MS2
Ion mode: NEGATIVE
Ionization: ESI
Fragmentation mode: HCD
Collision energy: 10.0 eV
Resolution: N/A
Base peak: 332.2643
Precursor m/z: 332.2643
Precursor type: [M-H]-
m/z	relative intensity	assigned
59.01347408294678	6	
182.19610595703125	10	
234.2274024963379	54	
260.2433857164885	1	
288.27430572509763	416	
314.25301055908204	2	
332.264013671875	999	precursor
