Mass spectrum: PGB2-[d4]; LC-ESI-QFT; MS2; CE: 40.0; R=30.000; [M-H]-
Name: PGB2-[d4]
Class: Natural Product; Lipid Standard
Formula: C20H30O4
Exact mass: 334.21441
SMILES: CCCCC[C@H](O)\C=C\C1=C(C\C=C/CCCC(O)=O)C(=O)CC1
InChI: InChI=1S/C20H30O4/c1-2-3-6-9-17(21)14-12-16-13-15-19(22)18(16)10-7-4-5-8-11-20(23)24/h4,7,12,14,17,21H,2-3,5-6,8-11,13,15H2,1H3,(H,23,24)/b7-4-,14-12+/t17-/m0/s1
Instrument: Q-Exactive HF, Thermo Scientific [MS:1002523]
Instrument type: LC-ESI-QFT
Ms type: MS2
Ion mode: NEGATIVE
Ionization: ESI
Fragmentation mode: HCD
Collision energy: 40.0 NCE
Resolution: 30.000
Base peak: 337.2324
Precursor m/z: 337.2324
Precursor type: [M-H]-
m/z	relative intensity	assigned
57.03422374725342	185	
113.09733085632324	999	
167.13810806274415	198	
179.13808822631836	800	
211.1280303955078	112	
239.15916900634767	669	
275.2319625854492	104	
319.2217193603516	234	
337.2323928833008	197	precursor
