Mass spectrum: 14,15-DHET-[d11]; LC-ESI-QTOF; MS2; CE: 10.0; R=N/A; [M-H]-
Name: 14,15-DHET-[d11]
Class: Natural Product; Lipid Standard
Formula: C20H34O4
Exact mass: 338.24571
SMILES: CCCCCC(C(C/C=C\C/C=C\C/C=C\CCCC(=O)O)O)O
InChI: InChI=1S/C20H34O4/c1-2-3-12-15-18(21)19(22)16-13-10-8-6-4-5-7-9-11-14-17-20(23)24/h4,6-7,9-10,13,18-19,21-22H,2-3,5,8,11-12,14-17H2,1H3,(H,23,24)/b6-4-,9-7-,13-10-
Instrument: Q-Exactive HF, Thermo Scientific [MS:1002523]
Instrument type: LC-ESI-QTOF
Ms type: MS2
Ion mode: NEGATIVE
Ionization: ESI
Fragmentation mode: HCD
Collision energy: 10.0 eV
Resolution: N/A
Base peak: 348.3075
Precursor m/z: 348.3075
Precursor type: [M-H]-
m/z	relative intensity	assigned
59.013538122177124	0	
109.14446440197173	0	
140.16133989606584	11	
163.14949689592635	2	
207.1392306373233	75	
268.29639107840404	2	
330.2971423921131	21	
348.3073512486049	998	precursor
