Mass spectrum: 8-HETE; LC-ESI-QFT; MS2; CE: 30.0; R=30.000; [M-H]-
Name: 8-HETE
Class: Natural Product; Lipid Standard
Formula: C20H32O3
Exact mass: 320.23514
SMILES: CCCCC\C=C/C\C=C/C=C/C(O)C\C=C/CCCC(O)=O
InChI: InChI=1S/C20H32O3/c1-2-3-4-5-6-7-8-9-10-13-16-19(21)17-14-11-12-15-18-20(22)23/h6-7,9-11,13-14,16,19,21H,2-5,8,12,15,17-18H2,1H3,(H,22,23)/b7-6-,10-9-,14-11-,16-13+
Instrument: Q-Exactive HF, Thermo Scientific [MS:1002523]
Instrument type: LC-ESI-QFT
Ms type: MS2
Ion mode: NEGATIVE
Ionization: ESI
Fragmentation mode: HCD
Collision energy: 30.0 NCE
Resolution: 30.000
Base peak: 319.2279
Precursor m/z: 319.2279
Precursor type: [M-H]-
m/z	relative intensity	assigned
59.01346969604492	57	
111.0815372467041	149	
127.0764389038086	297	
155.07135899861655	999	
163.14921188354492	802	
203.18043009440103	140	
257.2273534138997	490	
275.2378514607747	67	
301.21705627441406	426	
319.2275797526042	270	precursor
