Mass spectrum: 8-HETE; LC-ESI-QTOF; MS2; CE: 10.0; R=N/A; [M-H]-
Name: 8-HETE
Class: Natural Product; Lipid Standard
Formula: C20H32O3
Exact mass: 320.23514
SMILES: CCCCC\C=C/C\C=C/C=C/C(O)C\C=C/CCCC(O)=O
InChI: InChI=1S/C20H32O3/c1-2-3-4-5-6-7-8-9-10-13-16-19(21)17-14-11-12-15-18-20(22)23/h6-7,9-11,13-14,16,19,21H,2-5,8,12,15,17-18H2,1H3,(H,22,23)/b7-6-,10-9-,14-11-,16-13+
Instrument: Q-Exactive HF, Thermo Scientific [MS:1002523]
Instrument type: LC-ESI-QTOF
Ms type: MS2
Ion mode: NEGATIVE
Ionization: ESI
Fragmentation mode: HCD
Collision energy: 10.0 eV
Resolution: N/A
Base peak: 319.2279
Precursor m/z: 319.2279
Precursor type: [M-H]-
m/z	relative intensity	assigned
59.01352081298828	0	
111.08155568440755	4	
127.07645988464355	17	
155.07136154174805	295	
163.14922459920248	71	
203.18043009440103	17	
257.2273635864258	176	
275.23788197835285	14	
301.21704864501953	472	
319.2275161743164	999	precursor
