Mass spectrum: 5-OxoETE-[d7]; LC-ESI-QTOF; MS2; CE: 10.0; R=N/A; [M-H]-
Name: 5-OxoETE-[d7]
Class: Natural Product; Lipid Standard
Formula: C20H30O3
Exact mass: 318.21949
SMILES: CCCCC\C=C/C\C=C/C\C=C/C=C/C(=O)CCCC(O)=O
InChI: InChI=1S/C20H30O3/c1-2-3-4-5-6-7-8-9-10-11-12-13-14-16-19(21)17-15-18-20(22)23/h6-7,9-10,12-14,16H,2-5,8,11,15,17-18H2,1H3,(H,22,23)/b7-6-,10-9-,13-12-,16-14+
Instrument: Q-Exactive HF, Thermo Scientific [MS:1002523]
Instrument type: LC-ESI-QTOF
Ms type: MS2
Ion mode: NEGATIVE
Ionization: ESI
Fragmentation mode: HCD
Collision energy: 10.0 eV
Resolution: N/A
Base peak: 324.2558
Precursor m/z: 324.2558
Precursor type: [M-H]-
m/z	relative intensity	assigned
59.01352146693638	28	
71.01369040352958	14	
131.06846836635046	15	
167.17454601469495	7	
210.22456505185082	19	
252.23520987374442	4	
280.2661859421503	28	
324.2555469331287	999	precursor
