Mass spectrum: TXB1; LC-ESI-QTOF; MS2; CE: 10.0; R=N/A; [M-H]-
Name: TXB1
Class: Natural Product; Lipid Standard
Formula: C20H36O6
Exact mass: 372.25119
SMILES: CCCCC[C@H](O)\C=C\[C@H]1OC(O)C[C@H](O)[C@@H]1CCCCCCC(O)=O
InChI: InChI=1S/C20H36O6/c1-2-3-6-9-15(21)12-13-18-16(17(22)14-20(25)26-18)10-7-4-5-8-11-19(23)24/h12-13,15-18,20-22,25H,2-11,14H2,1H3,(H,23,24)/b13-12+/t15-,16-,17-,18+,20?/m0/s1
Instrument: Q-Exactive HF, Thermo Scientific [MS:1002523]
Instrument type: LC-ESI-QTOF
Ms type: MS2
Ion mode: NEGATIVE
Ionization: ESI
Fragmentation mode: HCD
Collision energy: 10.0 eV
Resolution: N/A
Base peak: 371.2439
Precursor m/z: 371.2439
Precursor type: [M-H]-
m/z	relative intensity	assigned
171.1026611328125	999	
193.12332589285714	0	
197.11827392578124	806	
291.19666748046876	33	
309.20706634521486	65	
327.21753387451173	401	
371.24369049072266	732	precursor
