Mass spectrum: 11-HDoHE; LC-ESI-QFT; MS2; CE: 30.0; R=30.000; [M-H]-
Name: 11-HDoHE
Class: Natural Product; Lipid Standard
Formula: C22H32O3
Exact mass: 344.23514
SMILES: CC\C=C/C\C=C/C\C=C/CC(O)\C=C\C=C/C\C=C/CCC(O)=O
InChI: InChI=1S/C22H32O3/c1-2-3-4-5-6-7-9-12-15-18-21(23)19-16-13-10-8-11-14-17-20-22(24)25/h3-4,6-7,10-16,19,21,23H,2,5,8-9,17-18,20H2,1H3,(H,24,25)/b4-3-,7-6-,13-10-,14-11-,15-12-,19-16+
Instrument: Q-Exactive HF, Thermo Scientific [MS:1002523]
Instrument type: LC-ESI-QFT
Ms type: MS2
Ion mode: NEGATIVE
Ionization: ESI
Fragmentation mode: HCD
Collision energy: 30.0 NCE
Resolution: 30.000
Base peak: 343.2279
Precursor m/z: 343.2279
Precursor type: [M-H]-
m/z	relative intensity	assigned
59.01346397399902	177	
95.05023193359375	212	
121.1022268931071	998	
149.13345845540366	263	
165.09202575683594	254	
194.0947354634603	76	
281.22723897298175	174	
299.2376963297526	33	
325.217035929362	37	
343.2277425130208	58	precursor
