Mass spectrum: 5-HpETE; LC-ESI-QTOF; MS2; CE: 10.0; R=N/A; [M-H]-
Name: 5-HpETE
Class: Natural Product; Lipid Standard
Formula: C20H32O4
Exact mass: 336.23006
SMILES: C(CC/C=C\C/C=C\C/C=C\C=C\C(CCCC(=O)O)OO)CC
InChI: InChI=1S/C20H32O4/c1-2-3-4-5-6-7-8-9-10-11-12-13-14-16-19(24-23)17-15-18-20(21)22/h6-7,9-10,12-14,16,19,23H,2-5,8,11,15,17-18H2,1H3,(H,21,22)/b7-6-,10-9-,13-12-,16-14+
Instrument: Q-Exactive HF, Thermo Scientific [MS:1002523]
Instrument type: LC-ESI-QTOF
Ms type: MS2
Ion mode: NEGATIVE
Ionization: ESI
Fragmentation mode: HCD
Collision energy: 10.0 eV
Resolution: N/A
Base peak: 335.2225
Precursor m/z: 335.2225
Precursor type: [M-H]-
m/z	relative intensity	assigned
59.013458887736	999	
109.0658613840739	290	
129.05573399861655	565	
155.07136027018228	414	
163.14923095703125	311	
203.1803970336914	673	
273.2222671508789	412	
299.20142364501953	147	
317.2118682861328	954	
335.22260030110675	312	precursor
