Mass spectrum: 9-HEPE; LC-ESI-QTOF; MS2; CE: 10.0; R=N/A; [M-H]-
Name: 9-HEPE
Class: Natural Product; Lipid Standard
Formula: C20H30O3
Exact mass: 318.21949
SMILES: C(\CC)=C\C/C=C\C/C=C\CC(/C=C/C=C\CCCC(=O)O)O
InChI: InChI=1S/C20H30O3/c1-2-3-4-5-6-7-8-10-13-16-19(21)17-14-11-9-12-15-18-20(22)23/h3-4,6-7,9-11,13-14,17,19,21H,2,5,8,12,15-16,18H2,1H3,(H,22,23)/b4-3-,7-6-,11-9-,13-10-,17-14+
Instrument: Q-Exactive HF, Thermo Scientific [MS:1002523]
Instrument type: LC-ESI-QTOF
Ms type: MS2
Ion mode: NEGATIVE
Ionization: ESI
Fragmentation mode: HCD
Collision energy: 10.0 eV
Resolution: N/A
Base peak: 317.2122
Precursor m/z: 317.2122
Precursor type: [M-H]-
m/z	relative intensity	assigned
59.013458251953125	1	
69.03430355296416	36	
123.0815133487477	44	
139.07640434713926	21	
149.13345695944395	52	
167.071263032801	133	
177.1283811681411	21	
255.21169146369485	49	
299.2013621610754	31	
317.21173634248623	999	precursor
