Mass spectrum: 12(13)-EpOME-[d4]; LC-ESI-QTOF; MS2; CE: 10.0; R=N/A; [M-H]-
Name: 12(13)-EpOME-[d4]
Class: Natural Product; Lipid Standard
Formula: C18H32O3
Exact mass: 296.23514
SMILES: CCCCCC1OC1C\C=C/CCCCCCCC(O)=O
InChI: InChI=1S/C18H32O3/c1-2-3-10-13-16-17(21-16)14-11-8-6-4-5-7-9-12-15-18(19)20/h8,11,16-17H,2-7,9-10,12-15H2,1H3,(H,19,20)/b11-8-
Instrument: Q-Exactive HF, Thermo Scientific [MS:1002523]
Instrument type: LC-ESI-QTOF
Ms type: MS2
Ion mode: NEGATIVE
Ionization: ESI
Fragmentation mode: HCD
Collision energy: 10.0 eV
Resolution: N/A
Base peak: 299.253
Precursor m/z: 299.253
Precursor type: [M-H]-
m/z	relative intensity	assigned
114.10344696044922	0	
185.15148417154947	3	
198.15777842203775	51	
281.2417958577474	41	
299.25193277994794	999	precursor
