Mass spectrum: PGI2; LC-ESI-QTOF; MS2; CE: 10.0; R=N/A; [M-H]-
Name: PGI2
Class: Natural Product; Lipid Standard
Formula: C20H32O5
Exact mass: 352.22497
SMILES: [H][C@]12C[C@@H](O)[C@H](\C=C\[C@@H](O)CCCCC)[C@@]1([H])C\C(O2)=C\CCCC(O)=O
InChI: InChI=1S/C20H32O5/c1-2-3-4-7-14(21)10-11-16-17-12-15(8-5-6-9-20(23)24)25-19(17)13-18(16)22/h8,10-11,14,16-19,21-22H,2-7,9,12-13H2,1H3,(H,23,24)/b11-10+,15-8-/t14-,16+,17+,18+,19-/m0/s1
Instrument: Q-Exactive HF, Thermo Scientific [MS:1002523]
Instrument type: LC-ESI-QTOF
Ms type: MS2
Ion mode: NEGATIVE
Ionization: ESI
Fragmentation mode: HCD
Collision energy: 10.0 eV
Resolution: N/A
Base peak: 351.2177
Precursor m/z: 351.2177
Precursor type: [M-H]-
m/z	relative intensity	assigned
83.05027909712358	10	
105.07118433172053	2	
187.14948619495738	1	
189.1286981756037	4	
205.15997314453125	5	
215.1079559326172	11	
271.20708951083094	3	
315.19655817205256	38	
323.22305575284093	10	
351.21774846857244	999	precursor
