Mass spectrum: LTC4-[d5]; LC-ESI-QTOF; MS2; CE: 10.0; R=N/A; [M-H]-
Name: LTC4-[d5]
Class: Natural Product; Lipid Standard
Formula: C30H47N3O9S
Exact mass: 625.3033
SMILES: CCCCC\C=C/C\C=C/C=C/C=C/[C@@H](SC[C@H](NC(=O)CC[C@H](N)C(O)=O)C(=O)NCC(O)=O)[C@@H](O)CCCC(O)=O
InChI: InChI=1S/C30H47N3O9S/c1-2-3-4-5-6-7-8-9-10-11-12-13-16-25(24(34)15-14-17-27(36)37)43-21-23(29(40)32-20-28(38)39)33-26(35)19-18-22(31)30(41)42/h6-7,9-13,16,22-25,34H,2-5,8,14-15,17-21,31H2,1H3,(H,32,40)(H,33,35)(H,36,37)(H,38,39)(H,41,42)/b7-6-,10-9-,12-11+,16-13+/t22-,23-,24-,25+/m0/s1
Instrument: Q-Exactive HF, Thermo Scientific [MS:1002523]
Instrument type: LC-ESI-QTOF
Ms type: MS2
Ion mode: NEGATIVE
Ionization: ESI
Fragmentation mode: HCD
Collision energy: 10.0 eV
Resolution: N/A
Base peak: 629.328
Precursor m/z: 629.328
Precursor type: [M-H]-
m/z	relative intensity	assigned
128.035499123966	0	
143.0463633817785	0	
210.0885181427002	0	
254.0784517176011	7	
272.08905029296875	25	
288.0659664378447	0	
306.0767391429228	5	
513.2786254882812	0	
611.3172248391544	11	
629.3274787454044	999	precursor
