Mass spectrum: TXB3; LC-ESI-QFT; MS2; CE: 20.0; R=30.000; [M-H]-
Name: TXB3
Class: Natural Product; Lipid Standard
Formula: C20H32O6
Exact mass: 368.21989
SMILES: CC\C=C/C[C@H](O)\C=C\[C@H]1OC(O)C[C@H](O)[C@@H]1C\C=C/CCCC(O)=O
InChI: InChI=1S/C20H32O6/c1-2-3-6-9-15(21)12-13-18-16(17(22)14-20(25)26-18)10-7-4-5-8-11-19(23)24/h3-4,6-7,12-13,15-18,20-22,25H,2,5,8-11,14H2,1H3,(H,23,24)/b6-3-,7-4-,13-12+/t15-,16-,17-,18+,20?/m0/s1
Instrument: Q-Exactive HF, Thermo Scientific [MS:1002523]
Instrument type: LC-ESI-QFT
Ms type: MS2
Ion mode: NEGATIVE
Ionization: ESI
Fragmentation mode: HCD
Collision energy: 20.0 NCE
Resolution: 30.000
Base peak: 367.2126
Precursor m/z: 367.2126
Precursor type: [M-H]-
m/z	relative intensity	assigned
69.03449630737305	0	
125.097280328924	4	
151.11278464577416	5	
169.08701809969816	999	
177.09209234064275	27	
195.1026042591442	668	
287.1652304909446	29	
323.1861960671165	34	
349.20172396573156	2	
367.2122996937145	33	precursor
