Mass spectrum: 5,12-DiHETE; LC-ESI-QFT; MS2; CE: 30.0; R=30.000; [M-H]-
Name: 5,12-DiHETE
Class: Natural Product; Lipid Standard
Formula: C20H32O4
Exact mass: 336.23006
SMILES: CCCCC\C=C/C[C@@H](O)\C=C\C=C\C=C/[C@@H](O)CCCC(O)=O
InChI: InChI=1S/C20H32O4/c1-2-3-4-5-6-9-13-18(21)14-10-7-8-11-15-19(22)16-12-17-20(23)24/h6-11,14-15,18-19,21-22H,2-5,12-13,16-17H2,1H3,(H,23,24)/b8-7+,9-6-,14-10+,15-11-/t18-,19-/m1/s1
Instrument: Q-Exactive HF, Thermo Scientific [MS:1002523]
Instrument type: LC-ESI-QFT
Ms type: MS2
Ion mode: NEGATIVE
Ionization: ESI
Fragmentation mode: HCD
Collision energy: 30.0 NCE
Resolution: 30.000
Base peak: 335.2225
Precursor m/z: 335.2225
Precursor type: [M-H]-
m/z	relative intensity	assigned
59.01345411936442	820	
71.01359685262044	442	
123.08152898152669	204	
129.05572001139322	581	
151.11275990804037	197	
181.08695220947266	127	
195.10253143310547	999	
273.22229258219403	123	
317.21187082926434	352	
335.22252400716144	538	precursor
