Mass spectrum: 12-HHTrE; LC-ESI-QTOF; MS2; CE: 10.0; R=N/A; [M-H]-
Name: 12-HHTrE
Class: Natural Product; Lipid Standard
Formula: C17H28O3
Exact mass: 280.20384
SMILES: CCCCCC(O)\C=C\C=C\C\C=C\CCCC(O)=O
InChI: InChI=1S/C17H28O3/c1-2-3-10-13-16(18)14-11-8-6-4-5-7-9-12-15-17(19)20/h5-8,11,14,16,18H,2-4,9-10,12-13,15H2,1H3,(H,19,20)/b7-5+,8-6+,14-11+
Instrument: Q-Exactive HF, Thermo Scientific [MS:1002523]
Instrument type: LC-ESI-QTOF
Ms type: MS2
Ion mode: NEGATIVE
Ionization: ESI
Fragmentation mode: HCD
Collision energy: 10.0 eV
Resolution: N/A
Base peak: 279.1966
Precursor m/z: 279.1966
Precursor type: [M-H]-
m/z	relative intensity	assigned
59.01349322001139	8	
113.09724044799805	19	
135.11798180474176	132	
163.14930386013455	20	
179.10774315728082	331	
189.16485256618924	11	
217.19612291124133	98	
235.2066616482205	27	
261.1858418782552	234	
279.19637722439234	999	precursor
