Mass spectrum: 8,9-DHET-[d11]; LC-ESI-QFT; MS2; CE: 40.0; R=30.000; [M-H]-
Name: 8,9-DHET-[d11]
Class: Natural Product; Lipid Standard
Formula: C20H34O4
Exact mass: 338.24571
SMILES: CCCCC\C=C/C\C=C/CC(O)C(O)C\C=C/CCCC(O)=O
InChI: InChI=1S/C20H34O4/c1-2-3-4-5-6-7-8-9-12-15-18(21)19(22)16-13-10-11-14-17-20(23)24/h6-7,9-10,12-13,18-19,21-22H,2-5,8,11,14-17H2,1H3,(H,23,24)/b7-6-,12-9-,13-10-
Instrument: Q-Exactive HF, Thermo Scientific [MS:1002523]
Instrument type: LC-ESI-QFT
Ms type: MS2
Ion mode: NEGATIVE
Ionization: ESI
Fragmentation mode: HCD
Collision energy: 40.0 NCE
Resolution: 30.000
Base peak: 348.3075
Precursor m/z: 348.3075
Precursor type: [M-H]-
m/z	relative intensity	assigned
73.02938652038574	377	
111.08169212341309	231	
123.0817211151123	235	
127.07661285400391	998	
141.09229202270507	114	
185.08208160400392	116	
220.22394561767578	32	
268.2967163085938	38	
330.2970962524414	35	
348.3075576782227	40	precursor
