Mass spectrum: 10-HDoHE; LC-ESI-QFT; MS2; CE: 20.0; R=30.000; [M-H]-
Name: 10-HDoHE
Class: Natural Product; Lipid Standard
Formula: C22H32O3
Exact mass: 344.23514
SMILES: CC\C=C/C\C=C/C\C=C/C=C/C(O)C\C=C/C\C=C/CCC(O)=O
InChI: InChI=1S/C22H32O3/c1-2-3-4-5-6-7-8-9-12-15-18-21(23)19-16-13-10-11-14-17-20-22(24)25/h3-4,6-7,9,11-16,18,21,23H,2,5,8,10,17,19-20H2,1H3,(H,24,25)/b4-3-,7-6-,12-9-,14-11-,16-13-,18-15+
Instrument: Q-Exactive HF, Thermo Scientific [MS:1002523]
Instrument type: LC-ESI-QFT
Ms type: MS2
Ion mode: NEGATIVE
Ionization: ESI
Fragmentation mode: HCD
Collision energy: 20.0 NCE
Resolution: 30.000
Base peak: 343.2279
Precursor m/z: 343.2279
Precursor type: [M-H]-
m/z	relative intensity	assigned
59.013441630772185	28	
121.06580189296177	24	
153.09197889055525	999	
161.1334490094866	306	
181.08687591552734	328	
227.1803468976702	68	
281.2271728515625	508	
299.23777988978793	103	
325.2169734409877	195	
343.2274475097656	388	precursor
