Mass spectrum: 9-HOTrE; LC-ESI-QTOF; MS2; CE: 10.0; R=N/A; [M-H]-
Name: 9-HOTrE
Class: Natural Product; Lipid Standard
Formula: C18H30O3
Exact mass: 294.21949
SMILES: CC\C=C/C\C=C/C=C/C(O)CCCCCCCC(O)=O
InChI: InChI=1S/C18H30O3/c1-2-3-4-5-6-8-11-14-17(19)15-12-9-7-10-13-16-18(20)21/h3-4,6,8,11,14,17,19H,2,5,7,9-10,12-13,15-16H2,1H3,(H,20,21)/b4-3-,8-6-,14-11+
Instrument: Q-Exactive HF, Thermo Scientific [MS:1002523]
Instrument type: LC-ESI-QTOF
Ms type: MS2
Ion mode: NEGATIVE
Ionization: ESI
Fragmentation mode: HCD
Collision energy: 10.0 eV
Resolution: N/A
Base peak: 293.2122
Precursor m/z: 293.2122
Precursor type: [M-H]-
m/z	relative intensity	assigned
59.013549403140416	0	
71.01359558105469	0	
121.1023941040039	164	
171.1028522309803	435	
185.1183580671038	3	
231.21192714146204	29	
275.2018112909226	999	
293.21236746651783	900	precursor
