Mass spectrum: 11-HETE; LC-ESI-QFT; MS2; CE: 40.0; R=30.000; [M-H]-
Name: 11-HETE
Class: Natural Product; Lipid Standard
Formula: C20H32O3
Exact mass: 320.23514
SMILES: CCCCC\C=C/C=C/C(O)C\C=C/C\C=C/CCCC(O)=O
InChI: InChI=1S/C20H32O3/c1-2-3-4-5-7-10-13-16-19(21)17-14-11-8-6-9-12-15-18-20(22)23/h6-7,9-11,13-14,16,19,21H,2-5,8,12,15,17-18H2,1H3,(H,22,23)/b9-6-,10-7-,14-11-,16-13+
Instrument: Q-Exactive HF, Thermo Scientific [MS:1002523]
Instrument type: LC-ESI-QFT
Ms type: MS2
Ion mode: NEGATIVE
Ionization: ESI
Fragmentation mode: HCD
Collision energy: 40.0 NCE
Resolution: 30.000
Base peak: 319.2279
Precursor m/z: 319.2279
Precursor type: [M-H]-
m/z	relative intensity	assigned
59.01346549987793	204	
149.09709396362305	198	
167.10768432617186	999	
195.10260391235352	12	
257.2274230957031	13	
275.23789672851564	11	
301.2171157836914	14	
319.22761993408204	41	precursor
