Mass spectrum: 8,9-DHET-[d11]; LC-ESI-QTOF; MS2; CE: 30.0; R=N/A; [M-H]-
Name: 8,9-DHET-[d11]
Class: Natural Product; Lipid Standard
Formula: C20H34O4
Exact mass: 338.24571
SMILES: CCCCC\C=C/C\C=C/CC(O)C(O)C\C=C/CCCC(O)=O
InChI: InChI=1S/C20H34O4/c1-2-3-4-5-6-7-8-9-12-15-18(21)19(22)16-13-10-11-14-17-20(23)24/h6-7,9-10,12-13,18-19,21-22H,2-5,8,11,14-17H2,1H3,(H,23,24)/b7-6-,12-9-,13-10-
Instrument: Q-Exactive HF, Thermo Scientific [MS:1002523]
Instrument type: LC-ESI-QTOF
Ms type: MS2
Ion mode: NEGATIVE
Ionization: ESI
Fragmentation mode: HCD
Collision energy: 30.0 eV
Resolution: N/A
Base peak: 348.3075
Precursor m/z: 348.3075
Precursor type: [M-H]-
m/z	relative intensity	assigned
73.02938499450684	295	
111.08169517517089	212	
123.08171691894532	265	
127.07661437988281	999	
141.0922821044922	305	
185.08205871582032	466	
220.2239501953125	91	
268.29674377441404	91	
330.2970474243164	319	
348.30749969482423	983	precursor
