Mass spectrum: 12-HHTrE; LC-ESI-QTOF; MS2; CE: 30.0; R=N/A; [M-H]-
Name: 12-HHTrE
Class: Natural Product; Lipid Standard
Formula: C17H28O3
Exact mass: 280.20384
SMILES: CCCCCC(O)\C=C\C=C\C\C=C\CCCC(O)=O
InChI: InChI=1S/C17H28O3/c1-2-3-10-13-16(18)14-11-8-6-4-5-7-9-12-15-17(19)20/h5-8,11,14,16,18H,2-4,9-10,12-13,15H2,1H3,(H,19,20)/b7-5+,8-6+,14-11+
Instrument: Q-Exactive HF, Thermo Scientific [MS:1002523]
Instrument type: LC-ESI-QTOF
Ms type: MS2
Ion mode: NEGATIVE
Ionization: ESI
Fragmentation mode: HCD
Collision energy: 30.0 eV
Resolution: N/A
Base peak: 279.1966
Precursor m/z: 279.1966
Precursor type: [M-H]-
m/z	relative intensity	assigned
59.013484057258154	499	
113.09723573572495	295	
135.1179791618796	567	
163.14929109461167	318	
179.10774051441865	999	
189.16486313763787	381	
217.19609877642463	807	
235.20667940027573	105	
261.1858340992647	991	
279.19643626493564	736	precursor
