Mass spectrum: 12-OxoETE; LC-ESI-QTOF; MS2; CE: 20.0; R=N/A; [M-H]-
Name: 12-OxoETE
Class: Natural Product; Lipid Standard
Formula: C20H30O3
Exact mass: 318.21949
SMILES: CCCCC\C=C/CC(=O)\C=C\C=C/C\C=C/CCCC(O)=O
InChI: InChI=1S/C20H30O3/c1-2-3-4-5-10-13-16-19(21)17-14-11-8-6-7-9-12-15-18-20(22)23/h7-11,13-14,17H,2-6,12,15-16,18H2,1H3,(H,22,23)/b9-7-,11-8-,13-10-,17-14+
Instrument: Q-Exactive HF, Thermo Scientific [MS:1002523]
Instrument type: LC-ESI-QTOF
Ms type: MS2
Ion mode: NEGATIVE
Ionization: ESI
Fragmentation mode: HCD
Collision energy: 20.0 eV
Resolution: N/A
Base peak: 317.2122
Precursor m/z: 317.2122
Precursor type: [M-H]-
m/z	relative intensity	assigned
59.01348908742269	8	
107.08667182922363	61	
137.0972048441569	10	
153.12849299112955	490	
163.07651011149088	94	
179.14412562052408	97	
219.17543665568033	41	
273.22230529785156	905	
299.2015101114909	21	
317.21195729573566	999	precursor
