Mass spectrum: 12-OxoETE; LC-ESI-QFT; MS2; CE: 40.0; R=30.000; [M-H]-
Name: 12-OxoETE
Class: Natural Product; Lipid Standard
Formula: C20H30O3
Exact mass: 318.21949
SMILES: CCCCC\C=C/CC(=O)\C=C\C=C/C\C=C/CCCC(O)=O
InChI: InChI=1S/C20H30O3/c1-2-3-4-5-10-13-16-19(21)17-14-11-8-6-7-9-12-15-18-20(22)23/h7-11,13-14,17H,2-6,12,15-16,18H2,1H3,(H,22,23)/b9-7-,11-8-,13-10-,17-14+
Instrument: Q-Exactive HF, Thermo Scientific [MS:1002523]
Instrument type: LC-ESI-QFT
Ms type: MS2
Ion mode: NEGATIVE
Ionization: ESI
Fragmentation mode: HCD
Collision energy: 40.0 NCE
Resolution: 30.000
Base peak: 317.2122
Precursor m/z: 317.2122
Precursor type: [M-H]-
m/z	relative intensity	assigned
59.01348322088068	292	
107.086669921875	134	
137.09718600186434	188	
153.1284831653942	998	
163.07649369673297	69	
179.14411371404475	541	
219.17539978027344	88	
273.22237881747157	238	
299.2016324129972	16	
317.21178644353694	26	precursor
