Mass spectrum: Resolvin D2-[d5]; LC-ESI-QFT; MS2; CE: 30.0; R=30.000; [M-H]-
Name: Resolvin D2-[d5]
Class: Natural Product; Lipid Standard
Formula: C22H32O5
Exact mass: 376.22497
SMILES: C(C/C=C\C[C@@H](/C=C/C=C\C=C\C=C\[C@H]([C@H](C/C=C\CC)O)O)O)C(O)=O
InChI: InChI=1S/C22H32O5/c1-2-3-9-16-20(24)21(25)17-12-7-5-4-6-10-14-19(23)15-11-8-13-18-22(26)27/h3-12,14,17,19-21,23-25H,2,13,15-16,18H2,1H3,(H,26,27)/b6-4-,7-5+,9-3-,11-8-,14-10+,17-12+/t19-,20+,21-/m1/s1
Instrument: Q-Exactive HF, Thermo Scientific [MS:1002523]
Instrument type: LC-ESI-QFT
Ms type: MS2
Ion mode: NEGATIVE
Ionization: ESI
Fragmentation mode: HCD
Collision energy: 30.0 NCE
Resolution: 30.000
Base peak: 380.2491
Precursor m/z: 380.2491
Precursor type: [M-H]-
m/z	relative intensity	assigned
59.01351737976074	212	
69.03439521789551	391	
113.06096153259277	375	
135.08173141479492	179	
141.0558639526367	431	
175.07655181884766	999	
215.1442527770996	237	
259.13404388427733	56	
277.14463195800784	30	
380.2494155883789	24	precursor
