Mass spectrum: PGE2-[d9]; LC-ESI-QTOF; MS2; CE: 10.0; R=N/A; [M-H]-
Name: PGE2-[d9]
Class: Natural Product; Lipid Standard
Formula: C20H32O5
Exact mass: 352.22497
SMILES: CCCCC[C@H](O)\C=C\[C@H]1[C@H](O)CC(=O)[C@@H]1C\C=C/CCCC(O)=O
InChI: InChI=1S/C20H32O5/c1-2-3-6-9-15(21)12-13-17-16(18(22)14-19(17)23)10-7-4-5-8-11-20(24)25/h4,7,12-13,15-17,19,21,23H,2-3,5-6,8-11,14H2,1H3,(H,24,25)/b7-4-,13-12+/t15-,16+,17+,19+/m0/s1
Instrument: Q-Exactive HF, Thermo Scientific [MS:1002523]
Instrument type: LC-ESI-QTOF
Ms type: MS2
Ion mode: NEGATIVE
Ionization: ESI
Fragmentation mode: HCD
Collision energy: 10.0 eV
Resolution: N/A
Base peak: 360.2738
Precursor m/z: 360.2738
Precursor type: [M-H]-
m/z	relative intensity	assigned
122.15378665924072	0	
175.1126193091983	4	
189.12848626999627	90	
226.21600112915038	1	
233.11822001139322	179	
280.26307169596356	288	
324.2527800060454	999	
342.2632896786644	810	
360.2741016206287	458	precursor
