Mass spectrum: 13-HODE-[d4]; LC-ESI-QTOF; MS2; CE: 20.0; R=N/A; [M-H]-
Name: 13-HODE-[d4]
Class: Natural Product; Lipid Standard
Formula: C18H32O3
Exact mass: 296.23514
SMILES: C(CCCCCCC/C=C\C=C\C(CCCCC)O)(=O)O
InChI: InChI=1S/C18H32O3/c1-2-3-11-14-17(19)15-12-9-7-5-4-6-8-10-13-16-18(20)21/h7,9,12,15,17,19H,2-6,8,10-11,13-14,16H2,1H3,(H,20,21)/b9-7-,15-12+
Instrument: Q-Exactive HF, Thermo Scientific [MS:1002523]
Instrument type: LC-ESI-QTOF
Ms type: MS2
Ion mode: NEGATIVE
Ionization: ESI
Fragmentation mode: HCD
Collision energy: 20.0 eV
Resolution: N/A
Base peak: 299.253
Precursor m/z: 299.253
Precursor type: [M-H]-
m/z	relative intensity	assigned
59.01355743408203	0	
114.10341962178548	0	
198.1578025817871	41	
280.2358795166016	19	
281.24209747314455	31	
299.25228424072264	999	precursor
