Mass spectrum: 5(6)-EET-[d11]; LC-ESI-QFT; MS2; CE: 20.0; R=30.000; [M-H]-
Name: 5(6)-EET-[d11]
Class: Natural Product; Lipid Standard
Formula: C20H32O3
Exact mass: 320.23514
SMILES: CCCCC\C=C/C\C=C/C\C=C/CC1OC1CCCC(O)=O
InChI: InChI=1S/C20H32O3/c1-2-3-4-5-6-7-8-9-10-11-12-13-15-18-19(23-18)16-14-17-20(21)22/h6-7,9-10,12-13,18-19H,2-5,8,11,14-17H2,1H3,(H,21,22)/b7-6-,10-9-,13-12-
Instrument: Q-Exactive HF, Thermo Scientific [MS:1002523]
Instrument type: LC-ESI-QFT
Ms type: MS2
Ion mode: NEGATIVE
Ionization: ESI
Fragmentation mode: HCD
Collision energy: 20.0 NCE
Resolution: 30.000
Base peak: 330.2971
Precursor m/z: 330.2971
Precursor type: [M-H]-
m/z	relative intensity	assigned
59.01353400094168	111	
83.05029042561848	178	
115.04020363943917	141	
174.21843465169272	154	
202.24977039155505	662	
214.2498590378534	47	
230.24458458310082	114	
268.2967442103795	114	
312.2865266345796	99	
330.2969738188244	998	precursor
