Mass spectrum: 5,6-DiHETE; LC-ESI-QFT; MS2; CE: 20.0; R=30.000; [M-H]-
Name: 5,6-DiHETE
Class: Natural Product; Lipid Standard
Formula: C20H32O4
Exact mass: 336.23006
SMILES: C([C@@H]([C@@H](/C=C/C=C/C=C\C/C=C\CCCCC)O)O)CCC(=O)O
InChI: InChI=1S/C20H32O4/c1-2-3-4-5-6-7-8-9-10-11-12-13-15-18(21)19(22)16-14-17-20(23)24/h6-7,9-13,15,18-19,21-22H,2-5,8,14,16-17H2,1H3,(H,23,24)/b7-6-,10-9-,12-11+,15-13+/t18-,19+/m1/s1
Instrument: Q-Exactive HF, Thermo Scientific [MS:1002523]
Instrument type: LC-ESI-QFT
Ms type: MS2
Ion mode: NEGATIVE
Ionization: ESI
Fragmentation mode: HCD
Collision energy: 20.0 NCE
Resolution: 30.000
Base peak: 335.2225
Precursor m/z: 335.2225
Precursor type: [M-H]-
m/z	relative intensity	assigned
59.013458945534445	88	
69.03431285511364	90	
115.04000022194602	999	
145.05054959383878	281	
163.14920043945312	81	
189.16479353471235	100	
219.1753068403764	190	
273.2222539728338	165	
317.21181696111506	739	
335.22250921075994	416	precursor
