Mass spectrum: 9-HODE; LC-ESI-QFT; MS2; CE: 40.0; R=30.000; [M-H]-
Name: 9-HODE
Class: Natural Product; Lipid Standard
Formula: C18H32O3
Exact mass: 296.23514
SMILES: CCCCC\C=C/C=C/C(O)CCCCCCCC(O)=O
InChI: InChI=1S/C18H32O3/c1-2-3-4-5-6-8-11-14-17(19)15-12-9-7-10-13-16-18(20)21/h6,8,11,14,17,19H,2-5,7,9-10,12-13,15-16H2,1H3,(H,20,21)/b8-6-,14-11+
Instrument: Q-Exactive HF, Thermo Scientific [MS:1002523]
Instrument type: LC-ESI-QFT
Ms type: MS2
Ion mode: NEGATIVE
Ionization: ESI
Fragmentation mode: HCD
Collision energy: 40.0 NCE
Resolution: 30.000
Base peak: 295.2279
Precursor m/z: 295.2279
Precursor type: [M-H]-
m/z	relative intensity	assigned
59.01349358809622	26	
123.11801348234478	4	
171.10268683182565	721	
233.22750131707443	15	
277.2171197188528	999	
295.22767398231906	337	precursor
