Mass spectrum: 12(13)-EpOME-[d4]; LC-ESI-QFT; MS2; CE: 20.0; R=30.000; [M-H]-
Name: 12(13)-EpOME-[d4]
Class: Natural Product; Lipid Standard
Formula: C18H32O3
Exact mass: 296.23514
SMILES: CCCCCC1OC1C\C=C/CCCCCCCC(O)=O
InChI: InChI=1S/C18H32O3/c1-2-3-10-13-16-17(21-16)14-11-8-6-4-5-7-9-12-15-18(19)20/h8,11,16-17H,2-7,9-10,12-15H2,1H3,(H,19,20)/b11-8-
Instrument: Q-Exactive HF, Thermo Scientific [MS:1002523]
Instrument type: LC-ESI-QFT
Ms type: MS2
Ion mode: NEGATIVE
Ionization: ESI
Fragmentation mode: HCD
Collision energy: 20.0 NCE
Resolution: 30.000
Base peak: 299.253
Precursor m/z: 299.253
Precursor type: [M-H]-
m/z	relative intensity	assigned
59.013620376586914	0	
114.10350375705295	0	
185.1515156139027	9	
198.15773010253906	110	
281.2417935458097	82	
299.25198641690343	999	precursor
