Mass spectrum: tetranor-12-HETE; LC-ESI-QFT; MS2; CE: 20.0; R=30.000; [M-H]-
Name: tetranor-12-HETE
Class: Natural Product; Lipid Standard
Formula: C16H26O3
Exact mass: 266.18819
SMILES: CCCCC\C=C/C[C@@H](O)\C=C\C=C/CCC(O)=O
InChI: InChI=1S/C16H26O3/c1-2-3-4-5-6-9-12-15(17)13-10-7-8-11-14-16(18)19/h6-10,13,15,17H,2-5,11-12,14H2,1H3,(H,18,19)/b8-7-,9-6-,13-10+/t15-/m1/s1
Instrument: Q-Exactive HF, Thermo Scientific [MS:1002523]
Instrument type: LC-ESI-QFT
Ms type: MS2
Ion mode: NEGATIVE
Ionization: ESI
Fragmentation mode: HCD
Collision energy: 20.0 NCE
Resolution: 30.000
Base peak: 265.1809
Precursor m/z: 265.1809
Precursor type: [M-H]-
m/z	relative intensity	assigned
91.05539911443537	4	
109.06589369340377	999	
139.11288452148438	27	
165.1284845525568	150	
203.18050315163353	56	
221.19107887961647	81	
265.18084716796875	205	precursor
