Mass spectrum: AA-[d8]; LC-ESI-QTOF; MS2; CE: 10.0; R=N/A; [M-H]-
Name: AA-[d8]
Class: Natural Product; Lipid Standard
Formula: C20H32O2
Exact mass: 304.24023
SMILES: CCCCC\C=C/C\C=C/C\C=C/C\C=C/CCCC(O)=O
InChI: InChI=1S/C20H32O2/c1-2-3-4-5-6-7-8-9-10-11-12-13-14-15-16-17-18-19-20(21)22/h6-7,9-10,12-13,15-16H,2-5,8,11,14,17-19H2,1H3,(H,21,22)/b7-6-,10-9-,13-12-,16-15-
Instrument: Q-Exactive HF, Thermo Scientific [MS:1002523]
Instrument type: LC-ESI-QTOF
Ms type: MS2
Ion mode: NEGATIVE
Ionization: ESI
Fragmentation mode: HCD
Collision energy: 10.0 eV
Resolution: N/A
Base peak: 311.2832
Precursor m/z: 311.2832
Precursor type: [M-H]-
m/z	relative intensity	assigned
59.013500012849505	1	
212.24027854517885	3	
239.26241302490234	0	
267.29294465717516	45	
311.28219925729854	999	precursor
