Mass spectrum: 5(6)-EET-[d11]; LC-ESI-QTOF; MS2; CE: 30.0; R=N/A; [M-H]-
Name: 5(6)-EET-[d11]
Class: Natural Product; Lipid Standard
Formula: C20H32O3
Exact mass: 320.23514
SMILES: CCCCC\C=C/C\C=C/C\C=C/CC1OC1CCCC(O)=O
InChI: InChI=1S/C20H32O3/c1-2-3-4-5-6-7-8-9-10-11-12-13-15-18-19(23-18)16-14-17-20(21)22/h6-7,9-10,12-13,18-19H,2-5,8,11,14-17H2,1H3,(H,21,22)/b7-6-,10-9-,13-12-
Instrument: Q-Exactive HF, Thermo Scientific [MS:1002523]
Instrument type: LC-ESI-QTOF
Ms type: MS2
Ion mode: NEGATIVE
Ionization: ESI
Fragmentation mode: HCD
Collision energy: 30.0 eV
Resolution: N/A
Base peak: 330.2971
Precursor m/z: 330.2971
Precursor type: [M-H]-
m/z	relative intensity	assigned
59.01353206634521	754	
83.05029258728027	832	
115.04021415710449	422	
174.21843566894532	592	
202.24980545043945	999	
214.2498809814453	166	
230.2445930480957	191	
268.29675750732423	187	
312.2865386962891	143	
330.2970733642578	595	precursor
