Mass spectrum: 8(9)-EET-[d11]; LC-ESI-QFT; MS2; CE: 40.0; R=30.000; [M-H]-
Name: 8(9)-EET-[d11]
Class: Natural Product; Lipid Standard
Formula: C20H32O3
Exact mass: 320.23514
SMILES: CCCCC\C=C/C\C=C/CC1OC1C\C=C/CCCC(O)=O
InChI: InChI=1S/C20H32O3/c1-2-3-4-5-6-7-8-9-12-15-18-19(23-18)16-13-10-11-14-17-20(21)22/h6-7,9-10,12-13,18-19H,2-5,8,11,14-17H2,1H3,(H,21,22)/b7-6-,12-9-,13-10-
Instrument: Q-Exactive HF, Thermo Scientific [MS:1002523]
Instrument type: LC-ESI-QFT
Ms type: MS2
Ion mode: NEGATIVE
Ionization: ESI
Fragmentation mode: HCD
Collision energy: 40.0 NCE
Resolution: 30.000
Base peak: 330.2969
Precursor m/z: 330.2969
Precursor type: [M-H]-
m/z	relative intensity	assigned
69.03432137625558	999	
123.08155114310128	163	
127.07645525251117	271	
155.0713882446289	112	
167.07135009765625	28	
190.2131859915597	79	
268.296397617885	79	
286.30704171316967	18	
312.2860586983817	20	
330.29654366629467	23	precursor
