Mass spectrum: 5-HETE-[d8]; LC-ESI-QFT; MS2; CE: 30.0; R=30.000; [M-H]-
Name: 5-HETE-[d8]
Class: Natural Product; Lipid Standard
Formula: C20H32O3
Exact mass: 320.23514
SMILES: CCCCC\C=C/C\C=C/C\C=C/C=C/C(O)CCCC(O)=O
InChI: InChI=1S/C20H32O3/c1-2-3-4-5-6-7-8-9-10-11-12-13-14-16-19(21)17-15-18-20(22)23/h6-7,9-10,12-14,16,19,21H,2-5,8,11,15,17-18H2,1H3,(H,22,23)/b7-6-,10-9-,13-12-,16-14+
Instrument: Q-Exactive HF, Thermo Scientific [MS:1002523]
Instrument type: LC-ESI-QFT
Ms type: MS2
Ion mode: NEGATIVE
Ionization: ESI
Fragmentation mode: HCD
Collision energy: 30.0 NCE
Resolution: 30.000
Base peak: 327.2778
Precursor m/z: 327.2778
Precursor type: [M-H]-
m/z	relative intensity	assigned
59.013515853881835	396	
116.04645729064941	999	
210.22462005615233	166	
265.27770538330077	199	
309.2675323486328	157	
327.2780029296875	134	precursor
