Mass spectrum: Resolvin D3; LC-ESI-QTOF; MS2; CE: 10.0; R=N/A; [M-H]-
Name: Resolvin D3
Class: Natural Product; Lipid Standard
Formula: C22H32O5
Exact mass: 376.22497
SMILES: C(=C/[C@@H](C\C=C/C=C/[C@H](C/C=C\CC)O)O)\C=C\C=C/[C@H](CCC(O)=O)O
InChI: InChI=1S/C22H32O5/c1-2-3-7-12-19(23)14-10-6-11-15-20(24)13-8-4-5-9-16-21(25)17-18-22(26)27/h3-11,13-14,16,19-21,23-25H,2,12,15,17-18H2,1H3,(H,26,27)/b5-4+,7-3-,11-6-,13-8+,14-10+,16-9-/t19-,20-,21+/m0/s1
Instrument: Q-Exactive HF, Thermo Scientific [MS:1002523]
Instrument type: LC-ESI-QTOF
Ms type: MS2
Ion mode: NEGATIVE
Ionization: ESI
Fragmentation mode: HCD
Collision energy: 10.0 eV
Resolution: N/A
Base peak: 375.2177
Precursor m/z: 375.2177
Precursor type: [M-H]-
m/z	relative intensity	assigned
69.03439294724237	13	
95.05038379487537	6	
115.04017966134208	16	
137.09732346307663	12	
147.11805725097656	115	
199.1493414015997	1	
357.2074570428757	15	
375.2177458263579	999	precursor
