Mass spectrum: 13-HODE-[d4]; LC-ESI-QFT; MS2; CE: 40.0; R=30.000; [M-H]-
Name: 13-HODE-[d4]
Class: Natural Product; Lipid Standard
Formula: C18H32O3
Exact mass: 296.23514
SMILES: C(CCCCCCC/C=C\C=C\C(CCCCC)O)(=O)O
InChI: InChI=1S/C18H32O3/c1-2-3-11-14-17(19)15-12-9-7-5-4-6-8-10-13-16-18(20)21/h7,9,12,15,17,19H,2-6,8,10-11,13-14,16H2,1H3,(H,20,21)/b9-7-,15-12+
Instrument: Q-Exactive HF, Thermo Scientific [MS:1002523]
Instrument type: LC-ESI-QFT
Ms type: MS2
Ion mode: NEGATIVE
Ionization: ESI
Fragmentation mode: HCD
Collision energy: 40.0 NCE
Resolution: 30.000
Base peak: 299.253
Precursor m/z: 299.253
Precursor type: [M-H]-
m/z	relative intensity	assigned
59.013468170166014	56	
114.10343551635742	44	
198.15774536132812	748	
280.2358673095703	220	
281.2419769287109	607	
299.25247344970705	999	precursor
