Mass spectrum: 16-HDoHE; LC-ESI-QFT; MS2; CE: 20.0; R=30.000; [M-H]-
Name: 16-HDoHE
Class: Natural Product; Lipid Standard
Formula: C22H32O3
Exact mass: 344.23514
SMILES: CC\C=C/C=C/C(O)C\C=C/C\C=C/C\C=C/C\C=C/CCC(O)=O
InChI: InChI=1S/C22H32O3/c1-2-3-4-15-18-21(23)19-16-13-11-9-7-5-6-8-10-12-14-17-20-22(24)25/h3-4,6-9,12-16,18,21,23H,2,5,10-11,17,19-20H2,1H3,(H,24,25)/b4-3-,8-6-,9-7-,14-12-,16-13-,18-15+
Instrument: Q-Exactive HF, Thermo Scientific [MS:1002523]
Instrument type: LC-ESI-QFT
Ms type: MS2
Ion mode: NEGATIVE
Ionization: ESI
Fragmentation mode: HCD
Collision energy: 20.0 NCE
Resolution: 30.000
Base peak: 343.2279
Precursor m/z: 343.2279
Precursor type: [M-H]-
m/z	relative intensity	assigned
59.01343675093217	20	
125.09709791703658	44	
135.11790882457387	47	
189.16473111239347	199	
233.15439675071022	999	
261.1493447043679	50	
281.2271922718395	101	
299.23771528764206	91	
325.2169078480114	117	
343.2272976962003	840	precursor
