Mass spectrum: 9-HODE; LC-ESI-QFT; MS2; CE: 20.0; R=30.000; [M-H]-
Name: 9-HODE
Class: Natural Product; Lipid Standard
Formula: C18H32O3
Exact mass: 296.23514
SMILES: CCCCC\C=C/C=C/C(O)CCCCCCCC(O)=O
InChI: InChI=1S/C18H32O3/c1-2-3-4-5-6-8-11-14-17(19)15-12-9-7-10-13-16-18(20)21/h6,8,11,14,17,19H,2-5,7,9-10,12-13,15-16H2,1H3,(H,20,21)/b8-6-,14-11+
Instrument: Q-Exactive HF, Thermo Scientific [MS:1002523]
Instrument type: LC-ESI-QFT
Ms type: MS2
Ion mode: NEGATIVE
Ionization: ESI
Fragmentation mode: HCD
Collision energy: 20.0 NCE
Resolution: 30.000
Base peak: 295.2279
Precursor m/z: 295.2279
Precursor type: [M-H]-
m/z	relative intensity	assigned
123.11793236983449	1	
171.10271253083883	86	
233.2277607164885	0	
277.2171518426192	159	
295.22750372635693	999	precursor
