Mass spectrum: 5(6)-EET-[d11]; LC-ESI-QTOF; MS2; CE: 10.0; R=N/A; [M-H]-
Name: 5(6)-EET-[d11]
Class: Natural Product; Lipid Standard
Formula: C20H32O3
Exact mass: 320.23514
SMILES: CCCCC\C=C/C\C=C/C\C=C/CC1OC1CCCC(O)=O
InChI: InChI=1S/C20H32O3/c1-2-3-4-5-6-7-8-9-10-11-12-13-15-18-19(23-18)16-14-17-20(21)22/h6-7,9-10,12-13,18-19H,2-5,8,11,14-17H2,1H3,(H,21,22)/b7-6-,10-9-,13-12-
Instrument: Q-Exactive HF, Thermo Scientific [MS:1002523]
Instrument type: LC-ESI-QTOF
Ms type: MS2
Ion mode: NEGATIVE
Ionization: ESI
Fragmentation mode: HCD
Collision energy: 10.0 eV
Resolution: N/A
Base peak: 330.2971
Precursor m/z: 330.2971
Precursor type: [M-H]-
m/z	relative intensity	assigned
59.013536725725444	26	
83.05029006231399	71	
115.04020291283017	65	
174.2184310186477	57	
202.24976893833704	404	
214.2498561314174	17	
230.24457659040178	65	
268.29676019577755	58	
312.28650338309154	62	
330.2969374883743	999	precursor
