Mass spectrum: 9-HETE; LC-ESI-QFT; MS2; CE: 30.0; R=30.000; [M-H]-
Name: 9-HETE
Class: Natural Product; Lipid Standard
Formula: C20H32O3
Exact mass: 320.23514
SMILES: CCCCC\C=C/C\C=C/CC(O)\C=C\C=C/CCCC(O)=O
InChI: InChI=1S/C20H32O3/c1-2-3-4-5-6-7-8-10-13-16-19(21)17-14-11-9-12-15-18-20(22)23/h6-7,9-11,13-14,17,19,21H,2-5,8,12,15-16,18H2,1H3,(H,22,23)/b7-6-,11-9-,13-10-,17-14+
Instrument: Q-Exactive HF, Thermo Scientific [MS:1002523]
Instrument type: LC-ESI-QFT
Ms type: MS2
Ion mode: NEGATIVE
Ionization: ESI
Fragmentation mode: HCD
Collision energy: 30.0 NCE
Resolution: 30.000
Base peak: 319.2279
Precursor m/z: 319.2279
Precursor type: [M-H]-
m/z	relative intensity	assigned
59.013479995727536	192	
69.03432846069336	998	
123.08155555725098	558	
139.07645721435546	235	
167.07133712768555	494	
179.14410247802735	383	
203.1804557800293	134	
257.2274200439453	362	
301.2171463012695	207	
319.2276138305664	692	precursor
