Mass spectrum: Resolvin D5; LC-ESI-QFT; MS2; CE: 40.0; R=30.000; [M-H]-
Name: Resolvin D5
Class: Natural Product; Lipid Standard
Formula: C22H32O4
Exact mass: 360.23006
SMILES: C(C(O)=O)CC/C=C\[C@@H](/C=C/C=C\C\C=C/C=C/[C@H](C/C=C\CC)O)O
InChI: InChI=1S/C22H32O4/c1-2-3-10-15-20(23)16-11-7-5-4-6-8-12-17-21(24)18-13-9-14-19-22(25)26/h3,5-8,10-13,16-18,20-21,23-24H,2,4,9,14-15,19H2,1H3,(H,25,26)/b7-5-,8-6-,10-3-,16-11+,17-12+,18-13-/t20-,21+/m0/s1
Instrument: Q-Exactive HF, Thermo Scientific [MS:1002523]
Instrument type: LC-ESI-QFT
Ms type: MS2
Ion mode: NEGATIVE
Ionization: ESI
Fragmentation mode: HCD
Collision energy: 40.0 NCE
Resolution: 30.000
Base peak: 359.2228
Precursor m/z: 359.2228
Precursor type: [M-H]-
m/z	relative intensity
59.013512420654294	527
119.08670806884766	334
141.05587158203124	179
199.14936904907228	999
227.14431533813476	70
279.21194610595705	62
297.22206115722656	3
