Mass spectrum: PGD2-[d4]; LC-ESI-QTOF; MS2; CE: 10.0; R=N/A; [M-H]-
Name: PGD2-[d4]
Class: Natural Product; Lipid Standard
Formula: C20H32O5
Exact mass: 352.22497
SMILES: CCCCC[C@H](O)\C=C\[C@@H]1[C@@H](C\C=C/CCCC(O)=O)[C@@H](O)CC1=O
InChI: InChI=1S/C20H32O5/c1-2-3-6-9-15(21)12-13-17-16(18(22)14-19(17)23)10-7-4-5-8-11-20(24)25/h4,7,12-13,15-18,21-22H,2-3,5-6,8-11,14H2,1H3,(H,24,25)/b7-4-,13-12+/t15-,16+,17+,18-/m0/s1
Instrument: Q-Exactive HF, Thermo Scientific [MS:1002523]
Instrument type: LC-ESI-QTOF
Ms type: MS2
Ion mode: NEGATIVE
Ionization: ESI
Fragmentation mode: HCD
Collision energy: 10.0 eV
Resolution: N/A
Base peak: 355.2428
Precursor m/z: 355.2428
Precursor type: [M-H]-
m/z	relative intensity	assigned
193.15356284693667	89	
203.14435958862305	0	
237.14334267064146	765	
255.15395395379318	119	
275.2317103335732	265	
319.2214419716283	999	
337.2321713096217	335	
355.24328452662417	87	precursor
