Mass spectrum: TXB3; LC-ESI-QTOF; MS2; CE: 10.0; R=N/A; [M-H]-
Name: TXB3
Class: Natural Product; Lipid Standard
Formula: C20H32O6
Exact mass: 368.21989
SMILES: CC\C=C/C[C@H](O)\C=C\[C@H]1OC(O)C[C@H](O)[C@@H]1C\C=C/CCCC(O)=O
InChI: InChI=1S/C20H32O6/c1-2-3-6-9-15(21)12-13-18-16(17(22)14-20(25)26-18)10-7-4-5-8-11-19(23)24/h3-4,6-7,12-13,15-18,20-22,25H,2,5,8-11,14H2,1H3,(H,23,24)/b6-3-,7-4-,13-12+/t15-,16-,17-,18+,20?/m0/s1
Instrument: Q-Exactive HF, Thermo Scientific [MS:1002523]
Instrument type: LC-ESI-QTOF
Ms type: MS2
Ion mode: NEGATIVE
Ionization: ESI
Fragmentation mode: HCD
Collision energy: 10.0 eV
Resolution: N/A
Base peak: 367.2126
Precursor m/z: 367.2126
Precursor type: [M-H]-
m/z	relative intensity	assigned
125.09733581542969	1	
151.11279678344727	0	
169.08704121907553	998	
177.09209696451822	14	
195.10262298583984	879	
287.1652552286784	19	
323.18621826171875	256	
349.2019271850586	30	
367.2124532063802	534	precursor
