Mass spectrum: 11(12)-EET-[d11]; LC-ESI-QFT; MS2; CE: 30.0; R=30.000; [M-H]-
Name: 11(12)-EET-[d11]
Class: Natural Product; Lipid Standard
Formula: C20H32O3
Exact mass: 320.23514
SMILES: CCCCC\C=C/CC1OC1C\C=C/C\C=C/CCCC(O)=O
InChI: InChI=1S/C20H32O3/c1-2-3-4-5-9-12-15-18-19(23-18)16-13-10-7-6-8-11-14-17-20(21)22/h6,8-10,12-13,18-19H,2-5,7,11,14-17H2,1H3,(H,21,22)/b8-6-,12-9-,13-10-
Instrument: Q-Exactive HF, Thermo Scientific [MS:1002523]
Instrument type: LC-ESI-QFT
Ms type: MS2
Ion mode: NEGATIVE
Ionization: ESI
Fragmentation mode: HCD
Collision energy: 30.0 NCE
Resolution: 30.000
Base peak: 330.2969
Precursor m/z: 330.2969
Precursor type: [M-H]-
m/z	relative intensity	assigned
59.01347308688693	196	
149.09712643093533	164	
167.10770755343967	999	
179.10770246717664	258	
208.11050415039062	62	
214.24958292643228	61	
268.29640028211804	184	
312.2860972086589	110	
330.296637641059	314	precursor
