Mass spectrum: 5-HEPE; LC-ESI-QFT; MS2; CE: 40.0; R=30.000; [M-H]-
Name: 5-HEPE
Class: Natural Product; Lipid Standard
Formula: C20H30O3
Exact mass: 318.21949
SMILES: C(\CC)=C\C/C=C\C/C=C\C\C=C/C=C/C(CCCC(=O)O)O
InChI: InChI=1S/C20H30O3/c1-2-3-4-5-6-7-8-9-10-11-12-13-14-16-19(21)17-15-18-20(22)23/h3-4,6-7,9-10,12-14,16,19,21H,2,5,8,11,15,17-18H2,1H3,(H,22,23)/b4-3-,7-6-,10-9-,13-12-,16-14+
Instrument: Q-Exactive HF, Thermo Scientific [MS:1002523]
Instrument type: LC-ESI-QFT
Ms type: MS2
Ion mode: NEGATIVE
Ionization: ESI
Fragmentation mode: HCD
Collision energy: 40.0 NCE
Resolution: 30.000
Base peak: 317.2122
Precursor m/z: 317.2122
Precursor type: [M-H]-
m/z	relative intensity	assigned
59.0135103225708	999	
71.01369094848633	78	
93.07107925415039	48	
115.04016647338867	785	
121.10240516662597	105	
163.1494510048314	3	
201.16511001586915	54	
255.21207962036132	31	
299.20192565917966	4	
317.2123553936298	2	precursor
