Mass spectrum: 14,15-DHET-[d11]; LC-ESI-QTOF; MS2; CE: 30.0; R=N/A; [M-H]-
Name: 14,15-DHET-[d11]
Class: Natural Product; Lipid Standard
Formula: C20H34O4
Exact mass: 338.24571
SMILES: CCCCCC(O)C(O)C\C=C/C\C=C/C\C=C/CCCC(O)=O
InChI: InChI=1S/C20H34O4/c1-2-3-12-15-18(21)19(22)16-13-10-8-6-4-5-7-9-11-14-17-20(23)24/h4,6-7,9-10,13,18-19,21-22H,2-3,5,8,11-12,14-17H2,1H3,(H,23,24)/b6-4-,9-7-,13-10-
Instrument: Agilent QTof 6545, Agilent Technologies [MS:1000490]
Instrument type: LC-ESI-QTOF
Ms type: MS2
Ion mode: NEGATIVE
Ionization: ESI
Fragmentation mode: CID
Collision energy: 30.0 eV
Resolution: N/A
Base peak: 348.307495117188
Precursor m/z: 348.307495117188
Precursor type: [M-H]-
m/z	relative intensity	assigned
59.0136004244319	741	
109.14432969825471	873	
140.16151720532955	736	
207.1389370272941	999	
268.29791375752285	24	
330.29595443106183	28	
348.3063380386833	39	precursor
