Mass spectrum: 15-HEPE; LC-ESI-QFT; MS2; CE: 40.0; R=30.000; [M-H]-
Name: 15-HEPE
Class: Natural Product; Lipid Standard
Formula: C20H30O3
Exact mass: 318.21949
SMILES: C(\CC)=C\CC(/C=C/C=C\C/C=C\C/C=C\CCCC(=O)O)O
InChI: InChI=1S/C20H30O3/c1-2-3-13-16-19(21)17-14-11-9-7-5-4-6-8-10-12-15-18-20(22)23/h3-5,8-11,13-14,17,19,21H,2,6-7,12,15-16,18H2,1H3,(H,22,23)/b5-4-,10-8-,11-9-,13-3-,17-14+
Instrument: Q-Exactive HF, Thermo Scientific [MS:1002523]
Instrument type: LC-ESI-QFT
Ms type: MS2
Ion mode: NEGATIVE
Ionization: ESI
Fragmentation mode: HCD
Collision energy: 40.0 NCE
Resolution: 30.000
Base peak: 317.2122
Precursor m/z: 317.2122
Precursor type: [M-H]-
m/z	relative intensity	assigned
59.01351375579834	999	
111.08168182373046	219	
121.10239601135254	283	
147.11809997558595	233	
175.14935379028321	193	
219.13915557861327	93	
248.14178721110025	6	
255.2120216369629	154	
299.2019012451172	30	
317.2123458862305	20	precursor
