Mass spectrum: 5-OxoETE-[d7]; LC-ESI-QFT; MS2; CE: 40.0; R=30.000; [M-H]-
Name: 5-OxoETE-[d7]
Class: Natural Product; Lipid Standard
Formula: C20H30O3
Exact mass: 318.21949
SMILES: CCCCC\C=C/C\C=C/C\C=C/C=C/C(=O)CCCC(O)=O
InChI: InChI=1S/C20H30O3/c1-2-3-4-5-6-7-8-9-10-11-12-13-14-16-19(21)17-15-18-20(22)23/h6-7,9-10,12-14,16H,2-5,8,11,15,17-18H2,1H3,(H,22,23)/b7-6-,10-9-,13-12-,16-14+
Instrument: Q-Exactive HF, Thermo Scientific [MS:1002523]
Instrument type: LC-ESI-QFT
Ms type: MS2
Ion mode: NEGATIVE
Ionization: ESI
Fragmentation mode: HCD
Collision energy: 40.0 NCE
Resolution: 30.000
Base peak: 324.2558
Precursor m/z: 324.2558
Precursor type: [M-H]-
m/z	relative intensity	assigned
59.01351146697998	999	
71.01368942260743	370	
131.0684799194336	60	
167.17454299926757	59	
210.22455978393555	239	
252.23498611450196	44	
280.2662689208984	60	
324.2559295654297	25	precursor
