Mass spectrum: PGB2-[d4]; LC-ESI-QTOF; MS2; CE: 20.0; R=N/A; [M-H]-
Name: PGB2-[d4]
Class: Natural Product; Lipid Standard
Formula: C20H30O4
Exact mass: 334.21441
SMILES: CCCCC[C@H](O)\C=C\C1=C(C\C=C/CCCC(O)=O)C(=O)CC1
InChI: InChI=1S/C20H30O4/c1-2-3-6-9-17(21)14-12-16-13-15-19(22)18(16)10-7-4-5-8-11-20(23)24/h4,7,12,14,17,21H,2-3,5-6,8-11,13,15H2,1H3,(H,23,24)/b7-4-,14-12+/t17-/m0/s1
Instrument: Q-Exactive HF, Thermo Scientific [MS:1002523]
Instrument type: LC-ESI-QTOF
Ms type: MS2
Ion mode: NEGATIVE
Ionization: ESI
Fragmentation mode: HCD
Collision energy: 20.0 eV
Resolution: N/A
Base peak: 337.2324
Precursor m/z: 337.2324
Precursor type: [M-H]-
m/z	relative intensity	assigned
57.034247970581056	0	
113.0973388671875	25	
167.13810501098632	8	
179.1380813598633	75	
211.12796936035156	59	
239.1591484069824	65	
275.23191833496094	22	
319.2216598510742	91	
337.2322021484375	999	precursor
