Mass spectrum: 12(13)-EpOME-[d4]; LC-ESI-QFT; MS2; CE: 40.0; R=30.000; [M-H]-
Name: 12(13)-EpOME-[d4]
Class: Natural Product; Lipid Standard
Formula: C18H32O3
Exact mass: 296.23514
SMILES: CCCCCC1OC1C\C=C/CCCCCCCC(O)=O
InChI: InChI=1S/C18H32O3/c1-2-3-10-13-16-17(21-16)14-11-8-6-4-5-7-9-12-15-18(19)20/h8,11,16-17H,2-7,9-10,12-15H2,1H3,(H,19,20)/b11-8-
Instrument: Q-Exactive HF, Thermo Scientific [MS:1002523]
Instrument type: LC-ESI-QFT
Ms type: MS2
Ion mode: NEGATIVE
Ionization: ESI
Fragmentation mode: HCD
Collision energy: 40.0 NCE
Resolution: 30.000
Base peak: 299.253
Precursor m/z: 299.253
Precursor type: [M-H]-
m/z	relative intensity	assigned
59.01347133091518	136	
114.1034497347745	78	
185.15148093483666	174	
198.15773148970172	908	
281.24179632013494	816	
299.25229436700994	999	precursor
