Mass spectrum: LTD4-[d5]; LC-ESI-QFT; MS2; CE: 30.0; R=30.000; [M-H]-
Name: LTD4-[d5]
Class: Natural Product; Lipid Standard
Formula: C25H40N2O6S
Exact mass: 496.26071
SMILES: CCCCC\C=C/C\C=C/C=C/C=C/[C@@H](SC[C@H](N)C(=O)NCC(O)=O)[C@@H](O)CCCC(O)=O
InChI: InChI=1S/C25H40N2O6S/c1-2-3-4-5-6-7-8-9-10-11-12-13-16-22(21(28)15-14-17-23(29)30)34-19-20(26)25(33)27-18-24(31)32/h6-7,9-13,16,20-22,28H,2-5,8,14-15,17-19,26H2,1H3,(H,27,33)(H,29,30)(H,31,32)/b7-6-,10-9-,12-11+,16-13+/t20-,21-,22+/m0/s1
Instrument: Q-Exactive HF, Thermo Scientific [MS:1002523]
Instrument type: LC-ESI-QFT
Ms type: MS2
Ion mode: NEGATIVE
Ionization: ESI
Fragmentation mode: HCD
Collision energy: 30.0 NCE
Resolution: 30.000
Base peak: 500.2851
Precursor m/z: 500.2851
Precursor type: [M-H]-
m/z	relative intensity	assigned
58.029490852355956	53	
99.05651931762695	156	
143.04628067016603	999	
160.0200988769531	53	
177.03404388427734	743	
240.18417892456054	48	
294.2310516357422	68	
338.220964050293	67	
482.27452087402344	19	
500.2850052682977	2	precursor
