Mass spectrum: TXB3; LC-ESI-QFT; MS2; CE: 30.0; R=30.000; [M-H]-
Name: TXB3
Class: Natural Product; Lipid Standard
Formula: C20H32O6
Exact mass: 368.21989
SMILES: CC\C=C/C[C@H](O)\C=C\[C@H]1OC(O)C[C@H](O)[C@@H]1C\C=C/CCCC(O)=O
InChI: InChI=1S/C20H32O6/c1-2-3-6-9-15(21)12-13-18-16(17(22)14-20(25)26-18)10-7-4-5-8-11-19(23)24/h3-4,6-7,12-13,15-18,20-22,25H,2,5,8-11,14H2,1H3,(H,23,24)/b6-3-,7-4-,13-12+/t15-,16-,17-,18+,20?/m0/s1
Instrument: Q-Exactive HF, Thermo Scientific [MS:1002523]
Instrument type: LC-ESI-QFT
Ms type: MS2
Ion mode: NEGATIVE
Ionization: ESI
Fragmentation mode: HCD
Collision energy: 30.0 NCE
Resolution: 30.000
Base peak: 367.2126
Precursor m/z: 367.2126
Precursor type: [M-H]-
m/z	relative intensity	assigned
69.03434059836648	9	
125.09721513227983	41	
151.11284013227984	36	
169.08703197132456	999	
177.0920978892933	63	
195.1026181307706	423	
287.1653331409801	16	
323.1859436035156	0	
367.21331787109375	0	precursor
