Mass spectrum: 15-HETE-[d8]; LC-ESI-QFT; MS2; CE: 20.0; R=30.000; [M-H]-
Name: 15-HETE-[d8]
Class: Natural Product; Lipid Standard
Formula: C20H32O3
Exact mass: 320.23514
SMILES: CCCCCC(O)\C=C\C=C/C\C=C/C\C=C/CCCC(O)=O
InChI: InChI=1S/C20H32O3/c1-2-3-13-16-19(21)17-14-11-9-7-5-4-6-8-10-12-15-18-20(22)23/h4-5,8-11,14,17,19,21H,2-3,6-7,12-13,15-16,18H2,1H3,(H,22,23)/b5-4-,10-8-,11-9-,17-14+
Instrument: Q-Exactive HF, Thermo Scientific [MS:1002523]
Instrument type: LC-ESI-QFT
Ms type: MS2
Ion mode: NEGATIVE
Ionization: ESI
Fragmentation mode: HCD
Collision energy: 20.0 NCE
Resolution: 30.000
Base peak: 327.2781
Precursor m/z: 327.2781
Precursor type: [M-H]-
m/z	relative intensity	assigned
59.01349004109701	7	
114.10348510742188	10	
182.19306055704752	165	
210.2245216369629	12	
226.18287658691406	449	
265.2774963378906	107	
283.2880503336589	25	
309.2671941121419	287	
327.2776412963867	999	precursor
