Mass spectrum: TXB3; LC-ESI-QFT; MS2; CE: 40.0; R=30.000; [M-H]-
Name: TXB3
Class: Natural Product; Lipid Standard
Formula: C20H32O6
Exact mass: 368.21989
SMILES: CC\C=C/C[C@H](O)\C=C\[C@H]1OC(O)C[C@H](O)[C@@H]1C\C=C/CCCC(O)=O
InChI: InChI=1S/C20H32O6/c1-2-3-6-9-15(21)12-13-18-16(17(22)14-20(25)26-18)10-7-4-5-8-11-19(23)24/h3-4,6-7,12-13,15-18,20-22,25H,2,5,8-11,14H2,1H3,(H,23,24)/b6-3-,7-4-,13-12+/t15-,16-,17-,18+,20?/m0/s1
Instrument: Q-Exactive HF, Thermo Scientific [MS:1002523]
Instrument type: LC-ESI-QFT
Ms type: MS2
Ion mode: NEGATIVE
Ionization: ESI
Fragmentation mode: HCD
Collision energy: 40.0 NCE
Resolution: 30.000
Base peak: 367.2126
Precursor m/z: 367.2126
Precursor type: [M-H]-
m/z	relative intensity
69.03435238924894	48
125.09719917990945	172
151.11284429376775	81
169.087045842951	999
177.0921062122692	71
195.10264032537287	212
287.16534701260656	3
