Mass spectrum: Maresin 1; LC-ESI-QTOF; MS2; CE: 10.0; R=N/A; [M-H]-
Name: Maresin 1
Class: Natural Product; Lipid Standard
Formula: C22H32O4
Exact mass: 360.23006
SMILES: C(CC/C=C\C[C@@H](O)/C=C/C=C/C=C\[C@H](C/C=C\C/C=C\CC)O)(O)=O
InChI: InChI=1S/C22H32O4/c1-2-3-4-5-6-10-15-20(23)16-11-7-8-12-17-21(24)18-13-9-14-19-22(25)26/h3-4,6-13,16-17,20-21,23-24H,2,5,14-15,18-19H2,1H3,(H,25,26)/b4-3-,8-7+,10-6-,13-9-,16-11-,17-12+/t20-,21-/m0/s1
Instrument: Q-Exactive HF, Thermo Scientific [MS:1002523]
Instrument type: LC-ESI-QTOF
Ms type: MS2
Ion mode: NEGATIVE
Ionization: ESI
Fragmentation mode: HCD
Collision energy: 10.0 eV
Resolution: N/A
Base peak: 359.2228
Precursor m/z: 359.2228
Precursor type: [M-H]-
m/z	relative intensity	assigned
59.013465309143065	5	
93.03459815979004	3	
113.06084022521972	28	
123.08156318664551	11	
177.12845611572266	30	
228.1520782470703	1	
250.12094955444337	30	
297.2222900390625	30	
341.21197814941405	55	
359.222590637207	999	precursor
