Mass spectrum: Resolvin D1-[d5]; LC-ESI-QTOF; MS2; CE: 10.0; R=N/A; [M-H]-
Name: Resolvin D1-[d5]
Class: Natural Product; Lipid Standard
Formula: C22H32O5
Exact mass: 376.22497
SMILES: C(\CCC(O)=O)=C\C[C@@H]([C@@H](\C=C\C=C\C=C/C=C/[C@H](C/C=C\CC)O)O)O
InChI: InChI=1S/C22H32O5/c1-2-3-9-14-19(23)15-10-6-4-5-7-11-16-20(24)21(25)17-12-8-13-18-22(26)27/h3-12,15-16,19-21,23-25H,2,13-14,17-18H2,1H3,(H,26,27)/b6-4-,7-5+,9-3-,12-8-,15-10+,16-11+/t19-,20+,21-/m0/s1
Instrument: Q-Exactive HF, Thermo Scientific [MS:1002523]
Instrument type: LC-ESI-QTOF
Ms type: MS2
Ion mode: NEGATIVE
Ionization: ESI
Fragmentation mode: HCD
Collision energy: 10.0 eV
Resolution: N/A
Base peak: 380.2491
Precursor m/z: 380.2491
Precursor type: [M-H]-
m/z	relative intensity	assigned
59.01351102193197	1	
121.06599367581882	2	
135.08162395770734	24	
141.0557344876803	282	
163.0765157846304	12	
220.17550072303186	41	
238.18602928748498	106	
277.14446786733777	19	
362.23841740534857	7	
380.24891779972955	999	precursor
