Mass spectrum: 9(10)-EpOME-[d4]; LC-ESI-QTOF; MS2; CE: 20.0; R=N/A; [M-H]-
Name: 9(10)-EpOME-[d4]
Class: Natural Product; Lipid Standard
Formula: C18H32O3
Exact mass: 296.23514
SMILES: CCCCC\C=C/CC1OC1CCCCCCCC(O)=O
InChI: InChI=1S/C18H32O3/c1-2-3-4-5-7-10-13-16-17(21-16)14-11-8-6-9-12-15-18(19)20/h7,10,16-17H,2-6,8-9,11-15H2,1H3,(H,19,20)/b10-7-
Instrument: Q-Exactive HF, Thermo Scientific [MS:1002523]
Instrument type: LC-ESI-QTOF
Ms type: MS2
Ion mode: NEGATIVE
Ionization: ESI
Fragmentation mode: HCD
Collision energy: 20.0 eV
Resolution: N/A
Base peak: 299.253
Precursor m/z: 299.253
Precursor type: [M-H]-
m/z	relative intensity	assigned
59.01354217529297	0	
172.10900740189985	160	
185.11525934392756	3	
198.15792541503907	0	
280.23581764914775	86	
281.24189897017044	210	
299.2522083629261	998	precursor
