Mass spectrum: Resolvin D1-[d5]; LC-ESI-QFT; MS2; CE: 30.0; R=30.000; [M-H]-
Name: Resolvin D1-[d5]
Class: Natural Product; Lipid Standard
Formula: C22H32O5
Exact mass: 376.22497
SMILES: C(\CCC(O)=O)=C\C[C@@H]([C@@H](\C=C\C=C\C=C/C=C/[C@H](C/C=C\CC)O)O)O
InChI: InChI=1S/C22H32O5/c1-2-3-9-14-19(23)15-10-6-4-5-7-11-16-20(24)21(25)17-12-8-13-18-22(26)27/h3-12,15-16,19-21,23-25H,2,13-14,17-18H2,1H3,(H,26,27)/b6-4-,7-5+,9-3-,12-8-,15-10+,16-11+/t19-,20+,21-/m0/s1
Instrument: Q-Exactive HF, Thermo Scientific [MS:1002523]
Instrument type: LC-ESI-QFT
Ms type: MS2
Ion mode: NEGATIVE
Ionization: ESI
Fragmentation mode: HCD
Collision energy: 30.0 NCE
Resolution: 30.000
Base peak: 380.2491
Precursor m/z: 380.2491
Precursor type: [M-H]-
m/z	relative intensity	assigned
59.01349463829627	120	
121.06590799184946	439	
135.08160165640024	437	
141.05574857271634	882	
163.07652869591345	165	
220.1754666841947	998	
238.18604806753305	258	
277.14464060465497	4	
362.2385431925456	4	
380.2492018479567	9	precursor
