Mass spectrum: 13-HOTrE; LC-ESI-QTOF; MS2; CE: 20.0; R=N/A; [M-H]-
Name: 13-HOTrE
Class: Natural Product; Lipid Standard
Formula: C18H30O3
Exact mass: 294.21949
SMILES: CC\C=C/CC(O)\C=C\C=C/CCCCCCCC(O)=O
InChI: InChI=1S/C18H30O3/c1-2-3-11-14-17(19)15-12-9-7-5-4-6-8-10-13-16-18(20)21/h3,7,9,11-12,15,17,19H,2,4-6,8,10,13-14,16H2,1H3,(H,20,21)/b9-7-,11-3-,15-12+
Instrument: Q-Exactive HF, Thermo Scientific [MS:1002523]
Instrument type: LC-ESI-QTOF
Ms type: MS2
Ion mode: NEGATIVE
Ionization: ESI
Fragmentation mode: HCD
Collision energy: 20.0 eV
Resolution: N/A
Base peak: 293.2122
Precursor m/z: 293.2122
Precursor type: [M-H]-
m/z	relative intensity	assigned
59.01348622639974	0	
179.14408583868118	0	
195.13901846749442	45	
223.1339314778646	55	
256.13157435825894	22	
275.2016441708519	55	
293.2119983491443	999	precursor
