Mass spectrum: LTB4-[d4]; LC-ESI-QFT; MS2; CE: 30.0; R=30.000; [M-H]-
Name: LTB4-[d4]
Class: Natural Product; Lipid Standard
Formula: C20H32O4
Exact mass: 336.23006
SMILES: CCCCC\C=C/C[C@@H](O)\C=C\C=C\C=C/[C@@H](O)CCCC(O)=O
InChI: InChI=1S/C20H32O4/c1-2-3-4-5-6-9-13-18(21)14-10-7-8-11-15-19(22)16-12-17-20(23)24/h6-11,14-15,18-19,21-22H,2-5,12-13,16-17H2,1H3,(H,23,24)/b8-7+,9-6-,14-10+,15-11-/t18-,19-/m1/s1
Instrument: Q-Exactive HF, Thermo Scientific [MS:1002523]
Instrument type: LC-ESI-QFT
Ms type: MS2
Ion mode: NEGATIVE
Ionization: ESI
Fragmentation mode: HCD
Collision energy: 30.0 NCE
Resolution: 30.000
Base peak: 339.2463
Precursor m/z: 339.2463
Precursor type: [M-H]-
m/z	relative intensity
59.01350080049955	757
71.01365720308743	441
130.0620621901292	208
153.1255117563101	198
197.11522263746994	999
277.2473895733173	72
321.23707463191107	216
