Mass spectrum: 5(6)-EET-[d11]; LC-ESI-QFT; MS2; CE: 40.0; R=30.000; [M-H]-
Name: 5(6)-EET-[d11]
Class: Natural Product; Lipid Standard
Formula: C20H32O3
Exact mass: 320.23514
SMILES: CCCCC\C=C/C\C=C/C\C=C/CC1OC1CCCC(O)=O
InChI: InChI=1S/C20H32O3/c1-2-3-4-5-6-7-8-9-10-11-12-13-15-18-19(23-18)16-14-17-20(21)22/h6-7,9-10,12-13,18-19H,2-5,8,11,14-17H2,1H3,(H,21,22)/b7-6-,10-9-,13-12-
Instrument: Q-Exactive HF, Thermo Scientific [MS:1002523]
Instrument type: LC-ESI-QFT
Ms type: MS2
Ion mode: NEGATIVE
Ionization: ESI
Fragmentation mode: HCD
Collision energy: 40.0 NCE
Resolution: 30.000
Base peak: 330.2971
Precursor m/z: 330.2971
Precursor type: [M-H]-
m/z	relative intensity	assigned
59.01352653503418	940	
83.05028533935547	999	
115.04020843505859	291	
174.21843719482422	399	
202.24982452392578	245	
214.24989547729493	88	
230.24464569091796	62	
268.2967041015625	46	
312.2865417480469	35	
330.2971221923828	44	precursor
