Mass spectrum: Resolvin D5; LC-ESI-QTOF; MS2; CE: 30.0; R=N/A; [M-H]-
Name: Resolvin D5
Class: Natural Product; Lipid Standard
Formula: C22H32O4
Exact mass: 360.23006
SMILES: C(C(O)=O)CC/C=C\[C@@H](/C=C/C=C\C\C=C/C=C/[C@H](C/C=C\CC)O)O
InChI: InChI=1S/C22H32O4/c1-2-3-10-15-20(23)16-11-7-5-4-6-8-12-17-21(24)18-13-9-14-19-22(25)26/h3,5-8,10-13,16-18,20-21,23-24H,2,4,9,14-15,19H2,1H3,(H,25,26)/b7-5-,8-6-,10-3-,16-11+,17-12+,18-13-/t20-,21+/m0/s1
Instrument: Q-Exactive HF, Thermo Scientific [MS:1002523]
Instrument type: LC-ESI-QTOF
Ms type: MS2
Ion mode: NEGATIVE
Ionization: ESI
Fragmentation mode: HCD
Collision energy: 30.0 eV
Resolution: N/A
Base peak: 359.2228
Precursor m/z: 359.2228
Precursor type: [M-H]-
m/z	relative intensity	assigned
59.01351547241211	151	
119.08670501708984	224	
141.05586318969728	308	
199.14936294555665	998	
227.1443298339844	116	
261.14989318847654	14	
279.21193237304686	205	
297.2226593017578	23	
341.21240234375	6	
359.2231201171875	8	precursor
