Mass spectrum: 8-HDoHE; LC-ESI-QTOF; MS2; CE: 20.0; R=N/A; [M-H]-
Name: 8-HDoHE
Class: Natural Product; Lipid Standard
Formula: C22H32O3
Exact mass: 344.23514
SMILES: CC\C=C/C\C=C/C\C=C/C\C=C/CC(O)\C=C\C=C/CCC(O)=O
InChI: InChI=1S/C22H32O3/c1-2-3-4-5-6-7-8-9-10-11-12-15-18-21(23)19-16-13-14-17-20-22(24)25/h3-4,6-7,9-10,12-16,19,21,23H,2,5,8,11,17-18,20H2,1H3,(H,24,25)/b4-3-,7-6-,10-9-,14-13-,15-12-,19-16+
Instrument: Q-Exactive HF, Thermo Scientific [MS:1002523]
Instrument type: LC-ESI-QTOF
Ms type: MS2
Ion mode: NEGATIVE
Ionization: ESI
Fragmentation mode: HCD
Collision energy: 20.0 eV
Resolution: N/A
Base peak: 343.2279
Precursor m/z: 343.2279
Precursor type: [M-H]-
m/z	relative intensity	assigned
69.03430245139383	45	
107.08663593639027	62	
109.06582294810902	999	
121.10223180597478	24	
135.11789495294744	416	
189.16475053267047	902	
243.17516951127485	59	
281.2272449840199	78	
299.2377569025213	89	
343.2274475097656	275	precursor
