Mass spectrum: PGB2-[d4]; LC-ESI-QFT; MS2; CE: 30.0; R=30.000; [M-H]-
Name: PGB2-[d4]
Class: Natural Product; Lipid Standard
Formula: C20H30O4
Exact mass: 334.21441
SMILES: CCCCC[C@H](O)\C=C\C1=C(C\C=C/CCCC(O)=O)C(=O)CC1
InChI: InChI=1S/C20H30O4/c1-2-3-6-9-17(21)14-12-16-13-15-19(22)18(16)10-7-4-5-8-11-20(23)24/h4,7,12,14,17,21H,2-3,5-6,8-11,13,15H2,1H3,(H,23,24)/b7-4-,14-12+/t17-/m0/s1
Instrument: Q-Exactive HF, Thermo Scientific [MS:1002523]
Instrument type: LC-ESI-QFT
Ms type: MS2
Ion mode: NEGATIVE
Ionization: ESI
Fragmentation mode: HCD
Collision energy: 30.0 NCE
Resolution: 30.000
Base peak: 337.2324
Precursor m/z: 337.2324
Precursor type: [M-H]-
m/z	relative intensity	assigned
57.0342212677002	30	
113.09732818603516	400	
167.1380928039551	120	
179.13807907104493	624	
211.1279609680176	244	
239.1591438293457	623	
275.23192138671874	123	
319.2216506958008	386	
337.2322738647461	998	precursor
