Mass spectrum: 9(10)-EpOME-[d4]; LC-ESI-QTOF; MS2; CE: 30.0; R=N/A; [M-H]-
Name: 9(10)-EpOME-[d4]
Class: Natural Product; Lipid Standard
Formula: C18H32O3
Exact mass: 296.23514
SMILES: CCCCC\C=C/CC1OC1CCCCCCCC(O)=O
InChI: InChI=1S/C18H32O3/c1-2-3-4-5-7-10-13-16-17(21-16)14-11-8-6-9-12-15-18(19)20/h7,10,16-17H,2-6,8-9,11-15H2,1H3,(H,19,20)/b10-7-
Instrument: Q-Exactive HF, Thermo Scientific [MS:1002523]
Instrument type: LC-ESI-QTOF
Ms type: MS2
Ion mode: NEGATIVE
Ionization: ESI
Fragmentation mode: HCD
Collision energy: 30.0 eV
Resolution: N/A
Base peak: 299.253
Precursor m/z: 299.253
Precursor type: [M-H]-
m/z	relative intensity	assigned
59.0134936246005	14	
172.1089949174361	764	
185.11518721147016	42	
198.15792014382103	4	
280.2358287464489	342	
281.2418379350142	999	
299.2523886940696	813	precursor
