Mass spectrum: 6-Acetoxy-piliformic-acid; LC-ESI-QTOF; MS2; [M+H]+; CE: 10eV
Name: 6-Acetoxy-piliformic-acid
Class: Natural Product; Terpenoids
Formula: C13H20O6
Exact mass: 272.12599
SMILES: CC(=O)OCCCCCC=C(C(O)=O)C(C)C(O)=O
InChI: InChI=1S/C13H20O6/c1-9(12(15)16)11(13(17)18)7-5-3-4-6-8-19-10(2)14/h7,9H,3-6,8H2,1-2H3,(H,15,16)(H,17,18)/b11-7+/t9-/m0/s1
Instrument: maXis, Bruker Daltonics
Instrument type: LC-ESI-QTOF
Ms type: MS2
Ion mode: POSITIVE
Collision energy: 10 eV
Ionization: ESI
Column name: Shimadzu Shim-Pack XR-ODS III; C18; 2.2um; 80A; 2.0x150mm
Precursor type: [M+H]+
m/z	relative intensity
121.100700	12
149.095800	56
167.106700	97
168.110100	10
177.090900	162
178.094600	20
195.101600	470
196.105100	54
209.117300	45
213.112100	90
214.115800	11
227.128000	107
228.131500	14
255.123000	999
256.126300	158
257.128800	22
