Mass spectrum: Quinidine; LC-ESI-QTOF; MS2; [M+H]+; CE: 40eV
Name: Quinidine
Class: Natural Product; Quinoline alkaloids
Formula: C20H24N2O2
Exact mass: 324.18378
SMILES: COc(c4)cc(c3c4)c(ccn3)[C@H](O)[C@@]([H])(C1)N(C2)C[C@H](C=C)[C@@H](C2)1
InChI: InChI=1S/C20H24N2O2/c1-3-13-12-22-9-7-14(13)10-19(22)20(23)16-6-8-21-18-5-4-15(24-2)11-17(16)18/h3-6,8,11,13-14,19-20,23H,1,7,9-10,12H2,2H3/t13-,14?,19+,20-/m0/s1
Instrument: maXis, Bruker Daltonics
Instrument type: LC-ESI-QTOF
Ms type: MS2
Ion mode: POSITIVE
Collision energy: 40 eV
Ionization: ESI
Column name: Shimadzu Shim-Pack XR-ODS III; C18; 2.2um; 80A; 2.0x150mm
Precursor type: [M+H]+
m/z	relative intensity
81.067000	35
96.080500	20
105.070300	20
106.065800	20
107.076200	20
108.081300	66
110.096300	53
117.058700	22
120.080900	37
122.096700	66
124.112400	44
134.096900	144
135.103200	31
136.112600	92
138.128200	35
143.073200	33
145.053100	42
154.065400	33
155.073300	63
156.078500	20
158.060300	98
159.067900	54
160.076000	877
161.079200	74
162.091400	49
166.122900	128
167.072900	59
168.079500	26
169.052400	55
170.060200	52
171.067700	47
172.075900	999
173.082400	322
174.090700	188
175.094500	25
180.080800	33
181.088800	22
182.060600	50
183.067900	86
184.075500	581
185.080400	102
186.091300	526
187.095400	78
188.070500	58
189.078300	155
190.082600	27
193.088500	22
195.068100	26
196.075300	109
197.082700	88
198.091200	366
199.088500	114
200.070800	75
201.076800	21
202.086200	122
203.090000	19
204.080900	20
206.095400	19
208.076200	17
209.083500	29
210.091100	170
211.087400	93
212.106000	77
213.102300	59
214.085900	93
215.092300	28
216.100700	19
218.096000	17
220.076900	19
221.083600	25
222.091100	42
223.098700	43
224.106500	130
225.102700	78
226.122100	126
227.118100	128
228.121800	22
232.112000	17
233.118200	18
234.090500	34
235.096300	22
236.106500	68
237.102600	59
238.121800	57
239.117500	40
240.134800	19
248.106100	35
249.110900	28
250.122000	66
251.117900	261
252.124900	156
253.133100	322
254.137500	64
262.123000	34
263.119800	28
264.137800	141
265.135000	109
266.140800	43
268.169200	15
275.155400	16
276.138000	21
277.133900	32
278.152500	78
279.149500	130
280.153500	26
282.149100	41
291.150400	17
292.156600	17
296.164600	29
297.196400	30
305.165200	15
307.180800	588
308.183800	122
309.188800	18
325.191400	542
326.194600	112
327.199400	18
