Mass spectrum: Hypnophilin; LC-ESI-QTOF; MS2; [M+H]+; CE: 20eV
Name: Hypnophilin
Class: Natural Product; Terpenoids
Formula: C15H20O3
Exact mass: 248.141244
SMILES: C=C2C(=O)[C@H]4O[C@]43C[C@H]1CC(C)(C)[C@H](O)[C@H]1[C@]23C
InChI: InChI=1S/C15H20O3/c1-7-10(16)12-15(18-12)6-8-5-13(2,3)11(17)9(8)14(7,15)4/h8-9,11-12,17H,1,5-6H2,2-4H3/t8-,9+,11-,12-,14+,15-/m1/s1
Instrument: maXis, Bruker Daltonics
Instrument type: LC-ESI-QTOF
Ms type: MS2
Ion mode: POSITIVE
Collision energy: 20 eV
Ionization: ESI
Column name: Shimadzu Shim-Pack XR-ODS III; C18; 2.2um; 80A; 2.0x150mm
Precursor type: [M+H]+
m/z	relative intensity
107.086100	113
109.101500	118
111.044000	137
119.085300	326
121.101400	215
131.085700	402
133.101200	141
135.080500	86
137.059600	195
143.086200	116
145.101500	103
147.080500	484
148.084300	66
149.095600	319
157.100300	67
159.080000	433
160.084200	75
161.095900	114
163.075000	244
165.090800	161
173.096400	78
175.074300	103
175.148000	169
177.090600	555
178.094500	75
185.132100	207
189.127700	66
191.107000	104
203.142800	209
213.127200	178
221.151900	64
231.137400	343
249.148000	999
250.152300	213
