Mass spectrum: Isosilybin B; LC-ESI-QTOF; MS2; [M-H]-; CE: 50eV
Name: Isosilybin B
Class: Natural Product; Flavonoids
Formula: C25H22O10
Exact mass: 482.12130
SMILES: COc(c(O)5)cc(cc5)C(O1)C(CO)Oc(c2)c(ccc2[C@@H](O3)[C@@H](O)C(=O)c(c(O)4)c(cc(O)c4)3)1
InChI: InChI=1S/C25H22O10/c1-32-17-6-11(2-4-14(17)28)24-20(10-26)33-18-7-12(3-5-16(18)34-24)25-23(31)22(30)21-15(29)8-13(27)9-19(21)35-25/h2-9,20,23-29,31H,10H2,1H3/t20?,23-,24?,25+/m0/s1
Instrument: maXis, Bruker Daltonics
Instrument type: LC-ESI-QTOF
Ms type: MS2
Ion mode: NEGATIVE
Collision energy: 50 eV
Ionization: ESI
Column name: Shimadzu Shim-Pack XR-ODS III; C18; 2.2um; 80A; 2.0x150mm
Precursor type: [M-H]-
m/z	relative intensity
121.029400	80
122.036500	18
123.044800	13
124.016700	135
125.024600	859
126.028000	59
134.037700	29
135.045400	23
136.017300	17
137.024900	33
139.040800	27
143.050900	21
145.030300	57
146.038000	121
147.009700	49
147.045700	76
148.016800	17
148.052100	11
149.025200	123
149.061500	26
150.032300	28
151.004700	462
151.040900	17
152.012400	999
153.018700	151
154.021100	11
157.066800	14
158.038300	12
159.046200	82
160.051900	13
161.025700	29
161.061700	69
162.033300	27
163.004600	28
163.041000	68
164.012300	22
164.048900	87
165.020200	30
165.054700	12
167.051600	11
169.015500	18
171.046300	49
172.053100	18
173.025500	21
173.061800	27
174.033600	19
175.041200	41
176.013100	11
177.020500	17
177.057000	18
179.000000	175
179.072600	64
180.007100	87
181.013300	13
183.046300	32
184.053500	11
185.062000	41
186.033500	14
186.068500	12
187.041500	152
188.048300	58
189.020800	18
189.056800	72
190.028200	12
190.061600	11
191.036300	80
192.042900	21
193.051500	27
195.046700	10
198.033300	11
199.041200	24
200.048600	12
201.057100	92
202.063400	22
203.036300	20
203.071700	10
205.051800	39
211.041300	60
212.048200	25
213.056900	43
214.028500	21
214.064100	20
215.036400	100
216.043500	71
217.015900	11
217.051500	45
227.036400	78
228.043100	28
229.051900	144
230.023000	11
230.058500	53
231.031000	18
231.067300	46
233.046500	10
239.036500	25
240.043400	15
241.051500	16
243.031200	20
244.038200	12
245.047000	66
253.051700	11
255.031100	115
256.037600	62
257.046300	56
258.053800	52
259.061200	20
267.030400	11
271.025900	18
272.033100	12
273.041600	333
274.046300	70
275.053900	13
283.025800	46
284.033200	93
285.039100	29
299.056600	11
301.036200	102
302.039400	18
