Mass spectrum: Lycorine-monoacetate; LC-ESI-QTOF; MS2; [M+H]+; CE: 50eV
Name: Lycorine-monoacetate
Class: Non Natural Product; Isoquinoline alkaloids
Formula: C18H19NO5
Exact mass: 329.12632
SMILES: CC(=O)OC(C(O)5)C([H])(c21)C([H])(C4=C5)N(CC4)Cc(cc(O3)c(OC3)c2)1
InChI: InChI=1S/C18H19NO5/c1-9(20)24-18-13(21)4-10-2-3-19-7-11-5-14-15(23-8-22-14)6-12(11)16(18)17(10)19/h4-6,13,16-18,21H,2-3,7-8H2,1H3/t13-,16-,17+,18+/m0/s1
Instrument: maXis, Bruker Daltonics
Instrument type: LC-ESI-QTOF
Ms type: MS2
Ion mode: POSITIVE
Collision energy: 50 eV
Ionization: ESI
Column name: Shimadzu Shim-Pack XR-ODS III; C18; 2.2um; 80A; 2.0x150mm
Precursor type: [M+H]+
m/z	relative intensity
98.060100	39
110.059800	96
111.067300	140
115.053900	55
119.048800	407
131.049000	129
134.059900	574
135.044100	121
136.050900	43
141.069700	85
143.049200	65
147.044100	999
148.047600	112
149.059800	129
152.062200	56
153.069500	47
155.085600	77
159.044100	418
160.049400	52
161.059400	77
165.069900	88
167.085700	121
169.064900	64
173.059900	85
175.039300	191
177.055000	141
183.080200	71
184.112300	55
185.059900	56
193.088500	85
194.096600	292
195.080500	63
197.083300	70
199.075700	66
212.107300	135
222.091800	199
223.096900	45
225.078500	116
226.086300	118
227.093100	50
238.086200	57
240.102400	77
250.086400	104
252.102400	46
270.112800	102
