Mass spectrum: Cinchonidine; LC-ESI-QTOF; MS2; [M+H]+; CE: 30eV
Name: Cinchonidine
Class: Natural Product; Quinoline alkaloids
Formula: C19H22N2O
Exact mass: 294.17321
SMILES: C=C[C@@H](C3)C(C4)C[C@]([H])(N(C4)3)[C@H](O)c(c1)c(c2)c(ccc2)nc1
InChI: InChI=1S/C19H22N2O/c1-2-13-12-21-10-8-14(13)11-18(21)19(22)16-7-9-20-17-6-4-3-5-15(16)17/h2-7,9,13-14,18-19,22H,1,8,10-12H2/t13-,14?,18-,19+/m0/s1
Instrument: maXis, Bruker Daltonics
Instrument type: LC-ESI-QTOF
Ms type: MS2
Ion mode: POSITIVE
Collision energy: 30 eV
Ionization: ESI
Column name: Shimadzu Shim-Pack XR-ODS III; C18; 2.2um; 80A; 2.0x150mm
Precursor type: [M+H]+
m/z	relative intensity
130.065500	46
134.096800	20
136.112500	15
142.065400	30
143.072800	12
144.081000	19
154.065500	22
156.081100	41
166.122700	11
168.080800	50
169.077500	14
172.075600	15
180.080800	18
184.075800	12
194.096100	12
196.111700	17
197.107500	21
222.115400	12
223.122700	22
234.127500	26
235.123700	19
236.130700	15
248.142800	16
252.138000	13
277.170000	265
278.173300	48
295.180700	999
296.183800	173
297.187400	21
