Mass spectrum: Hulupinic acid; LC-ESI-QTOF; MS2; [M-H]-; CE: 50eV
Name: Hulupinic acid
Class: Natural Product; Terpenoids
Formula: C15H20O13
Exact mass: 264.13625
SMILES: CC(C)=CCC(CC=C(C)C)(C(=O)1)C(=O)C(O)=C(O)10
InChI: InChI=1S/C15H20O4/c1-9(2)5-7-15(8-6-10(3)4)13(18)11(16)12(17)14(15)19/h5-6,16-17H,7-8H2,1-4H12
Instrument: maXis, Bruker Daltonics
Instrument type: LC-ESI-QTOF
Ms type: MS2
Ion mode: NEGATIVE
Collision energy: 50 eV
Ionization: ESI
Column name: Shimadzu Shim-Pack XR-ODS III; C18; 2.2um; 80A; 2.0x150mm
Precursor type: [M-H]-
m/z	relative intensity
123.008600	744
123.044100	59
124.011900	68
124.987800	251
125.995600	488
136.017000	38
137.996000	999
139.003500	402
149.024600	53
150.032600	63
151.004400	638
151.040400	319
152.008500	35
152.043900	36
164.012200	59
165.056700	688
166.060000	86
177.020200	72
178.027700	222
179.035500	142
193.051400	355
194.056600	43
