Mass spectrum: Lycorine-monoacetate; LC-ESI-QTOF; MS2; [M+H]+; CE: 10eV
Name: Lycorine-monoacetate
Class: Non Natural Product; Isoquinoline alkaloids
Formula: C18H19NO5
Exact mass: 329.12632
SMILES: CC(=O)OC(C(O)5)C([H])(c21)C([H])(C4=C5)N(CC4)Cc(cc(O3)c(OC3)c2)1
InChI: InChI=1S/C18H19NO5/c1-9(20)24-18-13(21)4-10-2-3-19-7-11-5-14-15(23-8-22-14)6-12(11)16(18)17(10)19/h4-6,13,16-18,21H,2-3,7-8H2,1H3/t13-,16-,17+,18+/m0/s1
Instrument: maXis (Bruker Daltonics)
Instrument type: LC-ESI-QTOF
Ms type: MS2
Ion mode: POSITIVE
Collision energy: 10 eV
Ionization: ESI
Column name: Shimadzu Shim-Pack XR-ODS III; C18; 2.2um; 80A; 2.0x150mm
Precursor type: [M+H]+
m/z	relative intensity
330.134000	999
331.137200	187
332.139500	28
