Mass spectrum: Physcion; LC-ESI-QTOF; MS2; [M+H]+; CE: 40eV
Name: Physcion
Class: Natural Product; Polyketides
Formula: C16H12O5
Exact mass: 284.06847
SMILES: COc(c3)cc(c(=O)1)c(c(O)3)c(=O)c(c(O)2)c(cc(C)c2)1
InChI: InChI=1S/C16H12O5/c1-7-3-9-13(11(17)4-7)16(20)14-10(15(9)19)5-8(21-2)6-12(14)18/h3-6,17-18H,1-2H3
Instrument: maXis, Bruker Daltonics
Instrument type: LC-ESI-QTOF
Ms type: MS2
Ion mode: POSITIVE
Collision energy: 40 eV
Ionization: ESI
Column name: Shimadzu Shim-Pack XR-ODS III; C18; 2.2um; 80A; 2.0x150mm
Precursor type: [M+H]+
m/z	relative intensity
135.041000	54
139.051600	141
140.059600	231
141.064800	51
151.037800	94
152.061100	104
153.067500	159
154.074100	49
155.084400	105
165.068800	76
168.056300	752
169.061600	172
183.080100	182
184.082700	54
195.044100	49
196.052300	569
197.058700	173
211.075900	857
212.078900	124
213.053900	74
214.062500	144
224.047200	310
225.054100	116
239.070900	454
240.074400	56
242.058200	999
243.061700	138
252.042600	335
253.049300	118
267.066100	50
285.075800	723
286.079600	98
