Mass spectrum: Mycophenolic-acid; LC-ESI-QTOF; MS2; [M+H]+; CE: 50eV
Name: Mycophenolic-acid
Class: Natural Product; Phenolic acid
Formula: C17H20O6
Exact mass: 320.12599
SMILES: OC(=O)CCC(C)=CCc(c(OC)1)c(O)c(C(=O)2)c(CO2)c(C)1
InChI: InChI=1S/C17H20O6/c1-9(5-7-13(18)19)4-6-11-15(20)14-12(8-23-17(14)21)10(2)16(11)22-3/h4,20H,5-8H2,1-3H3,(H,18,19)/b9-4+
Instrument: maXis, Bruker Daltonics
Instrument type: LC-ESI-QTOF
Ms type: MS2
Ion mode: POSITIVE
Collision energy: 50 eV
Ionization: ESI
Column name: Shimadzu Shim-Pack XR-ODS III; C18; 2.2um; 80A; 2.0x150mm
Precursor type: [M+H]+
m/z	relative intensity
91.056200	22
103.055200	76
117.033900	13
121.065200	13
131.049400	93
135.080500	20
145.064900	13
149.059900	31
159.044100	999
160.047400	120
175.075100	15
177.054500	653
178.057900	66
179.069900	58
195.064900	18
207.065100	189
208.068200	25
