Mass spectrum: 10-Acetyl-trichoderonic-acid; LC-ESI-QTOF; MS2; [M+H]+; CE: 40eV
Name: 10-Acetyl-trichoderonic-acid
Class: Natural Product; Terpenoids
Formula: C17H24O7
Exact mass: 340.15220
SMILES: CC(=O)OC(CO)(C1)C(C(=O)2)C(C=C(C(O)=O)CO2)C(C(C)C)C1
InChI: InChI=1S/C17H24O7/c1-9(2)12-4-5-17(8-18,24-10(3)19)14-13(12)6-11(15(20)21)7-23-16(14)22/h6,9,12-14,18H,4-5,7-8H2,1-3H3,(H,20,21)/t12-,13+,14-,17-/m0/s1
Instrument: maXis, Bruker Daltonics
Instrument type: LC-ESI-QTOF
Ms type: MS2
Ion mode: POSITIVE
Collision energy: 40 eV
Ionization: ESI
Column name: Shimadzu Shim-Pack XR-ODS III; C18; 2.2um; 80A; 2.0x150mm
Precursor type: [M+H]+
m/z	relative intensity
119.085200	105
129.069900	128
131.085200	343
143.085100	163
145.101100	147
147.080500	172
156.093500	134
157.064800	153
159.080400	190
161.059700	92
171.117000	331
175.075400	999
176.078800	127
189.127800	182
199.112000	188
203.070400	494
204.073700	77
217.122500	199
