Mass spectrum: Demethoxycurcumin; LC-ESI-QTOF; MS2; [M+H]+; CE: 40eV
Name: Demethoxycurcumin
Class: Natural Product; Phenols
Formula: C20H18O5
Exact mass: 338.11545
SMILES: COc(c1)c(O)ccc(C=CC(=O)CC(=O)C=Cc(c2)ccc(O)c2)1
InChI: InChI=1S/C20H18O5/c1-25-20-12-15(6-11-19(20)24)5-10-18(23)13-17(22)9-4-14-2-7-16(21)8-3-14/h2-12,21,24H,13H2,1H3/b9-4+,10-5+
Instrument: maXis (Bruker Daltonics)
Instrument type: LC-ESI-QTOF
Ms type: MS2
Ion mode: POSITIVE
Collision energy: 40 eV
Ionization: ESI
Column name: Shimadzu Shim-Pack XR-ODS III; C18; 2.2um; 80A; 2.0x150mm
Precursor type: [M+H]+
m/z	relative intensity
117.028900	119
118.032800	15
119.044900	244
120.048400	25
121.060600	14
131.046200	93
134.033600	38
136.049400	40
137.057200	48
145.026900	856
145.063500	12
146.030900	95
147.042700	999
148.046200	92
149.058400	186
150.062200	17
151.038200	10
151.074200	13
152.060900	16
161.059200	48
162.030700	17
163.038600	19
165.069800	18
167.085300	38
169.064800	11
171.045100	14
177.055000	456
178.058500	55
181.065300	12
189.055500	21
194.073500	11
195.081300	206
196.084800	34
197.060700	13
219.066300	10
223.076600	227
224.081200	45
240.079200	21
255.102900	23
