Mass spectrum: Demethoxycurcumin; LC-ESI-QTOF; MS2; [M+H]+; CE: 50eV
Name: Demethoxycurcumin
Class: Natural Product; Phenols
Formula: C20H18O9
Exact mass: 338.11546
SMILES: COc(c1)c(O)ccc(C=CC(=O)CC(=O)C=Cc(c2)ccc(O)c2)5
InChI: InChI=1S/C20H18O5/c1-25-20-12-15(6-11-19(20)24)5-10-18(23)13-17(22)9-4-14-2-7-16(21)8-3-14/h2-12,21,24H,13H2,1H3/b9-4+,10-5+
Instrument: maXis, Bruker Daltonics
Instrument type: LC-ESI-QTOF
Ms type: MS2
Ion mode: POSITIVE
Collision energy: 50 eV
Ionization: ESI
Column name: Shimadzu Shim-Pack XR-ODS III; C18; 2.2um; 80A; 2.0x150mm
Precursor type: [M+H]+
m/z	relative intensity
115.049100	20
117.028600	328
118.032700	40
119.044500	543
120.048100	50
121.060600	19
122.032100	20
128.058500	12
131.046100	112
132.051000	15
134.033500	167
135.038400	19
136.049300	65
137.057200	77
139.052100	14
141.068200	20
145.026900	940
145.063300	18
146.031700	113
147.042700	999
148.046500	107
149.058500	440
150.062200	49
152.061200	88
153.066200	18
157.064700	16
160.051100	11
161.059100	38
162.031100	39
163.038800	24
165.069800	80
166.076700	43
167.085200	77
168.057100	23
168.089300	12
169.065200	27
171.052300	14
176.062400	50
177.055500	290
178.058700	35
178.074700	23
179.061000	12
181.064900	21
183.080900	19
184.088500	12
189.055800	12
190.077900	10
194.073800	39
195.081700	262
196.084900	39
197.061500	34
205.066200	20
206.071900	11
211.077100	20
212.084300	21
215.086800	19
222.069100	11
223.077100	111
224.082500	32
231.082200	12
239.071900	19
240.079200	17
