Mass spectrum: Curcumin; LC-ESI-QTOF; MS2; [M-H]-; CE: 30eV
Name: Curcumin
Class: Natural Product; Phenols
Formula: C21H20O6
Exact mass: 368.12599
SMILES: COc(c1)c(O)ccc(C=CC(O)=CC(=O)C=Cc(c2)cc(OC)c(O)c2)1
InChI: InChI=1S/C21H20O6/c1-26-20-11-14(5-9-18(20)24)3-7-16(22)13-17(23)8-4-15-6-10-19(25)21(12-15)27-2/h3-13,22,24-25H,1-2H3/b7-3+,8-4+,16-13-
Instrument: maXis, Bruker Daltonics
Instrument type: LC-ESI-QTOF
Ms type: MS2
Ion mode: NEGATIVE
Collision energy: 30 eV
Ionization: ESI
Column name: Shimadzu Shim-Pack XR-ODS III; C18; 2.2um; 80A; 2.0x150mm
Precursor type: [M-H]-
m/z	relative intensity
132.021700	25
134.037400	999
135.041000	92
149.061100	776
150.064500	82
158.037700	355
159.041300	39
160.017000	209
161.023300	36
173.061300	432
174.064700	53
175.040500	416
176.045400	57
191.071900	45
193.051000	31
201.019800	38
202.027500	122
203.031400	17
217.051100	128
218.054600	19
256.074500	11
