Mass spectrum: Silybin B; LC-ESI-QTOF; MS2; [M-H]-; CE: 30eV
Name: Silybin B
Class: Natural Product; Flavonoids
Formula: C25H22O10
Exact mass: 482.12130
SMILES: COc(c(O)5)cc(cc5)C(O1)C(CO)Oc(c4)c(cc(c4)C(O2)C(O)C(=O)c(c(O)3)c(cc(O)c3)2)1
InChI: InChI=1S/C25H22O10/c1-32-17-6-11(2-4-14(17)28)24-20(10-26)33-16-5-3-12(7-18(16)34-24)25-23(31)22(30)21-15(29)8-13(27)9-19(21)35-25/h2-9,20,23-29,31H,10H2,1H3
Instrument: maXis, Bruker Daltonics
Instrument type: LC-ESI-QTOF
Ms type: MS2
Ion mode: NEGATIVE
Collision energy: 30 eV
Ionization: ESI
Column name: Shimadzu Shim-Pack XR-ODS III; C18; 2.2um; 80A; 2.0x150mm
Precursor type: [M-H]-
m/z	relative intensity
124.016600	11
125.024600	705
126.027900	49
146.037900	13
147.009400	14
147.045400	19
149.025200	24
151.004500	106
152.012300	291
153.018900	42
161.061700	13
164.048700	11
165.020300	26
171.046400	15
175.004600	10
177.020000	17
178.999700	259
179.072400	85
180.007300	366
180.075500	11
181.013200	49
187.041400	25
189.056500	16
191.035900	23
201.056400	12
213.056700	48
214.062800	13
215.036100	91
216.042500	31
217.050800	15
229.051800	89
230.057100	21
231.066900	14
239.035800	11
255.030600	27
256.037800	10
257.046300	246
258.052900	113
259.060600	45
271.025800	14
273.041100	162
273.077100	15
274.047600	68
275.054600	17
283.025400	141
284.032500	120
285.040000	74
286.044600	12
287.056000	11
289.072400	16
299.056200	13
301.035800	999
302.039900	197
303.045100	30
355.081900	29
377.102300	21
395.112300	11
407.112600	31
419.112700	17
423.107300	109
424.110600	27
433.091400	32
434.095100	10
435.107000	133
436.110400	35
437.122000	42
438.126200	13
445.091500	37
451.102000	155
452.105200	46
453.117700	449
454.121000	123
455.123100	21
463.102000	265
464.105300	80
465.107300	16
481.112600	578
482.115800	183
483.118000	33
