Mass spectrum: Cinchonidine; LC-ESI-QTOF; MS2; [M+H]+; CE: 50eV
Name: Cinchonidine
Class: Natural Product; Quinoline alkaloids
Formula: C19H22N2O
Exact mass: 294.17321
SMILES: C=C[C@@H](C3)C(C4)C[C@]([H])(N(C4)3)[C@H](O)c(c1)c(c2)c(ccc2)nc1
InChI: InChI=1S/C19H22N2O/c1-2-13-12-21-10-8-14(13)11-18(21)19(22)16-7-9-20-17-6-4-3-5-15(16)17/h2-7,9,13-14,18-19,22H,1,8,10-12H2/t13-,14?,18-,19+/m0/s1
Instrument: maXis, Bruker Daltonics
Instrument type: LC-ESI-QTOF
Ms type: MS2
Ion mode: POSITIVE
Collision energy: 50 eV
Ionization: ESI
Column name: Shimadzu Shim-Pack XR-ODS III; C18; 2.2um; 80A; 2.0x150mm
Precursor type: [M+H]+
m/z	relative intensity
81.068100	45
91.053900	40
93.069800	30
94.064400	37
95.075800	44
105.069800	36
106.065800	43
108.080900	181
110.097100	51
115.054500	123
116.050900	32
120.081100	61
122.097300	78
124.112400	29
128.049900	493
129.055900	108
130.065400	910
131.068900	93
132.081500	59
134.097000	126
136.112200	81
140.050400	26
142.065500	999
143.072500	465
144.080100	192
146.060600	28
154.065500	684
155.071200	153
156.081000	818
157.085000	107
158.060300	128
159.067800	153
165.070300	23
166.065400	240
167.072800	735
168.080300	804
169.077700	184
170.059800	78
170.095700	59
171.066600	26
172.075800	207
173.079700	23
179.072900	29
180.080600	439
181.076800	205
182.083400	106
183.068100	102
184.075600	398
185.079400	46
191.073000	56
192.080400	110
193.087800	120
194.095600	192
195.092000	76
196.111200	93
197.107900	44
204.080400	145
205.086900	70
206.095300	140
207.092700	78
208.111000	63
209.107400	48
210.091000	26
217.087700	42
218.095800	120
219.092800	76
220.111000	83
221.107200	192
222.113500	72
223.122400	47
230.096100	24
232.111000	53
233.109300	42
234.126900	74
235.122700	155
236.127200	34
247.123100	41
248.141800	25
277.170100	73
278.174100	17
295.180600	66
