Mass spectrum: Cytochalasin; LC-ESI-QTOF; MS2; [M+H]+; CE: 40eV
Name: Cytochalasin
Class: Natural Product; Alkaloids
Formula: C30H37NO6
Exact mass: 507.26209
SMILES: C(N3)(=O)C(C1OC(C)=O)(C(C3Cc(c4)cccc4)2)C(C(O)C(C2C)=C)C=CCC(C)C(=O)C(C=C1)(C)O
InChI: InChI=1S/C30H37NO6/c1-17-10-9-13-22-26(33)19(3)18(2)25-23(16-21-11-7-6-8-12-21)31-28(35)30(22,25)24(37-20(4)32)14-15-29(5,36)27(17)34/h6-9,11-15,17-18,22-26,33,36H,3,10,16H2,1-2,4-5H3,(H,31,35)/b13-9+,15-14-/t17?,18-,22-,23?,24+,25?,26-,29+,30?/m0/s1
Instrument: maXis, Bruker Daltonics
Instrument type: LC-ESI-QTOF
Ms type: MS2
Ion mode: POSITIVE
Collision energy: 40 eV
Ionization: ESI
Column name: Shimadzu Shim-Pack XR-ODS III; C18; 2.2um; 80A; 2.0x150mm
Precursor type: [M+H]+
m/z	relative intensity
91.054100	34
105.069500	63
107.084900	28
109.063800	26
117.069200	72
118.072900	12
119.085000	95
120.080000	999
121.083500	93
123.079900	22
128.048500	27
129.069000	31
131.085000	145
132.080100	119
133.100600	80
134.095900	26
135.080000	90
141.069000	35
143.085000	143
144.088700	15
145.100600	171
146.059600	352
147.079600	89
148.077100	15
149.095500	270
150.099000	22
155.085200	87
156.091100	16
157.100500	225
158.104700	29
159.079900	102
160.112400	23
161.095500	140
163.111400	61
167.085000	49
169.100600	213
170.104400	27
171.116200	116
172.075400	89
173.095500	93
174.092700	22
175.111100	40
178.085500	26
179.085100	40
180.092200	23
181.100600	150
182.105900	32
183.116300	150
184.119500	22
185.095400	112
186.092800	45
187.111200	53
189.090300	43
192.094200	25
193.100600	82
194.107600	41
195.116400	269
196.121100	52
197.132000	117
198.092000	70
199.111300	113
200.107500	68
201.126300	24
202.086300	29
203.178600	22
205.100900	33
206.107900	42
207.116400	160
208.123500	134
209.132000	442
210.135900	72
211.147400	104
212.107500	63
213.126400	67
214.123300	34
217.101800	21
218.108600	35
219.115600	57
220.122700	49
221.131900	190
222.138500	124
223.147400	233
224.111800	45
225.126700	121
226.125400	42
227.142600	167
228.138700	129
231.115500	21
232.124200	61
233.131700	81
234.138300	42
235.147700	205
236.118500	143
237.163300	744
238.122500	572
239.142100	97
240.139400	47
241.157500	56
245.131700	45
247.147700	379
248.152900	119
249.162700	109
250.132600	116
251.141900	145
252.140800	58
253.157300	76
254.154500	53
255.173900	212
256.132600	785
257.135500	133
258.139100	26
259.147300	36
260.153700	29
261.161900	22
263.142500	139
264.140500	83
265.158100	906
266.161500	230
267.172300	82
268.132800	172
269.138500	69
270.145700	23
271.147600	35
273.162300	24
275.143000	68
276.145700	36
277.157100	45
278.158100	59
279.161000	23
280.168700	44
281.152000	32
282.148500	69
283.168700	176
284.172000	43
285.162700	22
288.137900	44
290.153700	60
292.169100	51
293.176600	109
294.150400	57
295.153000	22
296.160800	23
300.174700	32
302.153400	45
303.160800	41
304.169100	38
306.148000	51
308.163400	45
310.160900	30
311.165800	39
313.194100	23
314.152400	29
316.168300	22
318.184600	58
320.163700	68
321.170600	55
322.174200	27
327.163200	28
328.169000	214
329.174100	88
330.183100	42
332.163500	30
339.210400	22
341.225200	32
344.164300	23
346.179500	232
347.185200	92
348.192000	42
349.195100	20
350.247000	22
351.209500	29
356.199600	81
357.206600	22
360.231800	25
366.219500	27
367.204900	27
369.220000	44
370.216000	73
374.211200	132
375.213400	40
378.241800	70
384.231600	357
385.234600	97
386.237900	22
388.226500	154
389.229500	43
394.215800	57
395.217900	18
402.241900	693
403.245600	210
404.248600	40
412.226500	386
413.229600	123
414.233200	21
430.236800	690
431.240100	224
432.243000	33
