Mass spectrum: Cycloheximide; LC-ESI-QTOF; MS2; [M+H]+; CE: 40eV
Name: Cycloheximide
Class: Natural Product; Alkaloids
Formula: C15H23NO4
Exact mass: 281.16271
SMILES: O=C(N2)CC(CC(=O)2)C[C@@]([H])(O)[C@]([H])(C1)C(=O)[C@@H](C)C[C@H](C)1
InChI: InChI=1S/C15H23NO4/c1-8-3-9(2)15(20)11(4-8)12(17)5-10-6-13(18)16-14(19)7-10/h8-12,17H,3-7H2,1-2H3,(H,16,18,19)/t8-,9-,11-,12+/m0/s1
Instrument: maXis, Bruker Daltonics
Instrument type: LC-ESI-QTOF
Ms type: MS2
Ion mode: POSITIVE
Collision energy: 40 eV
Ionization: ESI
Column name: Shimadzu Shim-Pack XR-ODS III; C18; 2.2um; 80A; 2.0x150mm
Precursor type: [M+H]+
m/z	relative intensity
105.069300	99
107.084900	266
117.069600	231
119.085500	378
121.064700	322
123.080300	243
125.095800	207
129.069900	107
131.085500	414
133.101300	213
135.080500	129
138.055200	181
141.070000	81
142.077500	96
143.085900	313
144.092900	158
145.101100	378
147.080600	149
149.059700	112
155.085400	80
157.101500	316
158.108100	79
159.117000	999
160.120800	97
161.096400	159
163.111900	360
168.093600	137
169.101500	240
173.132800	302
177.127700	372
183.117000	222
185.095900	93
187.112000	417
201.127800	285
205.122200	94
229.123000	92
247.132900	46
