Mass spectrum: Scopoletin; LC-ESI-QTOF; MS2; [M+H]+; CE: 20eV
Name: Scopoletin
Class: Natural Product; Phenylpropanoids
Formula: C10H8O4
Exact mass: 192.04226
SMILES: COc(c1)c(O)cc(O2)c(C=CC(=O)2)1
InChI: InChI=1S/C10H8O4/c1-13-9-4-6-2-3-10(12)14-8(6)5-7(9)11/h2-5,11H,1H3
Instrument: maXis, Bruker Daltonics
Instrument type: LC-ESI-QTOF
Ms type: MS2
Ion mode: POSITIVE
Collision energy: 20 eV
Ionization: ESI
Column name: Shimadzu Shim-Pack XR-ODS III; C18; 2.2um; 80A; 2.0x150mm
Precursor type: [M+H]+
m/z	relative intensity
122.031200	25
133.025200	358
134.028900	34
137.056800	109
138.060200	11
149.058000	39
150.029600	47
161.022600	12
165.054100	61
178.026400	406
179.029700	43
193.050500	999
194.053800	117
195.055800	13
