Mass spectrum: Bufalin; LC-ESI-QTOF; MS2; [M+H]+; CE: 40eV
Name: Bufalin
Class: Natural Product; Steroids
Formula: C24H34O4
Exact mass: 386.24571
SMILES: C(C1([H])4)(C)(C5)C([H])(CC(O)C5)CCC(C(C(C)(CC4)2)(O)CCC2C(C=3)=COC(=O)C3)1[H]
InChI: InChI=1S/C24H34O4/c1-22-10-7-17(25)13-16(22)4-5-20-19(22)8-11-23(2)18(9-12-24(20,23)27)15-3-6-21(26)28-14-15/h3,6,14,16-20,25,27H,4-5,7-13H2,1-2H3/t16-,17+,18-,19+,20-,22+,23-,24+/m1/s1
Instrument: maXis, Bruker Daltonics
Instrument type: LC-ESI-QTOF
Ms type: MS2
Ion mode: POSITIVE
Collision energy: 40 eV
Ionization: ESI
Column name: Shimadzu Shim-Pack XR-ODS III; C18; 2.2um; 80A; 2.0x150mm
Precursor type: [M+H]+
m/z	relative intensity
95.085100	163
105.070200	164
107.085800	481
109.101700	285
117.070200	99
119.086000	350
121.101500	514
122.105900	92
123.044200	174
131.085700	274
133.101500	547
135.117200	551
137.060000	127
143.085200	165
145.101500	545
147.117100	971
148.121200	88
149.132700	412
155.086500	126
157.101400	260
159.116900	585
160.120700	97
161.132600	999
162.136900	137
163.147600	119
169.101100	107
171.117100	214
173.132200	393
175.075200	164
175.147900	210
177.090600	95
183.115700	140
185.131600	220
187.148100	295
189.090600	342
191.106900	109
195.116700	101
197.132600	182
199.148000	338
201.163700	176
203.106000	105
211.146200	95
213.164600	238
215.179400	165
225.128500	141
227.108300	98
229.123100	135
231.138400	89
241.122100	150
243.137500	251
255.210700	554
256.214800	118
257.153700	101
269.153100	110
333.220500	91
351.231900	351
352.235600	121
369.242800	695
370.246400	236
387.253400	307
388.255300	115
