Mass spectrum: Piliformic-acid; LC-ESI-QTOF; MS2; [M+H]+; CE: 30eV
Name: Piliformic-acid
Class: Natural Product; Terpenoids
Formula: C11H18O4
Exact mass: 214.12051
SMILES: CCCCCC=C(C(O)=O)C(C)C(O)=O
InChI: InChI=1S/C11H18O4/c1-3-4-5-6-7-9(11(14)15)8(2)10(12)13/h7-8H,3-6H2,1-2H3,(H,12,13)(H,14,15)/b9-7+/t8-/m0/s1
Instrument: maXis, Bruker Daltonics
Instrument type: LC-ESI-QTOF
Ms type: MS2
Ion mode: POSITIVE
Collision energy: 30 eV
Ionization: ESI
Column name: Shimadzu Shim-Pack XR-ODS III; C18; 2.2um; 80A; 2.0x150mm
Precursor type: [M+H]+
m/z	relative intensity
95.085300	67
99.044200	53
105.068800	70
107.085000	140
109.063800	169
123.116200	999
124.119800	114
133.100600	224
151.111500	598
152.115200	93
