Mass spectrum: Carbamazepine; LC-ESI-QTOF; MS2; [M+H]+; CE: 40eV
Name: Carbamazepine
Class: Non Natural Product; Drug
Formula: C15H12N2O
Exact mass: 236.09496
SMILES: NC(=O)N(c21)c(c3)c(ccc3)C=Cc(cccc2)1
InChI: InChI=1S/C15H12N2O/c16-15(18)17-13-7-3-1-5-11(13)9-10-12-6-2-4-8-14(12)17/h1-10H,(H2,16,18)
Instrument: maXis, Bruker Daltonics
Instrument type: LC-ESI-QTOF
Ms type: MS2
Ion mode: POSITIVE
Collision energy: 40 eV
Ionization: ESI
Column name: Shimadzu Shim-Pack XR-ODS III; C18; 2.2um; 80A; 2.0x150mm
Precursor type: [M+H]+
m/z	relative intensity
152.061600	84
153.063200	13
164.061600	13
165.069600	246
166.072600	50
167.073200	96
168.079000	20
169.064900	17
176.061700	21
177.059800	29
177.067700	31
178.065700	65
179.072800	449
180.076200	58
190.065100	71
191.072600	207
192.080400	554
193.088400	881
194.096000	999
195.099200	157
196.101900	12
