Mass spectrum: Cycloheximide; LC-ESI-QTOF; MS2; [M+H]+; CE: 50eV
Name: Cycloheximide
Class: Natural Product; Alkaloids
Formula: C15H23NO4
Exact mass: 281.16271
SMILES: O=C(N2)CC(CC(=O)2)C[C@@]([H])(O)[C@]([H])(C1)C(=O)[C@@H](C)C[C@H](C)1
InChI: InChI=1S/C15H23NO4/c1-8-3-9(2)15(20)11(4-8)12(17)5-10-6-13(18)16-14(19)7-10/h8-12,17H,3-7H2,1-2H3,(H,16,18,19)/t8-,9-,11-,12+/m0/s1
Instrument: maXis, Bruker Daltonics
Instrument type: LC-ESI-QTOF
Ms type: MS2
Ion mode: POSITIVE
Collision energy: 50 eV
Ionization: ESI
Column name: Shimadzu Shim-Pack XR-ODS III; C18; 2.2um; 80A; 2.0x150mm
Precursor type: [M+H]+
m/z	relative intensity
91.054500	192
93.069300	142
95.085900	128
105.069500	390
107.049000	411
109.064300	123
115.053900	132
117.069500	727
119.085300	952
120.089500	130
121.064900	587
123.080500	299
125.095200	185
128.061800	207
129.069500	400
130.076800	304
131.085500	999
132.088600	161
133.101200	392
135.080100	240
138.054600	151
141.069700	258
142.077400	557
143.085000	830
144.093200	588
145.100800	729
147.080300	263
153.069700	193
154.077400	236
155.085000	242
157.100900	343
158.108100	145
159.116600	769
161.095800	176
163.111800	679
168.093400	258
169.101100	295
171.080900	134
172.088600	186
173.132300	124
177.127900	329
183.116700	137
187.112100	219
