Mass spectrum: Mycophenolic-acid; LC-ESI-QTOF; MS2; [M+H]+; CE: 40eV
Name: Mycophenolic-acid
Class: Natural Product; Phenolic acid
Formula: C17H20O6
Exact mass: 320.12599
SMILES: OC(=O)CCC(C)=CCc(c(OC)1)c(O)c(C(=O)2)c(CO2)c(C)1
InChI: InChI=1S/C17H20O6/c1-9(5-7-13(18)19)4-6-11-15(20)14-12(8-23-17(14)21)10(2)16(11)22-3/h4,20H,5-8H2,1-3H3,(H,18,19)/b9-4+
Instrument: maXis, Bruker Daltonics
Instrument type: LC-ESI-QTOF
Ms type: MS2
Ion mode: POSITIVE
Collision energy: 40 eV
Ionization: ESI
Column name: Shimadzu Shim-Pack XR-ODS III; C18; 2.2um; 80A; 2.0x150mm
Precursor type: [M+H]+
m/z	relative intensity
103.054000	12
131.049000	28
135.080300	23
149.059600	21
159.044100	883
160.047400	108
175.075600	16
177.054800	841
178.058200	91
179.070200	57
195.065200	68
207.065500	999
208.068700	129
209.070500	17
215.106800	15
221.080900	11
