Mass spectrum: Silybin B; LC-ESI-QTOF; MS2; [M+H]+; CE: 10eV
Name: Silybin B
Class: Natural Product; Flavonoids
Formula: C25H22O10
Exact mass: 482.12130
SMILES: COc(c(O)5)cc(cc5)C(O1)C(CO)Oc(c4)c(cc(c4)C(O2)C(O)C(=O)c(c(O)3)c(cc(O)c3)2)1
InChI: InChI=1S/C25H22O10/c1-32-17-6-11(2-4-14(17)28)24-20(10-26)33-16-5-3-12(7-18(16)34-24)25-23(31)22(30)21-15(29)8-13(27)9-19(21)35-25/h2-9,20,23-29,31H,10H2,1H3
Instrument: maXis, Bruker Daltonics
Instrument type: LC-ESI-QTOF
Ms type: MS2
Ion mode: POSITIVE
Collision energy: 10 eV
Ionization: ESI
Column name: Shimadzu Shim-Pack XR-ODS III; C18; 2.2um; 80A; 2.0x150mm
Precursor type: [M+H]+
m/z	relative intensity
131.045700	16
153.017000	39
163.075000	202
164.078400	22
195.029800	31
301.107800	22
311.055500	16
329.065900	36
359.076500	11
435.106100	37
436.109600	10
437.121200	17
447.105900	19
453.116600	36
465.116600	217
466.119800	58
467.122000	11
483.127100	999
483.210800	13
484.130300	242
485.132400	47
