Mass spectrum: Azadirachtin; LC-ESI-QTOF; MS2; [M+H]+; CE: 40eV
Name: Azadirachtin
Class: Natural Product; Terpenoids
Formula: C35H44O16
Exact mass: 720.26294
SMILES: O([C@@](C)31)[C@]1([C@]([C@H](O)6)([C@@]([C@@](O)(C(OC)=O)8)([H])[C@](CO8)([C@@]5([H])7)[C@H](C[C@H]([C@@](CO[C@@]67[H])5C(=O)OC)OC(C)=O)OC(C(C)=CC)=O)C)[C@H](C4)O[C@@]([H])([C@@]2(O)[C@@H]34)OC=C2
InChI: InChI=1S/C35H44O16/c1-8-15(2)24(38)49-18-12-19(48-16(3)36)32(26(39)43-6)13-46-21-22(32)31(18)14-47-34(42,27(40)44-7)25(31)29(4,23(21)37)35-20-11-17(30(35,5)51-35)33(41)9-10-45-28(33)50-20/h8-10,17-23,25,28,37,41-42H,11-14H2,1-7H3/b15-8+/t17-,18+,19-,20+,21-,22-,23-,25+,28+,29-,30+,31+,32+,33+,34+,35+/m1/s1
Instrument: maXis, Bruker Daltonics
Instrument type: LC-ESI-QTOF
Ms type: MS2
Ion mode: POSITIVE
Collision energy: 40 eV
Ionization: ESI
Column name: Shimadzu Shim-Pack XR-ODS III; C18; 2.2um; 80A; 2.0x150mm
Precursor type: [M+H]+
m/z	relative intensity
123.043500	52
133.064700	85
135.044500	56
137.059800	131
139.040200	32
143.085400	63
145.065800	53
147.043900	38
149.059800	120
151.075400	60
153.054400	42
155.085700	33
157.101400	64
159.044900	49
159.080500	42
161.060300	421
162.064000	61
163.075700	104
165.055500	75
167.086200	33
169.064800	47
171.081100	56
173.060100	39
175.075500	40
177.055200	65
177.091100	34
179.071100	146
181.066600	33
182.072400	40
183.081100	291
184.085700	66
185.060900	42
185.096700	138
187.076100	46
189.054900	46
189.092300	42
191.071300	68
193.049500	38
195.080300	59
197.061200	39
197.097300	123
199.076400	150
200.081100	33
201.055300	42
201.091200	98
203.070700	95
205.086400	45
207.066200	34
209.060800	70
211.076300	242
211.112800	40
212.080600	40
213.055700	38
213.091400	165
214.096000	34
215.071900	59
215.107300	83
217.051100	60
217.086100	53
219.066300	87
221.083400	46
223.075900	90
225.055300	65
225.091700	79
227.071600	156
227.106600	51
228.075000	39
229.086600	126
230.089900	33
231.065700	109
231.103400	53
233.081600	49
235.061100	44
235.098400	34
237.055500	52
237.092200	71
239.071300	128
239.107200	46
241.086700	718
242.091400	145
243.065900	51
243.102400	160
245.081900	50
247.061400	52
249.076700	89
251.071200	61
251.105300	34
253.050800	38
253.087000	83
254.092500	33
255.066200	143
255.102500	110
257.082100	136
258.086800	38
259.062100	66
259.097600	174
261.076900	62
263.094000	50
265.086900	53
267.067500	64
267.102800	68
269.081900	999
269.116800	34
270.085400	173
271.062300	46
271.097100	183
272.101800	34
273.077400	84
273.115200	70
275.094200	49
277.071800	83
277.124500	46
279.069000	33
279.102200	55
281.082800	59
283.063100	39
283.097400	300
284.101400	65
285.076700	213
285.114600	50
286.081800	49
287.092500	289
287.143100	43
288.094900	50
289.073000	40
289.113700	55
291.088000	132
291.138000	35
293.080900	54
293.118500	40
295.097500	54
297.076600	118
297.114500	70
298.081900	38
299.092900	196
300.097500	49
301.074300	66
301.108300	337
302.111100	61
303.088100	95
303.138800	93
305.115100	52
305.154700	45
307.084200	37
307.134600	46
309.079300	38
309.112200	45
311.092700	124
312.096500	37
313.072100	59
313.111400	94
314.115400	33
315.087700	191
315.137700	109
316.093800	43
317.104700	138
318.109100	41
319.122100	94
321.113100	48
323.092300	58
325.110600	57
327.088900	101
329.103500	677
330.107900	139
331.128600	147
332.133400	42
333.102900	81
333.148300	101
335.096000	48
335.127100	70
337.097000	53
339.090000	56
341.107500	113
342.112600	37
343.086600	78
343.131000	100
345.099000	275
345.143400	42
346.104200	68
347.114400	222
348.117300	61
349.107000	50
349.142000	54
351.093700	47
351.108800	51
351.122600	51
353.104300	93
354.110000	38
355.090600	68
356.101800	33
357.112100	126
358.116900	44
359.123500	132
360.126900	33
361.098700	112
361.144300	171
362.111800	35
362.148500	48
363.121200	99
363.160500	33
365.105400	42
365.136100	51
367.099400	42
369.110500	71
370.117300	34
371.115800	109
372.103000	37
372.117000	38
373.108500	125
374.112800	42
375.120300	185
375.158400	63
376.125300	46
377.102300	54
377.137900	99
379.114800	67
379.154400	49
381.107300	40
381.134300	68
383.095400	56
383.119900	50
385.108400	108
386.113500	40
387.112200	203
388.116400	48
389.124500	405
390.128600	80
391.119100	146
391.149000	55
392.124500	44
393.133700	104
395.113200	40
395.148500	45
397.110700	48
397.128700	36
399.093300	41
399.121800	60
401.103500	136
401.135200	77
402.107500	38
402.141400	38
403.119700	181
403.151900	70
404.124200	38
405.123000	181
406.123900	51
407.116600	88
407.138100	75
409.129100	92
411.094200	39
411.141200	62
413.108500	56
415.083300	35
415.118900	91
416.120600	34
417.102200	96
417.133500	153
418.137400	51
419.114600	204
419.146300	129
420.117700	55
420.149300	34
421.129400	149
421.165700	84
422.134100	37
423.112800	45
423.145800	94
425.125400	48
425.160300	36
427.122300	58
429.099500	103
429.134200	113
430.138000	46
431.115100	148
432.114800	39
433.125000	146
434.132200	45
435.111000	92
435.144300	110
436.148000	35
437.124800	165
437.160400	79
438.127900	37
439.140100	99
439.175000	44
441.153800	57
443.119400	50
445.128900	171
446.133800	49
447.110200	197
447.144500	229
448.113100	59
448.148200	96
449.124600	170
449.158700	66
450.128000	44
451.139500	139
453.122300	61
453.155100	80
455.134100	42
455.169800	39
457.092500	51
457.135600	79
459.109200	34
459.145600	38
461.125700	125
462.129200	41
463.140300	241
464.143700	68
465.120800	195
465.155400	268
466.125200	50
466.160200	113
467.134900	133
467.168800	49
468.139300	44
469.150300	65
471.165300	34
475.104600	89
475.140400	150
476.143000	33
477.122200	64
477.154400	95
478.160100	32
479.136000	189
479.169800	72
480.138100	54
481.150800	157
481.184500	51
482.157400	58
483.129500	86
483.165800	123
484.134100	32
485.147000	80
489.123100	73
489.157400	95
490.157800	34
493.115400	140
493.150700	146
494.120400	38
494.154500	44
495.132400	95
495.166600	137
496.137200	34
496.169800	48
497.146400	141
497.179400	56
498.148100	39
499.157800	74
501.176400	113
503.154400	47
507.133900	167
507.166600	314
508.168200	79
509.143400	34
509.174700	36
511.127300	88
511.161800	153
513.140800	72
513.176000	38
515.158100	65
517.154300	34
523.159400	33
525.141600	332
525.177200	299
526.143500	82
526.181000	79
527.154600	43
529.172300	82
533.167600	37
535.129700	34
535.163500	45
537.178400	41
543.152100	208
543.189300	98
544.155500	53
544.185200	34
547.184400	41
549.178000	77
553.139100	43
553.173000	45
555.189700	40
561.162100	59
562.166600	32
567.187900	287
568.190700	84
569.184700	34
571.182700	84
585.198400	954
586.202400	292
587.204300	73
589.196100	62
603.174600	54
603.208300	59
644.273000	34
703.263100	81
724.226400	43
