Mass spectrum: Bacoside A3; LC-ESI-QTOF; MS2; [M+H]+; CE: 40eV
Name: Bacoside A3
Class: Natural Product; Terpenoids
Formula: C47H76O21
Exact mass: 928.50320
SMILES: CC(C)=CC(C9)OC(O2)(C1)C(C9(C)O)(C(C8)([H])C(C(C7)(C)C(C8)([H])C(C6)(C([H])(C7)C(C(C6)OC(C(OC(C(O)5)OC(C(O)5)CO)3)OC(CO)C(C3OC(C(O)4)OC(C(C(O)4)O)CO)O)(C)C)C)1C2)[H]
InChI: InChI=1S/C47H76O18/c1-21(2)14-22-15-45(7,57)38-23-8-9-28-43(5)12-11-29(42(3,4)27(43)10-13-44(28,6)46(23)19-47(38,65-22)58-20-46)62-41-37(64-39-34(55)31(52)25(17-49)60-39)36(32(53)26(18-50)61-41)63-40-35(56)33(54)30(51)24(16-48)59-40/h14,22-41,48-57H,8-13,15-20H2,1-7H3/t22-,23+,24+,25-,26+,27-,28+,29-,30+,31-,32+,33-,34+,35+,36-,37+,38-,39-,40-,41-,43-,44+,45-,46-,47-/m0/s4
Instrument: maXis, Bruker Daltonics
Instrument type: LC-ESI-QTOF
Ms type: MS2
Ion mode: POSITIVE
Collision energy: 40 eV
Ionization: ESI
Column name: Shimadzu Shim-Pack XR-ODS III; C18; 2.2um; 80A; 2.0x150mm
Precursor type: [M+H]+
m/z	relative intensity
121.097400	12
123.113300	94
124.116600	11
127.035700	38
133.047100	79
133.098900	13
135.114500	26
137.130200	23
145.048100	210
146.051400	14
147.115800	12
149.131300	23
159.116400	18
161.132100	17
163.059800	221
163.147600	26
164.063200	15
173.132600	12
175.148200	22
177.091200	11
177.163800	16
187.148800	31
189.164300	28
191.107400	15
191.180000	53
193.195600	12
201.164400	29
203.180300	46
205.196100	11
215.180200	10
217.071500	11
217.195900	17
219.139300	15
221.154700	14
223.061400	22
231.139400	22
233.154800	22
235.170700	11
241.071600	30
245.154700	31
247.170500	100
248.174400	17
259.082300	64
277.092700	19
289.092400	14
295.103100	64
299.201200	12
301.216500	18
313.216700	26
315.232300	81
316.235800	20
325.113400	85
326.116800	12
331.228000	10
341.248600	11
351.268200	15
355.263100	20
367.263000	11
369.278700	125
370.281900	32
371.292100	15
373.273500	73
374.276900	19
377.320000	32
378.323300	10
381.278200	25
387.288800	44
388.292300	13
391.283800	136
391.335300	15
392.287300	37
395.299400	10
395.330400	43
396.333800	11
399.288400	11
409.345500	44
410.348800	14
419.330100	38
420.333500	11
437.340700	681
438.343900	211
439.347100	31
455.351100	999
455.431800	12
456.354400	304
457.357200	51
485.325000	12
533.360700	14
551.371000	12
553.335700	17
617.404200	108
618.407700	43
619.410000	10
779.462200	42
780.465700	20
911.510500	11
