Mass spectrum: Physcion; LC-ESI-QTOF; MS2; [M+H]+; CE: 50eV
Name: Physcion
Class: Natural Product; Polyketides
Formula: C16H12O5
Exact mass: 284.06847
SMILES: COc(c3)cc(c(=O)1)c(c(O)3)c(=O)c(c(O)2)c(cc(C)c2)1
InChI: InChI=1S/C16H12O5/c1-7-3-9-13(11(17)4-7)16(20)14-10(15(9)19)5-8(21-2)6-12(14)18/h3-6,17-18H,1-2H3
Instrument: maXis, Bruker Daltonics
Instrument type: LC-ESI-QTOF
Ms type: MS2
Ion mode: POSITIVE
Collision energy: 50 eV
Ionization: ESI
Column name: Shimadzu Shim-Pack XR-ODS III; C18; 2.2um; 80A; 2.0x150mm
Precursor type: [M+H]+
m/z	relative intensity
139.051700	390
140.059000	550
152.060100	223
153.066800	156
167.048300	101
168.056700	999
169.062000	199
183.080300	130
195.044300	102
196.053200	580
197.059100	124
211.077400	241
214.062900	134
224.047400	228
239.072600	95
242.059100	330
