Mass spectrum: Betaine; LC-ESI-QTOF; MS2; [M+H]+; CE: 20eV
Name: Betaine
Class: Natural Product; Amino acid
Formula: [C5H12NO2]+
Exact mass: 118.086255
SMILES: C[N+](C)(C)CC(=O)O
InChI: InChI=1S/C5H11NO2/c1-6(2,3)4-5(7)8/h4H2,1-3H3/p+1
Instrument: maXis, Bruker Daltonics
Instrument type: LC-ESI-QTOF
Ms type: MS2
Ion mode: POSITIVE
Collision energy: 20 eV
Ionization: ESI
Column name: Shimadzu Shim-Pack XR-ODS III; C18; 2.2um; 80A; 2.0x150mm
Precursor type: [M]+
m/z	relative intensity
118.086200	999
119.089600	81
