Mass spectrum: Lycorine-monoacetate; LC-ESI-QTOF; MS2; [M+H]+; CE: 40eV
Name: Lycorine-monoacetate
Class: Non Natural Product; Isoquinoline alkaloids
Formula: C18H19NO5
Exact mass: 329.12632
SMILES: CC(=O)OC(C(O)5)C([H])(c21)C([H])(C4=C5)N(CC4)Cc(cc(O3)c(OC3)c2)1
InChI: InChI=1S/C18H19NO5/c1-9(20)24-18-13(21)4-10-2-3-19-7-11-5-14-15(23-8-22-14)6-12(11)16(18)17(10)19/h4-6,13,16-18,21H,2-3,7-8H2,1H3/t13-,16-,17+,18+/m0/s1
Instrument: maXis, Bruker Daltonics
Instrument type: LC-ESI-QTOF
Ms type: MS2
Ion mode: POSITIVE
Collision energy: 40 eV
Ionization: ESI
Column name: Shimadzu Shim-Pack XR-ODS III; C18; 2.2um; 80A; 2.0x150mm
Precursor type: [M+H]+
m/z	relative intensity
110.059500	186
111.067200	160
119.048700	137
131.048800	133
134.059700	999
135.043800	144
136.051000	47
143.048800	57
145.064400	52
147.043900	939
148.047200	87
149.059400	117
155.085400	60
159.043900	535
160.049100	61
161.059500	184
167.085400	90
169.064600	48
173.059500	139
175.039100	245
177.054600	635
178.058100	77
183.080200	92
184.112000	49
185.060000	60
187.039100	70
189.054800	51
194.096400	374
195.080500	92
199.075200	166
211.075100	84
212.107000	162
213.090800	83
222.091400	534
223.095500	88
225.079900	104
226.085900	93
227.093000	64
240.102000	184
241.086100	68
242.117400	150
250.086100	168
252.101700	248
253.107000	66
255.088900	57
268.096500	46
270.112600	638
271.115600	116
330.133100	148
