Mass spectrum: Hypnophilin; LC-ESI-QTOF; MS2; [M+H]+; CE: 10eV
Name: Hypnophilin
Class: Natural Product; Terpenoids
Formula: C15H20O3
Exact mass: 248.141244
SMILES: C=C2C(=O)[C@H]4O[C@]43C[C@H]1CC(C)(C)[C@H](O)[C@H]1[C@]23C
InChI: InChI=1S/C15H20O3/c1-7-10(16)12-15(18-12)6-8-5-13(2,3)11(17)9(8)14(7,15)4/h8-9,11-12,17H,1,5-6H2,2-4H3/t8-,9+,11-,12-,14+,15-/m1/s1
Instrument: maXis, Bruker Daltonics
Instrument type: LC-ESI-QTOF
Ms type: MS2
Ion mode: POSITIVE
Collision energy: 10 eV
Ionization: ESI
Column name: Shimadzu Shim-Pack XR-ODS III; C18; 2.2um; 80A; 2.0x150mm
Precursor type: [M+H]+
m/z	relative intensity
119.085700	10
121.100900	11
131.085300	10
137.059500	11
147.080800	56
149.096600	27
151.112000	14
159.080800	52
161.096400	31
163.075800	13
165.091000	29
173.096400	19
175.075700	19
175.148000	21
177.090900	169
178.094600	21
185.132800	36
189.127900	14
191.106000	28
203.142900	116
204.145500	17
207.137800	16
213.127600	70
221.153600	104
222.157400	18
231.137800	313
232.141000	46
233.152200	10
249.148500	999
250.152100	172
251.157400	23
