Mass spectrum: Isosilybin B; LC-ESI-QTOF; MS2; [M+H]+; CE: 30eV
Name: Isosilybin B
Class: Natural Product; Flavonoids
Formula: C25H22O10
Exact mass: 482.12130
SMILES: COc(c(O)5)cc(cc5)C(O1)C(CO)Oc(c2)c(ccc2[C@@H](O3)[C@@H](O)C(=O)c(c(O)4)c(cc(O)c4)3)1
InChI: InChI=1S/C25H22O10/c1-32-17-6-11(2-4-14(17)28)24-20(10-26)33-18-7-12(3-5-16(18)34-24)25-23(31)22(30)21-15(29)8-13(27)9-19(21)35-25/h2-9,20,23-29,31H,10H2,1H3/t20?,23-,24?,25+/m0/s1
Instrument: maXis, Bruker Daltonics
Instrument type: LC-ESI-QTOF
Ms type: MS2
Ion mode: POSITIVE
Collision energy: 30 eV
Ionization: ESI
Column name: Shimadzu Shim-Pack XR-ODS III; C18; 2.2um; 80A; 2.0x150mm
Precursor type: [M+H]+
m/z	relative intensity
119.045100	20
121.024600	14
123.040500	16
124.048500	17
127.036000	12
130.038800	14
131.046600	168
132.050600	16
133.026100	37
133.062500	19
135.041800	34
137.057800	259
138.061500	20
139.037200	29
147.042900	285
148.047000	28
149.022300	230
149.058600	53
150.025800	18
150.066300	56
151.037900	12
151.074100	44
152.081900	26
153.017600	999
154.020800	72
159.044000	12
161.023600	10
161.059500	221
162.067200	453
163.039900	10
163.074100	140
164.077900	12
165.054400	48
167.033900	181
168.037400	19
175.039100	15
177.018700	56
177.055000	123
178.061700	28
179.034400	14
179.070500	47
180.078500	92
181.082500	12
187.039600	45
195.029800	467
196.033200	45
201.055600	36
203.034700	41
213.055700	33
215.035000	13
229.050800	120
230.053700	14
231.066500	23
233.046500	14
237.055000	10
239.071800	45
241.050800	73
241.087400	13
242.057300	37
251.071200	73
252.078100	44
253.086300	26
255.066600	42
255.102600	17
257.045700	297
258.049600	48
259.060800	43
259.097400	12
267.066200	17
269.045600	34
269.082000	14
270.089900	32
271.061700	10
271.097600	81
272.100500	17
279.066300	59
280.070100	12
281.081800	26
283.061200	207
283.097500	149
284.064500	35
284.100900	25
285.040800	64
285.076600	87
286.045400	13
286.080200	17
287.055900	36
289.070600	11
293.081300	13
295.061200	91
296.064600	17
299.056100	21
299.092400	10
301.071800	14
307.061500	15
309.076600	13
311.055900	168
311.091400	15
312.059300	31
313.071100	72
314.074500	15
315.050900	25
323.055700	31
327.086800	28
329.066100	44
341.066000	34
359.088300	12
363.086200	24
377.102500	22
379.117100	25
387.086400	81
388.089000	22
389.100700	10
391.117800	115
392.120700	26
401.101300	11
405.095800	10
407.112100	86
408.115300	21
409.126200	16
415.081000	29
418.103300	22
419.111800	280
420.115300	64
421.117100	12
433.091000	49
434.094600	15
435.106400	86
436.111400	33
437.121900	81
438.125400	20
447.106400	48
448.110000	12
465.117000	29
