Mass spectrum: Diosmin; LC-ESI-QTOF; MS2; [M-H]-; CE: 10eV
Name: Diosmin
Class: Natural Product; Flavonoids
Formula: C28H32O15
Exact mass: 608.17412
SMILES: c(O)(c3)c(C(=O)2)c(cc3O[C@H](O4)[C@H](O)[C@@H](O)[C@H](O)[C@@H](CO[C@H](O5)[C@H](O)[C@@H]([C@H]([C@@H]5C)O)O)4)OC(=C2)c(c1)ccc(c1O)OC
InChI: InChI=1S/C28H32O15/c1-10-21(32)23(34)25(36)27(40-10)39-9-19-22(33)24(35)26(37)28(43-19)41-12-6-14(30)20-15(31)8-17(42-18(20)7-12)11-3-4-16(38-2)13(29)5-11/h3-8,10,19,21-30,32-37H,9H2,1-2H3/t10-,19+,21-,22+,23+,24-,25+,26+,27+,28+/m0/s1
Instrument: maXis, Bruker Daltonics
Instrument type: LC-ESI-QTOF
Ms type: MS2
Ion mode: NEGATIVE
Collision energy: 10 eV
Ionization: ESI
Column name: Shimadzu Shim-Pack XR-ODS III; C18; 2.2um; 80A; 2.0x150mm
Precursor type: [M-H]-
m/z	relative intensity
299.056300	16
607.165800	999
608.168900	283
609.178100	149
610.182000	23
