Mass spectrum: Cytochalasin; LC-ESI-QTOF; MS2; [M+H]+; CE: 30eV
Name: Cytochalasin
Class: Natural Product; Alkaloids
Formula: C30H37NO6
Exact mass: 507.26209
SMILES: C(N3)(=O)C(C1OC(C)=O)(C(C3Cc(c4)cccc4)2)C(C(O)C(C2C)=C)C=CCC(C)C(=O)C(C=C1)(C)O
InChI: InChI=1S/C30H37NO6/c1-17-10-9-13-22-26(33)19(3)18(2)25-23(16-21-11-7-6-8-12-21)31-28(35)30(22,25)24(37-20(4)32)14-15-29(5,36)27(17)34/h6-9,11-15,17-18,22-26,33,36H,3,10,16H2,1-2,4-5H3,(H,31,35)/b13-9+,15-14-/t17?,18-,22-,23?,24+,25?,26-,29+,30?/m0/s1
Instrument: maXis, Bruker Daltonics
Instrument type: LC-ESI-QTOF
Ms type: MS2
Ion mode: POSITIVE
Collision energy: 30 eV
Ionization: ESI
Column name: Shimadzu Shim-Pack XR-ODS III; C18; 2.2um; 80A; 2.0x150mm
Precursor type: [M+H]+
m/z	relative intensity
117.069300	14
120.080300	173
121.083400	14
131.085200	14
133.100800	11
135.116700	11
143.085300	15
145.100900	19
146.059900	64
149.095900	40
157.100500	19
161.095600	17
163.111800	12
169.100800	17
171.116600	17
172.075700	11
181.101000	15
183.117100	20
185.096500	11
187.111400	11
195.116800	17
197.095900	14
199.111700	17
207.117200	12
209.132200	46
211.148200	15
221.132300	30
223.148100	43
225.127400	18
227.142500	24
228.139600	12
235.148000	22
236.118400	11
237.163700	156
238.122500	73
239.142500	20
241.158100	10
247.147700	67
248.152500	18
249.163300	26
251.142600	26
253.158300	16
254.154800	19
255.173900	59
256.132900	110
257.136100	18
263.142600	20
264.141500	10
265.158400	274
266.162000	63
267.173300	51
268.132900	52
269.138700	15
278.163000	13
280.169400	16
282.148700	23
283.169000	78
284.173000	18
290.154100	12
292.169600	14
293.153200	33
294.149300	23
308.163900	25
311.164700	15
318.185400	13
320.163700	20
321.170500	20
322.177800	10
328.169200	46
329.174900	19
330.184400	13
341.225800	10
346.179600	59
347.185900	43
348.192700	16
351.210400	11
356.200700	38
357.205700	10
360.232400	14
366.221500	14
367.205600	14
369.220400	30
370.217400	32
372.195600	25
374.210800	132
375.214000	28
378.242500	58
379.245600	17
384.231800	157
385.235200	49
386.211900	10
388.226700	92
389.230100	26
394.215800	35
402.242300	504
403.245500	141
404.248100	21
412.226700	385
413.229800	105
414.232900	18
430.237200	999
431.240600	290
432.243200	54
448.247700	18
472.246700	13
