Mass spectrum: Vitexin; LC-ESI-QTOF; MS2; [M-H]-; CE: 40eV
Name: Vitexin
Class: Natural Product; Flavonoids
Formula: C21H20O10
Exact mass: 432.10565
SMILES: OC[C@H]([C@@H](O)4)O[C@H]([C@H](O)[C@@H](O)4)c(c(O)3)c(O1)c(c(O)c3)C(=O)C=C(c(c2)ccc(O)c2)1
InChI: InChI=1S/C21H20O10/c22-7-14-17(27)18(28)19(29)21(31-14)16-11(25)5-10(24)15-12(26)6-13(30-20(15)16)8-1-3-9(23)4-2-8/h1-6,14,17-19,21-25,27-29H,7H2/t14-,17-,18+,19-,21+/m1/s1
Instrument: maXis, Bruker Daltonics
Instrument type: LC-ESI-QTOF
Ms type: MS2
Ion mode: NEGATIVE
Collision energy: 40 eV
Ionization: ESI
Column name: Shimadzu Shim-Pack XR-ODS III; C18; 2.2um; 80A; 2.0x150mm
Precursor type: [M-H]-
m/z	relative intensity
117.034100	19
135.045500	10
149.025200	22
159.046000	12
161.025200	25
163.040900	23
191.036000	28
203.036000	17
239.072200	17
243.066900	12
268.038000	33
269.045600	40
281.045900	47
282.052800	40
283.061500	999
283.118900	10
284.064800	171
285.067000	19
293.045600	50
295.060800	19
309.040300	15
311.056000	960
311.116200	11
312.059300	195
313.061400	24
323.055700	77
324.059000	17
341.065900	65
342.069300	14
