Mass spectrum: Hydroheptilidic-acid; LC-ESI-QTOF; MS2; [M+H]+; CE: 50eV
Name: Hydroheptilidic-acid
Class: Natural Product; Carbonic acid derivatives
Formula: C15H22O6
Exact mass: 298.14164
SMILES: OCC(C(O)=O)=CC(C(C(C)C)1)C(C(=O)2)C(O)(CO2)CC1
InChI: InChI=1S/C15H22O6/c1-8(2)10-3-4-15(20)7-21-14(19)12(15)11(10)5-9(6-16)13(17)18/h5,8,10-12,16,20H,3-4,6-7H2,1-2H3,(H,17,18)/b9-5+
Instrument: maXis, Bruker Daltonics
Instrument type: LC-ESI-QTOF
Ms type: MS2
Ion mode: POSITIVE
Collision energy: 50 eV
Ionization: ESI
Column name: Shimadzu Shim-Pack XR-ODS III; C18; 2.2um; 80A; 2.0x150mm
Precursor type: [M+H]+
m/z	relative intensity
91.054400	76
93.070200	23
103.052900	24
105.069300	145
107.085000	63
109.063400	27
115.053900	147
116.061400	204
117.069500	180
119.085300	336
120.089400	29
121.064500	111
123.079900	23
128.062000	252
129.069600	537
130.075800	78
131.085200	448
132.089200	61
133.101100	109
134.105300	28
135.080200	45
141.069800	279
142.077400	337
143.085100	370
144.057100	75
145.100800	145
146.072100	82
147.080300	429
148.084800	54
149.096000	94
153.070000	76
154.076800	42
155.085300	112
156.093300	415
157.100400	211
158.071800	64
159.080300	172
160.087800	45
161.095600	71
165.069600	54
166.077500	76
167.084700	33
168.093800	44
169.065200	32
171.117000	139
173.096400	49
174.104000	28
175.075500	999
176.079000	105
177.090000	36
181.101400	33
183.080900	28
184.088600	84
185.094900	35
189.127700	30
199.112000	66
203.070300	71
