Mass spectrum: Cycloheximide; LC-ESI-QTOF; MS2; [M+H]+; CE: 20eV
Name: Cycloheximide
Class: Natural Product; Alkaloids
Formula: C15H23NO4
Exact mass: 281.162708
SMILES: C[C@H]1C[C@@H](C(=O)[C@@H](C1)[C@@H](CC2CC(=O)NC(=O)C2)O)C
InChI: InChI=1S/C15H23NO4/c1-8-3-9(2)15(20)11(4-8)12(17)5-10-6-13(18)16-14(19)7-10/h8-12,17H,3-7H2,1-2H3,(H,16,18,19)/t8-,9-,11-,12+/m0/s1
Instrument: maXis, Bruker Daltonics
Instrument type: LC-ESI-QTOF
Ms type: MS2
Ion mode: POSITIVE
Collision energy: 20 eV
Ionization: ESI
Column name: Shimadzu Shim-Pack XR-ODS III; C18; 2.2um; 80A; 2.0x150mm
Precursor type: [M+H]+
m/z	relative intensity
107.085200	29
121.101300	22
123.080300	26
125.095600	87
138.054800	32
140.070400	32
141.054900	32
143.085300	40
157.101100	90
159.116500	144
161.095900	27
163.111600	30
165.090900	31
168.065700	42
169.101200	41
170.097100	34
173.132600	92
177.127500	107
180.102100	26
183.117100	46
185.096600	50
187.111900	159
189.091000	116
191.143200	27
194.117500	26
201.127800	165
202.130600	26
203.143300	29
205.122600	232
206.126100	36
211.112100	31
218.153900	92
219.138200	367
220.138400	47
228.138200	64
229.122400	299
230.126000	42
236.164600	70
237.149000	54
246.149100	827
247.133200	999
248.136800	166
249.139600	21
264.159700	558
265.143800	389
266.146900	64
282.170000	88
283.174500	16
