Mass spectrum: Bacopaside II; LC-ESI-QTOF; MS2; [M+H]+; CE: 30eV
Name: Bacopaside II
Class: Natural Product; Terpenoids
Formula: C47H76O18
Exact mass: 928.50319
SMILES: O(C879)CC(C([H])(C([H])8C(C(CO9)([H])C=C(C)C)(C)O)6)(C7)C(C5)(C([H])(CC6)C(C)(C(C5)4[H])CCC(C4(C)C)OC(O3)C(C(C(O)C3CO)OC(C(O)2)OC(C(C(O)2)O)CO)OC(C(O)1)OC(C(O)1)CO)C
InChI: InChI=1S/C47H76O18/c1-21(2)14-22-18-58-47-19-46(20-59-47)23(38(47)45(22,7)57)8-9-28-43(5)12-11-29(42(3,4)27(43)10-13-44(28,46)6)63-41-37(65-39-34(55)31(52)25(16-49)61-39)36(32(53)26(17-50)62-41)64-40-35(56)33(54)30(51)24(15-48)60-40/h14,22-41,48-57H,8-13,15-20H2,1-7H3/t22-,23-,24-,25+,26-,27+,28-,29+,30-,31+,32-,33+,34-,35-,36+,37-,38+,39+,40+,41+,43+,44-,45+,46+,47-/m1/s1
Instrument: maXis, Bruker Daltonics
Instrument type: LC-ESI-QTOF
Ms type: MS2
Ion mode: POSITIVE
Collision energy: 30 eV
Ionization: ESI
Column name: Shimadzu Shim-Pack XR-ODS III; C18; 2.2um; 80A; 2.0x150mm
Precursor type: [M+H]+
m/z	relative intensity
145.049200	25
163.060100	40
259.081300	19
295.102500	50
325.113100	63
369.279200	11
391.284600	13
419.330800	23
425.341300	15
437.341800	119
438.345100	38
455.352600	312
456.355700	104
457.358300	16
473.363400	999
473.446100	16
474.366600	295
475.369300	51
617.405500	28
618.409200	11
635.416900	148
636.420100	57
637.422700	13
767.460500	30
768.462800	13
779.460000	12
797.471300	122
798.474600	57
799.478300	16
911.504100	13
929.514700	16
