Mass spectrum: Bacopaside X; LC-ESI-QTOF; MS2; [M+H]+; CE: 50eV
Name: Bacopaside X
Class: Natural Product; Terpenoids
Formula: C46H74O21
Exact mass: 898.49264
SMILES: [H]C(C(C)(C)6)(C5)C(CCC6OC(O7)C(OC(C9O)OC(C(O)9)CO)C(OC(O8)C(C(O)C(C8CO)O)O)C(C7)O)(C(C(C)1C5)(CCC(C([H])42)([H])C(C3)1CC2(OC([H])(CC4(C)O)C=C(C)C)O3)[H])C
InChI: InChI=1S/C46H74O17/c1-21(2)14-22-15-44(7,55)37-23-8-9-28-42(5)12-11-29(41(3,4)27(42)10-13-43(28,6)45(23)19-46(37,63-22)57-20-45)60-40-36(62-38-33(53)31(51)26(17-48)59-38)35(24(49)18-56-40)61-39-34(54)32(52)30(50)25(16-47)58-39/h14,22-40,47-55H,8-13,15-20H2,1-7H3/t22-,23+,24-,25+,26-,27-,28+,29-,30+,31-,32-,33+,34+,35-,36+,37-,38-,39-,40-,42-,43+,44-,45-,46-/m0/s5
Instrument: maXis, Bruker Daltonics
Instrument type: LC-ESI-QTOF
Ms type: MS2
Ion mode: POSITIVE
Collision energy: 50 eV
Ionization: ESI
Column name: Shimadzu Shim-Pack XR-ODS III; C18; 2.2um; 80A; 2.0x150mm
Precursor type: [M+H]+
m/z	relative intensity
115.038600	30
119.084800	29
121.100700	66
123.116400	200
124.119500	23
127.038500	103
128.041900	10
131.085300	11
133.049300	390
133.101000	69
134.052800	24
135.116600	129
136.119900	15
137.132200	75
139.038800	27
139.075100	13
143.033600	18
145.049500	264
145.101000	38
146.052800	16
147.116700	60
149.096200	12
149.132200	95
150.135900	11
151.075600	15
151.111300	12
151.148100	20
153.091000	18
153.127300	14
157.049600	86
157.100800	15
159.117000	69
161.096600	10
161.132500	91
162.136200	12
163.060400	113
163.074600	34
163.148100	102
164.064300	11
164.151600	14
165.055200	12
165.091000	24
165.127500	12
167.106800	15
169.049600	42
171.117000	19
173.132600	58
175.060100	46
175.148000	83
176.151600	12
177.091200	33
177.127700	17
177.163700	60
179.107000	33
179.143000	28
181.049700	29
181.122300	11
183.064800	10
185.132700	35
187.060400	19
187.113000	13
187.148400	120
188.151700	20
189.091100	18
189.127700	11
189.163900	131
190.167400	20
191.106700	43
191.144100	14
191.179700	161
192.182700	22
193.049600	33
193.122500	22
193.159000	11
193.195200	19
197.132700	13
199.060600	33
199.148500	33
201.127900	16
201.164100	105
202.167600	18
203.106900	21
203.143700	16
203.179600	168
204.183300	30
205.122700	28
205.158900	15
205.195100	28
207.138300	24
207.174800	29
211.060400	142
211.148400	12
212.063500	16
213.163600	34
215.143200	16
215.179800	47
216.183800	12
217.071000	22
217.122700	22
217.159300	16
217.195500	64
218.198400	12
219.138500	57
219.174700	12
219.211000	17
221.153700	38
221.190200	23
223.060200	61
225.164100	11
227.143800	12
227.179900	27
229.070900	161
229.123400	11
229.158900	23
229.195300	31
230.074200	15
231.138100	45
231.174400	13
231.211700	14
233.153800	66
234.157200	13
235.169600	33
239.179600	15
241.071100	90
241.159300	12
241.195400	26
242.073800	10
243.173900	12
243.211200	28
245.153800	82
245.190200	10
246.157200	14
247.081500	144
247.169600	190
248.084800	16
248.173000	35
249.184400	15
253.195500	25
255.175200	10
255.211000	48
256.214600	11
257.154700	13
257.190900	14
257.225700	13
259.081400	75
259.169600	35
261.185300	22
265.091900	76
266.095200	11
267.211200	16
269.226700	26
271.170000	17
271.206700	13
273.184900	27
273.221300	12
275.200400	32
277.091900	17
279.210900	12
281.226600	13
283.205500	12
285.184900	32
285.222000	17
287.200300	22
287.236900	11
289.216600	16
295.102900	24
295.207000	13
295.242500	13
297.221600	26
299.200400	33
299.238100	11
301.216600	47
302.220400	11
303.232100	23
309.257500	23
313.216600	67
313.252200	31
314.220100	18
315.232200	207
316.235900	45
317.244600	10
321.257400	10
323.273400	20
327.233300	27
327.268600	19
329.247000	14
331.227400	22
331.263500	12
333.243700	14
335.273200	12
337.252400	13
337.289500	10
341.247700	20
341.284300	12
343.263100	11
351.269400	27
353.248300	14
353.284000	11
355.262900	65
356.267700	20
367.263500	21
369.279200	187
370.282000	49
371.291900	20
373.274100	156
374.277900	38
377.320600	58
378.323700	18
381.279300	49
382.282200	15
387.289400	97
388.293500	25
391.284900	241
391.336300	39
392.288400	58
392.339500	13
393.291200	11
395.296500	24
395.331400	69
396.335000	23
399.289500	29
401.320600	15
409.347100	107
410.350400	34
411.359800	13
413.306200	11
419.331400	81
420.334800	26
437.342200	707
438.345200	220
439.348400	34
441.300300	18
453.336700	25
455.352900	999
456.356200	289
457.359000	46
467.352800	19
473.362800	35
474.366200	12
479.353000	17
497.362500	10
509.363300	13
515.354000	14
533.363300	59
534.366500	22
551.374200	35
552.380200	15
587.394900	23
588.398300	10
