Mass spectrum: Berberine; LC-ESI-QTOF; MS2; [M+H]+; CE: 40eV
Name: Berberine
Class: Natural Product; Alkaloids
Formula: [C20H18NO4]+
Exact mass: 336.12358
SMILES: COc(c5)c(OC)c(c4)c(c5)cc([n+1]34)c(c1)c(CC3)cc(O2)c(OC2)1
InChI: InChI=1S/C20H18NO4/c1-22-17-4-3-12-7-16-14-9-19-18(24-11-25-19)8-13(14)5-6-21(16)10-15(12)20(17)23-2/h3-4,7-10H,5-6,11H2,1-2H3/q+1
Instrument: maXis (Bruker Daltonics)
Instrument type: LC-ESI-QTOF
Ms type: MS2
Ion mode: POSITIVE
Collision energy: 40 eV
Ionization: ESI
Column name: Shimadzu Shim-Pack XR-ODS III; C18; 2.2um; 80A; 2.0x150mm
Precursor type: [M+H]+
m/z	relative intensity
263.095000	24
264.101400	12
275.095300	97
276.099800	26
278.082300	349
279.085400	67
291.089900	53
292.098000	679
293.101100	132
294.103700	17
304.097700	253
305.101200	58
306.076900	380
307.080200	74
308.082900	10
318.076800	85
319.080100	20
320.092500	999
321.097500	326
322.100900	55
336.123100	57
337.126500	12
