Mass spectrum: Bufalin; LC-ESI-QTOF; MS2; [M+H]+; CE: 10eV
Name: Bufalin
Class: Natural Product; Steroids
Formula: C24H34O4
Exact mass: 386.24571
SMILES: C(C1([H])4)(C)(C5)C([H])(CC(O)C5)CCC(C(C(C)(CC4)2)(O)CCC2C(C=3)=COC(=O)C3)1[H]
InChI: InChI=1S/C24H34O4/c1-22-10-7-17(25)13-16(22)4-5-20-19(22)8-11-23(2)18(9-12-24(20,23)27)15-3-6-21(26)28-14-15/h3,6,14,16-20,25,27H,4-5,7-13H2,1-2H3/t16-,17+,18-,19+,20-,22+,23-,24+/m1/s1
Instrument: maXis, Bruker Daltonics
Instrument type: LC-ESI-QTOF
Ms type: MS2
Ion mode: POSITIVE
Collision energy: 10 eV
Ionization: ESI
Column name: Shimadzu Shim-Pack XR-ODS III; C18; 2.2um; 80A; 2.0x150mm
Precursor type: [M+H]+
m/z	relative intensity
387.252400	999
388.255600	219
389.259600	47
