Mass spectrum: Hydroheptilidic-acid; LC-ESI-QTOF; MS2; [M+H]+; CE: 40eV
Name: Hydroheptilidic-acid
Class: Natural Product; Carbonic acid derivatives
Formula: C15H22O6
Exact mass: 298.14164
SMILES: OCC(C(O)=O)=CC(C(C(C)C)1)C(C(=O)2)C(O)(CO2)CC1
InChI: InChI=1S/C15H22O6/c1-8(2)10-3-4-15(20)7-21-14(19)12(15)11(10)5-9(6-16)13(17)18/h5,8,10-12,16,20H,3-4,6-7H2,1-2H3,(H,17,18)/b9-5+
Instrument: maXis, Bruker Daltonics
Instrument type: LC-ESI-QTOF
Ms type: MS2
Ion mode: POSITIVE
Collision energy: 40 eV
Ionization: ESI
Column name: Shimadzu Shim-Pack XR-ODS III; C18; 2.2um; 80A; 2.0x150mm
Precursor type: [M+H]+
m/z	relative intensity
91.053800	32
93.070100	19
105.069800	80
107.085000	45
109.064400	19
111.043200	14
115.053900	26
116.061100	53
117.069100	110
118.074100	13
119.085100	261
120.089800	24
121.064600	79
123.043100	25
128.061600	64
129.069500	266
130.075300	47
131.085200	513
132.089000	60
133.100800	98
134.104600	17
135.080100	62
137.059600	21
141.069200	91
142.077500	143
143.085100	254
144.092200	78
145.100900	188
146.070800	29
147.080200	326
148.084700	55
149.095900	267
150.099300	21
153.069100	25
155.085500	72
156.092900	267
157.100600	255
158.107000	63
159.080100	282
160.086500	32
161.095700	83
163.075300	19
165.069800	25
166.077400	35
167.084600	17
168.093100	50
169.100000	38
171.116700	325
172.121100	40
173.132300	60
174.104000	31
175.075300	999
176.078600	115
177.090500	160
178.094400	27
181.100700	74
183.116100	30
184.088000	65
185.095600	42
186.102500	25
187.111400	46
189.127500	110
190.131500	18
199.111900	200
200.115300	30
201.127100	25
203.070000	416
204.073600	48
205.121400	22
217.121800	82
218.126400	14
221.080400	169
222.084600	20
227.106100	45
245.117400	20
