Mass spectrum: Bergapten; LC-ESI-QTOF; MS2; [M+H]+; CE: 30eV
Name: Bergapten
Class: Natural Product; Phenylpropanoids
Formula: C12H8O4
Exact mass: 216.04226
SMILES: COc(c21)c(C=3)c(OC(=O)C3)cc(occ2)1
InChI: InChI=1S/C12H8O4/c1-14-12-7-2-3-11(13)16-10(7)6-9-8(12)4-5-15-9/h2-6H,1H3
Instrument: maXis, Bruker Daltonics
Instrument type: LC-ESI-QTOF
Ms type: MS2
Ion mode: POSITIVE
Collision energy: 30 eV
Ionization: ESI
Column name: Shimadzu Shim-Pack XR-ODS III; C18; 2.2um; 80A; 2.0x150mm
Precursor type: [M+H]+
m/z	relative intensity
115.052900	12
118.040200	24
131.048300	25
145.028200	11
146.035900	74
161.059700	16
173.059700	11
174.031200	372
175.034500	39
202.026400	999
202.058400	17
202.080500	15
203.029500	109
204.031400	13
217.049700	74
218.053000	10
