Mass spectrum: Vitexin; LC-ESI-QTOF; MS2; [M+H]+; CE: 40eV
Name: Vitexin
Class: Natural Product; Flavonoids
Formula: C21H20O10
Exact mass: 432.10565
SMILES: OC[C@H]([C@@H](O)4)O[C@H]([C@H](O)[C@@H](O)4)c(c(O)3)c(O1)c(c(O)c3)C(=O)C=C(c(c2)ccc(O)c2)1
InChI: InChI=1S/C21H20O10/c22-7-14-17(27)18(28)19(29)21(31-14)16-11(25)5-10(24)15-12(26)6-13(30-20(15)16)8-1-3-9(23)4-2-8/h1-6,14,17-19,21-25,27-29H,7H2/t14-,17-,18+,19-,21+/m1/s1
Instrument: maXis, Bruker Daltonics
Instrument type: LC-ESI-QTOF
Ms type: MS2
Ion mode: POSITIVE
Collision energy: 40 eV
Ionization: ESI
Column name: Shimadzu Shim-Pack XR-ODS III; C18; 2.2um; 80A; 2.0x150mm
Precursor type: [M+H]+
m/z	relative intensity
121.023700	16
217.051200	33
235.061600	10
243.030800	29
256.074100	12
259.062000	22
261.041300	22
271.061800	31
283.062000	592
284.068300	262
285.072800	52
295.061800	89
296.065400	19
297.077400	139
298.080600	27
308.069300	17
309.076800	30
311.056400	43
312.061000	10
313.072400	999
313.139900	13
314.075600	171
315.077700	27
323.058600	30
323.092700	184
324.062800	10
324.096100	37
325.071800	76
326.075300	14
327.087200	37
337.071700	160
338.074900	33
339.083800	10
341.066400	11
343.082100	87
344.085400	17
349.071400	14
351.087200	62
352.090200	12
355.082100	29
367.081600	62
368.085000	14
369.096000	13
379.081500	77
380.084600	17
397.091900	140
398.094900	27
415.101800	30
