Mass spectrum: Lycorine-monoacetate; LC-ESI-QTOF; MS2; [M+H]+; CE: 30eV
Name: Lycorine-monoacetate
Class: Non Natural Product; Isoquinoline alkaloids
Formula: C18H19NO5
Exact mass: 329.12632
SMILES: CC(=O)OC(C(O)5)C([H])(c21)C([H])(C4=C5)N(CC4)Cc(cc(O3)c(OC3)c2)1
InChI: InChI=1S/C18H19NO5/c1-9(20)24-18-13(21)4-10-2-3-19-7-11-5-14-15(23-8-22-14)6-12(11)16(18)17(10)19/h4-6,13,16-18,21H,2-3,7-8H2,1H3/t13-,16-,17+,18+/m0/s1
Instrument: maXis, Bruker Daltonics
Instrument type: LC-ESI-QTOF
Ms type: MS2
Ion mode: POSITIVE
Collision energy: 30 eV
Ionization: ESI
Column name: Shimadzu Shim-Pack XR-ODS III; C18; 2.2um; 80A; 2.0x150mm
Precursor type: [M+H]+
m/z	relative intensity
110.059500	66
111.067000	34
131.049000	21
134.059800	371
135.043700	40
140.070500	11
147.043800	87
149.059500	21
159.044000	109
160.049200	11
161.059600	68
173.059700	39
175.039100	61
177.054600	334
178.058200	31
183.080400	12
185.059400	14
187.038800	15
189.054800	19
191.070300	19
194.096500	55
195.080700	22
199.075500	54
201.054500	19
211.075600	26
212.107100	24
213.090900	32
219.064900	22
222.091300	192
223.094700	32
225.090600	60
226.087300	24
227.092600	12
228.101600	25
240.101900	49
241.085900	50
242.117300	72
243.120500	13
250.086100	48
252.101900	268
253.105900	46
255.088600	12
268.096600	25
270.112500	567
271.115800	94
288.123100	49
330.133700	999
331.136900	175
332.139500	27
