Mass spectrum: Xanthohumol; LC-ESI-QTOF; MS2; [M-H]-; CE: 30eV
Name: Xanthohumol
Class: Natural Product; Flavonoids
Formula: C21H22O5
Exact mass: 354.14672
SMILES: CC(C)=CCc(c(O)1)c(O)c(C(=O)C=Cc(c2)ccc(O)c2)c(OC)c1
InChI: InChI=1S/C21H22O5/c1-13(2)4-10-16-18(24)12-19(26-3)20(21(16)25)17(23)11-7-14-5-8-15(22)9-6-14/h4-9,11-12,22,24-25H,10H2,1-3H3/b11-7+
Instrument: maXis, Bruker Daltonics
Instrument type: LC-ESI-QTOF
Ms type: MS2
Ion mode: NEGATIVE
Collision energy: 30 eV
Ionization: ESI
Column name: Shimadzu Shim-Pack XR-ODS III; C18; 2.2um; 80A; 2.0x150mm
Precursor type: [M-H]-
m/z	relative intensity
117.033800	11
119.049700	999
119.061300	38
120.053100	97
133.065800	91
145.029700	65
149.995900	36
157.066300	28
159.045500	20
159.081900	36
162.068800	18
163.004000	90
164.009900	12
165.092500	188
166.095800	26
173.061300	38
174.068600	23
175.004200	139
175.040300	17
176.008700	14
177.019600	16
189.020400	19
189.056400	31
189.092800	161
190.027300	16
190.064100	173
190.096100	22
191.035200	11
191.068200	25
201.056500	19
203.035700	50
203.072000	21
204.042000	18
204.079300	26
205.087200	22
207.103400	29
217.050900	29
218.058800	263
219.063900	56
231.066500	14
232.074600	59
233.082400	917
234.085700	152
235.088000	14
247.097900	76
248.100900	15
249.113700	32
251.071300	10
251.092900	22
267.066900	12
269.045400	12
270.052900	32
277.123300	17
283.061100	89
284.064100	16
295.060900	284
296.064300	68
309.149100	23
310.120900	25
311.128100	41
323.091700	39
337.107000	13
338.114300	19
353.138500	387
354.141600	105
355.145300	12
