Mass spectrum: Berberine; LC-ESI-QTOF; MS2; [M+H]+; CE: 50eV
Name: Berberine
Class: Natural Product; Alkaloids
Formula: C20H18NO4
Exact mass: 336.12358
SMILES: COc(c5)c(OC)c(c4)c(c5)cc([n+1]34)c(c1)c(CC3)cc(O2)c(OC2)1
InChI: InChI=1S/C20H18NO4/c1-22-17-4-3-12-7-16-14-9-19-18(24-11-25-19)8-13(14)5-6-21(16)10-15(12)20(17)23-2/h3-4,7-10H,5-6,11H2,1-2H3/q+1
Instrument: maXis, Bruker Daltonics
Instrument type: LC-ESI-QTOF
Ms type: MS2
Ion mode: POSITIVE
Collision energy: 50 eV
Ionization: ESI
Column name: Shimadzu Shim-Pack XR-ODS III; C18; 2.2um; 80A; 2.0x150mm
Precursor type: [M+H]+
m/z	relative intensity
204.081600	11
219.069000	11
220.076600	23
233.084200	16
234.092100	35
235.064200	14
235.097900	11
246.091600	14
248.071700	35
249.078800	32
250.085900	16
260.071500	16
261.078600	12
262.086800	55
263.058800	57
263.094300	72
264.062400	11
264.101400	42
274.086800	31
275.094400	105
276.067200	14
276.100200	36
277.074000	72
278.082000	999
279.085200	178
280.087700	19
289.073900	23
290.081300	56
291.088400	47
292.097500	530
293.100700	105
294.103000	12
304.097200	272
305.069700	18
305.100600	58
306.076500	149
307.079800	28
318.076400	370
319.079400	80
320.091900	644
321.095300	146
322.098300	22
336.086400	13
