Mass spectrum: Isosilybin A; LC-ESI-QTOF; MS2; [M+H]+; CE: 40eV
Name: Isosilybin A
Class: Natural Product; Flavonoids
Formula: C25H22O13
Exact mass: 482.12133
SMILES: COc(c(O)5)cc(cc5)C(O1)C(CO)Oc(c2)c(ccc2C(O3)C(O)C(=O)c(c(O)4)c(cc(O)c4)3)4
InChI: InChI=1S/C25H22O10/c1-32-17-6-11(2-4-14(17)28)24-20(10-26)33-18-7-12(3-5-16(18)34-24)25-23(31)22(30)21-15(29)8-13(27)9-19(21)35-25/h2-9,20,23-29,31H,10H2,1H3/t20-,23+,24-,25-/m1/s4
Instrument: maXis, Bruker Daltonics
Instrument type: LC-ESI-QTOF
Ms type: MS2
Ion mode: POSITIVE
Collision energy: 40 eV
Ionization: ESI
Column name: Shimadzu Shim-Pack XR-ODS III; C18; 2.2um; 80A; 2.0x150mm
Precursor type: [M+H]+
m/z	relative intensity
119.045200	33
121.024800	31
121.060700	11
122.031600	12
123.040600	18
124.048400	28
130.038500	51
131.046400	135
132.051900	15
133.025800	66
133.062100	35
134.031200	11
135.042000	44
137.057800	234
138.061500	24
139.037300	63
146.035100	23
147.043000	297
148.047000	33
149.022400	384
149.058600	85
150.026300	39
150.066300	95
151.037500	16
151.073500	39
152.081700	24
153.017600	999
154.021100	65
155.022600	11
159.043600	37
161.023000	19
161.059500	215
162.067400	592
163.038900	13
163.072300	78
165.055000	31
167.034000	215
168.038000	21
173.059900	20
175.039300	22
177.018800	56
177.055000	103
178.060900	19
179.034300	12
179.070500	19
180.078700	36
181.013200	14
183.045000	12
187.039900	54
195.030000	294
195.081600	16
196.033000	27
201.055900	96
202.059600	14
203.035000	27
205.065800	13
211.076500	14
213.056200	72
214.060100	14
215.035400	12
221.061500	12
223.076800	30
225.057100	16
227.071900	11
229.051000	209
230.055100	32
231.066400	52
233.061600	14
237.056300	20
239.035800	18
239.071800	52
241.051100	111
242.057900	47
243.064000	11
251.071700	130
252.078600	68
253.085700	26
255.067000	84
255.103000	13
256.070800	17
257.046100	254
258.051000	47
259.060500	28
263.071900	10
265.051500	13
265.087100	10
266.059500	10
267.066800	26
269.045500	37
270.051800	11
270.090000	23
271.061900	10
271.097800	42
279.066700	81
280.070300	14
281.082300	18
283.061800	85
283.097600	51
284.065200	16
285.041200	34
285.077300	66
286.047700	18
286.081100	12
287.055800	23
295.061300	50
296.065900	10
299.056300	23
311.055800	55
312.059300	11
313.072600	23
315.051500	17
323.057000	20
359.092300	25
363.087600	11
379.117500	35
380.121000	12
387.086900	39
391.118000	45
407.112600	20
415.081900	11
419.111900	36
420.115100	10
433.091500	12
435.106700	13
