Mass spectrum: Silybin B; LC-ESI-QTOF; MS2; [M+H]+; CE: 30eV
Name: Silybin B
Class: Natural Product; Flavonoids
Formula: C25H22O10
Exact mass: 482.12130
SMILES: COc(c(O)5)cc(cc5)C(O1)C(CO)Oc(c4)c(cc(c4)C(O2)C(O)C(=O)c(c(O)3)c(cc(O)c3)2)1
InChI: InChI=1S/C25H22O10/c1-32-17-6-11(2-4-14(17)28)24-20(10-26)33-16-5-3-12(7-18(16)34-24)25-23(31)22(30)21-15(29)8-13(27)9-19(21)35-25/h2-9,20,23-29,31H,10H2,1H3
Instrument: maXis, Bruker Daltonics
Instrument type: LC-ESI-QTOF
Ms type: MS2
Ion mode: POSITIVE
Collision energy: 30 eV
Ionization: ESI
Column name: Shimadzu Shim-Pack XR-ODS III; C18; 2.2um; 80A; 2.0x150mm
Precursor type: [M+H]+
m/z	relative intensity
119.044200	23
121.023300	17
121.060400	10
123.039300	22
124.047200	19
127.035200	15
130.037600	19
131.045900	282
132.049300	27
133.025400	52
133.061300	13
135.041300	42
137.057100	223
138.061200	21
139.036300	27
147.042200	157
148.047000	18
149.021700	276
149.058100	69
150.025000	26
150.065800	57
151.037300	12
151.073300	40
152.080800	22
153.016900	999
153.052800	14
154.020400	70
155.022500	12
159.043100	23
161.022400	17
161.058700	118
162.066700	395
163.038700	12
163.074000	233
164.077600	26
165.054100	62
167.033400	227
168.036400	18
175.039100	11
177.017700	29
177.054500	170
178.061000	43
179.033300	14
179.069900	52
180.077900	99
181.082500	14
187.039300	24
195.029300	601
196.032700	58
201.055400	25
203.034600	34
211.076200	13
213.055500	75
215.034500	23
223.075600	12
227.034600	18
227.071900	13
229.050500	157
230.054000	22
231.065900	17
239.071000	62
240.075900	15
241.050400	144
241.085800	16
242.056800	55
243.063000	13
243.103000	13
251.071200	102
252.076400	29
253.085800	24
255.066500	32
255.102400	12
257.045500	263
257.081100	10
258.049400	41
258.089700	11
259.060000	29
259.097100	18
267.066000	24
269.045400	28
269.081700	25
270.089000	38
271.062700	18
271.097100	191
272.100400	34
279.065900	35
281.081100	26
282.087000	12
283.061100	126
283.097100	252
284.064600	22
284.100200	42
285.040400	87
285.075500	34
286.043500	14
287.055100	32
295.060600	101
295.097000	12
296.064600	24
299.055000	21
301.072100	13
301.107500	41
303.051200	12
307.060300	27
309.076100	16
311.055300	117
311.091900	11
312.059100	19
313.070500	46
314.074900	14
315.050400	24
323.055300	30
327.085800	14
329.066400	27
339.085700	10
341.066000	45
351.085400	18
359.090000	21
363.086200	28
364.089500	11
379.117000	117
380.120100	30
381.096400	12
387.085500	106
388.088700	25
389.099200	13
391.116400	98
392.120600	28
401.100800	14
405.093900	11
407.111600	180
408.114500	45
409.126500	92
410.129800	21
415.079600	44
416.082900	11
417.095000	15
418.103200	17
419.111300	234
420.114600	65
421.117200	11
433.090500	358
434.093800	88
435.105200	157
436.110700	62
437.121500	314
438.124700	72
439.128900	14
447.106200	65
448.108900	17
465.116400	50
466.119700	14
