Mass spectrum: Cycloheximide; LC-ESI-QTOF; MS2; [M+H]+; CE: 10eV
Name: Cycloheximide
Class: Natural Product; Alkaloids
Formula: C15H23NO4
Exact mass: 281.162708
SMILES: C[C@H]1C[C@@H](C(=O)[C@@H](C1)[C@@H](CC2CC(=O)NC(=O)C2)O)C
InChI: InChI=1S/C15H23NO4/c1-8-3-9(2)15(20)11(4-8)12(17)5-10-6-13(18)16-14(19)7-10/h8-12,17H,3-7H2,1-2H3,(H,16,18,19)/t8-,9-,11-,12+/m0/s1
Instrument: maXis, Bruker Daltonics
Instrument type: LC-ESI-QTOF
Ms type: MS2
Ion mode: POSITIVE
Collision energy: 10 eV
Ionization: ESI
Column name: Shimadzu Shim-Pack XR-ODS III; C18; 2.2um; 80A; 2.0x150mm
Precursor type: [M+H]+
m/z	relative intensity
219.138500	29
229.122500	18
236.165000	10
237.149500	11
246.149200	125
247.133300	90
248.136600	12
264.159900	548
265.143900	203
266.147600	34
282.170900	999
283.173700	177
284.176000	22
