Mass spectrum: Bacopaside X; LC-ESI-QTOF; MS2; [M+H]+; CE: 10eV
Name: Bacopaside X
Class: Natural Product; Terpenoids
Formula: C46H74O17
Exact mass: 898.49260
SMILES: [H]C(C(C)(C)6)(C5)C(CCC6OC(O7)C(OC(C9O)OC(C(O)9)CO)C(OC(O8)C(C(O)C(C8CO)O)O)C(C7)O)(C(C(C)1C5)(CCC(C([H])42)([H])C(C3)1CC2(OC([H])(CC4(C)O)C=C(C)C)O3)[H])C
InChI: InChI=1S/C46H74O17/c1-21(2)14-22-15-44(7,55)37-23-8-9-28-42(5)12-11-29(41(3,4)27(42)10-13-43(28,6)45(23)19-46(37,63-22)57-20-45)60-40-36(62-38-33(53)31(51)26(17-48)59-38)35(24(49)18-56-40)61-39-34(54)32(52)30(50)25(16-47)58-39/h14,22-40,47-55H,8-13,15-20H2,1-7H3/t22-,23+,24-,25+,26-,27-,28+,29-,30+,31-,32-,33+,34+,35-,36+,37-,38-,39-,40-,42-,43+,44-,45-,46-/m0/s1
Instrument: maXis, Bruker Daltonics
Instrument type: LC-ESI-QTOF
Ms type: MS2
Ion mode: POSITIVE
Collision energy: 10 eV
Ionization: ESI
Column name: Shimadzu Shim-Pack XR-ODS III; C18; 2.2um; 80A; 2.0x150mm
Precursor type: [M+H]+
m/z	relative intensity
259.081200	17
265.091900	88
266.094900	11
295.102200	64
391.283600	17
427.144800	86
428.148200	15
437.341500	59
438.345100	22
441.299600	12
455.352400	812
456.355600	259
457.359000	44
473.362900	267
474.366300	84
475.369300	15
523.327100	23
551.373400	35
552.376700	13
569.384000	45
570.388300	16
587.395000	360
588.398300	136
589.402100	28
605.405300	42
606.408600	16
617.405300	136
618.409100	53
619.411400	11
683.416600	10
685.381200	12
713.427900	17
719.437900	119
720.441800	52
721.443200	12
731.437400	11
737.447900	17
749.448900	195
750.451900	84
751.454500	22
767.459900	64
768.462600	29
881.493100	132
882.496100	63
883.498300	19
890.498500	11
899.504300	999
899.617600	11
900.507300	452
901.510100	136
902.512000	23
1031.548900	13
