Mass spectrum: Curcumin; LC-ESI-QTOF; MS2; [M-H]-; CE: 50eV
Name: Curcumin
Class: Natural Product; Phenols
Formula: C21H20O6
Exact mass: 368.12599
SMILES: COc(c1)c(O)ccc(C=CC(O)=CC(=O)C=Cc(c2)cc(OC)c(O)c2)1
InChI: InChI=1S/C21H20O6/c1-26-20-11-14(5-9-18(20)24)3-7-16(22)13-17(23)8-4-15-6-10-19(25)21(12-15)27-2/h3-13,22,24-25H,1-2H3/b7-3+,8-4+,16-13-
Instrument: maXis, Bruker Daltonics
Instrument type: LC-ESI-QTOF
Ms type: MS2
Ion mode: NEGATIVE
Collision energy: 50 eV
Ionization: ESI
Column name: Shimadzu Shim-Pack XR-ODS III; C18; 2.2um; 80A; 2.0x150mm
Precursor type: [M-H]-
m/z	relative intensity
130.042100	19
132.021500	122
133.028400	30
134.037200	999
135.040800	98
147.045100	18
148.052500	10
149.060800	58
158.037400	256
159.041100	33
160.016800	231
161.022900	41
173.060900	11
174.032200	17
175.040200	78
176.046000	13
201.019400	98
202.025600	25
