Mass spectrum: Cycloheximide; LC-ESI-QTOF; MS2; [M+H]+; CE: 30eV
Name: Cycloheximide
Class: Natural Product; Alkaloids
Formula: C15H23NO4
Exact mass: 281.162708
SMILES: C[C@H]1C[C@@H](C(=O)[C@@H](C1)[C@@H](CC2CC(=O)NC(=O)C2)O)C
InChI: InChI=1S/C15H23NO4/c1-8-3-9(2)15(20)11(4-8)12(17)5-10-6-13(18)16-14(19)7-10/h8-12,17H,3-7H2,1-2H3,(H,16,18,19)/t8-,9-,11-,12+/m0/s1
Instrument: maXis, Bruker Daltonics
Instrument type: LC-ESI-QTOF
Ms type: MS2
Ion mode: POSITIVE
Collision energy: 30 eV
Ionization: ESI
Column name: Shimadzu Shim-Pack XR-ODS III; C18; 2.2um; 80A; 2.0x150mm
Precursor type: [M+H]+
m/z	relative intensity
107.085000	206
112.038900	52
117.069000	49
119.085000	150
121.028000	223
123.079800	142
125.095800	402
131.085400	138
133.100600	124
135.079900	95
138.054600	207
140.070200	64
141.053900	58
143.085200	281
145.100800	233
147.080100	143
149.059200	111
153.054600	86
157.101000	364
159.116600	999
160.119800	113
161.095600	154
163.111500	232
165.091100	85
169.101200	264
173.132400	473
175.112000	80
177.127300	578
183.116600	350
185.095800	225
187.111600	788
188.115400	105
189.090900	91
191.143000	104
201.127300	722
202.130500	121
203.142400	74
204.139100	64
205.122200	554
206.125300	68
211.111900	76
218.154100	77
219.137900	389
228.137800	98
229.122200	470
230.125400	71
246.148900	289
247.132800	748
248.136100	122
264.158900	80
