Mass spectrum: Azadirachtin; LC-ESI-QTOF; MS2; [M+H]+; CE: 10eV
Name: Azadirachtin
Class: Natural Product; Terpenoids
Formula: C35H44O16
Exact mass: 720.26294
SMILES: O([C@@](C)31)[C@]1([C@]([C@H](O)6)([C@@]([C@@](O)(C(OC)=O)8)([H])[C@](CO8)([C@@]5([H])7)[C@H](C[C@H]([C@@](CO[C@@]67[H])5C(=O)OC)OC(C)=O)OC(C(C)=CC)=O)C)[C@H](C4)O[C@@]([H])([C@@]2(O)[C@@H]34)OC=C2
InChI: InChI=1S/C35H44O16/c1-8-15(2)24(38)49-18-12-19(48-16(3)36)32(26(39)43-6)13-46-21-22(32)31(18)14-47-34(42,27(40)44-7)25(31)29(4,23(21)37)35-20-11-17(30(35,5)51-35)33(41)9-10-45-28(33)50-20/h8-10,17-23,25,28,37,41-42H,11-14H2,1-7H3/b15-8+/t17-,18+,19-,20+,21-,22-,23-,25+,28+,29-,30+,31+,32+,33+,34+,35+/m1/s1
Instrument: maXis, Bruker Daltonics
Instrument type: LC-ESI-QTOF
Ms type: MS2
Ion mode: POSITIVE
Collision energy: 10 eV
Ionization: ESI
Column name: Shimadzu Shim-Pack XR-ODS III; C18; 2.2um; 80A; 2.0x150mm
Precursor type: [M+H]+
m/z	relative intensity
567.187300	16
585.198700	41
586.202400	18
603.207800	25
621.220200	19
685.252000	37
686.253400	16
689.245900	23
703.262600	380
704.265600	143
705.268200	42
707.257200	64
719.254200	13
720.287900	24
721.243200	792
721.273000	999
722.248400	286
722.275600	348
723.252200	110
723.274400	97
724.281400	42
725.268500	73
