Mass spectrum: Isosilybin B; LC-ESI-QTOF; MS2; [M+H]+; CE: 10eV
Name: Isosilybin B
Class: Natural Product; Flavonoids
Formula: C25H22O10
Exact mass: 482.12130
SMILES: COc(c(O)5)cc(cc5)C(O1)C(CO)Oc(c2)c(ccc2[C@@H](O3)[C@@H](O)C(=O)c(c(O)4)c(cc(O)c4)3)1
InChI: InChI=1S/C25H22O10/c1-32-17-6-11(2-4-14(17)28)24-20(10-26)33-18-7-12(3-5-16(18)34-24)25-23(31)22(30)21-15(29)8-13(27)9-19(21)35-25/h2-9,20,23-29,31H,10H2,1H3/t20?,23-,24?,25+/m0/s1
Instrument: maXis, Bruker Daltonics
Instrument type: LC-ESI-QTOF
Ms type: MS2
Ion mode: POSITIVE
Collision energy: 10 eV
Ionization: ESI
Column name: Shimadzu Shim-Pack XR-ODS III; C18; 2.2um; 80A; 2.0x150mm
Precursor type: [M+H]+
m/z	relative intensity
147.042500	45
153.017200	98
163.075000	67
195.029800	30
289.071600	11
311.055800	40
329.066300	151
330.069600	28
359.076200	20
435.106700	85
436.110100	21
437.120500	16
447.106300	28
453.116900	23
465.117100	93
466.120300	24
483.128100	999
483.211800	14
484.131200	254
485.133400	55
