Mass spectrum: Bacopaside X; LC-ESI-QTOF; MS2; [M+H]+; CE: 40eV
Name: Bacopaside X
Class: Natural Product; Terpenoids
Formula: C46H74O20
Exact mass: 898.49263
SMILES: [H]C(C(C)(C)6)(C5)C(CCC6OC(O7)C(OC(C9O)OC(C(O)9)CO)C(OC(O8)C(C(O)C(C8CO)O)O)C(C7)O)(C(C(C)1C5)(CCC(C([H])42)([H])C(C3)1CC2(OC([H])(CC4(C)O)C=C(C)C)O3)[H])C
InChI: InChI=1S/C46H74O17/c1-21(2)14-22-15-44(7,55)37-23-8-9-28-42(5)12-11-29(41(3,4)27(42)10-13-43(28,6)45(23)19-46(37,63-22)57-20-45)60-40-36(62-38-33(53)31(51)26(17-48)59-38)35(24(49)18-56-40)61-39-34(54)32(52)30(50)25(16-47)58-39/h14,22-40,47-55H,8-13,15-20H2,1-7H3/t22-,23+,24-,25+,26-,27-,28+,29-,30+,31-,32-,33+,34+,35-,36+,37-,38-,39-,40-,42-,43+,44-,45-,46-/m0/s4
Instrument: maXis, Bruker Daltonics
Instrument type: LC-ESI-QTOF
Ms type: MS2
Ion mode: POSITIVE
Collision energy: 40 eV
Ionization: ESI
Column name: Shimadzu Shim-Pack XR-ODS III; C18; 2.2um; 80A; 2.0x150mm
Precursor type: [M+H]+
m/z	relative intensity
115.037900	11
121.100300	13
123.116200	105
127.038100	31
133.049100	153
133.100900	13
135.116400	30
137.132100	19
145.049300	102
147.116600	11
149.132300	21
157.049500	22
159.116800	17
161.132400	18
163.060000	78
163.148000	29
169.049500	13
173.132700	14
175.060000	20
175.148000	22
177.163600	15
187.148200	31
189.163800	35
191.106900	15
191.179500	50
193.050000	11
199.060100	12
201.164000	27
203.179500	50
207.174200	12
211.060300	65
215.179200	11
217.070800	15
217.195200	16
219.138300	14
221.153800	13
223.060000	38
229.070600	81
231.138200	15
233.153800	18
235.169100	10
241.070600	45
245.153700	25
247.081300	94
247.169300	91
248.084400	10
248.172500	18
255.211100	11
259.081300	70
259.169500	11
265.091800	108
266.094800	10
277.091300	18
295.102500	41
299.200500	12
301.216300	19
313.216300	24
315.232100	74
316.235200	18
355.263300	21
369.278900	86
370.282000	24
373.273300	58
374.276900	14
377.320100	21
381.278300	20
387.289300	46
388.292200	11
391.284300	154
391.335800	15
392.287700	38
395.330600	34
399.288700	12
409.346500	50
410.349900	17
419.330900	36
420.333700	11
437.341600	459
438.344800	143
439.348000	22
441.299400	15
453.336800	16
455.352200	999
455.433000	10
456.355400	299
457.358500	48
467.352200	13
473.361900	44
474.365500	14
479.351400	11
509.362900	11
533.362000	37
534.365300	15
551.372700	34
552.377200	12
569.383600	11
587.393400	36
588.397400	14
749.447600	14
