Mass spectrum: Bacopaside II; LC-ESI-QTOF; MS2; [M+H]+; CE: 10eV
Name: Bacopaside II
Class: Natural Product; Terpenoids
Formula: C47H76O18
Exact mass: 928.50317
SMILES: O(C879)CC(C([H])(C([H])8C(C(CO9)([H])C=C(C)C)(C)O)6)(C7)C(C5)(C([H])(CC6)C(C)(C(C5)4[H])CCC(C4(C)C)OC(O3)C(C(C(O)C3CO)OC(C(O)2)OC(C(C(O)2)O)CO)OC(C(O)1)OC(C(O)1)CO)C
InChI: InChI=1S/C47H76O18/c1-21(2)14-22-18-58-47-19-46(20-59-47)23(38(47)45(22,7)57)8-9-28-43(5)12-11-29(42(3,4)27(43)10-13-44(28,46)6)63-41-37(65-39-34(55)31(52)25(16-49)61-39)36(32(53)26(17-50)62-41)64-40-35(56)33(54)30(51)24(15-48)60-40/h14,22-41,48-57H,8-13,15-20H2,1-7H3/t22-,23-,24-,25+,26-,27+,28-,29+,30-,31+,32-,33+,34-,35-,36+,37-,38+,39+,40+,41+,43+,44-,45+,46+,47-/m1/s1
Instrument: maXis, Bruker Daltonics
Instrument type: LC-ESI-QTOF
Ms type: MS2
Ion mode: POSITIVE
Collision energy: 10 eV
Ionization: ESI
Column name: Shimadzu Shim-Pack XR-ODS III; C18; 2.2um; 80A; 2.0x150mm
Precursor type: [M+H]+
m/z	relative intensity
295.102600	18
325.113200	15
455.352500	114
456.356000	38
457.155300	37
473.363400	999
473.446100	11
474.366600	311
475.369400	56
587.395000	10
605.405900	13
617.405900	34
618.408700	13
635.416800	199
636.420200	82
637.423500	21
767.459800	43
768.463600	20
779.459800	31
780.463400	14
782.465300	23
782.967200	17
797.471200	187
797.972200	17
798.474500	91
799.478400	25
848.486900	13
848.988000	10
863.492400	47
863.993900	43
864.495500	23
911.504000	27
912.507400	13
929.515600	481
930.015600	32
930.518800	229
931.520900	71
932.524000	14
1061.560800	24
1062.563200	12
1091.570300	10
