Mass spectrum: Lycorine-diacetate; LC-ESI-QTOF; MS2; [M+H]+; CE: 30eV
Name: Lycorine-diacetate
Class: Non Natural Product; Isoquinoline alkaloids
Formula: C20H21NO6
Exact mass: 371.13689
SMILES: CC(=O)OC(C=5)C(OC(C)=O)C([H])(c21)C([H])(C45)N(CC4)Cc(cc(O3)c(OC3)c2)1
InChI: InChI=1S/C20H21NO6/c1-10(22)26-17-5-12-3-4-21-8-13-6-15-16(25-9-24-15)7-14(13)18(19(12)21)20(17)27-11(2)23/h5-7,17-20H,3-4,8-9H2,1-2H3/t17-,18-,19+,20+/m0/s1
Instrument: maXis, Bruker Daltonics
Instrument type: LC-ESI-QTOF
Ms type: MS2
Ion mode: POSITIVE
Collision energy: 30 eV
Ionization: ESI
Column name: Shimadzu Shim-Pack XR-ODS III; C18; 2.2um; 80A; 2.0x150mm
Precursor type: [M+H]+
m/z	relative intensity
134.059600	27
147.044000	11
159.044000	16
177.054500	45
194.096500	142
195.100000	20
222.091400	522
223.094600	93
225.090900	52
241.085800	16
250.086200	168
251.090500	33
252.101900	999
253.105100	185
254.108200	20
270.112400	204
271.115700	33
312.123000	30
372.143900	188
373.147500	40
