Mass spectrum: Hydroheptilidic-acid; LC-ESI-QTOF; MS2; [M+H]+; CE: 20eV
Name: Hydroheptilidic-acid
Class: Natural Product; Carbonic acid derivatives
Formula: C15H22O6
Exact mass: 298.14164
SMILES: OCC(C(O)=O)=CC(C(C(C)C)1)C(C(=O)2)C(O)(CO2)CC1
InChI: InChI=1S/C15H22O6/c1-8(2)10-3-4-15(20)7-21-14(19)12(15)11(10)5-9(6-16)13(17)18/h5,8,10-12,16,20H,3-4,6-7H2,1-2H3,(H,17,18)/b9-5+
Instrument: maXis, Bruker Daltonics
Instrument type: LC-ESI-QTOF
Ms type: MS2
Ion mode: POSITIVE
Collision energy: 20 eV
Ionization: ESI
Column name: Shimadzu Shim-Pack XR-ODS III; C18; 2.2um; 80A; 2.0x150mm
Precursor type: [M+H]+
m/z	relative intensity
131.085300	17
145.101400	12
147.080300	10
149.095900	16
157.101000	43
159.080400	26
171.116900	39
173.132200	28
175.075300	28
177.091100	21
183.117400	16
189.127500	35
191.143100	20
199.111700	90
200.115200	17
201.127400	36
203.070500	177
204.073900	21
205.122200	18
217.122200	195
218.125900	27
221.081000	999
222.084300	125
223.086500	17
227.106800	48
235.133000	188
236.136100	26
245.117400	330
246.120800	51
263.127800	219
264.130900	31
281.138400	52
299.148800	26
