Mass spectrum: Isosilybin A; LC-ESI-QTOF; MS2; [M+H]+; CE: 20eV
Name: Isosilybin A
Class: Natural Product; Flavonoids
Formula: C25H22O11
Exact mass: 482.12131
SMILES: COc(c(O)5)cc(cc5)C(O1)C(CO)Oc(c2)c(ccc2C(O3)C(O)C(=O)c(c(O)4)c(cc(O)c4)3)2
InChI: InChI=1S/C25H22O10/c1-32-17-6-11(2-4-14(17)28)24-20(10-26)33-18-7-12(3-5-16(18)34-24)25-23(31)22(30)21-15(29)8-13(27)9-19(21)35-25/h2-9,20,23-29,31H,10H2,1H3/t20-,23+,24-,25-/m1/s2
Instrument: maXis, Bruker Daltonics
Instrument type: LC-ESI-QTOF
Ms type: MS2
Ion mode: POSITIVE
Collision energy: 20 eV
Ionization: ESI
Column name: Shimadzu Shim-Pack XR-ODS III; C18; 2.2um; 80A; 2.0x150mm
Precursor type: [M+H]+
m/z	relative intensity
123.039400	15
131.045600	131
132.048900	12
133.025100	11
135.041000	24
137.056800	209
138.060400	20
147.042300	354
148.045900	37
149.021700	63
149.057600	25
150.065200	17
151.073700	29
153.017000	999
154.020200	76
155.021900	11
161.059100	113
162.066600	210
163.074700	428
164.078000	37
165.054200	51
167.033500	64
177.018600	29
177.054700	98
178.061000	25
179.034200	13
179.070400	104
180.078200	124
181.083000	16
187.039500	15
195.029700	573
196.032700	53
203.034800	24
215.034700	10
229.051000	19
233.045800	21
239.071400	28
241.050700	24
241.087500	11
242.056200	10
251.071000	17
253.086400	10
257.045700	168
258.048700	25
259.060400	17
259.097800	28
269.046400	15
269.082600	14
271.097900	87
272.100700	14
279.065600	11
281.082200	23
283.061400	159
283.097500	171
284.065000	27
284.100700	28
285.040400	43
285.076300	56
286.080300	12
287.055900	36
289.071600	53
290.073600	11
293.081700	12
295.060800	65
296.064800	13
299.055200	12
299.091700	17
301.072000	24
301.107500	47
302.110700	11
303.050400	14
309.076300	11
311.055800	438
311.089600	18
312.058900	77
313.071000	99
314.074500	19
315.050300	27
321.076900	14
323.055700	41
327.086900	52
328.090200	10
329.066200	367
330.069300	67
331.072200	12
339.086200	23
341.066200	89
342.069700	18
357.097000	50
358.100100	13
359.076500	76
360.079100	14
363.085900	16
387.085500	43
388.088700	11
391.116400	40
392.120700	11
405.096800	11
407.112200	81
408.114800	22
409.126900	21
415.079200	16
417.094000	12
419.111600	406
420.115100	94
421.117800	20
423.105600	14
429.095900	11
433.090900	58
434.094300	16
435.106400	312
436.110400	91
437.121700	340
438.124900	77
439.128200	17
447.106200	244
448.109800	63
449.111600	13
453.116400	68
454.120400	19
465.116700	418
466.120300	103
467.122400	19
483.127200	308
484.130600	87
485.132600	19
