Mass spectrum: Hexahydrocurcumin; LC-ESI-QTOF; MS2; [M+H]+; CE: 50eV
Name: Hexahydrocurcumin
Class: Natural Product; Phenols
Formula: C21H26O6
Exact mass: 374.17294
SMILES: COc(c1)c(O)ccc(CCC(O)CC(=O)CCc(c2)cc(OC)c(O)c2)1
InChI: InChI=1S/C21H26O6/c1-26-20-11-14(5-9-18(20)24)3-7-16(22)13-17(23)8-4-15-6-10-19(25)21(12-15)27-2/h5-6,9-12,16,22,24-25H,3-4,7-8,13H2,1-2H3
Instrument: maXis, Bruker Daltonics
Instrument type: LC-ESI-QTOF
Ms type: MS2
Ion mode: POSITIVE
Collision energy: 50 eV
Ionization: ESI
Column name: Shimadzu Shim-Pack XR-ODS III; C18; 2.2um; 80A; 2.0x150mm
Precursor type: [M+H]+
m/z	relative intensity
115.049000	11
117.064800	17
122.032000	112
131.046000	133
132.049400	14
137.057500	999
137.072500	29
137.083700	19
137.101900	16
138.060700	76
145.063100	45
162.066800	13
163.074700	56
165.090400	10
177.091100	17
179.070600	46
