Mass spectrum: Berberine; LC-ESI-QTOF; MS2; [M+H]+; CE: 30eV
Name: Berberine
Class: Natural Product; Alkaloids
Formula: C20H18NO4
Exact mass: 336.12358
SMILES: COc(c5)c(OC)c(c4)c(c5)cc([n+1]34)c(c1)c(CC3)cc(O2)c(OC2)1
InChI: InChI=1S/C20H18NO4/c1-22-17-4-3-12-7-16-14-9-19-18(24-11-25-19)8-13(14)5-6-21(16)10-15(12)20(17)23-2/h3-4,7-10H,5-6,11H2,1-2H3/q+1
Instrument: maXis, Bruker Daltonics
Instrument type: LC-ESI-QTOF
Ms type: MS2
Ion mode: POSITIVE
Collision energy: 30 eV
Ionization: ESI
Column name: Shimadzu Shim-Pack XR-ODS III; C18; 2.2um; 80A; 2.0x150mm
Precursor type: [M+H]+
m/z	relative intensity
275.095800	46
276.099000	12
278.082700	49
291.090400	31
292.098400	542
293.101700	110
294.104500	13
304.098100	136
305.101900	34
306.077300	267
307.080400	52
318.076700	14
320.093000	672
321.100300	999
322.103700	194
323.106300	28
336.124100	972
337.127200	209
338.130000	27
