Mass spectrum: Bacopaside II; LC-ESI-QTOF; MS2; [M+H]+; CE: 40eV
Name: Bacopaside II
Class: Natural Product; Terpenoids
Formula: C47H76O21
Exact mass: 928.50320
SMILES: O(C879)CC(C([H])(C([H])8C(C(CO9)([H])C=C(C)C)(C)O)6)(C7)C(C5)(C([H])(CC6)C(C)(C(C5)4[H])CCC(C4(C)C)OC(O3)C(C(C(O)C3CO)OC(C(O)2)OC(C(C(O)2)O)CO)OC(C(O)1)OC(C(O)1)CO)C
InChI: InChI=1S/C47H76O18/c1-21(2)14-22-18-58-47-19-46(20-59-47)23(38(47)45(22,7)57)8-9-28-43(5)12-11-29(42(3,4)27(43)10-13-44(28,46)6)63-41-37(65-39-34(55)31(52)25(16-49)61-39)36(32(53)26(17-50)62-41)64-40-35(56)33(54)30(51)24(15-48)60-40/h14,22-41,48-57H,8-13,15-20H2,1-7H3/t22-,23-,24-,25+,26-,27+,28-,29+,30-,31+,32-,33+,34-,35-,36+,37-,38+,39+,40+,41+,43+,44-,45+,46+,47-/m1/s4
Instrument: maXis, Bruker Daltonics
Instrument type: LC-ESI-QTOF
Ms type: MS2
Ion mode: POSITIVE
Collision energy: 40 eV
Ionization: ESI
Column name: Shimadzu Shim-Pack XR-ODS III; C18; 2.2um; 80A; 2.0x150mm
Precursor type: [M+H]+
m/z	relative intensity
123.116200	29
127.038500	17
133.049300	35
135.116400	18
137.132300	10
145.049500	99
149.132500	14
159.116700	10
163.060200	103
163.148300	14
175.148500	12
177.163900	12
187.148300	16
189.164100	18
191.179800	35
201.163700	14
203.180000	25
207.174700	29
229.159000	10
231.138500	10
233.154400	12
241.071000	15
245.153900	15
247.169400	31
259.081400	29
295.102800	36
313.216500	11
313.253200	14
315.232400	37
325.113300	53
357.242900	24
369.279400	64
370.282400	17
373.274300	20
377.320700	11
381.279400	13
387.290200	25
391.284400	25
395.331500	17
399.290200	16
401.320600	10
407.330700	19
409.346800	28
417.300900	12
419.331400	79
420.335000	25
425.342400	41
426.345400	11
437.342500	306
438.345600	102
439.348800	18
455.353100	452
456.356300	141
457.359500	24
473.363900	999
473.446000	11
474.366900	285
475.370000	50
617.406700	35
618.409800	13
635.417800	138
636.420800	53
637.423800	13
767.461200	25
768.465200	11
779.461300	21
797.471900	93
798.475400	45
799.480500	14
911.505200	11
