Mass spectrum: Cytochalasin; LC-ESI-QTOF; MS2; [M+H]+; CE: 50eV
Name: Cytochalasin
Class: Natural Product; Alkaloids
Formula: C30H37NO6
Exact mass: 507.26209
SMILES: C(N3)(=O)C(C1OC(C)=O)(C(C3Cc(c4)cccc4)2)C(C(O)C(C2C)=C)C=CCC(C)C(=O)C(C=C1)(C)O
InChI: InChI=1S/C30H37NO6/c1-17-10-9-13-22-26(33)19(3)18(2)25-23(16-21-11-7-6-8-12-21)31-28(35)30(22,25)24(37-20(4)32)14-15-29(5,36)27(17)34/h6-9,11-15,17-18,22-26,33,36H,3,10,16H2,1-2,4-5H3,(H,31,35)/b13-9+,15-14-/t17?,18-,22-,23?,24+,25?,26-,29+,30?/m0/s1
Instrument: maXis, Bruker Daltonics
Instrument type: LC-ESI-QTOF
Ms type: MS2
Ion mode: POSITIVE
Collision energy: 50 eV
Ionization: ESI
Column name: Shimadzu Shim-Pack XR-ODS III; C18; 2.2um; 80A; 2.0x150mm
Precursor type: [M+H]+
m/z	relative intensity
91.054000	63
105.069200	90
107.084500	33
109.064100	21
111.079800	11
115.053900	17
117.069500	114
118.071200	11
119.085100	153
120.080300	999
121.083600	75
122.105000	10
123.080100	30
128.049000	74
129.069300	82
130.075100	14
131.085200	182
132.080700	100
133.064400	58
133.100700	106
134.096600	29
135.080200	136
136.082800	16
141.069600	52
142.076800	37
143.085300	239
144.089000	34
145.100900	195
146.060000	407
147.080400	136
148.077800	22
149.096100	248
150.098000	22
153.069800	25
154.077200	17
155.085400	164
156.091800	61
157.101100	308
158.060500	25
158.105300	36
159.080400	128
160.076800	44
161.096200	140
162.092500	27
163.111300	55
165.070100	44
166.077600	37
167.085400	116
168.092200	43
169.101100	344
170.105600	49
171.116800	159
172.076000	93
173.096200	114
174.092500	32
175.111900	41
177.090200	13
178.084900	43
179.085600	115
180.092900	80
181.101100	250
182.106900	59
183.116700	186
184.120900	33
185.096100	166
186.092300	66
187.111000	53
189.091100	35
190.086300	20
191.086500	17
192.093800	58
193.101100	198
194.108400	128
195.116800	401
196.122000	99
197.132300	126
198.092000	96
199.111600	111
200.107800	80
201.127200	20
202.086500	32
203.087400	24
204.138300	35
205.101100	52
206.108800	98
207.116800	257
208.124300	206
209.132500	486
210.136600	89
211.147900	97
212.108100	89
213.127100	77
214.123700	58
215.106000	19
217.101500	50
218.108900	76
219.116500	86
220.124400	118
221.132200	220
222.139600	203
223.147600	202
224.115300	73
225.126900	114
226.124900	75
227.143200	104
228.138800	172
229.142600	31
230.110300	24
231.117100	40
232.124500	116
233.131700	122
234.138700	67
235.147900	176
236.119100	207
237.163800	454
238.123100	614
239.126600	111
240.140300	37
241.158100	37
243.117500	24
244.124500	16
245.132400	54
246.136800	25
247.148300	255
248.154200	93
249.126500	74
250.132700	145
251.142600	151
252.141800	48
253.157900	41
254.118100	62
255.174100	91
256.133400	750
257.136000	138
258.138400	30
259.147800	24
260.147700	32
261.126600	40
262.125700	32
263.142800	116
264.140700	70
265.158700	347
266.161900	81
267.171800	25
268.133000	102
269.136900	41
271.147900	32
273.163100	18
274.158700	18
275.143200	48
276.147600	29
277.154800	22
278.154700	86
279.159700	25
280.168900	24
281.134100	17
282.147900	31
283.168600	56
286.161700	17
288.138800	59
290.154700	46
291.158000	17
292.169700	40
293.176700	39
294.150200	21
299.131500	16
300.138700	28
302.154400	36
303.160400	24
304.169900	28
306.148400	40
307.149800	21
310.160000	24
312.140500	17
314.154100	31
316.170500	24
318.185400	43
320.164100	32
321.168500	24
322.171100	16
326.155300	19
328.169400	127
329.174700	45
330.183900	24
332.163800	21
346.180600	142
347.184500	41
356.201600	20
370.217700	28
374.211500	16
384.232200	106
385.236000	24
388.226600	31
389.230500	12
402.243300	114
403.245900	31
412.226900	52
413.229800	17
430.238400	49
431.241800	18
