Mass spectrum: Bacopaside II; LC-ESI-QTOF; MS2; [M+H]+; CE: 50eV
Name: Bacopaside II
Class: Natural Product; Terpenoids
Formula: C47H76O22
Exact mass: 928.50321
SMILES: O(C879)CC(C([H])(C([H])8C(C(CO9)([H])C=C(C)C)(C)O)6)(C7)C(C5)(C([H])(CC6)C(C)(C(C5)4[H])CCC(C4(C)C)OC(O3)C(C(C(O)C3CO)OC(C(O)2)OC(C(C(O)2)O)CO)OC(C(O)1)OC(C(O)1)CO)C
InChI: InChI=1S/C47H76O18/c1-21(2)14-22-18-58-47-19-46(20-59-47)23(38(47)45(22,7)57)8-9-28-43(5)12-11-29(42(3,4)27(43)10-13-44(28,46)6)63-41-37(65-39-34(55)31(52)25(16-49)61-39)36(32(53)26(17-50)62-41)64-40-35(56)33(54)30(51)24(15-48)60-40/h14,22-41,48-57H,8-13,15-20H2,1-7H3/t22-,23-,24-,25+,26-,27+,28-,29+,30-,31+,32-,33+,34-,35-,36+,37-,38+,39+,40+,41+,43+,44-,45+,46+,47-/m1/s5
Instrument: maXis, Bruker Daltonics
Instrument type: LC-ESI-QTOF
Ms type: MS2
Ion mode: POSITIVE
Collision energy: 50 eV
Ionization: ESI
Column name: Shimadzu Shim-Pack XR-ODS III; C18; 2.2um; 80A; 2.0x150mm
Precursor type: [M+H]+
m/z	relative intensity
115.038500	11
119.085300	24
121.100600	43
123.116400	86
124.120200	12
125.095700	31
127.038800	67
127.075000	16
131.085400	14
133.049400	128
133.100800	45
135.116900	111
136.120400	14
137.132300	62
139.111300	11
143.085800	11
145.049700	324
145.101200	30
146.053400	23
147.116900	48
149.096200	16
149.132500	74
151.075700	12
151.111400	11
151.148300	22
153.091300	11
153.127900	17
157.101800	15
159.117200	51
161.132800	56
163.060500	210
163.112100	14
163.148500	80
164.063600	17
164.151800	13
165.091300	15
165.127900	14
165.163900	11
167.106500	17
171.117000	22
173.132900	43
175.112300	10
175.148200	57
177.091300	22
177.127500	15
177.164100	58
179.107200	27
179.143700	23
185.133200	28
187.148600	87
188.152900	14
189.091100	15
189.128600	11
189.164300	103
190.168400	19
191.107200	27
191.144400	15
191.180100	131
192.183500	19
193.122600	15
193.159200	12
193.195300	16
197.133400	14
199.060800	10
199.148900	31
201.129000	11
201.164400	81
202.167800	16
203.107500	16
203.144200	21
203.180200	113
204.183600	18
205.122900	22
205.159300	20
205.195700	28
207.138900	17
207.174800	76
208.178400	13
211.148900	17
213.164700	36
215.143200	17
215.180100	39
217.071800	10
217.122900	17
217.159600	27
217.195500	46
219.138500	35
219.174400	12
219.211500	16
221.154400	24
221.190500	13
223.060500	23
225.164600	15
227.144000	10
227.180100	25
229.158900	41
229.195900	26
231.138800	35
231.175000	24
231.211200	11
233.154300	51
233.190700	12
235.169900	21
239.179800	17
241.071200	38
241.159800	14
241.195600	20
243.175000	18
243.211400	38
245.154000	58
246.157700	11
247.169900	92
248.173400	21
249.184800	12
253.195900	21
255.175700	14
255.211400	45
256.215200	11
257.154500	11
257.190000	25
259.082000	40
259.170200	26
259.206000	10
261.185300	17
265.194800	11
267.175500	12
267.211400	15
269.190900	14
269.227100	21
271.169700	12
271.205900	19
273.185800	23
273.222200	12
275.201700	19
277.091900	11
279.211400	16
281.190000	11
281.227100	16
283.206300	21
283.242400	17
285.185600	24
285.221800	15
287.201500	18
289.092400	13
289.217200	13
293.226700	14
295.103300	28
295.206900	11
295.242400	33
297.222200	30
299.201600	22
299.237200	16
301.217500	34
303.232100	13
309.223800	11
309.258200	23
311.237600	28
313.217400	45
313.253400	57
314.221100	11
314.257000	14
315.232600	132
316.235900	31
321.258400	22
323.273400	20
325.113900	43
327.232400	22
327.268700	20
329.248200	20
331.229400	14
331.263700	30
333.246800	11
337.253300	11
339.233300	18
339.268800	25
341.248600	17
341.284100	18
349.275400	15
351.269300	30
353.249500	10
353.284000	12
355.264500	41
356.267700	12
357.243600	127
357.278100	17
358.246500	31
363.269100	17
367.264200	20
369.279900	218
370.282900	59
371.290200	13
373.274500	62
374.278600	17
375.254500	16
377.321400	44
378.325100	16
381.279700	55
382.283900	17
387.290500	98
388.294000	23
389.320200	10
391.285400	56
391.337000	30
392.288400	14
392.339500	10
395.298100	15
395.331800	52
396.335600	19
399.290000	65
400.294000	17
401.320800	37
402.323500	11
405.301100	24
407.331600	66
408.334000	20
409.347200	73
410.350200	18
417.300900	47
418.304100	13
419.332100	194
420.335600	60
421.339300	12
425.342800	69
426.346400	23
427.354000	13
437.342800	639
438.346200	209
439.349700	34
455.353600	696
456.356400	200
457.359500	35
473.364300	999
474.367600	300
475.370800	55
617.407900	48
618.411000	19
635.417400	128
636.421600	54
637.423600	11
767.461200	13
779.462600	24
780.468500	13
797.473400	60
798.476700	25
911.507300	11
