Mass spectrum: Dehydro-piliformic-acid; LC-ESI-QTOF; MS2; [M+H]+; CE: 10eV
Name: Dehydro-piliformic-acid
Class: Natural Product; Terpenoids
Formula: C11H16O4
Exact mass: 212.10486
SMILES: C=CCCCC=C(C(O)=O)C(C)C(O)=O
InChI: InChI=1S/C11H16O4/c1-3-4-5-6-7-9(11(14)15)8(2)10(12)13/h3,7-8H,1,4-6H2,2H3,(H,12,13)(H,14,15)/b9-7+/t8-/m0/s1
Instrument: maXis, Bruker Daltonics
Instrument type: LC-ESI-QTOF
Ms type: MS2
Ion mode: POSITIVE
Collision energy: 10 eV
Ionization: ESI
Column name: Shimadzu Shim-Pack XR-ODS III; C18; 2.2um; 80A; 2.0x150mm
Precursor type: [M+H]+
m/z	relative intensity
121.100500	94
149.095800	999
150.098900	92
167.106700	277
177.091200	204
195.101500	240
