Mass spectrum: Hulupinic acid; LC-ESI-QTOF; MS2; [M-H]-; CE: 30eV
Name: Hulupinic acid
Class: Natural Product; Terpenoids
Formula: C15H20O11
Exact mass: 264.13623
SMILES: CC(C)=CCC(CC=C(C)C)(C(=O)1)C(=O)C(O)=C(O)8
InChI: InChI=1S/C15H20O4/c1-9(2)5-7-15(8-6-10(3)4)13(18)11(16)12(17)14(15)19/h5-6,16-17H,7-8H2,1-4H10
Instrument: maXis, Bruker Daltonics
Instrument type: LC-ESI-QTOF
Ms type: MS2
Ion mode: NEGATIVE
Collision energy: 30 eV
Ionization: ESI
Column name: Shimadzu Shim-Pack XR-ODS III; C18; 2.2um; 80A; 2.0x150mm
Precursor type: [M-H]-
m/z	relative intensity
123.008400	53
124.988100	43
125.995700	999
126.998900	59
137.996100	65
139.004000	97
151.004300	464
151.040700	69
152.007800	47
165.056700	44
166.064100	29
179.036000	105
180.038900	12
193.051600	220
194.059300	432
195.062700	58
