Mass spectrum: Xanthotoxin; LC-ESI-QTOF; MS2; [M+H]+; CE: 40eV
Name: Xanthotoxin
Class: Natural Product; Phenylpropanoids
Formula: C12H8O4
Exact mass: 216.04226
SMILES: COc(c21)c(O3)c(C=CC(=O)3)cc(cco2)1
InChI: InChI=1S/C12H8O4/c1-14-12-10-8(4-5-15-10)6-7-2-3-9(13)16-11(7)12/h2-6H,1H3
Instrument: maXis, Bruker Daltonics
Instrument type: LC-ESI-QTOF
Ms type: MS2
Ion mode: POSITIVE
Collision energy: 40 eV
Ionization: ESI
Column name: Shimadzu Shim-Pack XR-ODS III; C18; 2.2um; 80A; 2.0x150mm
Precursor type: [M+H]+
m/z	relative intensity
115.053200	11
118.040500	115
119.044000	11
129.033000	16
131.048700	36
145.028400	152
146.036000	162
147.039500	17
157.028400	17
158.035500	11
161.059900	138
162.063300	16
174.031700	999
174.047900	21
174.061400	17
174.081900	13
175.034700	108
176.036700	11
202.026500	176
203.029800	22
