Mass spectrum: (-)-Curcumol; LC-ESI-QTOF; MS2; [M+H]+; CE: 30eV
Name: (-)-Curcumol
Class: Natural Product; Terpenoids
Formula: C15H24O4
Exact mass: 236.17765
SMILES: CC(C)C(C1)C(O)(C2)OC(C(C)3)1C([H])(CC3)C(=C)4
InChI: InChI=1S/C15H24O2/c1-9(2)13-8-14-11(4)5-6-12(14)10(3)7-15(13,16)17-14/h9,11-13,16H,3,5-8H2,1-2,4H3/t11-,12-,13-,14-,15+/m0/s3
Instrument: maXis, Bruker Daltonics
Instrument type: LC-ESI-QTOF
Ms type: MS2
Ion mode: POSITIVE
Collision energy: 30 eV
Ionization: ESI
Column name: Shimadzu Shim-Pack XR-ODS III; C18; 2.2um; 80A; 2.0x150mm
Precursor type: [M+H]+
m/z	relative intensity
117.064300	39
119.080600	130
121.059700	82
121.096000	113
131.081700	74
133.098000	181
135.078700	42
135.113700	999
136.116900	133
145.098800	122
149.130600	64
159.115600	154
161.094600	43
163.111600	88
177.126500	66
191.180200	48
201.165000	52
219.174600	50
