Mass spectrum: 6-Acetoxy-piliformic-acid; LC-ESI-QTOF; MS2; [M+H]+; CE: 30eV
Name: 6-Acetoxy-piliformic-acid
Class: Natural Product; Terpenoids
Formula: C13H20O6
Exact mass: 272.12599
SMILES: CC(=O)OCCCCCC=C(C(O)=O)C(C)C(O)=O
InChI: InChI=1S/C13H20O6/c1-9(12(15)16)11(13(17)18)7-5-3-4-6-8-19-10(2)14/h7,9H,3-6,8H2,1-2H3,(H,15,16)(H,17,18)/b11-7+/t9-/m0/s1
Instrument: maXis, Bruker Daltonics
Instrument type: LC-ESI-QTOF
Ms type: MS2
Ion mode: POSITIVE
Collision energy: 30 eV
Ionization: ESI
Column name: Shimadzu Shim-Pack XR-ODS III; C18; 2.2um; 80A; 2.0x150mm
Precursor type: [M+H]+
m/z	relative intensity
93.069900	78
107.085200	40
111.043400	50
121.100800	525
122.105100	46
123.116700	41
125.059400	181
131.085400	149
139.111600	76
149.096000	999
150.099700	122
167.106700	269
168.110800	28
177.091000	172
195.101600	34
