Mass spectrum: Dioscin; LC-ESI-QTOF; MS2; [M+H]+; CE: 20eV
Name: Dioscin
Class: Natural Product; Steroids
Formula: C45H72O16
Exact mass: 868.48204
SMILES: [C@@]([H])([C@@]([H])49)(C1)[C@](CC[C@@]4([C@](C5=CC9)(CC[C@H](O[C@H](O7)[C@H](O[C@H](O8)[C@H](O)[C@H](O)[C@H]([C@@H]8C)O)[C@@H](O)[C@@H]([C@H]7CO)O[C@@H]([C@H](O)6)O[C@H]([C@H](O)[C@H]6O)C)C5)C)[H])([C@]([C@H](C)2)([H])[C@](O[C@@]2(C3)OC[C@@H](C3)C)([H])1)C
InChI: InChI=1S/C45H72O16/c1-19-9-14-45(54-18-19)20(2)30-28(61-45)16-27-25-8-7-23-15-24(10-12-43(23,5)26(25)11-13-44(27,30)6)57-42-39(60-41-36(52)34(50)32(48)22(4)56-41)37(53)38(29(17-46)58-42)59-40-35(51)33(49)31(47)21(3)55-40/h7,19-22,24-42,46-53H,8-18H2,1-6H3/t19-,20+,21+,22+,24+,25-,26+,27+,28+,29-,30+,31+,32+,33-,34-,35-,36-,37+,38-,39-,40+,41+,42-,43+,44+,45-/m1/s1
Instrument: maXis, Bruker Daltonics
Instrument type: LC-ESI-QTOF
Ms type: MS2
Ion mode: POSITIVE
Collision energy: 20 eV
Ionization: ESI
Column name: Shimadzu Shim-Pack XR-ODS III; C18; 2.2um; 80A; 2.0x150mm
Precursor type: [M+H]+
m/z	relative intensity
129.054900	95
147.065600	100
253.195300	56
257.102900	62
273.096800	58
293.123500	380
294.127300	60
309.118400	145
397.310500	381
398.314100	120
415.321400	352
416.324300	109
455.176800	80
577.374600	111
869.491000	999
870.494900	567
871.498100	173
