Mass spectrum: Isosilybin B; LC-ESI-QTOF; MS2; [M-H]-; CE: 30eV
Name: Isosilybin B
Class: Natural Product; Flavonoids
Formula: C25H22O10
Exact mass: 482.12130
SMILES: COc(c(O)5)cc(cc5)C(O1)C(CO)Oc(c2)c(ccc2[C@@H](O3)[C@@H](O)C(=O)c(c(O)4)c(cc(O)c4)3)1
InChI: InChI=1S/C25H22O10/c1-32-17-6-11(2-4-14(17)28)24-20(10-26)33-18-7-12(3-5-16(18)34-24)25-23(31)22(30)21-15(29)8-13(27)9-19(21)35-25/h2-9,20,23-29,31H,10H2,1H3/t20?,23-,24?,25+/m0/s1
Instrument: maXis, Bruker Daltonics
Instrument type: LC-ESI-QTOF
Ms type: MS2
Ion mode: NEGATIVE
Collision energy: 30 eV
Ionization: ESI
Column name: Shimadzu Shim-Pack XR-ODS III; C18; 2.2um; 80A; 2.0x150mm
Precursor type: [M-H]-
m/z	relative intensity
125.024400	999
126.027900	60
139.040200	13
147.009000	21
147.045500	28
149.024800	27
151.004000	115
152.011700	249
153.018900	67
161.061100	10
171.045700	22
178.999100	185
179.071800	60
180.006700	272
181.013600	63
187.040600	38
189.056000	21
191.035300	16
201.055900	15
213.056200	59
214.062200	16
215.035400	102
215.071400	13
216.041700	36
217.050400	21
229.051000	104
230.056800	29
231.066200	18
255.030000	21
255.066800	12
256.037200	10
257.045900	332
258.052400	135
259.059800	51
271.024900	24
271.061500	11
272.031700	11
273.040600	194
273.076600	19
274.047300	90
275.053200	22
283.025100	163
284.032000	160
285.038200	44
287.056000	18
289.071800	16
299.055900	11
301.035400	298
302.039900	63
365.102700	11
377.103000	19
395.113000	16
397.092400	12
407.113200	24
409.127900	10
419.112900	23
423.107800	61
424.111000	19
433.091900	15
435.107800	233
436.111300	61
437.122500	60
438.126400	18
445.092000	25
451.102400	25
453.118400	833
454.121800	234
455.124400	43
463.102600	116
464.105800	34
481.113300	771
482.116500	220
483.119100	40
