Mass spectrum: Erucamide; LC-ESI-QTOF; MS2; [M+H]+; CE: 30eV
Name: Erucamide
Class: Natural Product; Acyle amide
Formula: C22H43NO
Exact mass: 337.334465
SMILES: NC(=O)CCCCCCCCCCC/C=C\CCCCCCCC
InChI: InChI=1S/C22H43NO/c1-2-3-4-5-6-7-8-9-10-11-12-13-14-15-16-17-18-19-20-21-22(23)24/h9-10H,2-8,11-21H2,1H3,(H2,23,24)/b10-9-
Instrument: maXis, Bruker Daltonics
Instrument type: LC-ESI-QTOF
Ms type: MS2
Ion mode: POSITIVE
Collision energy: 30 eV
Ionization: ESI
Column name: Shimadzu Shim-Pack XR-ODS III; C18; 2.2um; 80A; 2.0x150mm
Precursor type: [M+H]+
m/z	relative intensity
95.086400	153
97.102000	342
100.076200	219
107.085900	197
109.101500	388
111.117100	513
114.091600	986
121.101200	842
123.117000	360
125.096300	582
128.107200	665
135.116900	999
136.120300	115
137.132500	150
139.111900	461
142.122900	535
149.132700	829
153.127600	307
156.138500	329
163.148400	402
167.143200	202
170.154200	233
177.163800	262
181.159000	134
184.170000	139
191.179700	124
198.185800	115
212.200700	89
296.331200	135
303.305200	167
321.314800	127
338.341800	263
