Mass spectrum: Isosilybin B; LC-ESI-QTOF; MS2; [M+H]+; CE: 20eV
Name: Isosilybin B
Class: Natural Product; Flavonoids
Formula: C25H22O10
Exact mass: 482.12130
SMILES: COc(c(O)5)cc(cc5)C(O1)C(CO)Oc(c2)c(ccc2[C@@H](O3)[C@@H](O)C(=O)c(c(O)4)c(cc(O)c4)3)1
InChI: InChI=1S/C25H22O10/c1-32-17-6-11(2-4-14(17)28)24-20(10-26)33-18-7-12(3-5-16(18)34-24)25-23(31)22(30)21-15(29)8-13(27)9-19(21)35-25/h2-9,20,23-29,31H,10H2,1H3/t20?,23-,24?,25+/m0/s1
Instrument: maXis, Bruker Daltonics
Instrument type: LC-ESI-QTOF
Ms type: MS2
Ion mode: POSITIVE
Collision energy: 20 eV
Ionization: ESI
Column name: Shimadzu Shim-Pack XR-ODS III; C18; 2.2um; 80A; 2.0x150mm
Precursor type: [M+H]+
m/z	relative intensity
123.039000	14
131.045200	129
132.049200	15
133.024800	11
135.040300	19
137.056700	221
138.060500	17
139.035900	10
147.042200	382
148.045700	36
149.021600	65
149.058400	28
150.065000	15
151.073500	33
152.080700	11
153.017000	999
154.020300	79
155.022200	12
161.059000	108
162.066900	225
163.074800	426
164.078200	38
165.054300	51
167.033400	57
177.018600	31
177.054900	102
178.061400	27
179.034900	14
179.070400	97
180.078400	135
181.083400	20
187.039700	16
195.029900	561
196.033400	55
197.034500	10
203.034500	24
229.051100	18
233.045300	19
239.071800	26
241.051200	23
241.088300	12
242.057600	13
251.072400	17
253.087200	12
255.066700	11
257.046100	168
258.049900	27
259.059800	14
259.097900	29
269.045400	17
269.081700	16
271.097900	90
272.101100	17
279.066900	14
281.082000	22
283.061700	159
283.097700	175
284.065100	29
284.100700	33
285.041300	42
285.076600	63
286.045200	11
287.056100	36
289.071400	56
290.075900	12
293.081700	14
295.061200	63
296.065200	14
299.056100	13
299.092100	17
301.071800	27
301.107700	45
302.110700	12
303.050300	14
309.076600	14
311.056000	440
311.090100	22
312.059300	75
313.070500	92
314.074400	17
315.050200	25
321.076400	12
323.055600	40
327.086600	46
328.090900	11
329.066100	395
330.069100	65
331.070500	13
339.086100	23
341.065400	101
342.067900	20
357.097100	47
358.099700	14
359.076000	87
360.078700	16
363.084500	17
377.101300	12
387.085700	46
388.088600	13
391.117300	38
392.120700	11
405.095500	14
407.111700	76
408.114200	19
409.126900	19
415.079300	16
417.095000	12
419.111400	399
420.114400	107
421.117200	17
423.105800	13
429.095600	12
433.089800	51
434.094600	15
435.105600	323
436.110200	98
437.121400	338
438.124900	86
439.126700	16
447.105900	234
448.108900	64
449.111300	12
453.116200	63
454.119500	17
464.109800	13
465.116100	422
466.119400	107
467.121800	20
483.127000	309
484.129900	74
485.133100	18
