Mass spectrum: Scopoletin; LC-ESI-QTOF; MS2; [M+H]+; CE: 30eV
Name: Scopoletin
Class: Natural Product; Phenylpropanoids
Formula: C10H8O4
Exact mass: 192.04226
SMILES: COc(c1)c(O)cc(O2)c(C=CC(=O)2)1
InChI: InChI=1S/C10H8O4/c1-13-9-4-6-2-3-10(12)14-8(6)5-7(9)11/h2-5,11H,1H3
Instrument: maXis, Bruker Daltonics
Instrument type: LC-ESI-QTOF
Ms type: MS2
Ion mode: POSITIVE
Collision energy: 30 eV
Ionization: ESI
Column name: Shimadzu Shim-Pack XR-ODS III; C18; 2.2um; 80A; 2.0x150mm
Precursor type: [M+H]+
m/z	relative intensity
121.024600	20
122.032700	256
123.036400	22
133.026200	578
134.030100	69
137.057700	273
138.061200	30
149.058600	25
150.030300	466
151.034000	53
161.022800	34
165.054200	22
178.026400	999
179.029800	109
193.050400	194
194.054100	28
196.036600	15
