Mass spectrum: Carbamazepine; LC-ESI-QTOF; MS2; [M+H]+; CE: 30eV
Name: Carbamazepine
Class: Non Natural Product; Drug
Formula: C15H12N2O
Exact mass: 236.09496
SMILES: NC(=O)N(c21)c(c3)c(ccc3)C=Cc(cccc2)1
InChI: InChI=1S/C15H12N2O/c16-15(18)17-13-7-3-1-5-11(13)9-10-12-6-2-4-8-14(12)17/h1-10H,(H2,16,18)
Instrument: maXis, Bruker Daltonics
Instrument type: LC-ESI-QTOF
Ms type: MS2
Ion mode: POSITIVE
Collision energy: 30 eV
Ionization: ESI
Column name: Shimadzu Shim-Pack XR-ODS III; C18; 2.2um; 80A; 2.0x150mm
Precursor type: [M+H]+
m/z	relative intensity
165.069900	29
167.084600	17
179.072700	54
191.072700	21
192.080900	296
193.087700	166
194.096600	999
195.099800	151
196.103000	11
