Mass spectrum: Hexahydrocurcumin; LC-ESI-QTOF; MS2; [M-H]-; CE: 50eV
Name: Hexahydrocurcumin
Class: Natural Product; Phenols
Formula: C21H26O6
Exact mass: 374.17294
SMILES: COc(c1)c(O)ccc(CCC(O)CC(=O)CCc(c2)cc(OC)c(O)c2)1
InChI: InChI=1S/C21H26O6/c1-26-20-11-14(5-9-18(20)24)3-7-16(22)13-17(23)8-4-15-6-10-19(25)21(12-15)27-2/h5-6,9-12,16,22,24-25H,3-4,7-8,13H2,1-2H3
Instrument: maXis, Bruker Daltonics
Instrument type: LC-ESI-QTOF
Ms type: MS2
Ion mode: NEGATIVE
Collision energy: 50 eV
Ionization: ESI
Column name: Shimadzu Shim-Pack XR-ODS III; C18; 2.2um; 80A; 2.0x150mm
Precursor type: [M-H]-
m/z	relative intensity
121.028900	960
122.034200	92
123.044400	38
134.037400	152
135.045100	587
136.050000	55
137.060700	37
145.030100	14
146.037800	29
147.044900	11
149.061300	96
150.064900	13
159.046300	12
160.053800	29
161.025200	30
161.061300	20
162.032900	81
163.040800	507
164.048600	999
165.053700	130
166.056900	11
176.048800	35
177.056800	475
178.063200	124
179.072300	385
180.076000	50
191.072200	16
193.088200	12
203.072700	15
204.079500	12
