Mass spectrum: Lycorine-diacetate; LC-ESI-QTOF; MS2; [M+H]+; CE: 40eV
Name: Lycorine-diacetate
Class: Non Natural Product; Isoquinoline alkaloids
Formula: C20H21NO6
Exact mass: 371.13689
SMILES: CC(=O)OC(C=5)C(OC(C)=O)C([H])(c21)C([H])(C45)N(CC4)Cc(cc(O3)c(OC3)c2)1
InChI: InChI=1S/C20H21NO6/c1-10(22)26-17-5-12-3-4-21-8-13-6-15-16(25-9-24-15)7-14(13)18(19(12)21)20(17)27-11(2)23/h5-7,17-20H,3-4,8-9H2,1-2H3/t17-,18-,19+,20+/m0/s1
Instrument: maXis, Bruker Daltonics
Instrument type: LC-ESI-QTOF
Ms type: MS2
Ion mode: POSITIVE
Collision energy: 40 eV
Ionization: ESI
Column name: Shimadzu Shim-Pack XR-ODS III; C18; 2.2um; 80A; 2.0x150mm
Precursor type: [M+H]+
m/z	relative intensity
110.059400	31
134.059900	69
135.043800	17
147.044100	87
159.044200	54
165.070000	19
167.085700	41
173.060000	17
175.039100	21
177.054900	65
180.080800	16
185.060200	19
193.088600	33
194.096700	580
195.100100	88
199.076000	19
211.075100	22
212.107100	21
220.076100	34
221.083000	29
222.091700	999
223.095000	173
224.071300	29
225.090800	59
237.078500	21
240.101900	32
241.086200	27
250.086700	362
251.090900	69
252.102200	452
253.105700	86
270.112900	228
271.116600	36
