Mass spectrum: Hulupinic acid; LC-ESI-QTOF; MS2; [M+H]+; CE: 40eV
Name: Hulupinic acid
Class: Natural Product; Terpenoids
Formula: C15H20O7
Exact mass: 264.13619
SMILES: CC(C)=CCC(CC=C(C)C)(C(=O)1)C(=O)C(O)=C(O)4
InChI: InChI=1S/C15H20O4/c1-9(2)5-7-15(8-6-10(3)4)13(18)11(16)12(17)14(15)19/h5-6,16-17H,7-8H2,1-4H6
Instrument: maXis, Bruker Daltonics
Instrument type: LC-ESI-QTOF
Ms type: MS2
Ion mode: POSITIVE
Collision energy: 40 eV
Ionization: ESI
Column name: Shimadzu Shim-Pack XR-ODS III; C18; 2.2um; 80A; 2.0x150mm
Precursor type: [M+H]+
m/z	relative intensity
115.053500	422
116.059300	92
117.068900	265
118.072500	41
119.048100	63
119.084300	59
121.027200	44
121.064100	619
122.067400	74
123.043300	39
125.058800	44
127.038300	67
127.053300	65
128.061600	95
129.068900	123
130.040900	40
130.075700	41
131.048600	725
131.084700	226
132.053600	103
132.088800	38
133.064100	93
134.035400	38
135.043100	99
135.080100	373
136.083100	46
137.059000	40
139.038700	259
139.074900	139
141.017900	671
141.069200	99
142.021200	67
142.075800	43
143.048800	40
143.085000	70
144.056500	184
145.064500	968
145.100300	48
146.068300	110
147.043400	65
148.051100	56
149.023600	44
149.059400	999
149.096100	82
150.062700	124
153.054700	188
153.090200	47
155.033600	204
155.060200	167
155.085100	36
158.071800	38
159.043800	428
159.080100	302
160.049200	74
160.084100	54
161.059300	88
162.030900	55
162.066400	46
163.038600	168
163.075200	303
164.043100	37
164.078200	45
167.033700	58
167.070200	276
168.092200	38
169.073600	35
173.059400	356
173.131600	33
174.062800	59
176.046500	98
177.054500	511
177.090700	61
178.058400	65
180.041400	52
181.048900	43
181.065200	33
181.085800	97
187.075400	120
190.062300	42
191.070000	138
192.073600	34
194.057000	39
195.064900	64
205.086700	39
