Mass spectrum: Lycorine; LC-ESI-QTOF; MS2; [M+H]+; CE: 40eV
Name: Lycorine
Class: Natural Product; Alkaloids
Formula: C16H17NO4
Exact mass: 287.11576
SMILES: O[C@@H](C=5)[C@@H](O)[C@@]([H])(c21)[C@@]([H])(C45)N(CC4)Cc(cc(O3)c(OC3)c2)1
InChI: InChI=1S/C16H17NO4/c18-11-3-8-1-2-17-6-9-4-12-13(21-7-20-12)5-10(9)14(15(8)17)16(11)19/h3-5,11,14-16,18-19H,1-2,6-7H2/t11-,14-,15+,16+/m0/s1
Instrument: maXis, Bruker Daltonics
Instrument type: LC-ESI-QTOF
Ms type: MS2
Ion mode: POSITIVE
Collision energy: 40 eV
Ionization: ESI
Column name: Shimadzu Shim-Pack XR-ODS III; C18; 2.2um; 80A; 2.0x150mm
Precursor type: [M+H]+
m/z	relative intensity
111.067300	21
112.075200	21
119.048800	467
120.052200	40
124.075200	27
134.059600	27
135.043800	29
136.050800	13
147.044000	999
148.047300	110
149.059200	44
159.044300	12
165.054700	11
177.054900	98
184.112100	10
194.096500	41
212.107100	30
222.091700	42
225.078900	20
226.085900	15
227.093800	10
240.101900	22
242.117300	15
250.086400	13
252.101500	17
270.112600	44
288.123200	38
