Mass spectrum: Isosilybin A; LC-ESI-QTOF; MS2; [M-H]-; CE: 50eV
Name: Isosilybin A
Class: Natural Product; Flavonoids
Formula: C25H22O19
Exact mass: 482.12139
SMILES: COc(c(O)5)cc(cc5)C(O1)C(CO)Oc(c2)c(ccc2C(O3)C(O)C(=O)c(c(O)4)c(cc(O)c4)3)10
InChI: InChI=1S/C25H22O10/c1-32-17-6-11(2-4-14(17)28)24-20(10-26)33-18-7-12(3-5-16(18)34-24)25-23(31)22(30)21-15(29)8-13(27)9-19(21)35-25/h2-9,20,23-29,31H,10H2,1H3/t20-,23+,24-,25-/m1/s10
Instrument: maXis, Bruker Daltonics
Instrument type: LC-ESI-QTOF
Ms type: MS2
Ion mode: NEGATIVE
Collision energy: 50 eV
Ionization: ESI
Column name: Shimadzu Shim-Pack XR-ODS III; C18; 2.2um; 80A; 2.0x150mm
Precursor type: [M-H]-
m/z	relative intensity
121.029100	85
122.036100	21
123.044300	10
124.016300	149
125.024200	877
126.027600	61
133.030100	10
134.037500	30
135.044900	22
136.016600	17
137.024400	30
139.040300	31
143.050700	20
145.030100	58
146.037900	121
147.009300	46
147.045100	77
148.016800	19
149.025000	139
149.061300	28
150.031800	25
151.004400	504
151.040600	19
152.012200	999
153.018400	145
154.020300	11
157.066700	18
158.038700	10
159.046100	88
160.052300	20
161.025400	33
161.061600	58
162.033200	27
163.004700	31
163.041000	73
164.012400	23
164.048700	92
165.020300	27
165.054700	11
167.051300	12
169.015000	17
171.046300	52
172.053000	15
173.025500	16
173.061500	28
174.032800	23
175.041200	42
177.020300	14
177.056800	19
178.999900	178
179.072400	63
180.007000	89
181.013300	13
183.046000	29
185.061700	43
186.033200	11
187.041300	164
188.048300	59
189.020300	21
189.056700	73
190.028100	16
190.061500	11
191.036000	90
192.042800	23
193.051300	28
199.040900	24
200.048000	14
201.056800	87
202.062800	25
203.036200	24
203.071600	13
205.051900	38
211.041200	66
212.048200	27
213.056700	42
214.028200	21
214.064300	21
215.036300	100
215.071200	11
216.043500	76
217.015400	12
217.051200	43
227.036100	89
228.042400	30
229.051700	164
230.057900	50
231.031000	17
231.066800	46
233.046300	12
239.035500	23
240.043400	16
241.050800	13
243.030700	17
244.037800	12
245.046200	56
255.030700	125
256.037600	64
257.045700	67
258.053000	49
259.060400	22
271.024800	18
272.033100	13
273.041100	363
274.045700	76
275.051600	12
283.025000	48
284.032700	100
285.038500	28
299.055900	13
301.035400	140
302.039100	24
