Mass spectrum: Bacoside A3; LC-ESI-QTOF; MS2; [M+H]+; CE: 50eV
Name: Bacoside A3
Class: Natural Product; Terpenoids
Formula: C47H76O22
Exact mass: 928.50321
SMILES: CC(C)=CC(C9)OC(O2)(C1)C(C9(C)O)(C(C8)([H])C(C(C7)(C)C(C8)([H])C(C6)(C([H])(C7)C(C(C6)OC(C(OC(C(O)5)OC(C(O)5)CO)3)OC(CO)C(C3OC(C(O)4)OC(C(C(O)4)O)CO)O)(C)C)C)1C2)[H]
InChI: InChI=1S/C47H76O18/c1-21(2)14-22-15-45(7,57)38-23-8-9-28-43(5)12-11-29(42(3,4)27(43)10-13-44(28,6)46(23)19-47(38,65-22)58-20-46)62-41-37(64-39-34(55)31(52)25(17-49)60-39)36(32(53)26(18-50)61-41)63-40-35(56)33(54)30(51)24(16-48)59-40/h14,22-41,48-57H,8-13,15-20H2,1-7H3/t22-,23+,24+,25-,26+,27-,28+,29-,30+,31-,32+,33-,34+,35+,36-,37+,38-,39-,40-,41-,43-,44+,45-,46-,47-/m0/s5
Instrument: maXis, Bruker Daltonics
Instrument type: LC-ESI-QTOF
Ms type: MS2
Ion mode: POSITIVE
Collision energy: 50 eV
Ionization: ESI
Column name: Shimadzu Shim-Pack XR-ODS III; C18; 2.2um; 80A; 2.0x150mm
Precursor type: [M+H]+
m/z	relative intensity
115.033700	18
119.080500	29
121.096700	60
123.112700	216
124.116000	24
127.035300	130
128.039000	11
131.081900	12
133.046700	219
133.098300	61
134.049700	14
135.077700	11
135.114200	136
136.117800	15
137.130000	92
138.134000	11
139.073100	13
143.083900	13
145.048000	534
145.099400	43
146.051300	40
147.115500	63
148.118300	12
149.094900	11
149.131200	112
150.134800	16
151.074200	17
151.111100	11
151.146900	26
153.090200	19
153.126300	14
157.100500	16
159.116400	75
160.119400	13
161.096100	13
161.132100	83
162.136100	13
163.059900	365
163.147700	104
164.063400	23
164.151000	14
165.090900	28
165.126800	12
165.163900	13
167.106500	13
169.049700	10
171.117500	26
173.132900	60
174.136200	11
175.113000	10
175.148800	82
176.152100	11
177.091500	42
177.128100	17
177.164300	62
178.167900	13
179.107000	37
179.143300	26
179.180100	13
181.072800	10
181.122600	11
185.133300	37
187.060800	10
187.113100	11
187.149200	127
188.152100	19
189.092300	29
189.129100	11
189.164900	125
190.168500	23
191.108000	50
191.145300	14
191.180500	178
192.183900	26
193.050200	13
193.123400	22
193.159700	11
193.196300	25
197.134000	12
199.061500	21
199.149400	34
201.128700	15
201.165000	113
202.168800	19
203.108200	22
203.144900	22
203.180900	167
204.184500	28
205.072200	12
205.123600	27
205.160300	16
205.196500	36
207.139300	24
207.175800	29
211.061200	16
211.149300	16
213.128600	10
213.165100	35
215.145400	13
215.181000	48
216.184300	11
217.072200	19
217.123700	22
217.161000	17
217.196700	71
218.199800	12
219.139300	54
219.176800	12
219.212600	23
220.142900	14
221.155200	39
221.192000	20
223.061700	42
225.165800	16
227.145200	14
227.180900	31
229.072700	13
229.123800	11
229.159900	23
229.196800	33
231.139500	63
231.176300	12
231.212200	15
232.142600	12
233.155300	70
234.158400	14
235.171200	30
239.181200	16
241.072500	69
241.161300	12
241.196900	30
243.138800	13
243.176900	12
243.212800	36
245.155200	86
246.159300	18
247.083800	10
247.171000	217
247.206800	12
248.174600	38
249.186000	17
253.197100	27
255.176500	12
255.212400	43
256.215800	12
257.155400	14
257.192000	12
257.228200	18
259.083300	76
259.171100	37
260.086300	11
261.186800	29
267.212900	21
269.228400	26
271.171600	23
271.206700	12
271.244500	10
273.186900	29
273.222500	12
275.202200	32
277.093600	21
279.211900	13
281.227600	15
283.206000	12
283.242100	10
285.186500	33
285.222100	17
287.202100	25
287.237300	11
289.094000	19
289.217600	21
295.103700	34
295.207100	11
295.243700	16
297.223000	27
299.201700	38
300.205600	11
301.217300	53
302.220900	14
303.232700	22
307.242600	10
309.259000	27
310.263000	10
313.217600	74
313.254100	34
314.220700	16
315.233100	212
316.236200	49
317.243800	11
321.258800	16
323.274700	24
325.114200	45
327.232600	27
327.268600	24
329.248700	14
331.227600	19
331.263400	11
333.245100	18
335.273900	13
337.252700	16
337.288900	12
339.234000	10
339.268600	12
341.248500	24
341.283900	14
343.263500	13
351.268100	25
353.248500	15
353.283300	16
355.263300	72
356.268300	24
363.270200	12
367.263000	26
368.268300	10
369.279200	277
370.282700	71
371.291300	26
373.274000	172
374.277400	46
377.286300	11
377.320500	80
378.323900	28
381.278900	62
382.282100	17
387.289500	83
388.292800	24
391.284200	207
391.336500	43
392.287600	54
392.340100	15
395.297100	27
395.330900	79
396.333900	26
399.289300	26
401.320200	19
407.331500	11
409.346100	99
410.350000	31
411.359100	14
413.304000	10
419.330300	87
420.333900	30
437.341100	999
438.344400	301
439.346700	48
455.351500	922
456.354900	298
457.358200	48
467.351100	10
479.350700	11
485.324500	37
486.327900	14
533.362600	17
551.372000	12
553.336000	17
617.404600	64
618.408800	28
779.465700	20
