Mass spectrum: Azadirachtin; LC-ESI-QTOF; MS2; [M+H]+; CE: 20eV
Name: Azadirachtin
Class: Natural Product; Terpenoids
Formula: C35H44O16
Exact mass: 720.26294
SMILES: O([C@@](C)31)[C@]1([C@]([C@H](O)6)([C@@]([C@@](O)(C(OC)=O)8)([H])[C@](CO8)([C@@]5([H])7)[C@H](C[C@H]([C@@](CO[C@@]67[H])5C(=O)OC)OC(C)=O)OC(C(C)=CC)=O)C)[C@H](C4)O[C@@]([H])([C@@]2(O)[C@@H]34)OC=C2
InChI: InChI=1S/C35H44O16/c1-8-15(2)24(38)49-18-12-19(48-16(3)36)32(26(39)43-6)13-46-21-22(32)31(18)14-47-34(42,27(40)44-7)25(31)29(4,23(21)37)35-20-11-17(30(35,5)51-35)33(41)9-10-45-28(33)50-20/h8-10,17-23,25,28,37,41-42H,11-14H2,1-7H3/b15-8+/t17-,18+,19-,20+,21-,22-,23-,25+,28+,29-,30+,31+,32+,33+,34+,35+/m1/s1
Instrument: maXis, Bruker Daltonics
Instrument type: LC-ESI-QTOF
Ms type: MS2
Ion mode: POSITIVE
Collision energy: 20 eV
Ionization: ESI
Column name: Shimadzu Shim-Pack XR-ODS III; C18; 2.2um; 80A; 2.0x150mm
Precursor type: [M+H]+
m/z	relative intensity
269.081000	13
301.108000	13
329.102100	28
389.123900	37
390.128000	11
405.119600	21
421.165300	12
433.114300	21
447.130200	18
463.140000	12
465.140600	56
466.143400	15
481.152300	15
481.187100	17
483.165800	14
495.166100	15
497.145800	14
499.159300	13
501.176700	11
507.165800	60
508.169300	19
511.159000	14
515.155600	10
525.142500	49
525.176000	52
526.147300	17
526.179800	20
529.171300	15
533.166000	13
543.152800	53
543.186200	38
544.154800	13
544.190200	11
549.177300	10
553.171700	12
555.187600	10
561.163400	31
561.196300	11
562.166300	11
567.187000	141
568.189500	40
569.194300	12
571.182500	16
585.198700	576
586.201500	178
587.204600	45
589.192500	15
603.178800	59
603.208700	86
604.177400	19
604.210500	31
621.185900	49
621.219500	36
622.186900	18
622.223200	12
625.226600	18
661.215900	32
662.217700	11
667.240600	22
679.227300	15
685.251800	126
686.255300	52
687.253800	16
689.246600	48
703.262800	999
704.266100	367
705.268400	97
706.270600	14
707.258000	89
708.259000	14
720.288500	26
721.239300	473
722.242100	167
723.244700	50
724.230600	13
725.267500	58
