Mass spectrum: Piliformic-acid; LC-ESI-QTOF; MS2; [M+H]+; CE: 40eV
Name: Piliformic-acid
Class: Natural Product; Terpenoids
Formula: C11H18O4
Exact mass: 214.12051
SMILES: CCCCCC=C(C(O)=O)C(C)C(O)=O
InChI: InChI=1S/C11H18O4/c1-3-4-5-6-7-9(11(14)15)8(2)10(12)13/h7-8H,3-6H2,1-2H3,(H,12,13)(H,14,15)/b9-7+/t8-/m0/s1
Instrument: maXis, Bruker Daltonics
Instrument type: LC-ESI-QTOF
Ms type: MS2
Ion mode: POSITIVE
Collision energy: 40 eV
Ionization: ESI
Column name: Shimadzu Shim-Pack XR-ODS III; C18; 2.2um; 80A; 2.0x150mm
Precursor type: [M+H]+
m/z	relative intensity
105.069500	414
123.115400	999
