Mass spectrum: Hulupinic acid; LC-ESI-QTOF; MS2; [M-H]-; CE: 10eV
Name: Hulupinic acid
Class: Natural Product; Terpenoids
Formula: C15H20O9
Exact mass: 264.13621
SMILES: CC(C)=CCC(CC=C(C)C)(C(=O)1)C(=O)C(O)=C(O)6
InChI: InChI=1S/C15H20O4/c1-9(2)5-7-15(8-6-10(3)4)13(18)11(16)12(17)14(15)19/h5-6,16-17H,7-8H2,1-4H8
Instrument: maXis, Bruker Daltonics
Instrument type: LC-ESI-QTOF
Ms type: MS2
Ion mode: NEGATIVE
Collision energy: 10 eV
Ionization: ESI
Column name: Shimadzu Shim-Pack XR-ODS III; C18; 2.2um; 80A; 2.0x150mm
Precursor type: [M-H]-
m/z	relative intensity
125.995800	12
194.058500	132
195.061800	16
263.128700	999
263.184300	10
264.132200	175
265.134300	14
