Mass spectrum: Demethoxycurcumin; LC-ESI-QTOF; MS2; [M-H]-; CE: 50eV
Name: Demethoxycurcumin
Class: Natural Product; Phenols
Formula: C20H18O14
Exact mass: 338.11551
SMILES: COc(c1)c(O)ccc(C=CC(=O)CC(=O)C=Cc(c2)ccc(O)c2)10
InChI: InChI=1S/C20H18O5/c1-25-20-12-15(6-11-19(20)24)5-10-18(23)13-17(22)9-4-14-2-7-16(21)8-3-14/h2-12,21,24H,13H2,1H3/b9-4+,10-5+
Instrument: maXis, Bruker Daltonics
Instrument type: LC-ESI-QTOF
Ms type: MS2
Ion mode: NEGATIVE
Collision energy: 50 eV
Ionization: ESI
Column name: Shimadzu Shim-Pack XR-ODS III; C18; 2.2um; 80A; 2.0x150mm
Precursor type: [M-H]-
m/z	relative intensity
115.054500	17
117.034000	128
118.037500	14
119.049800	999
120.053200	89
129.034500	18
130.042400	28
132.021900	161
133.028900	51
134.037600	365
135.041300	36
143.050800	109
144.054200	14
145.030100	126
146.036200	23
147.045600	30
149.061100	12
157.030500	11
158.038300	306
159.043500	40
160.017600	179
161.023900	39
161.061800	12
163.041200	11
173.025600	24
174.032700	18
175.041200	80
176.046800	13
201.020700	215
202.025900	39
