Mass spectrum: Isosilybin A; LC-ESI-QTOF; MS2; [M-H]-; CE: 30eV
Name: Isosilybin A
Class: Natural Product; Flavonoids
Formula: C25H22O10
Exact mass: 482.12137
SMILES: COc(c(O)5)cc(cc5)C(O1)C(CO)Oc(c2)c(ccc2C(O3)C(O)C(=O)c(c(O)4)c(cc(O)c4)3)1
InChI: InChI=1S/C25H22O10/c1-32-17-6-11(2-4-14(17)28)24-20(10-26)33-18-7-12(3-5-16(18)34-24)25-23(31)22(30)21-15(29)8-13(27)9-19(21)35-25/h2-9,20,23-29,31H,10H2,1H3/t20-,23+,24-,25-/m1/s1
Instrument: maXis (Bruker Daltonics)
Instrument type: LC-ESI-QTOF
Ms type: MS2
Ion mode: NEGATIVE
Collision energy: 30 eV
Ionization: ESI
Column name: Shimadzu Shim-Pack XR-ODS III; C18; 2.2um; 80A; 2.0x150mm
Precursor type: [M-H]-
m/z	relative intensity
121.029500	11
124.016500	11
125.024500	999
126.027900	62
139.040600	13
147.009500	21
147.045800	24
149.025200	26
151.004600	115
152.012400	233
153.019600	69
171.046100	20
178.999800	186
179.072600	53
180.007500	273
181.014400	64
185.062100	10
187.041300	38
189.057000	19
191.036200	15
201.056900	16
213.057100	57
214.063200	18
215.036400	104
216.042700	36
217.051200	20
229.051900	113
230.057700	24
231.067000	19
255.030800	20
255.067600	12
256.038000	12
257.046600	322
258.053100	139
259.060700	49
271.025400	26
271.062100	11
272.032600	11
273.041200	189
273.077500	22
274.048000	95
275.053400	20
283.025400	178
284.032600	151
285.038800	39
287.056400	16
289.072300	18
301.035700	253
302.040100	56
377.102000	21
395.112700	18
397.091800	12
407.111900	25
409.128400	11
419.112100	22
423.107100	62
424.109800	18
433.091500	12
435.107100	245
436.110300	61
437.121700	60
438.125600	15
445.091300	24
451.101800	20
453.117500	833
454.120700	235
455.123100	43
463.101400	103
464.104800	30
481.112200	709
482.115300	227
483.117600	37
