Mass spectrum: Hulupinic acid; LC-ESI-QTOF; MS2; [M+H]+; CE: 30eV
Name: Hulupinic acid
Class: Natural Product; Terpenoids
Formula: C15H20O6
Exact mass: 264.13618
SMILES: CC(C)=CCC(CC=C(C)C)(C(=O)1)C(=O)C(O)=C(O)3
InChI: InChI=1S/C15H20O4/c1-9(2)5-7-15(8-6-10(3)4)13(18)11(16)12(17)14(15)19/h5-6,16-17H,7-8H2,1-4H5
Instrument: maXis, Bruker Daltonics
Instrument type: LC-ESI-QTOF
Ms type: MS2
Ion mode: POSITIVE
Collision energy: 30 eV
Ionization: ESI
Column name: Shimadzu Shim-Pack XR-ODS III; C18; 2.2um; 80A; 2.0x150mm
Precursor type: [M+H]+
m/z	relative intensity
115.053000	74
116.059100	15
117.068700	97
118.071700	13
119.047700	18
119.084700	16
121.063700	344
121.100400	17
122.067400	38
125.058800	17
128.061000	13
129.068900	18
131.048500	221
131.085000	90
132.052600	26
133.063900	36
135.043500	45
135.080000	257
136.083300	34
137.058900	14
139.038600	83
139.074800	91
140.078900	13
141.017800	246
141.069400	23
142.021300	22
142.077000	15
143.048800	13
143.085600	16
144.056700	29
145.064600	463
145.100700	20
146.068000	49
147.079200	20
147.116700	15
148.051600	15
149.024900	16
149.059600	999
149.096100	67
149.132000	13
150.063000	114
151.072500	14
153.018300	14
153.054600	94
153.091200	45
155.034000	86
155.060500	31
155.084900	14
159.044000	225
159.080300	173
159.116600	17
160.048400	32
160.084500	29
161.059400	33
163.039200	78
163.075500	402
164.043300	13
164.079100	51
167.034500	38
167.070400	435
168.074000	44
168.093300	19
169.074900	13
173.059900	391
173.095700	20
173.132300	38
174.063500	52
175.073300	11
176.047100	23
177.054800	642
177.091200	80
178.058500	86
178.094500	11
179.069300	30
180.041900	21
181.049800	46
181.086000	204
182.089600	26
183.117100	16
187.075400	126
187.111500	11
188.078900	20
190.062900	11
191.070500	358
191.107000	27
191.143100	19
192.074300	46
194.057300	17
195.065400	253
195.101500	44
196.068900	36
197.082100	16
201.127900	21
205.086100	79
209.081200	125
209.117100	14
210.084000	18
219.139000	14
223.096800	25
