Mass spectrum: Bacopaside X; LC-ESI-QTOF; MS2; [M+H]+; CE: 30eV
Name: Bacopaside X
Class: Natural Product; Terpenoids
Formula: C46H74O19
Exact mass: 898.49262
SMILES: [H]C(C(C)(C)6)(C5)C(CCC6OC(O7)C(OC(C9O)OC(C(O)9)CO)C(OC(O8)C(C(O)C(C8CO)O)O)C(C7)O)(C(C(C)1C5)(CCC(C([H])42)([H])C(C3)1CC2(OC([H])(CC4(C)O)C=C(C)C)O3)[H])C
InChI: InChI=1S/C46H74O17/c1-21(2)14-22-15-44(7,55)37-23-8-9-28-42(5)12-11-29(41(3,4)27(42)10-13-43(28,6)45(23)19-46(37,63-22)57-20-45)60-40-36(62-38-33(53)31(51)26(17-48)59-38)35(24(49)18-56-40)61-39-34(54)32(52)30(50)25(16-47)58-39/h14,22-40,47-55H,8-13,15-20H2,1-7H3/t22-,23+,24-,25+,26-,27-,28+,29-,30+,31-,32-,33+,34+,35-,36+,37-,38-,39-,40-,42-,43+,44-,45-,46-/m0/s3
Instrument: maXis, Bruker Daltonics
Instrument type: LC-ESI-QTOF
Ms type: MS2
Ion mode: POSITIVE
Collision energy: 30 eV
Ionization: ESI
Column name: Shimadzu Shim-Pack XR-ODS III; C18; 2.2um; 80A; 2.0x150mm
Precursor type: [M+H]+
m/z	relative intensity
123.115900	46
133.048800	43
145.049100	32
163.059700	38
191.179000	10
211.059900	22
223.059900	14
229.070400	36
241.070300	23
247.080800	48
247.169000	29
259.080900	53
265.091400	116
266.094800	12
277.091300	15
295.101900	64
315.231500	20
369.278400	25
373.272900	23
387.288800	16
391.284000	82
392.286900	22
409.345800	17
437.341300	234
438.344600	73
439.347600	12
441.299500	12
455.352000	999
455.433200	15
456.355200	306
457.358300	47
473.361800	42
474.365400	14
533.362500	26
551.372900	35
552.376100	12
569.382600	14
587.394400	62
588.397100	21
749.447800	20
881.492200	23
882.495100	11
