Mass spectrum: Isosilybin A; LC-ESI-QTOF; MS2; [M+H]+; CE: 50eV
Name: Isosilybin A
Class: Natural Product; Flavonoids
Formula: C25H22O14
Exact mass: 482.12134
SMILES: COc(c(O)5)cc(cc5)C(O1)C(CO)Oc(c2)c(ccc2C(O3)C(O)C(=O)c(c(O)4)c(cc(O)c4)3)5
InChI: InChI=1S/C25H22O10/c1-32-17-6-11(2-4-14(17)28)24-20(10-26)33-18-7-12(3-5-16(18)34-24)25-23(31)22(30)21-15(29)8-13(27)9-19(21)35-25/h2-9,20,23-29,31H,10H2,1H3/t20-,23+,24-,25-/m1/s5
Instrument: maXis, Bruker Daltonics
Instrument type: LC-ESI-QTOF
Ms type: MS2
Ion mode: POSITIVE
Collision energy: 50 eV
Ionization: ESI
Column name: Shimadzu Shim-Pack XR-ODS III; C18; 2.2um; 80A; 2.0x150mm
Precursor type: [M+H]+
m/z	relative intensity
119.043700	46
121.023300	66
121.060000	18
122.030700	19
123.039400	21
124.047200	32
127.034600	11
130.037500	106
131.045200	135
132.051400	23
133.024900	88
133.061300	34
134.031000	13
135.040900	51
137.056800	236
138.060300	24
139.036300	95
145.062300	18
146.034100	63
147.042100	446
148.046400	46
149.021600	453
149.058000	132
150.025300	39
150.065700	130
151.037200	16
151.072200	28
152.061000	10
152.080600	12
153.017000	999
153.066800	11
154.020300	76
155.022900	13
155.048200	17
157.064000	19
159.043100	65
160.048900	12
161.022400	21
161.058900	148
162.066800	514
163.038100	18
163.070900	62
165.054400	15
165.069400	16
167.033500	150
167.084500	19
168.036900	15
169.064400	10
171.029300	11
171.043400	11
173.059500	52
175.039100	20
177.018100	41
177.054900	61
178.060200	12
179.070200	10
180.077800	11
181.013200	12
181.065300	18
183.044500	28
183.080300	10
185.060000	20
187.039400	49
189.055000	11
195.029400	203
195.081100	38
196.033100	20
197.060400	21
199.076100	11
201.055500	115
202.059100	18
203.034600	19
205.065800	27
206.072200	15
207.081300	10
209.060800	11
210.067800	13
211.040200	21
211.076600	17
213.055800	125
214.060400	21
215.035800	10
221.060600	18
222.067500	10
223.076400	61
224.081300	15
225.055700	21
227.035500	11
227.070900	17
229.050800	254
230.054900	34
231.065900	47
233.061000	15
235.075800	11
237.055700	25
238.061800	11
239.035100	23
239.071500	39
240.076800	12
241.050700	112
242.057600	60
243.063100	12
249.055000	11
250.063300	14
251.071700	112
252.078000	41
253.050800	13
253.084900	20
255.066500	92
256.070300	16
257.045700	133
258.051000	23
266.058000	14
267.066400	27
269.045800	34
270.052000	14
271.097500	11
279.065800	42
283.061200	24
283.097700	16
285.040200	11
285.076900	33
286.047400	10
287.055700	13
295.060400	22
297.040800	11
299.055000	15
311.054700	22
359.090700	17
379.116700	15
387.086200	11
