Mass spectrum: 6-Acetoxy-piliformic-acid; LC-ESI-QTOF; MS2; [M+H]+; CE: 20eV
Name: 6-Acetoxy-piliformic-acid
Class: Natural Product; Terpenoids
Formula: C13H20O6
Exact mass: 272.12599
SMILES: CC(=O)OCCCCCC=C(C(O)=O)C(C)C(O)=O
InChI: InChI=1S/C13H20O6/c1-9(12(15)16)11(13(17)18)7-5-3-4-6-8-19-10(2)14/h7,9H,3-6,8H2,1-2H3,(H,15,16)(H,17,18)/b11-7+/t9-/m0/s1
Instrument: maXis, Bruker Daltonics
Instrument type: LC-ESI-QTOF
Ms type: MS2
Ion mode: POSITIVE
Collision energy: 20 eV
Ionization: ESI
Column name: Shimadzu Shim-Pack XR-ODS III; C18; 2.2um; 80A; 2.0x150mm
Precursor type: [M+H]+
m/z	relative intensity
111.044000	34
121.100900	368
122.104300	38
123.116800	36
125.059500	126
131.085500	46
139.111600	45
149.096000	999
150.099700	120
167.106700	473
168.110400	67
177.091200	713
178.094900	75
181.122300	27
195.101600	534
196.105400	67
209.117700	90
213.112200	140
227.127800	238
228.131300	33
255.122400	38
