Mass spectrum: Hulupinic acid; LC-ESI-QTOF; MS2; [M+H]+; CE: 50eV
Name: Hulupinic acid
Class: Natural Product; Terpenoids
Formula: C15H20O4
Exact mass: 264.13620
SMILES: CC(C)=CCC(CC=C(C)C)(C(=O)1)C(=O)C(O)=C(O)1
InChI: InChI=1S/C15H20O4/c1-9(2)5-7-15(8-6-10(3)4)13(18)11(16)12(17)14(15)19/h5-6,16-17H,7-8H2,1-4H3
Instrument: maXis, Bruker Daltonics
Instrument type: LC-ESI-QTOF
Ms type: MS2
Ion mode: POSITIVE
Collision energy: 50 eV
Ionization: ESI
Column name: Shimadzu Shim-Pack XR-ODS III; C18; 2.2um; 80A; 2.0x150mm
Precursor type: [M+H]+
m/z	relative intensity
115.053300	999
116.059300	255
117.068400	291
119.048600	80
121.026900	87
121.064100	503
122.067400	65
123.043700	83
127.038900	98
127.053400	159
128.061200	253
129.068800	218
130.040800	101
130.075900	65
131.048700	849
131.084700	182
132.054100	133
133.064400	97
134.035700	122
135.042900	137
135.080000	204
139.038900	218
139.075500	92
141.018100	734
141.069600	189
142.021200	78
142.076900	81
143.085400	154
144.056800	412
145.064500	739
146.068300	108
147.043800	165
148.050900	103
149.023400	62
149.059600	347
149.096600	64
152.062100	64
153.054700	150
153.069600	147
155.034000	177
155.060500	256
157.064900	85
159.044100	231
159.080400	172
161.059400	108
162.030300	100
163.038400	137
163.075400	104
167.070200	79
167.086000	71
171.080500	59
173.059800	159
176.047000	113
177.054300	159
179.034300	114
180.039900	58
