Mass spectrum: Bufalin; LC-ESI-QTOF; MS2; [M+H]+; CE: 30eV
Name: Bufalin
Class: Natural Product; Steroids
Formula: C24H34O4
Exact mass: 386.24571
SMILES: C(C1([H])4)(C)(C5)C([H])(CC(O)C5)CCC(C(C(C)(CC4)2)(O)CCC2C(C=3)=COC(=O)C3)1[H]
InChI: InChI=1S/C24H34O4/c1-22-10-7-17(25)13-16(22)4-5-20-19(22)8-11-23(2)18(9-12-24(20,23)27)15-3-6-21(26)28-14-15/h3,6,14,16-20,25,27H,4-5,7-13H2,1-2H3/t16-,17+,18-,19+,20-,22+,23-,24+/m1/s1
Instrument: maXis, Bruker Daltonics
Instrument type: LC-ESI-QTOF
Ms type: MS2
Ion mode: POSITIVE
Collision energy: 30 eV
Ionization: ESI
Column name: Shimadzu Shim-Pack XR-ODS III; C18; 2.2um; 80A; 2.0x150mm
Precursor type: [M+H]+
m/z	relative intensity
107.085200	49
109.101800	40
119.086200	23
121.101300	71
123.117200	27
131.085400	27
133.101600	58
135.117200	90
143.086200	20
145.101100	61
147.116800	101
149.132300	69
151.075900	20
157.100900	20
159.117300	88
161.132600	170
162.135300	20
163.147600	33
165.091300	21
171.117000	24
173.132300	56
175.148400	42
177.090800	18
179.106400	19
185.131700	35
187.148700	30
189.090400	53
191.106300	29
195.117000	19
197.131700	22
199.148300	38
201.162900	48
203.106200	36
209.132500	17
211.147800	19
213.163700	29
215.179200	34
217.121800	28
219.137900	20
225.127700	25
229.121500	33
231.138100	35
241.122000	30
243.137500	67
244.141900	17
245.153500	18
253.194900	30
255.210200	271
256.214800	56
257.153000	30
267.210800	25
269.153800	51
273.220800	34
285.221400	18
291.211300	21
295.169300	22
305.226800	24
323.236200	33
333.221300	56
334.226000	18
341.247600	32
351.232000	345
352.235800	105
369.242700	254
370.245700	64
387.253200	999
388.256400	247
389.259200	42
