Mass spectrum: Hexahydrocurcumin; LC-ESI-QTOF; MS2; [M-H]-; CE: 20eV
Name: Hexahydrocurcumin
Class: Natural Product; Phenols
Formula: C21H26O6
Exact mass: 374.17294
SMILES: COc(c1)c(O)ccc(CCC(O)CC(=O)CCc(c2)cc(OC)c(O)c2)1
InChI: InChI=1S/C21H26O6/c1-26-20-11-14(5-9-18(20)24)3-7-16(22)13-17(23)8-4-15-6-10-19(25)21(12-15)27-2/h5-6,9-12,16,22,24-25H,3-4,7-8,13H2,1-2H3
Instrument: maXis, Bruker Daltonics
Instrument type: LC-ESI-QTOF
Ms type: MS2
Ion mode: NEGATIVE
Collision energy: 20 eV
Ionization: ESI
Column name: Shimadzu Shim-Pack XR-ODS III; C18; 2.2um; 80A; 2.0x150mm
Precursor type: [M-H]-
m/z	relative intensity
121.029400	34
164.048700	31
165.056500	192
166.059800	18
178.064400	23
179.072900	999
179.098500	63
179.118100	49
179.378100	18
180.075600	205
181.077600	18
193.087900	248
194.091300	29
207.103500	18
219.103500	33
237.113900	13
355.154800	30
373.165400	301
374.168700	72
375.171300	11
