Mass spectrum: Xanthohumol; LC-ESI-QTOF; MS2; [M-H]-; CE: 40eV
Name: Xanthohumol
Class: Natural Product; Flavonoids
Formula: C21H22O5
Exact mass: 354.14672
SMILES: CC(C)=CCc(c(O)1)c(O)c(C(=O)C=Cc(c2)ccc(O)c2)c(OC)c1
InChI: InChI=1S/C21H22O5/c1-13(2)4-10-16-18(24)12-19(26-3)20(21(16)25)17(23)11-7-14-5-8-15(22)9-6-14/h4-9,11-12,22,24-25H,10H2,1-3H3/b11-7+
Instrument: maXis, Bruker Daltonics
Instrument type: LC-ESI-QTOF
Ms type: MS2
Ion mode: NEGATIVE
Collision energy: 40 eV
Ionization: ESI
Column name: Shimadzu Shim-Pack XR-ODS III; C18; 2.2um; 80A; 2.0x150mm
Precursor type: [M-H]-
m/z	relative intensity
117.034200	20
119.049900	999
119.061800	32
120.053200	96
121.029200	13
131.013600	37
131.049900	11
133.065800	94
134.069500	11
135.008600	11
145.029500	43
147.045100	14
149.024500	19
149.996000	47
157.066100	70
159.045400	56
159.081800	22
161.024600	21
161.061300	15
162.068700	45
163.004000	163
164.008500	19
165.092400	111
166.096000	18
173.061100	35
174.067800	14
175.004000	346
175.040400	57
176.008300	44
176.084000	14
177.019200	34
187.040400	12
189.019800	72
189.056100	82
189.092400	77
190.025200	11
190.063800	135
190.095800	13
191.068000	21
201.055600	13
203.035300	118
203.071900	35
204.040800	24
204.078500	16
207.103300	10
217.051100	63
218.058500	75
219.065300	24
231.066300	16
232.074200	34
233.081900	90
234.085500	15
241.051300	14
247.097500	20
267.066400	40
269.045600	19
283.060900	55
284.064500	11
295.060900	163
296.064500	36
323.091900	32
337.107600	15
