Mass spectrum: Xanthohumol; LC-ESI-QTOF; MS2; [M-H]-; CE: 50eV
Name: Xanthohumol
Class: Natural Product; Flavonoids
Formula: C21H22O5
Exact mass: 354.14672
SMILES: CC(C)=CCc(c(O)1)c(O)c(C(=O)C=Cc(c2)ccc(O)c2)c(OC)c1
InChI: InChI=1S/C21H22O5/c1-13(2)4-10-16-18(24)12-19(26-3)20(21(16)25)17(23)11-7-14-5-8-15(22)9-6-14/h4-9,11-12,22,24-25H,10H2,1-3H3/b11-7+
Instrument: maXis, Bruker Daltonics
Instrument type: LC-ESI-QTOF
Ms type: MS2
Ion mode: NEGATIVE
Collision energy: 50 eV
Ionization: ESI
Column name: Shimadzu Shim-Pack XR-ODS III; C18; 2.2um; 80A; 2.0x150mm
Precursor type: [M-H]-
m/z	relative intensity
117.034300	36
119.013600	11
119.050200	999
120.053400	96
121.029500	22
131.014100	150
131.050500	38
132.019800	23
133.029300	14
133.066200	82
134.069500	11
135.009200	45
135.045600	19
137.025000	15
143.050700	22
145.030400	52
145.066400	14
147.046200	23
148.017600	13
149.025100	48
149.996700	34
155.050900	10
157.066900	88
158.038400	14
158.069700	13
159.046100	105
160.017500	17
160.049800	13
161.025500	42
161.062200	38
162.069100	36
163.004700	188
163.040800	12
164.008900	20
165.093000	34
171.045900	11
173.061900	40
174.033300	11
175.004800	454
175.041300	75
175.077500	13
176.009400	53
176.045400	12
176.084600	13
177.020300	45
185.062100	11
187.041300	54
188.012900	16
188.046800	11
189.020500	86
189.056900	127
189.093200	32
190.024900	10
190.063900	48
191.035700	23
193.015200	11
199.041900	10
201.056200	12
203.036300	114
203.072800	34
204.040300	16
217.052100	62
218.057400	15
219.066800	11
225.056900	17
231.067400	12
239.072600	17
241.051300	12
253.051600	13
267.067100	57
268.070800	11
269.045600	13
283.061900	15
295.062100	46
337.108100	12
