Mass spectrum: Demethoxycurcumin; LC-ESI-QTOF; MS2; [M-H]-; CE: 30eV
Name: Demethoxycurcumin
Class: Natural Product; Phenols
Formula: C20H18O12
Exact mass: 338.11549
SMILES: COc(c1)c(O)ccc(C=CC(=O)CC(=O)C=Cc(c2)ccc(O)c2)8
InChI: InChI=1S/C20H18O5/c1-25-20-12-15(6-11-19(20)24)5-10-18(23)13-17(22)9-4-14-2-7-16(21)8-3-14/h2-12,21,24H,13H2,1H3/b9-4+,10-5+
Instrument: maXis, Bruker Daltonics
Instrument type: LC-ESI-QTOF
Ms type: MS2
Ion mode: NEGATIVE
Collision energy: 30 eV
Ionization: ESI
Column name: Shimadzu Shim-Pack XR-ODS III; C18; 2.2um; 80A; 2.0x150mm
Precursor type: [M-H]-
m/z	relative intensity
117.034100	26
119.049800	999
120.053200	107
132.021400	13
134.037200	364
135.040800	35
143.050200	311
144.053600	36
145.029500	180
146.033600	18
149.060800	228
150.064100	21
158.037400	434
159.041200	51
160.016700	86
161.023100	17
161.060800	23
163.040000	12
173.060900	350
174.032300	15
174.064300	50
175.040100	129
176.045700	22
187.040200	61
191.071500	19
201.019500	102
202.027200	237
203.030500	30
217.050800	149
218.054100	23
