Mass spectrum: Silybin B; LC-ESI-QTOF; MS2; [M-H]-; CE: 50eV
Name: Silybin B
Class: Natural Product; Flavonoids
Formula: C25H22O10
Exact mass: 482.12130
SMILES: COc(c(O)5)cc(cc5)C(O1)C(CO)Oc(c4)c(cc(c4)C(O2)C(O)C(=O)c(c(O)3)c(cc(O)c3)2)1
InChI: InChI=1S/C25H22O10/c1-32-17-6-11(2-4-14(17)28)24-20(10-26)33-16-5-3-12(7-18(16)34-24)25-23(31)22(30)21-15(29)8-13(27)9-19(21)35-25/h2-9,20,23-29,31H,10H2,1H3
Instrument: maXis, Bruker Daltonics
Instrument type: LC-ESI-QTOF
Ms type: MS2
Ion mode: NEGATIVE
Collision energy: 50 eV
Ionization: ESI
Column name: Shimadzu Shim-Pack XR-ODS III; C18; 2.2um; 80A; 2.0x150mm
Precursor type: [M-H]-
m/z	relative intensity
121.029300	44
122.036400	13
124.016400	115
125.024200	510
126.027600	36
134.037600	34
135.045000	22
136.016900	15
137.024500	39
139.040200	16
143.050700	11
145.030000	31
146.037700	112
147.009200	30
147.044700	42
148.016200	13
149.025000	92
149.061300	27
150.031900	22
151.004300	372
151.040400	16
152.012100	999
153.017400	96
159.045900	76
160.051100	10
161.025100	20
161.061300	52
162.032700	19
163.004400	19
163.040700	41
164.012000	16
164.048500	87
165.019900	49
165.054200	10
169.014800	14
171.045800	31
172.052300	10
173.025500	16
173.061600	19
174.033000	16
175.040800	31
177.020100	20
177.056600	16
178.999500	195
179.072100	50
180.006900	102
181.012000	12
183.046000	23
185.061600	31
187.041000	87
188.047800	38
189.020300	14
189.056300	39
191.035800	64
192.041900	18
193.051200	15
199.040800	22
201.056800	56
202.062000	11
203.035700	13
205.051600	23
211.041100	45
212.047600	18
213.056400	25
214.027700	14
214.063200	11
215.035800	81
216.042900	47
217.051000	33
227.036000	62
228.041600	20
229.051300	82
230.058000	28
231.030900	11
231.066300	23
233.045700	11
239.035800	16
240.042600	13
241.050700	14
243.030400	14
245.046200	30
255.030500	98
256.037100	44
257.045900	38
258.053200	28
259.060700	14
273.040900	288
274.044900	55
283.025200	34
284.032700	61
285.039500	29
301.035500	107
302.039000	18
