Mass spectrum: Bacoside A3; LC-ESI-QTOF; MS2; [M+H]+; CE: 10eV
Name: Bacoside A3
Class: Natural Product; Terpenoids
Formula: C47H76O18
Exact mass: 928.50317
SMILES: CC(C)=CC(C9)OC(O2)(C1)C(C9(C)O)(C(C8)([H])C(C(C7)(C)C(C8)([H])C(C6)(C([H])(C7)C(C(C6)OC(C(OC(C(O)5)OC(C(O)5)CO)3)OC(CO)C(C3OC(C(O)4)OC(C(C(O)4)O)CO)O)(C)C)C)1C2)[H]
InChI: InChI=1S/C47H76O18/c1-21(2)14-22-15-45(7,57)38-23-8-9-28-43(5)12-11-29(42(3,4)27(43)10-13-44(28,6)46(23)19-47(38,65-22)58-20-46)62-41-37(64-39-34(55)31(52)25(17-49)60-39)36(32(53)26(18-50)61-41)63-40-35(56)33(54)30(51)24(16-48)59-40/h14,22-41,48-57H,8-13,15-20H2,1-7H3/t22-,23+,24+,25-,26+,27-,28+,29-,30+,31-,32+,33-,34+,35+,36-,37+,38-,39-,40-,41-,43-,44+,45-,46-,47-/m0/s1
Instrument: maXis, Bruker Daltonics
Instrument type: LC-ESI-QTOF
Ms type: MS2
Ion mode: POSITIVE
Collision energy: 10 eV
Ionization: ESI
Column name: Shimadzu Shim-Pack XR-ODS III; C18; 2.2um; 80A; 2.0x150mm
Precursor type: [M+H]+
m/z	relative intensity
295.103400	82
296.106800	13
325.113600	76
326.116600	12
373.273400	10
391.283800	14
437.340800	64
438.343300	22
455.351100	643
456.354300	216
457.154000	157
457.357200	36
458.157400	31
473.361500	284
474.364600	89
475.367900	15
553.336400	16
587.393600	79
588.396800	30
599.393800	13
617.404700	313
618.408100	128
619.410500	26
635.415100	76
636.418500	27
715.392600	11
749.451500	60
750.455200	25
767.463200	40
768.466500	18
779.463900	287
780.467200	128
781.469800	37
782.470300	11
797.475700	155
798.478600	69
799.481600	21
845.489200	12
845.988600	11
854.493400	13
854.995700	10
863.499300	17
864.001400	14
911.515900	168
912.519400	86
913.522300	26
920.523000	16
921.023300	12
929.528500	999
929.644100	12
930.030300	22
930.532000	466
931.534600	149
932.536800	27
1061.585000	31
1062.588400	16
