Mass spectrum: Cynarine; LC-ESI-QTOF; MS2; [M-H]-; CE: 40eV
Name: Cynarine
Class: Natural Product; Phenylpropanoids
Formula: C25H24O12
Exact mass: 516.12678
SMILES: Oc(c1)c(O)cc(C=CC(=O)O[C@@H]([C@@H](O)2)C[C@@](OC(=O)C=Cc(c3)cc(O)c(O)c3)(C(O)=O)C[C@@H](O)2)c1
InChI: InChI=1S/C25H24O12/c26-15-5-1-13(9-17(15)28)3-7-21(31)36-20-12-25(24(34)35,11-19(30)23(20)33)37-22(32)8-4-14-2-6-16(27)18(29)10-14/h1-10,19-20,23,26-30,33H,11-12H2,(H,34,35)/b7-3+,8-4+/t19-,20-,23+,25-/m1/s1
Instrument: maXis, Bruker Daltonics
Instrument type: LC-ESI-QTOF
Ms type: MS2
Ion mode: NEGATIVE
Collision energy: 40 eV
Ionization: ESI
Column name: Shimadzu Shim-Pack XR-ODS III; C18; 2.2um; 80A; 2.0x150mm
Precursor type: [M-H]-
m/z	relative intensity
133.029700	33
134.037200	19
135.045500	257
136.048900	21
155.035700	19
161.025200	86
173.046400	54
177.020100	14
179.036000	868
179.061200	16
179.081800	13
180.039300	77
191.057200	999
191.083900	23
191.104700	19
192.060500	85
193.061600	13
335.077100	21
353.087600	63
354.090800	12
