Mass spectrum: Lycorine-diacetate; LC-ESI-QTOF; MS2; [M+H]+; CE: 20eV
Name: Lycorine-diacetate
Class: Non Natural Product; Isoquinoline alkaloids
Formula: C20H21NO6
Exact mass: 371.13689
SMILES: CC(=O)OC(C=5)C(OC(C)=O)C([H])(c21)C([H])(C45)N(CC4)Cc(cc(O3)c(OC3)c2)1
InChI: InChI=1S/C20H21NO6/c1-10(22)26-17-5-12-3-4-21-8-13-6-15-16(25-9-24-15)7-14(13)18(19(12)21)20(17)27-11(2)23/h5-7,17-20H,3-4,8-9H2,1-2H3/t17-,18-,19+,20+/m0/s1
Instrument: maXis, Bruker Daltonics
Instrument type: LC-ESI-QTOF
Ms type: MS2
Ion mode: POSITIVE
Collision energy: 20 eV
Ionization: ESI
Column name: Shimadzu Shim-Pack XR-ODS III; C18; 2.2um; 80A; 2.0x150mm
Precursor type: [M+H]+
m/z	relative intensity
194.096300	11
222.091400	70
250.086500	30
252.102200	802
253.105500	137
254.108000	12
270.112400	55
271.115900	10
312.123500	19
372.144500	999
373.147700	215
374.150100	39
