Mass spectrum: (-)-Curcumol; LC-ESI-QTOF; MS2; [M+H]+; CE: 10eV
Name: (-)-Curcumol
Class: Natural Product; Terpenoids
Formula: C15H24O2
Exact mass: 236.17763
SMILES: CC(C)C(C1)C(O)(C2)OC(C(C)3)1C([H])(CC3)C(=C)2
InChI: InChI=1S/C15H24O2/c1-9(2)13-8-14-11(4)5-6-12(14)10(3)7-15(13,16)17-14/h9,11-13,16H,3,5-8H2,1-2,4H3/t11-,12-,13-,14-,15+/m0/s1
Instrument: maXis, Bruker Daltonics
Instrument type: LC-ESI-QTOF
Ms type: MS2
Ion mode: POSITIVE
Collision energy: 10 eV
Ionization: ESI
Column name: Shimadzu Shim-Pack XR-ODS III; C18; 2.2um; 80A; 2.0x150mm
Precursor type: [M+H]+
m/z	relative intensity
121.096300	13
133.097600	36
135.113600	171
136.117400	24
137.129600	36
141.089000	26
145.100000	16
147.114200	12
151.146600	14
153.090300	11
159.116100	17
161.131700	14
163.111500	15
177.129600	14
177.164200	12
191.180200	110
192.184200	18
201.165100	75
219.176000	520
220.180000	91
237.186700	999
238.190200	176
239.194000	16
