Mass spectrum: Bacosine; LC-ESI-QTOF; MS2; [M-H]-; CE: 10eV
Name: Bacosine
Class: Natural Product; Terpenoids
Formula: C30H48O3
Exact mass: 456.36035
SMILES: CC(C1)(C5)C([H])(C(C(C)=C)([H])C5)C([H])(C4)C(C(O)=O)(C(C)(C3(C4)[H])CCC([H])(C32C)C(C)(C)C(CC2)O)C1
InChI: InChI=1S/C30H48O3/c1-18(2)19-10-13-27(5)16-17-30(25(32)33)20(24(19)27)8-9-22-28(6)14-12-23(31)26(3,4)21(28)11-15-29(22,30)7/h19-24,31H,1,8-17H2,2-7H3,(H,32,33)/t19-,20+,21-,22+,23+,24+,27+,28-,29+,30+/m0/s1
Instrument: maXis, Bruker Daltonics
Instrument type: LC-ESI-QTOF
Ms type: MS2
Ion mode: NEGATIVE
Collision energy: 10 eV
Ionization: ESI
Column name: Shimadzu Shim-Pack XR-ODS III; C18; 2.2um; 80A; 2.0x150mm
Precursor type: [M-H]-
m/z	relative intensity
455.350800	999
456.354400	349
457.357300	58
