Mass spectrum: Scopoletin; LC-ESI-QTOF; MS2; [M+H]+; CE: 10eV
Name: Scopoletin
Class: Natural Product; Phenylpropanoids
Formula: C10H8O4
Exact mass: 192.04226
SMILES: COc(c1)c(O)cc(O2)c(C=CC(=O)2)1
InChI: InChI=1S/C10H8O4/c1-13-9-4-6-2-3-10(12)14-8(6)5-7(9)11/h2-5,11H,1H3
Instrument: maXis, Bruker Daltonics
Instrument type: LC-ESI-QTOF
Ms type: MS2
Ion mode: POSITIVE
Collision energy: 10 eV
Ionization: ESI
Column name: Shimadzu Shim-Pack XR-ODS III; C18; 2.2um; 80A; 2.0x150mm
Precursor type: [M+H]+
m/z	relative intensity
133.025400	18
178.026300	17
193.050600	999
193.080800	13
194.053800	106
195.055500	12
