Mass spectrum: Curcumin; LC-ESI-QTOF; MS2; [M+H]+; CE: 30eV
Name: Curcumin
Class: Natural Product; Phenols
Formula: C21H20O6
Exact mass: 368.12599
SMILES: COc(c1)c(O)ccc(C=CC(O)=CC(=O)C=Cc(c2)cc(OC)c(O)c2)1
InChI: InChI=1S/C21H20O6/c1-26-20-11-14(5-9-18(20)24)3-7-16(22)13-17(23)8-4-15-6-10-19(25)21(12-15)27-2/h3-13,22,24-25H,1-2H3/b7-3+,8-4+,16-13-
Instrument: maXis, Bruker Daltonics
Instrument type: LC-ESI-QTOF
Ms type: MS2
Ion mode: POSITIVE
Collision energy: 30 eV
Ionization: ESI
Column name: Shimadzu Shim-Pack XR-ODS III; C18; 2.2um; 80A; 2.0x150mm
Precursor type: [M+H]+
m/z	relative intensity
117.030100	21
136.050100	26
137.057700	40
145.027200	384
146.031300	40
149.058700	33
151.038100	15
151.074400	52
161.059200	140
162.063100	17
175.075300	24
177.054800	999
177.085400	12
178.058000	100
219.065600	32
221.060100	16
225.091600	33
253.086600	129
254.090500	27
259.097200	10
285.112600	122
286.115900	23
