Mass spectrum: Isosilybin B; LC-ESI-QTOF; MS2; [M+H]+; CE: 40eV
Name: Isosilybin B
Class: Natural Product; Flavonoids
Formula: C25H22O10
Exact mass: 482.12130
SMILES: COc(c(O)5)cc(cc5)C(O1)C(CO)Oc(c2)c(ccc2[C@@H](O3)[C@@H](O)C(=O)c(c(O)4)c(cc(O)c4)3)1
InChI: InChI=1S/C25H22O10/c1-32-17-6-11(2-4-14(17)28)24-20(10-26)33-18-7-12(3-5-16(18)34-24)25-23(31)22(30)21-15(29)8-13(27)9-19(21)35-25/h2-9,20,23-29,31H,10H2,1H3/t20?,23-,24?,25+/m0/s1
Instrument: maXis, Bruker Daltonics
Instrument type: LC-ESI-QTOF
Ms type: MS2
Ion mode: POSITIVE
Collision energy: 40 eV
Ionization: ESI
Column name: Shimadzu Shim-Pack XR-ODS III; C18; 2.2um; 80A; 2.0x150mm
Precursor type: [M+H]+
m/z	relative intensity
119.044700	31
121.024300	31
121.060700	12
122.031900	13
123.040200	19
124.047900	31
127.035800	12
130.038300	50
131.046200	144
132.050400	17
133.025700	73
133.062100	34
135.041600	48
137.057300	252
138.061300	22
139.037000	59
146.034600	26
147.042700	311
148.047000	33
149.022100	380
149.058500	91
150.025500	34
150.065900	84
151.037100	14
151.073200	38
152.081600	21
153.017400	999
154.020600	71
155.022200	10
159.043300	39
161.023000	17
161.059200	199
162.067000	578
163.037900	12
163.071900	79
165.017700	10
165.054300	27
167.033600	212
168.037400	18
171.029700	11
173.059500	19
175.039000	29
177.018600	54
177.054900	103
178.060300	21
179.034600	11
179.070400	23
180.078200	32
181.013400	14
183.044800	12
185.060800	11
187.039600	59
195.029600	293
195.081200	18
196.033000	29
197.060200	10
201.055600	103
202.059200	11
203.034700	28
205.065700	11
211.076300	15
213.055600	68
214.060100	16
215.035400	13
221.061200	13
223.076500	33
225.055800	16
227.035300	12
227.071400	12
229.050800	213
230.054800	31
231.066200	46
233.061300	15
237.055900	19
239.034900	19
239.071300	44
240.076600	11
241.050900	101
242.057600	50
243.064000	12
250.063100	11
251.071400	115
252.078000	63
253.085900	33
255.066700	85
255.102800	12
256.071300	20
257.045700	242
258.050000	49
259.060700	31
265.050800	11
267.066800	32
269.045700	41
269.081400	12
270.051400	14
270.089800	24
271.097600	40
279.066600	84
280.070400	18
281.081900	17
282.053600	11
283.060900	78
283.097200	57
284.064800	16
284.101600	12
285.041000	38
285.076500	66
286.046700	16
286.080200	11
287.055800	26
295.061000	52
296.065000	11
299.056000	22
311.055600	59
312.060100	11
313.070700	20
315.051600	20
323.055200	19
351.088300	12
359.090800	24
363.086200	11
377.101500	11
379.117100	44
380.120200	11
387.085700	39
388.089200	12
391.117100	46
392.119800	12
407.112300	16
415.080800	11
419.111300	34
420.114500	10
433.089600	11
435.105800	12
