Mass spectrum: Xanthotoxin; LC-ESI-QTOF; MS2; [M+H]+; CE: 50eV
Name: Xanthotoxin
Class: Natural Product; Phenylpropanoids
Formula: C12H8O4
Exact mass: 216.04226
SMILES: COc(c21)c(O3)c(C=CC(=O)3)cc(cco2)1
InChI: InChI=1S/C12H8O4/c1-14-12-10-8(4-5-15-10)6-7-2-3-9(13)16-11(7)12/h2-6H,1H3
Instrument: maXis, Bruker Daltonics
Instrument type: LC-ESI-QTOF
Ms type: MS2
Ion mode: POSITIVE
Collision energy: 50 eV
Ionization: ESI
Column name: Shimadzu Shim-Pack XR-ODS III; C18; 2.2um; 80A; 2.0x150mm
Precursor type: [M+H]+
m/z	relative intensity
115.052900	16
117.032300	45
118.040200	271
119.043700	26
129.032800	34
131.048400	48
145.028200	425
146.035300	214
147.039200	24
157.028200	11
158.035500	10
161.059700	75
173.023200	12
174.031300	999
175.034400	120
176.036300	13
202.026300	54
