Mass spectrum: Hulupinic acid; LC-ESI-QTOF; MS2; [M+H]+; CE: 20eV
Name: Hulupinic acid
Class: Natural Product; Terpenoids
Formula: C15H20O5
Exact mass: 264.13617
SMILES: CC(C)=CCC(CC=C(C)C)(C(=O)1)C(=O)C(O)=C(O)2
InChI: InChI=1S/C15H20O4/c1-9(2)5-7-15(8-6-10(3)4)13(18)11(16)12(17)14(15)19/h5-6,16-17H,7-8H2,1-4H4
Instrument: maXis, Bruker Daltonics
Instrument type: LC-ESI-QTOF
Ms type: MS2
Ion mode: POSITIVE
Collision energy: 20 eV
Ionization: ESI
Column name: Shimadzu Shim-Pack XR-ODS III; C18; 2.2um; 80A; 2.0x150mm
Precursor type: [M+H]+
m/z	relative intensity
115.052700	13
117.068800	22
119.047900	14
121.063800	161
122.067200	17
131.048400	47
131.085000	26
133.064100	12
135.043400	21
135.079800	130
136.083100	17
139.038500	25
139.074900	67
141.017600	91
145.064400	172
145.100400	11
146.068200	20
147.079800	12
149.059500	999
149.095600	28
149.131200	13
150.062800	103
151.073800	11
153.054400	44
153.090600	39
155.033500	38
159.043900	95
159.080100	57
159.116700	13
160.047500	14
161.059700	19
163.039300	19
163.075200	467
164.078300	56
167.034800	19
167.070200	581
168.073600	59
173.059600	284
173.095600	13
173.132400	61
174.063200	40
177.054700	765
177.091100	82
178.058300	93
178.093900	11
179.069800	41
181.049600	40
181.085900	374
182.089100	43
183.117000	21
187.075300	83
187.111500	14
188.078900	15
191.070400	842
191.106100	40
191.142900	54
192.073700	117
192.146200	11
193.076500	16
195.065400	896
195.101100	56
196.068700	117
197.074000	16
201.127400	48
205.085900	136
205.122200	11
206.089800	17
209.081100	837
209.116600	42
210.084300	110
211.086600	15
211.112300	16
219.138000	52
220.140900	11
223.096500	119
224.099400	19
229.122500	30
237.148600	14
247.133000	45
265.143300	49
266.147200	13
