Mass spectrum: Carbamazepine; LC-ESI-QTOF; MS2; [M+H]+; CE: 50eV
Name: Carbamazepine
Class: Non Natural Product; Drug
Formula: C15H12N2O
Exact mass: 236.09496
SMILES: NC(=O)N(c21)c(c3)c(ccc3)C=Cc(cccc2)1
InChI: InChI=1S/C15H12N2O/c16-15(18)17-13-7-3-1-5-11(13)9-10-12-6-2-4-8-14(12)17/h1-10H,(H2,16,18)
Instrument: maXis, Bruker Daltonics
Instrument type: LC-ESI-QTOF
Ms type: MS2
Ion mode: POSITIVE
Collision energy: 50 eV
Ionization: ESI
Column name: Shimadzu Shim-Pack XR-ODS III; C18; 2.2um; 80A; 2.0x150mm
Precursor type: [M+H]+
m/z	relative intensity
139.053900	39
140.049400	20
150.046200	15
151.053100	25
152.061900	204
153.059500	35
163.053800	27
164.061300	58
165.069800	511
166.071400	91
167.073000	242
168.077400	37
169.064700	52
176.061700	46
177.057800	77
178.065000	224
179.072600	569
180.075600	74
190.064900	158
191.072800	495
192.080400	739
193.088300	999
194.094500	342
195.098200	52
196.075600	12
