Mass spectrum: Bacoside A3; LC-ESI-QTOF; MS2; [M+H]+; CE: 30eV
Name: Bacoside A3
Class: Natural Product; Terpenoids
Formula: C47H76O20
Exact mass: 928.50319
SMILES: CC(C)=CC(C9)OC(O2)(C1)C(C9(C)O)(C(C8)([H])C(C(C7)(C)C(C8)([H])C(C6)(C([H])(C7)C(C(C6)OC(C(OC(C(O)5)OC(C(O)5)CO)3)OC(CO)C(C3OC(C(O)4)OC(C(C(O)4)O)CO)O)(C)C)C)1C2)[H]
InChI: InChI=1S/C47H76O18/c1-21(2)14-22-15-45(7,57)38-23-8-9-28-43(5)12-11-29(42(3,4)27(43)10-13-44(28,6)46(23)19-47(38,65-22)58-20-46)62-41-37(64-39-34(55)31(52)25(17-49)60-39)36(32(53)26(18-50)61-41)63-40-35(56)33(54)30(51)24(16-48)59-40/h14,22-41,48-57H,8-13,15-20H2,1-7H3/t22-,23+,24+,25-,26+,27-,28+,29-,30+,31-,32+,33-,34+,35+,36-,37+,38-,39-,40-,41-,43-,44+,45-,46-,47-/m0/s3
Instrument: maXis, Bruker Daltonics
Instrument type: LC-ESI-QTOF
Ms type: MS2
Ion mode: POSITIVE
Collision energy: 30 eV
Ionization: ESI
Column name: Shimadzu Shim-Pack XR-ODS III; C18; 2.2um; 80A; 2.0x150mm
Precursor type: [M+H]+
m/z	relative intensity
123.112000	45
133.045900	22
145.047400	57
163.059400	97
191.179700	11
241.071900	12
247.170400	32
259.082300	44
277.092900	16
289.092600	14
295.103200	103
296.106500	11
315.232500	20
325.113300	125
326.116600	15
369.278300	33
373.273200	29
387.288800	18
391.283500	74
392.286800	18
409.345200	15
419.329600	11
437.339900	343
438.343200	104
439.346200	16
455.350600	999
455.431800	17
456.353700	289
457.356900	51
473.360200	16
551.370800	12
553.335000	14
617.404300	129
618.407600	53
619.410500	11
749.451900	11
779.464200	50
780.466900	21
911.517900	33
912.521500	16
