Mass spectrum: Xanthohumol; LC-ESI-QTOF; MS2; [M+H]+; CE: 30eV
Name: Xanthohumol
Class: Natural Product; Flavonoids
Formula: C21H22O5
Exact mass: 354.14672
SMILES: CC(C)=CCc(c(O)1)c(O)c(C(=O)C=Cc(c2)ccc(O)c2)c(OC)c1
InChI: InChI=1S/C21H22O5/c1-13(2)4-10-16-18(24)12-19(26-3)20(21(16)25)17(23)11-7-14-5-8-15(22)9-6-14/h4-9,11-12,22,24-25H,10H2,1-3H3/b11-7+
Instrument: maXis, Bruker Daltonics
Instrument type: LC-ESI-QTOF
Ms type: MS2
Ion mode: POSITIVE
Collision energy: 30 eV
Ionization: ESI
Column name: Shimadzu Shim-Pack XR-ODS III; C18; 2.2um; 80A; 2.0x150mm
Precursor type: [M+H]+
m/z	relative intensity
179.034900	999
179.052100	34
179.064900	44
179.085700	43
179.370100	16
180.038000	133
181.039500	15
197.045600	49
257.082500	22
299.092600	15
