Mass spectrum: Quinidine; LC-ESI-QTOF; MS2; [M+H]+; CE: 50eV
Name: Quinidine
Class: Natural Product; Quinoline alkaloids
Formula: C20H24N2O2
Exact mass: 324.18378
SMILES: COc(c4)cc(c3c4)c(ccn3)[C@H](O)[C@@]([H])(C1)N(C2)C[C@H](C=C)[C@@H](C2)1
InChI: InChI=1S/C20H24N2O2/c1-3-13-12-22-9-7-14(13)10-19(22)20(23)16-6-8-21-18-5-4-15(24-2)11-17(16)18/h3-6,8,11,13-14,19-20,23H,1,7,9-10,12H2,2H3/t13-,14?,19+,20-/m0/s1
Instrument: maXis, Bruker Daltonics
Instrument type: LC-ESI-QTOF
Ms type: MS2
Ion mode: POSITIVE
Collision energy: 50 eV
Ionization: ESI
Column name: Shimadzu Shim-Pack XR-ODS III; C18; 2.2um; 80A; 2.0x150mm
Precursor type: [M+H]+
m/z	relative intensity
81.066300	29
95.074500	21
105.070700	26
106.065700	22
107.074600	18
108.081300	57
110.097300	29
117.057900	45
120.081800	39
122.096900	29
124.112300	23
129.057800	24
131.073300	29
134.097000	82
136.112500	43
138.128000	20
141.057600	23
142.065400	38
143.073200	100
144.079100	30
145.052900	122
146.058500	21
154.065300	104
155.072900	140
156.077500	30
157.052600	51
158.060100	217
159.067800	100
160.075900	632
161.079300	65
166.065500	46
167.073100	119
168.070700	39
169.052400	146
170.059500	109
171.067400	77
172.075700	999
173.081700	252
174.055200	103
180.080600	45
181.088100	37
182.059900	83
183.067700	140
184.075400	320
185.080000	55
186.091200	374
187.095200	51
188.070500	69
189.077800	85
190.082300	16
192.080500	29
193.087700	30
194.095100	21
195.068100	49
196.075200	97
197.082600	90
198.090800	212
199.088400	76
200.070200	73
202.085900	80
204.080500	24
205.083700	15
206.095700	27
207.094400	19
208.099100	29
209.083000	35
210.091100	149
211.087400	97
212.104400	37
213.102100	20
214.085300	68
218.095600	22
219.094800	18
220.075900	29
221.109100	24
222.090900	37
223.097500	20
224.106300	72
225.103000	57
226.122500	45
227.117400	28
232.111700	16
234.090600	34
235.088400	22
236.105300	42
237.102100	74
238.119500	26
239.118300	24
248.106100	43
249.105600	29
250.121300	43
251.118000	137
252.124200	48
253.133100	68
254.134600	13
262.122200	20
263.118600	26
264.138100	43
265.134000	46
266.139100	16
277.133700	26
278.141200	12
279.149400	18
307.181100	43
325.191500	19
