Mass spectrum: Vitexin; LC-ESI-QTOF; MS2; [M+H]+; CE: 20eV
Name: Vitexin
Class: Natural Product; Flavonoids
Formula: C21H20O10
Exact mass: 432.10565
SMILES: OC[C@H]([C@@H](O)4)O[C@H]([C@H](O)[C@@H](O)4)c(c(O)3)c(O1)c(c(O)c3)C(=O)C=C(c(c2)ccc(O)c2)1
InChI: InChI=1S/C21H20O10/c22-7-14-17(27)18(28)19(29)21(31-14)16-11(25)5-10(24)15-12(26)6-13(30-20(15)16)8-1-3-9(23)4-2-8/h1-6,14,17-19,21-25,27-29H,7H2/t14-,17-,18+,19-,21+/m1/s1
Instrument: maXis, Bruker Daltonics
Instrument type: LC-ESI-QTOF
Ms type: MS2
Ion mode: POSITIVE
Collision energy: 20 eV
Ionization: ESI
Column name: Shimadzu Shim-Pack XR-ODS III; C18; 2.2um; 80A; 2.0x150mm
Precursor type: [M+H]+
m/z	relative intensity
283.060800	16
295.060700	11
313.071400	140
314.074400	25
337.070800	25
343.081400	19
367.081000	39
379.081100	20
397.091500	104
398.094600	25
415.101900	254
416.105000	55
417.107100	11
433.112700	999
433.158300	21
433.192000	18
434.115800	197
435.117800	43
