Mass spectrum: Mycophenolic-acid; LC-ESI-QTOF; MS2; [M+H]+; CE: 10eV
Name: Mycophenolic-acid
Class: Natural Product; Phenolic acid
Formula: C17H20O6
Exact mass: 320.12599
SMILES: OC(=O)CCC(C)=CCc(c(OC)1)c(O)c(C(=O)2)c(CO2)c(C)1
InChI: InChI=1S/C17H20O6/c1-9(5-7-13(18)19)4-6-11-15(20)14-12(8-23-17(14)21)10(2)16(11)22-3/h4,20H,5-8H2,1-3H3,(H,18,19)/b9-4+
Instrument: maXis, Bruker Daltonics
Instrument type: LC-ESI-QTOF
Ms type: MS2
Ion mode: POSITIVE
Collision energy: 10 eV
Ionization: ESI
Column name: Shimadzu Shim-Pack XR-ODS III; C18; 2.2um; 80A; 2.0x150mm
Precursor type: [M+H]+
m/z	relative intensity
207.065500	145
208.068900	17
275.128000	115
276.131400	17
303.123000	491
304.126400	100
305.128100	15
321.133700	999
322.137000	202
323.139300	32
