Mass spectrum: Neochlorogenic acid; LC-ESI-QTOF; MS2; [M-H]-; CE: 10eV
Name: Neochlorogenic acid
Class: Natural Product; Phenylpropanoids
Formula: C16H18O9
Exact mass: 354.09508
SMILES: O=C(C=Cc(c2)cc(O)c(O)c2)OC(C1)C(O)C(O)CC(O)(C(O)=O)1
InChI: InChI=1S/C16H18O9/c17-9-3-1-8(5-10(9)18)2-4-13(20)25-12-7-16(24,15(22)23)6-11(19)14(12)21/h1-5,11-12,14,17-19,21,24H,6-7H2,(H,22,23)/b4-2+/t11-,12-,14+,16-/m1/s1
Instrument: maXis, Bruker Daltonics
Instrument type: LC-ESI-QTOF
Ms type: MS2
Ion mode: NEGATIVE
Collision energy: 10 eV
Ionization: ESI
Column name: Shimadzu Shim-Pack XR-ODS III; C18; 2.2um; 80A; 2.0x150mm
Precursor type: [M-H]-
m/z	relative intensity
177.019800	21
179.035500	55
191.056600	83
351.071800	30
353.088000	999
353.124200	23
353.152400	23
354.091000	211
355.092900	33
