Mass spectrum: Isosilybin A; LC-ESI-QTOF; MS2; [M-H]-; CE: 40eV
Name: Isosilybin A
Class: Natural Product; Flavonoids
Formula: C25H22O10
Exact mass: 482.12138
SMILES: COc(c(O)5)cc(cc5)C(O1)C(CO)Oc(c2)c(ccc2C(O3)C(O)C(=O)c(c(O)4)c(cc(O)c4)3)1
InChI: InChI=1S/C25H22O10/c1-32-17-6-11(2-4-14(17)28)24-20(10-26)33-18-7-12(3-5-16(18)34-24)25-23(31)22(30)21-15(29)8-13(27)9-19(21)35-25/h2-9,20,23-29,31H,10H2,1H3/t20-,23+,24-,25-/m1/s1
Instrument: maXis (Bruker Daltonics)
Instrument type: LC-ESI-QTOF
Ms type: MS2
Ion mode: NEGATIVE
Collision energy: 40 eV
Ionization: ESI
Column name: Shimadzu Shim-Pack XR-ODS III; C18; 2.2um; 80A; 2.0x150mm
Precursor type: [M-H]-
m/z	relative intensity
121.029200	32
124.016500	43
125.024300	999
126.027800	65
134.037600	11
136.017000	10
137.024400	15
139.040400	22
145.029900	21
146.037600	42
147.009400	37
147.045500	47
149.024900	80
149.061300	21
151.004300	267
151.040700	10
152.012100	684
153.018900	127
159.046000	29
161.025300	17
161.061500	32
162.032900	12
163.004200	15
163.040600	30
164.011700	11
164.048300	38
165.019900	21
171.045900	34
173.061300	12
175.040900	18
177.020300	11
177.056600	12
178.999500	184
179.072300	87
180.007000	199
180.075700	10
181.013600	34
183.046200	11
185.061700	22
187.041000	85
188.048000	28
189.020400	14
189.056300	44
191.035900	55
192.042100	10
193.051300	14
201.056600	48
202.063200	14
203.036200	11
205.051500	22
211.041200	25
212.047400	14
213.056500	46
214.028300	10
214.063500	20
215.035900	100
215.070900	13
216.043100	67
217.015300	12
217.050700	39
227.035900	28
228.043000	16
229.051600	167
230.057900	54
231.030600	16
231.066500	37
239.035700	14
240.043300	10
243.030500	10
245.046400	33
255.030600	61
255.066700	11
256.037300	32
257.046100	142
258.053400	109
259.060400	44
271.025600	34
271.061300	12
272.032500	20
273.041000	309
273.077000	12
274.047400	109
275.053700	25
283.025300	93
284.032900	151
285.038500	40
289.072000	11
301.035700	183
302.039200	31
423.107400	32
435.107200	73
436.110300	22
453.117500	93
454.121200	30
481.112700	27
