Mass spectrum: Quinidine; LC-ESI-QTOF; MS2; [M+H]+; CE: 30eV
Name: Quinidine
Class: Natural Product; Quinoline alkaloids
Formula: C20H24N2O2
Exact mass: 324.18378
SMILES: COc(c4)cc(c3c4)c(ccn3)[C@H](O)[C@@]([H])(C1)N(C2)C[C@H](C=C)[C@@H](C2)1
InChI: InChI=1S/C20H24N2O2/c1-3-13-12-22-9-7-14(13)10-19(22)20(23)16-6-8-21-18-5-4-15(24-2)11-17(16)18/h3-6,8,11,13-14,19-20,23H,1,7,9-10,12H2,2H3/t13-,14?,19+,20-/m0/s1
Instrument: maXis, Bruker Daltonics
Instrument type: LC-ESI-QTOF
Ms type: MS2
Ion mode: POSITIVE
Collision energy: 30 eV
Ionization: ESI
Column name: Shimadzu Shim-Pack XR-ODS III; C18; 2.2um; 80A; 2.0x150mm
Precursor type: [M+H]+
m/z	relative intensity
110.096400	13
124.112900	11
134.096800	15
136.112300	15
160.076000	108
161.079300	11
166.122800	36
172.075800	66
173.082600	27
174.090800	25
184.075400	104
185.080100	15
186.091100	52
189.078200	16
198.091100	50
199.088600	15
202.085600	13
210.090900	16
224.106600	13
226.122300	17
227.117900	19
251.117600	22
252.125000	18
253.133200	92
254.136600	15
264.137800	36
265.136300	13
278.153700	18
279.149400	44
282.148700	10
297.196200	15
307.180500	328
308.183700	62
325.191300	999
326.194400	196
327.198900	26
