Mass spectrum: Scopoletin; LC-ESI-QTOF; MS2; [M+H]+; CE: 40eV
Name: Scopoletin
Class: Natural Product; Phenylpropanoids
Formula: C10H8O4
Exact mass: 192.04226
SMILES: COc(c1)c(O)cc(O2)c(C=CC(=O)2)1
InChI: InChI=1S/C10H8O4/c1-13-9-4-6-2-3-10(12)14-8(6)5-7(9)11/h2-5,11H,1H3
Instrument: maXis, Bruker Daltonics
Instrument type: LC-ESI-QTOF
Ms type: MS2
Ion mode: POSITIVE
Collision energy: 40 eV
Ionization: ESI
Column name: Shimadzu Shim-Pack XR-ODS III; C18; 2.2um; 80A; 2.0x150mm
Precursor type: [M+H]+
m/z	relative intensity
121.023000	94
122.030900	487
123.034900	47
133.024900	374
134.029200	57
137.056600	171
138.060200	24
149.021600	25
150.029500	999
151.032600	100
161.022400	164
162.026800	18
178.026000	492
179.029200	62
180.030400	12
193.049800	23
