Mass spectrum: Bergapten; LC-ESI-QTOF; MS2; [M+H]+; CE: 50eV
Name: Bergapten
Class: Natural Product; Phenylpropanoids
Formula: C12H8O4
Exact mass: 216.04226
SMILES: COc(c21)c(C=3)c(OC(=O)C3)cc(occ2)1
InChI: InChI=1S/C12H8O4/c1-14-12-7-2-3-11(13)16-10(7)6-9-8(12)4-5-15-9/h2-6H,1H3
Instrument: maXis, Bruker Daltonics
Instrument type: LC-ESI-QTOF
Ms type: MS2
Ion mode: POSITIVE
Collision energy: 50 eV
Ionization: ESI
Column name: Shimadzu Shim-Pack XR-ODS III; C18; 2.2um; 80A; 2.0x150mm
Precursor type: [M+H]+
m/z	relative intensity
115.053100	32
117.032400	40
118.040100	474
119.011600	24
119.043300	50
120.019000	19
127.016600	38
128.024700	82
129.032300	71
130.038400	16
131.048200	67
132.051700	12
135.006700	13
135.043300	13
145.027900	484
146.035500	558
147.039000	56
156.020200	163
157.023300	25
158.036200	12
173.023000	122
174.030900	999
175.034200	124
176.036200	16
202.025800	240
203.028900	29
