Mass spectrum: Vitexin; LC-ESI-QTOF; MS2; [M+H]+; CE: 30eV
Name: Vitexin
Class: Natural Product; Flavonoids
Formula: C21H20O10
Exact mass: 432.10565
SMILES: OC[C@H]([C@@H](O)4)O[C@H]([C@H](O)[C@@H](O)4)c(c(O)3)c(O1)c(c(O)c3)C(=O)C=C(c(c2)ccc(O)c2)1
InChI: InChI=1S/C21H20O10/c22-7-14-17(27)18(28)19(29)21(31-14)16-11(25)5-10(24)15-12(26)6-13(30-20(15)16)8-1-3-9(23)4-2-8/h1-6,14,17-19,21-25,27-29H,7H2/t14-,17-,18+,19-,21+/m1/s1
Instrument: maXis, Bruker Daltonics
Instrument type: LC-ESI-QTOF
Ms type: MS2
Ion mode: POSITIVE
Collision energy: 30 eV
Ionization: ESI
Column name: Shimadzu Shim-Pack XR-ODS III; C18; 2.2um; 80A; 2.0x150mm
Precursor type: [M+H]+
m/z	relative intensity
217.050400	29
243.029500	26
259.060600	18
261.040200	16
271.060800	23
283.060800	314
284.065100	75
285.069200	12
295.060600	65
296.064300	13
297.075900	29
311.055200	46
312.059600	11
313.071400	999
313.138500	12
314.074400	179
315.076700	27
323.056600	20
323.091800	86
324.095200	18
325.070900	41
327.086200	15
337.070900	218
338.074100	46
343.081400	173
344.084400	33
349.070600	16
351.086300	109
352.089400	23
355.081400	52
356.085000	12
367.081300	222
368.084800	48
369.092700	16
379.081200	194
380.084400	42
397.091800	633
398.095000	129
399.097300	25
415.102200	400
416.105500	83
417.108000	18
433.112500	172
434.115700	38
