Mass spectrum: 10-Acetyl-trichoderonic-acid; LC-ESI-QTOF; MS2; [M+H]+; CE: 10eV
Name: 10-Acetyl-trichoderonic-acid
Class: Natural Product; Terpenoids
Formula: C17H24O7
Exact mass: 340.15220
SMILES: CC(=O)OC(CO)(C1)C(C(=O)2)C(C=C(C(O)=O)CO2)C(C(C)C)C1
InChI: InChI=1S/C17H24O7/c1-9(2)12-4-5-17(8-18,24-10(3)19)14-13(12)6-11(15(20)21)7-23-16(14)22/h6,9,12-14,18H,4-5,7-8H2,1-3H3,(H,20,21)/t12-,13+,14-,17-/m0/s1
Instrument: maXis, Bruker Daltonics
Instrument type: LC-ESI-QTOF
Ms type: MS2
Ion mode: POSITIVE
Collision energy: 10 eV
Ionization: ESI
Column name: Shimadzu Shim-Pack XR-ODS III; C18; 2.2um; 80A; 2.0x150mm
Precursor type: [M+H]+
m/z	relative intensity
201.128000	10
203.070500	77
204.073900	10
217.122400	42
227.107400	13
245.117400	337
246.121000	52
263.128200	999
264.131500	143
265.133700	19
281.138600	195
282.141800	31
305.138800	26
323.149100	427
324.152500	76
325.154700	14
341.159900	559
342.163200	104
343.165600	21
