Mass spectrum: Xanthotoxin; LC-ESI-QTOF; MS2; [M+H]+; CE: 10eV
Name: Xanthotoxin
Class: Natural Product; Phenylpropanoids
Formula: C12H8O4
Exact mass: 216.04226
SMILES: COc(c21)c(O3)c(C=CC(=O)3)cc(cco2)1
InChI: InChI=1S/C12H8O4/c1-14-12-10-8(4-5-15-10)6-7-2-3-9(13)16-11(7)12/h2-6H,1H3
Instrument: maXis, Bruker Daltonics
Instrument type: LC-ESI-QTOF
Ms type: MS2
Ion mode: POSITIVE
Collision energy: 10 eV
Ionization: ESI
Column name: Shimadzu Shim-Pack XR-ODS III; C18; 2.2um; 80A; 2.0x150mm
Precursor type: [M+H]+
m/z	relative intensity
202.026400	37
217.050300	999
217.083700	45
217.106400	40
217.420100	18
218.053400	207
219.055300	22
