Mass spectrum: 10-Acetyl-trichoderonic-acid; LC-ESI-QTOF; MS2; [M+H]+; CE: 30eV
Name: 10-Acetyl-trichoderonic-acid
Class: Natural Product; Terpenoids
Formula: C17H24O7
Exact mass: 340.15220
SMILES: CC(=O)OC(CO)(C1)C(C(=O)2)C(C=C(C(O)=O)CO2)C(C(C)C)C1
InChI: InChI=1S/C17H24O7/c1-9(2)12-4-5-17(8-18,24-10(3)19)14-13(12)6-11(15(20)21)7-23-16(14)22/h6,9,12-14,18H,4-5,7-8H2,1-3H3,(H,20,21)/t12-,13+,14-,17-/m0/s1
Instrument: maXis, Bruker Daltonics
Instrument type: LC-ESI-QTOF
Ms type: MS2
Ion mode: POSITIVE
Collision energy: 30 eV
Ionization: ESI
Column name: Shimadzu Shim-Pack XR-ODS III; C18; 2.2um; 80A; 2.0x150mm
Precursor type: [M+H]+
m/z	relative intensity
117.069400	19
119.085200	25
129.069400	37
131.085300	150
132.089600	16
133.100200	15
137.059600	17
143.085300	51
145.101000	62
147.080300	66
149.059700	28
156.092800	22
157.100800	45
158.108000	17
159.080300	133
160.084600	16
161.059600	52
161.132300	42
163.075000	19
171.116900	222
172.120500	27
173.132600	89
175.075400	412
176.078900	48
177.090600	20
181.101400	24
183.117100	63
185.060000	24
187.111800	23
189.127600	222
190.130600	29
191.106500	36
199.111900	217
200.115500	39
201.127500	86
203.070600	999
204.073900	145
217.122600	501
218.126000	83
221.080500	19
227.106900	127
228.110400	16
235.133000	23
245.117500	327
246.120500	54
263.128000	48
