Mass spectrum: Xanthotoxin; LC-ESI-QTOF; MS2; [M+H]+; CE: 30eV
Name: Xanthotoxin
Class: Natural Product; Phenylpropanoids
Formula: C12H8O4
Exact mass: 216.04226
SMILES: COc(c21)c(O3)c(C=CC(=O)3)cc(cco2)1
InChI: InChI=1S/C12H8O4/c1-14-12-10-8(4-5-15-10)6-7-2-3-9(13)16-11(7)12/h2-6H,1H3
Instrument: maXis, Bruker Daltonics
Instrument type: LC-ESI-QTOF
Ms type: MS2
Ion mode: POSITIVE
Collision energy: 30 eV
Ionization: ESI
Column name: Shimadzu Shim-Pack XR-ODS III; C18; 2.2um; 80A; 2.0x150mm
Precursor type: [M+H]+
m/z	relative intensity
115.052900	19
118.040200	46
129.032700	13
130.040200	10
131.048500	43
145.028100	45
146.035900	125
147.039400	13
157.028300	36
158.035600	26
161.059700	388
162.063000	44
173.023200	10
173.059600	17
174.031400	973
174.048200	21
174.061500	19
174.081700	14
175.034500	102
185.023400	49
189.054700	51
202.026500	999
202.044800	17
202.058600	16
202.080500	13
203.029600	104
204.031600	12
217.049700	122
218.052900	18
