Mass spectrum: Xanthohumol; LC-ESI-QTOF; MS2; [M-H]-; CE: 20eV
Name: Xanthohumol
Class: Natural Product; Flavonoids
Formula: C21H22O5
Exact mass: 354.14672
SMILES: CC(C)=CCc(c(O)1)c(O)c(C(=O)C=Cc(c2)ccc(O)c2)c(OC)c1
InChI: InChI=1S/C21H22O5/c1-13(2)4-10-16-18(24)12-19(26-3)20(21(16)25)17(23)11-7-14-5-8-15(22)9-6-14/h4-9,11-12,22,24-25H,10H2,1-3H3/b11-7+
Instrument: maXis, Bruker Daltonics
Instrument type: LC-ESI-QTOF
Ms type: MS2
Ion mode: NEGATIVE
Collision energy: 20 eV
Ionization: ESI
Column name: Shimadzu Shim-Pack XR-ODS III; C18; 2.2um; 80A; 2.0x150mm
Precursor type: [M-H]-
m/z	relative intensity
119.049800	136
120.053200	13
145.029400	10
165.092100	12
189.092100	16
218.058400	28
233.082000	437
234.085200	68
251.092200	12
295.060700	18
338.114900	12
353.139000	999
353.175300	23
353.203200	26
354.142000	317
355.145100	36
