Mass spectrum: Brucine; LC-ESI-QTOF; MS2; [M+H]+; CE: 40eV
Name: Brucine
Class: Natural Product; Indole alkaloids
Formula: C23H26N2O4
Exact mass: 394.18926
SMILES: COc(c(OC)7)cc(c(c7)1)N(C(=O)5)[C@@]([H])([C@]([H])42)[C@](C6)1[C@@]([H])(N3C6)C[C@@]([H])(C(=CCO[C@@]([H])(C5)4)C3)2
InChI: InChI=1S/C23H26N2O4/c1-27-16-8-14-15(9-17(16)28-2)25-20(26)10-18-21-13-7-19-23(14,22(21)25)4-5-24(19)11-12(13)3-6-29-18/h3,8-9,13,18-19,21-22H,4-7,10-11H2,1-2H3/t13-,18-,19-,21-,22-,23+/m0/s1
Instrument: maXis, Bruker Daltonics
Instrument type: LC-ESI-QTOF
Ms type: MS2
Ion mode: POSITIVE
Collision energy: 40 eV
Ionization: ESI
Column name: Shimadzu Shim-Pack XR-ODS III; C18; 2.2um; 80A; 2.0x150mm
Precursor type: [M+H]+
m/z	relative intensity
124.076500	13
213.078100	24
216.102000	12
229.073500	23
244.096800	257
245.100300	34
251.094000	15
254.117300	11
256.097000	19
258.111700	11
263.094300	16
267.088700	24
280.097000	27
281.102200	10
282.112500	104
283.116100	19
294.112600	18
321.135700	17
322.143600	34
324.123400	244
325.126500	44
332.128700	19
349.155200	19
350.139100	90
351.142000	20
352.144300	18
367.165700	214
368.169000	42
379.165500	12
380.173000	22
395.197200	999
396.200300	225
397.202800	32
