Mass spectrum: Demethoxycurcumin; LC-ESI-QTOF; MS2; [M-H]-; CE: 40eV
Name: Demethoxycurcumin
Class: Natural Product; Phenols
Formula: C20H18O13
Exact mass: 338.11550
SMILES: COc(c1)c(O)ccc(C=CC(=O)CC(=O)C=Cc(c2)ccc(O)c2)9
InChI: InChI=1S/C20H18O5/c1-25-20-12-15(6-11-19(20)24)5-10-18(23)13-17(22)9-4-14-2-7-16(21)8-3-14/h2-12,21,24H,13H2,1H3/b9-4+,10-5+
Instrument: maXis, Bruker Daltonics
Instrument type: LC-ESI-QTOF
Ms type: MS2
Ion mode: NEGATIVE
Collision energy: 40 eV
Ionization: ESI
Column name: Shimadzu Shim-Pack XR-ODS III; C18; 2.2um; 80A; 2.0x150mm
Precursor type: [M-H]-
m/z	relative intensity
115.054400	11
117.033900	48
119.049600	999
120.053100	98
130.042100	17
132.021700	44
133.029100	19
134.037400	435
135.040900	43
143.050600	200
144.053900	23
145.029900	110
146.035700	17
147.045200	13
149.061300	62
158.038000	479
159.042000	60
160.017200	116
161.023100	19
161.061400	13
173.061600	65
174.033000	21
175.040900	59
176.047000	11
187.041200	22
201.020400	234
202.027500	134
203.031100	18
217.051500	14
