Mass spectrum: Isosilybin B; LC-ESI-QTOF; MS2; [M-H]-; CE: 20eV
Name: Isosilybin B
Class: Natural Product; Flavonoids
Formula: C25H22O10
Exact mass: 482.12130
SMILES: COc(c(O)5)cc(cc5)C(O1)C(CO)Oc(c2)c(ccc2[C@@H](O3)[C@@H](O)C(=O)c(c(O)4)c(cc(O)c4)3)1
InChI: InChI=1S/C25H22O10/c1-32-17-6-11(2-4-14(17)28)24-20(10-26)33-18-7-12(3-5-16(18)34-24)25-23(31)22(30)21-15(29)8-13(27)9-19(21)35-25/h2-9,20,23-29,31H,10H2,1H3/t20?,23-,24?,25+/m0/s1
Instrument: maXis, Bruker Daltonics
Instrument type: LC-ESI-QTOF
Ms type: MS2
Ion mode: NEGATIVE
Collision energy: 20 eV
Ionization: ESI
Column name: Shimadzu Shim-Pack XR-ODS III; C18; 2.2um; 80A; 2.0x150mm
Precursor type: [M-H]-
m/z	relative intensity
125.024200	35
178.999400	14
180.007100	15
257.046000	28
283.024900	18
301.035300	73
302.040400	18
435.106300	18
437.121900	23
453.117000	221
454.120400	59
463.101200	43
464.104200	12
481.111900	999
481.187000	18
482.115000	282
483.117600	50
