Mass spectrum: Curcumin; LC-ESI-QTOF; MS2; [M-H]-; CE: 20eV
Name: Curcumin
Class: Natural Product; Phenols
Formula: C21H20O6
Exact mass: 368.12599
SMILES: COc(c1)c(O)ccc(C=CC(O)=CC(=O)C=Cc(c2)cc(OC)c(O)c2)1
InChI: InChI=1S/C21H20O6/c1-26-20-11-14(5-9-18(20)24)3-7-16(22)13-17(23)8-4-15-6-10-19(25)21(12-15)27-2/h3-13,22,24-25H,1-2H3/b7-3+,8-4+,16-13-
Instrument: maXis, Bruker Daltonics
Instrument type: LC-ESI-QTOF
Ms type: MS2
Ion mode: NEGATIVE
Collision energy: 20 eV
Ionization: ESI
Column name: Shimadzu Shim-Pack XR-ODS III; C18; 2.2um; 80A; 2.0x150mm
Precursor type: [M-H]-
m/z	relative intensity
134.037300	294
135.041600	27
149.061200	999
150.064500	92
158.037700	92
160.017000	37
161.024400	14
173.061400	567
174.064700	71
175.040600	311
176.044400	34
191.072000	24
193.051300	42
202.027700	32
217.051300	579
218.054700	86
219.065900	21
352.094600	25
367.118000	350
368.121400	91
369.128300	14
