Mass spectrum: (-)-Curcumol; LC-ESI-QTOF; MS2; [M+H]+; CE: 20eV
Name: (-)-Curcumol
Class: Natural Product; Terpenoids
Formula: C15H24O2
Exact mass: 236.17764
SMILES: CC(C)C(C1)C(O)(C2)OC(C(C)3)1C([H])(CC3)C(=C)2
InChI: InChI=1S/C15H24O2/c1-9(2)13-8-14-11(4)5-6-12(14)10(3)7-15(13,16)17-14/h9,11-13,16H,3,5-8H2,1-2,4H3/t11-,12-,13-,14-,15+/m0/s1
Instrument: maXis (Bruker Daltonics)
Instrument type: LC-ESI-QTOF
Ms type: MS2
Ion mode: POSITIVE
Collision energy: 20 eV
Ionization: ESI
Column name: Shimadzu Shim-Pack XR-ODS III; C18; 2.2um; 80A; 2.0x150mm
Precursor type: [M+H]+
m/z	relative intensity
119.081200	42
121.096900	91
123.112900	29
133.098400	139
135.114300	999
136.118100	128
137.129800	47
145.099900	75
147.115200	35
149.131600	42
159.116100	100
161.130900	35
163.111400	70
177.128100	71
177.163500	27
191.180600	168
192.184100	28
201.165900	108
219.175800	265
220.179700	58
237.186200	77
