Mass spectrum: Silybin B; LC-ESI-QTOF; MS2; [M-H]-; CE: 40eV
Name: Silybin B
Class: Natural Product; Flavonoids
Formula: C25H22O10
Exact mass: 482.12130
SMILES: COc(c(O)5)cc(cc5)C(O1)C(CO)Oc(c4)c(cc(c4)C(O2)C(O)C(=O)c(c(O)3)c(cc(O)c3)2)1
InChI: InChI=1S/C25H22O10/c1-32-17-6-11(2-4-14(17)28)24-20(10-26)33-16-5-3-12(7-18(16)34-24)25-23(31)22(30)21-15(29)8-13(27)9-19(21)35-25/h2-9,20,23-29,31H,10H2,1H3
Instrument: maXis, Bruker Daltonics
Instrument type: LC-ESI-QTOF
Ms type: MS2
Ion mode: NEGATIVE
Collision energy: 40 eV
Ionization: ESI
Column name: Shimadzu Shim-Pack XR-ODS III; C18; 2.2um; 80A; 2.0x150mm
Precursor type: [M-H]-
m/z	relative intensity
121.029100	25
124.016300	56
125.024200	910
126.027600	57
134.037300	20
135.045000	14
136.016700	18
137.024300	33
139.040400	18
145.029800	23
146.037600	65
147.009100	32
147.045200	45
149.024800	81
149.061100	31
150.031100	14
151.004100	325
151.040200	14
152.011900	999
153.018000	119
159.045600	48
161.024900	17
161.061500	47
162.032400	12
163.004300	21
163.040600	27
164.011900	12
164.048500	55
165.020000	63
169.015100	10
171.045800	33
173.024800	13
173.061000	12
175.040700	27
176.011800	11
177.019900	28
177.056500	10
178.999400	329
179.072000	122
180.007000	366
180.075400	14
181.012300	43
183.045900	11
185.061500	28
187.040900	83
188.047400	29
189.020200	15
189.056400	42
191.035700	70
192.041600	14
199.040700	14
201.056400	45
202.062400	15
203.035700	19
205.051400	20
211.041100	33
212.047800	14
213.056400	50
214.027900	15
214.063200	21
215.035700	127
215.071300	11
216.042600	68
217.015300	11
217.050800	40
227.035700	36
228.042500	14
229.051400	156
230.057800	50
231.030600	13
231.066300	32
233.045800	16
239.036000	23
240.043000	17
241.050600	19
243.030000	11
245.046200	33
255.030500	86
255.066700	13
256.036900	42
257.046000	136
258.053000	110
259.060200	42
271.025200	25
271.061000	11
272.032400	13
273.040800	411
274.046300	108
275.054000	27
283.025000	106
284.032400	150
285.039600	80
286.043600	14
289.072500	15
299.055900	18
301.035400	492
302.038800	88
303.042100	12
407.111800	12
423.106900	69
424.109700	17
433.090600	15
435.106500	63
436.110400	14
445.090900	20
451.101200	21
453.117100	58
454.120300	17
463.101200	51
464.104600	15
481.111600	22
