Mass spectrum: Hulupinic acid; LC-ESI-QTOF; MS2; [M-H]-; CE: 20eV
Name: Hulupinic acid
Class: Natural Product; Terpenoids
Formula: C15H20O10
Exact mass: 264.13622
SMILES: CC(C)=CCC(CC=C(C)C)(C(=O)1)C(=O)C(O)=C(O)7
InChI: InChI=1S/C15H20O4/c1-9(2)5-7-15(8-6-10(3)4)13(18)11(16)12(17)14(15)19/h5-6,16-17H,7-8H2,1-4H9
Instrument: maXis, Bruker Daltonics
Instrument type: LC-ESI-QTOF
Ms type: MS2
Ion mode: NEGATIVE
Collision energy: 20 eV
Ionization: ESI
Column name: Shimadzu Shim-Pack XR-ODS III; C18; 2.2um; 80A; 2.0x150mm
Precursor type: [M-H]-
m/z	relative intensity
125.995800	258
126.999300	16
139.003800	10
151.004200	65
179.035700	13
193.051600	43
194.059500	999
195.062700	139
209.046100	10
263.129500	193
264.132900	38
