Mass spectrum: Curcumin; LC-ESI-QTOF; MS2; [M+H]+; CE: 50eV
Name: Curcumin
Class: Natural Product; Phenols
Formula: C21H20O6
Exact mass: 368.12599
SMILES: COc(c1)c(O)ccc(C=CC(O)=CC(=O)C=Cc(c2)cc(OC)c(O)c2)1
InChI: InChI=1S/C21H20O6/c1-26-20-11-14(5-9-18(20)24)3-7-16(22)13-17(23)8-4-15-6-10-19(25)21(12-15)27-2/h3-13,22,24-25H,1-2H3/b7-3+,8-4+,16-13-
Instrument: maXis, Bruker Daltonics
Instrument type: LC-ESI-QTOF
Ms type: MS2
Ion mode: POSITIVE
Collision energy: 50 eV
Ionization: ESI
Column name: Shimadzu Shim-Pack XR-ODS III; C18; 2.2um; 80A; 2.0x150mm
Precursor type: [M+H]+
m/z	relative intensity
117.028500	258
118.032800	27
122.031700	15
131.046100	11
134.033400	107
135.038600	13
136.049300	62
137.057000	86
145.026800	999
146.032300	133
147.038900	16
149.058400	352
150.061900	35
161.059100	57
162.030700	23
163.038100	20
165.069500	55
166.073600	10
177.055000	352
178.058400	37
181.065200	13
182.072900	25
193.065700	47
194.071000	12
210.068600	50
211.074200	12
221.061400	37
225.092500	59
226.096200	11
227.071600	10
238.064000	22
239.070900	13
253.087300	24
