Mass spectrum: Hypnophilin; LC-ESI-QTOF; MS2; [M+H]+; CE: 40eV
Name: Hypnophilin
Class: Natural Product; Terpenoids
Formula: C15H20O3
Exact mass: 248.141244
SMILES: C=C2C(=O)[C@H]4O[C@]43C[C@H]1CC(C)(C)[C@H](O)[C@H]1[C@]23C
InChI: InChI=1S/C15H20O3/c1-7-10(16)12-15(18-12)6-8-5-13(2,3)11(17)9(8)14(7,15)4/h8-9,11-12,17H,1,5-6H2,2-4H3/t8-,9+,11-,12-,14+,15-/m1/s1
Instrument: maXis, Bruker Daltonics
Instrument type: LC-ESI-QTOF
Ms type: MS2
Ion mode: POSITIVE
Collision energy: 40 eV
Ionization: ESI
Column name: Shimadzu Shim-Pack XR-ODS III; C18; 2.2um; 80A; 2.0x150mm
Precursor type: [M+H]+
m/z	relative intensity
91.054100	498
93.070000	267
105.069300	289
107.084200	191
115.054800	508
116.061100	353
117.069800	629
119.086000	999
121.101200	264
129.069900	492
131.085500	509
135.080500	260
137.059500	227
147.079800	278
155.085500	248
159.081200	246
161.059800	215
163.075000	287
