Mass spectrum: Curcumin; LC-ESI-QTOF; MS2; [M+H]+; CE: 40eV
Name: Curcumin
Class: Natural Product; Phenols
Formula: C21H20O6
Exact mass: 368.12599
SMILES: COc(c1)c(O)ccc(C=CC(O)=CC(=O)C=Cc(c2)cc(OC)c(O)c2)1
InChI: InChI=1S/C21H20O6/c1-26-20-11-14(5-9-18(20)24)3-7-16(22)13-17(23)8-4-15-6-10-19(25)21(12-15)27-2/h3-13,22,24-25H,1-2H3/b7-3+,8-4+,16-13-
Instrument: maXis, Bruker Daltonics
Instrument type: LC-ESI-QTOF
Ms type: MS2
Ion mode: POSITIVE
Collision energy: 40 eV
Ionization: ESI
Column name: Shimadzu Shim-Pack XR-ODS III; C18; 2.2um; 80A; 2.0x150mm
Precursor type: [M+H]+
m/z	relative intensity
117.028700	101
118.032700	12
134.033400	30
136.049400	50
137.057100	71
145.026900	999
146.031500	106
149.058400	160
150.062000	16
151.074300	22
161.059300	119
162.030800	12
162.063300	15
163.038300	16
165.069500	15
175.075300	11
177.055000	726
178.058400	75
193.065500	24
210.068600	16
219.066500	17
221.061000	48
225.092400	72
226.095900	13
238.063800	18
253.087400	93
254.092500	22
270.089800	11
285.113300	14
