Mass spectrum: Cytochalasin; LC-ESI-QTOF; MS2; [M+H]+; CE: 20eV
Name: Cytochalasin
Class: Natural Product; Alkaloids
Formula: C30H37NO6
Exact mass: 507.26209
SMILES: C(N3)(=O)C(C1OC(C)=O)(C(C3Cc(c4)cccc4)2)C(C(O)C(C2C)=C)C=CCC(C)C(=O)C(C=C1)(C)O
InChI: InChI=1S/C30H37NO6/c1-17-10-9-13-22-26(33)19(3)18(2)25-23(16-21-11-7-6-8-12-21)31-28(35)30(22,25)24(37-20(4)32)14-15-29(5,36)27(17)34/h6-9,11-15,17-18,22-26,33,36H,3,10,16H2,1-2,4-5H3,(H,31,35)/b13-9+,15-14-/t17?,18-,22-,23?,24+,25?,26-,29+,30?/m0/s1
Instrument: maXis, Bruker Daltonics
Instrument type: LC-ESI-QTOF
Ms type: MS2
Ion mode: POSITIVE
Collision energy: 20 eV
Ionization: ESI
Column name: Shimadzu Shim-Pack XR-ODS III; C18; 2.2um; 80A; 2.0x150mm
Precursor type: [M+H]+
m/z	relative intensity
120.080400	19
265.158700	39
267.173800	17
283.169100	13
374.211500	46
375.214600	13
378.242900	17
384.232000	34
388.226900	27
402.242600	177
403.246000	49
412.227100	178
413.230100	49
430.237800	999
431.241100	287
432.243800	52
448.248000	35
472.248200	18
490.258600	12
