Mass spectrum: Azadirachtin; LC-ESI-QTOF; MS2; [M+H]+; CE: 50eV
Name: Azadirachtin
Class: Natural Product; Terpenoids
Formula: C35H44O16
Exact mass: 720.26294
SMILES: O([C@@](C)31)[C@]1([C@]([C@H](O)6)([C@@]([C@@](O)(C(OC)=O)8)([H])[C@](CO8)([C@@]5([H])7)[C@H](C[C@H]([C@@](CO[C@@]67[H])5C(=O)OC)OC(C)=O)OC(C(C)=CC)=O)C)[C@H](C4)O[C@@]([H])([C@@]2(O)[C@@H]34)OC=C2
InChI: InChI=1S/C35H44O16/c1-8-15(2)24(38)49-18-12-19(48-16(3)36)32(26(39)43-6)13-46-21-22(32)31(18)14-47-34(42,27(40)44-7)25(31)29(4,23(21)37)35-20-11-17(30(35,5)51-35)33(41)9-10-45-28(33)50-20/h8-10,17-23,25,28,37,41-42H,11-14H2,1-7H3/b15-8+/t17-,18+,19-,20+,21-,22-,23-,25+,28+,29-,30+,31+,32+,33+,34+,35+/m1/s1
Instrument: maXis, Bruker Daltonics
Instrument type: LC-ESI-QTOF
Ms type: MS2
Ion mode: POSITIVE
Collision energy: 50 eV
Ionization: ESI
Column name: Shimadzu Shim-Pack XR-ODS III; C18; 2.2um; 80A; 2.0x150mm
Precursor type: [M+H]+
m/z	relative intensity
121.064400	36
123.043600	49
125.059400	35
133.064800	153
135.043900	60
135.080400	55
137.059600	172
139.039500	42
141.069400	34
142.078100	36
143.085300	85
145.064600	67
147.044100	43
147.080600	40
149.060500	155
151.038800	37
151.075400	51
153.054400	47
155.085900	85
157.065900	37
157.101400	162
159.044400	76
159.080300	60
161.060100	478
162.064300	61
163.039400	32
163.075300	83
165.055100	91
167.035000	43
167.085400	82
168.058300	33
169.065700	53
169.101600	58
171.045100	35
171.080800	112
173.060200	60
173.096400	59
175.040500	38
175.075400	68
177.054900	78
177.091400	35
179.070900	115
181.065200	45
181.101500	35
182.073300	96
183.080900	493
183.117600	34
184.085500	94
185.060800	44
185.096700	174
186.100200	37
187.039400	33
187.076300	60
189.055600	87
189.091500	56
191.070800	76
193.050600	42
195.080400	116
196.086500	42
197.060400	102
197.096100	152
198.066800	32
199.075900	256
199.111600	49
200.079600	46
201.056300	55
201.092400	129
203.070900	131
205.088100	34
207.066800	39
209.061000	147
209.097000	57
210.066600	55
211.076000	456
211.112200	52
212.081000	73
213.056300	64
213.091300	237
214.095600	45
215.071200	82
215.107300	91
217.049800	76
217.086700	73
219.065800	98
221.082800	41
221.096800	47
223.075900	162
224.081700	35
225.055200	111
225.091700	134
226.098200	45
227.070800	263
227.107800	77
228.074700	60
229.050600	33
229.086700	149
230.091200	33
231.066500	142
231.103800	59
232.069400	34
233.081600	56
235.064400	35
235.073300	36
235.112800	41
237.055200	128
237.091600	122
238.097900	37
239.071000	214
239.107700	60
240.076800	60
241.053600	60
241.086900	747
242.091000	138
243.066500	110
243.102100	135
245.082400	81
245.132000	53
247.062200	70
247.110800	52
249.078000	92
249.128100	33
251.070800	113
251.107900	49
252.076700	33
253.050500	68
253.086000	127
254.093600	73
255.066000	258
255.102800	133
256.070700	44
256.106000	34
257.082000	229
257.121100	32
258.087300	47
259.062200	81
259.097500	185
260.102000	36
261.078000	78
261.127000	50
263.071500	41
263.097000	41
265.051200	34
265.086700	80
265.122900	38
266.092900	33
267.067100	99
267.102000	90
268.071700	40
269.081700	999
269.119500	39
270.085700	178
271.061400	49
271.097900	228
272.101900	42
272.117800	34
273.078300	96
273.116300	88
275.103200	70
275.144400	53
277.074800	62
277.122500	54
279.066300	51
279.103000	71
281.082100	99
281.117900	52
282.088300	39
283.061100	52
283.097300	220
284.101700	54
285.076800	284
285.122800	71
286.081300	59
287.092600	311
287.142400	55
288.097600	66
289.078700	47
289.121700	83
291.068100	35
291.089900	86
291.138500	51
292.108600	32
293.081200	68
293.117300	55
294.086900	41
295.061400	51
295.097200	90
296.104500	35
297.076900	132
297.113600	68
298.081100	38
299.093200	186
300.099000	63
301.074100	70
301.109500	183
302.092100	42
302.113200	37
302.124400	40
303.091700	98
303.138000	108
304.105500	40
305.082900	33
305.118100	86
305.155700	42
307.098000	58
307.132900	37
309.077200	68
309.111100	60
311.093500	138
312.099200	46
313.073000	80
313.113600	122
313.119100	104
314.127300	41
315.088800	180
315.137600	113
316.094200	40
316.143000	33
317.112700	112
318.121600	41
319.097600	64
319.132300	76
321.077000	44
321.112500	67
323.092900	86
323.128000	48
325.087700	47
325.109100	67
327.091200	143
328.104600	42
329.104700	297
330.108300	52
331.099500	114
331.132000	173
332.104400	36
332.135000	40
333.110700	116
333.148600	65
334.118800	46
335.093400	53
335.128200	78
337.092900	39
337.107000	41
339.093500	66
340.108500	36
341.110600	113
342.118800	53
343.096200	118
343.129800	96
344.102300	44
344.133700	37
345.100800	256
345.141000	39
346.106500	63
347.117800	134
348.118000	33
349.108000	63
349.143800	51
351.090200	47
351.122300	63
353.103000	67
353.138300	35
354.110400	42
355.095000	101
356.103200	34
357.112100	151
358.117200	50
359.094100	95
359.127300	167
360.098400	41
360.132500	54
361.106800	108
361.144300	127
362.148100	35
363.122500	132
365.102800	51
365.139000	46
367.098100	43
367.116500	40
369.110700	87
370.116000	37
371.095100	86
371.115800	97
372.097600	35
373.107900	175
373.137900	55
374.113300	57
375.123100	177
375.159800	37
376.126300	47
377.105300	77
377.139500	84
379.116600	88
379.154500	49
380.120900	32
381.102800	35
381.133600	57
383.094400	75
383.114100	63
385.107600	123
386.112900	44
387.117200	145
388.121000	44
389.124700	259
390.114800	46
390.129400	41
391.118700	145
391.152700	48
392.123600	38
393.102600	45
393.132400	78
395.112600	39
395.149700	38
397.108700	51
399.089700	47
399.125100	42
401.103900	133
401.138200	73
402.107500	56
402.136700	34
403.118000	148
403.151100	45
404.123400	48
405.129700	121
406.131200	40
407.115000	85
407.141800	57
409.129300	67
411.091100	39
411.144500	53
413.105400	51
413.123100	42
415.118200	90
417.099200	78
417.133200	93
418.102400	32
418.138900	33
419.113500	169
419.148300	77
420.118800	59
421.129000	110
422.133400	36
423.109000	35
423.145800	78
425.122200	41
427.122200	41
429.100300	91
429.133500	92
430.139200	40
431.112800	75
433.127400	110
434.127900	35
435.111300	78
435.144300	88
436.149900	35
437.123800	74
437.159700	45
438.129200	37
439.139800	60
443.116600	35
445.094900	33
445.129000	64
447.109800	138
447.143900	130
448.112100	42
448.150700	76
449.123200	102
449.159200	32
450.127400	35
451.138600	72
453.119900	34
453.156100	47
457.094300	35
457.132100	44
461.124600	57
461.159300	44
463.108800	42
463.140600	104
465.121700	113
465.154300	126
466.125500	32
466.160900	45
467.134200	98
468.138400	31
469.150300	49
475.108600	57
475.139700	68
477.117900	36
477.152800	50
479.135500	81
479.170300	31
481.150700	69
483.129400	34
483.165600	64
485.145000	32
489.122000	33
489.155200	45
493.114800	76
493.151200	77
495.130200	38
495.165700	43
497.146100	67
501.176000	31
507.133300	69
507.166400	91
508.171400	33
511.125500	32
511.160800	77
513.141300	44
525.141200	77
525.175800	76
526.142700	37
526.180000	35
543.153900	49
567.186500	78
571.182200	41
585.197300	97
