Mass spectrum: Hulupinic acid; LC-ESI-QTOF; MS2; [M+H]+; CE: 10eV
Name: Hulupinic acid
Class: Natural Product; Terpenoids
Formula: C15H20O4
Exact mass: 264.13616
SMILES: CC(C)=CCC(CC=C(C)C)(C(=O)1)C(=O)C(O)=C(O)1
InChI: InChI=1S/C15H20O4/c1-9(2)5-7-15(8-6-10(3)4)13(18)11(16)12(17)14(15)19/h5-6,16-17H,7-8H2,1-4H3
Instrument: maXis, Bruker Daltonics
Instrument type: LC-ESI-QTOF
Ms type: MS2
Ion mode: POSITIVE
Collision energy: 10 eV
Ionization: ESI
Column name: Shimadzu Shim-Pack XR-ODS III; C18; 2.2um; 80A; 2.0x150mm
Precursor type: [M+H]+
m/z	relative intensity
149.059400	66
163.075200	27
167.070200	53
173.059500	13
177.054600	42
181.086000	37
191.070500	88
191.106700	11
191.143100	34
192.073900	12
195.065500	687
195.097600	11
196.068800	82
197.071300	10
201.127900	12
209.081300	999
209.115600	28
209.136200	17
210.084600	120
211.086100	14
219.138100	43
223.096800	49
229.122500	15
247.133200	110
248.136400	20
265.143800	178
266.147100	32
