Mass spectrum: Berberine; LC-ESI-QTOF; MS2; [M+H]+; CE: 20eV
Name: Berberine
Class: Natural Product; Alkaloids
Formula: C20H18NO4
Exact mass: 336.12358
SMILES: COc(c5)c(OC)c(c4)c(c5)cc([n+1]34)c(c1)c(CC3)cc(O2)c(OC2)1
InChI: InChI=1S/C20H18NO4/c1-22-17-4-3-12-7-16-14-9-19-18(24-11-25-19)8-13(14)5-6-21(16)10-15(12)20(17)23-2/h3-4,7-10H,5-6,11H2,1-2H3/q+1
Instrument: maXis, Bruker Daltonics
Instrument type: LC-ESI-QTOF
Ms type: MS2
Ion mode: POSITIVE
Collision energy: 20 eV
Ionization: ESI
Column name: Shimadzu Shim-Pack XR-ODS III; C18; 2.2um; 80A; 2.0x150mm
Precursor type: [M+H]+
m/z	relative intensity
292.097400	19
320.092100	21
321.099800	99
322.103000	20
336.123600	999
336.164700	16
336.193500	13
337.126600	189
338.129200	28
