Mass spectrum: Hexahydrocurcumin; LC-ESI-QTOF; MS2; [M-H]-; CE: 30eV
Name: Hexahydrocurcumin
Class: Natural Product; Phenols
Formula: C21H26O6
Exact mass: 374.17294
SMILES: COc(c1)c(O)ccc(CCC(O)CC(=O)CCc(c2)cc(OC)c(O)c2)1
InChI: InChI=1S/C21H26O6/c1-26-20-11-14(5-9-18(20)24)3-7-16(22)13-17(23)8-4-15-6-10-19(25)21(12-15)27-2/h5-6,9-12,16,22,24-25H,3-4,7-8,13H2,1-2H3
Instrument: maXis, Bruker Daltonics
Instrument type: LC-ESI-QTOF
Ms type: MS2
Ion mode: NEGATIVE
Collision energy: 30 eV
Ionization: ESI
Column name: Shimadzu Shim-Pack XR-ODS III; C18; 2.2um; 80A; 2.0x150mm
Precursor type: [M-H]-
m/z	relative intensity
121.028900	54
135.045200	16
163.040600	10
164.048500	115
165.056000	79
177.056400	20
178.064200	52
179.072400	999
179.087500	51
179.098200	37
179.118000	29
180.075600	157
181.077500	12
193.087800	64
207.103400	13
219.103300	16
