Mass spectrum: Silybin B; LC-ESI-QTOF; MS2; [M+H]+; CE: 20eV
Name: Silybin B
Class: Natural Product; Flavonoids
Formula: C25H22O10
Exact mass: 482.12130
SMILES: COc(c(O)5)cc(cc5)C(O1)C(CO)Oc(c4)c(cc(c4)C(O2)C(O)C(=O)c(c(O)3)c(cc(O)c3)2)1
InChI: InChI=1S/C25H22O10/c1-32-17-6-11(2-4-14(17)28)24-20(10-26)33-16-5-3-12(7-18(16)34-24)25-23(31)22(30)21-15(29)8-13(27)9-19(21)35-25/h2-9,20,23-29,31H,10H2,1H3
Instrument: maXis, Bruker Daltonics
Instrument type: LC-ESI-QTOF
Ms type: MS2
Ion mode: POSITIVE
Collision energy: 20 eV
Ionization: ESI
Column name: Shimadzu Shim-Pack XR-ODS III; C18; 2.2um; 80A; 2.0x150mm
Precursor type: [M+H]+
m/z	relative intensity
123.039000	20
127.035200	11
131.045500	314
132.049100	35
133.025200	13
135.040900	20
137.056700	198
138.060300	25
139.036600	10
147.042200	122
148.046200	13
149.021700	96
149.058400	28
150.024800	11
150.065600	21
151.074000	36
152.080700	13
153.017000	868
154.020300	64
161.059200	94
162.066900	251
163.074900	999
164.078300	110
165.054200	50
167.033600	67
168.036800	11
177.018900	16
177.055000	121
178.061400	30
179.034100	12
179.070600	118
180.078500	172
181.083700	24
195.029900	723
195.065800	13
196.033200	67
197.035400	12
203.035300	37
213.055800	17
215.034700	13
229.051300	35
233.046400	12
239.072200	29
240.075500	12
241.051400	74
241.087700	18
242.057200	24
251.071700	28
257.046000	151
258.049600	28
259.060200	10
259.098400	36
269.046600	12
269.082300	27
270.088200	16
271.065400	11
271.098300	152
272.101200	24
281.082400	17
283.061400	80
283.098200	167
284.065000	19
284.100900	30
285.040700	58
285.076100	16
286.045700	13
287.056700	30
289.073100	14
295.061100	73
296.064400	13
299.057100	11
299.093000	12
301.073900	31
301.108300	255
302.111900	51
303.050600	28
307.061800	19
309.076900	21
311.056300	237
311.090300	17
312.059300	45
313.070400	55
313.108300	15
314.074400	13
315.050400	24
321.076700	14
323.055800	30
327.086900	24
329.066300	170
330.069700	31
339.086700	46
340.091500	13
341.065600	88
342.069700	22
357.097300	20
359.076700	63
360.078400	15
363.085600	17
379.117300	15
387.086200	53
388.089400	15
389.099900	12
391.118200	24
405.096700	10
407.111900	128
408.115200	31
409.126700	50
410.131200	16
415.080500	39
417.095900	24
418.101100	11
419.111900	359
420.115100	91
421.118000	15
423.105700	24
429.095900	19
433.090900	361
434.094000	80
435.106200	466
436.110100	127
437.121900	599
438.125200	156
439.128200	27
447.106500	306
448.109100	73
449.112100	18
453.116600	97
454.119200	23
464.110000	11
465.116800	877
466.119700	211
467.121900	48
483.127300	283
484.130100	77
485.132100	18
