Mass spectrum: 10-Acetyl-trichoderonic-acid; LC-ESI-QTOF; MS2; [M+H]+; CE: 50eV
Name: 10-Acetyl-trichoderonic-acid
Class: Natural Product; Terpenoids
Formula: C17H24O7
Exact mass: 340.15220
SMILES: CC(=O)OC(CO)(C1)C(C(=O)2)C(C=C(C(O)=O)CO2)C(C(C)C)C1
InChI: InChI=1S/C17H24O7/c1-9(2)12-4-5-17(8-18,24-10(3)19)14-13(12)6-11(15(20)21)7-23-16(14)22/h6,9,12-14,18H,4-5,7-8H2,1-3H3,(H,20,21)/t12-,13+,14-,17-/m0/s1
Instrument: maXis, Bruker Daltonics
Instrument type: LC-ESI-QTOF
Ms type: MS2
Ion mode: POSITIVE
Collision energy: 50 eV
Ionization: ESI
Column name: Shimadzu Shim-Pack XR-ODS III; C18; 2.2um; 80A; 2.0x150mm
Precursor type: [M+H]+
m/z	relative intensity
105.069200	61
107.085100	30
115.053900	37
116.061400	69
117.069500	126
119.085300	178
128.061900	111
129.069500	362
130.075700	57
131.085200	320
132.090500	47
133.064500	60
141.069800	93
142.077600	120
143.085300	256
144.091400	40
145.101000	145
146.072300	50
147.080400	235
149.059400	39
155.085500	64
156.093400	283
157.065000	213
158.071400	49
159.080400	129
161.132600	67
166.077400	38
168.093300	32
171.116800	196
175.075600	999
176.078900	114
184.088100	43
185.059800	35
189.127300	79
199.111900	59
203.070400	109
