Mass spectrum: Bufalin; LC-ESI-QTOF; MS2; [M+H]+; CE: 50eV
Name: Bufalin
Class: Natural Product; Steroids
Formula: C24H34O4
Exact mass: 386.24571
SMILES: C(C1([H])4)(C)(C5)C([H])(CC(O)C5)CCC(C(C(C)(CC4)2)(O)CCC2C(C=3)=COC(=O)C3)1[H]
InChI: InChI=1S/C24H34O4/c1-22-10-7-17(25)13-16(22)4-5-20-19(22)8-11-23(2)18(9-12-24(20,23)27)15-3-6-21(26)28-14-15/h3,6,14,16-20,25,27H,4-5,7-13H2,1-2H3/t16-,17+,18-,19+,20-,22+,23-,24+/m1/s1
Instrument: maXis, Bruker Daltonics
Instrument type: LC-ESI-QTOF
Ms type: MS2
Ion mode: POSITIVE
Collision energy: 50 eV
Ionization: ESI
Column name: Shimadzu Shim-Pack XR-ODS III; C18; 2.2um; 80A; 2.0x150mm
Precursor type: [M+H]+
m/z	relative intensity
91.054700	147
93.068200	203
95.085700	235
105.070600	553
107.085000	547
109.101000	326
119.085800	584
121.101600	490
123.044800	261
129.070400	179
131.086000	641
133.101500	747
135.116800	324
137.060200	146
143.086200	526
145.101600	902
147.116900	999
148.120800	132
149.132500	197
155.085500	237
157.101600	344
159.116900	716
160.121500	163
161.132800	876
169.100700	213
171.116800	235
173.132500	371
181.101600	132
183.116800	265
185.132200	269
187.148100	252
189.091000	211
195.117200	125
197.132200	284
199.148000	254
201.163600	140
369.242500	289
