Mass spectrum: Brucine; LC-ESI-QTOF; MS2; [M+H]+; CE: 50eV
Name: Brucine
Class: Natural Product; Indole alkaloids
Formula: C23H26N2O4
Exact mass: 394.18926
SMILES: COc(c(OC)7)cc(c(c7)1)N(C(=O)5)[C@@]([H])([C@]([H])42)[C@](C6)1[C@@]([H])(N3C6)C[C@@]([H])(C(=CCO[C@@]([H])(C5)4)C3)2
InChI: InChI=1S/C23H26N2O4/c1-27-16-8-14-15(9-17(16)28-2)25-20(26)10-18-21-13-7-19-23(14,22(21)25)4-5-24(19)11-12(13)3-6-29-18/h3,8-9,13,18-19,21-22H,4-7,10-11H2,1-2H3/t13-,18-,19-,21-,22-,23+/m0/s1
Instrument: maXis, Bruker Daltonics
Instrument type: LC-ESI-QTOF
Ms type: MS2
Ion mode: POSITIVE
Collision energy: 50 eV
Ionization: ESI
Column name: Shimadzu Shim-Pack XR-ODS III; C18; 2.2um; 80A; 2.0x150mm
Precursor type: [M+H]+
m/z	relative intensity
106.065200	12
108.081200	32
122.060400	28
124.076000	40
147.068800	10
148.076300	18
176.070300	12
177.078200	10
178.086200	45
184.075500	13
185.083300	44
190.085700	36
192.065300	33
197.083600	23
198.055000	17
200.070100	10
201.077900	16
204.101600	36
212.070100	22
213.078200	308
214.082500	47
216.101700	165
217.105100	25
226.086100	22
227.093200	42
228.101300	40
229.073200	272
230.078000	47
231.114200	11
236.070500	13
240.101200	15
242.081100	18
243.088000	27
244.096800	999
245.100200	138
246.105100	26
249.079400	14
250.085200	14
251.094100	107
252.098500	25
254.117600	84
255.120700	14
256.096500	71
257.102000	19
258.112000	41
260.092100	24
262.086000	17
263.094000	101
264.099600	37
265.074200	24
266.080600	15
267.088700	110
268.093600	27
270.112900	16
272.092600	19
276.101700	11
277.108300	14
278.117400	35
279.089400	17
280.097200	106
281.102700	41
282.112400	203
283.116800	41
284.093400	13
288.102100	12
289.109200	16
290.117500	11
291.124700	26
292.097100	19
293.103300	14
294.112800	69
295.117400	20
296.126800	16
297.100600	13
298.107200	21
301.110000	34
304.097400	12
305.105400	10
306.112800	63
307.118800	35
308.126000	26
309.126900	16
317.105200	18
318.111700	11
319.119700	23
320.127300	17
321.136100	72
322.143200	102
323.143700	29
324.123300	315
325.126400	66
326.132700	14
332.128400	34
333.130800	12
334.133700	20
335.116200	17
336.146400	17
337.154000	13
338.138700	19
349.155600	29
350.139200	140
351.141900	38
352.142900	51
353.146700	11
366.171400	14
367.166100	237
368.168700	51
379.165600	51
380.172700	28
395.197400	422
396.200200	97
397.203900	17
