Mass spectrum: Lycorine-diacetate; LC-ESI-QTOF; MS2; [M+H]+; CE: 50eV
Name: Lycorine-diacetate
Class: Non Natural Product; Isoquinoline alkaloids
Formula: C20H21NO6
Exact mass: 371.13689
SMILES: CC(=O)OC(C=5)C(OC(C)=O)C([H])(c21)C([H])(C45)N(CC4)Cc(cc(O3)c(OC3)c2)1
InChI: InChI=1S/C20H21NO6/c1-10(22)26-17-5-12-3-4-21-8-13-6-15-16(25-9-24-15)7-14(13)18(19(12)21)20(17)27-11(2)23/h5-7,17-20H,3-4,8-9H2,1-2H3/t17-,18-,19+,20+/m0/s1
Instrument: maXis, Bruker Daltonics
Instrument type: LC-ESI-QTOF
Ms type: MS2
Ion mode: POSITIVE
Collision energy: 50 eV
Ionization: ESI
Column name: Shimadzu Shim-Pack XR-ODS III; C18; 2.2um; 80A; 2.0x150mm
Precursor type: [M+H]+
m/z	relative intensity
110.059300	35
119.048800	47
134.059600	85
135.043600	27
147.043900	188
148.047600	27
152.062000	34
159.044000	77
165.069900	72
166.067000	26
167.085200	123
173.059700	35
175.039200	34
177.054600	32
180.080500	38
185.059600	31
192.080700	88
193.088600	156
194.096400	999
195.099800	146
204.080900	34
207.068000	25
211.075200	30
212.107000	41
220.075800	71
221.082900	68
222.091500	755
223.095300	128
224.071400	43
225.079300	35
237.078600	42
240.101900	49
250.086400	411
251.090600	78
252.101700	125
253.106500	28
270.112600	91
