Mass spectrum: Azadirachtin; LC-ESI-QTOF; MS2; [M+H]+; CE: 30eV
Name: Azadirachtin
Class: Natural Product; Terpenoids
Formula: C35H44O16
Exact mass: 720.26294
SMILES: O([C@@](C)31)[C@]1([C@]([C@H](O)6)([C@@]([C@@](O)(C(OC)=O)8)([H])[C@](CO8)([C@@]5([H])7)[C@H](C[C@H]([C@@](CO[C@@]67[H])5C(=O)OC)OC(C)=O)OC(C(C)=CC)=O)C)[C@H](C4)O[C@@]([H])([C@@]2(O)[C@@H]34)OC=C2
InChI: InChI=1S/C35H44O16/c1-8-15(2)24(38)49-18-12-19(48-16(3)36)32(26(39)43-6)13-46-21-22(32)31(18)14-47-34(42,27(40)44-7)25(31)29(4,23(21)37)35-20-11-17(30(35,5)51-35)33(41)9-10-45-28(33)50-20/h8-10,17-23,25,28,37,41-42H,11-14H2,1-7H3/b15-8+/t17-,18+,19-,20+,21-,22-,23-,25+,28+,29-,30+,31+,32+,33+,34+,35+/m1/s1
Instrument: maXis, Bruker Daltonics
Instrument type: LC-ESI-QTOF
Ms type: MS2
Ion mode: POSITIVE
Collision energy: 30 eV
Ionization: ESI
Column name: Shimadzu Shim-Pack XR-ODS III; C18; 2.2um; 80A; 2.0x150mm
Precursor type: [M+H]+
m/z	relative intensity
123.043100	10
137.059300	23
149.059900	12
161.059600	69
162.063300	10
163.074600	14
165.054700	11
179.070600	25
183.080800	45
197.096700	11
199.076100	13
203.070600	12
211.075700	19
213.091500	21
217.049400	12
219.066100	14
225.090400	13
227.071000	14
229.086100	15
231.065500	23
237.076500	13
239.070700	12
241.086400	97
242.089700	14
243.101700	33
247.060600	11
249.076500	28
255.065700	12
255.100700	14
257.081200	13
259.097400	16
261.076200	10
263.092600	11
267.088900	11
269.081400	135
270.084400	25
271.096800	30
273.077200	14
273.112600	16
277.071200	23
283.097000	63
284.100900	12
285.076300	23
287.092500	40
289.106400	13
291.087500	27
297.076800	18
297.114600	12
299.091300	23
301.107600	78
302.111100	15
303.086300	12
303.123000	14
305.102100	12
311.093200	23
313.108200	13
315.087400	36
315.137100	18
317.102000	27
319.120800	14
327.087500	12
329.102800	205
330.105700	36
331.123000	23
333.098800	26
333.149100	19
337.092100	15
341.106800	12
343.083500	14
343.130400	22
345.097800	50
347.113700	66
348.117600	14
349.096600	11
351.108400	13
353.102700	12
357.109700	16
359.124900	25
361.092500	18
361.143400	39
363.114900	18
371.115300	20
373.103900	20
375.111900	40
375.160600	19
377.136700	21
379.109600	13
379.153900	13
381.101800	10
385.107900	16
387.109400	37
388.113700	10
389.123900	107
390.128200	27
391.119700	22
391.148800	21
393.128700	21
393.169700	14
395.113900	11
395.148200	10
401.104600	19
401.130800	18
403.119300	35
403.151500	26
404.122700	12
405.120500	57
406.125000	16
407.131200	17
409.128700	12
411.143600	15
413.106200	14
415.118000	19
417.100000	20
417.134000	21
419.114600	42
419.142000	27
420.118600	12
420.153100	10
421.129500	41
421.164500	28
422.131900	11
423.142500	18
425.122800	11
427.121700	11
429.097800	17
429.133000	21
430.140900	10
431.114300	28
433.118000	47
434.120800	12
435.110700	25
435.139500	40
437.123600	28
437.157700	20
439.138400	35
439.176400	13
440.143600	10
441.153500	15
443.121500	17
445.129200	37
447.111300	48
447.137800	45
448.112200	13
448.144100	13
449.123800	46
449.155900	16
450.126300	15
451.137500	36
453.120600	14
453.154300	25
455.136900	17
457.148500	21
461.124300	30
462.127100	15
463.139700	70
464.143300	21
465.122200	62
465.151000	68
466.123600	23
466.155600	22
467.134000	55
467.169500	19
468.138200	10
469.150300	19
471.162500	13
475.104100	33
475.141600	34
476.144700	11
477.120800	24
477.154800	25
479.134400	66
479.168000	20
480.138400	18
481.148600	62
481.186000	43
482.154200	19
483.130200	31
483.165200	40
485.145500	20
489.120700	31
489.159100	34
490.161300	10
493.116100	42
493.149900	45
494.120700	12
494.155800	11
495.131200	46
495.166000	51
496.169300	18
497.145500	79
498.149400	25
499.160100	38
501.175200	36
503.157500	18
507.131300	99
507.165700	131
508.135100	29
508.168600	38
509.143700	12
509.174000	11
511.127800	30
511.160700	54
513.140800	38
513.175300	14
515.155200	46
516.158700	12
517.161800	10
525.140700	207
525.175600	134
526.144200	61
526.179300	38
527.149700	15
527.182900	12
529.170500	36
531.153100	18
533.166300	37
534.170500	12
535.161700	14
537.178300	12
539.157200	17
539.193800	11
543.151700	179
543.186100	48
544.154700	42
545.158900	19
547.181900	19
549.176300	26
553.136600	14
553.170400	20
555.185100	20
557.168200	16
561.161100	88
562.165100	30
567.187600	167
568.191000	51
569.193300	14
571.182500	31
579.172400	20
581.201000	12
585.198300	999
586.201500	321
587.203500	68
588.207400	11
589.192900	35
601.229500	16
603.173400	81
603.209000	70
604.178000	28
604.211000	21
607.205800	17
621.182800	40
622.186700	11
625.198600	16
625.226700	17
643.205500	15
661.214700	37
662.218900	14
667.210800	10
667.238600	13
679.224400	18
685.250000	44
686.254400	16
689.246100	21
703.262800	349
704.265300	114
705.268700	32
707.258100	47
721.236800	109
722.240700	38
723.243100	10
724.224500	12
725.266900	18
