Mass spectrum: Silybin B; LC-ESI-QTOF; MS2; [M+H]+; CE: 50eV
Name: Silybin B
Class: Natural Product; Flavonoids
Formula: C25H22O10
Exact mass: 482.12130
SMILES: COc(c(O)5)cc(cc5)C(O1)C(CO)Oc(c4)c(cc(c4)C(O2)C(O)C(=O)c(c(O)3)c(cc(O)c3)2)1
InChI: InChI=1S/C25H22O10/c1-32-17-6-11(2-4-14(17)28)24-20(10-26)33-16-5-3-12(7-18(16)34-24)25-23(31)22(30)21-15(29)8-13(27)9-19(21)35-25/h2-9,20,23-29,31H,10H2,1H3
Instrument: maXis, Bruker Daltonics
Instrument type: LC-ESI-QTOF
Ms type: MS2
Ion mode: POSITIVE
Collision energy: 50 eV
Ionization: ESI
Column name: Shimadzu Shim-Pack XR-ODS III; C18; 2.2um; 80A; 2.0x150mm
Precursor type: [M+H]+
m/z	relative intensity
119.044200	46
121.023900	82
121.059800	22
122.030600	18
123.039400	26
124.047500	34
127.035100	10
130.037900	79
131.045800	202
132.050900	25
133.025300	137
133.061700	27
134.031500	20
135.041000	68
136.046800	10
137.057100	229
138.060900	23
139.036400	97
145.062700	22
146.034300	41
147.042400	314
148.047000	35
149.021900	532
149.058100	212
150.025500	45
150.065900	182
151.037100	18
151.072300	35
152.080500	12
153.017200	999
153.067100	10
154.020700	75
155.022100	10
155.048500	20
155.084100	11
157.063700	24
159.043400	95
160.048900	13
161.022800	20
161.059200	130
162.066900	367
163.038400	21
163.071600	40
165.017400	11
165.054600	19
165.069800	23
167.033700	182
167.085400	22
168.036800	16
169.065600	13
171.029600	13
171.043600	14
173.059700	65
174.063900	10
175.039300	12
177.018500	20
177.055100	77
178.060300	11
179.034600	12
179.070500	10
180.078400	12
181.013800	13
181.065000	21
183.044600	31
183.080600	21
184.050800	11
185.060100	34
187.039900	40
189.055800	12
193.065400	14
194.072900	10
195.029700	274
195.081500	50
196.033300	26
197.060900	32
199.040100	12
199.075900	13
201.055700	159
202.059400	21
203.035000	18
205.066300	28
207.081600	13
209.060600	13
210.068200	17
211.040200	19
211.076600	33
212.047800	14
212.081900	11
213.056000	203
214.060500	32
215.035600	14
215.070900	11
221.061200	22
222.068100	12
223.076600	55
224.081900	15
225.056000	26
225.091900	13
226.062500	13
227.035200	11
227.071600	18
229.051100	237
230.055100	38
231.066200	54
233.061400	21
234.067000	11
235.076300	16
237.056300	27
238.063400	20
239.035500	23
239.071600	62
240.077600	19
241.051200	138
241.086100	11
242.058200	90
243.063300	16
249.056100	11
250.063800	14
251.071700	102
252.076500	26
253.050800	16
253.087000	19
254.057700	10
255.066800	58
255.102600	11
256.070800	12
257.045900	141
258.051600	32
261.056400	13
263.071700	12
267.067000	24
268.072900	17
269.045800	44
269.082000	13
270.052200	14
271.062500	11
271.097800	20
279.066600	24
281.082500	14
283.061600	19
283.098200	48
285.041300	19
285.077600	22
286.047900	11
287.056000	12
295.061200	27
297.040600	18
311.055800	15
313.086100	12
331.096100	14
341.081100	14
345.077100	11
347.091600	10
359.091200	25
375.086400	11
379.117400	70
380.121300	17
387.085900	15
391.117800	33
433.090700	16
