Mass spectrum: Hydroheptilidic-acid; LC-ESI-QTOF; MS2; [M+H]+; CE: 30eV
Name: Hydroheptilidic-acid
Class: Natural Product; Carbonic acid derivatives
Formula: C15H22O6
Exact mass: 298.14164
SMILES: OCC(C(O)=O)=CC(C(C(C)C)1)C(C(=O)2)C(O)(CO2)CC1
InChI: InChI=1S/C15H22O6/c1-8(2)10-3-4-15(20)7-21-14(19)12(15)11(10)5-9(6-16)13(17)18/h5,8,10-12,16,20H,3-4,6-7H2,1-2H3,(H,17,18)/b9-5+
Instrument: maXis, Bruker Daltonics
Instrument type: LC-ESI-QTOF
Ms type: MS2
Ion mode: POSITIVE
Collision energy: 30 eV
Ionization: ESI
Column name: Shimadzu Shim-Pack XR-ODS III; C18; 2.2um; 80A; 2.0x150mm
Precursor type: [M+H]+
m/z	relative intensity
105.069600	19
107.085500	42
117.069600	30
119.085400	92
121.101100	55
123.079800	19
129.069600	71
131.085200	264
132.088900	30
133.100400	40
135.117000	24
141.069900	16
142.077600	19
143.085600	68
145.101200	106
147.080300	142
148.084600	19
149.096200	219
155.085600	32
156.092700	60
157.100800	161
158.107700	40
159.080700	201
161.096400	43
163.076600	19
168.093000	21
171.117100	220
172.121100	32
173.132500	108
175.075600	407
176.078900	53
177.091000	223
178.094600	32
181.101400	61
183.116900	51
185.095900	38
187.111800	39
189.127400	172
190.131100	25
191.143400	27
193.085700	20
199.112100	329
200.115700	49
201.127500	63
203.070600	694
204.074000	80
205.122400	61
209.096300	23
217.122600	269
218.126100	39
221.081100	999
222.084700	128
227.106800	97
228.110800	17
235.133600	136
236.136000	17
245.117600	179
246.120800	28
263.128600	38
