Mass spectrum: Xanthotoxin; LC-ESI-QTOF; MS2; [M+H]+; CE: 20eV
Name: Xanthotoxin
Class: Natural Product; Phenylpropanoids
Formula: C12H8O4
Exact mass: 216.04226
SMILES: COc(c21)c(O3)c(C=CC(=O)3)cc(cco2)1
InChI: InChI=1S/C12H8O4/c1-14-12-10-8(4-5-15-10)6-7-2-3-9(13)16-11(7)12/h2-6H,1H3
Instrument: maXis, Bruker Daltonics
Instrument type: LC-ESI-QTOF
Ms type: MS2
Ion mode: POSITIVE
Collision energy: 20 eV
Ionization: ESI
Column name: Shimadzu Shim-Pack XR-ODS III; C18; 2.2um; 80A; 2.0x150mm
Precursor type: [M+H]+
m/z	relative intensity
146.035600	15
158.035800	17
161.059600	177
162.062700	18
173.059600	50
174.031100	134
175.034400	14
185.023300	80
189.054600	92
190.057800	11
202.026400	730
202.058400	12
202.080500	11
203.029500	74
217.050000	999
217.083400	25
217.106100	23
218.053000	146
219.054900	16
