Mass spectrum: Cynarine; LC-ESI-QTOF; MS2; [M+H]+; CE: 10eV
Name: Cynarine
Class: Natural Product; Phenylpropanoids
Formula: C25H24O12
Exact mass: 516.12678
SMILES: Oc(c1)c(O)cc(C=CC(=O)O[C@@H]([C@@H](O)2)C[C@@](OC(=O)C=Cc(c3)cc(O)c(O)c3)(C(O)=O)C[C@@H](O)2)c1
InChI: InChI=1S/C25H24O12/c26-15-5-1-13(9-17(15)28)3-7-21(31)36-20-12-25(24(34)35,11-19(30)23(20)33)37-22(32)8-4-14-2-6-16(27)18(29)10-14/h1-10,19-20,23,26-30,33H,11-12H2,(H,34,35)/b7-3+,8-4+/t19-,20-,23+,25-/m1/s1
Instrument: maXis, Bruker Daltonics
Instrument type: LC-ESI-QTOF
Ms type: MS2
Ion mode: POSITIVE
Collision energy: 10 eV
Ionization: ESI
Column name: Shimadzu Shim-Pack XR-ODS III; C18; 2.2um; 80A; 2.0x150mm
Precursor type: [M+H]+
m/z	relative intensity
145.026600	11
163.038700	999
164.042000	93
309.097000	15
337.092200	299
338.095700	56
355.101900	41
499.122000	546
500.125300	144
501.127400	32
515.116400	23
517.132200	182
518.135800	44
519.138500	13
