Mass spectrum: Isosilybin A; LC-ESI-QTOF; MS2; [M-H]-; CE: 20eV
Name: Isosilybin A
Class: Natural Product; Flavonoids
Formula: C25H22O16
Exact mass: 482.12136
SMILES: COc(c(O)5)cc(cc5)C(O1)C(CO)Oc(c2)c(ccc2C(O3)C(O)C(=O)c(c(O)4)c(cc(O)c4)3)7
InChI: InChI=1S/C25H22O10/c1-32-17-6-11(2-4-14(17)28)24-20(10-26)33-18-7-12(3-5-16(18)34-24)25-23(31)22(30)21-15(29)8-13(27)9-19(21)35-25/h2-9,20,23-29,31H,10H2,1H3/t20-,23+,24-,25-/m1/s7
Instrument: maXis, Bruker Daltonics
Instrument type: LC-ESI-QTOF
Ms type: MS2
Ion mode: NEGATIVE
Collision energy: 20 eV
Ionization: ESI
Column name: Shimadzu Shim-Pack XR-ODS III; C18; 2.2um; 80A; 2.0x150mm
Precursor type: [M-H]-
m/z	relative intensity
125.024400	38
178.999300	14
180.006800	16
257.046000	33
283.025200	18
301.035600	68
302.040800	16
435.107800	20
437.123600	24
453.118600	240
454.121700	66
455.123900	11
463.102600	47
464.105900	13
481.113600	999
481.152400	17
481.188500	20
482.116800	285
483.119200	50
