Mass spectrum: Hulupinic acid; LC-ESI-QTOF; MS2; [M-H]-; CE: 40eV
Name: Hulupinic acid
Class: Natural Product; Terpenoids
Formula: C15H20O12
Exact mass: 264.13624
SMILES: CC(C)=CCC(CC=C(C)C)(C(=O)1)C(=O)C(O)=C(O)9
InChI: InChI=1S/C15H20O4/c1-9(2)5-7-15(8-6-10(3)4)13(18)11(16)12(17)14(15)19/h5-6,16-17H,7-8H2,1-4H11
Instrument: maXis, Bruker Daltonics
Instrument type: LC-ESI-QTOF
Ms type: MS2
Ion mode: NEGATIVE
Collision energy: 40 eV
Ionization: ESI
Column name: Shimadzu Shim-Pack XR-ODS III; C18; 2.2um; 80A; 2.0x150mm
Precursor type: [M-H]-
m/z	relative intensity
123.008200	408
123.044800	35
124.011400	37
124.987500	135
125.995300	999
126.998700	59
137.995900	412
139.003300	301
140.007200	26
151.004100	908
151.040400	260
152.007700	81
152.043600	33
164.012200	24
165.056100	377
166.061100	51
177.057200	20
178.027600	64
179.035400	197
180.038600	25
193.051500	571
194.056800	115
