Mass spectrum: Keracyanine; LC-ESI-QTOF; MS2; [M-H]-; CE: 30eV
Name: Keracyanine
Class: Natural Product; Flavonoids
Formula: [C27H31O15]+
Exact mass: 595.16630
SMILES: c(c(c([o+1]2)c(O[C@H](O4)[C@@H]([C@H]([C@@H]([C@H]4CO[C@@H]([C@@H]5O)O[C@H]([C@@H]([C@H]5O)O)C)O)O)O)cc(c(O)3)c(cc(O)c3)2)1)c(O)c(O)cc1
InChI: InChI=1S/C27H30O15/c1-9-19(32)21(34)23(36)26(39-9)38-8-18-20(33)22(35)24(37)27(42-18)41-17-7-12-14(30)5-11(28)6-16(12)40-25(17)10-2-3-13(29)15(31)4-10/h2-7,9,18-24,26-27,32-37H,8H2,1H3,(H3-,28,29,30,31)/p+1/t9-,18+,19-,20+,21+,22-,23+,24+,26+,27+/m0/s1
Instrument: maXis (Bruker Daltonics)
Instrument type: LC-ESI-QTOF
Ms type: MS2
Ion mode: NEGATIVE
Collision energy: 30 eV
Ionization: ESI
Column name: Shimadzu Shim-Pack XR-ODS III; C18; 2.2um; 80A; 2.0x150mm
Precursor type: [M-H]-
m/z	relative intensity
125.024100	27
284.032600	439
285.040000	515
286.043400	82
287.048000	11
299.055800	80
300.059400	14
327.050400	53
328.053500	11
339.050000	14
357.060900	28
467.117100	14
593.148700	999
594.152100	310
595.154600	67
