Mass spectrum: Hexahydrocurcumin; LC-ESI-QTOF; MS2; [M+H]+; CE: 30eV
Name: Hexahydrocurcumin
Class: Natural Product; Phenols
Formula: C21H26O6
Exact mass: 374.17294
SMILES: COc(c1)c(O)ccc(CCC(O)CC(=O)CCc(c2)cc(OC)c(O)c2)1
InChI: InChI=1S/C21H26O6/c1-26-20-11-14(5-9-18(20)24)3-7-16(22)13-17(23)8-4-15-6-10-19(25)21(12-15)27-2/h5-6,9-12,16,22,24-25H,3-4,7-8,13H2,1-2H3
Instrument: maXis, Bruker Daltonics
Instrument type: LC-ESI-QTOF
Ms type: MS2
Ion mode: POSITIVE
Collision energy: 30 eV
Ionization: ESI
Column name: Shimadzu Shim-Pack XR-ODS III; C18; 2.2um; 80A; 2.0x150mm
Precursor type: [M+H]+
m/z	relative intensity
122.031800	25
131.046000	162
132.049500	15
137.057500	999
137.072700	32
137.083800	23
137.102100	20
138.060700	80
145.063200	76
162.067000	16
163.075200	218
164.078600	22
165.090600	29
177.091600	142
178.095100	17
179.070900	88
189.091900	11
207.103000	13
