Mass spectrum: Isosilybin B; LC-ESI-QTOF; MS2; [M-H]-; CE: 40eV
Name: Isosilybin B
Class: Natural Product; Flavonoids
Formula: C25H22O10
Exact mass: 482.12130
SMILES: COc(c(O)5)cc(cc5)C(O1)C(CO)Oc(c2)c(ccc2[C@@H](O3)[C@@H](O)C(=O)c(c(O)4)c(cc(O)c4)3)1
InChI: InChI=1S/C25H22O10/c1-32-17-6-11(2-4-14(17)28)24-20(10-26)33-18-7-12(3-5-16(18)34-24)25-23(31)22(30)21-15(29)8-13(27)9-19(21)35-25/h2-9,20,23-29,31H,10H2,1H3/t20?,23-,24?,25+/m0/s1
Instrument: maXis, Bruker Daltonics
Instrument type: LC-ESI-QTOF
Ms type: MS2
Ion mode: NEGATIVE
Collision energy: 40 eV
Ionization: ESI
Column name: Shimadzu Shim-Pack XR-ODS III; C18; 2.2um; 80A; 2.0x150mm
Precursor type: [M-H]-
m/z	relative intensity
121.028900	26
124.016200	42
125.024000	999
126.027400	62
134.037100	10
137.024300	16
139.040000	23
145.029500	20
146.037300	35
147.009000	34
147.045200	47
149.024700	69
149.060800	18
151.004000	256
152.011800	661
153.018500	123
159.045700	29
161.024900	11
161.061200	34
162.032400	11
163.004200	14
163.040300	28
164.048200	33
165.019600	19
171.045700	35
173.061200	12
175.040700	17
177.056300	11
178.999200	169
179.071900	81
180.006900	198
180.075400	10
181.013400	38
185.061400	26
187.040700	84
188.047400	30
189.019800	15
189.056000	43
191.035600	48
192.041500	10
193.051000	12
201.056400	42
202.062800	11
203.035700	11
205.051300	20
211.040700	26
212.047800	12
213.056400	44
214.028000	11
214.063100	22
215.035500	97
215.071200	11
216.042800	63
217.014800	13
217.050300	37
227.035700	23
228.042700	13
229.051200	153
230.057300	50
231.030300	15
231.066200	40
233.045800	12
239.035700	15
241.050600	11
243.030300	13
245.045800	27
255.030300	59
255.066500	11
256.037200	29
257.045700	139
258.052900	107
259.060100	42
271.025000	39
271.061200	14
272.031300	19
273.040700	285
274.046900	103
275.053300	26
283.024800	88
284.032400	141
285.038100	41
287.055900	10
289.071600	11
301.035100	172
302.038900	31
423.106700	34
435.106700	76
436.109900	22
453.116700	97
454.120200	26
463.101000	13
481.111400	29
482.114200	12
