Mass spectrum: Lycorine; LC-ESI-QTOF; MS2; [M+H]+; CE: 30eV
Name: Lycorine
Class: Natural Product; Alkaloids
Formula: C16H17NO4
Exact mass: 287.11576
SMILES: O[C@@H](C=5)[C@@H](O)[C@@]([H])(c21)[C@@]([H])(C45)N(CC4)Cc(cc(O3)c(OC3)c2)1
InChI: InChI=1S/C16H17NO4/c18-11-3-8-1-2-17-6-9-4-12-13(21-7-20-12)5-10(9)14(15(8)17)16(11)19/h3-5,11,14-16,18-19H,1-2,6-7H2/t11-,14-,15+,16+/m0/s1
Instrument: maXis, Bruker Daltonics
Instrument type: LC-ESI-QTOF
Ms type: MS2
Ion mode: POSITIVE
Collision energy: 30 eV
Ionization: ESI
Column name: Shimadzu Shim-Pack XR-ODS III; C18; 2.2um; 80A; 2.0x150mm
Precursor type: [M+H]+
m/z	relative intensity
111.067100	14
112.075000	60
119.048600	151
124.075300	44
134.059600	35
135.043700	23
147.043900	999
148.047300	98
149.059300	35
152.070300	12
165.054600	16
173.059400	13
175.039200	11
177.054600	427
178.058000	43
188.070400	12
194.096400	30
199.075200	20
212.107200	25
213.090800	10
222.091300	72
223.095400	11
225.088900	11
228.101500	11
240.101800	37
241.086100	13
242.117700	38
250.086100	12
252.101900	72
270.112500	242
271.115700	36
286.107200	12
288.123100	639
289.126200	117
290.128800	13
