Mass spectrum: 10-Acetyl-trichoderonic-acid; LC-ESI-QTOF; MS2; [M+H]+; CE: 20eV
Name: 10-Acetyl-trichoderonic-acid
Class: Natural Product; Terpenoids
Formula: C17H24O7
Exact mass: 340.15220
SMILES: CC(=O)OC(CO)(C1)C(C(=O)2)C(C=C(C(O)=O)CO2)C(C(C)C)C1
InChI: InChI=1S/C17H24O7/c1-9(2)12-4-5-17(8-18,24-10(3)19)14-13(12)6-11(15(20)21)7-23-16(14)22/h6,9,12-14,18H,4-5,7-8H2,1-3H3,(H,20,21)/t12-,13+,14-,17-/m0/s1
Instrument: maXis, Bruker Daltonics
Instrument type: LC-ESI-QTOF
Ms type: MS2
Ion mode: POSITIVE
Collision energy: 20 eV
Ionization: ESI
Column name: Shimadzu Shim-Pack XR-ODS III; C18; 2.2um; 80A; 2.0x150mm
Precursor type: [M+H]+
m/z	relative intensity
131.085200	27
145.101100	11
157.101000	11
159.080400	62
161.059900	17
171.116700	45
172.120200	10
173.132600	44
175.075200	57
177.090500	10
183.117000	41
187.075300	11
189.127500	51
191.107000	10
199.111700	78
200.115400	14
201.127600	83
202.131100	10
203.070500	828
204.073800	106
205.076600	11
217.122500	464
218.126100	75
221.080900	16
227.106800	115
228.110500	17
235.132900	55
245.117500	999
246.120700	146
247.123400	17
263.128000	565
264.131200	90
265.133700	11
281.138700	35
323.149300	34
341.159900	18
