Mass spectrum: Curcumin; LC-ESI-QTOF; MS2; [M-H]-; CE: 10eV
Name: Curcumin
Class: Natural Product; Phenols
Formula: C21H20O6
Exact mass: 368.12599
SMILES: COc(c1)c(O)ccc(C=CC(O)=CC(=O)C=Cc(c2)cc(OC)c(O)c2)1
InChI: InChI=1S/C21H20O6/c1-26-20-11-14(5-9-18(20)24)3-7-16(22)13-17(23)8-4-15-6-10-19(25)21(12-15)27-2/h3-13,22,24-25H,1-2H3/b7-3+,8-4+,16-13-
Instrument: maXis, Bruker Daltonics
Instrument type: LC-ESI-QTOF
Ms type: MS2
Ion mode: NEGATIVE
Collision energy: 10 eV
Ionization: ESI
Column name: Shimadzu Shim-Pack XR-ODS III; C18; 2.2um; 80A; 2.0x150mm
Precursor type: [M-H]-
m/z	relative intensity
134.037700	14
149.061500	86
173.061700	45
217.051600	413
218.055000	55
219.065600	10
367.118400	999
367.183900	12
368.121700	251
369.129200	45
