Mass spectrum: Isosilybin A; LC-ESI-QTOF; MS2; [M+H]+; CE: 10eV
Name: Isosilybin A
Class: Natural Product; Flavonoids
Formula: C25H22O10
Exact mass: 482.12130
SMILES: COc(c(O)5)cc(cc5)C(O1)C(CO)Oc(c2)c(ccc2C(O3)C(O)C(=O)c(c(O)4)c(cc(O)c4)3)1
InChI: InChI=1S/C25H22O10/c1-32-17-6-11(2-4-14(17)28)24-20(10-26)33-18-7-12(3-5-16(18)34-24)25-23(31)22(30)21-15(29)8-13(27)9-19(21)35-25/h2-9,20,23-29,31H,10H2,1H3/t20-,23+,24-,25-/m1/s1
Instrument: maXis, Bruker Daltonics
Instrument type: LC-ESI-QTOF
Ms type: MS2
Ion mode: POSITIVE
Collision energy: 10 eV
Ionization: ESI
Column name: Shimadzu Shim-Pack XR-ODS III; C18; 2.2um; 80A; 2.0x150mm
Precursor type: [M+H]+
m/z	relative intensity
147.043500	43
153.018100	94
163.075700	67
195.030200	31
289.072300	11
311.056400	42
329.066800	130
330.070300	25
359.077000	14
435.107700	84
436.111100	21
437.121900	16
447.107300	28
453.117800	23
465.118100	88
466.121500	22
483.129200	999
483.212800	14
484.132400	250
485.134700	50
