Mass spectrum: Isosilybin B; LC-ESI-QTOF; MS2; [M+H]+; CE: 50eV
Name: Isosilybin B
Class: Natural Product; Flavonoids
Formula: C25H22O10
Exact mass: 482.12130
SMILES: COc(c(O)5)cc(cc5)C(O1)C(CO)Oc(c2)c(ccc2[C@@H](O3)[C@@H](O)C(=O)c(c(O)4)c(cc(O)c4)3)1
InChI: InChI=1S/C25H22O10/c1-32-17-6-11(2-4-14(17)28)24-20(10-26)33-18-7-12(3-5-16(18)34-24)25-23(31)22(30)21-15(29)8-13(27)9-19(21)35-25/h2-9,20,23-29,31H,10H2,1H3/t20?,23-,24?,25+/m0/s1
Instrument: maXis, Bruker Daltonics
Instrument type: LC-ESI-QTOF
Ms type: MS2
Ion mode: POSITIVE
Collision energy: 50 eV
Ionization: ESI
Column name: Shimadzu Shim-Pack XR-ODS III; C18; 2.2um; 80A; 2.0x150mm
Precursor type: [M+H]+
m/z	relative intensity
115.048200	11
119.044100	47
121.023700	65
121.060000	21
122.030500	17
123.039300	16
124.047400	33
127.035400	11
130.037900	112
131.045400	121
132.050900	19
133.025100	88
133.061500	35
134.031400	15
135.040800	51
137.056900	231
138.060700	21
139.036600	89
145.062700	18
146.034300	57
147.042300	418
148.046600	51
149.021800	447
149.058000	132
150.025500	42
150.065700	131
151.037500	15
151.072700	29
152.080600	12
153.017100	999
154.020400	69
155.048400	22
157.063200	19
159.043300	60
160.048600	11
161.022400	24
161.059000	156
162.066800	514
163.038500	16
163.070700	55
165.054700	14
165.069000	17
167.033500	151
167.085200	24
168.036700	12
173.059800	55
175.038800	20
177.018100	36
177.054800	64
178.060000	12
179.034500	11
180.077600	12
181.013200	12
181.064700	18
183.044300	29
185.059900	20
187.039400	53
193.065700	11
195.029600	228
195.081100	37
196.032800	19
197.060300	19
199.076200	12
201.055500	108
202.059600	17
203.035000	18
205.066000	27
206.073000	12
209.061100	11
210.068000	12
211.039900	18
211.076200	22
212.046200	10
213.055600	113
214.060400	22
221.061100	17
223.076400	54
224.080900	12
225.055500	20
227.034700	10
227.070900	17
229.050800	246
230.055000	41
231.065900	47
233.060800	16
234.067000	11
235.076000	13
237.055500	23
238.062400	11
239.035000	24
239.071400	36
240.076900	11
241.050800	111
242.057700	56
243.062800	10
250.062800	11
251.071400	107
252.077600	45
253.050600	11
253.085000	17
255.066500	91
256.070100	20
257.045500	132
258.051600	29
265.050300	11
266.057700	14
267.065800	28
269.045700	38
270.051600	11
271.097100	11
279.065700	37
281.082100	11
283.061400	24
283.097600	14
285.040500	12
285.076800	37
287.054700	12
295.060400	25
297.040900	11
299.056100	19
311.055600	18
359.090700	16
379.116800	18
