Mass spectrum: Cinchonidine; LC-ESI-QTOF; MS2; [M+H]+; CE: 10eV
Name: Cinchonidine
Class: Natural Product; Quinoline alkaloids
Formula: C19H22N2O
Exact mass: 294.17321
SMILES: C=C[C@@H](C3)C(C4)C[C@]([H])(N(C4)3)[C@H](O)c(c1)c(c2)c(ccc2)nc1
InChI: InChI=1S/C19H22N2O/c1-2-13-12-21-10-8-14(13)11-18(21)19(22)16-7-9-20-17-6-4-3-5-15(16)17/h2-7,9,13-14,18-19,22H,1,8,10-12H2/t13-,14?,18-,19+/m0/s1
Instrument: maXis, Bruker Daltonics
Instrument type: LC-ESI-QTOF
Ms type: MS2
Ion mode: POSITIVE
Collision energy: 10 eV
Ionization: ESI
Column name: Shimadzu Shim-Pack XR-ODS III; C18; 2.2um; 80A; 2.0x150mm
Precursor type: [M+H]+
m/z	relative intensity
295.180700	999
296.183800	168
297.186800	17
