Mass spectrum: Cinchonidine; LC-ESI-QTOF; MS2; [M+H]+; CE: 40eV
Name: Cinchonidine
Class: Natural Product; Quinoline alkaloids
Formula: C19H22N2O
Exact mass: 294.17321
SMILES: C=C[C@@H](C3)C(C4)C[C@]([H])(N(C4)3)[C@H](O)c(c1)c(c2)c(ccc2)nc1
InChI: InChI=1S/C19H22N2O/c1-2-13-12-21-10-8-14(13)11-18(21)19(22)16-7-9-20-17-6-4-3-5-15(16)17/h2-7,9,13-14,18-19,22H,1,8,10-12H2/t13-,14?,18-,19+/m0/s1
Instrument: maXis, Bruker Daltonics
Instrument type: LC-ESI-QTOF
Ms type: MS2
Ion mode: POSITIVE
Collision energy: 40 eV
Ionization: ESI
Column name: Shimadzu Shim-Pack XR-ODS III; C18; 2.2um; 80A; 2.0x150mm
Precursor type: [M+H]+
m/z	relative intensity
81.067300	52
91.053000	23
93.070100	23
94.065300	25
95.077200	38
96.081200	26
105.070600	40
106.065200	22
107.085700	31
108.081200	132
109.087400	21
110.096900	84
115.055000	25
120.081200	44
122.096500	66
124.112500	71
128.049900	145
129.056300	41
130.065400	639
131.068500	51
132.081100	78
134.096800	200
135.103400	42
136.112100	109
142.065500	728
143.072600	338
144.080600	175
145.084400	22
154.065400	392
155.071600	97
156.080900	687
157.085100	86
158.060300	73
159.067800	143
160.073400	20
166.065400	139
167.073000	275
168.080700	778
169.077600	162
170.095700	80
171.091800	34
172.075400	200
173.079300	26
180.080700	319
181.077200	137
182.095400	98
183.091500	90
184.075600	292
185.081300	60
186.090000	35
191.072700	19
192.080200	75
193.087800	67
194.095900	162
195.092700	85
196.111700	187
197.107500	151
198.110400	22
204.080500	79
205.087200	56
206.095700	134
207.096200	47
208.111100	92
209.107500	66
210.125500	30
212.106700	19
214.122500	16
217.088100	25
218.095600	81
219.102400	61
220.111000	80
221.107300	157
222.114600	135
223.122000	138
224.142500	36
230.095700	15
232.111600	47
233.110600	27
234.127000	166
235.122900	231
236.129600	95
237.134800	16
238.158500	25
246.126600	21
247.123000	40
248.142500	92
249.139000	44
250.157500	16
252.137700	61
253.141700	15
266.153700	42
267.184700	18
275.154600	16
277.169700	651
278.172700	129
279.179500	16
295.180400	999
296.183300	194
297.188400	34
