Mass spectrum: Lycorine; LC-ESI-QTOF; MS2; [M+H]+; CE: 50eV
Name: Lycorine
Class: Natural Product; Alkaloids
Formula: C16H17NO4
Exact mass: 287.11576
SMILES: O[C@@H](C=5)[C@@H](O)[C@@]([H])(c21)[C@@]([H])(C45)N(CC4)Cc(cc(O3)c(OC3)c2)1
InChI: InChI=1S/C16H17NO4/c18-11-3-8-1-2-17-6-9-4-12-13(21-7-20-12)5-10(9)14(15(8)17)16(11)19/h3-5,11,14-16,18-19H,1-2,6-7H2/t11-,14-,15+,16+/m0/s1
Instrument: maXis, Bruker Daltonics
Instrument type: LC-ESI-QTOF
Ms type: MS2
Ion mode: POSITIVE
Collision energy: 50 eV
Ionization: ESI
Column name: Shimadzu Shim-Pack XR-ODS III; C18; 2.2um; 80A; 2.0x150mm
Precursor type: [M+H]+
m/z	relative intensity
91.054100	23
111.067200	20
119.048600	866
120.052000	88
124.075100	26
134.059500	28
135.043700	44
141.069400	13
147.043800	999
148.047200	115
149.059200	79
152.061600	14
159.043600	18
165.069600	17
167.085000	17
168.081100	17
169.088100	18
177.054400	15
193.088300	20
194.096300	48
196.076000	14
197.083300	18
212.107000	18
222.091400	21
225.078000	15
226.086100	24
250.086400	14
