Mass spectrum: Hydroheptilidic-acid; LC-ESI-QTOF; MS2; [M+H]+; CE: 10eV
Name: Hydroheptilidic-acid
Class: Natural Product; Carbonic acid derivatives
Formula: C15H22O6
Exact mass: 298.14164
SMILES: OCC(C(O)=O)=CC(C(C(C)C)1)C(C(=O)2)C(O)(CO2)CC1
InChI: InChI=1S/C15H22O6/c1-8(2)10-3-4-15(20)7-21-14(19)12(15)11(10)5-9(6-16)13(17)18/h5,8,10-12,16,20H,3-4,6-7H2,1-2H3,(H,17,18)/b9-5+
Instrument: maXis, Bruker Daltonics
Instrument type: LC-ESI-QTOF
Ms type: MS2
Ion mode: POSITIVE
Collision energy: 10 eV
Ionization: ESI
Column name: Shimadzu Shim-Pack XR-ODS III; C18; 2.2um; 80A; 2.0x150mm
Precursor type: [M+H]+
m/z	relative intensity
203.070000	18
217.122100	31
221.080700	433
222.084000	58
235.132700	81
236.136800	12
245.117200	225
246.120900	33
263.127800	358
264.131200	55
281.138400	999
282.141800	161
283.144300	25
299.148900	908
300.152000	156
301.154300	24
