Mass spectrum: Curcumin; LC-ESI-QTOF; MS2; [M+H]+; CE: 20eV
Name: Curcumin
Class: Natural Product; Phenols
Formula: C21H20O6
Exact mass: 368.12599
SMILES: COc(c1)c(O)ccc(C=CC(O)=CC(=O)C=Cc(c2)cc(OC)c(O)c2)1
InChI: InChI=1S/C21H20O6/c1-26-20-11-14(5-9-18(20)24)3-7-16(22)13-17(23)8-4-15-6-10-19(25)21(12-15)27-2/h3-13,22,24-25H,1-2H3/b7-3+,8-4+,16-13-
Instrument: maXis, Bruker Daltonics
Instrument type: LC-ESI-QTOF
Ms type: MS2
Ion mode: POSITIVE
Collision energy: 20 eV
Ionization: ESI
Column name: Shimadzu Shim-Pack XR-ODS III; C18; 2.2um; 80A; 2.0x150mm
Precursor type: [M+H]+
m/z	relative intensity
137.057300	18
145.026900	80
151.038000	34
151.074400	64
161.059500	80
175.076000	77
177.055500	999
177.086900	14
177.105700	10
178.058700	98
203.071800	18
213.056500	11
219.067100	55
245.082900	75
246.086200	12
253.087900	49
254.091800	10
259.098500	23
285.114300	426
286.117400	78
287.119800	10
299.129500	20
369.134000	110
370.137000	24
