Mass spectrum: Erucamide; LC-ESI-QTOF; MS2; [M+H]+; CE: 50eV
Name: Erucamide
Class: Natural Product; Acyle amide
Formula: C22H43NO
Exact mass: 337.334465
SMILES: NC(=O)CCCCCCCCCCC/C=C\CCCCCCCC
InChI: InChI=1S/C22H43NO/c1-2-3-4-5-6-7-8-9-10-11-12-13-14-15-16-17-18-19-20-21-22(23)24/h9-10H,2-8,11-21H2,1H3,(H2,23,24)/b10-9-
Instrument: maXis, Bruker Daltonics
Instrument type: LC-ESI-QTOF
Ms type: MS2
Ion mode: POSITIVE
Collision energy: 50 eV
Ionization: ESI
Column name: Shimadzu Shim-Pack XR-ODS III; C18; 2.2um; 80A; 2.0x150mm
Precursor type: [M+H]+
m/z	relative intensity
107.085700	785
111.080600	760
114.091500	757
121.101100	999
