Mass spectrum: Erucamide; LC-ESI-QTOF; MS2; [M+H]+; CE: 20eV
Name: Erucamide
Class: Natural Product; Acyle amide
Formula: C22H43NO
Exact mass: 337.334465
SMILES: NC(=O)CCCCCCCCCCC/C=C\CCCCCCCC
InChI: InChI=1S/C22H43NO/c1-2-3-4-5-6-7-8-9-10-11-12-13-14-15-16-17-18-19-20-21-22(23)24/h9-10H,2-8,11-21H2,1H3,(H2,23,24)/b10-9-
Instrument: maXis, Bruker Daltonics
Instrument type: LC-ESI-QTOF
Ms type: MS2
Ion mode: POSITIVE
Collision energy: 20 eV
Ionization: ESI
Column name: Shimadzu Shim-Pack XR-ODS III; C18; 2.2um; 80A; 2.0x150mm
Precursor type: [M+H]+
m/z	relative intensity
95.086100	13
97.102000	29
100.076100	13
109.101200	49
111.116800	83
114.091400	101
121.101200	57
123.116800	64
125.132500	68
128.107000	112
135.116800	112
136.120300	13
137.132400	43
139.111700	69
142.122700	120
149.132500	121
150.136000	15
151.148100	30
153.127400	58
156.138400	109
163.148300	83
165.164100	18
167.143200	46
170.154200	88
177.164100	50
179.179600	14
181.159000	34
184.169900	78
191.179800	38
195.174600	26
198.185600	70
205.195300	36
207.211100	16
209.190200	26
212.201100	65
219.211200	27
221.226800	15
223.205900	23
226.216900	68
227.220100	11
233.226700	28
237.221700	23
240.232600	58
247.242400	26
251.237300	19
254.248100	49
261.258000	12
265.253000	18
268.264100	50
279.268300	10
282.279500	42
296.294900	24
303.305000	235
304.308600	54
321.315700	323
322.319300	76
323.322200	10
338.342300	999
339.345700	233
340.348700	26
