Mass spectrum: Silybin B; LC-ESI-QTOF; MS2; [M+H]+; CE: 40eV
Name: Silybin B
Class: Natural Product; Flavonoids
Formula: C25H22O10
Exact mass: 482.12130
SMILES: COc(c(O)5)cc(cc5)C(O1)C(CO)Oc(c4)c(cc(c4)C(O2)C(O)C(=O)c(c(O)3)c(cc(O)c3)2)1
InChI: InChI=1S/C25H22O10/c1-32-17-6-11(2-4-14(17)28)24-20(10-26)33-16-5-3-12(7-18(16)34-24)25-23(31)22(30)21-15(29)8-13(27)9-19(21)35-25/h2-9,20,23-29,31H,10H2,1H3
Instrument: maXis, Bruker Daltonics
Instrument type: LC-ESI-QTOF
Ms type: MS2
Ion mode: POSITIVE
Collision energy: 40 eV
Ionization: ESI
Column name: Shimadzu Shim-Pack XR-ODS III; C18; 2.2um; 80A; 2.0x150mm
Precursor type: [M+H]+
m/z	relative intensity
119.045400	34
121.025100	37
121.061000	14
123.040500	22
124.048400	32
127.035600	10
130.038900	46
131.046600	247
132.050500	24
133.026100	102
133.062100	21
134.030600	11
135.041900	54
137.057700	215
138.061700	20
139.037200	63
146.035100	14
147.042900	204
148.047600	22
149.022300	455
149.058700	149
150.026000	37
150.066100	116
151.037900	18
151.073400	35
152.081400	20
153.017600	999
154.020600	80
159.043600	69
160.049300	11
161.023200	19
161.059300	121
162.067200	408
163.039200	15
163.073100	66
165.054500	37
167.033700	256
168.037000	21
171.030200	11
173.059700	19
175.039800	15
177.018400	23
177.054900	121
178.060700	22
179.034600	15
179.069800	22
180.078500	37
181.013100	11
183.080900	17
185.059300	13
187.039500	36
195.029500	370
195.081200	24
196.033000	33
197.060500	14
201.055500	86
202.058800	13
203.034900	23
205.065900	11
209.060800	11
211.076000	27
213.055700	130
214.059400	18
215.034600	17
215.070800	11
221.060400	13
223.076200	36
224.080400	10
225.055700	19
225.092200	12
227.035300	17
227.071300	17
229.050600	219
230.054800	36
231.065800	46
233.060900	12
235.076400	12
237.055600	19
238.062500	16
239.035400	15
239.071200	72
240.076400	18
241.050600	153
241.085400	11
242.057000	72
243.062900	16
243.102100	15
250.063500	11
251.071200	137
252.076400	36
253.051500	11
253.086400	28
255.066100	56
255.103200	15
256.070400	12
257.045600	234
258.049600	40
258.088900	12
259.059700	26
263.070700	12
267.066000	28
268.072300	13
269.045500	35
269.081600	17
270.051400	13
270.088900	21
271.061500	15
271.097300	84
272.100700	14
279.065700	45
281.081800	21
283.061300	63
283.097600	146
284.064800	12
284.100700	24
285.040300	45
285.076700	34
286.046500	11
287.055500	19
295.060700	64
295.097800	15
296.064200	15
297.041100	13
299.055900	15
307.060600	12
311.055800	43
313.073100	13
315.050100	14
323.055400	20
331.096100	14
335.091700	10
341.070000	16
345.075300	11
351.087900	18
359.091100	39
360.094800	13
363.086600	18
369.075500	13
379.117300	177
380.120500	44
387.085600	60
388.089800	14
391.117500	99
392.120900	27
407.111900	44
408.115700	13
409.126600	20
415.081500	16
418.102300	16
419.111600	45
420.113500	12
433.090900	120
434.094000	26
435.103900	31
436.112000	15
437.122300	40
447.107100	12
