Mass spectrum: Vitexin; LC-ESI-QTOF; MS2; [M-H]-; CE: 50eV
Name: Vitexin
Class: Natural Product; Flavonoids
Formula: C21H20O10
Exact mass: 432.10565
SMILES: OC[C@H]([C@@H](O)4)O[C@H]([C@H](O)[C@@H](O)4)c(c(O)3)c(O1)c(c(O)c3)C(=O)C=C(c(c2)ccc(O)c2)1
InChI: InChI=1S/C21H20O10/c22-7-14-17(27)18(28)19(29)21(31-14)16-11(25)5-10(24)15-12(26)6-13(30-20(15)16)8-1-3-9(23)4-2-8/h1-6,14,17-19,21-25,27-29H,7H2/t14-,17-,18+,19-,21+/m1/s1
Instrument: maXis, Bruker Daltonics
Instrument type: LC-ESI-QTOF
Ms type: MS2
Ion mode: NEGATIVE
Collision energy: 50 eV
Ionization: ESI
Column name: Shimadzu Shim-Pack XR-ODS III; C18; 2.2um; 80A; 2.0x150mm
Precursor type: [M-H]-
m/z	relative intensity
117.034100	58
121.029100	18
135.045100	33
149.024600	32
159.045600	43
161.024900	68
163.004300	13
163.040500	68
165.019700	15
191.035600	28
193.014800	14
196.053400	10
197.061200	22
203.035500	19
211.077000	18
215.071700	23
224.048300	12
225.055500	10
237.056000	10
239.071700	45
253.051000	13
268.037800	58
269.044800	44
281.045500	56
282.052700	58
283.061300	999
283.118700	12
284.064600	173
285.066900	20
293.045400	63
294.049000	13
295.060900	29
309.040100	15
311.055900	202
312.059100	40
323.055600	42
