Mass spectrum: Bergapten; LC-ESI-QTOF; MS2; [M+H]+; CE: 20eV
Name: Bergapten
Class: Natural Product; Phenylpropanoids
Formula: C12H8O4
Exact mass: 216.04226
SMILES: COc(c21)c(C=3)c(OC(=O)C3)cc(occ2)1
InChI: InChI=1S/C12H8O4/c1-14-12-7-2-3-11(13)16-10(7)6-9-8(12)4-5-15-9/h2-6H,1H3
Instrument: maXis, Bruker Daltonics
Instrument type: LC-ESI-QTOF
Ms type: MS2
Ion mode: POSITIVE
Collision energy: 20 eV
Ionization: ESI
Column name: Shimadzu Shim-Pack XR-ODS III; C18; 2.2um; 80A; 2.0x150mm
Precursor type: [M+H]+
m/z	relative intensity
146.035700	11
161.059400	24
173.059600	43
174.031000	71
202.026300	952
202.058000	13
202.080400	12
203.029500	98
204.031200	10
217.049900	999
217.082900	16
217.106000	14
218.053000	129
219.055000	16
