Mass spectrum: Hexahydrocurcumin; LC-ESI-QTOF; MS2; [M+H]+; CE: 10eV
Name: Hexahydrocurcumin
Class: Natural Product; Phenols
Formula: C21H26O6
Exact mass: 374.17294
SMILES: COc(c1)c(O)ccc(CCC(O)CC(=O)CCc(c2)cc(OC)c(O)c2)1
InChI: InChI=1S/C21H26O6/c1-26-20-11-14(5-9-18(20)24)3-7-16(22)13-17(23)8-4-15-6-10-19(25)21(12-15)27-2/h5-6,9-12,16,22,24-25H,3-4,7-8,13H2,1-2H3
Instrument: maXis, Bruker Daltonics
Instrument type: LC-ESI-QTOF
Ms type: MS2
Ion mode: POSITIVE
Collision energy: 10 eV
Ionization: ESI
Column name: Shimadzu Shim-Pack XR-ODS III; C18; 2.2um; 80A; 2.0x150mm
Precursor type: [M+H]+
m/z	relative intensity
131.046900	11
137.058100	529
138.061400	46
145.063700	16
151.074700	16
163.075300	357
164.078600	37
177.091600	999
177.108600	27
177.121500	20
177.142300	17
178.094900	111
179.070700	138
180.074100	15
181.086500	81
189.091600	13
195.102400	29
207.102800	158
208.106100	20
215.107600	11
221.118500	112
222.121600	15
233.118700	19
339.160100	167
340.163000	36
356.162600	11
357.170600	689
357.242300	10
358.173800	144
359.176100	23
374.172700	34
375.178900	21
