Mass spectrum: Hypnophilin; LC-ESI-QTOF; MS2; [M+H]+; CE: 30eV
Name: Hypnophilin
Class: Natural Product; Terpenoids
Formula: C15H20O3
Exact mass: 248.141244
SMILES: C=C2C(=O)[C@H]4O[C@]43C[C@H]1CC(C)(C)[C@H](O)[C@H]1[C@]23C
InChI: InChI=1S/C15H20O3/c1-7-10(16)12-15(18-12)6-8-5-13(2,3)11(17)9(8)14(7,15)4/h8-9,11-12,17H,1,5-6H2,2-4H3/t8-,9+,11-,12-,14+,15-/m1/s1
Instrument: maXis, Bruker Daltonics
Instrument type: LC-ESI-QTOF
Ms type: MS2
Ion mode: POSITIVE
Collision energy: 30 eV
Ionization: ESI
Column name: Shimadzu Shim-Pack XR-ODS III; C18; 2.2um; 80A; 2.0x150mm
Precursor type: [M+H]+
m/z	relative intensity
91.054600	205
93.070100	249
95.086500	174
105.069900	278
107.086100	268
109.101500	193
111.044100	208
115.054400	108
116.062500	259
117.068600	262
119.085600	999
121.100500	364
123.044300	105
125.059400	100
129.070000	371
131.085500	990
132.089300	167
133.101400	310
135.080000	201
137.059500	441
143.084600	238
145.101200	209
147.080500	689
148.084700	128
149.095900	340
151.075300	96
156.094000	117
157.100600	194
159.080200	544
161.096100	192
163.075200	668
165.091600	177
170.109400	265
175.074400	178
175.148500	102
177.090600	455
185.131500	204
191.106200	127
231.136600	118
249.148600	269
