Mass spectrum: Physcion; LC-ESI-QTOF; MS2; [M+H]+; CE: 20eV
Name: Physcion
Class: Natural Product; Polyketides
Formula: C16H12O5
Exact mass: 284.06847
SMILES: COc(c3)cc(c(=O)1)c(c(O)3)c(=O)c(c(O)2)c(cc(C)c2)1
InChI: InChI=1S/C16H12O5/c1-7-3-9-13(11(17)4-7)16(20)14-10(15(9)19)5-8(21-2)6-12(14)18/h3-6,17-18H,1-2H3
Instrument: maXis (Bruker Daltonics)
Instrument type: LC-ESI-QTOF
Ms type: MS2
Ion mode: POSITIVE
Collision energy: 20 eV
Fragmentation mode: CID
Ionization: ESI
Column name: Shimadzu Shim-Pack XR-ODS III; C18; 2.2um; 80A; 2.0x150mm
Precursor type: [M+H]+
m/z	relative intensity
285.076800	999
286.079900	166
287.083200	34
