Mass spectrum: Demethoxycurcumin; LC-ESI-QTOF; MS2; [M+H]+; CE: 20eV
Name: Demethoxycurcumin
Class: Natural Product; Phenols
Formula: C20H18O5
Exact mass: 338.11543
SMILES: COc(c1)c(O)ccc(C=CC(=O)CC(=O)C=Cc(c2)ccc(O)c2)1
InChI: InChI=1S/C20H18O5/c1-25-20-12-15(6-11-19(20)24)5-10-18(23)13-17(22)9-4-14-2-7-16(21)8-3-14/h2-12,21,24H,13H2,1H3/b9-4+,10-5+
Instrument: maXis (Bruker Daltonics)
Instrument type: LC-ESI-QTOF
Ms type: MS2
Ion mode: POSITIVE
Collision energy: 20 eV
Ionization: ESI
Column name: Shimadzu Shim-Pack XR-ODS III; C18; 2.2um; 80A; 2.0x150mm
Precursor type: [M+H]+
m/z	relative intensity
119.046800	15
121.062600	18
131.047700	46
137.058400	17
145.027800	98
145.064300	18
146.031300	10
147.043600	619
148.046900	60
149.059000	17
151.038500	43
151.074900	76
161.059600	41
175.075800	50
177.055100	912
178.058500	101
179.062500	11
189.055200	45
195.081300	18
203.071400	16
215.071400	15
219.066100	53
223.076400	141
224.079800	23
229.086800	33
245.081900	53
255.102900	999
256.106100	170
257.108500	17
269.118100	33
289.087000	11
339.123500	220
340.126800	48
