Mass spectrum: Demethoxycurcumin; LC-ESI-QTOF; MS2; [M-H]-; CE: 20eV
Name: Demethoxycurcumin
Class: Natural Product; Phenols
Formula: C20H18O5
Exact mass: 338.11548
SMILES: COc(c1)c(O)ccc(C=CC(=O)CC(=O)C=Cc(c2)ccc(O)c2)1
InChI: InChI=1S/C20H18O5/c1-25-20-12-15(6-11-19(20)24)5-10-18(23)13-17(22)9-4-14-2-7-16(21)8-3-14/h2-12,21,24H,13H2,1H3/b9-4+,10-5+
Instrument: maXis (Bruker Daltonics)
Instrument type: LC-ESI-QTOF
Ms type: MS2
Ion mode: NEGATIVE
Collision energy: 20 eV
Ionization: ESI
Column name: Shimadzu Shim-Pack XR-ODS III; C18; 2.2um; 80A; 2.0x150mm
Precursor type: [M-H]-
m/z	relative intensity
117.034500	14
119.050200	999
120.053500	92
134.037500	181
135.042500	19
143.050600	427
144.054000	56
145.029900	250
146.033300	25
149.061200	490
150.064500	50
158.037800	183
159.041600	20
160.017000	30
161.024200	14
161.061200	21
163.040500	31
173.061300	910
174.064700	115
175.040600	204
176.044200	24
187.040600	290
188.044000	38
191.071900	21
193.051000	27
201.019900	22
202.027600	101
203.031200	12
217.051100	992
218.054400	148
219.057300	14
322.084000	14
337.107600	335
338.111000	90
339.115400	10
