Mass spectrum: Bacoside A3; LC-ESI-QTOF; MS2; [M+H]+; CE: 20eV
Name: Bacoside A3
Class: Natural Product; Terpenoids
Formula: C47H76O18
Exact mass: 928.50318
SMILES: CC(C)=CC(C9)OC(O2)(C1)C(C9(C)O)(C(C8)([H])C(C(C7)(C)C(C8)([H])C(C6)(C([H])(C7)C(C(C6)OC(C(OC(C(O)5)OC(C(O)5)CO)3)OC(CO)C(C3OC(C(O)4)OC(C(C(O)4)O)CO)O)(C)C)C)1C2)[H]
InChI: InChI=1S/C47H76O18/c1-21(2)14-22-15-45(7,57)38-23-8-9-28-43(5)12-11-29(42(3,4)27(43)10-13-44(28,6)46(23)19-47(38,65-22)58-20-46)62-41-37(64-39-34(55)31(52)25(17-49)60-39)36(32(53)26(18-50)61-41)63-40-35(56)33(54)30(51)24(16-48)59-40/h14,22-41,48-57H,8-13,15-20H2,1-7H3/t22-,23+,24+,25-,26+,27-,28+,29-,30+,31-,32+,33-,34+,35+,36-,37+,38-,39-,40-,41-,43-,44+,45-,46-,47-/m0/s1
Instrument: maXis (Bruker Daltonics)
Instrument type: LC-ESI-QTOF
Ms type: MS2
Ion mode: POSITIVE
Collision energy: 20 eV
Ionization: ESI
Column name: Shimadzu Shim-Pack XR-ODS III; C18; 2.2um; 80A; 2.0x150mm
Precursor type: [M+H]+
m/z	relative intensity
123.112600	13
145.047800	14
163.059900	25
259.083300	20
295.104200	134
296.107500	14
325.114200	136
326.117600	18
373.273900	15
391.284700	43
392.287600	11
437.341200	156
438.344500	50
455.351700	999
455.433000	16
456.355000	297
457.154300	51
457.358000	50
473.361800	69
474.365100	22
553.336200	17
587.394200	34
588.397000	12
617.405400	213
618.408500	80
619.411300	18
635.415500	12
749.452200	18
779.465200	84
780.468700	39
781.471500	12
797.476300	17
911.518800	80
912.521400	37
913.523600	11
929.530300	35
930.533700	16
