Mass spectrum: Bacopaside II; LC-ESI-QTOF; MS2; [M+H]+; CE: 20eV
Name: Bacopaside II
Class: Natural Product; Terpenoids
Formula: C47H76O18
Exact mass: 928.50318
SMILES: O(C879)CC(C([H])(C([H])8C(C(CO9)([H])C=C(C)C)(C)O)6)(C7)C(C5)(C([H])(CC6)C(C)(C(C5)4[H])CCC(C4(C)C)OC(O3)C(C(C(O)C3CO)OC(C(O)2)OC(C(C(O)2)O)CO)OC(C(O)1)OC(C(O)1)CO)C
InChI: InChI=1S/C47H76O18/c1-21(2)14-22-18-58-47-19-46(20-59-47)23(38(47)45(22,7)57)8-9-28-43(5)12-11-29(42(3,4)27(43)10-13-44(28,46)6)63-41-37(65-39-34(55)31(52)25(16-49)61-39)36(32(53)26(17-50)62-41)64-40-35(56)33(54)30(51)24(15-48)60-40/h14,22-41,48-57H,8-13,15-20H2,1-7H3/t22-,23-,24-,25+,26-,27+,28-,29+,30-,31+,32-,33+,34-,35-,36+,37-,38+,39+,40+,41+,43+,44-,45+,46+,47-/m1/s1
Instrument: maXis (Bruker Daltonics)
Instrument type: LC-ESI-QTOF
Ms type: MS2
Ion mode: POSITIVE
Collision energy: 20 eV
Ionization: ESI
Column name: Shimadzu Shim-Pack XR-ODS III; C18; 2.2um; 80A; 2.0x150mm
Precursor type: [M+H]+
m/z	relative intensity
295.102100	45
325.112800	46
437.341300	33
438.344400	12
455.352200	226
456.355400	69
457.155100	22
457.358400	13
473.362900	999
473.445700	16
474.366200	285
475.369000	52
617.405400	34
618.408100	14
635.416300	147
636.419400	59
637.422700	14
767.459300	34
768.462700	16
779.460300	14
797.470800	138
798.473600	62
799.476800	19
911.504000	19
929.514700	66
930.518400	32
931.520300	10
