Mass spectrum: Bergapten; LC-ESI-QTOF; MS2; [M+H]+; CE: 40eV
Name: Bergapten
Class: Natural Product; Phenylpropanoids
Formula: C12H8O4
Exact mass: 216.04226
SMILES: COc(c21)c(C=3)c(OC(=O)C3)cc(occ2)1
InChI: InChI=1S/C12H8O4/c1-14-12-7-2-3-11(13)16-10(7)6-9-8(12)4-5-15-9/h2-6H,1H3
Instrument: maXis (Bruker Daltonics)
Instrument type: LC-ESI-QTOF
Ms type: MS2
Ion mode: POSITIVE
Collision energy: 40 eV
Fragmentation mode: CID
Ionization: ESI
Column name: Shimadzu Shim-Pack XR-ODS III; C18; 2.2um; 80A; 2.0x150mm
Precursor type: [M+H]+
m/z	relative intensity
115.053100	21
118.040400	192
119.043800	20
128.025000	17
129.032400	15
130.040400	10
131.048600	52
145.028300	104
146.036100	338
147.039500	37
156.020800	81
173.023500	42
174.031500	999
175.034700	115
176.036600	11
202.026500	598
203.029800	79
