Mass spectrum: Hexahydrocurcumin; LC-ESI-QTOF; MS2; [M-H]-; CE: 40eV
Name: Hexahydrocurcumin
Class: Natural Product; Phenols
Formula: C21H26O6
Exact mass: 374.17294
SMILES: COc(c1)c(O)ccc(CCC(O)CC(=O)CCc(c2)cc(OC)c(O)c2)1
InChI: InChI=1S/C21H26O6/c1-26-20-11-14(5-9-18(20)24)3-7-16(22)13-17(23)8-4-15-6-10-19(25)21(12-15)27-2/h5-6,9-12,16,22,24-25H,3-4,7-8,13H2,1-2H3
Instrument: maXis (Bruker Daltonics)
Instrument type: LC-ESI-QTOF
Ms type: MS2
Ion mode: NEGATIVE
Collision energy: 40 eV
Fragmentation mode: CID
Ionization: ESI
Column name: Shimadzu Shim-Pack XR-ODS III; C18; 2.2um; 80A; 2.0x150mm
Precursor type: [M-H]-
m/z	relative intensity
121.029200	189
122.034200	18
123.044600	13
134.037100	20
135.045000	109
136.050100	11
137.060800	23
149.060800	35
162.032400	16
163.040000	80
164.048000	469
165.053900	73
176.048000	12
177.055800	112
178.063400	100
179.071500	999
180.074800	125
193.087000	28
