Mass spectrum: Keracyanine; LC-ESI-QTOF; MS2; [M-H]-; CE: 50eV
Name: Keracyanine
Class: Natural Product; Flavonoids
Formula: [C27H31O15]+
Exact mass: 595.16630
SMILES: c(c(c([o+1]2)c(O[C@H](O4)[C@@H]([C@H]([C@@H]([C@H]4CO[C@@H]([C@@H]5O)O[C@H]([C@@H]([C@H]5O)O)C)O)O)O)cc(c(O)3)c(cc(O)c3)2)1)c(O)c(O)cc1
InChI: InChI=1S/C27H30O15/c1-9-19(32)21(34)23(36)26(39-9)38-8-18-20(33)22(35)24(37)27(42-18)41-17-7-12-14(30)5-11(28)6-16(12)40-25(17)10-2-3-13(29)15(31)4-10/h2-7,9,18-24,26-27,32-37H,8H2,1H3,(H3-,28,29,30,31)/p+1/t9-,18+,19-,20+,21+,22-,23+,24+,26+,27+/m0/s1
Instrument: maXis (Bruker Daltonics)
Instrument type: LC-ESI-QTOF
Ms type: MS2
Ion mode: NEGATIVE
Collision energy: 50 eV
Ionization: ESI
Column name: Shimadzu Shim-Pack XR-ODS III; C18; 2.2um; 80A; 2.0x150mm
Precursor type: [M-H]-
m/z	relative intensity
125.024600	19
147.009200	42
149.024700	10
175.040600	11
177.020200	11
211.041100	12
212.048900	14
217.051400	15
227.035800	13
239.035900	20
240.043400	26
241.050700	18
255.030600	40
256.038000	52
257.045600	43
283.025200	77
284.033200	999
285.039900	501
286.043500	74
287.046100	11
299.056200	31
