Mass spectrum: (-)-Curcumol; LC-ESI-QTOF; MS2; [M+H]+; CE: 50eV
Name: (-)-Curcumol
Class: Natural Product; Terpenoids
Formula: C15H24O2
Exact mass: 236.17767
SMILES: CC(C)C(C1)C(O)(C2)OC(C(C)3)1C([H])(CC3)C(=C)2
InChI: InChI=1S/C15H24O2/c1-9(2)13-8-14-11(4)5-6-12(14)10(3)7-15(13,16)17-14/h9,11-13,16H,3,5-8H2,1-2,4H3/t11-,12-,13-,14-,15+/m0/s1
Instrument: maXis (Bruker Daltonics)
Instrument type: LC-ESI-QTOF
Ms type: MS2
Ion mode: POSITIVE
Collision energy: 50 eV
Fragmentation mode: CID
Ionization: ESI
Column name: Shimadzu Shim-Pack XR-ODS III; C18; 2.2um; 80A; 2.0x150mm
Precursor type: [M+H]+
m/z	relative intensity
128.058900	811
129.066100	993
135.113500	999
