Mass spectrum: Demethoxycurcumin; LC-ESI-QTOF; MS2; [M+H]+; CE: 30eV
Name: Demethoxycurcumin
Class: Natural Product; Phenols
Formula: C20H18O5
Exact mass: 338.11544
SMILES: COc(c1)c(O)ccc(C=CC(=O)CC(=O)C=Cc(c2)ccc(O)c2)1
InChI: InChI=1S/C20H18O5/c1-25-20-12-15(6-11-19(20)24)5-10-18(23)13-17(22)9-4-14-2-7-16(21)8-3-14/h2-12,21,24H,13H2,1H3/b9-4+,10-5+
Instrument: maXis (Bruker Daltonics)
Instrument type: LC-ESI-QTOF
Ms type: MS2
Ion mode: POSITIVE
Collision energy: 30 eV
Ionization: ESI
Column name: Shimadzu Shim-Pack XR-ODS III; C18; 2.2um; 80A; 2.0x150mm
Precursor type: [M+H]+
m/z	relative intensity
117.028400	29
119.044400	74
121.060300	16
131.046000	105
132.049400	11
136.049100	31
137.057000	33
145.026600	481
145.063000	12
146.030300	52
147.042400	999
148.045900	97
149.058100	53
151.037700	18
151.074100	44
161.059000	58
175.075200	13
177.054800	884
178.058200	96
179.060900	11
189.055100	45
195.081100	91
196.084800	14
219.066300	28
223.076500	314
224.080500	62
229.086900	13
240.079300	12
255.102800	239
256.105900	40
