Mass spectrum: Scopoletin; LC-ESI-QTOF; MS2; [M-H]-; CE: 40eV
Name: Scopoletin
Class: Natural Product; Phenylpropanoids
Formula: C10H8O4
Exact mass: 192.04226
SMILES: COc(c1)c(O)cc(O2)c(C=CC(=O)2)1
InChI: InChI=1S/C10H8O4/c1-13-9-4-6-2-3-10(12)14-8(6)5-7(9)11/h2-5,11H,1H3
Instrument: maXis (Bruker Daltonics)
Instrument type: LC-ESI-QTOF
Ms type: MS2
Ion mode: NEGATIVE
Collision energy: 40 eV
Ionization: ESI
Column name: Shimadzu Shim-Pack XR-ODS III; C18; 2.2um; 80A; 2.0x150mm
Precursor type: [M-H]-
m/z	relative intensity
120.020900	540
148.016900	999
149.020000	123
176.012400	431
