Mass spectrum: Isosilybin A; LC-ESI-QTOF; MS2; [M+H]+; CE: 30eV
Name: Isosilybin A
Class: Natural Product; Flavonoids
Formula: C25H22O10
Exact mass: 482.12132
SMILES: COc(c(O)5)cc(cc5)C(O1)C(CO)Oc(c2)c(ccc2C(O3)C(O)C(=O)c(c(O)4)c(cc(O)c4)3)1
InChI: InChI=1S/C25H22O10/c1-32-17-6-11(2-4-14(17)28)24-20(10-26)33-18-7-12(3-5-16(18)34-24)25-23(31)22(30)21-15(29)8-13(27)9-19(21)35-25/h2-9,20,23-29,31H,10H2,1H3/t20-,23+,24-,25-/m1/s1
Instrument: maXis (Bruker Daltonics)
Instrument type: LC-ESI-QTOF
Ms type: MS2
Ion mode: POSITIVE
Collision energy: 30 eV
Fragmentation mode: CID
Ionization: ESI
Column name: Shimadzu Shim-Pack XR-ODS III; C18; 2.2um; 80A; 2.0x150mm
Precursor type: [M+H]+
m/z	relative intensity
119.044700	20
121.024500	15
123.040000	18
124.047800	18
127.035600	12
130.038000	19
131.046100	158
132.050300	18
133.025700	42
133.061900	21
135.041500	41
137.057400	255
138.060800	22
139.037000	31
147.042700	289
148.046200	32
149.021900	233
149.058200	56
150.025600	23
150.066000	52
151.037300	14
151.073700	49
152.081500	24
153.017400	999
154.020700	76
155.022700	12
159.043600	15
161.023400	11
161.059200	217
162.067100	472
163.073800	136
164.077400	15
165.054500	51
167.033900	195
168.037300	18
175.039300	21
177.018400	68
177.054900	125
178.061300	30
179.034100	14
179.070800	52
180.078400	92
181.013500	11
181.083000	14
187.039800	48
195.029800	496
196.033200	44
201.055800	47
203.034900	38
213.055800	36
215.035400	17
223.076400	13
227.035100	10
229.050800	129
230.054400	23
231.066600	28
233.046800	14
237.056800	11
239.071800	48
240.076400	12
241.051100	78
241.086800	13
242.057700	36
251.071700	78
252.078400	47
253.086100	32
255.066600	37
255.103700	17
257.046000	315
258.050000	55
259.061400	48
259.098500	12
265.051800	18
265.088300	12
267.066700	21
269.045500	36
269.081700	15
270.090100	35
271.062700	13
271.097500	86
272.101100	15
279.066600	63
280.070100	11
281.081600	23
283.061400	205
283.097800	163
284.064800	36
284.101200	28
285.040500	71
285.076600	91
286.045800	13
286.080300	15
287.056000	37
289.071600	13
293.082300	15
295.061500	90
295.097200	10
296.065100	18
299.056100	18
301.072000	15
301.108300	12
307.061800	14
309.077200	11
311.055900	163
311.091200	17
312.059200	30
313.071500	71
314.074000	14
315.050500	28
323.055400	35
327.087100	31
329.065800	43
339.086800	10
341.066400	32
359.089700	14
363.086400	23
377.101700	20
379.117400	28
387.086100	81
388.089600	21
389.099700	11
391.117600	117
392.120900	30
401.102600	11
405.097200	12
407.112100	80
408.114600	22
409.126100	20
415.080600	27
418.103400	22
419.112000	296
420.115100	75
421.117000	14
433.091000	58
434.093600	15
435.106200	86
436.111400	36
437.122000	87
438.125800	20
447.106800	52
448.109900	13
465.116700	28
