Mass spectrum: Bacopaside X; LC-ESI-QTOF; MS2; [M+H]+; CE: 20eV
Name: Bacopaside X
Class: Natural Product; Terpenoids
Formula: C46H74O17
Exact mass: 898.49261
SMILES: [H]C(C(C)(C)6)(C5)C(CCC6OC(O7)C(OC(C9O)OC(C(O)9)CO)C(OC(O8)C(C(O)C(C8CO)O)O)C(C7)O)(C(C(C)1C5)(CCC(C([H])42)([H])C(C3)1CC2(OC([H])(CC4(C)O)C=C(C)C)O3)[H])C
InChI: InChI=1S/C46H74O17/c1-21(2)14-22-15-44(7,55)37-23-8-9-28-42(5)12-11-29(41(3,4)27(42)10-13-43(28,6)45(23)19-46(37,63-22)57-20-45)60-40-36(62-38-33(53)31(51)26(17-48)59-38)35(24(49)18-56-40)61-39-34(54)32(52)30(50)25(16-47)58-39/h14,22-40,47-55H,8-13,15-20H2,1-7H3/t22-,23+,24-,25+,26-,27-,28+,29-,30+,31-,32-,33+,34+,35-,36+,37-,38-,39-,40-,42-,43+,44-,45-,46-/m0/s1
Instrument: maXis (Bruker Daltonics)
Instrument type: LC-ESI-QTOF
Ms type: MS2
Ion mode: POSITIVE
Collision energy: 20 eV
Ionization: ESI
Column name: Shimadzu Shim-Pack XR-ODS III; C18; 2.2um; 80A; 2.0x150mm
Precursor type: [M+H]+
m/z	relative intensity
123.116100	14
163.060400	11
229.071100	14
241.071000	10
247.081400	19
259.081600	31
265.092200	116
266.095400	13
277.091800	10
295.102700	84
373.274000	11
391.284500	46
392.287900	11
427.144700	21
437.341800	108
438.344900	34
441.300500	13
455.352900	999
455.434200	17
456.356000	296
457.359100	48
473.362800	80
474.366100	25
523.326900	14
533.362900	12
551.373700	41
552.377000	15
569.384200	24
587.395200	135
588.398600	53
589.401400	10
617.405500	23
719.438000	13
749.449400	35
750.452300	15
881.493900	46
882.496500	22
899.504800	24
900.507600	11
