Mass spectrum: FucGlcNAcGA; LC-ESI-QQ; MS2; CE:15V; [M+H]+
Name: FucGlcNAcGA
Name: Fuc-alpha-1-3GlcNAc-beta-1-2GA (GA, glycolaldehyde)
Class: Natural Product; Oligosaccharide; O-linked glycan
Formula: C16H27NO11
Exact mass: 409.15841
SMILES: O=CCOC(O1)C(NC(C)=O)C(OC(O2)C(O)C(O)C(O)C(C)2)C(O)C(CO)1
InChI: InChI=1S/C16H27NO11/c1-6-10(21)12(23)13(24)16(26-6)28-14-9(17-7(2)20)15(25-4-3-18)27-8(5-19)11(14)22/h3,6,8-16,19,21-24H,4-5H2,1-2H3,(H,17,20)/t6-,8+,9+,10+,11+,12+,13-,14+,15+,16-/m0/s1
Instrument: 2695 HPLC Quadro Micro API, Waters
Instrument type: LC-ESI-QQ
Ms type: MS2
Ion mode: POSITIVE
Collision energy: 25.0 V
Ionization: ESI
Column name: TSK-GEL Amide-80 2.0 mm X 250 mm (TOSOH)
Retention time: 5.494 min
Derivative form: C25H38N2O12
Derivative mass: 558.24247
Derivative type: ABEE (p-Aminobenzoic acid ethyl ester)
Precursor m/z: 559.00
Precursor type: [M+H]+
m/z	relative intensity
203.2	22
203.9	725
204.4	23
209.3	26
209.9	288
318.0	12
319.5	10
334.4	21
349.0	51
349.7	235
350.3	17
355.6	80
366.0	66
366.6	999
367.2	48
384.5	20
394.0	31
394.7	220
395.3	18
412.0	88
412.6	968
413.3	32
511.8	16
512.6	93
513.2	16
522.4	13
539.8	35
540.6	112
558.3	82
559.0	34
