Mass spectrum: Man7GlcNAc-V; LC-ESI-QQ; MS2; CE:40V; Amide
Name: Man7GlcNAc-V
Name: Man-alpha-1-2Man-alpha-1-3Man-alpha-1-6(Man-alpha-1-2Man-alpha-1-2Man-alpha-1-3)Man-beta-1-4GlcNAc
Class: Natural Product; Oligosaccharide; N-linked glycan; High-mannose type
Formula: C50H85NO41
Exact mass: 1355.45970
SMILES: CC(=O)N[C@@H]1[C@H]([C@@H]([C@H](O[C@H]1O)CO)O[C@H]2[C@H]([C@H]([C@@H]([C@H](O2)CO[C@@H]3[C@H]([C@H]([C@@H]([C@H](O3)CO)O)O[C@@H]4[C@H]([C@H]([C@@H]([C@H](O4)CO)O)O)O[C@@H]5[C@H]([C@H]([C@@H]([C@H](O5)CO)O)O)O)O)O)O[C@@H]6[C@H]([C@H]([C@@H]([C@H](O6)CO)O)O)O[C@@H]7[C@H]([C@H]([C@@H]([C@H](O7)CO)O)O)O[C@@H]8[C@H]([C@H]([C@@H]([C@H](O8)CO)O)O)O)O)O
InChI: InChI=1S/C50H85NO41/c1-10(59)51-19-27(67)37(17(8-58)79-43(19)77)87-47-36(76)39(89-49-42(32(72)24(64)14(5-55)84-49)92-50-41(31(71)23(63)15(6-56)85-50)91-46-34(74)29(69)21(61)12(3-53)82-46)26(66)18(86-47)9-78-44-35(75)38(25(65)16(7-57)80-44)88-48-40(30(70)22(62)13(4-54)83-48)90-45-33(73)28(68)20(60)11(2-52)81-45/h11-50,52-58,60-77H,2-9H2,1H3,(H,51,59)/t11-,12-,13-,14-,15-,16-,17-,18-,19-,20-,21-,22-,23-,24-,25-,26-,27-,28+,29+,30+,31+,32+,33+,34+,35+,36+,37-,38+,39+,40+,41+,42+,43-,44+,45-,46-,47+,48-,49-,50-/m1/s1
Instrument: 2695 HPLC Quadro Micro API, Waters
Instrument type: LC-ESI-QQ
Ms type: MS2
Ion mode: POSITIVE
Collision energy: 40.0 V
Ionization: ESI
Column name: TSK-GEL Amide-80 2.0 mm X 250 mm (TOSOH)
Retention time: 29.642 min
Derivative form: C59H96N2O42
Derivative mass: 1504.54377
Derivative type: ABEE (p-Aminobenzoic acid ethyl ester)
Precursor m/z: 1505.30
Precursor type: [M+H]+
m/z	relative intensity
324.9	59
370.3	155
370.9	999
371.7	206
372.4	66
532.4	247
533.3	343
534.2	59
694.5	124
695.4	75
857.2	101
1018.3	88
1019.1	160
1020.0	125
1181.3	56
1342.8	45
1505.4	58
1506.4	51
