Mass spectrum: Man4GlcNAc-II; LC-ESI-QQ; MS2; CE:25V; Amide
Name: Man4GlcNAc-II
Name: Man-alpha-1-6Man-alpha-1-6(Man-alpha-1-3)Man-beta-1-4GlcNAc
Class: Natural Product; Oligosaccharide; N-linked glycan; High-mannose type
Formula: C32H55NO26
Exact mass: 869.30123
SMILES: CC(=O)N[C@@H]1[C@H]([C@@H]([C@H](O[C@H]1O)CO)O[C@H]2[C@H]([C@H]([C@@H]([C@H](O2)CO[C@@H]3[C@H]([C@H]([C@@H]([C@H](O3)CO[C@@H]4[C@H]([C@H]([C@@H]([C@H](O4)CO)O)O)O)O)O)O)O)O[C@@H]5[C@H]([C@H]([C@@H]([C@H](O5)CO)O)O)O)O)O
InChI: InChI=1S/C32H55NO26/c1-7(37)33-13-18(42)26(10(4-36)53-28(13)50)58-32-25(49)27(59-31-24(48)20(44)15(39)9(3-35)55-31)17(41)12(57-32)6-52-30-23(47)21(45)16(40)11(56-30)5-51-29-22(46)19(43)14(38)8(2-34)54-29/h8-32,34-36,38-50H,2-6H2,1H3,(H,33,37)/t8-,9-,10-,11-,12-,13-,14-,15-,16-,17-,18-,19+,20+,21+,22+,23+,24+,25+,26-,27+,28-,29+,30+,31-,32+/m1/s1
Instrument: 2695 HPLC Quadro Micro API, Waters
Instrument type: LC-ESI-QQ
Ms type: MS2
Ion mode: POSITIVE
Collision energy: 25.0 V
Ionization: ESI
Column name: TSK-GEL Amide-80 2.0 mm X 250 mm (TOSOH)
Retention time: 16.468 min
Derivative form: C41H66N2O27
Derivative mass: 1018.38529
Derivative type: ABEE (p-Aminobenzoic acid ethyl ester)
Precursor m/z: 1019.30
Precursor type: [M+H]+
m/z	relative intensity
370.4	277
371.1	677
372.1	181
486.3	60
532.1	157
532.9	398
533.7	245
694.2	132
694.9	816
695.7	391
696.4	108
855.6	99
856.4	642
857.4	763
858.4	141
1017.4	69
1018.1	464
1019.0	999
1019.5	98
1020.1	648
1020.7	157
