Mass spectrum: GalGlcNAc2Man2GlcNAcManGlcNAc2-I; LC-ESI-QQ; MS2; CE:25V; Amide
Name: GalGlcNAc2Man2GlcNAcManGlcNAc2-I
Name: Gal-beta-1-4GlcNAc-beta-1-2Man-alpha-1-6(GlcNAc-beta-1-4)(GlcNAc-beta-1-2Man-alpha-1-3)Man-beta-1-4GlcNAc-beta-1-4GlcNAc
Class: Natural Product; Oligosaccharide; N-linked glycan; Complex type
Formula: C64H107N5O46
Exact mass: 1681.61872
SMILES: C(OC(C9NC(C)=O)OC(C(C9O)O)CO)(C6OC(O8)C(C(O)C(C8CO)O)OC(C7NC(C)=O)OC(C(C(O)7)O)CO)C(OC(C6O)OC(C4O)C(CO)OC(OC(C5CO)C(O)C(C(O)O5)NC(C)=O)C4NC(C)=O)COC(O1)C(OC(O3)C(C(O)C(C(CO)3)OC(C(O)2)OC(C(C2O)O)CO)NC(C)=O)C(O)C(C1CO)O
InChI: InChI=1S/C64H107N5O46/c1-15(78)65-29-41(90)49(25(11-75)100-56(29)98)109-59-32(68-18(4)81)42(91)51(27(13-77)106-59)111-62-48(97)53(113-64-55(46(95)38(87)24(10-74)105-64)115-58-31(67-17(3)80)40(89)35(84)21(7-71)102-58)52(112-57-30(66-16(2)79)39(88)34(83)20(6-70)101-57)28(108-62)14-99-63-54(45(94)37(86)23(9-73)104-63)114-60-33(69-19(5)82)43(92)50(26(12-76)107-60)110-61-47(96)44(93)36(85)22(8-72)103-61/h20-64,70-77,83-98H,6-14H2,1-5H3,(H,65,78)(H,66,79)(H,67,80)(H,68,81)(H,69,82)/t20-,21-,22-,23-,24-,25-,26-,27-,28-,29-,30-,31-,32-,33-,34-,35-,36+,37-,38-,39-,40-,41-,42-,43-,44+,45+,46+,47-,48+,49-,50-,51-,52-,53-,54+,55+,56-,57+,58+,59+,60+,61+,62+,63+,64-/m1/s1
Instrument: 2695 HPLC Quadro Micro API, Waters
Instrument type: LC-ESI-QQ
Ms type: MS2
Ion mode: POSITIVE
Collision energy: 25.0 V
Ionization: ESI
Column name: TSK-GEL Amide-80 2.0 mm X 250 mm (TOSOH)
Retention time: 28.782 min
Derivative form: C73H118N6O47
Derivative mass: 1830.70279
Derivative type: ABEE (p-Aminobenzoic acid ethyl ester)
Precursor m/z: 1833.00
Precursor type: [M+H]+
m/z	relative intensity
365.7	195
366.4	29
371.1	46
568.9	41
573.3	35
574.2	62
575.0	21
689.9	21
731.2	31
760.7	20
892.1	32
893.4	25
938.8	26
939.6	23
1095.3	31
1096.1	67
1097.4	26
1099.9	28
1101.0	104
1102.2	74
1261.3	34
1262.2	109
1263.1	171
1263.9	97
1264.7	63
1303.9	49
1304.9	37
1459.8	25
1460.6	78
1461.3	31
1462.0	94
1463.0	38
1464.0	125
1464.6	40
1465.3	385
1466.1	259
1466.9	325
1467.7	172
1468.4	38
1626.5	43
1627.3	33
1628.6	56
1828.7	39
1829.4	475
1830.3	751
1831.4	999
1832.3	531
1833.1	164
1833.8	23
