Mass spectrum: GlcNAc2Man3GlcNAcFucGlcNAc; LC-ESI-QQ; MS2; CE:40V; Amide
Name: GlcNAc2Man3GlcNAcFucGlcNAc
Name: GlcNAc-beta-1-2Man-alpha-1-6(GlcNAc-beta-1-2Man-alpha-1-3)Man-beta-1-4GlcNAc-beta-1-4(Fuc-alpha-1-6)GlcNAc
Class: Natural Product; Oligosaccharide; N-linked glycan; Complex type
Formula: C56H94N4O40
Exact mass: 1462.54443
SMILES: C(C8O)(C(OC(C8NC(C)=O)OC(C6COC(C7O)OC(C(C7O)O)C)C(C(C(O)O6)NC(C)=O)O)CO)OC(C(O)3)OC(C(O)C3OC(C4OC(C(NC(C)=O)5)OC(CO)C(O)C5O)OC(CO)C(C4O)O)COC(C(OC(O2)C(NC(C)=O)C(O)C(O)C2CO)1)OC(CO)C(O)C(O)1
InChI: InChI=1S/C56H94N4O40/c1-13-29(70)39(80)42(83)53(88-13)86-12-24-45(37(78)25(49(85)89-24)57-14(2)66)96-52-28(60-17(5)69)38(79)44(22(10-65)94-52)97-54-43(84)46(98-56-48(41(82)33(74)21(9-64)93-56)100-51-27(59-16(4)68)36(77)31(72)19(7-62)91-51)34(75)23(95-54)11-87-55-47(40(81)32(73)20(8-63)92-55)99-50-26(58-15(3)67)35(76)30(71)18(6-61)90-50/h13,18-56,61-65,70-85H,6-12H2,1-5H3,(H,57,66)(H,58,67)(H,59,68)(H,60,69)/t13-,18+,19+,20+,21+,22+,23+,24+,25+,26+,27+,28+,29+,30+,31+,32+,33+,34+,35+,36+,37+,38+,39+,40-,41-,42-,43-,44+,45+,46-,47-,48-,49+,50-,51-,52-,53+,54-,55-,56+/m0/s1
Instrument: 2695 HPLC Quadro Micro API, Waters
Instrument type: LC-ESI-QQ
Ms type: MS2
Ion mode: POSITIVE
Collision energy: 40.0 V
Ionization: ESI
Column name: TSK-GEL Amide-80 2.0 mm X 250 mm (TOSOH)
Retention time: 24.339 min
Derivative form: C65H105N5O41
Derivative mass: 1611.62850
Derivative type: ABEE (p-Aminobenzoic acid ethyl ester)
Precursor m/z: 1612.00
Precursor type: [M+H]+
m/z	relative intensity
324.5	55
365.1	360
365.8	999
366.6	325
369.9	38
370.6	620
371.4	214
372.1	31
515.8	48
516.5	195
517.2	113
517.8	31
526.8	119
527.5	808
528.2	338
529.0	102
532.5	34
546.1	34
568.4	50
572.9	181
573.6	645
574.4	212
575.1	66
672.9	57
673.8	89
688.6	215
689.5	648
690.4	242
691.2	31
707.2	84
708.3	73
719.0	144
719.9	120
721.0	62
729.8	235
730.7	448
731.6	85
735.0	145
735.9	320
736.7	71
835.2	42
836.5	50
876.2	34
880.8	82
881.8	129
882.8	41
891.4	211
892.1	403
893.1	836
894.0	199
896.3	53
897.0	277
898.0	448
898.8	55
1013.7	59
1037.6	75
1038.8	134
1039.7	62
1042.2	35
1043.0	177
1044.0	291
1044.8	74
1058.2	79
1059.1	128
1059.9	208
1060.8	39
1094.0	94
1094.7	411
1095.3	109
1095.9	635
1096.7	262
1097.5	74
1099.0	39
1099.9	93
1101.0	112
1102.0	47
1204.3	167
1205.2	181
1206.1	316
1206.8	114
1239.9	32
1241.1	101
1242.3	47
1244.9	35
1245.6	78
1246.8	242
1247.6	81
1260.9	98
1261.8	243
1262.5	34
1263.1	315
1264.2	48
1406.8	248
1407.3	66
1407.9	686
1408.9	874
1409.8	327
1410.5	80
1464.6	35
1466.5	37
1609.8	47
1610.8	62
1611.7	138
1612.8	64
