Mass spectrum: GalGlcNAc2Man2GlcNAcManGlcNAcFucGlcNAc-II; LC-ESI-QQ; MS2; CE:25V; Amide
Name: GalGlcNAc2Man2GlcNAcManGlcNAcFucGlcNAc-II
Name: GlcNAc-beta-1-2Man-alpha-1-6(GlcNAc-beta-1-4)(Gal-beta-1-4GlcNAc-beta-1-2Man-alpha-1-3)Man-beta-1-4GlcNAc-beta-1-4(Fuc-alpha-1-6)GlcNAc
Class: Natural Product; Oligosaccharide; N-linked glycan; Complex type
Formula: C70H117N5O50
Exact mass: 1827.67663
SMILES: C(OC(C2OCC(C(OC(C(NC(C)=O)%10)OC(C(O)C(O)%10)CO)3)OC(OC(C(O)9)C(OC(C(NC(C)=O)9)OC(C8O)C(OC(C8NC(C)=O)O)COC(O7)C(C(O)C(C7C)O)O)CO)C(O)C3OC(O6)C(C(O)C(C6CO)O)OC(C(NC(C)=O)5)OC(C(C(O)5)OC(O4)C(O)C(O)C(O)C4CO)CO)C(C(O)C(O2)CO)O)(O1)C(NC(C)=O)C(C(O)C(CO)1)O
InChI: InChI=1S/C70H117N5O50/c1-16-36(88)47(99)51(103)66(109-16)107-14-29-56(44(96)31(61(106)110-29)71-17(2)83)119-64-34(74-20(5)86)45(97)55(28(13-82)116-64)121-68-53(105)58(123-70-60(50(102)41(93)26(11-80)115-70)125-65-35(75-21(6)87)46(98)54(27(12-81)117-65)120-67-52(104)48(100)39(91)24(9-78)113-67)57(122-62-32(72-18(3)84)42(94)37(89)22(7-76)111-62)30(118-68)15-108-69-59(49(101)40(92)25(10-79)114-69)124-63-33(73-19(4)85)43(95)38(90)23(8-77)112-63/h16,22-70,76-82,88-106H,7-15H2,1-6H3,(H,71,83)(H,72,84)(H,73,85)(H,74,86)(H,75,87)/t16-,22+,23+,24+,25+,26+,27+,28+,29+,30+,31+,32+,33+,34+,35+,36+,37+,38+,39-,40+,41+,42+,43+,44+,45+,46+,47+,48-,49-,50-,51-,52+,53-,54+,55+,56+,57+,58+,59-,60-,61+,62-,63-,64-,65-,66+,67-,68-,69-,70+/m0/s1
Instrument: 2695 HPLC Quadro Micro API, Waters
Instrument type: LC-ESI-QQ
Ms type: MS2
Ion mode: POSITIVE
Collision energy: 25.0 V
Ionization: ESI
Column name: TSK-GEL Amide-80 2.0 mm X 250 mm (TOSOH)
Retention time: 31.580 min
Derivative form: C79H128N6O51
Derivative mass: 1976.76069
Derivative type: ABEE (p-Aminobenzoic acid ethyl ester)
Precursor m/z: 1978.00
Precursor type: [M+H]+
m/z	relative intensity
365.7	313
381.0	46
412.0	44
468.8	44
516.7	112
664.2	47
719.9	143
730.3	109
819.1	161
821.6	48
827.6	44
882.2	76
891.4	108
893.7	139
909.6	65
912.6	44
940.2	43
1009.6	46
1052.6	50
1056.8	42
1095.0	147
1246.5	110
1250.6	52
1256.5	125
1258.0	51
1265.9	48
1296.2	203
1362.3	43
1408.7	209
1409.6	205
1449.1	60
1450.0	75
1459.0	83
1459.9	340
1460.7	67
1461.6	81
1469.5	41
1557.1	45
1578.6	43
1609.7	168
1610.9	443
1611.7	144
1612.4	43
1653.1	44
1771.6	51
1772.7	195
1773.6	174
1774.3	110
1775.5	58
1796.9	146
1827.1	168
1891.8	56
1950.6	392
1973.0	166
1974.0	304
1974.7	999
1975.4	293
1976.1	988
1976.8	360
1977.6	910
