Mass spectrum: GlcNAcThrNAc; LC-ESI-QQ; MS2; CE:25V; [M+H]+
Name: GlcNAcThrNAc
Name: GlcNAc-beta-1-2ThrNAc (ThrNAc, 3-acetamido-3-deoxythreose)
Class: Natural Product; Oligosaccharide; O-linked glycan
Formula: C14H24N2O9
Exact mass: 364.14818
SMILES: OCC(O1)C(O)C(O)C(NC(C)=O)C1OC([H])(C=O)C([H])(CO)NC(C)=O
InChI: InChI=1S/C14H24N2O9/c1-6(20)15-8(3-17)9(4-18)24-14-11(16-7(2)21)13(23)12(22)10(5-19)25-14/h4,8-14,17,19,22-23H,3,5H2,1-2H3,(H,15,20)(H,16,21)/t8-,9-,10+,11+,12+,13+,14+/m0/s1
Instrument: 2695 HPLC Quadro Micro API, Waters
Instrument type: LC-ESI-QQ
Ms type: MS2
Ion mode: POSITIVE
Collision energy: 25.0 V
Ionization: ESI
Column name: TSK-GEL Amide-80 2.0 mm X 250 mm (TOSOH)
Retention time: 5.595 min
Derivative form: C23H35N3O10
Derivative mass: 513.23224
Derivative type: ABEE (p-Aminobenzoic acid ethyl ester)
Precursor m/z: 514.00
Precursor type: [M+H]+
m/z	relative intensity
203.2	20
203.9	570
233.9	36
246.8	25
264.2	37
264.8	999
292.3	15
292.9	108
293.6	18
310.6	111
311.3	19
466.8	15
467.4	136
468.1	29
