Mass spectrum: GlcNAc2Man3GlcNAc2; LC-ESI-QQ; MS2; CE:35V; Amide
Name: GlcNAc2Man3GlcNAc2
Name: GlcNAc-beta-1-2Man-alpha-1-6(GlcNAc-beta-1-2Man-alpha-1-3)Man-beta-1-4GlcNAc-beta-1-4GlcNAc
Class: Natural Product; Oligosaccharide; N-linked glycan; Complex type
Formula: C50H84N4O36
Exact mass: 1316.48653
SMILES: CC(=O)NC(C(O)1)C(OC(C(OC(C(O)5)C(O)C(OC(COC(O6)C(OC(C(NC(C)=O)7)OC(CO)C(C(O)7)O)C(C(C6CO)O)O)5)OC(C4O)C(CO)OC(C4NC(C)=O)OC(C3O)C(OC(O)C3NC(C)=O)CO)2)C(C(O)C(CO)O2)O)OC(CO)C1O
InChI: InChI=1S/C50H84N4O36/c1-12(61)51-23-34(72)39(20(9-59)79-44(23)77)86-47-26(54-15(4)64)35(73)40(21(10-60)84-47)87-48-38(76)41(88-50-43(37(75)30(68)19(8-58)83-50)90-46-25(53-14(3)63)33(71)28(66)17(6-56)81-46)31(69)22(85-48)11-78-49-42(36(74)29(67)18(7-57)82-49)89-45-24(52-13(2)62)32(70)27(65)16(5-55)80-45/h16-50,55-60,65-77H,5-11H2,1-4H3,(H,51,61)(H,52,62)(H,53,63)(H,54,64)/t16-,17-,18-,19-,20-,21-,22-,23-,24-,25-,26-,27-,28-,29-,30-,31-,32-,33-,34-,35-,36+,37+,38+,39-,40-,41+,42+,43+,44-,45+,46+,47+,48+,49+,50-/m1/s1
Instrument: 2695 HPLC Quadro Micro API, Waters
Instrument type: LC-ESI-QQ
Ms type: MS2
Ion mode: POSITIVE
Collision energy: 35 V
Ionization: ESI
Column name: TSK-GEL Amide-80 2.0 mm X 250 mm (TOSOH)
Retention time: 21.640 min
Derivative form: C59H95N5O37
Derivative mass: 1465.57059
Derivative type: ABEE (p-Aminobenzoic acid ethyl ester)
Precursor m/z: 1467.00
Precursor type: [M+H]+
m/z	relative intensity
324.5	93
325.2	43
365.1	305
365.8	872
366.5	124
367.4	59
370.1	149
370.8	689
371.7	133
526.9	196
527.6	825
528.3	174
529.3	115
532.8	52
545.9	61
572.8	73
573.4	718
574.2	373
575.1	204
689.0	178
689.9	410
690.7	125
707.3	59
708.4	34
729.6	135
730.2	48
730.9	309
731.4	58
732.3	36
734.3	38
735.1	170
735.9	375
736.8	92
852.0	72
874.6	34
891.4	234
892.4	756
893.2	495
894.1	166
896.0	70
897.0	199
897.7	767
898.5	319
899.3	91
1058.1	49
1058.8	284
1059.3	30
1059.9	505
1060.8	197
1061.4	35
1094.1	121
1095.0	391
1095.6	82
1096.2	529
1097.0	132
1099.3	39
1099.9	42
1100.6	299
1101.6	285
1216.5	40
1260.7	353
1261.7	824
1262.7	996
1263.2	155
1263.8	999
1264.6	51
1265.4	43
1463.9	50
1465.2	302
1465.9	183
1466.8	80
