Mass spectrum: stevioside; LC-ESI-QQ; MS2; CE:60V; [M-H]-
Name: stevioside
Class: Natural Product; Steviol glycoside
Formula: C38H60O18
Exact mass: 804.37797
SMILES: C(C7)C(C)(C(C6)([H])C(C7)(C)C(C5)(C(C2)(C6)CC(C(C5)(OC(O4)C(C(C(O)C(CO)4)O)OC(O3)C(O)C(C(O)C(CO)3)O)2)=C)[H])C(=O)OC(C1O)OC(CO)C(C1O)O
InChI: InChI=1S/C38H60O18/c1-16-11-37-9-5-20-35(2,7-4-8-36(20,3)34(50)55-32-29(49)26(46)23(43)18(13-40)52-32)21(37)6-10-38(16,15-37)56-33-30(27(47)24(44)19(14-41)53-33)54-31-28(48)25(45)22(42)17(12-39)51-31/h17-33,39-49H,1,4-15H2,2-3H3/t17-,18-,19-,20+,21+,22-,23-,24-,25+,26+,27+,28-,29-,30-,31+,32+,33+,35-,36-,37-,38+/m1/s1
Instrument: 2695 HPLC Quadro Micro API, Waters
Instrument type: LC-ESI-QQ
Ms type: MS2
Ion mode: NEGATIVE
Collision energy: 60.0 V
Ionization: ESI
Column name: TSK-GEL Amide-80 2.0 mm X 250 mm (TOSOH)
Retention time: 10.956 min
Precursor m/z: 803.00
Precursor type: [M-H]-
m/z	relative intensity
316.5	22
317.2	270
370.9	15
460.3	10
460.9	78
461.6	14
478.3	119
479.0	999
479.6	50
480.5	14
640.3	366
641.0	855
641.7	105
642.6	14
