Mass spectrum: GalGlcNAc2Man3GlcNAcFucGlcNAc-II; LC-ESI-QQ; MS2; CE:40V; Amide
Name: GalGlcNAc2Man3GlcNAcFucGlcNAc-II
Name: GlcNAc-beta-1-2Man-alpha-1-6(Gal-beta-1-4GlcNAc-beta-1-2Man-alpha-1-3)Man-beta-1-4GlcNAc-beta-1-4(Fuc-alpha-1-6)GlcNAc
Class: Natural Product; Oligosaccharide; N-linked glycan; Complex type
Formula: C62H104N4O45
Exact mass: 1624.59726
SMILES: C(C(CO)3)(C(O)C(C(OC(C(O)4)C(O)C(COC(C8OC(O9)C(NC(C)=O)C(O)C(O)C9CO)OC(CO)C(O)C8O)OC4OC(C(CO)7)C(O)C(C(O7)OC(C(COC(O6)C(O)C(C(C(C)6)O)O)5)C(C(NC(C)=O)C(O)O5)O)NC(C)=O)O3)OC(C(NC(C)=O)2)OC(C(C2O)OC(O1)C(C(C(O)C1CO)O)O)CO)O
InChI: InChI=1S/C62H104N4O45/c1-14-31(77)41(87)45(91)58(97-14)95-13-26-50(38(84)27(54(94)98-26)63-15(2)73)106-56-29(65-17(4)75)39(85)49(24(11-72)103-56)108-60-47(93)51(36(82)25(105-60)12-96-61-52(43(89)34(80)21(8-69)101-61)110-55-28(64-16(3)74)37(83)32(78)19(6-67)99-55)109-62-53(44(90)35(81)22(9-70)102-62)111-57-30(66-18(5)76)40(86)48(23(10-71)104-57)107-59-46(92)42(88)33(79)20(7-68)100-59/h14,19-62,67-72,77-94H,6-13H2,1-5H3,(H,63,73)(H,64,74)(H,65,75)(H,66,76)/t14-,19+,20+,21+,22+,23+,24+,25+,26+,27+,28+,29+,30+,31+,32+,33-,34+,35+,36+,37+,38+,39+,40+,41+,42-,43-,44-,45-,46+,47-,48+,49+,50+,51-,52-,53-,54+,55-,56-,57-,58+,59-,60-,61-,62+/m0/s1
Instrument: 2695 HPLC Quadro Micro API, Waters
Instrument type: LC-ESI-QQ
Ms type: MS2
Ion mode: POSITIVE
Collision energy: 40.0 V
Ionization: ESI
Column name: TSK-GEL Amide-80 2.0 mm X 250 mm (TOSOH)
Retention time: 29.713 min
Derivative form: C71H115N5O46
Derivative mass: 1773.68132
Derivative type: ABEE (p-Aminobenzoic acid ethyl ester)
Precursor m/z: 1774.00
Precursor type: [M+H]+
m/z	relative intensity
312.6	24
324.7	46
365.1	339
365.8	999
366.6	385
367.4	35
370.5	76
371.3	84
477.9	21
510.9	24
512.2	37
516.7	26
517.4	113
526.5	43
527.5	207
528.5	65
529.4	29
572.8	23
573.8	151
574.6	43
575.4	41
671.8	21
688.7	86
689.4	46
690.1	46
718.5	47
719.3	45
730.0	55
730.8	91
731.5	29
736.2	61
835.4	63
881.5	37
891.1	51
891.8	144
892.6	378
893.2	47
893.8	102
894.6	24
896.4	38
897.5	77
898.1	41
899.0	56
1014.0	22
1037.8	48
1038.5	21
1039.2	51
1039.9	28
1042.6	35
1043.5	229
1044.2	36
1053.8	109
1055.3	73
1058.5	70
1059.7	81
1061.4	53
1072.9	24
1100.6	24
1101.4	42
1114.4	23
1200.1	23
1203.6	58
1204.9	119
1205.6	178
1206.3	36
1207.0	59
1245.8	34
1246.6	34
1247.6	114
1248.3	24
1256.1	174
1256.7	24
1257.2	313
1258.2	272
1259.0	51
1260.9	74
1262.1	77
1263.2	69
1264.0	27
1406.8	145
1407.6	131
1408.3	478
1409.1	382
1409.8	34
1410.5	139
1425.2	28
1425.9	21
1552.4	21
1568.6	30
1569.3	64
1570.2	38
1570.9	143
1572.2	104
1627.8	26
1771.9	78
1773.5	88
1774.3	149
1775.3	66
1776.7	22
1779.9	50
