Mass spectrum: Man4GlcNAc2-II; LC-ESI-QQ; MS2; CE:35V; Amide
Name: Man4GlcNAc2-II
Name: Man-alpha-1-3Man-alpha-1-6(Man-alpha-1-3)Man-beta-1-4GlcNAc-beta-1-4GlcNAc
Class: Natural Product; Oligosaccharide; N-linked glycan; High-mannose type
Formula: C40H68N2O31
Exact mass: 1072.38060
SMILES: C(C(O)5)(OC(C(O)C5OC(C(O)6)OC(C(C(O)6)O)CO)OCC(C1O)OC(OC(C4O)C(OC(C4NC(C)=O)OC(C(O)3)C(CO)OC(C3NC(C)=O)O)CO)C(O)C1OC(C2O)OC(C(C(O)2)O)CO)CO
InChI: InChI=1S/C40H68N2O31/c1-9(48)41-17-23(54)31(14(6-46)64-35(17)62)70-36-18(42-10(2)49)24(55)32(15(7-47)68-36)71-40-30(61)34(73-39-28(59)26(57)20(51)12(4-44)67-39)22(53)16(69-40)8-63-37-29(60)33(21(52)13(5-45)65-37)72-38-27(58)25(56)19(50)11(3-43)66-38/h11-40,43-47,50-62H,3-8H2,1-2H3,(H,41,48)(H,42,49)/t11-,12-,13-,14-,15-,16-,17-,18-,19-,20-,21-,22-,23-,24-,25+,26+,27+,28+,29+,30+,31-,32-,33+,34+,35-,36+,37+,38-,39-,40+/m1/s1
Instrument: 2695 HPLC Quadro Micro API, Waters
Instrument type: LC-ESI-QQ
Ms type: MS2
Ion mode: POSITIVE
Collision energy: 35.0 V
Ionization: ESI
Column name: TSK-GEL Amide-80 2.0 mm X 250 mm (TOSOH)
Retention time: 19.553 min
Derivative form: C49H79N3O32
Derivative mass: 1221.46467
Derivative type: ABEE (p-Aminobenzoic acid ethyl ester)
Precursor m/z: 1222.10
Precursor type: [M+H]+
m/z	relative intensity
324.2	45
325.0	159
325.7	29
342.3	23
365.2	161
365.9	430
366.6	70
367.3	20
370.1	120
370.8	999
371.6	91
372.3	53
486.7	24
526.7	26
527.3	389
528.2	235
529.0	22
532.8	22
573.1	162
573.9	448
574.9	64
688.9	199
689.8	361
691.0	48
734.7	38
735.8	119
736.7	34
850.7	109
851.4	352
852.3	189
853.2	62
897.0	54
897.8	105
898.7	40
1058.9	48
1059.8	65
1061.3	21
1221.0	25
