Mass spectrum: GalGlcNAc2Man2GlcNAcManGlcNAcFucGlcNAc-I; LC-ESI-QQ; MS2; CE:25V; Amide
Name: GalGlcNAc2Man2GlcNAcManGlcNAcFucGlcNAc-I
Name: Gal-beta-1-4GlcNAc-beta-1-2Man-alpha-1-6(GlcNAc-beta-1-4)(GlcNAc-beta-1-2Man-alpha-1-3)Man-beta-1-4GlcNAc-beta-1-4(Fuc-alpha-1-6)GlcNAc
Class: Natural Product; Oligosaccharide; N-linked glycan; Complex type
Formula: C70H117N5O50
Exact mass: 1827.67663
SMILES: C(C8O)(OC(O%10)C(NC(C)=O)C(C(C(CO)%10)OC(O9)C(O)C(C(O)C9CO)O)O)C(OC(C(O)8)CO)OCC(C(OC(O7)C(C(C(C(CO)7)O)O)NC(C)=O)1)OC(OC(C4CO)C(C(C(OC(C(O)5)C(COC(O6)C(O)C(C(O)C6C)O)OC(O)C(NC(C)=O)5)O4)NC(C)=O)O)C(C1OC(C2OC(C(NC(C)=O)3)OC(CO)C(C3O)O)OC(C(O)C2O)CO)O
InChI: InChI=1S/C70H117N5O50/c1-16-36(88)47(99)51(103)66(109-16)107-14-29-56(44(96)31(61(106)110-29)71-17(2)83)119-64-34(74-20(5)86)45(97)55(28(13-82)116-64)121-68-53(105)58(123-70-60(50(102)41(93)26(11-80)115-70)125-63-33(73-19(4)85)43(95)38(90)23(8-77)112-63)57(122-62-32(72-18(3)84)42(94)37(89)22(7-76)111-62)30(118-68)15-108-69-59(49(101)40(92)25(10-79)114-69)124-65-35(75-21(6)87)46(98)54(27(12-81)117-65)120-67-52(104)48(100)39(91)24(9-78)113-67/h16,22-70,76-82,88-106H,7-15H2,1-6H3,(H,71,83)(H,72,84)(H,73,85)(H,74,86)(H,75,87)/t16-,22+,23+,24+,25+,26+,27+,28+,29+,30+,31+,32+,33+,34+,35+,36+,37+,38+,39-,40+,41+,42+,43+,44+,45+,46+,47+,48-,49-,50-,51-,52+,53-,54+,55+,56+,57+,58+,59-,60-,61+,62-,63-,64-,65-,66+,67-,68-,69-,70+/m0/s1
Instrument: 2695 HPLC Quadro Micro API, Waters
Instrument type: LC-ESI-QQ
Ms type: MS2
Ion mode: POSITIVE
Collision energy: 25.0 V
Ionization: ESI
Column name: TSK-GEL Amide-80 2.0 mm X 250 mm (TOSOH)
Retention time: 30.847 min
Derivative form: C79H128N6O51
Derivative mass: 1976.76069
Derivative type: ABEE (p-Aminobenzoic acid ethyl ester)
Precursor m/z: 1978.00
Precursor type: [M+H]+
m/z	relative intensity
364.8	13
365.5	149
366.3	66
367.0	11
370.5	21
516.7	16
527.7	13
568.1	36
573.2	33
719.4	27
730.6	43
731.4	14
891.7	12
893.9	17
898.1	13
910.7	11
1094.7	35
1096.0	46
1097.0	15
1100.8	32
1241.4	13
1242.7	14
1245.0	44
1246.1	22
1246.9	33
1257.4	13
1262.3	16
1407.0	20
1407.7	86
1408.3	11
1408.9	109
1409.7	22
1448.5	22
1449.6	26
1458.9	57
1459.7	33
1460.4	79
1461.2	43
1461.9	13
1464.7	23
1465.7	10
1466.6	14
1569.6	21
1609.3	38
1610.1	250
1610.6	14
1611.2	404
1612.1	230
1613.0	128
1613.7	17
1771.3	12
1772.1	35
1773.1	61
1774.3	30
1831.2	14
1918.9	15
1973.5	97
1974.2	263
1975.0	700
1975.9	897
1976.5	123
1977.1	999
1977.9	384
1978.8	38
