Mass spectrum: GalNAc2FucGlcNAcGA; LC-ESI-QQ; MS2; CE:15V; [M+H]+
Name: GalNAc2FucGlcNAcGA
Name: GalNAc-beta-1-4(GalNAc-alpha-1-2Fuc-alpha-1-3)GlcNAc-beta-1-2GA (GA, glycolaldehyde)
Class: Natural Product; Oligosaccharide; O-linked glycan
Formula: C32H53N3O21
Exact mass: 815.31716
SMILES: CC(=O)NC(C1OC(C4O)C(OC(C4O)C)OC(C3NC(C)=O)C(C(CO)OC3OCC=O)OC(C(NC(C)=O)2)OC(CO)C(O)C(O)2)C(C(O)C(CO)O1)O
InChI: InChI=1S/C32H53N3O21/c1-10-20(43)25(48)28(56-31-18(34-12(3)41)24(47)22(45)15(8-38)52-31)32(50-10)55-27-19(35-13(4)42)29(49-6-5-36)53-16(9-39)26(27)54-30-17(33-11(2)40)23(46)21(44)14(7-37)51-30/h5,10,14-32,37-39,43-48H,6-9H2,1-4H3,(H,33,40)(H,34,41)(H,35,42)/t10-,14+,15+,16+,17+,18+,19+,20+,21-,22-,23+,24+,25+,26+,27+,28-,29+,30-,31+,32-/m0/s1
Instrument: 2695 HPLC Quadro Micro API, Waters
Instrument type: LC-ESI-QQ
Ms type: MS2
Ion mode: POSITIVE
Collision energy: 15.0 V
Ionization: ESI
Column name: TSK-GEL Amide-80 2.0 mm X 250 mm (TOSOH)
Retention time: 17.557 min
Derivative form: C41H64N4O22
Derivative mass: 964.40122
Derivative type: ABEE (p-Aminobenzoic acid ethyl ester)
Precursor m/z: 965.00
Precursor type: [M+H]+
m/z	relative intensity
203.8	37
349.8	28
405.9	14
406.5	95
407.2	18
412.2	19
412.9	42
552.1	63
552.9	40
557.9	11
558.8	19
569.9	18
596.9	13
597.7	21
614.8	72
615.6	167
616.4	32
754.8	31
755.7	57
756.5	21
760.9	115
761.8	194
762.6	24
918.5	11
963.0	13
963.5	503
964.4	999
965.2	424
966.1	83
