Mass spectrum: Man3GlcNAc; LC-ESI-QQ; MS2; CE:15V; Amide
Name: Man3GlcNAc
Name: Man-alpha-1-6(Man-alpha-1-3)Man-beta-1-4GlcNAc
Class: Natural Product; Oligosaccharide; N-linked glycan; High-mannose type
Formula: C26H45NO21
Exact mass: 707.24841
SMILES: O(C1O)C(C(OC(O2)C(C(OC(O4)C(C(C(C4CO)O)O)O)C(C2COC(C3O)OC(C(C3O)O)CO)O)O)C(C1NC(C)=O)O)CO
InChI: InChI=1/C26H45NO21/c1-6(31)27-11-15(35)21(9(4-30)43-23(11)41)47-26-20(40)22(48-25-19(39)17(37)13(33)8(3-29)45-25)14(34)10(46-26)5-42-24-18(38)16(36)12(32)7(2-28)44-24/h7-26,28-30,32-41H,2-5H2,1H3,(H,27,31)/t7-,8-,9-,10-,11-,12-,13-,14-,15-,16+,17+,18+,19+,20+,21-,22+,23+,24+,25-,26+/m1/s1/f/h27H
Instrument: 2695 HPLC Quadro Micro API, Waters
Instrument type: LC-ESI-QQ
Ms type: MS2
Ion mode: POSITIVE
Collision energy: 15.0 V
Ionization: ESI
Column name: TSK-GEL Amide-80 2.0 mm X 250 mm (TOSOH)
Retention time: 11.109 min
Derivative form: C35H56N2O22
Derivative mass: 856.33247
Derivative type: ABEE (p-Aminobenzoic acid ethyl ester)
Precursor m/z: 857.30
Precursor type: [M+H]+
m/z	relative intensity
370.7	42
532.2	34
533.0	32
694.4	107
695.3	111
696.3	34
855.4	27
856.1	424
856.9	999
857.7	583
858.5	174
