Mass spectrum: GalNAcFucGlcNAcThrNAc-I; LC-ESI-QQ; MS2; CE:25V; [M+H]+
Name: GalNAcFucGlcNAcThrNAc-I
Name: GalNAc-alpha-1-2Fuc-alpha-1-3GlcNAc-beta-1-2ThrNAc (ThrNAc, 3-acetamido-3-deoxythreose)
Class: Natural Product; Oligosaccharide; O-linked glycan
Formula: C28H47N3O18
Exact mass: 713.28546
SMILES: N(C(C(OC(C(O)2)C(OC(C3O)C(NC(C)=O)C(OC(C=O)(C(CO)(NC(C)=O)[H])[H])OC3CO)OC(C)C2O)1)C(O)C(O)C(CO)O1)C(C)=O
InChI: InChI=1S/C28H47N3O18/c1-9-19(39)23(43)25(49-26-17(30-11(3)37)22(42)20(40)15(7-34)46-26)28(44-9)48-24-18(31-12(4)38)27(47-16(8-35)21(24)41)45-14(6-33)13(5-32)29-10(2)36/h6,9,13-28,32,34-35,39-43H,5,7-8H2,1-4H3,(H,29,36)(H,30,37)(H,31,38)/t9-,13-,14-,15+,16+,17+,18+,19+,20-,21+,22+,23+,24+,25-,26+,27+,28-/m0/s1
Instrument: 2695 HPLC Quadro Micro API, Waters
Instrument type: LC-ESI-QQ
Ms type: MS2
Ion mode: POSITIVE
Collision energy: 25.0 V
Ionization: ESI
Column name: TSK-GEL Amide-80 2.0 mm X 250 mm (TOSOH)
Retention time: 12.081 min
Derivative form: C37H58N4O19
Derivative mass: 862.36953
Derivative type: ABEE (p-Aminobenzoic acid ethyl ester)
Precursor m/z: 863.00
Precursor type: [M+H]+
m/z	relative intensity
203.2	65
203.9	999
204.4	21
264.1	10
264.9	176
266.1	11
269.8	20
310.2	63
310.8	796
311.5	28
312.1	34
314.0	14
331.5	106
332.3	33
349.1	27
349.7	294
350.5	48
456.0	19
456.7	118
457.4	27
466.8	20
467.4	205
468.2	86
512.8	17
513.5	548
514.2	202
515.1	30
552.2	91
553.0	60
553.8	17
612.8	16
613.4	44
614.2	13
641.8	11
658.9	122
659.8	137
660.5	31
670.6	14
863.5	12
