Mass spectrum: Gal2GlcNAc2Man3GlcNAc2; LC-ESI-QQ; MS2; CE:30V; Amide
Name: Gal2GlcNAc2Man3GlcNAc2
Name: Gal-beta-1-4GlcNAc-beta-1-2Man-alpha-1-6(Gal-beta-1-4GlcNAc-beta-1-2Man-alpha-1-3)Man-beta-1-4GlcNAc-beta-1-4GlcNAc
Class: Natural Product; Oligosaccharide; N-linked glycan; Complex type
Formula: C62H104N4O46
Exact mass: 1640.59217
SMILES: C(C(O2)C(C(O)C(C(OC(C9O)C(OC(C9O)CO)OC(C3O)C(O)C(COC(O8)C(C(O)C(O)C(CO)8)OC(C6NC(C)=O)OC(C(OC(C7O)OC(C(C7O)O)CO)C6O)CO)OC3OC(C5O)C(CO)OC(C5NC(C)=O)OC(C4CO)C(C(C(O)O4)NC(C)=O)O)2)NC(C)=O)OC(O1)C(C(C(O)C1CO)O)O)O
InChI: InChI=1S/C62H104N4O46/c1-14(75)63-27-36(84)47(22(9-71)97-54(27)95)106-55-28(64-15(2)76)37(85)50(25(12-74)102-55)109-60-46(94)51(110-62-53(43(91)34(82)21(8-70)101-62)112-57-30(66-17(4)78)39(87)49(24(11-73)104-57)108-59-45(93)41(89)32(80)19(6-68)99-59)35(83)26(105-60)13-96-61-52(42(90)33(81)20(7-69)100-61)111-56-29(65-16(3)77)38(86)48(23(10-72)103-56)107-58-44(92)40(88)31(79)18(5-67)98-58/h18-62,67-74,79-95H,5-13H2,1-4H3,(H,63,75)(H,64,76)(H,65,77)(H,66,78)/t18-,19-,20-,21-,22-,23-,24-,25-,26-,27-,28-,29-,30-,31+,32+,33-,34-,35-,36-,37-,38-,39-,40+,41+,42+,43+,44-,45-,46+,47-,48-,49-,50-,51+,52+,53+,54-,55+,56+,57+,58+,59+,60+,61+,62-/m1/s1
Instrument: 2695 HPLC Quadro Micro API, Waters
Instrument type: LC-ESI-QQ
Ms type: MS2
Ion mode: POSITIVE
Collision energy: 30 V
Ionization: ESI
Column name: TSK-GEL Amide-80 2.0 mm X 250 mm (TOSOH)
Retention time: 31.362 min
Derivative form: C71H115N5O47
Derivative mass: 1789.67624
Derivative type: ABEE (p-Aminobenzoic acid ethyl ester)
Precursor m/z: 1791.00
Precursor type: [M+H]+
m/z	relative intensity
324.4	22
365.0	215
365.8	576
366.5	77
370.8	130
527.0	148
527.9	61
570.6	22
572.8	85
573.4	83
574.8	68
688.2	34
689.7	86
721.8	39
734.6	47
735.8	34
737.0	61
869.9	66
891.8	31
892.9	25
893.5	26
896.1	27
896.8	164
897.4	25
898.2	217
899.1	44
1052.7	22
1053.3	47
1054.0	169
1055.1	136
1058.2	41
1058.8	103
1059.6	284
1060.3	148
1061.0	33
1100.0	22
1100.9	33
1217.0	22
1219.9	20
1243.8	39
1260.8	30
1261.5	119
1262.6	169
1263.5	37
1407.3	36
1417.8	95
1418.8	33
1419.4	162
1420.0	30
1420.7	151
1422.6	196
1423.4	449
1424.5	859
1425.3	501
1426.0	215
1426.5	61
1626.5	36
1628.2	44
1782.2	21
1786.1	54
1787.0	205
1787.8	513
1788.6	67
1789.2	999
1789.7	43
1790.3	582
1791.0	330
