Mass spectrum: Man4GlcNAc-III; LC-ESI-QQ; MS2; CE:35V; ODS
Name: Man4GlcNAc-III
Name: Man-alpha-1-3Man-alpha-1-6(Man-alpha-1-3)Man-beta-1-9GlcNAc
Class: Natural Product; Oligosaccharide; N-linked glycan; High-mannose type
Formula: C32H55NO26
Exact mass: 869.30123
SMILES: CC(=O)N[C@@H]1[C@H]([C@@H]([C@H](O[C@H]1O)CO)O[C@H]2[C@H]([C@H]([C@@H]([C@H](O2)CO[C@@H]3[C@H]([C@H]([C@@H]([C@H](O3)CO)O)O[C@@H]4[C@H]([C@H]([C@@H]([C@H](O4)CO)O)O)O)O)O)O[C@@H]5[C@H]([C@H]([C@@H]([C@H](O5)CO)O)O)O)O)O
InChI: InChI=1S/C32H55NO26/c1-7(38)33-13-18(43)25(11(5-37)52-28(13)50)57-32-24(49)27(59-31-22(47)20(45)15(40)9(3-35)55-31)17(42)12(56-32)6-51-29-23(48)26(16(41)10(4-36)53-29)58-30-21(46)19(44)14(39)8(2-34)54-30/h8-32,34-37,39-50H,2-6H2,1H3,(H,33,38)/t8-,9-,10-,11-,12-,13-,14-,15-,16-,17-,18-,19+,20+,21+,22+,23+,24+,25-,26+,27+,28-,29+,30-,31-,32+/m1/s1
Instrument: 2695 HPLC Quadro Micro API, Waters
Instrument type: LC-ESI-QQ
Ms type: MS2
Ion mode: POSITIVE
Collision energy: 35.0 V
Ionization: ESI
Column name: Wakosil 5C18-200 2.0 mm X 250 mm (Wako)
Retention time: 21.900 min
Derivative form: C41H66N2O27
Derivative mass: 1018.38529
Derivative type: ABEE (p-Aminobenzoic acid ethyl ester)
Precursor m/z: 1019.30
Precursor type: [M+H]+
m/z	relative intensity
324.8	128
326.1	45
370.2	133
370.9	999
371.8	530
372.5	68
487.4	55
532.2	131
533.2	351
534.1	133
694.4	49
695.2	116
696.1	74
857.9	33
