Mass spectrum: Man2XylManGlcNAc2; LC-ESI-QQ; MS2; CE:25V; ODS
Name: Man2XylManGlcNAc2
Name: Man-alpha-1-6(Man-alpha-1-3)(Xyl-beta-1-2)Man-beta-1-4GlcNAc-beta-1-4GlcNAc
Class: Natural Product; Oligosaccharide; N-linked glycan; Complex type
Formula: C39H66N2O30
Exact mass: 1042.37004
SMILES: OC(C1O)C(OCC(O2)C(C(OC(O6)C(C(C(O)C(CO)6)O)O)C(OC(C(O)5)OCC(O)C5O)C2OC(C4CO)C(O)C(C(O4)OC(C3O)C(OC(C3NC(C)=O)O)CO)NC(C)=O)O)OC(C(O)1)CO
InChI: InChI=1S/C39H66N2O30/c1-9(46)40-17-23(53)30(14(5-44)63-34(17)60)68-35-18(41-10(2)47)24(54)31(15(6-45)66-35)69-39-33(71-37-27(57)19(49)11(48)7-61-37)32(70-38-29(59)26(56)21(51)13(4-43)65-38)22(52)16(67-39)8-62-36-28(58)25(55)20(50)12(3-42)64-36/h11-39,42-45,48-60H,3-8H2,1-2H3,(H,40,46)(H,41,47)/t11-,12-,13-,14-,15-,16-,17-,18-,19+,20-,21-,22-,23-,24-,25+,26+,27-,28+,29+,30-,31-,32+,33+,34-,35+,36+,37+,38-,39+/m1/s1
Instrument: 2695 HPLC Quadro Micro API, Waters
Instrument type: LC-ESI-QQ
Ms type: MS2
Ion mode: POSITIVE
Collision energy: 25.0 V
Ionization: ESI
Column name: Wakosil 5C18-200 2.0 mm X 250 mm (Wako)
Retention time: 34.816 min
Derivative form: C48H77N3O31
Derivative mass: 1191.45410
Derivative type: ABEE (p-Aminobenzoic acid ethyl ester)
Precursor m/z: 1192.00
Precursor type: [M+H]+
m/z	relative intensity
325.0	30
365.2	39
366.0	63
370.2	157
371.0	478
371.7	55
526.9	24
527.6	99
528.3	44
572.8	29
573.4	209
574.3	97
659.0	60
659.8	125
660.7	28
688.7	25
689.3	145
690.2	114
735.1	40
736.0	72
820.4	92
821.1	479
822.0	684
822.8	200
823.5	47
851.5	22
867.0	28
867.9	71
868.8	22
896.9	62
897.7	180
898.6	90
899.5	36
1013.9	23
1028.0	22
1028.8	120
1029.7	266
1030.7	151
1031.6	29
1058.5	69
1059.2	205
1060.1	353
1060.8	114
1061.6	30
1190.2	167
1191.0	747
1192.0	999
1192.8	685
1193.5	296
