Mass spectrum: GalNAcGlcNAcGA; LC-ESI-QQ; MS2; CE:15V; [M+H]+
Name: GalNAcGlcNAcGA
Name: GalNAc-beta-1-4GlcNAc-beta-1-2GA (GA, glycolaldehyde)
Class: Natural Product; Oligosaccharide; O-linked glycan
Formula: C18H30N2O12
Exact mass: 466.17987
SMILES: O=CCOC(O1)C(NC(C)=O)C(O)C(OC(O2)C(NC(C)=O)C(O)C(O)C(CO)2)C(CO)1
InChI: InChI=1S/C18H30N2O12/c1-7(24)19-11-14(27)13(26)9(5-22)30-18(11)32-16-10(6-23)31-17(29-4-3-21)12(15(16)28)20-8(2)25/h3,9-18,22-23,26-28H,4-6H2,1-2H3,(H,19,24)(H,20,25)/t9-,10-,11-,12-,13+,14-,15-,16-,17-,18+/m0/s1
Instrument: 2695 HPLC Quadro Micro API, Waters
Instrument type: LC-ESI-QQ
Ms type: MS2
Ion mode: POSITIVE
Collision energy: 25.0 V
Ionization: ESI
Column name: TSK-GEL Amide-80 2.0 mm X 250 mm (TOSOH)
Retention time: 7.269 min
Derivative form: C27H41N3O13
Derivative mass: 615.26394
Derivative type: ABEE (p-Aminobenzoic acid ethyl ester)
Precursor m/z: 616.00
Precursor type: [M+H]+
m/z	relative intensity
203.9	605
209.9	43
221.8	118
287.8	10
317.7	54
366.5	207
367.1	39
376.5	108
377.1	20
388.8	14
394.6	96
395.2	13
405.9	23
406.5	999
407.1	57
412.0	46
412.6	500
413.2	25
568.9	30
569.6	95
596.9	32
597.7	60
598.3	11
614.9	54
615.6	126
616.3	21
