Mass spectrum: GalGlcNAc2Man3GlcNAc2-II; LC-ESI-QQ; MS2; CE:35V; Amide
Name: GalGlcNAc2Man3GlcNAc2-II
Name: GlcNAc-beta-1-2Man-alpha-1-6(Gal-beta-1-4GlcNAc-beta-1-2Man-alpha-1-3)Man-beta-1-4GlcNAc-beta-1-4GlcNAc
Class: Natural Product; Oligosaccharide; N-linked glycan; Complex type
Formula: C56H94N4O41
Exact mass: 1478.53935
SMILES: C(OC(C2OCC(O3)C(O)C(OC(C6OC(C(NC(C)=O)8)OC(C(C8O)OC(C7O)OC(C(O)C(O)7)CO)CO)OC(C(C(O)6)O)CO)C(C3OC(C5O)C(CO)OC(C(NC(C)=O)5)OC(C4O)C(CO)OC(C4NC(C)=O)O)O)C(O)C(C(CO)O2)O)(C(NC(C)=O)1)OC(C(C(O)1)O)CO
InChI: InChI=1S/C56H94N4O41/c1-13(68)57-25-35(78)43(21(9-65)88-49(25)86)96-51-27(59-15(3)70)36(79)45(23(11-67)93-51)98-54-42(85)46(33(76)24(95-54)12-87-55-47(39(82)31(74)19(7-63)91-55)100-50-26(58-14(2)69)34(77)29(72)17(5-61)89-50)99-56-48(40(83)32(75)20(8-64)92-56)101-52-28(60-16(4)71)37(80)44(22(10-66)94-52)97-53-41(84)38(81)30(73)18(6-62)90-53/h17-56,61-67,72-86H,5-12H2,1-4H3,(H,57,68)(H,58,69)(H,59,70)(H,60,71)/t17-,18-,19-,20-,21-,22-,23-,24-,25-,26-,27-,28-,29-,30+,31-,32-,33-,34-,35-,36-,37-,38+,39+,40+,41-,42+,43-,44-,45-,46+,47+,48+,49-,50+,51+,52+,53+,54+,55+,56-/m1/s1
Instrument: 2695 HPLC Quadro Micro API, Waters
Instrument type: LC-ESI-QQ
Ms type: MS2
Ion mode: POSITIVE
Collision energy: 35 V
Ionization: ESI
Column name: TSK-GEL Amide-80 2.0 mm X 250 mm (TOSOH)
Retention time: 26.880 min
Derivative form: C65H105N5O42
Derivative mass: 1627.62341
Derivative type: ABEE (p-Aminobenzoic acid ethyl ester)
Precursor m/z: 1629.00
Precursor type: [M+H]+
m/z	relative intensity
365.0	831
365.9	999
366.5	51
370.5	81
371.4	98
526.8	88
527.6	307
528.3	54
529.3	41
573.4	85
574.1	183
688.9	79
689.6	140
690.5	65
691.2	44
730.0	51
730.7	151
731.4	50
734.9	56
735.7	145
736.5	126
891.5	53
892.2	181
893.2	313
897.2	311
898.0	120
898.9	118
1023.1	47
1037.5	40
1053.6	117
1054.7	111
1055.6	148
1058.0	47
1058.8	156
1059.8	461
1060.7	235
1061.7	84
1100.4	115
1101.5	130
1256.2	148
1257.2	314
1258.2	145
1259.1	87
1260.8	73
1261.5	470
1262.5	573
1263.4	367
1264.2	119
1378.6	46
1422.1	50
1423.1	395
1424.0	256
1424.6	84
1425.2	214
1425.9	255
1427.0	134
1428.7	49
1466.0	54
1531.8	42
1625.6	76
1626.7	160
1627.6	335
1628.6	376
1629.2	64
