Mass spectrum: Man3GlcNAcFucGlcNAc; LC-ESI-QQ; MS2; CE:25V; Amide
Name: Man3GlcNAcFucGlcNAc
Name: Man-alpha-1-6(Man-alpha-1-3)Man-beta-1-4GlcNAc-beta-1-4(Fuc-alpha-1-6)GlcNAc
Class: Natural Product; Oligosaccharide; N-linked glycan; Complex type
Formula: C40H68N2O30
Exact mass: 1056.38569
SMILES: N(C(C6O)C(O)C(C(O6)COC(C5O)OC(C(C(O)5)O)C)OC(C4NC(C)=O)OC(CO)C(C4O)OC(C2O)OC(C(C2OC(O3)C(O)C(C(C3CO)O)O)O)COC(O1)C(C(O)C(O)C1CO)O)C(C)=O
InChI: InChI=1S/C40H68N2O30/c1-9-19(48)25(54)28(57)37(64-9)63-8-16-33(23(52)17(35(61)65-16)41-10(2)46)70-36-18(42-11(3)47)24(53)32(14(6-45)68-36)71-40-31(60)34(72-39-30(59)27(56)21(50)13(5-44)67-39)22(51)15(69-40)7-62-38-29(58)26(55)20(49)12(4-43)66-38/h9,12-40,43-45,48-61H,4-8H2,1-3H3,(H,41,46)(H,42,47)/t9-,12+,13+,14+,15+,16+,17+,18+,19+,20+,21+,22+,23+,24+,25+,26-,27-,28-,29-,30-,31-,32+,33+,34-,35+,36-,37+,38-,39+,40-/m0/s1
Instrument: 2695 HPLC Quadro Micro API, Waters
Instrument type: LC-ESI-QQ
Ms type: MS2
Ion mode: POSITIVE
Collision energy: 25.0 V
Ionization: ESI
Column name: TSK-GEL Amide-80 2.0 mm X 250 mm (TOSOH)
Retention time: 17.077 min
Derivative form: C49H79N3O31
Derivative mass: 1205.46975
Derivative type: ABEE (p-Aminobenzoic acid ethyl ester)
Precursor m/z: 1207.00
Precursor type: [M+H]+
m/z	relative intensity
325.6	29
365.3	21
366.0	29
370.3	22
371.0	150
371.7	31
471.1	13
516.6	135
517.3	86
518.1	45
518.8	13
527.5	35
528.3	57
529.1	16
573.2	12
573.9	22
574.6	40
575.8	11
688.9	12
689.5	192
690.4	429
691.0	50
691.7	126
720.0	21
735.8	17
736.6	12
835.3	37
836.4	63
837.2	35
838.1	12
883.1	21
897.2	12
898.0	43
899.1	57
900.0	21
956.7	28
1043.4	36
1044.1	18
1044.7	97
1046.1	66
1059.5	12
1060.3	130
1061.4	118
1062.2	24
1158.4	12
1160.1	10
1204.7	34
1205.3	255
1206.1	655
1207.0	999
1208.0	390
1208.7	49
