Mass spectrum: GalGlcNAc2Man3GlcNAcFucGlcNAc-I; LC-ESI-QQ; MS2; CE:30V; Amide
Name: GalGlcNAc2Man3GlcNAcFucGlcNAc-I
Name: Gal-beta-1-4GlcNAc-beta-1-2Man-alpha-1-6(GlcNAc-beta-1-2Man-alpha-1-3)Man-beta-1-4GlcNAc-beta-1-4(Fuc-alpha-1-6)GlcNAc
Class: Natural Product; Oligosaccharide; N-linked glycan; Complex type
Formula: C62H104N4O45
Exact mass: 1624.59726
SMILES: C(C(C(OC(O9)C(O)C(C(O)C(CO)9)O)1)OC(OC(C(OCC(C6O)OC(C(C6OC(C7OC(C(NC(C)=O)8)OC(CO)C(C(O)8)O)OC(CO)C(C(O)7)O)O)OC(C5CO)C(O)C(NC(C)=O)C(O5)OC(C(COC(C(O)4)OC(C(O)C4O)C)3)C(O)C(C(O3)O)NC(C)=O)2)C(C(C(CO)O2)O)O)C(NC(C)=O)C1O)O
InChI: InChI=1S/C62H104N4O45/c1-14-31(77)41(87)45(91)58(97-14)95-13-26-50(38(84)27(54(94)98-26)63-15(2)73)106-56-29(65-17(4)75)39(85)49(24(11-72)103-56)108-60-47(93)51(109-62-53(44(90)35(81)22(9-70)102-62)111-55-28(64-16(3)74)37(83)32(78)19(6-67)99-55)36(82)25(105-60)12-96-61-52(43(89)34(80)21(8-69)101-61)110-57-30(66-18(5)76)40(86)48(23(10-71)104-57)107-59-46(92)42(88)33(79)20(7-68)100-59/h14,19-62,67-72,77-94H,6-13H2,1-5H3,(H,63,73)(H,64,74)(H,65,75)(H,66,76)/t14-,19+,20+,21+,22+,23+,24+,25+,26+,27+,28+,29+,30+,31+,32+,33-,34+,35+,36+,37+,38+,39+,40+,41+,42-,43-,44-,45-,46+,47-,48+,49+,50+,51-,52-,53-,54+,55-,56-,57-,58+,59-,60-,61-,62+/m0/s1
Instrument: 2695 HPLC Quadro Micro API, Waters
Instrument type: LC-ESI-QQ
Ms type: MS2
Ion mode: POSITIVE
Collision energy: 30.0V
Ionization: ESI
Column name: TSK-GEL Amide-80 2.0 mm X 250 mm (TOSOH)
Retention time: 29.368 min
Derivative form: C71H115N5O46
Derivative mass: 1773.68132
Derivative type: ABEE (p-Aminobenzoic acid ethyl ester)
Precursor m/z: 1774.00
Precursor type: [M+H]+
m/z	relative intensity
365.5	245
366.3	103
366.9	10
370.6	21
491.3	11
516.3	77
517.8	17
526.9	11
527.6	27
529.3	15
573.6	16
574.3	12
576.1	13
688.2	10
688.7	16
689.6	23
708.0	16
719.9	11
720.6	11
729.5	13
736.3	16
737.3	12
881.1	14
891.6	70
892.8	102
893.5	40
894.7	15
896.9	18
897.7	42
911.4	18
1038.0	13
1039.0	13
1043.8	21
1044.9	17
1055.0	29
1059.8	21
1072.0	16
1072.8	12
1073.7	29
1099.7	18
1100.5	23
1203.7	15
1204.5	31
1205.3	30
1206.0	55
1245.1	21
1245.9	12
1246.8	26
1247.8	33
1255.8	67
1256.8	135
1257.8	179
1258.6	100
1259.1	22
1259.9	16
1261.0	16
1262.2	36
1263.1	44
1368.0	12
1404.4	23
1406.2	19
1406.8	192
1407.8	624
1408.5	95
1409.1	627
1410.0	246
1410.7	95
1422.8	13
1569.5	47
1570.6	68
1571.6	55
1572.6	29
1611.7	21
1612.8	28
1627.9	18
1629.1	12
1756.0	11
1770.7	53
1771.3	222
1772.3	464
1773.1	928
1774.1	999
1775.0	549
1775.8	159
1776.5	77
