Mass spectrum: GlcNAc2Man2XylManGlcNAcFucGlcNAc; LC-ESI-QQ; MS2; CE:30V; Amide
Name: GlcNAc2Man2XylManGlcNAcFucGlcNAc
Name: GlcNAc-beta-1-2Man-alpha-1-6(GlcNAc-beta-1-2Man-alpha-1-3)(Xyl-beta-1-2)Man-beta-1-4GlcNAc-beta-1-4(Fuc-alpha-1-3)GlcNAc
Class: Natural Product; Oligosaccharide; N-linked glycan; Complex type
Formula: C61H102N4O44
Exact mass: 1594.58669
SMILES: OCC(C(OC(O5)C(C(OC(O8)C(OC(C(NC(C)=O)9)OC(CO)C(O)C9O)C(C(O)C8CO)O)C(C5COC(O6)C(OC(O7)C(NC(C)=O)C(C(C(CO)7)O)O)C(O)C(C(CO)6)O)O)OC(C(O)4)OCC(O)C4O)1)OC(OC(C(OC(C3O)OC(C)C(C(O)3)O)2)C(CO)OC(O)C(NC(C)=O)2)C(C1O)NC(C)=O
InChI: InChI=1S/C61H102N4O44/c1-14-31(77)41(87)45(91)58(95-14)105-48-30(65-18(5)75)53(92)96-25(11-71)47(48)104-56-29(64-17(4)74)40(86)46(24(10-70)101-56)103-61-52(109-57-44(90)32(78)19(76)12-93-57)49(106-60-51(43(89)36(82)23(9-69)100-60)108-55-28(63-16(3)73)39(85)34(80)21(7-67)98-55)37(83)26(102-61)13-94-59-50(42(88)35(81)22(8-68)99-59)107-54-27(62-15(2)72)38(84)33(79)20(6-66)97-54/h14,19-61,66-71,76-92H,6-13H2,1-5H3,(H,62,72)(H,63,73)(H,64,74)(H,65,75)/t14-,19+,20+,21+,22+,23+,24+,25+,26+,27+,28+,29+,30+,31+,32-,33+,34+,35+,36+,37+,38+,39+,40+,41+,42-,43-,44+,45-,46+,47+,48+,49-,50-,51-,52-,53+,54-,55-,56-,57-,58-,59-,60+,61-/m0/s1
Instrument: 2695 HPLC Quadro Micro API, Waters
Instrument type: LC-ESI-QQ
Ms type: MS2
Ion mode: POSITIVE
Collision energy: 30.0 V
Ionization: ESI
Column name: TSK-GEL Amide-80 2.0 mm X 250 mm (TOSOH)
Retention time: 29.676 min
Derivative form: C70H113N5O45
Derivative mass: 1743.67076
Derivative type: ABEE (p-Aminobenzoic acid ethyl ester)
Precursor m/z: 1744.00
Precursor type: [M+H]+
m/z	relative intensity
336.1	26
365.6	114
366.4	37
370.7	93
371.4	32
372.1	23
516.9	64
527.6	64
528.5	45
573.4	93
574.4	89
659.5	22
660.8	36
719.1	44
719.9	42
720.8	20
736.1	31
862.4	23
891.8	40
892.7	45
893.6	25
897.9	42
1014.2	22
1024.7	82
1026.4	24
1159.4	29
1171.2	56
1175.3	23
1191.3	28
1193.0	37
1226.3	104
1227.1	111
1228.1	85
1228.9	67
1233.1	33
1261.4	24
1262.8	56
1337.3	71
1373.6	29
1374.5	46
1375.7	28
1377.2	53
1378.5	35
1380.0	33
1393.0	28
1393.9	116
1394.6	24
1395.3	77
1408.6	38
1410.1	21
1523.3	34
1538.9	154
1539.8	256
1540.6	536
1541.6	343
1542.4	62
1596.1	34
1598.3	57
1611.8	26
1741.1	86
1741.8	280
1742.7	737
1743.5	250
1744.1	999
1744.7	112
1745.3	299
