Mass spectrum: GlcNAcMan4GlcNAcManGlcNAc2; LC-ESI-QQ; MS2; CE:35V; Amide
Name: GlcNAcMan4GlcNAcManGlcNAc2
Name: Man-alpha-1-6(Man-alpha-1-3)Man-alpha-1-6(GlcNAc-beta-1-4)(GlcNAc-beta-1-2Man-alpha-1-3)Man-beta-1-4GlcNAc-beta-1-4GlcNAc
Class: Natural Product; Oligosaccharide; N-linked glycan; Hybrid type
Formula: C62H104N4O46
Exact mass: 1640.59217
SMILES: C(O1)(CO)C(C(O)C(C1OCC(C2O)OC(OCC(C4OC(C(NC(C)=O)9)OC(C(C9O)O)CO)OC(OC(C(CO)8)C(C(C(O8)OC(C(O)7)C(CO)OC(O)C7NC(C)=O)NC(C)=O)O)C(C4OC(O6)C(C(C(O)C(CO)6)O)OC(O5)C(C(O)C(C5CO)O)NC(C)=O)O)C(C(OC(C(O)3)OC(C(C(O)3)O)CO)2)O)O)O
InChI: InChI=1S/C62H104N4O46/c1-14(74)63-27-39(86)48(23(10-72)98-54(27)95)107-57-30(66-17(4)77)40(87)49(24(11-73)104-57)108-61-47(94)52(111-62-53(43(90)35(82)22(9-71)103-62)112-56-29(65-16(3)76)38(85)32(79)19(6-68)100-56)50(109-55-28(64-15(2)75)37(84)31(78)18(5-67)99-55)26(106-61)13-97-59-46(93)51(110-60-45(92)42(89)34(81)21(8-70)102-60)36(83)25(105-59)12-96-58-44(91)41(88)33(80)20(7-69)101-58/h18-62,67-73,78-95H,5-13H2,1-4H3,(H,63,74)(H,64,75)(H,65,76)(H,66,77)/t18-,19-,20-,21-,22-,23-,24-,25-,26-,27-,28-,29-,30-,31-,32-,33-,34-,35-,36-,37-,38-,39-,40-,41+,42+,43+,44+,45+,46+,47+,48-,49-,50-,51+,52-,53+,54-,55+,56+,57+,58+,59+,60-,61+,62-/m1/s1
Instrument: 2695 HPLC Quadro Micro API, Waters
Instrument type: LC-ESI-QQ
Ms type: MS2
Ion mode: POSITIVE
Collision energy: 35.0 V
Ionization: ESI
Column name: TSK-GEL Amide-80 2.0 mm X 250 mm (TOSOH)
Retention time: 30.887 min
Derivative form: C71H115N5O47
Derivative mass: 1789.67624
Derivative type: ABEE (p-Aminobenzoic acid ethyl ester)
Precursor m/z: 1790.00
Precursor type: [M+H]+
m/z	relative intensity
365.6	557
366.5	84
370.0	202
370.6	678
371.3	238
515.1	121
528.2	308
565.4	116
568.2	416
569.0	185
569.8	225
572.9	72
573.4	999
574.3	769
575.1	51
691.2	64
708.2	68
729.5	82
730.4	181
731.3	120
734.9	78
735.8	241
851.4	63
891.2	143
892.0	51
892.8	358
894.7	127
897.4	142
899.2	88
933.0	52
937.8	141
939.0	167
940.0	80
1013.1	68
1013.7	265
1053.4	253
1054.2	81
1054.9	365
1055.6	63
1056.4	68
1058.5	67
1081.9	58
1099.6	119
1101.9	158
1215.2	147
1216.1	270
1216.8	68
1217.7	325
1221.2	51
1256.3	144
1257.1	52
1257.7	177
1258.9	93
1260.9	64
1262.4	198
1263.4	170
1264.3	78
1303.6	52
1384.4	54
1417.7	581
1418.3	79
1418.8	392
1419.7	603
1420.9	318
1423.2	108
1424.6	534
1426.1	317
1465.5	57
1585.1	320
1585.8	426
1586.6	357
1587.4	112
1588.1	205
1588.9	56
1618.7	73
1626.2	95
1627.1	198
1629.0	187
1771.9	53
1786.7	73
1787.5	132
1788.2	641
1789.1	526
1790.0	476
1790.7	153
1791.4	258
