Mass spectrum: GlcNAc2Man2XylManGlcNAcFucGlcNAc; LC-ESI-QQ; MS2; CE:40V; Amide
Name: GlcNAc2Man2XylManGlcNAcFucGlcNAc
Name: GlcNAc-beta-1-2Man-alpha-1-6(GlcNAc-beta-1-2Man-alpha-1-3)(Xyl-beta-1-2)Man-beta-1-4GlcNAc-beta-1-4(Fuc-alpha-1-3)GlcNAc
Class: Natural Product; Oligosaccharide; N-linked glycan; Complex type
Formula: C61H102N4O44
Exact mass: 1594.58669
SMILES: OCC(C(OC(O5)C(C(OC(O8)C(OC(C(NC(C)=O)9)OC(CO)C(O)C9O)C(C(O)C8CO)O)C(C5COC(O6)C(OC(O7)C(NC(C)=O)C(C(C(CO)7)O)O)C(O)C(C(CO)6)O)O)OC(C(O)4)OCC(O)C4O)1)OC(OC(C(OC(C3O)OC(C)C(C(O)3)O)2)C(CO)OC(O)C(NC(C)=O)2)C(C1O)NC(C)=O
InChI: InChI=1S/C61H102N4O44/c1-14-31(77)41(87)45(91)58(95-14)105-48-30(65-18(5)75)53(92)96-25(11-71)47(48)104-56-29(64-17(4)74)40(86)46(24(10-70)101-56)103-61-52(109-57-44(90)32(78)19(76)12-93-57)49(106-60-51(43(89)36(82)23(9-69)100-60)108-55-28(63-16(3)73)39(85)34(80)21(7-67)98-55)37(83)26(102-61)13-94-59-50(42(88)35(81)22(8-68)99-59)107-54-27(62-15(2)72)38(84)33(79)20(6-66)97-54/h14,19-61,66-71,76-92H,6-13H2,1-5H3,(H,62,72)(H,63,73)(H,64,74)(H,65,75)/t14-,19+,20+,21+,22+,23+,24+,25+,26+,27+,28+,29+,30+,31+,32-,33+,34+,35+,36+,37+,38+,39+,40+,41+,42-,43-,44+,45-,46+,47+,48+,49-,50-,51-,52-,53+,54-,55-,56-,57-,58-,59-,60+,61-/m0/s1
Instrument: 2695 HPLC Quadro Micro API, Waters
Instrument type: LC-ESI-QQ
Ms type: MS2
Ion mode: POSITIVE
Collision energy: 40.0 V
Ionization: ESI
Column name: TSK-GEL Amide-80 2.0 mm X 250 mm (TOSOH)
Retention time: 29.744 min
Derivative form: C70H113N5O45
Derivative mass: 1743.67076
Derivative type: ABEE (p-Aminobenzoic acid ethyl ester)
Precursor m/z: 1744.00
Precursor type: [M+H]+
m/z	relative intensity
336.1	105
365.2	203
365.9	903
366.7	198
370.0	182
370.7	999
371.4	181
497.2	61
516.7	262
526.8	243
527.7	569
528.5	144
573.3	635
574.2	595
649.3	61
658.9	135
659.7	318
660.4	61
674.3	66
688.7	73
690.0	178
708.0	61
719.5	93
720.2	198
730.8	135
735.5	174
736.7	78
821.5	61
822.2	94
862.7	261
863.4	64
867.6	106
868.4	63
891.6	100
892.8	159
893.8	143
897.0	178
898.4	160
1023.4	93
1024.3	349
1025.1	184
1025.8	89
1028.7	84
1029.5	152
1039.1	85
1044.0	81
1059.0	90
1059.9	92
1060.5	74
1171.2	78
1175.8	96
1191.3	84
1192.7	161
1226.7	123
1227.5	84
1228.2	321
1262.8	97
1337.1	106
1338.8	91
1377.4	90
1378.4	176
1394.7	161
1395.6	149
1408.9	128
1539.5	195
1540.3	221
1541.3	154
1598.3	79
1742.6	126
1743.7	95
