Mass spectrum: FucGlcNAcThrNAc; LC-ESI-QQ; MS2; CE:25V; [M+H]+
Name: FucGlcNAcThrNAc
Name: Fuc-alpha-1-3GlcNAc-beta-1-2ThrNAc (ThrNAc, 3-acetamido-3-deoxythreose)
Class: Natural Product; Oligosaccharide; O-linked glycan
Formula: C20H34N2O13
Exact mass: 510.20609
SMILES: CC(=O)NC([H])(CO)C([H])(C=O)OC(O1)C(NC(C)=O)C(OC(O2)C(O)C(O)C(O)C(C)2)C(O)C(CO)1
InChI: InChI=1S/C20H34N2O13/c1-7-14(28)16(30)17(31)20(32-7)35-18-13(22-9(3)27)19(34-12(6-25)15(18)29)33-11(5-24)10(4-23)21-8(2)26/h5,7,10-20,23,25,28-31H,4,6H2,1-3H3,(H,21,26)(H,22,27)/t7-,10-,11-,12+,13+,14+,15+,16+,17-,18+,19+,20-/m0/s1
Instrument: 2695 HPLC Quadro Micro API, Waters
Instrument type: LC-ESI-QQ
Ms type: MS2
Ion mode: POSITIVE
Collision energy: 25.0 V
Ionization: ESI
Column name: TSK-GEL Amide-80 2.0 mm X 250 mm (TOSOH)
Retention time: 7.572 min
Derivative form: C29H45N3O14
Derivative mass: 659.29015
Derivative type: ABEE (p-Aminobenzoic acid ethyl ester)
Precursor m/z: 660.00
Precursor type: [M+H]+
m/z	relative intensity
203.4	39
203.9	999
204.6	12
264.2	38
264.8	303
265.5	19
292.6	12
310.2	68
310.9	448
311.5	22
312.2	14
349.0	20
349.7	58
350.4	10
392.5	10
410.6	11
456.1	12
456.8	20
467.0	22
467.7	123
468.5	15
513.0	12
513.8	50
