Mass spectrum: Man7GlcNAc-II; LC-ESI-QQ; MS2; CE:30V; Amide
Name: Man7GlcNAc-II
Name: Man-alpha-1-6(Man-alpha-1-3)Man-alpha-1-6(Man-alpha-1-2Man-alpha-1-2Man-alpha-1-3)Man-beta-1-4GlcNAc
Class: Natural Product; Oligosaccharide; N-linked glycan; High-mannose type
Formula: C50H85NO41
Exact mass: 1355.45970
SMILES: CC(=O)N[C@@H]1[C@H]([C@@H]([C@H](O[C@H]1O)CO)O[C@H]2[C@H]([C@H]([C@@H]([C@H](O2)CO[C@@H]3[C@H]([C@H]([C@@H]([C@H](O3)CO[C@@H]4[C@H]([C@H]([C@@H]([C@H](O4)CO)O)O)O)O)O[C@@H]5[C@H]([C@H]([C@@H]([C@H](O5)CO)O)O)O)O)O)O[C@@H]6[C@H]([C@H]([C@@H]([C@H](O6)CO)O)O)O[C@@H]7[C@H]([C@H]([C@@H]([C@H](O7)CO)O)O)O[C@@H]8[C@H]([C@H]([C@@H]([C@H](O8)CO)O)O)O)O)O
InChI: InChI=1S/C50H85NO41/c1-10(58)51-19-27(66)38(16(7-57)80-43(19)77)88-48-37(76)40(90-49-42(32(71)24(63)14(5-55)84-49)92-50-41(31(70)23(62)15(6-56)85-50)91-47-35(74)30(69)22(61)13(4-54)83-47)26(65)18(87-48)9-79-45-36(75)39(89-46-34(73)29(68)21(60)12(3-53)82-46)25(64)17(86-45)8-78-44-33(72)28(67)20(59)11(2-52)81-44/h11-50,52-57,59-77H,2-9H2,1H3,(H,51,58)/t11-,12-,13-,14-,15-,16-,17-,18-,19-,20-,21-,22-,23-,24-,25-,26-,27-,28+,29+,30+,31+,32+,33+,34+,35+,36+,37+,38-,39+,40+,41+,42+,43-,44+,45+,46-,47-,48+,49-,50-/m1/s1
Instrument: 2695 HPLC Quadro Micro API, Waters
Instrument type: LC-ESI-QQ
Ms type: MS2
Ion mode: POSITIVE
Collision energy: 50.0 V
Ionization: ESI
Column name: TSK-GEL Amide-80 2.0 mm X 250 mm (TOSOH)
Retention time: 31.782 min
Derivative form: C59H96N2O42
Derivative mass: 1504.54377
Derivative type: ABEE (p-Aminobenzoic acid ethyl ester)
Precursor m/z: 1505.30
Precursor type: [M+H]+
m/z	relative intensity
370.3	86
371.0	445
371.6	66
532.4	99
533.4	90
695.2	79
857.5	80
1018.1	74
1018.9	131
1019.8	217
1180.1	54
1181.2	100
1341.8	70
1342.6	172
1343.6	203
1344.5	98
1503.1	88
1503.8	440
1504.7	658
1505.6	999
1506.4	370
1507.1	122
