Mass spectrum: ManXylManGlcNAcFucGlcNAc; LC-ESI-QQ; MS2; CE:30V; ODS
Name: ManXylManGlcNAcFucGlcNAc
Name: Man-alpha-1-6(Xyl-beta-1-2)Man-beta-1-4GlcNAc-beta-1-4(Fuc-alpha-1-3)GlcNAc
Class: Natural Product; Oligosaccharide; N-linked glycan; Complex type
Formula: C39H66N2O29
Exact mass: 1026.37512
SMILES: C(C(O)4)(C(OC(OC(C(OC(O6)C(O)C(C(C6C)O)O)5)C(CO)OC(O)C(NC(C)=O)5)C4NC(C)=O)CO)OC(O1)C(OC(O3)C(C(O)C(C3)O)O)C(O)C(C1COC(O2)C(C(C(C2CO)O)O)O)O
InChI: InChI=1S/C39H66N2O29/c1-9-19(48)24(53)29(58)38(62-9)69-32-18(41-11(3)46)34(59)63-15(6-44)31(32)68-35-17(40-10(2)45)23(52)30(14(5-43)65-35)67-39-33(70-37-27(56)20(49)12(47)7-60-37)26(55)22(51)16(66-39)8-61-36-28(57)25(54)21(50)13(4-42)64-36/h9,12-39,42-44,47-59H,4-8H2,1-3H3,(H,40,45)(H,41,46)/t9-,12+,13+,14+,15+,16+,17+,18+,19+,20-,21+,22+,23+,24+,25-,26-,27+,28-,29-,30+,31+,32+,33-,34+,35-,36-,37-,38-,39-/m0/s1
Instrument: 2695 HPLC Quadro Micro API, Waters
Instrument type: LC-ESI-QQ
Ms type: MS2
Ion mode: POSITIVE
Collision energy: 30.0 V
Ionization: ESI
Column name: Wakosil 5C18-200 2.0 mm X 250 mm (Wako)
Retention time: 25.448 min
Derivative form: C48H77N3O30
Derivative mass: 1175.45919
Derivative type: ABEE (p-Aminobenzoic acid ethyl ester)
Precursor m/z: 1176.00
Precursor type: [M+H]+
m/z	relative intensity
324.9	45
365.2	56
365.9	390
366.5	45
370.4	111
371.0	917
371.6	69
487.0	20
497.2	40
497.8	316
498.6	50
516.3	109
517.0	312
517.7	23
527.2	65
527.9	246
528.6	26
573.0	39
573.7	349
574.4	145
643.2	23
644.0	28
659.1	341
659.8	999
660.5	280
673.3	24
674.1	44
690.1	30
719.3	36
720.3	37
735.3	90
736.1	216
736.7	28
805.3	107
806.1	210
806.8	31
851.9	32
867.2	114
868.0	228
868.7	88
881.2	31
882.3	47
897.3	62
898.2	127
1013.1	46
1014.0	117
1014.8	57
1028.7	38
1029.4	229
1030.3	293
1031.0	55
1043.3	42
1044.4	60
1174.8	70
1175.5	287
1176.5	319
1177.2	22
