Mass spectrum: GalGlcNAc2Man2GlcNAcManGlcNAcFucGlcNAc-I; LC-ESI-QQ; MS2; CE:30V; Amide
Name: GalGlcNAc2Man2GlcNAcManGlcNAcFucGlcNAc-I
Name: Gal-beta-1-4GlcNAc-beta-1-2Man-alpha-1-6(GlcNAc-beta-1-4)(GlcNAc-beta-1-2Man-alpha-1-3)Man-beta-1-4GlcNAc-beta-1-4(Fuc-alpha-1-6)GlcNAc
Class: Natural Product; Oligosaccharide; N-linked glycan; Complex type
Formula: C70H117N5O50
Exact mass: 1827.67663
SMILES: C(C8O)(OC(O%10)C(NC(C)=O)C(C(C(CO)%10)OC(O9)C(O)C(C(O)C9CO)O)O)C(OC(C(O)8)CO)OCC(C(OC(O7)C(C(C(C(CO)7)O)O)NC(C)=O)1)OC(OC(C4CO)C(C(C(OC(C(O)5)C(COC(O6)C(O)C(C(O)C6C)O)OC(O)C(NC(C)=O)5)O4)NC(C)=O)O)C(C1OC(C2OC(C(NC(C)=O)3)OC(CO)C(C3O)O)OC(C(O)C2O)CO)O
InChI: InChI=1S/C70H117N5O50/c1-16-36(88)47(99)51(103)66(109-16)107-14-29-56(44(96)31(61(106)110-29)71-17(2)83)119-64-34(74-20(5)86)45(97)55(28(13-82)116-64)121-68-53(105)58(123-70-60(50(102)41(93)26(11-80)115-70)125-63-33(73-19(4)85)43(95)38(90)23(8-77)112-63)57(122-62-32(72-18(3)84)42(94)37(89)22(7-76)111-62)30(118-68)15-108-69-59(49(101)40(92)25(10-79)114-69)124-65-35(75-21(6)87)46(98)54(27(12-81)117-65)120-67-52(104)48(100)39(91)24(9-78)113-67/h16,22-70,76-82,88-106H,7-15H2,1-6H3,(H,71,83)(H,72,84)(H,73,85)(H,74,86)(H,75,87)/t16-,22+,23+,24+,25+,26+,27+,28+,29+,30+,31+,32+,33+,34+,35+,36+,37+,38+,39-,40+,41+,42+,43+,44+,45+,46+,47+,48-,49-,50-,51-,52+,53-,54+,55+,56+,57+,58+,59-,60-,61+,62-,63-,64-,65-,66+,67-,68-,69-,70+/m0/s1
Instrument: 2695 HPLC Quadro Micro API, Waters
Instrument type: LC-ESI-QQ
Ms type: MS2
Ion mode: POSITIVE
Collision energy: 30.0 V
Ionization: ESI
Column name: TSK-GEL Amide-80 2.0 mm X 250 mm (TOSOH)
Retention time: 30.881 min
Derivative form: C79H128N6O51
Derivative mass: 1976.76069
Derivative type: ABEE (p-Aminobenzoic acid ethyl ester)
Precursor m/z: 1978.00
Precursor type: [M+H]+
m/z	relative intensity
365.1	220
365.9	392
367.3	39
370.5	22
371.4	45
511.8	22
516.8	28
528.0	43
568.1	67
568.8	57
573.3	100
574.1	59
720.1	68
729.5	31
730.4	39
731.0	139
731.6	22
736.1	27
881.8	24
891.5	57
892.7	64
933.5	26
934.4	23
939.0	46
939.8	25
1043.2	21
1046.2	25
1083.9	53
1094.5	86
1095.3	33
1096.1	47
1099.4	38
1100.3	32
1101.8	34
1241.1	26
1245.7	81
1246.6	96
1247.4	72
1257.5	76
1258.3	22
1261.6	34
1262.5	22
1263.3	36
1407.0	27
1407.8	134
1408.6	140
1409.5	258
1410.2	23
1448.1	37
1450.1	24
1458.8	62
1459.3	22
1459.9	235
1460.9	114
1461.7	39
1462.4	22
1464.9	23
1466.3	44
1609.2	110
1610.0	549
1610.7	218
1611.3	789
1612.2	509
1612.9	156
1614.1	24
1771.9	30
1772.6	144
1773.7	86
1774.4	26
1896.1	32
1973.5	99
1974.2	328
1975.1	594
1976.0	999
1977.0	820
1977.8	365
1978.6	91
