Mass spectrum: rebaudioside F; LC-ESI-QQ; MS2; CE:20V; [M-H]-
Name: rebaudioside F
Class: Natural Product; Steviol glycoside
Formula: C43H68O22
Exact mass: 936.42022
SMILES: C(C(O)7)(C(OC(O8)C(O)C(C(O)C8)O)C(OC7CO)OC(C2)(C(=C)6)CC(C6)(C5)C(C(C3)(C)C([H])(C5)C(C(OC(C4O)OC(C(O)C4O)CO)=O)(CC3)C)(C2)[H])OC(O1)C(C(O)C(O)C(CO)1)O
InChI: InChI=1S/C43H68O22/c1-17-11-42-9-5-22-40(2,7-4-8-41(22,3)39(57)64-37-32(56)29(53)26(50)20(13-45)60-37)23(42)6-10-43(17,16-42)65-38-34(63-35-30(54)24(48)18(47)15-58-35)33(27(51)21(14-46)61-38)62-36-31(55)28(52)25(49)19(12-44)59-36/h18-38,44-56H,1,4-16H2,2-3H3/t18-,19-,20-,21-,22+,23+,24+,25-,26-,27-,28+,29+,30-,31-,32-,33+,34-,35+,36+,37+,38+,40-,41-,42-,43+/m1/s1
Instrument: 2695 HPLC Quadro Micro API, Waters
Instrument type: LC-ESI-QQ
Ms type: MS2
Ion mode: NEGATIVE
Collision energy: 20.0 V
Ionization: ESI
Column name: TSK-GEL Amide-80 2.0 mm X 250 mm (TOSOH)
Retention time: 13.347 min
Precursor m/z: 935.00
Precursor type: [M-H]-
m/z	relative intensity
771.8	25
772.4	509
773.2	999
773.8	117
933.8	67
934.4	492
935.3	712
936.0	39
