Mass spectrum: Man5GlcNAc2-I; LC-ESI-QQ; MS2; CE:35V; Amide
Name: Man5GlcNAc2-I
Name: Man-alpha-1-6(Man-alpha-1-3)Man-alpha-1-6(Man-alpha-1-3)Man-beta-1-4GlcNAc-beta-1-4GlcNAc
Class: Natural Product; Oligosaccharide; N-linked glycan; High-mannose type
Formula: C46H78N2O36
Exact mass: 1234.43343
SMILES: O(C6COC(C7O)OC(CO)C(C(O)7)O)C(C(O)C(C6O)OC(O5)C(O)C(C(O)C5CO)O)OCC(O1)C(O)C(OC(O4)C(O)C(O)C(O)C(CO)4)C(O)C1OC(C3O)C(OC(C(NC(C)=O)3)OC(C(O)2)C(OC(O)C(NC(C)=O)2)CO)CO
InChI: InChI=1S/C46H78N2O36/c1-10(54)47-19-26(61)36(15(6-52)74-40(19)71)81-41-20(48-11(2)55)27(62)37(16(7-53)78-41)82-46-35(70)39(84-45-33(68)30(65)23(58)14(5-51)77-45)25(60)18(80-46)9-73-43-34(69)38(83-44-32(67)29(64)22(57)13(4-50)76-44)24(59)17(79-43)8-72-42-31(66)28(63)21(56)12(3-49)75-42/h12-46,49-53,56-71H,3-9H2,1-2H3,(H,47,54)(H,48,55)/t12-,13-,14-,15-,16-,17-,18-,19-,20-,21-,22-,23-,24-,25-,26-,27-,28+,29+,30+,31+,32+,33+,34+,35+,36-,37-,38+,39+,40-,41+,42+,43+,44-,45-,46+/m1/s1
Instrument: 2695 HPLC Quadro Micro API, Waters
Instrument type: LC-ESI-QQ
Ms type: MS2
Ion mode: POSITIVE
Collision energy: 35.0 V
Ionization: ESI
Column name: TSK-GEL Amide-80 2.0 mm X 250 mm (TOSOH)
Retention time: 25.433 min
Derivative form: C55H89N3O37
Derivative mass: 1383.51749
Derivative type: ABEE (p-Aminobenzoic acid ethyl ester)
Precursor m/z: 1383.80
Precursor type: [M+H]+
m/z	relative intensity
324.8	179
365.1	88
365.7	629
366.4	67
367.4	24
370.0	89
370.7	999
371.4	264
372.2	22
486.7	37
526.9	137
527.6	529
528.2	116
533.1	39
572.8	106
573.5	430
574.2	180
688.3	20
688.9	173
689.7	334
690.6	94
735.1	71
736.0	104
850.7	387
851.6	729
852.4	172
853.3	42
896.4	45
897.0	269
898.0	201
898.8	40
1012.1	116
1012.8	605
1013.7	943
1014.5	174
1015.2	42
1058.7	150
1059.8	193
1060.5	41
1061.6	116
1219.7	22
1220.4	97
1221.2	197
1222.0	232
1222.8	72
1381.5	51
1382.5	174
1383.1	51
1383.9	142
