Mass spectrum: Gal2GlcNAc2Man3GlcNAcFucGlcNAc; LC-ESI-QQ; MS2; CE:40V; Amide
Name: Gal2GlcNAc2Man3GlcNAcFucGlcNAc
Name: Gal-beta-1-4GlcNAc-beta-1-2Man-alpha-1-6(Gal-beta-1-4GlcNAc-beta-1-2Man-alpha-1-3)Man-beta-1-4GlcNAc-beta-1-4(Fuc-alpha-1-6)GlcNAc
Class: Natural Product; Oligosaccharide; N-linked glycan; Complex type
Formula: C68H114N4O50
Exact mass: 1786.65008
SMILES: OCC(C(O)1)OC(OCC(O4)C(O)C(OC(C8OC(O9)C(NC(C)=O)C(C(OC(O%10)C(O)C(O)C(O)C(CO)%10)C9CO)O)OC(C(C8O)O)CO)C(C4OC(C(CO)5)C(O)C(NC(C)=O)C(OC(C6COC(O7)C(C(C(C(C)7)O)O)O)C(C(C(O6)O)NC(C)=O)O)O5)O)C(OC(O3)C(NC(C)=O)C(O)C(C(CO)3)OC(C2O)OC(C(C2O)O)CO)C1O
InChI: InChI=1S/C68H114N4O50/c1-15-33(84)43(94)48(99)63(106-15)104-14-28-55(39(90)29(59(103)107-28)69-16(2)80)116-60-30(70-17(3)81)40(91)54(26(12-79)112-60)119-66-51(102)56(120-68-58(47(98)37(88)23(9-76)111-68)122-62-32(72-19(5)83)42(93)53(25(11-78)114-62)118-65-50(101)45(96)35(86)21(7-74)109-65)38(89)27(115-66)13-105-67-57(46(97)36(87)22(8-75)110-67)121-61-31(71-18(4)82)41(92)52(24(10-77)113-61)117-64-49(100)44(95)34(85)20(6-73)108-64/h15,20-68,73-79,84-103H,6-14H2,1-5H3,(H,69,80)(H,70,81)(H,71,82)(H,72,83)/t15-,20+,21+,22+,23+,24+,25+,26+,27+,28+,29+,30+,31+,32+,33+,34-,35-,36+,37+,38+,39+,40+,41+,42+,43+,44-,45-,46-,47-,48-,49+,50+,51-,52+,53+,54+,55+,56-,57-,58-,59+,60-,61-,62-,63+,64-,65-,66-,67-,68+/m0/s1
Instrument: 2695 HPLC Quadro Micro API, Waters
Instrument type: LC-ESI-QQ
Ms type: MS2
Ion mode: POSITIVE
Collision energy: 40.0 V
Ionization: ESI
Column name: TSK-GEL Amide-80 2.0 mm X 250 mm (TOSOH)
Retention time: 34.882 min
Derivative form: C77H125N5O51
Derivative mass: 1935.73414
Derivative type: ABEE (p-Aminobenzoic acid ethyl ester)
Precursor m/z: 1936.00
Precursor type: [M+H]+
m/z	relative intensity
365.1	247
365.8	999
366.6	39
370.9	32
372.3	36
511.9	46
517.0	53
526.9	48
527.8	196
532.4	46
573.4	102
574.1	43
673.6	44
688.4	39
689.6	128
690.5	54
693.8	35
707.7	36
719.4	32
720.1	43
734.6	90
735.5	52
881.2	36
882.9	51
891.5	41
892.2	64
892.9	88
896.6	40
897.9	55
998.5	44
1014.4	50
1038.4	79
1042.8	143
1043.9	154
1044.9	96
1052.6	49
1053.5	76
1054.4	135
1055.4	130
1058.8	38
1059.9	77
1204.6	153
1205.7	298
1206.4	91
1207.3	83
1367.8	52
1407.7	72
1408.6	152
1410.1	75
1417.9	34
1418.5	71
1419.3	149
1420.6	132
1421.3	56
1422.6	30
1424.1	85
1425.0	148
1426.1	32
1568.4	184
1569.0	49
1569.7	561
1570.5	444
1571.3	556
1572.3	160
1573.0	39
1591.2	43
1772.4	49
1788.7	44
1933.3	55
1933.9	143
1934.9	206
1935.8	72
1936.6	165
1937.4	33
