Mass spectrum: Man6GlcNAc2-I; LC-ESI-QQ; MS2; CE:25V; Amide
Name: Man6GlcNAc2-I
Name: Man-alpha-1-6(Man-alpha-1-3)Man-alpha-1-6(Man-alpha-1-2Man-alpha-1-3)Man-beta-1-4GlcNAc-beta-1-4GlcNAc
Class: Natural Product; Oligosaccharide; N-linked glycan; High-mannose type
Formula: C52H88N2O41
Exact mass: 1396.48625
SMILES: C(O1)(OCC(O2)C(O)C(OC(C8O)OC(C(C8O)O)CO)C(C2OCC(C(O)5)OC(C(C5OC(O7)C(C(O)C(O)C(CO)7)OC(C(O)6)OC(C(O)C6O)CO)O)OC(C(O)3)C(CO)OC(OC(C4O)C(CO)OC(C4NC(C)=O)O)C3NC(C)=O)O)C(O)C(O)C(O)C1CO
InChI: InChI=1S/C52H88N2O41/c1-11(61)53-21-29(69)40(17(7-59)83-45(21)80)91-46-22(54-12(2)62)30(70)41(18(8-60)88-46)92-51-39(79)43(94-52-44(34(74)26(66)16(6-58)87-52)95-50-37(77)33(73)25(65)15(5-57)86-50)28(68)20(90-51)10-82-48-38(78)42(93-49-36(76)32(72)24(64)14(4-56)85-49)27(67)19(89-48)9-81-47-35(75)31(71)23(63)13(3-55)84-47/h13-52,55-60,63-80H,3-10H2,1-2H3,(H,53,61)(H,54,62)/t13-,14-,15-,16-,17-,18-,19-,20-,21-,22-,23-,24-,25-,26-,27-,28-,29-,30-,31+,32+,33+,34+,35+,36+,37+,38+,39+,40-,41-,42+,43+,44+,45-,46+,47+,48+,49-,50-,51+,52-/m1/s1
Instrument: 2695 HPLC Quadro Micro API, Waters
Instrument type: LC-ESI-QQ
Ms type: MS2
Ion mode: POSITIVE
Collision energy: 25.0 V
Ionization: ESI
Column name: TSK-GEL Amide-80 2.0 mm X 250 mm (TOSOH)
Retention time: 30.589 min
Derivative form: C61H99N3O42
Derivative mass: 1545.57031
Derivative type: ABEE (p-Aminobenzoic acid ethyl ester)
Precursor m/z: 1546.20
Precursor type: [M+H]+
m/z	relative intensity
324.9	11
365.3	18
366.2	23
370.2	15
370.9	40
572.9	14
573.7	28
689.3	22
690.1	11
850.9	18
851.7	15
852.6	17
1012.4	21
1013.9	32
1014.7	16
1060.0	22
1174.0	13
1174.8	52
1175.8	131
1176.7	62
1177.4	14
1221.3	36
1222.8	21
1382.3	49
1382.9	11
1383.5	112
1384.4	119
1385.2	23
1543.1	26
1543.9	213
1544.6	634
1545.5	999
1546.5	853
1547.3	258
1548.1	17
