Mass spectrum: rebaudioside I; LC-ESI-QQ; MS2; CE:60V; [M-H]-
Name: rebaudioside I
Class: Natural Product; Steviol glycoside
Formula: C50H80O28
Exact mass: 1128.48361
SMILES: C(C(OC(C9O)OC(C(C(O)9)O)CO)1)(C(OC(C(C8)(C)C(C(C)(CC8)2)([H])CCC(C7)(C3)C2([H])CCC3(C(=C)7)OC(O5)C(C(OC(C6O)OC(CO)C(C6O)O)C(O)C5CO)OC(O4)C(O)C(C(O)C(CO)4)O)=O)OC(C1O)CO)O
InChI: InChI=1S/C50H80O28/c1-18-11-49-9-5-24-47(2,7-4-8-48(24,3)46(68)77-44-37(67)38(29(59)22(15-54)72-44)74-41-34(64)31(61)26(56)19(12-51)69-41)25(49)6-10-50(18,17-49)78-45-40(76-43-36(66)33(63)28(58)21(14-53)71-43)39(30(60)23(16-55)73-45)75-42-35(65)32(62)27(57)20(13-52)70-42/h19-45,51-67H,1,4-17H2,2-3H3/t19-,20-,21-,22-,23-,24+,25+,26-,27-,28-,29-,30-,31+,32+,33+,34-,35-,36-,37-,38+,39+,40-,41+,42+,43+,44+,45+,47-,48-,49-,50+/m1/s1
Instrument: 2695 HPLC Quadro Micro API, Waters
Instrument type: LC-ESI-QQ
Ms type: MS2
Ion mode: NEGATIVE
Collision energy: 60.0 V
Ionization: ESI
Column name: TSK-GEL Amide-80 2.0 mm X 250 mm (TOSOH)
Retention time: 23.568 min
Precursor m/z: 1127.00
Precursor type: [M-H]-
m/z	relative intensity
317.3	15
413.2	10
640.5	46
641.4	113
801.9	38
802.6	458
803.5	999
804.2	115
