Mass spectrum: rebaudioside M; LC-ESI-QQ; MS2; CE:60V; [M-H]-
Name: rebaudioside M
Class: Natural Product; Steviol glycoside
Formula: C56H90O33
Exact mass: 1290.53644
SMILES: C(C%10CO)(C(C(C(O%10)OC(C(C)(C9)C(C(C)3CC9)(CCC(C4)(C5)C3(CCC4(OC(O7)C(OC(C8O)OC(CO)C(C(O)8)O)C(C(C7CO)O)OC(O6)C(O)C(C(C(CO)6)O)O)C5=C)[H])[H])=O)OC(O2)C(C(C(C2CO)O)O)O)OC(O1)C(C(O)C(O)C(CO)1)O)O
InChI: InChI=1S/C56H90O33/c1-19-11-55-9-5-26-53(2,7-4-8-54(26,3)52(77)88-50-44(86-48-40(75)36(71)30(65)22(14-59)80-48)42(32(67)24(16-61)82-50)84-46-38(73)34(69)28(63)20(12-57)78-46)27(55)6-10-56(19,18-55)89-51-45(87-49-41(76)37(72)31(66)23(15-60)81-49)43(33(68)25(17-62)83-51)85-47-39(74)35(70)29(64)21(13-58)79-47/h20-51,57-76H,1,4-18H2,2-3H3/t20-,21-,22-,23-,24-,25-,26+,27+,28-,29-,30-,31-,32-,33-,34+,35+,36+,37+,38-,39-,40-,41-,42+,43+,44-,45-,46+,47+,48+,49+,50+,51+,53-,54-,55-,56+/m1/s1
Instrument: 2695 HPLC Quadro Micro API, Waters
Instrument type: LC-ESI-QQ
Ms type: MS2
Ion mode: NEGATIVE
Collision energy: 60.0 V
Ionization: ESI
Column name: TSK-GEL Amide-80 2.0 mm X 250 mm (TOSOH)
Retention time: 29.453 min
Precursor m/z: 1289.00
Precursor type: [M-H]-
m/z	relative intensity
317.3	13
623.3	13
640.6	46
641.4	137
802.4	420
803.3	999
803.9	172
845.4	19
1126.5	18
1127.4	23
1128.3	20
1287.6	23
1288.3	92
1289.3	75
1290.1	108
1290.8	12
