Mass spectrum: GalNAcFucGlcNAcGA-I; LC-ESI-QQ; MS2; CE:20V; [M+H]+
Name: GalNAcFucGlcNAcGA-I
Name: GalNAc-alpha-1-2Fuc-alpha-1-3GlcNAc-beta-1-2GA (GA, glycolaldehyde)
Class: Natural Product; Oligosaccharide; O-linked glycan
Formula: C24H40N2O16
Exact mass: 612.23778
SMILES: O=CCOC(O1)C(NC(C)=O)C(OC(O2)C(OC(O3)C(NC(C)=O)C(O)C(O)C(CO)3)C(O)C(O)C(C)2)C(O)C(CO)1
InChI: InChI=1S/C24H40N2O16/c1-8-15(32)19(36)21(42-23-13(25-9(2)30)18(35)16(33)11(6-28)40-23)24(38-8)41-20-14(26-10(3)31)22(37-5-4-27)39-12(7-29)17(20)34/h4,8,11-24,28-29,32-36H,5-7H2,1-3H3,(H,25,30)(H,26,31)/t8-,11+,12+,13+,14+,15+,16-,17+,18+,19+,20+,21-,22+,23+,24-/m1/s1
Instrument: 2695 HPLC Quadro Micro API, Waters
Instrument type: LC-ESI-QQ
Ms type: MS2
Ion mode: POSITIVE
Collision energy: 20.0 V
Ionization: ESI
Column name: TSK-GEL Amide-80 2.0 mm X 250 mm (TOSOH)
Retention time: 8.783 min
Derivative form: C33H51N3O17
Derivative mass: 761.32185
Derivative type: ABEE (p-Aminobenzoic acid ethyl ester)
Precursor m/z: 762.00
Precursor type: [M+H]+
m/z	relative intensity
203.3	66
203.9	884
204.5	25
209.3	21
210.0	179
269.7	19
287.9	11
289.8	11
314.0	15
318.1	21
331.1	34
331.8	239
332.4	26
334.9	16
349.2	80
349.8	340
350.4	26
351.4	11
355.6	69
356.3	20
366.0	80
366.7	925
367.4	116
368.0	19
384.3	13
394.4	128
395.1	60
406.3	12
412.0	97
412.6	999
413.2	174
414.1	26
512.1	58
513.0	40
540.1	36
540.8	63
551.8	23
552.5	96
553.2	28
557.8	114
558.6	435
559.3	59
569.8	20
714.9	13
716.1	17
760.9	46
761.9	101
762.6	10
