Mass spectrum: Man5GlcNAc-VI; LC-ESI-QQ; MS2; CE:30V; Amide
Name: Man5GlcNAc-VI
Name: Man-alpha-1-6(Man-alpha-1-2Man-alpha-1-2Man-alpha-1-3)Man-beta-1-4GlcNAc
Class: Natural Product; Oligosaccharide; N-linked glycan; High-mannose type
Formula: C38H65NO31
Exact mass: 1031.35405
SMILES: CC(=O)N[C@@H]1[C@H]([C@@H]([C@H](O[C@H]1O)CO)O[C@H]2[C@H]([C@H]([C@@H]([C@H](O2)CO[C@@H]3[C@H]([C@H]([C@@H]([C@H](O3)CO)O)O)O)O)O[C@@H]4[C@H]([C@H]([C@@H]([C@H](O4)CO)O)O)O[C@@H]5[C@H]([C@H]([C@@H]([C@H](O5)CO)O)O)O[C@@H]6[C@H]([C@H]([C@@H]([C@H](O6)CO)O)O)O)O)O
InChI: InChI=1S/C38H65NO31/c1-8(45)39-15-21(51)29(13(6-44)61-33(15)59)67-36-28(58)30(20(50)14(66-36)7-60-34-26(56)22(52)16(46)9(2-40)62-34)68-37-32(25(55)19(49)11(4-42)64-37)70-38-31(24(54)18(48)12(5-43)65-38)69-35-27(57)23(53)17(47)10(3-41)63-35/h9-38,40-44,46-59H,2-7H2,1H3,(H,39,45)/t9-,10-,11-,12-,13-,14-,15-,16-,17-,18-,19-,20-,21-,22+,23+,24+,25+,26+,27+,28+,29-,30+,31+,32+,33-,34+,35-,36+,37-,38-/m1/s1
Instrument: 2695 HPLC Quadro Micro API, Waters
Instrument type: LC-ESI-QQ
Ms type: MS2
Ion mode: POSITIVE
Collision energy: 30.0 V
Ionization: ESI
Column name: TSK-GEL Amide-80 2.0 mm X 250 mm (TOSOH)
Retention time: 20.594 min
Derivative form: C47H76N2O32
Derivative mass: 1180.43812
Derivative type: ABEE (p-Aminobenzoic acid ethyl ester)
Precursor m/z: 1181.02
Precursor type: [M+H]+
m/z	relative intensity
370.3	87
370.8	999
371.6	228
372.4	84
532.1	120
532.9	442
533.7	125
694.6	157
695.6	148
856.2	228
857.2	372
858.0	140
1017.9	93
1018.9	147
1019.8	112
1179.6	68
1180.4	204
1181.3	277
1182.1	132
