Mass spectrum: GlcNAcMan4GlcNAcManGlcNAc2; LC-ESI-QQ; MS2; CE:25V; Amide
Name: GlcNAcMan4GlcNAcManGlcNAc2
Name: Man-alpha-1-6(Man-alpha-1-3)Man-alpha-1-6(GlcNAc-beta-1-4)(GlcNAc-beta-1-2Man-alpha-1-3)Man-beta-1-4GlcNAc-beta-1-4GlcNAc
Class: Natural Product; Oligosaccharide; N-linked glycan; Hybrid type
Formula: C62H104N4O46
Exact mass: 1640.59217
SMILES: C(O1)(CO)C(C(O)C(C1OCC(C2O)OC(OCC(C4OC(C(NC(C)=O)9)OC(C(C9O)O)CO)OC(OC(C(CO)8)C(C(C(O8)OC(C(O)7)C(CO)OC(O)C7NC(C)=O)NC(C)=O)O)C(C4OC(O6)C(C(C(O)C(CO)6)O)OC(O5)C(C(O)C(C5CO)O)NC(C)=O)O)C(C(OC(C(O)3)OC(C(C(O)3)O)CO)2)O)O)O
InChI: InChI=1S/C62H104N4O46/c1-14(74)63-27-39(86)48(23(10-72)98-54(27)95)107-57-30(66-17(4)77)40(87)49(24(11-73)104-57)108-61-47(94)52(111-62-53(43(90)35(82)22(9-71)103-62)112-56-29(65-16(3)76)38(85)32(79)19(6-68)100-56)50(109-55-28(64-15(2)75)37(84)31(78)18(5-67)99-55)26(106-61)13-97-59-46(93)51(110-60-45(92)42(89)34(81)21(8-70)102-60)36(83)25(105-59)12-96-58-44(91)41(88)33(80)20(7-69)101-58/h18-62,67-73,78-95H,5-13H2,1-4H3,(H,63,74)(H,64,75)(H,65,76)(H,66,77)/t18-,19-,20-,21-,22-,23-,24-,25-,26-,27-,28-,29-,30-,31-,32-,33-,34-,35-,36-,37-,38-,39-,40-,41+,42+,43+,44+,45+,46+,47+,48-,49-,50-,51+,52-,53+,54-,55+,56+,57+,58+,59+,60-,61+,62-/m1/s1
Instrument: 2695 HPLC Quadro Micro API, Waters
Instrument type: LC-ESI-QQ
Ms type: MS2
Ion mode: POSITIVE
Collision energy: 25.0 V
Ionization: ESI
Column name: TSK-GEL Amide-80 2.0 mm X 250 mm (TOSOH)
Retention time: 30.921 min
Derivative form: C71H115N5O47
Derivative mass: 1789.67624
Derivative type: ABEE (p-Aminobenzoic acid ethyl ester)
Precursor m/z: 1790.00
Precursor type: [M+H]+
m/z	relative intensity
370.3	20
528.0	37
569.2	21
573.3	85
574.1	33
735.6	27
891.9	59
897.1	36
1054.5	22
1055.5	26
1215.7	35
1217.3	24
1218.3	20
1259.6	25
1263.2	57
1302.8	25
1418.1	45
1419.0	61
1419.9	152
1421.0	44
1423.3	21
1424.3	115
1425.6	60
1584.5	38
1585.3	22
1586.1	96
1586.9	112
1587.6	53
1626.5	25
1628.1	56
1786.8	21
1787.5	330
1788.5	785
1789.2	152
1789.8	999
1790.6	488
1791.4	191
1792.1	22
