Mass spectrum: GlcNAc2Man2GlcNAcManGlcNAcFucGlcNAc; LC-ESI-QQ; MS2; CE:25V; Amide
Name: GlcNAc2Man2GlcNAcManGlcNAcFucGlcNAc
Name: GlcNAc-beta-1-2Man-alpha-1-6(GlcNAc-beta-1-4)(GlcNAc-beta-1-2Man-alpha-1-3)Man-beta-1-4GlcNAc-beta-1-4(Fuc-alpha-1-6)GlcNAc
Class: Natural Product; Oligosaccharide; N-linked glycan; Complex type
Formula: C64H107N5O45
Exact mass: 1665.62381
SMILES: C(C1O)(C(OC(C8COC(C9O)OC(C(O)C9O)C)C(C(NC(C)=O)C(O)O8)O)OC(CO)C1OC(C(O)4)OC(C(OC(O7)C(NC(C)=O)C(O)C(C(CO)7)O)C(OC(O5)C(OC(C6NC(C)=O)OC(C(C6O)O)CO)C(O)C(O)C5CO)4)COC(O2)C(OC(O3)C(C(C(C3CO)O)O)NC(C)=O)C(O)C(C2CO)O)NC(C)=O
InChI: InChI=1S/C64H107N5O45/c1-15-34(81)45(92)48(95)61(100-15)98-13-27-51(43(90)29(56(97)101-27)65-16(2)76)109-60-33(69-20(6)80)44(91)50(26(12-75)107-60)110-62-49(96)53(112-64-55(47(94)39(86)25(11-74)106-64)114-59-32(68-19(5)79)42(89)37(84)23(9-72)104-59)52(111-57-30(66-17(3)77)40(87)35(82)21(7-70)102-57)28(108-62)14-99-63-54(46(93)38(85)24(10-73)105-63)113-58-31(67-18(4)78)41(88)36(83)22(8-71)103-58/h15,21-64,70-75,81-97H,7-14H2,1-6H3,(H,65,76)(H,66,77)(H,67,78)(H,68,79)(H,69,80)/t15-,21+,22+,23+,24+,25+,26+,27+,28+,29+,30+,31+,32+,33+,34+,35+,36+,37+,38+,39+,40+,41+,42+,43+,44+,45+,46-,47-,48-,49-,50+,51+,52+,53+,54-,55-,56+,57-,58-,59-,60-,61+,62-,63-,64+/m0/s1
Instrument: 2695 HPLC Quadro Micro API, Waters
Instrument type: LC-ESI-QQ
Ms type: MS2
Ion mode: POSITIVE
Collision energy: 25.0 V
Ionization: ESI
Column name: TSK-GEL Amide-80 2.0 mm X 250 mm (TOSOH)
Retention time: 26.955 min
Derivative form: C73H118N6O46
Derivative mass: 1814.70787
Derivative type: ABEE (p-Aminobenzoic acid ethyl ester)
Precursor m/z: 1816.00
Precursor type: [M+H]+
m/z	relative intensity
365.0	30
370.8	11
516.7	16
533.1	16
546.0	26
568.0	43
572.2	13
574.6	11
720.3	20
730.9	11
734.8	11
892.4	12
893.2	10
933.7	28
938.9	44
1084.6	41
1094.0	20
1095.0	50
1096.2	45
1242.1	11
1244.9	10
1246.9	22
1290.8	10
1297.8	27
1298.5	23
1299.1	28
1364.9	16
1406.6	16
1407.4	37
1408.2	84
1409.5	56
1410.3	19
1449.5	17
1465.8	26
1592.9	12
1608.9	11
1609.6	126
1610.4	135
1611.3	324
1612.0	160
1612.6	206
1667.6	15
1741.2	20
1787.5	20
1810.4	18
1811.7	118
1812.3	14
1812.9	399
1813.6	183
1814.3	999
1815.3	585
1816.2	252
1817.0	23
1836.2	14
