Mass spectrum: GalGlcNAc2Man3GlcNAc2-I; LC-ESI-QQ; MS2; CE:25V; Amide
Name: GalGlcNAc2Man3GlcNAc2-I
Name: Gal-beta-1-4GlcNAc-beta-1-2Man-alpha-1-6(GlcNAc-beta-1-2Man-alpha-1-3)Man-beta-1-4GlcNAc-beta-1-4GlcNAc
Class: Natural Product; Oligosaccharide; N-linked glycan; Complex type
Formula: C56H94N4O41
Exact mass: 1478.53935
SMILES: C(C1NC(C)=O)(C(OC(C(NC(C)=O)8)OC(C(C(O)8)OC(O4)C(C(C(O)C(COC(O5)C(OC(O7)C(NC(C)=O)C(C(C7CO)OC(C6O)OC(C(C6O)O)CO)O)C(C(C(CO)5)O)O)4)OC(C2OC(O3)C(NC(C)=O)C(C(O)C(CO)3)O)OC(CO)C(C(O)2)O)O)CO)C(CO)OC1O)O
InChI: InChI=1S/C56H94N4O41/c1-13(68)57-25-35(78)43(21(9-65)88-49(25)86)96-51-27(59-15(3)70)36(79)45(23(11-67)93-51)98-54-42(85)46(99-56-48(40(83)32(75)20(8-64)92-56)101-50-26(58-14(2)69)34(77)29(72)17(5-61)89-50)33(76)24(95-54)12-87-55-47(39(82)31(74)19(7-63)91-55)100-52-28(60-16(4)71)37(80)44(22(10-66)94-52)97-53-41(84)38(81)30(73)18(6-62)90-53/h17-56,61-67,72-86H,5-12H2,1-4H3,(H,57,68)(H,58,69)(H,59,70)(H,60,71)/t17-,18-,19-,20-,21-,22-,23-,24-,25-,26-,27-,28-,29-,30+,31-,32-,33-,34-,35-,36-,37-,38+,39+,40+,41-,42+,43-,44-,45-,46+,47+,48+,49-,50+,51+,52+,53+,54+,55+,56-/m1/s1
Instrument: 2695 HPLC Quadro Micro API, Waters
Instrument type: LC-ESI-QQ
Ms type: MS2
Ion mode: POSITIVE
Collision energy: 25 V
Ionization: ESI
Column name: TSK-GEL Amide-80 2.0 mm X 250 mm (TOSOH)
Retention time: 26.231 min
Derivative form: C65H105N5O42
Derivative mass: 1627.62341
Derivative type: ABEE (p-Aminobenzoic acid ethyl ester)
Precursor m/z: 1629.00
Precursor type: [M+H]+
m/z	relative intensity
365.2	34
365.9	97
366.7	22
370.7	12
528.7	13
573.3	24
574.1	26
689.7	26
710.2	11
892.1	22
893.3	28
897.4	16
1059.2	41
1060.1	24
1073.9	13
1100.0	31
1100.9	43
1256.1	12
1256.8	29
1257.6	111
1258.3	36
1259.3	14
1260.9	57
1261.7	212
1262.6	213
1263.2	37
1263.7	195
1264.6	29
1423.9	33
1425.1	86
1470.6	10
1624.5	36
1625.4	101
1626.2	436
1627.0	999
1627.6	132
1628.2	558
1629.0	214
1629.6	25
