Mass spectrum: Gal2GlcNAc2Man3GlcNAcFucGlcNAc; LC-ESI-QQ; MS2; CE:20V; Amide
Name: Gal2GlcNAc2Man3GlcNAcFucGlcNAc
Name: Gal-beta-1-4GlcNAc-beta-1-2Man-alpha-1-6(Gal-beta-1-4GlcNAc-beta-1-2Man-alpha-1-3)Man-beta-1-4GlcNAc-beta-1-4(Fuc-alpha-1-6)GlcNAc
Class: Natural Product; Oligosaccharide; N-linked glycan; Complex type
Formula: C68H114N4O50
Exact mass: 1786.65008
SMILES: OCC(C(O)1)OC(OCC(O4)C(O)C(OC(C8OC(O9)C(NC(C)=O)C(C(OC(O%10)C(O)C(O)C(O)C(CO)%10)C9CO)O)OC(C(C8O)O)CO)C(C4OC(C(CO)5)C(O)C(NC(C)=O)C(OC(C6COC(O7)C(C(C(C(C)7)O)O)O)C(C(C(O6)O)NC(C)=O)O)O5)O)C(OC(O3)C(NC(C)=O)C(O)C(C(CO)3)OC(C2O)OC(C(C2O)O)CO)C1O
InChI: InChI=1S/C68H114N4O50/c1-15-33(84)43(94)48(99)63(106-15)104-14-28-55(39(90)29(59(103)107-28)69-16(2)80)116-60-30(70-17(3)81)40(91)54(26(12-79)112-60)119-66-51(102)56(120-68-58(47(98)37(88)23(9-76)111-68)122-62-32(72-19(5)83)42(93)53(25(11-78)114-62)118-65-50(101)45(96)35(86)21(7-74)109-65)38(89)27(115-66)13-105-67-57(46(97)36(87)22(8-75)110-67)121-61-31(71-18(4)82)41(92)52(24(10-77)113-61)117-64-49(100)44(95)34(85)20(6-73)108-64/h15,20-68,73-79,84-103H,6-14H2,1-5H3,(H,69,80)(H,70,81)(H,71,82)(H,72,83)/t15-,20+,21+,22+,23+,24+,25+,26+,27+,28+,29+,30+,31+,32+,33+,34-,35-,36+,37+,38+,39+,40+,41+,42+,43+,44-,45-,46-,47-,48-,49+,50+,51-,52+,53+,54+,55+,56-,57-,58-,59+,60-,61-,62-,63+,64-,65-,66-,67-,68+/m0/s1
Instrument: 2695 HPLC Quadro Micro API, Waters
Instrument type: LC-ESI-QQ
Ms type: MS2
Ion mode: POSITIVE
Collision energy: 20.0 V
Ionization: ESI
Column name: TSK-GEL Amide-80 2.0 mm X 250 mm (TOSOH)
Retention time: 34.991 min
Derivative form: C77H125N5O51
Derivative mass: 1935.73414
Derivative type: ABEE (p-Aminobenzoic acid ethyl ester)
Precursor m/z: 1936.00
Precursor type: [M+H]+
m/z	relative intensity
365.5	51
512.1	10
1045.3	12
1055.2	13
1060.1	11
1204.5	16
1418.1	17
1419.1	15
1421.4	10
1568.7	33
1569.6	93
1570.7	156
1571.5	18
1572.3	56
1774.7	10
1923.9	16
1933.0	72
1933.6	356
1934.4	520
1935.3	804
1935.8	81
1936.4	999
1937.2	444
1938.0	101
1938.6	22
