Mass spectrum: FucGlcNAcThrNAc; LC-ESI-QQ; MS2; CE:20V; [M+H]+
Name: FucGlcNAcThrNAc
Name: Fuc-alpha-1-3GlcNAc-beta-1-2ThrNAc (ThrNAc, 3-acetamido-3-deoxythreose)
Class: Natural Product; Oligosaccharide; O-linked glycan
Formula: C20H34N2O13
Exact mass: 510.20609
SMILES: CC(=O)NC([H])(CO)C([H])(C=O)OC(O1)C(NC(C)=O)C(OC(O2)C(O)C(O)C(O)C(C)2)C(O)C(CO)1
InChI: InChI=1S/C20H34N2O13/c1-7-14(28)16(30)17(31)20(32-7)35-18-13(22-9(3)27)19(34-12(6-25)15(18)29)33-11(5-24)10(4-23)21-8(2)26/h5,7,10-20,23,25,28-31H,4,6H2,1-3H3,(H,21,26)(H,22,27)/t7-,10-,11-,12+,13+,14+,15+,16+,17-,18+,19+,20-/m0/s1
Instrument: 2695 HPLC Quadro Micro API, Waters
Instrument type: LC-ESI-QQ
Ms type: MS2
Ion mode: POSITIVE
Collision energy: 20.0 V
Ionization: ESI
Column name: TSK-GEL Amide-80 2.0 mm X 250 mm (TOSOH)
Retention time: 7.555 min
Derivative form: C29H45N3O14
Derivative mass: 659.29015
Derivative type: ABEE (p-Aminobenzoic acid ethyl ester)
Precursor m/z: 660.00
Precursor type: [M+H]+
m/z	relative intensity
203.3	76
203.9	999
204.5	28
264.8	167
265.4	20
292.7	14
310.2	65
310.9	824
311.5	27
312.3	10
349.1	60
349.7	300
350.4	29
410.6	11
456.2	42
457.0	48
461.0	11
467.5	117
468.2	22
512.9	123
513.6	319
514.3	47
612.8	21
613.8	35
658.9	42
659.8	85
660.7	12
