Mass spectrum: rebaudioside E; LC-ESI-QQ; MS2; CE:20V; [M-H]-
Name: rebaudioside E
Class: Natural Product; Steviol glycoside
Formula: C44H70O23
Exact mass: 966.43079
SMILES: C(O)C(C1O)OC(OC(C8O)C(OC(CO)C(O)8)OC(C2)(C3)C(CC2(C4)C(C(C5)(C(C(C(OC(C(OC(C7O)OC(C(C(O)7)O)CO)6)OC(CO)C(C6O)O)=O)(CC5)C)(C4)[H])C)([H])C3)=C)C(C1O)O
InChI: InChI=1S/C44H70O23/c1-17-11-43-9-5-22-41(2,7-4-8-42(22,3)40(59)66-38-34(30(55)26(51)20(14-47)62-38)64-36-32(57)28(53)24(49)18(12-45)60-36)23(43)6-10-44(17,16-43)67-39-35(31(56)27(52)21(15-48)63-39)65-37-33(58)29(54)25(50)19(13-46)61-37/h18-39,45-58H,1,4-16H2,2-3H3/t18-,19-,20-,21-,22+,23+,24-,25-,26-,27-,28+,29+,30+,31+,32-,33-,34-,35-,36+,37+,38+,39+,41-,42-,43-,44+/m1/s1
Instrument: 2695 HPLC Quadro Micro API, Waters
Instrument type: LC-ESI-QQ
Ms type: MS2
Ion mode: NEGATIVE
Collision energy: 20.0 V
Ionization: ESI
Column name: TSK-GEL Amide-80 2.0 mm X 250 mm (TOSOH)
Retention time: 23.763 min
Precursor m/z: 965.00
Precursor type: [M-H]-
m/z	relative intensity
640.9	49
641.6	17
802.5	26
803.4	54
804.1	33
964.1	270
964.8	536
965.7	999
966.3	79
