Mass spectrum: GalGlcNAc2Man2GlcNAcManGlcNAc2-I; LC-ESI-QQ; MS2; CE:35V; Amide
Name: GalGlcNAc2Man2GlcNAcManGlcNAc2-I
Name: Gal-beta-1-4GlcNAc-beta-1-2Man-alpha-1-6(GlcNAc-beta-1-4)(GlcNAc-beta-1-2Man-alpha-1-3)Man-beta-1-4GlcNAc-beta-1-4GlcNAc
Class: Natural Product; Oligosaccharide; N-linked glycan; Complex type
Formula: C64H107N5O46
Exact mass: 1681.61872
SMILES: C(OC(C9NC(C)=O)OC(C(C9O)O)CO)(C6OC(O8)C(C(O)C(C8CO)O)OC(C7NC(C)=O)OC(C(C(O)7)O)CO)C(OC(C6O)OC(C4O)C(CO)OC(OC(C5CO)C(O)C(C(O)O5)NC(C)=O)C4NC(C)=O)COC(O1)C(OC(O3)C(C(O)C(C(CO)3)OC(C(O)2)OC(C(C2O)O)CO)NC(C)=O)C(O)C(C1CO)O
InChI: InChI=1S/C64H107N5O46/c1-15(78)65-29-41(90)49(25(11-75)100-56(29)98)109-59-32(68-18(4)81)42(91)51(27(13-77)106-59)111-62-48(97)53(113-64-55(46(95)38(87)24(10-74)105-64)115-58-31(67-17(3)80)40(89)35(84)21(7-71)102-58)52(112-57-30(66-16(2)79)39(88)34(83)20(6-70)101-57)28(108-62)14-99-63-54(45(94)37(86)23(9-73)104-63)114-60-33(69-19(5)82)43(92)50(26(12-76)107-60)110-61-47(96)44(93)36(85)22(8-72)103-61/h20-64,70-77,83-98H,6-14H2,1-5H3,(H,65,78)(H,66,79)(H,67,80)(H,68,81)(H,69,82)/t20-,21-,22-,23-,24-,25-,26-,27-,28-,29-,30-,31-,32-,33-,34-,35-,36+,37-,38-,39-,40-,41-,42-,43-,44+,45+,46+,47-,48+,49-,50-,51-,52-,53-,54+,55+,56-,57+,58+,59+,60+,61+,62+,63+,64-/m1/s1
Instrument: 2695 HPLC Quadro Micro API, Waters
Instrument type: LC-ESI-QQ
Ms type: MS2
Ion mode: POSITIVE
Collision energy: 35.0 V
Ionization: ESI
Column name: TSK-GEL Amide-80 2.0 mm X 250 mm (TOSOH)
Retention time: 28.875 min
Derivative form: C73H118N6O47
Derivative mass: 1830.70279
Derivative type: ABEE (p-Aminobenzoic acid ethyl ester)
Precursor m/z: 1833.00
Precursor type: [M+H]+
m/z	relative intensity
325.0	20
365.1	304
366.0	999
367.1	165
367.7	40
370.5	216
371.2	159
372.2	46
383.8	32
527.1	30
527.7	107
528.6	46
529.4	22
545.9	25
551.0	28
567.8	39
568.6	276
569.3	118
570.5	24
573.2	267
574.0	532
574.9	168
575.8	40
576.7	21
688.7	24
689.5	44
690.7	41
730.0	84
730.9	179
732.0	138
735.4	42
736.1	149
737.1	52
892.0	56
892.8	204
893.6	78
894.6	45
897.1	27
898.1	51
899.2	32
935.0	24
938.5	103
939.4	53
940.2	55
1055.2	39
1060.6	36
1094.9	120
1096.0	190
1097.1	76
1097.8	33
1099.3	27
1100.2	148
1101.0	216
1101.6	68
1102.3	162
1103.3	20
1257.8	34
1258.9	31
1260.8	30
1261.7	105
1262.6	287
1263.7	381
1264.6	110
1304.2	43
1305.1	64
1458.5	22
1459.7	81
1460.4	66
1461.1	152
1462.0	157
1462.9	71
1463.8	46
1464.5	242
1465.4	508
1466.2	280
1466.9	460
1467.9	199
1627.7	61
1629.1	38
1828.8	58
1829.6	168
1830.7	201
1831.9	140
1832.6	75
1833.5	36
