Mass spectrum: GalGlcNAc2Man2GlcNAcManGlcNAcFucGlcNAc-II; LC-ESI-QQ; MS2; CE:30V; Amide
Name: GalGlcNAc2Man2GlcNAcManGlcNAcFucGlcNAc-II
Name: GlcNAc-beta-1-2Man-alpha-1-6(GlcNAc-beta-1-4)(Gal-beta-1-4GlcNAc-beta-1-2Man-alpha-1-3)Man-beta-1-4GlcNAc-beta-1-4(Fuc-alpha-1-6)GlcNAc
Class: Natural Product; Oligosaccharide; N-linked glycan; Complex type
Formula: C70H117N5O50
Exact mass: 1827.67663
SMILES: C(OC(C2OCC(C(OC(C(NC(C)=O)%10)OC(C(O)C(O)%10)CO)3)OC(OC(C(O)9)C(OC(C(NC(C)=O)9)OC(C8O)C(OC(C8NC(C)=O)O)COC(O7)C(C(O)C(C7C)O)O)CO)C(O)C3OC(O6)C(C(O)C(C6CO)O)OC(C(NC(C)=O)5)OC(C(C(O)5)OC(O4)C(O)C(O)C(O)C4CO)CO)C(C(O)C(O2)CO)O)(O1)C(NC(C)=O)C(C(O)C(CO)1)O
InChI: InChI=1S/C70H117N5O50/c1-16-36(88)47(99)51(103)66(109-16)107-14-29-56(44(96)31(61(106)110-29)71-17(2)83)119-64-34(74-20(5)86)45(97)55(28(13-82)116-64)121-68-53(105)58(123-70-60(50(102)41(93)26(11-80)115-70)125-65-35(75-21(6)87)46(98)54(27(12-81)117-65)120-67-52(104)48(100)39(91)24(9-78)113-67)57(122-62-32(72-18(3)84)42(94)37(89)22(7-76)111-62)30(118-68)15-108-69-59(49(101)40(92)25(10-79)114-69)124-63-33(73-19(4)85)43(95)38(90)23(8-77)112-63/h16,22-70,76-82,88-106H,7-15H2,1-6H3,(H,71,83)(H,72,84)(H,73,85)(H,74,86)(H,75,87)/t16-,22+,23+,24+,25+,26+,27+,28+,29+,30+,31+,32+,33+,34+,35+,36+,37+,38+,39-,40+,41+,42+,43+,44+,45+,46+,47+,48-,49-,50-,51-,52+,53-,54+,55+,56+,57+,58+,59-,60-,61+,62-,63-,64-,65-,66+,67-,68-,69-,70+/m0/s1
Instrument: 2695 HPLC Quadro Micro API, Waters
Instrument type: LC-ESI-QQ
Ms type: MS2
Ion mode: POSITIVE
Collision energy: 30.0 V
Ionization: ESI
Column name: TSK-GEL Amide-80 2.0 mm X 250 mm (TOSOH)
Retention time: 31.336 min
Derivative form: C79H128N6O51
Derivative mass: 1976.76069
Derivative type: ABEE (p-Aminobenzoic acid ethyl ester)
Precursor m/z: 1978.00
Precursor type: [M+H]+
m/z	relative intensity
365.6	375
366.2	143
369.5	79
370.8	209
442.0	81
489.3	93
527.1	72
546.0	96
547.3	83
568.3	192
569.2	210
574.1	83
616.0	71
688.3	75
689.4	118
713.5	78
730.7	154
735.1	144
741.5	186
897.5	81
938.0	106
992.6	132
998.0	95
1034.5	80
1053.4	94
1081.2	71
1084.1	235
1099.9	103
1100.5	81
1144.9	73
1244.8	121
1246.1	96
1246.9	384
1250.7	73
1256.2	111
1258.4	117
1259.6	122
1262.4	115
1356.6	101
1373.4	83
1398.6	94
1406.4	101
1407.4	234
1408.4	227
1409.1	95
1448.4	107
1449.8	109
1460.1	120
1460.9	94
1462.2	121
1609.1	181
1609.8	170
1610.5	283
1611.3	524
1612.1	189
1613.0	431
1772.4	191
1773.7	84
1775.5	120
1811.2	105
1861.2	77
1880.5	124
1932.0	97
1972.4	74
1973.8	101
1974.7	489
1975.6	813
1976.6	999
1977.6	171
1978.9	227
