Mass spectrum: Man6GlcNAc-II; LC-ESI-QQ; MS2; CE:40V; Amide
Name: Man6GlcNAc-II
Name: Man-alpha-1-6(Man-alpha-1-3)Man-alpha-1-6(Man-alpha-1-2Man-alpha-1-3)Man-beta-1-4GlcNAc
Class: Natural Product; Oligosaccharide; N-linked glycan; High-mannose type
Formula: C44H75NO36
Exact mass: 1193.40688
SMILES: CC(=O)N[C@@H]1[C@H]([C@@H]([C@H](O[C@H]1O)CO)O[C@H]2[C@H]([C@H]([C@@H]([C@H](O2)CO[C@@H]3[C@H]([C@H]([C@@H]([C@H](O3)CO[C@@H]4[C@H]([C@H]([C@@H]([C@H](O4)CO)O)O)O)O)O[C@@H]5[C@H]([C@H]([C@@H]([C@H](O5)CO)O)O)O)O)O)O[C@@H]6[C@H]([C@H]([C@@H]([C@H](O6)CO)O)O)O[C@@H]7[C@H]([C@H]([C@@H]([C@H](O7)CO)O)O)O)O)O
InChI: InChI=1S/C44H75NO36/c1-9(51)45-17-24(58)34(14(6-50)71-38(17)68)78-43-33(67)36(80-44-37(28(62)21(55)13(5-49)75-44)81-42-31(65)27(61)20(54)12(4-48)74-42)23(57)16(77-43)8-70-40-32(66)35(79-41-30(64)26(60)19(53)11(3-47)73-41)22(56)15(76-40)7-69-39-29(63)25(59)18(52)10(2-46)72-39/h10-44,46-50,52-68H,2-8H2,1H3,(H,45,51)/t10-,11-,12-,13-,14-,15-,16-,17-,18-,19-,20-,21-,22-,23-,24-,25+,26+,27+,28+,29+,30+,31+,32+,33+,34-,35+,36+,37+,38-,39+,40+,41-,42-,43+,44-/m1/s1
Instrument: 2695 HPLC Quadro Micro API, Waters
Instrument type: LC-ESI-QQ
Ms type: MS2
Ion mode: POSITIVE
Collision energy: 40.0 V
Ionization: ESI
Column name: TSK-GEL Amide-80 2.0 mm X 250 mm (TOSOH)
Retention time: 26.740 min
Derivative form: C53H86N2O37
Derivative mass: 1342.49094
Derivative type: ABEE (p-Aminobenzoic acid ethyl ester)
Precursor m/z: 1343.30
Precursor type: [M+H]+
m/z	relative intensity
324.4	21
325.1	92
326.0	21
370.4	313
371.1	999
372.0	412
372.7	29
487.3	35
532.4	163
533.3	317
534.1	171
694.6	76
695.6	85
696.5	32
856.3	56
857.2	132
858.1	69
1018.2	22
1019.1	48
1020.2	25
1180.6	23
1181.6	31
1343.9	26
