Mass spectrum: dulcoside B; LC-ESI-QQ; MS2; CE:40V; [M-H]-
Name: dulcoside B
Class: Natural Product; Steviol glycoside
Formula: C38H60O17
Exact mass: 788.38305
SMILES: C(O)(=O)C(C)(C7)C([H])(C6(CC7)C)CCC(C1)(C([H])56)CC(C(CC5)(OC(O3)C(OC(O4)C(O)C(O)C(O)C(C)4)C(C(C3CO)O)OC(O2)C(O)C(C(O)C2CO)O)1)=C
InChI: InChI=1S/C38H60O17/c1-16-12-37-10-6-20-35(3,8-5-9-36(20,4)34(48)49)21(37)7-11-38(16,15-37)55-33-30(54-31-27(46)25(44)22(41)17(2)50-31)29(24(43)19(14-40)52-33)53-32-28(47)26(45)23(42)18(13-39)51-32/h17-33,39-47H,1,5-15H2,2-4H3,(H,48,49)/t17-,18+,19+,20-,21-,22-,23+,24+,25+,26-,27+,28+,29-,30+,31-,32-,33-,35+,36+,37+,38-/m0/s1
Instrument: 2695 HPLC Quadro Micro API, Waters
Instrument type: LC-ESI-QQ
Ms type: MS2
Ion mode: NEGATIVE
Collision energy: 40.0 V
Ionization: ESI
Column name: TSK-GEL Amide-80 2.0 mm X 250 mm (TOSOH)
Retention time: 7.270 min
Precursor m/z: 787.00
Precursor type: [M-H]-
m/z	relative intensity
317.2	19
413.2	12
478.9	20
606.3	10
607.3	22
624.3	93
625.1	200
625.7	11
640.7	40
641.5	16
785.6	10
786.3	339
787.0	999
787.8	250
788.6	29
