Mass spectrum: Man6GlcNAc-III; LC-ESI-QQ; MS2; CE:40V; ODS
Name: Man6GlcNAc-III
Name: Man-alpha-1-6(Man-alpha-1-2Man-alpha-1-3)Man-alpha-1-6(Man-alpha-1-3)Man-beta-1-4GlcNAc
Class: Natural Product; Oligosaccharide; N-linked glycan; High-mannose type
Formula: C44H75NO36
Exact mass: 1193.40688
SMILES: CC(=O)N[C@@H]1[C@H]([C@@H]([C@H](O[C@H]1O)CO)O[C@H]2[C@H]([C@H]([C@@H]([C@H](O2)CO[C@@H]3[C@H]([C@H]([C@@H]([C@H](O3)CO[C@@H]4[C@H]([C@H]([C@@H]([C@H](O4)CO)O)O)O)O)O[C@@H]5[C@H]([C@H]([C@@H]([C@H](O5)CO)O)O)O[C@@H]6[C@H]([C@H]([C@@H]([C@H](O6)CO)O)O)O)O)O)O[C@@H]7[C@H]([C@H]([C@@H]([C@H](O7)CO)O)O)O)O)O
InChI: InChI=1S/C44H75NO36/c1-9(51)45-17-24(58)34(14(6-50)71-38(17)68)78-43-33(67)36(79-41-30(64)26(60)19(53)11(3-47)73-41)23(57)16(77-43)8-70-40-32(66)35(22(56)15(76-40)7-69-39-29(63)25(59)18(52)10(2-46)72-39)80-44-37(28(62)21(55)13(5-49)75-44)81-42-31(65)27(61)20(54)12(4-48)74-42/h10-44,46-50,52-68H,2-8H2,1H3,(H,45,51)/t10-,11-,12-,13-,14-,15-,16-,17-,18-,19-,20-,21-,22-,23-,24-,25+,26+,27+,28+,29+,30+,31+,32+,33+,34-,35+,36+,37+,38-,39+,40+,41-,42-,43+,44-/m1/s1
Instrument: 2695 HPLC Quadro Micro API, Waters
Instrument type: LC-ESI-QQ
Ms type: MS2
Ion mode: POSITIVE
Collision energy: 40.0 V
Ionization: ESI
Column name: Wakosil 5C18-200 2.0 mm X 250 mm (Wako)
Retention time: 15.350 min
Derivative form: C53H86N2O37
Derivative mass: 1342.49094
Derivative type: ABEE (p-Aminobenzoic acid ethyl ester)
Precursor m/z: 1343.30
Precursor type: [M+H]+
m/z	relative intensity
325.0	65
325.8	56
353.6	37
370.2	145
370.8	999
371.7	329
372.4	70
436.1	36
486.9	41
496.2	31
529.8	35
532.3	74
533.1	645
534.2	73
648.9	33
656.0	38
687.3	46
694.2	111
695.1	355
695.9	331
858.3	41
1018.3	42
1020.2	48
1180.9	66
1343.1	31
