Mass spectrum: GalGlcNAc2Man3GlcNAcFucGlcNAc-II; LC-ESI-QQ; MS2; CE:30V; Amide
Name: GalGlcNAc2Man3GlcNAcFucGlcNAc-II
Name: GlcNAc-beta-1-2Man-alpha-1-6(Gal-beta-1-4GlcNAc-beta-1-2Man-alpha-1-3)Man-beta-1-4GlcNAc-beta-1-4(Fuc-alpha-1-6)GlcNAc
Class: Natural Product; Oligosaccharide; N-linked glycan; Complex type
Formula: C62H104N4O45
Exact mass: 1624.59726
SMILES: C(C(CO)3)(C(O)C(C(OC(C(O)4)C(O)C(COC(C8OC(O9)C(NC(C)=O)C(O)C(O)C9CO)OC(CO)C(O)C8O)OC4OC(C(CO)7)C(O)C(C(O7)OC(C(COC(O6)C(O)C(C(C(C)6)O)O)5)C(C(NC(C)=O)C(O)O5)O)NC(C)=O)O3)OC(C(NC(C)=O)2)OC(C(C2O)OC(O1)C(C(C(O)C1CO)O)O)CO)O
InChI: InChI=1S/C62H104N4O45/c1-14-31(77)41(87)45(91)58(97-14)95-13-26-50(38(84)27(54(94)98-26)63-15(2)73)106-56-29(65-17(4)75)39(85)49(24(11-72)103-56)108-60-47(93)51(36(82)25(105-60)12-96-61-52(43(89)34(80)21(8-69)101-61)110-55-28(64-16(3)74)37(83)32(78)19(6-67)99-55)109-62-53(44(90)35(81)22(9-70)102-62)111-57-30(66-18(5)76)40(86)48(23(10-71)104-57)107-59-46(92)42(88)33(79)20(7-68)100-59/h14,19-62,67-72,77-94H,6-13H2,1-5H3,(H,63,73)(H,64,74)(H,65,75)(H,66,76)/t14-,19+,20+,21+,22+,23+,24+,25+,26+,27+,28+,29+,30+,31+,32+,33-,34+,35+,36+,37+,38+,39+,40+,41+,42-,43-,44-,45-,46+,47-,48+,49+,50+,51-,52-,53-,54+,55-,56-,57-,58+,59-,60-,61-,62+/m0/s1
Instrument: 2695 HPLC Quadro Micro API, Waters
Instrument type: LC-ESI-QQ
Ms type: MS2
Ion mode: POSITIVE
Collision energy: 30.0V
Ionization: ESI
Column name: TSK-GEL Amide-80 2.0 mm X 250 mm (TOSOH)
Retention time: 30.000 min
Derivative form: C71H115N5O46
Derivative mass: 1773.68132
Derivative type: ABEE (p-Aminobenzoic acid ethyl ester)
Precursor m/z: 1774.00
Precursor type: [M+H]+
m/z	relative intensity
365.2	245
366.0	150
367.3	81
370.9	22
517.1	53
527.8	24
573.6	52
574.4	35
678.2	40
689.3	70
689.9	21
719.3	28
720.2	21
730.1	69
730.7	26
851.6	24
891.1	22
891.8	38
892.6	89
893.4	45
894.0	58
896.2	33
897.7	41
1001.7	24
1042.8	68
1043.9	77
1045.0	30
1053.6	38
1060.0	33
1060.9	21
1072.9	34
1083.5	40
1096.2	22
1100.6	39
1203.6	43
1204.4	39
1205.2	84
1206.2	177
1207.2	51
1245.8	51
1246.7	34
1256.3	144
1257.5	224
1258.3	102
1264.5	40
1402.8	21
1404.2	43
1405.9	39
1406.6	23
1407.1	337
1408.0	342
1408.6	154
1409.2	518
1410.2	153
1411.1	42
1425.4	42
1568.2	35
1568.9	27
1569.4	250
1570.1	153
1571.0	250
1572.0	221
1572.6	30
1612.2	27
1627.8	28
1631.2	32
1771.0	32
1771.6	390
1772.4	653
1773.2	648
1774.0	999
1775.1	815
1775.7	80
1776.3	37
