Mass spectrum: GalNAc2FucGlcNAcGA; LC-ESI-QQ; MS2; CE:25V; [M+H]+
Name: GalNAc2FucGlcNAcGA
Name: GalNAc-beta-1-4(GalNAc-alpha-1-2Fuc-alpha-1-3)GlcNAc-beta-1-2GA (GA, glycolaldehyde)
Class: Natural Product; Oligosaccharide; O-linked glycan
Formula: C32H53N3O21
Exact mass: 815.31716
SMILES: CC(=O)NC(C1OC(C4O)C(OC(C4O)C)OC(C3NC(C)=O)C(C(CO)OC3OCC=O)OC(C(NC(C)=O)2)OC(CO)C(O)C(O)2)C(C(O)C(CO)O1)O
InChI: InChI=1S/C32H53N3O21/c1-10-20(43)25(48)28(56-31-18(34-12(3)41)24(47)22(45)15(8-38)52-31)32(50-10)55-27-19(35-13(4)42)29(49-6-5-36)53-16(9-39)26(27)54-30-17(33-11(2)40)23(46)21(44)14(7-37)51-30/h5,10,14-32,37-39,43-48H,6-9H2,1-4H3,(H,33,40)(H,34,41)(H,35,42)/t10-,14+,15+,16+,17+,18+,19+,20+,21-,22-,23+,24+,25+,26+,27+,28-,29+,30-,31+,32-/m0/s1
Instrument: 2695 HPLC Quadro Micro API, Waters
Instrument type: LC-ESI-QQ
Ms type: MS2
Ion mode: POSITIVE
Collision energy: 25.0 V
Ionization: ESI
Column name: TSK-GEL Amide-80 2.0 mm X 250 mm (TOSOH)
Retention time: 17.540 min
Derivative form: C41H64N4O22
Derivative mass: 964.40122
Derivative type: ABEE (p-Aminobenzoic acid ethyl ester)
Precursor m/z: 965.00
Precursor type: [M+H]+
m/z	relative intensity
203.3	40
203.9	999
204.5	20
205.2	11
210.0	53
221.3	18
221.9	144
287.8	10
317.7	55
318.4	11
331.6	39
349.0	22
349.6	328
350.3	65
358.8	10
366.0	50
366.7	194
367.4	38
376.1	35
376.8	124
377.7	10
389.0	14
394.4	59
395.1	21
406.1	181
406.7	994
407.3	10
408.0	28
412.0	56
412.6	503
413.3	57
414.0	15
512.6	12
540.8	12
551.4	15
552.0	193
552.8	367
553.6	38
558.0	54
558.8	78
560.0	11
568.6	25
569.3	92
570.2	47
571.0	10
596.5	15
597.2	78
598.0	35
614.9	185
615.7	238
616.4	54
715.5	26
743.4	36
754.8	48
755.7	80
756.6	10
760.8	33
761.8	84
762.6	16
964.7	21
