Mass spectrum: Man8GlcNAc-II; LC-ESI-QQ; MS2; CE:30V; ODS
Name: Man8GlcNAc-II
Name: Man-alpha-1-2Man-alpha-1-6(Man-alpha-1-2Man-alpha-1-3)Man-alpha-1-6(Man-alpha-1-2Man-alpha-1-3)Man-beta-1-4GlcNAc
Class: Natural Product; Oligosaccharide; N-linked glycan; High-mannose type
Formula: C56H95NO46
Exact mass: 1517.51252
SMILES: C(C(C(O)1)OC(OC(C(OCC(O5)C(C(C(C5OCC(O8)C(O)C(C(C(OC(C(CO)9)C(O)C(NC(C)=O)C(O9)O)8)O)OC(C6OC(O7)C(O)C(C(C7CO)O)O)OC(CO)C(C6O)O)O)OC(O4)C(C(C(C4CO)O)O)OC(C(O)3)OC(C(O)C3O)CO)O)2)C(O)C(C(CO)O2)O)C(O)C1O)O
InChI: InChI=1S/C56H95NO46/c1-11(65)57-21-30(74)42(18(8-64)89-48(21)86)98-53-41(85)44(100-56-47(36(80)27(71)17(7-63)95-56)103-52-39(83)33(77)24(68)14(4-60)92-52)29(73)20(97-53)9-87-49-40(84)43(99-55-46(35(79)26(70)16(6-62)94-55)102-51-38(82)32(76)23(67)13(3-59)91-51)28(72)19(96-49)10-88-54-45(34(78)25(69)15(5-61)93-54)101-50-37(81)31(75)22(66)12(2-58)90-50/h12-56,58-64,66-86H,2-10H2,1H3,(H,57,65)/t12-,13-,14-,15-,16-,17-,18-,19-,20-,21-,22-,23-,24-,25-,26-,27-,28-,29-,30-,31+,32+,33+,34+,35+,36+,37+,38+,39+,40+,41+,42-,43+,44+,45+,46+,47+,48-,49+,50-,51-,52-,53+,54+,55-,56-/m1/s1
Instrument: 2695 HPLC Quadro Micro API, Waters
Instrument type: LC-ESI-QQ
Ms type: MS2
Ion mode: POSITIVE
Collision energy: 30.0 V
Ionization: ESI
Column name: Wakosil 5C18-200 2.0 mm X 250 mm (Wako)
Retention time: 12.456 min
Derivative form: C65H106N2O47
Derivative mass: 1666.59659
Derivative type: ABEE (p-Aminobenzoic acid ethyl ester)
Precursor m/z: 1667.00
Precursor type: [M+H]+
m/z	relative intensity
370.5	85
371.2	121
482.1	45
856.7	174
1180.2	47
1181.3	44
1195.5	45
1342.3	58
1343.8	79
1497.4	41
1503.8	54
1505.2	76
1665.2	306
1666.0	576
1666.8	148
1667.5	999
1668.3	297
1668.9	166
