Mass spectrum: steviolmonoside; LC-ESI-QQ; MS2; CE:40V; [M-H]-
Name: steviolmonoside
Class: Natural Product; Steviol glycoside
Formula: C26H40O8
Exact mass: 480.27232
SMILES: C=C(C4(OC(O5)C(C(C(C5CO)O)O)O)3)CC(C4)(C2([H])CC3)CCC(C2(C)1)(C(C)(C(O)=O)CCC1)[H]
InChI: InChI=1S/C26H40O8/c1-14-11-25-9-5-16-23(2,7-4-8-24(16,3)22(31)32)17(25)6-10-26(14,13-25)34-21-20(30)19(29)18(28)15(12-27)33-21/h15-21,27-30H,1,4-13H2,2-3H3,(H,31,32)/t15-,16+,17+,18-,19+,20-,21+,23-,24-,25-,26+/m1/s1
Instrument: 2695 HPLC Quadro Micro API, Waters
Instrument type: LC-ESI-QQ
Ms type: MS2
Ion mode: NEGATIVE
Collision energy: 40.0 V
Ionization: ESI
Column name: TSK-GEL Amide-80 2.0 mm X 250 mm (TOSOH)
Retention time: 3.925 min
Precursor m/z: 479.00
Precursor type: [M-H]-
m/z	relative intensity
316.5	76
317.1	999
478.3	14
478.9	123
479.7	15
