Mass spectrum: GalGlcNAcMan3GlcNAc2-II; LC-ESI-QQ; MS2; CE:25V; Amide
Name: GalGlcNAcMan3GlcNAc2-II
Name: Man-alpha-1-6(Gal-beta-1-4GlcNAc-beta-1-2Man-alpha-1-3)Man-beta-1-4GlcNAc-beta1-4GlcNAc
Class: Natural Product; Oligosaccharide; N-linked glycan; Hybrid type
Formula: C48H81N3O36
Exact mass: 1275.45998
SMILES: C(O)C(O1)C(C(O)C(OC(O7)C(NC(C)=O)C(C(C7CO)OC(O6)C(C(C(O)C(CO)6)O)O)O)C1OC(C(O)3)C(C(OC(OC(C(O)5)C(OC(C5NC(C)=O)OC(C4CO)C(O)C(NC(C)=O)C(O4)O)CO)3)COC(O2)C(O)C(O)C(O)C(CO)2)O)O
InChI: InChI=1S/C48H81N3O36/c1-11(58)49-21-28(65)37(17(7-55)76-42(21)74)83-43-22(50-12(2)59)29(66)39(19(9-57)80-43)85-47-36(73)40(27(64)20(82-47)10-75-45-34(71)31(68)24(61)14(4-52)77-45)86-48-41(33(70)26(63)16(6-54)79-48)87-44-23(51-13(3)60)30(67)38(18(8-56)81-44)84-46-35(72)32(69)25(62)15(5-53)78-46/h14-48,52-57,61-74H,4-10H2,1-3H3,(H,49,58)(H,50,59)(H,51,60)/t14-,15-,16-,17-,18-,19-,20-,21-,22-,23-,24-,25+,26-,27-,28-,29-,30-,31+,32+,33+,34+,35-,36+,37-,38-,39-,40+,41+,42-,43+,44+,45+,46+,47+,48-/m1/s1
Instrument: 2695 HPLC Quadro Micro API, Waters
Instrument type: LC-ESI-QQ
Ms type: MS2
Ion mode: POSITIVE
Collision energy: 25 V
Ionization: ESI
Column name: TSK-GEL Amide-80 2.0 mm X 250 mm (TOSOH)
Retention time: 24.218 min
Derivative form: C57H92N4O37
Derivative mass: 1424.54404
Derivative type: ABEE (p-Aminobenzoic acid ethyl ester)
Precursor m/z: 1426.00
Precursor type: [M+H]+
m/z	relative intensity
365.2	67
365.8	308
366.5	73
367.2	37
370.1	64
371.0	48
527.0	38
527.8	24
529.0	41
573.9	39
574.5	25
688.9	49
689.9	99
734.5	25
735.5	30
736.1	64
891.9	24
892.8	21
896.7	81
897.5	109
898.1	182
898.9	57
1052.9	26
1053.8	219
1054.8	173
1055.5	27
1056.4	25
1057.9	78
1058.5	157
1059.3	368
1060.1	397
1061.1	144
1262.5	65
1263.6	115
1422.7	363
1423.6	854
1424.2	434
1424.9	999
1425.8	494
1426.4	59
