Mass spectrum: GalGlcNAc2Man3GlcNAcFucGlcNAc-I; LC-ESI-QQ; MS2; CE:20V; Amide
Name: GalGlcNAc2Man3GlcNAcFucGlcNAc-I
Name: Gal-beta-1-4GlcNAc-beta-1-2Man-alpha-1-6(GlcNAc-beta-1-2Man-alpha-1-3)Man-beta-1-4GlcNAc-beta-1-4(Fuc-alpha-1-6)GlcNAc
Class: Natural Product; Oligosaccharide; N-linked glycan; Complex type
Formula: C62H104N4O45
Exact mass: 1624.59726
SMILES: C(C(C(OC(O9)C(O)C(C(O)C(CO)9)O)1)OC(OC(C(OCC(C6O)OC(C(C6OC(C7OC(C(NC(C)=O)8)OC(CO)C(C(O)8)O)OC(CO)C(C(O)7)O)O)OC(C5CO)C(O)C(NC(C)=O)C(O5)OC(C(COC(C(O)4)OC(C(O)C4O)C)3)C(O)C(C(O3)O)NC(C)=O)2)C(C(C(CO)O2)O)O)C(NC(C)=O)C1O)O
InChI: InChI=1S/C62H104N4O45/c1-14-31(77)41(87)45(91)58(97-14)95-13-26-50(38(84)27(54(94)98-26)63-15(2)73)106-56-29(65-17(4)75)39(85)49(24(11-72)103-56)108-60-47(93)51(109-62-53(44(90)35(81)22(9-70)102-62)111-55-28(64-16(3)74)37(83)32(78)19(6-67)99-55)36(82)25(105-60)12-96-61-52(43(89)34(80)21(8-69)101-61)110-57-30(66-18(5)76)40(86)48(23(10-71)104-57)107-59-46(92)42(88)33(79)20(7-68)100-59/h14,19-62,67-72,77-94H,6-13H2,1-5H3,(H,63,73)(H,64,74)(H,65,75)(H,66,76)/t14-,19+,20+,21+,22+,23+,24+,25+,26+,27+,28+,29+,30+,31+,32+,33-,34+,35+,36+,37+,38+,39+,40+,41+,42-,43-,44-,45-,46+,47-,48+,49+,50+,51-,52-,53-,54+,55-,56-,57-,58+,59-,60-,61-,62+/m0/s1
Instrument: 2695 HPLC Quadro Micro API, Waters
Instrument type: LC-ESI-QQ
Ms type: MS2
Ion mode: POSITIVE
Collision energy: 20.0 V
Ionization: ESI
Column name: TSK-GEL Amide-80 2.0 mm X 250 mm (TOSOH)
Retention time: 29.502 min
Derivative form: C71H115N5O46
Derivative mass: 1773.68132
Derivative type: ABEE (p-Aminobenzoic acid ethyl ester)
Precursor m/z: 1774.00
Precursor type: [M+H]+
m/z	relative intensity
365.8	31
730.9	10
892.3	6
1039.3	6
1043.7	8
1054.0	6
1245.4	6
1255.9	5
1256.7	14
1257.6	45
1259.0	23
1275.0	7
1403.7	6
1406.7	24
1407.6	53
1408.6	81
1409.5	84
1410.4	27
1411.6	8
1569.3	11
1570.2	7
1571.0	17
1572.5	7
1608.6	10
1612.2	7
1754.1	6
1755.3	5
1756.4	9
1763.1	7
1770.5	8
1771.1	110
1772.0	394
1772.8	700
1773.8	999
1774.3	31
1774.8	548
1775.6	178
1776.5	32
1777.4	12
1794.2	11
