Mass spectrum: Gal2GlcNAc2Man3GlcNAc2; LC-ESI-QQ; MS2; CE:35V; Amide
Name: Gal2GlcNAc2Man3GlcNAc2
Name: Gal-beta-1-4GlcNAc-beta-1-2Man-alpha-1-6(Gal-beta-1-4GlcNAc-beta-1-2Man-alpha-1-3)Man-beta-1-4GlcNAc-beta-1-4GlcNAc
Class: Natural Product; Oligosaccharide; N-linked glycan; Complex type
Formula: C62H104N4O46
Exact mass: 1640.59217
SMILES: C(C(O2)C(C(O)C(C(OC(C9O)C(OC(C9O)CO)OC(C3O)C(O)C(COC(O8)C(C(O)C(O)C(CO)8)OC(C6NC(C)=O)OC(C(OC(C7O)OC(C(C7O)O)CO)C6O)CO)OC3OC(C5O)C(CO)OC(C5NC(C)=O)OC(C4CO)C(C(C(O)O4)NC(C)=O)O)2)NC(C)=O)OC(O1)C(C(C(O)C1CO)O)O)O
InChI: InChI=1S/C62H104N4O46/c1-14(75)63-27-36(84)47(22(9-71)97-54(27)95)106-55-28(64-15(2)76)37(85)50(25(12-74)102-55)109-60-46(94)51(110-62-53(43(91)34(82)21(8-70)101-62)112-57-30(66-17(4)78)39(87)49(24(11-73)104-57)108-59-45(93)41(89)32(80)19(6-68)99-59)35(83)26(105-60)13-96-61-52(42(90)33(81)20(7-69)100-61)111-56-29(65-16(3)77)38(86)48(23(10-72)103-56)107-58-44(92)40(88)31(79)18(5-67)98-58/h18-62,67-74,79-95H,5-13H2,1-4H3,(H,63,75)(H,64,76)(H,65,77)(H,66,78)/t18-,19-,20-,21-,22-,23-,24-,25-,26-,27-,28-,29-,30-,31+,32+,33-,34-,35-,36-,37-,38-,39-,40+,41+,42+,43+,44-,45-,46+,47-,48-,49-,50-,51+,52+,53+,54-,55+,56+,57+,58+,59+,60+,61+,62-/m1/s1
Instrument: 2695 HPLC Quadro Micro API, Waters
Instrument type: LC-ESI-QQ
Ms type: MS2
Ion mode: POSITIVE
Collision energy: 35 V
Ionization: ESI
Column name: TSK-GEL Amide-80 2.0 mm X 250 mm (TOSOH)
Retention time: 31.421 min
Derivative form: C71H115N5O47
Derivative mass: 1789.67624
Derivative type: ABEE (p-Aminobenzoic acid ethyl ester)
Precursor m/z: 1791.00
Precursor type: [M+H]+
m/z	relative intensity
364.9	33
365.6	999
366.2	219
367.2	44
370.2	53
371.0	133
371.8	37
528.1	283
573.7	168
574.7	35
689.1	155
689.8	49
730.1	30
735.5	76
736.5	65
892.6	69
896.4	32
897.0	154
897.8	196
898.4	49
899.4	35
1052.7	43
1053.5	111
1054.6	99
1055.7	51
1057.8	42
1058.5	36
1059.1	181
1059.8	329
1060.7	129
1101.5	45
1261.6	85
1262.2	45
1262.9	60
1263.9	36
1417.8	36
1418.6	194
1419.6	166
1420.4	75
1421.8	30
1422.6	188
1423.6	553
1424.2	124
1424.8	583
1425.7	323
1426.5	74
1786.6	64
1787.6	211
1788.5	314
1789.3	159
1790.0	264
1791.0	117
