Mass spectrum: GlcNAc2Man3GlcNAcFucGlcNAc; LC-ESI-QQ; MS2; CE:30V; Amide
Name: GlcNAc2Man3GlcNAcFucGlcNAc
Name: GlcNAc-beta-1-2Man-alpha-1-6(GlcNAc-beta-1-2Man-alpha-1-3)Man-beta-1-4GlcNAc-beta-1-4(Fuc-alpha-1-6)GlcNAc
Class: Natural Product; Oligosaccharide; N-linked glycan; Complex type
Formula: C56H94N4O40
Exact mass: 1462.54443
SMILES: C(C8O)(C(OC(C8NC(C)=O)OC(C6COC(C7O)OC(C(C7O)O)C)C(C(C(O)O6)NC(C)=O)O)CO)OC(C(O)3)OC(C(O)C3OC(C4OC(C(NC(C)=O)5)OC(CO)C(O)C5O)OC(CO)C(C4O)O)COC(C(OC(O2)C(NC(C)=O)C(O)C(O)C2CO)1)OC(CO)C(O)C(O)1
InChI: InChI=1S/C56H94N4O40/c1-13-29(70)39(80)42(83)53(88-13)86-12-24-45(37(78)25(49(85)89-24)57-14(2)66)96-52-28(60-17(5)69)38(79)44(22(10-65)94-52)97-54-43(84)46(98-56-48(41(82)33(74)21(9-64)93-56)100-51-27(59-16(4)68)36(77)31(72)19(7-62)91-51)34(75)23(95-54)11-87-55-47(40(81)32(73)20(8-63)92-55)99-50-26(58-15(3)67)35(76)30(71)18(6-61)90-50/h13,18-56,61-65,70-85H,6-12H2,1-5H3,(H,57,66)(H,58,67)(H,59,68)(H,60,69)/t13-,18+,19+,20+,21+,22+,23+,24+,25+,26+,27+,28+,29+,30+,31+,32+,33+,34+,35+,36+,37+,38+,39+,40-,41-,42-,43-,44+,45+,46-,47-,48-,49+,50-,51-,52-,53+,54-,55-,56+/m0/s1
Instrument: 2695 HPLC Quadro Micro API, Waters
Instrument type: LC-ESI-QQ
Ms type: MS2
Ion mode: POSITIVE
Collision energy: 30.0V
Ionization: ESI
Column name: TSK-GEL Amide-80 2.0 mm X 250 mm (TOSOH)
Retention time: 24.685 min
Derivative form: C65H105N5O41
Derivative mass: 1611.62850
Derivative type: ABEE (p-Aminobenzoic acid ethyl ester)
Precursor m/z: 1612.00
Precursor type: [M+H]+
m/z	relative intensity
365.2	39
366.0	81
371.0	47
516.7	22
527.2	65
528.1	42
573.6	49
688.7	34
689.9	50
719.8	22
730.8	26
735.2	22
891.4	46
892.3	131
893.1	105
894.0	25
897.9	53
1042.8	30
1043.5	77
1044.9	23
1059.2	30
1060.1	25
1094.0	30
1094.6	144
1095.5	236
1096.4	134
1097.2	50
1100.4	22
1204.1	20
1204.9	62
1206.3	95
1240.3	21
1241.8	27
1243.9	27
1245.7	60
1246.9	87
1247.8	45
1261.9	49
1262.8	83
1263.6	29
1406.3	28
1407.0	196
1407.8	562
1408.3	87
1408.9	794
1409.9	366
1410.6	76
1465.8	39
1609.2	116
1610.0	422
1611.0	885
1611.5	85
1612.1	999
1613.0	392
1613.7	48
