Mass spectrum: ManGlcNAcFucGlcNAc; LC-ESI-QQ; MS2; CE:20V; ODS
Name: ManGlcNAcFucGlcNAc
Name: Man-beta-1-4GlcNAc-beta-1-4(Fuc-alpha-1-3)GlcNAc
Class: Natural Product; Oligosaccharide; N-linked glycan; Complex type
Formula: C28H48N2O20
Exact mass: 732.28004
SMILES: OCC(C1OC(O4)C(O)C(O)C(O)C4CO)OC(OC(C(OC(O3)C(O)C(O)C(O)C(C)3)2)C(OC(O)C(NC(C)=O)2)CO)C(NC(C)=O)C(O)1
InChI: InChI=1S/C28H48N2O20/c1-7-15(36)18(39)20(41)27(44-7)50-24-14(30-9(3)35)25(43)45-12(6-33)23(24)49-26-13(29-8(2)34)17(38)22(11(5-32)47-26)48-28-21(42)19(40)16(37)10(4-31)46-28/h7,10-28,31-33,36-43H,4-6H2,1-3H3,(H,29,34)(H,30,35)/t7-,10+,11+,12+,13+,14+,15+,16+,17+,18+,19-,20-,21-,22+,23+,24+,25+,26-,27-,28-/m0/s1
Instrument: 2695 HPLC Quadro Micro API, Waters
Instrument type: LC-ESI-QQ
Ms type: MS2
Ion mode: POSITIVE
Collision energy: 20.0 V
Ionization: ESI
Column name: Wakosil 5C18-200 2.0 mm X 250 mm (Wako)
Retention time: 26.035 min
Derivative form: C37H59N3O21
Derivative mass: 881.36411
Derivative type: ABEE (p-Aminobenzoic acid ethyl ester)
Precursor m/z: 882.00
Precursor type: [M+H]+
m/z	relative intensity
324.7	30
353.3	19
365.4	265
366.2	160
370.2	41
370.9	156
371.5	14
403.2	13
511.3	76
512.0	107
513.3	19
515.9	49
516.6	210
517.4	20
526.8	11
573.3	83
574.3	83
627.9	12
672.2	13
688.6	14
689.4	12
690.2	28
692.3	15
703.8	10
719.9	15
720.6	16
729.6	11
735.2	243
736.1	209
736.8	39
737.4	12
785.0	31
824.5	14
835.4	12
836.1	12
836.8	12
864.0	12
880.7	81
881.4	999
882.3	562
883.2	45
