Mass spectrum: GlcNAc2Man2GlcNAcManGlcNAcFucGlcNAc; LC-ESI-QQ; MS2; CE:30V; Amide
Name: GlcNAc2Man2GlcNAcManGlcNAcFucGlcNAc
Name: GlcNAc-beta-1-2Man-alpha-1-6(GlcNAc-beta-1-4)(GlcNAc-beta-1-2Man-alpha-1-3)Man-beta-1-4GlcNAc-beta-1-4(Fuc-alpha-1-6)GlcNAc
Class: Natural Product; Oligosaccharide; N-linked glycan; Complex type
Formula: C64H107N5O45
Exact mass: 1665.62381
SMILES: C(C1O)(C(OC(C8COC(C9O)OC(C(O)C9O)C)C(C(NC(C)=O)C(O)O8)O)OC(CO)C1OC(C(O)4)OC(C(OC(O7)C(NC(C)=O)C(O)C(C(CO)7)O)C(OC(O5)C(OC(C6NC(C)=O)OC(C(C6O)O)CO)C(O)C(O)C5CO)4)COC(O2)C(OC(O3)C(C(C(C3CO)O)O)NC(C)=O)C(O)C(C2CO)O)NC(C)=O
InChI: InChI=1S/C64H107N5O45/c1-15-34(81)45(92)48(95)61(100-15)98-13-27-51(43(90)29(56(97)101-27)65-16(2)76)109-60-33(69-20(6)80)44(91)50(26(12-75)107-60)110-62-49(96)53(112-64-55(47(94)39(86)25(11-74)106-64)114-59-32(68-19(5)79)42(89)37(84)23(9-72)104-59)52(111-57-30(66-17(3)77)40(87)35(82)21(7-70)102-57)28(108-62)14-99-63-54(46(93)38(85)24(10-73)105-63)113-58-31(67-18(4)78)41(88)36(83)22(8-71)103-58/h15,21-64,70-75,81-97H,7-14H2,1-6H3,(H,65,76)(H,66,77)(H,67,78)(H,68,79)(H,69,80)/t15-,21+,22+,23+,24+,25+,26+,27+,28+,29+,30+,31+,32+,33+,34+,35+,36+,37+,38+,39+,40+,41+,42+,43+,44+,45+,46-,47-,48-,49-,50+,51+,52+,53+,54-,55-,56+,57-,58-,59-,60-,61+,62-,63-,64+/m0/s1
Instrument: 2695 HPLC Quadro Micro API, Waters
Instrument type: LC-ESI-QQ
Ms type: MS2
Ion mode: POSITIVE
Collision energy: 30.0 V
Ionization: ESI
Column name: TSK-GEL Amide-80 2.0 mm X 250 mm (TOSOH)
Retention time: 26.988 min
Derivative form: C73H118N6O46
Derivative mass: 1814.70787
Derivative type: ABEE (p-Aminobenzoic acid ethyl ester)
Precursor m/z: 1816.00
Precursor type: [M+H]+
m/z	relative intensity
349.9	142
365.7	229
370.5	145
527.4	108
568.2	93
573.3	170
672.1	67
674.1	91
689.1	55
719.6	126
720.5	53
730.3	96
732.0	60
876.7	85
892.3	51
893.4	127
895.9	85
933.3	155
934.6	51
1095.0	171
1095.7	92
1096.7	117
1240.2	57
1245.4	98
1246.3	93
1247.4	94
1262.2	77
1263.3	106
1297.8	151
1298.9	407
1299.8	110
1300.9	77
1316.5	64
1406.6	65
1407.5	83
1408.3	229
1409.2	241
1448.6	68
1450.4	58
1609.6	359
1610.6	435
1611.4	324
1612.2	732
1612.9	240
1614.0	64
1798.0	56
1811.6	163
1812.6	517
1813.5	999
1814.0	55
1814.5	956
1815.2	54
1815.7	903
1816.4	267
1817.0	63
