Mass spectrum: Man5GlcNAc-III; LC-ESI-QQ; MS2; CE:30V; ODS
Name: Man5GlcNAc-III
Name: Man-alpha-1-6Man-alpha-1-6(Man-alpha-1-2Man-alpha-1-3)Man-beta-1-4GlcNAc
Class: Natural Product; Oligosaccharide; N-linked glycan; High-mannose type
Formula: C38H65NO31
Exact mass: 1031.35405
SMILES: C(O)(C6NC(C)=O)OC(C(C6O)OC(C1O)OC(COC(C4O)OC(COC(O5)C(C(O)C(C(CO)5)O)O)C(C(O)4)O)C(C1OC(O3)C(C(C(C3CO)O)O)OC(O2)C(O)C(O)C(O)C(CO)2)O)CO
InChI: InChI=1/C38H65NO31/c1-8(44)39-15-21(50)30(12(5-43)62-33(15)59)68-37-29(58)31(69-38-32(25(54)18(47)11(4-42)65-38)70-36-28(57)23(52)17(46)10(3-41)64-36)20(49)14(67-37)7-61-35-27(56)24(53)19(48)13(66-35)6-60-34-26(55)22(51)16(45)9(2-40)63-34/h9-38,40-43,45-59H,2-7H2,1H3,(H,39,44)/t9-,10-,11-,12-,13-,14-,15-,16-,17-,18-,19-,20-,21-,22+,23+,24+,25+,26+,27+,28+,29+,30-,31+,32+,33-,34+,35+,36-,37+,38-/m1/s1/f/h39H
Instrument: 2695 HPLC Quadro Micro API, Waters
Instrument type: LC-ESI-QQ
Ms type: MS2
Ion mode: POSITIVE
Collision energy: 30.0 V
Ionization: ESI
Column name: Wakosil 5C18-200 2.0 mm X 250 mm (Wako)
Retention time: 17.363 min
Derivative form: C47H76N2O32
Derivative mass: 1180.43812
Derivative type: ABEE (p-Aminobenzoic acid ethyl ester)
Precursor m/z: 1181.02
Precursor type: [M+H]+
m/z	relative intensity
370.4	279
371.1	999
372.0	229
533.2	431
695.0	118
856.4	373
857.3	407
858.4	136
1017.1	103
1019.7	162
1179.6	115
1180.6	425
1181.4	350
1182.5	334
