Mass spectrum: Man3GlcNAc; LC-ESI-QQ; MS2; CE:20V; Amide
Name: Man3GlcNAc
Name: Man-alpha-1-6(Man-alpha-1-3)Man-beta-1-4GlcNAc
Class: Natural Product; Oligosaccharide; N-linked glycan; High-mannose type
Formula: C26H45NO21
Exact mass: 707.24841
SMILES: CC(=O)N[C@@H]1[C@H]([C@@H]([C@H](O[C@@H]1O)CO)O[C@H]2[C@H]([C@H]([C@@H]([C@H](O2)CO[C@@H]3[C@H]([C@H]([C@@H]([C@H](O3)CO)O)O)O)O)O[C@@H]4[C@H]([C@H]([C@@H]([C@H](O4)CO)O)O)O)O)O
InChI: InChI=1S/C26H45NO21/c1-6(31)27-11-15(35)21(9(4-30)43-23(11)41)47-26-20(40)22(48-25-19(39)17(37)13(33)8(3-29)45-25)14(34)10(46-26)5-42-24-18(38)16(36)12(32)7(2-28)44-24/h7-26,28-30,32-41H,2-5H2,1H3,(H,27,31)/t7-,8-,9-,10-,11-,12-,13-,14-,15-,16+,17+,18+,19+,20+,21-,22+,23+,24+,25-,26+/m1/s1
Instrument: 2695 HPLC Quadro Micro API, Waters
Instrument type: LC-ESI-QQ
Ms type: MS2
Ion mode: POSITIVE
Collision energy: 20.0 V
Ionization: ESI
Column name: TSK-GEL Amide-80 2.0 mm X 250 mm (TOSOH)
Retention time: 11.100 min
Derivative form: C35H56N2O22
Derivative mass: 856.33247
Derivative type: ABEE (p-Aminobenzoic acid ethyl ester)
Precursor m/z: 857.30
Precursor type: [M+H]+
m/z	relative intensity
324.6	35
370.1	26
370.7	508
371.4	182
372.2	45
531.9	36
532.6	326
533.4	189
534.2	74
694.1	319
695.0	836
696.0	257
696.6	32
855.5	54
856.2	483
857.0	999
858.0	589
858.7	53
