Mass spectrum: GlcNAcMan4GlcNAcManGlcNAc2; LC-ESI-QQ; MS2; CE:30V; Amide
Name: GlcNAcMan4GlcNAcManGlcNAc2
Name: Man-alpha-1-6(Man-alpha-1-3)Man-alpha-1-6(GlcNAc-beta-1-4)(GlcNAc-beta-1-2Man-alpha-1-3)Man-beta-1-4GlcNAc-beta-1-4GlcNAc
Class: Natural Product; Oligosaccharide; N-linked glycan; Hybrid type
Formula: C62H104N4O46
Exact mass: 1640.59217
SMILES: C(O1)(CO)C(C(O)C(C1OCC(C2O)OC(OCC(C4OC(C(NC(C)=O)9)OC(C(C9O)O)CO)OC(OC(C(CO)8)C(C(C(O8)OC(C(O)7)C(CO)OC(O)C7NC(C)=O)NC(C)=O)O)C(C4OC(O6)C(C(C(O)C(CO)6)O)OC(O5)C(C(O)C(C5CO)O)NC(C)=O)O)C(C(OC(C(O)3)OC(C(C(O)3)O)CO)2)O)O)O
InChI: InChI=1S/C62H104N4O46/c1-14(74)63-27-39(86)48(23(10-72)98-54(27)95)107-57-30(66-17(4)77)40(87)49(24(11-73)104-57)108-61-47(94)52(111-62-53(43(90)35(82)22(9-71)103-62)112-56-29(65-16(3)76)38(85)32(79)19(6-68)100-56)50(109-55-28(64-15(2)75)37(84)31(78)18(5-67)99-55)26(106-61)13-97-59-46(93)51(110-60-45(92)42(89)34(81)21(8-70)102-60)36(83)25(105-59)12-96-58-44(91)41(88)33(80)20(7-69)101-58/h18-62,67-73,78-95H,5-13H2,1-4H3,(H,63,74)(H,64,75)(H,65,76)(H,66,77)/t18-,19-,20-,21-,22-,23-,24-,25-,26-,27-,28-,29-,30-,31-,32-,33-,34-,35-,36-,37-,38-,39-,40-,41+,42+,43+,44+,45+,46+,47+,48-,49-,50-,51+,52-,53+,54-,55+,56+,57+,58+,59+,60-,61+,62-/m1/s1
Instrument: 2695 HPLC Quadro Micro API, Waters
Instrument type: LC-ESI-QQ
Ms type: MS2
Ion mode: POSITIVE
Collision energy: 30.0 V
Ionization: ESI
Column name: TSK-GEL Amide-80 2.0 mm X 250 mm (TOSOH)
Retention time: 31.005 min
Derivative form: C71H115N5O47
Derivative mass: 1789.67624
Derivative type: ABEE (p-Aminobenzoic acid ethyl ester)
Precursor m/z: 1790.00
Precursor type: [M+H]+
m/z	relative intensity
365.6	108
366.5	49
370.7	86
371.5	28
372.1	28
511.8	38
527.3	55
532.4	39
545.5	25
568.5	37
569.2	83
573.2	227
574.2	230
575.1	51
689.3	35
729.9	66
731.0	31
735.1	43
736.2	25
892.6	74
893.4	32
894.0	22
939.1	21
1054.1	24
1055.0	131
1060.4	24
1101.0	26
1102.6	35
1216.1	83
1217.6	93
1256.8	55
1258.6	57
1261.9	20
1262.5	78
1263.6	50
1303.4	45
1305.4	55
1418.2	93
1418.8	30
1419.5	220
1420.4	86
1421.3	37
1423.3	82
1424.0	44
1424.8	222
1425.4	83
1426.6	33
1584.4	118
1585.1	23
1585.7	123
1586.9	208
1587.7	99
1588.4	26
1625.9	24
1626.7	51
1627.5	102
1628.5	26
1787.2	173
1787.8	57
1788.5	483
1789.0	72
1789.7	999
1790.7	472
1791.4	28
