Mass spectrum: GalGlcNAc2Man3GlcNAc2-II; LC-ESI-QQ; MS2; CE:30V; Amide
Name: GalGlcNAc2Man3GlcNAc2-II
Name: GlcNAc-beta-1-2Man-alpha-1-6(Gal-beta-1-4GlcNAc-beta-1-2Man-alpha-1-3)Man-beta-1-4GlcNAc-beta-1-4GlcNAc
Class: Natural Product; Oligosaccharide; N-linked glycan; Complex type
Formula: C56H94N4O41
Exact mass: 1478.53935
SMILES: C(OC(C2OCC(O3)C(O)C(OC(C6OC(C(NC(C)=O)8)OC(C(C8O)OC(C7O)OC(C(O)C(O)7)CO)CO)OC(C(C(O)6)O)CO)C(C3OC(C5O)C(CO)OC(C(NC(C)=O)5)OC(C4O)C(CO)OC(C4NC(C)=O)O)O)C(O)C(C(CO)O2)O)(C(NC(C)=O)1)OC(C(C(O)1)O)CO
InChI: InChI=1S/C56H94N4O41/c1-13(68)57-25-35(78)43(21(9-65)88-49(25)86)96-51-27(59-15(3)70)36(79)45(23(11-67)93-51)98-54-42(85)46(33(76)24(95-54)12-87-55-47(39(82)31(74)19(7-63)91-55)100-50-26(58-14(2)69)34(77)29(72)17(5-61)89-50)99-56-48(40(83)32(75)20(8-64)92-56)101-52-28(60-16(4)71)37(80)44(22(10-66)94-52)97-53-41(84)38(81)30(73)18(6-62)90-53/h17-56,61-67,72-86H,5-12H2,1-4H3,(H,57,68)(H,58,69)(H,59,70)(H,60,71)/t17-,18-,19-,20-,21-,22-,23-,24-,25-,26-,27-,28-,29-,30+,31-,32-,33-,34-,35-,36-,37-,38+,39+,40+,41-,42+,43-,44-,45-,46+,47+,48+,49-,50+,51+,52+,53+,54+,55+,56-/m1/s1
Instrument: 2695 HPLC Quadro Micro API, Waters
Instrument type: LC-ESI-QQ
Ms type: MS2
Ion mode: POSITIVE
Collision energy: 30 V
Ionization: ESI
Column name: TSK-GEL Amide-80 2.0 mm X 250 mm (TOSOH)
Retention time: 27.023 min
Derivative form: C65H105N5O42
Derivative mass: 1627.62341
Derivative type: ABEE (p-Aminobenzoic acid ethyl ester)
Precursor m/z: 1629.00
Precursor type: [M+H]+
m/z	relative intensity
364.7	30
365.2	234
366.0	433
367.0	89
370.9	93
372.0	52
511.0	45
527.7	131
546.2	39
573.6	189
574.9	47
689.2	98
689.9	30
729.8	121
730.8	32
735.5	56
736.7	51
891.3	60
893.1	176
896.7	199
897.3	57
898.0	436
899.0	109
1053.2	165
1054.3	33
1055.3	104
1058.3	81
1059.0	191
1059.7	111
1060.5	241
1094.5	33
1098.9	41
1100.7	151
1101.4	48
1102.2	55
1221.0	35
1222.3	53
1255.9	59
1256.7	67
1257.4	264
1258.3	175
1259.1	44
1261.0	254
1262.0	351
1262.9	733
1263.6	118
1264.3	347
1264.8	36
1397.4	51
1422.4	112
1423.6	524
1424.6	416
1425.5	399
1426.3	124
1464.6	45
1466.7	32
1624.9	40
1625.6	62
1626.2	637
1627.0	999
1628.1	942
1629.4	471
