Mass spectrum: 3-Man4GlcNAc; LC-ESI-QQ; MS2; CE:25V; ODS
Name: 3-Man4GlcNAc
Name: Man-alpha-1-2Man-alpha-1-2Man-alpha-1-3Man-beta-1-4GlcNAc
Class: Natural Product; Oligosaccharide; N-linked glycan; High-mannose type
Formula: C32H55NO26
Exact mass: 869.30123
SMILES: CC(=O)N[C@@H]1[C@H]([C@@H]([C@H](O[C@H]1O)CO)O[C@H]2[C@H]([C@H]([C@@H]([C@H](O2)CO)O)O[C@@H]3[C@H]([C@H]([C@@H]([C@H](O3)CO)O)O)O[C@@H]4[C@H]([C@H]([C@@H]([C@H](O4)CO)O)O)O[C@@H]5[C@H]([C@H]([C@@H]([C@H](O5)CO)O)O)O)O)O
InChI: InChI=1S/C32H55NO26/c1-7(39)33-13-18(44)24(12(6-38)51-28(13)50)56-30-23(49)25(17(43)11(5-37)53-30)57-31-27(21(47)16(42)9(3-35)54-31)59-32-26(20(46)15(41)10(4-36)55-32)58-29-22(48)19(45)14(40)8(2-34)52-29/h8-32,34-38,40-50H,2-6H2,1H3,(H,33,39)/t8-,9-,10-,11-,12-,13-,14-,15-,16-,17-,18-,19+,20+,21+,22+,23+,24-,25+,26+,27+,28-,29-,30+,31-,32-/m1/s1
Instrument: 2695 HPLC Quadro Micro API, Waters
Instrument type: LC-ESI-QQ
Ms type: MS2
Ion mode: POSITIVE
Collision energy: 25.0 V
Ionization: ESI
Column name: Wakosil 5C18-200 2.0 mm X 250 mm (Wako)
Retention time: 40.915 min
Derivative form: C41H66N2O27
Derivative mass: 1018.38529
Derivative type: ABEE (p-Aminobenzoic acid ethyl ester)
Precursor m/z: 1019.30
Precursor type: [M+H]+
m/z	relative intensity
370.3	132
371.0	999
371.5	40
372.1	127
532.2	229
533.0	488
534.0	159
694.3	71
695.1	156
696.0	46
856.4	32
857.2	58
1017.7	91
1018.5	255
1019.4	467
1020.3	202
