Mass spectrum: steviolbioside; LC-ESI-QQ; MS2; CE:60V; [M-H]-
Name: steviolbioside
Class: Natural Product; Steviol glycoside
Formula: C32H50O13
Exact mass: 642.32514
SMILES: C(O)(C1OC(O6)C(O)C(C(O)C(CO)6)O)C(C(CO)OC1OC(C4)(C(=C)5)CCC(C43C5)([H])C(C(CC3)2[H])(C)CCCC2(C)C(O)=O)O
InChI: InChI=1S/C32H50O13/c1-15-11-31-9-5-18-29(2,7-4-8-30(18,3)28(40)41)19(31)6-10-32(15,14-31)45-27-25(23(38)21(36)17(13-34)43-27)44-26-24(39)22(37)20(35)16(12-33)42-26/h16-27,33-39H,1,4-14H2,2-3H3,(H,40,41)/t16-,17-,18+,19+,20-,21-,22+,23+,24-,25-,26+,27+,29-,30-,31-,32+/m1/s1
Instrument: 2695 HPLC Quadro Micro API, Waters
Instrument type: LC-ESI-QQ
Ms type: MS2
Ion mode: NEGATIVE
Collision energy: 60.0 V
Ionization: ESI
Column name: TSK-GEL Amide-80 2.0 mm X 250 mm (TOSOH)
Retention time: 5.461 min
Precursor m/z: 641.00
Precursor type: [M-H]-
m/z	relative intensity
316.4	27
316.9	999
317.6	157
413.2	36
461.0	84
478.2	154
479.0	468
479.6	44
640.9	29
