Mass spectrum: ManXylManGlcNAcFucGlcNAc; LC-ESI-QQ; MS2; CE:20V; ODS
Name: ManXylManGlcNAcFucGlcNAc
Name: Man-alpha-1-6(Xyl-beta-1-2)Man-beta-1-4GlcNAc-beta-1-4(Fuc-alpha-1-3)GlcNAc
Class: Natural Product; Oligosaccharide; N-linked glycan; Complex type
Formula: C39H66N2O29
Exact mass: 1026.37512
SMILES: C(C(O)4)(C(OC(OC(C(OC(O6)C(O)C(C(C6C)O)O)5)C(CO)OC(O)C(NC(C)=O)5)C4NC(C)=O)CO)OC(O1)C(OC(O3)C(C(O)C(C3)O)O)C(O)C(C1COC(O2)C(C(C(C2CO)O)O)O)O
InChI: InChI=1S/C39H66N2O29/c1-9-19(48)24(53)29(58)38(62-9)69-32-18(41-11(3)46)34(59)63-15(6-44)31(32)68-35-17(40-10(2)45)23(52)30(14(5-43)65-35)67-39-33(70-37-27(56)20(49)12(47)7-60-37)26(55)22(51)16(66-39)8-61-36-28(57)25(54)21(50)13(4-42)64-36/h9,12-39,42-44,47-59H,4-8H2,1-3H3,(H,40,45)(H,41,46)/t9-,12+,13+,14+,15+,16+,17+,18+,19+,20-,21+,22+,23+,24+,25-,26-,27+,28-,29-,30+,31+,32+,33-,34+,35-,36-,37-,38-,39-/m0/s1
Instrument: 2695 HPLC Quadro Micro API, Waters
Instrument type: LC-ESI-QQ
Ms type: MS2
Ion mode: POSITIVE
Collision energy: 20.0 V
Ionization: ESI
Column name: Wakosil 5C18-200 2.0 mm X 250 mm (Wako)
Retention time: 25.363 min
Derivative form: C48H77N3O30
Derivative mass: 1175.45919
Derivative type: ABEE (p-Aminobenzoic acid ethyl ester)
Precursor m/z: 1176.00
Precursor type: [M+H]+
m/z	relative intensity
365.7	7
370.4	6
371.2	18
498.1	8
516.8	32
517.5	8
573.8	5
659.1	19
659.8	57
660.5	20
805.3	13
806.2	14
867.5	7
868.4	9
1013.4	24
1014.4	28
1028.8	10
1029.5	38
1030.4	50
1043.2	7
1044.1	11
1174.8	213
1175.5	910
1176.5	999
1177.1	55
1178.0	7
