Mass spectrum: Man7GlcNAc2-I; LC-ESI-QQ; MS2; CE:30V; Amide
Name: Man7GlcNAc2-I
Name: Man-alpha-1-2Man-alpha-1-6(Man-alpha-1-3)Man-alpha-1-6(Man-alpha-1-2Man-alpha-1-3)Man-beta-1-4GlcNAc-beta-1-4GlcNAc
Class: Natural Product; Oligosaccharide; N-linked glycan; High-mannose type
Formula: C58H98N2O46
Exact mass: 1558.53907
SMILES: O(C(O7)C(O)C(C(C7COC(C8OC(O9)C(O)C(C(O)C9CO)O)OC(C(C(O)8)O)CO)O)OC(C6O)OC(C(C6O)O)CO)CC(C3O)OC(C(C(OC(O5)C(C(C(O)C5CO)O)OC(O4)C(O)C(O)C(O)C(CO)4)3)O)OC(C(CO)1)C(C(NC(C)=O)C(OC(C2O)C(OC(C2NC(C)=O)O)CO)O1)O
InChI: InChI=1S/C58H98N2O46/c1-12(68)59-23-32(77)44(19(8-66)92-50(23)89)101-51-24(60-13(2)69)33(78)45(20(9-67)98-51)102-56-43(88)47(104-58-49(38(83)29(74)18(7-65)97-58)106-55-41(86)36(81)27(72)16(5-63)95-55)31(76)22(100-56)10-90-52-42(87)46(103-53-39(84)34(79)25(70)14(3-61)93-53)30(75)21(99-52)11-91-57-48(37(82)28(73)17(6-64)96-57)105-54-40(85)35(80)26(71)15(4-62)94-54/h14-58,61-67,70-89H,3-11H2,1-2H3,(H,59,68)(H,60,69)/t14-,15-,16-,17-,18-,19-,20-,21-,22-,23-,24-,25-,26-,27-,28-,29-,30-,31-,32-,33-,34+,35+,36+,37+,38+,39+,40+,41+,42+,43+,44-,45-,46+,47+,48+,49+,50-,51+,52+,53-,54-,55-,56+,57+,58-/m1/s1
Instrument: 2695 HPLC Quadro Micro API, Waters
Instrument type: LC-ESI-QQ
Ms type: MS2
Ion mode: POSITIVE
Collision energy: 30.0 V
Ionization: ESI
Column name: TSK-GEL Amide-80 2.0 mm X 250 mm (TOSOH)
Retention time: 35.409 min
Derivative form: C67H109N3O47
Derivative mass: 1707.62314
Derivative type: ABEE (p-Aminobenzoic acid ethyl ester)
Precursor m/z: 1708.00
Precursor type: [M+H]+
m/z	relative intensity
325.1	24
334.0	19
365.3	61
365.9	12
366.6	22
370.5	19
486.6	12
528.1	43
573.1	56
574.1	63
575.6	13
688.6	18
689.4	72
690.8	67
699.7	12
736.0	29
852.2	15
856.7	11
898.3	13
1013.8	24
1014.8	13
1059.3	38
1060.4	19
1175.5	50
1176.8	26
1221.5	19
1222.4	21
1336.1	145
1337.0	179
1338.0	141
1338.9	156
1353.5	26
1383.5	24
1384.6	43
1543.5	23
1544.4	72
1545.3	123
1546.0	103
1546.7	49
1571.1	13
1610.7	22
1655.0	16
1704.9	41
1705.7	211
1706.5	683
1707.5	999
1708.1	151
1708.8	428
1709.4	63
