Mass spectrum: Man2XylManGlcNAcFucGlcNAc; LC-ESI-QQ; MS2; CE:30V; ODS
Name: Man2XylManGlcNAcFucGlcNAc
Name: Man-alpha-1-6(Man-alpha-1-3)(Xyl-beta-1-2)Man-beta-1-4GlcNAc-beta-1-4(Fuc-alpha-1-3)GlcNAc
Class: Natural Product; Oligosaccharide; N-linked glycan; Complex type
Formula: C45H76N2O34
Exact mass: 1188.42795
SMILES: OC(C7O)C(OCC7O)OC(C(OC(C6O)OC(CO)C(O)C6O)1)C(OC(C(CO)3)C(O)C(C(OC(C(OC(O5)C(O)C(C(C5C)O)O)4)C(OC(O)C4NC(C)=O)CO)O3)NC(C)=O)OC(COC(O2)C(O)C(O)C(O)C2CO)C1O
InChI: InChI=1S/C45H76N2O34/c1-10-21(55)27(61)32(66)43(71-10)79-36-20(47-12(3)53)39(68)72-17(7-51)35(36)78-40-19(46-11(2)52)26(60)34(16(6-50)75-40)77-45-38(81-42-30(64)22(56)13(54)8-69-42)37(80-44-33(67)29(63)24(58)15(5-49)74-44)25(59)18(76-45)9-70-41-31(65)28(62)23(57)14(4-48)73-41/h10,13-45,48-51,54-68H,4-9H2,1-3H3,(H,46,52)(H,47,53)/t10-,13+,14+,15+,16+,17+,18+,19+,20+,21+,22-,23+,24+,25+,26+,27+,28-,29-,30+,31-,32-,33-,34+,35+,36+,37-,38-,39+,40-,41-,42-,43-,44+,45-/m0/s1
Instrument: 2695 HPLC Quadro Micro API, Waters
Instrument type: LC-ESI-QQ
Ms type: MS2
Ion mode: POSITIVE
Collision energy: 30.0 V
Ionization: ESI
Column name: Wakosil 5C18-200 2.0 mm X 250 mm (Wako)
Retention time: 18.560 min
Derivative form: C54H87N3O35
Derivative mass: 1337.51201
Derivative type: ABEE (p-Aminobenzoic acid ethyl ester)
Precursor m/z: 1338.00
Precursor type: [M+H]+
m/z	relative intensity
314.1	60
324.4	58
325.5	75
365.3	71
366.1	290
370.5	588
371.5	523
457.0	66
498.5	30
516.4	212
517.2	494
527.5	67
528.2	298
573.4	127
574.1	380
649.3	37
659.5	183
660.4	97
689.2	95
690.0	284
690.6	60
719.7	117
720.7	70
735.2	46
736.1	45
736.7	106
805.3	49
806.6	43
820.8	107
821.5	968
822.4	999
823.0	57
835.1	37
836.0	108
867.7	90
881.5	37
897.5	121
898.5	254
967.2	207
967.9	176
968.7	294
1029.1	53
1029.9	126
1030.9	70
1043.1	37
1044.0	40
1044.8	80
1059.4	143
1060.3	210
1145.9	38
1159.6	33
1175.3	160
1176.2	260
1177.0	48
1190.9	132
1191.7	552
1192.7	333
1193.3	49
1205.4	154
1206.1	66
1206.8	303
1291.9	45
1336.4	91
1337.1	723
1338.1	875
1338.9	762
1339.6	45
