Mass spectrum: Man6GlcNAc2-I; LC-ESI-QQ; MS2; CE:30V; Amide
Name: Man6GlcNAc2-I
Name: Man-alpha-1-6(Man-alpha-1-3)Man-alpha-1-6(Man-alpha-1-2Man-alpha-1-3)Man-beta-1-4GlcNAc-beta-1-4GlcNAc
Class: Natural Product; Oligosaccharide; N-linked glycan; High-mannose type
Formula: C52H88N2O41
Exact mass: 1396.48625
SMILES: C(O1)(OCC(O2)C(O)C(OC(C8O)OC(C(C8O)O)CO)C(C2OCC(C(O)5)OC(C(C5OC(O7)C(C(O)C(O)C(CO)7)OC(C(O)6)OC(C(O)C6O)CO)O)OC(C(O)3)C(CO)OC(OC(C4O)C(CO)OC(C4NC(C)=O)O)C3NC(C)=O)O)C(O)C(O)C(O)C1CO
InChI: InChI=1S/C52H88N2O41/c1-11(61)53-21-29(69)40(17(7-59)83-45(21)80)91-46-22(54-12(2)62)30(70)41(18(8-60)88-46)92-51-39(79)43(94-52-44(34(74)26(66)16(6-58)87-52)95-50-37(77)33(73)25(65)15(5-57)86-50)28(68)20(90-51)10-82-48-38(78)42(93-49-36(76)32(72)24(64)14(4-56)85-49)27(67)19(89-48)9-81-47-35(75)31(71)23(63)13(3-55)84-47/h13-52,55-60,63-80H,3-10H2,1-2H3,(H,53,61)(H,54,62)/t13-,14-,15-,16-,17-,18-,19-,20-,21-,22-,23-,24-,25-,26-,27-,28-,29-,30-,31+,32+,33+,34+,35+,36+,37+,38+,39+,40-,41-,42+,43+,44+,45-,46+,47+,48+,49-,50-,51+,52-/m1/s1
Instrument: 2695 HPLC Quadro Micro API, Waters
Instrument type: LC-ESI-QQ
Ms type: MS2
Ion mode: POSITIVE
Collision energy: 30.0 V
Ionization: ESI
Column name: TSK-GEL Amide-80 2.0 mm X 250 mm (TOSOH)
Retention time: 30.573 min
Derivative form: C61H99N3O42
Derivative mass: 1545.57031
Derivative type: ABEE (p-Aminobenzoic acid ethyl ester)
Precursor m/z: 1546.20
Precursor type: [M+H]+
m/z	relative intensity
324.9	47
365.6	113
366.2	31
367.0	17
370.2	55
371.0	133
372.0	33
486.3	20
487.2	12
527.1	36
527.8	78
572.6	11
573.5	127
574.3	70
575.2	13
648.8	11
688.9	35
689.8	91
690.6	26
735.0	24
735.8	18
737.3	10
850.9	35
851.9	74
852.7	26
853.4	10
897.3	36
898.2	36
1012.1	23
1012.9	82
1013.8	122
1014.7	67
1015.3	16
1058.5	16
1059.3	64
1060.2	111
1061.1	10
1174.0	60
1174.7	263
1175.7	471
1176.5	269
1177.3	105
1220.5	27
1221.5	105
1222.4	48
1223.3	28
1381.3	13
1382.2	64
1383.0	290
1383.8	289
1384.8	210
1385.6	35
1543.4	140
1544.2	385
1545.0	698
1545.9	999
1546.9	615
1547.6	45
