Mass spectrum: GlcNAcMan3GlcNAc2-I; LC-ESI-QQ; MS2; CE:25V; Amide
Name: GlcNAcMan3GlcNAc2-I
Name: GlcNAc-beta-1-2Man-alpha-1-6(Man-alpha-1-3)Man-beta-1-4GlcNAc-beta-1-4GlcNAc
Class: Natural Product; Oligosaccharide; N-linked glycan; Complex type
Formula: C42H71N3O31
Exact mass: 1113.40715
SMILES: C(C6O)(C(OC(C6NC(C)=O)OC(C5O)C(OC(C5NC(C)=O)O)CO)CO)OC(O2)C(C(C(C(COC(C3OC(O4)C(NC(C)=O)C(C(C4CO)O)O)OC(C(C(O)3)O)CO)2)O)OC(C1O)OC(C(C1O)O)CO)O
InChI: InChI=1S/C42H71N3O31/c1-10(51)43-19-27(59)33(16(7-49)67-37(19)65)73-39-21(45-12(3)53)28(60)34(17(8-50)71-39)74-41-32(64)35(75-40-31(63)29(61)23(55)14(5-47)69-40)25(57)18(72-41)9-66-42-36(30(62)24(56)15(6-48)70-42)76-38-20(44-11(2)52)26(58)22(54)13(4-46)68-38/h13-42,46-50,54-65H,4-9H2,1-3H3,(H,43,51)(H,44,52)(H,45,53)/t13-,14-,15-,16-,17-,18-,19-,20-,21-,22-,23-,24-,25-,26-,27-,28-,29+,30+,31+,32+,33-,34-,35+,36+,37-,38+,39+,40-,41+,42+/m1/s1
Instrument: 2695 HPLC Quadro Micro API, Waters
Instrument type: LC-ESI-QQ
Ms type: MS2
Ion mode: POSITIVE
Collision energy: 25.0 V
Ionization: ESI
Column name: TSK-GEL Amide-80 2.0 mm X 250 mm (TOSOH)
Retention time: 18.260 min
Derivative form: C51H82N4O32
Derivative mass: 1262.49122
Derivative type: ABEE (p-Aminobenzoic acid ethyl ester)
Precursor m/z: 1264.00
Precursor type: [M+H]+
m/z	relative intensity
325.4	61
366.2	59
367.2	42
370.2	207
370.9	111
526.9	127
527.9	312
528.7	43
573.6	71
574.4	100
575.0	32
611.6	46
628.1	37
671.4	40
688.8	296
689.7	240
690.3	78
691.1	43
708.2	51
734.5	65
735.4	80
736.3	90
751.9	54
891.2	117
892.1	482
893.1	272
894.3	131
896.5	222
897.2	74
897.9	378
898.8	213
1011.6	45
1012.3	42
1013.4	37
1021.0	51
1057.8	69
1058.6	365
1059.3	800
1060.2	430
1060.9	655
1061.5	48
1070.3	39
1097.6	48
1100.7	53
1101.4	33
1115.2	56
1118.4	57
1153.0	32
1158.2	59
1172.7	59
1192.5	33
1201.1	36
1225.5	61
1244.5	42
1252.5	43
1260.6	66
1261.2	304
1262.1	999
1262.8	218
1263.5	856
1264.2	206
