Mass spectrum: Man4GlcNAc2-II; LC-ESI-QQ; MS2; CE:25V; Amide
Name: Man4GlcNAc2-II
Name: Man-alpha-1-3Man-alpha-1-6(Man-alpha-1-3)Man-beta-1-4GlcNAc-beta-1-4GlcNAc
Class: Natural Product; Oligosaccharide; N-linked glycan; High-mannose type
Formula: C40H68N2O31
Exact mass: 1072.38060
SMILES: C(C(O)5)(OC(C(O)C5OC(C(O)6)OC(C(C(O)6)O)CO)OCC(C1O)OC(OC(C4O)C(OC(C4NC(C)=O)OC(C(O)3)C(CO)OC(C3NC(C)=O)O)CO)C(O)C1OC(C2O)OC(C(C(O)2)O)CO)CO
InChI: InChI=1S/C40H68N2O31/c1-9(48)41-17-23(54)31(14(6-46)64-35(17)62)70-36-18(42-10(2)49)24(55)32(15(7-47)68-36)71-40-30(61)34(73-39-28(59)26(57)20(51)12(4-44)67-39)22(53)16(69-40)8-63-37-29(60)33(21(52)13(5-45)65-37)72-38-27(58)25(56)19(50)11(3-43)66-38/h11-40,43-47,50-62H,3-8H2,1-2H3,(H,41,48)(H,42,49)/t11-,12-,13-,14-,15-,16-,17-,18-,19-,20-,21-,22-,23-,24-,25+,26+,27+,28+,29+,30+,31-,32-,33+,34+,35-,36+,37+,38-,39-,40+/m1/s1
Instrument: 2695 HPLC Quadro Micro API, Waters
Instrument type: LC-ESI-QQ
Ms type: MS2
Ion mode: POSITIVE
Collision energy: 25.0 V
Ionization: ESI
Column name: TSK-GEL Amide-80 2.0 mm X 250 mm (TOSOH)
Retention time: 19.511 min
Derivative form: C49H79N3O32
Derivative mass: 1221.46467
Derivative type: ABEE (p-Aminobenzoic acid ethyl ester)
Precursor m/z: 1222.10
Precursor type: [M+H]+
m/z	relative intensity
324.3	12
325.1	14
365.0	16
365.6	89
366.5	16
370.1	46
370.8	294
371.5	40
372.3	17
486.7	16
526.7	11
527.4	109
528.3	47
573.0	49
573.9	110
574.6	24
688.6	45
689.5	215
690.2	87
691.1	22
735.0	12
735.6	63
850.3	44
851.0	265
851.9	494
852.8	119
853.4	23
896.5	46
897.2	94
898.0	135
898.9	54
899.5	12
1058.1	33
1058.9	283
1059.4	10
1059.9	390
1060.7	168
1061.5	17
1220.1	258
1221.0	636
1221.9	999
1222.8	310
1223.5	47
