Mass spectrum: Man2XylManGlcNAcFucGlcNAc; LC-ESI-QQ; MS2; CE:40V; ODS
Name: Man2XylManGlcNAcFucGlcNAc
Name: Man-alpha-1-6(Man-alpha-1-3)(Xyl-beta-1-2)Man-beta-1-4GlcNAc-beta-1-4(Fuc-alpha-1-3)GlcNAc
Class: Natural Product; Oligosaccharide; N-linked glycan; Complex type
Formula: C45H76N2O34
Exact mass: 1188.42795
SMILES: OC(C7O)C(OCC7O)OC(C(OC(C6O)OC(CO)C(O)C6O)1)C(OC(C(CO)3)C(O)C(C(OC(C(OC(O5)C(O)C(C(C5C)O)O)4)C(OC(O)C4NC(C)=O)CO)O3)NC(C)=O)OC(COC(O2)C(O)C(O)C(O)C2CO)C1O
InChI: InChI=1S/C45H76N2O34/c1-10-21(55)27(61)32(66)43(71-10)79-36-20(47-12(3)53)39(68)72-17(7-51)35(36)78-40-19(46-11(2)52)26(60)34(16(6-50)75-40)77-45-38(81-42-30(64)22(56)13(54)8-69-42)37(80-44-33(67)29(63)24(58)15(5-49)74-44)25(59)18(76-45)9-70-41-31(65)28(62)23(57)14(4-48)73-41/h10,13-45,48-51,54-68H,4-9H2,1-3H3,(H,46,52)(H,47,53)/t10-,13+,14+,15+,16+,17+,18+,19+,20+,21+,22-,23+,24+,25+,26+,27+,28-,29-,30+,31-,32-,33-,34+,35+,36+,37-,38-,39+,40-,41-,42-,43-,44+,45-/m0/s1
Instrument: 2695 HPLC Quadro Micro API, Waters
Instrument type: LC-ESI-QQ
Ms type: MS2
Ion mode: POSITIVE
Collision energy: 40.0 V
Ionization: ESI
Column name: Wakosil 5C18-200 2.0 mm X 250 mm (Wako)
Retention time: 18.753 min
Derivative form: C54H87N3O35
Derivative mass: 1337.51201
Derivative type: ABEE (p-Aminobenzoic acid ethyl ester)
Precursor m/z: 1338.00
Precursor type: [M+H]+
m/z	relative intensity
314.3	29
324.9	193
325.5	47
365.5	173
366.4	238
370.2	86
370.9	999
371.5	314
413.2	23
457.2	20
470.7	23
498.1	41
498.9	22
509.9	21
516.9	111
527.2	126
528.1	238
528.7	39
573.5	308
574.4	198
659.6	70
660.4	56
689.3	139
690.1	243
690.7	21
706.3	22
720.5	25
735.1	28
736.3	84
800.0	21
820.8	28
821.5	182
822.4	238
835.8	38
852.0	37
852.8	22
897.3	62
898.7	25
968.0	34
1059.9	24
1060.7	31
1206.7	23
