Mass spectrum: rubusoside; LC-ESI-QQ; MS2; CE:20V; [M-H]-
Name: rubusoside
Class: Natural Product; Steviol glycoside
Formula: C32H50O13
Exact mass: 642.32514
SMILES: C(C1O)(O)C(C(OC(OC(C6)(C2)C(=C)CC(C3)2C(C6)([H])C(C4)(C(C(C)(C(=O)OC(O5)C(C(C(C(CO)5)O)O)O)CC4)([H])C3)C)1)CO)O
InChI: InChI=1S/C32H50O13/c1-15-11-31-9-5-18-29(2,7-4-8-30(18,3)28(41)44-26-24(39)22(37)20(35)16(12-33)42-26)19(31)6-10-32(15,14-31)45-27-25(40)23(38)21(36)17(13-34)43-27/h16-27,33-40H,1,4-14H2,2-3H3/t16-,17-,18+,19+,20-,21-,22+,23+,24-,25-,26+,27+,29-,30-,31-,32+/m1/s1
Instrument: 2695 HPLC Quadro Micro API, Waters
Instrument type: LC-ESI-QQ
Ms type: MS2
Ion mode: NEGATIVE
Collision energy: 20.0 V
Ionization: ESI
Column name: TSK-GEL Amide-80 2.0 mm X 250 mm (TOSOH)
Retention time: 6.040 min
Precursor m/z: 641.00
Precursor type: [M-H]-
m/z	relative intensity
478.2	71
478.9	999
496.3	15
497.0	45
640.1	68
640.9	157
