Mass spectrum: 3-Man3GlcNAc; LC-ESI-QQ; MS2; CE:15V; ODS
Name: 3-Man3GlcNAc
Name: Man-alpha-1-2Man-alpha-1-3Man-beta-1-4GlcNAc
Class: Natural Product; Oligosaccharide; N-linked glycan; High-mannose type
Formula: C26H45NO21
Exact mass: 707.24841
SMILES: CC(=O)N[C@@H]1[C@H]([C@@H]([C@H](O[C@@H]1O)CO)O[C@H]2[C@H]([C@H]([C@@H]([C@H](O2)CO)O)O[C@@H]3[C@H]([C@H]([C@@H]([C@H](O3)CO)O)O)O[C@@H]4[C@H]([C@H]([C@@H]([C@H](O4)CO)O)O)O)O)O
InChI: InChI=1S/C26H45NO21/c1-6(32)27-11-15(36)20(10(5-31)42-23(11)41)46-25-19(40)21(14(35)9(4-30)44-25)47-26-22(17(38)13(34)8(3-29)45-26)48-24-18(39)16(37)12(33)7(2-28)43-24/h7-26,28-31,33-41H,2-5H2,1H3,(H,27,32)/t7-,8-,9-,10-,11-,12-,13-,14-,15-,16+,17+,18+,19+,20-,21+,22+,23+,24-,25+,26-/m1/s1
Instrument: 2695 HPLC Quadro Micro API, Waters
Instrument type: LC-ESI-QQ
Ms type: MS2
Ion mode: POSITIVE
Collision energy: 15.0 V
Ionization: ESI
Column name: Wakosil 5C18-200 2.0 mm X 250 mm (Wako)
Retention time: 43.089 min
Derivative form: C35H56N2O22
Derivative mass: 856.33247
Derivative type: ABEE (p-Aminobenzoic acid ethyl ester)
Precursor m/z: 857.30
Precursor type: [M+H]+
m/z	relative intensity
370.4	38
371.0	100
532.1	25
532.9	78
695.0	40
856.1	470
857.1	999
857.9	288
858.6	83
