Mass spectrum: rebaudioside O; LC-ESI-QQ; MS2; CE:80V; [M-H]-
Name: rebaudioside O
Class: Natural Product; Steviol glycoside
Formula: C62H100O37
Exact mass: 1436.59434
SMILES: O(C(C(OC(C%10O)OC(C(C%10OC(O%11)C(O)C(C(C%11CO)O)O)O)C)8)OC(C(C8OC(C9O)OC(C(C9O)O)CO)O)CO)C(C(C17[H])(C)CCCC(C)1C([H])(C6)C(C5)(CC7)CC(C6)(C(=C)5)OC(C(OC(O4)C(O)C(C(C(CO)4)O)O)2)OC(CO)C(O)C(OC(C(O)3)OC(C(O)C3O)CO)2)=O
InChI: InChI=1S/C62H100O37/c1-20-12-61-10-6-28-59(3,29(61)7-11-62(20,19-61)99-57-50(97-54-44(83)40(79)34(73)25(16-66)90-54)48(36(75)27(18-68)92-57)95-53-43(82)39(78)33(72)24(15-65)89-53)8-5-9-60(28,4)58(85)98-56-49(47(35(74)26(17-67)91-56)94-52-42(81)38(77)32(71)23(14-64)88-52)96-55-45(84)46(30(69)21(2)86-55)93-51-41(80)37(76)31(70)22(13-63)87-51/h21-57,63-84H,1,5-19H2,2-4H3/t21-,22+,23+,24+,25+,26+,27+,28-,29-,30-,31+,32+,33+,34+,35+,36+,37-,38-,39-,40-,41+,42+,43+,44+,45+,46+,47-,48-,49+,50+,51-,52-,53-,54-,55-,56-,57-,59+,60+,61+,62-/m0/s1
Instrument: 2695 HPLC Quadro Micro API, Waters
Instrument type: LC-ESI-QQ
Ms type: MS2
Ion mode: NEGATIVE
Collision energy: 80.0 V
Ionization: ESI
Column name: TSK-GEL Amide-80 2.0 mm X 250 mm (TOSOH)
Retention time: 45.592 min
Precursor m/z: 1435.00
Precursor type: [M-H]-
m/z	relative intensity
316.8	10
317.6	36
412.8	14
413.7	22
461.5	14
478.7	22
479.6	31
622.8	27
623.7	41
640.0	11
640.7	246
641.6	400
642.2	30
802.0	47
802.6	826
803.1	34
803.7	999
804.4	47
1272.6	16
