Mass spectrum: Man3GlcNAcFucGlcNAc; LC-ESI-QQ; MS2; CE:30V; Amide
Name: Man3GlcNAcFucGlcNAc
Name: Man-alpha-1-6(Man-alpha-1-3)Man-beta-1-4GlcNAc-beta-1-4(Fuc-alpha-1-6)GlcNAc
Class: Natural Product; Oligosaccharide; N-linked glycan; Complex type
Formula: C40H68N2O30
Exact mass: 1056.38569
SMILES: N(C(C6O)C(O)C(C(O6)COC(C5O)OC(C(C(O)5)O)C)OC(C4NC(C)=O)OC(CO)C(C4O)OC(C2O)OC(C(C2OC(O3)C(O)C(C(C3CO)O)O)O)COC(O1)C(C(O)C(O)C1CO)O)C(C)=O
InChI: InChI=1S/C40H68N2O30/c1-9-19(48)25(54)28(57)37(64-9)63-8-16-33(23(52)17(35(61)65-16)41-10(2)46)70-36-18(42-11(3)47)24(53)32(14(6-45)68-36)71-40-31(60)34(72-39-30(59)27(56)21(50)13(5-44)67-39)22(51)15(69-40)7-62-38-29(58)26(55)20(49)12(4-43)66-38/h9,12-40,43-45,48-61H,4-8H2,1-3H3,(H,41,46)(H,42,47)/t9-,12+,13+,14+,15+,16+,17+,18+,19+,20+,21+,22+,23+,24+,25+,26-,27-,28-,29-,30-,31-,32+,33+,34-,35+,36-,37+,38-,39+,40-/m0/s1
Instrument: 2695 HPLC Quadro Micro API, Waters
Instrument type: LC-ESI-QQ
Ms type: MS2
Ion mode: POSITIVE
Collision energy: 30.0 V
Ionization: ESI
Column name: TSK-GEL Amide-80 2.0 mm X 250 mm (TOSOH)
Retention time: 17.161 min
Derivative form: C49H79N3O31
Derivative mass: 1205.46975
Derivative type: ABEE (p-Aminobenzoic acid ethyl ester)
Precursor m/z: 1207.00
Precursor type: [M+H]+
m/z	relative intensity
325.2	118
365.6	219
366.4	246
367.3	34
370.9	540
371.7	331
372.6	31
516.8	124
517.7	153
518.6	51
527.4	62
528.1	236
528.8	51
573.3	36
573.9	188
574.7	190
674.4	40
689.5	554
690.5	999
691.2	419
692.0	35
719.3	32
720.0	35
720.8	33
735.6	40
736.3	93
737.1	57
835.1	65
836.1	90
836.9	167
898.0	157
898.7	43
899.3	148
1043.2	34
1044.1	68
1045.6	74
1060.0	124
1061.2	187
1062.0	60
1205.0	87
1205.8	215
1206.4	36
1207.1	348
1208.0	143
