Mass spectrum: GlcNAc2Man2GlcNAcManGlcNAcFucGlcNAc; LC-ESI-QQ; MS2; CE:35V; Amide
Name: GlcNAc2Man2GlcNAcManGlcNAcFucGlcNAc
Name: GlcNAc-beta-1-2Man-alpha-1-6(GlcNAc-beta-1-4)(GlcNAc-beta-1-2Man-alpha-1-3)Man-beta-1-4GlcNAc-beta-1-4(Fuc-alpha-1-6)GlcNAc
Class: Natural Product; Oligosaccharide; N-linked glycan; Complex type
Formula: C64H107N5O45
Exact mass: 1665.62381
SMILES: C(C1O)(C(OC(C8COC(C9O)OC(C(O)C9O)C)C(C(NC(C)=O)C(O)O8)O)OC(CO)C1OC(C(O)4)OC(C(OC(O7)C(NC(C)=O)C(O)C(C(CO)7)O)C(OC(O5)C(OC(C6NC(C)=O)OC(C(C6O)O)CO)C(O)C(O)C5CO)4)COC(O2)C(OC(O3)C(C(C(C3CO)O)O)NC(C)=O)C(O)C(C2CO)O)NC(C)=O
InChI: InChI=1S/C64H107N5O45/c1-15-34(81)45(92)48(95)61(100-15)98-13-27-51(43(90)29(56(97)101-27)65-16(2)76)109-60-33(69-20(6)80)44(91)50(26(12-75)107-60)110-62-49(96)53(112-64-55(47(94)39(86)25(11-74)106-64)114-59-32(68-19(5)79)42(89)37(84)23(9-72)104-59)52(111-57-30(66-17(3)77)40(87)35(82)21(7-70)102-57)28(108-62)14-99-63-54(46(93)38(85)24(10-73)105-63)113-58-31(67-18(4)78)41(88)36(83)22(8-71)103-58/h15,21-64,70-75,81-97H,7-14H2,1-6H3,(H,65,76)(H,66,77)(H,67,78)(H,68,79)(H,69,80)/t15-,21+,22+,23+,24+,25+,26+,27+,28+,29+,30+,31+,32+,33+,34+,35+,36+,37+,38+,39+,40+,41+,42+,43+,44+,45+,46-,47-,48-,49-,50+,51+,52+,53+,54-,55-,56+,57-,58-,59-,60-,61+,62-,63-,64+/m0/s1
Instrument: 2695 HPLC Quadro Micro API, Waters
Instrument type: LC-ESI-QQ
Ms type: MS2
Ion mode: POSITIVE
Collision energy: 35.0 V
Ionization: ESI
Column name: TSK-GEL Amide-80 2.0 mm X 250 mm (TOSOH)
Retention time: 26.921 min
Derivative form: C73H118N6O46
Derivative mass: 1814.70787
Derivative type: ABEE (p-Aminobenzoic acid ethyl ester)
Precursor m/z: 1816.00
Precursor type: [M+H]+
m/z	relative intensity
349.2	177
350.2	114
365.3	648
366.2	380
370.7	833
371.5	215
372.2	154
497.5	193
517.2	149
527.1	123
527.8	261
568.0	147
569.0	529
573.0	198
573.9	503
575.0	563
718.8	249
720.1	134
730.2	999
735.9	384
881.5	185
891.3	119
893.1	292
910.9	132
998.0	138
1043.0	103
1080.0	107
1084.4	115
1093.9	245
1095.9	308
1096.7	206
1100.9	343
1102.2	150
1205.6	126
1217.5	173
1246.2	115
1247.1	186
1261.6	282
1262.8	370
1296.8	203
1297.6	251
1298.8	694
1300.1	508
1302.6	117
1407.0	387
1407.7	117
1408.3	599
1409.9	352
1447.5	107
1450.4	251
1463.3	111
1466.6	108
1609.5	315
1610.4	906
1611.6	707
1612.4	449
1613.3	175
1752.4	405
1812.9	300
1813.8	589
1814.9	355
1815.6	174
1816.3	228
