Mass spectrum: GalGlcNAc2Man3GlcNAcFucGlcNAc-II; LC-ESI-QQ; MS2; CE:20V; Amide
Name: GalGlcNAc2Man3GlcNAcFucGlcNAc-II
Name: GlcNAc-beta-1-2Man-alpha-1-6(Gal-beta-1-4GlcNAc-beta-1-2Man-alpha-1-3)Man-beta-1-4GlcNAc-beta-1-4(Fuc-alpha-1-6)GlcNAc
Class: Natural Product; Oligosaccharide; N-linked glycan; Complex type
Formula: C62H104N4O45
Exact mass: 1624.59726
SMILES: C(C(CO)3)(C(O)C(C(OC(C(O)4)C(O)C(COC(C8OC(O9)C(NC(C)=O)C(O)C(O)C9CO)OC(CO)C(O)C8O)OC4OC(C(CO)7)C(O)C(C(O7)OC(C(COC(O6)C(O)C(C(C(C)6)O)O)5)C(C(NC(C)=O)C(O)O5)O)NC(C)=O)O3)OC(C(NC(C)=O)2)OC(C(C2O)OC(O1)C(C(C(O)C1CO)O)O)CO)O
InChI: InChI=1S/C62H104N4O45/c1-14-31(77)41(87)45(91)58(97-14)95-13-26-50(38(84)27(54(94)98-26)63-15(2)73)106-56-29(65-17(4)75)39(85)49(24(11-72)103-56)108-60-47(93)51(36(82)25(105-60)12-96-61-52(43(89)34(80)21(8-69)101-61)110-55-28(64-16(3)74)37(83)32(78)19(6-67)99-55)109-62-53(44(90)35(81)22(9-70)102-62)111-57-30(66-18(5)76)40(86)48(23(10-71)104-57)107-59-46(92)42(88)33(79)20(7-68)100-59/h14,19-62,67-72,77-94H,6-13H2,1-5H3,(H,63,73)(H,64,74)(H,65,75)(H,66,76)/t14-,19+,20+,21+,22+,23+,24+,25+,26+,27+,28+,29+,30+,31+,32+,33-,34+,35+,36+,37+,38+,39+,40+,41+,42-,43-,44-,45-,46+,47-,48+,49+,50+,51-,52-,53-,54+,55-,56-,57-,58+,59-,60-,61-,62+/m0/s1
Instrument: 2695 HPLC Quadro Micro API, Waters
Instrument type: LC-ESI-QQ
Ms type: MS2
Ion mode: POSITIVE
Collision energy: 20.0 V
Ionization: ESI
Column name: TSK-GEL Amide-80 2.0 mm X 250 mm (TOSOH)
Retention time: 29.983 min
Derivative form: C71H115N5O46
Derivative mass: 1773.68132
Derivative type: ABEE (p-Aminobenzoic acid ethyl ester)
Precursor m/z: 1774.00
Precursor type: [M+H]+
m/z	relative intensity
365.9	11
366.6	24
371.4	5
511.6	7
719.5	6
730.5	8
1042.7	12
1101.6	12
1205.0	9
1205.9	5
1207.2	9
1245.6	8
1246.8	11
1248.1	7
1255.9	7
1257.1	22
1258.0	33
1259.0	8
1262.2	5
1263.1	10
1390.5	5
1406.7	27
1407.4	10
1408.0	38
1408.9	102
1409.6	18
1410.4	32
1411.2	9
1569.3	17
1570.1	45
1571.1	42
1572.1	13
1627.5	11
1745.3	18
1755.7	5
1769.4	5
1770.9	103
1771.7	412
1772.5	732
1773.5	999
1774.0	18
1774.6	712
1775.3	303
1776.2	66
