Mass spectrum: Gal2GlcNAc2Man3GlcNAc2; LC-ESI-QQ; MS2; CE:25V; Amide
Name: Gal2GlcNAc2Man3GlcNAc2
Name: Gal-beta-1-4GlcNAc-beta-1-2Man-alpha-1-6(Gal-beta-1-4GlcNAc-beta-1-2Man-alpha-1-3)Man-beta-1-4GlcNAc-beta-1-4GlcNAc
Class: Natural Product; Oligosaccharide; N-linked glycan; Complex type
Formula: C62H104N4O46
Exact mass: 1640.59217
SMILES: C(C(O2)C(C(O)C(C(OC(C9O)C(OC(C9O)CO)OC(C3O)C(O)C(COC(O8)C(C(O)C(O)C(CO)8)OC(C6NC(C)=O)OC(C(OC(C7O)OC(C(C7O)O)CO)C6O)CO)OC3OC(C5O)C(CO)OC(C5NC(C)=O)OC(C4CO)C(C(C(O)O4)NC(C)=O)O)2)NC(C)=O)OC(O1)C(C(C(O)C1CO)O)O)O
InChI: InChI=1S/C62H104N4O46/c1-14(75)63-27-36(84)47(22(9-71)97-54(27)95)106-55-28(64-15(2)76)37(85)50(25(12-74)102-55)109-60-46(94)51(110-62-53(43(91)34(82)21(8-70)101-62)112-57-30(66-17(4)78)39(87)49(24(11-73)104-57)108-59-45(93)41(89)32(80)19(6-68)99-59)35(83)26(105-60)13-96-61-52(42(90)33(81)20(7-69)100-61)111-56-29(65-16(3)77)38(86)48(23(10-72)103-56)107-58-44(92)40(88)31(79)18(5-67)98-58/h18-62,67-74,79-95H,5-13H2,1-4H3,(H,63,75)(H,64,76)(H,65,77)(H,66,78)/t18-,19-,20-,21-,22-,23-,24-,25-,26-,27-,28-,29-,30-,31+,32+,33-,34-,35-,36-,37-,38-,39-,40+,41+,42+,43+,44-,45-,46+,47-,48-,49-,50-,51+,52+,53+,54-,55+,56+,57+,58+,59+,60+,61+,62-/m1/s1
Instrument: 2695 HPLC Quadro Micro API, Waters
Instrument type: LC-ESI-QQ
Ms type: MS2
Ion mode: POSITIVE
Collision energy: 25 V
Ionization: ESI
Column name: TSK-GEL Amide-80 2.0 mm X 250 mm (TOSOH)
Retention time: 31.480 min
Derivative form: C71H115N5O47
Derivative mass: 1789.67624
Derivative type: ABEE (p-Aminobenzoic acid ethyl ester)
Precursor m/z: 1791.00
Precursor type: [M+H]+
m/z	relative intensity
365.3	45
366.0	95
370.3	13
526.9	36
527.8	17
575.1	14
690.5	11
735.3	30
735.9	12
736.8	14
892.7	21
896.7	41
897.7	19
898.3	71
1035.5	14
1053.5	14
1054.4	30
1055.6	21
1058.4	19
1059.1	50
1059.7	11
1060.3	77
1061.0	17
1099.1	15
1102.7	19
1221.5	11
1261.9	33
1263.0	42
1264.0	17
1417.8	28
1418.6	12
1419.3	62
1420.2	72
1420.7	11
1422.7	177
1423.3	43
1423.9	236
1424.8	450
1425.8	183
1426.6	14
1428.4	18
1626.9	11
1704.6	30
1786.3	20
1787.0	102
1787.8	545
1788.8	812
1789.3	17
1789.9	999
1790.7	492
1791.5	56
