Mass spectrum: Man4GlcNAc-III; LC-ESI-QQ; MS2; CE:25V; ODS
Name: Man4GlcNAc-III
Name: Man-alpha-1-3Man-alpha-1-6(Man-alpha-1-3)Man-beta-1-7GlcNAc
Class: Natural Product; Oligosaccharide; N-linked glycan; High-mannose type
Formula: C32H55NO26
Exact mass: 869.30123
SMILES: CC(=O)N[C@@H]1[C@H]([C@@H]([C@H](O[C@H]1O)CO)O[C@H]2[C@H]([C@H]([C@@H]([C@H](O2)CO[C@@H]3[C@H]([C@H]([C@@H]([C@H](O3)CO)O)O[C@@H]4[C@H]([C@H]([C@@H]([C@H](O4)CO)O)O)O)O)O)O[C@@H]5[C@H]([C@H]([C@@H]([C@H](O5)CO)O)O)O)O)O
InChI: InChI=1S/C32H55NO26/c1-7(38)33-13-18(43)25(11(5-37)52-28(13)50)57-32-24(49)27(59-31-22(47)20(45)15(40)9(3-35)55-31)17(42)12(56-32)6-51-29-23(48)26(16(41)10(4-36)53-29)58-30-21(46)19(44)14(39)8(2-34)54-30/h8-32,34-37,39-50H,2-6H2,1H3,(H,33,38)/t8-,9-,10-,11-,12-,13-,14-,15-,16-,17-,18-,19+,20+,21+,22+,23+,24+,25-,26+,27+,28-,29+,30-,31-,32+/m1/s1
Instrument: 2695 HPLC Quadro Micro API, Waters
Instrument type: LC-ESI-QQ
Ms type: MS2
Ion mode: POSITIVE
Collision energy: 25.0 V
Ionization: ESI
Column name: Wakosil 5C18-200 2.0 mm X 250 mm (Wako)
Retention time: 21.833 min
Derivative form: C41H66N2O27
Derivative mass: 1018.38529
Derivative type: ABEE (p-Aminobenzoic acid ethyl ester)
Precursor m/z: 1019.30
Precursor type: [M+H]+
m/z	relative intensity
324.7	44
370.2	64
370.8	609
371.5	235
372.3	52
532.1	75
532.8	479
533.7	143
534.4	54
648.7	39
694.2	392
695.0	999
695.9	396
696.5	36
855.5	68
856.2	320
856.8	66
857.3	589
858.3	164
1017.4	30
1018.0	501
1019.0	785
1019.8	587
1020.6	265
