Mass spectrum: rebaudioside B; LC-ESI-QQ; MS2; CE:60V; [M-H]-
Name: rebaudioside B
Class: Natural Product; Steviol glycoside
Formula: C38H60O18
Exact mass: 804.37797
SMILES: C(O)(=O)C(C)(C7)C([H])(C6)C(CC7)(C(C2(C6)1)([H])CCC(OC(C3OC(O5)C(O)C(C(O)C(CO)5)O)OC(C(C3OC(O4)C(O)C(C(C(CO)4)O)O)O)CO)(C2)C(=C)C1)C
InChI: InChI=1S/C38H60O18/c1-16-11-37-9-5-20-35(2,7-4-8-36(20,3)34(49)50)21(37)6-10-38(16,15-37)56-33-30(55-32-28(48)26(46)23(43)18(13-40)52-32)29(24(44)19(14-41)53-33)54-31-27(47)25(45)22(42)17(12-39)51-31/h17-33,39-48H,1,4-15H2,2-3H3,(H,49,50)/t17-,18-,19-,20+,21+,22-,23-,24-,25+,26+,27-,28-,29+,30-,31+,32+,33+,35-,36-,37-,38+/m1/s1
Instrument: 2695 HPLC Quadro Micro API, Waters
Instrument type: LC-ESI-QQ
Ms type: MS2
Ion mode: NEGATIVE
Collision energy: 60.0 V
Ionization: ESI
Column name: TSK-GEL Amide-80 2.0 mm X 250 mm (TOSOH)
Retention time: 8.067 min
Precursor m/z: 803.00
Precursor type: [M-H]-
m/z	relative intensity
316.5	83
317.1	999
317.8	70
318.5	11
331.2	16
371.0	22
372.3	19
373.1	60
412.4	121
413.1	471
413.7	36
414.7	10
424.9	14
431.0	10
442.9	32
460.8	158
461.5	54
478.4	284
479.1	991
479.8	62
480.6	23
622.3	19
623.1	41
623.9	12
640.1	99
640.7	550
641.4	286
642.2	46
802.5	49
803.3	86
804.3	20
