Mass spectrum: GalNAcFucGlcNAcGA-II; LC-ESI-QQ; MS2; CE:20V; [M+H]+
Name: GalNAcFucGlcNAcGA-II
Name: GalNAc-beta-1-4(Fuc-alpha-1-3)GlcNAc-beta-1-2GA (GA, glycolaldehyde)
Class: Natural Product; Oligosaccharide; O-linked glycan
Formula: C24H40N2O16
Exact mass: 612.23778
SMILES: O=CCOC(O1)C(NC(C)=O)C(OC(O3)C(O)C(O)C(O)C(C)3)C(OC(O2)C(NC(C)=O)C(O)C(O)C(CO)2)C(CO)1
InChI: InChI=1S/C24H40N2O16/c1-8-15(32)18(35)19(36)24(38-8)42-21-14(26-10(3)31)22(37-5-4-27)40-12(7-29)20(21)41-23-13(25-9(2)30)17(34)16(33)11(6-28)39-23/h4,8,11-24,28-29,32-36H,5-7H2,1-3H3,(H,25,30)(H,26,31)/t8-,11+,12+,13+,14+,15+,16-,17+,18+,19-,20+,21+,22+,23-,24-/m0/s1
Instrument: 2695 HPLC Quadro Micro API, Waters
Instrument type: LC-ESI-QQ
Ms type: MS2
Ion mode: POSITIVE
Collision energy: 20.0 V
Ionization: ESI
Column name: TSK-GEL Amide-80 2.0 mm X 250 mm (TOSOH)
Retention time: 11.866 min
Derivative form: C33H51N3O17
Derivative mass: 761.32185
Derivative type: ABEE (p-Aminobenzoic acid ethyl ester)
Precursor m/z: 762.00
Precursor type: [M+H]+
m/z	relative intensity
203.3	115
204.0	999
204.9	17
205.8	16
209.4	16
210.1	24
221.4	18
222.0	200
271.6	11
287.9	50
300.0	22
309.5	13
317.5	123
318.3	43
331.9	22
349.0	63
349.7	612
350.4	45
355.5	52
358.1	15
358.9	22
366.3	119
367.2	128
368.0	25
376.1	88
376.8	199
388.9	11
394.2	34
394.8	116
395.9	10
405.8	64
406.4	659
407.1	305
407.9	23
411.9	23
412.6	513
413.3	120
463.0	15
494.8	18
512.0	23
512.8	22
523.0	11
524.5	10
534.1	15
548.0	18
548.8	36
551.8	155
552.5	310
553.3	54
554.1	18
557.9	50
558.8	84
569.0	41
569.9	26
570.9	14
597.5	49
614.6	26
615.2	74
616.2	40
716.1	24
743.2	39
744.1	51
751.8	11
760.5	31
761.2	157
762.1	42
762.9	10
