Mass spectrum: Man7GlcNAc2-I; LC-ESI-QQ; MS2; CE:35V; Amide
Name: Man7GlcNAc2-I
Name: Man-alpha-1-2Man-alpha-1-6(Man-alpha-1-3)Man-alpha-1-6(Man-alpha-1-2Man-alpha-1-3)Man-beta-1-4GlcNAc-beta-1-4GlcNAc
Class: Natural Product; Oligosaccharide; N-linked glycan; High-mannose type
Formula: C58H98N2O46
Exact mass: 1558.53907
SMILES: O(C(O7)C(O)C(C(C7COC(C8OC(O9)C(O)C(C(O)C9CO)O)OC(C(C(O)8)O)CO)O)OC(C6O)OC(C(C6O)O)CO)CC(C3O)OC(C(C(OC(O5)C(C(C(O)C5CO)O)OC(O4)C(O)C(O)C(O)C(CO)4)3)O)OC(C(CO)1)C(C(NC(C)=O)C(OC(C2O)C(OC(C2NC(C)=O)O)CO)O1)O
InChI: InChI=1S/C58H98N2O46/c1-12(68)59-23-32(77)44(19(8-66)92-50(23)89)101-51-24(60-13(2)69)33(78)45(20(9-67)98-51)102-56-43(88)47(104-58-49(38(83)29(74)18(7-65)97-58)106-55-41(86)36(81)27(72)16(5-63)95-55)31(76)22(100-56)10-90-52-42(87)46(103-53-39(84)34(79)25(70)14(3-61)93-53)30(75)21(99-52)11-91-57-48(37(82)28(73)17(6-64)96-57)105-54-40(85)35(80)26(71)15(4-62)94-54/h14-58,61-67,70-89H,3-11H2,1-2H3,(H,59,68)(H,60,69)/t14-,15-,16-,17-,18-,19-,20-,21-,22-,23-,24-,25-,26-,27-,28-,29-,30-,31-,32-,33-,34+,35+,36+,37+,38+,39+,40+,41+,42+,43+,44-,45-,46+,47+,48+,49+,50-,51+,52+,53-,54-,55-,56+,57+,58-/m1/s1
Instrument: 2695 HPLC Quadro Micro API, Waters
Instrument type: LC-ESI-QQ
Ms type: MS2
Ion mode: POSITIVE
Collision energy: 35.0 V
Ionization: ESI
Column name: TSK-GEL Amide-80 2.0 mm X 250 mm (TOSOH)
Retention time: 35.291 min
Derivative form: C67H109N3O47
Derivative mass: 1707.62314
Derivative type: ABEE (p-Aminobenzoic acid ethyl ester)
Precursor m/z: 1708.00
Precursor type: [M+H]+
m/z	relative intensity
323.7	46
324.7	287
365.9	164
370.6	226
371.3	539
527.1	49
527.8	163
528.6	161
572.9	43
574.0	466
574.7	98
648.8	44
665.3	52
689.4	212
690.1	71
734.5	57
736.1	68
851.3	105
852.0	65
852.7	145
1012.9	99
1014.2	50
1059.7	172
1060.8	140
1174.4	160
1175.3	250
1176.6	138
1177.5	51
1219.9	60
1221.4	185
1222.1	66
1223.0	60
1335.9	272
1336.4	48
1337.0	739
1338.0	691
1338.9	372
1381.8	51
1382.7	124
1383.8	475
1384.5	80
1498.2	99
1542.7	61
1543.3	222
1543.9	106
1544.8	319
1545.6	569
1546.7	238
1705.0	394
1706.0	799
1706.6	184
1707.2	999
1708.1	753
1708.9	357
