Mass spectrum: Man6GlcNAc-VI; LC-ESI-QQ; MS2; CE:30V; Amide
Name: Man6GlcNAc-VI
Name: Man-alpha-1-2Man-alpha-1-3Man-alpha-1-6(Man-alpha-1-2Man-alpha-1-3)Man-beta-1-4GlcNAc
Class: Natural Product; Oligosaccharide; N-linked glycan; High-mannose type
Formula: C44H75NO36
Exact mass: 1193.40688
SMILES: CC(=O)N[C@@H]1[C@H]([C@@H]([C@H](O[C@H]1O)CO)O[C@H]2[C@H]([C@H]([C@@H]([C@H](O2)CO[C@@H]3[C@H]([C@H]([C@@H]([C@H](O3)CO)O)O[C@@H]4[C@H]([C@H]([C@@H]([C@H](O4)CO)O)O)O[C@@H]5[C@H]([C@H]([C@@H]([C@H](O5)CO)O)O)O)O)O)O[C@@H]6[C@H]([C@H]([C@@H]([C@H](O6)CO)O)O)O[C@@H]7[C@H]([C@H]([C@@H]([C@H](O7)CO)O)O)O)O)O
InChI: InChI=1S/C44H75NO36/c1-9(52)45-17-24(59)33(15(7-51)70-38(17)68)77-42-32(67)35(79-44-37(28(63)21(56)13(5-49)75-44)81-41-30(65)26(61)19(54)11(3-47)73-41)23(58)16(76-42)8-69-39-31(66)34(22(57)14(6-50)71-39)78-43-36(27(62)20(55)12(4-48)74-43)80-40-29(64)25(60)18(53)10(2-46)72-40/h10-44,46-51,53-68H,2-8H2,1H3,(H,45,52)/t10-,11-,12-,13-,14-,15-,16-,17-,18-,19-,20-,21-,22-,23-,24-,25+,26+,27+,28+,29+,30+,31+,32+,33-,34+,35+,36+,37+,38-,39+,40-,41-,42+,43-,44-/m1/s1
Instrument: 2695 HPLC Quadro Micro API, Waters
Instrument type: LC-ESI-QQ
Ms type: MS2
Ion mode: POSITIVE
Collision energy: 30.0 V
Ionization: ESI
Column name: TSK-GEL Amide-80 2.0 mm X 250 mm (TOSOH)
Retention time: 24.785 min
Derivative form: C53H86N2O37
Derivative mass: 1342.49094
Derivative type: ABEE (p-Aminobenzoic acid ethyl ester)
Precursor m/z: 1343.30
Precursor type: [M+H]+
m/z	relative intensity
370.9	567
371.7	160
532.4	169
533.3	223
695.2	117
856.4	204
857.2	478
858.0	158
1018.3	112
1019.3	172
1020.2	117
1181.3	162
1341.4	102
1342.1	309
1343.0	999
1343.9	650
1344.7	313
