Mass spectrum: XylManGlcNAcFucGlcNAc; LC-ESI-QQ; MS2; CE:20V; ODS
Name: XylManGlcNAcFucGlcNAc
Name: Xyl-beta-1-2Man-beta1-4GlcNAc-beta-1-4(Fuc-alpha-1-3)GlcNAc
Class: Natural Product; Oligosaccharide; N-linked glycan; Complex type
Formula: C33H56N2O24
Exact mass: 864.32230
SMILES: C(C4O)(C(OC(C(O)5)OCC(O)C5O)C(OC4CO)OC(C3CO)C(O)C(C(O3)OC(C1OC(O2)C(O)C(O)C(C(C)2)O)C(OC(O)C1NC(C)=O)CO)NC(C)=O)O
InChI: InChI=1S/C33H56N2O24/c1-8-17(42)21(46)24(49)32(52-8)58-27-16(35-10(3)40)29(50)53-14(6-38)26(27)57-30-15(34-9(2)39)20(45)25(13(5-37)55-30)56-33-28(22(47)19(44)12(4-36)54-33)59-31-23(48)18(43)11(41)7-51-31/h8,11-33,36-38,41-50H,4-7H2,1-3H3,(H,34,39)(H,35,40)/t8-,11+,12+,13+,14+,15+,16+,17+,18-,19+,20+,21+,22-,23+,24-,25+,26+,27+,28-,29+,30-,31-,32-,33-/m0/s1
Instrument: 2695 HPLC Quadro Micro API, Waters
Instrument type: LC-ESI-QQ
Ms type: MS2
Ion mode: POSITIVE
Collision energy: 20.0 V
Ionization: ESI
Column name: Wakosil 5C18-200 2.0 mm X 250 mm (Wako)
Retention time: 27.712 min
Derivative form: C42H67N3O25
Derivative mass: 1013.40636
Derivative type: ABEE (p-Aminobenzoic acid ethyl ester)
Precursor m/z: 1014.00
Precursor type: [M+H]+
m/z	relative intensity
365.8	42
370.4	33
371.1	123
497.0	38
497.8	200
498.5	42
516.1	51
516.9	103
517.5	16
573.6	45
574.3	22
643.0	23
643.6	36
644.4	22
705.5	12
719.9	36
720.7	21
735.7	74
736.6	27
848.9	12
866.7	21
867.4	101
868.5	95
869.5	31
880.8	31
881.6	74
882.6	42
966.9	18
968.0	14
968.9	11
1012.6	291
1013.4	999
1014.0	104
1014.5	942
1015.4	160
1016.0	18
