Mass spectrum: 3-Man2GlcNAc; LC-ESI-QQ; MS2; CE:20V; ODS
Name: 3-Man2GlcNAc
Name: Man-alpha-1-3Man-beta-1-5GlcNac
Class: Natural Product; Oligosaccharide; N-linked glycan; High-mannose type
Formula: C20H35NO16
Exact mass: 545.19558
SMILES: CC(=O)N[C@@H]1[C@H]([C@@H]([C@H](O[C@@H]1O)CO)O[C@H]2[C@H]([C@H]([C@@H]([C@H](O2)CO)O)O[C@@H]3[C@@H]([C@H]([C@@H]([C@H](O3)CO)O)O)O)O)O
InChI: InChI=1S/C20H35NO16/c1-5(25)21-9-12(28)16(8(4-24)33-18(9)32)36-20-15(31)17(11(27)7(3-23)35-20)37-19-14(30)13(29)10(26)6(2-22)34-19/h6-20,22-24,26-32H,2-4H2,1H3,(H,21,25)/t6-,7-,8-,9-,10-,11-,12-,13+,14-,15+,16-,17+,18+,19-,20+/m1/s1
Instrument: 2695 HPLC Quadro Micro API, Waters
Instrument type: LC-ESI-QQ
Ms type: MS2
Ion mode: POSITIVE
Collision energy: 20.0 V
Ionization: ESI
Column name: Wakosil 5C18-200 2.0 mm X 250 mm (Wako)
Retention time: 45.327 min
Derivative form: C29H46N2O17
Derivative mass: 694.27965
Derivative type: ABEE (p-Aminobenzoic acid ethyl ester)
Precursor m/z: 695.00
Precursor type: [M+H]+
m/z	relative intensity
324.8	67
370.2	38
370.8	999
371.4	38
486.8	28
532.0	21
532.6	362
533.2	103
693.9	46
694.7	199
695.4	53
