Mass spectrum: 4-GlcNAc3Man3GlcNAc2; LC-ESI-QQ; MS2; CE:25V; Amide
Name: 4-GlcNAc3Man3GlcNAc2
Name: GlcNAc-beta-1-2Man-alpha-1-6[GlcNAc-beta-1-4(GlcNAc-beta-1-2)Man-alpha-1-3]Man-beta-1-4GlcNAc-beta-1-4GlcNAc
Class: Natural Product; Oligosaccharide; N-linked glycan; Complex type
Formula: C58H97N5O41
Exact mass: 1519.56590
SMILES: N(C(C8O)C(OC(CO)C(O)8)OC(C1OCC(O5)C(O)C(C(O)C(OC(C6O)C(OC(OC(C7CO)C(C(NC(C)=O)C(O)O7)O)C(NC(C)=O)6)CO)5)OC(O2)C(OC(C(NC(C)=O)4)OC(CO)C(O)C4O)C(C(OC(C(NC(C)=O)3)OC(C(C(O)3)O)CO)C2CO)O)C(O)C(C(O1)CO)O)C(C)=O
InChI: InChI=1S/C58H97N5O41/c1-14(71)59-27-40(84)45(23(10-68)91-51(27)89)99-55-31(63-18(5)75)41(85)46(24(11-69)96-55)101-56-44(88)48(36(80)26(98-56)13-90-57-49(42(86)35(79)22(9-67)95-57)103-53-29(61-16(3)73)38(82)33(77)20(7-65)93-53)102-58-50(104-54-30(62-17(4)74)39(83)34(78)21(8-66)94-54)43(87)47(25(12-70)97-58)100-52-28(60-15(2)72)37(81)32(76)19(6-64)92-52/h19-58,64-70,76-89H,6-13H2,1-5H3,(H,59,71)(H,60,72)(H,61,73)(H,62,74)(H,63,75)/t19-,20-,21-,22-,23-,24-,25-,26-,27-,28-,29-,30-,31-,32-,33-,34-,35-,36-,37-,38-,39-,40-,41-,42+,43+,44+,45-,46-,47-,48+,49+,50+,51-,52+,53+,54+,55+,56+,57+,58-/m1/s1
Instrument: 2695 HPLC Quadro Micro API, Waters
Instrument type: LC-ESI-QQ
Ms type: MS2
Ion mode: POSITIVE
Collision energy: 25 V
Ionization: ESI
Column name: TSK-GEL Amide-80 2.0 mm X 250 mm (TOSOH)
Retention time: 24.858 min
Derivative form: C67H108N6O42
Derivative mass: 1668.64996
Derivative type: ABEE (p-Aminobenzoic acid ethyl ester)
Precursor m/z: 1670.00
Precursor type: [M+H]+
m/z	relative intensity
366.0	39
366.6	17
371.7	12
527.5	12
528.2	44
528.9	14
574.0	17
574.7	41
689.6	28
690.3	40
731.7	21
736.2	36
891.8	11
892.8	40
893.5	74
894.4	29
897.6	35
898.5	77
899.1	17
899.9	11
1060.5	32
1061.3	34
1095.7	22
1096.5	26
1097.3	37
1100.6	36
1101.4	42
1102.5	35
1262.5	53
1263.4	186
1264.4	109
1265.3	36
1298.2	21
1299.2	37
1300.1	112
1300.9	22
1305.4	12
1464.7	18
1465.4	68
1466.3	185
1467.0	16
1467.5	307
1468.3	128
1469.0	12
1667.1	20
1667.8	196
1668.7	373
1669.5	999
1670.1	115
1670.6	904
1671.6	264
1672.3	25
