Mass spectrum: GalNAcGlcNAcThrNAc; LC-ESI-QQ; MS2; CE:15V; [M+H]+
Name: GalNAcGlcNAcThrNAc
Name: GalNAc-beta-1-4GlcNAc-beta-1-2ThrNAc (ThrNAc, 3-acetamido-3-deoxythreose)
Class: Natural Product; Oligosaccharide; O-linked glycan
Formula: C22H37N3O14
Exact mass: 567.22755
SMILES: CC(=O)NC(C(O)2)C(OC(CO)C(O)2)OC(C(CO)1)C(O)C(NC(C)=O)C(O1)OC([H])(C=O)C([H])(CO)NC(C)=O
InChI: InChI=1S/C22H37N3O14/c1-8(30)23-11(4-26)12(5-27)36-21-16(25-10(3)32)19(35)20(14(7-29)38-21)39-22-15(24-9(2)31)18(34)17(33)13(6-28)37-22/h5,11-22,26,28-29,33-35H,4,6-7H2,1-3H3,(H,23,30)(H,24,31)(H,25,32)/t11-,12-,13+,14+,15+,16+,17-,18+,19+,20+,21+,22-/m0/s1
Instrument: 2695 HPLC Quadro Micro API, Waters
Instrument type: LC-ESI-QQ
Ms type: MS2
Ion mode: POSITIVE
Collision energy: 15.0 V
Ionization: ESI
Column name: TSK-GEL Amide-80 2.0 mm X 250 mm (TOSOH)
Retention time: 9.903 min
Derivative form: C31H48N4O15
Derivative mass: 716.31162
Derivative type: ABEE (p-Aminobenzoic acid ethyl ester)
Precursor m/z: 717.00
Precursor type: [M+H]+
m/z	relative intensity
203.9	197
221.8	79
264.9	16
310.8	178
406.0	24
406.6	999
467.6	26
477.6	14
512.9	17
513.6	121
514.2	22
669.8	12
670.6	21
715.8	188
716.5	554
717.1	43
