Mass spectrum: GalGlcNAc2Man3GlcNAcFucGlcNAc-I; LC-ESI-QQ; MS2; CE:40V; Amide
Name: GalGlcNAc2Man3GlcNAcFucGlcNAc-I
Name: Gal-beta-1-4GlcNAc-beta-1-2Man-alpha-1-6(GlcNAc-beta-1-2Man-alpha-1-3)Man-beta-1-4GlcNAc-beta-1-4(Fuc-alpha-1-6)GlcNAc
Class: Natural Product; Oligosaccharide; N-linked glycan; Complex type
Formula: C62H104N4O45
Exact mass: 1624.59726
SMILES: C(C(C(OC(O9)C(O)C(C(O)C(CO)9)O)1)OC(OC(C(OCC(C6O)OC(C(C6OC(C7OC(C(NC(C)=O)8)OC(CO)C(C(O)8)O)OC(CO)C(C(O)7)O)O)OC(C5CO)C(O)C(NC(C)=O)C(O5)OC(C(COC(C(O)4)OC(C(O)C4O)C)3)C(O)C(C(O3)O)NC(C)=O)2)C(C(C(CO)O2)O)O)C(NC(C)=O)C1O)O
InChI: InChI=1S/C62H104N4O45/c1-14-31(77)41(87)45(91)58(97-14)95-13-26-50(38(84)27(54(94)98-26)63-15(2)73)106-56-29(65-17(4)75)39(85)49(24(11-72)103-56)108-60-47(93)51(109-62-53(44(90)35(81)22(9-70)102-62)111-55-28(64-16(3)74)37(83)32(78)19(6-67)99-55)36(82)25(105-60)12-96-61-52(43(89)34(80)21(8-69)101-61)110-57-30(66-18(5)76)40(86)48(23(10-71)104-57)107-59-46(92)42(88)33(79)20(7-68)100-59/h14,19-62,67-72,77-94H,6-13H2,1-5H3,(H,63,73)(H,64,74)(H,65,75)(H,66,76)/t14-,19+,20+,21+,22+,23+,24+,25+,26+,27+,28+,29+,30+,31+,32+,33-,34+,35+,36+,37+,38+,39+,40+,41+,42-,43-,44-,45-,46+,47-,48+,49+,50+,51-,52-,53-,54+,55-,56-,57-,58+,59-,60-,61-,62+/m0/s1
Instrument: 2695 HPLC Quadro Micro API, Waters
Instrument type: LC-ESI-QQ
Ms type: MS2
Ion mode: POSITIVE
Collision energy: 40.0 V
Ionization: ESI
Column name: TSK-GEL Amide-80 2.0 mm X 250 mm (TOSOH)
Retention time: 29.359 min
Derivative form: C71H115N5O46
Derivative mass: 1773.68132
Derivative type: ABEE (p-Aminobenzoic acid ethyl ester)
Precursor m/z: 1774.00
Precursor type: [M+H]+
m/z	relative intensity
365.1	232
365.8	999
366.4	110
367.3	55
370.9	106
371.6	44
511.9	31
515.8	22
516.8	59
527.2	103
527.9	168
528.6	23
573.1	92
573.9	77
689.0	53
690.0	75
690.9	28
718.5	32
720.3	27
729.6	48
730.4	48
731.1	72
735.3	40
736.1	35
891.6	199
892.7	167
893.6	93
894.5	21
896.7	34
898.3	60
911.2	22
1038.5	37
1043.1	58
1044.4	88
1053.1	20
1054.0	25
1055.4	35
1059.6	39
1060.5	43
1100.4	46
1204.2	26
1205.1	53
1206.1	73
1207.2	29
1245.6	36
1246.6	64
1247.8	45
1255.9	59
1256.6	70
1257.4	200
1258.3	139
1259.3	54
1260.2	32
1261.9	37
1262.6	65
1263.3	24
1406.5	32
1407.1	91
1408.0	334
1408.8	311
1409.7	205
1410.6	73
1569.1	30
1570.5	46
1611.7	22
1771.2	26
1772.2	48
1773.0	124
1774.1	91
1774.8	33
1775.4	70
