Mass spectrum: Man6GlcNAc2-I; LC-ESI-QQ; MS2; CE:35V; Amide
Name: Man6GlcNAc2-I
Name: Man-alpha-1-6(Man-alpha-1-3)Man-alpha-1-6(Man-alpha-1-2Man-alpha-1-3)Man-beta-1-4GlcNAc-beta-1-4GlcNAc
Class: Natural Product; Oligosaccharide; N-linked glycan; High-mannose type
Formula: C52H88N2O41
Exact mass: 1396.48625
SMILES: C(O1)(OCC(O2)C(O)C(OC(C8O)OC(C(C8O)O)CO)C(C2OCC(C(O)5)OC(C(C5OC(O7)C(C(O)C(O)C(CO)7)OC(C(O)6)OC(C(O)C6O)CO)O)OC(C(O)3)C(CO)OC(OC(C4O)C(CO)OC(C4NC(C)=O)O)C3NC(C)=O)O)C(O)C(O)C(O)C1CO
InChI: InChI=1S/C52H88N2O41/c1-11(61)53-21-29(69)40(17(7-59)83-45(21)80)91-46-22(54-12(2)62)30(70)41(18(8-60)88-46)92-51-39(79)43(94-52-44(34(74)26(66)16(6-58)87-52)95-50-37(77)33(73)25(65)15(5-57)86-50)28(68)20(90-51)10-82-48-38(78)42(93-49-36(76)32(72)24(64)14(4-56)85-49)27(67)19(89-48)9-81-47-35(75)31(71)23(63)13(3-55)84-47/h13-52,55-60,63-80H,3-10H2,1-2H3,(H,53,61)(H,54,62)/t13-,14-,15-,16-,17-,18-,19-,20-,21-,22-,23-,24-,25-,26-,27-,28-,29-,30-,31+,32+,33+,34+,35+,36+,37+,38+,39+,40-,41-,42+,43+,44+,45-,46+,47+,48+,49-,50-,51+,52-/m1/s1
Instrument: 2695 HPLC Quadro Micro API, Waters
Instrument type: LC-ESI-QQ
Ms type: MS2
Ion mode: POSITIVE
Collision energy: 35.0 V
Ionization: ESI
Column name: TSK-GEL Amide-80 2.0 mm X 250 mm (TOSOH)
Retention time: 30.606 min
Derivative form: C61H99N3O42
Derivative mass: 1545.57031
Derivative type: ABEE (p-Aminobenzoic acid ethyl ester)
Precursor m/z: 1546.20
Precursor type: [M+H]+
m/z	relative intensity
324.6	219
325.4	96
365.5	275
366.3	262
367.2	42
370.0	64
370.6	469
371.5	126
372.2	31
486.6	84
487.4	32
527.0	75
527.8	205
528.6	87
532.3	36
573.0	178
573.9	406
575.1	86
688.8	105
689.7	251
690.5	102
691.2	47
735.1	48
736.0	113
737.0	41
850.8	122
851.9	175
852.8	79
896.9	48
897.8	56
899.3	27
1012.5	98
1013.4	392
1014.2	272
1015.1	114
1059.0	149
1059.9	187
1060.8	96
1061.7	29
1174.2	241
1175.0	631
1176.1	999
1177.0	346
1177.6	64
1220.7	60
1221.5	161
1222.1	34
1222.7	108
1381.7	24
1382.2	93
1382.9	192
1383.7	352
1384.7	288
1385.5	85
1543.7	84
1544.4	171
1545.2	486
1546.1	437
1547.1	273
