Mass spectrum: GalNAcFucGlcNAcGA-I; LC-ESI-QQ; MS2; CE:15V; [M+H]+
Name: GalNAcFucGlcNAcGA-I
Name: GalNAc-alpha-1-2Fuc-alpha-1-3GlcNAc-beta-1-2GA (GA, glycolaldehyde)
Class: Natural Product; Oligosaccharide; O-linked glycan
Formula: C24H40N2O16
Exact mass: 612.23778
SMILES: O=CCOC(O1)C(NC(C)=O)C(OC(O2)C(OC(O3)C(NC(C)=O)C(O)C(O)C(CO)3)C(O)C(O)C(C)2)C(O)C(CO)1
InChI: InChI=1S/C24H40N2O16/c1-8-15(32)19(36)21(42-23-13(25-9(2)30)18(35)16(33)11(6-28)40-23)24(38-8)41-20-14(26-10(3)31)22(37-5-4-27)39-12(7-29)17(20)34/h4,8,11-24,28-29,32-36H,5-7H2,1-3H3,(H,25,30)(H,26,31)/t8-,11+,12+,13+,14+,15+,16-,17+,18+,19+,20+,21-,22+,23+,24-/m1/s1
Instrument: 2695 HPLC Quadro Micro API, Waters
Instrument type: LC-ESI-QQ
Ms type: MS2
Ion mode: POSITIVE
Collision energy: 15.0 V
Ionization: ESI
Column name: TSK-GEL Amide-80 2.0 mm X 250 mm (TOSOH)
Retention time: 8.741 min
Derivative form: C33H51N3O17
Derivative mass: 761.32185
Derivative type: ABEE (p-Aminobenzoic acid ethyl ester)
Precursor m/z: 762.00
Precursor type: [M+H]+
m/z	relative intensity
203.3	25
203.9	298
204.5	12
209.5	14
210.2	12
331.8	66
332.5	13
349.1	43
349.7	172
350.4	37
355.6	18
366.0	38
366.6	217
367.2	29
394.6	59
412.1	225
412.8	999
413.4	67
414.1	18
511.9	18
512.9	37
539.9	30
540.8	63
551.8	31
552.4	142
553.1	65
557.9	302
558.6	930
559.3	152
560.1	33
569.5	22
714.8	28
715.8	50
760.7	188
761.4	559
762.2	240
763.2	13
