Mass spectrum: GlcNAc2Man2GlcNAcManGlcNAc2; LC-ESI-QQ; MS2; CE:25V; Amide
Name: GlcNAc2Man2GlcNAcManGlcNAc2
Name: GlcNAc-beta-1-2Man-alpha-1-6(GlcNAc-beta-1-4)(GlcNAc-beta-1-2Man-alpha-1-3)Man-beta-1-4GlcNAc-beta-1-4GlcNAc
Class: Natural Product; Oligosaccharide; N-linked glycan; Complex type
Formula: C58H97N5O41
Exact mass: 1519.56590
SMILES: OC(C7O)C(CO)OC(C7OC(C8NC(C)=O)OC(C(O)C8O)CO)OC(C(O)3)C(OC(O6)C(C(C(O)C6CO)O)NC(C)=O)C(OC3OC(C5CO)C(O)C(C(O5)OC(C4O)C(CO)OC(O)C(NC(C)=O)4)NC(C)=O)COC(O2)C(C(O)C(C2CO)O)OC(C(NC(C)=O)1)OC(C(O)C(O)1)CO
InChI: InChI=1S/C58H97N5O41/c1-14(71)59-27-40(84)45(24(11-69)91-51(27)89)99-55-31(63-18(5)75)41(85)46(25(12-70)97-55)100-56-44(88)48(102-58-50(43(87)36(80)23(10-68)96-58)104-54-30(62-17(4)74)39(83)34(78)21(8-66)94-54)47(101-52-28(60-15(2)72)37(81)32(76)19(6-64)92-52)26(98-56)13-90-57-49(42(86)35(79)22(9-67)95-57)103-53-29(61-16(3)73)38(82)33(77)20(7-65)93-53/h19-58,64-70,76-89H,6-13H2,1-5H3,(H,59,71)(H,60,72)(H,61,73)(H,62,74)(H,63,75)/t19-,20-,21-,22-,23-,24-,25-,26-,27-,28-,29-,30-,31-,32-,33-,34-,35-,36-,37-,38-,39-,40-,41-,42+,43+,44+,45-,46-,47-,48-,49+,50+,51-,52+,53+,54+,55+,56+,57+,58-/m1/s1
Instrument: 2695 HPLC Quadro Micro API, Waters
Instrument type: LC-ESI-QQ
Ms type: MS2
Ion mode: POSITIVE
Collision energy: 25.0 V
Ionization: ESI
Column name: TSK-GEL Amide-80 2.0 mm X 250 mm (TOSOH)
Retention time: 24.553 min
Derivative form: C67H108N6O42
Derivative mass: 1668.64996
Derivative type: ABEE (p-Aminobenzoic acid ethyl ester)
Precursor m/z: 1670.00
Precursor type: [M+H]+
m/z	relative intensity
364.9	36
365.5	11
366.1	48
370.2	24
370.9	67
527.1	34
528.0	22
545.6	19
567.9	22
568.5	86
569.2	41
573.2	125
574.1	111
689.1	13
729.7	51
730.8	75
731.7	22
735.0	43
735.9	36
891.2	19
892.0	32
893.1	69
894.2	11
897.0	12
897.8	24
899.0	20
932.9	24
933.9	30
934.8	12
937.6	40
938.3	24
939.0	69
939.9	24
1094.2	42
1095.2	81
1096.2	92
1097.5	12
1099.6	109
1100.4	159
1101.4	148
1102.3	43
1216.4	11
1260.6	15
1261.3	85
1262.1	178
1262.9	364
1263.8	89
1264.9	33
1297.1	53
1297.9	78
1298.8	171
1299.6	56
1300.5	19
1301.8	15
1302.5	47
1303.4	103
1304.1	10
1304.7	73
1463.1	15
1463.7	159
1464.5	539
1465.1	10
1465.6	844
1466.2	50
1466.7	368
1467.5	76
1665.7	26
1666.3	278
1667.4	999
1668.0	172
1668.6	973
1669.5	657
1670.1	131
1670.9	30
