Mass spectrum: GlcNAc2Man3GlcNAc2; LC-ESI-QQ; MS2; CE:30V; Amide
Name: GlcNAc2Man3GlcNAc2
Name: GlcNAc-beta-1-2Man-alpha-1-6(GlcNAc-beta-1-2Man-alpha-1-3)Man-beta-1-4GlcNAc-beta-1-4GlcNAc
Class: Natural Product; Oligosaccharide; N-linked glycan; Complex type
Formula: C50H84N4O36
Exact mass: 1316.48653
SMILES: CC(=O)NC(C(O)1)C(OC(C(OC(C(O)5)C(O)C(OC(COC(O6)C(OC(C(NC(C)=O)7)OC(CO)C(C(O)7)O)C(C(C6CO)O)O)5)OC(C4O)C(CO)OC(C4NC(C)=O)OC(C3O)C(OC(O)C3NC(C)=O)CO)2)C(C(O)C(CO)O2)O)OC(CO)C1O
InChI: InChI=1S/C50H84N4O36/c1-12(61)51-23-34(72)39(20(9-59)79-44(23)77)86-47-26(54-15(4)64)35(73)40(21(10-60)84-47)87-48-38(76)41(88-50-43(37(75)30(68)19(8-58)83-50)90-46-25(53-14(3)63)33(71)28(66)17(6-56)81-46)31(69)22(85-48)11-78-49-42(36(74)29(67)18(7-57)82-49)89-45-24(52-13(2)62)32(70)27(65)16(5-55)80-45/h16-50,55-60,65-77H,5-11H2,1-4H3,(H,51,61)(H,52,62)(H,53,63)(H,54,64)/t16-,17-,18-,19-,20-,21-,22-,23-,24-,25-,26-,27-,28-,29-,30-,31-,32-,33-,34-,35-,36+,37+,38+,39-,40-,41+,42+,43+,44-,45+,46+,47+,48+,49+,50-/m1/s1
Instrument: 2695 HPLC Quadro Micro API, Waters
Instrument type: LC-ESI-QQ
Ms type: MS2
Ion mode: POSITIVE
Collision energy: 30 V
Ionization: ESI
Column name: TSK-GEL Amide-80 2.0 mm X 250 mm (TOSOH)
Retention time: 21.682 min
Derivative form: C59H95N5O37
Derivative mass: 1465.57059
Derivative type: ABEE (p-Aminobenzoic acid ethyl ester)
Precursor m/z: 1467.00
Precursor type: [M+H]+
m/z	relative intensity
324.3	22
365.1	43
365.8	161
366.9	31
370.5	179
371.2	39
526.8	46
527.6	173
528.3	68
572.8	70
573.5	141
574.3	47
575.1	23
688.5	21
689.2	117
690.0	59
691.0	27
729.8	56
730.9	137
735.1	52
735.8	93
874.3	28
891.4	109
892.3	144
893.2	180
893.9	69
897.0	42
897.8	165
898.9	76
1058.1	59
1058.9	116
1059.7	47
1060.4	126
1061.1	47
1094.2	65
1094.8	50
1095.5	284
1096.2	85
1096.9	132
1099.3	56
1100.2	137
1101.2	149
1102.4	40
1260.8	133
1261.6	277
1262.4	999
1262.9	51
1263.4	555
1264.1	224
1264.9	30
1463.4	107
1464.1	110
1464.9	474
1465.4	68
1466.1	509
1466.9	204
1467.5	32
