Mass spectrum: Man4GlcNAc2-II; LC-ESI-QQ; MS2; CE:30V; Amide
Name: Man4GlcNAc2-II
Name: Man-alpha-1-3Man-alpha-1-6(Man-alpha-1-3)Man-beta-1-4GlcNAc-beta-1-4GlcNAc
Class: Natural Product; Oligosaccharide; N-linked glycan; High-mannose type
Formula: C40H68N2O31
Exact mass: 1072.38060
SMILES: C(C(O)5)(OC(C(O)C5OC(C(O)6)OC(C(C(O)6)O)CO)OCC(C1O)OC(OC(C4O)C(OC(C4NC(C)=O)OC(C(O)3)C(CO)OC(C3NC(C)=O)O)CO)C(O)C1OC(C2O)OC(C(C(O)2)O)CO)CO
InChI: InChI=1S/C40H68N2O31/c1-9(48)41-17-23(54)31(14(6-46)64-35(17)62)70-36-18(42-10(2)49)24(55)32(15(7-47)68-36)71-40-30(61)34(73-39-28(59)26(57)20(51)12(4-44)67-39)22(53)16(69-40)8-63-37-29(60)33(21(52)13(5-45)65-37)72-38-27(58)25(56)19(50)11(3-43)66-38/h11-40,43-47,50-62H,3-8H2,1-2H3,(H,41,48)(H,42,49)/t11-,12-,13-,14-,15-,16-,17-,18-,19-,20-,21-,22-,23-,24-,25+,26+,27+,28+,29+,30+,31-,32-,33+,34+,35-,36+,37+,38-,39-,40+/m1/s1
Instrument: 2695 HPLC Quadro Micro API, Waters
Instrument type: LC-ESI-QQ
Ms type: MS2
Ion mode: POSITIVE
Collision energy: 30.0 V
Ionization: ESI
Column name: TSK-GEL Amide-80 2.0 mm X 250 mm (TOSOH)
Retention time: 19.645 min
Derivative form: C49H79N3O32
Derivative mass: 1221.46467
Derivative type: ABEE (p-Aminobenzoic acid ethyl ester)
Precursor m/z: 1222.10
Precursor type: [M+H]+
m/z	relative intensity
324.5	112
325.4	33
365.1	71
365.8	456
366.7	55
370.2	228
370.9	999
371.6	45
372.2	29
487.1	22
526.8	66
527.4	466
528.2	197
532.3	42
533.0	35
573.0	151
573.7	291
574.4	105
575.1	30
688.6	85
689.3	482
690.0	256
690.9	102
734.9	88
735.5	21
736.1	105
737.2	30
850.5	146
851.1	587
852.0	613
852.8	182
896.9	126
897.9	264
898.6	112
899.4	31
1058.3	112
1059.2	312
1060.1	278
1060.9	105
1061.6	23
1220.2	82
1221.0	134
1221.8	186
1222.8	124
