Mass spectrum: 6-Man4GlcNAc-II; LC-ESI-QQ; MS2; CE:35V; Amide
Name: 6-Man4GlcNAc-II
Name: Man-alpha-1-2Man-alpha-1-3Man-alpha-1-6Man-beta-1-6GlcNAc
Class: Natural Product; Oligosaccharide; N-linked glycan; High-mannose type
Formula: C32H55NO26
Exact mass: 869.30123
SMILES: CC(=O)N[C@@H]1[C@H]([C@@H]([C@H](O[C@H]1O)CO)O[C@H]2[C@H]([C@H]([C@@H]([C@H](O2)CO[C@@H]3[C@H]([C@H]([C@@H]([C@H](O3)CO)O)O[C@@H]4[C@H]([C@H]([C@@H]([C@H](O4)CO)O)O)O[C@@H]5[C@H]([C@H]([C@@H]([C@H](O5)CO)O)O)O)O)O)O)O)O
InChI: InChI=1S/C32H55NO26/c1-7(38)33-13-18(43)25(11(5-37)52-28(13)50)57-31-23(48)20(45)16(41)12(56-31)6-51-29-24(49)26(17(42)10(4-36)53-29)58-32-27(21(46)15(40)9(3-35)55-32)59-30-22(47)19(44)14(39)8(2-34)54-30/h8-32,34-37,39-50H,2-6H2,1H3,(H,33,38)/t8-,9-,10-,11-,12-,13-,14-,15-,16-,17-,18-,19+,20+,21+,22+,23+,24+,25-,26+,27+,28-,29+,30-,31+,32-/m1/s1
Instrument: 2695 HPLC Quadro Micro API, Waters
Instrument type: LC-ESI-QQ
Ms type: MS2
Ion mode: POSITIVE
Collision energy: 35.0 V
Ionization: ESI
Column name: TSK-GEL Amide-80 2.0 mm X 250 mm (TOSOH)
Retention time: 14.808 min
Derivative form: C41H66N2O27
Derivative mass: 1018.38529
Derivative type: ABEE (p-Aminobenzoic acid ethyl ester)
Precursor m/z: 1019.30
Precursor type: [M+H]+
m/z	relative intensity
324.5	70
325.5	69
326.3	31
329.6	30
354.6	34
367.7	57
370.4	298
371.1	999
372.0	340
486.4	32
487.3	49
532.3	208
533.2	428
534.0	179
696.1	31
