Mass spectrum: rebaudioside A; LC-ESI-QQ; MS2; CE:60V; [M-H]-
Name: rebaudioside A
Class: Natural Product; Steviol glycoside
Formula: C44H70O23
Exact mass: 966.43079
SMILES: [H]C(C821)(C(C)(C6([H])CC8)CCCC(C)(C(=O)OC(C(O)7)OC(C(O)C(O)7)CO)6)CCC(OC(O4)C(OC(C(O)5)OC(C(O)C5O)CO)C(C(O)C4CO)OC(C(O)3)OC(CO)C(O)C(O)3)(C(=C)C2)C1
InChI: InChI=1S/C44H70O23/c1-17-11-43-9-5-22-41(2,7-4-8-42(22,3)40(59)66-38-33(58)30(55)26(51)20(14-47)62-38)23(43)6-10-44(17,16-43)67-39-35(65-37-32(57)29(54)25(50)19(13-46)61-37)34(27(52)21(15-48)63-39)64-36-31(56)28(53)24(49)18(12-45)60-36/h18-39,45-58H,1,4-16H2,2-3H3/t18-,19-,20-,21-,22+,23+,24-,25-,26-,27-,28+,29+,30+,31-,32-,33-,34+,35-,36+,37+,38+,39+,41-,42-,43-,44+/m1/s1
Instrument: 2695 HPLC Quadro Micro API, Waters
Instrument type: LC-ESI-QQ
Ms type: MS2
Ion mode: NEGATIVE
Collision energy: 60.0 V
Ionization: ESI
Column name: TSK-GEL Amide-80 2.0 mm X 250 mm (TOSOH)
Retention time: 17.912 min
Precursor m/z: 965.00
Precursor type: [M-H]-
m/z	relative intensity
316.6	19
317.3	228
317.9	18
412.4	19
413.1	116
413.7	26
443.4	20
460.6	11
461.4	31
478.5	48
479.3	141
622.8	56
623.7	32
640.5	335
641.3	695
642.0	119
801.9	26
802.5	665
803.5	999
804.2	163
