Mass spectrum: GalGlcNAc2Man2GlcNAcManGlcNAc2-II; LC-ESI-QQ; MS2; CE:30V; Amide
Name: GalGlcNAc2Man2GlcNAcManGlcNAc2-II
Name: GlcNAc-beta-1-2Man-alpha-1-6(GlcNAc-beta-1-4)(Gal-beta-1-4GlcNAc-beta-1-2Man-alpha-1-3)Man-beta-1-4GlcNAc-beta-1-4GlcNAc
Class: Natural Product; Oligosaccharide; N-linked glycan; Complex type
Formula: C64H107N5O46
Exact mass: 1681.61872
SMILES: C(C9O)(C(NC(C)=O)C(OC9CO)OC(C8O)C(OC(C8O)CO)OCC(C(OC(O7)C(C(O)C(O)C7CO)NC(C)=O)3)OC(C(C3OC(C(OC(C6NC(C)=O)OC(C(C6O)OC(C5O)OC(CO)C(C5O)O)CO)4)OC(C(O)C(O)4)CO)O)OC(C(O)1)C(OC(OC(C2O)C(OC(C2NC(C)=O)O)CO)C1NC(C)=O)CO)O
InChI: InChI=1S/C64H107N5O46/c1-15(78)65-29-41(90)49(25(11-75)100-56(29)98)109-59-32(68-18(4)81)42(91)51(27(13-77)106-59)111-62-48(97)53(113-64-55(46(95)38(87)24(10-74)105-64)115-60-33(69-19(5)82)43(92)50(26(12-76)107-60)110-61-47(96)44(93)36(85)22(8-72)103-61)52(112-57-30(66-16(2)79)39(88)34(83)20(6-70)101-57)28(108-62)14-99-63-54(45(94)37(86)23(9-73)104-63)114-58-31(67-17(3)80)40(89)35(84)21(7-71)102-58/h20-64,70-77,83-98H,6-14H2,1-5H3,(H,65,78)(H,66,79)(H,67,80)(H,68,81)(H,69,82)/t20-,21-,22-,23-,24-,25-,26-,27-,28-,29-,30-,31-,32-,33-,34-,35-,36+,37-,38-,39-,40-,41-,42-,43-,44+,45+,46+,47-,48+,49-,50-,51-,52-,53-,54+,55+,56-,57+,58+,59+,60+,61+,62+,63+,64-/m1/s1
Instrument: 2695 HPLC Quadro Micro API, Waters
Instrument type: LC-ESI-QQ
Ms type: MS2
Ion mode: POSITIVE
Collision energy: 30.0 V
Ionization: ESI
Column name: TSK-GEL Amide-80 2.0 mm X 250 mm (TOSOH)
Retention time: 29.094 min
Derivative form: C73H118N6O47
Derivative mass: 1830.70279
Derivative type: ABEE (p-Aminobenzoic acid ethyl ester)
Precursor m/z: 1833.00
Precursor type: [M+H]+
m/z	relative intensity
326.1	27
365.2	98
366.1	794
366.8	21
367.6	33
370.2	165
371.1	159
385.4	36
528.1	90
568.2	172
569.0	132
569.7	48
573.2	165
574.0	351
574.7	38
575.3	68
659.0	22
690.1	31
693.6	24
730.6	21
731.2	135
732.6	100
735.7	35
891.8	38
892.5	90
893.5	39
897.4	48
898.4	36
934.0	29
936.1	31
937.7	33
938.6	26
939.2	84
940.3	25
1055.5	26
1059.2	28
1060.6	28
1094.3	117
1095.9	119
1097.2	231
1097.8	25
1099.2	45
1100.8	372
1102.1	357
1102.9	103
1217.3	31
1257.2	26
1258.1	66
1259.3	28
1261.2	77
1262.2	147
1263.0	556
1263.9	258
1264.7	153
1304.0	45
1305.0	44
1305.8	42
1423.5	26
1459.7	102
1461.0	152
1462.0	64
1462.7	24
1463.7	62
1464.5	455
1465.2	630
1466.0	801
1467.1	635
1468.3	93
1627.3	35
1628.1	77
1629.0	102
1629.8	48
1667.8	37
1826.7	21
1828.3	24
1828.9	85
1829.6	255
1830.4	588
1831.4	999
1832.4	248
1833.2	41
