Mass spectrum: GalNAcFucGlcNAcThrNAc-I; LC-ESI-QQ; MS2; CE:15V; [M+H]+
Name: GalNAcFucGlcNAcThrNAc-I
Name: GalNAc-alpha-1-2Fuc-alpha-1-3GlcNAc-beta-1-2ThrNAc (ThrNAc, 3-acetamido-3-deoxythreose)
Class: Natural Product; Oligosaccharide; O-linked glycan
Formula: C28H47N3O18
Exact mass: 713.28546
SMILES: N(C(C(OC(C(O)2)C(OC(C3O)C(NC(C)=O)C(OC(C=O)(C(CO)(NC(C)=O)[H])[H])OC3CO)OC(C)C2O)1)C(O)C(O)C(CO)O1)C(C)=O
InChI: InChI=1S/C28H47N3O18/c1-9-19(39)23(43)25(49-26-17(30-11(3)37)22(42)20(40)15(7-34)46-26)28(44-9)48-24-18(31-12(4)38)27(47-16(8-35)21(24)41)45-14(6-33)13(5-32)29-10(2)36/h6,9,13-28,32,34-35,39-43H,5,7-8H2,1-4H3,(H,29,36)(H,30,37)(H,31,38)/t9-,13-,14-,15+,16+,17+,18+,19+,20-,21+,22+,23+,24+,25-,26+,27+,28-/m0/s1
Instrument: 2695 HPLC Quadro Micro API, Waters
Instrument type: LC-ESI-QQ
Ms type: MS2
Ion mode: POSITIVE
Collision energy: 15.0 V
Ionization: ESI
Column name: TSK-GEL Amide-80 2.0 mm X 250 mm (TOSOH)
Retention time: 12.123 min
Derivative form: C37H58N4O19
Derivative mass: 862.36953
Derivative type: ABEE (p-Aminobenzoic acid ethyl ester)
Precursor m/z: 863.00
Precursor type: [M+H]+
m/z	relative intensity
203.9	91
310.8	79
349.0	11
349.6	73
350.2	15
456.8	18
467.3	24
512.8	43
513.5	435
514.2	135
515.0	17
551.7	52
552.4	263
553.1	65
553.9	10
613.0	23
613.9	23
658.9	381
659.8	646
660.4	85
661.1	23
670.4	12
815.7	20
816.6	45
861.3	110
861.9	872
862.8	999
863.5	140
864.2	51
