Mass spectrum: dulcoside A; LC-ESI-QQ; MS2; CE:60V; [M-H]-
Name: dulcoside A
Class: Natural Product; Steviol glycoside
Formula: C38H60O17
Exact mass: 788.38305
SMILES: C(C7)C(C)(C(C6)([H])C(C7)(C)C([H])(C2(C6)3)CCC(OC(O5)C(C(C(C5CO)O)O)OC(O4)C(C(C(O)C(C)4)O)O)(C3)C(=C)C2)C(=O)OC(C1O)OC(CO)C(C1O)O
InChI: InChI=1S/C38H60O17/c1-16-12-37-10-6-20-35(3,8-5-9-36(20,4)34(49)54-32-29(48)26(45)23(42)18(13-39)51-32)21(37)7-11-38(16,15-37)55-33-30(27(46)24(43)19(14-40)52-33)53-31-28(47)25(44)22(41)17(2)50-31/h17-33,39-48H,1,5-15H2,2-4H3/t17-,18+,19+,20-,21-,22-,23+,24+,25+,26-,27-,28+,29+,30+,31-,32-,33-,35+,36+,37+,38-/m0/s1
Instrument: 2695 HPLC Quadro Micro API, Waters
Instrument type: LC-ESI-QQ
Ms type: MS2
Ion mode: NEGATIVE
Collision energy: 60.0 V
Ionization: ESI
Column name: TSK-GEL Amide-80 2.0 mm X 250 mm (TOSOH)
Retention time: 7.869 min
Precursor m/z: 787.00
Precursor type: [M-H]-
m/z	relative intensity
316.7	82
317.3	432
358.9	36
371.5	29
413.1	48
413.8	90
460.5	70
461.2	147
462.9	38
478.4	280
479.1	999
479.7	127
624.4	460
625.1	837
625.8	78
641.3	22
651.7	19
787.1	43
