Mass spectrum: Man3GlcNAc2; LC-ESI-QQ; MS2; CE:25V; Amide
Name: Man3GlcNAc2
Name: Man-alpha-1-6(Man-alpha-1-3)Man-beta-1-4GlcNAc-beta-1-4GlcNAc
Class: Natural Product; Oligosaccharide; N-linked glycan; High-mannose Type
Formula: C34H58N2O26
Exact mass: 910.32778
SMILES: OC(C(O)1)C(O)C(OC(C2O)C(C(OC(C5CO)C(C(C(O5)OC(C4CO)C(C(NC(C)=O)C(O4)O)O)NC(C)=O)O)OC2COC(O3)C(C(C(O)C(CO)3)O)O)O)OC1CO
InChI: InChI=1S/C34H58N2O26/c1-8(41)35-15-20(46)27(12(5-39)55-30(15)53)60-31-16(36-9(2)42)21(47)28(13(6-40)58-31)61-34-26(52)29(62-33-25(51)23(49)18(44)11(4-38)57-33)19(45)14(59-34)7-54-32-24(50)22(48)17(43)10(3-37)56-32/h10-34,37-40,43-53H,3-7H2,1-2H3,(H,35,41)(H,36,42)/t10-,11-,12-,13-,14-,15-,16-,17-,18-,19-,20-,21-,22+,23+,24+,25+,26+,27-,28-,29+,30-,31+,32+,33-,34+/m1/s1
Instrument: 2695 HPLC Quadro Micro API, Waters
Instrument type: LC-ESI-QQ
Ms type: MS2
Ion mode: POSITIVE
Collision energy: 25.0 V
Ionization: ESI
Column name: TSK-GEL Amide-80 2.0 mm X 250 mm (TOSOH)
Retention time: 14.741 min
Derivative form: C43H69N3O27
Derivative mass: 1059.41184
Derivative type: ABEE (p-Aminobenzoic acid ethyl ester)
Precursor m/z: 1060.80
Precursor type: [M+H]+
m/z	relative intensity
324.1	10
324.8	59
365.0	60
365.7	236
366.5	33
370.1	168
370.7	921
371.5	180
372.3	17
486.1	12
487.0	17
509.4	10
526.9	117
527.7	369
528.6	88
532.3	14
572.5	16
573.1	295
574.0	244
574.9	55
688.7	500
689.6	999
690.3	274
691.0	92
734.7	67
735.7	120
736.7	58
851.2	18
852.0	16
896.6	155
897.1	33
897.7	342
898.7	115
899.4	27
1013.4	14
1058.2	156
1059.1	360
1059.9	649
1060.8	210
1061.4	22
