Mass spectrum: Man4GlcNAc-IV; LC-ESI-QQ; MS2; CE:25V; ODS
Name: Man4GlcNAc-IV
Name: Man-alpha-1-6(Man-alpha-1-2Man-alpha-1-3)Man-beta-1-7GlcNAc
Class: Natural Product; Oligosaccharide; N-linked glycan; High-mannose type
Formula: C32H55NO26
Exact mass: 869.30123
SMILES: CC(=O)N[C@@H]1[C@H]([C@@H]([C@H](O[C@H]1O)CO)O[C@H]2[C@H]([C@H]([C@@H]([C@H](O2)CO[C@@H]3[C@H]([C@H]([C@@H]([C@H](O3)CO)O)O)O)O)O[C@@H]4[C@H]([C@H]([C@@H]([C@H](O4)CO)O)O)O[C@@H]5[C@H]([C@H]([C@@H]([C@H](O5)CO)O)O)O)O)O
InChI: InChI=1S/C32H55NO26/c1-7(38)33-13-18(43)25(11(5-37)52-28(13)50)57-31-24(49)26(17(42)12(56-31)6-51-29-22(47)19(44)14(39)8(2-34)53-29)58-32-27(21(46)16(41)10(4-36)55-32)59-30-23(48)20(45)15(40)9(3-35)54-30/h8-32,34-37,39-50H,2-6H2,1H3,(H,33,38)/t8-,9-,10-,11-,12-,13-,14-,15-,16-,17-,18-,19+,20+,21+,22+,23+,24+,25-,26+,27+,28-,29+,30-,31+,32-/m1/s1
Instrument: 2695 HPLC Quadro Micro API, Waters
Instrument type: LC-ESI-QQ
Ms type: MS2
Ion mode: POSITIVE
Collision energy: 25.0 V
Ionization: ESI
Column name: Wakosil 5C18-200 2.0 mm X 250 mm (Wako)
Retention time: 23.501 min
Derivative form: C41H66N2O27
Derivative mass: 1018.38529
Derivative type: ABEE (p-Aminobenzoic acid ethyl ester)
Precursor m/z: 1019.30
Precursor type: [M+H]+
m/z	relative intensity
324.8	42
370.3	159
370.9	999
371.8	163
372.4	32
532.2	88
533.0	320
533.8	167
648.6	34
694.2	95
695.1	180
695.8	46
696.5	67
855.9	344
856.5	70
857.1	749
858.1	287
858.7	40
1017.9	173
1018.6	442
1019.6	650
1020.5	225
