Mass spectrum: Man2XylManGlcNAc2; LC-ESI-QQ; MS2; CE:30V; ODS
Name: Man2XylManGlcNAc2
Name: Man-alpha-1-6(Man-alpha-1-3)(Xyl-beta-1-2)Man-beta-1-4GlcNAc-beta-1-4GlcNAc
Class: Natural Product; Oligosaccharide; N-linked glycan; Complex type
Formula: C39H66N2O30
Exact mass: 1042.37004
SMILES: OC(C1O)C(OCC(O2)C(C(OC(O6)C(C(C(O)C(CO)6)O)O)C(OC(C(O)5)OCC(O)C5O)C2OC(C4CO)C(O)C(C(O4)OC(C3O)C(OC(C3NC(C)=O)O)CO)NC(C)=O)O)OC(C(O)1)CO
InChI: InChI=1S/C39H66N2O30/c1-9(46)40-17-23(53)30(14(5-44)63-34(17)60)68-35-18(41-10(2)47)24(54)31(15(6-45)66-35)69-39-33(71-37-27(57)19(49)11(48)7-61-37)32(70-38-29(59)26(56)21(51)13(4-43)65-38)22(52)16(67-39)8-62-36-28(58)25(55)20(50)12(3-42)64-36/h11-39,42-45,48-60H,3-8H2,1-2H3,(H,40,46)(H,41,47)/t11-,12-,13-,14-,15-,16-,17-,18-,19+,20-,21-,22-,23-,24-,25+,26+,27-,28+,29+,30-,31-,32+,33+,34-,35+,36+,37+,38-,39+/m1/s1
Instrument: 2695 HPLC Quadro Micro API, Waters
Instrument type: LC-ESI-QQ
Ms type: MS2
Ion mode: POSITIVE
Collision energy: 30.0 V
Ionization: ESI
Column name: Wakosil 5C18-200 2.0 mm X 250 mm (Wako)
Retention time: 34.056 min
Derivative form: C48H77N3O31
Derivative mass: 1191.45410
Derivative type: ABEE (p-Aminobenzoic acid ethyl ester)
Precursor m/z: 1192.00
Precursor type: [M+H]+
m/z	relative intensity
324.9	142
330.4	22
365.4	64
366.2	289
367.1	50
370.2	189
370.8	999
371.6	265
372.3	38
456.6	21
487.0	29
497.3	26
498.1	27
502.3	31
527.0	76
527.8	314
528.5	111
572.8	136
573.5	519
574.4	272
575.2	55
659.1	245
659.6	31
660.1	166
660.8	61
688.8	124
689.6	453
690.4	129
706.1	50
734.9	100
735.5	86
736.3	179
737.1	49
820.3	42
821.0	285
821.8	715
822.7	253
823.4	58
851.5	38
852.3	34
866.9	39
867.7	22
868.6	48
896.4	43
897.1	197
897.9	242
898.6	76
899.3	125
1028.1	25
1029.0	143
1030.1	178
1030.8	120
1031.6	68
1058.2	34
1059.0	107
1059.7	264
1060.6	150
1061.3	56
1061.9	34
1190.4	83
1191.3	260
1192.4	200
1193.4	83
