Mass spectrum: GlcNAcThrNAc; LC-ESI-QQ; MS2; CE:15V; [M+H]+
Name: GlcNAcThrNAc
Name: GlcNAc-beta-1-2ThrNAc (ThrNAc, 3-acetamido-3-deoxythreose)
Class: Natural Product; Oligosaccharide; O-linked glycan
Formula: C14H24N2O9
Exact mass: 364.14818
SMILES: OCC(O1)C(O)C(O)C(NC(C)=O)C1OC([H])(C=O)C([H])(CO)NC(C)=O
InChI: InChI=1S/C14H24N2O9/c1-6(20)15-8(3-17)9(4-18)24-14-11(16-7(2)21)13(23)12(22)10(5-19)25-14/h4,8-14,17,19,22-23H,3,5H2,1-2H3,(H,15,20)(H,16,21)/t8-,9-,10+,11+,12+,13+,14+/m0/s1
Instrument: 2695 HPLC Quadro Micro API, Waters
Instrument type: LC-ESI-QQ
Ms type: MS2
Ion mode: POSITIVE
Collision energy: 15.0 V
Ionization: ESI
Column name: TSK-GEL Amide-80 2.0 mm X 250 mm (TOSOH)
Retention time: 5.562 min
Derivative form: C23H35N3O10
Derivative mass: 513.23224
Derivative type: ABEE (p-Aminobenzoic acid ethyl ester)
Precursor m/z: 514.00
Precursor type: [M+H]+
m/z	relative intensity
203.3	19
203.9	823
264.7	265
292.6	20
310.2	26
310.8	999
311.3	23
466.9	37
467.6	217
468.2	16
485.6	15
513.0	56
513.6	214
514.2	20
