Mass spectrum: GlcNAc2Man3GlcNAc2; LC-ESI-QQ; MS2; CE:25V; Amide
Name: GlcNAc2Man3GlcNAc2
Name: GlcNAc-beta-1-2Man-alpha-1-6(GlcNAc-beta-1-2Man-alpha-1-3)Man-beta-1-4GlcNAc-beta-1-4GlcNAc
Class: Natural Product; Oligosaccharide; N-linked glycan; Complex type
Formula: C50H84N4O36
Exact mass: 1316.48653
SMILES: CC(=O)NC(C(O)1)C(OC(C(OC(C(O)5)C(O)C(OC(COC(O6)C(OC(C(NC(C)=O)7)OC(CO)C(C(O)7)O)C(C(C6CO)O)O)5)OC(C4O)C(CO)OC(C4NC(C)=O)OC(C3O)C(OC(O)C3NC(C)=O)CO)2)C(C(O)C(CO)O2)O)OC(CO)C1O
InChI: InChI=1S/C50H84N4O36/c1-12(61)51-23-34(72)39(20(9-59)79-44(23)77)86-47-26(54-15(4)64)35(73)40(21(10-60)84-47)87-48-38(76)41(88-50-43(37(75)30(68)19(8-58)83-50)90-46-25(53-14(3)63)33(71)28(66)17(6-56)81-46)31(69)22(85-48)11-78-49-42(36(74)29(67)18(7-57)82-49)89-45-24(52-13(2)62)32(70)27(65)16(5-55)80-45/h16-50,55-60,65-77H,5-11H2,1-4H3,(H,51,61)(H,52,62)(H,53,63)(H,54,64)/t16-,17-,18-,19-,20-,21-,22-,23-,24-,25-,26-,27-,28-,29-,30-,31-,32-,33-,34-,35-,36+,37+,38+,39-,40-,41+,42+,43+,44-,45+,46+,47+,48+,49+,50-/m1/s1
Instrument: 2695 HPLC Quadro Micro API, Waters
Instrument type: LC-ESI-QQ
Ms type: MS2
Ion mode: POSITIVE
Collision energy: 25 V
Ionization: ESI
Column name: TSK-GEL Amide-80 2.0 mm X 250 mm (TOSOH)
Retention time: 21.673 min
Derivative form: C59H95N5O37
Derivative mass: 1465.57059
Derivative type: ABEE (p-Aminobenzoic acid ethyl ester)
Precursor m/z: 1467.00
Precursor type: [M+H]+
m/z	relative intensity
365.3	24
370.8	33
528.0	32
573.6	60
689.1	44
690.2	24
730.2	24
735.2	21
891.9	62
892.7	39
893.8	33
897.0	33
897.9	52
1058.9	36
1059.9	100
1060.6	35
1094.2	31
1094.9	34
1095.8	124
1096.7	71
1099.8	23
1100.4	48
1101.3	40
1260.9	105
1261.9	442
1262.8	523
1263.6	308
1264.4	78
1463.2	58
1463.8	244
1464.7	562
1465.7	999
1466.6	562
1467.2	112
