Mass spectrum: GlcNAc2Man2XylManGlcNAcFucGlcNAc; LC-ESI-QQ; MS2; CE:35V; Amide
Name: GlcNAc2Man2XylManGlcNAcFucGlcNAc
Name: GlcNAc-beta-1-2Man-alpha-1-6(GlcNAc-beta-1-2Man-alpha-1-3)(Xyl-beta-1-2)Man-beta-1-4GlcNAc-beta-1-4(Fuc-alpha-1-3)GlcNAc
Class: Natural Product; Oligosaccharide; N-linked glycan; Complex type
Formula: C61H102N4O44
Exact mass: 1594.58669
SMILES: OCC(C(OC(O5)C(C(OC(O8)C(OC(C(NC(C)=O)9)OC(CO)C(O)C9O)C(C(O)C8CO)O)C(C5COC(O6)C(OC(O7)C(NC(C)=O)C(C(C(CO)7)O)O)C(O)C(C(CO)6)O)O)OC(C(O)4)OCC(O)C4O)1)OC(OC(C(OC(C3O)OC(C)C(C(O)3)O)2)C(CO)OC(O)C(NC(C)=O)2)C(C1O)NC(C)=O
InChI: InChI=1S/C61H102N4O44/c1-14-31(77)41(87)45(91)58(95-14)105-48-30(65-18(5)75)53(92)96-25(11-71)47(48)104-56-29(64-17(4)74)40(86)46(24(10-70)101-56)103-61-52(109-57-44(90)32(78)19(76)12-93-57)49(106-60-51(43(89)36(82)23(9-69)100-60)108-55-28(63-16(3)73)39(85)34(80)21(7-67)98-55)37(83)26(102-61)13-94-59-50(42(88)35(81)22(8-68)99-59)107-54-27(62-15(2)72)38(84)33(79)20(6-66)97-54/h14,19-61,66-71,76-92H,6-13H2,1-5H3,(H,62,72)(H,63,73)(H,64,74)(H,65,75)/t14-,19+,20+,21+,22+,23+,24+,25+,26+,27+,28+,29+,30+,31+,32-,33+,34+,35+,36+,37+,38+,39+,40+,41+,42-,43-,44+,45-,46+,47+,48+,49-,50-,51-,52-,53+,54-,55-,56-,57-,58-,59-,60+,61-/m0/s1
Instrument: 2695 HPLC Quadro Micro API, Waters
Instrument type: LC-ESI-QQ
Ms type: MS2
Ion mode: POSITIVE
Collision energy: 35.0 V
Ionization: ESI
Column name: TSK-GEL Amide-80 2.0 mm X 250 mm (TOSOH)
Retention time: 29.710 min
Derivative form: C70H113N5O45
Derivative mass: 1743.67076
Derivative type: ABEE (p-Aminobenzoic acid ethyl ester)
Precursor m/z: 1744.00
Precursor type: [M+H]+
m/z	relative intensity
335.0	54
337.2	76
365.1	135
366.0	569
370.1	73
370.9	483
371.6	140
372.3	70
498.0	163
516.8	199
517.7	132
526.8	300
527.9	428
528.6	73
573.1	352
573.8	831
574.4	97
658.8	117
660.0	205
672.9	50
674.2	67
678.2	50
689.7	179
706.1	64
707.2	87
718.9	153
720.0	238
720.7	114
730.9	78
735.5	323
736.2	73
821.0	98
822.1	83
862.7	54
863.5	112
866.8	77
867.7	80
892.0	91
892.9	55
893.9	50
896.6	54
897.2	75
898.1	103
967.2	51
1009.5	59
1023.7	329
1024.3	164
1025.0	325
1025.7	105
1028.4	73
1029.9	139
1031.7	52
1058.7	122
1059.4	66
1061.1	50
1095.7	72
1171.0	77
1171.8	83
1174.9	95
1175.6	163
1190.2	94
1191.4	76
1193.0	126
1205.9	109
1226.0	176
1226.7	330
1227.5	411
1228.4	137
1229.1	116
1233.1	80
1246.7	53
1263.0	146
1336.9	103
1338.2	176
1338.9	51
1347.0	72
1372.5	65
1374.1	144
1376.2	87
1378.7	70
1380.1	83
1393.1	120
1394.3	231
1395.1	226
1407.2	65
1408.7	174
1409.4	110
1538.8	182
1539.6	738
1540.5	999
1541.4	766
1542.1	288
1597.9	120
1611.1	103
1612.1	192
1613.5	76
1741.6	78
1742.2	320
1743.0	699
1744.1	613
1744.9	261
