Mass spectrum: GalNAcFucGlcNAcThrNAc-II; LC-ESI-QQ; MS2; CE:15V; [M+H]+
Name: GalNAcFucGlcNAcThrNAc-II
Name: GalNAc-beta-1-4(Fuc-alpha-1-3)GlcNAc-beta-1-2ThrNAc (ThrNAc, 3-acetamido-3-deoxythreose)
Class: Natural Product; Oligosaccharide; O-linked glycan
Formula: C28H47N3O18
Exact mass: 713.28546
SMILES: N(C(C(OC(C(OC(O3)C(O)C(O)C(O)C(C)3)2)C(OC(C(NC(C)=O)2)OC(C=O)(C(CO)(NC(C)=O)[H])[H])CO)1)C(O)C(O)C(CO)O1)C(C)=O
InChI: InChI=1S/C28H47N3O18/c1-9-19(39)22(42)23(43)28(44-9)49-25-18(31-12(4)38)27(45-14(6-33)13(5-32)29-10(2)36)47-16(8-35)24(25)48-26-17(30-11(3)37)21(41)20(40)15(7-34)46-26/h6,9,13-28,32,34-35,39-43H,5,7-8H2,1-4H3,(H,29,36)(H,30,37)(H,31,38)/t9-,13-,14-,15+,16+,17+,18+,19+,20-,21+,22+,23-,24+,25+,26-,27+,28-/m0/s1
Instrument: 2695 HPLC Quadro Micro API, Waters
Instrument type: LC-ESI-QQ
Ms type: MS2
Ion mode: POSITIVE
Collision energy: 15.0 V
Ionization: ESI
Column name: TSK-GEL Amide-80 2.0 mm X 250 mm (TOSOH)
Retention time: 15.813 min
Derivative form: C37H58N4O19
Derivative mass: 862.36953
Derivative type: ABEE (p-Aminobenzoic acid ethyl ester)
Precursor m/z: 863.00
Precursor type: [M+H]+
m/z	relative intensity
203.9	80
221.8	27
310.8	73
349.6	56
405.8	41
406.6	244
407.2	33
456.5	12
477.4	19
513.6	56
514.3	13
551.8	138
552.6	418
553.3	61
554.1	12
659.3	36
660.0	20
670.4	10
698.4	29
715.9	212
716.9	204
717.5	16
718.2	11
816.1	14
844.0	14
844.8	13
861.1	32
861.7	644
862.6	999
863.2	261
864.1	35
