Mass spectrum: ManGlcNAc2; LC-ESI-QQ; MS2; CE:10V; Amide
Name: ManGlcNAc2
Name: Man-beta-1-4GlcNAc-beta-1-4GlcNAc
Class: Natural Product; Oligosaccharide; N-linked glycan; High-mannose Type
Formula: C22H38N2O16
Exact mass: 586.22213
SMILES: CC(=O)NC(C(O)3)C(O)C(C(CO)O3)OC(O1)C(NC(C)=O)C(O)C(OC(O2)C(O)C(O)C(O)C(CO)2)C(CO)1
InChI: InChI=1S/C22H38N2O16/c1-6(28)23-11-14(31)18(9(4-26)36-20(11)35)39-21-12(24-7(2)29)15(32)19(10(5-27)38-21)40-22-17(34)16(33)13(30)8(3-25)37-22/h8-22,25-27,30-35H,3-5H2,1-2H3,(H,23,28)(H,24,29)/t8-,9-,10-,11-,12-,13-,14-,15-,16+,17+,18-,19-,20-,21+,22+/m1/s1
Instrument: 2695 HPLC Quadro Micro API, Waters
Instrument type: LC-ESI-QQ
Ms type: MS2
Ion mode: POSITIVE
Collision energy: 10.0 V
Ionization: ESI
Column name: TSK-GEL Amide-80 2.0 mm X 250 mm (TOSOH)
Retention time: 6.637 min
Derivative form: C31H49N3O17
Derivative mass: 735.30620
Derivative type: ABEE (p-Aminobenzoic acid ethyl ester)
Precursor m/z: 736.00
Precursor type: [M+H]+
m/z	relative intensity
366.0	50
370.7	12
574.3	12
735.0	24
735.5	592
736.4	999
737.0	95
