Mass spectrum: rebaudioside D; LC-ESI-QQ; MS2; CE:80V; [M-H]-
Name: rebaudioside D
Class: Natural Product; Steviol glycoside
Formula: C50H80O28
Exact mass: 1128.48361
SMILES: C(C7)C(C)(C(C(C(OC(O9)C(C(O)C(O)C9CO)OC(C8O)OC(CO)C(O)C8O)=O)(C7)C)([H])6)C(C5(CC6)1)(CCC(C5)(OC(C2OC(O4)C(O)C(O)C(C(CO)4)O)OC(CO)C(O)C2OC(C3O)OC(CO)C(C3O)O)C(C1)=C)[H]
InChI: InChI=1S/C50H80O28/c1-18-11-49-9-5-24-47(2,7-4-8-48(24,3)46(68)77-44-39(34(64)29(59)22(15-54)72-44)75-42-36(66)32(62)27(57)20(13-52)70-42)25(49)6-10-50(18,17-49)78-45-40(76-43-37(67)33(63)28(58)21(14-53)71-43)38(30(60)23(16-55)73-45)74-41-35(65)31(61)26(56)19(12-51)69-41/h19-45,51-67H,1,4-17H2,2-3H3/t19-,20-,21-,22-,23-,24+,25+,26-,27-,28-,29-,30-,31+,32+,33+,34+,35-,36-,37-,38+,39-,40-,41+,42+,43+,44+,45+,47-,48-,49-,50+/m1/s1
Instrument: 2695 HPLC Quadro Micro API, Waters
Instrument type: LC-ESI-QQ
Ms type: MS2
Ion mode: NEGATIVE
Collision energy: 80.0 V
Ionization: ESI
Column name: TSK-GEL Amide-80 2.0 mm X 250 mm (TOSOH)
Retention time: 29.999 min
Precursor m/z: 1127.00
Precursor type: [M-H]-
m/z	relative intensity
316.8	171
317.6	424
370.7	20
371.6	12
373.7	19
412.7	114
413.4	249
414.0	28
424.8	18
425.7	24
442.6	22
443.6	32
460.4	39
461.2	134
461.8	28
478.7	430
479.5	714
622.1	13
622.8	51
623.7	73
640.0	49
640.7	635
641.5	999
642.2	292
802.0	28
802.6	169
803.4	225
804.1	109
