Mass spectrum: GalGlcNAc2Man3GlcNAc2-I; LC-ESI-QQ; MS2; CE:35V; Amide
Name: GalGlcNAc2Man3GlcNAc2-I
Name: Gal-beta-1-4GlcNAc-beta-1-2Man-alpha-1-6(GlcNAc-beta-1-2Man-alpha-1-3)Man-beta-1-4GlcNAc-beta-1-4GlcNAc
Class: Natural Product; Oligosaccharide; N-linked glycan; Complex type
Formula: C56H94N4O41
Exact mass: 1478.53935
SMILES: C(C1NC(C)=O)(C(OC(C(NC(C)=O)8)OC(C(C(O)8)OC(O4)C(C(C(O)C(COC(O5)C(OC(O7)C(NC(C)=O)C(C(C7CO)OC(C6O)OC(C(C6O)O)CO)O)C(C(C(CO)5)O)O)4)OC(C2OC(O3)C(NC(C)=O)C(C(O)C(CO)3)O)OC(CO)C(C(O)2)O)O)CO)C(CO)OC1O)O
InChI: InChI=1S/C56H94N4O41/c1-13(68)57-25-35(78)43(21(9-65)88-49(25)86)96-51-27(59-15(3)70)36(79)45(23(11-67)93-51)98-54-42(85)46(99-56-48(40(83)32(75)20(8-64)92-56)101-50-26(58-14(2)69)34(77)29(72)17(5-61)89-50)33(76)24(95-54)12-87-55-47(39(82)31(74)19(7-63)91-55)100-52-28(60-16(4)71)37(80)44(22(10-66)94-52)97-53-41(84)38(81)30(73)18(6-62)90-53/h17-56,61-67,72-86H,5-12H2,1-4H3,(H,57,68)(H,58,69)(H,59,70)(H,60,71)/t17-,18-,19-,20-,21-,22-,23-,24-,25-,26-,27-,28-,29-,30+,31-,32-,33-,34-,35-,36-,37-,38+,39+,40+,41-,42+,43-,44-,45-,46+,47+,48+,49-,50+,51+,52+,53+,54+,55+,56-/m1/s1
Instrument: 2695 HPLC Quadro Micro API, Waters
Instrument type: LC-ESI-QQ
Ms type: MS2
Ion mode: POSITIVE
Collision energy: 35 V
Ionization: ESI
Column name: TSK-GEL Amide-80 2.0 mm X 250 mm (TOSOH)
Retention time: 26.324 min
Derivative form: C65H105N5O42
Derivative mass: 1627.62341
Derivative type: ABEE (p-Aminobenzoic acid ethyl ester)
Precursor m/z: 1629.00
Precursor type: [M+H]+
m/z	relative intensity
325.3	72
365.0	382
365.8	965
366.5	157
367.3	68
370.0	73
371.0	320
509.6	30
527.5	372
528.2	75
529.0	63
573.0	291
573.9	215
575.0	45
688.7	33
689.5	163
690.4	42
708.0	36
730.3	69
731.1	68
735.0	89
736.0	105
851.7	58
891.9	185
892.6	99
893.3	164
894.2	47
896.5	91
897.3	200
898.2	254
899.0	102
1030.3	30
1053.2	41
1053.9	33
1054.6	51
1055.3	50
1058.5	131
1059.4	356
1060.4	152
1061.4	130
1098.9	73
1099.6	69
1100.4	263
1101.3	129
1102.2	80
1216.3	54
1255.9	34
1256.6	191
1257.5	314
1258.4	173
1259.2	90
1261.1	368
1261.7	51
1262.3	963
1263.3	999
1264.1	276
1264.7	40
1423.5	75
1424.2	33
1424.9	125
1426.1	83
1465.2	45
1625.7	203
1626.5	231
1627.3	421
1628.5	238
1629.4	52
