Mass spectrum: Man5GlcNAc-I; LC-ESI-QQ; MS2; CE:30V; ODS
Name: Man5GlcNAc-I
Name: Man-alpha-1-6(Man-alpha-1-3)Man-alpha-1-6(Man-alpha-1-3)Man-beta-1-7GlcNAc
Class: Natural Product; Oligosaccharide; N-linked glycan; High-mannose type
Formula: C38H65NO31
Exact mass: 1031.35405
SMILES: CC(=O)N[C@@H]1[C@H]([C@@H]([C@H](O[C@H]1O)CO)O[C@H]2[C@H]([C@H]([C@@H]([C@H](O2)CO[C@@H]3[C@H]([C@H]([C@@H]([C@H](O3)CO[C@@H]4[C@H]([C@H]([C@@H]([C@H](O4)CO)O)O)O)O)O[C@@H]5[C@H]([C@H]([C@@H]([C@H](O5)CO)O)O)O)O)O)O[C@@H]6[C@H]([C@H]([C@@H]([C@H](O6)CO)O)O)O)O)O
InChI: InChI=1S/C38H65NO31/c1-8(44)39-15-21(50)30(12(5-43)62-33(15)59)68-38-29(58)32(70-37-27(56)24(53)18(47)11(4-42)65-37)20(49)14(67-38)7-61-35-28(57)31(69-36-26(55)23(52)17(46)10(3-41)64-36)19(48)13(66-35)6-60-34-25(54)22(51)16(45)9(2-40)63-34/h9-38,40-43,45-59H,2-7H2,1H3,(H,39,44)/t9-,10-,11-,12-,13-,14-,15-,16-,17-,18-,19-,20-,21-,22+,23+,24+,25+,26+,27+,28+,29+,30-,31+,32+,33-,34+,35+,36-,37-,38+/m1/s1
Instrument: 2695 HPLC Quadro Micro API, Waters
Instrument type: LC-ESI-QQ
Ms type: MS2
Ion mode: POSITIVE
Collision energy: 30.0 V
Ionization: ESI
Column name: Wakosil 5C18-200 2.0 mm X 250 mm (Wako)
Retention time: 13.168 min
Derivative form: C47H76N2O32
Derivative mass: 1180.43812
Derivative type: ABEE (p-Aminobenzoic acid ethyl ester)
Precursor m/z: 1181.02
Precursor type: [M+H]+
m/z	relative intensity
370.4	290
371.1	999
532.3	271
694.7	903
695.3	313
856.1	317
1018.4	254
1019.3	444
1020.2	155
1180.0	721
1180.9	938
1181.8	516
