Mass spectrum: rebaudioside N; LC-ESI-QQ; MS2; CE:60V; [M-H]-
Name: rebaudioside N
Class: Natural Product; Steviol glycoside
Formula: C56H90O32
Exact mass: 1274.54152
SMILES: C(O)C(O1)C(O)C(C(C1OC(C2OC(C(O)%10)OC(C(O)C(O)%10)C)C(C(OC2OC(C(C9)(C(C8)([H])C(C)(CC9)C(C43C8)([H])CCC(OC(O6)C(C(OC(O7)C(O)C(C(C(CO)7)O)O)C(O)C6CO)OC(C5O)OC(CO)C(C(O)5)O)(C4)C(=C)C3)C)=O)CO)O)O)O
InChI: InChI=1S/C56H90O32/c1-19-12-55-10-6-26-53(3,8-5-9-54(26,4)52(76)87-50-44(85-46-38(72)34(68)28(62)20(2)77-46)42(32(66)24(16-60)81-50)83-47-39(73)35(69)29(63)21(13-57)78-47)27(55)7-11-56(19,18-55)88-51-45(86-49-41(75)37(71)31(65)23(15-59)80-49)43(33(67)25(17-61)82-51)84-48-40(74)36(70)30(64)22(14-58)79-48/h20-51,57-75H,1,5-18H2,2-4H3/t20-,21+,22+,23+,24+,25+,26-,27-,28-,29+,30+,31+,32+,33+,34+,35-,36-,37-,38+,39+,40+,41+,42-,43-,44+,45+,46-,47-,48-,49-,50-,51-,53+,54+,55+,56-/m0/s1
Instrument: 2695 HPLC Quadro Micro API, Waters
Instrument type: LC-ESI-QQ
Ms type: MS2
Ion mode: NEGATIVE
Collision energy: 60.0 V
Ionization: ESI
Column name: TSK-GEL Amide-80 2.0 mm X 250 mm (TOSOH)
Retention time: 36.781 min
Precursor m/z: 1273.00
Precursor type: [M-H]-
m/z	relative intensity
317.3	15
622.8	13
623.7	18
640.6	88
641.5	126
802.4	432
803.3	999
803.9	228
844.8	11
1110.3	31
1111.3	41
1112.1	39
1271.9	41
1272.7	111
1273.8	134
1274.5	35
