Mass spectrum: Man2XylManGlcNAc2; LC-ESI-QQ; MS2; CE:20V; ODS
Name: Man2XylManGlcNAc2
Name: Man-alpha-1-6(Man-alpha-1-3)(Xyl-beta-1-2)Man-beta-1-4GlcNAc-beta-1-4GlcNAc
Class: Natural Product; Oligosaccharide; N-linked glycan; Complex type
Formula: C39H66N2O30
Exact mass: 1042.37004
SMILES: OC(C1O)C(OCC(O2)C(C(OC(O6)C(C(C(O)C(CO)6)O)O)C(OC(C(O)5)OCC(O)C5O)C2OC(C4CO)C(O)C(C(O4)OC(C3O)C(OC(C3NC(C)=O)O)CO)NC(C)=O)O)OC(C(O)1)CO
InChI: InChI=1S/C39H66N2O30/c1-9(46)40-17-23(53)30(14(5-44)63-34(17)60)68-35-18(41-10(2)47)24(54)31(15(6-45)66-35)69-39-33(71-37-27(57)19(49)11(48)7-61-37)32(70-38-29(59)26(56)21(51)13(4-43)65-38)22(52)16(67-39)8-62-36-28(58)25(55)20(50)12(3-42)64-36/h11-39,42-45,48-60H,3-8H2,1-2H3,(H,40,46)(H,41,47)/t11-,12-,13-,14-,15-,16-,17-,18-,19+,20-,21-,22-,23-,24-,25+,26+,27-,28+,29+,30-,31-,32+,33+,34-,35+,36+,37+,38-,39+/m1/s1
Instrument: 2695 HPLC Quadro Micro API, Waters
Instrument type: LC-ESI-QQ
Ms type: MS2
Ion mode: POSITIVE
Collision energy: 20.0 V
Ionization: ESI
Column name: Wakosil 5C18-200 2.0 mm X 250 mm (Wako)
Retention time: 34.165 min
Derivative form: C48H77N3O31
Derivative mass: 1191.45410
Derivative type: ABEE (p-Aminobenzoic acid ethyl ester)
Precursor m/z: 1192.00
Precursor type: [M+H]+
m/z	relative intensity
370.2	17
371.1	30
527.6	23
573.9	36
689.9	20
820.4	13
821.1	97
822.1	86
823.0	15
897.4	15
898.3	12
1028.7	37
1029.5	23
1030.1	63
1031.0	31
1058.7	25
1059.5	60
1060.5	62
1189.8	21
1190.3	272
1191.3	912
1192.4	999
1193.3	267
1194.0	19
