Mass spectrum: ManGlcNAcFucGlcNAc; LC-ESI-QQ; MS2; CE:10V; ODS
Name: ManGlcNAcFucGlcNAc
Name: Man-beta-1-4GlcNAc-beta-1-4(Fuc-alpha-1-3)GlcNAc
Class: Natural Product; Oligosaccharide; N-linked glycan; Complex type
Formula: C28H48N2O20
Exact mass: 732.28004
SMILES: OCC(C1OC(O4)C(O)C(O)C(O)C4CO)OC(OC(C(OC(O3)C(O)C(O)C(O)C(C)3)2)C(OC(O)C(NC(C)=O)2)CO)C(NC(C)=O)C(O)1
InChI: InChI=1S/C28H48N2O20/c1-7-15(36)18(39)20(41)27(44-7)50-24-14(30-9(3)35)25(43)45-12(6-33)23(24)49-26-13(29-8(2)34)17(38)22(11(5-32)47-26)48-28-21(42)19(40)16(37)10(4-31)46-28/h7,10-28,31-33,36-43H,4-6H2,1-3H3,(H,29,34)(H,30,35)/t7-,10+,11+,12+,13+,14+,15+,16+,17+,18+,19-,20-,21-,22+,23+,24+,25+,26-,27-,28-/m0/s1
Instrument: 2695 HPLC Quadro Micro API, Waters
Instrument type: LC-ESI-QQ
Ms type: MS2
Ion mode: POSITIVE
Collision energy: 10.0 V
Ionization: ESI
Column name: Wakosil 5C18-200 2.0 mm X 250 mm (Wako)
Retention time: 26.196 min
Derivative form: C37H59N3O21
Derivative mass: 881.36411
Derivative type: ABEE (p-Aminobenzoic acid ethyl ester)
Precursor m/z: 882.00
Precursor type: [M+H]+
m/z	relative intensity
365.7	13
736.0	18
880.5	16
881.0	570
882.0	999
882.7	238
883.6	45
