Mass spectrum: 4-GlcNAc3Man3GlcNAc2; LC-ESI-QQ; MS2; CE:35V; Amide
Name: 4-GlcNAc3Man3GlcNAc2
Name: GlcNAc-beta-1-2Man-alpha-1-6[GlcNAc-beta-1-4(GlcNAc-beta-1-2)Man-alpha-1-3]Man-beta-1-4GlcNAc-beta-1-4GlcNAc
Class: Natural Product; Oligosaccharide; N-linked glycan; Complex type
Formula: C58H97N5O41
Exact mass: 1519.56590
SMILES: N(C(C8O)C(OC(CO)C(O)8)OC(C1OCC(O5)C(O)C(C(O)C(OC(C6O)C(OC(OC(C7CO)C(C(NC(C)=O)C(O)O7)O)C(NC(C)=O)6)CO)5)OC(O2)C(OC(C(NC(C)=O)4)OC(CO)C(O)C4O)C(C(OC(C(NC(C)=O)3)OC(C(C(O)3)O)CO)C2CO)O)C(O)C(C(O1)CO)O)C(C)=O
InChI: InChI=1S/C58H97N5O41/c1-14(71)59-27-40(84)45(23(10-68)91-51(27)89)99-55-31(63-18(5)75)41(85)46(24(11-69)96-55)101-56-44(88)48(36(80)26(98-56)13-90-57-49(42(86)35(79)22(9-67)95-57)103-53-29(61-16(3)73)38(82)33(77)20(7-65)93-53)102-58-50(104-54-30(62-17(4)74)39(83)34(78)21(8-66)94-54)43(87)47(25(12-70)97-58)100-52-28(60-15(2)72)37(81)32(76)19(6-64)92-52/h19-58,64-70,76-89H,6-13H2,1-5H3,(H,59,71)(H,60,72)(H,61,73)(H,62,74)(H,63,75)/t19-,20-,21-,22-,23-,24-,25-,26-,27-,28-,29-,30-,31-,32-,33-,34-,35-,36-,37-,38-,39-,40-,41-,42+,43+,44+,45-,46-,47-,48+,49+,50+,51-,52+,53+,54+,55+,56+,57+,58-/m1/s1
Instrument: 2695 HPLC Quadro Micro API, Waters
Instrument type: LC-ESI-QQ
Ms type: MS2
Ion mode: POSITIVE
Collision energy: 35 V
Ionization: ESI
Column name: TSK-GEL Amide-80 2.0 mm X 250 mm (TOSOH)
Retention time: 24.816 min
Derivative form: C67H108N6O42
Derivative mass: 1668.64996
Derivative type: ABEE (p-Aminobenzoic acid ethyl ester)
Precursor m/z: 1670.00
Precursor type: [M+H]+
m/z	relative intensity
365.8	695
366.7	225
371.1	641
372.1	79
527.4	175
528.0	534
528.7	243
533.6	68
546.5	60
569.5	121
573.5	273
574.2	722
575.0	224
689.7	107
690.4	303
708.0	53
730.7	119
731.7	183
732.6	51
735.9	200
736.7	366
738.1	50
892.5	224
893.4	444
894.1	170
897.1	201
898.0	561
898.5	55
899.1	488
1059.8	315
1060.5	113
1061.2	266
1095.3	117
1096.3	423
1096.9	61
1097.4	348
1100.3	113
1101.2	299
1101.8	98
1102.5	177
1103.6	74
1262.5	302
1263.3	758
1264.2	948
1265.0	286
1265.6	106
1298.2	94
1299.3	241
1300.2	202
1301.2	168
1464.7	86
1465.6	543
1466.1	61
1466.7	999
1467.4	533
1468.2	275
1651.8	55
1667.6	71
1668.5	296
1669.2	224
1670.0	222
1670.7	483
1671.5	131
