Mass spectrum: GalGlcNAc2Man2GlcNAcManGlcNAc2-II; LC-ESI-QQ; MS2; CE:25V; Amide
Name: GalGlcNAc2Man2GlcNAcManGlcNAc2-II
Name: GlcNAc-beta-1-2Man-alpha-1-6(GlcNAc-beta-1-4)(Gal-beta-1-4GlcNAc-beta-1-2Man-alpha-1-3)Man-beta-1-4GlcNAc-beta-1-4GlcNAc
Class: Natural Product; Oligosaccharide; N-linked glycan; Complex type
Formula: C64H107N5O46
Exact mass: 1681.61872
SMILES: C(C9O)(C(NC(C)=O)C(OC9CO)OC(C8O)C(OC(C8O)CO)OCC(C(OC(O7)C(C(O)C(O)C7CO)NC(C)=O)3)OC(C(C3OC(C(OC(C6NC(C)=O)OC(C(C6O)OC(C5O)OC(CO)C(C5O)O)CO)4)OC(C(O)C(O)4)CO)O)OC(C(O)1)C(OC(OC(C2O)C(OC(C2NC(C)=O)O)CO)C1NC(C)=O)CO)O
InChI: InChI=1S/C64H107N5O46/c1-15(78)65-29-41(90)49(25(11-75)100-56(29)98)109-59-32(68-18(4)81)42(91)51(27(13-77)106-59)111-62-48(97)53(113-64-55(46(95)38(87)24(10-74)105-64)115-60-33(69-19(5)82)43(92)50(26(12-76)107-60)110-61-47(96)44(93)36(85)22(8-72)103-61)52(112-57-30(66-16(2)79)39(88)34(83)20(6-70)101-57)28(108-62)14-99-63-54(45(94)37(86)23(9-73)104-63)114-58-31(67-17(3)80)40(89)35(84)21(7-71)102-58/h20-64,70-77,83-98H,6-14H2,1-5H3,(H,65,78)(H,66,79)(H,67,80)(H,68,81)(H,69,82)/t20-,21-,22-,23-,24-,25-,26-,27-,28-,29-,30-,31-,32-,33-,34-,35-,36+,37-,38-,39-,40-,41-,42-,43-,44+,45+,46+,47-,48+,49-,50-,51-,52-,53-,54+,55+,56-,57+,58+,59+,60+,61+,62+,63+,64-/m1/s1
Instrument: 2695 HPLC Quadro Micro API, Waters
Instrument type: LC-ESI-QQ
Ms type: MS2
Ion mode: POSITIVE
Collision energy: 25.0 V
Ionization: ESI
Column name: TSK-GEL Amide-80 2.0 mm X 250 mm (TOSOH)
Retention time: 29.313 min
Derivative form: C73H118N6O47
Derivative mass: 1830.70279
Derivative type: ABEE (p-Aminobenzoic acid ethyl ester)
Precursor m/z: 1833.00
Precursor type: [M+H]+
m/z	relative intensity
311.2	56
365.4	115
366.5	65
370.5	107
406.9	43
572.7	54
573.4	28
689.4	42
730.2	74
731.6	39
735.3	53
893.3	51
896.1	22
932.3	21
938.9	25
1054.8	20
1099.7	23
1100.7	34
1101.9	46
1257.5	20
1258.4	35
1261.0	23
1262.4	65
1263.3	244
1264.2	116
1266.5	25
1460.9	103
1462.2	35
1463.3	47
1464.7	451
1465.3	32
1465.9	218
1467.0	253
1626.1	44
1627.1	34
1628.1	74
1629.4	35
1630.5	30
1670.3	27
1670.9	28
1828.2	26
1829.1	103
1829.8	404
1830.7	668
1831.2	25
1831.8	999
1832.4	75
1832.9	585
