Mass spectrum: GalGlcNAcMan3GlcNAc2-II; LC-ESI-QQ; MS2; CE:20V; Amide
Name: GalGlcNAcMan3GlcNAc2-II
Name: Man-alpha-1-6(Gal-beta-1-4GlcNAc-beta-1-2Man-alpha-1-3)Man-beta-1-4GlcNAc-beta1-4GlcNAc
Class: Natural Product; Oligosaccharide; N-linked glycan; Hybrid type
Formula: C48H81N3O36
Exact mass: 1275.45998
SMILES: C(O)C(O1)C(C(O)C(OC(O7)C(NC(C)=O)C(C(C7CO)OC(O6)C(C(C(O)C(CO)6)O)O)O)C1OC(C(O)3)C(C(OC(OC(C(O)5)C(OC(C5NC(C)=O)OC(C4CO)C(O)C(NC(C)=O)C(O4)O)CO)3)COC(O2)C(O)C(O)C(O)C(CO)2)O)O
InChI: InChI=1S/C48H81N3O36/c1-11(58)49-21-28(65)37(17(7-55)76-42(21)74)83-43-22(50-12(2)59)29(66)39(19(9-57)80-43)85-47-36(73)40(27(64)20(82-47)10-75-45-34(71)31(68)24(61)14(4-52)77-45)86-48-41(33(70)26(63)16(6-54)79-48)87-44-23(51-13(3)60)30(67)38(18(8-56)81-44)84-46-35(72)32(69)25(62)15(5-53)78-46/h14-48,52-57,61-74H,4-10H2,1-3H3,(H,49,58)(H,50,59)(H,51,60)/t14-,15-,16-,17-,18-,19-,20-,21-,22-,23-,24-,25+,26-,27-,28-,29-,30-,31+,32+,33+,34+,35-,36+,37-,38-,39-,40+,41+,42-,43+,44+,45+,46+,47+,48-/m1/s1
Instrument: 2695 HPLC Quadro Micro API, Waters
Instrument type: LC-ESI-QQ
Ms type: MS2
Ion mode: POSITIVE
Collision energy: 20 V
Ionization: ESI
Column name: TSK-GEL Amide-80 2.0 mm X 250 mm (TOSOH)
Retention time: 24.126 min
Derivative form: C57H92N4O37
Derivative mass: 1424.54404
Derivative type: ABEE (p-Aminobenzoic acid ethyl ester)
Precursor m/z: 1426.00
Precursor type: [M+H]+
m/z	relative intensity
364.5	11
365.1	41
365.9	30
370.4	11
371.2	17
526.9	15
573.3	15
574.4	33
689.1	16
734.7	13
897.1	43
898.0	72
898.8	12
1053.2	18
1054.0	55
1054.9	23
1057.4	12
1058.5	55
1059.3	169
1060.0	36
1060.7	106
1061.3	18
1261.7	40
1263.1	24
1378.4	11
1422.4	47
1423.1	505
1423.9	999
1424.8	841
1425.7	597
1426.3	48
1426.9	12
