Mass spectrum: GalNAcFucGlcNAcGA-II; LC-ESI-QQ; MS2; CE:25V; [M+H]+
Name: GalNAcFucGlcNAcGA-II
Name: GalNAc-beta-1-4(Fuc-alpha-1-3)GlcNAc-beta-1-2GA (GA, glycolaldehyde)
Class: Natural Product; Oligosaccharide; O-linked glycan
Formula: C24H40N2O16
Exact mass: 612.23778
SMILES: O=CCOC(O1)C(NC(C)=O)C(OC(O3)C(O)C(O)C(O)C(C)3)C(OC(O2)C(NC(C)=O)C(O)C(O)C(CO)2)C(CO)1
InChI: InChI=1S/C24H40N2O16/c1-8-15(32)18(35)19(36)24(38-8)42-21-14(26-10(3)31)22(37-5-4-27)40-12(7-29)20(21)41-23-13(25-9(2)30)17(34)16(33)11(6-28)39-23/h4,8,11-24,28-29,32-36H,5-7H2,1-3H3,(H,25,30)(H,26,31)/t8-,11+,12+,13+,14+,15+,16-,17+,18+,19-,20+,21+,22+,23-,24-/m0/s1
Instrument: 2695 HPLC Quadro Micro API, Waters
Instrument type: LC-ESI-QQ
Ms type: MS2
Ion mode: POSITIVE
Collision energy: 25.0 V
Ionization: ESI
Column name: TSK-GEL Amide-80 2.0 mm X 250 mm (TOSOH)
Retention time: 11.858 min
Derivative form: C33H51N3O17
Derivative mass: 761.32185
Derivative type: ABEE (p-Aminobenzoic acid ethyl ester)
Precursor m/z: 762.00
Precursor type: [M+H]+
m/z	relative intensity
203.2	54
203.8	999
204.5	45
209.6	33
210.4	20
221.4	24
222.1	124
287.8	34
299.8	25
317.2	20
317.8	163
318.4	12
349.0	22
349.6	154
350.3	39
355.8	18
359.0	19
365.8	13
366.4	85
367.1	75
368.3	12
376.2	26
377.1	65
394.6	37
406.3	149
407.1	118
412.0	29
412.8	71
513.1	12
546.7	10
547.8	14
552.1	21
553.0	20
761.7	21
