Mass spectrum: Man7GlcNAc-III; LC-ESI-QQ; MS2; CE:30V; Amide
Name: Man7GlcNAc-III
Name: Man-alpha-1-6(Man-alpha-1-2Man-alpha-1-3)Man-alpha-1-6(Man-alpha-1-2Man-alpha-1-3)Man-beta-1-4GlcNAc
Class: Natural Product; Oligosaccharide; N-linked glycan; High-mannose type
Formula: C50H85NO41
Exact mass: 1355.45970
SMILES: C(O1)(CO)C(O)C(O)C(O)C1OC(C(O)8)C(OC(C8O)CO)OC(C2O)C(C(OC(C(CO)7)C(C(C(O7)O)NC(C)=O)O)OC2COC(C3O)OC(COC(O6)C(C(C(C(CO)6)O)O)O)C(C3OC(O4)C(OC(O5)C(O)C(C(C5CO)O)O)C(C(O)C4CO)O)O)O
InChI: InChI=1/C50H85NO41/c1-10(58)51-19-27(66)38(16(7-57)80-43(19)77)88-48-37(76)40(90-50-42(32(71)24(63)15(6-56)85-50)92-47-35(74)30(69)22(61)13(4-54)83-47)26(65)18(87-48)9-79-45-36(75)39(25(64)17(86-45)8-78-44-33(72)28(67)20(59)11(2-52)81-44)89-49-41(31(70)23(62)14(5-55)84-49)91-46-34(73)29(68)21(60)12(3-53)82-46/h11-50,52-57,59-77H,2-9H2,1H3,(H,51,58)/t11-,12-,13-,14-,15-,16-,17-,18-,19-,20-,21-,22-,23-,24-,25-,26-,27-,28+,29+,30+,31+,32+,33+,34+,35+,36+,37+,38-,39+,40+,41+,42+,43-,44+,45+,46-,47-,48+,49-,50-/m1/s1/f/h51H
Instrument: 2695 HPLC Quadro Micro API, Waters
Instrument type: LC-ESI-QQ
Ms type: MS2
Ion mode: POSITIVE
Collision energy: 30.0 V
Ionization: ESI
Column name: TSK-GEL Amide-80 2.0 mm X 250 mm (TOSOH)
Retention time: 30.796 min
Derivative form: C59H96N2O42
Derivative mass: 1504.54377
Derivative type: ABEE (p-Aminobenzoic acid ethyl ester)
Precursor m/z: 1505.30
Precursor type: [M+H]+
m/z	relative intensity
370.4	64
371.0	309
371.8	48
532.4	51
533.2	103
694.7	35
695.5	30
856.2	73
857.2	140
858.0	49
1018.9	65
1019.9	37
1180.3	68
1181.3	96
1182.2	44
1341.7	42
1342.5	62
1343.4	146
1344.1	45
1503.3	192
1504.4	692
1504.9	40
1505.4	999
1506.3	378
1506.9	84
