Mass spectrum: 4-GlcNAc3Man3GlcNAc2; LC-ESI-QQ; MS2; CE:30V; Amide
Name: 4-GlcNAc3Man3GlcNAc2
Name: GlcNAc-beta-1-2Man-alpha-1-6[GlcNAc-beta-1-4(GlcNAc-beta-1-2)Man-alpha-1-3]Man-beta-1-4GlcNAc-beta-1-4GlcNAc
Class: Natural Product; Oligosaccharide; N-linked glycan; Complex type
Formula: C58H97N5O41
Exact mass: 1519.56590
SMILES: N(C(C8O)C(OC(CO)C(O)8)OC(C1OCC(O5)C(O)C(C(O)C(OC(C6O)C(OC(OC(C7CO)C(C(NC(C)=O)C(O)O7)O)C(NC(C)=O)6)CO)5)OC(O2)C(OC(C(NC(C)=O)4)OC(CO)C(O)C4O)C(C(OC(C(NC(C)=O)3)OC(C(C(O)3)O)CO)C2CO)O)C(O)C(C(O1)CO)O)C(C)=O
InChI: InChI=1S/C58H97N5O41/c1-14(71)59-27-40(84)45(23(10-68)91-51(27)89)99-55-31(63-18(5)75)41(85)46(24(11-69)96-55)101-56-44(88)48(36(80)26(98-56)13-90-57-49(42(86)35(79)22(9-67)95-57)103-53-29(61-16(3)73)38(82)33(77)20(7-65)93-53)102-58-50(104-54-30(62-17(4)74)39(83)34(78)21(8-66)94-54)43(87)47(25(12-70)97-58)100-52-28(60-15(2)72)37(81)32(76)19(6-64)92-52/h19-58,64-70,76-89H,6-13H2,1-5H3,(H,59,71)(H,60,72)(H,61,73)(H,62,74)(H,63,75)/t19-,20-,21-,22-,23-,24-,25-,26-,27-,28-,29-,30-,31-,32-,33-,34-,35-,36-,37-,38-,39-,40-,41-,42+,43+,44+,45-,46-,47-,48+,49+,50+,51-,52+,53+,54+,55+,56+,57+,58-/m1/s1
Instrument: 2695 HPLC Quadro Micro API, Waters
Instrument type: LC-ESI-QQ
Ms type: MS2
Ion mode: POSITIVE
Collision energy: 30 V
Ionization: ESI
Column name: TSK-GEL Amide-80 2.0 mm X 250 mm (TOSOH)
Retention time: 24.875 min
Derivative form: C67H108N6O42
Derivative mass: 1668.64996
Derivative type: ABEE (p-Aminobenzoic acid ethyl ester)
Precursor m/z: 1670.00
Precursor type: [M+H]+
m/z	relative intensity
366.1	207
366.9	41
371.3	177
527.7	32
528.4	178
529.2	31
546.6	32
569.4	50
573.7	105
574.4	211
689.4	102
690.5	56
691.2	33
707.7	31
730.2	49
731.3	70
732.2	34
735.6	63
736.6	147
892.4	42
893.1	227
893.9	148
897.7	145
898.7	272
899.4	36
900.3	54
911.6	37
1059.5	43
1060.3	51
1061.2	93
1096.0	153
1097.0	173
1097.7	33
1100.7	150
1101.7	159
1102.6	80
1261.8	35
1262.4	233
1263.2	433
1264.2	627
1265.1	176
1299.2	76
1300.2	229
1300.9	39
1303.7	34
1304.7	41
1464.7	109
1465.5	418
1466.3	858
1467.2	724
1468.1	324
1468.7	130
1667.8	262
1668.6	438
1669.3	999
1670.1	440
1670.9	842
1671.8	187
