Mass spectrum: rebaudioside H; LC-ESI-QQ; MS2; CE:80V; [M-H]-
Name: rebaudioside H
Class: Natural Product; Steviol glycoside
Formula: C50H80O27
Exact mass: 1112.48870
SMILES: C(C([H])13)CC(OC(O8)C(C(OC(O9)C(O)C(O)C(O)C9CO)C(O)C8CO)OC(C6O)OC(C)C(C6OC(O7)C(O)C(C(O)C7CO)O)O)(C2)C(=C)CC1(CCC(C(C(=O)OC(O5)C(O)C(C(C5CO)O)O)4C)([H])C(C)3CCC4)2
InChI: InChI=1S/C50H80O27/c1-18-12-49-10-6-24-47(3,8-5-9-48(24,4)46(67)76-43-36(65)33(62)29(58)22(15-53)71-43)25(49)7-11-50(18,17-49)77-45-40(39(30(59)23(16-54)72-45)74-42-35(64)32(61)28(57)21(14-52)70-42)75-44-37(66)38(26(55)19(2)68-44)73-41-34(63)31(60)27(56)20(13-51)69-41/h19-45,51-66H,1,5-17H2,2-4H3/t19-,20+,21+,22+,23+,24-,25-,26-,27+,28+,29+,30+,31-,32-,33-,34+,35+,36+,37+,38+,39-,40+,41-,42-,43-,44-,45-,47+,48+,49+,50-/m0/s1
Instrument: 2695 HPLC Quadro Micro API, Waters
Instrument type: LC-ESI-QQ
Ms type: MS2
Ion mode: NEGATIVE
Collision energy: 80.0 V
Ionization: ESI
Column name: TSK-GEL Amide-80 2.0 mm X 250 mm (TOSOH)
Retention time: 24.282 min
Precursor m/z: 1111.00
Precursor type: [M-H]-
m/z	relative intensity
316.8	215
317.6	638
318.8	12
371.7	11
373.2	12
373.9	14
412.4	47
413.2	335
414.0	58
431.7	50
443.0	17
443.9	20
460.9	187
461.7	100
478.4	135
479.0	837
479.8	640
493.2	12
497.5	17
501.7	16
588.4	20
606.1	36
606.8	85
607.6	191
608.4	12
610.8	21
623.4	12
623.9	38
624.4	330
625.2	881
625.9	285
640.1	36
640.7	281
641.7	433
642.5	18
668.0	23
768.5	94
769.1	26
769.7	246
786.1	44
786.6	574
787.8	999
802.6	10
803.5	20
922.1	11
948.4	398
949.3	668
950.1	601
951.2	23
