Mass spectrum: GlcNAcMan3GlcNAc2-I; LC-ESI-QQ; MS2; CE:30V; Amide
Name: GlcNAcMan3GlcNAc2-I
Name: GlcNAc-beta-1-2Man-alpha-1-6(Man-alpha-1-3)Man-beta-1-4GlcNAc-beta-1-4GlcNAc
Class: Natural Product; Oligosaccharide; N-linked glycan; Complex type
Formula: C42H71N3O31
Exact mass: 1113.40715
SMILES: C(C6O)(C(OC(C6NC(C)=O)OC(C5O)C(OC(C5NC(C)=O)O)CO)CO)OC(O2)C(C(C(C(COC(C3OC(O4)C(NC(C)=O)C(C(C4CO)O)O)OC(C(C(O)3)O)CO)2)O)OC(C1O)OC(C(C1O)O)CO)O
InChI: InChI=1S/C42H71N3O31/c1-10(51)43-19-27(59)33(16(7-49)67-37(19)65)73-39-21(45-12(3)53)28(60)34(17(8-50)71-39)74-41-32(64)35(75-40-31(63)29(61)23(55)14(5-47)69-40)25(57)18(72-41)9-66-42-36(30(62)24(56)15(6-48)70-42)76-38-20(44-11(2)52)26(58)22(54)13(4-46)68-38/h13-42,46-50,54-65H,4-9H2,1-3H3,(H,43,51)(H,44,52)(H,45,53)/t13-,14-,15-,16-,17-,18-,19-,20-,21-,22-,23-,24-,25-,26-,27-,28-,29+,30+,31+,32+,33-,34-,35+,36+,37-,38+,39+,40-,41+,42+/m1/s1
Instrument: 2695 HPLC Quadro Micro API, Waters
Instrument type: LC-ESI-QQ
Ms type: MS2
Ion mode: POSITIVE
Collision energy: 30.0 V
Ionization: ESI
Column name: TSK-GEL Amide-80 2.0 mm X 250 mm (TOSOH)
Retention time: 18.125 min
Derivative form: C51H82N4O32
Derivative mass: 1262.49122
Derivative type: ABEE (p-Aminobenzoic acid ethyl ester)
Precursor m/z: 1264.00
Precursor type: [M+H]+
m/z	relative intensity
325.9	84
365.3	853
366.1	411
370.2	598
371.1	960
372.0	134
372.5	60
469.2	81
527.4	726
528.2	306
528.9	147
531.8	57
572.6	109
573.5	388
574.2	366
649.0	65
649.7	74
671.0	70
688.7	709
689.4	270
690.0	720
690.9	63
695.2	105
734.7	197
735.8	230
736.6	82
737.3	188
793.5	78
850.8	60
891.3	161
891.9	701
892.7	418
893.3	79
893.8	293
896.7	444
897.8	333
898.6	586
926.8	86
936.1	64
1014.9	56
1017.3	197
1058.5	233
1059.4	999
1060.1	171
1060.8	385
1061.9	60
1077.1	53
1092.6	55
1096.6	73
1100.7	85
1102.3	54
1106.9	70
1120.0	52
1120.9	102
1250.1	91
1261.1	70
1261.9	114
1262.7	322
1264.1	99
