Mass spectrum: Man2GlcNAcFucGlcNAc; LC-ESI-QQ; MS2; CE:40V; ODS
Name: Man2GlcNAcFucGlcNAc
Name: Man-alpha-1-6Man-beta-1-4GlcNAc-beta-1-4(Fuc-alpha-1-3)GlcNAc
Class: Natural Product; Oligosaccharide; N-linked glycan; Complex type
Formula: C34H58N2O25
Exact mass: 894.33287
SMILES: C(C(OC(C(CO)5)C(C(C(O)O5)NC(C)=O)OC(O4)C(O)C(O)C(O)C4C)3)(C(C(C(CO)O3)OC(C(O)2)OC(C(O)C2O)COC(C(O)1)OC(C(O)C(O)1)CO)O)NC(C)=O
InChI: InChI=1S/C34H58N2O25/c1-8-17(42)21(46)25(50)33(54-8)61-29-16(36-10(3)41)30(52)55-13(6-39)28(29)60-31-15(35-9(2)40)20(45)27(12(5-38)57-31)59-34-26(51)23(48)19(44)14(58-34)7-53-32-24(49)22(47)18(43)11(4-37)56-32/h8,11-34,37-39,42-52H,4-7H2,1-3H3,(H,35,40)(H,36,41)/t8-,11+,12+,13+,14+,15+,16+,17+,18+,19+,20+,21+,22-,23-,24-,25-,26-,27+,28+,29+,30+,31-,32-,33-,34-/m0/s1
Instrument: 2695 HPLC Quadro Micro API, Waters
Instrument type: LC-ESI-QQ
Ms type: MS2
Ion mode: POSITIVE
Collision energy: 40.0 V
Ionization: ESI
Column name: Wakosil 5C18-200 2.0 mm X 250 mm (Wako)
Retention time: 23.771 min
Derivative form: C43H69N3O26
Derivative mass: 1043.41693
Derivative type: ABEE (p-Aminobenzoic acid ethyl ester)
Precursor m/z: 1044.00
Precursor type: [M+H]+
m/z	relative intensity
307.9	23
324.7	439
325.4	305
350.3	29
354.3	54
365.6	999
366.2	197
370.4	627
371.2	906
371.8	57
384.2	27
414.3	40
421.2	23
487.3	65
509.5	62
516.9	50
527.7	271
528.6	56
532.2	33
533.4	32
573.3	147
574.2	90
595.9	31
642.6	34
654.2	21
672.6	57
673.6	37
674.2	38
674.8	69
689.4	73
694.0	41
698.0	28
736.0	45
736.6	60
788.7	58
833.4	33
