Mass spectrum: GalNAcFucGlcNAcThrNAc-I; LC-ESI-QQ; MS2; CE:20V; [M+H]+
Name: GalNAcFucGlcNAcThrNAc-I
Name: GalNAc-alpha-1-2Fuc-alpha-1-3GlcNAc-beta-1-2ThrNAc (ThrNAc, 3-acetamido-3-deoxythreose)
Class: Natural Product; Oligosaccharide; O-linked glycan
Formula: C28H47N3O18
Exact mass: 713.28546
SMILES: N(C(C(OC(C(O)2)C(OC(C3O)C(NC(C)=O)C(OC(C=O)(C(CO)(NC(C)=O)[H])[H])OC3CO)OC(C)C2O)1)C(O)C(O)C(CO)O1)C(C)=O
InChI: InChI=1S/C28H47N3O18/c1-9-19(39)23(43)25(49-26-17(30-11(3)37)22(42)20(40)15(7-34)46-26)28(44-9)48-24-18(31-12(4)38)27(47-16(8-35)21(24)41)45-14(6-33)13(5-32)29-10(2)36/h6,9,13-28,32,34-35,39-43H,5,7-8H2,1-4H3,(H,29,36)(H,30,37)(H,31,38)/t9-,13-,14-,15+,16+,17+,18+,19+,20-,21+,22+,23+,24+,25-,26+,27+,28-/m0/s1
Instrument: 2695 HPLC Quadro Micro API, Waters
Instrument type: LC-ESI-QQ
Ms type: MS2
Ion mode: POSITIVE
Collision energy: 20.0 V
Ionization: ESI
Column name: TSK-GEL Amide-80 2.0 mm X 250 mm (TOSOH)
Retention time: 12.089 min
Derivative form: C37H58N4O19
Derivative mass: 862.36953
Derivative type: ABEE (p-Aminobenzoic acid ethyl ester)
Precursor m/z: 863.00
Precursor type: [M+H]+
m/z	relative intensity
203.3	43
203.9	412
204.5	10
264.9	48
270.1	10
310.1	35
310.8	418
311.4	35
312.1	14
331.1	11
331.7	65
349.0	18
349.5	272
350.3	74
456.0	27
456.7	70
467.6	112
468.4	12
512.8	125
513.5	999
514.2	251
515.0	26
551.6	16
552.2	282
553.0	188
553.7	24
612.8	46
613.7	74
658.8	261
659.6	675
660.3	174
661.0	30
670.1	10
671.0	17
815.8	22
816.9	45
861.6	103
862.6	207
863.4	68
