Mass spectrum: GalNAcFucGlcNAcThrNAc-II; LC-ESI-QQ; MS2; CE:20V; [M+H]+
Name: GalNAcFucGlcNAcThrNAc-II
Name: GalNAc-beta-1-4(Fuc-alpha-1-3)GlcNAc-beta-1-2ThrNAc (ThrNAc, 3-acetamido-3-deoxythreose)
Class: Natural Product; Oligosaccharide; O-linked glycan
Formula: C28H47N3O18
Exact mass: 713.28546
SMILES: N(C(C(OC(C(OC(O3)C(O)C(O)C(O)C(C)3)2)C(OC(C(NC(C)=O)2)OC(C=O)(C(CO)(NC(C)=O)[H])[H])CO)1)C(O)C(O)C(CO)O1)C(C)=O
InChI: InChI=1S/C28H47N3O18/c1-9-19(39)22(42)23(43)28(44-9)49-25-18(31-12(4)38)27(45-14(6-33)13(5-32)29-10(2)36)47-16(8-35)24(25)48-26-17(30-11(3)37)21(41)20(40)15(7-34)46-26/h6,9,13-28,32,34-35,39-43H,5,7-8H2,1-4H3,(H,29,36)(H,30,37)(H,31,38)/t9-,13-,14-,15+,16+,17+,18+,19+,20-,21+,22+,23-,24+,25+,26-,27+,28-/m0/s1
Instrument: 2695 HPLC Quadro Micro API, Waters
Instrument type: LC-ESI-QQ
Ms type: MS2
Ion mode: POSITIVE
Collision energy: 20.0 V
Ionization: ESI
Column name: TSK-GEL Amide-80 2.0 mm X 250 mm (TOSOH)
Retention time: 15.956 min
Derivative form: C37H58N4O19
Derivative mass: 862.36953
Derivative type: ABEE (p-Aminobenzoic acid ethyl ester)
Precursor m/z: 863.00
Precursor type: [M+H]+
m/z	relative intensity
203.2	36
203.9	904
204.5	76
221.3	48
222.0	173
264.7	52
310.2	44
310.8	378
311.6	42
314.0	13
349.0	43
349.6	281
350.4	48
367.6	35
368.3	17
387.9	11
388.7	40
406.1	421
406.8	999
407.8	37
418.4	12
419.3	21
455.9	11
456.7	34
467.1	11
467.8	36
477.2	25
478.1	20
512.8	26
513.4	183
514.2	89
551.8	193
552.4	865
553.1	270
553.9	32
613.3	10
659.1	55
660.1	23
670.0	21
670.9	26
698.2	29
698.9	14
715.8	180
716.7	368
717.3	63
718.2	27
816.1	16
844.0	14
845.0	14
861.6	164
862.5	371
863.5	83
