Mass spectrum: GalNAcFucGlcNAcGA-I; LC-ESI-QQ; MS2; CE:25V; [M+H]+
Name: GalNAcFucGlcNAcGA-I
Name: GalNAc-alpha-1-2Fuc-alpha-1-3GlcNAc-beta-1-2GA (GA, glycolaldehyde)
Class: Natural Product; Oligosaccharide; O-linked glycan
Formula: C24H40N2O16
Exact mass: 612.23778
SMILES: O=CCOC(O1)C(NC(C)=O)C(OC(O2)C(OC(O3)C(NC(C)=O)C(O)C(O)C(CO)3)C(O)C(O)C(C)2)C(O)C(CO)1
InChI: InChI=1S/C24H40N2O16/c1-8-15(32)19(36)21(42-23-13(25-9(2)30)18(35)16(33)11(6-28)40-23)24(38-8)41-20-14(26-10(3)31)22(37-5-4-27)39-12(7-29)17(20)34/h4,8,11-24,28-29,32-36H,5-7H2,1-3H3,(H,25,30)(H,26,31)/t8-,11+,12+,13+,14+,15+,16-,17+,18+,19+,20+,21-,22+,23+,24-/m1/s1
Instrument: 2695 HPLC Quadro Micro API, Waters
Instrument type: LC-ESI-QQ
Ms type: MS2
Ion mode: POSITIVE
Collision energy: 25.0 V
Ionization: ESI
Column name: TSK-GEL Amide-80 2.0 mm X 250 mm (TOSOH)
Retention time: 8.825 min
Derivative form: C33H51N3O17
Derivative mass: 761.32185
Derivative type: ABEE (p-Aminobenzoic acid ethyl ester)
Precursor m/z: 762.00
Precursor type: [M+H]+
m/z	relative intensity
203.3	65
203.9	999
204.5	49
205.3	23
209.3	19
209.9	240
210.4	14
235.7	13
269.9	39
271.8	27
287.8	26
289.5	14
290.3	15
295.9	18
309.5	11
313.8	14
318.0	13
331.6	150
332.2	21
334.8	20
348.7	21
349.5	138
350.2	48
355.8	59
366.0	85
366.6	778
367.2	116
368.2	14
384.4	17
394.0	20
394.8	105
412.1	88
412.8	277
413.6	24
512.5	69
540.6	27
552.3	13
558.0	24
558.8	43
