Mass spectrum: Man5GlcNAc-III; LC-ESI-QQ; MS2; CE:40V; Amide
Name: Man5GlcNAc-III
Name: Man-alpha-1-6Man-alpha-1-6(Man-alpha-1-2Man-alpha-1-3)Man-beta-1-4GlcNAc
Class: Natural Product; Oligosaccharide; N-linked glycan; High-mannose type
Formula: C38H65NO31
Exact mass: 1031.35405
SMILES: CC(=O)N[C@@H]1[C@H]([C@@H]([C@H](O[C@H]1O)CO)O[C@H]2[C@H]([C@H]([C@@H]([C@H](O2)CO[C@@H]3[C@H]([C@H]([C@@H]([C@H](O3)CO[C@@H]4[C@H]([C@H]([C@@H]([C@H](O4)CO)O)O)O)O)O)O)O)O[C@@H]5[C@H]([C@H]([C@@H]([C@H](O5)CO)O)O)O[C@@H]6[C@H]([C@H]([C@@H]([C@H](O6)CO)O)O)O)O)O
InChI: InChI=1S/C38H65NO31/c1-8(44)39-15-21(50)30(12(5-43)62-33(15)59)68-37-29(58)31(69-38-32(25(54)18(47)11(4-42)65-38)70-36-28(57)23(52)17(46)10(3-41)64-36)20(49)14(67-37)7-61-35-27(56)24(53)19(48)13(66-35)6-60-34-26(55)22(51)16(45)9(2-40)63-34/h9-38,40-43,45-59H,2-7H2,1H3,(H,39,44)/t9-,10-,11-,12-,13-,14-,15-,16-,17-,18-,19-,20-,21-,22+,23+,24+,25+,26+,27+,28+,29+,30-,31+,32+,33-,34+,35+,36-,37+,38-/m1/s1
Instrument: 2695 HPLC Quadro Micro API, Waters
Instrument type: LC-ESI-QQ
Ms type: MS2
Ion mode: POSITIVE
Collision energy: 40.0 V
Ionization: ESI
Column name: TSK-GEL Amide-80 2.0 mm X 250 mm (TOSOH)
Retention time: 21.614 min
Derivative form: C47H76N2O32
Derivative mass: 1180.43812
Derivative type: ABEE (p-Aminobenzoic acid ethyl ester)
Precursor m/z: 1181.02
Precursor type: [M+H]+
m/z	relative intensity
325.4	97
370.5	376
371.3	999
372.2	394
532.2	88
533.1	222
534.0	95
