Mass spectrum: Man3GlcNAc2; LC-ESI-QQ; MS2; CE:20V; Amide
Name: Man3GlcNAc2
Name: Man-alpha-1-6(Man-alpha-1-3)Man-beta-1-4GlcNAc-beta-1-4GlcNAc
Class: Natural Product; Oligosaccharide; N-linked glycan; High-mannose Type
Formula: C34H58N2O26
Exact mass: 910.32778
SMILES: OC(C(O)1)C(O)C(OC(C2O)C(C(OC(C5CO)C(C(C(O5)OC(C4CO)C(C(NC(C)=O)C(O4)O)O)NC(C)=O)O)OC2COC(O3)C(C(C(O)C(CO)3)O)O)O)OC1CO
InChI: InChI=1S/C34H58N2O26/c1-8(41)35-15-20(46)27(12(5-39)55-30(15)53)60-31-16(36-9(2)42)21(47)28(13(6-40)58-31)61-34-26(52)29(62-33-25(51)23(49)18(44)11(4-38)57-33)19(45)14(59-34)7-54-32-24(50)22(48)17(43)10(3-37)56-32/h10-34,37-40,43-53H,3-7H2,1-2H3,(H,35,41)(H,36,42)/t10-,11-,12-,13-,14-,15-,16-,17-,18-,19-,20-,21-,22+,23+,24+,25+,26+,27-,28-,29+,30-,31+,32+,33-,34+/m1/s1
Instrument: 2695 HPLC Quadro Micro API, Waters
Instrument type: LC-ESI-QQ
Ms type: MS2
Ion mode: POSITIVE
Collision energy: 20.0 V
Ionization: ESI
Column name: TSK-GEL Amide-80 2.0 mm X 250 mm (TOSOH)
Retention time: 14.682 min
Derivative form: C43H69N3O27
Derivative mass: 1059.41184
Derivative type: ABEE (p-Aminobenzoic acid ethyl ester)
Precursor m/z: 1060.80
Precursor type: [M+H]+
m/z	relative intensity
324.8	11
365.1	20
365.9	44
366.7	12
370.0	17
370.6	214
371.3	62
527.0	37
527.8	56
573.2	56
574.1	40
574.9	10
688.8	149
689.7	344
690.6	68
734.7	15
735.6	31
896.1	18
896.8	100
897.7	128
898.6	64
899.3	11
1057.8	25
1058.4	343
1059.2	999
1060.1	718
1061.0	263
