Mass spectrum: FucGlcNAcGA; LC-ESI-QQ; MS2; CE:5V; [M+H]+
Name: FucGlcNAcGA
Name: Fuc-alpha-1-3GlcNAc-beta-1-2GA (GA, glycolaldehyde)
Class: Natural Product; Oligosaccharide; O-linked glycan
Formula: C16H27NO11
Exact mass: 409.15841
SMILES: O=CCOC(O1)C(NC(C)=O)C(OC(O2)C(O)C(O)C(O)C(C)2)C(O)C(CO)1
InChI: InChI=1S/C16H27NO11/c1-6-10(21)12(23)13(24)16(26-6)28-14-9(17-7(2)20)15(25-4-3-18)27-8(5-19)11(14)22/h3,6,8-16,19,21-24H,4-5H2,1-2H3,(H,17,20)/t6-,8+,9+,10+,11+,12+,13-,14+,15+,16-/m0/s1
Instrument: 2695 HPLC Quadro Micro API, Waters
Instrument type: LC-ESI-QQ
Ms type: MS2
Ion mode: POSITIVE
Collision energy: 15.0 V
Ionization: ESI
Column name: TSK-GEL Amide-80 2.0 mm X 250 mm (TOSOH)
Retention time: 5.436 min
Derivative form: C25H38N2O12
Derivative mass: 558.24247
Derivative type: ABEE (p-Aminobenzoic acid ethyl ester)
Precursor m/z: 559.00
Precursor type: [M+H]+
m/z	relative intensity
412.0	13
412.7	69
540.5	10
557.9	189
558.5	999
559.1	92
