Mass spectrum: GalNAcFucGlcNAcThrNAc-II; LC-ESI-QQ; MS2; CE:25V; [M+H]+
Name: GalNAcFucGlcNAcThrNAc-II
Name: GalNAc-beta-1-4(Fuc-alpha-1-3)GlcNAc-beta-1-2ThrNAc (ThrNAc, 3-acetamido-3-deoxythreose)
Class: Natural Product; Oligosaccharide; O-linked glycan
Formula: C28H47N3O18
Exact mass: 713.28546
SMILES: N(C(C(OC(C(OC(O3)C(O)C(O)C(O)C(C)3)2)C(OC(C(NC(C)=O)2)OC(C=O)(C(CO)(NC(C)=O)[H])[H])CO)1)C(O)C(O)C(CO)O1)C(C)=O
InChI: InChI=1S/C28H47N3O18/c1-9-19(39)22(42)23(43)28(44-9)49-25-18(31-12(4)38)27(45-14(6-33)13(5-32)29-10(2)36)47-16(8-35)24(25)48-26-17(30-11(3)37)21(41)20(40)15(7-34)46-26/h6,9,13-28,32,34-35,39-43H,5,7-8H2,1-4H3,(H,29,36)(H,30,37)(H,31,38)/t9-,13-,14-,15+,16+,17+,18+,19+,20-,21+,22+,23-,24+,25+,26-,27+,28-/m0/s1
Instrument: 2695 HPLC Quadro Micro API, Waters
Instrument type: LC-ESI-QQ
Ms type: MS2
Ion mode: POSITIVE
Collision energy: 25.0 V
Ionization: ESI
Column name: TSK-GEL Amide-80 2.0 mm X 250 mm (TOSOH)
Retention time: 15.923 min
Derivative form: C37H58N4O19
Derivative mass: 862.36953
Derivative type: ABEE (p-Aminobenzoic acid ethyl ester)
Precursor m/z: 863.00
Precursor type: [M+H]+
m/z	relative intensity
203.2	56
203.8	999
204.4	79
205.4	15
221.8	195
222.5	10
264.9	72
310.1	24
310.8	312
311.6	17
313.6	16
349.1	53
349.8	199
367.2	10
388.1	15
388.9	21
405.9	123
406.6	652
407.2	157
418.6	30
467.7	31
477.9	15
512.9	25
513.8	66
551.7	29
552.4	189
553.2	39
715.7	19
716.7	33
862.8	12
