Mass spectrum: ManGlcNAcFucGlcNAc; LC-ESI-QQ; MS2; CE:30V; ODS
Name: ManGlcNAcFucGlcNAc
Name: Man-beta-1-4GlcNAc-beta-1-4(Fuc-alpha-1-3)GlcNAc
Class: Natural Product; Oligosaccharide; N-linked glycan; Complex type
Formula: C28H48N2O20
Exact mass: 732.28004
SMILES: OCC(C1OC(O4)C(O)C(O)C(O)C4CO)OC(OC(C(OC(O3)C(O)C(O)C(O)C(C)3)2)C(OC(O)C(NC(C)=O)2)CO)C(NC(C)=O)C(O)1
InChI: InChI=1S/C28H48N2O20/c1-7-15(36)18(39)20(41)27(44-7)50-24-14(30-9(3)35)25(43)45-12(6-33)23(24)49-26-13(29-8(2)34)17(38)22(11(5-32)47-26)48-28-21(42)19(40)16(37)10(4-31)46-28/h7,10-28,31-33,36-43H,4-6H2,1-3H3,(H,29,34)(H,30,35)/t7-,10+,11+,12+,13+,14+,15+,16+,17+,18+,19-,20-,21-,22+,23+,24+,25+,26-,27-,28-/m0/s1
Instrument: 2695 HPLC Quadro Micro API, Waters
Instrument type: LC-ESI-QQ
Ms type: MS2
Ion mode: POSITIVE
Collision energy: 30.0 V
Ionization: ESI
Column name: Wakosil 5C18-200 2.0 mm X 250 mm (Wako)
Retention time: 25.825 min
Derivative form: C37H59N3O21
Derivative mass: 881.36411
Derivative type: ABEE (p-Aminobenzoic acid ethyl ester)
Precursor m/z: 882.00
Precursor type: [M+H]+
m/z	relative intensity
306.5	14
323.9	23
324.6	61
325.3	24
329.2	18
335.2	12
347.5	16
351.6	18
365.3	184
366.0	999
366.8	53
367.5	11
370.1	48
370.7	850
371.3	253
372.3	18
452.8	20
469.4	23
470.5	41
480.9	19
504.4	20
509.2	19
511.2	19
516.3	57
517.9	11
527.1	16
527.9	90
528.5	17
547.9	13
568.5	11
573.0	67
573.8	224
574.4	27
582.9	17
632.7	14
634.7	10
670.9	16
678.1	19
680.7	17
689.0	66
690.1	19
699.9	23
706.7	13
717.5	13
718.9	10
719.9	10
734.9	13
735.5	41
736.5	30
738.4	17
801.3	11
808.7	14
824.5	16
845.4	16
881.5	20
882.2	12
