Mass spectrum: GalNAcFucGlcNAcGA-II; LC-ESI-QQ; MS2; CE:15V; [M+H]+
Name: GalNAcFucGlcNAcGA-II
Name: GalNAc-beta-1-4(Fuc-alpha-1-3)GlcNAc-beta-1-2GA (GA, glycolaldehyde)
Class: Natural Product; Oligosaccharide; O-linked glycan
Formula: C24H40N2O16
Exact mass: 612.23778
SMILES: O=CCOC(O1)C(NC(C)=O)C(OC(O3)C(O)C(O)C(O)C(C)3)C(OC(O2)C(NC(C)=O)C(O)C(O)C(CO)2)C(CO)1
InChI: InChI=1S/C24H40N2O16/c1-8-15(32)18(35)19(36)24(38-8)42-21-14(26-10(3)31)22(37-5-4-27)40-12(7-29)20(21)41-23-13(25-9(2)30)17(34)16(33)11(6-28)39-23/h4,8,11-24,28-29,32-36H,5-7H2,1-3H3,(H,25,30)(H,26,31)/t8-,11+,12+,13+,14+,15+,16-,17+,18+,19-,20+,21+,22+,23-,24-/m0/s1
Instrument: 2695 HPLC Quadro Micro API, Waters
Instrument type: LC-ESI-QQ
Ms type: MS2
Ion mode: POSITIVE
Collision energy: 15.0 V
Ionization: ESI
Column name: TSK-GEL Amide-80 2.0 mm X 250 mm (TOSOH)
Retention time: 11.824 min
Derivative form: C33H51N3O17
Derivative mass: 761.32185
Derivative type: ABEE (p-Aminobenzoic acid ethyl ester)
Precursor m/z: 762.00
Precursor type: [M+H]+
m/z	relative intensity
203.2	20
203.9	504
204.8	38
209.6	28
221.7	117
222.3	19
253.2	18
299.5	21
313.2	22
317.2	16
317.9	84
349.4	589
350.2	208
351.0	14
355.5	16
366.5	81
367.5	70
376.0	59
376.7	256
377.4	50
378.2	15
389.2	20
394.0	26
394.7	48
406.0	189
406.7	661
407.3	215
408.0	11
411.6	14
412.3	352
413.0	386
413.8	32
426.4	18
512.0	19
522.3	68
540.9	17
548.5	12
551.6	60
552.2	847
553.0	445
553.8	69
557.7	63
558.4	179
559.1	100
569.0	21
569.7	57
596.8	111
597.6	244
598.3	29
614.6	130
615.3	660
616.1	324
617.2	15
700.3	11
714.7	41
715.5	48
734.7	22
742.8	215
743.7	178
744.5	57
760.4	173
761.0	849
761.9	999
762.7	78
