Mass spectrum: GalNAc2FucGlcNAcThrNAc; LC-ESI-QQ; MS2; CE:20V; [M+H]+
Name: GalNAc2FucGlcNAcThrNAc
Name: GalNAc-beta-1-4(GalNAc-alpha-1-2Fuc-alpha-1-3)GlcNAc-beta-1-2ThrNAc (ThrNAc, 3-acetamido-3-deoxythreose)
Class: Natural Product; Oligosaccharide; O-linked glycan
Formula: C36H60N4O23
Exact mass: 916.36483
SMILES: O(C(C4NC(C)=O)C(C(CO)OC4OC(C=O)(C(NC(C)=O)(CO)[H])[H])OC(O3)C(C(O)C(O)C(CO)3)NC(C)=O)C(O2)C(C(O)C(C2C)O)OC(O1)C(NC(C)=O)C(C(O)C1CO)O
InChI: InChI=1S/C36H60N4O23/c1-11-24(50)29(55)32(63-34-22(39-14(4)48)28(54)26(52)19(9-44)59-34)36(56-11)62-31-23(40-15(5)49)35(57-17(7-42)16(6-41)37-12(2)46)60-20(10-45)30(31)61-33-21(38-13(3)47)27(53)25(51)18(8-43)58-33/h7,11,16-36,41,43-45,50-55H,6,8-10H2,1-5H3,(H,37,46)(H,38,47)(H,39,48)(H,40,49)/t11-,16-,17-,18+,19+,20+,21+,22+,23+,24+,25-,26-,27+,28+,29+,30+,31+,32-,33-,34+,35+,36-/m0/s1
Instrument: 2695 HPLC Quadro Micro API, Waters
Instrument type: LC-ESI-QQ
Ms type: MS2
Ion mode: POSITIVE
Collision energy: 20.0 V
Ionization: ESI
Column name: TSK-GEL Amide-80 2.0 mm X 250 mm (TOSOH)
Retention time: 21.510 min
Derivative form: C45H71N5O24
Derivative mass: 1065.44890
Derivative type: ABEE (p-Aminobenzoic acid ethyl ester)
Precursor m/z: 1066.00
Precursor type: [M+H]+
m/z	relative intensity
203.3	28
204.0	138
222.0	36
310.9	56
349.7	57
406.1	66
406.8	311
407.5	21
477.6	15
513.6	35
514.2	12
551.8	50
552.5	183
553.2	33
659.1	27
659.9	20
669.7	13
670.5	55
698.0	11
699.0	12
715.9	97
716.8	225
717.5	35
754.9	101
755.8	175
756.6	19
816.3	17
817.2	10
861.2	13
861.8	252
862.8	431
863.6	42
864.3	15
1019.3	19
1020.1	15
1064.3	185
1064.9	653
1065.8	999
1066.7	104
1067.4	34
