Mass spectrum: Man3GlcNAcFucGlcNAc; LC-ESI-QQ; MS2; CE:35V; Amide
Name: Man3GlcNAcFucGlcNAc
Name: Man-alpha-1-6(Man-alpha-1-3)Man-beta-1-4GlcNAc-beta-1-4(Fuc-alpha-1-6)GlcNAc
Class: Natural Product; Oligosaccharide; N-linked glycan; Complex type
Formula: C40H68N2O30
Exact mass: 1056.38569
SMILES: N(C(C6O)C(O)C(C(O6)COC(C5O)OC(C(C(O)5)O)C)OC(C4NC(C)=O)OC(CO)C(C4O)OC(C2O)OC(C(C2OC(O3)C(O)C(C(C3CO)O)O)O)COC(O1)C(C(O)C(O)C1CO)O)C(C)=O
InChI: InChI=1S/C40H68N2O30/c1-9-19(48)25(54)28(57)37(64-9)63-8-16-33(23(52)17(35(61)65-16)41-10(2)46)70-36-18(42-11(3)47)24(53)32(14(6-45)68-36)71-40-31(60)34(72-39-30(59)27(56)21(50)13(5-44)67-39)22(51)15(69-40)7-62-38-29(58)26(55)20(49)12(4-43)66-38/h9,12-40,43-45,48-61H,4-8H2,1-3H3,(H,41,46)(H,42,47)/t9-,12+,13+,14+,15+,16+,17+,18+,19+,20+,21+,22+,23+,24+,25+,26-,27-,28-,29-,30-,31-,32+,33+,34-,35+,36-,37+,38-,39+,40-/m0/s1
Instrument: 2695 HPLC Quadro Micro API, Waters
Instrument type: LC-ESI-QQ
Ms type: MS2
Ion mode: POSITIVE
Collision energy: 35.0 V
Ionization: ESI
Column name: TSK-GEL Amide-80 2.0 mm X 250 mm (TOSOH)
Retention time: 17.144 min
Derivative form: C49H79N3O31
Derivative mass: 1205.46975
Derivative type: ABEE (p-Aminobenzoic acid ethyl ester)
Precursor m/z: 1207.00
Precursor type: [M+H]+
m/z	relative intensity
314.1	36
325.3	175
365.5	162
366.4	687
367.2	57
370.8	999
371.8	649
372.6	71
487.0	40
516.9	206
517.8	203
527.5	95
528.2	424
529.0	235
534.3	33
572.9	50
573.7	422
574.5	635
575.7	144
671.5	31
673.6	56
674.6	70
689.1	115
689.7	525
690.5	995
691.3	432
691.9	84
719.6	49
722.1	32
736.2	54
737.0	204
737.7	61
835.5	62
836.4	123
837.3	134
863.1	38
881.9	38
884.1	33
897.5	110
898.4	156
899.4	182
900.0	30
1043.7	46
1060.3	72
1061.5	61
1206.2	41
1207.2	66
