Mass spectrum: GalGlcNAc2Man3GlcNAc2-II; LC-ESI-QQ; MS2; CE:25V; Amide
Name: GalGlcNAc2Man3GlcNAc2-II
Name: GlcNAc-beta-1-2Man-alpha-1-6(Gal-beta-1-4GlcNAc-beta-1-2Man-alpha-1-3)Man-beta-1-4GlcNAc-beta-1-4GlcNAc
Class: Natural Product; Oligosaccharide; N-linked glycan; Complex type
Formula: C56H94N4O41
Exact mass: 1478.53935
SMILES: C(OC(C2OCC(O3)C(O)C(OC(C6OC(C(NC(C)=O)8)OC(C(C8O)OC(C7O)OC(C(O)C(O)7)CO)CO)OC(C(C(O)6)O)CO)C(C3OC(C5O)C(CO)OC(C(NC(C)=O)5)OC(C4O)C(CO)OC(C4NC(C)=O)O)O)C(O)C(C(CO)O2)O)(C(NC(C)=O)1)OC(C(C(O)1)O)CO
InChI: InChI=1S/C56H94N4O41/c1-13(68)57-25-35(78)43(21(9-65)88-49(25)86)96-51-27(59-15(3)70)36(79)45(23(11-67)93-51)98-54-42(85)46(33(76)24(95-54)12-87-55-47(39(82)31(74)19(7-63)91-55)100-50-26(58-14(2)69)34(77)29(72)17(5-61)89-50)99-56-48(40(83)32(75)20(8-64)92-56)101-52-28(60-16(4)71)37(80)44(22(10-66)94-52)97-53-41(84)38(81)30(73)18(6-62)90-53/h17-56,61-67,72-86H,5-12H2,1-4H3,(H,57,68)(H,58,69)(H,59,70)(H,60,71)/t17-,18-,19-,20-,21-,22-,23-,24-,25-,26-,27-,28-,29-,30+,31-,32-,33-,34-,35-,36-,37-,38+,39+,40+,41-,42+,43-,44-,45-,46+,47+,48+,49-,50+,51+,52+,53+,54+,55+,56-/m1/s1
Instrument: 2695 HPLC Quadro Micro API, Waters
Instrument type: LC-ESI-QQ
Ms type: MS2
Ion mode: POSITIVE
Collision energy: 25 V
Ionization: ESI
Column name: TSK-GEL Amide-80 2.0 mm X 250 mm (TOSOH)
Retention time: 26.863 min
Derivative form: C65H105N5O42
Derivative mass: 1627.62341
Derivative type: ABEE (p-Aminobenzoic acid ethyl ester)
Precursor m/z: 1629.00
Precursor type: [M+H]+
m/z	relative intensity
365.0	38
366.2	36
526.4	21
573.5	91
574.3	22
735.3	95
896.8	62
897.6	81
898.3	31
1053.4	33
1054.5	24
1058.5	39
1059.6	133
1060.8	170
1099.6	33
1100.9	41
1101.8	40
1257.3	52
1258.8	74
1261.5	149
1262.3	214
1263.1	124
1264.1	126
1422.7	33
1423.6	117
1424.6	228
1425.5	112
1465.1	23
1625.3	146
1626.1	346
1626.9	999
1627.5	220
1628.1	923
1628.6	141
1629.3	293
1630.0	20
