Mass spectrum: GalGlcNAc2Man2GlcNAcManGlcNAc2-II; LC-ESI-QQ; MS2; CE:35V; Amide
Name: GalGlcNAc2Man2GlcNAcManGlcNAc2-II
Name: GlcNAc-beta-1-2Man-alpha-1-6(GlcNAc-beta-1-4)(Gal-beta-1-4GlcNAc-beta-1-2Man-alpha-1-3)Man-beta-1-4GlcNAc-beta-1-4GlcNAc
Class: Natural Product; Oligosaccharide; N-linked glycan; Complex type
Formula: C64H107N5O46
Exact mass: 1681.61872
SMILES: C(C9O)(C(NC(C)=O)C(OC9CO)OC(C8O)C(OC(C8O)CO)OCC(C(OC(O7)C(C(O)C(O)C7CO)NC(C)=O)3)OC(C(C3OC(C(OC(C6NC(C)=O)OC(C(C6O)OC(C5O)OC(CO)C(C5O)O)CO)4)OC(C(O)C(O)4)CO)O)OC(C(O)1)C(OC(OC(C2O)C(OC(C2NC(C)=O)O)CO)C1NC(C)=O)CO)O
InChI: InChI=1S/C64H107N5O46/c1-15(78)65-29-41(90)49(25(11-75)100-56(29)98)109-59-32(68-18(4)81)42(91)51(27(13-77)106-59)111-62-48(97)53(113-64-55(46(95)38(87)24(10-74)105-64)115-60-33(69-19(5)82)43(92)50(26(12-76)107-60)110-61-47(96)44(93)36(85)22(8-72)103-61)52(112-57-30(66-16(2)79)39(88)34(83)20(6-70)101-57)28(108-62)14-99-63-54(45(94)37(86)23(9-73)104-63)114-58-31(67-17(3)80)40(89)35(84)21(7-71)102-58/h20-64,70-77,83-98H,6-14H2,1-5H3,(H,65,78)(H,66,79)(H,67,80)(H,68,81)(H,69,82)/t20-,21-,22-,23-,24-,25-,26-,27-,28-,29-,30-,31-,32-,33-,34-,35-,36+,37-,38-,39-,40-,41-,42-,43-,44+,45+,46+,47-,48+,49-,50-,51-,52-,53-,54+,55+,56-,57+,58+,59+,60+,61+,62+,63+,64-/m1/s1
Instrument: 2695 HPLC Quadro Micro API, Waters
Instrument type: LC-ESI-QQ
Ms type: MS2
Ion mode: POSITIVE
Collision energy: 35.0 V
Ionization: ESI
Column name: TSK-GEL Amide-80 2.0 mm X 250 mm (TOSOH)
Retention time: 29.178 min
Derivative form: C73H118N6O47
Derivative mass: 1830.70279
Derivative type: ABEE (p-Aminobenzoic acid ethyl ester)
Precursor m/z: 1833.00
Precursor type: [M+H]+
m/z	relative intensity
326.1	41
327.4	42
364.5	31
365.3	299
366.1	878
366.8	126
370.3	144
371.0	215
383.0	61
488.3	64
497.0	40
527.9	252
529.1	46
530.1	50
545.6	107
568.2	71
568.9	334
570.3	157
572.7	44
573.3	401
574.2	573
575.2	197
576.0	71
672.0	59
711.5	101
729.8	45
730.7	391
731.7	39
732.4	61
735.4	56
736.2	81
737.4	71
891.9	56
892.9	102
897.4	143
899.3	275
934.3	94
935.2	112
938.3	47
939.3	261
1055.5	80
1059.2	59
1060.6	30
1094.8	195
1096.1	168
1096.8	113
1100.1	66
1100.7	90
1101.5	253
1102.4	89
1103.6	31
1256.3	33
1257.1	64
1260.6	47
1261.6	211
1263.1	148
1264.3	376
1265.3	71
1301.8	38
1304.0	86
1304.9	84
1458.8	44
1459.6	87
1460.9	163
1461.8	272
1462.3	52
1464.0	126
1465.1	366
1466.0	999
1466.6	106
1467.2	570
1467.8	68
1625.1	43
1627.0	75
1628.4	66
1629.3	109
1829.4	144
1830.5	61
1831.2	198
1832.3	134
1833.0	40
