Mass spectrum: GalNAc2FucGlcNAcThrNAc; LC-ESI-QQ; MS2; CE:25V; [M+H]+
Name: GalNAc2FucGlcNAcThrNAc
Name: GalNAc-beta-1-4(GalNAc-alpha-1-2Fuc-alpha-1-3)GlcNAc-beta-1-2ThrNAc (ThrNAc, 3-acetamido-3-deoxythreose)
Class: Natural Product; Oligosaccharide; O-linked glycan
Formula: C36H60N4O23
Exact mass: 916.36483
SMILES: O(C(C4NC(C)=O)C(C(CO)OC4OC(C=O)(C(NC(C)=O)(CO)[H])[H])OC(O3)C(C(O)C(O)C(CO)3)NC(C)=O)C(O2)C(C(O)C(C2C)O)OC(O1)C(NC(C)=O)C(C(O)C1CO)O
InChI: InChI=1S/C36H60N4O23/c1-11-24(50)29(55)32(63-34-22(39-14(4)48)28(54)26(52)19(9-44)59-34)36(56-11)62-31-23(40-15(5)49)35(57-17(7-42)16(6-41)37-12(2)46)60-20(10-45)30(31)61-33-21(38-13(3)47)27(53)25(51)18(8-43)58-33/h7,11,16-36,41,43-45,50-55H,6,8-10H2,1-5H3,(H,37,46)(H,38,47)(H,39,48)(H,40,49)/t11-,16-,17-,18+,19+,20+,21+,22+,23+,24+,25-,26-,27+,28+,29+,30+,31+,32-,33-,34+,35+,36-/m0/s1
Instrument: 2695 HPLC Quadro Micro API, Waters
Instrument type: LC-ESI-QQ
Ms type: MS2
Ion mode: POSITIVE
Collision energy: 25.0 V
Ionization: ESI
Column name: TSK-GEL Amide-80 2.0 mm X 250 mm (TOSOH)
Retention time: 21.552 min
Derivative form: C45H71N5O24
Derivative mass: 1065.44890
Derivative type: ABEE (p-Aminobenzoic acid ethyl ester)
Precursor m/z: 1066.00
Precursor type: [M+H]+
m/z	relative intensity
203.3	52
203.9	644
204.5	15
221.3	17
221.9	148
222.4	10
264.9	32
310.2	23
310.8	226
311.5	21
313.7	11
331.6	12
349.1	21
349.6	231
350.3	30
367.5	27
368.2	14
388.7	20
406.0	138
406.7	999
407.3	77
408.1	14
418.7	16
456.9	30
466.9	14
467.6	69
477.5	31
513.0	41
513.7	151
514.5	21
551.8	71
552.5	544
553.2	173
554.1	18
570.5	12
612.8	11
613.7	23
658.7	24
659.4	50
660.2	37
669.9	65
670.8	95
698.5	24
715.8	163
716.7	410
717.5	78
718.2	20
754.8	86
755.6	253
756.3	33
757.1	10
815.9	13
816.8	22
844.3	12
861.4	40
862.0	239
862.8	293
863.4	34
864.2	23
1019.8	12
1064.3	52
1065.0	158
1065.9	218
1066.7	35
1067.4	18
