Mass spectrum: rebaudioside M; LC-ESI-QQ; MS2; CE:100V; [M-H]-
Name: rebaudioside M
Class: Natural Product; Steviol glycoside
Formula: C56H90O33
Exact mass: 1290.53644
SMILES: C(C%10CO)(C(C(C(O%10)OC(C(C)(C9)C(C(C)3CC9)(CCC(C4)(C5)C3(CCC4(OC(O7)C(OC(C8O)OC(CO)C(C(O)8)O)C(C(C7CO)O)OC(O6)C(O)C(C(C(CO)6)O)O)C5=C)[H])[H])=O)OC(O2)C(C(C(C2CO)O)O)O)OC(O1)C(C(O)C(O)C(CO)1)O)O
InChI: InChI=1S/C56H90O33/c1-19-11-55-9-5-26-53(2,7-4-8-54(26,3)52(77)88-50-44(86-48-40(75)36(71)30(65)22(14-59)80-48)42(32(67)24(16-61)82-50)84-46-38(73)34(69)28(63)20(12-57)78-46)27(55)6-10-56(19,18-55)89-51-45(87-49-41(76)37(72)31(66)23(15-60)81-49)43(33(68)25(17-62)83-51)85-47-39(74)35(70)29(64)21(13-58)79-47/h20-51,57-76H,1,4-18H2,2-3H3/t20-,21-,22-,23-,24-,25-,26+,27+,28-,29-,30-,31-,32-,33-,34+,35+,36+,37+,38-,39-,40-,41-,42+,43+,44-,45-,46+,47+,48+,49+,50+,51+,53-,54-,55-,56+/m1/s1
Instrument: 2695 HPLC Quadro Micro API, Waters
Instrument type: LC-ESI-QQ
Ms type: MS2
Ion mode: NEGATIVE
Collision energy: 100.0 V
Ionization: ESI
Column name: TSK-GEL Amide-80 2.0 mm X 250 mm (TOSOH)
Retention time: 29.682 min
Precursor m/z: 1289.00
Precursor type: [M-H]-
m/z	relative intensity
315.3	34
318.0	65
461.3	69
477.5	64
478.5	134
479.7	142
480.9	129
580.4	38
626.3	26
638.2	31
638.9	401
640.0	61
640.7	708
641.5	999
642.5	734
724.6	26
798.7	28
802.4	135
803.1	424
803.9	91
804.5	30
1128.9	121
1158.5	32
1206.9	28
