Mass spectrum: GlcNAc2Man2GlcNAcManGlcNAc2; LC-ESI-QQ; MS2; CE:30V; Amide
Name: GlcNAc2Man2GlcNAcManGlcNAc2
Name: GlcNAc-beta-1-2Man-alpha-1-6(GlcNAc-beta-1-4)(GlcNAc-beta-1-2Man-alpha-1-3)Man-beta-1-4GlcNAc-beta-1-4GlcNAc
Class: Natural Product; Oligosaccharide; N-linked glycan; Complex type
Formula: C58H97N5O41
Exact mass: 1519.56590
SMILES: OC(C7O)C(CO)OC(C7OC(C8NC(C)=O)OC(C(O)C8O)CO)OC(C(O)3)C(OC(O6)C(C(C(O)C6CO)O)NC(C)=O)C(OC3OC(C5CO)C(O)C(C(O5)OC(C4O)C(CO)OC(O)C(NC(C)=O)4)NC(C)=O)COC(O2)C(C(O)C(C2CO)O)OC(C(NC(C)=O)1)OC(C(O)C(O)1)CO
InChI: InChI=1S/C58H97N5O41/c1-14(71)59-27-40(84)45(24(11-69)91-51(27)89)99-55-31(63-18(5)75)41(85)46(25(12-70)97-55)100-56-44(88)48(102-58-50(43(87)36(80)23(10-68)96-58)104-54-30(62-17(4)74)39(83)34(78)21(8-66)94-54)47(101-52-28(60-15(2)72)37(81)32(76)19(6-64)92-52)26(98-56)13-90-57-49(42(86)35(79)22(9-67)95-57)103-53-29(61-16(3)73)38(82)33(77)20(7-65)93-53/h19-58,64-70,76-89H,6-13H2,1-5H3,(H,59,71)(H,60,72)(H,61,73)(H,62,74)(H,63,75)/t19-,20-,21-,22-,23-,24-,25-,26-,27-,28-,29-,30-,31-,32-,33-,34-,35-,36-,37-,38-,39-,40-,41-,42+,43+,44+,45-,46-,47-,48-,49+,50+,51-,52+,53+,54+,55+,56+,57+,58-/m1/s1
Instrument: 2695 HPLC Quadro Micro API, Waters
Instrument type: LC-ESI-QQ
Ms type: MS2
Ion mode: POSITIVE
Collision energy: 30.0 V
Ionization: ESI
Column name: TSK-GEL Amide-80 2.0 mm X 250 mm (TOSOH)
Retention time: 24.620 min
Derivative form: C67H108N6O42
Derivative mass: 1668.64996
Derivative type: ABEE (p-Aminobenzoic acid ethyl ester)
Precursor m/z: 1670.00
Precursor type: [M+H]+
m/z	relative intensity
325.1	52
365.6	364
366.3	59
370.4	282
371.5	134
527.3	95
528.1	96
546.2	54
567.9	207
568.8	490
569.4	92
572.9	393
573.8	863
574.5	154
575.4	36
689.7	100
729.6	72
730.6	335
731.4	125
734.8	49
735.7	189
736.4	68
891.5	122
892.7	220
893.5	76
896.5	42
897.4	115
898.3	47
932.7	44
933.5	67
934.6	47
937.4	39
938.2	190
939.1	188
940.0	71
1059.2	45
1094.2	65
1094.9	122
1095.6	299
1096.5	152
1098.9	43
1099.6	306
1100.1	34
1100.7	659
1101.5	181
1102.3	109
1216.8	30
1260.6	82
1261.3	282
1262.3	672
1263.3	455
1264.1	174
1296.4	31
1297.0	73
1297.7	255
1298.5	238
1299.4	269
1300.2	54
1302.1	65
1302.8	193
1303.8	216
1304.6	80
1463.3	99
1464.0	537
1464.8	785
1465.8	999
1466.9	446
1467.6	66
1665.7	45
1666.4	220
1667.2	346
1668.1	733
1668.9	328
1669.7	262
1670.3	53
