Mass spectrum: rebaudioside C; LC-ESI-QQ; MS2; CE:60V; [M-H]-
Name: rebaudioside C
Class: Natural Product; Steviol glycoside
Formula: C44H70O22
Exact mass: 950.43587
SMILES: [H]C(C8)(C(C([H])(C4)C(C8)(C3)CC(C(OC(C5OC(O7)C(C(C(O)C7C)O)O)OC(CO)C(C(OC(C(O)6)OC(CO)C(O)C6O)5)O)(C4)3)=C)(C)2)C(CCC2)(C)C(=O)OC(C(O)1)OC(C(O)C(O)1)CO
InChI: InChI=1S/C44H70O22/c1-17-12-43-10-6-22-41(3,8-5-9-42(22,4)40(58)65-38-33(57)30(54)26(50)20(14-46)61-38)23(43)7-11-44(17,16-43)66-39-35(64-36-31(55)28(52)24(48)18(2)59-36)34(27(51)21(15-47)62-39)63-37-32(56)29(53)25(49)19(13-45)60-37/h18-39,45-57H,1,5-16H2,2-4H3/t18-,19+,20+,21+,22-,23-,24-,25+,26+,27+,28+,29-,30-,31+,32+,33+,34-,35+,36-,37-,38-,39-,41+,42+,43+,44-/m0/s1
Instrument: 2695 HPLC Quadro Micro API, Waters
Instrument type: LC-ESI-QQ
Ms type: MS2
Ion mode: NEGATIVE
Collision energy: 60.0 V
Ionization: ESI
Column name: TSK-GEL Amide-80 2.0 mm X 250 mm (TOSOH)
Retention time: 12.616 min
Precursor m/z: 949.00
Precursor type: [M-H]-
m/z	relative intensity
316.6	17
317.2	160
412.3	13
413.0	120
413.6	24
443.1	10
461.0	49
478.4	46
479.1	229
479.8	13
606.3	37
607.1	99
624.3	266
625.0	999
625.7	97
626.4	10
640.5	144
641.3	131
786.3	368
787.2	799
787.8	156
