Mass spectrum: GalGlcNAc2Man3GlcNAc2-I; LC-ESI-QQ; MS2; CE:30V; Amide
Name: GalGlcNAc2Man3GlcNAc2-I
Name: Gal-beta-1-4GlcNAc-beta-1-2Man-alpha-1-6(GlcNAc-beta-1-2Man-alpha-1-3)Man-beta-1-4GlcNAc-beta-1-4GlcNAc
Class: Natural Product; Oligosaccharide; N-linked glycan; Complex type
Formula: C56H94N4O41
Exact mass: 1478.53935
SMILES: C(C1NC(C)=O)(C(OC(C(NC(C)=O)8)OC(C(C(O)8)OC(O4)C(C(C(O)C(COC(O5)C(OC(O7)C(NC(C)=O)C(C(C7CO)OC(C6O)OC(C(C6O)O)CO)O)C(C(C(CO)5)O)O)4)OC(C2OC(O3)C(NC(C)=O)C(C(O)C(CO)3)O)OC(CO)C(C(O)2)O)O)CO)C(CO)OC1O)O
InChI: InChI=1S/C56H94N4O41/c1-13(68)57-25-35(78)43(21(9-65)88-49(25)86)96-51-27(59-15(3)70)36(79)45(23(11-67)93-51)98-54-42(85)46(99-56-48(40(83)32(75)20(8-64)92-56)101-50-26(58-14(2)69)34(77)29(72)17(5-61)89-50)33(76)24(95-54)12-87-55-47(39(82)31(74)19(7-63)91-55)100-52-28(60-16(4)71)37(80)44(22(10-66)94-52)97-53-41(84)38(81)30(73)18(6-62)90-53/h17-56,61-67,72-86H,5-12H2,1-4H3,(H,57,68)(H,58,69)(H,59,70)(H,60,71)/t17-,18-,19-,20-,21-,22-,23-,24-,25-,26-,27-,28-,29-,30+,31-,32-,33-,34-,35-,36-,37-,38+,39+,40+,41-,42+,43-,44-,45-,46+,47+,48+,49-,50+,51+,52+,53+,54+,55+,56-/m1/s1
Instrument: 2695 HPLC Quadro Micro API, Waters
Instrument type: LC-ESI-QQ
Ms type: MS2
Ion mode: POSITIVE
Collision energy: 30 V
Ionization: ESI
Column name: TSK-GEL Amide-80 2.0 mm X 250 mm (TOSOH)
Retention time: 26.290 min
Derivative form: C65H105N5O42
Derivative mass: 1627.62341
Derivative type: ABEE (p-Aminobenzoic acid ethyl ester)
Precursor m/z: 1629.00
Precursor type: [M+H]+
m/z	relative intensity
365.4	289
366.2	148
367.0	49
370.2	41
371.2	28
527.3	75
529.8	22
573.2	81
574.1	44
575.0	35
689.4	40
690.4	36
730.3	40
731.2	35
735.0	38
736.3	34
891.4	49
892.5	77
893.2	24
897.0	94
897.9	105
899.2	20
1053.6	31
1055.5	22
1058.9	116
1059.8	83
1060.6	36
1099.0	24
1099.8	57
1100.7	65
1101.8	51
1255.9	26
1256.5	101
1257.4	188
1258.4	131
1259.2	61
1260.2	30
1260.9	144
1261.7	429
1262.6	999
1263.5	347
1264.4	170
1422.5	24
1423.5	36
1424.5	189
1426.0	29
1472.2	23
1625.2	147
1626.1	500
1626.9	700
1627.6	183
1628.3	618
1629.1	248
1629.8	27
