Mass spectrum: GalNAc2FucGlcNAcGA; LC-ESI-QQ; MS2; CE:20V; [M+H]+
Name: GalNAc2FucGlcNAcGA
Name: GalNAc-beta-1-4(GalNAc-alpha-1-2Fuc-alpha-1-3)GlcNAc-beta-1-2GA (GA, glycolaldehyde)
Class: Natural Product; Oligosaccharide; O-linked glycan
Formula: C32H53N3O21
Exact mass: 815.31716
SMILES: CC(=O)NC(C1OC(C4O)C(OC(C4O)C)OC(C3NC(C)=O)C(C(CO)OC3OCC=O)OC(C(NC(C)=O)2)OC(CO)C(O)C(O)2)C(C(O)C(CO)O1)O
InChI: InChI=1S/C32H53N3O21/c1-10-20(43)25(48)28(56-31-18(34-12(3)41)24(47)22(45)15(8-38)52-31)32(50-10)55-27-19(35-13(4)42)29(49-6-5-36)53-16(9-39)26(27)54-30-17(33-11(2)40)23(46)21(44)14(7-37)51-30/h5,10,14-32,37-39,43-48H,6-9H2,1-4H3,(H,33,40)(H,34,41)(H,35,42)/t10-,14+,15+,16+,17+,18+,19+,20+,21-,22-,23+,24+,25+,26+,27+,28-,29+,30-,31+,32-/m0/s1
Instrument: 2695 HPLC Quadro Micro API, Waters
Instrument type: LC-ESI-QQ
Ms type: MS2
Ion mode: POSITIVE
Collision energy: 20.0 V
Ionization: ESI
Column name: TSK-GEL Amide-80 2.0 mm X 250 mm (TOSOH)
Retention time: 17.473 min
Derivative form: C41H64N4O22
Derivative mass: 964.40122
Derivative type: ABEE (p-Aminobenzoic acid ethyl ester)
Precursor m/z: 965.00
Precursor type: [M+H]+
m/z	relative intensity
203.3	96
204.0	607
205.1	14
210.0	13
221.9	83
318.0	28
331.4	24
332.1	10
349.1	42
349.7	356
350.4	54
352.2	10
366.2	32
366.9	99
367.7	28
375.9	22
376.5	109
377.3	24
388.4	18
394.1	12
394.8	41
405.9	152
406.5	999
407.2	185
407.9	33
411.9	78
412.6	649
413.3	146
414.0	24
516.3	14
522.4	18
534.9	18
540.9	18
552.0	362
552.7	658
553.5	56
554.2	13
558.0	120
558.7	228
559.8	17
568.8	84
569.5	205
570.4	74
571.1	21
596.7	88
597.7	229
598.4	31
614.7	347
615.5	940
616.2	285
617.0	41
714.8	17
715.7	53
742.4	12
743.0	34
744.0	47
744.7	12
754.5	79
755.1	195
755.9	329
756.7	36
760.5	97
761.2	730
762.1	361
763.0	49
772.8	17
818.5	15
918.2	32
918.9	33
963.2	121
963.9	536
964.9	686
965.7	102
966.4	34
