Mass spectrum: GalGlcNAc2Man2GlcNAcManGlcNAc2-I; LC-ESI-QQ; MS2; CE:30V; Amide
Name: GalGlcNAc2Man2GlcNAcManGlcNAc2-I
Name: Gal-beta-1-4GlcNAc-beta-1-2Man-alpha-1-6(GlcNAc-beta-1-4)(GlcNAc-beta-1-2Man-alpha-1-3)Man-beta-1-4GlcNAc-beta-1-4GlcNAc
Class: Natural Product; Oligosaccharide; N-linked glycan; Complex type
Formula: C64H107N5O46
Exact mass: 1681.61872
SMILES: C(OC(C9NC(C)=O)OC(C(C9O)O)CO)(C6OC(O8)C(C(O)C(C8CO)O)OC(C7NC(C)=O)OC(C(C(O)7)O)CO)C(OC(C6O)OC(C4O)C(CO)OC(OC(C5CO)C(O)C(C(O)O5)NC(C)=O)C4NC(C)=O)COC(O1)C(OC(O3)C(C(O)C(C(CO)3)OC(C(O)2)OC(C(C2O)O)CO)NC(C)=O)C(O)C(C1CO)O
InChI: InChI=1S/C64H107N5O46/c1-15(78)65-29-41(90)49(25(11-75)100-56(29)98)109-59-32(68-18(4)81)42(91)51(27(13-77)106-59)111-62-48(97)53(113-64-55(46(95)38(87)24(10-74)105-64)115-58-31(67-17(3)80)40(89)35(84)21(7-71)102-58)52(112-57-30(66-16(2)79)39(88)34(83)20(6-70)101-57)28(108-62)14-99-63-54(45(94)37(86)23(9-73)104-63)114-60-33(69-19(5)82)43(92)50(26(12-76)107-60)110-61-47(96)44(93)36(85)22(8-72)103-61/h20-64,70-77,83-98H,6-14H2,1-5H3,(H,65,78)(H,66,79)(H,67,80)(H,68,81)(H,69,82)/t20-,21-,22-,23-,24-,25-,26-,27-,28-,29-,30-,31-,32-,33-,34-,35-,36+,37-,38-,39-,40-,41-,42-,43-,44+,45+,46+,47-,48+,49-,50-,51-,52-,53-,54+,55+,56-,57+,58+,59+,60+,61+,62+,63+,64-/m1/s1
Instrument: 2695 HPLC Quadro Micro API, Waters
Instrument type: LC-ESI-QQ
Ms type: MS2
Ion mode: POSITIVE
Collision energy: 30.0 V
Ionization: ESI
Column name: TSK-GEL Amide-80 2.0 mm X 250 mm (TOSOH)
Retention time: 28.740 min
Derivative form: C73H118N6O47
Derivative mass: 1830.70279
Derivative type: ABEE (p-Aminobenzoic acid ethyl ester)
Precursor m/z: 1833.00
Precursor type: [M+H]+
m/z	relative intensity
324.6	26
365.0	125
365.7	456
366.5	119
367.3	73
370.4	122
371.1	52
371.9	71
383.3	31
527.1	28
528.0	104
529.2	28
568.2	81
569.2	142
570.1	26
573.0	187
574.0	353
575.1	78
575.9	21
689.5	36
729.7	40
730.5	86
731.2	132
732.4	30
735.8	73
737.0	27
892.0	33
892.9	111
893.8	47
894.8	21
896.8	34
898.4	30
933.1	34
934.2	52
938.2	81
939.2	107
940.0	62
1055.8	34
1059.5	23
1060.2	52
1061.1	31
1094.3	26
1095.3	92
1096.0	150
1096.9	76
1097.7	41
1099.5	59
1100.3	120
1101.2	312
1101.8	23
1102.5	144
1257.2	27
1258.1	21
1258.6	36
1260.9	33
1261.7	216
1262.9	345
1263.7	323
1264.5	93
1265.5	41
1302.5	33
1303.6	45
1304.4	57
1459.1	62
1459.9	61
1460.7	142
1461.5	119
1462.3	61
1463.5	187
1464.6	410
1465.5	687
1466.3	999
1467.1	525
1468.0	234
1468.8	45
1627.4	58
1628.3	120
1629.3	48
1828.4	52
1829.3	461
1830.1	250
1830.8	467
1831.7	879
1832.6	250
