Mass spectrum: GalGlcNAc2Man2GlcNAcManGlcNAcFucGlcNAc-I; LC-ESI-QQ; MS2; CE:35V; Amide
Name: GalGlcNAc2Man2GlcNAcManGlcNAcFucGlcNAc-I
Name: Gal-beta-1-4GlcNAc-beta-1-2Man-alpha-1-6(GlcNAc-beta-1-4)(GlcNAc-beta-1-2Man-alpha-1-3)Man-beta-1-4GlcNAc-beta-1-4(Fuc-alpha-1-6)GlcNAc
Class: Natural Product; Oligosaccharide; N-linked glycan; Complex type
Formula: C70H117N5O50
Exact mass: 1827.67663
SMILES: C(C8O)(OC(O%10)C(NC(C)=O)C(C(C(CO)%10)OC(O9)C(O)C(C(O)C9CO)O)O)C(OC(C(O)8)CO)OCC(C(OC(O7)C(C(C(C(CO)7)O)O)NC(C)=O)1)OC(OC(C4CO)C(C(C(OC(C(O)5)C(COC(O6)C(O)C(C(O)C6C)O)OC(O)C(NC(C)=O)5)O4)NC(C)=O)O)C(C1OC(C2OC(C(NC(C)=O)3)OC(CO)C(C3O)O)OC(C(O)C2O)CO)O
InChI: InChI=1S/C70H117N5O50/c1-16-36(88)47(99)51(103)66(109-16)107-14-29-56(44(96)31(61(106)110-29)71-17(2)83)119-64-34(74-20(5)86)45(97)55(28(13-82)116-64)121-68-53(105)58(123-70-60(50(102)41(93)26(11-80)115-70)125-63-33(73-19(4)85)43(95)38(90)23(8-77)112-63)57(122-62-32(72-18(3)84)42(94)37(89)22(7-76)111-62)30(118-68)15-108-69-59(49(101)40(92)25(10-79)114-69)124-65-35(75-21(6)87)46(98)54(27(12-81)117-65)120-67-52(104)48(100)39(91)24(9-78)113-67/h16,22-70,76-82,88-106H,7-15H2,1-6H3,(H,71,83)(H,72,84)(H,73,85)(H,74,86)(H,75,87)/t16-,22+,23+,24+,25+,26+,27+,28+,29+,30+,31+,32+,33+,34+,35+,36+,37+,38+,39-,40+,41+,42+,43+,44+,45+,46+,47+,48-,49-,50-,51-,52+,53-,54+,55+,56+,57+,58+,59-,60-,61+,62-,63-,64-,65-,66+,67-,68-,69-,70+/m0/s1
Instrument: 2695 HPLC Quadro Micro API, Waters
Instrument type: LC-ESI-QQ
Ms type: MS2
Ion mode: POSITIVE
Collision energy: 35.0 V
Ionization: ESI
Column name: TSK-GEL Amide-80 2.0 mm X 250 mm (TOSOH)
Retention time: 30.864 min
Derivative form: C79H128N6O51
Derivative mass: 1976.76069
Derivative type: ABEE (p-Aminobenzoic acid ethyl ester)
Precursor m/z: 1978.00
Precursor type: [M+H]+
m/z	relative intensity
349.7	55
365.0	178
365.8	999
366.4	274
367.2	96
370.4	114
371.3	181
517.2	67
518.5	50
528.0	154
567.7	102
569.0	178
573.6	362
574.3	158
719.9	239
720.8	66
729.9	86
730.9	365
732.1	59
733.4	69
735.2	86
736.6	101
891.4	144
892.2	107
893.0	216
896.7	109
897.5	78
898.4	50
910.8	47
933.1	48
934.1	44
938.4	41
939.1	103
1085.4	140
1094.7	211
1095.8	165
1096.8	71
1099.7	85
1100.7	136
1102.7	45
1245.6	198
1246.4	114
1247.1	193
1247.8	53
1257.0	110
1257.8	48
1258.9	53
1262.7	111
1404.2	43
1406.5	152
1407.7	215
1408.6	361
1409.3	57
1410.0	156
1448.2	50
1449.8	104
1451.0	50
1458.8	107
1459.8	310
1461.2	196
1462.5	109
1465.6	115
1466.6	43
1609.1	128
1609.8	474
1610.7	666
1611.5	948
1612.3	403
1613.0	343
1772.0	92
1773.1	100
1773.9	66
1774.5	42
1812.8	51
1973.8	212
1974.8	555
1975.8	325
1976.7	753
1977.4	66
1978.0	303
