Mass spectrum: XylManGlcNAcFucGlcNAc; LC-ESI-QQ; MS2; CE:30V; ODS
Name: XylManGlcNAcFucGlcNAc
Name: Xyl-beta-1-2Man-beta1-4GlcNAc-beta-1-4(Fuc-alpha-1-3)GlcNAc
Class: Natural Product; Oligosaccharide; N-linked glycan; Complex type
Formula: C33H56N2O24
Exact mass: 864.32230
SMILES: C(C4O)(C(OC(C(O)5)OCC(O)C5O)C(OC4CO)OC(C3CO)C(O)C(C(O3)OC(C1OC(O2)C(O)C(O)C(C(C)2)O)C(OC(O)C1NC(C)=O)CO)NC(C)=O)O
InChI: InChI=1S/C33H56N2O24/c1-8-17(42)21(46)24(49)32(52-8)58-27-16(35-10(3)40)29(50)53-14(6-38)26(27)57-30-15(34-9(2)39)20(45)25(13(5-37)55-30)56-33-28(22(47)19(44)12(4-36)54-33)59-31-23(48)18(43)11(41)7-51-31/h8,11-33,36-38,41-50H,4-7H2,1-3H3,(H,34,39)(H,35,40)/t8-,11+,12+,13+,14+,15+,16+,17+,18-,19+,20+,21+,22-,23+,24-,25+,26+,27+,28-,29+,30-,31-,32-,33-/m0/s1
Instrument: 2695 HPLC Quadro Micro API, Waters
Instrument type: LC-ESI-QQ
Ms type: MS2
Ion mode: POSITIVE
Collision energy: 30.0 V
Ionization: ESI
Column name: Wakosil 5C18-200 2.0 mm X 250 mm (Wako)
Retention time: 27.695 min
Derivative form: C42H67N3O25
Derivative mass: 1013.40636
Derivative type: ABEE (p-Aminobenzoic acid ethyl ester)
Precursor m/z: 1014.00
Precursor type: [M+H]+
m/z	relative intensity
324.6	32
325.2	33
365.2	61
365.9	397
366.5	46
370.2	182
370.9	999
371.6	138
372.5	50
486.6	21
497.2	267
497.9	774
498.6	32
511.2	34
513.4	26
516.4	153
517.3	64
527.4	60
573.0	92
573.7	391
574.5	130
575.4	34
642.9	21
643.7	110
644.5	22
688.9	29
690.0	49
705.3	23
717.4	21
719.6	88
734.6	27
735.4	90
736.2	157
867.6	52
868.5	53
882.6	47
1013.2	50
1014.2	91
1015.0	22
