Mass spectrum: 3-Man3GlcNAc; LC-ESI-QQ; MS2; CE:20V; ODS
Name: 3-Man3GlcNAc
Name: Man-alpha-1-2Man-alpha-1-3Man-beta-1-4GlcNAc
Class: Natural Product; Oligosaccharide; N-linked glycan; High-mannose type
Formula: C26H45NO21
Exact mass: 707.24841
SMILES: CC(=O)N[C@@H]1[C@H]([C@@H]([C@H](O[C@@H]1O)CO)O[C@H]2[C@H]([C@H]([C@@H]([C@H](O2)CO)O)O[C@@H]3[C@H]([C@H]([C@@H]([C@H](O3)CO)O)O)O[C@@H]4[C@H]([C@H]([C@@H]([C@H](O4)CO)O)O)O)O)O
InChI: InChI=1S/C26H45NO21/c1-6(32)27-11-15(36)20(10(5-31)42-23(11)41)46-25-19(40)21(14(35)9(4-30)44-25)47-26-22(17(38)13(34)8(3-29)45-26)48-24-18(39)16(37)12(33)7(2-28)43-24/h7-26,28-31,33-41H,2-5H2,1H3,(H,27,32)/t7-,8-,9-,10-,11-,12-,13-,14-,15-,16+,17+,18+,19+,20-,21+,22+,23+,24-,25+,26-/m1/s1
Instrument: 2695 HPLC Quadro Micro API, Waters
Instrument type: LC-ESI-QQ
Ms type: MS2
Ion mode: POSITIVE
Collision energy: 20.0 V
Ionization: ESI
Column name: Wakosil 5C18-200 2.0 mm X 250 mm (Wako)
Retention time: 43.198 min
Derivative form: C35H56N2O22
Derivative mass: 856.33247
Derivative type: ABEE (p-Aminobenzoic acid ethyl ester)
Precursor m/z: 857.30
Precursor type: [M+H]+
m/z	relative intensity
324.6	36
370.2	50
370.8	999
371.4	154
372.3	53
486.9	21
532.2	149
532.9	590
533.8	118
534.4	21
649.0	21
694.2	87
695.1	205
696.1	49
855.7	85
856.3	604
857.2	911
858.1	321
858.7	23
