Mass spectrum: GalGlcNAc2Man2GlcNAcManGlcNAcFucGlcNAc-II; LC-ESI-QQ; MS2; CE:35V; Amide
Name: GalGlcNAc2Man2GlcNAcManGlcNAcFucGlcNAc-II
Name: GlcNAc-beta-1-2Man-alpha-1-6(GlcNAc-beta-1-4)(Gal-beta-1-4GlcNAc-beta-1-2Man-alpha-1-3)Man-beta-1-4GlcNAc-beta-1-4(Fuc-alpha-1-6)GlcNAc
Class: Natural Product; Oligosaccharide; N-linked glycan; Complex type
Formula: C70H117N5O50
Exact mass: 1827.67663
SMILES: C(OC(C2OCC(C(OC(C(NC(C)=O)%10)OC(C(O)C(O)%10)CO)3)OC(OC(C(O)9)C(OC(C(NC(C)=O)9)OC(C8O)C(OC(C8NC(C)=O)O)COC(O7)C(C(O)C(C7C)O)O)CO)C(O)C3OC(O6)C(C(O)C(C6CO)O)OC(C(NC(C)=O)5)OC(C(C(O)5)OC(O4)C(O)C(O)C(O)C4CO)CO)C(C(O)C(O2)CO)O)(O1)C(NC(C)=O)C(C(O)C(CO)1)O
InChI: InChI=1S/C70H117N5O50/c1-16-36(88)47(99)51(103)66(109-16)107-14-29-56(44(96)31(61(106)110-29)71-17(2)83)119-64-34(74-20(5)86)45(97)55(28(13-82)116-64)121-68-53(105)58(123-70-60(50(102)41(93)26(11-80)115-70)125-65-35(75-21(6)87)46(98)54(27(12-81)117-65)120-67-52(104)48(100)39(91)24(9-78)113-67)57(122-62-32(72-18(3)84)42(94)37(89)22(7-76)111-62)30(118-68)15-108-69-59(49(101)40(92)25(10-79)114-69)124-63-33(73-19(4)85)43(95)38(90)23(8-77)112-63/h16,22-70,76-82,88-106H,7-15H2,1-6H3,(H,71,83)(H,72,84)(H,73,85)(H,74,86)(H,75,87)/t16-,22+,23+,24+,25+,26+,27+,28+,29+,30+,31+,32+,33+,34+,35+,36+,37+,38+,39-,40+,41+,42+,43+,44+,45+,46+,47+,48-,49-,50-,51-,52+,53-,54+,55+,56+,57+,58+,59-,60-,61+,62-,63-,64-,65-,66+,67-,68-,69-,70+/m0/s1
Instrument: 2695 HPLC Quadro Micro API, Waters
Instrument type: LC-ESI-QQ
Ms type: MS2
Ion mode: POSITIVE
Collision energy: 35.0 V
Ionization: ESI
Column name: TSK-GEL Amide-80 2.0 mm X 250 mm (TOSOH)
Retention time: 31.394 min
Derivative form: C79H128N6O51
Derivative mass: 1976.76069
Derivative type: ABEE (p-Aminobenzoic acid ethyl ester)
Precursor m/z: 1978.00
Precursor type: [M+H]+
m/z	relative intensity
306.5	75
365.6	616
366.2	262
369.3	93
441.9	75
527.2	104
568.1	109
569.2	386
574.1	149
638.2	73
689.6	151
713.5	113
730.8	207
777.5	104
800.3	82
897.5	117
938.0	174
998.0	157
1051.4	87
1056.6	97
1084.1	388
1088.8	98
1100.4	134
1144.9	129
1146.8	88
1243.7	73
1245.6	124
1246.8	368
1251.0	75
1254.9	87
1258.3	171
1259.6	194
1260.8	110
1262.6	133
1384.4	97
1398.6	160
1406.4	162
1407.2	250
1408.2	143
1409.1	169
1445.2	73
1448.4	172
1449.8	185
1459.6	89
1460.2	77
1460.9	167
1461.5	128
1462.3	109
1491.0	74
1495.8	78
1593.8	76
1609.1	167
1609.8	296
1611.0	869
1612.3	302
1613.0	292
1725.9	84
1771.4	84
1772.5	246
1773.7	145
1775.5	201
1780.3	103
1798.2	74
1811.2	157
1813.2	75
1836.1	70
1852.9	74
1861.4	100
1932.0	174
1974.8	999
1975.8	959
1976.7	940
1977.6	289
1978.9	417
