Mass spectrum: Cyproconazole; LC-ESI-ITFT; MS2; CE: 90%; R=7500; [M+H]+
Name: Cyproconazole
Name: 2-(4-chlorophenyl)-3-cyclopropyl-1-(1,2,4-triazol-1-yl)-2-butanol
Formula: C15H18ClN3O
Exact mass: 291.1133
SMILES: Cl-c(ccc1C(O)(CN(N=C2)C=N2)C(C(C3)C3)C)cc1
InChI: InChI=1S/C15H18ClN3O/c1-11(12-2-3-12)15(20,8-19-10-17-9-18-19)13-4-6-14(16)7-5-13/h4-7,9-12,20H,2-3,8H2,1H3
Instrument: LTQ Orbitrap XL Thermo Scientific
Instrument type: LC-ESI-ITFT
Ms type: MS2
Ion mode: POSITIVE
Ionization: ESI
Fragmentation mode: HCD
Collision energy: 90 % (nominal)
Resolution: 7500
Column name: XBridge C18 3.5um, 2.1x50mm, Waters
Retention time: 11.5 min
Base peak: 292.1217
Precursor m/z: 292.1211
Precursor type: [M+H]+
m/z	relative intensity	assigned
70.04	947	C2H4N3+
89.0386	51	C7H5+
90.0465	7	C7H6+
98.9996	24	C5H4Cl+
103.0543	7	C8H7+
125.0153	999	C7H6Cl+
128.0626	4	C10H8+
138.9943	17	C7H4ClO+
139.0058	46	C9HNO+
