Mass spectrum: Ioxynil; LC-ESI-ITFT; MS2; CE: 90%; R=30000; [M-H]-
Name: Ioxynil
Name: 4-Hydroxy-3,5-diiodobenzonitrile
Name: 3,5-bis(iodanyl)-4-oxidanyl-benzenecarbonitrile
Formula: C7H3I2NO
Exact mass: 370.8304
SMILES: c1(cc(c(O)c(c1)I)I)C#N
InChI: InChI=1S/C7H3I2NO/c8-5-1-4(3-10)2-6(9)7(5)11/h1-2,11H
Instrument: LTQ Orbitrap XL Thermo Scientific
Instrument type: LC-ESI-ITFT
Ms type: MS2
Ion mode: NEGATIVE
Ionization: ESI
Fragmentation mode: HCD
Collision energy: 90 % (nominal)
Resolution: 30000
Column name: XBridge C18 3.5um, 2.1x50mm, Waters
Retention time: 9.3 min
Base peak: 369.8221
Precursor m/z: 369.8231
Precursor type: [M-H]-
m/z	relative intensity	assigned
65.0034	2	C4HO-
116.0143	5	C7H2NO-
126.905	999	I-
