Mass spectrum: Metamitron-desamino; LC-ESI-ITFT; MS2; CE: 60%; R=7500; [M+H]+
Name: Metamitron-desamino
Name: 3-Methyl-6-phenyl-1,2,4-triazin-5-ol
Formula: C10H9N3O
Exact mass: 187.0746
SMILES: c(ccc1C(=NN=C2C)C(=O)N2)cc1
InChI: InChI=1S/C10H9N3O/c1-7-11-10(14)9(13-12-7)8-5-3-2-4-6-8/h2-6H,1H3,(H,11,12,14)
Instrument: LTQ Orbitrap XL Thermo Scientific
Instrument type: LC-ESI-ITFT
Ms type: MS2
Ion mode: POSITIVE
Ionization: ESI
Fragmentation mode: HCD
Collision energy: 60 % (nominal)
Resolution: 7500
Column name: XBridge C18 3.5um, 2.1x50mm, Waters
Retention time: 5.1 min
Base peak: 188.0824
Precursor m/z: 188.0818
Precursor type: [M+H]+
m/z	relative intensity	assigned
53.0384	3	C4H5+
57.0447	11	C2H5N2+
65.0386	3	C5H5+
77.0386	42	C6H5+
85.0397	8	C3H5N2O+
91.0542	14	C7H7+
92.0495	27	C6H6N+
95.0493	4	C6H7O+
104.0496	197	C7H6N+
105.0446	9	C6H5N2+
119.0605	189	C7H7N2+
131.0725	3	C9H9N+
160.0871	999	C9H10N3+
188.0817	274	C10H10N3O+
