Mass spectrum: Bromoxynil; LC-ESI-ITFT; MS2; CE: 30%; R=15000; [M-H]-
Name: Bromoxynil
Name: 3,5-bis(bromanyl)-4-oxidanyl-benzenecarbonitrile
Formula: C7H3Br2NO
Exact mass: 274.8581
SMILES: c1(cc(c(O)c(c1)Br)Br)C#N
InChI: InChI=1S/C7H3Br2NO/c8-5-1-4(3-10)2-6(9)7(5)11/h1-2,11H
Instrument: LTQ Orbitrap XL Thermo Scientific
Instrument type: LC-ESI-ITFT
Ms type: MS2
Ion mode: NEGATIVE
Ionization: ESI
Fragmentation mode: HCD
Collision energy: 30 % (nominal)
Resolution: 15000
Column name: XBridge C18 3.5um, 2.1x50mm, Waters
Retention time: 8.3 min
Base peak: 275.8486
Precursor m/z: 273.8509
Precursor type: [M-H]-
m/z	relative intensity	assigned
78.9189	72	Br-
273.851	999	C7H2Br2NO-
