Mass spectrum: Alachlor ESA; LC-ESI-ITFT; MS2; CE: 90%; R=7500; [M-H]-
Name: Alachlor ESA
Name: 2-[(2,6-diethylphenyl)-(methoxymethyl)amino]-2-oxidanylidene-ethanesulfonic acid
Formula: C14H21NO5S
Exact mass: 315.1140
SMILES: CCC1=CC=CC(CC)=C1N(COC)C(=O)CS(O)(=O)=O
InChI: InChI=1S/C14H21NO5S/c1-4-11-7-6-8-12(5-2)14(11)15(10-20-3)13(16)9-21(17,18)19/h6-8H,4-5,9-10H2,1-3H3,(H,17,18,19)
Instrument: LTQ Orbitrap XL Thermo Scientific
Instrument type: LC-ESI-ITFT
Ms type: MS2
Ion mode: NEGATIVE
Ionization: ESI
Fragmentation mode: HCD
Collision energy: 90 % (nominal)
Resolution: 7500
Column name: XBridge C18 3.5um, 2.1x50mm, Waters
Retention time: 7.7 min
Base peak: 314.1062
Precursor m/z: 314.1068
Precursor type: [M-H]-
m/z	relative intensity	assigned
76.9702	101	CHO2S-
79.9573	999	O3S-
158.097	43	C11H12N-
