Mass spectrum: Prochloraz; LC-ESI-ITFT; MS2; CE: 45%; R=7500; [M+H]+
Name: Prochloraz
Name: N-propyl-N-[2-(2,4,6-trichlorophenoxy)ethyl]-1-imidazolecarboxamide
Formula: C15H16Cl3N3O2
Exact mass: 375.0303
SMILES: Cl-c(cc(Cl)c1OCCN(C(=O)N(C=N2)C=C2)CCC)cc1Cl
InChI: InChI=1S/C15H16Cl3N3O2/c1-2-4-20(15(22)21-5-3-19-10-21)6-7-23-14-12(17)8-11(16)9-13(14)18/h3,5,8-10H,2,4,6-7H2,1H3
Instrument: LTQ Orbitrap XL Thermo Scientific
Instrument type: LC-ESI-ITFT
Ms type: MS2
Ion mode: POSITIVE
Ionization: ESI
Fragmentation mode: HCD
Collision energy: 45 % (nominal)
Resolution: 7500
Column name: XBridge C18 3.5um, 2.1x50mm, Waters
Retention time: 12.2 min
Base peak: 376.0387
Precursor m/z: 376.0381
Precursor type: [M+H]+
m/z	relative intensity	assigned
56.0493	81	C3H6N+
70.0287	906	C3H4NO+
70.0651	999	C4H8N+
174.9703	81	C7H5Cl2O+
194.9161	176	C6H2Cl3O+
201.9829	93	C5H9Cl3N2+
222.9479	284	C8H6Cl3O+
265.9526	126	C9H7Cl3NO2+
307.9996	178	C12H13Cl3NO2+
