Mass spectrum: Fluazifop; LC-ESI-ITFT; MS2; CE: 35%; R=30000; [M-H]-
Name: Fluazifop
Name:  2-[4-[5-(trifluoromethyl)pyridin-2-yl]oxyphenoxy]propanoic acid
Formula: C15H12F3NO4
Exact mass: 327.0724
SMILES: CC(C(=O)O)OC1=CC=C(C=C1)OC2=NC=C(C=C2)C(F)(F)F
InChI: InChI=1S/C15H12F3NO4/c1-9(14(20)21)22-11-3-5-12(6-4-11)23-13-7-2-10(8-19-13)15(16,17)18/h2-9H,1H3,(H,20,21)
Instrument: LTQ Orbitrap XL Thermo Scientific
Instrument type: LC-ESI-ITFT
Ms type: MS2
Ion mode: NEGATIVE
Ionization: ESI
Fragmentation mode: CID
Collision energy: 35 % (nominal)
Resolution: 30000
Column name: XBridge C18 3.5um, 2.1x50mm, Waters
Retention time: 10.8 min
Base peak: 326.0639
Precursor m/z: 326.0646
Precursor type: [M-H]-
m/z	relative intensity	assigned
253.0355	1	C12H6F3NO2-
254.0434	999	C12H7F3NO2-
282.0743	8	C14H11F3NO2-
