Mass spectrum: Carbamazepine; LC-ESI-ITFT; MS2; CE: 45%; R=15000; [M+H]+
Name: Carbamazepine
Name: 5H-Dibenz[b,f]azepine-5-carboxamide
Name: 11-benzo[b][1]benzazepinecarboxamide
Formula: C15H12N2O
Exact mass: 236.0950
SMILES: N1(c2c(cccc2)C=Cc2c1cccc2)C(N)=O
InChI: InChI=1S/C15H12N2O/c16-15(18)17-13-7-3-1-5-11(13)9-10-12-6-2-4-8-14(12)17/h1-10H,(H2,16,18)
Instrument: LTQ Orbitrap XL Thermo Scientific
Instrument type: LC-ESI-ITFT
Ms type: MS2
Ion mode: POSITIVE
Ionization: ESI
Fragmentation mode: HCD
Collision energy: 45 % (nominal)
Resolution: 15000
Column name: XBridge C18 3.5um, 2.1x50mm, Waters
Retention time: 7.8 min
Base peak: 237.1026
Precursor m/z: 237.1022
Precursor type: [M+H]+
m/z	relative intensity	assigned
192.0806	217	C14H10N+
193.0882	17	C14H11N+
194.0963	999	C14H12N+
220.0757	6	C15H10NO+
237.1019	173	C15H13N2O+
