Mass spectrum: Linuron; LC-ESI-ITFT; MS2; CE: 60%; R=15000; [M+H]+
Name: Linuron
Name: 3-(3,4-dichlorophenyl)-1-methoxy-1-methyl-urea
Formula: C9H10Cl2N2O2
Exact mass: 248.0114
SMILES: c1(cc(c(Cl)cc1)Cl)NC(N(OC)C)=O
InChI: InChI=1S/C9H10Cl2N2O2/c1-13(15-2)9(14)12-6-3-4-7(10)8(11)5-6/h3-5H,1-2H3,(H,12,14)
Instrument: LTQ Orbitrap XL Thermo Scientific
Instrument type: LC-ESI-ITFT
Ms type: MS2
Ion mode: POSITIVE
Ionization: ESI
Fragmentation mode: HCD
Collision energy: 60 % (nominal)
Resolution: 15000
Column name: XBridge C18 3.5um, 2.1x50mm, Waters
Retention time: 10.0 min
Base peak: 249.0194
Precursor m/z: 249.0192
Precursor type: [M+H]+
m/z	relative intensity	assigned
60.0443	20	C2H6NO+
62.06	17	C2H8NO+
123.9948	34	C9O+
125.0026	121	C6H4ClN+
132.9606	279	C5H3Cl2+
153.0214	92	C7H6ClN2+
159.9715	999	C6H4Cl2N+
160.9793	442	C6H5Cl2N+
165.022	12	C8H6ClN2+
173.9867	6	C7H6Cl2N+
181.0163	72	C8H6ClN2O+
182.0241	413	C8H7ClN2O+
216.9928	65	C8H7Cl2N2O+
