Mass spectrum: Diflufenican; LC-ESI-ITFT; MS2; CE: 90%; R=7500; [M+H]+
Name: Diflufenican
Name: N-(2,4-difluorophenyl)-2-[3-(trifluoromethyl)phenoxy]-3-pyridinecarboxamide
Formula: C19H11F5N2O2
Exact mass: 394.0735
SMILES: FC1=CC=C(NC(=O)C2=C(OC3=CC=CC(=C3)C(F)(F)F)N=CC=C2)C(F)=C1
InChI: InChI=1S/C19H11F5N2O2/c20-12-6-7-16(15(21)10-12)26-17(27)14-5-2-8-25-18(14)28-13-4-1-3-11(9-13)19(22,23)24/h1-10H,(H,26,27)
Instrument: LTQ Orbitrap XL Thermo Scientific
Instrument type: LC-ESI-ITFT
Ms type: MS2
Ion mode: POSITIVE
Ionization: ESI
Fragmentation mode: HCD
Collision energy: 90 % (nominal)
Resolution: 7500
Column name: XBridge C18 3.5um, 2.1x50mm, Waters
Retention time: 14.4 min
Base peak: 301.1413
Precursor m/z: 395.0813
Precursor type: [M+H]+
m/z	relative intensity	assigned
96.0442	212	C5H6NO+
140.0491	174	C10H6N+
141.0573	407	C10H7N+
145.0259	533	C7H4F3+
158.04	318	C10H5FN+
169.0523	823	C11H7NO+
183.0419	616	C10H6F3+
190.046	783	C11H6F2N+
218.0406	999	C12H6F2NO+
238.0477	417	C12H7F3NO+
266.0421	119	C13H7F3NO2+
