Mass spectrum: Trinexapac-ethyl; LC-ESI-ITFT; MS2; CE: 15%; R=7500; [M+H]+
Name: Trinexapac-ethyl
Name: 4-[cyclopropyl(hydroxy)methylene]-3,5-diketo-cyclohexanecarboxylic acid ethyl ester
Formula: C13H16O5
Exact mass: 252.0992
SMILES: CCOC(=O)C1CC(=O)C(=C(C2CC2)O)C(=O)C1
InChI: InChI=1S/C13H16O5/c1-2-18-13(17)8-5-9(14)11(10(15)6-8)12(16)7-3-4-7/h7-8,16H,2-6H2,1H3/b12-11-
Instrument: LTQ Orbitrap XL Thermo Scientific
Instrument type: LC-ESI-ITFT
Ms type: MS2
Ion mode: POSITIVE
Ionization: ESI
Fragmentation mode: HCD
Collision energy: 15 % (nominal)
Resolution: 7500
Column name: XBridge C18 3.5um, 2.1x50mm, Waters
Retention time: 8.9 min
Base peak: 253.1073
Precursor m/z: 253.1071
Precursor type: [M+H]+
m/z	relative intensity	assigned
69.0334	105	C4H5O+
111.0438	2	C6H7O2+
139.039	41	C7H7O3+
157.0857	2	C8H13O3+
165.0185	10	C8H5O4+
179.07	11	C10H11O3+
185.0808	156	C9H13O4+
207.0651	222	C11H11O4+
253.107	999	C13H17O5+
