Mass spectrum: Sulfadimethoxine; LC-ESI-ITFT; MS2; CE: 75%; R=7500; [M-H]-
Name: Sulfadimethoxine
Name: 4-amino-N-(2,6-dimethoxy-4-pyrimidinyl)benzenesulfonamide
Formula: C12H14N4O4S
Exact mass: 310.0736
SMILES: c1(NS(c2ccc(N)cc2)(=O)=O)cc(nc(n1)OC)OC
InChI: InChI=1S/C12H14N4O4S/c1-19-11-7-10(14-12(15-11)20-2)16-21(17,18)9-5-3-8(13)4-6-9/h3-7H,13H2,1-2H3,(H,14,15,16)
Instrument: LTQ Orbitrap XL Thermo Scientific
Instrument type: LC-ESI-ITFT
Ms type: MS2
Ion mode: NEGATIVE
Ionization: ESI
Fragmentation mode: HCD
Collision energy: 75 % (nominal)
Resolution: 7500
Column name: XBridge C18 3.5um, 2.1x50mm, Waters
Retention time: 5.7 min
Base peak: 309.0653
Precursor m/z: 309.0663
Precursor type: [M-H]-
m/z	relative intensity	assigned
65.0147	267	C3HN2-
65.9987	173	C3NO-
66.0098	999	C2N3-
92.0256	173	C4H2N3-
122.036	496	C5H4N3O-
131.0619	199	C8H7N2-
132.0569	71	C7H6N3-
139.0385	273	C5H5N3O2-
144.0564	85	C8H6N3-
154.0621	188	C6H8N3O2-
172.0524	55	C3H12N2O4S-
