Mass spectrum: 5-Methyl-1H-benzotriazole; LC-ESI-ITFT; MS2; CE: 30%; R=15000; [M+H]+
Name: 5-Methyl-1H-benzotriazole
Formula: C7H7N3
Exact mass: 133.0640
SMILES: c12c(cc(C)cc2)nn[nH]1
InChI: InChI=1S/C7H7N3/c1-5-2-3-6-7(4-5)9-10-8-6/h2-4H,1H3,(H,8,9,10)
Instrument: LTQ Orbitrap XL Thermo Scientific
Instrument type: LC-ESI-ITFT
Ms type: MS2
Ion mode: POSITIVE
Ionization: ESI
Fragmentation mode: HCD
Collision energy: 30 % (nominal)
Resolution: 15000
Column name: XBridge C18 3.5um, 2.1x50mm, Waters
Retention time: 5.8 min
Base peak: 134.0712
Precursor m/z: 134.0713
Precursor type: [M+H]+
m/z	relative intensity	assigned
79.0544	1	C6H7+
106.0651	2	C7H8N+
134.0714	999	C7H8N3+
