Mass spectrum: Fluroxypyr; LC-ESI-ITFT; MS2; CE: 45%; R=7500; [M+H]+
Name: Fluroxypyr
Name: 2-(4-amino-3,5-dichloro-6-fluoropyridin-2-yl)oxyacetic acid
Formula: C7H5Cl2FN2O3
Exact mass: 253.9667
SMILES: c1(c(c(c(Cl)c(n1)F)N)Cl)OCC(O)=O
InChI: InChI=1S/C7H5Cl2FN2O3/c8-3-5(11)4(9)7(12-6(3)10)15-1-2(13)14/h1H2,(H2,11,12)(H,13,14)
Instrument: LTQ Orbitrap XL Thermo Scientific
Instrument type: LC-ESI-ITFT
Ms type: MS2
Ion mode: POSITIVE
Ionization: ESI
Fragmentation mode: HCD
Collision energy: 45 % (nominal)
Resolution: 7500
Column name: XBridge C18 3.5um, 2.1x50mm, Waters
Retention time: 6.9 min
Base peak: 276.9555
Precursor m/z: 254.9734
Precursor type: [M+H]+
m/z	relative intensity	assigned
163.0071	15	C5H5ClFN2O+
178.9572	17	C5H2Cl2FN2+
180.9729	999	C5H4Cl2FN2+
196.9678	182	C5H4Cl2FN2O+
208.9678	866	C6H4Cl2FN2O+
236.9622	8	C7H4Cl2FN2O2+
