Mass spectrum: Nicosulfuron; LC-ESI-ITFT; MS2; CE: 15%; R=7500; [M-H]-
Name: Nicosulfuron
Name: 2-[(4,6-dimethoxypyrimidin-2-yl)carbamoylsulfamoyl]-N,N-dimethyl-nicotinamide
Formula: C15H18N6O6S
Exact mass: 410.1009
SMILES: O=C(Nc1nc(cc(OC)n1)OC)NS(=O)(=O)c2ncccc2C(=O)N(C)C
InChI: InChI=1S/C15H18N6O6S/c1-21(2)13(22)9-6-5-7-16-12(9)28(24,25)20-15(23)19-14-17-10(26-3)8-11(18-14)27-4/h5-8H,1-4H3,(H2,17,18,19,20,23)
Instrument: LTQ Orbitrap XL Thermo Scientific
Instrument type: LC-ESI-ITFT
Ms type: MS2
Ion mode: NEGATIVE
Ionization: ESI
Fragmentation mode: HCD
Collision energy: 15 % (nominal)
Resolution: 7500
Column name: XBridge C18 3.5um, 2.1x50mm, Waters
Retention time: 7.0 min
Base peak: 409.093
Precursor m/z: 409.0936
Precursor type: [M-H]-
m/z	relative intensity	assigned
65.0143	10	C3HN2-
122.0378	8	C7H6O2-
154.0625	999	C6H8N3O2-
210.0347	19	C8H8N3O2S-
228.0451	359	C8H10N3O3S-
254.0245	233	C9H8N3O4S-
409.0943	900	C15H17N6O6S-
