Mass spectrum: Thifensulfuron-methyl; LC-ESI-ITFT; MS2; CE: 75%; R=7500; [M-H]-
Name: Thifensulfuron-methyl
Name:  3-[(4-methoxy-6-methyl-s-triazin-2-yl)carbamoylsulfamoyl]thiophene-2-carboxylic acid methyl ester
Formula: C12H13N5O6S2
Exact mass: 387.0307
SMILES: COC(=O)C1=C(C=CS1)S(=O)(=O)NC(=O)NC1=NC(C)=NC(OC)=N1
InChI: InChI=1S/C12H13N5O6S2/c1-6-13-10(16-12(14-6)23-3)15-11(19)17-25(20,21)7-4-5-24-8(7)9(18)22-2/h4-5H,1-3H3,(H2,13,14,15,16,17,19)
Instrument: LTQ Orbitrap XL Thermo Scientific
Instrument type: LC-ESI-ITFT
Ms type: MS2
Ion mode: NEGATIVE
Ionization: ESI
Fragmentation mode: HCD
Collision energy: 75 % (nominal)
Resolution: 7500
Column name: XBridge C18 3.5um, 2.1x50mm, Waters
Retention time: 6.9 min
Base peak: 386.0229
Precursor m/z: 386.0234
Precursor type: [M-H]-
m/z	relative intensity	assigned
65.0146	49	C3HN2-
66.0099	119	C2N3-
82.0412	63	C3H4N3-
107.0365	389	C4H3N4-
109.0519	26	C4H5N4-
124.0388	28	C4H4N4O-
125.0468	15	C4H5N4O-
139.0628	999	C5H7N4O-
