Mass spectrum: 1H-Benzotriazole; LC-ESI-ITFT; MS2; CE: 30%; R=7500; [M+H]+
Name: 1H-Benzotriazole
Formula: C6H5N3
Exact mass: 119.0483
SMILES: c12c(nn[nH]1)cccc2
InChI: InChI=1S/C6H5N3/c1-2-4-6-5(3-1)7-9-8-6/h1-4H,(H,7,8,9)
Instrument: LTQ Orbitrap XL Thermo Scientific
Instrument type: LC-ESI-ITFT
Ms type: MS2
Ion mode: POSITIVE
Ionization: ESI
Fragmentation mode: HCD
Collision energy: 30 % (nominal)
Resolution: 7500
Column name: XBridge C18 3.5um, 2.1x50mm, Waters
Retention time: 4.4 min
Base peak: 120.0554
Precursor m/z: 120.0556
Precursor type: [M+H]+
m/z	relative intensity	assigned
65.0386	2	C5H5+
92.0495	1	C6H6N+
120.0556	999	C6H6N3+
