Mass spectrum: Rimsulfuron; LC-ESI-ITFT; MS2; CE: 60%; R=7500; [M-H]-
Name: Rimsulfuron
Name: 1-(4,6-dimethoxy-2-pyrimidinyl)-3-[(3-ethylsulfonyl-2-pyridinyl)sulfonyl]urea
Formula: C14H17N5O7S2
Exact mass: 431.0569
SMILES: CCS(=O)(=O)c1cccnc1S(=O)(=O)NC(=O)Nc1nc(OC)cc(OC)n1
InChI: InChI=1S/C14H17N5O7S2/c1-4-27(21,22)9-6-5-7-15-12(9)28(23,24)19-14(20)18-13-16-10(25-2)8-11(17-13)26-3/h5-8H,4H2,1-3H3,(H2,16,17,18,19,20)
Instrument: LTQ Orbitrap XL Thermo Scientific
Instrument type: LC-ESI-ITFT
Ms type: MS2
Ion mode: NEGATIVE
Ionization: ESI
Fragmentation mode: HCD
Collision energy: 60 % (nominal)
Resolution: 7500
Column name: XBridge C18 3.5um, 2.1x50mm, Waters
Retention time: 7.9 min
Base peak: 430.0488
Precursor m/z: 430.0497
Precursor type: [M-H]-
m/z	relative intensity	assigned
65.0146	149	C3HN2-
65.9985	244	C3NO-
93.0458	290	C5H5N2-
94.0303	66	C5H4NO-
107.0126	99	C4HN3O-
109.0174	69	C5H3NO2-
122.0364	205	C5H4N3O-
154.0625	999	C6H8N3O2-
157.0081	283	C5H5N2O2S-
157.9919	122	C5H4NO3S-
164.0341	64	C6H4N4O2-
186.0226	56	C7H8NO3S-
