Mass spectrum: Propaquizafop; LC-ESI-ITFT; MS2; CE: 45%; R=15000; [M+H]+
Name: Propaquizafop
Name: 2-(propan-2-ylideneamino)oxyethyl 2-[4-(6-chloranylquinoxalin-2-yl)oxyphenoxy]propanoate
Formula: C22H22ClN3O5
Exact mass: 443.1242
SMILES: CC(C(=O)OCCON=C(C)C)OC1=CC=C(C=C1)OC2=CN=C3C=C(C=CC3=N2)Cl
InChI: InChI=1S/C22H22ClN3O5/c1-14(2)26-29-11-10-28-22(27)15(3)30-17-5-7-18(8-6-17)31-21-13-24-20-12-16(23)4-9-19(20)25-21/h4-9,12-13,15H,10-11H2,1-3H3
Instrument: LTQ Orbitrap XL Thermo Scientific
Instrument type: LC-ESI-ITFT
Ms type: MS2
Ion mode: POSITIVE
Ionization: ESI
Fragmentation mode: HCD
Collision energy: 45 % (nominal)
Resolution: 15000
Column name: XBridge C18 3.5um, 2.1x50mm, Waters
Retention time: 15.0 min
Base peak: 466.114
Precursor m/z: 444.1321
Precursor type: [M+H]+
m/z	relative intensity	assigned
56.0494	406	C3H6N+
70.0651	350	C4H8N+
91.0542	206	C7H7+
99.044	85	C5H7O2+
100.0518	235	C5H8O2+
100.0757	999	C5H10NO+
118.0863	10	C5H12NO2+
119.049	41	C8H7O+
120.057	10	C8H8O+
133.0643	10	C9H9O+
147.0441	29	C9H7O2+
163.0055	33	C8H4ClN2+
181.0162	55	C8H6ClN2O+
191.07	29	C11H11O3+
192.0779	50	C11H12O3+
207.0916	16	C14H11N2+
208.1002	13	C14H12N2+
235.0866	14	C15H11N2O+
236.0941	61	C15H12N2O+
243.0318	95	C13H8ClN2O+
243.0682	163	C14H12ClN2+
253.0523	28	C18H7NO+
255.0316	133	C17H5NO2+
256.0396	27	C14H9ClN2O+
271.0629	300	C18H9NO2+
283.0632	12	C16H12ClN2O+
285.0424	88	C15H10ClN2O2+
299.0578	497	C19H9NO3+
327.0527	68	C20H9NO4+
353.1069	7	C20H18ClN2O2+
