Mass spectrum: 2-Methyl-4-amino-6-methoxy-s-triazine; LC-ESI-ITFT; MS2; CE: 30%; R=15000; [M+H]+
Name: 2-Methyl-4-amino-6-methoxy-s-triazine
Name: (4-methoxy-6-methyl-s-triazin-2-yl)amine
Formula: C5H8N4O
Exact mass: 140.0698
SMILES: CC1=NC(OC)=NC(N)=N1
InChI: InChI=1S/C5H8N4O/c1-3-7-4(6)9-5(8-3)10-2/h1-2H3,(H2,6,7,8,9)
Instrument: LTQ Orbitrap XL Thermo Scientific
Instrument type: LC-ESI-ITFT
Ms type: MS2
Ion mode: POSITIVE
Ionization: ESI
Fragmentation mode: HCD
Collision energy: 30 % (nominal)
Resolution: 15000
Column name: XBridge C18 3.5um, 2.1x50mm, Waters
Retention time: 1.7 min
Base peak: 141.0771
Precursor m/z: 141.0771
Precursor type: [M+H]+
m/z	relative intensity	assigned
56.0493	3	C3H6N+
57.0446	3	C2H5N2+
85.0396	2	C3H5N2O+
100.0502	1	C3H6N3O+
141.0769	999	C5H9N4O+
