Mass spectrum: Diflufenican; LC-ESI-ITFT; MS2; CE: 35%; R=30000; [M+H]+
Name: Diflufenican
Name: N-(2,4-difluorophenyl)-2-[3-(trifluoromethyl)phenoxy]-3-pyridinecarboxamide
Formula: C19H11F5N2O2
Exact mass: 394.0735
SMILES: FC1=CC=C(NC(=O)C2=C(OC3=CC=CC(=C3)C(F)(F)F)N=CC=C2)C(F)=C1
InChI: InChI=1S/C19H11F5N2O2/c20-12-6-7-16(15(21)10-12)26-17(27)14-5-2-8-25-18(14)28-13-4-1-3-11(9-13)19(22,23)24/h1-10H,(H,26,27)
Instrument: LTQ Orbitrap XL Thermo Scientific
Instrument type: LC-ESI-ITFT
Ms type: MS2
Ion mode: POSITIVE
Ionization: ESI
Fragmentation mode: CID
Collision energy: 35 % (nominal)
Resolution: 30000
Column name: XBridge C18 3.5um, 2.1x50mm, Waters
Retention time: 14.4 min
Base peak: 301.1413
Precursor m/z: 395.0813
Precursor type: [M+H]+
m/z	relative intensity	assigned
142.9882	6	C4FN2O3+
233.0523	8	C12H7F2N2O+
246.0358	15	C13H6F2NO2+
266.0422	999	C13H7F3NO2+
355.0673	9	C19H10F3N2O2+
375.0745	135	C19H11F4N2O2+
