Mass spectrum: Amitraz; LC-ESI-ITFT; MS2; CE: 75%; R=7500; [M+H]+
Name: Amitraz
Name: N'-(2,4-dimethylphenyl)-N-[(2,4-dimethylphenyl)iminomethyl]-N-methyl-formamidine
Formula: C19H23N3
Exact mass: 293.1892
SMILES: c1(c(cc(C)cc1)C)\N=C\N(\C=N\c1c(cc(C)cc1)C)C
InChI: InChI=1S/C19H23N3/c1-14-6-8-18(16(3)10-14)20-12-22(5)13-21-19-9-7-15(2)11-17(19)4/h6-13H,1-5H3
Instrument: LTQ Orbitrap XL Thermo Scientific
Instrument type: LC-ESI-ITFT
Ms type: MS2
Ion mode: POSITIVE
Ionization: ESI
Fragmentation mode: HCD
Collision energy: 75 % (nominal)
Resolution: 7500
Column name: XBridge C18 3.5um, 2.1x50mm, Waters
Retention time: 15.4 min
Base peak: 149.012
Precursor m/z: 294.1965
Precursor type: [M+H]+
m/z	relative intensity	assigned
105.0697	265	C8H9+
107.0729	507	C7H9N+
117.0572	302	C8H7N+
122.0964	999	C8H12N+
132.0807	552	C9H10N+
163.1228	579	C10H15N2+
