Mass spectrum: Linuron; LC-ESI-ITFT; MS2; CE: 35%; R=30000; [M+H]+
Name: Linuron
Name: 3-(3,4-dichlorophenyl)-1-methoxy-1-methyl-urea
Formula: C9H10Cl2N2O2
Exact mass: 248.0114
SMILES: c1(cc(c(Cl)cc1)Cl)NC(N(OC)C)=O
InChI: InChI=1S/C9H10Cl2N2O2/c1-13(15-2)9(14)12-6-3-4-7(10)8(11)5-6/h3-5H,1-2H3,(H,12,14)
Instrument: LTQ Orbitrap XL Thermo Scientific
Instrument type: LC-ESI-ITFT
Ms type: MS2
Ion mode: POSITIVE
Ionization: ESI
Fragmentation mode: CID
Collision energy: 35 % (nominal)
Resolution: 30000
Column name: XBridge C18 3.5um, 2.1x50mm, Waters
Retention time: 10.0 min
Base peak: 249.0194
Precursor m/z: 249.0192
Precursor type: [M+H]+
m/z	relative intensity	assigned
60.0443	14	C2H6NO+
88.0393	9	C3H6NO2+
159.9715	548	C6H4Cl2N+
160.9795	6	C6H5Cl2N+
182.0241	999	C8H7ClN2O+
187.9663	118	C7H4Cl2NO+
216.9928	24	C8H7Cl2N2O+
218.0007	33	C8H8Cl2N2O+
