Mass spectrum: Metsulfuron-methyl; LC-ESI-ITFT; MS2; CE: 60%; R=15000; [M+H]+
Name: Metsulfuron-methyl
Name:  2-[(4-methoxy-6-methyl-s-triazin-2-yl)carbamoylsulfamoyl]benzoic acid methyl ester
Formula: C14H15N5O6S
Exact mass: 381.0743
SMILES: c1(c(cccc1)C(OC)=O)S(NC(Nc1nc(nc(n1)C)OC)=O)(=O)=O
InChI: InChI=1S/C14H15N5O6S/c1-8-15-12(18-14(16-8)25-3)17-13(21)19-26(22,23)10-7-5-4-6-9(10)11(20)24-2/h4-7H,1-3H3,(H2,15,16,17,18,19,21)
Instrument: LTQ Orbitrap XL Thermo Scientific
Instrument type: LC-ESI-ITFT
Ms type: MS2
Ion mode: POSITIVE
Ionization: ESI
Fragmentation mode: HCD
Collision energy: 60 % (nominal)
Resolution: 15000
Column name: XBridge C18 3.5um, 2.1x50mm, Waters
Retention time: 7.1 min
Base peak: 382.0825
Precursor m/z: 382.0816
Precursor type: [M+H]+
m/z	relative intensity	assigned
56.0494	88	C3H6N+
57.0447	14	C2H5N2+
58.0287	35	C2H4NO+
69.0084	38	C2HN2O+
77.0386	54	C6H5+
79.0542	22	C6H7+
83.024	93	C3H3N2O+
90.0338	15	C6H4N+
105.0332	11	C7H5O+
105.0447	11	C6H5N2+
135.044	375	C8H7O2+
141.077	132	C5H9N4O+
146.0236	32	H8N3O4S+
167.0564	999	C6H7N4O2+
184.006	8	C7H6NO3S+
199.0058	93	C8H7O4S+
209.9852	25	C8H4NO4S+
