Mass spectrum: Atraton; LC-ESI-ITFT; MS2; CE: 35%; R=7500; [M+H]+
Name: Atraton
Name: 4-N-ethyl-6-methoxy-2-N-propan-2-yl-1,3,5-triazine-2,4-diamine
Formula: C9H17N5O
Exact mass: 211.1428
SMILES: COc1nc(NCC)nc(NC(C)C)n1
InChI: InChI=1S/C9H17N5O/c1-5-10-7-12-8(11-6(2)3)14-9(13-7)15-4/h6H,5H2,1-4H3,(H2,10,11,12,13,14)
Instrument: LTQ Orbitrap XL Thermo Scientific
Instrument type: LC-ESI-ITFT
Ms type: MS2
Ion mode: POSITIVE
Ionization: ESI
Fragmentation mode: CID
Collision energy: 35 % (nominal)
Resolution: 7500
Column name: XBridge C18 3.5um, 2.1x50mm, Waters
Retention time: 5.7 min
Base peak: 212.1507
Precursor m/z: 212.1506
Precursor type: [M+H]+
m/z	relative intensity	assigned
68.0243	1	C2H2N3+
86.0349	2	C2H4N3O+
96.0555	6	C4H6N3+
100.0509	3	C3H6N3O+
114.0662	16	C4H8N3O+
128.0816	2	C5H10N3O+
138.1028	8	C7H12N3+
142.0725	10	C4H8N5O+
170.1038	999	C6H12N5O+
184.1194	5	C7H14N5O+
212.1513	50	C9H18N5O+
