Mass spectrum: Carbetamide; LC-ESI-ITFT; MS2; CE: 60%; R=15000; [M+H]+
Name: Carbetamide
Name: N-phenylcarbamic acid [1-(ethylamino)-1-oxopropan-2-yl] ester
Formula: C12H16N2O3
Exact mass: 236.1155
SMILES: CCNC(=O)C(C)OC(=O)NC1=CC=CC=C1
InChI: InChI=1S/C12H16N2O3/c1-3-13-11(15)9(2)17-12(16)14-10-7-5-4-6-8-10/h4-9H,3H2,1-2H3,(H,13,15)(H,14,16)
Instrument: LTQ Orbitrap XL Thermo Scientific
Instrument type: LC-ESI-ITFT
Ms type: MS2
Ion mode: POSITIVE
Ionization: ESI
Fragmentation mode: HCD
Collision energy: 60 % (nominal)
Resolution: 15000
Column name: XBridge C18 3.5um, 2.1x50mm, Waters
Retention time: 6.6 min
Base peak: 259.1057
Precursor m/z: 237.1234
Precursor type: [M+H]+
m/z	relative intensity	assigned
55.0177	9	C3H3O+
65.0385	18	C5H5+
72.0443	82	C3H6NO+
72.0808	999	C4H10N+
77.0386	83	C6H5+
92.0495	274	C6H6N+
100.0757	271	C5H10NO+
105.0448	19	C6H5N2+
118.0862	476	C5H12NO2+
120.0444	807	C7H6NO+
