Mass spectrum: Acetochlor ESA; LC-ESI-ITFT; MS2; CE: 35%; R=30000; [M-H]-
Name: Acetochlor ESA
Name: 2-[(Ethoxymethyl)(2-ethyl-6-methylphenyl)amino]-2-oxoethanesulfonic acid
Formula: C14H21NO5S
Exact mass: 315.1140
SMILES: S(=O)(=O)(O)CC(=O)N(-c(c(cc1)C)c(c1)CC)COCC
InChI: InChI=1S/C14H21NO5S/c1-4-12-8-6-7-11(3)14(12)15(10-20-5-2)13(16)9-21(17,18)19/h6-8H,4-5,9-10H2,1-3H3,(H,17,18,19)
Instrument: LTQ Orbitrap XL Thermo Scientific
Instrument type: LC-ESI-ITFT
Ms type: MS2
Ion mode: NEGATIVE
Ionization: ESI
Fragmentation mode: CID
Collision energy: 35 % (nominal)
Resolution: 30000
Column name: XBridge C18 3.5um, 2.1x50mm, Waters
Retention time: 7.7 min
Base peak: 314.1062
Precursor m/z: 314.1068
Precursor type: [M-H]-
m/z	relative intensity	assigned
119.976	15	C2H2NO3S-
120.96	999	C2HO4S-
135.0814	7	C9H11O-
144.0816	36	C10H10N-
146.0973	63	C10H12N-
162.0923	180	C10H12NO-
175.0763	3	C11H11O2-
178.0178	4	C5H8NO4S-
204.1027	12	C12H14NO2-
256.0646	6	C11H14NO4S-
268.0647	6	C12H14NO4S-
