Mass spectrum: Monuron; LC-ESI-ITFT; MS2; CE: 15%; R=7500; [M+H]+
Name: Monuron
Name: 3-(4-chlorophenyl)-1,1-dimethyl-urea
Formula: C9H11ClN2O
Exact mass: 198.0554
SMILES: C(N(C)C)(Nc1ccc(Cl)cc1)=O
InChI: InChI=1S/C9H11ClN2O/c1-12(2)9(13)11-8-5-3-7(10)4-6-8/h3-6H,1-2H3,(H,11,13)
Instrument: LTQ Orbitrap XL Thermo Scientific
Instrument type: LC-ESI-ITFT
Ms type: MS2
Ion mode: POSITIVE
Ionization: ESI
Fragmentation mode: HCD
Collision energy: 15 % (nominal)
Resolution: 7500
Column name: XBridge C18 3.5um, 2.1x50mm, Waters
Retention time: 6.7 min
Base peak: 199.0635
Precursor m/z: 199.0633
Precursor type: [M+H]+
m/z	relative intensity	assigned
72.0443	67	C3H6NO+
199.0634	999	C9H12ClN2O+
