Mass spectrum: Asulam; LC-ESI-ITFT; MS2; CE: 35%; R=7500; [M-H]-
Name: Asulam
Name: N-(4-aminophenyl)sulfonylcarbamic acid methyl ester
Formula: C8H10N2O4S
Exact mass: 230.0356
SMILES: c1(S(NC(OC)=O)(=O)=O)ccc(N)cc1
InChI: InChI=1S/C8H10N2O4S/c1-14-8(11)10-15(12,13)7-4-2-6(9)3-5-7/h2-5H,9H2,1H3,(H,10,11)
Instrument: LTQ Orbitrap XL Thermo Scientific
Instrument type: LC-ESI-ITFT
Ms type: MS2
Ion mode: NEGATIVE
Ionization: ESI
Fragmentation mode: CID
Collision energy: 35 % (nominal)
Resolution: 7500
Column name: XBridge C18 3.5um, 2.1x50mm, Waters
Retention time: 2.4 min
Base peak: 229.0282
Precursor m/z: 229.0289
Precursor type: [M-H]-
m/z	relative intensity	assigned
133.0408	54	C7H5N2O-
197.0029	999	C7H5N2O3S-
