Mass spectrum: N4-Acetylsulfadimethoxine; LC-ESI-ITFT; MS2; CE: 60%; R=15000; [M-H]-
Name: N4-Acetylsulfadimethoxine
Name: N-[4-[(4,6-dimethoxy-2-pyrimidinyl)sulfamoyl]phenyl]acetamide
Formula: C14H16N4O5S
Exact mass: 352.0841
SMILES: C(C)(=O)Nc1ccc(cc1)S(=O)(=O)Nc1nc(cc(n1)OC)OC
InChI: InChI=1S/C14H16N4O5S/c1-9(19)15-10-4-6-11(7-5-10)24(20,21)18-14-16-12(22-2)8-13(17-14)23-3/h4-8H,1-3H3,(H,15,19)(H,16,17,18)
Instrument: LTQ Orbitrap XL Thermo Scientific
Instrument type: LC-ESI-ITFT
Ms type: MS2
Ion mode: NEGATIVE
Ionization: ESI
Fragmentation mode: HCD
Collision energy: 60 % (nominal)
Resolution: 15000
Column name: XBridge C18 3.5um, 2.1x50mm, Waters
Retention time: 6.4 min
Base peak: 351.0773
Precursor m/z: 351.0769
Precursor type: [M-H]-
m/z	relative intensity	assigned
66.0096	655	C2N3-
122.0359	999	C5H4N3O-
134.0607	366	C8H8NO-
154.0618	731	C6H8N3O2-
