Mass spectrum: N,N-Dimethyl-N'-phenylsulfamide; LC-ESI-ITFT; MS2; CE: 35%; R=7500; [M-H]-
Name: N,N-Dimethyl-N'-phenylsulfamide
Name: DMSA
Formula: C8H12N2O2S
Exact mass: 200.0619
SMILES: S(Nc1ccccc1)(N(C)C)(=O)=O
InChI: InChI=1S/C8H12N2O2S/c1-10(2)13(11,12)9-8-6-4-3-5-7-8/h3-7,9H,1-2H3
Instrument: LTQ Orbitrap XL Thermo Scientific
Instrument type: LC-ESI-ITFT
Ms type: MS2
Ion mode: NEGATIVE
Ionization: ESI
Fragmentation mode: CID
Collision energy: 35 % (nominal)
Resolution: 7500
Column name: XBridge C18 3.5um, 2.1x50mm, Waters
Retention time: 6.3 min
Base peak: 174.9563
Precursor m/z: 199.0547
Precursor type: [M-H]-
m/z	relative intensity	assigned
79.9576	17	O3S-
91.043	73	C6H5N-
155.005	999	C6H5NO2S-
156.0131	40	C6H6NO2S-
