Mass spectrum: Dimethenamid OXA; LC-ESI-ITFT; MS2; CE: 15%; R=15000; [M-H]-
Name: Dimethenamid OXA
Name: [(2,4-dimethylthiophen-3-yl)(1-methoxypropan-2-yl)amino](oxo)acetic acid
Formula: C12H17NO4S
Exact mass: 271.0878
SMILES: S(C=C1C)C(C)=C1N(C(=O)C(=O)O)C(COC)C
InChI: InChI=1S/C12H17NO4S/c1-7-6-18-9(3)10(7)13(8(2)5-17-4)11(14)12(15)16/h6,8H,5H2,1-4H3,(H,15,16)
Instrument: LTQ Orbitrap XL Thermo Scientific
Instrument type: LC-ESI-ITFT
Ms type: MS2
Ion mode: NEGATIVE
Ionization: ESI
Fragmentation mode: HCD
Collision energy: 15 % (nominal)
Resolution: 15000
Column name: XBridge C18 3.5um, 2.1x50mm, Waters
Retention time: 7.2 min
Base peak: 270.0801
Precursor m/z: 270.0806
Precursor type: [M-H]-
m/z	relative intensity	assigned
124.0228	6	C6H6NS-
166.0695	168	C9H12NS-
198.0958	999	C10H16NOS-
270.0803	114	C12H16NO4S-
