Mass spectrum: Atrazine-2-hydroxy; LC-ESI-ITFT; MS2; CE: 30%; R=7500; [M+H]+
Name: Atrazine-2-hydroxy
Name: 2-Hydroxyatrazine
Name: 2-(ethylamino)-6-(isopropylamino)-1H-s-triazin-4-one
Formula: C8H15N5O
Exact mass: 197.1277
SMILES: c1(nc(nc(n1)O)NCC)NC(C)C
InChI: InChI=1S/C8H15N5O/c1-4-9-6-11-7(10-5(2)3)13-8(14)12-6/h5H,4H2,1-3H3,(H3,9,10,11,12,13,14)
Instrument: LTQ Orbitrap XL Thermo Scientific
Instrument type: LC-ESI-ITFT
Ms type: MS2
Ion mode: POSITIVE
Ionization: ESI
Fragmentation mode: HCD
Collision energy: 30 % (nominal)
Resolution: 7500
Column name: XBridge C18 3.5um, 2.1x50mm, Waters
Retention time: 4.4 min
Base peak: 198.1353
Precursor m/z: 198.1349
Precursor type: [M+H]+
m/z	relative intensity	assigned
86.0345	1	C2H4N3O+
114.0662	3	C4H8N3O+
128.082	2	C5H10N3O+
156.0882	56	C5H10N5O+
198.135	999	C8H16N5O+
