Mass spectrum: Paracetamol; LC-ESI-ITFT; MS2; CE: 45%; R=15000; [M-H]-
Name: Paracetamol
Name: Acetaminophen
Name: N-(4-hydroxyphenyl)acetamide
Formula: C8H9NO2
Exact mass: 151.0633
SMILES: CC(=O)NC1=CC=C(O)C=C1
InChI: InChI=1S/C8H9NO2/c1-6(10)9-7-2-4-8(11)5-3-7/h2-5,11H,1H3,(H,9,10)
Instrument: LTQ Orbitrap XL Thermo Scientific
Instrument type: LC-ESI-ITFT
Ms type: MS2
Ion mode: NEGATIVE
Ionization: ESI
Fragmentation mode: HCD
Collision energy: 45 % (nominal)
Resolution: 15000
Column name: XBridge C18 3.5um, 2.1x50mm, Waters
Retention time: 2.2 min
Base peak: 174.9559
Precursor m/z: 150.0561
Precursor type: [M-H]-
m/z	relative intensity	assigned
107.0374	200	C6H5NO-
150.0559	999	C8H8NO2-
