Mass spectrum: DEET; LC-ESI-ITFT; MS2; CE: 15%; R=15000; [M+H]+
Name: DEET
Name: N,N-Diethyl-m-toluamide
Name: N,N-diethyl-3-methyl-benzamide
Formula: C12H17NO
Exact mass: 191.1305
SMILES: c1(C(N(CC)CC)=O)cc(C)ccc1
InChI: InChI=1S/C12H17NO/c1-4-13(5-2)12(14)11-8-6-7-10(3)9-11/h6-9H,4-5H2,1-3H3
Instrument: LTQ Orbitrap XL Thermo Scientific
Instrument type: LC-ESI-ITFT
Ms type: MS2
Ion mode: POSITIVE
Ionization: ESI
Fragmentation mode: HCD
Collision energy: 15 % (nominal)
Resolution: 15000
Column name: XBridge C18 3.5um, 2.1x50mm, Waters
Retention time: 8.6 min
Base peak: 192.1386
Precursor m/z: 192.1383
Precursor type: [M+H]+
m/z	relative intensity	assigned
119.0491	18	C8H7O+
176.1072	1	C11H14NO+
192.1385	999	C12H18NO+
