Mass spectrum: Diclofenac; LC-ESI-ITFT; MS2; CE: 35%; R=30000; [M+H]+
Name: Diclofenac
Name: 2-[2-(2,6-dichloroanilino)phenyl]acetic acid
Formula: C14H11Cl2NO2
Exact mass: 295.0167
SMILES: c1c(c(ccc1)Nc1c(cccc1Cl)Cl)CC(=O)O
InChI: InChI=1S/C14H11Cl2NO2/c15-10-5-3-6-11(16)14(10)17-12-7-2-1-4-9(12)8-13(18)19/h1-7,17H,8H2,(H,18,19)
Instrument: LTQ Orbitrap XL Thermo Scientific
Instrument type: LC-ESI-ITFT
Ms type: MS2
Ion mode: POSITIVE
Ionization: ESI
Fragmentation mode: CID
Collision energy: 35 % (nominal)
Resolution: 30000
Column name: XBridge C18 3.5um, 2.1x50mm, Waters
Retention time: 12.8 min
Base peak: 318.0069
Precursor m/z: 296.024
Precursor type: [M+H]+
m/z	relative intensity	assigned
214.0414	5	C13H9ClN+
215.0493	11	C13H10ClN+
250.0182	139	C13H10Cl2N+
278.0135	999	C14H10Cl2NO+
