Mass spectrum: N4-Acetylsulfadiazine; LC-ESI-ITFT; MS2; CE: 90%; R=7500; [M-H]-
Name: N4-Acetylsulfadiazine
Name: N-[4-(2-pyrimidinylsulfamoyl)phenyl]acetamide
Formula: C12H12N4O3S
Exact mass: 292.0630
SMILES: c1nc(NS(c2ccc(cc2)NC(C)=O)(=O)=O)ncc1
InChI: InChI=1S/C12H12N4O3S/c1-9(17)15-10-3-5-11(6-4-10)20(18,19)16-12-13-7-2-8-14-12/h2-8H,1H3,(H,15,17)(H,13,14,16)
Instrument: LTQ Orbitrap XL Thermo Scientific
Instrument type: LC-ESI-ITFT
Ms type: MS2
Ion mode: NEGATIVE
Ionization: ESI
Fragmentation mode: HCD
Collision energy: 90 % (nominal)
Resolution: 7500
Column name: XBridge C18 3.5um, 2.1x50mm, Waters
Retention time: 3.8 min
Base peak: 291.0567
Precursor m/z: 291.0557
Precursor type: [M-H]-
m/z	relative intensity	assigned
92.0254	999	C4H2N3-
94.0408	268	C4H4N3-
134.0616	321	C8H8NO-
184.0759	241	C10H8N4-
