Mass spectrum: Mefenamic acid; LC-ESI-ITFT; MS2; CE: 90%; R=30000; [M+H]+
Name: Mefenamic acid
Name: 2-(2,3-dimethylanilino)benzoic acid
Formula: C15H15NO2
Exact mass: 241.1103
SMILES: c1(c(cccc1)C(O)=O)Nc1c(c(ccc1)C)C
InChI: InChI=1S/C15H15NO2/c1-10-6-5-9-13(11(10)2)16-14-8-4-3-7-12(14)15(17)18/h3-9,16H,1-2H3,(H,17,18)
Instrument: LTQ Orbitrap XL Thermo Scientific
Instrument type: LC-ESI-ITFT
Ms type: MS2
Ion mode: POSITIVE
Ionization: ESI
Fragmentation mode: HCD
Collision energy: 90 % (nominal)
Resolution: 30000
Column name: XBridge C18 3.5um, 2.1x50mm, Waters
Retention time: 14.5 min
Base peak: 242.1182
Precursor m/z: 242.1176
Precursor type: [M+H]+
m/z	relative intensity	assigned
154.0651	4	C11H8N+
155.0731	4	C11H9N+
166.0651	6	C12H8N+
167.073	8	C12H9N+
179.073	32	C13H9N+
180.0809	673	C13H10N+
181.0885	152	C13H11N+
182.0599	10	C12H8NO+
183.0677	33	C12H9NO+
191.073	4	C14H9N+
192.0806	3	C14H10N+
193.0887	6	C14H11N+
194.0599	8	C13H8NO+
194.0964	40	C14H12N+
195.0679	7	C13H9NO+
195.1005	1	C9H13N3O2+
196.0755	12	C13H10NO+
204.0807	5	C15H10N+
207.0679	10	C14H9NO+
208.0758	537	C14H10NO+
209.0836	999	C14H11NO+
211.0623	3	C13H9NO2+
222.0913	55	C15H12NO+
223.0989	25	C15H13NO+
224.1069	154	C15H14NO+
