Mass spectrum: Metazachlor; LC-ESI-ITFT; MS2; CE: 35%; R=30000; [M+H]+
Name: Metazachlor
Name: 2-chloranyl-N-(2,6-dimethylphenyl)-N-(pyrazol-1-ylmethyl)ethanamide
Formula: C14H16ClN3O
Exact mass: 277.0976
SMILES: N(c1c(cccc1C)C)(Cn1cccn1)C(CCl)=O
InChI: InChI=1S/C14H16ClN3O/c1-11-5-3-6-12(2)14(11)18(13(19)9-15)10-17-8-4-7-16-17/h3-8H,9-10H2,1-2H3
Instrument: LTQ Orbitrap XL Thermo Scientific
Instrument type: LC-ESI-ITFT
Ms type: MS2
Ion mode: POSITIVE
Ionization: ESI
Fragmentation mode: CID
Collision energy: 35 % (nominal)
Resolution: 30000
Column name: XBridge C18 3.5um, 2.1x50mm, Waters
Retention time: 8.5 min
Base peak: 278.106
Precursor m/z: 278.1055
Precursor type: [M+H]+
m/z	relative intensity	assigned
134.0964	95	C9H12N+
210.0681	999	C11H13ClNO+
