Mass spectrum: Diuron; LC-ESI-ITFT; MS2; CE: 30%; R=7500; [M+H]+
Name: Diuron
Name: 3-(3,4-dichlorophenyl)-1,1-dimethyl-urea
Formula: C9H10Cl2N2O
Exact mass: 232.0165
SMILES: c1(c(ccc(c1)NC(N(C)C)=O)Cl)Cl
InChI: InChI=1S/C9H10Cl2N2O/c1-13(2)9(14)12-6-3-4-7(10)8(11)5-6/h3-5H,1-2H3,(H,12,14)
Instrument: LTQ Orbitrap XL Thermo Scientific
Instrument type: LC-ESI-ITFT
Ms type: MS2
Ion mode: POSITIVE
Ionization: ESI
Fragmentation mode: HCD
Collision energy: 30 % (nominal)
Resolution: 7500
Column name: XBridge C18 3.5um, 2.1x50mm, Waters
Retention time: 8.9 min
Base peak: 233.0247
Precursor m/z: 233.0243
Precursor type: [M+H]+
m/z	relative intensity	assigned
72.0444	436	C3H6NO+
159.972	3	C6H4Cl2N+
187.9659	7	C7H4Cl2NO+
233.0245	999	C9H11Cl2N2O+
