Mass spectrum: Sulfamethoxazole; LC-ESI-ITFT; MS2; CE: 15%; R=15000; [M-H]-
Name: Sulfamethoxazole
Name: 4-Amino-N-(5-methyl-3-isoxazolyl)benzenesulfonamide
Name: 4-amino-N-(5-methyl-1,2-oxazol-3-yl)benzenesulfonamide
Formula: C10H11N3O3S
Exact mass: 253.0521
SMILES: c1(S(Nc2cc(C)on2)(=O)=O)ccc(N)cc1
InChI: InChI=1S/C10H11N3O3S/c1-7-6-10(12-16-7)13-17(14,15)9-4-2-8(11)3-5-9/h2-6H,11H2,1H3,(H,12,13)
Instrument: LTQ Orbitrap XL Thermo Scientific
Instrument type: LC-ESI-ITFT
Ms type: MS2
Ion mode: NEGATIVE
Ionization: ESI
Fragmentation mode: HCD
Collision energy: 15 % (nominal)
Resolution: 15000
Column name: XBridge C18 3.5um, 2.1x50mm, Waters
Retention time: 4.5 min
Base peak: 252.044
Precursor m/z: 252.0448
Precursor type: [M-H]-
m/z	relative intensity	assigned
156.0122	298	C6H6NO2S-
252.0447	999	C10H10N3O3S-
