Mass spectrum: Diuron-desdimethyl; LC-ESI-ITFT; MS2; CE: 30%; R=15000; [M+H]+
Name: Diuron-desdimethyl
Name: Urea, (3,4-dichlorophenyl)-
Name: (3,4-dichlorophenyl)urea
Formula: C7H6Cl2N2O
Exact mass: 203.9857
SMILES: c1(cc(c(Cl)cc1)Cl)NC(N)=O
InChI: InChI=1S/C7H6Cl2N2O/c8-5-2-1-4(3-6(5)9)11-7(10)12/h1-3H,(H3,10,11,12)
Instrument: LTQ Orbitrap XL Thermo Scientific
Instrument type: LC-ESI-ITFT
Ms type: MS2
Ion mode: POSITIVE
Ionization: ESI
Fragmentation mode: HCD
Collision energy: 30 % (nominal)
Resolution: 15000
Column name: XBridge C18 3.5um, 2.1x50mm, Waters
Retention time: 8.3 min
Base peak: 204.9933
Precursor m/z: 204.993
Precursor type: [M+H]+
m/z	relative intensity	assigned
127.0184	40	C6H6ClN+
159.9717	13	C6H4Cl2N+
161.9873	327	C6H6Cl2N+
187.9666	41	C7H4Cl2NO+
204.9931	999	C7H7Cl2N2O+
