Mass spectrum: Norfloxacin; LC-ESI-ITFT; MS2; CE: 30%; R=15000; [M+H]+
Name: Norfloxacin
Name: 1-ethyl-6-fluoro-4-oxo-7-piperazin-1-yl-1,4-dihydroquinoline-3-carboxylic acid
Formula: C16H18FN3O3
Exact mass: 319.1332
SMILES: CCN1C=C(C(O)=O)C(=O)C2=CC(F)=C(C=C12)N3CCNCC3
InChI: InChI=1S/C16H18FN3O3/c1-2-19-9-11(16(22)23)15(21)10-7-12(17)14(8-13(10)19)20-5-3-18-4-6-20/h7-9,18H,2-6H2,1H3,(H,22,23)
Instrument: LTQ Orbitrap XL Thermo Scientific
Instrument type: LC-ESI-ITFT
Ms type: MS2
Ion mode: POSITIVE
Ionization: ESI
Fragmentation mode: HCD
Collision energy: 30 % (nominal)
Resolution: 15000
Column name: XBridge C18 3.5um, 2.1x50mm, Waters
Retention time: 4.4 min
Base peak: 320.1415
Precursor m/z: 320.1405
Precursor type: [M+H]+
m/z	relative intensity	assigned
70.0652	1	C4H8N+
207.0933	1	C11H12FN2O+
219.0929	9	C12H12FN2O+
228.1128	1	C13H14N3O+
233.1086	94	C13H14FN2O+
256.1446	32	C12H19FN3O2+
259.1248	1	C15H16FN2O+
274.135	7	C15H17FN3O+
276.1509	636	C15H19FN3O+
302.1301	826	C16H17FN3O2+
320.1406	999	C16H19FN3O3+
