Mass spectrum: Mesotrione; LC-ESI-ITFT; MS2; CE: 60%; R=7500; [M-H]-
Name: Mesotrione
Name: 2-[4-(methanesulfonyl)-2-nitrobenzoyl]cyclohexane-1,3-dione
Formula: C14H13NO7S
Exact mass: 339.0407
SMILES: C1(C(C(CCC1)=O)C(c1c(cc(cc1)S(=O)(=O)C)[N+](=O)[O-])=O)=O
InChI: InChI=1S/C14H13NO7S/c1-23(21,22)8-5-6-9(10(7-8)15(19)20)14(18)13-11(16)3-2-4-12(13)17/h5-7,13H,2-4H2,1H3
Instrument: LTQ Orbitrap XL Thermo Scientific
Instrument type: LC-ESI-ITFT
Ms type: MS2
Ion mode: NEGATIVE
Ionization: ESI
Fragmentation mode: HCD
Collision energy: 60 % (nominal)
Resolution: 7500
Column name: XBridge C18 3.5um, 2.1x50mm, Waters
Retention time: 6.2 min
Base peak: 291.0322
Precursor m/z: 338.034
Precursor type: [M-H]-
m/z	relative intensity	assigned
215.0342	999	C12H7O4-
