Mass spectrum: Diuron-desmethyl; LC-ESI-ITFT; MS2; CE: 75%; R=7500; [M+H]+
Name: Diuron-desmethyl
Name: DCPMU
Name: 1-(3,4-dichlorophenyl)-3-methyl-urea
Formula: C8H8Cl2N2O
Exact mass: 218.0014
SMILES: c1(cc(c(Cl)cc1)Cl)NC(NC)=O
InChI: InChI=1S/C8H8Cl2N2O/c1-11-8(13)12-5-2-3-6(9)7(10)4-5/h2-4H,1H3,(H2,11,12,13)
Instrument: LTQ Orbitrap XL Thermo Scientific
Instrument type: LC-ESI-ITFT
Ms type: MS2
Ion mode: POSITIVE
Ionization: ESI
Fragmentation mode: HCD
Collision energy: 75 % (nominal)
Resolution: 7500
Column name: XBridge C18 3.5um, 2.1x50mm, Waters
Retention time: 8.5 min
Base peak: 245.0789
Precursor m/z: 219.0086
Precursor type: [M+H]+
m/z	relative intensity	assigned
58.0287	41	C2H4NO+
98.9995	2	C5H4Cl+
125.0023	4	C6H4ClN+
126.0106	4	C6H5ClN+
127.0184	999	C6H6ClN+
132.9605	7	C5H3Cl2+
159.9716	39	C6H4Cl2N+
161.9871	113	C6H6Cl2N+
172.9668	8	C6H3Cl2N2+
