Mass spectrum: Indomethacin; LC-ESI-ITFT; MS2; CE: 35%; R=30000; [M+H]+
Name: Indomethacin
Name: 2-[1-(4-chlorobenzoyl)-5-methoxy-2-methyl-indol-3-yl]acetic acid
Formula: C19H16ClNO4
Exact mass: 357.0768
SMILES: COC1=CC2=C(C=C1)N(C(=O)C3=CC=C(Cl)C=C3)C(C)=C2CC(O)=O
InChI: InChI=1S/C19H16ClNO4/c1-11-15(10-18(22)23)16-9-14(25-2)7-8-17(16)21(11)19(24)12-3-5-13(20)6-4-12/h3-9H,10H2,1-2H3,(H,22,23)
Instrument: LTQ Orbitrap XL Thermo Scientific
Instrument type: LC-ESI-ITFT
Ms type: MS2
Ion mode: POSITIVE
Ionization: ESI
Fragmentation mode: CID
Collision energy: 35 % (nominal)
Resolution: 30000
Column name: XBridge C18 3.5um, 2.1x50mm, Waters
Retention time: 12.9 min
Base peak: 358.0852
Precursor m/z: 358.0841
Precursor type: [M+H]+
m/z	relative intensity	assigned
86.9997	4	C4H4Cl+
110.9996	24	C6H4Cl+
129.0103	1	C6H6ClO+
130.0651	1	C9H8N+
131.073	6	C9H9N+
138.9946	283	C7H4ClO+
139.0058	31	C9HNO+
159.0679	25	C10H9NO+
174.0914	999	C11H12NO+
202.0863	20	C12H12NO2+
312.0785	62	C18H15ClNO2+
340.0731	1	C19H15ClNO3+
