Mass spectrum: Terbutylazine-2-hydroxy; LC-ESI-ITFT; MS2; CE: 35%; R=7500; [M-H]-
Name: Terbutylazine-2-hydroxy
Name: 4-(Ethylamino)-6-[(2-methyl-2-propanyl)amino]-1,3,5-triazin-2(5H)-one
Formula: C9H17N5O
Exact mass: 211.1433
SMILES: CCNC1=NC(O)=NC(NC(C)(C)C)=N1
InChI: InChI=1S/C9H17N5O/c1-5-10-6-11-7(13-8(15)12-6)14-9(2,3)4/h5H2,1-4H3,(H3,10,11,12,13,14,15)
Instrument: LTQ Orbitrap XL Thermo Scientific
Instrument type: LC-ESI-ITFT
Ms type: MS2
Ion mode: NEGATIVE
Ionization: ESI
Fragmentation mode: CID
Collision energy: 35 % (nominal)
Resolution: 7500
Column name: XBridge C18 3.5um, 2.1x50mm, Waters
Retention time: 5.4 min
Base peak: 210.1367
Precursor m/z: 210.136
Precursor type: [M-H]-
m/z	relative intensity	assigned
69.0459	19	C3H5N2-
81.046	6	C4H5N2-
97.0773	377	C5H9N2-
111.0678	57	C4H7N4-
139.099	68	C6H11N4-
154.0737	999	C5H8N5O-
182.1047	50	C7H12N5O-
210.1361	238	C9H16N5O-
