Mass spectrum: Fenofibric acid; LC-ESI-ITFT; MS2; CE: 45%; R=7500; [M-H]-
Name: Fenofibric acid
Name: 2-[4-(4-chlorobenzoyl)phenoxy]-2-methyl-propionic acid
Formula: C17H15ClO4
Exact mass: 318.0659
SMILES: c1cc(C(=O)c2ccc(cc2)OC(C(=O)O)(C)C)ccc1Cl
InChI: InChI=1S/C17H15ClO4/c1-17(2,16(20)21)22-14-9-5-12(6-10-14)15(19)11-3-7-13(18)8-4-11/h3-10H,1-2H3,(H,20,21)
Instrument: LTQ Orbitrap XL Thermo Scientific
Instrument type: LC-ESI-ITFT
Ms type: MS2
Ion mode: NEGATIVE
Ionization: ESI
Fragmentation mode: HCD
Collision energy: 45 % (nominal)
Resolution: 7500
Column name: XBridge C18 3.5um, 2.1x50mm, Waters
Retention time: 12.7 min
Base peak: 317.0591
Precursor m/z: 317.0586
Precursor type: [M-H]-
m/z	relative intensity	assigned
231.0216	999	C13H8ClO2-
