Mass spectrum: N,N-Dimethylsulfamide; LC-ESI-ITFT; MS2; CE: 90%; R=7500; [M+H]+
Name: N,N-Dimethylsulfamide
Name: [methyl(sulfamoyl)amino]methane
Name: MAS
Formula: C2H8N2O2S
Exact mass: 124.0306
SMILES: S(=O)(=O)(N)N(C)C
InChI: InChI=1S/C2H8N2O2S/c1-4(2)7(3,5)6/h1-2H3,(H2,3,5,6)
Instrument: LTQ Orbitrap XL Thermo Scientific
Instrument type: LC-ESI-ITFT
Ms type: MS2
Ion mode: POSITIVE
Ionization: ESI
Fragmentation mode: HCD
Collision energy: 90 % (nominal)
Resolution: 7500
Column name: XBridge C18 3.5um, 2.1x50mm, Waters
Retention time: 1.1 min
Base peak: 125.0377
Precursor m/z: 125.0379
Precursor type: [M+H]+
m/z	relative intensity	assigned
79.98	571	H2NO2S+
108.0113	999	C2H6NO2S+
