Mass spectrum: Isoproturon-monodemethyl; LC-ESI-ITFT; MS2; CE: 35%; R=30000; [M-H]-
Name: Isoproturon-monodemethyl
Name: 1-(4-Isoprophenyl)-3-methylurea
Formula: C11H16N2O
Exact mass: 192.1263
SMILES: N(C(=O)Nc1ccc(cc1)C(C)C)C
InChI: InChI=1S/C11H16N2O/c1-8(2)9-4-6-10(7-5-9)13-11(14)12-3/h4-8H,1-3H3,(H2,12,13,14)
Instrument: LTQ Orbitrap XL Thermo Scientific
Instrument type: LC-ESI-ITFT
Ms type: MS2
Ion mode: NEGATIVE
Ionization: ESI
Fragmentation mode: CID
Collision energy: 35 % (nominal)
Resolution: 30000
Column name: XBridge C18 3.5um, 2.1x50mm, Waters
Retention time: 8.8 min
Base peak: 237.1243
Precursor m/z: 191.119
Precursor type: [M-H]-
m/z	relative intensity	assigned
134.0977	999	C9H12N-
