Mass spectrum: N,N-Dimethyl-N'-p-tolylsulphamide; LC-ESI-ITFT; MS2; CE: 15%; R=7500; [M+H]+
Name: N,N-Dimethyl-N'-p-tolylsulphamide
Name: 1-(dimethylsulfamoylamino)-4-methyl-benzene
Formula: C9H14N2O2S
Exact mass: 214.0776
SMILES: O=S(=O)(Nc1ccc(C)cc1)N(C)C
InChI: InChI=1S/C9H14N2O2S/c1-8-4-6-9(7-5-8)10-14(12,13)11(2)3/h4-7,10H,1-3H3
Instrument: LTQ Orbitrap XL Thermo Scientific
Instrument type: LC-ESI-ITFT
Ms type: MS2
Ion mode: POSITIVE
Ionization: ESI
Fragmentation mode: HCD
Collision energy: 15 % (nominal)
Resolution: 7500
Column name: XBridge C18 3.5um, 2.1x50mm, Waters
Retention time: 7.5 min
Base peak: 237.0675
Precursor m/z: 215.0849
Precursor type: [M+H]+
m/z	relative intensity	assigned
77.0385	7	C6H5+
79.0543	54	C6H7+
106.0652	999	C7H8N+
107.0729	79	C7H9N+
108.0808	25	C7H10N+
136.0994	10	C8H12N2+
151.123	631	C9H15N2+
215.0848	755	C9H15N2O2S+
