Mass spectrum: N'-(2,4-Dimethylphenyl)-N-methylformamidine; LC-ESI-ITFT; MS2; CE: 45%; R=15000; [M+H]+
Name: N'-(2,4-Dimethylphenyl)-N-methylformamidine
Name: Methanimidamide, N-(2,4-dimethylphenyl)-N'-methyl-
Name: N-(2,4-dimethylphenyl)-N'-methyl-formamidine
Formula: C10H14N2
Exact mass: 162.1157
SMILES: C(=NC)Nc1c(cc(cc1)C)C
InChI: InChI=1S/C10H14N2/c1-8-4-5-10(9(2)6-8)12-7-11-3/h4-7H,1-3H3,(H,11,12)
Instrument: LTQ Orbitrap XL Thermo Scientific
Instrument type: LC-ESI-ITFT
Ms type: MS2
Ion mode: POSITIVE
Ionization: ESI
Fragmentation mode: HCD
Collision energy: 45 % (nominal)
Resolution: 15000
Column name: XBridge C18 3.5um, 2.1x50mm, Waters
Retention time: 4.5 min
Base peak: 163.1229
Precursor m/z: 163.123
Precursor type: [M+H]+
m/z	relative intensity	assigned
105.0699	3	C8H9+
107.073	6	C7H9N+
117.0574	8	C8H7N+
120.0807	7	C8H10N+
122.0964	177	C8H12N+
132.0807	94	C9H10N+
163.123	999	C10H15N2+
