Mass spectrum: Metolachlor ESA; LC-ESI-ITFT; MS2; CE: 45%; R=15000; [M-H]-
Name: Metolachlor ESA
Name: 2-[(2-Ethyl-6-methylphenyl)(1-methoxy-2-propanyl)amino]-2-oxoethanesulfonic acid
Formula: C15H23NO5S
Exact mass: 329.1297
SMILES: O=S(O)(CC(N(C(C)COC)C1=C(CC)C=CC=C1C)=O)=O
InChI: InChI=1S/C15H23NO5S/c1-5-13-8-6-7-11(2)15(13)16(12(3)9-21-4)14(17)10-22(18,19)20/h6-8,12H,5,9-10H2,1-4H3,(H,18,19,20)
Instrument: LTQ Orbitrap XL Thermo Scientific
Instrument type: LC-ESI-ITFT
Ms type: MS2
Ion mode: NEGATIVE
Ionization: ESI
Fragmentation mode: HCD
Collision energy: 45 % (nominal)
Resolution: 15000
Column name: XBridge C18 3.5um, 2.1x50mm, Waters
Retention time: 7.8 min
Base peak: 328.1225
Precursor m/z: 328.1224
Precursor type: [M-H]-
m/z	relative intensity	assigned
76.9703	133	CHO2S-
79.9574	999	O3S-
118.9684	52	C2HNO3S-
119.9762	76	C2H2NO3S-
120.9602	371	C2HO4S-
135.0817	117	C9H11O-
174.1288	17	C12H16N-
192.0337	56	C6H10NO4S-
256.0661	29	C11H14NO4S-
328.1225	398	C15H22NO5S-
