Mass spectrum: 2-Naphthalenesulfonic acid; LC-ESI-ITFT; MS2; CE: 60%; R=15000; [M-H]-
Name: 2-Naphthalenesulfonic acid
Name:  2-naphthalenesulfonic acid
Formula: C10H8O3S
Exact mass: 208.0194
SMILES: OS(C1=CC2=C(C=CC=C2)C=C1)(=O)=O
InChI: InChI=1S/C10H8O3S/c11-14(12,13)10-6-5-8-3-1-2-4-9(8)7-10/h1-7H,(H,11,12,13)
Instrument: LTQ Orbitrap XL Thermo Scientific
Instrument type: LC-ESI-ITFT
Ms type: MS2
Ion mode: NEGATIVE
Ionization: ESI
Fragmentation mode: HCD
Collision energy: 60 % (nominal)
Resolution: 15000
Column name: XBridge C18 3.5um, 2.1x50mm, Waters
Retention time: 5.3 min
Base peak: 207.0127
Precursor m/z: 207.0121
Precursor type: [M-H]-
m/z	relative intensity	assigned
79.9574	150	O3S-
143.0502	749	C10H7O-
207.0121	999	C10H7O3S-
