Mass spectrum: Propachlor ESA; LC-ESI-ITFT; MS2; CE: 15%; R=15000; [M+H]+
Name: Propachlor ESA
Name: 2-[Isopropyl(phenyl)amino]-2-oxoethanesulfonic acid
Formula: C11H15NO4S
Exact mass: 257.0722
SMILES: O=S(=O)(O)CC(=O)N(c1ccccc1)C(C)C
InChI: InChI=1S/C11H15NO4S/c1-9(2)12(10-6-4-3-5-7-10)11(13)8-17(14,15)16/h3-7,9H,8H2,1-2H3,(H,14,15,16)
Instrument: LTQ Orbitrap XL Thermo Scientific
Instrument type: LC-ESI-ITFT
Ms type: MS2
Ion mode: POSITIVE
Ionization: ESI
Fragmentation mode: HCD
Collision energy: 15 % (nominal)
Resolution: 15000
Column name: XBridge C18 3.5um, 2.1x50mm, Waters
Retention time: 5.9 min
Base peak: 258.0802
Precursor m/z: 258.0795
Precursor type: [M+H]+
m/z	relative intensity	assigned
94.0655	9	C6H8N+
136.0756	6	C8H10NO+
198.0219	9	C8H8NO3S+
216.0326	364	C8H10NO4S+
258.0796	999	C11H16NO4S+
