Mass spectrum: 2-Naphthalenesulfonic acid; LC-ESI-ITFT; MS2; CE: 75%; R=15000; [M+H]+
Name: 2-Naphthalenesulfonic acid
Name:  2-naphthalenesulfonic acid
Formula: C10H8O3S
Exact mass: 208.0194
SMILES: OS(C1=CC2=C(C=CC=C2)C=C1)(=O)=O
InChI: InChI=1S/C10H8O3S/c11-14(12,13)10-6-5-8-3-1-2-4-9(8)7-10/h1-7H,(H,11,12,13)
Instrument: LTQ Orbitrap XL Thermo Scientific
Instrument type: LC-ESI-ITFT
Ms type: MS2
Ion mode: POSITIVE
Ionization: ESI
Fragmentation mode: HCD
Collision energy: 75 % (nominal)
Resolution: 15000
Column name: XBridge C18 3.5um, 2.1x50mm, Waters
Retention time: 5.2 min
Base peak: 149.0023
Precursor m/z: 209.0267
Precursor type: [M+H]+
m/z	relative intensity	assigned
103.0542	32	C8H7+
116.0621	4	C9H8+
127.0542	37	C10H7+
128.062	999	C10H8+
144.0572	10	C10H8O+
145.0648	32	C10H9O+
155.0603	229	C10H7N2+
195.9898	6	C10N2O3+
