Mass spectrum: 2-Naphthalenesulfonic acid; LC-ESI-ITFT; MS2; CE: 90%; R=15000; [M+H]+
Name: 2-Naphthalenesulfonic acid
Name:  2-naphthalenesulfonic acid
Formula: C10H8O3S
Exact mass: 208.0194
SMILES: OS(C1=CC2=C(C=CC=C2)C=C1)(=O)=O
InChI: InChI=1S/C10H8O3S/c11-14(12,13)10-6-5-8-3-1-2-4-9(8)7-10/h1-7H,(H,11,12,13)
Instrument: LTQ Orbitrap XL Thermo Scientific
Instrument type: LC-ESI-ITFT
Ms type: MS2
Ion mode: POSITIVE
Ionization: ESI
Fragmentation mode: HCD
Collision energy: 90 % (nominal)
Resolution: 15000
Column name: XBridge C18 3.5um, 2.1x50mm, Waters
Retention time: 5.2 min
Base peak: 149.0023
Precursor m/z: 209.0267
Precursor type: [M+H]+
m/z	relative intensity	assigned
102.046	5	C8H6+
103.0541	29	C8H7+
115.0541	13	C9H7+
126.0462	13	C10H6+
127.0542	93	C10H7+
128.0619	999	C10H8+
145.0646	38	C10H9O+
155.0602	252	C10H7N2+
