Mass spectrum: Sebuthylazine; LC-ESI-ITFT; MS2; CE: 75%; R=7500; [M+H]+
Name: Sebuthylazine
Name: 2-N-butan-2-yl-6-chloro-4-N-ethyl-1,3,5-triazine-2,4-diamine
Formula: C9H16ClN5
Exact mass: 229.1094
SMILES: n1c(nc(Cl)nc1NCC)NC(CC)C
InChI: InChI=1S/C9H16ClN5/c1-4-6(3)12-9-14-7(10)13-8(15-9)11-5-2/h6H,4-5H2,1-3H3,(H2,11,12,13,14,15)
Instrument: LTQ Orbitrap XL Thermo Scientific
Instrument type: LC-ESI-ITFT
Ms type: MS2
Ion mode: POSITIVE
Ionization: ESI
Fragmentation mode: HCD
Collision energy: 75 % (nominal)
Resolution: 7500
Column name: XBridge C18 3.5um, 2.1x50mm, Waters
Retention time: 9.8 min
Base peak: 230.1171
Precursor m/z: 230.1167
Precursor type: [M+H]+
m/z	relative intensity	assigned
61.9791	48	CHClN+
68.0243	874	C2H2N3+
71.0603	185	C3H7N2+
79.0058	523	CH4ClN2+
96.0556	663	C4H6N3+
104.001	999	C2H3ClN3+
110.0459	72	C3H4N5+
132.0323	504	C4H7ClN3+
138.0774	170	C5H8N5+
146.0227	522	C3H5ClN5+
174.054	958	C5H9ClN5+
