Mass spectrum: Propachlor OXA; LC-ESI-ITFT; MS2; CE: 60%; R=15000; [M+H]+
Name: Propachlor OXA
Name: N-(1-Methylethyl)-N-(phenyl)oxalamic acid
Name: 2-(N-isopropylanilino)-2-keto-acetic acid
Formula: C11H13NO3
Exact mass: 207.0895
SMILES: CC(C)N(C(=O)C(O)=O)c1ccccc1
InChI: InChI=1S/C11H13NO3/c1-8(2)12(10(13)11(14)15)9-6-4-3-5-7-9/h3-8H,1-2H3,(H,14,15)
Instrument: LTQ Orbitrap XL Thermo Scientific
Instrument type: LC-ESI-ITFT
Ms type: MS2
Ion mode: POSITIVE
Ionization: ESI
Fragmentation mode: HCD
Collision energy: 60 % (nominal)
Resolution: 15000
Column name: XBridge C18 3.5um, 2.1x50mm, Waters
Retention time: 5.6 min
Base peak: 208.0971
Precursor m/z: 208.0968
Precursor type: [M+H]+
m/z	relative intensity	assigned
65.0386	31	C5H5+
77.0385	160	C6H5+
92.0494	679	C6H6N+
105.0447	56	C6H5N2+
120.0443	999	C7H6NO+
