Mass spectrum: Simeton; LC-ESI-ITFT; MS2; CE: 30%; R=15000; [M+H]+
Name: Simeton
Name: 2-N,4-N-diethyl-6-methoxy-1,3,5-triazine-2,4-diamine
Formula: C8H15N5O
Exact mass: 197.1271
SMILES: c1(nc(nc(n1)OC)NCC)NCC
InChI: InChI=1S/C8H15N5O/c1-4-9-6-11-7(10-5-2)13-8(12-6)14-3/h4-5H2,1-3H3,(H2,9,10,11,12,13)
Instrument: LTQ Orbitrap XL Thermo Scientific
Instrument type: LC-ESI-ITFT
Ms type: MS2
Ion mode: POSITIVE
Ionization: ESI
Fragmentation mode: HCD
Collision energy: 30 % (nominal)
Resolution: 15000
Column name: XBridge C18 3.5um, 2.1x50mm, Waters
Retention time: 4.9 min
Base peak: 198.1352
Precursor m/z: 198.1349
Precursor type: [M+H]+
m/z	relative intensity	assigned
114.0663	2	C4H8N3O+
124.087	3	C6H10N3+
128.082	2	C5H10N3O+
170.1036	2	C6H12N5O+
183.1106	1	C7H13N5O+
198.135	999	C8H16N5O+
