Mass spectrum: Secbumeton; LC-ESI-ITFT; MS2; CE: 45%; R=7500; [M+H]+
Name: Secbumeton
Name: 2-N-butan-2-yl-4-N-ethyl-6-methoxy-1,3,5-triazine-2,4-diamine
Formula: C10H19N5O
Exact mass: 225.1590
SMILES: c1(nc(nc(n1)OC)NCC)NC(CC)C
InChI: InChI=1S/C10H19N5O/c1-5-7(3)12-9-13-8(11-6-2)14-10(15-9)16-4/h7H,5-6H2,1-4H3,(H2,11,12,13,14,15)
Instrument: LTQ Orbitrap XL Thermo Scientific
Instrument type: LC-ESI-ITFT
Ms type: MS2
Ion mode: POSITIVE
Ionization: ESI
Fragmentation mode: HCD
Collision energy: 45 % (nominal)
Resolution: 7500
Column name: XBridge C18 3.5um, 2.1x50mm, Waters
Retention time: 6.7 min
Base peak: 226.1668
Precursor m/z: 226.1662
Precursor type: [M+H]+
m/z	relative intensity	assigned
57.0446	3	C2H5N2+
68.0243	15	C2H2N3+
69.0083	3	C2HN2O+
75.0554	9	C2H7N2O+
85.0759	4	C4H9N2+
86.0351	2	C2H4N3O+
96.0556	28	C4H6N3+
97.0396	2	C4H5N2O+
100.0505	33	C3H6N3O+
114.0663	25	C4H8N3O+
128.082	14	C5H10N3O+
142.0724	33	C4H8N5O+
152.1181	2	C8H14N3+
170.1038	985	C6H12N5O+
198.1352	2	C8H16N5O+
226.1662	999	C10H20N5O+
