Mass spectrum: Diglyme; LC-ESI-ITFT; MS2; CE: 15%; R=7500; [M+H]+
Name: Diglyme
Name: Diethylene glycol dimethyl ether
Name: 1-methoxy-2-(2-methoxyethoxy)ethane
Formula: C6H14O3
Exact mass: 134.0943
SMILES: COCCOCCOC
InChI: InChI=1S/C6H14O3/c1-7-3-5-9-6-4-8-2/h3-6H2,1-2H3
Instrument: LTQ Orbitrap XL Thermo Scientific
Instrument type: LC-ESI-ITFT
Ms type: MS2
Ion mode: POSITIVE
Ionization: ESI
Fragmentation mode: HCD
Collision energy: 15 % (nominal)
Resolution: 7500
Column name: XBridge C18 3.5um, 2.1x50mm, Waters
Retention time: 3.2 min
Base peak: 135.1011
Precursor m/z: 135.1016
Precursor type: [M+H]+
m/z	relative intensity	assigned
59.0491	376	C3H7O+
103.0752	999	C5H11O2+
135.1012	242	C6H15O3+
