Mass spectrum: Terbutylazine-desethyl-2-hydroxy; LC-ESI-ITFT; MS2; CE: 60%; R=15000; [M+H]+
Name: Terbutylazine-desethyl-2-hydroxy
Name: 1,3,5-Triazin-2(1H)-one, 4-amino-6-((1,1-dimethylethyl)amino)-
Name: 2-amino-6-(tert-butylamino)-1H-1,3,5-triazin-4-one
Formula: C7H13N5O
Exact mass: 183.1120
SMILES: Nc1nc(NC(C)(C)C)nc(O)n1
InChI: InChI=1S/C7H13N5O/c1-7(2,3)12-5-9-4(8)10-6(13)11-5/h1-3H3,(H4,8,9,10,11,12,13)
Instrument: LTQ Orbitrap XL Thermo Scientific
Instrument type: LC-ESI-ITFT
Ms type: MS2
Ion mode: POSITIVE
Ionization: ESI
Fragmentation mode: HCD
Collision energy: 60 % (nominal)
Resolution: 15000
Column name: XBridge C18 3.5um, 2.1x50mm, Waters
Retention time: 2.9 min
Base peak: 184.1188
Precursor m/z: 184.1193
Precursor type: [M+H]+
m/z	relative intensity	assigned
57.0698	9	C4H9+
69.0082	2	C2HN2O+
85.0508	11	C2H5N4+
86.0348	162	C2H4N3O+
110.046	1	C3H4N5+
128.0565	999	C3H6N5O+
184.1191	4	C7H14N5O+
