Mass spectrum: Sucralose; LC-ESI-ITFT; MS2; CE: 15%; R=7500; [M-H]-
Name: Sucralose
Name: 1,6-Dichloro-1,6-dideoxy-beta-D-fructofuranosyl 4-chloro-4-deoxy-alpha-D-galactopyranoside
Name: (2R,3R,4R,5R,6R)-2-[(2R,3S,4S,5S)-2,5-bis(chloromethyl)-3,4-bis(oxidanyl)oxolan-2-yl]oxy-5-chloranyl-6-(hydroxymethyl)oxane-3,4-diol
Formula: C12H19Cl3O8
Exact mass: 396.0146
SMILES: C(C1C(C(C(C(O1)OC2(C(C(C(O2)CCl)O)O)CCl)O)O)Cl)O
InChI: InChI=1S/C12H19Cl3O8/c13-1-4-7(17)10(20)12(3-14,22-4)23-11-9(19)8(18)6(15)5(2-16)21-11/h4-11,16-20H,1-3H2/t4-,5-,6+,7-,8+,9-,10+,11-,12+/m1/s1
Instrument: LTQ Orbitrap XL Thermo Scientific
Instrument type: LC-ESI-ITFT
Ms type: MS2
Ion mode: NEGATIVE
Ionization: ESI
Fragmentation mode: HCD
Collision energy: 15 % (nominal)
Resolution: 7500
Column name: XBridge C18 3.5um, 2.1x50mm, Waters
Retention time: 4.4 min
Base peak: 441.0117
Precursor m/z: 395.0073
Precursor type: [M-H]-
m/z	relative intensity	assigned
395.0071	999	C12H18Cl3O8-
