Mass spectrum: Dimethachlor; LC-ESI-ITFT; MS2; CE: 35%; R=7500; [M+H]+
Name: Dimethachlor
Name: 2-chloranyl-N-(2,6-dimethylphenyl)-N-(2-methoxyethyl)ethanamide
Formula: C13H18ClNO2
Exact mass: 255.1021
SMILES: Cc1cccc(C)c1N(CCOC)C(=O)CCl
InChI: InChI=1S/C13H18ClNO2/c1-10-5-4-6-11(2)13(10)15(7-8-17-3)12(16)9-14/h4-6H,7-9H2,1-3H3
Instrument: LTQ Orbitrap XL Thermo Scientific
Instrument type: LC-ESI-ITFT
Ms type: MS2
Ion mode: POSITIVE
Ionization: ESI
Fragmentation mode: CID
Collision energy: 35 % (nominal)
Resolution: 7500
Column name: XBridge C18 3.5um, 2.1x50mm, Waters
Retention time: 9.1 min
Base peak: 256.1106
Precursor m/z: 256.1099
Precursor type: [M+H]+
m/z	relative intensity	assigned
224.084	999	C12H15ClNO+
