Mass spectrum: Metazachlor OXA; LC-ESI-ITFT; MS2; CE: 35%; R=30000; [M+H]+
Name: Metazachlor OXA
Name: 2-[2,6-dimethyl-N-(pyrazol-1-ylmethyl)anilino]-2-oxo-acetic acid
Formula: C14H15N3O3
Exact mass: 273.1113
SMILES: Cc1cccc(c1N(Cn2cccn2)C(=O)C(=O)O)C
InChI: InChI=1S/C14H15N3O3/c1-10-5-3-6-11(2)12(10)17(13(18)14(19)20)9-16-8-4-7-15-16/h3-8H,9H2,1-2H3,(H,19,20)
Instrument: LTQ Orbitrap XL Thermo Scientific
Instrument type: LC-ESI-ITFT
Ms type: MS2
Ion mode: POSITIVE
Ionization: ESI
Fragmentation mode: CID
Collision energy: 35 % (nominal)
Resolution: 30000
Column name: XBridge C18 3.5um, 2.1x50mm, Waters
Retention time: 5.5 min
Base peak: 274.1193
Precursor m/z: 274.1186
Precursor type: [M+H]+
m/z	relative intensity	assigned
134.0965	913	C9H12N+
162.0914	999	C10H12NO+
206.0808	26	C11H12NO3+
230.1287	238	C13H16N3O+
