Mass spectrum: Carbamazepine-10,11-epoxide; LC-ESI-ITFT; MS2; CE: 90%; R=7500; [M+H]+
Name: Carbamazepine-10,11-epoxide
Name: 1a,10b-Dihydro-6H-dibenz(b,f)oxiren(d)azepine-6-carboxamide
Formula: C15H12N2O2
Exact mass: 252.0899
SMILES: NC(=O)N2c1ccccc1C4OC4c3ccccc23
InChI: InChI=1S/C15H12N2O2/c16-15(18)17-11-7-3-1-5-9(11)13-14(19-13)10-6-2-4-8-12(10)17/h1-8,13-14H,(H2,16,18)
Instrument: LTQ Orbitrap XL Thermo Scientific
Instrument type: LC-ESI-ITFT
Ms type: MS2
Ion mode: POSITIVE
Ionization: ESI
Fragmentation mode: HCD
Collision energy: 90 % (nominal)
Resolution: 7500
Column name: XBridge C18 3.5um, 2.1x50mm, Waters
Retention time: 6.3 min
Base peak: 275.08
Precursor m/z: 253.0972
Precursor type: [M+H]+
m/z	relative intensity	assigned
152.0621	22	C12H8+
153.0702	6	C12H9+
165.0701	20	C13H9+
167.0732	140	C12H9N+
179.0729	35	C13H9N+
180.081	999	C13H10N+
181.0889	7	C13H11N+
182.0966	72	C13H12N+
193.0892	17	C14H11N+
