Mass spectrum: N-Desmethylvenlafaxine; LC-ESI-ITFT; MS2; CE: 35%; R=30000; [M+H]+
Name: N-Desmethylvenlafaxine
Name: 1-[1-(4-methoxyphenyl)-2-(methylamino)ethyl]-1-cyclohexanol
Formula: C16H25NO2
Exact mass: 263.1885
SMILES: CNCC(C1=CC=C(C=C1)OC)C2(CCCCC2)O
InChI: InChI=1S/C16H25NO2/c1-17-12-15(16(18)10-4-3-5-11-16)13-6-8-14(19-2)9-7-13/h6-9,15,17-18H,3-5,10-12H2,1-2H3
Instrument: LTQ Orbitrap XL Thermo Scientific
Instrument type: LC-ESI-ITFT
Ms type: MS2
Ion mode: POSITIVE
Ionization: ESI
Fragmentation mode: CID
Collision energy: 35 % (nominal)
Resolution: 30000
Column name: XBridge C18 3.5um, 2.1x50mm, Waters
Retention time: 6.3 min
Base peak: 264.1967
Precursor m/z: 264.1958
Precursor type: [M+H]+
m/z	relative intensity	assigned
121.0649	1	C8H9O+
215.1429	18	C15H19O+
246.1853	999	C16H24NO+
