Mass spectrum: Valsartan; LC-ESI-ITFT; MS2; CE: 60%; R=7500; [M-H]-
Name: Valsartan
Name:  (2S)-3-methyl-2-[1-oxopentyl-[[4-[2-(2H-tetrazol-5-yl)phenyl]phenyl]methyl]amino]butanoic acid
Formula: C24H29N5O3
Exact mass: 435.2270
SMILES: CCCCC(=O)N(CC1=CC=C(C=C1)C2=C(C=CC=C2)C3=NN=NN3)[C@@H](C(C)C)C(O)=O
InChI: InChI=1S/C24H29N5O3/c1-4-5-10-21(30)29(22(16(2)3)24(31)32)15-17-11-13-18(14-12-17)19-8-6-7-9-20(19)23-25-27-28-26-23/h6-9,11-14,16,22H,4-5,10,15H2,1-3H3,(H,31,32)(H,25,26,27,28)/t22-/m0/s1
Instrument: LTQ Orbitrap XL Thermo Scientific
Instrument type: LC-ESI-ITFT
Ms type: MS2
Ion mode: NEGATIVE
Ionization: ESI
Fragmentation mode: HCD
Collision energy: 60 % (nominal)
Resolution: 7500
Column name: XBridge C18 3.5um, 2.1x50mm, Waters
Retention time: 11.0 min
Base peak: 434.2193
Precursor m/z: 434.2198
Precursor type: [M-H]-
m/z	relative intensity	assigned
116.0721	154	C5H10NO2-
156.1398	108	C9H18NO-
178.0793	170	C14H10-
179.0868	999	C14H11-
193.066	120	C14H9O-
206.0855	78	C14H10N2-
207.093	92	C14H11N2-
