Mass spectrum: 5-Fluorouracil; LC-ESI-ITFT; MS2; CE: 75%; R=7500; [M+H]+
Name: 5-Fluorouracil
Name: 5-fluoranyl-1H-pyrimidine-2,4-dione
Formula: C4H3FN2O2
Exact mass: 130.0179
SMILES: FC1=CNC(=O)NC1=O
InChI: InChI=1S/C4H3FN2O2/c5-2-1-6-4(9)7-3(2)8/h1H,(H2,6,7,8,9)
Instrument: LTQ Orbitrap XL Thermo Scientific
Instrument type: LC-ESI-ITFT
Ms type: MS2
Ion mode: POSITIVE
Ionization: ESI
Fragmentation mode: HCD
Collision energy: 75 % (nominal)
Resolution: 7500
Column name: XBridge C18 3.5um, 2.1x50mm, Waters
Retention time: 1.0 min
Base peak: 132.9578
Precursor m/z: 131.0251
Precursor type: [M+H]+
m/z	relative intensity	assigned
58.0087	46	C2HFN+
60.0244	6	C2H3FN+
84.9597	162	
88.0193	52	C3H3FNO+
113.0145	13	C4H2FN2O+
113.9985	999	C4HFNO2+
131.025	196	C4H4FN2O2+
