Mass spectrum: Dimethachlor OXA; LC-ESI-ITFT; MS2; CE: 60%; R=7500; [M-H]-
Name: Dimethachlor OXA
Name: 2-[(2,6-dimethylphenyl)(2-methoxyethyl)amino]-2-oxo-acetic acid
Formula: C13H17NO4
Exact mass: 251.1158
SMILES: Cc1cccc(C)c1N(CCOC)C(=O)C(O)=O
InChI: InChI=1S/C13H17NO4/c1-9-5-4-6-10(2)11(9)14(7-8-18-3)12(15)13(16)17/h4-6H,7-8H2,1-3H3,(H,16,17)
Instrument: LTQ Orbitrap XL Thermo Scientific
Instrument type: LC-ESI-ITFT
Ms type: MS2
Ion mode: NEGATIVE
Ionization: ESI
Fragmentation mode: HCD
Collision energy: 60 % (nominal)
Resolution: 7500
Column name: XBridge C18 3.5um, 2.1x50mm, Waters
Retention time: 6.3 min
Base peak: 250.1081
Precursor m/z: 250.1085
Precursor type: [M-H]-
m/z	relative intensity	assigned
120.0821	149	C8H10N-
130.0662	999	C9H8N-
142.0656	110	C10H8N-
144.0818	444	C10H10N-
146.0971	102	C10H12N-
178.1238	156	C11H16NO-
