Mass spectrum: Diazepam; LC-ESI-ITFT; MS2; CE: 35%; R=30000; [M+H]+
Name: Diazepam
Name: 7-chloranyl-1-methyl-5-phenyl-3H-1,4-benzodiazepin-2-one
Formula: C16H13ClN2O
Exact mass: 284.0716
SMILES: CN1C2=C(C=C(Cl)C=C2)C(=NCC1=O)C3=CC=CC=C3
InChI: InChI=1S/C16H13ClN2O/c1-19-14-8-7-12(17)9-13(14)16(18-10-15(19)20)11-5-3-2-4-6-11/h2-9H,10H2,1H3
Instrument: LTQ Orbitrap XL Thermo Scientific
Instrument type: LC-ESI-ITFT
Ms type: MS2
Ion mode: POSITIVE
Ionization: ESI
Fragmentation mode: CID
Collision energy: 35 % (nominal)
Resolution: 30000
Column name: XBridge C18 3.5um, 2.1x50mm, Waters
Retention time: 10.1 min
Base peak: 285.0798
Precursor m/z: 285.0789
Precursor type: [M+H]+
m/z	relative intensity	assigned
91.0543	5	C7H7+
104.0494	3	C7H6N+
105.0335	131	C7H5O+
118.0651	3	C8H8N+
141.034	4	C7H8ClN+
147.0678	13	C9H9NO+
152.0262	3	C8H7ClN+
154.0419	443	C8H9ClN+
167.0133	36	C8H6ClNO+
172.0631	8	C10H8N2O+
179.037	17	C9H8ClN2+
180.0211	37	C9H7ClNO+
182.0367	297	C9H9ClNO+
193.0885	78	C14H11N+
204.0805	4	C15H10N+
207.0318	4	C10H8ClN2O+
216.0575	4	C13H11ClN+
220.0993	17	C15H12N2+
221.1072	55	C15H13N2+
222.1152	374	C15H14N2+
227.0497	7	C14H10ClN+
228.0575	311	C14H11ClN+
230.0729	6	C14H13ClN+
243.0683	4	C14H12ClN2+
255.0683	16	C15H12ClN2+
256.0759	7	C15H13ClN2+
257.0842	999	C15H14ClN2+
