Mass spectrum: Gemcitabine; LC-ESI-ITFT; MS2; CE: 30%; R=7500; [M+H]+
Name: Gemcitabine
Name: 2'-deoxy-2',2'-difluorocytidine
Name: 4-amino-1-[(2R,4R,5R)-3,3-difluoro-4-hydroxy-5-(hydroxymethyl)-2-oxolanyl]-2-pyrimidinone
Formula: C9H11F2N3O4
Exact mass: 263.0718
SMILES: NC1=NC(=O)N(C=C1)[C@@H]2O[C@H](CO)[C@@H](O)C2(F)F
InChI: InChI=1S/C9H11F2N3O4/c10-9(11)6(16)4(3-15)18-7(9)14-2-1-5(12)13-8(14)17/h1-2,4,6-7,15-16H,3H2,(H2,12,13,17)/t4-,6-,7-/m1/s1
Instrument: LTQ Orbitrap XL Thermo Scientific
Instrument type: LC-ESI-ITFT
Ms type: MS2
Ion mode: POSITIVE
Ionization: ESI
Fragmentation mode: HCD
Collision energy: 30 % (nominal)
Resolution: 7500
Column name: XBridge C18 3.5um, 2.1x50mm, Waters
Retention time: 1.0 min
Base peak: 264.0797
Precursor m/z: 264.079
Precursor type: [M+H]+
m/z	relative intensity	assigned
59.0292	4	C3H4F+
79.0353	3	C3H5F2+
87.0241	19	C4H4FO+
95.0239	2	C4H3N2O+
107.0302	9	C4H5F2O+
112.0507	999	C4H6N3O+
135.0254	4	C5H5F2O2+
190.0803	2	C9H12F2O2+
264.0789	382	C9H12F2N3O4+
