Mass spectrum: N,N-Didesmethylvenlafaxine; LC-ESI-ITFT; MS2; CE: 30%; R=7500; [M+H]+
Name: N,N-Didesmethylvenlafaxine
Name: 1-[2-Amino-1-(4-methoxyphenyl)ethyl]cyclohexanol
Formula: C15H23NO2
Exact mass: 249.1729
SMILES: OC2(C(c1ccc(OC)cc1)CN)CCCCC2
InChI: InChI=1S/C15H23NO2/c1-18-13-7-5-12(6-8-13)14(11-16)15(17)9-3-2-4-10-15/h5-8,14,17H,2-4,9-11,16H2,1H3
Instrument: LTQ Orbitrap XL Thermo Scientific
Instrument type: LC-ESI-ITFT
Ms type: MS2
Ion mode: POSITIVE
Ionization: ESI
Fragmentation mode: HCD
Collision energy: 30 % (nominal)
Resolution: 7500
Column name: XBridge C18 3.5um, 2.1x50mm, Waters
Retention time: 6.3 min
Base peak: 250.1814
Precursor m/z: 250.1802
Precursor type: [M+H]+
m/z	relative intensity	assigned
79.0543	6	C6H7+
81.0698	4	C6H9+
91.0541	9	C7H7+
93.0698	9	C7H9+
107.0856	9	C8H11+
121.0649	254	C8H9O+
124.1124	11	C8H14N+
135.0808	6	C9H11O+
147.0805	121	C10H11O+
159.0807	26	C11H11O+
173.0962	32	C12H13O+
201.1278	11	C14H17O+
203.143	45	C14H19O+
215.1432	999	C15H19O+
232.1695	109	C15H22NO+
