Mass spectrum: Fipronil-sulfone; LC-ESI-ITFT; MS2; CE: 60%; R=7500; [M-H]-
Name: Fipronil-sulfone
Name: 5-amino-1-[2,6-dichloro-4-(trifluoromethyl)phenyl]-4-(trifluoromethylsulfonyl)-3-pyrazolecarbonitrile
Formula: C12H4Cl2F6N4O2S
Exact mass: 451.9336
SMILES: NC1=C(C(=NN1c1c(Cl)cc(cc1Cl)C(F)(F)F)C#N)S(=O)(=O)C(F)(F)F
InChI: InChI=1S/C12H4Cl2F6N4O2S/c13-5-1-4(11(15,16)17)2-6(14)8(5)24-10(22)9(7(3-21)23-24)27(25,26)12(18,19)20/h1-2H,22H2
Instrument: LTQ Orbitrap XL Thermo Scientific
Instrument type: LC-ESI-ITFT
Ms type: MS2
Ion mode: NEGATIVE
Ionization: ESI
Fragmentation mode: HCD
Collision energy: 60 % (nominal)
Resolution: 7500
Column name: XBridge C18 3.5um, 2.1x50mm, Waters
Retention time: 13.5 min
Base peak: 450.9265
Precursor m/z: 450.9263
Precursor type: [M-H]-
m/z	relative intensity	assigned
82.961	97	FO2S-
218.0102	469	C11HF3N2-
243.9898	999	C9H2ClF3N3-
246.0164	208	C11HF3N4-
261.9876	72	C8H2ClF3N4O-
281.9927	152	C11H2ClF3N4-
