Mass spectrum: Moclobemide; LC-ESI-ITFT; MS2; CE: 90%; R=30000; [M+H]+
Name: Moclobemide
Name: 4-chloranyl-N-(2-morpholin-4-ylethyl)benzamide
Formula: C13H17ClN2O2
Exact mass: 268.0979
SMILES: Cl-c(ccc1C(=O)NCCN(CCO2)CC2)cc1
InChI: InChI=1S/C13H17ClN2O2/c14-12-3-1-11(2-4-12)13(17)15-5-6-16-7-9-18-10-8-16/h1-4H,5-10H2,(H,15,17)
Instrument: LTQ Orbitrap XL Thermo Scientific
Instrument type: LC-ESI-ITFT
Ms type: MS2
Ion mode: POSITIVE
Ionization: ESI
Fragmentation mode: HCD
Collision energy: 90 % (nominal)
Resolution: 30000
Column name: XBridge C18 3.5um, 2.1x50mm, Waters
Retention time: 4.5 min
Base peak: 269.1062
Precursor m/z: 269.1051
Precursor type: [M+H]+
m/z	relative intensity	assigned
50.0151	1	C4H2+
70.0652	7	C4H8N+
75.0229	1	C6H3+
79.0178	2	C5H3O+
84.0808	1	C5H10N+
86.9997	19	C4H4Cl+
88.0757	1	C4H10NO+
93.0335	2	C3H8ClN+
110.9996	21	C6H4Cl+
114.0914	8	C6H12NO+
129.0102	12	C6H6ClO+
138.9947	999	C7H4ClO+
139.0058	240	C6H4ClN2+
182.0368	114	C9H9ClNO+
