Mass spectrum: Hydrochlorothiazide; LC-ESI-ITFT; MS2; CE: 35%; R=7500; [M-H]-
Name: Hydrochlorothiazide
Name: 6-Chloro-3,4-dihydro-2H-1,2,4-benzothiadiazine-7-sulfonamide 1,1-dioxide
Name: 6-chloranyl-1,1-bis(oxidanylidene)-3,4-dihydro-2H-1$l^{6},2,4-benzothiadiazine-7-sulfonamide
Formula: C7H8ClN3O4S2
Exact mass: 296.9645
SMILES: NS(=O)(=O)C1=CC2=C(NCNS2(=O)=O)C=C1Cl
InChI: InChI=1S/C7H8ClN3O4S2/c8-4-1-5-7(2-6(4)16(9,12)13)17(14,15)11-3-10-5/h1-2,10-11H,3H2,(H2,9,12,13)
Instrument: LTQ Orbitrap XL Thermo Scientific
Instrument type: LC-ESI-ITFT
Ms type: MS2
Ion mode: NEGATIVE
Ionization: ESI
Fragmentation mode: CID
Collision energy: 35 % (nominal)
Resolution: 7500
Column name: XBridge C18 3.5um, 2.1x50mm, Waters
Retention time: 2.2 min
Base peak: 295.9563
Precursor m/z: 295.9572
Precursor type: [M-H]-
m/z	relative intensity	assigned
189.9742	2	C6H5ClNO2S-
196.0183	4	C7H6N3O2S-
204.9846	356	C6H6ClN2O2S-
214.9692	13	C7H4ClN2O2S-
216.9844	13	C7H6ClN2O2S-
231.9952	68	C7H7ClN3O2S-
268.9464	999	C6H6ClN2O4S2-
