Mass spectrum: Furosemide; LC-ESI-ITFT; MS2; CE: 30%; R=7500; [M-H]-
Name: Furosemide
Name: Frusemide
Name:  4-chloranyl-2-(furan-2-ylmethylamino)-5-sulfamoyl-benzoic acid
Formula: C12H11ClN2O5S
Exact mass: 330.0077
SMILES: NS(=O)(=O)c2cc(c(NCc1ccco1)cc2Cl)C(=O)O
InChI: InChI=1S/C12H11ClN2O5S/c13-9-5-10(15-6-7-2-1-3-20-7)8(12(16)17)4-11(9)21(14,18)19/h1-5,15H,6H2,(H,16,17)(H2,14,18,19)
Instrument: LTQ Orbitrap XL Thermo Scientific
Instrument type: LC-ESI-ITFT
Ms type: MS2
Ion mode: NEGATIVE
Ionization: ESI
Fragmentation mode: HCD
Collision energy: 30 % (nominal)
Resolution: 7500
Column name: XBridge C18 3.5um, 2.1x50mm, Waters
Retention time: 6.6 min
Base peak: 329.0001
Precursor m/z: 329.0004
Precursor type: [M-H]-
m/z	relative intensity	assigned
77.9656	22	NO2S-
185.0729	8	C11H9N2O-
204.9846	356	C6H6ClN2O2S-
206.0384	23	C11H9ClNO-
249.0335	26	C11H9N2O3S-
285.0109	999	C11H10ClN2O3S-
329.0007	56	C12H10ClN2O5S-
