Mass spectrum: 8:2 fluorotelomer unsaturated carboxylic acid; LC-ESI-ITFT; MS2; CE: 30%; R=7500; [M-H]-
Name: 8:2 fluorotelomer unsaturated carboxylic acid
Name: (2Z)-3,4,4,5,5,6,6,7,7,8,8,9,9,10,10,10-Hexadecafluoro-2-decenoic acid
Formula: C10H2F16O2
Exact mass: 457.9799
SMILES: FC(F)(C(/F)=C/C(O)=O)C(F)(F)C(F)(F)C(F)(F)C(F)(F)C(F)(F)C(F)(F)F
InChI: InChI=1S/C10H2F16O2/c11-2(1-3(27)28)4(12,13)5(14,15)6(16,17)7(18,19)8(20,21)9(22,23)10(24,25)26/h1H,(H,27,28)/b2-1-
Instrument: LTQ Orbitrap XL Thermo Scientific
Instrument type: LC-ESI-ITFT
Ms type: MS2
Ion mode: NEGATIVE
Ionization: ESI
Fragmentation mode: HCD
Collision energy: 30 % (nominal)
Resolution: 7500
Column name: XBridge C18 3.5um, 2.1x50mm, Waters
Retention time: 16.1 min
Base peak: 456.9748
Precursor m/z: 456.9727
Precursor type: [M-H]-
m/z	relative intensity	assigned
392.9764	999	C9F15-
