Mass spectrum: Pirimicarb; LC-ESI-ITFT; MS2; CE: 75%; R=15000; [M+H]+
Name: Pirimicarb
Name: N,N-dimethylcarbamic acid [2-(dimethylamino)-5,6-dimethyl-4-pyrimidinyl] ester
Formula: C11H18N4O2
Exact mass: 238.1430
SMILES: n(c(c(C)c1OC(=O)N(C)C)C)c(n1)N(C)C
InChI: InChI=1S/C11H18N4O2/c1-7-8(2)12-10(14(3)4)13-9(7)17-11(16)15(5)6/h1-6H3
Instrument: LTQ Orbitrap XL Thermo Scientific
Instrument type: LC-ESI-ITFT
Ms type: MS2
Ion mode: POSITIVE
Ionization: ESI
Fragmentation mode: HCD
Collision energy: 75 % (nominal)
Resolution: 15000
Column name: XBridge C18 3.5um, 2.1x50mm, Waters
Retention time: 5.0 min
Base peak: 239.1506
Precursor m/z: 239.1503
Precursor type: [M+H]+
m/z	relative intensity	assigned
56.0131	1	C2H2NO+
58.0652	2	C3H8N+
71.0605	1	C3H7N2+
72.0445	999	C3H6NO+
83.0241	23	C3H3N2O+
85.0761	105	C4H9N2+
109.0761	89	C6H9N2+
124.0631	7	C6H8N2O+
137.071	45	C7H9N2O+
138.0788	43	C7H10N2O+
139.0867	2	C7H11N2O+
150.1027	28	C8H12N3+
152.0818	24	C7H10N3O+
156.0526	3	C6H8N2O3+
166.0974	2	C8H12N3O+
167.1053	20	C8H13N3O+
180.1125	3	C9H14N3O+
182.129	97	C9H16N3O+
