Mass spectrum: Perfluorohexanoic acid; LC-ESI-ITFT; MS2; CE: 45%; R=7500; [M-H]-
Name: Perfluorohexanoic acid
Name:  2,2,3,3,4,4,5,5,6,6,6-undecafluorohexanoic acid
Formula: C6HF11O2
Exact mass: 313.9801
SMILES: O=C(O)C(F)(F)C(F)(F)C(F)(F)C(F)(F)C(F)(F)F
InChI: InChI=1S/C6HF11O2/c7-2(8,1(18)19)3(9,10)4(11,12)5(13,14)6(15,16)17/h(H,18,19)
Instrument: LTQ Orbitrap XL Thermo Scientific
Instrument type: LC-ESI-ITFT
Ms type: MS2
Ion mode: NEGATIVE
Ionization: ESI
Fragmentation mode: HCD
Collision energy: 45 % (nominal)
Resolution: 7500
Column name: XBridge C18 3.5um, 2.1x50mm, Waters
Retention time: 9.3 min
Base peak: 312.9732
Precursor m/z: 312.9728
Precursor type: [M-H]-
m/z	relative intensity	assigned
118.9921	999	C2F5-
