Mass spectrum: Morphine; LC-ESI-ITFT; MS2; CE: 15%; R=15000; [M+H]+
Name: Morphine
Name: (5alpha,6alpha)-17-Methyl-7,8-didehydro-4,5-epoxymorphinan-3,6-diol
Formula: C17H19NO3
Exact mass: 285.1365
SMILES: CN1CC[C@]23c4c5ccc(c4O[C@H]2[C@H](C=C[C@H]3[C@H]1C5)O)O
InChI: InChI=1S/C17H19NO3/c1-18-7-6-17-10-3-5-13(20)16(17)21-15-12(19)4-2-9(14(15)17)8-11(10)18/h2-5,10-11,13,16,19-20H,6-8H2,1H3/t10-,11+,13-,16-,17-/m0/s1
Instrument: LTQ Orbitrap XL Thermo Scientific
Instrument type: LC-ESI-ITFT
Ms type: MS2
Ion mode: POSITIVE
Ionization: ESI
Fragmentation mode: HCD
Collision energy: 15 % (nominal)
Resolution: 15000
Column name: XBridge C18 3.5um, 2.1x50mm, Waters
Retention time: 1.1 min
Base peak: 286.1448
Precursor m/z: 286.1438
Precursor type: [M+H]+
m/z	relative intensity	assigned
286.144	999	C17H20NO3+
