Mass spectrum: Acesulfame; LC-ESI-ITFT; MS2; CE: 45%; R=15000; [M-H]-
Name: Acesulfame
Name: 2,2-diketo-6-methyl-oxathiazin-4-one
Formula: C4H5NO4S
Exact mass: 162.9939
SMILES: S1(NC(C=C(O1)C)=O)(=O)=O
InChI: InChI=1S/C4H5NO4S/c1-3-2-4(6)5-10(7,8)9-3/h2H,1H3,(H,5,6)
Instrument: LTQ Orbitrap XL Thermo Scientific
Instrument type: LC-ESI-ITFT
Ms type: MS2
Ion mode: NEGATIVE
Ionization: ESI
Fragmentation mode: HCD
Collision energy: 45 % (nominal)
Resolution: 15000
Column name: XBridge C18 3.5um, 2.1x50mm, Waters
Retention time: 1.5 min
Base peak: 161.9869
Precursor m/z: 161.9867
Precursor type: [M-H]-
m/z	relative intensity	assigned
70.0298	9	C3H4NO-
77.9655	52	NO2S-
82.0299	999	C4H4NO-
98.0247	4	C4H4NO2-
161.9866	215	C4H4NO4S-
