Mass spectrum: Foramsulfuron; LC-ESI-ITFT; MS2; CE: 45%; R=15000; [M+H]+
Name: Foramsulfuron
Name: 2-[(4,6-dimethoxypyrimidin-2-yl)carbamoylsulfamoyl]-4-formamido-N,N-dimethyl-benzamide
Formula: C17H20N6O7S
Exact mass: 452.1114
SMILES: O=C(Nc1nc(OC)cc(OC)n1)NS(=O)(=O)c2cc(NC=O)ccc2C(=O)N(C)C
InChI: InChI=1S/C17H20N6O7S/c1-23(2)15(25)11-6-5-10(18-9-24)7-12(11)31(27,28)22-17(26)21-16-19-13(29-3)8-14(20-16)30-4/h5-9H,1-4H3,(H,18,24)(H2,19,20,21,22,26)
Instrument: LTQ Orbitrap XL Thermo Scientific
Instrument type: LC-ESI-ITFT
Ms type: MS2
Ion mode: POSITIVE
Ionization: ESI
Fragmentation mode: HCD
Collision energy: 45 % (nominal)
Resolution: 15000
Column name: XBridge C18 3.5um, 2.1x50mm, Waters
Retention time: 7.8 min
Base peak: 475.1014
Precursor m/z: 453.1187
Precursor type: [M+H]+
m/z	relative intensity	assigned
83.0239	27	C3H3N2O+
139.05	17	C6H7N2O2+
156.0767	66	C6H10N3O2+
157.0607	25	C6H9N2O3+
182.056	999	C7H8N3O3+
212.0011	21	C8H6NO4S+
227.012	66	C8H7N2O4S+
252.9912	33	C9H5N2O5S+
255.0432	131	C10H11N2O4S+
