Mass spectrum: Perfluorononanoic acid; LC-ESI-ITFT; MS2; CE: 35%; R=7500; [M-H]-
Name: Perfluorononanoic acid
Name: Nonanoic acid, heptadecafluoro-
Name:  2,2,3,3,4,4,5,5,6,6,7,7,8,8,9,9,9-heptadecafluorononanoic acid
Formula: C9HF17O2
Exact mass: 463.9705
SMILES: O=C(O)C(F)(F)C(F)(F)C(F)(F)C(F)(F)C(F)(F)C(F)(F)C(F)(F)C(F)(F)F
InChI: InChI=1S/C9HF17O2/c10-2(11,1(27)28)3(12,13)4(14,15)5(16,17)6(18,19)7(20,21)8(22,23)9(24,25)26/h(H,27,28)
Instrument: LTQ Orbitrap XL Thermo Scientific
Instrument type: LC-ESI-ITFT
Ms type: MS2
Ion mode: NEGATIVE
Ionization: ESI
Fragmentation mode: CID
Collision energy: 35 % (nominal)
Resolution: 7500
Column name: XBridge C18 3.5um, 2.1x50mm, Waters
Retention time: 13.9 min
Base peak: 462.9633
Precursor m/z: 462.9632
Precursor type: [M-H]-
m/z	relative intensity	assigned
168.989	24	C3F7-
218.9859	78	C4F9-
268.9834	13	C5F11-
418.9733	999	C8F17-
