Mass spectrum: Mephedrone; LC-ESI-ITFT; MS2; CE: 60%; R=7500; [M+H]+
Name: Mephedrone
Name: 2-(Methylamino)-1-(4-methylphenyl)-1-propanone
Name: 4-methylmethcathinone
Formula: C11H15NO
Exact mass: 177.1154
SMILES: Cc1ccc(cc1)C(=O)C(C)NC
InChI: InChI=1S/C11H15NO/c1-8-4-6-10(7-5-8)11(13)9(2)12-3/h4-7,9,12H,1-3H3
Instrument: LTQ Orbitrap XL Thermo Scientific
Instrument type: LC-ESI-ITFT
Ms type: MS2
Ion mode: POSITIVE
Ionization: ESI
Fragmentation mode: HCD
Collision energy: 60 % (nominal)
Resolution: 7500
Column name: XBridge C18 3.5um, 2.1x50mm, Waters
Retention time: 4.3 min
Base peak: 178.1231
Precursor m/z: 178.1226
Precursor type: [M+H]+
m/z	relative intensity	assigned
58.0652	7	C3H8N+
91.0543	12	C7H7+
117.0701	7	C9H9+
119.0856	174	C9H11+
129.0701	5	C10H9+
130.065	6	C9H8N+
131.0859	4	C10H11+
144.0809	48	C10H10N+
145.0888	999	C10H11N+
147.0805	34	C10H11O+
158.097	5	C11H12N+
159.1048	4	C11H13N+
160.1123	756	C11H14N+
