Mass spectrum: Pravastatin; LC-ESI-ITFT; MS2; CE: 35%; R=30000; [M-H]-
Name: Pravastatin
Name: (3R,5R)-7-[(1S,2S,6S,8S,8aR)-2-methyl-8-[(2S)-2-methylbutanoyl]oxy-6-oxidanyl-1,2,6,7,8,8a-hexahydronaphthalen-1-yl]-3,5-bis(oxidanyl)heptanoic acid
Formula: C23H36O7
Exact mass: 424.2461
SMILES: CCC(C)C(=O)OC1CC(C=C2C1C(C(C=C2)C)CCC(CC(CC(=O)O)O)O)O
InChI: InChI=1S/C23H36O7/c1-4-13(2)23(29)30-20-11-17(25)9-15-6-5-14(3)19(22(15)20)8-7-16(24)10-18(26)12-21(27)28/h5-6,9,13-14,16-20,22,24-26H,4,7-8,10-12H2,1-3H3,(H,27,28)/t13-,14-,16+,17+,18+,19-,20-,22-/m0/s1
Instrument: LTQ Orbitrap XL Thermo Scientific
Instrument type: LC-ESI-ITFT
Ms type: MS2
Ion mode: NEGATIVE
Ionization: ESI
Fragmentation mode: CID
Collision energy: 35 % (nominal)
Resolution: 30000
Column name: XBridge C18 3.5um, 2.1x50mm, Waters
Retention time: 9.2 min
Base peak: 423.2379
Precursor m/z: 423.2388
Precursor type: [M-H]-
m/z	relative intensity	assigned
141.0709	3	C11H9-
143.0866	7	C11H11-
199.1127	15	C14H15O-
225.1284	1	C16H17O-
241.1597	1	C17H21O-
267.1392	2	C18H19O2-
285.1493	25	C18H21O3-
303.1597	999	C18H23O4-
321.1701	768	C18H25O5-
