Mass spectrum: Bupropion; LC-ESI-ITFT; MS2; CE: 30%; R=15000; [M+H]+
Name: Bupropion
Name: 2-(tert-butylamino)-1-(3-chlorophenyl)-1-propanone
Formula: C13H18ClNO
Exact mass: 239.1077
SMILES: c1(C(=O)C(NC(C)(C)C)C)cc(ccc1)Cl
InChI: InChI=1S/C13H18ClNO/c1-9(15-13(2,3)4)12(16)10-6-5-7-11(14)8-10/h5-9,15H,1-4H3
Instrument: LTQ Orbitrap XL Thermo Scientific
Instrument type: LC-ESI-ITFT
Ms type: MS2
Ion mode: POSITIVE
Ionization: ESI
Fragmentation mode: HCD
Collision energy: 30 % (nominal)
Resolution: 15000
Column name: XBridge C18 3.5um, 2.1x50mm, Waters
Retention time: 5.8 min
Base peak: 240.1157
Precursor m/z: 240.115
Precursor type: [M+H]+
m/z	relative intensity	assigned
57.0699	7	C4H9+
131.0729	11	C9H9N+
139.0309	9	C8H8Cl+
166.042	237	C9H9ClN+
167.0259	97	C9H8ClO+
184.0525	999	C9H11ClNO+
240.1149	154	C13H19ClNO+
