Mass spectrum: Levamisole; LC-ESI-ITFT; MS2; CE: 35%; R=7500; [M+H]+
Name: Levamisole
Name: (6S)-6-phenyl-2,3,5,6-tetrahydroimidazo[2,1-b][1,3]thiazole
Formula: C11H12N2S
Exact mass: 204.0721
SMILES: c1([C@H]2CN3CCSC3=N2)ccccc1
InChI: InChI=1S/C11H12N2S/c1-2-4-9(5-3-1)10-8-13-6-7-14-11(13)12-10/h1-5,10H,6-8H2/t10-/m1/s1
Instrument: LTQ Orbitrap XL Thermo Scientific
Instrument type: LC-ESI-ITFT
Ms type: MS2
Ion mode: POSITIVE
Ionization: ESI
Fragmentation mode: CID
Collision energy: 35 % (nominal)
Resolution: 7500
Column name: XBridge C18 3.5um, 2.1x50mm, Waters
Retention time: 2.9 min
Base peak: 205.0801
Precursor m/z: 205.0794
Precursor type: [M+H]+
m/z	relative intensity	assigned
88.0217	92	C3H6NS+
91.0541	9	C7H7+
105.0703	6	C8H9+
117.0704	6	C9H9+
118.0653	16	C8H8N+
127.0325	6	C5H7N2S+
128.049	4	C9H6N+
129.0701	48	C10H9+
144.0805	5	C10H10N+
145.0762	149	C9H9N2+
146.0966	75	C10H12N+
162.0378	4	C9H8NS+
176.0535	3	C10H10NS+
178.0688	999	C10H12NS+
188.053	96	C11H10NS+
205.0798	546	C11H13N2S+
