Mass spectrum: Amisulpride; LC-ESI-ITFT; MS2; CE: 30%; R=7500; [M+H]+
Name: Amisulpride
Name: 4-amino-5-esyl-N-[(1-ethylpyrrolidin-2-yl)methyl]-2-methoxy-benzamide
Formula: C17H27N3O4S
Exact mass: 369.1722
SMILES: CCN1CCCC1CNC(=O)C2=CC(=C(C=C2OC)N)S(=O)(=O)CC
InChI: InChI=1S/C17H27N3O4S/c1-4-20-8-6-7-12(20)11-19-17(21)13-9-16(25(22,23)5-2)14(18)10-15(13)24-3/h9-10,12H,4-8,11,18H2,1-3H3,(H,19,21)
Instrument: LTQ Orbitrap XL Thermo Scientific
Instrument type: LC-ESI-ITFT
Ms type: MS2
Ion mode: POSITIVE
Ionization: ESI
Fragmentation mode: HCD
Collision energy: 30 % (nominal)
Resolution: 7500
Column name: XBridge C18 3.5um, 2.1x50mm, Waters
Retention time: 3.8 min
Base peak: 370.1806
Precursor m/z: 370.1795
Precursor type: [M+H]+
m/z	relative intensity	assigned
112.112	86	C7H14N+
129.1389	7	C7H17N2+
155.1179	9	C8H15N2O+
242.048	278	C10H12NO4S+
370.1797	999	C17H28N3O4S+
