Mass spectrum: Dextromethorphan; LC-ESI-ITFT; MS2; CE: 15%; R=15000; [M+H]+
Name: Dextromethorphan
Name: DXM
Name: (14alpha)-3-Methoxy-17-methylmorphinan
Formula: C18H25NO
Exact mass: 271.1936
SMILES: O(c1ccc3c(c1)[C@@]24[C@@H]([C@H](N(CC2)C)C3)CCCC4)C
InChI: InChI=1S/C18H25NO/c1-19-10-9-18-8-4-3-5-15(18)17(19)11-13-6-7-14(20-2)12-16(13)18/h6-7,12,15,17H,3-5,8-11H2,1-2H3/t15-,17+,18+/m1/s1
Instrument: LTQ Orbitrap XL Thermo Scientific
Instrument type: LC-ESI-ITFT
Ms type: MS2
Ion mode: POSITIVE
Ionization: ESI
Fragmentation mode: HCD
Collision energy: 15 % (nominal)
Resolution: 15000
Column name: XBridge C18 3.5um, 2.1x50mm, Waters
Retention time: 6.6 min
Base peak: 272.2015
Precursor m/z: 272.2009
Precursor type: [M+H]+
m/z	relative intensity	assigned
171.0804	2	C12H11O+
272.2008	999	C18H26NO+
