Mass spectrum: Mycophenolic acid; LC-ESI-ITFT; MS2; CE: 45%; R=15000; [M-H]-
Name: Mycophenolic acid
Name:  (E)-6-(4-hydroxy-3-keto-6-methoxy-7-methyl-phthalan-5-yl)-4-methyl-hex-4-enoic acid
Formula: C17H20O6
Exact mass: 320.1260
SMILES: c12c(c(c(C\C=C(\CCC(O)=O)C)c(c1C)OC)O)C(=O)OC2
InChI: InChI=1S/C17H20O6/c1-9(5-7-13(18)19)4-6-11-15(20)14-12(8-23-17(14)21)10(2)16(11)22-3/h4,20H,5-8H2,1-3H3,(H,18,19)/b9-4+
Instrument: LTQ Orbitrap XL Thermo Scientific
Instrument type: LC-ESI-ITFT
Ms type: MS2
Ion mode: NEGATIVE
Ionization: ESI
Fragmentation mode: HCD
Collision energy: 45 % (nominal)
Resolution: 15000
Column name: XBridge C18 3.5um, 2.1x50mm, Waters
Retention time: 9.6 min
Base peak: 319.1183
Precursor m/z: 319.1187
Precursor type: [M-H]-
m/z	relative intensity	assigned
135.0445	31	C8H7O2-
173.0608	32	C11H9O2-
179.035	214	C9H7O4-
191.0348	999	C10H7O4-
192.0427	367	C10H8O4-
199.1122	86	C14H15O-
203.0348	82	C11H7O4-
205.0506	367	C11H9O4-
207.066	165	C11H11O4-
215.1074	80	C14H15O2-
233.0813	70	C13H13O4-
243.1023	70	C15H15O3-
245.0815	193	C14H13O4-
275.1286	253	C16H19O4-
287.0922	197	C16H15O5-
319.1188	328	C17H19O6-
