Mass spectrum: Methadone; LC-ESI-ITFT; MS2; CE: 15%; R=7500; [M+H]+
Name: Methadone
Name: 6-(dimethylamino)-4,4-diphenyl-3-heptanone
Formula: C21H27NO
Exact mass: 309.2093
SMILES: CCC(=O)C(CC(C)N(C)C)(c1ccccc1)c2ccccc2
InChI: InChI=1S/C21H27NO/c1-5-20(23)21(16-17(2)22(3)4,18-12-8-6-9-13-18)19-14-10-7-11-15-19/h6-15,17H,5,16H2,1-4H3
Instrument: LTQ Orbitrap XL Thermo Scientific
Instrument type: LC-ESI-ITFT
Ms type: MS2
Ion mode: POSITIVE
Ionization: ESI
Fragmentation mode: HCD
Collision energy: 15 % (nominal)
Resolution: 7500
Column name: XBridge C18 3.5um, 2.1x50mm, Waters
Retention time: 8.4 min
Base peak: 310.2177
Precursor m/z: 310.2165
Precursor type: [M+H]+
m/z	relative intensity	assigned
105.0331	3	C7H5O+
265.1585	189	C19H21O+
310.217	999	C21H28NO+
