Mass spectrum: Albuterol; LC-ESI-ITFT; MS2; CE: 60%; R=15000; [M+H]+
Name: Albuterol
Name: Salbutamol
Name: 4-[2-(tert-butylamino)-1-hydroxy-ethyl]-2-methylol-phenol
Formula: C13H21NO3
Exact mass: 239.1521
SMILES: OCc1cc(ccc1O)C(O)CNC(C)(C)C
InChI: InChI=1S/C13H21NO3/c1-13(2,3)14-7-12(17)9-4-5-11(16)10(6-9)8-15/h4-6,12,14-17H,7-8H2,1-3H3
Instrument: LTQ Orbitrap XL Thermo Scientific
Instrument type: LC-ESI-ITFT
Ms type: MS2
Ion mode: POSITIVE
Ionization: ESI
Fragmentation mode: HCD
Collision energy: 60 % (nominal)
Resolution: 15000
Column name: XBridge C18 3.5um, 2.1x50mm, Waters
Retention time: 2.0 min
Base peak: 240.1602
Precursor m/z: 240.1594
Precursor type: [M+H]+
m/z	relative intensity	assigned
55.0178	2	C3H3O+
57.0699	18	C4H9+
68.0496	1	C4H6N+
77.0384	2	C6H5+
79.0542	11	C6H7+
80.0495	5	C5H6N+
81.0336	1	C5H5O+
91.0542	15	C7H7+
93.0699	10	C7H9+
94.0651	2	C6H8N+
103.0542	14	C8H7+
105.0699	1	C8H9+
106.0651	7	C7H8N+
117.0573	2	C8H7N+
118.0651	8	C8H8N+
119.0492	8	C8H7O+
120.0808	59	C8H10N+
121.0648	95	C8H9O+
130.0652	84	C9H8N+
131.0491	15	C9H7O+
133.0522	70	C8H7NO+
135.0677	1	C8H9NO+
136.0757	17	C8H10NO+
146.0603	3	C9H8NO+
147.0678	2	C9H9NO+
148.0758	999	C9H10NO+
166.0864	10	C9H12NO2+
