Mass spectrum: Rosuvastatin; LC-ESI-ITFT; MS2; CE: 75%; R=7500; [M-H]-
Name: Rosuvastatin
Name: (E,3R,5R)-7-[4-(4-fluorophenyl)-2-(methyl-methylsulfonylamino)-6-propan-2-ylpyrimidin-5-yl]-3,5-dihydroxyhept-6-enoic acid
Formula: C22H28FN3O6S
Exact mass: 481.1683
SMILES: c1(nc(N(S(=O)(=O)C)C)nc(c1\C=C\[C@@H](C[C@H](CC(O)=O)O)O)c1ccc(cc1)F)C(C)C
InChI: InChI=1S/C22H28FN3O6S/c1-13(2)20-18(10-9-16(27)11-17(28)12-19(29)30)21(14-5-7-15(23)8-6-14)25-22(24-20)26(3)33(4,31)32/h5-10,13,16-17,27-28H,11-12H2,1-4H3,(H,29,30)/b10-9+/t16-,17+/m0/s1
Instrument: LTQ Orbitrap XL Thermo Scientific
Instrument type: LC-ESI-ITFT
Ms type: MS2
Ion mode: NEGATIVE
Ionization: ESI
Fragmentation mode: HCD
Collision energy: 75 % (nominal)
Resolution: 7500
Column name: XBridge C18 3.5um, 2.1x50mm, Waters
Retention time: 9.2 min
Base peak: 480.1602
Precursor m/z: 480.161
Precursor type: [M-H]-
m/z	relative intensity	assigned
63.9625	999	O2S-
