Mass spectrum: Candesartan; LC-ESI-ITFT; MS2; CE: 35%; R=30000; [M-H]-
Name: Candesartan
Name:  2-ethoxy-3-[4-[2-(2H-tetrazol-5-yl)phenyl]benzyl]benzimidazole-4-carboxylic acid
Formula: C24H20N6O3
Exact mass: 440.1597
SMILES: c1(ccccc1c1ccc(Cn2c(nc3c2c(C(=O)O)ccc3)OCC)cc1)c1nnn[nH]1
InChI: InChI=1S/C24H20N6O3/c1-2-33-24-25-20-9-5-8-19(23(31)32)21(20)30(24)14-15-10-12-16(13-11-15)17-6-3-4-7-18(17)22-26-28-29-27-22/h3-13H,2,14H2,1H3,(H,31,32)(H,26,27,28,29)
Instrument: LTQ Orbitrap XL Thermo Scientific
Instrument type: LC-ESI-ITFT
Ms type: MS2
Ion mode: NEGATIVE
Ionization: ESI
Fragmentation mode: CID
Collision energy: 35 % (nominal)
Resolution: 30000
Column name: XBridge C18 3.5um, 2.1x50mm, Waters
Retention time: 9.3 min
Base peak: 439.1519
Precursor m/z: 439.1524
Precursor type: [M-H]-
m/z	relative intensity	assigned
132.0332	2	C7H4N2O-
133.0407	7	C7H5N2O-
161.0717	2	C9H9N2O-
176.0226	8	C8H4N2O3-
177.0304	2	C8H5N2O3-
205.0621	5	C10H9N2O3-
293.1082	19	C21H13N2-
306.1036	1	C21H12N3-
309.1031	999	C21H13N2O-
310.1105	27	C21H14N2O-
311.118	6	C21H15N2O-
324.1134	2	C21H14N3O-
339.1497	2	C21H17N5-
352.1452	1	C23H18N3O-
354.1006	98	C22H14N2O3-
367.156	38	C23H19N4O-
395.1623	16	C23H19N6O-
396.1351	30	C24H18N3O3-
411.1459	42	C24H19N4O3-
