Mass spectrum: Methamphetamine; LC-ESI-ITFT; MS2; CE: 30%; R=15000; [M+H]+
Name: Methamphetamine
Name: (2S)-N-methyl-1-phenylpropan-2-amine
Formula: C10H15N
Exact mass: 149.1204
SMILES: c1cccc(c1)C[C@H](C)NC
InChI: InChI=1S/C10H15N/c1-9(11-2)8-10-6-4-3-5-7-10/h3-7,9,11H,8H2,1-2H3/t9-/m0/s1
Instrument: LTQ Orbitrap XL Thermo Scientific
Instrument type: LC-ESI-ITFT
Ms type: MS2
Ion mode: POSITIVE
Ionization: ESI
Fragmentation mode: HCD
Collision energy: 30 % (nominal)
Resolution: 15000
Column name: XBridge C18 3.5um, 2.1x50mm, Waters
Retention time: 3.7 min
Base peak: 150.1279
Precursor m/z: 150.1277
Precursor type: [M+H]+
m/z	relative intensity	assigned
58.065	2	C3H8N+
65.0385	1	C5H5+
91.0543	719	C7H7+
119.0856	287	C9H11+
150.1278	999	C10H16N+
