Mass spectrum: Flonicamid; LC-ESI-ITFT; MS2; CE: 15%; R=7500; [M-H]-
Name: Flonicamid
Name: N-(cyanomethyl)-4-(trifluoromethyl)-3-pyridinecarboxamide
Formula: C9H6F3N3O
Exact mass: 229.0463
SMILES: O=C(NCC#N)c1cnccc1C(F)(F)F
InChI: InChI=1S/C9H6F3N3O/c10-9(11,12)7-1-3-14-5-6(7)8(16)15-4-2-13/h1,3,5H,4H2,(H,15,16)
Instrument: LTQ Orbitrap XL Thermo Scientific
Instrument type: LC-ESI-ITFT
Ms type: MS2
Ion mode: NEGATIVE
Ionization: ESI
Fragmentation mode: HCD
Collision energy: 15 % (nominal)
Resolution: 7500
Column name: XBridge C18 3.5um, 2.1x50mm, Waters
Retention time: 3.8 min
Base peak: 228.0399
Precursor m/z: 228.039
Precursor type: [M-H]-
m/z	relative intensity	assigned
228.0395	999	C9H5F3N3O-
