Mass spectrum: Difenoconazole; LC-ESI-ITFT; MS2; CE: 90%; R=7500; [M+H]+
Name: Difenoconazole
Name: 1-[[2-[2-chloranyl-4-(4-chloranylphenoxy)phenyl]-4-methyl-1,3-dioxolan-2-yl]methyl]-1,2,4-triazole
Formula: C19H17Cl2N3O3
Exact mass: 405.0647
SMILES: Clc4ccc(Oc1ccc(c(Cl)c1)C2(OCC(O2)C)Cn3ncnc3)cc4
InChI: InChI=1S/C19H17Cl2N3O3/c1-13-9-25-19(27-13,10-24-12-22-11-23-24)17-7-6-16(8-18(17)21)26-15-4-2-14(20)3-5-15/h2-8,11-13H,9-10H2,1H3
Instrument: LTQ Orbitrap XL Thermo Scientific
Instrument type: LC-ESI-ITFT
Ms type: MS2
Ion mode: POSITIVE
Ionization: ESI
Fragmentation mode: HCD
Collision energy: 90 % (nominal)
Resolution: 7500
Column name: XBridge C18 3.5um, 2.1x50mm, Waters
Retention time: 14.1 min
Base peak: 406.0724
Precursor m/z: 406.072
Precursor type: [M+H]+
m/z	relative intensity	assigned
50.0149	5	C4H2+
51.0229	16	C4H3+
53.0022	3	C3HO+
70.04	6	C2H4N3+
74.015	4	C6H2+
75.0229	111	C6H3+
77.0385	9	C6H5+
79.0181	7	C5H3O+
80.0257	6	C5H4O+
84.0557	2	C3H6N3+
84.9837	4	C4H2Cl+
86.9996	65	C4H4Cl+
88.9785	4	C3H2ClO+
89.0384	8	C7H5+
93.0334	4	C6H5O+
98.9997	10	C5H4Cl+
105.0447	4	C6H5N2+
110.9995	195	C6H4Cl+
114.9942	5	C5H4ClO+
115.0541	5	C9H7+
117.0697	4	C9H9+
124.0075	6	C7H5Cl+
125.0152	4	C7H6Cl+
128.0619	15	C10H8+
129.0101	41	C6H6ClO+
129.0698	28	C10H9+
137.9864	3	C7H3ClO+
139.0057	999	C6H4ClN2+
140.0031	8	C4H8Cl2N+
141.0101	445	C7H6ClO+
149.0153	28	C9H6Cl+
151.0539	23	C12H7+
152.062	423	C12H8+
153.0698	441	C12H9+
154.9893	18	C7H4ClO2+
162.023	19	C10H7Cl+
163.0306	2	C10H8Cl+
169.0657	3	C9H12ClN+
173.0151	34	C11H6Cl+
174.0227	17	C11H7Cl+
179.0601	19	C12H7N2+
180.0568	4	C13H8O+
181.0647	206	C13H9O+
182.976	23	C9H5Cl2+
186.023	6	C12H7Cl+
187.0306	69	C12H8Cl+
188.0386	570	C12H9Cl+
202.0178	121	C12H7ClO+
208.9918	52	C11H7Cl2+
215.0257	94	C13H8ClO+
216.0335	15	C13H9ClO+
223.0074	87	C12H9Cl2+
228.0334	3	C14H9ClO+
251.0018	99	C13H9Cl2O+
264.9817	56	C13H7Cl2O2+
337.0368	3	C15H13Cl2N3O2+
408.0744	2	C18H18Cl2N4O3+
