Mass spectrum: Pymetrozine; LC-ESI-ITFT; MS2; CE: 60%; R=15000; [M+H]+
Name: Pymetrozine
Name: 6-methyl-4-(3-pyridinylmethylideneamino)-2,5-dihydro-1,2,4-triazin-3-one
Formula: C10H11N5O
Exact mass: 217.0964
SMILES: O=C2N(/N=C/c1cccnc1)C\C(=N/N2)C
InChI: InChI=1S/C10H11N5O/c1-8-7-15(10(16)14-13-8)12-6-9-3-2-4-11-5-9/h2-6H,7H2,1H3,(H,14,16)/b12-6+
Instrument: LTQ Orbitrap XL Thermo Scientific
Instrument type: LC-ESI-ITFT
Ms type: MS2
Ion mode: POSITIVE
Ionization: ESI
Fragmentation mode: HCD
Collision energy: 60 % (nominal)
Resolution: 15000
Column name: XBridge C18 3.5um, 2.1x50mm, Waters
Retention time: 1.5 min
Base peak: 218.104
Precursor m/z: 218.1036
Precursor type: [M+H]+
m/z	relative intensity	assigned
78.0338	1	C5H4N+
79.0417	28	C5H5N+
80.0495	5	C5H6N+
92.0495	3	C6H6N+
93.0573	2	C6H7N+
98.0349	3	C3H4N3O+
105.0447	999	C6H5N2+
106.0525	3	C6H6N2+
107.0603	16	C6H7N2+
111.0314	8	C5H5NO2+
112.0505	1	C4H6N3O+
120.0556	1	C6H6N3+
134.0712	2	C7H8N3+
148.0505	1	C7H6N3O+
218.1035	15	C10H12N5O+
