Mass spectrum: Chlorpyrifos-methyl; LC-ESI-ITFT; MS2; CE: 35%; R=15000; [M+H]+
Name: Chlorpyrifos-methyl
Name: dimethoxy-sulfanylidene-(3,5,6-trichloropyridin-2-yl)oxy-{5}-phosphane
Formula: C7H7Cl3NO3PS
Exact mass: 320.8950
SMILES: Clc1c(OP(=S)(OC)OC)nc(Cl)c(Cl)c1
InChI: InChI=1S/C7H7Cl3NO3PS/c1-12-15(16,13-2)14-7-5(9)3-4(8)6(10)11-7/h3H,1-2H3
Instrument: LTQ Orbitrap XL Thermo Scientific
Instrument type: LC-ESI-ITFT
Ms type: MS2
Ion mode: POSITIVE
Ionization: ESI
Fragmentation mode: CID
Collision energy: 35 % (nominal)
Resolution: 15000
Column name: XBridge C18 3.5um, 2.1x50mm, Waters
Retention time: 14.0 min
Base peak: 321.9026
Precursor m/z: 321.9023
Precursor type: [M+H]+
m/z	relative intensity	assigned
124.9821	22	C2H6O2PS+
127.015	1	C3H8ClO3+
142.9927	2	C2H8O3PS+
211.8883	2	C4HCl2NOPS+
289.8759	999	C6H4Cl3NO2PS+
