Mass spectrum: Acetamiprid; LC-ESI-ITFT; MS2; CE: 90%; R=7500; [M+H]+
Name: Acetamiprid
Name: (1E)-N-[(6-Chloro-3-pyridinyl)methyl]-N'-cyano-N-methylethanimidamide
Formula: C10H11ClN4
Exact mass: 222.0672
SMILES: Clc1ncc(cc1)CN(\C(=N\C#N)C)C
InChI: InChI=1S/C10H11ClN4/c1-8(14-7-12)15(2)6-9-3-4-10(11)13-5-9/h3-5H,6H2,1-2H3
Instrument: LTQ Orbitrap XL Thermo Scientific
Instrument type: LC-ESI-ITFT
Ms type: MS2
Ion mode: POSITIVE
Ionization: ESI
Fragmentation mode: HCD
Collision energy: 90 % (nominal)
Resolution: 7500
Column name: XBridge C18 3.5um, 2.1x50mm, Waters
Retention time: 5.3 min
Base peak: 223.0746
Precursor m/z: 223.0745
Precursor type: [M+H]+
m/z	relative intensity	assigned
56.0494	44	C3H6N+
63.0229	31	C5H3+
65.0386	6	C5H5+
72.9839	40	C3H2Cl+
74.9995	1	C3H4Cl+
80.0497	1	C5H6N+
90.0338	313	C6H4N+
91.0416	61	C6H5N+
98.9995	304	C5H4Cl+
108.0443	17	C6H6NO+
126.0104	999	C6H5ClN+
144.021	56	C6H7ClNO+
196.1069	1	C7H12N6O+
