Mass spectrum: Acetamiprid; LC-ESI-ITFT; MS2; CE: 15%; R=15000; [M+H]+
Name: Acetamiprid
Name: (1E)-N-[(6-Chloro-3-pyridinyl)methyl]-N'-cyano-N-methylethanimidamide
Formula: C10H11ClN4
Exact mass: 222.0672
SMILES: Clc1ncc(cc1)CN(\C(=N\C#N)C)C
InChI: InChI=1S/C10H11ClN4/c1-8(14-7-12)15(2)6-9-3-4-10(11)13-5-9/h3-5H,6H2,1-2H3
Instrument: LTQ Orbitrap XL Thermo Scientific
Instrument type: LC-ESI-ITFT
Ms type: MS2
Ion mode: POSITIVE
Ionization: ESI
Fragmentation mode: HCD
Collision energy: 15 % (nominal)
Resolution: 15000
Column name: XBridge C18 3.5um, 2.1x50mm, Waters
Retention time: 5.3 min
Base peak: 223.0746
Precursor m/z: 223.0745
Precursor type: [M+H]+
m/z	relative intensity	assigned
56.0494	3	C3H6N+
126.0101	12	C6H5ClN+
181.0526	1	C9H10ClN2+
187.098	1	C10H11N4+
196.0642	2	C9H11ClN3+
206.0484	1	C10H9ClN3+
223.0742	999	C10H12ClN4+
