Mass spectrum: Spironolactone; LC-ESI-ITFT; MS2; CE: 15%; R=7500; [M+H]+
Name: Spironolactone
Name:  S-[(7R,8R,9S,10R,13S,14S,17R)-10,13-dimethyl-3,5'-bis(oxidanylidene)spiro[2,6,7,8,9,11,12,14,15,16-decahydro-1H-cyclopenta[a]phenanthrene-17,2'-oxolane]-7-yl] ethanethioate
Formula: C24H32O4S
Exact mass: 416.2021
SMILES: O=C5O[C@@]4([C@@]3([C@H]([C@@H]2[C@H](SC(=O)C)C/C1=C/C(=O)CC[C@]1(C)[C@H]2CC3)CC4)C)CC5
InChI: InChI=1S/C24H32O4S/c1-14(25)29-19-13-15-12-16(26)4-8-22(15,2)17-5-9-23(3)18(21(17)19)6-10-24(23)11-7-20(27)28-24/h12,17-19,21H,4-11,13H2,1-3H3/t17-,18-,19+,21+,22-,23-,24+/m0/s1
Instrument: LTQ Orbitrap XL Thermo Scientific
Instrument type: LC-ESI-ITFT
Ms type: MS2
Ion mode: POSITIVE
Ionization: ESI
Fragmentation mode: HCD
Collision energy: 15 % (nominal)
Resolution: 7500
Column name: XBridge C18 3.5um, 2.1x50mm, Waters
Retention time: 10.2 min
Base peak: 341.2102
Precursor m/z: 417.2094
Precursor type: [M+H]+
m/z	relative intensity	assigned
417.2098	999	C24H33O4S+
