Mass spectrum: Imidacloprid-urea; LC-ESI-ITFT; MS2; CE: 30%; R=7500; [M+H]+
Name: Imidacloprid-urea
Name: 1-[(6-Chloropyridin-3-yl)methyl]imidazolidin-2-one
Formula: C9H10ClN3O
Exact mass: 211.0512
SMILES: Clc2ncc(CN1CCNC1=O)cc2
InChI: InChI=1S/C9H10ClN3O/c10-8-2-1-7(5-12-8)6-13-4-3-11-9(13)14/h1-2,5H,3-4,6H2,(H,11,14)
Instrument: LTQ Orbitrap XL Thermo Scientific
Instrument type: LC-ESI-ITFT
Ms type: MS2
Ion mode: POSITIVE
Ionization: ESI
Fragmentation mode: HCD
Collision energy: 30 % (nominal)
Resolution: 7500
Column name: XBridge C18 3.5um, 2.1x50mm, Waters
Retention time: 4.6 min
Base peak: 212.0588
Precursor m/z: 212.0585
Precursor type: [M+H]+
m/z	relative intensity	assigned
99.0554	28	C4H7N2O+
126.0105	5	C6H5ClN+
128.0262	153	C6H7ClN+
169.0527	1	C8H10ClN2+
176.0816	2	C9H10N3O+
195.0323	5	C9H8ClN2O+
212.0585	999	C9H11ClN3O+
214.0625	1	C8H11ClN4O+
