Mass spectrum: Iprovalicarb; LC-ESI-ITFT; MS2; CE: 15%; R=7500; [M+H]+
Name: Iprovalicarb
Name: Isopropyl (3-methyl-1-{[(1S)-1-(4-methylphenyl)ethyl]amino}-1-oxo-2-butanyl)carbamate
Formula: C18H28N2O3
Exact mass: 320.2100
SMILES: CC(C)OC(=O)NC(C(=O)N[C@@H](C)c1ccc(C)cc1)C(C)C
InChI: InChI=1S/C18H28N2O3/c1-11(2)16(20-18(22)23-12(3)4)17(21)19-14(6)15-9-7-13(5)8-10-15/h7-12,14,16H,1-6H3,(H,19,21)(H,20,22)/t14-,16?/m0/s1
Instrument: LTQ Orbitrap XL Thermo Scientific
Instrument type: LC-ESI-ITFT
Ms type: MS2
Ion mode: POSITIVE
Ionization: ESI
Fragmentation mode: HCD
Collision energy: 15 % (nominal)
Resolution: 7500
Column name: XBridge C18 3.5um, 2.1x50mm, Waters
Retention time: 11.4 min
Base peak: 321.2181
Precursor m/z: 321.2173
Precursor type: [M+H]+
m/z	relative intensity	assigned
72.0809	8	C4H10N+
91.0542	4	C7H7+
98.0601	16	C5H8NO+
116.0708	356	C5H10NO2+
117.0693	4	C9H9+
117.1023	29	C5H13N2O+
119.0856	999	C9H11+
136.1123	5	C9H14N+
144.0657	260	C6H10NO3+
158.1177	41	C8H16NO2+
161.0922	8	C6H13N2O3+
186.1127	320	C9H16NO3+
203.1392	336	C9H19N2O3+
235.1807	5	C14H23N2O+
321.2174	171	C18H29N2O3+
