Mass spectrum: Dimethomorph; LC-ESI-ITFT; MS2; CE: 30%; R=15000; [M+H]+
Name: Dimethomorph
Name: (Z)-3-(4-chlorophenyl)-3-(3,4-dimethoxyphenyl)-1-(4-morpholinyl)-2-propen-1-one
Formula: C21H22ClNO4
Exact mass: 387.1237
SMILES: COC1=C(C=C(C=C1)/C(=C/C(=O)N2CCOCC2)/C3=CC=C(C=C3)Cl)OC
InChI: InChI=1S/C21H22ClNO4/c1-25-19-8-5-16(13-20(19)26-2)18(15-3-6-17(22)7-4-15)14-21(24)23-9-11-27-12-10-23/h3-8,13-14H,9-12H2,1-2H3/b18-14+
Instrument: LTQ Orbitrap XL Thermo Scientific
Instrument type: LC-ESI-ITFT
Ms type: MS2
Ion mode: POSITIVE
Ionization: ESI
Fragmentation mode: HCD
Collision energy: 30 % (nominal)
Resolution: 15000
Column name: XBridge C18 3.5um, 2.1x50mm, Waters
Retention time: 10.8 min
Base peak: 388.1318
Precursor m/z: 388.131
Precursor type: [M+H]+
m/z	relative intensity	assigned
70.0288	6	C3H4NO+
114.055	30	C5H8NO2+
138.9944	3	C7H4ClO+
165.0548	20	C9H9O3+
208.0525	1	C11H11ClNO+
261.0677	1	C15H14ClO2+
273.0676	3	C16H14ClO2+
301.0623	999	C17H14ClO3+
388.1312	317	C21H23ClNO4+
