Mass spectrum: Methiocarb-sulfoxide; LC-ESI-ITFT; MS2; CE: 45%; R=7500; [M+H]+
Name: Methiocarb-sulfoxide
Name: Mesurol sulfoxide
Name: (3,5-dimethyl-4-methylsulfinyl-phenyl) N-methylcarbamate
Formula: C11H15NO3S
Exact mass: 241.0773
SMILES: O=C(Oc1cc(c(c(c1)C)S(=O)C)C)NC
InChI: InChI=1S/C11H15NO3S/c1-7-5-9(15-11(13)12-3)6-8(2)10(7)16(4)14/h5-6H,1-4H3,(H,12,13)
Instrument: LTQ Orbitrap XL Thermo Scientific
Instrument type: LC-ESI-ITFT
Ms type: MS2
Ion mode: POSITIVE
Ionization: ESI
Fragmentation mode: HCD
Collision energy: 45 % (nominal)
Resolution: 7500
Column name: XBridge C18 3.5um, 2.1x50mm, Waters
Retention time: 4.9 min
Base peak: 242.0846
Precursor m/z: 242.0845
Precursor type: [M+H]+
m/z	relative intensity	assigned
107.0491	4	C7H7O+
121.0648	6	C8H9O+
122.0726	147	C8H10O+
136.0884	4	C9H12O+
137.0597	2	C8H9O2+
138.0675	3	C8H10O2+
141.0366	2	C7H9OS+
153.0367	2	C8H9OS+
168.0603	167	C9H12OS+
170.0396	276	C8H10O2S+
185.063	999	C9H13O2S+
