Mass spectrum: Methiocarb; LC-ESI-ITFT; MS2; CE: 35%; R=7500; [M+H]+
Name: Methiocarb
Name:  (3,5-dimethyl-4-methylsulfanyl-phenyl) N-methylcarbamate
Formula: C11H15NO2S
Exact mass: 225.0823
SMILES: O=C(Oc1cc(c(SC)c(c1)C)C)NC
InChI: InChI=1S/C11H15NO2S/c1-7-5-9(14-11(13)12-3)6-8(2)10(7)15-4/h5-6H,1-4H3,(H,12,13)
Instrument: LTQ Orbitrap XL Thermo Scientific
Instrument type: LC-ESI-ITFT
Ms type: MS2
Ion mode: POSITIVE
Ionization: ESI
Fragmentation mode: CID
Collision energy: 35 % (nominal)
Resolution: 7500
Column name: XBridge C18 3.5um, 2.1x50mm, Waters
Retention time: 10.4 min
Base peak: 226.0902
Precursor m/z: 226.0896
Precursor type: [M+H]+
m/z	relative intensity	assigned
121.0649	21	C8H9O+
122.0727	2	C8H10O+
154.0443	1	C8H10OS+
169.0683	999	C9H13OS+
