Mass spectrum: Triclosan; LC-ESI-QFT; MS2; CE: 60; R=35000; [M-H]-
Name: Triclosan
Name: 5-chloro-2-(2,4-dichlorophenoxy)phenol
Formula: C12H7Cl3O2
Exact mass: 287.95116
SMILES: c1(Oc2c(cc(Cl)cc2)Cl)c(cc(Cl)cc1)O
InChI: InChI=1S/C12H7Cl3O2/c13-7-1-3-11(9(15)5-7)17-12-4-2-8(14)6-10(12)16/h1-6,16H
Instrument: Q Exactive Plus Orbitrap Thermo Scientific
Instrument type: LC-ESI-QFT
Ms type: MS2
Ion mode: NEGATIVE
Ionization: ESI
Fragmentation mode: HCD
Collision energy: 60 (nominal)
Resolution: 35000
Column name: XBridge C18 3.5um, 2.1x50mm, Waters
Retention time: 14.8 min
Base peak: 286.9437
Precursor m/z: 286.9439
Precursor type: [M-H]-
m/z	relative intensity	assigned
141.9827	999	C6H3ClO2-
160.9567	111	C6H3Cl2O-
