Mass spectrum: Propazine-2-hydroxy; LC-ESI-QFT; MS2; CE: 45; R=35000; [M-H]-
Name: Propazine-2-hydroxy
Name: 1,3,5-Triazin-2(1H)-one, 4,6-bis((1-methylethyl)amino)-
Name: 2,6-bis(isopropylamino)-1H-s-triazin-4-one
Formula: C9H17N5O
Exact mass: 211.14331
SMILES: n(c(nc1NC(C)C)O)c(n1)NC(C)C
InChI: InChI=1S/C9H17N5O/c1-5(2)10-7-12-8(11-6(3)4)14-9(15)13-7/h5-6H,1-4H3,(H3,10,11,12,13,14,15)
Instrument: Q Exactive Plus Orbitrap Thermo Scientific
Instrument type: LC-ESI-QFT
Ms type: MS2
Ion mode: NEGATIVE
Ionization: ESI
Fragmentation mode: HCD
Collision energy: 45 (nominal)
Resolution: 35000
Column name: XBridge C18 3.5um, 2.1x50mm, Waters
Retention time: 5.1 min
Base peak: 210.1358
Precursor m/z: 210.136
Precursor type: [M-H]-
m/z	relative intensity	assigned
67.0302	10	C3H3N2-
81.0458	1	C4H5N2-
83.0615	999	C4H7N2-
84.0203	7	C2H2N3O-
125.0833	318	C5H9N4-
126.0421	9	C3H4N5O-
168.0892	369	C6H10N5O-
194.1048	3	C8H12N5O-
210.1362	366	C9H16N5O-
