Mass spectrum: Carbendazim; LC-ESI-QFT; MS2; CE: 15; R=35000; [M+H]+
Name: Carbendazim
Name: N-(1H-benzimidazol-2-yl)carbamic acid methyl ester
Formula: C9H9N3O2
Exact mass: 191.06948
SMILES: c12c(cccc1)N=C(NC(OC)=O)N2
InChI: InChI=1S/C9H9N3O2/c1-14-9(13)12-8-10-6-4-2-3-5-7(6)11-8/h2-5H,1H3,(H2,10,11,12,13)
Instrument: Q Exactive Plus Orbitrap Thermo Scientific
Instrument type: LC-ESI-QFT
Ms type: MS2
Ion mode: POSITIVE
Ionization: ESI
Fragmentation mode: HCD
Collision energy: 15 (nominal)
Resolution: 35000
Column name: XBridge C18 3.5um, 2.1x50mm, Waters
Retention time: 3.2 min
Base peak: 192.0767
Precursor m/z: 192.0768
Precursor type: [M+H]+
m/z	relative intensity	assigned
59.0127	1	C2H3O2+
160.0506	585	C8H6N3O+
192.0767	999	C9H10N3O2+
