Mass spectrum: 2-Imidazolidinethione; LC-ESI-QFT; MS2; CE: 30; R=35000; [M+H]+
Name: 2-Imidazolidinethione
Name: Ethylenethiourea
Formula: C3H6N2S
Exact mass: 102.02517
SMILES: S=C1NCCN1
InChI: InChI=1S/C3H6N2S/c6-3-4-1-2-5-3/h1-2H2,(H2,4,5,6)
Instrument: Q Exactive Plus Orbitrap Thermo Scientific
Instrument type: LC-ESI-QFT
Ms type: MS2
Ion mode: POSITIVE
Ionization: ESI
Fragmentation mode: HCD
Collision energy: 30 (nominal)
Resolution: 35000
Column name: XBridge C18 3.5um, 2.1x50mm, Waters
Retention time: 1.0 min
Base peak: 103.0324
Precursor m/z: 103.0324
Precursor type: [M+H]+
m/z	relative intensity	assigned
58.995	1	C2H3S+
59.9901	2	CH2NS+
69.0447	3	C3H5N2+
76.0215	4	C2H6NS+
86.0059	23	C3H4NS+
103.0324	999	C3H7N2S+
