Mass spectrum: 1-Methyl-1,2,3-benzotriazole; LC-ESI-QFT; MS2; CE: 45; R=35000; [M+H]+
Name: 1-Methyl-1,2,3-benzotriazole
Name: 1-methylbenzotriazole
Formula: C7H7N3
Exact mass: 133.06400
SMILES: CN1C2=CC=CC=C2N=N1
InChI: InChI=1S/C7H7N3/c1-10-7-5-3-2-4-6(7)8-9-10/h2-5H,1H3
Instrument: Q Exactive Plus Orbitrap Thermo Scientific
Instrument type: LC-ESI-QFT
Ms type: MS2
Ion mode: POSITIVE
Ionization: ESI
Fragmentation mode: HCD
Collision energy: 45 (nominal)
Resolution: 35000
Column name: XBridge C18 3.5um, 2.1x50mm, Waters
Retention time: 2.7 min
Base peak: 164.9845
Precursor m/z: 134.0713
Precursor type: [M+H]+
m/z	relative intensity	assigned
56.0495	245	C3H6N+
70.0651	47	C4H8N+
72.0444	999	C3H6NO+
79.0543	132	C6H7+
106.0653	148	C7H8N+
134.0714	671	C7H8N3+
