Mass spectrum: 1-Hydroxybenzotriazole; LC-ESI-QFT; MS2; CE: 180; R=35000; [M-H]-
Name: 1-Hydroxybenzotriazole
Formula: C6H5N3O
Exact mass: 135.04326
SMILES: C1=CC=C2C(=C1)N=NN2O
InChI: InChI=1S/C6H5N3O/c10-9-6-4-2-1-3-5(6)7-8-9/h1-4,10H
Instrument: Q Exactive Plus Orbitrap Thermo Scientific
Instrument type: LC-ESI-QFT
Ms type: MS2
Ion mode: NEGATIVE
Ionization: ESI
Fragmentation mode: HCD
Collision energy: 180 (nominal)
Resolution: 35000
Column name: XBridge C18 3.5um, 2.1x50mm, Waters
Retention time: 3.0 min
Base peak: 134.0359
Precursor m/z: 134.036
Precursor type: [M-H]-
m/z	relative intensity	assigned
50.0036	999	C3N-
