Mass spectrum: Ribavirin; LC-ESI-QFT; MS2; CE: 90; R=35000; [M-H]-
Name: Ribavirin
Name: Copegus
Name: 1-[(2R,3R,4S,5R)-3,4-dihydroxy-5-(hydroxymethyl)-2-oxolanyl]-1,2,4-triazole-3-carboxamide
Formula: C8H12N4O5
Exact mass: 244.08077
SMILES: c1nc(nn1[C@H]2[C@@H]([C@@H]([C@H](O2)CO)O)O)C(=O)N
InChI: InChI=1S/C8H12N4O5/c9-6(16)7-10-2-12(11-7)8-5(15)4(14)3(1-13)17-8/h2-5,8,13-15H,1H2,(H2,9,16)/t3-,4-,5-,8-/m1/s1
Instrument: Q Exactive Orbitrap Thermo Scientific
Instrument type: LC-ESI-QFT
Ms type: MS2
Ion mode: NEGATIVE
Ionization: ESI
Fragmentation mode: HCD
Collision energy: 90 (nominal)
Resolution: 35000
Column name: XBridge C18 3.5um, 2.1x50mm, Waters
Retention time: 0.9 min
Base peak: 289.079
Precursor m/z: 243.0735
Precursor type: [M-H]-
m/z	relative intensity	assigned
68.0254	999	C2H2N3-
89.0243	5	C3H5O3-
111.0313	235	C3H3N4O-
