Mass spectrum: MCLR; LC-ESI-QFT; MS2; CE: 75%; R=17500; [M-H]-
Name: MCLR
Name: Microcystin LR
Name: (5R,8S,11R,12S,15S,18S,19S,22R)-15-[3-(diaminomethylideneamino)propyl]-18-[(1E,3E,5S,6S)-6-methoxy-3,5-dimethyl-7-phenylhepta-1,3-dienyl]-1,5,12,19-tetramethyl-2-methylidene-8-(2-methylpropyl)-3,6,9,13,16,20,25-heptaoxo-1,4,7,10,14,17,21-heptazacyclopentacosane-11,22-dicarboxylic acid
Class: NA
Formula: C49H74N10O12
Exact mass: 994.5488
SMILES: CO[C@@H](Cc1ccccc1)[C@@H](C)/C=C(C)/C=C/[C@@H]2NC(=O)[C@H](CCCNC(N)=N)NC(=O)[C@@H](C)[C@@H](NC(=O)[C@H](CC(C)C)NC(=O)[C@@H](C)NC(=O)C(=C)N(C)C(=O)CC[C@@H](NC(=O)[C@H]2C)C(O)=O)C(O)=O
InChI: InChI=1S/C49H74N10O12/c1-26(2)23-37-46(66)58-40(48(69)70)30(6)42(62)55-35(17-14-22-52-49(50)51)45(65)54-34(19-18-27(3)24-28(4)38(71-10)25-33-15-12-11-13-16-33)29(5)41(61)56-36(47(67)68)20-21-39(60)59(9)32(8)44(64)53-31(7)43(63)57-37/h11-13,15-16,18-19,24,26,28-31,34-38,40H,8,14,17,20-23,25H2,1-7,9-10H3,(H,53,64)(H,54,65)(H,55,62)(H,56,61)(H,57,63)(H,58,66)(H,67,68)(H,69,70)(H4,50,51,52)/b19-18+,27-24+/t28-,29-,30-,31+,34-,35-,36+,37-,38-,40+/m0/s1
Instrument: Q Exactive Plus Orbitrap Thermo Scientific
Instrument type: LC-ESI-QFT
Ms type: MS2
Ion mode: NEGATIVE
Ionization: ESI
Fragmentation mode: HCD
Collision energy: 75 % (nominal)
Resolution: 17500
Column name: XBridge C18 3.5um, 2.1x50mm, Waters
Retention time: 8.567 min
Base peak: 190.9277
Precursor m/z: 993.5415
Precursor type: [M-H]-
m/z	relative intensity	assigned
72.0454	202	C3H6NO-
74.0248	293	C2H4NO2-
82.0297	226	C4H4NO-
82.0661	171	C5H8N-
84.0455	273	C4H6NO-
87.0564	184	C3H7N2O-
96.0456	63	C5H6NO-
96.082	102	C6H10N-
97.0403	74	C4H5N2O-
99.0562	195	C4H7N2O-
108.0451	62	C6H6NO-
109.0407	184	C5H5N2O-
110.0248	963	C5H4NO2-
111.0197	77	C4H3N2O2-
112.0403	247	C5H6NO2-
112.0766	135	C6H10NO-
113.0357	144	C4H5N2O2-
123.0327	96	C6H5NO2-
123.0564	112	C6H7N2O-
124.0406	269	C6H6NO2-
125.0594	195	C5H7N3O-
127.0512	111	C5H7N2O2-
128.0353	999	C5H6NO3-
129.1034	692	C6H13N2O-
138.0432	167	C6H6N2O2-
139.0876	283	C7H11N2O-
150.0554	184	C8H8NO2-
153.0663	70	C7H9N2O2-
155.1189	77	C8H15N2O-
165.1025	329	C7H11N5-
180.1136	262	C9H14N3O-
182.1289	995	C7H14N6-
