Mass spectrum: Coumafuryl; LC-ESI-QFT; MS2; CE: 15; R=35000; [M+H]+
Name: Coumafuryl
Name: Fumarin
Name: 3-[1-(furan-2-yl)-3-oxobutyl]-4-hydroxychromen-2-one
Formula: C17H14O5
Exact mass: 298.08412
SMILES: CC(=O)CC(C1=CC=CO1)C2=C(C3=CC=CC=C3OC2=O)O
InChI: InChI=1S/C17H14O5/c1-10(18)9-12(13-7-4-8-21-13)15-16(19)11-5-2-3-6-14(11)22-17(15)20/h2-8,12,19H,9H2,1H3
Instrument: Q Exactive Orbitrap Thermo Scientific
Instrument type: LC-ESI-QFT
Ms type: MS2
Ion mode: POSITIVE
Ionization: ESI
Fragmentation mode: HCD
Collision energy: 15 (nominal)
Resolution: 35000
Column name: XBridge C18 3.5um, 2.1x50mm, Waters
Retention time: 9.0 min
Base peak: 299.0914
Precursor m/z: 299.0914
Precursor type: [M+H]+
m/z	relative intensity	assigned
65.0383	1	C5H5+
95.0491	13	C6H7O+
121.0279	6	C7H5O2+
137.0597	999	C8H9O2+
155.0338	1	C7H7O4+
163.0389	590	C9H7O3+
189.0546	183	C11H9O3+
205.0495	1	C11H9O4+
213.0539	7	C13H9O3+
231.0652	225	C13H11O4+
241.0495	978	C14H9O4+
243.0648	6	C14H11O4+
253.0853	2	C16H13O3+
255.0651	15	C15H11O4+
281.0807	27	C17H13O4+
299.0913	532	C17H15O5+
