Mass spectrum: Azobenzol; LC-ESI-QFT; MS2; CE: 15; R=35000; [M+H]+
Name: Azobenzol
Name: Fentoxan
Name: [(Z)-Phenyl-NNO-azoxy]benzene
Formula: C12H10N2O
Exact mass: 198.07931
SMILES: c1(\[N+](=N\c2ccccc2)[O-])ccccc1
InChI: InChI=1S/C12H10N2O/c15-14(12-9-5-2-6-10-12)13-11-7-3-1-4-8-11/h1-10H
Instrument: Q Exactive Orbitrap Thermo Scientific
Instrument type: LC-ESI-QFT
Ms type: MS2
Ion mode: POSITIVE
Ionization: ESI
Fragmentation mode: HCD
Collision energy: 15 (nominal)
Resolution: 35000
Column name: XBridge C18 3.5um, 2.1x50mm, Waters
Retention time: 13.2 min
Base peak: 149.0234
Precursor m/z: 199.0866
Precursor type: [M+H]+
m/z	relative intensity	assigned
53.0386	2	C4H5+
55.0542	19	C4H7+
57.0336	3	C3H5O+
57.0699	35	C4H9+
59.0492	6	C3H7O+
65.0387	3	C5H5+
67.0542	36	C5H7+
69.0699	999	C5H9+
71.0491	78	C4H7O+
71.0855	33	C5H11+
72.0444	4	C3H6NO+
73.0283	6	C3H5O2+
73.0648	3	C4H9O+
77.0384	10	C6H5+
79.0543	19	C6H7+
81.0699	62	C6H9+
83.0491	19	C5H7O+
83.0855	153	C6H11+
85.0648	54	C5H9O+
87.044	3	C4H7O2+
89.0598	33	C4H9O2+
92.0494	219	C6H6N+
93.0699	51	C7H9+
95.0491	43	C6H7O+
95.0856	61	C7H11+
97.0648	57	C6H9O+
99.044	17	C5H7O2+
99.0805	20	C6H11O+
100.0757	42	C5H10NO+
101.0598	5	C5H9O2+
105.0335	43	C7H5O+
105.0448	27	C6H5N2+
107.0856	82	C8H11+
109.0647	7	C7H9O+
111.0441	139	C6H7O2+
113.0599	5	C6H9O2+
114.0663	5	C4H8N3O+
115.0752	11	C6H11O2+
119.0855	5	C9H11+
121.0647	15	C8H9O+
123.0805	26	C8H11O+
125.0596	23	C7H9O2+
127.0754	4	C7H11O2+
129.0699	6	C10H9+
135.0805	17	C9H11O+
139.0753	42	C8H11O2+
143.0853	6	C11H11+
163.0751	21	C10H11O2+
169.0882	3	C12H11N+
182.0839	93	C12H10N2+
199.0864	147	C12H11N2O+
