Mass spectrum: Perindopril; LC-ESI-QFT; MS2; CE: 30; R=35000; [M+H]+
Name: Perindopril
Name: Coversyl
Name: (2S,3aS, 7aS)-1-[(2S)-2-[[(2S)-1-ethoxy-1-oxopentan-2-yl]amino]propanoyl]-2,3,3a, 4,5,6,7,7a-octahydroindole-2-carboxylic acid
Formula: C19H32N2O5
Exact mass: 368.23112
SMILES: CCCC(C(=O)OCC)NC(C)C(=O)N1C2CCCCC2CC1C(=O)O
InChI: InChI=1S/C19H32N2O5/c1-4-8-14(19(25)26-5-2)20-12(3)17(22)21-15-10-7-6-9-13(15)11-16(21)18(23)24/h12-16,20H,4-11H2,1-3H3,(H,23,24)
Instrument: Q Exactive Orbitrap Thermo Scientific
Instrument type: LC-ESI-QFT
Ms type: MS2
Ion mode: POSITIVE
Ionization: ESI
Fragmentation mode: HCD
Collision energy: 30 (nominal)
Resolution: 35000
Column name: XBridge C18 3.5um, 2.1x50mm, Waters
Retention time: 7.4 min
Base peak: 369.2391
Precursor m/z: 369.2384
Precursor type: [M+H]+
m/z	relative intensity	assigned
56.0496	1	C3H6N+
70.0651	1	C4H8N+
72.0808	36	C4H10N+
73.0648	1	C4H9O+
74.0238	1	C2H4NO2+
98.0965	86	C6H12N+
100.1122	1	C6H14N+
124.1122	6	C8H14N+
130.0864	1	C6H12NO2+
144.1021	3	C7H14NO2+
144.1385	6	C8H18NO+
168.1021	1	C9H14NO2+
170.1179	164	C9H16NO2+
172.1333	999	C9H18NO2+
295.202	107	C16H27N2O3+
369.2389	67	C19H33N2O5+
