Mass spectrum: Mandipropamid; LC-ESI-QFT; MS2; CE: 30; R=35000; [M+H]+
Name: Mandipropamid
Name: 2-(4-Chlorophenyl)-N-{2-[3-methoxy-4-(2-propyn-1-yloxy)phenyl]ethyl}-2-(2-propyn-1-yloxy)acetamide
Formula: C23H22ClNO4
Exact mass: 411.12374
SMILES: Clc1ccc(cc1)C(OCC#C)C(=O)NCCc2ccc(OCC#C)c(OC)c2
InChI: InChI=1S/C23H22ClNO4/c1-4-14-28-20-11-6-17(16-21(20)27-3)12-13-25-23(26)22(29-15-5-2)18-7-9-19(24)10-8-18/h1-2,6-11,16,22H,12-15H2,3H3,(H,25,26)
Instrument: Q Exactive Orbitrap Thermo Scientific
Instrument type: LC-ESI-QFT
Ms type: MS2
Ion mode: POSITIVE
Ionization: ESI
Fragmentation mode: HCD
Collision energy: 30 (nominal)
Resolution: 35000
Column name: XBridge C18 3.5um, 2.1x50mm, Waters
Retention time: 10.7 min
Base peak: 412.1311
Precursor m/z: 412.131
Precursor type: [M+H]+
m/z	relative intensity	assigned
80.0494	1	C5H6N+
83.0492	1	C5H7O+
89.0383	1	C7H5+
90.0464	1	C7H6+
91.0541	8	C7H7+
95.0489	1	C6H7O+
105.0698	6	C8H9+
111.0439	1	C6H7O2+
115.0541	5	C9H7+
116.0619	1	C9H8+
117.0699	5	C9H9+
119.0726	1	C8H9N+
121.0645	9	C8H9O+
124.0755	1	C7H10NO+
125.0152	746	C7H6Cl+
128.0619	6	C10H8+
129.0698	19	C10H9+
130.065	2	C9H8N+
131.049	1	C9H7O+
131.0726	1	C9H9N+
131.0856	8	C10H11+
133.0646	2	C9H9O+
135.0803	4	C9H11O+
136.0758	1	C8H10NO+
137.0596	7	C8H9O2+
138.9945	14	C7H4ClO+
139.0309	2	C8H8Cl+
140.0261	53	C7H7ClN+
143.0732	4	C10H9N+
144.0571	3	C10H8O+
144.0809	18	C10H10N+
145.0648	18	C10H9O+
146.06	5	C9H8NO+
146.0725	10	C10H10O+
147.0436	1	C9H7O2+
147.0678	8	C9H9NO+
147.0802	1	C10H11O+
148.052	14	C9H8O2+
148.0756	4	C9H10NO+
149.0151	4	C9H6Cl+
149.0596	2	C9H9O2+
149.0962	1	C10H13O+
150.0675	17	C9H10O2+
151.031	6	C9H8Cl+
151.0753	8	C9H11O2+
152.0022	2	C8H5ClO+
152.0263	19	C8H7ClN+
153.0103	1	C8H6ClO+
153.0341	2	C8H8ClN+
154.0417	10	C8H9ClN+
155.0491	1	C11H7O+
156.0809	1	C11H10N+
157.0648	12	C11H9O+
158.0725	12	C11H10O+
159.0676	1	C10H9NO+
159.0802	12	C11H11O+
160.0518	4	C10H8O2+
160.0758	2	C10H10NO+
161.0597	14	C10H9O2+
161.0836	5	C10H11NO+
161.0959	21	C11H13O+
162.0549	1	C9H8NO2+
162.0677	1	C10H10O2+
162.0911	1	C10H12NO+
163.0306	11	C10H8Cl+
163.0626	2	C9H9NO2+
164.0705	77	C9H10NO2+
165.0783	36	C9H11NO2+
171.0678	7	C11H9NO+
171.0804	1	C12H11O+
172.0756	14	C11H10NO+
173.0837	8	C11H11NO+
174.0674	9	C11H10O2+
175.0309	2	C11H8Cl+
175.0753	16	C11H11O2+
176.0705	9	C10H10NO2+
176.0827	1	C11H12O2+
176.1066	2	C11H14NO+
177.0783	30	C10H11NO2+
178.0863	6	C10H12NO2+
179.0256	4	C10H8ClO+
180.0209	1	C9H7ClNO+
184.0759	4	C12H10NO+
185.0833	6	C12H11NO+
187.0754	13	C12H11O2+
188.0704	1	C11H10NO2+
188.1069	22	C12H14NO+
189.0909	123	C12H13O2+
194.0808	5	C10H12NO3+
202.0858	4	C12H12NO2+
203.0939	81	C12H13NO2+
204.1019	362	C12H14NO2+
206.0812	2	C11H12NO3+
207.0804	1	C15H11O+
208.0882	4	C15H12O+
213.0465	1	C14H10Cl+
215.0856	7	C17H11+
216.093	18	C17H12+
216.1021	103	C13H14NO2+
217.1009	2	C17H13+
218.1091	6	C17H14+
221.0953	2	C16H13O+
225.0464	2	C15H10Cl+
225.0911	8	C15H13O2+
228.0334	1	C14H9ClO+
229.0418	1	C14H10ClO+
231.0801	2	C17H11O+
232.0883	17	C17H12O+
233.0961	7	C17H13O+
237.0907	5	C16H13O2+
239.0624	12	C16H12Cl+
240.0334	1	C15H9ClO+
242.0492	5	C15H11ClO+
243.0571	15	C15H12ClO+
243.08	1	C18H11O+
244.0875	10	C18H12O+
245.0957	2	C18H13O+
247.1113	5	C18H15O+
248.0835	2	C14H15ClNO+
248.1197	13	C18H16O+
251.0624	17	C17H12Cl+
253.0653	1	C16H12ClN+
253.0782	5	C17H14Cl+
254.0488	1	C16H11ClO+
254.1177	1	C16H16NO2+
255.0573	5	C16H12ClO+
256.0648	7	C16H13ClO+
257.036	5	C15H10ClO2+
257.0729	5	C16H14ClO+
259.052	6	C15H12ClO2+
260.0602	19	C15H13ClO2+
260.1063	1	C18H14NO+
261.091	6	C18H13O2+
264.1016	6	C17H14NO2+
264.1146	9	C18H16O2+
267.0571	12	C17H12ClO+
268.0646	9	C17H13ClO+
269.0731	9	C17H14ClO+
270.0439	6	C16H11ClO2+
270.0677	4	C19H10O2+
271.052	70	C16H12ClO2+
271.0755	9	C19H11O2+
271.0883	18	C17H16ClO+
272.0598	57	C16H13ClO2+
276.1143	17	C19H16O2+
279.0571	26	C18H12ClO+
280.0647	24	C18H13ClO+
281.0596	7	C20H9O2+
281.0731	2	C18H14ClO+
283.0883	68	C18H16ClO+
285.0676	13	C17H14ClO2+
287.0458	1	C16H12ClO3+
288.0789	12	C16H15ClNO2+
289.0863	101	C16H16ClNO2+
296.0595	14	C18H13ClO2+
296.0837	10	C18H15ClNO+
297.0675	13	C18H14ClO2+
298.0633	5	C17H13ClNO2+
299.0698	18	C20H11O3+
299.0835	58	C18H16ClO2+
300.079	7	C17H15ClNO2+
311.0832	141	C19H16ClO2+
316.0742	2	C17H15ClNO3+
317.0816	21	C17H16ClNO3+
327.0788	2	C19H16ClO3+
328.1098	999	C19H19ClNO2+
338.0927	1	C20H17ClNO2+
356.1047	33	C20H19ClNO3+
