Mass spectrum: Mandipropamid; LC-ESI-QFT; MS2; CE: 15; R=35000; [M-H]-
Name: Mandipropamid
Name: 2-(4-Chlorophenyl)-N-{2-[3-methoxy-4-(2-propyn-1-yloxy)phenyl]ethyl}-2-(2-propyn-1-yloxy)acetamide
Formula: C23H22ClNO4
Exact mass: 411.12374
SMILES: Clc1ccc(cc1)C(OCC#C)C(=O)NCCc2ccc(OCC#C)c(OC)c2
InChI: InChI=1S/C23H22ClNO4/c1-4-14-28-20-11-6-17(16-21(20)27-3)12-13-25-23(26)22(29-15-5-2)18-7-9-19(24)10-8-18/h1-2,6-11,16,22H,12-15H2,3H3,(H,25,26)
Instrument: Q Exactive Orbitrap Thermo Scientific
Instrument type: LC-ESI-QFT
Ms type: MS2
Ion mode: NEGATIVE
Ionization: ESI
Fragmentation mode: HCD
Collision energy: 15 (nominal)
Resolution: 35000
Column name: XBridge C18 3.5um, 2.1x50mm, Waters
Retention time: 10.7 min
Base peak: 456.1224
Precursor m/z: 410.1165
Precursor type: [M-H]-
m/z	relative intensity	assigned
82.03	2	C4H4NO-
84.0091	13	C3H2NO2-
84.0455	1	C4H6NO-
110.0248	2	C5H4NO2-
111.0007	5	C6H4Cl-
121.0295	10	C7H5O2-
123.0089	28	C6H3O3-
125.0164	5	C7H6Cl-
134.0374	5	C8H6O2-
136.053	212	C8H8O2-
138.0323	14	C7H6O3-
143.0502	49	C10H7O-
146.0374	2	C9H6O2-
147.0452	2	C9H7O2-
149.0607	43	C9H9O2-
150.9957	37	C8H4ClO-
153.0113	999	C8H6ClO-
154.9906	6	C7H4ClO2-
159.045	1	C10H7O2-
160.0531	21	C10H8O2-
161.0609	7	C10H9O2-
163.0642	1	C9H9NO2-
165.0109	1	C9H6ClO-
168.0428	99	C8H8O4-
175.0764	40	C11H11O2-
176.0271	6	C10H7ClN-
177.0112	1	C10H6ClO-
178.0432	1	C10H9ClN-
179.0267	6	C10H8ClO-
181.0061	1	C9H6ClO2-
192.0224	6	C10H7ClNO-
194.0378	116	C10H9ClNO-
197.0011	44	C9H6ClO3-
204.0222	23	C11H7ClNO-
206.0378	9	C11H9ClNO-
217.0301	2	C12H8ClNO-
218.0376	1	C12H9ClNO-
221.025	28	C11H8ClNO2-
222.0328	373	C11H9ClNO2-
234.0334	1	C12H9ClNO2-
235.0407	12	C12H10ClNO2-
237.0196	2	C14H5O4-
242.038	28	C14H9ClNO-
250.0276	48	C12H9ClNO3-
267.0305	123	C12H10ClNO4-
382.1216	343	C22H21ClNO3-
