Mass spectrum: Cycloxydim; LC-ESI-QFT; MS2; CE: 30; R=35000; [M+H]+
Name: Cycloxydim
Name: 2-[(1E)-N-Ethoxybutanimidoyl]-3-hydroxy-5-(tetrahydro-2H-thiopyran-3-yl)-2-cyclohexen-1-one
Formula: C17H27NO3S
Exact mass: 325.17116
SMILES: O=C2C(\C(=O)CC(C1CCCSC1)C2)=C(\NOCC)CCC
InChI: InChI=1S/C17H27NO3S/c1-3-6-14(18-21-4-2)17-15(19)9-13(10-16(17)20)12-7-5-8-22-11-12/h12-13,19H,3-11H2,1-2H3/b18-14+
Instrument: Q Exactive Orbitrap Thermo Scientific
Instrument type: LC-ESI-QFT
Ms type: MS2
Ion mode: POSITIVE
Ionization: ESI
Fragmentation mode: HCD
Collision energy: 30 (nominal)
Resolution: 35000
Column name: XBridge C18 3.5um, 2.1x50mm, Waters
Retention time: 14.3 min
Base peak: 326.1785
Precursor m/z: 326.1784
Precursor type: [M+H]+
m/z	relative intensity	assigned
57.0335	3	C3H5O+
58.0652	1	C3H8N+
58.995	12	C2H3S+
61.0106	1	C2H5S+
67.0542	15	C5H7+
68.0495	6	C4H6N+
69.0334	2	C4H5O+
69.0699	2	C5H9+
70.065	3	C4H8N+
72.0808	1	C4H10N+
79.0542	8	C6H7+
80.0496	1	C5H6N+
81.0699	1	C6H9+
82.065	6	C5H8N+
84.0444	7	C4H6NO+
84.0807	14	C5H10N+
85.0106	1	C4H5S+
86.06	11	C4H8NO+
86.0963	4	C5H12N+
87.0262	84	C4H7S+
91.0542	4	C7H7+
93.0698	12	C7H9+
94.0649	4	C6H8N+
95.0491	7	C6H7O+
95.0854	1	C7H11+
96.0807	2	C6H10N+
97.0105	4	C5H5S+
99.0263	6	C5H7S+
101.0419	466	C5H9S+
105.0697	2	C8H9+
106.0651	1	C7H8N+
107.0491	12	C7H7O+
107.0854	7	C8H11+
108.0807	10	C7H10N+
109.0646	6	C7H9O+
109.1009	2	C8H13+
110.06	182	C6H8NO+
112.0756	105	C6H10NO+
113.0418	42	C6H9S+
115.0576	2	C6H11S+
117.0699	8	C9H9+
119.0855	6	C9H11+
120.0807	11	C8H10N+
121.0647	13	C8H9O+
122.0599	1	C7H8NO+
122.0963	8	C8H12N+
123.0435	1	C7H7O2+
124.0756	29	C7H10NO+
126.0913	16	C7H12NO+
127.0575	55	C7H11S+
128.1069	7	C7H14NO+
129.0368	1	C6H9OS+
129.0693	1	C10H9+
131.0855	4	C10H11+
132.0443	2	C8H6NO+
132.0808	1	C9H10N+
133.0648	2	C9H9O+
133.1013	1	C10H13+
134.0961	7	C9H12N+
135.0803	36	C9H11O+
136.0756	19	C8H10NO+
137.0418	4	C8H9S+
137.0598	4	C8H9O2+
137.096	4	C9H13O+
138.0549	25	C7H8NO2+
138.0914	19	C8H12NO+
139.0576	35	C8H11S+
140.0704	2	C7H10NO2+
141.0731	6	C8H13S+
143.0854	1	C11H11+
144.0807	3	C10H10N+
145.0649	5	C10H9O+
145.1013	2	C11H13+
147.0802	6	C10H11O+
148.112	1	C10H14N+
149.0961	2	C10H13O+
150.0912	8	C9H12NO+
151.0577	6	C9H11S+
152.0706	44	C8H10NO2+
152.1068	16	C9H14NO+
153.0368	12	C8H9OS+
153.0731	7	C9H13S+
153.0786	1	C8H11NO2+
154.0861	18	C8H12NO2+
155.0524	184	C8H11OS+
156.0659	1	C7H10NO3+
157.0646	1	C11H9O+
157.101	4	C12H13+
158.0968	1	C11H12N+
159.0802	10	C11H11O+
159.1166	2	C12H15+
160.0755	7	C10H10NO+
161.0598	8	C10H9O2+
161.0832	1	C10H11NO+
161.096	1	C11H13O+
162.0912	42	C10H12NO+
163.0575	2	C10H11S+
163.0752	38	C10H11O2+
164.1069	2	C10H14NO+
165.0732	7	C10H13S+
166.0861	4	C9H12NO2+
166.1224	1	C10H16NO+
169.0683	17	C9H13OS+
171.0474	8	C8H11O2S+
172.1122	1	C12H14N+
173.0957	3	C12H13O+
173.1328	1	C13H17+
174.0915	2	C11H12NO+
175.0575	1	C11H11S+
175.0751	2	C11H11O2+
175.1116	4	C12H15O+
176.0525	2	C10H10NS+
176.1066	4	C11H14NO+
177.0911	6	C11H13O2+
178.0862	113	C10H12NO2+
180.1018	856	C10H14NO2+
181.068	31	C10H13OS+
181.1096	26	C10H15NO2+
182.1176	41	C10H16NO2+
185.0964	2	C13H13O+
186.0913	11	C12H12NO+
187.1117	5	C13H15O+
189.0731	1	C12H13S+
191.0886	1	C12H15S+
192.0841	1	C11H14NS+
193.0682	4	C11H13OS+
194.0633	44	C10H12NOS+
195.0836	29	C11H15OS+
197.0628	5	C10H13O2S+
201.1275	6	C14H17O+
202.1222	5	C13H16NO+
203.0887	4	C13H15S+
204.1384	2	C13H18NO+
206.0999	5	C12H16NS+
206.1176	1	C12H16NO2+
207.0836	12	C12H15OS+
208.1154	2	C12H18NS+
210.0945	2	C11H16NOS+
210.1308	4	C12H20NS+
213.0945	1	C11H17O2S+
218.0997	1	C13H16NS+
219.0837	6	C13H15OS+
220.0789	15	C12H14NOS+
220.1155	12	C13H18NS+
220.1331	5	C13H18NO2+
221.0993	13	C13H17OS+
224.1102	10	C12H18NOS+
228.1384	2	C15H18NO+
229.1218	4	C15H17O2+
234.1309	17	C14H20NS+
234.149	2	C14H20NO2+
235.1148	23	C14H19OS+
236.1103	81	C13H18NOS+
238.0896	37	C12H16NO2S+
238.1259	114	C13H20NOS+
240.1413	12	C13H22NOS+
245.0993	7	C15H17OS+
248.1645	15	C15H22NO2+
252.1415	196	C14H22NOS+
253.1253	7	C14H21O2S+
254.1568	13	C14H24NOS+
262.126	37	C15H20NOS+
263.1098	32	C15H19O2S+
264.141	4	C15H22NOS+
265.125	5	C15H21O2S+
266.1208	2	C14H20NO2S+
278.1205	2	C15H20NO2S+
280.1365	999	C15H22NO2S+
281.1204	5	C15H21O3S+
281.1442	8	C15H23NO2S+
282.152	82	C15H24NO2S+
326.1782	62	C17H28NO3S+
