Mass spectrum: Fenhexamid; LC-ESI-QFT; MS2; CE: 30; R=35000; [M+H]+
Name: Fenhexamid
Name: N-(2,3-dichloro-4-hydroxy-phenyl)-1-methyl-cyclohexanecarboxamide
Formula: C14H17Cl2NO2
Exact mass: 301.06363
SMILES: O=C(Nc1ccc(O)c(Cl)c1Cl)C2(C)CCCCC2
InChI: InChI=1S/C14H17Cl2NO2/c1-14(7-3-2-4-8-14)13(19)17-9-5-6-10(18)12(16)11(9)15/h5-6,18H,2-4,7-8H2,1H3,(H,17,19)
Instrument: Q Exactive Orbitrap Thermo Scientific
Instrument type: LC-ESI-QFT
Ms type: MS2
Ion mode: POSITIVE
Ionization: ESI
Fragmentation mode: HCD
Collision energy: 30 (nominal)
Resolution: 35000
Column name: XBridge C18 3.5um, 2.1x50mm, Waters
Retention time: 11.7 min
Base peak: 302.0714
Precursor m/z: 302.0709
Precursor type: [M+H]+
m/z	relative intensity	assigned
55.0543	5	C4H7+
69.0699	3	C5H9+
97.1011	326	C7H13+
125.096	2	C8H13O+
142.0055	18	C6H5ClNO+
143.0131	7	C6H6ClNO+
177.9821	20	C6H6Cl2NO+
284.0605	1	C14H16Cl2NO+
302.0708	999	C14H18Cl2NO2+
