Mass spectrum: Mandipropamid; LC-ESI-QFT; MS2; CE: 75; R=35000; [M-H]-
Name: Mandipropamid
Name: 2-(4-Chlorophenyl)-N-{2-[3-methoxy-4-(2-propyn-1-yloxy)phenyl]ethyl}-2-(2-propyn-1-yloxy)acetamide
Formula: C23H22ClNO4
Exact mass: 411.12374
SMILES: Clc1ccc(cc1)C(OCC#C)C(=O)NCCc2ccc(OCC#C)c(OC)c2
InChI: InChI=1S/C23H22ClNO4/c1-4-14-28-20-11-6-17(16-21(20)27-3)12-13-25-23(26)22(29-15-5-2)18-7-9-19(24)10-8-18/h1-2,6-11,16,22H,12-15H2,3H3,(H,25,26)
Instrument: Q Exactive Orbitrap Thermo Scientific
Instrument type: LC-ESI-QFT
Ms type: MS2
Ion mode: NEGATIVE
Ionization: ESI
Fragmentation mode: HCD
Collision energy: 75 (nominal)
Resolution: 35000
Column name: XBridge C18 3.5um, 2.1x50mm, Waters
Retention time: 10.7 min
Base peak: 456.1224
Precursor m/z: 410.1165
Precursor type: [M-H]-
m/z	relative intensity	assigned
68.0142	3	C3H2NO-
70.03	3	C3H4NO-
82.0298	19	C4H4NO-
84.0092	7	C3H2NO2-
93.0346	185	C6H5O-
110.0248	41	C5H4NO2-
111.0007	250	C6H4Cl-
121.0295	999	C7H5O2-
125.0162	4	C7H6Cl-
134.0374	293	C8H6O2-
135.0007	3	C8H4Cl-
136.0528	3	C8H8O2-
145.0292	3	C9H5O2-
146.0374	7	C9H6O2-
148.0403	3	C8H6NO2-
149.0608	12	C9H9O2-
150.9956	142	C8H4ClO-
153.0112	589	C8H6ClO-
154.9906	33	C7H4ClO2-
159.0449	5	C10H7O2-
160.0532	4	C10H8O2-
194.0376	3	C10H9ClNO-
204.022	40	C11H7ClNO-
