Mass spectrum: Coumachlor; LC-ESI-QFT; MS2; CE: 60; R=35000; [M+H]+
Name: Coumachlor
Name: Ratilan
Name: 3-[1-(4-chlorophenyl)-3-oxobutyl]-4-hydroxychromen-2-one
Formula: C19H15ClO4
Exact mass: 342.06589
SMILES: CC(=O)CC(C1=CC=C(C=C1)Cl)C2=C(C3=CC=CC=C3OC2=O)O
InChI: InChI=1S/C19H15ClO4/c1-11(21)10-15(12-6-8-13(20)9-7-12)17-18(22)14-4-2-3-5-16(14)24-19(17)23/h2-9,15,22H,10H2,1H3
Instrument: Q Exactive Orbitrap Thermo Scientific
Instrument type: LC-ESI-QFT
Ms type: MS2
Ion mode: POSITIVE
Ionization: ESI
Fragmentation mode: HCD
Collision energy: 60 (nominal)
Resolution: 35000
Column name: XBridge C18 3.5um, 2.1x50mm, Waters
Retention time: 12.4 min
Base peak: 343.0736
Precursor m/z: 343.0732
Precursor type: [M+H]+
m/z	relative intensity	assigned
65.0386	10	C5H5+
68.9971	11	C3HO2+
69.0335	1	C4H5O+
91.0542	24	C7H7+
93.0336	7	C6H5O+
95.0492	87	C6H7O+
105.0335	1	C7H5O+
105.0448	6	C6H5N2+
111.0441	6	C6H7O2+
119.0491	8	C8H7O+
121.0284	255	C7H5O2+
125.0152	10	C7H6Cl+
128.0622	14	C10H8+
129.0332	1	C9H5O+
137.0154	12	C8H6Cl+
138.9945	8	C7H4ClO+
139.0391	14	C7H7O3+
145.0288	1	C9H5O2+
145.0649	9	C10H9O+
146.0726	4	C10H10O+
153.07	83	C12H9+
154.0777	22	C12H10+
155.0604	4	C10H7N2+
163.039	999	C9H7O3+
165.0102	72	C9H6ClO+
165.0697	4	C13H9+
166.0782	7	C13H10+
173.0231	4	C10H5O3+
175.0389	2	C10H7O3+
177.0702	1	C14H9+
178.0778	20	C14H10+
181.0416	64	C10H10ClO+
181.0647	17	C13H9O+
182.0727	59	C13H10O+
189.0466	126	C12H10Cl+
189.0548	36	C11H9O3+
191.034	192	C10H7O4+
193.0651	2	C14H9O+
194.0725	13	C14H10O+
199.0309	1	C13H8Cl+
201.0465	9	C13H10Cl+
205.0414	1	C12H10ClO+
205.0648	8	C15H9O+
206.0727	3	C15H10O+
209.0001	16	C10H6ClO3+
213.0466	3	C14H10Cl+
217.0417	329	C13H10ClO+
221.0601	15	C15H9O2+
222.0678	4	C15H10O2+
229.0416	4	C14H10ClO+
239.0259	9	C15H8ClO+
241.0419	2	C15H10ClO+
249.0548	309	C16H9O3+
250.0625	28	C16H10O3+
257.0365	95	C15H10ClO2+
267.0211	18	C16H8ClO2+
283.0153	1	C16H8ClO3+
285.0315	608	C16H10ClO3+
