Mass spectrum: Cycloxydim; LC-ESI-QFT; MS2; CE: 75; R=35000; [M+H]+
Name: Cycloxydim
Name: 2-[(1E)-N-Ethoxybutanimidoyl]-3-hydroxy-5-(tetrahydro-2H-thiopyran-3-yl)-2-cyclohexen-1-one
Formula: C17H27NO3S
Exact mass: 325.17116
SMILES: CCC/C(=N\OCC)/C1=C(CC(CC1=O)C2CCCSC2)O
InChI: InChI=1S/C17H27NO3S/c1-3-6-14(18-21-4-2)17-15(19)9-13(10-16(17)20)12-7-5-8-22-11-12/h12-13,19H,3-11H2,1-2H3/b18-14+
Instrument: Q Exactive Orbitrap Thermo Scientific
Instrument type: LC-ESI-QFT
Ms type: MS2
Ion mode: POSITIVE
Ionization: ESI
Fragmentation mode: HCD
Collision energy: 75 (nominal)
Resolution: 35000
Column name: XBridge C18 3.5um, 2.1x50mm, Waters
Retention time: 14.3 min
Base peak: 326.1785
Precursor m/z: 326.1784
Precursor type: [M+H]+
m/z	relative intensity	assigned
55.0179	13	C3H3O+
56.0496	2	C3H6N+
57.0335	4	C3H5O+
58.0651	2	C3H8N+
58.995	196	C2H3S+
61.0106	52	C2H5S+
65.0385	83	C5H5+
67.0416	18	C4H5N+
67.0542	311	C5H7+
68.0131	20	C3H2NO+
68.0494	75	C4H6N+
68.9971	4	C3HO2+
69.0334	52	C4H5O+
69.0698	18	C5H9+
70.065	52	C4H8N+
72.0807	4	C4H10N+
73.0105	31	C3H5S+
75.0262	3	C3H7S+
77.0384	16	C6H5+
79.0542	199	C6H7+
80.0494	26	C5H6N+
80.0621	2	C6H8+
81.0335	5	C5H5O+
81.0573	13	C5H7N+
81.0698	83	C6H9+
82.065	199	C5H8N+
83.0367	4	C4H5NO+
83.049	18	C5H7O+
84.0443	14	C4H6NO+
84.0807	29	C5H10N+
85.0106	60	C4H5S+
85.0284	5	C4H5O2+
86.06	15	C4H8NO+
86.0964	6	C5H12N+
87.0262	248	C4H7S+
91.0541	254	C7H7+
92.0494	11	C6H6N+
93.0334	41	C6H5O+
93.0571	19	C6H7N+
93.0698	281	C7H9+
94.065	42	C6H8N+
95.0491	209	C6H7O+
95.0854	20	C7H11+
96.0444	55	C5H6NO+
96.0807	27	C6H10N+
97.0106	24	C5H5S+
97.0522	12	C5H7NO+
97.0648	4	C6H9O+
99.0262	52	C5H7S+
101.0419	512	C5H9S+
103.0543	33	C8H7+
104.0494	11	C7H6N+
105.0447	19	C6H5N2+
105.0698	158	C8H9+
106.0651	26	C7H8N+
107.0491	999	C7H7O+
107.0855	50	C8H11+
108.0443	10	C6H6NO+
108.0807	40	C7H10N+
109.0283	4	C6H5O2+
109.0523	5	C6H7NO+
109.0647	51	C7H9O+
109.1013	3	C8H13+
110.06	444	C6H8NO+
111.0262	16	C6H7S+
111.044	59	C6H7O2+
111.0678	10	
111.0804	3	C7H11O+
112.0756	263	C6H10NO+
113.0418	141	C6H9S+
115.0541	83	C9H7+
116.0495	2	C8H6N+
116.062	11	C9H8+
117.0573	11	C8H7N+
117.0697	80	C9H9+
118.065	13	C8H8N+
119.0492	16	C8H7O+
119.0728	3	C8H9N+
119.0855	32	C9H11+
120.0442	5	C7H6NO+
120.0807	57	C8H10N+
121.0646	92	C8H9O+
122.06	30	C7H8NO+
122.0963	64	C8H12N+
123.0262	3	C7H7S+
123.0439	29	C7H7O2+
123.0676	4	C7H9NO+
123.0802	4	C8H11O+
124.0756	91	C7H10NO+
124.1119	11	C8H14N+
125.0419	5	C7H9S+
125.0834	13	C7H11NO+
126.0497	22	C7H10S+
127.0212	14	C6H7OS+
127.0575	169	C7H11S+
128.0619	11	C10H8+
128.0706	3	C6H10NO2+
129.0369	5	C6H9OS+
129.0697	32	C10H9+
130.0651	10	C9H8N+
131.0491	14	C9H7O+
131.0854	42	C10H11+
132.0443	95	C8H6NO+
132.0808	17	C9H10N+
133.0647	72	C9H9O+
133.1012	4	C10H13+
134.0598	14	C8H8NO+
134.0964	21	C9H12N+
135.0441	12	C8H7O2+
135.0803	115	C9H11O+
136.0392	26	C7H6NO2+
136.0756	47	C8H10NO+
137.0416	25	C8H9S+
137.0598	14	C8H9O2+
137.0834	12	C8H11NO+
138.055	39	C7H8NO2+
138.0913	46	C8H12NO+
139.0575	5	C8H11S+
140.0704	3	C7H10NO2+
141.0698	13	C11H9+
142.0777	16	C11H10+
143.0729	6	C10H9N+
143.0854	6	C11H11+
144.0569	11	C10H8O+
144.0807	17	C10H10N+
145.0647	56	C10H9O+
145.0886	4	C10H11N+
145.101	5	C11H13+
146.0602	20	C9H8NO+
146.0962	13	C10H12N+
147.044	11	C9H7O2+
147.0805	21	C10H11O+
148.0758	12	C9H10NO+
148.112	3	C10H14N+
149.0418	4	C9H9S+
149.0473	17	C8H7NO2+
149.0597	13	C9H9O2+
150.0554	4	C8H8NO2+
150.0913	87	C9H12NO+
151.0576	12	C9H11S+
151.0995	3	C9H13NO+
152.0705	28	C8H10NO2+
152.1069	34	C9H14NO+
153.0367	15	C8H9OS+
153.0699	2	C12H9+
153.0785	3	C8H11NO2+
154.0445	9	C8H10OS+
155.0524	106	C8H11OS+
156.0653	33	C7H10NO3+
156.081	3	C11H10N+
157.0646	26	C11H9O+
158.0601	5	C10H8NO+
158.0724	3	C11H10O+
158.0966	12	C11H12N+
159.0681	4	C10H9NO+
159.0804	32	C11H11O+
160.0755	32	C10H10NO+
160.1119	3	C11H14N+
161.0596	92	C10H9O2+
161.0957	5	C11H13O+
162.0552	3	C9H8NO2+
162.0912	52	C10H12NO+
163.0752	354	C10H11O2+
164.0705	10	C9H10NO2+
164.1072	5	C10H14NO+
165.0726	3	C10H13S+
166.0861	44	C9H12NO2+
172.1122	4	C12H14N+
173.0595	3	C11H9O2+
173.0962	3	C12H13O+
174.0916	5	C11H12NO+
174.1277	4	C12H16N+
175.0753	15	C11H11O2+
175.0991	3	C11H13NO+
176.052	2	C10H10NS+
176.0713	3	C10H10NO2+
176.1071	3	C11H14NO+
178.0861	106	C10H12NO2+
180.1017	408	C10H14NO2+
181.1095	4	C10H15NO2+
186.0914	5	C12H12NO+
186.1281	3	C13H16N+
189.0912	5	C12H13O2+
194.0633	10	C10H12NOS+
206.1167	3	C12H16NO2+
238.1257	5	C13H20NOS+
264.1419	12	C15H22NOS+
266.1214	16	C14H20NO2S+
