Mass spectrum: Azobenzol; LC-ESI-QFT; MS2; CE: 75; R=35000; [M+H]+
Name: Azobenzol
Name: Fentoxan
Name: [(Z)-Phenyl-NNO-azoxy]benzene
Formula: C12H10N2O
Exact mass: 198.07931
SMILES: c1(\[N+](=N\c2ccccc2)[O-])ccccc1
InChI: InChI=1S/C12H10N2O/c15-14(12-9-5-2-6-10-12)13-11-7-3-1-4-8-11/h1-10H
Instrument: Q Exactive Orbitrap Thermo Scientific
Instrument type: LC-ESI-QFT
Ms type: MS2
Ion mode: POSITIVE
Ionization: ESI
Fragmentation mode: HCD
Collision energy: 75 (nominal)
Resolution: 35000
Column name: XBridge C18 3.5um, 2.1x50mm, Waters
Retention time: 13.2 min
Base peak: 149.0234
Precursor m/z: 199.0866
Precursor type: [M+H]+
m/z	relative intensity	assigned
53.0023	31	C3HO+
53.0387	16	C4H5+
55.0543	132	C4H7+
57.0336	12	C3H5O+
57.0699	64	C4H9+
59.0492	24	C3H7O+
65.0386	81	C5H5+
66.0465	3	C5H6+
67.0542	137	C5H7+
69.0699	999	C5H9+
71.0491	38	C4H7O+
71.0855	14	C5H11+
72.0445	25	C3H6NO+
73.0284	14	C3H5O2+
73.0648	5	C4H9O+
77.0386	27	C6H5+
79.0543	85	C6H7+
81.0699	103	C6H9+
83.0492	36	C5H7O+
83.0856	94	C6H11+
85.0284	7	C4H5O2+
85.0648	19	C5H9O+
89.0598	2	C4H9O2+
91.0542	56	C7H7+
92.0495	144	C6H6N+
93.0699	86	C7H9+
95.0492	276	C6H7O+
95.0856	55	C7H11+
97.0075	4	C8H+
97.0286	5	C5H5O2+
97.0649	41	C6H9O+
99.0442	3	C5H7O2+
99.0804	5	C6H11O+
100.0757	14	C5H10NO+
105.0335	28	C7H5O+
105.0448	64	C6H5N2+
105.0699	28	C8H9+
107.0855	50	C8H11+
109.0647	18	C7H9O+
111.044	52	C6H7O2+
111.0804	22	C7H11O+
113.0597	3	C6H9O2+
114.0661	4	C4H8N3O+
115.0541	17	C9H7+
117.07	13	C9H9+
119.0856	3	C9H11+
121.0648	4	C8H9O+
123.0804	16	C8H11O+
125.0599	3	C7H9O2+
128.0619	6	C10H8+
129.0657	3	C5H9N2O2+
129.07	18	C10H9+
130.0734	14	C5H10N2O2+
135.0803	7	C9H11O+
142.078	19	C11H10+
143.0856	12	C11H11+
