Mass spectrum: Coumachlor; LC-ESI-QFT; MS2; CE: 90; R=35000; [M+H]+
Name: Coumachlor
Name: Ratilan
Name: 3-[1-(4-chlorophenyl)-3-oxobutyl]-4-hydroxychromen-2-one
Formula: C19H15ClO4
Exact mass: 342.06589
SMILES: CC(=O)CC(C1=CC=C(C=C1)Cl)C2=C(C3=CC=CC=C3OC2=O)O
InChI: InChI=1S/C19H15ClO4/c1-11(21)10-15(12-6-8-13(20)9-7-12)17-18(22)14-4-2-3-5-16(14)24-19(17)23/h2-9,15,22H,10H2,1H3
Instrument: Q Exactive Orbitrap Thermo Scientific
Instrument type: LC-ESI-QFT
Ms type: MS2
Ion mode: POSITIVE
Ionization: ESI
Fragmentation mode: HCD
Collision energy: 90 (nominal)
Resolution: 35000
Column name: XBridge C18 3.5um, 2.1x50mm, Waters
Retention time: 12.4 min
Base peak: 343.0736
Precursor m/z: 343.0732
Precursor type: [M+H]+
m/z	relative intensity	assigned
50.0152	6	C4H2+
51.023	2	C4H3+
53.0023	2	C3HO+
53.0388	5	C4H5+
65.0386	271	C5H5+
68.9971	74	C3HO2+
77.0386	44	C6H5+
79.0543	10	C6H7+
81.0334	2	C5H5O+
89.0386	18	C7H5+
91.0542	140	C7H7+
93.0335	124	C6H5O+
95.0492	526	C6H7O+
102.0464	59	C8H6+
105.0448	65	C6H5N2+
107.0494	5	C7H7O+
111.0441	137	C6H7O2+
115.0542	5	C9H7+
119.0492	29	C8H7O+
121.0284	999	C7H5O2+
125.0152	10	C7H6Cl+
127.0541	6	C10H7+
128.0621	40	C10H8+
129.0336	11	C9H5O+
129.0447	18	C8H5N2+
136.0075	10	
137.0153	134	C8H6Cl+
138.9946	12	C7H4ClO+
139.039	44	C7H7O3+
145.0286	12	C9H5O2+
145.0649	10	C10H9O+
146.0727	1	C10H10O+
152.0621	73	C12H8+
153.0699	270	C12H9+
154.0777	115	C12H10+
155.0606	6	C10H7N2+
162.9947	27	
163.039	315	C9H7O3+
164.0024	5	C9H5ClO+
165.0103	53	C9H6ClO+
165.0699	116	C13H9+
166.0777	60	C13H10+
169.0649	10	C12H9O+
176.0619	28	C14H8+
177.0704	9	C14H9+
178.0777	72	C14H10+
181.0648	62	C13H9O+
182.0728	55	C13H10O+
189.0468	49	C12H10Cl+
189.0549	7	C11H9O3+
191.0339	82	C10H7O4+
193.0647	16	C14H9O+
194.0727	29	C14H10O+
199.031	2	C13H8Cl+
201.0464	16	C13H10Cl+
204.0571	10	C15H8O+
205.0649	12	C15H9O+
206.0727	2	C15H10O+
209.0002	11	C10H6ClO3+
217.0417	30	C13H10ClO+
221.0599	103	C15H9O2+
229.042	1	C14H10ClO+
239.0262	9	C15H8ClO+
249.0547	188	C16H9O3+
250.0627	9	C16H10O3+
257.0367	23	C15H10ClO2+
267.0213	7	C16H8ClO2+
283.0156	2	C16H8ClO3+
285.0316	3	C16H10ClO3+
