Mass spectrum: Cycloxydim; LC-ESI-QFT; MS2; CE: 90; R=35000; [M+H]+
Name: Cycloxydim
Name: 2-[(1E)-N-Ethoxybutanimidoyl]-3-hydroxy-5-(tetrahydro-2H-thiopyran-3-yl)-2-cyclohexen-1-one
Formula: C17H27NO3S
Exact mass: 325.17116
SMILES: CCC/C(=N\OCC)/C1=C(CC(CC1=O)C2CCCSC2)O
InChI: InChI=1S/C17H27NO3S/c1-3-6-14(18-21-4-2)17-15(19)9-13(10-16(17)20)12-7-5-8-22-11-12/h12-13,19H,3-11H2,1-2H3/b18-14+
Instrument: Q Exactive Orbitrap Thermo Scientific
Instrument type: LC-ESI-QFT
Ms type: MS2
Ion mode: POSITIVE
Ionization: ESI
Fragmentation mode: HCD
Collision energy: 90 (nominal)
Resolution: 35000
Column name: XBridge C18 3.5um, 2.1x50mm, Waters
Retention time: 14.3 min
Base peak: 326.1785
Precursor m/z: 326.1784
Precursor type: [M+H]+
m/z	relative intensity	assigned
53.0386	2	C4H5+
55.0179	15	C3H3O+
56.0495	5	C3H6N+
57.0335	3	C3H5O+
58.0651	3	C3H8N+
58.995	185	C2H3S+
61.0106	52	C2H5S+
65.0385	128	C5H5+
67.0416	32	C4H5N+
67.0542	285	C5H7+
68.013	22	C3H2NO+
68.0494	61	C4H6N+
68.9971	4	C3HO2+
69.0334	54	C4H5O+
69.0698	19	C5H9+
70.065	42	C4H8N+
73.0106	28	C3H5S+
75.0262	2	C3H7S+
77.0384	21	C6H5+
79.0542	265	C6H7+
80.0494	40	C5H6N+
80.062	3	C6H8+
81.0334	15	C5H5O+
81.0572	17	C5H7N+
81.0698	67	C6H9+
82.065	158	C5H8N+
83.0365	9	C4H5NO+
83.049	17	C5H7O+
84.0443	13	C4H6NO+
84.0806	14	C5H10N+
85.0106	61	C4H5S+
86.06	4	C4H8NO+
87.0262	156	C4H7S+
91.0541	315	C7H7+
92.0495	16	C6H6N+
93.0334	35	C6H5O+
93.0572	31	C6H7N+
93.0698	194	C7H9+
94.065	47	C6H8N+
95.049	233	C6H7O+
95.0854	19	C7H11+
96.0443	70	C5H6NO+
96.0806	25	C6H10N+
97.0106	20	C5H5S+
97.0522	7	C5H7NO+
98.0601	2	C5H8NO+
99.0262	44	C5H7S+
101.0418	251	C5H9S+
103.0541	48	C8H7+
104.0494	10	C7H6N+
105.0447	35	C6H5N2+
105.0698	152	C8H9+
106.065	30	C7H8N+
107.049	999	C7H7O+
108.0443	14	C6H6NO+
108.0807	35	C7H10N+
109.0283	2	C6H5O2+
109.0521	12	C6H7NO+
109.0647	32	C7H9O+
109.101	2	C8H13+
110.06	227	C6H8NO+
111.0262	14	C6H7S+
111.0439	44	C6H7O2+
112.0756	162	C6H10NO+
113.0418	77	C6H9S+
115.0541	99	C9H7+
116.0492	2	C8H6N+
116.0618	15	C9H8+
117.0572	10	C8H7N+
117.0697	73	C9H9+
118.065	9	C8H8N+
119.0491	8	C8H7O+
119.0729	7	C8H9N+
119.0852	17	C9H11+
120.0443	9	C7H6NO+
120.0807	32	C8H10N+
121.0647	54	C8H9O+
122.0599	24	C7H8NO+
122.0963	44	C8H12N+
123.026	4	C7H7S+
123.0439	31	C7H7O2+
123.0678	3	C7H9NO+
124.0756	57	C7H10NO+
124.1119	9	C8H14N+
125.0418	4	C7H9S+
125.0835	2	C7H11NO+
126.0498	25	C7H10S+
127.0575	71	C7H11S+
128.0619	25	C10H8+
129.0697	27	C10H9+
130.0648	16	C9H8N+
131.0491	16	C9H7O+
131.0855	24	C10H11+
132.0443	64	C8H6NO+
132.0808	14	C9H10N+
133.0647	46	C9H9O+
133.1007	2	C10H13+
134.0599	8	C8H8NO+
134.0962	14	C9H12N+
135.0439	14	C8H7O2+
135.0803	71	C9H11O+
136.0391	16	C7H6NO2+
136.0757	27	C8H10NO+
137.0419	10	C8H9S+
137.0594	14	C8H9O2+
138.0549	20	C7H8NO2+
138.0912	22	C8H12NO+
140.0705	2	C7H10NO2+
141.0695	14	C11H9+
142.0776	10	C11H10+
143.073	4	C10H9N+
143.0854	9	C11H11+
144.0569	10	C10H8O+
144.0807	12	C10H10N+
145.0647	40	C10H9O+
145.101	2	C11H13+
146.06	20	C9H8NO+
146.0965	9	C10H12N+
147.0438	17	C9H7O2+
147.0804	12	C10H11O+
148.0758	8	C9H10NO+
149.0418	3	C9H9S+
149.0473	11	C8H7NO2+
149.0596	5	C9H9O2+
150.0548	4	C8H8NO2+
150.0913	30	C9H12NO+
151.0574	2	C9H11S+
152.0706	8	C8H10NO2+
152.1069	14	C9H14NO+
153.0366	3	C8H9OS+
153.0696	4	C12H9+
155.0525	43	C8H11OS+
156.0654	19	C7H10NO3+
157.0646	16	C11H9O+
158.0966	3	C11H12N+
159.0673	3	C10H9NO+
159.0805	13	C11H11O+
160.0756	18	C10H10NO+
161.0595	49	C10H9O2+
162.0551	3	C9H8NO2+
162.0911	32	C10H12NO+
163.0752	104	C10H11O2+
164.0705	3	C9H10NO2+
164.1068	2	C10H14NO+
166.0862	21	C9H12NO2+
172.1119	2	C12H14N+
174.091	3	C11H12NO+
175.0751	3	C11H11O2+
176.0703	2	C10H10NO2+
176.1071	2	C11H14NO+
178.0862	31	C10H12NO2+
180.1018	72	C10H14NO2+
