Mass spectrum: Mandipropamid; LC-ESI-QFT; MS2; CE: 45; R=35000; [M-H]-
Name: Mandipropamid
Name: 2-(4-Chlorophenyl)-N-{2-[3-methoxy-4-(2-propyn-1-yloxy)phenyl]ethyl}-2-(2-propyn-1-yloxy)acetamide
Formula: C23H22ClNO4
Exact mass: 411.12374
SMILES: Clc1ccc(cc1)C(OCC#C)C(=O)NCCc2ccc(OCC#C)c(OC)c2
InChI: InChI=1S/C23H22ClNO4/c1-4-14-28-20-11-6-17(16-21(20)27-3)12-13-25-23(26)22(29-15-5-2)18-7-9-19(24)10-8-18/h1-2,6-11,16,22H,12-15H2,3H3,(H,25,26)
Instrument: Q Exactive Orbitrap Thermo Scientific
Instrument type: LC-ESI-QFT
Ms type: MS2
Ion mode: NEGATIVE
Ionization: ESI
Fragmentation mode: HCD
Collision energy: 45 (nominal)
Resolution: 35000
Column name: XBridge C18 3.5um, 2.1x50mm, Waters
Retention time: 10.7 min
Base peak: 456.1224
Precursor m/z: 410.1165
Precursor type: [M-H]-
m/z	relative intensity	assigned
70.0298	2	C3H4NO-
82.0298	4	C4H4NO-
84.009	14	C3H2NO2-
84.0455	6	C4H6NO-
93.0347	9	C6H5O-
110.0248	15	C5H4NO2-
111.0007	50	C6H4Cl-
121.0296	215	C7H5O2-
122.0375	1	C7H6O2-
123.0089	6	C6H3O3-
125.0163	11	C7H6Cl-
134.0374	86	C8H6O2-
136.053	49	C8H8O2-
138.0323	2	C7H6O3-
143.0503	7	C10H7O-
145.0295	2	C9H5O2-
146.0373	10	C9H6O2-
147.045	1	C9H7O2-
149.0607	45	C9H9O2-
150.9956	83	C8H4ClO-
153.0112	999	C8H6ClO-
154.0066	6	C7H5ClNO-
154.9907	6	C7H4ClO2-
159.0451	10	C10H7O2-
160.053	24	C10H8O2-
161.0478	1	C9H7NO2-
167.0271	1	C9H8ClO-
168.0427	25	C8H8O4-
175.0759	1	C11H11O2-
176.0269	4	C10H7ClN-
177.0114	1	C10H6ClO-
179.0269	2	C10H8ClO-
192.0223	2	C10H7ClNO-
194.0377	26	C10H9ClNO-
204.022	31	C11H7ClNO-
217.0299	19	C12H8ClNO-
221.0247	1	C11H8ClNO2-
222.0327	24	C11H9ClNO2-
242.0377	1	C14H9ClNO-
259.0167	2	C14H8ClO3-
338.0597	2	C19H13ClNO3-
