Mass spectrum: Coumafuryl; LC-ESI-QFT; MS2; CE: 75; R=35000; [M-H]-
Name: Coumafuryl
Name: Fumarin
Name: 3-[1-(furan-2-yl)-3-oxobutyl]-4-hydroxychromen-2-one
Formula: C17H14O5
Exact mass: 298.08412
SMILES: O=C(C)CC(C=1C(=O)c2c(OC=1O)cccc2)c3occc3
InChI: InChI=1S/C17H14O5/c1-10(18)9-12(13-7-4-8-21-13)15-16(19)11-5-2-3-6-14(11)22-17(15)20/h2-8,12,19H,9H2,1H3
Instrument: Q Exactive Orbitrap Thermo Scientific
Instrument type: LC-ESI-QFT
Ms type: MS2
Ion mode: NEGATIVE
Ionization: ESI
Fragmentation mode: HCD
Collision energy: 75 (nominal)
Resolution: 35000
Column name: XBridge C18 3.5um, 2.1x50mm, Waters
Retention time: 9.0 min
Base peak: 297.0768
Precursor m/z: 297.0768
Precursor type: [M-H]-
m/z	relative intensity	assigned
57.0346	222	C3H5O-
65.0033	2	C4HO-
65.0398	5	C5H5-
67.0189	3	C4H3O-
69.0347	1	C4H5O-
79.0554	2	C6H7-
80.0268	2	C5H4O-
81.0346	15	C5H5O-
83.0139	9	C4H3O2-
91.0189	53	C6H3O-
92.0268	10	C6H4O-
93.0346	55	C6H5O-
95.0139	10	C5H3O2-
95.0503	6	C6H7O-
107.0503	71	C7H7O-
108.0217	34	C6H4O2-
109.0295	2	C6H5O2-
109.066	1	C7H9O-
117.0347	640	C8H5O-
119.0138	15	C7H3O2-
120.0218	5	C7H4O2-
121.0297	3	C7H5O2-
123.0454	13	C7H7O2-
131.0501	3	C9H7O-
133.0295	10	C8H5O2-
133.0659	5	C9H9O-
134.0373	2	C8H6O2-
135.0452	27	C8H7O2-
139.0552	1	C11H7-
143.0504	5	C10H7O-
145.0296	2	C9H5O2-
149.0607	46	C9H9O2-
155.0506	1	C11H7O-
157.0656	1	C11H9O-
159.0451	6	C10H7O2-
160.0164	1	C9H4O3-
161.0244	239	C9H5O3-
165.0709	2	C13H9-
167.0502	45	C12H7O-
169.066	3	C12H9O-
177.0556	7	C10H9O3-
181.066	8	C13H9O-
183.045	80	C12H7O2-
183.0813	6	C13H11O-
184.0528	2	C12H8O2-
185.024	4	C11H5O3-
185.0606	1	C12H9O2-
195.0451	36	C13H7O2-
197.0606	2	C13H9O2-
209.0609	11	C14H9O2-
210.0321	4	C13H6O3-
211.04	999	C13H7O3-
213.0558	2	C13H9O3-
225.056	5	C14H9O3-
237.0557	7	C15H9O3-
239.035	22	C14H7O4-
240.0428	10	C14H8O4-
