Mass spectrum: Coumafuryl; LC-ESI-QFT; MS2; CE: 30; R=35000; [M-H]-
Name: Coumafuryl
Name: Fumarin
Name: 3-[1-(furan-2-yl)-3-oxobutyl]-4-hydroxychromen-2-one
Formula: C17H14O5
Exact mass: 298.08412
SMILES: O=C(C)CC(C=1C(=O)c2c(OC=1O)cccc2)c3occc3
InChI: InChI=1S/C17H14O5/c1-10(18)9-12(13-7-4-8-21-13)15-16(19)11-5-2-3-6-14(11)22-17(15)20/h2-8,12,19H,9H2,1H3
Instrument: Q Exactive Orbitrap Thermo Scientific
Instrument type: LC-ESI-QFT
Ms type: MS2
Ion mode: NEGATIVE
Ionization: ESI
Fragmentation mode: HCD
Collision energy: 30 (nominal)
Resolution: 35000
Column name: XBridge C18 3.5um, 2.1x50mm, Waters
Retention time: 9.0 min
Base peak: 297.0768
Precursor m/z: 297.0768
Precursor type: [M-H]-
m/z	relative intensity	assigned
57.0346	59	C3H5O-
69.0346	2	C4H5O-
81.0346	3	C5H5O-
83.0139	5	C4H3O2-
93.0346	7	C6H5O-
95.0504	1	C6H7O-
108.0217	4	C6H4O2-
109.0659	4	C7H9O-
117.0346	27	C8H5O-
120.0215	1	C7H4O2-
123.0452	68	C7H7O2-
133.0658	2	C9H9O-
135.0452	6	C8H7O2-
149.0607	21	C9H9O2-
159.045	4	C10H7O2-
161.0244	999	C9H5O3-
174.0321	1	C10H6O3-
177.0556	80	C10H9O3-
183.0448	2	C12H7O2-
184.053	1	C12H8O2-
187.04	1	C11H7O3-
195.0452	12	C13H7O2-
199.0401	1	C12H7O3-
203.0344	4	C11H7O4-
206.0223	1	C10H6O5-
209.0611	4	C14H9O2-
211.04	38	C13H7O3-
211.0764	14	C14H11O2-
212.048	8	C13H8O3-
213.0557	26	C13H9O3-
215.0349	10	C12H7O4-
227.0713	5	C14H11O3-
235.0766	2	C16H11O2-
237.0556	5	C15H9O3-
239.0352	9	C14H7O4-
240.0428	619	C14H8O4-
251.0708	6	C16H11O3-
253.0507	5	C15H9O4-
253.0866	4	C16H13O3-
255.0662	20	C15H11O4-
261.056	1	C17H9O3-
269.082	7	C16H13O4-
279.066	15	C17H11O4-
297.0767	598	C17H13O5-
