Mass spectrum: Benthiavalicarb-isopropyl; LC-ESI-QFT; MS2; CE: 75; R=35000; [M-H]-
Name: Benthiavalicarb-isopropyl
Name: Isopropyl (1-{[1-(6-fluoro-1,3-benzothiazol-2-yl)ethyl]amino}-3-methyl-1-oxo-2-butanyl)carbamate
Name: propan-2-yl N-[(2S)-1-[[(1R)-1-(6-fluoro-1, 3-benzothiazol-2-yl)ethyl]amino]-3-methyl-1-oxobutan-2-yl]carbamate
Formula: C18H24FN3O3S
Exact mass: 381.15224
SMILES: CC(C)OC(=O)N[C@@H](C(C)C)C(=O)N[C@H](C)c1nc2ccc(F)cc2s1
InChI: InChI=1S/C18H24FN3O3S/c1-9(2)15(22-18(24)25-10(3)4)16(23)20-11(5)17-21-13-7-6-12(19)8-14(13)26-17/h6-11,15H,1-5H3,(H,20,23)(H,22,24)/t11-,15+/m1/s1
Instrument: Q Exactive Orbitrap Thermo Scientific
Instrument type: LC-ESI-QFT
Ms type: MS2
Ion mode: NEGATIVE
Ionization: ESI
Fragmentation mode: HCD
Collision energy: 75 (nominal)
Resolution: 35000
Column name: XBridge C18 3.5um, 2.1x50mm, Waters
Retention time: 10.8 min
Base peak: 320.0875
Precursor m/z: 380.145
Precursor type: [M-H]-
m/z	relative intensity	assigned
57.9756	333	CNS-
81.9756	3	C3NS-
83.0502	15	C5H7O-
97.0043	61	C3HN2O2-
120.0254	3	C7H3FN-
125.0355	1	C5H5N2O2-
131.9913	3	C7H2NS-
134.041	2	C8H5FN-
141.0054	16	C6H4FNS-
142.013	10	C6H5FNS-
151.9975	999	C7H3FNS-
166.0132	1	C8H5FNS-
167.9925	1	C7H3FNOS-
178.0132	5	C9H5FNS-
180.0289	30	C9H7FNS-
