Mass spectrum: Coumafuryl; LC-ESI-QFT; MS2; CE: 30; R=35000; [M+H]+
Name: Coumafuryl
Name: Fumarin
Name: 3-[1-(furan-2-yl)-3-oxobutyl]-4-hydroxychromen-2-one
Formula: C17H14O5
Exact mass: 298.08412
SMILES: CC(=O)CC(C1=CC=CO1)C2=C(C3=CC=CC=C3OC2=O)O
InChI: InChI=1S/C17H14O5/c1-10(18)9-12(13-7-4-8-21-13)15-16(19)11-5-2-3-6-14(11)22-17(15)20/h2-8,12,19H,9H2,1H3
Instrument: Q Exactive Orbitrap Thermo Scientific
Instrument type: LC-ESI-QFT
Ms type: MS2
Ion mode: POSITIVE
Ionization: ESI
Fragmentation mode: HCD
Collision energy: 30 (nominal)
Resolution: 35000
Column name: XBridge C18 3.5um, 2.1x50mm, Waters
Retention time: 9.0 min
Base peak: 299.0914
Precursor m/z: 299.0914
Precursor type: [M+H]+
m/z	relative intensity	assigned
95.0491	12	C6H7O+
121.0283	43	C7H5O2+
137.0597	257	C8H9O2+
141.0697	2	C11H9+
155.0338	7	C7H7O4+
161.0592	3	C10H9O2+
163.0389	211	C9H7O3+
189.0546	290	C11H9O3+
201.0546	2	C12H9O3+
213.0545	26	C13H9O3+
231.0652	34	C13H11O4+
239.0703	2	C15H11O3+
241.0495	999	C14H9O4+
243.065	2	C14H11O4+
253.086	5	C16H13O3+
255.065	11	C15H11O4+
281.081	3	C17H13O4+
299.0904	4	C17H15O5+
