Mass spectrum: Coumafuryl; LC-ESI-QFT; MS2; CE: 90; R=35000; [M-H]-
Name: Coumafuryl
Name: Fumarin
Name: 3-[1-(furan-2-yl)-3-oxobutyl]-4-hydroxychromen-2-one
Formula: C17H14O5
Exact mass: 298.08412
SMILES: CC(=O)CC(C1=CC=CO1)C2=C(C3=CC=CC=C3OC2=O)O
InChI: InChI=1S/C17H14O5/c1-10(18)9-12(13-7-4-8-21-13)15-16(19)11-5-2-3-6-14(11)22-17(15)20/h2-8,12,19H,9H2,1H3
Instrument: Q Exactive Orbitrap Thermo Scientific
Instrument type: LC-ESI-QFT
Ms type: MS2
Ion mode: NEGATIVE
Ionization: ESI
Fragmentation mode: HCD
Collision energy: 90 (nominal)
Resolution: 35000
Column name: XBridge C18 3.5um, 2.1x50mm, Waters
Retention time: 9.0 min
Base peak: 297.0768
Precursor m/z: 297.0768
Precursor type: [M-H]-
m/z	relative intensity	assigned
57.0346	221	C3H5O-
65.0033	23	C4HO-
65.0397	14	C5H5-
67.019	2	C4H3O-
69.0348	1	C4H5O-
80.0267	1	C5H4O-
81.0346	19	C5H5O-
83.0139	6	C4H3O2-
91.019	184	C6H3O-
92.0268	12	C6H4O-
93.0346	57	C6H5O-
95.0139	12	C5H3O2-
95.0502	5	C6H7O-
107.0503	63	C7H7O-
108.0218	36	C6H4O2-
109.0296	1	C6H5O2-
117.0347	676	C8H5O-
119.0139	22	C7H3O2-
120.0219	3	C7H4O2-
121.0295	2	C7H5O2-
123.0451	3	C7H7O2-
131.0501	2	C9H7O-
133.0298	11	C8H5O2-
133.0658	2	C9H9O-
135.0452	16	C8H7O2-
139.0553	7	C11H7-
143.0502	6	C10H7O-
145.0295	1	C9H5O2-
149.0608	15	C9H9O2-
155.0503	14	C11H7O-
159.0452	1	C10H7O2-
161.0244	73	C9H5O3-
167.0502	112	C12H7O-
169.0663	6	C12H9O-
181.0659	6	C13H9O-
183.0451	117	C12H7O2-
185.0246	6	C11H5O3-
195.0452	42	C13H7O2-
209.0608	6	C14H9O2-
210.0321	18	C13H6O3-
211.04	999	C13H7O3-
239.0352	8	C14H7O4-
