Mass spectrum: Mandipropamid; LC-ESI-QFT; MS2; CE: 60; R=35000; [M-H]-
Name: Mandipropamid
Name: 2-(4-Chlorophenyl)-N-{2-[3-methoxy-4-(2-propyn-1-yloxy)phenyl]ethyl}-2-(2-propyn-1-yloxy)acetamide
Formula: C23H22ClNO4
Exact mass: 411.12374
SMILES: Clc1ccc(cc1)C(OCC#C)C(=O)NCCc2ccc(OCC#C)c(OC)c2
InChI: InChI=1S/C23H22ClNO4/c1-4-14-28-20-11-6-17(16-21(20)27-3)12-13-25-23(26)22(29-15-5-2)18-7-9-19(24)10-8-18/h1-2,6-11,16,22H,12-15H2,3H3,(H,25,26)
Instrument: Q Exactive Orbitrap Thermo Scientific
Instrument type: LC-ESI-QFT
Ms type: MS2
Ion mode: NEGATIVE
Ionization: ESI
Fragmentation mode: HCD
Collision energy: 60 (nominal)
Resolution: 35000
Column name: XBridge C18 3.5um, 2.1x50mm, Waters
Retention time: 10.7 min
Base peak: 456.1224
Precursor m/z: 410.1165
Precursor type: [M-H]-
m/z	relative intensity	assigned
68.0143	1	C3H2NO-
70.0299	3	C3H4NO-
82.0299	9	C4H4NO-
84.009	13	C3H2NO2-
93.0346	40	C6H5O-
110.0248	24	C5H4NO2-
111.0008	129	C6H4Cl-
121.0296	540	C7H5O2-
122.0373	2	C7H6O2-
123.009	3	C6H3O3-
125.0162	9	C7H6Cl-
134.0374	176	C8H6O2-
136.0529	28	C8H8O2-
143.0503	9	C10H7O-
145.0294	2	C9H5O2-
146.0373	9	C9H6O2-
148.0407	1	C8H6NO2-
149.0607	24	C9H9O2-
150.9956	117	C8H4ClO-
153.0112	999	C8H6ClO-
154.9906	16	C7H4ClO2-
159.0452	11	C10H7O2-
160.053	18	C10H8O2-
161.0488	1	C9H7NO2-
167.0268	2	C9H8ClO-
168.0427	15	C8H8O4-
176.028	2	C10H7ClN-
177.0114	2	C10H6ClO-
192.022	2	C10H7ClNO-
194.0379	16	C10H9ClNO-
204.0223	41	C11H7ClNO-
217.0302	11	C12H8ClNO-
218.0381	2	C12H9ClNO-
222.0329	9	C11H9ClNO2-
