Mass spectrum: Bromofenoxim; LC-ESI-QFT; MS2; CE: 15; R=35000; [M-H]-
Name: Bromofenoxim
Name: 2,6-dibromo-4-[[(2,4-dinitrophenoxy)amino]methylidene]cyclohexa-2, 5-dien-1-one
Formula: C13H7Br2N3O6
Exact mass: 458.87016
SMILES: C1=CC(=C(C=C1[N+](=O)[O-])[N+](=O)[O-])ONC=C2C=C(C(=O)C(=C2)Br)Br
InChI: InChI=1S/C13H7Br2N3O6/c14-9-3-7(4-10(15)13(9)19)6-16-24-12-2-1-8(17(20)21)5-11(12)18(22)23/h1-6,19H/b16-6+
Instrument: Q Exactive Orbitrap Thermo Scientific
Instrument type: LC-ESI-QFT
Ms type: MS2
Ion mode: NEGATIVE
Ionization: ESI
Fragmentation mode: HCD
Collision energy: 15 (nominal)
Resolution: 35000
Column name: XBridge C18 3.5um, 2.1x50mm, Waters
Retention time: 14.8 min
Base peak: 183.0047
Precursor m/z: 457.8629
Precursor type: [M-H]-
m/z	relative intensity	assigned
78.9189	102	Br-
123.0089	6	C6H3O3-
153.0068	3	C6H3NO4-
183.0047	999	C6H3N2O5-
273.8511	545	C7H2Br2NO-
