Mass spectrum: Xylometazoline; LC-ESI-QFT; MS2; CE: 15; R=35000; [M+H]+
Name: Xylometazoline
Name: 2-(4-tert-butyl-2,6-dimethyl-benzyl)-2-imidazoline
Formula: C16H24N2
Exact mass: 244.19395
SMILES: CC1=CC(=CC(=C1CC2=NCCN2)C)C(C)(C)C
InChI: InChI=1S/C16H24N2/c1-11-8-13(16(3,4)5)9-12(2)14(11)10-15-17-6-7-18-15/h8-9H,6-7,10H2,1-5H3,(H,17,18)
Instrument: Q Exactive Orbitrap Thermo Scientific
Instrument type: LC-ESI-QFT
Ms type: MS2
Ion mode: POSITIVE
Ionization: ESI
Fragmentation mode: HCD
Collision energy: 15 (nominal)
Resolution: 35000
Column name: XBridge C18 3.5um, 2.1x50mm, Waters
Retention time: 8.0 min
Base peak: 245.2014
Precursor m/z: 245.2012
Precursor type: [M+H]+
m/z	relative intensity	assigned
115.0544	1	C9H7+
145.1008	1	C11H13+
189.1387	1	C12H17N2+
245.2012	999	C16H25N2+
