Mass spectrum: Mandipropamid; LC-ESI-QFT; MS2; CE: 60; R=35000; [M+H]+
Name: Mandipropamid
Name: 2-(4-Chlorophenyl)-N-{2-[3-methoxy-4-(2-propyn-1-yloxy)phenyl]ethyl}-2-(2-propyn-1-yloxy)acetamide
Formula: C23H22ClNO4
Exact mass: 411.12374
SMILES: Clc1ccc(cc1)C(OCC#C)C(=O)NCCc2ccc(OCC#C)c(OC)c2
InChI: InChI=1S/C23H22ClNO4/c1-4-14-28-20-11-6-17(16-21(20)27-3)12-13-25-23(26)22(29-15-5-2)18-7-9-19(24)10-8-18/h1-2,6-11,16,22H,12-15H2,3H3,(H,25,26)
Instrument: Q Exactive Orbitrap Thermo Scientific
Instrument type: LC-ESI-QFT
Ms type: MS2
Ion mode: POSITIVE
Ionization: ESI
Fragmentation mode: HCD
Collision energy: 60 (nominal)
Resolution: 35000
Column name: XBridge C18 3.5um, 2.1x50mm, Waters
Retention time: 10.7 min
Base peak: 412.1311
Precursor m/z: 412.131
Precursor type: [M+H]+
m/z	relative intensity	assigned
68.0494	3	C4H6N+
69.0335	1	C4H5O+
77.0385	1	C6H5+
79.0543	3	C6H7+
83.049	1	C5H7O+
89.0384	9	C7H5+
90.0462	1	C7H6+
91.0542	55	C7H7+
93.0698	3	C7H9+
94.065	1	C6H8N+
95.0491	5	C6H7O+
98.9995	3	C5H4Cl+
103.0542	9	C8H7+
104.062	1	C8H8+
105.0334	1	C7H5O+
105.0698	13	C8H9+
106.0651	1	C7H8N+
107.049	9	C7H7O+
109.0647	1	C7H9O+
113.0151	1	C6H6Cl+
115.0541	21	C9H7+
116.0619	16	C9H8+
117.0571	3	C8H7N+
117.0697	23	C9H9+
118.0412	1	C8H6O+
118.065	25	C8H8N+
118.0774	6	C9H10+
119.0491	9	C8H7O+
119.0728	12	C8H9N+
119.0855	4	C9H11+
120.0567	6	C8H8O+
121.0647	27	C8H9O+
122.0601	4	C7H8NO+
122.0725	1	C8H10O+
123.044	4	C7H7O2+
124.0759	1	C7H10NO+
125.0152	999	C7H6Cl+
127.054	1	C10H7+
128.0619	33	C10H8+
129.0698	35	C10H9+
130.0652	5	C9H8N+
130.0777	2	C10H10+
131.0492	25	C9H7O+
131.0728	3	C9H9N+
131.0856	9	C10H11+
132.0445	4	C8H6NO+
132.0571	6	C9H8O+
132.0807	3	C9H10N+
133.0521	4	C8H7NO+
133.065	5	C9H9O+
134.06	7	C8H8NO+
135.044	22	C8H7O2+
135.0803	1	C9H11O+
136.0519	3	C8H8O2+
136.0757	18	C8H10NO+
137.0596	10	C8H9O2+
138.0676	1	C8H10O2+
138.9945	14	C7H4ClO+
139.0312	1	C8H8Cl+
140.026	31	C7H7ClN+
141.0697	1	C11H9+
143.0728	6	C10H9N+
144.057	12	C10H8O+
144.0808	16	C10H10N+
145.0647	36	C10H9O+
145.0885	4	C10H11N+
146.06	20	C9H8NO+
146.0725	24	C10H10O+
147.0441	12	C9H7O2+
147.0678	16	C9H9NO+
147.0803	1	C10H11O+
148.0518	65	C9H8O2+
148.0756	14	C9H10NO+
149.0152	8	C9H6Cl+
149.0596	15	C9H9O2+
149.0838	1	C9H11NO+
149.096	1	C10H13O+
150.0548	24	C8H8NO2+
150.0675	20	C9H10O2+
151.0753	7	C9H11O2+
152.0023	1	C8H5ClO+
152.026	16	C8H7ClN+
153.0341	3	C8H8ClN+
155.0493	1	C11H7O+
155.0603	6	C10H7N2+
156.0571	1	C11H8O+
156.0805	1	C11H10N+
157.0646	10	C11H9O+
158.0599	1	C10H8NO+
158.0727	9	C11H10O+
159.0442	3	C10H7O2+
159.0678	5	C10H9NO+
159.0804	4	C11H11O+
160.0519	4	C10H8O2+
160.0758	11	C10H10NO+
161.0597	11	C10H9O2+
161.0835	4	C10H11NO+
161.096	10	C11H13O+
162.0548	13	C9H8NO2+
163.031	1	C10H8Cl+
163.0627	3	C9H9NO2+
164.0705	73	C9H10NO2+
165.0702	4	C13H9+
165.0783	40	C9H11NO2+
166.0775	1	C13H10+
170.0599	3	C11H8NO+
172.0517	2	C11H8O2+
172.0756	9	C11H10NO+
173.0598	1	C11H9O2+
173.0836	10	C11H11NO+
174.0674	5	C11H10O2+
174.0912	1	C11H12NO+
175.031	1	C11H8Cl+
175.0754	4	C11H11O2+
176.0705	18	C10H10NO2+
177.0783	14	C10H11NO2+
178.0778	6	C14H10+
178.0858	1	C10H12NO2+
179.0854	6	C14H11+
180.021	3	C9H7ClNO+
180.0934	1	C14H12+
184.0757	3	C12H10NO+
185.0835	1	C12H11NO+
187.0754	5	C12H11O2+
188.0705	3	C11H10NO2+
188.107	8	C12H14NO+
189.0697	3	C15H9+
189.078	1	C11H11NO2+
189.0911	5	C12H13O2+
190.0777	4	C15H10+
191.0855	9	C15H11+
192.0931	3	C15H12+
193.065	1	C14H9O+
193.1016	3	C15H13+
194.0725	3	C14H10O+
195.0801	3	C14H11O+
197.0957	3	C14H13O+
199.0308	1	C13H8Cl+
200.038	1	C13H9Cl+
201.0469	3	C13H10Cl+
202.0778	6	C16H10+
202.0862	1	C12H12NO2+
203.0853	14	C16H11+
203.0936	1	C12H13NO2+
204.0933	10	C16H12+
204.1023	9	C12H14NO2+
205.1011	9	C16H13+
206.0815	1	C11H12NO3+
206.1092	3	C16H14+
207.0804	11	C15H11O+
208.0882	16	C15H12O+
209.0961	4	C15H13O+
212.0388	3	C14H9Cl+
213.046	7	C14H10Cl+
215.026	1	C13H8ClO+
215.0855	12	C17H11+
216.0931	11	C17H12+
216.1022	1	C13H14NO2+
217.1014	7	C17H13+
218.0735	1	C13H13ClN+
218.0972	1	C16H12N+
218.1094	4	C17H14+
219.0805	4	C16H11O+
220.0879	1	C16H12O+
221.0961	9	C16H13O+
224.0832	1	C15H12O2+
225.0468	6	C15H10Cl+
225.0909	18	C15H13O2+
226.0539	5	C15H11Cl+
228.0338	4	C14H9ClO+
228.0575	1	C14H11ClN+
229.0415	15	C14H10ClO+
230.0497	1	C14H11ClO+
231.0568	1	C14H12ClO+
231.0806	5	C17H11O+
232.0881	5	C17H12O+
233.0961	9	C17H13O+
235.0992	3	C16H13NO+
236.1071	7	C16H14NO+
237.0913	6	C13H16ClNO+
239.0621	3	C16H12Cl+
240.0339	3	C15H9ClO+
241.0411	6	C15H10ClO+
242.0491	3	C15H11ClO+
242.0737	3	C15H13ClN+
243.0569	12	C15H12ClO+
243.081	1	C15H14ClN+
244.0881	5	C18H12O+
248.119	1	C18H16O+
251.0625	4	C17H12Cl+
253.042	1	C16H10ClO+
253.0652	1	C16H12ClN+
254.05	1	C16H11ClO+
255.0565	5	C16H12ClO+
256.0528	1	C15H11ClNO+
256.0651	5	C16H13ClO+
257.0362	10	C15H10ClO2+
258.0685	3	C15H13ClNO+
259.0516	2	C15H12ClO2+
260.0596	1	C15H13ClO2+
261.0908	4	C18H13O2+
264.1024	1	C17H14NO2+
267.0564	2	C17H12ClO+
268.065	1	C17H13ClO+
270.0678	3	C16H13ClNO+
271.0519	5	C16H12ClO2+
272.0596	7	C16H13ClO2+
279.0572	7	C18H12ClO+
280.0647	1	C18H13ClO+
283.0891	1	C18H16ClO+
288.0788	8	C16H15ClNO2+
298.0631	3	C17H13ClNO2+
300.0786	10	C17H15ClNO2+
