Mass spectrum: Perindopril; LC-ESI-QFT; MS2; CE: 75; R=35000; [M+H]+
Name: Perindopril
Name: Coversyl
Name: (2S,3aS, 7aS)-1-[(2S)-2-[[(2S)-1-ethoxy-1-oxopentan-2-yl]amino]propanoyl]-2,3,3a, 4,5,6,7,7a-octahydroindole-2-carboxylic acid
Formula: C19H32N2O5
Exact mass: 368.23112
SMILES: CCCC(C(=O)OCC)NC(C)C(=O)N1C2CCCCC2CC1C(=O)O
InChI: InChI=1S/C19H32N2O5/c1-4-8-14(19(25)26-5-2)20-12(3)17(22)21-15-10-7-6-9-13(15)11-16(21)18(23)24/h12-16,20H,4-11H2,1-3H3,(H,23,24)
Instrument: Q Exactive Orbitrap Thermo Scientific
Instrument type: LC-ESI-QFT
Ms type: MS2
Ion mode: POSITIVE
Ionization: ESI
Fragmentation mode: HCD
Collision energy: 75 (nominal)
Resolution: 35000
Column name: XBridge C18 3.5um, 2.1x50mm, Waters
Retention time: 7.4 min
Base peak: 369.2391
Precursor m/z: 369.2384
Precursor type: [M+H]+
m/z	relative intensity	assigned
53.0388	1	C4H5+
55.0544	8	C4H7+
56.0496	99	C3H6N+
69.07	38	C5H9+
70.0652	19	C4H8N+
72.0808	135	C4H10N+
73.0649	33	C4H9O+
74.0237	44	C2H4NO2+
79.0543	6	C6H7+
81.07	28	C6H9+
96.0809	1	C6H10N+
97.1013	2	C7H13+
98.0966	999	C6H12N+
100.1122	2	C6H14N+
102.0551	3	C4H8NO2+
107.0857	3	C8H11+
124.1122	72	C8H14N+
130.0865	6	C6H12NO2+
144.1021	6	C7H14NO2+
152.1073	2	C9H14NO+
168.1025	1	C9H14NO2+
170.1177	28	C9H16NO2+
172.1334	45	C9H18NO2+
