Mass spectrum: Cycloxydim; LC-ESI-QFT; MS2; CE: 75; R=35000; [M-H]-
Name: Cycloxydim
Name: 2-[(1E)-N-Ethoxybutanimidoyl]-3-hydroxy-5-(tetrahydro-2H-thiopyran-3-yl)-2-cyclohexen-1-one
Formula: C17H27NO3S
Exact mass: 325.17116
SMILES: O=C2C(\C(=O)CC(C1CCCSC1)C2)=C(\NOCC)CCC
InChI: InChI=1S/C17H27NO3S/c1-3-6-14(18-21-4-2)17-15(19)9-13(10-16(17)20)12-7-5-8-22-11-12/h12-13,19H,3-11H2,1-2H3/b18-14+
Instrument: Q Exactive Orbitrap Thermo Scientific
Instrument type: LC-ESI-QFT
Ms type: MS2
Ion mode: NEGATIVE
Ionization: ESI
Fragmentation mode: HCD
Collision energy: 75 (nominal)
Resolution: 35000
Column name: XBridge C18 3.5um, 2.1x50mm, Waters
Retention time: 14.3 min
Base peak: 324.164
Precursor m/z: 324.1639
Precursor type: [M-H]-
m/z	relative intensity	assigned
58.9961	7	C2H3S-
60.9753	1	CHOS-
65.0397	1	C5H5-
65.9985	62	C3NO-
67.0189	3	C4H3O-
68.0142	5	C3H2NO-
69.0346	44	C4H5O-
78.035	2	C5H4N-
80.0268	2	C5H4O-
82.0298	20	C4H4NO-
85.0118	1	C4H5S-
92.0507	5	C6H6N-
94.0299	5	C5H4NO-
95.0139	47	C5H3O2-
101.0431	20	C5H9S-
106.0663	2	C7H8N-
107.0378	2	C6H5NO-
107.0503	2	C7H7O-
108.0217	27	C6H4O2-
108.0454	1	C6H6NO-
109.0296	18	C6H5O2-
110.0613	3	C6H8NO-
118.03	2	C7H4NO-
120.0091	57	C6H2NO2-
120.0455	4	C7H6NO-
121.017	1	C6H3NO2-
121.0659	8	C8H9O-
131.0374	3	C8H5NO-
132.0455	2	C8H6NO-
133.0659	1	C9H9O-
134.0248	201	C7H4NO2-
135.0325	18	C7H5NO2-
135.0453	1	C8H7O2-
136.0402	6	C7H6NO2-
138.0382	2	C7H8NS-
140.054	47	C7H10NS-
146.0246	1	C8H4NO2-
147.0325	1	C8H5NO2-
148.0764	3	C9H10NO-
149.0606	1	C9H9O2-
150.0196	5	C7H4NO3-
158.0611	5	C10H8NO-
160.0404	5	C9H6NO2-
160.0769	2	C10H10NO-
162.056	10	C9H8NO2-
163.0765	1	C10H11O2-
166.0334	3	C8H8NOS-
167.0224	9	C7H5NO4-
167.0535	18	C9H11OS-
168.0489	1	C8H10NOS-
169.0692	7	C9H13OS-
174.056	2	C10H8NO2-
176.0717	5	C10H10NO2-
178.0873	1	C10H12NO2-
192.049	115	C10H10NOS-
194.0644	86	C10H12NOS-
202.0873	3	C12H12NO2-
209.064	2	C11H13O2S-
236.075	999	C12H14NO2S-
237.0948	2	C13H17O2S-
249.0833	2	C13H15NO2S-
264.1059	1	C14H18NO2S-
278.1224	1	C15H20NO2S-
280.1379	1	C15H22NO2S-
