Mass spectrum: Azobenzol; LC-ESI-QFT; MS2; CE: 45; R=35000; [M+H]+
Name: Azobenzol
Name: Fentoxan
Name: [(Z)-Phenyl-NNO-azoxy]benzene
Formula: C12H10N2O
Exact mass: 198.07931
SMILES: c1(\[N+](=N\c2ccccc2)[O-])ccccc1
InChI: InChI=1S/C12H10N2O/c15-14(12-9-5-2-6-10-12)13-11-7-3-1-4-8-11/h1-10H
Instrument: Q Exactive Orbitrap Thermo Scientific
Instrument type: LC-ESI-QFT
Ms type: MS2
Ion mode: POSITIVE
Ionization: ESI
Fragmentation mode: HCD
Collision energy: 45 (nominal)
Resolution: 35000
Column name: XBridge C18 3.5um, 2.1x50mm, Waters
Retention time: 13.2 min
Base peak: 149.0234
Precursor m/z: 199.0866
Precursor type: [M+H]+
m/z	relative intensity	assigned
53.0023	7	C3HO+
53.0386	3	C4H5+
55.0543	34	C4H7+
57.0336	7	C3H5O+
57.07	39	C4H9+
59.0492	8	C3H7O+
65.0386	8	C5H5+
67.0542	60	C5H7+
69.0699	999	C5H9+
71.0491	48	C4H7O+
71.0856	22	C5H11+
72.0444	13	C3H6NO+
73.0284	3	C3H5O2+
73.0648	8	C4H9O+
77.0385	16	C6H5+
79.0542	34	C6H7+
81.0699	73	C6H9+
83.0491	22	C5H7O+
83.0856	129	C6H11+
85.0285	2	C4H5O2+
85.0649	24	C5H9O+
87.0806	1	C5H11O+
89.0598	11	C4H9O2+
91.0542	15	C7H7+
92.0495	140	C6H6N+
93.0699	58	C7H9+
95.0492	97	C6H7O+
95.0855	53	C7H11+
97.0283	2	C5H5O2+
97.0649	49	C6H9O+
99.0441	10	C5H7O2+
99.0805	13	C6H11O+
100.0758	34	C5H10NO+
101.0597	2	C5H9O2+
105.0335	23	C7H5O+
105.0448	67	C6H5N2+
105.0699	8	C8H9+
107.0856	65	C8H11+
109.0646	11	C7H9O+
111.0441	63	C6H7O2+
111.0804	33	C7H11O+
113.0596	3	C6H9O2+
114.0661	2	C4H8N3O+
115.0754	2	C6H11O2+
117.07	3	C9H9+
119.0856	6	C9H11+
121.0285	6	C7H5O2+
121.0647	10	C8H9O+
123.0804	14	C8H11O+
125.0596	9	C7H9O2+
129.0699	8	C10H9+
130.0735	12	C5H10N2O2+
135.0805	11	C9H11O+
139.0755	21	C8H11O2+
142.0779	2	C11H10+
143.0857	9	C11H11+
156.081	2	C11H10N+
163.0757	6	C10H11O2+
182.0838	17	C12H10N2+
199.0869	3	C12H11N2O+
