Mass spectrum: Naptalam; LC-ESI-QFT; MS2; CE: 60; R=35000; [M-H]-
Name: Naptalam
Name:  2-(1-naphthylcarbamoyl)benzoic acid
Formula: C18H13NO3
Exact mass: 291.08954
SMILES: O=C(O)c1ccccc1C(=O)Nc3cccc2ccccc23
InChI: InChI=1S/C18H13NO3/c20-17(14-9-3-4-10-15(14)18(21)22)19-16-11-5-7-12-6-1-2-8-13(12)16/h1-11H,(H,19,20)(H,21,22)
Instrument: Q Exactive Orbitrap Thermo Scientific
Instrument type: LC-ESI-QFT
Ms type: MS2
Ion mode: NEGATIVE
Ionization: ESI
Fragmentation mode: HCD
Collision energy: 60 (nominal)
Resolution: 35000
Column name: XBridge C18 3.5um, 2.1x50mm, Waters
Retention time: 7.3 min
Base peak: 290.0822
Precursor m/z: 290.0823
Precursor type: [M-H]-
m/z	relative intensity	assigned
93.0346	2	C6H5O-
115.0554	2	C9H7-
142.0661	999	C10H8N-
143.0501	70	C10H7O-
168.0454	393	C11H6NO-
216.0819	18	C16H10N-
218.0974	40	C16H12N-
227.0739	40	C17H9N-
228.0818	104	C17H10N-
244.0765	19	C17H10NO-
246.0923	934	C17H12NO-
