Mass spectrum: Imidacloprid-guanidine; LC-ESI-QFT; MS2; CE: 30; R=35000; [M+H]+
Name: Imidacloprid-guanidine
Name: Desnitro-imidacloprid
Name: 1-[(6-Chloro-3-pyridinyl)methyl]-4,5-dihydro-1H-imidazol-2-amine
Formula: C9H11ClN4
Exact mass: 210.06722
SMILES: Clc1ncc(cc1)CN2\C(=N/CC2)N
InChI: InChI=1S/C9H11ClN4/c10-8-2-1-7(5-13-8)6-14-4-3-12-9(14)11/h1-2,5H,3-4,6H2,(H2,11,12)
Instrument: Q Exactive Orbitrap Thermo Scientific
Instrument type: LC-ESI-QFT
Ms type: MS2
Ion mode: POSITIVE
Ionization: ESI
Fragmentation mode: HCD
Collision energy: 30 (nominal)
Resolution: 35000
Column name: XBridge C18 3.5um, 2.1x50mm, Waters
Retention time: 2.4 min
Base peak: 211.0747
Precursor m/z: 211.0745
Precursor type: [M+H]+
m/z	relative intensity	assigned
84.0556	26	C3H6N3+
90.0338	1	C6H4N+
98.9993	1	C5H4Cl+
126.0104	103	C6H5ClN+
133.0761	6	C8H9N2+
168.032	1	C7H7ClN3+
169.0527	3	C8H10ClN2+
175.0979	36	C9H11N4+
194.048	4	C9H9ClN3+
211.0745	999	C9H12ClN4+
