Mass spectrum: Cycloxydim; LC-ESI-QFT; MS2; CE: 60; R=35000; [M-H]-
Name: Cycloxydim
Name: 2-[(1E)-N-Ethoxybutanimidoyl]-3-hydroxy-5-(tetrahydro-2H-thiopyran-3-yl)-2-cyclohexen-1-one
Formula: C17H27NO3S
Exact mass: 325.17116
SMILES: CCC/C(=N\OCC)/C1=C(CC(CC1=O)C2CCCSC2)O
InChI: InChI=1S/C17H27NO3S/c1-3-6-14(18-21-4-2)17-15(19)9-13(10-16(17)20)12-7-5-8-22-11-12/h12-13,19H,3-11H2,1-2H3/b18-14+
Instrument: Q Exactive Orbitrap Thermo Scientific
Instrument type: LC-ESI-QFT
Ms type: MS2
Ion mode: NEGATIVE
Ionization: ESI
Fragmentation mode: HCD
Collision energy: 60 (nominal)
Resolution: 35000
Column name: XBridge C18 3.5um, 2.1x50mm, Waters
Retention time: 14.3 min
Base peak: 324.164
Precursor m/z: 324.1639
Precursor type: [M-H]-
m/z	relative intensity	assigned
58.996	3	C2H3S-
65.9984	13	C3NO-
68.0142	1	C3H2NO-
68.0506	1	C4H6N-
69.0346	11	C4H5O-
78.035	1	C5H4N-
82.0299	3	C4H4NO-
95.0139	14	C5H3O2-
101.0431	10	C5H9S-
106.0662	1	C7H8N-
107.0377	1	C6H5NO-
107.0503	1	C7H7O-
108.0217	23	C6H4O2-
109.0295	9	C6H5O2-
110.0611	2	C6H8NO-
120.0091	7	C6H2NO2-
121.0658	3	C8H9O-
123.0816	1	C8H11O-
126.0924	1	C7H12NO-
134.0247	43	C7H4NO2-
135.0324	3	C7H5NO2-
136.0404	2	C7H6NO2-
140.0539	12	C7H10NS-
147.0324	1	C8H5NO2-
148.077	1	C9H10NO-
149.0609	2	C9H9O2-
158.061	1	C10H8NO-
160.0402	1	C9H6NO2-
160.077	1	C10H10NO-
162.0558	3	C9H8NO2-
162.0924	1	C10H12NO-
166.0329	1	C8H8NOS-
167.0223	1	C7H5NO4-
167.0535	6	C9H11OS-
169.0693	13	C9H13OS-
176.0716	14	C10H10NO2-
177.0792	1	C10H11NO2-
178.0875	1	C10H12NO2-
190.1236	1	C12H16NO-
192.0489	40	C10H10NOS-
194.0644	28	C10H12NOS-
200.1083	1	C13H14NO-
202.0873	1	C12H12NO2-
208.0797	1	C11H14NOS-
211.0795	1	C11H15O2S-
234.0961	1	C13H16NOS-
236.075	999	C12H14NO2S-
237.0953	2	C13H17O2S-
249.0831	1	C13H15NO2S-
252.1059	1	C13H18NO2S-
264.1062	2	C14H18NO2S-
278.1219	15	C15H20NO2S-
280.1377	8	C15H22NO2S-
