Mass spectrum: Azobenzol; LC-ESI-QFT; MS2; CE: 30; R=35000; [M+H]+
Name: Azobenzol
Name: Fentoxan
Name: [(Z)-Phenyl-NNO-azoxy]benzene
Formula: C12H10N2O
Exact mass: 198.07931
SMILES: c1(\[N+](=N\c2ccccc2)[O-])ccccc1
InChI: InChI=1S/C12H10N2O/c15-14(12-9-5-2-6-10-12)13-11-7-3-1-4-8-11/h1-10H
Instrument: Q Exactive Orbitrap Thermo Scientific
Instrument type: LC-ESI-QFT
Ms type: MS2
Ion mode: POSITIVE
Ionization: ESI
Fragmentation mode: HCD
Collision energy: 30 (nominal)
Resolution: 35000
Column name: XBridge C18 3.5um, 2.1x50mm, Waters
Retention time: 13.2 min
Base peak: 149.0234
Precursor m/z: 199.0866
Precursor type: [M+H]+
m/z	relative intensity	assigned
53.0386	2	C4H5+
55.0543	20	C4H7+
57.0335	4	C3H5O+
57.0699	37	C4H9+
59.0491	2	C3H7O+
65.0386	4	C5H5+
67.0542	41	C5H7+
69.0699	999	C5H9+
71.0491	65	C4H7O+
71.0855	30	C5H11+
72.0444	5	C3H6NO+
73.0284	11	C3H5O2+
73.0647	8	C4H9O+
77.0385	12	C6H5+
79.0542	15	C6H7+
81.0699	64	C6H9+
83.0491	12	C5H7O+
83.0855	143	C6H11+
85.0285	4	C4H5O2+
85.0648	36	C5H9O+
87.0441	2	C4H7O2+
87.0804	2	C5H11O+
89.0598	19	C4H9O2+
91.0542	3	C7H7+
92.0495	177	C6H6N+
93.0699	49	C7H9+
95.0492	40	C6H7O+
95.0855	72	C7H11+
97.0648	41	C6H9O+
99.044	18	C5H7O2+
99.0804	22	C6H11O+
100.0757	29	C5H10NO+
101.0597	9	C5H9O2+
105.0335	29	C7H5O+
105.0448	59	C6H5N2+
105.0699	4	C8H9+
107.0856	73	C8H11+
109.0648	13	C7H9O+
111.0441	92	C6H7O2+
111.0805	55	C7H11O+
113.0597	9	C6H9O2+
115.0755	12	C6H11O2+
117.0698	2	C9H9+
119.0854	4	C9H11+
121.0648	9	C8H9O+
123.0804	16	C8H11O+
125.0597	16	C7H9O2+
127.0754	5	C7H11O2+
129.0695	2	C10H9+
130.0733	8	C5H10N2O2+
135.0805	19	C9H11O+
139.0753	38	C8H11O2+
143.0856	4	C11H11+
163.0753	9	C10H11O2+
169.0887	2	C12H11N+
182.0839	84	C12H10N2+
199.0866	63	C12H11N2O+
