Mass spectrum: Dichlorvos; LC-ESI-QFT; MS2; CE: 45; R=35000; [M-H]-
Name: Dichlorvos
Name: DDVP
Name:  2,2-bis(chloranyl)ethenyl dimethyl phosphate
Formula: C4H7Cl2O4P
Exact mass: 219.94590
SMILES: O=P(O\C=C(/Cl)Cl)(OC)OC
InChI: InChI=1S/C4H7Cl2O4P/c1-8-11(7,9-2)10-3-4(5)6/h3H,1-2H3
Instrument: Q Exactive Orbitrap Thermo Scientific
Instrument type: LC-ESI-QFT
Ms type: MS2
Ion mode: NEGATIVE
Ionization: ESI
Fragmentation mode: HCD
Collision energy: 45 (nominal)
Resolution: 35000
Column name: XBridge C18 3.5um, 2.1x50mm, Waters
Retention time: 7.1 min
Base peak: 218.0312
Precursor m/z: 218.9386
Precursor type: [M-H]-
m/z	relative intensity	assigned
89.0244	97	C3H5O3-
131.0136	999	C4H6NO2P-
