Mass spectrum: Sulpiride; LC-ESI-QFT; MS2; CE: 75; R=35000; [M-H]-
Name: Sulpiride
Name: Sulpirid
Name: N-[(1-ethyl-2-pyrrolidinyl)methyl]-2-methoxy-5-sulfamoylbenzamide
Formula: C15H23N3O4S
Exact mass: 341.14093
SMILES: CCN1CCCC1CNC(=O)C2=C(C=CC(=C2)S(=O)(=O)N)OC
InChI: InChI=1S/C15H23N3O4S/c1-3-18-8-4-5-11(18)10-17-15(19)13-9-12(23(16,20)21)6-7-14(13)22-2/h6-7,9,11H,3-5,8,10H2,1-2H3,(H,17,19)(H2,16,20,21)
Instrument: Q Exactive Orbitrap Thermo Scientific
Instrument type: LC-ESI-QFT
Ms type: MS2
Ion mode: NEGATIVE
Ionization: ESI
Fragmentation mode: HCD
Collision energy: 75 (nominal)
Resolution: 35000
Column name: XBridge C18 3.5um, 2.1x50mm, Waters
Retention time: 1.7 min
Base peak: 340.1337
Precursor m/z: 340.1337
Precursor type: [M-H]-
m/z	relative intensity	assigned
61.9706	195	NOS-
63.9624	112	O2S-
77.9655	19	NO2S-
78.9733	17	HNO2S-
79.9811	999	H2NO2S-
92.0506	112	C6H6N-
93.0346	9	C6H5O-
93.9604	10	NO3S-
106.0298	3	C6H4NO-
107.0376	3	C6H5NO-
107.0502	1	C7H7O-
120.0455	26	C7H6NO-
122.0612	4	C7H8NO-
139.9938	7	C6H4O2S-
148.0404	2	C8H6NO2-
156.0125	432	C6H6NO2S-
163.0514	7	C8H7N2O2-
261.1482	14	C14H19N3O2-
