Mass spectrum: Cycloxydim; LC-ESI-QFT; MS2; CE: 60; R=35000; [M+H]+
Name: Cycloxydim
Name: 2-[(1E)-N-Ethoxybutanimidoyl]-3-hydroxy-5-(tetrahydro-2H-thiopyran-3-yl)-2-cyclohexen-1-one
Formula: C17H27NO3S
Exact mass: 325.17116
SMILES: CCC/C(=N\OCC)/C1=C(CC(CC1=O)C2CCCSC2)O
InChI: InChI=1S/C17H27NO3S/c1-3-6-14(18-21-4-2)17-15(19)9-13(10-16(17)20)12-7-5-8-22-11-12/h12-13,19H,3-11H2,1-2H3/b18-14+
Instrument: Q Exactive Orbitrap Thermo Scientific
Instrument type: LC-ESI-QFT
Ms type: MS2
Ion mode: POSITIVE
Ionization: ESI
Fragmentation mode: HCD
Collision energy: 60 (nominal)
Resolution: 35000
Column name: XBridge C18 3.5um, 2.1x50mm, Waters
Retention time: 14.3 min
Base peak: 326.1785
Precursor m/z: 326.1784
Precursor type: [M+H]+
m/z	relative intensity	assigned
55.0179	5	C3H3O+
56.0496	3	C3H6N+
57.0336	9	C3H5O+
58.0652	3	C3H8N+
58.995	115	C2H3S+
61.0106	26	C2H5S+
65.0385	35	C5H5+
67.0416	9	C4H5N+
67.0542	177	C5H7+
68.0131	3	C3H2NO+
68.0494	42	C4H6N+
69.0334	30	C4H5O+
69.0698	12	C5H9+
70.065	32	C4H8N+
72.0807	2	C4H10N+
73.0107	14	C3H5S+
75.0264	2	C3H7S+
77.0384	3	C6H5+
79.0542	92	C6H7+
80.0495	14	C5H6N+
81.0333	3	C5H5O+
81.0572	3	C5H7N+
81.0699	34	C6H9+
82.065	124	C5H8N+
83.0491	18	C5H7O+
84.0443	12	C4H6NO+
84.0807	35	C5H10N+
85.0106	30	C4H5S+
85.0283	2	C4H5O2+
86.06	10	C4H8NO+
86.0965	3	C5H12N+
87.0262	254	C4H7S+
91.0541	112	C7H7+
92.0494	4	C6H6N+
93.0334	16	C6H5O+
93.0572	9	C6H7N+
93.0698	196	C7H9+
94.0651	17	C6H8N+
95.0491	105	C6H7O+
95.0855	16	C7H11+
96.0443	22	C5H6NO+
96.0806	23	C6H10N+
97.0107	12	C5H5S+
97.0283	4	C5H5O2+
97.0524	6	C5H7NO+
97.0647	2	C6H9O+
98.0599	4	C5H8NO+
99.0262	32	C5H7S+
101.0419	648	C5H9S+
103.0541	16	C8H7+
105.0699	67	C8H9+
106.0651	10	C7H8N+
107.0491	306	C7H7O+
107.0855	59	C8H11+
108.0443	2	C6H6NO+
108.0807	40	C7H10N+
109.0648	25	C7H9O+
109.1011	5	C8H13+
110.06	492	C6H8NO+
111.0263	12	C6H7S+
111.044	33	C6H7O2+
111.0802	3	C7H11O+
112.0756	236	C6H10NO+
113.0418	154	C6H9S+
115.0542	26	C9H7+
115.0576	4	C6H11S+
116.0494	4	C8H6N+
117.0697	62	C9H9+
118.065	4	C8H8N+
119.049	4	C8H7O+
119.0853	29	C9H11+
120.0442	5	C7H6NO+
120.0807	50	C8H10N+
121.0646	80	C8H9O+
122.0598	17	C7H8NO+
122.0963	52	C8H12N+
123.044	13	C7H7O2+
123.0676	2	C7H9NO+
123.0803	3	C8H11O+
124.0756	95	C7H10NO+
125.0418	14	C7H9S+
125.0834	3	C7H11NO+
126.0498	12	C7H10S+
126.0914	12	C7H12NO+
127.0212	14	C6H7OS+
127.0575	233	C7H11S+
128.062	3	C10H8+
128.0707	4	C6H10NO2+
128.1068	4	C7H14NO+
129.0369	10	C6H9OS+
129.0697	20	C10H9+
130.065	4	C9H8N+
131.0491	4	C9H7O+
131.0855	38	C10H11+
132.0444	82	C8H6NO+
132.0808	19	C9H10N+
133.0646	49	C9H9O+
133.1012	5	C10H13+
134.06	4	C8H8NO+
134.0964	35	C9H12N+
135.0803	113	C9H11O+
136.0392	20	C7H6NO2+
136.0757	56	C8H10NO+
136.1121	3	C9H14N+
137.0419	26	C8H9S+
137.0596	13	C8H9O2+
137.0835	11	C8H11NO+
138.0548	42	C7H8NO2+
138.0913	79	C8H12NO+
139.0575	32	C8H11S+
140.071	3	C7H10NO2+
141.0733	14	C8H13S+
142.0778	9	C11H10+
143.0732	2	C10H9N+
143.0855	8	C11H11+
144.057	3	C10H8O+
144.0809	13	C10H10N+
145.0647	24	C10H9O+
145.1011	10	C11H13+
146.0601	4	C9H8NO+
146.0963	9	C10H12N+
147.0441	3	C9H7O2+
147.0803	23	C10H11O+
148.0753	3	C9H10NO+
148.1118	2	C10H14N+
149.042	2	C9H9S+
149.0472	3	C8H7NO2+
149.0959	2	C10H13O+
150.0913	90	C9H12NO+
151.0578	16	C9H11S+
151.0992	9	C9H13NO+
152.0705	41	C8H10NO2+
152.1069	38	C9H14NO+
153.0367	23	C8H9OS+
153.0733	3	C9H13S+
153.0784	5	C8H11NO2+
154.0446	2	C8H10OS+
154.0861	5	C8H12NO2+
155.0524	261	C8H11OS+
156.0655	18	C7H10NO3+
157.0648	26	C11H9O+
157.1013	11	C12H13+
158.0602	4	C10H8NO+
158.0729	2	C11H10O+
158.0963	5	C11H12N+
159.0803	44	C11H11O+
159.1166	4	C12H15+
160.0754	38	C10H10NO+
160.112	5	C11H14N+
161.0596	71	C10H9O2+
161.0833	4	C10H11NO+
161.096	10	C11H13O+
162.0913	75	C10H12NO+
163.0752	315	C10H11O2+
164.071	3	C9H10NO2+
164.0832	4	C10H12O2+
164.107	9	C10H14NO+
165.0732	8	C10H13S+
166.086	41	C9H12NO2+
167.0522	2	C9H11OS+
172.1123	4	C12H14N+
173.0959	12	C12H13O+
174.0913	14	C11H12NO+
174.1276	3	C12H16N+
175.0579	2	C11H11S+
175.0754	13	C11H11O2+
175.1116	11	C12H15O+
176.1068	5	C11H14NO+
178.0861	216	C10H12NO2+
179.0942	2	C10H13NO2+
180.1018	999	C10H14NO2+
181.0682	13	C10H13OS+
181.1096	29	C10H15NO2+
182.1175	4	C10H16NO2+
185.0964	2	C13H13O+
186.091	16	C12H12NO+
187.1113	2	C13H15O+
189.0909	3	C12H13O2+
190.1227	3	C12H16NO+
193.0684	4	C11H13OS+
194.0634	41	C10H12NOS+
195.0834	4	C11H15OS+
202.1229	9	C13H16NO+
206.1176	11	C12H16NO2+
208.1156	3	C12H18NS+
219.0841	2	C13H15OS+
220.1153	9	C13H18NS+
220.1332	4	C13H18NO2+
221.0994	3	C13H17OS+
224.1104	3	C12H18NOS+
234.1314	11	C14H20NS+
235.1146	2	C14H19OS+
236.1102	17	C13H18NOS+
238.1259	26	C13H20NOS+
248.1649	11	C15H22NO2+
252.141	21	C14H22NOS+
262.1259	2	C15H20NOS+
263.1106	2	C15H19O2S+
264.1418	12	C15H22NOS+
266.1206	26	C14H20NO2S+
280.1365	17	C15H22NO2S+
