Mass spectrum: Cycloxydim; LC-ESI-QFT; MS2; CE: 45; R=35000; [M+H]+
Name: Cycloxydim
Name: 2-[(1E)-N-Ethoxybutanimidoyl]-3-hydroxy-5-(tetrahydro-2H-thiopyran-3-yl)-2-cyclohexen-1-one
Formula: C17H27NO3S
Exact mass: 325.17116
SMILES: O=C2C(\C(=O)CC(C1CCCSC1)C2)=C(\NOCC)CCC
InChI: InChI=1S/C17H27NO3S/c1-3-6-14(18-21-4-2)17-15(19)9-13(10-16(17)20)12-7-5-8-22-11-12/h12-13,19H,3-11H2,1-2H3/b18-14+
Instrument: Q Exactive Orbitrap Thermo Scientific
Instrument type: LC-ESI-QFT
Ms type: MS2
Ion mode: POSITIVE
Ionization: ESI
Fragmentation mode: HCD
Collision energy: 45 (nominal)
Resolution: 35000
Column name: XBridge C18 3.5um, 2.1x50mm, Waters
Retention time: 14.3 min
Base peak: 326.1785
Precursor m/z: 326.1784
Precursor type: [M+H]+
m/z	relative intensity	assigned
53.0384	1	C4H5+
55.0179	1	C3H3O+
57.0334	4	C3H5O+
58.0651	3	C3H8N+
58.995	50	C2H3S+
61.0106	15	C2H5S+
65.0386	8	C5H5+
67.0542	72	C5H7+
68.0494	18	C4H6N+
69.0334	10	C4H5O+
69.0698	8	C5H9+
70.065	18	C4H8N+
72.0806	3	C4H10N+
73.0106	5	C3H5S+
75.0263	2	C3H7S+
79.0542	43	C6H7+
80.0493	1	C5H6N+
81.0698	16	C6H9+
82.065	46	C5H8N+
83.0491	5	C5H7O+
84.0442	6	C4H6NO+
84.0807	20	C5H10N+
85.0106	11	C4H5S+
86.06	13	C4H8NO+
86.0963	2	C5H12N+
87.0262	172	C4H7S+
91.0541	36	C7H7+
92.0492	1	C6H6N+
93.0698	86	C7H9+
94.0651	9	C6H8N+
95.049	43	C6H7O+
95.0854	5	C7H11+
96.0443	1	C5H6NO+
96.0807	12	C6H10N+
97.0106	7	C5H5S+
97.0284	4	C5H5O2+
97.0523	1	C5H7NO+
97.0647	3	C6H9O+
98.06	3	C5H8NO+
99.0262	14	C5H7S+
101.0419	527	C5H9S+
103.0542	6	C8H7+
105.0699	25	C8H9+
106.065	8	C7H8N+
107.0491	84	C7H7O+
107.0854	30	C8H11+
108.0807	22	C7H10N+
109.0647	20	C7H9O+
109.1011	3	C8H13+
110.06	348	C6H8NO+
111.0262	6	C6H7S+
111.0439	10	C6H7O2+
111.0802	1	C7H11O+
112.0756	162	C6H10NO+
113.0418	108	C6H9S+
115.054	8	C9H7+
115.0576	2	C6H11S+
117.0697	26	C9H9+
119.0854	16	C9H11+
120.0806	36	C8H10N+
121.0647	37	C8H9O+
122.06	5	C7H8NO+
122.0962	27	C8H12N+
123.0263	2	C7H7S+
123.0438	1	C7H7O2+
123.0676	1	C7H9NO+
123.0804	2	C8H11O+
124.0756	64	C7H10NO+
125.0419	5	C7H9S+
125.0832	5	C7H11NO+
126.0495	1	C7H10S+
126.0912	15	C7H12NO+
127.0575	146	C7H11S+
128.0705	3	C6H10NO2+
128.1069	6	C7H14NO+
129.0368	3	C6H9OS+
129.0698	8	C10H9+
130.0651	1	C9H8N+
131.0855	19	C10H11+
132.0444	32	C8H6NO+
132.0809	5	C9H10N+
133.0648	18	C9H9O+
133.1013	7	C10H13+
134.0599	5	C8H8NO+
134.0964	22	C9H12N+
135.0803	68	C9H11O+
136.0392	6	C7H6NO2+
136.0756	32	C8H10NO+
136.1119	2	C9H14N+
137.042	16	C8H9S+
137.0598	11	C8H9O2+
137.0835	3	C8H11NO+
137.096	2	C9H13O+
138.0549	32	C7H8NO2+
138.0912	46	C8H12NO+
139.0575	37	C8H11S+
140.0705	2	C7H10NO2+
141.0733	11	C8H13S+
142.0779	1	C11H10+
143.0854	7	C11H11+
144.0806	5	C10H10N+
145.0647	18	C10H9O+
145.0889	1	C10H11N+
145.1009	10	C11H13+
146.06	1	C9H8NO+
146.0961	1	C10H12N+
147.0802	15	C10H11O+
148.0753	2	C9H10NO+
148.1116	1	C10H14N+
149.0418	2	C9H9S+
149.0475	1	C8H7NO2+
149.0595	2	C9H9O2+
149.0963	2	C10H13O+
150.0547	5	C8H8NO2+
150.0913	57	C9H12NO+
151.0575	16	C9H11S+
151.0993	2	C9H13NO+
152.0705	44	C8H10NO2+
152.1069	25	C9H14NO+
153.0367	18	C8H9OS+
153.0729	6	C9H13S+
153.0785	3	C8H11NO2+
154.0448	1	C8H10OS+
154.0861	12	C8H12NO2+
155.0524	274	C8H11OS+
156.0654	9	C7H10NO3+
156.0811	1	C11H10N+
157.0648	8	C11H9O+
157.1012	8	C12H13+
158.0963	3	C11H12N+
159.0804	30	C11H11O+
159.1168	6	C12H15+
160.0757	24	C10H10NO+
160.1122	1	C11H14N+
161.0596	31	C10H9O2+
161.0835	5	C10H11NO+
161.0961	8	C11H13O+
162.0913	52	C10H12NO+
163.0574	8	C10H11S+
163.0753	123	C10H11O2+
164.0704	2	C9H10NO2+
164.083	2	C10H12O2+
164.1067	5	C10H14NO+
165.0732	8	C10H13S+
166.0862	21	C9H12NO2+
166.1224	2	C10H16NO+
167.0522	2	C9H11OS+
169.0681	13	C9H13OS+
171.0474	3	C8H11O2S+
173.0596	1	C11H9O2+
173.0961	7	C12H13O+
173.1325	2	C13H17+
174.0912	11	C11H12NO+
174.1274	1	C12H16N+
175.0752	6	C11H11O2+
175.099	2	C11H13NO+
175.1119	5	C12H15O+
176.0525	1	C10H10NS+
176.1069	9	C11H14NO+
177.091	1	C11H13O2+
178.0861	193	C10H12NO2+
179.0946	3	C10H13NO2+
180.1017	999	C10H14NO2+
181.068	22	C10H13OS+
181.1096	35	C10H15NO2+
182.1174	10	C10H16NO2+
185.0964	1	C13H13O+
186.0913	18	C12H12NO+
186.1282	2	C13H16N+
187.1117	6	C13H15O+
189.0734	1	C12H13S+
190.1228	2	C12H16NO+
191.0888	2	C12H15S+
192.0841	1	C11H14NS+
193.068	2	C11H13OS+
194.0633	42	C10H12NOS+
195.0837	8	C11H15OS+
197.0631	2	C10H13O2S+
201.1266	5	C14H17O+
202.1222	3	C13H16NO+
203.0883	5	C13H15S+
204.1385	1	C13H18NO+
206.1179	2	C12H16NO2+
207.0843	5	C12H15OS+
208.1149	2	C12H18NS+
210.0943	2	C11H16NOS+
210.1309	2	C12H20NS+
219.0839	5	C13H15OS+
220.0787	3	C12H14NOS+
220.1156	9	C13H18NS+
220.133	2	C13H18NO2+
221.0993	6	C13H17OS+
224.1108	2	C12H18NOS+
228.1391	1	C15H18NO+
229.1218	1	C15H17O2+
234.1314	14	C14H20NS+
234.1484	2	C14H20NO2+
235.1149	11	C14H19OS+
236.1104	39	C13H18NOS+
238.0895	5	C12H16NO2S+
238.1259	52	C13H20NOS+
240.141	2	C13H22NOS+
245.0997	1	C15H17OS+
248.1644	15	C15H22NO2+
252.1414	59	C14H22NOS+
253.1261	2	C14H21O2S+
262.1257	13	C15H20NOS+
263.11	5	C15H19O2S+
264.141	14	C15H22NOS+
266.1205	20	C14H20NO2S+
278.1196	1	C15H20NO2S+
280.1364	83	C15H22NO2S+
282.1519	2	C15H24NO2S+
