Mass spectrum: Coumachlor; LC-ESI-QFT; MS2; CE: 60; R=35000; [M-H]-
Name: Coumachlor
Name: Ratilan
Name: 3-[1-(4-chlorophenyl)-3-oxobutyl]-4-hydroxychromen-2-one
Formula: C19H15ClO4
Exact mass: 342.06589
SMILES: CC(=O)CC(C1=CC=C(C=C1)Cl)C2=C(C3=CC=CC=C3OC2=O)O
InChI: InChI=1S/C19H15ClO4/c1-11(21)10-15(12-6-8-13(20)9-7-12)17-18(22)14-4-2-3-5-16(14)24-19(17)23/h2-9,15,22H,10H2,1H3
Instrument: Q Exactive Orbitrap Thermo Scientific
Instrument type: LC-ESI-QFT
Ms type: MS2
Ion mode: NEGATIVE
Ionization: ESI
Fragmentation mode: HCD
Collision energy: 60 (nominal)
Resolution: 35000
Column name: XBridge C18 3.5um, 2.1x50mm, Waters
Retention time: 12.3 min
Base peak: 341.0588
Precursor m/z: 341.0586
Precursor type: [M-H]-
m/z	relative intensity	assigned
57.0346	126	C3H5O-
83.0139	19	C4H3O2-
93.0346	43	C6H5O-
117.0347	829	C8H5O-
119.0503	2	C8H7O-
133.0294	1	C8H5O2-
135.0007	9	C8H4Cl-
135.045	6	C8H7O2-
145.0296	1	C9H5O2-
149.0165	2	C9H6Cl-
161.0244	999	C9H5O3-
164.0034	34	C9H5ClO-
167.0268	14	C9H8ClO-
179.027	6	C10H8ClO-
185.0607	2	C12H9O2-
191.027	11	C11H8ClO-
221.0378	2	C12H10ClO2-
229.0424	27	C14H10ClO-
239.0272	8	C15H8ClO-
240.0348	26	C15H9ClO-
253.0425	2	C16H10ClO-
255.0219	17	C15H8ClO2-
255.0587	7	C16H12ClO-
257.0377	29	C15H10ClO2-
283.0171	1	C16H8ClO3-
284.0245	779	C16H9ClO3-
295.0535	6	C18H12ClO2-
