Mass spectrum: Coumafuryl; LC-ESI-QFT; MS2; CE: 45; R=35000; [M-H]-
Name: Coumafuryl
Name: Fumarin
Name: 3-[1-(furan-2-yl)-3-oxobutyl]-4-hydroxychromen-2-one
Formula: C17H14O5
Exact mass: 298.08412
SMILES: O=C(C)CC(C=1C(=O)c2c(OC=1O)cccc2)c3occc3
InChI: InChI=1S/C17H14O5/c1-10(18)9-12(13-7-4-8-21-13)15-16(19)11-5-2-3-6-14(11)22-17(15)20/h2-8,12,19H,9H2,1H3
Instrument: Q Exactive Orbitrap Thermo Scientific
Instrument type: LC-ESI-QFT
Ms type: MS2
Ion mode: NEGATIVE
Ionization: ESI
Fragmentation mode: HCD
Collision energy: 45 (nominal)
Resolution: 35000
Column name: XBridge C18 3.5um, 2.1x50mm, Waters
Retention time: 9.0 min
Base peak: 297.0768
Precursor m/z: 297.0768
Precursor type: [M-H]-
m/z	relative intensity	assigned
57.0346	186	C3H5O-
65.0396	1	C5H5-
67.0189	2	C4H3O-
69.0347	4	C4H5O-
79.0554	4	C6H7-
80.0268	5	C5H4O-
81.0346	11	C5H5O-
83.0139	11	C4H3O2-
91.0189	1	C6H3O-
92.0267	4	C6H4O-
93.0346	32	C6H5O-
95.0139	1	C5H3O2-
95.0503	6	C6H7O-
107.0502	23	C7H7O-
108.0217	33	C6H4O2-
109.066	3	C7H9O-
117.0347	239	C8H5O-
119.0138	2	C7H3O2-
120.0216	7	C7H4O2-
121.0294	1	C7H5O2-
123.0452	80	C7H7O2-
133.0295	6	C8H5O2-
133.0659	10	C9H9O-
134.0374	3	C8H6O2-
135.0452	31	C8H7O2-
149.0607	86	C9H9O2-
159.0453	12	C10H7O2-
161.0244	999	C9H5O3-
167.0501	6	C12H7O-
169.0656	2	C12H9O-
175.04	4	C10H7O3-
177.0557	74	C10H9O3-
181.0656	1	C13H9O-
183.045	25	C12H7O2-
183.0817	4	C13H11O-
184.0531	8	C12H8O2-
185.0243	2	C11H5O3-
185.0606	6	C12H9O2-
187.0401	3	C11H7O3-
193.0653	2	C14H9O-
195.0451	38	C13H7O2-
196.0526	1	C13H8O2-
197.0602	1	C13H9O2-
199.0403	9	C12H7O3-
203.0348	4	C11H7O4-
206.0214	1	C10H6O5-
209.0607	17	C14H9O2-
211.0401	437	C13H7O3-
212.0479	26	C13H8O3-
213.0557	34	C13H9O3-
215.0349	31	C12H7O4-
223.0395	1	C14H7O3-
225.0554	8	C14H9O3-
227.071	8	C14H11O3-
235.0769	3	C16H11O2-
237.0558	12	C15H9O3-
239.0351	24	C14H7O4-
240.0428	512	C14H8O4-
244.0381	2	C13H8O5-
251.0711	8	C16H11O3-
253.0505	4	C15H9O4-
255.0662	8	C15H11O4-
261.0554	3	C17H9O3-
269.0819	5	C16H13O4-
279.066	1	C17H11O4-
297.0767	35	C17H13O5-
