Mass spectrum: Coumafuryl; LC-ESI-QFT; MS2; CE: 45; R=35000; [M+H]+
Name: Coumafuryl
Name: Fumarin
Name: 3-[1-(furan-2-yl)-3-oxobutyl]-4-hydroxychromen-2-one
Formula: C17H14O5
Exact mass: 298.08412
SMILES: O=C(C)CC(C=1C(=O)c2c(OC=1O)cccc2)c3occc3
InChI: InChI=1S/C17H14O5/c1-10(18)9-12(13-7-4-8-21-13)15-16(19)11-5-2-3-6-14(11)22-17(15)20/h2-8,12,19H,9H2,1H3
Instrument: Q Exactive Orbitrap Thermo Scientific
Instrument type: LC-ESI-QFT
Ms type: MS2
Ion mode: POSITIVE
Ionization: ESI
Fragmentation mode: HCD
Collision energy: 45 (nominal)
Resolution: 35000
Column name: XBridge C18 3.5um, 2.1x50mm, Waters
Retention time: 9.0 min
Base peak: 299.0914
Precursor m/z: 299.0914
Precursor type: [M+H]+
m/z	relative intensity	assigned
55.0179	7	C3H3O+
65.0386	4	C5H5+
69.0335	4	C4H5O+
77.0382	1	C6H5+
81.0699	3	C6H9+
91.0542	4	C7H7+
93.0333	7	C6H5O+
95.0128	4	C5H3O2+
95.0491	22	C6H7O+
109.0647	7	C7H9O+
111.044	1	C6H7O2+
115.0542	7	C9H7+
119.0491	1	C8H7O+
121.0284	483	C7H5O2+
128.0619	1	C10H8+
129.0699	4	C10H9+
133.0282	1	C8H5O2+
137.0597	96	C8H9O2+
141.0698	77	C11H9+
145.065	1	C10H9O+
153.0697	1	C12H9+
155.0337	11	C7H7O4+
157.065	5	C11H9O+
161.0597	6	C10H9O2+
163.0389	213	C9H7O3+
165.0183	1	C8H5O4+
169.0648	10	C12H9O+
173.0597	12	C11H9O2+
175.0387	3	C10H7O3+
185.0598	10	C12H9O2+
187.0391	3	C11H7O3+
189.0546	504	C11H9O3+
191.034	1	C10H7O4+
197.0595	9	C13H9O2+
199.0389	1	C12H7O3+
201.0545	8	C12H9O3+
212.0465	6	C13H8O3+
213.0546	372	C13H9O3+
223.0386	1	C14H7O3+
231.0658	1	C13H11O4+
237.0545	3	C15H9O3+
239.0701	3	C15H11O3+
241.0495	999	C14H9O4+
253.0861	4	C16H13O3+
255.0653	5	C15H11O4+
