Mass spectrum: Perindopril; LC-ESI-QFT; MS2; CE: 75; R=35000; [M-H]-
Name: Perindopril
Name: Coversyl
Name: (2S,3aS, 7aS)-1-[(2S)-2-[[(2S)-1-ethoxy-1-oxopentan-2-yl]amino]propanoyl]-2,3,3a, 4,5,6,7,7a-octahydroindole-2-carboxylic acid
Formula: C19H32N2O5
Exact mass: 368.23112
SMILES: CCCC(C(=O)OCC)NC(C)C(=O)N1C2CCCCC2CC1C(=O)O
InChI: InChI=1S/C19H32N2O5/c1-4-8-14(19(25)26-5-2)20-12(3)17(22)21-15-10-7-6-9-13(15)11-16(21)18(23)24/h12-16,20H,4-11H2,1-3H3,(H,23,24)
Instrument: Q Exactive Orbitrap Thermo Scientific
Instrument type: LC-ESI-QFT
Ms type: MS2
Ion mode: NEGATIVE
Ionization: ESI
Fragmentation mode: HCD
Collision energy: 75 (nominal)
Resolution: 35000
Column name: XBridge C18 3.5um, 2.1x50mm, Waters
Retention time: 7.5 min
Base peak: 367.2239
Precursor m/z: 367.2238
Precursor type: [M-H]-
m/z	relative intensity	assigned
55.0189	21	C3H3O-
57.0346	3	C3H5O-
66.0349	1	C4H4N-
68.0507	3	C4H6N-
71.0502	1	C4H7O-
72.0455	9	C3H6NO-
73.0296	6	C3H5O2-
81.022	10	C4H3NO-
81.0346	14	C5H5O-
83.0502	86	C5H7O-
85.0659	2	C5H9O-
94.0662	2	C6H8N-
95.0377	36	C5H5NO-
96.0819	39	C6H10N-
97.0658	1	C6H9O-
106.0662	3	C7H8N-
108.0818	1	C7H10N-
109.0533	37	C6H7NO-
120.082	16	C8H10N-
122.0976	14	C8H12N-
124.0768	124	C7H10NO-
126.0924	11	C7H12NO-
136.0769	5	C8H10NO-
150.0924	4	C9H12NO-
151.0877	5	C8H11N2O-
152.1081	2	C9H14NO-
160.1131	1	C11H14N-
166.0873	11	C9H12NO2-
168.103	999	C9H14NO2-
177.1031	3	C10H13N2O-
178.1235	3	C11H16NO-
180.1394	7	C11H18NO-
206.1185	12	C12H16NO2-
215.1192	1	C13H15N2O-
