Mass spectrum: Perindopril; LC-ESI-QFT; MS2; CE: 45; R=35000; [M-H]-
Name: Perindopril
Name: Coversyl
Name: (2S,3aS, 7aS)-1-[(2S)-2-[[(2S)-1-ethoxy-1-oxopentan-2-yl]amino]propanoyl]-2,3,3a, 4,5,6,7,7a-octahydroindole-2-carboxylic acid
Formula: C19H32N2O5
Exact mass: 368.23112
SMILES: CCCC(C(=O)OCC)NC(C)C(=O)N1C2CCCCC2CC1C(=O)O
InChI: InChI=1S/C19H32N2O5/c1-4-8-14(19(25)26-5-2)20-12(3)17(22)21-15-10-7-6-9-13(15)11-16(21)18(23)24/h12-16,20H,4-11H2,1-3H3,(H,23,24)
Instrument: Q Exactive Orbitrap Thermo Scientific
Instrument type: LC-ESI-QFT
Ms type: MS2
Ion mode: NEGATIVE
Ionization: ESI
Fragmentation mode: HCD
Collision energy: 45 (nominal)
Resolution: 35000
Column name: XBridge C18 3.5um, 2.1x50mm, Waters
Retention time: 7.5 min
Base peak: 367.2239
Precursor m/z: 367.2238
Precursor type: [M-H]-
m/z	relative intensity	assigned
55.019	2	C3H3O-
68.0506	3	C4H6N-
72.0456	3	C3H6NO-
73.0295	7	C3H5O2-
81.0221	3	C4H3NO-
81.0346	1	C5H5O-
83.0503	45	C5H7O-
85.0659	1	C5H9O-
95.0377	9	C5H5NO-
96.0819	83	C6H10N-
98.0975	3	C6H12N-
106.0663	1	C7H8N-
109.0534	6	C6H7NO-
120.0819	8	C8H10N-
122.0975	5	C8H12N-
124.0768	261	C7H10NO-
126.0925	14	C7H12NO-
129.0921	2	C7H13O2-
136.0768	5	C8H10NO-
150.0924	1	C9H12NO-
151.0876	2	C8H11N2O-
152.0716	3	C8H10NO2-
152.1081	1	C9H14NO-
154.0873	9	C8H12NO2-
166.0873	3	C9H12NO2-
168.103	999	C9H14NO2-
176.1078	1	C11H14NO-
177.1031	3	C10H13N2O-
178.1236	7	C11H16NO-
180.1394	83	C11H18NO-
206.1186	13	C12H16NO2-
208.1706	6	C13H22NO-
216.1265	1	C13H16N2O-
219.1141	1	C12H15N2O2-
221.1299	1	C12H17N2O2-
221.1661	2	C13H21N2O-
221.2024	10	C14H25N2-
222.1135	1	C12H16NO3-
224.129	1	C12H18NO3-
231.1864	1	C15H23N2-
237.125	6	C12H17N2O3-
245.1659	2	C15H21N2O-
249.1972	39	C15H25N2O-
259.1815	9	C16H23N2O-
277.1919	3	C16H25N2O2-
293.1875	2	C16H25N2O3-
367.2235	6	C19H31N2O5-
