Mass spectrum: Azobenzol; LC-ESI-QFT; MS2; CE: 60; R=35000; [M+H]+
Name: Azobenzol
Name: Fentoxan
Name: [(Z)-Phenyl-NNO-azoxy]benzene
Formula: C12H10N2O
Exact mass: 198.07931
SMILES: c1(\[N+](=N\c2ccccc2)[O-])ccccc1
InChI: InChI=1S/C12H10N2O/c15-14(12-9-5-2-6-10-12)13-11-7-3-1-4-8-11/h1-10H
Instrument: Q Exactive Orbitrap Thermo Scientific
Instrument type: LC-ESI-QFT
Ms type: MS2
Ion mode: POSITIVE
Ionization: ESI
Fragmentation mode: HCD
Collision energy: 60 (nominal)
Resolution: 35000
Column name: XBridge C18 3.5um, 2.1x50mm, Waters
Retention time: 13.2 min
Base peak: 149.0234
Precursor m/z: 199.0866
Precursor type: [M+H]+
m/z	relative intensity	assigned
53.0023	21	C3HO+
53.0387	11	C4H5+
55.0179	4	C3H3O+
55.0543	81	C4H7+
57.0336	8	C3H5O+
57.0699	55	C4H9+
59.0492	13	C3H7O+
65.0386	32	C5H5+
67.0542	87	C5H7+
69.0699	999	C5H9+
71.0491	42	C4H7O+
71.0855	14	C5H11+
72.0444	22	C3H6NO+
73.0285	4	C3H5O2+
73.0648	3	C4H9O+
77.0384	15	C6H5+
79.0543	48	C6H7+
81.0699	90	C6H9+
83.0492	32	C5H7O+
83.0856	121	C6H11+
85.0285	3	C4H5O2+
85.0648	20	C5H9O+
89.0597	3	C4H9O2+
91.0541	29	C7H7+
92.0495	143	C6H6N+
93.0699	88	C7H9+
95.0492	157	C6H7O+
95.0855	53	C7H11+
97.0648	46	C6H9O+
99.0441	10	C5H7O2+
99.0804	9	C6H11O+
100.0757	26	C5H10NO+
101.0597	2	C5H9O2+
105.0336	33	C7H5O+
105.0448	70	C6H5N2+
105.07	13	C8H9+
107.0492	3	C7H7O+
107.0856	59	C8H11+
109.0649	18	C7H9O+
111.0441	63	C6H7O2+
111.0805	31	C7H11O+
113.0597	2	C6H9O2+
114.066	3	C4H8N3O+
115.0542	4	C9H7+
117.07	2	C9H9+
119.0857	4	C9H11+
121.0647	15	C8H9O+
123.0804	16	C8H11O+
125.0597	12	C7H9O2+
127.0755	2	C7H11O2+
129.0699	12	C10H9+
130.0734	11	C5H10N2O2+
135.0804	15	C9H11O+
139.0754	14	C8H11O2+
142.078	7	C11H10+
143.0858	10	C11H11+
155.0858	2	C12H11+
156.0801	2	C11H10N+
182.0841	3	C12H10N2+
