Mass spectrum: Bromofenoxim; LC-ESI-QFT; MS2; CE: 90; R=35000; [M-H]-
Name: Bromofenoxim
Name: 2,6-dibromo-4-[[(2,4-dinitrophenoxy)amino]methylidene]cyclohexa-2, 5-dien-1-one
Formula: C13H7Br2N3O6
Exact mass: 458.87016
SMILES: C1=CC(=C(C=C1[N+](=O)[O-])[N+](=O)[O-])ONC=C2C=C(C(=O)C(=C2)Br)Br
InChI: InChI=1S/C13H7Br2N3O6/c14-9-3-7(4-10(15)13(9)19)6-16-24-12-2-1-8(17(20)21)5-11(12)18(22)23/h1-6,19H/b16-6+
Instrument: Q Exactive Orbitrap Thermo Scientific
Instrument type: LC-ESI-QFT
Ms type: MS2
Ion mode: NEGATIVE
Ionization: ESI
Fragmentation mode: HCD
Collision energy: 90 (nominal)
Resolution: 35000
Column name: XBridge C18 3.5um, 2.1x50mm, Waters
Retention time: 14.8 min
Base peak: 183.0047
Precursor m/z: 457.8629
Precursor type: [M-H]-
m/z	relative intensity	assigned
64.0194	4	C4H2N-
65.9985	3	C3NO-
67.0189	24	C4H3O-
68.9983	18	C3HO2-
69.0346	15	C4H5O-
78.9189	999	Br-
95.0139	169	C5H3O2-
97.0296	7	C5H5O2-
109.017	12	C5H3NO2-
120.0091	6	C6H2NO2-
123.0089	140	C6H3O3-
125.0119	51	C5H3NO3-
137.0113	2	C6H3NO3-
153.0068	53	C6H3NO4-
183.0046	63	C6H3N2O5-
