Mass spectrum: Coumafuryl; LC-ESI-QFT; MS2; CE: 75; R=35000; [M+H]+
Name: Coumafuryl
Name: Fumarin
Name: 3-[1-(furan-2-yl)-3-oxobutyl]-4-hydroxychromen-2-one
Formula: C17H14O5
Exact mass: 298.08412
SMILES: O=C(C)CC(C=1C(=O)c2c(OC=1O)cccc2)c3occc3
InChI: InChI=1S/C17H14O5/c1-10(18)9-12(13-7-4-8-21-13)15-16(19)11-5-2-3-6-14(11)22-17(15)20/h2-8,12,19H,9H2,1H3
Instrument: Q Exactive Orbitrap Thermo Scientific
Instrument type: LC-ESI-QFT
Ms type: MS2
Ion mode: POSITIVE
Ionization: ESI
Fragmentation mode: HCD
Collision energy: 75 (nominal)
Resolution: 35000
Column name: XBridge C18 3.5um, 2.1x50mm, Waters
Retention time: 9.0 min
Base peak: 299.0914
Precursor m/z: 299.0914
Precursor type: [M+H]+
m/z	relative intensity	assigned
53.0022	1	C3HO+
55.0179	11	C3H3O+
63.0229	1	C5H3+
65.0386	92	C5H5+
67.0543	1	C5H7+
68.9971	5	C3HO2+
69.0335	43	C4H5O+
77.0384	1	C6H5+
79.0542	5	C6H7+
81.0699	7	C6H9+
89.0385	3	C7H5+
91.0542	21	C7H7+
92.0257	5	C6H4O+
93.0334	69	C6H5O+
95.0127	29	C5H3O2+
95.0491	58	C6H7O+
103.0543	1	C8H7+
105.0335	4	C7H5O+
105.0448	3	C6H5N2+
105.0699	4	C8H9+
107.049	2	C7H7O+
109.0282	1	C6H5O2+
109.0647	9	C7H9O+
111.0441	20	C6H7O2+
115.0542	206	C9H7+
117.0698	16	C9H9+
119.0127	3	C7H3O2+
119.0491	3	C8H7O+
120.0207	1	C7H4O2+
121.0284	999	C7H5O2+
127.0537	3	C10H7+
128.062	29	C10H8+
129.0698	71	C10H9+
131.0494	1	C9H7O+
133.0282	1	C8H5O2+
133.0647	1	C9H9O+
137.0597	16	C8H9O2+
139.0389	5	C7H7O3+
139.0542	34	C11H7+
141.0698	332	C11H9+
145.0648	18	C10H9O+
152.0622	4	C12H8+
153.0696	1	C12H9+
155.0338	7	C7H7O4+
155.0603	5	C10H7N2+
157.0648	52	C11H9O+
163.0389	106	C9H7O3+
165.0184	6	C8H5O4+
165.0697	2	C13H9+
168.0571	8	C12H8O+
169.0647	10	C12H9O+
171.044	1	C11H7O2+
173.0597	12	C11H9O2+
175.0389	9	C10H7O3+
184.0519	4	C12H8O2+
185.0598	49	C12H9O2+
187.0389	3	C11H7O3+
189.0546	262	C11H9O3+
191.0339	6	C10H7O4+
195.044	14	C13H7O2+
195.0552	6	C12H7N2O+
197.0599	12	C13H9O2+
199.0391	3	C12H7O3+
201.0548	1	C12H9O3+
212.0468	44	C13H8O3+
213.0545	399	C13H9O3+
223.0392	1	C14H7O3+
241.0495	86	C14H9O4+
