Mass spectrum: Coumachlor; LC-ESI-QFT; MS2; CE: 45; R=35000; [M+H]+
Name: Coumachlor
Name: Ratilan
Name: 3-[1-(4-chlorophenyl)-3-oxobutyl]-4-hydroxychromen-2-one
Formula: C19H15ClO4
Exact mass: 342.06589
SMILES: Clc1ccc(cc1)C(C=2C(=O)c3c(OC=2O)cccc3)CC(=O)C
InChI: InChI=1S/C19H15ClO4/c1-11(21)10-15(12-6-8-13(20)9-7-12)17-18(22)14-4-2-3-5-16(14)24-19(17)23/h2-9,15,22H,10H2,1H3
Instrument: Q Exactive Orbitrap Thermo Scientific
Instrument type: LC-ESI-QFT
Ms type: MS2
Ion mode: POSITIVE
Ionization: ESI
Fragmentation mode: HCD
Collision energy: 45 (nominal)
Resolution: 35000
Column name: XBridge C18 3.5um, 2.1x50mm, Waters
Retention time: 12.4 min
Base peak: 343.0736
Precursor m/z: 343.0732
Precursor type: [M+H]+
m/z	relative intensity	assigned
65.0385	1	C5H5+
68.9971	4	C3HO2+
77.0386	4	C6H5+
91.0542	4	C7H7+
95.0491	15	C6H7O+
119.0491	2	C8H7O+
121.0284	78	C7H5O2+
125.0153	5	C7H6Cl+
128.0621	4	C10H8+
139.039	2	C7H7O3+
145.0649	4	C10H9O+
153.0697	10	C12H9+
154.0776	1	C12H10+
155.0604	1	C10H7N2+
163.0389	999	C9H7O3+
165.0101	31	C9H6ClO+
173.023	1	C10H5O3+
175.0394	1	C10H7O3+
178.0772	5	C14H10+
181.0415	108	C10H10ClO+
181.0641	5	C13H9O+
182.0728	15	C13H10O+
189.0464	33	C12H10Cl+
189.0548	26	C11H9O3+
191.0339	91	C10H7O4+
194.0725	3	C14H10O+
201.0466	3	C13H10Cl+
205.0416	1	C12H10ClO+
205.0652	1	C15H9O+
209.0004	5	C10H6ClO3+
213.0466	1	C14H10Cl+
217.0416	174	C13H10ClO+
221.0597	3	C15H9O2+
222.0675	1	C15H10O2+
229.0411	2	C14H10ClO+
239.0258	4	C15H8ClO+
249.0548	131	C16H9O3+
250.0625	12	C16H10O3+
257.0364	34	C15H10ClO2+
267.0206	6	C16H8ClO2+
285.0314	993	C16H10ClO3+
