Mass spectrum: Coumafuryl; LC-ESI-QFT; MS2; CE: 60; R=35000; [M-H]-
Name: Coumafuryl
Name: Fumarin
Name: 3-[1-(furan-2-yl)-3-oxobutyl]-4-hydroxychromen-2-one
Formula: C17H14O5
Exact mass: 298.08412
SMILES: CC(=O)CC(C1=CC=CO1)C2=C(C3=CC=CC=C3OC2=O)O
InChI: InChI=1S/C17H14O5/c1-10(18)9-12(13-7-4-8-21-13)15-16(19)11-5-2-3-6-14(11)22-17(15)20/h2-8,12,19H,9H2,1H3
Instrument: Q Exactive Orbitrap Thermo Scientific
Instrument type: LC-ESI-QFT
Ms type: MS2
Ion mode: NEGATIVE
Ionization: ESI
Fragmentation mode: HCD
Collision energy: 60 (nominal)
Resolution: 35000
Column name: XBridge C18 3.5um, 2.1x50mm, Waters
Retention time: 9.0 min
Base peak: 297.0768
Precursor m/z: 297.0768
Precursor type: [M-H]-
m/z	relative intensity	assigned
57.0346	291	C3H5O-
65.0397	1	C5H5-
67.019	3	C4H3O-
69.0346	13	C4H5O-
79.0554	7	C6H7-
80.0268	11	C5H4O-
81.0346	23	C5H5O-
83.0138	11	C4H3O2-
91.0189	16	C6H3O-
92.0268	9	C6H4O-
93.0346	70	C6H5O-
95.0139	13	C5H3O2-
95.0503	16	C6H7O-
107.0503	59	C7H7O-
108.0217	52	C6H4O2-
109.0294	3	C6H5O2-
109.0659	6	C7H9O-
117.0347	635	C8H5O-
119.0138	11	C7H3O2-
120.0218	14	C7H4O2-
121.0294	2	C7H5O2-
123.0452	66	C7H7O2-
131.0503	6	C9H7O-
133.0296	13	C8H5O2-
133.0658	13	C9H9O-
134.0374	8	C8H6O2-
135.0453	47	C8H7O2-
143.0503	2	C10H7O-
145.0297	2	C9H5O2-
149.0607	111	C9H9O2-
157.0656	2	C11H9O-
159.0451	16	C10H7O2-
160.0173	1	C9H4O3-
161.0244	871	C9H5O3-
165.0711	3	C13H9-
167.05	25	C12H7O-
169.0659	8	C12H9O-
174.0324	1	C10H6O3-
175.0401	6	C10H7O3-
177.0557	51	C10H9O3-
181.0665	1	C13H9O-
183.0451	62	C12H7O2-
183.0817	13	C13H11O-
184.0531	9	C12H8O2-
185.0245	3	C11H5O3-
185.0606	3	C12H9O2-
187.0401	7	C11H7O3-
193.0659	6	C14H9O-
195.0451	59	C13H7O2-
196.0531	8	C13H8O2-
199.0397	7	C12H7O3-
209.0607	21	C14H9O2-
211.04	999	C13H7O3-
212.0478	20	C13H8O3-
213.0561	20	C13H9O3-
215.0349	28	C12H7O4-
223.0404	1	C14H7O3-
225.0557	12	C14H9O3-
227.0714	8	C14H11O3-
237.0565	12	C15H9O3-
239.0349	38	C14H7O4-
240.0428	205	C14H8O4-
244.0384	2	C13H8O5-
251.0715	9	C16H11O3-
253.0508	3	C15H9O4-
255.0663	1	C15H11O4-
297.0769	2	C17H13O5-
