Mass spectrum: Coumachlor; LC-ESI-QFT; MS2; CE: 15; R=35000; [M-H]-
Name: Coumachlor
Name: Ratilan
Name: 3-[1-(4-chlorophenyl)-3-oxobutyl]-4-hydroxychromen-2-one
Formula: C19H15ClO4
Exact mass: 342.06589
SMILES: Clc1ccc(cc1)C(C=2C(=O)c3c(OC=2O)cccc3)CC(=O)C
InChI: InChI=1S/C19H15ClO4/c1-11(21)10-15(12-6-8-13(20)9-7-12)17-18(22)14-4-2-3-5-16(14)24-19(17)23/h2-9,15,22H,10H2,1H3
Instrument: Q Exactive Orbitrap Thermo Scientific
Instrument type: LC-ESI-QFT
Ms type: MS2
Ion mode: NEGATIVE
Ionization: ESI
Fragmentation mode: HCD
Collision energy: 15 (nominal)
Resolution: 35000
Column name: XBridge C18 3.5um, 2.1x50mm, Waters
Retention time: 12.3 min
Base peak: 341.0588
Precursor m/z: 341.0586
Precursor type: [M-H]-
m/z	relative intensity	assigned
117.0345	1	C8H5O-
161.0244	84	C9H5O3-
257.0378	1	C15H10ClO2-
284.0248	26	C16H9ClO3-
341.0585	999	C19H14ClO4-
