Mass spectrum: Azobenzol; LC-ESI-QFT; MS2; CE: 90; R=35000; [M+H]+
Name: Azobenzol
Name: Fentoxan
Name: [(Z)-Phenyl-NNO-azoxy]benzene
Formula: C12H10N2O
Exact mass: 198.07931
SMILES: c1(\[N+](=N\c2ccccc2)[O-])ccccc1
InChI: InChI=1S/C12H10N2O/c15-14(12-9-5-2-6-10-12)13-11-7-3-1-4-8-11/h1-10H
Instrument: Q Exactive Orbitrap Thermo Scientific
Instrument type: LC-ESI-QFT
Ms type: MS2
Ion mode: POSITIVE
Ionization: ESI
Fragmentation mode: HCD
Collision energy: 90 (nominal)
Resolution: 35000
Column name: XBridge C18 3.5um, 2.1x50mm, Waters
Retention time: 13.2 min
Base peak: 149.0234
Precursor m/z: 199.0866
Precursor type: [M+H]+
m/z	relative intensity	assigned
53.0023	74	C3HO+
53.0387	46	C4H5+
55.018	24	C3H3O+
55.0543	309	C4H7+
57.0335	18	C3H5O+
57.0699	85	C4H9+
59.0492	21	C3H7O+
65.0386	210	C5H5+
66.0464	5	C5H6+
67.0542	240	C5H7+
69.0699	999	C5H9+
71.0491	43	C4H7O+
72.0444	50	C3H6NO+
73.0285	10	C3H5O2+
73.0649	7	C4H9O+
77.0385	49	C6H5+
79.0542	169	C6H7+
81.0699	139	C6H9+
83.0491	36	C5H7O+
83.0855	63	C6H11+
85.0649	20	C5H9O+
91.0542	130	C7H7+
92.0495	167	C6H6N+
93.0699	112	C7H9+
95.0491	538	C6H7O+
95.0855	53	C7H11+
97.0076	39	C8H+
97.0648	44	C6H9O+
99.0442	8	C5H7O2+
99.0804	7	C6H11O+
100.0756	9	C5H10NO+
105.0335	28	C7H5O+
105.0448	87	C6H5N2+
105.07	48	C8H9+
107.0492	4	C7H7O+
107.0856	46	C8H11+
109.0647	21	C7H9O+
111.0442	58	C6H7O2+
111.0803	10	C7H11O+
115.0542	53	C9H7+
117.0699	10	C9H9+
119.0856	8	C9H11+
121.0281	5	C7H5O2+
121.0647	6	C8H9O+
123.0804	9	C8H11O+
128.0621	31	C10H8+
129.0655	6	C5H9N2O2+
129.07	24	C10H9+
130.0733	20	C5H10N2O2+
142.0777	39	C11H10+
143.0856	7	C11H11+
155.0856	7	C12H11+
