Mass spectrum: Tiapride; LC-ESI-QFT; MS2; CE: 75; R=35000; [M-H]-
Name: Tiapride
Name: N-(2-diethylaminoethyl)-2-methoxy-5-methylsulfonyl-benzamide
Formula: C15H24N2O4S
Exact mass: 328.14568
SMILES: CCN(CC)CCNC(=O)C1=C(C=CC(=C1)S(=O)(=O)C)OC
InChI: InChI=1S/C15H24N2O4S/c1-5-17(6-2)10-9-16-15(18)13-11-12(22(4,19)20)7-8-14(13)21-3/h7-8,11H,5-6,9-10H2,1-4H3,(H,16,18)
Instrument: Q Exactive Orbitrap Thermo Scientific
Instrument type: LC-ESI-QFT
Ms type: MS2
Ion mode: NEGATIVE
Ionization: ESI
Fragmentation mode: HCD
Collision energy: 75 (nominal)
Resolution: 35000
Column name: XBridge C18 3.5um, 2.1x50mm, Waters
Retention time: 2.6 min
Base peak: 235.9261
Precursor m/z: 327.1384
Precursor type: [M-H]-
m/z	relative intensity	assigned
63.9624	581	O2S-
78.9859	999	CH3O2S-
155.0172	394	C7H7O2S-
