Mass spectrum: Cycloxydim; LC-ESI-QFT; MS2; CE: 45; R=35000; [M-H]-
Name: Cycloxydim
Name: 2-[(1E)-N-Ethoxybutanimidoyl]-3-hydroxy-5-(tetrahydro-2H-thiopyran-3-yl)-2-cyclohexen-1-one
Formula: C17H27NO3S
Exact mass: 325.17116
SMILES: CCC/C(=N\OCC)/C1=C(CC(CC1=O)C2CCCSC2)O
InChI: InChI=1S/C17H27NO3S/c1-3-6-14(18-21-4-2)17-15(19)9-13(10-16(17)20)12-7-5-8-22-11-12/h12-13,19H,3-11H2,1-2H3/b18-14+
Instrument: Q Exactive Orbitrap Thermo Scientific
Instrument type: LC-ESI-QFT
Ms type: MS2
Ion mode: NEGATIVE
Ionization: ESI
Fragmentation mode: HCD
Collision energy: 45 (nominal)
Resolution: 35000
Column name: XBridge C18 3.5um, 2.1x50mm, Waters
Retention time: 14.3 min
Base peak: 324.164
Precursor m/z: 324.1639
Precursor type: [M-H]-
m/z	relative intensity	assigned
58.9961	1	C2H3S-
65.9985	5	C3NO-
69.0346	7	C4H5O-
82.03	1	C4H4NO-
86.0612	1	C4H8NO-
95.0138	4	C5H3O2-
101.0431	7	C5H9S-
107.0504	1	C7H7O-
108.0217	17	C6H4O2-
109.0295	5	C6H5O2-
110.0613	1	C6H8NO-
120.009	1	C6H2NO2-
121.066	1	C8H9O-
124.0767	1	C7H10NO-
126.0924	1	C7H12NO-
134.0247	22	C7H4NO2-
135.0327	1	C7H5NO2-
140.054	3	C7H10NS-
149.0611	1	C9H9O2-
162.0559	2	C9H8NO2-
167.0536	4	C9H11OS-
169.0693	18	C9H13OS-
174.0921	1	C11H12NO-
176.0716	22	C10H10NO2-
177.0794	1	C10H11NO2-
178.0871	2	C10H12NO2-
190.1242	1	C12H16NO-
192.0489	12	C10H10NOS-
194.0643	9	C10H12NOS-
200.1081	1	C13H14NO-
211.0795	2	C11H15O2S-
234.0964	2	C13H16NOS-
236.075	999	C12H14NO2S-
237.0954	1	C13H17O2S-
252.1063	4	C13H18NO2S-
264.1053	2	C14H18NO2S-
278.1219	62	C15H20NO2S-
280.1376	30	C15H22NO2S-
324.1638	1	C17H26NO3S-
