Mass spectrum: Coumachlor; LC-ESI-QFT; MS2; CE: 90; R=35000; [M-H]-
Name: Coumachlor
Name: Ratilan
Name: 3-[1-(4-chlorophenyl)-3-oxobutyl]-4-hydroxychromen-2-one
Formula: C19H15ClO4
Exact mass: 342.06589
SMILES: Clc1ccc(cc1)C(C=2C(=O)c3c(OC=2O)cccc3)CC(=O)C
InChI: InChI=1S/C19H15ClO4/c1-11(21)10-15(12-6-8-13(20)9-7-12)17-18(22)14-4-2-3-5-16(14)24-19(17)23/h2-9,15,22H,10H2,1H3
Instrument: Q Exactive Orbitrap Thermo Scientific
Instrument type: LC-ESI-QFT
Ms type: MS2
Ion mode: NEGATIVE
Ionization: ESI
Fragmentation mode: HCD
Collision energy: 90 (nominal)
Resolution: 35000
Column name: XBridge C18 3.5um, 2.1x50mm, Waters
Retention time: 12.3 min
Base peak: 341.0588
Precursor m/z: 341.0586
Precursor type: [M-H]-
m/z	relative intensity	assigned
57.0346	144	C3H5O-
83.0139	12	C4H3O2-
93.0346	39	C6H5O-
117.0347	999	C8H5O-
135.0008	33	C8H4Cl-
145.0291	1	C9H5O2-
161.0244	76	C9H5O3-
239.0273	1	C15H8ClO-
255.0211	1	C15H8ClO2-
283.0177	2	C16H8ClO3-
284.0248	3	C16H9ClO3-
