Mass spectrum: Coumafuryl; LC-ESI-QFT; MS2; CE: 60; R=35000; [M+H]+
Name: Coumafuryl
Name: Fumarin
Name: 3-[1-(furan-2-yl)-3-oxobutyl]-4-hydroxychromen-2-one
Formula: C17H14O5
Exact mass: 298.08412
SMILES: O=C(C)CC(C=1C(=O)c2c(OC=1O)cccc2)c3occc3
InChI: InChI=1S/C17H14O5/c1-10(18)9-12(13-7-4-8-21-13)15-16(19)11-5-2-3-6-14(11)22-17(15)20/h2-8,12,19H,9H2,1H3
Instrument: Q Exactive Orbitrap Thermo Scientific
Instrument type: LC-ESI-QFT
Ms type: MS2
Ion mode: POSITIVE
Ionization: ESI
Fragmentation mode: HCD
Collision energy: 60 (nominal)
Resolution: 35000
Column name: XBridge C18 3.5um, 2.1x50mm, Waters
Retention time: 9.0 min
Base peak: 299.0914
Precursor m/z: 299.0914
Precursor type: [M+H]+
m/z	relative intensity	assigned
55.0179	14	C3H3O+
65.0385	24	C5H5+
68.9971	4	C3HO2+
69.0334	20	C4H5O+
79.0542	2	C6H7+
81.0699	5	C6H9+
91.0541	7	C7H7+
93.0334	33	C6H5O+
95.0127	10	C5H3O2+
95.0491	38	C6H7O+
105.0447	1	C6H5N2+
105.0699	1	C8H9+
109.0646	11	C7H9O+
111.0441	6	C6H7O2+
115.0541	49	C9H7+
117.0698	5	C9H9+
119.049	4	C8H7O+
121.0283	999	C7H5O2+
128.062	4	C10H8+
129.0699	22	C10H9+
133.0281	1	C8H5O2+
133.0647	5	C9H9O+
137.0597	72	C8H9O2+
139.0392	4	C7H7O3+
139.0541	9	C11H7+
141.0698	249	C11H9+
145.0648	6	C10H9O+
152.0618	2	C12H8+
153.0697	1	C12H9+
155.0337	9	C7H7O4+
155.0603	1	C10H7N2+
157.0647	28	C11H9O+
161.0598	5	C10H9O2+
163.0389	232	C9H7O3+
165.0182	5	C8H5O4+
168.0571	3	C12H8O+
169.0647	22	C12H9O+
173.0596	24	C11H9O2+
175.0389	9	C10H7O3+
185.0597	42	C12H9O2+
187.0386	7	C11H7O3+
189.0546	583	C11H9O3+
191.0338	8	C10H7O4+
195.0442	4	C13H7O2+
195.0553	2	C12H7N2O+
197.0596	18	C13H9O2+
199.039	2	C12H7O3+
201.0544	8	C12H9O3+
212.0469	22	C13H8O3+
213.0546	670	C13H9O3+
223.0389	6	C14H7O3+
227.0697	1	C14H11O3+
237.0548	1	C15H9O3+
239.0709	1	C15H11O3+
241.0495	596	C14H9O4+
