Mass spectrum: Benthiavalicarb-isopropyl; LC-ESI-QFT; MS2; CE: 45; R=35000; [M+H]+
Name: Benthiavalicarb-isopropyl
Name: Isopropyl (1-{[1-(6-fluoro-1,3-benzothiazol-2-yl)ethyl]amino}-3-methyl-1-oxo-2-butanyl)carbamate
Name: propan-2-yl N-[(2S)-1-[[(1R)-1-(6-fluoro-1, 3-benzothiazol-2-yl)ethyl]amino]-3-methyl-1-oxobutan-2-yl]carbamate
Formula: C18H24FN3O3S
Exact mass: 381.15224
SMILES: CC(C)OC(=O)N[C@@H](C(C)C)C(=O)N[C@H](C)c1nc2ccc(F)cc2s1
InChI: InChI=1S/C18H24FN3O3S/c1-9(2)15(22-18(24)25-10(3)4)16(23)20-11(5)17-21-13-7-6-12(19)8-14(13)26-17/h6-11,15H,1-5H3,(H,20,23)(H,22,24)/t11-,15+/m1/s1
Instrument: Q Exactive Orbitrap Thermo Scientific
Instrument type: LC-ESI-QFT
Ms type: MS2
Ion mode: POSITIVE
Ionization: ESI
Fragmentation mode: HCD
Collision energy: 45 (nominal)
Resolution: 35000
Column name: XBridge C18 3.5um, 2.1x50mm, Waters
Retention time: 10.8 min
Base peak: 382.1591
Precursor m/z: 382.1595
Precursor type: [M+H]+
m/z	relative intensity	assigned
55.0541	7	C4H7+
57.0573	3	C3H7N+
72.0806	389	C4H10N+
83.0289	3	C5H4F+
98.0599	152	C5H8NO+
114.1276	3	C7H16N+
116.0704	523	C5H10NO2+
117.1019	1	C5H13N2O+
125.1071	2	C7H13N2+
127.0009	7	C6H4FS+
144.0655	1	C6H10NO3+
154.012	9	C7H5FNS+
158.1175	4	C8H16NO2+
180.0275	999	C9H7FNS+
195.0383	1	C9H8FN2S+
197.054	103	C9H10FN2S+
296.1224	3	C14H19FN3OS+
