Mass spectrum: Mandipropamid; LC-ESI-QFT; MS2; CE: 75; R=35000; [M+H]+
Name: Mandipropamid
Name: 2-(4-Chlorophenyl)-N-{2-[3-methoxy-4-(2-propyn-1-yloxy)phenyl]ethyl}-2-(2-propyn-1-yloxy)acetamide
Formula: C23H22ClNO4
Exact mass: 411.12374
SMILES: Clc1ccc(cc1)C(OCC#C)C(=O)NCCc2ccc(OCC#C)c(OC)c2
InChI: InChI=1S/C23H22ClNO4/c1-4-14-28-20-11-6-17(16-21(20)27-3)12-13-25-23(26)22(29-15-5-2)18-7-9-19(24)10-8-18/h1-2,6-11,16,22H,12-15H2,3H3,(H,25,26)
Instrument: Q Exactive Orbitrap Thermo Scientific
Instrument type: LC-ESI-QFT
Ms type: MS2
Ion mode: POSITIVE
Ionization: ESI
Fragmentation mode: HCD
Collision energy: 75 (nominal)
Resolution: 35000
Column name: XBridge C18 3.5um, 2.1x50mm, Waters
Retention time: 10.7 min
Base peak: 412.1311
Precursor m/z: 412.131
Precursor type: [M+H]+
m/z	relative intensity	assigned
63.0227	1	C5H3+
65.0385	3	C5H5+
69.0335	1	C4H5O+
77.0384	1	C6H5+
78.0464	2	C6H6+
79.0542	6	C6H7+
89.0385	33	C7H5+
90.0463	8	C7H6+
91.0542	85	C7H7+
92.0619	1	C7H8+
93.0698	8	C7H9+
94.0413	1	C6H6O+
94.0651	5	C6H8N+
95.0491	12	C6H7O+
98.9995	13	C5H4Cl+
102.0465	2	C8H6+
103.0542	22	C8H7+
104.0494	2	C7H6N+
104.062	8	C8H8+
105.0334	1	C7H5O+
105.0699	12	C8H9+
106.0652	3	C7H8N+
107.0491	18	C7H7O+
108.0808	1	C7H10N+
109.0648	4	C7H9O+
113.0152	5	C6H6Cl+
115.0542	44	C9H7+
116.0619	24	C9H8+
117.0571	4	C8H7N+
117.0697	29	C9H9+
118.0413	5	C8H6O+
118.065	38	C8H8N+
118.0776	7	C9H10+
119.049	18	C8H7O+
119.0729	6	C8H9N+
119.0856	2	C9H11+
120.0442	1	C7H6NO+
120.0569	6	C8H8O+
121.0647	44	C8H9O+
122.0361	3	C7H6O2+
122.06	18	C7H8NO+
122.0722	1	C8H10O+
123.044	6	C7H7O2+
124.0757	1	C7H10NO+
125.0152	999	C7H6Cl+
127.0541	5	C10H7+
128.062	46	C10H8+
129.0699	22	C10H9+
130.0416	1	C9H6O+
130.0651	10	C9H8N+
131.0492	40	C9H7O+
131.0728	4	C9H9N+
132.0444	1	C8H6NO+
132.057	9	C9H8O+
132.0807	3	C9H10N+
133.0519	6	C8H7NO+
133.0649	9	C9H9O+
134.06	22	C8H8NO+
135.044	36	C8H7O2+
136.0519	4	C8H8O2+
136.0757	22	C8H10NO+
137.0597	10	C8H9O2+
138.0108	1	C7H5ClN+
138.0676	3	C8H10O2+
138.9946	10	C7H4ClO+
139.0055	1	C9HNO+
140.0262	21	C7H7ClN+
141.0697	1	C11H9+
142.0651	1	C10H8N+
143.0731	4	C10H9N+
144.0568	13	C10H8O+
144.0808	9	C10H10N+
145.0648	34	C10H9O+
146.06	28	C9H8NO+
146.0725	14	C10H10O+
147.044	32	C9H7O2+
147.068	8	C9H9NO+
148.0519	52	C9H8O2+
148.0755	18	C9H10NO+
149.0153	7	C9H6Cl+
149.0597	13	C9H9O2+
149.0835	1	C9H11NO+
150.055	29	C8H8NO2+
150.0677	13	C9H10O2+
151.0753	5	C9H11O2+
152.0024	3	C8H5ClO+
152.0262	18	C8H7ClN+
153.0697	1	C12H9+
155.0604	5	C10H7N2+
156.0809	1	C11H10N+
157.0648	5	C11H9O+
159.0442	2	C10H7O2+
159.068	2	C10H9NO+
159.0806	1	C11H11O+
160.0517	1	C10H8O2+
160.0755	9	C10H10NO+
161.0597	5	C10H9O2+
161.0835	1	C10H11NO+
162.0547	8	C9H8NO2+
163.0627	4	C9H9NO2+
164.0705	37	C9H10NO2+
165.07	13	C13H9+
165.0784	11	C9H11NO2+
166.0778	5	C13H10+
167.0855	2	C13H11+
170.0601	3	C11H8NO+
172.076	5	C11H10NO+
173.0839	1	C11H11NO+
175.0309	1	C11H8Cl+
175.0755	1	C11H11O2+
176.0705	15	C10H10NO2+
177.0702	1	C14H9+
177.0784	5	C10H11NO2+
178.0775	17	C14H10+
179.0853	14	C14H11+
180.0214	1	C9H7ClNO+
181.0644	1	C13H9O+
182.0727	2	C13H10O+
184.0759	1	C12H10NO+
187.0753	1	C12H11O2+
188.0705	1	C11H10NO2+
189.0695	6	C15H9+
190.0779	5	C15H10+
191.0854	18	C15H11+
192.0936	1	C15H12+
193.0883	1	C14H11N+
193.1013	4	C15H13+
194.0724	16	C14H10O+
195.0805	3	C14H11O+
196.0882	1	C14H12O+
199.0314	3	C13H8Cl+
200.0391	1	C13H9Cl+
201.0466	7	C13H10Cl+
202.0777	10	C16H10+
202.0856	1	C12H12NO2+
203.0855	19	C16H11+
204.0937	9	C16H12+
205.0648	1	C15H9O+
205.1014	8	C16H13+
206.0723	3	C15H10O+
207.0804	9	C15H11O+
208.088	14	C15H12O+
212.0386	6	C14H9Cl+
213.047	6	C14H10Cl+
215.0261	1	C13H8ClO+
215.0856	22	C17H11+
216.0933	8	C17H12+
217.0886	1	C16H11N+
217.1016	1	C17H13+
218.0958	1	C16H12N+
219.0804	3	C16H11O+
220.0883	3	C16H12O+
221.0961	3	C16H13O+
225.0466	4	C15H10Cl+
225.0907	9	C15H13O2+
228.0335	3	C14H9ClO+
228.0579	1	C14H11ClN+
228.0693	1	C15H13Cl+
229.0414	16	C14H10ClO+
231.0569	1	C14H12ClO+
234.0912	1	C16H12NO+
235.0993	3	C16H13NO+
236.1075	2	C16H14NO+
237.0914	1	C13H16ClNO+
241.0417	7	C15H10ClO+
242.0492	1	C15H11ClO+
242.0736	1	C15H13ClN+
243.0573	7	C15H12ClO+
243.0797	1	C18H11O+
244.0882	1	C18H12O+
245.0963	1	C18H13O+
251.0623	1	C17H12Cl+
253.041	1	C16H10ClO+
255.0574	3	C16H12ClO+
257.0365	1	C15H10ClO2+
263.0946	1	C17H13NO2+
267.0577	1	C17H12ClO+
270.068	1	C16H13ClNO+
271.0527	1	C16H12ClO2+
279.058	3	C18H12ClO+
288.0786	1	C16H15ClNO2+
