Mass spectrum: Perindopril; LC-ESI-QFT; MS2; CE: 30; R=35000; [M-H]-
Name: Perindopril
Name: Coversyl
Name: (2S,3aS, 7aS)-1-[(2S)-2-[[(2S)-1-ethoxy-1-oxopentan-2-yl]amino]propanoyl]-2,3,3a, 4,5,6,7,7a-octahydroindole-2-carboxylic acid
Formula: C19H32N2O5
Exact mass: 368.23112
SMILES: CCCC(C(=O)OCC)NC(C)C(=O)N1C2CCCCC2CC1C(=O)O
InChI: InChI=1S/C19H32N2O5/c1-4-8-14(19(25)26-5-2)20-12(3)17(22)21-15-10-7-6-9-13(15)11-16(21)18(23)24/h12-16,20H,4-11H2,1-3H3,(H,23,24)
Instrument: Q Exactive Orbitrap Thermo Scientific
Instrument type: LC-ESI-QFT
Ms type: MS2
Ion mode: NEGATIVE
Ionization: ESI
Fragmentation mode: HCD
Collision energy: 30 (nominal)
Resolution: 35000
Column name: XBridge C18 3.5um, 2.1x50mm, Waters
Retention time: 7.5 min
Base peak: 367.2239
Precursor m/z: 367.2238
Precursor type: [M-H]-
m/z	relative intensity	assigned
68.0506	3	C4H6N-
72.0456	1	C3H6NO-
73.0295	6	C3H5O2-
83.0502	22	C5H7O-
96.0819	64	C6H10N-
98.0976	3	C6H12N-
109.0534	1	C6H7NO-
120.082	2	C8H10N-
122.0976	1	C8H12N-
124.0768	327	C7H10NO-
126.0923	7	C7H12NO-
129.0922	8	C7H13O2-
136.0768	3	C8H10NO-
138.0926	2	C8H12NO-
152.0719	1	C8H10NO2-
154.0874	19	C8H12NO2-
166.0872	4	C9H12NO2-
168.1029	999	C9H14NO2-
178.1236	6	C11H16NO-
180.1394	180	C11H18NO-
194.1187	3	C11H16NO2-
206.1187	14	C12H16NO2-
208.1346	4	C12H18NO2-
208.1708	7	C13H22NO-
219.1136	4	C12H15N2O2-
221.1656	3	C13H21N2O-
221.2023	26	C14H25N2-
222.1135	18	C12H16NO3-
223.121	2	C12H17NO3-
224.1291	35	C12H18NO3-
237.1245	37	C12H17N2O3-
249.1972	181	C15H25N2O-
259.1815	23	C16H23N2O-
260.1657	2	C16H22NO2-
277.192	29	C16H25N2O2-
293.1871	24	C16H25N2O3-
321.1821	10	C17H25N2O4-
367.2236	469	C19H31N2O5-
