Mass spectrum: Cycloxydim; LC-ESI-QFT; MS2; CE: 30; R=35000; [M-H]-
Name: Cycloxydim
Name: 2-[(1E)-N-Ethoxybutanimidoyl]-3-hydroxy-5-(tetrahydro-2H-thiopyran-3-yl)-2-cyclohexen-1-one
Formula: C17H27NO3S
Exact mass: 325.17116
SMILES: O=C2C(\C(=O)CC(C1CCCSC1)C2)=C(\NOCC)CCC
InChI: InChI=1S/C17H27NO3S/c1-3-6-14(18-21-4-2)17-15(19)9-13(10-16(17)20)12-7-5-8-22-11-12/h12-13,19H,3-11H2,1-2H3/b18-14+
Instrument: Q Exactive Orbitrap Thermo Scientific
Instrument type: LC-ESI-QFT
Ms type: MS2
Ion mode: NEGATIVE
Ionization: ESI
Fragmentation mode: HCD
Collision energy: 30 (nominal)
Resolution: 35000
Column name: XBridge C18 3.5um, 2.1x50mm, Waters
Retention time: 14.3 min
Base peak: 324.164
Precursor m/z: 324.1639
Precursor type: [M-H]-
m/z	relative intensity	assigned
65.9962	1	H2O4-
65.9984	2	C3NO-
69.0346	2	C4H5O-
95.0139	1	C5H3O2-
101.043	5	C5H9S-
108.0217	3	C6H4O2-
109.0296	1	C6H5O2-
124.0769	1	C7H10NO-
126.0925	1	C7H12NO-
134.0246	16	C7H4NO2-
162.0559	1	C9H8NO2-
167.0537	1	C9H11OS-
169.0693	12	C9H13OS-
174.0922	1	C11H12NO-
176.0716	18	C10H10NO2-
177.0794	1	C10H11NO2-
178.0872	1	C10H12NO2-
194.0644	1	C10H12NOS-
211.0798	3	C11H15O2S-
232.1343	1	C14H18NO2-
234.0965	2	C13H16NOS-
236.075	999	C12H14NO2S-
237.0955	1	C13H17O2S-
238.1264	1	C13H20NOS-
252.1061	3	C13H18NO2S-
278.1219	262	C15H20NO2S-
280.1375	152	C15H22NO2S-
296.1323	7	C15H22NO3S-
324.1638	121	C17H26NO3S-
