Mass spectrum: Tetrachlorophthalic acid; LC-ESI-QFT; MS2; CE: 15; R=35000; [M-H]-
Name: Tetrachlorophthalic acid
Name: 1,2-Benzenedicarboxylic acid, 3,4,5,6-tetrachloro-
Name:  3,4,5,6-tetrachlorophthalic acid
Formula: C8H2Cl4O4
Exact mass: 301.87072
SMILES: Clc1c(c(c(Cl)c(Cl)c1Cl)C(=O)O)C(=O)O
InChI: InChI=1S/C8H2Cl4O4/c9-3-1(7(13)14)2(8(15)16)4(10)6(12)5(3)11/h(H,13,14)(H,15,16)
Instrument: Q Exactive Orbitrap Thermo Scientific
Instrument type: LC-ESI-QFT
Ms type: MS2
Ion mode: NEGATIVE
Ionization: ESI
Fragmentation mode: HCD
Collision energy: 15 (nominal)
Resolution: 35000
Column name: XBridge C18 3.5um, 2.1x50mm, Waters
Retention time: 8.5 min
Base peak: 214.8808
Precursor m/z: 300.8634
Precursor type: [M-H]-
m/z	relative intensity	assigned
212.8837	999	C6HCl4-
256.8737	28	C7HCl4O2-
