Mass spectrum: Imidacloprid-guanidine; LC-ESI-QFT; MS2; CE: 90; R=35000; [M+H]+
Name: Imidacloprid-guanidine
Name: Desnitro-imidacloprid
Name: 1-[(6-Chloro-3-pyridinyl)methyl]-4,5-dihydro-1H-imidazol-2-amine
Formula: C9H11ClN4
Exact mass: 210.06722
SMILES: Clc1ncc(cc1)CN2\C(=N/CC2)N
InChI: InChI=1S/C9H11ClN4/c10-8-2-1-7(5-13-8)6-14-4-3-12-9(14)11/h1-2,5H,3-4,6H2,(H2,11,12)
Instrument: Q Exactive Orbitrap Thermo Scientific
Instrument type: LC-ESI-QFT
Ms type: MS2
Ion mode: POSITIVE
Ionization: ESI
Fragmentation mode: HCD
Collision energy: 90 (nominal)
Resolution: 35000
Column name: XBridge C18 3.5um, 2.1x50mm, Waters
Retention time: 2.4 min
Base peak: 211.0747
Precursor m/z: 211.0745
Precursor type: [M+H]+
m/z	relative intensity	assigned
57.0448	4	C2H5N2+
63.0229	21	C5H3+
64.0182	2	C4H2N+
65.0386	6	C5H5+
72.9839	28	C3H2Cl+
79.0542	3	C6H7+
80.0495	5	C5H6N+
81.0335	32	C5H5O+
84.0556	68	C3H6N3+
85.0635	1	C3H7N3+
86.0711	1	C3H8N3+
90.0338	209	C6H4N+
91.0416	42	C6H5N+
98.9996	160	C5H4Cl+
106.0651	16	C7H8N+
108.0443	20	C3H9ClN2+
126.0105	999	C6H5ClN+
132.0555	3	C7H6N3+
132.068	1	C8H8N2+
133.0761	20	C8H9N2+
144.0211	48	C6H7ClNO+
168.0322	1	C7H7ClN3+
175.0979	4	C9H11N4+
194.0479	1	C9H9ClN3+
211.0745	6	C9H12ClN4+
