Mass spectrum: Coumafuryl; LC-ESI-QFT; MS2; CE: 90; R=35000; [M+H]+
Name: Coumafuryl
Name: Fumarin
Name: 3-[1-(furan-2-yl)-3-oxobutyl]-4-hydroxychromen-2-one
Formula: C17H14O5
Exact mass: 298.08412
SMILES: CC(=O)CC(C1=CC=CO1)C2=C(C3=CC=CC=C3OC2=O)O
InChI: InChI=1S/C17H14O5/c1-10(18)9-12(13-7-4-8-21-13)15-16(19)11-5-2-3-6-14(11)22-17(15)20/h2-8,12,19H,9H2,1H3
Instrument: Q Exactive Orbitrap Thermo Scientific
Instrument type: LC-ESI-QFT
Ms type: MS2
Ion mode: POSITIVE
Ionization: ESI
Fragmentation mode: HCD
Collision energy: 90 (nominal)
Resolution: 35000
Column name: XBridge C18 3.5um, 2.1x50mm, Waters
Retention time: 9.0 min
Base peak: 299.0914
Precursor m/z: 299.0914
Precursor type: [M+H]+
m/z	relative intensity	assigned
51.0229	1	C4H3+
53.0023	7	C3HO+
55.0179	10	C3H3O+
63.0228	4	C5H3+
65.0386	243	C5H5+
67.0542	4	C5H7+
68.9971	11	C3HO2+
69.0335	59	C4H5O+
77.0386	3	C6H5+
79.0541	9	C6H7+
81.0335	1	C5H5O+
81.0699	3	C6H9+
89.0385	11	C7H5+
91.0542	53	C7H7+
92.0256	20	C6H4O+
93.0334	92	C6H5O+
95.0127	39	C5H3O2+
95.0491	96	C6H7O+
103.0542	9	C8H7+
105.0336	7	C7H5O+
105.0447	8	C6H5N2+
105.0697	7	C8H9+
107.049	8	C7H7O+
109.0283	1	C6H5O2+
109.0647	6	C7H9O+
111.044	54	C6H7O2+
115.0542	474	C9H7+
117.0698	15	C9H9+
119.0127	2	C7H3O2+
119.0491	4	C8H7O+
120.0205	2	C7H4O2+
121.0284	999	C7H5O2+
127.0542	9	C10H7+
128.062	121	C10H8+
129.0698	105	C10H9+
131.0491	5	C9H7O+
133.028	1	C8H5O2+
133.0649	1	C9H9O+
137.0597	1	C8H9O2+
139.0392	8	C7H7O3+
139.0542	73	C11H7+
140.0617	2	C11H8+
141.0698	270	C11H9+
145.0648	31	C10H9O+
152.0622	5	C12H8+
153.0696	1	C12H9+
155.0339	4	C7H7O4+
155.0603	17	C10H7N2+
157.0648	48	C11H9O+
163.0389	45	C9H7O3+
165.0183	6	C8H5O4+
165.0696	1	C13H9+
168.057	11	C12H8O+
169.0647	6	C12H9O+
171.0441	5	C11H7O2+
173.0598	4	C11H9O2+
175.039	6	C10H7O3+
184.0516	11	C12H8O2+
185.0597	35	C12H9O2+
187.0388	2	C11H7O3+
189.0546	80	C11H9O3+
191.0338	3	C10H7O4+
195.0442	10	C13H7O2+
195.0551	6	C12H7N2O+
197.0598	6	C13H9O2+
199.0385	2	C12H7O3+
212.0468	47	C13H8O3+
213.0545	152	C13H9O3+
241.0495	9	C14H9O4+
