Mass spectrum: Imidacloprid-guanidine; LC-ESI-QFT; MS2; CE: 60; R=35000; [M+H]+
Name: Imidacloprid-guanidine
Name: Desnitro-imidacloprid
Name: 1-[(6-Chloro-3-pyridinyl)methyl]-4,5-dihydro-1H-imidazol-2-amine
Formula: C9H11ClN4
Exact mass: 210.06722
SMILES: Clc1ncc(cc1)CN2\C(=N/CC2)N
InChI: InChI=1S/C9H11ClN4/c10-8-2-1-7(5-13-8)6-14-4-3-12-9(14)11/h1-2,5H,3-4,6H2,(H2,11,12)
Instrument: Q Exactive Orbitrap Thermo Scientific
Instrument type: LC-ESI-QFT
Ms type: MS2
Ion mode: POSITIVE
Ionization: ESI
Fragmentation mode: HCD
Collision energy: 60 (nominal)
Resolution: 35000
Column name: XBridge C18 3.5um, 2.1x50mm, Waters
Retention time: 2.4 min
Base peak: 211.0747
Precursor m/z: 211.0745
Precursor type: [M+H]+
m/z	relative intensity	assigned
57.0448	1	C2H5N2+
63.0229	2	C5H3+
72.9837	4	C3H2Cl+
81.0335	3	C5H5O+
84.0556	117	C3H6N3+
85.0635	2	C3H7N3+
90.0338	22	C6H4N+
91.0416	3	C6H5N+
98.0713	1	C4H8N3+
98.9996	11	C5H4Cl+
106.0652	3	C7H8N+
108.0443	1	C6H6NO+
126.0105	999	C6H5ClN+
128.0261	2	C6H7ClN+
132.0556	4	C7H6N3+
133.076	50	C8H9N2+
144.0211	11	C6H7ClNO+
168.0324	4	C7H7ClN3+
169.0528	12	C8H10ClN2+
175.0978	62	C9H11N4+
176.1057	1	C9H12N4+
194.048	10	C9H9ClN3+
211.0745	248	C9H12ClN4+
