Mass spectrum: Mandipropamid; LC-ESI-QFT; MS2; CE: 15; R=35000; [M+H]+
Name: Mandipropamid
Name: 2-(4-Chlorophenyl)-N-{2-[3-methoxy-4-(2-propyn-1-yloxy)phenyl]ethyl}-2-(2-propyn-1-yloxy)acetamide
Formula: C23H22ClNO4
Exact mass: 411.12374
SMILES: Clc1ccc(cc1)C(OCC#C)C(=O)NCCc2ccc(OCC#C)c(OC)c2
InChI: InChI=1S/C23H22ClNO4/c1-4-14-28-20-11-6-17(16-21(20)27-3)12-13-25-23(26)22(29-15-5-2)18-7-9-19(24)10-8-18/h1-2,6-11,16,22H,12-15H2,3H3,(H,25,26)
Instrument: Q Exactive Orbitrap Thermo Scientific
Instrument type: LC-ESI-QFT
Ms type: MS2
Ion mode: POSITIVE
Ionization: ESI
Fragmentation mode: HCD
Collision energy: 15 (nominal)
Resolution: 35000
Column name: XBridge C18 3.5um, 2.1x50mm, Waters
Retention time: 10.7 min
Base peak: 412.1311
Precursor m/z: 412.131
Precursor type: [M+H]+
m/z	relative intensity	assigned
125.0147	15	C7H6Cl+
163.0305	2	C10H8Cl+
187.0754	1	C12H11O2+
189.0909	6	C12H13O2+
194.0815	2	C10H12NO3+
203.0939	2	C12H13NO2+
204.1019	57	C12H14NO2+
216.1018	8	C13H14NO2+
271.0521	1	C16H12ClO2+
283.0885	1	C18H16ClO+
289.0871	3	C16H16ClNO2+
297.068	1	C18H14ClO2+
299.0848	2	C18H16ClO2+
311.0833	14	C19H16ClO2+
317.0819	3	C17H16ClNO3+
327.0776	3	C19H16ClO3+
328.1098	999	C19H19ClNO2+
338.0957	2	C20H17ClNO2+
356.1046	250	C20H19ClNO3+
