Mass spectrum: Mandipropamid; LC-ESI-QFT; MS2; CE: 30; R=35000; [M-H]-
Name: Mandipropamid
Name: 2-(4-Chlorophenyl)-N-{2-[3-methoxy-4-(2-propyn-1-yloxy)phenyl]ethyl}-2-(2-propyn-1-yloxy)acetamide
Formula: C23H22ClNO4
Exact mass: 411.12374
SMILES: Clc1ccc(cc1)C(OCC#C)C(=O)NCCc2ccc(OCC#C)c(OC)c2
InChI: InChI=1S/C23H22ClNO4/c1-4-14-28-20-11-6-17(16-21(20)27-3)12-13-25-23(26)22(29-15-5-2)18-7-9-19(24)10-8-18/h1-2,6-11,16,22H,12-15H2,3H3,(H,25,26)
Instrument: Q Exactive Orbitrap Thermo Scientific
Instrument type: LC-ESI-QFT
Ms type: MS2
Ion mode: NEGATIVE
Ionization: ESI
Fragmentation mode: HCD
Collision energy: 30 (nominal)
Resolution: 35000
Column name: XBridge C18 3.5um, 2.1x50mm, Waters
Retention time: 10.7 min
Base peak: 456.1224
Precursor m/z: 410.1165
Precursor type: [M-H]-
m/z	relative intensity	assigned
82.0299	4	C4H4NO-
84.0092	10	C3H2NO2-
84.0456	2	C4H6NO-
93.0345	1	C6H5O-
110.0247	9	C5H4NO2-
111.0007	13	C6H4Cl-
121.0296	58	C7H5O2-
123.0089	18	C6H3O3-
125.0164	13	C7H6Cl-
134.0373	14	C8H6O2-
136.0529	109	C8H8O2-
138.0322	10	C7H6O3-
143.0502	14	C10H7O-
146.0375	6	C9H6O2-
149.0607	50	C9H9O2-
150.9956	57	C8H4ClO-
153.0112	999	C8H6ClO-
154.0065	3	C7H5ClNO-
154.9906	1	C7H4ClO2-
159.0451	3	C10H7O2-
160.053	31	C10H8O2-
161.0607	1	C10H9O2-
168.0428	82	C8H8O4-
175.0763	9	C11H11O2-
176.0271	5	C10H7ClN-
177.0116	1	C10H6ClO-
178.0431	1	C10H9ClN-
179.0269	5	C10H8ClO-
181.0062	1	C9H6ClO2-
192.0224	3	C10H7ClNO-
194.0377	49	C10H9ClNO-
197.0014	8	C9H6ClO3-
204.0222	17	C11H7ClNO-
206.0378	3	C11H9ClNO-
218.0376	1	C12H9ClNO-
221.025	5	C11H8ClNO2-
222.0327	111	C11H9ClNO2-
234.0328	1	C12H9ClNO2-
235.0406	10	C12H10ClNO2-
237.0195	1	C14H5O4-
250.028	7	C12H9ClNO3-
267.0305	28	C12H10ClNO4-
338.0595	3	C19H13ClNO3-
382.1218	1	C22H21ClNO3-
