Mass spectrum: Imidacloprid-guanidine; LC-ESI-QFT; MS2; CE: 75; R=35000; [M+H]+
Name: Imidacloprid-guanidine
Name: Desnitro-imidacloprid
Name: 1-[(6-Chloro-3-pyridinyl)methyl]-4,5-dihydro-1H-imidazol-2-amine
Formula: C9H11ClN4
Exact mass: 210.06722
SMILES: Clc1ncc(cc1)CN2\C(=N/CC2)N
InChI: InChI=1S/C9H11ClN4/c10-8-2-1-7(5-13-8)6-14-4-3-12-9(14)11/h1-2,5H,3-4,6H2,(H2,11,12)
Instrument: Q Exactive Orbitrap Thermo Scientific
Instrument type: LC-ESI-QFT
Ms type: MS2
Ion mode: POSITIVE
Ionization: ESI
Fragmentation mode: HCD
Collision energy: 75 (nominal)
Resolution: 35000
Column name: XBridge C18 3.5um, 2.1x50mm, Waters
Retention time: 2.4 min
Base peak: 211.0747
Precursor m/z: 211.0745
Precursor type: [M+H]+
m/z	relative intensity	assigned
57.0448	2	C2H5N2+
63.0229	5	C5H3+
65.0386	2	C5H5+
72.9838	7	C3H2Cl+
80.0495	1	C5H6N+
81.0335	11	C5H5O+
84.0556	83	C3H6N3+
85.0635	2	C3H7N3+
90.0338	78	C6H4N+
91.0416	13	C6H5N+
98.9996	43	C5H4Cl+
106.0652	9	C7H8N+
108.0444	8	C3H9ClN2+
126.0105	999	C6H5ClN+
132.0556	3	C7H6N3+
133.076	35	C8H9N2+
144.0211	27	C6H7ClNO+
168.0324	2	C7H7ClN3+
169.0528	3	C8H10ClN2+
175.0978	16	C9H11N4+
176.1056	1	C9H12N4+
194.0479	3	C9H9ClN3+
211.0745	39	C9H12ClN4+
