Mass spectrum: Mandipropamid; LC-ESI-QFT; MS2; CE: 45; R=35000; [M+H]+
Name: Mandipropamid
Name: 2-(4-Chlorophenyl)-N-{2-[3-methoxy-4-(2-propyn-1-yloxy)phenyl]ethyl}-2-(2-propyn-1-yloxy)acetamide
Formula: C23H22ClNO4
Exact mass: 411.12374
SMILES: Clc1ccc(cc1)C(OCC#C)C(=O)NCCc2ccc(OCC#C)c(OC)c2
InChI: InChI=1S/C23H22ClNO4/c1-4-14-28-20-11-6-17(16-21(20)27-3)12-13-25-23(26)22(29-15-5-2)18-7-9-19(24)10-8-18/h1-2,6-11,16,22H,12-15H2,3H3,(H,25,26)
Instrument: Q Exactive Orbitrap Thermo Scientific
Instrument type: LC-ESI-QFT
Ms type: MS2
Ion mode: POSITIVE
Ionization: ESI
Fragmentation mode: HCD
Collision energy: 45 (nominal)
Resolution: 35000
Column name: XBridge C18 3.5um, 2.1x50mm, Waters
Retention time: 10.7 min
Base peak: 412.1311
Precursor m/z: 412.131
Precursor type: [M+H]+
m/z	relative intensity	assigned
63.0226	1	C5H3+
68.0495	1	C4H6N+
79.0541	1	C6H7+
80.0493	1	C5H6N+
83.049	3	C5H7O+
89.0384	4	C7H5+
91.0542	31	C7H7+
93.0699	3	C7H9+
95.049	3	C6H7O+
103.0542	4	C8H7+
105.0698	10	C8H9+
107.0491	5	C7H7O+
109.0648	1	C7H9O+
111.044	1	C6H7O2+
115.0542	13	C9H7+
116.0621	9	C9H8+
117.0698	20	C9H9+
118.0412	1	C8H6O+
118.065	13	C8H8N+
118.0776	3	C9H10+
119.0492	7	C8H7O+
119.0729	9	C8H9N+
119.0854	4	C9H11+
120.0569	3	C8H8O+
121.0647	19	C8H9O+
122.036	1	C7H6O2+
122.0602	1	C7H8NO+
122.0725	1	C8H10O+
123.0442	5	C7H7O2+
124.0756	5	C7H10NO+
125.0152	999	C7H6Cl+
128.0619	25	C10H8+
129.0698	43	C10H9+
130.0651	3	C9H8N+
130.0778	1	C10H10+
131.0492	15	C9H7O+
131.0731	4	C9H9N+
131.0855	13	C10H11+
132.0569	3	C9H8O+
132.0807	1	C9H10N+
133.0521	1	C8H7NO+
133.0646	6	C9H9O+
134.06	5	C8H8NO+
135.0441	9	C8H7O2+
135.0804	3	C9H11O+
136.0519	3	C8H8O2+
136.0756	10	C8H10NO+
137.0597	11	C8H9O2+
138.9946	16	C7H4ClO+
139.0308	1	C8H8Cl+
140.0261	37	C7H7ClN+
143.073	5	C10H9N+
144.0569	11	C10H8O+
144.0808	22	C10H10N+
145.0648	39	C10H9O+
145.0887	3	C10H11N+
146.06	19	C9H8NO+
146.0726	30	C10H10O+
147.0441	6	C9H7O2+
147.0678	17	C9H9NO+
147.0804	5	C10H11O+
148.0518	56	C9H8O2+
148.0756	11	C9H10NO+
149.0153	10	C9H6Cl+
149.0597	9	C9H9O2+
150.0549	11	C8H8NO2+
150.0675	22	C9H10O2+
151.0311	1	C9H8Cl+
151.0753	5	C9H11O2+
152.0024	3	C8H5ClO+
152.0261	16	C8H7ClN+
153.0344	5	C8H8ClN+
154.0416	6	C8H9ClN+
154.0651	1	C11H8N+
155.0602	4	C10H7N2+
156.0569	1	C11H8O+
156.0807	4	C11H10N+
157.0648	12	C11H9O+
158.0726	9	C11H10O+
158.0964	1	C11H12N+
159.0678	10	C10H9NO+
159.0805	9	C11H11O+
160.0516	6	C10H8O2+
160.0757	9	C10H10NO+
161.0597	12	C10H9O2+
161.0836	4	C10H11NO+
161.096	22	C11H13O+
162.0548	8	C9H8NO2+
162.0675	4	C10H10O2+
162.091	1	C10H12NO+
163.0308	3	C10H8Cl+
163.0626	3	C9H9NO2+
164.0705	114	C9H10NO2+
165.0784	57	C9H11NO2+
170.0597	1	C11H8NO+
171.0678	3	C11H9NO+
171.0804	3	C12H11O+
172.0517	1	C11H8O2+
172.0756	10	C11H10NO+
173.0593	1	C11H9O2+
173.0835	9	C11H11NO+
174.0675	9	C11H10O2+
174.0918	1	C11H12NO+
175.0311	3	C11H8Cl+
175.0752	6	C11H11O2+
176.0705	17	C10H10NO2+
176.083	1	C11H12O2+
176.1073	1	C11H14NO+
177.0784	28	C10H11NO2+
178.0778	3	C14H10+
178.0861	5	C10H12NO2+
179.0858	3	C14H11+
180.0209	1	C9H7ClNO+
184.0759	3	C12H10NO+
185.0835	5	C12H11NO+
187.0755	11	C12H11O2+
188.0707	4	C11H10NO2+
188.107	14	C12H14NO+
189.0781	3	C11H11NO2+
189.0909	25	C12H13O2+
190.0777	1	C15H10+
191.0855	3	C15H11+
192.0936	1	C15H12+
193.0648	1	C14H9O+
193.101	3	C15H13+
194.0727	3	C14H10O+
195.0803	1	C14H11O+
199.0305	3	C13H8Cl+
201.0466	1	C13H10Cl+
202.0773	3	C16H10+
202.0863	1	C12H12NO2+
203.0853	8	C16H11+
203.0941	13	C12H13NO2+
204.0934	11	C16H12+
204.1018	63	C12H14NO2+
205.1009	6	C16H13+
206.0814	1	C11H12NO3+
206.1091	3	C16H14+
207.0806	7	C15H11O+
208.0882	14	C15H12O+
209.0961	3	C15H13O+
212.0389	3	C14H9Cl+
213.0466	3	C14H10Cl+
215.0855	14	C17H11+
216.0933	18	C17H12+
216.1023	10	C13H14NO2+
217.1012	5	C17H13+
218.0729	1	C13H13ClN+
218.1091	8	C17H14+
219.0805	4	C16H11O+
221.0961	8	C16H13O+
224.0831	1	C15H12O2+
225.0464	6	C15H10Cl+
225.0908	17	C15H13O2+
226.0541	3	C15H11Cl+
228.0337	6	C14H9ClO+
229.0416	12	C14H10ClO+
230.0495	1	C14H11ClO+
231.0575	1	C14H12ClO+
231.0805	5	C17H11O+
232.0882	12	C17H12O+
233.0961	12	C17H13O+
235.099	2	C16H13NO+
236.107	3	C16H14NO+
237.0909	11	C16H13O2+
239.0622	7	C16H12Cl+
240.0335	4	C15H9ClO+
241.0416	5	C15H10ClO+
242.0497	6	C15H11ClO+
242.0731	1	C15H13ClN+
243.0571	19	C15H12ClO+
243.0808	3	C15H14ClN+
244.0882	7	C18H12O+
245.0956	6	C18H13O+
247.1118	3	C18H15O+
248.1196	1	C18H16O+
251.0624	8	C17H12Cl+
253.0423	1	C16H10ClO+
253.0654	1	C16H12ClN+
253.0777	1	C17H14Cl+
254.0495	4	C16H11ClO+
254.1178	3	C16H16NO2+
255.0573	3	C16H12ClO+
256.0527	1	C15H11ClNO+
256.0645	9	C16H13ClO+
257.036	9	C15H10ClO2+
257.0728	1	C16H14ClO+
258.0682	4	C15H13ClNO+
259.0523	1	C15H12ClO2+
260.0599	5	C15H13ClO2+
260.1078	1	C18H14NO+
261.091	5	C18H13O2+
264.102	8	C17H14NO2+
264.1141	1	C18H16O2+
267.0571	5	C17H12ClO+
268.0648	5	C17H13ClO+
269.073	3	C17H14ClO+
270.0443	5	C16H11ClO2+
270.0671	6	C19H10O2+
271.0517	11	C16H12ClO2+
271.0755	2	C19H11O2+
271.0884	4	C17H16ClO+
272.0598	32	C16H13ClO2+
279.0571	13	C18H12ClO+
280.0652	7	C18H13ClO+
281.0598	1	C20H9O2+
281.0734	1	C18H14ClO+
283.0882	11	C18H16ClO+
288.0785	16	C16H15ClNO2+
289.0862	14	C16H16ClNO2+
296.0603	4	C18H13ClO2+
298.0627	5	C17H13ClNO2+
299.0693	1	C20H11O3+
299.0842	6	C18H16ClO2+
307.0518	1	C19H12ClO2+
311.0832	4	C19H16ClO2+
316.074	3	C17H15ClNO3+
328.11	11	C19H19ClNO2+
