Mass spectrum: Perindopril; LC-ESI-QFT; MS2; CE: 15; R=35000; [M-H]-
Name: Perindopril
Name: Coversyl
Name: (2S,3aS, 7aS)-1-[(2S)-2-[[(2S)-1-ethoxy-1-oxopentan-2-yl]amino]propanoyl]-2,3,3a, 4,5,6,7,7a-octahydroindole-2-carboxylic acid
Formula: C19H32N2O5
Exact mass: 368.23112
SMILES: CCCC(C(=O)OCC)NC(C)C(=O)N1C2CCCCC2CC1C(=O)O
InChI: InChI=1S/C19H32N2O5/c1-4-8-14(19(25)26-5-2)20-12(3)17(22)21-15-10-7-6-9-13(15)11-16(21)18(23)24/h12-16,20H,4-11H2,1-3H3,(H,23,24)
Instrument: Q Exactive Orbitrap Thermo Scientific
Instrument type: LC-ESI-QFT
Ms type: MS2
Ion mode: NEGATIVE
Ionization: ESI
Fragmentation mode: HCD
Collision energy: 15 (nominal)
Resolution: 35000
Column name: XBridge C18 3.5um, 2.1x50mm, Waters
Retention time: 7.5 min
Base peak: 367.2239
Precursor m/z: 367.2238
Precursor type: [M-H]-
m/z	relative intensity	assigned
96.0818	1	C6H10N-
124.0768	13	C7H10NO-
168.1029	65	C9H14NO2-
180.1394	9	C11H18NO-
222.1136	3	C12H16NO3-
224.1292	11	C12H18NO3-
237.1243	4	C12H17N2O3-
249.1972	14	C15H25N2O-
259.1809	1	C16H23N2O-
277.1921	4	C16H25N2O2-
293.1874	3	C16H25N2O3-
321.1814	2	C17H25N2O4-
367.2236	999	C19H31N2O5-
