Mass spectrum: Cycloxydim; LC-ESI-QFT; MS2; CE: 90; R=35000; [M-H]-
Name: Cycloxydim
Name: 2-[(1E)-N-Ethoxybutanimidoyl]-3-hydroxy-5-(tetrahydro-2H-thiopyran-3-yl)-2-cyclohexen-1-one
Formula: C17H27NO3S
Exact mass: 325.17116
SMILES: CCC/C(=N\OCC)/C1=C(CC(CC1=O)C2CCCSC2)O
InChI: InChI=1S/C17H27NO3S/c1-3-6-14(18-21-4-2)17-15(19)9-13(10-16(17)20)12-7-5-8-22-11-12/h12-13,19H,3-11H2,1-2H3/b18-14+
Instrument: Q Exactive Orbitrap Thermo Scientific
Instrument type: LC-ESI-QFT
Ms type: MS2
Ion mode: NEGATIVE
Ionization: ESI
Fragmentation mode: HCD
Collision energy: 90 (nominal)
Resolution: 35000
Column name: XBridge C18 3.5um, 2.1x50mm, Waters
Retention time: 14.3 min
Base peak: 324.164
Precursor m/z: 324.1639
Precursor type: [M-H]-
m/z	relative intensity	assigned
57.0346	1	C3H5O-
58.9961	24	C2H3S-
60.9753	5	CHOS-
65.0397	7	C5H5-
65.9985	328	C3NO-
67.019	11	C4H3O-
68.0142	12	C3H2NO-
68.0507	1	C4H6N-
69.0346	150	C4H5O-
78.0349	7	C5H4N-
80.0267	6	C5H4O-
80.0507	1	C5H6N-
81.0347	1	C5H5O-
82.0298	48	C4H4NO-
85.0117	4	C4H5S-
92.0506	24	C6H6N-
93.0346	2	C6H5O-
94.0298	13	C5H4NO-
95.0139	88	C5H3O2-
101.0431	59	C5H9S-
106.03	2	C6H4NO-
106.0662	6	C7H8N-
107.0377	4	C6H5NO-
107.0503	13	C7H7O-
108.0217	35	C6H4O2-
108.0455	2	C6H6NO-
109.0295	34	C6H5O2-
110.061	8	C6H8NO-
116.0507	2	C8H6N-
118.0301	5	C7H4NO-
120.0091	377	C6H2NO2-
121.0171	2	C6H3NO2-
121.0532	1	C7H7NO-
121.0659	20	C8H9O-
122.0613	1	C7H8NO-
123.0816	5	C8H11O-
131.0378	13	C8H5NO-
132.0456	6	C8H6NO-
134.0248	999	C7H4NO2-
135.0326	63	C7H5NO2-
136.0402	9	C7H6NO2-
138.0383	1	C7H8NS-
140.054	86	C7H10NS-
146.0248	4	C8H4NO2-
146.0614	1	C9H8NO-
147.0325	5	C8H5NO2-
147.069	1	C9H9NO-
148.0768	11	C9H10NO-
149.0609	2	C9H9O2-
150.0194	18	C7H4NO3-
153.0379	2	C8H9OS-
158.061	11	C10H8NO-
160.0403	23	C9H6NO2-
160.0769	13	C10H10NO-
161.0485	1	C9H7NO2-
162.056	37	C9H8NO2-
163.0765	1	C10H11O2-
166.0332	7	C8H8NOS-
167.0224	25	C7H5NO4-
167.0535	32	C9H11OS-
169.0692	5	C9H13OS-
171.0487	2	C8H11O2S-
174.0559	7	C10H8NO2-
175.064	1	C10H9NO2-
176.0717	6	C10H10NO2-
192.0489	194	C10H10NOS-
194.0644	155	C10H12NOS-
202.0874	8	C12H12NO2-
208.0799	1	C11H14NOS-
218.0647	1	C12H12NOS-
236.0751	776	C12H14NO2S-
237.0952	1	C13H17O2S-
264.1071	1	C14H18NO2S-
