Mass spectrum: Perindopril; LC-ESI-QFT; MS2; CE: 60; R=35000; [M-H]-
Name: Perindopril
Name: Coversyl
Name: (2S,3aS, 7aS)-1-[(2S)-2-[[(2S)-1-ethoxy-1-oxopentan-2-yl]amino]propanoyl]-2,3,3a, 4,5,6,7,7a-octahydroindole-2-carboxylic acid
Formula: C19H32N2O5
Exact mass: 368.23112
SMILES: CCCC(C(=O)OCC)NC(C)C(=O)N1C2CCCCC2CC1C(=O)O
InChI: InChI=1S/C19H32N2O5/c1-4-8-14(19(25)26-5-2)20-12(3)17(22)21-15-10-7-6-9-13(15)11-16(21)18(23)24/h12-16,20H,4-11H2,1-3H3,(H,23,24)
Instrument: Q Exactive Orbitrap Thermo Scientific
Instrument type: LC-ESI-QFT
Ms type: MS2
Ion mode: NEGATIVE
Ionization: ESI
Fragmentation mode: HCD
Collision energy: 60 (nominal)
Resolution: 35000
Column name: XBridge C18 3.5um, 2.1x50mm, Waters
Retention time: 7.5 min
Base peak: 367.2239
Precursor m/z: 367.2238
Precursor type: [M-H]-
m/z	relative intensity	assigned
55.0189	6	C3H3O-
57.0347	1	C3H5O-
68.0506	1	C4H6N-
72.0455	5	C3H6NO-
73.0295	5	C3H5O2-
81.022	5	C4H3NO-
81.0346	5	C5H5O-
83.0503	60	C5H7O-
85.066	1	C5H9O-
94.0662	1	C6H8N-
95.0377	19	C5H5NO-
96.0819	63	C6H10N-
97.066	1	C6H9O-
98.0977	1	C6H12N-
106.0662	3	C7H8N-
109.0534	15	C6H7NO-
120.0819	9	C8H10N-
122.0977	8	C8H12N-
124.0768	183	C7H10NO-
126.0924	13	C7H12NO-
136.0769	2	C8H10NO-
150.0925	1	C9H12NO-
151.0879	2	C8H11N2O-
152.0718	1	C8H10NO2-
154.0873	3	C8H12NO2-
160.1128	1	C11H14N-
166.0873	4	C9H12NO2-
168.103	999	C9H14NO2-
176.1081	1	C11H14NO-
177.1032	4	C10H13N2O-
178.1236	8	C11H16NO-
180.1394	28	C11H18NO-
206.1184	9	C12H16NO2-
208.1707	3	C13H22NO-
216.1262	1	C13H16N2O-
221.1294	1	C12H17N2O2-
221.1662	1	C13H21N2O-
221.2023	3	C14H25N2-
245.1661	1	C15H21N2O-
249.1973	6	C15H25N2O-
259.1819	4	C16H23N2O-
277.192	1	C16H25N2O2-
