Mass spectrum: Coumachlor; LC-ESI-QFT; MS2; CE: 75; R=35000; [M+H]+
Name: Coumachlor
Name: Ratilan
Name: 3-[1-(4-chlorophenyl)-3-oxobutyl]-4-hydroxychromen-2-one
Formula: C19H15ClO4
Exact mass: 342.06589
SMILES: Clc1ccc(cc1)C(C=2C(=O)c3c(OC=2O)cccc3)CC(=O)C
InChI: InChI=1S/C19H15ClO4/c1-11(21)10-15(12-6-8-13(20)9-7-12)17-18(22)14-4-2-3-5-16(14)24-19(17)23/h2-9,15,22H,10H2,1H3
Instrument: Q Exactive Orbitrap Thermo Scientific
Instrument type: LC-ESI-QFT
Ms type: MS2
Ion mode: POSITIVE
Ionization: ESI
Fragmentation mode: HCD
Collision energy: 75 (nominal)
Resolution: 35000
Column name: XBridge C18 3.5um, 2.1x50mm, Waters
Retention time: 12.4 min
Base peak: 343.0736
Precursor m/z: 343.0732
Precursor type: [M+H]+
m/z	relative intensity	assigned
50.0152	3	C4H2+
51.023	1	C4H3+
53.0023	1	C3HO+
53.0388	3	C4H5+
65.0386	101	C5H5+
68.9971	57	C3HO2+
69.0335	6	C4H5O+
77.0385	26	C6H5+
79.0543	3	C6H7+
81.0335	1	C5H5O+
89.0386	10	C7H5+
91.0542	111	C7H7+
93.0335	76	C6H5O+
95.0492	467	C6H7O+
102.0464	23	C8H6+
105.0336	3	C7H5O+
105.0448	44	C6H5N2+
107.049	3	C7H7O+
111.0441	74	C6H7O2+
115.0543	1	C9H7+
119.0492	27	C8H7O+
121.0284	999	C7H5O2+
125.0153	10	C7H6Cl+
127.0541	2	C10H7+
128.0621	35	C10H8+
129.0335	8	C9H5O+
129.0448	6	C8H5N2+
137.0153	113	C8H6Cl+
138.9945	15	C7H4ClO+
139.039	58	C7H7O3+
145.0285	16	C9H5O2+
145.065	16	C10H9O+
146.0728	3	C10H10O+
152.0622	24	C12H8+
153.0699	367	C12H9+
154.0777	115	C12H10+
155.0604	8	C10H7N2+
163.039	947	C9H7O3+
164.0025	6	C9H5ClO+
165.0102	128	C9H6ClO+
165.0699	45	C13H9+
166.0778	49	C13H10+
169.0645	3	C12H9O+
173.0233	2	C10H5O3+
175.0391	6	C10H7O3+
176.062	13	C14H8+
177.07	9	C14H9+
178.0778	74	C14H10+
181.0417	27	C10H10ClO+
181.0648	73	C13H9O+
182.0728	116	C13H10O+
189.0467	215	C12H10Cl+
189.0548	22	C11H9O3+
191.034	261	C10H7O4+
193.0648	11	C14H9O+
194.0727	41	C14H10O+
199.0308	3	C13H8Cl+
201.0466	29	C13H10Cl+
204.0571	3	C15H8O+
205.0651	16	C15H9O+
206.073	6	C15H10O+
209.0002	28	C10H6ClO3+
213.0468	3	C14H10Cl+
215.0259	2	C13H8ClO+
217.0417	236	C13H10ClO+
221.0599	89	C15H9O2+
222.0676	15	C15H10O2+
229.0418	3	C14H10ClO+
239.0261	17	C15H8ClO+
249.0548	442	C16H9O3+
250.0626	32	C16H10O3+
257.0365	108	C15H10ClO2+
267.0208	26	C16H8ClO2+
283.0159	6	C16H8ClO3+
285.0314	126	C16H10ClO3+
