Mass spectrum: Benthiavalicarb-isopropyl; LC-ESI-QFT; MS2; CE: 75; R=35000; [M+H]+
Name: Benthiavalicarb-isopropyl
Name: Isopropyl (1-{[1-(6-fluoro-1,3-benzothiazol-2-yl)ethyl]amino}-3-methyl-1-oxo-2-butanyl)carbamate
Name: propan-2-yl N-[(2S)-1-[[(1R)-1-(6-fluoro-1, 3-benzothiazol-2-yl)ethyl]amino]-3-methyl-1-oxobutan-2-yl]carbamate
Formula: C18H24FN3O3S
Exact mass: 381.15224
SMILES: CC(C)OC(=O)N[C@@H](C(C)C)C(=O)N[C@H](C)c1nc2ccc(F)cc2s1
InChI: InChI=1S/C18H24FN3O3S/c1-9(2)15(22-18(24)25-10(3)4)16(23)20-11(5)17-21-13-7-6-12(19)8-14(13)26-17/h6-11,15H,1-5H3,(H,20,23)(H,22,24)/t11-,15+/m1/s1
Instrument: Q Exactive Orbitrap Thermo Scientific
Instrument type: LC-ESI-QFT
Ms type: MS2
Ion mode: POSITIVE
Ionization: ESI
Fragmentation mode: HCD
Collision energy: 75 (nominal)
Resolution: 35000
Column name: XBridge C18 3.5um, 2.1x50mm, Waters
Retention time: 10.8 min
Base peak: 382.1591
Precursor m/z: 382.1595
Precursor type: [M+H]+
m/z	relative intensity	assigned
55.0542	18	C4H7+
56.0495	2	C3H6N+
57.0572	10	C3H7N+
62.0236	2	CH4NO2+
70.065	2	C4H8N+
72.0806	414	C4H10N+
74.0235	2	C2H4NO2+
83.0289	11	C5H4F+
98.0599	224	C5H8NO+
116.0704	124	C5H10NO2+
127.001	152	C6H4FS+
154.0119	30	C7H5FNS+
180.0275	999	C9H7FNS+
