Mass spectrum: Perindopril; LC-ESI-QFT; MS2; CE: 90; R=35000; [M-H]-
Name: Perindopril
Name: Coversyl
Name: (2S,3aS, 7aS)-1-[(2S)-2-[[(2S)-1-ethoxy-1-oxopentan-2-yl]amino]propanoyl]-2,3,3a, 4,5,6,7,7a-octahydroindole-2-carboxylic acid
Formula: C19H32N2O5
Exact mass: 368.23112
SMILES: CCCC(C(=O)OCC)NC(C)C(=O)N1C2CCCCC2CC1C(=O)O
InChI: InChI=1S/C19H32N2O5/c1-4-8-14(19(25)26-5-2)20-12(3)17(22)21-15-10-7-6-9-13(15)11-16(21)18(23)24/h12-16,20H,4-11H2,1-3H3,(H,23,24)
Instrument: Q Exactive Orbitrap Thermo Scientific
Instrument type: LC-ESI-QFT
Ms type: MS2
Ion mode: NEGATIVE
Ionization: ESI
Fragmentation mode: HCD
Collision energy: 90 (nominal)
Resolution: 35000
Column name: XBridge C18 3.5um, 2.1x50mm, Waters
Retention time: 7.5 min
Base peak: 367.2239
Precursor m/z: 367.2238
Precursor type: [M-H]-
m/z	relative intensity	assigned
55.0189	78	C3H3O-
66.035	8	C4H4N-
68.0507	8	C4H6N-
71.0502	4	C4H7O-
72.0455	19	C3H6NO-
73.0296	11	C3H5O2-
81.022	40	C4H3NO-
81.0346	60	C5H5O-
83.0502	209	C5H7O-
94.0663	8	C6H8N-
95.0376	88	C5H5NO-
96.0819	44	C6H10N-
97.0658	6	C6H9O-
106.0661	7	C7H8N-
109.0533	99	C6H7NO-
120.082	30	C8H10N-
122.0975	20	C8H12N-
124.0768	89	C7H10NO-
126.0924	7	C7H12NO-
151.0873	8	C8H11N2O-
166.0873	24	C9H12NO2-
168.103	999	C9H14NO2-
206.1181	9	C12H16NO2-
215.1195	4	C13H15N2O-
