Mass spectrum: Piracetam; LC-ESI-QFT; MS2; CE: 90; R=35000; [M+H]+
Name: Piracetam
Name: 1-Pyrrolidineacetamide, 2-oxo-
Name: 2-(2-ketopyrrolidino)acetamide
Formula: C6H10N2O2
Exact mass: 142.07423
SMILES: O=C1N(CC(=O)N)CCC1
InChI: InChI=1S/C6H10N2O2/c7-5(9)4-8-3-1-2-6(8)10/h1-4H2,(H2,7,9)
Instrument: Q Exactive Orbitrap Thermo Scientific
Instrument type: LC-ESI-QFT
Ms type: MS2
Ion mode: POSITIVE
Ionization: ESI
Fragmentation mode: HCD
Collision energy: 90 (nominal)
Resolution: 35000
Column name: XBridge C18 3.5um, 2.1x50mm, Waters
Retention time: 1.1 min
Base peak: 143.0815
Precursor m/z: 143.0815
Precursor type: [M+H]+
m/z	relative intensity	assigned
68.0495	43	C4H6N+
69.0335	259	C4H5O+
70.0651	560	C4H8N+
80.0494	5	C5H6N+
98.0601	999	C5H8NO+
126.0549	11	C6H8NO2+
