Mass spectrum: Cycloxydim; LC-ESI-QFT; MS2; CE: 15; R=35000; [M+H]+
Name: Cycloxydim
Name: 2-[(1E)-N-Ethoxybutanimidoyl]-3-hydroxy-5-(tetrahydro-2H-thiopyran-3-yl)-2-cyclohexen-1-one
Formula: C17H27NO3S
Exact mass: 325.17116
SMILES: O=C2C(\C(=O)CC(C1CCCSC1)C2)=C(\NOCC)CCC
InChI: InChI=1S/C17H27NO3S/c1-3-6-14(18-21-4-2)17-15(19)9-13(10-16(17)20)12-7-5-8-22-11-12/h12-13,19H,3-11H2,1-2H3/b18-14+
Instrument: Q Exactive Orbitrap Thermo Scientific
Instrument type: LC-ESI-QFT
Ms type: MS2
Ion mode: POSITIVE
Ionization: ESI
Fragmentation mode: HCD
Collision energy: 15 (nominal)
Resolution: 35000
Column name: XBridge C18 3.5um, 2.1x50mm, Waters
Retention time: 14.3 min
Base peak: 326.1785
Precursor m/z: 326.1784
Precursor type: [M+H]+
m/z	relative intensity	assigned
86.06	2	C4H8NO+
87.0262	3	C4H7S+
101.0419	56	C5H9S+
110.0598	8	C6H8NO+
112.0755	9	C6H10NO+
113.0417	1	C6H9S+
135.0805	1	C9H11O+
138.0548	1	C7H8NO2+
139.0574	4	C8H11S+
152.0705	1	C8H10NO2+
154.0862	3	C8H12NO2+
155.0524	9	C8H11OS+
162.0908	4	C10H12NO+
163.0751	5	C10H11O2+
178.086	5	C10H12NO2+
180.1017	100	C10H14NO2+
181.1094	2	C10H15NO2+
182.1175	8	C10H16NO2+
194.063	1	C10H12NOS+
195.0836	6	C11H15OS+
206.0995	1	C12H16NS+
207.0839	1	C12H15OS+
220.0788	2	C12H14NOS+
221.0993	1	C13H17OS+
224.1101	3	C12H18NOS+
234.131	1	C14H20NS+
235.1153	3	C14H19OS+
236.1103	7	C13H18NOS+
238.0895	24	C12H16NO2S+
238.1259	9	C13H20NOS+
240.1415	1	C13H22NOS+
248.1644	2	C15H22NO2+
252.1415	22	C14H22NOS+
254.157	2	C14H24NOS+
262.126	6	C15H20NOS+
263.1101	13	C15H19O2S+
265.1257	2	C15H21O2S+
280.1365	844	C15H22NO2S+
281.1217	4	C15H21O3S+
281.1441	28	C15H23NO2S+
282.1519	106	C15H24NO2S+
326.1782	999	C17H28NO3S+
