Mass spectrum: Coumachlor; LC-ESI-QFT; MS2; CE: 30; R=35000; [M-H]-
Name: Coumachlor
Name: Ratilan
Name: 3-[1-(4-chlorophenyl)-3-oxobutyl]-4-hydroxychromen-2-one
Formula: C19H15ClO4
Exact mass: 342.06589
SMILES: Clc1ccc(cc1)C(C=2C(=O)c3c(OC=2O)cccc3)CC(=O)C
InChI: InChI=1S/C19H15ClO4/c1-11(21)10-15(12-6-8-13(20)9-7-12)17-18(22)14-4-2-3-5-16(14)24-19(17)23/h2-9,15,22H,10H2,1H3
Instrument: Q Exactive Orbitrap Thermo Scientific
Instrument type: LC-ESI-QFT
Ms type: MS2
Ion mode: NEGATIVE
Ionization: ESI
Fragmentation mode: HCD
Collision energy: 30 (nominal)
Resolution: 35000
Column name: XBridge C18 3.5um, 2.1x50mm, Waters
Retention time: 12.3 min
Base peak: 341.0588
Precursor m/z: 341.0586
Precursor type: [M-H]-
m/z	relative intensity	assigned
57.0345	13	C3H5O-
83.0138	4	C4H3O2-
93.0345	1	C6H5O-
117.0347	29	C8H5O-
161.0244	999	C9H5O3-
164.0036	1	C9H5ClO-
167.0269	12	C9H8ClO-
191.0272	3	C11H8ClO-
221.0375	2	C12H10ClO2-
255.022	1	C15H8ClO2-
255.0582	4	C16H12ClO-
257.0376	31	C15H10ClO2-
281.0376	1	C17H10ClO2-
282.0453	2	C17H11ClO2-
284.0245	810	C16H9ClO3-
295.0531	1	C18H12ClO2-
297.069	5	C18H14ClO2-
323.0481	8	C19H12ClO3-
341.0585	611	C19H14ClO4-
