Mass spectrum: Benalaxyl; LC-ESI-QFT; MS2; CE: 15; R=35000; [M+H]+
Name: Benalaxyl
Name: 2-(2,6-dimethyl-N-(1-oxo-2-phenylethyl)anilino)propanoic acid methyl ester
Formula: C20H23NO3
Exact mass: 325.16779
SMILES: O=C(N(c1c(cccc1C)C)C(C(=O)OC)C)Cc2ccccc2
InChI: InChI=1S/C20H23NO3/c1-14-9-8-10-15(2)19(14)21(16(3)20(23)24-4)18(22)13-17-11-6-5-7-12-17/h5-12,16H,13H2,1-4H3
Instrument: Q Exactive Orbitrap Thermo Scientific
Instrument type: LC-ESI-QFT
Ms type: MS2
Ion mode: POSITIVE
Ionization: ESI
Fragmentation mode: HCD
Collision energy: 15 (nominal)
Resolution: 35000
Column name: XBridge C18 3.5um, 2.1x50mm, Waters
Retention time: 13.0 min
Base peak: 326.1754
Precursor m/z: 326.1751
Precursor type: [M+H]+
m/z	relative intensity	assigned
91.0541	103	C7H7+
105.0699	1	C8H9+
106.0651	2	C7H8N+
120.0807	1	C8H10N+
121.0882	15	C8H11N+
148.1121	355	C10H14N+
208.1334	702	C12H18NO2+
266.1541	393	C18H20NO+
294.149	999	C19H20NO2+
326.1753	527	C20H24NO3+
