Mass spectrum: Perindopril; LC-ESI-QFT; MS2; CE: 45; R=35000; [M+H]+
Name: Perindopril
Name: Coversyl
Name: (2S,3aS, 7aS)-1-[(2S)-2-[[(2S)-1-ethoxy-1-oxopentan-2-yl]amino]propanoyl]-2,3,3a, 4,5,6,7,7a-octahydroindole-2-carboxylic acid
Formula: C19H32N2O5
Exact mass: 368.23112
SMILES: CCCC(C(=O)OCC)NC(C)C(=O)N1C2CCCCC2CC1C(=O)O
InChI: InChI=1S/C19H32N2O5/c1-4-8-14(19(25)26-5-2)20-12(3)17(22)21-15-10-7-6-9-13(15)11-16(21)18(23)24/h12-16,20H,4-11H2,1-3H3,(H,23,24)
Instrument: Q Exactive Orbitrap Thermo Scientific
Instrument type: LC-ESI-QFT
Ms type: MS2
Ion mode: POSITIVE
Ionization: ESI
Fragmentation mode: HCD
Collision energy: 45 (nominal)
Resolution: 35000
Column name: XBridge C18 3.5um, 2.1x50mm, Waters
Retention time: 7.4 min
Base peak: 369.2391
Precursor m/z: 369.2384
Precursor type: [M+H]+
m/z	relative intensity	assigned
54.0338	1	C3H4N+
55.0543	1	C4H7+
56.0495	14	C3H6N+
69.07	6	C5H9+
70.0651	5	C4H8N+
72.0808	251	C4H10N+
73.0648	30	C4H9O+
74.0237	16	C2H4NO2+
81.07	5	C6H9+
97.1012	1	C7H13+
98.0965	999	C6H12N+
100.1122	7	C6H14N+
107.0858	1	C8H11+
116.1072	2	C6H14NO+
124.1122	50	C8H14N+
130.0865	11	C6H12NO2+
144.1022	21	C7H14NO2+
144.1385	18	C8H18NO+
152.1071	4	C9H14NO+
168.1019	3	C9H14NO2+
170.1178	191	C9H16NO2+
172.1333	923	C9H18NO2+
198.1131	1	C10H16NO3+
224.1646	2	C13H22NO2+
295.2022	25	C16H27N2O3+
