Mass spectrum: Chloroxynil; LC-ESI-QFT; MS2; CE: 75; R=35000; [M-H]-
Name: Chloroxynil
Name: 3,5-Dichloro-4-hydroxybenzonitrile
Name: 3,5-bis(chloranyl)-4-oxidanyl-benzenecarbonitrile
Formula: C7H3Cl2NO
Exact mass: 186.95917
SMILES: Clc1cc(C#N)cc(Cl)c1O
InChI: InChI=1S/C7H3Cl2NO/c8-5-1-4(3-10)2-6(9)7(5)11/h1-2,11H
Instrument: Q Exactive Orbitrap Thermo Scientific
Instrument type: LC-ESI-QFT
Ms type: MS2
Ion mode: NEGATIVE
Ionization: ESI
Fragmentation mode: HCD
Collision energy: 75 (nominal)
Resolution: 35000
Column name: XBridge C18 3.5um, 2.1x50mm, Waters
Retention time: 7.5 min
Base peak: 185.9522
Precursor m/z: 185.9519
Precursor type: [M-H]-
m/z	relative intensity	assigned
86.0037	24	C6N-
98.9643	44	C4ClO-
113.9984	4	C7NO-
121.9804	78	C6HClN-
149.9751	158	C7HClNO-
185.9519	999	C7H2Cl2NO-
