Mass spectrum: Benthiavalicarb-isopropyl; LC-ESI-QFT; MS2; CE: 30; R=35000; [M-H]-
Name: Benthiavalicarb-isopropyl
Name: Isopropyl (1-{[1-(6-fluoro-1,3-benzothiazol-2-yl)ethyl]amino}-3-methyl-1-oxo-2-butanyl)carbamate
Name: propan-2-yl N-[(2S)-1-[[(1R)-1-(6-fluoro-1, 3-benzothiazol-2-yl)ethyl]amino]-3-methyl-1-oxobutan-2-yl]carbamate
Formula: C18H24FN3O3S
Exact mass: 381.15224
SMILES: CC(C)OC(=O)N[C@@H](C(C)C)C(=O)N[C@H](C)c1nc2ccc(F)cc2s1
InChI: InChI=1S/C18H24FN3O3S/c1-9(2)15(22-18(24)25-10(3)4)16(23)20-11(5)17-21-13-7-6-12(19)8-14(13)26-17/h6-11,15H,1-5H3,(H,20,23)(H,22,24)/t11-,15+/m1/s1
Instrument: Q Exactive Orbitrap Thermo Scientific
Instrument type: LC-ESI-QFT
Ms type: MS2
Ion mode: NEGATIVE
Ionization: ESI
Fragmentation mode: HCD
Collision energy: 30 (nominal)
Resolution: 35000
Column name: XBridge C18 3.5um, 2.1x50mm, Waters
Retention time: 10.8 min
Base peak: 320.0875
Precursor m/z: 380.145
Precursor type: [M-H]-
m/z	relative intensity	assigned
57.9756	8	CNS-
83.0502	17	C5H7O-
97.0043	30	C3HN2O2-
98.0611	1	C5H8NO-
124.0767	1	C7H10NO-
126.056	4	C6H8NO2-
139.051	6	C6H7N2O2-
141.0054	9	C6H4FNS-
141.0669	2	C6H9N2O2-
142.013	19	C6H5FNS-
151.9975	605	C7H3FNS-
167.0824	7	C8H11N2O2-
167.9926	4	C7H3FNOS-
180.0288	72	C9H7FNS-
193.024	49	C9H6FN2S-
208.0601	1	C11H11FNS-
221.019	16	C10H6FN2OS-
234.0756	14	C13H13FNS-
243.0949	1	C14H12FN2O-
262.0581	1	C13H11FN2OS-
277.0327	93	C12H8FN3O2S-
277.0815	605	C14H14FN2OS-
320.0873	999	C15H15FN3O2S-
