Mass spectrum: Coumafuryl; LC-ESI-QFT; MS2; CE: 15; R=35000; [M-H]-
Name: Coumafuryl
Name: Fumarin
Name: 3-[1-(furan-2-yl)-3-oxobutyl]-4-hydroxychromen-2-one
Formula: C17H14O5
Exact mass: 298.08412
SMILES: O=C(C)CC(C=1C(=O)c2c(OC=1O)cccc2)c3occc3
InChI: InChI=1S/C17H14O5/c1-10(18)9-12(13-7-4-8-21-13)15-16(19)11-5-2-3-6-14(11)22-17(15)20/h2-8,12,19H,9H2,1H3
Instrument: Q Exactive Orbitrap Thermo Scientific
Instrument type: LC-ESI-QFT
Ms type: MS2
Ion mode: NEGATIVE
Ionization: ESI
Fragmentation mode: HCD
Collision energy: 15 (nominal)
Resolution: 35000
Column name: XBridge C18 3.5um, 2.1x50mm, Waters
Retention time: 9.0 min
Base peak: 297.0768
Precursor m/z: 297.0768
Precursor type: [M-H]-
m/z	relative intensity	assigned
57.0346	4	C3H5O-
117.0347	2	C8H5O-
123.0453	5	C7H7O2-
161.0244	176	C9H5O3-
177.0557	8	C10H9O3-
211.0395	3	C13H7O3-
213.0559	2	C13H9O3-
240.0428	47	C14H8O4-
255.0663	3	C15H11O4-
279.0658	1	C17H11O4-
297.0766	999	C17H13O5-
