Mass spectrum: Mandipropamid; LC-ESI-QFT; MS2; CE: 90; R=35000; [M+H]+
Name: Mandipropamid
Name: 2-(4-Chlorophenyl)-N-{2-[3-methoxy-4-(2-propyn-1-yloxy)phenyl]ethyl}-2-(2-propyn-1-yloxy)acetamide
Formula: C23H22ClNO4
Exact mass: 411.12374
SMILES: Clc1ccc(cc1)C(OCC#C)C(=O)NCCc2ccc(OCC#C)c(OC)c2
InChI: InChI=1S/C23H22ClNO4/c1-4-14-28-20-11-6-17(16-21(20)27-3)12-13-25-23(26)22(29-15-5-2)18-7-9-19(24)10-8-18/h1-2,6-11,16,22H,12-15H2,3H3,(H,25,26)
Instrument: Q Exactive Orbitrap Thermo Scientific
Instrument type: LC-ESI-QFT
Ms type: MS2
Ion mode: POSITIVE
Ionization: ESI
Fragmentation mode: HCD
Collision energy: 90 (nominal)
Resolution: 35000
Column name: XBridge C18 3.5um, 2.1x50mm, Waters
Retention time: 10.7 min
Base peak: 412.1311
Precursor m/z: 412.131
Precursor type: [M+H]+
m/z	relative intensity	assigned
63.0229	2	C5H3+
65.0385	8	C5H5+
69.0335	1	C4H5O+
77.0386	1	C6H5+
78.0464	7	C6H6+
79.0542	15	C6H7+
80.0495	1	C5H6N+
89.0385	97	C7H5+
90.0463	23	C7H6+
91.0542	165	C7H7+
92.062	4	C7H8+
93.0699	15	C7H9+
94.0412	4	C6H6O+
94.0651	16	C6H8N+
95.0491	33	C6H7O+
98.9996	40	C5H4Cl+
102.0464	9	C8H6+
103.0542	47	C8H7+
104.0495	7	C7H6N+
104.062	9	C8H8+
105.0335	4	C7H5O+
105.0699	11	C8H9+
106.0652	9	C7H8N+
107.0491	37	C7H7O+
108.0808	1	C7H10N+
109.0649	6	C7H9O+
113.0152	1	C6H6Cl+
115.0542	74	C9H7+
116.062	22	C9H8+
117.0573	15	C8H7N+
117.0698	34	C9H9+
118.0412	7	C8H6O+
118.065	55	C8H8N+
118.0777	4	C9H10+
119.0492	23	C8H7O+
119.073	2	C8H9N+
120.0444	2	C7H6NO+
120.0568	7	C8H8O+
120.0807	1	C8H10N+
121.0648	54	C8H9O+
122.0362	3	C7H6O2+
122.06	32	C7H8NO+
123.0439	10	C7H7O2+
125.0152	999	C7H6Cl+
127.0542	6	C10H7+
128.062	61	C10H8+
129.0699	16	C10H9+
130.0415	1	C9H6O+
130.0651	14	C9H8N+
130.0778	1	C10H10+
131.0492	52	C9H7O+
131.0731	4	C9H9N+
132.0441	1	C8H6NO+
132.0571	5	C9H8O+
132.081	8	C9H10N+
133.0522	12	C8H7NO+
133.0648	5	C9H9O+
134.06	29	C8H8NO+
135.044	41	C8H7O2+
135.0679	7	C8H9NO+
136.0519	5	C8H8O2+
136.0757	23	C8H10NO+
137.0153	1	C8H6Cl+
137.0596	11	C8H9O2+
138.0675	1	C8H10O2+
138.9945	6	C7H4ClO+
139.0057	4	C9HNO+
140.0261	13	C7H7ClN+
141.0696	1	C11H9+
142.0657	1	C10H8N+
143.073	5	C10H9N+
144.057	13	C10H8O+
144.0808	6	C10H10N+
145.0648	27	C10H9O+
146.06	31	C9H8NO+
146.0726	4	C10H10O+
147.044	53	C9H7O2+
147.0679	4	C9H9NO+
148.0519	21	C9H8O2+
148.0757	19	C9H10NO+
149.0152	7	C9H6Cl+
149.0598	11	C9H9O2+
150.055	22	C8H8NO2+
150.0676	6	C9H10O2+
151.0755	6	C9H11O2+
152.0022	1	C8H5ClO+
152.0262	23	C8H7ClN+
152.062	3	C12H8+
153.0698	3	C12H9+
154.0647	1	C11H8N+
155.0604	11	C10H7N2+
157.0649	9	C11H9O+
158.0601	1	C10H8NO+
159.0439	1	C10H7O2+
159.0679	1	C10H9NO+
160.0756	7	C10H10NO+
161.0598	4	C10H9O2+
162.0546	2	C9H8NO2+
163.0626	2	C9H9NO2+
164.0705	18	C9H10NO2+
165.07	38	C13H9+
166.0777	14	C13H10+
167.0855	4	C13H11+
170.0602	2	C11H8NO+
172.0756	2	C11H10NO+
175.0307	1	C11H8Cl+
176.0704	15	C10H10NO2+
177.0701	5	C14H9+
177.0779	1	C10H11NO2+
178.0777	32	C14H10+
179.0855	18	C14H11+
180.0214	1	C9H7ClNO+
181.0649	5	C13H9O+
182.0728	6	C13H10O+
184.0755	1	C12H10NO+
189.0701	12	C15H9+
190.0779	10	C15H10+
191.0854	20	C15H11+
192.0934	4	C15H12+
193.0883	1	C14H11N+
194.0726	20	C14H10O+
195.0803	1	C14H11O+
196.0879	1	C14H12O+
199.0308	5	C13H8Cl+
201.0465	5	C13H10Cl+
202.0776	18	C16H10+
203.0855	19	C16H11+
204.0934	6	C16H12+
205.0647	1	C15H9O+
205.1017	4	C16H13+
206.0727	2	C15H10O+
208.0881	13	C15H12O+
212.039	5	C14H9Cl+
213.0466	5	C14H10Cl+
215.0857	18	C17H11+
216.0936	1	C17H12+
217.0888	4	C16H11N+
217.1015	1	C17H13+
218.0729	2	C13H13ClN+
218.0968	1	C16H12N+
221.0952	1	C16H13O+
225.0467	4	C15H10Cl+
225.0911	1	C15H13O2+
226.0542	1	C15H11Cl+
228.0335	2	C14H9ClO+
229.042	6	C14H10ClO+
231.0805	5	C17H11O+
234.0916	5	C16H12NO+
235.0993	5	C16H13NO+
241.0419	4	C15H10ClO+
255.0574	2	C16H12ClO+
263.0946	1	C17H13NO2+
