Mass spectrum: 2-Mercaptobenzothiazole; LC-ESI-QFT; MS2; CE: 15; R=35000; [M-H]-
Name: 2-Mercaptobenzothiazole
Name: 1,3-Benzothiazole-2(3H)-thione
Name: 3H-1,3-benzothiazole-2-thione
Formula: C7H5NS2
Exact mass: 166.98634
SMILES: S=C2Sc1ccccc1N2
InChI: InChI=1S/C7H5NS2/c9-7-8-5-3-1-2-4-6(5)10-7/h1-4H,(H,8,9)
Instrument: Q Exactive Plus Orbitrap Thermo Scientific
Instrument type: LC-ESI-QFT
Ms type: MS2
Ion mode: NEGATIVE
Ionization: ESI
Fragmentation mode: HCD
Collision energy: 15 (nominal)
Resolution: 35000
Column name: XBridge C18 3.5um, 2.1x50mm, Waters
Retention time: 6.7 min
Base peak: 165.9789
Precursor m/z: 165.9791
Precursor type: [M-H]-
m/z	relative intensity	assigned
57.9754	4	CNS-
134.007	15	C7H4NS-
165.9791	999	C7H4NS2-
