Mass spectrum: Dinotefuran; LC-ESI-QFT; MS2; CE: 60; R=35000; [M-H]-
Name: Dinotefuran
Name: 2-methyl-1-nitro-3-(oxolan-3-ylmethyl)guanidine
Formula: C7H14N4O3
Exact mass: 202.10659
SMILES: [O-][N+](=O)NC(=N/C)\NCC1CCOC1
InChI: InChI=1S/C7H14N4O3/c1-8-7(10-11(12)13)9-4-6-2-3-14-5-6/h6H,2-5H2,1H3,(H2,8,9,10)
Instrument: Q Exactive Orbitrap Thermo Scientific
Instrument type: LC-ESI-QFT
Ms type: MS2
Ion mode: NEGATIVE
Ionization: ESI
Fragmentation mode: HCD
Collision energy: 60 (nominal)
Resolution: 35000
Column name: XBridge C18 3.5um, 2.1x50mm, Waters
Retention time: 2.8 min
Base peak: 201.0995
Precursor m/z: 201.0993
Precursor type: [M-H]-
m/z	relative intensity	assigned
55.0301	36	C2H3N2-
61.0043	999	HN2O2-
66.0349	45	C4H4N-
67.0302	2	C3H3N2-
68.0506	82	C4H6N-
73.0407	15	C2H5N2O-
80.0506	10	C5H6N-
82.0298	13	C4H4NO-
82.0662	2	C5H8N-
98.0612	2	C5H8NO-
108.0455	1	C6H6NO-
109.0771	9	C6H9N2-
125.072	3	C6H9N2O-
139.0876	2	C7H11N2O-
201.0993	10	C7H13N4O3-
