Mass spectrum: Pregabalin; LC-ESI-QFT; MS2; CE: 30; R=35000; [M-H]-
Name: Pregabalin
Name:  (3S)-3-(aminomethyl)-5-methyl-hexanoic acid
Formula: C8H17NO2
Exact mass: 159.12593
SMILES: CC(C)C[C@H](CN)CC(O)=O
InChI: InChI=1S/C8H17NO2/c1-6(2)3-7(5-9)4-8(10)11/h6-7H,3-5,9H2,1-2H3,(H,10,11)/t7-/m0/s1
Instrument: Q Exactive Orbitrap Thermo Scientific
Instrument type: LC-ESI-QFT
Ms type: MS2
Ion mode: NEGATIVE
Ionization: ESI
Fragmentation mode: HCD
Collision energy: 30 (nominal)
Resolution: 35000
Column name: XBridge C18 3.5um, 2.1x50mm, Waters
Retention time: 3.5 min
Base peak: 158.1187
Precursor m/z: 158.1187
Precursor type: [M-H]-
m/z	relative intensity	assigned
82.0299	1	C4H4NO-
130.0172	12	C7H2N2O-
140.1081	30	C8H14NO-
158.1186	999	C8H16NO2-
