Mass spectrum: Dinotefuran; LC-ESI-QFT; MS2; CE: 15; R=35000; [M+H]+
Name: Dinotefuran
Name: 2-methyl-1-nitro-3-(oxolan-3-ylmethyl)guanidine
Formula: C7H14N4O3
Exact mass: 202.10659
SMILES: [O-][N+](=O)NC(=N/C)\NCC1CCOC1
InChI: InChI=1S/C7H14N4O3/c1-8-7(10-11(12)13)9-4-6-2-3-14-5-6/h6H,2-5H2,1H3,(H2,8,9,10)
Instrument: Q Exactive Orbitrap Thermo Scientific
Instrument type: LC-ESI-QFT
Ms type: MS2
Ion mode: POSITIVE
Ionization: ESI
Fragmentation mode: HCD
Collision energy: 15 (nominal)
Resolution: 35000
Column name: XBridge C18 3.5um, 2.1x50mm, Waters
Retention time: 2.7 min
Base peak: 203.1137
Precursor m/z: 203.1139
Precursor type: [M+H]+
m/z	relative intensity	assigned
56.0493	1	C3H6N+
57.0445	7	C2H5N2+
58.0525	6	C2H6N2+
71.0603	11	C3H7N2+
72.0443	8	C3H6NO+
72.0555	3	C2H6N3+
72.0807	9	C4H10N+
73.0634	144	C2H7N3+
74.0712	27	C2H8N3+
83.0491	3	C5H7O+
86.0712	20	C3H8N3+
87.079	393	C3H9N3+
98.0712	4	C4H8N3+
99.0791	5	C4H9N3+
99.0916	4	C5H11N2+
100.0868	193	C4H10N3+
101.0947	19	C4H11N3+
112.0869	95	C5H10N3+
113.0947	485	C5H11N3+
114.1024	521	C5H12N3+
119.0688	4	C3H9N3O2+
126.1025	3	C6H12N3+
127.0867	5	C6H11N2O+
127.1103	49	C6H13N3+
128.0818	12	C5H10N3O+
128.1182	69	C6H14N3+
129.0896	999	C5H11N3O+
129.1257	101	C6H15N3+
141.1021	7	C7H13N2O+
144.1131	2	C6H14N3O+
145.0845	25	C5H11N3O2+
145.1212	3	C6H15N3O+
156.1131	32	C7H14N3O+
157.1209	184	C7H15N3O+
161.1158	6	C6H15N3O2+
172.1079	4	C7H14N3O2+
173.1158	25	C7H15N3O2+
203.1137	171	C7H15N4O3+
