Mass spectrum: Flucytosine (5-FC); LC-ESI-QFT; MS2; CE: 60; R=35000; [M-H]-
Name: Flucytosine (5-FC)
Name: 6-Amino-5-fluoro-2(1H)-pyrimidinone
Name: 6-amino-5-fluoro-1H-pyrimidin-2-one
Formula: C4H4FN3O
Exact mass: 129.03384
SMILES: FC=1\C=N/C(=O)NC=1N
InChI: InChI=1S/C4H4FN3O/c5-2-1-7-4(9)8-3(2)6/h1H,(H3,6,7,8,9)
Instrument: Q Exactive Orbitrap Thermo Scientific
Instrument type: LC-ESI-QFT
Ms type: MS2
Ion mode: NEGATIVE
Ionization: ESI
Fragmentation mode: HCD
Collision energy: 60 (nominal)
Resolution: 35000
Column name: XBridge C18 3.5um, 2.1x50mm, Waters
Retention time: 0.9 min
Base peak: 116.9288
Precursor m/z: 128.0266
Precursor type: [M-H]-
m/z	relative intensity	assigned
58.0098	84	C2HFN-
58.9939	2	C2FO-
64.0066	4	C3N2-
65.0145	22	C3HN2-
85.0207	999	C3H2FN2-
128.0265	160	C4H3FN3O-
