Mass spectrum: Didanosine; LC-ESI-QFT; MS2; CE: 15; R=35000; [M-H]-
Name: Didanosine
Name: 9-[(2R,5S)-5-(hydroxymethyl)-2-oxolanyl]-3H-purin-6-one
Formula: C10H12N4O3
Exact mass: 236.09094
SMILES: O=C3/N=C\Nc1c3ncn1[C@@H]2O[C@@H](CC2)CO
InChI: InChI=1S/C10H12N4O3/c15-3-6-1-2-7(17-6)14-5-13-8-9(14)11-4-12-10(8)16/h4-7,15H,1-3H2,(H,11,12,16)/t6-,7+/m0/s1
Instrument: Q Exactive Orbitrap Thermo Scientific
Instrument type: LC-ESI-QFT
Ms type: MS2
Ion mode: NEGATIVE
Ionization: ESI
Fragmentation mode: HCD
Collision energy: 15 (nominal)
Resolution: 35000
Column name: XBridge C18 3.5um, 2.1x50mm, Waters
Retention time: 2.3 min
Base peak: 235.0838
Precursor m/z: 235.0837
Precursor type: [M-H]-
m/z	relative intensity	assigned
92.0254	1	C4H2N3-
134.0229	5	C5H2N4O-
135.0313	96	C5H3N4O-
175.0624	5	C8H7N4O-
233.0681	2	C10H9N4O3-
235.0836	999	C10H11N4O3-
