Mass spectrum: 1-(Methoxymethyl)-1H-benzotriazole; LC-ESI-QFT; MS2; CE: 90; R=35000; [M+H]+
Name: 1-(Methoxymethyl)-1H-benzotriazole
Name: 1-(methoxymethyl)benzotriazole
Formula: C8H9N3O
Exact mass: 163.07456
SMILES: n1nn(c2ccccc12)COC
InChI: InChI=1S/C8H9N3O/c1-12-6-11-8-5-3-2-4-7(8)9-10-11/h2-5H,6H2,1H3
Instrument: Q Exactive Plus Orbitrap Thermo Scientific
Instrument type: LC-ESI-QFT
Ms type: MS2
Ion mode: POSITIVE
Ionization: ESI
Fragmentation mode: HCD
Collision energy: 90 (nominal)
Resolution: 35000
Column name: XBridge C18 3.5um, 2.1x50mm, Waters
Retention time: 5.4 min
Base peak: 164.0818
Precursor m/z: 164.0818
Precursor type: [M+H]+
m/z	relative intensity	assigned
50.0151	23	C4H2+
51.023	168	C4H3+
53.0386	301	C4H5+
55.0178	5	C3H3O+
64.0307	8	C5H4+
65.0386	97	C5H5+
66.0464	24	C5H6+
77.0386	719	C6H5+
78.0339	54	C5H4N+
78.0464	165	C6H6+
79.0543	464	C6H7+
80.0495	15	C5H6N+
81.0336	31	C5H5O+
91.0417	181	C6H5N+
93.0574	33	C6H7N+
94.0413	5	C6H6O+
95.0492	999	C6H7O+
96.0444	15	C5H6NO+
104.0495	83	C7H6N+
105.0448	525	C6H5N2+
106.0652	234	C7H8N+
111.044	3	C6H7O2+
120.0445	141	C7H6NO+
132.0557	8	C7H6N3+
134.0713	535	C7H8N3+
