Mass spectrum: Prilocaine; LC-ESI-QFT; MS2; CE: 15; R=35000; [M+H]+
Name: Prilocaine
Name: Propanamide, N-(2-methylphenyl)-2-(propylamino)-
Name: N-(2-methylphenyl)-2-(propylamino)propanamide
Formula: C13H20N2O
Exact mass: 220.15756
SMILES: O=C(Nc1ccccc1C)C(NCCC)C
InChI: InChI=1S/C13H20N2O/c1-4-9-14-11(3)13(16)15-12-8-6-5-7-10(12)2/h5-8,11,14H,4,9H2,1-3H3,(H,15,16)
Instrument: Q Exactive Orbitrap Thermo Scientific
Instrument type: LC-ESI-QFT
Ms type: MS2
Ion mode: POSITIVE
Ionization: ESI
Fragmentation mode: HCD
Collision energy: 15 (nominal)
Resolution: 35000
Column name: XBridge C18 3.5um, 2.1x50mm, Waters
Retention time: 4.5 min
Base peak: 221.1653
Precursor m/z: 221.1648
Precursor type: [M+H]+
m/z	relative intensity	assigned
86.0965	999	C5H12N+
136.0759	7	C8H10NO+
221.1652	145	C13H21N2O+
