Mass spectrum: Dinotefuran; LC-ESI-QFT; MS2; CE: 30; R=35000; [M+H]+
Name: Dinotefuran
Name: 2-methyl-1-nitro-3-(oxolan-3-ylmethyl)guanidine
Formula: C7H14N4O3
Exact mass: 202.10659
SMILES: [O-][N+](=O)NC(=N/C)\NCC1CCOC1
InChI: InChI=1S/C7H14N4O3/c1-8-7(10-11(12)13)9-4-6-2-3-14-5-6/h6H,2-5H2,1H3,(H2,8,9,10)
Instrument: Q Exactive Orbitrap Thermo Scientific
Instrument type: LC-ESI-QFT
Ms type: MS2
Ion mode: POSITIVE
Ionization: ESI
Fragmentation mode: HCD
Collision energy: 30 (nominal)
Resolution: 35000
Column name: XBridge C18 3.5um, 2.1x50mm, Waters
Retention time: 2.7 min
Base peak: 203.1137
Precursor m/z: 203.1139
Precursor type: [M+H]+
m/z	relative intensity	assigned
57.0445	8	C2H5N2+
58.0525	12	C2H6N2+
58.0652	2	C3H8N+
59.0604	1	C2H7N2+
67.0541	2	C5H7+
71.0603	10	C3H7N2+
72.0443	16	C3H6NO+
72.0555	6	C2H6N3+
72.0807	11	C4H10N+
73.0634	217	C2H7N3+
74.0712	38	C2H8N3+
83.0491	3	C5H7O+
85.0646	1	C5H9O+
86.0712	24	C3H8N3+
87.079	469	C3H9N3+
96.068	2	C5H8N2+
97.0759	1	C5H9N2+
98.0713	9	C4H8N3+
99.0791	5	C4H9N3+
99.0916	3	C5H11N2+
100.0869	268	C4H10N3+
101.0947	29	C4H11N3+
112.0868	137	C5H10N3+
113.0947	411	C5H11N3+
114.1024	526	C5H12N3+
119.069	5	C3H9N3O2+
126.1025	2	C6H12N3+
127.0865	9	C6H11N2O+
127.1103	38	C6H13N3+
128.0819	14	C5H10N3O+
128.1182	69	C6H14N3+
129.0896	999	C5H11N3O+
129.1258	59	C6H15N3+
141.1021	6	C7H13N2O+
145.0845	23	C5H11N3O2+
145.1208	1	C6H15N3O+
156.113	16	C7H14N3O+
157.1209	70	C7H15N3O+
161.1159	5	C6H15N3O2+
173.1157	13	C7H15N3O2+
203.1137	51	C7H15N4O3+
