Mass spectrum: Dinotefuran; LC-ESI-QFT; MS2; CE: 90; R=35000; [M+H]+
Name: Dinotefuran
Name: 2-methyl-1-nitro-3-(oxolan-3-ylmethyl)guanidine
Formula: C7H14N4O3
Exact mass: 202.10659
SMILES: [O-][N+](=O)NC(=N/C)\NCC1CCOC1
InChI: InChI=1S/C7H14N4O3/c1-8-7(10-11(12)13)9-4-6-2-3-14-5-6/h6H,2-5H2,1H3,(H2,8,9,10)
Instrument: Q Exactive Orbitrap Thermo Scientific
Instrument type: LC-ESI-QFT
Ms type: MS2
Ion mode: POSITIVE
Ionization: ESI
Fragmentation mode: HCD
Collision energy: 90 (nominal)
Resolution: 35000
Column name: XBridge C18 3.5um, 2.1x50mm, Waters
Retention time: 2.7 min
Base peak: 203.1137
Precursor m/z: 203.1139
Precursor type: [M+H]+
m/z	relative intensity	assigned
56.0369	33	C2H4N2+
56.0495	90	C3H6N+
57.0448	493	C2H5N2+
58.0526	307	C2H6N2+
58.0652	108	C3H8N+
59.0477	1	CH5N3+
59.0604	18	C2H7N2+
67.0542	23	C5H7+
68.0495	13	C4H6N+
69.0447	15	C3H5N2+
70.0526	41	C3H6N2+
70.0651	104	C4H8N+
71.0603	22	C3H7N2+
71.073	4	C4H9N+
72.0443	999	C3H6NO+
72.0556	97	C2H6N3+
72.0807	84	C4H10N+
73.0634	899	C2H7N3+
74.0712	79	C2H8N3+
80.0495	9	C5H6N+
81.0447	9	C4H5N2+
82.0525	7	C4H6N2+
82.0651	4	C5H8N+
83.0492	20	C5H7O+
83.0603	64	C4H7N2+
84.0556	17	C3H6N3+
84.0683	5	C4H8N2+
85.0759	12	C4H9N2+
86.0712	37	C3H8N3+
87.055	20	
87.079	417	C3H9N3+
91.0541	2	C7H7+
95.0603	20	C5H7N2+
96.0681	7	C5H8N2+
97.0396	4	C4H5N2O+
97.076	56	C5H9N2+
98.0713	130	C4H8N3+
99.0916	7	C5H11N2+
100.0869	322	C4H10N3+
101.0948	4	C4H11N3+
110.0715	1	C5H8N3+
111.0915	3	C6H11N2+
112.0868	461	C5H10N3+
113.0947	54	C5H11N3+
114.1025	326	C5H12N3+
119.069	2	C3H9N3O2+
126.1025	17	C6H12N3+
127.0866	23	C6H11N2O+
128.0818	17	C5H10N3O+
128.1181	16	C6H14N3+
129.0896	39	C5H11N3O+
