Mass spectrum: Prolinamide; LC-ESI-QFT; MS2; CE: 45; R=35000; [M-H]-
Name: Prolinamide
Name: 2-pyrrolidinecarboxamide
Name: 2-Pyrrolidinecarboxamide, (S)-
Formula: C5H10N2O
Exact mass: 114.07931
SMILES: O=C(N)C1NCCC1
InChI: InChI=1S/C5H10N2O/c6-5(8)4-2-1-3-7-4/h4,7H,1-3H2,(H2,6,8)
Instrument: Q Exactive Orbitrap Thermo Scientific
Instrument type: LC-ESI-QFT
Ms type: MS2
Ion mode: NEGATIVE
Ionization: ESI
Fragmentation mode: HCD
Collision energy: 45 (nominal)
Resolution: 35000
Column name: XBridge C18 3.5um, 2.1x50mm, Waters
Retention time: 1.0 min
Base peak: 116.9288
Precursor m/z: 113.072
Precursor type: [M-H]-
m/z	relative intensity	assigned
69.0346	999	C4H5O-
113.0718	365	C5H9N2O-
