Mass spectrum: Prolinamide; LC-ESI-QFT; MS2; CE: 75; R=35000; [M+H]+
Name: Prolinamide
Name: 2-pyrrolidinecarboxamide
Name: 2-Pyrrolidinecarboxamide, (S)-
Formula: C5H10N2O
Exact mass: 114.07931
SMILES: O=C(N)C1NCCC1
InChI: InChI=1S/C5H10N2O/c6-5(8)4-2-1-3-7-4/h4,7H,1-3H2,(H2,6,8)
Instrument: Q Exactive Orbitrap Thermo Scientific
Instrument type: LC-ESI-QFT
Ms type: MS2
Ion mode: POSITIVE
Ionization: ESI
Fragmentation mode: HCD
Collision energy: 75 (nominal)
Resolution: 35000
Column name: XBridge C18 3.5um, 2.1x50mm, Waters
Retention time: 0.8 min
Base peak: 115.0866
Precursor m/z: 115.0866
Precursor type: [M+H]+
m/z	relative intensity	assigned
68.0496	2	C4H6N+
70.0651	999	C4H8N+
115.0866	35	C5H11N2O+
