Mass spectrum: Dinotefuran; LC-ESI-QFT; MS2; CE: 75; R=35000; [M+H]+
Name: Dinotefuran
Name: 2-methyl-1-nitro-3-(oxolan-3-ylmethyl)guanidine
Formula: C7H14N4O3
Exact mass: 202.10659
SMILES: [O-][N+](=O)NC(=N/C)\NCC1CCOC1
InChI: InChI=1S/C7H14N4O3/c1-8-7(10-11(12)13)9-4-6-2-3-14-5-6/h6H,2-5H2,1H3,(H2,8,9,10)
Instrument: Q Exactive Orbitrap Thermo Scientific
Instrument type: LC-ESI-QFT
Ms type: MS2
Ion mode: POSITIVE
Ionization: ESI
Fragmentation mode: HCD
Collision energy: 75 (nominal)
Resolution: 35000
Column name: XBridge C18 3.5um, 2.1x50mm, Waters
Retention time: 2.7 min
Base peak: 203.1137
Precursor m/z: 203.1139
Precursor type: [M+H]+
m/z	relative intensity	assigned
56.0369	14	C2H4N2+
56.0495	30	C3H6N+
57.0448	210	C2H5N2+
57.0573	14	C3H7N+
58.0526	183	C2H6N2+
58.0651	74	C3H8N+
59.0604	24	C2H7N2+
67.0542	13	C5H7+
68.0495	6	C4H6N+
69.0447	9	C3H5N2+
70.0525	34	C3H6N2+
70.0651	45	C4H8N+
71.0603	15	C3H7N2+
71.0729	5	C4H9N+
72.0444	670	C3H6NO+
72.0556	78	C2H6N3+
72.0807	78	C4H10N+
73.0634	999	C2H7N3+
74.0712	79	C2H8N3+
80.0494	2	C5H6N+
81.0446	2	C4H5N2+
82.0525	5	C4H6N2+
83.0491	15	C5H7O+
83.0603	44	C4H7N2+
84.0556	15	C3H6N3+
84.0682	5	C4H8N2+
85.0759	8	C4H9N2+
86.0712	49	C3H8N3+
87.079	607	C3H9N3+
91.0541	1	C7H7+
95.0604	5	C5H7N2+
96.0681	11	C5H8N2+
97.0396	3	C4H5N2O+
97.076	39	C5H9N2+
98.0713	94	C4H8N3+
99.0791	6	C4H9N3+
99.0917	2	C5H11N2+
100.0869	468	C4H10N3+
101.0947	18	C4H11N3+
105.0532	2	C2H7N3O2+
111.0552	1	C5H7N2O+
111.0916	2	C6H11N2+
112.0869	487	C5H10N3+
113.0947	96	C5H11N3+
114.1025	499	C5H12N3+
119.0688	8	C3H9N3O2+
126.1025	17	C6H12N3+
127.0865	19	C6H11N2O+
127.1104	6	C6H13N3+
128.0818	24	C5H10N3O+
128.1182	36	C6H14N3+
129.0896	119	C5H11N3O+
141.1021	2	C7H13N2O+
145.0844	2	C5H11N3O2+
