Mass spectrum: Dinotefuran; LC-ESI-QFT; MS2; CE: 15; R=35000; [M-H]-
Name: Dinotefuran
Name: 2-methyl-1-nitro-3-(oxolan-3-ylmethyl)guanidine
Formula: C7H14N4O3
Exact mass: 202.10659
SMILES: [O-][N+](=O)NC(=N/C)\NCC1CCOC1
InChI: InChI=1S/C7H14N4O3/c1-8-7(10-11(12)13)9-4-6-2-3-14-5-6/h6H,2-5H2,1H3,(H2,8,9,10)
Instrument: Q Exactive Orbitrap Thermo Scientific
Instrument type: LC-ESI-QFT
Ms type: MS2
Ion mode: NEGATIVE
Ionization: ESI
Fragmentation mode: HCD
Collision energy: 15 (nominal)
Resolution: 35000
Column name: XBridge C18 3.5um, 2.1x50mm, Waters
Retention time: 2.8 min
Base peak: 201.0995
Precursor m/z: 201.0993
Precursor type: [M-H]-
m/z	relative intensity	assigned
55.0301	11	C2H3N2-
61.0043	777	HN2O2-
66.0349	15	C4H4N-
67.0302	1	C3H3N2-
68.0506	61	C4H6N-
73.0407	32	C2H5N2O-
80.0506	5	C5H6N-
82.0299	6	C4H4NO-
82.0662	5	C5H8N-
98.0612	10	C5H8NO-
100.0769	9	C5H10NO-
108.0456	1	C6H6NO-
109.0772	55	C6H9N2-
110.0611	4	C6H8NO-
111.0928	7	C6H11N2-
117.042	4	C2H5N4O2-
121.0771	1	C7H9N2-
125.0716	1	C6H9N2O-
127.0876	1	C6H11N2O-
139.0877	45	C7H11N2O-
157.0983	19	C7H13N2O2-
171.0886	4	C6H11N4O2-
201.0993	999	C7H13N4O3-
