Mass spectrum: Dinotefuran; LC-ESI-QFT; MS2; CE: 60; R=35000; [M+H]+
Name: Dinotefuran
Name: 2-methyl-1-nitro-3-(oxolan-3-ylmethyl)guanidine
Formula: C7H14N4O3
Exact mass: 202.10659
SMILES: [O-][N+](=O)NC(=N/C)\NCC1CCOC1
InChI: InChI=1S/C7H14N4O3/c1-8-7(10-11(12)13)9-4-6-2-3-14-5-6/h6H,2-5H2,1H3,(H2,8,9,10)
Instrument: Q Exactive Orbitrap Thermo Scientific
Instrument type: LC-ESI-QFT
Ms type: MS2
Ion mode: POSITIVE
Ionization: ESI
Fragmentation mode: HCD
Collision energy: 60 (nominal)
Resolution: 35000
Column name: XBridge C18 3.5um, 2.1x50mm, Waters
Retention time: 2.7 min
Base peak: 203.1137
Precursor m/z: 203.1139
Precursor type: [M+H]+
m/z	relative intensity	assigned
56.0369	6	C2H4N2+
56.0495	9	C3H6N+
57.0447	78	C2H5N2+
57.0573	5	C3H7N+
58.0526	103	C2H6N2+
58.0651	34	C3H8N+
59.0366	1	C2H5NO+
59.0604	17	C2H7N2+
67.0542	10	C5H7+
68.0494	4	C4H6N+
69.0447	2	C3H5N2+
70.0525	23	C3H6N2+
70.0651	13	C4H8N+
71.0603	13	C3H7N2+
71.073	4	C4H9N+
72.0443	347	C3H6NO+
72.0555	54	C2H6N3+
72.0807	57	C4H10N+
73.0634	999	C2H7N3+
74.0712	88	C2H8N3+
80.0495	1	C5H6N+
81.0447	1	C4H5N2+
82.0649	1	C5H8N+
83.0491	10	C5H7O+
83.0603	19	C4H7N2+
84.0554	7	C3H6N3+
84.0682	7	C4H8N2+
85.076	5	C4H9N2+
86.0712	55	C3H8N3+
87.079	863	C3H9N3+
95.0604	4	C5H7N2+
96.0682	11	C5H8N2+
97.0398	1	C4H5N2O+
97.076	20	C5H9N2+
98.0712	80	C4H8N3+
99.079	13	C4H9N3+
99.0917	4	C5H11N2+
100.0869	686	C4H10N3+
101.0947	41	C4H11N3+
105.0533	1	C2H7N3O2+
111.0552	1	C5H7N2O+
111.0916	1	C6H11N2+
112.0868	506	C5H10N3+
113.0947	263	C5H11N3+
114.1025	739	C5H12N3+
117.0897	1	C4H11N3O+
119.0689	8	C3H9N3O2+
125.0952	1	C6H11N3+
126.1025	14	C6H12N3+
127.0864	17	C6H11N2O+
127.1104	23	C6H13N3+
128.0817	33	C5H10N3O+
128.1181	73	C6H14N3+
129.0896	488	C5H11N3O+
133.0843	1	C4H11N3O2+
141.102	4	C7H13N2O+
144.1135	1	C6H14N3O+
145.0847	11	C5H11N3O2+
156.1132	2	C7H14N3O+
