Mass spectrum: Dinotefuran; LC-ESI-QFT; MS2; CE: 75; R=35000; [M-H]-
Name: Dinotefuran
Name: 2-methyl-1-nitro-3-(oxolan-3-ylmethyl)guanidine
Formula: C7H14N4O3
Exact mass: 202.10659
SMILES: [O-][N+](=O)NC(=N/C)\NCC1CCOC1
InChI: InChI=1S/C7H14N4O3/c1-8-7(10-11(12)13)9-4-6-2-3-14-5-6/h6H,2-5H2,1H3,(H2,8,9,10)
Instrument: Q Exactive Orbitrap Thermo Scientific
Instrument type: LC-ESI-QFT
Ms type: MS2
Ion mode: NEGATIVE
Ionization: ESI
Fragmentation mode: HCD
Collision energy: 75 (nominal)
Resolution: 35000
Column name: XBridge C18 3.5um, 2.1x50mm, Waters
Retention time: 2.8 min
Base peak: 201.0995
Precursor m/z: 201.0993
Precursor type: [M-H]-
m/z	relative intensity	assigned
55.0301	51	C2H3N2-
61.0043	999	HN2O2-
66.0349	46	C4H4N-
67.0301	2	C3H3N2-
68.0506	56	C4H6N-
73.0407	11	C2H5N2O-
80.0506	10	C5H6N-
82.0298	8	C4H4NO-
92.0507	2	C6H6N-
124.0877	2	C6H10N3-
125.0718	3	C6H9N2O-
