Mass spectrum: Tetraglyme; LC-ESI-QFT; MS2; CE: 45; R=35000; [M+H]+
Name: Tetraglyme
Name: 1-methoxy-2-[2-[2-(2-methoxyethoxy)ethoxy]ethoxy]ethane
Formula: C10H22O5
Exact mass: 222.14672
SMILES: COCCOCCOCCOCCOC
InChI: InChI=1S/C10H22O5/c1-11-3-5-13-7-9-15-10-8-14-6-4-12-2/h3-10H2,1-2H3
Instrument: Q Exactive Plus Orbitrap Thermo Scientific
Instrument type: LC-ESI-QFT
Ms type: MS2
Ion mode: POSITIVE
Ionization: ESI
Fragmentation mode: HCD
Collision energy: 45 (nominal)
Resolution: 35000
Column name: XBridge C18 3.5um, 2.1x50mm, Waters
Retention time: 4.5 min
Base peak: 223.1539
Precursor m/z: 223.154
Precursor type: [M+H]+
m/z	relative intensity	assigned
59.0491	999	C3H7O+
73.0648	1	C4H9O+
89.0597	11	C4H9O2+
103.0753	295	C5H11O2+
