Mass spectrum: Dinotefuran; LC-ESI-QFT; MS2; CE: 45; R=35000; [M+H]+
Name: Dinotefuran
Name: 2-methyl-1-nitro-3-(oxolan-3-ylmethyl)guanidine
Formula: C7H14N4O3
Exact mass: 202.10659
SMILES: [O-][N+](=O)NC(=N/C)\NCC1CCOC1
InChI: InChI=1S/C7H14N4O3/c1-8-7(10-11(12)13)9-4-6-2-3-14-5-6/h6H,2-5H2,1H3,(H2,8,9,10)
Instrument: Q Exactive Orbitrap Thermo Scientific
Instrument type: LC-ESI-QFT
Ms type: MS2
Ion mode: POSITIVE
Ionization: ESI
Fragmentation mode: HCD
Collision energy: 45 (nominal)
Resolution: 35000
Column name: XBridge C18 3.5um, 2.1x50mm, Waters
Retention time: 2.7 min
Base peak: 203.1137
Precursor m/z: 203.1139
Precursor type: [M+H]+
m/z	relative intensity	assigned
56.0369	4	C2H4N2+
56.0495	4	C3H6N+
57.0447	46	C2H5N2+
58.0525	64	C2H6N2+
58.0651	20	C3H8N+
59.0366	1	C2H5NO+
59.0604	9	C2H7N2+
67.0542	8	C5H7+
69.0446	1	C3H5N2+
70.0525	15	C3H6N2+
70.0651	5	C4H8N+
71.0603	16	C3H7N2+
72.0443	202	C3H6NO+
72.0555	36	C2H6N3+
72.0807	45	C4H10N+
73.0634	899	C2H7N3+
74.0712	93	C2H8N3+
83.0491	7	C5H7O+
83.0603	11	C4H7N2+
84.0556	5	C3H6N3+
84.0682	7	C4H8N2+
85.0648	1	C5H9O+
85.076	5	C4H9N2+
86.0712	57	C3H8N3+
87.079	999	C3H9N3+
96.0682	5	C5H8N2+
97.076	9	C5H9N2+
98.0712	58	C4H8N3+
99.0553	1	C4H7N2O+
99.0791	17	C4H9N3+
99.0917	4	C5H11N2+
100.0868	758	C4H10N3+
101.0947	54	C4H11N3+
105.0533	2	C2H7N3O2+
111.0914	1	C6H11N2+
112.0868	480	C5H10N3+
113.0946	427	C5H11N3+
114.1024	887	C5H12N3+
117.0896	1	C4H11N3O+
119.0688	10	C3H9N3O2+
125.0949	1	C6H11N3+
126.1025	13	C6H12N3+
127.0864	16	C6H11N2O+
127.1103	42	C6H13N3+
128.0818	35	C5H10N3O+
128.1181	102	C6H14N3+
129.0895	979	C5H11N3O+
141.1021	8	C7H13N2O+
142.0975	1	C6H12N3O+
145.0845	24	C5H11N3O2+
156.1131	7	C7H14N3O+
157.121	8	C7H15N3O+
173.1162	1	C7H15N3O2+
203.1135	1	C7H15N4O3+
