Mass spectrum: Flucytosine (5-FC); LC-ESI-QFT; MS2; CE: 75; R=35000; [M+H]+
Name: Flucytosine (5-FC)
Name: 6-Amino-5-fluoro-2(1H)-pyrimidinone
Name: 6-amino-5-fluoro-1H-pyrimidin-2-one
Formula: C4H4FN3O
Exact mass: 129.03384
SMILES: FC=1\C=N/C(=O)NC=1N
InChI: InChI=1S/C4H4FN3O/c5-2-1-7-4(9)8-3(2)6/h1H,(H3,6,7,8,9)
Instrument: Q Exactive Orbitrap Thermo Scientific
Instrument type: LC-ESI-QFT
Ms type: MS2
Ion mode: POSITIVE
Ionization: ESI
Fragmentation mode: HCD
Collision energy: 75 (nominal)
Resolution: 35000
Column name: XBridge C18 3.5um, 2.1x50mm, Waters
Retention time: 0.9 min
Base peak: 130.0412
Precursor m/z: 130.0411
Precursor type: [M+H]+
m/z	relative intensity	assigned
58.0089	140	C2HFN+
60.0245	36	C2H3FN+
85.0196	110	C3H2FN2+
87.0354	285	C3H4FN2+
112.0307	46	C4H3FN3+
113.0146	526	C4H2FN2O+
130.0413	999	C4H5FN3O+
