Mass spectrum: MCYR; LC-ESI-QFT; MS2; CE: 180%; R=17500; [M-H]-
Name: MCYR
Name: Microcystin YR
Name: (5R,8S,11R,12S,15S,18S,19S,22R)-15-[3-(diaminomethylideneamino)propyl]-8-[(4-hydroxyphenyl)methyl]-18-[(1E,3E,5S,6S)-6-methoxy-3,5-dimethyl-7-phenylhepta-1,3-dienyl]-1,5,12,19-tetramethyl-2-methylidene-3,6,9,13,16,20,25-heptaoxo-1,4,7,10,14,17,21-heptazacyclopentacosane-11,22-dicarboxylic acid
Class: NA
Formula: C52H72N10O13
Exact mass: 1044.5280
SMILES: CO[C@@H](Cc1ccccc1)[C@@H](C)\C=C(C)\C=C\[C@@H]2NC(=O)[C@H](CCCNC(N)=N)NC(=O)[C@@H](C)[C@@H](NC(=O)[C@H](Cc3ccc(O)cc3)NC(=O)[C@@H](C)NC(=O)C(=C)N(C)C(=O)CC[C@@H](NC(=O)[C@H]2C)C(O)=O)C(O)=O
InChI: InChI=1S/C52H72N10O13/c1-28(25-29(2)41(75-8)27-34-13-10-9-11-14-34)16-21-37-30(3)44(65)59-39(50(71)72)22-23-42(64)62(7)33(6)47(68)56-32(5)46(67)60-40(26-35-17-19-36(63)20-18-35)49(70)61-43(51(73)74)31(4)45(66)58-38(48(69)57-37)15-12-24-55-52(53)54/h9-11,13-14,16-21,25,29-32,37-41,43,63H,6,12,15,22-24,26-27H2,1-5,7-8H3,(H,56,68)(H,57,69)(H,58,66)(H,59,65)(H,60,67)(H,61,70)(H,71,72)(H,73,74)(H4,53,54,55)/b21-16+,28-25+/t29-,30-,31-,32+,37-,38-,39+,40-,41-,43+/m0/s1
Instrument: Q Exactive Plus Orbitrap Thermo Scientific
Instrument type: LC-ESI-QFT
Ms type: MS2
Ion mode: NEGATIVE
Ionization: ESI
Fragmentation mode: HCD
Collision energy: 180 % (nominal)
Resolution: 17500
Column name: XBridge C18 3.5um, 2.1x50mm, Waters
Retention time: 8.062 min
Base peak: 190.9277
Precursor m/z: 1043.5208
Precursor type: [M-H]-
m/z	relative intensity	assigned
72.0453	42	C3H6NO-
73.0409	248	C2H5N2O-
74.0246	80	C2H4NO2-
82.0298	98	C4H4NO-
83.0251	171	C3H3N2O-
84.0455	97	C4H6NO-
87.0562	66	C3H7N2O-
93.0345	175	C6H5O-
95.0248	56	C4H3N2O-
97.0405	78	C4H5N2O-
99.02	62	C3H3N2O2-
109.041	211	C5H5N2O-
110.0249	319	C5H4NO2-
111.0203	50	C4H3N2O2-
113.0357	107	C4H5N2O2-
117.0342	73	C8H5O-
119.0503	999	C8H7O-
120.0457	46	C7H6NO-
123.0327	43	C6H5NO2-
124.0399	70	C6H6NO2-
126.0674	79	C5H8N3O-
127.0511	57	C5H7N2O2-
128.0349	61	C5H6NO3-
133.0533	86	C8H7NO-
134.0607	47	C8H8NO-
144.045	145	C9H6NO-
