Mass spectrum: Betamethasone 21; LC-ESI-QFT; MS2; CE: 45; R=35000; [M-H]-
Name: Betamethasone 21
Name: [2-[(8S,9R,10S,11S,13S,14S,16S,17R)-9-fluoro-11,17-dihydroxy-10,13,16-trimethyl-3-oxo-6,7,8,11,12,14,15,16-octahydrocyclopenta[a]phenanthren-17-yl]-2-oxoethyl] acetate
Formula: C24H31FO6
Exact mass: 434.21047
SMILES: O=C(OCC(=O)[C@]3(O)[C@]2(C[C@H](O)[C@]4(F)[C@@]/1(\C(=C/C(=O)\C=C\1)CC[C@H]4[C@@H]2C[C@@H]3C)C)C)C
InChI: InChI=1S/C24H31FO6/c1-13-9-18-17-6-5-15-10-16(27)7-8-21(15,3)23(17,25)19(28)11-22(18,4)24(13,30)20(29)12-31-14(2)26/h7-8,10,13,17-19,28,30H,5-6,9,11-12H2,1-4H3/t13-,17-,18-,19-,21-,22-,23-,24-/m0/s1
Instrument: Q Exactive Orbitrap Thermo Scientific
Instrument type: LC-ESI-QFT
Ms type: MS2
Ion mode: NEGATIVE
Ionization: ESI
Fragmentation mode: HCD
Collision energy: 45 (nominal)
Resolution: 35000
Column name: XBridge C18 3.5um, 2.1x50mm, Waters
Retention time: 10.5 min
Base peak: 479.2092
Precursor m/z: 433.2032
Precursor type: [M-H]-
m/z	relative intensity	assigned
59.0138	999	C2H3O2-
83.0503	1	C5H7O-
99.0452	1	C5H7O2-
107.05	1	C7H7O-
121.0658	7	C8H9O-
123.0453	1	C7H7O2-
133.0657	3	C9H9O-
