Mass spectrum: Deprenyl; LC-ESI-QFT; MS2; CE: 150; R=35000; [M+H]+
Name: Deprenyl
Name: Selegiline
Name: (2R)-N-methyl-1-phenyl-N-prop-2-ynylpropan-2-amine
Formula: C13H17N
Exact mass: 187.13610
SMILES: C[C@H](Cc1ccccc1)N(C)CC#C
InChI: InChI=1S/C13H17N/c1-4-10-14(3)12(2)11-13-8-6-5-7-9-13/h1,5-9,12H,10-11H2,2-3H3/t12-/m1/s1
Instrument: Q Exactive Plus Orbitrap Thermo Scientific
Instrument type: LC-ESI-QFT
Ms type: MS2
Ion mode: POSITIVE
Ionization: ESI
Fragmentation mode: HCD
Collision energy: 150 (nominal)
Resolution: 35000
Column name: XBridge C18 3.5um, 2.1x50mm, Waters
Retention time: 4.1 min
Base peak: 188.1433
Precursor m/z: 188.1434
Precursor type: [M+H]+
m/z	relative intensity	assigned
50.0151	6	C4H2+
51.023	7	C4H3+
53.0022	16	C3HO+
53.0386	2	C4H5+
53.9975	2	C2NO+
56.0495	1	C3H6N+
58.0652	6	C3H8N+
62.0151	4	C5H2+
63.023	42	C5H3+
65.0386	799	C5H5+
77.0386	5	C6H5+
78.0465	5	C6H6+
79.0542	1	C6H7+
89.0385	2	C7H5+
91.0543	999	C7H7+
95.0492	6	C6H7O+
103.0542	3	C8H7+
105.0447	3	C6H5N2+
115.0542	2	C9H7+
