Mass spectrum: Triclabendazole; LC-ESI-QFT; MS2; CE: 30; R=35000; [M-H]-
Name: Triclabendazole
Name: Triclabendazol
Name: 6-chloro-5-(2,3-dichlorophenoxy)-2-methylsulfanyl-1H-benzimidazole
Formula: C14H9Cl3N2OS
Exact mass: 357.95012
SMILES: CSc1[nH]c2cc(c(cc2n1)Oc3cccc(c3Cl)Cl)Cl
InChI: InChI=1S/C14H9Cl3N2OS/c1-21-14-18-9-5-8(16)12(6-10(9)19-14)20-11-4-2-3-7(15)13(11)17/h2-6H,1H3,(H,18,19)
Instrument: Q Exactive Plus Orbitrap Thermo Scientific
Instrument type: LC-ESI-QFT
Ms type: MS2
Ion mode: NEGATIVE
Ionization: ESI
Fragmentation mode: HCD
Collision energy: 30 (nominal)
Resolution: 35000
Column name: XBridge C18 3.5um, 2.1x50mm, Waters
Retention time: 14.2 min
Base peak: 358.9395
Precursor m/z: 356.9428
Precursor type: [M-H]-
m/z	relative intensity	assigned
165.9936	2	C7H3ClN2O-
196.9578	26	C7H2ClN2OS-
211.9817	125	C8H5ClN2OS-
305.9416	1	C13H4Cl2N2OS-
309.9472	1	C13H5Cl3N2O-
310.9552	14	C13H6Cl3N2O-
323.964	1	C14H7Cl3N2O-
341.9195	307	C13H5Cl3N2OS-
356.9428	999	C14H8Cl3N2OS-
