Mass spectrum: Fludrocortisone; LC-ESI-QFT; MS2; CE: 45; R=35000; [M-H]-
Name: Fludrocortisone
Name: [2-[(8S,9R,10S,11S,13S,14S,17R)-9-fluoro-11,17-dihydroxy-10,13-dimethyl-3-oxo-1,2,6,7,8,11,12,14,15,16-decahydrocyclopenta[a]phenanthren-17-yl]-2-oxoethyl] acetate
Formula: C23H31FO6
Exact mass: 422.21047
SMILES: O=C(OCC(=O)[C@]3(O)[C@]2(C[C@H](O)[C@]4(F)[C@@]1(/C(=C\C(=O)CC1)CC[C@H]4[C@@H]2CC3)C)C)C
InChI: InChI=1S/C23H31FO6/c1-13(25)30-12-19(28)22(29)9-7-16-17-5-4-14-10-15(26)6-8-20(14,2)23(17,24)18(27)11-21(16,22)3/h10,16-18,27,29H,4-9,11-12H2,1-3H3/t16-,17-,18-,20-,21-,22-,23-/m0/s1
Instrument: Q Exactive Orbitrap Thermo Scientific
Instrument type: LC-ESI-QFT
Ms type: MS2
Ion mode: NEGATIVE
Ionization: ESI
Fragmentation mode: HCD
Collision energy: 45 (nominal)
Resolution: 35000
Column name: XBridge C18 3.5um, 2.1x50mm, Waters
Retention time: 9.3 min
Base peak: 467.2091
Precursor m/z: 421.2032
Precursor type: [M-H]-
m/z	relative intensity	assigned
59.0138	999	C2H3O2-
73.0294	14	C3H5O2-
85.0294	2	C4H5O2-
101.0243	4	C4H5O3-
123.0816	27	C8H11O-
