Mass spectrum: Dopamine; LC-ESI-QFT; MS2; CE: 75; R=35000; [M+H]+
Name: Dopamine
Name: 4-(2-aminoethyl)benzene-1,2-diol
Formula: C8H11NO2
Exact mass: 153.07898
SMILES: C1=CC(=C(C=C1CCN)O)O
InChI: InChI=1S/C8H11NO2/c9-4-3-6-1-2-7(10)8(11)5-6/h1-2,5,10-11H,3-4,9H2
Instrument: Q Exactive Orbitrap Thermo Scientific
Instrument type: LC-ESI-QFT
Ms type: MS2
Ion mode: POSITIVE
Ionization: ESI
Fragmentation mode: HCD
Collision energy: 75 (nominal)
Resolution: 35000
Column name: XBridge C18 3.5um, 2.1x50mm, Waters
Retention time: 0.9 min
Base peak: 137.0597
Precursor m/z: 154.0863
Precursor type: [M+H]+
m/z	relative intensity	assigned
65.0386	67	C5H5+
79.0542	12	C6H7+
81.0699	21	C6H9+
89.0384	1	C7H5+
91.0542	999	C7H7+
94.0413	4	C6H6O+
107.0492	2	C7H7O+
109.0648	21	C7H9O+
119.0491	256	C8H7O+
137.0597	152	C8H9O2+
