Mass spectrum: Normianserin; LC-ESI-QFT; MS2; CE: 15; R=35000; [M+H]+
Name: Normianserin
Name: N-desmethylmianserin
Name: 1,2,3,4,10,14b-Hexahydrodibenzo[c,f]pyrazino[1,2-a]azepine
Formula: C17H18N2
Exact mass: 250.14700
SMILES: C3c1ccccc1C2CNCCN2c4ccccc34
InChI: InChI=1S/C17H18N2/c1-3-7-15-13(5-1)11-14-6-2-4-8-16(14)19-10-9-18-12-17(15)19/h1-8,17-18H,9-12H2
Instrument: Q Exactive Plus Orbitrap Thermo Scientific
Instrument type: LC-ESI-QFT
Ms type: MS2
Ion mode: POSITIVE
Ionization: ESI
Fragmentation mode: HCD
Collision energy: 15 (nominal)
Resolution: 35000
Column name: XBridge C18 3.5um, 2.1x50mm, Waters
Retention time: 6.7 min
Base peak: 251.1539
Precursor m/z: 251.1543
Precursor type: [M+H]+
m/z	relative intensity	assigned
118.0649	4	C8H8N+
120.0807	1	C8H10N+
132.0806	3	C9H10N+
134.0963	2	C9H12N+
144.0806	1	C10H10N+
147.0915	1	C9H11N2+
208.1121	19	C15H14N+
234.1278	3	C17H16N+
249.1383	2	C17H17N2+
251.154	999	C17H19N2+
