Mass spectrum: Metoxuron; LC-ESI-QFT; MS2; CE: 180; R=35000; [M-H]-
Name: Metoxuron
Name: 3-(3-chloro-4-methoxyphenyl)-1,1-dimethylurea
Formula: C10H13ClN2O2
Exact mass: 228.06656
SMILES: Clc1cc(ccc1OC)NC(=O)N(C)C
InChI: InChI=1S/C10H13ClN2O2/c1-13(2)10(14)12-7-4-5-9(15-3)8(11)6-7/h4-6H,1-3H3,(H,12,14)
Instrument: Q Exactive Plus Orbitrap Thermo Scientific
Instrument type: LC-ESI-QFT
Ms type: MS2
Ion mode: NEGATIVE
Ionization: ESI
Fragmentation mode: HCD
Collision energy: 180 (nominal)
Resolution: 35000
Column name: XBridge C18 3.5um, 2.1x50mm, Waters
Retention time: 6.0 min
Base peak: 182.9883
Precursor m/z: 227.0593
Precursor type: [M-H]-
m/z	relative intensity	assigned
50.0036	291	C3N-
61.0083	207	C5H-
63.0241	54	C5H3-
65.0032	257	C4HO-
65.9985	260	C3NO-
76.0192	79	C5H2N-
77.0033	398	C5HO-
89.0032	999	C6HO-
116.014	62	C7H2NO-
151.9909	312	C10O2-
