Mass spectrum: Oxacillin; LC-ESI-QFT; MS2; CE: 180; R=35000; [M-H]-
Name: Oxacillin
Name: (2S,5R,6R)-3,3-dimethyl-6-[(5-methyl-3-phenyl-1,2-oxazole-4-carbonyl)amino]-7-oxo-4-thia-1-azabicyclo[3.2.0]heptane-2-carboxylic acid
Formula: C19H19N3O5S
Exact mass: 401.10454
SMILES: CC1=C(C(=O)N[C@H]2[C@H]3SC(C)(C)[C@@H](N3C2=O)C(O)=O)C(=NO1)C1=CC=CC=C1
InChI: InChI=1S/C19H19N3O5S/c1-9-11(12(21-27-9)10-7-5-4-6-8-10)15(23)20-13-16(24)22-14(18(25)26)19(2,3)28-17(13)22/h4-8,13-14,17H,1-3H3,(H,20,23)(H,25,26)/t13-,14+,17-/m1/s1
Instrument: Q Exactive Plus Orbitrap Thermo Scientific
Instrument type: LC-ESI-QFT
Ms type: MS2
Ion mode: NEGATIVE
Ionization: ESI
Fragmentation mode: HCD
Collision energy: 180 (nominal)
Resolution: 35000
Column name: XBridge C18 3.5um, 2.1x50mm, Waters
Retention time: 8.4 min
Base peak: 400.097
Precursor m/z: 400.0973
Precursor type: [M-H]-
m/z	relative intensity	assigned
50.0036	47	C3N-
55.0189	17	C3H3O-
56.9804	150	C2HS-
57.9757	153	CNS-
58.9961	38	C2H3S-
60.9755	41	CHOS-
64.0067	44	C3N2-
64.0193	8	C4H2N-
65.0146	94	C3HN2-
65.9986	999	C3NO-
70.9836	173	C2HNS-
72.9993	35	C2H3NS-
83.0137	10	C4H3O2-
