Mass spectrum: Phenytoin; LC-ESI-QFT; MS2; CE: 45; R=35000; [M-H]-
Name: Phenytoin
Name: 5,5-diphenylimidazolidine-2,4-dione
Formula: C15H12N2O2
Exact mass: 252.08988
SMILES: C1=CC=C(C=C1)C2(C(=O)NC(=O)N2)C3=CC=CC=C3
InChI: InChI=1S/C15H12N2O2/c18-13-15(17-14(19)16-13,11-7-3-1-4-8-11)12-9-5-2-6-10-12/h1-10H,(H2,16,17,18,19)
Instrument: Q Exactive Orbitrap Thermo Scientific
Instrument type: LC-ESI-QFT
Ms type: MS2
Ion mode: NEGATIVE
Ionization: ESI
Fragmentation mode: HCD
Collision energy: 45 (nominal)
Resolution: 35000
Column name: XBridge C18 3.5um, 2.1x50mm, Waters
Retention time: 7.6 min
Base peak: 251.0827
Precursor m/z: 251.0826
Precursor type: [M-H]-
m/z	relative intensity	assigned
102.0349	999	C7H4N-
105.0347	5	C7H5O-
121.0295	4	C7H5O2-
131.0376	1	C8H5NO-
146.0248	23	C8H4NO2-
150.0322	2	C8H6O3-
180.0819	22	C13H10N-
207.0691	5	C14H9NO-
208.0768	210	C14H10NO-
251.0826	113	C15H11N2O2-
