Mass spectrum: Bupivacaine; LC-ESI-QFT; MS2; CE: 45; R=35000; [M+H]+
Name: Bupivacaine
Name: 1-butyl-N-(2,6-dimethylphenyl)piperidine-2-carboxamide
Formula: C18H28N2O
Exact mass: 288.22016
SMILES: CCCCN1CCCCC1/C(=N/C2=C(C=CC=C2C)C)/O
InChI: InChI=1S/C18H28N2O/c1-4-5-12-20-13-7-6-11-16(20)18(21)19-17-14(2)9-8-10-15(17)3/h8-10,16H,4-7,11-13H2,1-3H3,(H,19,21)
Instrument: Q Exactive Orbitrap Thermo Scientific
Instrument type: LC-ESI-QFT
Ms type: MS2
Ion mode: POSITIVE
Ionization: ESI
Fragmentation mode: HCD
Collision energy: 45 (nominal)
Resolution: 35000
Column name: XBridge C18 3.5um, 2.1x50mm, Waters
Retention time: 6.2 min
Base peak: 289.2276
Precursor m/z: 289.2274
Precursor type: [M+H]+
m/z	relative intensity	assigned
84.0808	18	C5H10N+
98.0965	28	C6H12N+
112.1121	2	C7H14N+
140.1435	999	C9H18N+
150.0913	5	C9H12NO+
289.2274	3	C18H29N2O+
