Mass spectrum: Maprotiline; LC-ESI-QFT; MS2; CE: 30; R=35000; [M+H]+
Name: Maprotiline
Formula: C20H23N
Exact mass: 277.18305
SMILES: CNCCCC12CCC(C3=CC=CC=C31)C4=CC=CC=C24
InChI: InChI=1S/C20H23N/c1-21-14-6-12-20-13-11-15(16-7-2-4-9-18(16)20)17-8-3-5-10-19(17)20/h2-5,7-10,15,21H,6,11-14H2,1H3
Instrument: Q Exactive Orbitrap Thermo Scientific
Instrument type: LC-ESI-QFT
Ms type: MS2
Ion mode: POSITIVE
Ionization: ESI
Fragmentation mode: HCD
Collision energy: 30 (nominal)
Resolution: 35000
Column name: XBridge C18 3.5um, 2.1x50mm, Waters
Retention time: 8.5 min
Base peak: 278.1906
Precursor m/z: 278.1903
Precursor type: [M+H]+
m/z	relative intensity	assigned
91.0542	27	C7H7+
105.0697	3	C8H9+
117.0698	112	C9H9+
119.0855	8	C9H11+
129.0698	7	C10H9+
131.0855	26	C10H11+
141.0697	7	C11H9+
143.0856	18	C11H11+
155.0854	4	C12H11+
169.1012	84	C13H13+
178.0775	4	C14H10+
179.0853	2	C14H11+
191.085	14	C15H11+
193.1011	3	C15H13+
205.1012	5	C16H13+
219.1169	73	C17H15+
247.1483	40	C19H19+
250.1591	593	C18H20N+
278.1903	999	C20H24N+
