Mass spectrum: Meperidine; LC-ESI-QFT; MS2; CE: 30; R=35000; [M+H]+
Name: Meperidine
Name: ethyl 1-methyl-4-phenylpiperidine-4-carboxylate
Formula: C15H21NO2
Exact mass: 247.15723
SMILES: CCOC(=O)C1(CCN(CC1)C)C2=CC=CC=C2
InChI: InChI=1S/C15H21NO2/c1-3-18-14(17)15(9-11-16(2)12-10-15)13-7-5-4-6-8-13/h4-8H,3,9-12H2,1-2H3
Instrument: Q Exactive Orbitrap Thermo Scientific
Instrument type: LC-ESI-QFT
Ms type: MS2
Ion mode: POSITIVE
Ionization: ESI
Fragmentation mode: HCD
Collision energy: 30 (nominal)
Resolution: 35000
Column name: XBridge C18 3.5um, 2.1x50mm, Waters
Retention time: 5.4 min
Base peak: 248.1647
Precursor m/z: 248.1645
Precursor type: [M+H]+
m/z	relative intensity	assigned
70.0651	9	C4H8N+
91.0542	1	C7H7+
131.0856	1	C10H11+
145.1014	1	C11H13+
174.1278	160	C12H16N+
202.1226	24	C13H16NO+
220.1334	115	C13H18NO2+
248.1646	999	C15H22NO2+
