Mass spectrum: Cathine; LC-ESI-QFT; MS2; CE: 75; R=35000; [M+H]+
Name: Cathine
Name: (1S,2S)-2-amino-1-phenylpropan-1-ol
Formula: C9H13NO
Exact mass: 151.09971
SMILES: C[C@@H]([C@H](C1=CC=CC=C1)O)N
InChI: InChI=1S/C9H13NO/c1-7(10)9(11)8-5-3-2-4-6-8/h2-7,9,11H,10H2,1H3/t7-,9+/m0/s1
Instrument: Q Exactive Orbitrap Thermo Scientific
Instrument type: LC-ESI-QFT
Ms type: MS2
Ion mode: POSITIVE
Ionization: ESI
Fragmentation mode: HCD
Collision energy: 75 (nominal)
Resolution: 35000
Column name: XBridge C18 3.5um, 2.1x50mm, Waters
Retention time: 2.7 min
Base peak: 134.0964
Precursor m/z: 152.107
Precursor type: [M+H]+
m/z	relative intensity	assigned
56.0495	21	C3H6N+
65.0385	7	C5H5+
77.0384	2	C6H5+
79.0542	6	C6H7+
89.0383	1	C7H5+
91.0542	461	C7H7+
92.0619	1	C7H8+
93.0573	1	C6H7N+
93.0698	11	C7H9+
94.0651	1	C6H8N+
95.0491	5	C6H7O+
104.0495	8	C7H6N+
105.0447	1	C6H5N2+
105.0699	4	C8H9+
106.0651	11	C7H8N+
115.0542	999	C9H7+
116.062	33	C9H8+
117.0698	930	C9H9+
118.065	39	C8H8N+
119.0729	118	C8H9N+
133.0648	1	C9H9O+
134.0964	211	C9H12N+
143.0606	1	C9H7N2+
