Mass spectrum: Atrazine-desethyl-desisopropyl; LC-ESI-QFT; MS2; CE: 30%; R=15000; [M+H]+
Name: Atrazine-desethyl-desisopropyl
Name: 6-chloro-1,3,5-triazine-2,4-diamine
Formula: C3H4ClN5
Exact mass: 145.0155
SMILES: C1(=NC(=NC(=N1)Cl)N)N
InChI: InChI=1S/C3H4ClN5/c4-1-7-2(5)9-3(6)8-1/h(H4,5,6,7,8,9)
Instrument: Orbitrap Exploris 240 Thermo Scientific
Instrument type: LC-ESI-QFT
Ms type: MS2
Ion mode: POSITIVE
Ionization: ESI
Fragmentation mode: HCD
Collision energy: 30 % (nominal)
Resolution: 15000
Column name: Atlantis C18 3um, 3.0x150mm, Waters
Retention time: 8.888 min
Base peak: 146.0228
Precursor m/z: 146.0228
Precursor type: [M+H]+
Precursor intensity: 131970680
m/z	relative intensity	assigned
43.0278	1	
61.9799	1	
68.0243	3	C2H2N3+
79.0057	12	CH4ClN2+
104.001	10	C2H3ClN3+
110.046	12	C3H4N5+
128.0568	2	
146.0228	999	C3H5ClN5+
