Mass spectrum: Norfenfluramine; LC-ESI-QFT; MS2; CE: 75; R=35000; [M+H]+
Name: Norfenfluramine
Name: 1-[3-(trifluoromethyl)phenyl]propan-2-amine
Formula: C10H12F3N
Exact mass: 203.09218
SMILES: CC(CC1=CC(=CC=C1)C(F)(F)F)N
InChI: InChI=1S/C10H12F3N/c1-7(14)5-8-3-2-4-9(6-8)10(11,12)13/h2-4,6-7H,5,14H2,1H3
Instrument: Q Exactive Plus Orbitrap Thermo Scientific
Instrument type: LC-ESI-QFT
Ms type: MS2
Ion mode: POSITIVE
Ionization: ESI
Fragmentation mode: HCD
Collision energy: 75 (nominal)
Resolution: 35000
Column name: XBridge C18 3.5um, 2.1x50mm, Waters
Retention time: 5.8 min
Base peak: 204.0993
Precursor m/z: 204.0995
Precursor type: [M+H]+
m/z	relative intensity	assigned
90.046	1	C7H6+
109.0448	134	C7H6F+
119.029	1	C8H4F+
139.0353	20	C8H5F2+
147.0353	7	C8H4FN2+
147.0604	1	C10H8F+
159.0415	999	C8H6F3+
