Mass spectrum: Chlorcyclizine; LC-ESI-QFT; MS2; CE: 15; R=35000; [M+H]+
Name: Chlorcyclizine
Name: 1-[(4-chlorophenyl)-phenylmethyl]-4-methylpiperazine
Formula: C18H21ClN2
Exact mass: 300.13933
SMILES: CN1CCN(CC1)C(C2=CC=CC=C2)C3=CC=C(C=C3)Cl
InChI: InChI=1S/C18H21ClN2/c1-20-11-13-21(14-12-20)18(15-5-3-2-4-6-15)16-7-9-17(19)10-8-16/h2-10,18H,11-14H2,1H3
Instrument: Q Exactive Plus Orbitrap Thermo Scientific
Instrument type: LC-ESI-QFT
Ms type: MS2
Ion mode: POSITIVE
Ionization: ESI
Fragmentation mode: HCD
Collision energy: 15 (nominal)
Resolution: 35000
Column name: XBridge C18 3.5um, 2.1x50mm, Waters
Retention time: 8.2 min
Base peak: 301.1464
Precursor m/z: 301.1466
Precursor type: [M+H]+
m/z	relative intensity	assigned
99.0916	9	C5H11N2+
165.0696	4	C13H9+
201.0464	999	C13H10Cl+
