Mass spectrum: N-Nitrosodibutylamine (NDBA); LC-ESI-QFT; MS2; CE: 90; R=70000; [M+H]+
Name: N-Nitrosodibutylamine (NDBA)
Name: N,N-dibutylnitrous amide
Formula: C8H18N2O
Exact mass: 158.14191
SMILES: O=NN(CCCC)CCCC
InChI: InChI=1S/C8H18N2O/c1-3-5-7-10(9-11)8-6-4-2/h3-8H2,1-2H3
Instrument: Q Exactive Plus Orbitrap Thermo Scientific
Instrument type: LC-ESI-QFT
Ms type: MS2
Ion mode: POSITIVE
Ionization: ESI
Fragmentation mode: HCD
Collision energy: 90 (nominal)
Resolution: 70000
Column name: XBridge C18 3.5um, 2.1x50mm, Waters
Retention time: 9.5 min
Base peak: 159.1492
Precursor m/z: 159.1492
Precursor type: [M+H]+
m/z	relative intensity	assigned
52.0182	3	C3H2N+
53.0022	213	C3HO+
53.9974	30	C2NO+
54.01	13	C3H2O+
55.0542	34	C4H7+
57.0699	999	C4H9+
67.9893	30	C3O2+
68.9971	4	C3HO2+
70.0651	2	C4H8N+
72.0808	2	C4H10N+
78.0087	3	C3N3+
103.0866	4	C4H11N2O+
