Mass spectrum: N-Nitrosodimethylamine (NDMA); LC-ESI-QFT; MS2; CE: 60; R=70000; [M+H]+
Name: N-Nitrosodimethylamine (NDMA)
Name: N,N-dimethylnitrous amide
Formula: C2H6N2O
Exact mass: 74.04801
SMILES: CN(C)N=O
InChI: InChI=1S/C2H6N2O/c1-4(2)3-5/h1-2H3
Instrument: Q Exactive Plus Orbitrap Thermo Scientific
Instrument type: LC-ESI-QFT
Ms type: MS2
Ion mode: POSITIVE
Ionization: ESI
Fragmentation mode: HCD
Collision energy: 60 (nominal)
Resolution: 70000
Column name: XBridge C18 3.5um, 2.1x50mm, Waters
Retention time: 1.3 min
Base peak: 75.0553
Precursor m/z: 75.0553
Precursor type: [M+H]+
m/z	relative intensity	assigned
57.0447	1	C2H5N2+
58.0525	11	C2H6N2+
75.0552	999	C2H7N2O+
