Mass spectrum: 4-chloro-N,N-dimethylaniline; LC-ESI-QFT; MS2; CE: 45; R=35000; [M+H]+
Name: 4-chloro-N,N-dimethylaniline
Name: 4-Chloro-N,N-dimethylaniline
Formula: C8H10ClN
Exact mass: 155.05018
SMILES: CN(C)c1ccc(cc1)Cl
InChI: InChI=1S/C8H10ClN/c1-10(2)8-5-3-7(9)4-6-8/h3-6H,1-2H3
Instrument: Q Exactive Plus Orbitrap Thermo Scientific
Instrument type: LC-ESI-QFT
Ms type: MS2
Ion mode: POSITIVE
Ionization: ESI
Fragmentation mode: HCD
Collision energy: 45 (nominal)
Resolution: 35000
Column name: XBridge C18 3.5um, 2.1x50mm, Waters
Retention time: 7.1 min
Base peak: 156.0573
Precursor m/z: 156.0575
Precursor type: [M+H]+
m/z	relative intensity	assigned
120.0807	1	C8H10N+
121.0885	39	C8H11N+
140.026	14	C7H7ClN+
141.0338	999	C7H8ClN+
156.0573	702	C8H11ClN+
