Mass spectrum: Clenbuterol; LC-ESI-QFT; MS2; CE: 30; R=35000; [M+H]+
Name: Clenbuterol
Name: 1-(4-amino-3,5-dichlorophenyl)-2-(tert-butylamino)ethanol
Formula: C12H18Cl2N2O
Exact mass: 276.07962
SMILES: CC(C)(C)NCC(C1=CC(=C(C(=C1)Cl)N)Cl)O
InChI: InChI=1S/C12H18Cl2N2O/c1-12(2,3)16-6-10(17)7-4-8(13)11(15)9(14)5-7/h4-5,10,16-17H,6,15H2,1-3H3
Instrument: Q Exactive Plus Orbitrap Thermo Scientific
Instrument type: LC-ESI-QFT
Ms type: MS2
Ion mode: POSITIVE
Ionization: ESI
Fragmentation mode: HCD
Collision energy: 30 (nominal)
Resolution: 35000
Column name: XBridge C18 3.5um, 2.1x50mm, Waters
Retention time: 4.6 min
Base peak: 277.0862
Precursor m/z: 277.0869
Precursor type: [M+H]+
m/z	relative intensity	assigned
57.0698	29	C4H9+
131.0603	8	C8H7N2+
132.0681	25	C8H8N2+
167.037	19	C8H8ClN2+
168.0448	13	C11H6NO+
173.9867	1	C10H3ClO+
203.0135	999	C8H9Cl2N2+
221.0243	2	C8H11Cl2N2O+
259.0762	127	C12H17Cl2N2+
277.0868	9	C12H19Cl2N2O+
