Mass spectrum: Haloxyfop; LC-ESI-QFT; MS2; CE: 90; R=35000; [M-H]-
Name: Haloxyfop
Name: 2-[4-[3-chloro-5-(trifluoromethyl)pyridin-2-yl]oxyphenoxy]propanoic acid
Formula: C15H11ClF3NO4
Exact mass: 361.03287
SMILES: CC(C(=O)O)OC1=CC=C(C=C1)OC2=C(C=C(C=N2)C(F)(F)F)Cl
InChI: InChI=1S/C15H11ClF3NO4/c1-8(14(21)22)23-10-2-4-11(5-3-10)24-13-12(16)6-9(7-20-13)15(17,18)19/h2-8H,1H3,(H,21,22)
Instrument: Q Exactive Plus Orbitrap Thermo Scientific
Instrument type: LC-ESI-QFT
Ms type: MS2
Ion mode: NEGATIVE
Ionization: ESI
Fragmentation mode: HCD
Collision energy: 90 (nominal)
Resolution: 35000
Column name: XBridge C18 3.5um, 2.1x50mm, Waters
Retention time: 13.6 min
Base peak: 277.1447
Precursor m/z: 360.0256
Precursor type: [M-H]-
m/z	relative intensity	assigned
71.014	228	C3H3O2-
74.0037	14	C5N-
97.0297	25	C5H5O2-
108.0219	895	C6H4O2-
123.005	11	C7HF2-
127.0192	68	C9H3O-
136.0192	46	C10H2N-
156.0257	110	C10H3FN-
162.0172	16	C6H3F3NO-
170.0226	405	C4H9ClNO4-
175.9724	76	C6HClF2NO-
184.0205	96	C11H3FNO-
195.9785	999	C6H2ClF3NO-
204.0268	52	C11H4F2NO-
232.0218	16	C12H4F2NO2-
