Mass spectrum: 2,3,4,6-Tetrachlorophenol; LC-ESI-QFT; MS2; CE: 45; R=35000; [M-H]-
Name: 2,3,4,6-Tetrachlorophenol
Name: 1-Hydroxy-2,3,4, 6-tetrachlorobenzene
Formula: C6H2Cl4O
Exact mass: 229.88598
SMILES: C1=C(C(=C(C(=C1Cl)Cl)Cl)O)Cl
InChI: InChI=1S/C6H2Cl4O/c7-2-1-3(8)6(11)5(10)4(2)9/h1,11H
Instrument: Q Exactive Plus Orbitrap Thermo Scientific
Instrument type: LC-ESI-QFT
Ms type: MS2
Ion mode: NEGATIVE
Ionization: ESI
Fragmentation mode: HCD
Collision energy: 45 (nominal)
Resolution: 35000
Column name: XBridge C18 3.5um, 2.1x50mm, Waters
Retention time: 13.4 min
Base peak: 230.8755
Precursor m/z: 228.8787
Precursor type: [M-H]-
m/z	relative intensity	assigned
192.9021	15	C6Cl3O-
228.8788	999	C6HCl4O-
