Mass spectrum: Aspirin; LC-ESI-QFT; MS2; CE: 90; R=35000; [M-H]-
Name: Aspirin
Name: Acetyl salicilic acid
Name: 2-acetyloxybenzoic acid
Formula: C9H8O4
Exact mass: 180.04226
SMILES: CC(=O)OC1=CC=CC=C1C(=O)O
InChI: InChI=1S/C9H8O4/c1-6(10)13-8-5-3-2-4-7(8)9(11)12/h2-5H,1H3,(H,11,12)
Instrument: Q Exactive Plus Orbitrap Thermo Scientific
Instrument type: LC-ESI-QFT
Ms type: MS2
Ion mode: NEGATIVE
Ionization: ESI
Fragmentation mode: HCD
Collision energy: 90 (nominal)
Resolution: 35000
Column name: XBridge C18 3.5um, 2.1x50mm, Waters
Retention time: 5.5 min
Base peak: 137.0242
Precursor m/z: 179.035
Precursor type: [M-H]-
m/z	relative intensity	assigned
59.0138	249	C2H3O2-
65.0397	54	C5H5-
75.0241	3	C6H3-
93.0345	999	C6H5O-
94.0379	8	CH6N2O3-
137.0243	8	C7H5O3-
