Mass spectrum: 2-Phenylpiperidine-2-acetamide; LC-ESI-QFT; MS2; CE: 45; R=35000; [M+H]+
Name: 2-Phenylpiperidine-2-acetamide
Name: 2-phenyl-2-piperidin-2-ylacetamide
Name: 2-Phenyl-2-(2-piperidinyl)acetamide
Formula: C13H18N2O
Exact mass: 218.14191
SMILES: C1CCNC(C1)C(C2=CC=CC=C2)C(=O)N
InChI: InChI=1S/C13H18N2O/c14-13(16)12(10-6-2-1-3-7-10)11-8-4-5-9-15-11/h1-3,6-7,11-12,15H,4-5,8-9H2,(H2,14,16)
Instrument: Q Exactive Plus Orbitrap Thermo Scientific
Instrument type: LC-ESI-QFT
Ms type: MS2
Ion mode: POSITIVE
Ionization: ESI
Fragmentation mode: HCD
Collision energy: 45 (nominal)
Resolution: 35000
Column name: XBridge C18 3.5um, 2.1x50mm, Waters
Retention time: 4.0 min
Base peak: 219.149
Precursor m/z: 219.1492
Precursor type: [M+H]+
m/z	relative intensity	assigned
56.0495	8	C3H6N+
84.0807	999	C5H10N+
91.0541	1	C7H7+
119.0492	1	C8H7O+
136.0757	7	C8H10NO+
174.1278	1	C12H16N+
202.1226	1	C13H16NO+
219.1492	9	C13H19N2O+
