Mass spectrum: Tributylphosphine oxide; LC-ESI-QFT; MS2; CE: 15; R=35000; [M+H]+
Name: Tributylphosphine oxide
Name: Tri-n-butylphosphine oxide
Formula: C12H27OP
Exact mass: 218.17995
SMILES: CCCCP(=O)(CCCC)CCCC
InChI: InChI=1S/C12H27OP/c1-4-7-10-14(13,11-8-5-2)12-9-6-3/h4-12H2,1-3H3
Instrument: Q Exactive Plus Orbitrap Thermo Scientific
Instrument type: LC-ESI-QFT
Ms type: MS2
Ion mode: POSITIVE
Ionization: ESI
Fragmentation mode: HCD
Collision energy: 15 (nominal)
Resolution: 35000
Column name: XBridge C18 3.5um, 2.1x50mm, Waters
Retention time: 11.0 min
Base peak: 219.1869
Precursor m/z: 219.1872
Precursor type: [M+H]+
m/z	relative intensity	assigned
78.0228	2	C2H7OP+
92.0385	1	C3H9OP+
219.1873	999	C12H28OP+
