Mass spectrum: Salicylic acid; LC-ESI-QFT; MS2; CE: 150; R=35000; [M+H]+
Name: Salicylic acid
Name: 2-hydroxybenzoic acid
Formula: C7H6O3
Exact mass: 138.03169
SMILES: C1=CC=C(C(=C1)C(=O)O)O
InChI: InChI=1S/C7H6O3/c8-6-4-2-1-3-5(6)7(9)10/h1-4,8H,(H,9,10)
Instrument: Q Exactive Plus Orbitrap Thermo Scientific
Instrument type: LC-ESI-QFT
Ms type: MS2
Ion mode: POSITIVE
Ionization: ESI
Fragmentation mode: HCD
Collision energy: 150 (nominal)
Resolution: 35000
Column name: XBridge C18 3.5um, 2.1x50mm, Waters
Retention time: 6.4 min
Base peak: 391.2837
Precursor m/z: 139.039
Precursor type: [M+H]+
m/z	relative intensity	assigned
50.0151	8	C4H2+
51.023	25	C4H3+
53.0022	105	C3HO+
53.0386	14	C4H5+
53.9975	20	C2NO+
55.0179	7	C3H3O+
55.0542	10	C4H7+
63.023	8	C5H3+
64.0308	1	C5H4+
65.0386	999	C5H5+
66.0339	9	C4H4N+
67.0543	8	C5H7+
68.9971	2	C3HO2+
69.0336	2	C4H5O+
74.0152	2	C6H2+
75.0229	3	C6H3+
77.0386	9	C6H5+
79.0543	11	C6H7+
83.0492	6	C5H7O+
91.0543	10	C7H7+
92.0257	6	C6H4O+
93.0338	8	C6H5O+
93.0449	6	C5H5N2+
95.0491	24	C6H7O+
105.0449	9	C6H5N2+
111.0441	12	C6H7O2+
121.0285	12	C7H5O2+
121.0396	25	C6H5N2O+
