Mass spectrum: Diethyl-phthalate; LC-ESI-QFT; MS2; CE: 120; R=35000; [M-H]-
Name: Diethyl-phthalate
Name: Diethyl phthalate
Name: Diethyl benzene-1,2-dicarboxylate
Formula: C12H14O4
Exact mass: 222.08921
SMILES: CCOC(=O)C1=CC=CC=C1C(=O)OCC
InChI: InChI=1S/C12H14O4/c1-3-15-11(13)9-7-5-6-8-10(9)12(14)16-4-2/h5-8H,3-4H2,1-2H3
Instrument: Q Exactive Plus Orbitrap Thermo Scientific
Instrument type: LC-ESI-QFT
Ms type: MS2
Ion mode: NEGATIVE
Ionization: ESI
Fragmentation mode: HCD
Collision energy: 120 (nominal)
Resolution: 35000
Column name: XBridge C18 3.5um, 2.1x50mm, Waters
Retention time: 8.7 min
Base peak: 112.9857
Precursor m/z: 221.0819
Precursor type: [M-H]-
m/z	relative intensity	assigned
69.0346	383	C4H5O-
71.0503	163	C4H7O-
75.0241	999	C6H3-
