Mass spectrum: Bromadiolone; LC-ESI-QFT; MS2; CE: 150; R=35000; [M-H]-
Name: Bromadiolone
Name: 3-[3-[4-(4-bromophenyl)phenyl]-3-hydroxy-1-phenylpropyl]-4-hydroxychromen-2-one
Formula: C30H23BrO4
Exact mass: 526.07797
SMILES: C1=CC=C(C=C1)C(CC(C2=CC=C(C=C2)C3=CC=C(C=C3)Br)O)C4=C(C5=CC=CC=C5OC4=O)O
InChI: InChI=1S/C30H23BrO4/c31-23-16-14-20(15-17-23)19-10-12-22(13-11-19)26(32)18-25(21-6-2-1-3-7-21)28-29(33)24-8-4-5-9-27(24)35-30(28)34/h1-17,25-26,32-33H,18H2
Instrument: Q Exactive Plus Orbitrap Thermo Scientific
Instrument type: LC-ESI-QFT
Ms type: MS2
Ion mode: NEGATIVE
Ionization: ESI
Fragmentation mode: HCD
Collision energy: 150 (nominal)
Resolution: 35000
Column name: XBridge C18 3.5um, 2.1x50mm, Waters
Retention time: 15.3 min
Base peak: 525.0704
Precursor m/z: 525.0707
Precursor type: [M-H]-
m/z	relative intensity	assigned
65.0397	21	C5H5-
67.019	5	C4H3O-
75.0241	1	C6H3-
78.9189	999	Br-
93.0346	40	C6H5O-
101.0397	5	C8H5-
115.0554	7	C9H7-
117.0347	6	C8H5O-
143.0502	1	C10H7O-
