Mass spectrum: Ethoprop; LC-ESI-QFT; MS2; CE: 120; R=35000; [M+H]+
Name: Ethoprop
Name: 1-[ethoxy(propylsulfanyl)phosphoryl]sulfanylpropane
Formula: C8H19O2PS2
Exact mass: 242.05641
SMILES: CCCSP(=O)(OCC)SCCC
InChI: InChI=1S/C8H19O2PS2/c1-4-7-12-11(9,10-6-3)13-8-5-2/h4-8H2,1-3H3
Instrument: Q Exactive Plus Orbitrap Thermo Scientific
Instrument type: LC-ESI-QFT
Ms type: MS2
Ion mode: POSITIVE
Ionization: ESI
Fragmentation mode: HCD
Collision energy: 120 (nominal)
Resolution: 35000
Column name: XBridge C18 3.5um, 2.1x50mm, Waters
Retention time: 11.5 min
Base peak: 243.0634
Precursor m/z: 243.0637
Precursor type: [M+H]+
m/z	relative intensity	assigned
53.0022	16	C3HO+
53.9976	3	C2NO+
62.9452	1	PS+
64.9787	331	H2O2P+
67.9893	3	C3O2+
78.9402	144	OPS+
80.9736	1	H2O3P+
94.9174	148	PS2+
96.9509	346	H2O2PS+
110.9666	7	CH4O2PS+
112.928	42	H2OPS2+
114.9614	999	H4O3PS+
128.977	11	CH6O3PS+
130.9386	6	H4O2PS2+
