Mass spectrum: 2-(3-Hydroxycyclohexyl)-5-(2-methyl-2-octanyl)phenol; LC-ESI-QFT; MS2; CE: 30; R=35000; [M-H]-
Name: 2-(3-Hydroxycyclohexyl)-5-(2-methyl-2-octanyl)phenol
Name: CP47.497
Name: 2-(3-hydroxycyclohexyl)-5-(2-methyloctan-2-yl)phenol
Formula: C21H34O2
Exact mass: 318.25588
SMILES: CCCCCCC(C)(C)C1=CC(=C(C=C1)C2CCCC(C2)O)O
InChI: InChI=1S/C21H34O2/c1-4-5-6-7-13-21(2,3)17-11-12-19(20(23)15-17)16-9-8-10-18(22)14-16/h11-12,15-16,18,22-23H,4-10,13-14H2,1-3H3
Instrument: Q Exactive Plus Orbitrap Thermo Scientific
Instrument type: LC-ESI-QFT
Ms type: MS2
Ion mode: NEGATIVE
Ionization: ESI
Fragmentation mode: HCD
Collision energy: 30 (nominal)
Resolution: 35000
Column name: XBridge C18 3.5um, 2.1x50mm, Waters
Retention time: 17.0 min
Base peak: 363.2538
Precursor m/z: 317.2486
Precursor type: [M-H]-
m/z	relative intensity	assigned
245.1912	1	C17H25O-
299.238	48	C21H31O-
315.2326	5	C21H31O2-
317.2483	999	C21H33O2-
