Mass spectrum: 2-(Methylsulfanyl)-1,3-benzothiazole; LC-ESI-QFT; MS2; CE: 15; R=35000; [M+H]+
Name: 2-(Methylsulfanyl)-1,3-benzothiazole
Name: 2-(Methylthio)benzothiazole (2-Me-S-Benzothiazole)
Name: 2-Methylmercaptobenzothiazole
Formula: C8H7NS2
Exact mass: 181.00199
SMILES: CSC1=NC2=CC=CC=C2S1
InChI: InChI=1S/C8H7NS2/c1-10-8-9-6-4-2-3-5-7(6)11-8/h2-5H,1H3
Instrument: Q Exactive Plus Orbitrap Thermo Scientific
Instrument type: LC-ESI-QFT
Ms type: MS2
Ion mode: POSITIVE
Ionization: ESI
Fragmentation mode: HCD
Collision energy: 15 (nominal)
Resolution: 35000
Column name: XBridge C18 3.5um, 2.1x50mm, Waters
Retention time: 10.0 min
Base peak: 182.0086
Precursor m/z: 182.0093
Precursor type: [M+H]+
m/z	relative intensity	assigned
166.9854	14	C7H5NS2+
182.0089	999	C8H8NS2+
