Mass spectrum: Triphenyl phosphate (TPP); LC-ESI-QFT; MS2; CE: 60; R=35000; [M+H]+
Name: Triphenyl phosphate (TPP)
Name: Triphenyl phosphate
Name: Triphenoxyphosphine oxide
Formula: C18H15O4P
Exact mass: 326.07080
SMILES: C1=CC=C(C=C1)OP(=O)(OC2=CC=CC=C2)OC3=CC=CC=C3
InChI: InChI=1S/C18H15O4P/c19-23(20-16-10-4-1-5-11-16,21-17-12-6-2-7-13-17)22-18-14-8-3-9-15-18/h1-15H
Instrument: Q Exactive Plus Orbitrap Thermo Scientific
Instrument type: LC-ESI-QFT
Ms type: MS2
Ion mode: POSITIVE
Ionization: ESI
Fragmentation mode: HCD
Collision energy: 60 (nominal)
Resolution: 35000
Column name: XBridge C18 3.5um, 2.1x50mm, Waters
Retention time: 13.1 min
Base peak: 327.0775
Precursor m/z: 327.0781
Precursor type: [M+H]+
m/z	relative intensity	assigned
50.0151	25	C4H2+
51.0229	16	C4H3+
53.0386	136	C4H5+
55.0179	8	C3H3O+
65.0022	1	C4HO+
65.0386	19	C5H5+
68.9971	1	C3HO2+
77.0385	380	C6H5+
81.0335	16	C5H5O+
92.0256	1	C6H4O+
93.0336	20	C6H5O+
94.0413	12	C6H6O+
95.0492	474	C6H7O+
98.9842	11	H4O4P+
103.0543	1	C8H7+
105.0448	299	C6H5N2+
106.0418	2	C7H6O+
109.0649	2	C7H9O+
111.0441	5	C6H7O2+
115.0542	2	C9H7+
121.0285	8	C7H5O2+
127.0544	1	C10H7+
128.0622	5	C10H8+
129.0102	2	C5H6O2P+
138.9944	19	C6H4O2P+
140.0024	5	C6H5O2P+
141.07	13	C11H9+
142.0778	2	C11H10+
143.0857	2	C11H11+
145.0648	3	C10H9O+
151.0543	41	C12H7+
152.0621	999	C12H8+
153.0699	431	C12H9+
154.0777	2	C12H10+
155.0497	1	C11H7O+
155.0605	7	C10H7N2+
157.005	16	C6H6O3P+
159.0357	2	C10H8P+
168.0571	340	C12H8O+
169.0649	77	C12H9O+
170.0727	12	C12H10O+
171.0805	17	C12H11O+
175.0156	57	C6H8O4P+
179.0605	41	C12H7N2+
181.0757	3	C12H9N2+
187.0308	56	C11H8OP+
202.0778	28	C16H10+
203.0855	4	C16H11+
205.0418	3	C11H10O2P+
214.0782	1	C17H10+
215.0258	256	C12H8O2P+
216.0335	5	C12H9O2P+
226.0778	11	C18H10+
227.0857	53	C18H11+
228.0935	197	C18H12+
229.1013	13	C18H13+
233.0364	421	C12H10O3P+
244.0886	11	C18H12O+
247.0521	9	C13H12O3P+
250.0391	1	C12H11O4P+
251.047	286	C12H12O4P+
273.0463	2	C18H10OP+
291.0569	6	C18H12O2P+
309.0679	2	C18H14O3P+
327.0784	11	C18H16O4P+
