Mass spectrum: Meclofenamic Acid; LC-ESI-QFT; MS2; CE: 75; R=35000; [M-H]-
Name: Meclofenamic Acid
Name: 2-(2,6-dichloro-3-methylanilino)benzoic acid
Formula: C14H11Cl2NO2
Exact mass: 295.01668
SMILES: CC1=C(C(=C(C=C1)Cl)NC2=CC=CC=C2C(=O)O)Cl
InChI: InChI=1S/C14H11Cl2NO2/c1-8-6-7-10(15)13(12(8)16)17-11-5-3-2-4-9(11)14(18)19/h2-7,17H,1H3,(H,18,19)
Instrument: Q Exactive Plus Orbitrap Thermo Scientific
Instrument type: LC-ESI-QFT
Ms type: MS2
Ion mode: NEGATIVE
Ionization: ESI
Fragmentation mode: HCD
Collision energy: 75 (nominal)
Resolution: 35000
Column name: XBridge C18 3.5um, 2.1x50mm, Waters
Retention time: 13.9 min
Base peak: 294.0091
Precursor m/z: 294.0094
Precursor type: [M-H]-
m/z	relative intensity	assigned
173.988	15	C10H3ClO-
174.9723	25	C7H5Cl2O-
177.0582	13	C13H7N-
178.0662	999	C13H8N-
214.043	227	C13H9ClN-
222.0563	15	C14H8NO2-
