Mass spectrum: 4-Toluenesulfonamide; LC-ESI-QFT; MS2; CE: 15; R=35000; [M-H]-
Name: 4-Toluenesulfonamide
Name: p-Toluenesulfonamide
Name: 4-methylbenzenesulfonimidic acid
Formula: C7H9NO2S
Exact mass: 171.03540
SMILES: CC1=CC=C(C=C1)S(=O)(=O)N
InChI: InChI=1S/C7H9NO2S/c1-6-2-4-7(5-3-6)11(8,9)10/h2-5H,1H3,(H2,8,9,10)
Instrument: Q Exactive Plus Orbitrap Thermo Scientific
Instrument type: LC-ESI-QFT
Ms type: MS2
Ion mode: NEGATIVE
Ionization: ESI
Fragmentation mode: HCD
Collision energy: 15 (nominal)
Resolution: 35000
Column name: XBridge C18 3.5um, 2.1x50mm, Waters
Retention time: 4.6 min
Base peak: 235.9258
Precursor m/z: 170.0281
Precursor type: [M-H]-
m/z	relative intensity	assigned
63.9624	3	O2S-
79.9811	9	H2NO2S-
106.0662	125	C7H8N-
107.0501	2	C7H7O-
170.0282	999	C7H8NO2S-
171.0122	14	C7H7O3S-
