Mass spectrum: Salicylic acid; LC-ESI-QFT; MS2; CE: 15; R=35000; [M-H]-
Name: Salicylic acid
Name: 2-hydroxybenzoic acid
Formula: C7H6O3
Exact mass: 138.03169
SMILES: C1=CC=C(C(=C1)C(=O)O)O
InChI: InChI=1S/C7H6O3/c8-6-4-2-1-3-5(6)7(9)10/h1-4,8H,(H,9,10)
Instrument: Q Exactive Plus Orbitrap Thermo Scientific
Instrument type: LC-ESI-QFT
Ms type: MS2
Ion mode: NEGATIVE
Ionization: ESI
Fragmentation mode: HCD
Collision energy: 15 (nominal)
Resolution: 35000
Column name: XBridge C18 3.5um, 2.1x50mm, Waters
Retention time: 6.3 min
Base peak: 137.0243
Precursor m/z: 137.0244
Precursor type: [M-H]-
m/z	relative intensity	assigned
93.0346	999	C6H5O-
137.0245	469	C7H5O3-
