Mass spectrum: Mebendazole; LC-ESI-QFT; MS2; CE: 45; R=35000; [M+H]+
Name: Mebendazole
Name: methyl N-(6-benzoyl-1H-benzimidazol-2-yl)carbamate
Formula: C16H13N3O3
Exact mass: 295.09569
SMILES: COC(=O)NC1=NC2=C(N1)C=C(C=C2)C(=O)C3=CC=CC=C3
InChI: InChI=1S/C16H13N3O3/c1-22-16(21)19-15-17-12-8-7-11(9-13(12)18-15)14(20)10-5-3-2-4-6-10/h2-9H,1H3,(H2,17,18,19,21)
Instrument: Q Exactive Plus Orbitrap Thermo Scientific
Instrument type: LC-ESI-QFT
Ms type: MS2
Ion mode: POSITIVE
Ionization: ESI
Fragmentation mode: HCD
Collision energy: 45 (nominal)
Resolution: 35000
Column name: XBridge C18 3.5um, 2.1x50mm, Waters
Retention time: 7.6 min
Base peak: 296.1024
Precursor m/z: 296.103
Precursor type: [M+H]+
m/z	relative intensity	assigned
77.0386	2	C6H5+
95.0492	1	C6H7O+
105.0336	51	C7H5O+
159.0419	1	C8H5N3O+
186.03	3	C9H4N3O2+
236.0814	1	C14H10N3O+
264.0769	999	C15H10N3O2+
296.1033	18	C16H14N3O3+
