Mass spectrum: Diethyl-phthalate; LC-ESI-QFT; MS2; CE: 60; R=35000; [M+H]+
Name: Diethyl-phthalate
Name: Diethyl phthalate
Name: Diethyl benzene-1,2-dicarboxylate
Formula: C12H14O4
Exact mass: 222.08921
SMILES: CCOC(=O)C1=CC=CC=C1C(=O)OCC
InChI: InChI=1S/C12H14O4/c1-3-15-11(13)9-7-5-6-8-10(9)12(14)16-4-2/h5-8H,3-4H2,1-2H3
Instrument: Q Exactive Plus Orbitrap Thermo Scientific
Instrument type: LC-ESI-QFT
Ms type: MS2
Ion mode: POSITIVE
Ionization: ESI
Fragmentation mode: HCD
Collision energy: 60 (nominal)
Resolution: 35000
Column name: XBridge C18 3.5um, 2.1x50mm, Waters
Retention time: 8.7 min
Base peak: 223.0959
Precursor m/z: 223.0965
Precursor type: [M+H]+
m/z	relative intensity	assigned
65.0385	10	C5H5+
93.0335	8	C6H5O+
111.0441	2	C6H7O2+
121.0284	97	C7H5O2+
121.0396	17	C6H5N2O+
149.0233	999	C8H5O3+
163.0389	2	C9H7O3+
167.0343	1	C8H7O4+
181.0497	1	C9H9O4+
