Mass spectrum: Di-n-butyl phthalate; LC-ESI-QFT; MS2; CE: 120; R=35000; [M-H]-
Name: Di-n-butyl phthalate
Name: Dibutyl phthalate
Name: dibutyl benzene-1,2-dicarboxylate
Formula: C16H22O4
Exact mass: 278.15181
SMILES: CCCCOC(=O)C1=CC=CC=C1C(=O)OCCCC
InChI: InChI=1S/C16H22O4/c1-3-5-11-19-15(17)13-9-7-8-10-14(13)16(18)20-12-6-4-2/h7-10H,3-6,11-12H2,1-2H3
Instrument: Q Exactive Plus Orbitrap Thermo Scientific
Instrument type: LC-ESI-QFT
Ms type: MS2
Ion mode: NEGATIVE
Ionization: ESI
Fragmentation mode: HCD
Collision energy: 120 (nominal)
Resolution: 35000
Column name: XBridge C18 3.5um, 2.1x50mm, Waters
Retention time: 13.8 min
Base peak: 277.1444
Precursor m/z: 277.1445
Precursor type: [M-H]-
m/z	relative intensity	assigned
75.0242	999	C6H3-
121.0295	9	C7H5O2-
