Mass spectrum: Dimethyl-phthalate; LC-ESI-QFT; MS2; CE: 30; R=35000; [M+H]+
Name: Dimethyl-phthalate
Name: Dimethyl phthalate
Name: Dimethyl benzene-1,2-dicarboxylate
Formula: C10H10O4
Exact mass: 194.05791
SMILES: COC(=O)C1=CC=CC=C1C(=O)OC
InChI: InChI=1S/C10H10O4/c1-13-9(11)7-5-3-4-6-8(7)10(12)14-2/h3-6H,1-2H3
Instrument: Q Exactive Plus Orbitrap Thermo Scientific
Instrument type: LC-ESI-QFT
Ms type: MS2
Ion mode: POSITIVE
Ionization: ESI
Fragmentation mode: HCD
Collision energy: 30 (nominal)
Resolution: 35000
Column name: XBridge C18 3.5um, 2.1x50mm, Waters
Retention time: 6.5 min
Base peak: 163.0386
Precursor m/z: 195.0652
Precursor type: [M+H]+
m/z	relative intensity	assigned
77.0384	1	C6H5+
133.0284	2	C8H5O2+
135.0444	1	C8H7O2+
163.0389	999	C9H7O3+
