Mass spectrum: Cimaterol; LC-ESI-QFT; MS2; CE: 15; R=35000; [M+H]+
Name: Cimaterol
Name: 2-amino-5-[1-hydroxy-2-(propan-2-ylamino)ethyl]benzonitrile
Formula: C12H17N3O
Exact mass: 219.13716
SMILES: CC(C)NCC(C1=CC(=C(C=C1)N)C#N)O
InChI: InChI=1S/C12H17N3O/c1-8(2)15-7-12(16)9-3-4-11(14)10(5-9)6-13/h3-5,8,12,15-16H,7,14H2,1-2H3
Instrument: Q Exactive Plus Orbitrap Thermo Scientific
Instrument type: LC-ESI-QFT
Ms type: MS2
Ion mode: POSITIVE
Ionization: ESI
Fragmentation mode: HCD
Collision energy: 15 (nominal)
Resolution: 35000
Column name: XBridge C18 3.5um, 2.1x50mm, Waters
Retention time: 1.5 min
Base peak: 220.1439
Precursor m/z: 220.1444
Precursor type: [M+H]+
m/z	relative intensity	assigned
143.0602	2	C9H7N2+
145.0759	5	C9H9N2+
160.0869	181	C9H10N3+
161.0711	1	C9H9N2O+
202.1337	999	C12H16N3+
220.1443	18	C12H18N3O+
