Mass spectrum: Forchlorfenuron; LC-ESI-QFT; MS2; CE: 75; R=35000; [M-H]-
Name: Forchlorfenuron
Name: N-(2-chloro-4-pyridyl)-N`-phenylurea
Name: 1-(2-chloropyridin-4-yl)-3-phenylurea
Formula: C12H10ClN3O
Exact mass: 247.05124
SMILES: C1=CC=C(C=C1)NC(=O)NC2=CC(=NC=C2)Cl
InChI: InChI=1S/C12H10ClN3O/c13-11-8-10(6-7-14-11)16-12(17)15-9-4-2-1-3-5-9/h1-8H,(H2,14,15,16,17)
Instrument: Q Exactive Plus Orbitrap Thermo Scientific
Instrument type: LC-ESI-QFT
Ms type: MS2
Ion mode: NEGATIVE
Ionization: ESI
Fragmentation mode: HCD
Collision energy: 75 (nominal)
Resolution: 35000
Column name: XBridge C18 3.5um, 2.1x50mm, Waters
Retention time: 8.8 min
Base peak: 246.0435
Precursor m/z: 246.044
Precursor type: [M-H]-
m/z	relative intensity	assigned
50.0035	60	C3N-
64.0193	30	C4H2N-
91.0301	999	C5H3N2-
92.0505	228	C6H6N-
127.0068	968	C5H4ClN2-
