Mass spectrum: Oxypurinol; LC-ESI-QFT; MS2; CE: 180%; R=15000; [M+H]+
Name: Oxypurinol
Name: 1,2-dihydropyrazolo[3,4-d]pyrimidine-4,6-dione
Formula: C5H4N4O2
Exact mass: 152.0334
SMILES: C1=C2C(=NC(=O)NC2=O)NN1
InChI: InChI=1S/C5H4N4O2/c10-4-2-1-6-9-3(2)7-5(11)8-4/h1H,(H3,6,7,8,9,10,11)
Instrument: Orbitrap Exploris 240 Thermo Scientific
Instrument type: LC-ESI-QFT
Ms type: MS2
Ion mode: POSITIVE
Ionization: ESI
Fragmentation mode: HCD
Collision energy: 180 % (nominal)
Resolution: 15000
Column name: Atlantis C18 3um, 3.0x150mm, Waters
Retention time: 8.015 min
Base peak: 132.9583
Precursor m/z: 153.0407
Precursor type: [M+H]+
Precursor intensity: 21820776
m/z	relative intensity	assigned
40.0182	85	C2H2N+
43.029	18	CH3N2+
44.013	25	CH2NO+
52.0182	999	C3H2N+
53.0022	27	C3HO+
53.9974	21	C2NO+
54.0338	69	C3H4N+
55.0291	8	C2H3N2+
59.0492	21	
65.0134	11	C3HN2+
65.9976	15	C3NO+
68.0131	36	C3H2NO+
68.0243	71	C2H2N3+
69.0084	161	C2HN2O+
69.9924	15	C2NO2+
79.0289	11	C4H3N2+
80.0131	33	C4H2NO+
93.0087	10	C4HN2O+
93.9926	34	C4NO2+
136.014	9	C5H2N3O2+
