Mass spectrum: Oxypurinol; LC-ESI-QFT; MS2; CE: 150%; R=15000; [M+H]+
Name: Oxypurinol
Name: 1,2-dihydropyrazolo[3,4-d]pyrimidine-4,6-dione
Formula: C5H4N4O2
Exact mass: 152.0334
SMILES: C1=C2C(=NC(=O)NC2=O)NN1
InChI: InChI=1S/C5H4N4O2/c10-4-2-1-6-9-3(2)7-5(11)8-4/h1H,(H3,6,7,8,9,10,11)
Instrument: Orbitrap Exploris 240 Thermo Scientific
Instrument type: LC-ESI-QFT
Ms type: MS2
Ion mode: POSITIVE
Ionization: ESI
Fragmentation mode: HCD
Collision energy: 150 % (nominal)
Resolution: 15000
Column name: Atlantis C18 3um, 3.0x150mm, Waters
Retention time: 8.015 min
Base peak: 132.9583
Precursor m/z: 153.0407
Precursor type: [M+H]+
Precursor intensity: 21820776
m/z	relative intensity	assigned
40.0182	87	C2H2N+
43.0291	16	CH3N2+
44.0132	13	CH2NO+
52.0182	999	C3H2N+
53.0022	13	C3HO+
53.9975	11	C2NO+
54.0339	103	C3H4N+
55.0291	9	C2H3N2+
59.0492	20	
65.0135	25	C3HN2+
67.029	16	C3H3N2+
68.013	33	C3H2NO+
68.0243	56	C2H2N3+
69.0084	155	C2HN2O+
69.021	9	C3H3NO+
69.9923	13	C2NO2+
79.0291	38	C4H3N2+
80.0131	124	C4H2NO+
80.0246	8	C3H2N3+
93.0084	10	C4HN2O+
93.9926	29	C4NO2+
135.0307	11	C5H3N4O+
136.0143	103	C5H2N3O2+
