Mass spectrum: 2-Naphthoxyacetic acid; LC-ESI-QFT; MS2; CE: 120; R=35000; [M-H]-
Name: 2-Naphthoxyacetic acid
Name: beta-Naphthoxyacetic acid
Name: (2-Naphthyloxy)acetic acid
Formula: C12H10O3
Exact mass: 202.06299
SMILES: C1=CC=C2C=C(C=CC2=C1)OCC(=O)O
InChI: InChI=1S/C12H10O3/c13-12(14)8-15-11-6-5-9-3-1-2-4-10(9)7-11/h1-7H,8H2,(H,13,14)
Instrument: Q Exactive Plus Orbitrap Thermo Scientific
Instrument type: LC-ESI-QFT
Ms type: MS2
Ion mode: NEGATIVE
Ionization: ESI
Fragmentation mode: HCD
Collision energy: 120 (nominal)
Resolution: 35000
Column name: XBridge C18 3.5um, 2.1x50mm, Waters
Retention time: 8.4 min
Base peak: 201.0554
Precursor m/z: 201.0557
Precursor type: [M-H]-
m/z	relative intensity	assigned
65.0397	2	C5H5-
114.0473	1	C9H6-
115.0554	999	C9H7-
116.0587	11	C4H8N2O2-
117.0347	4	C8H5O-
125.0396	6	C10H5-
141.0345	1	C10H5O-
143.0503	833	C10H7O-
144.0535	12	C5H8N2O3-
