Mass spectrum: Methenamine; LC-ESI-QFT; MS2; CE: 120%; R=15000; [M+H]+
Name: Methenamine
Name: 1,3,5,7-tetrazatricyclo[3.3.1.13,7]decane
Formula: C6H12N4
Exact mass: 140.1062
SMILES: C1N2CN3CN1CN(C2)C3
InChI: InChI=1S/C6H12N4/c1-7-2-9-4-8(1)5-10(3-7)6-9/h1-6H2
Instrument: Orbitrap Exploris 240 Thermo Scientific
Instrument type: LC-ESI-QFT
Ms type: MS2
Ion mode: POSITIVE
Ionization: ESI
Fragmentation mode: HCD
Collision energy: 120 % (nominal)
Resolution: 15000
Column name: Atlantis C18 3um, 3.0x150mm, Waters
Retention time: 2.670 min
Base peak: 141.1135
Precursor m/z: 141.1135
Precursor type: [M+H]+
Precursor intensity: 73653952
m/z	relative intensity	assigned
41.026	7	C2H3N+
42.0338	999	C2H4N+
44.0495	90	C2H6N+
56.0495	9	C3H6N+
58.0651	54	C3H8N+
71.0605	10	C3H7N2+
85.0762	37	C4H9N2+
112.0871	11	C5H10N3+
