Mass spectrum: Fluometuron; LC-ESI-QFT; MS2; CE: 90; R=35000; [M+H]+
Name: Fluometuron
Name: 1,1-dimethyl-3-[3-(trifluoromethyl)phenyl]urea
Formula: C10H11F3N2O
Exact mass: 232.08235
SMILES: CN(C)C(=O)NC1=CC=CC(=C1)C(F)(F)F
InChI: InChI=1S/C10H11F3N2O/c1-15(2)9(16)14-8-5-3-4-7(6-8)10(11,12)13/h3-6H,1-2H3,(H,14,16)
Instrument: Q Exactive Plus Orbitrap Thermo Scientific
Instrument type: LC-ESI-QFT
Ms type: MS2
Ion mode: POSITIVE
Ionization: ESI
Fragmentation mode: HCD
Collision energy: 90 (nominal)
Resolution: 35000
Column name: XBridge C18 3.5um, 2.1x50mm, Waters
Retention time: 8.0 min
Base peak: 233.0892
Precursor m/z: 233.0896
Precursor type: [M+H]+
m/z	relative intensity	assigned
56.0131	29	C2H2NO+
72.0444	999	C3H6NO+
91.0416	1	C6H5N+
113.0397	2	C6H6FO+
123.0354	4	C6H4FN2+
125.0198	2	C7H3F2+
133.026	10	C6H4F3+
140.0307	34	C7H4F2N+
141.0259	4	C6H3F2N2+
145.026	80	C7H4F3+
148.0306	6	C7H3FN3+
160.0369	36	C7H5F3N+
168.0256	16	C8H4F2NO+
173.0322	5	C7H4F3N2+
