Mass spectrum: Fluometuron; LC-ESI-QFT; MS2; CE: 120; R=35000; [M+H]+
Name: Fluometuron
Name: 1,1-dimethyl-3-[3-(trifluoromethyl)phenyl]urea
Formula: C10H11F3N2O
Exact mass: 232.08235
SMILES: CN(C)C(=O)NC1=CC=CC(=C1)C(F)(F)F
InChI: InChI=1S/C10H11F3N2O/c1-15(2)9(16)14-8-5-3-4-7(6-8)10(11,12)13/h3-6H,1-2H3,(H,14,16)
Instrument: Q Exactive Plus Orbitrap Thermo Scientific
Instrument type: LC-ESI-QFT
Ms type: MS2
Ion mode: POSITIVE
Ionization: ESI
Fragmentation mode: HCD
Collision energy: 120 (nominal)
Resolution: 35000
Column name: XBridge C18 3.5um, 2.1x50mm, Waters
Retention time: 8.0 min
Base peak: 233.0892
Precursor m/z: 233.0896
Precursor type: [M+H]+
m/z	relative intensity	assigned
51.023	2	C4H3+
56.0131	95	C2H2NO+
57.0135	2	C3H2F+
63.0229	10	C5H3+
68.9947	1	CF3+
71.0292	2	C4H4F+
72.0444	999	C3H6NO+
75.004	6	C3HF2+
75.0229	20	C6H3+
81.0135	1	C5H2F+
83.0292	9	C5H4F+
90.0339	8	C6H4N+
91.0417	11	C6H5N+
95.0104	2	C3H2F3+
95.0292	6	C6H4F+
99.0042	1	C5HF2+
100.0182	8	C7H2N+
111.0242	1	C6H4FO+
113.0198	10	C6H3F2+
113.0398	18	C6H6FO+
119.0105	2	C5H2F3+
120.0245	4	C7H3FN+
123.0353	39	C6H4FN2+
125.0199	22	C7H3F2+
131.0303	2	C6H5F2O+
133.026	16	C6H4F3+
138.0351	2	C7H5FNO+
140.0307	30	C7H4F2N+
141.0259	28	C6H3F2N2+
145.0261	107	C7H4F3+
148.0306	14	C7H3FN3+
160.0371	6	C7H5F3N+
168.0255	7	C8H4F2NO+
