Mass spectrum: Imazaquin; LC-ESI-QFT; MS2; CE: 75; R=35000; [M-H]-
Name: Imazaquin
Name: 2-(4-methyl-5-oxo-4-propan-2-yl-1H-imidazol-2-yl)quinoline-3-carboxylic acid
Formula: C17H17N3O3
Exact mass: 311.12699
SMILES: CC(C)C1(C(=O)NC(=N1)C2=NC3=CC=CC=C3C=C2C(=O)O)C
InChI: InChI=1S/C17H17N3O3/c1-9(2)17(3)16(23)19-14(20-17)13-11(15(21)22)8-10-6-4-5-7-12(10)18-13/h4-9H,1-3H3,(H,21,22)(H,19,20,23)
Instrument: Q Exactive Plus Orbitrap Thermo Scientific
Instrument type: LC-ESI-QFT
Ms type: MS2
Ion mode: NEGATIVE
Ionization: ESI
Fragmentation mode: HCD
Collision energy: 75 (nominal)
Resolution: 35000
Column name: XBridge C18 3.5um, 2.1x50mm, Waters
Retention time: 7.0 min
Base peak: 310.1195
Precursor m/z: 310.1197
Precursor type: [M-H]-
m/z	relative intensity	assigned
65.9984	1	C3NO-
128.0506	3	C9H6N-
153.0459	6	C10H5N2-
155.0618	2	C10H7N2-
168.0571	2	C10H6N3-
183.0564	46	C11H7N2O-
195.0567	1	C12H7N2O-
208.0517	468	C12H6N3O-
222.0675	999	C13H8N3O-
223.0753	982	C13H9N3O-
224.0832	3	C13H10N3O-
236.083	279	C14H10N3O-
251.1062	2	C15H13N3O-
