Mass spectrum: Fluometuron; LC-ESI-QFT; MS2; CE: 75; R=35000; [M-H]-
Name: Fluometuron
Name: 1,1-dimethyl-3-[3-(trifluoromethyl)phenyl]urea
Formula: C10H11F3N2O
Exact mass: 232.08235
SMILES: CN(C)C(=O)NC1=CC=CC(=C1)C(F)(F)F
InChI: InChI=1S/C10H11F3N2O/c1-15(2)9(16)14-8-5-3-4-7(6-8)10(11,12)13/h3-6H,1-2H3,(H,14,16)
Instrument: Q Exactive Plus Orbitrap Thermo Scientific
Instrument type: LC-ESI-QFT
Ms type: MS2
Ion mode: NEGATIVE
Ionization: ESI
Fragmentation mode: HCD
Collision energy: 75 (nominal)
Resolution: 35000
Column name: XBridge C18 3.5um, 2.1x50mm, Waters
Retention time: 8.0 min
Base peak: 231.0748
Precursor m/z: 231.0751
Precursor type: [M-H]-
m/z	relative intensity	assigned
68.9959	2	CF3-
74.0037	1	C5N-
98.0036	234	C7N-
100.0193	2	C7H2N-
118.01	123	C7HFN-
118.9939	3	C7FO-
120.0255	8	C7H3FN-
125.9987	1	C8NO-
134.0413	6	C8H5FN-
136.0206	6	C7H3FNO-
138.0161	81	C7H2F2N-
140.0319	2	C7H4F2N-
142.0474	14	C7H6F2N-
143.0115	9	C7H2F3-
143.0616	1	C9H7N2-
145.0272	10	C7H4F3-
146.0049	579	C8HFNO-
154.0475	13	C8H6F2N-
156.0266	2	C7H4F2NO-
158.0224	14	C7H3F3N-
159.0302	5	C7H4F3N-
160.0381	324	C7H5F3N-
161.0219	1	C7H4F3O-
166.0111	557	C8H2F2NO-
168.0265	3	C8H4F2NO-
171.0567	2	C10H7N2O-
182.0062	2	C8H2F2NO2-
184.0217	25	C8H4F2NO2-
186.0173	999	C8H3F3NO-
188.0327	13	C8H5F3NO-
200.0205	2	C8H3F3N2O-
215.0441	14	C9H6F3N2O-
231.0751	27	C10H10F3N2O-
