Mass spectrum: Oxypurinol; LC-ESI-QFT; MS2; CE: 120%; R=15000; [M+H]+
Name: Oxypurinol
Name: 1,2-dihydropyrazolo[3,4-d]pyrimidine-4,6-dione
Formula: C5H4N4O2
Exact mass: 152.0334
SMILES: C1=C2C(=NC(=O)NC2=O)NN1
InChI: InChI=1S/C5H4N4O2/c10-4-2-1-6-9-3(2)7-5(11)8-4/h1H,(H3,6,7,8,9,10,11)
Instrument: Orbitrap Exploris 240 Thermo Scientific
Instrument type: LC-ESI-QFT
Ms type: MS2
Ion mode: POSITIVE
Ionization: ESI
Fragmentation mode: HCD
Collision energy: 120 % (nominal)
Resolution: 15000
Column name: Atlantis C18 3um, 3.0x150mm, Waters
Retention time: 8.015 min
Base peak: 132.9583
Precursor m/z: 153.0407
Precursor type: [M+H]+
Precursor intensity: 21820776
m/z	relative intensity	assigned
40.0181	46	C2H2N+
43.029	15	CH3N2+
52.0182	999	C3H2N+
54.0338	119	C3H4N+
55.0291	13	C2H3N2+
59.0492	18	
65.0134	17	C3HN2+
67.0291	26	C3H3N2+
68.0131	57	C3H2NO+
68.0244	42	C2H2N3+
69.0083	146	C2HN2O+
69.0209	14	C3H3NO+
79.0291	89	C4H3N2+
80.0131	410	C4H2NO+
82.0401	13	C3H4N3+
93.0083	11	C4HN2O+
93.9924	19	C4NO2+
107.0353	15	C4H3N4+
110.0346	37	C4H4N3O+
135.03	75	C5H3N4O+
136.0142	807	C5H2N3O2+
