Mass spectrum: Fluometuron; LC-ESI-QFT; MS2; CE: 15; R=35000; [M-H]-
Name: Fluometuron
Name: 1,1-dimethyl-3-[3-(trifluoromethyl)phenyl]urea
Formula: C10H11F3N2O
Exact mass: 232.08235
SMILES: CN(C)C(=O)NC1=CC=CC(=C1)C(F)(F)F
InChI: InChI=1S/C10H11F3N2O/c1-15(2)9(16)14-8-5-3-4-7(6-8)10(11,12)13/h3-6H,1-2H3,(H,14,16)
Instrument: Q Exactive Plus Orbitrap Thermo Scientific
Instrument type: LC-ESI-QFT
Ms type: MS2
Ion mode: NEGATIVE
Ionization: ESI
Fragmentation mode: HCD
Collision energy: 15 (nominal)
Resolution: 35000
Column name: XBridge C18 3.5um, 2.1x50mm, Waters
Retention time: 8.0 min
Base peak: 231.0748
Precursor m/z: 231.0751
Precursor type: [M-H]-
m/z	relative intensity	assigned
160.0378	3	C7H5F3N-
186.0173	42	C8H3F3NO-
215.0427	1	C9H6F3N2O-
231.075	999	C10H10F3N2O-
232.0786	1	C8H10F2N4O2-
