Mass spectrum: Fluometuron; LC-ESI-QFT; MS2; CE: 90%; R=15000; [M+H]+
Name: Fluometuron
Name: 1,1-dimethyl-3-[3-(trifluoromethyl)phenyl]urea
Formula: C10H11F3N2O
Exact mass: 232.0823
SMILES: CN(C)C(=O)NC1=CC=CC(=C1)C(F)(F)F
InChI: InChI=1S/C10H11F3N2O/c1-15(2)9(16)14-8-5-3-4-7(6-8)10(11,12)13/h3-6H,1-2H3,(H,14,16)
Instrument: Orbitrap Exploris 240 Thermo Scientific
Instrument type: LC-ESI-QFT
Ms type: MS2
Ion mode: POSITIVE
Ionization: ESI
Fragmentation mode: HCD
Collision energy: 90 % (nominal)
Resolution: 15000
Column name: Atlantis C18 3um, 3.0x150mm, Waters
Retention time: 17.852 min
Base peak: 233.0894
Precursor m/z: 233.0896
Precursor type: [M+H]+
Precursor intensity: 949104192
m/z	relative intensity	assigned
56.0131	19	C2H2NO+
72.0444	999	C3H6NO+
140.0307	16	C7H4F2N+
145.026	45	C7H4F3+
160.0366	36	C7H5F3N+
168.0257	13	C8H4F2NO+
