Mass spectrum: Oxypurinol; LC-ESI-QFT; MS2; CE: 90%; R=15000; [M+H]+
Name: Oxypurinol
Name: 1,2-dihydropyrazolo[3,4-d]pyrimidine-4,6-dione
Formula: C5H4N4O2
Exact mass: 152.0334
SMILES: C1=C2C(=NC(=O)NC2=O)NN1
InChI: InChI=1S/C5H4N4O2/c10-4-2-1-6-9-3(2)7-5(11)8-4/h1H,(H3,6,7,8,9,10,11)
Instrument: Orbitrap Exploris 240 Thermo Scientific
Instrument type: LC-ESI-QFT
Ms type: MS2
Ion mode: POSITIVE
Ionization: ESI
Fragmentation mode: HCD
Collision energy: 90 % (nominal)
Resolution: 15000
Column name: Atlantis C18 3um, 3.0x150mm, Waters
Retention time: 8.015 min
Base peak: 132.9583
Precursor m/z: 153.0407
Precursor type: [M+H]+
Precursor intensity: 21820776
m/z	relative intensity	assigned
52.0182	98	C3H2N+
54.0338	26	C3H4N+
67.029	7	C3H3N2+
68.013	9	C3H2NO+
69.0083	13	C2HN2O+
79.029	24	C4H3N2+
80.0131	122	C4H2NO+
107.0356	4	C4H3N4+
110.0349	45	C4H4N3O+
128.0455	7	
135.0168	4	
135.0301	94	C5H3N4O+
136.0142	999	C5H2N3O2+
153.0406	11	C5H5N4O2+
154.0248	4	
168.0406	3	
