Mass spectrum: Fluometuron; LC-ESI-QFT; MS2; CE: 60%; R=15000; [M-H]-
Name: Fluometuron
Name: 1,1-dimethyl-3-[3-(trifluoromethyl)phenyl]urea
Formula: C10H11F3N2O
Exact mass: 232.0823
SMILES: CN(C)C(=O)NC1=CC=CC(=C1)C(F)(F)F
InChI: InChI=1S/C10H11F3N2O/c1-15(2)9(16)14-8-5-3-4-7(6-8)10(11,12)13/h3-6H,1-2H3,(H,14,16)
Instrument: Orbitrap Exploris 240 Thermo Scientific
Instrument type: LC-ESI-QFT
Ms type: MS2
Ion mode: NEGATIVE
Ionization: ESI
Fragmentation mode: HCD
Collision energy: 60 % (nominal)
Resolution: 15000
Column name: Atlantis C18 3um, 3.0x150mm, Waters
Retention time: 17.841 min
Base peak: 231.0751
Precursor m/z: 231.0751
Precursor type: [M-H]-
Precursor intensity: 69350504
m/z	relative intensity	assigned
138.0166	10	C7H2F2N-
146.0048	70	C8HFNO-
154.0474	18	C8H6F2N-
160.0381	126	C7H5F3N-
166.011	247	C8H2F2NO-
168.027	8	C8H4F2NO-
186.0173	999	C8H3F3NO-
188.0338	12	C8H5F3NO-
231.0752	142	C10H10F3N2O-
