Mass spectrum: Fluometuron; LC-ESI-QFT; MS2; CE: 75; R=35000; [M+H]+
Name: Fluometuron
Name: 1,1-dimethyl-3-[3-(trifluoromethyl)phenyl]urea
Formula: C10H11F3N2O
Exact mass: 232.08235
SMILES: CN(C)C(=O)NC1=CC=CC(=C1)C(F)(F)F
InChI: InChI=1S/C10H11F3N2O/c1-15(2)9(16)14-8-5-3-4-7(6-8)10(11,12)13/h3-6H,1-2H3,(H,14,16)
Instrument: Q Exactive Plus Orbitrap Thermo Scientific
Instrument type: LC-ESI-QFT
Ms type: MS2
Ion mode: POSITIVE
Ionization: ESI
Fragmentation mode: HCD
Collision energy: 75 (nominal)
Resolution: 35000
Column name: XBridge C18 3.5um, 2.1x50mm, Waters
Retention time: 8.0 min
Base peak: 233.0892
Precursor m/z: 233.0896
Precursor type: [M+H]+
m/z	relative intensity	assigned
56.0131	13	C2H2NO+
72.0444	999	C3H6NO+
133.026	3	C6H4F3+
140.0307	16	C7H4F2N+
145.026	41	C7H4F3+
148.0306	2	C7H3FN3+
160.0369	58	C7H5F3N+
163.0365	1	C7H6F3O+
168.0256	19	C8H4F2NO+
173.0323	9	C7H4F3N2+
178.0476	1	C7H7F3NO+
188.0318	4	C8H5F3NO+
192.0628	1	C8H9F3NO+
