Mass spectrum: 2-Acrylamido-2-methyl-1-propanesulfonic acid (AMPS); LC-ESI-QFT; MS2; CE: 75%; R=15000; [M+H]+
Name: 2-Acrylamido-2-methyl-1-propanesulfonic acid (AMPS)
Name: 2-Acrylamido-2-methyl-1-propanesulfonic acid
Name: 2-methyl-2-(prop-2-enoylamino)propane-1-sulfonic acid
Formula: C7H13NO4S
Exact mass: 207.0565
SMILES: CC(C)(CS(=O)(=O)O)NC(=O)C=C
InChI: InChI=1S/C7H13NO4S/c1-4-6(9)8-7(2,3)5-13(10,11)12/h4H,1,5H2,2-3H3,(H,8,9)(H,10,11,12)
Instrument: Orbitrap Exploris 240 Thermo Scientific
Instrument type: LC-ESI-QFT
Ms type: MS2
Ion mode: POSITIVE
Ionization: ESI
Fragmentation mode: HCD
Collision energy: 75 % (nominal)
Resolution: 15000
Column name: Atlantis C18 3um, 3.0x150mm, Waters
Retention time: 10.705 min
Base peak: 208.0637
Precursor m/z: 208.0638
Precursor type: [M+H]+
Precursor intensity: 38957220
m/z	relative intensity	assigned
55.0178	999	C3H3O+
55.0542	256	C4H7+
58.0651	6	C3H8N+
72.0444	467	C3H6NO+
72.0808	21	
73.0647	69	C4H9O+
154.0527	20	C4H12NO3S+
