Mass spectrum: p-Toluenesulfonic acid; LC-ESI-QFT; MS2; CE: 150%; R=15000; [M+H]+
Name: p-Toluenesulfonic acid
Name: 4-methylbenzenesulfonic acid
Formula: C7H8O3S
Exact mass: 172.0194
SMILES: CC1=CC=C(C=C1)S(=O)(=O)O
InChI: InChI=1S/C7H8O3S/c1-6-2-4-7(5-3-6)11(8,9)10/h2-5H,1H3,(H,8,9,10)
Instrument: Orbitrap Exploris 240 Thermo Scientific
Instrument type: LC-ESI-QFT
Ms type: MS2
Ion mode: POSITIVE
Ionization: ESI
Fragmentation mode: HCD
Collision energy: 150 % (nominal)
Resolution: 15000
Column name: Atlantis C18 3um, 3.0x150mm, Waters
Retention time: 13.497 min
Base peak: 132.9582
Precursor m/z: 173.0267
Precursor type: [M+H]+
Precursor intensity: 12440807
m/z	relative intensity	assigned
41.0385	29	C3H5+
51.023	59	C4H3+
63.0231	58	C5H3+
65.0386	999	C5H5+
77.0388	28	C6H5+
91.0543	393	C7H7+
105.0449	27	
107.0493	26	C7H7O+
