Mass spectrum: Terbuthylazine-TP CSCD648241 (LM6); LC-ESI-QFT; MS2; CE: 15%; R=17500; [M-H]-
Name: Terbuthylazine-TP CSCD648241 (LM6)
Name: 3-Methyl-6-[(2-methyl-2-propanyl)amino]-1,3,5-triazine-2,4(1H,3H)-dione
Formula: C8H14N4O2
Exact mass: 198.1117
SMILES: CN1C(O)=NC(NC(C)(C)C)=NC1=O
InChI: InChI=1S/C8H14N4O2/c1-8(2,3)11-5-9-6(13)12(4)7(14)10-5/h1-4H3,(H2,9,10,11,13,14)
Instrument: Q Exactive Plus Orbitrap Thermo Scientific
Instrument type: LC-ESI-QFT
Ms type: MS2
Ion mode: NEGATIVE
Ionization: ESI
Fragmentation mode: HCD
Collision energy: 15 % (nominal)
Resolution: 17500
Column name: XBridge C18 3.5um, 2.1x50mm, Waters
Retention time: 4.084 min
Base peak: 197.1043
Precursor m/z: 197.1044
Precursor type: [M-H]-
m/z	relative intensity	assigned
68.5674	2	
97.077	46	C5H9N2-
98.036	1	C3H4N3O-
141.0418	58	C4H5N4O2-
197.1044	999	C8H13N4O2-
198.1077	25	
