Mass spectrum: Cyprodinil-TP CGA 249287; LC-ESI-QFT; MS2; CE: 15%; R=17500; [M+H]+
Name: Cyprodinil-TP CGA 249287
Name: 4-Cyclopropyl-6-methyl-2-pyrimidinamine
Name: 4-cyclopropyl-6-methylpyrimidin-2-amine
Formula: C8H11N3
Exact mass: 149.0953
SMILES: CC1=NC(N)=NC(=C1)C1CC1
InChI: InChI=1S/C8H11N3/c1-5-4-7(6-2-3-6)11-8(9)10-5/h4,6H,2-3H2,1H3,(H2,9,10,11)
Instrument: Q Exactive Plus Orbitrap Thermo Scientific
Instrument type: LC-ESI-QFT
Ms type: MS2
Ion mode: POSITIVE
Ionization: ESI
Fragmentation mode: HCD
Collision energy: 15 % (nominal)
Resolution: 17500
Column name: XBridge C18 3.5um, 2.1x50mm, Waters
Retention time: 2.394 min
Base peak: 150.1026
Precursor m/z: 150.1026
Precursor type: [M+H]+
m/z	relative intensity	assigned
67.0291	1	C3H3N2+
83.0602	2	C4H7N2+
108.0809	2	C7H10N+
109.0759	1	C6H9N2+
133.076	8	C8H9N2+
150.1025	999	C8H12N3+
