Mass spectrum: Terbuthylazine-TP MT24 (LM1); LC-ESI-QFT; MS2; CE: 180%; R=17500; [M+H]+
Name: Terbuthylazine-TP MT24 (LM1)
Name: Ammelide
Name: 6-amino-1H-1,3,5-triazine-2,4-dione
Formula: C3H4N4O2
Exact mass: 128.0334
SMILES: NC1=NC(O)=NC(O)=N1
InChI: InChI=1S/C3H4N4O2/c4-1-5-2(8)7-3(9)6-1/h(H4,4,5,6,7,8,9)
Instrument: Q Exactive Plus Orbitrap Thermo Scientific
Instrument type: LC-ESI-QFT
Ms type: MS2
Ion mode: POSITIVE
Ionization: ESI
Fragmentation mode: HCD
Collision energy: 180 % (nominal)
Resolution: 17500
Column name: XBridge C18 3.5um, 2.1x50mm, Waters
Retention time: 0.899 min
Base peak: 157.0352
Precursor m/z: 129.0407
Precursor type: [M+H]+
m/z	relative intensity	assigned
69.0083	824	C2HN2O+
69.9924	999	C2NO2+
