Mass spectrum: Terbuthylazine-TP MT23 (LM5); LC-ESI-QFT; MS2; CE: 180%; R=17500; [M+H]+
Name: Terbuthylazine-TP MT23 (LM5)
Name: 6-[(2-Methyl-2-propanyl)amino]-1,3,5-triazine-2,4(1H,3H)-dione
Name: 6-(tert-butylamino)-1H-1,3,5-triazine-2,4-dione
Formula: C7H12N4O2
Exact mass: 184.0960
SMILES: CC(C)(C)NC1=NC(O)=NC(O)=N1
InChI: InChI=1S/C7H12N4O2/c1-7(2,3)11-4-8-5(12)10-6(13)9-4/h1-3H3,(H3,8,9,10,11,12,13)
Instrument: Q Exactive Plus Orbitrap Thermo Scientific
Instrument type: LC-ESI-QFT
Ms type: MS2
Ion mode: POSITIVE
Ionization: ESI
Fragmentation mode: HCD
Collision energy: 180 % (nominal)
Resolution: 17500
Column name: XBridge C18 3.5um, 2.1x50mm, Waters
Retention time: 3.358 min
Base peak: 185.1033
Precursor m/z: 185.1033
Precursor type: [M+H]+
m/z	relative intensity	assigned
53.0022	89	C3HO+
53.9974	29	C2NO+
69.0084	870	C2HN2O+
69.9924	999	C2NO2+
87.0192	35	C2H3N2O2+
