Mass spectrum: Terbuthylazine-TP CSAA036479 (LM2); LC-ESI-QFT; MS2; CE: 120%; R=17500; [M-H]-
Name: Terbuthylazine-TP CSAA036479 (LM2)
Name: 2-[(6-amino-4-oxo-1H-1,3,5-triazin-2-yl)amino]-2-methylpropanoic acid
Formula: C7H11N5O3
Exact mass: 213.0862
SMILES: CC(C)(NC1=NC(N)=NC(O)=N1)C(O)=O
InChI: InChI=1S/C7H11N5O3/c1-7(2,3(13)14)12-5-9-4(8)10-6(15)11-5/h1-2H3,(H,13,14)(H4,8,9,10,11,12,15)
Instrument: Q Exactive Plus Orbitrap Thermo Scientific
Instrument type: LC-ESI-QFT
Ms type: MS2
Ion mode: NEGATIVE
Ionization: ESI
Fragmentation mode: HCD
Collision energy: 120 % (nominal)
Resolution: 17500
Column name: XBridge C18 3.5um, 2.1x50mm, Waters
Retention time: 1.332 min
Base peak: 212.0789
Precursor m/z: 212.0789
Precursor type: [M-H]-
m/z	relative intensity	assigned
66.0097	355	C2N3-
67.0302	999	C3H3N2-
81.0458	113	C4H5N2-
83.0364	506	C2H3N4-
83.0615	615	C4H7N2-
