Mass spectrum: Chlorothalonil-TP SYN507900; LC-ESI-QFT; MS2; CE: 120%; R=17500; [M-H]-
Name: Chlorothalonil-TP SYN507900
Name: 2,3,6-trichloro-5-cyano-4-hydroxybenzamide
Formula: C8H3Cl3N2O2
Exact mass: 263.9260
SMILES: NC(=O)C1=C(Cl)C(C#N)=C(O)C(Cl)=C1Cl
InChI: InChI=1S/C8H3Cl3N2O2/c9-4-2(1-12)7(14)6(11)5(10)3(4)8(13)15/h14H,(H2,13,15)
Instrument: Q Exactive Orbitrap Thermo Scientific
Instrument type: LC-ESI-QFT
Ms type: MS2
Ion mode: NEGATIVE
Ionization: ESI
Fragmentation mode: HCD
Collision energy: 120 % (nominal)
Resolution: 17500
Column name: XBridge C18 3.5um, 2.1x50mm, Waters
Retention time: 2.712 min
Base peak: 262.9187
Precursor m/z: 262.9187
Precursor type: [M-H]-
m/z	relative intensity	assigned
62.0035	75	C4N-
65.9986	465	C3NO-
86.0036	404	C6N-
88.0067	304	C5N2-
89.9986	168	C5NO-
112.0068	999	C7N2-
113.9985	198	C7NO-
122.9755	77	C5ClN2-
146.9754	48	C7ClN2-
