Mass spectrum: Terbuthylazine-TP MT23 (LM5); LC-ESI-QFT; MS2; CE: 45%; R=17500; [M-H]-
Name: Terbuthylazine-TP MT23 (LM5)
Name: 6-[(2-Methyl-2-propanyl)amino]-1,3,5-triazine-2,4(1H,3H)-dione
Name: 6-(tert-butylamino)-1H-1,3,5-triazine-2,4-dione
Formula: C7H12N4O2
Exact mass: 184.0960
SMILES: CC(C)(C)NC1=NC(O)=NC(O)=N1
InChI: InChI=1S/C7H12N4O2/c1-7(2,3)11-4-8-5(12)10-6(13)9-4/h1-3H3,(H3,8,9,10,11,12,13)
Instrument: Q Exactive Plus Orbitrap Thermo Scientific
Instrument type: LC-ESI-QFT
Ms type: MS2
Ion mode: NEGATIVE
Ionization: ESI
Fragmentation mode: HCD
Collision energy: 45 % (nominal)
Resolution: 17500
Column name: XBridge C18 3.5um, 2.1x50mm, Waters
Retention time: 3.337 min
Base peak: 183.0886
Precursor m/z: 183.0887
Precursor type: [M-H]-
m/z	relative intensity	assigned
81.0459	10	C4H5N2-
83.0363	9	C2H3N4-
84.0203	46	C2H2N3O-
85.0044	8	C2HN2O2-
97.0771	946	C5H9N2-
98.0804	16	H10N4O2-
127.0261	261	C3H3N4O2-
139.0989	33	C6H11N4-
183.0887	999	C7H11N4O2-
184.0926	22	
