Mass spectrum: Terbuthylazine-TP CSCD648241 (LM6); LC-ESI-QFT; MS2; CE: 60%; R=17500; [M+H]+
Name: Terbuthylazine-TP CSCD648241 (LM6)
Name: 3-Methyl-6-[(2-methyl-2-propanyl)amino]-1,3,5-triazine-2,4(1H,3H)-dione
Formula: C8H14N4O2
Exact mass: 198.1117
SMILES: CN1C(O)=NC(NC(C)(C)C)=NC1=O
InChI: InChI=1S/C8H14N4O2/c1-8(2,3)11-5-9-6(13)12(4)7(14)10-5/h1-4H3,(H2,9,10,11,13,14)
Instrument: Q Exactive Plus Orbitrap Thermo Scientific
Instrument type: LC-ESI-QFT
Ms type: MS2
Ion mode: POSITIVE
Ionization: ESI
Fragmentation mode: HCD
Collision energy: 60 % (nominal)
Resolution: 17500
Column name: XBridge C18 3.5um, 2.1x50mm, Waters
Retention time: 4.105 min
Base peak: 199.119
Precursor m/z: 199.119
Precursor type: [M+H]+
m/z	relative intensity	assigned
53.0023	1	C3HO+
57.0449	2	
57.0699	194	C4H9+
58.0287	16	C2H4NO+
68.5221	4	
69.0084	5	C2HN2O+
86.0349	71	C2H4N3O+
100.0503	1	C3H6N3O+
101.0346	10	C3H5N2O2+
143.0564	999	C4H7N4O2+
