Mass spectrum: Chlorothalonil TP SYN548580; LC-ESI-QFT; MS2; CE: 150%; R=15000; [M+H]+
Name: Chlorothalonil TP SYN548580
Name: 2,4,5-trichloro-6-hydroxyisophthalamide
Formula: C8H5Cl3N2O3
Exact mass: 281.9366
SMILES: NC(=O)c1c(O)c(Cl)c(Cl)c(C(=O)N)c1Cl
InChI: InChI=1S/C8H5Cl3N2O3/c9-3-1(7(12)15)4(10)5(11)6(14)2(3)8(13)16/h14H,(H2,12,15)(H2,13,16)
Instrument: Orbitrap Exploris 240 Thermo Scientific
Instrument type: LC-ESI-QFT
Ms type: MS2
Ion mode: POSITIVE
Ionization: ESI
Fragmentation mode: HCD
Collision energy: 150 % (nominal)
Resolution: 15000
Column name: Atlantis C18 3um, 3.0x150mm, Waters
Retention time: 9.698 min
Base peak: 132.9582
Precursor m/z: 282.9439
Precursor type: [M+H]+
Precursor intensity: 38424076
m/z	relative intensity	assigned
52.0183	22	C3H2N+
61.9793	16	CHClN+
62.9632	116	CClO+
71.976	70	C3HCl+
72.984	85	C3H2Cl+
73.9794	24	C2HClN+
75.0103	59	C5HN+
76.0182	25	C5H2N+
82.945	275	CHCl2+
83.9762	62	C4HCl+
85.9792	25	C3HClN+
86.9631	30	C3ClO+
94.9684	66	C5Cl+
95.9761	359	C5HCl+
96.9841	109	C5H2Cl+
98.9871	45	C4H2ClN+
106.945	999	C3HCl2+
109.9791	113	C5HClN+
110.9634	36	C5ClO+
110.987	26	C5H2ClN+
111.9951	21	C5H3ClN+
117.9372	193	C4Cl2+
118.9448	38	C4HCl2+
120.9715	13	C6ClN+
121.9789	21	C6HClN+
122.9632	28	C6ClO+
123.971	50	C6HClO+
129.9371	477	C5Cl2+
130.945	256	C5HCl2+
140.9066	51	C3Cl3+
141.9372	186	C6Cl2+
152.9059	24	C4Cl3+
157.9324	73	C3H3Cl3N+
164.9058	224	C5Cl3+
166.9219	46	C5H2Cl3+
