Mass spectrum: Chlorothalonil TP SYN548580; LC-ESI-QFT; MS2; CE: 60%; R=15000; [M+H]+
Name: Chlorothalonil TP SYN548580
Name: 2,4,5-trichloro-6-hydroxyisophthalamide
Formula: C8H5Cl3N2O3
Exact mass: 281.9366
SMILES: NC(=O)c1c(O)c(Cl)c(Cl)c(C(=O)N)c1Cl
InChI: InChI=1S/C8H5Cl3N2O3/c9-3-1(7(12)15)4(10)5(11)6(14)2(3)8(13)16/h14H,(H2,12,15)(H2,13,16)
Instrument: Orbitrap Exploris 240 Thermo Scientific
Instrument type: LC-ESI-QFT
Ms type: MS2
Ion mode: POSITIVE
Ionization: ESI
Fragmentation mode: HCD
Collision energy: 60 % (nominal)
Resolution: 15000
Column name: Atlantis C18 3um, 3.0x150mm, Waters
Retention time: 9.698 min
Base peak: 132.9582
Precursor m/z: 282.9439
Precursor type: [M+H]+
Precursor intensity: 38424076
m/z	relative intensity	assigned
158.9401	7	C6HCl2O+
164.906	16	C5Cl3+
166.9217	148	C5H2Cl3+
180.9014	9	C5Cl3O+
186.935	63	C7HCl2O2+
192.9012	54	C6Cl3O+
194.9165	36	C6H2Cl3O+
201.9469	10	C4H5Cl3N2O+
204.9009	154	C7Cl3O+
209.9268	11	C6H3Cl3NO+
221.9277	18	C7H3Cl3NO+
222.9115	746	C7H2Cl3O2+
229.9407	155	C8H2Cl2NO3+
247.9077	16	C8HCl3NO2+
248.8908	999	C8Cl3O3+
265.9173	496	C8H3Cl3NO3+
266.9015	540	
280.916	39	
