Mass spectrum: Anabaenopeptin NZ857; LC-ESI-QFT; MS2; CE: 75%; R=17500; [M-H]-
Name: Anabaenopeptin NZ857
Name: 2-[[12-butan-2-yl-3,9-bis[2-(4-hydroxyphenyl)ethyl]-7-methyl-2,5,8,11,14-pentaoxo-1,4,7,10,13-pentazacyclononadec-15-yl]carbamoylamino]-3-phenylpropanoic acid
Formula: C45H59N7O10
Exact mass: 857.4323
SMILES: CCC(C)C1C(=O)NC(C(=O)N(CC(=O)NC(C(=O)NCCCCC(C(=O)N1)NC(=O)NC(CC2=CC=CC=C2)C(=O)O)CCC3=CC=C(C=C3)O)C)CCC4=CC=C(C=C4)O
InChI: InChI=1S/C45H59N7O10/c1-4-28(2)39-42(58)48-36(24-18-30-15-21-33(54)22-16-30)43(59)52(3)27-38(55)47-35(23-17-29-13-19-32(53)20-14-29)40(56)46-25-9-8-12-34(41(57)51-39)49-45(62)50-37(44(60)61)26-31-10-6-5-7-11-31/h5-7,10-11,13-16,19-22,28,34-37,39,53-54H,4,8-9,12,17-18,23-27H2,1-3H3,(H,46,56)(H,47,55)(H,48,58)(H,51,57)(H,60,61)(H2,49,50,62)
Instrument: Q Exactive Plus Orbitrap Thermo Scientific
Instrument type: LC-ESI-QFT
Ms type: MS2
Ion mode: NEGATIVE
Ionization: ESI
Fragmentation mode: HCD
Collision energy: 75 % (nominal)
Resolution: 17500
Column name: XBridge C18 3.5um, 2.1x50mm, Waters
Retention time: 7.928 min
Base peak: 190.928
Precursor m/z: 856.4251
Precursor type: [M-H]-
m/z	relative intensity	assigned
72.0093	214	C2H2NO2-
93.0348	298	C6H5O-
97.0046	93	C3HN2O2-
98.0119	88	C3H2N2O2-
99.02	141	C3H3N2O2-
101.0719	160	C4H9N2O-
107.0502	298	C7H7O-
111.0202	111	C4H3N2O2-
119.0502	999	C8H7O-
124.0278	96	C5H4N2O2-
127.0515	71	C5H7N2O2-
141.0666	70	C6H9N2O2-
146.0602	50	C7H6N4-
163.0401	165	C9H7O3-
