Mass spectrum: Chlorothalonil TP SYN548580; LC-ESI-QFT; MS2; CE: 30%; R=15000; [M+H]+
Name: Chlorothalonil TP SYN548580
Name: 2,4,5-trichloro-6-hydroxyisophthalamide
Formula: C8H5Cl3N2O3
Exact mass: 281.9366
SMILES: NC(=O)c1c(O)c(Cl)c(Cl)c(C(=O)N)c1Cl
InChI: InChI=1S/C8H5Cl3N2O3/c9-3-1(7(12)15)4(10)5(11)6(14)2(3)8(13)16/h14H,(H2,12,15)(H2,13,16)
Instrument: Orbitrap Exploris 240 Thermo Scientific
Instrument type: LC-ESI-QFT
Ms type: MS2
Ion mode: POSITIVE
Ionization: ESI
Fragmentation mode: HCD
Collision energy: 30 % (nominal)
Resolution: 15000
Column name: Atlantis C18 3um, 3.0x150mm, Waters
Retention time: 9.698 min
Base peak: 132.9582
Precursor m/z: 282.9439
Precursor type: [M+H]+
Precursor intensity: 38424076
m/z	relative intensity	assigned
222.9121	6	C7H2Cl3O2+
248.8906	14	C8Cl3O3+
265.9172	999	C8H3Cl3NO3+
266.9012	5	
282.9438	141	C8H6Cl3N2O3+
283.9273	15	
297.9434	11	
