Mass spectrum: Chlorothalonil TP SYN548580; LC-ESI-QFT; MS2; CE: 180%; R=15000; [M+H]+
Name: Chlorothalonil TP SYN548580
Name: 2,4,5-trichloro-6-hydroxyisophthalamide
Formula: C8H5Cl3N2O3
Exact mass: 281.9366
SMILES: NC(=O)c1c(O)c(Cl)c(Cl)c(C(=O)N)c1Cl
InChI: InChI=1S/C8H5Cl3N2O3/c9-3-1(7(12)15)4(10)5(11)6(14)2(3)8(13)16/h14H,(H2,12,15)(H2,13,16)
Instrument: Orbitrap Exploris 240 Thermo Scientific
Instrument type: LC-ESI-QFT
Ms type: MS2
Ion mode: POSITIVE
Ionization: ESI
Fragmentation mode: HCD
Collision energy: 180 % (nominal)
Resolution: 15000
Column name: Atlantis C18 3um, 3.0x150mm, Waters
Retention time: 9.698 min
Base peak: 132.9582
Precursor m/z: 282.9439
Precursor type: [M+H]+
Precursor intensity: 38424076
m/z	relative intensity	assigned
52.0181	26	C3H2N+
61.0072	108	C5H+
61.9793	34	CHClN+
62.0151	48	C5H2+
62.9632	186	CClO+
70.9683	47	C3Cl+
71.9762	291	C3HCl+
72.9839	145	C3H2Cl+
73.9793	16	C2HClN+
75.0104	133	C5HN+
76.0183	53	C5H2N+
77.0021	34	C5HO+
82.9449	380	CHCl2+
83.9762	130	C4HCl+
84.9842	21	C4H2Cl+
85.9792	36	C3HClN+
86.9631	104	C3ClO+
88.9791	19	C3H2ClO+
94.9683	311	C5Cl+
95.9761	682	C5HCl+
96.9838	208	C5H2Cl+
98.9871	50	C4H2ClN+
105.9373	28	C3Cl2+
106.945	999	C3HCl2+
109.9793	98	C5HClN+
110.9631	43	C5ClO+
112.979	19	C5H2ClO+
117.9371	225	C4Cl2+
118.9452	23	C4HCl2+
120.9716	20	C6ClN+
122.9633	31	C6ClO+
123.9711	40	C6HClO+
129.9372	602	C5Cl2+
130.9451	166	C5HCl2+
140.9059	33	C3Cl3+
141.937	158	C6Cl2+
157.9322	18	C6Cl2O+
164.9062	56	C5Cl3+
