Mass spectrum: Chlorothalonil TP SYN548580; LC-ESI-QFT; MS2; CE: 120%; R=15000; [M+H]+
Name: Chlorothalonil TP SYN548580
Name: 2,4,5-trichloro-6-hydroxyisophthalamide
Formula: C8H5Cl3N2O3
Exact mass: 281.9366
SMILES: NC(=O)c1c(O)c(Cl)c(Cl)c(C(=O)N)c1Cl
InChI: InChI=1S/C8H5Cl3N2O3/c9-3-1(7(12)15)4(10)5(11)6(14)2(3)8(13)16/h14H,(H2,12,15)(H2,13,16)
Instrument: Orbitrap Exploris 240 Thermo Scientific
Instrument type: LC-ESI-QFT
Ms type: MS2
Ion mode: POSITIVE
Ionization: ESI
Fragmentation mode: HCD
Collision energy: 120 % (nominal)
Resolution: 15000
Column name: Atlantis C18 3um, 3.0x150mm, Waters
Retention time: 9.698 min
Base peak: 132.9582
Precursor m/z: 282.9439
Precursor type: [M+H]+
Precursor intensity: 38424076
m/z	relative intensity	assigned
61.9793	12	CHClN+
62.9632	79	CClO+
72.9839	66	C3H2Cl+
73.9792	23	C2HClN+
82.945	264	CHCl2+
84.984	14	C4H2Cl+
86.9632	29	C3ClO+
95.976	82	C5HCl+
96.9839	26	C5H2Cl+
98.987	24	C4H2ClN+
106.945	999	C3HCl2+
109.9794	108	C5HClN+
110.9633	27	C5ClO+
111.9949	29	C5H3ClN+
117.937	102	C4Cl2+
118.945	47	C4HCl2+
122.9631	19	C6ClO+
122.9872	33	C6H2ClN+
123.9708	65	C6HClO+
129.9371	174	C5Cl2+
130.945	437	C5HCl2+
131.9525	14	C5H2Cl2+
140.9058	61	C3Cl3+
140.9736	24	C6H2ClO2+
141.9372	160	C6Cl2+
145.9558	44	C5H2Cl2N+
146.9397	24	C5HCl2O+
152.9059	132	C4Cl3+
157.932	226	C6Cl2O+
158.9398	61	C6HCl2O+
159.9475	25	C6H2Cl2O+
164.906	674	C5Cl3+
166.9216	305	C5H2Cl3+
176.9065	51	C6Cl3+
180.9007	20	C5Cl3O+
192.9008	52	C6Cl3O+
204.9023	35	C7Cl3O+
