Mass spectrum: O-Des[2-aminoethyl]-O-carboxymethyl dehydroamlodipine; LC-ESI-QFT; MS2; CE: 75%; R=15000; [M+H]+
Name: O-Des[2-aminoethyl]-O-carboxymethyl dehydroamlodipine
Name: 2-((4-(2-Chlorophenyl)-3-ethoxycarbonyl-5-methoxycarbonyl-6-methyl-2-pyridyl)methoxy)acetic acid
Name: 2-[[4-(2-chlorophenyl)-3-ethoxycarbonyl-5-methoxycarbonyl-6-methylpyridin-2-yl]methoxy]acetic acid
Formula: C20H20ClNO7
Exact mass: 421.0928
SMILES: CCOC(=O)C1=C(C(=C(N=C1COCC(=O)O)C)C(=O)OC)C2=CC=CC=C2Cl
InChI: InChI=1S/C20H20ClNO7/c1-4-29-20(26)18-14(9-28-10-15(23)24)22-11(2)16(19(25)27-3)17(18)12-7-5-6-8-13(12)21/h5-8H,4,9-10H2,1-3H3,(H,23,24)
Instrument: Orbitrap Exploris 240 Thermo Scientific
Instrument type: LC-ESI-QFT
Ms type: MS2
Ion mode: POSITIVE
Ionization: ESI
Fragmentation mode: HCD
Collision energy: 75 % (nominal)
Resolution: 15000
Column name: Atlantis C18 3um, 3.0x150mm, Waters
Retention time: 18.434 min
Base peak: 422.0997
Precursor m/z: 422.1001
Precursor type: [M+H]+
Precursor intensity: 667762176
m/z	relative intensity	assigned
139.0542	18	C11H7+
161.0149	13	C10H6Cl+
167.0729	101	C12H9N+
168.0568	18	C12H8O+
175.0307	32	C11H8Cl+
177.0568	7	C13H7N+
178.0648	7	C13H8N+
187.0313	14	C12H8Cl+
189.0074	27	C9H3NO4+
194.0599	32	C13H8NO+
195.0454	10	C10H10ClNO+
195.0677	39	C13H9NO+
200.0264	33	C12H7ClN+
201.0105	28	C12H6ClO+
202.0411	8	C15H6O+
207.0674	17	C14H9NO+
213.0098	12	C13H6ClO+
214.005	28	C15H2O2+
215.0264	14	C13H8ClO+
222.0548	39	C14H8NO2+
223.0634	23	C14H9NO2+
228.0217	51	C13H7ClNO+
229.0041	15	C13H6ClO2+
229.0294	53	C13H8ClNO+
230.0367	747	C13H9ClNO+
231.0199	6	C13H8ClO2+
232.0167	8	C12H7ClNO2+
242.0366	18	C14H9ClNO+
258.0316	999	C14H9ClNO2+
271.0399	11	C15H10ClNO2+
286.027	64	C15H9ClNO3+
