Mass spectrum: Propyphenazone; LC-ESI-QFT; MS2; CE: 45%; R=15000; [M+H]+
Name: Propyphenazone
Name: 1,5-dimethyl-2-phenyl-4-propan-2-ylpyrazol-3-one
Formula: C14H18N2O
Exact mass: 230.1419
SMILES: CC1=C(C(=O)N(N1C)C2=CC=CC=C2)C(C)C
InChI: InChI=1S/C14H18N2O/c1-10(2)13-11(3)15(4)16(14(13)17)12-8-6-5-7-9-12/h5-10H,1-4H3
Instrument: Orbitrap Exploris 240 Thermo Scientific
Instrument type: LC-ESI-QFT
Ms type: MS2
Ion mode: POSITIVE
Ionization: ESI
Fragmentation mode: HCD
Collision energy: 45 % (nominal)
Resolution: 15000
Column name: Atlantis C18 3um, 3.0x150mm, Waters
Retention time: 17.440 min
Base peak: 231.149
Precursor m/z: 231.1492
Precursor type: [M+H]+
Precursor intensity: 2162391296
m/z	relative intensity	assigned
56.0495	56	C3H6N+
112.1122	18	C7H14N+
120.0802	4	C8H10N+
146.0963	6	C10H12N+
172.1129	5	C12H14N+
189.1023	161	C11H13N2O+
201.102	23	C12H13N2O+
203.1546	6	C13H19N2+
216.126	14	C13H16N2O+
231.1492	999	C14H19N2O+
