Mass spectrum: 2,5-Dichlorobenzenesulfonic Acid; LC-ESI-QFT; MS2; CE: 150%; R=15000; [M-H]-
Name: 2,5-Dichlorobenzenesulfonic Acid
Formula: C6H4Cl2O3S
Exact mass: 225.9258
SMILES: C1=CC(=C(C=C1Cl)S(=O)(=O)O)Cl
InChI: InChI=1S/C6H4Cl2O3S/c7-4-1-2-5(8)6(3-4)12(9,10)11/h1-3H,(H,9,10,11)
Instrument: Orbitrap Exploris 240 Thermo Scientific
Instrument type: LC-ESI-QFT
Ms type: MS2
Ion mode: NEGATIVE
Ionization: ESI
Fragmentation mode: HCD
Collision energy: 150 % (nominal)
Resolution: 15000
Column name: Atlantis C18 3um, 3.0x150mm, Waters
Retention time: 16.752 min
Base peak: 224.9186
Precursor m/z: 224.9185
Precursor type: [M-H]-
Precursor intensity: 186077424
m/z	relative intensity	assigned
61.0086	34	C5H-
79.9574	999	O3S-
80.9653	19	HO3S-
