Mass spectrum: Triisopropanolamine borate; LC-ESI-QFT; MS2; CE: 75%; R=15000; [M+H]+
Name: Triisopropanolamine borate
Name: 3,7,10-trimethyl-2,8,9-trioxa-5-aza-1-borabicyclo[3.3.3]undecane
Formula: C9H18BNO3
Exact mass: 199.1380
SMILES: B12OC(CN(CC(O1)C)CC(O2)C)C
InChI: InChI=1S/C9H18BNO3/c1-7-4-11-5-8(2)13-10(12-7)14-9(3)6-11/h7-9H,4-6H2,1-3H3
Instrument: Orbitrap Exploris 240 Thermo Scientific
Instrument type: LC-ESI-QFT
Ms type: MS2
Ion mode: POSITIVE
Ionization: ESI
Fragmentation mode: HCD
Collision energy: 75 % (nominal)
Resolution: 15000
Column name: Atlantis C18 3um, 3.0x150mm, Waters
Retention time: 8.524 min
Base peak: 200.145
Precursor m/z: 200.1453
Precursor type: [M+H]+
Precursor intensity: 514897152
m/z	relative intensity	assigned
55.0542	79	C4H7+
56.0495	174	C3H6N+
58.0651	67	C3H8N+
59.0491	265	C3H7O+
69.0697	20	C5H9+
70.0651	122	C4H8N+
79.0543	30	C6H7+
81.0698	88	C6H9+
84.0614	19	C3H7BNO+
96.0809	21	C6H10N+
98.0964	999	C6H12N+
100.0564	93	C3H7BNO2+
102.0723	15	C3H9BNO2+
103.056	23	C3H8BO3+
112.0566	24	C4H7BNO2+
114.0721	98	C4H9BNO2+
124.0927	25	C6H11BNO+
126.0721	35	C5H9BNO2+
128.0873	10	C5H11BNO2+
140.0875	234	C6H11BNO2+
141.0955	11	C6H12BNO2+
142.1033	752	C6H13BNO2+
182.1347	223	C9H17BNO2+
200.1448	20	C9H19BNO3+
