Mass spectrum: O-Des[2-aminoethyl]-O-carboxymethyl dehydroamlodipine; LC-ESI-QFT; MS2; CE: 45%; R=15000; [M+H]+
Name: O-Des[2-aminoethyl]-O-carboxymethyl dehydroamlodipine
Name: 2-((4-(2-Chlorophenyl)-3-ethoxycarbonyl-5-methoxycarbonyl-6-methyl-2-pyridyl)methoxy)acetic acid
Name: 2-[[4-(2-chlorophenyl)-3-ethoxycarbonyl-5-methoxycarbonyl-6-methylpyridin-2-yl]methoxy]acetic acid
Formula: C20H20ClNO7
Exact mass: 421.0928
SMILES: CCOC(=O)C1=C(C(=C(N=C1COCC(=O)O)C)C(=O)OC)C2=CC=CC=C2Cl
InChI: InChI=1S/C20H20ClNO7/c1-4-29-20(26)18-14(9-28-10-15(23)24)22-11(2)16(19(25)27-3)17(18)12-7-5-6-8-13(12)21/h5-8H,4,9-10H2,1-3H3,(H,23,24)
Instrument: Orbitrap Exploris 240 Thermo Scientific
Instrument type: LC-ESI-QFT
Ms type: MS2
Ion mode: POSITIVE
Ionization: ESI
Fragmentation mode: HCD
Collision energy: 45 % (nominal)
Resolution: 15000
Column name: Atlantis C18 3um, 3.0x150mm, Waters
Retention time: 18.434 min
Base peak: 422.0997
Precursor m/z: 422.1001
Precursor type: [M+H]+
Precursor intensity: 667762176
m/z	relative intensity	assigned
230.0364	5	C16H6O2+
258.0316	174	C14H9ClNO2+
286.0264	999	C15H9ClNO3+
287.0293	5	C12H12ClO6+
290.0596	2	C15H13ClNO3+
314.0572	5	C20H10O4+
318.0531	50	C16H13ClNO4+
