Mass spectrum: Triisopropanolamine borate; LC-ESI-QFT; MS2; CE: 150%; R=15000; [M+H]+
Name: Triisopropanolamine borate
Name: 3,7,10-trimethyl-2,8,9-trioxa-5-aza-1-borabicyclo[3.3.3]undecane
Formula: C9H18BNO3
Exact mass: 199.1380
SMILES: B12OC(CN(CC(O1)C)CC(O2)C)C
InChI: InChI=1S/C9H18BNO3/c1-7-4-11-5-8(2)13-10(12-7)14-9(3)6-11/h7-9H,4-6H2,1-3H3
Instrument: Orbitrap Exploris 240 Thermo Scientific
Instrument type: LC-ESI-QFT
Ms type: MS2
Ion mode: POSITIVE
Ionization: ESI
Fragmentation mode: HCD
Collision energy: 150 % (nominal)
Resolution: 15000
Column name: Atlantis C18 3um, 3.0x150mm, Waters
Retention time: 8.524 min
Base peak: 200.145
Precursor m/z: 200.1453
Precursor type: [M+H]+
Precursor intensity: 514897152
m/z	relative intensity	assigned
45.0142	160	BH2O2+
54.0338	273	C3H4N+
55.0542	154	C4H7+
56.0495	999	C3H6N+
58.0651	283	C3H8N+
59.0491	731	C3H7O+
68.0495	497	C4H6N+
70.0652	225	C4H8N+
79.054	138	C6H7+
82.0651	140	C5H8N+
100.0561	123	C3H7BNO2+
