Mass spectrum: Xipamide; LC-ESI-QFT; MS2; CE: 180%; R=15000; [M+H]+
Name: Xipamide
Name: 4-chloro-N-(2,6-dimethylphenyl)-2-hydroxy-5-sulfamoylbenzamide
Formula: C15H15ClN2O4S
Exact mass: 354.0441
SMILES: CC1=C(C(=CC=C1)C)NC(=O)C2=CC(=C(C=C2O)Cl)S(=O)(=O)N
InChI: InChI=1S/C15H15ClN2O4S/c1-8-4-3-5-9(2)14(8)18-15(20)10-6-13(23(17,21)22)11(16)7-12(10)19/h3-7,19H,1-2H3,(H,18,20)(H2,17,21,22)
Instrument: Orbitrap Exploris 240 Thermo Scientific
Instrument type: LC-ESI-QFT
Ms type: MS2
Ion mode: POSITIVE
Ionization: ESI
Fragmentation mode: HCD
Collision energy: 180 % (nominal)
Resolution: 15000
Column name: Atlantis C18 3um, 3.0x150mm, Waters
Retention time: 17.870 min
Base peak: 355.0511
Precursor m/z: 355.0514
Precursor type: [M+H]+
Precursor intensity: 107967024
m/z	relative intensity	assigned
50.015	35	C4H2+
51.0229	109	C4H3+
52.018	14	C3H2N+
52.0307	15	C4H4+
53.0021	258	C3HO+
53.0386	29	C4H5+
54.0338	8	C3H4N+
61.0072	27	C5H+
62.015	198	C5H2+
62.9631	21	CClO+
63.0228	330	C5H3+
65.0385	28	C5H5+
67.0417	16	C4H5N+
72.984	82	C3H2Cl+
77.0385	161	C6H5+
78.0339	13	C5H4N+
78.0462	8	C6H6+
79.0178	43	C5H3O+
79.0542	167	C6H7+
80.0493	37	C5H6N+
84.9839	16	C4H2Cl+
89.0021	23	C6HO+
89.0384	85	C7H5+
90.01	75	C6H2O+
90.0463	19	C7H6+
91.018	11	C6H3O+
91.0541	24	C7H7+
94.0413	16	C6H6O+
95.0491	65	C6H7O+
95.9759	14	C5HCl+
96.984	69	C5H2Cl+
103.0543	15	C8H7+
105.0447	61	C6H5N2+
106.0651	999	C7H8N+
107.0729	99	C7H9N+
120.0804	9	C8H10N+
123.9715	9	C6HClO+
125.9865	19	C6H3ClO+
