Mass spectrum: Propyphenazone; LC-ESI-QFT; MS2; CE: 120%; R=15000; [M+H]+
Name: Propyphenazone
Name: 1,5-dimethyl-2-phenyl-4-propan-2-ylpyrazol-3-one
Formula: C14H18N2O
Exact mass: 230.1419
SMILES: CC1=C(C(=O)N(N1C)C2=CC=CC=C2)C(C)C
InChI: InChI=1S/C14H18N2O/c1-10(2)13-11(3)15(4)16(14(13)17)12-8-6-5-7-9-12/h5-10H,1-4H3
Instrument: Orbitrap Exploris 240 Thermo Scientific
Instrument type: LC-ESI-QFT
Ms type: MS2
Ion mode: POSITIVE
Ionization: ESI
Fragmentation mode: HCD
Collision energy: 120 % (nominal)
Resolution: 15000
Column name: Atlantis C18 3um, 3.0x150mm, Waters
Retention time: 17.440 min
Base peak: 231.149
Precursor m/z: 231.1492
Precursor type: [M+H]+
Precursor intensity: 2162391296
m/z	relative intensity	assigned
51.0229	29	C4H3+
53.0386	42	C4H5+
55.0542	36	C4H7+
56.0495	999	C3H6N+
58.0651	27	C3H8N+
65.0385	67	C5H5+
68.0494	18	C4H6N+
77.0386	257	C6H5+
79.0544	29	C6H7+
80.0495	26	C5H6N+
81.0572	16	C5H7N+
82.0651	153	C5H8N+
91.054	28	C7H7+
92.0495	63	C6H6N+
94.065	72	C6H8N+
95.0492	52	C6H7O+
95.0728	20	C6H9N+
96.0809	71	C6H10N+
103.0543	15	C8H7+
104.0494	41	C7H6N+
105.0445	85	C6H5N2+
115.0544	39	C9H7+
117.0569	20	C8H7N+
118.065	59	C8H8N+
120.0807	13	C8H10N+
130.0653	46	C9H8N+
143.0732	22	C10H9N+
