Mass spectrum: Propyphenazone; LC-ESI-QFT; MS2; CE: 60%; R=15000; [M+H]+
Name: Propyphenazone
Name: 1,5-dimethyl-2-phenyl-4-propan-2-ylpyrazol-3-one
Formula: C14H18N2O
Exact mass: 230.1419
SMILES: CC1=C(C(=O)N(N1C)C2=CC=CC=C2)C(C)C
InChI: InChI=1S/C14H18N2O/c1-10(2)13-11(3)15(4)16(14(13)17)12-8-6-5-7-9-12/h5-10H,1-4H3
Instrument: Orbitrap Exploris 240 Thermo Scientific
Instrument type: LC-ESI-QFT
Ms type: MS2
Ion mode: POSITIVE
Ionization: ESI
Fragmentation mode: HCD
Collision energy: 60 % (nominal)
Resolution: 15000
Column name: Atlantis C18 3um, 3.0x150mm, Waters
Retention time: 17.440 min
Base peak: 231.149
Precursor m/z: 231.1492
Precursor type: [M+H]+
Precursor intensity: 2162391296
m/z	relative intensity	assigned
55.0543	14	C4H7+
56.0494	654	C3H6N+
58.0651	38	C3H8N+
79.0543	11	C6H7+
81.0701	13	C6H9+
82.065	18	C5H8N+
92.0497	14	C6H6N+
95.0729	26	C6H9N+
96.0807	35	C6H10N+
98.0598	19	C5H8NO+
104.0494	22	C7H6N+
110.0966	43	C7H12N+
112.112	132	C7H14N+
118.065	39	C8H8N+
120.0439	30	C7H6NO+
120.0807	74	C8H10N+
124.0755	57	C7H10NO+
130.0654	14	C9H8N+
131.0729	41	C9H9N+
132.0804	19	C9H10N+
138.0909	23	C8H12NO+
144.0807	56	C10H10N+
146.0833	31	C9H10N2+
146.0964	82	C10H12N+
161.1071	39	C10H13N2+
172.0752	12	C11H10NO+
189.1022	668	C11H13N2O+
201.1023	218	C12H13N2O+
216.1262	22	C13H16N2O+
231.149	999	C14H19N2O+
