Mass spectrum: Xipamide; LC-ESI-QFT; MS2; CE: 60%; R=15000; [M+H]+
Name: Xipamide
Name: 4-chloro-N-(2,6-dimethylphenyl)-2-hydroxy-5-sulfamoylbenzamide
Formula: C15H15ClN2O4S
Exact mass: 354.0441
SMILES: CC1=C(C(=CC=C1)C)NC(=O)C2=CC(=C(C=C2O)Cl)S(=O)(=O)N
InChI: InChI=1S/C15H15ClN2O4S/c1-8-4-3-5-9(2)14(8)18-15(20)10-6-13(23(17,21)22)11(16)7-12(10)19/h3-7,19H,1-2H3,(H,18,20)(H2,17,21,22)
Instrument: Orbitrap Exploris 240 Thermo Scientific
Instrument type: LC-ESI-QFT
Ms type: MS2
Ion mode: POSITIVE
Ionization: ESI
Fragmentation mode: HCD
Collision energy: 60 % (nominal)
Resolution: 15000
Column name: Atlantis C18 3um, 3.0x150mm, Waters
Retention time: 17.870 min
Base peak: 355.0511
Precursor m/z: 355.0514
Precursor type: [M+H]+
Precursor intensity: 107967024
m/z	relative intensity	assigned
79.0542	8	C6H7+
103.0544	3	C8H7+
105.0698	79	C8H9+
106.0651	12	C7H8N+
107.0729	427	C7H9N+
120.0805	11	C8H10N+
121.065	4	
121.0886	154	C8H11N+
122.0964	999	C8H12N+
131.073	4	C9H9N+
132.0806	8	C9H10N+
134.0233	4	C7H4NO2+
135.0315	34	C7H5NO2+
142.9897	8	C6H4ClO2+
152.9735	18	C7H2ClO2+
153.982	15	C7H3ClO2+
168.9689	11	C7H2ClO3+
182.0966	20	C13H12N+
186.979	6	C7H4ClO4+
190.9562	6	C6H4ClO3S+
197.9859	19	C4H7ClN2O3S+
210.0914	33	C14H12NO+
211.0994	7	C14H13NO+
218.073	5	C13H13ClN+
228.0567	6	C9H12N2O3S+
233.9622	278	C7H5ClNO4S+
234.0306	61	C15H6O3+
239.094	9	C15H13NO2+
254.082	14	C12H15ClN2O2+
255.089	10	C15H13NO3+
259.0379	18	C14H10ClNO2+
272.0473	9	C15H11ClNO2+
274.0637	5	C15H13ClNO2+
