Mass spectrum: 5-Methoxy-2H-benzotriazole; LC-ESI-QFT; MS2; CE: 180%; R=15000; [M-H]-
Name: 5-Methoxy-2H-benzotriazole
Name: 5-Methoxy-1H-benzotriazole
Formula: C7H7N3O
Exact mass: 149.0589
SMILES: COC1=CC2=NNN=C2C=C1
InChI: InChI=1S/C7H7N3O/c1-11-5-2-3-6-7(4-5)9-10-8-6/h2-4H,1H3,(H,8,9,10)
Instrument: Orbitrap Exploris 240 Thermo Scientific
Instrument type: LC-ESI-QFT
Ms type: MS2
Ion mode: NEGATIVE
Ionization: ESI
Fragmentation mode: HCD
Collision energy: 180 % (nominal)
Resolution: 15000
Column name: Atlantis C18 3um, 3.0x150mm, Waters
Retention time: 14.525 min
Base peak: 148.0517
Precursor m/z: 148.0516
Precursor type: [M-H]-
Precursor intensity: 29982336
m/z	relative intensity	assigned
50.0036	999	C3N-
51.0114	128	C3HN-
63.0116	299	C4HN-
65.9987	201	C3NO-
79.0067	176	C4HNO-
