Mass spectrum: Triisopropanolamine borate; LC-ESI-QFT; MS2; CE: 30%; R=15000; [M+H]+
Name: Triisopropanolamine borate
Name: 3,7,10-trimethyl-2,8,9-trioxa-5-aza-1-borabicyclo[3.3.3]undecane
Formula: C9H18BNO3
Exact mass: 199.1380
SMILES: B12OC(CN(CC(O1)C)CC(O2)C)C
InChI: InChI=1S/C9H18BNO3/c1-7-4-11-5-8(2)13-10(12-7)14-9(3)6-11/h7-9H,4-6H2,1-3H3
Instrument: Orbitrap Exploris 240 Thermo Scientific
Instrument type: LC-ESI-QFT
Ms type: MS2
Ion mode: POSITIVE
Ionization: ESI
Fragmentation mode: HCD
Collision energy: 30 % (nominal)
Resolution: 15000
Column name: Atlantis C18 3um, 3.0x150mm, Waters
Retention time: 8.524 min
Base peak: 200.145
Precursor m/z: 200.1453
Precursor type: [M+H]+
Precursor intensity: 514897152
m/z	relative intensity	assigned
59.0491	2	C3H7O+
98.0964	8	C6H12N+
140.0876	9	C6H11BNO2+
142.1033	100	C6H13BNO2+
156.1387	3	C9H18NO+
182.1345	332	C9H17BNO2+
200.1451	999	C9H19BNO3+
