Mass spectrum: Xipamide; LC-ESI-QFT; MS2; CE: 30%; R=15000; [M+H]+
Name: Xipamide
Name: 4-chloro-N-(2,6-dimethylphenyl)-2-hydroxy-5-sulfamoylbenzamide
Formula: C15H15ClN2O4S
Exact mass: 354.0441
SMILES: CC1=C(C(=CC=C1)C)NC(=O)C2=CC(=C(C=C2O)Cl)S(=O)(=O)N
InChI: InChI=1S/C15H15ClN2O4S/c1-8-4-3-5-9(2)14(8)18-15(20)10-6-13(23(17,21)22)11(16)7-12(10)19/h3-7,19H,1-2H3,(H,18,20)(H2,17,21,22)
Instrument: Orbitrap Exploris 240 Thermo Scientific
Instrument type: LC-ESI-QFT
Ms type: MS2
Ion mode: POSITIVE
Ionization: ESI
Fragmentation mode: HCD
Collision energy: 30 % (nominal)
Resolution: 15000
Column name: Atlantis C18 3um, 3.0x150mm, Waters
Retention time: 17.870 min
Base peak: 355.0511
Precursor m/z: 355.0514
Precursor type: [M+H]+
Precursor intensity: 107967024
m/z	relative intensity	assigned
105.0695	6	H13N2O2S+
121.0886	25	C8H11N+
122.0964	297	C8H12N+
148.0753	3	C9H10NO+
190.9561	7	C6H4ClO3S+
207.9832	5	C6H7ClNO3S+
210.091	7	C14H12NO+
233.963	30	C7H5ClNO4S+
234.0311	40	C15H6O3+
239.0945	8	C12H16ClN2O+
246.0671	27	C9H14N2O4S+
254.0816	21	C12H15ClN2O2+
272.0474	7	C15H11ClNO2+
274.0629	258	C15H13ClNO2+
290.0578	204	C15H13ClNO3+
337.039	14	C15H14ClN2O3S+
338.0249	114	C15H13ClNO4S+
355.0512	999	C15H16ClN2O4S+
356.0521	4	
