Mass spectrum: Methyldiphenylphosphine oxide; LC-ESI-QFT; MS2; CE: 120%; R=15000; [M+H]+
Name: Methyldiphenylphosphine oxide
Name: [methyl(phenyl)phosphoryl]benzene
Formula: C13H13OP
Exact mass: 216.0704
SMILES: CP(=O)(C1=CC=CC=C1)C2=CC=CC=C2
InChI: InChI=1S/C13H13OP/c1-15(14,12-8-4-2-5-9-12)13-10-6-3-7-11-13/h2-11H,1H3
Instrument: Orbitrap Exploris 240 Thermo Scientific
Instrument type: LC-ESI-QFT
Ms type: MS2
Ion mode: POSITIVE
Ionization: ESI
Fragmentation mode: HCD
Collision energy: 120 % (nominal)
Resolution: 15000
Column name: Atlantis C18 3um, 3.0x150mm, Waters
Retention time: 16.297 min
Base peak: 217.0773
Precursor m/z: 217.0777
Precursor type: [M+H]+
Precursor intensity: 1198465536
m/z	relative intensity	assigned
51.0229	130	C4H3+
53.0386	92	C4H5+
65.0385	31	C5H5+
77.0385	999	C6H5+
78.0462	15	C6H6+
83.0046	13	C4H4P+
91.0541	216	C7H7+
92.062	16	C7H8+
94.0413	72	C6H6O+
95.0045	55	C5H4P+
95.0491	368	C6H7O+
105.0446	345	
109.0201	271	C6H6P+
111.0357	75	C6H8P+
121.02	140	C7H6P+
125.0153	38	C6H6OP+
137.0152	25	C7H6OP+
139.0306	165	C7H8OP+
157.0411	130	
171.0572	12	
