Mass spectrum: Methyldiphenylphosphine oxide; LC-ESI-QFT; MS2; CE: 180%; R=15000; [M+H]+
Name: Methyldiphenylphosphine oxide
Name: [methyl(phenyl)phosphoryl]benzene
Formula: C13H13OP
Exact mass: 216.0704
SMILES: CP(=O)(C1=CC=CC=C1)C2=CC=CC=C2
InChI: InChI=1S/C13H13OP/c1-15(14,12-8-4-2-5-9-12)13-10-6-3-7-11-13/h2-11H,1H3
Instrument: Orbitrap Exploris 240 Thermo Scientific
Instrument type: LC-ESI-QFT
Ms type: MS2
Ion mode: POSITIVE
Ionization: ESI
Fragmentation mode: HCD
Collision energy: 180 % (nominal)
Resolution: 15000
Column name: Atlantis C18 3um, 3.0x150mm, Waters
Retention time: 16.297 min
Base peak: 217.0773
Precursor m/z: 217.0777
Precursor type: [M+H]+
Precursor intensity: 1198465536
m/z	relative intensity	assigned
50.0151	105	C4H2+
51.0229	999	C4H3+
53.0385	57	C4H5+
56.9889	28	C2H2P+
59.0489	16	C3H7O+
65.0385	120	C5H5+
68.9889	27	C3H2P+
77.0385	607	C6H5+
78.0463	38	C6H6+
83.0045	23	C4H4P+
91.0542	124	C7H7+
94.0412	53	C6H6O+
95.0044	29	C5H4P+
95.049	186	C6H7O+
101.0152	21	C4H6OP+
105.0446	180	
