Mass spectrum: O-Des[2-aminoethyl]-O-carboxymethyl dehydroamlodipine; LC-ESI-QFT; MS2; CE: 90%; R=15000; [M+H]+
Name: O-Des[2-aminoethyl]-O-carboxymethyl dehydroamlodipine
Name: 2-((4-(2-Chlorophenyl)-3-ethoxycarbonyl-5-methoxycarbonyl-6-methyl-2-pyridyl)methoxy)acetic acid
Name: 2-[[4-(2-chlorophenyl)-3-ethoxycarbonyl-5-methoxycarbonyl-6-methylpyridin-2-yl]methoxy]acetic acid
Formula: C20H20ClNO7
Exact mass: 421.0928
SMILES: CCOC(=O)C1=C(C(=C(N=C1COCC(=O)O)C)C(=O)OC)C2=CC=CC=C2Cl
InChI: InChI=1S/C20H20ClNO7/c1-4-29-20(26)18-14(9-28-10-15(23)24)22-11(2)16(19(25)27-3)17(18)12-7-5-6-8-13(12)21/h5-8H,4,9-10H2,1-3H3,(H,23,24)
Instrument: Orbitrap Exploris 240 Thermo Scientific
Instrument type: LC-ESI-QFT
Ms type: MS2
Ion mode: POSITIVE
Ionization: ESI
Fragmentation mode: HCD
Collision energy: 90 % (nominal)
Resolution: 15000
Column name: Atlantis C18 3um, 3.0x150mm, Waters
Retention time: 18.434 min
Base peak: 422.0997
Precursor m/z: 422.1001
Precursor type: [M+H]+
Precursor intensity: 667762176
m/z	relative intensity	assigned
115.0539	11	C9H7+
126.0464	89	C10H6+
139.0544	136	C11H7+
140.0495	36	C10H6N+
140.0624	36	C11H8+
149.015	50	C9H6Cl+
150.0463	13	C12H6+
152.0621	127	C12H8+
161.0146	70	C10H6Cl+
162.0236	11	C10H7Cl+
165.0564	9	C6H12ClNO2+
166.065	135	C12H8N+
167.0502	26	C9H10ClN+
167.0729	408	C12H9N+
168.0569	97	C12H8O+
173.0154	74	C11H6Cl+
175.0309	164	C11H8Cl+
177.0576	43	C13H7N+
178.0654	23	C13H8N+
179.0733	20	C13H9N+
185.0155	21	C12H6Cl+
189.0089	49	C11H6ClO+
189.0225	60	C13H3NO+
193.0531	23	C13H7NO+
194.0599	63	C13H8NO+
195.0445	29	C10H10ClNO+
195.0682	98	C13H9NO+
200.0264	77	C12H7ClN+
201.0102	75	C12H6ClO+
201.0346	27	C12H8ClN+
203.0262	38	C12H8ClO+
214.0052	57	C12H5ClNO+
222.0551	32	C14H8NO2+
223.0388	18	C14H7O3+
223.0638	22	C14H9NO2+
228.021	30	C13H7ClNO+
229.0022	12	C11H3NO5+
229.0291	160	C13H8ClNO+
230.0368	999	C13H9ClNO+
232.0167	27	C12H7ClNO2+
258.0317	411	C14H9ClNO2+
