Mass spectrum: Sulisobenzone; LC-ESI-QFT; MS2; CE: 150%; R=15000; [M+H]+
Name: Sulisobenzone
Name: 5-benzoyl-4-hydroxy-2-methoxybenzenesulfonic acid
Formula: C14H12O6S
Exact mass: 308.0355
SMILES: COC1=C(C=C(C(=C1)O)C(=O)C2=CC=CC=C2)S(=O)(=O)O
InChI: InChI=1S/C14H12O6S/c1-20-12-8-11(15)10(7-13(12)21(17,18)19)14(16)9-5-3-2-4-6-9/h2-8,15H,1H3,(H,17,18,19)
Instrument: Orbitrap Exploris 240 Thermo Scientific
Instrument type: LC-ESI-QFT
Ms type: MS2
Ion mode: POSITIVE
Ionization: ESI
Fragmentation mode: HCD
Collision energy: 150 % (nominal)
Resolution: 15000
Column name: Atlantis C18 3um, 3.0x150mm, Waters
Retention time: 21.459 min
Base peak: 301.141
Precursor m/z: 309.0427
Precursor type: [M+H]+
Precursor intensity: 2643682.25
m/z	relative intensity	assigned
50.0151	170	C4H2+
51.0229	819	C4H3+
53.0022	999	C3HO+
53.0387	77	C4H5+
63.0229	372	C5H3+
64.0307	159	C5H4+
65.0386	558	C5H5+
68.9972	146	C3HO2+
77.0385	296	C6H5+
79.0178	393	C5H3O+
91.0179	54	C6H3O+
92.0257	76	C6H4O+
95.0492	208	C6H7O+
105.0446	245	
