Mass spectrum: Triisopropanolamine borate; LC-ESI-QFT; MS2; CE: 90%; R=15000; [M+H]+
Name: Triisopropanolamine borate
Name: 3,7,10-trimethyl-2,8,9-trioxa-5-aza-1-borabicyclo[3.3.3]undecane
Formula: C9H18BNO3
Exact mass: 199.1380
SMILES: B12OC(CN(CC(O1)C)CC(O2)C)C
InChI: InChI=1S/C9H18BNO3/c1-7-4-11-5-8(2)13-10(12-7)14-9(3)6-11/h7-9H,4-6H2,1-3H3
Instrument: Orbitrap Exploris 240 Thermo Scientific
Instrument type: LC-ESI-QFT
Ms type: MS2
Ion mode: POSITIVE
Ionization: ESI
Fragmentation mode: HCD
Collision energy: 90 % (nominal)
Resolution: 15000
Column name: Atlantis C18 3um, 3.0x150mm, Waters
Retention time: 8.524 min
Base peak: 200.145
Precursor m/z: 200.1453
Precursor type: [M+H]+
Precursor intensity: 514897152
m/z	relative intensity	assigned
45.0142	19	BH2O2+
55.0542	84	C4H7+
56.0495	364	C3H6N+
58.065	113	C3H8N+
59.0491	418	C3H7O+
68.0496	30	C4H6N+
69.0698	36	C5H9+
70.0651	226	C4H8N+
79.0542	59	C6H7+
81.0698	79	C6H9+
84.0613	19	C3H7BNO+
98.0964	999	C6H12N+
100.0564	71	C3H7BNO2+
102.0724	15	C3H9BNO2+
112.0564	41	C4H7BNO2+
114.0719	100	C4H9BNO2+
126.0722	39	C5H9BNO2+
140.0875	184	C6H11BNO2+
142.1032	444	C6H13BNO2+
182.1351	41	C9H17BNO2+
