Mass spectrum: Xipamide; LC-ESI-QFT; MS2; CE: 75%; R=15000; [M+H]+
Name: Xipamide
Name: 4-chloro-N-(2,6-dimethylphenyl)-2-hydroxy-5-sulfamoylbenzamide
Formula: C15H15ClN2O4S
Exact mass: 354.0441
SMILES: CC1=C(C(=CC=C1)C)NC(=O)C2=CC(=C(C=C2O)Cl)S(=O)(=O)N
InChI: InChI=1S/C15H15ClN2O4S/c1-8-4-3-5-9(2)14(8)18-15(20)10-6-13(23(17,21)22)11(16)7-12(10)19/h3-7,19H,1-2H3,(H,18,20)(H2,17,21,22)
Instrument: Orbitrap Exploris 240 Thermo Scientific
Instrument type: LC-ESI-QFT
Ms type: MS2
Ion mode: POSITIVE
Ionization: ESI
Fragmentation mode: HCD
Collision energy: 75 % (nominal)
Resolution: 15000
Column name: Atlantis C18 3um, 3.0x150mm, Waters
Retention time: 17.870 min
Base peak: 355.0511
Precursor m/z: 355.0514
Precursor type: [M+H]+
Precursor intensity: 107967024
m/z	relative intensity	assigned
77.0383	5	C6H5+
79.0543	25	C6H7+
86.9993	6	C4H4Cl+
94.0289	6	C5H4NO+
95.0854	5	C7H11+
96.984	4	C5H2Cl+
98.9992	9	C5H4Cl+
103.0541	15	C8H7+
105.0698	134	C8H9+
106.0286	7	C6H4NO+
106.0651	60	C7H8N+
107.0124	5	
107.0729	999	C7H9N+
112.979	11	C5H2ClO+
114.0103	10	C8H2O+
114.9947	9	C5H4ClO+
117.0573	8	C8H7N+
120.0805	20	C8H10N+
121.0886	148	C8H11N+
122.0964	606	C8H12N+
123.0798	4	H15N2O3S+
124.9788	17	C6H2ClO+
125.9865	8	C6H3ClO+
134.0239	20	C4H7ClN2O+
135.0316	98	C7H5NO2+
140.9739	14	C6H2ClO2+
141.9941	5	C5H3ClN2O+
142.0061	8	ClH11O4S+
142.9894	10	C6H4ClO2+
152.9736	50	C7H2ClO2+
153.9817	65	C7H3ClO2+
167.073	10	C12H9N+
168.9683	6	C7H2ClO3+
170.9844	12	C7H4ClO3+
182.0966	12	C13H12N+
196.0763	5	C7H16O4S+
197.9854	29	C7H4NO4S+
210.0921	12	C11H15ClN2+
233.9622	168	C7H5ClNO4S+
234.0296	25	C15H6O3+
