Mass spectrum: Xipamide; LC-ESI-QFT; MS2; CE: 45%; R=15000; [M+H]+
Name: Xipamide
Name: 4-chloro-N-(2,6-dimethylphenyl)-2-hydroxy-5-sulfamoylbenzamide
Formula: C15H15ClN2O4S
Exact mass: 354.0441
SMILES: CC1=C(C(=CC=C1)C)NC(=O)C2=CC(=C(C=C2O)Cl)S(=O)(=O)N
InChI: InChI=1S/C15H15ClN2O4S/c1-8-4-3-5-9(2)14(8)18-15(20)10-6-13(23(17,21)22)11(16)7-12(10)19/h3-7,19H,1-2H3,(H,18,20)(H2,17,21,22)
Instrument: Orbitrap Exploris 240 Thermo Scientific
Instrument type: LC-ESI-QFT
Ms type: MS2
Ion mode: POSITIVE
Ionization: ESI
Fragmentation mode: HCD
Collision energy: 45 % (nominal)
Resolution: 15000
Column name: Atlantis C18 3um, 3.0x150mm, Waters
Retention time: 17.870 min
Base peak: 355.0511
Precursor m/z: 355.0514
Precursor type: [M+H]+
Precursor intensity: 107967024
m/z	relative intensity	assigned
105.0699	31	C8H9+
107.073	69	C7H9N+
120.0807	4	C8H10N+
121.0649	4	
121.0886	125	C8H11N+
122.0964	999	C8H12N+
123.0803	9	C8H11O+
132.0808	11	C9H10N+
190.9556	17	C6H4ClO3S+
210.0911	42	C14H12NO+
211.0996	9	C11H16ClN2+
218.0729	7	C13H13ClN+
228.0581	12	C14H11ClN+
233.9623	188	C7H5ClNO4S+
234.0312	81	C15H6O3+
238.0855	5	C15H12NO2+
239.0933	23	C15H13NO2+
244.052	6	C14H11ClNO+
246.0679	45	C14H13ClNO+
254.081	43	C15H12NO3+
255.0888	20	C15H13NO3+
256.0533	9	C15H11ClNO+
259.0398	21	C14H10ClNO2+
272.0481	27	C15H11ClNO2+
274.063	125	C15H13ClNO2+
290.0577	78	C15H13ClNO3+
337.0423	14	C15H14ClN2O3S+
338.0251	9	C15H13ClNO4S+
355.0516	50	C15H16ClN2O4S+
