Mass spectrum: Sulisobenzone; LC-ESI-QFT; MS2; CE: 30%; R=15000; [M-H]-
Name: Sulisobenzone
Name: 5-benzoyl-4-hydroxy-2-methoxybenzenesulfonic acid
Formula: C14H12O6S
Exact mass: 308.0355
SMILES: COC1=C(C=C(C(=C1)O)C(=O)C2=CC=CC=C2)S(=O)(=O)O
InChI: InChI=1S/C14H12O6S/c1-20-12-8-11(15)10(7-13(12)21(17,18)19)14(16)9-5-3-2-4-6-9/h2-8,15H,1H3,(H,17,18,19)
Instrument: Orbitrap Exploris 240 Thermo Scientific
Instrument type: LC-ESI-QFT
Ms type: MS2
Ion mode: NEGATIVE
Ionization: ESI
Fragmentation mode: HCD
Collision energy: 30 % (nominal)
Resolution: 15000
Column name: Atlantis C18 3um, 3.0x150mm, Waters
Retention time: 21.732 min
Base peak: 307.0282
Precursor m/z: 307.0282
Precursor type: [M-H]-
Precursor intensity: 30426426
m/z	relative intensity	assigned
79.9571	4	O3S-
210.0317	9	C13H6O3-
307.0284	999	C14H11O6S-
