Mass spectrum: O-Des[2-aminoethyl]-O-carboxymethyl dehydroamlodipine; LC-ESI-QFT; MS2; CE: 60%; R=15000; [M+H]+
Name: O-Des[2-aminoethyl]-O-carboxymethyl dehydroamlodipine
Name: 2-((4-(2-Chlorophenyl)-3-ethoxycarbonyl-5-methoxycarbonyl-6-methyl-2-pyridyl)methoxy)acetic acid
Name: 2-[[4-(2-chlorophenyl)-3-ethoxycarbonyl-5-methoxycarbonyl-6-methylpyridin-2-yl]methoxy]acetic acid
Formula: C20H20ClNO7
Exact mass: 421.0928
SMILES: CCOC(=O)C1=C(C(=C(N=C1COCC(=O)O)C)C(=O)OC)C2=CC=CC=C2Cl
InChI: InChI=1S/C20H20ClNO7/c1-4-29-20(26)18-14(9-28-10-15(23)24)22-11(2)16(19(25)27-3)17(18)12-7-5-6-8-13(12)21/h5-8H,4,9-10H2,1-3H3,(H,23,24)
Instrument: Orbitrap Exploris 240 Thermo Scientific
Instrument type: LC-ESI-QFT
Ms type: MS2
Ion mode: POSITIVE
Ionization: ESI
Fragmentation mode: HCD
Collision energy: 60 % (nominal)
Resolution: 15000
Column name: Atlantis C18 3um, 3.0x150mm, Waters
Retention time: 18.434 min
Base peak: 422.0997
Precursor m/z: 422.1001
Precursor type: [M+H]+
Precursor intensity: 667762176
m/z	relative intensity	assigned
152.062	6	C12H8+
167.0727	7	C12H9N+
187.0301	4	C12H8Cl+
194.0596	6	C13H8NO+
201.0091	6	C12H6ClO+
207.0668	6	C14H9NO+
214.0419	3	C13H9ClN+
215.0248	10	C13H8ClO+
222.055	18	C14H8NO2+
223.0383	11	C14H7O3+
223.0633	8	C14H9NO2+
228.0214	28	C13H7ClNO+
229.0041	12	C13H6ClO2+
229.0294	9	C13H8ClNO+
230.0366	186	C13H9ClNO+
242.0373	21	C14H9ClNO+
254.081	4	C15H12NO3+
258.0316	999	C14H9ClNO2+
271.0386	3	C18H7O3+
286.0266	478	C15H9ClNO3+
290.0587	7	C15H13ClNO3+
