Mass spectrum: Chlorothalonil TP SYN548581; LC-ESI-QFT; MS2; CE: 45%; R=15000; [M-H]-
Name: Chlorothalonil TP SYN548581
Name: 4-carbamoyl-2,3,5-trichloro-6-cyanobenzenesulfonic acid
Formula: C8H3Cl3N2O4S
Exact mass: 327.8879
SMILES: NC(=O)C1=C(Cl)C(Cl)=C(C(C#N)=C1Cl)S(O)(=O)=O
InChI: InChI=1S/C8H3Cl3N2O4S/c9-4-2(1-12)7(18(15,16)17)6(11)5(10)3(4)8(13)14/h(H2,13,14)(H,15,16,17)
Instrument: Orbitrap Exploris 240 Thermo Scientific
Instrument type: LC-ESI-QFT
Ms type: MS2
Ion mode: NEGATIVE
Ionization: ESI
Fragmentation mode: HCD
Collision energy: 45 % (nominal)
Resolution: 15000
Column name: Atlantis C18 3um, 3.0x150mm, Waters
Retention time: 10.493 min
Base peak: 326.8808
Precursor m/z: 326.8806
Precursor type: [M-H]-
Precursor intensity: 53505816
m/z	relative intensity	assigned
114.9262	86	ClO3S-
146.9753	13	C7ClN2-
174.9702	33	C8ClN2O-
183.9362	23	C7Cl2NO-
203.918	628	C7HCl3N-
210.9473	43	C8HCl2N2O-
219.9128	221	C7HCl3NO-
226.9417	10	C8HCl2N2O2-
244.9088	12	C8Cl3N2O-
246.9238	999	C8H2Cl3N2O-
262.9189	388	C8H2Cl3N2O2-
326.8801	140	C8H2Cl3N2O4S-
