Mass spectrum: O-Des[2-aminoethyl]-O-carboxymethyl dehydroamlodipine; LC-ESI-QFT; MS2; CE: 120%; R=15000; [M+H]+
Name: O-Des[2-aminoethyl]-O-carboxymethyl dehydroamlodipine
Name: 2-((4-(2-Chlorophenyl)-3-ethoxycarbonyl-5-methoxycarbonyl-6-methyl-2-pyridyl)methoxy)acetic acid
Name: 2-[[4-(2-chlorophenyl)-3-ethoxycarbonyl-5-methoxycarbonyl-6-methylpyridin-2-yl]methoxy]acetic acid
Formula: C20H20ClNO7
Exact mass: 421.0928
SMILES: CCOC(=O)C1=C(C(=C(N=C1COCC(=O)O)C)C(=O)OC)C2=CC=CC=C2Cl
InChI: InChI=1S/C20H20ClNO7/c1-4-29-20(26)18-14(9-28-10-15(23)24)22-11(2)16(19(25)27-3)17(18)12-7-5-6-8-13(12)21/h5-8H,4,9-10H2,1-3H3,(H,23,24)
Instrument: Orbitrap Exploris 240 Thermo Scientific
Instrument type: LC-ESI-QFT
Ms type: MS2
Ion mode: POSITIVE
Ionization: ESI
Fragmentation mode: HCD
Collision energy: 120 % (nominal)
Resolution: 15000
Column name: Atlantis C18 3um, 3.0x150mm, Waters
Retention time: 18.434 min
Base peak: 422.0997
Precursor m/z: 422.1001
Precursor type: [M+H]+
Precursor intensity: 667762176
m/z	relative intensity	assigned
75.0229	11	C6H3+
99.023	18	C8H3+
113.0385	18	C9H5+
114.0459	18	C9H6+
115.0543	66	C9H7+
125.0387	105	C10H5+
126.0463	591	C10H6+
127.0541	30	C10H7+
138.0463	84	C11H6+
139.0542	999	C11H7+
140.0493	177	C10H6N+
140.0622	315	C11H8+
149.0153	261	C9H6Cl+
150.0333	19	C11H4N+
150.0463	133	C12H6+
151.0416	96	C11H5N+
151.0546	41	C12H7+
152.0621	235	C12H8+
160.007	17	C10H5Cl+
161.0155	83	C10H6Cl+
164.0496	70	C12H6N+
165.057	41	C12H7N+
166.0651	446	C12H8N+
167.0729	443	C12H9N+
168.0576	126	C9H11ClN+
173.0153	208	C11H6Cl+
174.0104	44	C10H5ClN+
175.0312	113	C11H8Cl+
177.0575	84	C13H7N+
185.0158	36	C12H6Cl+
189.0233	67	
194.0596	73	C13H8NO+
195.0676	67	C13H9NO+
200.0264	35	C12H7ClN+
201.0107	20	C12H6ClO+
201.0342	44	C12H8ClN+
202.0187	36	C12H7ClO+
204.0212	21	C11H7ClNO+
214.0061	39	C12H5ClNO+
229.0296	81	C13H8ClNO+
230.0365	108	C13H9ClNO+
