Mass spectrum: 5-Methoxy-2H-benzotriazole; LC-ESI-QFT; MS2; CE: 180%; R=15000; [M+H]+
Name: 5-Methoxy-2H-benzotriazole
Name: 5-methoxy-2H-benzo[d][1,2,3]triazole
Formula: C7H7N3O
Exact mass: 149.0589
SMILES: COC1=CC2=NNN=C2C=C1
InChI: InChI=1S/C7H7N3O/c1-11-5-2-3-6-7(4-5)9-10-8-6/h2-4H,1H3,(H,8,9,10)
Instrument: Orbitrap Exploris 240 Thermo Scientific
Instrument type: LC-ESI-QFT
Ms type: MS2
Ion mode: POSITIVE
Ionization: ESI
Fragmentation mode: HCD
Collision energy: 180 % (nominal)
Resolution: 15000
Column name: Atlantis C18 3um, 3.0x150mm, Waters
Retention time: 14.536 min
Base peak: 150.0662
Precursor m/z: 150.0662
Precursor type: [M+H]+
Precursor intensity: 805775616
m/z	relative intensity	assigned
50.0151	114	C4H2+
51.023	175	C4H3+
52.0183	102	C3H2N+
52.0308	999	C4H4+
53.0021	11	C3HO+
53.0261	62	C3H3N+
53.0387	14	C4H5+
54.0339	57	C3H4N+
62.0153	8	C5H2+
63.0229	69	C5H3+
64.0183	15	C4H2N+
65.0387	56	C5H5+
78.0339	173	C5H4N+
79.018	11	C5H3O+
79.0417	61	C5H5N+
107.0476	37	C5H5N3+
