Mass spectrum: Xipamide; LC-ESI-QFT; MS2; CE: 90%; R=15000; [M+H]+
Name: Xipamide
Name: 4-chloro-N-(2,6-dimethylphenyl)-2-hydroxy-5-sulfamoylbenzamide
Formula: C15H15ClN2O4S
Exact mass: 354.0441
SMILES: CC1=C(C(=CC=C1)C)NC(=O)C2=CC(=C(C=C2O)Cl)S(=O)(=O)N
InChI: InChI=1S/C15H15ClN2O4S/c1-8-4-3-5-9(2)14(8)18-15(20)10-6-13(23(17,21)22)11(16)7-12(10)19/h3-7,19H,1-2H3,(H,18,20)(H2,17,21,22)
Instrument: Orbitrap Exploris 240 Thermo Scientific
Instrument type: LC-ESI-QFT
Ms type: MS2
Ion mode: POSITIVE
Ionization: ESI
Fragmentation mode: HCD
Collision energy: 90 % (nominal)
Resolution: 15000
Column name: Atlantis C18 3um, 3.0x150mm, Waters
Retention time: 17.870 min
Base peak: 355.0511
Precursor m/z: 355.0514
Precursor type: [M+H]+
Precursor intensity: 107967024
m/z	relative intensity	assigned
72.9843	4	C3H2Cl+
77.0387	15	C6H5+
78.0336	6	C5H4N+
79.0178	9	C5H3O+
79.0541	40	C6H7+
86.9993	6	C4H4Cl+
91.0539	5	C7H7+
94.029	8	C5H4NO+
96.9838	17	C5H2Cl+
98.9995	8	C5H4Cl+
103.0541	20	C8H7+
105.0698	98	C8H9+
106.0286	8	
106.0651	175	C7H8N+
107.0129	22	
107.0374	27	
107.0729	999	C7H9N+
112.9791	19	C5H2ClO+
114.0107	13	C5H5ClN+
114.9948	10	C5H4ClO+
117.0573	5	C8H7N+
120.0809	20	C8H10N+
121.0886	78	C8H11N+
122.0964	199	C8H12N+
124.9787	37	C6H2ClO+
125.9869	46	C6H3ClO+
134.0236	14	C7H4NO2+
135.0314	77	C7H5NO2+
140.9737	17	C6H2ClO2+
142.9894	7	C6H4ClO2+
152.9735	46	C7H2ClO2+
152.9858	4	ClH8NO4S+
153.9816	87	C7H3ClO2+
155.9845	5	C6H3ClNO2+
167.0733	8	C12H9N+
168.081	5	C12H10N+
170.9845	12	C7H4ClO3+
192.0815	4	C8H16O3S+
197.9854	9	C7H4NO4S+
233.9621	28	C7H5ClNO4S+
234.0319	3	C12H9ClNO2+
