Mass spectrum: Methyldiphenylphosphine oxide; LC-ESI-QFT; MS2; CE: 75%; R=15000; [M+H]+
Name: Methyldiphenylphosphine oxide
Name: [methyl(phenyl)phosphoryl]benzene
Formula: C13H13OP
Exact mass: 216.0704
SMILES: CP(=O)(C1=CC=CC=C1)C2=CC=CC=C2
InChI: InChI=1S/C13H13OP/c1-15(14,12-8-4-2-5-9-12)13-10-6-3-7-11-13/h2-11H,1H3
Instrument: Orbitrap Exploris 240 Thermo Scientific
Instrument type: LC-ESI-QFT
Ms type: MS2
Ion mode: POSITIVE
Ionization: ESI
Fragmentation mode: HCD
Collision energy: 75 % (nominal)
Resolution: 15000
Column name: Atlantis C18 3um, 3.0x150mm, Waters
Retention time: 16.297 min
Base peak: 217.0773
Precursor m/z: 217.0777
Precursor type: [M+H]+
Precursor intensity: 1198465536
m/z	relative intensity	assigned
53.0384	5	C4H5+
77.0385	59	C6H5+
91.0542	45	C7H7+
94.0411	6	C6H6O+
95.049	65	C6H7O+
105.0446	19	
109.0201	50	C6H6P+
111.0358	51	C6H8P+
121.0201	64	C7H6P+
125.015	5	C6H6OP+
137.0149	24	C7H6OP+
139.0306	999	C7H8OP+
157.0412	770	
171.0569	85	
217.0776	109	C13H14OP+
