Mass spectrum: Metolachlor morpholinone; LC-ESI-ITFT; MS2; CE: 75%; R=7500; [M+H]+
Name: Metolachlor morpholinone
Name: 4-(2-ethyl-6-methylphenyl)-5-methylmorpholin-3-one
Formula: C14H19NO2
Exact mass: 233.1416
SMILES: O=C2N(c1c(cccc1C)CC)C(C)COC2
InChI: InChI=1S/C14H19NO2/c1-4-12-7-5-6-10(2)14(12)15-11(3)8-17-9-13(15)16/h5-7,11H,4,8-9H2,1-3H3
Instrument: LTQ Orbitrap XL Thermo Scientific
Instrument type: LC-ESI-ITFT
Ms type: MS2
Ion mode: POSITIVE
Ionization: ESI
Fragmentation mode: HCD
Collision energy: 75 % (nominal)
Resolution: 7500
Column name: XBridge C18 3.5um, 2.1x50mm, Waters
Retention time: 8.2 min
Base peak: 234.1493
Precursor m/z: 234.1489
Precursor type: [M+H]+
m/z	relative intensity	assigned
70.0651	15	C4H8N+
77.0387	12	C6H5+
79.0541	17	C6H7+
91.0542	152	C7H7+
93.0698	154	C7H9+
99.0678	44	C5H9NO+
103.0542	42	C8H7+
104.0621	8	C8H8+
105.0577	12	C7H7N+
105.0699	128	C8H9+
106.0652	16	C7H8N+
107.0728	14	C7H9N+
108.0803	9	C7H10N+
109.0648	20	C7H9O+
115.0537	10	C9H7+
117.0576	15	C8H7N+
117.0697	64	C9H9+
118.065	192	C8H8N+
119.0494	17	C8H7O+
119.073	147	C8H9N+
119.0855	158	C9H11+
120.0808	999	C8H10N+
130.065	38	C9H8N+
131.0728	51	C9H9N+
131.0853	33	C10H11+
132.0806	138	C9H10N+
133.0522	131	C8H7NO+
133.0886	126	C9H11N+
134.0965	115	C9H12N+
135.1041	56	C9H13N+
143.0733	13	C10H9N+
144.0806	31	C10H10N+
145.0886	27	C10H11N+
146.0595	56	C9H8NO+
146.0964	391	C10H12N+
147.0678	265	C9H9NO+
147.1044	32	C10H13N+
148.0756	333	C9H10NO+
148.112	367	C10H14N+
158.0964	61	C11H12N+
159.1037	19	C11H13N+
160.112	405	C11H14N+
161.0834	28	C10H11NO+
162.0912	71	C10H12NO+
172.1124	12	C12H14N+
174.1278	29	C12H16N+
175.1356	32	C12H17N+
176.107	24	C11H14NO+
176.1433	68	C12H18N+
188.1428	21	C13H18N+
206.1172	93	C12H16NO2+
234.1486	140	C14H20NO2+
