Mass spectrum: Efavirenz; LC-ESI-QFT; MS2; CE: 75; R=35000; [M-H]-
Name: Efavirenz
Name: (4S)-6-chloro-4-(2-cyclopropylethynyl)-4-(trifluoromethyl)-1H-3,1-benzoxazin-2-one
Formula: C14H9ClF3NO2
Exact mass: 315.02739
SMILES: C1CC1C#C[C@]2(C3=C(C=CC(=C3)Cl)NC(=O)O2)C(F)(F)F
InChI: InChI=1S/C14H9ClF3NO2/c15-9-3-4-11-10(7-9)13(14(16,17)18,21-12(20)19-11)6-5-8-1-2-8/h3-4,7-8H,1-2H2,(H,19,20)/t13-/m0/s1
Instrument: Q Exactive Orbitrap Thermo Scientific
Instrument type: LC-ESI-QFT
Ms type: MS2
Ion mode: NEGATIVE
Ionization: ESI
Fragmentation mode: HCD
Collision energy: 75 (nominal)
Resolution: 35000
Column name: XBridge C18 3.5um, 2.1x50mm, Waters
Retention time: 12.9 min
Base peak: 314.0206
Precursor m/z: 314.0201
Precursor type: [M-H]-
m/z	relative intensity	assigned
65.0033	2	C4HO-
65.0397	21	C5H5-
65.9985	2	C3NO-
68.9958	999	CF3-
76.0192	1	C5H2N-
90.0349	3	C6H4N-
91.019	4	C6H3O-
116.0144	5	C7H2NO-
120.9907	4	C4F3O-
138.0349	3	C10H4N-
147.996	1	C8H3ClN-
151.9906	2	C10O2-
152.0506	1	C11H6N-
162.0351	4	C12H4N-
164.0506	3	C12H6N-
166.0298	3	C11H4NO-
174.0114	1	C10H5ClN-
174.0346	4	C13H4N-
179.0374	2	C12H5NO-
180.0455	5	C12H6NO-
198.0119	9	C12H5ClN-
202.0063	1	C11H5ClNO-
206.0225	7	C11H3F3N-
208.0405	6	C13H6NO2-
215.0143	2	C12H6ClNO-
218.0012	1	C11H5ClNO2-
221.9929	12	C11H3ClF2N-
241.9989	1	C11H4ClF3N-
