Mass spectrum: 3,4-Methylenedioxy-N-ethylamphetamine (MDEA); LC-ESI-QFT; MS2; CE: 90; R=35000; [M+H]+
Name: 3,4-Methylenedioxy-N-ethylamphetamine (MDEA)
Name: 3,4-methylenedioxyethamphetamine
Name: 1-(1,3-benzodioxol-5-yl)-N-ethylpropan-2-amine
Formula: C12H17NO2
Exact mass: 207.12593
SMILES: CCNC(C)CC1=CC2=C(C=C1)OCO2
InChI: InChI=1S/C12H17NO2/c1-3-13-9(2)6-10-4-5-11-12(7-10)15-8-14-11/h4-5,7,9,13H,3,6,8H2,1-2H3
Instrument: Q Exactive Plus Orbitrap Thermo Scientific
Instrument type: LC-ESI-QFT
Ms type: MS2
Ion mode: POSITIVE
Ionization: ESI
Fragmentation mode: HCD
Collision energy: 90 (nominal)
Resolution: 35000
Column name: XBridge C18 3.5um, 2.1x50mm, Waters
Retention time: 4.0 min
Base peak: 208.1326
Precursor m/z: 208.1332
Precursor type: [M+H]+
m/z	relative intensity	assigned
50.015	4	C4H2+
53.0385	41	C4H5+
55.0178	59	C3H3O+
65.0385	39	C5H5+
67.0541	2	C5H7+
72.0807	77	C4H10N+
77.0384	131	C6H5+
78.0463	1	C6H6+
79.0541	590	C6H7+
81.0334	4	C5H5O+
89.0383	1	C7H5+
91.0542	14	C7H7+
93.0334	29	C6H5O+
94.0412	2	C6H6O+
95.049	151	C6H7O+
102.0464	1	C8H6+
103.0541	354	C8H7+
104.0619	2	C8H8+
105.0334	50	C7H5O+
105.0447	92	C6H5N2+
105.0698	999	C8H9+
107.0489	5	C7H7O+
111.0439	11	C6H7O2+
115.0541	23	C9H7+
118.0413	1	C8H6O+
121.0283	23	C7H5O2+
122.0361	24	C7H6O2+
131.0493	3	C9H7O+
133.0647	159	C9H9O+
135.0439	585	C8H7O2+
147.0439	11	C9H7O2+
148.0517	13	C9H8O2+
163.0752	7	C10H11O2+
