Mass spectrum: Triphenylphosphine oxide; LC-ESI-QFT; MS2; CE: 150; R=35000; [M+H]+
Name: Triphenylphosphine oxide
Name: Triphenylphosphineoxide
Name: (diphenylphosphoroso)benzene
Formula: C18H15OP
Exact mass: 278.08605
SMILES: C1=CC=C(C=C1)P(=O)(C2=CC=CC=C2)C3=CC=CC=C3
InChI: InChI=1S/C18H15OP/c19-20(16-10-4-1-5-11-16,17-12-6-2-7-13-17)18-14-8-3-9-15-18/h1-15H
Instrument: Q Exactive Plus Orbitrap Thermo Scientific
Instrument type: LC-ESI-QFT
Ms type: MS2
Ion mode: POSITIVE
Ionization: ESI
Fragmentation mode: HCD
Collision energy: 150 (nominal)
Resolution: 35000
Column name: XBridge C18 3.5um, 2.1x50mm, Waters
Retention time: 9.4 min
Base peak: 391.2839
Precursor m/z: 279.0933
Precursor type: [M+H]+
m/z	relative intensity	assigned
50.0151	21	C4H2+
51.023	64	C4H3+
53.0022	80	C3HO+
53.0386	15	C4H5+
53.9975	20	C2NO+
55.0179	1	C3H3O+
55.0542	4	C4H7+
57.0699	3	C4H9+
62.0152	1	C5H2+
63.0229	4	C5H3+
65.0386	999	C5H5+
67.0542	4	C5H7+
68.9888	11	C3H2P+
74.0151	3	C6H2+
75.0229	6	C6H3+
77.0386	21	C6H5+
79.0542	3	C6H7+
83.0492	5	C5H7O+
89.0387	1	C7H5+
91.0543	6	C7H7+
92.0257	1	C6H4O+
93.0335	6	C6H5O+
95.0046	6	C5H4P+
95.0492	31	C6H7O+
103.0542	1	C8H7+
105.0448	24	C6H5N2+
107.0047	5	C6H4P+
111.0441	13	C6H7O2+
115.0542	12	C9H7+
121.0284	7	C7H5O2+
121.0397	22	C6H5N2O+
128.0621	10	C10H8+
133.0204	1	C8H6P+
152.062	12	C12H8+
153.07	3	C12H9+
157.0205	4	C10H6P+
169.0651	1	C12H9O+
170.0282	5	C11H7P+
183.036	1	C12H8P+
