Mass spectrum: Nigericin; LC-ESI-QFT; MS2; CE: 60; R=35000; [M-H]-
Name: Nigericin
Name: 2-{6-[(2-{5`-[6-hydroxy-6-(hydroxymethyl)-3,5-dimethyltetrahydro-2h-pyran-2-yl]-2,3`-dimethyloctahydro-2,2`-bifuran-5-yl}-9-methoxy-2,4,10-trimethyl-1,6-dioxaspiro[4.5]dec-7-yl)methyl]-3-methyltetrahydro-2h-pyran-2-yl}propanoic acid
Name: 2-[6-[[2-[5-[5-[6-hydroxy-6-(hydroxymethyl)-3,5-dimethyloxan-2-yl]-3-methyloxolan-2-yl]-5-methyloxolan-2-yl]-7-methoxy-2,4,6-trimethyl-1,10-dioxaspiro[4.5]decan-9-yl]methyl]-3-methyloxan-2-yl]propanoic acid
Formula: C40H68O11
Exact mass: 724.47616
SMILES: CC1CCC(OC1C(C)C(=O)O)CC2CC(C(C3(O2)C(CC(O3)(C)C4CCC(O4)(C)C5C(CC(O5)C6C(CC(C(O6)(CO)O)C)C)C)C)C)OC
InChI: InChI=1S/C40H68O11/c1-21-11-12-28(46-33(21)26(6)36(42)43)17-29-18-30(45-10)27(7)40(48-29)25(5)19-38(9,51-40)32-13-14-37(8,49-32)35-23(3)16-31(47-35)34-22(2)15-24(4)39(44,20-41)50-34/h21-35,41,44H,11-20H2,1-10H3,(H,42,43)
Instrument: Q Exactive Plus Orbitrap Thermo Scientific
Instrument type: LC-ESI-QFT
Ms type: MS2
Ion mode: NEGATIVE
Ionization: ESI
Fragmentation mode: HCD
Collision energy: 60 (nominal)
Resolution: 35000
Column name: XBridge C18 3.5um, 2.1x50mm, Waters
Retention time: 19.7 min
Base peak: 115.9207
Precursor m/z: 723.4689
Precursor type: [M-H]-
m/z	relative intensity	assigned
55.0189	33	C3H3O-
57.0346	446	C3H5O-
58.006	73	C2H2O2-
59.0138	37	C2H3O2-
69.0346	27	C4H5O-
71.0139	48	C3H3O2-
71.0503	112	C4H7O-
72.0218	11	C3H4O2-
73.0296	120	C3H5O2-
79.0553	2	C6H7-
81.0346	26	C5H5O-
83.0503	42	C5H7O-
84.0217	3	C4H4O2-
85.0295	154	C4H5O2-
85.0659	35	C5H9O-
86.0374	2	C4H6O2-
87.0451	999	C4H7O2-
93.0346	2	C6H5O-
93.071	8	C7H9-
94.0425	2	C6H6O-
95.0502	32	C6H7O-
97.0294	3	C5H5O2-
97.0658	66	C6H9O-
98.0373	4	C5H6O2-
99.0451	123	C5H7O2-
99.0815	31	C6H11O-
101.0608	631	C5H9O2-
105.071	3	C8H9-
107.0502	27	C7H7O-
107.0865	2	C8H11-
109.0658	74	C7H9O-
111.0451	31	C6H7O2-
111.0815	183	C7H11O-
113.0609	29	C6H9O2-
113.0971	17	C7H13O-
115.0764	2	C6H11O2-
120.058	3	C8H8O-
121.0659	41	C8H9O-
123.0453	7	C7H7O2-
123.0816	75	C8H11O-
125.0608	11	C7H9O2-
125.097	45	C8H13O-
127.0763	32	C7H11O2-
129.0558	7	C6H9O3-
129.0922	13	C7H13O2-
133.0659	3	C9H9O-
133.1022	3	C10H13-
135.0816	69	C9H11O-
136.0529	1	C8H8O2-
137.0607	17	C8H9O2-
137.097	23	C9H13O-
138.0684	3	C8H10O2-
139.0764	30	C8H11O2-
139.1127	4	C9H15O-
141.0921	55	C8H13O2-
143.1076	4	C8H15O2-
147.0815	7	C10H11O-
149.0972	36	C10H13O-
151.0765	19	C9H11O2-
151.1129	61	C10H15O-
153.0921	92	C9H13O2-
159.1022	1	C8H15O3-
159.1174	3	C12H15-
161.0969	7	C11H13O-
161.1332	2	C12H17-
163.1128	8	C11H15O-
164.0842	2	C10H12O2-
165.0918	15	C10H13O2-
165.1286	13	C11H17O-
167.1074	2	C10H15O2-
175.1125	14	C12H15O-
177.1283	30	C12H17O-
179.1069	2	C11H15O2-
179.1446	2	C12H19O-
189.1282	1	C13H17O-
191.1439	10	C13H19O-
193.1231	2	C12H17O2-
195.1388	3	C12H19O2-
217.1596	3	C15H21O-
219.1752	3	C15H23O-
