Mass spectrum: Hexazinone; LC-ESI-QFT; MS2; CE: 120; R=35000; [M+H]+
Name: Hexazinone
Name: 3-cyclohexyl-6-(dimethylamino)-1-methyl-1,3,5-triazine-2,4-dione
Formula: C12H20N4O2
Exact mass: 252.15810
SMILES: n1(C2CCCCC2)c(n(c(N(C)C)nc1=O)C)=O
InChI: InChI=1S/C12H20N4O2/c1-14(2)10-13-11(17)16(12(18)15(10)3)9-7-5-4-6-8-9/h9H,4-8H2,1-3H3
Instrument: Q Exactive Plus Orbitrap Thermo Scientific
Instrument type: LC-ESI-QFT
Ms type: MS2
Ion mode: POSITIVE
Ionization: ESI
Fragmentation mode: HCD
Collision energy: 120 (nominal)
Resolution: 35000
Column name: XBridge C18 3.5um, 2.1x50mm, Waters
Retention time: 7.0 min
Base peak: 253.1657
Precursor m/z: 253.1659
Precursor type: [M+H]+
m/z	relative intensity	assigned
53.0022	2	C3HO+
53.0387	3	C4H5+
55.0291	58	C2H3N2+
55.0543	69	C4H7+
56.0131	10	C2H2NO+
56.0369	52	C2H4N2+
56.0495	15	C3H6N+
57.0448	2	C2H5N2+
58.0288	37	C2H4NO+
58.0652	122	C3H8N+
69.0084	35	C2HN2O+
69.0448	87	C3H5N2+
69.9924	28	C2NO2+
70.0526	82	C3H6N2+
71.0604	999	C3H7N2+
72.0444	29	C3H6NO+
83.024	112	C3H3N2O+
85.076	368	C4H9N2+
96.0557	12	C4H6N3+
101.0346	6	C3H5N2O2+
114.0662	4	C4H8N3O+
