Mass spectrum: Acifluorfen; LC-ESI-QFT; MS2; CE: 75; R=35000; [M+H]+
Name: Acifluorfen
Name: 5-[2-chloranyl-4-(trifluoromethyl)phenoxy]-2-nitro-benzoic acid
Formula: C14H7ClF3NO5
Exact mass: 360.99648
SMILES: Clc2cc(ccc2Oc1cc(C(=O)O)c([N+]([O-])=O)cc1)C(F)(F)F
InChI: InChI=1S/C14H7ClF3NO5/c15-10-5-7(14(16,17)18)1-4-12(10)24-8-2-3-11(19(22)23)9(6-8)13(20)21/h1-6H,(H,20,21)
Instrument: Q Exactive Orbitrap Thermo Scientific
Instrument type: LC-ESI-QFT
Ms type: MS2
Ion mode: POSITIVE
Ionization: ESI
Fragmentation mode: HCD
Collision energy: 75 (nominal)
Resolution: 35000
Column name: XBridge C18 3.5um, 2.1x50mm, Waters
Retention time: 12.3 min
Base peak: 379.0305
Precursor m/z: 362.0038
Precursor type: [M+H]+
m/z	relative intensity	assigned
51.0231	8	C4H3+
53.0023	37	C3HO+
57.0137	10	C3H2F+
65.026	7	C4H3N+
65.0386	34	C5H5+
67.0178	14	C4H3O+
68.9945	14	CF3+
68.9971	19	C3HO2+
75.0228	11	C6H3+
76.0182	121	C5H2N+
77.0259	19	C5H3N+
78.0338	60	C5H4N+
80.013	16	C4H2NO+
93.0208	32	C5H3NO+
98.0363	9	C5H6O2+
98.984	11	CH4ClO3+
104.0132	98	C6H2NO+
116.99	10	C5H3ClF+
120.0183	9	C5H3F3+
120.9807	12	C2FNO4+
122.0237	9	C6H4NO2+
132.0182	770	C6H3F3+
140.0494	100	C10H6N+
142.9894	47	C6H4ClO2+
144.0182	31	C7H3F3+
146.9806	79	C6H2ClF2+
158.0398	15	C10H5FN+
158.9807	29	C7H2ClF2+
159.0162	38	C5H5NO5+
160.0129	7	C7H3F3O+
161.0209	14	C7H4F3O+
162.9957	18	C6H5ClFO2+
164.9913	128	C6H4ClF2O+
166.987	361	C6H3ClF3+
169.0326	8	C11H4FN+
174.9755	40	C7H2ClF2O+
174.987	225	C6F3NO2+
176.0081	114	C7H3F3O2+
178.987	999	C7H3ClF3+
182.034	70	C10H5F3+
189.0385	93	C11H5F2N+
194.9819	110	C7H3ClF3O+
207.0418	89	C12H6F3+
209.045	12	C11H6F3N+
210.0285	17	C11H5F3O+
217.003	54	C10H5ClF3+
220.9816	54	C8H4ClF2O3+
222.9769	378	C8H3ClF3O2+
224.9914	8	C11H4ClF2O+
237.0397	18	C12H6F3NO+
252.0022	12	C12H5ClF2NO+
