Mass spectrum: Benzoximate; LC-ESI-QFT; MS2; CE: 180%; R=17500; [M+H]+
Name: Benzoximate
Name: [C-(3-chloro-2,6-dimethoxyphenyl)-N-ethoxycarbonimidoyl] benzoate
Formula: C18H18ClNO5
Exact mass: 363.0874
SMILES: CCON=C(C1=C(C=CC(=C1OC)Cl)OC)OC(=O)C2=CC=CC=C2
InChI: InChI=1S/C18H18ClNO5/c1-4-24-20-17(25-18(21)12-8-6-5-7-9-12)15-14(22-2)11-10-13(19)16(15)23-3/h5-11H,4H2,1-3H3
Instrument: Exploris 240 Orbitrap Thermo Scientific
Instrument type: LC-ESI-QFT
Ms type: MS2
Ion mode: POSITIVE
Ionization: ESI
Fragmentation mode: HCD
Collision energy: 180 % (nominal)
Resolution: 17500
Column name: XBridge C18 3.5um, 2.1x50mm, Waters
Retention time: 11.695 min
Base peak: 276.2181
Precursor m/z: 364.0946
Precursor type: [M+H]+
m/z	relative intensity	assigned
50.0151	417	C4H2+
51.0229	999	C4H3+
53.0022	191	C3HO+
53.0386	95	C4H5+
60.9839	14	C2H2Cl+
61.0074	19	C5H+
62.0152	28	C5H2+
63.023	84	C5H3+
65.0386	7	C5H5+
72.984	16	C3H2Cl+
75.0231	13	C6H3+
77.0022	40	C5HO+
77.0385	346	C6H5+
78.0101	20	C5H2O+
81.0334	7	C5H5O+
84.9839	48	C4H2Cl+
86.963	15	C3ClO+
94.0413	24	C6H6O+
95.0492	111	C6H7O+
112.9788	68	C5H2ClO+
