Mass spectrum: Mianserin; LC-ESI-QFT; MS2; CE: 180; R=35000; [M+H]+
Name: Mianserin
Name: 2-Methyl-1,2,3,4,10,14b-hexahydrodibenzo[c,f]pyrazino[1,2-a]azepine
Formula: C18H20N2
Exact mass: 264.16265
SMILES: CN1CCN2C(C1)C3=CC=CC=C3CC4=CC=CC=C42
InChI: InChI=1S/C18H20N2/c1-19-10-11-20-17-9-5-3-7-15(17)12-14-6-2-4-8-16(14)18(20)13-19/h2-9,18H,10-13H2,1H3
Instrument: Q Exactive Plus Orbitrap Thermo Scientific
Instrument type: LC-ESI-QFT
Ms type: MS2
Ion mode: POSITIVE
Ionization: ESI
Fragmentation mode: HCD
Collision energy: 180 (nominal)
Resolution: 35000
Column name: XBridge C18 3.5um, 2.1x50mm, Waters
Retention time: 6.5 min
Base peak: 265.1696
Precursor m/z: 265.1699
Precursor type: [M+H]+
m/z	relative intensity	assigned
50.0151	134	C4H2+
51.0229	304	C4H3+
53.0022	33	C3HO+
53.0386	121	C4H5+
53.9974	12	C2NO+
54.0338	8	C3H4N+
55.0178	4	C3H3O+
56.0495	102	C3H6N+
57.0572	16	C3H7N+
58.0651	144	C3H8N+
62.0151	37	C5H2+
63.0229	265	C5H3+
64.0307	24	C5H4+
65.0386	999	C5H5+
66.0463	27	C5H6+
67.0415	17	C4H5N+
67.0542	2	C5H7+
70.0651	2	C4H8N+
74.015	21	C6H2+
75.0228	47	C6H3+
76.0307	20	C6H4+
77.0385	204	C6H5+
78.0338	9	C5H4N+
78.0464	92	C6H6+
79.0541	39	C6H7+
80.0494	4	C5H6N+
81.0335	16	C5H5O+
87.0229	13	
88.0307	10	
89.0385	678	C7H5+
90.0464	115	C7H6+
91.0542	623	C7H7+
92.0494	4	C6H6N+
93.0573	13	C6H7N+
94.0412	3	C6H6O+
94.0654	2	C6H8N+
95.0491	372	C6H7O+
96.0443	9	C5H6NO+
102.0464	104	C8H6+
103.0542	159	C8H7+
104.0494	10	C7H6N+
105.0447	207	C6H5N2+
106.0651	12	C7H8N+
113.0384	14	C9H5+
115.0542	580	C9H7+
116.0494	26	C8H6N+
116.062	13	C9H8+
117.0572	101	C8H7N+
117.0699	5	C9H9+
118.0651	28	C8H8N+
119.0491	9	C8H7O+
126.0464	46	C10H6+
127.0542	28	C10H7+
128.0493	20	C9H6N+
128.062	99	C10H8+
129.0446	12	C8H5N2+
129.0573	22	C9H7N+
130.0651	129	C9H8N+
131.0729	4	C9H9N+
139.0542	106	C11H7+
140.0492	28	C10H6N+
140.062	2	C11H8+
141.0573	5	C10H7N+
141.07	2	C11H9+
142.0648	13	C10H8N+
143.0728	11	C10H9N+
144.0807	22	C10H10N+
145.0647	13	C10H9O+
146.0599	3	C9H8NO+
150.0463	82	C12H6+
151.054	43	C12H7+
152.062	222	C12H8+
153.0574	4	C11H7N+
154.065	4	C11H8N+
155.0602	17	C10H7N2+
163.0541	144	C13H7+
164.0494	10	
164.0619	115	C13H8+
165.0699	362	C13H9+
166.065	15	C12H8N+
167.0729	13	C12H9N+
168.057	37	C12H8O+
169.0648	135	C12H9O+
176.062	236	C14H8+
177.0576	27	C13H7N+
177.0697	83	C14H9+
178.0646	12	
178.0776	125	C14H10+
179.0602	42	C12H7N2+
179.0728	3	C13H9N+
180.0804	4	C13H10N+
187.0541	16	
188.0619	11	C15H8+
189.0698	96	C15H9+
190.065	83	C14H8N+
191.0728	43	C14H9N+
192.0805	11	C14H10N+
196.0516	14	
200.0618	14	C16H8+
202.065	8	C15H8N+
202.0776	9	C16H10+
203.0728	31	C15H9N+
204.0807	75	C15H10N+
206.0967	3	C15H12N+
214.0648	9	C16H8N+
215.0727	12	C16H9N+
216.0808	43	C16H10N+
217.0883	9	C16H11N+
218.0843	3	C15H10N2+
