Mass spectrum: Enoxastrobin; LC-ESI-QFT; MS2; CE: 90%; R=17500; [M+H]+
Name: Enoxastrobin
Name: methyl 2-[2-[[4-(4-chlorophenyl)but-3-en-2-ylideneamino]oxymethyl]phenyl]-3-methoxyprop-2-enoate
Formula: C22H22ClNO4
Exact mass: 399.1237
SMILES: CC(=NOCC1=CC=CC=C1C(=COC)C(=O)OC)C=CC2=CC=C(C=C2)Cl
InChI: InChI=1S/C22H22ClNO4/c1-16(8-9-17-10-12-19(23)13-11-17)24-28-14-18-6-4-5-7-20(18)21(15-26-2)22(25)27-3/h4-13,15H,14H2,1-3H3
Instrument: Exploris 240 Orbitrap Thermo Scientific
Instrument type: LC-ESI-QFT
Ms type: MS2
Ion mode: POSITIVE
Ionization: ESI
Fragmentation mode: HCD
Collision energy: 90 % (nominal)
Resolution: 17500
Column name: XBridge C18 3.5um, 2.1x50mm, Waters
Retention time: 13.142 min
Base peak: 400.1307
Precursor m/z: 400.131
Precursor type: [M+H]+
m/z	relative intensity	assigned
51.0229	22	C4H3+
75.0229	97	C6H3+
77.0385	36	C6H5+
91.0542	152	C7H7+
101.0386	213	C8H5+
102.0464	999	C8H6+
103.0543	87	C8H7+
115.0542	444	C9H7+
116.062	15	C9H8+
117.0699	205	C9H9+
119.0491	57	C8H7O+
128.0621	11	C10H8+
130.0413	155	C9H6O+
131.0493	38	C9H7O+
137.0152	224	C8H6Cl+
145.0649	141	C10H9O+
146.0729	19	C10H10O+
