Mass spectrum: Pymetrozine; LC-ESI-ITFT; MS2; CE: 15%; R=15000; [M+H]+
Name: Pymetrozine
Name: 6-methyl-4-(3-pyridinylmethylideneamino)-2,5-dihydro-1,2,4-triazin-3-one
Formula: C10H11N5O
Exact mass: 217.0964
SMILES: O=C2N(/N=C/c1cccnc1)C\C(=N/N2)C
InChI: InChI=1S/C10H11N5O/c1-8-7-15(10(16)14-13-8)12-6-9-3-2-4-11-5-9/h2-6H,7H2,1H3,(H,14,16)/b12-6+
Instrument: LTQ Orbitrap XL Thermo Scientific
Instrument type: LC-ESI-ITFT
Ms type: MS2
Ion mode: POSITIVE
Ionization: ESI
Fragmentation mode: HCD
Collision energy: 15 % (nominal)
Resolution: 15000
Column name: XBridge C18 3.5um, 2.1x50mm, Waters
Retention time: 1.5 min
Base peak: 218.104
Precursor m/z: 218.1036
Precursor type: [M+H]+
m/z	relative intensity	assigned
105.0447	16	C6H5N2+
218.1036	999	C10H12N5O+
