Mass spectrum: Fenthion Oxon Sulfone; LC-ESI-QFT; MS2; CE: 90%; R=17500; [M+H]+
Name: Fenthion Oxon Sulfone
Name: dimethyl (3-methyl-4-methylsulfonylphenyl) phosphate
Formula: C10H15O6PS
Exact mass: 294.0327
SMILES: CC1=C(C=CC(=C1)OP(=O)(OC)OC)S(=O)(=O)C
InChI: InChI=1S/C10H15O6PS/c1-8-7-9(16-17(11,14-2)15-3)5-6-10(8)18(4,12)13/h5-7H,1-4H3
Instrument: Exploris 240 Orbitrap Thermo Scientific
Instrument type: LC-ESI-QFT
Ms type: MS2
Ion mode: POSITIVE
Ionization: ESI
Fragmentation mode: HCD
Collision energy: 90 % (nominal)
Resolution: 17500
Column name: XBridge C18 3.5um, 2.1x50mm, Waters
Retention time: 4.335 min
Base peak: 295.0397
Precursor m/z: 295.04
Precursor type: [M+H]+
m/z	relative intensity	assigned
53.0387	46	C4H5+
64.9786	35	H2O2P+
65.0386	365	C5H5+
66.0465	54	C5H6+
67.0543	29	C5H7+
77.0386	210	C6H5+
78.0464	999	C6H6+
78.985	25	CH3O2S+
78.9942	153	CH4O2P+
79.018	23	C5H3O+
79.0542	136	C6H7+
89.0385	204	C7H5+
90.0464	162	C7H6+
91.0542	865	C7H7+
92.0624	21	C7H8+
93.0699	245	C7H9+
95.0493	58	C6H7O+
103.0542	606	C8H7+
104.062	332	C8H8+
105.0703	60	C8H9+
107.049	146	C7H7O+
108.0572	67	C7H8O+
109.0046	167	C2H6O3P+
113	38	CH6O4P+
121.0651	85	C8H9O+
123.0439	35	C7H7O2+
127.0155	484	C2H8O4P+
