Mass spectrum: Tebufenozide; LC-ESI-ITFT; MS2; CE: 90%; R=15000; [M+H]+
Name: Tebufenozide
Name: N-tert-butyl-N'-(4-ethylbenzoyl)-3,5-dimethyl-benzohydrazide
Formula: C22H28N2O2
Exact mass: 352.2151
SMILES: O=C(c1cc(cc(c1)C)C)N(NC(=O)c2ccc(cc2)CC)C(C)(C)C
InChI: InChI=1S/C22H28N2O2/c1-7-17-8-10-18(11-9-17)20(25)23-24(22(4,5)6)21(26)19-13-15(2)12-16(3)14-19/h8-14H,7H2,1-6H3,(H,23,25)
Instrument: LTQ Orbitrap XL Thermo Scientific
Instrument type: LC-ESI-ITFT
Ms type: MS2
Ion mode: POSITIVE
Ionization: ESI
Fragmentation mode: HCD
Collision energy: 90 % (nominal)
Resolution: 15000
Column name: XBridge C18 3.5um, 2.1x50mm, Waters
Retention time: 12.4 min
Base peak: 353.2227
Precursor m/z: 353.2224
Precursor type: [M+H]+
m/z	relative intensity	assigned
79.0542	420	C6H7+
103.0542	293	C8H7+
105.0698	999	C8H9+
123.0804	50	C8H11O+
133.0647	380	C9H9O+
133.0759	312	C8H9N2+
196.1779	50	C8H24N2O3+
