Mass spectrum: Nordiazepam; LC-ESI-QFT; MS2; CE: 150; R=35000; [M+H]+
Name: Nordiazepam
Name: Nordazepam (1-Demethyldiazepam)
Name: 7-chloro-5-phenyl-1,3-dihydro-1,4-benzodiazepin-2-one
Formula: C15H11ClN2O
Exact mass: 270.05599
SMILES: C1C(=O)NC2=C(C=C(C=C2)Cl)C(=N1)C3=CC=CC=C3
InChI: InChI=1S/C15H11ClN2O/c16-11-6-7-13-12(8-11)15(17-9-14(19)18-13)10-4-2-1-3-5-10/h1-8H,9H2,(H,18,19)
Instrument: Q Exactive Plus Orbitrap Thermo Scientific
Instrument type: LC-ESI-QFT
Ms type: MS2
Ion mode: POSITIVE
Ionization: ESI
Fragmentation mode: HCD
Collision energy: 150 (nominal)
Resolution: 35000
Column name: XBridge C18 3.5um, 2.1x50mm, Waters
Retention time: 9.3 min
Base peak: 271.0623
Precursor m/z: 271.0633
Precursor type: [M+H]+
m/z	relative intensity	assigned
50.0151	139	C4H2+
51.0229	97	C4H3+
52.0181	13	C3H2N+
52.0307	10	C4H4+
53.0021	31	C3HO+
53.0385	141	C4H5+
53.9973	3	C2NO+
54.0338	10	C3H4N+
55.0177	9	C3H3O+
61.0071	6	C5H+
61.9792	15	CHClN+
62.015	37	C5H2+
63.0229	194	C5H3+
63.9948	2	CH3ClN+
64.0181	15	C4H2N+
64.0307	17	C5H4+
65.0385	596	C5H5+
66.0338	3	C4H4N+
66.0463	26	C5H6+
67.0417	3	C4H5N+
67.0541	2	C5H7+
67.9892	1	C3O2+
72.9839	87	C3H2Cl+
74.015	75	C6H2+
75.0228	506	C6H3+
76.0181	80	C5H2N+
76.0306	153	C6H4+
77.0384	355	C6H5+
78.0337	48	C5H4N+
78.0463	316	C6H6+
79.0178	6	C5H3O+
79.0415	51	C5H5N+
79.0541	5	C6H7+
80.0494	15	C5H6N+
81.0334	21	C5H5O+
84.9838	35	C4H2Cl+
86.0149	3	C7H2+
86.9995	27	C4H4Cl+
87.0103	1	C6HN+
87.0229	7	C7H3+
87.9948	3	C3H3ClN+
88.0181	19	C6H2N+
88.0306	13	C7H4+
89.0385	441	C7H5+
90.0338	22	C6H4N+
90.0464	54	C7H6+
91.0542	280	C7H7+
92.0256	5	C6H4O+
92.0494	26	C6H6N+
93.0335	8	C6H5O+
94.0412	18	C6H6O+
95.0491	426	C6H7O+
96.0443	44	C5H6NO+
96.9839	23	C5H2Cl+
97.9791	3	C4HClN+
98.0149	1	C8H2+
98.9995	29	C5H4Cl+
99.0102	9	C7HN+
99.0228	3	C8H3+
100.0073	21	C5H5Cl+
100.0181	57	C7H2N+
101.0026	6	C4H4ClN+
101.0385	1	C8H5+
102.0337	128	C7H4N+
102.0463	14	C8H6+
103.0416	181	C7H5N+
104.0494	999	C7H6N+
105.0446	271	C6H5N2+
105.0572	103	C7H7N+
108.9839	3	C6H2Cl+
109.0648	1	C7H9O+
110.0599	2	C6H8NO+
110.9995	43	C6H4Cl+
111.0312	2	C5H5NO2+
111.0439	2	C6H7O2+
111.9947	11	C5H3ClN+
112.0073	6	C6H5Cl+
113.015	19	C6H6Cl+
113.0384	20	C9H5+
114.0104	14	C5H5ClN+
114.0336	15	C8H4N+
114.0464	5	C9H6+
115.029	5	C7H3N2+
115.0415	8	C8H5N+
115.0541	52	C9H7+
116.0367	6	C7H4N2+
116.0494	19	C8H6N+
117.0571	16	C8H7N+
118.0286	14	C7H4NO+
119.0491	1	C8H7O+
120.0443	30	C7H6NO+
121.0396	2	C6H5N2O+
122.9995	44	C7H4Cl+
123.9948	26	C6H3ClN+
125.0026	7	C6H4ClN+
125.0151	2	C7H6Cl+
125.0384	12	C10H5+
126.0106	1	C6H5ClN+
126.0463	29	C10H6+
127.0182	28	C6H6ClN+
127.0417	5	C9H5N+
127.0542	17	C10H7+
128.0494	19	C9H6N+
128.0619	16	C10H8+
129.01	53	C6H6ClO+
129.0446	127	C8H5N2+
130.0053	10	C5H5ClNO+
130.0399	148	C7H4N3+
130.0525	7	C8H6N2+
131.0604	15	C8H7N2+
132.0569	1	C9H8O+
135.0314	11	C4H8ClN2O+
135.9948	8	C7H3ClN+
137.0025	6	C7H4ClN+
137.0385	15	C11H5+
138.0104	66	C7H5ClN+
138.0463	13	C11H6+
139.0056	144	C6H4ClN2+
139.0541	74	C11H7+
140.026	28	C7H7ClN+
140.0493	75	C10H6N+
141.0573	1	C10H7N+
145.0647	11	C10H9O+
146.0599	3	C9H8NO+
147.0552	3	C8H7N2O+
150.0463	83	C12H6+
151.0541	56	C12H7+
152.0619	404	C12H8+
153.0572	22	C11H7N+
153.0697	64	C12H9+
154.0055	2	C7H5ClNO+
154.0649	20	C11H8N+
155.0602	33	C10H7N2+
155.0729	2	C11H9N+
156.081	2	C11H10N+
161.0386	2	C13H5+
162.0466	18	C13H6+
163.0541	378	C13H7+
164.0009	21	C10N2O+
164.0494	72	C12H6N+
164.0618	68	C13H8+
165.0213	8	C8H6ClN2+
165.0573	10	C12H7N+
165.0697	153	C13H9+
166.065	24	C12H8N+
167.0728	8	C12H9N+
168.0568	23	C12H8O+
169.0647	136	C12H9O+
170.0601	10	C11H8NO+
173.0151	2	C11H6Cl+
174.0107	2	C10H5ClN+
175.0413	1	C13H5N+
177.0571	75	C13H7N+
178.065	168	C13H8N+
179.0606	57	C12H7N2+
179.0728	173	C13H9N+
180.0806	155	C13H10N+
181.0752	4	C12H9N2+
182.0599	3	C12H8NO+
183.068	5	C12H9NO+
188.0493	43	C14H6N+
189.0572	33	C14H7N+
190.0649	248	C14H8N+
191.0602	3	C13H7N2+
191.073	13	C14H9N+
192.0681	16	C13H8N2+
193.0523	7	C13H7NO+
194.0599	6	C13H8NO+
196.0517	8	C10H11ClNO+
196.0756	8	C13H10NO+
199.0307	8	C13H8Cl+
204.0554	3	C13H6N3+
204.0685	2	C14H8N2+
205.0759	122	C14H9N2+
206.0837	50	C14H10N2+
207.0676	5	C14H9NO+
207.0913	5	C14H11N2+
211.0629	10	C10H12ClN2O+
213.034	6	C13H8ClN+
214.0417	1	C13H9ClN+
217.075	2	C15H9N2+
224.0259	1	C14H7ClN+
239.037	1	C14H8ClN2+
