Mass spectrum: Diazinon; LC-ESI-ITFT; MS2; CE: 30%; R=15000; [M+H]+
Name: Diazinon
Name: diethoxy-(2-isopropyl-6-methyl-pyrimidin-4-yl)oxy-thioxo-phosphorane
Formula: C12H21N2O3PS
Exact mass: 304.1011
SMILES: O(c1nc(nc(c1)C)C(C)C)P(OCC)(OCC)=S
InChI: InChI=1S/C12H21N2O3PS/c1-6-15-18(19,16-7-2)17-11-8-10(5)13-12(14-11)9(3)4/h8-9H,6-7H2,1-5H3
Instrument: LTQ Orbitrap XL Thermo Scientific
Instrument type: LC-ESI-ITFT
Ms type: MS2
Ion mode: POSITIVE
Ionization: ESI
Fragmentation mode: HCD
Collision energy: 30 % (nominal)
Resolution: 15000
Column name: XBridge C18 3.5um, 2.1x50mm, Waters
Retention time: 13.0 min
Base peak: 305.1095
Precursor m/z: 305.1083
Precursor type: [M+H]+
m/z	relative intensity	assigned
70.0649	2	C4H8N+
96.9508	31	H2O2PS+
114.9613	21	H4O3PS+
124.982	11	C2H6O2PS+
153.1023	498	C8H13N2O+
169.0795	945	C8H13N2S+
181.1334	29	C10H17N2O+
231.0357	3	C12H9NO2S+
249.0453	2	C12H11NO3S+
277.0777	6	C10H18N2O3PS+
305.1087	999	C12H22N2O3PS+
