Mass spectrum: Dimoxystrobin; LC-ESI-QFT; MS2; CE: 180; R=35000; [M+H]+
Name: Dimoxystrobin
Name: 2-[2-[(2,5-dimethylphenoxy)methyl]phenyl]-2-methoxyimino-N-methylacetamide
Formula: C19H22N2O3
Exact mass: 326.16304
SMILES: CC1=CC(=C(C=C1)C)OCC2=CC=CC=C2C(=NOC)C(=O)NC
InChI: InChI=1S/C19H22N2O3/c1-13-9-10-14(2)17(11-13)24-12-15-7-5-6-8-16(15)18(21-23-4)19(22)20-3/h5-11H,12H2,1-4H3,(H,20,22)
Instrument: Q Exactive Plus Orbitrap Thermo Scientific
Instrument type: LC-ESI-QFT
Ms type: MS2
Ion mode: POSITIVE
Ionization: ESI
Fragmentation mode: HCD
Collision energy: 180 (nominal)
Resolution: 35000
Column name: XBridge C18 3.5um, 2.1x50mm, Waters
Retention time: 12.4 min
Base peak: 327.1694
Precursor m/z: 327.1703
Precursor type: [M+H]+
m/z	relative intensity	assigned
50.0151	28	C4H2+
51.0229	39	C4H3+
53.0022	24	C3HO+
53.0386	7	C4H5+
53.9974	7	C2NO+
55.0179	8	C3H3O+
58.0287	279	C2H4NO+
61.0072	57	C5H+
62.0151	181	C5H2+
63.0229	999	C5H3+
64.0181	134	C4H2N+
64.0307	12	C5H4+
65.0386	68	C5H5+
66.0338	2	C4H4N+
66.0463	4	C5H6+
67.9893	1	C3O2+
74.0151	7	C6H2+
75.0228	15	C6H3+
76.0181	8	C5H2N+
76.0307	5	C6H4+
77.0385	14	C6H5+
78.0464	5	C6H6+
79.0178	2	C5H3O+
79.0542	2	C6H7+
81.0335	6	C5H5O+
87.0103	2	C6HN+
87.0227	3	C7H3+
88.0182	23	C6H2N+
88.0306	2	C7H4+
89.0385	570	C7H5+
90.0338	41	C6H4N+
90.0464	27	C7H6+
91.0542	16	C7H7+
95.0491	25	C6H7O+
102.0463	5	C8H6+
103.0542	1	C8H7+
104.0494	2	C7H6N+
105.0447	15	C6H5N2+
114.0338	5	C8H4N+
115.0541	14	C9H7+
116.0494	18	C8H6N+
117.0572	7	C8H7N+
119.0489	1	C8H7O+
126.0463	5	C10H6+
127.0541	1	C10H7+
128.0495	1	C9H6N+
128.0619	5	C10H8+
129.0446	1	C8H5N2+
139.0542	17	C11H7+
140.0493	5	C10H6N+
150.0464	15	C12H6+
151.054	5	C12H7+
152.062	29	C12H8+
155.0603	1	C10H7N2+
163.0541	21	C13H7+
164.0619	8	C13H8+
165.0699	20	C13H9+
166.0651	4	C12H8N+
167.0731	2	C12H9N+
169.0646	17	C12H9O+
176.062	18	C14H8+
177.0573	1	C13H7N+
177.0697	2	C14H9+
178.0776	8	C14H10+
179.0604	5	C12H7N2+
180.0811	1	C13H10N+
189.0699	5	C15H9+
190.0651	5	C14H8N+
191.073	4	C14H9N+
