Mass spectrum: Paraoxon-ethyl; LC-ESI-QFT; MS2; CE: 180%; R=17500; [M+H]+
Name: Paraoxon-ethyl
Name: Paraoxon
Name: diethyl (4-nitrophenyl) phosphate
Formula: C10H14NO6P
Exact mass: 275.0559
SMILES: CCOP(=O)(OCC)OC1=CC=C(C=C1)[N+](=O)[O-]
InChI: InChI=1S/C10H14NO6P/c1-3-15-18(14,16-4-2)17-10-7-5-9(6-8-10)11(12)13/h5-8H,3-4H2,1-2H3
Instrument: Exploris 240 Orbitrap Thermo Scientific
Instrument type: LC-ESI-QFT
Ms type: MS2
Ion mode: POSITIVE
Ionization: ESI
Fragmentation mode: HCD
Collision energy: 180 % (nominal)
Resolution: 17500
Column name: XBridge C18 3.5um, 2.1x50mm, Waters
Retention time: 6.797 min
Base peak: 276.0629
Precursor m/z: 276.0632
Precursor type: [M+H]+
m/z	relative intensity	assigned
50.0151	474	C4H2+
51.0229	86	C4H3+
53.0386	56	C4H5+
55.0178	177	C3H3O+
63.0229	349	C5H3+
65.0386	999	C5H5+
66.0464	963	C5H6+
74.0151	320	C6H2+
75.0229	761	C6H3+
76.0308	79	C6H4+
79.0179	51	C5H3O+
80.9737	87	H2O3P+
81.0335	96	C5H5O+
94.0413	388	C6H6O+
98.9842	201	H4O4P+
