Mass spectrum: Linoleic acid; LC-ESI-QFT; MS2; CE: 45; R=35000; [M+H]+
Name: Linoleic acid
Name: (9Z,12Z)-octadeca-9,12-dienoic acid
Formula: C18H32O2
Exact mass: 280.24023
SMILES: CCCCC/C=C\C/C=C\CCCCCCCC(=O)O
InChI: InChI=1S/C18H32O2/c1-2-3-4-5-6-7-8-9-10-11-12-13-14-15-16-17-18(19)20/h6-7,9-10H,2-5,8,11-17H2,1H3,(H,19,20)/b7-6-,10-9-
Instrument: Q Exactive Orbitrap Thermo Scientific
Instrument type: LC-ESI-QFT
Ms type: MS2
Ion mode: POSITIVE
Ionization: ESI
Fragmentation mode: HCD
Collision energy: 45 (nominal)
Resolution: 35000
Column name: XBridge C18 3.5um, 2.1x50mm, Waters
Retention time: 19.4 min
Base peak: 298.274
Precursor m/z: 281.2475
Precursor type: [M+H]+
m/z	relative intensity	assigned
53.0023	3	C3HO+
53.0387	3	C4H5+
55.0178	3	C3H3O+
55.0542	22	C4H7+
57.0699	104	C4H9+
59.0492	21	C3H7O+
65.0385	12	C5H5+
67.0542	350	C5H7+
69.0699	999	C5H9+
71.0492	52	C4H7O+
71.0855	110	C5H11+
73.0648	11	C4H9O+
74.0964	3	C4H12N+
79.0542	134	C6H7+
81.0699	668	C6H9+
83.0491	68	C5H7O+
83.0855	657	C6H11+
85.0284	14	C4H5O2+
85.0648	72	C5H9O+
85.1011	40	C6H13+
87.0442	4	C4H7O2+
87.0805	3	C5H11O+
91.0542	164	C7H7+
93.0699	257	C7H9+
95.0855	654	C7H11+
97.0648	116	C6H9O+
97.1012	480	C7H13+
99.044	17	C5H7O2+
99.0805	33	C6H11O+
101.0598	31	C5H9O2+
105.0699	202	C8H9+
107.0855	255	C8H11+
109.0648	72	C7H9O+
109.1012	395	C8H13+
111.044	17	C6H7O2+
111.0804	70	C7H11O+
111.1168	96	C8H15+
113.0598	21	C6H9O2+
113.0961	11	C7H13O+
115.0755	16	C6H11O2+
117.07	11	C9H9+
119.0855	298	C9H11+
121.1012	212	C9H13+
123.0804	101	C8H11O+
123.1168	168	C9H15+
125.0597	6	C7H9O2+
125.0961	35	C8H13O+
125.1325	6	C9H17+
127.0391	3	C6H7O3+
127.0754	15	C7H11O2+
129.0907	5	C7H13O2+
131.0856	20	C10H11+
133.1011	278	C10H13+
135.0805	11	C9H11O+
135.1168	122	C10H15+
137.0599	16	C8H9O2+
137.0961	90	C9H13O+
137.1325	57	C10H17+
139.0753	4	C8H11O2+
139.1119	14	C9H15O+
141.0909	6	C8H13O2+
141.1274	4	C9H17O+
143.0859	3	C11H11+
145.1011	13	C11H13+
147.1168	220	C11H15+
149.0234	176	C8H5O3+
149.0963	11	C10H13O+
149.1326	92	C11H17+
151.1118	55	C10H15O+
151.1483	28	C11H19+
153.0545	5	C8H9O3+
153.1274	14	C10H17O+
157.1014	14	C12H13+
159.1171	11	C12H15+
161.0962	16	C11H13O+
161.1325	133	C12H17+
163.0753	3	C10H11O2+
163.1118	12	C11H15O+
163.1482	43	C12H19+
165.0914	12	C10H13O2+
165.1273	30	C11H17O+
165.1641	20	C12H21+
167.1433	11	C11H19O+
171.117	5	C13H15+
175.1122	17	C12H15O+
175.1481	63	C13H19+
177.1278	4	C12H17O+
177.1634	4	C13H21+
179.1069	7	C11H15O2+
179.1431	15	C12H19O+
179.1796	13	C13H23+
181.1588	5	C12H21O+
185.1321	3	C14H17+
187.1484	4	C14H19+
189.0913	4	C12H13O2+
189.1279	2	C13H17O+
189.1639	37	C14H21+
193.1226	15	C12H17O2+
193.1587	7	C13H21O+
203.1798	13	C15H23+
219.2113	16	C16H27+
221.2266	17	C16H29+
245.2266	52	C18H29+
263.2375	16	C18H31O+
