Mass spectrum: Atenolol-desisopropyl; LC-ESI-QFT; MS2; CE: 120; R=35000; [M+H]+
Name: Atenolol-desisopropyl
Name: 4-(3-Amino-2-hydroxypropoxy)phenylacetamide
Formula: C11H16N2O3
Exact mass: 224.11609
SMILES: c1cc(ccc1CC(=O)N)OCC(CN)O
InChI: InChI=1S/C11H16N2O3/c12-6-9(14)7-16-10-3-1-8(2-4-10)5-11(13)15/h1-4,9,14H,5-7,12H2,(H2,13,15)
Instrument: Q Exactive Plus Orbitrap Thermo Scientific
Instrument type: LC-ESI-QFT
Ms type: MS2
Ion mode: POSITIVE
Ionization: ESI
Fragmentation mode: HCD
Collision energy: 120 (nominal)
Resolution: 35000
Column name: XBridge C18 3.5um, 2.1x50mm, Waters
Retention time: 1.0 min
Base peak: 225.1233
Precursor m/z: 225.1234
Precursor type: [M+H]+
m/z	relative intensity	assigned
50.0151	14	C4H2+
51.0229	31	C4H3+
53.0386	95	C4H5+
55.0179	23	C3H3O+
56.0495	435	C3H6N+
57.0335	12	C3H5O+
58.0651	7	C3H8N+
62.0151	8	C5H2+
63.0229	134	C5H3+
65.0386	215	C5H5+
66.0464	8	C5H6+
67.0416	8	C4H5N+
67.0542	10	C5H7+
74.06	126	C3H8NO+
77.0385	161	C6H5+
78.0339	6	C5H4N+
78.0464	22	C6H6+
79.0542	375	C6H7+
80.0494	11	C5H6N+
81.0335	15	C5H5O+
89.0386	999	C7H5+
90.0338	2	C6H4N+
90.0464	19	C7H6+
91.0543	905	C7H7+
92.0495	1	C6H6N+
92.0621	6	C7H8+
93.0572	5	C6H7N+
93.07	25	C7H9+
94.0414	7	C6H6O+
94.0652	17	C6H8N+
95.0492	400	C6H7O+
96.0445	15	C5H6NO+
102.0464	10	C8H6+
103.0542	77	C8H7+
104.0495	6	C7H6N+
104.0621	8	C8H8+
105.0448	203	C6H5N2+
105.0699	71	C8H9+
106.0652	68	C7H8N+
107.0492	951	C7H7O+
115.0543	617	C9H7+
116.0495	55	C8H6N+
116.0621	45	C9H8+
117.0334	17	C8H5O+
117.0573	41	C8H7N+
117.0699	62	C9H9+
118.0414	2	C8H6O+
119.0491	13	C8H7O+
121.0649	6	C8H9O+
126.0465	6	C10H6+
127.0542	13	C10H7+
128.0621	3	C10H8+
131.0492	20	C9H7O+
133.0649	25	C9H9O+
134.06	17	C8H8NO+
135.0552	12	C7H7N2O+
137.0594	1	C8H9O2+
144.057	45	C10H8O+
145.0648	77	C10H9O+
155.0604	23	C10H7N2+
