Mass spectrum: Methiocarb-sulfoxide; LC-ESI-ITFT; MS2; CE: 60%; R=15000; [M+H]+
Name: Methiocarb-sulfoxide
Name: Mesurol sulfoxide
Name: (3,5-dimethyl-4-methylsulfinyl-phenyl) N-methylcarbamate
Formula: C11H15NO3S
Exact mass: 241.0773
SMILES: O=C(Oc1cc(c(c(c1)C)S(=O)C)C)NC
InChI: InChI=1S/C11H15NO3S/c1-7-5-9(15-11(13)12-3)6-8(2)10(7)16(4)14/h5-6H,1-4H3,(H,12,13)
Instrument: LTQ Orbitrap XL Thermo Scientific
Instrument type: LC-ESI-ITFT
Ms type: MS2
Ion mode: POSITIVE
Ionization: ESI
Fragmentation mode: HCD
Collision energy: 60 % (nominal)
Resolution: 15000
Column name: XBridge C18 3.5um, 2.1x50mm, Waters
Retention time: 4.9 min
Base peak: 242.0846
Precursor m/z: 242.0845
Precursor type: [M+H]+
m/z	relative intensity	assigned
77.0383	1	C6H5+
79.0541	1	C6H7+
91.0542	3	C7H7+
93.0697	2	C7H9+
103.0542	2	C8H7+
107.0491	30	C7H7O+
108.0566	1	C7H8O+
109.0648	6	C7H9O+
121.0648	51	C8H9O+
122.0726	658	C8H10O+
123.0803	2	C8H11O+
135.0802	1	C9H11O+
136.0882	9	C9H12O+
137.0596	5	C8H9O2+
138.0676	17	C8H10O2+
139.0576	1	C8H11S+
141.0368	4	C7H9OS+
152.029	22	C8H8OS+
153.0368	118	C8H9OS+
168.0603	641	C9H12OS+
169.0311	1	C8H9O2S+
170.0396	999	C8H10O2S+
185.063	543	C9H13O2S+
