Mass spectrum: Torsemide; LC-ESI-QFT; MS2; CE: 90; R=35000; [M+H]+
Name: Torsemide
Name: SMR000466313
Name: 1-[4-(3-methylanilino)pyridin-3-yl]sulfonyl-3-propan-2-ylurea
Formula: C16H20N4O3S
Exact mass: 348.12561
SMILES: O=S(=O)(c2c(Nc1cc(ccc1)C)ccnc2)NC(=O)NC(C)C
InChI: InChI=1S/C16H20N4O3S/c1-11(2)18-16(21)20-24(22,23)15-10-17-8-7-14(15)19-13-6-4-5-12(3)9-13/h4-11H,1-3H3,(H,17,19)(H2,18,20,21)
Instrument: Q Exactive Orbitrap Thermo Scientific
Instrument type: LC-ESI-QFT
Ms type: MS2
Ion mode: POSITIVE
Ionization: ESI
Fragmentation mode: HCD
Collision energy: 90 (nominal)
Resolution: 35000
Column name: XBridge C18 3.5um, 2.1x50mm, Waters
Retention time: 6.7 min
Base peak: 349.1332
Precursor m/z: 349.1329
Precursor type: [M+H]+
m/z	relative intensity	assigned
65.0387	3	C5H5+
67.0417	27	C4H5N+
70.9951	1	C3H3S+
79.0417	3	C5H5N+
81.0448	23	C4H5N2+
83.0492	2	C5H7O+
91.0542	6	C7H7+
92.0494	1	C6H6N+
93.0573	1	C6H7N+
94.0652	8	C6H8N+
98.006	22	C4H4NS+
107.0491	1	C7H7O+
110.0062	1	C5H4NS+
110.0601	2	C6H8NO+
114.0464	4	C9H6+
115.0543	7	C9H7+
116.0495	7	C8H6N+
117.0573	17	C8H7N+
122.06	6	C7H8NO+
125.0168	68	C5H5N2S+
126.0246	4	C5H6N2S+
127.0087	2	C5H5NOS+
127.0326	3	C5H7N2S+
128.0164	1	C5H6NOS+
128.0497	6	C9H6N+
128.0621	28	C10H8+
129.0699	40	C10H9+
130.0651	3	C9H8N+
137.0169	31	C6H5N2S+
140.0496	23	C10H6N+
141.0574	59	C10H7N+
142.0527	5	C9H6N2+
143.0734	1	C4H15O3S+
144.081	5	C10H10N+
145.0649	4	C10H9O+
150.0248	1	C7H6N2S+
150.0374	2	C8H8NS+
153.012	1	C6H5N2OS+
154.0653	20	C11H8N+
155.0605	13	C10H7N2+
155.0731	6	C11H9N+
156.0683	12	C10H8N2+
156.081	19	C11H10N+
157.0763	2	C10H9N2+
158.0602	2	C10H8NO+
163.0324	1	C8H7N2S+
166.0522	2	C11H6N2+
166.0651	1	C12H8N+
167.0605	21	C11H7N2+
168.0683	999	C3H12N4O2S+
169.0761	25	C11H9N2+
171.092	8	C11H11N2+
174.037	1	C10H8NS+
175.0325	10	C9H7N2S+
176.0403	8	C9H8N2S+
177.0483	1	C9H9N2S+
181.0762	158	C12H9N2+
182.084	240	C12H10N2+
183.0918	399	C4H15N4O2S+
184.0633	11	C11H8N2O+
185.0712	11	C11H9N2O+
186.079	1	C11H10N2O+
187.0326	4	C10H7N2S+
189.0479	1	C10H9N2S+
191.0639	11	C10H11N2S+
197.0713	10	C12H9N2O+
198.0789	32	C12H10N2O+
199.0868	31	C12H11N2O+
200.0405	6	C11H8N2S+
200.0582	3	C11H8N2O2+
201.0481	25	C11H9N2S+
202.0317	1	C11H8NOS+
202.0563	3	C11H10N2S+
203.0271	1	C10H7N2OS+
219.0585	4	C11H11N2OS+
229.0431	11	C12H9N2OS+
230.051	19	C12H10N2OS+
247.054	6	C12H11N2O2S+
264.0804	1	C12H14N3O2S+
