Mass spectrum: Nicosulfuron-TP UCSN; LC-ESI-QFT; MS2; CE: 120%; R=17500; [M-H]-
Name: Nicosulfuron-TP UCSN
Name: 2-[(Carbamoylcarbamoyl)sulfamoyl]-N,N-dimethylnicotinamide
Formula: C10H13N5O5S
Exact mass: 315.0637
SMILES: CN(C)C(=O)C1=CC=CN=C1S(=O)(=O)NC(=O)NC(N)=O
InChI: InChI=1S/C10H13N5O5S/c1-15(2)8(16)6-4-3-5-12-7(6)21(19,20)14-10(18)13-9(11)17/h3-5H,1-2H3,(H4,11,13,14,17,18)
Instrument: Q Exactive Plus Orbitrap Thermo Scientific
Instrument type: LC-ESI-QFT
Ms type: MS2
Ion mode: NEGATIVE
Ionization: ESI
Fragmentation mode: HCD
Collision energy: 120 % (nominal)
Resolution: 17500
Column name: XBridge C18 3.5um, 2.1x50mm, Waters
Retention time: 1.525 min
Base peak: 314.0565
Precursor m/z: 314.0565
Precursor type: [M-H]-
m/z	relative intensity	assigned
50.0035	81	C3N-
58.0298	71	C2H4NO-
59.025	44	CH3N2O-
61.9706	863	NOS-
63.9625	999	O2S-
66.0349	247	C4H4N-
74.0036	38	C5N-
77.9656	680	NO2S-
78.9733	419	HNO2S-
91.0303	123	C5H3N2-
93.0458	474	C5H5N2-
94.0298	863	C5H4NO-
117.0461	99	C7H5N2-
119.0251	214	C6H3N2O-
132.0334	33	CH10NO4S-
147.0441	62	C7H5N3O-
