Mass spectrum: Marbofloxacin; LC-ESI-QFT; MS2; CE: 90; R=35000; [M+H]+
Name: Marbofloxacin
Name: 9-Fluoro-3-methyl-10-(4-methyl-1-piperazinyl)-7-oxo-2,3-dihydro-7H-[1,3,4]oxadiazino[6,5,4-ij]quinoline-6-carboxylic acid
Formula: C17H19FN4O4
Exact mass: 362.13903
SMILES: CN1CCN(CC1)C2=C(C=C3C4=C2OCN(N4C=C(C3=O)C(=O)O)C)F
InChI: InChI=1S/C17H19FN4O4/c1-19-3-5-21(6-4-19)14-12(18)7-10-13-16(14)26-9-20(2)22(13)8-11(15(10)23)17(24)25/h7-8H,3-6,9H2,1-2H3,(H,24,25)
Instrument: Q Exactive Plus Orbitrap Thermo Scientific
Instrument type: LC-ESI-QFT
Ms type: MS2
Ion mode: POSITIVE
Ionization: ESI
Fragmentation mode: HCD
Collision energy: 90 (nominal)
Resolution: 35000
Column name: XBridge C18 3.5um, 2.1x50mm, Waters
Retention time: 3.7 min
Base peak: 363.1454
Precursor m/z: 363.1463
Precursor type: [M+H]+
m/z	relative intensity	assigned
51.0229	1	C4H3+
52.0181	1	C3H2N+
53.0022	4	C3HO+
54.0339	2	C3H4N+
55.0179	1	C3H3O+
55.0416	2	C3H5N+
56.0495	105	C3H6N+
57.0573	93	C3H7N+
58.0651	19	C3H8N+
65.0386	1	C5H5+
67.0416	2	C4H5N+
68.0494	4	C4H6N+
69.0573	2	C4H7N+
70.0651	388	C4H8N+
71.0729	13	C4H9N+
72.0807	999	C4H10N+
75.0229	7	C6H3+
78.0338	5	C5H4N+
82.0651	9	C5H8N+
83.029	5	C5H4F+
83.0603	1	C4H7N2+
85.076	16	C4H9N2+
88.0182	4	C6H2N+
89.0385	17	C7H5+
90.0338	1	C6H4N+
92.0494	5	C6H6N+
95.0291	3	C6H4F+
95.0492	3	C6H7O+
96.0245	1	C5H3FN+
96.0368	1	C6H5F+
96.0444	3	C5H6NO+
97.076	2	C5H9N2+
98.0839	1	C5H10N2+
101.0385	1	C3H4FN3+
102.0338	17	C7H4N+
103.0543	15	C8H7+
104.0131	1	C6H2NO+
104.0494	5	C7H6N+
105.0447	1	C6H5N2+
107.0291	27	C7H4F+
108.0243	4	C6H3FN+
108.037	3	C7H5F+
109.0448	47	C7H6F+
110.0402	2	C6H5FN+
113.0398	6	C6H6FO+
114.0342	5	C8H4N+
115.0417	6	C8H5N+
116.0494	26	C8H6N+
117.0573	4	C8H7N+
118.0289	1	C7H4NO+
119.0491	1	C8H7O+
120.0444	8	C7H6NO+
121.0323	4	C7H4FN+
121.0394	1	C6H5N2O+
121.0448	1	C8H6F+
122.0401	227	C7H5FN+
123.0239	3	C7H4FO+
123.0353	14	C6H4FN2+
124.0192	2	C6H3FNO+
124.0557	1	C7H7FN+
126.0347	1	C6H5FNO+
128.0495	23	C9H6N+
129.0447	56	C8H5N2+
129.0572	6	C9H7N+
130.0288	19	C8H4NO+
130.04	8	C7H4N3+
130.0652	27	C9H8N+
132.0244	8	C8H3FN+
132.0445	4	C8H6NO+
133.0448	8	C9H6F+
134.04	34	C8H5FN+
134.06	10	C8H8NO+
135.0241	5	C8H4FO+
135.0478	36	C8H6FN+
136.0557	71	C8H7FN+
137.0511	1	C7H6FN2+
138.035	11	C7H5FNO+
140.0495	10	C10H6N+
142.0289	1	C9H4NO+
142.0526	4	C9H6N2+
143.0241	1	C8H3N2O+
143.0366	10	C9H5NO+
143.0603	3	C9H7N2+
144.0444	18	C9H6NO+
144.0557	3	C8H6N3+
146.0401	8	C9H5FN+
147.0353	15	C8H4FN2+
147.0479	7	C9H6FN+
148.0192	5	C8H3FNO+
148.0557	52	C9H7FN+
149.0273	2	C8H4FNO+
149.0401	1	C9H6FO+
149.051	15	C8H6FN2+
150.035	42	C8H5FNO+
151.0302	3	C7H4FN2O+
151.0429	4	C8H6FNO+
152.0506	3	C8H7FNO+
155.0607	5	C10H7N2+
156.0443	5	C10H6NO+
156.0681	5	C10H8N2+
157.0397	67	C9H5N2O+
157.052	6	C5H6FN4O+
158.0237	31	C9H4NO2+
158.0401	3	C10H5FN+
158.06	20	C10H8NO+
159.0354	9	C9H4FN2+
159.0549	1	C9H7N2O+
160.0556	5	C10H7FN+
161.0515	1	C9H6FN2+
162.035	20	C9H5FNO+
163.0304	17	C8H4FN2O+
163.0428	36	C9H6FNO+
163.0664	2	C9H8FN2+
164.0506	57	C9H7FNO+
165.0459	1	C8H6FN2O+
167.0605	2	C11H7N2+
171.0552	13	C10H7N2O+
173.0507	4	C10H6FN2+
174.0351	12	C10H5FNO+
175.0302	4	C9H4FN2O+
175.0429	2	C10H6FNO+
176.0387	5	C9H5FN2O+
176.0506	24	C10H7FNO+
177.0466	4	C9H6FN2O+
177.0584	8	C10H8FNO+
178.0299	26	C9H5FNO2+
178.0662	1	C10H9FNO+
179.0252	3	C8H4FN2O2+
179.0376	1	C9H6FNO2+
180.0455	7	C9H7FNO2+
182.0713	1	C11H8N3+
183.0556	4	C11H7N2O+
184.0631	6	C11H8N2O+
185.0346	12	C10H5N2O2+
185.0707	6	C11H9N2O+
186.0347	3	C11H5FNO+
187.0307	4	C10H4FN2O+
187.0666	1	C11H8FN2+
188.0507	8	C11H7FNO+
189.0462	7	C10H6FN2O+
190.0301	4	C10H5FNO2+
190.0536	11	C10H7FN2O+
191.0376	17	C10H6FNO2+
192.0454	26	C10H7FNO2+
193.0172	5	C9H4FNO3+
198.0665	1	C11H8N3O+
201.0456	1	C14H5N2+
203.0252	8	C10H4FN2O2+
204.0333	2	C10H5FN2O2+
204.0456	25	C11H7FNO2+
205.0409	28	C10H6FN2O2+
205.0533	5	C11H8FNO2+
206.0615	2	C11H9FNO2+
208.0401	1	C10H7FNO3+
211.0739	2	C12H9N3O+
215.0616	4	C12H8FN2O+
216.0463	1	C12H7FNO2+
218.0247	1	C11H5FNO3+
218.049	1	C11H7FN2O2+
231.0199	3	C11H4FN2O3+
231.057	1	C12H8FN2O2+
231.0803	1	C12H10FN3O+
236.0354	2	C11H7FNO4+
248.0348	1	C12H7FNO4+
249.031	6	C11H6FN2O4+
262.0387	2	C12H7FN2O4+
