Mass spectrum: Flumequine; LC-ESI-QFT; MS2; CE: 60; R=35000; [M+H]+
Name: Flumequine
Name: 9-Fluoro-5-methyl-1-oxo-6,7-dihydro-1H,5H-pyrido[3,2,1-ij]quinoline-2-carboxylic acid
Formula: C14H12FNO3
Exact mass: 261.08012
SMILES: CC1CCC2=C3N1C=C(C(=O)C3=CC(=C2)F)C(=O)O
InChI: InChI=1S/C14H12FNO3/c1-7-2-3-8-4-9(15)5-10-12(8)16(7)6-11(13(10)17)14(18)19/h4-7H,2-3H2,1H3,(H,18,19)
Instrument: Q Exactive Plus Orbitrap Thermo Scientific
Instrument type: LC-ESI-QFT
Ms type: MS2
Ion mode: POSITIVE
Ionization: ESI
Fragmentation mode: HCD
Collision energy: 60 (nominal)
Resolution: 35000
Column name: XBridge C18 3.5um, 2.1x50mm, Waters
Retention time: 7.3 min
Base peak: 262.0868
Precursor m/z: 262.0874
Precursor type: [M+H]+
m/z	relative intensity	assigned
53.0022	2	C3HO+
146.0399	2	C9H5FN+
148.0556	5	C9H7FN+
161.0635	1	C10H8FN+
174.035	30	C10H5FNO+
176.087	19	C11H11FN+
200.087	7	C13H11FN+
201.0583	1	C12H8FNO+
202.0298	549	C11H5FNO2+
203.0375	2	C11H6FNO2+
216.0459	4	C12H7FNO2+
216.082	9	C13H11FNO+
220.0405	510	C11H7FNO3+
221.0484	3	C11H8FNO3+
229.0531	1	C13H8FNO2+
234.0562	15	C12H9FNO3+
238.0511	89	C11H9FNO4+
244.0768	999	C14H11FNO2+
252.0665	9	C12H11FNO4+
262.0874	724	C14H13FNO3+
264.0918	1	C13H13FN2O3+
276.1029	15	
