Mass spectrum: Fenpropimorph; LC-ESI-ITFT; MS2; CE: 45%; R=15000; [M+H]+
Name: Fenpropimorph
Name: (2S,6R)-4-[3-(4-tert-butylphenyl)-2-methyl-propyl]-2,6-dimethyl-morpholine
Formula: C20H33NO
Exact mass: 303.2557
SMILES: CC1CN(CC(O1)C)CC(C)CC2=CC=C(C=C2)C(C)(C)C
InChI: InChI=1S/C20H33NO/c1-15(12-21-13-16(2)22-17(3)14-21)11-18-7-9-19(10-8-18)20(4,5)6/h7-10,15-17H,11-14H2,1-6H3/t15?,16-,17+
Instrument: LTQ Orbitrap XL Thermo Scientific
Instrument type: LC-ESI-ITFT
Ms type: MS2
Ion mode: POSITIVE
Ionization: ESI
Fragmentation mode: HCD
Collision energy: 45 % (nominal)
Resolution: 15000
Column name: XBridge C18 3.5um, 2.1x50mm, Waters
Retention time: 9.4 min
Base peak: 304.2639
Precursor m/z: 304.2635
Precursor type: [M+H]+
m/z	relative intensity	assigned
57.0698	9	C4H9+
91.0542	2	C7H7+
98.0964	32	C6H12N+
100.1118	1	C6H14N+
102.0912	1	C5H12NO+
105.0698	2	C8H9+
112.112	2	C7H14N+
114.0915	1	C6H12NO+
116.107	81	C6H14NO+
117.0697	1	C9H9+
119.0852	1	C9H11+
130.1226	91	C7H16NO+
133.1013	1	C10H13+
147.1168	179	C11H15+
161.1322	5	C12H17+
189.1637	22	C14H21+
248.2003	4	C16H26NO+
304.2634	999	C20H34NO+
