Mass spectrum: Imatinib; LC-ESI-QFT; MS2; CE: 45; R=35000; [M-H]-
Name: Imatinib
Name: 4-[(4-methylpiperazin-1-yl)methyl]-N-[4-methyl-3-[(4-pyridin-3-ylpyrimidin-2-yl)amino]phenyl]benzamide
Formula: C29H31N7O
Exact mass: 493.25901
SMILES: CC1=C(C=C(C=C1)NC(=O)C2=CC=C(C=C2)CN3CCN(CC3)C)NC4=NC=CC(=N4)C5=CN=CC=C5
InChI: InChI=1S/C29H31N7O/c1-21-5-10-25(18-27(21)34-29-31-13-11-26(33-29)24-4-3-12-30-19-24)32-28(37)23-8-6-22(7-9-23)20-36-16-14-35(2)15-17-36/h3-13,18-19H,14-17,20H2,1-2H3,(H,32,37)(H,31,33,34)
Instrument: Q Exactive Plus Orbitrap Thermo Scientific
Instrument type: LC-ESI-QFT
Ms type: MS2
Ion mode: NEGATIVE
Ionization: ESI
Fragmentation mode: HCD
Collision energy: 45 (nominal)
Resolution: 35000
Column name: XBridge C18 3.5um, 2.1x50mm, Waters
Retention time: 5.8 min
Base peak: 171.0666
Precursor m/z: 492.2517
Precursor type: [M-H]-
m/z	relative intensity	assigned
65.0145	2	C3HN2-
142.0411	2	C8H4N3-
144.0567	1	C8H6N3-
147.0564	24	C8H7N2O-
155.0495	1	C9H5N3-
157.0405	5	C9H5N2O-
169.0519	78	C9H5N4-
171.0563	7	C10H7N2O-
171.0676	13	C9H7N4-
171.0801	12	C10H9N3-
172.0517	66	C9H6N3O-
195.0674	1	C11H7N4-
198.0673	91	C11H8N3O-
207.0801	1	C13H9N3-
234.0673	8	C14H8N3O-
235.1001	1	C14H11N4-
237.1034	2	C15H13N2O-
238.1116	1	C15H14N2O-
247.0985	1	C15H11N4-
248.1071	9	C15H12N4-
249.1031	6	C16H13N2O-
259.0987	86	C16H11N4-
260.0941	6	C15H10N5-
263.1063	10	C16H13N3O-
264.1142	793	C16H14N3O-
274.1099	11	C16H12N5-
275.0938	63	C16H11N4O-
275.1178	73	C16H13N5-
276.1254	85	C16H14N5-
277.1087	2	C16H13N4O-
285.078	12	C17H9N4O-
288.1151	1	C18H14N3O-
289.1221	4	C18H15N3O-
302.1048	999	C17H12N5O-
314.1173	1	C19H14N4O-
315.125	2	C19H15N4O-
335.1881	11	C20H23N4O-
350.1533	3	C23H18N4-
362.1999	2	C21H24N5O-
365.1408	5	C23H17N4O-
374.1416	1	C24H16N5-
377.1407	4	C24H17N4O-
378.136	22	C23H16N5O-
388.2143	58	C23H26N5O-
392.1517	53	C24H18N5O-
393.1594	705	C24H19N5O-
394.1671	17	C24H20N5O-
419.1613	2	C25H19N6O-
421.1782	57	C25H21N6O-
425.1494	221	C22H17N8O2-
465.2409	33	C28H29N6O-
492.2517	899	C29H30N7O-
