Mass spectrum: Halosulfuron-Methyl; LC-ESI-QFT; MS2; CE: 180%; R=17500; [M-H]-
Name: Halosulfuron-Methyl
Name: methyl 3-chloro-5-[(4,6-dimethoxypyrimidin-2-yl)carbamoylsulfamoyl]-1-methylpyrazole-4-carboxylate
Formula: C13H15ClN6O7S
Exact mass: 434.0411
SMILES: CN1C(=C(C(=N1)Cl)C(=O)OC)S(=O)(=O)NC(=O)NC2=NC(=CC(=N2)OC)OC
InChI: InChI=1S/C13H15ClN6O7S/c1-20-10(8(9(14)18-20)11(21)27-4)28(23,24)19-13(22)17-12-15-6(25-2)5-7(16-12)26-3/h5H,1-4H3,(H2,15,16,17,19,22)
Instrument: Exploris 240 Orbitrap Thermo Scientific
Instrument type: LC-ESI-QFT
Ms type: MS2
Ion mode: NEGATIVE
Ionization: ESI
Fragmentation mode: HCD
Collision energy: 180 % (nominal)
Resolution: 17500
Column name: XBridge C18 3.5um, 2.1x50mm, Waters
Retention time: 10.035 min
Base peak: 433.0339
Precursor m/z: 433.0339
Precursor type: [M-H]-
m/z	relative intensity	assigned
63.9624	230	O2S-
64.0067	32	C3N2-
65.0145	129	C3HN2-
65.9985	999	C3NO-
77.9655	421	NO2S-
90.0101	28	C4N3-
