Mass spectrum: Chlorthalidone; LC-ESI-QFT; MS2; CE: 75; R=35000; [M+H]+
Name: Chlorthalidone
Name: Chlortalidone
Name: 2-chloranyl-5-(1-oxidanyl-3-oxidanylidene-2H-isoindol-1-yl)benzenesulfonamide
Formula: C14H11ClN2O4S
Exact mass: 338.01281
SMILES: O=S(=O)(N)c1c(Cl)ccc(c1)C2(O)c3ccccc3C(=O)N2
InChI: InChI=1S/C14H11ClN2O4S/c15-11-6-5-8(7-12(11)22(16,20)21)14(19)10-4-2-1-3-9(10)13(18)17-14/h1-7,19H,(H,17,18)(H2,16,20,21)
Instrument: Q Exactive Orbitrap Thermo Scientific
Instrument type: LC-ESI-QFT
Ms type: MS2
Ion mode: POSITIVE
Ionization: ESI
Fragmentation mode: HCD
Collision energy: 75 (nominal)
Resolution: 35000
Column name: XBridge C18 3.5um, 2.1x50mm, Waters
Retention time: 5.6 min
Base peak: 321.9937
Precursor m/z: 339.0201
Precursor type: [M+H]+
m/z	relative intensity	assigned
63.9852	33	H2NOS+
75.0228	2	C6H3+
77.0384	3	C6H5+
79.9801	831	H2NO2S+
95.0491	30	C6H7O+
97.9905	3	H4NO3S+
98.9996	1	C5H4Cl+
99.0222	1	H7N2O2S+
105.0335	143	C7H5O+
105.0447	7	C6H5N2+
115.054	8	C9H7+
119.0127	3	C7H3O2+
120.0442	1	C7H6NO+
125.0384	7	C10H5+
126.0463	64	C10H6+
127.0543	31	C10H7+
129.0102	2	C6H6ClO+
130.0288	33	C8H4NO+
138.9945	40	C7H4ClO+
139.0542	171	C11H7+
140.0494	10	C10H6N+
140.0622	4	C11H8+
143.0492	9	C10H7O+
144.0081	32	C8H2NO2+
144.0569	6	C10H8O+
145.0649	31	C10H9O+
148.0393	66	C8H6NO2+
149.0386	17	C12H5+
150.0465	468	C12H6+
151.0543	164	C12H7+
152.0621	857	C12H8+
152.974	3	C7H2ClO2+
153.0335	62	C11H5O+
154.0054	8	C7H5ClNO+
154.0413	12	C11H6O+
154.0648	1	C11H8N+
154.9893	18	C7H4ClO2+
155.0493	21	C11H7O+
155.0603	41	C10H7N2+
161.0153	211	C10H6Cl+
166.0652	26	C12H8N+
167.0492	118	C12H7O+
167.0729	72	C12H9N+
168.057	136	C12H8O+
169.0648	52	C12H9O+
173.0153	8	C11H6Cl+
175.0309	38	C11H8Cl+
177.0334	3	C13H5O+
177.0573	51	C13H7N+
179.0258	51	C10H8ClO+
179.0491	94	C13H7O+
179.0606	11	C12H7N2+
179.9848	7	C8H3ClNO2+
180.057	48	C13H8O+
181.0284	20	C12H5O2+
182.0363	39	C12H6O2+
183.0441	10	C12H7O2+
185.0154	999	C12H6Cl+
186.0231	282	C12H7Cl+
187.031	33	C12H8Cl+
189.0103	175	C11H6ClO+
189.0213	158	C10H6ClN2+
194.06	21	C13H8NO+
195.0442	112	C13H7O2+
195.0679	91	C13H9NO+
196.0519	95	C13H8O2+
197.0598	78	C13H9O2+
201.0103	7	C12H6ClO+
202.0181	10	C12H7ClO+
203.0258	590	C12H8ClO+
205.0287	6	C11H8ClNO+
207.0442	130	C14H7O2+
207.0553	39	C13H7N2O+
213.0102	177	C13H6ClO+
213.0214	238	C12H6ClN2+
214.018	194	C13H7ClO+
215.0258	25	C13H8ClO+
217.0054	6	C12H6ClO2+
217.9674	6	C7H5ClNO3S+
218.0129	10	C12H7ClO2+
222.055	38	C14H8NO2+
223.0395	16	C11H10ClNO2+
223.0628	141	C14H9NO2+
224.047	31	C14H8O3+
225.0545	9	C14H9O3+
230.0371	2	C13H9ClNO+
231.0208	275	C13H8ClO2+
241.0052	162	C14H6ClO2+
241.0166	88	C13H6ClN2O+
242.0131	31	C6H11ClN2O4S+
243.0209	761	C14H8ClO2+
258.0317	29	C14H9ClNO2+
259.0158	64	C14H8ClO3+
274.0031	16	C14H7ClO4+
304.9682	1	C14H6ClO4S+
