Mass spectrum: Clopidogrel carboxylic acid; LC-ESI-ITFT; MS2; CE: 35%; R=30000; [M+H]+
Name: Clopidogrel carboxylic acid
Name: 2-(2-chlorophenyl)-2-(6,7-dihydro-4H-thieno[3,2-c]pyridin-5-yl)acetic acid
Formula: C15H14ClNO2S
Exact mass: 307.0434
SMILES: C1CN(CC2=C1SC=C2)C(C3=CC=CC=C3Cl)C(=O)O
InChI: InChI=1S/C15H14ClNO2S/c16-12-4-2-1-3-11(12)14(15(18)19)17-7-5-13-10(9-17)6-8-20-13/h1-4,6,8,14H,5,7,9H2,(H,18,19)
Instrument: LTQ Orbitrap XL Thermo Scientific
Instrument type: LC-ESI-ITFT
Ms type: MS2
Ion mode: POSITIVE
Ionization: ESI
Fragmentation mode: CID
Collision energy: 35 % (nominal)
Resolution: 30000
Column name: XBridge C18 3.5um, 2.1x50mm, Waters
Retention time: 5.7 min
Base peak: 308.0518
Precursor m/z: 308.0507
Precursor type: [M+H]+
m/z	relative intensity	assigned
111.0264	3	C6H7S+
125.0153	3	C7H6Cl+
125.0419	3	C7H9S+
152.0262	42	C8H7ClN+
169.0051	10	C8H6ClO2+
170.0368	51	C8H9ClNO+
198.0317	999	C9H9ClNO2+
262.0452	4	C14H13ClNS+
310.0532	1	C14H15ClN2O2S+
