Mass spectrum: Amidithion; LC-ESI-QFT; MS2; CE: 60%; R=17500; [M+H]+
Name: Amidithion
Name: 2-dimethoxyphosphinothioylsulfanyl-N-(2-methoxyethyl)acetamide
Formula: C7H16NO4PS2
Exact mass: 273.0258
SMILES: COCCNC(=O)CSP(=S)(OC)OC
InChI: InChI=1S/C7H16NO4PS2/c1-10-5-4-8-7(9)6-15-13(14,11-2)12-3/h4-6H2,1-3H3,(H,8,9)
Instrument: Exploris 240 Orbitrap Thermo Scientific
Instrument type: LC-ESI-QFT
Ms type: MS2
Ion mode: POSITIVE
Ionization: ESI
Fragmentation mode: HCD
Collision energy: 60 % (nominal)
Resolution: 17500
Column name: XBridge C18 3.5um, 2.1x50mm, Waters
Retention time: 4.721 min
Base peak: 274.0331
Precursor m/z: 274.0331
Precursor type: [M+H]+
m/z	relative intensity	assigned
59.0492	150	C3H7O+
62.0185	13	C2H6S+
76.0758	10	C3H10NO+
78.9944	64	CH4O2P+
93.01	37	C2H6O2P+
116.0164	259	C4H6NOS+
124.982	999	C2H6O2PS+
142.9926	208	C2H8O3PS+
156.9541	106	C2H6O2PS2+
157.0082	33	C3H10O3PS+
170.9698	114	C3H8O2PS2+
