Mass spectrum: N-Nitrosofenfluramine; LC-ESI-QFT; MS2; CE: 15; R=35000; [M+H]+
Name: N-Nitrosofenfluramine
Name: N-Ethyl-N-nitroso-1-[3-(trifluoromethyl)phenyl]-2-propanamine
Formula: C12H15F3N2O
Exact mass: 260.11365
SMILES: CCN(C(C)Cc1cccc(c1)C(F)(F)F)N=O
InChI: InChI=1S/C12H15F3N2O/c1-3-17(16-18)9(2)7-10-5-4-6-11(8-10)12(13,14)15/h4-6,8-9H,3,7H2,1-2H3
Instrument: Q Exactive Plus Orbitrap Thermo Scientific
Instrument type: LC-ESI-QFT
Ms type: MS2
Ion mode: POSITIVE
Ionization: ESI
Fragmentation mode: HCD
Collision energy: 15 (nominal)
Resolution: 35000
Column name: XBridge C18 3.5um, 2.1x50mm, Waters
Retention time: 10.0 min
Base peak: 261.1206
Precursor m/z: 261.1209
Precursor type: [M+H]+
m/z	relative intensity	assigned
59.0491	2	C3H7O+
75.0552	174	C2H7N2O+
109.0445	1	C7H6F+
147.0603	1	C10H8F+
159.0415	517	C8H6F3+
167.0666	7	C10H9F2+
185.0773	3	C10H11F2O+
187.0728	999	C10H10F3+
210.1088	65	C12H14F2N+
211.1166	72	C12H15F2N+
219.1127	10	C12H15N2O2+
237.1232	33	
261.1208	294	C12H16F3N2O+
