Mass spectrum: Fensulfothion; LC-ESI-QFT; MS2; CE: 75%; R=17500; [M+H]+
Name: Fensulfothion
Name: diethoxy-(4-methylsulfinylphenoxy)-sulfanylidene-lambda5-phosphane
Formula: C11H17O4PS2
Exact mass: 308.0306
SMILES: CCOP(=S)(OCC)OC1=CC=C(C=C1)S(=O)C
InChI: InChI=1S/C11H17O4PS2/c1-4-13-16(17,14-5-2)15-10-6-8-11(9-7-10)18(3)12/h6-9H,4-5H2,1-3H3
Instrument: Exploris 240 Orbitrap Thermo Scientific
Instrument type: LC-ESI-QFT
Ms type: MS2
Ion mode: POSITIVE
Ionization: ESI
Fragmentation mode: HCD
Collision energy: 75 % (nominal)
Resolution: 17500
Column name: XBridge C18 3.5um, 2.1x50mm, Waters
Retention time: 7.188 min
Base peak: 309.0377
Precursor m/z: 309.0379
Precursor type: [M+H]+
m/z	relative intensity	assigned
62.99	47	CH3OS+
80.9737	43	H2O3P+
94.0413	444	C6H6O+
96.9506	221	H2O2PS+
98.9843	77	H4O4P+
110.0183	295	C6H6S+
111.0263	25	C6H7S+
125.0054	203	C6H5OS+
139.0211	124	C7H7OS+
139.9748	52	C6H4S2+
140.029	999	C7H8OS+
140.9828	59	C6H5S2+
142.0082	537	C6H6O2S+
154.9984	169	C7H7S2+
155.9703	110	C6H4OS2+
156.0062	722	C7H8S2+
156.9777	86	C6H5OS2+
157.0317	656	C7H9O2S+
157.9854	344	C6H6OS2+
170.9937	28	C7H7OS2+
171.9751	33	C6H5O2PS+
172.0006	44	C7H8OS2+
173.0089	336	C7H9OS2+
189.9851	49	C6H7O3PS+
201.9846	74	C7H7O3PS+
202.9925	33	C7H8O3PS+
203.9641	47	C6H5O4PS+
217.9621	153	C7H7O2PS2+
218.987	137	C7H8O4PS+
219.9417	112	C6H5O3PS2+
219.9953	95	C7H9O4PS+
234.9646	277	C7H8O3PS2+
237.9527	40	C6H7O4PS2+
