Mass spectrum: Benfuracarb; LC-ESI-QFT; MS2; CE: 120%; R=17500; [M+H]+
Name: Benfuracarb
Name: ethyl 3-[[(2,2-dimethyl-3H-1-benzofuran-7-yl)oxycarbonyl-methylamino]sulfanyl-propan-2-ylamino]propanoate
Formula: C20H30N2O5S
Exact mass: 410.1875
SMILES: CCOC(=O)CCN(C(C)C)SN(C)C(=O)OC1=CC=CC2=C1OC(C2)(C)C
InChI: InChI=1S/C20H30N2O5S/c1-7-25-17(23)11-12-22(14(2)3)28-21(6)19(24)26-16-10-8-9-15-13-20(4,5)27-18(15)16/h8-10,14H,7,11-13H2,1-6H3
Instrument: Exploris 240 Orbitrap Thermo Scientific
Instrument type: LC-ESI-QFT
Ms type: MS2
Ion mode: POSITIVE
Ionization: ESI
Fragmentation mode: HCD
Collision energy: 120 % (nominal)
Resolution: 17500
Column name: XBridge C18 3.5um, 2.1x50mm, Waters
Retention time: 12.809 min
Base peak: 411.1952
Precursor m/z: 411.1948
Precursor type: [M+H]+
m/z	relative intensity	assigned
53.0386	377	C4H5+
55.0178	271	C3H3O+
56.0495	90	C3H6N+
56.9794	95	C2HS+
58.0287	235	C2H4NO+
58.995	66	C2H3S+
59.9903	60	CH2NS+
65.0386	103	C5H5+
67.0177	122	C4H3O+
67.0543	62	C5H7+
68.9792	31	C3HS+
70.0651	161	C4H8N+
73.0283	120	C3H5O2+
74.0058	389	C2H4NS+
77.0388	76	C6H5+
79.0542	221	C6H7+
81.0335	613	C5H5O+
81.0702	62	C6H9+
84.9743	611	C3HOS+
90.0372	65	C3H8NS+
91.0543	322	C7H7+
95.0494	85	C6H7O+
97.0106	550	C5H5S+
102.0011	45	C3H4NOS+
103.0543	84	C8H7+
105.0449	47	C6H5N2+
105.0698	130	C8H9+
109.0284	717	C6H5O2+
111.0268	33	C6H7S+
115.0542	999	C9H7+
116.062	660	C9H8+
119.0492	61	C8H7O+
123.0444	78	C7H7O2+
133.0647	36	C9H9O+
134.0188	102	C8H6S+
144.057	100	C10H8O+
147.0439	231	C9H7O2+
161.0598	55	C10H9O2+
