Mass spectrum: Thiamphenicol; LC-ESI-QFT; MS2; CE: 75; R=35000; [M-H]-
Name: Thiamphenicol
Name: 2,2-dichloro-N-[1,3-dihydroxy-1-(4-methylsulfonylphenyl)propan-2-yl]acetamide
Formula: C12H15Cl2NO5S
Exact mass: 355.00480
SMILES: CS(=O)(=O)C1=CC=C(C=C1)C(C(CO)NC(=O)C(Cl)Cl)O
InChI: InChI=1S/C12H15Cl2NO5S/c1-21(19,20)8-4-2-7(3-5-8)10(17)9(6-16)15-12(18)11(13)14/h2-5,9-11,16-17H,6H2,1H3,(H,15,18)
Instrument: Q Exactive Plus Orbitrap Thermo Scientific
Instrument type: LC-ESI-QFT
Ms type: MS2
Ion mode: NEGATIVE
Ionization: ESI
Fragmentation mode: HCD
Collision energy: 75 (nominal)
Resolution: 35000
Column name: XBridge C18 3.5um, 2.1x50mm, Waters
Retention time: 3.5 min
Base peak: 353.9974
Precursor m/z: 353.9975
Precursor type: [M-H]-
m/z	relative intensity	assigned
63.9625	573	O2S-
70.0299	7	C3H4NO-
70.9461	1	Cl2H-
71.014	2	C3H3O2-
78.986	999	CH3O2S-
82.9461	94	CHCl2-
84.0091	45	C3H2NO2-
86.0248	2	C3H4NO2-
92.0268	2	C6H4O-
93.0345	1	C6H5O-
95.014	2	C5H3O2-
105.0346	54	C7H5O-
108.0218	4	C6H4O2-
116.0505	1	C8H6N-
117.035	1	C8H5O-
117.071	2	C9H9-
119.0503	426	C8H7O-
120.0216	1	C7H4O2-
121.0296	455	C7H5O2-
123.0452	3	C7H7O2-
123.999	7	C6H4OS-
128.0507	1	C9H6N-
130.0423	13	C9H6O-
131.0377	8	C8H5NO-
132.0218	1	C8H4O2-
133.0533	18	C8H7NO-
139.9939	17	C6H4O2S-
144.0456	1	C9H6NO-
145.0297	5	C9H5O2-
145.0659	6	C10H9O-
146.0375	5	C9H6O2-
148.0406	33	C8H6NO2-
149.0246	7	C8H5O3-
150.986	1	C7H3O2S-
154.0095	3	C7H6O2S-
155.0174	98	C7H7O2S-
168.9966	423	C7H5O3S-
170.0044	25	C7H6O3S-
179.0048	1	C8H5NO2S-
183.0123	2	C8H7O3S-
184.0198	1	C8H8O3S-
185.0277	11	C8H9O3S-
194.0281	1	C9H8NO2S-
196.0079	4	C8H6NO3S-
197.0153	17	C8H7NO3S-
199.0071	1	C8H7O4S-
212.0392	1	C9H10NO3S-
