Mass spectrum: Dihydrocodeine; LC-ESI-QFT; MS2; CE: 75; R=35000; [M+H]+
Name: Dihydrocodeine
Name: (4R,4aR,7S,7aR,12bS)-9-methoxy-3-methyl-2,4,4a,5,6,7,7a,13-octahydro-1H-4,12-methanobenzofuro[3,2-e]isoquinoline-7-ol
Formula: C18H23NO3
Exact mass: 301.16779
SMILES: CN1CC[C@]23[C@@H]4[C@H]1CC5=C2C(=C(C=C5)OC)O[C@H]3[C@H](CC4)O
InChI: InChI=1S/C18H23NO3/c1-19-8-7-18-11-4-5-13(20)17(18)22-16-14(21-2)6-3-10(15(16)18)9-12(11)19/h3,6,11-13,17,20H,4-5,7-9H2,1-2H3/t11-,12+,13-,17-,18-/m0/s1
Instrument: Q Exactive Orbitrap Thermo Scientific
Instrument type: LC-ESI-QFT
Ms type: MS2
Ion mode: POSITIVE
Ionization: ESI
Fragmentation mode: HCD
Collision energy: 75 (nominal)
Resolution: 35000
Column name: XBridge C18 3.5um, 2.1x50mm, Waters
Retention time: 2.6 min
Base peak: 302.1753
Precursor m/z: 302.1751
Precursor type: [M+H]+
m/z	relative intensity	assigned
55.0179	1	C3H3O+
57.0336	8	C3H5O+
58.0652	6	C3H8N+
65.0385	1	C5H5+
67.0542	16	C5H7+
70.0652	2	C4H8N+
71.0491	3	C4H7O+
77.0385	1	C6H5+
79.0542	11	C6H7+
81.0699	3	C6H9+
83.0491	6	C5H7O+
84.0808	3	C5H10N+
91.0542	20	C7H7+
93.0698	2	C7H9+
94.0412	1	C6H6O+
94.0653	1	C6H8N+
95.049	2	C6H7O+
95.0857	1	C7H11+
96.0807	2	C6H10N+
102.0467	1	C8H6+
103.0543	18	C8H7+
105.0699	7	C8H9+
107.0492	7	C7H7O+
115.0542	54	C9H7+
117.07	8	C9H9+
119.0495	2	C8H7O+
119.0855	2	C9H11+
121.0647	17	C8H9O+
122.0364	1	C7H6O2+
127.0543	1	C10H7+
128.062	105	C10H8+
129.0699	82	C10H9+
130.0778	8	C10H10+
131.0492	29	C9H7O+
131.0858	6	C10H11+
132.081	1	C9H10N+
133.0649	3	C9H9O+
137.0597	67	C8H9O2+
139.0539	1	C11H7+
141.0699	198	C11H9+
142.0777	17	C11H10+
143.0493	38	C10H7O+
143.0857	29	C11H11+
144.0571	40	C10H8O+
145.0649	29	C10H9O+
145.1013	3	C11H13+
146.0365	8	C9H6O2+
146.0726	3	C10H10O+
146.0965	1	C10H12N+
147.0441	2	C9H7O2+
147.0806	14	C10H11O+
151.0756	7	C9H11O2+
152.0621	48	C12H8+
153.0699	69	C12H9+
154.0778	14	C12H10+
155.0492	18	C11H7O+
155.0606	8	C10H7N2+
155.0856	65	C12H11+
156.057	73	C11H8O+
157.0649	61	C11H9O+
157.1013	24	C12H13+
158.0727	238	C11H10O+
159.0442	5	C10H7O2+
159.0805	63	C11H11O+
160.0521	9	C10H8O2+
161.0598	127	C10H9O2+
161.0961	24	C11H13O+
162.0676	2	C10H10O2+
163.0754	14	C10H11O2+
165.07	196	C13H9+
166.0777	23	C13H10+
167.0856	163	C13H11+
168.0572	24	C12H8O+
168.0935	7	C13H12+
169.0649	55	C12H9O+
169.0759	21	C11H9N2+
169.1013	10	C13H13+
170.0729	18	C12H10O+
171.0805	612	C12H11O+
172.0518	21	C11H8O2+
172.0883	3	C12H12O+
173.0962	191	C12H13O+
174.0675	11	C11H10O2+
175.0754	32	C11H11O2+
176.0622	8	C14H8+
176.0832	2	C11H12O2+
177.07	58	C14H9+
178.0777	19	C14H10+
179.0699	2	C10H11O3+
179.0855	6	C14H11+
180.0573	2	C13H8O+
181.0648	43	C13H9O+
181.1015	8	C14H13+
182.0727	23	C13H10O+
183.0443	17	C12H7O2+
183.0806	161	C13H11O+
184.0521	29	C12H8O2+
184.0883	54	C13H12O+
185.0598	44	C12H9O2+
185.0962	54	C13H13O+
186.0677	63	C12H10O2+
187.0754	64	C12H11O2+
189.0911	57	C12H13O2+
191.0854	3	C15H11+
193.0649	26	C14H9O+
193.0738	1	C10H11NO3+
193.0754	1	C13H9N2+
193.1017	8	C15H13+
194.0727	43	C14H10O+
195.0806	141	C14H11O+
196.0884	57	C14H12O+
197.0599	29	C13H9O2+
197.0964	23	C14H13O+
198.0676	62	C13H10O2+
199.0754	999	C13H11O2+
200.083	8	C13H12O2+
201.0909	260	C13H13O2+
202.0776	2	C16H10+
202.0864	3	C12H12NO2+
203.085	4	C16H11+
203.1067	6	C13H15O2+
205.0762	2	C14H9N2+
206.0729	1	C15H10O+
209.0599	2	C14H9O2+
209.0962	17	C15H13O+
210.0676	8	C14H10O2+
211.0756	26	C14H11O2+
212.0832	42	C14H12O2+
213.091	32	C14H13O2+
214.0629	12	C13H10O3+
214.0992	3	C14H14O2+
215.1067	14	C14H15O2+
216.1022	2	C13H14NO2+
217.1101	6	C13H15NO2+
217.1225	12	C14H17O2+
221.0962	9	C16H13O+
222.104	3	C16H14O+
223.0754	7	C15H11O2+
225.0911	46	C15H13O2+
227.1068	107	C15H15O2+
228.1022	7	C14H14NO2+
229.0863	2	C14H13O3+
243.1018	28	C15H15O3+
245.1177	19	C15H17O3+
268.134	9	C17H18NO2+
269.1418	2	C17H19NO2+
284.1653	2	C18H22NO2+
302.1753	40	C18H24NO3+
