Mass spectrum: Ranitidine; LC-ESI-ITFT; MS2; CE: 45%; R=7500; [M+H]+
Name: Ranitidine
Name: 1,1-Ethenediamine, N-(2-(((5-((dimethylamino)methyl)-2-furanyl)methyl)thio)ethyl)-N'-methyl-2-nitro-
Name: 1-N'-[2-[[5-(dimethylaminomethyl)furan-2-yl]methylsulfanyl]ethyl]-1-N-methyl-2-nitroethene-1,1-diamine
Formula: C13H22N4O3S
Exact mass: 314.1413
SMILES: CN\C(NCCSCC1=CC=C(CN(C)C)O1)=C/[N+]([O-])=O
InChI: InChI=1S/C13H22N4O3S/c1-14-13(9-17(18)19)15-6-7-21-10-12-5-4-11(20-12)8-16(2)3/h4-5,9,14-15H,6-8,10H2,1-3H3/b13-9+
Instrument: LTQ Orbitrap XL Thermo Scientific
Instrument type: LC-ESI-ITFT
Ms type: MS2
Ion mode: POSITIVE
Ionization: ESI
Fragmentation mode: HCD
Collision energy: 45 % (nominal)
Resolution: 7500
Column name: XBridge C18 3.5um, 2.1x50mm, Waters
Retention time: 1.9 min
Base peak: 315.1494
Precursor m/z: 315.1485
Precursor type: [M+H]+
m/z	relative intensity	assigned
71.0603	11	C3H7N2+
81.0335	156	C5H5O+
83.0601	36	C4H7N2+
84.0683	32	C4H8N2+
88.0213	36	C3H6NS+
95.049	54	C6H7O+
97.076	175	C5H9N2+
98.0838	391	C5H10N2+
102.0372	869	C4H8NS+
110.0599	16	C6H8NO+
110.0965	78	C7H12N+
114.0791	15	C5H10N2O+
115.033	19	C4H7N2S+
117.0483	25	C4H9N2S+
118.032	41	C4H8NOS+
124.0757	113	C7H10NO+
125.0055	878	C6H5OS+
129.0479	40	C5H9N2S+
130.0558	627	C5H10N2S+
135.0262	12	C8H7S+
135.0918	44	C8H11N2+
138.0914	66	C8H12NO+
144.0768	57	C5H10N3O2+
145.0435	21	C5H9N2OS+
148.0754	69	C9H10NO+
149.0707	17	C8H9N2O+
153.037	69	C8H9OS+
154.0563	12	C7H10N2S+
164.0942	50	C9H12N2O+
165.1022	149	C9H13N2O+
167.0637	62	C8H11N2S+
170.0632	84	C8H12NOS+
176.0487	999	C5H10N3O2S+
177.1021	92	C10H13N2O+
178.032	11	C9H8NOS+
178.1105	42	C10H14N2O+
181.0794	125	C9H13N2S+
191.1178	271	C11H15N2O+
192.0481	37	C10H10NOS+
193.0553	82	C10H11NOS+
194.0636	9	C10H12NOS+
209.0742	9	C10H13N2OS+
223.0899	13	C11H15N2OS+
224.0977	135	C11H16N2OS+
