Mass spectrum: Flubendazole; LC-ESI-QFT; MS2; CE: 90; R=35000; [M-H]-
Name: Flubendazole
Name: Methyl N-[6-(4-fluorobenzoyl)-1H-benzimidazol-2-yl]carbamate
Formula: C16H12FN3O3
Exact mass: 313.08627
SMILES: COC(=O)NC1=NC2=C(N1)C=C(C=C2)C(=O)C3=CC=C(C=C3)F
InChI: InChI=1S/C16H12FN3O3/c1-23-16(22)20-15-18-12-7-4-10(8-13(12)19-15)14(21)9-2-5-11(17)6-3-9/h2-8H,1H3,(H2,18,19,20,22)
Instrument: Q Exactive Plus Orbitrap Thermo Scientific
Instrument type: LC-ESI-QFT
Ms type: MS2
Ion mode: NEGATIVE
Ionization: ESI
Fragmentation mode: HCD
Collision energy: 90 (nominal)
Resolution: 35000
Column name: XBridge C18 3.5um, 2.1x50mm, Waters
Retention time: 8.1 min
Base peak: 280.0527
Precursor m/z: 312.079
Precursor type: [M-H]-
m/z	relative intensity	assigned
50.0036	2	C3N-
64.0068	5	C3N2-
65.0146	30	C3HN2-
65.9986	22	C3NO-
68.0017	5	C2N2O-
68.0143	1	C3H2NO-
78.0224	1	C4H2N2-
87.0115	5	C6HN-
89.0146	8	C5HN2-
90.0225	24	C5H2N2-
91.0065	4	C5HNO-
92.0143	4	C5H2NO-
92.0256	19	C4H2N3-
93.0095	6	C4HN2O-
93.0222	2	C5H3NO-
95.0252	33	C4H3N2O-
101.0147	1	C6HN2-
102.0225	24	C6H2N2-
103.0178	2	C5HN3-
105.0333	10	C5H3N3-
106.0174	131	C5H2N2O-
113.0147	2	C7HN2-
114.0225	15	C7H2N2-
115.0304	68	C7H3N2-
116.0259	2	C6H2N3-
117.0094	1	C6HN2O-
118.0175	4	C6H2N2O-
120.0093	10	C6H2NO2-
128.0255	1	C7H2N3-
129.0335	379	C7H3N3-
130.0174	5	C7H2N2O-
132.0205	14	C6H2N3O-
133.0283	398	C6H3N3O-
134.0125	7	C6H2N2O2-
136.0155	12	C5H2N3O2-
145.0282	15	C7H3N3O-
147.0203	23	C7H3N2O2-
149.0232	57	C6H3N3O2-
156.0207	71	C8H2N3O-
157.0284	999	C8H3N3O-
158.0362	35	C8H4N3O-
160.0155	203	C7H2N3O2-
161.0233	4	C7H3N3O2-
163.031	1	C8H4FN2O-
173.0232	81	C8H3N3O2-
186.0303	3	C9H4N3O2-
188.0101	5	C8H2N3O3-
207.036	1	C13H4FN2-
209.0522	6	C13H6FN2-
210.0367	19	C13H5FNO-
212.0519	1	C13H7FNO-
223.0554	4	C13H6FN3-
224.0395	17	C13H5FN2O-
225.0471	1	C13H6FN2O-
231.0442	2	C14H5N3O-
232.052	6	C14H6N3O-
233.0358	1	C14H5N2O2-
234.0474	4	C14H5FN3-
235.0312	7	C14H4FN2O-
237.0473	24	C14H6FN2O-
242.0359	1	C15H4N3O-
251.0504	16	C14H6FN3O-
252.0345	3	C14H5FN2O2-
252.058	3	C16H9FO2-
253.0423	7	C14H6FN2O2-
260.0471	5	C15H6N3O2-
262.0427	2	C15H5FN3O-
278.0374	43	C15H5FN3O2-
280.0531	193	C15H7FN3O2-
