Mass spectrum: Propazine; LC-ESI-ITFT; MS2; CE: 35%; R=7500; [M+H]+
Name: Propazine
Name: 6-chloranyl-N2,N4-di(propan-2-yl)-1,3,5-triazine-2,4-diamine
Formula: C9H16ClN5
Exact mass: 229.1094
SMILES: c1(nc(nc(n1)Cl)NC(C)C)NC(C)C
InChI: InChI=1S/C9H16ClN5/c1-5(2)11-8-13-7(10)14-9(15-8)12-6(3)4/h5-6H,1-4H3,(H2,11,12,13,14,15)
Instrument: LTQ Orbitrap XL Thermo Scientific
Instrument type: LC-ESI-ITFT
Ms type: MS2
Ion mode: POSITIVE
Ionization: ESI
Fragmentation mode: CID
Collision energy: 35 % (nominal)
Resolution: 7500
Column name: XBridge C18 3.5um, 2.1x50mm, Waters
Retention time: 9.9 min
Base peak: 230.1173
Precursor m/z: 230.1167
Precursor type: [M+H]+
m/z	relative intensity	assigned
104.001	3	C2H3ClN3+
110.0712	3	C5H8N3+
146.0228	99	C3H5ClN5+
152.1184	6	C8H14N3+
172.0377	1	C5H7ClN5+
188.0699	999	C6H11ClN5+
