Mass spectrum: Danofloxacin; LC-ESI-QFT; MS2; CE: 150; R=35000; [M+H]+
Name: Danofloxacin
Name: 1-cyclopropyl-6-fluoro-7-(5-methyl-2-aza-5-azoniabicyclo[2.2.1]heptan-2-yl)-4-oxoquinoline-3-carboxylate
Formula: C19H20FN3O3
Exact mass: 357.14887
SMILES: CN1C[C@@H]2C[C@H]1CN2C3=C(C=C4C(=C3)N(C=C(C4=O)C(=O)O)C5CC5)F
InChI: InChI=1S/C19H20FN3O3/c1-21-7-12-4-11(21)8-22(12)17-6-16-13(5-15(17)20)18(24)14(19(25)26)9-23(16)10-2-3-10/h5-6,9-12H,2-4,7-8H2,1H3,(H,25,26)/t11-,12-/m0/s1
Instrument: Q Exactive Plus Orbitrap Thermo Scientific
Instrument type: LC-ESI-QFT
Ms type: MS2
Ion mode: POSITIVE
Ionization: ESI
Fragmentation mode: HCD
Collision energy: 150 (nominal)
Resolution: 35000
Column name: XBridge C18 3.5um, 2.1x50mm, Waters
Retention time: 4.4 min
Base peak: 164.9843
Precursor m/z: 358.1561
Precursor type: [M+H]+
m/z	relative intensity	assigned
50.0151	20	C4H2+
51.023	31	C4H3+
52.0183	5	C3H2N+
53.0022	334	C3HO+
53.0386	49	C4H5+
53.9975	11	C2NO+
54.0339	38	C3H4N+
55.0179	3	C3H3O+
55.0417	22	C3H5N+
55.0543	64	C4H7+
56.0495	24	C3H6N+
57.0135	50	C3H2F+
57.0573	2	C3H7N+
58.0651	3	C3H8N+
60.0245	2	C2H3FN+
61.0072	2	C5H+
62.0151	11	C5H2+
63.023	40	C5H3+
64.0182	4	C4H2N+
65.0386	103	C5H5+
66.0464	17	C5H6+
67.0417	962	C4H5N+
68.0495	46	C4H6N+
69.0574	3	C4H7N+
70.0088	2	C3HFN+
70.0212	5	C4H3F+
70.0652	51	C4H8N+
74.0151	30	C6H2+
74.0963	3	C4H12N+
75.0229	142	C6H3+
76.018	5	C5H2N+
76.0307	4	C6H4+
77.0385	18	C6H5+
78.0338	13	C5H4N+
78.0463	4	C6H6+
79.0417	25	C5H5N+
79.0542	4	C6H7+
80.0495	282	C5H6N+
81.0136	45	C5H2F+
81.0574	50	C5H7N+
82.0652	999	C5H8N+
83.0291	56	C5H4F+
84.037	12	C5H5F+
84.0808	19	C5H10N+
85.0072	2	C7H+
86.0152	16	C7H2+
87.0105	3	C6HN+
87.023	28	C7H3+
88.0182	29	C6H2N+
88.0308	14	C7H4+
89.0386	58	C7H5+
90.0339	4	C6H4N+
90.0465	10	C7H6+
91.0542	4	C7H7+
92.0257	2	C6H4O+
93.0137	35	C6H2F+
93.0574	4	C6H7N+
94.0213	10	C6H3F+
94.0653	36	C6H8N+
95.0492	48	C6H7O+
96.0371	23	C6H5F+
96.0444	25	C5H6NO+
96.0807	5	C6H10N+
98.0151	9	C8H2+
99.023	102	C8H3+
100.0182	47	C7H2N+
100.0308	13	C8H4+
101.0387	16	C8H5+
102.0338	16	C7H4N+
102.0465	18	C8H6+
103.0416	3	C7H5N+
103.0542	5	C8H7+
104.0495	10	C7H6N+
105.0136	38	C7H2F+
105.0448	39	C6H5N2+
106.0087	14	C6HFN+
106.0214	17	C7H3F+
107.0292	173	C7H4F+
108.0244	16	C6H3FN+
108.0371	28	C7H5F+
109.0283	15	C6H5O2+
109.0321	8	C6H4FN+
109.0448	15	C7H6F+
112.0183	23	C8H2N+
112.0319	9	C6H5FO+
113.0387	79	C9H5+
114.0339	76	C8H4N+
114.0463	11	C9H6+
115.0417	26	C8H5N+
115.0543	84	C9H7+
116.0497	18	C8H6N+
117.0574	9	C8H7N+
118.0213	12	C8H3F+
118.0286	4	C7H4NO+
119.0293	4	C8H4F+
119.0493	14	C8H7O+
120.0206	4	C7H4O2+
120.0245	12	C7H3FN+
120.0371	81	C8H5F+
121.0322	4	C7H4FN+
121.0449	5	C8H6F+
122.0401	23	C7H5FN+
123.0237	3	C7H4FO+
123.0355	20	C6H4FN2+
123.0478	11	C7H6FN+
124.0183	4	C9H2N+
125.0387	89	C10H5+
126.0341	40	C9H4N+
126.0465	45	C10H6+
127.0418	36	C9H5N+
127.0543	28	C10H7+
128.0495	55	C9H6N+
128.0621	18	C10H8+
129.0448	69	C8H5N2+
130.0399	10	C7H4N3+
130.0651	3	C9H8N+
131.0292	32	C9H4F+
132.0245	171	C8H3FN+
132.037	10	C9H5F+
132.0444	16	C8H6NO+
132.0569	11	C9H8O+
133.0323	44	C8H4FN+
133.0449	193	C9H6F+
134.0401	55	C8H5FN+
134.06	14	C8H8NO+
135.0479	38	C8H6FN+
136.0319	5	C8H5FO+
137.0391	8	C11H5+
138.0114	4	C7H3FO2+
138.034	14	C10H4N+
139.0292	51	C9H3N2+
139.0416	9	C10H5N+
139.0543	33	C11H7+
140.0496	173	C10H6N+
141.0447	3	C9H5N2+
141.0573	33	C10H7N+
142.0289	5	C9H4NO+
142.0528	4	C9H6N2+
142.065	2	C10H8N+
143.0493	42	C10H7O+
143.0607	3	C9H7N2+
144.0372	38	C10H5F+
144.0437	17	C9H6NO+
145.0322	13	C9H4FN+
145.0449	29	C10H6F+
145.0647	9	C10H9O+
146.0402	65	C9H5FN+
146.0527	75	C10H7F+
147.0354	11	C8H4FN2+
147.0482	20	C9H6FN+
148.0558	35	C9H7FN+
149.051	2	C8H6FN2+
150.0349	51	C8H5FNO+
150.0468	5	C12H6+
151.0422	33	C8H6FNO+
152.0498	82	C11H6N+
152.0622	5	C12H8+
153.045	47	C10H5N2+
153.0576	18	C11H7N+
154.0401	49	C9H4N3+
154.0652	56	C11H8N+
155.0605	51	C10H7N2+
157.0396	16	C9H5N2O+
157.0449	23	C11H6F+
157.0522	9	C10H7NO+
158.0402	75	C10H5FN+
158.06	3	C10H8NO+
159.0479	62	C10H6FN+
159.0552	13	C9H7N2O+
159.061	3	C11H8F+
160.0432	11	C9H5FN2+
160.0559	25	C10H7FN+
161.0271	4	C9H4FNO+
161.0517	7	C9H6FN2+
161.0642	2	C10H8FN+
162.0353	8	C9H5FNO+
162.0465	3	C13H6+
162.0588	3	C9H7FN2+
163.0552	18	C10H8FO+
164.0504	37	C9H7FNO+
165.0448	4	C11H5N2+
165.0701	18	C13H9+
166.0528	40	C11H6N2+
166.065	11	C12H8N+
167.0238	3	C10H3N2O+
167.0606	24	C11H7N2+
167.0729	4	C12H9N+
168.0444	5	C11H6NO+
168.0565	10	C7H7FN3O+
168.0683	16	C11H8N2+
169.0518	2	C11H7NO+
170.0401	2	C11H5FN+
170.0526	10	C12H7F+
170.06	39	C11H8NO+
171.0481	43	C11H6FN+
171.0548	5	C10H7N2O+
172.0558	196	C11H7FN+
173.0512	89	C10H6FN2+
174.0349	5	C10H5FNO+
174.0586	4	C10H7FN2+
177.0454	2	C9H6FN2O+
177.0572	5	C13H7N+
178.0529	3	C9H7FN2O+
178.0651	8	C13H8N+
179.0376	12	C9H6FNO2+
179.0607	33	C12H7N2+
180.0552	3	C11H6N3+
181.0762	4	C12H9N2+
182.0399	10	C12H5FN+
183.061	5	C13H8F+
184.0558	24	C12H7FN+
185.0509	5	C11H6FN2+
185.0635	14	C12H8FN+
186.0586	16	C11H7FN2+
187.0307	3	C10H4FN2O+
187.0427	2	C11H6FNO+
187.0665	11	C11H8FN2+
188.0503	13	C11H7FNO+
191.0732	17	C14H9N+
192.0454	4	C10H7FNO2+
192.068	15	C13H8N2+
193.0765	5	C13H9N2+
195.0555	3	C12H7N2O+
196.0549	4	C13H7FN+
197.0512	26	C12H6FN2+
198.0589	4	C12H7FN2+
199.0671	3	C12H8FN2+
200.0506	12	C12H7FNO+
203.0383	3	C11H6FNO2+
203.0613	2	C11H8FN2O+
209.0634	4	C14H8FN+
210.0584	2	C13H7FN2+
