Mass spectrum: Chlorothalonil-TP R471811; LC-ESI-QFT; MS2; CE: 45%; R=17500; [M-H]-
Name: Chlorothalonil-TP R471811
Name: 2,4-dicarbamoyl-3,5,6-trichlorobenzenesulfonic acid
Formula: C8H5Cl3N2O5S
Exact mass: 345.8985
SMILES: NC(=O)C1=C(Cl)C(C(N)=O)=C(C(Cl)=C1Cl)S(O)(=O)=O
InChI: InChI=1S/C8H5Cl3N2O5S/c9-3-1(7(12)14)4(10)5(11)6(19(16,17)18)2(3)8(13)15/h(H2,12,14)(H2,13,15)(H,16,17,18)
Instrument: Q Exactive Plus Orbitrap Thermo Scientific
Instrument type: LC-ESI-QFT
Ms type: MS2
Ion mode: NEGATIVE
Ionization: ESI
Fragmentation mode: HCD
Collision energy: 45 % (nominal)
Resolution: 17500
Column name: XBridge C18 3.5um, 2.1x50mm, Waters
Retention time: 1.041 min
Base peak: 346.8881
Precursor m/z: 344.8912
Precursor type: [M-H]-
m/z	relative intensity	assigned
65.9984	3	C3NO-
79.9573	18	O3S-
96.9601	83	HO4S-
97.9802	7	C4HClN-
114.9262	113	ClO3S-
121.9804	37	C6HClN-
137.9751	4	C6HClNO-
158.9408	32	C6HCl2O-
165.97	37	C7HClNO2-
178.9228	14	C6H2Cl3-
185.9523	5	C7H2Cl2NO-
194.9176	670	C6H2Cl3O-
201.9468	55	C7H2Cl2NO2-
219.9128	8	C7HCl3NO-
221.9284	18	C7H3Cl3NO-
237.9235	774	C7H3Cl3NO2-
258.8808	5	C6H2Cl3O3S-
301.8854	999	C7H3Cl3NO4S-
344.8913	76	C8H4Cl3N2O5S-
