Mass spectrum: Diniconazole; LC-ESI-QFT; MS2; CE: 150%; R=17500; [M+H]+
Name: Diniconazole
Name: 1-(2,4-dichlorophenyl)-4,4-dimethyl-2-(1,2,4-triazol-1-yl)pent-1-en-3-ol
Formula: C15H17Cl2N3O
Exact mass: 325.0749
SMILES: CC(C)(C)C(C(=CC1=C(C=C(C=C1)Cl)Cl)N2C=NC=N2)O
InChI: InChI=1S/C15H17Cl2N3O/c1-15(2,3)14(21)13(20-9-18-8-19-20)6-10-4-5-11(16)7-12(10)17/h4-9,14,21H,1-3H3
Instrument: Exploris 240 Orbitrap Thermo Scientific
Instrument type: LC-ESI-QFT
Ms type: MS2
Ion mode: POSITIVE
Ionization: ESI
Fragmentation mode: HCD
Collision energy: 150 % (nominal)
Resolution: 17500
Column name: XBridge C18 3.5um, 2.1x50mm, Waters
Retention time: 12.153 min
Base peak: 326.0822
Precursor m/z: 326.0821
Precursor type: [M+H]+
m/z	relative intensity	assigned
70.04	999	C2H4N3+
72.984	14	C3H2Cl+
75.0229	15	C6H3+
89.0386	43	C7H5+
98.9997	12	C5H4Cl+
102.0465	10	C8H6+
115.054	28	C9H7+
122.9995	27	C7H4Cl+
152.0622	6	C12H8+
153.0696	10	C12H9+
