Mass spectrum: Ranitidine-S-oxide; LC-ESI-ITFT; MS2; CE: 45%; R=7500; [M+H]+
Name: Ranitidine-S-oxide
Name: 1,1-Ethenediamine, N-(2-(((5-((dimethylamino)methyl)-2-furanyl)methyl)sulfinyl)ethyl)-N'-methyl-2-nitro-
Formula: C13H22N4O4S
Exact mass: 330.1362
SMILES: [O-][N+](=O)\C=C(/NC)NCCS(=O)Cc1oc(cc1)CN(C)C
InChI: InChI=1S/C13H22N4O4S/c1-14-13(9-17(18)19)15-6-7-22(20)10-12-5-4-11(21-12)8-16(2)3/h4-5,9,14-15H,6-8,10H2,1-3H3/b13-9+
Instrument: LTQ Orbitrap XL Thermo Scientific
Instrument type: LC-ESI-ITFT
Ms type: MS2
Ion mode: POSITIVE
Ionization: ESI
Fragmentation mode: HCD
Collision energy: 45 % (nominal)
Resolution: 7500
Column name: XBridge C18 3.5um, 2.1x50mm, Waters
Retention time: 0.8 min
Base peak: 331.1445
Precursor m/z: 331.1435
Precursor type: [M+H]+
m/z	relative intensity	assigned
55.0416	3	C3H5N+
56.0492	4	C3H6N+
58.0651	21	C3H8N+
66.0465	8	C5H6+
67.0543	4	C5H7+
68.0495	36	C4H6N+
81.0698	18	C6H9+
82.0652	31	C5H8N+
84.0683	13	C4H8N2+
91.0542	5	C7H7+
93.07	11	C7H9+
94.0414	303	C6H6O+
95.0492	74	C6H7O+
95.073	16	C6H9N+
96.0571	13	C6H8O+
97.0758	14	C5H9N2+
98.0838	23	C5H10N2+
99.0554	7	C4H7N2O+
102.0372	9	C4H8NS+
108.0808	45	C7H10N+
110.0965	999	C7H12N+
117.0242	5	C4H7NOS+
123.0673	3	C7H9NO+
125.0054	8	C6H5OS+
130.0562	28	C5H10N2S+
138.0914	697	C8H12NO+
139.0996	13	C8H13NO+
143.0159	23	C6H7O2S+
146.0505	10	C5H10N2OS+
147.0584	7	C5H11N2OS+
176.0501	6	C13H6N+
192.0436	31	C11H4N4+
222.0821	6	C11H14N2OS+
