Mass spectrum: N,O-Didesmethylvenlafaxine; LC-ESI-ITFT; MS2; CE: 60%; R=15000; [M+H]+
Name: N,O-Didesmethylvenlafaxine
Name: 4-[1-(1-Hydroxycyclohexyl)-2-(methylamino)ethyl]phenol
Formula: C15H23NO2
Exact mass: 249.1729
SMILES: OC2(C(c1ccc(O)cc1)CNC)CCCCC2
InChI: InChI=1S/C15H23NO2/c1-16-11-14(12-5-7-13(17)8-6-12)15(18)9-3-2-4-10-15/h5-8,14,16-18H,2-4,9-11H2,1H3
Instrument: LTQ Orbitrap XL Thermo Scientific
Instrument type: LC-ESI-ITFT
Ms type: MS2
Ion mode: POSITIVE
Ionization: ESI
Fragmentation mode: HCD
Collision energy: 60 % (nominal)
Resolution: 15000
Column name: XBridge C18 3.5um, 2.1x50mm, Waters
Retention time: 4.9 min
Base peak: 250.1809
Precursor m/z: 250.1802
Precursor type: [M+H]+
m/z	relative intensity	assigned
69.07	20	C5H9+
79.0543	54	C6H7+
81.0699	116	C6H9+
91.0542	15	C7H7+
105.0697	16	C8H9+
107.0491	999	C7H7O+
119.0492	29	C8H7O+
121.0648	52	C8H9O+
131.0492	20	C9H7O+
131.0855	15	C10H11+
133.0648	780	C9H9O+
135.0677	20	C8H9NO+
145.0647	202	C10H9O+
147.0803	21	C10H11O+
150.0913	49	C9H12NO+
159.0804	255	C11H11O+
173.0953	18	C12H13O+
201.1274	88	C14H17O+
