Mass spectrum: Cefazolin; LC-ESI-QFT; MS2; CE: 120; R=35000; [M+H]+
Name: Cefazolin
Name: 3-[(5-methyl-1,3,4-thiadiazol-2-yl)sulfanylmethyl]-8-oxo-7-[[2-(tetrazol-1-yl)acetyl]amino]-5-thia-1-azabicyclo[4.2.0]oct-2-ene-2-carboxylic acid
Formula: C14H14N8O4S3
Exact mass: 454.03001
SMILES: CC1=NN=C(S1)SCC2=C(N3C(C(C3=O)NC(=O)CN4C=NN=N4)SC2)C(=O)O
InChI: InChI=1S/C14H14N8O4S3/c1-6-17-18-14(29-6)28-4-7-3-27-12-9(11(24)22(12)10(7)13(25)26)16-8(23)2-21-5-15-19-20-21/h5,9,12H,2-4H2,1H3,(H,16,23)(H,25,26)
Instrument: Q Exactive Plus Orbitrap Thermo Scientific
Instrument type: LC-ESI-QFT
Ms type: MS2
Ion mode: POSITIVE
Ionization: ESI
Fragmentation mode: HCD
Collision energy: 120 (nominal)
Resolution: 35000
Column name: XBridge C18 3.5um, 2.1x50mm, Waters
Retention time: 4.5 min
Base peak: 455.0367
Precursor m/z: 455.0373
Precursor type: [M+H]+
m/z	relative intensity	assigned
50.0152	55	C4H2+
51.023	119	C4H3+
52.0183	38	C3H2N+
52.0309	19	C4H4+
53.0023	48	C3HO+
53.0386	679	C4H5+
53.9975	21	C2NO+
54.0339	235	C3H4N+
55.0291	750	C2H3N2+
56.0131	10	C2H2NO+
56.037	18	C2H4N2+
56.0495	93	C3H6N+
56.9794	111	C2HS+
57.0448	218	C2H5N2+
57.9747	163	CNS+
57.9872	325	C2H2S+
58.9825	60	CHNS+
58.9951	349	C2H3S+
59.9665	88	COS+
59.9903	183	CH2NS+
62.0059	23	CH4NS+
63.023	85	C5H3+
63.9437	9	S2+
64.0182	49	C4H2N+
64.0308	17	C5H4+
65.0386	260	C5H5+
66.0339	744	C4H4N+
66.0464	48	C5H6+
67.0292	78	C3H3N2+
67.0417	148	C4H5N+
68.037	63	C3H4N2+
68.0495	340	C4H6N+
68.9794	215	C3HS+
69.0448	408	C3H5N2+
69.9747	106	C2NS+
69.9872	7	C3H2S+
70.0288	23	C3H4NO+
70.0652	5	C4H8N+
70.9824	47	C2HNS+
70.9951	404	C3H3S+
71.0353	27	CH3N4+
71.9903	164	C2H2NS+
72.0029	63	C3H4S+
72.9981	404	C2H3NS+
73.0107	37	C3H5S+
74.0059	119	C2H4NS+
75.0138	37	C2H5NS+
76.0182	8	C5H2N+
78.0339	273	C5H4N+
79.0292	8	C4H3N2+
79.0417	107	C5H5N+
80.0495	999	C5H6N+
81.0448	164	C4H5N2+
81.0574	39	C5H7N+
82.0526	305	C4H6N2+
82.0652	21	C5H8N+
82.995	77	C4H3S+
83.024	38	C3H3N2O+
83.0478	36	C3H5N3+
83.9903	70	C3H2NS+
84.0029	74	C4H4S+
84.0319	110	C3H4N2O+
84.0445	128	C4H6NO+
84.0557	125	C3H6N3+
85.0107	404	C4H5S+
86.0059	154	C3H4NS+
87.0137	6	C3H5NS+
90.0338	63	C6H4N+
91.0418	80	C6H5N+
91.9624	73	CH2NS2+
92.0369	34	C5H4N2+
92.0496	98	C6H6N+
93.0449	225	C5H5N2+
93.0574	52	C6H7N+
94.0286	4	C5H4NO+
94.0403	20	C4H4N3+
94.0527	15	C5H6N2+
94.9952	49	C5H3S+
95.0605	184	C5H7N2+
95.9904	23	C4H2NS+
96.0445	264	C5H6NO+
96.0557	158	C4H6N3+
97.0108	593	C5H5S+
97.0398	43	C4H5N2O+
97.9934	54	C3H2N2S+
98.006	59	C4H4NS+
99.0012	217	C3H3N2S+
99.0138	195	C4H5NS+
100.0091	79	C3H4N2S+
100.0216	40	C4H6NS+
101.0057	21	C4H5OS+
101.0169	53	C3H5N2S+
105.0449	185	C6H5N2+
106.0527	253	C6H6N2+
107.0605	913	C6H7N2+
108.0556	6	C5H6N3+
108.0683	96	C6H8N2+
108.9981	8	C5H3NS+
109.0108	7	C6H5S+
109.0764	15	C6H9N2+
110.006	179	C5H4NS+
110.0602	19	C6H8NO+
111.0012	29	C4H3N2S+
111.0139	5	C5H5NS+
111.0316	17	C5H5NO2+
112.0217	143	C5H6NS+
112.0394	170	C5H6NO2+
113.0169	11	C4H5N2S+
117.0448	5	C7H5N2+
118.0527	49	C7H6N2+
119.0605	618	C7H7N2+
120.0563	15	H12N2O3S+
120.0683	22	C7H8N2+
121.0397	7	C6H5N2O+
122.006	124	C6H4NS+
123.0138	56	C6H5NS+
124.0091	20	C5H4N2S+
124.0218	34	C6H6NS+
124.0395	5	C6H6NO2+
125.0169	9	C5H5N2S+
126.0124	6	C4H4N3S+
126.0375	6	C6H8NS+
128.016	4	C5H6NOS+
128.0277	7	C4H6N3S+
132.0558	24	C7H6N3+
132.9891	70	C3H5N2S2+
133.0636	9	C7H7N3+
134.0059	5	C7H4NS+
134.0715	25	C7H8N3+
135.0556	6	C7H7N2O+
137.0171	28	C6H5N2S+
138.0251	5	C6H6N2S+
139.0327	21	C6H7N2S+
164.0285	4	CH12N2O3S2+
