Mass spectrum: Uvinul-LR; LC-ESI-QFT; MS2; CE: 150%; R=17500; [M+H]+
Name: Uvinul-LR
Name: 2-ethoxyethyl 2-cyano-2-[3-(3-methoxypropylamino)cyclohex-2-en-1-ylidene]acetate
Formula: C17H26N2O4
Exact mass: 322.1893
SMILES: CCOCCOC(=O)C(=C1CCCC(=C1)NCCCOC)C#N
InChI: InChI=1S/C17H26N2O4/c1-3-22-10-11-23-17(20)16(13-18)14-6-4-7-15(12-14)19-8-5-9-21-2/h12,19H,3-11H2,1-2H3
Instrument: Exploris 240 Orbitrap Thermo Scientific
Instrument type: LC-ESI-QFT
Ms type: MS2
Ion mode: POSITIVE
Ionization: ESI
Fragmentation mode: HCD
Collision energy: 150 % (nominal)
Resolution: 17500
Column name: XBridge C18 3.5um, 2.1x50mm, Waters
Retention time: 6.721 min
Base peak: 233.1283
Precursor m/z: 323.1965
Precursor type: [M+H]+
m/z	relative intensity	assigned
51.0229	156	C4H3+
53.0385	68	C4H5+
54.0339	47	C3H4N+
63.023	292	C5H3+
64.0183	41	C4H2N+
65.0385	470	C5H5+
77.0386	294	C6H5+
78.034	78	C5H4N+
78.0465	97	C6H6+
79.0544	130	C6H7+
80.0493	77	C5H6N+
89.0386	999	C7H5+
90.0465	130	C7H6+
91.0542	521	C7H7+
93.0575	55	C6H7N+
95.0489	153	C6H7O+
104.0497	90	C7H6N+
105.0447	159	C6H5N2+
106.0652	61	C7H8N+
116.0495	337	C8H6N+
117.0574	167	C8H7N+
118.0648	71	C8H8N+
