Mass spectrum: Quinmerac; LC-ESI-QFT; MS2; CE: 120; R=35000; [M+H]+
Name: Quinmerac
Name: 7-chloro-3-methyl-quinoline-8-carboxylic acid
Name: 7-chloro-3-methylquinoline-8-carboxylic acid
Formula: C11H8ClNO2
Exact mass: 221.02436
SMILES: CC1=CN=C2C(=C1)C=CC(=C2C(=O)O)Cl
InChI: InChI=1S/C11H8ClNO2/c1-6-4-7-2-3-8(12)9(11(14)15)10(7)13-5-6/h2-5H,1H3,(H,14,15)
Instrument: Q Exactive Plus Orbitrap Thermo Scientific
Instrument type: LC-ESI-QFT
Ms type: MS2
Ion mode: POSITIVE
Ionization: ESI
Fragmentation mode: HCD
Collision energy: 120 (nominal)
Resolution: 35000
Column name: XBridge C18 3.5um, 2.1x50mm, Waters
Retention time: 5.2 min
Base peak: 222.0312
Precursor m/z: 222.0316
Precursor type: [M+H]+
m/z	relative intensity	assigned
50.015	1	C4H2+
62.0149	4	C5H2+
63.0229	26	C5H3+
64.0307	2	C5H4+
65.0386	15	C5H5+
66.0464	5	C5H6+
72.9838	5	C3H2Cl+
74.015	3	C6H2+
75.0228	1	C6H3+
76.0307	5	C6H4+
87.0229	13	C7H3+
88.0182	5	C6H2N+
88.0307	44	C7H4+
89.0385	46	C7H5+
90.0464	165	C7H6+
92.0256	11	C6H4O+
96.984	2	C5H2Cl+
97.9792	2	C4HClN+
98.9996	20	C5H4Cl+
99.0229	1	C8H3+
102.0464	33	C8H6+
113.0386	306	C9H5+
114.0339	44	C8H4N+
114.0464	431	C9H6+
115.0416	10	C8H5N+
115.0542	9	C9H7+
116.0494	2	C8H6N+
117.0334	10	C8H5O+
118.0413	74	C8H6O+
120.0206	4	C7H4O2+
122.9996	38	C7H4Cl+
123.9948	3	C6H3ClN+
131.0491	7	C9H7O+
132.057	212	C9H8O+
133.0521	7	C8H7NO+
136.0073	3	C8H5Cl+
139.0416	3	C10H5N+
140.0495	999	C10H6N+
141.0572	673	C10H7N+
148.0072	3	C9H5Cl+
149.0153	601	C9H6Cl+
150.0105	25	C8H5ClN+
157.0521	5	C10H7NO+
161.0027	5	C9H4ClN+
168.0212	1	C8H7ClNO+
174.0105	8	C10H5ClN+
175.0183	12	C10H6ClN+
176.0263	9	C10H7ClN+
194.0365	2	C10H9ClNO+
204.021	2	C11H7ClNO+
