Mass spectrum: Metolachlor OXA; LC-ESI-ITFT; MS2; CE: 30%; R=15000; [M+H]+
Name: Metolachlor OXA
Name: 2-(2-ethyl-N-(2-methoxy-1-methyl-ethyl)-6-methyl-anilino)-2-keto-acetic acid
Formula: C15H21NO4
Exact mass: 279.1471
SMILES: CC1=CC=CC(CC)=C1N(C(C)COC)C(C(O)=O)=O
InChI: InChI=1S/C15H21NO4/c1-5-12-8-6-7-10(2)13(12)16(11(3)9-20-4)14(17)15(18)19/h6-8,11H,5,9H2,1-4H3,(H,18,19)
Instrument: LTQ Orbitrap XL Thermo Scientific
Instrument type: LC-ESI-ITFT
Ms type: MS2
Ion mode: POSITIVE
Ionization: ESI
Fragmentation mode: HCD
Collision energy: 30 % (nominal)
Resolution: 15000
Column name: XBridge C18 3.5um, 2.1x50mm, Waters
Retention time: 9.3 min
Base peak: 280.1539
Precursor m/z: 280.1543
Precursor type: [M+H]+
m/z	relative intensity	assigned
73.0648	24	C4H9O+
144.0806	1	C10H10N+
146.0964	7	C10H12N+
148.1121	2	C10H14N+
149.0232	1	C8H5O3+
162.0913	11	C10H12NO+
174.1277	2	C12H16N+
176.1431	4	C12H18N+
202.1224	5	C13H16NO+
204.1384	4	C13H18NO+
206.1539	2	C13H20NO+
208.0968	5	C11H14NO3+
208.1696	1	C13H22NO+
220.1333	2	C13H18NO2+
234.1487	5	C14H20NO2+
248.1279	999	C14H18NO3+
280.1541	7	C15H22NO4+
