Mass spectrum: Alfuzosin; LC-ESI-QFT; MS2; CE: 180; R=35000; [M-H]-
Name: Alfuzosin
Name: N-{3-[(4-Amino-6,7-dimethoxy-2-quinazolinyl)(methyl)amino]propyl}tetrahydro-2-furancarboxamide
Name: N-[3-[(4-amino-6,7-dimethoxyquinazolin-2-yl)-methylamino]propyl]oxolane-2-carboxamide
Formula: C19H27N5O4
Exact mass: 389.20630
SMILES: CN(CCCNC(=O)C1CCCO1)C2=NC3=CC(=C(C=C3C(=N2)N)OC)OC
InChI: InChI=1S/C19H27N5O4/c1-24(8-5-7-21-18(25)14-6-4-9-28-14)19-22-13-11-16(27-3)15(26-2)10-12(13)17(20)23-19/h10-11,14H,4-9H2,1-3H3,(H,21,25)(H2,20,22,23)
Instrument: Q Exactive Plus Orbitrap Thermo Scientific
Instrument type: LC-ESI-QFT
Ms type: MS2
Ion mode: NEGATIVE
Ionization: ESI
Fragmentation mode: HCD
Collision energy: 180 (nominal)
Resolution: 35000
Column name: XBridge C18 3.5um, 2.1x50mm, Waters
Retention time: 5.3 min
Base peak: 434.2043
Precursor m/z: 388.199
Precursor type: [M-H]-
m/z	relative intensity	assigned
50.0036	245	C3N-
55.0302	287	C2H3N2-
62.0037	29	C4N-
63.0115	8	C4HN-
64.0067	40	C3N2-
64.0193	41	C4H2N-
65.0146	464	C3HN2-
65.9986	999	C3NO-
66.0098	197	C2N3-
67.0302	129	C3H3N2-
68.0142	10	C3H2NO-
74.0037	41	C5N-
76.0193	57	C5H2N-
77.0146	25	C4HN2-
77.9985	7	C4NO-
78.035	2	C5H4N-
79.0302	2	C4H3N2-
81.0457	2	C4H5N2-
88.0067	2	C5N2-
88.0192	5	C6H2N-
89.0145	158	C5HN2-
89.9985	106	C5NO-
90.0097	142	C4N3-
90.0348	11	C6H4N-
91.0302	25	C5H3N2-
92.0143	27	C5H2NO-
92.0253	8	C4H2N3-
93.0094	39	C4HN2O-
94.0299	2	C5H4NO-
103.0066	3	C6HNO-
103.03	2	C6H3N2-
104.0016	2	C5N2O-
104.038	2	C6H4N2-
105.0219	5	C6H3NO-
105.0332	1	C5H3N3-
105.0457	7	C6H5N2-
106.017	2	C5H2N2O-
106.0285	2	C4H2N4-
106.041	1	C5H4N3-
107.0362	2	C4H3N4-
115.0304	11	C7H3N2-
116.0254	24	C6H2N3-
117.0095	28	C6HN2O-
118.0298	7	C7H4NO-
118.041	8	C6H4N3-
119.025	79	C6H3N2O-
120.0088	2	C6H2NO2-
120.02	1	C5H2N3O-
129.0333	5	C7H3N3-
130.0172	29	C7H2N2O-
131.0249	1	C7H3N2O-
132.0327	8	C7H4N2O-
133.0404	5	C7H5N2O-
143.025	2	C8H3N2O-
143.036	7	C7H3N4-
144.0204	142	C7H2N3O-
145.0278	8	C7H3N3O-
146.036	9	C7H4N3O-
157.028	5	C8H3N3O-
158.0358	2	C8H4N3O-
