Mass spectrum: 4,4`-Dichlorobenzophenone; LC-ESI-QFT; MS2; CE: 45%; R=17500; [M+H]+
Name: 4,4`-Dichlorobenzophenone
Name: bis(4-chlorophenyl)methanone
Formula: C13H8Cl2O
Exact mass: 249.9952
SMILES: C1=CC(=CC=C1C(=O)C2=CC=C(C=C2)Cl)Cl
InChI: InChI=1S/C13H8Cl2O/c14-11-5-1-9(2-6-11)13(16)10-3-7-12(15)8-4-10/h1-8H
Instrument: Exploris 240 Orbitrap Thermo Scientific
Instrument type: LC-ESI-QFT
Ms type: MS2
Ion mode: POSITIVE
Ionization: ESI
Fragmentation mode: HCD
Collision energy: 45 % (nominal)
Resolution: 17500
Column name: XBridge C18 3.5um, 2.1x50mm, Waters
Retention time: 12.103 min
Base peak: 299.1387
Precursor m/z: 251.0025
Precursor type: [M+H]+
m/z	relative intensity	assigned
138.9944	999	C7H4ClO+
251.0025	47	C13H9Cl2O+
