Mass spectrum: Citalopram; LC-ESI-ITFT; MS2; CE: 90%; R=30000; [M+H]+
Name: Citalopram
Name: 1-[3-(dimethylamino)propyl]-1-(4-fluorophenyl)-3H-2-benzofuran-5-carbonitrile
Formula: C20H21FN2O
Exact mass: 324.1638
SMILES: Fc1ccc(cc1)C3(OCc2cc(C#N)ccc23)CCCN(C)C
InChI: InChI=1S/C20H21FN2O/c1-23(2)11-3-10-20(17-5-7-18(21)8-6-17)19-9-4-15(13-22)12-16(19)14-24-20/h4-9,12H,3,10-11,14H2,1-2H3
Instrument: LTQ Orbitrap XL Thermo Scientific
Instrument type: LC-ESI-ITFT
Ms type: MS2
Ion mode: POSITIVE
Ionization: ESI
Fragmentation mode: HCD
Collision energy: 90 % (nominal)
Resolution: 30000
Column name: XBridge C18 3.5um, 2.1x50mm, Waters
Retention time: 6.6 min
Base peak: 325.1719
Precursor m/z: 325.1711
Precursor type: [M+H]+
m/z	relative intensity	assigned
58.0651	51	C3H8N+
72.0807	3	C4H10N+
83.0291	35	C5H4F+
84.0807	6	C5H10N+
89.0386	25	C7H5+
97.0447	6	C6H6F+
103.0542	16	C8H7+
109.0448	999	C7H6F+
115.0542	17	C9H7+
116.0495	181	C8H6N+
121.0447	13	C8H6F+
123.024	12	C7H4FO+
123.0605	5	C8H8F+
128.062	10	C10H8+
129.0446	13	C8H5N2+
129.0699	17	C10H9+
130.0651	8	C9H8N+
133.0448	16	C9H6F+
139.0542	29	C11H7+
140.0494	115	C10H6N+
141.0573	10	C10H7N+
142.0651	8	C10H8N+
146.0526	6	C10H7F+
153.0573	4	C11H7N+
154.065	13	C11H8N+
155.0603	17	C10H7N2+
156.0809	5	C11H10N+
159.0605	6	C11H8F+
166.065	74	C12H8N+
183.0604	19	C13H8F+
189.07	9	C15H9+
190.065	48	C14H8N+
195.0603	18	C14H8F+
196.0681	5	C14H9F+
202.0648	4	C15H8N+
202.0775	10	C16H10+
207.0604	43	C15H8F+
208.0556	71	C14H7FN+
209.076	3	C15H10F+
214.0651	33	C16H8N+
215.0854	33	C17H11+
218.0602	11	C15H8NO+
219.0476	9	C15H6FN+
220.0556	17	C15H7FN+
220.0682	61	C16H9F+
221.0634	135	C15H8FN+
222.0711	18	C15H9FN+
226.0647	7	C17H8N+
227.0728	161	C17H9N+
228.0807	14	C17H10N+
232.0557	18	C16H7FN+
233.0632	11	C16H8FN+
233.0759	36	C17H10F+
234.0712	119	C16H9FN+
235.0791	27	C16H10FN+
237.0583	14	C15H8FNO+
238.0661	3	C15H9FNO+
240.0807	59	C18H10N+
241.0884	16	C18H11N+
242.096	4	C18H12N+
244.068	11	C18H9F+
245.0633	50	C17H8FN+
246.0712	249	C17H9FN+
247.079	129	C17H10FN+
248.087	4	C17H11FN+
259.0789	12	C18H10FN+
260.0867	26	C18H11FN+
261.0946	16	C18H12FN+
