Mass spectrum: delta9-Tetrahydrocannabinol; LC-ESI-QFT; MS2; CE: 180; R=35000; [M+H]+
Name: delta9-Tetrahydrocannabinol
Name: delta9-THC
Name: 6,6,9-trimethyl-3-pentyl-6a,7,8,10a-tetrahydrobenzo[c]chromen-1-ol
Formula: C21H30O2
Exact mass: 314.22458
SMILES: CCCCCC1=CC2=C(C3C=C(CCC3C(O2)(C)C)C)C(=C1)O
InChI: InChI=1S/C21H30O2/c1-5-6-7-8-15-12-18(22)20-16-11-14(2)9-10-17(16)21(3,4)23-19(20)13-15/h11-13,16-17,22H,5-10H2,1-4H3
Instrument: Q Exactive Plus Orbitrap Thermo Scientific
Instrument type: LC-ESI-QFT
Ms type: MS2
Ion mode: POSITIVE
Ionization: ESI
Fragmentation mode: HCD
Collision energy: 180 (nominal)
Resolution: 35000
Column name: XBridge C18 3.5um, 2.1x50mm, Waters
Retention time: 17.8 min
Base peak: 391.2837
Precursor m/z: 315.2319
Precursor type: [M+H]+
m/z	relative intensity	assigned
50.0152	297	C4H2+
51.023	854	C4H3+
52.0183	6	C3H2N+
52.0308	28	C4H4+
53.0023	275	C3HO+
53.0386	483	C4H5+
53.9975	63	C2NO+
55.0179	162	C3H3O+
55.0543	98	C4H7+
59.0492	3	C3H7O+
62.0151	22	C5H2+
63.023	103	C5H3+
65.0386	999	C5H5+
66.0464	49	C5H6+
67.0543	117	C5H7+
67.9893	30	C3O2+
68.9972	37	C3HO2+
69.0335	5	C4H5O+
69.0699	4	C5H9+
75.0229	27	C6H3+
76.0307	7	C6H4+
77.0386	398	C6H5+
78.0464	164	C6H6+
79.0542	394	C6H7+
80.0622	4	C6H8+
81.0336	43	C5H5O+
81.07	16	C6H9+
83.0128	7	C4H3O2+
89.0386	131	C7H5+
90.0465	8	C7H6+
91.0543	761	C7H7+
94.0414	40	C6H6O+
95.0492	725	C6H7O+
102.0465	84	C8H6+
103.0543	134	C8H7+
104.0621	16	C8H8+
105.0448	573	C6H5N2+
105.07	35	C8H9+
107.0492	94	C7H7O+
115.0543	497	C9H7+
116.0623	23	C9H8+
117.0699	12	C9H9+
123.0443	3	C7H7O2+
126.0464	25	C10H6+
127.0543	32	C10H7+
128.0621	199	C10H8+
129.07	24	C10H9+
131.0493	42	C9H7O+
139.0543	38	C11H7+
141.0701	29	C11H9+
145.0649	23	C10H9O+
147.0445	5	C9H7O2+
152.0622	53	C12H8+
153.0699	8	C12H9+
155.0605	49	C10H7N2+
157.065	5	C11H9O+
160.0522	5	C10H8O2+
165.07	23	C13H9+
169.0651	5	C12H9O+
