Mass spectrum: Metoprolol; LC-ESI-ITFT; MS2; CE: 30%; R=15000; [M+H]+
Name: Metoprolol
Name: 1-(isopropylamino)-3-[4-(2-methoxyethyl)phenoxy]propan-2-ol
Formula: C15H25NO3
Exact mass: 267.1834
SMILES: COCCC1=CC=C(OCC(O)CNC(C)C)C=C1
InChI: InChI=1S/C15H25NO3/c1-12(2)16-10-14(17)11-19-15-6-4-13(5-7-15)8-9-18-3/h4-7,12,14,16-17H,8-11H2,1-3H3
Instrument: LTQ Orbitrap XL Thermo Scientific
Instrument type: LC-ESI-ITFT
Ms type: MS2
Ion mode: POSITIVE
Ionization: ESI
Fragmentation mode: HCD
Collision energy: 30 % (nominal)
Resolution: 15000
Column name: XBridge C18 3.5um, 2.1x50mm, Waters
Retention time: 5.1 min
Base peak: 268.1916
Precursor m/z: 268.1907
Precursor type: [M+H]+
m/z	relative intensity	assigned
56.0494	2	C3H6N+
72.0808	10	C4H10N+
74.06	15	C3H8NO+
98.0964	16	C6H12N+
116.107	54	C6H14NO+
121.0648	11	C8H9O+
133.0647	3	C9H9O+
159.0804	13	C11H11O+
165.0912	3	C10H13O2+
176.107	12	C11H14NO+
177.0911	6	C11H13O2+
191.1066	35	C12H15O2+
194.1177	5	C11H16NO2+
218.154	14	C14H20NO+
226.1438	22	C12H20NO3+
250.18	13	C15H24NO2+
268.191	999	C15H26NO3+
