Mass spectrum: Aminopyrine; LC-ESI-ITFT; MS2; CE: 45%; R=15000; [M+H]+
Name: Aminopyrine
Name: 4-(dimethylamino)-1,5-dimethyl-2-phenyl-3-pyrazolin-3-one
Formula: C13H17N3O
Exact mass: 231.1372
SMILES: c(ccc1N(N(C=2C)C)C(=O)C2N(C)C)cc1
InChI: InChI=1S/C13H17N3O/c1-10-12(14(2)3)13(17)16(15(10)4)11-8-6-5-7-9-11/h5-9H,1-4H3
Instrument: LTQ Orbitrap XL Thermo Scientific
Instrument type: LC-ESI-ITFT
Ms type: MS2
Ion mode: POSITIVE
Ionization: ESI
Fragmentation mode: HCD
Collision energy: 45 % (nominal)
Resolution: 15000
Column name: XBridge C18 3.5um, 2.1x50mm, Waters
Retention time: 2.6 min
Base peak: 232.1453
Precursor m/z: 232.1444
Precursor type: [M+H]+
m/z	relative intensity	assigned
56.0495	193	C3H6N+
58.0652	240	C3H8N+
70.0652	294	C4H8N+
72.0808	260	C4H10N+
82.0652	39	C5H8N+
83.0605	6	C4H7N2+
84.0682	8	C4H8N2+
84.0808	65	C5H10N+
87.0916	15	C4H11N2+
96.0682	6	C5H8N2+
97.0761	575	C5H9N2+
98.0839	481	C5H10N2+
99.0917	99	C5H11N2+
106.0652	75	C7H8N+
111.0918	533	C6H11N2+
113.1074	999	C6H13N2+
118.0652	58	C8H8N+
123.0553	4	C6H7N2O+
132.0446	19	C8H6NO+
133.0759	9	C8H9N2+
146.0602	13	C9H8NO+
149.1073	33	C9H13N2+
159.0918	61	C10H11N2+
177.1023	78	C10H13N2O+
187.0865	27	C11H11N2O+
188.0948	14	C11H12N2O+
202.0977	6	C11H12N3O+
214.1339	4	C13H16N3+
216.1132	13	C12H14N3O+
217.1216	20	C12H15N3O+
232.1443	56	C13H18N3O+
