Mass spectrum: Nilotinib; LC-ESI-QFT; MS2; CE: 45; R=35000; [M+H]+
Name: Nilotinib
Name: 4-methyl-N-(3-(4-methylimidazol-1-yl)-5-(trifluoromethyl)phenyl)-3-((4-pyridin-3-ylpyrimidin-2-yl)amino)benzamide
Formula: C28H22F3N7O
Exact mass: 529.18379
SMILES: CC1=C(C=C(C=C1)C(=O)NC2=CC(=CC(=C2)N3C=C(N=C3)C)C(F)(F)F)NC4=NC=CC(=N4)C5=CN=CC=C5
InChI: InChI=1S/C28H22F3N7O/c1-17-5-6-19(10-25(17)37-27-33-9-7-24(36-27)20-4-3-8-32-14-20)26(39)35-22-11-21(28(29,30)31)12-23(13-22)38-15-18(2)34-16-38/h3-16H,1-2H3,(H,35,39)(H,33,36,37)
Instrument: Q Exactive Plus Orbitrap Thermo Scientific
Instrument type: LC-ESI-QFT
Ms type: MS2
Ion mode: POSITIVE
Ionization: ESI
Fragmentation mode: HCD
Collision energy: 45 (nominal)
Resolution: 35000
Column name: XBridge C18 3.5um, 2.1x50mm, Waters
Retention time: 8.2 min
Base peak: 530.1902
Precursor m/z: 530.1911
Precursor type: [M+H]+
m/z	relative intensity	assigned
83.0602	1	C4H7N2+
104.0492	1	C2H5FN4+
131.0601	4	C3H6FN5+
157.0759	1	C5H8FN5+
158.0713	5	C9H8N3+
159.0552	2	C4H6FN5O+
171.0789	1	C5H8FN6+
174.0661	1	C9H8N3O+
183.0792	2	C11H9N3+
198.0525	1	C10H7F3N+
220.0873	1	C14H10N3+
221.0945	2	C9H10FN6+
225.0634	6	C11H8F3N2+
226.0713	3	C11H9F3N2+
233.082	2	C9H8FN7+
234.1026	32	C15H12N3+
235.0979	2	C14H11N4+
241.0825	3	C16H11F2+
242.0898	1	C11H11F3N3+
243.074	17	C11H10F3N2O+
244.0868	11	C11H9FN6+
245.0822	6	C15H9N4+
245.0948	10	C16H11N3+
246.0899	33	C10H9FN7+
257.0809	1	C11H8FN7+
258.0604	2	C14H8F2N2O+
259.0978	406	C11H10FN7+
260.1056	816	C16H12N4+
261.1133	999	C11H12FN7+
263.129	33	C11H14FN7+
268.0688	8	C12H9F3N3O+
272.0818	22	
278.0802	2	C15H10N4O2+
289.1082	872	C12H12FN7O+
307.1189	574	C17H16F3NO+
318.1035	3	C14H12F2N6O+
321.1345	17	C18H18F3NO+
337.103	2	C24H14FO+
408.1243	1	C27H14N5+
442.1771	1	C27H20N7+
470.1722	12	C28H20N7O+
475.1542	4	C27H18FN7O+
490.1786	5	C28H21FN7O+
510.1848	11	C28H22F2N7O+
512.1805	12	C28H21F3N7+
530.1912	7	C28H23F3N7O+
