Mass spectrum: Dicloxacillin; LC-ESI-QFT; MS2; CE: 45; R=35000; [M-H]-
Name: Dicloxacillin
Name: 6-[[3-(2,6-dichlorophenyl)-5-methyl-1,2-oxazole-4-carbonyl]amino]-3,3-dimethyl-7-oxo-4-thia-1-azabicyclo[3.2.0]heptane-2-carboxylic acid
Formula: C19H17Cl2N3O5S
Exact mass: 469.02660
SMILES: CC1=C(C(=NO1)C2=C(C=CC=C2Cl)Cl)C(=O)NC3C4N(C3=O)C(C(S4)(C)C)C(=O)O
InChI: InChI=1S/C19H17Cl2N3O5S/c1-7-10(12(23-29-7)11-8(20)5-4-6-9(11)21)15(25)22-13-16(26)24-14(18(27)28)19(2,3)30-17(13)24/h4-6,13-14,17H,1-3H3,(H,22,25)(H,27,28)
Instrument: Q Exactive Plus Orbitrap Thermo Scientific
Instrument type: LC-ESI-QFT
Ms type: MS2
Ion mode: NEGATIVE
Ionization: ESI
Fragmentation mode: HCD
Collision energy: 45 (nominal)
Resolution: 35000
Column name: XBridge C18 3.5um, 2.1x50mm, Waters
Retention time: 9.5 min
Base peak: 468.0196
Precursor m/z: 468.0193
Precursor type: [M-H]-
m/z	relative intensity	assigned
56.9805	8	C2HS-
57.9757	184	CNS-
58.9962	49	C2H3S-
59.9913	20	CH2NS-
65.9986	59	C3NO-
66.9417	4	ClS-
67.0191	9	C4H3O-
67.0511	40	H7N2O2-
70.9837	120	C2HNS-
71.9915	57	C2H2NS-
72.9993	56	C2H3NS-
74.9911	437	C2H3OS-
82.0299	207	C4H4NO-
83.014	999	C4H3O2-
83.9914	6	C3H2NS-
85.0119	17	C4H5S-
90.035	17	C6H4N-
99.9864	18	C3H2NOS-
107.0253	5	C5H3N2O-
110.9911	10	C5H3OS-
113.0067	9	C5H5OS-
114.0018	5	C4H4NOS-
118.0301	5	C4H7ClN2-
123.9864	52	C5H2NOS-
126.0021	6	C5H4NOS-
139.0096	8	C6H5NOS-
150.0119	26	C8H5ClN-
151.0071	32	C4H7O4S-
151.991	45	C7H3ClNO-
152.0381	7	C10H4N2-
153.9968	5	C6H4NO2S-
156.0128	9	C3H9ClN2OS-
159.9729	221	C6H4Cl2N-
167.9683	9	C7H3ClNS-
168.0456	78	C11H6NO-
181.9837	8	C8H5ClNS-
182.0158	101	
184.0228	28	C11H6NS-
185.0185	6	C10H5N2S-
189.0227	46	C7H9O4S-
190.0066	117	C10H5ClNO-
191.002	159	C6H7O5S-
193.0408	20	C12H5N2O-
193.9839	4	C9H5ClNS-
197.0358	6	C11H5N2O2-
199.0153	4	C7H6ClN3O2-
202.007	34	C8H8Cl2N2-
203.0019	9	C7H7O5S-
204.9762	29	C10H4ClNS-
205.9839	23	C10H5ClNS-
206.9794	8	C9H4ClN2S-
211.0341	6	C12H7N2S-
212.018	118	C9H9ClN2S-
215.0032	32	C2H13Cl2N2O3S-
215.0141	6	C15H3O2-
216.0101	72	C8H8Cl2N3-
217.0174	10	C11H6ClN2O-
218.9796	18	C10H4ClN2S-
219.9992	7	C11H7ClNS-
220.9951	9	C10H6ClN2S-
221.9794	4	C7H8Cl2N2S-
225.0309	8	C9H8ClN3O2-
225.9834	47	C10H6Cl2NO-
232.9714	60	C8H7Cl2N2S-
233.0126	560	C11H6ClN2O2-
235.01	29	C11H8ClN2S-
240.0003	27	C9H7ClN3OS-
242.9969	28	C12H4ClN2O2-
247.982	71	C8H8Cl2N3S-
247.9948	59	C9H10Cl2N2S-
248.9898	163	C8H9Cl2N3S-
254.0163	8	C10H9ClN3OS-
255.0238	41	C10H10ClN3OS-
257.0129	69	C10H9Cl2N3O-
258.0204	299	C13H7ClN2O2-
263.0052	34	C12H8ClN2OS-
271.9901	37	C9H7ClN3O3S-
289.9939	5	C12H12Cl2O2S-
290.0105	18	C10H10Cl2N3O3-
291.0005	96	C10H11Cl2N3OS-
