Mass spectrum: Venlafaxine N-Oxide; LC-ESI-QFT; MS2; CE: 45; R=35000; [M+H]+
Name: Venlafaxine N-Oxide
Name: 2-(1-hydroxycyclohexyl)-2-(4-methoxyphenyl)-N,N-dimethylethanamine oxide
Formula: C17H27NO3
Exact mass: 293.19909
SMILES: OC1(C(C2=CC=C(OC)C=C2)C[N+](C)(C)[O-])CCCCC1
InChI: InChI=1S/C17H27NO3/c1-18(2,20)13-16(17(19)11-5-4-6-12-17)14-7-9-15(21-3)10-8-14/h7-10,16,19H,4-6,11-13H2,1-3H3
Instrument: Q Exactive Plus Orbitrap Thermo Scientific
Instrument type: LC-ESI-QFT
Ms type: MS2
Ion mode: POSITIVE
Ionization: ESI
Fragmentation mode: HCD
Collision energy: 45 (nominal)
Resolution: 35000
Column name: XBridge C18 3.5um, 2.1x50mm, Waters
Retention time: 6.6 min
Base peak: 294.206
Precursor m/z: 294.2064
Precursor type: [M+H]+
m/z	relative intensity	assigned
58.0651	3	C3H8N+
62.06	11	C2H8NO+
78.0461	1	C6H6+
79.0542	1	C6H7+
81.0699	8	C6H9+
91.0543	2	C7H7+
99.0804	21	C6H11O+
105.0696	1	C8H9+
107.0856	2	C8H11+
121.0647	999	C8H9O+
122.0683	1	C3H10N2O3+
135.0804	25	C9H11O+
147.0804	16	C10H11O+
147.1041	3	C10H13N+
151.0753	1	C9H11O2+
159.0804	5	C11H11O+
163.0991	10	C10H13NO+
173.0961	6	C12H13O+
178.1226	35	C11H16NO+
215.143	13	C15H19O+
294.2064	2	C17H28NO3+
