Mass spectrum: Triphenylphosphine oxide; LC-ESI-QFT; MS2; CE: 15; R=35000; [M+H]+
Name: Triphenylphosphine oxide
Name: Triphenylphosphineoxide
Name: (diphenylphosphoroso)benzene
Formula: C18H15OP
Exact mass: 278.08605
SMILES: C1=CC=C(C=C1)P(=O)(C2=CC=CC=C2)C3=CC=CC=C3
InChI: InChI=1S/C18H15OP/c19-20(16-10-4-1-5-11-16,17-12-6-2-7-13-17)18-14-8-3-9-15-18/h1-15H
Instrument: Q Exactive Plus Orbitrap Thermo Scientific
Instrument type: LC-ESI-QFT
Ms type: MS2
Ion mode: POSITIVE
Ionization: ESI
Fragmentation mode: HCD
Collision energy: 15 (nominal)
Resolution: 35000
Column name: XBridge C18 3.5um, 2.1x50mm, Waters
Retention time: 9.4 min
Base peak: 391.2839
Precursor m/z: 279.0933
Precursor type: [M+H]+
m/z	relative intensity	assigned
51.0229	5	C4H3+
53.0021	1	C3HO+
57.0699	432	C4H9+
59.0491	26	C3H7O+
65.0386	15	C5H5+
71.0855	62	C5H11+
74.0964	6	C4H12N+
76.0306	7	C6H4+
87.0441	43	C4H7O2+
89.0709	2	C3H9N2O+
101.0597	34	C5H9O2+
117.0908	16	C6H13O2+
119.0855	1	C9H11+
161.096	2	C11H13O+
279.0934	999	C18H16OP+
