Mass spectrum: Propiconazole; LC-ESI-ITFT; MS2; CE: 30%; R=7500; [M+H]+
Name: Propiconazole
Name: 1-[[2-(2,4-dichlorophenyl)-4-propyl-1,3-dioxolan-2-yl]methyl]-1,2,4-triazole
Formula: C15H17Cl2N3O2
Exact mass: 341.0692
SMILES: CCCC1COC(O1)(CN2C=NC=N2)C3=C(C=C(C=C3)Cl)Cl
InChI: InChI=1S/C15H17Cl2N3O2/c1-2-3-12-7-21-15(22-12,8-20-10-18-9-19-20)13-5-4-11(16)6-14(13)17/h4-6,9-10,12H,2-3,7-8H2,1H3
Instrument: LTQ Orbitrap XL Thermo Scientific
Instrument type: LC-ESI-ITFT
Ms type: MS2
Ion mode: POSITIVE
Ionization: ESI
Fragmentation mode: HCD
Collision energy: 30 % (nominal)
Resolution: 7500
Column name: XBridge C18 3.5um, 2.1x50mm, Waters
Retention time: 13.1 min
Base peak: 342.0774
Precursor m/z: 342.0771
Precursor type: [M+H]+
m/z	relative intensity	assigned
67.0544	8	C5H7+
69.0699	185	C5H9+
70.04	38	C2H4N3+
158.9763	546	C7H5Cl2+
172.9561	6	C7H3Cl2O+
172.9918	6	C8H7Cl2+
186.9713	82	C8H5Cl2O+
190.9665	10	C7H5Cl2O2+
204.982	88	C8H7Cl2O2+
259.0287	34	C12H13Cl2O2+
273.0447	32	C13H15Cl2O2+
342.077	999	C15H18Cl2N3O2+
