Mass spectrum: Parathion; LC-ESI-QFT; MS2; CE: 90; R=35000; [M+H]+
Name: Parathion
Name: diethoxy-(4-nitrophenoxy)-sulfanylidene-$l^{5}-phosphane
Formula: C10H14NO5PS
Exact mass: 291.03303
SMILES: S=P(Oc1ccc(cc1)[N+]([O-])=O)(OCC)OCC
InChI: InChI=1S/C10H14NO5PS/c1-3-14-17(18,15-4-2)16-10-7-5-9(6-8-10)11(12)13/h5-8H,3-4H2,1-2H3
Instrument: Q Exactive Orbitrap Thermo Scientific
Instrument type: LC-ESI-QFT
Ms type: MS2
Ion mode: POSITIVE
Ionization: ESI
Fragmentation mode: HCD
Collision energy: 90 (nominal)
Resolution: 35000
Column name: XBridge C18 3.5um, 2.1x50mm, Waters
Retention time: 12.6 min
Base peak: 292.0402
Precursor m/z: 292.0403
Precursor type: [M+H]+
m/z	relative intensity	assigned
62.9452	11	PS+
63.0229	13	C5H3+
64.0308	8	C5H4+
64.9787	75	H2O2P+
65.0385	103	C5H5+
66.0464	117	C5H6+
68.0257	7	C4H4O+
68.9792	2	C3HS+
74.015	1	C6H2+
75.0229	79	C6H3+
76.0306	6	C6H4+
77.0383	1	C6H5+
78.0337	1	C5H4N+
78.0462	1	C6H6+
78.9401	4	OPS+
79.0178	2	C5H3O+
79.0542	1	C6H7+
81.0335	17	C5H5O+
82.0412	5	C5H6O+
84.0027	12	C4H4S+
91.0542	3	C7H7+
92.0256	55	C6H4O+
93.0335	7	C6H5O+
94.0412	999	C6H6O+
95.049	11	C6H7O+
96.0027	10	C5H4S+
96.9506	5	H2O2PS+
97.0106	41	C5H5S+
98.0184	5	C5H6S+
98.9841	37	H4O4P+
100.0071	8	C4H5OP+
107.0492	3	C7H7O+
108.0027	12	C6H4S+
109.0106	66	C6H5S+
109.0283	35	C6H5O2+
110.0184	399	C6H6S+
110.0361	30	C6H6O2+
111.0439	80	C6H7O2+
114.9612	527	H4O3PS+
120.0568	1	C8H8O+
121.0395	81	C6H5N2O+
122.9898	23	
123.0313	443	C6H5NO2+
123.9975	10	C6H4OS+
125.0054	77	C6H5OS+
126.0132	11	C6H6OS+
127.0212	6	C6H7OS+
128.0019	6	C5H5O2P+
132.9719	9	H6O4PS+
137.0167	6	C6H5N2S+
138.9943	28	C6H4O2P+
139.0085	42	C6H5NOS+
140.0341	34	C6H6NO3+
150.0298	29	C6H4N3O2+
153.9954	1	C6H4NO2S+
154.9714	64	C6H4OPS+
155.997	29	C6H5O3P+
156.0112	4	C6H6NO2S+
170.9663	7	C6H4O2PS+
171.974	87	C6H5O2PS+
174.0075	77	C6H7O4P+
184.9871	2	C6H4NO4P+
187.969	1	C6H5O3PS+
188.9769	7	C6H6O3PS+
189.9847	12	C6H7O3PS+
198.9728	4	C10HNO2S+
200.9644	3	C6H4NO3PS+
201.0053	1	C10H3NO4+
202.9974	12	C10H3O5+
204.9717	1	C6H6O4PS+
205.9792	2	C6H7O4PS+
218.9745	6	C10H3O4S+
221.9749	1	C6H7O5PS+
235.9775	1	C10H4O5S+
