Mass spectrum: Florfenicol; LC-ESI-QFT; MS2; CE: 180; R=35000; [M+H]+
Name: Florfenicol
Name: 2,2-dichloro-N-{3-fluoro-1-hydroxy-1-[4-(methylsulfonyl)phenyl]propan-2-yl}acetamide
Name: 2,2-dichloro-N-[3-fluoro-1-hydroxy-1-(4-methylsulfonylphenyl)propan-2-yl]acetamide
Formula: C12H14Cl2FNO4S
Exact mass: 357.00046
SMILES: CS(=O)(=O)C1=CC=C(C=C1)C(C(CF)NC(=O)C(Cl)Cl)O
InChI: InChI=1S/C12H14Cl2FNO4S/c1-21(19,20)8-4-2-7(3-5-8)10(17)9(6-15)16-12(18)11(13)14/h2-5,9-11,17H,6H2,1H3,(H,16,18)
Instrument: Q Exactive Plus Orbitrap Thermo Scientific
Instrument type: LC-ESI-QFT
Ms type: MS2
Ion mode: POSITIVE
Ionization: ESI
Fragmentation mode: HCD
Collision energy: 180 (nominal)
Resolution: 35000
Column name: XBridge C18 3.5um, 2.1x50mm, Waters
Retention time: 4.6 min
Base peak: 390.0331
Precursor m/z: 358.0077
Precursor type: [M+H]+
m/z	relative intensity	assigned
50.0151	161	C4H2+
51.0229	98	C4H3+
52.0182	5	C3H2N+
52.0307	2	C4H4+
53.0022	11	C3HO+
53.0386	208	C4H5+
55.0178	17	C3H3O+
57.0135	20	C3H2F+
60.0244	6	C2H3FN+
61.0072	8	C5H+
62.0151	33	C5H2+
63.0229	148	C5H3+
63.9949	1	CH3ClN+
64.0308	4	C5H4+
65.0386	140	C5H5+
66.01	3	C4H2O+
66.0464	7	C5H6+
66.9745	1	CHClF+
67.0418	2	C4H5N+
67.0542	7	C5H7+
68.9971	1	C3HO2+
74.0151	40	C6H2+
75.0229	88	C6H3+
75.971	5	C2HClO+
76.0307	42	C6H4+
77.0385	301	C6H5+
78.0464	86	C6H6+
79.0542	5	C6H7+
80.0495	4	C5H6N+
81.0135	7	C5H2F+
81.0335	32	C5H5O+
81.9372	1	CCl2+
82.945	999	CHCl2+
86.0151	7	C7H2+
87.0229	25	C7H3+
88.0307	14	C7H4+
89.0386	230	C7H5+
90.0338	3	C6H4N+
90.0464	18	C7H6+
91.0543	63	C7H7+
94.0413	9	C6H6O+
95.0491	674	C6H7O+
96.0443	2	C5H6NO+
98.0151	6	C8H2+
99.0229	13	C8H3+
100.0308	4	C8H4+
101.0385	7	C8H5+
102.0464	161	C8H6+
103.0542	392	C8H7+
104.0494	15	C7H6N+
105.0447	495	C6H5N2+
106.0418	3	C4H9ClN+
107.0291	25	C7H4F+
109.0447	1	C7H6F+
109.0649	3	C7H9O+
113.0385	33	C9H5+
114.034	3	C8H4N+
114.0465	6	C9H6+
115.0542	155	C9H7+
116.0495	9	C8H6N+
117.0573	17	C8H7N+
118.0413	1	C8H6O+
118.065	1	C8H8N+
119.0491	4	C8H7O+
120.0208	1	C7H4O2+
125.0388	5	C10H5+
126.0464	43	C10H6+
127.0542	20	C10H7+
128.0494	9	C9H6N+
128.062	43	C10H8+
129.0447	15	C8H5N2+
130.0652	100	C9H8N+
131.0493	6	C9H7O+
132.0568	3	C9H8O+
133.0448	41	C9H6F+
140.0495	11	C10H6N+
146.0601	1	C9H8NO+
155.0603	17	C4H13NO3S+
170.0603	1	C11H8NO+
