Mass spectrum: 5-Hydroxy Diclofenac; LC-ESI-QFT; MS2; CE: 150; R=35000; [M+H]+
Name: 5-Hydroxy Diclofenac
Name: 5-hydroxydiclofenac
Name: 2-[2-(2,6-dichloroanilino)-5-hydroxyphenyl]acetic acid
Formula: C14H11Cl2NO3
Exact mass: 311.01160
SMILES: C1=CC(=C(C(=C1)Cl)NC2=C(C=C(C=C2)O)CC(=O)O)Cl
InChI: InChI=1S/C14H11Cl2NO3/c15-10-2-1-3-11(16)14(10)17-12-5-4-9(18)6-8(12)7-13(19)20/h1-6,17-18H,7H2,(H,19,20)
Instrument: Q Exactive Plus Orbitrap Thermo Scientific
Instrument type: LC-ESI-QFT
Ms type: MS2
Ion mode: POSITIVE
Ionization: ESI
Fragmentation mode: HCD
Collision energy: 150 (nominal)
Resolution: 35000
Column name: XBridge C18 3.5um, 2.1x50mm, Waters
Retention time: 10.3 min
Base peak: 312.0187
Precursor m/z: 312.0189
Precursor type: [M+H]+
m/z	relative intensity	assigned
50.015	7	C4H2+
51.0229	3	C4H3+
53.0022	2	C3HO+
53.0387	5	C4H5+
55.0178	2	C3H3O+
61.0072	3	C5H+
62.0151	12	C5H2+
63.0229	51	C5H3+
64.0181	3	C4H2N+
65.0386	27	C5H5+
66.0464	4	C5H6+
72.9839	36	C3H2Cl+
74.015	5	C6H2+
75.0229	15	C6H3+
76.0307	1	C6H4+
77.0385	8	C6H5+
78.0464	2	C6H6+
79.0543	1	C6H7+
81.0335	6	C5H5O+
82.945	12	CHCl2+
86.0149	3	C7H2+
87.0229	15	C7H3+
88.0181	6	C6H2N+
88.0309	6	C7H4+
89.0386	84	C7H5+
90.0339	12	C6H4N+
90.0465	11	C7H6+
91.0543	12	C7H7+
95.0492	18	C6H7O+
96.984	6	C5H2Cl+
98.015	2	C8H2+
98.9997	3	C5H4Cl+
99.0229	10	C8H3+
100.0181	5	C7H2N+
100.0307	1	C8H4+
101.0386	2	C8H5+
102.0464	10	C8H6+
103.0544	1	C8H7+
105.0447	10	C6H5N2+
106.945	4	C3HCl2+
107.0491	1	C7H7O+
108.9842	1	C6H2Cl+
113.0386	172	C9H5+
114.0338	19	C8H4N+
114.0464	28	C9H6+
115.0543	172	C9H7+
116.0495	34	C8H6N+
116.0621	4	C9H8+
117.0573	7	C8H7N+
118.041	5	C8H6O+
119.0491	2	C8H7O+
120.0445	8	C7H6NO+
122.0148	1	C10H2+
123.0229	11	C10H3+
125.0028	7	C6H4ClN+
125.0386	13	C10H5+
126.0338	2	C9H4N+
126.0465	17	C10H6+
127.0417	10	C9H5N+
127.0542	5	C10H7+
128.0495	33	C9H6N+
128.0621	6	C10H8+
129.0447	9	C8H5N2+
129.0574	1	C9H7N+
130.04	1	C7H4N3+
132.0445	2	C8H6NO+
132.057	12	C9H8O+
132.9606	7	C5H3Cl2+
134.0606	1	C8H8NO+
137.0387	16	C11H5+
138.0465	50	C11H6+
139.0543	999	C11H7+
140.0495	784	C10H6N+
140.0616	92	C11H8+
141.0332	1	C10H5O+
141.0573	22	C10H7N+
141.0698	7	C11H9+
142.065	3	C10H8N+
143.0367	1	C9H5NO+
143.0492	2	C10H7O+
144.0442	5	C9H6NO+
145.0647	4	C10H9O+
146.0599	10	C9H8NO+
149.0154	3	C9H6Cl+
149.0387	35	C12H5+
150.0465	47	C12H6+
151.0418	8	C11H5N+
151.0543	6	C12H7+
152.0497	5	C11H6N+
152.062	7	C12H8+
153.0573	4	C11H7N+
154.0403	3	C9H4N3+
154.0652	22	C11H8N+
155.0493	3	C11H7O+
155.0604	10	C10H7N2+
156.0571	10	C11H8O+
157.052	5	C10H7NO+
158.0602	1	C10H8NO+
162.0105	3	C9H5ClN+
164.0495	285	C12H6N+
165.0574	101	C12H7N+
166.0652	871	C12H8N+
167.073	775	C12H9N+
168.0444	20	C11H6NO+
168.0567	9	C12H8O+
168.0808	8	C12H10N+
169.0528	6	C11H7NO+
169.0647	26	C12H9O+
170.0361	3	C11H6O2+
170.0601	7	C11H8NO+
173.0153	1	C11H6Cl+
175.0417	40	C13H5N+
176.0496	9	C13H6N+
177.0448	5	C12H5N2+
177.0573	104	C13H7N+
178.0652	26	C13H8N+
179.0607	7	C12H7N2+
179.0728	10	C13H9N+
180.0213	1	C9H7ClNO+
180.0444	5	C12H6NO+
182.0598	3	C12H8NO+
183.068	15	C12H9NO+
184.0757	7	C12H10NO+
185.0596	10	C12H9O2+
186.0552	1	C11H8NO2+
192.0442	2	C13H6NO+
193.0523	141	C13H7NO+
194.0601	79	C13H8NO+
195.0679	142	C13H9NO+
196.0757	5	C13H10NO+
198.0916	1	C13H12NO+
200.0262	4	C12H7ClN+
201.0341	57	C12H8ClN+
202.0417	11	C12H9ClN+
204.0557	25	C13H6N3+
212.0264	6	C13H7ClN+
213.0339	1	C13H8ClN+
229.0289	4	C13H8ClNO+
230.0369	13	C13H9ClNO+
