Mass spectrum: Alfuzosin; LC-ESI-QFT; MS2; CE: 75; R=35000; [M+H]+
Name: Alfuzosin
Name: N-{3-[(4-Amino-6,7-dimethoxy-2-quinazolinyl)(methyl)amino]propyl}tetrahydro-2-furancarboxamide
Name: N-[3-[(4-amino-6,7-dimethoxyquinazolin-2-yl)-methylamino]propyl]oxolane-2-carboxamide
Formula: C19H27N5O4
Exact mass: 389.20630
SMILES: CN(CCCNC(=O)C1CCCO1)C2=NC3=CC(=C(C=C3C(=N2)N)OC)OC
InChI: InChI=1S/C19H27N5O4/c1-24(8-5-7-21-18(25)14-6-4-9-28-14)19-22-13-11-16(27-3)15(26-2)10-12(13)17(20)23-19/h10-11,14H,4-9H2,1-3H3,(H,21,25)(H2,20,22,23)
Instrument: Q Exactive Plus Orbitrap Thermo Scientific
Instrument type: LC-ESI-QFT
Ms type: MS2
Ion mode: POSITIVE
Ionization: ESI
Fragmentation mode: HCD
Collision energy: 75 (nominal)
Resolution: 35000
Column name: XBridge C18 3.5um, 2.1x50mm, Waters
Retention time: 5.3 min
Base peak: 390.2132
Precursor m/z: 390.2136
Precursor type: [M+H]+
m/z	relative intensity	assigned
53.0022	4	C3HO+
55.0178	1	C3H3O+
56.0494	1	C3H6N+
57.0447	5	C2H5N2+
58.0287	3	C2H4NO+
58.0651	12	C3H8N+
59.0491	13	C3H7O+
67.9892	1	C3O2+
69.0335	1	C4H5O+
71.0491	999	C4H7O+
81.0335	1	C5H5O+
82.0652	2	C5H8N+
86.06	22	C4H8NO+
99.0441	1	C5H7O2+
100.0756	12	C5H10NO+
112.0757	1	C6H10NO+
128.0706	6	C6H10NO2+
133.0397	2	C7H5N2O+
135.0552	1	C7H7N2O+
146.0711	1	C8H8N3+
147.0553	9	C8H7N2O+
147.0666	1	C7H7N4+
149.0709	8	C8H9N2O+
156.1019	38	C8H14NO2+
161.0823	1	C8H9N4+
162.0662	1	C8H8N3O+
162.09	6	C8H10N4+
163.05	1	C8H7N2O2+
163.0978	1	C8H11N4+
173.0823	1	C9H9N4+
174.0661	3	C9H8N3O+
174.0901	8	C9H10N4+
175.0501	4	C9H7N2O2+
175.0738	1	C9H9N3O+
176.058	4	C9H8N2O2+
176.0695	1	C8H8N4O+
177.0658	8	C9H9N2O2+
179.0815	2	C9H11N2O2+
186.0901	1	C10H10N4+
187.074	2	C10H9N3O+
187.0975	1	C10H11N4+
188.1053	1	C10H12N4+
189.077	10	C9H9N4O+
190.061	5	C9H8N3O2+
190.0847	11	C9H10N4O+
191.0816	24	C10H11N2O2+
191.0927	55	C9H11N4O+
201.0773	1	C10H9N4O+
201.1133	1	C11H13N4+
202.0611	8	C10H8N3O2+
202.0847	4	C10H10N4O+
202.121	3	C11H14N4+
203.0692	1	C10H9N3O2+
203.0927	16	C10H11N4O+
204.0768	12	C10H10N3O2+
205.0722	9	C9H9N4O2+
205.0845	4	C10H11N3O2+
206.08	2	C9H10N4O2+
206.0925	5	C10H12N3O2+
215.093	1	C11H11N4O+
216.1004	2	C11H12N4O+
217.0721	3	C10H9N4O2+
217.1086	1	C11H13N4O+
218.0802	2	C10H10N4O2+
218.0926	4	C11H12N3O2+
219.0877	319	C10H11N4O2+
220.0955	37	C10H12N4O2+
222.0871	1	C10H12N3O3+
229.1085	2	C12H13N4O+
230.1164	1	C12H14N4O+
231.0876	60	C11H11N4O2+
231.1239	6	C12H15N4O+
232.0955	9	C11H12N4O2+
233.1033	5	C11H13N4O2+
234.111	3	C11H14N4O2+
235.1189	40	C11H15N4O2+
245.1034	4	C12H13N4O2+
247.1189	25	C12H15N4O2+
257.1029	2	C13H13N4O2+
258.1353	1	C13H16N5O+
259.119	44	C13H15N4O2+
260.1267	1	C13H16N4O2+
261.1347	1	C13H17N4O2+
275.1503	1	C14H19N4O2+
286.1296	5	C14H16N5O2+
