Mass spectrum: Albendazole; LC-ESI-QFT; MS2; CE: 150; R=35000; [M+H]+
Name: Albendazole
Name: Methyl N-(6-propylsulfanyl-1H-benzimidazol-2-yl)carbamate
Formula: C12H15N3O2S
Exact mass: 265.08850
SMILES: CCCSC1=CC2=C(C=C1)N=C(N2)NC(=O)OC
InChI: InChI=1S/C12H15N3O2S/c1-3-6-18-8-4-5-9-10(7-8)14-11(13-9)15-12(16)17-2/h4-5,7H,3,6H2,1-2H3,(H2,13,14,15,16)
Instrument: Q Exactive Plus Orbitrap Thermo Scientific
Instrument type: LC-ESI-QFT
Ms type: MS2
Ion mode: POSITIVE
Ionization: ESI
Fragmentation mode: HCD
Collision energy: 150 (nominal)
Resolution: 35000
Column name: XBridge C18 3.5um, 2.1x50mm, Waters
Retention time: 7.8 min
Base peak: 266.0953
Precursor m/z: 266.0958
Precursor type: [M+H]+
m/z	relative intensity	assigned
50.0151	43	C4H2+
51.0229	18	C4H3+
52.0182	40	C3H2N+
52.0308	17	C4H4+
53.0022	6	C3HO+
53.0134	2	C2HN2+
53.026	16	C3H3N+
53.0386	9	C4H5+
53.9975	3	C2NO+
54.0339	22	C3H4N+
54.0465	1	C4H6+
55.0179	2	C3H3O+
55.029	1	C2H3N2+
55.0417	2	C3H5N+
56.0495	8	C3H6N+
56.9794	3	C2HS+
57.9872	42	C2H2S+
58.9824	3	CHNS+
58.995	1	C2H3S+
59.9665	1	COS+
59.9902	15	CH2NS+
62.0151	12	C5H2+
63.023	69	C5H3+
64.0182	53	C4H2N+
64.0308	22	C5H4+
65.026	93	C4H3N+
65.0386	35	C5H5+
66.0213	21	C3H2N2+
66.0338	25	C4H4N+
66.0464	18	C5H6+
67.0417	82	C4H5N+
68.0131	2	C3H2NO+
68.0257	2	C4H4O+
68.0495	7	C4H6N+
68.9794	112	C3HS+
69.0084	42	C2HN2O+
69.9872	176	C3H2S+
70.995	13	C3H3S+
71.9665	1	C2OS+
71.9903	3	C2H2NS+
75.0103	6	C5HN+
75.0229	8	C6H3+
76.0182	222	C5H2N+
77.026	925	C5H3N+
78.0339	169	C5H4N+
79.0291	34	C4H3N2+
79.0417	226	C5H5N+
80.0369	22	C4H4N2+
80.0495	24	C5H6N+
80.9794	6	C4HS+
81.0336	2	C5H5O+
81.9872	190	C4H2S+
82.0288	17	C4H4NO+
82.9824	96	C3HNS+
82.995	7	C4H3S+
83.9903	52	C3H2NS+
84.0029	10	C4H4S+
84.9855	7	C2HN2S+
84.9981	15	C3H3NS+
85.9696	3	C2NOS+
85.982	2	C3H2OS+
88.0181	5	C6H2N+
89.026	9	C6H3N+
90.0339	103	C6H4N+
91.0292	5	C5H3N2+
91.0417	53	C6H5N+
92.037	865	C5H4N2+
92.9794	97	C5HS+
93.0448	79	C5H5N2+
93.9873	248	C5H2S+
94.0288	14	C5H4NO+
94.0526	18	C5H6N2+
94.9824	18	C4HNS+
94.9951	160	C5H3S+
95.0366	62	C5H5NO+
95.9904	26	C4H2NS+
96.0029	207	C5H4S+
96.0444	61	C5H6NO+
96.9981	12	C4H3NS+
97.0108	16	C5H5S+
97.0522	18	C5H7NO+
102.0338	7	C7H4N+
103.0292	177	C6H3N2+
103.0417	60	C7H5N+
104.037	999	C6H4N2+
105.0448	231	C6H5N2+
105.987	3	C6H2S+
106.0288	3	C6H4NO+
106.0401	2	C5H4N3+
106.0526	50	C6H6N2+
107.9902	8	C5H2NS+
108.0029	2	C6H4S+
108.0443	1	C6H6NO+
108.9982	529	C5H3NS+
109.9933	24	C4H2N2S+
110.006	76	C5H4NS+
110.0475	8	C5H6N2O+
111.0139	19	C5H5NS+
111.0315	7	C5H5NO2+
111.0553	5	C5H7N2O+
112.0217	7	C5H6NS+
114.0011	2	C4H4NOS+
116.037	26	C7H4N2+
117.0447	3	C7H5N2+
118.04	25	C6H4N3+
118.0525	28	C7H6N2+
119.0479	561	C6H5N3+
119.9904	109	C6H2NS+
120.032	21	C6H4N2O+
120.0558	40	C6H6N3+
120.9982	221	C6H3NS+
121.0397	47	C6H5N2O+
122.006	342	C6H4NS+
123.0138	73	C6H5NS+
123.9852	6	C5H2NOS+
127.9928	11	C5H4O2S+
130.0401	319	C7H4N3+
131.0479	733	C7H5N3+
132.0318	1	C7H4N2O+
132.0557	31	C7H6N3+
133.0635	46	C7H7N3+
134.0349	5	C6H4N3O+
134.0475	3	C7H6N2O+
134.0714	6	C7H8N3+
135.0012	91	C6H3N2S+
136.0091	303	C6H4N2S+
136.0268	60	C6H4N2O2+
137.0169	60	C6H5N2S+
146.035	17	C7H4N3O+
146.0714	3	C8H8N3+
147.0013	12	C7H3N2S+
147.0429	41	C7H5N3O+
148.0093	2	C7H4N2S+
148.0506	3	C7H6N3O+
149.017	20	C7H5N2S+
150.0246	3	C7H6N2S+
152.9878	11	C6H3NO2S+
158.035	87	C8H4N3O+
159.0429	414	C8H5N3O+
160.0508	19	C8H6N3O+
162.0122	66	C7H4N3S+
163.02	63	C7H5N3S+
164.0277	17	C7H6N3S+
164.9994	3	C6H3N3OS+
165.012	6	C7H5N2OS+
167.999	1	C6H4N2O2S+
176.0276	2	C8H6N3S+
190.0072	28	C8H4N3OS+
191.0149	27	C8H5N3OS+
