Mass spectrum: 2-Mercaptobenzothiazole; LC-ESI-QFT; MS2; CE: 150; R=35000; [M+H]+
Name: 2-Mercaptobenzothiazole
Name: 1,3-Benzothiazole-2(3H)-thione
Name: 3H-1,3-benzothiazole-2-thione
Formula: C7H5NS2
Exact mass: 166.98634
SMILES: S=C2Sc1ccccc1N2
InChI: InChI=1S/C7H5NS2/c9-7-8-5-3-1-2-4-6(5)10-7/h1-4H,(H,8,9)
Instrument: Q Exactive Plus Orbitrap Thermo Scientific
Instrument type: LC-ESI-QFT
Ms type: MS2
Ion mode: POSITIVE
Ionization: ESI
Fragmentation mode: HCD
Collision energy: 150 (nominal)
Resolution: 35000
Column name: XBridge C18 3.5um, 2.1x50mm, Waters
Retention time: 6.7 min
Base peak: 167.9936
Precursor m/z: 167.9936
Precursor type: [M+H]+
m/z	relative intensity	assigned
50.0151	59	C4H2+
51.023	48	C4H3+
52.0182	1	C3H2N+
53.0022	29	C3HO+
53.0386	111	C4H5+
53.9975	6	C2NO+
54.0464	1	C4H6+
55.0178	9	C3H3O+
56.0495	3	C3H6N+
57.9872	43	C2H2S+
59.9665	1	COS+
59.9902	1	CH2NS+
61.0073	1	C5H+
62.0151	11	C5H2+
63.023	225	C5H3+
64.0182	60	C4H2N+
64.0307	16	C5H4+
65.0386	999	C5H5+
66.0339	6	C4H4N+
66.0464	95	C5H6+
67.0417	4	C4H5N+
68.9793	386	C3HS+
70.995	4	C3H3S+
74.015	1	C6H2+
75.0228	6	C6H3+
76.0179	1	C5H2N+
76.0306	3	C6H4+
77.0385	221	C6H5+
78.0087	1	C3N3+
78.0464	3	C6H6+
80.0494	294	C5H6N+
80.9793	4	C4HS+
81.0335	18	C5H5O+
81.9872	130	C4H2S+
82.995	13	C4H3S+
83.9903	3	C3H2NS+
84.0028	23	C4H4S+
90.0339	191	C6H4N+
91.0417	90	C6H5N+
92.0494	19	C6H6N+
92.9794	35	C5HS+
93.9745	1	C4NS+
94.0413	3	C6H6O+
95.0492	337	
96.0027	2	C5H4S+
96.0444	1	C5H6NO+
97.0107	22	C5H5S+
103.0418	1	C7H5N+
105.0448	170	C6H5N2+
106.995	39	C6H3S+
108.0028	489	C6H4S+
109.0107	268	C6H5S+
110.0185	33	C6H6S+
123.0137	4	C6H5NS+
124.0216	25	C6H6NS+
132.9981	12	C7H3NS+
134.0059	20	C7H4NS+
135.0137	195	C7H5NS+
136.0216	96	C7H6NS+
166.9858	1	C7H5NS2+
