Mass spectrum: Mefenpyr-diethyl; LC-ESI-QFT; MS2; CE: 45; R=35000; [M+H]+
Name: Mefenpyr-diethyl
Name: 1-(2,4-Dichlorophenyl)-4,5-dihydro-5-methyl-1H-pyrazole-3,5-dicarboxylic acid diethyl ester
Name: 1-(2,4-dichlorophenyl)-5-methyl-2-pyrazoline-3,5-dicarboxylic acid diethyl ester
Formula: C16H18Cl2N2O4
Exact mass: 372.06436
SMILES: Clc1cc(Cl)c(cc1)N2/N=C(/C(=O)OCC)CC2(C(=O)OCC)C
InChI: InChI=1S/C16H18Cl2N2O4/c1-4-23-14(21)12-9-16(3,15(22)24-5-2)20(19-12)13-7-6-10(17)8-11(13)18/h6-8H,4-5,9H2,1-3H3
Instrument: Q Exactive Orbitrap Thermo Scientific
Instrument type: LC-ESI-QFT
Ms type: MS2
Ion mode: POSITIVE
Ionization: ESI
Fragmentation mode: HCD
Collision energy: 45 (nominal)
Resolution: 35000
Column name: XBridge C18 3.5um, 2.1x50mm, Waters
Retention time: 13.5 min
Base peak: 373.0724
Precursor m/z: 373.0716
Precursor type: [M+H]+
m/z	relative intensity	assigned
84.9839	8	C4H2Cl+
94.0288	6	C2H7ClN2+
98.9997	1	C5H4Cl+
108.9839	4	C6H2Cl+
112.0394	1	C5H6NO2+
120.9607	4	C4H3Cl2+
123.9948	5	C6H3ClN+
125.0028	3	C6H4ClN+
126.9946	9	C6H4ClO+
128.0025	10	C6H5ClO+
132.9607	79	C5H3Cl2+
142.0056	1	C6H5ClNO+
144.9602	10	C6H3Cl2+
145.0055	3	C3H9Cl2NO+
151.0184	3	C8H6ClN+
155.0007	1	C6H4ClN2O+
159.9717	999	C6H4Cl2N+
160.9553	5	C6H3Cl2O+
160.9794	38	C6H5Cl2N+
162.0231	3	C10H7Cl+
162.9713	8	C6H5Cl2O+
163.0183	1	C9H6ClN+
164.0263	5	C9H7ClN+
165.034	12	C9H8ClN+
171.9716	1	C7H4Cl2N+
172.967	424	C6H3Cl2N2+
173.9642	1	C7H4Cl2O+
173.9873	18	C7H6Cl2N+
177.9822	1	C6H6Cl2NO+
183.9723	1	C8H4Cl2N+
184.967	10	C7H3Cl2N2+
185.9874	358	C11H3ClO+
186.9826	1	C7H5Cl2N2+
189.0214	2	C10H6ClN2+
190.0293	12	C10H7ClN2+
191.0374	4	C10H8ClN2+
192.0453	12	C10H9ClN2+
196.9923	1	C10H7Cl2+
197.9872	3	C9H6Cl2N+
200.9982	3	C8H7Cl2N2+
209.9874	2	C10H6Cl2N+
212.9621	1	C8H3Cl2N2O+
218.0245	4	C11H7ClN2O+
219.0327	3	C11H8ClN2O+
224.9984	22	C10H7Cl2N2+
226.0063	28	C10H8Cl2N2+
227.014	77	C10H9Cl2N2+
230.9732	1	C8H5Cl2N2O2+
240.022	2	C11H10Cl2N2+
243.009	20	C10H9Cl2N2O+
252.9933	122	C11H7Cl2N2O+
254.0016	5	C11H8Cl2N2O+
271.0039	282	C11H9Cl2N2O2+
280.9887	3	C12H7Cl2N2O2+
298.9988	582	C12H9Cl2N2O3+
327.0301	456	C14H13Cl2N2O3+
359.0567	1	C15H17Cl2N2O4+
