Mass spectrum: Triflusulfuron-methyl; LC-ESI-QFT; MS2; CE: 90; R=35000; [M+H]+
Name: Triflusulfuron-methyl
Name: 2-[[4-(dimethylamino)-6-(2,2,2-trifluoroethoxy)-s-triazin-2-yl]carbamoylsulfamoyl]-3-methyl-benzoic acid methyl ester
Formula: C17H19F3N6O6S
Exact mass: 492.10389
SMILES: O=C(OC)c1cccc(c1S(=O)(=O)NC(=O)Nc2nc(nc(OCC(F)(F)F)n2)N(C)C)C
InChI: InChI=1S/C17H19F3N6O6S/c1-9-6-5-7-10(12(27)31-4)11(9)33(29,30)25-15(28)22-13-21-14(26(2)3)24-16(23-13)32-8-17(18,19)20/h5-7H,8H2,1-4H3,(H2,21,22,23,24,25,28)
Instrument: Q Exactive Orbitrap Thermo Scientific
Instrument type: LC-ESI-QFT
Ms type: MS2
Ion mode: POSITIVE
Ionization: ESI
Fragmentation mode: HCD
Collision energy: 90 (nominal)
Resolution: 35000
Column name: XBridge C18 3.5um, 2.1x50mm, Waters
Retention time: 10.8 min
Base peak: 493.1108
Precursor m/z: 493.1112
Precursor type: [M+H]+
m/z	relative intensity	assigned
55.0292	10	C2H3N2+
56.0133	2	C2H2NO+
56.0496	2	C3H6N+
60.0245	3	C2H3FN+
65.0386	22	C5H5+
67.0291	13	C3H3N2+
69.0083	56	C2HN2O+
69.0447	28	C3H5N2+
71.0603	256	C3H7N2+
72.0443	4	C3H6NO+
78.0463	7	C6H6+
79.0542	2	C6H7+
80.0242	12	C3H2N3+
81.0321	29	C3H3N3+
83.0102	1	C2H2F3+
83.0239	2	C3H3N2O+
91.0541	80	C7H7+
94.0035	2	C3N3O+
95.0491	5	C6H7O+
96.0555	999	C4H6N3+
98.0348	5	C3H4N3O+
103.0665	2	C4H8FN2+
104.0494	5	C7H6N+
105.0334	8	C7H5O+
106.0098	9	C3H2F2NO+
106.0412	9	C7H6O+
108.0056	8	C3HF3N+
112.0141	4	C3H2N3O2+
114.0661	3	C4H8N3O+
116.0493	2	C3H5FN4+
119.049	1	C3H6FN3O+
126.016	4	C3H3F3NO+
133.0208	4	C4H3F2N2O+
134.0362	3	C8H6O2+
135.0363	2	C4H5F2N2O+
139.0615	3	C5H7N4O+
149.0596	4	C4H8FN3O2+
151.0112	27	C3H5NO6+
152.0331	3	C5H4N4O2+
153.0635	2	C5H8F3N2+
166.0359	7	C5H4N5O2+
168.0377	1	C3H8N2O6+
182.0671	3	C6H8N5O2+
