Mass spectrum: Acifluorfen; LC-ESI-QFT; MS2; CE: 90; R=35000; [M-H]-
Name: Acifluorfen
Name: 5-[2-chloranyl-4-(trifluoromethyl)phenoxy]-2-nitro-benzoic acid
Formula: C14H7ClF3NO5
Exact mass: 360.99648
SMILES: Clc2cc(ccc2Oc1cc(C(=O)O)c([N+]([O-])=O)cc1)C(F)(F)F
InChI: InChI=1S/C14H7ClF3NO5/c15-10-5-7(14(16,17)18)1-4-12(10)24-8-2-3-11(19(22)23)9(6-8)13(20)21/h1-6H,(H,20,21)
Instrument: Q Exactive Orbitrap Thermo Scientific
Instrument type: LC-ESI-QFT
Ms type: MS2
Ion mode: NEGATIVE
Ionization: ESI
Fragmentation mode: HCD
Collision energy: 90 (nominal)
Resolution: 35000
Column name: XBridge C18 3.5um, 2.1x50mm, Waters
Retention time: 12.3 min
Base peak: 315.9994
Precursor m/z: 359.9892
Precursor type: [M-H]-
m/z	relative intensity	assigned
65.9984	3	C3NO-
69.0346	124	C4H5O-
79.0191	3	C5H3O-
95.0139	6	C5H3O2-
97.0295	92	C5H5O2-
107.0138	4	C6H3O2-
110.0161	21	C9H2-
125.0244	13	C6H5O3-
134.0163	82	C11H2-
137.0116	4	C6H3NO3-
139	13	C7HF2O-
154.0224	57	C11H3F-
154.9707	61	C7HClFO-
159.0064	113	C7H2F3O-
172.9812	17	C7H3ClFO2-
174.0285	7	C11H4F2-
174.9767	436	C7H2ClF2O-
182.0176	40	
194.9829	999	C7H3ClF3O-
202.0235	16	C12H4F2O-
222.03	23	C12H5F3O-
