Mass spectrum: Danofloxacin; LC-ESI-QFT; MS2; CE: 120; R=35000; [M+H]+
Name: Danofloxacin
Name: 1-cyclopropyl-6-fluoro-7-(5-methyl-2-aza-5-azoniabicyclo[2.2.1]heptan-2-yl)-4-oxoquinoline-3-carboxylate
Formula: C19H20FN3O3
Exact mass: 357.14887
SMILES: CN1C[C@@H]2C[C@H]1CN2C3=C(C=C4C(=C3)N(C=C(C4=O)C(=O)O)C5CC5)F
InChI: InChI=1S/C19H20FN3O3/c1-21-7-12-4-11(21)8-22(12)17-6-16-13(5-15(17)20)18(24)14(19(25)26)9-23(16)10-2-3-10/h5-6,9-12H,2-4,7-8H2,1H3,(H,25,26)/t11-,12-/m0/s1
Instrument: Q Exactive Plus Orbitrap Thermo Scientific
Instrument type: LC-ESI-QFT
Ms type: MS2
Ion mode: POSITIVE
Ionization: ESI
Fragmentation mode: HCD
Collision energy: 120 (nominal)
Resolution: 35000
Column name: XBridge C18 3.5um, 2.1x50mm, Waters
Retention time: 4.4 min
Base peak: 164.9843
Precursor m/z: 358.1561
Precursor type: [M+H]+
m/z	relative intensity	assigned
50.015	2	C4H2+
51.023	6	C4H3+
53.0022	127	C3HO+
53.0386	16	C4H5+
53.9975	1	C2NO+
54.0339	14	C3H4N+
55.0417	7	C3H5N+
55.0543	42	C4H7+
56.0495	12	C3H6N+
57.0135	1	C3H2F+
57.0573	6	C3H7N+
58.0652	1	C3H8N+
60.0245	1	C2H3FN+
63.0229	4	C5H3+
65.0386	45	C5H5+
66.0464	7	C5H6+
67.0417	360	C4H5N+
68.0495	34	C4H6N+
69.0573	1	C4H7N+
69.0699	1	C5H9+
70.0651	73	C4H8N+
74.0964	4	C4H12N+
75.0229	12	C6H3+
76.0182	1	C5H2N+
77.0385	3	C6H5+
78.0339	6	C5H4N+
79.0416	3	C5H5N+
79.0542	5	C6H7+
80.0495	148	C5H6N+
81.0573	48	C5H7N+
82.0651	999	C5H8N+
83.0291	8	C5H4F+
83.0729	20	C5H9N+
84.037	4	C5H5F+
84.0808	26	C5H10N+
87.0229	1	C7H3+
88.0183	1	C6H2N+
89.0386	11	C7H5+
90.0465	4	C7H6+
91.0543	2	C7H7+
93.0135	1	C6H2F+
93.0573	4	C6H7N+
94.0652	43	C6H8N+
95.0292	1	C6H4F+
95.0492	16	C6H7O+
95.0604	1	C5H7N2+
96.037	5	C6H5F+
96.0444	15	C5H6NO+
96.0808	16	C6H10N+
97.0449	2	C6H6F+
99.0229	7	C8H3+
100.0182	1	C7H2N+
102.034	1	C7H4N+
102.0465	1	C8H6+
103.0417	1	C7H5N+
103.0543	4	C8H7+
104.0496	2	C7H6N+
105.0136	1	C7H2F+
105.0448	10	C6H5N2+
107.0292	31	C7H4F+
108.0245	4	C6H3FN+
108.037	8	C7H5F+
108.0445	2	C6H6NO+
109.0323	1	C6H4FN+
109.0448	5	C7H6F+
110.0403	1	C6H5FN+
112.0183	4	C8H2N+
113.0386	12	C9H5+
114.034	13	C8H4N+
114.0465	2	C9H6+
115.0417	10	C8H5N+
115.0543	27	C9H7+
116.0495	11	C8H6N+
117.0572	7	C8H7N+
118.0214	1	C8H3F+
118.0287	4	C7H4NO+
119.0493	5	C8H7O+
120.0246	5	C7H3FN+
120.037	15	C8H5F+
121.0323	2	C7H4FN+
121.0449	3	C8H6F+
122.0401	15	C7H5FN+
123.0354	4	C6H4FN2+
123.0478	7	C7H6FN+
125.0387	14	C10H5+
126.0341	8	C9H4N+
126.0464	10	C10H6+
127.0417	7	C9H5N+
127.0543	13	C10H7+
128.0495	19	C9H6N+
128.062	8	C10H8+
129.0447	20	C8H5N2+
129.0574	1	C9H7N+
130.0653	4	C9H8N+
131.0291	1	C9H4F+
132.0245	43	C8H3FN+
132.0372	4	C9H5F+
132.0445	4	C8H6NO+
132.057	4	C9H8O+
133.0323	13	C8H4FN+
133.0449	93	C9H6F+
134.0402	30	C8H5FN+
134.06	6	C8H8NO+
135.0479	32	C8H6FN+
136.0559	6	C8H7FN+
139.0292	15	C9H3N2+
139.0545	5	C11H7+
140.0495	69	C10H6N+
141.0447	4	C9H5N2+
141.0574	20	C10H7N+
142.0289	4	C9H4NO+
142.0525	5	C9H6N2+
142.0651	4	C10H8N+
143.0605	6	C9H7N2+
144.0446	8	C9H6NO+
145.0323	6	C9H4FN+
145.0449	14	C10H6F+
145.065	5	C10H9O+
146.0402	24	C9H5FN+
146.0527	49	C10H7F+
146.0599	8	C9H8NO+
147.0354	7	C8H4FN2+
147.048	17	C9H6FN+
147.0603	2	C10H8F+
148.0558	28	C9H7FN+
149.0512	5	C8H6FN2+
149.0637	1	C9H8FN+
150.0351	27	C8H5FNO+
150.047	1	C12H6+
151.0426	11	C8H6FNO+
152.0498	44	C11H6N+
152.0623	4	C12H8+
153.0449	13	C10H5N2+
153.0574	7	C11H7N+
154.0401	13	C9H4N3+
154.0652	45	C11H8N+
155.0604	33	C10H7N2+
155.0732	1	C11H9N+
156.0679	1	C10H8N2+
156.0809	1	C11H10N+
157.0396	15	C9H5N2O+
157.0452	7	C11H6F+
157.0523	5	C10H7NO+
158.0402	22	C10H5FN+
158.0599	9	C10H8NO+
159.0482	39	C10H6FN+
159.0553	6	C9H7N2O+
159.0608	4	C11H8F+
160.0434	7	C9H5FN2+
160.0557	38	C10H7FN+
161.0273	9	C9H4FNO+
161.0513	20	C9H6FN2+
161.0637	10	C10H8FN+
162.0352	10	C9H5FNO+
162.0463	5	C13H6+
162.0589	8	C9H7FN2+
163.0424	1	C9H6FNO+
163.0555	9	C10H8FO+
163.0665	2	C9H8FN2+
164.0504	19	C9H7FNO+
165.0451	5	C11H5N2+
165.0699	15	C13H9+
166.0527	14	C11H6N2+
166.0652	9	C12H8N+
167.0241	7	C10H3N2O+
167.0605	32	C11H7N2+
167.073	5	C12H9N+
168.0446	1	C11H6NO+
168.056	6	C7H7FN3O+
168.0683	28	C11H8N2+
168.0805	1	C12H10N+
169.0517	1	C11H7NO+
169.0762	7	C11H9N2+
170.0404	2	C11H5FN+
170.0529	4	C12H7F+
170.06	25	C11H8NO+
171.0482	17	C11H6FN+
171.0548	2	C10H7N2O+
172.0558	221	C11H7FN+
173.0511	54	C10H6FN2+
173.0629	9	C11H8FN+
174.0351	19	C10H5FNO+
174.0594	11	C10H7FN2+
174.0711	10	C11H9FN+
175.0428	1	C10H6FNO+
175.0668	5	C10H8FN2+
176.0505	4	C10H7FNO+
177.0577	1	C13H7N+
178.0301	1	C9H5FNO2+
178.0425	4	C10H7FO2+
178.0529	4	C9H7FN2O+
178.066	18	C10H9FNO+
179.0378	12	C9H6FNO2+
179.0606	47	C12H7N2+
180.0446	5	C9H7FNO2+
180.0556	11	C11H6N3+
180.0681	2	C12H8N2+
180.0805	1	C13H10N+
181.0759	8	C12H9N2+
182.0401	5	C12H5FN+
182.0475	1	C11H6N2O+
182.0598	3	C12H8NO+
182.0716	1	C11H8N3+
183.0548	1	C11H7N2O+
183.0614	1	C13H8F+
183.0681	1	C12H9NO+
184.0558	8	C12H7FN+
184.0629	1	C11H8N2O+
185.0507	4	C11H6FN2+
185.0636	20	C12H8FN+
185.0713	4	C11H9N2O+
186.0589	18	C11H7FN2+
186.0714	9	C12H9FN+
187.0303	26	C10H4FN2O+
187.0432	4	C11H6FNO+
187.0667	35	C11H8FN2+
188.0144	18	C10H3FNO2+
188.0505	9	C11H7FNO+
189.0459	18	C10H6FN2O+
189.0586	1	C11H8FNO+
189.0821	1	C11H10FN2+
190.0658	2	C11H9FNO+
191.0611	2	C10H8FN2O+
191.0729	13	C14H9N+
192.0456	8	C10H7FNO2+
192.0683	9	C13H8N2+
192.0809	4	C14H10N+
193.0536	2	C10H8FNO2+
193.0761	13	C13H9N2+
194.0608	1	C10H9FNO2+
195.0194	2	C11H3N2O2+
195.0552	8	C12H7N2O+
196.0557	2	C13H7FN+
197.0512	13	C12H6FN2+
197.0709	3	C12H9N2O+
198.0587	11	C12H7FN2+
198.0722	3	C13H9FN+
199.0667	28	C12H8FN2+
200.0506	14	C12H7FNO+
200.0744	2	C12H9FN2+
201.0585	6	C12H8FNO+
202.0544	1	C11H7FN2O+
202.0657	4	C12H9FNO+
203.0376	4	C11H6FNO2+
203.0617	12	C11H8FN2O+
205.0538	2	C11H8FNO2+
205.0767	7	C11H10FN2O+
206.0248	4	C10H5FNO3+
206.084	1	C14H10N2+
207.0553	2	C13H7N2O+
207.092	1	C14H11N2+
208.0873	1	C13H10N3+
210.0591	3	C13H7FN2+
211.0668	9	C13H8FN2+
212.0746	1	C13H9FN2+
212.0869	2	C14H11FN+
213.0824	2	C13H10FN2+
214.0663	1	C13H9FNO+
215.0252	10	C11H4FN2O2+
215.0617	15	C12H8FN2O+
217.041	7	C11H6FN2O2+
217.0769	1	C12H10FN2O+
218.0841	2	C15H10N2+
221.0711	3	C14H9N2O+
223.0666	5	C14H8FN2+
224.0739	1	C14H9FN2+
226.0531	3	C13H7FN2O+
227.062	4	C13H8FN2O+
233.0358	4	C11H6FN2O3+
235.0511	5	C11H8FN2O3+
239.0617	1	C14H8FN2O+
239.0987	1	C15H12FN2+
255.0566	6	C14H8FN2O2+
