Mass spectrum: Fenhexamid; LC-ESI-QFT; MS2; CE: 90; R=35000; [M+H]+
Name: Fenhexamid
Name: N-(2,3-dichloro-4-hydroxy-phenyl)-1-methyl-cyclohexanecarboxamide
Formula: C14H17Cl2NO2
Exact mass: 301.06363
SMILES: O=C(Nc1ccc(O)c(Cl)c1Cl)C2(C)CCCCC2
InChI: InChI=1S/C14H17Cl2NO2/c1-14(7-3-2-4-8-14)13(19)17-9-5-6-10(18)12(16)11(9)15/h5-6,18H,2-4,7-8H2,1H3,(H,17,19)
Instrument: Q Exactive Orbitrap Thermo Scientific
Instrument type: LC-ESI-QFT
Ms type: MS2
Ion mode: POSITIVE
Ionization: ESI
Fragmentation mode: HCD
Collision energy: 90 (nominal)
Resolution: 35000
Column name: XBridge C18 3.5um, 2.1x50mm, Waters
Retention time: 11.7 min
Base peak: 302.0714
Precursor m/z: 302.0709
Precursor type: [M+H]+
m/z	relative intensity	assigned
53.0023	5	C3HO+
53.0387	60	C4H5+
55.0543	999	C4H7+
67.0543	4	C5H7+
69.0699	200	C5H9+
79.0543	3	C6H7+
97.1012	713	C7H13+
106.0288	11	C6H4NO+
114.0106	26	C5H5ClN+
114.9946	2	C5H4ClO+
142.0056	91	C6H5ClNO+
143.0134	401	C6H6ClNO+
175.9663	2	C6H4Cl2NO+
177.9825	5	C6H6Cl2NO+
201.9824	2	C8H6Cl2NO+
