Mass spectrum: Galaxolidone; LC-ESI-ITFT; MS2; CE: 60%; R=15000; [M+H]+
Name: Galaxolidone
Name: 1,3,4,6,7,8-Hexahydro-4,6,6,7,8,8-hexamethylcyclopenta[g]-2-benzopyran-1-on
Formula: C18H24O2
Exact mass: 272.1776
SMILES: CC2(C)c1cc3C(=O)OCC(C)c3cc1C(C)(C)C2C
InChI: InChI=1S/C18H24O2/c1-10-9-20-16(19)13-8-15-14(7-12(10)13)17(3,4)11(2)18(15,5)6/h7-8,10-11H,9H2,1-6H3
Instrument: LTQ Orbitrap XL Thermo Scientific
Instrument type: LC-ESI-ITFT
Ms type: MS2
Ion mode: POSITIVE
Ionization: ESI
Fragmentation mode: HCD
Collision energy: 60 % (nominal)
Resolution: 15000
Column name: XBridge C18 3.5um, 2.1x50mm, Waters
Retention time: 14.7 min
Base peak: 295.1677
Precursor m/z: 273.1849
Precursor type: [M+H]+
m/z	relative intensity	assigned
129.0696	20	C10H9+
131.0855	6	C10H11+
133.101	5	C10H13+
142.0776	8	C11H10+
143.0854	6	C11H11+
147.08	5	C10H11O+
157.0647	13	C11H9O+
157.101	210	C12H13+
171.1167	8	C13H15+
175.1117	31	C12H15O+
185.0959	112	C13H13O+
197.1324	25	C15H17+
198.1405	11	C15H18+
203.1063	23	C13H15O2+
211.1116	27	C15H15O+
212.1558	187	C16H20+
213.1635	6	C16H21+
225.1272	259	C16H17O+
226.1351	54	C16H18O+
227.1793	126	C17H23+
239.1435	8	C17H19O+
240.1507	463	C17H20O+
245.1532	15	C16H21O2+
255.1742	999	C18H23O+
273.1848	42	C18H25O2+
