Mass spectrum: Phosmet; LC-ESI-QFT; MS2; CE: 60; R=35000; [M+H]+
Name: Phosmet
Name: Fosmet
Name: 2-(dimethoxyphosphinothioylsulfanylmethyl)isoindole-1,3-dione
Formula: C11H12NO4PS2
Exact mass: 316.99454
SMILES: COP(=S)(OC)SCN1C(=O)C2=CC=CC=C2C1=O
InChI: InChI=1S/C11H12NO4PS2/c1-15-17(18,16-2)19-7-12-10(13)8-5-3-4-6-9(8)11(12)14/h3-6H,7H2,1-2H3
Instrument: Q Exactive Orbitrap Thermo Scientific
Instrument type: LC-ESI-QFT
Ms type: MS2
Ion mode: POSITIVE
Ionization: ESI
Fragmentation mode: HCD
Collision energy: 60 (nominal)
Resolution: 35000
Column name: XBridge C18 3.5um, 2.1x50mm, Waters
Retention time: 9.5 min
Base peak: 149.0234
Precursor m/z: 318.0018
Precursor type: [M+H]+
m/z	relative intensity	assigned
53.0386	1	C4H5+
67.0541	1	C5H7+
76.0306	1	C6H4+
77.0386	4	C6H5+
95.0491	20	C6H7O+
104.0495	7	C7H6N+
105.0336	40	C7H5O+
105.0447	2	C6H5N2+
130.0289	22	C8H4NO+
130.0402	1	C7H4N3+
132.0445	10	C8H6NO+
133.0284	194	C8H5O2+
142.9925	5	C2H8O3PS+
160.0393	999	C9H6NO2+
178.0496	8	C9H8NO3+
