Mass spectrum: Phenylbutazone; LC-ESI-QFT; MS2; CE: 75; R=35000; [M-H]-
Name: Phenylbutazone
Name: 4-butyl-1,2-diphenylpyrazolidine-3,5-dione
Formula: C19H20N2O2
Exact mass: 308.15248
SMILES: CCCCC1C(=O)N(N(C1=O)C2=CC=CC=C2)C3=CC=CC=C3
InChI: InChI=1S/C19H20N2O2/c1-2-3-14-17-18(22)20(15-10-6-4-7-11-15)21(19(17)23)16-12-8-5-9-13-16/h4-13,17H,2-3,14H2,1H3
Instrument: Q Exactive Plus Orbitrap Thermo Scientific
Instrument type: LC-ESI-QFT
Ms type: MS2
Ion mode: NEGATIVE
Ionization: ESI
Fragmentation mode: HCD
Collision energy: 75 (nominal)
Resolution: 35000
Column name: XBridge C18 3.5um, 2.1x50mm, Waters
Retention time: 11.2 min
Base peak: 307.1448
Precursor m/z: 307.1452
Precursor type: [M-H]-
m/z	relative intensity	assigned
52.0191	3	C3H2N-
65.0397	2	C5H5-
78.035	4	C5H4N-
80.0268	4	C5H4O-
80.0506	29	C5H6N-
82.0662	17	C5H8N-
83.0503	1	C5H7O-
92.0506	999	C6H6N-
93.0345	2	C6H5O-
94.0662	2	C6H8N-
95.0502	69	C6H7O-
116.0506	8	C8H6N-
118.0663	10	C8H8N-
121.0296	1	C7H5O2-
131.0376	308	C8H5NO-
132.0454	7	C8H6NO-
132.0818	9	C9H10N-
142.0663	7	C10H8N-
144.0454	26	C9H6NO-
155.0742	43	C11H9N-
156.0818	14	C11H10N-
157.0533	22	C10H7NO-
158.0975	23	C11H12N-
160.1133	5	C11H14N-
166.0662	9	C12H8N-
168.0819	39	C12H10N-
170.0976	32	C12H12N-
176.1082	1	C11H14NO-
187.0513	10	C10H7N2O2-
188.1084	4	C12H14NO-
