Mass spectrum: Atenolol-desisopropyl; LC-ESI-QFT; MS2; CE: 45; R=35000; [M+H]+
Name: Atenolol-desisopropyl
Name: 4-(3-Amino-2-hydroxypropoxy)phenylacetamide
Formula: C11H16N2O3
Exact mass: 224.11609
SMILES: c1cc(ccc1CC(=O)N)OCC(CN)O
InChI: InChI=1S/C11H16N2O3/c12-6-9(14)7-16-10-3-1-8(2-4-10)5-11(13)15/h1-4,9,14H,5-7,12H2,(H2,13,15)
Instrument: Q Exactive Plus Orbitrap Thermo Scientific
Instrument type: LC-ESI-QFT
Ms type: MS2
Ion mode: POSITIVE
Ionization: ESI
Fragmentation mode: HCD
Collision energy: 45 (nominal)
Resolution: 35000
Column name: XBridge C18 3.5um, 2.1x50mm, Waters
Retention time: 1.0 min
Base peak: 225.1233
Precursor m/z: 225.1234
Precursor type: [M+H]+
m/z	relative intensity	assigned
56.0495	326	C3H6N+
57.0335	1	C3H5O+
74.06	999	C3H8NO+
77.0383	1	C6H5+
91.0542	8	C7H7+
93.0699	11	C7H9+
105.0699	5	C8H9+
106.0652	2	C7H8N+
107.0491	30	C7H7O+
115.0542	1	C9H7+
117.0699	15	C9H9+
119.0492	32	C8H7O+
119.0855	2	C9H11+
121.0648	65	C8H9O+
122.06	10	C7H8NO+
131.0491	4	C9H7O+
133.0648	266	C9H9O+
134.06	6	C8H8NO+
136.0756	4	C8H10NO+
137.0597	1	C8H9O2+
144.0808	3	C10H10N+
145.0648	868	C10H9O+
147.044	54	C9H7O2+
147.0804	4	C10H11O+
152.0706	23	C8H10NO2+
161.0597	17	C10H9O2+
162.0661	12	C8H8N3O+
162.0914	109	C10H12NO+
163.0753	21	C10H11O2+
164.0706	112	C9H10NO2+
173.0598	124	C11H9O2+
178.0863	337	C10H12NO2+
180.1019	79	C10H14NO2+
182.0812	33	C9H12NO3+
190.0863	383	C11H12NO2+
208.0969	213	C11H14NO3+
225.1234	108	C11H17N2O3+
