Mass spectrum: Oxazepam; LC-ESI-ITFT; MS2; CE: 90%; R=7500; [M+H]+
Name: Oxazepam
Name: 7-chloranyl-3-oxidanyl-5-phenyl-1,3-dihydro-1,4-benzodiazepin-2-one
Formula: C15H11ClN2O2
Exact mass: 286.0509
SMILES: C1=CC=C(C=C1)C2=NC(C(=O)NC3=C2C=C(C=C3)Cl)O
InChI: InChI=1S/C15H11ClN2O2/c16-10-6-7-12-11(8-10)13(9-4-2-1-3-5-9)18-15(20)14(19)17-12/h1-8,15,20H,(H,17,19)
Instrument: LTQ Orbitrap XL Thermo Scientific
Instrument type: LC-ESI-ITFT
Ms type: MS2
Ion mode: POSITIVE
Ionization: ESI
Fragmentation mode: HCD
Collision energy: 90 % (nominal)
Resolution: 7500
Column name: XBridge C18 3.5um, 2.1x50mm, Waters
Retention time: 9.0 min
Base peak: 287.059
Precursor m/z: 287.0582
Precursor type: [M+H]+
m/z	relative intensity	assigned
77.0386	95	C6H5+
79.0541	12	C6H7+
86.9997	11	C4H4Cl+
90.0336	25	C6H4N+
93.0573	250	C6H7N+
95.0491	12	C6H7O+
98.9995	16	C5H4Cl+
100.0182	8	C7H2N+
104.0495	999	C7H6N+
105.0447	30	C6H5N2+
117.0448	18	C7H5N2+
118.0526	130	C7H6N2+
126.0105	53	C6H5ClN+
128.0262	70	C6H7ClN+
138.0105	107	C7H5ClN+
139.0058	118	C6H4ClN2+
145.0508	16	C7H5N4+
151.0547	17	C12H7+
152.0137	12	C7H5ClN2+
152.0624	39	C12H8+
153.0214	172	C7H6ClN2+
163.0058	478	C8H4ClN2+
164.0011	139	C10N2O+
166.0053	17	C8H5ClNO+
178.0646	36	C13H8N+
179.0008	15	C8H4ClN2O+
179.0728	30	C13H9N+
180.0807	6	C13H10N+
194.0837	29	C13H10N2+
195.0917	95	C13H11N2+
205.0761	86	C14H9N2+
206.0842	22	C14H10N2+
207.0679	13	C14H9NO+
214.0423	47	C13H9ClN+
229.0527	117	C13H10ClN2+
231.0682	9	C13H12ClN2+
239.037	23	C14H8ClN2+
241.0528	479	C14H10ClN2+
257.0474	38	C14H10ClN2O+
