Mass spectrum: Forchlorfenuron; LC-ESI-QFT; MS2; CE: 90; R=35000; [M+H]+
Name: Forchlorfenuron
Name: N-(2-chloro-4-pyridyl)-N`-phenylurea
Name: 1-(2-chloropyridin-4-yl)-3-phenylurea
Formula: C12H10ClN3O
Exact mass: 247.05124
SMILES: C1=CC=C(C=C1)NC(=O)NC2=CC(=NC=C2)Cl
InChI: InChI=1S/C12H10ClN3O/c13-11-8-10(6-7-14-11)16-12(17)15-9-4-2-1-3-5-9/h1-8H,(H2,14,15,16,17)
Instrument: Q Exactive Plus Orbitrap Thermo Scientific
Instrument type: LC-ESI-QFT
Ms type: MS2
Ion mode: POSITIVE
Ionization: ESI
Fragmentation mode: HCD
Collision energy: 90 (nominal)
Resolution: 35000
Column name: XBridge C18 3.5um, 2.1x50mm, Waters
Retention time: 8.8 min
Base peak: 248.0579
Precursor m/z: 248.0585
Precursor type: [M+H]+
m/z	relative intensity	assigned
52.0181	2	C3H2N+
53.0022	3	C3HO+
53.0385	2	C4H5+
56.0495	47	C3H6N+
64.0182	2	C4H2N+
65.0384	2	C5H5+
66.0338	150	C4H4N+
67.0291	1	C3H3N2+
67.9893	1	C3O2+
76.0182	5	C5H2N+
77.0385	7	C6H5+
82.0287	17	C4H4NO+
84.0444	2	C4H6NO+
91.029	3	C5H3N2+
92.0495	11	C6H6N+
93.0447	240	C5H5N2+
94.0527	3	C5H6N2+
94.0651	8	C6H8N+
95.0491	9	C6H7O+
98.06	2	C5H8NO+
105.0447	6	C6H5N2+
110.0473	1	C5H6N2O+
111.0553	999	C5H7N2O+
112.0392	4	C5H6NO2+
113.0596	1	C6H9O2+
119.024	25	C6H3N2O+
120.0445	1	C7H6NO+
125.071	6	C6H9N2O+
126.0425	1	C2H9ClN3O+
129.0214	432	C5H6ClN2+
130.0054	5	C5H5ClNO+
137.0346	106	C3H8ClN3O+
155.0007	41	C6H4ClN2O+
