Mass spectrum: Crotamiton; LC-ESI-QFT; MS2; CE: 75; R=35000; [M+H]+
Name: Crotamiton
Name: N-ethyl-N-(2-methylphenyl)but-2-enamide
Formula: C13H17NO
Exact mass: 203.13101
SMILES: O=C(N(c1ccccc1C)CC)C=CC
InChI: InChI=1S/C13H17NO/c1-4-8-13(15)14(5-2)12-10-7-6-9-11(12)3/h4,6-10H,5H2,1-3H3
Instrument: Q Exactive Plus Orbitrap Thermo Scientific
Instrument type: LC-ESI-QFT
Ms type: MS2
Ion mode: POSITIVE
Ionization: ESI
Fragmentation mode: HCD
Collision energy: 75 (nominal)
Resolution: 35000
Column name: XBridge C18 3.5um, 2.1x50mm, Waters
Retention time: 9.8 min
Base peak: 204.1383
Precursor m/z: 204.1383
Precursor type: [M+H]+
m/z	relative intensity	assigned
53.0022	13	C3HO+
53.9975	3	C2NO+
54.01	1	C3H2O+
65.0385	4	C5H5+
68.0495	153	C4H6N+
69.0335	999	C4H5O+
77.0385	1	C6H5+
79.0542	10	C6H7+
91.0543	121	C7H7+
92.0621	1	C7H8+
93.0574	29	C6H7N+
93.07	4	C7H9+
95.0492	1	C6H7O+
96.0808	12	C6H10N+
103.0542	1	C8H7+
104.0493	1	C7H6N+
105.0336	1	C7H5O+
105.0699	8	C8H9+
106.0652	149	C7H8N+
107.073	67	C7H9N+
108.0808	118	C7H10N+
109.0649	16	C7H9O+
115.0542	2	C9H7+
116.0495	14	C8H6N+
117.0573	7	C8H7N+
117.0699	3	C9H9+
118.0652	8	C8H8N+
119.0365	1	C7H5NO+
119.0605	9	C7H7N2+
119.073	7	C8H9N+
119.0856	2	C9H11+
120.0808	6	C8H10N+
121.0887	103	C8H11N+
129.0699	1	C10H9+
130.0652	10	C9H8N+
131.0856	1	C10H11+
132.0444	6	C8H6NO+
132.0808	6	C9H10N+
133.0887	1	C9H11N+
134.0601	90	C8H8NO+
134.0965	61	C9H12N+
136.1122	136	C9H14N+
143.073	13	C10H9N+
144.0809	1	C10H10N+
146.0601	3	C9H8NO+
146.0966	4	C10H12N+
148.1121	1	C10H14N+
156.0808	2	C11H10N+
157.0886	2	C11H11N+
158.0965	21	C11H12N+
160.0756	4	C10H10NO+
161.0838	2	C10H11NO+
162.0913	1	C10H12NO+
174.0913	3	C11H12NO+
176.1071	1	C11H14NO+
204.1385	4	C13H18NO+
