Mass spectrum: Phenytoin; LC-ESI-QFT; MS2; CE: 45; R=35000; [M+H]+
Name: Phenytoin
Name: 5,5-diphenylimidazolidine-2,4-dione
Formula: C15H12N2O2
Exact mass: 252.08988
SMILES: C1=CC=C(C=C1)C2(C(=O)NC(=O)N2)C3=CC=CC=C3
InChI: InChI=1S/C15H12N2O2/c18-13-15(17-14(19)16-13,11-7-3-1-4-8-11)12-9-5-2-6-10-12/h1-10H,(H2,16,17,18,19)
Instrument: Q Exactive Orbitrap Thermo Scientific
Instrument type: LC-ESI-QFT
Ms type: MS2
Ion mode: POSITIVE
Ionization: ESI
Fragmentation mode: HCD
Collision energy: 45 (nominal)
Resolution: 35000
Column name: XBridge C18 3.5um, 2.1x50mm, Waters
Retention time: 7.6 min
Base peak: 253.0971
Precursor m/z: 253.0972
Precursor type: [M+H]+
m/z	relative intensity	assigned
77.0385	3	C6H5+
79.0542	1	C6H7+
95.0491	1	C6H7O+
104.0494	187	C7H6N+
105.0334	20	C7H5O+
132.0443	28	C8H6NO+
165.0699	1	C13H9+
175.0501	4	C9H7N2O2+
180.0807	1	C13H10N+
182.0964	999	C13H12N+
183.08	1	C13H11O+
208.0759	2	C14H10NO+
210.0914	2	C14H12NO+
225.1022	3	C14H13N2O+
