Mass spectrum: Iohexol; LC-ESI-ITFT; MS2; CE: 45%; R=15000; [M+H]+
Name: Iohexol
Name: 5-[acetyl(2,3-dihydroxypropyl)amino]-1-N,3-N-bis(2,3-dihydroxypropyl)-2,4,6-triiodobenzene-1,3-dicarboxamide
Formula: C19H26I3N3O9
Exact mass: 820.8803
SMILES: OCC(O)CNC(=O)c1c(I)c(N(CC(O)CO)C(C)=O)c(I)c(c1I)C(=O)NCC(O)CO
InChI: InChI=1S/C19H26I3N3O9/c1-8(29)25(4-11(32)7-28)17-15(21)12(18(33)23-2-9(30)5-26)14(20)13(16(17)22)19(34)24-3-10(31)6-27/h9-11,26-28,30-32H,2-7H2,1H3,(H,23,33)(H,24,34)
Instrument: LTQ Orbitrap XL Thermo Scientific
Instrument type: LC-ESI-ITFT
Ms type: MS2
Ion mode: POSITIVE
Ionization: ESI
Fragmentation mode: HCD
Collision energy: 45 % (nominal)
Resolution: 15000
Column name: XBridge C18 3.5um, 2.1x50mm, Waters
Retention time: 1.6 min
Base peak: 132.9578
Precursor m/z: 821.8876
Precursor type: [M+H]+
m/z	relative intensity	assigned
257.9421	67	C8H5INO+
273.9349	162	C8H5INO2+
275.9508	60	C8H7INO2+
293.9185	236	C11H3IO2+
297.935	72	C10H5INO2+
301.9308	576	C9H5INO3+
319.9401	121	C6H9IO7+
321.1088	139	C15H17N2O6+
357.9564	233	C12H9INO4+
362.9851	126	C11H12IN2O4+
374.9832	999	C12H12IN2O4+
411.8336	50	C9H4I2NO2+
413.8137	79	C11I2N2+
449.0206	67	C15H18IN2O6+
451.8274	132	C11H4I2NO3+
500.8796	369	C12H11I2N2O4+
528.8739	132	C13H11I2N2O5+
626.7791	71	C12H10I3N2O4+
