Mass spectrum: Gemfibrozil; LC-ESI-QFT; MS2; CE: 45; R=35000; [M+H]+
Name: Gemfibrozil
Name: 5-[(2,5-dimethylphenyl)oxy]-2,2-dimethylpentanoic acid
Name: 5-(2,5-dimethylphenoxy)-2,2-dimethyl-pentanoic acid
Formula: C15H22O3
Exact mass: 250.15689
SMILES: O=C(O)C(C)(C)CCCOc1cc(ccc1C)C
InChI: InChI=1S/C15H22O3/c1-11-6-7-12(2)13(10-11)18-9-5-8-15(3,4)14(16)17/h6-7,10H,5,8-9H2,1-4H3,(H,16,17)
Instrument: Q Exactive Orbitrap Thermo Scientific
Instrument type: LC-ESI-QFT
Ms type: MS2
Ion mode: POSITIVE
Ionization: ESI
Fragmentation mode: HCD
Collision energy: 45 (nominal)
Resolution: 35000
Column name: XBridge C18 3.5um, 2.1x50mm, Waters
Retention time: 14.9 min
Base peak: 233.1536
Precursor m/z: 251.1642
Precursor type: [M+H]+
m/z	relative intensity	assigned
53.0387	15	C4H5+
55.0543	305	C4H7+
57.0336	15	C3H5O+
57.0699	154	C4H9+
59.0492	166	C3H7O+
67.0542	5	C5H7+
69.0335	3	C4H5O+
69.0699	50	C5H9+
71.0491	52	C4H7O+
73.0648	264	C4H9O+
79.0543	3	C6H7+
81.07	3	C6H9+
83.0855	999	C6H11+
87.0441	33	C4H7O2+
93.07	5	C7H9+
95.0856	25	C7H11+
101.0961	28	C6H13O+
105.07	4	C8H9+
107.0491	2	C7H7O+
108.057	13	C7H8O+
111.0805	31	C7H11O+
119.0857	2	C9H11+
121.0648	3	C8H9O+
123.0804	387	C8H11O+
129.091	637	C7H13O2+
133.1014	12	C10H13+
135.0805	11	C9H11O+
161.0962	29	C11H13O+
