Mass spectrum: Vamidothion; LC-ESI-QFT; MS2; CE: 90%; R=17500; [M+H]+
Name: Vamidothion
Name: 2-(2-dimethoxyphosphorylsulfanylethylsulfanyl)-N-methylpropanamide
Formula: C8H18NO4PS2
Exact mass: 287.0415
SMILES: CC(C(=O)NC)SCCSP(=O)(OC)OC
InChI: InChI=1S/C8H18NO4PS2/c1-7(8(10)9-2)15-5-6-16-14(11,12-3)13-4/h7H,5-6H2,1-4H3,(H,9,10)
Instrument: Exploris 240 Orbitrap Thermo Scientific
Instrument type: LC-ESI-QFT
Ms type: MS2
Ion mode: POSITIVE
Ionization: ESI
Fragmentation mode: HCD
Collision energy: 90 % (nominal)
Resolution: 17500
Column name: XBridge C18 3.5um, 2.1x50mm, Waters
Retention time: 3.999 min
Base peak: 288.0485
Precursor m/z: 288.0488
Precursor type: [M+H]+
m/z	relative intensity	assigned
55.0179	98	C3H3O+
56.0493	12	C3H6N+
57.0572	27	C3H7N+
58.0287	999	C2H4NO+
58.0651	448	C3H8N+
58.995	29	C2H3S+
60.0028	15	C2H4S+
61.0107	85	C2H5S+
68.0493	11	C4H6N+
86.0599	45	C4H8NO+
87.0262	20	C4H7S+
90.0371	76	C3H8NS+
118.0321	129	C4H8NOS+
