Mass spectrum: N-Acetylcaprolactam; LC-ESI-QFT; MS2; CE: 120%; R=17500; [M+H]+
Name: N-Acetylcaprolactam
Name: 1-acetylazepan-2-one
Formula: C8H13NO2
Exact mass: 155.0946
SMILES: CC(=O)N1CCCCCC1=O
InChI: InChI=1S/C8H13NO2/c1-7(10)9-6-4-2-3-5-8(9)11/h2-6H2,1H3
Instrument: Exploris 240 Orbitrap Thermo Scientific
Instrument type: LC-ESI-QFT
Ms type: MS2
Ion mode: POSITIVE
Ionization: ESI
Fragmentation mode: HCD
Collision energy: 120 % (nominal)
Resolution: 17500
Column name: XBridge C18 3.5um, 2.1x50mm, Waters
Retention time: 4.594 min
Base peak: 156.1019
Precursor m/z: 156.1019
Precursor type: [M+H]+
m/z	relative intensity	assigned
41.0386	351	C3H5+
42.0338	42	C2H4N+
43.0178	440	C2H3O+
43.0542	229	C3H7+
44.0131	858	CH2NO+
53.0387	35	C4H5+
54.0338	16	C3H4N+
55.0178	321	C3H3O+
55.0542	696	C4H7+
60.0444	21	C2H6NO+
67.0542	153	C5H7+
68.0496	117	C4H6N+
69.0699	800	C5H9+
70.0651	50	C4H8N+
71.0492	47	C4H7O+
71.0858	33	C5H11+
72.0809	90	C4H10N+
77.0387	78	C6H5+
79.0542	765	C6H7+
81.0573	36	C5H7N+
86.0965	61	C5H12N+
95.0496	53	C6H7O+
96.0807	353	C6H10N+
97.0649	81	C6H9O+
114.0913	999	C6H12NO+
