Mass spectrum: Zopiclone; LC-ESI-QFT; MS2; CE: 45; R=35000; [M+H]+
Name: Zopiclone
Name: [6-(5-chloropyridin-2-yl)-5-oxo-7H-pyrrolo[3,4-b]pyrazin-7-yl] 4-methylpiperazine-1-carboxylate
Formula: C17H17ClN6O3
Exact mass: 388.10507
SMILES: CN1CCN(CC1)C(=O)OC2C3=NC=CN=C3C(=O)N2C4=NC=C(C=C4)Cl
InChI: InChI=1S/C17H17ClN6O3/c1-22-6-8-23(9-7-22)17(26)27-16-14-13(19-4-5-20-14)15(25)24(16)12-3-2-11(18)10-21-12/h2-5,10,16H,6-9H2,1H3
Instrument: Q Exactive Plus Orbitrap Thermo Scientific
Instrument type: LC-ESI-QFT
Ms type: MS2
Ion mode: POSITIVE
Ionization: ESI
Fragmentation mode: HCD
Collision energy: 45 (nominal)
Resolution: 35000
Column name: XBridge C18 3.5um, 2.1x50mm, Waters
Retention time: 4.6 min
Base peak: 389.1117
Precursor m/z: 389.1123
Precursor type: [M+H]+
m/z	relative intensity	assigned
56.0495	2	C3H6N+
58.0651	1	C3H8N+
70.0651	4	C4H8N+
76.0181	1	C5H2N+
83.0603	1	C4H7N2+
84.0682	1	C4H8N2+
97.0761	5	C5H9N2+
98.0839	17	C5H10N2+
99.0917	19	C5H11N2+
111.9943	10	C5H3ClN+
127.0866	1	C6H11N2O+
130.0055	55	C5H5ClNO+
139.0058	83	C6H4ClN2+
141.0213	1	C6H6ClN2+
143.0816	9	C6H11N2O2+
157.0164	22	C6H6ClN2O+
160.0508	1	C5H9ClN4+
174.0662	2	C9H8N3O+
181.051	3	C10H5N4+
182.059	1	C10H6N4+
186.0664	1	C10H8N3O+
190.0167	8	C9H5ClN3+
199.0613	1	C10H7N4O+
200.0818	1	C11H10N3O+
202.0843	2	C10H10N4O+
217.0277	999	C10H6ClN4+
245.0226	807	C11H6ClN4O+
247.038	8	C11H8ClN4O+
263.0332	65	C11H8ClN4O2+
277.0487	6	C12H10ClN4O2+
