Mass spectrum: MCLW; LC-ESI-QFT; MS2; CE: 15%; R=17500; [M+H]+
Name: MCLW
Name: Microcystin LW
Name: (5R,8S,11R,12S,15S,18S,19S,22R)-15-(1H-indol-3-ylmethyl)-18-[(1E,3E,5S,6S)-6-methoxy-3,5-dimethyl-7-phenylhepta-1,3-dienyl]-1,5,12,19-tetramethyl-2-methylidene-8-(2-methylpropyl)-3,6,9,13,16,20,25-heptaoxo-1,4,7,10,14,17,21-heptazacyclopentacosane-11,22-dicarboxylic acid
Class: NA
Formula: C54H72N8O12
Exact mass: 1024.5270
SMILES: CO[C@@H](Cc1ccccc1)[C@@H](C)/C=C(C)/C=C/[C@@H]2NC(=O)[C@H](Cc3c[nH]c4ccccc34)NC(=O)[C@@H](C)[C@@H](NC(=O)[C@H](CC(C)C)NC(=O)[C@@H](C)NC(=O)C(=C)N(C)C(=O)CC[C@@H](NC(=O)[C@H]2C)C(O)=O)C(O)=O
InChI: InChI=1S/C54H72N8O12/c1-29(2)24-42-52(69)61-46(54(72)73)33(6)48(65)59-43(27-37-28-55-40-19-15-14-18-38(37)40)51(68)57-39(21-20-30(3)25-31(4)44(74-10)26-36-16-12-11-13-17-36)32(5)47(64)58-41(53(70)71)22-23-45(63)62(9)35(8)50(67)56-34(7)49(66)60-42/h11-21,25,28-29,31-34,39,41-44,46,55H,8,22-24,26-27H2,1-7,9-10H3,(H,56,67)(H,57,68)(H,58,64)(H,59,65)(H,60,66)(H,61,69)(H,70,71)(H,72,73)/b21-20+,30-25+/t31-,32-,33-,34+,39-,41+,42-,43-,44-,46+/m0/s1
Instrument: Q Exactive Plus Orbitrap Thermo Scientific
Instrument type: LC-ESI-QFT
Ms type: MS2
Ion mode: POSITIVE
Ionization: ESI
Fragmentation mode: HCD
Collision energy: 15 % (nominal)
Resolution: 17500
Column name: XBridge C18 3.5um, 2.1x50mm, Waters
Retention time: 11.761 min
Base peak: 164.9846
Precursor m/z: 1025.5342
Precursor type: [M+H]+
m/z	relative intensity	assigned
86.0964	4	C5H12N+
107.0858	5	C8H11+
124.1116	3	C8H14N+
135.0804	23	C9H11O+
155.0817	2	C7H11N2O2+
159.0923	7	C10H11N2+
163.1116	57	C11H15O+
175.1113	4	C12H15O+
195.0765	33	C9H11N2O3+
213.087	37	C9H13N2O4+
218.1539	6	C14H20NO+
226.1582	10	CH26N2O10+
237.1637	8	C18H21+
246.149	12	C15H20NO2+
258.1856	145	C3H26N6O7+
265.1594	27	C5H23N5O7+
268.1659	19	C13H22N3O3+
288.1345	56	CH20N8O9+
292.1541	17	C16H22NO4+
297.185	55	C20H25O2+
310.1647	5	C15H18N8+
314.2111	7	C20H28NO2+
315.1449	4	C16H19N4O3+
316.1296	22	C2H20N8O10+
333.1556	136	C16H21N4O4+
347.196	15	C19H27N2O4+
351.2016	3	C16H31O8+
357.1801	10	C18H23N5O3+
375.1913	317	C20H27N2O5+
394.2	5	C22H26N4O3+
397.2077	63	C18H29N4O6+
401.2178	3	C21H29N4O4+
423.1887	4	C20H23N8O3+
426.2271	29	C24H26N8+
429.2133	26	C22H29N4O5+
443.2557	4	C13H39N4O12+
446.2348	412	C16H36N3O11+
463.2617	4	C31H33N3O+
472.255	72	C24H34N5O5+
477.2381	77	C28H33N2O5+
482.2387	7	C24H36NO9+
491.2543	5	C29H35N2O5+
499.2664	86	C25H35N6O5+
500.2501	234	C39H32+
508.2394	20	C37H32O2+
509.2643	270	C29H37N2O6+
517.2766	996	C39H35N+
518.2651	5	C30H36N3O5+
531.317	14	C27H47O10+
537.2794	4	C25H39N5O8+
541.2988	13	C26H43N3O9+
548.2791	49	C36H38NO4+
552.2435	9	C40H30N3+
555.2916	74	C27H43N2O10+
559.3123	402	C29H43N4O7+
573.307	8	C33H41N4O5+
580.3015	170	C32H42N3O7+
582.3029	124	C43H38N2+
583.2873	556	C29H39N6O7+
600.3138	438	C29H42N7O7+
601.3087	12	C42H39N3O+
610.2958	4	C27H42N6O10+
619.3229	58	C32H47N2O10+
624.305	15	C35H40N6O5+
629.334	5	C36H45N4O6+
649.3018	13	C38H41N4O6+
661.3584	39	C36H53O11+
662.3635	3	C32H50N6O9+
665.3865	9	C46H51NO3+
666.3245	31	C33H44N7O8+
679.382	11	C36H51N6O7+
684.3401	10	C40H48N2O8+
687.3707	6	C48H49NO3+
688.3551	58	C34H50N5O10+
693.3863	247	C38H53N4O8+
694.3174	41	C46H40N5O2+
702.3581	17	C34H50N6O10+
706.3934	46	C39H54N4O8+
711.3447	77	C46H43N6O2+
712.33	80	C34H46N7O10+
729.358	18	C36H51N5O11+
738.3078	13	C47H40N5O4+
750.3449	35	C51H46N2O4+
757.4288	45	C42H57N6O7+
790.4113	48	C53H52N5O2+
795.3654	58	C50H47N6O4+
828.4331	21	C49H58N5O7+
840.465	170	C46H62N7O8+
845.4541	32	C41H63N7O12+
846.4391	171	C44H60N7O10+
856.425	48	C47H60N4O11+
873.4497	327	C45H61N8O10+
874.434	702	C45H60N7O11+
891.4605	924	C45H63N8O11+
892.4612	12	C51H64N4O10+
897.4745	7	C49H65N6O10+
907.4546	3	C45H63N8O12+
924.4858	27	C50H66N7O10+
948.4872	31	C52H66N7O10+
962.5033	31	C53H68N7O10+
975.4978	51	C53H67N8O10+
976.4816	87	C53H66N7O11+
979.5287	36	C53H71N8O10+
980.5125	163	C53H70N7O11+
990.4998	43	C54H68N7O11+
993.5077	129	C53H69N8O11+
1007.5239	408	C54H71N8O11+
1008.5072	377	C54H70N7O12+
1025.5335	999	C54H73N8O12+
