Mass spectrum: Fluoxetine; LC-ESI-ITFT; MS2; CE: 75%; R=15000; [M+H]+
Name: Fluoxetine
Name: N-methyl-3-phenyl-3-[4-(trifluoromethyl)phenoxy]-1-propanamine
Formula: C17H18F3NO
Exact mass: 309.1340
SMILES: CNCCC(C1=CC=CC=C1)OC2=CC=C(C=C2)C(F)(F)F
InChI: InChI=1S/C17H18F3NO/c1-21-12-11-16(13-5-3-2-4-6-13)22-15-9-7-14(8-10-15)17(18,19)20/h2-10,16,21H,11-12H2,1H3
Instrument: LTQ Orbitrap XL Thermo Scientific
Instrument type: LC-ESI-ITFT
Ms type: MS2
Ion mode: POSITIVE
Ionization: ESI
Fragmentation mode: HCD
Collision energy: 75 % (nominal)
Resolution: 15000
Column name: XBridge C18 3.5um, 2.1x50mm, Waters
Retention time: 9.2 min
Base peak: 310.1427
Precursor m/z: 310.1413
Precursor type: [M+H]+
m/z	relative intensity	assigned
91.0542	999	C7H7+
117.0699	997	C9H9+
