Mass spectrum: Desmedipham; LC-ESI-ITFT; MS2; CE: 60%; R=7500; [M+H]+
Name: Desmedipham
Name: N-[3-[anilino(oxo)methoxy]phenyl]carbamic acid ethyl ester
Formula: C16H16N2O4
Exact mass: 300.1105
SMILES: c1c(OC(Nc2ccccc2)=O)cccc1NC(OCC)=O
InChI: InChI=1S/C16H16N2O4/c1-2-21-15(19)18-13-9-6-10-14(11-13)22-16(20)17-12-7-4-3-5-8-12/h3-11H,2H2,1H3,(H,17,20)(H,18,19)
Instrument: LTQ Orbitrap XL Thermo Scientific
Instrument type: LC-ESI-ITFT
Ms type: MS2
Ion mode: POSITIVE
Ionization: ESI
Fragmentation mode: HCD
Collision energy: 60 % (nominal)
Resolution: 7500
Column name: XBridge C18 3.5um, 2.1x50mm, Waters
Retention time: 9.2 min
Base peak: 323.1005
Precursor m/z: 301.1183
Precursor type: [M+H]+
m/z	relative intensity	assigned
65.0386	23	C5H5+
80.0493	22	C5H6N+
81.0333	22	C5H5O+
93.0335	77	C6H5O+
108.0443	343	C6H6NO+
110.06	66	C6H8NO+
111.0439	19	C6H7O2+
121.0399	45	C6H5N2O+
136.0393	999	C7H6NO2+
154.0499	136	C7H8NO3+
