Mass spectrum: Nicosulfuron-TP UCSN; LC-ESI-QFT; MS2; CE: 15%; R=17500; [M+H]+
Name: Nicosulfuron-TP UCSN
Name: 2-[(Carbamoylcarbamoyl)sulfamoyl]-N,N-dimethylnicotinamide
Formula: C10H13N5O5S
Exact mass: 315.0637
SMILES: CN(C)C(=O)C1=CC=CN=C1S(=O)(=O)NC(=O)NC(N)=O
InChI: InChI=1S/C10H13N5O5S/c1-15(2)8(16)6-4-3-5-12-7(6)21(19,20)14-10(18)13-9(11)17/h3-5H,1-2H3,(H4,11,13,14,17,18)
Instrument: Q Exactive Plus Orbitrap Thermo Scientific
Instrument type: LC-ESI-QFT
Ms type: MS2
Ion mode: POSITIVE
Ionization: ESI
Fragmentation mode: HCD
Collision energy: 15 % (nominal)
Resolution: 17500
Column name: XBridge C18 3.5um, 2.1x50mm, Waters
Retention time: 1.505 min
Base peak: 316.0711
Precursor m/z: 316.071
Precursor type: [M+H]+
m/z	relative intensity	assigned
78.0345	3	C5H4N+
106.0217	1	
106.0284	34	C6H4NO+
149.0707	1	C8H9N2O+
192.0764	2	C9H10N3O2+
213.0328	999	C8H9N2O3S+
230.0594	9	C8H12N3O3S+
256.0385	101	C9H10N3O4S+
273.0652	1	C9H13N4O4S+
299.0443	133	C10H11N4O5S+
301.9885	1	
316.0709	67	C10H14N5O5S+
