Mass spectrum: Furathiocarb; LC-ESI-QFT; MS2; CE: 180%; R=17500; [M+H]+
Name: Furathiocarb
Name: (2,2-dimethyl-3H-1-benzofuran-7-yl) N-[butoxycarbonyl(methyl)amino]sulfanyl-N-methylcarbamate
Formula: C18H26N2O5S
Exact mass: 382.1562
SMILES: CCCCOC(=O)N(C)SN(C)C(=O)OC1=CC=CC2=C1OC(C2)(C)C
InChI: InChI=1S/C18H26N2O5S/c1-6-7-11-23-16(21)19(4)26-20(5)17(22)24-14-10-8-9-13-12-18(2,3)25-15(13)14/h8-10H,6-7,11-12H2,1-5H3
Instrument: Exploris 240 Orbitrap Thermo Scientific
Instrument type: LC-ESI-QFT
Ms type: MS2
Ion mode: POSITIVE
Ionization: ESI
Fragmentation mode: HCD
Collision energy: 180 % (nominal)
Resolution: 17500
Column name: XBridge C18 3.5um, 2.1x50mm, Waters
Retention time: 13.069 min
Base peak: 383.1633
Precursor m/z: 383.1635
Precursor type: [M+H]+
m/z	relative intensity	assigned
51.023	551	C4H3+
53.0386	782	C4H5+
55.0178	98	C3H3O+
56.9795	106	C2HS+
58.0288	84	C2H4NO+
58.9951	117	C2H3S+
62.0059	47	CH4NS+
63.0229	134	C5H3+
65.0386	676	C5H5+
66.0465	133	C5H6+
67.0544	62	C5H7+
68.9795	226	C3HS+
70.995	61	C3H3S+
77.0386	999	C6H5+
78.0465	94	C6H6+
79.0544	144	C6H7+
81.0334	96	C5H5O+
84.9744	68	C3HOS+
89.0386	151	C7H5+
91.0542	647	C7H7+
94.0412	88	C6H6O+
95.0494	276	C6H7O+
97.0107	223	C5H5S+
102.0464	46	C8H6+
103.0542	340	C8H7+
105.0447	397	C6H5N2+
115.0543	591	C9H7+
