Mass spectrum: Terbuthylazine-TP CSAA036479 (LM2); LC-ESI-QFT; MS2; CE: 120%; R=17500; [M+H]+
Name: Terbuthylazine-TP CSAA036479 (LM2)
Name: 2-[(6-amino-4-oxo-1H-1,3,5-triazin-2-yl)amino]-2-methylpropanoic acid
Formula: C7H11N5O3
Exact mass: 213.0862
SMILES: CC(C)(NC1=NC(N)=NC(O)=N1)C(O)=O
InChI: InChI=1S/C7H11N5O3/c1-7(2,3(13)14)12-5-9-4(8)10-6(15)11-5/h1-2H3,(H,13,14)(H4,8,9,10,11,12,15)
Instrument: Q Exactive Plus Orbitrap Thermo Scientific
Instrument type: LC-ESI-QFT
Ms type: MS2
Ion mode: POSITIVE
Ionization: ESI
Fragmentation mode: HCD
Collision energy: 120 % (nominal)
Resolution: 17500
Column name: XBridge C18 3.5um, 2.1x50mm, Waters
Retention time: 1.352 min
Base peak: 214.0934
Precursor m/z: 214.0935
Precursor type: [M+H]+
m/z	relative intensity	assigned
53.0021	7	C3HO+
55.029	7	C2H3N2+
56.0495	41	C3H6N+
58.0651	270	C3H8N+
59.0492	106	C3H7O+
60.0558	12	CH6N3+
68.0243	153	C2H2N3+
69.0083	999	C2HN2O+
83.0603	83	C4H7N2+
84.0444	115	C4H6NO+
85.0508	77	C2H5N4+
86.0349	498	C2H4N3O+
109.0397	34	C5H5N2O+
111.0302	7	C3H3N4O+
126.0662	22	C5H8N3O+
128.0567	14	C3H6N5O+
