Mass spectrum: Dexamethasone; LC-ESI-ITFT; MS2; CE: 75%; R=7500; [M+H]+
Name: Dexamethasone
Name: (8S,9R,10S,11S,13S,14S,16R,17R)-9-fluoranyl-10,13,16-trimethyl-11,17-bis(oxidanyl)-17-(2-oxidanylethanoyl)-6,7,8,11,12,14,15,16-octahydrocyclopenta[a]phenanthren-3-one
Formula: C22H29FO5
Exact mass: 392.1999
SMILES: [H][C@@]12C[C@@H](C)[C@](O)(C(=O)CO)[C@@]1(C)C[C@H](O)[C@@]3(F)[C@@]2([H])CCC4=CC(=O)C=C[C@]34C
InChI: InChI=1S/C22H29FO5/c1-12-8-16-15-5-4-13-9-14(25)6-7-19(13,2)21(15,23)17(26)10-20(16,3)22(12,28)18(27)11-24/h6-7,9,12,15-17,24,26,28H,4-5,8,10-11H2,1-3H3/t12-,15+,16+,17+,19+,20+,21+,22+/m1/s1
Instrument: LTQ Orbitrap XL Thermo Scientific
Instrument type: LC-ESI-ITFT
Ms type: MS2
Ion mode: POSITIVE
Ionization: ESI
Fragmentation mode: HCD
Collision energy: 75 % (nominal)
Resolution: 7500
Column name: XBridge C18 3.5um, 2.1x50mm, Waters
Retention time: 9.5 min
Base peak: 393.2068
Precursor m/z: 393.2072
Precursor type: [M+H]+
m/z	relative intensity	assigned
77.0385	130	C6H5+
79.0543	107	C6H7+
81.0699	51	C6H9+
91.0541	444	C7H7+
93.07	221	C7H9+
95.0856	190	C7H11+
105.0699	465	C8H9+
107.0855	331	C8H11+
109.1011	111	C8H13+
115.0539	162	C9H7+
117.0696	228	C9H9+
119.0854	562	C9H11+
121.0648	938	C8H9O+
121.1015	60	C9H13+
128.0622	238	C10H8+
129.0697	144	C10H9+
131.0856	238	C10H11+
132.057	154	C9H8O+
133.0651	79	C9H9O+
135.0803	207	C9H11O+
141.0699	139	C11H9+
142.0779	130	C11H10+
143.0854	288	C11H11+
144.0564	100	C10H8O+
145.0648	325	C10H9O+
145.1017	100	C11H13+
146.072	112	C10H10O+
147.0805	999	C10H11O+
155.0603	61	C10H7N2+
155.0854	184	C12H11+
158.0726	261	C11H10O+
159.0804	363	C11H11O+
161.0959	151	C11H13O+
169.101	60	C13H13+
171.0805	465	C12H11O+
173.0958	160	C12H13O+
178.0769	103	C14H10+
179.0859	271	C14H11+
180.0951	82	C11H13FO+
181.0646	103	C13H9O+
182.0721	83	C13H10O+
183.0798	88	C13H11O+
185.097	142	C13H13O+
189.0706	73	C15H9+
191.0864	146	C15H11+
192.0931	77	C15H12+
193.1013	154	C15H13+
194.1105	84	C12H15FO+
195.0803	168	C14H11O+
196.0883	193	C14H12O+
197.0955	159	C14H13O+
203.0864	94	C16H11+
204.0933	129	C16H12+
207.0804	174	C15H11O+
208.0891	200	C15H12O+
209.0957	242	C15H13O+
211.112	100	C15H15O+
221.0956	161	C16H13O+
222.1038	370	C16H14O+
224.1193	60	C16H16O+
233.0954	140	C17H13O+
234.1051	100	C17H14O+
235.112	145	C17H15O+
245.0957	74	C18H13O+
246.1032	67	C18H14O+
247.1118	135	C18H15O+
248.1204	79	C18H16O+
261.1268	130	C19H17O+
263.1431	124	C19H19O+
