Mass spectrum: Imicyafos; LC-ESI-QFT; MS2; CE: 75%; R=17500; [M+H]+
Name: Imicyafos
Name: [1-[ethoxy(propylsulfanyl)phosphoryl]-3-ethylimidazolidin-2-ylidene]cyanamide
Formula: C11H21N4O2PS
Exact mass: 304.1123
SMILES: CCCSP(=O)(N1CCN(C1=NC#N)CC)OCC
InChI: InChI=1S/C11H21N4O2PS/c1-4-9-19-18(16,17-6-3)15-8-7-14(5-2)11(15)13-10-12/h4-9H2,1-3H3
Instrument: Exploris 240 Orbitrap Thermo Scientific
Instrument type: LC-ESI-QFT
Ms type: MS2
Ion mode: POSITIVE
Ionization: ESI
Fragmentation mode: HCD
Collision energy: 75 % (nominal)
Resolution: 17500
Column name: XBridge C18 3.5um, 2.1x50mm, Waters
Retention time: 5.301 min
Base peak: 305.1193
Precursor m/z: 305.1196
Precursor type: [M+H]+
m/z	relative intensity	assigned
68.0243	98	C2H2N3+
69.0447	374	C3H5N2+
70.0651	252	C4H8N+
71.0605	143	C3H7N2+
72.0808	70	C4H10N+
86.0714	67	C3H8N3+
96.0553	28	C4H6N3+
96.9508	175	H2O2PS+
97.076	47	C5H9N2+
106.0055	64	C2H5NO2P+
110.0714	34	C5H8N3+
111.0665	116	C4H7N4+
112.0868	378	C5H10N3+
123.0664	33	C5H7N4+
130.0164	58	C3H5N3OP+
131.0004	50	C3H4N2O2P+
137.0824	96	C6H9N4+
139.0977	855	C6H11N4+
148.0272	43	C3H7N3O2P+
155.012	60	C4H4N4OP+
156.0321	656	C5H7N3OP+
158.0477	113	C5H9N3OP+
173.0222	509	C4H6N4O2P+
174.0431	49	C5H9N3O2P+
176.0584	113	C5H11N3O2P+
185.0587	91	C10H7N3O+
201.0536	999	C6H10N4O2P+
218.015	35	C6H9N3O2PS+
