Mass spectrum: N-Nitrosofenfluramine; LC-ESI-QFT; MS2; CE: 60; R=35000; [M+H]+
Name: N-Nitrosofenfluramine
Name: N-Ethyl-N-nitroso-1-[3-(trifluoromethyl)phenyl]-2-propanamine
Formula: C12H15F3N2O
Exact mass: 260.11365
SMILES: CCN(C(C)Cc1cccc(c1)C(F)(F)F)N=O
InChI: InChI=1S/C12H15F3N2O/c1-3-17(16-18)9(2)7-10-5-4-6-11(8-10)12(13,14)15/h4-6,8-9H,3,7H2,1-2H3
Instrument: Q Exactive Plus Orbitrap Thermo Scientific
Instrument type: LC-ESI-QFT
Ms type: MS2
Ion mode: POSITIVE
Ionization: ESI
Fragmentation mode: HCD
Collision energy: 60 (nominal)
Resolution: 35000
Column name: XBridge C18 3.5um, 2.1x50mm, Waters
Retention time: 10.0 min
Base peak: 261.1206
Precursor m/z: 261.1209
Precursor type: [M+H]+
m/z	relative intensity	assigned
75.0552	29	C2H7N2O+
109.0448	33	C7H6F+
127.0352	1	C7H5F2+
139.0354	5	C8H5F2+
146.0964	3	C10H12N+
147.0354	1	C8H4FN2+
147.0604	3	C10H8F+
159.0415	999	C8H6F3+
167.0666	1	C10H9F2+
187.0727	1	C10H10F3+
210.1088	14	C12H14F2N+
