Mass spectrum: Tetraconazole; LC-ESI-QFT; MS2; CE: 90; R=35000; [M+H]+
Name: Tetraconazole
Name: 1-[2-(2,4-dichlorophenyl)-3-(1,1,2,2-tetrafluoroethoxy)propyl]-1,2,4-triazole
Formula: C13H11Cl2F4N3O
Exact mass: 371.02153
SMILES: C1=CC(=C(C=C1Cl)Cl)C(CN2C=NC=N2)COC(C(F)F)(F)F
InChI: InChI=1S/C13H11Cl2F4N3O/c14-9-1-2-10(11(15)3-9)8(4-22-7-20-6-21-22)5-23-13(18,19)12(16)17/h1-3,6-8,12H,4-5H2
Instrument: Q Exactive Plus Orbitrap Thermo Scientific
Instrument type: LC-ESI-QFT
Ms type: MS2
Ion mode: POSITIVE
Ionization: ESI
Fragmentation mode: HCD
Collision energy: 90 (nominal)
Resolution: 35000
Column name: XBridge C18 3.5um, 2.1x50mm, Waters
Retention time: 11.8 min
Base peak: 372.0281
Precursor m/z: 372.0288
Precursor type: [M+H]+
m/z	relative intensity	assigned
51.0041	5	CHF2+
59.0292	1	C3H4F+
62.015	1	C5H2+
63.0228	4	FH2N3+
65.0386	2	C5H5+
70.0399	425	C2H4N3+
72.9839	12	C3H2Cl+
74.9996	1	C3H4Cl+
87.0229	1	C7H3+
88.0307	1	C7H4+
89.0386	71	C2H4FN3+
93.0335	1	C6H5O+
96.9839	5	C5H2Cl+
98.9996	70	C5H4Cl+
108.9607	1	C3H3Cl2+
114.0464	2	C9H6+
115.0542	138	C9H7+
122.9996	311	C7H4Cl+
124.0075	97	C7H5Cl+
125.0152	3	C7H6Cl+
132.057	1	C9H8O+
132.9606	39	C5H3Cl2+
133.0448	3	C9H6F+
134.0523	2	C4H6F2N3+
140.9902	1	C7H3ClF+
141.998	1	C7H4ClF+
149.0153	36	C9H6Cl+
150.0231	15	C9H7Cl+
155.9967	1	C2H4ClFN3O2+
158.9763	999	C2H4Cl2FN3+
176.9669	19	C7H4Cl2F+
182.9761	1	C4H4Cl2FN3+
