Mass spectrum: Isoxaflutole; LC-ESI-QFT; MS2; CE: 60; R=35000; [M-H]-
Name: Isoxaflutole
Name: (5-cyclopropyl-1,2-oxazol-4-yl)-[2-methylsulfonyl-4-(trifluoromethyl)phenyl]methanone
Formula: C15H12F3NO4S
Exact mass: 359.04391
SMILES: O=C(c1c(onc1)C2CC2)c3ccc(cc3S(=O)(=O)C)C(F)(F)F
InChI: InChI=1S/C15H12F3NO4S/c1-24(21,22)12-6-9(15(16,17)18)4-5-10(12)13(20)11-7-19-23-14(11)8-2-3-8/h4-8H,2-3H2,1H3
Instrument: Q Exactive Plus Orbitrap Thermo Scientific
Instrument type: LC-ESI-QFT
Ms type: MS2
Ion mode: NEGATIVE
Ionization: ESI
Fragmentation mode: HCD
Collision energy: 60 (nominal)
Resolution: 35000
Column name: XBridge C18 3.5um, 2.1x50mm, Waters
Retention time: 8.6 min
Base peak: 358.0367
Precursor m/z: 358.0366
Precursor type: [M-H]-
m/z	relative intensity	assigned
60.9754	1	CHOS-
63.9625	976	O2S-
65.9986	17	C3NO-
67.019	5	C4H3O-
78.986	999	CH3O2S-
85.0295	1	C4H5O2-
90.035	6	C6H4N-
108.0456	93	C6H6NO-
145.0272	6	C7H4F3-
159.0428	34	C8H6F3-
161.0221	2	C7H4F3O-
168.0256	2	C11H3FN-
170.0226	1	C8H3F3N-
185.0222	4	C9H4F3O-
201.0167	2	C9H4F3O2-
203.0326	1	C9H6F3O2-
208.0572	1	C14H7FN-
210.0172	1	C10H3F3NO-
213.0171	1	C10H4F3O2-
228.0633	6	C14H8F2N-
231.9816	1	C9H3F3O2S-
247.0623	2	C14H8F3N-
248.984	14	C9H4F3O3S-
250.049	1	C13H7F3NO-
251.0327	1	C13H6F3O2-
264.0276	1	C10H10F2O4S-
276.0644	8	C15H9F3NO-
278.0437	3	C14H7F3NO2-
