Mass spectrum: Amoxicillin; LC-ESI-QFT; MS2; CE: 30; R=35000; [M-H]-
Name: Amoxicillin
Name: Amoxicillin anhydrous
Name: (2S,5R,6R)-6-[[(2R)-2-amino-2-(4-hydroxyphenyl)-1-oxoethyl]amino]-3,3-dimethyl-7-oxo-4-thia-1-azabicyclo[3.2.0]heptane-2-carboxylic acid
Formula: C16H19N3O5S
Exact mass: 365.10454
SMILES: CC1(C)S[C@@H]2[C@H](NC(=O)[C@H](N)C3=CC=C(O)C=C3)C(=O)N2[C@H]1C(O)=O
InChI: InChI=1S/C16H19N3O5S/c1-16(2)11(15(23)24)19-13(22)10(14(19)25-16)18-12(21)9(17)7-3-5-8(20)6-4-7/h3-6,9-11,14,20H,17H2,1-2H3,(H,18,21)(H,23,24)/t9-,10-,11+,14-/m1/s1
Instrument: Q Exactive Orbitrap Thermo Scientific
Instrument type: LC-ESI-QFT
Ms type: MS2
Ion mode: NEGATIVE
Ionization: ESI
Fragmentation mode: HCD
Collision energy: 30 (nominal)
Resolution: 35000
Column name: XBridge C18 3.5um, 2.1x50mm, Waters
Retention time: 2.2 min
Base peak: 364.0974
Precursor m/z: 364.0973
Precursor type: [M-H]-
m/z	relative intensity	assigned
57.9757	1	CNS-
71.9913	5	C2H2NS-
72.9754	1	C2HOS-
72.999	10	C2H3NS-
74.007	38	C2H4NS-
74.991	1	C2H3OS-
83.0251	53	C3H3N2O-
83.9914	12	C3H2NS-
86.007	29	C3H4NS-
89.0179	11	C2H5N2S-
93.0346	656	C6H5O-
95.0251	9	C4H3N2O-
99.9862	79	C3H2NOS-
102.002	7	C3H4NOS-
105.0342	3	C7H5O-
111.0022	4	C4H3N2S-
111.9863	15	C4H2NOS-
118.0301	5	C7H4NO-
119.0501	4	C8H7O-
120.0455	42	C7H6NO-
123.0452	14	C7H7O2-
123.9988	2	C6H4OS-
125.0067	4	C6H5OS-
129.0129	999	C4H5N2OS-
132.0216	23	C8H4O2-
133.0294	106	C8H5O2-
137.0066	25	C7H5OS-
144.0454	3	C9H6NO-
145.0295	3	C9H5O2-
146.0611	58	C9H8NO-
148.0406	5	C8H6NO2-
151.0222	12	C8H7OS-
160.0402	1	C9H6NO2-
162.056	14	C9H8NO2-
163.0224	63	C9H7OS-
163.9939	2	C8H4O2S-
171.0597	12	C7H11N2OS-
172.0404	107	C10H6NO2-
178.0332	16	C9H8NOS-
181.044	6	C8H9N2OS-
188.0177	9	C10H6NOS-
189.0669	66	C10H9N2O2-
206.028	981	C10H8NO2S-
223.0546	232	C10H11N2O2S-
226.0651	2	C9H12N3O2S-
226.0871	2	C14H12NO2-
254.0695	2	C14H10N2O3-
269.093	2	C15H13N2O3-
303.0811	5	C15H15N2O3S-
