Mass spectrum: D617; LC-ESI-ITFT; MS2; CE: 75%; R=7500; [M+H]+
Name: D617
Name: Verapamil metabolite D617
Name: 2-(3,4-dimethoxyphenyl)-2-isopropyl-5-(methylamino)valeronitrile
Formula: C17H26N2O2
Exact mass: 290.1994
SMILES: CC(C)C(CCCNC)(C#N)C1=CC(=C(C=C1)OC)OC
InChI: InChI=1S/C17H26N2O2/c1-13(2)17(12-18,9-6-10-19-3)14-7-8-15(20-4)16(11-14)21-5/h7-8,11,13,19H,6,9-10H2,1-5H3
Instrument: LTQ Orbitrap XL Thermo Scientific
Instrument type: LC-ESI-ITFT
Ms type: MS2
Ion mode: POSITIVE
Ionization: ESI
Fragmentation mode: HCD
Collision energy: 75 % (nominal)
Resolution: 7500
Column name: XBridge C18 3.5um, 2.1x50mm, Waters
Retention time: 6.3 min
Base peak: 291.2077
Precursor m/z: 291.2067
Precursor type: [M+H]+
m/z	relative intensity	assigned
67.0544	34	C5H7+
70.0652	147	C4H8N+
77.0386	32	C6H5+
78.0462	17	C6H6+
79.0544	35	C6H7+
80.0495	42	C5H6N+
81.0575	16	C5H7N+
91.0542	94	C7H7+
93.0701	15	C7H9+
94.0654	63	C6H8N+
95.0494	58	C6H7O+
95.0858	53	C7H11+
96.0809	48	C6H10N+
105.07	130	C8H9+
107.049	68	C7H7O+
107.0732	29	C7H9N+
108.0572	37	C7H8O+
117.0699	49	C9H9+
121.0651	118	C8H9O+
122.0966	35	C8H12N+
123.0442	68	C7H7O2+
124.052	78	C7H8O2+
126.1278	13	C8H16N+
131.0489	30	C9H7O+
132.0573	19	C9H8O+
133.0648	63	C9H9O+
134.0727	44	C9H10O+
135.0442	57	C8H7O2+
136.0521	166	C8H8O2+
137.0599	180	C8H9O2+
138.0678	250	C8H10O2+
139.0752	46	C8H11O2+
145.0653	32	C10H9O+
146.0604	78	C9H8NO+
146.0728	232	C10H10O+
147.0806	48	C10H11O+
149.0601	22	C9H9O2+
149.0958	18	C10H13O+
150.0676	190	C9H10O2+
151.0755	999	C9H11O2+
156.0802	19	C11H10N+
159.0803	47	C11H11O+
160.0759	57	C10H10NO+
160.0886	79	C11H12O+
161.0963	34	C11H13O+
162.068	30	C10H10O2+
163.0747	18	C10H11O2+
164.0835	45	C10H12O2+
165.0912	372	C10H13O2+
172.0758	79	C11H10NO+
173.0844	22	C11H11NO+
174.0915	127	C11H12NO+
175.0748	22	C11H11O2+
177.0912	208	C11H13O2+
179.1069	24	C11H15O2+
186.0917	40	C12H12NO+
187.0996	61	C12H13NO+
188.071	53	C11H10NO2+
190.0866	40	C11H12NO2+
191.1067	44	C12H15O2+
192.1148	53	C12H16O2+
197.0963	16	C14H13O+
201.0917	15	C13H13O2+
202.0863	176	C12H12NO2+
203.0948	56	C12H13NO2+
214.1224	67	C14H16NO+
230.118	25	C14H16NO2+
233.1286	139	C13H17N2O2+
247.1437	42	C14H19N2O2+
248.1509	13	C14H20N2O2+
