Mass spectrum: Bromuconazole; LC-ESI-QFT; MS2; CE: 90; R=35000; [M+H]+
Name: Bromuconazole
Name: 1-[[4-bromo-2-(2,4-dichlorophenyl)oxolan-2-yl]methyl]-1,2,4-triazole
Formula: C13H12BrCl2N3O
Exact mass: 374.95408
SMILES: C1C(COC1(CN2C=NC=N2)C3=C(C=C(C=C3)Cl)Cl)Br
InChI: InChI=1S/C13H12BrCl2N3O/c14-9-4-13(20-5-9,6-19-8-17-7-18-19)11-2-1-10(15)3-12(11)16/h1-3,7-9H,4-6H2
Instrument: Q Exactive Plus Orbitrap Thermo Scientific
Instrument type: LC-ESI-QFT
Ms type: MS2
Ion mode: POSITIVE
Ionization: ESI
Fragmentation mode: HCD
Collision energy: 90 (nominal)
Resolution: 35000
Column name: XBridge C18 3.5um, 2.1x50mm, Waters
Retention time: 10.9 min
Base peak: 377.9586
Precursor m/z: 375.9614
Precursor type: [M+H]+
m/z	relative intensity	assigned
63.0228	2	C5H3+
65.0386	2	C5H5+
68.0258	1	C4H4O+
70.04	171	C2H4N3+
72.9839	8	C3H2Cl+
74.015	2	C6H2+
84.984	3	C4H2Cl+
86.9633	5	C3ClO+
89.0386	45	C7H5+
92.9335	1	CH2Br+
96.9841	3	C5H2Cl+
98.9997	47	C5H4Cl+
100.0075	1	C5H5Cl+
108.9841	16	C6H2Cl+
115.0543	2	C9H7+
118.9493	3	C3H4Br+
120.9605	1	C4H3Cl2+
122.9997	211	C7H4Cl+
124.0076	65	C7H5Cl+
126.9947	3	C6H4ClO+
128.0024	3	C6H5ClO+
128.0622	10	C10H8+
129.07	22	C10H9+
132.9607	28	C5H3Cl2+
144.9607	8	C6H3Cl2+
149.0156	2	C9H6Cl+
150.0229	1	C9H7Cl+
155.0608	2	C10H7N2+
155.9971	1	C4H8Cl2NO+
158.9764	999	C7H5Cl2+
162.0232	8	C10H7Cl+
162.9712	7	C6H5Cl2O+
164.0384	1	C10H9Cl+
172.9558	29	C7H3Cl2O+
172.967	60	C6H3Cl2N2+
175.031	1	C11H8Cl+
182.976	1	C9H5Cl2+
