Mass spectrum: Sulfentrazon; LC-ESI-QFT; MS2; CE: 150; R=35000; [M-H]-
Name: Sulfentrazon
Name: N-(2,4-dichloro-5-(4-(difluoromethyl)-4,5-dihydro-3-methyl-5-oxo-1H-1,2,4-triazol-1-yl)phenyl)methanesulfonamide
Name: N-[2,4-dichloro-5-[4-(difluoromethyl)-3-methyl-5-oxo-1,2,4-triazol-1-yl]phenyl]methanesulfonamide
Formula: C11H10Cl2F2N4O3S
Exact mass: 385.98187
SMILES: O=S(=O)(Nc2c(Cl)cc(Cl)c(N1/N=C(\N(C1=O)C(F)F)C)c2)C
InChI: InChI=1S/C11H10Cl2F2N4O3S/c1-5-16-19(11(20)18(5)10(14)15)9-4-8(17-23(2,21)22)6(12)3-7(9)13/h3-4,10,17H,1-2H3
Instrument: Q Exactive Plus Orbitrap Thermo Scientific
Instrument type: LC-ESI-QFT
Ms type: MS2
Ion mode: NEGATIVE
Ionization: ESI
Fragmentation mode: HCD
Collision energy: 150 (nominal)
Resolution: 35000
Column name: XBridge C18 3.5um, 2.1x50mm, Waters
Retention time: 7.5 min
Base peak: 384.9745
Precursor m/z: 384.9746
Precursor type: [M-H]-
m/z	relative intensity	assigned
50.0036	202	C3N-
62.0037	24	C4N-
63.9625	927	O2S-
65.0145	89	C3HN2-
65.9985	61	C3NO-
71.0053	69	C2FN2-
74.0038	999	C5N-
82.0411	243	C3H4N3-
86.0037	145	C6N-
88.0067	100	C5N2-
88.0193	87	C6H2N-
89.0145	126	C5HN2-
89.9985	73	C5NO-
90.0099	25	C4N3-
98.0037	105	C7N-
100.0067	25	C6N2-
101.0144	75	C6HN2-
112.0067	258	C7N2-
113.0146	88	C7HN2-
114.01	64	C6N3-
115.0304	24	C7H3N2-
