Mass spectrum: Penconazole; LC-ESI-QFT; MS2; CE: 150; R=35000; [M+H]+
Name: Penconazole
Name: 1-[2-(2,4-dichlorophenyl)pentyl]-1,2,4-triazole
Formula: C13H15Cl2N3
Exact mass: 283.06430
SMILES: Clc1ccc(c(Cl)c1)C(CCC)Cn2ncnc2
InChI: InChI=1S/C13H15Cl2N3/c1-2-3-10(7-18-9-16-8-17-18)12-5-4-11(14)6-13(12)15/h4-6,8-10H,2-3,7H2,1H3
Instrument: Q Exactive Plus Orbitrap Thermo Scientific
Instrument type: LC-ESI-QFT
Ms type: MS2
Ion mode: POSITIVE
Ionization: ESI
Fragmentation mode: HCD
Collision energy: 150 (nominal)
Resolution: 35000
Column name: XBridge C18 3.5um, 2.1x50mm, Waters
Retention time: 12.7 min
Base peak: 284.0713
Precursor m/z: 284.0716
Precursor type: [M+H]+
m/z	relative intensity	assigned
50.0151	6	C4H2+
51.0229	2	C4H3+
53.0022	2	C3HO+
61.0072	7	C5H+
62.0151	56	C5H2+
63.0229	168	C5H3+
64.0308	2	C5H4+
65.0386	2	C5H5+
70.0399	651	C2H4N3+
72.9839	433	C3H2Cl+
74.015	13	C6H2+
74.9995	10	C3H4Cl+
75.0229	127	C6H3+
76.0307	20	C6H4+
77.0385	4	C6H5+
79.0178	3	C5H3O+
82.9449	36	CHCl2+
84.984	1	C4H2Cl+
86.015	3	C7H2+
87.0229	16	C7H3+
88.0307	60	C7H4+
89.0385	999	C7H5+
91.0542	1	C7H7+
95.0492	5	C3H10ClN+
96.984	142	C5H2Cl+
98.9996	230	C5H4Cl+
101.0385	8	C8H5+
102.0464	97	C8H6+
103.0541	15	C8H7+
105.0448	3	C6H5N2+
106.9449	10	C3HCl2+
108.9606	4	C3H3Cl2+
115.0543	1	C9H7+
119.0491	6	C5H10ClN+
120.0205	7	C4H7ClNO+
122.9996	317	C7H4Cl+
124.0074	81	C7H5Cl+
129.0446	13	C8H5N2+
132.9606	84	C5H3Cl2+
158.9763	47	C7H5Cl2+
