Mass spectrum: Climbazol; LC-ESI-ITFT; MS2; CE: 75%; R=7500; [M+H]+
Name: Climbazol
Name: Climbazole
Name: 1-(4-chloranylphenoxy)-1-imidazol-1-yl-3,3-dimethyl-butan-2-one
Formula: C15H17ClN2O2
Exact mass: 292.0979
SMILES: CC(C)(C)C(=O)C(N1C=CN=C1)OC2=CC=C(C=C2)Cl
InChI: InChI=1S/C15H17ClN2O2/c1-15(2,3)13(19)14(18-9-8-17-10-18)20-12-6-4-11(16)5-7-12/h4-10,14H,1-3H3
Instrument: LTQ Orbitrap XL Thermo Scientific
Instrument type: LC-ESI-ITFT
Ms type: MS2
Ion mode: POSITIVE
Ionization: ESI
Fragmentation mode: HCD
Collision energy: 75 % (nominal)
Resolution: 7500
Column name: XBridge C18 3.5um, 2.1x50mm, Waters
Retention time: 8.1 min
Base peak: 293.1064
Precursor m/z: 293.1051
Precursor type: [M+H]+
m/z	relative intensity	assigned
55.0542	110	C4H7+
57.0698	579	C4H9+
67.0543	52	C5H7+
69.0699	989	C5H9+
70.0777	357	C5H10+
77.0386	133	C6H5+
81.0447	65	C4H5N2+
82.0525	115	C4H6N2+
91.0542	56	C7H7+
94.0413	72	C6H6O+
98.9996	974	C5H4Cl+
105.0445	42	C6H5N2+
109.0396	296	C5H5N2O+
110.9999	77	C6H4Cl+
113.015	321	C6H6Cl+
121.0396	29	C6H5N2O+
126.9944	999	C6H4ClO+
129.01	422	C6H6ClO+
139.0057	717	C6H4ClN2+
141.01	676	C7H6ClO+
155.0259	254	C8H8ClO+
175.0752	35	C11H11O2+
