Mass spectrum: Diclobutrazol; LC-ESI-QFT; MS2; CE: 15%; R=17500; [M+H]+
Name: Diclobutrazol
Name: 1-(2,4-dichlorophenyl)-4,4-dimethyl-2-(1,2,4-triazol-1-yl)pentan-3-ol
Formula: C15H19Cl2N3O
Exact mass: 327.0905
SMILES: CC(C)(C)C(C(CC1=C(C=C(C=C1)Cl)Cl)N2C=NC=N2)O
InChI: InChI=1S/C15H19Cl2N3O/c1-15(2,3)14(21)13(20-9-18-8-19-20)6-10-4-5-11(16)7-12(10)17/h4-5,7-9,13-14,21H,6H2,1-3H3
Instrument: Exploris 240 Orbitrap Thermo Scientific
Instrument type: LC-ESI-QFT
Ms type: MS2
Ion mode: POSITIVE
Ionization: ESI
Fragmentation mode: HCD
Collision energy: 15 % (nominal)
Resolution: 17500
Column name: XBridge C18 3.5um, 2.1x50mm, Waters
Retention time: 10.847 min
Base peak: 328.0979
Precursor m/z: 328.0978
Precursor type: [M+H]+
m/z	relative intensity	assigned
70.04	36	C2H4N3+
328.098	999	C15H20Cl2N3O+
