Mass spectrum: Olopatadine; LC-ESI-QFT; MS2; CE: 75; R=35000; [M+H]+
Name: Olopatadine
Name: 2-[(11Z)-11-[3-(dimethylazaniumyl)propylidene]-6H-benzo[c][1]benzoxepin-2-yl]acetate
Formula: C21H23NO3
Exact mass: 337.16779
SMILES: CN(C)CC/C=C\1/C2=CC=CC=C2COC3=C1C=C(C=C3)CC(=O)O
InChI: InChI=1S/C21H23NO3/c1-22(2)11-5-8-18-17-7-4-3-6-16(17)14-25-20-10-9-15(12-19(18)20)13-21(23)24/h3-4,6-10,12H,5,11,13-14H2,1-2H3,(H,23,24)/b18-8-
Instrument: Q Exactive Orbitrap Thermo Scientific
Instrument type: LC-ESI-QFT
Ms type: MS2
Ion mode: POSITIVE
Ionization: ESI
Fragmentation mode: HCD
Collision energy: 75 (nominal)
Resolution: 35000
Column name: XBridge C18 3.5um, 2.1x50mm, Waters
Retention time: 7.1 min
Base peak: 338.1752
Precursor m/z: 338.1751
Precursor type: [M+H]+
m/z	relative intensity	assigned
53.0387	3	C4H5+
56.0496	3	C3H6N+
57.0574	4	C3H7N+
58.0652	495	C3H8N+
63.0229	3	C5H3+
65.0385	62	C5H5+
67.0542	63	C5H7+
68.0495	3	C4H6N+
69.0334	5	C4H5O+
69.0572	5	C4H7N+
70.0651	291	C4H8N+
71.0127	16	C3H3O2+
71.0729	16	C4H9N+
72.0807	33	C4H10N+
77.0386	61	C6H5+
78.0464	4	C6H6+
79.0542	75	C6H7+
81.0699	105	C6H9+
82.0652	45	C5H8N+
84.0808	686	C5H10N+
85.0886	45	C5H11N+
89.0383	3	C7H5+
91.0542	999	C7H7+
92.0619	4	C7H8+
93.0698	122	C7H9+
94.0413	18	C6H6O+
95.0491	224	C6H7O+
103.0542	38	C8H7+
104.0621	17	C8H8+
105.0447	69	C6H5N2+
105.0699	47	C8H9+
107.0492	43	C7H7O+
109.0648	197	C7H9O+
115.0542	753	C9H7+
116.062	27	C9H8+
117.0698	493	C9H9+
119.0491	187	C8H7O+
120.0569	47	C8H8O+
121.0647	79	C8H9O+
123.044	593	C7H7O2+
127.0541	3	C10H7+
128.062	200	C10H8+
129.0698	252	C10H9+
131.0491	130	C9H7O+
133.0649	11	C9H9O+
135.0442	5	C8H7O2+
137.0597	307	C8H9O2+
141.0698	522	C11H9+
142.0778	44	C11H10+
143.0856	3	C11H11+
144.0573	31	C10H8O+
145.0649	34	C10H9O+
147.0444	20	C9H7O2+
149.0598	5	C9H9O2+
152.0619	15	C12H8+
153.0698	31	C12H9+
154.0779	6	C12H10+
155.0493	3	C11H7O+
155.0603	21	C10H7N2+
155.0856	6	C12H11+
156.0807	3	C11H10N+
157.065	5	C11H9O+
158.0964	6	C11H12N+
161.0595	14	C10H9O2+
165.0547	240	C9H9O3+
165.0698	124	C13H9+
166.0775	43	C13H10+
167.0857	21	C13H11+
169.0651	17	C12H9O+
170.0962	6	C12H12N+
172.1116	4	C12H14N+
173.1203	3	C12H15N+
176.0626	4	C14H8+
177.0699	15	C14H9+
178.0777	475	C14H10+
179.0855	477	C14H11+
180.0934	6	C14H12+
181.0647	14	C13H9O+
181.1011	5	C14H13+
189.0553	44	C11H9O3+
189.0698	138	C15H9+
190.0777	164	C15H10+
191.0855	295	C15H11+
192.0933	23	C15H12+
193.1013	63	C15H13+
194.0726	20	C14H10O+
201.0693	6	C16H9+
202.0775	196	C16H10+
203.0854	497	C16H11+
204.0934	412	C16H12+
205.0649	116	C15H9O+
205.1013	91	C16H13+
206.0726	53	C15H10O+
206.108	3	C16H14+
207.0805	235	C15H11O+
208.0885	12	C15H12O+
213.0696	6	C17H9+
214.0776	30	C17H10+
215.0856	300	C17H11+
216.0933	27	C17H12+
217.1012	64	C17H13+
218.0727	119	C16H10O+
218.1089	15	C17H14+
219.0805	284	C16H11O+
219.1166	64	C17H15+
220.0881	31	C16H12O+
221.0961	56	C16H13O+
226.0777	11	C18H10+
227.0855	77	C18H11+
228.0933	348	C18H12+
229.1012	423	C18H13+
230.1096	5	C18H14+
231.0805	556	C17H11O+
232.0883	515	C17H12O+
233.0961	129	C17H13O+
234.1037	23	C17H14O+
245.0963	40	C18H13O+
246.1041	22	C18H14O+
247.1118	90	C18H15O+
252.0783	54	C16H12O3+
253.0864	5	C16H13O3+
263.0706	4	C17H11O3+
277.0855	4	C18H13O3+
