Mass spectrum: Mirtazapine; LC-ESI-QFT; MS2; CE: 60; R=35000; [M+H]+
Name: Mirtazapine
Name: 2-Methyl-1,2,3,4,10,14b-hexahydropyrazino[2,1-a]pyrido[2,3-c][2]benzazepine
Formula: C17H19N3
Exact mass: 265.15790
SMILES: CN1CCN2C(C1)C3=CC=CC=C3CC4=C2N=CC=C4
InChI: InChI=1S/C17H19N3/c1-19-9-10-20-16(12-19)15-7-3-2-5-13(15)11-14-6-4-8-18-17(14)20/h2-8,16H,9-12H2,1H3
Instrument: Q Exactive Plus Orbitrap Thermo Scientific
Instrument type: LC-ESI-QFT
Ms type: MS2
Ion mode: POSITIVE
Ionization: ESI
Fragmentation mode: HCD
Collision energy: 60 (nominal)
Resolution: 35000
Column name: XBridge C18 3.5um, 2.1x50mm, Waters
Retention time: 4.7 min
Base peak: 266.1642
Precursor m/z: 266.1652
Precursor type: [M+H]+
m/z	relative intensity	assigned
56.0493	2	C3H6N+
57.0572	1	C3H7N+
58.065	9	C3H8N+
65.0385	1	C5H5+
70.065	15	C4H8N+
72.0807	311	C4H10N+
80.0494	1	C5H6N+
85.0759	1	C4H9N2+
91.0541	4	C7H7+
92.0494	4	C6H6N+
103.0541	1	C8H7+
105.0697	5	C8H9+
107.0602	5	C6H7N2+
110.0599	22	C6H8NO+
115.0541	17	C9H7+
117.0697	2	C9H9+
129.0696	1	C10H9+
130.0651	1	C9H8N+
131.0602	2	C8H7N2+
131.0729	4	C9H9N+
133.0758	3	C8H9N2+
133.0886	1	C9H11N+
135.0916	1	C8H11N2+
141.0698	1	C11H9+
144.0806	6	C10H10N+
146.0962	1	C10H12N+
165.0699	1	C13H9+
167.0726	3	C12H9N+
168.0806	3	C12H10N+
170.0961	2	C12H12N+
178.0655	1	C13H8N+
179.0726	1	C13H9N+
180.0805	15	C13H10N+
181.0757	2	C12H9N2+
181.0883	2	C13H11N+
182.0962	13	C13H12N+
192.0808	5	C14H10N+
193.0756	1	C13H9N2+
194.0837	39	C13H10N2+
195.0915	999	C13H11N2+
206.0842	1	C14H10N2+
207.0914	7	C14H11N2+
208.0993	2	C14H12N2+
209.1071	103	C14H13N2+
217.088	1	C16H11N+
218.0964	4	C16H12N+
219.0915	6	C15H11N2+
220.0991	4	C15H12N2+
221.1065	2	C15H13N2+
223.1228	12	C15H15N2+
233.107	3	C16H13N2+
235.1227	16	C16H15N2+
237.1384	1	C16H17N2+
264.1493	4	C17H18N3+
266.1649	4	C17H20N3+
