Mass spectrum: Triclabendazole; LC-ESI-QFT; MS2; CE: 45; R=35000; [M+H]+
Name: Triclabendazole
Name: Triclabendazol
Name: 6-chloro-5-(2,3-dichlorophenoxy)-2-methylsulfanyl-1H-benzimidazole
Formula: C14H9Cl3N2OS
Exact mass: 357.95012
SMILES: CSc1[nH]c2cc(c(cc2n1)Oc3cccc(c3Cl)Cl)Cl
InChI: InChI=1S/C14H9Cl3N2OS/c1-21-14-18-9-5-8(16)12(6-10(9)19-14)20-11-4-2-3-7(15)13(11)17/h2-6H,1H3,(H,18,19)
Instrument: Q Exactive Plus Orbitrap Thermo Scientific
Instrument type: LC-ESI-QFT
Ms type: MS2
Ion mode: POSITIVE
Ionization: ESI
Fragmentation mode: HCD
Collision energy: 45 (nominal)
Resolution: 35000
Column name: XBridge C18 3.5um, 2.1x50mm, Waters
Retention time: 14.2 min
Base peak: 360.954
Precursor m/z: 358.9574
Precursor type: [M+H]+
m/z	relative intensity	assigned
163.0323	2	C8H7N2S+
165.0214	69	C8H6ClN2+
167.0008	1	C7H4ClN2O+
196.9934	14	C8H6ClN2S+
198.0013	108	C8H7ClN2S+
198.9725	15	C7H4ClN2OS+
213.9961	3	C8H7ClN2OS+
229.9911	9	C8H7ClN2O2S+
242.0238	13	C13H7ClN2O+
250.9899	18	C12H7Cl2NO+
272.9881	12	C13H6ClN2OS+
273.9961	277	C13H7ClN2OS+
275.9848	4	C13H6Cl2N2O+
276.9929	67	C13H7Cl2N2O+
280.97	3	C12H7Cl2N2S+
289.0188	2	C14H10ClN2OS+
291.0085	6	C14H9Cl2N2O+
307.957	12	C13H6Cl2N2OS+
308.9649	64	C13H7Cl2N2OS+
311.9617	27	C13H7Cl3N2O+
323.9875	2	C14H10Cl2N2OS+
343.9338	999	C13H7Cl3N2OS+
358.9573	423	C14H10Cl3N2OS+
