Mass spectrum: Edetic acid (EDTA); LC-ESI-QFT; MS2; CE: 45%; R=15000; [M-H]-
Name: Edetic acid (EDTA)
Name: Edetic acid
Name: 2-[2-[bis(carboxymethyl)amino]ethyl-(carboxymethyl)amino]acetic acid
Formula: C10H16N2O8
Exact mass: 292.0907
SMILES: C(CN(CC(=O)O)CC(=O)O)N(CC(=O)O)CC(=O)O
InChI: InChI=1S/C10H16N2O8/c13-7(14)3-11(4-8(15)16)1-2-12(5-9(17)18)6-10(19)20/h1-6H2,(H,13,14)(H,15,16)(H,17,18)(H,19,20)
Instrument: Orbitrap Exploris 240 Thermo Scientific
Instrument type: LC-ESI-QFT
Ms type: MS2
Ion mode: NEGATIVE
Ionization: ESI
Fragmentation mode: HCD
Collision energy: 45 % (nominal)
Resolution: 15000
Column name: Atlantis C18 3um, 3.0x150mm, Waters
Retention time: 4.243 min
Base peak: 291.0834
Precursor m/z: 291.0834
Precursor type: [M-H]-
Precursor intensity: 339100352
m/z	relative intensity	assigned
58.0062	18	C2H2O2-
59.0138	38	C2H3O2-
75.0088	165	C2H3O3-
86.0249	135	C3H4NO2-
88.0404	999	C3H6NO2-
100.0404	30	C4H6NO2-
114.056	139	C5H8NO2-
115.0637	38	C5H9NO2-
129.0664	88	C5H9N2O2-
131.0825	78	C5H11N2O2-
132.0297	125	C4H6NO4-
143.0825	167	C6H11N2O2-
145.0982	150	C6H13N2O2-
157.0982	690	C7H13N2O2-
159.1139	653	C7H15N2O2-
171.0775	165	C7H11N2O3-
185.0927	86	C8H13N2O3-
187.072	153	C7H11N2O4-
201.0883	124	C8H13N2O4-
203.1036	21	C8H15N2O4-
215.0672	276	C8H11N2O5-
247.094	36	C9H15N2O6-
273.0728	66	C10H13N2O7-
291.0853	47	C10H15N2O8-
