Mass spectrum: Codeine; LC-ESI-ITFT; MS2; CE: 35%; R=15000; [M+H]+
Name: Codeine
Name: (5,6)-3-Methoxy-17-methyl-7,8-didehydro-4,5-epoxymorphinan-6-ol
Name: Methylmorphine
Formula: C18H21NO3
Exact mass: 299.1521
SMILES: CN1CC[C@]23[C@@H]4[C@H]1CC5=C2C(=C(C=C5)OC)O[C@H]3[C@H](C=C4)O
InChI: InChI=1S/C18H21NO3/c1-19-8-7-18-11-4-5-13(20)17(18)22-16-14(21-2)6-3-10(15(16)18)9-12(11)19/h3-6,11-13,17,20H,7-9H2,1-2H3/t11-,12+,13-,17-,18-/m0/s1
Instrument: LTQ Orbitrap XL Thermo Scientific
Instrument type: LC-ESI-ITFT
Ms type: MS2
Ion mode: POSITIVE
Ionization: ESI
Fragmentation mode: CID
Collision energy: 35 % (nominal)
Resolution: 15000
Column name: XBridge C18 3.5um, 2.1x50mm, Waters
Retention time: 2.8 min
Base peak: 300.1595
Precursor m/z: 300.1594
Precursor type: [M+H]+
m/z	relative intensity	assigned
121.0647	3	C8H9O+
129.0699	1	C10H9+
132.0811	1	C9H10N+
137.0597	17	C8H9O2+
141.07	1	C11H9+
143.0493	2	C10H7O+
144.0567	1	C10H8O+
144.0809	3	C10H10N+
145.065	2	C10H9O+
146.06	6	C9H8NO+
149.0597	1	C9H9O2+
151.0754	4	C9H11O2+
152.0615	1	C12H8+
153.0698	7	C12H9+
155.0855	33	C12H11+
156.0568	3	C11H8O+
157.0644	1	C11H9O+
158.0729	1	C11H10O+
158.0961	2	C11H12N+
159.0805	19	C11H11O+
160.0758	2	C10H10NO+
161.0597	83	C10H9O2+
162.0914	7	C10H12NO+
163.0751	2	C10H11O2+
165.0699	41	C13H9+
167.0855	5	C13H11+
168.057	3	C12H8O+
169.0648	1	C12H9O+
171.0803	10	C12H11O+
172.0884	4	C12H12O+
173.0964	2	C12H13O+
174.0676	4	C11H10O2+
175.0754	48	C11H11O2+
177.055	2	C10H9O3+
177.0785	1	C10H11NO2+
178.0864	2	C10H12NO2+
179.0855	4	C14H11+
179.0942	4	C10H13NO2+
180.1018	11	C10H14NO2+
181.0648	20	C13H9O+
181.1012	4	C14H13+
182.0728	4	C13H10O+
183.0804	265	C13H11O+
184.0885	2	C13H12O+
185.0596	7	C12H9O2+
185.0957	2	C13H13O+
186.0677	3	C12H10O2+
187.0753	111	C12H11O2+
187.1118	23	C13H15O+
189.0908	1	C12H13O2+
191.0855	34	C15H11+
192.1019	16	C11H14NO2+
193.0648	84	C14H9O+
193.1014	15	C15H13+
194.0725	14	C14H10O+
195.0804	9	C14H11O+
197.0961	23	C14H13O+
198.0673	1	C13H10O2+
199.0753	128	C13H11O2+
200.0831	23	C13H12O2+
201.0543	1	C12H9O3+
201.0704	2	C16H9+
201.0909	16	C13H13O2+
203.0855	9	C16H11+
205.1014	5	C16H13+
206.0725	1	C15H10O+
207.0803	17	C15H11O+
208.0885	2	C15H12O+
209.0598	19	C14H9O2+
209.0961	15	C15H13O+
210.0675	3	C14H10O2+
211.0753	36	C14H11O2+
212.0834	3	C14H12O2+
213.091	27	C14H13O2+
215.1066	999	C14H15O2+
216.1011	3	C13H14NO2+
218.0729	2	C16H10O+
219.0803	35	C16H11O+
220.0881	7	C16H12O+
221.096	50	C16H13O+
222.1042	5	C16H14O+
222.1275	2	C16H16N+
223.0754	21	C15H11O2+
223.1119	5	C16H15O+
224.0831	2	C15H12O2+
224.108	1	C15H14NO+
225.0909	334	C15H13O2+
226.0989	2	C15H14O2+
227.0707	1	C14H11O3+
227.1066	4	C15H15O2+
228.0789	1	C14H12O3+
229.11	3	C14H15NO2+
230.1175	5	C14H16NO2+
235.0752	1	C16H11O2+
236.0831	11	C16H12O2+
237.091	14	C16H13O2+
237.1273	4	C17H17O+
238.0988	11	C16H14O2+
239.0702	2	C15H11O3+
239.1066	11	C16H15O2+
240.1382	2	C16H18NO+
241.0859	27	C15H13O3+
241.1222	12	C16H17O2+
242.1176	2	C15H16NO2+
243.1015	411	C15H15O3+
250.0988	11	C17H14O2+
250.1223	11	C17H16NO+
251.1066	45	C17H15O2+
251.1299	3	C17H17NO+
252.102	4	C16H14NO2+
253.1223	65	C17H17O2+
254.1168	2	C16H16NO2+
254.1533	1	C17H20NO+
256.1334	3	C16H18NO2+
257.1166	5	C16H17O3+
257.1404	1	C16H19NO2+
265.1224	11	C18H17O2+
266.1175	25	C17H16NO2+
267.1254	50	C17H17NO2+
268.1339	1	C17H18NO2+
269.1171	17	C17H17O3+
272.1281	2	C16H18NO3+
272.1648	2	C17H22NO2+
280.133	3	C18H18NO2+
282.1488	300	C18H20NO2+
285.1355	6	C17H19NO3+
