Mass spectrum: CGA62826 (2-[2,6-dimethylphenyl)-methoxyacetylamino]propionic acid; LC-ESI-QFT; MS2; CE: 45; R=35000; [M-H]-
Name: CGA62826 (2-[2,6-dimethylphenyl)-methoxyacetylamino]propionic acid
Name: N-(2,6-Dimethylphenyl)-N-(methoxyacetyl)-L-alanine
Name: (2S)-2-(N-(2-methoxyacetyl)-2,6-dimethylanilino)propanoic acid
Formula: C14H19NO4
Exact mass: 265.13141
SMILES: Cc1cccc(c1N([C@@H](C)C(=O)O)C(=O)COC)C
InChI: InChI=1S/C14H19NO4/c1-9-6-5-7-10(2)13(9)15(11(3)14(17)18)12(16)8-19-4/h5-7,11H,8H2,1-4H3,(H,17,18)/t11-/m0/s1
Instrument: Q Exactive Plus Orbitrap Thermo Scientific
Instrument type: LC-ESI-QFT
Ms type: MS2
Ion mode: NEGATIVE
Ionization: ESI
Fragmentation mode: HCD
Collision energy: 45 (nominal)
Resolution: 35000
Column name: XBridge C18 3.5um, 2.1x50mm, Waters
Retention time: 7.8 min
Base peak: 264.1239
Precursor m/z: 264.1241
Precursor type: [M-H]-
m/z	relative intensity	assigned
55.0189	1	C3H3O-
57.0346	23	C3H5O-
58.0061	11	C2H2O2-
66.0349	10	C4H4N-
69.0346	2	C4H5O-
71.0139	23	C3H3O2-
72.0218	4	C3H4O2-
73.0297	6	C3H5O2-
84.0217	1	C4H4O2-
85.0295	693	C4H5O2-
87.0452	14	C4H7O2-
88.0404	45	C3H6NO2-
89.0245	247	C3H5O3-
101.0607	2	C5H9O2-
105.071	3	C8H9-
110.0248	29	C5H4NO2-
117.0707	1	C9H9-
120.0819	93	C8H10N-
121.066	401	C8H9O-
130.0662	496	C9H8N-
132.0819	50	C9H10N-
142.0511	1	C6H8NO3-
142.0663	10	C10H8N-
143.074	3	C10H9N-
144.0819	252	C10H10N-
146.0612	48	C9H8NO-
146.0976	352	C10H12N-
148.1133	321	C10H14N-
156.0821	3	C11H10N-
158.0612	26	C10H8NO-
158.0974	1	C11H12N-
159.069	4	C10H9NO-
160.0768	1	C10H10NO-
170.0976	14	C12H12N-
172.0768	8	C11H10NO-
174.0924	164	C11H12NO-
176.0717	36	C10H10NO2-
176.108	1	C11H14NO-
177.0793	5	C10H11NO2-
188.1083	6	C12H14NO-
191.0958	1	C11H13NO2-
192.1032	999	C11H14NO2-
204.103	125	C12H14NO2-
205.1109	50	C12H15NO2-
214.087	1	C13H12NO2-
220.1343	41	C13H18NO2-
231.0899	5	C13H13NO3-
237.1002	7	C12H15NO4-
