Mass spectrum: 1H-Benzotriazole-5-carboxylic acid; LC-ESI-QFT; MS2; CE: 75; R=35000; [M+H]+
Name: 1H-Benzotriazole-5-carboxylic acid
Name: 1H-benzotriazole-5-carboxylic acid
Name: 2H-benzotriazole-5-carboxylic acid
Formula: C7H5N3O2
Exact mass: 163.03818
SMILES: c1cc2c(cc1C(=O)O)nn[nH]2
InChI: InChI=1S/C7H5N3O2/c11-7(12)4-1-2-5-6(3-4)9-10-8-5/h1-3H,(H,11,12)(H,8,9,10)
Instrument: Q Exactive Plus Orbitrap Thermo Scientific
Instrument type: LC-ESI-QFT
Ms type: MS2
Ion mode: POSITIVE
Ionization: ESI
Fragmentation mode: HCD
Collision energy: 75 (nominal)
Resolution: 35000
Column name: XBridge C18 3.5um, 2.1x50mm, Waters
Retention time: 3.7 min
Base peak: 164.0453
Precursor m/z: 164.0455
Precursor type: [M+H]+
m/z	relative intensity	assigned
50.0151	3	C4H2+
51.0229	3	C4H3+
52.0181	6	C3H2N+
53.0386	125	C4H5+
54.0338	11	C3H4N+
55.0178	4	C3H3O+
57.0335	1	C3H5O+
62.015	1	C5H2+
63.0229	114	C5H3+
64.0182	2	C4H2N+
65.0386	522	C5H5+
66.0338	4	C4H4N+
67.0178	7	C4H3O+
68.0131	49	C3H2NO+
68.0495	7	C4H6N+
78.0338	18	C5H4N+
79.0417	3	C5H5N+
80.0494	922	C5H6N+
81.0335	101	C5H5O+
90.0339	280	C6H4N+
91.0415	4	C6H5N+
92.0495	75	C6H6N+
93.0334	2	C6H5O+
94.0288	1	C5H4NO+
96.0443	14	C5H6NO+
106.0288	74	C6H4NO+
107.0366	14	C6H5NO+
108.0444	655	C6H6NO+
109.0284	6	C6H5O2+
118.0287	73	C7H4NO+
118.0399	143	C6H4N3+
119.0128	4	C7H3O2+
119.0477	8	C6H5N3+
120.0556	39	C6H6N3+
124.0393	52	C6H6NO2+
134.0238	2	C7H4NO2+
136.0393	56	C7H6NO2+
136.0503	6	C6H6N3O+
146.0349	14	C7H4N3O+
146.0458	3	C6H4N5+
151.0378	2	C6H5N3O2+
164.0454	999	C7H6N3O2+
