Mass spectrum: CGA62826 (2-[2,6-dimethylphenyl)-methoxyacetylamino]propionic acid; LC-ESI-QFT; MS2; CE: 180; R=35000; [M-H]-
Name: CGA62826 (2-[2,6-dimethylphenyl)-methoxyacetylamino]propionic acid
Name: N-(2,6-Dimethylphenyl)-N-(methoxyacetyl)-L-alanine
Name: (2S)-2-(N-(2-methoxyacetyl)-2,6-dimethylanilino)propanoic acid
Formula: C14H19NO4
Exact mass: 265.13141
SMILES: Cc1cccc(c1N([C@@H](C)C(=O)O)C(=O)COC)C
InChI: InChI=1S/C14H19NO4/c1-9-6-5-7-10(2)13(9)15(11(3)14(17)18)12(16)8-19-4/h5-7,11H,8H2,1-4H3,(H,17,18)/t11-/m0/s1
Instrument: Q Exactive Plus Orbitrap Thermo Scientific
Instrument type: LC-ESI-QFT
Ms type: MS2
Ion mode: NEGATIVE
Ionization: ESI
Fragmentation mode: HCD
Collision energy: 180 (nominal)
Resolution: 35000
Column name: XBridge C18 3.5um, 2.1x50mm, Waters
Retention time: 7.8 min
Base peak: 264.1239
Precursor m/z: 264.1241
Precursor type: [M-H]-
m/z	relative intensity	assigned
55.0189	298	C3H3O-
57.0345	16	C3H5O-
114.035	999	C8H4N-
115.0429	69	C8H5N-
116.0509	18	C8H6N-
128.0505	56	C9H6N-
129.0584	116	C9H7N-
130.0663	278	C9H8N-
131.0374	27	C8H5NO-
