Mass spectrum: Tributylphosphine oxide; LC-ESI-QFT; MS2; CE: 180; R=35000; [M+H]+
Name: Tributylphosphine oxide
Name: Tri-n-butylphosphine oxide
Formula: C12H27OP
Exact mass: 218.17995
SMILES: CCCCP(=O)(CCCC)CCCC
InChI: InChI=1S/C12H27OP/c1-4-7-10-14(13,11-8-5-2)12-9-6-3/h4-12H2,1-3H3
Instrument: Q Exactive Plus Orbitrap Thermo Scientific
Instrument type: LC-ESI-QFT
Ms type: MS2
Ion mode: POSITIVE
Ionization: ESI
Fragmentation mode: HCD
Collision energy: 180 (nominal)
Resolution: 35000
Column name: XBridge C18 3.5um, 2.1x50mm, Waters
Retention time: 11.0 min
Base peak: 219.1869
Precursor m/z: 219.1872
Precursor type: [M+H]+
m/z	relative intensity	assigned
53.0022	13	C3HO+
53.9974	3	C2NO+
55.0543	5	C4H7+
56.9889	49	C2H2P+
59.0045	19	C2H4P+
61.0202	4	C2H6P+
61.9916	1	CH3OP+
62.9631	87	
62.9994	999	CH4OP+
64.0073	37	CH5OP+
64.9786	5	H2O2P+
65.0151	4	CH6OP+
67.9892	1	C3O2+
71.0045	2	C3H4P+
72.0124	2	C3H5P+
73.0202	1	C3H6P+
74.9994	13	C2H4OP+
77.015	98	C2H6OP+
78.0229	27	C2H7OP+
78.9942	6	CH4O2P+
81.01	8	CH6O2P+
91.0308	7	C3H8OP+
92.0387	3	C3H9OP+
93.0101	6	C2H6O2P+
95.0257	113	C2H8O2P+
105.0465	1	C4H10OP+
