Mass spectrum: 4-Nitro-1,2-phenylenediamine; LC-ESI-QFT; MS2; CE: 45%; R=15000; [M+H]+
Name: 4-Nitro-1,2-phenylenediamine
Name: 4-Nitro-o-phenylenediamine
Name: 4-nitrobenzene-1,2-diamine
Formula: C6H7N3O2
Exact mass: 153.0538265
SMILES: NC1=C(N)C=C(C=C1)[N+]([O-])=O
InChI: InChI=1S/C6H7N3O2/c7-5-2-1-4(9(10)11)3-6(5)8/h1-3H,7-8H2
Instrument: Exploris 240 Thermo Scientific
Instrument type: LC-ESI-QFT
Ms type: MS2
Ion mode: POSITIVE
Ionization: ESI
Fragmentation mode: HCD
Collision energy: 45 % (nominal)
Resolution: 15000
Column name: XBridge C18 3.5um, 2.1x50mm, Waters
Retention time: 2.575 min
Base peak: 154.061
Precursor m/z: 154.0611
Precursor type: [M+H]+
m/z	relative intensity	assigned
107.0603	62	C6H7N2+
108.0681	425	C6H8N2+
137.0582	999	C6H7N3O+
154.061	189	C6H8N3O2+
