Mass spectrum: Mepanipyrim; LC-ESI-QFT; MS2; CE: 90; R=35000; [M+H]+
Name: Mepanipyrim
Name: (4-methyl-6-prop-1-ynyl-pyrimidin-2-yl)-phenyl-amine
Formula: C14H13N3
Exact mass: 223.11095
SMILES: n1c(C#CC)cc(nc1Nc2ccccc2)C
InChI: InChI=1S/C14H13N3/c1-3-7-13-10-11(2)15-14(17-13)16-12-8-5-4-6-9-12/h4-6,8-10H,1-2H3,(H,15,16,17)
Instrument: Q Exactive Orbitrap Thermo Scientific
Instrument type: LC-ESI-QFT
Ms type: MS2
Ion mode: POSITIVE
Ionization: ESI
Fragmentation mode: HCD
Collision energy: 90 (nominal)
Resolution: 35000
Column name: XBridge C18 3.5um, 2.1x50mm, Waters
Retention time: 11.1 min
Base peak: 224.1188
Precursor m/z: 224.1182
Precursor type: [M+H]+
m/z	relative intensity	assigned
51.0231	6	C4H3+
53.0388	28	C4H5+
63.0231	109	C5H3+
65.0387	190	C5H5+
66.034	326	C4H4N+
66.0466	19	
67.0292	172	C3H3N2+
67.0417	34	C4H5N+
67.0543	48	C5H7+
68.0496	16	C4H6N+
70.0653	2	C4H8N+
77.0387	199	C6H5+
78.034	23	C5H4N+
78.0466	39	C6H6+
79.0544	524	C6H7+
80.0496	194	C5H6N+
81.0336	11	C5H5O+
81.0575	22	C5H7N+
82.0653	25	C5H8N+
89.0387	41	C7H5+
90.034	175	C6H4N+
91.0293	13	C5H3N2+
91.0419	30	C6H5N+
91.0544	58	C7H7+
92.0496	92	C6H6N+
93.0575	124	C6H7N+
94.0653	258	C6H8N+
95.0493	865	C6H7O+
96.0446	71	C5H6NO+
103.0419	13	C7H5N+
103.0546	4	C8H7+
104.0497	485	C7H6N+
105.045	234	C6H5N2+
105.0575	22	C7H7N+
106.0654	999	C7H8N+
107.0606	70	C6H7N2+
107.0733	27	C7H9N+
114.034	3	C8H4N+
115.0544	146	C9H7+
116.0496	61	C8H6N+
117.0574	32	C8H7N+
118.0527	20	C7H6N2+
118.0653	85	C8H8N+
119.0606	224	C7H7N2+
120.0447	18	C7H6NO+
120.0686	11	
121.0763	141	C7H9N2+
122.0602	35	C7H8NO+
124.0759	5	C7H10NO+
128.0497	18	C9H6N+
128.0621	12	
129.0449	16	C8H5N2+
129.0702	22	C10H9+
130.0403	20	C7H4N3+
130.053	4	C8H6N2+
130.0655	22	C9H8N+
131.0607	179	C8H7N2+
132.0685	60	C8H8N2+
139.0544	34	C11H7+
139.0869	24	C7H11N2O+
140.0497	123	C10H6N+
141.0576	15	C10H7N+
142.0655	134	C10H8N+
143.0607	206	C9H7N2+
143.0732	20	C10H9N+
146.0607	4	C9H8NO+
146.0716	21	C8H8N3+
147.0795	57	C8H9N3+
148.0873	3	C8H10N3+
149.0712	5	C8H9N2O+
152.0623	37	C12H8+
153.0702	26	C12H9+
154.0658	23	C11H8N+
155.0606	14	C10H7N2+
155.0732	16	C11H9N+
156.0686	17	C10H8N2+
156.0813	24	C11H10N+
157.0764	21	C10H9N2+
158.0844	8	C10H10N2+
159.0922	15	C10H11N2+
160.0762	25	C10H10NO+
165.0578	11	C12H7N+
166.0655	48	C12H8N+
167.0612	22	C11H7N2+
167.0732	53	C12H9N+
168.0685	169	C11H8N2+
169.064	12	C10H7N3+
169.0764	15	C11H9N2+
170.0845	4	C11H10N2+
170.097	3	C12H12N+
178.0655	18	C13H8N+
179.0608	10	C12H7N2+
179.0733	47	C13H9N+
180.0811	117	C13H10N+
181.0764	166	C12H9N2+
181.0892	17	C13H11N+
182.0843	206	C12H10N2+
183.0684	12	
183.0797	41	C11H9N3+
183.0921	81	C12H11N2+
184.0874	47	C11H10N3+
185.0717	5	C11H9N2O+
190.0656	19	C14H8N+
191.0608	11	
191.0737	5	C14H9N+
192.0686	130	C13H8N2+
193.0762	11	C13H9N2+
194.0842	6	C13H10N2+
195.0921	52	C13H11N2+
196.0753	3	C13H10NO+
196.0873	5	C12H10N3+
196.1001	22	C13H12N2+
197.0951	3	C12H11N3+
197.1077	12	C13H13N2+
205.0765	292	C14H9N2+
206.0843	316	C14H10N2+
207.0799	26	
207.0922	104	C14H11N2+
208.0874	169	C13H10N3+
208.0992	16	C14H12N2+
209.0953	147	C13H11N3+
221.0954	30	
222.1031	141	C14H12N3+
223.111	37	C14H13N3+
224.1187	156	C14H14N3+
