Mass spectrum: Pantoprazole; LC-ESI-ITFT; MS2; CE: 35%; R=30000; [M+H]+
Name: Pantoprazole
Name: 6-(difluoromethoxy)-2-[(3,4-dimethoxy-2-pyridinyl)methylsulfinyl]-1H-benzimidazole
Formula: C16H15F2N3O4S
Exact mass: 383.0751
SMILES: COC1=C(C(=NC=C1)CS(=O)C2=NC3=C(N2)C=C(C=C3)OC(F)F)OC
InChI: InChI=1S/C16H15F2N3O4S/c1-23-13-5-6-19-12(14(13)24-2)8-26(22)16-20-10-4-3-9(25-15(17)18)7-11(10)21-16/h3-7,15H,8H2,1-2H3,(H,20,21)
Instrument: LTQ Orbitrap XL Thermo Scientific
Instrument type: LC-ESI-ITFT
Ms type: MS2
Ion mode: POSITIVE
Ionization: ESI
Fragmentation mode: CID
Collision energy: 35 % (nominal)
Resolution: 30000
Column name: XBridge C18 3.5um, 2.1x50mm, Waters
Retention time: 6.6 min
Base peak: 384.0836
Precursor m/z: 384.0824
Precursor type: [M+H]+
m/z	relative intensity	assigned
136.0389	1	C7H6NO2+
138.0548	13	C7H8NO2+
139.0084	1	C6H5NOS+
153.0783	3	C8H11NO2+
167.0035	2	C7H5NO2S+
168.0653	10	C6H12F2NS+
170.0809	3	C6H14F2NS+
172.9848	1	C5HF2N3S+
182.0268	3	C8H8NO2S+
200.0376	999	C8H10NO3S+
366.0708	2	C16H14F2N3O3S+
