Mass spectrum: Azinphos-ethyl; LC-ESI-QFT; MS2; CE: 45; R=35000; [M+H]+
Name: Azinphos-ethyl
Name: Azinphos ethyl
Name: 3-(diethoxyphosphinothioylsulfanylmethyl)-1,2,3-benzotriazin-4-one
Formula: C12H16N3O3PS2
Exact mass: 345.03707
SMILES: CCOP(=S)(OCC)SCN1C(=O)C2=CC=CC=C2N=N1
InChI: InChI=1S/C12H16N3O3PS2/c1-3-17-19(20,18-4-2)21-9-15-12(16)10-7-5-6-8-11(10)13-14-15/h5-8H,3-4,9H2,1-2H3
Instrument: Q Exactive Plus Orbitrap Thermo Scientific
Instrument type: LC-ESI-QFT
Ms type: MS2
Ion mode: POSITIVE
Ionization: ESI
Fragmentation mode: HCD
Collision energy: 45 (nominal)
Resolution: 35000
Column name: XBridge C18 3.5um, 2.1x50mm, Waters
Retention time: 11.4 min
Base peak: 346.0438
Precursor m/z: 346.0443
Precursor type: [M+H]+
m/z	relative intensity	assigned
50.0151	1	C4H2+
51.023	10	C4H3+
53.0386	48	C4H5+
55.0179	2	C3H3O+
64.9786	8	H2O2P+
67.0543	1	C5H7+
75.0263	1	C3H7S+
77.0386	51	C6H5+
78.0338	1	C5H4N+
80.9736	1	H2O3P+
81.0335	4	C5H5O+
94.0414	1	C6H6O+
95.0492	187	C6H7O+
96.0444	2	C5H6NO+
96.9509	116	H2O2PS+
98.9842	14	H4O4P+
104.0495	297	C7H6N+
105.0336	284	C7H5O+
105.0448	115	C6H5N2+
109.005	1	C2H6O3P+
109.0107	23	C6H5S+
114.9614	999	H4O3PS+
120.0445	11	C7H6NO+
121.0284	1	C7H5O2+
121.0649	5	C4H12NOP+
123.0264	4	C7H7S+
124.9822	20	C2H6O2PS+
126.9437	11	CH4OPS2+
128.977	17	CH6O3PS+
130.0401	33	C7H4N3+
132.0445	385	C8H6NO+
132.9721	5	H6O4PS+
135.9981	1	C3H7NOPS+
136.0217	14	C3H9N2PS+
137.0057	717	C3H8NOPS+
142.9386	310	CH4O2PS2+
148.0217	28	C8H6NS+
150.0551	49	C4H11N2O2P+
152.9829	21	C3H8NPS2+
153.0007	43	C3H8NO2PS+
154.9715	1	C6H4OPS+
164.0705	2	C9H10NO2+
168.9777	16	C7H5OS2+
170.9489	14	C6H4PS2+
170.97	7	C3H8O2PS2+
171.0237	4	C4H12O3PS+
172.9823	19	C6H6O2PS+
182.0095	2	C4H11N2PS2+
214.9387	29	C7H4O2PS2+
216.9719	17	C7H6O4PS+
232.9493	41	C7H6O3PS2+
