Mass spectrum: Isoxathion; LC-ESI-QFT; MS2; CE: 45%; R=17500; [M+H]+
Name: Isoxathion
Name: diethoxy-[(5-phenyl-1,2-oxazol-3-yl)oxy]-sulfanylidene-lambda5-phosphane
Formula: C13H16NO4PS
Exact mass: 313.0538
SMILES: CCOP(=S)(OCC)OC1=NOC(=C1)C2=CC=CC=C2
InChI: InChI=1S/C13H16NO4PS/c1-3-15-19(20,16-4-2)18-13-10-12(17-14-13)11-8-6-5-7-9-11/h5-10H,3-4H2,1-2H3
Instrument: Exploris 240 Orbitrap Thermo Scientific
Instrument type: LC-ESI-QFT
Ms type: MS2
Ion mode: POSITIVE
Ionization: ESI
Fragmentation mode: HCD
Collision energy: 45 % (nominal)
Resolution: 17500
Column name: XBridge C18 3.5um, 2.1x50mm, Waters
Retention time: 11.540 min
Base peak: 398.0878
Precursor m/z: 314.061
Precursor type: [M+H]+
m/z	relative intensity	assigned
61.0106	24	C2H5S+
64.9788	59	H2O2P+
77.0388	15	C2H8NP+
91.0541	16	C7H7+
93.01	118	C2H6O2P+
96.9508	290	H2O2PS+
98.9666	13	H4O2PS+
98.9843	30	H4O4P+
105.0335	999	C7H5O+
110.9662	9	CH4O2PS+
112.9457	124	H2O3PS+
113.9536	342	H3O3PS+
114.9613	221	H4O3PS+
116.0494	18	C8H6N+
124.9821	92	C2H6O2PS+
125.99	84	C2H7O2PS+
130.9564	79	H4O4PS+
140.9769	39	C2H6O3PS+
141.9847	122	C2H7O3PS+
142.9927	73	C2H8O3PS+
160.0215	17	C9H6NS+
162.0552	186	C9H8NO2+
170.016	43	C4H11O3PS+
178.0323	57	C9H8NOS+
216.9719	14	C7H6O4PS+
