Mass spectrum: Epoxiconazole; LC-ESI-ITFT; MS2; CE: 75%; R=7500; [M+H]+
Name: Epoxiconazole
Name: 1-[[(2S,3R)-3-(2-chlorophenyl)-2-(4-fluorophenyl)-2-oxiranyl]methyl]-1,2,4-triazole
Formula: C17H13ClFN3O
Exact mass: 329.0726
SMILES: C1=CC=C(C(=C1)C2C(O2)(CN3C=NC=N3)C4=CC=C(C=C4)F)Cl
InChI: InChI=1S/C17H13ClFN3O/c18-15-4-2-1-3-14(15)16-17(23-16,9-22-11-20-10-21-22)12-5-7-13(19)8-6-12/h1-8,10-11,16H,9H2/t16-,17-/m1/s1
Instrument: LTQ Orbitrap XL Thermo Scientific
Instrument type: LC-ESI-ITFT
Ms type: MS2
Ion mode: POSITIVE
Ionization: ESI
Fragmentation mode: HCD
Collision energy: 75 % (nominal)
Resolution: 7500
Column name: XBridge C18 3.5um, 2.1x50mm, Waters
Retention time: 11.7 min
Base peak: 330.0812
Precursor m/z: 330.0804
Precursor type: [M+H]+
m/z	relative intensity	assigned
70.04	101	C2H4N3+
71.0292	3	C4H4F+
75.0231	9	C6H3+
77.0385	30	C6H5+
91.0543	11	C7H7+
95.029	6	C6H4F+
101.0386	34	C3H4FN3+
105.0448	4	C6H5N2+
109.0444	6	C7H6F+
113.0153	18	C6H6Cl+
113.04	9	C6H6FO+
119.0492	9	C8H7O+
121.0449	999	C8H6F+
123.0241	190	C7H4FO+
123.0353	108	C6H4FN2+
129.0448	411	C8H5N2+
138.9944	12	C7H4ClO+
139.0057	8	C6H4ClN2+
141.0104	18	C7H6ClO+
183.0603	3	C13H8F+
196.0687	5	C14H9F+
