Mass spectrum: Ethiofencarb; LC-ESI-QFT; MS2; CE: 90%; R=17500; [M+H]+
Name: Ethiofencarb
Name: [2-(ethylsulfanylmethyl)phenyl] N-methylcarbamate
Formula: C11H15NO2S
Exact mass: 225.0823
SMILES: CCSCC1=CC=CC=C1OC(=O)NC
InChI: InChI=1S/C11H15NO2S/c1-3-15-8-9-6-4-5-7-10(9)14-11(13)12-2/h4-7H,3,8H2,1-2H3,(H,12,13)
Instrument: Exploris 240 Orbitrap Thermo Scientific
Instrument type: LC-ESI-QFT
Ms type: MS2
Ion mode: POSITIVE
Ionization: ESI
Fragmentation mode: HCD
Collision energy: 90 % (nominal)
Resolution: 17500
Column name: XBridge C18 3.5um, 2.1x50mm, Waters
Retention time: 6.393 min
Base peak: 107.049
Precursor m/z: 226.0896
Precursor type: [M+H]+
m/z	relative intensity	assigned
51.023	10	C4H3+
53.0386	52	C4H5+
58.0288	19	C2H4NO+
77.0386	236	C6H5+
79.0542	425	C6H7+
81.0334	4	C5H5O+
94.0411	7	C6H6O+
95.0492	61	C6H7O+
107.0491	999	C7H7O+
