Mass spectrum: Molinate; LC-ESI-QFT; MS2; CE: 15; R=35000; [M+H]+
Name: Molinate
Name: S-ethyl azepane-1-carbothioate
Formula: C9H17NOS
Exact mass: 187.10309
SMILES: CCSC(=O)N1CCCCCC1
InChI: InChI=1S/C9H17NOS/c1-2-12-9(11)10-7-5-3-4-6-8-10/h2-8H2,1H3
Instrument: Q Exactive Plus Orbitrap Thermo Scientific
Instrument type: LC-ESI-QFT
Ms type: MS2
Ion mode: POSITIVE
Ionization: ESI
Fragmentation mode: HCD
Collision energy: 15 (nominal)
Resolution: 35000
Column name: XBridge C18 3.5um, 2.1x50mm, Waters
Retention time: 10.5 min
Base peak: 188.11
Precursor m/z: 188.1104
Precursor type: [M+H]+
m/z	relative intensity	assigned
55.0541	27	C4H7+
56.013	2	C2H2NO+
70.0651	11	C4H8N+
81.0699	4	C6H9+
83.0855	59	C6H11+
84.0808	3	C5H10N+
89.0054	4	C3H5OS+
97.0649	1	C6H9O+
98.0964	55	C6H12N+
126.0913	999	C7H12NO+
128.1434	1	C8H18N+
160.1155	16	C8H18NS+
188.1103	850	C9H18NOS+
