Mass spectrum: Theophyline; LC-ESI-QFT; MS2; CE: 30; R=35000; [M-H]-
Name: Theophyline
Name: Theophylline
Name: 1,3-dimethyl-7H-purine-2,6-dione
Formula: C7H8N4O2
Exact mass: 180.06473
SMILES: CN1C2=C(C(=O)N(C1=O)C)NC=N2
InChI: InChI=1S/C7H8N4O2/c1-10-5-4(8-3-9-5)6(12)11(2)7(10)13/h3H,1-2H3,(H,8,9)
Instrument: Q Exactive Plus Orbitrap Thermo Scientific
Instrument type: LC-ESI-QFT
Ms type: MS2
Ion mode: NEGATIVE
Ionization: ESI
Fragmentation mode: HCD
Collision energy: 30 (nominal)
Resolution: 35000
Column name: XBridge C18 3.5um, 2.1x50mm, Waters
Retention time: 3.1 min
Base peak: 179.0573
Precursor m/z: 179.0574
Precursor type: [M-H]-
m/z	relative intensity	assigned
122.0361	10	C5H4N3O-
140.0467	1	C5H6N3O2-
164.0341	42	C6H4N4O2-
179.0575	999	C7H7N4O2-
