Mass spectrum: Uvinul-LR; LC-ESI-QFT; MS2; CE: 120%; R=17500; [M-H]-
Name: Uvinul-LR
Name: 2-ethoxyethyl 2-cyano-2-[3-(3-methoxypropylamino)cyclohex-2-en-1-ylidene]acetate
Formula: C17H26N2O4
Exact mass: 322.1893
SMILES: CCOCCOC(=O)C(=C1CCCC(=C1)NCCCOC)C#N
InChI: InChI=1S/C17H26N2O4/c1-3-22-10-11-23-17(20)16(13-18)14-6-4-7-15(12-14)19-8-5-9-21-2/h12,19H,3-11H2,1-2H3
Instrument: Exploris 240 Orbitrap Thermo Scientific
Instrument type: LC-ESI-QFT
Ms type: MS2
Ion mode: NEGATIVE
Ionization: ESI
Fragmentation mode: HCD
Collision energy: 120 % (nominal)
Resolution: 17500
Column name: XBridge C18 3.5um, 2.1x50mm, Waters
Retention time: 6.732 min
Base peak: 321.1817
Precursor m/z: 321.182
Precursor type: [M-H]-
m/z	relative intensity	assigned
50.0036	107	C3N-
59.0137	160	C2H3O2-
63.0115	104	C4HN-
64.0194	123	C4H2N-
65.9985	999	C3NO-
76.0194	59	C5H2N-
89.0144	924	C5HN2-
90.035	97	C6H4N-
92.0505	193	C6H6N-
104.038	67	C6H4N2-
104.0506	35	C7H6N-
105.0458	54	C6H5N2-
117.0457	532	C7H5N2-
118.0537	104	C7H6N2-
131.0619	55	C8H7N2-
