Mass spectrum: Fenthion-sulfone; LC-ESI-QFT; MS2; CE: 60; R=35000; [M+H]+
Name: Fenthion-sulfone
Name: Fenthione sulphone
Name: O,O-Dimethyl O-[3-methyl-4-(methylsulfonyl)phenyl] phosphorothioate
Formula: C10H15O5PS2
Exact mass: 310.00985
SMILES: CC1=C(C=CC(=C1)OP(=S)(OC)OC)S(=O)(=O)C
InChI: InChI=1S/C10H15O5PS2/c1-8-7-9(15-16(17,13-2)14-3)5-6-10(8)18(4,11)12/h5-7H,1-4H3
Instrument: Q Exactive Plus Orbitrap Thermo Scientific
Instrument type: LC-ESI-QFT
Ms type: MS2
Ion mode: POSITIVE
Ionization: ESI
Fragmentation mode: HCD
Collision energy: 60 (nominal)
Resolution: 35000
Column name: XBridge C18 3.5um, 2.1x50mm, Waters
Retention time: 7.8 min
Base peak: 311.0163
Precursor m/z: 311.0171
Precursor type: [M+H]+
m/z	relative intensity	assigned
51.0228	1	C4H3+
53.0385	5	C4H5+
55.0178	1	C3H3O+
58.995	4	C2H3S+
59.9664	3	COS+
61.0107	1	C2H5S+
62.0184	53	C2H6S+
62.9452	7	PS+
62.9899	7	CH3OS+
65.0385	71	C5H5+
66.0464	10	C5H6+
67.0542	24	C5H7+
70.9949	1	C3H3S+
74.9897	1	C2H3OS+
77.0385	16	C6H5+
78.0134	8	C2H6OS+
78.0463	43	C6H6+
78.9943	563	CH4O2P+
79.0542	56	C6H7+
81.0099	1	CH6O2P+
81.0334	1	C5H5O+
84.0029	1	C4H4S+
85.0106	4	C4H5S+
89.0386	3	C7H5+
90.0464	4	C7H6+
91.0542	107	C7H7+
92.062	32	C7H8+
93.01	16	C2H6O2P+
93.0335	33	C6H5O+
93.0698	21	C7H9+
94.0413	43	C6H6O+
94.962	3	CH3OS2+
94.9715	2	CH4OPS+
95.0491	33	C6H7O+
97.0049	11	CH6O3P+
97.0106	16	C5H5S+
98.0183	5	C5H6S+
99.0263	5	C5H7S+
103.0542	28	C8H7+
104.062	89	C8H8+
105.0335	18	C7H5O+
105.0448	11	C6H5N2+
105.0699	206	C8H9+
106.0413	9	C7H6O+
107.0491	35	C7H7O+
108.0026	2	C6H4S+
108.0567	6	C7H8O+
109.0049	26	C2H6O3P+
109.0106	20	C6H5S+
109.0647	8	C7H9O+
110.0184	11	C6H6S+
110.9664	4	CH4O2PS+
111.0263	39	C6H7S+
112.9998	1	CH6O4P+
119.0491	6	C8H7O+
119.0603	4	C7H7N2+
120.0568	5	C8H8O+
121.0106	31	C7H5S+
121.0284	11	C7H5O2+
121.0648	45	C8H9O+
122.0185	38	C7H6S+
122.0362	26	C7H6O2+
122.0726	16	C8H10O+
123.0263	101	C7H7S+
123.0439	23	C7H7O2+
124.0341	23	C7H8S+
124.9821	550	C2H6O2PS+
126.0133	9	C6H6OS+
127.0154	999	C2H8O4P+
128.9768	1	CH6O3PS+
135.0262	24	C8H7S+
135.9978	6	C7H4OS+
136.0341	34	C8H8S+
137.0055	17	C7H5OS+
137.0419	125	C8H9S+
138.0133	24	C7H6OS+
138.0497	25	C8H10S+
139.0212	464	C7H7OS+
139.9844	7	C6H5PS+
141.031	5	C3H10O4P+
141.0368	4	C7H9OS+
142.9926	689	C2H8O3PS+
151.0212	2	C8H7OS+
151.9842	6	C7H5PS+
152.0289	5	C8H8OS+
152.9827	6	C7H5S2+
152.9923	3	C7H6PS+
153.01	3	C7H6O2P+
153.0368	4	C8H9OS+
154.0082	10	C7H6O2S+
154.0449	3	C8H10OS+
154.9716	8	C6H4OPS+
155.0162	3	C7H7O2S+
155.0256	4	C7H8O2P+
157.0083	24	C3H10O3PS+
165.9904	2	C8H6S2+
166.9985	1	C8H7S2+
167.0255	4	C8H8O2P+
167.9793	121	C7H5OPS+
168.9871	222	C7H6OPS+
169.9949	126	C7H7OPS+
170.9933	1	C7H7OS2+
173.0361	8	C7H10O3P+
181.995	6	C8H7OPS+
182.9664	19	C7H4O2PS+
183.9742	11	C7H5O2PS+
184.982	10	C7H6O2PS+
185.0267	12	C8H9O3S+
185.0363	7	C8H10O3P+
185.9898	9	C7H7O2PS+
186.9976	15	C7H8O2PS+
187.0422	5	C8H11O3S+
187.0513	1	C8H12O3P+
197.0378	20	C8H9N2O2S+
198.9436	5	C7H4OPS2+
199.0517	10	C9H12O3P+
200.0055	145	C8H9O2PS+
200.9771	5	C7H6O3PS+
201.0037	17	C8H9O2S2+
201.0133	17	C8H10O2PS+
201.058	6	C9H13O3S+
202.9925	17	C7H8O3PS+
214.9927	1	C8H8O3PS+
216.0006	8	C8H9O3PS+
216.0274	16	C9H12O2S2+
216.9542	6	C7H6O2PS2+
217.0079	4	C8H10O3PS+
217.0352	24	C9H13O2S2+
217.0626	1	C9H14O4P+
218.0165	1	C8H11O3PS+
219.024	21	C8H12O3PS+
230.97	5	C8H8O2PS2+
231.0238	3	C9H12O3PS+
232.0313	2	C9H13O3PS+
233.0396	4	C9H14O3PS+
246.9647	99	C8H8O3PS2+
247.0188	8	C9H12O4PS+
248.9804	1	C8H10O3PS2+
264.9749	10	C8H10O4PS2+
278.991	18	C9H12O4PS2+
297.0009	4	C9H14O5PS2+
