Mass spectrum: Quinmerac; LC-ESI-QFT; MS2; CE: 30; R=35000; [M+H]+
Name: Quinmerac
Name: 7-chloro-3-methyl-quinoline-8-carboxylic acid
Name: 7-chloro-3-methylquinoline-8-carboxylic acid
Formula: C11H8ClNO2
Exact mass: 221.02436
SMILES: CC1=CN=C2C(=C1)C=CC(=C2C(=O)O)Cl
InChI: InChI=1S/C11H8ClNO2/c1-6-4-7-2-3-8(12)9(11(14)15)10(7)13-5-6/h2-5H,1H3,(H,14,15)
Instrument: Q Exactive Plus Orbitrap Thermo Scientific
Instrument type: LC-ESI-QFT
Ms type: MS2
Ion mode: POSITIVE
Ionization: ESI
Fragmentation mode: HCD
Collision energy: 30 (nominal)
Resolution: 35000
Column name: XBridge C18 3.5um, 2.1x50mm, Waters
Retention time: 5.2 min
Base peak: 222.0312
Precursor m/z: 222.0316
Precursor type: [M+H]+
m/z	relative intensity	assigned
140.0489	1	C10H6N+
204.021	999	C11H7ClNO+
222.0316	183	C11H9ClNO2+
