Mass spectrum: 2-(3-Hydroxycyclohexyl)-5-(2-methyl-2-octanyl)phenol; LC-ESI-QFT; MS2; CE: 180; R=35000; [M-H]-
Name: 2-(3-Hydroxycyclohexyl)-5-(2-methyl-2-octanyl)phenol
Name: CP47.497
Name: 2-(3-hydroxycyclohexyl)-5-(2-methyloctan-2-yl)phenol
Formula: C21H34O2
Exact mass: 318.25588
SMILES: CCCCCCC(C)(C)C1=CC(=C(C=C1)C2CCCC(C2)O)O
InChI: InChI=1S/C21H34O2/c1-4-5-6-7-13-21(2,3)17-11-12-19(20(23)15-17)16-9-8-10-18(22)14-16/h11-12,15-16,18,22-23H,4-10,13-14H2,1-3H3
Instrument: Q Exactive Plus Orbitrap Thermo Scientific
Instrument type: LC-ESI-QFT
Ms type: MS2
Ion mode: NEGATIVE
Ionization: ESI
Fragmentation mode: HCD
Collision energy: 180 (nominal)
Resolution: 35000
Column name: XBridge C18 3.5um, 2.1x50mm, Waters
Retention time: 17.0 min
Base peak: 363.2538
Precursor m/z: 317.2486
Precursor type: [M-H]-
m/z	relative intensity	assigned
57.0345	7	C3H5O-
65.0397	41	C5H5-
67.019	10	C4H3O-
69.0346	1	C4H5O-
79.0189	5	C5H3O-
89.0397	24	C7H5-
91.0553	19	C7H7-
93.0345	5	C6H5O-
108.0219	2	C6H4O2-
115.0553	48	C9H7-
117.0346	235	C8H5O-
119.0502	13	C8H7O-
121.0294	7	C7H5O2-
129.0707	1	C10H9-
130.0423	14	C9H6O-
131.0502	9	C9H7O-
131.0867	12	C10H11-
132.0218	5	C8H4O2-
133.0659	59	C9H9O-
134.0369	1	C8H6O2-
141.0346	165	C10H5O-
143.0502	999	C10H7O-
145.0659	10	C10H9O-
146.0737	7	C10H10O-
155.0505	5	C11H7O-
156.0581	9	C11H8O-
157.0659	55	C11H9O-
158.0736	1	C11H10O-
159.0816	122	C11H11O-
167.0502	22	C12H7O-
169.0661	13	C12H9O-
170.0739	2	C12H10O-
183.0817	18	C13H11O-
193.0655	17	C14H9O-
