Mass spectrum: Dexamethasone; LC-ESI-ITFT; MS2; CE: 60%; R=7500; [M+H]+
Name: Dexamethasone
Name: (8S,9R,10S,11S,13S,14S,16R,17R)-9-fluoranyl-10,13,16-trimethyl-11,17-bis(oxidanyl)-17-(2-oxidanylethanoyl)-6,7,8,11,12,14,15,16-octahydrocyclopenta[a]phenanthren-3-one
Formula: C22H29FO5
Exact mass: 392.1999
SMILES: [H][C@@]12C[C@@H](C)[C@](O)(C(=O)CO)[C@@]1(C)C[C@H](O)[C@@]3(F)[C@@]2([H])CCC4=CC(=O)C=C[C@]34C
InChI: InChI=1S/C22H29FO5/c1-12-8-16-15-5-4-13-9-14(25)6-7-19(13,2)21(15,23)17(26)10-20(16,3)22(12,28)18(27)11-24/h6-7,9,12,15-17,24,26,28H,4-5,8,10-11H2,1-3H3/t12-,15+,16+,17+,19+,20+,21+,22+/m1/s1
Instrument: LTQ Orbitrap XL Thermo Scientific
Instrument type: LC-ESI-ITFT
Ms type: MS2
Ion mode: POSITIVE
Ionization: ESI
Fragmentation mode: HCD
Collision energy: 60 % (nominal)
Resolution: 7500
Column name: XBridge C18 3.5um, 2.1x50mm, Waters
Retention time: 9.5 min
Base peak: 393.2068
Precursor m/z: 393.2072
Precursor type: [M+H]+
m/z	relative intensity	assigned
91.0541	104	C7H7+
93.07	156	C7H9+
95.0854	118	C7H11+
105.0699	236	C8H9+
107.0856	254	C8H11+
109.0647	25	C7H9O+
109.1012	102	C8H13+
117.0696	43	C9H9+
119.0854	251	C9H11+
121.0648	543	C8H9O+
121.1012	70	C9H13+
123.08	65	C8H11O+
125.0595	69	C7H9O2+
128.0616	50	C10H8+
129.0703	60	C10H9+
131.0855	217	C10H11+
133.0649	57	C9H9O+
133.1007	42	C10H13+
135.0806	243	C9H11O+
141.0696	43	C11H9+
143.0856	158	C11H11+
145.0648	191	C10H9O+
145.1013	105	C11H13+
147.0805	999	C10H11O+
149.0956	68	C10H13O+
155.085	64	C12H11+
158.072	79	C11H10O+
159.0803	310	C11H11O+
161.0963	165	C11H13O+
167.0855	39	C13H11+
171.0804	435	C12H11O+
173.0961	220	C12H13O+
179.0849	67	C14H11+
182.0733	44	C13H10O+
185.0954	129	C13H13O+
187.0748	59	C12H11O2+
187.1112	61	C13H15O+
193.1002	59	C15H13+
195.0804	70	C14H11O+
195.1178	51	C12H16FO+
196.0875	45	C14H12O+
197.0961	165	C14H13O+
204.0935	95	C16H12+
207.1167	59	C16H15+
208.0872	96	C15H12O+
209.0966	140	C15H13O+
209.1332	40	C16H17+
210.1041	104	C15H14O+
211.1113	111	C15H15O+
212.1195	55	C15H16O+
213.1266	54	C15H17O+
219.1177	100	C17H15+
221.0955	112	C16H13O+
222.1039	287	C16H14O+
223.1122	165	C16H15O+
224.1198	68	C16H16O+
225.1268	47	C16H17O+
234.1029	32	C17H14O+
235.1118	140	C17H15O+
237.1268	209	C17H17O+
239.144	40	C17H19O+
245.0969	42	C18H13O+
247.1121	62	C18H15O+
248.1177	70	C10H17FN2O4+
249.1278	113	C18H17O+
261.1273	91	C19H17O+
262.1343	72	C19H18O+
263.1431	214	C19H19O+
