Mass spectrum: MCLY; LC-ESI-QFT; MS2; CE: 120%; R=17500; [M-H]-
Name: MCLY
Name: Microcystin LY
Name: (5R,8S,11R,12S,15S,18S,19S,22R)-15-[(4-hydroxyphenyl)methyl]-18-[(1E,3E,5S,6S)-6-methoxy-3,5-dimethyl-7-phenylhepta-1,3-dienyl]-1,5,12,19-tetramethyl-2-methylidene-8-(2-methylpropyl)-3,6,9,13,16,20,25-heptaoxo-1,4,7,10,14,17,21-heptazacyclopentacosane-11,22-dicarboxylic acid
Class: NA
Formula: C52H71N7O13
Exact mass: 1001.5110
SMILES: COC(Cc1ccccc1)C(C)\C=C(C)\C=C/C2NC(=O)C(Cc3ccc(O)cc3)NC(=O)C(C)C(NC(=O)C(CC(C)C)NC(=O)C(C)NC(=O)C(=C)N(C)C(=O)CCC(NC(=O)C2C)C(O)=O)C(O)=O
InChI: InChI=1S/C52H71N7O13/c1-28(2)24-40-50(67)58-44(52(70)71)32(6)46(63)56-41(26-36-17-19-37(60)20-18-36)49(66)54-38(21-16-29(3)25-30(4)42(72-10)27-35-14-12-11-13-15-35)31(5)45(62)55-39(51(68)69)22-23-43(61)59(9)34(8)48(65)53-33(7)47(64)57-40/h11-21,25,28,30-33,38-42,44,60H,8,22-24,26-27H2,1-7,9-10H3,(H,53,65)(H,54,66)(H,55,62)(H,56,63)(H,57,64)(H,58,67)(H,68,69)(H,70,71)/b21-16-,29-25+
Instrument: Q Exactive Plus Orbitrap Thermo Scientific
Instrument type: LC-ESI-QFT
Ms type: MS2
Ion mode: NEGATIVE
Ionization: ESI
Fragmentation mode: HCD
Collision energy: 120 % (nominal)
Resolution: 17500
Column name: XBridge C18 3.5um, 2.1x50mm, Waters
Retention time: 10.715 min
Base peak: 190.9277
Precursor m/z: 1000.5037
Precursor type: [M-H]-
m/z	relative intensity	assigned
72.0453	162	C3H6NO-
74.0247	208	C2H4NO2-
82.0299	104	C4H4NO-
82.0662	161	C5H8N-
83.025	86	C3H3N2O-
84.0454	222	C4H6NO-
87.0564	151	C3H7N2O-
93.0345	297	C6H5O-
95.0251	175	C4H3N2O-
97.0407	79	C4H5N2O-
108.0213	108	C6H4O2-
108.033	122	C5H4N2O-
109.0167	185	C5H3NO2-
109.0408	636	C5H5N2O-
110.0249	658	C5H4NO2-
111.0197	148	C4H3N2O2-
117.0345	607	C8H5O-
119.0502	999	C8H7O-
123.0326	117	C6H5NO2-
125.0593	165	C5H7N3O-
127.0512	158	C5H7N2O2-
128.0353	198	C5H6NO3-
133.0531	102	C8H7NO-
144.0449	112	C9H6NO-
