Mass spectrum: Difenoconazole; LC-ESI-ITFT; MS2; CE: 60%; R=15000; [M+H]+
Name: Difenoconazole
Name: 1-[[2-[2-chloranyl-4-(4-chloranylphenoxy)phenyl]-4-methyl-1,3-dioxolan-2-yl]methyl]-1,2,4-triazole
Formula: C19H17Cl2N3O3
Exact mass: 405.0647
SMILES: Clc4ccc(Oc1ccc(c(Cl)c1)C2(OCC(O2)C)Cn3ncnc3)cc4
InChI: InChI=1S/C19H17Cl2N3O3/c1-13-9-25-19(27-13,10-24-12-22-11-23-24)17-7-6-16(8-18(17)21)26-15-4-2-14(20)3-5-15/h2-8,11-13H,9-10H2,1H3
Instrument: LTQ Orbitrap XL Thermo Scientific
Instrument type: LC-ESI-ITFT
Ms type: MS2
Ion mode: POSITIVE
Ionization: ESI
Fragmentation mode: HCD
Collision energy: 60 % (nominal)
Resolution: 15000
Column name: XBridge C18 3.5um, 2.1x50mm, Waters
Retention time: 14.1 min
Base peak: 406.0724
Precursor m/z: 406.072
Precursor type: [M+H]+
m/z	relative intensity	assigned
70.0399	1	C2H4N3+
86.9995	1	C4H4Cl+
98.9997	1	C5H4Cl+
110.9993	5	C6H4Cl+
115.0538	1	C9H7+
126.9944	2	C6H4ClO+
128.0623	1	C10H8+
129.01	1	C6H6ClO+
129.0698	13	C10H9+
139.0056	36	C6H4ClN2+
141.0101	26	C7H6ClO+
149.0155	1	C9H6Cl+
151.0538	1	C12H7+
152.0619	55	C12H8+
153.0698	29	C12H9+
163.0308	1	C10H8Cl+
164.0385	5	C10H9Cl+
179.0602	3	C12H7N2+
180.057	1	C13H8O+
181.0647	31	C13H9O+
182.9762	2	C9H5Cl2+
187.0308	54	C12H8Cl+
188.0387	184	C12H9Cl+
202.0176	2	C12H7ClO+
208.9917	1	C11H7Cl2+
215.0257	24	C13H8ClO+
215.0372	2	C12H8ClN2+
216.0335	17	C13H9ClO+
223.0075	116	C12H9Cl2+
251.0023	999	C13H9Cl2O+
256.065	1	C16H13ClO+
261.9941	2	C14H8Cl2O+
263.0025	1	C14H9Cl2O+
264.9816	102	C13H7Cl2O2+
273.0309	2	C15H10ClO3+
291.0332	3	C16H13Cl2O+
323.0231	1	C16H13Cl2O3+
337.0269	1	C16H13Cl2NO3+
