Mass spectrum: Lamotrigine; LC-ESI-ITFT; MS2; CE: 90%; R=30000; [M+H]+
Name: Lamotrigine
Name: 6-(2,3-dichlorophenyl)-1,2,4-triazine-3,5-diamine
Formula: C9H7Cl2N5
Exact mass: 255.0079
SMILES: Cl-c(ccc1)c(Cl)c1-c(nnc2N)c(n2)N
InChI: InChI=1S/C9H7Cl2N5/c10-5-3-1-2-4(6(5)11)7-8(12)14-9(13)16-15-7/h1-3H,(H4,12,13,14,16)
Instrument: LTQ Orbitrap XL Thermo Scientific
Instrument type: LC-ESI-ITFT
Ms type: MS2
Ion mode: POSITIVE
Ionization: ESI
Fragmentation mode: HCD
Collision energy: 90 % (nominal)
Resolution: 30000
Column name: XBridge C18 3.5um, 2.1x50mm, Waters
Retention time: 5.4 min
Base peak: 256.016
Precursor m/z: 256.0151
Precursor type: [M+H]+
m/z	relative intensity	assigned
58.04	203	CH4N3+
68.0244	39	C2H2N3+
84.984	39	C4H2Cl+
108.984	80	C6H2Cl+
115.0291	65	C7H3N2+
122.9996	230	C7H4Cl+
123.9948	126	C6H3ClN+
131.0604	85	C8H7N2+
132.9606	120	C5H3Cl2+
138.0106	87	C7H5ClN+
144.9607	59	C6H3Cl2+
147.9948	24	C8H3ClN+
149.0027	20	C8H4ClN+
150.0104	24	C8H5ClN+
151.0058	68	C7H4ClN2+
151.0184	381	C8H6ClN+
152.0136	415	C7H5ClN2+
156.9607	504	C7H3Cl2+
158.9763	502	C7H5Cl2+
159.9716	281	C6H4Cl2N+
164.0011	164	C7H3ClN3+
165.0214	165	C8H6ClN2+
166.0293	362	C8H7ClN2+
170.9638	193	C7H3Cl2N+
171.9716	326	C7H4Cl2N+
172.9668	999	C6H3Cl2N2+
173.9871	55	C7H6Cl2N+
176.0136	25	C9H5ClN2+
178.0167	60	C8H5ClN3+
183.9716	243	C8H4Cl2N+
184.9794	56	C8H5Cl2N+
186.9824	275	C7H5Cl2N2+
194.9637	97	C9H3Cl2N+
196.9671	13	C8H3Cl2N2+
210.9824	405	C9H5Cl2N2+
211.9777	89	C8H4Cl2N3+
220.0376	30	C9H7ClN5+
229.004	45	C8H7Cl2N4+
256.0153	105	C9H8Cl2N5+
