Mass spectrum: Flubendazole; LC-ESI-QFT; MS2; CE: 150; R=35000; [M-H]-
Name: Flubendazole
Name: Methyl N-[6-(4-fluorobenzoyl)-1H-benzimidazol-2-yl]carbamate
Formula: C16H12FN3O3
Exact mass: 313.08627
SMILES: COC(=O)NC1=NC2=C(N1)C=C(C=C2)C(=O)C3=CC=C(C=C3)F
InChI: InChI=1S/C16H12FN3O3/c1-23-16(22)20-15-18-12-7-4-10(8-13(12)19-15)14(21)9-2-5-11(17)6-3-9/h2-8H,1H3,(H2,18,19,20,22)
Instrument: Q Exactive Plus Orbitrap Thermo Scientific
Instrument type: LC-ESI-QFT
Ms type: MS2
Ion mode: NEGATIVE
Ionization: ESI
Fragmentation mode: HCD
Collision energy: 150 (nominal)
Resolution: 35000
Column name: XBridge C18 3.5um, 2.1x50mm, Waters
Retention time: 8.1 min
Base peak: 280.0527
Precursor m/z: 312.079
Precursor type: [M-H]-
m/z	relative intensity	assigned
50.0036	66	C3N-
64.0194	333	C4H2N-
65.0146	13	C3HN2-
65.9986	23	C3NO-
74.0039	69	C5N-
86.0037	34	C6N-
87.0116	65	C6HN-
88.0069	39	C5N2-
88.0193	175	C6H2N-
89.0146	10	C5HN2-
101.0146	35	C6HN2-
102.0225	79	C6H2N2-
103.0177	26	C5HN3-
106.0174	22	C5H2N2O-
113.0148	98	C7HN2-
114.0225	10	C7H2N2-
115.0304	999	C7H3N2-
129.0335	575	C7H3N3-
130.0168	6	C7H2N2O-
133.0283	56	C6H3N3O-
156.0207	236	C8H2N3O-
157.0285	130	C8H3N3O-
160.0155	29	C7H2N3O2-
173.0237	10	C8H3N3O2-
