Mass spectrum: Morphothion; LC-ESI-QFT; MS2; CE: 75%; R=17500; [M+H]+
Name: Morphothion
Name: 2-dimethoxyphosphinothioylsulfanyl-1-morpholin-4-ylethanone
Formula: C8H16NO4PS2
Exact mass: 285.0258
SMILES: COP(=S)(OC)SCC(=O)N1CCOCC1
InChI: InChI=1S/C8H16NO4PS2/c1-11-14(15,12-2)16-7-8(10)9-3-5-13-6-4-9/h3-7H2,1-2H3
Instrument: Exploris 240 Orbitrap Thermo Scientific
Instrument type: LC-ESI-QFT
Ms type: MS2
Ion mode: POSITIVE
Ionization: ESI
Fragmentation mode: HCD
Collision energy: 75 % (nominal)
Resolution: 17500
Column name: XBridge C18 3.5um, 2.1x50mm, Waters
Retention time: 4.868 min
Base peak: 286.033
Precursor m/z: 286.0331
Precursor type: [M+H]+
m/z	relative intensity	assigned
58.065	5	C3H8N+
58.9949	16	C2H3S+
62.0185	26	C2H6S+
70.065	9	C4H8N+
72.0444	9	C3H6NO+
78.9943	190	CH4O2P+
82.0654	20	C5H8N+
86.0599	34	C4H8NO+
88.0758	52	C4H10NO+
93.01	81	C2H6O2P+
100.0754	17	C5H10NO+
124.9821	999	C2H6O2PS+
132.0477	41	C5H10NOS+
142.0321	18	C6H8NOS+
142.9927	220	C2H8O3PS+
144.0474	19	C6H10NOS+
156.9541	77	C2H6O2PS2+
157.0083	28	C3H10O3PS+
160.0432	7	C6H10NO2S+
170.9698	22	C3H8O2PS2+
