Mass spectrum: N-Acetylcaprolactam; LC-ESI-QFT; MS2; CE: 180%; R=17500; [M+H]+
Name: N-Acetylcaprolactam
Name: 1-acetylazepan-2-one
Formula: C8H13NO2
Exact mass: 155.0946
SMILES: CC(=O)N1CCCCCC1=O
InChI: InChI=1S/C8H13NO2/c1-7(10)9-6-4-2-3-5-8(9)11/h2-6H2,1H3
Instrument: Exploris 240 Orbitrap Thermo Scientific
Instrument type: LC-ESI-QFT
Ms type: MS2
Ion mode: POSITIVE
Ionization: ESI
Fragmentation mode: HCD
Collision energy: 180 % (nominal)
Resolution: 17500
Column name: XBridge C18 3.5um, 2.1x50mm, Waters
Retention time: 4.594 min
Base peak: 156.1019
Precursor m/z: 156.1019
Precursor type: [M+H]+
m/z	relative intensity	assigned
41.0386	103	C3H5+
42.0339	28	C2H4N+
43.0178	596	C2H3O+
43.0543	41	C3H7+
44.0131	999	CH2NO+
53.0386	83	C4H5+
55.0179	190	C3H3O+
55.0542	437	C4H7+
67.0543	44	C5H7+
69.07	51	C5H9+
77.0386	68	C6H5+
79.0543	58	C6H7+
95.0492	62	C6H7O+
