Mass spectrum: Dexamethasone acetate; LC-ESI-QFT; MS2; CE: 180; R=35000; [M+H]+
Name: Dexamethasone acetate
Name: Dexamethason-21-acetate
Name: [2-(9-fluoro-11,17-dihydroxy-10,13,16-trimethyl-3-oxo-6,7,8,11,12,14,15,16-octahydrocyclopenta[a]phenanthren-17-yl)-2-oxoethyl] acetate
Formula: C24H31FO6
Exact mass: 434.21047
SMILES: CC1CC2C3CCC4=CC(=O)C=CC4(C3(C(CC2(C1(C(=O)COC(=O)C)O)C)O)F)C
InChI: InChI=1S/C24H31FO6/c1-13-9-18-17-6-5-15-10-16(27)7-8-21(15,3)23(17,25)19(28)11-22(18,4)24(13,30)20(29)12-31-14(2)26/h7-8,10,13,17-19,28,30H,5-6,9,11-12H2,1-4H3
Instrument: Q Exactive Plus Orbitrap Thermo Scientific
Instrument type: LC-ESI-QFT
Ms type: MS2
Ion mode: POSITIVE
Ionization: ESI
Fragmentation mode: HCD
Collision energy: 180 (nominal)
Resolution: 35000
Column name: XBridge C18 3.5um, 2.1x50mm, Waters
Retention time: 10.2 min
Base peak: 435.2176
Precursor m/z: 435.2177
Precursor type: [M+H]+
m/z	relative intensity	assigned
50.0151	190	C4H2+
51.023	435	C4H3+
53.0022	47	C3HO+
53.0386	171	C4H5+
53.9975	6	C2NO+
55.0179	31	C3H3O+
55.0543	13	C4H7+
59.0292	4	C3H4F+
62.0151	29	C5H2+
63.0229	146	C5H3+
65.0386	639	C5H5+
66.0464	20	C5H6+
67.0543	17	C5H7+
67.9893	2	C3O2+
74.015	33	C6H2+
75.0229	68	C6H3+
76.0307	31	C6H4+
77.0386	235	C6H5+
78.0464	199	C6H6+
79.0542	78	C6H7+
81.0335	24	C5H5O+
83.0292	19	C5H4F+
87.023	19	C7H3+
88.0308	3	C7H4+
89.0386	230	C7H5+
90.0465	3	C7H6+
91.0543	524	C7H7+
94.0414	15	C6H6O+
95.0492	512	C6H7O+
101.0387	6	C8H5+
102.0464	197	C8H6+
103.0542	191	C8H7+
104.062	6	C8H8+
105.0448	261	C6H5N2+
105.07	14	C8H9+
107.0491	27	C7H7O+
109.045	6	C7H6F+
113.0387	20	C9H5+
114.0465	5	C9H6+
115.0543	999	C9H7+
116.062	26	C9H8+
117.0699	16	C9H9+
118.0411	2	C8H6O+
119.0492	14	C8H7O+
126.0464	106	C10H6+
127.0542	102	C10H7+
128.0621	478	C10H8+
129.0448	21	C8H5N2+
129.0701	24	C10H9+
131.0492	69	C9H7O+
132.0569	6	C9H8O+
133.0449	14	C9H6F+
139.0543	179	C11H7+
140.0624	3	C11H8+
141.0699	74	C11H9+
144.0571	4	C10H8O+
145.0648	54	C10H9O+
146.0528	4	C10H7F+
150.0465	110	C12H6+
151.0543	33	C12H7+
152.0621	561	C12H8+
153.0699	60	C12H9+
155.0604	128	C10H7N2+
157.0651	4	C11H9O+
163.0543	147	C13H7+
164.0622	71	C13H8+
165.07	407	C13H9+
168.0571	50	C12H8O+
169.0649	195	C12H9O+
176.0621	241	C14H8+
177.0701	80	C14H9+
178.0778	173	C14H10+
179.0605	52	C12H7N2+
179.0858	5	C14H11+
181.0649	21	C13H9O+
187.0544	75	C15H7+
188.0623	40	C15H8+
189.07	380	C15H9+
190.0778	18	C15H10+
191.0855	11	C15H11+
192.0571	24	C14H8O+
193.0651	11	C14H9O+
196.0521	12	C13H8O2+
200.0621	104	C16H8+
201.0699	44	C16H9+
202.0778	231	C16H10+
203.0853	11	C16H11+
205.0649	35	C15H9O+
213.07	86	C17H9+
214.078	6	C17H10+
215.0857	64	C17H11+
219.0804	22	C16H11O+
225.07	11	C18H9+
226.0777	92	C18H10+
227.0856	4	C18H11+
228.093	12	C18H12+
229.0642	4	C17H9O+
239.0855	18	C19H11+
243.0807	5	C18H11O+
250.0778	5	C20H10+
