Mass spectrum: Flunixine; LC-ESI-QFT; MS2; CE: 150; R=35000; [M+H]+
Name: Flunixine
Name: Banamine
Name: 2-[2-methyl-3-(trifluoromethyl)anilino]pyridine-3-carboxylic acid
Formula: C14H11F3N2O2
Exact mass: 296.07726
SMILES: CC1=C(C=CC=C1NC2=C(C=CC=N2)C(=O)O)C(F)(F)F
InChI: InChI=1S/C14H11F3N2O2/c1-8-10(14(15,16)17)5-2-6-11(8)19-12-9(13(20)21)4-3-7-18-12/h2-7H,1H3,(H,18,19)(H,20,21)
Instrument: Q Exactive Plus Orbitrap Thermo Scientific
Instrument type: LC-ESI-QFT
Ms type: MS2
Ion mode: POSITIVE
Ionization: ESI
Fragmentation mode: HCD
Collision energy: 150 (nominal)
Resolution: 35000
Column name: XBridge C18 3.5um, 2.1x50mm, Waters
Retention time: 10.9 min
Base peak: 297.0837
Precursor m/z: 297.0845
Precursor type: [M+H]+
m/z	relative intensity	assigned
50.0151	38	C4H2+
51.0229	22	C4H3+
52.0181	8	C3H2N+
52.0307	2	C4H4+
53.0022	9	C3HO+
53.0386	13	C4H5+
53.9975	5	C2NO+
57.0135	192	C3H2F+
59.0291	82	C3H4F+
61.0072	8	C5H+
62.0151	29	C5H2+
63.0229	221	C5H3+
64.0181	8	C4H2N+
64.0307	6	C5H4+
65.0022	2	C4HO+
65.026	6	C4H3N+
65.0386	19	C5H5+
66.0338	10	C4H4N+
66.0464	1	C5H6+
67.0416	8	C4H5N+
67.9892	2	C3O2+
68.0495	1	C4H6N+
68.9947	9	CF3+
69.0135	6	C4H2F+
71.0291	1	C4H4F+
74.015	42	C6H2+
75.004	25	C3HF2+
75.0229	83	C6H3+
76.0181	22	C5H2N+
76.0306	6	C6H4+
77.0021	55	C5HO+
77.0385	27	C6H5+
78.0338	107	C5H4N+
78.0463	6	C6H6+
79.0177	1	C5H3O+
79.0416	18	C5H5N+
79.0541	11	C6H7+
80.0494	5	C5H6N+
81.0135	28	C5H2F+
81.0334	1	C5H5O+
82.0213	1	C5H3F+
82.0287	1	C4H4NO+
83.0291	999	C5H4F+
84.037	2	C5H5F+
86.0151	9	C7H2+
87.0229	51	C7H3+
88.0119	6	C4H2F2+
88.0181	15	C6H2N+
88.0307	22	C7H4+
89.0385	270	C7H5+
90.0339	11	C6H4N+
90.0464	23	C7H6+
91.0416	6	C6H5N+
91.0541	4	C7H7+
92.0057	2	C6HF+
92.0258	1	C6H4O+
92.0369	23	C5H4N2+
92.0495	2	C6H6N+
93.0135	108	C6H2F+
93.0447	13	C5H5N2+
94.0213	8	C6H3F+
95.0291	7	C6H4F+
95.0491	43	C6H7O+
96.0443	80	C5H6NO+
98.0151	312	C8H2+
99.0229	562	C8H3+
100.0182	11	C7H2N+
100.0306	2	C8H4+
101.0197	6	C5H3F2+
101.0386	6	C8H5+
102.0337	5	C7H4N+
102.0463	13	C8H6+
103.0291	6	C6H3N2+
103.0414	1	C7H5N+
103.0542	18	C8H7+
104.0494	10	C7H6N+
105.0134	4	C7H2F+
105.0447	32	C6H5N2+
106.0213	9	C7H3F+
106.0651	31	C7H8N+
107.0291	80	C7H4F+
108.037	48	C7H5F+
109.0448	738	C7H6F+
111.0229	12	C9H3+
112.0119	6	C6H2F2+
112.0181	7	C8H2N+
112.0309	6	C9H4+
113.0385	236	C9H5+
114.0279	9	C6H4F2+
114.0338	68	C8H4N+
114.0464	8	C9H6+
115.0416	17	C8H5N+
115.0542	24	C9H7+
116.0496	12	C8H6N+
117.0135	4	C8H2F+
117.0446	2	C7H5N2+
117.0572	10	C8H7N+
118.0213	5	C8H3F+
118.0525	2	C7H6N2+
119.0103	5	C5H2F3+
119.0291	44	C8H4F+
119.0492	5	C8H7O+
120.0206	1	C7H4O2+
120.037	4	C8H5F+
120.0443	1	C7H6NO+
121.0396	2	C6H5N2O+
122.015	1	C10H2+
123.0103	2	C9HN+
123.0228	15	C10H3+
123.0353	25	C6H4FN2+
124.0182	18	C9H2N+
124.0554	1	C7H7FN+
125.0197	27	C7H3F2+
125.0386	17	C10H5+
126.0274	4	C7H4F2+
126.0464	48	C10H6+
127.0354	29	C7H5F2+
127.0413	13	C9H5N+
127.0542	88	C10H7+
128.0494	63	C9H6N+
128.062	13	C10H8+
129.0446	31	C8H5N2+
129.0572	9	C9H7N+
130.0402	7	C7H4N3+
130.0652	4	C9H8N+
131.0291	64	C9H4F+
132.0181	19	C6H3F3+
132.0242	7	C8H3FN+
132.037	63	C9H5F+
132.0445	8	C8H6NO+
133.0259	6	C6H4F3+
133.0322	6	C8H4FN+
133.0448	39	C9H6F+
134.04	13	C8H5FN+
135.0236	1	C11H3+
135.0478	20	C8H6FN+
136.0176	1	C10H2N+
136.0317	13	C8H5FO+
136.043	8	C7H5FN2+
137.0386	60	C11H5+
138.0275	45	C8H4F2+
138.0339	40	C10H4N+
138.0463	12	C11H6+
139.0229	7	C7H3F2N+
139.0356	7	C8H5F2+
139.0417	32	C10H5N+
139.054	13	C11H7+
140.0494	552	C10H6N+
141.0137	5	C10H2F+
141.0258	21	C6H3F2N2+
141.0446	8	C9H5N2+
141.0572	12	C10H7N+
142.0215	5	C10H3F+
142.0527	12	C9H6N2+
143.0103	13	C7H2F3+
143.0292	17	C10H4F+
143.0366	2	C9H5NO+
144.0184	1	C7H3F3+
144.0244	4	C9H3FN+
144.0366	9	C10H5F+
144.0443	1	C9H6NO+
145.026	48	C7H4F3+
145.032	5	C9H4FN+
145.0648	65	C10H9O+
146.0151	1	C12H2+
146.0401	6	C9H5FN+
146.0601	19	C9H8NO+
147.023	8	C12H3+
147.0353	44	C8H4FN2+
148.0182	24	C11H2N+
148.0307	7	C12H4+
149.0198	7	C9H3F2+
150.0151	4	C8H2F2N+
150.0341	9	C11H4N+
150.0476	9	C9H7FO+
151.0353	27	C9H5F2+
151.0419	7	C11H5N+
152.0495	26	C11H6N+
153.0446	8	C10H5N2+
153.0573	76	C11H7N+
154.0651	130	C11H8N+
155.0292	10	C11H4F+
155.0603	175	C10H7N2+
156.0181	7	C8H3F3+
156.0238	2	C10H3FN+
156.0369	18	C11H5F+
156.0435	1	C8H4N4+
157.0261	6	C8H4F3+
157.0448	123	C11H6F+
157.0521	31	C10H7NO+
158.0341	13	C8H5F3+
158.04	220	C10H5FN+
159.0416	2	C8H6F3+
159.0479	37	C10H6FN+
159.0554	9	C9H7N2O+
160.0372	3	C7H5F3N+
160.0431	12	C9H5FN2+
161.0197	15	C10H3F2+
161.0397	6	C10H6FO+
162.0276	62	C10H4F2+
162.034	9	C12H4N+
163.0231	9	C9H3F2N+
163.0351	7	C10H5F2+
163.0416	13	C12H5N+
164.031	9	C9H4F2N+
164.0495	115	C12H6N+
165.0384	9	C9H5F2N+
165.0448	38	C11H5N2+
165.0572	6	C12H7N+
166.0463	7	C9H6F2N+
166.0525	103	C11H6N2+
166.0651	7	C12H8N+
167.0291	5	C12H4F+
167.0419	8	C8H5F2N2+
167.0603	42	C11H7N2+
168.0248	12	C11H3FN+
168.037	5	C12H5F+
168.0445	8	C11H6NO+
168.0681	5	C11H8N2+
169.0258	4	C9H4F3+
169.0322	17	C11H4FN+
170.0212	29	C8H3F3N+
170.04	10	C11H5FN+
170.06	22	C11H8NO+
171.0353	2	C10H4FN2+
171.0477	5	C11H6FN+
171.0547	2	C10H7N2O+
172.0303	5	C14H4+
172.0554	4	C11H7FN+
173.0512	4	C10H6FN2+
174.0345	2	C13H4N+
174.0526	4	C8H7F3N+
175.0355	16	C11H5F2+
176.0307	20	C10H4F2N+
177.0447	4	C12H5N2+
178.0395	1	C11H4N3+
179.0603	176	C12H7N2+
180.056	11	C11H6N3+
180.0682	56	C12H8N2+
181.0261	9	C10H4F3+
181.076	134	C12H9N2+
182.0335	34	C10H5F3+
182.0402	71	C12H5FN+
182.0599	4	C12H8NO+
183.0286	2	C9H4F3N+
183.0353	4	C11H4FN2+
183.0478	15	C12H6FN+
183.0554	13	C11H7N2O+
184.0557	24	C12H7FN+
184.0633	4	C11H8N2O+
185.0516	14	C11H6FN2+
186.0274	14	C12H4F2+
186.035	12	C11H5FNO+
186.0587	60	C11H7FN2+
187.0227	2	C11H3F2N+
187.0428	1	C11H6FNO+
188.0307	15	C11H4F2N+
188.0505	15	C11H7FNO+
189.0381	53	C11H5F2N+
189.0451	8	C13H5N2+
190.0336	2	C10H4F2N2+
190.0457	30	C11H6F2N+
190.0529	6	C10H7FN2O+
191.0413	22	C10H5F2N2+
191.0604	7	C13H7N2+
192.0682	5	C13H8N2+
193.0324	9	C13H4FN+
194.0412	1	C10H6F2NO+
195.0348	2	C12H4FN2+
195.0555	5	C12H7N2O+
196.0437	1	C12H5FN2+
197.0509	37	C12H6FN2+
198.0462	2	C11H5FN3+
199.0666	5	C12H8FN2+
200.031	6	C12H4F2N+
202.0461	18	C12H6F2N+
206.0413	20	C11H6F2NO+
207.0289	6	C11H4F3N+
208.0366	25	C11H5F3N+
208.063	5	C13H8N2O+
209.0513	29	C13H6FN2+
209.0707	8	C13H9N2O+
210.0403	2	C10H5F3N2+
210.0589	26	C13H7FN2+
211.0667	1	C13H8FN2+
213.0382	6	C13H5F2N+
215.0414	48	C12H5F2N2+
216.0492	2	C12H6F2N2+
217.0572	58	C12H7F2N2+
222.0534	1	C12H7F3N+
227.0416	1	C13H5F2N2+
228.0494	10	C13H6F2N2+
229.0574	5	C13H7F2N2+
235.0478	37	C12H6F3N2+
236.0562	5	C12H7F3N2+
