Mass spectrum: 1-Benzylpiperazine; LC-ESI-QFT; MS2; CE: 90; R=35000; [M+H]+
Name: 1-Benzylpiperazine
Name: N-Benzylpiperazine
Name: 1-(phenylmethyl)piperazine
Formula: C11H16N2
Exact mass: 176.13135
SMILES: C1CN(CCN1)Cc1ccccc1
InChI: InChI=1S/C11H16N2/c1-2-4-11(5-3-1)10-13-8-6-12-7-9-13/h1-5,12H,6-10H2
Instrument: Q Exactive Plus Orbitrap Thermo Scientific
Instrument type: LC-ESI-QFT
Ms type: MS2
Ion mode: POSITIVE
Ionization: ESI
Fragmentation mode: HCD
Collision energy: 90 (nominal)
Resolution: 35000
Column name: XBridge C18 3.5um, 2.1x50mm, Waters
Retention time: 1.2 min
Base peak: 177.1381
Precursor m/z: 177.1386
Precursor type: [M+H]+
m/z	relative intensity	assigned
56.0495	28	C3H6N+
63.0228	2	C5H3+
65.0385	56	C5H5+
68.0494	1	C4H6N+
85.076	18	C4H9N2+
91.0542	999	C7H7+
