Mass spectrum: 2-(3-Hydroxycyclohexyl)-5-(2-methyl-2-octanyl)phenol; LC-ESI-QFT; MS2; CE: 150; R=35000; [M+H]+
Name: 2-(3-Hydroxycyclohexyl)-5-(2-methyl-2-octanyl)phenol
Name: CP47.497
Name: 2-(3-hydroxycyclohexyl)-5-(2-methyloctan-2-yl)phenol
Formula: C21H34O2
Exact mass: 318.25588
SMILES: CCCCCCC(C)(C)C1=CC(=C(C=C1)C2CCCC(C2)O)O
InChI: InChI=1S/C21H34O2/c1-4-5-6-7-13-21(2,3)17-11-12-19(20(23)15-17)16-9-8-10-18(22)14-16/h11-12,15-16,18,22-23H,4-10,13-14H2,1-3H3
Instrument: Q Exactive Plus Orbitrap Thermo Scientific
Instrument type: LC-ESI-QFT
Ms type: MS2
Ion mode: POSITIVE
Ionization: ESI
Fragmentation mode: HCD
Collision energy: 150 (nominal)
Resolution: 35000
Column name: XBridge C18 3.5um, 2.1x50mm, Waters
Retention time: 17.2 min
Base peak: 391.2833
Precursor m/z: 319.2632
Precursor type: [M+H]+
m/z	relative intensity	assigned
50.0151	121	C4H2+
51.0229	443	C4H3+
52.0307	3	C4H4+
53.0022	119	C3HO+
53.0386	464	C4H5+
53.9975	27	C2NO+
55.0178	43	C3H3O+
55.0542	41	C4H7+
57.0699	22	C4H9+
63.0228	6	C5H3+
65.0385	235	C5H5+
66.0464	34	C5H6+
67.0541	19	C5H7+
77.0385	378	C6H5+
78.0463	87	C6H6+
79.0542	808	C6H7+
81.0334	35	C5H5O+
81.0698	29	C6H9+
89.0385	8	C7H5+
90.0464	5	C7H6+
91.0542	701	C7H7+
92.0621	9	C7H8+
93.0698	20	C7H9+
94.0413	41	C6H6O+
95.0491	999	C6H7O+
102.0464	5	C8H6+
103.0542	397	C8H7+
104.0621	19	C8H8+
105.0447	788	C6H5N2+
105.0698	410	C8H9+
107.0491	98	C7H7O+
109.0647	8	C7H9O+
115.0542	146	C9H7+
116.0619	9	C9H8+
117.0698	24	C9H9+
119.0857	6	C9H11+
121.0648	28	C8H9O+
128.0618	37	C10H8+
131.0492	18	C9H7O+
132.0568	17	C9H8O+
133.0648	239	C9H9O+
147.0803	9	C10H11O+
