Mass spectrum: Methiocarb; LC-ESI-ITFT; MS2; CE: 75%; R=7500; [M+H]+
Name: Methiocarb
Name: (3,5-dimethyl-4-methylsulfanyl-phenyl) N-methylcarbamate
Formula: C11H15NO2S
Exact mass: 225.0823
SMILES: O=C(Oc1cc(c(SC)c(c1)C)C)NC
InChI: InChI=1S/C11H15NO2S/c1-7-5-9(14-11(13)12-3)6-8(2)10(7)15-4/h5-6H,1-4H3,(H,12,13)
Instrument: LTQ Orbitrap XL Thermo Scientific
Instrument type: LC-ESI-ITFT
Ms type: MS2
Ion mode: POSITIVE
Ionization: ESI
Fragmentation mode: HCD
Collision energy: 75 % (nominal)
Resolution: 7500
Column name: XBridge C18 3.5um, 2.1x50mm, Waters
Retention time: 10.4 min
Base peak: 226.0902
Precursor m/z: 226.0896
Precursor type: [M+H]+
m/z	relative intensity	assigned
53.0386	15	C4H5+
55.0179	1	C3H3O+
58.0288	1	C2H4NO+
65.0385	3	C5H5+
67.0543	9	C5H7+
77.0387	189	C6H5+
78.0465	6	C6H6+
79.0542	11	C6H7+
81.0336	3	C5H5O+
91.0543	312	C7H7+
93.07	365	C7H9+
94.0777	9	C7H10+
95.0492	14	C6H7O+
95.0851	2	C7H11+
103.0543	14	C8H7+
104.0619	4	C8H8+
105.0448	77	C6H5N2+
105.0698	4	C8H9+
107.0492	234	C7H7O+
108.0566	1	C7H8O+
109.065	8	C7H9O+
111.0262	3	C6H7S+
121.0649	999	C8H9O+
122.0727	778	C8H10O+
123.0804	14	C8H11O+
125.0422	3	C7H9S+
126.05	2	C7H10S+
139.0215	1	C7H7OS+
153.0368	11	C8H9OS+
154.0448	59	C8H10OS+
