Mass spectrum: Ketamine; LC-ESI-ITFT; MS2; CE: 45%; R=7500; [M+H]+
Name: Ketamine
Name: 2-(2-chlorophenyl)-2-(methylamino)-1-cyclohexanone
Formula: C13H16ClNO
Exact mass: 237.0920
SMILES: CNC1(CCCCC1=O)C2=CC=CC=C2Cl
InChI: InChI=1S/C13H16ClNO/c1-15-13(9-5-4-8-12(13)16)10-6-2-3-7-11(10)14/h2-3,6-7,15H,4-5,8-9H2,1H3
Instrument: LTQ Orbitrap XL Thermo Scientific
Instrument type: LC-ESI-ITFT
Ms type: MS2
Ion mode: POSITIVE
Ionization: ESI
Fragmentation mode: HCD
Collision energy: 45 % (nominal)
Resolution: 7500
Column name: XBridge C18 3.5um, 2.1x50mm, Waters
Retention time: 4.6 min
Base peak: 238.0997
Precursor m/z: 238.0993
Precursor type: [M+H]+
m/z	relative intensity	assigned
67.0543	76	C5H7+
125.0153	999	C7H6Cl+
138.9945	10	C7H4ClO+
141.0101	31	C7H6ClO+
143.0859	7	C11H11+
144.0932	6	C11H12+
149.0152	6	C9H6Cl+
151.0309	52	C9H8Cl+
152.026	75	C8H7ClN+
153.0699	16	C12H9+
154.0778	23	C12H10+
156.0927	5	C12H12+
163.0309	195	C10H8Cl+
165.01	45	C9H6ClO+
165.0464	37	C10H10Cl+
179.0622	748	C11H12Cl+
185.1206	11	C13H15N+
189.0465	137	C12H10Cl+
191.0616	9	C12H12Cl+
207.057	446	C12H12ClO+
220.0886	521	C13H15ClN+
238.0997	188	C13H17ClNO+
