Mass spectrum: Genistein; LC-ESI-QFT; MS2; CE: 45; R=35000; [M+H]+
Name: Genistein
Name: 5,7-dihydroxy-3-(4-hydroxyphenyl)chromen-4-one
Formula: C15H10O5
Exact mass: 270.05282
SMILES: C1=CC(=CC=C1C2=COC3=CC(=CC(=C3C2=O)O)O)O
InChI: InChI=1S/C15H10O5/c16-9-3-1-8(2-4-9)11-7-20-13-6-10(17)5-12(18)14(13)15(11)19/h1-7,16-18H
Instrument: Q Exactive Plus Orbitrap Thermo Scientific
Instrument type: LC-ESI-QFT
Ms type: MS2
Ion mode: POSITIVE
Ionization: ESI
Fragmentation mode: HCD
Collision energy: 45 (nominal)
Resolution: 35000
Column name: XBridge C18 3.5um, 2.1x50mm, Waters
Retention time: 7.6 min
Base peak: 271.0599
Precursor m/z: 271.0601
Precursor type: [M+H]+
m/z	relative intensity	assigned
67.0178	1	C4H3O+
68.997	3	C3HO2+
91.0542	8	C7H7+
111.0077	4	C5H3O3+
119.0492	9	C8H7O+
121.0284	4	C7H5O2+
131.0492	3	C9H7O+
133.0283	2	C8H5O2+
133.0647	1	C9H9O+
137.0235	1	C7H5O3+
141.0699	1	C11H9+
145.0285	26	C9H5O2+
145.0649	1	C10H9O+
147.0442	2	C9H7O2+
147.0804	2	C10H11O+
149.0234	47	C8H5O3+
153.0183	121	C7H5O4+
159.0441	18	C10H7O2+
159.0805	1	C11H11O+
165.0183	10	C8H5O4+
169.0648	9	C12H9O+
173.06	3	C11H9O2+
175.0753	1	C11H11O2+
181.0649	1	C13H9O+
183.029	2	C8H7O5+
183.044	1	C12H7O2+
185.0598	1	C12H9O2+
187.039	5	C11H7O3+
187.0754	7	C12H11O2+
197.0598	13	C13H9O2+
200.0467	1	C12H8O3+
201.0547	2	C12H9O3+
203.0703	1	C12H11O3+
213.0547	1	C13H9O3+
215.0704	125	C13H11O3+
225.0546	8	C14H9O3+
226.0627	1	C14H10O3+
227.0703	4	C14H11O3+
229.0501	1	C13H9O4+
242.0565	1	C14H10O4+
243.0654	99	C14H11O4+
247.0603	1	C13H11O5+
253.0497	42	C15H9O4+
271.0601	999	C15H11O5+
