Mass spectrum: Tetrazepam; LC-ESI-QFT; MS2; CE: 45; R=35000; [M+H]+
Name: Tetrazepam
Name: 7-chloro-5-(cyclohexen-1-yl)-1-methyl-3H-1,4-benzodiazepin-2-one
Formula: C16H17ClN2O
Exact mass: 288.10294
SMILES: CN1C(=O)CN=C(C2=C1C=CC(=C2)Cl)C3=CCCCC3
InChI: InChI=1S/C16H17ClN2O/c1-19-14-8-7-12(17)9-13(14)16(18-10-15(19)20)11-5-3-2-4-6-11/h5,7-9H,2-4,6,10H2,1H3
Instrument: Q Exactive Orbitrap Thermo Scientific
Instrument type: LC-ESI-QFT
Ms type: MS2
Ion mode: POSITIVE
Ionization: ESI
Fragmentation mode: HCD
Collision energy: 45 (nominal)
Resolution: 35000
Column name: XBridge C18 3.5um, 2.1x50mm, Waters
Retention time: 10.1 min
Base peak: 289.1101
Precursor m/z: 289.1102
Precursor type: [M+H]+
m/z	relative intensity	assigned
67.0542	13	C5H7+
79.0541	9	C6H7+
81.0698	74	C6H9+
93.0698	2	C7H9+
95.0854	19	C7H11+
96.0807	10	C6H10N+
109.0647	10	C7H9O+
110.0963	11	C7H12N+
120.0806	2	C8H10N+
140.026	3	C7H7ClN+
147.0677	3	C9H9NO+
148.0757	2	C9H10NO+
152.0261	10	C8H7ClN+
154.0416	36	C8H9ClN+
164.0259	9	C12H4O+
166.0417	5	C9H9ClN+
167.0131	6	C8H6ClNO+
167.0368	2	C8H8ClN2+
169.0885	2	C12H11N+
172.0631	3	C10H8N2O+
172.0991	2	C11H12N2+
178.0416	11	C10H9ClN+
179.0369	8	C9H8ClN2+
180.0209	8	C9H7ClNO+
181.0526	4	C9H10ClN2+
181.0885	2	C13H11N+
182.0365	37	C9H9ClNO+
182.0962	2	C13H12N+
183.0918	3	C12H11N2+
183.1043	2	C13H13N+
185.1073	1	C12H13N2+
190.0417	2	C11H9ClN+
192.0573	1	C11H11ClN+
193.0525	5	C10H10ClN2+
194.0963	2	C14H12N+
195.0684	4	C10H12ClN2+
195.1041	4	C14H13N+
196.1118	11	C14H14N+
197.1073	13	C13H13N2+
197.1197	57	C14H15N+
198.115	6	C13H14N2+
198.1276	14	C14H16N+
199.0864	4	C12H11N2O+
200.0941	6	C12H12N2O+
202.0413	2	C15H6O+
203.0493	2	C15H7O+
204.0574	6	C12H11ClN+
207.0683	3	C11H12ClN2+
208.112	6	C15H14N+
209.0475	4	C10H10ClN2O+
209.1199	8	C15H15N+
210.1152	2	C14H14N2+
211.1227	2	C14H15N2+
212.0941	3	C13H12N2O+
213.1021	20	C13H13N2O+
216.0575	3	C13H11ClN+
217.0653	5	C13H12ClN+
218.0608	2	C12H11ClN2+
218.0731	5	C13H13ClN+
219.0684	2	C12H12ClN2+
220.0886	3	C13H15ClN+
223.0634	2	C11H12ClN2O+
225.1021	73	C14H13N2O+
225.1384	99	C15H17N2+
226.1099	40	C14H14N2O+
226.1462	47	C15H18N2+
229.0648	1	C14H12ClN+
230.0729	15	C14H13ClN+
231.0805	3	C14H14ClN+
232.0886	120	C14H15ClN+
233.0841	14	C16H11NO+
233.0965	13	C14H16ClN+
234.1042	2	C14H17ClN+
235.0631	47	C12H12ClN2O+
237.1148	3	C16H15NO+
239.1175	7	C15H15N2O+
244.0887	17	C15H15ClN+
245.0842	3	C14H14ClN2+
246.0917	9	C14H15ClN2+
247.0632	2	C13H12ClN2O+
253.1334	212	C16H17N2O+
254.1412	153	C16H18N2O+
259.1004	3	C15H16ClN2+
260.0834	1	C15H15ClNO+
260.1074	1	C15H17ClN2+
261.0788	48	C14H14ClN2O+
261.115	98	C15H18ClN2+
289.1099	999	C16H18ClN2O+
