Mass spectrum: Metamitron; LC-ESI-ITFT; MS2; CE: 35%; R=7500; [M+H]+
Name: Metamitron
Name: 4-Amino-4,5-dihydro-3-methyl-6-phenyl-1,2,4-triazin-5-one
Name: 4-amino-3-methyl-6-phenyl-1,2,4-triazin-5-one
Formula: C10H10N4O
Exact mass: 202.0860
SMILES: c(ccc1C(=NN=C2C)C(=O)N2N)cc1
InChI: InChI=1S/C10H10N4O/c1-7-12-13-9(10(15)14(7)11)8-5-3-2-4-6-8/h2-6H,11H2,1H3
Instrument: LTQ Orbitrap XL Thermo Scientific
Instrument type: LC-ESI-ITFT
Ms type: MS2
Ion mode: POSITIVE
Ionization: ESI
Fragmentation mode: CID
Collision energy: 35 % (nominal)
Resolution: 7500
Column name: XBridge C18 3.5um, 2.1x50mm, Waters
Retention time: 4.9 min
Base peak: 203.093
Precursor m/z: 203.0927
Precursor type: [M+H]+
m/z	relative intensity	assigned
72.0445	36	C3H6NO+
77.0385	29	C6H5+
79.0543	132	C6H7+
83.0241	12	C3H3N2O+
89.0386	32	C7H5+
91.0541	10	C7H7+
94.0652	6	C6H8N+
100.0507	18	C3H6N3O+
103.0542	22	C8H7+
104.0495	266	C7H6N+
106.0652	432	C7H8N+
115.0538	4	C9H7+
116.0497	34	C8H6N+
117.0331	14	C8H5O+
117.0453	6	C7H5N2+
117.0573	18	C8H7N+
118.0652	21	C8H8N+
119.0604	38	C7H7N2+
120.0808	39	C8H10N+
130.0651	224	C9H8N+
131.0487	7	C9H7O+
132.0684	28	C8H8N2+
132.0808	7	C9H10N+
134.0605	10	C8H8NO+
134.0711	16	C7H8N3+
143.0606	11	C9H7N2+
145.0397	245	C8H5N2O+
148.0761	6	C9H10NO+
158.0602	62	C10H8NO+
158.0713	29	C9H8N3+
174.0789	785	C10H10N2O+
175.0977	999	C9H11N4+
186.0666	50	C10H8N3O+
187.0747	7	C10H9N3O+
203.0927	241	C10H11N4O+
