Mass spectrum: Pymetrozine-TP CGA371075; LC-ESI-QFT; MS2; CE: 90%; R=17500; [M+H]+
Name: Pymetrozine-TP CGA371075
Name: 4,6-Dimethyl-1,2,4-triazine-3,5(2H,4H)-dione
Name: 4,6-dimethyl-2H-1,2,4-triazine-3,5-dione
Formula: C5H7N3O2
Exact mass: 141.0538
SMILES: CN1C(=O)NN=C(C)C1=O
InChI: InChI=1S/C5H7N3O2/c1-3-4(9)8(2)5(10)7-6-3/h1-2H3,(H,7,10)
Instrument: Q Exactive Plus Orbitrap Thermo Scientific
Instrument type: LC-ESI-QFT
Ms type: MS2
Ion mode: POSITIVE
Ionization: ESI
Fragmentation mode: HCD
Collision energy: 90 % (nominal)
Resolution: 17500
Column name: XBridge C18 3.5um, 2.1x50mm, Waters
Retention time: 2.247 min
Base peak: 164.9846
Precursor m/z: 142.0611
Precursor type: [M+H]+
m/z	relative intensity	assigned
56.0131	254	C2H2NO+
56.0494	371	C3H6N+
57.0447	999	C2H5N2+
58.0288	402	C2H4NO+
83.024	658	C3H3N2O+
85.0395	74	C3H5N2O+
114.066	459	C4H8N3O+
142.0609	71	C5H8N3O2+
