Mass spectrum: Chlorthiophos; LC-ESI-QFT; MS2; CE: 45%; R=17500; [M+H]+
Name: Chlorthiophos
Name: (2,5-dichloro-4-methylsulfanylphenoxy)-diethoxy-sulfanylidene-lambda5-phosphane
Formula: C11H15Cl2O3PS2
Exact mass: 359.9577
SMILES: CCOP(=S)(OCC)OC1=CC(=C(C=C1Cl)SC)Cl
InChI: InChI=1S/C11H15Cl2O3PS2/c1-4-14-17(18,15-5-2)16-10-6-9(13)11(19-3)7-8(10)12/h6-7H,4-5H2,1-3H3
Instrument: Exploris 240 Orbitrap Thermo Scientific
Instrument type: LC-ESI-QFT
Ms type: MS2
Ion mode: POSITIVE
Ionization: ESI
Fragmentation mode: HCD
Collision energy: 45 % (nominal)
Resolution: 17500
Column name: XBridge C18 3.5um, 2.1x50mm, Waters
Retention time: 14.135 min
Base peak: 360.9648
Precursor m/z: 360.965
Precursor type: [M+H]+
m/z	relative intensity	assigned
78.9669	86	CH3S2+
158.9759	10	C6H5ClOP+
160.9555	103	C6H3Cl2O+
177.9407	22	C6H4Cl2S+
186.9434	13	C7H4ClS2+
187.9514	97	C6H5OPS2+
188.9767	79	C6H6O3PS+
189.9662	23	C6H7OPS2+
190.9483	68	C6H5ClOPS+
191.956	999	C6H6ClOPS+
206.9435	36	C7H5Cl2OS+
208.9587	260	C6H7ClO2PS+
219.9869	7	C8H10ClOPS+
222.9202	380	C6H5ClOPS2+
224.9359	732	C6H7ClOPS2+
268.9264	31	C8H7Cl2O2S2+
270.9145	76	C7H6Cl2O3PS+
304.9023	241	C7H8Cl2O3PS2+
