Mass spectrum: Amphetamine; LC-ESI-ITFT; MS2; CE: 75%; R=15000; [M+H]+
Name: Amphetamine
Name: Amfetamine
Name: (1-methyl-2-phenyl-ethyl)amine
Formula: C9H13N
Exact mass: 135.1048
SMILES: c1(ccccc1)CC(N)C
InChI: InChI=1S/C9H13N/c1-8(10)7-9-5-3-2-4-6-9/h2-6,8H,7,10H2,1H3
Instrument: LTQ Orbitrap XL Thermo Scientific
Instrument type: LC-ESI-ITFT
Ms type: MS2
Ion mode: POSITIVE
Ionization: ESI
Fragmentation mode: HCD
Collision energy: 75 % (nominal)
Resolution: 15000
Column name: XBridge C18 3.5um, 2.1x50mm, Waters
Retention time: 3.5 min
Base peak: 136.112
Precursor m/z: 136.1121
Precursor type: [M+H]+
m/z	relative intensity	assigned
65.0386	3	C5H5+
79.054	1	C6H7+
91.0543	999	C7H7+
119.0858	10	C9H11+
