Mass spectrum: Norfloxacin; LC-ESI-ITFT; MS2; CE: 90%; R=7500; [M+H]+
Name: Norfloxacin
Name: 1-ethyl-6-fluoro-4-oxo-7-piperazin-1-yl-1,4-dihydroquinoline-3-carboxylic acid
Formula: C16H18FN3O3
Exact mass: 319.1332
SMILES: CCN1C=C(C(O)=O)C(=O)C2=CC(F)=C(C=C12)N3CCNCC3
InChI: InChI=1S/C16H18FN3O3/c1-2-19-9-11(16(22)23)15(21)10-7-12(17)14(8-13(10)19)20-5-3-18-4-6-20/h7-9,18H,2-6H2,1H3,(H,22,23)
Instrument: LTQ Orbitrap XL Thermo Scientific
Instrument type: LC-ESI-ITFT
Ms type: MS2
Ion mode: POSITIVE
Ionization: ESI
Fragmentation mode: HCD
Collision energy: 90 % (nominal)
Resolution: 7500
Column name: XBridge C18 3.5um, 2.1x50mm, Waters
Retention time: 4.4 min
Base peak: 320.1415
Precursor m/z: 320.1405
Precursor type: [M+H]+
m/z	relative intensity	assigned
56.0495	4	C3H6N+
58.0653	2	C3H8N+
70.0652	11	C4H8N+
89.0387	5	C7H5+
92.0494	4	C6H6N+
103.0546	4	C8H7+
107.0289	2	C7H4F+
109.0449	15	C7H6F+
110.0403	4	C6H5FN+
115.0542	8	C9H7+
116.0497	28	C8H6N+
117.0576	6	C8H7N+
122.0403	14	C7H5FN+
128.0494	10	C9H6N+
129.0574	5	C9H7N+
130.0653	30	C9H8N+
131.0605	8	C8H7N2+
132.0246	3	C8H3FN+
133.0451	4	C9H6F+
134.0402	19	C8H5FN+
134.06	5	C8H8NO+
135.0481	46	C8H6FN+
136.0559	52	C8H7FN+
137.0269	8	C7H4FNO+
137.0513	5	C7H6FN2+
137.0635	5	C8H8FN+
140.0493	5	C10H6N+
142.0656	6	C10H8N+
143.0607	15	C9H7N2+
143.0733	7	C10H9N+
144.0446	8	C9H6NO+
144.0561	10	C8H6N3+
144.081	4	C10H10N+
146.0395	7	C9H5FN+
147.0476	3	C9H6FN+
148.0558	118	C9H7FN+
149.0511	12	C8H6FN2+
149.0635	14	C9H8FN+
150.0349	5	C8H5FNO+
150.0591	9	C8H7FN2+
150.0715	10	C9H9FN+
151.0428	14	C8H6FNO+
151.0673	7	C8H8FN2+
152.0499	7	C8H7FNO+
152.0746	86	C8H9FN2+
155.0605	34	C10H7N2+
156.0684	47	C10H8N2+
157.0763	23	C10H9N2+
158.0606	7	C10H8NO+
159.0539	6	C7H5N5+
159.0926	3	C7H12FN2O+
160.043	4	C9H5FN2+
160.0562	9	C10H7FN+
161.0272	11	C9H4FNO+
161.0512	26	C9H6FN2+
161.0639	30	C10H8FN+
162.0353	49	C9H5FNO+
162.0587	17	C9H7FN2+
162.072	13	C10H9FN+
163.0429	37	C9H6FNO+
163.0667	50	C9H8FN2+
163.0796	2	C10H10FN+
164.0508	37	C9H7FNO+
164.0742	3	C9H9FN2+
165.045	8	C11H5N2+
165.0592	6	C9H8FNO+
165.0824	51	C9H10FN2+
167.0602	9	C11H7N2+
169.0175	3	C7H4FNO3+
169.0764	17	C11H9N2+
170.0715	10	C10H8N3+
170.0836	5	C11H10N2+
171.055	7	C10H7N2O+
171.092	30	C11H11N2+
172.0755	7	C11H10NO+
173.0508	10	C10H6FN2+
174.0352	6	C10H5FNO+
174.0591	32	C10H7FN2+
175.0304	5	C9H4FN2O+
175.0669	84	C10H8FN2+
176.0504	22	C10H7FNO+
176.0746	195	C10H9FN2+
177.0585	26	C10H8FNO+
177.0822	19	C10H10FN2+
178.029	3	C12H4NO+
178.0539	21	C9H7FN2O+
178.0661	19	C10H9FNO+
179.0617	43	C9H8FN2O+
179.0982	29	C10H12FN2+
180.0459	2	C9H7FNO2+
181.0766	2	C12H9N2+
182.0713	7	C11H8N3+
182.0854	2	C9H11FN2O+
183.0552	4	C11H7N2O+
183.0923	7	C12H11N2+
184.0634	17	C11H8N2O+
184.0875	2	C11H10N3+
185.0712	67	C11H9N2O+
186.059	7	C11H7FN2+
187.0668	55	C11H8FN2+
188.0389	33	C10H5FN2O+
188.0747	6	C11H9FN2+
189.046	27	C10H6FN2O+
189.0825	413	C11H10FN2+
190.0656	33	C11H9FNO+
190.0906	6	C11H11FN2+
191.0618	72	C10H8FN2O+
191.098	7	C11H12FN2+
192.0697	11	C10H9FN2O+
193.0772	9	C10H10FN2O+
195.0329	16	C9H6FNO3+
196.0871	12	C12H10N3+
198.0689	17	C10H11FO3+
198.1031	14	C12H12N3+
199.0496	2	C11H7N2O2+
201.0829	6	C12H10FN2+
202.0304	3	C11H5FNO2+
202.0542	7	C11H7FN2O+
203.0617	341	C11H8FN2O+
203.0987	42	C12H12FN2+
204.0695	41	C11H9FN2O+
204.106	55	C12H13FN2+
205.0775	177	C11H10FN2O+
206.0856	4	C11H11FN2O+
207.0931	13	C11H12FN2O+
210.0657	4	C12H8N3O+
210.1031	15	C13H12N3+
211.0863	2	C13H11N2O+
211.1106	27	C13H13N3+
212.0826	4	C12H10N3O+
213.1019	3	C13H13N2O+
215.0255	9	C11H4FN2O2+
215.0975	4	C13H12FN2+
216.0337	9	C11H5FN2O2+
217.0412	25	C11H6FN2O2+
217.0773	38	C12H10FN2O+
218.049	8	C11H7FN2O2+
218.0852	25	C12H11FN2O+
219.0563	6	C11H8FN2O2+
219.093	25	C12H12FN2O+
223.0628	11	C14H9NO2+
224.0461	9	C12H6N3O2+
224.0822	7	C13H10N3O+
224.118	2	C14H14N3+
225.0534	6	C12H7N3O2+
225.0909	5	C15H13O2+
225.1254	2	C14H15N3+
226.0614	13	C12H8N3O2+
226.0981	22	C13H12N3O+
230.1099	8	C13H13FN3+
231.0567	999	C12H8FN2O2+
233.1088	19	C13H14FN2O+
235.0525	3	C11H8FN2O3+
245.0722	29	C13H10FN2O2+
249.0672	18	C12H10FN2O3+
252.0762	8	C14H10N3O2+
253.0846	4	C14H11N3O2+
254.0926	41	C14H12N3O2+
259.0884	6	C14H12FN2O2+
263.082	2	C16H11N2O2+
272.102	8	C14H14N3O3+
274.0987	12	C14H13FN3O2+
282.123	12	C16H16N3O2+
