Mass spectrum: Tritosulfuron; LC-ESI-ITFT; MS2; CE: 60%; R=15000; [M+H]+
Name: Tritosulfuron
Name: N-{[4-methoxy-6-(trifluoromethyl)-1,3,5-triazin-2-yl]carbamoyl}-2-(trifluoromethyl)benzenesulfonamide
Formula: C13H9F6N5O4S
Exact mass: 445.0279
SMILES: c1c(S(=O)(=O)NC(Nc2nc(nc(n2)C(F)(F)F)OC)=O)c(C(F)(F)F)ccc1
InChI: InChI=1S/C13H9F6N5O4S/c1-28-11-21-8(13(17,18)19)20-9(23-11)22-10(25)24-29(26,27)7-5-3-2-4-6(7)12(14,15)16/h2-5H,1H3,(H2,20,21,22,23,24,25)
Instrument: LTQ Orbitrap XL Thermo Scientific
Instrument type: LC-ESI-ITFT
Ms type: MS2
Ion mode: POSITIVE
Ionization: ESI
Fragmentation mode: HCD
Collision energy: 60 % (nominal)
Resolution: 15000
Column name: XBridge C18 3.5um, 2.1x50mm, Waters
Retention time: 10.8 min
Base peak: 446.0345
Precursor m/z: 446.0352
Precursor type: [M+H]+
m/z	relative intensity	assigned
58.0288	5	C2H4NO+
68.9947	6	CF3+
69.0083	29	C2HN2O+
75.9995	2	C2F2N+
83.0241	43	C3H3N2O+
91.0104	2	C2HF2N2+
91.9943	9	C2F2NO+
110.0213	560	C3H3F3N+
114.0278	2	C6H4F2+
120.0209	2	C7H4O2+
123.0356	4	C6H4FN2+
125.02	2	C7H3F2+
125.0458	4	C4H5N4O+
127.0479	258	C3H6F3N2+
130.0401	54	C4H6F4+
133.021	4	C4H3F2N2O+
138.0275	11	C8H4F2+
139.0118	1	C3H2F3N2O+
140.0308	3	C7H4F2N+
142.0226	4	C7H4F2O+
144.0004	13	C4F2N3O+
145.026	999	C7H4F3+
148.0194	2	C8H3FNO+
148.0315	9	CH9FN2O3S+
152.0436	1	C9H6F2+
153.0274	1	C4H4F3N2O+
153.04	2	C5H5N4O2+
165.0224	4	C8H4FNO2+
165.9954	3	C2H3FN4O2S+
168.0257	71	C8H4F2NO+
173.0473	7	C5H6FN4O2+
175.0427	14	C2H10FN3O3S+
184.0065	6	C7H6NO3S+
186.0019	9	C2H4F2N4O2S+
193.0533	18	C10H8FNO2+
195.0489	352	C5H6F3N4O+
199.0263	4	C3H6F5NO3+
200.0171	3	C3H6F2N4O2S+
208.9881	6	C7H4F3O2S+
221.0282	143	C11H5F2NO2+
231.9874	9	C8H4F2NO3S+
