Mass spectrum: Cyanofenphos; LC-ESI-QFT; MS2; CE: 60%; R=17500; [M+H]+
Name: Cyanofenphos
Name: 4-[ethoxy(phenyl)phosphinothioyl]oxybenzonitrile
Formula: C15H14NO2PS
Exact mass: 303.0483
SMILES: CCOP(=S)(C1=CC=CC=C1)OC2=CC=C(C=C2)C#N
InChI: InChI=1S/C15H14NO2PS/c1-2-17-19(20,15-6-4-3-5-7-15)18-14-10-8-13(12-16)9-11-14/h3-11H,2H2,1H3
Instrument: Exploris 240 Orbitrap Thermo Scientific
Instrument type: LC-ESI-QFT
Ms type: MS2
Ion mode: POSITIVE
Ionization: ESI
Fragmentation mode: HCD
Collision energy: 60 % (nominal)
Resolution: 17500
Column name: XBridge C18 3.5um, 2.1x50mm, Waters
Retention time: 10.835 min
Base peak: 363.0217
Precursor m/z: 304.0556
Precursor type: [M+H]+
m/z	relative intensity	assigned
62.9453	168	PS+
65.0387	4	C5H5+
77.0386	42	C2H8NP+
78.0465	13	C6H6+
79.0542	22	C6H7+
91.0541	7	C7H7+
92.0494	108	C6H6N+
95.049	25	C6H7O+
102.0339	12	C7H4N+
110.0185	76	C6H6S+
119.0365	9	C7H5NO+
120.0444	286	C7H6NO+
134.0058	50	C7H4NS+
136.0215	56	C7H6NS+
138.9765	96	C6H4PS+
139.9841	25	C6H5PS+
141.0098	45	C6H6O2P+
156.9871	999	C6H6OPS+
179.9667	97	C7H3NOPS+
189.0131	54	C7H10O2PS+
197.9776	27	C7H5NO2PS+
198.0469	6	C12H9NP+
211.045	9	C13H9NS+
224.0267	14	C13H7NOP+
242.0363	55	C13H9NO2P+
258.0134	42	C13H9NOPS+
