Mass spectrum: Venlafaxine N-Oxide; LC-ESI-QFT; MS2; CE: 75; R=35000; [M+H]+
Name: Venlafaxine N-Oxide
Name: 2-(1-hydroxycyclohexyl)-2-(4-methoxyphenyl)-N,N-dimethylethanamine oxide
Formula: C17H27NO3
Exact mass: 293.19909
SMILES: OC1(C(C2=CC=C(OC)C=C2)C[N+](C)(C)[O-])CCCCC1
InChI: InChI=1S/C17H27NO3/c1-18(2,20)13-16(17(19)11-5-4-6-12-17)14-7-9-15(21-3)10-8-14/h7-10,16,19H,4-6,11-13H2,1-3H3
Instrument: Q Exactive Plus Orbitrap Thermo Scientific
Instrument type: LC-ESI-QFT
Ms type: MS2
Ion mode: POSITIVE
Ionization: ESI
Fragmentation mode: HCD
Collision energy: 75 (nominal)
Resolution: 35000
Column name: XBridge C18 3.5um, 2.1x50mm, Waters
Retention time: 6.6 min
Base peak: 294.206
Precursor m/z: 294.2064
Precursor type: [M+H]+
m/z	relative intensity	assigned
51.0229	1	C4H3+
53.0386	5	C4H5+
55.0178	1	C3H3O+
55.0542	2	C4H7+
57.0334	1	C3H5O+
58.0651	4	C3H8N+
62.06	6	C2H8NO+
65.0385	2	C5H5+
67.0542	1	C5H7+
77.0385	12	C6H5+
78.0463	15	C6H6+
79.0542	13	C6H7+
81.0698	43	C6H9+
91.0542	53	C7H7+
93.0699	5	C7H9+
95.0491	19	C6H7O+
99.0804	14	C6H11O+
103.0541	4	C8H7+
105.0447	11	C6H5N2+
105.0698	12	C8H9+
106.0412	7	C7H6O+
107.0492	1	C7H7O+
109.0647	2	C7H9O+
115.054	1	C9H7+
120.0571	2	C8H8O+
120.0806	1	C8H10N+
121.0647	999	C8H9O+
132.0567	1	C9H8O+
133.0648	1	C9H9O+
135.0803	13	C9H11O+
144.0567	1	C10H8O+
146.0965	3	C10H12N+
147.0804	7	C10H11O+
147.1041	2	C10H13N+
148.0756	9	C9H10NO+
158.0726	2	C11H10O+
159.0804	2	C11H11O+
162.0914	1	C10H12NO+
163.099	6	C10H13NO+
173.096	2	C12H13O+
178.1223	1	C11H16NO+
