Mass spectrum: Dimoxystrobin; LC-ESI-QFT; MS2; CE: 120; R=35000; [M+H]+
Name: Dimoxystrobin
Name: 2-[2-[(2,5-dimethylphenoxy)methyl]phenyl]-2-methoxyimino-N-methylacetamide
Formula: C19H22N2O3
Exact mass: 326.16304
SMILES: CC1=CC(=C(C=C1)C)OCC2=CC=CC=C2C(=NOC)C(=O)NC
InChI: InChI=1S/C19H22N2O3/c1-13-9-10-14(2)17(11-13)24-12-15-7-5-6-8-16(15)18(21-23-4)19(22)20-3/h5-11H,12H2,1-4H3,(H,20,22)
Instrument: Q Exactive Plus Orbitrap Thermo Scientific
Instrument type: LC-ESI-QFT
Ms type: MS2
Ion mode: POSITIVE
Ionization: ESI
Fragmentation mode: HCD
Collision energy: 120 (nominal)
Resolution: 35000
Column name: XBridge C18 3.5um, 2.1x50mm, Waters
Retention time: 12.4 min
Base peak: 327.1694
Precursor m/z: 327.1703
Precursor type: [M+H]+
m/z	relative intensity	assigned
50.0151	2	C4H2+
53.0022	2	C3HO+
53.0385	2	C4H5+
58.0287	602	C2H4NO+
61.0072	2	C5H+
62.015	9	C5H2+
63.0229	221	C5H3+
64.0181	12	C4H2N+
65.0385	50	C5H5+
66.0337	2	C4H4N+
66.0463	7	C5H6+
77.0385	6	C6H5+
78.0464	2	C6H6+
79.0541	7	C6H7+
81.0336	3	C5H5O+
88.0181	6	C6H2N+
88.0306	2	C7H4+
89.0385	999	C7H5+
90.0338	63	C6H4N+
90.0464	58	C7H6+
91.0542	25	C7H7+
95.0491	10	C6H7O+
103.0541	3	C8H7+
104.0493	5	C7H6N+
105.0446	5	C6H5N2+
107.049	3	C7H7O+
114.0337	2	C8H4N+
115.0415	4	C8H5N+
115.0541	2	C9H7+
116.0494	228	C8H6N+
117.0572	33	C8H7N+
118.0651	2	C8H8N+
128.0496	4	C9H6N+
130.0651	1	C9H8N+
132.0444	2	C8H6NO+
134.06	8	C8H8NO+
139.054	1	C11H7+
141.0699	1	C11H9+
145.0759	1	C9H9N2+
146.0602	3	C9H8NO+
152.062	17	C12H8+
153.0697	4	C12H9+
165.0699	23	C13H9+
167.0729	3	C12H9N+
167.0855	2	C13H11+
169.0648	2	C12H9O+
176.062	4	C14H8+
177.0695	5	C14H9+
178.0654	1	C13H8N+
178.0776	22	C14H10+
179.0851	1	C14H11+
180.0807	19	C13H10N+
189.0699	3	C15H9+
190.0649	2	C14H8N+
191.0727	4	C14H9N+
191.0854	1	C15H11+
192.0808	5	C14H10N+
193.0887	6	C14H11N+
194.0964	5	C14H12N+
202.0776	3	C16H10+
204.0805	4	C15H10N+
220.0755	2	C15H10NO+
