Mass spectrum: Cortisone; LC-ESI-QFT; MS2; CE: 60; R=35000; [M+H]+
Name: Cortisone
Name: 17,21-Dihydroxypregn-4-ene-3,11,20-trione
Name: (8S,9S,10R,13S,14S,17R)-17-hydroxy-17-(2-hydroxyacetyl)-10,13-dimethyl-1,2,6,7,8,9,12,14,15,16-decahydrocyclopenta[a]phenanthrene-3,11-dione
Formula: C21H28O5
Exact mass: 360.19367
SMILES: O=C(CO)[C@@]3(O)CC[C@H]2[C@@H]4CC\C1=C\C(=O)CC[C@]1(C)[C@H]4C(=O)C[C@@]23C
InChI: InChI=1S/C21H28O5/c1-19-7-5-13(23)9-12(19)3-4-14-15-6-8-21(26,17(25)11-22)20(15,2)10-16(24)18(14)19/h9,14-15,18,22,26H,3-8,10-11H2,1-2H3/t14-,15-,18+,19-,20-,21-/m0/s1
Instrument: Q Exactive Plus Orbitrap Thermo Scientific
Instrument type: LC-ESI-QFT
Ms type: MS2
Ion mode: POSITIVE
Ionization: ESI
Fragmentation mode: HCD
Collision energy: 60 (nominal)
Resolution: 35000
Column name: XBridge C18 3.5um, 2.1x50mm, Waters
Retention time: 7.3 min
Base peak: 361.2008
Precursor m/z: 361.201
Precursor type: [M+H]+
m/z	relative intensity	assigned
51.0228	1	C4H3+
53.0023	2	C3HO+
53.0385	10	C4H5+
55.0178	58	C3H3O+
55.0542	43	C4H7+
57.0335	7	C3H5O+
57.0699	4	C4H9+
61.0284	2	C2H5O2+
65.0385	9	C5H5+
67.0542	83	C5H7+
69.0335	28	C4H5O+
69.0699	58	C5H9+
71.0491	17	C4H7O+
75.044	2	C3H7O2+
77.0384	14	C6H5+
79.0542	162	C6H7+
81.0335	19	C5H5O+
81.0699	183	C6H9+
83.0491	153	C5H7O+
85.0648	5	C5H9O+
91.0542	169	C7H7+
93.0699	399	C7H9+
95.0491	55	C6H7O+
95.0855	96	C7H11+
97.0648	243	C6H9O+
99.0441	5	C5H7O2+
103.0542	14	C8H7+
105.0699	489	C8H9+
106.0777	1	C8H10+
107.0491	58	C7H7O+
107.0855	334	C8H11+
108.0568	1	C7H8O+
109.0648	61	C7H9O+
109.1011	14	C8H13+
111.0441	5	C6H7O2+
111.0804	12	C7H11O+
115.0541	16	C9H7+
116.0622	5	C9H8+
117.0699	123	C9H9+
118.0777	1	C9H10+
119.0856	227	C9H11+
120.0934	1	C9H12+
121.0648	534	C8H9O+
121.1012	140	C9H13+
123.0804	104	C8H11O+
125.0599	6	C7H9O2+
125.0961	1	C8H13O+
127.0537	1	C10H7+
128.0619	26	C10H8+
129.0698	61	C10H9+
130.0778	36	C10H10+
131.0855	137	C10H11+
132.0569	4	C9H8O+
132.0935	1	C10H12+
133.0648	50	C9H9O+
133.1012	101	C10H13+
134.0727	4	C9H10O+
135.0804	115	C9H11O+
135.1168	87	C10H15+
137.0597	7	C8H9O2+
137.0961	14	C9H13O+
139.0753	23	C8H11O2+
141.0698	26	C11H9+
142.0777	29	C11H10+
143.0856	154	C11H11+
144.0571	6	C10H8O+
144.0932	7	C11H12+
145.0648	36	C10H9O+
145.1012	333	C11H13+
146.0726	6	C10H10O+
146.109	4	C11H14+
147.0804	128	C10H11O+
147.1168	29	C11H15+
148.0882	90	C10H12O+
149.0961	39	C10H13O+
151.0753	8	C9H11O2+
152.0619	2	C12H8+
153.0698	9	C12H9+
154.0779	10	C12H10+
155.0855	73	C12H11+
156.0934	15	C12H12+
157.0649	19	C11H9O+
157.1012	94	C12H13+
158.0726	9	C11H10O+
158.109	5	C12H14+
159.0804	78	C11H11O+
159.1168	55	C12H15+
160.0884	6	C11H12O+
160.1247	1	C12H16+
161.0596	5	C10H9O2+
161.0961	86	C11H13O+
161.1327	9	C12H17+
162.1039	8	C11H14O+
163.1117	999	C11H15O+
165.0698	17	C13H9+
165.0911	4	C10H13O2+
166.0775	10	C13H10+
167.0855	24	C13H11+
168.0933	20	C13H12+
169.0649	3	C12H9O+
169.1012	71	C13H13+
170.0727	5	C12H10O+
170.1088	8	C13H14+
171.0804	40	C12H11O+
171.1168	56	C13H15+
172.0883	6	C12H12O+
173.0961	59	C12H13O+
173.1326	15	C13H17+
174.1039	15	C12H14O+
175.0753	8	C11H11O2+
175.1119	34	C12H15O+
176.1195	4	C12H16O+
177.091	9	C11H13O2+
178.0776	5	C14H10+
179.0856	26	C14H11+
179.1066	2	C11H15O2+
180.0933	16	C14H12+
181.1011	65	C14H13+
182.0725	4	C13H10O+
182.109	20	C14H14+
183.0806	15	C13H11O+
183.1168	88	C14H15+
184.0885	9	C13H12O+
184.1248	9	C14H16+
185.0961	41	C13H13O+
185.1325	40	C14H17+
186.104	4	C13H14O+
186.1403	6	C14H18+
187.0754	6	C12H11O2+
187.1118	32	C13H15O+
187.1479	3	C14H19+
188.1196	4	C13H16O+
189.0911	17	C12H13O2+
189.1273	35	C13H17O+
190.0778	1	C15H10+
191.0854	7	C15H11+
191.1064	5	C12H15O2+
192.0935	11	C15H12+
193.1012	36	C15H13+
194.1091	17	C15H14+
195.0805	9	C14H11O+
195.1168	63	C15H15+
196.0885	7	C14H12O+
196.1244	11	C15H16+
197.0961	29	C14H13O+
197.1325	56	C15H17+
198.1038	5	C14H14O+
198.1405	4	C15H18+
199.1118	39	C14H15O+
199.148	22	C15H19+
200.1197	4	C14H16O+
200.1562	4	C15H20+
201.0911	6	C13H13O2+
201.1274	16	C14H17O+
202.1352	4	C14H18O+
203.0856	3	C16H11+
203.1067	6	C13H15O2+
203.1432	8	C14H19O+
204.0939	5	C16H12+
205.1012	15	C16H13+
206.1091	21	C16H14+
207.0807	2	C15H11O+
207.1168	27	C16H15+
208.0883	7	C15H12O+
208.1248	13	C16H16+
209.0963	17	C15H13O+
209.1326	43	C16H17+
210.1041	8	C15H14O+
210.1401	6	C16H18+
211.1118	27	C15H15O+
211.1481	21	C16H19+
212.1195	7	C15H16O+
212.1556	1	C16H20+
213.0908	3	C14H13O2+
213.1274	25	C15H17O+
213.1639	8	C16H21+
214.1356	6	C15H18O+
215.1069	3	C14H15O2+
215.143	10	C15H19O+
216.0939	1	C17H12+
217.1014	6	C17H13+
217.1223	2	C14H17O2+
218.109	7	C17H14+
219.0804	1	C16H11O+
219.117	14	C17H15+
220.1248	5	C17H16+
221.0962	6	C16H13O+
221.1326	27	C17H17+
222.1044	3	C16H14O+
222.1409	6	C17H18+
223.1118	23	C16H15O+
223.1482	25	C17H19+
224.1198	10	C16H16O+
224.1561	6	C17H20+
225.1274	39	C16H17O+
225.1639	20	C17H21+
226.1352	24	C16H18O+
227.107	4	C15H15O2+
227.1431	27	C16H19O+
228.1513	2	C16H20O+
229.1011	1	C18H13+
229.1226	4	C15H17O2+
229.159	5	C16H21O+
231.1165	4	C18H15+
232.1244	8	C18H16+
233.0959	1	C17H13O+
233.1323	10	C18H17+
234.1037	1	C17H14O+
234.1409	4	C18H18+
235.1117	5	C17H15O+
235.1481	8	C18H19+
236.1197	4	C17H16O+
236.1551	1	C18H20+
237.1274	20	C17H17O+
237.1637	13	C18H21+
238.1353	6	C17H18O+
238.172	1	C18H22+
239.1431	30	C17H19O+
239.1795	6	C18H23+
240.151	13	C17H20O+
241.1224	7	C16H17O2+
241.1587	81	C17H21O+
242.1666	33	C17H22O+
243.138	44	C16H19O2+
243.1739	6	C17H23O+
244.1449	1	C16H20O2+
245.1328	1	C19H17+
246.1401	4	C19H18+
247.1123	1	C18H15O+
247.1485	5	C19H19+
248.1187	1	C18H16O+
249.1277	9	C18H17O+
249.1639	5	C19H21+
250.1353	5	C18H18O+
251.1065	1	C17H15O2+
251.1431	21	C18H19O+
251.1796	1	C19H23+
252.1506	7	C18H20O+
253.1586	14	C18H21O+
254.1302	4	C17H18O2+
254.1665	1	C18H22O+
255.1378	5	C17H19O2+
255.1744	19	C18H23O+
256.1822	20	C18H24O+
257.1537	11	C17H21O2+
257.1902	1	C18H25O+
258.1615	127	C17H22O2+
261.1637	1	C20H21+
263.1433	2	C19H19O+
264.1507	1	C19H20O+
265.1589	14	C19H21O+
266.1666	6	C19H22O+
267.138	5	C18H19O2+
267.1743	8	C19H23O+
268.146	1	C18H20O2+
269.1536	61	C18H21O2+
270.1619	2	C18H22O2+
271.1696	4	C18H23O2+
274.1343	1	C20H18O+
279.1746	2	C20H23O+
281.1532	5	C19H21O2+
282.1618	1	C19H22O2+
283.1692	7	C19H23O2+
284.1771	37	C19H24O2+
285.1481	4	C18H21O3+
287.1644	1	C18H23O3+
295.1695	1	C20H23O2+
299.1644	10	C19H23O3+
300.1717	4	C19H24O3+
301.1791	1	C19H25O3+
303.1593	1	C18H23O4+
313.1786	1	C20H25O3+
