Mass spectrum: Maprotiline; LC-ESI-QFT; MS2; CE: 60; R=35000; [M+H]+
Name: Maprotiline
Formula: C20H23N
Exact mass: 277.18305
SMILES: CNCCCC12CCC(C3=CC=CC=C31)C4=CC=CC=C24
InChI: InChI=1S/C20H23N/c1-21-14-6-12-20-13-11-15(16-7-2-4-9-18(16)20)17-8-3-5-10-19(17)20/h2-5,7-10,15,21H,6,11-14H2,1H3
Instrument: Q Exactive Orbitrap Thermo Scientific
Instrument type: LC-ESI-QFT
Ms type: MS2
Ion mode: POSITIVE
Ionization: ESI
Fragmentation mode: HCD
Collision energy: 60 (nominal)
Resolution: 35000
Column name: XBridge C18 3.5um, 2.1x50mm, Waters
Retention time: 8.5 min
Base peak: 278.1906
Precursor m/z: 278.1903
Precursor type: [M+H]+
m/z	relative intensity	assigned
58.0652	2	C3H8N+
65.0386	4	C5H5+
67.0543	1	C5H7+
69.0699	5	C5H9+
70.0651	50	C4H8N+
72.0807	28	C4H10N+
79.0543	4	C6H7+
91.0542	550	C7H7+
103.0543	4	C8H7+
105.0699	52	C8H9+
115.0542	69	C9H7+
116.062	3	C9H8+
117.0699	691	C9H9+
119.0854	15	C9H11+
128.062	29	C10H8+
129.0698	69	C10H9+
131.0856	210	C10H11+
141.0698	260	C11H9+
143.0856	75	C11H11+
153.0699	2	C12H9+
154.0778	15	C12H10+
155.061	1	C10H7N2+
155.0855	26	C12H11+
156.0934	1	C12H12+
165.0699	5	C13H9+
167.0855	4	C13H11+
169.1012	149	C13H13+
176.0623	1	C14H8+
178.0777	578	C14H10+
179.0855	53	C14H11+
189.0695	8	C15H9+
190.0775	18	C15H10+
191.0856	999	C15H11+
192.0935	1	C15H12+
193.1012	150	C15H13+
202.0771	8	C16H10+
203.0854	36	C16H11+
204.0935	188	C16H12+
205.1013	117	C16H13+
206.1093	1	C16H14+
215.0854	1	C17H11+
217.1013	22	C17H13+
218.1092	27	C17H14+
219.1169	908	C17H15+
232.1248	6	C18H16+
247.1482	2	C19H19+
250.1591	251	C18H20N+
278.1909	12	C20H24N+
