Mass spectrum: Midazolam; LC-ESI-QFT; MS2; CE: 75; R=35000; [M+H]+
Name: Midazolam
Name: 8-chloranyl-6-(2-fluorophenyl)-1-methyl-4H-imidazo[1,5-a][1,4]benzodiazepine
Formula: C18H13ClFN3
Exact mass: 325.07820
SMILES: CC1=NC=C2N1C3=C(C=C(C=C3)Cl)C(=NC2)C4=CC=CC=C4F
InChI: InChI=1S/C18H13ClFN3/c1-11-21-9-13-10-22-18(14-4-2-3-5-16(14)20)15-8-12(19)6-7-17(15)23(11)13/h2-9H,10H2,1H3
Instrument: Q Exactive Orbitrap Thermo Scientific
Instrument type: LC-ESI-QFT
Ms type: MS2
Ion mode: POSITIVE
Ionization: ESI
Fragmentation mode: HCD
Collision energy: 75 (nominal)
Resolution: 35000
Column name: XBridge C18 3.5um, 2.1x50mm, Waters
Retention time: 6.5 min
Base peak: 326.086
Precursor m/z: 326.0855
Precursor type: [M+H]+
m/z	relative intensity	assigned
54.034	4	C3H4N+
55.0418	5	C3H5N+
68.0495	4	C4H6N+
91.0544	2	C7H7+
95.0604	46	C5H7N2+
102.0465	75	C8H6+
105.0575	9	C7H7N+
108.056	3	C5H6N3+
109.0449	5	C7H6F+
113.0398	5	C3H9ClFN+
115.0543	18	C9H7+
121.0448	29	C8H6F+
122.0402	9	C7H5FN+
123.0354	9	C6H4FN2+
127.0418	5	C9H5N+
128.0496	78	C9H6N+
129.0574	224	C9H7N+
133.0524	33	C5H10ClN2+
136.0079	2	C8H5Cl+
137.0154	56	C8H6Cl+
138.0107	10	C7H5ClN+
139.006	4	C6H4ClN2+
140.0495	3	C10H6N+
142.0654	10	C10H8N+
143.0731	5	C10H9N+
144.0444	3	C6H9ClN2+
146.0402	18	C9H5FN+
146.0601	27	C6H11ClN2+
147.0481	24	C9H6FN+
148.0559	32	C9H7FN+
151.0427	3	C5H9ClFN2+
152.0263	47	C8H7ClN+
153.045	13	C10H5N2+
154.0528	7	C10H6N2+
155.0605	28	C10H7N2+
160.0559	9	C10H7FN+
160.0759	3	C7H13ClN2+
162.0107	58	C9H5ClN+
162.0353	4	C6H8ClFN2+
162.0715	11	C10H9FN+
163.0058	35	C8H4ClN2+
163.0182	24	C9H6ClN+
164.0009	9	C7H3ClN3+
164.0263	70	C9H7ClN+
165.0701	3	C13H9+
168.0574	3	C9H11ClN+
168.0685	9	C11H8N2+
169.0762	30	C11H9N2+
170.0839	72	C11H10N2+
171.0555	4	C7H10ClN3+
173.051	19	C10H6FN2+
174.059	17	C10H7FN2+
176.0265	5	C10H7ClN+
177.0214	14	C9H6ClN2+
177.0574	24	C13H7N+
178.0057	2	C9H5ClNO+
178.0422	17	C10H9ClN+
179.0377	3	C9H8ClN2+
180.0212	18	C9H7ClNO+
180.057	10	C10H11ClN+
181.0163	3	C8H6ClN2O+
181.0443	3	C13H6F+
182.0529	23	C13H7F+
183.0606	162	C13H8F+
184.0685	58	C13H9F+
185.0716	3	C8H12ClN3+
186.0477	28	C9H10ClFN+
187.0669	5	C11H8FN2+
189.0215	217	C10H6ClN2+
189.0827	19	C11H10FN2+
194.0523	2	C14H7F+
195.0796	6	C12H9N3+
196.0684	121	C14H9F+
196.0872	18	C12H10N3+
198.0717	17	C13H9FN+
200.0631	5	C10H12ClFN+
201.0572	9	C15H7N+
202.0654	20	C15H8N+
203.0373	15	C11H8ClN2+
203.0732	43	C15H9N+
204.0451	4	C11H9ClN2+
204.0809	15	C15H10N+
205.0531	25	C11H10ClN2+
208.0559	184	C14H7FN+
209.0637	843	C14H8FN+
210.0713	36	C14H9FN+
211.0795	13	C14H10FN+
212.0638	3	C11H12ClFN+
214.078	13	C17H10+
215.0857	30	C17H11+
217.0217	77	C13H7ClF+
220.0761	17	C12H13ClN2+
221.0637	14	C15H8FN+
222.0716	339	C15H9FN+
223.0794	560	C15H10FN+
224.0263	33	C14H7ClN+
224.0869	24	C15H11FN+
226.0664	73	C11H12ClFN2+
227.0742	57	C11H13ClFN2+
228.0686	3	C16H8N2+
229.0763	75	C16H9N2+
230.0483	27	C12H9ClN3+
230.0842	39	C16H10N2+
231.0377	4	C14H9ClF+
231.0559	42	C12H10ClN3+
231.0916	18	C16H11N2+
232.0324	11	C13H8ClFN+
232.0558	4	C16H7FN+
233.0635	19	C16H8FN+
234.0712	4	C16H9FN+
235.0793	11	C16H10FN+
236.0748	13	C15H9FN2+
236.0873	19	C16H11FN+
237.0824	11	C15H10FN2+
237.0953	29	C16H12FN+
238.0417	19	C15H9ClN+
238.0665	23	C12H12ClFN2+
240.0824	9	C12H14ClFN2+
241.0216	13	C15H7ClF+
242.0173	11	C14H6ClFN+
242.0838	11	C17H10N2+
243.092	59	C17H11N2+
244.0327	151	C14H8ClFN+
245.0405	41	C14H9ClFN+
246.0706	3	C17H9FN+
247.0671	5	C16H8FN2+
248.0745	5	C16H9FN2+
248.0863	4	C17H11FN+
249.0825	945	C16H10FN2+
250.0903	296	C16H11FN2+
251.0981	19	C16H12FN2+
253.0764	11	C18H9N2+
255.0692	205	C15H12ClN2+
256.0324	13	C15H8ClFN+
256.0763	4	C15H13ClN2+
256.0876	5	C17H10N3+
257.0279	38	C14H7ClFN2+
257.0406	31	C15H9ClFN+
258.0483	211	C15H10ClFN+
259.0432	3	C14H9ClFN2+
260.0273	2	C17H7ClN+
261.0825	13	C17H10FN2+
262.0903	4	C17H11FN2+
263.0983	49	C17H12FN2+
264.1062	17	C17H13FN2+
265.053	96	C16H10ClN2+
268.0328	16	C16H8ClFN+
269.0402	4	C16H9ClFN+
270.0353	3	C15H8ClFN2+
270.1027	54	C18H12N3+
271.0431	8	C15H9ClFN2+
271.1101	25	C18H13N3+
272.0523	5	C15H10ClFN2+
273.0594	9	C15H11ClFN2+
273.0826	33	C18H10FN2+
274.0901	19	C18H11FN2+
275.0858	4	C17H10FN3+
276.0936	61	C17H11FN3+
279.0687	3	C17H12ClN2+
282.0484	12	C17H10ClFN+
283.0439	43	C16H9ClFN2+
284.0514	122	C16H10ClFN2+
285.0591	108	C16H11ClFN2+
288.0939	16	C18H11FN3+
289.0303	8	C18H8ClNO+
289.053	169	C18H10ClN2+
289.1007	13	C18H12FN3+
290.1089	132	C18H13FN3+
291.1168	999	C18H14FN3+
297.0592	20	C17H11ClFN2+
298.0677	3	C17H12ClFN2+
299.0746	11	C17H13ClFN2+
304.0633	4	C18H11ClN3+
306.0796	13	C18H13ClN3+
307.0434	50	C18H9ClFN2+
309.0592	100	C18H11ClFN2+
310.0528	4	C17H10ClFN3+
311.0623	31	C17H11ClFN3+
325.0777	59	C18H13ClFN3+
326.0858	34	C18H14ClFN3+
