Mass spectrum: Formetanate; LC-ESI-QFT; MS2; CE: 75%; R=17500; [M+H]+
Name: Formetanate
Name: [3-(dimethylaminomethylideneamino)phenyl] N-methylcarbamate
Formula: C11H15N3O2
Exact mass: 221.1164
SMILES: CNC(=O)OC1=CC=CC(=C1)N=CN(C)C
InChI: InChI=1S/C11H15N3O2/c1-12-11(15)16-10-6-4-5-9(7-10)13-8-14(2)3/h4-8H,1-3H3,(H,12,15)
Instrument: Exploris 240 Orbitrap Thermo Scientific
Instrument type: LC-ESI-QFT
Ms type: MS2
Ion mode: POSITIVE
Ionization: ESI
Fragmentation mode: HCD
Collision energy: 75 % (nominal)
Resolution: 17500
Column name: XBridge C18 3.5um, 2.1x50mm, Waters
Retention time: 1.752 min
Base peak: 132.9582
Precursor m/z: 222.1237
Precursor type: [M+H]+
m/z	relative intensity	assigned
65.0387	43	C5H5+
93.0336	58	C6H5O+
111.0441	104	C6H7O2+
120.0444	660	C7H6NO+
121.0396	159	C6H5N2O+
165.1022	999	C9H13N2O+
