Mass spectrum: Pirimicarb-desamido; LC-ESI-QFT; MS2; CE: 30%; R=17500; [M+H]+
Name: Pirimicarb-desamido
Name: 2-(dimethylamino)-5,6-dimethyl-1H-pyrimidin-4-one
Formula: C8H13N3O
Exact mass: 167.1059
SMILES: CC1=C(N=C(N=C1C)N(C)C)O
InChI: InChI=1S/C8H13N3O/c1-5-6(2)9-8(11(3)4)10-7(5)12/h1-4H3,(H,9,10,12)
Instrument: Q Exactive Plus Orbitrap Thermo Scientific
Instrument type: LC-ESI-QFT
Ms type: MS2
Ion mode: POSITIVE
Ionization: ESI
Fragmentation mode: HCD
Collision energy: 30 % (nominal)
Resolution: 17500
Column name: XBridge C18 3.5um, 2.1x50mm, Waters
Retention time: 1.434 min
Base peak: 168.1132
Precursor m/z: 168.1131
Precursor type: [M+H]+
m/z	relative intensity	assigned
71.06	6	C3H7N2+
98.06	12	C5H8NO+
123.0552	3	C6H7N2O+
150.1024	3	C8H12N3+
153.0893	1	C7H11N3O+
168.1131	999	C8H14N3O+
