Mass spectrum: Norfentanyl; LC-ESI-QFT; MS2; CE: 75; R=35000; [M+H]+
Name: Norfentanyl
Name: N-phenyl-N-piperidin-4-ylpropanamide
Formula: C14H20N2O
Exact mass: 232.15756
SMILES: CCC(=O)N(C1CCNCC1)C2=CC=CC=C2
InChI: InChI=1S/C14H20N2O/c1-2-14(17)16(12-6-4-3-5-7-12)13-8-10-15-11-9-13/h3-7,13,15H,2,8-11H2,1H3
Instrument: Q Exactive Plus Orbitrap Thermo Scientific
Instrument type: LC-ESI-QFT
Ms type: MS2
Ion mode: POSITIVE
Ionization: ESI
Fragmentation mode: HCD
Collision energy: 75 (nominal)
Resolution: 35000
Column name: XBridge C18 3.5um, 2.1x50mm, Waters
Retention time: 4.7 min
Base peak: 233.1641
Precursor m/z: 233.1648
Precursor type: [M+H]+
m/z	relative intensity	assigned
53.0385	14	C4H5+
55.0542	629	C4H7+
56.0494	606	C3H6N+
57.0334	89	C3H5O+
57.0698	19	C4H9+
65.0385	4	C5H5+
67.0542	73	C5H7+
69.0572	4	C4H7N+
82.065	32	C5H8N+
84.0807	999	C5H10N+
94.065	140	C6H8N+
95.049	1	C6H7O+
117.0572	2	C8H7N+
120.0807	4	C8H10N+
132.0807	21	C9H10N+
150.0912	32	C9H12NO+
