Mass spectrum: Thiamphenicol; LC-ESI-QFT; MS2; CE: 15; R=35000; [M-H]-
Name: Thiamphenicol
Name: 2,2-dichloro-N-[1,3-dihydroxy-1-(4-methylsulfonylphenyl)propan-2-yl]acetamide
Formula: C12H15Cl2NO5S
Exact mass: 355.00480
SMILES: CS(=O)(=O)C1=CC=C(C=C1)C(C(CO)NC(=O)C(Cl)Cl)O
InChI: InChI=1S/C12H15Cl2NO5S/c1-21(19,20)8-4-2-7(3-5-8)10(17)9(6-16)15-12(18)11(13)14/h2-5,9-11,16-17H,6H2,1H3,(H,15,18)
Instrument: Q Exactive Plus Orbitrap Thermo Scientific
Instrument type: LC-ESI-QFT
Ms type: MS2
Ion mode: NEGATIVE
Ionization: ESI
Fragmentation mode: HCD
Collision energy: 15 (nominal)
Resolution: 35000
Column name: XBridge C18 3.5um, 2.1x50mm, Waters
Retention time: 3.5 min
Base peak: 353.9974
Precursor m/z: 353.9975
Precursor type: [M-H]-
m/z	relative intensity	assigned
70.9462	1	Cl2H-
78.9858	5	CH3O2S-
84.0091	3	C3H2NO2-
86.0248	14	C3H4NO2-
98.0248	1	C4H4NO2-
114.0197	1	C4H4NO3-
119.0503	21	C8H7O-
125.9519	4	C2H2Cl2NO-
126.936	7	C2HCl2O2-
134.0015	1	C4H5ClNO2-
145.0659	9	C10H9O-
183.0122	19	C8H7O3S-
184.0198	2	C8H8O3S-
185.0277	35	C8H9O3S-
208.044	1	C10H10NO2S-
209.0279	14	C10H9O3S-
212.0387	1	C9H10NO3S-
227.0386	101	C7H14ClNO3S-
240.0338	61	C10H10NO4S-
252.0337	5	C11H10NO4S-
270.0444	101	C11H12NO5S-
282.0443	41	C12H12NO5S-
290.0263	331	C11H13ClNO4S-
353.9977	999	C12H14Cl2NO5S-
