Mass spectrum: Di-n-butyl phthalate; LC-ESI-QFT; MS2; CE: 120; R=35000; [M+H]+
Name: Di-n-butyl phthalate
Name: Dibutyl phthalate
Name: dibutyl benzene-1,2-dicarboxylate
Formula: C16H22O4
Exact mass: 278.15181
SMILES: CCCCOC(=O)C1=CC=CC=C1C(=O)OCCCC
InChI: InChI=1S/C16H22O4/c1-3-5-11-19-15(17)13-9-7-8-10-14(13)16(18)20-12-6-4-2/h7-10H,3-6,11-12H2,1-2H3
Instrument: Q Exactive Plus Orbitrap Thermo Scientific
Instrument type: LC-ESI-QFT
Ms type: MS2
Ion mode: POSITIVE
Ionization: ESI
Fragmentation mode: HCD
Collision energy: 120 (nominal)
Resolution: 35000
Column name: XBridge C18 3.5um, 2.1x50mm, Waters
Retention time: 14.2 min
Base peak: 279.1587
Precursor m/z: 279.1591
Precursor type: [M+H]+
m/z	relative intensity	assigned
53.0023	19	C3HO+
53.9975	4	C2NO+
55.0179	3	C3H3O+
57.0699	4	C4H9+
65.0386	999	C5H5+
67.9893	3	C3O2+
68.9972	1	C3HO2+
80.0257	2	C5H4O+
93.0336	36	C6H5O+
98.0363	1	C5H6O2+
111.0442	42	C6H7O2+
121.0285	70	C7H5O2+
121.0398	109	C6H5N2O+
149.0235	22	C8H5O3+
