Mass spectrum: Meptazinol; LC-ESI-QFT; MS2; CE: 75; R=35000; [M+H]+
Name: Meptazinol
Name: 3-(3-ethyl-1-methylazepan-3-yl)phenol
Formula: C15H23NO
Exact mass: 233.17796
SMILES: CCC1(CCCCN(C1)C)C2=CC(=CC=C2)O
InChI: InChI=1S/C15H23NO/c1-3-15(9-4-5-10-16(2)12-15)13-7-6-8-14(17)11-13/h6-8,11,17H,3-5,9-10,12H2,1-2H3
Instrument: Q Exactive Orbitrap Thermo Scientific
Instrument type: LC-ESI-QFT
Ms type: MS2
Ion mode: POSITIVE
Ionization: ESI
Fragmentation mode: HCD
Collision energy: 75 (nominal)
Resolution: 35000
Column name: XBridge C18 3.5um, 2.1x50mm, Waters
Retention time: 4.9 min
Base peak: 234.1853
Precursor m/z: 234.1852
Precursor type: [M+H]+
m/z	relative intensity	assigned
53.0386	1	C4H5+
58.0652	11	C3H8N+
65.0385	3	C5H5+
67.0542	49	C5H7+
69.0699	7	C5H9+
70.0651	26	C4H8N+
72.0807	2	C4H10N+
77.0384	14	C6H5+
79.0542	70	C6H7+
81.0699	12	C6H9+
83.0855	9	C6H11+
84.0808	19	C5H10N+
86.0964	8	C5H12N+
91.0542	52	C7H7+
93.0698	19	C7H9+
95.0491	41	C6H7O+
95.0855	20	C7H11+
96.0808	2	C6H10N+
98.0965	4	C6H12N+
103.0542	18	C8H7+
105.0448	18	C6H5N2+
105.0699	90	C8H9+
107.0491	999	C7H7O+
109.1011	7	C8H13+
111.1041	1	C7H13N+
115.0542	5	C9H7+
117.0698	6	C9H9+
119.0491	7	C8H7O+
119.0854	19	C9H11+
121.0647	72	C8H9O+
126.1277	13	C8H16N+
128.0619	9	C10H8+
129.0696	3	C10H9+
131.049	7	C9H7O+
131.0855	3	C10H11+
132.057	26	C9H8O+
133.0647	160	C9H9O+
133.1012	11	C10H13+
135.0804	5	C9H11O+
143.0855	2	C11H11+
144.0568	1	C10H8O+
145.0649	13	C10H9O+
146.0726	30	C10H10O+
147.0804	68	C10H11O+
159.0804	5	C11H11O+
160.0881	1	C11H12O+
161.096	49	C11H13O+
175.1114	1	C12H15O+
234.1851	8	C15H24NO+
