Mass spectrum: MCLF; LC-ESI-QFT; MS2; CE: 180%; R=17500; [M-H]-
Name: MCLF
Name: Microcystin LF
Name: 15-benzyl-18-[(1E,3E)-6-methoxy-3,5-dimethyl-7-phenylhepta-1,3-dienyl]-1,5,12,19-tetramethyl-2-methylidene-8-(2-methylpropyl)-3,6,9,13,16,20,25-heptaoxo-1,4,7,10,14,17,21-heptazacyclopentacosane-11,22-dicarboxylic acid
Class: NA
Formula: C52H71N7O12
Exact mass: 985.5161
SMILES: COC(Cc1ccccc1)C(C)/C=C(C)/C=C/C2NC(=O)C(Cc3ccccc3)NC(=O)C(C)C(NC(=O)C(CC(C)C)NC(=O)C(C)NC(=O)C(=C)N(C)C(=O)CCC(NC(=O)C2C)C(O)=O)C(O)=O
InChI: InChI=1S/C52H71N7O12/c1-29(2)25-40-50(66)58-44(52(69)70)33(6)46(62)56-41(27-36-17-13-11-14-18-36)49(65)54-38(22-21-30(3)26-31(4)42(71-10)28-37-19-15-12-16-20-37)32(5)45(61)55-39(51(67)68)23-24-43(60)59(9)35(8)48(64)53-34(7)47(63)57-40/h11-22,26,29,31-34,38-42,44H,8,23-25,27-28H2,1-7,9-10H3,(H,53,64)(H,54,65)(H,55,61)(H,56,62)(H,57,63)(H,58,66)(H,67,68)(H,69,70)/b22-21+,30-26+
Instrument: Q Exactive Plus Orbitrap Thermo Scientific
Instrument type: LC-ESI-QFT
Ms type: MS2
Ion mode: NEGATIVE
Ionization: ESI
Fragmentation mode: HCD
Collision energy: 180 % (nominal)
Resolution: 17500
Column name: XBridge C18 3.5um, 2.1x50mm, Waters
Retention time: 12.295 min
Base peak: 190.9277
Precursor m/z: 984.5088
Precursor type: [M-H]-
m/z	relative intensity	assigned
72.0456	203	C3H6NO-
74.0247	197	C2H4NO2-
80.0505	81	C5H6N-
82.017	88	C3H2N2O-
82.0299	117	C4H4NO-
82.0661	257	C5H8N-
83.0254	100	C3H3N2O-
84.0455	354	C4H6NO-
87.0565	185	C3H7N2O-
95.025	243	C4H3N2O-
97.0404	223	C4H5N2O-
98.0124	107	C3H2N2O2-
108.0206	133	C4H2N3O-
109.0409	753	C5H5N2O-
110.0248	999	C5H4NO2-
112.0402	125	C5H6NO2-
116.0504	214	C8H6N-
118.0665	163	C8H8N-
124.0401	96	C6H6NO2-
127.0511	301	C5H7N2O2-
128.0353	177	C5H6NO3-
