Mass spectrum: Valsartan acid; LC-ESI-QFT; MS2; CE: 45; R=35000; [M+H]+
Name: Valsartan acid
Name: 4-[2-(2H-1,2,3,4-tetrazol-5-yl)phenyl]benzoic acid
Formula: C14H10N4O2
Exact mass: 266.08038
SMILES: C1=CC=C(C(=C1)C2=CC=C(C=C2)C(=O)O)C3=NNN=N3
InChI: InChI=1S/C14H10N4O2/c19-14(20)10-7-5-9(6-8-10)11-3-1-2-4-12(11)13-15-17-18-16-13/h1-8H,(H,19,20)(H,15,16,17,18)
Instrument: Q Exactive Plus Orbitrap Thermo Scientific
Instrument type: LC-ESI-QFT
Ms type: MS2
Ion mode: POSITIVE
Ionization: ESI
Fragmentation mode: HCD
Collision energy: 45 (nominal)
Resolution: 35000
Column name: XBridge C18 3.5um, 2.1x50mm, Waters
Retention time: 6.8 min
Base peak: 267.0873
Precursor m/z: 267.0877
Precursor type: [M+H]+
m/z	relative intensity	assigned
139.0541	1	C11H7+
151.0538	3	C12H7+
165.0698	1	C13H9+
166.0651	29	C12H8N+
169.0649	2	C12H9O+
170.0596	1	C11H8NO+
177.0568	3	C13H7N+
178.065	46	C13H8N+
179.0599	1	C12H7N2+
180.0807	17	C13H10N+
181.0523	1	C12H7NO+
184.0756	7	C12H10NO+
192.0681	16	C13H8N2+
193.076	35	C13H9N2+
194.0716	1	C12H8N3+
196.0756	31	C13H10NO+
206.06	999	C14H8NO+
221.0708	19	C14H9N2O+
224.0703	1	C14H10NO2+
240.0651	3	C12H8N4O2+
249.0768	3	C14H9N4O+
