Mass spectrum: Ethofumesate; LC-ESI-ITFT; MS2; CE: 75%; R=15000; [M+H]+
Name: Ethofumesate
Name: (2-ethoxy-3,3-dimethyl-2H-1-benzofuran-5-yl) methanesulfonate
Formula: C13H18O5S
Exact mass: 286.0869
SMILES: S(=O)(=O)(C)O-c(ccc1O2)cc1C(C2OCC)(C)C
InChI: InChI=1S/C13H18O5S/c1-5-16-12-13(2,3)10-8-9(18-19(4,14)15)6-7-11(10)17-12/h6-8,12H,5H2,1-4H3
Instrument: LTQ Orbitrap XL Thermo Scientific
Instrument type: LC-ESI-ITFT
Ms type: MS2
Ion mode: POSITIVE
Ionization: ESI
Fragmentation mode: HCD
Collision energy: 75 % (nominal)
Resolution: 15000
Column name: XBridge C18 3.5um, 2.1x50mm, Waters
Retention time: 10.0 min
Base peak: 309.0774
Precursor m/z: 287.0948
Precursor type: [M+H]+
m/z	relative intensity	assigned
55.0178	13	C3H3O+
65.0386	6	C5H5+
68.9972	5	C3HO2+
71.0491	15	C4H7O+
77.0386	81	C6H5+
79.0543	150	C6H7+
81.0006	15	CH5O2S+
81.0336	6	C5H5O+
81.0699	63	C6H9+
91.0543	386	C7H7+
93.0699	226	C7H9+
95.0491	44	C6H7O+
103.0542	401	C8H7+
105.0699	800	C8H9+
106.0777	45	C8H10+
107.0491	110	C7H7O+
109.0285	43	C6H5O2+
109.0648	99	C7H9O+
115.0542	321	C9H7+
116.0622	23	C9H8+
117.0699	96	C9H9+
119.0491	63	C8H7O+
121.0649	999	C8H9O+
123.0441	38	C7H7O2+
127.0546	6	C10H7+
133.0648	586	C9H9O+
134.0726	319	C9H10O+
135.0804	89	C9H11O+
137.0597	278	C8H9O2+
138.0672	8	C8H10O2+
143.0492	55	C10H7O+
144.0568	18	C10H8O+
145.0648	84	C10H9O+
147.044	70	C9H7O2+
149.0965	13	C10H13O+
155.0605	27	C10H7N2+
160.0522	7	C10H8O2+
161.0598	315	C10H9O2+
162.0675	158	C10H10O2+
163.0754	42	C10H11O2+
173.071	113	C10H9N2O+
185.0268	7	C8H9O3S+
