Mass spectrum: Nitrazepam; LC-ESI-QFT; MS2; CE: 30; R=35000; [M+H]+
Name: Nitrazepam
Name: 7-nitro-5-phenyl-1,3-dihydro-1,4-benzodiazepin-2-one
Formula: C15H11N3O3
Exact mass: 281.08004
SMILES: C1C(=O)NC2=C(C=C(C=C2)[N+](=O)[O-])C(=N1)C3=CC=CC=C3
InChI: InChI=1S/C15H11N3O3/c19-14-9-16-15(10-4-2-1-3-5-10)12-8-11(18(20)21)6-7-13(12)17-14/h1-8H,9H2,(H,17,19)
Instrument: Q Exactive Plus Orbitrap Thermo Scientific
Instrument type: LC-ESI-QFT
Ms type: MS2
Ion mode: POSITIVE
Ionization: ESI
Fragmentation mode: HCD
Collision energy: 30 (nominal)
Resolution: 35000
Column name: XBridge C18 3.5um, 2.1x50mm, Waters
Retention time: 7.7 min
Base peak: 282.0866
Precursor m/z: 282.0873
Precursor type: [M+H]+
m/z	relative intensity	assigned
91.0541	2	C7H7+
158.0477	1	C9H6N2O+
176.0455	2	C8H6N3O2+
196.0759	2	C13H10NO+
204.0405	2	C9H6N3O3+
208.0992	1	C14H12N2+
235.0867	5	C15H11N2O+
236.0944	67	C15H12N2O+
251.0811	2	C15H11N2O2+
254.0924	8	C14H12N3O2+
268.0843	21	C15H12N2O3+
282.0872	999	C15H12N3O3+
