Mass spectrum: Oxacillin; LC-ESI-QFT; MS2; CE: 60; R=35000; [M-H]-
Name: Oxacillin
Name: (2S,5R,6R)-3,3-dimethyl-6-[(5-methyl-3-phenyl-1,2-oxazole-4-carbonyl)amino]-7-oxo-4-thia-1-azabicyclo[3.2.0]heptane-2-carboxylic acid
Formula: C19H19N3O5S
Exact mass: 401.10454
SMILES: CC1=C(C(=O)N[C@H]2[C@H]3SC(C)(C)[C@@H](N3C2=O)C(O)=O)C(=NO1)C1=CC=CC=C1
InChI: InChI=1S/C19H19N3O5S/c1-9-11(12(21-27-9)10-7-5-4-6-8-10)15(23)20-13-16(24)22-14(18(25)26)19(2,3)28-17(13)22/h4-8,13-14,17H,1-3H3,(H,20,23)(H,25,26)/t13-,14+,17-/m1/s1
Instrument: Q Exactive Plus Orbitrap Thermo Scientific
Instrument type: LC-ESI-QFT
Ms type: MS2
Ion mode: NEGATIVE
Ionization: ESI
Fragmentation mode: HCD
Collision energy: 60 (nominal)
Resolution: 35000
Column name: XBridge C18 3.5um, 2.1x50mm, Waters
Retention time: 8.4 min
Base peak: 400.097
Precursor m/z: 400.0973
Precursor type: [M-H]-
m/z	relative intensity	assigned
55.0189	4	C3H3O-
56.9805	6	C2HS-
57.9757	108	CNS-
58.0299	79	C2H4NO-
58.9961	170	C2H3S-
65.9986	157	C3NO-
69.9757	5	C2NS-
70.9836	278	C2HNS-
71.9915	472	C2H2NS-
72.9993	194	C2H3NS-
74.0071	9	C2H4NS-
74.9911	999	C2H3OS-
82.0299	602	C4H4NO-
83.0139	645	C4H3O2-
83.9913	10	C3H2NS-
85.0118	22	C4H5S-
94.0299	35	C5H4NO-
96.0092	20	C4H2NO2-
96.0456	19	C5H6NO-
97.9708	8	C3NOS-
99.9863	123	C3H2NOS-
101.0397	25	C8H5-
102.0351	5	C7H4N-
106.0171	10	C5H2N2O-
107.0252	9	C5H3N2O-
110.9911	11	C5H3OS-
112.9941	46	C4H3NOS-
114.002	57	C4H4NOS-
116.0507	26	C8H6N-
117.0346	18	C8H5O-
120.0329	7	C6H4N2O-
122.025	37	C6H4NO2-
124.0405	6	C6H6NO2-
133.0119	7	C8H5S-
140.0509	8	C10H6N-
142.0663	43	C10H8N-
143.0615	231	C9H7N2-
144.0455	87	C9H6NO-
146.0198	5	C9H6S-
147.0274	25	C9H7S-
156.0128	11	C6H6NO2S-
156.0689	6	C10H8N2-
157.0772	5	C10H9N2-
158.0612	77	C10H8NO-
159.0565	6	C9H7N2O-
161.018	9	C8H5N2S-
169.0408	48	C10H5N2O-
170.062	5	C5H14O4S-
171.0565	109	C10H7N2O-
172.0228	39	C10H6NS-
173.0305	387	C10H7NS-
174.0384	300	C10H8NS-
182.0486	18	C11H6N2O-
182.0609	80	C12H8NO-
183.0565	33	C11H7N2O-
184.0404	53	C11H6NO2-
184.0642	120	C11H8N2O-
185.072	215	C11H9N2O-
197.0716	7	C12H9N2O-
198.0561	6	C12H8NO2-
199.0514	80	C11H7N2O2-
200.0592	127	C11H8N2O2-
201.0254	19	C11H7NOS-
201.067	157	C11H9N2O2-
208.0643	26	C13H8N2O-
211.0515	33	C12H7N2O2-
215.0288	65	C11H7N2OS-
216.0362	116	C11H8N2OS-
216.0541	25	C11H8N2O3-
217.0442	118	C11H9N2OS-
225.0672	736	C13H9N2O2-
226.0749	20	C13H10N2O2-
227.0828	33	C13H11N2O2-
240.054	7	C13H8N2O3-
241.0445	24	C13H9N2OS-
257.0388	6	C13H9N2O2S-
258.047	22	C13H10N2O2S-
259.055	12	C13H11N2O2S-
