Mass spectrum: MCLR; LC-ESI-QFT; MS2; CE: 30%; R=17500; [M-H]-
Name: MCLR
Name: Microcystin LR
Name: (5R,8S,11R,12S,15S,18S,19S,22R)-15-[3-(diaminomethylideneamino)propyl]-18-[(1E,3E,5S,6S)-6-methoxy-3,5-dimethyl-7-phenylhepta-1,3-dienyl]-1,5,12,19-tetramethyl-2-methylidene-8-(2-methylpropyl)-3,6,9,13,16,20,25-heptaoxo-1,4,7,10,14,17,21-heptazacyclopentacosane-11,22-dicarboxylic acid
Class: NA
Formula: C49H74N10O12
Exact mass: 994.5488
SMILES: CO[C@@H](Cc1ccccc1)[C@@H](C)/C=C(C)/C=C/[C@@H]2NC(=O)[C@H](CCCNC(N)=N)NC(=O)[C@@H](C)[C@@H](NC(=O)[C@H](CC(C)C)NC(=O)[C@@H](C)NC(=O)C(=C)N(C)C(=O)CC[C@@H](NC(=O)[C@H]2C)C(O)=O)C(O)=O
InChI: InChI=1S/C49H74N10O12/c1-26(2)23-37-46(66)58-40(48(69)70)30(6)42(62)55-35(17-14-22-52-49(50)51)45(65)54-34(19-18-27(3)24-28(4)38(71-10)25-33-15-12-11-13-16-33)29(5)41(61)56-36(47(67)68)20-21-39(60)59(9)32(8)44(64)53-31(7)43(63)57-37/h11-13,15-16,18-19,24,26,28-31,34-38,40H,8,14,17,20-23,25H2,1-7,9-10H3,(H,53,64)(H,54,65)(H,55,62)(H,56,61)(H,57,63)(H,58,66)(H,67,68)(H,69,70)(H4,50,51,52)/b19-18+,27-24+/t28-,29-,30-,31+,34-,35-,36+,37-,38-,40+/m0/s1
Instrument: Q Exactive Plus Orbitrap Thermo Scientific
Instrument type: LC-ESI-QFT
Ms type: MS2
Ion mode: NEGATIVE
Ionization: ESI
Fragmentation mode: HCD
Collision energy: 30 % (nominal)
Resolution: 17500
Column name: XBridge C18 3.5um, 2.1x50mm, Waters
Retention time: 8.567 min
Base peak: 190.9277
Precursor m/z: 993.5415
Precursor type: [M-H]-
m/z	relative intensity	assigned
110.0249	11	C5H4NO2-
124.0399	22	C6H6NO2-
128.0352	742	C5H6NO3-
129.1034	14	C6H13N2O-
153.0661	31	C5H7N5O-
165.1037	15	C9H13N2O-
170.0924	11	C5H10N6O-
184.0608	25	C6H8N4O3-
200.1394	46	C7H16N6O-
211.0716	28	C7H9N5O3-
226.119	18	C8H14N6O2-
240.1346	33	C9H16N6O2-
248.1146	24	C10H18NO6-
265.1656	116	C11H19N7O-
266.1249	9	C10H20NO7-
283.176	251	C11H21N7O2-
293.1611	14	C13H25O7-
311.1715	96	C13H27O8-
412.2202	65	C18H30N5O6-
536.3255	10	C31H38N9-
579.3247	14	C25H47N4O11-
580.313	124	C30H46NO10-
691.3446	24	C34H45N9O7-
708.3894	42	C42H52N4O6-
774.3818	64	C38H50N10O8-
801.4267	13	C37H57N10O10-
958.4985	43	C49H68N9O11-
975.531	999	C49H71N10O11-
993.5432	99	C49H73N10O12-
