Mass spectrum: Clozapine; LC-ESI-ITFT; MS2; CE: 45%; R=7500; [M+H]+
Name: Clozapine
Name: 8-chloro-11-(4-methylpiperazin-1-yl)-5H-dibenzo[b,e][1,4]diazepine
Formula: C18H19ClN4
Exact mass: 326.1298
SMILES: C1(=Nc2c(Nc3c1cccc3)ccc(c2)Cl)N1CCN(CC1)C
InChI: InChI=1S/C18H19ClN4/c1-22-8-10-23(11-9-22)18-14-4-2-3-5-15(14)20-16-7-6-13(19)12-17(16)21-18/h2-7,12,20H,8-11H2,1H3
Instrument: LTQ Orbitrap XL Thermo Scientific
Instrument type: LC-ESI-ITFT
Ms type: MS2
Ion mode: POSITIVE
Ionization: ESI
Fragmentation mode: HCD
Collision energy: 45 % (nominal)
Resolution: 7500
Column name: XBridge C18 3.5um, 2.1x50mm, Waters
Retention time: 6.4 min
Base peak: 327.1383
Precursor m/z: 327.1371
Precursor type: [M+H]+
m/z	relative intensity	assigned
58.0652	4	C3H8N+
84.0808	107	C5H10N+
85.0764	4	C4H9N2+
192.0683	22	C13H8N2+
227.037	67	C13H8ClN2+
229.0521	6	C13H10ClN2+
244.0645	2	C13H11ClN3+
253.0532	4	C15H10ClN2+
268.0627	3	C15H11ClN3+
270.0793	999	C15H13ClN3+
296.0949	110	C17H15ClN3+
327.1373	98	C18H20ClN4+
