Mass spectrum: Sulfanilic acid; LC-ESI-ITFT; MS2; CE: 90%; R=7500; [M-H]-
Name: Sulfanilic acid
Name: 4-aminobenzenesulfonic acid
Formula: C6H7NO3S
Exact mass: 173.0147
SMILES: S(c1ccc(N)cc1)(O)(=O)=O
InChI: InChI=1S/C6H7NO3S/c7-5-1-3-6(4-2-5)11(8,9)10/h1-4H,7H2,(H,8,9,10)
Instrument: LTQ Orbitrap XL Thermo Scientific
Instrument type: LC-ESI-ITFT
Ms type: MS2
Ion mode: NEGATIVE
Ionization: ESI
Fragmentation mode: HCD
Collision energy: 90 % (nominal)
Resolution: 7500
Column name: XBridge C18 3.5um, 2.1x50mm, Waters
Retention time: 0.9 min
Base peak: 172.008
Precursor m/z: 172.0074
Precursor type: [M-H]-
m/z	relative intensity	assigned
79.9574	999	O3S-
107.0377	67	C6H5NO-
108.0453	95	C6H6NO-
172.0072	204	C6H6NO3S-
