Mass spectrum: Tolfenpyrad; LC-ESI-QFT; MS2; CE: 75%; R=17500; [M+H]+
Name: Tolfenpyrad
Name: 4-chloro-5-ethyl-2-methyl-N-[[4-(4-methylphenoxy)phenyl]methyl]pyrazole-3-carboxamide
Formula: C21H22ClN3O2
Exact mass: 383.1401
SMILES: CCC1=NN(C(=C1Cl)C(=O)NCC2=CC=C(C=C2)OC3=CC=C(C=C3)C)C
InChI: InChI=1S/C21H22ClN3O2/c1-4-18-19(22)20(25(3)24-18)21(26)23-13-15-7-11-17(12-8-15)27-16-9-5-14(2)6-10-16/h5-12H,4,13H2,1-3H3,(H,23,26)
Instrument: Exploris 240 Orbitrap Thermo Scientific
Instrument type: LC-ESI-QFT
Ms type: MS2
Ion mode: POSITIVE
Ionization: ESI
Fragmentation mode: HCD
Collision energy: 75 % (nominal)
Resolution: 17500
Column name: XBridge C18 3.5um, 2.1x50mm, Waters
Retention time: 13.456 min
Base peak: 308.0038
Precursor m/z: 384.1473
Precursor type: [M+H]+
m/z	relative intensity	assigned
54.0338	23	C3H4N+
56.0132	18	C2H2NO+
65.0388	63	C5H5+
75.9949	158	C2H3ClN+
81.0448	26	C4H5N2+
90.0105	80	C3H5ClN+
91.0542	739	C7H7+
106.0653	27	C7H8N+
107.049	102	C7H7O+
109.065	14	C7H9O+
117.0215	692	C4H6ClN2+
119.0604	75	C7H7N2+
128.0623	30	C10H8+
129.0697	74	C10H9+
141.07	224	C11H9+
143.0375	36	C6H8ClN2+
145.0527	196	C6H10ClN2+
152.0622	24	C12H8+
153.0697	150	C12H9+
154.0777	999	C12H10+
167.0858	51	C13H11+
169.1012	655	C13H13+
171.0322	123	C7H8ClN2O+
182.0731	66	C10H13ClN+
197.0961	637	C14H13O+
