Mass spectrum: Trinexapac-ethyl; LC-ESI-ITFT; MS2; CE: 45%; R=15000; [M+H]+
Name: Trinexapac-ethyl
Name: 4-[cyclopropyl(hydroxy)methylene]-3,5-diketo-cyclohexanecarboxylic acid ethyl ester
Formula: C13H16O5
Exact mass: 252.0992
SMILES: CCOC(=O)C1CC(=O)C(=C(C2CC2)O)C(=O)C1
InChI: InChI=1S/C13H16O5/c1-2-18-13(17)8-5-9(14)11(10(15)6-8)12(16)7-3-4-7/h7-8,16H,2-6H2,1H3/b12-11-
Instrument: LTQ Orbitrap XL Thermo Scientific
Instrument type: LC-ESI-ITFT
Ms type: MS2
Ion mode: POSITIVE
Ionization: ESI
Fragmentation mode: HCD
Collision energy: 45 % (nominal)
Resolution: 15000
Column name: XBridge C18 3.5um, 2.1x50mm, Waters
Retention time: 8.9 min
Base peak: 253.1073
Precursor m/z: 253.1071
Precursor type: [M+H]+
m/z	relative intensity	assigned
69.0335	999	C4H5O+
83.049	11	C5H7O+
85.0283	11	C4H5O2+
109.0284	23	C6H5O2+
111.044	147	C6H7O2+
113.0233	12	C5H5O3+
123.0077	21	C6H3O3+
123.0442	9	C7H7O2+
133.0648	7	C9H9O+
137.0233	167	C7H5O3+
137.0598	32	C8H9O2+
139.039	336	C7H7O3+
141.0183	9	C6H5O4+
151.0753	36	C9H11O2+
155.0341	20	C7H7O4+
161.0598	11	C10H9O2+
165.0183	411	C8H5O4+
179.0702	251	C10H11O3+
183.0288	106	C8H7O5+
185.0807	107	C9H13O4+
207.0652	301	C11H11O4+
225.0762	8	C11H13O5+
253.1069	39	C13H17O5+
