Mass spectrum: Nicosulfuron-TP UCSN; LC-ESI-QFT; MS2; CE: 75%; R=17500; [M-H]-
Name: Nicosulfuron-TP UCSN
Name: 2-[(Carbamoylcarbamoyl)sulfamoyl]-N,N-dimethylnicotinamide
Formula: C10H13N5O5S
Exact mass: 315.0637
SMILES: CN(C)C(=O)C1=CC=CN=C1S(=O)(=O)NC(=O)NC(N)=O
InChI: InChI=1S/C10H13N5O5S/c1-15(2)8(16)6-4-3-5-12-7(6)21(19,20)14-10(18)13-9(11)17/h3-5H,1-2H3,(H4,11,13,14,17,18)
Instrument: Q Exactive Plus Orbitrap Thermo Scientific
Instrument type: LC-ESI-QFT
Ms type: MS2
Ion mode: NEGATIVE
Ionization: ESI
Fragmentation mode: HCD
Collision energy: 75 % (nominal)
Resolution: 17500
Column name: XBridge C18 3.5um, 2.1x50mm, Waters
Retention time: 1.525 min
Base peak: 314.0565
Precursor m/z: 314.0565
Precursor type: [M-H]-
m/z	relative intensity	assigned
55.03	16	C2H3N2-
58.0297	107	C2H4NO-
59.025	52	CH3N2O-
61.9706	307	NOS-
63.9625	214	O2S-
66.0349	44	C4H4N-
77.9656	162	NO2S-
78.9734	148	HNO2S-
79.9812	85	H2NO2S-
81.022	28	C4H3NO-
91.0302	15	C5H3N2-
93.0221	43	C5H3NO-
93.0459	738	C5H5N2-
94.0299	999	C5H4NO-
96.0453	12	C5H6NO-
103.0302	182	C6H3N2-
108.0453	20	C6H6NO-
117.0459	65	C7H5N2-
119.0251	346	C6H3N2O-
121.0173	25	H9O5S-
121.0408	108	C6H5N2O-
122.025	26	C6H4NO2-
131.0489	143	C7H5N3-
132.0329	89	C7H4N2O-
134.0728	14	C7H8N3-
138.0558	49	C7H8NO2-
144.0563	21	H10N5O2S-
146.0729	13	C8H8N3-
147.0439	293	C7H5N3O-
147.0557	31	H11N4O3S-
149.0356	23	C7H5N2O2-
149.0594	140	C7H7N3O-
150.0434	198	C7H6N2O2-
162.0675	134	C8H8N3O-
164.083	38	C8H10N3O-
165.0669	210	C8H9N2O2-
181.0076	142	C7H5N2O2S-
182.9868	391	C6H3N2O3S-
