Mass spectrum: Imidacloprid; LC-ESI-ITFT; MS2; CE: 45%; R=7500; [M+H]+
Name: Imidacloprid
Name: N-[1-[(6-chloranylpyridin-3-yl)methyl]-4,5-dihydroimidazol-2-yl]nitramide
Formula: C9H10ClN5O2
Exact mass: 255.0523
SMILES: Cl-c(ncc1CN(CC2)C(N2)=NN(=O)=O)cc1
InChI: InChI=1S/C9H10ClN5O2/c10-8-2-1-7(5-12-8)6-14-4-3-11-9(14)13-15(16)17/h1-2,5H,3-4,6H2,(H,11,13)
Instrument: LTQ Orbitrap XL Thermo Scientific
Instrument type: LC-ESI-ITFT
Ms type: MS2
Ion mode: POSITIVE
Ionization: ESI
Fragmentation mode: HCD
Collision energy: 45 % (nominal)
Resolution: 7500
Column name: XBridge C18 3.5um, 2.1x50mm, Waters
Retention time: 4.8 min
Base peak: 256.0596
Precursor m/z: 256.0596
Precursor type: [M+H]+
m/z	relative intensity	assigned
56.0494	8	C3H6N+
71.0605	3	C3H7N2+
72.068	3	C3H8N2+
84.0556	122	C3H6N3+
97.0633	10	C4H7N3+
98.0713	9	C4H8N3+
99.0551	24	C4H7N2O+
126.0105	44	C6H5ClN+
128.0261	126	C6H7ClN+
133.0765	4	C8H9N2+
141.0211	5	C6H6ClN2+
146.0587	5	C7H6N4+
146.0714	10	C8H8N3+
147.0666	7	C7H7N4+
148.0866	3	C8H10N3+
151.0183	17	C8H6ClN+
158.0715	1	C9H8N3+
159.0667	1	C8H7N4+
159.0796	1	C9H9N3+
160.0873	1	C9H10N3+
167.0241	9	C7H6ClN3+
167.0377	8	C8H8ClN2+
168.0319	2	C7H7ClN3+
168.0451	2	C8H9ClN2+
173.0821	21	C9H9N4+
174.09	117	C9H10N4+
175.0977	999	C9H11N4+
176.0823	4	C9H10N3O+
180.0317	4	C8H7ClN3+
181.0277	7	C7H6ClN4+
193.0397	10	C9H8ClN3+
194.0478	7	C9H9ClN3+
209.0587	817	C9H10ClN4+
210.0667	52	C9H11ClN4+
212.0584	65	C9H11ClN3O+
