Mass spectrum: Dinoseb; LC-ESI-ITFT; MS2; CE: 35%; R=7500; [M-H]-
Name: Dinoseb
Name: 2,4-dinitro-6-sec-butyl-phenol
Formula: C10H12N2O5
Exact mass: 240.0746
SMILES: OC1=C([N+]([O-])=O)C=C([N+]([O-])=O)C=C1C(C)CC
InChI: InChI=1S/C10H12N2O5/c1-3-6(2)8-4-7(11(14)15)5-9(10(8)13)12(16)17/h4-6,13H,3H2,1-2H3
Instrument: LTQ Orbitrap XL Thermo Scientific
Instrument type: LC-ESI-ITFT
Ms type: MS2
Ion mode: NEGATIVE
Ionization: ESI
Fragmentation mode: CID
Collision energy: 35 % (nominal)
Resolution: 7500
Column name: XBridge C18 3.5um, 2.1x50mm, Waters
Retention time: 13.0 min
Base peak: 239.0673
Precursor m/z: 239.0673
Precursor type: [M-H]-
m/z	relative intensity	assigned
109.0169	5	C5H3NO2-
130.0665	2	C9H8N-
137.0117	11	C6H3NO3-
149.0354	9	C7H5N2O2-
151.0764	4	C9H11O2-
174.0562	6	C10H8NO2-
176.0352	14	C9H6NO3-
179.0714	34	C10H11O3-
180.0304	16	C8H6NO4-
191.0589	27	C10H9NO3-
192.0667	19	C10H10NO3-
193.0256	84	C8H5N2O4-
194.046	999	C9H8NO4-
203.0458	5	C10H7N2O3-
207.0413	12	C9H7N2O4-
208.062	20	C10H10NO4-
209.0694	124	C10H11NO4-
210.0283	91	C8H6N2O5-
221.0569	120	C10H9N2O4-
222.0646	180	C10H10N2O4-
224.0439	8	C9H8N2O5-
239.0673	167	C10H11N2O5-
