Mass spectrum: Venlafaxine; LC-ESI-ITFT; MS2; CE: 45%; R=7500; [M+H]+
Name: Venlafaxine
Name: 1-[2-(dimethylamino)-1-(4-methoxyphenyl)ethyl]-1-cyclohexanol
Formula: C17H27NO2
Exact mass: 277.2042
SMILES: CN(C)CC(C1=CC=C(C=C1)OC)C2(CCCCC2)O
InChI: InChI=1S/C17H27NO2/c1-18(2)13-16(17(19)11-5-4-6-12-17)14-7-9-15(20-3)10-8-14/h7-10,16,19H,4-6,11-13H2,1-3H3
Instrument: LTQ Orbitrap XL Thermo Scientific
Instrument type: LC-ESI-ITFT
Ms type: MS2
Ion mode: POSITIVE
Ionization: ESI
Fragmentation mode: HCD
Collision energy: 45 % (nominal)
Resolution: 7500
Column name: XBridge C18 3.5um, 2.1x50mm, Waters
Retention time: 6.2 min
Base peak: 278.2126
Precursor m/z: 278.2115
Precursor type: [M+H]+
m/z	relative intensity	assigned
58.0652	999	C3H8N+
79.0543	9	C6H7+
91.0545	11	C7H7+
107.0857	15	C8H11+
121.065	333	C8H9O+
135.0807	15	C9H11O+
147.0806	172	C10H11O+
152.1432	8	C10H18N+
159.0805	43	C11H11O+
173.0962	69	C12H13O+
178.1224	8	C11H16NO+
215.1432	206	C15H19O+
260.2002	69	C17H26NO+
