Mass spectrum: Metribuzin-diketo; LC-ESI-ITFT; MS2; CE: 30%; R=15000; [M+H]+
Name: Metribuzin-diketo
Name: 4-amino-6-tert-butyl-2H-1,2,4-triazine-3,5-dione
Formula: C7H12N4O2
Exact mass: 184.0960
SMILES: O=C(NN=C1C(C)(C)C)N(N)C1=O
InChI: InChI=1S/C7H12N4O2/c1-7(2,3)4-5(12)11(8)6(13)10-9-4/h8H2,1-3H3,(H,10,13)
Instrument: LTQ Orbitrap XL Thermo Scientific
Instrument type: LC-ESI-ITFT
Ms type: MS2
Ion mode: POSITIVE
Ionization: ESI
Fragmentation mode: HCD
Collision energy: 30 % (nominal)
Resolution: 15000
Column name: XBridge C18 3.5um, 2.1x50mm, Waters
Retention time: 5.9 min
Base peak: 185.1036
Precursor m/z: 185.1033
Precursor type: [M+H]+
m/z	relative intensity	assigned
57.0698	1	C4H9+
69.0699	2	C5H9+
101.0346	4	C3H5N2O2+
125.0709	1	C6H9N2O+
141.0658	3	C6H9N2O2+
156.0893	2	C7H12N2O2+
157.1084	36	C6H13N4O+
169.072	2	C6H9N4O2+
185.1033	999	C7H13N4O2+
