Mass spectrum: Difethialone; LC-ESI-QFT; MS2; CE: 150%; R=17500; [M+H]+
Name: Difethialone
Name: 3-[3-[4-(4-bromophenyl)phenyl]-1,2,3,4-tetrahydronaphthalen-1-yl]-2-hydroxythiochromen-4-one
Formula: C31H23BrO2S
Exact mass: 538.0602
SMILES: C1C(CC2=CC=CC=C2C1C3=C(SC4=CC=CC=C4C3=O)O)C5=CC=C(C=C5)C6=CC=C(C=C6)Br
InChI: InChI=1S/C31H23BrO2S/c32-24-15-13-20(14-16-24)19-9-11-21(12-10-19)23-17-22-5-1-2-6-25(22)27(18-23)29-30(33)26-7-3-4-8-28(26)35-31(29)34/h1-16,23,27,34H,17-18H2
Instrument: Exploris 240 Orbitrap Thermo Scientific
Instrument type: LC-ESI-QFT
Ms type: MS2
Ion mode: POSITIVE
Ionization: ESI
Fragmentation mode: HCD
Collision energy: 150 % (nominal)
Resolution: 17500
Column name: XBridge C18 3.5um, 2.1x50mm, Waters
Retention time: 17.282 min
Base peak: 541.0654
Precursor m/z: 539.0675
Precursor type: [M+H]+
m/z	relative intensity	assigned
63.0231	57	C5H3+
65.0386	912	C5H5+
68.9794	110	C3HS+
77.0386	187	C6H5+
78.0463	37	C6H6+
89.0384	134	C7H5+
90.0463	36	C7H6+
91.0542	915	C7H7+
95.0493	167	C6H7O+
102.0462	96	C8H6+
108.0029	34	C6H4S+
109.0107	388	C6H5S+
115.0542	453	C9H7+
126.0462	62	C10H6+
127.0542	50	C10H7+
128.062	289	C10H8+
134.0185	57	C8H6S+
139.0543	236	C11H7+
147.0264	36	C9H7S+
150.0464	72	C12H6+
151.0542	186	C12H7+
152.0621	805	C12H8+
153.0698	165	C12H9+
163.0542	402	C13H7+
164.0622	313	C13H8+
165.0699	663	C13H9+
168.0573	37	C12H8O+
169.0648	263	C12H9O+
176.062	807	C14H8+
177.0701	246	C14H9+
178.0777	629	C14H10+
189.0698	85	C15H9+
202.0778	88	C16H10+
215.0857	54	C17H11+
226.0773	137	C18H10+
228.0931	32	C18H12+
237.0702	89	C19H9+
239.0856	999	C19H11+
252.0934	646	C20H12+
253.101	94	C20H13+
254.1093	51	C20H14+
