Mass spectrum: Ampicillin; LC-ESI-QFT; MS2; CE: 15; R=35000; [M-H]-
Name: Ampicillin
Name: 2-amino-1-methyl-5-propylideneimidazol-4-one
Name: 6-[(2-azaniumyl-2-phenylacetyl)amino]-3,3-dimethyl-7-oxo-4-thia-1-azabicyclo[3.2.0]heptane-2-carboxylate
Formula: C16H19N3O4S
Exact mass: 349.10963
SMILES: CC1(C(N2C(S1)C(C2=O)NC(=O)C(C3=CC=CC=C3)N)C(=O)O)C
InChI: InChI=1S/C16H19N3O4S/c1-16(2)11(15(22)23)19-13(21)10(14(19)24-16)18-12(20)9(17)8-6-4-3-5-7-8/h3-7,9-11,14H,17H2,1-2H3,(H,18,20)(H,22,23)
Instrument: Q Exactive Plus Orbitrap Thermo Scientific
Instrument type: LC-ESI-QFT
Ms type: MS2
Ion mode: NEGATIVE
Ionization: ESI
Fragmentation mode: HCD
Collision energy: 15 (nominal)
Resolution: 35000
Column name: XBridge C18 3.5um, 2.1x50mm, Waters
Retention time: 4.7 min
Base peak: 348.1025
Precursor m/z: 348.1024
Precursor type: [M-H]-
m/z	relative intensity	assigned
72.999	1	C2H3NS-
74.007	6	C2H4NS-
171.0601	5	C7H11N2OS-
173.0723	4	C10H9N2O-
207.06	999	C10H11N2OS-
270.1256	1	C15H16N3O2-
304.113	94	C15H18N3O2S-
