Mass spectrum: Tebutam; LC-ESI-ITFT; MS2; CE: 15%; R=15000; [M+H]+
Name: Tebutam
Name: 2,2-dimethyl-N-(phenylmethyl)-N-propan-2-yl-propanamide
Name: N-Benzyl-N-isopropylpivalamide
Formula: C15H23NO
Exact mass: 233.1774
SMILES: c1ccccc1CN(C(=O)C(C)(C)C)C(C)C
InChI: InChI=1S/C15H23NO/c1-12(2)16(14(17)15(3,4)5)11-13-9-7-6-8-10-13/h6-10,12H,11H2,1-5H3
Instrument: LTQ Orbitrap XL Thermo Scientific
Instrument type: LC-ESI-ITFT
Ms type: MS2
Ion mode: POSITIVE
Ionization: ESI
Fragmentation mode: HCD
Collision energy: 15 % (nominal)
Resolution: 15000
Column name: XBridge C18 3.5um, 2.1x50mm, Waters
Retention time: 11.7 min
Base peak: 234.1857
Precursor m/z: 234.1852
Precursor type: [M+H]+
m/z	relative intensity	assigned
57.0697	1	C4H9+
91.0538	16	C7H7+
142.1222	1	C8H16NO+
192.1381	1	C12H18NO+
234.1854	999	C15H24NO+
