Mass spectrum: Mianserin-N-Oxide; LC-ESI-QFT; MS2; CE: 60; R=35000; [M+H]+
Name: Mianserin-N-Oxide
Name: 1,2,3,4,10,14b-Hexahydro-2-methyldibenzo(c,f)pyrazino(1,2-a)azepine 2-oxide
Formula: C18H20N2O
Exact mass: 280.15756
SMILES: C[N+]1(CCN2c3ccccc3Cc4ccccc4C2C1)[O-]
InChI: InChI=1S/C18H20N2O/c1-20(21)11-10-19-17-9-5-3-7-15(17)12-14-6-2-4-8-16(14)18(19)13-20/h2-9,18H,10-13H2,1H3
Instrument: Q Exactive Plus Orbitrap Thermo Scientific
Instrument type: LC-ESI-QFT
Ms type: MS2
Ion mode: POSITIVE
Ionization: ESI
Fragmentation mode: HCD
Collision energy: 60 (nominal)
Resolution: 35000
Column name: XBridge C18 3.5um, 2.1x50mm, Waters
Retention time: 7.0 min
Base peak: 281.1644
Precursor m/z: 281.1648
Precursor type: [M+H]+
m/z	relative intensity	assigned
56.0494	32	C3H6N+
57.0573	14	C3H7N+
58.0525	11	C2H6N2+
58.0651	41	C3H8N+
69.0572	2	C4H7N+
70.0651	304	C4H8N+
71.0603	54	C3H7N2+
71.0729	175	C4H9N+
72.0807	999	C4H10N+
73.076	2	C3H9N2+
74.06	41	C3H8NO+
83.0602	1	C4H7N2+
85.076	47	C4H9N2+
86.0837	12	C4H10N2+
88.0757	9	C4H10NO+
91.0542	14	C7H7+
103.0542	3	C8H7+
104.0495	2	C7H6N+
105.0699	3	C8H9+
106.0651	3	C7H8N+
115.0542	68	C9H7+
116.0494	3	C8H6N+
117.0698	49	C9H9+
118.065	34	C8H8N+
120.0807	1	C8H10N+
129.0698	6	C10H9+
130.065	6	C9H8N+
131.0731	2	C9H9N+
132.0808	5	C9H10N+
142.0652	1	C10H8N+
143.0728	6	C10H9N+
144.0807	67	C10H10N+
145.0761	1	C9H9N2+
145.0885	7	C10H11N+
146.0965	3	C10H12N+
157.0885	1	C11H11N+
158.0964	247	C11H12N+
165.0697	8	C13H9+
166.0779	6	C13H10+
167.0727	1	C12H9N+
167.0857	7	C13H11+
170.0964	4	C12H12N+
171.0915	2	C11H11N2+
178.0776	74	C14H10+
179.0854	144	C14H11+
180.0934	5	C14H12+
186.1153	1	C12H14N2+
189.0696	1	C15H9+
190.0649	2	C14H8N+
191.0854	290	C15H11+
192.0806	145	C14H10N+
192.0932	12	C15H12+
193.0885	832	C14H11N+
194.0965	20	C14H12N+
202.0775	2	C16H10+
203.0854	24	C16H11+
204.0805	23	C15H10N+
204.0931	2	C16H12+
205.0886	31	C15H11N+
206.0964	36	C15H12N+
207.1041	22	C15H13N+
208.112	87	C15H14N+
209.0837	1	C14H11NO+
210.0914	1	C14H12NO+
217.0885	17	C16H11N+
218.0963	44	C16H12N+
219.092	7	C15H11N2+
219.1042	12	C16H13N+
220.112	869	C16H14N+
221.1199	19	C16H15N+
222.1279	4	C16H16N+
224.1068	2	C15H14NO+
230.0962	1	C17H12N+
231.1043	2	C17H13N+
232.1119	26	C17H14N+
233.1073	26	C16H13N2+
233.1191	2	C17H15N+
234.1274	8	C17H16N+
235.1229	33	C16H15N2+
246.1159	1	C17H14N2+
247.1228	38	C17H15N2+
248.1307	174	C17H16N2+
249.1385	90	C17H17N2+
261.1384	17	C18H17N2+
262.1464	12	C18H18N2+
263.1541	175	C18H19N2+
264.1623	9	C18H20N2+
