Mass spectrum: Boscalid; LC-ESI-ITFT; MS2; CE: 60%; R=7500; [M+H]+
Name: Boscalid
Name: 2-chloranyl-N-[2-(4-chlorophenyl)phenyl]pyridine-3-carboxamide
Formula: C18H12Cl2N2O
Exact mass: 342.0327
SMILES: c1ccc(c(c1)c2ccc(cc2)Cl)NC(=O)c3cccnc3Cl
InChI: InChI=1S/C18H12Cl2N2O/c19-13-9-7-12(8-10-13)14-4-1-2-6-16(14)22-18(23)15-5-3-11-21-17(15)20/h1-11H,(H,22,23)
Instrument: LTQ Orbitrap XL Thermo Scientific
Instrument type: LC-ESI-ITFT
Ms type: MS2
Ion mode: POSITIVE
Ionization: ESI
Fragmentation mode: HCD
Collision energy: 60 % (nominal)
Resolution: 7500
Column name: XBridge C18 3.5um, 2.1x50mm, Waters
Retention time: 10.5 min
Base peak: 343.0412
Precursor m/z: 343.0399
Precursor type: [M+H]+
m/z	relative intensity	assigned
76.0185	2	C5H2N+
78.0339	106	C5H4N+
94.0288	25	C5H4NO+
96.0445	87	C5H6NO+
111.995	122	C5H3ClN+
112.0393	14	C2H9ClN2O+
113.0024	4	C5H4ClN+
114.0106	86	C5H5ClN+
130.0054	12	C5H5ClNO+
139.9899	351	C6H3ClNO+
152.0622	17	C12H8+
167.0605	8	C11H7N2+
177.0574	6	C13H7N+
195.0557	9	C12H7N2O+
196.0635	6	C12H8N2O+
202.077	5	C16H10+
204.0801	2	C15H10N+
212.0268	9	C13H7ClN+
216.0811	5	C16H10N+
217.0886	9	C16H11N+
227.0732	10	C17H9N+
228.0805	15	C17H10N+
229.0882	19	C17H11N+
230.0369	9	C13H9ClNO+
238.0423	12	C15H9ClN+
240.0575	3	C15H11ClN+
242.0835	25	C17H10N2+
243.0919	111	C17H11N2+
244.0761	4	C17H10NO+
244.0996	55	C17H12N2+
245.0824	8	C17H11NO+
246.0785	2	C16H10N2O+
253.0763	60	C18H9N2+
254.0841	101	C18H10N2+
255.092	2	C18H11N2+
262.0421	8	C17H9ClN+
264.0577	23	C17H11ClN+
270.0798	29	C18H10N2O+
271.0869	983	C18H11N2O+
272.0946	999	C18H12N2O+
278.0593	3	C17H11ClN2+
279.068	16	C17H12ClN2+
280.0534	6	C17H11ClNO+
286.0738	2	C18H10N2O2+
289.0528	264	C18H10ClN2+
290.0372	3	C15H12Cl2N2+
292.0394	6	C17H9ClN2O+
305.048	16	C18H10ClN2O+
306.0547	12	C18H11ClN2O+
307.0634	645	C18H12ClN2O+
328.0168	4	C17H10Cl2N2O+
