Mass spectrum: Sitagliptin; LC-ESI-ITFT; MS2; CE: 75%; R=15000; [M+H]+
Name: Sitagliptin
Name: (3R)-3-amino-1-[3-(trifluoromethyl)-6,8-dihydro-5H-[1,2,4]triazolo[4,3-a]pyrazin-7-yl]-4-(2,4,5-trifluorophenyl)-1-butanone
Formula: C16H15F6N5O
Exact mass: 407.1181
SMILES: Fc1cc(c(F)cc1F)C[C@@H](N)CC(=O)N3Cc2nnc(n2CC3)C(F)(F)F
InChI: InChI=1S/C16H15F6N5O/c17-10-6-12(19)11(18)4-8(10)3-9(23)5-14(28)26-1-2-27-13(7-26)24-25-15(27)16(20,21)22/h4,6,9H,1-3,5,7,23H2/t9-/m1/s1
Instrument: LTQ Orbitrap XL Thermo Scientific
Instrument type: LC-ESI-ITFT
Ms type: MS2
Ion mode: POSITIVE
Ionization: ESI
Fragmentation mode: HCD
Collision energy: 75 % (nominal)
Resolution: 15000
Column name: XBridge C18 3.5um, 2.1x50mm, Waters
Retention time: 5.2 min
Base peak: 408.1261
Precursor m/z: 408.1254
Precursor type: [M+H]+
m/z	relative intensity	assigned
55.0289	6	C2H3N2+
56.0495	110	C3H6N+
81.0446	7	C4H5N2+
96.0192	6	C3H2N3O+
107.0294	7	C7H4F+
127.0355	999	C7H5F2+
134.04	70	C8H5FN+
137.0321	7	C4H4F3N2+
138.0275	157	C8H4F2+
145.0261	86	C7H4F3+
150.0274	42	C4H3F3N3+
151.0355	128	C9H5F2+
152.0512	12	C8H7FNO+
153.0387	38	C8H5F2N+
154.0464	858	C8H6F2N+
157.0262	44	C8H4F3+
165.0383	15	C4H4F3N4+
168.0381	99	C9H6F2O+
169.0264	7	C9H4F3+
171.0417	106	C9H6F3+
174.0526	909	C8H7F3N+
176.0429	10	C6H5F3N3+
193.0697	212	
