Mass spectrum: Cymoxanil; LC-ESI-ITFT; MS2; CE: 75%; R=15000; [M+H]+
Name: Cymoxanil
Name: 2-(ethylcarbamoylamino)-N-methoxy-2-oxoethanimidoyl cyanide
Formula: C7H10N4O3
Exact mass: 198.0753
SMILES: CCNC(=O)NC(=O)/C(=N/OC)/C#N
InChI: InChI=1S/C7H10N4O3/c1-3-9-7(13)10-6(12)5(4-8)11-14-2/h3H2,1-2H3,(H2,9,10,12,13)/b11-5+
Instrument: LTQ Orbitrap XL Thermo Scientific
Instrument type: LC-ESI-ITFT
Ms type: MS2
Ion mode: POSITIVE
Ionization: ESI
Fragmentation mode: HCD
Collision energy: 75 % (nominal)
Resolution: 15000
Column name: XBridge C18 3.5um, 2.1x50mm, Waters
Retention time: 5.6 min
Base peak: 221.0649
Precursor m/z: 199.0826
Precursor type: [M+H]+
m/z	relative intensity	assigned
53.0134	212	C2HN2+
58.0287	13	C2H4NO+
81.0698	3	C6H9+
83.024	999	C3H3N2O+
85.0396	10	C3H5N2O+
91.054	4	C7H7+
110.0349	14	C4H4N3O+
111.0189	448	C4H3N2O2+
128.0454	63	C4H6N3O2+
129.0294	29	C4H5N2O3+
