Mass spectrum: Chloralose; LC-ESI-QFT; MS2; CE: 30%; R=17500; [M+H]+
Name: Chloralose
Name: Glucochloralose
Name: 1-[6-hydroxy-2-(trichloromethyl)-3a,5,6,6a-tetrahydrofuro[2,3-d][1,3]dioxol-5-yl]ethane-1,2-diol
Formula: C8H11Cl3O6
Exact mass: 307.9621
SMILES: C(C(C1C(C2C(O1)OC(O2)C(Cl)(Cl)Cl)O)O)O
InChI: InChI=1S/C8H11Cl3O6/c9-8(10,11)7-16-5-3(14)4(2(13)1-12)15-6(5)17-7/h2-7,12-14H,1H2
Instrument: Exploris 240 Orbitrap Thermo Scientific
Instrument type: LC-ESI-QFT
Ms type: MS2
Ion mode: POSITIVE
Ionization: ESI
Fragmentation mode: HCD
Collision energy: 30 % (nominal)
Resolution: 17500
Column name: XBridge C18 3.5um, 2.1x50mm, Waters
Retention time: 4.863 min
Base peak: 308.9692
Precursor m/z: 308.9694
Precursor type: [M+H]+
m/z	relative intensity	assigned
53.0386	20	C4H5+
55.018	16	C3H3O+
57.0334	97	C3H5O+
61.0284	60	C2H5O2+
69.0334	348	C4H5O+
71.0128	56	C3H3O2+
71.0491	91	C4H7O+
73.0286	85	C3H5O2+
81.0334	459	C5H5O+
82.945	30	CHCl2+
83.049	58	C5H7O+
84.0207	23	C4H4O2+
85.0284	845	C4H5O2+
87.0438	22	C4H7O2+
89.0155	45	C4H6Cl+
91.0391	50	C3H7O3+
97.0283	255	C5H5O2+
99.0441	243	C5H7O2+
101.0234	41	C4H5O3+
102.9947	40	C4H4ClO+
103.0388	153	C4H7O3+
108.9606	37	C3H3Cl2+
109.0283	648	C6H5O2+
117.0102	36	C5H6ClO+
127.0389	999	C6H7O3+
134.9762	26	C5H5Cl2+
138.9717	37	C4H5Cl2O+
145.0494	294	C6H9O4+
152.9504	23	C4H3Cl2O2+
198.9475	27	C6H6Cl3O+
216.922	46	C5H4Cl3O3+
228.9222	281	C6H4Cl3O3+
272.9483	141	C8H8Cl3O4+
