Mass spectrum: Fludrocortisone; LC-ESI-QFT; MS2; CE: 75; R=35000; [M+H]+
Name: Fludrocortisone
Name: [2-[(8S,9R,10S,11S,13S,14S,17R)-9-fluoro-11,17-dihydroxy-10,13-dimethyl-3-oxo-1,2,6,7,8,11,12,14,15,16-decahydrocyclopenta[a]phenanthren-17-yl]-2-oxoethyl] acetate
Formula: C23H31FO6
Exact mass: 422.21047
SMILES: O=C(OCC(=O)[C@]3(O)[C@]2(C[C@H](O)[C@]4(F)[C@@]1(/C(=C\C(=O)CC1)CC[C@H]4[C@@H]2CC3)C)C)C
InChI: InChI=1S/C23H31FO6/c1-13(25)30-12-19(28)22(29)9-7-16-17-5-4-14-10-15(26)6-8-20(14,2)23(17,24)18(27)11-21(16,22)3/h10,16-18,27,29H,4-9,11-12H2,1-3H3/t16-,17-,18-,20-,21-,22-,23-/m0/s1
Instrument: Q Exactive Orbitrap Thermo Scientific
Instrument type: LC-ESI-QFT
Ms type: MS2
Ion mode: POSITIVE
Ionization: ESI
Fragmentation mode: HCD
Collision energy: 75 (nominal)
Resolution: 35000
Column name: XBridge C18 3.5um, 2.1x50mm, Waters
Retention time: 9.4 min
Base peak: 423.2179
Precursor m/z: 423.2177
Precursor type: [M+H]+
m/z	relative intensity	assigned
53.0387	15	C4H5+
55.018	42	C3H3O+
55.0544	17	C4H7+
61.0285	57	C2H5O2+
65.0386	58	C5H5+
67.0543	275	C5H7+
69.0336	68	C4H5O+
69.0699	58	C5H9+
71.0492	33	C4H7O+
73.0449	14	C4H6F+
77.0386	37	C6H5+
78.0464	11	C6H6+
79.0543	432	C6H7+
81.0335	51	C5H5O+
81.0699	264	C6H9+
83.0492	219	C5H7O+
91.0543	907	C7H7+
93.0699	440	C7H9+
95.0492	333	C6H7O+
95.0856	271	C7H11+
97.0649	378	C6H9O+
99.0442	17	C5H7O2+
99.0605	45	C6H8F+
101.0234	10	C4H5O3+
101.0398	207	C5H6FO+
103.0544	114	C8H7+
105.07	999	C8H9+
107.0492	157	C7H7O+
107.0856	176	C8H11+
108.0569	15	C7H8O+
109.045	50	C7H6F+
109.0649	181	C7H9O+
109.101	12	C8H13+
111.0442	13	C6H7O2+
111.0606	13	C7H8F+
111.0804	16	C7H11O+
115.0543	225	C9H7+
116.0622	70	C9H8+
117.0699	345	C9H9+
118.0776	13	C9H10+
119.0492	45	C8H7O+
119.0856	558	C9H11+
121.0649	599	C8H9O+
121.1011	47	C9H13+
123.0605	94	C8H8F+
123.0805	360	C8H11O+
125.0398	12	C7H6FO+
128.0622	522	C10H8+
129.07	403	C10H9+
130.0778	115	C10H10+
131.0491	34	C9H7O+
131.0856	505	C10H11+
132.057	19	C9H8O+
133.0648	134	C9H9O+
133.1013	211	C10H13+
135.0605	8	C9H8F+
135.0805	170	C9H11O+
137.0596	8	C8H9O2+
137.0762	14	C9H10F+
137.0961	13	C9H13O+
139.0547	7	C8H8FO+
141.0698	318	C11H9+
142.0779	385	C11H10+
143.0857	651	C11H11+
144.0572	43	C10H8O+
144.0935	47	C11H12+
145.065	168	C10H9O+
145.1013	312	C11H13+
146.0728	70	C10H10O+
147.0805	250	C10H11O+
147.117	14	C11H15+
148.0683	9	C10H9F+
148.0883	40	C10H12O+
149.0962	39	C10H13O+
152.0618	53	C12H8+
153.07	193	C12H9+
154.0777	146	C12H10+
155.0606	35	C10H7N2+
155.0856	457	C12H11+
156.0936	126	C12H12+
157.0649	61	C11H9O+
157.1013	285	C12H13+
158.0725	68	C11H10O+
158.1091	15	C12H14+
159.0806	225	C11H11O+
159.1169	56	C12H15+
160.0684	11	C11H9F+
160.0883	33	C11H12O+
161.0962	166	C11H13O+
162.1045	8	C11H14O+
163.0752	31	C10H11O2+
163.0917	33	C11H12F+
163.1115	76	C11H15O+
165.0701	335	C13H9+
166.0783	246	
167.0856	350	C13H11+
168.0934	146	C13H12+
169.0647	37	C12H9O+
169.1012	395	C13H13+
170.0725	34	C12H10O+
170.1092	32	C13H14+
171.0805	130	C12H11O+
171.1167	97	C13H15+
172.0881	32	C12H12O+
173.0962	136	C12H13O+
173.1326	14	C13H17+
174.1039	17	C12H14O+
175.1115	39	C12H15O+
178.0778	83	C14H10+
179.0856	248	C14H11+
180.0935	149	C14H12+
181.0647	41	C13H9O+
181.1015	518	C14H13+
182.0725	39	C13H10O+
182.1091	179	C14H14+
183.0805	74	C13H11O+
183.117	216	C14H15+
184.0883	46	C13H12O+
184.1246	17	C14H16+
185.0962	92	C13H13O+
185.1322	55	C14H17+
186.1037	13	C13H14O+
187.0754	13	C12H11O2+
187.1117	57	C13H15O+
189.0696	10	C15H9+
189.0905	18	C12H13O2+
190.0779	33	C15H10+
191.0855	180	C15H11+
192.0933	154	C15H12+
193.101	229	C15H13+
194.0727	11	C14H10O+
194.1089	73	C15H14+
195.0804	48	C14H11O+
195.1167	239	C15H15+
196.0884	55	C14H12O+
196.1246	69	C15H16+
197.096	79	C14H13O+
197.1324	191	C15H17+
198.1037	17	C14H14O+
199.1114	90	C14H15O+
199.148	11	C15H19+
200.1192	9	C14H16O+
201.0902	11	C13H13O2+
201.1273	13	C14H17O+
202.0775	35	C16H10+
203.0853	54	C16H11+
204.0934	46	C16H12+
205.1012	129	C16H13+
206.109	175	C16H14+
207.0803	14	C15H11O+
207.117	133	C16H15+
208.0883	34	C15H12O+
208.1245	33	C16H16+
209.0961	141	C15H13O+
209.1324	103	C16H17+
210.1042	30	C15H14O+
210.1406	9	C16H18+
211.1115	120	C15H15O+
211.1484	14	C16H19+
212.1189	10	C15H16O+
213.1277	45	C15H17O+
215.0855	41	C17H11+
216.0935	33	C17H12+
217.101	115	C17H13+
218.1086	55	C17H14+
219.1168	51	C17H15+
220.0884	9	C13H13FO2+
220.1244	19	C17H16+
221.096	17	C16H13O+
221.1326	80	C17H17+
222.1041	32	C16H14O+
222.1405	11	C17H18+
223.1117	73	C16H15O+
223.1483	43	C17H19+
224.1199	54	C16H16O+
224.1556	14	C17H20+
225.1275	76	C16H17O+
226.1349	55	C16H18O+
227.1432	30	C16H19O+
229.1016	10	C18H13+
229.1222	9	C15H17O2+
230.1091	11	C18H14+
231.1169	68	C18H15+
232.1245	35	C18H16+
233.096	12	C17H13O+
233.1324	33	C18H17+
235.1117	42	C17H15O+
235.1481	14	C18H19+
236.1199	16	C17H16O+
237.1278	33	C17H17O+
239.1432	52	C17H19O+
240.1511	11	C17H20O+
241.1582	54	C17H21O+
243.1379	82	C16H19O2+
245.1321	8	C19H17+
247.1481	29	C19H19+
249.1271	45	C18H17O+
249.1639	16	C19H21+
250.135	31	C18H18O+
251.1429	93	C18H19O+
253.1581	8	C18H21O+
257.1536	10	C17H21O2+
258.1615	11	C17H22O2+
259.1117	11	C19H15O+
263.1439	7	C19H19O+
265.1594	12	C19H21O+
267.1751	11	C19H23O+
269.154	70	C18H21O2+
