Mass spectrum: Topiramate; LC-ESI-QFT; MS2; CE: 30; R=35000; [M-H]-
Name: Topiramate
Name: Topamax
Name: (2,2,7,7-tetramethyl-5,5a,8a,8b-tetrahydrodi[1,3]dioxolo[4,5-a:5`,3`-d]pyran-3a-yl)methyl sulfamate
Formula: C12H21NO8S
Exact mass: 339.09879
SMILES: CC1(OC2COC3(C(C2O1)OC(O3)(C)C)COS(=O)(=O)N)C
InChI: InChI=1S/C12H21NO8S/c1-10(2)18-7-5-16-12(6-17-22(13,14)15)9(8(7)19-10)20-11(3,4)21-12/h7-9H,5-6H2,1-4H3,(H2,13,14,15)
Instrument: Q Exactive Plus Orbitrap Thermo Scientific
Instrument type: LC-ESI-QFT
Ms type: MS2
Ion mode: NEGATIVE
Ionization: ESI
Fragmentation mode: HCD
Collision energy: 30 (nominal)
Resolution: 35000
Column name: XBridge C18 3.5um, 2.1x50mm, Waters
Retention time: 6.1 min
Base peak: 338.0915
Precursor m/z: 338.0915
Precursor type: [M-H]-
m/z	relative intensity	assigned
63.9624	2	O2S-
77.9656	780	NO2S-
79.9574	11	O3S-
79.9813	5	H2NO2S-
80.9652	17	HO3S-
83.0137	1	C4H3O2-
89.9656	7	CNO2S-
95.9762	189	H2NO3S-
96.9602	2	HO4S-
98.0248	3	C4H4NO2-
110.0249	3	C5H4NO2-
112.0406	3	C5H6NO2-
113.0246	1	C5H5O3-
119.9763	2	C2H2NO3S-
122.0248	7	C6H4NO2-
124.0404	7	C6H6NO2-
125.0245	1	C6H5O3-
128.0353	2	C5H6NO3-
140.0354	5	C6H6NO3-
161.9869	8	C4H4NO4S-
176.0023	2	C5H6NO4S-
203.9974	8	C6H6NO5S-
222.0078	2	C6H8NO6S-
280.0498	18	C9H14NO7S-
338.092	999	C12H20NO8S-
