Mass spectrum: Thiodicarb; LC-ESI-QFT; MS2; CE: 15%; R=17500; [M+H]+
Name: Thiodicarb
Name: Larvin
Name: methyl N-[methyl-[methyl-(1-methylsulfanylethylideneamino)oxycarbonylamino]sulfanylcarbamoyl]oxyethanimidothioate
Formula: C10H18N4O4S3
Exact mass: 354.0490
SMILES: CC(=NOC(=O)N(C)SN(C)C(=O)ON=C(C)SC)SC
InChI: InChI=1S/C10H18N4O4S3/c1-7(19-5)11-17-9(15)13(3)21-14(4)10(16)18-12-8(2)20-6/h1-6H3
Instrument: Exploris 240 Orbitrap Thermo Scientific
Instrument type: LC-ESI-QFT
Ms type: MS2
Ion mode: POSITIVE
Ionization: ESI
Fragmentation mode: HCD
Collision energy: 15 % (nominal)
Resolution: 17500
Column name: XBridge C18 3.5um, 2.1x50mm, Waters
Retention time: 6.183 min
Base peak: 355.0563
Precursor m/z: 355.0563
Precursor type: [M+H]+
m/z	relative intensity	assigned
65.0055	4	CH5OS+
78.9671	7	CH3S2+
88.0215	999	C3H6NS+
91.0215	3	C3H7OS+
106.0321	10	C3H8NOS+
107.9936	345	C2H6NS2+
122.0272	15	C3H8NO2S+
149.0201	138	C4H9N2S2+
163.0534	95	C5H11N2O2S+
190.9573	27	C4H3N2O3S2+
