Mass spectrum: Chlorothalonil-TP SYN507900; LC-ESI-QFT; MS2; CE: 150%; R=17500; [M-H]-
Name: Chlorothalonil-TP SYN507900
Name: 2,3,6-trichloro-5-cyano-4-hydroxybenzamide
Formula: C8H3Cl3N2O2
Exact mass: 263.9260
SMILES: NC(=O)C1=C(Cl)C(C#N)=C(O)C(Cl)=C1Cl
InChI: InChI=1S/C8H3Cl3N2O2/c9-4-2(1-12)7(14)6(11)5(10)3(4)8(13)15/h14H,(H2,13,15)
Instrument: Q Exactive Orbitrap Thermo Scientific
Instrument type: LC-ESI-QFT
Ms type: MS2
Ion mode: NEGATIVE
Ionization: ESI
Fragmentation mode: HCD
Collision energy: 150 % (nominal)
Resolution: 17500
Column name: XBridge C18 3.5um, 2.1x50mm, Waters
Retention time: 2.712 min
Base peak: 262.9187
Precursor m/z: 262.9187
Precursor type: [M-H]-
m/z	relative intensity	assigned
62.0035	288	C4N-
65.9987	665	C3NO-
86.0037	999	C6N-
88.007	625	C5N2-
89.9985	150	C5NO-
112.0068	998	C7N2-
