Mass spectrum: Ticlopidine; LC-ESI-QFT; MS2; CE: 15; R=35000; [M-H]-
Name: Ticlopidine
Name: 5-(2-chlorobenzyl)-6,7-dihydro-4H-thieno[3,2-c]pyridine
Formula: C14H14ClNS
Exact mass: 263.05355
SMILES: C1CN(CC2=C1SC=C2)CC3=CC=CC=C3Cl
InChI: InChI=1S/C14H14ClNS/c15-13-4-2-1-3-11(13)9-16-7-5-14-12(10-16)6-8-17-14/h1-4,6,8H,5,7,9-10H2
Instrument: Q Exactive Orbitrap Thermo Scientific
Instrument type: LC-ESI-QFT
Ms type: MS2
Ion mode: NEGATIVE
Ionization: ESI
Fragmentation mode: HCD
Collision energy: 15 (nominal)
Resolution: 35000
Column name: XBridge C18 3.5um, 2.1x50mm, Waters
Retention time: 15.5 min
Base peak: 218.0312
Precursor m/z: 262.0463
Precursor type: [M-H]-
m/z	relative intensity	assigned
130.0172	999	C7H2N2O-
148.0277	1	C4H7ClN3O-
174.024	15	C11H7Cl-
188.0399	12	C12H9Cl-
244.0275	316	C12H7ClN3O-
