Mass spectrum: Iopromide; LC-ESI-ITFT; MS2; CE: 60%; R=7500; [M+H]+
Name: Iopromide
Name: 1-N,3-N-bis(2,3-dihydroxypropyl)-2,4,6-triiodo-5-[(2-methoxyacetyl)amino]-3-N-methylbenzene-1,3-dicarboxamide
Formula: C18H24I3N3O8
Exact mass: 790.8698
SMILES: CN(CC(CO)O)C(=O)C1=C(C(=C(C(=C1I)C(=O)NCC(CO)O)I)NC(=O)COC)I
InChI: InChI=1S/C18H24I3N3O8/c1-24(4-9(28)6-26)18(31)12-13(19)11(17(30)22-3-8(27)5-25)14(20)16(15(12)21)23-10(29)7-32-2/h8-9,25-28H,3-7H2,1-2H3,(H,22,30)(H,23,29)
Instrument: LTQ Orbitrap XL Thermo Scientific
Instrument type: LC-ESI-ITFT
Ms type: MS2
Ion mode: POSITIVE
Ionization: ESI
Fragmentation mode: HCD
Collision energy: 60 % (nominal)
Resolution: 7500
Column name: XBridge C18 3.5um, 2.1x50mm, Waters
Retention time: 2.7 min
Base peak: 132.9579
Precursor m/z: 791.877
Precursor type: [M+H]+
m/z	relative intensity	assigned
116.0135	30	C7H2NO+
117.0207	36	C7H3NO+
141.9922	118	C8NO2+
144.0079	40	C8H2NO2+
145.0154	42	C8H3NO2+
157.0155	23	C9H3NO2+
172.003	98	C9H2NO3+
172.0267	59	C9H4N2O2+
173.0109	90	C9H3NO3+
227.9313	75	C7H3IN+
255.9253	189	C8H3INO+
271.9205	172	C8H3INO2+
282.9134	23	C9H2INO2+
283.9204	82	C9H3INO2+
287.9507	56	C9H7INO2+
298.9292	117	C6H6INO5+
299.9154	779	C9H3INO3+
312.9474	57	C10H6IN2O2+
313.9305	172	C10H5INO3+
317.9258	999	C9H5INO4+
381.8223	82	C8H2I2NO+
441.8099	37	C12I2N2O+
572.9008	24	C14H24I3+
