Mass spectrum: Repaglinide; LC-ESI-QFT; MS2; CE: 90; R=35000; [M+H]+
Name: Repaglinide
Name: 2-ethoxy-4-[2-[[3-methyl-1-(2-piperidin-1-ylphenyl)butyl]amino]-2-oxoethyl]benzoic acid
Formula: C27H36N2O4
Exact mass: 452.26751
SMILES: CCOC1=C(C=CC(=C1)CC(=O)NC(CC(C)C)C2=CC=CC=C2N3CCCCC3)C(=O)O
InChI: InChI=1S/C27H36N2O4/c1-4-33-25-17-20(12-13-22(25)27(31)32)18-26(30)28-23(16-19(2)3)21-10-6-7-11-24(21)29-14-8-5-9-15-29/h6-7,10-13,17,19,23H,4-5,8-9,14-16,18H2,1-3H3,(H,28,30)(H,31,32)
Instrument: Q Exactive Plus Orbitrap Thermo Scientific
Instrument type: LC-ESI-QFT
Ms type: MS2
Ion mode: POSITIVE
Ionization: ESI
Fragmentation mode: HCD
Collision energy: 90 (nominal)
Resolution: 35000
Column name: XBridge C18 3.5um, 2.1x50mm, Waters
Retention time: 9.7 min
Base peak: 453.2744
Precursor m/z: 453.2748
Precursor type: [M+H]+
m/z	relative intensity	assigned
50.015	2	C4H2+
51.0228	2	C4H3+
52.0183	1	C3H2N+
53.0022	13	C3HO+
53.0386	5	C4H5+
53.9975	1	C2NO+
54.0338	2	C3H4N+
55.0543	42	C4H7+
56.0495	2	C3H6N+
57.0699	13	C4H9+
63.0227	3	C5H3+
65.0386	38	C5H5+
67.0416	1	C4H5N+
67.0542	27	C5H7+
67.9892	2	C3O2+
68.0494	1	C4H6N+
69.0699	47	C5H9+
70.0651	1	C4H8N+
77.0384	22	C6H5+
78.0464	1	C6H6+
79.0542	45	C6H7+
80.0495	4	C5H6N+
81.0699	1	C6H9+
82.0651	8	C5H8N+
84.0808	6	C5H10N+
86.0964	96	C5H12N+
89.0385	7	C7H5+
90.0464	4	C7H6+
91.0543	513	C7H7+
92.0496	1	C6H6N+
92.0622	4	C7H8+
93.0573	15	C6H7N+
93.07	8	C7H9+
94.0652	16	C6H8N+
95.0492	26	C6H7O+
95.0856	1	C7H11+
101.0383	1	C8H5+
103.0543	22	C8H7+
104.0495	21	C7H6N+
104.0622	8	C8H8+
105.0336	108	C7H5O+
105.0447	13	C6H5N2+
105.0699	61	C8H9+
106.0652	405	C7H8N+
107.0493	15	C7H7O+
107.073	6	C7H9N+
108.0808	7	C7H10N+
109.065	19	C7H9O+
115.0543	31	C9H7+
116.0496	4	C8H6N+
116.062	5	C9H8+
117.0573	478	C8H7N+
117.0697	26	C9H9+
118.0651	979	C8H8N+
119.0605	15	C7H7N2+
119.073	17	C8H9N+
119.0854	4	C9H11+
120.0808	158	C8H10N+
123.0441	22	C7H7O2+
128.0494	4	C9H6N+
128.0622	14	C10H8+
129.057	2	C9H7N+
129.0698	32	C10H9+
130.0652	881	C9H8N+
131.073	555	C9H9N+
132.0808	364	C9H10N+
133.0648	2	C9H9O+
133.0887	15	C9H11N+
134.0964	7	C9H12N+
141.0702	2	C11H9+
142.065	1	C10H8N+
142.0777	8	C11H10+
143.073	47	C10H9N+
144.0809	755	C10H10N+
145.0887	126	C10H11N+
146.0965	603	C10H12N+
151.0389	2	C8H7O3+
155.0605	5	C10H7N2+
156.0808	10	C11H10N+
157.0886	25	C11H11N+
158.0965	450	C11H12N+
159.1043	127	C11H13N+
160.1121	51	C11H14N+
161.0233	11	C9H5O3+
161.12	1	C11H15N+
162.1278	57	C11H16N+
168.0808	1	C12H10N+
170.0962	17	C12H12N+
171.1043	12	C12H13N+
172.1121	999	C12H14N+
173.1201	21	C12H15N+
174.1278	334	C12H16N+
179.0702	4	C10H11O3+
184.1121	19	C13H14N+
185.12	1	C13H15N+
186.1278	161	C13H16N+
187.1357	4	C13H17N+
188.1434	7	C13H18N+
200.1431	7	C14H18N+
202.1588	8	C14H20N+
214.1592	6	C15H20N+
230.1904	52	C16H24N+
