Mass spectrum: 2-Chlorobenzenesulfonamide; LC-ESI-QFT; MS2; CE: 15; R=35000; [M+H]+
Name: 2-Chlorobenzenesulfonamide
Name: 2-chlorobenzenesulfonamide
Formula: C6H6ClNO2S
Exact mass: 190.98078
SMILES: C1=CC=C(C(=C1)S(=O)(=O)N)Cl
InChI: InChI=1S/C6H6ClNO2S/c7-5-3-1-2-4-6(5)11(8,9)10/h1-4H,(H2,8,9,10)
Instrument: Q Exactive Orbitrap Thermo Scientific
Instrument type: LC-ESI-QFT
Ms type: MS2
Ion mode: POSITIVE
Ionization: ESI
Fragmentation mode: HCD
Collision energy: 15 (nominal)
Resolution: 35000
Column name: XBridge C18 3.5um, 2.1x50mm, Waters
Retention time: 4.4 min
Base peak: 191.988
Precursor m/z: 191.9881
Precursor type: [M+H]+
m/z	relative intensity	assigned
65.0384	1	C5H5+
74.015	1	C6H2+
86.9995	7	C4H4Cl+
93.0334	16	C6H5O+
94.0412	23	C6H6O+
99.0439	1	C5H7O2+
101.0152	2	C5H6Cl+
110.999	21	
111.0439	71	C6H7O2+
121.0395	18	C6H5N2O+
126.9944	5	C6H4ClO+
129.01	42	C6H6ClO+
130.9716	4	C5H4ClS+
139.0056	296	C6H4ClN2+
145.9666	2	CH5ClNO3S+
174.9613	999	C6H4ClO2S+
191.9878	34	C6H7ClNO2S+
