Mass spectrum: 10phiC10SPC; LC-ESI-QFT; MS2; CE: 30; R=35000; [M+H]+
Name: 10phiC10SPC
Name: Decacarboxy sulfophenyl carboxylic acid
Name: 10-(4-sulfophenyl)octanoic acid
Formula: C16H24O5S
Exact mass: 328.13444
SMILES: OS(=O)(=O)c1ccc(CCCCCCCCCC(=O)O)cc1
InChI: InChI=1S/C16H24O5S/c17-16(18)9-7-5-3-1-2-4-6-8-14-10-12-15(13-11-14)22(19,20)21/h10-13H,1-9H2,(H,17,18)(H,19,20,21)
Instrument: Q Exactive Plus Orbitrap Thermo Scientific
Instrument type: LC-ESI-QFT
Ms type: MS2
Ion mode: POSITIVE
Ionization: ESI
Fragmentation mode: HCD
Collision energy: 30 (nominal)
Resolution: 35000
Column name: XBridge C18 3.5um, 2.1x50mm, Waters
Retention time: 10.8 min
Base peak: 343.1573
Precursor m/z: 329.1417
Precursor type: [M+H]+
m/z	relative intensity	assigned
55.0178	1	C3H3O+
55.0542	4	C4H7+
57.0699	341	C4H9+
67.0542	11	C5H7+
69.0699	6	C5H9+
71.0855	144	C5H11+
77.0384	1	C6H5+
81.0698	14	C6H9+
83.0855	7	C6H11+
85.1012	87	C6H13+
91.0542	17	C7H7+
93.0699	1	C7H9+
95.0856	23	C7H11+
97.1012	10	C7H13+
103.0542	5	C8H7+
104.062	5	C8H8+
105.0699	19	C8H9+
107.0491	14	C7H7O+
109.0106	1	C6H5S+
109.1012	23	C8H13+
115.0538	2	C9H7+
116.0621	6	C9H8+
117.0699	59	C9H9+
118.0778	5	C9H10+
119.0855	10	C9H11+
121.0648	5	C8H9O+
121.1014	1	C9H13+
123.0262	13	C7H7S+
128.0621	1	C10H8+
129.0698	5	C10H9+
130.0777	11	C10H10+
131.0856	128	C10H11+
132.0572	1	C9H8O+
132.0935	5	C10H12+
133.0648	1	C9H9O+
135.0263	19	C8H7S+
137.0058	10	C7H5OS+
139.0213	14	C7H7OS+
143.0857	4	C11H11+
144.0934	46	C11H12+
145.1012	153	C11H13+
146.0726	6	C10H10O+
146.1091	1	C11H14+
147.0265	9	C9H7S+
147.0805	4	C10H11O+
149.0421	35	C9H9S+
149.0964	2	C10H13O+
151.0213	72	C8H7OS+
153.0005	54	C7H5O2S+
155.0163	4	C7H7O2S+
156.0934	2	C12H12+
158.109	12	C12H14+
159.0919	5	C10H11N2+
159.1169	58	C12H15+
161.0421	9	C10H9S+
161.0962	1	C11H13O+
163.0215	3	C9H7OS+
163.0577	39	C10H11S+
165.0369	49	C9H9OS+
167.0161	11	C8H7O2S+
169.0318	29	C8H9O2S+
171.0111	230	C7H7O3S+
172.0335	1	C11H8S+
173.042	19	C11H9S+
177.0368	11	C10H9OS+
179.0525	13	C10H11OS+
181.0317	17	C9H9O2S+
183.0475	1	C9H11O2S+
185.0268	999	C8H9O3S+
187.0576	16	C12H11S+
191.0525	31	C11H11OS+
195.0475	195	C10H11O2S+
196.1249	2	C15H16+
197.0269	7	C9H9O3S+
199.0424	601	C9H11O3S+
201.1638	32	C15H21+
203.0374	12	C8H11O4S+
205.0682	23	C12H13OS+
209.0632	191	C11H13O2S+
211.0426	13	C10H11O3S+
213.0581	437	C10H13O3S+
217.053	18	C9H13O4S+
223.0789	51	C12H15O2S+
227.0737	221	C11H15O3S+
231.0686	40	C10H15O4S+
239.0888	1	C16H15S+
241.0894	85	C12H17O3S+
245.0845	27	C11H17O4S+
247.1151	20	C15H19OS+
251	1	C11H7O5S+
259.0997	10	C12H19O4S+
265.1258	19	C15H21O2S+
283.1364	38	C15H23O3S+
293.1217	8	C16H21O3S+
301.147	6	C15H25O4S+
311.1311	35	C16H23O4S+
329.1419	137	C16H25O5S+
