Mass spectrum: Varenicline; LC-ESI-QFT; MS2; CE: 75; R=35000; [M+H]+
Name: Varenicline
Name: 7,8,9,10-tetrahydro-6h-6,10-methanoazepino[4,5-g]quinoxaline
Name: 7,8,9,10-tetrahydro-6,10-Methano-6H-pyrazino[2,3-h][3]benzazepine
Formula: C13H13N3
Exact mass: 211.11095
SMILES: C1C2CNCC1C3=CC4=NC=CN=C4C=C23
InChI: InChI=1S/C13H13N3/c1-2-16-13-5-11-9-3-8(6-14-7-9)10(11)4-12(13)15-1/h1-2,4-5,8-9,14H,3,6-7H2
Instrument: Q Exactive Plus Orbitrap Thermo Scientific
Instrument type: LC-ESI-QFT
Ms type: MS2
Ion mode: POSITIVE
Ionization: ESI
Fragmentation mode: HCD
Collision energy: 75 (nominal)
Resolution: 35000
Column name: XBridge C18 3.5um, 2.1x50mm, Waters
Retention time: 2.7 min
Base peak: 212.118
Precursor m/z: 212.1182
Precursor type: [M+H]+
m/z	relative intensity	assigned
68.0494	3	C4H6N+
114.0463	1	C9H6+
115.0542	23	C9H7+
118.0524	1	C7H6N2+
126.0462	5	C10H6+
128.0494	3	C9H6N+
128.062	3	C10H8+
129.0698	8	C10H9+
140.0495	2	C10H6N+
141.0699	52	C11H9+
142.0653	11	C10H8N+
143.0604	20	C9H7N2+
145.0759	4	C9H9N2+
146.06	1	C9H8NO+
147.0803	1	C10H11O+
153.0573	10	C11H7N+
154.0652	13	C11H8N+
155.0605	8	C10H7N2+
155.0728	4	C11H9N+
156.0684	1	C10H8N2+
156.0808	18	C11H10N+
157.076	11	C10H9N2+
159.0805	22	C11H11O+
160.0758	2	C10H10NO+
161.0708	1	C9H9N2O+
166.0652	8	C12H8N+
167.0605	11	C11H7N2+
167.0729	14	C12H9N+
168.0683	517	C11H8N2+
169.076	999	C11H9N2+
170.0839	20	C11H10N2+
171.0916	57	C11H11N2+
179.0606	5	C12H7N2+
180.0682	142	C12H8N2+
181.0761	81	C12H9N2+
182.084	42	C12H10N2+
183.0917	707	C12H11N2+
185.071	1	C11H9N2O+
193.0761	13	C13H9N2+
194.084	23	C13H10N2+
195.0917	310	C13H11N2+
212.1183	276	C13H14N3+
