Mass spectrum: Fentanyl; LC-ESI-QFT; MS2; CE: 45; R=35000; [M+H]+
Name: Fentanyl
Name: N-phenyl-N-[1-(2-phenylethyl)piperidin-4-yl]propanamide
Formula: C22H28N2O
Exact mass: 336.22016
SMILES: CCC(=O)N(C1CCN(CC1)CCC2=CC=CC=C2)C3=CC=CC=C3
InChI: InChI=1S/C22H28N2O/c1-2-22(25)24(20-11-7-4-8-12-20)21-14-17-23(18-15-21)16-13-19-9-5-3-6-10-19/h3-12,21H,2,13-18H2,1H3
Instrument: Q Exactive Plus Orbitrap Thermo Scientific
Instrument type: LC-ESI-QFT
Ms type: MS2
Ion mode: POSITIVE
Ionization: ESI
Fragmentation mode: HCD
Collision energy: 45 (nominal)
Resolution: 35000
Column name: XBridge C18 3.5um, 2.1x50mm, Waters
Retention time: 6.0 min
Base peak: 337.2264
Precursor m/z: 337.2274
Precursor type: [M+H]+
m/z	relative intensity	assigned
55.0541	2	C4H7+
56.0494	1	C3H6N+
57.0335	10	C3H5O+
67.0542	2	C5H7+
69.0698	3	C5H9+
79.0541	2	C6H7+
84.0807	19	C5H10N+
91.054	3	C7H7+
94.0651	3	C6H8N+
96.0808	1	C6H10N+
103.0541	2	C8H7+
105.0699	393	C8H9+
117.0698	3	C9H9+
120.0808	3	C8H10N+
132.0808	35	C9H10N+
134.0964	40	C9H12N+
146.0964	39	C10H12N+
150.0914	6	C9H12NO+
160.112	7	C11H14N+
186.1278	8	C13H16N+
188.1433	999	C13H18N+
190.1223	2	C12H16NO+
216.1383	33	C14H18NO+
281.2013	4	C19H25N2+
337.2273	32	C22H29N2O+
