Mass spectrum: Niflumic acid; LC-ESI-QFT; MS2; CE: 75; R=35000; [M-H]-
Name: Niflumic acid
Name: 2-[3-(trifluoromethyl)anilino]pyridine-3-carboxylic acid
Formula: C13H9F3N2O2
Exact mass: 282.06161
SMILES: C1=CC(=CC(=C1)NC2=C(C=CC=N2)C(=O)O)C(F)(F)F
InChI: InChI=1S/C13H9F3N2O2/c14-13(15,16)8-3-1-4-9(7-8)18-11-10(12(19)20)5-2-6-17-11/h1-7H,(H,17,18)(H,19,20)
Instrument: Q Exactive Plus Orbitrap Thermo Scientific
Instrument type: LC-ESI-QFT
Ms type: MS2
Ion mode: NEGATIVE
Ionization: ESI
Fragmentation mode: HCD
Collision energy: 75 (nominal)
Resolution: 35000
Column name: XBridge C18 3.5um, 2.1x50mm, Waters
Retention time: 12.9 min
Base peak: 281.0538
Precursor m/z: 281.0543
Precursor type: [M-H]-
m/z	relative intensity	assigned
50.0035	2	C3N-
62.9888	12	CFO2-
66.0349	7	C4H4N-
68.9958	40	CF3-
73.0084	5	C6H-
91.0302	24	C5H3N2-
93.0458	92	C5H5N2-
126.0348	2	C9H4N-
143.0113	1	C7H2F3-
145.0269	2	C7H4F3-
150.0348	20	C11H4N-
153.0461	1	C10H5N2-
155.0377	11	C10H5NO-
156.0331	1	C9H4N2O-
160.038	29	C7H5F3N-
165.0455	1	C11H5N2-
166.0535	4	C11H6N2-
167.0615	43	C11H7N2-
170.0411	35	C11H5FN-
171.0364	3	C10H4FN2-
175.0301	7	C12H3N2-
176.0379	3	C12H4N2-
177.0459	999	C12H5N2-
180.0329	18	C11H4N2O-
181.0171	1	C11H3NO2-
182.0484	34	C11H6N2O-
184.0378	7	C9H5F3N-
184.0445	4	C11H5FN2-
185.0336	1	C8H4F3N2-
189.0395	13	C11H5F2N-
190.0474	36	C11H6F2N-
195.0363	130	C12H4FN2-
196.0441	9	C12H5FN2-
197.052	141	C12H6FN2-
198.0415	1	C9H5F3N2-
200.0391	61	C11H5FN2O-
201.0234	2	C11H4FNO2-
201.0469	12	C11H6FN2O-
208.0278	22	C12H4N2O2-
208.0379	9	C11H5F3N-
208.0573	2	C11H8F2NO-
209.0332	13	C10H4F3N2-
210.0536	48	C11H7F3N-
214.0348	1	C12H4F2N2-
215.0427	40	C12H5F2N2-
216.0504	255	C12H6F2N2-
217.0582	47	C12H7F2N2-
222.041	3	C11H5F3N2-
223.0486	2	C11H6F3N2-
227.0265	1	C12H4FN2O2-
228.0341	95	C12H5FN2O2-
234.0409	1	C12H5F3N2-
235.0489	741	C12H6F3N2-
237.0645	126	C12H8F3N2-
