Mass spectrum: Cimetidine; LC-ESI-QFT; MS2; CE: 75; R=35000; [M+H]+
Name: Cimetidine
Name: 1-cyano-2-methyl-3-[2-[(5-methyl-1H-imidazol-4-yl)methylsulfanyl]ethyl]guanidine
Formula: C10H16N6S
Exact mass: 252.11572
SMILES: CC1=C(N=CN1)CSCCNC(=NC)NC#N
InChI: InChI=1S/C10H16N6S/c1-8-9(16-7-15-8)5-17-4-3-13-10(12-2)14-6-11/h7H,3-5H2,1-2H3,(H,15,16)(H2,12,13,14)
Instrument: Q Exactive Plus Orbitrap Thermo Scientific
Instrument type: LC-ESI-QFT
Ms type: MS2
Ion mode: POSITIVE
Ionization: ESI
Fragmentation mode: HCD
Collision energy: 75 (nominal)
Resolution: 35000
Column name: XBridge C18 3.5um, 2.1x50mm, Waters
Retention time: 2.0 min
Base peak: 253.1222
Precursor m/z: 253.123
Precursor type: [M+H]+
m/z	relative intensity	assigned
54.0338	52	C3H4N+
55.029	1	C2H3N2+
57.0447	85	C2H5N2+
61.0106	89	C2H5S+
68.0242	12	C2H2N3+
68.0494	9	C4H6N+
69.0447	2	C3H5N2+
74.0057	2	C2H4NS+
76.0214	1	C2H6NS+
78.0372	2	C2H8NS+
82.0399	110	C3H4N3+
83.0603	2	C4H7N2+
86.0058	1	C3H4NS+
95.0603	999	C5H7N2+
99.0664	162	C3H7N4+
100.0867	1	C4H10N3+
103.0323	11	C3H7N2S+
117.048	246	C4H9N2S+
125.0819	1	C5H9N4+
128.0276	9	C4H6N3S+
132.0589	2	C4H10N3S+
159.0698	14	C5H11N4S+
