Mass spectrum: Microcystin-LR; LC-ESI-ITFT; MS2; CE: 30%; R=7500; [M+H]+
Name: Microcystin-LR
Name: (5R,8R,11R,12S,15S,18S,19S,22R)-15-{3-[(Diaminomethylene)amino]propyl}-8-isobutyl-18-[(1E,3E,5S,6S)-6-methoxy-3,5-dimethyl-7-phenyl-1,3-heptadien-1-yl]-1,5,12,19-tetramethyl-2-methylene-3,6,9,13,16,20 ,25-heptaoxo-1,4,7,10,14,17,21-heptaazacyclopentacosane-11,22-dicarboxylic acid
Name: (5R,8S,11R,12S,15S,18S,19S,22R)-15-(3-guanidinopropyl)-8-isobutyl-3,6,9,13,16,20,25-heptaketo-18-[(1E,3E,5S,6S)-6-methoxy-3,5-dimethyl-7-phenyl-hepta-1,3-dienyl]-1,5,12,19-tetramethyl-2-methylene-1,4,7,10,14,17,21-heptazacyclopentacosane-11,22-dicarboxylic acid
Formula: C49H74N10O12
Exact mass: 994.5488
SMILES: CC1C(NC(=O)C(NC(=O)C(C(NC(=O)C(NC(=O)C(NC(=O)C(=C)N(C(=O)CCC(NC1=O)C(=O)O)C)C)CC(C)C)C(=O)O)C)CCCN=C(N)N)C=CC(=CC(C)C(CC2=CC=CC=C2)OC)C
InChI: InChI=1S/C49H74N10O12/c1-26(2)23-37-46(66)58-40(48(69)70)30(6)42(62)55-35(17-14-22-52-49(50)51)45(65)54-34(19-18-27(3)24-28(4)38(71-10)25-33-15-12-11-13-16-33)29(5)41(61)56-36(47(67)68)20-21-39(60)59(9)32(8)44(64)53-31(7)43(63)57-37/h11-13,15-16,18-19,24,26,28-31,34-38,40H,8,14,17,20-23,25H2,1-7,9-10H3,(H,53,64)(H,54,65)(H,55,62)(H,56,61)(H,57,63)(H,58,66)(H,67,68)(H,69,70)(H4,50,51,52)/b19-18+,27-24+/t28-,29-,30-,31+,34-,35-,36+,37-,38-,40+/m0/s1
Instrument: LTQ Orbitrap XL Thermo Scientific
Instrument type: LC-ESI-ITFT
Ms type: MS2
Ion mode: POSITIVE
Ionization: ESI
Fragmentation mode: HCD
Collision energy: 30 % (nominal)
Resolution: 7500
Column name: XBridge C18 3.5um, 2.1x50mm, Waters
Retention time: 10.2 min
Base peak: 498.2811
Precursor m/z: 995.556
Precursor type: [M+H]+
m/z	relative intensity	assigned
70.065	53	C4H8N+
86.0964	84	C5H12N+
107.0854	80	C8H11+
112.0868	78	C5H10N3+
127.0864	91	C6H11N2O+
135.0802	360	C9H11O+
135.1166	128	C10H15+
155.0811	87	C7H11N2O2+
156.1246	65	C6H14N5+
157.1084	103	C6H13N4O+
163.1112	202	C11H15O+
174.1349	212	C6H16N5O+
195.0763	32	C9H11N2O3+
196.1004	35	C13H12N2+
213.0866	312	C9H13N2O4+
218.1522	27	C12H18N4+
237.1623	31	C2H21N8O5+
240.1437	32	C8H16N8O+
241.1296	61	C10H17N4O3+
244.1283	67	C8H16N6O3+
246.1486	54	C15H20NO2+
258.1847	105	CH24N9O6+
265.1569	51	C17H19N3+
268.1666	73	C13H22N3O3+
269.1248	125	C11H17N4O4+
285.1668	189	C11H21N6O3+
286.1508	172	C11H20N5O4+
292.1531	35	C14H20N4O3+
347.1956	91	C5H29N7O10+
375.1909	409	C4H27N10O10+
446.2279	115	C22H26N10O+
571.3604	48	C30H47N6O5+
910.5023	39	C45H68N9O11+
967.5601	98	C48H75N10O11+
995.5555	999	C49H75N10O12+
