Mass spectrum: Myclobutanil; LC-ESI-ITFT; MS2; CE: 75%; R=7500; [M+H]+
Name: Myclobutanil
Name: MYC
Name: 2-(4-chlorophenyl)-2-(1,2,4-triazol-1-ylmethyl)hexanenitrile
Formula: C15H17ClN4
Exact mass: 288.1142
SMILES: Clc1ccc(cc1)C(C#N)(CCCC)Cn2ncnc2
InChI: InChI=1S/C15H17ClN4/c1-2-3-8-15(9-17,10-20-12-18-11-19-20)13-4-6-14(16)7-5-13/h4-7,11-12H,2-3,8,10H2,1H3
Instrument: LTQ Orbitrap XL Thermo Scientific
Instrument type: LC-ESI-ITFT
Ms type: MS2
Ion mode: POSITIVE
Ionization: ESI
Fragmentation mode: HCD
Collision energy: 75 % (nominal)
Resolution: 7500
Column name: XBridge C18 3.5um, 2.1x50mm, Waters
Retention time: 11.2 min
Base peak: 289.1218
Precursor m/z: 289.1215
Precursor type: [M+H]+
m/z	relative intensity	assigned
55.0543	1	C4H7+
57.0698	2	C4H9+
70.04	673	C2H4N3+
79.0539	1	C6H7+
80.0494	1	C5H6N+
81.07	4	C6H9+
82.0401	13	C3H4N3+
82.0652	2	C5H8N+
83.0479	7	C3H5N3+
89.0386	13	C7H5+
90.0466	1	C7H6+
91.0541	1	C7H7+
94.065	2	C6H8N+
95.0728	3	C6H9N+
98.9997	5	C5H4Cl+
102.0464	2	C8H6+
103.0543	1	C8H7+
115.0543	27	C9H7+
116.0622	39	C9H8+
125.0153	999	C7H6Cl+
128.0496	22	C9H6N+
129.045	2	C8H5N2+
130.0652	17	C9H8N+
130.0778	1	C10H10+
131.0731	5	C9H9N+
137.0155	17	C8H6Cl+
139.0309	3	C8H8Cl+
142.0775	2	C11H10+
143.0602	4	C9H7N2+
143.0729	6	C10H9N+
143.0856	3	C11H11+
146.0599	2	C6H11ClN2+
149.0155	9	C9H6Cl+
150.0105	28	C8H5ClN+
151.031	106	C9H8Cl+
153.0699	7	C12H9+
156.0562	1	C9H6N3+
156.0812	4	C11H10N+
163.0178	2	C9H6ClN+
163.0311	2	C10H8Cl+
164.0263	56	C9H7ClN+
165.0334	2	C9H8ClN+
165.0459	1	C10H10Cl+
166.0419	3	C9H9ClN+
167.0855	3	C13H11+
168.0931	4	C13H12+
170.0967	2	C12H12N+
175.0308	5	C11H8Cl+
178.042	12	C10H9ClN+
