Mass spectrum: Iopromide; LC-ESI-ITFT; MS2; CE: 45%; R=15000; [M+H]+
Name: Iopromide
Name: 1-N,3-N-bis(2,3-dihydroxypropyl)-2,4,6-triiodo-5-[(2-methoxyacetyl)amino]-3-N-methylbenzene-1,3-dicarboxamide
Formula: C18H24I3N3O8
Exact mass: 790.8698
SMILES: CN(CC(CO)O)C(=O)C1=C(C(=C(C(=C1I)C(=O)NCC(CO)O)I)NC(=O)COC)I
InChI: InChI=1S/C18H24I3N3O8/c1-24(4-9(28)6-26)18(31)12-13(19)11(17(30)22-3-8(27)5-25)14(20)16(15(12)21)23-10(29)7-32-2/h8-9,25-28H,3-7H2,1-2H3,(H,22,30)(H,23,29)
Instrument: LTQ Orbitrap XL Thermo Scientific
Instrument type: LC-ESI-ITFT
Ms type: MS2
Ion mode: POSITIVE
Ionization: ESI
Fragmentation mode: HCD
Collision energy: 45 % (nominal)
Resolution: 15000
Column name: XBridge C18 3.5um, 2.1x50mm, Waters
Retention time: 2.7 min
Base peak: 132.9579
Precursor m/z: 791.877
Precursor type: [M+H]+
m/z	relative intensity	assigned
88.0755	26	C4H10NO+
188.0334	23	C10H6NO3+
203.0214	23	C10H5NO4+
259.0706	55	C13H11N2O4+
277.0821	26	C13H13N2O5+
283.9205	48	C9H3INO2+
287.952	41	C9H7INO2+
293.8844	55	CHIN3O7+
293.9045	91	C10HINO2+
298.931	67	C9H4IN2O2+
299.915	829	C9H3INO3+
312.9468	92	C10H6IN2O2+
313.9307	146	C10H5INO3+
317.9255	999	C9H5INO4+
326.9021	123	C10H2INO4+
330.9565	23	C10H8IN2O3+
331.941	26	C10H7INO4+
344.9132	44	C10H4INO5+
357.9195	84	C11H5INO5+
372.9678	97	C12H10IN2O4+
386.9824	73	C13H12IN2O4+
404.9941	34	C13H14IN2O5+
413.8121	26	C8H2I2NO3+
413.9701	31	C14H11IN2O5+
423.7963	151	C9I2NO3+
425.8117	70	C9H2I2NO3+
441.8056	129	C6H4I2O7+
485.8305	37	C8H8I2O8+
527.8666	26	C13H10I2N2O5+
