Mass spectrum: Bifenazate-Diazene; LC-ESI-QFT; MS2; CE: 120%; R=17500; [M+H]+
Name: Bifenazate-Diazene
Name: propan-2-yl N-(2-methoxy-5-phenylphenyl)iminocarbamate
Formula: C17H18N2O3
Exact mass: 298.1317
SMILES: CC(C)OC(=O)N=NC1=C(C=CC(=C1)C2=CC=CC=C2)OC
InChI: InChI=1S/C17H18N2O3/c1-12(2)22-17(20)19-18-15-11-14(9-10-16(15)21-3)13-7-5-4-6-8-13/h4-12H,1-3H3
Instrument: Exploris 240 Orbitrap Thermo Scientific
Instrument type: LC-ESI-QFT
Ms type: MS2
Ion mode: POSITIVE
Ionization: ESI
Fragmentation mode: HCD
Collision energy: 120 % (nominal)
Resolution: 17500
Column name: XBridge C18 3.5um, 2.1x50mm, Waters
Retention time: 12.068 min
Base peak: 299.1387
Precursor m/z: 299.139
Precursor type: [M+H]+
m/z	relative intensity	assigned
51.0231	33	C4H3+
77.0383	38	C6H5+
91.054	57	C7H7+
102.0463	413	C8H6+
115.0542	732	C9H7+
128.062	381	C10H8+
129.0696	36	C10H9+
139.0545	84	C11H7+
140.0622	29	C11H8+
141.0698	999	C11H9+
151.0544	75	C12H7+
152.0619	419	C12H8+
154.0652	41	C11H8N+
155.0598	115	C10H7N2+
156.0811	80	C11H10N+
167.0731	75	C12H9N+
168.0811	60	C12H10N+
169.0654	129	C12H9O+
196.0757	251	C13H10NO+
