Mass spectrum: Permethrin; LC-ESI-QFT; MS2; CE: 45; R=35000; [M+H]+
Name: Permethrin
Name: [3-(phenyloxy)phenyl]methyl 3-(2,2-dichloroethenyl)-2,2-dimethylcyclopropanecarboxylate
Name: (3-phenoxyphenyl)methyl 3-(2,2-dichloroethenyl)-2,2-dimethylcyclopropane-1-carboxylate
Formula: C21H20Cl2O3
Exact mass: 390.07895
SMILES: Cl/C(Cl)=C/C3C(C(=O)OCc2cccc(Oc1ccccc1)c2)C3(C)C
InChI: InChI=1S/C21H20Cl2O3/c1-21(2)17(12-18(22)23)19(21)20(24)25-13-14-7-6-10-16(11-14)26-15-8-4-3-5-9-15/h3-12,17,19H,13H2,1-2H3
Instrument: Q Exactive Orbitrap Thermo Scientific
Instrument type: LC-ESI-QFT
Ms type: MS2
Ion mode: POSITIVE
Ionization: ESI
Fragmentation mode: HCD
Collision energy: 45 (nominal)
Resolution: 35000
Column name: XBridge C18 3.5um, 2.1x50mm, Waters
Retention time: 18.0 min
Base peak: 183.0804
Precursor m/z: 391.0862
Precursor type: [M+H]+
m/z	relative intensity	assigned
57.0699	43	C4H9+
65.0385	5	C5H5+
67.0543	1	C5H7+
71.0855	79	C5H11+
77.0153	4	C3H6Cl+
95.0491	2	C6H7O+
111.0442	1	C6H7O2+
115.0541	1	C9H7+
121.0284	12	C7H5O2+
121.0396	1	C6H5N2O+
149.0234	999	C8H5O3+
153.0698	5	C12H9+
154.0778	2	C12H10+
155.0854	6	C12H11+
162.0232	2	C10H7Cl+
165.07	7	C13H9+
166.0776	1	C13H10+
167.034	13	C8H7O4+
167.0855	12	C13H11+
168.057	16	C12H8O+
175.0309	3	C11H8Cl+
179.0857	2	C14H11+
180.0933	17	C14H12+
181.101	5	C14H13+
182.0728	1	C13H10O+
182.109	4	C14H14+
183.0806	27	C13H11O+
207.0806	1	C15H11O+
219.0807	1	C16H11O+
220.0882	2	C16H12O+
221.096	1	C16H13O+
233.0958	4	C17H13O+
255.0573	6	C16H12ClO+
261.0908	5	C18H13O2+
275.1429	2	C20H19O+
