Mass spectrum: Moclobemide; LC-ESI-ITFT; MS2; CE: 35%; R=30000; [M+H]+
Name: Moclobemide
Name: 4-chloranyl-N-(2-morpholin-4-ylethyl)benzamide
Formula: C13H17ClN2O2
Exact mass: 268.0979
SMILES: Cl-c(ccc1C(=O)NCCN(CCO2)CC2)cc1
InChI: InChI=1S/C13H17ClN2O2/c14-12-3-1-11(2-4-12)13(17)15-5-6-16-7-9-18-10-8-16/h1-4H,5-10H2,(H,15,17)
Instrument: LTQ Orbitrap XL Thermo Scientific
Instrument type: LC-ESI-ITFT
Ms type: MS2
Ion mode: POSITIVE
Ionization: ESI
Fragmentation mode: CID
Collision energy: 35 % (nominal)
Resolution: 30000
Column name: XBridge C18 3.5um, 2.1x50mm, Waters
Retention time: 4.5 min
Base peak: 269.1062
Precursor m/z: 269.1051
Precursor type: [M+H]+
m/z	relative intensity	assigned
88.0757	2	C4H10NO+
110.9991	1	C6H4Cl+
114.0914	3	C6H12NO+
138.9945	3	C7H4ClO+
182.0369	999	C9H9ClNO+
