Mass spectrum: Pyraclostrobin; LC-ESI-ITFT; MS2; CE: 75%; R=15000; [M+H]+
Name: Pyraclostrobin
Name: methyl [2-({[1-(4-chlorophenyl)-1H-pyrazol-3-yl]oxy}methyl)phenyl]methoxycarbamate
Formula: C19H18ClN3O4
Exact mass: 387.0986
SMILES: c1(ccc(n2ccc(OCc3c(cccc3)N(OC)C(OC)=O)n2)cc1)Cl
InChI: InChI=1S/C19H18ClN3O4/c1-25-19(24)23(26-2)17-6-4-3-5-14(17)13-27-18-11-12-22(21-18)16-9-7-15(20)8-10-16/h3-12H,13H2,1-2H3
Instrument: LTQ Orbitrap XL Thermo Scientific
Instrument type: LC-ESI-ITFT
Ms type: MS2
Ion mode: POSITIVE
Ionization: ESI
Fragmentation mode: HCD
Collision energy: 75 % (nominal)
Resolution: 15000
Column name: XBridge C18 3.5um, 2.1x50mm, Waters
Retention time: 13.4 min
Base peak: 388.1064
Precursor m/z: 388.1059
Precursor type: [M+H]+
m/z	relative intensity	assigned
77.0386	78	C6H5+
78.0464	41	C6H6+
79.0541	36	C6H7+
91.0414	25	C6H5N+
91.0542	127	C7H7+
92.0258	20	C6H4O+
92.0495	24	C6H6N+
93.0575	17	C6H7N+
95.0493	20	C6H7O+
103.0415	17	C7H5N+
104.0495	701	C7H6N+
105.0573	999	C7H7N+
106.0288	24	C6H4NO+
106.0651	144	C7H8N+
107.0726	42	C7H9N+
108.0443	39	C6H6NO+
116.0495	39	C8H6N+
117.0572	34	C8H7N+
118.0651	120	C8H8N+
119.0365	379	C7H5NO+
120.0443	729	C7H6NO+
121.0648	194	C8H9O+
123.0683	25	C7H9NO+
128.0495	37	C9H6N+
130.0286	87	C8H4NO+
132.0444	747	C8H6NO+
133.0522	916	C8H7NO+
134.0237	115	C7H4NO2+
134.06	104	C8H8NO+
139.0057	67	C6H4ClN2+
146.0603	16	C6H11ClN2+
148.0393	150	C8H6NO2+
149.0471	597	C8H7NO2+
162.0549	429	C9H8NO2+
163.0627	404	C9H9NO2+
218.0836	33	C15H10N2+
243.0786	29	C12H16ClO3+
253.0523	38	C18H7NO+
353.1121	17	C17H15N5O4+
