Mass spectrum: Ethion; LC-ESI-QFT; MS2; CE: 120%; R=17500; [M+H]+
Name: Ethion
Name: diethoxyphosphinothioylsulfanylmethylsulfanyl-diethoxy-sulfanylidene-lambda5-phosphane
Formula: C9H22O4P2S4
Exact mass: 383.9876
SMILES: CCOP(=S)(OCC)SCSP(=S)(OCC)OCC
InChI: InChI=1S/C9H22O4P2S4/c1-5-10-14(16,11-6-2)18-9-19-15(17,12-7-3)13-8-4/h5-9H2,1-4H3
Instrument: Exploris 240 Orbitrap Thermo Scientific
Instrument type: LC-ESI-QFT
Ms type: MS2
Ion mode: POSITIVE
Ionization: ESI
Fragmentation mode: HCD
Collision energy: 120 % (nominal)
Resolution: 17500
Column name: XBridge C18 3.5um, 2.1x50mm, Waters
Retention time: 13.677 min
Base peak: 384.9948
Precursor m/z: 384.9949
Precursor type: [M+H]+
m/z	relative intensity	assigned
64.9787	364	H2O2P+
78.9402	270	OPS+
96.9508	999	H2O2PS+
110.9664	35	CH4O2PS+
114.9613	313	H4O3PS+
128.9767	19	CH6O3PS+
