Mass spectrum: N-desmethylpheniramine; LC-ESI-QFT; MS2; CE: 75; R=35000; [M+H]+
Name: N-desmethylpheniramine
Name: N-methyl-3-phenyl-3-pyridin-2-ylpropan-1-amine
Formula: C15H18N2
Exact mass: 226.14700
SMILES: CNCCC(C1=CC=CC=C1)C2=CC=CC=N2
InChI: InChI=1S/C15H18N2/c1-16-12-10-14(13-7-3-2-4-8-13)15-9-5-6-11-17-15/h2-9,11,14,16H,10,12H2,1H3
Instrument: Q Exactive Plus Orbitrap Thermo Scientific
Instrument type: LC-ESI-QFT
Ms type: MS2
Ion mode: POSITIVE
Ionization: ESI
Fragmentation mode: HCD
Collision energy: 75 (nominal)
Resolution: 35000
Column name: XBridge C18 3.5um, 2.1x50mm, Waters
Retention time: 3.6 min
Base peak: 227.154
Precursor m/z: 227.1543
Precursor type: [M+H]+
m/z	relative intensity	assigned
65.0385	4	C5H5+
80.0494	3	C5H6N+
91.0542	185	C7H7+
92.0494	6	C6H6N+
93.0573	2	C6H7N+
94.0651	3	C6H8N+
103.0541	3	C8H7+
110.06	16	C6H8NO+
115.0542	2	C9H7+
117.0572	39	C8H7N+
117.0695	2	C9H9+
118.0651	131	C8H8N+
119.0729	33	C8H9N+
129.0697	3	C10H9+
141.0701	2	C11H9+
166.0649	1	C12H8N+
167.0729	682	C12H9N+
168.0807	999	C12H10N+
180.0807	19	C13H10N+
181.0885	14	C13H11N+
193.0887	1	C14H11N+
194.0965	47	C14H12N+
195.1042	16	C14H13N+
196.112	771	C14H14N+
