Mass spectrum: Citalopram; LC-ESI-ITFT; MS2; CE: 45%; R=15000; [M+H]+
Name: Citalopram
Name: 1-[3-(dimethylamino)propyl]-1-(4-fluorophenyl)-3H-2-benzofuran-5-carbonitrile
Formula: C20H21FN2O
Exact mass: 324.1638
SMILES: Fc1ccc(cc1)C3(OCc2cc(C#N)ccc23)CCCN(C)C
InChI: InChI=1S/C20H21FN2O/c1-23(2)11-3-10-20(17-5-7-18(21)8-6-17)19-9-4-15(13-22)12-16(19)14-24-20/h4-9,12H,3,10-11,14H2,1-2H3
Instrument: LTQ Orbitrap XL Thermo Scientific
Instrument type: LC-ESI-ITFT
Ms type: MS2
Ion mode: POSITIVE
Ionization: ESI
Fragmentation mode: HCD
Collision energy: 45 % (nominal)
Resolution: 15000
Column name: XBridge C18 3.5um, 2.1x50mm, Waters
Retention time: 6.6 min
Base peak: 325.1719
Precursor m/z: 325.1711
Precursor type: [M+H]+
m/z	relative intensity	assigned
58.0651	55	C3H8N+
84.0807	10	C5H10N+
109.0448	999	C7H6F+
116.0494	148	C8H6N+
121.0447	8	C8H6F+
123.0241	10	C7H4FO+
123.0603	9	C8H8F+
130.065	9	C9H8N+
133.0454	3	C9H6F+
140.0492	11	C10H6N+
142.0652	4	C10H8N+
144.0444	12	C9H6NO+
147.0605	7	C10H8F+
154.0651	8	C11H8N+
156.0806	53	C11H10N+
166.065	103	C12H8N+
168.0805	9	C12H10N+
184.0757	5	C12H10NO+
215.0856	11	C17H11+
221.0634	52	C15H8FN+
222.0711	34	C15H9FN+
224.0869	6	C15H11FN+
227.0728	20	C17H9N+
234.0712	216	C16H9FN+
235.0916	37	C17H12F+
236.0868	27	C16H11FN+
238.0661	45	C15H9FNO+
240.0817	5	C18H10N+
241.0879	8	C18H11N+
242.0963	79	C18H12N+
245.0761	5	C18H10F+
247.079	120	C17H10FN+
250.1024	38	C17H13FN+
260.0869	15	C18H11FN+
261.0942	9	C18H12FN+
262.1024	600	C18H13FN+
280.1138	13	C18H15FNO+
307.1603	55	C20H20FN2+
325.1705	220	C20H22FN2O+
