Mass spectrum: Pethoxamide; LC-ESI-ITFT; MS2; CE: 15%; R=7500; [M+H]+
Name: Pethoxamide
Name: 2-chloro-N-(2-ethoxyethyl)-N-(2-methyl-1-phenylprop-1-enyl)acetamide
Formula: C16H22ClNO2
Exact mass: 295.1334
SMILES: ClCC(=O)N(CCOCC)\C(=C(\C)C)c1ccccc1
InChI: InChI=1S/C16H22ClNO2/c1-4-20-11-10-18(15(19)12-17)16(13(2)3)14-8-6-5-7-9-14/h5-9H,4,10-12H2,1-3H3
Instrument: LTQ Orbitrap XL Thermo Scientific
Instrument type: LC-ESI-ITFT
Ms type: MS2
Ion mode: POSITIVE
Ionization: ESI
Fragmentation mode: HCD
Collision energy: 15 % (nominal)
Resolution: 7500
Column name: XBridge C18 3.5um, 2.1x50mm, Waters
Retention time: 11.5 min
Base peak: 296.1418
Precursor m/z: 296.1412
Precursor type: [M+H]+
m/z	relative intensity	assigned
73.0648	8	C4H9O+
91.0538	3	C7H7+
131.0855	36	C10H11+
148.0524	3	C6H11ClNO+
220.1695	3	C14H22NO+
250.0994	553	C14H17ClNO+
296.1413	999	C16H23ClNO2+
