Mass spectrum: Norfloxacin; LC-ESI-ITFT; MS2; CE: 60%; R=7500; [M+H]+
Name: Norfloxacin
Name: 1-ethyl-6-fluoro-4-oxo-7-piperazin-1-yl-1,4-dihydroquinoline-3-carboxylic acid
Formula: C16H18FN3O3
Exact mass: 319.1332
SMILES: CCN1C=C(C(O)=O)C(=O)C2=CC(F)=C(C=C12)N3CCNCC3
InChI: InChI=1S/C16H18FN3O3/c1-2-19-9-11(16(22)23)15(21)10-7-12(17)14(8-13(10)19)20-5-3-18-4-6-20/h7-9,18H,2-6H2,1H3,(H,22,23)
Instrument: LTQ Orbitrap XL Thermo Scientific
Instrument type: LC-ESI-ITFT
Ms type: MS2
Ion mode: POSITIVE
Ionization: ESI
Fragmentation mode: HCD
Collision energy: 60 % (nominal)
Resolution: 7500
Column name: XBridge C18 3.5um, 2.1x50mm, Waters
Retention time: 4.4 min
Base peak: 320.1415
Precursor m/z: 320.1405
Precursor type: [M+H]+
m/z	relative intensity	assigned
58.0651	1	C3H8N+
70.0652	13	C4H8N+
136.0557	1	C8H7FN+
152.0747	3	C8H9FN2+
159.0928	1	C7H12FN2O+
163.0423	2	C9H6FNO+
163.0668	6	C9H8FN2+
164.0508	6	C9H7FNO+
165.0592	2	C9H8FNO+
165.0825	15	C9H10FN2+
172.076	7	C11H10NO+
175.0663	2	C10H8FN2+
176.0746	16	C10H9FN2+
177.0581	2	C10H8FNO+
177.0825	6	C10H10FN2+
179.0614	9	C9H8FN2O+
179.0985	10	C10H12FN2+
184.0637	5	C11H8N2O+
185.0711	19	C11H9N2O+
185.1084	2	C9H14FN2O+
186.0589	1	C11H7FN2+
187.0667	7	C11H8FN2+
188.0508	2	C11H7FNO+
189.0825	10	C11H10FN2+
190.0657	9	C11H9FNO+
190.0902	1	C11H11FN2+
191.0622	22	C10H8FN2O+
191.0984	4	C11H12FN2+
193.0768	3	C10H10FN2O+
196.0874	1	C12H10N3+
198.0692	7	C10H11FO3+
198.1029	4	C12H12N3+
199.0757	5	C8H10FN3O2+
200.0827	1	C11H10N3O+
201.1016	3	C12H13N2O+
202.0896	2	C12H11FN2+
203.0617	73	C11H8FN2O+
204.0696	82	C11H9FN2O+
204.1062	23	C12H13FN2+
205.0776	227	C11H10FN2O+
206.0854	28	C11H11FN2O+
207.0929	20	C11H12FN2O+
211.1109	13	C13H13N3+
212.082	6	C12H10N3O+
212.1182	3	C13H14N3+
213.1021	12	C13H13N2O+
215.0981	9	C13H12FN2+
216.0733	2	C6H10N5O4+
217.0771	8	C12H10FN2O+
218.0852	23	C12H11FN2O+
219.0931	104	C12H12FN2O+
220.0996	3	C12H13FN2O+
221.0728	3	C11H10FN2O2+
223.0643	7	C11H10FNO3+
225.0907	8	C10H12FN3O2+
226.0979	29	C13H12N3O+
226.1343	15	C14H16N3+
227.0824	2	C13H11N2O2+
227.106	15	C13H13N3O+
228.1132	13	C13H14N3O+
230.0835	3	C16H10N2+
230.1287	3	C13H16N3O+
231.0566	268	C12H8FN2O2+
233.1087	446	C13H14FN2O+
239.1062	1	C14H13N3O+
241.1206	2	C14H15N3O+
245.0723	8	C13H10FN2O2+
245.1084	5	C14H14FN2O+
246.104	3	C13H13FN3O+
246.1413	7	C14H17FN3+
248.1184	4	C13H15FN3O+
249.0679	6	C12H10FN2O3+
252.0757	3	C14H10N3O2+
253.0847	14	C14H11N3O2+
254.0926	61	C14H12N3O2+
254.1288	27	C15H16N3O+
256.1448	31	C12H19FN3O2+
258.1402	12	C15H17FN3+
259.0879	16	C14H12FN2O2+
272.1018	12	C14H14N3O3+
273.0908	3	C14H12FN3O2+
274.0988	56	C14H13FN3O2+
274.1353	24	C15H17FN3O+
276.151	38	C15H19FN3O+
277.0976	2	C14H14FN2O3+
282.1239	253	C16H16N3O2+
292.1092	13	C14H15FN3O3+
300.1346	52	C16H18N3O3+
302.1303	999	C16H17FN3O2+
320.14	272	C16H19FN3O3+
