Mass spectrum: Fenthion-sulfone; LC-ESI-QFT; MS2; CE: 120; R=35000; [M+H]+
Name: Fenthion-sulfone
Name: Fenthione sulphone
Name: O,O-Dimethyl O-[3-methyl-4-(methylsulfonyl)phenyl] phosphorothioate
Formula: C10H15O5PS2
Exact mass: 310.00985
SMILES: CC1=C(C=CC(=C1)OP(=S)(OC)OC)S(=O)(=O)C
InChI: InChI=1S/C10H15O5PS2/c1-8-7-9(15-16(17,13-2)14-3)5-6-10(8)18(4,11)12/h5-7H,1-4H3
Instrument: Q Exactive Plus Orbitrap Thermo Scientific
Instrument type: LC-ESI-QFT
Ms type: MS2
Ion mode: POSITIVE
Ionization: ESI
Fragmentation mode: HCD
Collision energy: 120 (nominal)
Resolution: 35000
Column name: XBridge C18 3.5um, 2.1x50mm, Waters
Retention time: 7.8 min
Base peak: 311.0163
Precursor m/z: 311.0171
Precursor type: [M+H]+
m/z	relative intensity	assigned
50.0151	103	C4H2+
51.0229	125	C4H3+
52.0307	13	C4H4+
53.0022	24	C3HO+
53.0386	177	C4H5+
53.9974	2	C2NO+
55.0178	60	C3H3O+
55.0542	8	C4H7+
56.9794	2	C2HS+
57.9872	20	C2H2S+
58.995	28	C2H3S+
59.9664	62	COS+
61.0106	5	C2H5S+
62.0151	14	C5H2+
62.0184	81	C2H6S+
62.9453	292	PS+
62.9899	59	CH3OS+
62.9994	110	CH4OP+
63.0229	110	C5H3+
63.9436	5	S2+
64.0307	25	C5H4+
65.0386	689	C5H5+
66.0464	269	C5H6+
67.0542	235	C5H7+
67.9892	3	C3O2+
68.9793	64	C3HS+
69.9872	10	C3H2S+
70.9949	89	C3H3S+
76.0307	9	C6H4+
77.0385	316	C6H5+
78.0464	428	C6H6+
78.9943	999	CH4O2P+
79.0542	264	C6H7+
79.9479	4	HOPS+
80.0619	4	C6H8+
81.01	19	CH6O2P+
81.0335	20	C5H5O+
81.9872	21	C4H2S+
82.9949	13	C4H3S+
84.0028	33	C4H4S+
84.9742	15	C3HOS+
85.0105	19	C4H5S+
89.0385	268	C7H5+
90.0465	25	C7H6+
91.0542	578	C7H7+
92.062	18	C7H8+
93.01	99	C2H6O2P+
93.0336	22	C6H5O+
93.0699	8	C7H9+
94.0413	118	C6H6O+
95.0491	542	C6H7O+
96.0027	25	C5H4S+
96.0124	16	C5H5P+
97.0051	36	CH6O3P+
97.0106	170	C5H5S+
98.0185	9	C5H6S+
98.9841	9	H4O4P+
102.0464	10	C8H6+
103.0542	152	C8H7+
104.0619	15	C8H8+
105.0335	41	C7H5O+
105.0447	288	C6H5N2+
105.0699	51	C8H9+
106.0413	15	C7H6O+
107.0045	47	C6H4P+
107.0491	63	C7H7O+
108.0028	66	C6H4S+
109.0106	127	C6H5S+
109.0201	12	
110.0184	23	C6H6S+
110.9899	8	C5H3OS+
111.0205	11	C2H8O3P+
111.0262	38	C6H7S+
112.9998	2	CH6O4P+
113.0151	2	C5H6OP+
119.0491	8	C8H7O+
119.0603	3	C7H7N2+
121.0106	471	C7H5S+
122.0184	149	C7H6S+
123.0262	46	C7H7S+
123.9977	9	C6H4OS+
124.982	29	C2H6O2PS+
125.0056	4	C6H5OS+
127.0154	130	C2H8O4P+
128.9769	14	CH6O3PS+
134.0185	17	C8H6S+
135.0262	63	C8H7S+
136.0072	4	C7H5OP+
137.0055	65	C7H5OS+
137.0149	8	C7H6OP+
138.0137	4	C7H6OS+
138.9765	62	C6H4PS+
139.0212	27	C7H7OS+
139.9843	34	C6H5PS+
142.9926	60	C2H8O3PS+
151.9845	14	C7H5PS+
153.0103	3	C7H6O2P+
154.9715	32	C6H4OPS+
167.9793	24	C7H5OPS+
168.9871	227	C7H6OPS+
