Mass spectrum: Clothianidin; LC-ESI-ITFT; MS2; CE: 45%; R=7500; [M+H]+
Name: Clothianidin
Name: 1-[(2-chloranyl-1,3-thiazol-5-yl)methyl]-2-methyl-3-nitro-guanidine
Name: 1-[(2-chloro-1,3-thiazol-5-yl)methyl]-2-methyl-3-nitroguanidine
Formula: C6H8ClN5O2S
Exact mass: 249.0087
SMILES: Clc1ncc(s1)CN/C(=N/C)N[N+]([O-])=O
InChI: InChI=1S/C6H8ClN5O2S/c1-8-6(11-12(13)14)10-3-4-2-9-5(7)15-4/h2H,3H2,1H3,(H2,8,10,11)
Instrument: LTQ Orbitrap XL Thermo Scientific
Instrument type: LC-ESI-ITFT
Ms type: MS2
Ion mode: POSITIVE
Ionization: ESI
Fragmentation mode: HCD
Collision energy: 45 % (nominal)
Resolution: 7500
Column name: XBridge C18 3.5um, 2.1x50mm, Waters
Retention time: 4.9 min
Base peak: 250.0165
Precursor m/z: 250.016
Precursor type: [M+H]+
m/z	relative intensity	assigned
54.0338	1	C3H4N+
57.0447	5	C2H5N2+
63.9946	2	CH3ClN+
69.0445	1	C3H5N2+
70.9949	2	C3H3S+
78.9402	1	CClS+
86.0059	20	C3H4NS+
87.0136	1	C3H5NS+
109.0634	6	C5H7N3+
110.0713	122	C5H8N3+
111.079	17	C5H9N3+
112.0085	1	C4H4N2S+
113.0168	297	C4H5N2S+
118.959	1	C3H2ClNS+
119.9668	10	C3H3ClNS+
121.9826	3	C3H5ClNS+
127.0198	6	C4H5N3S+
131.967	999	C4H3ClNS+
132.9746	6	C4H4ClNS+
135.0666	1	C6H7N4+
141.0352	1	C5H7N3S+
142.0434	8	C5H8N3S+
143.0511	10	C5H9N3S+
146.9778	27	C4H4ClN2S+
147.9856	46	C4H5ClN2S+
148.9929	1	C4H6ClN2S+
152.0277	3	C6H6N3S+
153.0227	9	C5H5N4S+
167.0384	14	C6H7N4S+
168.0464	141	C6H8N4S+
169.0544	700	C6H9N4S+
171.9734	1	C5H3ClN3S+
172.9809	20	C5H4ClN3S+
174.9727	47	C5H4ClN2OS+
203.0149	2	C6H8ClN4S+
204.0228	9	C6H9ClN4S+
206.015	6	C6H9ClN3OS+
