Mass spectrum: Dimethachlor; LC-ESI-ITFT; MS2; CE: 90%; R=30000; [M+H]+
Name: Dimethachlor
Name: 2-chloranyl-N-(2,6-dimethylphenyl)-N-(2-methoxyethyl)ethanamide
Formula: C13H18ClNO2
Exact mass: 255.1021
SMILES: Cc1cccc(C)c1N(CCOC)C(=O)CCl
InChI: InChI=1S/C13H18ClNO2/c1-10-5-4-6-11(2)13(10)15(7-8-17-3)12(16)9-14/h4-6H,7-9H2,1-3H3
Instrument: LTQ Orbitrap XL Thermo Scientific
Instrument type: LC-ESI-ITFT
Ms type: MS2
Ion mode: POSITIVE
Ionization: ESI
Fragmentation mode: HCD
Collision energy: 90 % (nominal)
Resolution: 30000
Column name: XBridge C18 3.5um, 2.1x50mm, Waters
Retention time: 9.1 min
Base peak: 256.1106
Precursor m/z: 256.1099
Precursor type: [M+H]+
m/z	relative intensity	assigned
75.9949	5	C2H3ClN+
76.9789	53	C2H2ClO+
77.0386	94	C6H5+
79.0543	279	C6H7+
91.0542	97	C7H7+
93.0699	16	C7H9+
95.049	11	C6H7O+
103.0542	163	C8H7+
105.0699	821	C8H9+
106.065	4	C7H8N+
106.0777	39	C8H10+
107.073	15	C7H9N+
107.0855	21	C8H11+
115.0542	7	C9H7+
116.062	22	C9H8+
117.0573	63	C8H7N+
117.0698	4	C9H9+
118.0651	208	C8H8N+
119.073	11	C8H9N+
119.0855	43	C9H11+
120.0808	70	C8H10N+
121.0648	36	C8H9O+
121.0887	7	C8H11N+
121.1012	11	C9H13+
122.0964	24	C8H12N+
123.0804	7	C8H11O+
129.0699	12	C10H9+
130.0651	26	C9H8N+
131.0729	74	C9H9N+
131.0855	40	C10H11+
132.0808	597	C9H10N+
133.0886	233	C9H11N+
134.0964	17	C9H12N+
144.0808	24	C10H10N+
145.0886	6	C10H11N+
146.0965	133	C10H12N+
147.0679	6	C9H9NO+
147.104	7	C10H13N+
148.1121	999	C10H14N+
153.0464	5	C9H10Cl+
158.0966	7	C11H12N+
160.0759	5	C10H10NO+
173.0159	2	C11H6Cl+
174.0913	37	C11H12NO+
224.0834	29	C12H15ClNO+
