Mass spectrum: Resmethrin; LC-ESI-QFT; MS2; CE: 180%; R=17500; [M+H]+
Name: Resmethrin
Name: (5-benzylfuran-3-yl)methyl 2,2-dimethyl-3-(2-methylprop-1-enyl)cyclopropane-1-carboxylate
Formula: C22H26O3
Exact mass: 338.1882
SMILES: CC(=CC1C(C1(C)C)C(=O)OCC2=COC(=C2)CC3=CC=CC=C3)C
InChI: InChI=1S/C22H26O3/c1-15(2)10-19-20(22(19,3)4)21(23)25-14-17-12-18(24-13-17)11-16-8-6-5-7-9-16/h5-10,12-13,19-20H,11,14H2,1-4H3
Instrument: Exploris 240 Orbitrap Thermo Scientific
Instrument type: LC-ESI-QFT
Ms type: MS2
Ion mode: POSITIVE
Ionization: ESI
Fragmentation mode: HCD
Collision energy: 180 % (nominal)
Resolution: 17500
Column name: XBridge C18 3.5um, 2.1x50mm, Waters
Retention time: 15.698 min
Base peak: 339.1952
Precursor m/z: 339.1955
Precursor type: [M+H]+
m/z	relative intensity	assigned
50.0152	45	C4H2+
51.0229	260	C4H3+
53.0385	123	C4H5+
55.0543	27	C4H7+
63.0229	147	C5H3+
65.0386	999	C5H5+
75.0229	55	C6H3+
77.0386	316	C6H5+
78.0464	252	C6H6+
79.0543	76	C6H7+
89.0386	103	C7H5+
91.0542	746	C7H7+
94.0414	41	C6H6O+
95.0491	90	C6H7O+
102.0463	396	C8H6+
115.0541	378	C9H7+
126.0465	90	C10H6+
127.0541	117	C10H7+
128.062	507	C10H8+
141.0701	35	C11H9+
