Mass spectrum: Metoclopramide; LC-ESI-ITFT; MS2; CE: 90%; R=7500; [M+H]+
Name: Metoclopramide
Name: 4-amino-5-chloro-N-(2-diethylaminoethyl)-2-methoxy-benzamide
Formula: C14H22ClN3O2
Exact mass: 299.1401
SMILES: c1(cc(C(=O)NCCN(CC)CC)c(cc1N)OC)Cl
InChI: InChI=1S/C14H22ClN3O2/c1-4-18(5-2)7-6-17-14(19)10-8-11(15)12(16)9-13(10)20-3/h8-9H,4-7,16H2,1-3H3,(H,17,19)
Instrument: LTQ Orbitrap XL Thermo Scientific
Instrument type: LC-ESI-ITFT
Ms type: MS2
Ion mode: POSITIVE
Ionization: ESI
Fragmentation mode: HCD
Collision energy: 90 % (nominal)
Resolution: 7500
Column name: XBridge C18 3.5um, 2.1x50mm, Waters
Retention time: 4.3 min
Base peak: 300.1485
Precursor m/z: 300.1473
Precursor type: [M+H]+
m/z	relative intensity	assigned
54.0338	12	C3H4N+
63.0229	32	C5H3+
65.0385	6	C5H5+
72.0808	6	C4H10N+
78.0338	14	C5H4N+
82.0289	11	C4H4NO+
87.9948	9	C3H3ClN+
90.0338	89	C6H4N+
92.0493	10	C6H6N+
93.0573	53	C6H7N+
98.9996	21	C5H4Cl+
100.1121	22	C6H14N+
102.0102	6	C7H2O+
105.0446	8	C6H5N2+
108.0444	21	C6H6NO+
113.0025	38	C5H4ClN+
115.9897	5	C4H3ClNO+
120.0444	24	C7H6NO+
126.0105	109	C9H2O+
128.0261	61	C6H7ClN+
129.01	31	C6H6ClO+
140.9976	505	C6H4ClNO+
144.021	36	C6H7ClNO+
147.055	11	C8H7N2O+
148.0631	62	C8H8N2O+
154.0054	73	C10H2O2+
156.0211	124	C7H7ClNO+
168.0085	423	C7H5ClN2O+
168.9925	184	C7H4ClNO2+
170.0003	56	C7H5ClNO2+
181.0163	9	C8H6ClN2O+
182.024	33	C8H7ClN2O+
183.032	142	C8H8ClN2O+
184.016	999	C8H7ClNO2+
187.0032	50	C7H6ClNO3+
211.0268	24	C9H8ClN2O2+
212.0346	215	C9H9ClN2O2+
227.0588	42	C10H12ClN2O2+
300.1467	6	C14H23ClN3O2+
