Mass spectrum: Iobitridol; LC-ESI-ITFT; MS2; CE: 75%; R=15000; [M+H]+
Name: Iobitridol
Name: 1,3-Benzenedicarboxamide, N,N'-bis(2,3-dihydroxypropyl)-5-((5-hydroxy-2-(hydroxymethyl)-1-oxopropyl)amino)-2,4,6-triiodo-N,N'-dimethyl-
Name: 1-N,3-N-bis(2,3-dihydroxypropyl)-5-[[3-hydroxy-2-(hydroxymethyl)propanoyl]amino]-2,4,6-triiodo-1-N,3-N-dimethylbenzene-1,3-dicarboxamide
Formula: C20H28I3N3O9
Exact mass: 834.8960
SMILES: Ic1c(c(I)c(c(I)c1NC(=O)C(CO)CO)C(=O)N(CC(O)CO)C)C(=O)N(CC(O)CO)C
InChI: InChI=1S/C20H28I3N3O9/c1-25(3-10(31)7-29)19(34)12-14(21)13(20(35)26(2)4-11(32)8-30)16(23)17(15(12)22)24-18(33)9(5-27)6-28/h9-11,27-32H,3-8H2,1-2H3,(H,24,33)
Instrument: LTQ Orbitrap XL Thermo Scientific
Instrument type: LC-ESI-ITFT
Ms type: MS2
Ion mode: POSITIVE
Ionization: ESI
Fragmentation mode: HCD
Collision energy: 75 % (nominal)
Resolution: 15000
Column name: XBridge C18 3.5um, 2.1x50mm, Waters
Retention time: 1.6 min
Base peak: 149.0023
Precursor m/z: 835.9032
Precursor type: [M+H]+
m/z	relative intensity	assigned
70.0649	82	C4H8N+
101.9974	603	C6NO+
103.0416	76	C7H5N+
104.0127	80	C6H2NO+
114.0337	320	C8H4N+
142.0288	153	C9H4NO+
144.0444	154	C9H6NO+
159.0308	93	C9H5NO2+
160.0026	98	C8H2NO3+
160.0391	369	C9H6NO2+
161.0471	116	C9H7NO2+
170.0235	999	C10H4NO2+
171.0554	188	C10H7N2O+
172.0391	232	C10H6NO2+
185.0709	176	C11H9N2O+
188.0344	282	C10H6NO3+
196.1699	100	C12H22NO+
200.0347	104	C11H6NO3+
201.0422	192	C11H7NO3+
202.0497	153	C11H8NO3+
204.9147	111	C5H2IO+
243.9249	85	C7H3INO+
256.8969	266	C7INO2+
257.9411	203	C8H5INO+
269.9407	300	C9H5INO+
285.9363	411	C9H5INO2+
295.92	260	C10H3INO2+
313.9307	191	C10H5INO3+
325.9326	126	C14H3IN2+
383.8026	111	C7I2NO2+
