Mass spectrum: Coumoxystrobin; LC-ESI-QFT; MS2; CE: 150%; R=17500; [M+H]+
Name: Coumoxystrobin
Name: methyl 2-[2-[(3-butyl-4-methyl-2-oxochromen-7-yl)oxymethyl]phenyl]-3-methoxyprop-2-enoate
Formula: C26H28O6
Exact mass: 436.1886
SMILES: CCCCC1=C(C2=C(C=C(C=C2)OCC3=CC=CC=C3C(=COC)C(=O)OC)OC1=O)C
InChI: InChI=1S/C26H28O6/c1-5-6-10-21-17(2)20-13-12-19(14-24(20)32-26(21)28)31-15-18-9-7-8-11-22(18)23(16-29-3)25(27)30-4/h7-9,11-14,16H,5-6,10,15H2,1-4H3
Instrument: Exploris 240 Orbitrap Thermo Scientific
Instrument type: LC-ESI-QFT
Ms type: MS2
Ion mode: POSITIVE
Ionization: ESI
Fragmentation mode: HCD
Collision energy: 150 % (nominal)
Resolution: 17500
Column name: XBridge C18 3.5um, 2.1x50mm, Waters
Retention time: 13.421 min
Base peak: 332.3312
Precursor m/z: 437.1959
Precursor type: [M+H]+
m/z	relative intensity	assigned
50.0152	26	C4H2+
51.0228	31	C4H3+
52.0308	10	C4H4+
53.0386	26	C4H5+
63.023	38	C5H3+
65.0386	67	C5H5+
74.0151	23	C6H2+
76.0307	138	C6H4+
77.0386	114	C6H5+
78.0462	13	C6H6+
89.0385	64	C7H5+
91.0543	168	C7H7+
95.0492	33	C6H7O+
102.0464	999	C8H6+
103.0543	210	C8H7+
115.0542	256	C9H7+
116.0625	5	C9H8+
131.0488	12	C9H7O+
178.0775	11	C14H10+
189.0699	16	C15H9+
203.0849	10	C16H11+
215.0856	20	C17H11+
