Mass spectrum: Thiamphenicol; LC-ESI-QFT; MS2; CE: 60; R=35000; [M+H]+
Name: Thiamphenicol
Name: 2,2-dichloro-N-[1,3-dihydroxy-1-(4-methylsulfonylphenyl)propan-2-yl]acetamide
Formula: C12H15Cl2NO5S
Exact mass: 355.00480
SMILES: CS(=O)(=O)C1=CC=C(C=C1)C(C(CO)NC(=O)C(Cl)Cl)O
InChI: InChI=1S/C12H15Cl2NO5S/c1-21(19,20)8-4-2-7(3-5-8)10(17)9(6-16)15-12(18)11(13)14/h2-5,9-11,16-17H,6H2,1H3,(H,15,18)
Instrument: Q Exactive Plus Orbitrap Thermo Scientific
Instrument type: LC-ESI-QFT
Ms type: MS2
Ion mode: POSITIVE
Ionization: ESI
Fragmentation mode: HCD
Collision energy: 60 (nominal)
Resolution: 35000
Column name: XBridge C18 3.5um, 2.1x50mm, Waters
Retention time: 3.7 min
Base peak: 373.0381
Precursor m/z: 356.0121
Precursor type: [M+H]+
m/z	relative intensity	assigned
51.0228	2	C4H3+
63.0227	1	C5H3+
63.9949	13	CH3ClN+
65.0385	1	C5H5+
77.0385	3	C6H5+
78.0464	1	C6H6+
78.9848	46	CH3O2S+
79.0542	3	C6H7+
82.945	591	CHCl2+
90.0465	1	C7H6+
91.0543	174	C7H7+
92.062	20	C7H8+
93.0699	3	C7H9+
95.0492	3	C6H7O+
102.0464	52	C8H6+
103.0543	98	C8H7+
104.0494	1	C7H6N+
104.0621	13	C8H8+
105.0335	4	C7H5O+
105.07	26	C8H9+
107.0492	49	C7H7O+
109.0107	2	C6H5S+
109.956	15	C2H2Cl2N+
115.0543	99	C9H7+
116.0495	1	C8H6N+
116.0622	2	C9H8+
117.0573	18	C8H7N+
117.07	9	C9H9+
118.0652	622	C8H8N+
119.0493	72	C8H7O+
119.073	910	C8H9N+
120.057	533	C8H8O+
120.0808	145	C8H10N+
121.0649	3	C8H9O+
123.0263	1	C7H7S+
127.9665	12	C2H4Cl2NO+
128.0495	27	C9H6N+
128.0621	45	C10H8+
129.0573	16	C9H7N+
130.0652	137	C9H8N+
131.0492	49	C9H7O+
131.073	66	C9H9N+
132.057	174	C9H8O+
133.0649	5	C9H9O+
134.0601	25	C8H8NO+
134.0963	8	C9H12N+
135.0263	1	C8H7S+
135.0442	1	C8H7O2+
137.0153	2	C8H6Cl+
138.0231	36	C8H7Cl+
139.9666	1	C3H4Cl2NO+
141.0572	1	C10H7N+
142.0653	25	C10H8N+
145.0524	2	C9H7NO+
145.0649	8	C10H9O+
146.0601	305	C9H8NO+
149.0153	1	C9H6Cl+
150.0231	62	C9H7Cl+
151.0213	2	C8H7OS+
151.031	21	C9H8Cl+
151.0628	8	C8H9NO2+
155.0258	27	C8H8ClO+
155.0604	25	C4H13NO3S+
157.0522	1	C10H7NO+
158.0601	48	C10H8NO+
159.0677	1	C10H9NO+
160.0756	1	C10H10NO+
161.0473	4	C9H7NO2+
162.0232	3	C10H7Cl+
163.031	41	C10H8Cl+
164.0263	4	C9H7ClN+
165.0102	7	C9H6ClO+
165.0343	4	C9H8ClN+
166.0419	5	C9H9ClN+
167.0261	3	C6H11Cl2N+
170.0601	116	C11H8NO+
171.0681	4	C11H9NO+
176.0262	12	C10H7ClN+
177.0342	8	C10H8ClN+
178.0419	1	C10H9ClN+
182.027	8	C8H8NO2S+
184.0429	1	C8H10NO2S+
188.0262	1	C11H7ClN+
192.0211	2	C10H7ClNO+
194.0369	26	C10H9ClNO+
197.0507	55	C9H11NO2S+
198.0584	999	C9H12NO2S+
206.0369	80	C11H9ClNO+
208.0432	11	C10H10NO2S+
210.0583	8	C10H12NO2S+
217.0085	1	C9H10ClO2S+
227.9979	3	C10H8Cl2NO+
229.0058	374	C10H9Cl2NO+
238.0532	2	C11H12NO3S+
241.0056	12	C11H9Cl2NO+
244.0194	2	C10H11ClNO2S+
254.004	5	C11H9ClNO2S+
307.9909	2	C11H12Cl2NO3S+
