Mass spectrum: Amidithion; LC-ESI-QFT; MS2; CE: 120%; R=17500; [M+H]+
Name: Amidithion
Name: 2-dimethoxyphosphinothioylsulfanyl-N-(2-methoxyethyl)acetamide
Formula: C7H16NO4PS2
Exact mass: 273.0258
SMILES: COCCNC(=O)CSP(=S)(OC)OC
InChI: InChI=1S/C7H16NO4PS2/c1-10-5-4-8-7(9)6-15-13(14,11-2)12-3/h4-6H2,1-3H3,(H,8,9)
Instrument: Exploris 240 Orbitrap Thermo Scientific
Instrument type: LC-ESI-QFT
Ms type: MS2
Ion mode: POSITIVE
Ionization: ESI
Fragmentation mode: HCD
Collision energy: 120 % (nominal)
Resolution: 17500
Column name: XBridge C18 3.5um, 2.1x50mm, Waters
Retention time: 4.721 min
Base peak: 274.0331
Precursor m/z: 274.0331
Precursor type: [M+H]+
m/z	relative intensity	assigned
59.0491	101	C3H7O+
62.0185	136	C2H6S+
62.9994	198	CH4OP+
72.0445	44	C3H6NO+
78.9943	999	CH4O2P+
93.01	306	C2H6O2P+
116.0166	75	C4H6NOS+
124.9821	439	C2H6O2PS+
142.9926	89	C2H8O3PS+
