Mass spectrum: Diroximel Fumarate; LC-ESI-QFT; MS2; CE: 90%; R=17500; [M+H]+
Name: Diroximel Fumarate
Name: 4-O-[2-(2,5-dioxopyrrolidin-1-yl)ethyl] 1-O-methyl but-2-enedioate
Formula: C11H13NO6
Exact mass: 255.0743
SMILES: COC(=O)C=CC(=O)OCCN1C(=O)CCC1=O
InChI: InChI=1S/C11H13NO6/c1-17-10(15)4-5-11(16)18-7-6-12-8(13)2-3-9(12)14/h4-5H,2-3,6-7H2,1H3
Instrument: Exploris 240 Orbitrap Thermo Scientific
Instrument type: LC-ESI-QFT
Ms type: MS2
Ion mode: POSITIVE
Ionization: ESI
Fragmentation mode: HCD
Collision energy: 90 % (nominal)
Resolution: 17500
Column name: XBridge C18 3.5um, 2.1x50mm, Waters
Retention time: 4.112 min
Base peak: 126.0548
Precursor m/z: 256.0816
Precursor type: [M+H]+
m/z	relative intensity	assigned
53.0022	352	C3HO+
55.0178	999	C3H3O+
55.0542	158	C4H7+
56.0495	334	C3H6N+
59.0127	33	C2H3O2+
70.0288	37	C3H4NO+
70.0651	92	C4H8N+
72.0443	48	C3H6NO+
85.0284	414	C4H5O2+
98.06	302	C5H8NO+
113.0232	63	C5H5O3+
126.0549	338	C6H8NO2+
