Mass spectrum: Bifenazate-Diazene; LC-ESI-QFT; MS2; CE: 60%; R=17500; [M+H]+
Name: Bifenazate-Diazene
Name: propan-2-yl N-(2-methoxy-5-phenylphenyl)iminocarbamate
Formula: C17H18N2O3
Exact mass: 298.1317
SMILES: CC(C)OC(=O)N=NC1=C(C=CC(=C1)C2=CC=CC=C2)OC
InChI: InChI=1S/C17H18N2O3/c1-12(2)22-17(20)19-18-15-11-14(9-10-16(15)21-3)13-7-5-4-6-8-13/h4-12H,1-3H3
Instrument: Exploris 240 Orbitrap Thermo Scientific
Instrument type: LC-ESI-QFT
Ms type: MS2
Ion mode: POSITIVE
Ionization: ESI
Fragmentation mode: HCD
Collision energy: 60 % (nominal)
Resolution: 17500
Column name: XBridge C18 3.5um, 2.1x50mm, Waters
Retention time: 12.068 min
Base peak: 299.1387
Precursor m/z: 299.139
Precursor type: [M+H]+
m/z	relative intensity	assigned
115.0545	10	C9H7+
129.0703	15	C10H9+
141.0703	38	C11H9+
152.062	206	C12H8+
153.0698	264	C12H9+
154.0778	11	C12H10+
155.0856	58	C12H11+
156.0807	588	C11H10N+
169.0647	192	C12H9O+
170.0726	78	C12H10O+
170.0957	11	C12H12N+
181.0763	16	C12H9N2+
196.0755	999	C13H10NO+
197.0835	472	C13H11NO+
213.1026	29	C13H13N2O+
