Mass spectrum: Topiramate; LC-ESI-QFT; MS2; CE: 45; R=35000; [M+H]+
Name: Topiramate
Name: Topamax
Name: (2,2,7,7-tetramethyl-5,5a,8a,8b-tetrahydrodi[1,3]dioxolo[4,5-a:5`,3`-d]pyran-3a-yl)methyl sulfamate
Formula: C12H21NO8S
Exact mass: 339.09879
SMILES: CC1(OC2COC3(C(C2O1)OC(O3)(C)C)COS(=O)(=O)N)C
InChI: InChI=1S/C12H21NO8S/c1-10(2)18-7-5-16-12(6-17-22(13,14)15)9(8(7)19-10)20-11(3,4)21-12/h7-9H,5-6H2,1-4H3,(H2,13,14,15)
Instrument: Q Exactive Plus Orbitrap Thermo Scientific
Instrument type: LC-ESI-QFT
Ms type: MS2
Ion mode: POSITIVE
Ionization: ESI
Fragmentation mode: HCD
Collision energy: 45 (nominal)
Resolution: 35000
Column name: XBridge C18 3.5um, 2.1x50mm, Waters
Retention time: 6.1 min
Base peak: 357.132
Precursor m/z: 340.1061
Precursor type: [M+H]+
m/z	relative intensity	assigned
53.0022	1	C3HO+
53.0386	23	C4H5+
54.0338	3	C3H4N+
55.0179	160	C3H3O+
55.0543	16	C4H7+
56.0495	26	C3H6N+
57.0335	184	C3H5O+
57.0699	19	C4H9+
58.0651	6	C3H8N+
59.0492	999	C3H7O+
60.0444	20	C2H6NO+
61.0284	54	C2H5O2+
65.0386	2	C5H5+
67.0542	8	C5H7+
68.0495	16	C4H6N+
69.0335	157	C4H5O+
70.0287	11	C3H4NO+
70.0652	20	C4H8N+
71.0128	75	C3H3O2+
71.0491	44	C4H7O+
72.0444	24	C3H6NO+
73.0284	65	C3H5O2+
74.0601	2	C3H8NO+
75.0441	2	C3H7O2+
79.0542	84	C6H7+
79.9801	25	H2NO2S+
80.0495	34	C5H6N+
81.0335	277	C5H5O+
82.0287	10	C4H4NO+
82.0651	23	C5H8N+
83.0128	15	C4H3O2+
83.0492	45	C5H7O+
84.0444	99	C4H6NO+
85.0284	165	C4H5O2+
86.06	23	C4H8NO+
87.0076	14	C3H3O3+
87.0441	12	C4H7O2+
91.0544	2	C7H7+
93.07	13	C7H9+
94.0652	21	C6H8N+
95.0492	168	C6H7O+
96.0444	53	C5H6NO+
96.0808	22	C6H10N+
97.0285	205	C5H5O2+
97.0649	45	C6H9O+
97.9907	19	H4NO3S+
98.0237	39	C4H4NO2+
98.0601	59	C5H8NO+
99.0077	213	C4H3O3+
99.0441	212	C5H7O2+
100.0392	3	C4H6NO2+
101.0234	60	C4H5O3+
101.0598	26	C5H9O2+
102.055	3	C4H8NO2+
103.0389	18	C4H7O3+
105.0448	2	C6H5N2+
106.0651	3	C7H8N+
107.0492	43	C7H7O+
108.0444	24	C6H6NO+
109.0285	161	C6H5O2+
109.0649	17	C7H9O+
110.0601	9	C6H8NO+
111.0441	7	C6H7O2+
111.0679	3	C6H9NO+
111.0804	5	C7H11O+
112.0393	36	C5H6NO2+
112.0757	67	C6H10NO+
113.0597	65	C6H9O2+
114.055	50	C5H8NO2+
115.039	5	C5H7O3+
116.0707	2	C5H10NO2+
120.0808	2	C8H10N+
121.0649	40	C8H9O+
121.9907	13	C2H4NO3S+
123.0441	35	C7H7O2+
124.0758	96	C7H10NO+
125.0598	56	C7H9O2+
126.055	170	C6H8NO2+
127.039	449	C6H7O3+
129.0181	2	C5H5O4+
130.05	8	C5H8NO3+
130.9799	2	C4H3O3S+
136.0759	8	C8H10NO+
137.0598	22	C8H9O2+
138.022	2	C3H8NO3S+
138.0915	9	C8H12NO+
139.0755	9	C8H11O2+
140.0013	34	C2H6NO4S+
141.0548	3	C7H9O3+
142.0864	1	C7H12NO2+
143.0704	11	C7H11O3+
144.0656	22	C6H10NO3+
145.0497	3	C6H9O4+
148.0064	1	C4H6NO3S+
148.9904	43	C4H5O4S+
149.0598	45	C9H9O2+
149.9854	2	C3H4NO4S+
161.9856	7	C4H4NO4S+
164.0013	29	C4H6NO4S+
164.9853	29	C4H5O5S+
166.0865	11	C9H12NO2+
167.0704	126	C9H11O3+
176.0012	33	C5H6NO4S+
177.9806	7	C4H4NO5S+
178.017	2	C5H8NO4S+
179.9963	16	C4H6NO5S+
184.097	168	C9H14NO3+
185.081	63	C9H13O4+
188.0013	15	C6H6NO4S+
188.9853	127	C6H5O5S+
204.0327	18	C7H10NO4S+
206.0121	27	C6H8NO5S+
206.9958	8	C6H7O6S+
224.0227	13	C6H10NO6S+
246.0437	1	C9H12NO5S+
