Mass spectrum: Metribuzin-desamino; LC-ESI-QFT; MS2; CE: 150; R=35000; [M+H]+
Name: Metribuzin-desamino
Name: Deaminometribuzin
Name: 6-tert-butyl-3-(methylthio)-2H-1,2,4-triazin-5-one
Formula: C8H13N3OS
Exact mass: 199.27332
SMILES: CC(C)(C)C1=NNC(=NC1=O)SC
InChI: InChI=1S/C8H13N3OS/c1-8(2,3)5-6(12)9-7(13-4)11-10-5/h1-4H3,(H,9,11,12)
Instrument: Q Exactive Plus Orbitrap Thermo Scientific
Instrument type: LC-ESI-QFT
Ms type: MS2
Ion mode: POSITIVE
Ionization: ESI
Fragmentation mode: HCD
Collision energy: 150 (nominal)
Resolution: 35000
Column name: XBridge C18 3.5um, 2.1x50mm, Waters
Retention time: 7.3 min
Base peak: 200.085
Precursor m/z: 200.0852
Precursor type: [M+H]+
m/z	relative intensity	assigned
52.0182	5	C3H2N+
53.0022	135	C3HO+
53.0386	48	C4H5+
53.9975	39	C2NO+
54.0338	169	C3H4N+
55.029	17	C2H3N2+
55.0542	25	C4H7+
56.0495	69	C3H6N+
57.0699	419	C4H9+
58.065	5	C3H8N+
58.9824	77	CHNS+
58.9949	6	C2H3S+
59.9664	40	COS+
59.9902	149	CH2NS+
61.0107	26	C2H5S+
62.0059	466	CH4NS+
65.0386	5	C5H5+
66.0338	19	C4H4N+
67.0291	7	C3H3N2+
67.0417	124	C4H5N+
67.9892	43	C3O2+
68.0243	91	C2H2N3+
68.0495	553	C4H6N+
69.0083	80	C2HN2O+
69.0447	87	C3H5N2+
69.0573	25	C4H7N+
70.04	48	C2H4N3+
70.065	6	C4H8N+
71.9902	25	C2H2NS+
72.998	4	C2H3NS+
73.9933	430	CH2N2S+
74.0059	960	C2H4NS+
75.0011	28	CH3N2S+
78.0086	5	C3N3+
80.0494	10	C5H6N+
81.0447	20	C4H5N2+
82.0525	35	C4H6N2+
82.065	7	C5H8N+
83.0603	391	C4H7N2+
84.0682	121	C4H8N2+
84.9855	25	C2HN2S+
85.9695	23	C2NOS+
89.0168	460	C2H5N2S+
94.04	5	C4H4N3+
98.0056	10	C4H4NS+
100.0216	7	C4H6NS+
101.0042	999	C2H3N3S+
108.0555	43	C5H6N3+
110.0713	23	C5H8N3+
112.0216	40	C5H6NS+
114.0121	21	C3H4N3S+
115.0199	19	C3H5N3S+
116.0277	36	C3H6N3S+
126.0124	14	C4H4N3S+
127.0199	163	C4H5N3S+
132.0226	7	C3H6N3OS+
140.0276	61	C5H6N3S+
141.0355	316	C5H7N3S+
142.0434	290	C5H8N3S+
146.0385	9	C4H8N3OS+
156.059	247	C6H10N3S+
