Mass spectrum: Imibenconazole; LC-ESI-QFT; MS2; CE: 120%; R=17500; [M-H]-
Name: Imibenconazole
Name: (4-chlorophenyl)methyl N-(2,4-dichlorophenyl)-2-(1,2,4-triazol-1-yl)ethanimidothioate
Formula: C17H13Cl3N4S
Exact mass: 409.9927
SMILES: C1=CC(=CC=C1CSC(=NC2=C(C=C(C=C2)Cl)Cl)CN3C=NC=N3)Cl
InChI: InChI=1S/C17H13Cl3N4S/c18-13-3-1-12(2-4-13)9-25-17(8-24-11-21-10-22-24)23-16-6-5-14(19)7-15(16)20/h1-7,10-11H,8-9H2
Instrument: Exploris 240 Orbitrap Thermo Scientific
Instrument type: LC-ESI-QFT
Ms type: MS2
Ion mode: NEGATIVE
Ionization: ESI
Fragmentation mode: HCD
Collision energy: 120 % (nominal)
Resolution: 17500
Column name: XBridge C18 3.5um, 2.1x50mm, Waters
Retention time: 13.621 min
Base peak: 408.9851
Precursor m/z: 408.9854
Precursor type: [M-H]-
m/z	relative intensity	assigned
50.0036	98	C3N-
64.0067	132	C3N2-
65.0145	66	C3HN2-
68.0254	248	C2H2N3-
79.0176	999	C3HN3-
111.0011	125	C6H4Cl-
121.0118	80	C7H5S-
