Mass spectrum: Propaquizafop; LC-ESI-ITFT; MS2; CE: 90%; R=30000; [M+H]+
Name: Propaquizafop
Name: 2-(propan-2-ylideneamino)oxyethyl 2-[4-(6-chloranylquinoxalin-2-yl)oxyphenoxy]propanoate
Formula: C22H22ClN3O5
Exact mass: 443.1242
SMILES: CC(C(=O)OCCON=C(C)C)OC1=CC=C(C=C1)OC2=CN=C3C=C(C=CC3=N2)Cl
InChI: InChI=1S/C22H22ClN3O5/c1-14(2)26-29-11-10-28-22(27)15(3)30-17-5-7-18(8-6-17)31-21-13-24-20-12-16(23)4-9-19(20)25-21/h4-9,12-13,15H,10-11H2,1-3H3
Instrument: LTQ Orbitrap XL Thermo Scientific
Instrument type: LC-ESI-ITFT
Ms type: MS2
Ion mode: POSITIVE
Ionization: ESI
Fragmentation mode: HCD
Collision energy: 90 % (nominal)
Resolution: 30000
Column name: XBridge C18 3.5um, 2.1x50mm, Waters
Retention time: 15.0 min
Base peak: 466.114
Precursor m/z: 444.1321
Precursor type: [M+H]+
m/z	relative intensity	assigned
56.0494	636	C3H6N+
65.0385	99	C5H5+
70.0651	999	C4H8N+
77.0386	41	C6H5+
91.0542	388	C7H7+
99.044	317	C5H7O2+
100.0182	41	C7H2N+
100.0518	171	C5H8O2+
100.0757	113	C5H10NO+
119.0491	21	C8H7O+
120.0568	24	C8H8O+
123.9946	26	C6H3ClN+
126.0104	31	C6H5ClN+
163.0057	880	C8H4ClN2+
164.0009	443	C7H3ClN3+
164.0132	35	C11H2NO+
164.0495	87	C12H6N+
165.0212	37	C8H6ClN2+
165.0572	189	C12H7N+
179.0003	23	C8H4ClN2O+
179.0601	52	C12H7N2+
180.068	51	C12H8N2+
181.0162	136	C8H6ClN2O+
189.0211	21	C13H3NO+
191.0602	80	C13H7N2+
192.0681	824	C13H8N2+
193.0759	65	C13H9N2+
194.0838	37	C13H10N2+
200.0261	45	C15H4O+
202.0288	24	C14H4NO+
207.0915	112	C14H11N2+
208.0632	34	C13H8N2O+
215.0367	58	C15H5NO+
226.0289	86	C13H7ClN2+
227.0367	95	C16H5NO+
228.0447	53	C13H9ClN2+
229.0522	52	C16H7NO+
243.0678	20	C17H9NO+
255.0317	162	C17H5NO2+
257.0473	124	C17H7NO2+
