Mass spectrum: Trifluoroacetic acid; LC-ESI-QFT; MS2; CE: 180%; R=15000; [M-H]-
Name: Trifluoroacetic acid
Name: 2,2,2-trifluoroacetic acid
Formula: C2HF3O2
Exact mass: 113.9929
SMILES: C(=O)(C(F)(F)F)O
InChI: InChI=1S/C2HF3O2/c3-2(4,5)1(6)7/h(H,6,7)
Instrument: Orbitrap Exploris 240 Thermo Scientific
Instrument type: LC-ESI-QFT
Ms type: MS2
Ion mode: NEGATIVE
Ionization: ESI
Fragmentation mode: HCD
Collision energy: 180 % (nominal)
Resolution: 15000
Column name: Atlantis C18 3um, 3.0x150mm, Waters
Retention time: 5.553 min
Base peak: 112.9857
Precursor m/z: 112.9856
Precursor type: [M-H]-
Precursor intensity: 19422478
m/z	relative intensity	assigned
68.9957	999	CF3-
