Mass spectrum: Oxazepam; LC-ESI-ITFT; MS2; CE: 60%; R=7500; [M+H]+
Name: Oxazepam
Name: 7-chloranyl-3-oxidanyl-5-phenyl-1,3-dihydro-1,4-benzodiazepin-2-one
Formula: C15H11ClN2O2
Exact mass: 286.0509
SMILES: C1=CC=C(C=C1)C2=NC(C(=O)NC3=C2C=C(C=C3)Cl)O
InChI: InChI=1S/C15H11ClN2O2/c16-10-6-7-12-11(8-10)13(9-4-2-1-3-5-9)18-15(20)14(19)17-12/h1-8,15,20H,(H,17,19)
Instrument: LTQ Orbitrap XL Thermo Scientific
Instrument type: LC-ESI-ITFT
Ms type: MS2
Ion mode: POSITIVE
Ionization: ESI
Fragmentation mode: HCD
Collision energy: 60 % (nominal)
Resolution: 7500
Column name: XBridge C18 3.5um, 2.1x50mm, Waters
Retention time: 9.0 min
Base peak: 287.059
Precursor m/z: 287.0582
Precursor type: [M+H]+
m/z	relative intensity	assigned
93.0573	36	C6H7N+
104.0496	338	C7H6N+
118.0525	5	C7H6N2+
128.0263	136	C6H7ClN+
138.0105	13	C7H5ClN+
153.0215	116	C7H6ClN2+
156.0212	7	C7H7ClNO+
163.0059	77	C8H4ClN2+
166.0055	33	C8H5ClNO+
181.0167	4	C8H6ClN2O+
195.0917	16	C13H11N2+
207.0678	14	C14H9NO+
214.0423	12	C13H9ClN+
216.0568	4	C13H11ClN+
229.0527	14	C13H10ClN2+
231.0685	244	C13H12ClN2+
241.053	999	C14H10ClN2+
242.0359	7	C14H9ClNO+
257.0478	24	C14H10ClN2O+
269.0478	58	C15H10ClN2O+
