Mass spectrum: Tributylamine; LC-ESI-QFT; MS2; CE: 60; R=35000; [M+H]+
Name: Tributylamine
Name: 1-Butanamine, N,N-dibutyl-
Name: N,N-dibutyl-1-butanamine
Formula: C12H27N
Exact mass: 185.21435
SMILES: N(CCCC)(CCCC)CCCC
InChI: InChI=1S/C12H27N/c1-4-7-10-13(11-8-5-2)12-9-6-3/h4-12H2,1-3H3
Instrument: Q Exactive Orbitrap Thermo Scientific
Instrument type: LC-ESI-QFT
Ms type: MS2
Ion mode: POSITIVE
Ionization: ESI
Fragmentation mode: HCD
Collision energy: 60 (nominal)
Resolution: 35000
Column name: XBridge C18 3.5um, 2.1x50mm, Waters
Retention time: 5.4 min
Base peak: 186.2215
Precursor m/z: 186.2216
Precursor type: [M+H]+
m/z	relative intensity	assigned
53.0023	1	C3HO+
57.0699	123	C4H9+
72.0807	14	C4H10N+
74.0964	212	C4H12N+
86.0963	18	C5H12N+
128.1433	48	C8H18N+
130.159	675	C8H20N+
186.2216	999	C12H28N+
