Mass spectrum: Sulfadimethoxine; LC-ESI-ITFT; MS2; CE: 90%; R=7500; [M-H]-
Name: Sulfadimethoxine
Name: 4-amino-N-(2,6-dimethoxy-4-pyrimidinyl)benzenesulfonamide
Formula: C12H14N4O4S
Exact mass: 310.0736
SMILES: c1(NS(c2ccc(N)cc2)(=O)=O)cc(nc(n1)OC)OC
InChI: InChI=1S/C12H14N4O4S/c1-19-11-7-10(14-12(15-11)20-2)16-21(17,18)9-5-3-8(13)4-6-9/h3-7H,13H2,1-2H3,(H,14,15,16)
Instrument: LTQ Orbitrap XL Thermo Scientific
Instrument type: LC-ESI-ITFT
Ms type: MS2
Ion mode: NEGATIVE
Ionization: ESI
Fragmentation mode: HCD
Collision energy: 90 % (nominal)
Resolution: 7500
Column name: XBridge C18 3.5um, 2.1x50mm, Waters
Retention time: 5.7 min
Base peak: 309.0653
Precursor m/z: 309.0663
Precursor type: [M-H]-
m/z	relative intensity	assigned
65.0144	317	C3HN2-
65.9985	411	C3NO-
66.0099	999	C2N3-
92.0255	244	C4H2N3-
122.0359	645	C5H4N3O-
131.0616	125	C8H7N2-
139.0386	477	C5H5N3O2-
171.0236	86	C6H7N2O2S-
