Mass spectrum: 10,11-trans-Dihydroxy-10,11-dihydrocarbamazepine; LC-ESI-ITFT; MS2; CE: 15%; R=15000; [M+H]+
Name: 10,11-trans-Dihydroxy-10,11-dihydrocarbamazepine
Name: (5S,6S)-5,6-bis(oxidanyl)-5,6-dihydrobenzo[b][1]benzazepine-11-carboxamide
Formula: C15H14N2O3
Exact mass: 270.1004
SMILES: c12[C@@H]([C@@H](O)c3c(N(C(N)=O)c2cccc1)cccc3)O
InChI: InChI=1S/C15H14N2O3/c16-15(20)17-11-7-3-1-5-9(11)13(18)14(19)10-6-2-4-8-12(10)17/h1-8,13-14,18-19H,(H2,16,20)/t13-,14-/m0/s1
Instrument: LTQ Orbitrap XL Thermo Scientific
Instrument type: LC-ESI-ITFT
Ms type: MS2
Ion mode: POSITIVE
Ionization: ESI
Fragmentation mode: HCD
Collision energy: 15 % (nominal)
Resolution: 15000
Column name: XBridge C18 3.5um, 2.1x50mm, Waters
Retention time: 6.1 min
Base peak: 271.1079
Precursor m/z: 271.1077
Precursor type: [M+H]+
m/z	relative intensity	assigned
180.0806	41	C13H10N+
182.0966	4	C13H12N+
208.0757	10	C14H10NO+
210.0913	183	C14H12NO+
236.0706	298	C15H10NO2+
253.0971	999	C15H13N2O2+
254.0811	101	C15H12NO3+
271.1077	39	C15H15N2O3+
