Mass spectrum: Norsertraline; LC-ESI-QFT; MS2; CE: 180; R=35000; [M+H]+
Name: Norsertraline
Name: 1-Naphthalenamine, 4-(3,4-dichlorophenyl)-1,2,3,4-tetrahydro-
Name: 4-(3,4-dichlorophenyl)-1,2,3,4-tetrahydronaphthalen-1-amine
Formula: C16H15Cl2N
Exact mass: 291.05815
SMILES: C1CC(C2=CC=CC=C2C1C3=CC(=C(C=C3)Cl)Cl)N
InChI: InChI=1S/C16H15Cl2N/c17-14-7-5-10(9-15(14)18)11-6-8-16(19)13-4-2-1-3-12(11)13/h1-5,7,9,11,16H,6,8,19H2
Instrument: Q Exactive Plus Orbitrap Thermo Scientific
Instrument type: LC-ESI-QFT
Ms type: MS2
Ion mode: POSITIVE
Ionization: ESI
Fragmentation mode: HCD
Collision energy: 180 (nominal)
Resolution: 35000
Column name: XBridge C18 3.5um, 2.1x50mm, Waters
Retention time: 9.6 min
Base peak: 275.0379
Precursor m/z: 292.0654
Precursor type: [M+H]+
m/z	relative intensity	assigned
50.0151	29	C4H2+
51.0229	76	C4H3+
53.0386	18	C4H5+
61.0072	39	C5H+
62.015	248	C5H2+
63.0228	524	C5H3+
65.0385	57	C5H5+
72.9839	822	C3H2Cl+
74.015	23	C6H2+
74.9994	12	C3H4Cl+
75.0228	54	C6H3+
76.0306	25	C6H4+
77.0384	29	C6H5+
78.0463	68	C6H6+
82.9449	89	CHCl2+
86.015	19	C7H2+
87.0228	54	C7H3+
88.0306	88	C7H4+
89.0385	999	C7H5+
91.0541	12	C7H7+
95.049	63	C6H7O+
96.9839	186	C5H2Cl+
98.9995	83	C5H4Cl+
102.0463	113	C8H6+
105.0447	52	C6H5N2+
106.9448	32	C3HCl2+
115.054	34	C9H7+
122.9994	98	C7H4Cl+
124.0073	6	C7H5Cl+
126.0463	56	C10H6+
127.054	46	C10H7+
128.0619	172	C10H8+
129.0445	15	C8H5N2+
132.9604	44	C5H3Cl2+
145.0646	11	C7H12ClN+
152.0617	5	C12H8+
155.0603	44	C10H7N2+
163.054	29	C13H7+
164.0618	4	C13H8+
176.0618	25	C14H8+
188.0616	13	C15H8+
189.0696	38	C15H9+
200.0617	21	C16H8+
201.0696	6	C16H9+
202.0774	51	C16H10+
