Mass spectrum: Fenpropidin; LC-ESI-ITFT; MS2; CE: 90%; R=15000; [M+H]+
Name: Fenpropidin
Name: 1-[3-(4-tert-butylphenyl)-2-methyl-propyl]piperidine
Formula: C19H31N
Exact mass: 273.2457
SMILES: c1cc(ccc1CC(CN2CCCCC2)C)C(C)(C)C
InChI: InChI=1S/C19H31N/c1-16(15-20-12-6-5-7-13-20)14-17-8-10-18(11-9-17)19(2,3)4/h8-11,16H,5-7,12-15H2,1-4H3
Instrument: LTQ Orbitrap XL Thermo Scientific
Instrument type: LC-ESI-ITFT
Ms type: MS2
Ion mode: POSITIVE
Ionization: ESI
Fragmentation mode: HCD
Collision energy: 90 % (nominal)
Resolution: 15000
Column name: XBridge C18 3.5um, 2.1x50mm, Waters
Retention time: 9.5 min
Base peak: 274.253
Precursor m/z: 274.2529
Precursor type: [M+H]+
m/z	relative intensity	assigned
55.0542	3	C4H7+
57.0698	57	C4H9+
67.0539	2	C5H7+
69.0699	21	C5H9+
79.0542	10	C6H7+
84.0807	32	C5H10N+
85.0885	6	C5H11N+
86.0964	376	C5H12N+
91.0542	106	C7H7+
93.0697	13	C7H9+
98.0963	6	C6H12N+
103.0544	3	C8H7+
104.0619	23	C8H8+
105.0698	424	C8H9+
107.0854	65	C8H11+
115.0538	5	C9H7+
116.0618	5	C9H8+
117.0698	417	C9H9+
119.0854	618	C9H11+
131.0854	42	C10H11+
132.0932	999	C10H12+
145.101	32	C11H13+
146.1088	20	C11H14+
147.1166	790	C11H15+
159.1166	15	C12H15+
161.1323	15	C12H17+
