Mass spectrum: Bufexamac; LC-ESI-QFT; MS2; CE: 30; R=35000; [M-H]-
Name: Bufexamac
Name: 2-(4-butoxyphenyl)-N-hydroxyacetamide
Formula: C12H17NO3
Exact mass: 223.12084
SMILES: CCCCOC1=CC=C(C=C1)CC(=O)NO
InChI: InChI=1S/C12H17NO3/c1-2-3-8-16-11-6-4-10(5-7-11)9-12(14)13-15/h4-7,15H,2-3,8-9H2,1H3,(H,13,14)
Instrument: Q Exactive Orbitrap Thermo Scientific
Instrument type: LC-ESI-QFT
Ms type: MS2
Ion mode: NEGATIVE
Ionization: ESI
Fragmentation mode: HCD
Collision energy: 30 (nominal)
Resolution: 35000
Column name: XBridge C18 3.5um, 2.1x50mm, Waters
Retention time: 8.4 min
Base peak: 222.1136
Precursor m/z: 222.1136
Precursor type: [M-H]-
m/z	relative intensity	assigned
57.9934	285	CNO2-
59.0012	11	CHNO2-
59.9852	1	CO3-
71.0502	7	C4H7O-
92.0268	10	C6H4O-
93.0346	259	C6H5O-
95.0138	7	C5H3O2-
102.0349	10	C7H4N-
106.0425	2	C7H6O-
108.0217	11	C6H4O2-
118.03	115	C7H4NO-
119.0377	42	C7H5NO-
120.0455	21	C7H6NO-
121.0294	2	C7H5O2-
123.0452	13	C7H7O2-
130.017	4	C7H2N2O-
134.0246	2	C7H4NO2-
146.0247	57	C8H4NO2-
147.0325	21	C8H5NO2-
148.0403	14	C8H6NO2-
149.0243	26	C8H5O3-
151.0274	1	C7H5NO3-
162.0072	1	C7H2N2O3-
165.0431	11	C8H7NO3-
193.0869	1	C11H13O3-
204.0179	2	C9H4N2O4-
222.1136	999	C12H16NO3-
237.1017	1	C12H15NO4-
