Mass spectrum: Ethoprop; LC-ESI-QFT; MS2; CE: 90; R=35000; [M+H]+
Name: Ethoprop
Name: 1-[ethoxy(propylsulfanyl)phosphoryl]sulfanylpropane
Formula: C8H19O2PS2
Exact mass: 242.05641
SMILES: CCCSP(=O)(OCC)SCCC
InChI: InChI=1S/C8H19O2PS2/c1-4-7-12-11(9,10-6-3)13-8-5-2/h4-8H2,1-3H3
Instrument: Q Exactive Plus Orbitrap Thermo Scientific
Instrument type: LC-ESI-QFT
Ms type: MS2
Ion mode: POSITIVE
Ionization: ESI
Fragmentation mode: HCD
Collision energy: 90 (nominal)
Resolution: 35000
Column name: XBridge C18 3.5um, 2.1x50mm, Waters
Retention time: 11.5 min
Base peak: 243.0634
Precursor m/z: 243.0637
Precursor type: [M+H]+
m/z	relative intensity	assigned
53.0022	12	C3HO+
53.9975	2	C2NO+
63.0263	2	C2H7S+
64.9787	47	H2O2P+
67.9893	3	C3O2+
77.0419	2	C3H9S+
78.9402	25	OPS+
94.9174	32	PS2+
96.9509	400	H2O2PS+
102.9767	2	C3H4PS+
110.9665	10	CH4O2PS+
112.928	60	H2OPS2+
114.9614	999	H4O3PS+
128.977	11	CH6O3PS+
130.9386	97	H4O2PS2+
132.9718	5	C6NOP+
