Mass spectrum: 1H-Benzotriazole-5-carboxylic acid; LC-ESI-QFT; MS2; CE: 60; R=35000; [M+H]+
Name: 1H-Benzotriazole-5-carboxylic acid
Name: 1H-benzotriazole-5-carboxylic acid
Name: 2H-benzotriazole-5-carboxylic acid
Formula: C7H5N3O2
Exact mass: 163.03818
SMILES: c1cc2c(cc1C(=O)O)nn[nH]2
InChI: InChI=1S/C7H5N3O2/c11-7(12)4-1-2-5-6(3-4)9-10-8-5/h1-3H,(H,11,12)(H,8,9,10)
Instrument: Q Exactive Plus Orbitrap Thermo Scientific
Instrument type: LC-ESI-QFT
Ms type: MS2
Ion mode: POSITIVE
Ionization: ESI
Fragmentation mode: HCD
Collision energy: 60 (nominal)
Resolution: 35000
Column name: XBridge C18 3.5um, 2.1x50mm, Waters
Retention time: 3.7 min
Base peak: 164.0453
Precursor m/z: 164.0455
Precursor type: [M+H]+
m/z	relative intensity	assigned
52.0181	1	C3H2N+
53.0386	16	C4H5+
63.0229	10	C5H3+
65.0386	116	C5H5+
66.0338	1	C4H4N+
67.0178	1	C4H3O+
68.0131	8	C3H2NO+
68.0494	2	C4H6N+
78.0337	2	C5H4N+
80.0494	232	C5H6N+
81.0335	15	C5H5O+
90.0338	53	C6H4N+
92.0495	28	C6H6N+
96.0443	2	C5H6NO+
106.0287	21	C6H4NO+
107.0367	2	C6H5NO+
108.0443	237	C6H6NO+
109.0285	1	C6H5O2+
118.0287	21	C7H4NO+
118.0399	34	C6H4N3+
119.0127	1	C7H3O2+
119.0475	1	C6H5N3+
120.0556	15	C6H6N3+
124.0393	15	C6H6NO2+
136.0393	29	C7H6NO2+
146.0349	5	C7H4N3O+
164.0454	999	C7H6N3O2+
