Mass spectrum: Flubendazole; LC-ESI-QFT; MS2; CE: 75; R=35000; [M+H]+
Name: Flubendazole
Name: Methyl N-[6-(4-fluorobenzoyl)-1H-benzimidazol-2-yl]carbamate
Formula: C16H12FN3O3
Exact mass: 313.08627
SMILES: COC(=O)NC1=NC2=C(N1)C=C(C=C2)C(=O)C3=CC=C(C=C3)F
InChI: InChI=1S/C16H12FN3O3/c1-23-16(22)20-15-18-12-7-4-10(8-13(12)19-15)14(21)9-2-5-11(17)6-3-9/h2-8H,1H3,(H2,18,19,20,22)
Instrument: Q Exactive Plus Orbitrap Thermo Scientific
Instrument type: LC-ESI-QFT
Ms type: MS2
Ion mode: POSITIVE
Ionization: ESI
Fragmentation mode: HCD
Collision energy: 75 (nominal)
Resolution: 35000
Column name: XBridge C18 3.5um, 2.1x50mm, Waters
Retention time: 8.1 min
Base peak: 314.093
Precursor m/z: 314.0935
Precursor type: [M+H]+
m/z	relative intensity	assigned
50.0151	6	C4H2+
51.0229	3	C4H3+
53.0022	1	C3HO+
71.0292	20	C4H4F+
73.0084	1	C3H2FO+
74.015	1	C6H2+
75.0229	16	C6H3+
79.0178	6	C5H3O+
93.0335	5	C6H5O+
95.0291	19	C6H4F+
99.0241	5	C5H4FO+
104.0371	1	C6H4N2+
105.0449	1	C6H5N2+
111.0441	1	C6H7O2+
113.0398	101	C6H6FO+
123.0242	999	C7H4FO+
123.0351	347	C6H4FN2+
124.0324	2	C7H5FO+
130.0401	8	C7H4N3+
131.0239	2	C7H3N2O+
131.048	5	C7H5N3+
132.0558	2	C7H6N3+
150.0664	2	C7H8N3O+
158.0349	1	C8H4N3O+
159.0428	29	C8H5N3O+
160.0506	13	C8H6N3O+
166.0654	2	C12H8N+
174.0713	1	C11H9FN+
176.0455	1	C8H6N3O2+
184.0559	19	C12H7FN+
185.0636	2	C12H8FN+
186.03	21	C9H4N3O2+
186.0412	19	C8H4N5O+
191.0326	10	C8H5N3O3+
199.0668	6	C12H8FN2+
206.0715	1	C13H8N3+
209.0512	1	C13H6FN2+
226.0776	18	C13H9FN3+
227.0618	1	C13H8FN2O+
236.0624	1	C14H7FN3+
253.0649	1	C14H8FN3O+
254.0726	5	C14H9FN3O+
264.0569	3	C15H7FN3O+
282.0675	161	C15H9FN3O2+
