Mass spectrum: Malaoxon; LC-ESI-QFT; MS2; CE: 30; R=35000; [M+H]+
Name: Malaoxon
Name: Diethyl 2-dimethoxyphosphorylsulfanylbutanedioate
Formula: C10H19O7PS
Exact mass: 314.05891
SMILES: CCOC(=O)CC(C(=O)OCC)SP(=O)(OC)OC
InChI: InChI=1S/C10H19O7PS/c1-5-16-9(11)7-8(10(12)17-6-2)19-18(13,14-3)15-4/h8H,5-7H2,1-4H3
Instrument: Q Exactive Plus Orbitrap Thermo Scientific
Instrument type: LC-ESI-QFT
Ms type: MS2
Ion mode: POSITIVE
Ionization: ESI
Fragmentation mode: HCD
Collision energy: 30 (nominal)
Resolution: 35000
Column name: XBridge C18 3.5um, 2.1x50mm, Waters
Retention time: 7.1 min
Base peak: 315.0654
Precursor m/z: 315.0662
Precursor type: [M+H]+
m/z	relative intensity	assigned
55.0178	1	C3H3O+
71.0127	3	C3H3O2+
99.0076	999	C4H3O3+
110.9664	1	CH4O2PS+
113.0233	10	C5H5O3+
117.0182	14	C4H5O4+
124.9821	3	C2H6O2PS+
127.0389	733	C6H7O3+
128.9769	3	CH6O3PS+
142.9927	135	C2H8O3PS+
145.0495	26	C6H9O4+
171.0239	12	C4H12O3PS+
173.0809	11	C8H13O4+
194.9875	12	C5H8O4PS+
