Mass spectrum: Doxazosin; LC-ESI-QFT; MS2; CE: 15; R=35000; [M-H]-
Name: Doxazosin
Name: [4-(4-amino-6,7-dimethoxyquinazolin-2-yl)piperazin-1-yl]-(2,3-dihydro-1,4-benzodioxin-3-yl)methanone
Formula: C23H25N5O5
Exact mass: 451.18557
SMILES: COC1=C(C=C2C(=C1)C(=NC(=N2)N3CCN(CC3)C(=O)C4COC5=CC=CC=C5O4)N)OC
InChI: InChI=1S/C23H25N5O5/c1-30-18-11-14-15(12-19(18)31-2)25-23(26-21(14)24)28-9-7-27(8-10-28)22(29)20-13-32-16-5-3-4-6-17(16)33-20/h3-6,11-12,20H,7-10,13H2,1-2H3,(H2,24,25,26)
Instrument: Q Exactive Orbitrap Thermo Scientific
Instrument type: LC-ESI-QFT
Ms type: MS2
Ion mode: NEGATIVE
Ionization: ESI
Fragmentation mode: HCD
Collision energy: 15 (nominal)
Resolution: 35000
Column name: XBridge C18 3.5um, 2.1x50mm, Waters
Retention time: 7.2 min
Base peak: 496.1842
Precursor m/z: 450.1783
Precursor type: [M-H]-
m/z	relative intensity	assigned
108.0455	6	C6H6NO-
109.0295	16	C6H5O2-
118.03	3	C7H4NO-
134.0248	1	C7H4NO2-
134.0611	1	C8H8NO-
135.0452	3	C8H7O2-
148.0403	2	C8H6NO2-
150.056	7	C8H8NO2-
178.0509	58	C9H8NO3-
187.0385	1	C9H5N3O2-
192.0671	1	C10H10NO3-
202.0623	11	C10H8N3O2-
204.0658	1	C9H8N4O2-
219.0888	3	C10H11N4O2-
230.0808	4	C11H10N4O2-
245.1043	7	C12H13N4O2-
247.1086	2	C13H15N2O3-
257.1042	1	C13H13N4O2-
271.1202	2	C14H15N4O2-
272.115	1	C13H14N5O2-
273.1232	3	C13H15N5O2-
288.1466	111	C14H18N5O2-
340.1418	1	C17H18N5O3-
379.1775	5	C21H23N4O3-
380.173	36	C20H22N5O3-
420.1311	1	C21H18N5O5-
422.1831	2	C22H24N5O4-
435.155	17	C22H21N5O5-
450.1785	999	C23H24N5O5-
