Mass spectrum: Propyzamide; LC-ESI-QFT; MS2; CE: 15; R=35000; [M-H]-
Name: Propyzamide
Name: 3,5-bis(chloranyl)-N-(2-methylbut-3-yn-2-yl)benzamide
Name: Promamide
Formula: C12H11Cl2NO
Exact mass: 255.02177
SMILES: Clc1cc(C(=O)NC(C#C)(C)C)cc(Cl)c1
InChI: InChI=1S/C12H11Cl2NO/c1-4-12(2,3)15-11(16)8-5-9(13)7-10(14)6-8/h1,5-7H,2-3H3,(H,15,16)
Instrument: Q Exactive Orbitrap Thermo Scientific
Instrument type: LC-ESI-QFT
Ms type: MS2
Ion mode: NEGATIVE
Ionization: ESI
Fragmentation mode: HCD
Collision energy: 15 (nominal)
Resolution: 35000
Column name: XBridge C18 3.5um, 2.1x50mm, Waters
Retention time: 10.9 min
Base peak: 218.0312
Precursor m/z: 254.0145
Precursor type: [M-H]-
m/z	relative intensity	assigned
144.9616	94	C6H3Cl2-
145.9895	15	CH6Cl2N3O-
146.9858	6	C2H7Cl2NO2-
164	4	CH8Cl2N3O2-
186.9724	16	C8H5Cl2O-
188.9518	3	C7H3Cl2O2-
189.9965	14	C8H8Cl2O-
208.0069	88	C8H10Cl2O2-
212.9753	9	C9H5Cl2NO-
227.9988	999	C10H8Cl2NO-
254.0145	792	C12H10Cl2NO-
