Mass spectrum: Pirimicarb-desamido; LC-ESI-QFT; MS2; CE: 75%; R=17500; [M+H]+
Name: Pirimicarb-desamido
Name: 2-(dimethylamino)-5,6-dimethyl-1H-pyrimidin-4-one
Formula: C8H13N3O
Exact mass: 167.1059
SMILES: CC1=C(N=C(N=C1C)N(C)C)O
InChI: InChI=1S/C8H13N3O/c1-5-6(2)9-8(11(3)4)10-7(5)12/h1-4H3,(H,9,10,12)
Instrument: Q Exactive Plus Orbitrap Thermo Scientific
Instrument type: LC-ESI-QFT
Ms type: MS2
Ion mode: POSITIVE
Ionization: ESI
Fragmentation mode: HCD
Collision energy: 75 % (nominal)
Resolution: 17500
Column name: XBridge C18 3.5um, 2.1x50mm, Waters
Retention time: 1.434 min
Base peak: 168.1132
Precursor m/z: 168.1131
Precursor type: [M+H]+
m/z	relative intensity	assigned
53.0385	7	C4H5+
55.0291	13	C2H3N2+
55.0543	54	C4H7+
56.0369	8	C2H4N2+
68.0494	27	C4H6N+
69.0084	65	C2HN2O+
70.0651	103	C4H8N+
71.0604	999	C3H7N2+
72.0445	6	C3H6NO+
88.0867	2	C3H10N3+
95.0603	4	C5H7N2+
98.06	500	C5H8NO+
109.076	121	C6H9N2+
110.0598	5	C6H8NO+
114.0666	4	C4H8N3O+
123.0552	197	C6H7N2O+
124.0632	16	C6H8N2O+
125.0711	11	C6H9N2O+
150.1026	43	C8H12N3+
153.0896	25	C7H11N3O+
156.0529	7	
166.0976	13	C8H12N3O+
168.1132	350	C8H14N3O+
