Mass spectrum: Sulfallate; LC-ESI-QFT; MS2; CE: 150%; R=17500; [M+H]+
Name: Sulfallate
Name: 2-chloroprop-2-enyl N,N-diethylcarbamodithioate
Formula: C8H14ClNS2
Exact mass: 223.0256
SMILES: CCN(CC)C(=S)SCC(=C)Cl
InChI: InChI=1S/C8H14ClNS2/c1-4-10(5-2)8(11)12-6-7(3)9/h3-6H2,1-2H3
Instrument: Exploris 240 Orbitrap Thermo Scientific
Instrument type: LC-ESI-QFT
Ms type: MS2
Ion mode: POSITIVE
Ionization: ESI
Fragmentation mode: HCD
Collision energy: 150 % (nominal)
Resolution: 17500
Column name: XBridge C18 3.5um, 2.1x50mm, Waters
Retention time: 10.804 min
Base peak: 306.1032
Precursor m/z: 224.0329
Precursor type: [M+H]+
m/z	relative intensity	assigned
58.995	10	C2H3S+
59.9902	999	CH2NS+
74.9996	4	C3H4Cl+
88.0218	17	C3H6NS+
