Mass spectrum: Bromuconazole; LC-ESI-QFT; MS2; CE: 180; R=35000; [M+H]+
Name: Bromuconazole
Name: 1-[[4-bromo-2-(2,4-dichlorophenyl)oxolan-2-yl]methyl]-1,2,4-triazole
Formula: C13H12BrCl2N3O
Exact mass: 374.95408
SMILES: C1C(COC1(CN2C=NC=N2)C3=C(C=C(C=C3)Cl)Cl)Br
InChI: InChI=1S/C13H12BrCl2N3O/c14-9-4-13(20-5-9,6-19-8-17-7-18-19)11-2-1-10(15)3-12(11)16/h1-3,7-9H,4-6H2
Instrument: Q Exactive Plus Orbitrap Thermo Scientific
Instrument type: LC-ESI-QFT
Ms type: MS2
Ion mode: POSITIVE
Ionization: ESI
Fragmentation mode: HCD
Collision energy: 180 (nominal)
Resolution: 35000
Column name: XBridge C18 3.5um, 2.1x50mm, Waters
Retention time: 10.9 min
Base peak: 377.9586
Precursor m/z: 375.9614
Precursor type: [M+H]+
m/z	relative intensity	assigned
50.0151	5	C4H2+
53.0023	8	C3HO+
53.0386	3	C4H5+
61.0073	31	C5H+
62.0152	173	C5H2+
63.023	454	C5H3+
64.0308	4	C5H4+
65.0386	4	C5H5+
66.0465	1	C5H6+
70.04	91	C2H4N3+
72.984	651	C3H2Cl+
74.0151	314	C6H2+
74.9997	8	C3H4Cl+
75.023	53	C6H3+
76.0308	6	C6H4+
77.0385	3	C6H5+
78.0465	6	C6H6+
79.0179	19	C5H3O+
82.04	2	C3H4N3+
82.945	60	CHCl2+
83.9762	8	C4HCl+
84.984	9	C4H2Cl+
86.0152	15	C7H2+
86.9634	3	C3ClO+
87.0231	33	C7H3+
88.0309	49	C7H4+
89.0386	999	C7H5+
92.9335	10	CH2Br+
95.0492	9	C6H7O+
96.9841	151	C5H2Cl+
98.0153	2	C8H2+
98.9997	126	C5H4Cl+
102.0465	16	C8H6+
105.0449	6	C6H5N2+
106.9451	18	C3HCl2+
106.9487	1	C2H4Br+
108.9841	55	C6H2Cl+
109.9919	3	C6H3Cl+
113.0387	7	C9H5+
114.0464	1	C9H6+
115.0543	11	C9H7+
120.0207	17	C4H7ClNO+
122.9997	113	C7H4Cl+
124.0076	16	C7H5Cl+
126.0466	7	C10H6+
127.0543	7	C10H7+
128.0622	37	C10H8+
129.0449	1	C8H5N2+
132.0571	1	C9H8O+
132.9608	34	C5H3Cl2+
139.0544	3	C11H7+
145.0649	4	C10H9O+
149.0155	2	C9H6Cl+
155.0604	7	C10H7N2+
158.9765	8	C7H5Cl2+
