Mass spectrum: Losartan; LC-ESI-QFT; MS2; CE: 30; R=35000; [M+H]+
Name: Losartan
Name: [2-butyl-5-chloranyl-3-[[4-[2-(2H-1,2,3,4-tetrazol-5-yl)phenyl]phenyl]methyl]imidazol-4-yl]methanol
Formula: C22H23ClN6O
Exact mass: 421.15436
SMILES: Clc1nc(n(c1CO)Cc4ccc(c2ccccc2c3[nH]nnn3)cc4)CCCC
InChI: InChI=1S/C22H23ClN6O/c1-2-3-8-20-24-21(23)19(14-30)29(20)13-15-9-11-16(12-10-15)17-6-4-5-7-18(17)22-25-27-28-26-22/h4-7,9-12,30H,2-3,8,13-14H2,1H3,(H,25,26,27,28)
Instrument: Q Exactive Plus Orbitrap Thermo Scientific
Instrument type: LC-ESI-QFT
Ms type: MS2
Ion mode: POSITIVE
Ionization: ESI
Fragmentation mode: HCD
Collision energy: 30 (nominal)
Resolution: 35000
Column name: XBridge C18 3.5um, 2.1x50mm, Waters
Retention time: 8.9 min
Base peak: 423.1691
Precursor m/z: 423.1695
Precursor type: [M+H]+
m/z	relative intensity	assigned
79.0542	2	C6H7+
80.0494	2	C5H6N+
115.0058	1	C4H4ClN2+
129.0213	1	C5H6ClN2+
135.0917	1	C8H11N2+
140.0493	1	C10H6N+
142.0295	1	C6H7ClN2+
153.07	1	C12H9+
165.0692	1	C13H9+
167.0731	1	C12H9N+
171.0683	121	C8H12ClN2+
178.0776	5	C14H10+
179.0859	1	C14H11+
180.0807	30	C13H10N+
183.0681	1	C12H9NO+
187.0633	1	C8H12ClN2O+
189.0789	13	C8H14ClN2O+
190.065	11	C14H8N+
191.0729	1	C14H9N+
192.0807	67	C14H10N+
195.0917	7	C13H11N2+
196.0754	3	C13H10NO+
205.0759	4	C14H9N2+
206.0839	22	C14H10N2+
206.0959	1	C15H12N+
207.0916	999	C14H11N2+
208.0754	1	C14H10NO+
218.0837	3	C15H10N2+
219.0919	3	C15H11N2+
229.076	1	C16H9N2+
231.0917	3	C16H11N2+
232.099	2	C16H12N2+
233.1074	1	C16H13N2+
235.0978	145	C14H11N4+
241.0761	4	C17H9N2+
242.0833	1	C17H10N2+
243.0917	1	C17H11N2+
254.0607	2	C15H11ClN2+
257.0944	1	C17H11N3+
258.1026	70	C17H12N3+
259.0866	15	C17H11N2O+
259.1094	5	C17H13N3+
281.0947	4	C19H11N3+
282.1025	22	C19H12N3+
294.0792	15	C17H13ClN3+
295.0631	3	C17H12ClN2O+
295.11	3	C20H13N3+
298.1213	11	C19H14N4+
299.1294	2	C19H15N4+
311.1296	1	C20H15N4+
314.1645	1	C21H20N3+
324.1495	34	C22H18N3+
334.0979	1	C19H15ClN4+
341.1761	67	C22H21N4+
350.1416	1	C21H21ClN3+
362.1419	36	C22H21ClN3+
376.1446	2	C22H21ClN4+
377.1528	77	C22H22ClN4+
380.1525	6	C22H23ClN3O+
405.1588	7	C22H22ClN6+
