Mass spectrum: EDDP; LC-ESI-ITFT; MS2; CE: 60%; R=7500; [M+H]+
Name: EDDP
Name: (2E)-2-ethylidene-1,5-dimethyl-3,3-diphenyl-pyrrolidine
Formula: C20H23N
Exact mass: 277.1830
SMILES: C/C=C/1\C(CC(N1C)C)(C2=CC=CC=C2)C3=CC=CC=C3
InChI: InChI=1S/C20H23N/c1-4-19-20(15-16(2)21(19)3,17-11-7-5-8-12-17)18-13-9-6-10-14-18/h4-14,16H,15H2,1-3H3/b19-4+
Instrument: LTQ Orbitrap XL Thermo Scientific
Instrument type: LC-ESI-ITFT
Ms type: MS2
Ion mode: POSITIVE
Ionization: ESI
Fragmentation mode: HCD
Collision energy: 60 % (nominal)
Resolution: 7500
Column name: XBridge C18 3.5um, 2.1x50mm, Waters
Retention time: 6.5 min
Base peak: 278.1909
Precursor m/z: 278.1903
Precursor type: [M+H]+
m/z	relative intensity	assigned
58.0651	4	C3H8N+
91.0542	8	C7H7+
98.0963	5	C6H12N+
105.0699	6	C8H9+
118.065	3	C8H8N+
129.07	10	C10H9+
143.0855	4	C11H11+
158.0963	5	C11H12N+
171.1044	9	C12H13N+
172.1121	28	C12H14N+
186.1277	169	C13H16N+
200.1433	66	C14H18N+
201.1512	98	C14H19N+
207.1048	23	C15H13N+
208.1118	6	C15H14N+
219.1039	5	C16H13N+
220.1112	5	C16H14N+
221.1203	4	C16H15N+
233.121	7	C17H15N+
234.1278	999	C17H16N+
236.1436	9	C17H18N+
248.1434	64	C18H18N+
249.1512	527	C18H19N+
278.1906	664	C20H24N+
