Mass spectrum: Flufenacet OXA; LC-ESI-ITFT; MS2; CE: 45%; R=7500; [M-H]-
Name: Flufenacet OXA
Name: [(4-Fluorophenyl)(isopropyl)amino](oxo)acetic acid
Formula: C11H12FNO3
Exact mass: 225.0801
SMILES: Fc1ccc(cc1)N(C(C)C)C(=O)C(O)=O
InChI: InChI=1S/C11H12FNO3/c1-7(2)13(10(14)11(15)16)9-5-3-8(12)4-6-9/h3-7H,1-2H3,(H,15,16)
Instrument: LTQ Orbitrap XL Thermo Scientific
Instrument type: LC-ESI-ITFT
Ms type: MS2
Ion mode: NEGATIVE
Ionization: ESI
Fragmentation mode: HCD
Collision energy: 45 % (nominal)
Resolution: 7500
Column name: XBridge C18 3.5um, 2.1x50mm, Waters
Retention time: 5.9 min
Base peak: 152.0886
Precursor m/z: 224.0728
Precursor type: [M-H]-
m/z	relative intensity	assigned
95.0305	55	C6H4F-
110.0414	71	C6H5FN-
134.0413	27	C8H5FN-
136.0571	539	C8H7FN-
150.0728	64	C9H9FN-
152.0885	999	C9H11FN-
