Mass spectrum: Microcystin-LR; LC-ESI-ITFT; MS2; CE: 30%; R=15000; [M+H]+
Name: Microcystin-LR
Name: (5R,8R,11R,12S,15S,18S,19S,22R)-15-{3-[(Diaminomethylene)amino]propyl}-8-isobutyl-18-[(1E,3E,5S,6S)-6-methoxy-3,5-dimethyl-7-phenyl-1,3-heptadien-1-yl]-1,5,12,19-tetramethyl-2-methylene-3,6,9,13,16,20 ,25-heptaoxo-1,4,7,10,14,17,21-heptaazacyclopentacosane-11,22-dicarboxylic acid
Name: (5R,8S,11R,12S,15S,18S,19S,22R)-15-(3-guanidinopropyl)-8-isobutyl-3,6,9,13,16,20,25-heptaketo-18-[(1E,3E,5S,6S)-6-methoxy-3,5-dimethyl-7-phenyl-hepta-1,3-dienyl]-1,5,12,19-tetramethyl-2-methylene-1,4,7,10,14,17,21-heptazacyclopentacosane-11,22-dicarboxylic acid
Formula: C49H74N10O12
Exact mass: 994.5488
SMILES: CC1C(NC(=O)C(NC(=O)C(C(NC(=O)C(NC(=O)C(NC(=O)C(=C)N(C(=O)CCC(NC1=O)C(=O)O)C)C)CC(C)C)C(=O)O)C)CCCN=C(N)N)C=CC(=CC(C)C(CC2=CC=CC=C2)OC)C
InChI: InChI=1S/C49H74N10O12/c1-26(2)23-37-46(66)58-40(48(69)70)30(6)42(62)55-35(17-14-22-52-49(50)51)45(65)54-34(19-18-27(3)24-28(4)38(71-10)25-33-15-12-11-13-16-33)29(5)41(61)56-36(47(67)68)20-21-39(60)59(9)32(8)44(64)53-31(7)43(63)57-37/h11-13,15-16,18-19,24,26,28-31,34-38,40H,8,14,17,20-23,25H2,1-7,9-10H3,(H,53,64)(H,54,65)(H,55,62)(H,56,61)(H,57,63)(H,58,66)(H,67,68)(H,69,70)(H4,50,51,52)/b19-18+,27-24+/t28-,29-,30-,31+,34-,35-,36+,37-,38-,40+/m0/s1
Instrument: LTQ Orbitrap XL Thermo Scientific
Instrument type: LC-ESI-ITFT
Ms type: MS2
Ion mode: POSITIVE
Ionization: ESI
Fragmentation mode: HCD
Collision energy: 30 % (nominal)
Resolution: 15000
Column name: XBridge C18 3.5um, 2.1x50mm, Waters
Retention time: 10.2 min
Base peak: 498.2811
Precursor m/z: 995.556
Precursor type: [M+H]+
m/z	relative intensity	assigned
70.0652	49	C4H8N+
86.0962	66	C5H12N+
107.0854	95	C8H11+
112.0866	67	C5H10N3+
127.0865	106	C6H11N2O+
135.0802	417	C9H11O+
135.1166	105	C10H15+
155.0814	68	C7H11N2O2+
156.124	80	C6H14N5+
163.1116	217	C11H15O+
174.1346	257	C6H16N5O+
195.076	48	C9H11N2O3+
200.1141	74	C7H14N5O2+
213.0867	332	C9H13N2O4+
241.1295	61	C10H17N4O3+
244.1283	47	C8H16N6O3+
246.148	43	C13H18N4O+
258.1847	132	CH24N9O6+
265.1576	65	C17H19N3+
268.1652	53	C13H22N3O3+
285.1663	225	C11H21N6O3+
286.1499	149	C11H20N5O4+
292.1523	37	C14H20N4O3+
347.1954	87	C5H29N7O10+
375.1909	412	C4H27N10O10+
382.2083	87	C16H32NO9+
397.21	58	C4H31N9O12+
399.2349	49	C17H31N6O5+
446.2277	117	C21H30N6O5+
553.3082	187	C23H45N4O11+
570.3362	54	C23H48N5O11+
571.3586	35	C28H45N9O4+
599.3541	138	C28H49N5O9+
967.5647	79	C48H75N10O11+
995.5554	999	C49H75N10O12+
