Mass spectrum: N,N-Dimethyl-N'-phenylsulfamide; LC-ESI-ITFT; MS2; CE: 15%; R=15000; [M+H]+
Name: N,N-Dimethyl-N'-phenylsulfamide
Name: DMSA
Formula: C8H12N2O2S
Exact mass: 200.0619
SMILES: S(Nc1ccccc1)(N(C)C)(=O)=O
InChI: InChI=1S/C8H12N2O2S/c1-10(2)13(11,12)9-8-6-4-3-5-7-8/h3-7,9H,1-2H3
Instrument: LTQ Orbitrap XL Thermo Scientific
Instrument type: LC-ESI-ITFT
Ms type: MS2
Ion mode: POSITIVE
Ionization: ESI
Fragmentation mode: HCD
Collision energy: 15 % (nominal)
Resolution: 15000
Column name: XBridge C18 3.5um, 2.1x50mm, Waters
Retention time: 6.3 min
Base peak: 223.0517
Precursor m/z: 201.0692
Precursor type: [M+H]+
m/z	relative intensity	assigned
65.0385	10	C5H5+
92.0165	13	C2H6NOS+
92.0495	121	C6H6N+
93.0574	201	C6H7N+
94.0652	109	C6H8N+
108.0114	4	C2H6NO2S+
108.0806	6	C7H10N+
122.0839	9	C7H10N2+
135.0921	1	C8H11N2+
137.1075	653	C8H13N2+
156.0116	13	C6H6NO2S+
201.0694	999	C8H13N2O2S+
