Mass spectrum: Flocoumafen; LC-ESI-QFT; MS2; CE: 45%; R=17500; [M-H]-
Name: Flocoumafen
Name: 4-hydroxy-3-[3-[4-[[4-(trifluoromethyl)phenyl]methoxy]phenyl]-1,2,3,4-tetrahydronaphthalen-1-yl]chromen-2-one
Formula: C33H25F3O4
Exact mass: 542.1705
SMILES: C1C(CC2=CC=CC=C2C1C3=C(C4=CC=CC=C4OC3=O)O)C5=CC=C(C=C5)OCC6=CC=C(C=C6)C(F)(F)F
InChI: InChI=1S/C33H25F3O4/c34-33(35,36)24-13-9-20(10-14-24)19-39-25-15-11-21(12-16-25)23-17-22-5-1-2-6-26(22)28(18-23)30-31(37)27-7-3-4-8-29(27)40-32(30)38/h1-16,23,28,37H,17-19H2
Instrument: Exploris 240 Orbitrap Thermo Scientific
Instrument type: LC-ESI-QFT
Ms type: MS2
Ion mode: NEGATIVE
Ionization: ESI
Fragmentation mode: HCD
Collision energy: 45 % (nominal)
Resolution: 17500
Column name: XBridge C18 3.5um, 2.1x50mm, Waters
Retention time: 15.818 min
Base peak: 541.1631
Precursor m/z: 541.1632
Precursor type: [M-H]-
m/z	relative intensity	assigned
93.0346	31	C6H5O-
115.0552	8	C9H7-
117.0345	18	C8H5O-
120.0222	4	C7H4O2-
161.0245	999	C9H5O3-
174.0323	152	C10H6O3-
187.0401	15	C11H7O3-
207.082	9	C15H11O-
219.0817	102	C16H11O-
220.089	13	C16H12O-
247.0766	8	C17H11O2-
251.0686	8	C14H10F3O-
261.0924	18	C18H13O2-
262.1	18	C18H14O2-
275.0716	98	C18H11O3-
276.0788	20	C18H12O3-
277.0498	7	C17H9O4-
287.072	41	C19H11O3-
288.0792	4	C16H13FO4-
291.0667	44	C18H11O4-
367.0975	72	C24H15O4-
381.1133	80	C25H17O4-
382.121	99	C25H18O4-
541.1609	6	C33H24F3O4-
