Mass spectrum: Terbuthylazine-TP CSCD692760 (LM3); LC-ESI-QFT; MS2; CE: 75%; R=17500; [M+H]+
Name: Terbuthylazine-TP CSCD692760 (LM3)
Name: 6-Hydroxy-7,7-dimethyl-7,8-dihydroimidazo[1,2-a][1,3,5]triazine-2,4(3H,6H)-dione
Formula: C7H10N4O3
Exact mass: 198.0753
SMILES: CC1(C)NC2=NC(O)=NC(=O)N2C1O
InChI: InChI=1S/C7H10N4O3/c1-7(2)3(12)11-4(10-7)8-5(13)9-6(11)14/h3,12H,1-2H3,(H2,8,9,10,13,14)
Instrument: Q Exactive Plus Orbitrap Thermo Scientific
Instrument type: LC-ESI-QFT
Ms type: MS2
Ion mode: POSITIVE
Ionization: ESI
Fragmentation mode: HCD
Collision energy: 75 % (nominal)
Resolution: 17500
Column name: XBridge C18 3.5um, 2.1x50mm, Waters
Retention time: 1.307 min
Base peak: 199.0826
Precursor m/z: 199.0826
Precursor type: [M+H]+
m/z	relative intensity	assigned
53.0021	12	C3HO+
53.0386	193	C4H5+
54.0338	17	C3H4N+
58.0651	13	C3H8N+
68.0494	21	C4H6N+
69.0083	168	C2HN2O+
69.0447	11	C3H5N2+
69.9924	135	C2NO2+
70.0651	489	C4H8N+
71.0492	231	C4H7O+
72.0444	40	C3H6NO+
86.0349	939	C2H4N3O+
86.0601	21	
87.019	999	C2H3N2O2+
88.0757	20	C4H10NO+
95.0605	42	C5H7N2+
96.0444	103	C5H6NO+
97.0397	10	C4H5N2O+
110.0713	266	C5H8N3+
113.071	66	C5H9N2O+
114.0662	412	C4H8N3O+
129.0407	945	C3H5N4O2+
138.0662	767	C6H8N3O+
139.0503	155	C6H7N2O2+
181.0719	83	C7H9N4O2+
199.0832	33	C7H11N4O3+
