Mass spectrum: Iomeprol; LC-ESI-ITFT; MS2; CE: 90%; R=15000; [M+H]+
Name: Iomeprol
Name: 1-N,3-N-bis(2,3-dihydroxypropyl)-5-[(2-hydroxyacetyl)-methylamino]-2,4,6-triiodobenzene-1,3-dicarboxamide
Formula: C17H22I3N3O8
Exact mass: 776.8541
SMILES: Ic1c(c(I)c(c(I)c1N(C)C(=O)CO)C(=O)NCC(O)CO)C(=O)NCC(O)CO
InChI: InChI=1S/C17H22I3N3O8/c1-23(9(29)6-26)15-13(19)10(16(30)21-2-7(27)4-24)12(18)11(14(15)20)17(31)22-3-8(28)5-25/h7-8,24-28H,2-6H2,1H3,(H,21,30)(H,22,31)
Instrument: LTQ Orbitrap XL Thermo Scientific
Instrument type: LC-ESI-ITFT
Ms type: MS2
Ion mode: POSITIVE
Ionization: ESI
Fragmentation mode: HCD
Collision energy: 90 % (nominal)
Resolution: 15000
Column name: XBridge C18 3.5um, 2.1x50mm, Waters
Retention time: 1.6 min
Base peak: 132.9578
Precursor m/z: 777.8614
Precursor type: [M+H]+
m/z	relative intensity	assigned
63.0229	72	C5H3+
66.0338	58	C4H4N+
76.0182	140	C5H2N+
76.0308	96	C6H4+
79.0416	114	C5H5N+
90.0337	180	C6H4N+
91.0415	199	C6H5N+
92.0493	92	C6H6N+
103.0416	134	C7H5N+
104.0494	170	C7H6N+
106.0285	96	C6H4NO+
108.0447	49	C6H6NO+
114.0338	98	C8H4N+
118.0288	233	C7H4NO+
119.0365	305	C7H5NO+
120.0441	136	C7H6NO+
130.0289	65	C8H4NO+
131.0364	135	C8H5NO+
132.0442	321	C8H6NO+
136.0393	109	C7H6NO2+
146.0236	362	C8H4NO2+
148.0394	113	C8H6NO2+
160.039	145	C9H6NO2+
161.0472	350	C9H7NO2+
162.0187	58	C8H4NO3+
162.0548	271	C9H8NO2+
164.0343	100	C8H6NO3+
177.042	188	C9H7NO3+
177.9145	85	C3HIN+
188.9193	304	C5H2I+
193.0367	208	C9H7NO4+
217.9461	141	C6H5IN+
245.9407	99	C7H5INO+
257.9411	663	C8H5INO+
273.9357	109	C8H5INO2+
287.9514	999	C9H7INO2+
293.9055	128	C10HINO2+
293.9218	185	C2H5IN3O6+
