Mass spectrum: Oseltamivir; LC-ESI-ITFT; MS2; CE: 75%; R=7500; [M+H]+
Name: Oseltamivir
Name: (3R,4R,5S)-4-acetamido-5-amino-3-(1-ethylpropoxy)cyclohexene-1-carboxylic acid ethyl ester
Formula: C16H28N2O4
Exact mass: 312.2049
SMILES: CCC(CC)OC1C=C(CC(C1NC(=O)C)N)C(=O)OCC
InChI: InChI=1S/C16H28N2O4/c1-5-12(6-2)22-14-9-11(16(20)21-7-3)8-13(17)15(14)18-10(4)19/h9,12-15H,5-8,17H2,1-4H3,(H,18,19)/t13-,14+,15+/m0/s1
Instrument: LTQ Orbitrap XL Thermo Scientific
Instrument type: LC-ESI-ITFT
Ms type: MS2
Ion mode: POSITIVE
Ionization: ESI
Fragmentation mode: HCD
Collision energy: 75 % (nominal)
Resolution: 7500
Column name: XBridge C18 3.5um, 2.1x50mm, Waters
Retention time: 7.0 min
Base peak: 313.2132
Precursor m/z: 313.2122
Precursor type: [M+H]+
m/z	relative intensity	assigned
60.0444	14	C2H6NO+
65.0386	158	C5H5+
67.0542	98	C5H7+
68.0495	24	C4H6N+
77.0386	33	C6H5+
80.0495	56	C5H6N+
82.0652	43	C5H8N+
83.0492	22	C5H7O+
92.0495	268	C6H6N+
93.0335	209	C6H5O+
93.0573	152	C6H7N+
94.0651	688	C6H8N+
95.0492	28	C6H7O+
108.0446	17	C6H6NO+
109.076	210	C6H9N2+
110.0601	130	C6H8NO+
111.0441	25	C6H7O2+
119.0602	58	C7H7N2+
120.0444	999	C7H6NO+
122.0966	11	C8H12N+
133.0759	15	C8H9N2+
134.0602	17	C8H8NO+
137.0472	45	C7H7NO2+
137.0709	238	C7H9N2O+
138.055	272	C7H8NO2+
138.0912	21	C8H12NO+
162.0548	25	C9H8NO2+
166.0862	240	C9H12NO2+
