Mass spectrum: Dehydroepiandrosterone (DHEA); LC-ESI-QFT; MS2; CE: 30; R=35000; [M+H]+
Name: Dehydroepiandrosterone (DHEA)
Name: trans-Dehydroandosterone
Name: (3S,8R,9S,10R,13S,14S)-10,13-dimethyl-3-oxidanyl-1,2,3,4,7,8,9,11,12,14,15,16-dodecahydrocyclopenta[a]phenanthren-17-one
Formula: C19H28O2
Exact mass: 288.20893
SMILES: O=C3[C@]2(CC[C@@H]1[C@@]4(C(=C/C[C@H]1[C@@H]2CC3)\C[C@@H](O)CC4)C)C
InChI: InChI=1S/C19H28O2/c1-18-9-7-13(20)11-12(18)3-4-14-15-5-6-17(21)19(15,2)10-8-16(14)18/h3,13-16,20H,4-11H2,1-2H3/t13-,14-,15-,16-,18-,19-/m0/s1
Instrument: Q Exactive Orbitrap Thermo Scientific
Instrument type: LC-ESI-QFT
Ms type: MS2
Ion mode: POSITIVE
Ionization: ESI
Fragmentation mode: HCD
Collision energy: 30 (nominal)
Resolution: 35000
Column name: XBridge C18 3.5um, 2.1x50mm, Waters
Retention time: 11.2 min
Base peak: 271.2057
Precursor m/z: 289.2162
Precursor type: [M+H]+
m/z	relative intensity	assigned
53.0385	1	C4H5+
55.054	1	C4H7+
67.0542	18	C5H7+
69.0699	7	C5H9+
71.0492	4	C4H7O+
71.0856	1	C5H11+
77.0383	1	C6H5+
79.0542	11	C6H7+
81.0698	108	C6H9+
83.0491	5	C5H7O+
83.0855	33	C6H11+
85.0648	11	C5H9O+
91.054	11	C7H7+
93.0698	26	C7H9+
95.0855	37	C7H11+
97.0648	68	C6H9O+
99.0805	4	C6H11O+
105.0699	34	C8H9+
107.0855	39	C8H11+
109.0648	4	C7H9O+
109.1011	29	C8H13+
111.0805	1	C7H11O+
113.096	1	C7H13O+
117.0698	18	C9H9+
119.0854	32	C9H11+
121.0646	4	C8H9O+
121.1011	44	C9H13+
123.0804	7	C8H11O+
123.1168	11	C9H15+
125.096	7	C8H13O+
128.0618	1	C10H8+
129.0698	10	C10H9+
131.0855	70	C10H11+
133.1011	156	C10H13+
135.1168	91	C10H15+
137.0961	13	C9H13O+
139.1115	6	C9H15O+
141.0695	9	C11H9+
143.0855	45	C11H11+
145.1012	127	C11H13+
147.1168	77	C11H15+
149.0962	7	C10H13O+
149.1325	17	C11H17+
151.1117	28	C10H15O+
155.0855	18	C12H11+
157.1012	128	C12H13+
159.1168	147	C12H15+
161.096	9	C11H13O+
161.1324	18	C12H17+
163.1116	44	C11H15O+
169.1011	40	C13H13+
171.1168	148	C13H15+
173.1324	75	C13H17+
175.1117	16	C12H15O+
175.1481	32	C13H19+
177.1271	8	C12H17O+
183.1169	73	C14H15+
185.1325	64	C14H17+
187.1481	28	C14H19+
189.1274	12	C13H17O+
189.1638	18	C14H21+
191.1433	7	C13H19O+
197.1324	339	C15H17+
198.1402	4	C15H18+
199.1479	17	C15H19+
201.127	1	C14H17O+
201.1637	28	C15H21+
203.1428	9	C14H19O+
205.1597	1	C14H21O+
211.1482	132	C16H19+
212.1565	1	C16H20+
213.1637	841	C16H21+
215.1431	26	C15H19O+
223.1482	1	C17H19+
224.1559	6	C17H20+
225.1637	151	C17H21+
227.1795	15	C17H23+
229.1587	31	C16H21O+
229.195	4	C17H25+
231.1743	320	C16H23O+
238.1713	8	C18H22+
243.1747	2	C17H23O+
243.2108	1	C18H27+
251.1792	1	C19H23+
253.195	999	C19H25+
271.2056	467	C19H27O+
272.2101	1	C14H28N2O3+
289.2161	42	C19H29O2+
