Mass spectrum: Ranitidine-S-oxide; LC-ESI-ITFT; MS2; CE: 60%; R=15000; [M+H]+
Name: Ranitidine-S-oxide
Name: 1,1-Ethenediamine, N-(2-(((5-((dimethylamino)methyl)-2-furanyl)methyl)sulfinyl)ethyl)-N'-methyl-2-nitro-
Formula: C13H22N4O4S
Exact mass: 330.1362
SMILES: [O-][N+](=O)\C=C(/NC)NCCS(=O)Cc1oc(cc1)CN(C)C
InChI: InChI=1S/C13H22N4O4S/c1-14-13(9-17(18)19)15-6-7-22(20)10-12-5-4-11(21-12)8-16(2)3/h4-5,9,14-15H,6-8,10H2,1-3H3/b13-9+
Instrument: LTQ Orbitrap XL Thermo Scientific
Instrument type: LC-ESI-ITFT
Ms type: MS2
Ion mode: POSITIVE
Ionization: ESI
Fragmentation mode: HCD
Collision energy: 60 % (nominal)
Resolution: 15000
Column name: XBridge C18 3.5um, 2.1x50mm, Waters
Retention time: 0.8 min
Base peak: 331.1445
Precursor m/z: 331.1435
Precursor type: [M+H]+
m/z	relative intensity	assigned
55.0417	5	C3H5N+
56.0495	8	C3H6N+
58.0651	63	C3H8N+
66.0465	8	C5H6+
67.0543	13	C5H7+
68.0495	42	C4H6N+
79.0543	11	C6H7+
81.0573	4	C5H7N+
81.07	26	C6H9+
82.0652	73	C5H8N+
84.0682	6	C4H8N2+
88.9931	5	C2H3NOS+
93.07	16	C7H9+
94.0414	380	C6H6O+
94.0651	20	C6H8N+
95.0492	74	C6H7O+
95.073	41	C6H9N+
96.0569	8	C6H8O+
97.0761	34	C5H9N2+
98.0839	35	C5H10N2+
99.0555	9	C4H7N2O+
102.0374	13	C4H8NS+
108.0808	76	C7H10N+
110.0965	999	C7H12N+
117.0244	4	C4H7NOS+
125.006	4	C6H5OS+
130.0558	14	C5H10N2S+
130.0612	6	C4H8N3O2+
138.0914	173	C8H12NO+
143.0161	10	C6H7O2S+
147.0588	5	C5H11N2OS+
192.0421	3	C11H4N4+
