Mass spectrum: Ifosfamide; LC-ESI-ITFT; MS2; CE: 75%; R=7500; [M+H]+
Name: Ifosfamide
Name: Isophosphamide
Name: N,3-Bis(2-chloroethyl)-1,3,2-oxazaphosphinan-2-amine 2-oxide
Formula: C7H15Cl2N2O2P
Exact mass: 260.0248
SMILES: ClCCN(P(OC1)(=O)NCCCl)CC1
InChI: InChI=1S/C7H15Cl2N2O2P/c8-2-4-10-14(12)11(6-3-9)5-1-7-13-14/h1-7H2,(H,10,12)
Instrument: LTQ Orbitrap XL Thermo Scientific
Instrument type: LC-ESI-ITFT
Ms type: MS2
Ion mode: POSITIVE
Ionization: ESI
Fragmentation mode: HCD
Collision energy: 75 % (nominal)
Resolution: 7500
Column name: XBridge C18 3.5um, 2.1x50mm, Waters
Retention time: 6.3 min
Base peak: 261.0321
Precursor m/z: 261.0321
Precursor type: [M+H]+
m/z	relative intensity	assigned
56.0495	12	C3H6N+
62.9996	50	C2H4Cl+
67.0541	4	C5H7+
72.0444	7	C3H6NO+
78.0106	108	C2H5ClN+
79.9898	5	CH3ClNO+
80.026	4	C2H7ClN+
82.0652	8	C5H8N+
84.0807	7	C5H10N+
92.0262	999	C3H7ClN+
99.9953	3	C4H3ClN+
106.0051	15	C2H5NO2P+
109.0048	4	C3H6ClO2+
115.9659	5	C4HClO2+
116.9504	46	CH3Cl2O2+
118.0055	11	C4H5ClNO+
118.0417	13	CH12ClN2P+
120.0205	13	C7H4O2+
120.0575	100	C5H11ClN+
124.0159	9	C3H7ClNO2+
125.9506	27	C2H2Cl2NO+
126.9711	4	C2H5ClO2P+
127.9664	23	CH4ClNO2P+
128.0259	22	C5H7NOP+
136.0158	25	C4H7ClNO2+
141.9821	39	C3H6Cl2NO+
146.0366	14	C5H9NO2P+
153.9819	397	C3H6ClNO2P+
171.9925	3	C4H8Cl2NO2+
