Mass spectrum: Minocycline; LC-ESI-QFT; MS2; CE: 75; R=35000; [M+H]+
Name: Minocycline
Name: Minocin
Name: (4S,4aS,5aR,12aS)-4,7-Bis(dimethylamino)-3,10,12,12a-tetrahydroxy-1,11-dioxo-1,4,4a,5,5a,6,11,12a-octahydro-2-tetracenecarboxamide
Formula: C23H27N3O7
Exact mass: 457.18490
SMILES: [H][C@@]12CC3=C(C(O)=CC=C3N(C)C)C(=O)C1=C(O)[C@]1(O)C(=O)C(C(N)=O)=C(O)[C@@H](N(C)C)[C@]1([H])C2
InChI: InChI=1S/C23H27N3O7/c1-25(2)12-5-6-13(27)15-10(12)7-9-8-11-17(26(3)4)19(29)16(22(24)32)21(31)23(11,33)20(30)14(9)18(15)28/h5-6,9,11,17,27,29-30,33H,7-8H2,1-4H3,(H2,24,32)/t9-,11-,17-,23-/m0/s1
Instrument: Q Exactive Plus Orbitrap Thermo Scientific
Instrument type: LC-ESI-QFT
Ms type: MS2
Ion mode: POSITIVE
Ionization: ESI
Fragmentation mode: HCD
Collision energy: 75 (nominal)
Resolution: 35000
Column name: XBridge C18 3.5um, 2.1x50mm, Waters
Retention time: 3.7 min
Base peak: 229.5995
Precursor m/z: 458.1922
Precursor type: [M+H]+
m/z	relative intensity	assigned
51.0228	1	C4H3+
53.0021	6	C3HO+
53.0385	5	C4H5+
55.0178	11	C3H3O+
55.0416	1	C3H5N+
55.0542	1	C4H7+
56.0494	19	C3H6N+
58.0651	132	C3H8N+
65.0385	10	C5H5+
67.0541	6	C5H7+
68.0494	12	C4H6N+
68.997	12	C3HO2+
69.0334	7	C4H5O+
70.065	61	C4H8N+
71.0126	2	C3H3O2+
72.0443	21	C3H6NO+
74.0599	2	C3H8NO+
78.046	1	C6H6+
79.0541	6	C6H7+
80.0129	2	C4H2NO+
80.0493	5	C5H6N+
81.0334	5	C5H5O+
81.0572	1	C5H7N+
81.0699	1	C6H9+
82.065	11	C5H8N+
83.0127	2	C4H3O2+
84.0443	22	C4H6NO+
84.0807	83	C5H10N+
86.0599	8	C4H8NO+
91.0541	5	C7H7+
93.0334	6	C6H5O+
93.0572	1	C6H7N+
94.065	7	C6H8N+
95.0126	18	C5H3O2+
95.049	8	C6H7O+
96.0442	2	C5H6NO+
96.0807	8	C6H10N+
98.06	389	C5H8NO+
102.0464	2	C8H6+
102.0548	1	C4H8NO2+
103.0542	2	C8H7+
105.0334	1	C7H5O+
105.0447	1	C6H5N2+
105.0571	1	C7H7N+
105.07	1	C8H9+
106.0651	5	C7H8N+
107.0126	1	C6H3O2+
107.0491	7	C7H7O+
107.0728	2	C7H9N+
108.0442	7	C6H6NO+
108.0806	28	C7H10N+
110.06	6	C6H8NO+
111.0439	1	C6H7O2+
112.0757	1	C6H10NO+
115.0541	2	C9H7+
117.0572	2	C8H7N+
118.065	5	C8H8N+
119.0126	5	C7H3O2+
119.0493	1	C8H7O+
120.0806	8	C8H10N+
121.0284	19	C7H5O2+
122.06	4	C7H8NO+
123.044	5	C7H7O2+
123.0676	1	C7H9NO+
124.0393	10	C6H6NO2+
124.0757	9	C7H10NO+
126.0549	30	C6H8NO2+
129.0696	2	C10H9+
130.065	57	C9H8N+
131.0728	163	C9H9N+
132.0443	2	C8H6NO+
132.0808	4	C9H10N+
133.0281	4	C8H5O2+
133.0521	7	C8H7NO+
133.0647	4	C9H9O+
134.0599	12	C8H8NO+
135.0678	19	C8H9NO+
136.0756	31	C8H10NO+
137.0834	15	C8H11NO+
138.0549	2	C7H8NO2+
139.0263	2	C6H5NO3+
139.039	2	C7H7O3+
141.0698	1	C11H9+
142.0499	1	C6H8NO3+
144.0806	2	C10H10N+
145.0519	2	C9H7NO+
145.0642	3	C10H9O+
146.0599	12	C9H8NO+
147.0073	2	C8H3O3+
147.0441	1	C9H7O2+
147.0677	4	C9H9NO+
148.0755	30	C9H10NO+
149.0233	17	C8H5O3+
149.0835	10	C9H11NO+
150.0549	9	C8H8NO2+
150.0912	28	C9H12NO+
151.0388	2	C8H7O3+
152.034	6	C7H6NO3+
152.0618	2	C12H8+
152.0705	4	C8H10NO2+
153.0181	5	C7H5O4+
153.0697	13	C12H9+
154.0496	9	C7H8NO3+
154.0646	1	C11H8N+
155.0854	1	C12H11+
156.0806	1	C11H10N+
157.0646	2	C11H9O+
157.0883	1	C11H11N+
158.0359	1	C10H6O2+
158.0599	22	C10H8NO+
158.072	1	C11H10O+
159.0677	85	C10H9NO+
160.0392	8	C9H6NO2+
160.0522	1	C10H8O2+
160.0755	34	C10H10NO+
161.0597	7	C10H9O2+
162.0549	2	C9H8NO2+
163.0625	7	C9H9NO2+
164.0703	25	C9H10NO2+
165.0181	15	C8H5O4+
165.0699	8	C13H9+
165.0784	12	C9H11NO2+
166.0496	1	C8H8NO3+
166.0862	12	C9H12NO2+
167.0337	19	C8H7O4+
167.0725	1	C12H9N+
167.0854	1	C13H11+
168.0571	5	C12H8O+
169.0645	8	C12H9O+
170.0448	4	C7H8NO4+
170.0599	8	C11H8NO+
170.0724	1	C12H10O+
170.0964	2	C12H12N+
171.0437	1	C11H7O2+
172.0392	9	C10H6NO2+
172.0756	10	C11H10NO+
173.0596	1	C11H9O2+
173.0834	23	C11H11NO+
174.0548	87	C10H8NO2+
174.0911	20	C11H12NO+
175.0388	4	C10H7O3+
175.0627	6	C10H9NO2+
176.0702	10	C10H10NO2+
177.0181	17	C9H5O4+
177.0706	1	C14H9+
177.0784	2	C10H11NO2+
178.086	12	C10H12NO2+
179.0855	1	C14H11+
180.0805	5	C13H10N+
181.0647	22	C13H9O+
181.0884	2	C13H11N+
182.0729	4	C13H10O+
182.0963	9	C13H12N+
183.0677	5	C12H9NO+
183.0804	2	C13H11O+
183.1036	2	C13H13N+
184.052	1	C12H8O2+
184.0754	26	C12H10NO+
185.0594	2	C12H9O2+
185.0833	1	C12H11NO+
186.0544	12	C11H8NO2+
186.0912	11	C12H12NO+
187.0626	797	C11H9NO2+
188.0704	158	C11H10NO2+
189.0782	109	C11H11NO2+
190.0857	4	C11H12NO2+
192.0571	1	C14H8O+
192.0653	5	C10H10NO3+
192.0808	2	C14H10N+
193.0649	2	C14H9O+
194.0604	1	C13H8NO+
194.0723	4	C14H10O+
194.0961	7	C14H12N+
195.0807	2	C14H11O+
195.1039	2	C14H13N+
196.052	1	C13H8O2+
196.0754	18	C13H10NO+
196.1121	1	C14H14N+
197.0598	16	C13H9O2+
197.0833	8	C13H11NO+
198.0551	4	C12H8NO2+
198.0674	6	C13H10O2+
198.0911	28	C13H12NO+
199.0624	4	C12H9NO2+
199.075	4	C13H11O2+
199.099	22	C13H13NO+
200.0339	9	C11H6NO3+
200.0706	22	C12H10NO2+
200.107	4	C13H14NO+
201.0416	6	C11H7NO3+
201.0782	108	C12H11NO2+
202.0497	148	C11H8NO3+
202.086	38	C12H12NO2+
203.034	7	C11H7O4+
203.0571	9	C11H9NO3+
203.0939	17	C12H13NO2+
204.102	5	C12H14NO2+
205.0648	5	C15H9O+
205.088	1	C15H11N+
207.0441	5	C14H7O2+
207.0795	1	C15H11O+
207.1041	4	C15H13N+
208.0521	1	C14H8O2+
208.0758	14	C14H10NO+
208.1113	2	C15H14N+
209.0595	14	C14H9O2+
209.0836	26	C14H11NO+
210.0547	2	C13H8NO2+
210.0671	5	C14H10O2+
210.0911	42	C14H12NO+
211.0629	5	C13H9NO2+
211.0755	5	C14H11O2+
211.0991	34	C14H13NO+
212.0704	135	C13H10NO2+
212.1068	6	C14H14NO+
213.0783	34	C13H11NO2+
214.05	6	C12H8NO3+
214.0861	19	C13H12NO2+
214.1223	8	C14H16NO+
215.0575	999	C12H9NO3+
216.0655	25	C12H10NO3+
216.102	14	C13H14NO2+
217.0732	84	C12H11NO3+
220.0755	11	C15H10NO+
221.0596	9	C15H9O2+
221.083	6	C15H11NO+
222.0555	1	C14H8NO2+
222.0677	2	C15H10O2+
222.0911	23	C15H12NO+
223.0632	1	C14H9NO2+
223.0752	6	C15H11O2+
223.0987	21	C15H13NO+
224.0704	83	C14H10NO2+
224.1066	18	C15H14NO+
225.0547	9	C14H9O3+
225.0782	38	C14H11NO2+
225.1146	6	C15H15NO+
226.0861	161	C14H12NO2+
226.1225	14	C15H16NO+
227.0939	213	C14H13NO2+
228.065	20	C13H10NO3+
228.1018	18	C14H14NO2+
229.0737	9	C13H11NO3+
229.1095	22	C14H15NO2+
230.081	44	C13H12NO3+
232.0755	1	C16H10NO+
233.0682	51	C12H11NO4+
233.0833	4	C16H11NO+
234.0674	2	C16H10O2+
234.0915	12	C16H12NO+
235.0755	5	C16H11O2+
235.0983	9	C16H13NO+
236.0704	64	C15H10NO2+
236.1065	9	C16H14NO+
237.0548	1	C15H9O3+
237.0782	37	C15H11NO2+
237.1147	2	C16H15NO+
238.086	135	C15H12NO2+
239.0939	134	C15H13NO2+
240.0653	67	C14H10NO3+
240.1015	23	C15H14NO2+
241.0733	24	C14H11NO3+
241.1093	23	C15H15NO2+
242.081	55	C14H12NO3+
242.1171	13	C15H16NO2+
243.089	18	C14H13NO3+
244.0747	1	C17H10NO+
246.0911	4	C17H12NO+
247.099	2	C17H13NO+
248.0704	34	C16H10NO2+
248.1066	5	C17H14NO+
249.0548	5	C16H9O3+
249.0783	11	C16H11NO2+
250.0494	4	C15H8NO3+
250.086	44	C16H12NO2+
250.122	3	C17H16NO+
251.0938	59	C16H13NO2+
252.0653	83	C15H10NO3+
252.1015	30	C16H14NO2+
253.0505	1	C15H9O4+
253.0732	28	C15H11NO3+
253.1094	18	C16H15NO2+
254.0572	9	C15H10O4+
254.081	45	C15H12NO3+
254.117	10	C16H16NO2+
255.0887	60	C15H13NO3+
256.0599	2	C14H10NO4+
256.0967	14	C15H14NO3+
257.1044	45	C15H15NO3+
260.0699	2	C17H10NO2+
261.0784	7	C17H11NO2+
262.086	28	C17H12NO2+
263.0936	23	C17H13NO2+
264.0652	80	C16H10NO3+
264.1015	17	C17H14NO2+
265.0732	23	C16H11NO3+
265.1095	7	C17H15NO2+
266.0809	72	C16H12NO3+
267.0887	114	C16H13NO3+
268.0602	631	C15H10NO4+
269.0681	42	C15H11NO4+
269.1041	18	C16H15NO3+
270.0758	30	C15H12NO4+
270.1121	42	C16H16NO3+
271.0826	1	C15H13NO4+
272.1277	33	C16H18NO3+
273.0992	8	C15H15NO4+
274.0863	4	C18H12NO2+
276.0654	42	C17H10NO3+
276.1019	5	C18H14NO2+
277.0491	2	C17H9O4+
277.0729	10	C17H11NO3+
277.0974	1	C17H13N2O2+
278.081	36	C17H12NO3+
278.1174	1	C18H16NO2+
279.0887	56	C17H13NO3+
280.0605	12	C16H10NO4+
280.0967	34	C17H14NO3+
281.0683	5	C16H11NO4+
281.1044	47	C17H15NO3+
282.0759	19	C16H12NO4+
282.1123	6	C17H16NO3+
283.0837	963	C16H13NO4+
285.0993	24	C16H15NO4+
286.071	5	C15H12NO5+
288.0651	2	C18H10NO3+
289.0734	6	C18H11NO3+
290.0807	12	C18H12NO3+
291.0889	22	C18H13NO3+
292.0601	37	C17H10NO4+
292.0959	15	C18H14NO3+
293.0682	10	C17H11NO4+
293.1045	5	C18H15NO3+
293.1283	1	C18H17N2O2+
294.0757	101	C17H12NO4+
294.1116	5	C18H16NO3+
295.084	12	C17H13NO4+
296.0909	8	C17H14NO4+
296.1284	1	C18H18NO3+
297.0995	13	C17H15NO4+
298.1073	10	C17H16NO4+
304.0599	18	C18H10NO4+
305.0682	4	C18H11NO4+
306.0754	16	C18H12NO4+
307.0835	24	C18H13NO4+
308.0916	10	C18H14NO4+
309.0994	39	C18H15NO4+
310.0711	5	C17H12NO5+
318.0756	8	C19H12NO4+
319.084	5	C19H13NO4+
319.1074	6	C19H15N2O3+
320.0549	11	C18H10NO5+
320.0915	7	C19H14NO4+
321.0629	7	C18H11NO5+
321.1226	1	C19H17N2O3+
322.0708	111	C18H12NO5+
324.1223	1	C19H18NO4+
325.0942	7	C18H15NO5+
329.0918	1	C20H13N2O3+
332.055	18	C19H10NO5+
334.0711	1	C19H12NO5+
335.0785	2	C19H13NO5+
336.0866	7	C19H14NO5+
337.0942	56	C19H15NO5+
347.103	1	C20H15N2O4+
348.0504	5	C19H10NO6+
350.0664	11	C19H12NO6+
353.0888	5	C19H15NO6+
