Mass spectrum: Iobitridol; LC-ESI-ITFT; MS2; CE: 90%; R=15000; [M+H]+
Name: Iobitridol
Name: 1,3-Benzenedicarboxamide, N,N'-bis(2,3-dihydroxypropyl)-5-((5-hydroxy-2-(hydroxymethyl)-1-oxopropyl)amino)-2,4,6-triiodo-N,N'-dimethyl-
Name: 1-N,3-N-bis(2,3-dihydroxypropyl)-5-[[3-hydroxy-2-(hydroxymethyl)propanoyl]amino]-2,4,6-triiodo-1-N,3-N-dimethylbenzene-1,3-dicarboxamide
Formula: C20H28I3N3O9
Exact mass: 834.8960
SMILES: Ic1c(c(I)c(c(I)c1NC(=O)C(CO)CO)C(=O)N(CC(O)CO)C)C(=O)N(CC(O)CO)C
InChI: InChI=1S/C20H28I3N3O9/c1-25(3-10(31)7-29)19(34)12-14(21)13(20(35)26(2)4-11(32)8-30)16(23)17(15(12)22)24-18(33)9(5-27)6-28/h9-11,27-32H,3-8H2,1-2H3,(H,24,33)
Instrument: LTQ Orbitrap XL Thermo Scientific
Instrument type: LC-ESI-ITFT
Ms type: MS2
Ion mode: POSITIVE
Ionization: ESI
Fragmentation mode: HCD
Collision energy: 90 % (nominal)
Resolution: 15000
Column name: XBridge C18 3.5um, 2.1x50mm, Waters
Retention time: 1.6 min
Base peak: 149.0023
Precursor m/z: 835.9032
Precursor type: [M+H]+
m/z	relative intensity	assigned
76.018	99	C5H2N+
89.0387	138	C7H5+
101.9974	999	C6NO+
103.0417	244	C7H5N+
104.0127	119	C6H2NO+
104.0498	99	C7H6N+
114.0337	448	C8H4N+
115.0417	194	C8H5N+
116.0499	96	C8H6N+
142.0291	183	C9H4NO+
143.0368	160	C9H5NO+
159.0316	148	C9H5NO2+
160.0394	379	C9H6NO2+
170.0238	418	C10H4NO2+
172.0392	360	C10H6NO2+
177.9149	191	C3HIN+
188.0338	179	C10H6NO3+
188.9198	175	C5H2I+
201.9149	108	C5HIN+
202.0494	123	C11H8NO3+
204.9137	135	C5H2IO+
242.9181	105	C7H2INO+
257.9403	136	C8H5INO+
269.9409	186	C9H5INO+
293.9003	506	C5HIN3O4+
