Mass spectrum: N-Nitrosomorpholine (NMOR); LC-ESI-QFT; MS2; CE: 45; R=70000; [M+H]+
Name: N-Nitrosomorpholine (NMOR)
Name: 4-nitrosomorpholine
Formula: C4H8N2O2
Exact mass: 116.05858
SMILES: O=NN1CCOCC1
InChI: InChI=1S/C4H8N2O2/c7-5-6-1-3-8-4-2-6/h1-4H2
Instrument: Q Exactive Plus Orbitrap Thermo Scientific
Instrument type: LC-ESI-QFT
Ms type: MS2
Ion mode: POSITIVE
Ionization: ESI
Fragmentation mode: HCD
Collision energy: 45 (nominal)
Resolution: 70000
Column name: XBridge C18 3.5um, 2.1x50mm, Waters
Retention time: 1.7 min
Base peak: 117.0658
Precursor m/z: 117.0659
Precursor type: [M+H]+
m/z	relative intensity	assigned
56.0369	2	C2H4N2+
56.0495	22	C3H6N+
57.0573	86	C3H7N+
72.0444	1	C3H6NO+
73.0396	100	C2H5N2O+
86.06	270	C4H8NO+
87.0679	413	C4H9NO+
117.0658	999	C4H9N2O2+
