Mass spectrum: 8phiC8SPC; LC-ESI-QFT; MS2; CE: 180; R=35000; [M-H]-
Name: 8phiC8SPC
Name: Octacarboxy sulfophenyl carboxylic acid
Name: 8-(4-sulfophenyl)octanoic acid
Formula: C14H20O5S
Exact mass: 300.10314
SMILES: OS(=O)(=O)c1ccc(CCCCCCCC(=O)O)cc1
InChI: InChI=1S/C14H20O5S/c15-14(16)7-5-3-1-2-4-6-12-8-10-13(11-9-12)20(17,18)19/h8-11H,1-7H2,(H,15,16)(H,17,18,19)
Instrument: Q Exactive Plus Orbitrap Thermo Scientific
Instrument type: LC-ESI-QFT
Ms type: MS2
Ion mode: NEGATIVE
Ionization: ESI
Fragmentation mode: HCD
Collision energy: 180 (nominal)
Resolution: 35000
Column name: XBridge C18 3.5um, 2.1x50mm, Waters
Retention time: 8.0 min
Base peak: 299.0956
Precursor m/z: 299.0959
Precursor type: [M-H]-
m/z	relative intensity	assigned
63.9625	51	O2S-
65.0397	1	C5H5-
79.9574	999	O3S-
80.9651	11	HO3S-
91.0553	1	C7H7-
93.0346	10	C6H5O-
117.0348	2	C8H5O-
119.0503	12	C8H7O-
