Mass spectrum: Afidopyropen; LC-ESI-QFT; MS2; CE: 60%; R=17500; [M+H]+
Name: Afidopyropen
Name: [5-(cyclopropanecarbonyloxy)-9,18-dihydroxy-2,6,10-trimethyl-16-oxo-14-pyridin-3-yl-11,15-dioxatetracyclo[8.8.0.02,7.012,17]octadeca-12(17),13-dien-6-yl]methyl cyclopropanecarboxylate
Formula: C33H39NO9
Exact mass: 593.2625
SMILES: CC12CCC(C(C1CC(C3(C2C(C4=C(O3)C=C(OC4=O)C5=CN=CC=C5)O)C)O)(C)COC(=O)C6CC6)OC(=O)C7CC7
InChI: InChI=1S/C33H39NO9/c1-31-11-10-24(42-29(38)18-8-9-18)32(2,16-40-28(37)17-6-7-17)22(31)14-23(35)33(3)27(31)26(36)25-21(43-33)13-20(41-30(25)39)19-5-4-12-34-15-19/h4-5,12-13,15,17-18,22-24,26-27,35-36H,6-11,14,16H2,1-3H3
Instrument: Exploris 240 Orbitrap Thermo Scientific
Instrument type: LC-ESI-QFT
Ms type: MS2
Ion mode: POSITIVE
Ionization: ESI
Fragmentation mode: HCD
Collision energy: 60 % (nominal)
Resolution: 17500
Column name: XBridge C18 3.5um, 2.1x50mm, Waters
Retention time: 8.509 min
Base peak: 594.2694
Precursor m/z: 594.2698
Precursor type: [M+H]+
m/z	relative intensity	assigned
67.0544	10	C5H7+
69.0335	261	C4H5O+
78.0337	72	C5H4N+
79.0542	14	C6H7+
80.0494	21	C5H6N+
81.0699	30	C6H9+
91.0545	31	C7H7+
92.0493	18	C6H6N+
93.0698	31	C7H9+
95.0492	6	C6H7O+
95.0857	12	C7H11+
104.0494	35	C7H6N+
105.0696	35	C8H9+
106.0288	330	C6H4NO+
107.0853	35	C8H11+
109.0649	10	C7H9O+
117.0699	14	C9H9+
119.0857	50	C9H11+
120.0443	19	C7H6NO+
121.0289	8	C7H5O2+
121.0642	14	C8H9O+
121.1014	8	C9H13+
122.06	100	C7H8NO+
123.0441	17	C7H7O2+
129.0699	12	C10H9+
130.0289	10	C8H4NO+
131.0854	30	C10H11+
133.1008	31	C10H13+
135.0805	11	C9H11O+
135.1175	6	C10H15+
142.0778	10	C11H10+
143.0855	30	C11H11+
145.1013	39	C11H13+
147.0805	13	C10H11O+
148.0393	999	C8H6NO2+
149.0594	11	C9H9O2+
155.0858	14	C12H11+
156.0934	10	C12H12+
157.1014	23	C12H13+
159.0804	12	C11H11O+
160.0392	90	C9H6NO2+
161.0963	31	C11H13O+
167.0852	15	C13H11+
169.1009	25	C13H13+
171.0806	18	C12H11O+
173.0602	6	C11H9O2+
173.096	20	C12H13O+
173.1327	8	C13H17+
174.0554	8	C10H8NO2+
178.0496	14	C9H8NO3+
179.0856	8	C14H11+
183.0805	8	C13H11O+
185.1326	13	C14H17+
187.0757	12	C12H11O2+
187.1115	27	C13H15O+
190.0499	28	C10H8NO3+
194.1088	6	C15H14+
195.0807	11	C14H11O+
197.0598	24	C13H9O2+
197.0961	15	C14H13O+
197.1323	8	C15H17+
202.05	210	C11H8NO3+
211.1476	5	C16H19+
215.0701	12	C13H11O3+
218.0444	8	C11H8NO4+
219.0515	5	C11H9NO4+
222.1035	7	C16H14O+
237.1276	12	C17H17O+
240.0652	10	C14H10NO3+
255.1392	11	C17H19O2+
265.1221	35	C18H17O2+
283.1333	17	C18H19O3+
