Mass spectrum: Edetic acid (EDTA); LC-ESI-QFT; MS2; CE: 15%; R=15000; [M-H]-
Name: Edetic acid (EDTA)
Name: Edetic acid
Name: 2-[2-[bis(carboxymethyl)amino]ethyl-(carboxymethyl)amino]acetic acid
Formula: C10H16N2O8
Exact mass: 292.0907
SMILES: C(CN(CC(=O)O)CC(=O)O)N(CC(=O)O)CC(=O)O
InChI: InChI=1S/C10H16N2O8/c13-7(14)3-11(4-8(15)16)1-2-12(5-9(17)18)6-10(19)20/h1-6H2,(H,13,14)(H,15,16)(H,17,18)(H,19,20)
Instrument: Orbitrap Exploris 240 Thermo Scientific
Instrument type: LC-ESI-QFT
Ms type: MS2
Ion mode: NEGATIVE
Ionization: ESI
Fragmentation mode: HCD
Collision energy: 15 % (nominal)
Resolution: 15000
Column name: Atlantis C18 3um, 3.0x150mm, Waters
Retention time: 4.243 min
Base peak: 291.0834
Precursor m/z: 291.0834
Precursor type: [M-H]-
Precursor intensity: 339100352
m/z	relative intensity	assigned
88.0403	4	C3H6NO2-
157.0981	2	C7H13N2O2-
159.1138	20	C7H15N2O2-
187.0728	3	C7H11N2O4-
201.0882	7	C8H13N2O4-
203.1041	11	C8H15N2O4-
229.0829	5	C9H13N2O5-
247.0934	24	C9H15N2O6-
273.0729	92	C10H13N2O7-
291.0835	999	C10H15N2O8-
