Mass spectrum: 1-Hydroxybenzotriazole; LC-ESI-QFT; MS2; CE: 15; R=35000; [M+H]+
Name: 1-Hydroxybenzotriazole
Formula: C6H5N3O
Exact mass: 135.04326
SMILES: C1=CC=C2C(=C1)N=NN2O
InChI: InChI=1S/C6H5N3O/c10-9-6-4-2-1-3-5(6)7-8-9/h1-4,10H
Instrument: Q Exactive Plus Orbitrap Thermo Scientific
Instrument type: LC-ESI-QFT
Ms type: MS2
Ion mode: POSITIVE
Ionization: ESI
Fragmentation mode: HCD
Collision energy: 15 (nominal)
Resolution: 35000
Column name: XBridge C18 3.5um, 2.1x50mm, Waters
Retention time: 3.0 min
Base peak: 136.0506
Precursor m/z: 136.0505
Precursor type: [M+H]+
m/z	relative intensity	assigned
52.0181	1	C3H2N+
53.0386	9	C4H5+
78.0464	5	C6H6+
80.0495	18	C5H6N+
91.0417	56	C6H5N+
108.0445	1	C6H6NO+
119.0479	29	C6H5N3+
136.0506	999	C6H6N3O+
