Mass spectrum: Terbinafine; LC-ESI-QFT; MS2; CE: 75; R=35000; [M+H]+
Name: Terbinafine
Name: Terbinex
Name: N,6,6-trimethyl-N-(naphthalen-1-ylmethyl)hept-2-en-4-yn-1-amine
Formula: C21H25N
Exact mass: 291.19870
SMILES: CC(C)(C)C#CC=CCN(C)CC1=CC=CC2=CC=CC=C21
InChI: InChI=1S/C21H25N/c1-21(2,3)15-8-5-9-16-22(4)17-19-13-10-12-18-11-6-7-14-20(18)19/h5-7,9-14H,16-17H2,1-4H3
Instrument: Q Exactive Plus Orbitrap Thermo Scientific
Instrument type: LC-ESI-QFT
Ms type: MS2
Ion mode: POSITIVE
Ionization: ESI
Fragmentation mode: HCD
Collision energy: 75 (nominal)
Resolution: 35000
Column name: XBridge C18 3.5um, 2.1x50mm, Waters
Retention time: 8.8 min
Base peak: 292.2054
Precursor m/z: 292.206
Precursor type: [M+H]+
m/z	relative intensity	assigned
50.0151	1	C4H2+
51.0229	1	C4H3+
53.0386	10	C4H5+
55.0543	5	C4H7+
65.0386	1	C5H5+
67.0542	1	C5H7+
77.0385	20	C6H5+
79.0542	27	C6H7+
81.0699	2	C6H9+
91.0542	66	C7H7+
93.0699	26	C7H9+
95.0491	32	C6H7O+
103.0542	8	C8H7+
105.0447	21	C6H5N2+
105.0699	8	C8H9+
106.0778	1	C8H10+
115.0542	129	C9H7+
119.0856	3	C9H11+
139.0542	1	C11H7+
141.0698	999	C11H9+
165.0699	1	C13H9+
178.0779	1	C14H10+
190.0776	1	C15H10+
202.0779	1	C16H10+
203.0855	1	C16H11+
