Mass spectrum: Nafcillin; LC-ESI-QFT; MS2; CE: 45; R=35000; [M+H]+
Name: Nafcillin
Name: (2S,5R,6R)-6-[(2-ethoxynaphthalene-1-carbonyl)amino]-3,3-dimethyl-7-oxo-4-thia-1-azabicyclo[3.2.0]heptane-2-carboxylic acid
Formula: C21H22N2O5S
Exact mass: 414.12494
SMILES: CCOC1=C(C(=O)N[C@H]2[C@H]3SC(C)(C)[C@@H](N3C2=O)C(O)=O)C2=CC=CC=C2C=C1
InChI: InChI=1S/C21H22N2O5S/c1-4-28-13-10-9-11-7-5-6-8-12(11)14(13)17(24)22-15-18(25)23-16(20(26)27)21(2,3)29-19(15)23/h5-10,15-16,19H,4H2,1-3H3,(H,22,24)(H,26,27)/t15-,16+,19-/m1/s1
Instrument: Q Exactive Plus Orbitrap Thermo Scientific
Instrument type: LC-ESI-QFT
Ms type: MS2
Ion mode: POSITIVE
Ionization: ESI
Fragmentation mode: HCD
Collision energy: 45 (nominal)
Resolution: 35000
Column name: XBridge C18 3.5um, 2.1x50mm, Waters
Retention time: 9.4 min
Base peak: 415.1318
Precursor m/z: 415.1322
Precursor type: [M+H]+
m/z	relative intensity	assigned
55.0178	2	C3H3O+
87.0263	3	C4H7S+
100.0393	1	C4H6NO2+
102.0007	1	C3H4NOS+
114.0371	5	C5H8NS+
115.0541	12	C9H7+
128.0529	2	C6H10NS+
128.0618	1	C10H8+
129.0699	2	C10H9+
141.0697	2	C11H9+
143.0491	15	C10H7O+
143.0855	7	C11H11+
145.0649	2	C10H9O+
155.0854	1	C12H11+
156.0811	1	C11H10N+
157.0648	16	C11H9O+
160.0426	5	C6H10NO2S+
169.0649	18	C12H9O+
171.044	999	C3H11N2O4S+
181.0647	212	C13H9O+
182.06	53	C12H8NO+
183.0443	2	C12H7O2+
183.0678	13	C12H9NO+
183.0799	2	C13H11O+
183.0914	1	C12H11N2+
184.0757	4	C12H10NO+
199.0753	515	C13H11O2+
209.0704	1	C13H9N2O+
210.0787	22	C13H10N2O+
210.0911	6	C14H12NO+
211.0866	15	C13H11N2O+
211.099	6	C14H13NO+
227.0576	15	C13H9NO3+
228.0655	28	C13H10NO3+
238.0859	2	C15H12NO2+
239.1179	22	C15H15N2O+
255.0761	1	C14H11N2O3+
256.0968	52	C15H14NO3+
283.1079	1	C16H15N2O3+
