Mass spectrum: Chlorfluazuron; LC-ESI-QFT; MS2; CE: 45%; R=17500; [M+H]+
Name: Chlorfluazuron
Name: N-[[3,5-dichloro-4-[3-chloro-5-(trifluoromethyl)pyridin-2-yl]oxyphenyl]carbamoyl]-2,6-difluorobenzamide
Formula: C20H9Cl3F5N3O3
Exact mass: 538.9630
SMILES: C1=CC(=C(C(=C1)F)C(=O)NC(=O)NC2=CC(=C(C(=C2)Cl)OC3=C(C=C(C=N3)C(F)(F)F)Cl)Cl)F
InChI: InChI=1S/C20H9Cl3F5N3O3/c21-10-5-9(30-19(33)31-17(32)15-13(24)2-1-3-14(15)25)6-11(22)16(10)34-18-12(23)4-8(7-29-18)20(26,27)28/h1-7H,(H2,30,31,32,33)
Instrument: Exploris 240 Orbitrap Thermo Scientific
Instrument type: LC-ESI-QFT
Ms type: MS2
Ion mode: POSITIVE
Ionization: ESI
Fragmentation mode: HCD
Collision energy: 45 % (nominal)
Resolution: 17500
Column name: XBridge C18 3.5um, 2.1x50mm, Waters
Retention time: 15.243 min
Base peak: 539.9705
Precursor m/z: 539.9702
Precursor type: [M+H]+
m/z	relative intensity	assigned
140.0308	6	C7H4F2N+
141.0147	349	C7H3F2O+
158.0413	467	C7H6F2NO+
186.9587	190	C7H3Cl2NO+
311.9913	8	C10H7Cl2F3N3O+
327.9617	8	C10H7Cl3F2N3O+
334.9349	7	C12H4Cl3F2N2O+
338.9473	45	C12H3Cl2F4NO2+
346.96	288	C10H7Cl3F3N3O+
362.9299	31	C13H4Cl3F2N2O2+
382.9367	999	C13H5Cl3F3N2O2+
