Mass spectrum: Rosuvastatin; LC-ESI-ITFT; MS2; CE: 60%; R=15000; [M+H]+
Name: Rosuvastatin
Name: (E,3R,5S)-7-[4-(4-fluorophenyl)-2-[methyl(methylsulfonyl)amino]-6-propan-2-ylpyrimidin-5-yl]-3,5-dihydroxyhept-6-enoic acid
Formula: C22H28FN3O6S
Exact mass: 481.16828
SMILES: CC(C)C1=NC(=NC(=C1/C=C/[C@H](C[C@H](CC(=O)O)O)O)C2=CC=C(C=C2)F)N(C)S(=O)(=O)C
InChI: InChI=1S/C22H28FN3O6S/c1-13(2)20-18(10-9-16(27)11-17(28)12-19(29)30)21(14-5-7-15(23)8-6-14)25-22(24-20)26(3)33(4,31)32/h5-10,13,16-17,27-28H,11-12H2,1-4H3,(H,29,30)/b10-9+/t16-,17-/m1/s1
Instrument: LTQ Orbitrap XL Thermo Scientific
Instrument type: LC-ESI-ITFT
Ms type: MS2
Ion mode: POSITIVE
Ionization: ESI
Fragmentation mode: HCD
Collision energy: 60 % (nominal)
Resolution: 15000
Column name: XBridge C18 3.5um, 2.1x50mm, Waters
Retention time: 9.2 min
Base peak: 482.1762
Precursor m/z: 482.1756
Precursor type: [M+H]+
m/z	relative intensity	assigned
133.0449	179	C9H6F+
148.0564	39	C9H7FN+
149.1071	56	C9H13N2+
174.0717	54	C11H9FN+
189.0822	314	C11H10FN2+
200.0869	22	C10H16O2S+
201.0818	73	C9H15NO2S+
202.1031	44	C13H13FN+
203.0979	74	C12H12FN2+
214.1024	27	C14H13FN+
215.1099	45	C6H18FN3O2S+
216.0934	80	C17H12+
216.1173	37	C6H19FN3O2S+
217.101	119	C12H12FN3+
227.0976	31	C11H17NO2S+
228.0929	37	C10H16N2O2S+
230.1086	139	C10H18N2O2S+
242.1088	153	C14H13FN3+
243.1165	122	C14H14FN3+
244.1128	65	C12H20O3S+
244.1251	54	C8H21FN2O3S+
254.1081	69	C12H18N2O2S+
255.1164	111	C9H20FN2O3S+
256.1244	357	C15H15FN3+
257.1323	135	C15H16FN3+
258.1399	999	C15H17FN3+
268.1241	67	C13H20N2O2S+
270.1401	443	C16H17FN3+
272.1557	395	C16H19FN3+
282.1401	195	C14H22N2O2S+
300.1506	536	C17H19FN3O+
314.1659	37	C15H26N2O3S+
