Mass spectrum: Ethiprole; LC-ESI-QFT; MS2; CE: 75%; R=17500; [M-H]-
Name: Ethiprole
Name: 5-amino-1-[2,6-dichloro-4-(trifluoromethyl)phenyl]-4-ethylsulfinylpyrazole-3-carbonitrile
Formula: C13H9Cl2F3N4OS
Exact mass: 395.9826
SMILES: CCS(=O)C1=C(N(N=C1C#N)C2=C(C=C(C=C2Cl)C(F)(F)F)Cl)N
InChI: InChI=1S/C13H9Cl2F3N4OS/c1-2-24(23)11-9(5-19)21-22(12(11)20)10-7(14)3-6(4-8(10)15)13(16,17)18/h3-4H,2,20H2,1H3
Instrument: Exploris 240 Orbitrap Thermo Scientific
Instrument type: LC-ESI-QFT
Ms type: MS2
Ion mode: NEGATIVE
Ionization: ESI
Fragmentation mode: HCD
Collision energy: 75 % (nominal)
Resolution: 17500
Column name: XBridge C18 3.5um, 2.1x50mm, Waters
Retention time: 8.805 min
Base peak: 394.9752
Precursor m/z: 394.9753
Precursor type: [M-H]-
m/z	relative intensity	assigned
50.0037	35	C3N-
57.9757	344	CNS-
76.0067	12	C4N2-
77.0147	36	C4HN2-
113.0143	155	C7HN2-
143.0053	124	C2H8ClN2OS-
163.0114	459	C8HF2N2-
182.0099	156	C8HF3N2-
183.0176	999	C8H2F3N2-
203.9775	14	C3H8Cl2N3OS-
212.9501	25	C7HCl2N3O-
216.9785	22	C8HClF3N2-
217.9866	105	C8H2ClF3N2-
218.0108	20	C11HF3N2-
218.994	20	C8H3ClF3N2-
223.9833	27	C9HClF2N3-
233.9801	10	C11HClF2N2-
243.9892	125	C9H2ClF3N3-
246.9894	24	C9H3ClF3N2O-
249.9586	238	C8H2ClF3N2S-
261.9584	227	C9H2ClF3N2S-
267.9895	218	C11H2ClF3N3-
271.9851	40	C12H6Cl2F2N-
287.9617	15	C10H2ClF3N3S-
