Mass spectrum: Uniconazole; LC-ESI-QFT; MS2; CE: 180; R=35000; [M+H]+
Name: Uniconazole
Name: 1-(4-chlorophenyl)-4,4-dimethyl-2-(1,2,4-triazol-1-yl)pent-1-en-3-ol
Formula: C15H18ClN3O
Exact mass: 291.11384
SMILES: CC(C)(C)C(C(=CC1=CC=C(C=C1)Cl)N2C=NC=N2)O
InChI: InChI=1S/C15H18ClN3O/c1-15(2,3)14(20)13(19-10-17-9-18-19)8-11-4-6-12(16)7-5-11/h4-10,14,20H,1-3H3
Instrument: Q Exactive Plus Orbitrap Thermo Scientific
Instrument type: LC-ESI-QFT
Ms type: MS2
Ion mode: POSITIVE
Ionization: ESI
Fragmentation mode: HCD
Collision energy: 180 (nominal)
Resolution: 35000
Column name: XBridge C18 3.5um, 2.1x50mm, Waters
Retention time: 11.8 min
Base peak: 292.1207
Precursor m/z: 292.1211
Precursor type: [M+H]+
m/z	relative intensity	assigned
50.0151	24	C4H2+
51.023	48	C4H3+
53.0022	14	C3HO+
53.0386	16	C4H5+
53.9975	1	C2NO+
61.0072	1	C5H+
62.0151	17	C5H2+
63.0229	96	C5H3+
64.0308	5	C5H4+
65.0386	26	C5H5+
67.9892	1	C3O2+
70.04	999	C2H4N3+
72.9839	57	C3H2Cl+
74.0151	54	C6H2+
75.0229	128	C6H3+
76.0307	18	C6H4+
77.0385	30	C6H5+
78.0464	14	C6H6+
81.0336	2	C5H5O+
84.984	9	C4H2Cl+
87.0229	3	C7H3+
88.0307	6	C7H4+
89.0386	146	C7H5+
90.0465	22	C7H6+
91.0543	15	C7H7+
95.0492	39	C6H7O+
96.984	2	C5H2Cl+
98.9996	39	C5H4Cl+
101.0387	3	C8H5+
102.0464	40	C8H6+
103.0542	10	C8H7+
105.0447	27	C6H5N2+
113.0385	9	C9H5+
114.0465	5	C9H6+
115.0542	112	C9H7+
117.0574	1	C8H7N+
119.0492	1	C8H7O+
125.0154	11	C7H6Cl+
126.0464	13	C10H6+
127.0542	14	C10H7+
128.0621	55	C10H8+
129.0104	1	C6H6ClO+
129.0446	7	C8H5N2+
129.0699	3	C10H9+
131.0492	3	C9H7O+
132.0571	2	C9H8O+
139.0058	1	C6H4ClN2+
139.0543	18	C11H7+
141.0699	4	C11H9+
145.065	4	C10H9O+
149.0157	4	C9H6Cl+
152.0621	26	C12H8+
153.07	8	C12H9+
155.0604	15	C10H7N2+
