Mass spectrum: N-Ethylperfluoroctansulfonamid (N-EtFOSA); LC-ESI-ITFT; MS2; CE: 30%; R=7500; [M-H]-
Name: N-Ethylperfluoroctansulfonamid (N-EtFOSA)
Name: 1-Octanesulfonamide, N-ethyl-1,1,2,2,3,3,4,4,5,5,6,6,7,7,8,8,8-heptadecafluoro-
Name: N-ethyl-1,1,2,2,3,3,4,4,5,5,6,6,7,7,8,8,8-heptadecafluoro-1-octanesulfonamide
Formula: C10H6F17NO2S
Exact mass: 526.9848
SMILES: FC(F)(C(F)(F)C(F)(F)C(F)(F)C(F)(F)C(F)(F)C(F)(F)C(F)(F)F)S(=O)(=O)NCC
InChI: InChI=1S/C10H6F17NO2S/c1-2-28-31(29,30)10(26,27)8(21,22)6(17,18)4(13,14)3(11,12)5(15,16)7(19,20)9(23,24)25/h28H,2H2,1H3
Instrument: LTQ Orbitrap XL Thermo Scientific
Instrument type: LC-ESI-ITFT
Ms type: MS2
Ion mode: NEGATIVE
Ionization: ESI
Fragmentation mode: HCD
Collision energy: 30 % (nominal)
Resolution: 7500
Column name: XBridge C18 3.5um, 2.1x50mm, Waters
Retention time: 17.1 min
Base peak: 525.9796
Precursor m/z: 525.9775
Precursor type: [M-H]-
m/z	relative intensity	assigned
218.9865	999	C4F9-
