Mass spectrum: Diethyl-phthalate; LC-ESI-QFT; MS2; CE: 15; R=35000; [M-H]-
Name: Diethyl-phthalate
Name: Diethyl phthalate
Name: Diethyl benzene-1,2-dicarboxylate
Formula: C12H14O4
Exact mass: 222.08921
SMILES: CCOC(=O)C1=CC=CC=C1C(=O)OCC
InChI: InChI=1S/C12H14O4/c1-3-15-11(13)9-7-5-6-8-10(9)12(14)16-4-2/h5-8H,3-4H2,1-2H3
Instrument: Q Exactive Plus Orbitrap Thermo Scientific
Instrument type: LC-ESI-QFT
Ms type: MS2
Ion mode: NEGATIVE
Ionization: ESI
Fragmentation mode: HCD
Collision energy: 15 (nominal)
Resolution: 35000
Column name: XBridge C18 3.5um, 2.1x50mm, Waters
Retention time: 8.7 min
Base peak: 112.9857
Precursor m/z: 221.0819
Precursor type: [M-H]-
m/z	relative intensity	assigned
60.9931	2	CHO3-
69.0347	475	C4H5O-
71.0503	751	C4H7O-
73.0661	3	C4H9O-
77.0395	4	C6H5-
93.0346	7	C6H5O-
99.0452	3	C5H7O2-
105.0345	3	C7H5O-
107.0502	32	C7H7O-
121.0296	441	C7H5O2-
134.0374	168	C8H6O2-
135.0452	11	C8H7O2-
147.0089	75	C8H3O3-
147.0815	12	C10H11O-
149.0972	290	C10H13O-
151.0402	2	C8H7O3-
165.0194	24	C8H5O4-
175.0762	19	C11H11O2-
177.0922	442	C11H13O2-
179.0349	9	C9H7O4-
190.999	21	C9H3O5-
193.087	28	C11H13O3-
221.0821	999	C12H13O4-
