Mass spectrum: Oxazepam; LC-ESI-ITFT; MS2; CE: 75%; R=15000; [M+H]+
Name: Oxazepam
Name: 7-chloranyl-3-oxidanyl-5-phenyl-1,3-dihydro-1,4-benzodiazepin-2-one
Formula: C15H11ClN2O2
Exact mass: 286.0509
SMILES: C1=CC=C(C=C1)C2=NC(C(=O)NC3=C2C=C(C=C3)Cl)O
InChI: InChI=1S/C15H11ClN2O2/c16-10-6-7-12-11(8-10)13(9-4-2-1-3-5-9)18-15(20)14(19)17-12/h1-8,15,20H,(H,17,19)
Instrument: LTQ Orbitrap XL Thermo Scientific
Instrument type: LC-ESI-ITFT
Ms type: MS2
Ion mode: POSITIVE
Ionization: ESI
Fragmentation mode: HCD
Collision energy: 75 % (nominal)
Resolution: 15000
Column name: XBridge C18 3.5um, 2.1x50mm, Waters
Retention time: 9.0 min
Base peak: 287.059
Precursor m/z: 287.0582
Precursor type: [M+H]+
m/z	relative intensity	assigned
77.0386	19	C6H5+
93.0573	142	C6H7N+
104.0495	820	C7H6N+
105.0448	10	C6H5N2+
118.0525	46	C7H6N2+
126.0105	25	C6H5ClN+
128.0262	188	C6H7ClN+
138.0105	82	C7H5ClN+
139.0056	27	C6H4ClN2+
145.0509	10	C7H5N4+
152.0136	6	C7H5ClN2+
153.0214	202	C7H6ClN2+
163.0058	320	C8H4ClN2+
164.0009	14	C10N2O+
166.0056	25	C8H5ClNO+
178.0652	10	C13H8N+
179.073	12	C13H9N+
195.0916	50	C13H11N2+
205.0759	27	C14H9N2+
206.0834	13	C14H10N2+
207.0679	24	C14H9NO+
214.0418	40	C13H9ClN+
229.0528	74	C13H10ClN2+
231.0683	93	C13H12ClN2+
241.0527	999	C14H10ClN2+
257.0476	45	C14H10ClN2O+
