Mass spectrum: Benzisothiazolone (BIT); LC-ESI-ITFT; MS2; CE: 90%; R=7500; [M+H]+
Name: Benzisothiazolone (BIT)
Name: 1,2-Benzisothiazol-3(2H)-one
Name: 1,2-benzothiazol-3-one
Formula: C7H5NOS
Exact mass: 151.0092
SMILES: c12c(cccc2)s[nH]c1=O
InChI: InChI=1S/C7H5NOS/c9-7-5-3-1-2-4-6(5)10-8-7/h1-4H,(H,8,9)
Instrument: LTQ Orbitrap XL Thermo Scientific
Instrument type: LC-ESI-ITFT
Ms type: MS2
Ion mode: POSITIVE
Ionization: ESI
Fragmentation mode: HCD
Collision energy: 90 % (nominal)
Resolution: 7500
Column name: XBridge C18 3.5um, 2.1x50mm, Waters
Retention time: 5.1 min
Base peak: 152.0163
Precursor m/z: 152.0165
Precursor type: [M+H]+
m/z	relative intensity	assigned
53.0386	7	C4H5+
63.023	12	C5H3+
65.0386	12	C5H5+
68.9792	3	C3HS+
77.0387	28	C6H5+
80.0495	127	C5H6N+
81.0337	3	C5H5O+
90.0339	94	C6H4N+
92.9797	2	C5HS+
97.0108	18	C5H5S+
105.0335	482	C7H5O+
106.9951	28	C6H3S+
108.0029	6	C6H4S+
109.0107	641	C6H5S+
119.037	3	C7H5NO+
124.0217	19	C6H6NS+
132.9981	7	C7H3NS+
134.0059	780	C7H4NS+
135.0016	5	C6H3N2S+
135.9979	20	C7H4OS+
152.0165	999	C7H6NOS+
