Mass spectrum: Fludrocortisone; LC-ESI-QFT; MS2; CE: 45; R=35000; [M+H]+
Name: Fludrocortisone
Name: [2-[(8S,9R,10S,11S,13S,14S,17R)-9-fluoro-11,17-dihydroxy-10,13-dimethyl-3-oxo-1,2,6,7,8,11,12,14,15,16-decahydrocyclopenta[a]phenanthren-17-yl]-2-oxoethyl] acetate
Formula: C23H31FO6
Exact mass: 422.21047
SMILES: O=C(OCC(=O)[C@]3(O)[C@]2(C[C@H](O)[C@]4(F)[C@@]1(/C(=C\C(=O)CC1)CC[C@H]4[C@@H]2CC3)C)C)C
InChI: InChI=1S/C23H31FO6/c1-13(25)30-12-19(28)22(29)9-7-16-17-5-4-14-10-15(26)6-8-20(14,2)23(17,24)18(27)11-21(16,22)3/h10,16-18,27,29H,4-9,11-12H2,1-3H3/t16-,17-,18-,20-,21-,22-,23-/m0/s1
Instrument: Q Exactive Orbitrap Thermo Scientific
Instrument type: LC-ESI-QFT
Ms type: MS2
Ion mode: POSITIVE
Ionization: ESI
Fragmentation mode: HCD
Collision energy: 45 (nominal)
Resolution: 35000
Column name: XBridge C18 3.5um, 2.1x50mm, Waters
Retention time: 9.4 min
Base peak: 423.2179
Precursor m/z: 423.2177
Precursor type: [M+H]+
m/z	relative intensity	assigned
61.0285	123	C2H5O2+
67.0542	45	C5H7+
69.0336	52	C4H5O+
69.07	34	C5H9+
71.0492	29	C4H7O+
79.0542	67	C6H7+
81.0335	13	C5H5O+
81.07	106	C6H9+
83.0492	149	C5H7O+
85.0649	11	C5H9O+
91.0543	86	C7H7+
93.0699	192	C7H9+
95.0492	67	C6H7O+
95.0855	108	C7H11+
97.0649	327	C6H9O+
99.0441	59	C5H7O2+
101.0234	209	C4H5O3+
101.0398	131	C5H6FO+
103.0392	14	C4H7O3+
103.0542	9	C8H7+
105.0699	267	C8H9+
107.0491	35	C7H7O+
107.0856	138	C8H11+
109.0649	88	C7H9O+
109.1013	14	C8H13+
111.0441	14	C6H7O2+
111.0805	37	C7H11O+
115.0391	31	C5H7O3+
115.0541	7	C9H7+
117.0699	70	C9H9+
119.0493	25	C8H7O+
119.0856	270	C9H11+
121.0649	519	C8H9O+
121.1012	44	C9H13+
123.0605	27	C8H8F+
123.0805	278	C8H11O+
125.0597	42	C7H9O2+
125.096	7	C8H13O+
128.0622	27	C10H8+
129.0699	70	C10H9+
131.0856	242	C10H11+
133.0649	88	C9H9O+
133.1013	155	C10H13+
135.0805	274	C9H11O+
135.1169	14	C10H15+
137.0597	28	C8H9O2+
137.0762	15	C9H10F+
137.096	91	C9H13O+
139.0754	53	C8H11O2+
141.0699	37	C11H9+
142.0777	34	C11H10+
143.0857	476	C11H11+
145.0649	60	C10H9O+
145.1013	271	C11H13+
146.0729	6	C10H10O+
147.0805	314	C10H11O+
147.1168	28	C11H15+
149.0602	7	C9H9O2+
149.0964	104	C10H13O+
151.0755	34	C9H11O2+
153.0702	11	C12H9+
153.0909	35	C9H13O2+
155.0855	191	C12H11+
156.0935	10	C12H12+
157.0649	32	C11H9O+
157.1013	330	C12H13+
158.0725	7	C11H10O+
159.0805	245	C11H11O+
159.1167	134	C12H15+
161.0961	451	C11H13O+
162.1036	14	C11H14O+
163.0755	82	C10H11O2+
163.0916	31	C11H12F+
163.1117	326	C11H15O+
165.07	27	C13H9+
165.0911	13	C10H13O2+
165.1073	39	C11H14F+
166.0782	13	C13H10+
167.0858	71	C13H11+
168.0938	8	C13H12+
169.1011	254	C13H13+
170.1095	8	C13H14+
171.0803	132	C12H11O+
171.1168	130	C13H15+
173.0961	251	C12H13O+
173.1324	26	C13H17+
175.0753	9	C11H11O2+
175.0918	12	C12H12F+
175.1117	141	C12H15O+
177.091	27	C11H13O2+
179.0856	43	C14H11+
180.0933	13	C14H12+
181.102	809	C11H14FO+
182.1092	40	C14H14+
183.0806	57	C13H11O+
183.117	294	C14H15+
185.0962	219	C13H13O+
185.1326	132	C14H17+
187.0752	16	C12H11O2+
187.1119	128	C13H15O+
189.0911	317	C12H13O2+
189.1275	45	C13H17O+
191.0863	8	C15H11+
191.1068	37	C12H15O2+
193.1013	114	C15H13+
194.1089	14	C15H14+
195.1167	301	C15H15+
196.1244	31	C15H16+
197.0961	107	C14H13O+
197.1323	444	C15H17+
198.104	14	C14H14O+
199.1118	184	C14H15O+
199.1479	91	C15H19+
201.0915	60	C13H13O2+
201.1272	82	C14H17O+
203.0863	11	C16H11+
203.1065	83	C13H15O2+
205.0865	16	C12H13O3+
205.1015	68	C16H13+
205.1225	11	C13H17O2+
206.1089	86	C16H14+
207.1016	32	C12H15O3+
207.117	177	C16H15+
208.1246	35	C16H16+
209.0961	53	C15H13O+
209.1326	184	C16H17+
210.1041	9	C15H14O+
211.1119	225	C15H15O+
211.1482	133	C16H19+
213.1276	224	C15H17O+
213.1637	15	C16H21+
215.086	7	C17H11+
215.1072	24	C14H15O2+
215.1429	50	C15H19O+
217.1017	13	C17H13+
217.1226	26	C14H17O2+
218.1094	9	C17H14+
219.1013	7	C13H15O3+
219.1168	96	C17H15+
220.1249	9	C17H16+
221.0963	28	C16H13O+
221.1326	331	C17H17+
222.1409	18	C17H18+
223.1118	158	C16H15O+
223.1482	217	C17H19+
224.1197	52	C16H16O+
225.1273	156	C16H17O+
225.1638	107	C17H21+
226.135	8	C16H18O+
227.1066	13	C15H15O2+
227.1428	95	C16H19O+
229.1219	60	C15H17O2+
229.1589	26	C16H21O+
231.1383	8	C15H19O2+
232.1245	41	C18H16+
233.1325	56	C18H17+
234.1042	7	C17H14O+
235.1118	28	C17H15O+
235.1479	71	C18H19+
237.1274	160	C17H17O+
237.1637	125	C18H21+
238.1732	8	C15H23FO+
239.143	999	C17H19O+
241.1224	105	C16H17O2+
241.1585	206	C17H21O+
242.1664	9	C17H22O+
243.1381	79	C16H19O2+
245.1325	67	C19H17+
245.153	8	C16H21O2+
246.1404	33	C19H18+
247.1481	228	C19H19+
248.1556	8	C19H20+
249.1274	71	C18H17O+
249.1634	57	C19H21+
250.1349	14	C18H18O+
251.107	7	C17H15O2+
251.143	121	C18H19O+
251.1797	12	C19H23+
252.1505	24	C18H20O+
253.1591	83	C18H21O+
255.1378	83	C17H19O2+
255.1744	63	C18H23O+
256.1245	7	C20H16+
256.1823	16	C18H24O+
257.1536	190	C17H21O2+
258.1615	66	C17H22O2+
259.1128	9	C19H15O+
259.1489	46	C17H20FO+
261.1277	9	C19H17O+
261.1503	16	C13H22FO4+
261.1642	85	C20H21+
263.1431	60	C19H19O+
264.1506	32	C19H20O+
265.1587	412	C19H21O+
266.1667	102	C19H22O+
267.1375	60	C18H19O2+
267.1743	198	C19H23O+
269.1538	94	C18H21O2+
269.1903	8	C19H25O+
270.1612	9	C18H22O2+
271.1489	13	C21H19+
274.1356	12	C20H18O+
277.1587	31	C20H21O+
279.1385	45	C19H19O2+
279.1746	161	C20H23O+
281.1539	45	C19H21O2+
282.1614	10	C19H22O2+
283.1693	207	C19H23O2+
284.1769	220	C19H24O2+
285.1483	35	C18H21O3+
285.1641	9	C19H22FO+
285.1846	71	C19H25O2+
289.1589	102	C21H21O+
292.1457	12	C20H20O2+
294.161	14	C20H22O2+
295.1692	89	C20H23O2+
297.1852	60	C20H25O2+
299.1644	119	C19H23O3+
299.1805	12	C20H24FO+
303.1752	9	C19H24FO2+
307.1692	205	C21H23O2+
310.1565	28	C20H22O3+
313.1803	48	C20H25O3+
315.1761	11	C20H24FO2+
325.1799	292	C21H25O3+
327.1751	9	C21H24FO2+
341.1757	14	C18H26FO5+
343.1907	207	C21H27O4+
345.1869	7	C21H26FO3+
361.2009	10	C21H29O5+
367.1902	14	C23H27O4+
385.2008	9	C23H29O5+
423.2188	65	C23H32FO6+
