Mass spectrum: Fenoxycarb; LC-ESI-ITFT; MS2; CE: 60%; R=7500; [M+H]+
Name: Fenoxycarb
Name: N-[2-(4-phenoxyphenoxy)ethyl]carbamic acid ethyl ester
Formula: C17H19NO4
Exact mass: 301.1314
SMILES: O=C(OCC)NCCOc2ccc(Oc1ccccc1)cc2
InChI: InChI=1S/C17H19NO4/c1-2-20-17(19)18-12-13-21-14-8-10-16(11-9-14)22-15-6-4-3-5-7-15/h3-11H,2,12-13H2,1H3,(H,18,19)
Instrument: LTQ Orbitrap XL Thermo Scientific
Instrument type: LC-ESI-ITFT
Ms type: MS2
Ion mode: POSITIVE
Ionization: ESI
Fragmentation mode: HCD
Collision energy: 60 % (nominal)
Resolution: 7500
Column name: XBridge C18 3.5um, 2.1x50mm, Waters
Retention time: 12.6 min
Base peak: 302.1394
Precursor m/z: 302.1387
Precursor type: [M+H]+
m/z	relative intensity	assigned
66.0465	8	C5H6+
70.0288	24	C3H4NO+
72.0808	1	C4H10N+
77.0386	2	C6H5+
79.0542	2	C6H7+
88.0393	999	C3H6NO2+
91.0544	4	C7H7+
94.0413	15	C6H6O+
107.0492	5	C7H7O+
115.0539	1	C9H7+
116.0706	25	C5H10NO2+
118.0414	7	C8H6O+
119.0489	2	C8H7O+
120.0571	16	C8H8O+
129.07	11	C10H9+
134.036	3	C8H6O2+
141.0699	11	C11H9+
157.0647	4	C11H9O+
163.063	5	C9H9NO2+
165.0702	3	C13H9+
167.0857	3	C13H11+
169.0646	6	C12H9O+
170.073	1	C12H10O+
183.0804	5	C13H11O+
185.06	12	C12H9O2+
185.0968	1	C13H13O+
186.0676	20	C12H10O2+
187.0757	2	C12H11O2+
195.0807	3	C14H11O+
211.0745	2	C14H11O2+
213.0547	22	C13H9O3+
213.091	1	C14H13O2+
238.0854	1	C15H12NO2+
