Mass spectrum: Doxycycline; LC-ESI-QFT; MS2; CE: 90; R=35000; [M+H]+
Name: Doxycycline
Name: 8-carbamoyl-10-(dimethylazaniumyl)-4,6a,7,11-tetrahydroxy-12-methyl-6,9-dioxo-10a,11,11a,12-tetrahydro-10H-tetracen-5-olate
Formula: C22H24N2O8
Exact mass: 444.15327
SMILES: CC1C2C(C3C(C(=O)C(=C(C3(C(=O)C2=C(C4=C1C=CC=C4O)O)O)O)C(=O)N)N(C)C)O
InChI: InChI=1S/C22H24N2O8/c1-7-8-5-4-6-9(25)11(8)16(26)12-10(7)17(27)14-15(24(2)3)18(28)13(21(23)31)20(30)22(14,32)19(12)29/h4-7,10,14-15,17,25-27,30,32H,1-3H3,(H2,23,31)
Instrument: Q Exactive Plus Orbitrap Thermo Scientific
Instrument type: LC-ESI-QFT
Ms type: MS2
Ion mode: POSITIVE
Ionization: ESI
Fragmentation mode: HCD
Collision energy: 90 (nominal)
Resolution: 35000
Column name: XBridge C18 3.5um, 2.1x50mm, Waters
Retention time: 6.4 min
Base peak: 445.1595
Precursor m/z: 445.1605
Precursor type: [M+H]+
m/z	relative intensity	assigned
50.0151	4	C4H2+
51.0229	13	C4H3+
53.0022	25	C3HO+
53.0386	51	C4H5+
54.0338	10	C3H4N+
55.0178	219	C3H3O+
55.0417	22	C3H5N+
56.0495	101	C3H6N+
57.0335	6	C3H5O+
57.0573	13	C3H7N+
58.0651	663	C3H8N+
63.0228	9	C5H3+
65.0386	71	C5H5+
67.0178	41	C4H3O+
67.0417	11	C4H5N+
67.0542	10	C5H7+
68.0495	76	C4H6N+
68.9971	207	C3HO2+
69.0335	39	C4H5O+
70.0651	372	C4H8N+
71.0127	6	C3H3O2+
71.0365	20	C3H5NO+
71.0729	6	C4H9N+
72.0444	103	C3H6NO+
72.0807	34	C4H10N+
74.06	6	C3H8NO+
77.0385	21	C6H5+
79.0178	63	C5H3O+
79.0542	24	C6H7+
80.0494	38	C5H6N+
81.0335	84	C5H5O+
81.0573	16	C5H7N+
82.0651	77	C5H8N+
83.0127	121	C4H3O2+
83.0365	23	C4H5NO+
84.0444	68	C4H6NO+
84.0808	52	C5H10N+
85.0285	5	C4H5O2+
86.06	26	C4H8NO+
89.0385	15	C7H5+
91.0542	253	C7H7+
92.0496	2	C6H6N+
93.0336	17	C6H5O+
93.0573	4	C6H7N+
93.07	15	C7H9+
94.0413	3	C6H6O+
94.0651	41	C6H8N+
95.0127	90	C5H3O2+
95.0492	49	C6H7O+
96.0444	16	C5H6NO+
96.0808	11	C6H10N+
97.0284	27	C5H5O2+
97.0522	5	C5H7NO+
98.06	959	C5H8NO+
99.0076	5	C4H3O3+
100.0756	23	C5H10NO+
102.0463	6	C8H6+
103.0542	117	C8H7+
105.0335	28	C7H5O+
105.0447	29	C6H5N2+
105.0698	33	C8H9+
106.0651	15	C7H8N+
107.0127	45	C6H3O2+
107.0491	64	C7H7O+
108.0442	21	C6H6NO+
108.0807	12	C7H10N+
109.0284	58	C6H5O2+
110.06	15	C6H8NO+
111.0077	47	C5H3O3+
111.044	10	C6H7O2+
112.0755	5	C6H10NO+
114.0464	4	C9H6+
115.0542	457	C9H7+
116.062	48	C9H8+
117.0698	297	C9H9+
118.0651	12	C8H8N+
119.0128	24	C7H3O2+
119.049	48	C8H7O+
119.0856	38	C9H11+
121.0284	80	C7H5O2+
121.0398	11	C6H5N2O+
121.0648	33	C8H9O+
122.0601	15	C7H8NO+
123.0077	25	C6H3O3+
123.0439	11	C7H7O2+
124.0156	6	C6H4O3+
124.0394	33	C6H6NO2+
124.0759	6	C7H10NO+
125.0233	19	C6H5O3+
125.0472	3	C6H7NO2+
126.0464	13	C10H6+
126.0549	20	C6H8NO2+
127.0542	395	C10H7+
128.062	229	C10H8+
129.0698	222	C10H9+
131.0491	118	C9H7O+
131.0855	61	C10H11+
132.057	36	C9H8O+
133.0284	15	C8H5O2+
133.0646	20	C9H9O+
134.06	12	C8H8NO+
135.0076	18	C7H3O3+
135.044	5	C8H7O2+
136.0758	5	C8H10NO+
137.0233	62	C7H5O3+
138.0551	3	C7H8NO2+
139.0265	5	C6H5NO3+
139.039	6	C7H7O3+
139.0542	41	C11H7+
140.062	80	C11H8+
141.0699	186	C11H9+
142.0777	36	C11H10+
143.0492	15	C10H7O+
143.0856	71	C11H11+
144.057	190	C10H8O+
145.0648	959	C10H9O+
147.0074	10	C8H3O3+
147.0439	31	C9H7O2+
147.0804	87	C10H11O+
148.0517	3	C9H8O2+
149.0233	18	C8H5O3+
149.0599	4	C9H9O2+
150.055	4	C8H8NO2+
151.0391	6	C8H7O3+
151.054	19	C12H7+
152.062	381	C12H8+
153.0183	17	C7H5O4+
153.0699	217	C12H9+
154.0494	3	C7H8NO3+
154.0777	42	C12H10+
155.0498	71	C11H7O+
155.0603	424	C10H7N2+
155.0855	135	C12H11+
156.057	54	C11H8O+
157.0648	199	C11H9O+
157.1013	15	C12H13+
158.0727	25	C11H10O+
159.0439	15	C10H7O2+
159.0805	126	C11H11O+
160.0519	173	C10H8O2+
161.0233	16	C9H5O3+
161.0598	14	C10H9O2+
162.0552	3	C9H8NO2+
163.039	14	C9H7O3+
163.0541	13	C13H7+
164.062	35	C13H8+
165.0183	60	C8H5O4+
165.0699	748	C13H9+
166.0498	16	C8H8NO3+
166.0777	119	C13H10+
167.0855	196	C13H11+
168.057	999	C12H8O+
169.0649	141	C12H9O+
169.0757	37	C11H9N2+
170.0726	87	C12H10O+
171.0439	16	C11H7O2+
171.0804	172	C12H11O+
172.0518	47	C11H8O2+
173.0234	12	C10H5O3+
173.0597	112	C11H9O2+
174.0676	76	C11H10O2+
175.0755	53	C11H11O2+
176.0621	130	C14H8+
177.0699	152	C14H9+
178.0777	244	C14H10+
179.0602	17	C12H7N2+
179.0855	143	C14H11+
180.057	146	C13H8O+
181.0648	248	C13H9O+
182.0726	151	C13H10O+
183.0554	25	C11H7N2O+
183.0804	152	C13H11O+
184.0518	100	C12H8O2+
185.0596	42	C12H9O2+
185.071	10	C11H9N2O+
185.0961	40	C13H13O+
186.0311	15	C11H6O3+
186.0676	24	C12H10O2+
187.0391	31	C11H7O3+
187.0754	154	C12H11O2+
188.0625	4	C15H8+
189.0698	159	C15H9+
190.0776	72	C15H10+
191.0339	5	C10H7O4+
191.0854	80	C15H11+
192.057	60	C14H8O+
193.0649	108	C14H9O+
193.0759	15	C13H9N2+
194.0727	168	C14H10O+
195.0805	313	C14H11O+
196.0519	522	C13H8O2+
197.0598	216	C13H9O2+
197.0959	14	C14H13O+
198.0675	236	C13H10O2+
199.0388	5	C12H7O3+
199.0752	48	C13H11O2+
200.0468	36	C12H8O3+
200.0618	6	C16H8+
201.0546	382	C12H9O3+
202.0775	53	C16H10+
203.0706	2	C12H11O3+
203.0855	12	C16H11+
204.0571	51	C15H8O+
205.0496	11	C11H9O4+
205.0649	102	C15H9O+
206.0728	50	C15H10O+
207.0441	11	C14H7O2+
207.0804	94	C15H11O+
208.0519	66	C14H8O2+
208.0883	6	C15H12O+
209.0597	67	C14H9O2+
209.0961	20	C15H13O+
210.0675	172	C14H10O2+
211.039	126	C13H7O3+
211.0754	429	C14H11O2+
212.0468	43	C13H8O3+
212.0831	14	C14H12O2+
213.0546	48	C13H9O3+
213.091	36	C14H13O2+
214.0621	13	C13H10O3+
217.0647	19	C16H9O+
218.0727	39	C16H10O+
219.0804	93	C16H11O+
220.0519	52	C15H8O2+
221.0598	223	C15H9O2+
222.0676	122	C15H10O2+
223.0389	12	C14H7O3+
223.0754	109	C15H11O2+
224.0468	374	C14H8O3+
225.0548	51	C14H9O3+
225.0908	27	C15H13O2+
226.0625	410	C14H10O3+
227.0703	26	C14H11O3+
229.0648	10	C17H9O+
229.0759	3	C16H9N2+
231.0808	11	C17H11O+
232.0519	19	C16H8O2+
233.0596	31	C16H9O2+
234.0676	63	C16H10O2+
234.0912	12	C16H12NO+
235.0753	63	C16H11O2+
236.0465	39	C15H8O3+
236.0831	4	C16H12O2+
237.0545	45	C15H9O3+
237.0908	23	C16H13O2+
238.0624	97	C15H10O3+
239.0703	101	C15H11O3+
240.0417	12	C14H8O4+
240.0782	6	C15H12O3+
241.0502	10	C14H9O4+
241.0859	55	C15H13O3+
242.0573	58	C14H10O4+
245.0598	11	C17H9O2+
246.0681	4	C17H10O2+
247.0755	54	C17H11O2+
248.0464	16	C16H8O3+
248.0829	3	C17H12O2+
249.0548	54	C16H9O3+
250.0625	165	C16H10O3+
251.0699	43	C16H11O3+
252.0417	343	C15H8O4+
253.0499	5	C15H9O4+
253.0856	11	C16H13O3+
254.0572	16	C15H10O4+
255.0641	10	C15H11O4+
260.0472	5	C17H8O3+
261.0545	11	C17H9O3+
262.0626	16	C17H10O3+
262.0864	4	C17H12NO2+
263.0706	20	C17H11O3+
263.0939	3	C17H13NO2+
264.0408	4	C16H8O4+
264.079	4	C17H12O3+
265.0496	6	C16H9O4+
265.0855	13	C17H13O3+
266.0569	11	C16H10O4+
267.0652	32	C16H11O4+
270.0521	24	C15H10O5+
271.0596	3	C15H11O5+
275.0702	18	C18H11O3+
276.0416	5	C17H8O4+
277.0497	11	C17H9O4+
278.0575	49	C17H10O4+
279.0644	5	C17H11O4+
280.096	3	C17H14NO3+
285.0765	4	C16H13O5+
288.0656	2	C18H10NO3+
291.0653	5	C18H11O4+
292.0978	3	C18H14NO3+
306.0518	6	C18H10O5+
334.0468	5	C19H10O6+
