Mass spectrum: Metoprolol; LC-ESI-ITFT; MS2; CE: 45%; R=15000; [M+H]+
Name: Metoprolol
Name: 1-(isopropylamino)-3-[4-(2-methoxyethyl)phenoxy]propan-2-ol
Formula: C15H25NO3
Exact mass: 267.1834
SMILES: COCCC1=CC=C(OCC(O)CNC(C)C)C=C1
InChI: InChI=1S/C15H25NO3/c1-12(2)16-10-14(17)11-19-15-6-4-13(5-7-15)8-9-18-3/h4-7,12,14,16-17H,8-11H2,1-3H3
Instrument: LTQ Orbitrap XL Thermo Scientific
Instrument type: LC-ESI-ITFT
Ms type: MS2
Ion mode: POSITIVE
Ionization: ESI
Fragmentation mode: HCD
Collision energy: 45 % (nominal)
Resolution: 15000
Column name: XBridge C18 3.5um, 2.1x50mm, Waters
Retention time: 5.1 min
Base peak: 268.1916
Precursor m/z: 268.1907
Precursor type: [M+H]+
m/z	relative intensity	assigned
56.0495	116	C3H6N+
58.0652	40	C3H8N+
72.0808	247	C4H10N+
74.0601	401	C3H8NO+
91.0539	13	C7H7+
98.0965	355	C6H12N+
105.0699	29	C8H9+
107.0853	5	C8H11+
116.1071	611	C6H14NO+
117.0697	8	C9H9+
119.0856	8	C9H11+
121.0648	314	C8H9O+
131.0855	35	C10H11+
133.0649	326	C9H9O+
135.0806	15	C9H11O+
141.0701	5	C11H9+
144.0571	11	C10H8O+
147.0805	41	C10H11O+
148.0758	52	C9H10NO+
151.0749	8	C9H11O2+
159.0805	382	C11H11O+
161.0953	12	C11H13O+
163.0864	12	C9H11N2O+
163.1118	19	C11H15O+
165.0911	77	C10H13O2+
169.0761	8	C11H9N2+
176.107	144	C11H14NO+
177.0911	104	C11H13O2+
179.107	12	C11H15O2+
191.1067	383	C12H15O2+
194.1175	32	C11H16NO2+
218.154	71	C14H20NO+
226.1438	100	C12H20NO3+
250.1802	27	C15H24NO2+
268.1908	999	C15H26NO3+
