Mass spectrum: Ethion; LC-ESI-QFT; MS2; CE: 75%; R=17500; [M+H]+
Name: Ethion
Name: diethoxyphosphinothioylsulfanylmethylsulfanyl-diethoxy-sulfanylidene-lambda5-phosphane
Formula: C9H22O4P2S4
Exact mass: 383.9876
SMILES: CCOP(=S)(OCC)SCSP(=S)(OCC)OCC
InChI: InChI=1S/C9H22O4P2S4/c1-5-10-14(16,11-6-2)18-9-19-15(17,12-7-3)13-8-4/h5-9H2,1-4H3
Instrument: Exploris 240 Orbitrap Thermo Scientific
Instrument type: LC-ESI-QFT
Ms type: MS2
Ion mode: POSITIVE
Ionization: ESI
Fragmentation mode: HCD
Collision energy: 75 % (nominal)
Resolution: 17500
Column name: XBridge C18 3.5um, 2.1x50mm, Waters
Retention time: 13.677 min
Base peak: 384.9948
Precursor m/z: 384.9949
Precursor type: [M+H]+
m/z	relative intensity	assigned
64.9788	19	H2O2P+
78.9404	15	OPS+
96.9508	999	H2O2PS+
110.9661	46	CH4O2PS+
114.9614	342	H4O3PS+
124.9817	14	C2H6O2PS+
126.944	16	CH4OPS2+
128.9231	32	H2O2PS2+
128.9773	16	CH6O3PS+
142.9385	327	CH4O2PS2+
