Mass spectrum: Fipronil; LC-ESI-ITFT; MS2; CE: 45%; R=15000; [M-H]-
Name: Fipronil
Name: 5-amino-1-[2,6-dichloro-4-(trifluoromethyl)phenyl]-4-(trifluoromethylsulfinyl)-3-pyrazolecarbonitrile
Formula: C12H4Cl2F6N4OS
Exact mass: 435.9387
SMILES: C1=C(C=C(C(=C1Cl)N2C(=C(C(=N2)C#N)S(=O)C(F)(F)F)N)Cl)C(F)(F)F
InChI: InChI=1S/C12H4Cl2F6N4OS/c13-5-1-4(11(15,16)17)2-6(14)8(5)24-10(22)9(7(3-21)23-24)26(25)12(18,19)20/h1-2H,22H2
Instrument: LTQ Orbitrap XL Thermo Scientific
Instrument type: LC-ESI-ITFT
Ms type: MS2
Ion mode: NEGATIVE
Ionization: ESI
Fragmentation mode: HCD
Collision energy: 45 % (nominal)
Resolution: 15000
Column name: XBridge C18 3.5um, 2.1x50mm, Waters
Retention time: 12.7 min
Base peak: 434.9307
Precursor m/z: 434.9314
Precursor type: [M-H]-
m/z	relative intensity	assigned
170.0094	283	C7HF3N2-
182.0098	85	C8HF3N2-
183.0174	454	C8H2F3N2-
233.9809	74	C8H2ClF3N2O-
243.9891	205	C9H2ClF3N3-
249.9582	999	C10H2Cl2N3O-
253.9862	93	C11H2ClF3N2-
267.9891	110	C11H2ClF3N3-
277.9532	711	C12HClF2N2S-
281.9922	315	C11H2ClF3N4-
317.9686	344	C12F6N2S-
329.9393	59	C8ClF5N4OS-
329.9593	120	C11H2ClF3N4OS-
