Mass spectrum: Nitrofen; LC-ESI-QFT; MS2; CE: 75; R=35000; [M+H]+
Name: Nitrofen
Name: 2,4-bis(chloranyl)-1-(4-nitrophenoxy)benzene
Formula: C12H7Cl2NO3
Exact mass: 282.98030
SMILES: c1(Oc2ccc([N+](=O)[O-])cc2)c(cc(Cl)cc1)Cl
InChI: InChI=1S/C12H7Cl2NO3/c13-8-1-6-12(11(14)7-8)18-10-4-2-9(3-5-10)15(16)17/h1-7H
Instrument: Q Exactive Orbitrap Thermo Scientific
Instrument type: LC-ESI-QFT
Ms type: MS2
Ion mode: POSITIVE
Ionization: ESI
Fragmentation mode: HCD
Collision energy: 75 (nominal)
Resolution: 35000
Column name: XBridge C18 3.5um, 2.1x50mm, Waters
Retention time: 14.8 min
Base peak: 149.0234
Precursor m/z: 283.9876
Precursor type: [M+H]+
m/z	relative intensity	assigned
55.0542	2	C4H7+
59.0492	10	C3H7O+
65.0386	3	C5H5+
67.0543	9	C5H7+
71.0491	2	C4H7O+
73.0284	15	C3H5O2+
79.0544	3	C6H7+
81.0335	4	C5H5O+
91.0542	4	C7H7+
95.0491	20	C6H7O+
98.9842	12	CH4ClO3+
128.0618	3	C10H8+
139.0542	131	C11H7+
149.0153	104	C9H6Cl+
167.0493	5	C12H7O+
168.0569	39	C12H8O+
173.0153	198	C11H6Cl+
174.0231	124	C11H7Cl+
175.0311	4	C11H8Cl+
182.9763	172	C9H5Cl2+
184.0519	12	C12H8O2+
202.0179	999	C12H7ClO+
203.0259	3	C12H8ClO+
208.992	608	C11H7Cl2+
264.9931	44	C12H7Cl2N2O+
266.9848	47	C12H7Cl2NO2+
