Mass spectrum: Minocycline; LC-ESI-QFT; MS2; CE: 60; R=35000; [M+H]+
Name: Minocycline
Name: Minocin
Name: (4S,4aS,5aR,12aS)-4,7-Bis(dimethylamino)-3,10,12,12a-tetrahydroxy-1,11-dioxo-1,4,4a,5,5a,6,11,12a-octahydro-2-tetracenecarboxamide
Formula: C23H27N3O7
Exact mass: 457.18490
SMILES: [H][C@@]12CC3=C(C(O)=CC=C3N(C)C)C(=O)C1=C(O)[C@]1(O)C(=O)C(C(N)=O)=C(O)[C@@H](N(C)C)[C@]1([H])C2
InChI: InChI=1S/C23H27N3O7/c1-25(2)12-5-6-13(27)15-10(12)7-9-8-11-17(26(3)4)19(29)16(22(24)32)21(31)23(11,33)20(30)14(9)18(15)28/h5-6,9,11,17,27,29-30,33H,7-8H2,1-4H3,(H2,24,32)/t9-,11-,17-,23-/m0/s1
Instrument: Q Exactive Plus Orbitrap Thermo Scientific
Instrument type: LC-ESI-QFT
Ms type: MS2
Ion mode: POSITIVE
Ionization: ESI
Fragmentation mode: HCD
Collision energy: 60 (nominal)
Resolution: 35000
Column name: XBridge C18 3.5um, 2.1x50mm, Waters
Retention time: 3.7 min
Base peak: 229.5995
Precursor m/z: 458.1922
Precursor type: [M+H]+
m/z	relative intensity	assigned
55.0178	2	C3H3O+
56.0494	7	C3H6N+
58.0651	77	C3H8N+
67.0542	1	C5H7+
68.0494	3	C4H6N+
68.997	1	C3HO2+
69.0333	2	C4H5O+
70.065	14	C4H8N+
72.0443	13	C3H6NO+
74.06	2	C3H8NO+
82.065	3	C5H8N+
84.0443	12	C4H6NO+
84.0807	58	C5H10N+
86.0599	4	C4H8NO+
93.0335	2	C6H5O+
94.0651	1	C6H8N+
95.0126	4	C5H3O2+
95.0489	3	C6H7O+
96.0807	2	C6H10N+
98.06	271	C5H8NO+
100.0757	1	C5H10NO+
102.0549	1	C4H8NO2+
108.0443	2	C6H6NO+
108.0806	11	C7H10N+
110.0599	4	C6H8NO+
112.0756	1	C6H10NO+
121.0282	4	C7H5O2+
122.0599	1	C7H8NO+
123.044	3	C7H7O2+
124.0392	4	C6H6NO2+
124.0757	8	C7H10NO+
126.0549	49	C6H8NO2+
130.0651	2	C9H8N+
131.0728	7	C9H9N+
135.0677	2	C8H9NO+
136.0755	12	C8H10NO+
137.0835	6	C8H11NO+
138.0549	2	C7H8NO2+
139.0265	1	C6H5NO3+
144.0809	1	C10H10N+
146.0599	1	C9H8NO+
148.0755	12	C9H10NO+
149.0232	10	C8H5O3+
149.0832	4	C9H11NO+
150.0549	4	C8H8NO2+
150.0912	17	C9H12NO+
151.0389	5	C8H7O3+
152.0341	5	C7H6NO3+
152.0704	4	C8H10NO2+
154.0497	32	C7H8NO3+
159.0678	5	C10H9NO+
160.0394	1	C9H6NO2+
160.0756	5	C10H10NO+
161.0596	3	C10H9O2+
163.0626	3	C9H9NO2+
164.0704	20	C9H10NO2+
165.0182	8	C8H5O4+
165.0783	12	C9H11NO2+
166.0862	13	C9H12NO2+
167.0337	12	C8H7O4+
170.0445	1	C7H8NO4+
172.0605	1	C7H10NO4+
173.0838	4	C11H11NO+
174.0548	12	C10H8NO2+
174.0912	5	C11H12NO+
175.0628	3	C10H9NO2+
176.0704	7	C10H10NO2+
177.0181	15	C9H5O4+
177.0782	2	C10H11NO2+
178.0861	14	C10H12NO2+
180.0653	2	C9H10NO3+
181.0648	2	C13H9O+
184.0755	2	C12H10NO+
186.0911	3	C12H12NO+
187.0626	123	C11H9NO2+
188.0705	58	C11H10NO2+
188.1068	3	C12H14NO+
189.0783	56	C11H11NO2+
190.0861	4	C11H12NO2+
192.0653	14	C10H10NO3+
197.0596	2	C13H9O2+
198.0913	2	C13H12NO+
199.0993	2	C13H13NO+
200.0705	4	C12H10NO2+
200.1069	2	C13H14NO+
201.0783	38	C12H11NO2+
202.0497	26	C11H8NO3+
202.0861	26	C12H12NO2+
203.0338	3	C11H7O4+
203.0939	13	C12H13NO2+
204.1017	10	C12H14NO2+
209.0599	4	C14H9O2+
209.0829	1	C14H11NO+
210.076	4	C10H12NO4+
210.0912	3	C14H12NO+
211.0753	3	C14H11O2+
211.0989	6	C14H13NO+
212.0702	8	C13H10NO2+
212.1069	2	C14H14NO+
213.0783	6	C13H11NO2+
214.0496	2	C12H8NO3+
214.0864	5	C13H12NO2+
214.1223	7	C14H16NO+
215.0576	480	C12H9NO3+
216.0655	14	C12H10NO3+
216.1018	18	C13H14NO2+
217.0732	52	C12H11NO3+
220.0605	3	C11H10NO4+
220.0751	1	C15H10NO+
221.0833	1	C15H11NO+
222.0915	1	C15H12NO+
223.075	2	C15H11O2+
223.0993	3	C15H13NO+
224.0704	7	C14H10NO2+
224.1067	4	C15H14NO+
225.0548	3	C14H9O3+
225.0782	8	C14H11NO2+
225.1146	1	C15H15NO+
226.0861	42	C14H12NO2+
226.1227	12	C15H16NO+
227.0939	69	C14H13NO2+
228.065	5	C13H10NO3+
228.1012	6	C14H14NO2+
229.073	6	C13H11NO3+
229.109	5	C14H15NO2+
230.081	77	C13H12NO3+
231.0887	2	C13H13NO3+
232.0967	4	C13H14NO3+
233.0683	20	C12H11NO4+
234.0913	1	C16H12NO+
235.0993	2	C16H13NO+
236.0704	3	C15H10NO2+
236.107	2	C16H14NO+
237.0549	1	C15H9O3+
237.0784	12	C15H11NO2+
238.0862	29	C15H12NO2+
238.1228	2	C16H16NO+
239.0938	44	C15H13NO2+
240.0648	5	C14H10NO3+
240.1016	9	C15H14NO2+
241.0731	8	C14H11NO3+
241.1095	12	C15H15NO2+
242.0811	10	C14H12NO3+
242.1172	24	C15H16NO2+
243.0889	13	C14H13NO3+
243.1251	3	C15H17NO2+
244.097	1	C14H14NO3+
244.1326	5	C15H18NO2+
248.0702	4	C16H10NO2+
248.107	2	C17H14NO+
249.078	1	C16H11NO2+
250.0857	11	C16H12NO2+
250.1224	2	C17H16NO+
251.0701	2	C16H11O3+
251.0939	18	C16H13NO2+
252.0655	10	C15H10NO3+
252.1016	17	C16H14NO2+
253.05	1	C15H9O4+
253.0731	14	C15H11NO3+
253.1096	11	C16H15NO2+
254.0569	3	C15H10O4+
254.0808	15	C15H12NO3+
254.1173	16	C16H16NO2+
255.0888	36	C15H13NO3+
256.0963	7	C15H14NO3+
257.1044	40	C15H15NO3+
258.1125	1	C15H16NO3+
261.0784	1	C17H11NO2+
262.0858	5	C17H12NO2+
263.0701	1	C17H11O3+
263.094	11	C17H13NO2+
264.0656	11	C16H10NO3+
264.1015	8	C17H14NO2+
265.0732	12	C16H11NO3+
265.1097	6	C17H15NO2+
266.0809	16	C16H12NO3+
266.1171	4	C17H16NO2+
267.0888	92	C16H13NO3+
268.0601	55	C15H10NO4+
268.0962	9	C16H14NO3+
269.0681	50	C15H11NO4+
269.1043	19	C16H15NO3+
270.076	12	C15H12NO4+
270.1122	38	C16H16NO3+
271.0836	4	C15H13NO4+
272.1278	36	C16H18NO3+
273.0995	10	C15H15NO4+
276.0653	7	C17H10NO3+
276.1023	3	C18H14NO2+
277.0494	1	C17H9O4+
277.0727	1	C17H11NO3+
278.0812	9	C17H12NO3+
278.1171	5	C18H16NO2+
279.0888	49	C17H13NO3+
280.0606	2	C16H10NO4+
280.0968	16	C17H14NO3+
280.1327	2	C18H18NO2+
281.0695	5	C16H11NO4+
281.1044	38	C17H15NO3+
282.0758	7	C16H12NO4+
282.112	16	C17H16NO3+
283.0837	999	C16H13NO4+
284.0915	4	C16H14NO4+
284.1273	1	C17H18NO3+
285.0993	55	C16H15NO4+
288.1229	19	C16H18NO4+
289.0731	3	C18H11NO3+
290.0813	5	C18H12NO3+
291.0888	25	C18H13NO3+
292.0602	12	C17H10NO4+
292.0962	7	C18H14NO3+
293.0684	3	C17H11NO4+
293.1042	10	C18H15NO3+
293.1288	3	C18H17N2O2+
294.0758	30	C17H12NO4+
294.1116	5	C18H16NO3+
295.0835	23	C17H13NO4+
296.0916	7	C17H14NO4+
296.1282	13	C18H18NO3+
297.0995	23	C17H15NO4+
298.1072	52	C17H16NO4+
299.1748	4	C18H23N2O2+
300.123	26	C17H18NO4+
304.0601	5	C18H10NO4+
304.0957	2	C19H14NO3+
306.0759	10	C18H12NO4+
306.1127	7	C19H16NO3+
306.1355	3	C19H18N2O2+
307.0837	54	C18H13NO4+
308.0707	1	C21H10NO2+
308.0915	8	C18H14NO4+
309.0994	76	C18H15NO4+
310.071	2	C17H12NO5+
310.107	2	C18H16NO4+
312.1228	4	C18H18NO4+
312.146	2	C18H20N2O3+
313.0948	4	C17H15NO5+
317.0677	3	C19H11NO4+
318.0757	3	C19H12NO4+
319.0839	19	C19H13NO4+
319.1072	3	C19H15N2O3+
320.0549	8	C18H10NO5+
320.0917	10	C19H14NO4+
321.1003	1	C19H15NO4+
321.1224	2	C19H17N2O3+
322.0707	68	C18H12NO5+
322.1066	9	C19H16NO4+
324.1229	19	C19H18NO4+
325.0944	25	C18H15NO5+
328.1171	2	C18H18NO5+
332.0554	8	C19H10NO5+
334.0703	3	C19H12NO5+
334.1068	2	C20H16NO4+
334.1308	4	C20H18N2O3+
335.0787	22	C19H13NO5+
336.0875	5	C19H14NO5+
337.0943	392	C19H15NO5+
339.1707	9	C20H23N2O3+
340.1169	2	C19H18NO5+
347.0784	7	C20H13NO5+
347.1022	3	C20H15N2O4+
348.0498	5	C19H10NO6+
350.0659	14	C19H12NO6+
350.1017	7	C20H16NO5+
351.0736	2	C19H13NO6+
352.1179	46	C20H18NO5+
353.0892	46	C19H15NO6+
362.1263	2	C21H18N2O4+
363.0738	8	C20H13NO6+
365.0895	33	C20H15NO6+
367.1652	14	C21H23N2O4+
368.1119	3	C20H18NO6+
380.1362	2	C21H20N2O5+
381.0846	3	C20H15NO7+
393.1078	1	C21H17N2O6+
395.1595	2	C22H23N2O5+
