Mass spectrum: Flocoumafen; LC-ESI-QFT; MS2; CE: 60%; R=17500; [M-H]-
Name: Flocoumafen
Name: 4-hydroxy-3-[3-[4-[[4-(trifluoromethyl)phenyl]methoxy]phenyl]-1,2,3,4-tetrahydronaphthalen-1-yl]chromen-2-one
Formula: C33H25F3O4
Exact mass: 542.1705
SMILES: C1C(CC2=CC=CC=C2C1C3=C(C4=CC=CC=C4OC3=O)O)C5=CC=C(C=C5)OCC6=CC=C(C=C6)C(F)(F)F
InChI: InChI=1S/C33H25F3O4/c34-33(35,36)24-13-9-20(10-14-24)19-39-25-15-11-21(12-16-25)23-17-22-5-1-2-6-26(22)28(18-23)30-31(37)27-7-3-4-8-29(27)40-32(30)38/h1-16,23,28,37H,17-19H2
Instrument: Exploris 240 Orbitrap Thermo Scientific
Instrument type: LC-ESI-QFT
Ms type: MS2
Ion mode: NEGATIVE
Ionization: ESI
Fragmentation mode: HCD
Collision energy: 60 % (nominal)
Resolution: 17500
Column name: XBridge C18 3.5um, 2.1x50mm, Waters
Retention time: 15.818 min
Base peak: 541.1631
Precursor m/z: 541.1632
Precursor type: [M-H]-
m/z	relative intensity	assigned
92.0269	11	C6H4O-
93.0346	88	C6H5O-
115.0553	18	C9H7-
117.0347	173	C8H5O-
119.0503	22	C8H7O-
120.0217	3	C7H4O2-
133.0295	4	C8H5O2-
135.0454	7	C8H7O2-
143.0499	25	C10H7O-
161.0244	999	C9H5O3-
169.0658	7	C12H9O-
171.0451	7	C11H7O2-
174.0322	48	C10H6O3-
187.0395	23	C11H7O3-
207.0813	23	C15H11O-
219.0816	176	C16H11O-
231.0827	19	C14H12FO2-
233.0972	23	C17H13O-
243.0813	23	C18H11O-
245.0609	16	C17H9O2-
245.0971	34	C18H13O-
246.0685	5	C17H10O2-
247.0767	43	C17H11O2-
261.0922	62	C18H13O2-
275.0714	90	C18H11O3-
287.0716	59	C19H11O3-
289.0872	130	C19H13O3-
291.0666	55	C18H11O4-
337.1237	11	C24H17O2-
339.1018	12	C23H15O3-
367.0983	35	C24H15O4-
381.1131	55	C25H17O4-
