Mass spectrum: Metalaxyl; LC-ESI-ITFT; MS2; CE: 75%; R=7500; [M+H]+
Name: Metalaxyl
Name: 2-(N-(2-methoxy-1-oxoethyl)-2,6-dimethylanilino)propanoic acid methyl ester
Formula: C15H21NO4
Exact mass: 279.1465
SMILES: CC1=C(C(=CC=C1)C)N(C(C)C(=O)OC)C(=O)COC
InChI: InChI=1S/C15H21NO4/c1-10-7-6-8-11(2)14(10)16(13(17)9-19-4)12(3)15(18)20-5/h6-8,12H,9H2,1-5H3
Instrument: LTQ Orbitrap XL Thermo Scientific
Instrument type: LC-ESI-ITFT
Ms type: MS2
Ion mode: POSITIVE
Ionization: ESI
Fragmentation mode: HCD
Collision energy: 75 % (nominal)
Resolution: 7500
Column name: XBridge C18 3.5um, 2.1x50mm, Waters
Retention time: 8.7 min
Base peak: 302.1365
Precursor m/z: 280.1543
Precursor type: [M+H]+
m/z	relative intensity	assigned
91.0541	24	C7H7+
105.0698	126	C8H9+
106.0775	10	C8H10+
107.085	11	C8H11+
117.0568	24	C8H7N+
117.0694	9	C9H9+
118.0649	47	C8H8N+
119.0724	11	C8H9N+
119.0855	52	C9H11+
120.0809	22	C8H10N+
121.0883	30	C8H11N+
128.0617	9	C10H8+
130.0651	73	C9H8N+
131.073	45	C9H9N+
132.0807	342	C9H10N+
133.0885	225	C9H11N+
134.0963	397	C9H12N+
144.0803	49	C10H10N+
145.0886	342	C10H11N+
146.0962	120	C10H12N+
147.1047	23	C10H13N+
148.1119	318	C10H14N+
150.0913	42	C9H12NO+
158.0963	12	C11H12N+
159.1039	10	C11H13N+
160.112	999	C11H14N+
161.1195	9	C11H15N+
162.1276	235	C11H16N+
164.1066	31	C10H14NO+
192.138	48	C12H18NO+
