Mass spectrum: Carbaryl; LC-ESI-QFT; MS2; CE: 75; R=35000; [M+H]+
Name: Carbaryl
Name: Carbaril
Name: N-methylcarbamic acid 1-naphthalenyl ester
Formula: C12H11NO2
Exact mass: 201.07898
SMILES: c12c(OC(NC)=O)cccc1cccc2
InChI: InChI=1S/C12H11NO2/c1-13-12(14)15-11-8-4-6-9-5-2-3-7-10(9)11/h2-8H,1H3,(H,13,14)
Instrument: Q Exactive Orbitrap Thermo Scientific
Instrument type: LC-ESI-QFT
Ms type: MS2
Ion mode: POSITIVE
Ionization: ESI
Fragmentation mode: HCD
Collision energy: 75 (nominal)
Resolution: 35000
Column name: XBridge C18 3.5um, 2.1x50mm, Waters
Retention time: 7.6 min
Base peak: 145.0649
Precursor m/z: 202.0863
Precursor type: [M+H]+
m/z	relative intensity	assigned
58.0287	18	C2H4NO+
77.0385	2	C6H5+
91.0542	33	C7H7+
95.0491	4	C6H7O+
103.0542	25	C8H7+
115.0541	114	C9H7+
116.062	3	C9H8+
117.0698	528	C9H9+
126.0464	2	C10H6+
127.0541	42	C10H7+
144.0571	6	C10H8O+
145.0648	999	C10H9O+
155.0603	345	C10H7N2+
156.0572	2	C11H8O+
