Mass spectrum: Iobitridol; LC-ESI-ITFT; MS2; CE: 35%; R=15000; [M+H]+
Name: Iobitridol
Name: 1,3-Benzenedicarboxamide, N,N'-bis(2,3-dihydroxypropyl)-5-((5-hydroxy-2-(hydroxymethyl)-1-oxopropyl)amino)-2,4,6-triiodo-N,N'-dimethyl-
Name: 1-N,3-N-bis(2,3-dihydroxypropyl)-5-[[3-hydroxy-2-(hydroxymethyl)propanoyl]amino]-2,4,6-triiodo-1-N,3-N-dimethylbenzene-1,3-dicarboxamide
Formula: C20H28I3N3O9
Exact mass: 834.8960
SMILES: Ic1c(c(I)c(c(I)c1NC(=O)C(CO)CO)C(=O)N(CC(O)CO)C)C(=O)N(CC(O)CO)C
InChI: InChI=1S/C20H28I3N3O9/c1-25(3-10(31)7-29)19(34)12-14(21)13(20(35)26(2)4-11(32)8-30)16(23)17(15(12)22)24-18(33)9(5-27)6-28/h9-11,27-32H,3-8H2,1-2H3,(H,24,33)
Instrument: LTQ Orbitrap XL Thermo Scientific
Instrument type: LC-ESI-ITFT
Ms type: MS2
Ion mode: POSITIVE
Ionization: ESI
Fragmentation mode: CID
Collision energy: 35 % (nominal)
Resolution: 15000
Column name: XBridge C18 3.5um, 2.1x50mm, Waters
Retention time: 1.6 min
Base peak: 149.0023
Precursor m/z: 835.9032
Precursor type: [M+H]+
m/z	relative intensity	assigned
293.8979	10	C2H3IN2O7+
325.9344	2	C14H3IN2+
402.0308	8	C16H19IO4+
416.9958	3	C17H12IN3O2+
474.9992	41	C15H25I2O+
522.0732	14	C20H27IO8+
546.945	15	C14H19I2N3O4+
584.9017	7	C19H13I2N3O3+
602.9116	212	C16H17I2N2O7+
628.7921	44	C12H12I3N2O4+
647.9705	6	C18H24I2N3O7+
659.8334	5	C10H19I3N2O7+
689.9801	15	C20H26I2N3O8+
712.8141	7	C16H16I3N2O6+
715.8609	310	C16H21I3N3O5+
730.8245	24	C19H16I3N3O4+
733.8716	999	C13H25I3N2O9+
769.8734	6	C19H23I3N3O6+
787.881	8	C19H25I3N3O7+
799.8821	28	C20H25I3N3O7+
817.8929	516	C20H27I3N3O8+
