Mass spectrum: Chlorothalonil TP SYN548580; LC-ESI-QFT; MS2; CE: 90%; R=15000; [M+H]+
Name: Chlorothalonil TP SYN548580
Name: 2,4,5-trichloro-6-hydroxyisophthalamide
Formula: C8H5Cl3N2O3
Exact mass: 281.9366
SMILES: NC(=O)c1c(O)c(Cl)c(Cl)c(C(=O)N)c1Cl
InChI: InChI=1S/C8H5Cl3N2O3/c9-3-1(7(12)15)4(10)5(11)6(14)2(3)8(13)16/h14H,(H2,12,15)(H2,13,16)
Instrument: Orbitrap Exploris 240 Thermo Scientific
Instrument type: LC-ESI-QFT
Ms type: MS2
Ion mode: POSITIVE
Ionization: ESI
Fragmentation mode: HCD
Collision energy: 90 % (nominal)
Resolution: 15000
Column name: Atlantis C18 3um, 3.0x150mm, Waters
Retention time: 9.698 min
Base peak: 132.9582
Precursor m/z: 282.9439
Precursor type: [M+H]+
Precursor intensity: 38424076
m/z	relative intensity	assigned
62.9632	17	CClO+
72.9838	19	C3H2Cl+
82.9449	58	CHCl2+
86.9632	19	C3ClO+
106.945	310	C3HCl2+
109.979	26	C5HClN+
118.9448	17	C4HCl2+
123.9711	15	C6HClO+
130.9451	171	C5HCl2+
140.9062	36	C3Cl3+
140.9738	28	C6H2ClO2+
141.9377	36	C6Cl2+
145.9555	70	C5H2Cl2N+
146.9398	33	C5HCl2O+
152.9059	83	C4Cl3+
157.9319	70	C6Cl2O+
158.94	131	C6HCl2O+
159.9479	48	C6H2Cl2O+
164.906	524	C5Cl3+
166.9216	999	C5H2Cl3+
173.9511	36	C3H5Cl3N2+
174.9358	22	C3H4Cl3NO+
176.9058	52	C6Cl3+
180.9009	112	C5Cl3O+
181.9325	41	C5H3Cl3N+
186.9342	104	C7HCl2O2+
191.9154	12	C3H3Cl3O3+
192.9011	347	C6Cl3O+
194.9173	27	C6H2Cl3O+
204.9005	409	C7Cl3O+
220.8961	35	C7Cl3O2+
222.9113	186	C7H2Cl3O2+
248.891	124	C8Cl3O3+
266.9017	65	
