Mass spectrum: Lincomycin; LC-ESI-QFT; MS2; CE: 75; R=35000; [M-H]-
Name: Lincomycin
Name: N-[2-hydroxy-1-(3,4,5-trihydroxy-6-methylsulfanyloxan-2-yl)propyl]-1-methyl-4-propylpyrrolidine-2-carboxamide
Formula: C18H34N2O6S
Exact mass: 406.21376
SMILES: CCCC1CC(N(C1)C)C(=O)NC(C2C(C(C(C(O2)SC)O)O)O)C(C)O
InChI: InChI=1S/C18H34N2O6S/c1-5-6-10-7-11(20(3)8-10)17(25)19-12(9(2)21)16-14(23)13(22)15(24)18(26-16)27-4/h9-16,18,21-24H,5-8H2,1-4H3,(H,19,25)
Instrument: Q Exactive Plus Orbitrap Thermo Scientific
Instrument type: LC-ESI-QFT
Ms type: MS2
Ion mode: NEGATIVE
Ionization: ESI
Fragmentation mode: HCD
Collision energy: 75 (nominal)
Resolution: 35000
Column name: XBridge C18 3.5um, 2.1x50mm, Waters
Retention time: 3.7 min
Base peak: 451.2115
Precursor m/z: 405.2065
Precursor type: [M-H]-
m/z	relative intensity	assigned
53.0033	1	C3HO-
55.0189	92	C3H3O-
57.0346	197	C3H5O-
58.006	12	C2H2O2-
58.0298	30	C2H4NO-
59.0138	245	C2H3O2-
60.9754	2	CHOS-
63.024	1	C5H3-
65.0033	2	C4HO-
65.0397	30	C5H5-
65.9986	10	C3NO-
66.0349	24	C4H4N-
67.019	25	C4H3O-
68.0142	24	C3H2NO-
68.0505	2	C4H6N-
68.9982	105	C3HO2-
69.0346	350	C4H5O-
70.0299	78	C3H4NO-
71.0139	999	C3H3O2-
71.9677	1	C2OS-
72.0455	1	C3H6NO-
72.9932	33	C2HO3-
73.0296	67	C3H5O2-
73.9832	25	C2H2OS-
75.0088	10	C2H3O3-
78.0349	12	C5H4N-
79.019	21	C5H3O-
80.0506	80	C5H6N-
81.022	202	C4H3NO-
81.0346	313	C5H5O-
82.0298	85	C4H4NO-
83.0139	38	C4H3O2-
83.0503	127	C5H7O-
84.0091	17	C3H2NO2-
84.0216	51	C4H4O2-
84.0455	32	C4H6NO-
85.0295	689	C4H5O2-
85.0407	39	C3H5N2O-
86.0009	1	C3H2O3-
86.0247	3	C3H4NO2-
87.0087	127	C3H3O3-
88.9703	18	C2HO2S-
89.0033	6	C6HO-
89.0067	2	C3H5OS-
89.0244	1	C3H5O3-
90.0349	8	C6H4N-
92.0505	6	C6H6N-
93.0345	11	C6H5O-
94.0298	128	C5H4NO-
95.0139	38	C5H3O2-
95.0502	8	C6H7O-
96.0217	2	C5H4O2-
96.0455	30	C5H6NO-
97.0295	228	C5H5O2-
98.0247	27	C4H4NO2-
98.0611	6	C5H8NO-
98.0975	10	C6H12N-
98.9909	11	C4H3OS-
99.0088	5	C4H3O3-
99.0451	44	C5H7O2-
99.9989	17	C4H4OS-
100.0404	11	C4H6NO2-
101.0243	2	C4H5O3-
101.9781	67	C3H2O2S-
103.9937	2	C3H4O2S-
105.022	164	C6H3NO-
106.0298	21	C6H4NO-
107.0138	2	C6H3O2-
107.0377	24	C6H5NO-
107.0502	2	C7H7O-
108.0217	152	C6H4O2-
108.0455	27	C6H6NO-
109.0169	137	C5H3NO2-
109.0295	72	C6H5O2-
109.0658	37	C7H9O-
110.0071	1	C5H4NS-
110.0248	28	C5H4NO2-
110.0612	17	C6H8NO-
110.991	9	C5H3OS-
111.0086	2	C5H3O3-
111.0325	7	C5H5NO2-
111.0451	22	C6H7O2-
112.0163	1	C5H4O3-
112.0403	10	C5H6NO2-
113.0246	6	C5H5O3-
114.986	7	C4H3O2S-
115.0401	5	C5H7O3-
118.0298	5	C7H4NO-
119.0377	2	C7H5NO-
120.0453	2	C7H6NO-
122.0247	83	C6H4NO2-
123.0327	24	C6H5NO2-
123.0452	4	C7H7O2-
123.0815	1	C8H11O-
124.0403	95	C6H6NO2-
125.0244	9	C6H5O3-
125.072	9	C6H9N2O-
125.0972	7	C8H13O-
126.0561	10	C6H8NO2-
126.0924	49	C7H12NO-
126.9859	26	C5H3O2S-
127.0402	5	C6H7O3-
132.0455	1	C8H6NO-
133.0171	7	C7H3NO2-
134.0248	17	C7H4NO2-
135.0326	4	C7H5NO2-
137.0972	5	C9H13O-
138.0019	53	C6H4NOS-
138.0195	7	C6H4NO3-
139.0098	7	C6H5NOS-
139.1129	1	C9H15O-
139.9939	2	C6H4O2S-
141.0017	2	C6H5O2S-
145.0409	2	C8H5N2O-
147.0329	10	C8H5NO2-
148.0402	2	C8H6NO2-
150.0195	7	C7H4NO3-
151.0274	1	C7H5NO3-
151.04	1	C8H7O3-
152.108	7	C9H14NO-
153.1032	1	C8H13N2O-
158.0617	1	C10H8NO-
160.0405	1	C9H6NO2-
162.0557	1	C9H8NO2-
164.1076	1	C10H14NO-
165.9968	19	C7H4NO2S-
166.1236	7	C10H16NO-
168.1394	33	C10H18NO-
169.1347	480	C9H17N2O-
170.1187	91	C9H16NO2-
180.1394	1	C11H18NO-
182.1548	16	C11H20NO-
186.056	5	C11H8NO2-
193.1345	26	C11H17N2O-
195.1503	77	C11H19N2O-
196.1342	2	C11H18NO2-
197.1295	35	C10H17N2O2-
207.1502	5	C12H19N2O-
209.1296	6	C11H17N2O2-
209.166	65	C12H21N2O-
211.1455	10	C11H19N2O2-
219.1505	3	C13H19N2O-
221.1661	5	C13H21N2O-
223.1452	23	C12H19N2O2-
225.1611	8	C12H21N2O2-
235.1456	2	C13H19N2O2-
237.1608	2	C13H21N2O2-
239.1772	1	C13H23N2O2-
