Mass spectrum: Difenoconazole; LC-ESI-ITFT; MS2; CE: 60%; R=7500; [M+H]+
Name: Difenoconazole
Name: 1-[[2-[2-chloranyl-4-(4-chloranylphenoxy)phenyl]-4-methyl-1,3-dioxolan-2-yl]methyl]-1,2,4-triazole
Formula: C19H17Cl2N3O3
Exact mass: 405.0647
SMILES: Clc4ccc(Oc1ccc(c(Cl)c1)C2(OCC(O2)C)Cn3ncnc3)cc4
InChI: InChI=1S/C19H17Cl2N3O3/c1-13-9-25-19(27-13,10-24-12-22-11-23-24)17-7-6-16(8-18(17)21)26-15-4-2-14(20)3-5-15/h2-8,11-13H,9-10H2,1H3
Instrument: LTQ Orbitrap XL Thermo Scientific
Instrument type: LC-ESI-ITFT
Ms type: MS2
Ion mode: POSITIVE
Ionization: ESI
Fragmentation mode: HCD
Collision energy: 60 % (nominal)
Resolution: 7500
Column name: XBridge C18 3.5um, 2.1x50mm, Waters
Retention time: 14.1 min
Base peak: 406.0724
Precursor m/z: 406.072
Precursor type: [M+H]+
m/z	relative intensity	assigned
70.0401	1	C2H4N3+
86.9999	1	C4H4Cl+
110.9991	5	C6H4Cl+
117.0703	1	C9H9+
126.9944	2	C6H4ClO+
128.0618	1	C10H8+
129.0102	1	C6H6ClO+
129.0699	13	C10H9+
139.0057	36	C6H4ClN2+
141.0101	27	C7H6ClO+
149.0153	1	C9H6Cl+
152.062	52	C12H8+
153.0698	26	C12H9+
164.0386	5	C10H9Cl+
179.0597	2	C12H7N2+
181.0647	30	C13H9O+
182.9759	1	C9H5Cl2+
187.0308	52	C12H8Cl+
188.0387	169	C12H9Cl+
202.0179	3	C12H7ClO+
208.9928	1	C11H7Cl2+
215.026	21	C13H8ClO+
216.0334	16	C13H9ClO+
223.0075	109	C12H9Cl2+
251.0025	999	C13H9Cl2O+
261.9938	3	C14H8Cl2O+
263.002	1	C14H9Cl2O+
264.9817	93	C13H7Cl2O2+
273.031	2	C15H10ClO3+
291.034	3	C16H13Cl2O+
