Mass spectrum: Metalaxyl; LC-ESI-ITFT; MS2; CE: 15%; R=7500; [M+H]+
Name: Metalaxyl
Name: 2-(N-(2-methoxy-1-oxoethyl)-2,6-dimethylanilino)propanoic acid methyl ester
Formula: C15H21NO4
Exact mass: 279.1465
SMILES: CC1=C(C(=CC=C1)C)N(C(C)C(=O)OC)C(=O)COC
InChI: InChI=1S/C15H21NO4/c1-10-7-6-8-11(2)14(10)16(13(17)9-19-4)12(3)15(18)20-5/h6-8,12H,9H2,1-5H3
Instrument: LTQ Orbitrap XL Thermo Scientific
Instrument type: LC-ESI-ITFT
Ms type: MS2
Ion mode: POSITIVE
Ionization: ESI
Fragmentation mode: HCD
Collision energy: 15 % (nominal)
Resolution: 7500
Column name: XBridge C18 3.5um, 2.1x50mm, Waters
Retention time: 8.7 min
Base peak: 302.1365
Precursor m/z: 280.1543
Precursor type: [M+H]+
m/z	relative intensity	assigned
148.1119	12	C10H14N+
160.1118	18	C11H14N+
192.1383	96	C12H18NO+
220.1332	429	C13H18NO2+
248.1279	494	C14H18NO3+
280.1542	999	C15H22NO4+
