Mass spectrum: Disulfoton-sulfoxide; LC-ESI-QFT; MS2; CE: 30%; R=17500; [M+H]+
Name: Disulfoton-sulfoxide
Name: Oxydisulfoton
Name: diethoxy-(2-ethylsulfinylethylsulfanyl)-sulfanylidene-lambda5-phosphane
Formula: C8H19O3PS3
Exact mass: 290.0234
SMILES: CCOP(=S)(OCC)SCCS(=O)CC
InChI: InChI=1S/C8H19O3PS3/c1-4-10-12(13,11-5-2)14-7-8-15(9)6-3/h4-8H2,1-3H3
Instrument: Exploris 240 Orbitrap Thermo Scientific
Instrument type: LC-ESI-QFT
Ms type: MS2
Ion mode: POSITIVE
Ionization: ESI
Fragmentation mode: HCD
Collision energy: 30 % (nominal)
Resolution: 17500
Column name: XBridge C18 3.5um, 2.1x50mm, Waters
Retention time: 6.653 min
Base peak: 282.279
Precursor m/z: 291.0307
Precursor type: [M+H]+
m/z	relative intensity	assigned
96.9506	48	H2O2PS+
105.0369	11	C4H9OS+
114.9612	65	H4O3PS+
124.9819	126	C2H6O2PS+
128.9227	22	H2O2PS2+
153.0133	355	C4H10O2PS+
156.954	304	C2H6O2PS2+
171.0241	40	C4H12O3PS+
184.9854	999	C4H10O2PS2+
213.0167	170	C6H14O2PS2+
