Mass spectrum: Dialifos; LC-ESI-QFT; MS2; CE: 120%; R=17500; [M+H]+
Name: Dialifos
Name: Dialifor
Name: 2-(2-chloro-1-diethoxyphosphinothioylsulfanylethyl)isoindole-1,3-dione
Formula: C14H17ClNO4PS2
Exact mass: 393.0025
SMILES: CCOP(=S)(OCC)SC(CCl)N1C(=O)C2=CC=CC=C2C1=O
InChI: InChI=1S/C14H17ClNO4PS2/c1-3-19-21(22,20-4-2)23-12(9-15)16-13(17)10-7-5-6-8-11(10)14(16)18/h5-8,12H,3-4,9H2,1-2H3
Instrument: Exploris 240 Orbitrap Thermo Scientific
Instrument type: LC-ESI-QFT
Ms type: MS2
Ion mode: POSITIVE
Ionization: ESI
Fragmentation mode: HCD
Collision energy: 120 % (nominal)
Resolution: 17500
Column name: XBridge C18 3.5um, 2.1x50mm, Waters
Retention time: 11.982 min
Base peak: 439.042
Precursor m/z: 394.0098
Precursor type: [M+H]+
m/z	relative intensity	assigned
50.0152	56	C4H2+
51.0228	131	C4H3+
53.0385	30	C4H5+
60.9839	985	C2H2Cl+
63.0229	106	C5H3+
64.0309	31	C5H4+
64.9787	230	H2O2P+
65.0387	59	C5H5+
66.0464	79	C5H6+
75.0228	178	C6H3+
76.0184	20	C5H2N+
76.0307	211	C6H4+
77.0388	82	C6H5+
78.9402	164	OPS+
89.0385	999	C7H5+
90.0466	97	C7H6+
94.0413	26	C6H6O+
94.9171	127	PS2+
96.9507	474	H2O2PS+
98.9995	36	C5H4Cl+
99.0228	34	C4H6NP+
102.0337	292	C7H4N+
102.0468	39	C4H9NP+
103.0411	32	C7H5N+
104.0256	178	C7H4O+
105.0334	61	C7H5O+
112.9282	25	CH2ClS2+
114.9612	280	H4O3PS+
116.0494	93	C8H6N+
117.0573	62	C8H7N+
120.0446	55	C7H6NO+
125.0157	159	C3H9ClNP+
130.0287	250	C8H4NO+
139.0057	57	C3H7O4S+
