Mass spectrum: 2-(3-Hydroxycyclohexyl)-5-(2-methyl-2-octanyl)phenol; LC-ESI-QFT; MS2; CE: 180; R=35000; [M+H]+
Name: 2-(3-Hydroxycyclohexyl)-5-(2-methyl-2-octanyl)phenol
Name: CP47.497
Name: 2-(3-hydroxycyclohexyl)-5-(2-methyloctan-2-yl)phenol
Formula: C21H34O2
Exact mass: 318.25588
SMILES: CCCCCCC(C)(C)C1=CC(=C(C=C1)C2CCCC(C2)O)O
InChI: InChI=1S/C21H34O2/c1-4-5-6-7-13-21(2,3)17-11-12-19(20(23)15-17)16-9-8-10-18(22)14-16/h11-12,15-16,18,22-23H,4-10,13-14H2,1-3H3
Instrument: Q Exactive Plus Orbitrap Thermo Scientific
Instrument type: LC-ESI-QFT
Ms type: MS2
Ion mode: POSITIVE
Ionization: ESI
Fragmentation mode: HCD
Collision energy: 180 (nominal)
Resolution: 35000
Column name: XBridge C18 3.5um, 2.1x50mm, Waters
Retention time: 17.2 min
Base peak: 391.2833
Precursor m/z: 319.2632
Precursor type: [M+H]+
m/z	relative intensity	assigned
50.0151	273	C4H2+
51.023	999	C4H3+
52.0308	22	C4H4+
53.0022	120	C3HO+
53.0386	546	C4H5+
55.0178	29	C3H3O+
55.0542	20	C4H7+
63.0229	40	C5H3+
65.0386	414	C5H5+
66.0463	51	C5H6+
67.0541	12	C5H7+
67.9893	6	C3O2+
77.0385	422	C6H5+
78.0464	100	C6H6+
79.0542	529	C6H7+
81.0335	38	C5H5O+
81.0697	8	C6H9+
89.0385	64	C7H5+
90.0464	6	C7H6+
91.0542	586	C7H7+
94.0413	47	C6H6O+
95.0491	977	C6H7O+
102.0463	26	C8H6+
103.0542	258	C8H7+
104.0619	23	C8H8+
105.0447	695	C6H5N2+
105.0699	129	C8H9+
107.0492	42	C7H7O+
115.0542	136	C9H7+
121.0645	5	C8H9O+
128.062	54	C10H8+
131.0491	21	C9H7O+
133.0647	27	C9H9O+
