Mass spectrum: N-Methyl-N-nitrosotoluene-4-sulphonamide (NTOLS); LC-ESI-QFT; MS2; CE: 45; R=70000; [M+H]+
Name: N-Methyl-N-nitrosotoluene-4-sulphonamide (NTOLS)
Name: N,4-dimethyl-N-nitrosobenzenesulfonamide
Formula: C8H10N2O3S
Exact mass: 214.04121
SMILES: O=S(=O)(c1ccc(cc1)C)N(N=O)C
InChI: InChI=1S/C8H10N2O3S/c1-7-3-5-8(6-4-7)14(12,13)10(2)9-11/h3-6H,1-2H3
Instrument: Q Exactive Plus Orbitrap Thermo Scientific
Instrument type: LC-ESI-QFT
Ms type: MS2
Ion mode: POSITIVE
Ionization: ESI
Fragmentation mode: HCD
Collision energy: 45 (nominal)
Resolution: 70000
Column name: XBridge C18 3.5um, 2.1x50mm, Waters
Retention time: 8.3 min
Base peak: 186.0583
Precursor m/z: 215.0485
Precursor type: [M+H]+
m/z	relative intensity	assigned
53.0386	184	C4H5+
55.0542	396	C4H7+
57.0335	42	C3H5O+
57.0699	373	C4H9+
59.0491	41	C3H7O+
65.0385	27	C5H5+
67.0542	280	C5H7+
69.0699	670	C5H9+
71.0491	101	C4H7O+
71.0855	114	C5H11+
72.0444	43	C3H6NO+
73.0648	30	C4H9O+
77.0385	41	C6H5+
79.0542	78	C6H7+
81.0335	93	C5H5O+
81.0699	249	C6H9+
83.0491	476	C5H7O+
83.0855	270	C6H11+
85.0648	81	C5H9O+
87.044	32	C4H7O2+
88.0216	28	C3H6NS+
91.0542	159	C7H7+
93.0699	108	C7H9+
95.0492	999	C6H7O+
95.0856	527	C7H11+
96.0525	856	CH8N2O3+
97.0649	61	C6H9O+
99.0441	97	C5H7O2+
99.0805	30	C6H11O+
101.0597	707	C5H9O2+
103.0753	19	C5H11O2+
105.0447	165	C6H5N2+
105.0699	25	C8H9+
106.0481	329	CH6N4O2+
107.0855	96	C8H11+
109.0648	119	C7H9O+
111.0441	235	C6H7O2+
111.0805	29	C7H11O+
113.0597	27	C6H9O2+
116.0528	20	C5H10NS+
121.0285	804	C7H5O2+
123.0804	49	C8H11O+
127.0755	32	C7H11O2+
129.0546	481	C6H9O3+
130.982	26	C7HNS+
137.0599	29	C8H9O2+
141.0005	492	C6H5O2S+
142.0039	714	C7N3O+
145.0511	76	C7H5N4+
147.0653	75	C6H11O4+
155.0703	36	C8H11O3+
158.0271	40	C6H8NO2S+
169.0274	43	C3H9N2O4S+
171.0266	19	C5H5N3O4+
173.0223	94	C8H3N3O2+
189.0171	132	C8H3N3O3+
