Mass spectrum: Tetracycline; LC-ESI-QFT; MS2; CE: 75; R=35000; [M-H]-
Name: Tetracycline
Name: (4S,4aS,5aS,6S,12aS)-4-(Dimethylamino)-3,6,10,12,12a-pentahydroxy-6-methyl-1,11-dioxo-1,4,4a,5,5a,6,11,12a-octahydro-2-tetracenecarboxamide
Name: tetrex
Formula: C22H24N2O8
Exact mass: 444.15327
SMILES: C[C@]1(c2cccc(c2C(=O)C3=C([C@]4([C@@H](C[C@@H]31)[C@@H](C(=C(C4=O)C(=O)N)O)N(C)C)O)O)O)O
InChI: InChI=1S/C22H24N2O8/c1-21(31)8-5-4-6-11(25)12(8)16(26)13-9(21)7-10-15(24(2)3)17(27)14(20(23)30)19(29)22(10,32)18(13)28/h4-6,9-10,15,25,27-28,31-32H,7H2,1-3H3,(H2,23,30)/t9-,10-,15-,21+,22-/m0/s1
Instrument: Q Exactive Orbitrap Thermo Scientific
Instrument type: LC-ESI-QFT
Ms type: MS2
Ion mode: NEGATIVE
Ionization: ESI
Fragmentation mode: HCD
Collision energy: 75 (nominal)
Resolution: 35000
Column name: XBridge C18 3.5um, 2.1x50mm, Waters
Retention time: 4.5 min
Base peak: 443.1464
Precursor m/z: 443.146
Precursor type: [M-H]-
m/z	relative intensity	assigned
63.024	97	C5H3-
65.0397	48	C5H5-
65.9985	74	C3NO-
68.9982	84	C3HO2-
83.0502	72	C5H7O-
84.0091	161	C3H2NO2-
86.0247	16	C3H4NO2-
87.0088	4	C3H3O3-
93.0346	219	C6H5O-
95.0138	35	C5H3O2-
96.0092	41	C4H2NO2-
96.9932	36	C4HO3-
105.0347	21	C7H5O-
109.0296	134	C6H5O2-
111.0452	122	C6H7O2-
117.0347	133	
119.0138	45	C7H3O2-
119.0501	24	C8H7O-
121.0295	28	C7H5O2-
123.0454	16	C7H7O2-
124.0166	16	C6H4O3-
125.0717	13	C6H9N2O-
126.0197	4	C5H4NO3-
126.0561	53	C6H8NO2-
133.0294	38	C8H5O2-
134.0249	49	C7H4NO2-
135.0089	112	C7H3O3-
135.0452	999	C8H7O2-
136.0402	15	C7H6NO2-
137.0242	11	C7H5O3-
139.0148	70	C5H3N2O3-
142.9985	7	C5H3O5-
145.0296	55	C9H5O2-
146.0375	7	C9H6O2-
147.0451	25	C9H7O2-
149.0245	18	C8H5O3-
152.0353	5	C7H6NO3-
159.0452	7	C10H7O2-
161.0244	372	C9H5O3-
162.0196	15	C8H4NO3-
163.0039	6	C8H3O4-
172.0525	27	C11H8O2-
173.0607	53	C11H9O2-
174.0319	7	C10H6O3-
175.0392	4	C10H7O3-
183.0811	6	C13H11O-
187.0398	30	C11H7O3-
214.0637	5	C13H10O3-
