Mass spectrum: Clomazone; LC-ESI-QFT; MS2; CE: 15; R=35000; [M+H]+
Name: Clomazone
Name: 2-(2-chlorobenzyl)-4,4-dimethyl-isoxazolidin-3-one
Formula: C12H14ClNO2
Exact mass: 239.07080
SMILES: N1(C(C(C)(C)CO1)=O)Cc1c(cccc1)Cl
InChI: InChI=1S/C12H14ClNO2/c1-12(2)8-16-14(11(12)15)7-9-5-3-4-6-10(9)13/h3-6H,7-8H2,1-2H3
Instrument: Q Exactive Orbitrap Thermo Scientific
Instrument type: LC-ESI-QFT
Ms type: MS2
Ion mode: POSITIVE
Ionization: ESI
Fragmentation mode: HCD
Collision energy: 15 (nominal)
Resolution: 35000
Column name: XBridge C18 3.5um, 2.1x50mm, Waters
Retention time: 9.5 min
Base peak: 240.0788
Precursor m/z: 240.0786
Precursor type: [M+H]+
m/z	relative intensity	assigned
89.0385	2	C7H5+
100.0757	4	C5H10NO+
114.0549	2	C5H8NO2+
125.0152	690	C7H6Cl+
128.0705	32	C6H10NO2+
140.0261	2	C7H7ClN+
240.0785	999	C12H15ClNO2+
