Mass spectrum: Aerucyclamide A; LC-ESI-QFT; MS2; CE: 90%; R=17500; [M+H]+
Name: Aerucyclamide A
Name: (1S,4S,7R,8S,18R)-4,18-bis[(2S)-butan-2-yl]-7-methyl-6-oxa-13,20-dithia-3,10,17,22,23,24-hexazatetracyclo[17.2.1.15,8.112,15]tetracosa-5(24),12(23),14,19(22)-tetraene-2,9,16-trione
Class: NA
Formula: C24H34N6O4S2
Exact mass: 534.2083
SMILES: CC[C@H](C)[C@@H]1NC(=O)[C@H]2CSC(=N2)[C@H](NC(=O)c3csc(CNC(=O)[C@H]4N=C1O[C@@H]4C)n3)[C@@H](C)CC
InChI: InChI=1S/C24H34N6O4S2/c1-6-11(3)17-23-30-19(13(5)34-23)22(33)25-8-16-26-14(9-35-16)20(31)29-18(12(4)7-2)24-27-15(10-36-24)21(32)28-17/h9,11-13,15,17-19H,6-8,10H2,1-5H3,(H,25,33)(H,28,32)(H,29,31)/t11-,12-,13+,15+,17-,18+,19-/m0/s1
Instrument: Q Exactive Plus Orbitrap Thermo Scientific
Instrument type: LC-ESI-QFT
Ms type: MS2
Ion mode: POSITIVE
Ionization: ESI
Fragmentation mode: HCD
Collision energy: 90 % (nominal)
Resolution: 17500
Column name: XBridge C18 3.5um, 2.1x50mm, Waters
Retention time: 10.697 min
Base peak: 164.9845
Precursor m/z: 535.2156
Precursor type: [M+H]+
m/z	relative intensity	assigned
53.0023	76	C3HO+
54.0339	164	C3H4N+
56.0132	133	C2H2NO+
56.0495	680	C3H6N+
56.9794	72	C2HS+
57.0335	53	C3H5O+
57.0699	43	C4H9+
57.9872	117	C2H2S+
58.995	597	C2H3S+
66.8032	77	
67.0541	58	C5H7+
68.0494	120	C4H6N+
69.0335	135	C4H5O+
69.0446	117	C3H5N2+
69.0698	665	C5H9+
70.065	51	C4H8N+
70.9949	117	C3H3S+
71.9901	117	C2H2NS+
75.0441	39	C3H7O2+
80.0494	97	C5H6N+
81.0447	44	C4H5N2+
81.0572	40	C5H7N+
82.0285	45	C4H4NO+
82.0653	48	C5H8N+
83.0599	40	C4H7N2+
84.0443	346	C4H6NO+
84.0807	129	C5H10N+
85.0107	37	C4H5S+
85.0396	59	C3H5N2O+
86.0058	999	C3H4NS+
86.0964	249	C5H12N+
86.9898	42	C3H3OS+
91.054	47	C7H7+
94.0651	138	C6H8N+
95.0603	65	C5H7N2+
96.0442	201	C5H6NO+
96.0808	45	C6H10N+
97.0397	51	C4H5N2O+
98.0059	706	C4H4NS+
99.0137	221	C4H5NS+
99.985	190	C3H2NOS+
106.0648	47	C7H8N+
108.0806	45	C7H10N+
110.0601	89	C6H8NO+
111.0007	59	C4H3N2S+
111.9851	72	C4H2NOS+
112.0214	380	C5H6NS+
113.0165	149	C4H5N2S+
113.0293	76	C5H7NS+
114.0007	85	C4H4NOS+
116.0166	164	C4H6NOS+
121.0879	36	H15N3O2S+
124.0215	284	C6H6NS+
124.0758	37	C7H10NO+
125.0167	52	C5H5N2S+
125.0295	34	C6H7NS+
125.1071	39	C7H13N2+
126.0007	50	C5H4NOS+
129.9956	841	C4H4NO2S+
131.0274	67	C4H7N2OS+
139.045	61	C7H9NS+
141.0117	327	C5H5N2OS+
143.0034	97	C5H5NO2S+
144.0112	331	C5H6NO2S+
150.037	43	C8H8NS+
151.0327	47	C7H7N2S+
153.0119	65	C6H5N2OS+
154.0682	77	H16N3O2S2+
157.0062	168	C5H5N2O2S+
159.0221	363	C5H7N2O2S+
167.0019	178	C5H3N4OS+
171.0219	47	C6H7N2O2S+
179.9815	72	C7H4N2S2+
180.0351	65	C8H8N2OS+
185.0015	622	C6H5N2O3S+
185.0375	145	C7H9N2O2S+
207.0052	63	C3H5N5O4S+
