Mass spectrum: Linuron; LC-ESI-ITFT; MS2; CE: 75%; R=7500; [M+H]+
Name: Linuron
Name: 3-(3,4-dichlorophenyl)-1-methoxy-1-methyl-urea
Formula: C9H10Cl2N2O2
Exact mass: 248.0114
SMILES: c1(cc(c(Cl)cc1)Cl)NC(N(OC)C)=O
InChI: InChI=1S/C9H10Cl2N2O2/c1-13(15-2)9(14)12-6-3-4-7(10)8(11)5-6/h3-5H,1-2H3,(H,12,14)
Instrument: LTQ Orbitrap XL Thermo Scientific
Instrument type: LC-ESI-ITFT
Ms type: MS2
Ion mode: POSITIVE
Ionization: ESI
Fragmentation mode: HCD
Collision energy: 75 % (nominal)
Resolution: 7500
Column name: XBridge C18 3.5um, 2.1x50mm, Waters
Retention time: 10.0 min
Base peak: 249.0194
Precursor m/z: 249.0192
Precursor type: [M+H]+
m/z	relative intensity	assigned
60.0444	29	C2H6NO+
123.9947	106	C9O+
125.0026	476	C6H4ClN+
126.0108	13	C6H5ClN+
127.0184	14	C6H6ClN+
132.9606	999	C5H3Cl2+
133.968	14	C5H4Cl2+
142.0046	18	C9H2O2+
153.0214	372	C7H6ClN2+
159.9716	829	C6H4Cl2N+
160.9794	827	C6H5Cl2N+
165.0214	23	C8H6ClN2+
167.0007	17	C7H4ClN2O+
173.9876	10	C7H6Cl2N+
181.0162	195	C8H6ClN2O+
182.0242	274	C8H7ClN2O+
216.993	63	C8H7Cl2N2O+
