Mass spectrum: 2,4-Dimethylaniline; LC-ESI-QFT; MS2; CE: 150%; R=17500; [M+H]+
Name: 2,4-Dimethylaniline
Formula: C8H11N
Exact mass: 121.0891
SMILES: CC1=CC(=C(C=C1)N)C
InChI: InChI=1S/C8H11N/c1-6-3-4-8(9)7(2)5-6/h3-5H,9H2,1-2H3
Instrument: Exploris 240 Orbitrap Thermo Scientific
Instrument type: LC-ESI-QFT
Ms type: MS2
Ion mode: POSITIVE
Ionization: ESI
Fragmentation mode: HCD
Collision energy: 150 % (nominal)
Resolution: 17500
Column name: XBridge C18 3.5um, 2.1x50mm, Waters
Retention time: 2.610 min
Base peak: 122.0964
Precursor m/z: 122.0964
Precursor type: [M+H]+
m/z	relative intensity	assigned
51.0229	368	C4H3+
53.0386	168	C4H5+
65.0386	96	C5H5+
66.0464	17	C5H6+
77.0386	999	C6H5+
78.0464	18	C6H6+
79.0543	430	C6H7+
89.0387	14	C7H5+
90.0463	10	C7H6+
102.0464	5	C8H6+
103.0542	172	C8H7+
104.0622	5	C8H8+
105.0695	55	C8H9+
106.0652	455	C7H8N+
107.0731	103	C7H9N+
