Mass spectrum: Primaquine; LC-ESI-QFT; MS2; CE: 90; R=35000; [M+H]+
Name: Primaquine
Name: (4-amino-1-methyl-butyl)-(6-methoxy-8-quinolyl)amine
Formula: C15H21N3O
Exact mass: 259.16846
SMILES: O(c1cc(NC(C)CCCN)c2ncccc2c1)C
InChI: InChI=1S/C15H21N3O/c1-11(5-3-7-16)18-14-10-13(19-2)9-12-6-4-8-17-15(12)14/h4,6,8-11,18H,3,5,7,16H2,1-2H3
Instrument: Q Exactive Orbitrap Thermo Scientific
Instrument type: LC-ESI-QFT
Ms type: MS2
Ion mode: POSITIVE
Ionization: ESI
Fragmentation mode: HCD
Collision energy: 90 (nominal)
Resolution: 35000
Column name: XBridge C18 3.5um, 2.1x50mm, Waters
Retention time: 6.4 min
Base peak: 260.1758
Precursor m/z: 260.1757
Precursor type: [M+H]+
m/z	relative intensity	assigned
53.0023	21	C3HO+
53.9976	3	C2NO+
67.0542	24	C5H7+
67.9894	2	C3O2+
69.0699	587	C5H9+
86.0964	515	C5H12N+
117.0572	17	C8H7N+
130.0653	13	C9H8N+
131.0603	89	C8H7N2+
132.0682	999	C8H8N2+
143.0603	23	C9H7N2+
144.0682	278	C9H8N2+
145.076	157	C9H9N2+
157.0758	13	C10H9N2+
159.0678	35	C10H9NO+
160.063	408	C9H8N2O+
161.071	2	C9H9N2O+
172.063	65	C10H8N2O+
173.0709	19	C10H9N2O+
174.0549	15	C10H8NO2+
174.0787	99	C10H10N2O+
175.0865	550	C10H11N2O+
185.0711	11	C11H9N2O+
186.0788	37	C11H10N2O+
187.0865	137	C11H11N2O+
198.079	2	C12H10N2O+
198.115	12	C13H14N2+
199.0867	9	C12H11N2O+
200.0947	3	C12H12N2O+
201.1019	3	C12H13N2O+
226.1102	10	C14H14N2O+
241.1334	27	C15H17N2O+
