Mass spectrum: Isoproturon; LC-ESI-ITFT; MS2; CE: 75%; R=7500; [M+H]+
Name: Isoproturon
Name: 1,1-dimethyl-3-(4-propan-2-ylphenyl)urea
Formula: C12H18N2O
Exact mass: 206.1414
SMILES: c1(ccc(C(C)C)cc1)NC(N(C)C)=O
InChI: InChI=1S/C12H18N2O/c1-9(2)10-5-7-11(8-6-10)13-12(15)14(3)4/h5-9H,1-4H3,(H,13,15)
Instrument: LTQ Orbitrap XL Thermo Scientific
Instrument type: LC-ESI-ITFT
Ms type: MS2
Ion mode: POSITIVE
Ionization: ESI
Fragmentation mode: HCD
Collision energy: 75 % (nominal)
Resolution: 7500
Column name: XBridge C18 3.5um, 2.1x50mm, Waters
Retention time: 8.7 min
Base peak: 207.1493
Precursor m/z: 207.1492
Precursor type: [M+H]+
m/z	relative intensity	assigned
72.0444	999	C3H6NO+
77.0386	3	C6H5+
91.0543	26	C7H7+
92.0494	10	C6H6N+
93.0698	5	C7H9+
94.0654	3	C6H8N+
107.0854	19	C8H11+
117.0697	10	C9H9+
119.0725	10	C8H9N+
120.0445	12	C7H6NO+
134.0964	99	C9H12N+
147.0918	11	C9H11N2+
165.1015	8	C9H13N2O+
