Mass spectrum: 2-(3-Hydroxycyclohexyl)-5-(2-methyl-2-octanyl)phenol; LC-ESI-QFT; MS2; CE: 30; R=35000; [M+H]+
Name: 2-(3-Hydroxycyclohexyl)-5-(2-methyl-2-octanyl)phenol
Name: CP47.497
Name: 2-(3-hydroxycyclohexyl)-5-(2-methyloctan-2-yl)phenol
Formula: C21H34O2
Exact mass: 318.25588
SMILES: CCCCCCC(C)(C)C1=CC(=C(C=C1)C2CCCC(C2)O)O
InChI: InChI=1S/C21H34O2/c1-4-5-6-7-13-21(2,3)17-11-12-19(20(23)15-17)16-9-8-10-18(22)14-16/h11-12,15-16,18,22-23H,4-10,13-14H2,1-3H3
Instrument: Q Exactive Plus Orbitrap Thermo Scientific
Instrument type: LC-ESI-QFT
Ms type: MS2
Ion mode: POSITIVE
Ionization: ESI
Fragmentation mode: HCD
Collision energy: 30 (nominal)
Resolution: 35000
Column name: XBridge C18 3.5um, 2.1x50mm, Waters
Retention time: 17.2 min
Base peak: 391.2833
Precursor m/z: 319.2632
Precursor type: [M+H]+
m/z	relative intensity	assigned
57.0699	168	C4H9+
67.0543	1	C5H7+
69.0698	5	C5H9+
71.0855	354	C5H11+
81.0698	25	C6H9+
85.1011	201	C6H13+
89.0597	2	C4H9O2+
107.0491	353	C7H7O+
119.0491	1	C8H7O+
121.0647	26	C8H9O+
127.148	9	C9H19+
133.0645	2	C9H9O+
135.0801	2	C9H11O+
148.0881	2	C10H12O+
149.0961	8	C10H13O+
163.1118	2	C11H15O+
175.1117	201	C12H15O+
233.19	999	C16H25O+
301.2526	31	C21H33O+
