Mass spectrum: Naproxen; LC-ESI-ITFT; MS2; CE: 15%; R=15000; [M+H]+
Name: Naproxen
Name: 2-(6-methoxy-2-naphthalenyl)propanoic acid
Formula: C14H14O3
Exact mass: 230.0943
SMILES: CC(C1=CC2=C(C=C1)C=C(C=C2)OC)C(=O)O
InChI: InChI=1S/C14H14O3/c1-9(14(15)16)10-3-4-12-8-13(17-2)6-5-11(12)7-10/h3-9H,1-2H3,(H,15,16)
Instrument: LTQ Orbitrap XL Thermo Scientific
Instrument type: LC-ESI-ITFT
Ms type: MS2
Ion mode: POSITIVE
Ionization: ESI
Fragmentation mode: HCD
Collision energy: 15 % (nominal)
Resolution: 15000
Column name: XBridge C18 3.5um, 2.1x50mm, Waters
Retention time: 10.2 min
Base peak: 253.0841
Precursor m/z: 231.1016
Precursor type: [M+H]+
m/z	relative intensity	assigned
185.096	801	C13H13O+
231.1015	999	C14H15O3+
