Mass spectrum: Metosulam; LC-ESI-QFT; MS2; CE: 30; R=35000; [M+H]+
Name: Metosulam
Name: N-(2,6-dichloro-3-methyl-phenyl)-5,7-dimethoxy-[1,2,4]triazolo[1,5-a]pyrimidine-2-sulfonamide
Formula: C14H13Cl2N5O4S
Exact mass: 417.00653
SMILES: Clc1c(ccc(Cl)c1NS(=O)(=O)c2nc3nc(OC)cc(OC)n3n2)C
InChI: InChI=1S/C14H13Cl2N5O4S/c1-7-4-5-8(15)12(11(7)16)20-26(22,23)14-18-13-17-9(24-2)6-10(25-3)21(13)19-14/h4-6,20H,1-3H3
Instrument: Q Exactive Orbitrap Thermo Scientific
Instrument type: LC-ESI-QFT
Ms type: MS2
Ion mode: POSITIVE
Ionization: ESI
Fragmentation mode: HCD
Collision energy: 30 (nominal)
Resolution: 35000
Column name: XBridge C18 3.5um, 2.1x50mm, Waters
Retention time: 7.6 min
Base peak: 418.0141
Precursor m/z: 418.0138
Precursor type: [M+H]+
m/z	relative intensity	assigned
96.0556	1	C4H6N3+
136.0506	1	C6H6N3O+
139.0502	1	C6H7N2O2+
140.026	5	C7H7ClN+
151.0615	2	C6H7N4O+
157.0607	1	C6H9N2O3+
164.033	1	C6H4N4O2+
165.0406	1	C6H5N4O2+
173.9874	59	C7H6Cl2N+
174.995	999	C7H7Cl2N+
179.0562	7	C7H7N4O2+
180.04	1	C7H6N3O3+
180.0639	4	C7H8N4O2+
181.0718	6	C7H9N4O2+
189.9821	78	C7H6Cl2NO+
190.9897	6	C6HN5OS+
228.0312	38	C7H8N4O3S+
229.0392	9	C7H9N4O3S+
237.9491	30	C7H6Cl2NO2S+
240.0089	5	C10H8Cl2N3+
261.0289	9	C4H12ClN5O4S+
283.1062	1	C14H13N5O2+
284.1138	2	C14H14N5O2+
303.0516	3	C13H10ClN5O2+
304.0596	4	C13H11ClN5O2+
318.0752	15	C14H13ClN5O2+
319.0832	18	C14H14ClN5O2+
322.0259	5	C13H10Cl2N5O+
354.0519	48	C14H14Cl2N5O2+
418.0139	111	C14H14Cl2N5O4S+
