Mass spectrum: Anabaenopeptin B; LC-ESI-QFT; MS2; CE: 90%; R=17500; [M+H]+
Name: Anabaenopeptin B
Name: (2S)-2-[[(3S,6S,9S,12S,15R)-3-benzyl-9-[2-(4-hydroxyphenyl)ethyl]-6,7-dimethyl-2,5,8,11,14-pentaoxo-12-propan-2-yl-1,4,7,10,13-pentazacyclononadec-15-yl]carbamoylamino]-5-(diaminomethylideneamino)pentanoic acid
Class: NA
Formula: C41H60N10O9
Exact mass: 836.4545
SMILES: CC(C)[C@@H]1NC(=O)[C@@H](CCCCNC(=O)[C@H](Cc2ccccc2)NC(=O)[C@H](C)N(C)C(=O)[C@H](CCc3ccc(O)cc3)NC1=O)NC(=O)N[C@@H](CCCNC(N)=N)C(O)=O
InChI: InChI=1S/C41H60N10O9/c1-24(2)33-37(56)46-30(20-17-26-15-18-28(52)19-16-26)38(57)51(4)25(3)34(53)47-32(23-27-11-6-5-7-12-27)35(54)44-21-9-8-13-29(36(55)50-33)48-41(60)49-31(39(58)59)14-10-22-45-40(42)43/h5-7,11-12,15-16,18-19,24-25,29-33,52H,8-10,13-14,17,20-23H2,1-4H3,(H,44,54)(H,46,56)(H,47,53)(H,50,55)(H,58,59)(H4,42,43,45)(H2,48,49,60)/t25-,29+,30-,31-,32-,33-/m0/s1
Instrument: Q Exactive Plus Orbitrap Thermo Scientific
Instrument type: LC-ESI-QFT
Ms type: MS2
Ion mode: POSITIVE
Ionization: ESI
Fragmentation mode: HCD
Collision energy: 90 % (nominal)
Resolution: 17500
Column name: XBridge C18 3.5um, 2.1x50mm, Waters
Retention time: 5.815 min
Base peak: 419.2347
Precursor m/z: 837.4617
Precursor type: [M+H]+
m/z	relative intensity	assigned
58.0652	81	C3H8N+
60.0557	107	CH6N3+
67.0542	5	C5H7+
68.0495	34	C4H6N+
70.0651	999	C4H8N+
71.0491	96	C4H7O+
72.0808	17	C4H10N+
73.0634	30	C2H7N3+
84.0808	175	C5H10N+
85.0761	4	C4H9N2+
86.0601	15	C4H8NO+
88.0755	4	C4H10NO+
95.0492	6	C6H7O+
95.0604	5	C5H7N2+
96.0442	22	C5H6NO+
97.0759	4	C5H9N2+
99.0441	13	C5H7O2+
103.0542	22	C8H7+
105.0698	5	C8H9+
107.0491	49	C7H7O+
112.0869	12	C5H10N3+
113.0712	16	C5H9N2O+
114.0549	81	C5H8NO2+
120.0808	51	C8H10N+
130.0974	34	C5H12N3O+
