Mass spectrum: Foramsulfuron; LC-ESI-ITFT; MS2; CE: 75%; R=7500; [M+H]+
Name: Foramsulfuron
Name: 2-[(4,6-dimethoxypyrimidin-2-yl)carbamoylsulfamoyl]-4-formamido-N,N-dimethyl-benzamide
Formula: C17H20N6O7S
Exact mass: 452.1114
SMILES: O=C(Nc1nc(OC)cc(OC)n1)NS(=O)(=O)c2cc(NC=O)ccc2C(=O)N(C)C
InChI: InChI=1S/C17H20N6O7S/c1-23(2)15(25)11-6-5-10(18-9-24)7-12(11)31(27,28)22-17(26)21-16-19-13(29-3)8-14(20-16)30-4/h5-9H,1-4H3,(H,18,24)(H2,19,20,21,22,26)
Instrument: LTQ Orbitrap XL Thermo Scientific
Instrument type: LC-ESI-ITFT
Ms type: MS2
Ion mode: POSITIVE
Ionization: ESI
Fragmentation mode: HCD
Collision energy: 75 % (nominal)
Resolution: 7500
Column name: XBridge C18 3.5um, 2.1x50mm, Waters
Retention time: 7.8 min
Base peak: 475.1014
Precursor m/z: 453.1187
Precursor type: [M+H]+
m/z	relative intensity	assigned
65.0386	25	C5H5+
71.0604	55	C3H7N2+
82.0289	36	C4H4NO+
83.024	999	C3H3N2O+
92.0496	69	C6H6N+
93.0084	36	C4HN2O+
100.0392	91	C4H6NO2+
105.0447	104	C6H5N2+
107.06	29	C6H7N2+
120.0444	174	C7H6NO+
121.0284	85	C7H5O2+
135.0551	69	C7H7N2O+
136.0391	34	C7H6NO2+
139.0502	688	C6H7N2O2+
148.0394	97	C8H6NO2+
156.0768	89	C6H10N3O2+
157.0607	636	C6H9N2O3+
161.0349	59	C8H5N2O2+
163.0506	45	C8H7N2O2+
182.0559	679	C7H8N3O3+
212.0006	36	C14N2O+
