Mass spectrum: 4,5-dihydro-5,5-diphenyl-1,2-oxazole-3-carboxylic acid, ethyl ester; LC-ESI-QFT; MS2; CE: 60; R=35000; [M+H]+
Name: 4,5-dihydro-5,5-diphenyl-1,2-oxazole-3-carboxylic acid, ethyl ester
Name: 5,5-diphenyl-2-isoxazoline-3-carboxylic acid ethyl ester
Formula: C18H17NO3
Exact mass: 295.12084
SMILES: C1(C(OCC)=O)=NOC(C1)(c1ccccc1)c1ccccc1
InChI: InChI=1S/C18H17NO3/c1-2-21-17(20)16-13-18(22-19-16,14-9-5-3-6-10-14)15-11-7-4-8-12-15/h3-12H,2,13H2,1H3
Instrument: Q Exactive Orbitrap Thermo Scientific
Instrument type: LC-ESI-QFT
Ms type: MS2
Ion mode: POSITIVE
Ionization: ESI
Fragmentation mode: HCD
Collision energy: 60 (nominal)
Resolution: 35000
Column name: XBridge C18 3.5um, 2.1x50mm, Waters
Retention time: 12.7 min
Base peak: 296.1281
Precursor m/z: 296.1281
Precursor type: [M+H]+
m/z	relative intensity	assigned
53.0388	1	C4H5+
70.0652	1	C4H8N+
75.0229	1	C6H3+
77.0385	29	C6H5+
81.0335	1	C5H5O+
91.0541	7	C7H7+
95.0491	56	C6H7O+
103.0542	9	C8H7+
104.0495	18	C7H6N+
105.0335	341	C7H5O+
105.0447	36	C6H5N2+
116.0494	4	C8H6N+
128.0494	32	C9H6N+
129.0446	6	C8H5N2+
130.0288	9	C8H4NO+
146.06	12	C9H8NO+
151.0544	10	C12H7+
152.062	6	C12H8+
153.0696	9	C12H9+
164.0621	2	C13H8+
165.0698	31	C13H9+
166.0777	3	C13H10+
167.0856	7	C13H11+
169.0647	22	C12H9O+
175.0538	1	C14H7+
176.062	203	C14H8+
177.0698	276	C14H9+
178.0658	21	C13H8N+
178.0776	100	C14H10+
179.0604	4	C12H7N2+
179.0729	6	C13H9N+
179.0854	34	C14H11+
180.0808	1	C13H10N+
181.0647	8	C13H9O+
189.0698	3	C15H9+
190.0651	3	C14H8N+
190.0774	4	C15H10+
191.0855	99	C15H11+
192.0805	1	C14H10N+
192.0935	1	C15H12+
193.0886	20	C14H11N+
194.0964	11	C14H12N+
195.0806	9	C14H11O+
196.0759	8	C13H10NO+
201.0569	4	C15H7N+
202.0652	20	C15H8N+
203.0729	465	C15H9N+
204.0807	999	C15H10N+
205.0647	5	C15H9O+
205.0759	24	C14H9N2+
205.0884	24	C15H11N+
205.0966	1	C11H13N2O2+
206.0963	25	C15H12N+
207.0804	243	C15H11O+
218.0962	3	C16H12N+
219.104	2	C16H13N+
220.0758	17	C15H10NO+
222.0913	6	C15H12NO+
232.0757	134	C16H10NO+
233.0832	3	C16H11NO+
235.0754	10	C16H11O2+
