Mass spectrum: Bromazepam; LC-ESI-QFT; MS2; CE: 75; R=35000; [M+H]+
Name: Bromazepam
Name: 7-bromo-5-pyridin-2-yl-1,3-dihydro-1,4-benzodiazepin-2-one
Formula: C14H10BrN3O
Exact mass: 315.00072
SMILES: C1C(=O)NC2=C(C=C(C=C2)Br)C(=N1)C3=CC=CC=N3
InChI: InChI=1S/C14H10BrN3O/c15-9-4-5-11-10(7-9)14(17-8-13(19)18-11)12-3-1-2-6-16-12/h1-7H,8H2,(H,18,19)
Instrument: Q Exactive Plus Orbitrap Thermo Scientific
Instrument type: LC-ESI-QFT
Ms type: MS2
Ion mode: POSITIVE
Ionization: ESI
Fragmentation mode: HCD
Collision energy: 75 (nominal)
Resolution: 35000
Column name: XBridge C18 3.5um, 2.1x50mm, Waters
Retention time: 7.0 min
Base peak: 316.0073
Precursor m/z: 316.008
Precursor type: [M+H]+
m/z	relative intensity	assigned
51.0228	1	C4H3+
53.0385	4	C4H5+
65.0386	2	C5H5+
77.0384	1	C6H5+
78.0337	20	C5H4N+
78.0463	7	C6H6+
79.0416	11	C5H5N+
80.0494	130	C5H6N+
92.0494	3	C6H6N+
93.0573	1	C6H7N+
95.0365	4	C5H5NO+
96.0443	56	C5H6NO+
103.0416	1	C7H5N+
104.0494	63	C7H6N+
105.0447	18	C6H5N2+
105.0573	113	C7H7N+
107.0603	10	C6H7N2+
110.06	5	C6H8NO+
117.0446	3	C7H5N2+
119.0604	2	C7H7N2+
124.0394	4	C6H6NO2+
129.0572	5	C9H7N+
130.0526	11	C8H6N2+
130.0651	45	C9H8N+
131.0603	51	C8H7N2+
133.0522	15	C8H7NO+
154.0651	38	C11H8N+
155.0601	4	C10H7N2+
155.0729	23	C11H9N+
156.0679	3	C10H8N2+
156.9643	2	C6H6Br+
157.076	9	C10H9N2+
162.0421	3	C8H6N2O2+
165.0572	11	C12H7N+
166.0652	4	C12H8N+
167.073	5	C12H9N+
168.0682	2	C11H8N2+
168.081	4	C12H10N+
169.076	29	C11H9N2+
179.0603	21	C12H7N2+
180.0681	21	C12H8N2+
181.076	350	C12H9N2+
182.0838	999	C12H10N2+
182.9548	2	C6H4BrN2+
183.0679	1	C12H9NO+
183.0792	1	C11H9N3+
183.0913	1	C12H11N2+
183.9755	186	C7H7BrN+
191.0603	1	C13H7N2+
192.0681	43	C13H8N2+
193.076	44	C13H9N2+
193.96	4	C8H5BrN+
194.071	5	C12H8N3+
194.0839	4	C13H10N2+
194.9681	1	C8H6BrN+
207.0791	50	C13H9N3+
208.0869	520	C13H10N3+
208.9709	88	C8H6BrN2+
209.0947	201	C13H11N3+
209.9786	4	C8H7BrN2+
210.0787	6	C13H10N2O+
211.9706	2	C8H7BrNO+
212.0577	2	C12H8N2O2+
214.0738	3	C12H10N2O2+
218.071	1	C14H8N3+
220.9829	2	C10H8BrN+
222.0662	1	C13H8N3O+
231.9762	3	C11H7BrN+
233.9914	2	C11H9BrN+
236.082	7	C14H10N3O+
236.9656	3	C9H6BrN2O+
243.9762	4	C12H7BrN+
244.9834	30	C12H8BrN+
258.9866	207	C12H8BrN2+
259.9943	262	C12H9BrN2+
261.0021	36	C12H10BrN2+
270.9863	2	C13H8BrN2+
271.9815	1	C12H7BrN3+
285.9971	8	C13H9BrN3+
286.9812	1	C13H8BrN2O+
287.0053	3	C13H10BrN3+
288.0133	2	C13H11BrN3+
