Mass spectrum: Mepanipyrim; LC-ESI-QFT; MS2; CE: 75; R=35000; [M+H]+
Name: Mepanipyrim
Name: (4-methyl-6-prop-1-ynyl-pyrimidin-2-yl)-phenyl-amine
Formula: C14H13N3
Exact mass: 223.11095
SMILES: n1c(C#CC)cc(nc1Nc2ccccc2)C
InChI: InChI=1S/C14H13N3/c1-3-7-13-10-11(2)15-14(17-13)16-12-8-5-4-6-9-12/h4-6,8-10H,1-2H3,(H,15,16,17)
Instrument: Q Exactive Orbitrap Thermo Scientific
Instrument type: LC-ESI-QFT
Ms type: MS2
Ion mode: POSITIVE
Ionization: ESI
Fragmentation mode: HCD
Collision energy: 75 (nominal)
Resolution: 35000
Column name: XBridge C18 3.5um, 2.1x50mm, Waters
Retention time: 11.1 min
Base peak: 224.1188
Precursor m/z: 224.1182
Precursor type: [M+H]+
m/z	relative intensity	assigned
51.0231	2	C4H3+
53.0388	4	C4H5+
63.023	27	C5H3+
65.0387	105	C5H5+
66.034	140	C4H4N+
67.0292	49	C3H3N2+
67.0418	10	C4H5N+
67.0543	16	C5H7+
68.0496	8	C4H6N+
77.0387	68	C6H5+
78.034	10	C5H4N+
78.0466	14	C6H6+
79.0544	336	C6H7+
80.0496	126	C5H6N+
81.0336	5	C5H5O+
81.0574	11	C5H7N+
82.0653	27	C5H8N+
89.0387	21	C7H5+
90.034	96	C6H4N+
91.0292	3	C5H3N2+
91.0418	11	C6H5N+
91.0544	20	C7H7+
92.0496	45	C6H6N+
93.045	5	C5H5N2+
93.0575	57	C6H7N+
94.0653	185	C6H8N+
95.0493	312	C6H7O+
96.0445	27	C5H6NO+
103.0418	1	C7H5N+
103.0545	2	C8H7+
104.0497	377	C7H6N+
105.0449	88	C6H5N2+
105.0574	12	C7H7N+
106.0653	999	C7H8N+
107.0605	72	C6H7N2+
107.073	37	C7H9N+
114.034	2	C8H4N+
115.0545	92	C9H7+
116.0496	23	C8H6N+
117.0575	18	C8H7N+
118.0528	13	C7H6N2+
118.0653	71	C8H8N+
119.0606	184	C7H7N2+
120.0444	2	C7H6NO+
121.0762	188	C7H9N2+
122.0603	33	C7H8NO+
124.0759	27	C7H10NO+
128.0499	5	C9H6N+
129.0451	4	C8H5N2+
129.0701	19	C10H9+
130.0402	3	C7H4N3+
130.0528	3	C8H6N2+
130.0654	14	C9H8N+
131.0607	281	C8H7N2+
132.0685	67	C8H8N2+
133.0761	2	C8H9N2+
139.0547	18	C11H7+
139.0869	49	C7H11N2O+
140.0497	38	C10H6N+
141.0572	3	C10H7N+
141.0698	4	C11H9+
142.0655	139	C10H8N+
143.0607	172	C9H7N2+
143.0729	25	C10H9N+
146.0604	4	C9H8NO+
146.0715	11	C8H8N3+
147.0794	57	C8H9N3+
148.0872	3	C8H10N3+
149.0714	20	C8H9N2O+
152.0623	11	C12H8+
153.0701	19	C12H9+
154.0658	17	C11H8N+
155.0603	9	C10H7N2+
155.0735	9	C11H9N+
156.0683	8	C10H8N2+
156.0811	28	C11H10N+
157.0765	18	C10H9N2+
157.0892	4	C11H11N+
158.0843	4	C10H10N2+
158.0965	3	C11H12N+
159.092	30	C10H11N2+
160.076	58	C10H10NO+
165.0578	2	C12H7N+
166.0654	44	C12H8N+
167.0607	12	C11H7N2+
167.0733	45	C12H9N+
168.0685	115	C11H8N2+
169.0642	3	C10H7N3+
169.0763	14	C11H9N2+
170.0966	4	C12H12N+
178.0653	4	C13H8N+
179.0735	22	C13H9N+
180.0812	125	C13H10N+
181.0763	72	C12H9N2+
181.0889	13	C13H11N+
182.0843	205	C12H10N2+
183.0797	24	C11H9N3+
183.0921	117	C12H11N2+
184.0874	91	C11H10N3+
184.1	13	C12H12N2+
185.0714	9	C11H9N2O+
190.0655	12	C14H8N+
191.0736	9	C14H9N+
192.0685	123	C13H8N2+
193.0768	2	C13H9N2+
194.0842	5	C13H10N2+
195.0923	36	C13H11N2+
196.0765	2	C13H10NO+
196.0869	2	C12H10N3+
196.1	31	C13H12N2+
197.0951	3	C12H11N3+
197.1082	24	C13H13N2+
205.0766	110	C14H9N2+
206.0843	287	C14H10N2+
207.0922	196	C14H11N2+
208.0873	130	C13H10N3+
208.0998	39	C14H12N2+
209.0952	237	C13H11N3+
222.103	117	C14H12N3+
223.1109	66	C14H13N3+
224.1187	793	C14H14N3+
