Mass spectrum: Metobromuron; LC-ESI-QFT; MS2; CE: 75%; R=17500; [M+H]+
Name: Metobromuron
Name: 3-(4-bromophenyl)-1-methoxy-1-methylurea
Formula: C9H11BrN2O2
Exact mass: 258.0004
SMILES: CN(C(=O)NC1=CC=C(C=C1)Br)OC
InChI: InChI=1S/C9H11BrN2O2/c1-12(14-2)9(13)11-8-5-3-7(10)4-6-8/h3-6H,1-2H3,(H,11,13)
Instrument: Exploris 240 Orbitrap Thermo Scientific
Instrument type: LC-ESI-QFT
Ms type: MS2
Ion mode: POSITIVE
Ionization: ESI
Fragmentation mode: HCD
Collision energy: 75 % (nominal)
Resolution: 17500
Column name: XBridge C18 3.5um, 2.1x50mm, Waters
Retention time: 6.748 min
Base peak: 259.0077
Precursor m/z: 259.0077
Precursor type: [M+H]+
m/z	relative intensity	assigned
60.0444	107	C2H6NO+
61.0525	13	C2H7NO+
62.0601	58	C2H8NO+
65.0387	21	C5H5+
90.0338	32	C6H4N+
91.0416	999	C6H5N+
92.0496	124	C6H6N+
119.0604	366	C7H7N2+
120.0685	13	C7H8N2+
131.0605	14	C8H7N2+
142.9491	287	C5H4Br+
147.0553	168	C8H7N2O+
148.0631	195	C8H8N2O+
169.96	875	C6H5BrN+
170.9678	623	C6H6BrN+
226.9816	62	C8H8BrN2O+
