Mass spectrum: Doxepine; LC-ESI-QFT; MS2; CE: 150; R=35000; [M+H]+
Name: Doxepine
Name: Doxepin
Name: 3-(6H-benzo[c][1]benzoxepin-11-ylidene)-N,N-dimethylpropan-1-amine
Formula: C19H21NO
Exact mass: 279.16231
SMILES: CN(C)CCC=C1C2=CC=CC=C2COC3=CC=CC=C31
InChI: InChI=1S/C19H21NO/c1-20(2)13-7-11-17-16-9-4-3-8-15(16)14-21-19-12-6-5-10-18(17)19/h3-6,8-12H,7,13-14H2,1-2H3
Instrument: Q Exactive Plus Orbitrap Thermo Scientific
Instrument type: LC-ESI-QFT
Ms type: MS2
Ion mode: POSITIVE
Ionization: ESI
Fragmentation mode: HCD
Collision energy: 150 (nominal)
Resolution: 35000
Column name: XBridge C18 3.5um, 2.1x50mm, Waters
Retention time: 6.8 min
Base peak: 280.1689
Precursor m/z: 280.1696
Precursor type: [M+H]+
m/z	relative intensity	assigned
50.0151	125	C4H2+
51.023	116	C4H3+
52.0308	1	C4H4+
53.0022	15	C3HO+
53.0386	174	C4H5+
53.9974	1	C2NO+
54.0339	2	C3H4N+
55.0179	35	C3H3O+
56.0495	21	C3H6N+
57.0573	1	C3H7N+
58.0651	134	C3H8N+
61.0072	2	C5H+
62.0151	13	C5H2+
63.0229	98	C5H3+
65.0386	421	C5H5+
67.0416	2	C4H5N+
67.0542	2	C5H7+
67.9894	2	C3O2+
68.0495	23	C4H6N+
69.0573	5	C4H7N+
70.0651	40	C4H8N+
72.0807	1	C4H10N+
74.0151	2	C6H2+
75.0228	18	C6H3+
76.0307	5	C6H4+
77.0385	345	C6H5+
78.0464	37	C6H6+
79.0542	87	C6H7+
81.0335	22	C5H5O+
82.0651	2	C5H8N+
84.0808	30	C5H10N+
86.0152	2	C7H2+
87.0229	6	C7H3+
88.0307	4	C7H4+
89.0386	197	C7H5+
90.0464	5	C7H6+
91.0542	449	C7H7+
94.0413	8	C6H6O+
95.0492	469	C6H7O+
101.0386	1	C8H5+
102.0464	72	C8H6+
103.0542	31	C8H7+
105.0448	356	C6H5N2+
107.0491	23	C7H7O+
113.0385	13	C9H5+
114.0464	6	C9H6+
115.0543	972	C9H7+
116.0622	10	C9H8+
117.0699	7	C9H9+
125.0387	4	C10H5+
126.0464	43	C10H6+
127.0542	37	C10H7+
128.0621	297	C10H8+
129.0448	8	C8H5N2+
129.0701	6	C10H9+
131.0492	6	C9H7O+
132.0571	2	C9H8O+
138.0465	2	C11H6+
139.0542	177	C11H7+
140.0619	9	C11H8+
141.0699	79	C11H9+
145.0649	14	C10H9O+
150.0465	59	C12H6+
151.0543	59	C12H7+
152.0621	451	C12H8+
153.0699	6	C12H9+
155.0604	40	C10H7N2+
162.0466	2	C13H6+
163.0542	111	C13H7+
164.0621	187	C13H8+
165.07	999	C13H9+
166.0777	2	C13H10+
168.057	73	C12H8O+
169.0648	122	C12H9O+
174.0464	9	C14H6+
175.0542	10	C14H7+
176.0621	260	C14H8+
177.07	94	C14H9+
178.0778	173	C14H10+
179.0603	48	C12H7N2+
181.0644	1	C13H9O+
187.0542	22	C15H7+
188.062	24	C15H8+
189.0699	694	C15H9+
190.0777	88	C15H10+
191.0855	42	C15H11+
192.0571	12	C14H8O+
193.0649	16	C14H9O+
196.052	18	C13H8O2+
198.047	1	C16H6+
199.0543	7	C16H7+
200.0621	321	C16H8+
201.0699	74	C16H9+
202.0777	146	C16H10+
203.0603	9	C14H7N2+
203.0856	5	C16H11+
205.0649	27	C15H9O+
211.0548	1	C17H7+
213.0699	105	C17H9+
214.0778	15	C17H10+
215.0857	68	C17H11+
217.0653	4	C16H9O+
218.0726	36	C16H10O+
219.0808	22	C16H11O+
229.076	4	C16H9N2+
231.0802	1	C17H11O+
