Mass spectrum: Naftifine; LC-ESI-QFT; MS2; CE: 150; R=35000; [M+H]+
Name: Naftifine
Name: Suadian
Name: N-methyl-N-(naphthalen-1-ylmethyl)-3-phenylprop-2-en-1-amine
Formula: C21H21N
Exact mass: 287.16740
SMILES: CN(CC=CC1=CC=CC=C1)CC2=CC=CC3=CC=CC=C32
InChI: InChI=1S/C21H21N/c1-22(16-8-11-18-9-3-2-4-10-18)17-20-14-7-13-19-12-5-6-15-21(19)20/h2-15H,16-17H2,1H3
Instrument: Q Exactive Plus Orbitrap Thermo Scientific
Instrument type: LC-ESI-QFT
Ms type: MS2
Ion mode: POSITIVE
Ionization: ESI
Fragmentation mode: HCD
Collision energy: 150 (nominal)
Resolution: 35000
Column name: XBridge C18 3.5um, 2.1x50mm, Waters
Retention time: 7.5 min
Base peak: 288.1741
Precursor m/z: 288.1747
Precursor type: [M+H]+
m/z	relative intensity	assigned
50.0151	7	C4H2+
51.0228	3	C4H3+
53.0022	5	C3HO+
53.0386	2	C4H5+
53.9974	1	C2NO+
61.0073	3	C5H+
62.0151	14	C5H2+
63.0229	80	C5H3+
65.0386	257	C5H5+
74.015	3	C6H2+
75.0229	6	C6H3+
76.0307	4	C6H4+
77.0385	6	C6H5+
78.0464	4	C6H6+
87.0229	4	C7H3+
89.0386	166	C7H5+
90.0464	1	C7H6+
91.0542	508	C7H7+
95.0491	7	C6H7O+
102.0464	16	C8H6+
105.0448	5	C6H5N2+
113.0384	2	C9H5+
114.0463	4	C9H6+
115.0542	999	C9H7+
116.062	13	C9H8+
117.0698	7	C9H9+
126.0463	1	C10H6+
132.0572	1	C9H8O+
139.0542	28	C11H7+
140.0622	2	C11H8+
141.0698	22	C11H9+
