Mass spectrum: Flumorph; LC-ESI-QFT; MS2; CE: 60%; R=17500; [M+H]+
Name: Flumorph
Name: Fumalin
Name: 3-(3,4-dimethoxyphenyl)-3-(4-fluorophenyl)-1-morpholin-4-ylprop-2-en-1-one
Formula: C21H22FNO4
Exact mass: 371.1533
SMILES: COC1=C(C=C(C=C1)C(=CC(=O)N2CCOCC2)C3=CC=C(C=C3)F)OC
InChI: InChI=1S/C21H22FNO4/c1-25-19-8-5-16(13-20(19)26-2)18(15-3-6-17(22)7-4-15)14-21(24)23-9-11-27-12-10-23/h3-8,13-14H,9-12H2,1-2H3
Instrument: Exploris 240 Orbitrap Thermo Scientific
Instrument type: LC-ESI-QFT
Ms type: MS2
Ion mode: POSITIVE
Ionization: ESI
Fragmentation mode: HCD
Collision energy: 60 % (nominal)
Resolution: 17500
Column name: XBridge C18 3.5um, 2.1x50mm, Waters
Retention time: 7.522 min
Base peak: 274.2527
Precursor m/z: 372.1606
Precursor type: [M+H]+
m/z	relative intensity	assigned
70.0287	173	C3H4NO+
109.0448	83	C7H6F+
114.055	66	C5H8NO2+
121.0448	7	C8H6F+
122.0362	10	C7H6O2+
123.0241	273	C7H4FO+
137.0596	21	C8H9O2+
165.0545	999	C9H9O3+
183.06	10	C13H8F+
199.0554	33	C13H8FO+
211.0553	14	C14H8FO+
213.0715	23	C14H10FO+
214.0792	14	C14H11FO+
225.0709	11	C15H10FO+
226.0789	153	C15H11FO+
227.0505	52	C14H8FO2+
241.0667	30	C15H10FO2+
242.0738	190	C15H11FO2+
254.0734	31	C16H11FO2+
257.0973	187	C16H14FO2+
270.0686	23	C16H11FO3+
285.0924	180	C17H14FO3+
