Mass spectrum: Acifluorfen; LC-ESI-QFT; MS2; CE: 15; R=35000; [M-H]-
Name: Acifluorfen
Name: 5-[2-chloranyl-4-(trifluoromethyl)phenoxy]-2-nitro-benzoic acid
Formula: C14H7ClF3NO5
Exact mass: 360.99648
SMILES: Clc2cc(ccc2Oc1cc(C(=O)O)c([N+]([O-])=O)cc1)C(F)(F)F
InChI: InChI=1S/C14H7ClF3NO5/c15-10-5-7(14(16,17)18)1-4-12(10)24-8-2-3-11(19(22)23)9(6-8)13(20)21/h1-6H,(H,20,21)
Instrument: Q Exactive Orbitrap Thermo Scientific
Instrument type: LC-ESI-QFT
Ms type: MS2
Ion mode: NEGATIVE
Ionization: ESI
Fragmentation mode: HCD
Collision energy: 15 (nominal)
Resolution: 35000
Column name: XBridge C18 3.5um, 2.1x50mm, Waters
Retention time: 12.3 min
Base peak: 315.9994
Precursor m/z: 359.9892
Precursor type: [M-H]-
m/z	relative intensity	assigned
65.9986	1	C3NO-
95.0139	20	C5H3O2-
111.0088	4	C5H3O3-
122.001	34	C6H2O3-
123.0089	8	C6H3O3-
137.0118	18	C6H3NO3-
138.02	2	C6H4NO3-
139.0038	3	C6H3O4-
194.983	208	C7H3ClF3O-
198.0297	8	C10H5F3O-
210.0178	1	C10H3F3NO-
210.03	1	C11H5F3O-
222.03	5	C12H5F3O-
226.0249	2	C11H5F3O2-
240.0405	1	C12H6N3O3-
244.9988	1	C11H5ClF3O-
250.025	2	C13H5F3O2-
258.0064	1	C12H6ClF3O-
263.0199	1	C13H4F3NO2-
269.994	1	C12H4ClF3NO-
280.0233	2	C13H5F3NO3-
286.0015	51	C13H6ClF3O2-
297.989	1	C13H4ClF3NO2-
298.9967	1	C13H5ClF3NO2-
301.9967	2	C13H6ClF3O3-
315.9993	999	C13H6ClF3NO3-
