Mass spectrum: Diatrizoate; LC-ESI-ITFT; MS2; CE: 90%; R=15000; [M+H]+
Name: Diatrizoate
Name: Diatrizoic acid
Name: 3,5-diacetamido-2,4,6-triiodo-benzoic acid
Formula: C11H9I3N2O4
Exact mass: 613.7697
SMILES: CC(=O)NC1=C(I)C(C(O)=O)=C(I)C(NC(C)=O)=C1I
InChI: InChI=1S/C11H9I3N2O4/c1-3(17)15-9-6(12)5(11(19)20)7(13)10(8(9)14)16-4(2)18/h1-2H3,(H,15,17)(H,16,18)(H,19,20)
Instrument: LTQ Orbitrap XL Thermo Scientific
Instrument type: LC-ESI-ITFT
Ms type: MS2
Ion mode: POSITIVE
Ionization: ESI
Fragmentation mode: HCD
Collision energy: 90 % (nominal)
Resolution: 15000
Column name: XBridge C18 3.5um, 2.1x50mm, Waters
Retention time: 1.6 min
Base peak: 631.8031
Precursor m/z: 614.7769
Precursor type: [M+H]+
m/z	relative intensity	assigned
77.0259	65	C5H3N+
78.0337	113	C5H4N+
79.0415	111	C5H5N+
91.0414	126	C6H5N+
106.0286	161	C6H4NO+
107.0365	234	C6H5NO+
118.0525	370	C7H6N2+
119.0603	116	C7H7N2+
120.0443	223	C7H6NO+
145.0394	118	C8H5N2O+
146.0475	363	C8H6N2O+
147.031	88	C8H5NO2+
147.0551	131	C8H7N2O+
148.0392	999	C8H6NO2+
148.0632	213	C8H8N2O+
159.0552	237	C9H7N2O+
165.0418	224	C8H7NO3+
180.0528	233	C8H8N2O3+
187.0504	125	C10H7N2O2+
189.0658	142	C10H9N2O2+
192.0529	433	C9H8N2O3+
203.9307	154	C5H3IN+
205.0605	302	C10H9N2O3+
233.0552	278	C11H9N2O4+
293.9027	258	C7H3IO5+
