Mass spectrum: Paroxetine; LC-ESI-QFT; MS2; CE: 30; R=35000; [M+H]+
Name: Paroxetine
Name: 3-[(1,3-Benzodioxol-5-yloxy)methyl]-4-(4-fluorophenyl)piperidine
Name: 3-(1,3-benzodioxol-5-yloxymethyl)-4-(4-fluorophenyl)piperidine
Formula: C19H20FNO3
Exact mass: 329.14272
SMILES: C1CNCC(C1C2=CC=C(C=C2)F)COC3=CC4=C(C=C3)OCO4
InChI: InChI=1S/C19H20FNO3/c20-15-3-1-13(2-4-15)17-7-8-21-10-14(17)11-22-16-5-6-18-19(9-16)24-12-23-18/h1-6,9,14,17,21H,7-8,10-12H2
Instrument: Q Exactive Plus Orbitrap Thermo Scientific
Instrument type: LC-ESI-QFT
Ms type: MS2
Ion mode: POSITIVE
Ionization: ESI
Fragmentation mode: HCD
Collision energy: 30 (nominal)
Resolution: 35000
Column name: XBridge C18 3.5um, 2.1x50mm, Waters
Retention time: 7.8 min
Base peak: 330.1493
Precursor m/z: 330.15
Precursor type: [M+H]+
m/z	relative intensity	assigned
56.0495	6	C3H6N+
57.0573	2	C3H7N+
58.0651	1	C3H8N+
68.0495	2	C4H6N+
70.0651	123	C4H8N+
71.0729	1	C4H9N+
82.065	1	C5H8N+
84.0808	3	C5H10N+
86.06	5	C4H8NO+
96.0808	1	C6H10N+
97.0887	9	C6H11N+
109.0448	10	C7H6F+
123.0441	23	C7H7O2+
123.0605	20	C8H8F+
135.0441	1	C8H7O2+
135.0603	5	C9H8F+
137.0762	9	C9H10F+
138.0715	3	C8H9FN+
139.0391	4	C7H7O3+
147.0604	2	C10H8F+
149.076	2	C10H10F+
150.0714	2	C9H9FN+
151.0391	45	C8H7O3+
161.0599	1	C10H9O2+
161.0761	3	C11H10F+
163.0918	19	C11H12F+
164.087	3	C10H11FN+
175.0391	1	C10H7O3+
175.0919	6	C12H12F+
176.0997	6	C12H13F+
177.0547	1	C10H9O3+
178.1027	22	C11H13FN+
190.1027	4	C12H13FN+
192.1184	311	C12H15FN+
193.1262	23	C12H16FN+
208.1133	9	C12H15FNO+
313.1235	15	C19H18FO3+
330.15	999	C19H21FNO3+
