Mass spectrum: Pyridaphenthion; LC-ESI-QFT; MS2; CE: 90%; R=17500; [M+H]+
Name: Pyridaphenthion
Name: 6-diethoxyphosphinothioyloxy-2-phenylpyridazin-3-one
Formula: C14H17N2O4PS
Exact mass: 340.0647
SMILES: CCOP(=S)(OCC)OC1=NN(C(=O)C=C1)C2=CC=CC=C2
InChI: InChI=1S/C14H17N2O4PS/c1-3-18-21(22,19-4-2)20-13-10-11-14(17)16(15-13)12-8-6-5-7-9-12/h5-11H,3-4H2,1-2H3
Instrument: Exploris 240 Orbitrap Thermo Scientific
Instrument type: LC-ESI-QFT
Ms type: MS2
Ion mode: POSITIVE
Ionization: ESI
Fragmentation mode: HCD
Collision energy: 90 % (nominal)
Resolution: 17500
Column name: XBridge C18 3.5um, 2.1x50mm, Waters
Retention time: 9.373 min
Base peak: 341.0719
Precursor m/z: 341.0719
Precursor type: [M+H]+
m/z	relative intensity	assigned
53.0386	18	C4H5+
55.0179	6	C3H3O+
65.0386	534	C5H5+
70.0287	11	C3H4NO+
77.0386	67	C6H5+
78.9402	21	OPS+
89.0384	12	C7H5+
91.0543	18	C7H7+
92.0495	999	C6H6N+
93.0334	45	C6H5O+
93.0573	51	C6H7N+
95.0492	14	C6H7O+
96.9508	369	H2O2PS+
105.0449	22	C6H5N2+
107.0605	17	C6H7N2+
109.0109	19	C2H8NPS+
109.0522	29	C6H7NO+
113.0346	15	C4H5N2O2+
114.9615	112	H4O3PS+
117.0569	10	C8H7N+
119.0605	26	C7H7N2+
130.0408	11	CH10N2O3S+
130.0653	13	C9H8N+
143.0605	135	C9H7N2+
144.0445	106	C9H6NO+
146.0597	14	C5H11N2OP+
159.0677	12	C10H9NO+
160.0223	14	C5H9N2PS+
160.0518	14	C10H8O2+
172.0393	23	C10H6NO2+
189.0658	84	C10H9N2O2+
