Mass spectrum: Procaine; LC-ESI-QFT; MS2; CE: 40%; R=15000; [M+H]+
Name: Procaine
Name: 2-(diethylamino)ethyl 4-aminobenzoate
Formula: C13H20N2O2
Exact mass: 236.1524779
SMILES: CCN(CC)CCOC(=O)C1=CC=C(C=C1)N
InChI: InChI=1S/C13H20N2O2/c1-3-15(4-2)9-10-17-13(16)11-5-7-12(14)8-6-11/h5-8H,3-4,9-10,14H2,1-2H3
Instrument: Exploris 240 Thermo Scientific
Instrument type: LC-ESI-QFT
Ms type: MS2
Ion mode: POSITIVE
Ionization: ESI
Fragmentation mode: HCD
Collision energy: 40 % (nominal)
Resolution: 15000
Column name: XBridge C18 3.5um, 2.1x50mm, Waters
Retention time: 1.760 min
Base peak: 237.1592
Precursor m/z: 237.1598
Precursor type: [M+H]+
m/z	relative intensity	assigned
72.0807	288	C4H10N+
92.0494	87	C6H6N+
100.112	507	C6H14N+
120.0442	999	C7H6NO+
164.0704	133	C9H10NO2+
