Mass spectrum: Cycloxydim-TP BH 517-TSO E/Z-isomer; LC-ESI-QFT; MS2; CE: 150%; R=17500; [M+H]+
Name: Cycloxydim-TP BH 517-TSO E/Z-isomer
Name: Cycloxydim sulfoxide
Formula: C17H27NO4S
Exact mass: 341.1661
SMILES: CCC\C(=N/OCC)C1=C(O)CC(CC1=O)C1CCCS(=O)C1
InChI: InChI=1S/C17H27NO4S/c1-3-6-14(18-22-4-2)17-15(19)9-13(10-16(17)20)12-7-5-8-23(21)11-12/h12-13,19H,3-11H2,1-2H3/b18-14+
Instrument: Q Exactive Plus Orbitrap Thermo Scientific
Instrument type: LC-ESI-QFT
Ms type: MS2
Ion mode: POSITIVE
Ionization: ESI
Fragmentation mode: HCD
Collision energy: 150 % (nominal)
Resolution: 17500
Column name: XBridge C18 3.5um, 2.1x50mm, Waters
Retention time: 7.731 min
Base peak: 342.1734
Precursor m/z: 342.1734
Precursor type: [M+H]+
m/z	relative intensity	assigned
50.0151	120	C4H2+
51.023	431	C4H3+
53.0023	137	C3HO+
53.0386	549	C4H5+
54.0337	96	C3H4N+
55.0179	101	C3H3O+
55.0542	98	C4H7+
56.0495	69	C3H6N+
57.9872	42	C2H2S+
58.995	327	C2H3S+
61.0107	35	C2H5S+
62.99	176	CH3OS+
63.0229	111	C5H3+
65.0386	987	C5H5+
66.0464	222	C5H6+
67.018	74	C4H3O+
67.0417	160	C4H5N+
67.0543	300	C5H7+
68.0131	76	C3H2NO+
68.0494	137	C4H6N+
68.9972	60	C3HO2+
69.0335	53	C4H5O+
77.0386	362	C6H5+
78.0463	177	C6H6+
79.0542	524	C6H7+
80.0495	192	C5H6N+
81.0335	136	C5H5O+
81.0576	39	C5H7N+
82.0653	75	C5H8N+
85.0106	87	C4H5S+
87.0264	155	C4H7S+
89.0385	174	C7H5+
91.0543	897	C7H7+
92.0496	71	C6H6N+
93.0573	157	C6H7N+
94.0416	124	C6H6O+
94.0651	88	C6H8N+
95.0492	999	C6H7O+
96.0445	46	C5H6NO+
97.0106	78	C5H5S+
102.0465	43	C8H6+
103.0543	373	C8H7+
105.0338	37	C7H5O+
105.0448	504	H11NO3S+
105.0696	102	C8H9+
106.0652	118	C7H8N+
107.049	143	C7H7O+
115.0543	584	C9H7+
116.0624	39	C9H8+
117.0574	77	C8H7N+
117.0699	34	C9H9+
118.065	44	C8H8N+
122.0361	47	C7H6O2+
128.0621	222	C10H8+
129.07	36	C10H9+
130.0653	104	C9H8N+
131.049	106	C9H7O+
141.0697	50	C11H9+
146.0599	33	C9H8NO+
155.0606	67	C4H13NO3S+
