Mass spectrum: Trinexapac; LC-ESI-ITFT; MS2; CE: 30%; R=7500; [M+H]+
Name: Trinexapac
Name: 4-[Cyclopropyl(hydroxy)methylene]-3,5-dioxocyclohexanecarboxylic acid
Formula: C11H12O5
Exact mass: 224.0685
SMILES: C(C1)C1C(O)=C(C(=O)CC2C(=O)O)C(=O)C2
InChI: InChI=1S/C11H12O5/c12-7-3-6(11(15)16)4-8(13)9(7)10(14)5-1-2-5/h5-6,14H,1-4H2,(H,15,16)/b10-9-
Instrument: LTQ Orbitrap XL Thermo Scientific
Instrument type: LC-ESI-ITFT
Ms type: MS2
Ion mode: POSITIVE
Ionization: ESI
Fragmentation mode: HCD
Collision energy: 30 % (nominal)
Resolution: 7500
Column name: XBridge C18 3.5um, 2.1x50mm, Waters
Retention time: 6.9 min
Base peak: 225.0758
Precursor m/z: 225.0757
Precursor type: [M+H]+
m/z	relative intensity	assigned
69.0335	624	C4H5O+
83.0491	2	C5H7O+
85.0283	8	C4H5O2+
97.0287	4	C5H5O2+
107.0493	5	C7H7O+
111.044	207	C6H7O2+
113.0233	25	C5H5O3+
123.0075	6	C6H3O3+
129.0548	9	C6H9O3+
137.0233	12	C7H5O3+
139.039	72	C7H7O3+
141.0182	30	C6H5O4+
151.0751	3	C9H11O2+
155.0338	3	C7H7O4+
157.0495	121	C7H9O4+
159.0292	5	C6H7O5+
165.0182	196	C8H5O4+
179.0704	35	C10H11O3+
183.0288	169	C8H7O5+
197.0811	7	C10H13O4+
201.0393	32	C8H9O6+
207.0651	86	C11H11O4+
225.0755	999	C11H13O5+
