Mass spectrum: Haloxyfop; LC-ESI-QFT; MS2; CE: 30; R=35000; [M+H]+
Name: Haloxyfop
Name: 2-[4-[3-chloro-5-(trifluoromethyl)pyridin-2-yl]oxyphenoxy]propanoic acid
Formula: C15H11ClF3NO4
Exact mass: 361.03287
SMILES: CC(C(=O)O)OC1=CC=C(C=C1)OC2=C(C=C(C=N2)C(F)(F)F)Cl
InChI: InChI=1S/C15H11ClF3NO4/c1-8(14(21)22)23-10-2-4-11(5-3-10)24-13-12(16)6-9(7-20-13)15(17,18)19/h2-8H,1H3,(H,21,22)
Instrument: Q Exactive Plus Orbitrap Thermo Scientific
Instrument type: LC-ESI-QFT
Ms type: MS2
Ion mode: POSITIVE
Ionization: ESI
Fragmentation mode: HCD
Collision energy: 30 (nominal)
Resolution: 35000
Column name: XBridge C18 3.5um, 2.1x50mm, Waters
Retention time: 13.6 min
Base peak: 391.2839
Precursor m/z: 362.0401
Precursor type: [M+H]+
m/z	relative intensity	assigned
65.0386	1	C5H5+
91.0543	112	C7H7+
98.9844	1	CH4ClO3+
111.044	3	C6H7O2+
119.0493	29	C8H7O+
121.0285	42	C7H5O2+
166.0626	1	C9H10O3+
197.993	3	C6H4ClF3NO+
247.0401	4	C13H8FO4+
252.0637	1	C13H9F3NO+
260.0452	4	C12H10ClF3N+
272.0082	14	C15H3F3O2+
288.04	136	C13H10ClF3NO+
289.0114	94	C12H7ClF3NO2+
290.0192	24	C12H8ClF3NO2+
298.0241	3	C14H8ClF3NO+
316.0349	999	C14H10ClF3NO2+
362.0405	113	C15H12ClF3NO4+
