Mass spectrum: Aspartame; LC-ESI-ITFT; MS2; CE: 75%; R=7500; [M-H]-
Name: Aspartame
Name: 3-amino-4-[(1-benzyl-2-keto-2-methoxy-ethyl)amino]-4-keto-butyric acid
Formula: C14H18N2O5
Exact mass: 294.1216
SMILES: COC(=O)C(CC1=CC=CC=C1)NC(=O)C(CC(=O)O)N
InChI: InChI=1S/C14H18N2O5/c1-21-14(20)11(7-9-5-3-2-4-6-9)16-13(19)10(15)8-12(17)18/h2-6,10-11H,7-8,15H2,1H3,(H,16,19)(H,17,18)/t10-,11-/m0/s1
Instrument: LTQ Orbitrap XL Thermo Scientific
Instrument type: LC-ESI-ITFT
Ms type: MS2
Ion mode: NEGATIVE
Ionization: ESI
Fragmentation mode: HCD
Collision energy: 75 % (nominal)
Resolution: 7500
Column name: XBridge C18 3.5um, 2.1x50mm, Waters
Retention time: 4.8 min
Base peak: 293.1137
Precursor m/z: 293.1143
Precursor type: [M-H]-
m/z	relative intensity	assigned
97.0405	972	C4H5N2O-
118.0662	999	C8H8N-
