Mass spectrum: Ethofumesate; LC-ESI-ITFT; MS2; CE: 30%; R=15000; [M+H]+
Name: Ethofumesate
Name: (2-ethoxy-3,3-dimethyl-2H-1-benzofuran-5-yl) methanesulfonate
Formula: C13H18O5S
Exact mass: 286.0869
SMILES: S(=O)(=O)(C)O-c(ccc1O2)cc1C(C2OCC)(C)C
InChI: InChI=1S/C13H18O5S/c1-5-16-12-13(2,3)10-8-9(18-19(4,14)15)6-7-11(10)17-12/h6-8,12H,5H2,1-4H3
Instrument: LTQ Orbitrap XL Thermo Scientific
Instrument type: LC-ESI-ITFT
Ms type: MS2
Ion mode: POSITIVE
Ionization: ESI
Fragmentation mode: HCD
Collision energy: 30 % (nominal)
Resolution: 15000
Column name: XBridge C18 3.5um, 2.1x50mm, Waters
Retention time: 10.0 min
Base peak: 309.0774
Precursor m/z: 287.0948
Precursor type: [M+H]+
m/z	relative intensity	assigned
71.0492	3	C4H7O+
77.0385	2	C6H5+
81.0005	3	CH5O2S+
91.0543	4	C7H7+
93.0699	22	C7H9+
103.0544	5	C8H7+
121.0649	999	C8H9O+
133.0648	14	C9H9O+
135.0804	5	C9H11O+
137.0598	29	C8H9O2+
145.0648	10	C10H9O+
147.0444	3	C9H7O2+
149.0962	49	C10H13O+
161.0599	267	C10H9O2+
162.0676	46	C10H10O2+
163.0755	61	C10H11O2+
165.091	2	C10H13O2+
173.071	10	C10H9N2O+
179.0704	87	C10H11O3+
180.0782	16	C10H12O3+
189.0908	2	C12H13O2+
190.0985	1	C12H14O2+
213.058	8	C10H13O3S+
241.053	190	C11H13O4S+
259.0636	307	C11H15O5S+
287.0943	7	C13H19O5S+
