Mass spectrum: Ethiprole; LC-ESI-QFT; MS2; CE: 45%; R=17500; [M-H]-
Name: Ethiprole
Name: 5-amino-1-[2,6-dichloro-4-(trifluoromethyl)phenyl]-4-ethylsulfinylpyrazole-3-carbonitrile
Formula: C13H9Cl2F3N4OS
Exact mass: 395.9826
SMILES: CCS(=O)C1=C(N(N=C1C#N)C2=C(C=C(C=C2Cl)C(F)(F)F)Cl)N
InChI: InChI=1S/C13H9Cl2F3N4OS/c1-2-24(23)11-9(5-19)21-22(12(11)20)10-7(14)3-6(4-8(10)15)13(16,17)18/h3-4H,2,20H2,1H3
Instrument: Exploris 240 Orbitrap Thermo Scientific
Instrument type: LC-ESI-QFT
Ms type: MS2
Ion mode: NEGATIVE
Ionization: ESI
Fragmentation mode: HCD
Collision energy: 45 % (nominal)
Resolution: 17500
Column name: XBridge C18 3.5um, 2.1x50mm, Waters
Retention time: 8.805 min
Base peak: 394.9752
Precursor m/z: 394.9753
Precursor type: [M-H]-
m/z	relative intensity	assigned
57.9757	48	CNS-
170.0098	72	C7HF3N2-
182.0102	46	C8HF3N2-
183.0178	247	C8H2F3N2-
217.9864	382	C8H2ClF3N2-
218.9946	53	C8H3ClF3N2-
233.9804	20	C11HClF2N2-
243.9895	148	C9H2ClF3N3-
245.981	16	C9H2ClF3N2O-
246.9885	40	C9H3ClF3N2O-
249.9586	999	C8H2ClF3N2S-
253.9857	27	C11H2ClF3N2-
261.9586	555	C9H2ClF3N2S-
267.9891	80	C11H2ClF3N3-
277.9534	741	C9H2ClF3N2OS-
281.9929	135	C11H2ClF3N4-
282.9999	17	C11H3ClF3N4-
313.9647	209	C11H2ClF3N4S-
317.9693	158	C11H3Cl2F3N4-
329.9598	190	C11H2ClF3N4OS-
