Mass spectrum: MCLR; LC-ESI-QFT; MS2; CE: 120%; R=17500; [M+H]+
Name: MCLR
Name: Microcystin LR
Name: (5R,8S,11R,12S,15S,18S,19S,22R)-15-[3-(diaminomethylideneamino)propyl]-18-[(1E,3E,5S,6S)-6-methoxy-3,5-dimethyl-7-phenylhepta-1,3-dienyl]-1,5,12,19-tetramethyl-2-methylidene-8-(2-methylpropyl)-3,6,9,13,16,20,25-heptaoxo-1,4,7,10,14,17,21-heptazacyclopentacosane-11,22-dicarboxylic acid
Class: NA
Formula: C49H74N10O12
Exact mass: 994.5488
SMILES: CO[C@@H](Cc1ccccc1)[C@@H](C)/C=C(C)/C=C/[C@@H]2NC(=O)[C@H](CCCNC(N)=N)NC(=O)[C@@H](C)[C@@H](NC(=O)[C@H](CC(C)C)NC(=O)[C@@H](C)NC(=O)C(=C)N(C)C(=O)CC[C@@H](NC(=O)[C@H]2C)C(O)=O)C(O)=O
InChI: InChI=1S/C49H74N10O12/c1-26(2)23-37-46(66)58-40(48(69)70)30(6)42(62)55-35(17-14-22-52-49(50)51)45(65)54-34(19-18-27(3)24-28(4)38(71-10)25-33-15-12-11-13-16-33)29(5)41(61)56-36(47(67)68)20-21-39(60)59(9)32(8)44(64)53-31(7)43(63)57-37/h11-13,15-16,18-19,24,26,28-31,34-38,40H,8,14,17,20-23,25H2,1-7,9-10H3,(H,53,64)(H,54,65)(H,55,62)(H,56,61)(H,57,63)(H,58,66)(H,67,68)(H,69,70)(H4,50,51,52)/b19-18+,27-24+/t28-,29-,30-,31+,34-,35-,36+,37-,38-,40+/m0/s1
Instrument: Q Exactive Plus Orbitrap Thermo Scientific
Instrument type: LC-ESI-QFT
Ms type: MS2
Ion mode: POSITIVE
Ionization: ESI
Fragmentation mode: HCD
Collision energy: 120 % (nominal)
Resolution: 17500
Column name: XBridge C18 3.5um, 2.1x50mm, Waters
Retention time: 8.590 min
Base peak: 498.282
Precursor m/z: 995.556
Precursor type: [M+H]+
m/z	relative intensity	assigned
69.0335	9	C4H5O+
70.0651	587	C4H8N+
71.0492	14	C4H7O+
72.0807	10	C4H10N+
77.0384	64	C6H5+
79.0542	157	C6H7+
80.0494	43	C5H6N+
81.0335	13	C5H5O+
82.0288	30	C4H4NO+
82.065	43	C5H8N+
84.0444	93	C4H6NO+
85.0283	8	C4H5O2+
85.076	9	C4H9N2+
86.0601	8	C4H8NO+
86.0965	20	C5H12N+
89.0385	7	C7H5+
91.0542	524	C7H7+
92.0621	12	C7H8+
93.0698	51	C7H9+
94.0653	25	C6H8N+
95.0491	546	C6H7O+
95.0603	23	
96.0443	15	C5H6NO+
97.076	34	C5H9N2+
98.0601	37	C5H8NO+
99.0916	15	C5H11N2+
102.0465	46	C8H6+
103.0542	999	C8H7+
105.0447	184	C6H5N2+
105.0699	242	C8H9+
106.0524	10	C6H6N2+
107.0855	87	C8H11+
108.0681	5	C6H8N2+
108.0809	10	C7H10N+
109.0649	30	C7H9O+
112.0869	16	C5H10N3+
113.0234	17	C5H5O3+
113.0707	7	C5H9N2O+
115.0542	147	C9H7+
116.0619	11	C9H8+
117.07	28	C9H9+
119.0607	18	C7H7N2+
120.057	14	C8H8O+
120.0808	11	C8H10N+
121.0759	36	C7H9N2+
127.0866	65	C6H11N2O+
128.062	15	C10H8+
129.0701	10	C10H9+
131.0854	8	C10H11+
135.08	8	C9H11O+
149.071	12	C8H9N2O+
165.0701	10	C13H9+
