Mass spectrum: Dienogest; LC-ESI-QFT; MS2; CE: 60; R=35000; [M-H]-
Name: Dienogest
Name: 2-[(8S,13S,14S,17R)-17-hydroxy-13-methyl-3-oxo-1,2,6,7,8,11,12,14,15,16-decahydrocyclopenta[a]phenanthren-17-yl]acetonitrile
Formula: C20H25NO2
Exact mass: 311.18853
SMILES: C[C@]12CCC3=C4CCC(=O)C=C4CC[C@H]3[C@@H]1CC[C@]2(CC#N)O
InChI: InChI=1S/C20H25NO2/c1-19-8-6-16-15-5-3-14(22)12-13(15)2-4-17(16)18(19)7-9-20(19,23)10-11-21/h12,17-18,23H,2-10H2,1H3/t17-,18+,19+,20-/m1/s1
Instrument: Q Exactive Orbitrap Thermo Scientific
Instrument type: LC-ESI-QFT
Ms type: MS2
Ion mode: NEGATIVE
Ionization: ESI
Fragmentation mode: HCD
Collision energy: 60 (nominal)
Resolution: 35000
Column name: XBridge C18 3.5um, 2.1x50mm, Waters
Retention time: 8.2 min
Base peak: 356.1873
Precursor m/z: 310.1813
Precursor type: [M-H]-
m/z	relative intensity	assigned
57.0346	1	C3H5O-
64.0193	2	C4H2N-
66.035	53	C4H4N-
69.0347	3	C4H5O-
80.0506	31	C5H6N-
92.0506	5	C6H6N-
93.0347	3	C6H5O-
95.0506	2	C6H7O-
106.0664	21	C7H8N-
109.0659	23	C7H9O-
117.0712	13	C9H9-
118.0666	9	C8H8N-
119.0504	4	C8H7O-
130.0172	2	C7H2N2O-
130.0663	30	C9H8N-
131.0505	3	C9H7O-
131.0866	37	C10H11-
132.082	171	C9H10N-
141.0713	2	C11H9-
143.0502	10	C10H7O-
144.0816	3	C10H10N-
145.0659	38	C10H9O-
147.0819	23	C10H11O-
155.0868	19	C12H11-
157.0659	15	C11H9O-
158.0737	10	C11H10O-
159.0816	88	C11H11O-
161.0973	45	C11H13O-
171.0817	91	C12H11O-
172.0895	2	C12H12O-
173.0972	999	C12H13O-
184.0894	24	C13H12O-
197.0976	12	C14H13O-
199.1129	16	C14H15O-
209.0977	4	C15H13O-
211.113	24	C15H15O-
212.1208	8	C15H16O-
213.1286	35	C15H17O-
223.113	15	C16H15O-
225.1287	41	C16H17O-
227.1446	17	C16H19O-
235.1125	4	C17H15O-
237.1289	5	C17H17O-
239.1442	3	C17H19O-
249.1283	16	C18H17O-
251.1445	13	C18H19O-
260.1084	3	C18H14NO-
262.1241	31	C18H16NO-
263.1315	13	C18H17NO-
264.1396	15	C18H18NO-
265.1605	4	C19H21O-
267.1396	4	C18H19O2-
269.1549	46	C18H21O2-
274.1241	37	C19H16NO-
275.132	10	C19H17NO-
276.1394	65	C19H18NO-
290.1553	67	C20H20NO-
292.1709	552	C20H22NO-
