Mass spectrum: 17a-Ethynylestradiol; LC-ESI-QFT; MS2; CE: 75; R=35000; [M+H]+
Name: 17a-Ethynylestradiol
Name: Ethinyl Estradiol
Name: 17-ethynyl-13-methyl-7,8,9,11,12,14,15,16-octahydro-6H-cyclopenta[a]phenanthrene-3,17-diol
Formula: C20H24O2
Exact mass: 296.17763
SMILES: Oc1cc4c(cc1)C3CCC2(C(CCC2(C#C)O)C3CC4)C
InChI: InChI=1S/C20H24O2/c1-3-20(22)11-9-18-17-6-4-13-12-14(21)5-7-15(13)16(17)8-10-19(18,20)2/h1,5,7,12,16-18,21-22H,4,6,8-11H2,2H3
Instrument: Q Exactive Orbitrap Thermo Scientific
Instrument type: LC-ESI-QFT
Ms type: MS2
Ion mode: POSITIVE
Ionization: ESI
Fragmentation mode: HCD
Collision energy: 75 (nominal)
Resolution: 35000
Column name: XBridge C18 3.5um, 2.1x50mm, Waters
Retention time: 10.4 min
Base peak: 279.1744
Precursor m/z: 297.1849
Precursor type: [M+H]+
m/z	relative intensity	assigned
53.0022	1	C3HO+
53.0387	6	C4H5+
55.0179	3	C3H3O+
55.0543	5	C4H7+
57.0699	2	C4H9+
65.0386	14	C5H5+
67.0542	95	C5H7+
69.0335	3	C4H5O+
69.0699	14	C5H9+
71.0491	10	C4H7O+
71.0857	1	C5H11+
77.0385	12	C6H5+
79.0542	171	C6H7+
81.0335	12	C5H5O+
81.0699	88	C6H9+
83.0491	6	C5H7O+
83.0856	2	C6H11+
91.0542	198	C7H7+
93.0699	90	C7H9+
95.0491	119	C6H7O+
95.0855	50	C7H11+
97.0649	11	C6H9O+
103.0542	46	C8H7+
105.0448	26	C6H5N2+
105.0699	183	C8H9+
107.0491	999	C7H7O+
109.0647	13	C7H9O+
109.1012	93	C8H13+
111.0804	6	C7H11O+
115.0542	52	C9H7+
116.0619	22	C9H8+
117.0698	63	C9H9+
118.0775	1	C9H10+
119.0491	2	C8H7O+
119.0855	35	C9H11+
121.0647	63	C8H9O+
121.1012	7	C9H13+
123.0805	8	C8H11O+
123.1168	1	C9H15+
128.062	38	C10H8+
129.0699	63	C10H9+
130.0778	14	C10H10+
131.0493	23	C9H7O+
131.0856	81	C10H11+
132.0571	7	C9H8O+
133.0648	167	C9H9O+
133.1012	17	C10H13+
134.0682	7	C4H10N2O3+
135.0805	10	C9H11O+
135.1168	2	C10H15+
137.0961	18	C9H13O+
141.0698	29	C11H9+
142.0779	16	C11H10+
143.0856	29	C11H11+
144.0571	46	C10H8O+
144.0934	17	C11H12+
145.0649	56	C10H9O+
145.1012	12	C11H13+
146.0681	5	C5H10N2O3+
146.0731	2	C10H10O+
147.0804	35	C10H11O+
149.0601	2	C9H9O2+
149.0961	2	C10H13O+
152.0623	8	C12H8+
153.0701	13	C12H9+
154.0777	6	C12H10+
155.0606	7	C10H7N2+
155.0854	11	C12H11+
156.0936	8	C12H12+
157.0649	83	C11H9O+
157.1011	14	C12H13+
158.073	7	C11H10O+
159.0805	82	C11H11O+
159.1169	8	C12H15+
160.089	2	C11H12O+
161.0965	4	C11H13O+
165.0698	25	C13H9+
166.0779	6	C13H10+
167.0858	12	C13H11+
169.0648	5	C12H9O+
169.0762	6	C11H9N2+
169.1012	2	C13H13+
170.0727	6	C12H10O+
171.0802	18	C12H11O+
171.1173	6	C13H15+
172.0839	2	C7H12N2O3+
173.0962	12	C12H13O+
175.112	2	C12H15O+
177.0699	5	C14H9+
177.1278	1	C12H17O+
178.0778	6	C14H10+
179.0856	14	C14H11+
181.0647	12	C13H9O+
181.1008	1	C14H13+
182.0731	11	C13H10O+
183.0805	16	C13H11O+
184.089	1	C13H12O+
185.0961	7	C13H13O+
186.0996	1	C8H14N2O3+
189.0697	1	C15H9+
189.1274	3	C13H17O+
191.0852	5	C15H11+
193.1015	2	C15H13+
194.0728	15	C14H10O+
195.0804	17	C14H11O+
196.0883	5	C14H12O+
197.0967	9	C14H13O+
198.1042	2	C14H14O+
199.1077	1	C9H15N2O3+
205.1011	2	C16H13+
207.0807	6	C15H11O+
208.0885	6	C15H12O+
209.0962	9	C15H13O+
210.1047	2	C15H14O+
211.1116	1	C15H15O+
213.1274	7	C15H17O+
214.1308	13	C10H18N2O3+
221.0963	5	C16H13O+
222.1048	1	C16H14O+
223.0274	8	C13H5NO3+
223.1118	1	C16H15O+
225.0431	17	C13H7NO3+
235.112	3	C17H15O+
249.1285	1	C18H17O+
