Mass spectrum: Dichlofenthion; LC-ESI-QFT; MS2; CE: 150%; R=17500; [M+H]+
Name: Dichlofenthion
Name: (2,4-dichlorophenoxy)-diethoxy-sulfanylidene-lambda5-phosphane
Formula: C10H13Cl2O3PS
Exact mass: 313.9700
SMILES: CCOP(=S)(OCC)OC1=C(C=C(C=C1)Cl)Cl
InChI: InChI=1S/C10H13Cl2O3PS/c1-3-13-16(17,14-4-2)15-10-6-5-8(11)7-9(10)12/h5-7H,3-4H2,1-2H3
Instrument: Exploris 240 Orbitrap Thermo Scientific
Instrument type: LC-ESI-QFT
Ms type: MS2
Ion mode: POSITIVE
Ionization: ESI
Fragmentation mode: HCD
Collision energy: 150 % (nominal)
Resolution: 17500
Column name: XBridge C18 3.5um, 2.1x50mm, Waters
Retention time: 13.510 min
Base peak: 314.9773
Precursor m/z: 314.9773
Precursor type: [M+H]+
m/z	relative intensity	assigned
50.0151	71	C4H2+
51.0229	323	C4H3+
62.9452	48	PS+
62.9631	36	CClO+
63.0229	367	C5H3+
64.0308	95	C5H4+
64.9787	999	H2O2P+
65.0385	321	C5H5+
68.9794	77	C3HS+
72.9839	957	C3H2Cl+
74.0151	589	C6H2+
75.0228	129	C6H3+
78.9402	504	OPS+
81.9873	34	C4H2S+
82.945	281	CHCl2+
86.9997	222	C4H4Cl+
96.9507	309	H2O2PS+
98.9843	82	CH4ClO3+
98.9995	539	C5H4Cl+
100.0076	255	C5H5Cl+
106.9453	40	C3HCl2+
106.995	119	C6H3S+
108.0027	189	C6H4S+
108.9838	327	C5H2OP+
109.011	82	C6H5S+
110.9671	23	C2H4ClOS+
114.9612	231	H4O3PS+
114.9945	315	C5H4ClO+
128.0023	504	C6H5ClO+
132.9606	520	C5H3Cl2+
141.9639	244	C5H3OPS+
