Mass spectrum: Thiophanate; LC-ESI-QFT; MS2; CE: 75%; R=17500; [M-H]-
Name: Thiophanate
Name: CID 31991
Name: N`-ethoxycarbonyl-N-[2-[(N-ethoxycarbonyl-C-sulfanylcarbonimidoyl)amino]phenyl]carbamimidothioic acid
Formula: C14H18N4O4S2
Exact mass: 370.0769
SMILES: CCOC(=O)NC(=S)NC1=CC=CC=C1NC(=S)NC(=O)OCC
InChI: InChI=1S/C14H18N4O4S2/c1-3-21-13(19)17-11(23)15-9-7-5-6-8-10(9)16-12(24)18-14(20)22-4-2/h5-8H,3-4H2,1-2H3,(H2,15,17,19,23)(H2,16,18,20,24)
Instrument: Exploris 240 Orbitrap Thermo Scientific
Instrument type: LC-ESI-QFT
Ms type: MS2
Ion mode: NEGATIVE
Ionization: ESI
Fragmentation mode: HCD
Collision energy: 75 % (nominal)
Resolution: 17500
Column name: XBridge C18 3.5um, 2.1x50mm, Waters
Retention time: 7.291 min
Base peak: 369.0696
Precursor m/z: 369.0697
Precursor type: [M-H]-
m/z	relative intensity	assigned
57.9757	37	CNS-
117.0458	418	C7H5N2-
132.0567	137	C7H6N3-
142.0413	6	C8H4N3-
148.0104	12	C7H4N2S-
149.0179	999	C7H5N2S-
158.036	659	C8H4N3O-
174.0129	13	C8H4N3S-
