Mass spectrum: Sulfamethoxazole; LC-ESI-ITFT; MS2; CE: 45%; R=7500; [M+H]+
Name: Sulfamethoxazole
Name: 4-Amino-N-(5-methyl-3-isoxazolyl)benzenesulfonamide
Name: 4-amino-N-(5-methyl-1,2-oxazol-3-yl)benzenesulfonamide
Formula: C10H11N3O3S
Exact mass: 253.0521
SMILES: c1(S(Nc2cc(C)on2)(=O)=O)ccc(N)cc1
InChI: InChI=1S/C10H11N3O3S/c1-7-6-10(12-16-7)13-17(14,15)9-4-2-8(11)3-5-9/h2-6H,11H2,1H3,(H,12,13)
Instrument: LTQ Orbitrap XL Thermo Scientific
Instrument type: LC-ESI-ITFT
Ms type: MS2
Ion mode: POSITIVE
Ionization: ESI
Fragmentation mode: HCD
Collision energy: 45 % (nominal)
Resolution: 7500
Column name: XBridge C18 3.5um, 2.1x50mm, Waters
Retention time: 4.6 min
Base peak: 254.0603
Precursor m/z: 254.0594
Precursor type: [M+H]+
m/z	relative intensity	assigned
65.0386	73	C5H5+
68.0495	62	C4H6N+
78.0338	5	C5H4N+
79.0177	8	C5H3O+
80.0492	14	C5H6N+
92.0495	496	C6H6N+
93.0573	243	C6H7N+
94.0651	17	C6H8N+
96.0443	15	C5H6NO+
99.0553	249	C4H7N2O+
107.0603	28	C6H7N2+
108.0444	939	C6H6NO+
110.06	13	C6H8NO+
120.0558	11	C6H6N3+
121.0758	4	C7H9N2+
131.0606	6	C8H7N2+
132.0684	5	C8H8N2+
146.0711	37	C8H8N3+
147.0791	157	C8H9N3+
148.087	37	C8H10N3+
156.0115	999	C6H6NO2S+
160.0869	225	C9H10N3+
161.002	19	C4H5N2O3S+
176.0284	11	C8H6N3S+
188.0819	37	C10H10N3O+
190.0976	14	C10H12N3O+
194.0382	15	C8H8N3OS+
254.0594	60	C10H12N3O3S+
