Mass spectrum: Cefadroxil; LC-ESI-QFT; MS2; CE: 60; R=35000; [M-H]-
Name: Cefadroxil
Name: 7-[[2-azaniumyl-2-(4-hydroxyphenyl)acetyl]amino]-3-methyl-8-oxo-5-thia-1-azabicyclo[4.2.0]oct-2-ene-2-carboxylate
Formula: C16H17N3O5S
Exact mass: 363.08889
SMILES: CC1=C(N2C(C(C2=O)NC(=O)C(C3=CC=C(C=C3)O)N)SC1)C(=O)O
InChI: InChI=1S/C16H17N3O5S/c1-7-6-25-15-11(14(22)19(15)12(7)16(23)24)18-13(21)10(17)8-2-4-9(20)5-3-8/h2-5,10-11,15,20H,6,17H2,1H3,(H,18,21)(H,23,24)
Instrument: Q Exactive Plus Orbitrap Thermo Scientific
Instrument type: LC-ESI-QFT
Ms type: MS2
Ion mode: NEGATIVE
Ionization: ESI
Fragmentation mode: HCD
Collision energy: 60 (nominal)
Resolution: 35000
Column name: XBridge C18 3.5um, 2.1x50mm, Waters
Retention time: 2.3 min
Base peak: 362.0818
Precursor m/z: 362.0816
Precursor type: [M-H]-
m/z	relative intensity	assigned
50.0036	12	C3N-
55.019	5	C3H3O-
56.9805	51	C2HS-
57.9758	90	CNS-
58.9962	3	C2H3S-
59.9915	10	CH2NS-
60.9754	127	CHOS-
63.9626	3	O2S-
65.0146	5	C3HN2-
65.9986	21	C3NO-
66.035	3	C4H4N-
67.0303	39	C3H3N2-
70.9837	27	C2HNS-
70.9963	2	C3H3S-
71.0252	12	C2H3N2O-
71.9915	23	C2H2NS-
72.0093	55	C2H2NO2-
72.9754	4	C2HOS-
72.9994	43	C2H3NS-
73.0119	11	C3H5S-
74.0072	49	C2H4NS-
74.9912	2	C2H3OS-
81.9757	4	C3NS-
83.0252	116	C3H3N2O-
83.9914	36	C3H2NS-
84.0092	132	C3H2NO2-
85.0294	3	C4H5O2-
86.0072	20	C3H4NS-
87.0023	3	C2H3N2S-
87.9863	10	C2H2NOS-
90.035	3	C6H4N-
92.0507	27	C6H6N-
93.0347	518	C6H5O-
94.03	3	C5H4NO-
95.0252	57	C4H3N2O-
95.0503	16	C6H7O-
96.0457	2	C5H6NO-
96.9993	84	C4H3NS-
99.9864	93	C3H2NOS-
100.0227	5	C4H6NS-
102.002	15	C3H4NOS-
102.0384	3	C4H8NS-
105.0347	2	C7H5O-
105.0459	16	C6H5N2-
106.0425	5	C7H6O-
107.0616	283	C6H7N2-
108.0457	28	C6H6NO-
109.0772	39	C6H9N2-
111.0025	41	C4H3N2S-
111.0202	89	C4H3N2O2-
111.9865	2	C4H2NOS-
112.0228	18	C5H6NS-
112.0408	3	C5H6NO2-
115.0228	3	C5H7OS-
117.0348	259	C8H5O-
117.046	104	C7H5N2-
118.0301	221	C7H4NO-
119.0504	338	C8H7O-
119.0615	22	C7H7N2-
120.0457	999	C7H6NO-
121.0298	10	C7H5O2-
121.0408	3	C6H5N2O-
121.0772	5	C7H9N2-
122.0489	11	C6H6N2O-
122.0613	3	C7H8NO-
123.0453	164	C7H7O2-
123.0564	18	C6H7N2O-
123.9989	5	C6H4OS-
124.0228	28	C6H6NS-
125.0069	3	C6H5OS-
126.0385	19	C6H8NS-
126.9975	14	C4H3N2OS-
127.9814	13	C4H2NO2S-
129.013	60	C4H5N2OS-
129.0347	9	C9H5O-
131.0378	154	C8H5NO-
132.0219	31	C8H4O2-
132.0456	46	C8H6NO-
132.0569	20	C7H6N3-
133.0297	121	C8H5O2-
133.0407	9	C7H5N2O-
134.0613	86	C8H8NO-
135.0566	434	C7H7N2O-
137.0068	47	C7H5OS-
138.0309	13	C5H4N3O2-
142.0335	42	C6H8NOS-
144.0457	213	C9H6NO-
145.0409	4	C8H5N2O-
146.025	5	C8H4NO2-
146.0376	4	C9H6O2-
146.0614	25	C9H8NO-
147.0455	30	C9H7O2-
147.9991	10	C8H4OS-
148.0406	32	C8H6NO2-
149.0072	2	C8H5OS-
150.056	5	C8H8NO2-
151.0226	17	C8H7OS-
151.0516	4	C7H7N2O2-
152.0178	12	C7H6NOS-
154.0302	16	C10H4NO-
154.9923	29	C5H3N2O2S-
155.038	14	C4H11O4S-
158.0487	18	C9H6N2O-
158.0612	3	C10H8NO-
159.0564	4	C9H7N2O-
160.0407	10	C9H6NO2-
160.077	3	C10H10NO-
161.0069	47	C9H5OS-
162.0022	2	C8H4NOS-
162.0144	22	C9H6OS-
162.0438	9	C2H12NO5S-
162.0563	2	C9H8NO2-
163.0223	4	C9H7OS-
163.0515	9	C8H7N2O2-
167.0287	4	C7H7N2OS-
168.036	2	C7H8N2OS-
169.0438	13	C7H9N2OS-
171.0566	41	C10H7N2O-
172.0406	42	C10H6NO2-
172.0645	5	C10H8N2O-
176.0179	2	C9H6NOS-
181.0533	2	C12H7NO-
184.0518	16	C10H6N3O-
188.0176	17	C10H6NOS-
188.0357	76	C10H6NO3-
189.0434	156	C10H7NO3-
189.0668	17	C10H9N2O2-
194.0851	2	C13H10N2-
197.0594	4	C11H7N3O-
197.0723	9	C12H9N2O-
198.0804	5	C6H16NO4S-
204.0128	3	C10H6NO2S-
205.0619	18	C10H9N2O3-
206.0283	3	C10H8NO2S-
209.0724	3	C7H15NO4S-
211.0881	67	C13H11N2O-
213.1039	5	C13H13N2O-
215.0467	5	C11H7N2O3-
216.0541	5	C11H8N2O3-
223.0881	76	C14H11N2O-
253.0618	3	C14H9N2O3-
