Mass spectrum: Marbofloxacin; LC-ESI-QFT; MS2; CE: 150; R=35000; [M+H]+
Name: Marbofloxacin
Name: 9-Fluoro-3-methyl-10-(4-methyl-1-piperazinyl)-7-oxo-2,3-dihydro-7H-[1,3,4]oxadiazino[6,5,4-ij]quinoline-6-carboxylic acid
Formula: C17H19FN4O4
Exact mass: 362.13903
SMILES: CN1CCN(CC1)C2=C(C=C3C4=C2OCN(N4C=C(C3=O)C(=O)O)C)F
InChI: InChI=1S/C17H19FN4O4/c1-19-3-5-21(6-4-19)14-12(18)7-10-13-16(14)26-9-20(2)22(13)8-11(15(10)23)17(24)25/h7-8H,3-6,9H2,1-2H3,(H,24,25)
Instrument: Q Exactive Plus Orbitrap Thermo Scientific
Instrument type: LC-ESI-QFT
Ms type: MS2
Ion mode: POSITIVE
Ionization: ESI
Fragmentation mode: HCD
Collision energy: 150 (nominal)
Resolution: 35000
Column name: XBridge C18 3.5um, 2.1x50mm, Waters
Retention time: 3.7 min
Base peak: 363.1454
Precursor m/z: 363.1463
Precursor type: [M+H]+
m/z	relative intensity	assigned
50.0151	64	C4H2+
51.023	110	C4H3+
52.0182	31	C3H2N+
53.0022	139	C3HO+
53.0386	22	C4H5+
54.0339	17	C3H4N+
55.0178	5	C3H3O+
55.0417	18	C3H5N+
56.0495	455	C3H6N+
57.0135	208	C3H2F+
57.0573	126	C3H7N+
58.0651	42	C3H8N+
59.0291	13	C3H4F+
61.0073	38	C5H+
62.0151	81	C5H2+
63.0229	235	C5H3+
64.0181	19	C4H2N+
64.0307	4	C5H4+
65.0021	5	C4HO+
65.026	3	C4H3N+
65.0386	22	C5H5+
67.0416	17	C4H5N+
68.0057	13	C4HF+
68.0495	17	C4H6N+
69.0135	18	C4H2F+
70.0213	21	C4H3F+
70.0651	224	C4H8N+
71.0291	32	C4H4F+
71.0729	18	C4H9N+
72.0807	234	C4H10N+
73.0083	2	C3H2FO+
74.0151	171	C6H2+
75.0229	999	C6H3+
76.0181	217	C5H2N+
76.0307	24	C6H4+
77.0021	20	C5HO+
77.0385	36	C6H5+
77.9974	12	C4NO+
78.0338	68	C5H4N+
79.0179	11	C5H3O+
80.013	13	C4H2NO+
81.0135	181	C5H2F+
82.0088	32	C4HFN+
82.0213	15	C5H3F+
82.0651	6	C5H8N+
83.0291	250	C5H4F+
84.037	26	C5H5F+
85.0761	5	C4H9N2+
86.0151	12	C7H2+
87.0105	3	C6HN+
87.0229	62	C7H3+
88.0182	90	C6H2N+
88.0308	65	C7H4+
89.0386	272	C7H5+
90.0339	32	C6H4N+
90.0464	19	C7H6+
91.0542	5	C7H7+
92.0256	4	C6H4O+
92.0493	4	CH5FN4+
93.0135	32	C6H2F+
93.0336	3	C6H5O+
94.0213	88	C6H3F+
95.0292	118	C6H4F+
95.0491	53	C6H7O+
96.0244	75	C5H3FN+
96.0371	32	C6H5F+
96.0444	55	C5H6NO+
97.0322	4	C5H4FN+
97.045	3	C6H6F+
98.0152	14	C8H2+
98.04	18	C5H5FN+
99.0104	20	C7HN+
99.023	36	C8H3+
100.0182	152	C7H2N+
101.026	13	C7H3N+
101.0386	35	C8H5+
102.0338	148	C7H4N+
102.0465	45	C8H6+
103.0178	4	C7H3O+
103.0291	5	C6H3N2+
103.0416	11	C7H5N+
103.0543	16	C8H7+
104.0131	25	C6H2NO+
104.0495	21	C7H6N+
105.0136	26	C7H2F+
105.0448	41	C6H5N2+
106.0087	4	C6HFN+
106.0214	4	C7H3F+
106.029	3	C6H4NO+
107.0292	600	C7H4F+
108.0244	46	C6H3FN+
108.0369	109	C7H5F+
109.0323	12	C6H4FN+
109.0448	185	C7H6F+
110.04	6	C6H5FN+
112.0318	10	C6H5FO+
113.0396	111	C6H6FO+
114.0343	104	C8H4N+
115.0416	91	C8H5N+
116.0496	33	C8H6N+
117.0573	11	C8H7N+
118.0286	18	
119.0166	15	C7H2FN+
119.0493	19	C8H7O+
120.0244	16	C7H3FN+
120.0371	26	C8H5F+
120.0442	32	C2H5FN4O+
121.0322	30	C7H4FN+
121.0402	2	C6H5N2O+
121.0446	6	C8H6F+
122.04	215	C7H5FN+
123.0353	233	C6H4FN2+
124.0192	4	C6H3FNO+
126.0345	15	C6H5FNO+
127.0289	6	C8H3N2+
127.0416	3	C9H5N+
128.0495	48	C9H6N+
129.0446	108	C8H5N2+
129.0573	14	C9H7N+
130.0288	5	C8H4NO+
130.04	51	C7H4N3+
130.0652	11	C9H8N+
131.0292	12	C9H4F+
132.0245	47	C8H3FN+
132.0445	5	C8H6NO+
133.0322	6	C8H4FN+
133.0448	24	C9H6F+
134.0401	45	C8H5FN+
134.0599	4	C3H7FN4O+
135.0478	149	C8H6FN+
136.0558	11	C8H7FN+
137.0272	4	C7H4FNO+
138.0346	14	C7H5FNO+
140.0268	9	C7H5FO2+
140.0495	23	C10H6N+
141.0449	2	C9H5N2+
142.0288	5	C9H4NO+
143.0366	12	C9H5NO+
146.0401	12	C9H5FN+
147.0353	35	C8H4FN2+
147.0478	3	C9H6FN+
148.0195	4	C8H3FNO+
148.0307	19	C12H4+
148.0558	42	C9H7FN+
150.035	14	C8H5FNO+
152.0506	6	C8H7FNO+
154.0398	10	C9H4N3+
155.0604	22	C10H7N2+
157.0396	4	C9H5N2O+
158.0401	5	C10H5FN+
159.048	3	C10H6FN+
162.0346	3	C9H5FNO+
164.0504	3	C9H7FNO+
