Mass spectrum: Benfuracarb; LC-ESI-QFT; MS2; CE: 45%; R=17500; [M+H]+
Name: Benfuracarb
Name: ethyl 3-[[(2,2-dimethyl-3H-1-benzofuran-7-yl)oxycarbonyl-methylamino]sulfanyl-propan-2-ylamino]propanoate
Formula: C20H30N2O5S
Exact mass: 410.1875
SMILES: CCOC(=O)CCN(C(C)C)SN(C)C(=O)OC1=CC=CC2=C1OC(C2)(C)C
InChI: InChI=1S/C20H30N2O5S/c1-7-25-17(23)11-12-22(14(2)3)28-21(6)19(24)26-16-10-8-9-15-13-20(4,5)27-18(15)16/h8-10,14H,7,11-13H2,1-6H3
Instrument: Exploris 240 Orbitrap Thermo Scientific
Instrument type: LC-ESI-QFT
Ms type: MS2
Ion mode: POSITIVE
Ionization: ESI
Fragmentation mode: HCD
Collision energy: 45 % (nominal)
Resolution: 17500
Column name: XBridge C18 3.5um, 2.1x50mm, Waters
Retention time: 12.809 min
Base peak: 411.1952
Precursor m/z: 411.1948
Precursor type: [M+H]+
m/z	relative intensity	assigned
58.0288	4	C2H4NO+
58.0651	3	C3H8N+
70.0651	14	C4H8N+
73.0284	41	C3H5O2+
74.0059	32	C2H4NS+
74.0601	6	C3H8NO+
90.0372	85	C3H8NS+
101.0595	24	C5H9O2+
102.0008	132	C3H4NOS+
111.0805	4	C7H11O+
112.0755	23	C6H10NO+
116.0523	5	C5H10NS+
116.0705	12	C5H10NO2+
120.0113	8	C3H6NO2S+
130.0865	5	C6H12NO2+
143.0489	3	C10H7O+
144.0475	42	C6H10NOS+
148.0428	38	C5H10NO2S+
153.0368	22	C8H9OS+
158.1176	70	C8H16NO2+
161.0598	15	C10H9O2+
162.0677	93	C10H10O2+
167.0526	18	C9H11OS+
177.0375	15	C10H9OS+
190.0892	10	C8H16NO2S+
195.0475	999	C10H11O2S+
