Mass spectrum: Metolachlor-TP SYN547977; LC-ESI-QFT; MS2; CE: 90%; R=17500; [M+H]+
Name: Metolachlor-TP SYN547977
Formula: C15H20ClNO3
Exact mass: 297.1132
SMILES: ClCC(=O)N(C(C)COC)c1c(C)cccc1C(C)=O
InChI: InChI=1S/C15H20ClNO3/c1-10-6-5-7-13(12(3)18)15(10)17(14(19)8-16)11(2)9-20-4/h5-7,11H,8-9H2,1-4H3
Instrument: Exploris 240 Orbitrap Thermo Scientific
Instrument type: LC-ESI-QFT
Ms type: MS2
Ion mode: POSITIVE
Ionization: ESI
Fragmentation mode: HCD
Collision energy: 90 % (nominal)
Resolution: 17500
Column name: XBridge C18 3.5um, 2.1x50mm, Waters
Retention time: 6.762 min
Base peak: 298.1202
Precursor m/z: 298.1204
Precursor type: [M+H]+
m/z	relative intensity	assigned
73.0648	64	C4H9O+
76.9791	53	C2H2ClO+
77.0386	26	C6H5+
79.0544	102	C6H7+
91.0543	69	C7H7+
95.0491	16	C6H7O+
103.0543	63	C8H7+
105.0699	403	C8H9+
106.065	55	C7H8N+
107.0729	64	C7H9N+
108.081	103	C7H10N+
115.0545	33	C9H7+
117.0575	82	C8H7N+
118.065	31	C8H8N+
119.0731	34	C8H9N+
120.0809	156	C8H10N+
129.07	44	C10H9+
130.0654	101	C9H8N+
131.0731	112	C9H9N+
132.0807	140	C9H10N+
133.089	23	C9H11N+
134.06	79	C8H8NO+
134.0966	48	C9H12N+
142.0654	25	C10H8N+
144.0809	136	C10H10N+
146.0964	31	C10H12N+
148.1118	87	C10H14N+
154.0651	101	C11H8N+
156.0804	59	C11H10N+
157.0887	318	C11H11N+
160.0759	24	C10H10NO+
170.0969	42	C12H12N+
172.1121	999	C12H14N+
173.0836	15	C11H11NO+
174.091	26	C11H12NO+
208.052	35	C11H11ClNO+
