Mass spectrum: Theophyline; LC-ESI-QFT; MS2; CE: 180; R=35000; [M-H]-
Name: Theophyline
Name: Theophylline
Name: 1,3-dimethyl-7H-purine-2,6-dione
Formula: C7H8N4O2
Exact mass: 180.06473
SMILES: CN1C2=C(C(=O)N(C1=O)C)NC=N2
InChI: InChI=1S/C7H8N4O2/c1-10-5-4(8-3-9-5)6(12)11(2)7(10)13/h3H,1-2H3,(H,8,9)
Instrument: Q Exactive Plus Orbitrap Thermo Scientific
Instrument type: LC-ESI-QFT
Ms type: MS2
Ion mode: NEGATIVE
Ionization: ESI
Fragmentation mode: HCD
Collision energy: 180 (nominal)
Resolution: 35000
Column name: XBridge C18 3.5um, 2.1x50mm, Waters
Retention time: 3.1 min
Base peak: 179.0573
Precursor m/z: 179.0574
Precursor type: [M-H]-
m/z	relative intensity	assigned
50.0036	27	C3N-
55.0302	158	C2H3N2-
64.0068	56	C3N2-
65.0146	230	C3HN2-
65.9986	999	C3NO-
67.0302	112	C3H3N2-
68.0143	2	C3H2NO-
69.0095	20	C2HN2O-
79.0177	108	C3HN3-
80.0255	2	C3H2N3-
82.0173	3	C3H2N2O-
92.0255	115	C4H2N3-
93.0096	8	C4HN2O-
94.0411	30	C4H4N3-
107.0126	3	C4HN3O-
108.0204	30	C4H2N3O-
120.0203	2	C5H2N3O-
126.0311	7	C4H4N3O2-
135.0313	28	C5H3N4O-
