Mass spectrum: 4,6-dinitro-o-cresol; LC-ESI-QFT; MS2; CE: 30; R=35000; [M-H]-
Name: 4,6-dinitro-o-cresol
Name: DNOC
Name: 2-methyl-4,6-dinitro-phenol
Formula: C7H6N2O5
Exact mass: 198.02767
SMILES: [O-][N+](=O)c1cc([N+]([O-])=O)cc(c1O)C
InChI: InChI=1S/C7H6N2O5/c1-4-2-5(8(11)12)3-6(7(4)10)9(13)14/h2-3,10H,1H3
Instrument: Q Exactive Orbitrap Thermo Scientific
Instrument type: LC-ESI-QFT
Ms type: MS2
Ion mode: NEGATIVE
Ionization: ESI
Fragmentation mode: HCD
Collision energy: 30 (nominal)
Resolution: 35000
Column name: XBridge C18 3.5um, 2.1x50mm, Waters
Retention time: 8.0 min
Base peak: 197.0207
Precursor m/z: 197.0204
Precursor type: [M-H]-
m/z	relative intensity	assigned
64.0194	2	C4H2N-
65.0397	2	C5H5-
93.0345	2	C6H5O-
109.0296	20	C6H5O2-
123.0327	5	C6H5NO2-
137.0244	83	C7H5O3-
138.0196	3	C6H4NO3-
150.0197	4	C7H4NO3-
151.0275	9	C7H5NO3-
166.0144	2	C7H4NO4-
167.0224	81	C7H5NO4-
180.0177	68	C7H4N2O4-
197.0206	999	C7H5N2O5-
