Mass spectrum: Albuterol; LC-ESI-ITFT; MS2; CE: 75%; R=7500; [M+H]+
Name: Albuterol
Name: Salbutamol
Name: 4-[2-(tert-butylamino)-1-hydroxy-ethyl]-2-methylol-phenol
Formula: C13H21NO3
Exact mass: 239.1521
SMILES: OCc1cc(ccc1O)C(O)CNC(C)(C)C
InChI: InChI=1S/C13H21NO3/c1-13(2,3)14-7-12(17)9-4-5-11(16)10(6-9)8-15/h4-6,12,14-17H,7-8H2,1-3H3
Instrument: LTQ Orbitrap XL Thermo Scientific
Instrument type: LC-ESI-ITFT
Ms type: MS2
Ion mode: POSITIVE
Ionization: ESI
Fragmentation mode: HCD
Collision energy: 75 % (nominal)
Resolution: 7500
Column name: XBridge C18 3.5um, 2.1x50mm, Waters
Retention time: 2.0 min
Base peak: 240.1602
Precursor m/z: 240.1594
Precursor type: [M+H]+
m/z	relative intensity	assigned
55.0177	16	C3H3O+
57.0698	39	C4H9+
68.0495	4	C4H6N+
77.0386	29	C6H5+
79.0542	93	C6H7+
80.0495	36	C5H6N+
81.0333	14	C5H5O+
91.0542	133	C7H7+
93.0699	114	C7H9+
94.0651	14	C6H8N+
103.0543	82	C8H7+
105.0447	6	C6H5N2+
105.0573	8	C7H7N+
105.07	7	C8H9+
106.0651	39	C7H8N+
107.0493	6	C7H7O+
117.0573	12	C8H7N+
118.0651	53	C8H8N+
119.0493	23	C8H7O+
120.0808	216	C8H10N+
121.0648	387	C8H9O+
130.0651	306	C9H8N+
131.0491	52	C9H7O+
131.0731	8	C9H9N+
133.0522	250	C8H7NO+
135.0682	13	C8H9NO+
136.0757	26	C8H10NO+
146.0606	15	C9H8NO+
147.0675	13	C9H9NO+
148.0757	999	C9H10NO+
