Mass spectrum: Levetiracetam; LC-ESI-ITFT; MS2; CE: 15%; R=7500; [M+H]+
Name: Levetiracetam
Name: (2R)-2-(2-ketopyrrolidino)butyramide
Formula: C8H14N2O2
Exact mass: 170.1055
SMILES: CC[C@H](C(=O)N)N1CCCC1=O
InChI: InChI=1S/C8H14N2O2/c1-2-6(8(9)12)10-5-3-4-7(10)11/h6H,2-5H2,1H3,(H2,9,12)/t6-/m1/s1
Instrument: LTQ Orbitrap XL Thermo Scientific
Instrument type: LC-ESI-ITFT
Ms type: MS2
Ion mode: POSITIVE
Ionization: ESI
Fragmentation mode: HCD
Collision energy: 15 % (nominal)
Resolution: 7500
Column name: XBridge C18 3.5um, 2.1x50mm, Waters
Retention time: 3.0 min
Base peak: 193.0951
Precursor m/z: 171.1128
Precursor type: [M+H]+
m/z	relative intensity	assigned
69.0335	4	C4H5O+
126.0914	999	C7H12NO+
154.0863	527	C8H12NO2+
171.1128	131	C8H15N2O2+
