Mass spectrum: Metosulam; LC-ESI-QFT; MS2; CE: 75; R=35000; [M-H]-
Name: Metosulam
Name: N-(2,6-dichloro-3-methyl-phenyl)-5,7-dimethoxy-[1,2,4]triazolo[1,5-a]pyrimidine-2-sulfonamide
Formula: C14H13Cl2N5O4S
Exact mass: 417.00653
SMILES: Clc1c(ccc(Cl)c1NS(=O)(=O)c2nc3nc(OC)cc(OC)n3n2)C
InChI: InChI=1S/C14H13Cl2N5O4S/c1-7-4-5-8(15)12(11(7)16)20-26(22,23)14-18-13-17-9(24-2)6-10(25-3)21(13)19-14/h4-6,20H,1-3H3
Instrument: Q Exactive Orbitrap Thermo Scientific
Instrument type: LC-ESI-QFT
Ms type: MS2
Ion mode: NEGATIVE
Ionization: ESI
Fragmentation mode: HCD
Collision energy: 75 (nominal)
Resolution: 35000
Column name: XBridge C18 3.5um, 2.1x50mm, Waters
Retention time: 7.6 min
Base peak: 415.9998
Precursor m/z: 415.9993
Precursor type: [M-H]-
m/z	relative intensity	assigned
55.03	1	C2H3N2-
64.0066	12	C3N2-
65.0145	103	C3HN2-
65.9986	460	C3NO-
66.0097	999	C2N3-
68.014	2	C3H2NO-
78.0224	68	C4H2N2-
79.0176	26	C3HN3-
79.0302	5	C4H3N2-
80.0255	1	C3H2N3-
82.0172	9	C3H2N2O-
83.0252	1	C3H3N2O-
90.0096	1	C4N3-
92.0255	11	C4H2N3-
93.0095	27	C4HN2O-
94.0172	2	C4H2N2O-
95.0251	9	C4H3N2O-
95.0365	1	C3H3N4-
96.0092	1	C4H2NO2-
96.0329	1	C4H4N2O-
96.0441	3	C3H4N4-
97.052	1	C3H5N4-
98.0246	6	C4H4NO2-
106.0284	1	C4H2N4-
107.0126	58	C4HN3O-
108.0204	17	C4H2N3O-
109.0044	15	C4HN2O2-
110.0122	8	C4H2N2O2-
111.0677	44	C4H7N4-
120.0204	7	C5H2N3O-
120.0442	20	C5H4N4-
121.0044	2	C5HN2O2-
121.0157	15	C4HN4O-
121.0281	11	C5H3N3O-
122.0123	21	C5H2N2O2-
122.0358	1	C5H4N3O-
123.0201	47	C5H3N2O2-
134.0236	21	C5H2N4O-
135.0313	68	C5H3N4O-
136.0391	19	C5H4N4O-
137.0229	1	C5H3N3O2-
149.0466	5	C6H5N4O-
151.0259	6	C5H3N4O2-
163.0263	80	C6H3N4O2-
164.0341	187	C6H4N4O2-
165.042	8	C6H5N4O2-
179.0575	27	C7H7N4O2-
203.0125	4	C9H4ClN4-
270.0186	1	C12H5ClN5O-
