Mass spectrum: 2-Hydroxynevirapine; LC-ESI-QFT; MS2; CE: 60%; R=17500; [M-H]-
Name: 2-Hydroxynevirapine
Name: 2-Hydroxy Nevirapine
Name: 2-cyclopropyl-7-methyl-2,4,9,15-tetrazatricyclo[9.4.0.03,8]pentadeca-1(11),3(8),6,12,14-pentaene-5,10-dione
Formula: C15H14N4O2
Exact mass: 282.1116757
SMILES: CC1=CC(=O)NC2=C1NC(=O)C3=C(N2C4CC4)N=CC=C3
InChI: InChI=1S/C15H14N4O2/c1-8-7-11(20)17-14-12(8)18-15(21)10-3-2-6-16-13(10)19(14)9-4-5-9/h2-3,6-7,9H,4-5H2,1H3,(H,17,20)(H,18,21)
Instrument: Exploris 240 Orbitrap Thermo Scientific
Instrument type: LC-ESI-QFT
Ms type: MS2
Ion mode: NEGATIVE
Ionization: ESI
Fragmentation mode: HCD
Collision energy: 60 % (nominal)
Resolution: 17500
Column name: XBridge C18 3.5um, 2.1x50mm, Waters
Retention time: 3.836 min
Base peak: 146.9387
Precursor m/z: 281.1044
Precursor type: [M-H]-
m/z	relative intensity	assigned
81.0459	652	C4H5N2-
157.0411	160	C9H5N2O-
171.0567	170	C10H7N2O-
199.0513	999	C11H7N2O2-
