Mass spectrum: Lacosamide; LC-ESI-QFT; MS2; CE: 120; R=35000; [M+H]+
Name: Lacosamide
Name: N2-Acetyl-N-benzyl-O-methyl-D-serinamide
Name: 2-acetamido-N-benzyl-3-methoxypropanamide
Formula: C13H18N2O3
Exact mass: 250.13174
SMILES: CC(=O)NC(COC)C(=O)NCC1=CC=CC=C1
InChI: InChI=1S/C13H18N2O3/c1-10(16)15-12(9-18-2)13(17)14-8-11-6-4-3-5-7-11/h3-7,12H,8-9H2,1-2H3,(H,14,17)(H,15,16)
Instrument: Q Exactive Plus Orbitrap Thermo Scientific
Instrument type: LC-ESI-QFT
Ms type: MS2
Ion mode: POSITIVE
Ionization: ESI
Fragmentation mode: HCD
Collision energy: 120 (nominal)
Resolution: 35000
Column name: XBridge C18 3.5um, 2.1x50mm, Waters
Retention time: 5.1 min
Base peak: 251.138
Precursor m/z: 251.139
Precursor type: [M+H]+
m/z	relative intensity	assigned
51.0228	2	C4H3+
56.0494	9	C3H6N+
59.0365	41	C2H5NO+
63.0228	9	C5H3+
65.0385	273	C5H5+
74.0599	203	C3H8NO+
91.0541	999	C7H7+
103.054	2	C8H7+
115.054	3	C9H7+
117.0572	1	C8H7N+
