Mass spectrum: Aliskiren; LC-ESI-QFT; MS2; CE: 60; R=35000; [M+H]+
Name: Aliskiren
Name: (2S,4S,5S,7S)-5-amino-N-(3-amino-2,2-dimethyl-3-oxopropyl)-4-hydroxy-7-[[4-methoxy-3-(3-methoxypropoxy)phenyl]methyl]-8-methyl-2-propan-2-ylnonanamide
Formula: C30H53N3O6
Exact mass: 551.39344
SMILES: COCCCOC1=C(OC)C=CC(C[C@@H](C[C@H](N)[C@@H](O)C[C@@H](C(C)C)C(=O)NCC(C)(C)C(N)=O)C(C)C)=C1
InChI: InChI=1S/C30H53N3O6/c1-19(2)22(14-21-10-11-26(38-8)27(15-21)39-13-9-12-37-7)16-24(31)25(34)17-23(20(3)4)28(35)33-18-30(5,6)29(32)36/h10-11,15,19-20,22-25,34H,9,12-14,16-18,31H2,1-8H3,(H2,32,36)(H,33,35)/t22-,23-,24-,25-/m0/s1
Instrument: Q Exactive Orbitrap Thermo Scientific
Instrument type: LC-ESI-QFT
Ms type: MS2
Ion mode: POSITIVE
Ionization: ESI
Fragmentation mode: HCD
Collision energy: 60 (nominal)
Resolution: 35000
Column name: XBridge C18 3.5um, 2.1x50mm, Waters
Retention time: 9.6 min
Base peak: 552.4008
Precursor m/z: 552.4007
Precursor type: [M+H]+
m/z	relative intensity	assigned
79.0542	183	C6H7+
91.0542	114	C7H7+
97.0648	183	C6H9O+
100.0758	999	C5H10NO+
107.0492	111	C7H7O+
137.0596	141	C8H9O2+
209.117	136	C12H17O3+
