Mass spectrum: N4-Acetylsulfamethoxazole; LC-ESI-ITFT; MS2; CE: 60%; R=15000; [M+H]+
Name: N4-Acetylsulfamethoxazole
Name: N-[4-[(5-methyl-1,2-oxazol-3-yl)sulfamoyl]phenyl]acetamide
Formula: C12H13N3O4S
Exact mass: 295.0627
SMILES: c1(ccc(cc1)NC(C)=O)S(Nc1cc(C)on1)(=O)=O
InChI: InChI=1S/C12H13N3O4S/c1-8-7-12(14-19-8)15-20(17,18)11-5-3-10(4-6-11)13-9(2)16/h3-7H,1-2H3,(H,13,16)(H,14,15)
Instrument: LTQ Orbitrap XL Thermo Scientific
Instrument type: LC-ESI-ITFT
Ms type: MS2
Ion mode: POSITIVE
Ionization: ESI
Fragmentation mode: HCD
Collision energy: 60 % (nominal)
Resolution: 15000
Column name: XBridge C18 3.5um, 2.1x50mm, Waters
Retention time: 5.5 min
Base peak: 318.0528
Precursor m/z: 296.07
Precursor type: [M+H]+
m/z	relative intensity	assigned
65.0386	397	C5H5+
92.0494	91	C6H6N+
93.0336	64	C6H5O+
93.0573	128	C6H7N+
94.0651	43	C6H8N+
99.0553	73	C4H7N2O+
106.0653	24	C7H8N+
107.0604	17	C6H7N2+
108.0444	395	C6H6NO+
132.0687	8	C8H8N2+
134.06	999	C8H8NO+
136.0756	40	C8H10NO+
146.0713	78	C8H8N3+
147.0791	69	C8H9N3+
156.0113	46	C6H6NO2S+
160.0869	166	C9H10N3+
161.0013	14	C4H5N2O3S+
162.0664	30	C8H8N3O+
176.0275	23	C8H6N3S+
177.0122	8	C8H5N2OS+
189.0896	9	C10H11N3O+
194.0374	9	C8H8N3OS+
198.0217	21	C8H8NO3S+
201.0662	22	C11H9N2O2+
