Mass spectrum: Dicamba; LC-ESI-ITFT; MS2; CE: 35%; R=30000; [M-H]-
Name: Dicamba
Name: 3,6-bis(chloranyl)-2-methoxy-benzoic acid
Formula: C8H6Cl2O3
Exact mass: 219.9699
SMILES: c1(c(c(ccc1Cl)Cl)OC)C(O)=O
InChI: InChI=1S/C8H6Cl2O3/c1-13-7-5(10)3-2-4(9)6(7)8(11)12/h2-3H,1H3,(H,11,12)
Instrument: LTQ Orbitrap XL Thermo Scientific
Instrument type: LC-ESI-ITFT
Ms type: MS2
Ion mode: NEGATIVE
Ionization: ESI
Fragmentation mode: CID
Collision energy: 35 % (nominal)
Resolution: 30000
Column name: XBridge C18 3.5um, 2.1x50mm, Waters
Retention time: 7.1 min
Base peak: 174.972
Precursor m/z: 218.9621
Precursor type: [M-H]-
m/z	relative intensity	assigned
150.9468	7	C3HCl2N2O-
174.9723	999	C7H5Cl2O-
