Mass spectrum: p-Toluenesulfonic acid; LC-ESI-QFT; MS2; CE: 90%; R=15000; [M-H]-
Name: p-Toluenesulfonic acid
Name: 4-methylbenzenesulfonic acid
Formula: C7H8O3S
Exact mass: 172.0194
SMILES: CC1=CC=C(C=C1)S(=O)(=O)O
InChI: InChI=1S/C7H8O3S/c1-6-2-4-7(5-3-6)11(8,9)10/h2-5H,1H3,(H,8,9,10)
Instrument: Orbitrap Exploris 240 Thermo Scientific
Instrument type: LC-ESI-QFT
Ms type: MS2
Ion mode: NEGATIVE
Ionization: ESI
Fragmentation mode: HCD
Collision energy: 90 % (nominal)
Resolution: 15000
Column name: Atlantis C18 3um, 3.0x150mm, Waters
Retention time: 13.508 min
Base peak: 171.012
Precursor m/z: 171.0121
Precursor type: [M-H]-
Precursor intensity: 545351296
m/z	relative intensity	assigned
77.0394	4	C6H5-
79.9573	999	O3S-
80.9651	11	HO3S-
105.0347	8	C7H5O-
106.0425	18	C7H6O-
107.0502	217	C7H7O-
123.0455	4	C7H7O2-
171.012	72	C7H7O3S-
