Mass spectrum: 17a-Ethynylestradiol; LC-ESI-QFT; MS2; CE: 60; R=35000; [M+H]+
Name: 17a-Ethynylestradiol
Name: Ethinyl Estradiol
Name: 17-ethynyl-13-methyl-7,8,9,11,12,14,15,16-octahydro-6H-cyclopenta[a]phenanthrene-3,17-diol
Formula: C20H24O2
Exact mass: 296.17763
SMILES: Oc1cc4c(cc1)C3CCC2(C(CCC2(C#C)O)C3CC4)C
InChI: InChI=1S/C20H24O2/c1-3-20(22)11-9-18-17-6-4-13-12-14(21)5-7-15(13)16(17)8-10-19(18,20)2/h1,5,7,12,16-18,21-22H,4,6,8-11H2,2H3
Instrument: Q Exactive Orbitrap Thermo Scientific
Instrument type: LC-ESI-QFT
Ms type: MS2
Ion mode: POSITIVE
Ionization: ESI
Fragmentation mode: HCD
Collision energy: 60 (nominal)
Resolution: 35000
Column name: XBridge C18 3.5um, 2.1x50mm, Waters
Retention time: 10.4 min
Base peak: 279.1744
Precursor m/z: 297.1849
Precursor type: [M+H]+
m/z	relative intensity	assigned
51.0229	1	C4H3+
53.0023	1	C3HO+
53.0386	1	C4H5+
55.0179	2	C3H3O+
55.0543	2	C4H7+
57.0699	2	C4H9+
65.0386	6	C5H5+
67.0542	77	C5H7+
69.0699	13	C5H9+
71.0491	10	C4H7O+
74.0965	1	C4H12N+
77.0386	8	C6H5+
79.0542	99	C6H7+
81.0335	9	C5H5O+
81.0699	94	C6H9+
83.0492	8	C5H7O+
83.0855	6	C6H11+
85.0648	3	C5H9O+
91.0542	127	C7H7+
93.0699	96	C7H9+
95.0491	55	C6H7O+
95.0855	60	C7H11+
97.0648	13	C6H9O+
97.1012	1	C7H13+
99.0806	1	C6H11O+
103.0542	30	C8H7+
105.0448	10	C6H5N2+
105.0699	151	C8H9+
107.0491	999	C7H7O+
109.0648	21	C7H9O+
109.1012	108	C8H13+
111.0806	12	C7H11O+
115.0542	19	C9H7+
116.0623	3	C9H8+
117.0699	76	C9H9+
118.0779	1	C9H10+
119.0492	7	C8H7O+
119.0855	49	C9H11+
121.0648	101	C8H9O+
121.1011	13	C9H13+
123.044	1	C7H7O2+
123.0805	15	C8H11O+
128.062	12	C10H8+
129.0698	49	C10H9+
130.0778	11	C10H10+
131.0493	18	C9H7O+
131.0856	95	C10H11+
132.0571	2	C9H8O+
133.0648	203	C9H9O+
133.1012	33	C10H13+
134.0683	7	C4H10N2O3+
135.0805	14	C9H11O+
135.1169	10	C10H15+
137.0961	53	C9H13O+
141.07	14	C11H9+
142.0778	9	C11H10+
143.0857	31	C11H11+
144.057	24	C10H8O+
144.0935	18	C11H12+
145.0649	55	C10H9O+
145.1012	24	C11H13+
146.0679	2	C5H10N2O3+
146.073	2	C10H10O+
147.0805	54	C10H11O+
147.1168	7	C11H15+
149.0599	1	C9H9O2+
149.0963	5	C10H13O+
149.1325	7	C11H17+
153.07	9	C12H9+
154.078	2	C12H10+
155.0857	8	C12H11+
156.0934	5	C12H12+
157.0649	87	C11H9O+
157.1013	24	C12H13+
158.0682	6	C6H10N2O3+
158.073	6	C11H10O+
159.0805	153	C11H11O+
159.1168	36	C12H15+
160.0884	7	C11H12O+
161.1322	1	C12H17+
163.0755	2	C10H11O2+
163.112	2	C11H15O+
165.0698	12	C13H9+
166.0778	3	C13H10+
167.0856	9	C13H11+
169.0646	5	C12H9O+
169.0762	5	C11H9N2+
169.101	5	C13H13+
170.0728	2	C12H10O+
171.0805	29	C12H11O+
171.1167	17	C13H15+
172.0836	4	C7H12N2O3+
172.1247	7	C13H16+
173.0963	20	C12H13O+
173.1328	2	C13H17+
177.1276	1	C12H17O+
178.0775	2	C14H10+
179.0858	13	C14H11+
181.065	7	C13H9O+
181.1012	7	C14H13+
182.0727	9	C13H10O+
183.0807	24	C13H11O+
184.0888	2	C13H12O+
185.0968	21	C13H13O+
186.0994	1	C8H14N2O3+
187.1118	3	C13H15O+
189.1276	11	C13H17O+
191.0859	3	C15H11+
193.1012	2	C15H13+
194.0726	9	C14H10O+
195.0805	15	C14H11O+
196.088	9	C14H12O+
197.0961	25	C14H13O+
198.1037	2	C14H14O+
199.1119	9	C14H15O+
207.0808	1	C15H11O+
208.089	10	C15H12O+
209.0962	25	C15H13O+
210.1035	2	C15H14O+
211.1114	11	C15H15O+
213.1275	21	C15H17O+
214.1308	46	C10H18N2O3+
215.1068	2	C14H15O2+
221.0961	1	C16H13O+
222.1046	2	C16H14O+
223.1119	15	C16H15O+
224.1199	1	C16H16O+
225.0428	12	C13H7NO3+
225.1278	5	C16H17O+
235.112	3	C17H15O+
236.1199	3	C17H16O+
237.1271	2	C17H17O+
251.1435	2	C18H19O+
264.1516	1	C19H20O+
