Mass spectrum: Pirimicarb; LC-ESI-ITFT; MS2; CE: 60%; R=7500; [M+H]+
Name: Pirimicarb
Name: N,N-dimethylcarbamic acid [2-(dimethylamino)-5,6-dimethyl-4-pyrimidinyl] ester
Formula: C11H18N4O2
Exact mass: 238.1430
SMILES: n(c(c(C)c1OC(=O)N(C)C)C)c(n1)N(C)C
InChI: InChI=1S/C11H18N4O2/c1-7-8(2)12-10(14(3)4)13-9(7)17-11(16)15(5)6/h1-6H3
Instrument: LTQ Orbitrap XL Thermo Scientific
Instrument type: LC-ESI-ITFT
Ms type: MS2
Ion mode: POSITIVE
Ionization: ESI
Fragmentation mode: HCD
Collision energy: 60 % (nominal)
Resolution: 7500
Column name: XBridge C18 3.5um, 2.1x50mm, Waters
Retention time: 5.0 min
Base peak: 239.1506
Precursor m/z: 239.1503
Precursor type: [M+H]+
m/z	relative intensity	assigned
72.0444	999	C3H6NO+
83.0239	16	C3H3N2O+
85.076	77	C4H9N2+
109.076	47	C6H9N2+
137.0709	65	C7H9N2O+
138.0788	22	C7H10N2O+
150.1026	50	C8H12N3+
152.082	10	C7H10N3O+
166.0976	2	C8H12N3O+
167.1055	28	C8H13N3O+
168.1128	1	C8H14N3O+
182.1287	394	C9H16N3O+
195.1607	16	C10H19N4+
