Mass spectrum: Antipyrine; LC-ESI-ITFT; MS2; CE: 60%; R=7500; [M+H]+
Name: Antipyrine
Name: Phenazone
Name: 1,5-dimethyl-2-phenyl-3-pyrazolone
Formula: C11H12N2O
Exact mass: 188.0950
SMILES: CN1N(C(=O)C=C1C)C2=CC=CC=C2
InChI: InChI=1S/C11H12N2O/c1-9-8-11(14)13(12(9)2)10-6-4-3-5-7-10/h3-8H,1-2H3
Instrument: LTQ Orbitrap XL Thermo Scientific
Instrument type: LC-ESI-ITFT
Ms type: MS2
Ion mode: POSITIVE
Ionization: ESI
Fragmentation mode: HCD
Collision energy: 60 % (nominal)
Resolution: 7500
Column name: XBridge C18 3.5um, 2.1x50mm, Waters
Retention time: 4.6 min
Base peak: 189.1027
Precursor m/z: 189.1022
Precursor type: [M+H]+
m/z	relative intensity	assigned
56.0494	53	C3H6N+
58.0651	46	C3H8N+
65.0386	7	C5H5+
69.057	2	C4H7N+
77.0383	10	C6H5+
81.0447	5	C4H5N2+
91.0543	14	C7H7+
92.0494	3	C6H6N+
95.0601	6	C5H7N2+
96.0447	4	C5H6NO+
96.0682	29	C5H8N2+
98.0601	14	C5H8NO+
103.0545	4	C8H7+
104.0494	71	C7H6N+
105.0332	4	C7H5O+
105.07	4	C8H9+
106.0651	53	C7H8N+
115.0542	6	C9H7+
117.0574	8	C8H7N+
117.0699	18	C9H9+
118.0652	34	C8H8N+
120.0807	32	C8H10N+
130.065	45	C9H8N+
131.0601	6	C8H7N2+
131.0729	68	C9H9N+
132.0807	33	C9H10N+
133.052	7	C8H7NO+
133.0759	8	C8H9N2+
134.0966	5	C9H12N+
135.0555	2	C7H7N2O+
144.0807	58	C10H10N+
145.0648	27	C10H9O+
146.0838	65	C9H10N2+
146.0967	14	C10H12N+
147.0916	108	C9H11N2+
148.0753	6	C9H10NO+
149.0706	8	C8H9N2O+
157.0522	8	C10H7NO+
158.0596	4	C10H8NO+
159.0917	2	C10H11N2+
160.0997	5	C10H12N2+
161.1073	88	C10H13N2+
172.0757	16	C11H10NO+
174.0787	62	C10H10N2O+
189.1025	999	C11H13N2O+
