Mass spectrum: Enoxacin; LC-ESI-QFT; MS2; CE: 45; R=35000; [M+H]+
Name: Enoxacin
Name: 1-Ethyl-6-fluoro-1,4-dihydro-4-oxo-7-(1-piperazinyl)-1,8-naphthyridine-3-carboxylic acid
Name: 1-ethyl-6-fluoranyl-4-oxidanylidene-7-piperazin-1-yl-1,8-naphthyridine-3-carboxylic acid
Formula: C15H17FN4O3
Exact mass: 320.12847
SMILES: Fc1c(nc2c(c1)C(=O)C(\C(=O)O)=C/N2CC)N3CCNCC3
InChI: InChI=1S/C15H17FN4O3/c1-2-19-8-10(15(22)23)12(21)9-7-11(16)14(18-13(9)19)20-5-3-17-4-6-20/h7-8,17H,2-6H2,1H3,(H,22,23)
Instrument: Q Exactive Orbitrap Thermo Scientific
Instrument type: LC-ESI-QFT
Ms type: MS2
Ion mode: POSITIVE
Ionization: ESI
Fragmentation mode: HCD
Collision energy: 45 (nominal)
Resolution: 35000
Column name: XBridge C18 3.5um, 2.1x50mm, Waters
Retention time: 4.2 min
Base peak: 321.136
Precursor m/z: 321.1357
Precursor type: [M+H]+
m/z	relative intensity	assigned
68.0496	1	C4H6N+
70.0651	17	C4H8N+
165.0459	1	C8H6FN2O+
178.0538	2	C9H7FN2O+
178.0776	3	C9H9FN3+
179.0614	7	C9H8FN2O+
180.0569	7	C8H7FN3O+
186.0663	6	C10H8N3O+
187.0616	2	C9H7N4O+
192.0694	2	C10H9FN2O+
200.0693	5	C10H8N4O+
204.0568	12	C10H7FN3O+
205.0648	70	C15H9O+
206.0726	149	C15H10O+
206.0845	11	
207.0804	3	C15H11O+
208.0881	14	C10H11FN3O+
214.0851	1	C8H11FN4O2+
214.0976	1	C12H12N3O+
215.0932	1	C11H11N4O+
220.0881	10	C11H11FN3O+
221.096	3	C11H12FN3O+
224.0469	4	C14H8O3+
224.0595	1	C10H9FN2O3+
228.1007	5	C12H12N4O+
229.1086	46	C12H13N4O+
232.0519	38	C11H7FN3O2+
234.1038	201	C12H13FN3O+
237.0671	1	C11H10FN2O3+
242.1163	1	C13H14N4O+
250.0624	58	C11H9FN3O3+
255.0875	2	C13H11N4O2+
255.1245	1	C14H15N4O+
257.1398	50	C14H17N4O+
258.0668	2	C13H9FN3O2+
273.0987	5	C13H13N4O3+
275.0939	14	C13H12FN4O2+
275.13	4	C14H16FN4O+
276.0782	3	C13H11FN3O3+
277.1463	10	C14H18FN4O+
278.0938	8	C13H13FN3O3+
283.119	3	C15H15N4O2+
293.1047	30	C13H14FN4O3+
301.1297	18	C15H17N4O3+
303.1246	37	C15H16FN4O2+
321.1359	999	C15H18FN4O3+
323.1402	2	C14H18FN5O3+
