Mass spectrum: Haloperidol; LC-ESI-QFT; MS2; CE: 30; R=35000; [M+H]+
Name: Haloperidol
Name: 4-[4-(4-chlorophenyl)-4-hydroxypiperidin-1-yl]-1-(4-fluorophenyl)butan-1-one
Formula: C21H23ClFNO2
Exact mass: 375.14013
SMILES: C1CN(CCC1(C2=CC=C(C=C2)Cl)O)CCCC(=O)C3=CC=C(C=C3)F
InChI: InChI=1S/C21H23ClFNO2/c22-18-7-5-17(6-8-18)21(26)11-14-24(15-12-21)13-1-2-20(25)16-3-9-19(23)10-4-16/h3-10,26H,1-2,11-15H2
Instrument: Q Exactive Plus Orbitrap Thermo Scientific
Instrument type: LC-ESI-QFT
Ms type: MS2
Ion mode: POSITIVE
Ionization: ESI
Fragmentation mode: HCD
Collision energy: 30 (nominal)
Resolution: 35000
Column name: XBridge C18 3.5um, 2.1x50mm, Waters
Retention time: 6.8 min
Base peak: 376.1475
Precursor m/z: 376.1474
Precursor type: [M+H]+
m/z	relative intensity	assigned
95.0287	2	C6H4F+
123.024	55	C7H4FO+
163.0552	1	C10H8FO+
165.071	999	C10H10FO+
194.0732	19	C11H13ClN+
194.0976	16	C11H13FNO+
206.0976	8	C12H13FNO+
212.0838	1	C11H15ClNO+
358.137	169	C21H22ClFNO+
376.1476	408	C21H24ClFNO2+
