Mass spectrum: DDAO; LC-ESI-ITFT; MS2; CE: 35%; R=15000; [M+H]+
Name: DDAO
Name: N,N-dimethyl-1-decanamine oxide
Name: NN-Dimethyldicylamine N-oxide
Formula: C12H27NO
Exact mass: 201.2093
SMILES: N(C)(CCCCCCCCCC)(C)=O
InChI: InChI=1S/C12H27NO/c1-4-5-6-7-8-9-10-11-12-13(2,3)14/h4-12H2,1-3H3
Instrument: LTQ Orbitrap XL Thermo Scientific
Instrument type: LC-ESI-ITFT
Ms type: MS2
Ion mode: POSITIVE
Ionization: ESI
Fragmentation mode: CID
Collision energy: 35 % (nominal)
Resolution: 15000
Column name: XBridge C18 3.5um, 2.1x50mm, Waters
Retention time: 10.4 min
Base peak: 202.2163
Precursor m/z: 202.2165
Precursor type: [M+H]+
m/z	relative intensity	assigned
55.0542	2	C4H7+
58.0651	39	C3H8N+
62.06	43	C2H8NO+
69.0697	3	C5H9+
71.0854	6	C5H11+
72.0807	36	C4H10N+
83.0854	11	C6H11+
85.101	12	C6H13+
97.1012	9	C7H13+
170.1905	2	C11H24N+
184.2058	999	C12H26N+
185.2136	48	C12H27N+
