Mass spectrum: Minocycline; LC-ESI-QFT; MS2; CE: 45; R=35000; [M-H]-
Name: Minocycline
Name: Minocin
Name: (4S,4aS,5aR,12aS)-4,7-Bis(dimethylamino)-3,10,12,12a-tetrahydroxy-1,11-dioxo-1,4,4a,5,5a,6,11,12a-octahydro-2-tetracenecarboxamide
Formula: C23H27N3O7
Exact mass: 457.18490
SMILES: [H][C@@]12CC3=C(C(O)=CC=C3N(C)C)C(=O)C1=C(O)[C@]1(O)C(=O)C(C(N)=O)=C(O)[C@@H](N(C)C)[C@]1([H])C2
InChI: InChI=1S/C23H27N3O7/c1-25(2)12-5-6-13(27)15-10(12)7-9-8-11-17(26(3)4)19(29)16(22(24)32)21(31)23(11,33)20(30)14(9)18(15)28/h5-6,9,11,17,27,29-30,33H,7-8H2,1-4H3,(H2,24,32)/t9-,11-,17-,23-/m0/s1
Instrument: Q Exactive Plus Orbitrap Thermo Scientific
Instrument type: LC-ESI-QFT
Ms type: MS2
Ion mode: NEGATIVE
Ionization: ESI
Fragmentation mode: HCD
Collision energy: 45 (nominal)
Resolution: 35000
Column name: XBridge C18 3.5um, 2.1x50mm, Waters
Retention time: 3.6 min
Base peak: 456.1772
Precursor m/z: 456.1776
Precursor type: [M-H]-
m/z	relative intensity	assigned
65.9985	6	C3NO-
84.009	29	C3H2NO2-
84.0455	1	C4H6NO-
86.0247	4	C3H4NO2-
93.0345	1	C6H5O-
96.0091	2	C4H2NO2-
96.9931	2	C4HO3-
99.0086	3	C4H3O3-
107.0502	1	C7H7O-
109.0293	4	C6H5O2-
119.0138	1	C7H3O2-
121.0294	3	C7H5O2-
123.045	1	C7H7O2-
124.0037	3	C5H2NO3-
125.0719	44	C6H9N2O-
126.0197	7	C5H4NO3-
126.0559	37	C6H8NO2-
134.0247	2	C7H4NO2-
135.0087	10	C7H3O3-
136.0403	9	C7H6NO2-
137.0242	7	C7H5O3-
138.0322	2	C7H6O3-
139.0148	12	C5H3N2O3-
142.0144	8	C5H4NO4-
142.9985	7	C5H3O5-
150.0925	3	C9H12NO-
152.0352	5	C7H6NO3-
154.0383	11	C6H6N2O3-
160.0406	2	C9H6NO2-
162.0196	32	C8H4NO3-
163.0036	40	C8H3O4-
163.0273	2	C8H5NO3-
164.0115	2	C8H4O4-
164.0717	1	C9H10NO2-
166.0874	3	C9H12NO2-
169.0254	15	C6H5N2O4-
169.0618	20	C7H9N2O3-
172.0398	1	C10H6NO2-
180.0301	58	C8H6NO4-
181.0142	3	C8H5O5-
181.038	7	C8H7NO4-
186.0926	3	C12H12NO-
187.0638	4	C11H9NO2-
188.0352	10	C10H6NO3-
188.0715	5	C11H10NO2-
191.0827	1	C10H11N2O2-
192.0667	2	C10H10NO3-
202.0873	21	C12H12NO2-
203.0586	4	C11H9NO3-
207.0773	2	C10H11N2O3-
209.093	9	C10H13N2O3-
215.0589	5	C12H9NO3-
216.1028	10	C13H14NO2-
226.087	1	C14H12NO2-
226.1234	3	C15H16NO-
227.0949	2	C14H13NO2-
230.0821	14	C13H12NO3-
237.0795	3	C15H11NO2-
238.0515	2	C14H8NO3-
238.0866	1	C15H12NO2-
239.0949	12	C15H13NO2-
240.1027	3	C15H14NO2-
242.1184	12	C15H16NO2-
243.0902	3	C14H13NO3-
244.0977	3	C14H14NO3-
246.0769	3	C13H12NO4-
252.067	3	C15H10NO3-
252.1027	8	C16H14NO2-
253.0743	48	C15H11NO3-
254.0824	1	C15H12NO3-
254.1184	22	C16H16NO2-
255.09	1	C15H13NO3-
256.0977	1	C15H14NO3-
256.1576	3	C16H20N2O-
258.0772	4	C14H12NO4-
258.1132	17	C15H16NO3-
263.0947	5	C17H13NO2-
264.102	2	C17H14NO2-
265.074	7	C16H11NO3-
265.1107	4	C17H15NO2-
266.0816	3	C16H12NO3-
266.1188	3	C17H16NO2-
267.0898	18	C16H13NO3-
268.0608	3	C15H10NO4-
268.0978	55	C16H14NO3-
269.069	4	C15H11NO4-
269.1054	2	C16H15NO3-
270.0771	7	C15H12NO4-
270.1133	24	C16H16NO3-
271.0849	44	C15H13NO4-
271.1815	5	C17H23N2O-
272.1292	2	C16H18NO3-
276.0673	2	C17H10NO3-
278.0462	2	C16H8NO4-
278.0816	1	C17H12NO3-
278.1184	21	C18H16NO2-
279.0891	3	C17H13NO3-
280.0977	23	C17H14NO3-
281.1056	7	C17H15NO3-
282.0778	3	C16H12NO4-
282.1134	49	C17H16NO3-
283.0848	7	C16H13NO4-
284.0926	14	C16H14NO4-
284.1282	3	C17H18NO3-
284.1532	1	C17H20N2O2-
285.1006	8	C16H15NO4-
286.1084	999	C16H16NO4-
289.0744	2	C18H11NO3-
290.082	3	C18H12NO3-
291.09	13	C18H13NO3-
292.0608	3	C17H10NO4-
292.0976	1	C18H14NO3-
293.0694	6	C17H11NO4-
294.1135	12	C18H16NO3-
296.1291	7	C18H18NO3-
298.1082	62	C17H16NO4-
299.116	15	C17H17NO4-
299.1759	3	C18H23N2O2-
300.1239	8	C17H18NO4-
304.0976	4	C19H14NO3-
306.0769	11	C18H12NO4-
306.1135	28	C19H16NO3-
307.0849	37	C18H13NO4-
307.1214	2	C19H17NO3-
308.0927	25	C18H14NO4-
309.0642	1	C17H11NO5-
309.1007	7	C18H15NO4-
310.0722	1	C17H12NO5-
310.1084	3	C18H16NO4-
310.1315	1	C18H18N2O3-
311.0799	4	C17H13NO5-
312.1475	8	C18H20N2O3-
313.1193	2	C17H17N2O4-
315.1716	2	C18H23N2O3-
317.0693	2	C19H11NO4-
320.0564	5	C18H10NO5-
320.0925	5	C19H14NO4-
321.1016	3	C19H15NO4-
321.1241	2	C19H17N2O3-
322.1083	48	C19H16NO4-
323.1759	2	C20H23N2O2-
324.0876	4	C18H14NO5-
324.1244	6	C19H18NO4-
325.156	3	C19H21N2O3-
326.1034	12	C18H16NO5-
327.1713	7	C19H23N2O3-
328.1426	7	C18H20N2O4-
332.0936	3	C20H14NO4-
333.0647	2	C19H11NO5-
334.072	13	C19H12NO5-
335.0798	26	C19H13NO5-
335.1396	2	C20H19N2O3-
336.088	4	C19H14NO5-
336.1482	5	C20H20N2O3-
337.1191	2	C19H17N2O4-
338.1035	2	C19H16NO5-
339.171	10	C20H23N2O3-
340.1183	3	C19H18NO5-
341.1869	2	C20H25N2O3-
343.1663	13	C19H23N2O4-
348.0877	8	C20H14NO5-
350.1033	28	C20H16NO5-
351.1351	2	C20H19N2O4-
351.1708	5	C21H23N2O3-
352.0835	2	C19H14NO6-
353.1502	2	C20H21N2O4-
355.1301	1	C19H19N2O5-
365.113	1	C20H17N2O5-
366.0986	3	C20H16NO6-
367.166	16	C21H23N2O4-
368.1144	2	C20H18NO6-
371.161	158	C20H23N2O5-
376.0817	2	C21H14NO6-
379.0701	2	C20H13NO7-
394.0932	8	C21H16NO7-
395.1611	7	C22H23N2O5-
