Mass spectrum: Hexaconazole; LC-ESI-QFT; MS2; CE: 90%; R=17500; [M+H]+
Name: Hexaconazole
Name: 2-(2,4-dichlorophenyl)-1-(1,2,4-triazol-1-yl)hexan-2-ol
Formula: C14H17Cl2N3O
Exact mass: 313.0749
SMILES: CCCCC(CN1C=NC=N1)(C2=C(C=C(C=C2)Cl)Cl)O
InChI: InChI=1S/C14H17Cl2N3O/c1-2-3-6-14(20,8-19-10-17-9-18-19)12-5-4-11(15)7-13(12)16/h4-5,7,9-10,20H,2-3,6,8H2,1H3
Instrument: Exploris 240 Orbitrap Thermo Scientific
Instrument type: LC-ESI-QFT
Ms type: MS2
Ion mode: POSITIVE
Ionization: ESI
Fragmentation mode: HCD
Collision energy: 90 % (nominal)
Resolution: 17500
Column name: XBridge C18 3.5um, 2.1x50mm, Waters
Retention time: 11.635 min
Base peak: 320.1519
Precursor m/z: 314.0821
Precursor type: [M+H]+
m/z	relative intensity	assigned
55.0541	12	C4H7+
57.0698	23	C4H9+
70.0399	999	C2H4N3+
115.0541	16	C9H7+
122.9994	20	C7H4Cl+
125.0153	44	C7H6Cl+
136.0073	16	C8H5Cl+
139.0057	19	C6H4ClN2+
146.9758	3	C6H5Cl2+
149.0154	9	C9H6Cl+
150.0232	16	C9H7Cl+
158.9762	151	C7H5Cl2+
