Mass spectrum: Sarafloxacin; LC-ESI-QFT; MS2; CE: 30; R=35000; [M+H]+
Name: Sarafloxacin
Name: 6-fluoro-1-(4-fluorophenyl)-4-oxo-7-piperazin-1-ylquinoline-3-carboxylic acid
Formula: C20H17F2N3O3
Exact mass: 385.12380
SMILES: C1CN(CCN1)C2=C(C=C3C(=C2)N(C=C(C3=O)C(=O)O)C4=CC=C(C=C4)F)F
InChI: InChI=1S/C20H17F2N3O3/c21-12-1-3-13(4-2-12)25-11-15(20(27)28)19(26)14-9-16(22)18(10-17(14)25)24-7-5-23-6-8-24/h1-4,9-11,23H,5-8H2,(H,27,28)
Instrument: Q Exactive Plus Orbitrap Thermo Scientific
Instrument type: LC-ESI-QFT
Ms type: MS2
Ion mode: POSITIVE
Ionization: ESI
Fragmentation mode: HCD
Collision energy: 30 (nominal)
Resolution: 35000
Column name: XBridge C18 3.5um, 2.1x50mm, Waters
Retention time: 4.7 min
Base peak: 386.1304
Precursor m/z: 386.1311
Precursor type: [M+H]+
m/z	relative intensity	assigned
58.0651	3	C3H8N+
70.0651	13	C4H8N+
258.0722	2	C15H10F2NO+
267.0931	2	C16H12FN2O+
272.0752	3	C15H10F2N2O+
273.0832	7	C15H11F2N2O+
279.0932	2	C17H12FN2O+
280.088	1	C16H11FN3O+
281.0882	4	C17H11F2N2+
285.0833	38	C16H11F2N2O+
293.0957	6	C17H12FN3O+
294.1035	7	C17H13FN3O+
297.082	2	C20H10FN2+
299.0991	416	C20H12FN2+
313.1021	1	C17H13F2N3O+
322.1352	141	C19H17FN3O+
325.0781	1	C18H11F2N2O2+
325.1152	5	C19H15F2N2O+
340.1257	26	C19H16F2N3O+
342.1413	999	C19H18F2N3O+
343.0891	4	C18H13F2N2O3+
366.1257	2	C20H17FN3O3+
368.1206	418	C20H16F2N3O2+
386.131	876	C20H18F2N3O3+
