Mass spectrum: Albendazole; LC-ESI-QFT; MS2; CE: 120; R=35000; [M-H]-
Name: Albendazole
Name: Methyl N-(6-propylsulfanyl-1H-benzimidazol-2-yl)carbamate
Formula: C12H15N3O2S
Exact mass: 265.08850
SMILES: CCCSC1=CC2=C(C=C1)N=C(N2)NC(=O)OC
InChI: InChI=1S/C12H15N3O2S/c1-3-6-18-8-4-5-9-10(7-8)14-11(13-9)15-12(16)17-2/h4-5,7H,3,6H2,1-2H3,(H2,13,14,15,16)
Instrument: Q Exactive Plus Orbitrap Thermo Scientific
Instrument type: LC-ESI-QFT
Ms type: MS2
Ion mode: NEGATIVE
Ionization: ESI
Fragmentation mode: HCD
Collision energy: 120 (nominal)
Resolution: 35000
Column name: XBridge C18 3.5um, 2.1x50mm, Waters
Retention time: 7.8 min
Base peak: 232.0549
Precursor m/z: 264.0812
Precursor type: [M-H]-
m/z	relative intensity	assigned
50.0036	5	C3N-
56.9805	12	C2HS-
57.9758	999	CNS-
63.9625	1	O2S-
64.0067	5	C3N2-
65.0146	129	C3HN2-
65.9987	8	C3NO-
71.9678	5	C2OS-
74.0038	30	C5N-
76.0194	7	C5H2N-
77.0147	1	C4HN2-
79.9728	6	C4S-
80.9806	1	C4HS-
81.9758	148	C3NS-
83.9789	1	C2N2S-
83.9913	1	C3H2NS-
89.0146	17	C5HN2-
90.01	4	C4N3-
90.0224	23	C5H2N2-
91.0302	10	C5H3N2-
94.9837	12	C4HNS-
101.0146	33	C6HN2-
102.0225	7	C6H2N2-
105.9758	16	C5NS-
106.0174	4	C5H2N2O-
106.9835	7	C5HNS-
107.9789	1	C4N2S-
107.9916	4	C5H2NS-
108.9868	54	C4HN2S-
116.0255	12	C6H2N3-
117.0096	1	C6HN2O-
120.9994	1	C6H3NS-
126.01	5	C7N3-
127.0179	3	C7HN3-
128.0258	4	C7H2N3-
129.0335	20	C7H3N3-
132.9868	66	C6HN2S-
133.9946	28	C6H2N2S-
135.0025	56	C6H3N2S-
156.0207	20	C8H2N3O-
158.0362	2	C8H4N3O-
159.9978	581	C7H2N3S-
161.0056	88	C7H3N3S-
162.0133	1	C7H4N3S-
189.0005	81	C8H3N3OS-
