Mass spectrum: Kresoxim-methyl acid; LC-ESI-QFT; MS2; CE: 120; R=35000; [M+H]+
Name: Kresoxim-methyl acid
Name: (2E)-2-methoxyimino-2-[2-[(2-methylphenoxy)methyl]phenyl]acetic acid
Formula: C17H17NO4
Exact mass: 299.11576
SMILES: O=C(O)\C(=N\OC)c2ccccc2COc1ccccc1C
InChI: InChI=1S/C17H17NO4/c1-12-7-3-6-10-15(12)22-11-13-8-4-5-9-14(13)16(17(19)20)18-21-2/h3-10H,11H2,1-2H3,(H,19,20)/b18-16+
Instrument: Q Exactive Plus Orbitrap Thermo Scientific
Instrument type: LC-ESI-QFT
Ms type: MS2
Ion mode: POSITIVE
Ionization: ESI
Fragmentation mode: HCD
Collision energy: 120 (nominal)
Resolution: 35000
Column name: XBridge C18 3.5um, 2.1x50mm, Waters
Retention time: 10.9 min
Base peak: 300.1227
Precursor m/z: 300.123
Precursor type: [M+H]+
m/z	relative intensity	assigned
50.0151	10	C4H2+
51.023	18	C4H3+
53.0022	8	C3HO+
53.0386	24	C4H5+
55.0178	3	C3H3O+
61.0072	4	C5H+
62.0151	23	C5H2+
63.0229	349	C5H3+
64.0182	23	C4H2N+
64.0307	1	C5H4+
65.0386	171	C5H5+
66.0339	3	C4H4N+
66.0464	6	C5H6+
74.0151	1	C6H2+
75.0227	6	C6H3+
76.0307	1	C6H4+
77.0385	42	C6H5+
78.0464	9	C6H6+
79.0541	6	C6H7+
81.0334	7	C5H5O+
87.0228	1	C7H3+
88.0182	11	C6H2N+
88.0308	6	C7H4+
89.0386	999	C7H5+
90.0339	74	C6H4N+
90.0464	45	C7H6+
91.0542	91	C7H7+
94.0413	2	C6H6O+
95.0492	83	C6H7O+
102.0339	1	C7H4N+
102.0463	4	C8H6+
103.0542	4	C8H7+
104.0495	19	C7H6N+
105.0448	46	C6H5N2+
107.0491	7	C7H7O+
113.0385	5	C9H5+
114.0339	13	C8H4N+
115.0416	18	C8H5N+
115.0542	35	C9H7+
116.0495	148	C8H6N+
117.0573	23	C8H7N+
118.0414	1	C8H6O+
119.049	1	C8H7O+
121.0647	3	C8H9O+
125.0385	4	C10H5+
126.0463	6	C10H6+
127.0541	8	C10H7+
128.0494	3	C9H6N+
128.062	22	C10H8+
129.0447	3	C8H5N2+
129.07	1	C10H9+
130.04	3	C7H4N3+
132.0445	7	C8H6NO+
134.0601	6	C8H8NO+
138.0466	1	C11H6+
139.0542	32	C11H7+
140.0495	26	C10H6N+
140.0618	6	C11H8+
141.0697	7	C11H9+
145.0648	9	C10H9O+
146.0598	1	C9H8NO+
150.0464	25	C12H6+
151.0542	37	C12H7+
152.0621	234	C12H8+
153.0573	9	C11H7N+
153.0699	38	C12H9+
154.0651	10	C11H8N+
155.0603	18	C10H7N2+
163.0542	31	C13H7+
164.0495	3	C12H6N+
164.062	21	C13H8+
165.0699	253	C13H9+
166.0652	21	C12H8N+
166.0773	5	C13H10+
167.073	22	C12H9N+
167.0852	1	C13H11+
168.0572	9	C12H8O+
168.0805	1	C12H10N+
169.0648	121	C12H9O+
170.06	5	C11H8NO+
174.0459	1	C14H6+
175.054	3	C14H7+
176.0621	81	C14H8+
177.0574	55	C13H7N+
177.0697	36	C14H9+
178.0655	56	C13H8N+
178.0777	157	C14H10+
179.0605	44	C12H7N2+
179.0726	16	C13H9N+
179.0853	9	C14H11+
180.0808	102	C13H10N+
181.0648	20	C13H9O+
183.0806	1	C13H11O+
188.0495	8	C14H6N+
188.062	1	C15H8+
189.0571	3	C14H7N+
189.0699	24	C15H9+
190.0651	47	C14H8N+
191.0729	23	C14H9N+
192.0566	1	C14H8O+
192.0808	27	C14H10N+
193.065	4	C14H9O+
193.0887	16	C14H11N+
194.0603	3	C13H8NO+
194.0724	4	C14H10O+
194.0964	9	C14H12N+
195.0806	1	C14H11O+
196.0516	1	C13H8O2+
196.0753	2	C13H10NO+
201.0574	7	C15H7N+
202.0653	8	C15H8N+
203.06	1	C14H7N2+
203.0728	21	C15H9N+
204.0556	1	C13H6N3+
204.0808	10	C15H10N+
206.0602	49	C14H8NO+
207.0676	1	C14H9NO+
208.0757	4	C14H10NO+
209.0836	1	C14H11NO+
219.0679	1	C15H9NO+
220.0757	10	C15H10NO+
