Mass spectrum: MCLW; LC-ESI-QFT; MS2; CE: 180%; R=17500; [M+H]+
Name: MCLW
Name: Microcystin LW
Name: (5R,8S,11R,12S,15S,18S,19S,22R)-15-(1H-indol-3-ylmethyl)-18-[(1E,3E,5S,6S)-6-methoxy-3,5-dimethyl-7-phenylhepta-1,3-dienyl]-1,5,12,19-tetramethyl-2-methylidene-8-(2-methylpropyl)-3,6,9,13,16,20,25-heptaoxo-1,4,7,10,14,17,21-heptazacyclopentacosane-11,22-dicarboxylic acid
Class: NA
Formula: C54H72N8O12
Exact mass: 1024.5270
SMILES: CO[C@@H](Cc1ccccc1)[C@@H](C)/C=C(C)/C=C/[C@@H]2NC(=O)[C@H](Cc3c[nH]c4ccccc34)NC(=O)[C@@H](C)[C@@H](NC(=O)[C@H](CC(C)C)NC(=O)[C@@H](C)NC(=O)C(=C)N(C)C(=O)CC[C@@H](NC(=O)[C@H]2C)C(O)=O)C(O)=O
InChI: InChI=1S/C54H72N8O12/c1-29(2)24-42-52(69)61-46(54(72)73)33(6)48(65)59-43(27-37-28-55-40-19-15-14-18-38(37)40)51(68)57-39(21-20-30(3)25-31(4)44(74-10)26-36-16-12-11-13-17-36)32(5)47(64)58-41(53(70)71)22-23-45(63)62(9)35(8)50(67)56-34(7)49(66)60-42/h11-21,25,28-29,31-34,39,41-44,46,55H,8,22-24,26-27H2,1-7,9-10H3,(H,56,67)(H,57,68)(H,58,64)(H,59,65)(H,60,66)(H,61,69)(H,70,71)(H,72,73)/b21-20+,30-25+/t31-,32-,33-,34+,39-,41+,42-,43-,44-,46+/m0/s1
Instrument: Q Exactive Plus Orbitrap Thermo Scientific
Instrument type: LC-ESI-QFT
Ms type: MS2
Ion mode: POSITIVE
Ionization: ESI
Fragmentation mode: HCD
Collision energy: 180 % (nominal)
Resolution: 17500
Column name: XBridge C18 3.5um, 2.1x50mm, Waters
Retention time: 11.761 min
Base peak: 164.9846
Precursor m/z: 1025.5342
Precursor type: [M+H]+
m/z	relative intensity	assigned
74.0236	12	C2H4NO2+
77.0385	51	C6H5+
78.0464	6	C6H6+
79.0542	284	C6H7+
80.0494	76	C5H6N+
81.0335	10	C5H5O+
81.0446	7	C4H5N2+
81.0574	4	C5H7N+
81.07	17	C6H9+
82.0289	25	C4H4NO+
82.0651	111	C5H8N+
84.0444	145	C4H6NO+
85.0284	21	C4H5O2+
86.0601	14	C4H8NO+
86.0964	64	C5H12N+
89.0386	8	C7H5+
90.0464	3	C7H6+
91.0543	999	C7H7+
92.0492	5	C6H6N+
92.0621	22	C7H8+
93.0699	109	C7H9+
94.0652	53	C6H8N+
95.0492	474	C6H7O+
95.0603	13	
95.0856	13	
96.0444	9	C5H6NO+
96.0683	10	C5H8N2+
96.0807	11	C6H10N+
97.076	4	C5H9N2+
99.0917	56	C5H11N2+
102.0464	34	C8H6+
103.0542	968	C8H7+
104.0621	8	C8H8+
105.0448	163	C6H5N2+
105.0699	466	C8H9+
106.053	16	C6H6N2+
106.0652	8	C7H8N+
107.0493	4	
107.0855	346	C8H11+
108.0683	12	C6H8N2+
108.0807	12	C7H10N+
109.0648	82	C7H9O+
110.0601	17	C6H8NO+
111.0555	17	C5H7N2O+
113.0235	32	C5H5O3+
115.0542	318	C9H7+
116.0494	15	C8H6N+
116.0623	20	C9H8+
117.0573	170	C8H7N+
117.0699	69	C9H9+
118.065	57	C8H8N+
119.0605	48	C7H7N2+
119.0854	29	C9H11+
120.0568	13	C8H8O+
120.0807	15	C8H10N+
120.0933	12	C9H12+
121.076	95	C7H9N2+
122.0599	8	C7H8NO+
122.0841	4	C7H10N2+
122.0964	3	C8H12N+
123.0916	6	C7H11N2+
127.0866	173	C6H11N2O+
128.062	60	C10H8+
129.0699	42	C10H9+
130.0651	295	C9H8N+
130.077	9	
131.0731	10	C9H9N+
131.0855	37	C10H11+
132.0807	262	C9H10N+
133.1009	5	C10H13+
135.0804	19	C9H11O+
135.1166	10	C10H15+
138.0548	5	C7H8NO2+
140.0492	15	C10H6N+
141.0696	15	C11H9+
142.0653	92	C10H8N+
142.0765	5	C11H10+
143.0731	40	C10H9N+
144.0809	43	C10H10N+
145.0646	9	C10H9O+
145.0759	8	C9H9N2+
145.1007	4	C11H13+
146.0601	9	C9H8NO+
146.0966	7	C10H12N+
149.071	26	C8H9N2O+
152.0623	8	C12H8+
153.0699	8	C12H9+
154.0651	12	C11H8N+
154.0768	4	C12H10+
155.0601	12	C10H7N2+
155.0727	4	C11H9N+
157.076	19	C10H9N2+
158.0839	26	C10H10N2+
158.0968	9	C11H12N+
159.0806	5	C11H11O+
159.0919	61	C10H11N2+
160.0758	23	C10H10NO+
165.07	39	C13H9+
166.0775	9	C13H10+
167.06	6	C11H7N2+
168.068	7	C11H8N2+
168.081	17	C12H10N+
169.0761	89	C11H9N2+
170.06	11	C11H8NO+
178.0777	16	C14H10+
179.0856	21	C14H11+
180.0807	9	C13H10N+
182.0838	24	C12H10N2+
185.0715	20	C11H9N2O+
206.0843	22	H12N7O6+
207.0923	10	CH19O11+
235.0863	11	C15H11N2O+
