Mass spectrum: Theophyline; LC-ESI-QFT; MS2; CE: 90; R=35000; [M+H]+
Name: Theophyline
Name: Theophylline
Name: 1,3-dimethyl-7H-purine-2,6-dione
Formula: C7H8N4O2
Exact mass: 180.06473
SMILES: CN1C2=C(C(=O)N(C1=O)C)NC=N2
InChI: InChI=1S/C7H8N4O2/c1-10-5-4(8-3-9-5)6(12)11(2)7(10)13/h3H,1-2H3,(H,8,9)
Instrument: Q Exactive Plus Orbitrap Thermo Scientific
Instrument type: LC-ESI-QFT
Ms type: MS2
Ion mode: POSITIVE
Ionization: ESI
Fragmentation mode: HCD
Collision energy: 90 (nominal)
Resolution: 35000
Column name: XBridge C18 3.5um, 2.1x50mm, Waters
Retention time: 3.2 min
Base peak: 181.0717
Precursor m/z: 181.072
Precursor type: [M+H]+
m/z	relative intensity	assigned
52.0183	1	C3H2N+
54.0213	6	C2H2N2+
54.0339	6	C3H4N+
55.0291	11	C2H3N2+
56.0496	1	C3H6N+
57.0448	2	C2H5N2+
67.0291	16	C3H3N2+
68.037	18	C3H4N2+
69.0448	999	C3H5N2+
70.0287	4	C3H4NO+
79.0291	3	C4H3N2+
80.0131	6	C4H2NO+
81.0448	21	C4H5N2+
82.0164	1	C3H2N2O+
83.024	79	C3H3N2O+
93.0449	7	C5H5N2+
94.0401	36	C4H4N3+
95.0241	23	C4H3N2O+
95.0478	2	C4H5N3+
96.0557	773	C4H6N3+
97.0398	38	C4H5N2O+
106.04	4	C5H4N3+
108.0556	8	C5H6N3+
109.0272	103	C4H3N3O+
110.0712	4	C5H8N3+
113.0347	3	C4H5N2O2+
120.0557	4	C6H6N3+
121.0509	5	C5H5N4+
122.035	14	C5H4N3O+
122.0588	5	C5H6N4+
124.0507	882	C5H6N3O+
137.0823	2	C6H9N4+
140.0456	11	C5H6N3O2+
142.0613	29	C5H8N3O2+
149.0458	3	C6H5N4O+
181.0721	20	C7H9N4O2+
