Mass spectrum: Fexofenadine; LC-ESI-QFT; MS2; CE: 30; R=35000; [M+H]+
Name: Fexofenadine
Name: 2-[4-[1-hydroxy-4-[4-[hydroxy(diphenyl)methyl]-1-piperidinyl]butyl]phenyl]-2-methylpropanoic acid
Formula: C32H39NO4
Exact mass: 501.28791
SMILES: CC(C)(C1=CC=C(C=C1)C(CCCN2CCC(CC2)C(C3=CC=CC=C3)(C4=CC=CC=C4)O)O)C(=O)O
InChI: InChI=1S/C32H39NO4/c1-31(2,30(35)36)25-17-15-24(16-18-25)29(34)14-9-21-33-22-19-28(20-23-33)32(37,26-10-5-3-6-11-26)27-12-7-4-8-13-27/h3-8,10-13,15-18,28-29,34,37H,9,14,19-23H2,1-2H3,(H,35,36)
Instrument: Q Exactive Orbitrap Thermo Scientific
Instrument type: LC-ESI-QFT
Ms type: MS2
Ion mode: POSITIVE
Ionization: ESI
Fragmentation mode: HCD
Collision energy: 30 (nominal)
Resolution: 35000
Column name: XBridge C18 3.5um, 2.1x50mm, Waters
Retention time: 8.2 min
Base peak: 502.2954
Precursor m/z: 502.2952
Precursor type: [M+H]+
m/z	relative intensity	assigned
87.0441	3	C4H7O2+
91.0542	3	C7H7+
129.0696	4	C10H9+
131.0856	25	C10H11+
143.0859	1	C11H11+
171.1168	117	C13H15+
189.1271	6	C13H17O+
199.1117	1	C14H15O+
217.1224	4	C14H17O2+
233.1174	20	C14H17O3+
246.1484	5	C15H20NO2+
250.1593	13	C18H20N+
252.1749	1	C18H22N+
260.1646	4	C16H22NO2+
262.1591	26	C19H20N+
272.1645	2	C17H22NO2+
276.1595	1	C16H22NO3+
280.1699	4	C19H22NO+
298.1802	1	C19H24NO2+
466.2742	999	C32H36NO2+
484.2847	517	C32H38NO3+
502.2954	299	C32H40NO4+
