Mass spectrum: Coumatetralyl; LC-ESI-QFT; MS2; CE: 120%; R=17500; [M+H]+
Name: Coumatetralyl
Name: 4-hydroxy-3-(1,2,3,4-tetrahydronaphthalen-1-yl)chromen-2-one
Formula: C19H16O3
Exact mass: 292.1099
SMILES: C1CC(C2=CC=CC=C2C1)C3=C(C4=CC=CC=C4OC3=O)O
InChI: InChI=1S/C19H16O3/c20-18-15-9-3-4-11-16(15)22-19(21)17(18)14-10-5-7-12-6-1-2-8-13(12)14/h1-4,6,8-9,11,14,20H,5,7,10H2
Instrument: Exploris 240 Orbitrap Thermo Scientific
Instrument type: LC-ESI-QFT
Ms type: MS2
Ion mode: POSITIVE
Ionization: ESI
Fragmentation mode: HCD
Collision energy: 120 % (nominal)
Resolution: 17500
Column name: XBridge C18 3.5um, 2.1x50mm, Waters
Retention time: 10.203 min
Base peak: 293.1169
Precursor m/z: 293.1172
Precursor type: [M+H]+
m/z	relative intensity	assigned
51.0228	34	C4H3+
53.0021	11	C3HO+
53.0386	63	C4H5+
55.0178	14	C3H3O+
65.0386	418	C5H5+
77.0386	371	C6H5+
79.0543	334	C6H7+
91.0542	999	C7H7+
93.0335	77	C6H5O+
95.0491	260	C6H7O+
103.0543	45	C8H7+
105.0698	18	C8H9+
107.0492	82	C7H7O+
111.0437	17	C6H7O2+
115.0542	36	C9H7+
116.062	15	C9H8+
121.0286	220	C7H5O2+
128.062	28	C10H8+
