Mass spectrum: N4-Acetylsulfadimethoxine; LC-ESI-ITFT; MS2; CE: 60%; R=7500; [M+H]+
Name: N4-Acetylsulfadimethoxine
Name: N-[4-[(4,6-dimethoxy-2-pyrimidinyl)sulfamoyl]phenyl]acetamide
Formula: C14H16N4O5S
Exact mass: 352.0841
SMILES: C(C)(=O)Nc1ccc(cc1)S(=O)(=O)Nc1nc(cc(n1)OC)OC
InChI: InChI=1S/C14H16N4O5S/c1-9(19)15-10-4-6-11(7-5-10)24(20,21)18-14-16-12(22-2)8-13(17-14)23-3/h4-8H,1-3H3,(H,15,19)(H,16,17,18)
Instrument: LTQ Orbitrap XL Thermo Scientific
Instrument type: LC-ESI-ITFT
Ms type: MS2
Ion mode: POSITIVE
Ionization: ESI
Fragmentation mode: HCD
Collision energy: 60 % (nominal)
Resolution: 7500
Column name: XBridge C18 3.5um, 2.1x50mm, Waters
Retention time: 6.3 min
Base peak: 353.0926
Precursor m/z: 353.0914
Precursor type: [M+H]+
m/z	relative intensity	assigned
65.0386	419	C5H5+
81.0445	14	C4H5N2+
84.032	9	C3H4N2O+
86.0238	9	C3H4NO2+
92.0495	65	C6H6N+
93.0336	72	C6H5O+
93.0574	19	C6H7N+
96.0557	9	C4H6N3+
106.0654	18	C7H8N+
108.0445	460	C6H6NO+
109.0391	15	C5H5N2O+
110.0349	32	C4H4N3O+
116.0494	9	C8H6N+
124.0214	12	C6H6NS+
125.0584	129	C5H7N3O+
126.0662	134	C5H8N3O+
127.0503	83	C5H7N2O2+
134.0601	999	C8H8NO+
139.0382	9	C5H5N3O2+
140.0455	75	C5H6N3O2+
141.0531	37	C5H7N3O2+
148.0752	11	C9H10NO+
154.0612	906	C6H8N3O2+
155.069	251	C6H9N3O2+
156.0114	35	C6H6NO2S+
156.0769	529	C6H10N3O2+
157.0483	121	C5H7N3O3+
162.0665	40	C8H8N3O+
164.0708	41	C9H10NO2+
173.0584	151	C9H7N3O+
198.022	25	C8H8NO3S+
215.0685	58	C11H9N3O2+
218.0231	27	C6H8N3O4S+
230.0803	67	C5H16N3O5S+
245.1037	29	C12H13N4O2+
272.091	11	C13H12N4O3+
