Mass spectrum: Diltiazem; LC-ESI-QFT; MS2; CE: 90; R=35000; [M+H]+
Name: Diltiazem
Name: 1,5-Benzothiazepin-4(5H)-one, 3-(acetyloxy)-5-[2-(dimethylamino)ethyl]-2,3-dihydro-2-(4-methoxyphenyl)-, (2S-cis)-
Name: [5-(2-dimethylaminoethyl)-2-(4-methoxyphenyl)-4-oxidanylidene-2,3-dihydro-1,5-benzothiazepin-3-yl] ethanoate
Formula: C22H26N2O4S
Exact mass: 414.16133
SMILES: CC(=O)OC1C(SC2=CC=CC=C2N(C1=O)CCN(C)C)C3=CC=C(C=C3)OC
InChI: InChI=1S/C22H26N2O4S/c1-15(25)28-20-21(16-9-11-17(27-4)12-10-16)29-19-8-6-5-7-18(19)24(22(20)26)14-13-23(2)3/h5-12,20-21H,13-14H2,1-4H3
Instrument: Q Exactive Orbitrap Thermo Scientific
Instrument type: LC-ESI-QFT
Ms type: MS2
Ion mode: POSITIVE
Ionization: ESI
Fragmentation mode: HCD
Collision energy: 90 (nominal)
Resolution: 35000
Column name: XBridge C18 3.5um, 2.1x50mm, Waters
Retention time: 7.3 min
Base peak: 415.1692
Precursor m/z: 415.1686
Precursor type: [M+H]+
m/z	relative intensity	assigned
58.0652	17	C3H8N+
65.0386	45	C5H5+
68.9792	5	C3HS+
70.0652	10	C4H8N+
72.0808	71	C4H10N+
91.0543	16	C7H7+
94.0414	12	C6H6O+
95.0493	7	C6H7O+
106.0653	5	C7H8N+
108.0029	4	C6H4S+
109.0108	999	C6H5S+
111.0265	3	C6H7S+
117.0573	30	C8H7N+
118.0652	12	C8H8N+
121.0649	25	C8H9O+
130.0652	6	C9H8N+
133.065	3	C9H9O+
135.014	10	C7H5NS+
136.0218	7	C7H6NS+
137.0598	23	C8H9O2+
148.0221	4	C8H6NS+
149.0297	8	C8H7NS+
149.0601	1	C9H9O2+
150.0374	763	C8H8NS+
162.0373	5	C9H8NS+
163.0452	4	C9H9NS+
164.0167	1	C8H6NOS+
173.0298	3	C10H7NS+
174.0374	9	C10H8NS+
178.0323	131	C9H8NOS+
191.0403	5	C10H9NOS+
223.0456	4	C14H9NS+
