Mass spectrum: Crotamiton; LC-ESI-QFT; MS2; CE: 150; R=35000; [M+H]+
Name: Crotamiton
Name: N-ethyl-N-(2-methylphenyl)but-2-enamide
Formula: C13H17NO
Exact mass: 203.13101
SMILES: O=C(N(c1ccccc1C)CC)C=CC
InChI: InChI=1S/C13H17NO/c1-4-8-13(15)14(5-2)12-10-7-6-9-11(12)3/h4,6-10H,5H2,1-3H3
Instrument: Q Exactive Plus Orbitrap Thermo Scientific
Instrument type: LC-ESI-QFT
Ms type: MS2
Ion mode: POSITIVE
Ionization: ESI
Fragmentation mode: HCD
Collision energy: 150 (nominal)
Resolution: 35000
Column name: XBridge C18 3.5um, 2.1x50mm, Waters
Retention time: 9.8 min
Base peak: 204.1383
Precursor m/z: 204.1383
Precursor type: [M+H]+
m/z	relative intensity	assigned
50.0151	13	C4H2+
51.023	36	C4H3+
52.0182	7	C3H2N+
53.0022	231	C3HO+
53.0386	57	C4H5+
53.9975	51	C2NO+
54.0101	12	C3H2O+
55.018	5	C3H3O+
62.015	2	C5H2+
63.023	49	C5H3+
64.0307	9	C5H4+
65.0386	660	C5H5+
66.0464	79	C5H6+
67.0417	7	C4H5N+
67.9893	55	C3O2+
68.0495	88	C4H6N+
69.0335	477	C4H5O+
75.0229	3	C6H3+
77.0386	103	C6H5+
78.0087	13	C3N3+
78.0338	7	C5H4N+
78.0464	36	C6H6+
79.0542	193	C6H7+
80.0494	10	C5H6N+
81.0335	6	C5H5O+
89.0386	64	C7H5+
90.0339	14	C6H4N+
90.0465	24	C7H6+
91.0417	22	C6H5N+
91.0543	427	C7H7+
92.0495	24	C6H6N+
92.0621	7	C7H8+
93.0574	479	C6H7N+
94.0415	3	C6H6O+
95.0492	181	C6H7O+
96.0445	3	C5H6NO+
102.0465	2	C8H6+
103.0543	18	C8H7+
104.0496	23	C7H6N+
104.0621	2	C8H8+
105.0448	101	C6H5N2+
106.0652	999	C7H8N+
107.073	35	C7H9N+
108.0808	6	C7H10N+
109.0646	3	C7H9O+
115.0543	61	C9H7+
116.0495	12	C8H6N+
116.0623	1	C9H8+
117.0574	35	C8H7N+
118.0652	43	C8H8N+
119.0366	7	C7H5NO+
119.0729	3	C8H9N+
120.0808	14	C8H10N+
128.0494	9	C9H6N+
128.062	8	C10H8+
130.0652	23	C9H8N+
131.0731	3	C9H9N+
132.0444	3	C8H6NO+
132.081	2	C9H10N+
134.0962	2	C9H12N+
140.0497	2	C10H6N+
142.0653	7	C10H8N+
143.0735	3	C10H9N+
146.0599	8	C9H8NO+
154.0647	2	C11H8N+
156.0806	2	C11H10N+
