Mass spectrum: Azinphos-ethyl; LC-ESI-QFT; MS2; CE: 150; R=35000; [M+H]+
Name: Azinphos-ethyl
Name: Azinphos ethyl
Name: 3-(diethoxyphosphinothioylsulfanylmethyl)-1,2,3-benzotriazin-4-one
Formula: C12H16N3O3PS2
Exact mass: 345.03707
SMILES: CCOP(=S)(OCC)SCN1C(=O)C2=CC=CC=C2N=N1
InChI: InChI=1S/C12H16N3O3PS2/c1-3-17-19(20,18-4-2)21-9-15-12(16)10-7-5-6-8-11(10)13-14-15/h5-8H,3-4,9H2,1-2H3
Instrument: Q Exactive Plus Orbitrap Thermo Scientific
Instrument type: LC-ESI-QFT
Ms type: MS2
Ion mode: POSITIVE
Ionization: ESI
Fragmentation mode: HCD
Collision energy: 150 (nominal)
Resolution: 35000
Column name: XBridge C18 3.5um, 2.1x50mm, Waters
Retention time: 11.4 min
Base peak: 346.0438
Precursor m/z: 346.0443
Precursor type: [M+H]+
m/z	relative intensity	assigned
50.0152	399	C4H2+
51.023	999	C4H3+
52.0183	4	C3H2N+
52.0308	9	C4H4+
53.0023	24	C3HO+
53.0386	57	C4H5+
53.9975	2	C2NO+
55.0179	3	C3H3O+
57.9872	4	C2H2S+
59.9665	2	COS+
62.0151	7	C5H2+
62.9454	12	PS+
63.023	32	C5H3+
64.0309	3	C5H4+
64.9788	774	H2O2P+
65.0387	350	C5H5+
66.0101	10	C4H2O+
66.0465	2	C5H6+
68.9794	140	C3HS+
74.0151	58	C6H2+
75.0229	86	C6H3+
76.0182	39	C5H2N+
76.0308	8	C6H4+
77.0386	127	C6H5+
78.0339	3	C5H4N+
78.0465	5	C6H6+
78.9403	113	OPS+
78.9944	10	CH4O2P+
81.0336	4	C5H5O+
81.9872	24	C4H2S+
82.995	5	C4H3S+
91.0543	2	C7H7+
95.0492	150	C6H7O+
96.0445	2	C5H6NO+
96.9509	56	H2O2PS+
98.9843	25	H4O4P+
102.0339	9	C7H4N+
104.0496	28	C7H6N+
105.0449	103	C6H5N2+
108.0029	46	C6H4S+
109.0108	52	C6H5S+
114.9615	435	H4O3PS+
121.0107	2	C7H5S+
128.9772	10	CH6O3PS+
