Mass spectrum: Aerucyclamide A; LC-ESI-QFT; MS2; CE: 60%; R=17500; [M+H]+
Name: Aerucyclamide A
Name: (1S,4S,7R,8S,18R)-4,18-bis[(2S)-butan-2-yl]-7-methyl-6-oxa-13,20-dithia-3,10,17,22,23,24-hexazatetracyclo[17.2.1.15,8.112,15]tetracosa-5(24),12(23),14,19(22)-tetraene-2,9,16-trione
Class: NA
Formula: C24H34N6O4S2
Exact mass: 534.2083
SMILES: CC[C@H](C)[C@@H]1NC(=O)[C@H]2CSC(=N2)[C@H](NC(=O)c3csc(CNC(=O)[C@H]4N=C1O[C@@H]4C)n3)[C@@H](C)CC
InChI: InChI=1S/C24H34N6O4S2/c1-6-11(3)17-23-30-19(13(5)34-23)22(33)25-8-16-26-14(9-35-16)20(31)29-18(12(4)7-2)24-27-15(10-36-24)21(32)28-17/h9,11-13,15,17-19H,6-8,10H2,1-5H3,(H,25,33)(H,28,32)(H,29,31)/t11-,12-,13+,15+,17-,18+,19-/m0/s1
Instrument: Q Exactive Plus Orbitrap Thermo Scientific
Instrument type: LC-ESI-QFT
Ms type: MS2
Ion mode: POSITIVE
Ionization: ESI
Fragmentation mode: HCD
Collision energy: 60 % (nominal)
Resolution: 17500
Column name: XBridge C18 3.5um, 2.1x50mm, Waters
Retention time: 10.697 min
Base peak: 164.9845
Precursor m/z: 535.2156
Precursor type: [M+H]+
m/z	relative intensity	assigned
56.0496	329	C3H6N+
58.0651	68	C3H8N+
58.995	140	C2H3S+
66.8048	339	
68.0495	32	C4H6N+
69.0334	222	C4H5O+
69.0445	54	C3H5N2+
69.0698	988	C5H9+
72.0682	61	C3H8N2+
79.0542	44	C6H7+
84.0444	686	C4H6NO+
84.0807	182	C5H10N+
86.0058	569	C3H4NS+
86.0963	709	C5H12N+
86.9899	84	C3H3OS+
93.0696	35	C7H9+
94.0649	43	C6H8N+
95.0725	31	C6H9N+
96.0445	95	C5H6NO+
96.0804	72	C6H10N+
97.0393	46	C4H5N2O+
97.0646	113	C6H9O+
98.0058	479	C4H4NS+
98.0965	50	C6H12N+
99.0136	87	C4H5NS+
99.985	74	C3H2NOS+
104.0164	148	C3H6NOS+
108.0808	37	C7H10N+
110.0599	92	C6H8NO+
110.0966	34	C7H12N+
112.0215	354	C5H6NS+
113.0167	83	C4H5N2S+
113.0291	66	C5H7NS+
113.0418	47	C6H9S+
114.0007	82	C4H4NOS+
116.0163	180	C4H6NOS+
121.0884	56	C8H11N+
124.0759	45	C7H10NO+
125.0165	45	C5H5N2S+
125.1071	104	C7H13N2+
126.0009	110	C5H4NOS+
126.037	74	C6H8NS+
128.0525	35	C6H10NS+
129.0113	67	C4H5N2OS+
129.9957	175	C4H4NO2S+
131.0273	691	C4H7N2OS+
138.0908	31	H16N3O3S+
141.0115	999	C5H5N2OS+
141.1021	138	C7H13N2O+
142.0196	44	C5H6N2OS+
143.0272	69	C5H7N2OS+
144.0112	395	C5H6NO2S+
149.1069	33	CH17N4O2S+
152.1067	188	C9H14NO+
154.0684	874	C8H12NS+
155.0272	43	C6H7N2OS+
156.022	163	C5H6N3OS+
157.0064	137	C5H5N2O2S+
158.0382	542	C5H8N3OS+
159.0222	707	C5H7N2O2S+
160.0066	35	C5H6NO3S+
166.0687	41	C9H12NS+
168.0227	50	C6H6N3OS+
169.0068	55	C6H5N2O2S+
172.0792	69	C8H14NOS+
180.0218	68	C5H4N6S+
181.0791	70	C9H13N2S+
184.0177	86	C6H6N3O2S+
184.0538	134	C7H10N3OS+
185.0016	721	C6H5N2O3S+
185.0379	616	C7H9N2O2S+
191.0636	135	C10H11N2S+
192.0471	41	C2H14N3O3S2+
196.0531	78	H14N5O3S2+
197.0387	61	C16H5+
199.0163	54	C13HN3+
199.0905	118	C3H21NO4S2+
200.0743	85	C9H14NO2S+
207.0223	43	C9H7N2O2S+
208.018	74	C16H2N+
209.0751	272	C4H19NO4S2+
219.9997	102	C9H6N3S2+
224.0487	62	C9H10N3O2S+
226.0281	115	C8H8N3O3S+
226.1012	108	C10H16N3OS+
236.0439	56	C11H4N6O+
236.086	71	C5H20N2O4S2+
263.0054	56	C10H7N4OS2+
266.0965	72	C20H12N+
276.0624	168	C13H14N3S2+
304.0575	100	C14H14N3OS2+
