Mass spectrum: Nordiazepam; LC-ESI-QFT; MS2; CE: 75; R=35000; [M-H]-
Name: Nordiazepam
Name: Nordazepam (1-Demethyldiazepam)
Name: 7-chloro-5-phenyl-1,3-dihydro-1,4-benzodiazepin-2-one
Formula: C15H11ClN2O
Exact mass: 270.05599
SMILES: C1C(=O)NC2=C(C=C(C=C2)Cl)C(=N1)C3=CC=CC=C3
InChI: InChI=1S/C15H11ClN2O/c16-11-6-7-13-12(8-11)15(17-9-14(19)18-13)10-4-2-1-3-5-10/h1-8H,9H2,(H,18,19)
Instrument: Q Exactive Plus Orbitrap Thermo Scientific
Instrument type: LC-ESI-QFT
Ms type: MS2
Ion mode: NEGATIVE
Ionization: ESI
Fragmentation mode: HCD
Collision energy: 75 (nominal)
Resolution: 35000
Column name: XBridge C18 3.5um, 2.1x50mm, Waters
Retention time: 9.4 min
Base peak: 269.0483
Precursor m/z: 269.0487
Precursor type: [M-H]-
m/z	relative intensity	assigned
204.0452	3	C14H6NO-
205.0531	123	C14H7NO-
206.0609	7	C14H8NO-
210.0563	1	C13H8NO2-
222.0558	1	C14H8NO2-
224.0715	6	C14H10NO2-
235.0511	1	C14H7N2O2-
240.0221	78	C14H7ClNO-
241.03	999	C14H8ClNO-
242.0377	12	C14H9ClNO-
267.0332	6	C15H8ClN2O-
