Mass spectrum: Citalopram; LC-ESI-ITFT; MS2; CE: 30%; R=7500; [M+H]+
Name: Citalopram
Name: 1-[3-(dimethylamino)propyl]-1-(4-fluorophenyl)-3H-2-benzofuran-5-carbonitrile
Formula: C20H21FN2O
Exact mass: 324.1638
SMILES: Fc1ccc(cc1)C3(OCc2cc(C#N)ccc23)CCCN(C)C
InChI: InChI=1S/C20H21FN2O/c1-23(2)11-3-10-20(17-5-7-18(21)8-6-17)19-9-4-15(13-22)12-16(19)14-24-20/h4-9,12H,3,10-11,14H2,1-2H3
Instrument: LTQ Orbitrap XL Thermo Scientific
Instrument type: LC-ESI-ITFT
Ms type: MS2
Ion mode: POSITIVE
Ionization: ESI
Fragmentation mode: HCD
Collision energy: 30 % (nominal)
Resolution: 7500
Column name: XBridge C18 3.5um, 2.1x50mm, Waters
Retention time: 6.6 min
Base peak: 325.1719
Precursor m/z: 325.1711
Precursor type: [M+H]+
m/z	relative intensity	assigned
58.0651	5	C3H8N+
109.0448	146	C7H6F+
116.0495	19	C8H6N+
123.0242	2	C7H4FO+
156.0808	8	C11H10N+
166.0652	14	C12H8N+
234.0711	14	C16H9FN+
236.0865	2	C16H11FN+
238.0671	3	C15H9FNO+
242.0959	2	C18H12N+
250.103	4	C17H13FN+
262.1026	269	C18H13FN+
280.1132	20	C18H15FNO+
307.1598	21	C20H20FN2+
325.1711	999	C20H22FN2O+
