Mass spectrum: Benfuracarb; LC-ESI-QFT; MS2; CE: 60%; R=17500; [M+H]+
Name: Benfuracarb
Name: ethyl 3-[[(2,2-dimethyl-3H-1-benzofuran-7-yl)oxycarbonyl-methylamino]sulfanyl-propan-2-ylamino]propanoate
Formula: C20H30N2O5S
Exact mass: 410.1875
SMILES: CCOC(=O)CCN(C(C)C)SN(C)C(=O)OC1=CC=CC2=C1OC(C2)(C)C
InChI: InChI=1S/C20H30N2O5S/c1-7-25-17(23)11-12-22(14(2)3)28-21(6)19(24)26-16-10-8-9-15-13-20(4,5)27-18(15)16/h8-10,14H,7,11-13H2,1-6H3
Instrument: Exploris 240 Orbitrap Thermo Scientific
Instrument type: LC-ESI-QFT
Ms type: MS2
Ion mode: POSITIVE
Ionization: ESI
Fragmentation mode: HCD
Collision energy: 60 % (nominal)
Resolution: 17500
Column name: XBridge C18 3.5um, 2.1x50mm, Waters
Retention time: 12.809 min
Base peak: 411.1952
Precursor m/z: 411.1948
Precursor type: [M+H]+
m/z	relative intensity	assigned
55.0178	18	C3H3O+
56.0495	7	C3H6N+
58.0288	31	C2H4NO+
58.0651	17	C3H8N+
70.0652	69	C4H8N+
73.0285	148	C3H5O2+
74.006	203	C2H4NS+
74.0601	16	C3H8NO+
84.9743	80	C3HOS+
90.0372	152	C3H8NS+
97.0104	11	C5H5S+
101.0598	25	C5H9O2+
102.0009	265	C3H4NOS+
105.0699	22	C8H9+
109.0284	37	C6H5O2+
109.0648	20	C7H9O+
111.0804	31	C7H11O+
112.0757	29	C6H10NO+
115.0544	46	C9H7+
116.062	21	C9H8+
116.071	27	C5H10NO2+
120.0114	26	C3H6NO2S+
123.0438	11	C7H7O2+
125.0056	53	C6H5OS+
125.0424	7	C7H9S+
133.0648	41	C9H9O+
137.0602	13	C8H9O2+
143.0485	39	C10H7O+
148.0422	19	C5H10NO2S+
149.0424	42	C9H9S+
153.0012	26	C7H5O2S+
153.0368	117	C8H9OS+
158.1172	32	C8H16NO2+
161.0603	47	C10H9O2+
162.0676	632	C10H10O2+
167.0525	71	C9H11OS+
177.037	106	C10H9OS+
195.0476	999	C10H11O2S+
