Mass spectrum: Metolachlor morpholinone; LC-ESI-ITFT; MS2; CE: 60%; R=7500; [M+H]+
Name: Metolachlor morpholinone
Name: 4-(2-ethyl-6-methylphenyl)-5-methylmorpholin-3-one
Formula: C14H19NO2
Exact mass: 233.1416
SMILES: O=C2N(c1c(cccc1C)CC)C(C)COC2
InChI: InChI=1S/C14H19NO2/c1-4-12-7-5-6-10(2)14(12)15-11(3)8-17-9-13(15)16/h5-7,11H,4,8-9H2,1-3H3
Instrument: LTQ Orbitrap XL Thermo Scientific
Instrument type: LC-ESI-ITFT
Ms type: MS2
Ion mode: POSITIVE
Ionization: ESI
Fragmentation mode: HCD
Collision energy: 60 % (nominal)
Resolution: 7500
Column name: XBridge C18 3.5um, 2.1x50mm, Waters
Retention time: 8.2 min
Base peak: 234.1493
Precursor m/z: 234.1489
Precursor type: [M+H]+
m/z	relative intensity	assigned
70.0651	11	C4H8N+
91.0542	43	C7H7+
93.0699	30	C7H9+
99.0678	61	C5H9NO+
103.054	8	C8H7+
105.07	35	C8H9+
109.0651	7	C7H9O+
117.0696	22	C9H9+
118.0651	60	C8H8N+
119.0729	18	C8H9N+
119.0855	133	C9H11+
120.0808	428	C8H10N+
130.0653	17	C9H8N+
131.0724	10	C9H9N+
131.0858	17	C10H11+
132.0807	36	C9H10N+
133.0521	34	C8H7NO+
133.0885	40	C9H11N+
133.1008	12	C10H13+
134.0964	60	C9H12N+
135.1043	35	C9H13N+
144.0807	12	C10H10N+
145.0887	13	C10H11N+
146.0965	336	C10H12N+
147.0678	171	C9H9NO+
147.1046	30	C10H13N+
148.0756	422	C9H10NO+
148.1121	351	C10H14N+
158.0961	47	C11H12N+
159.1041	15	C11H13N+
160.112	304	C11H14N+
161.0828	15	C10H11NO+
162.0912	45	C10H12NO+
174.1277	17	C12H16N+
175.1353	71	C12H17N+
176.1069	53	C11H14NO+
176.1434	87	C12H18N+
186.1277	10	C13H16N+
188.1431	49	C13H18N+
193.1097	13	C11H15NO2+
206.1175	231	C12H16NO2+
216.1385	8	C14H18NO+
234.1489	999	C14H20NO2+
