Mass spectrum: Dimethenamid OXA; LC-ESI-ITFT; MS2; CE: 45%; R=15000; [M+H]+
Name: Dimethenamid OXA
Name: [(2,4-dimethylthiophen-3-yl)(1-methoxypropan-2-yl)amino](oxo)acetic acid
Formula: C12H17NO4S
Exact mass: 271.0878
SMILES: S(C=C1C)C(C)=C1N(C(=O)C(=O)O)C(COC)C
InChI: InChI=1S/C12H17NO4S/c1-7-6-18-9(3)10(7)13(8(2)5-17-4)11(14)12(15)16/h6,8H,5H2,1-4H3,(H,15,16)
Instrument: LTQ Orbitrap XL Thermo Scientific
Instrument type: LC-ESI-ITFT
Ms type: MS2
Ion mode: POSITIVE
Ionization: ESI
Fragmentation mode: HCD
Collision energy: 45 % (nominal)
Resolution: 15000
Column name: XBridge C18 3.5um, 2.1x50mm, Waters
Retention time: 7.5 min
Base peak: 272.0948
Precursor m/z: 272.0951
Precursor type: [M+H]+
m/z	relative intensity	assigned
73.0648	54	C4H9O+
77.0386	2	C6H5+
79.0542	3	C6H7+
93.0699	1	C7H9+
94.0653	6	C6H8N+
95.073	3	C6H9N+
99.0265	1	C5H7S+
104.0495	4	C7H6N+
105.0574	4	C7H7N+
108.0808	3	C7H10N+
111.0263	119	C6H7S+
112.0341	6	C6H8S+
113.0297	3	C5H7NS+
113.042	24	C6H9S+
114.0373	4	C5H8NS+
120.0808	2	C8H10N+
125.042	11	C7H9S+
126.0373	133	C6H8NS+
127.0212	6	C6H7OS+
127.0451	5	C6H9NS+
127.0576	5	C7H11S+
128.0529	19	C6H10NS+
129.037	12	C6H9OS+
132.081	5	C9H10N+
133.0886	9	C9H11N+
134.0966	5	C9H12N+
135.1042	23	C9H13N+
138.0373	142	C7H8NS+
139.0213	5	C7H7OS+
139.0448	1	C7H9NS+
140.0531	5	C7H10NS+
142.0319	2	C6H8NOS+
149.0422	2	C9H9S+
151.0577	14	C9H11S+
152.0166	7	C7H6NOS+
152.0529	20	C8H10NS+
153.0244	3	C7H7NOS+
153.0606	8	C8H11NS+
153.0739	1	C9H13S+
154.0322	147	C7H8NOS+
155.04	4	C7H9NOS+
156.048	5	C7H10NOS+
160.0754	1	C10H10NO+
161.0834	1	C10H11NO+
163.0451	1	C9H9NS+
166.0686	88	C9H12NS+
167.0763	17	C9H13NS+
168.0842	232	C9H14NS+
178.0687	4	C10H12NS+
194.0635	23	C10H12NOS+
196.0791	75	C10H14NOS+
198.0946	9	C10H16NOS+
200.0383	2	C8H10NO3S+
200.11	3	C10H18NOS+
212.0741	23	C10H14NO2S+
240.0688	999	C11H14NO3S+
