Mass spectrum: 3,4-Methylenedioxyamphetamine (MDA); LC-ESI-QFT; MS2; CE: 150; R=35000; [M+H]+
Name: 3,4-Methylenedioxyamphetamine (MDA)
Name: 1-(3,4-Methylenedioxyphenyl)-2-aminopropane
Name: 1-(1,3-benzodioxol-5-yl)propan-2-amine
Formula: C10H13NO2
Exact mass: 179.09463
SMILES: CC(CC1=CC2=C(C=C1)OCO2)N
InChI: InChI=1S/C10H13NO2/c1-7(11)4-8-2-3-9-10(5-8)13-6-12-9/h2-3,5,7H,4,6,11H2,1H3
Instrument: Q Exactive Plus Orbitrap Thermo Scientific
Instrument type: LC-ESI-QFT
Ms type: MS2
Ion mode: POSITIVE
Ionization: ESI
Fragmentation mode: HCD
Collision energy: 150 (nominal)
Resolution: 35000
Column name: XBridge C18 3.5um, 2.1x50mm, Waters
Retention time: 3.6 min
Base peak: 180.1013
Precursor m/z: 180.1019
Precursor type: [M+H]+
m/z	relative intensity	assigned
50.0151	283	C4H2+
51.0229	575	C4H3+
53.0022	18	C3HO+
53.0385	351	C4H5+
53.9974	1	C2NO+
55.0178	63	C3H3O+
62.0149	2	C5H2+
63.0228	24	C5H3+
64.0307	7	C5H4+
65.0385	370	C5H5+
66.0463	18	C5H6+
67.0542	11	C5H7+
67.9892	2	C3O2+
68.997	1	C3HO2+
75.0228	3	C6H3+
77.0384	999	C6H5+
78.0463	25	C6H6+
79.0541	631	C6H7+
81.0334	40	C5H5O+
89.0384	91	C7H5+
90.0463	13	C7H6+
91.0541	80	C7H7+
93.0333	2	C6H5O+
94.0412	13	C6H6O+
95.049	997	C6H7O+
102.0463	23	C8H6+
103.0541	324	C8H7+
104.0618	10	C8H8+
105.0334	47	C7H5O+
105.0446	678	C6H5N2+
105.0697	52	C8H9+
107.049	3	C7H7O+
111.044	2	C6H7O2+
115.0541	18	C9H7+
118.0411	2	C8H6O+
121.0283	72	C7H5O2+
131.0494	1	C9H7O+
135.0438	33	C8H7O2+
147.0439	68	C9H7O2+
