Mass spectrum: Iopromide; LC-ESI-ITFT; MS2; CE: 75%; R=7500; [M+H]+
Name: Iopromide
Name: 1-N,3-N-bis(2,3-dihydroxypropyl)-2,4,6-triiodo-5-[(2-methoxyacetyl)amino]-3-N-methylbenzene-1,3-dicarboxamide
Formula: C18H24I3N3O8
Exact mass: 790.8698
SMILES: CN(CC(CO)O)C(=O)C1=C(C(=C(C(=C1I)C(=O)NCC(CO)O)I)NC(=O)COC)I
InChI: InChI=1S/C18H24I3N3O8/c1-24(4-9(28)6-26)18(31)12-13(19)11(17(30)22-3-8(27)5-25)14(20)16(15(12)21)23-10(29)7-32-2/h8-9,25-28H,3-7H2,1-2H3,(H,22,30)(H,23,29)
Instrument: LTQ Orbitrap XL Thermo Scientific
Instrument type: LC-ESI-ITFT
Ms type: MS2
Ion mode: POSITIVE
Ionization: ESI
Fragmentation mode: HCD
Collision energy: 75 % (nominal)
Resolution: 7500
Column name: XBridge C18 3.5um, 2.1x50mm, Waters
Retention time: 2.7 min
Base peak: 132.9579
Precursor m/z: 791.877
Precursor type: [M+H]+
m/z	relative intensity	assigned
67.0176	122	C4H3O+
77.0019	173	C5HO+
88.0182	217	C6H2N+
89.026	592	C6H3N+
101.0261	264	C7H3N+
113.9973	191	C7NO+
116.0131	241	C7H2NO+
117.0208	675	C7H3NO+
128.0125	201	C8H2NO+
141.9921	438	C8NO2+
144.0084	223	C8H2NO2+
145.0156	210	C8H3NO2+
152.9192	234	C2H2I+
157.0153	135	C9H3NO2+
172.0023	243	C9H2NO3+
172.0263	131	C9H4N2O2+
173.0109	411	C9H3NO3+
177.9152	285	C3HIN+
188.0339	109	C10H6NO3+
227.9313	379	C7H3IN+
243.9258	402	C7H3INO+
247.9213	172	C6H3INO2+
255.925	458	C8H3INO+
271.9199	626	C8H3INO2+
293.8981	256	C2H3IN2O7+
299.9151	878	C9H3INO3+
317.9261	999	C9H5INO4+
381.823	157	C8H2I2NO+
