Mass spectrum: Propham; LC-ESI-QFT; MS2; CE: 60%; R=17500; [M+H]+
Name: Propham
Name: propan-2-yl N-phenylcarbamate
Formula: C10H13NO2
Exact mass: 179.0946
SMILES: CC(C)OC(=O)NC1=CC=CC=C1
InChI: InChI=1S/C10H13NO2/c1-8(2)13-10(12)11-9-6-4-3-5-7-9/h3-8H,1-2H3,(H,11,12)
Instrument: Exploris 240 Orbitrap Thermo Scientific
Instrument type: LC-ESI-QFT
Ms type: MS2
Ion mode: POSITIVE
Ionization: ESI
Fragmentation mode: HCD
Collision energy: 60 % (nominal)
Resolution: 17500
Column name: XBridge C18 3.5um, 2.1x50mm, Waters
Retention time: 6.825 min
Base peak: 138.0549
Precursor m/z: 180.1019
Precursor type: [M+H]+
m/z	relative intensity	assigned
41.0384	3	C3H5+
43.0542	6	C3H7+
53.0386	24	C4H5+
59.0491	5	C3H7O+
77.0386	64	C6H5+
92.0495	322	C6H6N+
94.0652	94	C6H8N+
95.0492	28	C6H7O+
120.0444	999	C7H6NO+
138.055	238	C7H8NO2+
