Mass spectrum: Levofloxacin; LC-ESI-QFT; MS2; CE: 75; R=35000; [M+H]+
Name: Levofloxacin
Name: (3S)-9-Fluoro-3-methyl-10-(4-methyl-1-piperazinyl)-7-oxo-2,3-dihydro-7H-[1,4]oxazino[2,3,4-ij]quinoline-6-carboxylic acid
Formula: C18H20FN3O4
Exact mass: 361.14378
SMILES: C[C@H]1COc2c3n1cc(c(=O)c3cc(c2N4CCN(CC4)C)F)C(=O)O
InChI: InChI=1S/C18H20FN3O4/c1-10-9-26-17-14-11(16(23)12(18(24)25)8-22(10)14)7-13(19)15(17)21-5-3-20(2)4-6-21/h7-8,10H,3-6,9H2,1-2H3,(H,24,25)/t10-/m0/s1
Instrument: Q Exactive Orbitrap Thermo Scientific
Instrument type: LC-ESI-QFT
Ms type: MS2
Ion mode: POSITIVE
Ionization: ESI
Fragmentation mode: HCD
Collision energy: 75 (nominal)
Resolution: 35000
Column name: XBridge C18 3.5um, 2.1x50mm, Waters
Retention time: 4.3 min
Base peak: 362.1511
Precursor m/z: 362.1511
Precursor type: [M+H]+
m/z	relative intensity	assigned
56.0495	22	C3H6N+
58.0652	517	C3H8N+
67.0416	7	C4H5N+
67.0542	6	C5H7+
69.0698	21	C5H9+
70.0651	296	C4H8N+
71.0729	3	C4H9N+
72.0807	175	C4H10N+
82.0651	55	C5H8N+
83.0604	5	C4H7N2+
83.0729	3	C5H9N+
84.0807	31	C5H10N+
85.0885	5	C5H11N+
97.076	7	C5H9N2+
102.0336	13	C7H4N+
104.0495	33	C7H6N+
115.0542	12	C9H7+
116.0494	19	C8H6N+
120.0442	6	C7H6NO+
122.04	311	C7H5FN+
123.0352	6	C6H4FN2+
123.0477	16	C7H6FN+
128.0495	6	C9H6N+
129.0448	18	C8H5N2+
130.0285	19	C8H4NO+
130.0652	21	C9H8N+
132.0443	48	C8H6NO+
133.0448	7	C9H6F+
134.0599	13	C8H8NO+
136.0556	22	C8H7FN+
137.0506	12	C7H6FN2+
138.0347	23	C7H5FNO+
142.0653	3	C10H8N+
143.0604	23	C9H7N2+
143.0729	4	C10H9N+
144.0444	6	C9H6NO+
144.0807	13	C10H10N+
145.0395	19	C8H5N2O+
145.0759	7	C9H9N2+
146.06	43	C9H8NO+
148.0391	34	C8H6NO2+
148.0557	58	C9H7FN+
149.0508	30	C8H6FN2+
150.0349	338	C8H5FNO+
151.0427	130	C8H6FNO+
152.0379	3	C7H5FN2O+
152.0505	36	C8H7FNO+
154.0652	4	C11H8N+
155.0601	18	C10H7N2+
156.0682	26	C10H8N2+
157.0395	48	C9H5N2O+
157.076	23	C10H9N2+
158.0235	139	C9H4NO2+
158.0599	18	C10H8NO+
159.0551	12	C9H7N2O+
160.0392	34	C9H6NO2+
160.0555	93	C10H7FN+
161.0506	14	C9H6FN2+
162.0348	21	C9H5FNO+
162.0584	16	C9H7FN2+
162.0712	18	C10H9FN+
163.0298	19	C8H4FN2O+
163.0426	20	C9H6FNO+
163.0664	17	C9H8FN2+
164.0505	72	C9H7FNO+
165.0218	19	C8H4FNO2+
165.0457	140	C8H6FN2O+
166.03	29	C8H5FNO2+
168.0456	6	C8H7FNO2+
168.0806	3	C12H10N+
170.06	17	C11H8NO+
171.0551	211	C10H7N2O+
172.0629	23	C10H8N2O+
172.0756	5	C11H10NO+
173.0708	32	C10H9N2O+
174.071	14	C11H9FN+
175.0301	13	C9H4FN2O+
175.0427	5	C10H6FNO+
175.0501	6	C9H7N2O2+
175.0663	24	C10H8FN2+
176.0343	13	C9H6NO3+
176.0505	46	C10H7FNO+
176.0743	17	C10H9FN2+
177.0462	23	C9H6FN2O+
177.0582	32	C10H8FNO+
178.0297	363	C9H5FNO2+
178.0535	29	C9H7FN2O+
179.0375	566	C9H6FNO2+
179.0612	79	C9H8FN2O+
180.0453	170	C9H7FNO2+
184.0629	21	C11H8N2O+
185.0345	20	C10H5N2O2+
185.047	5	C11H7NO2+
185.0708	26	C11H9N2O+
186.0908	7	C12H12NO+
187.0668	14	C11H8FN2+
188.0504	208	C11H7FNO+
189.0458	33	C10H6FN2O+
190.03	5	C10H5FNO2+
190.0536	41	C10H7FN2O+
190.0661	28	C11H9FNO+
191.0376	55	C10H6FNO2+
191.0613	52	C10H8FN2O+
191.074	6	C11H10FNO+
192.0453	228	C10H7FNO2+
193.0169	24	C9H4FNO3+
193.0405	377	C9H6FN2O2+
194.0245	242	C9H5FNO3+
194.0483	301	C9H7FN2O2+
194.0608	158	C10H9FNO2+
195.0561	79	C9H8FN2O2+
196.0405	13	C9H7FNO3+
196.0758	5	C13H10NO+
197.0708	18	C12H9N2O+
198.0785	17	C12H10N2O+
199.0499	194	C11H7N2O2+
200.0578	59	C11H8N2O2+
201.0577	20	C15H7N+
201.0655	71	C11H9N2O2+
202.0661	44	C12H9FNO+
203.0245	25	C10H4FN2O2+
203.0374	53	C11H6FNO2+
203.0611	186	C11H8FN2O+
204.0332	26	C10H5FN2O2+
204.0454	193	C11H7FNO2+
204.0691	21	C11H9FN2O+
204.0819	13	C12H11FNO+
205.0406	950	C10H6FN2O2+
205.077	276	C11H10FN2O+
206.0486	72	C10H7FN2O2+
206.0609	31	C11H9FNO2+
207.0562	95	C10H8FN2O2+
211.05	12	C12H7N2O2+
213.0659	16	C12H9N2O2+
214.0868	3	C13H12NO2+
215.0614	30	C12H8FN2O+
216.0456	13	C12H7FNO2+
216.0694	16	C12H9FN2O+
217.0407	81	C11H6FN2O2+
217.077	21	C12H10FN2O+
218.0485	75	C11H7FN2O2+
218.0611	52	C12H9FNO2+
218.0849	6	C12H11FN2O+
219.0563	784	C11H8FN2O2+
219.0683	46	C15H9NO+
220.064	81	C11H9FN2O2+
220.0765	19	C12H11FNO2+
221.0719	999	C11H10FN2O2+
223.0864	4	C14H11N2O+
225.066	5	C13H9N2O2+
226.0737	13	C13H10N2O2+
227.0812	4	C13H11N2O2+
228.0683	4	C16H8N2+
229.0768	12	C13H10FN2O+
231.0191	6	C11H4FN2O3+
231.0562	132	C12H8FN2O2+
231.0929	13	C13H12FN2O+
232.0638	31	C12H9FN2O2+
232.0768	23	C13H11FNO2+
233.0718	58	C12H10FN2O2+
233.0845	31	C16H11NO+
233.1087	4	C13H14FN2O+
234.0798	43	C12H11FN2O2+
234.0909	8	C16H12NO+
235.0871	6	C12H12FN2O2+
240.0766	11	C13H10N3O2+
241.0969	39	C14H13N2O2+
243.093	6	C14H12FN2O+
244.0768	13	C14H11FNO2+
245.0718	117	C13H10FN2O2+
246.0795	15	C13H11FN2O2+
247.0875	101	C13H12FN2O2+
249.0301	5	C11H6FN2O4+
253.0968	8	C15H13N2O2+
253.1205	38	C15H15N3O+
254.0924	6	C14H12N3O2+
255.0997	6	C14H13N3O2+
259.0873	6	C14H12FN2O2+
261.1031	605	C14H14FN2O2+
268.1077	7	C15H14N3O2+
273.1038	11	C15H14FN2O2+
286.0622	7	C14H9FN3O3+
286.0832	5	C14H12N3O4+
286.0984	26	C15H13FN3O2+
286.1193	3	C15H16N3O3+
301.084	11	C18H11N3O2+
301.1219	37	C16H16FN3O2+
