Mass spectrum: Nitrothal-Isopropyl; LC-ESI-QFT; MS2; CE: 45%; R=17500; [M+H]+
Name: Nitrothal-Isopropyl
Name: dipropan-2-yl 5-nitrobenzene-1,3-dicarboxylate
Formula: C14H17NO6
Exact mass: 295.1056
SMILES: CC(C)OC(=O)C1=CC(=CC(=C1)[N+](=O)[O-])C(=O)OC(C)C
InChI: InChI=1S/C14H17NO6/c1-8(2)20-13(16)10-5-11(14(17)21-9(3)4)7-12(6-10)15(18)19/h5-9H,1-4H3
Instrument: Exploris 240 Orbitrap Thermo Scientific
Instrument type: LC-ESI-QFT
Ms type: MS2
Ion mode: POSITIVE
Ionization: ESI
Fragmentation mode: HCD
Collision energy: 45 % (nominal)
Resolution: 17500
Column name: XBridge C18 3.5um, 2.1x50mm, Waters
Retention time: 12.699 min
Base peak: 334.1344
Precursor m/z: 296.1129
Precursor type: [M+H]+
m/z	relative intensity	assigned
145.1012	999	C11H13+
164.0712	297	C9H10NO2+
182.0203	91	C8H6O5+
212.0192	585	C8H6NO6+
