Mass spectrum: Amoxicillin; LC-ESI-QFT; MS2; CE: 75; R=35000; [M+H]+
Name: Amoxicillin
Name: Amoxicillin anhydrous
Name: (2S,5R,6R)-6-[[(2R)-2-amino-2-(4-hydroxyphenyl)-1-oxoethyl]amino]-3,3-dimethyl-7-oxo-4-thia-1-azabicyclo[3.2.0]heptane-2-carboxylic acid
Formula: C16H19N3O5S
Exact mass: 365.10454
SMILES: CC1(C)S[C@@H]2[C@H](NC(=O)[C@H](N)C3=CC=C(O)C=C3)C(=O)N2[C@H]1C(O)=O
InChI: InChI=1S/C16H19N3O5S/c1-16(2)11(15(23)24)19-13(22)10(14(19)25-16)18-12(21)9(17)7-3-5-8(20)6-4-7/h3-6,9-11,14,20H,17H2,1-2H3,(H,18,21)(H,23,24)/t9-,10-,11+,14-/m1/s1
Instrument: Q Exactive Orbitrap Thermo Scientific
Instrument type: LC-ESI-QFT
Ms type: MS2
Ion mode: POSITIVE
Ionization: ESI
Fragmentation mode: HCD
Collision energy: 75 (nominal)
Resolution: 35000
Column name: XBridge C18 3.5um, 2.1x50mm, Waters
Retention time: 2.3 min
Base peak: 366.1119
Precursor m/z: 366.1118
Precursor type: [M+H]+
m/z	relative intensity	assigned
57.9872	1	C2H2S+
58.995	51	C2H3S+
65.0386	4	C5H5+
67.0542	4	C5H7+
68.0131	54	C3H2NO+
68.0494	27	C4H6N+
69.0448	6	C3H5N2+
70.0287	12	C3H4NO+
70.0651	139	C4H8N+
71.0492	8	C4H7O+
74.0059	8	C2H4NS+
77.0386	1	C6H5+
78.0464	2	C6H6+
79.0542	32	C6H7+
81.0336	2	C5H5O+
81.0574	1	C5H7N+
82.0651	16	C5H8N+
84.0808	5	C5H10N+
85.0397	1	C3H5N2O+
86.0059	411	C3H4NS+
86.9899	2	C3H3OS+
87.0263	41	C4H7S+
89.0386	7	C7H5+
91.0542	20	C7H7+
92.0495	4	C6H6N+
94.0651	31	C6H8N+
95.0491	27	C6H7O+
96.0444	39	C5H6NO+
97.0396	4	C4H5N2O+
98.06	4	C5H8NO+
98.1292	2	C2H16N3O+
99.0441	5	C5H7O2+
102.0006	1	C3H4NOS+
103.0543	1	C8H7+
105.0336	7	C7H5O+
105.0446	1	C6H5N2+
106.0413	9	C7H6O+
106.0651	127	C7H8N+
107.0491	222	C7H7O+
109.0106	5	C6H5S+
109.0761	15	C6H9N2+
110.0598	11	C6H8NO+
111.0916	1	C6H11N2+
112.0755	1	C6H10NO+
113.0345	1	C4H5N2O2+
114.0008	999	C4H4NOS+
114.0371	194	C5H8NS+
116.0494	12	C8H6N+
117.0572	14	C8H7N+
118.065	1	C8H8N+
119.0491	34	C8H7O+
120.0444	6	C7H6NO+
120.0569	10	C8H8O+
121.0647	5	C8H9O+
122.06	53	C7H8NO+
123.0263	1	C7H7S+
123.0439	1	C7H7O2+
126.0372	4	C6H8NS+
128.0529	1	C6H10NS+
128.0707	4	C6H10NO2+
129.9958	11	C4H4NO2S+
131.0492	6	C9H7O+
132.0444	4	C8H6NO+
132.057	4	C9H8O+
133.0284	13	C8H5O2+
133.0522	38	C8H7NO+
134.0364	38	C8H6O2+
134.06	612	C8H8NO+
135.0262	4	C8H7S+
135.0442	5	C8H7O2+
135.0682	1	C8H9NO+
137.0055	152	C7H5OS+
137.0709	52	C7H9N2O+
138.0132	1	C7H6OS+
139.0211	20	C7H7OS+
139.0865	2	C7H11N2O+
141.0483	1	C6H9N2S+
142.0324	7	C6H8NOS+
144.0446	1	C9H6NO+
144.0557	25	C8H6N3+
145.052	1	C9H7NO+
145.065	1	C10H9O+
146.0601	21	C9H8NO+
147.026	1	C9H7S+
147.0679	5	C9H9NO+
148.0764	1	C9H10NO+
150.0128	1	C8H6OS+
151.0212	18	C8H7OS+
153.0369	10	C8H9OS+
160.0426	24	C6H10NO2S+
161.0711	4	C9H9N2O+
162.0549	54	C9H8NO2+
163.0211	40	C9H7OS+
165.0656	17	C8H9N2O2+
166.0317	1	C8H8NOS+
173.0294	1	C10H7NS+
173.0712	2	C10H9N2O+
174.0551	6	C10H8NO2+
174.0915	2	C11H12NO+
175.0626	1	C10H9NO2+
178.0321	41	C9H8NOS+
180.0478	7	C9H10NOS+
185.0713	1	C11H9N2O+
188.0169	4	C10H6NOS+
189.0245	1	C10H7NOS+
190.0322	4	C10H8NOS+
201.0418	2	C11H7NO3+
206.027	4	C10H8NO2S+
