Mass spectrum: Pyraclofos; LC-ESI-QFT; MS2; CE: 45%; R=17500; [M+H]+
Name: Pyraclofos
Name: 1-(4-chlorophenyl)-4-[ethoxy(propylsulfanyl)phosphoryl]oxypyrazole
Formula: C14H18ClN2O3PS
Exact mass: 360.0464
SMILES: CCCSP(=O)(OCC)OC1=CN(N=C1)C2=CC=C(C=C2)Cl
InChI: InChI=1S/C14H18ClN2O3PS/c1-3-9-22-21(18,19-4-2)20-14-10-16-17(11-14)13-7-5-12(15)6-8-13/h5-8,10-11H,3-4,9H2,1-2H3
Instrument: Exploris 240 Orbitrap Thermo Scientific
Instrument type: LC-ESI-QFT
Ms type: MS2
Ion mode: POSITIVE
Ionization: ESI
Fragmentation mode: HCD
Collision energy: 45 % (nominal)
Resolution: 17500
Column name: XBridge C18 3.5um, 2.1x50mm, Waters
Retention time: 11.576 min
Base peak: 361.0538
Precursor m/z: 361.0537
Precursor type: [M+H]+
m/z	relative intensity	assigned
96.9508	275	H2O2PS+
114.9611	152	H4O3PS+
120.9875	31	C4H6ClS+
124.9826	69	C3H6ClOS+
138.0104	205	C7H5ClN+
138.9976	237	C3H8O2PS+
140.0261	421	C7H7ClN+
142.0525	39	C9H6N2+
166.0054	100	C8H5ClNO+
176.0405	29	C9H8N2S+
177.0216	63	C9H6ClN2+
193.0163	15	C9H6ClN2O+
195.0319	705	C9H8ClN2O+
208.9927	16	C12H3NOS+
211.0093	392	C9H8ClN2S+
228.9928	30	C8H7ClN2O2P+
238.9773	66	C9H5ClN2O2P+
256.9878	999	C9H7ClN2O3P+
290.9754	311	C9H9ClN2O3PS+
319.0064	63	C11H13ClN2O3PS+
333.0236	65	C12H15ClN2O3PS+
361.0522	41	C14H19ClN2O3PS+
