Mass spectrum: 4`-Hydroxy Diclofenac; LC-ESI-QFT; MS2; CE: 60; R=35000; [M-H]-
Name: 4`-Hydroxy Diclofenac
Name: 4`-hydroxydiclofenac
Name: 2-[2-(2,6-dichloro-4-hydroxyanilino)phenyl]acetic acid
Formula: C14H11Cl2NO3
Exact mass: 311.01160
SMILES: C1=CC=C(C(=C1)CC(=O)O)NC2=C(C=C(C=C2Cl)O)Cl
InChI: InChI=1S/C14H11Cl2NO3/c15-10-6-9(18)7-11(16)14(10)17-12-4-2-1-3-8(12)5-13(19)20/h1-4,6-7,17-18H,5H2,(H,19,20)
Instrument: Q Exactive Plus Orbitrap Thermo Scientific
Instrument type: LC-ESI-QFT
Ms type: MS2
Ion mode: NEGATIVE
Ionization: ESI
Fragmentation mode: HCD
Collision energy: 60 (nominal)
Resolution: 35000
Column name: XBridge C18 3.5um, 2.1x50mm, Waters
Retention time: 10.1 min
Base peak: 310.0043
Precursor m/z: 310.0043
Precursor type: [M-H]-
m/z	relative intensity	assigned
115.0554	12	C9H7-
124.9799	2	C6H2ClO-
140.0507	34	C10H6N-
152.0507	10	C11H6N-
160.9567	21	C6H3Cl2O-
164.0507	18	C12H6N-
166.0663	999	C12H8N-
167.0505	3	C12H7O-
168.0455	13	C11H6NO-
170.0613	3	C11H8NO-
176.0509	2	C13H6N-
179.0378	22	C12H5NO-
184.0769	35	C12H10NO-
186.0561	3	C11H8NO2-
192.0455	4	C13H6NO-
193.0533	60	C13H7NO-
194.0612	244	C13H8NO-
215.0145	54	C12H6ClNO-
228.0221	22	C13H7ClNO-
229.03	250	C13H8ClNO-
230.0378	101	C13H9ClNO-
266.0146	8	C13H10Cl2NO-
