Mass spectrum: Minocycline; LC-ESI-QFT; MS2; CE: 180; R=35000; [M-H]-
Name: Minocycline
Name: Minocin
Name: (4S,4aS,5aR,12aS)-4,7-Bis(dimethylamino)-3,10,12,12a-tetrahydroxy-1,11-dioxo-1,4,4a,5,5a,6,11,12a-octahydro-2-tetracenecarboxamide
Formula: C23H27N3O7
Exact mass: 457.18490
SMILES: [H][C@@]12CC3=C(C(O)=CC=C3N(C)C)C(=O)C1=C(O)[C@]1(O)C(=O)C(C(N)=O)=C(O)[C@@H](N(C)C)[C@]1([H])C2
InChI: InChI=1S/C23H27N3O7/c1-25(2)12-5-6-13(27)15-10(12)7-9-8-11-17(26(3)4)19(29)16(22(24)32)21(31)23(11,33)20(30)14(9)18(15)28/h5-6,9,11,17,27,29-30,33H,7-8H2,1-4H3,(H2,24,32)/t9-,11-,17-,23-/m0/s1
Instrument: Q Exactive Plus Orbitrap Thermo Scientific
Instrument type: LC-ESI-QFT
Ms type: MS2
Ion mode: NEGATIVE
Ionization: ESI
Fragmentation mode: HCD
Collision energy: 180 (nominal)
Resolution: 35000
Column name: XBridge C18 3.5um, 2.1x50mm, Waters
Retention time: 3.6 min
Base peak: 456.1772
Precursor m/z: 456.1776
Precursor type: [M-H]-
m/z	relative intensity	assigned
50.0036	212	C3N-
55.0188	25	C3H3O-
63.0239	30	C5H3-
64.0193	11	C4H2N-
65.0033	133	C4HO-
65.0397	122	C5H5-
65.9985	999	C3NO-
67.0189	14	C4H3O-
68.0142	28	C3H2NO-
68.9982	97	C3HO2-
76.0193	33	C5H2N-
79.0188	14	C5H3O-
84.009	9	C3H2NO2-
89.0396	13	C7H5-
90.0348	38	C6H4N-
91.0187	14	C6H3O-
93.0344	31	C6H5O-
96.009	12	C4H2NO2-
107.0499	7	C7H7O-
108.0215	9	C6H4O2-
109.0294	11	C6H5O2-
114.0349	104	C8H4N-
116.0507	67	C8H6N-
117.0346	77	C8H5O-
118.0299	48	C7H4NO-
130.0421	15	C9H6O-
131.0375	26	C8H5NO-
140.0505	11	C10H6N-
142.03	9	C9H4NO-
143.0504	9	C10H7O-
144.0454	99	C9H6NO-
145.0296	33	C9H5O2-
155.0376	43	C10H5NO-
156.0456	13	C10H6NO-
158.0377	20	C10H6O2-
164.0502	9	C12H6N-
166.0658	8	C12H8N-
167.0502	13	C12H7O-
168.045	16	C11H6NO-
170.061	13	C11H8NO-
172.0403	40	C10H6NO2-
181.0537	8	C12H7NO-
183.0322	10	C11H5NO2-
184.0404	53	C11H6NO2-
186.0557	7	C11H8NO2-
192.045	13	C13H6NO-
195.0449	8	C13H7O2-
205.0531	14	C14H7NO-
220.0405	11	C14H6NO2-
