Mass spectrum: Chlorthiophos; LC-ESI-QFT; MS2; CE: 15%; R=17500; [M+H]+
Name: Chlorthiophos
Name: (2,5-dichloro-4-methylsulfanylphenoxy)-diethoxy-sulfanylidene-lambda5-phosphane
Formula: C11H15Cl2O3PS2
Exact mass: 359.9577
SMILES: CCOP(=S)(OCC)OC1=CC(=C(C=C1Cl)SC)Cl
InChI: InChI=1S/C11H15Cl2O3PS2/c1-4-14-17(18,15-5-2)16-10-6-9(13)11(19-3)7-8(10)12/h6-7H,4-5H2,1-3H3
Instrument: Exploris 240 Orbitrap Thermo Scientific
Instrument type: LC-ESI-QFT
Ms type: MS2
Ion mode: POSITIVE
Ionization: ESI
Fragmentation mode: HCD
Collision energy: 15 % (nominal)
Resolution: 17500
Column name: XBridge C18 3.5um, 2.1x50mm, Waters
Retention time: 14.135 min
Base peak: 360.9648
Precursor m/z: 360.965
Precursor type: [M+H]+
m/z	relative intensity	assigned
304.9023	440	C7H8Cl2O3PS2+
332.9334	782	C9H12Cl2O3PS2+
360.9647	999	C11H16Cl2O3PS2+
