Mass spectrum: Heptenophos; LC-ESI-QFT; MS2; CE: 30; R=35000; [M+H]+
Name: Heptenophos
Name: (6-chloranyl-7-bicyclo[3.2.0]hepta-3,6-dienyl) dimethyl phosphate
Name: Ragadan
Formula: C9H12ClO4P
Exact mass: 250.01617
SMILES: COP(=O)(OC)OC1=C(Cl)C2C=CCC12
InChI: InChI=1S/C9H12ClO4P/c1-12-15(11,13-2)14-9-7-5-3-4-6(7)8(9)10/h3-4,6-7H,5H2,1-2H3
Instrument: Q Exactive Orbitrap Thermo Scientific
Instrument type: LC-ESI-QFT
Ms type: MS2
Ion mode: POSITIVE
Ionization: ESI
Fragmentation mode: HCD
Collision energy: 30 (nominal)
Resolution: 35000
Column name: XBridge C18 3.5um, 2.1x50mm, Waters
Retention time: 9.1 min
Base peak: 251.0238
Precursor m/z: 251.0234
Precursor type: [M+H]+
m/z	relative intensity	assigned
78.9943	1	CH4O2P+
89.0386	54	C7H5+
90.0463	2	C7H6+
94.9892	1	CH4O3P+
98.9841	1	H4O4P+
98.9996	7	C5H4Cl+
105.07	1	C8H9+
107.0491	1	C7H7O+
112.9999	3	CH6O4P+
121.0647	5	C8H9O+
125.0153	523	C7H6Cl+
127.0154	999	C2H8O4P+
135.0804	6	C9H11O+
139.0309	1	C8H8Cl+
143.0258	2	C7H8ClO+
145.0261	4	C2H10O5P+
183.0209	1	C9H8ClO2+
185.0362	3	C8H10O3P+
197.0365	1	C9H10O3P+
215.0468	27	C9H12O4P+
218.9971	3	C8H9ClO3P+
237.0077	1	C8H11ClO4P+
251.0236	21	C9H13ClO4P+
