Mass spectrum: Mepanipyrim; LC-ESI-QFT; MS2; CE: 30; R=35000; [M+H]+
Name: Mepanipyrim
Name: (4-methyl-6-prop-1-ynyl-pyrimidin-2-yl)-phenyl-amine
Formula: C14H13N3
Exact mass: 223.11095
SMILES: n1c(C#CC)cc(nc1Nc2ccccc2)C
InChI: InChI=1S/C14H13N3/c1-3-7-13-10-11(2)15-14(17-13)16-12-8-5-4-6-9-12/h4-6,8-10H,1-2H3,(H,15,16,17)
Instrument: Q Exactive Orbitrap Thermo Scientific
Instrument type: LC-ESI-QFT
Ms type: MS2
Ion mode: POSITIVE
Ionization: ESI
Fragmentation mode: HCD
Collision energy: 30 (nominal)
Resolution: 35000
Column name: XBridge C18 3.5um, 2.1x50mm, Waters
Retention time: 11.1 min
Base peak: 224.1188
Precursor m/z: 224.1182
Precursor type: [M+H]+
m/z	relative intensity	assigned
106.0653	4	C7H8N+
131.0608	2	C8H7N2+
160.076	2	C10H10NO+
183.0921	3	C12H11N2+
184.0874	1	C11H10N3+
207.0924	1	C14H11N2+
208.0869	1	C13H10N3+
209.0952	3	C13H11N3+
223.1098	1	C14H13N3+
224.1187	999	C14H14N3+
