Mass spectrum: Dronedarone; LC-ESI-ITFT; MS2; CE: 90%; R=30000; [M+H]+
Name: Dronedarone
Name: N-[2-butyl-3-[4-[3-(dibutylamino)propoxy]benzoyl]-1-benzofuran-5-yl]methanesulfonamide
Formula: C31H44N2O5S
Exact mass: 556.2971
SMILES: CS(=O)(=O)Nc1cc2c(c(oc2cc1)CCCC)C(c1ccc(cc1)OCCCN(CCCC)CCCC)=O
InChI: InChI=1S/C31H44N2O5S/c1-5-8-12-29-30(27-23-25(32-39(4,35)36)15-18-28(27)38-29)31(34)24-13-16-26(17-14-24)37-22-11-21-33(19-9-6-2)20-10-7-3/h13-18,23,32H,5-12,19-22H2,1-4H3
Instrument: LTQ Orbitrap XL Thermo Scientific
Instrument type: LC-ESI-ITFT
Ms type: MS2
Ion mode: POSITIVE
Ionization: ESI
Fragmentation mode: HCD
Collision energy: 90 % (nominal)
Resolution: 30000
Column name: XBridge C18 3.5um, 2.1x50mm, Waters
Retention time: 11.5 min
Base peak: 557.3051
Precursor m/z: 557.3044
Precursor type: [M+H]+
m/z	relative intensity	assigned
57.0698	63	C4H9+
58.0651	999	C3H8N+
70.0651	35	C4H8N+
72.0807	33	C4H10N+
84.0807	31	C5H10N+
86.0964	82	C5H12N+
91.0542	7	C7H7+
100.112	454	C6H14N+
103.0542	6	C8H7+
105.0696	9	C8H9+
114.1277	70	C7H16N+
116.0498	7	C8H6N+
117.0569	10	C8H7N+
118.0412	39	C8H6O+
118.065	5	C8H8N+
121.0283	145	C7H5O2+
121.0395	15	C6H5N2O+
128.1432	30	C8H18N+
130.0648	14	C9H8N+
133.0283	15	C8H5O2+
142.1592	24	C9H20N+
144.0442	16	C9H6NO+
144.0808	6	C10H10N+
145.0521	45	C9H7NO+
146.0599	71	C9H8NO+
147.044	30	C9H7O2+
158.0598	10	C10H8NO+
158.0967	5	C11H12N+
159.0676	8	C10H9NO+
161.0596	35	C10H9O2+
172.039	8	C10H6NO2+
172.0758	5	C11H10NO+
173.0469	27	C10H7NO2+
174.055	42	C10H8NO2+
180.0805	7	C13H10N+
186.0546	17	C11H8NO2+
194.0961	11	C14H12N+
196.0763	7	C13H10NO+
205.0646	9	C15H9O+
220.0755	17	C15H10NO+
221.0846	7	C9H17O4S+
222.0911	13	C15H12NO+
236.0704	14	C15H10NO2+
238.0865	7	C15H12NO2+
248.0701	6	C10H16O5S+
249.0778	31	C16H11NO2+
250.0863	17	C16H12NO2+
262.0855	7	C17H12NO2+
264.065	4	C16H10NO3+
265.0727	11	C16H11NO3+
