Mass spectrum: Methiocarb-sulfoxide; LC-ESI-ITFT; MS2; CE: 90%; R=7500; [M+H]+
Name: Methiocarb-sulfoxide
Name: Mesurol sulfoxide
Name: (3,5-dimethyl-4-methylsulfinyl-phenyl) N-methylcarbamate
Formula: C11H15NO3S
Exact mass: 241.0773
SMILES: O=C(Oc1cc(c(c(c1)C)S(=O)C)C)NC
InChI: InChI=1S/C11H15NO3S/c1-7-5-9(15-11(13)12-3)6-8(2)10(7)16(4)14/h5-6H,1-4H3,(H,12,13)
Instrument: LTQ Orbitrap XL Thermo Scientific
Instrument type: LC-ESI-ITFT
Ms type: MS2
Ion mode: POSITIVE
Ionization: ESI
Fragmentation mode: HCD
Collision energy: 90 % (nominal)
Resolution: 7500
Column name: XBridge C18 3.5um, 2.1x50mm, Waters
Retention time: 4.9 min
Base peak: 242.0846
Precursor m/z: 242.0845
Precursor type: [M+H]+
m/z	relative intensity	assigned
53.0384	7	C4H5+
77.0386	15	C6H5+
79.0542	23	C6H7+
81.0335	2	C5H5O+
81.07	2	C6H9+
91.0542	38	C7H7+
93.0699	8	C7H9+
94.0777	10	C7H10+
95.0491	11	C6H7O+
103.0542	17	C8H7+
104.062	7	C8H8+
105.0447	11	C6H5N2+
105.0694	1	C8H9+
107.0491	353	C7H7O+
108.0569	9	C7H8O+
109.0648	219	C7H9O+
121.0648	117	C8H9O+
122.0726	999	C8H10O+
123.0263	1	C7H7S+
123.0442	8	C7H7O2+
125.0419	13	C7H9S+
135.0263	2	C8H7S+
135.0807	2	C9H11O+
136.0884	1	C9H12O+
137.0597	5	C8H9O2+
138.0675	10	C8H10O2+
151.021	27	C8H7OS+
152.029	89	C8H8OS+
153.0368	671	C8H9OS+
168.0603	177	C9H12OS+
170.0396	212	C8H10O2S+
