Mass spectrum: Capecitabine; LC-ESI-QFT; MS2; CE: 60; R=35000; [M-H]-
Name: Capecitabine
Name: (1-(5-Deoxy-beta-D-ribofuranosyl)-5-fluoro-1,2-dihydro-2-oxo-4-pyrimidinyl)-carbamic acid pentyl ester
Name: N-[1-[(2R,3R,4S,5R)-3,4-dihydroxy-5-methyl-2-oxolanyl]-5-fluoro-2-oxo-4-pyrimidinyl]carbamic acid pentyl ester
Formula: C15H22FN3O6
Exact mass: 359.14926
SMILES: FC=1\C(=N/C(=O)N(C=1)[C@@H]2O[C@@H]([C@@H](O)[C@H]2O)C)\NC(=O)OCCCCC
InChI: InChI=1S/C15H22FN3O6/c1-3-4-5-6-24-15(23)18-12-9(16)7-19(14(22)17-12)13-11(21)10(20)8(2)25-13/h7-8,10-11,13,20-21H,3-6H2,1-2H3,(H,17,18,22,23)/t8-,10-,11-,13-/m1/s1
Instrument: Q Exactive Orbitrap Thermo Scientific
Instrument type: LC-ESI-QFT
Ms type: MS2
Ion mode: NEGATIVE
Ionization: ESI
Fragmentation mode: HCD
Collision energy: 60 (nominal)
Resolution: 35000
Column name: XBridge C18 3.5um, 2.1x50mm, Waters
Retention time: 7.8 min
Base peak: 358.1422
Precursor m/z: 358.142
Precursor type: [M-H]-
m/z	relative intensity	assigned
65.0145	25	C3HN2-
65.9985	42	C3NO-
77.0146	31	C4HN2-
80.0017	30	C3N2O-
80.0141	8	C4H2NO-
83.005	56	C3FN2-
84.0255	22	C4H3FN-
85.0207	11	C3H2FN2-
85.0659	29	C5H9O-
87.0815	7	C5H11O-
89.0145	20	C5HN2-
93.0094	19	C4HN2O-
95.0252	7	C4H3N2O-
97.0208	76	C4H2FN2-
99.0364	24	C4H4FN2-
105.0092	10	C5HN2O-
106.0173	104	C5H2N2O-
107.0251	148	C5H3N2O-
109.0045	6	C4HN2O2-
109.0206	6	C5H2FN2-
111	7	C4FN2O-
113.0157	45	C4H2FN2O-
113.9998	8	C4HFNO2-
120.0202	7	C5H2N3O-
122.0123	11	C5H2N2O2-
125.0156	344	C5H2FN2O-
129.0106	57	C4H2FN2O2-
133.0046	6	C6HN2O2-
135.0201	24	C6H3N2O2-
136.0152	8	C5H2N3O2-
141.0106	12	C5H2FN2O2-
148.0153	30	C6H2N3O2-
150.0071	24	C6H2N2O3-
151.0146	7	C6H3N2O3-
153.0106	999	C6H2FN2O2-
154.0058	923	C5HFN3O2-
155.0827	117	C7H11N2O2-
164.0103	8	C6H2N3O3-
168.022	5	C11H4O2-
176.0097	8	C7H2N3O3-
179.0826	28	C9H11N2O2-
199.0884	23	C9H12FN2O2-
221.0932	32	C11H13N2O3-
