Mass spectrum: Reserpine; LC-ESI-ITFT; MS2; CE: 35%; R=30000; [M+H]+
Name: Reserpine
Name: (1S,2R,3R,4aS,13bR,14aS)-2,11-dimethoxy-3-(3,4,5-trimethoxybenzoyl)oxy-1,2,3,4,4a,5,7,8,13,13b,14,14a-dodecahydroisoquinolino[3,2-a]$b-carboline-1-carboxylic acid methyl ester
Formula: C33H40N2O9
Exact mass: 608.2734
SMILES: CO[C@H]1[C@@H](C[C@@H]2CN3CCC4=C([C@H]3C[C@@H]2[C@@H]1C(=O)OC)NC5=C4C=CC(=C5)OC)OC(=O)C6=CC(=C(C(=C6)OC)OC)OC
InChI: InChI=1S/C33H40N2O9/c1-38-19-7-8-20-21-9-10-35-16-18-13-27(44-32(36)17-11-25(39-2)30(41-4)26(12-17)40-3)31(42-5)28(33(37)43-6)22(18)15-24(35)29(21)34-23(20)14-19/h7-8,11-12,14,18,22,24,27-28,31,34H,9-10,13,15-16H2,1-6H3/t18-,22+,24-,27-,28+,31+/m1/s1
Instrument: LTQ Orbitrap XL Thermo Scientific
Instrument type: LC-ESI-ITFT
Ms type: MS2
Ion mode: POSITIVE
Ionization: ESI
Fragmentation mode: CID
Collision energy: 35 % (nominal)
Resolution: 30000
Column name: XBridge C18 3.5um, 2.1x50mm, Waters
Retention time: 8.3 min
Base peak: 609.2812
Precursor m/z: 609.2807
Precursor type: [M+H]+
m/z	relative intensity	assigned
174.0914	19	C11H12NO+
176.1067	1	C11H14NO+
178.0862	1	C10H12NO2+
188.1069	2	C12H14NO+
190.0861	1	C11H12NO2+
192.1018	17	C11H14NO2+
195.0651	119	C10H11O4+
195.9597	1	C2N2O9+
200.1068	3	C13H14NO+
201.1017	1	C12H13N2O+
204.1016	7	C12H14NO2+
207.1019	1	C12H15O3+
212.1066	2	C14H14NO+
214.11	1	C13H14N2O+
215.1176	6	C13H15N2O+
222.1127	2	C12H16NO3+
224.128	20	C12H18NO3+
227.1175	1	C14H15N2O+
229.1332	2	C14H17N2O+
236.128	58	C13H18NO3+
242.1386	5	C12H20NO4+
248.1079	1	C17H14NO+
254.1384	3	C13H20NO4+
262.1224	1	C18H16NO+
274.1218	1	C19H16NO+
276.1379	2	C19H18NO+
288.1381	5	C20H18NO+
290.1171	3	C19H16NO2+
304.1329	2	C20H18NO2+
305.1643	3	C20H21N2O+
316.1328	3	C21H18NO2+
322.1432	7	C20H20NO3+
333.1593	8	C21H21N2O2+
334.1433	5	C21H20NO3+
336.159	19	C21H22NO3+
337.1304	6	C20H19NO4+
337.1899	1	C21H25N2O2+
338.1022	2	C19H16NO5+
348.159	19	C22H22NO3+
353.1253	9	C20H19NO5+
354.1694	5	C21H24NO4+
365.1856	133	C22H25N2O3+
366.1695	13	C22H24NO4+
368.1489	76	C21H22NO5+
368.1848	14	C22H26NO4+
379.2015	2	C23H27N2O3+
380.1852	16	C23H26NO4+
381.1802	2	C22H25N2O4+
386.1954	2	C22H28NO5+
395.1966	9	C23H27N2O4+
397.212	863	C23H29N2O4+
402.1537	3	C21H24NO7+
404.1699	17	C21H26NO7+
413.2066	13	C23H29N2O5+
416.1706	4	C22H26NO7+
422.181	1	C21H28NO8+
434.1805	27	C22H28NO8+
436.1963	174	C22H30NO8+
437.1999	2	C32H25N2+
448.1962	999	C23H30NO8+
449.1995	15	C30H27NO3+
548.2277	4	C31H34NO8+
559.2432	4	C32H35N2O7+
560.2274	13	C32H34NO8+
577.2542	256	C32H37N2O8+
580.2536	8	C32H38NO9+
581.2482	1	C31H37N2O9+
591.2695	25	C33H39N2O8+
592.2535	22	C33H38NO9+
593.2493	3	C32H37N2O9+
594.2554	3	C32H38N2O9+
