Mass spectrum: Monolinuron; LC-ESI-QFT; MS2; CE: 60; R=35000; [M+H]+
Name: Monolinuron
Name: 3-(4-chlorophenyl)-1-methoxy-1-methyl-urea
Formula: C9H11ClN2O2
Exact mass: 214.05091
SMILES: Clc1ccc(NC(=O)N(OC)C)cc1
InChI: InChI=1S/C9H11ClN2O2/c1-12(14-2)9(13)11-8-5-3-7(10)4-6-8/h3-6H,1-2H3,(H,11,13)
Instrument: Q Exactive Orbitrap Thermo Scientific
Instrument type: LC-ESI-QFT
Ms type: MS2
Ion mode: POSITIVE
Ionization: ESI
Fragmentation mode: HCD
Collision energy: 60 (nominal)
Resolution: 35000
Column name: XBridge C18 3.5um, 2.1x50mm, Waters
Retention time: 8.0 min
Base peak: 215.0581
Precursor m/z: 215.0582
Precursor type: [M+H]+
m/z	relative intensity	assigned
58.0288	3	C2H4NO+
60.0444	53	C2H6NO+
62.0601	40	C2H8NO+
63.0227	4	C5H3+
65.0385	2	C5H5+
72.9838	9	C3H2Cl+
81.0334	2	C5H5O+
90.0337	42	C6H4N+
91.0415	19	C6H5N+
92.0494	5	C6H6N+
93.0572	5	C6H7N+
98.9995	409	C5H4Cl+
100.0073	4	C5H5Cl+
105.0444	1	C6H5N2+
106.065	5	C7H8N+
108.0442	2	C6H6NO+
119.0602	113	C7H7N2+
120.0442	1	C7H6NO+
120.068	13	C7H8N2+
126.0104	999	C6H5ClN+
127.0181	459	C9H3O+
131.0603	9	C8H7N2+
133.0394	1	C7H5N2O+
140.0259	5	C7H7ClN+
141.0212	3	C6H6ClN2+
141.0336	4	C7H8ClN+
143.0131	2	C6H6ClNO+
147.0551	73	C8H7N2O+
148.0629	326	C8H8N2O+
154.0052	4	C7H5ClNO+
155.0368	1	C7H8ClN2+
168.0082	3	C7H5ClN2O+
183.0318	61	C8H8ClN2O+
