Mass spectrum: Tepraloxydim; LC-ESI-QFT; MS2; CE: 75; R=35000; [M-H]-
Name: Tepraloxydim
Name: E-Tepraloxydim
Formula: C17H24ClNO4
Exact mass: 341.13939
SMILES: CC/C(=N\OC\C=C\Cl)/C=1C(=O)CC(CC=1O)C2CCOCC2
InChI: InChI=1S/C17H24ClNO4/c1-2-14(19-23-7-3-6-18)17-15(20)10-13(11-16(17)21)12-4-8-22-9-5-12/h3,6,12-13,20H,2,4-5,7-11H2,1H3/b6-3+,19-14+
Instrument: Q Exactive Orbitrap Thermo Scientific
Instrument type: LC-ESI-QFT
Ms type: MS2
Ion mode: NEGATIVE
Ionization: ESI
Fragmentation mode: HCD
Collision energy: 75 (nominal)
Resolution: 35000
Column name: XBridge C18 3.5um, 2.1x50mm, Waters
Retention time: 11.5 min
Base peak: 340.1324
Precursor m/z: 340.1321
Precursor type: [M-H]-
m/z	relative intensity	assigned
57.0346	9	C3H5O-
65.0397	10	C5H5-
65.9985	320	C3NO-
66.0349	50	C4H4N-
67.0189	14	C4H3O-
81.0348	4	C5H5O-
81.0712	2	C6H9-
82.0298	36	C4H4NO-
83.0139	2	C4H3O2-
83.0503	17	C5H7O-
90.0349	3	C6H4N-
92.0506	59	C6H6N-
93.0346	4	C6H5O-
94.0299	13	C5H4NO-
95.0378	2	C5H5NO-
95.0502	3	C6H7O-
96.0456	4	C5H6NO-
105.0219	2	C6H3NO-
106.0298	1	C6H4NO-
107.0377	10	C6H5NO-
107.0503	14	C7H7O-
108.0216	4	C6H4O2-
108.0455	19	C6H6NO-
109.0295	151	C6H5O2-
110.0248	1	C5H4NO2-
110.061	4	C6H8NO-
118.0299	3	C7H4NO-
119.0501	11	C8H7O-
120.0091	109	C6H2NO2-
120.0455	21	C7H6NO-
120.0819	23	C8H10N-
121.0295	5	C7H5O2-
121.0534	3	C7H7NO-
121.0659	12	C8H9O-
122.0612	4	C7H8NO-
123.0817	4	C8H11O-
134.0248	587	C7H4NO2-
135.0327	37	C7H5NO2-
135.0452	9	C8H7O2-
135.0816	3	C9H11O-
136.0404	17	C7H6NO2-
137.0607	13	C8H9O2-
144.0456	3	C9H6NO-
146.0611	3	C9H8NO-
147.0325	3	C8H5NO2-
148.0406	5	C8H6NO2-
148.0769	8	C9H10NO-
149.097	2	C10H13O-
150.0197	4	C7H4NO3-
150.0558	2	C8H8NO2-
150.0923	13	C9H12NO-
153.0922	20	C9H13O2-
160.077	4	C10H10NO-
162.0562	47	C9H8NO2-
163.064	2	C9H9NO2-
164.0718	10	C9H10NO2-
165.0795	27	C9H11NO2-
167.0223	9	C7H5NO4-
176.1079	5	C11H14NO-
178.0873	85	C10H12NO2-
179.1074	2	C11H15O2-
195.1028	25	C11H15O3-
196.0985	2	C10H14NO3-
220.0979	999	C12H14NO3-
221.118	4	C13H17O3-
233.1056	15	C13H15NO3-
236.0934	3	C12H14NO4-
248.1294	24	C14H18NO3-
