Mass spectrum: Monuron; LC-ESI-QFT; MS2; CE: 75%; R=15000; [M-H]-
Name: Monuron
Name: 3-(4-chlorophenyl)-1,1-dimethylurea
Formula: C9H11ClN2O
Exact mass: 198.0559907
SMILES: CN(C)C(=O)NC1=CC=C(Cl)C=C1
InChI: InChI=1S/C9H11ClN2O/c1-12(2)9(13)11-8-5-3-7(10)4-6-8/h3-6H,1-2H3,(H,11,13)
Instrument: Q Exactive Plus
Instrument type: LC-ESI-QFT
Ms type: MS2
Ion mode: NEGATIVE
Ionization: ESI
Fragmentation mode: HCD
Collision energy: 75 % (nominal)
Resolution: 15000
Column name: XBridge C18 3.5um, 2.1x50mm, Waters
Retention time: 5.950 min
Base peak: 116.9286
Precursor m/z: 197.0487
Precursor type: [M-H]-
Precursor intensity: 7955127.41
m/z	relative intensity	assigned
65.9985	146	C3NO-
74.0036	54	C5N-
88.0193	30	C6H2N-
116.0143	671	C7H2NO-
126.0115	120	C6H5ClN-
151.9908	999	C7H3ClNO-
