Mass spectrum: Cetirizine N-Oxide; LC-ESI-QFT; MS2; CE: 60; R=35000; [M+H]+
Name: Cetirizine N-Oxide
Name: (R)-Cetirizine N-Oxide
Name: 2-[2-[4-[(4-chlorophenyl)-phenylmethyl]-1-oxidopiperazin-1-ium-1-yl]ethoxy]acetic acid
Formula: C21H25ClN2O4
Exact mass: 404.15028
SMILES: C1C[N+](CCN1C(C2=CC=CC=C2)C3=CC=C(C=C3)Cl)(CCOCC(=O)O)[O-]
InChI: InChI=1S/C21H25ClN2O4/c22-19-8-6-18(7-9-19)21(17-4-2-1-3-5-17)23-10-12-24(27,13-11-23)14-15-28-16-20(25)26/h1-9,21H,10-16H2,(H,25,26)
Instrument: Q Exactive Plus Orbitrap Thermo Scientific
Instrument type: LC-ESI-QFT
Ms type: MS2
Ion mode: POSITIVE
Ionization: ESI
Fragmentation mode: HCD
Collision energy: 60 (nominal)
Resolution: 35000
Column name: XBridge C18 3.5um, 2.1x50mm, Waters
Retention time: 9.4 min
Base peak: 405.1573
Precursor m/z: 405.1576
Precursor type: [M+H]+
m/z	relative intensity	assigned
56.0495	22	C3H6N+
58.0651	30	C3H8N+
68.0494	4	C4H6N+
69.0572	1	C4H7N+
70.0651	22	C4H8N+
71.0603	4	C3H7N2+
71.0729	1	C4H9N+
72.0807	3	C4H10N+
78.0464	2	C6H6+
82.065	3	C5H8N+
83.0603	5	C4H7N2+
84.0682	26	C4H8N2+
84.0807	8	C5H10N+
85.076	2	C4H9N2+
86.06	48	C4H8NO+
86.0963	3	C5H12N+
91.0542	7	C7H7+
97.076	8	C5H9N2+
98.0601	2	C5H8NO+
98.0838	6	C5H10N2+
99.0916	70	C5H11N2+
100.0756	5	C5H10NO+
103.0389	7	C4H7O3+
103.0542	12	C8H7+
104.062	25	C8H8+
105.0698	4	C8H9+
111.0916	9	C6H11N2+
112.0993	2	C6H12N2+
114.0913	5	C6H12NO+
125.0153	5	C7H6Cl+
128.0495	1	C9H6N+
129.1022	1	C6H13N2O+
130.0651	5	C9H8N+
132.0655	49	C5H10NO3+
137.0153	8	C8H6Cl+
138.023	17	C8H7Cl+
139.0308	4	C8H8Cl+
144.0653	2	C6H10NO3+
146.0811	11	C6H12NO3+
146.0965	1	C10H12N+
152.0619	1	C12H8+
153.0699	6	C12H9+
154.0776	2	C12H10+
158.0811	4	C7H12NO3+
159.0915	1	C10H11N2+
160.0968	5	C7H14NO3+
164.0262	2	C9H7ClN+
165.0699	246	C13H9+
166.0777	720	C13H10+
179.0855	38	C14H11+
181.065	1	C13H9O+
182.0727	1	C13H10O+
183.0804	29	C13H11O+
187.1076	20	C8H15N2O3+
193.0761	43	C13H9N2+
194.0964	1	C14H12N+
199.031	9	C13H8Cl+
200.0386	1	C13H9Cl+
201.0465	999	C13H10Cl+
206.0964	39	C15H12N+
207.1053	2	C15H13N+
215.0626	4	C14H12Cl+
216.0574	11	C13H11ClN+
227.0494	2	C14H10ClN+
228.0574	154	C14H11ClN+
240.0574	95	C15H11ClN+
241.0653	2	C15H12ClN+
242.073	61	C15H13ClN+
256.0879	1	C19H12O+
268.0885	1	C20H12O+
271.0993	3	C19H13NO+
283.0997	4	C17H16ClN2+
285.1154	6	C17H18ClN2+
299.1308	9	C18H20ClN2+
