Mass spectrum: Metolachlor morpholinone; LC-ESI-ITFT; MS2; CE: 90%; R=30000; [M+H]+
Name: Metolachlor morpholinone
Name: 4-(2-ethyl-6-methylphenyl)-5-methylmorpholin-3-one
Formula: C14H19NO2
Exact mass: 233.1416
SMILES: O=C2N(c1c(cccc1C)CC)C(C)COC2
InChI: InChI=1S/C14H19NO2/c1-4-12-7-5-6-10(2)14(12)15-11(3)8-17-9-13(15)16/h5-7,11H,4,8-9H2,1-3H3
Instrument: LTQ Orbitrap XL Thermo Scientific
Instrument type: LC-ESI-ITFT
Ms type: MS2
Ion mode: POSITIVE
Ionization: ESI
Fragmentation mode: HCD
Collision energy: 90 % (nominal)
Resolution: 30000
Column name: XBridge C18 3.5um, 2.1x50mm, Waters
Retention time: 8.2 min
Base peak: 234.1493
Precursor m/z: 234.1489
Precursor type: [M+H]+
m/z	relative intensity	assigned
65.0385	7	C5H5+
70.0652	13	C4H8N+
77.0386	35	C6H5+
79.0542	37	C6H7+
91.0542	370	C7H7+
92.0621	20	C7H8+
93.0699	296	C7H9+
99.0678	16	C5H9NO+
103.0542	84	C8H7+
104.0495	16	C7H6N+
104.0621	24	C8H8+
105.0448	7	C6H5N2+
105.0573	32	C7H7N+
105.0699	125	C8H9+
106.0652	34	C7H8N+
107.0729	11	C7H9N+
107.0854	8	C8H11+
108.0808	15	C7H10N+
109.0648	19	C7H9O+
115.0542	29	C9H7+
116.0621	11	C9H8+
117.0573	42	C8H7N+
117.0699	81	C9H9+
118.0652	380	C8H8N+
119.0492	22	C8H7O+
119.073	272	C8H9N+
119.0855	125	C9H11+
120.0808	999	C8H10N+
121.0648	9	C8H9O+
129.0698	14	C10H9+
130.0651	52	C9H8N+
131.0729	122	C9H9N+
131.0854	15	C10H11+
132.0443	12	C8H6NO+
132.0808	184	C9H10N+
133.0522	196	C8H7NO+
133.0886	165	C9H11N+
134.0964	114	C9H12N+
135.1042	34	C9H13N+
143.0729	18	C10H9N+
144.0808	45	C10H10N+
145.0886	68	C10H11N+
146.06	115	C9H8NO+
146.0964	223	C10H12N+
147.0679	199	C9H9NO+
147.0916	14	C9H11N2+
147.1043	20	C10H13N+
148.0756	110	C9H10NO+
148.1121	184	C10H14N+
158.0965	47	C11H12N+
159.1045	7	C11H13N+
160.0757	12	C10H10NO+
160.112	195	C11H14N+
161.0834	6	C10H11NO+
161.1202	4	C11H15N+
162.0913	36	C10H12NO+
162.1279	5	C11H16N+
172.1119	5	C12H14N+
174.1278	12	C12H16N+
176.1068	9	C11H14NO+
176.1433	15	C12H18N+
206.1174	13	C12H16NO2+
