Mass spectrum: Oxytetracycline; LC-ESI-QFT; MS2; CE: 120; R=35000; [M+H]+
Name: Oxytetracycline
Name: (4S,4aR,5S,5aR,6S,12aS)-4-(Dimethylamino)-3,5,6,10,12,12a-hexahydroxy-6-methyl-1,11-dioxo-1,4,4a,5,5a,6,11,12a-octahydro-2-tetracenecarboxamide
Name: 2-carbamoyl-4-(dimethylazaniumyl)-5,6,10,11,12a-pentahydroxy-6-methyl-3,12-dioxo-4,4a,5,5a-tetrahydrotetracen-1-olate
Formula: C22H24N2O9
Exact mass: 460.14818
SMILES: CC1(C2C(C3C(C(=O)C(=C(C3(C(=O)C2=C(C4=C1C=CC=C4O)O)O)O)C(=O)N)N(C)C)O)O
InChI: InChI=1S/C22H24N2O9/c1-21(32)7-5-4-6-8(25)9(7)15(26)10-12(21)17(28)13-14(24(2)3)16(27)11(20(23)31)19(30)22(13,33)18(10)29/h4-6,12-14,17,25-26,28,30,32-33H,1-3H3,(H2,23,31)
Instrument: Q Exactive Plus Orbitrap Thermo Scientific
Instrument type: LC-ESI-QFT
Ms type: MS2
Ion mode: POSITIVE
Ionization: ESI
Fragmentation mode: HCD
Collision energy: 120 (nominal)
Resolution: 35000
Column name: XBridge C18 3.5um, 2.1x50mm, Waters
Retention time: 4.3 min
Base peak: 461.1547
Precursor m/z: 461.1555
Precursor type: [M+H]+
m/z	relative intensity	assigned
50.0151	12	C4H2+
51.0229	11	C4H3+
53.0022	19	C3HO+
53.0386	44	C4H5+
54.0339	5	C3H4N+
55.0179	71	C3H3O+
55.0417	22	C3H5N+
56.0495	15	C3H6N+
57.0573	1	C3H7N+
58.0652	179	C3H8N+
62.0149	1	C5H2+
63.0228	15	C5H3+
65.0386	17	C5H5+
66.0338	1	C4H4N+
67.0178	11	C4H3O+
67.0416	5	C4H5N+
68.0495	14	C4H6N+
68.9971	90	C3HO2+
69.0336	10	C4H5O+
70.0651	73	C4H8N+
71.0127	11	C3H3O2+
71.0366	11	C3H5NO+
72.0443	10	C3H6NO+
72.0807	1	C4H10N+
74.0601	1	C3H8NO+
75.0228	14	C6H3+
76.0306	1	C6H4+
77.0021	4	C5HO+
77.0385	39	C6H5+
78.0464	16	C6H6+
79.0178	35	C5H3O+
79.0542	6	C6H7+
80.0495	9	C5H6N+
81.0335	15	C5H5O+
81.0573	3	C5H7N+
82.0652	14	C5H8N+
83.0127	12	C4H3O2+
83.0366	17	C4H5NO+
84.0445	4	C4H6NO+
86.06	6	C4H8NO+
87.0228	1	C7H3+
89.0386	18	C7H5+
90.0464	2	C7H6+
91.0543	141	C7H7+
92.0257	9	C6H4O+
93.0575	1	C6H7N+
94.0652	6	C6H8N+
95.0127	19	C5H3O2+
95.0492	98	C6H7O+
96.0445	2	C5H6NO+
97.0284	2	C5H5O2+
98.0601	57	C5H8NO+
101.0387	9	C8H5+
102.0464	73	C8H6+
103.0543	46	C8H7+
105.0336	10	C7H5O+
105.0448	67	C6H5N2+
107.0128	4	C6H3O2+
107.0491	10	C7H7O+
108.0446	1	C6H6NO+
110.06	1	C6H8NO+
113.0386	21	C9H5+
114.0464	10	C9H6+
115.0543	375	C9H7+
116.0621	39	C9H8+
117.0335	3	C8H5O+
117.0699	62	C9H9+
118.0412	2	C8H6O+
119.0127	1	C7H3O2+
119.0492	13	C8H7O+
121.0284	4	C7H5O2+
123.0076	7	C6H3O3+
125.0236	1	C6H5O3+
125.0387	6	C10H5+
126.0465	115	C10H6+
127.0543	663	C10H7+
128.0621	999	C10H8+
129.0447	40	C8H5N2+
129.0699	90	C10H9+
130.0416	9	C9H6O+
131.0492	70	C9H7O+
131.0855	3	C10H11+
132.0571	10	C9H8O+
133.0649	1	C9H9O+
134.0602	1	C8H8NO+
137.0237	1	C7H5O3+
138.0463	7	C11H6+
139.0543	164	C11H7+
140.0621	69	C11H8+
141.0699	64	C11H9+
142.0414	10	C10H6O+
142.0777	1	C11H10+
143.0492	10	C10H7O+
143.0856	6	C11H11+
144.057	41	C10H8O+
145.0649	170	C10H9O+
150.0463	10	C12H6+
151.0544	17	C12H7+
152.0621	256	C12H8+
153.0699	88	C12H9+
154.0778	12	C12H10+
155.0495	117	C11H7O+
155.0604	283	C10H7N2+
156.057	98	C11H8O+
157.0649	40	C11H9O+
158.0364	10	C10H6O2+
158.0727	1	C11H10O+
159.0443	5	C10H7O2+
159.0806	8	C11H11O+
160.0519	13	C10H8O2+
161.0599	18	C10H9O2+
162.0464	1	C13H6+
163.039	5	C9H7O3+
163.0543	49	C13H7+
164.062	37	C13H8+
165.07	188	C13H9+
166.0413	2	C12H6O+
166.078	8	C13H10+
167.0491	6	C12H7O+
167.0855	2	C13H11+
168.057	203	C12H8O+
169.0648	74	C12H9O+
170.0358	1	C11H6O2+
170.0725	4	C12H10O+
171.0441	19	C11H7O2+
171.055	2	C10H7N2O+
171.0805	5	C12H11O+
172.0521	1	C11H8O2+
173.0597	12	C11H9O2+
174.0678	1	C11H10O2+
175.0538	1	C14H7+
176.0621	67	C14H8+
177.0701	18	C14H9+
178.0778	45	C14H10+
179.0492	11	C13H7O+
179.0604	18	C12H7N2+
180.057	8	C13H8O+
181.0649	73	C13H9O+
182.0726	15	C13H10O+
183.0442	47	C12H7O2+
184.052	468	C12H8O2+
185.0597	7	C12H9O2+
186.0312	12	C11H6O3+
186.0676	8	C12H10O2+
187.039	39	C11H7O3+
187.0537	7	C15H7+
188.062	1	C15H8+
189.0698	31	C15H9+
190.0773	1	C15H10+
192.0571	15	C14H8O+
193.065	11	C14H9O+
194.0363	1	C13H6O2+
194.0726	9	C14H10O+
195.0807	3	C14H11O+
196.052	34	C13H8O2+
197.0598	30	C13H9O2+
198.0677	10	C13H10O2+
200.0472	1	C12H8O3+
201.0546	6	C12H9O3+
202.0779	3	C16H10+
204.0421	1	C11H8O4+
204.0569	1	C15H8O+
205.065	16	C15H9O+
207.0442	2	C14H7O2+
208.0519	11	C14H8O2+
209.0598	10	C14H9O2+
210.0673	3	C14H10O2+
211.0395	3	C13H7O3+
211.0754	6	C14H11O2+
212.0469	41	C13H8O3+
213.0546	14	C13H9O3+
214.0626	3	C13H10O3+
218.0732	1	C16H10O+
220.0523	3	C15H8O2+
221.0597	14	C15H9O2+
224.0463	1	C14H8O3+
225.0547	2	C14H9O3+
233.06	1	C16H9O2+
236.0471	3	C15H8O3+
237.0546	16	C15H9O3+
239.0336	1	C14H7O4+
241.0493	1	C14H9O4+
242.0571	3	C14H10O4+
249.0548	1	C16H9O3+
265.0489	1	C16H9O4+
