Mass spectrum: Uvinul-LR; LC-ESI-QFT; MS2; CE: 90%; R=17500; [M-H]-
Name: Uvinul-LR
Name: 2-ethoxyethyl 2-cyano-2-[3-(3-methoxypropylamino)cyclohex-2-en-1-ylidene]acetate
Formula: C17H26N2O4
Exact mass: 322.1893
SMILES: CCOCCOC(=O)C(=C1CCCC(=C1)NCCCOC)C#N
InChI: InChI=1S/C17H26N2O4/c1-3-22-10-11-23-17(20)16(13-18)14-6-4-7-15(12-14)19-8-5-9-21-2/h12,19H,3-11H2,1-2H3
Instrument: Exploris 240 Orbitrap Thermo Scientific
Instrument type: LC-ESI-QFT
Ms type: MS2
Ion mode: NEGATIVE
Ionization: ESI
Fragmentation mode: HCD
Collision energy: 90 % (nominal)
Resolution: 17500
Column name: XBridge C18 3.5um, 2.1x50mm, Waters
Retention time: 6.732 min
Base peak: 321.1817
Precursor m/z: 321.182
Precursor type: [M-H]-
m/z	relative intensity	assigned
50.0036	60	C3N-
59.0138	139	C2H3O2-
63.0115	44	C4HN-
64.0192	33	C4H2N-
65.9985	848	C3NO-
76.0193	47	C5H2N-
89.0145	429	C5HN2-
90.0349	56	C6H4N-
92.0506	334	C6H6N-
102.022	44	C6H2N2-
104.0379	235	C6H4N2-
105.0455	126	C6H5N2-
116.0509	45	C8H6N-
117.0457	999	C7H5N2-
118.0536	610	C7H6N2-
130.0176	79	C7H2N2O-
130.054	64	C8H6N2-
131.0615	131	C8H7N2-
132.0692	65	C8H8N2-
133.0771	218	C8H9N2-
134.0612	34	C8H8NO-
143.0621	40	C9H7N2-
145.077	392	C9H9N2-
146.0844	132	C9H10N2-
159.0564	55	C9H7N2O-
163.0876	56	C9H11N2O-
