Mass spectrum: Nitrazepam; LC-ESI-QFT; MS2; CE: 75; R=35000; [M+H]+
Name: Nitrazepam
Name: 7-nitro-5-phenyl-1,3-dihydro-1,4-benzodiazepin-2-one
Formula: C15H11N3O3
Exact mass: 281.08004
SMILES: C1C(=O)NC2=C(C=C(C=C2)[N+](=O)[O-])C(=N1)C3=CC=CC=C3
InChI: InChI=1S/C15H11N3O3/c19-14-9-16-15(10-4-2-1-3-5-10)12-8-11(18(20)21)6-7-13(12)17-14/h1-8H,9H2,(H,17,19)
Instrument: Q Exactive Plus Orbitrap Thermo Scientific
Instrument type: LC-ESI-QFT
Ms type: MS2
Ion mode: POSITIVE
Ionization: ESI
Fragmentation mode: HCD
Collision energy: 75 (nominal)
Resolution: 35000
Column name: XBridge C18 3.5um, 2.1x50mm, Waters
Retention time: 7.7 min
Base peak: 282.0866
Precursor m/z: 282.0873
Precursor type: [M+H]+
m/z	relative intensity	assigned
53.0385	2	C4H5+
65.0386	2	C5H5+
66.0463	2	C5H6+
77.0382	3	C6H5+
78.0338	1	C5H4N+
78.0464	8	C6H6+
79.0416	8	C5H5N+
80.0255	3	C5H4O+
80.0494	5	C5H6N+
89.0386	1	C7H5+
90.0464	1	C7H6+
91.0542	63	C7H7+
93.0573	10	C6H7N+
95.0491	2	C6H7O+
103.0416	32	C7H5N+
104.0494	85	C7H6N+
105.0335	6	C7H5O+
105.0448	5	C6H5N2+
105.0573	35	C7H7N+
106.0524	2	C6H6N2+
106.0652	4	C7H8N+
115.0542	1	C9H7+
116.0494	13	C8H6N+
117.0573	3	C8H7N+
118.0525	7	C7H6N2+
118.065	3	C8H8N+
128.062	1	C10H8+
129.0447	22	C8H5N2+
130.0526	88	C8H6N2+
131.0365	2	C8H5NO+
131.0604	6	C8H7N2+
133.0397	4	C7H5N2O+
133.0522	11	C8H7NO+
137.0472	2	C7H7NO2+
140.062	1	C11H8+
141.0698	1	C11H9+
143.0731	2	C10H9N+
144.0445	1	C9H6NO+
146.0474	2	C8H6N2O+
152.062	35	C12H8+
153.0699	20	C12H9+
154.0651	2	C11H8N+
154.0778	1	C12H10+
156.0808	5	C11H10N+
157.0397	5	C9H5N2O+
158.0474	10	C9H6N2O+
159.0551	5	C9H7N2O+
162.0425	9	C8H6N2O2+
163.054	1	C13H7+
164.062	19	C13H8+
165.0421	2	C8H7NO3+
165.0699	28	C13H9+
166.0652	4	C12H8N+
166.0777	5	C13H10+
167.073	17	C12H9N+
167.0854	12	C13H11+
168.0573	6	C12H8O+
168.0684	18	C11H8N2+
168.0807	22	C12H10N+
175.0503	1	C9H7N2O2+
176.0454	8	C8H6N3O2+
178.0652	12	C13H8N+
179.073	66	C13H9N+
180.0807	999	C13H10N+
181.0651	1	C13H9O+
181.0759	2	C12H9N2+
181.0886	9	C13H11N+
182.0837	2	C12H10N2+
185.046	2	C9H5N4O+
187.0376	3	C9H5N3O2+
190.0651	149	C14H8N+
191.0729	62	C14H9N+
192.0682	6	C13H8N2+
192.0807	50	C14H10N+
193.076	17	C13H9N2+
193.0886	24	C14H11N+
194.0601	2	C13H8NO+
194.0839	17	C13H10N2+
194.0964	26	C14H12N+
195.0677	2	C13H9NO+
195.0917	24	C13H11N2+
196.0756	22	C13H10NO+
205.076	9	C14H9N2+
206.0605	6	C14H8NO+
206.0839	88	C14H10N2+
207.0917	890	C14H11N2+
208.0995	100	C14H12N2+
211.0868	2	C13H11N2O+
217.0763	10	C15H9N2+
218.0837	3	C15H10N2+
219.068	2	C15H9NO+
219.0921	1	C15H11N2+
221.0708	3	C14H9N2O+
223.0627	2	C14H9NO2+
223.0866	23	C14H11N2O+
234.0786	3	C15H10N2O+
235.0866	101	C15H11N2O+
236.0944	297	C15H12N2O+
238.0734	1	C14H10N2O2+
239.0809	3	C14H11N2O2+
240.0892	15	C14H12N2O2+
251.0816	6	C15H11N2O2+
252.0767	2	C14H10N3O2+
268.0842	113	C15H12N2O3+
282.0869	2	C15H12N3O3+
