Mass spectrum: Bufexamac; LC-ESI-QFT; MS2; CE: 15; R=35000; [M-H]-
Name: Bufexamac
Name: 2-(4-butoxyphenyl)-N-hydroxyacetamide
Formula: C12H17NO3
Exact mass: 223.12084
SMILES: CCCCOC1=CC=C(C=C1)CC(=O)NO
InChI: InChI=1S/C12H17NO3/c1-2-3-8-16-11-6-4-10(5-7-11)9-12(14)13-15/h4-7,15H,2-3,8-9H2,1H3,(H,13,14)
Instrument: Q Exactive Orbitrap Thermo Scientific
Instrument type: LC-ESI-QFT
Ms type: MS2
Ion mode: NEGATIVE
Ionization: ESI
Fragmentation mode: HCD
Collision energy: 15 (nominal)
Resolution: 35000
Column name: XBridge C18 3.5um, 2.1x50mm, Waters
Retention time: 8.4 min
Base peak: 222.1136
Precursor m/z: 222.1136
Precursor type: [M-H]-
m/z	relative intensity	assigned
57.9934	77	CNO2-
59.0012	4	CHNO2-
71.0503	2	C4H7O-
93.0346	111	C6H5O-
102.0348	2	C7H4N-
108.0217	2	C6H4O2-
118.03	18	C7H4NO-
119.0377	9	C7H5NO-
120.0455	4	C7H6NO-
121.0294	1	C7H5O2-
123.045	1	C7H7O2-
146.0248	15	C8H4NO2-
147.0325	5	C8H5NO2-
148.0403	2	C8H6NO2-
149.0243	9	C8H5O3-
165.0429	4	C8H7NO3-
192.0173	1	C8H4N2O4-
193.0866	1	C11H13O3-
222.1136	999	C12H16NO3-
