Mass spectrum: Xipamide; LC-ESI-QFT; MS2; CE: 45%; R=15000; [M-H]-
Name: Xipamide
Name: 4-chloro-N-(2,6-dimethylphenyl)-2-hydroxy-5-sulfamoylbenzamide
Formula: C15H15ClN2O4S
Exact mass: 354.0441
SMILES: CC1=C(C(=CC=C1)C)NC(=O)C2=CC(=C(C=C2O)Cl)S(=O)(=O)N
InChI: InChI=1S/C15H15ClN2O4S/c1-8-4-3-5-9(2)14(8)18-15(20)10-6-13(23(17,21)22)11(16)7-12(10)19/h3-7,19H,1-2H3,(H,18,20)(H2,17,21,22)
Instrument: Orbitrap Exploris 240 Thermo Scientific
Instrument type: LC-ESI-QFT
Ms type: MS2
Ion mode: NEGATIVE
Ionization: ESI
Fragmentation mode: HCD
Collision energy: 45 % (nominal)
Resolution: 15000
Column name: Atlantis C18 3um, 3.0x150mm, Waters
Retention time: 17.859 min
Base peak: 353.0365
Precursor m/z: 353.0368
Precursor type: [M-H]-
Precursor intensity: 133348944
m/z	relative intensity	assigned
77.9655	624	NO2S-
78.035	5	
105.0222	8	C6H3NO-
122.0246	44	C6H4NO2-
126.9955	293	C6H4ClO-
141.9825	6	C6H3ClO2-
169.9917	113	C6H4NO3S-
189.95	7	C6H3ClO3S-
195.9709	55	C7H2NO4S-
205.9684	161	C6H5ClNO3S-
231.9473	18	C7H3ClNO4S-
256.0532	26	C15H11ClNO-
269.093	9	C15H13N2O3-
273.056	213	C15H12ClNO2-
274.0641	622	C15H13ClNO2-
335.026	9	C15H12ClN2O3S-
353.0367	999	C15H14ClN2O4S-
