Mass spectrum: Pargyline; LC-ESI-QFT; MS2; CE: 60; R=35000; [M+H]+
Name: Pargyline
Name: N-benzyl-N-methylprop-2-yn-1-amine
Name: N-Methyl-N-propargylbenzylamine
Formula: C11H13N
Exact mass: 159.10480
SMILES: C#CCN(C)Cc1ccccc1
InChI: InChI=1S/C11H13N/c1-3-9-12(2)10-11-7-5-4-6-8-11/h1,4-8H,9-10H2,2H3
Instrument: Q Exactive Orbitrap Thermo Scientific
Instrument type: LC-ESI-QFT
Ms type: MS2
Ion mode: POSITIVE
Ionization: ESI
Fragmentation mode: HCD
Collision energy: 60 (nominal)
Resolution: 35000
Column name: XBridge C18 3.5um, 2.1x50mm, Waters
Retention time: 2.8 min
Base peak: 160.1122
Precursor m/z: 160.1121
Precursor type: [M+H]+
m/z	relative intensity	assigned
56.0496	1	C3H6N+
65.0386	9	C5H5+
68.0495	10	C4H6N+
89.0386	1	C7H5+
91.0542	999	C7H7+
128.062	7	C10H8+
129.0699	12	C10H9+
131.0855	2	C10H11+
144.0808	2	C10H10N+
145.0648	1	C10H9O+
145.0886	2	C10H11N+
160.112	7	C11H14N+
