Mass spectrum: Epinephrine; LC-ESI-QFT; MS2; CE: 60; R=35000; [M-H]-
Name: Epinephrine
Name: 4-[(1R)-1-hydroxy-2-(methylamino)ethyl]benzene-1,2-diol
Formula: C9H13NO3
Exact mass: 183.08954
SMILES: CNC[C@@H](C1=CC(=C(C=C1)O)O)O
InChI: InChI=1S/C9H13NO3/c1-10-5-9(13)6-2-3-7(11)8(12)4-6/h2-4,9-13H,5H2,1H3/t9-/m0/s1
Instrument: Q Exactive Orbitrap Thermo Scientific
Instrument type: LC-ESI-QFT
Ms type: MS2
Ion mode: NEGATIVE
Ionization: ESI
Fragmentation mode: HCD
Collision energy: 60 (nominal)
Resolution: 35000
Column name: XBridge C18 3.5um, 2.1x50mm, Waters
Retention time: 0.8 min
Base peak: 182.0824
Precursor m/z: 182.0823
Precursor type: [M-H]-
m/z	relative intensity	assigned
93.0346	6	C6H5O-
108.0217	10	C6H4O2-
109.0296	28	C6H5O2-
121.0296	9	C7H5O2-
122.0374	999	C7H6O2-
123.0452	39	C7H7O2-
124.0165	23	C6H4O3-
131.0377	3	C8H5NO-
134.0373	4	C8H6O2-
135.0452	23	C8H7O2-
136.0167	5	C7H4O3-
137.0244	44	C7H5O3-
139.04	3	C7H7O3-
144.0454	1	C9H6NO-
147.0326	11	C8H5NO2-
148.0405	102	C8H6NO2-
149.0481	322	C8H7NO2-
153.0192	3	C7H5O4-
154.0272	49	C7H6O4-
160.0404	4	C9H6NO2-
161.0482	12	C9H7NO2-
162.0561	25	C9H8NO2-
163.0639	11	C9H9NO2-
164.0718	312	C9H10NO2-
