Mass spectrum: Nicotine; LC-ESI-QFT; MS2; CE: 60; R=35000; [M+H]+
Name: Nicotine
Name: 3-[(2S)-1-methylpyrrolidin-2-yl]pyridine
Name: 3-[(2S)-1-methyl-2-pyrrolidinyl]pyridine
Formula: C10H14N2
Exact mass: 162.11570
SMILES: n1cc(ccc1)[C@H]2N(C)CCC2
InChI: InChI=1S/C10H14N2/c1-12-7-3-5-10(12)9-4-2-6-11-8-9/h2,4,6,8,10H,3,5,7H2,1H3/t10-/m0/s1
Instrument: Q Exactive Orbitrap Thermo Scientific
Instrument type: LC-ESI-QFT
Ms type: MS2
Ion mode: POSITIVE
Ionization: ESI
Fragmentation mode: HCD
Collision energy: 60 (nominal)
Resolution: 35000
Column name: XBridge C18 3.5um, 2.1x50mm, Waters
Retention time: 0.9 min
Base peak: 163.1229
Precursor m/z: 163.123
Precursor type: [M+H]+
m/z	relative intensity	assigned
70.065	3	C4H8N+
78.0334	1	C5H4N+
80.0494	115	C5H6N+
82.065	2	C5H8N+
84.0807	172	C5H10N+
91.0541	1	C7H7+
92.0494	9	C6H6N+
93.0571	1	C6H7N+
94.065	14	C6H8N+
103.054	1	C8H7+
105.0698	7	C8H9+
106.065	351	C7H8N+
110.0598	2	C6H8NO+
115.0541	27	C9H7+
117.0571	349	C8H7N+
118.0649	3	C8H8N+
119.0726	1	C8H9N+
120.0806	175	C8H10N+
130.065	937	C9H8N+
131.073	7	C9H9N+
132.0806	999	C9H10N+
134.0962	3	C9H12N+
146.0961	1	C10H12N+
163.1227	309	C10H15N2+
