Mass spectrum: Omethoate; LC-ESI-QFT; MS2; CE: 75%; R=17500; [M+H]+
Name: Omethoate
Name: 2-dimethoxyphosphorylsulfanyl-N-methylacetamide
Formula: C5H12NO4PS
Exact mass: 213.0225
SMILES: CNC(=O)CSP(=O)(OC)OC
InChI: InChI=1S/C5H12NO4PS/c1-6-5(7)4-12-11(8,9-2)10-3/h4H2,1-3H3,(H,6,7)
Instrument: Exploris 240 Orbitrap Thermo Scientific
Instrument type: LC-ESI-QFT
Ms type: MS2
Ion mode: POSITIVE
Ionization: ESI
Fragmentation mode: HCD
Collision energy: 75 % (nominal)
Resolution: 17500
Column name: XBridge C18 3.5um, 2.1x50mm, Waters
Retention time: 1.956 min
Base peak: 214.0296
Precursor m/z: 214.0297
Precursor type: [M+H]+
m/z	relative intensity	assigned
61.0106	55	C2H5S+
72.0443	39	C3H6NO+
76.0215	42	C2H6NS+
78.9943	99	CH4O2P+
86.0061	9	C3H4NS+
88.0217	7	C3H6NS+
104.0165	55	C3H6NOS+
109.0049	385	C2H6O3P+
111.0205	13	C2H8O3P+
124.9821	999	C2H6O2PS+
127.0155	731	C2H8O4P+
142.9927	248	C2H8O3PS+
154.9929	49	C3H8O3PS+
