Mass spectrum: Norlidocaine; LC-ESI-QFT; MS2; CE: 120; R=35000; [M+H]+
Name: Norlidocaine
Name: Monoethylglycinexylidide
Name: N-(2,6-dimethylphenyl)-2-(ethylamino)acetamide
Formula: C12H18N2O
Exact mass: 206.14191
SMILES: CCNCC(=O)NC1=C(C=CC=C1C)C
InChI: InChI=1S/C12H18N2O/c1-4-13-8-11(15)14-12-9(2)6-5-7-10(12)3/h5-7,13H,4,8H2,1-3H3,(H,14,15)
Instrument: Q Exactive Plus Orbitrap Thermo Scientific
Instrument type: LC-ESI-QFT
Ms type: MS2
Ion mode: POSITIVE
Ionization: ESI
Fragmentation mode: HCD
Collision energy: 120 (nominal)
Resolution: 35000
Column name: XBridge C18 3.5um, 2.1x50mm, Waters
Retention time: 3.8 min
Base peak: 207.1491
Precursor m/z: 207.1492
Precursor type: [M+H]+
m/z	relative intensity	assigned
51.0229	2	C4H3+
53.0386	7	C4H5+
58.0652	999	C3H8N+
65.0385	1	C5H5+
67.0542	2	C5H7+
77.0385	6	C6H5+
79.0542	37	C6H7+
89.0386	1	C7H5+
91.0542	4	C7H7+
95.0493	13	C6H7O+
103.0542	19	C8H7+
105.0448	11	C6H5N2+
105.07	28	C8H9+
106.0652	64	C7H8N+
107.073	63	C7H9N+
108.0569	2	C7H8O+
117.0574	11	C8H7N+
118.0651	1	C8H8N+
120.081	1	C8H10N+
122.0965	2	C8H12N+
