Mass spectrum: N-Bisdesmethyl Tramadol; LC-ESI-QFT; MS2; CE: 90; R=35000; [M+H]+
Name: N-Bisdesmethyl Tramadol
Name: 2-(aminomethyl)-1-(3-methoxyphenyl)cyclohexan-1-ol
Formula: C14H21NO2
Exact mass: 235.15723
SMILES: COC1=CC=CC(=C1)C2(CCCCC2CN)O
InChI: InChI=1S/C14H21NO2/c1-17-13-7-4-6-11(9-13)14(16)8-3-2-5-12(14)10-15/h4,6-7,9,12,16H,2-3,5,8,10,15H2,1H3
Instrument: Q Exactive Plus Orbitrap Thermo Scientific
Instrument type: LC-ESI-QFT
Ms type: MS2
Ion mode: POSITIVE
Ionization: ESI
Fragmentation mode: HCD
Collision energy: 90 (nominal)
Resolution: 35000
Column name: XBridge C18 3.5um, 2.1x50mm, Waters
Retention time: 5.2 min
Base peak: 236.1644
Precursor m/z: 236.1645
Precursor type: [M+H]+
m/z	relative intensity	assigned
51.0228	2	C4H3+
53.0386	19	C4H5+
55.0543	8	C4H7+
56.0495	1	C3H6N+
65.0386	19	C5H5+
67.0542	9	C5H7+
77.0385	17	C6H5+
78.0463	21	C6H6+
79.0542	46	C6H7+
81.0699	70	C6H9+
91.0543	281	C7H7+
93.0699	14	C7H9+
95.0491	38	C6H7O+
103.0543	2	C8H7+
105.0333	1	C7H5O+
105.0448	22	C6H5N2+
105.0698	2	C8H9+
106.0413	18	C7H6O+
107.0492	6	C7H7O+
109.0648	14	C7H9O+
115.0542	9	C9H7+
116.0619	6	C9H8+
117.0699	8	C9H9+
119.0604	9	C7H7N2+
121.0648	999	C8H9O+
128.062	6	C10H8+
129.0695	9	C10H9+
131.0493	2	C9H7O+
132.057	6	C9H8O+
133.0647	1	C9H9O+
135.0803	5	C9H11O+
144.057	14	C10H8O+
145.0648	6	C10H9O+
147.0805	21	C10H11O+
155.0601	2	C10H7N2+
158.0726	6	C11H10O+
159.0805	6	C11H11O+
