Mass spectrum: Dimoxystrobin; LC-ESI-QFT; MS2; CE: 75; R=35000; [M+H]+
Name: Dimoxystrobin
Name: 2-[2-[(2,5-dimethylphenoxy)methyl]phenyl]-2-methoxyimino-N-methylacetamide
Formula: C19H22N2O3
Exact mass: 326.16304
SMILES: CC1=CC(=C(C=C1)C)OCC2=CC=CC=C2C(=NOC)C(=O)NC
InChI: InChI=1S/C19H22N2O3/c1-13-9-10-14(2)17(11-13)24-12-15-7-5-6-8-16(15)18(21-23-4)19(22)20-3/h5-11H,12H2,1-4H3,(H,20,22)
Instrument: Q Exactive Plus Orbitrap Thermo Scientific
Instrument type: LC-ESI-QFT
Ms type: MS2
Ion mode: POSITIVE
Ionization: ESI
Fragmentation mode: HCD
Collision energy: 75 (nominal)
Resolution: 35000
Column name: XBridge C18 3.5um, 2.1x50mm, Waters
Retention time: 12.4 min
Base peak: 327.1694
Precursor m/z: 327.1703
Precursor type: [M+H]+
m/z	relative intensity	assigned
58.0287	738	C2H4NO+
63.0228	6	C5H3+
65.0385	7	C5H5+
79.0542	3	C6H7+
89.0385	255	C7H5+
90.0338	6	C6H4N+
90.0464	7	C7H6+
91.0542	18	C7H7+
104.0494	2	C7H6N+
105.0698	2	C8H9+
107.049	3	C7H7O+
115.0416	2	C8H5N+
116.0494	999	C8H6N+
117.0572	64	C8H7N+
118.065	10	C8H8N+
119.0366	3	C7H5NO+
121.0648	5	C8H9O+
134.06	46	C8H8NO+
135.0804	4	C9H11O+
144.0443	2	C9H6NO+
145.076	9	C9H9N2+
146.0598	2	C9H8NO+
148.0756	4	C9H10NO+
161.0469	2	C9H7NO2+
165.0698	4	C13H9+
167.0729	1	C12H9N+
178.0776	13	C14H10+
179.0855	4	C14H11+
180.0807	29	C13H10N+
182.0966	1	C13H12N+
193.0886	4	C14H11N+
193.1009	3	C15H13+
194.0964	16	C14H12N+
195.1043	5	C14H13N+
204.0803	3	C15H10N+
206.0962	2	C15H12N+
208.0755	2	C14H10NO+
220.0756	3	C15H10NO+
220.1121	1	C16H14N+
221.0959	2	C16H13O+
222.091	5	C15H12NO+
222.103	1	C16H14O+
223.0991	17	C15H13NO+
236.1065	1	C16H14NO+
249.0905	1	C17H13O2+
