Mass spectrum: Difenoconazole; LC-ESI-ITFT; MS2; CE: 45%; R=7500; [M+H]+
Name: Difenoconazole
Name: 1-[[2-[2-chloranyl-4-(4-chloranylphenoxy)phenyl]-4-methyl-1,3-dioxolan-2-yl]methyl]-1,2,4-triazole
Formula: C19H17Cl2N3O3
Exact mass: 405.0647
SMILES: Clc4ccc(Oc1ccc(c(Cl)c1)C2(OCC(O2)C)Cn3ncnc3)cc4
InChI: InChI=1S/C19H17Cl2N3O3/c1-13-9-25-19(27-13,10-24-12-22-11-23-24)17-7-6-16(8-18(17)21)26-15-4-2-14(20)3-5-15/h2-8,11-13H,9-10H2,1H3
Instrument: LTQ Orbitrap XL Thermo Scientific
Instrument type: LC-ESI-ITFT
Ms type: MS2
Ion mode: POSITIVE
Ionization: ESI
Fragmentation mode: HCD
Collision energy: 45 % (nominal)
Resolution: 7500
Column name: XBridge C18 3.5um, 2.1x50mm, Waters
Retention time: 14.1 min
Base peak: 406.0724
Precursor m/z: 406.072
Precursor type: [M+H]+
m/z	relative intensity	assigned
70.0399	1	C2H4N3+
126.9946	1	C6H4ClO+
129.0698	3	C10H9+
141.0094	1	C5H4ClN3+
152.0618	1	C12H8+
163.0306	1	C10H8Cl+
164.0386	10	C10H9Cl+
181.0641	1	C13H9O+
187.0309	5	C12H8Cl+
188.0385	8	C12H9Cl+
223.0076	9	C12H9Cl2+
251.0023	999	C13H9Cl2O+
256.0633	1	C14H11ClN3+
261.9936	2	C14H8Cl2O+
263.0022	1	C14H9Cl2O+
264.9817	34	C13H7Cl2O2+
273.0314	1	C15H10ClO3+
291.0338	16	C16H13Cl2O+
323.0233	12	C16H13Cl2O3+
337.0368	2	C15H13Cl2N3O2+
