Mass spectrum: MCLR; LC-ESI-QFT; MS2; CE: 30%; R=17500; [M+H]+
Name: MCLR
Name: Microcystin LR
Name: (5R,8S,11R,12S,15S,18S,19S,22R)-15-[3-(diaminomethylideneamino)propyl]-18-[(1E,3E,5S,6S)-6-methoxy-3,5-dimethyl-7-phenylhepta-1,3-dienyl]-1,5,12,19-tetramethyl-2-methylidene-8-(2-methylpropyl)-3,6,9,13,16,20,25-heptaoxo-1,4,7,10,14,17,21-heptazacyclopentacosane-11,22-dicarboxylic acid
Class: NA
Formula: C49H74N10O12
Exact mass: 994.5488
SMILES: CO[C@@H](Cc1ccccc1)[C@@H](C)/C=C(C)/C=C/[C@@H]2NC(=O)[C@H](CCCNC(N)=N)NC(=O)[C@@H](C)[C@@H](NC(=O)[C@H](CC(C)C)NC(=O)[C@@H](C)NC(=O)C(=C)N(C)C(=O)CC[C@@H](NC(=O)[C@H]2C)C(O)=O)C(O)=O
InChI: InChI=1S/C49H74N10O12/c1-26(2)23-37-46(66)58-40(48(69)70)30(6)42(62)55-35(17-14-22-52-49(50)51)45(65)54-34(19-18-27(3)24-28(4)38(71-10)25-33-15-12-11-13-16-33)29(5)41(61)56-36(47(67)68)20-21-39(60)59(9)32(8)44(64)53-31(7)43(63)57-37/h11-13,15-16,18-19,24,26,28-31,34-38,40H,8,14,17,20-23,25H2,1-7,9-10H3,(H,53,64)(H,54,65)(H,55,62)(H,56,61)(H,57,63)(H,58,66)(H,67,68)(H,69,70)(H4,50,51,52)/b19-18+,27-24+/t28-,29-,30-,31+,34-,35-,36+,37-,38-,40+/m0/s1
Instrument: Q Exactive Plus Orbitrap Thermo Scientific
Instrument type: LC-ESI-QFT
Ms type: MS2
Ion mode: POSITIVE
Ionization: ESI
Fragmentation mode: HCD
Collision energy: 30 % (nominal)
Resolution: 17500
Column name: XBridge C18 3.5um, 2.1x50mm, Waters
Retention time: 8.590 min
Base peak: 498.282
Precursor m/z: 995.556
Precursor type: [M+H]+
m/z	relative intensity	assigned
70.0651	31	C4H8N+
84.0445	8	C4H6NO+
86.0964	56	C5H12N+
91.0544	5	C7H7+
103.054	8	C8H7+
105.0701	7	C8H9+
107.0854	43	C8H11+
112.0869	44	C5H10N3+
113.0711	8	C5H9N2O+
115.0865	8	C5H11N2O+
117.0697	3	C9H9+
124.1124	8	C8H14N+
127.0866	18	C6H11N2O+
131.0856	5	C10H11+
135.0803	127	C9H11O+
135.1167	40	C10H15+
138.0548	4	C7H8NO2+
139.098	6	C6H11N4+
140.0819	5	C6H10N3O+
143.0857	3	C11H11+
155.0814	55	C7H11N2O2+
156.1243	27	C6H14N5+
157.1083	43	C6H13N4O+
158.0928	8	C6H12N3O2+
161.0958	7	C11H13O+
163.1116	77	C11H15O+
167.0818	6	C8H11N2O2+
174.135	88	C6H16N5O+
183.088	3	C7H11N4O2+
195.0766	14	C9H11N2O3+
198.1241	4	C9H16N3O2+
200.1145	33	C7H14N5O2+
201.099	6	C9H15NO4+
210.1357	3	C11H18N2O2+
213.0872	103	C9H13N2O4+
218.1542	13	H22N6O7+
225.1351	6	C10H17N4O2+
226.1183	12	C10H16N3O3+
226.159	9	C16H20N+
237.1251	11	H21N4O10+
237.164	18	C18H21+
239.0655	12	C8H9N5O4+
240.147	10	C12H20N2O3+
241.1297	21	C10H17N4O3+
244.1293	23	C10H18N3O4+
251.1148	4	C13H17NO4+
257.1721	6	C10H21N6O2+
258.1574	8	C12H22N2O4+
258.1864	27	C3H26N6O7+
265.1592	14	C5H23N5O7+
267.1571	7	C13H21N3O3+
268.1404	15	C11H18N5O3+
268.1668	32	C15H24O4+
269.1253	45	C12H13N8+
285.1673	55	C11H21N6O3+
286.1505	46	C11H20N5O4+
286.1755	5	C13H24N3O4+
292.1544	12	C16H22NO4+
303.1776	28	C11H23N6O4+
310.1033	3	C12H10N10O+
329.1863	9	C5H27N7O9+
339.2033	7	C2H29N9O10+
347.1965	26	C19H27N2O4+
357.2156	3	C19H27N5O2+
375.1915	107	C20H27N2O5+
381.2253	7	C18H25N10+
382.2078	30	C16H32NO9+
396.2248	4	C4H32N10O11+
397.2089	21	C4H31N9O12+
399.2346	20	C17H31N6O5+
446.2282	31	C22H26N10O+
448.2562	2	C8H36N10O11+
452.2613	5	C20H34N7O5+
470.268	30	C15H36N9O8+
477.2397	6	C29H29N6O+
488.3242	17	C27H38N9+
492.2914	3	C21H36N10O4+
514.3044	4	C15H44N7O12+
525.3168	16	C26H39N9O3+
535.2992	15	C40H39O+
536.2811	18	C22H36N10O6+
552.3249	50	C38H40N4+
553.3089	88	C38H39N3O+
570.3362	44	C25H50N2O12+
571.3611	40	C31H43N10O+
598.3703	5	C30H52N3O9+
599.3551	80	C31H47N6O6+
619.3236	6	C47H41N+
682.3913	17	C34H56N3O11+
700.4044	5	C37H56N4O9+
710.3858	18	C34H50N10O7+
725.3552	22	C42H45N8O4+
816.466	6	C44H62N7O8+
844.4538	36	C49H60N6O7+
861.4823	44	C40H65N10O11+
865.5288	37	C44H69N10O8+
866.5141	14	C44H68N9O9+
883.5415	5	C46H73N7O10+
884.524	10	C44H70N9O10+
906.5441	5	C47H72N9O9+
910.5027	48	C45H68N9O11+
923.5715	39	C47H75N10O9+
933.5489	6	C45H75N9O12+
949.5497	14	C48H73N10O10+
950.5332	25	C48H72N9O11+
951.5639	16	C48H75N10O10+
963.5302	6	C48H71N10O11+
967.5602	140	C48H75N10O11+
977.5451	45	C49H73N10O11+
978.5293	34	C49H72N9O12+
995.5553	999	C49H75N10O12+
