Mass spectrum: Phenylbutazone; LC-ESI-QFT; MS2; CE: 120; R=35000; [M+H]+
Name: Phenylbutazone
Name: 4-butyl-1,2-diphenylpyrazolidine-3,5-dione
Formula: C19H20N2O2
Exact mass: 308.15248
SMILES: CCCCC1C(=O)N(N(C1=O)C2=CC=CC=C2)C3=CC=CC=C3
InChI: InChI=1S/C19H20N2O2/c1-2-3-14-17-18(22)20(15-10-6-4-7-11-15)21(19(17)23)16-12-8-5-9-13-16/h4-13,17H,2-3,14H2,1H3
Instrument: Q Exactive Plus Orbitrap Thermo Scientific
Instrument type: LC-ESI-QFT
Ms type: MS2
Ion mode: POSITIVE
Ionization: ESI
Fragmentation mode: HCD
Collision energy: 120 (nominal)
Resolution: 35000
Column name: XBridge C18 3.5um, 2.1x50mm, Waters
Retention time: 11.3 min
Base peak: 309.1591
Precursor m/z: 309.1598
Precursor type: [M+H]+
m/z	relative intensity	assigned
50.0152	92	C4H2+
51.023	107	C4H3+
52.0181	1	C3H2N+
52.0307	1	C4H4+
53.0022	34	C3HO+
53.0386	276	C4H5+
53.9975	8	C2NO+
54.0339	8	C3H4N+
54.0464	1	C4H6+
55.0179	119	C3H3O+
55.0543	23	C4H7+
56.0495	1	C3H6N+
57.07	3	C4H9+
63.0229	13	C5H3+
64.0308	12	C5H4+
65.0386	999	C5H5+
66.0464	77	C5H6+
67.0417	4	C4H5N+
67.0542	27	C5H7+
67.9893	8	C3O2+
68.0131	17	C3H2NO+
68.0496	3	C4H6N+
68.9971	7	C3HO2+
69.0699	7	C5H9+
75.0229	8	C6H3+
77.0386	579	C6H5+
78.0338	17	C5H4N+
78.0464	44	C6H6+
79.0417	10	C5H5N+
79.0542	58	C6H7+
80.0495	9	C5H6N+
81.0335	33	C5H5O+
82.0651	4	C5H8N+
83.0491	3	C5H7O+
89.0386	29	C7H5+
90.0339	1	C6H4N+
90.0465	16	C7H6+
91.0417	16	C6H5N+
91.0543	90	C7H7+
92.0495	255	C6H6N+
93.0336	11	C6H5O+
93.0574	128	C6H7N+
94.0414	49	C6H6O+
94.0652	139	C6H8N+
95.0492	785	C6H7O+
96.0444	15	C5H6NO+
96.0807	1	C6H10N+
101.0388	2	C8H5+
102.034	3	C7H4N+
102.0465	1	C8H6+
103.0543	18	C8H7+
104.0495	118	C7H6N+
105.0448	605	C6H5N2+
106.0288	12	C6H4NO+
106.0526	9	C6H6N2+
106.0652	73	C7H8N+
107.0491	2	C7H7O+
109.0649	4	C7H9O+
110.0601	1	C6H8NO+
111.0441	4	C6H7O2+
115.0543	28	C9H7+
116.0495	8	C8H6N+
116.062	2	C9H8+
117.0573	42	C8H7N+
118.0652	98	C8H8N+
119.0363	1	C7H5NO+
119.0492	3	C8H7O+
119.073	1	C8H9N+
120.0445	8	C7H6NO+
120.0807	3	C8H10N+
128.0495	27	C9H6N+
128.0621	9	C10H8+
129.0447	12	C8H5N2+
129.0698	4	C10H9+
130.0399	9	C7H4N3+
130.0652	62	C9H8N+
131.0607	7	C8H7N2+
131.0729	4	C9H9N+
132.0445	18	C8H6NO+
132.0809	4	C9H10N+
133.0523	36	C8H7NO+
134.0474	1	C7H6N2O+
134.06	1	C8H8NO+
139.0543	9	C11H7+
140.0496	17	C10H6N+
141.0701	1	C11H9+
142.0649	1	C10H8N+
143.073	6	C10H9N+
144.0444	2	C9H6NO+
144.0808	12	C10H10N+
145.0651	1	C10H9O+
145.0762	1	C9H9N2+
146.0602	17	C9H8NO+
152.0623	3	C12H8+
154.0651	8	C11H8N+
155.0604	5	C10H7N2+
156.0809	2	C11H10N+
158.0601	1	C10H8NO+
162.0549	1	C9H8NO2+
166.0653	11	C12H8N+
167.0731	28	C12H9N+
168.0813	7	C12H10N+
169.0645	1	C12H9O+
180.0808	6	C13H10N+
181.0761	66	C12H9N2+
182.084	11	C12H10N2+
190.0651	1	C14H8N+
192.0684	2	C13H8N2+
205.0763	8	C14H9N2+
206.0839	8	C14H10N2+
207.0921	1	C14H11N2+
