Mass spectrum: 1-(Methoxymethyl)-1H-benzotriazole; LC-ESI-QFT; MS2; CE: 15; R=35000; [M+H]+
Name: 1-(Methoxymethyl)-1H-benzotriazole
Name: 1-(methoxymethyl)benzotriazole
Formula: C8H9N3O
Exact mass: 163.07456
SMILES: n1nn(c2ccccc12)COC
InChI: InChI=1S/C8H9N3O/c1-12-6-11-8-5-3-2-4-7(8)9-10-11/h2-5H,6H2,1H3
Instrument: Q Exactive Plus Orbitrap Thermo Scientific
Instrument type: LC-ESI-QFT
Ms type: MS2
Ion mode: POSITIVE
Ionization: ESI
Fragmentation mode: HCD
Collision energy: 15 (nominal)
Resolution: 35000
Column name: XBridge C18 3.5um, 2.1x50mm, Waters
Retention time: 5.4 min
Base peak: 164.0818
Precursor m/z: 164.0818
Precursor type: [M+H]+
m/z	relative intensity	assigned
53.0386	2	C4H5+
77.0385	8	C6H5+
79.0542	2	C6H7+
91.0416	1	C6H5N+
91.0543	1	C7H7+
93.0574	5	C6H7N+
95.0492	8	C6H7O+
104.0495	157	C7H6N+
105.0448	4	C6H5N2+
106.0652	6	C7H8N+
108.0809	2	C7H10N+
118.0652	2	C8H8N+
120.0445	5	C7H6NO+
121.0523	38	C7H7NO+
132.0557	352	C7H6N3+
134.0713	999	C7H8N3+
136.0759	2	C8H10NO+
164.082	596	C8H10N3O+
