Mass spectrum: Capecitabine; LC-ESI-QFT; MS2; CE: 30; R=35000; [M-H]-
Name: Capecitabine
Name: (1-(5-Deoxy-beta-D-ribofuranosyl)-5-fluoro-1,2-dihydro-2-oxo-4-pyrimidinyl)-carbamic acid pentyl ester
Name: N-[1-[(2R,3R,4S,5R)-3,4-dihydroxy-5-methyl-2-oxolanyl]-5-fluoro-2-oxo-4-pyrimidinyl]carbamic acid pentyl ester
Formula: C15H22FN3O6
Exact mass: 359.14926
SMILES: FC=1\C(=N/C(=O)N(C=1)[C@@H]2O[C@@H]([C@@H](O)[C@H]2O)C)\NC(=O)OCCCCC
InChI: InChI=1S/C15H22FN3O6/c1-3-4-5-6-24-15(23)18-12-9(16)7-19(14(22)17-12)13-11(21)10(20)8(2)25-13/h7-8,10-11,13,20-21H,3-6H2,1-2H3,(H,17,18,22,23)/t8-,10-,11-,13-/m1/s1
Instrument: Q Exactive Orbitrap Thermo Scientific
Instrument type: LC-ESI-QFT
Ms type: MS2
Ion mode: NEGATIVE
Ionization: ESI
Fragmentation mode: HCD
Collision energy: 30 (nominal)
Resolution: 35000
Column name: XBridge C18 3.5um, 2.1x50mm, Waters
Retention time: 7.8 min
Base peak: 358.1422
Precursor m/z: 358.142
Precursor type: [M-H]-
m/z	relative intensity	assigned
84.0256	4	C4H3FN-
87.0816	1	C5H11O-
106.0174	1	C5H2N2O-
107.0251	8	C5H3N2O-
111.0001	1	C4FN2O-
113.0158	4	C4H2FN2O-
125.0156	14	C5H2FN2O-
127.0314	6	C5H4FN2O-
129.0108	8	C4H2FN2O2-
135.0204	2	C6H3N2O2-
136.0153	4	C5H2N3O2-
141.0107	3	C5H2FN2O2-
148.0153	3	C6H2N3O2-
150.0071	1	C6H2N2O3-
153.0107	74	C6H2FN2O2-
154.0058	999	C5HFN3O2-
155.0826	22	C7H11N2O2-
156.0214	4	C5H3FN3O2-
163.0151	1	C7H3N2O3-
164.0101	3	C6H2N3O3-
170.0133	1	C6H3FN2O3-
176.01	7	C7H2N3O3-
196.0164	14	C7H3FN3O3-
199.0888	39	C9H12FN2O2-
209.0934	1	C10H13N2O3-
221.0931	32	C11H13N2O3-
241.0989	8	C11H14FN2O3-
242.0946	43	C10H13FN3O3-
284.1051	47	C12H15FN3O4-
315.1363	1	C14H20FN2O5-
358.142	138	C15H21FN3O6-
