Mass spectrum: Nicosulfuron-TP UCSN; LC-ESI-QFT; MS2; CE: 150%; R=17500; [M-H]-
Name: Nicosulfuron-TP UCSN
Name: 2-[(Carbamoylcarbamoyl)sulfamoyl]-N,N-dimethylnicotinamide
Formula: C10H13N5O5S
Exact mass: 315.0637
SMILES: CN(C)C(=O)C1=CC=CN=C1S(=O)(=O)NC(=O)NC(N)=O
InChI: InChI=1S/C10H13N5O5S/c1-15(2)8(16)6-4-3-5-12-7(6)21(19,20)14-10(18)13-9(11)17/h3-5H,1-2H3,(H4,11,13,14,17,18)
Instrument: Q Exactive Plus Orbitrap Thermo Scientific
Instrument type: LC-ESI-QFT
Ms type: MS2
Ion mode: NEGATIVE
Ionization: ESI
Fragmentation mode: HCD
Collision energy: 150 % (nominal)
Resolution: 17500
Column name: XBridge C18 3.5um, 2.1x50mm, Waters
Retention time: 1.525 min
Base peak: 314.0565
Precursor m/z: 314.0565
Precursor type: [M-H]-
m/z	relative intensity	assigned
50.0034	96	C3N-
61.9706	521	NOS-
63.9625	999	O2S-
66.0348	68	C4H4N-
74.0036	53	C5N-
77.9656	411	NO2S-
78.9734	146	HNO2S-
91.0302	84	C5H3N2-
93.0455	47	C5H5N2-
94.0297	179	C5H4NO-
