Mass spectrum: Rosuvastatin; LC-ESI-ITFT; MS2; CE: 35%; R=7500; [M-H]-
Name: Rosuvastatin
Name: (E,3R,5S)-7-[4-(4-fluorophenyl)-2-[methyl(methylsulfonyl)amino]-6-propan-2-ylpyrimidin-5-yl]-3,5-dihydroxyhept-6-enoic acid
Formula: C22H28FN3O6S
Exact mass: 481.16828
SMILES: CC(C)C1=NC(=NC(=C1/C=C/[C@H](C[C@H](CC(=O)O)O)O)C2=CC=C(C=C2)F)N(C)S(=O)(=O)C
InChI: InChI=1S/C22H28FN3O6S/c1-13(2)20-18(10-9-16(27)11-17(28)12-19(29)30)21(14-5-7-15(23)8-6-14)25-22(24-20)26(3)33(4,31)32/h5-10,13,16-17,27-28H,11-12H2,1-4H3,(H,29,30)/b10-9+/t16-,17-/m1/s1
Instrument: LTQ Orbitrap XL Thermo Scientific
Instrument type: LC-ESI-ITFT
Ms type: MS2
Ion mode: NEGATIVE
Ionization: ESI
Fragmentation mode: CID
Collision energy: 35 % (nominal)
Resolution: 7500
Column name: XBridge C18 3.5um, 2.1x50mm, Waters
Retention time: 9.2 min
Base peak: 480.1602
Precursor m/z: 480.161
Precursor type: [M-H]-
m/z	relative intensity	assigned
296.1194	7	C14H20N2O3S-
297.1263	2	C20H15N3-
298.1361	9	C17H17FN3O-
312.1513	35	C15H24N2O3S-
314.1677	3	C18H21FN3O-
320.177	9	C20H22N3O-
322.1026	13	C15H17FN3O2S-
323.1563	14	
338.1669	33	C17H26N2O3S-
340.1823	39	C20H23FN3O-
348.1168	2	C20H18N3OS-
374.1339	4	C19H21FN3O2S-
376.1128	45	C21H18N3O2S-
377.1189	3	C21H19N3O2S-
392.1442	95	C22H22N3O2S-
398.1537	98	C21H24N3O3S-
400.1495	4	C21H23FN3O2S-
402.1287	13	C20H21FN3O3S-
418.16	999	C21H25FN3O3S-
462.1508	11	C22H25FN3O5S-
