Mass spectrum: Fenoxycarb; LC-ESI-ITFT; MS2; CE: 90%; R=7500; [M+H]+
Name: Fenoxycarb
Name: N-[2-(4-phenoxyphenoxy)ethyl]carbamic acid ethyl ester
Formula: C17H19NO4
Exact mass: 301.1314
SMILES: O=C(OCC)NCCOc2ccc(Oc1ccccc1)cc2
InChI: InChI=1S/C17H19NO4/c1-2-20-17(19)18-12-13-21-14-8-10-16(11-9-14)22-15-6-4-3-5-7-15/h3-11H,2,12-13H2,1H3,(H,18,19)
Instrument: LTQ Orbitrap XL Thermo Scientific
Instrument type: LC-ESI-ITFT
Ms type: MS2
Ion mode: POSITIVE
Ionization: ESI
Fragmentation mode: HCD
Collision energy: 90 % (nominal)
Resolution: 7500
Column name: XBridge C18 3.5um, 2.1x50mm, Waters
Retention time: 12.6 min
Base peak: 302.1394
Precursor m/z: 302.1387
Precursor type: [M+H]+
m/z	relative intensity	assigned
53.0384	2	C4H5+
65.0387	2	C5H5+
66.0464	9	C5H6+
70.0288	36	C3H4NO+
77.0386	28	C6H5+
79.0541	5	C6H7+
81.0335	3	C5H5O+
88.0394	999	C3H6NO2+
91.0541	22	C7H7+
92.062	4	C7H8+
94.0413	26	C6H6O+
95.0496	2	C6H7O+
105.0336	13	C7H5O+
105.0448	11	C6H5N2+
107.0491	11	C7H7O+
109.0284	10	C6H5O2+
115.0542	38	C9H7+
116.0708	2	C5H10NO2+
118.0413	8	C8H6O+
119.0496	3	C8H7O+
120.057	12	C8H8O+
128.062	15	C10H8+
129.0699	29	C10H9+
131.049	2	C9H7O+
134.0361	3	C8H6O2+
139.0541	3	C11H7+
141.0698	33	C11H9+
152.0621	10	C12H8+
155.0603	6	C10H7N2+
157.0646	15	C11H9O+
158.072	6	C11H10O+
165.0697	10	C13H9+
168.0567	3	C12H8O+
169.064	3	C12H9O+
181.0644	1	C13H9O+
185.059	3	C12H9O2+
186.0676	15	C12H10O2+
