Mass spectrum: Imatinib; LC-ESI-QFT; MS2; CE: 30; R=35000; [M+H]+
Name: Imatinib
Name: 4-[(4-methylpiperazin-1-yl)methyl]-N-[4-methyl-3-[(4-pyridin-3-ylpyrimidin-2-yl)amino]phenyl]benzamide
Formula: C29H31N7O
Exact mass: 493.25901
SMILES: CC1=C(C=C(C=C1)NC(=O)C2=CC=C(C=C2)CN3CCN(CC3)C)NC4=NC=CC(=N4)C5=CN=CC=C5
InChI: InChI=1S/C29H31N7O/c1-21-5-10-25(18-27(21)34-29-31-13-11-26(33-29)24-4-3-12-30-19-24)32-28(37)23-8-6-22(7-9-23)20-36-16-14-35(2)15-17-36/h3-13,18-19H,14-17,20H2,1-2H3,(H,32,37)(H,31,33,34)
Instrument: Q Exactive Plus Orbitrap Thermo Scientific
Instrument type: LC-ESI-QFT
Ms type: MS2
Ion mode: POSITIVE
Ionization: ESI
Fragmentation mode: HCD
Collision energy: 30 (nominal)
Resolution: 35000
Column name: XBridge C18 3.5um, 2.1x50mm, Waters
Retention time: 5.8 min
Base peak: 247.6364
Precursor m/z: 494.2663
Precursor type: [M+H]+
m/z	relative intensity	assigned
56.0494	3	C3H6N+
58.0651	6	C3H8N+
70.065	14	C4H8N+
72.0806	1	C4H10N+
84.0682	1	C4H8N2+
97.076	12	C5H9N2+
98.0838	20	C5H10N2+
99.0916	88	C5H11N2+
100.0994	8	C5H12N2+
101.1072	1	C5H13N2+
105.0332	1	C7H5O+
109.076	3	C6H9N2+
111.0916	14	C6H11N2+
112.0994	2	C6H12N2+
119.0491	12	C8H7O+
131.0603	1	C8H7N2+
135.0915	1	C8H11N2+
158.06	1	C10H8NO+
174.0914	6	C11H12NO+
189.1385	25	C12H17N2+
217.1335	282	C13H17N2O+
221.1076	1	C15H13N2+
222.0913	11	C15H12NO+
223.0991	1	C15H13NO+
264.1127	3	C16H14N3O+
265.0971	4	C16H13N2O2+
290.1286	3	C18H16N3O+
351.1596	3	C23H19N4+
377.1395	6	C24H17N4O+
378.135	1	C23H16N5O+
379.1424	5	C23H17N5O+
393.158	1	C24H19N5O+
394.1662	999	C24H20N5O+
396.1814	7	C24H22N5O+
437.2077	1	C26H25N6O+
476.2559	29	C29H30N7+
494.2665	279	C29H32N7O+
