Mass spectrum: Irbesartan; LC-ESI-ITFT; MS2; CE: 35%; R=7500; [M-H]-
Name: Irbesartan
Name: 8-butyl-7-[4-[2-(2H-tetrazol-5-yl)phenyl]benzyl]-7,9-diazaspiro[4.4]non-8-en-6-one
Formula: C25H28N6O
Exact mass: 428.2325
SMILES: C12(C(N(Cc3ccc(c4c(c5[nH]nnn5)cccc4)cc3)C(=N1)CCCC)=O)CCCC2
InChI: InChI=1S/C25H28N6O/c1-2-3-10-22-26-25(15-6-7-16-25)24(32)31(22)17-18-11-13-19(14-12-18)20-8-4-5-9-21(20)23-27-29-30-28-23/h4-5,8-9,11-14H,2-3,6-7,10,15-17H2,1H3,(H,27,28,29,30)
Instrument: LTQ Orbitrap XL Thermo Scientific
Instrument type: LC-ESI-ITFT
Ms type: MS2
Ion mode: NEGATIVE
Ionization: ESI
Fragmentation mode: CID
Collision energy: 35 % (nominal)
Resolution: 7500
Column name: XBridge C18 3.5um, 2.1x50mm, Waters
Retention time: 9.3 min
Base peak: 427.2243
Precursor m/z: 427.2252
Precursor type: [M-H]-
m/z	relative intensity	assigned
138.0799	1	C7H10N2O-
164.0953	6	C9H12N2O-
175.1248	2	C11H15N2-
177.0711	9	C14H9-
193.1346	999	C11H17N2O-
195.0811	1	C14H11O-
259.1368	3	C19H17N-
260.1456	3	C19H18N-
287.1553	31	C20H19N2-
353.2023	17	C25H25N2-
371.2127	57	C25H27N2O-
399.219	853	C25H27N4O-
