Mass spectrum: Ranitidine N-oxide; LC-ESI-ITFT; MS2; CE: 75%; R=7500; [M+H]+
Name: Ranitidine N-oxide
Name: 1,1-Ethenediamine, N-(2-(((5-((dimethylamino)methyl)-2-furanyl)methyl)thio)ethyl)-N'-methyl-2-nitro-, N-oxide
Formula: C13H22N4O4S
Exact mass: 330.1362
SMILES: c1(oc(CSCCN\C(=C\[N+](=O)[O-])NC)cc1)CN(C)(C)=O
InChI: InChI=1S/C13H22N4O4S/c1-14-13(8-16(18)19)15-6-7-22-10-12-5-4-11(21-12)9-17(2,3)20/h4-5,8,14-15H,6-7,9-10H2,1-3H3/b13-8+
Instrument: LTQ Orbitrap XL Thermo Scientific
Instrument type: LC-ESI-ITFT
Ms type: MS2
Ion mode: POSITIVE
Ionization: ESI
Fragmentation mode: HCD
Collision energy: 75 % (nominal)
Resolution: 7500
Column name: XBridge C18 3.5um, 2.1x50mm, Waters
Retention time: 2.4 min
Base peak: 331.1444
Precursor m/z: 331.1435
Precursor type: [M+H]+
m/z	relative intensity	assigned
55.0416	24	C3H5N+
56.0495	46	C3H6N+
57.0445	17	C2H5N2+
61.0107	28	C2H5S+
71.0607	17	C3H7N2+
81.0335	489	C5H5O+
83.0603	36	C4H7N2+
94.0648	18	C6H8N+
95.0492	38	C6H7O+
97.076	431	C5H9N2+
98.0838	184	C5H10N2+
102.0372	999	C4H8NS+
107.0491	185	C7H7O+
115.0328	18	C4H7N2S+
117.0484	33	C4H9N2S+
118.0653	24	C8H8N+
120.0811	28	C8H10N+
121.076	100	C7H9N2+
124.0763	32	C7H10NO+
125.0055	682	C6H5OS+
129.0481	46	C5H9N2S+
130.0558	184	C5H10N2S+
132.0441	74	H10N3O3S+
133.0523	33	C8H7NO+
134.0605	16	C8H8NO+
135.0917	157	C8H11N2+
147.0675	19	C9H9NO+
148.0756	190	C9H10NO+
149.0707	44	C8H9N2O+
151.0205	15	C8H7OS+
163.0861	72	CH15N4O3S+
164.0936	23	CH16N4O3S+
167.0643	19	C8H11N2S+
177.1019	96	C10H13N2O+
178.0315	44	C9H8NOS+
191.1172	36	C11H15N2O+
192.0476	23	C10H10NOS+
270.0958	28	C10H14N4O5+
