Mass spectrum: Cefazolin; LC-ESI-QFT; MS2; CE: 45; R=35000; [M-H]-
Name: Cefazolin
Name: 3-[(5-methyl-1,3,4-thiadiazol-2-yl)sulfanylmethyl]-8-oxo-7-[[2-(tetrazol-1-yl)acetyl]amino]-5-thia-1-azabicyclo[4.2.0]oct-2-ene-2-carboxylic acid
Formula: C14H14N8O4S3
Exact mass: 454.03001
SMILES: CC1=NN=C(S1)SCC2=C(N3C(C(C3=O)NC(=O)CN4C=NN=N4)SC2)C(=O)O
InChI: InChI=1S/C14H14N8O4S3/c1-6-17-18-14(29-6)28-4-7-3-27-12-9(11(24)22(12)10(7)13(25)26)16-8(23)2-21-5-15-19-20-21/h5,9,12H,2-4H2,1H3,(H,16,23)(H,25,26)
Instrument: Q Exactive Plus Orbitrap Thermo Scientific
Instrument type: LC-ESI-QFT
Ms type: MS2
Ion mode: NEGATIVE
Ionization: ESI
Fragmentation mode: HCD
Collision energy: 45 (nominal)
Resolution: 35000
Column name: XBridge C18 3.5um, 2.1x50mm, Waters
Retention time: 4.4 min
Base peak: 321.0411
Precursor m/z: 453.0227
Precursor type: [M-H]-
m/z	relative intensity	assigned
56.9805	4	C2HS-
57.9757	394	CNS-
60.9754	6	CHOS-
65.0146	3	C3HN2-
69.0208	999	CHN4-
80.0256	4	C3H2N3-
89.9478	23	CNS2-
96.9992	16	C4H3NS-
97.0118	28	C5H5S-
98.0072	7	C4H4NS-
98.0361	26	C3H4N3O-
104.038	29	C6H4N2-
105.0461	5	C6H5N2-
109.0043	26	C4HN2O2-
109.0158	15	C3HN4O-
110.0071	7	C5H4NS-
110.0124	14	C4H2N2O2-
112.0229	7	C5H6NS-
117.0459	26	C7H5N2-
122.0072	32	C6H4NS-
123.015	30	C6H5NS-
124.0227	47	C6H6NS-
130.9744	347	C3H3N2S2-
133.0409	71	C7H5N2O-
136.0102	18	C6H4N2S-
136.0227	13	C7H6NS-
137.018	76	C6H5N2S-
140.0177	14	C6H6NOS-
140.9892	34	C5H3NO2S-
143.0032	11	C3H3N4OS-
144.057	4	C8H6N3-
148.0103	4	C7H4N2S-
151.0339	4	C7H7N2S-
163.0339	13	C2H13NO3S2-
165.013	25	C7H5N2OS-
167.0287	138	C7H7N2OS-
168.0127	14	C7H6NO2S-
173.0361	5	C2H5N8S-
174.0436	94	C9H6N2O2-
179.0288	15	C8H7N2OS-
207.0236	14	C9H7N2O2S-
209.9808	3	CH10N2O4S3-
