Mass spectrum: Trimipramine N-Oxide; LC-ESI-QFT; MS2; CE: 15; R=35000; [M+H]+
Name: Trimipramine N-Oxide
Name: Trimipramine N-oxide, (+/-)-
Name: 3-(5,6-dihydrobenzo[b][1]benzazepin-11-yl)-N,N,2-trimethylpropan-1-amine oxide
Formula: C20H26N2O
Exact mass: 310.20451
SMILES: CC(CN1C2=CC=CC=C2CCC3=CC=CC=C31)C[N+](C)(C)[O-]
InChI: InChI=1S/C20H26N2O/c1-16(15-22(2,3)23)14-21-19-10-6-4-8-17(19)12-13-18-9-5-7-11-20(18)21/h4-11,16H,12-15H2,1-3H3
Instrument: Q Exactive Plus Orbitrap Thermo Scientific
Instrument type: LC-ESI-QFT
Ms type: MS2
Ion mode: POSITIVE
Ionization: ESI
Fragmentation mode: HCD
Collision energy: 15 (nominal)
Resolution: 35000
Column name: XBridge C18 3.5um, 2.1x50mm, Waters
Retention time: 8.9 min
Base peak: 311.2114
Precursor m/z: 311.2118
Precursor type: [M+H]+
m/z	relative intensity	assigned
58.065	7	C3H8N+
71.0728	1	C4H9N+
86.0964	19	C5H12N+
100.1121	3	C6H14N+
116.1069	719	C6H14NO+
193.0882	2	C14H11N+
195.1038	2	C14H13N+
208.1118	35	C15H14N+
226.1226	4	C15H16NO+
249.1509	1	C18H19N+
250.159	51	C18H20N+
311.2117	999	C20H27N2O+
