Mass spectrum: Pyrimethamine; LC-ESI-QFT; MS2; CE: 45%; R=15000; [M+H]+
Name: Pyrimethamine
Name: 5-(4-chlorophenyl)-6-ethylpyrimidine-2,4-diamine
Formula: C12H13ClN4
Exact mass: 248.0828741
SMILES: CCC1=NC(N)=NC(N)=C1C1=CC=C(Cl)C=C1
InChI: InChI=1S/C12H13ClN4/c1-2-9-10(11(14)17-12(15)16-9)7-3-5-8(13)6-4-7/h3-6H,2H2,1H3,(H4,14,15,16,17)
Instrument: Q Exactive Plus
Instrument type: LC-ESI-QFT
Ms type: MS2
Ion mode: POSITIVE
Ionization: ESI
Fragmentation mode: HCD
Collision energy: 45 % (nominal)
Resolution: 15000
Column name: XBridge C18 3.5um, 2.1x50mm, Waters
Retention time: 5.158 min
Base peak: 249.0903
Precursor m/z: 249.0902
Precursor type: [M+H]+
Precursor intensity: 1238556926.84
m/z	relative intensity	assigned
177.0214	74	C9H6ClN2+
207.0686	13	C11H12ClN2+
233.0588	70	C11H10ClN4+
234.0669	17	C11H11ClN4+
249.0901	999	C12H14ClN4+
