Mass spectrum: Clozapine; LC-ESI-ITFT; MS2; CE: 30%; R=7500; [M+H]+
Name: Clozapine
Name: 8-chloro-11-(4-methylpiperazin-1-yl)-5H-dibenzo[b,e][1,4]diazepine
Formula: C18H19ClN4
Exact mass: 326.1298
SMILES: C1(=Nc2c(Nc3c1cccc3)ccc(c2)Cl)N1CCN(CC1)C
InChI: InChI=1S/C18H19ClN4/c1-22-8-10-23(11-9-22)18-14-4-2-3-5-15(14)20-16-7-6-13(19)12-17(16)21-18/h2-7,12,20H,8-11H2,1H3
Instrument: LTQ Orbitrap XL Thermo Scientific
Instrument type: LC-ESI-ITFT
Ms type: MS2
Ion mode: POSITIVE
Ionization: ESI
Fragmentation mode: HCD
Collision energy: 30 % (nominal)
Resolution: 7500
Column name: XBridge C18 3.5um, 2.1x50mm, Waters
Retention time: 6.4 min
Base peak: 327.1383
Precursor m/z: 327.1371
Precursor type: [M+H]+
m/z	relative intensity	assigned
84.0809	50	C5H10N+
85.0762	3	C4H9N2+
270.0793	502	C15H13ClN3+
296.0951	30	C17H15ClN3+
327.1376	999	C18H20ClN4+
