Mass spectrum: Metaxalone; LC-ESI-QFT; MS2; CE: 75; R=35000; [M+H]+
Name: Metaxalone
Name: Methaxalonum
Name: 5-[(3,5-dimethylphenoxy)methyl]-1,3-oxazolidin-2-one
Formula: C12H15NO3
Exact mass: 221.10519
SMILES: CC1=CC(OCC2CNC(=O)O2)=CC(C)=C1
InChI: InChI=1S/C12H15NO3/c1-8-3-9(2)5-10(4-8)15-7-11-6-13-12(14)16-11/h3-5,11H,6-7H2,1-2H3,(H,13,14)
Instrument: Q Exactive Orbitrap Thermo Scientific
Instrument type: LC-ESI-QFT
Ms type: MS2
Ion mode: POSITIVE
Ionization: ESI
Fragmentation mode: HCD
Collision energy: 75 (nominal)
Resolution: 35000
Column name: XBridge C18 3.5um, 2.1x50mm, Waters
Retention time: 8.1 min
Base peak: 222.1126
Precursor m/z: 222.1125
Precursor type: [M+H]+
m/z	relative intensity	assigned
53.0387	60	C4H5+
55.018	237	C3H3O+
55.0543	69	C4H7+
56.0496	999	C3H6N+
67.0543	38	C5H7+
74.0236	69	C2H4NO2+
79.0543	467	C6H7+
91.0543	255	C7H7+
93.07	43	C7H9+
95.0491	133	C6H7O+
103.0542	134	C8H7+
105.07	830	C8H9+
115.0545	52	C9H7+
117.07	46	C9H9+
119.0856	117	C9H11+
123.0804	71	C8H11O+
131.0494	45	C9H7O+
131.0857	177	C10H11+
133.1013	198	C10H13+
135.0803	109	C9H11O+
146.0727	214	C10H10O+
