Mass spectrum: Captan; LC-ESI-QFT; MS2; CE: 30; R=35000; [M+H]+
Name: Captan
Name: 1,2,3,6-tetrahydro-N-(trichloromethylthio)phthalimide
Name: (3aS,7aR)-2-(trichloromethylsulfanyl)-3a,4,7,7a-tetrahydroisoindole-1,3-dione
Formula: C9H8Cl3NO2S
Exact mass: 298.93413
SMILES: N1(C([C@@H]2CC=CC[C@@H]2C1=O)=O)SC(Cl)(Cl)Cl
InChI: InChI=1S/C9H8Cl3NO2S/c10-9(11,12)16-13-7(14)5-3-1-2-4-6(5)8(13)15/h1-2,5-6H,3-4H2/t5-,6+
Instrument: Q Exactive Orbitrap Thermo Scientific
Instrument type: LC-ESI-QFT
Ms type: MS2
Ion mode: POSITIVE
Ionization: ESI
Fragmentation mode: HCD
Collision energy: 30 (nominal)
Resolution: 35000
Column name: XBridge C18 3.5um, 2.1x50mm, Waters
Retention time: 9.4 min
Base peak: 149.0234
Precursor m/z: 299.9414
Precursor type: [M+H]+
m/z	relative intensity	assigned
57.0699	5	C4H9+
59.0493	1	C3H7O+
63.9948	1	CH3ClN+
66.9403	26	ClS+
69.0698	3	C5H9+
77.0383	4	C6H5+
79.0542	999	C6H7+
80.9561	2	CH2ClS+
81.0699	26	C6H9+
89.0597	15	C4H9O2+
91.0542	14	C7H7+
93.9514	12	CHClNS+
94.9353	228	CClOS+
95.0491	11	C6H7O+
95.9669	30	CH3ClNS+
96.0443	3	C5H6NO+
97.9558	19	CH2Cl2N+
98.9666	2	CH4ClOS+
104.0494	33	C7H6N+
105.0335	4	C7H5O+
105.0573	3	C7H7N+
106.0651	605	C7H8N+
107.0491	15	C7H7O+
109.0106	14	C6H5S+
111.0263	22	C6H7S+
113.0152	49	C6H6Cl+
114.0104	20	C5H5ClN+
114.9171	3	CHCl2S+
115.0309	7	C6H8Cl+
115.9897	2	C4H3ClNO+
116.9061	4	CCl3+
121.9462	8	C2HClNOS+
125.0152	87	C7H6Cl+
127.0309	46	C7H8Cl+
129.928	68	CH2Cl2NS+
130.9716	12	C5H4ClS+
131.967	45	C4H3ClNS+
134.06	118	C8H8NO+
136.0216	159	C7H6NS+
137.0294	12	C7H7NS+
140.0261	30	C7H7ClN+
141.0339	8	C7H8ClN+
144.9874	11	C6H6ClS+
145.9827	52	C5H5ClNS+
147.0029	7	C6H8ClS+
147.9715	316	C5H4Cl2N+
155.9071	37	C2Cl2NOS+
156.9873	15	C7H6ClS+
158.9764	2	C7H5Cl2+
160.992	4	C7H7Cl2+
168.0209	2	C8H7ClNO+
171.9982	320	C7H7ClNS+
176.0027	18	C7H8Cl2N+
179.9436	465	C5H4Cl2NS+
181.9228	19	C4H2Cl2NOS+
199.9934	4	C8H7ClNOS+
203.9979	131	C8H8Cl2NO+
207.975	99	C7H8Cl2NS+
235.9698	830	C8H8Cl2NOS+
263.9648	231	C9H8Cl2NO2S+
