Mass spectrum: Flumorph; LC-ESI-QFT; MS2; CE: 90%; R=17500; [M+H]+
Name: Flumorph
Name: Fumalin
Name: 3-(3,4-dimethoxyphenyl)-3-(4-fluorophenyl)-1-morpholin-4-ylprop-2-en-1-one
Formula: C21H22FNO4
Exact mass: 371.1533
SMILES: COC1=C(C=C(C=C1)C(=CC(=O)N2CCOCC2)C3=CC=C(C=C3)F)OC
InChI: InChI=1S/C21H22FNO4/c1-25-19-8-5-16(13-20(19)26-2)18(15-3-6-17(22)7-4-15)14-21(24)23-9-11-27-12-10-23/h3-8,13-14H,9-12H2,1-2H3
Instrument: Exploris 240 Orbitrap Thermo Scientific
Instrument type: LC-ESI-QFT
Ms type: MS2
Ion mode: POSITIVE
Ionization: ESI
Fragmentation mode: HCD
Collision energy: 90 % (nominal)
Resolution: 17500
Column name: XBridge C18 3.5um, 2.1x50mm, Waters
Retention time: 7.522 min
Base peak: 274.2527
Precursor m/z: 372.1606
Precursor type: [M+H]+
m/z	relative intensity	assigned
51.0228	32	C4H3+
53.0387	109	C4H5+
65.0386	38	C5H5+
66.0465	150	C5H6+
70.0287	951	C3H4NO+
77.0386	301	C6H5+
79.0542	363	C6H7+
81.07	34	C6H9+
83.0292	36	C5H4F+
92.0257	43	C6H4O+
94.0412	231	C6H6O+
95.0295	75	C6H4F+
95.0491	73	C6H7O+
109.0448	838	C7H6F+
109.0646	180	C7H9O+
113.04	86	C6H6FO+
121.0286	100	C7H5O2+
121.0453	37	C8H6F+
122.0363	409	C7H6O2+
123.0242	879	C7H4FO+
137.0597	346	C8H9O2+
150.0311	41	C8H6O3+
155.0705	72	C8H11O3+
165.0547	893	C9H9O3+
165.0695	208	C13H9+
170.0527	136	C12H7F+
171.0606	558	C12H8F+
176.0619	51	C14H8+
177.0701	74	C14H9+
182.0528	34	C13H7F+
183.0604	970	C13H8F+
184.0682	47	C13H9F+
185.0758	169	C13H10F+
195.0608	90	C14H8F+
196.0681	333	C14H9F+
197.0762	116	C14H10F+
199.0554	785	C13H8FO+
211.0554	999	C14H8FO+
212.0626	207	C14H9FO+
213.0713	201	C14H10FO+
226.0791	594	C15H11FO+
227.0507	531	C14H8FO2+
242.0737	173	C15H11FO2+
