Mass spectrum: 1-Hydroxybenzotriazole; LC-ESI-QFT; MS2; CE: 30; R=35000; [M-H]-
Name: 1-Hydroxybenzotriazole
Formula: C6H5N3O
Exact mass: 135.04326
SMILES: C1=CC=C2C(=C1)N=NN2O
InChI: InChI=1S/C6H5N3O/c10-9-6-4-2-1-3-5(6)7-8-9/h1-4,10H
Instrument: Q Exactive Plus Orbitrap Thermo Scientific
Instrument type: LC-ESI-QFT
Ms type: MS2
Ion mode: NEGATIVE
Ionization: ESI
Fragmentation mode: HCD
Collision energy: 30 (nominal)
Resolution: 35000
Column name: XBridge C18 3.5um, 2.1x50mm, Waters
Retention time: 3.0 min
Base peak: 134.0359
Precursor m/z: 134.036
Precursor type: [M-H]-
m/z	relative intensity	assigned
50.0036	1	C3N-
52.0192	9	C3H2N-
78.0349	192	C5H4N-
105.0221	9	C6H3NO-
106.0298	333	C6H4NO-
108.0218	1	C6H4O2-
122.0248	5	C6H4NO2-
134.036	999	C6H4N3O-
