Mass spectrum: Fluensulfone; LC-ESI-QFT; MS2; CE: 90%; R=17500; [M+H]+
Name: Fluensulfone
Name: 5-chloro-2-(3,4,4-trifluorobut-3-enylsulfonyl)-1,3-thiazole
Formula: C7H5ClF3NO2S2
Exact mass: 290.9402
SMILES: C1=C(SC(=N1)S(=O)(=O)CCC(=C(F)F)F)Cl
InChI: InChI=1S/C7H5ClF3NO2S2/c8-5-3-12-7(15-5)16(13,14)2-1-4(9)6(10)11/h3H,1-2H2
Instrument: Exploris 240 Orbitrap Thermo Scientific
Instrument type: LC-ESI-QFT
Ms type: MS2
Ion mode: POSITIVE
Ionization: ESI
Fragmentation mode: HCD
Collision energy: 90 % (nominal)
Resolution: 17500
Column name: XBridge C18 3.5um, 2.1x50mm, Waters
Retention time: 6.848 min
Base peak: 326.0275
Precursor m/z: 291.9475
Precursor type: [M+H]+
m/z	relative intensity	assigned
56.9794	41	C2HS+
59.0291	999	C3H4F+
68.9946	46	CF3+
78.9404	233	CClS+
82.9824	39	C3HNS+
89.0196	739	C4H3F2+
92.9561	106	C2H2ClS+
109.0259	70	C4H4F3+
117.9511	257	C3HClNS+
119.967	77	C3H3ClNS+
121.9461	308	C2HClNOS+
132.9745	41	C7HOS+
165.9186	76	C3HClNOS2+
