Mass spectrum: Amidithion; LC-ESI-QFT; MS2; CE: 90%; R=17500; [M+H]+
Name: Amidithion
Name: 2-dimethoxyphosphinothioylsulfanyl-N-(2-methoxyethyl)acetamide
Formula: C7H16NO4PS2
Exact mass: 273.0258
SMILES: COCCNC(=O)CSP(=S)(OC)OC
InChI: InChI=1S/C7H16NO4PS2/c1-10-5-4-8-7(9)6-15-13(14,11-2)12-3/h4-6H2,1-3H3,(H,8,9)
Instrument: Exploris 240 Orbitrap Thermo Scientific
Instrument type: LC-ESI-QFT
Ms type: MS2
Ion mode: POSITIVE
Ionization: ESI
Fragmentation mode: HCD
Collision energy: 90 % (nominal)
Resolution: 17500
Column name: XBridge C18 3.5um, 2.1x50mm, Waters
Retention time: 4.721 min
Base peak: 274.0331
Precursor m/z: 274.0331
Precursor type: [M+H]+
m/z	relative intensity	assigned
59.0491	118	C3H7O+
62.0184	59	C2H6S+
62.9996	31	CH4OP+
72.0443	33	C3H6NO+
78.9943	466	CH4O2P+
93.01	194	C2H6O2P+
116.0165	188	C4H6NOS+
124.982	999	C2H6O2PS+
142.9926	247	C2H8O3PS+
156.954	38	C2H6O2PS2+
