Mass spectrum: Piracetam; LC-ESI-QFT; MS2; CE: 60; R=35000; [M+H]+
Name: Piracetam
Name: 1-Pyrrolidineacetamide, 2-oxo-
Name: 2-(2-ketopyrrolidino)acetamide
Formula: C6H10N2O2
Exact mass: 142.07423
SMILES: O=C1N(CC(=O)N)CCC1
InChI: InChI=1S/C6H10N2O2/c7-5(9)4-8-3-1-2-6(8)10/h1-4H2,(H2,7,9)
Instrument: Q Exactive Orbitrap Thermo Scientific
Instrument type: LC-ESI-QFT
Ms type: MS2
Ion mode: POSITIVE
Ionization: ESI
Fragmentation mode: HCD
Collision energy: 60 (nominal)
Resolution: 35000
Column name: XBridge C18 3.5um, 2.1x50mm, Waters
Retention time: 1.1 min
Base peak: 143.0815
Precursor m/z: 143.0815
Precursor type: [M+H]+
m/z	relative intensity	assigned
68.0494	7	C4H6N+
69.0335	33	C4H5O+
70.0651	122	C4H8N+
80.0495	1	C5H6N+
98.06	999	C5H8NO+
126.0549	97	C6H8NO2+
143.0814	1	C6H11N2O2+
