Mass spectrum: Imidaclothiz; LC-ESI-QFT; MS2; CE: 90%; R=17500; [M+H]+
Name: Imidaclothiz
Name: N-[1-[(2-chloro-1,3-thiazol-5-yl)methyl]-4,5-dihydroimidazol-2-yl]nitramide
Formula: C7H8ClN5O2S
Exact mass: 261.0087
SMILES: C1CN(C(=N1)N[N+](=O)[O-])CC2=CN=C(S2)Cl
InChI: InChI=1S/C7H8ClN5O2S/c8-6-10-3-5(16-6)4-12-2-1-9-7(12)11-13(14)15/h3H,1-2,4H2,(H,9,11)
Instrument: Exploris 240 Orbitrap Thermo Scientific
Instrument type: LC-ESI-QFT
Ms type: MS2
Ion mode: POSITIVE
Ionization: ESI
Fragmentation mode: HCD
Collision energy: 90 % (nominal)
Resolution: 17500
Column name: XBridge C18 3.5um, 2.1x50mm, Waters
Retention time: 3.937 min
Base peak: 239.15
Precursor m/z: 262.016
Precursor type: [M+H]+
m/z	relative intensity	assigned
56.0495	41	C3H6N+
68.0494	22	C4H6N+
70.995	172	C3H3S+
80.0371	19	C4H4N2+
80.0494	41	C5H6N+
81.0574	35	C5H7N+
83.048	33	C3H5N3+
87.9946	21	C3H3ClN+
92.0372	15	C5H4N2+
93.0448	11	C5H5N2+
95.0479	421	C4H5N3+
95.0601	158	C5H7N2+
99.0011	14	C3H3N2S+
108.0558	14	C5H6N3+
109.0638	14	C5H7N3+
110.0062	62	C5H4NS+
110.0716	28	C5H8N3+
111.0012	18	C4H3N2S+
120.0558	41	C6H6N3+
121.0633	64	C6H7N3+
122.0713	999	C6H8N3+
123.0791	923	C6H9N3+
125.004	24	C4H3N3S+
126.0118	28	C4H4N3S+
127.0199	31	C4H5N3S+
131.967	417	C4H3ClNS+
139.0324	40	C6H7N2S+
140.0281	16	C5H6N3S+
153.023	43	C5H5N4S+
154.0436	80	C6H8N3S+
181.0543	157	C7H9N4S+
