Mass spectrum: N4-Acetylsulfadimethoxine; LC-ESI-ITFT; MS2; CE: 35%; R=30000; [M+H]+
Name: N4-Acetylsulfadimethoxine
Name: N-[4-[(4,6-dimethoxy-2-pyrimidinyl)sulfamoyl]phenyl]acetamide
Formula: C14H16N4O5S
Exact mass: 352.0841
SMILES: C(C)(=O)Nc1ccc(cc1)S(=O)(=O)Nc1nc(cc(n1)OC)OC
InChI: InChI=1S/C14H16N4O5S/c1-9(19)15-10-4-6-11(7-5-10)24(20,21)18-14-16-12(22-2)8-13(17-14)23-3/h4-8H,1-3H3,(H,15,19)(H,16,17,18)
Instrument: LTQ Orbitrap XL Thermo Scientific
Instrument type: LC-ESI-ITFT
Ms type: MS2
Ion mode: POSITIVE
Ionization: ESI
Fragmentation mode: CID
Collision energy: 35 % (nominal)
Resolution: 30000
Column name: XBridge C18 3.5um, 2.1x50mm, Waters
Retention time: 6.3 min
Base peak: 353.0926
Precursor m/z: 353.0914
Precursor type: [M+H]+
m/z	relative intensity	assigned
108.0444	98	C6H6NO+
116.0495	6	C8H6N+
118.0651	8	C8H8N+
124.0217	3	C6H6NS+
127.0502	22	C5H7N2O2+
133.0524	5	C8H7NO+
134.06	126	C8H8NO+
140.0454	6	C5H6N3O2+
141.0532	8	C5H7N3O2+
142.0613	5	C5H8N3O2+
148.0756	24	C9H10NO+
150.055	22	C8H8NO2+
154.0611	35	C6H8N3O2+
155.0689	55	C6H9N3O2+
156.0769	999	C6H10N3O2+
159.055	6	C9H7N2O+
164.0706	59	C9H10NO2+
170.0561	20	C6H8N3O3+
198.022	670	C8H8NO3S+
212.0375	104	C9H10NO3S+
215.0694	4	C11H9N3O2+
218.023	351	C6H8N3O4S+
245.1033	7	C12H13N4O2+
257.1032	317	C13H13N4O2+
272.0897	7	C13H12N4O3+
286.1053	7	C14H14N4O3+
287.1139	995	C14H15N4O3+
311.0806	27	C12H15N4O4S+
312.0643	8	C12H14N3O5S+
321.0652	844	C13H13N4O4S+
335.0807	36	C14H15N4O4S+
