Mass spectrum: Telmisartan; LC-ESI-ITFT; MS2; CE: 75%; R=15000; [M+H]+
Name: Telmisartan
Name: 4'-[(1,7'-dimethyl-2'-propyl-1H,3'H-2,5'-bibenzimidazol-3'-yl)methyl]biphenyl-2-carboxylic acid
Name: 2-[4-[[4-methyl-6-(1-methyl-2-benzimidazolyl)-2-propyl-1-benzimidazolyl]methyl]phenyl]benzoic acid
Formula: C33H30N4O2
Exact mass: 514.2369
SMILES: n1(c(nc2c1cccc2)c1cc(c2c(n(c(CCC)n2)Cc2ccc(cc2)c2c(cccc2)C(O)=O)c1)C)C
InChI: InChI=1S/C33H30N4O2/c1-4-9-30-35-31-21(2)18-24(32-34-27-12-7-8-13-28(27)36(32)3)19-29(31)37(30)20-22-14-16-23(17-15-22)25-10-5-6-11-26(25)33(38)39/h5-8,10-19H,4,9,20H2,1-3H3,(H,38,39)
Instrument: LTQ Orbitrap XL Thermo Scientific
Instrument type: LC-ESI-ITFT
Ms type: MS2
Ion mode: POSITIVE
Ionization: ESI
Fragmentation mode: HCD
Collision energy: 75 % (nominal)
Resolution: 15000
Column name: XBridge C18 3.5um, 2.1x50mm, Waters
Retention time: 9.2 min
Base peak: 515.2452
Precursor m/z: 515.2442
Precursor type: [M+H]+
m/z	relative intensity	assigned
79.0544	3	C6H7+
92.0495	2	C6H6N+
104.0494	1	C7H6N+
105.0336	2	C7H5O+
106.0652	22	C7H8N+
107.073	1	C7H9N+
115.0541	2	C9H7+
119.0605	2	C7H7N2+
120.0685	1	C7H8N2+
128.0624	2	C10H8+
129.0701	2	C10H9+
131.0604	7	C8H7N2+
132.0683	1	C8H8N2+
133.0285	14	C8H5O2+
133.0762	10	C8H9N2+
141.0699	7	C11H9+
143.0604	3	C9H7N2+
144.0682	3	C9H8N2+
145.0762	7	C9H9N2+
146.0839	1	C9H10N2+
152.0621	31	C12H8+
153.07	12	C12H9+
154.0779	5	C12H10+
155.0604	2	C10H7N2+
155.0856	34	C12H11+
157.076	4	C10H9N2+
158.084	5	C10H10N2+
159.0911	1	C10H11N2+
165.07	83	C13H9+
166.0778	15	C13H10+
167.0857	14	C13H11+
168.0572	6	C12H8O+
170.0715	5	C10H8N3+
171.0916	4	C11H11N2+
176.0579	2	C9H8N2O2+
181.0648	2	C13H9O+
183.0806	20	C13H11O+
193.0649	99	C14H9O+
194.067	1	C7H8N5O2+
206.0836	1	C14H10N2+
207.0927	2	C14H11N2+
211.0755	112	C14H11O2+
212.0786	2	C7H10N5O3+
220.087	6	C14H10N3+
221.1074	5	C15H13N2+
222.1153	5	C15H14N2+
233.0951	3	C15H11N3+
234.1027	12	C15H12N3+
235.1112	2	C17H15O+
236.118	2	C15H14N3+
246.0898	3	C15H10N4+
246.1028	7	C16H12N3+
247.0978	6	C15H11N4+
247.1108	9	C16H13N3+
248.1055	1	C15H12N4+
248.1183	5	C16H14N3+
254.1048	5	C15H14N2O2+
259.0974	5	C16H11N4+
260.1058	30	C16H12N4+
261.1137	427	C18H15NO+
262.1224	28	C16H14N4+
263.1308	2	C18H17NO+
272.1054	1	C17H12N4+
273.1136	16	C17H13N4+
274.1215	42	C17H14N4+
275.1293	236	C17H15N4+
276.1371	999	C17H16N4+
277.1405	31	C12H17N6O2+
279.1002	4	C16H13N3O2+
287.1291	36	C18H15N4+
288.1369	21	C18H16N4+
289.1448	342	C18H17N4+
290.1486	8	C13H18N6O2+
301.1449	13	C19H17N4+
302.1526	10	C19H18N4+
303.1605	153	C19H19N4+
304.164	3	C14H20N6O2+
305.176	46	C19H21N4+
306.1805	1	C14H22N6O2+
308.1262	1	C17H16N4O2+
317.176	8	C20H21N4+
409.1436	1	C28H17N4+
411.1612	2	C30H21NO+
425.1762	5	C29H21N4+
439.1538	3	C29H19N4O+
439.1913	3	C30H23N4+
441.2068	4	C30H25N4+
451.1549	2	C30H19N4O+
452.163	1	C30H20N4O+
453.1724	5	C32H23NO2+
455.1873	2	C30H23N4O+
465.1714	2	C31H21N4O+
467.1868	20	C31H23N4O+
468.1912	1	C26H24N6O3+
471.1807	4	C30H23N4O2+
483.1816	2	C31H23N4O2+
485.1972	19	C31H25N4O2+
497.233	2	C33H29N4O+
