Mass spectrum: Spirotetramat BYI08330-monohydroxy; LC-ESI-QFT; MS2; CE: 90%; R=17500; [M+H]+
Name: Spirotetramat BYI08330-monohydroxy
Name: 1-Azaspiro(4.5)decan-2-one, 3-(2,5-dimethylphenyl)-4-hydroxy-8-methoxy-
Name: 3-(2,5-dimethylphenyl)-4-hydroxy-8-methoxy-1-azaspiro[4.5]decan-2-one
Formula: C18H25NO3
Exact mass: 303.1834
SMILES: CC1=CC(=C(C=C1)C)C2C(C3(CCC(CC3)OC)NC2=O)O
InChI: InChI=1S/C18H25NO3/c1-11-4-5-12(2)14(10-11)15-16(20)18(19-17(15)21)8-6-13(22-3)7-9-18/h4-5,10,13,15-16,20H,6-9H2,1-3H3,(H,19,21)
Instrument: Exploris 240 Orbitrap Thermo Scientific
Instrument type: LC-ESI-QFT
Ms type: MS2
Ion mode: POSITIVE
Ionization: ESI
Fragmentation mode: HCD
Collision energy: 90 % (nominal)
Resolution: 17500
Column name: XBridge C18 3.5um, 2.1x50mm, Waters
Retention time: 5.434 min
Base peak: 304.1905
Precursor m/z: 304.1907
Precursor type: [M+H]+
m/z	relative intensity	assigned
53.0386	110	C4H5+
55.0543	31	C4H7+
56.0495	42	C3H6N+
65.0387	37	C5H5+
67.0542	336	C5H7+
77.0385	179	C6H5+
79.0543	434	C6H7+
80.0494	24	C5H6N+
81.0699	645	C6H9+
82.0654	21	C5H8N+
91.0542	991	C7H7+
93.0698	151	C7H9+
95.0491	46	C6H7O+
96.0806	28	C6H10N+
98.0964	39	C6H12N+
103.0542	124	C8H7+
105.0698	311	C8H9+
107.0856	146	C8H11+
108.0806	28	C7H10N+
115.0543	115	C9H7+
116.0621	182	C9H8+
117.0698	197	C9H9+
118.0777	31	C9H10+
119.0855	999	C9H11+
120.0808	48	C8H10N+
128.062	121	C10H8+
129.0698	179	C10H9+
130.0778	117	C10H10+
131.0855	361	C10H11+
134.0964	79	C9H12N+
141.0697	74	C11H9+
142.0777	251	C11H10+
143.0853	149	C11H11+
145.1013	185	C11H13+
148.0757	25	C9H10NO+
153.07	47	C12H9+
154.0776	75	C12H10+
155.0853	174	C12H11+
156.0932	37	C12H12+
157.1016	96	C12H13+
165.0701	62	C13H9+
166.0783	53	C13H10+
167.0849	110	C13H11+
169.1014	218	C13H13+
179.0853	156	C14H11+
181.1012	137	C14H13+
184.1127	25	C13H14N+
194.1097	54	C15H14+
200.1075	38	C13H14NO+
