Mass spectrum: N4-Acetylsulfamethoxazole; LC-ESI-ITFT; MS2; CE: 75%; R=7500; [M+H]+
Name: N4-Acetylsulfamethoxazole
Name: N-[4-[(5-methyl-1,2-oxazol-3-yl)sulfamoyl]phenyl]acetamide
Formula: C12H13N3O4S
Exact mass: 295.0627
SMILES: c1(ccc(cc1)NC(C)=O)S(Nc1cc(C)on1)(=O)=O
InChI: InChI=1S/C12H13N3O4S/c1-8-7-12(14-19-8)15-20(17,18)11-5-3-10(4-6-11)13-9(2)16/h3-7H,1-2H3,(H,13,16)(H,14,15)
Instrument: LTQ Orbitrap XL Thermo Scientific
Instrument type: LC-ESI-ITFT
Ms type: MS2
Ion mode: POSITIVE
Ionization: ESI
Fragmentation mode: HCD
Collision energy: 75 % (nominal)
Resolution: 7500
Column name: XBridge C18 3.5um, 2.1x50mm, Waters
Retention time: 5.5 min
Base peak: 318.0528
Precursor m/z: 296.07
Precursor type: [M+H]+
m/z	relative intensity	assigned
65.0386	999	C5H5+
79.0543	40	C6H7+
80.0494	35	C5H6N+
92.0494	254	C6H6N+
93.0336	82	C6H5O+
93.0573	197	C6H7N+
94.065	92	C6H8N+
99.0553	70	C4H7N2O+
106.0652	75	C7H8N+
107.0607	43	C6H7N2+
108.0443	551	C6H6NO+
110.0596	18	C6H8NO+
131.06	21	C8H7N2+
132.0685	23	C8H8N2+
134.06	613	C8H8NO+
146.0712	100	C8H8N3+
147.0792	83	C8H9N3+
156.0111	18	C6H6NO2S+
160.0868	121	C9H10N3+
161.0018	14	C4H5N2O3S+
