Mass spectrum: Indapamide; LC-ESI-QFT; MS2; CE: 120; R=35000; [M-H]-
Name: Indapamide
Name: 4-chloro-N-(2-methyl-2,3-dihydroindol-1-yl)-3-sulfamoylbenzamide
Formula: C16H16ClN3O3S
Exact mass: 365.06009
SMILES: CC1CC2=CC=CC=C2N1NC(=O)C3=CC(=C(C=C3)Cl)S(=O)(=O)N
InChI: InChI=1S/C16H16ClN3O3S/c1-10-8-11-4-2-3-5-14(11)20(10)19-16(21)12-6-7-13(17)15(9-12)24(18,22)23/h2-7,9-10H,8H2,1H3,(H,19,21)(H2,18,22,23)
Instrument: Q Exactive Plus Orbitrap Thermo Scientific
Instrument type: LC-ESI-QFT
Ms type: MS2
Ion mode: NEGATIVE
Ionization: ESI
Fragmentation mode: HCD
Collision energy: 120 (nominal)
Resolution: 35000
Column name: XBridge C18 3.5um, 2.1x50mm, Waters
Retention time: 6.7 min
Base peak: 364.0524
Precursor m/z: 364.0528
Precursor type: [M-H]-
m/z	relative intensity	assigned
50.0035	9	C3N-
56.9804	11	C2HS-
57.9757	3	CNS-
61.9706	331	NOS-
63.0114	14	C4HN-
63.9625	476	O2S-
65.9986	3	C3NO-
68.0142	1	C3H2NO-
76.0192	1	C5H2N-
77.9655	999	NO2S-
78.9733	498	HNO2S-
79.9812	43	H2NO2S-
80.9651	5	HO3S-
81.9757	4	C3NS-
88.0192	97	C6H2N-
89.0271	9	C6H3N-
90.0349	13	C6H4N-
91.0301	11	C5H3N2-
92.0142	2	C5H2NO-
93.9604	46	NO3S-
103.03	1	C6H3N2-
105.0221	6	C6H3NO-
107.9913	2	C5H2NS-
108.9851	3	C6H2Cl-
115.0302	41	C7H3N2-
116.0506	30	C8H6N-
119.0251	2	C6H3N2O-
123.996	4	C6H3ClN-
129.0583	2	C9H7N-
130.0663	9	C9H8N-
131.0251	5	C7H3N2O-
