Mass spectrum: Nafcillin; LC-ESI-QFT; MS2; CE: 60; R=35000; [M+H]+
Name: Nafcillin
Name: (2S,5R,6R)-6-[(2-ethoxynaphthalene-1-carbonyl)amino]-3,3-dimethyl-7-oxo-4-thia-1-azabicyclo[3.2.0]heptane-2-carboxylic acid
Formula: C21H22N2O5S
Exact mass: 414.12494
SMILES: CCOC1=C(C(=O)N[C@H]2[C@H]3SC(C)(C)[C@@H](N3C2=O)C(O)=O)C2=CC=CC=C2C=C1
InChI: InChI=1S/C21H22N2O5S/c1-4-28-13-10-9-11-7-5-6-8-12(11)14(13)17(24)22-15-18(25)23-16(20(26)27)21(2,3)29-19(15)23/h5-10,15-16,19H,4H2,1-3H3,(H,22,24)(H,26,27)/t15-,16+,19-/m1/s1
Instrument: Q Exactive Plus Orbitrap Thermo Scientific
Instrument type: LC-ESI-QFT
Ms type: MS2
Ion mode: POSITIVE
Ionization: ESI
Fragmentation mode: HCD
Collision energy: 60 (nominal)
Resolution: 35000
Column name: XBridge C18 3.5um, 2.1x50mm, Waters
Retention time: 9.4 min
Base peak: 415.1318
Precursor m/z: 415.1322
Precursor type: [M+H]+
m/z	relative intensity	assigned
55.0179	1	C3H3O+
70.065	1	C4H8N+
87.0263	3	C4H7S+
100.0394	1	C4H6NO2+
102.0008	1	C3H4NOS+
114.0372	7	C5H8NS+
115.0542	97	C9H7+
117.0699	1	C9H9+
128.0527	1	C6H10NS+
128.0619	4	C10H8+
129.0698	6	C10H9+
130.0414	2	C9H6O+
141.0698	5	C11H9+
143.0492	144	C10H7O+
143.0855	7	C11H11+
145.0648	4	C10H9O+
152.0619	1	C12H8+
153.0699	7	C12H9+
154.0651	2	C11H8N+
155.0603	2	C10H7N2+
155.0853	3	C12H11+
156.081	1	C11H10N+
157.0648	7	C11H9O+
160.0425	1	C6H10NO2S+
165.0699	1	C13H9+
167.0733	1	C12H9N+
168.0573	2	C12H8O+
169.0648	7	C12H9O+
169.0761	1	C11H9N2+
170.0598	1	C11H8NO+
171.044	999	C3H11N2O4S+
181.0647	88	C13H9O+
182.06	75	C12H8NO+
183.044	2	C12H7O2+
183.0678	15	C12H9NO+
183.0808	1	C13H11O+
183.0915	5	C12H11N2+
184.0758	2	C12H10NO+
196.0754	1	C13H10NO+
199.0753	47	C13H11O2+
209.071	9	C13H9N2O+
210.0789	20	C13H10N2O+
210.0911	2	C14H12NO+
211.0866	9	C13H11N2O+
211.0989	1	C14H13NO+
221.0704	1	C14H9N2O+
223.0861	1	C14H11N2O+
227.0578	3	C13H9NO3+
228.0654	9	C13H10NO3+
239.1177	1	C15H15N2O+
256.0966	2	C15H14NO3+
