Mass spectrum: Atorvastatin; LC-ESI-ITFT; MS2; CE: 60%; R=15000; [M+H]+
Name: Atorvastatin
Name: (3R,5R)-7-[3-(anilinocarbonyl)-5-(4-fluorophenyl)-2-isopropyl-4-phenyl-1H-pyrrol-1-yl]-3,5-dihydroxyheptanoic acid
Name: (3R,5R)-7-[2-(4-fluorophenyl)-3-phenyl-4-(phenylcarbamoyl)-5-propan-2-yl-pyrrol-1-yl]-3,5-bis(oxidanyl)heptanoic acid
Formula: C33H35FN2O5
Exact mass: 558.2530
SMILES: c1(c(n(CC[C@H](C[C@H](CC(=O)O)O)O)c(c1C(Nc1ccccc1)=O)C(C)C)c1ccc(F)cc1)c1ccccc1
InChI: InChI=1S/C33H35FN2O5/c1-21(2)31-30(33(41)35-25-11-7-4-8-12-25)29(22-9-5-3-6-10-22)32(23-13-15-24(34)16-14-23)36(31)18-17-26(37)19-27(38)20-28(39)40/h3-16,21,26-27,37-38H,17-20H2,1-2H3,(H,35,41)(H,39,40)/t26-,27-/m1/s1
Instrument: LTQ Orbitrap XL Thermo Scientific
Instrument type: LC-ESI-ITFT
Ms type: MS2
Ion mode: POSITIVE
Ionization: ESI
Fragmentation mode: HCD
Collision energy: 60 % (nominal)
Resolution: 15000
Column name: XBridge C18 3.5um, 2.1x50mm, Waters
Retention time: 12.4 min
Base peak: 559.2616
Precursor m/z: 559.2603
Precursor type: [M+H]+
m/z	relative intensity	assigned
79.0542	17	C6H7+
83.0491	12	C5H7O+
92.0495	33	C6H6N+
96.0053	7	CH4O5+
115.0538	9	C9H7+
120.0444	28	C7H6NO+
172.0549	10	C11H7FN+
209.0761	19	C15H10F+
223.0921	11	C16H12F+
230.0968	19	C17H12N+
233.0762	38	C17H10F+
235.0794	34	C16H10FN+
237.0951	28	C16H12FN+
238.1025	103	C16H13FN+
248.087	55	C17H11FN+
249.0949	134	C17H12FN+
250.1027	999	C17H13FN+
252.1184	20	C17H15FN+
261.0946	26	C18H12FN+
262.1026	83	C18H13FN+
264.0821	39	C17H11FNO+
264.1179	27	C18H15FN+
274.1026	17	C19H13FN+
275.1116	10	C19H14FN+
276.0824	49	C18H11FNO+
276.1184	364	C19H15FN+
277.1266	27	C19H16FN+
278.1342	9	C19H17FN+
288.1178	16	C20H15FN+
290.1341	26	C20H17FN+
292.1497	52	C20H19FN+
302.099	10	C20H13FNO+
302.1335	53	C21H17FN+
306.1288	55	C20H17FNO+
318.164	14	C22H21FN+
320.1081	9	C23H14NO+
320.1429	13	C24H18N+
362.1551	54	C26H20NO+
