Mass spectrum: Flutriafol; LC-ESI-QFT; MS2; CE: 15; R=35000; [M+H]+
Name: Flutriafol
Name: 1-(2-fluorophenyl)-1-(4-fluorophenyl)-2-(1,2,4-triazol-1-yl)ethanol
Formula: C16H13F2N3O
Exact mass: 301.10267
SMILES: C1=CC=C(C(=C1)C(CN2C=NC=N2)(C3=CC=C(C=C3)F)O)F
InChI: InChI=1S/C16H13F2N3O/c17-13-7-5-12(6-8-13)16(22,9-21-11-19-10-20-21)14-3-1-2-4-15(14)18/h1-8,10-11,22H,9H2
Instrument: Q Exactive Plus Orbitrap Thermo Scientific
Instrument type: LC-ESI-QFT
Ms type: MS2
Ion mode: POSITIVE
Ionization: ESI
Fragmentation mode: HCD
Collision energy: 15 (nominal)
Resolution: 35000
Column name: XBridge C18 3.5um, 2.1x50mm, Waters
Retention time: 8.6 min
Base peak: 302.1094
Precursor m/z: 302.1099
Precursor type: [M+H]+
m/z	relative intensity	assigned
70.0399	425	C2H4N3+
109.045	2	C7H6F+
123.0243	6	C2H3F2N3O+
137.0397	1	C8H6FO+
233.0773	49	C14H11F2O+
302.1099	999	C16H14F2N3O+
