Mass spectrum: Tepraloxydim; LC-ESI-QFT; MS2; CE: 90; R=35000; [M+H]+
Name: Tepraloxydim
Name: E-Tepraloxydim
Formula: C17H24ClNO4
Exact mass: 341.13939
SMILES: CC/C(=N\OC\C=C\Cl)/C=1C(=O)CC(CC=1O)C2CCOCC2
InChI: InChI=1S/C17H24ClNO4/c1-2-14(19-23-7-3-6-18)17-15(20)10-13(11-16(17)21)12-4-8-22-9-5-12/h3,6,12-13,20H,2,4-5,7-11H2,1H3/b6-3+,19-14+
Instrument: Q Exactive Orbitrap Thermo Scientific
Instrument type: LC-ESI-QFT
Ms type: MS2
Ion mode: POSITIVE
Ionization: ESI
Fragmentation mode: HCD
Collision energy: 90 (nominal)
Resolution: 35000
Column name: XBridge C18 3.5um, 2.1x50mm, Waters
Retention time: 11.5 min
Base peak: 342.1471
Precursor m/z: 342.1467
Precursor type: [M+H]+
m/z	relative intensity	assigned
51.0231	5	C4H3+
55.0544	5	C4H7+
56.0497	47	C3H6N+
57.0574	5	C3H7N+
58.0653	5	C3H8N+
65.0387	174	C5H5+
66.0338	16	C4H4N+
66.0465	17	C5H6+
67.0179	25	C4H3O+
67.0418	103	C4H5N+
67.0543	268	C5H7+
68.0495	261	C4H6N+
68.9972	17	C3HO2+
69.0335	83	C4H5O+
69.0699	12	C5H9+
70.0288	17	C3H4NO+
70.0652	48	C4H8N+
71.0491	3	C4H7O+
71.073	7	C4H9N+
72.0444	36	C3H6NO+
72.0808	22	C4H10N+
74.9996	291	C3H4Cl+
77.0386	145	C6H5+
78.0465	21	C6H6+
79.0542	407	C6H7+
80.0495	106	C5H6N+
80.062	16	C6H8+
81.0335	76	C5H5O+
81.0574	34	C5H7N+
81.0699	122	C6H9+
82.0651	179	C5H8N+
83.0491	127	C5H7O+
84.0444	17	C4H6NO+
84.0808	7	C5H10N+
86.0601	3	C4H8NO+
91.0542	830	C7H7+
92.0495	26	C6H6N+
92.0621	3	C7H8+
93.0573	118	C6H7N+
93.0699	298	C7H9+
94.0651	212	C6H8N+
95.0492	353	C6H7O+
95.073	20	C6H9N+
95.0855	23	C7H11+
96.0444	463	C5H6NO+
96.0809	38	C6H10N+
97.0523	33	C5H7NO+
97.0649	12	C6H9O+
98.0601	999	C5H8NO+
103.0542	374	C8H7+
104.0496	7	C7H6N+
104.0621	6	C8H8+
105.0448	170	C6H5N2+
105.0699	176	C8H9+
106.0651	47	C7H8N+
107.0492	70	C7H7O+
107.0729	21	C7H9N+
107.0855	21	C8H11+
108.0444	29	C6H6NO+
108.0808	251	C7H10N+
109.0285	5	C6H5O2+
109.0523	17	C6H7NO+
109.0649	46	C7H9O+
110.0601	197	C6H8NO+
110.0964	82	C7H12N+
111.044	82	C6H7O2+
111.0679	47	C6H9NO+
112.0755	4	C6H10NO+
114.0914	7	C6H12NO+
115.0542	139	C9H7+
116.062	36	C9H8+
117.0573	35	C8H7N+
117.0698	80	C9H9+
118.0652	53	C8H8N+
118.0779	4	C9H10+
119.0493	29	C8H7O+
119.0604	5	C7H7N2+
119.073	14	C8H9N+
119.0857	30	C9H11+
120.0444	17	C7H6NO+
120.0808	42	C8H10N+
121.0648	440	C8H9O+
122.06	67	C7H8NO+
122.0964	6	C8H12N+
123.0439	9	C7H7O2+
123.0679	3	C7H9NO+
124.0393	34	C6H6NO2+
124.0756	44	C7H10NO+
126.0549	37	C6H8NO2+
128.0621	85	C10H8+
129.0698	57	C10H9+
130.0652	39	C9H8N+
130.0778	16	C10H10+
131.0491	28	C9H7O+
131.073	18	C9H9N+
131.0855	23	C10H11+
132.0572	3	C9H8O+
132.0809	40	C9H10N+
133.0522	12	C8H7NO+
133.0648	14	C9H9O+
133.0887	4	C9H11N+
133.1013	3	C10H13+
134.06	25	C8H8NO+
134.0965	18	C9H12N+
135.044	6	C8H7O2+
135.0803	4	C9H11O+
136.0757	88	C8H10NO+
137.0597	9	C8H9O2+
137.0836	7	C8H11NO+
138.0914	80	C8H12NO+
141.0696	26	C11H9+
142.05	51	C6H8NO3+
142.0655	6	C10H8N+
142.0781	3	C11H10+
143.073	13	C10H9N+
143.0855	4	C11H11+
144.0568	6	C10H8O+
144.0807	28	C10H10N+
145.0649	17	C10H9O+
145.0886	6	C10H11N+
146.0602	31	C9H8NO+
146.0964	25	C10H12N+
147.044	41	C9H7O2+
147.0679	7	C9H9NO+
147.0806	6	C10H11O+
148.0758	43	C9H10NO+
148.1121	5	C10H14N+
149.0598	111	C9H9O2+
150.055	5	C8H8NO2+
150.0915	7	C9H12NO+
153.07	17	C12H9+
154.078	5	C12H10+
155.0606	14	C10H7N2+
155.0858	3	C12H11+
156.0804	9	C11H10N+
158.0964	15	C11H12N+
159.0804	4	C11H11O+
160.0756	30	C10H10NO+
161.0597	7	C10H9O2+
162.055	6	C9H8NO2+
162.0913	14	C10H12NO+
164.0703	29	C9H10NO2+
166.0864	22	C9H12NO2+
174.0915	6	C11H12NO+
