Mass spectrum: Adenosine; LC-ESI-QFT; MS2; CE: 30; R=35000; [M+H]+
Name: Adenosine
Name: (2R,3R,4S,5R)-2-(6-aminopurin-9-yl)-5-(hydroxymethyl)oxolane-3,4-diol
Formula: C10H13N5O4
Exact mass: 267.09675
SMILES: C1=NC(=C2C(=N1)N(C=N2)[C@H]3[C@@H]([C@@H]([C@H](O3)CO)O)O)N
InChI: InChI=1S/C10H13N5O4/c11-8-5-9(13-2-12-8)15(3-14-5)10-7(18)6(17)4(1-16)19-10/h2-4,6-7,10,16-18H,1H2,(H2,11,12,13)/t4-,6-,7-,10-/m1/s1
Instrument: Q Exactive Orbitrap Thermo Scientific
Instrument type: LC-ESI-QFT
Ms type: MS2
Ion mode: POSITIVE
Ionization: ESI
Fragmentation mode: HCD
Collision energy: 30 (nominal)
Resolution: 35000
Column name: XBridge C18 3.5um, 2.1x50mm, Waters
Retention time: 1.1 min
Base peak: 268.1041
Precursor m/z: 268.104
Precursor type: [M+H]+
m/z	relative intensity	assigned
73.0284	1	C3H5O2+
85.0284	2	C4H5O2+
115.039	3	C5H7O3+
119.0349	1	C5H3N4+
133.0496	4	C5H9O4+
136.0618	999	C5H6N5+
268.104	43	C10H14N5O4+
