Mass spectrum: Thiacloprid; LC-ESI-ITFT; MS2; CE: 35%; R=7500; [M+H]+
Name: Thiacloprid
Name: (Z)-[3-[(6-Chloro-3-pyridinyl)methyl]-2-thiazolidinylidene]cyanamide
Name: Calypso
Formula: C10H9ClN4S
Exact mass: 252.0236
SMILES: C1CSC(=NC#N)N1CC2=CN=C(C=C2)Cl
InChI: InChI=1S/C10H9ClN4S/c11-9-2-1-8(5-13-9)6-15-3-4-16-10(15)14-7-12/h1-2,5H,3-4,6H2
Instrument: LTQ Orbitrap XL Thermo Scientific
Instrument type: LC-ESI-ITFT
Ms type: MS2
Ion mode: POSITIVE
Ionization: ESI
Fragmentation mode: CID
Collision energy: 35 % (nominal)
Resolution: 7500
Column name: XBridge C18 3.5um, 2.1x50mm, Waters
Retention time: 5.8 min
Base peak: 253.0312
Precursor m/z: 253.0309
Precursor type: [M+H]+
m/z	relative intensity	assigned
90.0339	4	C6H4N+
99	2	C5H4Cl+
103.0324	1	C3H7N2S+
126.0105	999	C6H5ClN+
128.0265	4	C6H7ClN+
151.0058	34	C7H4ClN2+
157.051	13	C8H5N4+
158.0715	2	C9H8N3+
166.0174	2	C7H5ClN3+
182.978	3	C7H4ClN2S+
186.0139	558	C8H9ClNS+
190.0433	26	C9H8N3S+
193.0276	51	C8H6ClN4+
194.0481	31	C9H9ClN3+
205.0276	18	C9H6ClN4+
209.9884	1	C8H5ClN3S+
211.0093	183	C9H8ClN2S+
217.0542	236	C10H9N4S+
218.062	5	C10H10N4S+
220.0518	2	C10H9ClN4+
225.0005	3	C8H6ClN4S+
226.0201	412	C9H9ClN3S+
236.0045	99	C10H7ClN3S+
