Mass spectrum: Cyanophos; LC-ESI-QFT; MS2; CE: 120%; R=17500; [M+H]+
Name: Cyanophos
Name: 4-dimethoxyphosphinothioyloxybenzonitrile
Formula: C9H10NO3PS
Exact mass: 243.0119
SMILES: COP(=S)(OC)OC1=CC=C(C=C1)C#N
InChI: InChI=1S/C9H10NO3PS/c1-11-14(15,12-2)13-9-5-3-8(7-10)4-6-9/h3-6H,1-2H3
Instrument: Exploris 240 Orbitrap Thermo Scientific
Instrument type: LC-ESI-QFT
Ms type: MS2
Ion mode: POSITIVE
Ionization: ESI
Fragmentation mode: HCD
Collision energy: 120 % (nominal)
Resolution: 17500
Column name: XBridge C18 3.5um, 2.1x50mm, Waters
Retention time: 6.931 min
Base peak: 244.0192
Precursor m/z: 244.0192
Precursor type: [M+H]+
m/z	relative intensity	assigned
51.0229	189	C4H3+
62.0186	70	C2H6S+
62.9453	64	PS+
62.9995	67	CH4OP+
63.0229	209	C5H3+
75.0229	392	C6H3+
76.0182	109	C5H2N+
78.9943	999	CH4O2P+
90.0339	482	C6H4N+
91.0416	338	C6H5N+
93.01	68	C2H6O2P+
102.0338	298	C7H4N+
108.003	82	C2H7NPS+
124.9822	72	C2H6O2PS+
132.9983	79	C7H3NS+
134.0058	277	C7H4NS+
135.0138	95	C7H5NS+
