Mass spectrum: Ranitidine; LC-ESI-ITFT; MS2; CE: 90%; R=7500; [M+H]+
Name: Ranitidine
Name: 1,1-Ethenediamine, N-(2-(((5-((dimethylamino)methyl)-2-furanyl)methyl)thio)ethyl)-N'-methyl-2-nitro-
Name: 1-N'-[2-[[5-(dimethylaminomethyl)furan-2-yl]methylsulfanyl]ethyl]-1-N-methyl-2-nitroethene-1,1-diamine
Formula: C13H22N4O3S
Exact mass: 314.1413
SMILES: CN\C(NCCSCC1=CC=C(CN(C)C)O1)=C/[N+]([O-])=O
InChI: InChI=1S/C13H22N4O3S/c1-14-13(9-17(18)19)15-6-7-21-10-12-5-4-11(20-12)8-16(2)3/h4-5,9,14-15H,6-8,10H2,1-3H3/b13-9+
Instrument: LTQ Orbitrap XL Thermo Scientific
Instrument type: LC-ESI-ITFT
Ms type: MS2
Ion mode: POSITIVE
Ionization: ESI
Fragmentation mode: HCD
Collision energy: 90 % (nominal)
Resolution: 7500
Column name: XBridge C18 3.5um, 2.1x50mm, Waters
Retention time: 1.9 min
Base peak: 315.1494
Precursor m/z: 315.1485
Precursor type: [M+H]+
m/z	relative intensity	assigned
55.0416	45	C3H5N+
56.0494	47	C3H6N+
57.0448	24	C2H5N2+
58.0651	17	C3H8N+
61.0106	91	C2H5S+
68.0494	33	C4H6N+
78.0464	11	C6H6+
79.0543	28	C6H7+
80.0492	16	C5H6N+
81.0334	813	C5H5O+
82.0649	27	C5H8N+
83.0603	57	C4H7N2+
88.0213	23	C3H6NS+
91.0539	34	C7H7+
94.0411	18	C6H6O+
94.0651	74	C6H8N+
95.0491	39	C6H7O+
95.0727	13	C6H9N+
96.0684	13	C5H8N2+
97.0108	41	C5H5S+
97.0759	524	C5H9N2+
98.0838	88	C5H10N2+
101.0294	14	C4H7NS+
102.0371	999	C4H8NS+
106.0654	15	C7H8N+
107.0491	250	C7H7O+
108.057	16	C7H8O+
108.0808	19	C7H10N+
109.0758	14	C6H9N2+
110.0597	17	C6H8NO+
110.0961	57	C7H12N+
115.0324	24	C4H7N2S+
117.0477	38	C4H9N2S+
118.0649	52	C8H8N+
120.0807	22	C8H10N+
121.0758	123	C7H9N2+
122.0598	17	C7H8NO+
125.0055	382	C6H5OS+
129.0481	53	C5H9N2S+
130.0558	89	C5H10N2S+
132.0443	135	C8H6NO+
133.0521	101	C8H7NO+
134.0596	28	H12N3O3S+
135.0915	138	C8H11N2+
147.092	12	C9H11N2+
148.0755	167	C9H10NO+
150.0373	27	C8H8NS+
151.0205	19	C8H7OS+
163.0863	56	C9H11N2O+
167.0639	15	C8H11N2S+
177.1019	37	C10H13N2O+
178.0317	41	C9H8NOS+
