Mass spectrum: 4-chloro-N,N-dimethylaniline; LC-ESI-QFT; MS2; CE: 120; R=35000; [M+H]+
Name: 4-chloro-N,N-dimethylaniline
Name: 4-Chloro-N,N-dimethylaniline
Formula: C8H10ClN
Exact mass: 155.05018
SMILES: CN(C)c1ccc(cc1)Cl
InChI: InChI=1S/C8H10ClN/c1-10(2)8-5-3-7(9)4-6-8/h3-6H,1-2H3
Instrument: Q Exactive Plus Orbitrap Thermo Scientific
Instrument type: LC-ESI-QFT
Ms type: MS2
Ion mode: POSITIVE
Ionization: ESI
Fragmentation mode: HCD
Collision energy: 120 (nominal)
Resolution: 35000
Column name: XBridge C18 3.5um, 2.1x50mm, Waters
Retention time: 7.1 min
Base peak: 156.0573
Precursor m/z: 156.0575
Precursor type: [M+H]+
m/z	relative intensity	assigned
50.0151	1	C4H2+
51.0229	1	C4H3+
53.0385	6	C4H5+
75.0228	8	C6H3+
77.0384	14	C6H5+
78.0463	1	C6H6+
79.0541	4	C6H7+
86.9995	3	C4H4Cl+
90.0337	1	C6H4N+
91.0541	1	C7H7+
93.0334	1	C6H5O+
94.0413	1	C6H6O+
95.0491	25	C6H7O+
96.0442	1	C5H6NO+
98.9995	14	C5H4Cl+
104.0494	46	C7H6N+
105.0447	14	C6H5N2+
105.0572	92	C7H7N+
106.065	15	C7H8N+
110.9995	4	C6H4Cl+
112.0073	50	C6H5Cl+
113.0151	20	C6H6Cl+
120.0807	6	C8H10N+
126.0104	11	C6H5ClN+
129.01	15	C6H6ClO+
138.0105	2	C7H5ClN+
139.0057	31	C6H4ClN2+
140.026	999	C7H7ClN+
141.0338	116	C7H8ClN+
