Mass spectrum: Sulfadiazine; LC-ESI-ITFT; MS2; CE: 90%; R=7500; [M+H]+
Name: Sulfadiazine
Name: 4-amino-N-(2-pyrimidinyl)benzenesulfonamide
Formula: C10H10N4O2S
Exact mass: 250.0524
SMILES: NC1=CC=C(C=C1)S(=O)(=O)NC2=NC=CC=N2
InChI: InChI=1S/C10H10N4O2S/c11-8-2-4-9(5-3-8)17(15,16)14-10-12-6-1-7-13-10/h1-7H,11H2,(H,12,13,14)
Instrument: LTQ Orbitrap XL Thermo Scientific
Instrument type: LC-ESI-ITFT
Ms type: MS2
Ion mode: POSITIVE
Ionization: ESI
Fragmentation mode: HCD
Collision energy: 90 % (nominal)
Resolution: 7500
Column name: XBridge C18 3.5um, 2.1x50mm, Waters
Retention time: 2.2 min
Base peak: 251.0602
Precursor m/z: 251.0597
Precursor type: [M+H]+
m/z	relative intensity	assigned
65.0385	712	C5H5+
68.0494	37	C4H6N+
80.0494	142	C5H6N+
92.0494	999	C6H6N+
93.0573	31	C6H7N+
94.0653	18	C6H8N+
96.0555	402	C4H6N3+
108.0443	869	C6H6NO+
110.06	94	C6H8NO+
