Mass spectrum: 2,7-Naphthalenedisulfonic acid; LC-ESI-ITFT; MS2; CE: 35%; R=7500; [M-H]-
Name: 2,7-Naphthalenedisulfonic acid
Name: naphthalene-2,7-disulfonic acid
Formula: C10H8O6S2
Exact mass: 287.9762
SMILES: O=S(O)(C1=CC(C=C(C=C2)S(=O)(O)=O)=C2C=C1)=O
InChI: InChI=1S/C10H8O6S2/c11-17(12,13)9-3-1-7-2-4-10(18(14,15)16)6-8(7)5-9/h1-6H,(H,11,12,13)(H,14,15,16)
Instrument: LTQ Orbitrap XL Thermo Scientific
Instrument type: LC-ESI-ITFT
Ms type: MS2
Ion mode: NEGATIVE
Ionization: ESI
Fragmentation mode: CID
Collision energy: 35 % (nominal)
Resolution: 7500
Column name: XBridge C18 3.5um, 2.1x50mm, Waters
Retention time: 1.2 min
Base peak: 142.9815
Precursor m/z: 286.969
Precursor type: [M-H]-
m/z	relative intensity	assigned
207.012	999	C10H7O3S-
