Mass spectrum: Cortisone; LC-ESI-QFT; MS2; CE: 75; R=35000; [M-H]-
Name: Cortisone
Name: 17,21-Dihydroxypregn-4-ene-3,11,20-trione
Name: (8S,9S,10R,13S,14S,17R)-17-hydroxy-17-(2-hydroxyacetyl)-10,13-dimethyl-1,2,6,7,8,9,12,14,15,16-decahydrocyclopenta[a]phenanthrene-3,11-dione
Formula: C21H28O5
Exact mass: 360.19367
SMILES: O=C(CO)[C@@]3(O)CC[C@H]2[C@@H]4CC\C1=C\C(=O)CC[C@]1(C)[C@H]4C(=O)C[C@@]23C
InChI: InChI=1S/C21H28O5/c1-19-7-5-13(23)9-12(19)3-4-14-15-6-8-21(26,17(25)11-22)20(15,2)10-16(24)18(14)19/h9,14-15,18,22,26H,3-8,10-11H2,1-2H3/t14-,15-,18+,19-,20-,21-/m0/s1
Instrument: Q Exactive Plus Orbitrap Thermo Scientific
Instrument type: LC-ESI-QFT
Ms type: MS2
Ion mode: NEGATIVE
Ionization: ESI
Fragmentation mode: HCD
Collision energy: 75 (nominal)
Resolution: 35000
Column name: XBridge C18 3.5um, 2.1x50mm, Waters
Retention time: 7.4 min
Base peak: 405.1915
Precursor m/z: 359.1864
Precursor type: [M-H]-
m/z	relative intensity	assigned
55.0189	5	C3H3O-
57.0346	276	C3H5O-
59.0139	9	C2H3O2-
65.0397	4	C5H5-
67.019	1	C4H3O-
69.0346	9	C4H5O-
71.0139	4	C3H3O2-
71.0503	3	C4H7O-
73.0296	3	C3H5O2-
79.0553	15	C6H7-
80.0268	4	C5H4O-
81.0346	18	C5H5O-
83.0139	1	C4H3O2-
83.0502	11	C5H7O-
85.0295	5	C4H5O2-
91.0553	10	C7H7-
93.0345	11	C6H5O-
93.071	6	C7H9-
94.0424	13	C6H6O-
95.0137	4	C5H3O2-
95.0502	66	C6H7O-
96.0217	2	C5H4O2-
97.0659	69	C6H9O-
99.0452	7	C5H7O2-
105.0709	4	C8H9-
106.0424	6	C7H6O-
107.0503	134	C7H7O-
107.0866	14	C8H11-
108.0217	25	C6H4O2-
109.0659	313	C7H9O-
110.0371	1	C6H6O2-
111.0451	4	C6H7O2-
111.0816	7	C7H11O-
117.071	2	C9H9-
119.0502	70	C8H7O-
119.0865	3	C9H11-
120.0582	7	C8H8O-
121.0296	6	C7H5O2-
121.0659	51	C8H9O-
122.0374	427	C7H6O2-
123.0452	166	C7H7O2-
123.0816	99	C8H11O-
124.0165	29	C6H4O3-
125.0244	4	C6H5O3-
125.0607	48	C7H9O2-
129.071	3	C10H9-
130.0424	2	C9H6O-
131.0503	2	C9H7O-
132.0579	3	C9H8O-
133.0659	12	C9H9O-
133.1023	4	C10H13-
134.0373	10	C8H6O2-
135.0452	52	C8H7O2-
135.0816	68	C9H11O-
136.0529	151	C8H8O2-
137.0244	57	C7H5O3-
137.0608	999	C8H9O2-
138.0322	12	C7H6O3-
138.0685	2	C8H10O2-
143.0501	3	C10H7O-
144.0578	1	C10H8O-
145.0659	15	C10H9O-
145.1026	1	C11H13-
146.0374	2	C9H6O2-
146.0737	9	C10H10O-
147.0452	30	C9H7O2-
147.0815	23	C10H11O-
148.053	48	C9H8O2-
149.0608	600	C9H9O2-
150.0322	6	C8H6O3-
150.0683	2	C9H10O2-
151.04	40	C8H7O3-
151.0765	6	C9H11O2-
153.0194	4	C7H5O4-
154.0272	29	C7H6O4-
157.0659	4	C11H9O-
159.0451	7	C10H7O2-
159.0815	13	C11H11O-
160.053	5	C10H8O2-
161.0608	11	C10H9O2-
161.0972	51	C11H13O-
162.0686	15	C10H10O2-
163.0765	39	C10H11O2-
163.113	3	C11H15O-
164.0842	4	C10H12O2-
167.035	7	C8H7O4-
168.0427	9	C8H8O4-
171.0814	3	C12H11O-
173.0608	6	C11H9O2-
173.0973	4	C12H13O-
174.0684	2	C11H10O2-
175.0764	16	C11H11O2-
175.1128	20	C12H15O-
176.0843	5	C11H12O2-
177.0555	2	C10H9O3-
177.0924	3	C11H13O2-
179.1076	2	C11H15O2-
183.0812	1	C13H11O-
185.0971	2	C13H13O-
187.0764	18	C12H11O2-
187.1127	7	C13H15O-
189.0921	4	C12H13O2-
191.0713	3	C11H11O3-
199.0763	6	C13H11O2-
201.0919	2	C13H13O2-
201.1283	4	C14H17O-
203.1079	1	C13H15O2-
211.1127	1	C15H15O-
213.0919	3	C14H13O2-
214.1	6	C14H14O2-
215.1077	2	C14H15O2-
225.0917	1	C15H13O2-
227.108	2	C15H15O2-
229.1234	4	C15H17O2-
231.1388	1	C15H19O2-
237.0916	1	C16H13O2-
239.1077	1	C16H15O2-
241.1236	2	C16H17O2-
243.1385	3	C16H19O2-
253.1235	5	C17H17O2-
255.1028	3	C16H15O3-
256.1104	4	C16H16O3-
257.1547	4	C17H21O2-
259.1336	1	C16H19O3-
269.1548	15	C18H21O2-
271.134	17	C17H19O3-
283.1705	3	C19H23O2-
284.1418	1	C18H20O3-
