Mass spectrum: Albuterol; LC-ESI-ITFT; MS2; CE: 90%; R=7500; [M+H]+
Name: Albuterol
Name: Salbutamol
Name: 4-[2-(tert-butylamino)-1-hydroxy-ethyl]-2-methylol-phenol
Formula: C13H21NO3
Exact mass: 239.1521
SMILES: OCc1cc(ccc1O)C(O)CNC(C)(C)C
InChI: InChI=1S/C13H21NO3/c1-13(2,3)14-7-12(17)9-4-5-11(16)10(6-9)8-15/h4-6,12,14-17H,7-8H2,1-3H3
Instrument: LTQ Orbitrap XL Thermo Scientific
Instrument type: LC-ESI-ITFT
Ms type: MS2
Ion mode: POSITIVE
Ionization: ESI
Fragmentation mode: HCD
Collision energy: 90 % (nominal)
Resolution: 7500
Column name: XBridge C18 3.5um, 2.1x50mm, Waters
Retention time: 2.0 min
Base peak: 240.1602
Precursor m/z: 240.1594
Precursor type: [M+H]+
m/z	relative intensity	assigned
55.0179	47	C3H3O+
57.0699	120	C4H9+
68.0496	14	C4H6N+
77.0386	212	C6H5+
79.0543	366	C6H7+
80.0496	138	C5H6N+
81.0336	60	C5H5O+
91.0543	774	C7H7+
92.0497	20	C6H6N+
93.07	469	C7H9+
94.0651	58	C6H8N+
95.0493	32	C6H7O+
103.0543	446	C8H7+
105.0448	51	C6H5N2+
105.0575	53	C7H7N+
105.0695	22	C8H9+
106.0653	77	C7H8N+
107.0495	29	C7H7O+
117.0575	93	C8H7N+
118.0652	168	C8H8N+
119.0491	65	C8H7O+
119.073	23	C8H9N+
120.0809	481	C8H10N+
121.0649	999	C8H9O+
130.0652	707	C9H8N+
131.0492	133	C9H7O+
133.0523	616	C8H7NO+
135.0679	70	C8H9NO+
136.0762	32	C8H10NO+
146.0602	52	C9H8NO+
147.0679	52	C9H9NO+
148.0758	697	C9H10NO+
