Mass spectrum: Carbetamide; LC-ESI-ITFT; MS2; CE: 15%; R=7500; [M+H]+
Name: Carbetamide
Name: N-phenylcarbamic acid [1-(ethylamino)-1-oxopropan-2-yl] ester
Formula: C12H16N2O3
Exact mass: 236.1155
SMILES: CCNC(=O)C(C)OC(=O)NC1=CC=CC=C1
InChI: InChI=1S/C12H16N2O3/c1-3-13-11(15)9(2)17-12(16)14-10-7-5-4-6-8-10/h4-9H,3H2,1-2H3,(H,13,15)(H,14,16)
Instrument: LTQ Orbitrap XL Thermo Scientific
Instrument type: LC-ESI-ITFT
Ms type: MS2
Ion mode: POSITIVE
Ionization: ESI
Fragmentation mode: HCD
Collision energy: 15 % (nominal)
Resolution: 7500
Column name: XBridge C18 3.5um, 2.1x50mm, Waters
Retention time: 6.6 min
Base peak: 259.1057
Precursor m/z: 237.1234
Precursor type: [M+H]+
m/z	relative intensity	assigned
63.0441	8	C2H7O2+
72.0443	18	C3H6NO+
72.0808	130	C4H10N+
77.0384	9	C6H5+
92.0495	10	C6H6N+
100.0757	116	C5H10NO+
118.0864	693	C5H12NO2+
120.0445	999	C7H6NO+
138.0552	12	C7H8NO2+
144.0655	39	C6H10NO3+
164.0708	299	C9H10NO2+
192.0657	909	C10H10NO3+
237.1234	368	C12H17N2O3+
