Mass spectrum: Amitriptyline; LC-ESI-ITFT; MS2; CE: 35%; R=7500; [M+H]+
Name: Amitriptyline
Name: 3-(10,11-Dihydro-5H-dibenzo[a,d][7]annulen-5-ylidene)-N,N-dimethyl-1-propanamine
Formula: C20H23N
Exact mass: 277.1830
SMILES: C1(\c2c(CCc3c1cccc3)cccc2)=C\CCN(C)C
InChI: InChI=1S/C20H23N/c1-21(2)15-7-12-20-18-10-5-3-8-16(18)13-14-17-9-4-6-11-19(17)20/h3-6,8-12H,7,13-15H2,1-2H3
Instrument: LTQ Orbitrap XL Thermo Scientific
Instrument type: LC-ESI-ITFT
Ms type: MS2
Ion mode: POSITIVE
Ionization: ESI
Fragmentation mode: CID
Collision energy: 35 % (nominal)
Resolution: 7500
Column name: XBridge C18 3.5um, 2.1x50mm, Waters
Retention time: 8.6 min
Base peak: 278.1914
Precursor m/z: 278.1903
Precursor type: [M+H]+
m/z	relative intensity	assigned
84.0809	11	C5H10N+
91.0543	143	C7H7+
103.0542	7	C8H7+
105.07	158	C8H9+
115.0541	9	C9H7+
117.07	206	C9H9+
129.07	10	C10H9+
141.0701	18	C11H9+
155.0857	120	C12H11+
178.0776	12	C14H10+
179.0855	23	C14H11+
191.0857	120	C15H11+
193.101	7	C15H13+
204.0941	2	C16H12+
205.1013	25	C16H13+
207.1171	17	C16H15+
218.1089	18	C17H14+
233.1328	999	C18H17+
