Mass spectrum: Rufinamide; LC-ESI-QFT; MS2; CE: 30; R=35000; [M+H]+
Name: Rufinamide
Name: 1-(2,6-difluorobenzyl)triazole-4-carboxamide
Formula: C10H8F2N4O
Exact mass: 238.06662
SMILES: O=C(c1nnn(c1)Cc2c(F)cccc2F)N
InChI: InChI=1S/C10H8F2N4O/c11-7-2-1-3-8(12)6(7)4-16-5-9(10(13)17)14-15-16/h1-3,5H,4H2,(H2,13,17)
Instrument: Q Exactive Orbitrap Thermo Scientific
Instrument type: LC-ESI-QFT
Ms type: MS2
Ion mode: POSITIVE
Ionization: ESI
Fragmentation mode: HCD
Collision energy: 30 (nominal)
Resolution: 35000
Column name: XBridge C18 3.5um, 2.1x50mm, Waters
Retention time: 5.2 min
Base peak: 239.074
Precursor m/z: 239.0739
Precursor type: [M+H]+
m/z	relative intensity	assigned
57.0135	1	C3H2F+
68.0131	2	C3H2NO+
101.0196	1	C5H3F2+
127.0355	999	C7H5F2+
136.0557	4	C8H7FN+
139.0355	2	C8H5F2+
141.0147	1	C7H3F2O+
141.0511	7	C8H7F2+
142.0464	9	C7H6F2N+
144.062	11	C7H8F2N+
148.0558	12	C9H7FN+
156.062	10	C8H8F2N+
163.0668	6	C9H8FN2+
164.0509	1	C9H7FNO+
166.0464	22	C9H6F2N+
167.0542	29	C9H7F2N+
168.062	21	C9H8F2N+
183.073	8	C9H9F2N2+
191.0615	3	C10H8FN2O+
194.0412	3	C10H6F2NO+
211.0678	6	C10H9F2N2O+
222.0475	25	C10H6F2N3O+
239.074	15	C10H9F2N4O+
