Mass spectrum: Profoxydim; LC-ESI-QFT; MS2; CE: 75; R=35000; [M-H]-
Name: Profoxydim
Name: 2-[1-[2-(4-chlorophenoxy)propoxyamino]butylidene]-5-(thian-3-yl)cyclohexane-1,3-dione
Formula: C24H32ClNO4S
Exact mass: 465.17406
SMILES: CCCC(=C1C(=O)CC(CC1=O)C2CCCSC2)NOCC(C)OC3=CC=C(C=C3)Cl
InChI: InChI=1S/C24H32ClNO4S/c1-3-5-21(26-29-14-16(2)30-20-9-7-19(25)8-10-20)24-22(27)12-18(13-23(24)28)17-6-4-11-31-15-17/h7-10,16-18,26H,3-6,11-15H2,1-2H3
Instrument: Q Exactive Plus Orbitrap Thermo Scientific
Instrument type: LC-ESI-QFT
Ms type: MS2
Ion mode: NEGATIVE
Ionization: ESI
Fragmentation mode: HCD
Collision energy: 75 (nominal)
Resolution: 35000
Column name: XBridge C18 3.5um, 2.1x50mm, Waters
Retention time: 14.4 min
Base peak: 464.1659
Precursor m/z: 464.1668
Precursor type: [M-H]-
m/z	relative intensity	assigned
57.0346	9	C3H5O-
58.996	24	C2H3S-
60.9753	6	CHOS-
65.0396	8	C5H5-
65.9985	156	C3NO-
67.019	11	C4H3O-
68.0141	12	C3H2NO-
69.0346	130	C4H5O-
72.0039	3	C3H4S-
81.0709	3	C6H9-
82.0298	41	C4H4NO-
85.0117	3	C4H5S-
91.0189	11	C6H3O-
92.0505	16	C6H6N-
93.0346	1	C6H5O-
94.0297	9	C5H4NO-
95.0138	93	C5H3O2-
101.043	35	C5H9S-
106.0661	4	C7H8N-
107.0375	1	C6H5NO-
107.0501	7	C7H7O-
108.0215	1	C6H4O2-
108.0453	1	C6H6NO-
109.0168	1	C5H3NO2-
109.0294	17	C6H5O2-
110.061	12	C6H8NO-
118.0298	1	C7H4NO-
120.009	142	C6H2NO2-
120.0455	7	C7H6NO-
121.0658	16	C8H9O-
122.0611	3	C7H8NO-
123.0814	3	C8H11O-
126.0922	1	C7H12NO-
126.9956	575	C6H4ClO-
131.0374	8	C8H5NO-
132.0455	6	C8H6NO-
133.0657	2	C9H9O-
134.0247	467	C7H4NO2-
135.0325	36	C7H5NO2-
136.0402	17	C7H6NO2-
138.0383	2	C7H8NS-
140.0539	76	C7H10NS-
146.0248	1	C8H4NO2-
146.0613	3	C9H8NO-
148.0768	6	C9H10NO-
150.0196	8	C7H4NO3-
152.0356	1	C7H6NO3-
153.0378	1	C8H9OS-
158.061	8	C10H8NO-
160.0404	9	C9H6NO2-
160.0766	8	C10H10NO-
162.056	14	C9H8NO2-
163.0764	1	C10H11O2-
166.0329	7	C8H8NOS-
167.0224	11	C7H5NO4-
167.0535	31	C9H11OS-
169.0692	14	C9H13OS-
171.0482	1	C8H11O2S-
174.0557	3	C10H8NO2-
175.0638	3	C10H9NO2-
176.0717	4	C10H10NO2-
178.0871	3	C10H12NO2-
192.0488	202	C10H10NOS-
194.0643	152	C10H12NOS-
202.0873	4	C12H12NO2-
208.08	1	C11H14NOS-
218.0645	2	C12H12NOS-
235.091	2	C12H15N2OS-
236.0751	999	C12H14NO2S-
252.1064	1	C13H18NO2S-
264.1061	3	C14H18NO2S-
