Mass spectrum: Tritosulfuron; LC-ESI-ITFT; MS2; CE: 90%; R=30000; [M+H]+
Name: Tritosulfuron
Name: N-{[4-methoxy-6-(trifluoromethyl)-1,3,5-triazin-2-yl]carbamoyl}-2-(trifluoromethyl)benzenesulfonamide
Formula: C13H9F6N5O4S
Exact mass: 445.0279
SMILES: c1c(S(=O)(=O)NC(Nc2nc(nc(n2)C(F)(F)F)OC)=O)c(C(F)(F)F)ccc1
InChI: InChI=1S/C13H9F6N5O4S/c1-28-11-21-8(13(17,18)19)20-9(23-11)22-10(25)24-29(26,27)7-5-3-2-4-6(7)12(14,15)16/h2-5H,1H3,(H2,20,21,22,23,24,25)
Instrument: LTQ Orbitrap XL Thermo Scientific
Instrument type: LC-ESI-ITFT
Ms type: MS2
Ion mode: POSITIVE
Ionization: ESI
Fragmentation mode: HCD
Collision energy: 90 % (nominal)
Resolution: 30000
Column name: XBridge C18 3.5um, 2.1x50mm, Waters
Retention time: 10.8 min
Base peak: 446.0345
Precursor m/z: 446.0352
Precursor type: [M+H]+
m/z	relative intensity	assigned
68.9947	47	CF3+
69.0083	30	C2HN2O+
75.9993	8	C2F2N+
83.0239	26	C3H3N2O+
91.0102	16	C2HF2N2+
91.9942	28	C2F2NO+
95.0292	20	C6H4F+
102.0339	11	C7H4N+
110.0212	678	C3H3F3N+
113.0397	7	C6H6FO+
114.0276	13	C6H4F2+
119.0103	4	C5H2F3+
123.0353	150	C6H4FN2+
125.0198	66	C7H3F2+
127.0477	41	C3H6F3N2+
130.04	77	C7H4N3+
133.0205	4	C4H3F2N2O+
137.0272	3	C4H9O3S+
138.0273	7	C3H3F3N3+
141.0265	4	C6H3F2N2+
144.0003	13	C4F2N3O+
145.026	999	C7H4F3+
148.019	3	C3H2F2N4O+
148.0306	9	CH9FN2O3S+
168.0256	13	C8H4F2NO+
195.0488	4	C5H6F3N4O+
