Mass spectrum: Trifloxystrobin; LC-ESI-QFT; MS2; CE: 15; R=35000; [M+H]+
Name: Trifloxystrobin
Name: Benzeneacetic acid, alpha-(methoxyimino)-2-((((1-(3-(trifluoromethyl)phenyl)ethylidene)amino)oxy)methyl)-, methyl ester, (E,E)-
Name: (2Z)-2-methoxyimino-2-[2-[[(E)-1-[3-(trifluoromethyl)phenyl]ethylideneamino]oxymethyl]phenyl]acetic acid methyl ester
Formula: C20H19F3N2O4
Exact mass: 408.12969
SMILES: c1(C(F)(F)F)cc(ccc1)\C(=N\OCc1c(cccc1)\C(C(=O)OC)=N\OC)C
InChI: InChI=1S/C20H19F3N2O4/c1-13(14-8-6-9-16(11-14)20(21,22)23)24-29-12-15-7-4-5-10-17(15)18(25-28-3)19(26)27-2/h4-11H,12H2,1-3H3/b24-13+,25-18-
Instrument: Q Exactive Orbitrap Thermo Scientific
Instrument type: LC-ESI-QFT
Ms type: MS2
Ion mode: POSITIVE
Ionization: ESI
Fragmentation mode: HCD
Collision energy: 15 (nominal)
Resolution: 35000
Column name: XBridge C18 3.5um, 2.1x50mm, Waters
Retention time: 14.7 min
Base peak: 409.1362
Precursor m/z: 409.137
Precursor type: [M+H]+
m/z	relative intensity	assigned
105.0697	6	C8H9+
116.0492	140	C8H6N+
118.0649	2	C8H8N+
130.0647	1	C9H8N+
131.0727	46	C9H9N+
132.0805	63	C9H10N+
134.0596	5	C8H8NO+
145.0252	8	C7H4F3+
146.0597	8	C9H8NO+
147.0674	2	C9H9NO+
148.0755	3	C9H10NO+
162.0909	38	C10H12NO+
186.0521	999	C9H7F3N+
200.068	1	C10H9F3N+
206.0808	451	C11H12NO3+
