Mass spectrum: Imazamox; LC-ESI-ITFT; MS2; CE: 90%; R=7500; [M+H]+
Name: Imazamox
Name: 2-(4-isopropyl-5-keto-4-methyl-2-imidazolin-2-yl)-5-(methoxymethyl)nicotinic acid
Formula: C15H19N3O4
Exact mass: 305.1376
SMILES: O=C(O)c1c(ncc(c1)COC)/C2=N/C(C(=O)N2)(C(C)C)C
InChI: InChI=1S/C15H19N3O4/c1-8(2)15(3)14(21)17-12(18-15)11-10(13(19)20)5-9(6-16-11)7-22-4/h5-6,8H,7H2,1-4H3,(H,19,20)(H,17,18,21)
Instrument: LTQ Orbitrap XL Thermo Scientific
Instrument type: LC-ESI-ITFT
Ms type: MS2
Ion mode: POSITIVE
Ionization: ESI
Fragmentation mode: HCD
Collision energy: 90 % (nominal)
Resolution: 7500
Column name: XBridge C18 3.5um, 2.1x50mm, Waters
Retention time: 5.7 min
Base peak: 306.1456
Precursor m/z: 306.1448
Precursor type: [M+H]+
m/z	relative intensity	assigned
56.0494	18	C3H6N+
58.0653	8	C3H8N+
63.0227	12	C5H3+
65.0385	50	C5H5+
67.0416	11	C4H5N+
67.0542	33	C5H7+
69.0699	439	C5H9+
70.065	24	C4H8N+
71.073	83	C4H9N+
78.0339	10	C5H4N+
79.0415	31	C5H5N+
80.0493	23	C5H6N+
81.0332	9	C5H5O+
86.0964	924	C5H12N+
88.0182	115	C6H2N+
90.0338	47	C6H4N+
91.0418	18	C6H5N+
92.0495	218	C6H6N+
94.0528	16	C5H6N2+
105.0447	49	C6H5N2+
106.0287	17	C6H4NO+
106.0656	12	C7H8N+
107.0368	16	C6H5NO+
107.0603	126	C6H7N2+
108.0444	47	C6H6NO+
109.0649	17	C7H9O+
110.0602	46	C6H8NO+
111.0443	18	C6H7O2+
115.0291	49	C7H3N2+
116.037	14	C7H4N2+
117.0448	172	C7H5N2+
118.0525	292	C7H6N2+
119.0604	159	C7H7N2+
120.0443	90	C7H6NO+
120.0684	16	C7H8N2+
121.0395	28	C6H5N2O+
122.06	512	C7H8NO+
123.0679	45	C7H9NO+
131.0599	32	C8H7N2+
132.0321	17	C7H4N2O+
132.0561	7	C7H6N3+
133.0397	62	C7H5N2O+
133.0759	39	C8H9N2+
134.0473	28	C7H6N2O+
135.0553	68	C7H7N2O+
140.0706	260	C7H10NO2+
144.0317	104	C8H4N2O+
144.0807	15	C10H10N+
145.0396	578	C8H5N2O+
146.0237	29	C8H4NO2+
146.0475	43	C8H6N2O+
147.0552	145	C8H7N2O+
148.063	175	C8H8N2O+
149.0343	45	C7H5N2O2+
149.0709	116	C8H9N2O+
150.0424	17	C7H6N2O2+
150.0549	17	C8H8NO2+
151.0502	9	C7H7N2O2+
151.0863	15	C8H11N2O+
155.0575	35	C7H9NO3+
158.0705	14	C9H8N3+
159.0551	40	C9H7N2O+
159.0795	18	C9H9N3+
160.0498	38	C8H6N3O+
160.0631	189	C9H8N2O+
161.0581	182	C8H7N3O+
161.0713	229	C9H9N2O+
162.0424	291	C8H6N2O2+
162.066	27	C8H8N3O+
163.0502	999	C8H7N2O2+
164.034	13	C8H6NO3+
165.0657	40	C8H9N2O2+
168.0656	41	C8H10NO3+
171.0922	17	C11H11N2+
173.0709	17	C10H9N2O+
175.0505	417	C9H7N2O2+
176.0584	25	C9H8N2O2+
177.0659	69	C9H9N2O2+
179.0451	15	C8H7N2O3+
184.0991	11	C12H12N2+
186.066	16	C10H8N3O+
187.074	106	C10H9N3O+
188.0823	22	C10H10N3O+
191.0813	295	C10H11N2O2+
192.0767	72	C9H10N3O2+
193.0609	133	C9H9N2O3+
197.0706	8	C12H9N2O+
204.0894	5	C11H12N2O2+
212.0942	6	C13H12N2O+
215.0689	80	C11H9N3O2+
216.0765	16	C11H10N3O2+
218.0921	96	C11H12N3O2+
230.0928	10	C14H14O3+
306.1455	10	C15H20N3O4+
