Mass spectrum: Cilastatin; LC-ESI-ITFT; MS2; CE: 15%; R=7500; [M+H]+
Name: Cilastatin
Formula: C16H26N2O5S
Exact mass: 358.1562
SMILES: [H][C@](N)(CSCCCC\C=C(/NC(=O)[C@@]1([H])CC1(C)C)C(O)=O)C(O)=O
InChI: InChI=1S/C16H26N2O5S/c1-16(2)8-10(16)13(19)18-12(15(22)23)6-4-3-5-7-24-9-11(17)14(20)21/h6,10-11H,3-5,7-9,17H2,1-2H3,(H,18,19)(H,20,21)(H,22,23)/b12-6-/t10-,11+/m1/s1
Instrument: LTQ Orbitrap XL Thermo Scientific
Instrument type: LC-ESI-ITFT
Ms type: MS2
Ion mode: POSITIVE
Ionization: ESI
Fragmentation mode: HCD
Collision energy: 15 % (nominal)
Resolution: 7500
Column name: XBridge C18 3.5um, 2.1x50mm, Waters
Retention time: 5.2 min
Base peak: 359.1645
Precursor m/z: 359.1635
Precursor type: [M+H]+
m/z	relative intensity	assigned
97.0644	37	C6H9O+
98.0964	3	C6H12N+
113.0416	2	C6H9S+
115.0574	6	C6H11S+
130.0684	11	C6H12NS+
156.0837	4	C8H14NS+
166.0866	2	C9H12NO2+
174.058	5	C7H12NO2S+
184.0977	2	C9H14NO3+
200.0733	3	C9H14NO2S+
202.0894	60	C9H16NO2S+
217.101	4	C9H17N2O2S+
219.116	14	C9H19N2O2S+
226.1248	2	C10H18N4S+
238.1442	5	C13H20NO3+
246.079	6	C16H10N2O+
263.1059	9	C10H19N2O4S+
313.1584	7	C15H25N2O3S+
315.1733	62	C15H27N2O3S+
341.1528	13	C16H25N2O4S+
342.1367	30	C16H24NO5S+
359.1636	999	C16H27N2O5S+
