Mass spectrum: 10phiC10SPC; LC-ESI-QFT; MS2; CE: 150; R=35000; [M-H]-
Name: 10phiC10SPC
Name: Decacarboxy sulfophenyl carboxylic acid
Name: 10-(4-sulfophenyl)octanoic acid
Formula: C16H24O5S
Exact mass: 328.13444
SMILES: OS(=O)(=O)c1ccc(CCCCCCCCCC(=O)O)cc1
InChI: InChI=1S/C16H24O5S/c17-16(18)9-7-5-3-1-2-4-6-8-14-10-12-15(13-11-14)22(19,20)21/h10-13H,1-9H2,(H,17,18)(H,19,20,21)
Instrument: Q Exactive Plus Orbitrap Thermo Scientific
Instrument type: LC-ESI-QFT
Ms type: MS2
Ion mode: NEGATIVE
Ionization: ESI
Fragmentation mode: HCD
Collision energy: 150 (nominal)
Resolution: 35000
Column name: XBridge C18 3.5um, 2.1x50mm, Waters
Retention time: 10.9 min
Base peak: 327.1268
Precursor m/z: 327.1272
Precursor type: [M-H]-
m/z	relative intensity	assigned
63.9625	53	O2S-
79.9574	999	O3S-
80.9651	15	HO3S-
91.0554	2	C7H7-
93.0346	10	C6H5O-
117.0347	1	C8H5O-
119.0502	63	C8H7O-
155.9889	2	C6H4O3S-
170.0044	3	C7H6O3S-
183.0121	6	C8H7O3S-
