Mass spectrum: Bufexamac; LC-ESI-QFT; MS2; CE: 90; R=35000; [M+H]+
Name: Bufexamac
Name: 2-(4-butoxyphenyl)-N-hydroxyacetamide
Formula: C12H17NO3
Exact mass: 223.12084
SMILES: CCCCOC1=CC=C(C=C1)CC(=O)NO
InChI: InChI=1S/C12H17NO3/c1-2-3-8-16-11-6-4-10(5-7-11)9-12(14)13-15/h4-7,15H,2-3,8-9H2,1H3,(H,13,14)
Instrument: Q Exactive Orbitrap Thermo Scientific
Instrument type: LC-ESI-QFT
Ms type: MS2
Ion mode: POSITIVE
Ionization: ESI
Fragmentation mode: HCD
Collision energy: 90 (nominal)
Resolution: 35000
Column name: XBridge C18 3.5um, 2.1x50mm, Waters
Retention time: 8.4 min
Base peak: 224.1282
Precursor m/z: 224.1281
Precursor type: [M+H]+
m/z	relative intensity	assigned
50.0152	2	C4H2+
51.023	1	C4H3+
53.0023	2	C3HO+
53.0386	4	C4H5+
57.0699	8	C4H9+
65.0386	4	C5H5+
67.0542	6	C5H7+
77.0385	39	C6H5+
78.0464	1	C6H6+
79.0542	75	C6H7+
80.0495	8	C5H6N+
81.0335	11	C5H5O+
93.0573	1	C6H7N+
94.0413	7	C6H6O+
94.065	9	C6H8N+
95.0491	129	C6H7O+
104.0494	6	C7H6N+
105.0448	56	C6H5N2+
106.0415	1	C7H6O+
107.0491	999	C7H7O+
108.0442	8	C6H6NO+
122.06	9	C7H8NO+
133.0522	5	C8H7NO+
