Mass spectrum: Chlorthiazide; LC-ESI-QFT; MS2; CE: 60; R=35000; [M-H]-
Name: Chlorthiazide
Name: 6-chloro-1,1-dioxo-4H-1$l^{6},2,4-benzothiadiazine-7-sulfonamide
Formula: C7H6ClN3O4S2
Exact mass: 294.94883
SMILES: C1=C2C(=CC(=C1Cl)S(=O)(=O)N)S(=O)(=O)NC=N2
InChI: InChI=1S/C7H6ClN3O4S2/c8-4-1-5-7(2-6(4)16(9,12)13)17(14,15)11-3-10-5/h1-3H,(H,10,11)(H2,9,12,13)
Instrument: Q Exactive Plus Orbitrap Thermo Scientific
Instrument type: LC-ESI-QFT
Ms type: MS2
Ion mode: NEGATIVE
Ionization: ESI
Fragmentation mode: HCD
Collision energy: 60 (nominal)
Resolution: 35000
Column name: XBridge C18 3.5um, 2.1x50mm, Waters
Retention time: 1.9 min
Base peak: 293.9414
Precursor m/z: 293.9415
Precursor type: [M-H]-
m/z	relative intensity	assigned
50.0035	1	C3N-
63.0115	1	C4HN-
63.9625	1	O2S-
65.9986	18	C3NO-
67.0064	1	C3HNO-
77.9655	12	NO2S-
79.0064	3	C4HNO-
81.9757	1	C3NS-
82.9836	1	C3HNS-
89.9985	1	C5NO-
90.0224	16	C5H2N2-
91.0064	4	C5HNO-
93.0095	2	C4HN2O-
95.0013	1	C4HNO2-
98.9313	1	ClO2S-
106.0173	2	C5H2N2O-
113.0146	1	C7HN2-
114.0223	6	C7H2N2-
115.0302	6	C7H3N2-
118.0174	51	C6H2N2O-
119.0013	32	C6HNO2-
119.0251	9	C6H3N2O-
120.0091	16	C6H2NO2-
121.9944	1	C5H2N2S-
122.9785	1	C5HNOS-
122.9882	1	C6H2ClN-
125.9991	4	C5H3ClN2-
126.9831	21	C5H2ClNO-
129.0333	1	C7H3N3-
130.0172	3	C7H2N2O-
134.0122	5	C6H2N2O2-
134.9963	1	C6HNO3-
137.999	1	C6H3ClN2-
138.983	2	C6H2ClNO-
142.9778	3	C5H2ClNO2-
146.0121	4	C7H2N2O2-
146.036	10	C7H4N3O-
147.0201	4	C7H3N2O2-
148.9911	3	C7H2ClN2-
149.999	6	C7H3ClN2-
151.0069	35	C7H4ClN2-
152.9861	10	C6H2ClN2O-
154.9781	26	C6H2ClNO2-
162.95	1	C4H2ClNO2S-
165.9841	1	C6H2N2O2S-
165.994	2	C7H3ClN2O-
167.0014	1	C7H4ClN2O-
170.9731	2	C6H2ClNO3-
172.9883	1	C6H4ClNO3-
177.9843	3	C7H2N2O2S-
178.9921	55	C7H3N2O2S-
180.9811	2	C7H2ClN2O2-
181.9792	28	C6H2N2O3S-
182.987	46	C6H3N2O3S-
185.9738	2	C5H2N2O4S-
192.9951	10	C7H3N3O2S-
201.9615	2	C6H3ClN2O2S-
209.9741	1	C7H2N2O4S-
209.9979	2	C7H4N3O3S-
210.982	7	C7H3N2O4S-
213.961	999	C7H3ClN2O2S-
214.9689	307	C7H4ClN2O2S-
216.9479	11	C6H2ClN2O3S-
229.9558	44	C7H3ClN2O3S-
229.9793	9	C7H5ClN3O2S-
257.9644	2	C7H4N3O4S2-
293.9418	222	C7H5ClN3O4S2-
