Mass spectrum: Pirimicarb-desamido; LC-ESI-QFT; MS2; CE: 60%; R=17500; [M+H]+
Name: Pirimicarb-desamido
Name: 2-(dimethylamino)-5,6-dimethyl-1H-pyrimidin-4-one
Formula: C8H13N3O
Exact mass: 167.1059
SMILES: CC1=C(N=C(N=C1C)N(C)C)O
InChI: InChI=1S/C8H13N3O/c1-5-6(2)9-8(11(3)4)10-7(5)12/h1-4H3,(H,9,10,12)
Instrument: Q Exactive Plus Orbitrap Thermo Scientific
Instrument type: LC-ESI-QFT
Ms type: MS2
Ion mode: POSITIVE
Ionization: ESI
Fragmentation mode: HCD
Collision energy: 60 % (nominal)
Resolution: 17500
Column name: XBridge C18 3.5um, 2.1x50mm, Waters
Retention time: 1.434 min
Base peak: 168.1132
Precursor m/z: 168.1131
Precursor type: [M+H]+
m/z	relative intensity	assigned
55.0291	2	C2H3N2+
55.0542	24	C4H7+
56.0368	3	C2H4N2+
68.0495	7	C4H6N+
69.0083	18	C2HN2O+
70.0651	52	C4H8N+
71.0604	498	C3H7N2+
72.0443	4	C3H6NO+
98.06	552	C5H8NO+
109.076	84	C6H9N2+
114.0663	2	C4H8N3O+
123.0552	189	C6H7N2O+
124.063	6	C6H8N2O+
125.071	5	C6H9N2O+
150.1025	69	C8H12N3+
153.0896	25	C7H11N3O+
156.0532	3	
166.0974	17	C8H12N3O+
168.1132	999	C8H14N3O+
