Mass spectrum: Tramadol N-Oxide; LC-ESI-QFT; MS2; CE: 180; R=35000; [M+H]+
Name: Tramadol N-Oxide
Name: 1-[(1R,2R)-2-hydroxy-2-(3-methoxyphenyl)cyclohexyl]-N,N-dimethylmethanamine oxide
Formula: C16H25NO3
Exact mass: 279.18344
SMILES: [O-][N+](C)(C)C[C@H]2CCCC[C@]2(O)c1cc(OC)ccc1
InChI: InChI=1S/C16H25NO3/c1-17(2,19)12-14-7-4-5-10-16(14,18)13-8-6-9-15(11-13)20-3/h6,8-9,11,14,18H,4-5,7,10,12H2,1-3H3/t14-,16+/m1/s1
Instrument: Q Exactive Plus Orbitrap Thermo Scientific
Instrument type: LC-ESI-QFT
Ms type: MS2
Ion mode: POSITIVE
Ionization: ESI
Fragmentation mode: HCD
Collision energy: 180 (nominal)
Resolution: 35000
Column name: XBridge C18 3.5um, 2.1x50mm, Waters
Retention time: 5.1 min
Base peak: 280.1904
Precursor m/z: 280.1907
Precursor type: [M+H]+
m/z	relative intensity	assigned
50.0151	252	C4H2+
51.023	501	C4H3+
52.0307	53	C4H4+
53.0022	46	C3HO+
53.0386	128	C4H5+
53.9974	10	C2NO+
54.0338	9	C3H4N+
54.0464	50	C4H6+
55.0178	23	C3H3O+
55.0542	30	C4H7+
56.0495	74	C3H6N+
57.0334	2	C3H5O+
57.0573	8	C3H7N+
58.0651	303	C3H8N+
60.0444	3	C2H6NO+
61.0073	14	C5H+
62.0151	68	C5H2+
63.0229	999	C5H3+
64.0307	374	C5H4+
65.0386	469	C5H5+
66.0464	56	C5H6+
67.0416	4	C4H5N+
67.0542	14	C5H7+
67.9893	10	C3O2+
68.0495	22	C4H6N+
68.9972	2	C3HO2+
70.0651	4	C4H8N+
74.0151	12	
75.0229	27	C6H3+
76.0307	33	C6H4+
77.0385	252	C6H5+
78.0464	428	C6H6+
79.0543	31	C6H7+
80.0255	2	C5H4O+
80.0494	5	C5H6N+
81.0334	31	C5H5O+
82.065	2	C5H8N+
89.0386	129	C7H5+
90.0465	3	C7H6+
91.0542	265	C7H7+
92.0257	356	C6H4O+
92.0369	37	C5H4N2+
94.0413	30	C6H6O+
94.0652	25	C6H8N+
95.0491	341	C6H7O+
102.0464	103	C8H6+
103.0542	69	C8H7+
104.0619	2	C8H8+
105.0447	194	C6H5N2+
106.0414	4	C7H6O+
107.0491	3	C7H7O+
114.0466	2	C9H6+
115.0542	588	C9H7+
116.0621	28	C9H8+
117.0697	2	C9H9+
119.0491	3	C8H7O+
121.0647	9	C8H9O+
126.0465	25	C10H6+
127.0542	36	C10H7+
128.062	174	C10H8+
129.0446	4	C8H5N2+
129.0697	11	C10H9+
131.0492	16	C9H7O+
139.0542	8	C11H7+
141.0698	15	C11H9+
145.0649	19	C10H9O+
152.062	13	C12H8+
153.0698	2	C12H9+
155.0604	30	C10H7N2+
