Mass spectrum: Diuron; LC-ESI-QFT; MS2; CE: 150%; R=15000; [M+H]+
Name: Diuron
Name: 3-(3,4-dichlorophenyl)-1,1-dimethylurea
Formula: C9H10Cl2N2O
Exact mass: 232.0170183
SMILES: CN(C)C(=O)NC1=CC(Cl)=C(Cl)C=C1
InChI: InChI=1S/C9H10Cl2N2O/c1-13(2)9(14)12-6-3-4-7(10)8(11)5-6/h3-5H,1-2H3,(H,12,14)
Instrument: Q Exactive Plus
Instrument type: LC-ESI-QFT
Ms type: MS2
Ion mode: POSITIVE
Ionization: ESI
Fragmentation mode: HCD
Collision energy: 150 % (nominal)
Resolution: 15000
Column name: XBridge C18 3.5um, 2.1x50mm, Waters
Retention time: 7.879 min
Base peak: 233.0244
Precursor m/z: 233.0243
Precursor type: [M+H]+
Precursor intensity: 345293009.05
m/z	relative intensity	assigned
56.0131	256	C2H2NO+
63.0229	49	C5H3+
72.0444	999	C3H6NO+
72.984	162	C3H2Cl+
74.0151	151	C6H2+
82.9449	77	CHCl2+
90.0338	46	C6H4N+
108.984	85	C6H2Cl+
125.0025	76	C6H4ClN+
132.9606	136	C5H3Cl2+
