Mass spectrum: Diphenamid; LC-ESI-QFT; MS2; CE: 120%; R=17500; [M+H]+
Name: Diphenamid
Name: N,N-dimethyl-2,2-diphenylacetamide
Formula: C16H17NO
Exact mass: 239.1310
SMILES: CN(C)C(=O)C(C1=CC=CC=C1)C2=CC=CC=C2
InChI: InChI=1S/C16H17NO/c1-17(2)16(18)15(13-9-5-3-6-10-13)14-11-7-4-8-12-14/h3-12,15H,1-2H3
Instrument: Exploris 240 Orbitrap Thermo Scientific
Instrument type: LC-ESI-QFT
Ms type: MS2
Ion mode: POSITIVE
Ionization: ESI
Fragmentation mode: HCD
Collision energy: 120 % (nominal)
Resolution: 17500
Column name: XBridge C18 3.5um, 2.1x50mm, Waters
Retention time: 7.502 min
Base peak: 274.2526
Precursor m/z: 240.1383
Precursor type: [M+H]+
m/z	relative intensity	assigned
56.0495	22	C3H6N+
65.0386	54	C5H5+
72.0444	286	C3H6NO+
77.0387	41	C6H5+
91.0542	926	C7H7+
93.0697	13	C7H9+
103.0545	23	C8H7+
105.0699	29	C8H9+
118.0652	737	C8H8N+
119.0732	90	C8H9N+
128.062	84	C10H8+
132.0808	51	C9H10N+
134.0964	999	C9H12N+
141.0701	68	C11H9+
151.0546	26	C12H7+
152.062	766	C12H8+
165.0699	803	C13H9+
166.0779	120	C13H10+
167.0854	22	C13H11+
