Mass spectrum: Isoxaflutole; LC-ESI-QFT; MS2; CE: 120; R=35000; [M-H]-
Name: Isoxaflutole
Name: (5-cyclopropyl-1,2-oxazol-4-yl)-[2-methylsulfonyl-4-(trifluoromethyl)phenyl]methanone
Formula: C15H12F3NO4S
Exact mass: 359.04391
SMILES: O=C(c1c(onc1)C2CC2)c3ccc(cc3S(=O)(=O)C)C(F)(F)F
InChI: InChI=1S/C15H12F3NO4S/c1-24(21,22)12-6-9(15(16,17)18)4-5-10(12)13(20)11-7-19-23-14(11)8-2-3-8/h4-8H,2-3H2,1H3
Instrument: Q Exactive Plus Orbitrap Thermo Scientific
Instrument type: LC-ESI-QFT
Ms type: MS2
Ion mode: NEGATIVE
Ionization: ESI
Fragmentation mode: HCD
Collision energy: 120 (nominal)
Resolution: 35000
Column name: XBridge C18 3.5um, 2.1x50mm, Waters
Retention time: 8.6 min
Base peak: 358.0367
Precursor m/z: 358.0366
Precursor type: [M-H]-
m/z	relative intensity	assigned
50.0036	1	C3N-
55.019	1	C3H3O-
60.9755	3	CHOS-
63.9625	999	O2S-
65.9986	28	C3NO-
67.019	1	C4H3O-
73.0085	4	C6H-
74.0038	1	C5N-
78.986	38	CH3O2S-
90.035	2	C6H4N-
93.0147	1	C6H2F-
97.0084	2	C8H-
99.0242	1	C8H3-
108.0456	1	C6H6NO-
117.0148	1	C8H2F-
121.0097	1	C7H2FO-
122.0036	2	C9N-
148.0196	2	C11H2N-
162.0164	1	C3H8F2O3S-
