Mass spectrum: Indapamide; LC-ESI-QFT; MS2; CE: 15; R=35000; [M+H]+
Name: Indapamide
Name: 4-chloro-N-(2-methyl-2,3-dihydroindol-1-yl)-3-sulfamoylbenzamide
Formula: C16H16ClN3O3S
Exact mass: 365.06009
SMILES: CC1CC2=CC=CC=C2N1NC(=O)C3=CC(=C(C=C3)Cl)S(=O)(=O)N
InChI: InChI=1S/C16H16ClN3O3S/c1-10-8-11-4-2-3-5-14(11)20(10)19-16(21)12-6-7-13(17)15(9-12)24(18,22)23/h2-7,9-10H,8H2,1H3,(H,19,21)(H2,18,22,23)
Instrument: Q Exactive Plus Orbitrap Thermo Scientific
Instrument type: LC-ESI-QFT
Ms type: MS2
Ion mode: POSITIVE
Ionization: ESI
Fragmentation mode: HCD
Collision energy: 15 (nominal)
Resolution: 35000
Column name: XBridge C18 3.5um, 2.1x50mm, Waters
Retention time: 6.7 min
Base peak: 366.0667
Precursor m/z: 366.0674
Precursor type: [M+H]+
m/z	relative intensity	assigned
91.054	4	C7H7+
117.0571	3	C8H7N+
130.0652	1	C9H8N+
132.0807	999	C9H10N+
133.0885	6	C9H11N+
217.9673	1	C7H5ClNO3S+
234.9939	13	C7H8ClN2O3S+
348.0564	1	C16H15ClN3O2S+
366.0675	137	C16H17ClN3O3S+
