Mass spectrum: 3,4,5-Trimethacarb; LC-ESI-QFT; MS2; CE: 90%; R=17500; [M+H]+
Name: 3,4,5-Trimethacarb
Name: 3,4,5-Trimethylphenyl methylcarbamate
Name: (3,4,5-trimethylphenyl) N-methylcarbamate
Formula: C11H15NO2
Exact mass: 193.1103
SMILES: CC1=CC(=CC(=C1C)C)OC(=O)NC
InChI: InChI=1S/C11H15NO2/c1-7-5-10(14-11(13)12-4)6-8(2)9(7)3/h5-6H,1-4H3,(H,12,13)
Instrument: Exploris 240 Orbitrap Thermo Scientific
Instrument type: LC-ESI-QFT
Ms type: MS2
Ion mode: POSITIVE
Ionization: ESI
Fragmentation mode: HCD
Collision energy: 90 % (nominal)
Resolution: 17500
Column name: XBridge C18 3.5um, 2.1x50mm, Waters
Retention time: 7.147 min
Base peak: 137.096
Precursor m/z: 194.1176
Precursor type: [M+H]+
m/z	relative intensity	assigned
53.0386	9	C4H5+
55.0542	24	C4H7+
58.0286	19	C2H4NO+
67.0542	221	C5H7+
77.0385	53	C6H5+
79.0542	46	C6H7+
81.0699	66	C6H9+
91.0542	100	C7H7+
93.0699	34	C7H9+
94.0778	17	C7H10+
95.049	17	C6H7O+
95.0855	21	C7H11+
103.0544	21	C8H7+
104.0619	15	C8H8+
107.0492	350	C7H7O+
109.1012	181	C8H13+
117.0696	12	C9H9+
119.0855	74	C9H11+
121.0648	117	C8H9O+
122.0726	999	C8H10O+
135.0804	39	C9H11O+
137.096	297	C9H13O+
