Mass spectrum: Repaglinide; LC-ESI-QFT; MS2; CE: 180; R=35000; [M+H]+
Name: Repaglinide
Name: 2-ethoxy-4-[2-[[3-methyl-1-(2-piperidin-1-ylphenyl)butyl]amino]-2-oxoethyl]benzoic acid
Formula: C27H36N2O4
Exact mass: 452.26751
SMILES: CCOC1=C(C=CC(=C1)CC(=O)NC(CC(C)C)C2=CC=CC=C2N3CCCCC3)C(=O)O
InChI: InChI=1S/C27H36N2O4/c1-4-33-25-17-20(12-13-22(25)27(31)32)18-26(30)28-23(16-19(2)3)21-10-6-7-11-24(21)29-14-8-5-9-15-29/h6-7,10-13,17,19,23H,4-5,8-9,14-16,18H2,1-3H3,(H,28,30)(H,31,32)
Instrument: Q Exactive Plus Orbitrap Thermo Scientific
Instrument type: LC-ESI-QFT
Ms type: MS2
Ion mode: POSITIVE
Ionization: ESI
Fragmentation mode: HCD
Collision energy: 180 (nominal)
Resolution: 35000
Column name: XBridge C18 3.5um, 2.1x50mm, Waters
Retention time: 9.7 min
Base peak: 453.2744
Precursor m/z: 453.2748
Precursor type: [M+H]+
m/z	relative intensity	assigned
50.0151	98	C4H2+
51.023	70	C4H3+
52.0181	2	C3H2N+
53.0022	36	C3HO+
53.0386	162	C4H5+
53.9975	10	C2NO+
54.0339	2	C3H4N+
55.0179	9	C3H3O+
55.0543	11	C4H7+
56.0495	3	C3H6N+
62.0151	23	C5H2+
63.0229	134	C5H3+
64.0308	39	C5H4+
65.0386	771	C5H5+
66.0464	47	C5H6+
67.0417	11	C4H5N+
67.0543	7	C5H7+
67.9894	2	C3O2+
68.0257	2	C4H4O+
68.997	2	C3HO2+
75.0229	29	C6H3+
76.0307	9	C6H4+
77.0385	219	C6H5+
78.0338	9	C5H4N+
78.0464	42	C6H6+
79.0542	61	C6H7+
80.0494	8	C5H6N+
81.0335	24	C5H5O+
82.0651	2	C5H8N+
89.0386	894	C7H5+
90.0465	471	C7H6+
91.0543	999	C7H7+
92.0495	4	C6H6N+
93.0574	18	C6H7N+
94.0413	13	C6H6O+
95.0492	616	C6H7O+
96.0444	7	C5H6NO+
101.0386	6	C8H5+
102.0464	95	C8H6+
103.0543	464	C8H7+
104.0495	27	C7H6N+
104.062	7	C8H8+
105.0448	339	C6H5N2+
106.0652	41	C7H8N+
109.0648	1	C7H9O+
115.0543	471	C9H7+
116.0496	47	C8H6N+
116.0621	53	C9H8+
117.0573	433	C8H7N+
117.0698	43	C9H9+
118.0651	68	C8H8N+
119.0492	9	C8H7O+
119.0729	1	C8H9N+
120.0809	1	C8H10N+
121.0285	1	C7H5O2+
122.0363	1	C7H6O2+
126.0464	9	C10H6+
127.0543	18	C10H7+
128.0495	116	C9H6N+
128.0621	59	C10H8+
129.0448	33	C8H5N2+
129.0573	41	C9H7N+
129.0699	17	C10H9+
130.0652	914	C9H8N+
131.073	24	C9H9N+
132.0809	3	C9H10N+
134.0601	3	C8H8NO+
140.0494	7	C10H6N+
141.0699	3	C11H9+
142.0652	76	C10H8N+
143.073	178	C10H9N+
144.0808	125	C10H10N+
145.065	13	C10H9O+
146.0601	40	C9H8NO+
152.0622	1	C12H8+
154.0652	18	C11H8N+
155.0605	27	C10H7N2+
155.0731	6	C11H9N+
156.0809	41	C11H10N+
157.0884	11	C11H11N+
158.0965	17	C11H12N+
160.0758	1	C10H10NO+
161.0476	1	C9H7NO2+
167.0728	6	C12H9N+
168.0808	6	C12H10N+
170.0965	13	C12H12N+
172.112	2	C12H14N+
