Mass spectrum: Ranitidine-S-oxide; LC-ESI-ITFT; MS2; CE: 45%; R=15000; [M+H]+
Name: Ranitidine-S-oxide
Name: 1,1-Ethenediamine, N-(2-(((5-((dimethylamino)methyl)-2-furanyl)methyl)sulfinyl)ethyl)-N'-methyl-2-nitro-
Formula: C13H22N4O4S
Exact mass: 330.1362
SMILES: [O-][N+](=O)\C=C(/NC)NCCS(=O)Cc1oc(cc1)CN(C)C
InChI: InChI=1S/C13H22N4O4S/c1-14-13(9-17(18)19)15-6-7-22(20)10-12-5-4-11(21-12)8-16(2)3/h4-5,9,14-15H,6-8,10H2,1-3H3/b13-9+
Instrument: LTQ Orbitrap XL Thermo Scientific
Instrument type: LC-ESI-ITFT
Ms type: MS2
Ion mode: POSITIVE
Ionization: ESI
Fragmentation mode: HCD
Collision energy: 45 % (nominal)
Resolution: 15000
Column name: XBridge C18 3.5um, 2.1x50mm, Waters
Retention time: 0.8 min
Base peak: 331.1445
Precursor m/z: 331.1435
Precursor type: [M+H]+
m/z	relative intensity	assigned
56.0494	6	C3H6N+
58.0651	18	C3H8N+
66.0465	5	C5H6+
67.0542	8	C5H7+
68.0495	33	C4H6N+
81.0699	14	C6H9+
82.0652	42	C5H8N+
84.0683	17	C4H8N2+
93.07	13	C7H9+
94.0414	292	C6H6O+
95.0492	87	C6H7O+
95.0729	14	C6H9N+
96.0571	17	C6H8O+
97.0761	15	C5H9N2+
98.0839	27	C5H10N2+
99.0554	5	C4H7N2O+
102.0372	11	C4H8NS+
108.0808	42	C7H10N+
110.0965	999	C7H12N+
117.0245	6	C4H7NOS+
125.0054	9	C6H5OS+
130.056	24	C5H10N2S+
130.0614	19	C4H8N3O2+
138.0915	663	C8H12NO+
139.0991	8	C8H13NO+
143.0162	17	C6H7O2S+
146.0509	9	C5H10N2OS+
147.0587	10	C5H11N2OS+
176.0489	10	C13H6N+
192.0438	30	C11H4N4+
222.0823	6	C11H14N2OS+
240.0922	3	C11H16N2O2S+
