Mass spectrum: 2-Mercaptobenzothiazole; LC-ESI-QFT; MS2; CE: 75; R=35000; [M+H]+
Name: 2-Mercaptobenzothiazole
Name: 1,3-Benzothiazole-2(3H)-thione
Name: 3H-1,3-benzothiazole-2-thione
Formula: C7H5NS2
Exact mass: 166.98634
SMILES: S=C2Sc1ccccc1N2
InChI: InChI=1S/C7H5NS2/c9-7-8-5-3-1-2-4-6(5)10-7/h1-4H,(H,8,9)
Instrument: Q Exactive Plus Orbitrap Thermo Scientific
Instrument type: LC-ESI-QFT
Ms type: MS2
Ion mode: POSITIVE
Ionization: ESI
Fragmentation mode: HCD
Collision energy: 75 (nominal)
Resolution: 35000
Column name: XBridge C18 3.5um, 2.1x50mm, Waters
Retention time: 6.7 min
Base peak: 167.9936
Precursor m/z: 167.9936
Precursor type: [M+H]+
m/z	relative intensity	assigned
51.0229	1	C4H3+
53.0386	2	C4H5+
65.0386	150	C5H5+
66.0464	3	C5H6+
68.9791	4	C3HS+
77.0384	10	C6H5+
80.0494	38	C5H6N+
84.0028	1	C4H4S+
90.0339	7	C6H4N+
91.0417	2	C6H5N+
92.0495	326	C6H6N+
95.0491	10	
97.0107	3	C5H5S+
104.0495	13	C7H6N+
105.0448	6	C6H5N2+
106.995	1	C6H3S+
108.0028	10	C6H4S+
109.0107	352	C6H5S+
110.0185	152	C6H6S+
124.0216	479	C6H6NS+
134.0059	30	C7H4NS+
135.0137	945	C7H5NS+
136.0216	331	C7H6NS+
140.9827	27	C6H5S2+
150.001	2	C7H4NOS+
152.0163	4	C7H6NOS+
166.9857	5	C7H5NS2+
167.9936	999	C7H6NS2+
