Mass spectrum: Exemestane; LC-ESI-ITFT; MS2; CE: 90%; R=7500; [M+H]+
Name: Exemestane
Name: (8R,9S,10R,13S,14S)-10,13-dimethyl-6-methylene-7,8,9,11,12,14,15,16-octahydrocyclopenta[a]phenanthrene-3,17-dione
Formula: C20H24O2
Exact mass: 296.1776
SMILES: CC12CCC3C(C1CCC2=O)CC(=C)C4=CC(=O)C=CC34C
InChI: InChI=1S/C20H24O2/c1-12-10-14-15-4-5-18(22)20(15,3)9-7-16(14)19(2)8-6-13(21)11-17(12)19/h6,8,11,14-16H,1,4-5,7,9-10H2,2-3H3/t14-,15-,16-,19+,20-/m0/s1
Instrument: LTQ Orbitrap XL Thermo Scientific
Instrument type: LC-ESI-ITFT
Ms type: MS2
Ion mode: POSITIVE
Ionization: ESI
Fragmentation mode: HCD
Collision energy: 90 % (nominal)
Resolution: 7500
Column name: XBridge C18 3.5um, 2.1x50mm, Waters
Retention time: 10.1 min
Base peak: 297.1859
Precursor m/z: 297.1849
Precursor type: [M+H]+
m/z	relative intensity	assigned
53.0386	38	C4H5+
67.0542	113	C5H7+
77.0385	235	C6H5+
79.0542	774	C6H7+
81.0699	83	C6H9+
91.0542	999	C7H7+
93.0699	748	C7H9+
95.0855	52	C7H11+
97.0647	48	C6H9O+
103.0541	117	C8H7+
105.0699	804	C8H9+
107.0855	250	C8H11+
115.0542	159	C9H7+
116.0621	46	C9H8+
117.0701	135	C9H9+
119.06	36	C7H7N2+
119.0855	188	C9H11+
121.0647	659	C8H9O+
121.1016	76	C9H13+
128.0619	103	C10H8+
129.0699	134	C10H9+
130.0777	63	C10H10+
131.0857	106	C10H11+
132.0571	128	C9H8O+
135.0805	105	C9H11O+
141.0695	62	C11H9+
142.0774	68	C11H10+
143.0856	54	C11H11+
145.0645	87	C10H9O+
145.101	49	C11H13+
146.0727	55	C10H10O+
147.0802	73	C10H11O+
158.0727	85	C11H10O+
159.0806	47	C11H11O+
165.0703	44	C13H9+
