Mass spectrum: Droperidol; LC-ESI-QFT; MS2; CE: 180; R=35000; [M+H]+
Name: Droperidol
Name: 3-[1-[4-(4-fluorophenyl)-4-oxobutyl]-3,6-dihydro-2H-pyridin-4-yl]-1H-benzimidazol-2-one
Formula: C22H22FN3O2
Exact mass: 379.16961
SMILES: C1CN(CC=C1N2C3=CC=CC=C3NC2=O)CCCC(=O)C4=CC=C(C=C4)F
InChI: InChI=1S/C22H22FN3O2/c23-17-9-7-16(8-10-17)21(27)6-3-13-25-14-11-18(12-15-25)26-20-5-2-1-4-19(20)24-22(26)28/h1-2,4-5,7-11H,3,6,12-15H2,(H,24,28)
Instrument: Q Exactive Plus Orbitrap Thermo Scientific
Instrument type: LC-ESI-QFT
Ms type: MS2
Ion mode: POSITIVE
Ionization: ESI
Fragmentation mode: HCD
Collision energy: 180 (nominal)
Resolution: 35000
Column name: XBridge C18 3.5um, 2.1x50mm, Waters
Retention time: 5.9 min
Base peak: 380.176
Precursor m/z: 380.1769
Precursor type: [M+H]+
m/z	relative intensity	assigned
50.0151	6	C4H2+
51.023	5	C4H3+
53.0022	23	C3HO+
53.0386	1	C4H5+
57.0135	3	C3H2F+
59.0292	1	C3H4F+
63.0229	3	C5H3+
65.0386	8	C5H5+
68.0057	1	C4HF+
69.0135	33	C4H2F+
71.0292	21	C4H4F+
73.0084	1	C3H2FO+
74.0151	341	C6H2+
75.0229	999	CH2FN3+
77.0386	1	C6H5+
79.0178	6	C5H3O+
80.0494	1	C5H6N+
83.0291	5	C5H4F+
89.0023	2	C6HO+
89.0385	2	C7H5+
93.0335	2	C6H5O+
95.0292	98	C6H4F+
96.037	1	C6H5F+
99.0242	3	C5H4FO+
105.0448	1	C6H5N2+
109.045	2	C7H6F+
111.0442	1	C6H7O2+
113.0397	112	C6H6FO+
115.0543	1	C9H7+
116.0495	1	C8H6N+
120.0369	2	C8H5F+
123.0353	271	C6H4FN2+
124.0323	2	C7H5FO+
129.0447	1	C8H5N2+
146.0526	2	C10H7F+
