Mass spectrum: Isoproturon-didemethyl; LC-ESI-ITFT; MS2; CE: 90%; R=30000; [M+H]+
Name: Isoproturon-didemethyl
Name: [4-(propan-2-yl)phenyl]urea
Name: 1-(4-Isopropylphenyl)urea
Formula: C10H14N2O
Exact mass: 178.1106
SMILES: N(C(=O)N)c1ccc(cc1)C(C)C
InChI: InChI=1S/C10H14N2O/c1-7(2)8-3-5-9(6-4-8)12-10(11)13/h3-7H,1-2H3,(H3,11,12,13)
Instrument: LTQ Orbitrap XL Thermo Scientific
Instrument type: LC-ESI-ITFT
Ms type: MS2
Ion mode: POSITIVE
Ionization: ESI
Fragmentation mode: HCD
Collision energy: 90 % (nominal)
Resolution: 30000
Column name: XBridge C18 3.5um, 2.1x50mm, Waters
Retention time: 8.0 min
Base peak: 179.1183
Precursor m/z: 179.1179
Precursor type: [M+H]+
m/z	relative intensity	assigned
53.0386	11	C4H5+
65.0386	4	C5H5+
77.0386	137	C6H5+
91.0543	66	C7H7+
92.0495	85	C6H6N+
93.0574	18	C6H7N+
93.0698	3	C7H9+
94.0652	999	C6H8N+
95.0491	16	C6H7O+
103.0542	2	C8H7+
105.0447	45	C6H5N2+
107.0856	16	C8H11+
117.07	8	C9H9+
119.073	14	C8H9N+
120.0444	47	C7H6NO+
134.0964	26	C9H12N+
136.1121	18	C9H14N+
137.071	43	C7H9N2O+
147.0917	9	C9H11N2+
