Mass spectrum: Chlorthiazide; LC-ESI-QFT; MS2; CE: 90; R=35000; [M+H]+
Name: Chlorthiazide
Name: 6-chloro-1,1-dioxo-4H-1$l^{6},2,4-benzothiadiazine-7-sulfonamide
Formula: C7H6ClN3O4S2
Exact mass: 294.94883
SMILES: C1=C2C(=CC(=C1Cl)S(=O)(=O)N)S(=O)(=O)NC=N2
InChI: InChI=1S/C7H6ClN3O4S2/c8-4-1-5-7(2-6(4)16(9,12)13)17(14,15)11-3-10-5/h1-3H,(H,10,11)(H2,9,12,13)
Instrument: Q Exactive Plus Orbitrap Thermo Scientific
Instrument type: LC-ESI-QFT
Ms type: MS2
Ion mode: POSITIVE
Ionization: ESI
Fragmentation mode: HCD
Collision energy: 90 (nominal)
Resolution: 35000
Column name: XBridge C18 3.5um, 2.1x50mm, Waters
Retention time: 1.9 min
Base peak: 295.956
Precursor m/z: 295.9561
Precursor type: [M+H]+
m/z	relative intensity	assigned
50.0151	16	C4H2+
51.0103	2	C3HN+
51.0229	9	C4H3+
52.0182	63	C3H2N+
53.0022	18	C3HO+
54.0338	31	C3H4N+
55.0178	12	C3H3O+
55.029	1	C2H3N2+
56.0495	15	C3H6N+
58.9824	3	CHNS+
59.9902	3	CH2NS+
60.9839	8	C2H2Cl+
61.0072	7	C5H+
61.9792	54	CHClN+
62.0151	43	C5H2+
62.9632	24	CClO+
63.0229	65	C5H3+
63.9851	134	H2NOS+
64.0182	65	C4H2N+
65.0259	25	C4H3N+
66.0338	129	C4H4N+
67.0291	3	C3H3N2+
67.0416	50	C4H5N+
68.0131	50	C3H2NO+
68.0494	2	C4H6N+
68.9793	95	C3HS+
69.0447	7	C3H5N2+
69.9745	17	C2NS+
69.9872	8	C3H2S+
70.995	10	C3H3S+
71.9902	34	C2H2NS+
72.9839	252	C3H2Cl+
73.9791	8	C2HClN+
74.0151	2	C6H2+
74.9995	24	C3H4Cl+
75.0102	7	C5HN+
76.0181	172	C5H2N+
77.0021	46	C5HO+
77.0258	2	C5H3N+
78.0338	219	C5H4N+
78.9403	87	CClS+
79.0178	16	C5H3O+
79.029	11	C4H3N2+
79.0417	29	C5H5N+
79.9799	12	H2NO2S+
80.013	70	C4H2NO+
80.0494	8	C5H6N+
80.9793	7	C4HS+
81.0335	19	C5H5O+
81.9871	10	C4H2S+
82.0288	25	C4H4NO+
82.0525	11	C4H6N2+
83.9903	6	C3H2NS+
84.9742	8	C3HOS+
84.9839	56	C4H2Cl+
85.9792	134	C3HClN+
86.9632	16	C3ClO+
86.9996	123	C4H4Cl+
87.9948	85	C3H3ClN+
88.0182	41	C6H2N+
89.026	684	C6H3N+
90.0105	34	C3H5ClN+
90.0339	178	C6H4N+
91.018	12	C6H3O+
91.0291	23	C5H3N2+
91.9483	3	C2HClS+
92.0131	46	C5H2NO+
92.0369	17	C5H4N2+
93.0447	216	C5H5N2+
94.0288	75	C5H4NO+
94.0525	47	C5H6N2+
95.0129	2	C5H3O2+
95.0366	2	C5H5NO+
95.9902	129	C4H2NS+
96.0445	18	C5H6NO+
96.984	682	C5H2Cl+
96.9981	61	C4H3NS+
97.9792	999	C4HClN+
98.9871	2	C4H2ClN+
98.9996	23	C5H4Cl+
99.9948	227	C4H3ClN+
101.0027	113	C4H4ClN+
102.0105	204	C4H5ClN+
102.9403	106	C3ClS+
103.0291	18	C6H3N2+
104.956	399	C3H2ClS+
105.0447	84	C6H5N2+
106.0288	38	C6H4NO+
106.0525	71	C6H6N2+
106.9824	621	C5HNS+
107.9902	46	C5H2NS+
108.0443	14	C6H6NO+
108.9981	19	C5H3NS+
109.0159	3	C5H3NO2+
109.0396	16	C5H5N2O+
109.9788	2	C5HClN+
110.0474	10	C5H6N2O+
110.9632	20	C5ClO+
111.0315	3	C5H5NO2+
111.0554	18	C5H7N2O+
111.9948	349	C5H3ClN+
112.9788	43	C5H2ClO+
112.9901	46	C4H2ClN2+
113.0026	31	C5H4ClN+
113.9741	205	C4HClNO+
114.0105	250	C5H5ClN+
114.9945	39	C5H4ClO+
115.0291	10	C7H3N2+
115.9898	31	C4H3ClNO+
116.0369	35	C7H4N2+
117.0447	907	C7H5N2+
118.0051	3	C4H5ClNO+
118.0287	19	C7H4NO+
118.0525	14	C7H6N2+
119.024	3	C6H3N2O+
119.9669	3	C3H3ClNS+
120.0081	18	C6H2NO2+
121.0397	33	C6H5N2O+
122.0473	13	C6H6N2O+
122.9665	3	C3H4ClOS+
123.0011	31	C5H3N2S+
123.9949	604	C6H3ClN+
124.009	73	C5H4N2S+
124.0393	73	C6H6NO2+
125.0027	422	C6H4ClN+
125.9979	9	C5H3ClN2+
126.0105	11	C6H5ClN+
126.9819	18	C5H2ClNO+
127.0057	70	C5H4ClN2+
127.9898	85	C5H3ClNO+
129.0214	384	C5H6ClN2+
130.0054	347	C5H5ClNO+
130.959	2	C4H2ClNS+
131.0007	1	C4H4ClN2O+
131.9669	121	C4H3ClNS+
131.9847	135	C4H3ClNO2+
132.9509	21	C4H2ClOS+
133.0396	9	C7H5N2O+
134.0475	13	C7H6N2O+
139.0058	46	C6H4ClN2+
139.9898	455	C6H3ClNO+
140.9738	2	C6H2ClO2+
140.9975	22	C6H4ClNO+
141.012	2	C5H5N2OS+
141.0214	15	C6H6ClN2+
141.9513	334	C5HClNS+
142.0055	511	C6H5ClNO+
142.959	17	C5H2ClNS+
143.9666	8	C5H3ClNS+
143.9847	2	C5H3ClNO2+
144.9923	7	C5H4ClNO2+
145.0163	38	C5H6ClN2O+
145.0512	2	C7H5N4+
146.0003	1	C5H5ClNO2+
151.0058	57	C7H4ClN2+
152.0008	38	C6H3ClN3+
152.0136	93	C7H5ClN2+
152.9975	4	C7H4ClNO+
153.0217	2	C7H6ClN2+
155.0006	166	C6H4ClN2O+
155.9846	716	C6H3ClNO2+
157.0163	92	C6H6ClN2O+
158.0003	42	C6H5ClNO2+
158.9777	2	C5H4ClN2S+
159.9617	10	C5H3ClNOS+
160.0159	39	C6H7ClNO2+
167.0006	2	C7H4ClN2O+
168.0085	2	C7H5ClN2O+
168.9924	2	C7H4ClNO2+
169.9461	32	C6HClNOS+
170.9779	2	C6H4ClN2S+
171.9615	3	C6H3ClNOS+
173.0113	437	C6H6ClN2O2+
173.9953	195	C6H5ClNO3+
179.0121	3	C4H7N2O4S+
181.0063	8	C7H5N2O2S+
184.0035	24	C7H5ClN2O2+
184.9874	2	C7H4ClNO3+
185.0015	1	C6H5N2O3S+
187.9567	14	C6H3ClNO2S+
188.9647	2	C6H4ClNO2S+
203.9519	8	C6H3ClNO3S+
204.9834	2	C6H6ClN2O2S+
214.9673	2	C7H4ClN2O2S+
215.9758	6	C7H5ClN2O2S+
220.9781	3	C6H6ClN2O3S+
247.9648	3	C7H5ClN2O4S+
