Mass spectrum: Trimipramine N-Oxide; LC-ESI-QFT; MS2; CE: 180; R=35000; [M+H]+
Name: Trimipramine N-Oxide
Name: Trimipramine N-oxide, (+/-)-
Name: 3-(5,6-dihydrobenzo[b][1]benzazepin-11-yl)-N,N,2-trimethylpropan-1-amine oxide
Formula: C20H26N2O
Exact mass: 310.20451
SMILES: CC(CN1C2=CC=CC=C2CCC3=CC=CC=C31)C[N+](C)(C)[O-]
InChI: InChI=1S/C20H26N2O/c1-16(15-22(2,3)23)14-21-19-10-6-4-8-17(19)12-13-18-9-5-7-11-20(18)21/h4-11,16H,12-15H2,1-3H3
Instrument: Q Exactive Plus Orbitrap Thermo Scientific
Instrument type: LC-ESI-QFT
Ms type: MS2
Ion mode: POSITIVE
Ionization: ESI
Fragmentation mode: HCD
Collision energy: 180 (nominal)
Resolution: 35000
Column name: XBridge C18 3.5um, 2.1x50mm, Waters
Retention time: 8.9 min
Base peak: 311.2114
Precursor m/z: 311.2118
Precursor type: [M+H]+
m/z	relative intensity	assigned
50.0151	56	C4H2+
51.0229	46	C4H3+
53.0022	15	C3HO+
53.0386	37	C4H5+
55.0178	2	C3H3O+
55.0542	1	C4H7+
56.0495	387	C3H6N+
58.0651	97	C3H8N+
60.0444	13	C2H6NO+
61.0073	10	
62.0151	44	C5H2+
63.0229	217	C5H3+
64.0307	39	C5H4+
65.0386	260	C5H5+
66.0464	9	C5H6+
67.0416	2	C4H5N+
67.9893	2	C3O2+
68.0494	8	C4H6N+
70.0651	38	C4H8N+
71.0729	44	C4H9N+
74.015	24	C6H2+
75.0229	76	C6H3+
76.0307	12	
77.0385	68	C6H5+
78.0338	7	C5H4N+
78.0464	21	C6H6+
79.0542	8	C6H7+
81.0334	1	C5H5O+
84.0808	2	C5H10N+
87.0229	18	
88.0307	13	C7H4+
89.0386	745	C7H5+
90.0464	92	C7H6+
91.0542	142	C7H7+
94.0411	1	C6H6O+
95.0491	118	C6H7O+
101.0386	24	C8H5+
102.0464	59	C8H6+
103.0542	30	C8H7+
104.0494	2	C7H6N+
105.0447	83	C6H5N2+
106.0652	3	C7H8N+
113.0385	62	C9H5+
114.034	10	C8H4N+
114.0464	13	C9H6+
115.0542	418	C9H7+
116.0494	36	C8H6N+
116.0622	3	C9H8+
117.0572	44	C8H7N+
119.0492	19	C8H7O+
125.0386	10	C10H5+
126.0464	66	C10H6+
127.0417	8	C9H5N+
127.0542	15	C10H7+
128.0494	101	C9H6N+
128.062	56	C10H8+
129.0447	68	C8H5N2+
129.0572	6	C9H7N+
130.0651	19	C9H8N+
132.0568	6	C9H8O+
134.0601	1	C8H8NO+
137.0385	8	C11H5+
138.0464	19	C11H6+
139.0542	627	C11H7+
140.0495	257	C10H6N+
140.0618	56	C11H8+
141.0573	12	C10H7N+
141.0696	10	C11H9+
142.0652	6	C10H8N+
143.0733	2	C10H9N+
145.0649	9	C10H9O+
146.06	21	C9H8NO+
149.0386	3	C12H5+
150.0464	100	C12H6+
151.0542	28	C12H7+
152.0496	11	
152.062	210	C12H8+
153.0573	27	C11H7N+
153.0702	2	C12H9+
154.0651	13	C11H8N+
155.0604	23	C10H7N2+
162.0465	13	
163.0542	494	C13H7+
164.0501	58	C12H6N+
164.062	327	C13H8+
165.0699	868	C13H9+
166.0651	258	C12H8N+
167.0729	111	C12H9N+
168.057	141	C12H8O+
169.0648	106	C12H9O+
170.0602	15	C11H8NO+
176.0621	113	C14H8+
177.0574	83	C13H7N+
177.0695	37	C14H9+
178.0653	63	C13H8N+
178.0775	80	C14H10+
179.0605	33	C12H7N2+
179.0728	26	C13H9N+
180.0806	19	C13H10N+
183.068	6	C12H9NO+
183.0808	1	C13H11O+
184.0757	5	C12H10NO+
188.0499	10	
189.0572	44	C14H7N+
189.0699	38	C15H9+
190.0651	746	C14H8N+
191.0729	999	C14H9N+
192.0807	131	C14H10N+
193.0886	19	C14H11N+
194.06	21	C13H8NO+
196.0518	41	C13H8O2+
202.0655	12	
202.0776	3	C16H10+
203.0728	30	C15H9N+
204.0809	121	C15H10N+
205.0888	1	C15H11N+
206.0968	2	C15H12N+
215.0729	15	
216.0808	72	C16H10N+
217.0886	57	C16H11N+
230.0968	1	C17H12N+
