Mass spectrum: Venlafaxine; LC-ESI-QFT; MS2; CE: 90; R=35000; [M+H]+
Name: Venlafaxine
Name: 1-[2-(dimethylamino)-1-(4-methoxyphenyl)ethyl]-1-cyclohexanol
Formula: C17H27NO2
Exact mass: 277.20418
SMILES: CN(C)CC(C1=CC=C(C=C1)OC)C2(CCCCC2)O
InChI: InChI=1S/C17H27NO2/c1-18(2)13-16(17(19)11-5-4-6-12-17)14-7-9-15(20-3)10-8-14/h7-10,16,19H,4-6,11-13H2,1-3H3
Instrument: Q Exactive Orbitrap Thermo Scientific
Instrument type: LC-ESI-QFT
Ms type: MS2
Ion mode: POSITIVE
Ionization: ESI
Fragmentation mode: HCD
Collision energy: 90 (nominal)
Resolution: 35000
Column name: XBridge C18 3.5um, 2.1x50mm, Waters
Retention time: 6.2 min
Base peak: 278.2118
Precursor m/z: 278.2115
Precursor type: [M+H]+
m/z	relative intensity	assigned
56.0496	1	C3H6N+
58.0652	999	C3H8N+
65.0386	6	C5H5+
67.0543	6	C5H7+
69.07	5	C5H9+
77.0386	4	C6H5+
78.0464	12	C6H6+
79.0543	30	C6H7+
81.07	32	C6H9+
91.0543	155	C7H7+
93.07	10	C7H9+
95.0492	27	C6H7O+
103.0544	4	C8H7+
105.0449	5	C6H5N2+
105.0699	9	C8H9+
107.0492	13	C7H7O+
107.0857	2	C8H11+
109.0649	15	C7H9O+
115.0543	20	C9H7+
116.0621	3	C9H8+
117.07	13	C9H9+
119.0493	1	C8H7O+
119.0604	4	C7H7N2+
119.0856	6	C9H11+
121.0649	331	C8H9O+
128.0621	7	C10H8+
129.0699	7	C10H9+
131.0494	6	C9H7O+
132.0571	22	C9H8O+
133.0649	3	C9H9O+
135.0805	17	C9H11O+
141.07	8	C11H9+
142.0778	1	C11H10+
143.0858	1	C11H11+
144.0572	12	C10H8O+
145.065	7	C10H9O+
146.0728	2	C10H10O+
147.0806	47	C10H11O+
148.0761	5	C9H10NO+
155.0855	1	C12H11+
158.0727	26	C11H10O+
159.0805	17	C11H11O+
161.0959	2	C11H13O+
162.0914	12	C10H12NO+
163.0994	3	C10H13NO+
172.0886	1	C12H12O+
173.0962	16	C12H13O+
177.1157	1	C11H15NO+
