Mass spectrum: Benodanil; LC-ESI-QFT; MS2; CE: 60%; R=17500; [M+H]+
Name: Benodanil
Name: 2-iodo-N-phenylbenzamide
Formula: C13H10INO
Exact mass: 322.9807
SMILES: C1=CC=C(C=C1)NC(=O)C2=CC=CC=C2I
InChI: InChI=1S/C13H10INO/c14-12-9-5-4-8-11(12)13(16)15-10-6-2-1-3-7-10/h1-9H,(H,15,16)
Instrument: Exploris 240 Orbitrap Thermo Scientific
Instrument type: LC-ESI-QFT
Ms type: MS2
Ion mode: POSITIVE
Ionization: ESI
Fragmentation mode: HCD
Collision energy: 60 % (nominal)
Resolution: 17500
Column name: XBridge C18 3.5um, 2.1x50mm, Waters
Retention time: 6.793 min
Base peak: 216.1009
Precursor m/z: 323.988
Precursor type: [M+H]+
m/z	relative intensity	assigned
52.0306	11	C4H4+
76.0305	8	C6H4+
77.0386	7	C6H5+
92.0494	15	C6H6N+
94.0413	139	C6H6O+
104.0255	21	C7H4O+
105.0335	73	C7H5O+
108.057	7	C7H8O+
120.0441	8	C7H6NO+
202.9352	196	C6H4I+
230.9299	999	C7H4IO+
