Mass spectrum: Hydrochlorothiazide; LC-ESI-ITFT; MS2; CE: 90%; R=7500; [M+H]+
Name: Hydrochlorothiazide
Name: 6-Chloro-3,4-dihydro-2H-1,2,4-benzothiadiazine-7-sulfonamide 1,1-dioxide
Name: 6-chloranyl-1,1-bis(oxidanylidene)-3,4-dihydro-2H-1$l^{6},2,4-benzothiadiazine-7-sulfonamide
Formula: C7H8ClN3O4S2
Exact mass: 296.9645
SMILES: NS(=O)(=O)C1=CC2=C(NCNS2(=O)=O)C=C1Cl
InChI: InChI=1S/C7H8ClN3O4S2/c8-4-1-5-7(2-6(4)16(9,12)13)17(14,15)11-3-10-5/h1-2,10-11H,3H2,(H2,9,12,13)
Instrument: LTQ Orbitrap XL Thermo Scientific
Instrument type: LC-ESI-ITFT
Ms type: MS2
Ion mode: POSITIVE
Ionization: ESI
Fragmentation mode: HCD
Collision energy: 90 % (nominal)
Resolution: 7500
Column name: XBridge C18 3.5um, 2.1x50mm, Waters
Retention time: 2.2 min
Base peak: 163.1326
Precursor m/z: 297.9718
Precursor type: [M+H]+
m/z	relative intensity	assigned
76.0181	63	C5H2N+
85.9792	163	C3HClN+
89.0258	99	C6H3N+
90.0339	302	C6H4N+
97.9794	103	C4HClN+
98.9993	166	C5H4Cl+
104.9562	72	C3H2ClS+
106.9828	136	C5HNS+
107.9903	856	C5H2NS+
108.9839	117	C6H2Cl+
111.995	195	C5H3ClN+
113.9741	258	C4HClNO+
114.0108	92	C5H5ClN+
117.0448	203	C7H5N2+
118.0529	184	C7H6N2+
123.9951	235	C6H3ClN+
125.0025	574	C6H4ClN+
129.0211	50	C5H6ClN2+
131.966	48	C7OS+
139.9898	999	C6H3ClNO+
142.0053	151	C6H5ClNO+
142.9585	122	C5H2ClNS+
143.9666	65	C5H3ClNS+
171.9618	294	C6H3ClNOS+
