Mass spectrum: Metolachlor ESA; LC-ESI-ITFT; MS2; CE: 35%; R=7500; [M-H]-
Name: Metolachlor ESA
Name: 2-[(2-Ethyl-6-methylphenyl)(1-methoxy-2-propanyl)amino]-2-oxoethanesulfonic acid
Formula: C15H23NO5S
Exact mass: 329.1297
SMILES: O=S(O)(CC(N(C(C)COC)C1=C(CC)C=CC=C1C)=O)=O
InChI: InChI=1S/C15H23NO5S/c1-5-13-8-6-7-11(2)15(13)16(12(3)9-21-4)14(17)10-22(18,19)20/h6-8,12H,5,9-10H2,1-4H3,(H,18,19,20)
Instrument: LTQ Orbitrap XL Thermo Scientific
Instrument type: LC-ESI-ITFT
Ms type: MS2
Ion mode: NEGATIVE
Ionization: ESI
Fragmentation mode: CID
Collision energy: 35 % (nominal)
Resolution: 7500
Column name: XBridge C18 3.5um, 2.1x50mm, Waters
Retention time: 7.8 min
Base peak: 328.1225
Precursor m/z: 328.1224
Precursor type: [M-H]-
m/z	relative intensity	assigned
118.9684	82	C2HNO3S-
119.9763	180	C2H2NO3S-
120.9603	999	C2HO4S-
135.0817	88	C9H11O-
158.0976	6	C11H12N-
174.129	41	C12H16N-
177.0104	21	C5H7NO4S-
192.034	444	C6H10NO4S-
206.1552	12	C13H20NO-
232.1351	16	C14H18NO2-
238.0551	16	C11H12NO3S-
248.1658	17	C15H22NO2-
256.0655	102	C11H14NO4S-
264.1609	22	C15H22NO3-
296.0964	196	C14H18NO4S-
