Mass spectrum: Repaglinide; LC-ESI-QFT; MS2; CE: 60; R=35000; [M+H]+
Name: Repaglinide
Name: 2-ethoxy-4-[2-[[3-methyl-1-(2-piperidin-1-ylphenyl)butyl]amino]-2-oxoethyl]benzoic acid
Formula: C27H36N2O4
Exact mass: 452.26751
SMILES: CCOC1=C(C=CC(=C1)CC(=O)NC(CC(C)C)C2=CC=CC=C2N3CCCCC3)C(=O)O
InChI: InChI=1S/C27H36N2O4/c1-4-33-25-17-20(12-13-22(25)27(31)32)18-26(30)28-23(16-19(2)3)21-10-6-7-11-24(21)29-14-8-5-9-15-29/h6-7,10-13,17,19,23H,4-5,8-9,14-16,18H2,1-3H3,(H,28,30)(H,31,32)
Instrument: Q Exactive Plus Orbitrap Thermo Scientific
Instrument type: LC-ESI-QFT
Ms type: MS2
Ion mode: POSITIVE
Ionization: ESI
Fragmentation mode: HCD
Collision energy: 60 (nominal)
Resolution: 35000
Column name: XBridge C18 3.5um, 2.1x50mm, Waters
Retention time: 9.7 min
Base peak: 453.2744
Precursor m/z: 453.2748
Precursor type: [M+H]+
m/z	relative intensity	assigned
55.0542	5	C4H7+
57.0699	3	C4H9+
65.0386	1	C5H5+
67.0542	3	C5H7+
69.0699	20	C5H9+
77.0383	1	C6H5+
79.0541	2	C6H7+
86.0964	337	C5H12N+
91.0541	17	C7H7+
94.0652	3	C6H8N+
95.0855	2	C7H11+
105.0335	5	C7H5O+
105.07	3	C8H9+
106.0651	74	C7H8N+
107.0491	2	C7H7O+
108.0807	2	C7H10N+
117.0572	10	C8H7N+
118.0651	110	C8H8N+
119.073	1	C8H9N+
120.0808	29	C8H10N+
123.044	2	C7H7O2+
129.0699	2	C10H9+
130.0652	36	C9H8N+
131.073	35	C9H9N+
132.0808	71	C9H10N+
133.0648	2	C9H9O+
133.0886	5	C9H11N+
134.0966	2	C9H12N+
144.0808	42	C10H10N+
145.0886	24	C10H11N+
146.0965	294	C10H12N+
151.0392	3	C8H7O3+
158.0965	40	C11H12N+
159.1043	33	C11H13N+
160.1121	31	C11H14N+
161.0233	1	C9H5O3+
161.0597	4	C10H9O2+
161.12	3	C11H15N+
162.1277	176	C11H16N+
172.1121	132	C12H14N+
173.12	30	C12H15N+
174.1278	740	C12H16N+
179.0702	21	C10H11O3+
184.1123	2	C13H14N+
186.1277	27	C13H16N+
187.1357	8	C13H17N+
188.1434	15	C13H18N+
189.0546	7	C11H9O3+
200.1432	2	C14H18N+
202.1591	32	C14H20N+
228.1749	6	C16H22N+
230.1904	999	C16H24N+
231.1941	1	C11H25N3O2+
