Mass spectrum: Chloramphenicol; LC-ESI-QFT; MS2; CE: 30; R=35000; [M-H]-
Name: Chloramphenicol
Name: CLM
Name: 2,2-bis(chloranyl)-N-[(1R,2R)-1-(4-nitrophenyl)-1,3-bis(oxidanyl)propan-2-yl]ethanamide
Formula: C11H12Cl2N2O5
Exact mass: 322.01233
SMILES: c1cc(ccc1[C@H]([C@@H](CO)NC(=O)C(Cl)Cl)O)[N+](=O)[O-]
InChI: InChI=1S/C11H12Cl2N2O5/c12-10(13)11(18)14-8(5-16)9(17)6-1-3-7(4-2-6)15(19)20/h1-4,8-10,16-17H,5H2,(H,14,18)/t8-,9-/m1/s1
Instrument: Q Exactive Orbitrap Thermo Scientific
Instrument type: LC-ESI-QFT
Ms type: MS2
Ion mode: NEGATIVE
Ionization: ESI
Fragmentation mode: HCD
Collision energy: 30 (nominal)
Resolution: 35000
Column name: XBridge C18 3.5um, 2.1x50mm, Waters
Retention time: 5.8 min
Base peak: 321.0054
Precursor m/z: 321.0051
Precursor type: [M-H]-
m/z	relative intensity	assigned
61.9884	2	NO3-
70.9462	5	Cl2H-
78.035	12	C5H4N-
82.9461	25	CHCl2-
84.0091	16	C3H2NO2-
86.0248	1	C3H4NO2-
98.0248	5	C4H4NO2-
105.0219	1	C6H3NO-
106.0297	2	C6H4NO-
118.0425	7	C8H6O-
121.0296	116	C7H5O2-
122.0248	11	C6H4NO2-
125.952	15	C2H2Cl2NO-
126.936	40	C2HCl2O2-
134.0013	2	C4H5ClNO2-
135.0326	1	C7H5NO2-
136.0405	4	C7H6NO2-
148.0405	50	C8H6NO2-
150.0198	13	C7H4NO3-
151.0275	326	C7H5NO3-
152.0353	999	C7H6NO3-
153.0541	1	C6H7N3O2-
159.0324	12	C9H5NO2-
160.0401	2	C9H6NO2-
161.0361	1	C8H5N2O2-
162.0197	5	C8H4NO3-
164.0358	1	C5H9ClN2O2-
166.0145	6	C7H4NO4-
175.0514	4	C9H7N2O2-
176.0352	168	C9H6NO3-
179.0462	9	C8H7N2O3-
191.0468	1	C9H7N2O3-
192.0303	1	C9H6NO4-
194.0459	53	C9H8NO4-
207.0412	1	C9H7N2O4-
219.0411	18	C10H7N2O4-
237.0524	1	C10H9N2O5-
249.0518	17	C11H9N2O5-
257.0334	36	C10H10ClN2O4-
321.005	8	C11H11Cl2N2O5-
