Mass spectrum: Aerucyclamide A; LC-ESI-QFT; MS2; CE: 45%; R=17500; [M+H]+
Name: Aerucyclamide A
Name: (1S,4S,7R,8S,18R)-4,18-bis[(2S)-butan-2-yl]-7-methyl-6-oxa-13,20-dithia-3,10,17,22,23,24-hexazatetracyclo[17.2.1.15,8.112,15]tetracosa-5(24),12(23),14,19(22)-tetraene-2,9,16-trione
Class: NA
Formula: C24H34N6O4S2
Exact mass: 534.2083
SMILES: CC[C@H](C)[C@@H]1NC(=O)[C@H]2CSC(=N2)[C@H](NC(=O)c3csc(CNC(=O)[C@H]4N=C1O[C@@H]4C)n3)[C@@H](C)CC
InChI: InChI=1S/C24H34N6O4S2/c1-6-11(3)17-23-30-19(13(5)34-23)22(33)25-8-16-26-14(9-35-16)20(31)29-18(12(4)7-2)24-27-15(10-36-24)21(32)28-17/h9,11-13,15,17-19H,6-8,10H2,1-5H3,(H,25,33)(H,28,32)(H,29,31)/t11-,12-,13+,15+,17-,18+,19-/m0/s1
Instrument: Q Exactive Plus Orbitrap Thermo Scientific
Instrument type: LC-ESI-QFT
Ms type: MS2
Ion mode: POSITIVE
Ionization: ESI
Fragmentation mode: HCD
Collision energy: 45 % (nominal)
Resolution: 17500
Column name: XBridge C18 3.5um, 2.1x50mm, Waters
Retention time: 10.697 min
Base peak: 164.9845
Precursor m/z: 535.2156
Precursor type: [M+H]+
m/z	relative intensity	assigned
56.0495	116	C3H6N+
58.0652	48	C3H8N+
58.9951	20	C2H3S+
68.0496	19	C4H6N+
69.0336	48	C4H5O+
69.0698	432	C5H9+
84.0444	520	C4H6NO+
84.0808	78	C5H10N+
86.0058	131	C3H4NS+
86.0964	585	C5H12N+
96.0441	48	C5H6NO+
96.0809	45	C6H10N+
97.0395	25	C4H5N2O+
97.0648	47	C6H9O+
98.0057	101	C4H4NS+
104.0165	33	C3H6NOS+
110.0964	20	C7H12N+
112.0216	78	C5H6NS+
113.0418	42	C6H9S+
114.0007	40	C4H4NOS+
116.0165	84	C4H6NOS+
124.0754	23	C7H10NO+
125.1074	83	C7H13N2+
128.0531	42	C6H10NS+
130.069	22	H18O3S2+
131.0272	658	C4H7N2OS+
138.091	46	H16N3O3S+
141.0115	325	C5H5N2OS+
141.1022	107	C7H13N2O+
143.0271	56	C5H7N2OS+
144.0117	108	C5H6NO2S+
152.0956	36	C2H18NO4S+
152.1069	272	C9H14NO+
153.1025	26	C8H13N2O+
154.0683	999	C8H12NS+
154.1223	26	
155.0276	45	C6H7N2OS+
156.0226	86	C5H6N3OS+
157.0059	25	C3H3N5OS+
158.0383	640	C5H8N3OS+
159.0223	144	C5H7N2O2S+
165.1021	80	C9H13N2O+
172.0792	141	C8H14NOS+
181.0795	109	C9H13N2S+
181.0949	32	C7H19NS2+
182.0634	92	C9H12NOS+
184.0179	201	C14H2N+
184.0541	285	C7H10N3OS+
185.0019	166	C14HO+
185.0379	251	C7H9N2O2S+
191.0635	44	C10H11N2S+
196.0538	48	C8H10N3OS+
199.0898	417	C9H15N2OS+
200.074	51	C9H14NO2S+
207.022	32	C9H7N2O2S+
207.1134	79	C11H15N2O2+
208.0906	64	C10H14N3S+
209.0745	291	C10H13N2OS+
220.1441	35	C4H22N5O3S+
224.0487	80	C9H10N3O2S+
225.0459	243	C10H11NO3S+
226.0284	56	C16H4NO+
226.101	531	C10H16N3OS+
227.0855	23	C18H11+
236.0861	104	C5H20N2O4S2+
241.0756	68	C9H13N4O2S+
251.0601	82	C18H7N2+
252.0812	49	C13H16O3S+
264.1169	36	C7H24N2O4S2+
265.1023	68	C8H19N5OS2+
266.0966	153	C20H12N+
267.1527	74	C14H23N2OS+
269.0709	69	C18H9N2O+
270.0547	87	C18H8NO2+
293.0831	30	C13H15N3O3S+
293.1077	78	C15H19NO3S+
294.1642	57	C9H30N2O4S2+
304.0575	97	C14H14N3OS2+
309.1379	77	C14H21N4O2S+
311.1008	45	C15H21NO2S2+
319.0683	131	C14H15N4OS2+
319.1033	32	C14H23O4S2+
337.1326	27	C15H21N4O3S+
347.0634	83	C15H15N4O2S2+
360.0966	43	C18H12N6O3+
361.1145	49	C17H21N4OS2+
376.0885	36	C21H16N2O3S+
377.163	26	C24H19N5+
388.0904	46	C19H20N2O3S2+
404.1206	78	C18H22N5O2S2+
405.1058	110	C20H23NO4S2+
406.1748	119	C21H22N6O3+
424.1853	69	C21H24N6O4+
432.1109	76	C22H18N5O3S+
432.2052	81	C21H30N5O3S+
461.1437	29	C22H27N3O4S2+
489.2092	56	C23H33N6O2S2+
490.1945	50	C23H32N5O3S2+
