Mass spectrum: Clothianidin; LC-ESI-ITFT; MS2; CE: 90%; R=7500; [M+H]+
Name: Clothianidin
Name: 1-[(2-chloranyl-1,3-thiazol-5-yl)methyl]-2-methyl-3-nitro-guanidine
Name: 1-[(2-chloro-1,3-thiazol-5-yl)methyl]-2-methyl-3-nitroguanidine
Formula: C6H8ClN5O2S
Exact mass: 249.0087
SMILES: Clc1ncc(s1)CN/C(=N/C)N[N+]([O-])=O
InChI: InChI=1S/C6H8ClN5O2S/c1-8-6(11-12(13)14)10-3-4-2-9-5(7)15-4/h2H,3H2,1H3,(H2,8,10,11)
Instrument: LTQ Orbitrap XL Thermo Scientific
Instrument type: LC-ESI-ITFT
Ms type: MS2
Ion mode: POSITIVE
Ionization: ESI
Fragmentation mode: HCD
Collision energy: 90 % (nominal)
Resolution: 7500
Column name: XBridge C18 3.5um, 2.1x50mm, Waters
Retention time: 4.9 min
Base peak: 250.0165
Precursor m/z: 250.016
Precursor type: [M+H]+
m/z	relative intensity	assigned
54.0338	24	C3H4N+
57.0447	36	C2H5N2+
58.995	11	C2H3S+
59.9903	6	CH2NS+
61.9794	3	CHClN+
63.9946	2	CH3ClN+
68.0371	5	C3H4N2+
69.0447	36	C3H5N2+
70.995	209	C3H3S+
71.9903	5	C2H2NS+
78.0105	3	C2H5ClN+
78.9404	19	CClS+
79.0289	8	C4H3N2+
81.0447	12	C4H5N2+
82.0527	6	C4H6N2+
83.0603	20	C4H7N2+
83.9902	8	C3H2NS+
86.0059	166	C3H4NS+
87.0139	5	C3H5NS+
87.9948	31	C3H3ClN+
90.0101	3	C3H5ClN+
95.0479	3	C4H5N3+
95.9902	4	C4H2NS+
96.0557	73	C4H6N3+
97.0395	8	C4H5N2O+
97.0635	5	C4H7N3+
98.0059	13	C4H4NS+
98.0713	12	C4H8N3+
99.0011	12	C3H3N2S+
100.0089	3	C3H4N2S+
101.0169	7	C3H5N2S+
108.0557	17	C5H6N3+
109.0632	7	C5H7N3+
110.0713	368	C5H8N3+
111.0791	301	C5H9N3+
112.009	8	C4H4N2S+
113.0168	822	C4H5N2S+
115.0324	6	C4H7N2S+
118.9592	8	C3H2ClNS+
119.9669	53	C3H3ClNS+
123.0663	2	C5H7N4+
125.0821	6	C5H9N4+
126.012	26	C4H4N3S+
127.0198	9	C4H5N3S+
128.0277	2	C4H6N3S+
131.967	999	C4H3ClNS+
132.9747	96	C4H4ClNS+
134.9538	3	C3H2ClNOS+
135.0664	2	C6H7N4+
138.0121	11	C5H4N3S+
142.0433	18	C5H8N3S+
146.9777	57	C4H4ClN2S+
147.9855	14	C4H5ClN2S+
153.023	38	C5H5N4S+
154.0307	5	C5H6N4S+
167.0386	24	C6H7N4S+
169.0546	35	C6H9N4S+
171.9728	11	C5H3ClN3S+
174.9726	20	C5H4ClN2OS+
