Mass spectrum: Glycyrrhetinic Acid; LC-ESI-QFT; MS2; CE: 30; R=35000; [M+H]+
Name: Glycyrrhetinic Acid
Name: 18-beta-Glycyrrhetin acid
Name: (2S,4aS,6aR,6aS,6bR,8aR,10S,12aS,14bR)-10-hydroxy-2,4a,6a,6b,9,9,12a-heptamethyl-13-oxo-3,4,5,6,6a,7,8,8a,10,11,12,14b-dodecahydro-1H-picene-2-carboxylic acid
Formula: C30H46O4
Exact mass: 470.33961
SMILES: C[C@]1([C@H](CC[C@]2([C@H]1CC[C@@]3([C@@H]2C(=O)C=C4[C@]3(CC[C@@]5([C@H]4C[C@](CC5)(C(=O)O)C)C)C)C)C)O)C
InChI: InChI=1S/C30H46O4/c1-25(2)21-8-11-30(7)23(28(21,5)10-9-22(25)32)20(31)16-18-19-17-27(4,24(33)34)13-12-26(19,3)14-15-29(18,30)6/h16,19,21-23,32H,8-15,17H2,1-7H3,(H,33,34)/t19-,21-,22-,23+,26+,27-,28-,29+,30+/m0/s1
Instrument: Q Exactive Plus Orbitrap Thermo Scientific
Instrument type: LC-ESI-QFT
Ms type: MS2
Ion mode: POSITIVE
Ionization: ESI
Fragmentation mode: HCD
Collision energy: 30 (nominal)
Resolution: 35000
Column name: XBridge C18 3.5um, 2.1x50mm, Waters
Retention time: 16.9 min
Base peak: 471.3465
Precursor m/z: 471.3469
Precursor type: [M+H]+
m/z	relative intensity	assigned
81.0698	3	C6H9+
93.0699	1	C7H9+
95.049	1	C6H7O+
95.0855	13	C7H11+
97.0647	1	C6H9O+
107.0855	6	C8H11+
109.1011	7	C8H13+
111.0803	1	C7H11O+
119.0855	5	C9H11+
121.1011	8	C9H13+
123.0804	1	C8H11O+
123.1167	6	C9H15+
133.1011	4	C10H13+
135.08	1	C9H11O+
135.1167	19	C10H15+
137.1324	2	C10H17+
139.1117	3	C9H15O+
145.1013	1	C11H13+
147.1167	3	C11H15+
149.0961	3	C10H13O+
149.1325	4	C11H17+
153.1273	1	C10H17O+
159.1168	2	C12H15+
161.0962	1	C11H13O+
161.1325	7	C12H17+
163.1481	4	C12H19+
171.1166	1	C13H15+
173.1324	4	C13H17+
175.1119	1	C12H15O+
175.1481	17	C13H19+
177.1637	16	C13H21+
179.1429	5	C12H19O+
187.148	3	C14H19+
189.1637	39	C14H21+
191.1793	18	C14H23+
193.1587	2	C13H21O+
199.1481	4	C15H19+
201.1637	3	C15H21+
203.1795	2	C15H23+
205.1585	1	C14H21O+
207.1743	6	C14H23O+
209.1899	1	C14H25O+
213.1637	2	C16H21+
215.143	1	C15H19O+
215.1794	2	C16H23+
217.1587	28	C15H21O+
219.1742	1	C15H23O+
221.1534	4	C14H21O2+
227.1792	2	C17H23+
229.1951	1	C17H25+
231.1742	2	C16H23O+
235.1692	58	C15H23O2+
241.1949	2	C18H25+
245.1539	3	C16H21O2+
245.19	5	C17H25O+
249.1486	1	C15H21O3+
253.1949	2	C19H25+
255.2106	2	C19H27+
257.1902	1	C18H25O+
259.2056	2	C18H27O+
261.1481	2	C16H21O3+
261.1846	1	C17H25O2+
263.1641	32	C16H23O3+
267.2109	2	C20H27+
269.2263	1	C20H29+
271.2054	8	C19H27O+
273.1846	2	C18H25O2+
273.2212	2	C19H29O+
275.2006	1	C18H27O2+
277.1797	4	C17H25O3+
285.221	2	C20H29O+
289.1801	1	C18H25O3+
289.2164	2	C19H29O2+
291.1954	8	C18H27O3+
299.2007	2	C20H27O2+
301.2154	1	C20H29O2+
303.1961	1	C19H27O3+
303.2314	1	C20H31O2+
313.2159	2	C21H29O2+
315.2323	2	C21H31O2+
317.2111	49	C20H29O3+
327.2328	1	C22H31O2+
329.2108	1	C21H29O3+
331.2258	2	C21H31O3+
357.242	1	C23H33O3+
389.3206	7	C29H41+
407.3308	27	C29H43O+
425.3414	31	C29H45O2+
435.3258	9	C30H43O2+
453.3365	21	C30H45O3+
471.3468	999	C30H47O4+
