Mass spectrum: Tramadol N-Oxide; LC-ESI-QFT; MS2; CE: 150; R=35000; [M+H]+
Name: Tramadol N-Oxide
Name: 1-[(1R,2R)-2-hydroxy-2-(3-methoxyphenyl)cyclohexyl]-N,N-dimethylmethanamine oxide
Formula: C16H25NO3
Exact mass: 279.18344
SMILES: [O-][N+](C)(C)C[C@H]2CCCC[C@]2(O)c1cc(OC)ccc1
InChI: InChI=1S/C16H25NO3/c1-17(2,19)12-14-7-4-5-10-16(14,18)13-8-6-9-15(11-13)20-3/h6,8-9,11,14,18H,4-5,7,10,12H2,1-3H3/t14-,16+/m1/s1
Instrument: Q Exactive Plus Orbitrap Thermo Scientific
Instrument type: LC-ESI-QFT
Ms type: MS2
Ion mode: POSITIVE
Ionization: ESI
Fragmentation mode: HCD
Collision energy: 150 (nominal)
Resolution: 35000
Column name: XBridge C18 3.5um, 2.1x50mm, Waters
Retention time: 5.1 min
Base peak: 280.1904
Precursor m/z: 280.1907
Precursor type: [M+H]+
m/z	relative intensity	assigned
50.0151	172	C4H2+
51.023	262	C4H3+
52.0308	19	C4H4+
53.0022	39	C3HO+
53.0386	215	C4H5+
53.9974	13	C2NO+
54.0464	69	C4H6+
55.0178	34	C3H3O+
55.0542	94	C4H7+
56.0495	131	C3H6N+
57.0334	8	C3H5O+
57.0573	11	C3H7N+
58.0651	865	C3H8N+
60.0444	3	C2H6NO+
61.0072	4	C5H+
62.015	31	C5H2+
63.0229	586	C5H3+
64.0307	432	C5H4+
65.0386	620	C5H5+
66.0464	64	C5H6+
67.0416	20	C4H5N+
67.0542	38	C5H7+
68.0495	20	C4H6N+
69.0573	3	C4H7N+
69.0698	8	C5H9+
70.0651	26	C4H8N+
71.073	4	C4H9N+
72.0809	2	C4H10N+
75.0228	8	C6H3+
76.0307	14	C6H4+
77.0385	478	C6H5+
78.0464	630	C6H6+
79.0542	82	C6H7+
80.0256	8	C5H4O+
80.0494	19	C5H6N+
81.0335	52	C5H5O+
81.0572	8	C5H7N+
82.0652	12	C5H8N+
84.0808	29	C5H10N+
89.0386	64	C7H5+
90.0465	16	C7H6+
91.0542	641	C7H7+
92.0257	999	C6H4O+
92.0369	84	C5H4N2+
93.0701	2	C7H9+
94.0413	84	C6H6O+
94.0652	70	C6H8N+
95.0491	737	C6H7O+
102.0464	88	C8H6+
103.0542	140	C8H7+
104.062	18	C8H8+
105.0447	440	C6H5N2+
106.0414	27	C7H6O+
107.0491	17	C7H7O+
108.057	2	C7H8O+
108.0807	2	C7H10N+
109.0649	4	C7H9O+
114.0466	2	C9H6+
115.0542	781	C9H7+
116.062	108	C9H8+
117.0698	30	C9H9+
118.0411	3	C8H6O+
119.0489	3	C8H7O+
121.0648	47	C8H9O+
125.0598	10	C7H9O2+
126.0463	15	C10H6+
127.0543	42	C10H7+
128.062	315	C10H8+
129.0447	2	C8H5N2+
129.0698	48	C10H9+
130.0414	3	C9H6O+
131.0491	38	C9H7O+
132.0568	2	C9H8O+
135.055	3	C7H7N2O+
139.0543	3	C11H7+
141.0698	28	C11H9+
143.0488	2	C10H7O+
144.057	36	C10H8O+
145.0648	48	C10H9O+
152.0621	12	C12H8+
153.0697	15	C12H9+
155.0603	67	C10H7N2+
157.0648	9	C11H9O+
165.0697	2	C13H9+
