Mass spectrum: Candesartan; LC-ESI-ITFT; MS2; CE: 35%; R=7500; [M+H]+
Name: Candesartan
Name: 2-ethoxy-3-[4-[2-(2H-tetrazol-5-yl)phenyl]benzyl]benzimidazole-4-carboxylic acid
Formula: C24H20N6O3
Exact mass: 440.1597
SMILES: c1(ccccc1c1ccc(Cn2c(nc3c2c(C(=O)O)ccc3)OCC)cc1)c1nnn[nH]1
InChI: InChI=1S/C24H20N6O3/c1-2-33-24-25-20-9-5-8-19(23(31)32)21(20)30(24)14-15-10-12-16(13-11-15)17-6-3-4-7-18(17)22-26-28-29-27-22/h3-13H,2,14H2,1H3,(H,31,32)(H,26,27,28,29)
Instrument: LTQ Orbitrap XL Thermo Scientific
Instrument type: LC-ESI-ITFT
Ms type: MS2
Ion mode: POSITIVE
Ionization: ESI
Fragmentation mode: CID
Collision energy: 35 % (nominal)
Resolution: 7500
Column name: XBridge C18 3.5um, 2.1x50mm, Waters
Retention time: 9.3 min
Base peak: 441.1683
Precursor m/z: 441.167
Precursor type: [M+H]+
m/z	relative intensity	assigned
165.0697	2	C13H9+
178.0775	4	C14H10+
192.081	25	C14H10N+
193.0882	4	C14H11N+
194.0964	8	C14H12N+
206.1081	2	C16H14+
208.1121	13	C15H14N+
210.0916	8	C14H12NO+
218.0964	6	C16H12N+
220.0994	8	C15H12N2+
234.1156	8	C16H14N2+
235.1231	37	C16H15N2+
263.1296	999	C18H17NO+
352.1082	2	C22H14N3O2+
413.1627	8	C24H21N4O3+
423.1573	984	C24H19N6O2+
