Mass spectrum: Methadone; LC-ESI-ITFT; MS2; CE: 45%; R=7500; [M+H]+
Name: Methadone
Name: 6-(dimethylamino)-4,4-diphenyl-3-heptanone
Formula: C21H27NO
Exact mass: 309.2093
SMILES: CCC(=O)C(CC(C)N(C)C)(c1ccccc1)c2ccccc2
InChI: InChI=1S/C21H27NO/c1-5-20(23)21(16-17(2)22(3)4,18-12-8-6-9-13-18)19-14-10-7-11-15-19/h6-15,17H,5,16H2,1-4H3
Instrument: LTQ Orbitrap XL Thermo Scientific
Instrument type: LC-ESI-ITFT
Ms type: MS2
Ion mode: POSITIVE
Ionization: ESI
Fragmentation mode: HCD
Collision energy: 45 % (nominal)
Resolution: 7500
Column name: XBridge C18 3.5um, 2.1x50mm, Waters
Retention time: 8.4 min
Base peak: 310.2177
Precursor m/z: 310.2165
Precursor type: [M+H]+
m/z	relative intensity	assigned
57.0335	34	C3H5O+
77.0387	36	C6H5+
91.0543	154	C7H7+
105.0336	999	C7H5O+
105.0701	130	C8H9+
117.07	89	C9H9+
129.0699	33	C10H9+
131.0855	15	C10H11+
143.0857	24	C11H11+
145.0653	13	C10H9O+
145.1007	9	C11H13+
147.0802	10	C10H11O+
159.0795	13	C9H9N3+
159.117	127	C12H15+
167.0856	11	C13H11+
169.1006	14	C13H13+
187.1117	59	C13H15O+
195.117	202	C15H15+
204.0931	9	C16H12+
205.1011	41	C16H13+
207.1166	32	C16H15+
218.1091	47	C17H14+
219.1169	304	C17H15+
223.112	435	C16H15O+
236.12	22	C17H16O+
247.1484	144	C19H19+
265.1589	675	C19H21O+
