Mass spectrum: Bensulfuron-Methyl; LC-ESI-QFT; MS2; CE: 180%; R=17500; [M+H]+
Name: Bensulfuron-Methyl
Name: methyl 2-[(4,6-dimethoxypyrimidin-2-yl)carbamoylsulfamoylmethyl]benzoate
Formula: C16H18N4O7S
Exact mass: 410.0896
SMILES: COC1=CC(=NC(=N1)NC(=O)NS(=O)(=O)CC2=CC=CC=C2C(=O)OC)OC
InChI: InChI=1S/C16H18N4O7S/c1-25-12-8-13(26-2)18-15(17-12)19-16(22)20-28(23,24)9-10-6-4-5-7-11(10)14(21)27-3/h4-8H,9H2,1-3H3,(H2,17,18,19,20,22)
Instrument: Exploris 240 Orbitrap Thermo Scientific
Instrument type: LC-ESI-QFT
Ms type: MS2
Ion mode: POSITIVE
Ionization: ESI
Fragmentation mode: HCD
Collision energy: 180 % (nominal)
Resolution: 17500
Column name: XBridge C18 3.5um, 2.1x50mm, Waters
Retention time: 7.850 min
Base peak: 411.0967
Precursor m/z: 411.0969
Precursor type: [M+H]+
m/z	relative intensity	assigned
50.015	33	C4H2+
51.0229	64	C4H3+
56.0131	21	C2H2NO+
57.0448	19	C2H5N2+
63.023	97	C5H3+
65.0386	999	C5H5+
68.0132	29	C3H2NO+
68.997	16	C3HO2+
69.0083	31	C2HN2O+
77.0386	35	C6H5+
78.0466	20	C6H6+
83.024	46	C3H3N2O+
89.0388	50	C7H5+
91.0542	331	C7H7+
93.0085	37	C4HN2O+
105.0446	14	C6H5N2+
