Mass spectrum: Diazinon; LC-ESI-ITFT; MS2; CE: 90%; R=30000; [M+H]+
Name: Diazinon
Name: diethoxy-(2-isopropyl-6-methyl-pyrimidin-4-yl)oxy-thioxo-phosphorane
Formula: C12H21N2O3PS
Exact mass: 304.1011
SMILES: O(c1nc(nc(c1)C)C(C)C)P(OCC)(OCC)=S
InChI: InChI=1S/C12H21N2O3PS/c1-6-15-18(19,16-7-2)17-11-8-10(5)13-12(14-11)9(3)4/h8-9H,6-7H2,1-5H3
Instrument: LTQ Orbitrap XL Thermo Scientific
Instrument type: LC-ESI-ITFT
Ms type: MS2
Ion mode: POSITIVE
Ionization: ESI
Fragmentation mode: HCD
Collision energy: 90 % (nominal)
Resolution: 30000
Column name: XBridge C18 3.5um, 2.1x50mm, Waters
Retention time: 13.0 min
Base peak: 305.1095
Precursor m/z: 305.1083
Precursor type: [M+H]+
m/z	relative intensity	assigned
58.995	26	C2H3S+
64.9787	20	H2O2P+
67.0417	54	C4H5N+
70.0651	184	C4H8N+
78.9403	24	OPS+
80.9736	40	H2O3P+
82.995	20	C4H3S+
84.0444	487	C4H6NO+
90.9944	17	C2H4O2P+
96.9508	862	H2O2PS+
98.9842	168	H4O4P+
100.0216	999	C4H6NS+
109.0049	73	C2H6O3P+
114.9614	668	H4O3PS+
153.0481	43	C7H9N2S+
153.1023	160	C8H13N2O+
154.056	59	C7H10N2S+
169.0794	433	C8H13N2S+
305.1095	16	C12H22N2O3PS+
