Mass spectrum: Nitenpyram; LC-ESI-QFT; MS2; CE: 30%; R=17500; [M-H]-
Name: Nitenpyram
Name: N-((6-chloropyridin-3-yl)methyl)-N-ethyl-N`-methyl-2-nitroethene-1,1-diamine
Name: 1-N`-[(6-chloropyridin-3-yl)methyl]-1-N`-ethyl-1-N-methyl-2-nitroethene-1,1-diamine
Formula: C11H15ClN4O2
Exact mass: 270.0884
SMILES: CCN(CC1=CN=C(C=C1)Cl)C(=C[N+](=O)[O-])NC
InChI: InChI=1S/C11H15ClN4O2/c1-3-15(11(13-2)8-16(17)18)7-9-4-5-10(12)14-6-9/h4-6,8,13H,3,7H2,1-2H3
Instrument: Exploris 240 Orbitrap Thermo Scientific
Instrument type: LC-ESI-QFT
Ms type: MS2
Ion mode: NEGATIVE
Ionization: ESI
Fragmentation mode: HCD
Collision energy: 30 % (nominal)
Resolution: 17500
Column name: XBridge C18 3.5um, 2.1x50mm, Waters
Retention time: 2.550 min
Base peak: 269.0812
Precursor m/z: 269.0811
Precursor type: [M-H]-
m/z	relative intensity	assigned
69.0095	167	C2HN2O-
85.041	185	C3H5N2O-
101.0357	991	C3H5N2O2-
111.9961	255	C5H3ClN-
183.0334	114	C8H8ClN2O-
191.0259	206	C9H6ClN3-
192.0339	140	C9H7ClN3-
193.0422	168	C11H10ClO-
206.0493	595	C10H9ClN3-
220.0645	199	C11H11ClN3-
221.0238	270	C9H6ClN4O-
222.0805	545	C11H13ClN3-
251.0707	163	C11H12ClN4O-
269.0814	999	C11H14ClN4O2-
