Mass spectrum: Codeine; LC-ESI-ITFT; MS2; CE: 60%; R=15000; [M+H]+
Name: Codeine
Name: (5,6)-3-Methoxy-17-methyl-7,8-didehydro-4,5-epoxymorphinan-6-ol
Name: Methylmorphine
Formula: C18H21NO3
Exact mass: 299.1521
SMILES: CN1CC[C@]23[C@@H]4[C@H]1CC5=C2C(=C(C=C5)OC)O[C@H]3[C@H](C=C4)O
InChI: InChI=1S/C18H21NO3/c1-19-8-7-18-11-4-5-13(20)17(18)22-16-14(21-2)6-3-10(15(16)18)9-12(11)19/h3-6,11-13,17,20H,7-9H2,1-2H3/t11-,12+,13-,17-,18-/m0/s1
Instrument: LTQ Orbitrap XL Thermo Scientific
Instrument type: LC-ESI-ITFT
Ms type: MS2
Ion mode: POSITIVE
Ionization: ESI
Fragmentation mode: HCD
Collision energy: 60 % (nominal)
Resolution: 15000
Column name: XBridge C18 3.5um, 2.1x50mm, Waters
Retention time: 2.8 min
Base peak: 300.1595
Precursor m/z: 300.1594
Precursor type: [M+H]+
m/z	relative intensity	assigned
58.0651	81	C3H8N+
69.0335	7	C4H5O+
79.0543	6	C6H7+
81.0332	3	C5H5O+
83.0492	5	C5H7O+
91.0541	5	C7H7+
93.07	7	C7H9+
103.0541	5	C8H7+
115.0538	6	C9H7+
121.0648	15	C8H9O+
129.0698	5	C10H9+
131.0489	6	C9H7O+
137.0596	60	C8H9O2+
141.0698	17	C11H9+
143.0492	11	C10H7O+
144.057	31	C10H8O+
144.0806	4	C10H10N+
145.0647	11	C10H9O+
146.0601	4	C9H8NO+
149.0592	3	C9H9O2+
151.075	3	C9H11O2+
153.0698	57	C12H9+
154.0777	6	C12H10+
155.0854	111	C12H11+
156.0568	8	C11H8O+
157.0647	11	C11H9O+
158.0724	16	C11H10O+
159.0803	102	C11H11O+
160.0754	6	C10H10NO+
161.0596	144	C10H9O2+
162.0908	6	C10H12NO+
163.075	8	C10H11O2+
164.0707	8	C9H10NO2+
165.0698	158	C13H9+
166.0778	16	C13H10+
167.0856	20	C13H11+
168.0569	35	C12H8O+
169.0646	13	C12H9O+
169.1012	5	C13H13+
170.0725	6	C12H10O+
171.0804	99	C12H11O+
172.0519	26	C11H8O2+
172.0881	21	C12H12O+
173.0593	4	C11H9O2+
173.0958	17	C12H13O+
174.0672	24	C11H10O2+
175.0752	33	C11H11O2+
177.055	6	C10H9O3+
177.0698	7	C14H9+
177.0778	4	C10H11NO2+
178.0775	7	C14H10+
178.0857	4	C10H12NO2+
179.0854	20	C14H11+
180.1014	6	C10H14NO2+
181.0647	168	C13H9O+
181.1012	26	C14H13+
182.0724	38	C13H10O+
183.0804	304	C13H11O+
184.0517	8	C12H8O2+
184.0881	14	C13H12O+
185.0596	44	C12H9O2+
185.096	23	C13H13O+
186.0675	35	C12H10O2+
187.0752	157	C12H11O2+
187.1117	58	C13H15O+
189.0907	6	C12H13O2+
190.0773	6	C15H10+
191.0855	55	C15H11+
192.1018	13	C11H14NO2+
193.0647	117	C14H9O+
193.0757	9	C13H9N2+
193.1011	18	C15H13+
194.0726	83	C14H10O+
195.0804	31	C14H11O+
196.0877	6	C14H12O+
197.0598	13	C13H9O2+
197.096	57	C14H13O+
198.0674	46	C13H10O2+
198.1035	9	C14H14O+
199.0752	393	C13H11O2+
200.083	61	C13H12O2+
201.0543	5	C12H9O3+
201.0908	40	C13H13O2+
203.0848	7	C16H11+
205.065	5	C15H9O+
207.0804	24	C15H11O+
208.0883	17	C15H12O+
209.0596	92	C14H9O2+
209.0961	41	C15H13O+
210.0674	50	C14H10O2+
211.0752	54	C14H11O2+
212.0829	39	C14H12O2+
213.0909	110	C14H13O2+
214.0982	6	C14H14O2+
215.1065	511	C14H15O2+
218.0718	4	C16H10O+
219.0803	42	C16H11O+
220.0882	25	C16H12O+
221.0599	15	C15H9O2+
221.0959	42	C16H13O+
223.0753	72	C15H11O2+
223.112	7	C16H15O+
224.0834	8	C15H12O2+
225.0909	319	C15H13O2+
226.0613	5	C14H10O3+
226.0983	7	C15H14O2+
227.0701	7	C14H11O3+
227.1067	4	C15H15O2+
228.0773	10	C14H12O3+
228.1013	6	C14H14NO2+
230.117	3	C14H16NO2+
235.0747	6	C16H11O2+
236.0829	33	C16H12O2+
237.091	14	C16H13O2+
238.0986	18	C16H14O2+
239.07	4	C15H11O3+
239.1067	15	C16H15O2+
241.0858	221	C15H13O3+
241.122	16	C16H17O2+
243.1014	235	C15H15O3+
250.1223	11	C17H16NO+
251.1064	38	C17H15O2+
251.1309	7	C17H17NO+
252.1013	10	C16H14NO2+
253.1221	30	C17H17O2+
254.0941	4	C16H14O3+
256.1335	5	C16H18NO2+
266.1174	56	C17H16NO2+
267.125	39	C17H17NO2+
269.1172	13	C17H17O3+
272.1278	4	C16H18NO3+
282.1488	77	C18H20NO2+
285.1363	13	C17H19NO3+
300.1591	999	C18H22NO3+
