Mass spectrum: Flumorph; LC-ESI-QFT; MS2; CE: 75%; R=17500; [M+H]+
Name: Flumorph
Name: Fumalin
Name: 3-(3,4-dimethoxyphenyl)-3-(4-fluorophenyl)-1-morpholin-4-ylprop-2-en-1-one
Formula: C21H22FNO4
Exact mass: 371.1533
SMILES: COC1=C(C=C(C=C1)C(=CC(=O)N2CCOCC2)C3=CC=C(C=C3)F)OC
InChI: InChI=1S/C21H22FNO4/c1-25-19-8-5-16(13-20(19)26-2)18(15-3-6-17(22)7-4-15)14-21(24)23-9-11-27-12-10-23/h3-8,13-14H,9-12H2,1-2H3
Instrument: Exploris 240 Orbitrap Thermo Scientific
Instrument type: LC-ESI-QFT
Ms type: MS2
Ion mode: POSITIVE
Ionization: ESI
Fragmentation mode: HCD
Collision energy: 75 % (nominal)
Resolution: 17500
Column name: XBridge C18 3.5um, 2.1x50mm, Waters
Retention time: 7.522 min
Base peak: 274.2527
Precursor m/z: 372.1606
Precursor type: [M+H]+
m/z	relative intensity	assigned
53.0387	12	C4H5+
66.0465	18	C5H6+
70.0287	422	C3H4NO+
77.0385	43	C6H5+
79.0541	75	C6H7+
81.0699	19	C6H9+
94.0412	29	C6H6O+
95.0292	14	C6H4F+
109.0448	264	C7H6F+
114.055	46	C5H8NO2+
121.0446	14	C8H6F+
122.0361	99	C7H6O2+
123.0241	427	C7H4FO+
137.0596	145	C8H9O2+
147.0238	15	C9H4FO+
150.0306	17	C8H6O3+
155.0703	19	C8H11O3+
165.0543	999	C9H9O3+
171.06	51	C12H8F+
177.0699	17	C14H9+
183.0602	88	C13H8F+
184.068	23	C13H9F+
185.076	38	C13H10F+
195.0607	14	C14H8F+
196.068	65	C14H9F+
197.0762	31	C14H10F+
199.0552	196	C13H8FO+
210.0472	16	C14H7FO+
211.0554	169	C14H8FO+
212.0637	35	C14H9FO+
213.0706	95	C14H10FO+
214.079	33	C14H11FO+
225.0709	34	C15H10FO+
226.0788	415	C15H11FO+
227.0505	195	C14H8FO2+
241.0666	62	C15H10FO2+
242.0737	252	C15H11FO2+
254.0742	16	C16H11FO2+
257.0976	69	C16H14FO2+
