Mass spectrum: Chlorthalidone; LC-ESI-QFT; MS2; CE: 60; R=35000; [M-H]-
Name: Chlorthalidone
Name: Chlortalidone
Name: 2-chloranyl-5-(1-oxidanyl-3-oxidanylidene-2H-isoindol-1-yl)benzenesulfonamide
Formula: C14H11ClN2O4S
Exact mass: 338.01281
SMILES: O=S(=O)(N)c1c(Cl)ccc(c1)C2(O)c3ccccc3C(=O)N2
InChI: InChI=1S/C14H11ClN2O4S/c15-11-6-5-8(7-12(11)22(16,20)21)14(19)10-4-2-1-3-9(10)13(18)17-14/h1-7,19H,(H,17,18)(H2,16,20,21)
Instrument: Q Exactive Orbitrap Thermo Scientific
Instrument type: LC-ESI-QFT
Ms type: MS2
Ion mode: NEGATIVE
Ionization: ESI
Fragmentation mode: HCD
Collision energy: 60 (nominal)
Resolution: 35000
Column name: XBridge C18 3.5um, 2.1x50mm, Waters
Retention time: 5.4 min
Base peak: 337.0058
Precursor m/z: 337.0055
Precursor type: [M-H]-
m/z	relative intensity	assigned
57.9757	4	CNS-
61.9706	131	NOS-
63.9624	34	O2S-
77.9655	121	NO2S-
78.9733	3	HNO2S-
79.9812	670	H2NO2S-
90.035	59	C6H4N-
91.019	24	C6H3O-
97.9474	1	ClHNOS-
98.0069	1	C4H4NS-
102.035	1	C7H4N-
105.0221	4	C6H3NO-
106.0299	3	C6H4NO-
108.0217	14	C6H4O2-
115.0303	6	C7H3N2-
120.0454	1	C7H6NO-
122.0249	6	C6H4NO2-
124.0404	1	C6H6NO2-
125.9879	12	C6H3ClO-
126.0116	35	C6H5ClN-
126.9957	13	C6H4ClO-
135.9859	1	C6H2NOS-
146.0248	999	C8H4NO2-
153.9969	83	C6H4NO2S-
164.0357	1	C5H9ClN2O2-
166.066	3	C12H8N-
173.9548	6	C6H3ClO2S-
189.9736	56	C6H5ClNO2S-
190.0535	8	C13H6N2-
191.0619	4	C13H7N2-
192.0457	8	C13H6NO-
193.0414	1	C12H5N2O-
194.0613	14	C13H8NO-
207.0564	7	C13H7N2O-
210.0556	1	C13H8NO2-
219.0563	44	C14H7N2O-
220.0403	14	C14H6NO2-
228.0224	3	C13H7ClNO-
235.0514	34	C14H7N2O2-
255.0233	1	C13H7N2O2S-
256.0174	3	C14H7ClNO2-
258.0231	3	C13H8NO3S-
283.0181	12	C14H7N2O3S-
