Mass spectrum: Azoxystrobin; LC-ESI-ITFT; MS2; CE: 75%; R=15000; [M+H]+
Name: Azoxystrobin
Name: Methyl (E)-2-[2-[6-(2-cyanophenoxy)pyrimidin-4-YL]oxyphenyl]-3-methoxy-prop-2-enoate
Formula: C22H17N3O5
Exact mass: 403.1168206
SMILES: CO/C=C(\C1=CC=CC=C1OC2=NC=NC(=C2)OC3=CC=CC=C3C#N)/C(=O)OC
InChI: InChI=1S/C22H17N3O5/c1-27-13-17(22(26)28-2)16-8-4-6-10-19(16)30-21-11-20(24-14-25-21)29-18-9-5-3-7-15(18)12-23/h3-11,13-14H,1-2H3/b17-13+
Instrument: LTQ Orbitrap XL Thermo Scientific
Instrument type: LC-ESI-ITFT
Ms type: MS2
Ion mode: POSITIVE
Ionization: ESI
Fragmentation mode: HCD
Collision energy: 75 % (nominal)
Resolution: 15000
Column name: XBridge C18 3.5um, 2.1x50mm, Waters
Retention time: 9.9 min
Base peak: 404.1245
Precursor m/z: 404.1241
Precursor type: [M+H]+
m/z	relative intensity	assigned
65.0386	7	C5H5+
68.9972	12	C3HO2+
77.0387	9	C6H5+
79.0543	7	C6H7+
89.0385	56	C7H5+
91.0417	9	C6H5N+
91.0542	11	C7H7+
103.0417	17	C7H5N+
103.0543	12	C8H7+
104.0495	45	C7H6N+
105.0337	16	C7H5O+
105.0574	15	C7H7N+
107.049	20	C7H7O+
114.0338	45	C8H4N+
115.0412	10	C8H5N+
116.0495	53	C8H6N+
117.0334	13	C8H5O+
117.0571	17	C8H7N+
118.0414	16	C8H6O+
119.0366	20	C7H5NO+
120.0444	57	C7H6NO+
127.0417	26	C9H5N+
128.0494	36	C9H6N+
129.0339	30	C9H5O+
129.0447	155	C8H5N2+
130.0288	26	C8H4NO+
130.0399	147	C7H4N3+
131.0606	15	C8H7N2+
132.0443	22	C8H6NO+
133.0285	24	C8H5O2+
133.0522	153	C8H7NO+
134.0364	15	C8H6O2+
134.0601	149	C8H8NO+
140.0493	10	C10H6N+
141.0447	48	C9H5N2+
143.0366	25	C9H5NO+
143.0604	78	C9H7N2+
144.0445	72	C9H6NO+
145.0284	23	C9H5O2+
145.0522	95	C9H7NO+
146.0237	39	C8H4NO2+
154.0286	8	C10H4NO+
154.0522	8	C10H6N2+
155.0362	13	C10H5NO+
155.0604	53	C10H7N2+
156.0445	726	C10H6NO+
157.0283	19	C10H5O2+
157.0516	9	C10H7NO+
159.0321	8	C9H5NO2+
159.0553	12	C9H7N2O+
162.0312	26	C9H6O3+
169.0396	39	C10H5N2O+
170.0476	47	C10H6N2O+
171.0553	121	C10H7N2O+
172.0394	999	C10H6NO2+
173.0472	18	C10H7NO2+
177.055	7	C10H9O3+
181.0394	13	C11H5N2O+
182.0474	58	C11H6N2O+
182.0712	11	C11H8N3+
183.0553	304	C11H7N2O+
184.0393	17	C11H6NO2+
186.0543	13	C11H8NO2+
187.0499	7	C10H7N2O2+
197.0351	10	C11H5N2O2+
199.0502	192	C11H7N2O2+
200.0342	345	C11H6NO3+
201.042	56	C11H7NO3+
210.0423	66	C12H6N2O2+
211.0503	39	C12H7N2O2+
217.0764	7	C15H9N2+
218.0835	18	C15H10N2+
219.0668	6	C15H9NO+
227.0453	12	C12H7N2O3+
233.0713	10	C15H9N2O+
242.0326	19	C12H6N2O4+
244.087	30	C16H10N3+
245.0711	53	C16H9N2O+
246.0785	23	C16H10N2O+
247.0875	7	C16H11N2O+
257.0703	15	C17H9N2O+
261.0787	5	C17H11NO2+
272.0817	140	C17H10N3O+
273.0659	66	C17H9N2O2+
273.0898	24	C17H11N3O+
274.0734	38	C17H10N2O2+
275.0813	26	C17H11N2O2+
300.0765	170	C18H10N3O2+
301.0845	64	C18H11N3O2+
317.0891	8	C16H15NO6+
328.0713	280	C19H10N3O3+
329.0793	63	C19H11N3O3+
