Mass spectrum: Albendazole sulfone; LC-ESI-QFT; MS2; CE: 45; R=35000; [M-H]-
Name: Albendazole sulfone
Name: methyl N-(6-propylsulfonyl-1H-benzimidazol-2-yl)carbamate
Formula: C12H15N3O4S
Exact mass: 297.07833
SMILES: CCCS(=O)(=O)C1=CC2=C(C=C1)N=C(N2)NC(=O)OC
InChI: InChI=1S/C12H15N3O4S/c1-3-6-20(17,18)8-4-5-9-10(7-8)14-11(13-9)15-12(16)19-2/h4-5,7H,3,6H2,1-2H3,(H2,13,14,15,16)
Instrument: Q Exactive Plus Orbitrap Thermo Scientific
Instrument type: LC-ESI-QFT
Ms type: MS2
Ion mode: NEGATIVE
Ionization: ESI
Fragmentation mode: HCD
Collision energy: 45 (nominal)
Resolution: 35000
Column name: XBridge C18 3.5um, 2.1x50mm, Waters
Retention time: 5.7 min
Base peak: 264.0444
Precursor m/z: 296.0711
Precursor type: [M-H]-
m/z	relative intensity	assigned
65.0145	8	C3HN2-
65.9985	7	C3NO-
68.0016	2	C2N2O-
89.0145	2	C5HN2-
90.0223	6	C5H2N2-
92.0254	10	C4H2N3-
93.0094	2	C4HN2O-
95.025	17	C4H3N2O-
102.0223	1	C6H2N2-
105.0332	3	C5H3N3-
106.0172	69	C5H2N2O-
120.0091	5	C6H2NO2-
132.0203	4	C6H2N3O-
133.0282	197	C6H3N3O-
134.012	2	C6H2N2O2-
134.036	2	C6H4N3O-
136.0151	4	C5H2N3O2-
145.0282	8	C7H3N3O-
149.023	31	C6H3N3O2-
157.0281	425	C8H3N3O-
158.036	46	C8H4N3O-
160.0153	83	C7H2N3O2-
161.023	13	C7H3N3O2-
162.031	2	C7H4N3O2-
173.023	47	C8H3N3O2-
188.0101	2	C8H2N3O3-
189.0181	5	C8H3N3O3-
189.0543	22	C9H7N3O2-
192.0419	3	C8H6N3O3-
205.0493	1	C9H7N3O3-
206.0031	1	C8H4N3O2S-
220.9901	259	C8H3N3O3S-
221.9979	38	C8H4N3O3S-
264.0449	999	C11H10N3O3S-
296.0707	9	C12H14N3O4S-
