Mass spectrum: Iodosulfuron-methyl; LC-ESI-QFT; MS2; CE: 150; R=35000; [M+H]+
Name: Iodosulfuron-methyl
Name: Methyl 4-iodo-2-(N-(4-methoxy-6-methyl-1,3,5-triazin-2-ylcarbamoyl)sulfamoyl)benzoate
Name: Methyl 4-iodo-2-[(4-methoxy-6-methyl-1,3,5-triazin-2-yl)carbamoylsulfamoyl]benzoate
Formula: C14H14IN5O6S
Exact mass: 506.97095
SMILES: Cc2nc(NC(=O)NS(=O)(=O)c1cc(I)ccc1C(=O)OC)nc(OC)n2
InChI: InChI=1S/C14H14IN5O6S/c1-7-16-12(19-14(17-7)26-3)18-13(22)20-27(23,24)10-6-8(15)4-5-9(10)11(21)25-2/h4-6H,1-3H3,(H2,16,17,18,19,20,22)
Instrument: Q Exactive Plus Orbitrap Thermo Scientific
Instrument type: LC-ESI-QFT
Ms type: MS2
Ion mode: POSITIVE
Ionization: ESI
Fragmentation mode: HCD
Collision energy: 150 (nominal)
Resolution: 35000
Column name: XBridge C18 3.5um, 2.1x50mm, Waters
Retention time: 9.3 min
Base peak: 507.9772
Precursor m/z: 507.9782
Precursor type: [M+H]+
m/z	relative intensity	assigned
50.0152	109	C4H2+
51.023	12	C4H3+
52.0182	4	C3H2N+
52.0308	6	C4H4+
53.0022	28	C3HO+
53.0386	6	C4H5+
53.9974	2	C2NO+
54.0464	1	C4H6+
55.0291	6	C2H3N2+
56.0131	22	C2H2NO+
56.0495	174	C3H6N+
57.0448	33	C2H5N2+
58.0288	192	C2H4NO+
61.0073	42	C5H+
62.0151	238	C5H2+
63.023	256	C5H3+
64.0182	1	C4H2N+
64.0308	10	C5H4+
65.0022	16	C4HO+
65.0261	2	C4H3N+
65.0386	3	C5H5+
66.0087	4	C2N3+
66.0102	5	C4H2O+
66.0465	1	C5H6+
67.0291	12	C3H3N2+
68.0244	21	C2H2N3+
69.0083	999	C2HN2O+
69.9923	3	C2NO2+
74.0151	16	C6H2+
75.0104	42	C5HN+
75.0229	13	C6H3+
76.0307	142	C6H4+
77.0135	1	C4HN2+
77.0385	9	C6H5+
78.01	3	C5H2O+
78.0465	18	C6H6+
79.0178	10	C5H3O+
79.0417	1	C5H5N+
81.0336	6	C5H5O+
83.024	52	C3H3N2O+
87.0104	2	C6HN+
88.0182	35	C6H2N+
89.026	31	C6H3N+
89.0385	3	C7H5+
91.0179	27	C6H3O+
91.0416	4	C6H5N+
94.0036	7	C3N3O+
95.0492	10	C6H7O+
100.0182	1	C7H2N+
101.0261	14	C7H3N+
105.0334	4	C7H5O+
105.045	7	C6H5N2+
107.0128	1	C6H3O2+
117.0208	4	C7H3NO+
119.0128	1	C7H3O2+
119.024	2	C6H3N2O+
126.9037	1	I+
140.9196	5	CH2I+
164.9196	6	C3H2I+
215.9302	3	C6H3IN+
217.922	1	C6H3IO+
