Mass spectrum: Fluoxastrobin; LC-ESI-QFT; MS2; CE: 45; R=35000; [M+H]+
Name: Fluoxastrobin
Name: (E)-[[2-[6-(2-chlorophenoxy)-5-fluoro-pyrimidin-4-yl]oxyphenyl]-(5,6-dihydro-1,4,2-dioxazin-3-yl)methylene]-methoxy-amine
Formula: C21H16ClFN4O5
Exact mass: 458.07933
SMILES: Clc4ccccc4Oc3ncnc(Oc2ccccc2C(=N\OC)/C=1OCCON=1)c3F
InChI: InChI=1S/C21H16ClFN4O5/c1-28-26-18(21-27-30-11-10-29-21)13-6-2-4-8-15(13)31-19-17(23)20(25-12-24-19)32-16-9-5-3-7-14(16)22/h2-9,12H,10-11H2,1H3/b26-18+
Instrument: Q Exactive Orbitrap Thermo Scientific
Instrument type: LC-ESI-QFT
Ms type: MS2
Ion mode: POSITIVE
Ionization: ESI
Fragmentation mode: HCD
Collision energy: 45 (nominal)
Resolution: 35000
Column name: XBridge C18 3.5um, 2.1x50mm, Waters
Retention time: 11.5 min
Base peak: 459.0867
Precursor m/z: 459.0866
Precursor type: [M+H]+
m/z	relative intensity	assigned
65.0386	37	C5H5+
69.9923	11	C2NO2+
73.0195	2	C2H2FN2+
73.0284	3	C3H5O2+
75.0229	11	C6H3+
78.0337	14	
79.0416	7	C5H5N+
79.0542	9	C6H7+
80.0495	7	C5H6N+
81.0335	11	C5H5O+
86.0237	8	C3H4NO2+
86.9877	8	C3FO2+
86.9996	7	C4H4Cl+
90.0338	86	C6H4N+
91.0414	4	CH4FN4+
91.0542	12	C7H7+
92.0494	9	C6H6N+
93.0334	23	C6H5O+
95.0491	43	C6H7O+
96.0445	9	C5H6NO+
98.9996	10	C5H4Cl+
104.0141	2	C3H3FNO2+
104.0494	32	C7H6N+
105.0335	4	C7H5O+
105.0447	16	C6H5N2+
106.0287	31	C6H4NO+
106.0524	4	C6H6N2+
107.0293	4	C7H4F+
108.0443	5	C6H6NO+
110.9993	8	CH3ClFN3+
111.044	36	C6H7O2+
116.0366	2	C7H4N2+
116.0493	2	C3H5FN4+
117.0447	3	C7H5N2+
117.0571	3	C3H6FN4+
118.0287	5	C7H4NO+
118.0525	4	C7H6N2+
119.0366	22	C7H5NO+
120.0443	110	C7H6NO+
121.0396	3	C6H5N2O+
122.04	18	C7H5FN+
123.0353	1	C6H4FN2+
125.0149	2	C2H5ClFN3+
126.9944	2	C6H4ClO+
128.0023	10	C6H5ClO+
129.0098	64	CH5ClFN3O+
129.0445	29	C8H5N2+
130.029	59	C5H7ClN2+
130.0399	58	C7H4N3+
130.0525	10	
131.0606	7	C8H7N2+
132.0292	2	C4H6NO4+
132.0443	30	C8H6NO+
132.0556	8	C7H6N3+
133.032	2	C8H4FN+
133.0396	7	C7H5N2O+
134.0236	3	C7H4NO2+
134.04	10	C8H5FN+
134.0474	2	C7H6N2O+
134.0599	11	C3H7FN4O+
135.0238	2	C8H4FO+
136.0392	9	C2H5FN4O2+
138.0105	381	C7H5ClN+
138.9946	25	C7H4ClO+
139.0058	70	C6H4ClN2+
140.99	7	C7H3ClF+
142.0401	4	C8H4N3+
143.006	3	C7H5ClF+
144.0318	17	C8H4N2O+
144.0555	12	C8H6N3+
145.0396	164	C8H5N2O+
146.0234	10	C3H3FN4O2+
147.0353	8	C8H4FN2+
147.0551	3	C8H7N2O+
147.9947	2	C3H2ClFN4+
149.0511	1	C8H6FN2+
150.0349	172	C8H5FNO+
151.0054	13	
154.0399	8	C9H4N3+
154.9894	3	C7H4ClO2+
155.0237	1	C9H3N2O+
156.0008	2	C10HFO+
157.0397	13	C9H5N2O+
159.0353	10	C9H4FN2+
160.0267	20	C8H4N2O2+
160.0431	12	C9H5FN2+
160.0506	10	C8H6N3O+
161.0272	8	C9H4FNO+
161.0344	46	C8H5N2O2+
162.0348	19	C9H5FNO+
162.0423	26	C8H6N2O2+
163.0056	29	C8H4ClN2+
163.0433	3	C6H9ClFN2+
163.0499	35	C8H7N2O2+
164.0341	132	C3H5FN4O3+
165.0456	2	C8H6FN2O+
166.0053	11	C8H5ClNO+
168.0009	60	C8H4ClFN+
168.0454	9	C8H7FNO2+
170.0349	35	C9H4N3O+
172.0503	4	C9H6N3O+
174.0458	8	C9H5FN3+
175.0301	58	C9H4FN2O+
176.038	24	C9H5FN2O+
177.0457	3	C9H6FN2O+
178.0298	121	C9H5FNO2+
179.0006	75	C8H4ClN2O+
182.0347	9	C10H4N3O+
183.0118	8	C8H5ClFN2+
183.9961	26	C8H4ClFNO+
186.0464	7	C15H6+
187.0299	2	C10H4FN2O+
188.038	999	C10H5FN2O+
189.0457	16	C10H6FN2O+
190.031	2	C7H8ClFN2O+
190.041	15	C9H5FN3O+
190.0501	15	
191.0248	24	C9H4FN2O2+
195.0118	4	C9H5ClFN2+
195.9965	1	C9H4ClFNO+
198.0297	8	C10H4N3O2+
202.0064	2	C8H6ClFNO2+
202.0409	17	C10H5FN3O+
203.0251	10	C10H4FN2O2+
204.0329	4	C10H5FN2O2+
204.0767	3	C10H10N3O2+
205.0407	56	C10H6FN2O2+
205.0608	37	C10H9N2O3+
212.0464	2	C8H7FN3O3+
214.0065	47	C9H6ClFNO2+
214.0408	12	C11H5FN3O+
214.0616	11	
215.0253	3	C11H4FN2O2+
215.049	8	C11H6FN3O+
216.0566	10	C11H7FN3O+
218.0359	20	C10H5FN3O2+
220.028	11	C10H5FN2O3+
221.0356	7	C10H6FN2O3+
223.0068	17	C10H5ClFN2O+
223.0262	4	C8H4FN4O3+
223.0664	2	C14H8FN2+
223.9908	18	C10H4ClFNO2+
225.0583	10	C14H8FNO+
228.044	18	C11H5FN4O+
228.0549	3	C15H6N3+
229.0282	18	C11H4FN3O2+
229.052	8	C11H6FN4O+
230.0361	100	C11H5FN3O2+
231.0198	16	C11H4FN2O3+
232.0516	13	
232.0623	3	C6H14ClFN2O4+
239.0018	3	C10H5ClFN2O2+
239.0363	2	C12H4FN4O+
239.9854	3	C13HFO4+
240.0447	15	
241.017	4	C13H4FNO3+
241.0514	17	C12H6FN4O+
242.0593	13	
244.0518	17	
246.031	40	C11H5FN3O3+
250.018	14	C16H7ClO+
251.0607	4	C15H8FN2O+
252.0691	12	
255.0312	11	C12H4FN4O2+
257.0471	12	
262.0535	8	C16H7FN2O+
263.0603	2	C19H7N2+
264.0318	10	C18H4N2O+
266.0127	37	C14H5ClN3O+
274.0616	19	C13H11ClN4O+
277.0643	18	C16H8FN3O+
278.0721	19	C16H9FN3O+
279.0563	15	C16H8FN2O2+
280.0634	22	
301.0722	2	C17H9N4O2+
304.0516	13	C17H7FN3O2+
304.0752	7	C17H9FN4O+
306.0672	373	C17H9FN3O2+
308.0229	2	C16H5FN2O4+
312.0336	2	C21H9ClO+
313.0411	10	C16H9ClFN3O+
313.0716	7	C18H9N4O2+
315.033	51	C16H9ClFN2O2+
318.0672	38	C18H9FN3O2+
331.0624	41	C18H8FN4O2+
340.0284	62	C17H8ClFN3O2+
342.0444	20	C17H10ClFN3O2+
355.0393	3	C17H9ClFN4O2+
358.0386	11	
367.0393	54	C18H9ClFN4O2+
383.0338	29	
397.0497	5	C19H11ClFN4O3+
427.0601	15	C20H13ClFN4O4+
