Mass spectrum: Proquinazid; LC-ESI-QFT; MS2; CE: 180; R=35000; [M+H]+
Name: Proquinazid
Name: 6-Iodo-2-propoxy-3-propylquinazolin-4-one
Formula: C14H17IN2O2
Exact mass: 372.03348
SMILES: CCCN1C(=O)C2=C(C=CC(=C2)I)N=C1OCCC
InChI: InChI=1S/C14H17IN2O2/c1-3-7-17-13(18)11-9-10(15)5-6-12(11)16-14(17)19-8-4-2/h5-6,9H,3-4,7-8H2,1-2H3
Instrument: Q Exactive Plus Orbitrap Thermo Scientific
Instrument type: LC-ESI-QFT
Ms type: MS2
Ion mode: POSITIVE
Ionization: ESI
Fragmentation mode: HCD
Collision energy: 180 (nominal)
Resolution: 35000
Column name: XBridge C18 3.5um, 2.1x50mm, Waters
Retention time: 16.6 min
Base peak: 373.0401
Precursor m/z: 373.0408
Precursor type: [M+H]+
m/z	relative intensity	assigned
50.0152	12	C4H2+
51.023	2	C4H3+
52.0182	23	C3H2N+
52.0308	2	C4H4+
53.0023	18	C3HO+
53.9975	9	C2NO+
54.0464	4	C4H6+
61.0073	256	C5H+
62.0151	999	C5H2+
63.0104	54	C4HN+
63.023	133	C5H3+
64.0182	19	C4H2N+
64.0308	40	C5H4+
65.026	47	C4H3N+
66.0101	47	C4H2O+
68.9972	2	C3HO2+
69.9924	1	C2NO2+
74.0151	6	C6H2+
75.0104	21	C5HN+
75.023	6	C6H3+
76.0182	6	C5H2N+
76.0308	1	C6H4+
77.0021	6	C5HO+
77.0135	3	C4HN2+
77.026	1	C5H3N+
78.0101	23	C5H2O+
78.0339	4	C5H4N+
79.0179	52	C5H3O+
79.0417	9	C5H5N+
80.0131	5	C4H2NO+
81.0336	1	C5H5O+
87.0104	20	C6HN+
88.0182	256	C6H2N+
89.026	160	C6H3N+
90.0214	1	C5H2N2+
90.034	14	C6H4N+
91.0053	1	C5HNO+
91.0417	14	C6H5N+
92.0257	22	C6H4O+
101.0261	2	C7H3N+
104.013	1	C6H2NO+
105.0449	2	C6H5N2+
107.0367	3	C6H5NO+
116.037	11	C7H4N2+
117.021	34	C7H3NO+
140.9197	22	CH2I+
164.9198	28	C3H2I+
188.9197	5	C5H2I+
189.9149	2	C4HIN+
215.9308	21	C6H3IN+
