Mass spectrum: Phosphamidon; LC-ESI-QFT; MS2; CE: 120%; R=17500; [M+H]+
Name: Phosphamidon
Name: 2-Chloro-3-(diethylamino)-1-methyl-3-oxo-1-propenyl dimethyl phosphate
Name: [3-chloro-4-(diethylamino)-4-oxobut-2-en-2-yl] dimethyl phosphate
Formula: C10H19ClNO5P
Exact mass: 299.0689
SMILES: CCN(CC)C(=O)C(=C(C)OP(=O)(OC)OC)Cl
InChI: InChI=1S/C10H19ClNO5P/c1-6-12(7-2)10(13)9(11)8(3)17-18(14,15-4)16-5/h6-7H2,1-5H3
Instrument: Exploris 240 Orbitrap Thermo Scientific
Instrument type: LC-ESI-QFT
Ms type: MS2
Ion mode: POSITIVE
Ionization: ESI
Fragmentation mode: HCD
Collision energy: 120 % (nominal)
Resolution: 17500
Column name: XBridge C18 3.5um, 2.1x50mm, Waters
Retention time: 5.169 min
Base peak: 300.076
Precursor m/z: 300.0762
Precursor type: [M+H]+
m/z	relative intensity	assigned
65.0388	279	C5H5+
67.0419	84	C4H5N+
72.0444	561	C3H6NO+
72.984	622	C3H2Cl+
74.9872	83	C2H2ClN+
74.9996	341	C3H4Cl+
75.9948	701	C2H3ClN+
78.994	238	CH4O2P+
82.0651	59	C5H8N+
94.9896	169	C2H4ClO2+
112.9999	443	C2H6ClO3+
127.0155	999	C2H8O4P+
