Mass spectrum: 8phiC8SPC; LC-ESI-QFT; MS2; CE: 75; R=35000; [M+H]+
Name: 8phiC8SPC
Name: Octacarboxy sulfophenyl carboxylic acid
Name: 8-(4-sulfophenyl)octanoic acid
Formula: C14H20O5S
Exact mass: 300.10314
SMILES: OS(=O)(=O)c1ccc(CCCCCCCC(=O)O)cc1
InChI: InChI=1S/C14H20O5S/c15-14(16)7-5-3-1-2-4-6-12-8-10-13(11-9-12)20(17,18)19/h8-11H,1-7H2,(H,15,16)(H,17,18,19)
Instrument: Q Exactive Plus Orbitrap Thermo Scientific
Instrument type: LC-ESI-QFT
Ms type: MS2
Ion mode: POSITIVE
Ionization: ESI
Fragmentation mode: HCD
Collision energy: 75 (nominal)
Resolution: 35000
Column name: XBridge C18 3.5um, 2.1x50mm, Waters
Retention time: 7.9 min
Base peak: 315.1259
Precursor m/z: 301.1104
Precursor type: [M+H]+
m/z	relative intensity	assigned
50.015	1	C4H2+
51.0229	7	C4H3+
53.0022	7	C3HO+
53.0386	55	C4H5+
53.9975	1	C2NO+
55.0178	12	C3H3O+
55.0542	36	C4H7+
57.0699	28	C4H9+
58.9951	1	C2H3S+
59.0492	7	C3H7O+
63.0228	1	C5H3+
65.0385	6	C5H5+
67.0542	12	C5H7+
69.0698	8	C5H9+
71.0855	16	C5H11+
77.0385	37	C6H5+
78.0464	57	C6H6+
79.0542	205	C6H7+
81.0335	6	C5H5O+
81.0699	14	C6H9+
89.0387	1	C7H5+
90.0464	6	C7H6+
91.0543	206	C7H7+
93.0699	19	C7H9+
94.0413	4	C6H6O+
95.0492	199	C6H7O+
97.0107	8	C5H5S+
97.065	2	C6H9O+
102.0464	5	C8H6+
103.0543	335	C8H7+
104.0621	834	C8H8+
105.0448	102	C6H5N2+
105.0699	60	C8H9+
107.0491	999	C7H7O+
109.0107	28	C6H5S+
111.0263	40	C6H7S+
115.0543	82	C9H7+
116.0621	80	C9H8+
117.0699	241	C9H9+
118.0413	5	C8H6O+
118.0777	55	C9H10+
119.0492	5	C8H7O+
120.057	5	C8H8O+
121.0648	48	C8H9O+
123.0263	8	C7H7S+
125.0057	12	C6H5OS+
128.062	12	C10H8+
129.0699	48	C10H9+
130.0778	29	C10H10+
131.0492	5	C9H7O+
131.0604	62	C8H7N2+
131.0856	107	C10H11+
132.0571	13	C9H8O+
132.0937	1	C10H12+
133.0649	10	C9H9O+
134.0185	38	C8H6S+
135.0263	21	C8H7S+
135.0803	1	C9H11O+
137.0056	14	C7H5OS+
139.0211	10	C7H7OS+
141.0698	13	C11H9+
142.0777	9	C11H10+
143.0855	20	C11H11+
144.0571	4	C10H8O+
144.0935	1	C11H12+
145.0648	6	C10H9O+
145.076	7	C9H9N2+
145.1012	7	C11H13+
146.0725	2	C10H10O+
147.0263	12	C9H7S+
147.0804	1	C10H11O+
148.0341	6	C9H8S+
148.0517	1	C9H8O2+
149.042	5	C9H9S+
149.0957	1	C10H13O+
150.0137	3	C8H6OS+
151.0213	16	C8H7OS+
151.9928	1	C7H4O2S+
153.0006	4	C7H5O2S+
153.0701	7	C12H9+
154.0778	1	C12H10+
155.0855	7	C12H11+
157.1012	1	C12H13+
159.0916	11	C10H11N2+
161.042	1	C10H9S+
165.0369	1	C9H9OS+
165.0701	1	C13H9+
167.0162	25	C8H7O2S+
167.0854	6	C13H11+
168.0931	1	C13H12+
171.0111	603	C7H7O3S+
181.0315	1	C9H9O2S+
185.0268	31	C8H9O3S+
185.0419	4	C12H9S+
186.0502	1	C12H10S+
