Mass spectrum: Monolinuron; LC-ESI-QFT; MS2; CE: 90; R=35000; [M+H]+
Name: Monolinuron
Name: 3-(4-chlorophenyl)-1-methoxy-1-methyl-urea
Formula: C9H11ClN2O2
Exact mass: 214.05091
SMILES: Clc1ccc(NC(=O)N(OC)C)cc1
InChI: InChI=1S/C9H11ClN2O2/c1-12(14-2)9(13)11-8-5-3-7(10)4-6-8/h3-6H,1-2H3,(H,11,13)
Instrument: Q Exactive Orbitrap Thermo Scientific
Instrument type: LC-ESI-QFT
Ms type: MS2
Ion mode: POSITIVE
Ionization: ESI
Fragmentation mode: HCD
Collision energy: 90 (nominal)
Resolution: 35000
Column name: XBridge C18 3.5um, 2.1x50mm, Waters
Retention time: 8.0 min
Base peak: 215.0581
Precursor m/z: 215.0582
Precursor type: [M+H]+
m/z	relative intensity	assigned
58.0288	14	C2H4NO+
60.0444	16	C2H6NO+
62.0601	6	C2H8NO+
63.0229	16	C5H3+
65.0386	31	C5H5+
72.9839	77	C3H2Cl+
81.0335	2	C5H5O+
90.0337	49	C6H4N+
91.0415	59	C6H5N+
92.0493	62	C6H6N+
93.0571	11	C6H7N+
98.9995	999	C5H4Cl+
100.0072	61	C5H5Cl+
105.0447	10	C6H5N2+
106.065	2	C7H8N+
108.0443	3	C6H6NO+
110.06	5	C6H8NO+
114.0105	4	C5H5ClN+
119.0602	230	C7H7N2+
120.0442	2	C7H6NO+
120.0682	5	C7H8N2+
126.0103	258	C6H5ClN+
127.0181	437	
128.0258	2	C9H4O+
129.0446	3	C8H5N2+
131.0602	7	C8H7N2+
133.0394	3	C7H5N2O+
139.0055	3	C6H4ClN2+
140.0258	9	C7H7ClN+
141.021	5	C9H3NO+
147.055	69	C8H7N2O+
148.0629	38	C8H8N2O+
168.0081	4	C7H5ClN2O+
183.0318	19	C8H8ClN2O+
