Mass spectrum: Aminocarb; LC-ESI-QFT; MS2; CE: 120%; R=17500; [M+H]+
Name: Aminocarb
Name: [4-(dimethylamino)-3-methylphenyl] N-methylcarbamate
Formula: C11H16N2O2
Exact mass: 208.1212
SMILES: CC1=C(C=CC(=C1)OC(=O)NC)N(C)C
InChI: InChI=1S/C11H16N2O2/c1-8-7-9(15-11(14)12-2)5-6-10(8)13(3)4/h5-7H,1-4H3,(H,12,14)
Instrument: Exploris 240 Orbitrap Thermo Scientific
Instrument type: LC-ESI-QFT
Ms type: MS2
Ion mode: POSITIVE
Ionization: ESI
Fragmentation mode: HCD
Collision energy: 120 % (nominal)
Resolution: 17500
Column name: XBridge C18 3.5um, 2.1x50mm, Waters
Retention time: 1.684 min
Base peak: 209.1283
Precursor m/z: 209.1285
Precursor type: [M+H]+
m/z	relative intensity	assigned
67.0542	15	C5H7+
77.0385	20	C6H5+
79.0541	8	C6H7+
91.0542	9	C7H7+
92.0621	7	C7H8+
94.065	62	C6H8N+
95.0491	32	C6H7O+
107.0491	18	C7H7O+
108.0568	26	C7H8O+
108.0808	11	C7H10N+
120.0572	35	C8H8O+
120.0808	22	C8H10N+
121.0646	7	C8H9O+
122.0601	999	C7H8NO+
136.0757	351	C8H10NO+
137.0836	362	C8H11NO+
