Mass spectrum: Cycloxaprid; LC-ESI-QFT; MS2; CE: 120%; R=17500; [M+H]+
Name: Cycloxaprid
Name: 1-((6-chloropyridin-3-yl)methyl)-9-nitro-2,3,5,6,7,8-hexahydro-1H-5,8-epoxyimidazo[1,2-a]azepine
Name: 5-[(6-chloropyridin-3-yl)methyl]-7-nitro-11-oxa-2,5-diazatricyclo[6.2.1.02,6]undec-6-ene
Formula: C14H15ClN4O3
Exact mass: 322.0833
SMILES: C1CC2N3CCN(C3=C(C1O2)[N+](=O)[O-])CC4=CN=C(C=C4)Cl
InChI: InChI=1S/C14H15ClN4O3/c15-11-3-1-9(7-16-11)8-17-5-6-18-12-4-2-10(22-12)13(14(17)18)19(20)21/h1,3,7,10,12H,2,4-6,8H2
Instrument: Exploris 240 Orbitrap Thermo Scientific
Instrument type: LC-ESI-QFT
Ms type: MS2
Ion mode: POSITIVE
Ionization: ESI
Fragmentation mode: HCD
Collision energy: 120 % (nominal)
Resolution: 17500
Column name: XBridge C18 3.5um, 2.1x50mm, Waters
Retention time: 2.935 min
Base peak: 323.0906
Precursor m/z: 323.0905
Precursor type: [M+H]+
m/z	relative intensity	assigned
53.0387	34	C4H5+
54.0339	49	C3H4N+
54.0465	13	C4H6+
55.0417	16	C3H5N+
55.0542	39	C4H7+
56.0496	23	C3H6N+
63.023	82	C5H3+
65.0386	63	C5H5+
66.0465	32	C5H6+
67.0417	54	C4H5N+
67.0543	43	C5H7+
68.0495	51	C4H6N+
69.0336	19	C4H5O+
72.984	138	C3H2Cl+
77.0387	12	C6H5+
78.034	38	C5H4N+
79.0543	31	C6H7+
80.0496	132	C5H6N+
81.0449	41	C4H5N2+
81.0575	45	C5H7N+
82.0527	35	C4H6N2+
82.0652	86	C5H8N+
83.0605	28	C4H7N2+
84.0682	18	C4H8N2+
90.0339	477	C6H4N+
91.0418	102	C6H5N+
93.0452	14	C5H5N2+
94.0651	125	C6H8N+
95.0607	52	C5H7N2+
95.0733	18	C6H9N+
96.0444	26	C5H6NO+
98.9997	428	C5H4Cl+
102.0341	11	C7H4N+
104.0496	58	C7H6N+
106.0653	44	C7H8N+
107.0607	40	C6H7N2+
108.0683	102	C6H8N2+
108.0812	20	C7H10N+
109.0762	19	C6H9N2+
116.0496	21	C8H6N+
117.0576	36	C8H7N+
121.0761	394	C7H9N2+
122.0838	23	C7H10N2+
123.0555	18	C6H7N2O+
123.0917	153	C7H11N2+
126.0106	999	C6H5ClN+
128.0494	17	C9H6N+
129.0446	16	C8H5N2+
131.0605	11	C8H7N2+
139.0058	23	C6H4ClN2+
142.0523	24	C9H6N2+
144.0213	33	C6H7ClNO+
152.0267	10	C8H7ClN+
164.0266	13	C9H7ClN+
165.0214	32	C8H6ClN2+
184.0868	36	C11H10N3+
185.0955	17	C11H11N3+
191.0372	17	C10H8ClN2+
206.0475	26	C13H6N2O+
