Mass spectrum: Clothianidin; LC-ESI-ITFT; MS2; CE: 75%; R=15000; [M+H]+
Name: Clothianidin
Name: 1-[(2-chloranyl-1,3-thiazol-5-yl)methyl]-2-methyl-3-nitro-guanidine
Name: 1-[(2-chloro-1,3-thiazol-5-yl)methyl]-2-methyl-3-nitroguanidine
Formula: C6H8ClN5O2S
Exact mass: 249.0087
SMILES: Clc1ncc(s1)CN/C(=N/C)N[N+]([O-])=O
InChI: InChI=1S/C6H8ClN5O2S/c1-8-6(11-12(13)14)10-3-4-2-9-5(7)15-4/h2H,3H2,1H3,(H2,8,10,11)
Instrument: LTQ Orbitrap XL Thermo Scientific
Instrument type: LC-ESI-ITFT
Ms type: MS2
Ion mode: POSITIVE
Ionization: ESI
Fragmentation mode: HCD
Collision energy: 75 % (nominal)
Resolution: 15000
Column name: XBridge C18 3.5um, 2.1x50mm, Waters
Retention time: 4.9 min
Base peak: 250.0165
Precursor m/z: 250.016
Precursor type: [M+H]+
m/z	relative intensity	assigned
54.0338	13	C3H4N+
57.0447	15	C2H5N2+
58.995	2	C2H3S+
59.9902	3	CH2NS+
63.9948	2	CH3ClN+
69.0447	9	C3H5N2+
70.995	82	C3H3S+
78.9404	6	CClS+
81.0447	4	C4H5N2+
82.0526	2	C4H6N2+
83.0603	5	C4H7N2+
86.0058	53	C3H4NS+
87.0137	3	C3H5NS+
87.9948	9	C3H3ClN+
90.0105	2	C3H5ClN+
96.0555	13	C4H6N3+
97.0393	2	C4H5N2O+
97.0635	3	C4H7N3+
98.0057	2	C4H4NS+
98.0711	3	C4H8N3+
99.001	3	C3H3N2S+
108.0555	9	C5H6N3+
109.0634	10	C5H7N3+
110.0712	309	C5H8N3+
111.079	191	C5H9N3+
112.0088	7	C4H4N2S+
113.0167	639	C4H5N2S+
115.0323	3	C4H7N2S+
118.9592	3	C3H2ClNS+
119.9668	28	C3H3ClNS+
125.0819	8	C5H9N4+
126.012	11	C4H4N3S+
127.0198	10	C4H5N3S+
128.0402	2	C5H8N2S+
131.9668	999	C4H3ClNS+
132.9746	45	C4H4ClNS+
134.9542	3	C3H2ClNOS+
135.0667	3	C6H7N4+
138.0121	6	C5H4N3S+
142.0432	25	C5H8N3S+
143.0505	1	C5H9N3S+
146.9777	45	C4H4ClN2S+
147.9855	25	C4H5ClN2S+
153.0228	25	C5H5N4S+
154.0306	6	C5H6N4S+
167.0385	19	C6H7N4S+
168.0461	8	C6H8N4S+
169.0541	97	C6H9N4S+
171.9729	12	C5H3ClN3S+
172.9806	5	C5H4ClN3S+
174.9726	34	C5H4ClN2OS+
