Mass spectrum: Imidacloprid; LC-ESI-ITFT; MS2; CE: 30%; R=15000; [M+H]+
Name: Imidacloprid
Name: N-[1-[(6-chloranylpyridin-3-yl)methyl]-4,5-dihydroimidazol-2-yl]nitramide
Formula: C9H10ClN5O2
Exact mass: 255.0523
SMILES: Cl-c(ncc1CN(CC2)C(N2)=NN(=O)=O)cc1
InChI: InChI=1S/C9H10ClN5O2/c10-8-2-1-7(5-12-8)6-14-4-3-11-9(14)13-15(16)17/h1-2,5H,3-4,6H2,(H,11,13)
Instrument: LTQ Orbitrap XL Thermo Scientific
Instrument type: LC-ESI-ITFT
Ms type: MS2
Ion mode: POSITIVE
Ionization: ESI
Fragmentation mode: HCD
Collision energy: 30 % (nominal)
Resolution: 15000
Column name: XBridge C18 3.5um, 2.1x50mm, Waters
Retention time: 4.8 min
Base peak: 256.0596
Precursor m/z: 256.0596
Precursor type: [M+H]+
m/z	relative intensity	assigned
56.0494	7	C3H6N+
71.0603	1	C3H7N2+
84.0556	147	C3H6N3+
97.0634	5	C4H7N3+
98.0713	4	C4H8N3+
99.0553	14	C4H7N2O+
126.0105	14	C6H5ClN+
127.0182	1	C6H6ClN+
128.0261	85	C6H7ClN+
129.0534	1	C4H7N3O2+
151.0183	13	C8H6ClN+
167.0245	3	C7H6ClN3+
167.0368	2	C8H8ClN2+
168.0324	1	C7H7ClN3+
173.0824	10	C9H9N4+
174.09	126	C9H10N4+
175.0978	964	C9H11N4+
176.0824	1	C9H10N3O+
180.0454	1	C9H9ClN2+
181.0401	2	C8H8ClN3+
193.0401	5	C9H8ClN3+
194.0478	4	C9H9ClN3+
195.032	4	C9H8ClN2O+
195.0433	2	C8H8ClN4+
196.0635	1	C9H11ClN3+
209.0588	999	C9H10ClN4+
210.0665	221	C9H11ClN4+
212.0584	292	C9H11ClN3O+
226.0614	3	C9H11ClN4O+
238.0492	2	C9H9ClN5O+
256.0594	183	C9H11ClN5O2+
