Mass spectrum: Pargyline; LC-ESI-QFT; MS2; CE: 30; R=35000; [M+H]+
Name: Pargyline
Name: N-benzyl-N-methylprop-2-yn-1-amine
Name: N-Methyl-N-propargylbenzylamine
Formula: C11H13N
Exact mass: 159.10480
SMILES: C#CCN(C)Cc1ccccc1
InChI: InChI=1S/C11H13N/c1-3-9-12(2)10-11-7-5-4-6-8-11/h1,4-8H,9-10H2,2H3
Instrument: Q Exactive Orbitrap Thermo Scientific
Instrument type: LC-ESI-QFT
Ms type: MS2
Ion mode: POSITIVE
Ionization: ESI
Fragmentation mode: HCD
Collision energy: 30 (nominal)
Resolution: 35000
Column name: XBridge C18 3.5um, 2.1x50mm, Waters
Retention time: 2.8 min
Base peak: 160.1122
Precursor m/z: 160.1121
Precursor type: [M+H]+
m/z	relative intensity	assigned
56.0496	4	C3H6N+
65.0385	3	C5H5+
68.0495	25	C4H6N+
82.0653	1	C5H8N+
89.0386	1	C7H5+
91.0542	999	C7H7+
117.0698	1	C9H9+
120.0808	1	C8H10N+
128.062	3	C10H8+
129.0699	37	C10H9+
131.0855	9	C10H11+
143.0854	1	C11H11+
144.0808	1	C10H10N+
145.0886	5	C10H11N+
160.1121	249	C11H14N+
