Mass spectrum: Fenthion-sulfone; LC-ESI-QFT; MS2; CE: 45; R=35000; [M+H]+
Name: Fenthion-sulfone
Name: Fenthione sulphone
Name: O,O-Dimethyl O-[3-methyl-4-(methylsulfonyl)phenyl] phosphorothioate
Formula: C10H15O5PS2
Exact mass: 310.00985
SMILES: CC1=C(C=CC(=C1)OP(=S)(OC)OC)S(=O)(=O)C
InChI: InChI=1S/C10H15O5PS2/c1-8-7-9(15-16(17,13-2)14-3)5-6-10(8)18(4,11)12/h5-7H,1-4H3
Instrument: Q Exactive Plus Orbitrap Thermo Scientific
Instrument type: LC-ESI-QFT
Ms type: MS2
Ion mode: POSITIVE
Ionization: ESI
Fragmentation mode: HCD
Collision energy: 45 (nominal)
Resolution: 35000
Column name: XBridge C18 3.5um, 2.1x50mm, Waters
Retention time: 7.8 min
Base peak: 311.0163
Precursor m/z: 311.0171
Precursor type: [M+H]+
m/z	relative intensity	assigned
58.9949	1	C2H3S+
62.0184	22	C2H6S+
62.9899	2	CH3OS+
65.0385	18	C5H5+
67.0542	8	C5H7+
77.0385	3	C6H5+
78.0134	2	C2H6OS+
78.0463	12	C6H6+
78.9943	195	CH4O2P+
79.0542	20	C6H7+
80.0619	2	C6H8+
85.0106	2	C4H5S+
89.0385	2	C7H5+
90.0464	1	C7H6+
91.0542	62	C7H7+
92.062	14	C7H8+
93.01	4	C2H6O2P+
93.0335	13	C6H5O+
93.0699	10	C7H9+
94.0413	8	C6H6O+
94.962	5	CH3OS2+
95.0491	6	C6H7O+
97.0049	2	CH6O3P+
97.0107	3	C5H5S+
99.0263	3	C5H7S+
103.0542	9	C8H7+
104.062	125	C8H8+
105.0699	220	C8H9+
106.0413	2	C7H6O+
107.049	17	C7H7O+
108.0568	2	C7H8O+
109.0048	28	C2H6O3P+
109.0104	5	C6H5S+
109.0646	5	C7H9O+
110.0183	2	C6H6S+
110.9662	2	CH4O2PS+
111.0263	6	C6H7S+
119.0492	3	C8H7O+
119.0604	3	C7H7N2+
119.0855	2	C9H11+
120.0569	3	C8H8O+
121.0105	8	C7H5S+
121.0283	7	C7H5O2+
121.0648	30	C8H9O+
122.0184	24	C7H6S+
122.0362	17	C7H6O2+
122.0726	16	C8H10O+
123.0263	72	C7H7S+
123.044	12	C7H7O2+
124.0341	12	C7H8S+
124.9821	763	C2H6O2PS+
126.0135	2	C6H6OS+
127.0154	999	C2H8O4P+
134.0184	1	C8H6S+
135.0262	8	C8H7S+
136.0341	46	C8H8S+
136.0518	5	C8H8O2+
137.0419	250	C8H9S+
138.0134	14	C7H6OS+
138.0497	43	C8H10S+
139.0212	320	C7H7OS+
141.0311	3	C3H10O4P+
141.0368	2	C7H9OS+
142.9926	843	C2H8O3PS+
152.0292	3	C8H8OS+
152.9827	6	C7H5S2+
152.9923	2	C7H6PS+
153.0368	3	C8H9OS+
154.0079	5	C7H6O2S+
154.0446	2	C8H10OS+
154.9982	4	C7H7S2+
155.0263	1	C7H8O2P+
157.0082	30	C3H10O3PS+
166.9985	3	C8H7S2+
167.0258	3	C8H8O2P+
167.9792	36	C7H5OPS+
168.006	2	C7H4O5+
168.9871	63	C7H6OPS+
169.0313	6	C8H9O2S+
169.9857	7	C7H6OS2+
169.9949	49	C7H7OPS+
170.9933	2	C7H7OS2+
173.0361	5	C7H10O3P+
181.9947	5	C8H7OPS+
182.9665	2	C7H4O2PS+
183.9742	3	C7H5O2PS+
184.9819	5	C7H6O2PS+
185.0267	13	C8H9O3S+
185.0362	28	C8H10O3P+
185.9898	6	C7H7O2PS+
186.9977	9	C7H8O2PS+
187.0423	14	C8H11O3S+
187.051	1	C8H12O3P+
197.0379	63	C8H9N2O2S+
199.0518	33	C9H12O3P+
200.0055	423	C8H9O2PS+
200.9775	4	C7H6O3PS+
201.0038	34	C8H9O2S2+
201.0134	70	C8H10O2PS+
201.058	22	C9H13O3S+
202.9925	13	C7H8O3PS+
214.9928	3	C8H8O3PS+
215.0293	4	C9H12O2PS+
215.0467	2	C9H12O4P+
216.0006	23	C8H9O3PS+
216.0275	10	C9H12O2S2+
216.9541	8	C7H6O2PS2+
217.0083	12	C8H10O3PS+
217.0352	124	C9H13O2S2+
217.0624	12	C9H14O4P+
218.0161	2	C8H11O3PS+
219.0239	52	C8H12O3PS+
230.9697	18	C8H8O2PS2+
231.0238	7	C9H12O3PS+
232.0317	66	C9H13O3PS+
233.0395	71	C9H14O3PS+
234.9647	3	C7H8O3PS2+
246.9647	203	C8H8O3PS2+
247.055	16	C10H16O3PS+
248.9802	13	C8H10O3PS2+
264.9751	38	C8H10O4PS2+
278.9908	187	C9H12O4PS2+
297.0014	142	C9H14O5PS2+
311.017	20	C10H16O5PS2+
