Mass spectrum: Indapamide; LC-ESI-QFT; MS2; CE: 150; R=35000; [M-H]-
Name: Indapamide
Name: 4-chloro-N-(2-methyl-2,3-dihydroindol-1-yl)-3-sulfamoylbenzamide
Formula: C16H16ClN3O3S
Exact mass: 365.06009
SMILES: CC1CC2=CC=CC=C2N1NC(=O)C3=CC(=C(C=C3)Cl)S(=O)(=O)N
InChI: InChI=1S/C16H16ClN3O3S/c1-10-8-11-4-2-3-5-14(11)20(10)19-16(21)12-6-7-13(17)15(9-12)24(18,22)23/h2-7,9-10H,8H2,1H3,(H,19,21)(H2,18,22,23)
Instrument: Q Exactive Plus Orbitrap Thermo Scientific
Instrument type: LC-ESI-QFT
Ms type: MS2
Ion mode: NEGATIVE
Ionization: ESI
Fragmentation mode: HCD
Collision energy: 150 (nominal)
Resolution: 35000
Column name: XBridge C18 3.5um, 2.1x50mm, Waters
Retention time: 6.7 min
Base peak: 364.0524
Precursor m/z: 364.0528
Precursor type: [M-H]-
m/z	relative intensity	assigned
50.0035	13	C3N-
56.9804	9	C2HS-
57.9757	1	CNS-
61.9706	485	NOS-
63.0115	11	C4HN-
63.9624	999	O2S-
65.9986	4	C3NO-
77.9655	809	NO2S-
78.9733	262	HNO2S-
79.9812	17	H2NO2S-
80.9651	2	HO3S-
81.9756	3	C3NS-
88.0192	53	C6H2N-
90.0349	4	C6H4N-
91.0301	5	C5H3N2-
93.9604	30	NO3S-
115.0302	13	C7H3N2-
116.0507	12	C8H6N-
129.0582	1	C9H7N-
130.066	4	C9H8N-
