Mass spectrum: Acetochlor OXA; LC-ESI-ITFT; MS2; CE: 45%; R=7500; [M-H]-
Name: Acetochlor OXA
Name: [(Ethoxymethyl)(2-ethyl-6-methylphenyl)amino](oxo)acetic acid
Formula: C14H19NO4
Exact mass: 265.1314
SMILES: c(cc(C)c1N(C(=O)C(=O)O)COCC)cc1CC
InChI: InChI=1S/C14H19NO4/c1-4-11-8-6-7-10(3)12(11)15(9-19-5-2)13(16)14(17)18/h6-8H,4-5,9H2,1-3H3,(H,17,18)
Instrument: LTQ Orbitrap XL Thermo Scientific
Instrument type: LC-ESI-ITFT
Ms type: MS2
Ion mode: NEGATIVE
Ionization: ESI
Fragmentation mode: HCD
Collision energy: 45 % (nominal)
Resolution: 7500
Column name: XBridge C18 3.5um, 2.1x50mm, Waters
Retention time: 7.5 min
Base peak: 264.1237
Precursor m/z: 264.1241
Precursor type: [M-H]-
m/z	relative intensity	assigned
144.0819	459	C10H10N-
146.0976	999	C10H12N-
