Mass spectrum: Hydrochlorothiazide; LC-ESI-ITFT; MS2; CE: 75%; R=7500; [M+H]+
Name: Hydrochlorothiazide
Name: 6-Chloro-3,4-dihydro-2H-1,2,4-benzothiadiazine-7-sulfonamide 1,1-dioxide
Name: 6-chloranyl-1,1-bis(oxidanylidene)-3,4-dihydro-2H-1$l^{6},2,4-benzothiadiazine-7-sulfonamide
Formula: C7H8ClN3O4S2
Exact mass: 296.9645
SMILES: NS(=O)(=O)C1=CC2=C(NCNS2(=O)=O)C=C1Cl
InChI: InChI=1S/C7H8ClN3O4S2/c8-4-1-5-7(2-6(4)16(9,12)13)17(14,15)11-3-10-5/h1-2,10-11H,3H2,(H2,9,12,13)
Instrument: LTQ Orbitrap XL Thermo Scientific
Instrument type: LC-ESI-ITFT
Ms type: MS2
Ion mode: POSITIVE
Ionization: ESI
Fragmentation mode: HCD
Collision energy: 75 % (nominal)
Resolution: 7500
Column name: XBridge C18 3.5um, 2.1x50mm, Waters
Retention time: 2.2 min
Base peak: 163.1326
Precursor m/z: 297.9718
Precursor type: [M+H]+
m/z	relative intensity	assigned
90.0341	96	C6H4N+
91.0179	42	C6H3O+
97.9795	54	C4HClN+
98.9996	85	C5H4Cl+
107.9902	353	C5H2NS+
111.995	41	C5H3ClN+
113.9741	67	C4HClNO+
117.0446	108	C7H5N2+
118.0527	111	C7H6N2+
123.9946	120	C6H3ClN+
125.0027	230	C6H4ClN+
129.0215	36	C5H6ClN2+
139.9898	999	C6H3ClNO+
141.9516	64	C5HClNS+
142.0055	139	C6H5ClNO+
142.9589	172	C5H2ClNS+
143.9674	42	C5H3ClNS+
152.0136	42	C7H5ClN2+
152.9979	61	C7H4ClNO+
155.9845	54	C6H3ClNO2+
169.0162	32	C7H6ClN2O+
171.9613	131	C6H3ClNOS+
