Mass spectrum: Rotenone; LC-ESI-QFT; MS2; CE: 150%; R=17500; [M+H]+
Name: Rotenone
Name: 5`beta-Rotenone
Name: 16,17-dimethoxy-6-prop-1-en-2-yl-2,7,20-trioxapentacyclo[11.8.0.03,11.04,8.014,19]henicosa-3(11),4(8),9,14,16,18-hexaen-12-one
Formula: C23H22O6
Exact mass: 394.1416
SMILES: CC(=C)C1CC2=C(O1)C=CC3=C2OC4COC5=CC(=C(C=C5C4C3=O)OC)OC
InChI: InChI=1S/C23H22O6/c1-11(2)16-8-14-15(28-16)6-5-12-22(24)21-13-7-18(25-3)19(26-4)9-17(13)27-10-20(21)29-23(12)14/h5-7,9,16,20-21H,1,8,10H2,2-4H3
Instrument: Exploris 240 Orbitrap Thermo Scientific
Instrument type: LC-ESI-QFT
Ms type: MS2
Ion mode: POSITIVE
Ionization: ESI
Fragmentation mode: HCD
Collision energy: 150 % (nominal)
Resolution: 17500
Column name: XBridge C18 3.5um, 2.1x50mm, Waters
Retention time: 10.235 min
Base peak: 372.0284
Precursor m/z: 395.1489
Precursor type: [M+H]+
m/z	relative intensity	assigned
50.0151	54	C4H2+
51.0229	501	C4H3+
52.0309	54	C4H4+
53.0023	90	C3HO+
53.0386	354	C4H5+
55.0178	103	C3H3O+
63.0229	159	C5H3+
64.0308	84	C5H4+
65.0385	860	C5H5+
66.0464	236	C5H6+
67.0542	36	C5H7+
68.9971	139	C3HO2+
76.031	40	C6H4+
77.0385	999	C6H5+
78.0464	415	C6H6+
79.0179	43	C5H3O+
79.0542	378	C6H7+
81.0337	87	C5H5O+
89.0386	495	C7H5+
90.0465	183	C7H6+
91.0542	906	C7H7+
92.0257	79	C6H4O+
94.0414	71	C6H6O+
95.0491	301	C6H7O+
102.0462	196	C8H6+
103.0542	227	C8H7+
105.0336	301	C7H5O+
106.0412	66	C7H6O+
107.0124	40	C6H3O2+
107.0492	358	C7H7O+
115.0542	656	C9H7+
118.0413	233	C8H6O+
119.0492	86	C8H7O+
121.0282	61	C7H5O2+
127.0545	81	C10H7+
128.0618	233	C10H8+
130.0418	70	C9H6O+
131.0492	97	C9H7O+
133.0285	69	C8H5O2+
135.0444	106	C8H7O2+
139.0545	40	C11H7+
141.0699	215	C11H9+
146.0362	46	C9H6O2+
147.0438	308	C9H7O2+
152.062	204	C12H8+
161.0598	29	C10H9O2+
165.0698	111	C13H9+
169.0645	141	C12H9O+
175.0388	36	C10H7O3+
202.078	38	C16H10+
