Mass spectrum: Orphenadrine; LC-ESI-QFT; MS2; CE: 60; R=35000; [M+H]+
Name: Orphenadrine
Name: N,N-dimethyl-2-[(2-methylphenyl)-phenylmethoxy]ethanamine
Formula: C18H23NO
Exact mass: 269.17796
SMILES: CC1=CC=CC=C1C(C2=CC=CC=C2)OCCN(C)C
InChI: InChI=1S/C18H23NO/c1-15-9-7-8-12-17(15)18(20-14-13-19(2)3)16-10-5-4-6-11-16/h4-12,18H,13-14H2,1-3H3
Instrument: Q Exactive Plus Orbitrap Thermo Scientific
Instrument type: LC-ESI-QFT
Ms type: MS2
Ion mode: POSITIVE
Ionization: ESI
Fragmentation mode: HCD
Collision energy: 60 (nominal)
Resolution: 35000
Column name: XBridge C18 3.5um, 2.1x50mm, Waters
Retention time: 7.4 min
Base peak: 270.1849
Precursor m/z: 270.1852
Precursor type: [M+H]+
m/z	relative intensity	assigned
103.0542	14	C8H7+
115.0542	9	C9H7+
141.0699	51	C11H9+
152.062	4	C12H8+
153.0699	78	C12H9+
164.0621	1	C13H8+
165.07	257	C13H9+
166.0777	999	C13H10+
178.0778	6	C14H10+
179.0856	115	C14H11+
180.0934	12	C14H12+
181.1011	515	C14H13+
183.0805	5	C13H11O+
193.0762	7	C13H9N2+
