Mass spectrum: Eicosatrienoic acid; LC-ESI-QFT; MS2; CE: 30%; R=17500; [M+H]+
Name: Eicosatrienoic acid
Name: Eicosa-11,14,17-trienoic acid
Name: icosa-11,14,17-trienoic acid
Formula: C20H34O2
Exact mass: 306.2559
SMILES: CCC=CCC=CCC=CCCCCCCCCCC(=O)O
InChI: InChI=1S/C20H34O2/c1-2-3-4-5-6-7-8-9-10-11-12-13-14-15-16-17-18-19-20(21)22/h3-4,6-7,9-10H,2,5,8,11-19H2,1H3,(H,21,22)
Instrument: Exploris 240 Orbitrap Thermo Scientific
Instrument type: LC-ESI-QFT
Ms type: MS2
Ion mode: POSITIVE
Ionization: ESI
Fragmentation mode: HCD
Collision energy: 30 % (nominal)
Resolution: 17500
Column name: XBridge C18 3.5um, 2.1x50mm, Waters
Retention time: 17.864 min
Base peak: 329.2449
Precursor m/z: 307.2632
Precursor type: [M+H]+
m/z	relative intensity	assigned
55.0543	40	C4H7+
57.07	11	C4H9+
67.0542	512	C5H7+
69.0699	107	C5H9+
79.0543	13	C6H7+
81.0698	881	C6H9+
83.0854	117	C6H11+
93.0697	22	C7H9+
95.0854	999	C7H11+
97.1011	86	C7H13+
107.0857	27	C8H11+
109.1011	873	C8H13+
111.1167	31	C8H15+
119.0855	27	C9H11+
121.1014	44	C9H13+
123.1167	697	C9H15+
133.1011	53	C10H13+
135.1168	46	C10H15+
137.0963	24	C9H13O+
137.1323	269	C10H17+
145.1005	11	C11H13+
147.1165	37	C11H15+
149.1325	41	C11H17+
151.1115	31	C10H15O+
151.1476	77	C11H19+
165.1638	22	C12H21+
175.1483	30	C13H19+
189.1636	22	C14H21+
209.1533	35	C13H21O2+
223.1692	37	C14H23O2+
237.1846	32	C15H25O2+
251.1999	58	C16H27O2+
265.2166	25	C17H29O2+
289.2524	98	C20H33O+
307.2633	751	C20H35O2+
