Mass spectrum: Alfuzosin; LC-ESI-QFT; MS2; CE: 75; R=35000; [M-H]-
Name: Alfuzosin
Name: N-{3-[(4-Amino-6,7-dimethoxy-2-quinazolinyl)(methyl)amino]propyl}tetrahydro-2-furancarboxamide
Name: N-[3-[(4-amino-6,7-dimethoxyquinazolin-2-yl)-methylamino]propyl]oxolane-2-carboxamide
Formula: C19H27N5O4
Exact mass: 389.20630
SMILES: CN(CCCNC(=O)C1CCCO1)C2=NC3=CC(=C(C=C3C(=N2)N)OC)OC
InChI: InChI=1S/C19H27N5O4/c1-24(8-5-7-21-18(25)14-6-4-9-28-14)19-22-13-11-16(27-3)15(26-2)10-12(13)17(20)23-19/h10-11,14H,4-9H2,1-3H3,(H,21,25)(H2,20,22,23)
Instrument: Q Exactive Plus Orbitrap Thermo Scientific
Instrument type: LC-ESI-QFT
Ms type: MS2
Ion mode: NEGATIVE
Ionization: ESI
Fragmentation mode: HCD
Collision energy: 75 (nominal)
Resolution: 35000
Column name: XBridge C18 3.5um, 2.1x50mm, Waters
Retention time: 5.3 min
Base peak: 434.2043
Precursor m/z: 388.199
Precursor type: [M-H]-
m/z	relative intensity	assigned
55.0302	174	C2H3N2-
64.0191	1	C4H2N-
65.0145	9	C3HN2-
65.9985	26	C3NO-
66.0098	15	C2N3-
67.0302	27	C3H3N2-
69.0347	3	C4H5O-
72.0092	56	C2H2NO2-
77.0146	22	C4HN2-
81.0458	1	C4H5N2-
84.0455	270	C4H6NO-
90.0349	1	C6H4N-
91.0301	9	C5H3N2-
92.0142	12	C5H2NO-
93.0096	1	C4HN2O-
94.0298	4	C5H4NO-
96.0455	19	C5H6NO-
96.0568	1	C4H6N3-
102.0223	1	C6H2N2-
105.022	3	C6H3NO-
105.0459	1	C6H5N2-
106.0173	1	C5H2N2O-
106.0299	3	C6H4NO-
107.0252	2	C5H3N2O-
114.0561	186	C5H8NO2-
115.0401	10	C5H7O3-
116.0254	2	C6H2N3-
117.0095	1	C6HN2O-
118.03	5	C7H4NO-
118.0413	1	C6H4N3-
119.0251	537	C6H3N2O-
120.0089	2	C6H2NO2-
120.0203	3	C5H2N3O-
120.0329	34	C6H4N2O-
121.0408	16	C6H5N2O-
122.0244	1	C6H4NO2-
122.036	1	C5H4N3O-
130.0172	16	C7H2N2O-
131.0251	7	C7H3N2O-
132.0329	10	C7H4N2O-
132.0565	1	C7H6N3-
133.028	3	C6H3N3O-
133.0408	27	C7H5N2O-
134.036	1	C6H4N3O-
135.0564	1	C7H7N2O-
143.0252	2	C8H3N2O-
144.0203	189	C7H2N3O-
145.0282	383	C7H3N3O-
146.0124	5	C7H2N2O2-
146.0248	4	C8H4NO2-
146.036	36	C7H4N3O-
147.0201	260	C7H3N2O2-
147.0438	84	C7H5N3O-
148.0279	29	C7H4N2O2-
148.0517	50	C7H6N3O-
149.0356	4	C7H5N2O2-
149.0469	1	C6H5N4O-
155.119	1	C8H15N2O-
157.028	1	C8H3N3O-
158.0122	69	C8H2N2O2-
158.036	20	C8H4N3O-
159.0202	1	C8H3N2O2-
159.0315	8	C7H3N4O-
159.0437	20	C8H5N3O-
159.0565	3	C9H7N2O-
160.0517	723	C8H6N3O-
161.0357	12	C8H5N2O2-
161.0476	2	C7H5N4O-
161.0595	26	C8H7N3O-
162.0311	7	C7H4N3O2-
162.0435	24	C8H6N2O2-
162.0544	7	C7H6N4O-
162.0674	4	C8H8N3O-
163.0515	4	C8H7N2O2-
171.0199	1	C9H3N2O2-
172.0154	40	C8H2N3O2-
172.0518	12	C9H6N3O-
173.0232	49	C8H3N3O2-
173.0356	39	C9H5N2O2-
173.0469	65	C8H5N4O-
173.0588	18	C9H7N3O-
173.0834	4	C9H9N4-
174.0309	24	C8H4N3O2-
174.0547	409	C8H6N4O-
175.0625	579	C8H7N4O-
176.0465	90	C8H6N3O2-
176.0703	9	C8H8N4O-
177.0782	19	C8H9N4O-
184.0521	1	C10H6N3O-
185.0468	24	C9H5N4O-
186.0308	2	C9H4N3O2-
186.0434	1	C10H6N2O2-
186.0547	4	C9H6N4O-
186.0672	5	C10H8N3O-
187.0261	41	C8H3N4O2-
187.0389	26	C9H5N3O2-
187.0625	168	C9H7N4O-
188.0344	20	C8H4N4O2-
188.0466	169	C9H6N3O2-
188.0703	146	C9H8N4O-
189.0544	21	C9H7N3O2-
189.0781	20	C9H9N4O-
190.0495	3	C8H6N4O2-
190.0625	1	C9H8N3O2-
191.0336	1	C8H5N3O3-
199.0262	1	C9H3N4O2-
199.0625	13	C10H7N4O-
200.0342	4	C9H4N4O2-
200.0466	16	C10H6N3O2-
200.0704	53	C10H8N4O-
201.0419	268	C9H5N4O2-
201.0782	50	C10H9N4O-
202.0497	575	C9H6N4O2-
202.0861	632	C10H10N4O-
203.0576	999	C9H7N4O2-
204.0652	11	C9H8N4O2-
205.0728	10	C9H9N4O2-
206.0439	2	C8H6N4O3-
212.0466	2	C11H6N3O2-
213.0419	27	C10H5N4O2-
213.0541	5	C11H7N3O2-
213.0787	1	C11H9N4O-
214.0623	7	C11H8N3O2-
214.086	7	C11H10N4O-
215.0574	55	C10H7N4O2-
215.0938	89	C11H11N4O-
216.0653	130	C10H8N4O2-
216.0772	7	C11H10N3O2-
216.1015	37	C11H12N4O-
217.073	79	C10H9N4O2-
218.081	29	C10H10N4O2-
219.0283	3	C9H5N3O4-
219.0519	5	C9H7N4O3-
219.0881	1	C10H11N4O2-
220.0601	3	C9H8N4O3-
221.0681	27	C9H9N4O3-
227.0578	4	C11H7N4O2-
228.0653	59	C11H8N4O2-
229.0731	48	C11H9N4O2-
229.1091	10	C12H13N4O-
230.0809	310	C11H10N4O2-
231.0888	25	C11H11N4O2-
232.1204	18	C11H14N5O-
233.1042	2	C11H13N4O2-
234.0759	43	C10H10N4O3-
242.0808	1	C12H10N4O2-
243.0886	118	C12H11N4O2-
244.0965	159	C12H12N4O2-
245.1043	19	C12H13N4O2-
248.0911	1	C11H12N4O3-
257.1042	5	C13H13N4O2-
259.1073	11	C12H13N5O2-
259.1199	4	C13H15N4O2-
260.1152	27	C12H14N5O2-
261.0995	3	C12H13N4O3-
272.0789	3	C12H10N5O3-
287.1026	9	C13H13N5O3-
288.1229	1	C14H16N4O3-
300.1106	1	C14H14N5O3-
303.1465	4	C17H21NO4-
315.1345	1	C17H19N2O4-
330.1572	31	C16H20N5O3-
331.1409	10	C16H19N4O4-
358.152	39	C17H20N5O4-
