Mass spectrum: Cortisone; LC-ESI-QFT; MS2; CE: 90; R=35000; [M+H]+
Name: Cortisone
Name: 17,21-Dihydroxypregn-4-ene-3,11,20-trione
Name: (8S,9S,10R,13S,14S,17R)-17-hydroxy-17-(2-hydroxyacetyl)-10,13-dimethyl-1,2,6,7,8,9,12,14,15,16-decahydrocyclopenta[a]phenanthrene-3,11-dione
Formula: C21H28O5
Exact mass: 360.19367
SMILES: O=C(CO)[C@@]3(O)CC[C@H]2[C@@H]4CC\C1=C\C(=O)CC[C@]1(C)[C@H]4C(=O)C[C@@]23C
InChI: InChI=1S/C21H28O5/c1-19-7-5-13(23)9-12(19)3-4-14-15-6-8-21(26,17(25)11-22)20(15,2)10-16(24)18(14)19/h9,14-15,18,22,26H,3-8,10-11H2,1-2H3/t14-,15-,18+,19-,20-,21-/m0/s1
Instrument: Q Exactive Plus Orbitrap Thermo Scientific
Instrument type: LC-ESI-QFT
Ms type: MS2
Ion mode: POSITIVE
Ionization: ESI
Fragmentation mode: HCD
Collision energy: 90 (nominal)
Resolution: 35000
Column name: XBridge C18 3.5um, 2.1x50mm, Waters
Retention time: 7.3 min
Base peak: 361.2008
Precursor m/z: 361.201
Precursor type: [M+H]+
m/z	relative intensity	assigned
50.0151	9	C4H2+
51.0229	8	C4H3+
53.0022	10	C3HO+
53.0386	80	C4H5+
55.0179	155	C3H3O+
55.0543	142	C4H7+
57.0335	19	C3H5O+
57.0699	2	C4H9+
59.0492	1	C3H7O+
63.0228	1	C5H3+
65.0386	68	C5H5+
66.0464	2	C5H6+
67.0542	214	C5H7+
67.9893	1	C3O2+
69.0335	44	C4H5O+
69.0699	77	C5H9+
71.0492	12	C4H7O+
77.0385	88	C6H5+
78.0464	14	C6H6+
79.0542	572	C6H7+
80.0621	6	C6H8+
81.0335	31	C5H5O+
81.0699	269	C6H9+
82.0413	1	C5H6O+
83.0491	277	C5H7O+
85.0648	2	C5H9O+
91.0543	999	C7H7+
92.062	10	C7H8+
93.0699	510	C7H9+
94.0414	9	C6H6O+
94.0778	3	C7H10+
95.0492	278	C6H7O+
95.0855	90	C7H11+
97.0648	324	C6H9O+
99.0441	1	C5H7O2+
102.0465	3	C8H6+
103.0542	131	C8H7+
104.0621	27	C8H8+
105.0448	127	C6H5N2+
105.0699	858	C8H9+
106.0415	2	C7H6O+
106.0778	8	C8H10+
107.0491	147	C7H7O+
107.0855	236	C8H11+
108.057	18	C7H8O+
109.0648	82	C7H9O+
111.044	2	C6H7O2+
111.0806	3	C7H11O+
115.0543	213	C9H7+
116.0621	64	C9H8+
117.0699	279	C9H9+
118.0778	9	C9H10+
119.0492	16	C8H7O+
119.0604	28	C7H7N2+
119.0856	253	C9H11+
120.0571	11	C8H8O+
120.0934	2	C9H12+
121.0648	453	C8H9O+
121.1012	47	C9H13+
122.0726	3	C8H10O+
123.0804	60	C8H11O+
127.0542	8	C10H7+
128.0621	222	C10H8+
129.0699	222	C10H9+
130.0778	163	C10H10+
131.0492	20	C9H7O+
131.0856	158	C10H11+
132.057	33	C9H8O+
132.0934	2	C10H12+
133.0648	126	C9H9O+
133.1012	39	C10H13+
134.0727	17	C9H10O+
135.0804	43	C9H11O+
135.1167	13	C10H15+
137.0597	2	C8H9O2+
141.0699	134	C11H9+
142.0778	111	C11H10+
143.0856	158	C11H11+
144.057	21	C10H8O+
144.0934	21	C11H12+
145.0648	64	C10H9O+
145.1012	151	C11H13+
146.0727	32	C10H10O+
146.1089	2	C11H14+
147.0805	138	C10H11O+
148.0883	306	C10H12O+
149.0961	11	C10H13O+
152.062	25	C12H8+
153.0699	71	C12H9+
154.0777	56	C12H10+
155.0605	31	C10H7N2+
155.0855	126	C12H11+
156.0935	38	C12H12+
157.0649	26	C11H9O+
157.1012	55	C12H13+
158.0726	25	C11H10O+
158.1091	2	C12H14+
159.0805	56	C11H11O+
159.1168	15	C12H15+
160.0882	8	C11H12O+
161.0599	2	C10H9O2+
161.0962	35	C11H13O+
162.1041	2	C11H14O+
163.1118	136	C11H15O+
165.0699	113	C13H9+
166.0778	52	C13H10+
167.0856	103	C13H11+
168.0934	38	C13H12+
169.065	15	C12H9O+
169.1012	66	C13H13+
170.0728	10	C12H10O+
170.1091	14	C13H14+
171.0803	22	C12H11O+
171.1168	29	C13H15+
172.0884	7	C12H12O+
173.0961	23	C12H13O+
174.104	43	C12H14O+
175.0749	1	C11H11O2+
175.1118	5	C12H15O+
177.0702	2	C14H9+
178.0777	50	C14H10+
179.0856	79	C14H11+
180.0933	31	C14H12+
181.0648	15	C13H9O+
181.1012	66	C14H13+
182.0727	13	C13H10O+
182.1089	21	C14H14+
183.0805	20	C13H11O+
183.1169	33	C14H15+
184.0883	10	C13H12O+
184.1246	5	C14H16+
185.0962	19	C13H13O+
185.1326	19	C14H17+
186.1043	6	C13H14O+
186.1402	2	C14H18+
187.1118	8	C13H15O+
188.1197	2	C13H16O+
189.0695	8	C15H9+
189.1272	6	C13H17O+
190.0781	10	C15H10+
191.0856	39	C15H11+
192.0934	35	C15H12+
193.1012	38	C15H13+
194.0722	6	C14H10O+
194.1089	13	C15H14+
195.0807	21	C14H11O+
195.1169	29	C15H15+
196.0882	8	C14H12O+
196.1246	5	C15H16+
197.0961	20	C14H13O+
197.1327	16	C15H17+
198.104	5	C14H14O+
199.1116	14	C14H15O+
199.1482	11	C15H19+
200.1192	3	C14H16O+
200.1559	2	C15H20+
201.1277	5	C14H17O+
202.0776	8	C16H10+
202.135	2	C14H18O+
203.0856	17	C16H11+
204.0935	12	C16H12+
205.1013	24	C16H13+
206.1092	13	C16H14+
207.0804	8	C15H11O+
207.117	21	C16H15+
208.0885	8	C15H12O+
208.1248	2	C16H16+
209.0961	21	C15H13O+
209.1326	12	C16H17+
210.104	8	C15H14O+
211.1119	20	C15H15O+
211.1483	1	C16H19+
212.1192	2	C15H16O+
213.1274	8	C15H17O+
213.1638	1	C16H21+
215.0856	7	C17H11+
215.143	1	C15H19O+
216.0936	6	C17H12+
217.1015	9	C17H13+
218.1088	6	C17H14+
219.0805	3	C16H11O+
219.1167	7	C17H15+
220.088	2	C16H12O+
221.1324	6	C17H17+
222.104	6	C16H14O+
223.112	10	C16H15O+
223.148	6	C17H19+
224.1192	2	C16H16O+
225.1275	45	C16H17O+
226.1353	28	C16H18O+
227.143	26	C16H19O+
229.1008	2	C18H13+
231.1165	1	C18H15+
233.132	1	C18H17+
235.1115	2	C17H15O+
236.1201	2	C17H16O+
237.1281	2	C17H17O+
238.1348	3	C17H18O+
239.1424	5	C17H19O+
240.1506	12	C17H20O+
241.1586	15	C17H21O+
242.1299	3	C16H18O2+
243.1381	92	C16H19O2+
251.143	5	C18H19O+
254.1296	2	C17H18O2+
257.1534	2	C17H21O2+
258.1612	8	C17H22O2+
269.1534	7	C18H21O2+
