Mass spectrum: 4-Hydroxybenzotriazole; LC-ESI-QFT; MS2; CE: 150; R=35000; [M+H]+
Name: 4-Hydroxybenzotriazole
Name: 1,2-dihydrobenzotriazol-4-one
Name: 2H-benzotriazol-4-ol
Name: 4-Hydroxy-1H-benzotriazole
Formula: C6H5N3O
Exact mass: 135.04326178
SMILES: C1=CC2=NNN=C2C(=C1)O
InChI: InChI=1S/C6H5N3O/c10-5-3-1-2-4-6(5)8-9-7-4/h1-3,10H,(H,7,8,9)
Instrument: Q Exactive Plus Orbitrap Thermo Scientific
Instrument type: LC-ESI-QFT
Ms type: MS2
Ion mode: POSITIVE
Ionization: ESI
Fragmentation mode: HCD
Collision energy: 150 (nominal)
Resolution: 35000
Column name: XBridge C18 3.5um, 2.1x50mm, Waters
Retention time: 3.1 min
Base peak: 136.0505
Precursor m/z: 136.0505
Precursor type: [M+H]+
m/z	relative intensity	assigned
50.0151	59	C4H2+
51.023	112	C4H3+
52.0182	26	C3H2N+
52.0308	42	C4H4+
53.0386	999	C4H5+
54.0339	245	C3H4N+
55.0179	20	C3H3O+
56.0495	6	C3H6N+
61.0073	25	C5H+
62.0151	159	C5H2+
63.0229	943	C5H3+
64.0182	135	C4H2N+
65.0021	1	C4HO+
65.026	11	C4H3N+
65.0386	7	C5H5+
66.0339	6	C4H4N+
67.9892	9	C3O2+
68.0131	28	C3H2NO+
78.0338	65	C5H4N+
79.0179	1	C5H3O+
79.0416	17	C5H5N+
80.0495	443	C5H6N+
81.0335	143	C5H5O+
90.0339	16	C6H4N+
93.021	5	C5H3NO+
94.0291	1	C5H4NO+
96.0445	3	C5H6NO+
106.0285	1	C6H4NO+
107.0366	2	C6H5NO+
136.0506	9	C6H6N3O+
