Mass spectrum: Pheniramine-N-oxide; LC-ESI-QFT; MS2; CE: 150; R=35000; [M+H]+
Name: Pheniramine-N-oxide
Name: N,N-dimethyl-3-phenyl-3-pyridin-2-ylpropan-1-amine oxide
Formula: C16H20N2O
Exact mass: 256.15756
SMILES: C[N+](C)(CCC(c1ccccc1)c2ccccn2)[O-]
InChI: InChI=1S/C16H20N2O/c1-18(2,19)13-11-15(14-8-4-3-5-9-14)16-10-6-7-12-17-16/h3-10,12,15H,11,13H2,1-2H3
Instrument: Q Exactive Plus Orbitrap Thermo Scientific
Instrument type: LC-ESI-QFT
Ms type: MS2
Ion mode: POSITIVE
Ionization: ESI
Fragmentation mode: HCD
Collision energy: 150 (nominal)
Resolution: 35000
Column name: XBridge C18 3.5um, 2.1x50mm, Waters
Retention time: 4.2 min
Base peak: 257.1646
Precursor m/z: 257.1648
Precursor type: [M+H]+
m/z	relative intensity	assigned
50.0151	10	C4H2+
51.0229	10	C4H3+
53.0022	3	C3HO+
53.0386	6	C4H5+
62.0149	1	C5H2+
63.0228	12	C5H3+
65.0386	173	C5H5+
66.0464	13	C5H6+
67.0417	4	C4H5N+
75.0229	4	C6H3+
77.0385	11	C6H5+
78.0338	34	C5H4N+
79.0416	4	C5H5N+
80.0494	3	C5H6N+
88.0307	2	C7H4+
89.0386	52	C7H5+
90.0465	52	C7H6+
91.0543	269	C7H7+
92.0495	13	C6H6N+
93.0574	38	C6H7N+
94.0653	1	C6H8N+
95.0368	1	C5H5NO+
95.0492	15	C6H7O+
96.0444	37	C5H6NO+
102.0464	4	C8H6+
103.0542	6	C8H7+
104.0495	12	C7H6N+
105.0448	10	C6H5N2+
110.0601	6	C6H8NO+
113.0387	6	C9H5+
114.0465	7	C9H6+
115.0543	112	C9H7+
116.0495	12	C8H6N+
116.0621	3	C9H8+
117.0573	223	C8H7N+
118.0651	429	C8H8N+
119.0492	2	C8H7O+
119.0727	2	C8H9N+
126.0465	4	C10H6+
127.0416	2	C9H5N+
127.0542	2	C10H7+
128.0495	29	C9H6N+
128.062	7	C10H8+
129.0448	8	C8H5N2+
130.0403	2	C7H4N3+
130.0652	2	C9H8N+
132.0571	3	C9H8O+
134.0603	2	C8H8NO+
138.0464	1	C11H6+
139.0543	343	C11H7+
140.0496	102	C10H6N+
140.062	93	C11H8+
141.0574	9	C10H7N+
141.0699	12	C11H9+
142.0652	1	C10H8N+
145.0649	1	C10H9O+
146.0599	4	C9H8NO+
152.0621	24	C12H8+
153.057	1	C11H7N+
153.07	2	C12H9+
154.0651	3	C11H8N+
155.0605	3	C10H7N2+
164.0495	5	C12H6N+
165.0576	8	C12H7N+
165.0701	7	C13H9+
166.0652	579	C12H8N+
167.073	999	C12H9N+
168.0808	16	C12H10N+
169.0648	3	C12H9O+
178.0653	5	C13H8N+
179.0728	4	C13H9N+
180.0808	27	C13H10N+
183.0686	1	C12H9NO+
184.0756	6	C12H10NO+
191.0729	6	C14H9N+
192.0809	11	C14H10N+
193.0887	17	C14H11N+
194.0967	14	C14H12N+
