Mass spectrum: Chlorothalonil TP SYN548581; LC-ESI-QFT; MS2; CE: 30%; R=15000; [M+H]+
Name: Chlorothalonil TP SYN548581
Name: 4-carbamoyl-2,3,5-trichloro-6-cyanobenzenesulfonic acid
Formula: C8H3Cl3N2O4S
Exact mass: 327.8879
SMILES: NC(=O)C1=C(Cl)C(Cl)=C(C(C#N)=C1Cl)S(O)(=O)=O
InChI: InChI=1S/C8H3Cl3N2O4S/c9-4-2(1-12)7(18(15,16)17)6(11)5(10)3(4)8(13)14/h(H2,13,14)(H,15,16,17)
Instrument: Orbitrap Exploris 240 Thermo Scientific
Instrument type: LC-ESI-QFT
Ms type: MS2
Ion mode: POSITIVE
Ionization: ESI
Fragmentation mode: HCD
Collision energy: 30 % (nominal)
Resolution: 15000
Column name: Atlantis C18 3um, 3.0x150mm, Waters
Retention time: 10.461 min
Base peak: 132.9582
Precursor m/z: 328.8952
Precursor type: [M+H]+
Precursor intensity: 4062616.5
m/z	relative intensity	assigned
221.9279	11	C7H3Cl3NO+
222.9112	4	C7H2Cl3O2+
228.956	9	C8H3Cl2N2O2+
234.9225	7	C7H2Cl3N2O+
247.9066	19	C8HCl3NO2+
265.9176	17	C8H3Cl3NO3+
285.889	40	C7H3Cl3NO3S+
292.9189	7	C8H3Cl2N2O4S+
311.868	34	C8HCl3NO4S+
328.895	999	C8H4Cl3N2O4S+
