Mass spectrum: Imicyafos; LC-ESI-QFT; MS2; CE: 60%; R=17500; [M+H]+
Name: Imicyafos
Name: [1-[ethoxy(propylsulfanyl)phosphoryl]-3-ethylimidazolidin-2-ylidene]cyanamide
Formula: C11H21N4O2PS
Exact mass: 304.1123
SMILES: CCCSP(=O)(N1CCN(C1=NC#N)CC)OCC
InChI: InChI=1S/C11H21N4O2PS/c1-4-9-19-18(16,17-6-3)15-8-7-14(5-2)11(15)13-10-12/h4-9H2,1-3H3
Instrument: Exploris 240 Orbitrap Thermo Scientific
Instrument type: LC-ESI-QFT
Ms type: MS2
Ion mode: POSITIVE
Ionization: ESI
Fragmentation mode: HCD
Collision energy: 60 % (nominal)
Resolution: 17500
Column name: XBridge C18 3.5um, 2.1x50mm, Waters
Retention time: 5.301 min
Base peak: 305.1193
Precursor m/z: 305.1196
Precursor type: [M+H]+
m/z	relative intensity	assigned
69.0445	32	C3H5N2+
70.0651	29	C4H8N+
71.0603	21	C3H7N2+
72.0807	14	C4H10N+
96.9507	46	H2O2PS+
111.0664	14	C4H7N4+
112.0868	169	C5H10N3+
137.0824	21	C6H9N4+
139.0978	384	C6H11N4+
140.0819	48	C6H10N3O+
155.0119	7	C4H4N4OP+
156.0321	149	C5H7N3OP+
158.0476	52	C9H6N2O+
173.0222	140	C4H6N4O2P+
174.0248	10	C5H9N3PS+
174.0426	10	C5H9N3O2P+
176.0587	61	C5H11N3O2P+
192.0356	111	C5H11N3OPS+
201.0535	999	C6H10N4O2P+
218.0149	31	C6H9N3O2PS+
229.0846	9	C8H14N4O2P+
235.0412	55	C6H12N4O2PS+
