Mass spectrum: Cotinine; LC-ESI-QFT; MS2; CE: 90; R=35000; [M+H]+
Name: Cotinine
Name: (5S)-1-methyl-5-pyridin-3-ylpyrrolidin-2-one
Formula: C10H12N2O
Exact mass: 176.09496
SMILES: CN1[C@@H](CCC1=O)c2cccnc2
InChI: InChI=1S/C10H12N2O/c1-12-9(4-5-10(12)13)8-3-2-6-11-7-8/h2-3,6-7,9H,4-5H2,1H3/t9-/m0/s1
Instrument: Q Exactive Plus Orbitrap Thermo Scientific
Instrument type: LC-ESI-QFT
Ms type: MS2
Ion mode: POSITIVE
Ionization: ESI
Fragmentation mode: HCD
Collision energy: 90 (nominal)
Resolution: 35000
Column name: XBridge C18 3.5um, 2.1x50mm, Waters
Retention time: 1.1 min
Base peak: 177.1022
Precursor m/z: 177.1022
Precursor type: [M+H]+
m/z	relative intensity	assigned
51.0229	1	C4H3+
53.0023	1	C3HO+
53.0386	15	C4H5+
56.0495	1	C3H6N+
58.0287	1	C2H4NO+
65.0386	1	C5H5+
68.0495	8	C4H6N+
69.0335	2	C4H5O+
70.0651	71	C4H8N+
78.0338	2	C5H4N+
79.0416	1	C5H5N+
80.0494	999	C5H6N+
91.0543	11	C7H7+
92.0496	2	C6H6N+
93.0573	1	C6H7N+
94.0652	1	C6H8N+
96.0444	6	C5H6NO+
98.0601	230	C5H8NO+
106.0652	4	C7H8N+
110.0601	1	C6H8NO+
117.0573	8	C8H7N+
118.0651	27	C8H8N+
120.0808	15	C8H10N+
128.0494	1	C9H6N+
130.0651	1	C9H8N+
134.0601	1	C8H8NO+
144.0682	1	C9H8N2+
146.0601	13	C9H8NO+
149.071	3	C8H9N2O+
159.0917	1	C10H11N2+
177.1022	10	C10H13N2O+
