Mass spectrum: Efavirenz; LC-ESI-QFT; MS2; CE: 60; R=35000; [M+H]+
Name: Efavirenz
Name: (4S)-6-chloro-4-(2-cyclopropylethynyl)-4-(trifluoromethyl)-1H-3,1-benzoxazin-2-one
Formula: C14H9ClF3NO2
Exact mass: 315.02739
SMILES: C1CC1C#C[C@]2(C3=C(C=CC(=C3)Cl)NC(=O)O2)C(F)(F)F
InChI: InChI=1S/C14H9ClF3NO2/c15-9-3-4-11-10(7-9)13(14(16,17)18,21-12(20)19-11)6-5-8-1-2-8/h3-4,7-8H,1-2H2,(H,19,20)/t13-/m0/s1
Instrument: Q Exactive Orbitrap Thermo Scientific
Instrument type: LC-ESI-QFT
Ms type: MS2
Ion mode: POSITIVE
Ionization: ESI
Fragmentation mode: HCD
Collision energy: 60 (nominal)
Resolution: 35000
Column name: XBridge C18 3.5um, 2.1x50mm, Waters
Retention time: 13.0 min
Base peak: 316.0348
Precursor m/z: 316.0347
Precursor type: [M+H]+
m/z	relative intensity	assigned
50.0153	12	C4H2+
51.0231	10	C4H3+
53.0387	139	C4H5+
115.0542	4	C9H7+
138.0276	43	C8H4F2+
139.0538	3	C11H7+
140.0492	13	C10H6N+
141.0698	24	C11H9+
142.0778	7	C11H10+
151.0184	60	C8H6ClN+
153.0574	2	C11H7N+
154.0651	9	C11H8N+
162.0106	44	C9H5ClN+
164.0261	96	C9H7ClN+
165.0387	7	C9H5F2N+
166.0652	93	C12H8N+
167.073	550	C12H9N+
168.0808	971	C12H10N+
169.0324	14	C11H4FN+
169.0448	2	C12H6F+
169.076	3	C11H9N2+
170.0528	32	C12H7F+
170.0595	3	C11H8NO+
171.0478	2	C11H6FN+
172.0555	21	C11H7FN+
172.9966	27	C8H4ClF2+
174.0105	55	C10H5ClN+
175.0184	69	C10H6ClN+
176.0306	9	C10H4F2N+
177.0392	14	C10H5F2N+
177.0573	24	C13H7N+
180.0212	9	C9H7ClNO+
182.0165	22	C9H6ClFN+
182.0335	16	C10H5F3+
182.0404	2	C12H5FN+
183.996	31	C8H4ClFNO+
184.0365	6	C9H5F3N+
184.0557	10	C12H7FN+
184.9963	22	C9H4ClF2+
185.0449	84	C9H6F3N+
185.0636	47	C12H8FN+
185.9918	17	C8H3ClF2N+
186.0353	2	C11H5FNO+
186.0716	3	C12H9FN+
187.0556	10	C12H8FO+
188.0261	241	C11H7ClN+
188.0428	14	C12H6F2+
189.0385	215	C11H5F2N+
190.0463	19	C11H6F2N+
192.0011	81	C10H4ClFN+
193.0522	8	C13H7NO+
194.0406	2	C13H5FN+
194.0603	9	C13H8NO+
195.048	58	C13H6FN+
196.0372	3	C10H5F3N+
196.0557	46	C13H7FN+
196.9964	8	C10H4ClF2+
197.0443	9	C10H6F3N+
197.0635	154	C13H8FN+
198.0116	7	C9H6ClFNO+
198.0526	20	C10H7F3N+
198.0712	23	C13H9FN+
200.0073	46	C9H5ClF2N+
200.026	11	C12H7ClN+
201.0339	241	C12H8ClN+
202.0413	211	C12H9ClN+
203.0492	34	C12H10ClN+
204.0014	38	C11H2F2O2+
204.0216	10	C11H7ClNO+
204.0626	4	C12H8F2N+
206.017	18	C11H6ClFN+
206.0414	28	C11H6F2NO+
207.0247	2	C14H4FO+
208.0371	15	C11H5F3N+
209.0448	72	C11H6F3N+
210.0119	28	C10H6ClFNO+
212.0074	250	C10H5ClF2N+
213.0381	2	C13H5F2N+
213.0581	2	C13H8FNO+
214.0461	25	C13H6F2N+
214.0662	2	C13H9FNO+
215.0541	151	C13H7F2N+
216.0024	9	C9H5ClF2NO+
216.0375	15	C13H6F2O+
216.062	175	C13H8F2N+
217.0698	62	C13H9F2N+
218.0375	4	C12H9ClNO+
218.0775	2	C13H10F2N+
219.0247	22	C12H7ClFN+
220.0139	3	C9H6ClF3N+
220.0323	4	C12H8ClFN+
220.0573	2	C12H8F2NO+
222.0119	30	C11H6ClFNO+
222.0526	207	C12H7F3N+
223.0429	2	C14H6FNO+
224.0074	999	C11H5ClF2N+
228.0215	3	C13H7ClNO+
230.0169	87	C13H6ClFN+
231.0245	9	C13H7ClFN+
232.0138	224	C10H6ClF3N+
232.0321	146	C13H8ClFN+
234.0529	8	C13H7F3N+
234.0732	2	C13H10F2NO+
235.0603	55	C13H8F3N+
236.0682	92	C13H9F3N+
237.0152	123	C12H6ClF2N+
237.0763	17	C13H10F3N+
238.0225	2	C12H7ClF2N+
242.0183	2	C11H7ClF2NO+
243.0056	3	C11H5ClF3N+
243.0493	3	C14H7F2NO+
244.0137	166	C11H6ClF3N+
247.0445	4	C13H7F2NO2+
248.0273	2	C13H8ClFNO+
249.0158	2	C13H4F3O2+
250.0231	164	C13H7ClF2N+
256.0137	10	C12H6ClF3N+
263.0551	2	C14H8F3NO+
269.0214	3	C13H7ClF3N+
270.0283	3	C13H8ClF3N+
