Mass spectrum: Galaxolidone; LC-ESI-ITFT; MS2; CE: 45%; R=15000; [M+H]+
Name: Galaxolidone
Name: 1,3,4,6,7,8-Hexahydro-4,6,6,7,8,8-hexamethylcyclopenta[g]-2-benzopyran-1-on
Formula: C18H24O2
Exact mass: 272.1776
SMILES: CC2(C)c1cc3C(=O)OCC(C)c3cc1C(C)(C)C2C
InChI: InChI=1S/C18H24O2/c1-10-9-20-16(19)13-8-15-14(7-12(10)13)17(3,4)11(2)18(15,5)6/h7-8,10-11H,9H2,1-6H3
Instrument: LTQ Orbitrap XL Thermo Scientific
Instrument type: LC-ESI-ITFT
Ms type: MS2
Ion mode: POSITIVE
Ionization: ESI
Fragmentation mode: HCD
Collision energy: 45 % (nominal)
Resolution: 15000
Column name: XBridge C18 3.5um, 2.1x50mm, Waters
Retention time: 14.7 min
Base peak: 295.1677
Precursor m/z: 273.1849
Precursor type: [M+H]+
m/z	relative intensity	assigned
157.101	16	C12H13+
175.1117	30	C12H15O+
185.0961	15	C13H13O+
203.1065	10	C13H15O2+
212.1564	6	C16H20+
226.1352	15	C16H18O+
227.1794	29	C17H23+
240.1507	70	C17H20O+
245.1528	4	C16H21O2+
255.1744	999	C18H23O+
273.1846	388	C18H25O2+
