Mass spectrum: Dimoxystrobin; LC-ESI-QFT; MS2; CE: 90; R=35000; [M+H]+
Name: Dimoxystrobin
Name: 2-[2-[(2,5-dimethylphenoxy)methyl]phenyl]-2-methoxyimino-N-methylacetamide
Formula: C19H22N2O3
Exact mass: 326.16304
SMILES: CC1=CC(=C(C=C1)C)OCC2=CC=CC=C2C(=NOC)C(=O)NC
InChI: InChI=1S/C19H22N2O3/c1-13-9-10-14(2)17(11-13)24-12-15-7-5-6-8-16(15)18(21-23-4)19(22)20-3/h5-11H,12H2,1-4H3,(H,20,22)
Instrument: Q Exactive Plus Orbitrap Thermo Scientific
Instrument type: LC-ESI-QFT
Ms type: MS2
Ion mode: POSITIVE
Ionization: ESI
Fragmentation mode: HCD
Collision energy: 90 (nominal)
Resolution: 35000
Column name: XBridge C18 3.5um, 2.1x50mm, Waters
Retention time: 12.4 min
Base peak: 327.1694
Precursor m/z: 327.1703
Precursor type: [M+H]+
m/z	relative intensity	assigned
53.0386	1	C4H5+
58.0287	999	C2H4NO+
62.015	3	C5H2+
63.0229	37	C5H3+
64.0181	1	C4H2N+
65.0386	21	C5H5+
66.0464	4	C5H6+
77.0384	4	C6H5+
78.0464	2	C6H6+
79.0541	7	C6H7+
81.0335	1	C5H5O+
89.0385	785	C7H5+
90.0338	26	C6H4N+
90.0464	31	C7H6+
91.0542	37	C7H7+
93.0697	1	C7H9+
95.049	4	C6H7O+
103.0541	2	C8H7+
104.0494	4	C7H6N+
105.0446	2	C6H5N2+
105.0699	2	C8H9+
107.049	5	C7H7O+
115.0414	4	C8H5N+
116.0494	982	C8H6N+
117.0572	87	C8H7N+
118.0651	9	C8H8N+
119.0367	4	C7H5NO+
121.065	4	C8H9O+
128.0495	4	C9H6N+
130.0651	1	C9H8N+
131.0604	1	C8H7N2+
132.0444	6	C8H6NO+
133.0524	1	C8H7NO+
134.06	43	C8H8NO+
135.0802	2	C9H11O+
145.0761	9	C9H9N2+
146.0599	2	C9H8NO+
148.0756	3	C9H10NO+
152.0619	1	C12H8+
153.0695	2	C12H9+
165.0699	9	C13H9+
166.0774	2	C13H10+
167.0729	2	C12H9N+
167.0853	2	C13H11+
177.0699	1	C14H9+
178.0777	27	C14H10+
179.0853	6	C14H11+
180.0807	47	C13H10N+
181.0881	1	C13H11N+
190.0647	1	C14H8N+
191.0853	1	C15H11+
192.0802	4	C14H10N+
193.0884	6	C14H11N+
194.0963	23	C14H12N+
195.1037	3	C14H13N+
202.0774	1	C16H10+
203.0731	1	C15H9N+
204.0808	4	C15H10N+
206.0596	1	C14H8NO+
206.0961	3	C15H12N+
207.0804	1	C15H11O+
208.0755	3	C14H10NO+
220.0758	4	C15H10NO+
222.0911	3	C15H12NO+
223.0991	6	C15H13NO+
