Mass spectrum: Triphenyl phosphate (TPP); LC-ESI-QFT; MS2; CE: 75; R=35000; [M+H]+
Name: Triphenyl phosphate (TPP)
Name: Triphenyl phosphate
Name: Triphenoxyphosphine oxide
Formula: C18H15O4P
Exact mass: 326.07080
SMILES: C1=CC=C(C=C1)OP(=O)(OC2=CC=CC=C2)OC3=CC=CC=C3
InChI: InChI=1S/C18H15O4P/c19-23(20-16-10-4-1-5-11-16,21-17-12-6-2-7-13-17)22-18-14-8-3-9-15-18/h1-15H
Instrument: Q Exactive Plus Orbitrap Thermo Scientific
Instrument type: LC-ESI-QFT
Ms type: MS2
Ion mode: POSITIVE
Ionization: ESI
Fragmentation mode: HCD
Collision energy: 75 (nominal)
Resolution: 35000
Column name: XBridge C18 3.5um, 2.1x50mm, Waters
Retention time: 13.1 min
Base peak: 327.0775
Precursor m/z: 327.0781
Precursor type: [M+H]+
m/z	relative intensity	assigned
50.0151	47	C4H2+
51.023	27	C4H3+
53.0386	155	C4H5+
55.0179	10	C3H3O+
65.0022	2	C4HO+
65.0386	37	C5H5+
67.0542	2	C5H7+
68.9971	1	C3HO2+
77.0386	409	C6H5+
81.0335	16	C5H5O+
92.0256	4	C6H4O+
93.0336	8	C6H5O+
94.0414	13	C6H6O+
95.0492	502	C6H7O+
98.9842	10	H4O4P+
101.0152	1	C4H6OP+
103.0543	1	C8H7+
105.0448	321	C6H5N2+
106.0418	1	C7H6O+
109.065	2	C7H9O+
111.044	2	C6H7O2+
115.0542	7	C9H7+
121.0285	4	C7H5O2+
126.0464	1	C10H6+
127.0544	5	C10H7+
128.0622	3	C10H8+
129.01	3	C5H6O2P+
133.02	3	C8H6P+
138.9944	20	C6H4O2P+
139.054	2	C11H7+
140.0023	3	C6H5O2P+
141.0699	18	C11H9+
142.0778	3	C11H10+
145.0648	7	C10H9O+
150.0467	4	C12H6+
151.0543	44	C12H7+
152.0621	999	C12H8+
153.0699	129	C12H9+
154.0778	1	C12H10+
155.0604	16	C10H7N2+
157.005	10	C6H6O3P+
159.036	6	C10H8P+
168.0571	386	C12H8O+
169.0649	84	C12H9O+
170.0727	7	C12H10O+
171.0806	1	C12H11O+
175.0156	41	C6H8O4P+
179.0605	39	C12H7N2+
186.0229	1	C11H7OP+
187.0308	50	C11H8OP+
202.0778	29	C16H10+
215.0258	101	C12H8O2P+
226.0779	26	C18H10+
227.0856	53	C18H11+
228.0935	77	C18H12+
229.1013	1	C18H13+
233.0364	91	C12H10O3P+
244.0882	8	C18H12O+
247.0519	2	C13H12O3P+
251.0469	28	C12H12O4P+
273.0466	1	C18H10OP+
