Mass spectrum: Flubendiamide; LC-ESI-QFT; MS2; CE: 75%; R=17500; [M-H]-
Name: Flubendiamide
Name: 1-N-[4-(1,1,1,2,3,3,3-heptafluoropropan-2-yl)-2-methylphenyl]-3-iodo-2-N-(2-methyl-1-methylsulfonylpropan-2-yl)benzene-1,2-dicarboxamide
Formula: C23H22F7IN2O4S
Exact mass: 682.0233
SMILES: CC1=C(C=CC(=C1)C(C(F)(F)F)(C(F)(F)F)F)NC(=O)C2=C(C(=CC=C2)I)C(=O)NC(C)(C)CS(=O)(=O)C
InChI: InChI=1S/C23H22F7IN2O4S/c1-12-10-13(21(24,22(25,26)27)23(28,29)30)8-9-16(12)32-18(34)14-6-5-7-15(31)17(14)19(35)33-20(2,3)11-38(4,36)37/h5-10H,11H2,1-4H3,(H,32,34)(H,33,35)
Instrument: Exploris 240 Orbitrap Thermo Scientific
Instrument type: LC-ESI-QFT
Ms type: MS2
Ion mode: NEGATIVE
Ionization: ESI
Fragmentation mode: HCD
Collision energy: 75 % (nominal)
Resolution: 17500
Column name: XBridge C18 3.5um, 2.1x50mm, Waters
Retention time: 10.966 min
Base peak: 681.0162
Precursor m/z: 681.016
Precursor type: [M-H]-
m/z	relative intensity	assigned
76.0192	51	C5H2N-
77.9779	11	CH2O2S-
78.9862	18	CH3O2S-
92.9954	10	C3F3-
116.9956	57	C5F3-
126.905	739	I-
143.0113	45	C7H2F3-
154.0101	54	C10HFN-
174.0161	599	C10H2F2N-
194.0224	999	C10H3F3N-
205.028	25	C9H5F4O-
214.0286	174	C10H4F4N-
