Mass spectrum: Lidocaine-N-Oxide; LC-ESI-QFT; MS2; CE: 90; R=35000; [M+H]+
Name: Lidocaine-N-Oxide
Name: Lignocaine N-oxide
Name: 2-(2,6-dimethylanilino)-N,N-diethyl-2-oxoethanamine oxide
Formula: C14H22N2O2
Exact mass: 250.16813
SMILES: CC[N+](CC)(CC(=O)NC1=C(C=CC=C1C)C)[O-]
InChI: InChI=1S/C14H22N2O2/c1-5-16(18,6-2)10-13(17)15-14-11(3)8-7-9-12(14)4/h7-9H,5-6,10H2,1-4H3,(H,15,17)
Instrument: Q Exactive Plus Orbitrap Thermo Scientific
Instrument type: LC-ESI-QFT
Ms type: MS2
Ion mode: POSITIVE
Ionization: ESI
Fragmentation mode: HCD
Collision energy: 90 (nominal)
Resolution: 35000
Column name: XBridge C18 3.5um, 2.1x50mm, Waters
Retention time: 4.8 min
Base peak: 251.1752
Precursor m/z: 251.1754
Precursor type: [M+H]+
m/z	relative intensity	assigned
53.0386	4	C4H5+
56.0495	21	C3H6N+
58.0651	317	C3H8N+
60.0444	273	C2H6NO+
65.0385	2	C5H5+
67.0542	1	C5H7+
72.0807	14	C4H10N+
74.06	83	C3H8NO+
77.0385	10	C6H5+
79.0542	50	C6H7+
80.0494	2	C5H6N+
84.0808	11	C5H10N+
86.0964	999	C5H12N+
88.0757	128	C4H10NO+
90.0913	2	C4H12NO+
91.0542	26	C7H7+
92.0493	4	C6H6N+
93.0573	1	C6H7N+
93.0699	19	C7H9+
94.0651	2	C6H8N+
95.0491	21	C6H7O+
103.0542	38	C8H7+
105.0447	13	C6H5N2+
105.0699	100	C8H9+
106.0651	23	C7H8N+
107.0729	98	C7H9N+
107.0854	7	C8H11+
109.0648	1	C7H9O+
110.0601	3	C6H8NO+
115.0542	3	C9H7+
117.0572	4	C8H7N+
117.0698	3	C9H9+
118.065	6	C8H8N+
119.0491	2	C8H7O+
119.073	10	C8H9N+
119.0855	3	C9H11+
120.0808	505	C8H10N+
121.0649	1	C8H9O+
121.0885	13	C8H11N+
122.0964	64	C8H12N+
123.0804	5	C8H11O+
130.0652	2	C9H8N+
131.0729	3	C9H9N+
132.0807	2	C9H10N+
133.0522	6	C8H7NO+
133.076	2	C8H9N2+
134.0598	4	C8H8NO+
134.0964	21	C9H12N+
144.0807	2	C10H10N+
146.0965	4	C10H12N+
147.0678	4	C9H9NO+
148.0756	25	C9H10NO+
