Mass spectrum: Thiamethoxam; LC-ESI-ITFT; MS2; CE: 75%; R=15000; [M+H]+
Name: Thiamethoxam
Name: 3-((2-Chloro-5-thiazolyl)methyl)tetrahydro-5-methyl-N-nitro-4H-1,3,5-oxadiazin-4-imine
Formula: C8H10ClN5O3S
Exact mass: 291.0193
SMILES: Clc1ncc(s1)CN2\C(=N\[N+]([O-])=O)N(C)COC2
InChI: InChI=1S/C8H10ClN5O3S/c1-12-4-17-5-13(8(12)11-14(15)16)3-6-2-10-7(9)18-6/h2H,3-5H2,1H3/b11-8+
Instrument: LTQ Orbitrap XL Thermo Scientific
Instrument type: LC-ESI-ITFT
Ms type: MS2
Ion mode: POSITIVE
Ionization: ESI
Fragmentation mode: HCD
Collision energy: 75 % (nominal)
Resolution: 15000
Column name: XBridge C18 3.5um, 2.1x50mm, Waters
Retention time: 4.1 min
Base peak: 292.0274
Precursor m/z: 292.0266
Precursor type: [M+H]+
m/z	relative intensity	assigned
57.0446	5	C2H5N2+
67.0416	46	C4H5N+
68.0494	2	C4H6N+
69.0447	132	C3H5N2+
70.995	84	C3H3S+
71.9903	3	C2H2NS+
78.9403	7	CClS+
79.029	3	C4H3N2+
81.0447	17	C4H5N2+
81.0573	8	C5H7N+
82.0524	2	C4H6N2+
82.9824	7	C3HNS+
83.9902	6	C3H2NS+
86.0059	3	C3H4NS+
87.9949	8	C3H3ClN+
92.0367	1	C5H4N2+
93.0446	5	C5H5N2+
94.0524	7	C5H6N2+
95.0604	8	C5H7N2+
95.99	2	C4H2NS+
96.0556	2	C4H6N3+
97.0396	4	C4H5N2O+
98.0058	56	C4H4NS+
99.0011	46	C3H3N2S+
99.0138	4	C4H5NS+
99.0554	4	C4H7N2O+
107.0475	3	C5H5N3+
108.0556	358	C5H6N3+
110.0711	2	C5H8N3+
111.001	8	C4H3N2S+
112.0087	2	C4H4N2S+
112.0215	24	C5H6NS+
113.0167	24	C4H5N2S+
116.0703	1	C5H10NO2+
118.9591	3	C3H2ClNS+
119.9668	2	C3H3ClNS+
120.0556	1	C6H6N3+
121.0633	2	C6H7N3+
122.0712	211	C6H8N3+
123.079	52	C6H9N3+
124.0088	14	C5H4N2S+
125.0167	163	C5H5N2S+
126.0244	6	C5H6N2S+
131.9668	999	C4H3ClNS+
132.9746	16	C4H4ClNS+
135.0664	1	C6H7N4+
137.0822	3	C6H9N4+
138.0119	54	C5H4N3S+
138.0241	2	C6H6N2S+
139.0197	4	C5H5N3S+
139.0323	10	C6H7N2S+
140.0275	3	C5H6N3S+
144.9746	4	C5H4ClNS+
145.9704	3	C4H3ClN2S+
146.9778	5	C4H4ClN2S+
147.0664	14	C7H7N4+
148.0745	4	C7H8N4+
151.0197	101	C6H5N3S+
152.0276	474	C6H6N3S+
154.0432	19	C6H8N3S+
160.993	3	C5H6ClN2S+
165.0228	24	C6H5N4S+
165.0772	5	C7H9N4O+
166.0306	7	C6H6N4S+
171.9732	4	C8N2OS+
172.9809	3	C8HN2OS+
172.9936	2	C6H6ClN2S+
174.9724	18	C8HNO2S+
179.0385	9	C7H7N4S+
180.0465	6	C7H8N4S+
181.054	176	C7H9N4S+
185.9882	4	C6H5ClN3S+
211.0708	5	C7H9N5O3+
215.0151	7	C7H8ClN4S+
