Mass spectrum: Doxepine; LC-ESI-QFT; MS2; CE: 75; R=35000; [M+H]+
Name: Doxepine
Name: Doxepin
Name: 3-(6H-benzo[c][1]benzoxepin-11-ylidene)-N,N-dimethylpropan-1-amine
Formula: C19H21NO
Exact mass: 279.16231
SMILES: CN(C)CCC=C1C2=CC=CC=C2COC3=CC=CC=C31
InChI: InChI=1S/C19H21NO/c1-20(2)13-7-11-17-16-9-4-3-8-15(16)14-21-19-12-6-5-10-18(17)19/h3-6,8-12H,7,13-14H2,1-2H3
Instrument: Q Exactive Plus Orbitrap Thermo Scientific
Instrument type: LC-ESI-QFT
Ms type: MS2
Ion mode: POSITIVE
Ionization: ESI
Fragmentation mode: HCD
Collision energy: 75 (nominal)
Resolution: 35000
Column name: XBridge C18 3.5um, 2.1x50mm, Waters
Retention time: 6.8 min
Base peak: 280.1689
Precursor m/z: 280.1696
Precursor type: [M+H]+
m/z	relative intensity	assigned
50.015	2	C4H2+
51.0228	4	C4H3+
53.0386	31	C4H5+
55.0179	16	C3H3O+
55.0542	2	C4H7+
56.0495	8	C3H6N+
57.0573	1	C3H7N+
58.0651	252	C3H8N+
63.0228	3	C5H3+
65.0386	13	C5H5+
68.0494	3	C4H6N+
69.0335	3	C4H5O+
69.0573	1	C4H7N+
70.0651	113	C4H8N+
71.073	7	C4H9N+
72.0807	12	C4H10N+
77.0385	74	C6H5+
79.0542	346	C6H7+
81.0335	9	C5H5O+
82.0651	21	C5H8N+
84.0808	301	C5H10N+
85.0886	21	C5H11N+
91.0542	376	C7H7+
94.0412	1	C6H6O+
95.0491	99	C6H7O+
103.0542	23	C8H7+
104.0621	5	C8H8+
105.0335	5	C7H5O+
105.0447	58	C6H5N2+
105.0699	21	C8H9+
107.0491	999	C7H7O+
109.0647	1	C7H9O+
115.0542	362	C9H7+
116.0621	6	C9H8+
117.0699	257	C9H9+
119.0492	20	C8H7O+
127.0541	3	C10H7+
128.062	78	C10H8+
129.0699	155	C10H9+
131.0492	83	C9H7O+
133.0649	2	C9H9O+
139.0542	1	C11H7+
141.0699	247	C11H9+
142.0777	78	C11H10+
143.0855	4	C11H11+
144.057	4	C10H8O+
144.0812	1	C10H10N+
145.0648	7	C10H9O+
152.062	37	C12H8+
153.0698	10	C12H9+
155.0603	14	C10H7N2+
155.0859	1	C12H11+
157.0649	11	C11H9O+
158.0965	5	C11H12N+
165.0699	192	C13H9+
166.0777	115	C13H10+
167.0855	134	C13H11+
168.057	3	C12H8O+
169.0649	1	C12H9O+
170.0962	4	C12H12N+
172.112	4	C12H14N+
173.1199	1	C12H15N+
176.0617	6	C14H8+
177.0699	18	C14H9+
178.0777	195	C14H10+
179.0855	123	C14H11+
181.0646	10	C13H9O+
181.1011	10	C14H13+
189.0697	15	C15H9+
190.0777	22	C15H10+
191.0855	108	C15H11+
192.0933	112	C15H12+
193.065	6	C14H9O+
193.1014	3	C15H13+
194.0727	172	C14H10O+
195.0805	14	C14H11O+
200.0616	1	C16H8+
201.0697	4	C16H9+
202.0777	320	C16H10+
203.0855	40	C16H11+
204.0934	3	C16H12+
205.0649	29	C15H9O+
205.1017	6	C16H13+
206.0728	4	C15H10O+
207.0805	67	C15H11O+
207.117	5	C16H15+
208.0881	1	C15H12O+
215.0856	72	C17H11+
216.0934	25	C17H12+
217.1013	19	C17H13+
218.0729	9	C16H10O+
219.0805	140	C16H11O+
220.0883	171	C16H12O+
229.0761	6	C16H9N2+
233.096	3	C17H13O+
234.104	2	C17H14O+
235.1115	1	C17H15O+
