Mass spectrum: Imazamox; LC-ESI-ITFT; MS2; CE: 90%; R=30000; [M+H]+
Name: Imazamox
Name: 2-(4-isopropyl-5-keto-4-methyl-2-imidazolin-2-yl)-5-(methoxymethyl)nicotinic acid
Formula: C15H19N3O4
Exact mass: 305.1376
SMILES: O=C(O)c1c(ncc(c1)COC)/C2=N/C(C(=O)N2)(C(C)C)C
InChI: InChI=1S/C15H19N3O4/c1-8(2)15(3)14(21)17-12(18-15)11-10(13(19)20)5-9(6-16-11)7-22-4/h5-6,8H,7H2,1-4H3,(H,19,20)(H,17,18,21)
Instrument: LTQ Orbitrap XL Thermo Scientific
Instrument type: LC-ESI-ITFT
Ms type: MS2
Ion mode: POSITIVE
Ionization: ESI
Fragmentation mode: HCD
Collision energy: 90 % (nominal)
Resolution: 30000
Column name: XBridge C18 3.5um, 2.1x50mm, Waters
Retention time: 5.7 min
Base peak: 306.1456
Precursor m/z: 306.1448
Precursor type: [M+H]+
m/z	relative intensity	assigned
56.0495	15	C3H6N+
63.0231	11	C5H3+
65.0386	53	C5H5+
67.0543	28	C5H7+
69.0699	408	C5H9+
70.0652	27	C4H8N+
71.073	88	C4H9N+
78.0338	28	C5H4N+
79.0416	38	C5H5N+
80.0495	24	C5H6N+
81.0333	10	C5H5O+
86.0964	933	C5H12N+
88.0182	118	C6H2N+
90.0339	37	C6H4N+
91.0417	8	C6H5N+
92.0495	203	C6H6N+
94.0525	11	C5H6N2+
94.065	7	C6H8N+
105.0447	46	C6H5N2+
106.0288	14	C6H4NO+
106.0653	13	C7H8N+
107.0367	21	C6H5NO+
107.0603	126	C6H7N2+
108.0444	41	C6H6NO+
110.0601	39	C6H8NO+
111.0442	17	C6H7O2+
115.029	46	C7H3N2+
116.037	14	C7H4N2+
117.0447	164	C7H5N2+
118.0526	233	C7H6N2+
119.0603	155	C7H7N2+
120.0444	77	C7H6NO+
120.0679	8	C7H8N2+
121.0396	21	C6H5N2O+
122.06	508	C7H8NO+
123.0679	46	C7H9NO+
131.0603	32	C8H7N2+
132.0318	21	C7H4N2O+
132.055	9	C7H6N3+
133.0396	50	C7H5N2O+
133.0759	35	C8H9N2+
134.0474	37	C7H6N2O+
135.0553	60	C7H7N2O+
140.0706	264	C7H10NO2+
144.0318	105	C8H4N2O+
144.0806	8	C10H10N+
145.0396	587	C8H5N2O+
146.0237	30	C8H4NO2+
146.0472	46	C8H6N2O+
147.0552	142	C8H7N2O+
148.063	158	C8H8N2O+
149.0345	40	C7H5N2O2+
149.0709	110	C8H9N2O+
150.0426	20	C7H6N2O2+
150.055	22	C8H8NO2+
151.05	11	C7H7N2O2+
151.0865	11	C8H11N2O+
155.0577	34	C7H9NO3+
158.0717	12	C9H8N3+
159.0552	38	C9H7N2O+
159.0793	14	C9H9N3+
160.0508	29	C8H6N3O+
160.0631	168	C9H8N2O+
161.0584	184	C8H7N3O+
161.0709	239	C9H9N2O+
162.0424	298	C8H6N2O2+
162.0661	32	C8H8N3O+
163.0501	999	C8H7N2O2+
164.035	9	C8H6NO3+
165.066	55	C8H9N2O2+
168.0656	20	C8H10NO3+
171.0918	12	C11H11N2+
173.0708	17	C10H9N2O+
175.0501	438	C9H7N2O2+
175.0613	86	C8H7N4O+
176.0581	31	C9H8N2O2+
177.0657	61	C9H9N2O2+
179.045	19	C8H7N2O3+
184.099	13	C12H12N2+
186.0662	9	C10H8N3O+
187.0741	105	C10H9N3O+
188.0812	15	C10H10N3O+
188.0951	13	C11H12N2O+
191.0815	291	C10H11N2O2+
192.0767	75	C9H10N3O2+
193.0608	132	C9H9N2O3+
203.0688	17	C10H9N3O2+
215.0687	72	C11H9N3O2+
216.0759	18	C11H10N3O2+
218.0923	72	C11H12N3O2+
230.0931	12	C14H14O3+
246.0865	35	C12H12N3O3+
