Mass spectrum: Carbendazim; LC-ESI-QFT; MS2; CE: 180; R=35000; [M+H]+
Name: Carbendazim
Name: N-(1H-benzimidazol-2-yl)carbamic acid methyl ester
Formula: C9H9N3O2
Exact mass: 191.06948
SMILES: c12c(cccc1)N=C(NC(OC)=O)N2
InChI: InChI=1S/C9H9N3O2/c1-14-9(13)12-8-10-6-4-2-3-5-7(6)11-8/h2-5H,1H3,(H2,10,11,12,13)
Instrument: Q Exactive Plus Orbitrap Thermo Scientific
Instrument type: LC-ESI-QFT
Ms type: MS2
Ion mode: POSITIVE
Ionization: ESI
Fragmentation mode: HCD
Collision energy: 180 (nominal)
Resolution: 35000
Column name: XBridge C18 3.5um, 2.1x50mm, Waters
Retention time: 3.2 min
Base peak: 192.0767
Precursor m/z: 192.0768
Precursor type: [M+H]+
m/z	relative intensity	assigned
50.0151	70	C4H2+
51.023	100	C4H3+
52.0182	15	C3H2N+
52.0308	24	C4H4+
53.0022	37	C3HO+
53.0386	30	C4H5+
53.9975	10	C2NO+
54.01	1	C3H2O+
54.0339	7	C3H4N+
54.0464	3	C4H6+
55.0178	7	C3H3O+
61.0072	1	C5H+
62.0151	18	C5H2+
63.023	248	C5H3+
64.0182	213	C4H2N+
64.0308	21	C5H4+
65.0386	999	C5H5+
66.0339	4	C4H4N+
66.0464	3	C5H6+
67.9893	8	C3O2+
68.0495	1	C4H6N+
69.0083	7	C2HN2O+
76.0181	11	C5H2N+
77.0259	16	C5H3N+
78.0338	298	C5H4N+
79.0416	60	C5H5N+
80.0494	53	C5H6N+
81.0335	22	C5H5O+
90.0339	378	C6H4N+
91.0417	43	C6H5N+
92.0495	54	C6H6N+
93.0573	5	C6H7N+
95.0366	5	C5H5NO+
96.0444	63	C5H6NO+
97.0523	4	C5H7NO+
104.0369	10	C6H4N2+
105.0448	424	C6H5N2+
106.0288	7	C6H4NO+
106.0525	18	C6H6N2+
107.0604	1	C6H7N2+
108.0443	1	C6H6NO+
110.06	1	C6H8NO+
111.0314	1	C5H5NO2+
116.0371	3	C7H4N2+
117.0447	5	C7H5N2+
118.0525	12	C7H6N2+
131.0479	6	C7H5N3+
132.0557	22	C7H6N3+
133.0635	1	C7H7N3+
135.0554	9	C7H7N2O+
160.0506	1	C8H6N3O+
