Mass spectrum: Caffeine; LC-ESI-ITFT; MS2; CE: 75%; R=7500; [M+H]+
Name: Caffeine
Name: 1,3,7-trimethyl-3,7-dihydro-1H-purine-2,6-dione
Name: 1,3,7-trimethylpurine-2,6-dione
Formula: C8H10N4O2
Exact mass: 194.0804
SMILES: c12c(n(c(=O)n(c1=O)C)C)ncn2C
InChI: InChI=1S/C8H10N4O2/c1-10-4-9-6-5(10)7(13)12(3)8(14)11(6)2/h4H,1-3H3
Instrument: LTQ Orbitrap XL Thermo Scientific
Instrument type: LC-ESI-ITFT
Ms type: MS2
Ion mode: POSITIVE
Ionization: ESI
Fragmentation mode: HCD
Collision energy: 75 % (nominal)
Resolution: 7500
Column name: XBridge C18 3.5um, 2.1x50mm, Waters
Retention time: 4.0 min
Base peak: 195.088
Precursor m/z: 195.0877
Precursor type: [M+H]+
m/z	relative intensity	assigned
56.0494	21	C3H6N+
67.029	3	C3H3N2+
69.0447	90	C3H5N2+
81.0446	7	C4H5N2+
82.0525	5	C4H6N2+
83.0603	109	C4H7N2+
97.0396	5	C4H5N2O+
109.0397	46	C5H5N2O+
110.0712	232	C5H8N3+
111.0551	16	C5H7N2O+
123.0426	70	C5H5N3O+
138.0661	999	C6H8N3O+
195.0871	113	C8H11N4O2+
