Mass spectrum: Propoxyphene; LC-ESI-QFT; MS2; CE: 60; R=35000; [M+H]+
Name: Propoxyphene
Name: Levopropoxyphene
Name: [4-(dimethylamino)-3-methyl-1,2-diphenylbutan-2-yl] propanoate
Formula: C22H29NO2
Exact mass: 339.21983
SMILES: CCC(=O)OC(CC1=CC=CC=C1)(C2=CC=CC=C2)C(C)CN(C)C
InChI: InChI=1S/C22H29NO2/c1-5-21(24)25-22(18(2)17-23(3)4,20-14-10-7-11-15-20)16-19-12-8-6-9-13-19/h6-15,18H,5,16-17H2,1-4H3
Instrument: Q Exactive Plus Orbitrap Thermo Scientific
Instrument type: LC-ESI-QFT
Ms type: MS2
Ion mode: POSITIVE
Ionization: ESI
Fragmentation mode: HCD
Collision energy: 60 (nominal)
Resolution: 35000
Column name: XBridge C18 3.5um, 2.1x50mm, Waters
Retention time: 7.8 min
Base peak: 340.2269
Precursor m/z: 340.2271
Precursor type: [M+H]+
m/z	relative intensity	assigned
56.0495	5	C3H6N+
58.0651	999	C3H8N+
91.0543	38	C7H7+
103.0542	1	C8H7+
105.0699	7	C8H9+
115.0544	1	C9H7+
128.0621	15	C10H8+
143.0856	20	C11H11+
155.0608	1	C10H7N2+
166.0782	1	C13H10+
