Mass spectrum: Indapamide; LC-ESI-QFT; MS2; CE: 60; R=35000; [M-H]-
Name: Indapamide
Name: 4-chloro-N-(2-methyl-2,3-dihydroindol-1-yl)-3-sulfamoylbenzamide
Formula: C16H16ClN3O3S
Exact mass: 365.06009
SMILES: CC1CC2=CC=CC=C2N1NC(=O)C3=CC(=C(C=C3)Cl)S(=O)(=O)N
InChI: InChI=1S/C16H16ClN3O3S/c1-10-8-11-4-2-3-5-14(11)20(10)19-16(21)12-6-7-13(17)15(9-12)24(18,22)23/h2-7,9-10H,8H2,1H3,(H,19,21)(H2,18,22,23)
Instrument: Q Exactive Plus Orbitrap Thermo Scientific
Instrument type: LC-ESI-QFT
Ms type: MS2
Ion mode: NEGATIVE
Ionization: ESI
Fragmentation mode: HCD
Collision energy: 60 (nominal)
Resolution: 35000
Column name: XBridge C18 3.5um, 2.1x50mm, Waters
Retention time: 6.7 min
Base peak: 364.0524
Precursor m/z: 364.0528
Precursor type: [M-H]-
m/z	relative intensity	assigned
53.0033	4	C3HO-
57.9756	5	CNS-
61.9706	88	NOS-
63.9624	123	O2S-
64.0193	6	C4H2N-
65.0034	2	C4HO-
65.0271	5	C4H3N-
65.9985	18	C3NO-
66.0111	5	C4H2O-
68.0142	10	C3H2NO-
68.9983	1	C3HO2-
76.0193	1	C5H2N-
77.0033	23	C5HO-
77.9655	646	NO2S-
78.9733	304	HNO2S-
79.9812	236	H2NO2S-
80.9651	2	HO3S-
81.022	5	C4H3NO-
88.0192	9	C6H2N-
89.0271	76	C6H3N-
90.0349	36	C6H4N-
91.0301	23	C5H3N2-
92.0142	44	C5H2NO-
92.9982	7	C5HO2-
93.022	11	C5H3NO-
93.9604	24	NO3S-
94.006	5	C5H2O2-
94.0299	1	C5H4NO-
95.0138	2	C5H3O2-
98.9313	14	ClO2S-
103.0301	4	C6H3N2-
103.9904	6	C6O2-
105.022	285	C6H3NO-
106.006	44	C6H2O2-
107.9913	21	C5H2NS-
108.0218	1	C6H4O2-
108.985	1	C6H2Cl-
109.0168	2	C5H3NO2-
112.98	4	C5H2ClO-
113.9422	9	ClHNO2S-
114.95	4	ClH2NO2S-
115.0302	25	C7H3N2-
116.0506	31	C8H6N-
117.0459	2	C7H5N2-
120.0091	16	C6H2NO2-
120.0329	72	C6H4N2O-
120.9931	44	C6HO3-
121.0169	3	C6H3NO2-
122.001	3	C6H2O3-
122.0248	2	C6H4NO2-
123.9958	12	C6H3ClN-
125.0037	63	C6H4ClN-
126.0116	95	C6H5ClN-
127.9909	2	C5H3ClNO-
130.0662	23	C9H8N-
131.0251	104	C7H3N2O-
131.0614	5	C8H7N2-
132.0329	151	C7H4N2O-
132.0818	22	C9H10N-
133.0408	3	C7H5N2O-
135.9958	1	C7H3ClN-
140.9987	11	C6H4ClNO-
141.9827	32	C6H3ClO2-
148.0279	46	C7H4N2O2-
151.0069	87	C7H4ClN2-
151.9908	12	C7H3ClNO-
152.9891	23	C6H3NO2S-
153.9969	17	C6H4NO2S-
155.0042	1	C6H5NO2S-
157.0407	2	C9H5N2O-
167.0018	11	C7H4ClN2O-
168.0099	3	C7H5ClN2O-
168.9839	2	C6H3NO3S-
169.0175	5	C7H6ClN2O-
171.0566	2	C10H7N2O-
173.0719	2	C10H9N2O-
178.9921	95	C7H3N2O2S-
188.9658	999	C9HO3S-
189.9735	42	C6H5ClNO2S-
197.0027	6	C7H5N2O3S-
204.9605	27	C6H4ClNO3S-
214.9689	174	C7H4ClN2O2S-
215.9527	9	C7H3ClNO3S-
232.9792	6	C7H6ClN2O3S-
