Mass spectrum: Eicosatrienoic acid; LC-ESI-QFT; MS2; CE: 90%; R=17500; [M+H]+
Name: Eicosatrienoic acid
Name: Eicosa-11,14,17-trienoic acid
Name: icosa-11,14,17-trienoic acid
Formula: C20H34O2
Exact mass: 306.2559
SMILES: CCC=CCC=CCC=CCCCCCCCCCC(=O)O
InChI: InChI=1S/C20H34O2/c1-2-3-4-5-6-7-8-9-10-11-12-13-14-15-16-17-18-19-20(21)22/h3-4,6-7,9-10H,2,5,8,11-19H2,1H3,(H,21,22)
Instrument: Exploris 240 Orbitrap Thermo Scientific
Instrument type: LC-ESI-QFT
Ms type: MS2
Ion mode: POSITIVE
Ionization: ESI
Fragmentation mode: HCD
Collision energy: 90 % (nominal)
Resolution: 17500
Column name: XBridge C18 3.5um, 2.1x50mm, Waters
Retention time: 17.864 min
Base peak: 329.2449
Precursor m/z: 307.2632
Precursor type: [M+H]+
m/z	relative intensity	assigned
53.0386	33	C4H5+
55.0542	216	C4H7+
57.0698	14	C4H9+
65.0386	45	C5H5+
67.0542	999	C5H7+
69.0699	53	C5H9+
79.0542	202	C6H7+
81.0699	567	C6H9+
91.0543	35	C7H7+
93.0699	53	C7H9+
95.0493	10	C6H7O+
95.0855	205	C7H11+
105.0701	20	C8H9+
107.0856	6	C8H11+
109.101	32	C8H13+
