Mass spectrum: Clopidogrel carboxylic acid; LC-ESI-ITFT; MS2; CE: 90%; R=30000; [M+H]+
Name: Clopidogrel carboxylic acid
Name: 2-(2-chlorophenyl)-2-(6,7-dihydro-4H-thieno[3,2-c]pyridin-5-yl)acetic acid
Formula: C15H14ClNO2S
Exact mass: 307.0434
SMILES: C1CN(CC2=C1SC=C2)C(C3=CC=CC=C3Cl)C(=O)O
InChI: InChI=1S/C15H14ClNO2S/c16-12-4-2-1-3-11(12)14(15(18)19)17-7-5-13-10(9-17)6-8-20-13/h1-4,6,8,14H,5,7,9H2,(H,18,19)
Instrument: LTQ Orbitrap XL Thermo Scientific
Instrument type: LC-ESI-ITFT
Ms type: MS2
Ion mode: POSITIVE
Ionization: ESI
Fragmentation mode: HCD
Collision energy: 90 % (nominal)
Resolution: 30000
Column name: XBridge C18 3.5um, 2.1x50mm, Waters
Retention time: 5.7 min
Base peak: 308.0518
Precursor m/z: 308.0507
Precursor type: [M+H]+
m/z	relative intensity	assigned
53.0386	28	C4H5+
77.0387	599	C6H5+
89.0386	14	C7H5+
95.0492	88	C6H7O+
105.0336	14	C7H5O+
105.0448	177	C6H5N2+
111.0263	10	C6H7S+
113.0153	999	C6H6Cl+
117.0572	12	C8H7N+
125.0153	989	C7H6Cl+
134.0363	67	C8H6O2+
140.0262	166	C7H7ClN+
141.0103	943	C7H6ClO+
152.0264	82	C8H7ClN+
169.0052	181	C8H6ClO2+
