Mass spectrum: Fipronil-sulfide; LC-ESI-ITFT; MS2; CE: 45%; R=7500; [M+H]+
Name: Fipronil-sulfide
Name: 5-Amino-1-[2,6-dichloro-4-(trifluoromethyl)phenyl]-4-[(trifluoromethyl)sulfanyl]-1H-pyrazole-3-carbonitrile
Formula: C12H4Cl2F6N4S
Exact mass: 419.9438
SMILES: FC(F)(F)c2cc(Cl)c(n1nc(C#N)c(SC(F)(F)F)c1N)c(Cl)c2
InChI: InChI=1S/C12H4Cl2F6N4S/c13-5-1-4(11(15,16)17)2-6(14)8(5)24-10(22)9(7(3-21)23-24)25-12(18,19)20/h1-2H,22H2
Instrument: LTQ Orbitrap XL Thermo Scientific
Instrument type: LC-ESI-ITFT
Ms type: MS2
Ion mode: POSITIVE
Ionization: ESI
Fragmentation mode: HCD
Collision energy: 45 % (nominal)
Resolution: 7500
Column name: XBridge C18 3.5um, 2.1x50mm, Waters
Retention time: 13.0 min
Base peak: 442.9332
Precursor m/z: 420.9511
Precursor type: [M+H]+
m/z	relative intensity	assigned
80.0244	13	C3H2N3+
87.0011	22	C2H3N2S+
96.9855	12	C3HN2S+
97.9932	35	C3H2N2S+
154.9882	15	C3H2F3N2S+
181.9993	12	C4H3F3N3S+
212.947	3	C2HCl2F4N3+
227.9589	5	C7H3Cl2F3N+
228.9662	12	C2H3Cl2F4N4+
237.97	12	C8H4ClF3NS+
239.9591	18	C8H3Cl2F3N+
246.004	47	C9H4ClF3N3+
251.9726	4	C8H4ClF3N2S+
254.9694	39	C9HF6S+
257.9282	17	C3H2Cl2F4N3S+
262.9649	8	C9H3ClF3N2S+
264.9807	138	C9H5ClF3N2S+
267.9766	15	C10H2F6S+
273.0134	6	C11F3N6+
274.9651	17	C10H3ClF3N2S+
282.0169	6	C11H5F3N4S+
282.9228	16	C4HCl2F4N4S+
284.0071	13	C11H4ClF3N4+
285.0149	45	C11H5ClF3N4+
289.9759	49	C10H4ClF3N3S+
292.973	5	C10H4Cl2F3N3+
315.9821	5	C11HF5N4S+
316.9866	999	C11H5ClF3N4S+
317.9909	6	C9H5ClF2N6OS+
319.9834	124	C12H2F6N2S+
335.9368	15	C11H3Cl2F3N3S+
350.9491	9	C11H4Cl2F3N4S+
351.9559	29	C11H5Cl2F3N4S+
365.9763	7	C12H4ClF5N4S+
385.9826	9	C12H5ClF6N4S+
420.9507	165	C12H5Cl2F6N4S+
