Mass spectrum: Cilastatin; LC-ESI-ITFT; MS2; CE: 30%; R=7500; [M+H]+
Name: Cilastatin
Formula: C16H26N2O5S
Exact mass: 358.1562
SMILES: [H][C@](N)(CSCCCC\C=C(/NC(=O)[C@@]1([H])CC1(C)C)C(O)=O)C(O)=O
InChI: InChI=1S/C16H26N2O5S/c1-16(2)8-10(16)13(19)18-12(15(22)23)6-4-3-5-7-24-9-11(17)14(20)21/h6,10-11H,3-5,7-9,17H2,1-2H3,(H,18,19)(H,20,21)(H,22,23)/b12-6-/t10-,11+/m1/s1
Instrument: LTQ Orbitrap XL Thermo Scientific
Instrument type: LC-ESI-ITFT
Ms type: MS2
Ion mode: POSITIVE
Ionization: ESI
Fragmentation mode: HCD
Collision energy: 30 % (nominal)
Resolution: 7500
Column name: XBridge C18 3.5um, 2.1x50mm, Waters
Retention time: 5.2 min
Base peak: 359.1645
Precursor m/z: 359.1635
Precursor type: [M+H]+
m/z	relative intensity	assigned
55.0179	14	C3H3O+
67.0542	20	C5H7+
69.0698	138	C5H9+
79.0542	110	C6H7+
96.0804	8	C6H10N+
97.0648	999	C6H9O+
98.0963	75	C6H12N+
113.0419	75	C6H9S+
114.0913	10	C6H12NO+
115.0575	24	C6H11S+
130.0684	192	C6H12NS+
142.086	21	C7H12NO2+
156.0842	69	C8H14NS+
166.0861	9	C9H12NO2+
174.0579	34	C7H12NO2S+
182.064	11	C9H12NOS+
184.0965	24	C9H14NO3+
200.0737	62	C9H14NO2S+
202.0895	323	C9H16NO2S+
217.1003	14	C9H17N2O2S+
219.1159	277	C9H19N2O2S+
226.1248	13	C10H18N4S+
238.1439	51	C13H20NO3+
245.0953	23	C10H17N2O3S+
246.0794	9	C10H16NO4S+
252.1047	7	C13H18NO2S+
263.106	47	C10H19N2O4S+
313.1571	9	C15H25N2O3S+
315.1734	35	C15H27N2O3S+
342.138	11	C16H24NO5S+
359.164	51	C16H27N2O5S+
