Mass spectrum: Hexaconazole; LC-ESI-QFT; MS2; CE: 120%; R=17500; [M+H]+
Name: Hexaconazole
Name: 2-(2,4-dichlorophenyl)-1-(1,2,4-triazol-1-yl)hexan-2-ol
Formula: C14H17Cl2N3O
Exact mass: 313.0749
SMILES: CCCCC(CN1C=NC=N1)(C2=C(C=C(C=C2)Cl)Cl)O
InChI: InChI=1S/C14H17Cl2N3O/c1-2-3-6-14(20,8-19-10-17-9-18-19)12-5-4-11(15)7-13(12)16/h4-5,7,9-10,20H,2-3,6,8H2,1H3
Instrument: Exploris 240 Orbitrap Thermo Scientific
Instrument type: LC-ESI-QFT
Ms type: MS2
Ion mode: POSITIVE
Ionization: ESI
Fragmentation mode: HCD
Collision energy: 120 % (nominal)
Resolution: 17500
Column name: XBridge C18 3.5um, 2.1x50mm, Waters
Retention time: 11.635 min
Base peak: 320.1519
Precursor m/z: 314.0821
Precursor type: [M+H]+
m/z	relative intensity	assigned
55.0542	7	C4H7+
57.0699	11	C4H9+
70.0399	999	C2H4N3+
75.0227	21	C6H3+
89.0385	48	C7H5+
98.9993	24	C5H4Cl+
99.023	10	C8H3+
115.0541	47	C9H7+
122.9994	56	C7H4Cl+
124.0073	20	C7H5Cl+
125.0151	34	C7H6Cl+
132.9608	6	C5H3Cl2+
136.0075	16	C8H5Cl+
139.0057	17	C6H4ClN2+
158.9762	63	C7H5Cl2+
