Mass spectrum: Atrazine-2-hydroxy; LC-ESI-ITFT; MS2; CE: 45%; R=7500; [M-H]-
Name: Atrazine-2-hydroxy
Name: 2-Hydroxyatrazine
Name: 2-(ethylamino)-6-(isopropylamino)-1H-s-triazin-4-one
Formula: C8H15N5O
Exact mass: 197.1277
SMILES: c1(nc(nc(n1)O)NCC)NC(C)C
InChI: InChI=1S/C8H15N5O/c1-4-9-6-11-7(10-5(2)3)13-8(14)12-6/h5H,4H2,1-3H3,(H3,9,10,11,12,13,14)
Instrument: LTQ Orbitrap XL Thermo Scientific
Instrument type: LC-ESI-ITFT
Ms type: MS2
Ion mode: NEGATIVE
Ionization: ESI
Fragmentation mode: HCD
Collision energy: 45 % (nominal)
Resolution: 7500
Column name: XBridge C18 3.5um, 2.1x50mm, Waters
Retention time: 4.5 min
Base peak: 196.1211
Precursor m/z: 196.1204
Precursor type: [M-H]-
m/z	relative intensity	assigned
83.0614	291	C4H7N2-
111.0677	110	C4H7N4-
125.0832	188	C5H9N4-
154.0736	213	C5H8N5O-
168.0885	80	C6H10N5O-
196.1206	999	C8H14N5O-
