Mass spectrum: Cefazolin; LC-ESI-QFT; MS2; CE: 45; R=35000; [M+H]+
Name: Cefazolin
Name: 3-[(5-methyl-1,3,4-thiadiazol-2-yl)sulfanylmethyl]-8-oxo-7-[[2-(tetrazol-1-yl)acetyl]amino]-5-thia-1-azabicyclo[4.2.0]oct-2-ene-2-carboxylic acid
Formula: C14H14N8O4S3
Exact mass: 454.03001
SMILES: CC1=NN=C(S1)SCC2=C(N3C(C(C3=O)NC(=O)CN4C=NN=N4)SC2)C(=O)O
InChI: InChI=1S/C14H14N8O4S3/c1-6-17-18-14(29-6)28-4-7-3-27-12-9(11(24)22(12)10(7)13(25)26)16-8(23)2-21-5-15-19-20-21/h5,9,12H,2-4H2,1H3,(H,16,23)(H,25,26)
Instrument: Q Exactive Plus Orbitrap Thermo Scientific
Instrument type: LC-ESI-QFT
Ms type: MS2
Ion mode: POSITIVE
Ionization: ESI
Fragmentation mode: HCD
Collision energy: 45 (nominal)
Resolution: 35000
Column name: XBridge C18 3.5um, 2.1x50mm, Waters
Retention time: 4.5 min
Base peak: 455.0367
Precursor m/z: 455.0373
Precursor type: [M+H]+
m/z	relative intensity	assigned
53.0385	11	C4H5+
54.0338	12	C3H4N+
55.0291	76	C2H3N2+
56.0131	1	C2H2NO+
56.0496	10	C3H6N+
57.0448	113	C2H5N2+
57.9871	5	C2H2S+
58.995	13	C2H3S+
59.9902	10	CH2NS+
62.0059	7	CH4NS+
65.0386	17	C5H5+
66.0339	14	C4H4N+
66.0464	2	C5H6+
67.0291	2	C3H3N2+
67.0417	5	C4H5N+
68.0495	116	C4H6N+
69.0448	134	C3H5N2+
69.9747	6	C2NS+
70.0287	2	C3H4NO+
70.0652	5	C4H8N+
70.995	10	C3H3S+
71.0352	38	CH3N4+
71.9903	17	C2H2NS+
72.0556	35	C2H6N3+
72.998	13	C2H3NS+
73.0107	7	C3H5S+
73.0397	5	C2H5N2O+
74.0059	33	C2H4NS+
75.0137	2	C2H5NS+
78.0339	2	C5H4N+
80.0495	144	C5H6N+
81.0448	25	C4H5N2+
81.0573	9	C5H7N+
82.0288	11	C4H4NO+
82.04	6	C3H4N3+
82.0526	15	C4H6N2+
82.0651	11	C5H8N+
82.9951	6	C4H3S+
83.024	8	C3H3N2O+
83.0478	2	C3H5N3+
83.0604	1	C4H7N2+
84.0029	6	C4H4S+
84.0318	7	C3H4N2O+
84.0444	9	C4H6NO+
84.0557	122	C3H6N3+
84.9743	14	C3HOS+
85.0107	194	C4H5S+
85.0397	95	C3H5N2O+
86.0059	31	C3H4NS+
87.0138	8	C3H5NS+
87.0264	5	C4H7S+
90.0338	9	C6H4N+
91.0417	2	C6H5N+
91.9623	2	CH2NS2+
92.0495	14	C6H6N+
93.0448	17	C5H5N2+
93.0573	11	C6H7N+
94.0285	2	C5H4NO+
94.0401	15	C4H4N3+
94.0527	2	C5H6N2+
94.0652	8	C6H8N+
95.024	6	C4H3N2O+
95.0605	57	C5H7N2+
96.0445	28	C5H6NO+
96.0557	278	C4H6N3+
97.0108	229	C5H5S+
97.0397	35	C4H5N2O+
98.006	21	C4H4NS+
98.0237	9	C4H4NO2+
98.035	7	C3H4N3O+
98.0476	22	C4H6N2O+
99.0012	29	C3H3N2S+
99.0138	60	C4H5NS+
99.0264	23	C5H7S+
100.0091	20	C3H4N2S+
100.0216	137	C4H6NS+
100.0506	248	C3H6N3O+
101.0057	10	C4H5OS+
101.0169	34	C3H5N2S+
102.0009	3	C3H4NOS+
102.0373	5	C4H8NS+
105.0449	22	C6H5N2+
106.0289	2	C6H4NO+
106.0526	45	C6H6N2+
107.0605	221	C6H7N2+
108.0445	11	C6H6NO+
108.0558	19	C5H6N3+
108.0683	164	C6H8N2+
109.0106	6	C6H5S+
109.051	2	C4H5N4+
109.0761	18	C6H9N2+
110.0059	16	C5H4NS+
110.035	27	C4H4N3O+
110.0602	10	C6H8NO+
110.0713	2	C5H8N3+
111.0012	11	C4H3N2S+
111.0138	2	C5H5NS+
111.0264	2	C6H7S+
111.0428	12	C4H5N3O+
111.0553	15	C5H7N2O+
111.0666	10	C4H7N4+
112.0216	367	C5H6NS+
112.0394	206	C5H6NO2+
112.0506	61	C4H6N3O+
113.0056	6	C5H5OS+
113.0169	42	C4H5N2S+
113.0294	24	C5H7NS+
113.0584	6	C4H7N3O+
114.001	3	C4H4NOS+
114.0119	4	C3H4N3S+
114.0247	11	C4H6N2S+
114.0373	31	C5H8NS+
116.0276	2	C3H6N3S+
117.0118	1	C3H5N2OS+
117.0449	1	C7H5N2+
118.0525	16	C7H6N2+
119.0605	122	C7H7N2+
120.0561	15	H12N2O3S+
120.0683	311	C7H8N2+
121.0398	2	C6H5N2O+
121.0633	4	C6H7N3+
121.0761	13	C7H9N2+
122.006	78	C6H4NS+
122.035	6	C5H4N3O+
122.0714	18	C6H8N3+
123.0138	17	C6H5NS+
123.0554	5	C6H7N2O+
124.0217	635	C6H6NS+
124.0507	87	C5H6N3O+
125.0057	8	C6H5OS+
125.017	9	C5H5N2S+
125.0294	7	C6H7NS+
126.0009	38	C5H4NOS+
126.0121	28	C4H4N3S+
126.0248	8	C5H6N2S+
126.0373	85	C6H8NS+
126.9961	6	C4H3N2OS+
127.02	90	C4H5N3S+
127.0325	10	C5H7N2S+
128.0168	19	C5H6NOS+
128.0278	204	C4H6N3S+
129.0007	18	C5H5O2S+
129.0118	18	C4H5N2OS+
129.0354	11	C4H7N3S+
130.0197	31	C4H6N2OS+
132.0557	26	C7H6N3+
132.989	732	C3H5N2S2+
133.0635	41	C7H7N3+
134.0713	56	C7H8N3+
135.0554	10	C7H7N2O+
135.079	5	C7H9N3+
136.0217	39	CH12O3S2+
136.0395	6	C7H6NO2+
136.0505	5	C6H6N3O+
136.087	8	C7H10N3+
137.017	25	C6H5N2S+
137.0345	3	C6H5N2O2+
138.012	2	C5H4N3S+
138.0247	3	C6H6N2S+
138.0372	4	C7H8NS+
138.0662	2	C6H8N3O+
139.0326	525	C6H7N2S+
140.0041	5	C5H4N2OS+
140.0165	47	C6H6NOS+
140.0277	28	C5H6N3S+
140.0403	10	C6H8N2S+
140.0456	14	C5H6N3O2+
141.0118	6	C5H5N2OS+
141.0482	114	C6H9N2S+
142.0323	11	C6H8NOS+
144.0115	53	C5H6NO2S+
145.0637	17	C8H7N3+
146.0715	23	C8H8N3+
147.0667	16	C7H7N4+
147.0792	44	C8H9N3+
148.0508	9	C7H6N3O+
148.0632	8	C8H8N2O+
148.0745	8	C7H8N4+
149.0171	18	C7H5N2S+
149.0824	20	C7H9N4+
150.0011	2	C7H4NOS+
150.0246	10	C7H6N2S+
150.0663	6	C7H8N3O+
151.0326	303	C7H7N2S+
151.0501	19	C7H7N2O2+
152.0166	91	C7H6NOS+
153.0482	377	C7H9N2S+
154.0072	15	C5H4N3OS+
154.0325	5	C7H8NOS+
154.0433	9	C6H8N3S+
155.0148	10	C5H5N3OS+
155.0275	7	C6H7N2OS+
156.0115	999	C6H6NO2S+
157.0194	67	C6H7NO2S+
157.0303	32	C5H7N3OS+
158.0272	44	C6H8NO2S+
159.0221	1	C5H7N2O2S+
159.0666	2	C8H7N4+
160.0507	5	C8H6N3O+
160.0743	2	C8H8N4+
161.0823	80	C8H9N4+
162.0663	33	C8H8N3O+
162.0902	33	C8H10N4+
163.0326	43	C8H7N2S+
163.0741	8	C8H9N3O+
164.0166	5	C8H6NOS+
164.0278	26	C7H6N3S+
164.0583	6	C8H8N2O2+
164.082	5	C8H10N3O+
165.0117	9	C7H5N2OS+
165.0357	9	C7H7N3S+
166.0435	238	C7H8N3S+
167.0276	72	C7H7N2OS+
168.0115	49	C7H6NO2S+
168.0228	7	C6H6N3OS+
168.0591	12	C7H10N3S+
169.0431	7	C7H9N2OS+
170.0271	2	C7H8NO2S+
172.0507	2	C9H6N3O+
173.0585	7	C9H7N3O+
175.0615	3	C8H7N4O+
176.0457	1	C8H6N3O2+
176.0692	1	C8H8N4O+
177.0119	6	C8H5N2OS+
177.0769	5	C8H9N4O+
178.0435	179	C8H8N3S+
179.0275	48	C8H7N2OS+
180.0591	65	C8H10N3S+
181.0431	16	C2H15NO4S2+
182.0385	11	C7H8N3OS+
183.0222	7	C7H7N2O2S+
184.018	2	C14H2N+
185.0379	7	C7H9N2O2S+
189.0773	15	C9H9N4O+
190.085	14	C9H10N4O+
192.0228	29	C8H6N3OS+
193.0069	22	C8H5N2O2S+
193.0545	26	C8H9N4S+
194.0383	11	C8H8N3OS+
195.0225	45	C8H7N2O2S+
195.0699	2	C8H11N4S+
196.0541	7	C8H10N3OS+
197.0382	21	C8H9N2O2S+
205.072	8	C9H9N4O2+
206.0284	2	C3H8N7S2+
206.0385	36	C9H8N3OS+
207.0224	26	C9H7N2O2S+
208.0541	23	C9H10N3OS+
210.0334	31	C8H8N3O2S+
221.0492	9	C9H9N4OS+
222.0336	3	C9H8N3O2S+
223.0647	5	C9H11N4OS+
224.0488	2	C9H10N3O2S+
225.0327	1	C2H9N8OS2+
233.0668	4	C10H9N4O3+
234.034	1	C12H10O3S+
252.044	47	C10H10N3O3S+
