Mass spectrum: 1-[(4-Chlorophenyl)phenylmethyl]piperazine; LC-ESI-QFT; MS2; CE: 90; R=35000; [M+H]+
Name: 1-[(4-Chlorophenyl)phenylmethyl]piperazine
Name: Norchlorcyclizine
Name: 1-(4-Chlorobenzhydryl) piperazine
Formula: C17H19ClN2
Exact mass: 286.12368
SMILES: C1CN(CCN1)C(C2=CC=CC=C2)C3=CC=C(C=C3)Cl
InChI: InChI=1S/C17H19ClN2/c18-16-8-6-15(7-9-16)17(14-4-2-1-3-5-14)20-12-10-19-11-13-20/h1-9,17,19H,10-13H2
Instrument: Q Exactive Plus Orbitrap Thermo Scientific
Instrument type: LC-ESI-QFT
Ms type: MS2
Ion mode: POSITIVE
Ionization: ESI
Fragmentation mode: HCD
Collision energy: 90 (nominal)
Resolution: 35000
Column name: XBridge C18 3.5um, 2.1x50mm, Waters
Retention time: 9.0 min
Base peak: 287.1308
Precursor m/z: 287.131
Precursor type: [M+H]+
m/z	relative intensity	assigned
63.0228	1	C5H3+
98.9996	2	C5H4Cl+
115.0542	5	C9H7+
139.0543	3	C11H7+
152.0622	1	C12H8+
163.0537	2	C13H7+
164.0621	12	C13H8+
165.07	999	C13H9+
166.0777	447	C13H10+
168.0569	3	C9H11ClN+
183.081	1	C10H14ClN+
186.023	1	C12H7Cl+
193.0761	2	C13H9N2+
196.0517	1	C10H11ClNO+
199.031	19	C13H8Cl+
201.0466	5	C13H10Cl+
