Mass spectrum: Azinphos-ethyl; LC-ESI-QFT; MS2; CE: 180; R=35000; [M+H]+
Name: Azinphos-ethyl
Name: Azinphos ethyl
Name: 3-(diethoxyphosphinothioylsulfanylmethyl)-1,2,3-benzotriazin-4-one
Formula: C12H16N3O3PS2
Exact mass: 345.03707
SMILES: CCOP(=S)(OCC)SCN1C(=O)C2=CC=CC=C2N=N1
InChI: InChI=1S/C12H16N3O3PS2/c1-3-17-19(20,18-4-2)21-9-15-12(16)10-7-5-6-8-11(10)13-14-15/h5-8H,3-4,9H2,1-2H3
Instrument: Q Exactive Plus Orbitrap Thermo Scientific
Instrument type: LC-ESI-QFT
Ms type: MS2
Ion mode: POSITIVE
Ionization: ESI
Fragmentation mode: HCD
Collision energy: 180 (nominal)
Resolution: 35000
Column name: XBridge C18 3.5um, 2.1x50mm, Waters
Retention time: 11.4 min
Base peak: 346.0438
Precursor m/z: 346.0443
Precursor type: [M+H]+
m/z	relative intensity	assigned
50.0152	628	C4H2+
51.023	999	C4H3+
52.0182	17	C3H2N+
52.0308	14	C4H4+
53.0023	35	C3HO+
53.0387	24	C4H5+
53.9975	2	C2NO+
57.9872	5	C2H2S+
59.9666	3	COS+
62.0151	16	C5H2+
62.9453	28	PS+
63.023	45	C5H3+
64.0307	2	C5H4+
64.9788	623	H2O2P+
65.0386	158	C5H5+
66.0101	23	C4H2O+
66.0464	3	C5H6+
68.9794	186	C3HS+
74.0151	102	C6H2+
75.023	68	C6H3+
76.0182	37	C5H2N+
76.0307	15	C6H4+
77.0386	65	C6H5+
78.9403	79	OPS+
78.9943	4	CH4O2P+
81.9872	33	C4H2S+
82.9894	3	H4O3P+
95.0492	76	C6H7O+
96.951	21	H2O2PS+
98.9843	29	H4O4P+
105.0448	55	C6H5N2+
114.9614	162	H4O3PS+
