Mass spectrum: Ditalimfos; LC-ESI-QFT; MS2; CE: 180%; R=17500; [M+H]+
Name: Ditalimfos
Name: 2-diethoxyphosphinothioylisoindole-1,3-dione
Formula: C12H14NO4PS
Exact mass: 299.0381
SMILES: CCOP(=S)(N1C(=O)C2=CC=CC=C2C1=O)OCC
InChI: InChI=1S/C12H14NO4PS/c1-3-16-18(19,17-4-2)13-11(14)9-7-5-6-8-10(9)12(13)15/h5-8H,3-4H2,1-2H3
Instrument: Exploris 240 Orbitrap Thermo Scientific
Instrument type: LC-ESI-QFT
Ms type: MS2
Ion mode: POSITIVE
Ionization: ESI
Fragmentation mode: HCD
Collision energy: 180 % (nominal)
Resolution: 17500
Column name: XBridge C18 3.5um, 2.1x50mm, Waters
Retention time: 9.578 min
Base peak: 170.0964
Precursor m/z: 300.0454
Precursor type: [M+H]+
m/z	relative intensity	assigned
50.0152	82	C4H2+
51.0229	502	C4H3+
52.0183	53	C3H2N+
64.9787	127	H2O2P+
65.0385	17	C5H5+
75.023	999	C6H3+
76.0182	417	C5H2N+
78.034	11	C5H4N+
78.9401	69	OPS+
96.9507	43	H2O2PS+
102.0338	396	C7H4N+
114.9615	10	H4O3PS+
120.0448	41	C7H6NO+
