Mass spectrum: Fenpiclonil; LC-ESI-QFT; MS2; CE: 90%; R=17500; [M-H]-
Name: Fenpiclonil
Name: 4-(2,3-dichlorophenyl)-1H-pyrrole-3-carbonitrile
Formula: C11H6Cl2N2
Exact mass: 235.9908
SMILES: C1=CC(=C(C(=C1)Cl)Cl)C2=CNC=C2C#N
InChI: InChI=1S/C11H6Cl2N2/c12-10-3-1-2-8(11(10)13)9-6-15-5-7(9)4-14/h1-3,5-6,15H
Instrument: Exploris 240 Orbitrap Thermo Scientific
Instrument type: LC-ESI-QFT
Ms type: MS2
Ion mode: NEGATIVE
Ionization: ESI
Fragmentation mode: HCD
Collision energy: 90 % (nominal)
Resolution: 17500
Column name: XBridge C18 3.5um, 2.1x50mm, Waters
Retention time: 8.134 min
Base peak: 234.9835
Precursor m/z: 234.9835
Precursor type: [M-H]-
m/z	relative intensity	assigned
89.0144	38	C5HN2-
115.0301	194	C7H3N2-
136.0194	64	C10H2N-
148.9914	145	C7H2ClN2-
163.0301	999	C11H3N2-
171.9959	83	C10H3ClN-
199.0067	383	C11H4ClN2-
234.9836	102	C11H5Cl2N2-
