Mass spectrum: Prothioconazole-desethio; LC-ESI-QFT; MS2; CE: 30; R=35000; [M+H]+
Name: Prothioconazole-desethio
Name: 1H-1,2,4-Triazole-1-ethanol, alpha-(1-chlorocyclopropyl)-alpha-((2-chlorophenyl)methyl)-
Name: 2-(1-chloranylcyclopropyl)-1-(2-chlorophenyl)-3-(1,2,4-triazol-1-yl)propan-2-ol
Formula: C14H15Cl2N3O
Exact mass: 311.05922
SMILES: Clc1ccccc1CC(O)(C2(Cl)CC2)Cn3ncnc3
InChI: InChI=1S/C14H15Cl2N3O/c15-12-4-2-1-3-11(12)7-14(20,13(16)5-6-13)8-19-10-17-9-18-19/h1-4,9-10,20H,5-8H2
Instrument: Q Exactive Orbitrap Thermo Scientific
Instrument type: LC-ESI-QFT
Ms type: MS2
Ion mode: POSITIVE
Ionization: ESI
Fragmentation mode: HCD
Collision energy: 30 (nominal)
Resolution: 35000
Column name: XBridge C18 3.5um, 2.1x50mm, Waters
Retention time: 12.1 min
Base peak: 312.0669
Precursor m/z: 312.0665
Precursor type: [M+H]+
m/z	relative intensity	assigned
65.0387	1	C5H5+
67.0543	2	C5H7+
70.04	909	C2H4N3+
83.0491	3	C5H7O+
101.0153	2	C5H6Cl+
103.031	1	C5H8Cl+
113.0153	4	C6H6Cl+
125.0152	192	C7H6Cl+
139.0309	16	C8H8Cl+
142.0778	2	C11H10+
143.0856	1	C11H11+
144.0934	2	C11H12+
149.0153	2	C9H6Cl+
151.031	16	C9H8Cl+
153.0699	7	C12H9+
154.0777	9	C12H10+
155.0259	3	C8H8ClO+
158.9764	5	C7H5Cl2+
163.0308	4	C10H8Cl+
165.0466	3	C10H10Cl+
177.0466	9	C11H10Cl+
179.0621	5	C11H12Cl+
189.0467	39	C12H10Cl+
196.9921	3	C10H7Cl2+
225.0231	6	C12H11Cl2+
294.0562	1	C14H14Cl2N3+
312.0666	999	C14H16Cl2N3O+
