Mass spectrum: Tilidine; LC-ESI-QFT; MS2; CE: 45; R=35000; [M+H]+
Name: Tilidine
Name: ethyl (2R)-2-(dimethylamino)-1-phenylcyclohex-3-ene-1-carboxylate
Formula: C17H23NO2
Exact mass: 273.17288
SMILES: O=C(OCC)C2(c1ccccc1)[C@@H](\C=C/CC2)N(C)C
InChI: InChI=1S/C17H23NO2/c1-4-20-16(19)17(14-10-6-5-7-11-14)13-9-8-12-15(17)18(2)3/h5-8,10-12,15H,4,9,13H2,1-3H3/t15-,17?/m1/s1
Instrument: Q Exactive Orbitrap Thermo Scientific
Instrument type: LC-ESI-QFT
Ms type: MS2
Ion mode: POSITIVE
Ionization: ESI
Fragmentation mode: HCD
Collision energy: 45 (nominal)
Resolution: 35000
Column name: XBridge C18 3.5um, 2.1x50mm, Waters
Retention time: 5.2 min
Base peak: 274.1803
Precursor m/z: 274.1802
Precursor type: [M+H]+
m/z	relative intensity	assigned
67.0542	1	C5H7+
73.0284	1	C3H5O2+
77.0384	6	C6H5+
79.0542	26	C6H7+
83.0491	3	C5H7O+
91.0542	52	C7H7+
95.0491	5	C6H7O+
98.0963	1	C6H12N+
103.0542	2	C8H7+
105.0335	9	C7H5O+
105.0699	1	C8H9+
107.0491	1	C7H7O+
111.0805	3	C7H11O+
115.0542	4	C9H7+
117.0697	1	C9H9+
119.0855	20	C9H11+
123.044	6	C7H7O2+
128.062	3	C10H8+
129.0698	33	C10H9+
135.0444	1	C8H7O2+
135.0804	1	C9H11O+
141.0699	2	C11H9+
142.0778	1	C11H10+
143.0854	5	C11H11+
145.1012	2	C11H13+
151.0753	1	C9H11O2+
153.07	11	C12H9+
154.0782	5	C12H10+
155.0856	999	C12H11+
156.0932	12	C12H12+
157.101	14	C12H13+
165.0699	5	C13H9+
173.0598	10	C11H9O2+
173.096	8	C12H13O+
183.0804	22	C13H11O+
201.091	4	C13H13O2+
201.1268	1	C14H17O+
229.1223	1	C15H17O2+
