Mass spectrum: Phenylbutazone; LC-ESI-QFT; MS2; CE: 60; R=35000; [M+H]+
Name: Phenylbutazone
Name: 4-butyl-1,2-diphenylpyrazolidine-3,5-dione
Formula: C19H20N2O2
Exact mass: 308.15248
SMILES: CCCCC1C(=O)N(N(C1=O)C2=CC=CC=C2)C3=CC=CC=C3
InChI: InChI=1S/C19H20N2O2/c1-2-3-14-17-18(22)20(15-10-6-4-7-11-15)21(19(17)23)16-12-8-5-9-13-16/h4-13,17H,2-3,14H2,1H3
Instrument: Q Exactive Plus Orbitrap Thermo Scientific
Instrument type: LC-ESI-QFT
Ms type: MS2
Ion mode: POSITIVE
Ionization: ESI
Fragmentation mode: HCD
Collision energy: 60 (nominal)
Resolution: 35000
Column name: XBridge C18 3.5um, 2.1x50mm, Waters
Retention time: 11.3 min
Base peak: 309.1591
Precursor m/z: 309.1598
Precursor type: [M+H]+
m/z	relative intensity	assigned
50.0151	4	C4H2+
51.0227	6	C4H3+
53.0023	5	C3HO+
53.0386	71	C4H5+
53.9975	1	C2NO+
54.0339	2	C3H4N+
55.0179	127	C3H3O+
55.0543	20	C4H7+
56.0495	7	C3H6N+
57.0699	38	C4H9+
63.0228	1	C5H3+
65.0386	551	C5H5+
66.0463	1	C5H6+
67.0542	29	C5H7+
67.9893	3	C3O2+
68.0131	4	C3H2NO+
68.0495	1	C4H6N+
69.0699	106	C5H9+
71.0856	7	C5H11+
77.0385	174	C6H5+
79.0542	31	C6H7+
80.0494	1	C5H6N+
80.0621	1	C6H8+
81.0335	9	C5H5O+
81.0699	1	C6H9+
82.0652	4	C5H8N+
83.0491	6	C5H7O+
84.0808	1	C5H10N+
91.0414	1	C6H5N+
91.0543	19	C7H7+
92.0495	999	C6H6N+
93.0336	200	C6H5O+
93.0574	139	C6H7N+
94.0414	61	C6H6O+
94.0652	429	C6H8N+
95.0492	276	C6H7O+
96.0808	7	C6H10N+
97.0649	25	C6H9O+
97.0887	3	C6H11N+
103.0543	3	C8H7+
104.0495	195	C7H6N+
105.0336	49	C7H5O+
105.0448	169	C6H5N2+
106.0652	279	C7H8N+
107.0492	12	C7H7O+
108.0444	1	C6H6NO+
109.065	1	C7H9O+
111.0441	61	C6H7O2+
115.0544	1	C9H7+
116.0497	3	C8H6N+
117.0573	31	C8H7N+
117.0699	5	C9H9+
118.0652	57	C8H8N+
119.0366	3	C7H5NO+
119.073	15	C8H9N+
120.0445	481	C7H6NO+
124.0758	2	C7H10NO+
125.0599	4	C7H9O2+
128.0495	12	C9H6N+
128.0621	3	C10H8+
129.0699	1	C10H9+
130.0652	73	C9H8N+
131.0603	4	C8H7N2+
131.073	24	C9H9N+
132.0445	221	C8H6NO+
132.0809	28	C9H10N+
133.0398	26	C7H5N2O+
133.0523	191	C8H7NO+
134.0476	4	C7H6N2O+
134.0601	48	C8H8NO+
134.0964	7	C9H12N+
135.0555	1	C7H7N2O+
143.0731	12	C10H9N+
143.0857	1	C11H11+
144.0446	10	C9H6NO+
144.0809	13	C10H10N+
145.0763	1	C9H9N2+
145.0887	15	C10H11N+
145.1011	3	C11H13+
146.0601	164	C9H8NO+
147.0678	8	C9H9NO+
148.0757	9	C9H10NO+
148.1121	15	C10H14N+
154.0658	1	C11H8N+
156.0444	1	C10H6NO+
156.0808	4	C11H10N+
157.0887	2	C11H11N+
158.0599	3	C10H8NO+
158.0966	3	C11H12N+
159.0552	1	C9H7N2O+
159.068	10	C10H9NO+
160.0633	12	C9H8N2O+
160.0757	11	C10H10NO+
160.1122	207	C11H14N+
162.055	18	C9H8NO2+
162.1278	42	C11H16N+
166.0652	28	C12H8N+
167.0731	9	C12H9N+
168.0809	18	C12H10N+
169.0891	4	C12H11N+
170.0602	1	C11H8NO+
170.0965	3	C12H12N+
172.0751	1	C11H10NO+
172.1122	7	C12H14N+
173.0711	3	C10H9N2O+
173.0837	3	C11H11NO+
174.055	42	C10H8NO2+
180.0809	4	C13H10N+
182.084	57	C12H10N2+
182.0967	3	C13H12N+
183.068	3	C12H9NO+
183.0918	11	C12H11N2+
184.0756	6	C12H10NO+
186.0915	3	C12H12NO+
188.1071	43	C12H14NO+
190.1227	22	C12H16NO+
193.076	1	C13H9N2+
194.0602	32	C13H8NO+
195.0917	1	C13H11N2+
200.1067	1	C13H14NO+
206.0842	1	C14H10N2+
207.0917	24	C14H11N2+
208.0763	2	C14H10NO+
208.0998	18	C14H12N2+
210.0791	1	C13H10N2O+
211.0867	106	C13H11N2O+
212.0706	1	C13H10NO2+
216.101	1	C13H14NO2+
219.0914	3	C15H11N2+
221.1073	4	C15H13N2+
224.0939	1	C14H12N2O+
233.1077	6	C16H13N2+
234.0791	1	C15H10N2O+
234.115	1	C16H14N2+
235.0867	3	C15H11N2O+
253.0972	2	C15H13N2O2+
