Mass spectrum: S-Methoprene; LC-ESI-QFT; MS2; CE: 15%; R=17500; [M+H]+
Name: S-Methoprene
Name: (+)-Methoprene;(7S)-Methoprene;ZR 2458
Name: propan-2-yl 11-methoxy-3,7,11-trimethyldodeca-2,4-dienoate
Formula: C19H34O3
Exact mass: 310.2508
SMILES: CC(C)OC(=O)C=C(C)C=CCC(C)CCCC(C)(C)OC
InChI: InChI=1S/C19H34O3/c1-15(2)22-18(20)14-17(4)11-8-10-16(3)12-9-13-19(5,6)21-7/h8,11,14-16H,9-10,12-13H2,1-7H3
Instrument: Exploris 240 Orbitrap Thermo Scientific
Instrument type: LC-ESI-QFT
Ms type: MS2
Ion mode: POSITIVE
Ionization: ESI
Fragmentation mode: HCD
Collision energy: 15 % (nominal)
Resolution: 17500
Column name: XBridge C18 3.5um, 2.1x50mm, Waters
Retention time: 16.124 min
Base peak: 279.2317
Precursor m/z: 311.2581
Precursor type: [M+H]+
m/z	relative intensity	assigned
81.0702	17	C6H9+
95.0857	33	C7H11+
97.1013	29	C7H13+
109.1014	32	C8H13+
123.1172	19	C9H15+
125.0598	17	C7H9O2+
127.0755	28	C7H11O2+
135.117	34	C10H15+
137.1325	121	C10H17+
155.1066	29	C9H15O2+
163.112	15	C11H15O+
167.1069	20	C10H15O2+
177.1637	78	C13H21+
181.1227	52	C11H17O2+
191.1794	999	C14H23+
201.1643	23	C15H21+
219.1744	349	C15H23O+
237.1849	431	C15H25O2+
