Mass spectrum: Cyanophos; LC-ESI-QFT; MS2; CE: 90%; R=17500; [M+H]+
Name: Cyanophos
Name: 4-dimethoxyphosphinothioyloxybenzonitrile
Formula: C9H10NO3PS
Exact mass: 243.0119
SMILES: COP(=S)(OC)OC1=CC=C(C=C1)C#N
InChI: InChI=1S/C9H10NO3PS/c1-11-14(15,12-2)13-9-5-3-8(7-10)4-6-9/h3-6H,1-2H3
Instrument: Exploris 240 Orbitrap Thermo Scientific
Instrument type: LC-ESI-QFT
Ms type: MS2
Ion mode: POSITIVE
Ionization: ESI
Fragmentation mode: HCD
Collision energy: 90 % (nominal)
Resolution: 17500
Column name: XBridge C18 3.5um, 2.1x50mm, Waters
Retention time: 6.931 min
Base peak: 244.0192
Precursor m/z: 244.0192
Precursor type: [M+H]+
m/z	relative intensity	assigned
51.023	36	C4H3+
62.0184	96	C2H6S+
62.9454	21	PS+
76.0181	20	C5H2N+
78.9944	999	CH4O2P+
90.034	137	C6H4N+
91.0416	84	C6H5N+
93.0099	26	C2H6O2P+
97.0051	18	CH6O3P+
102.0338	176	C7H4N+
106.9952	57	C2H6NPS+
109.0049	103	C2H6O3P+
119.0368	25	C7H5NO+
124.982	321	C2H6O2PS+
132.9981	24	C7H3NS+
134.0059	601	C7H4NS+
135.0134	82	C7H5NS+
142.9929	131	C2H8O3PS+
179.9672	123	C7H3NOPS+
