Mass spectrum: Fenthion Oxon Sulfone; LC-ESI-QFT; MS2; CE: 120%; R=17500; [M+H]+
Name: Fenthion Oxon Sulfone
Name: dimethyl (3-methyl-4-methylsulfonylphenyl) phosphate
Formula: C10H15O6PS
Exact mass: 294.0327
SMILES: CC1=C(C=CC(=C1)OP(=O)(OC)OC)S(=O)(=O)C
InChI: InChI=1S/C10H15O6PS/c1-8-7-9(16-17(11,14-2)15-3)5-6-10(8)18(4,12)13/h5-7H,1-4H3
Instrument: Exploris 240 Orbitrap Thermo Scientific
Instrument type: LC-ESI-QFT
Ms type: MS2
Ion mode: POSITIVE
Ionization: ESI
Fragmentation mode: HCD
Collision energy: 120 % (nominal)
Resolution: 17500
Column name: XBridge C18 3.5um, 2.1x50mm, Waters
Retention time: 4.335 min
Base peak: 295.0397
Precursor m/z: 295.04
Precursor type: [M+H]+
m/z	relative intensity	assigned
50.0152	32	C4H2+
51.023	155	C4H3+
52.031	21	C4H4+
53.0387	97	C4H5+
63.0229	103	C5H3+
64.0307	48	C5H4+
64.9788	83	H2O2P+
65.0385	674	C5H5+
66.0465	71	C5H6+
67.0542	38	C5H7+
77.0386	533	C6H5+
78.0464	999	C6H6+
78.9943	191	CH4O2P+
79.0178	31	C5H3O+
79.0542	148	C6H7+
89.0385	707	C7H5+
90.0465	112	C7H6+
91.0542	652	C7H7+
93.0698	69	C7H9+
94.9895	43	CH4O3P+
95.049	131	C6H7O+
103.0542	652	C8H7+
107.0492	157	C7H7O+
108.0573	33	C7H8O+
112.9998	42	CH6O4P+
121.0646	22	C8H9O+
127.0154	246	C2H8O4P+
