Mass spectrum: Sulfentrazon; LC-ESI-QFT; MS2; CE: 90; R=35000; [M-H]-
Name: Sulfentrazon
Name: N-(2,4-dichloro-5-(4-(difluoromethyl)-4,5-dihydro-3-methyl-5-oxo-1H-1,2,4-triazol-1-yl)phenyl)methanesulfonamide
Name: N-[2,4-dichloro-5-[4-(difluoromethyl)-3-methyl-5-oxo-1,2,4-triazol-1-yl]phenyl]methanesulfonamide
Formula: C11H10Cl2F2N4O3S
Exact mass: 385.98187
SMILES: O=S(=O)(Nc2c(Cl)cc(Cl)c(N1/N=C(\N(C1=O)C(F)F)C)c2)C
InChI: InChI=1S/C11H10Cl2F2N4O3S/c1-5-16-19(11(20)18(5)10(14)15)9-4-8(17-23(2,21)22)6(12)3-7(9)13/h3-4,10,17H,1-2H3
Instrument: Q Exactive Plus Orbitrap Thermo Scientific
Instrument type: LC-ESI-QFT
Ms type: MS2
Ion mode: NEGATIVE
Ionization: ESI
Fragmentation mode: HCD
Collision energy: 90 (nominal)
Resolution: 35000
Column name: XBridge C18 3.5um, 2.1x50mm, Waters
Retention time: 7.5 min
Base peak: 384.9745
Precursor m/z: 384.9746
Precursor type: [M-H]-
m/z	relative intensity	assigned
50.0036	43	C3N-
63.9625	194	O2S-
65.0146	23	C3HN2-
65.9986	15	C3NO-
70.9462	142	Cl2H-
71.0052	160	C2FN2-
74.0037	81	C5N-
76.9704	189	CHO2S-
78.986	65	CH3O2S-
80.0143	63	C4H2NO-
82.0411	125	C3H4N3-
87	87	C2FN2O-
88.0067	46	C5N2-
88.0193	61	C6H2N-
89.0146	33	C5HN2-
89.9986	25	C5NO-
90.035	7	C6H4N-
91.0113	15	C2HF2N2-
98.0037	9	C7N-
100.0067	230	C6N2-
101.0145	154	C6HN2-
108.0203	9	C4H2N3O-
112.0068	48	C7N2-
113.0146	19	C7HN2-
114.0099	20	C6N3-
114.0223	4	C7H2N2-
115.0177	6	C6HN3-
115.0302	5	C7H3N2-
116.0255	7	C6H2N3-
117.046	50	C7H5N2-
119.0052	15	ClH8N2OS-
121.9804	4	C6HClN-
123.9961	32	C6H3ClN-
124.0068	4	C8N2-
126.0098	250	C7N3-
127.9911	9	F2N3O3-
128.0266	163	C4H3FN3O-
131.0052	21	CH8ClN2OS-
134.9756	96	C6ClN2-
139.0175	5	C8HN3-
140.0255	95	C8H2N3-
142.041	24	C8H4N3-
145.0081	5	C7FN3-
146.0159	9	C7HFN3-
146.9755	16	C7ClN2-
147.9958	6	C3H2ClFN4-
148.0328	14	C4H4F2N3O-
148.9914	28	C7H2ClN2-
151.0069	83	C7H4ClN2-
152.0147	80	C7H5ClN2-
153.0226	193	C7H6ClN2-
155.0364	6	C8H3N4-
157.9571	17	C6H2Cl2N-
160.9787	7	C7ClN3-
161.9866	62	C7HClN3-
162.9704	4	C7ClN2O-
163.9782	23	C7HClN2O-
164.9861	80	C7H2ClN2O-
165.0207	18	C9HN4-
166.9818	119	CH9Cl2N2OS-
168.0204	22	C9H2N3O-
171.9603	36	C6H2Cl2N2-
173.9863	6	C8HClN3-
175.0186	5	C8H2FN3O-
176.0022	50	C8H3ClN3-
176.9861	9	C8H2ClN2O-
177.9814	22	C7HClN3O-
178.0176	16	C8H5ClN3-
179.9427	5	C5HCl2FNO-
179.9972	33	C7H3ClN3O-
182.9521	40	C7HCl2N2-
185.0261	4	C9H2FN4-
185.9513	4	C2HCl2FN4O-
189.9815	176	C8HClN3O-
196.9555	19	C7HCl2N3-
198.9472	999	C7HCl2N2O-
199.9546	7	C7H2Cl2N2O-
200.963	53	C7H3Cl2N2O-
202.9814	8	C7H6ClNO2S-
203.9974	32	
212.9625	27	
225.9583	62	C8H2Cl2N3O-
231.0001	17	C8H8ClN2O2S-
239.9739	32	C9H4Cl2N3O-
