Mass spectrum: Nitrazepam; LC-ESI-QFT; MS2; CE: 180; R=35000; [M-H]-
Name: Nitrazepam
Name: 7-nitro-5-phenyl-1,3-dihydro-1,4-benzodiazepin-2-one
Formula: C15H11N3O3
Exact mass: 281.08004
SMILES: C1C(=O)NC2=C(C=C(C=C2)[N+](=O)[O-])C(=N1)C3=CC=CC=C3
InChI: InChI=1S/C15H11N3O3/c19-14-9-16-15(10-4-2-1-3-5-10)12-8-11(18(20)21)6-7-13(12)17-14/h1-8H,9H2,(H,17,19)
Instrument: Q Exactive Plus Orbitrap Thermo Scientific
Instrument type: LC-ESI-QFT
Ms type: MS2
Ion mode: NEGATIVE
Ionization: ESI
Fragmentation mode: HCD
Collision energy: 180 (nominal)
Resolution: 35000
Column name: XBridge C18 3.5um, 2.1x50mm, Waters
Retention time: 7.7 min
Base peak: 280.0723
Precursor m/z: 280.0728
Precursor type: [M-H]-
m/z	relative intensity	assigned
50.0036	442	C3N-
64.0193	162	C4H2N-
65.0033	29	C4HO-
65.0145	40	C3HN2-
65.9986	255	C3NO-
76.0193	44	C5H2N-
90.0348	414	C6H4N-
101.0396	999	C8H5-
113.0397	399	C9H5-
115.0554	433	C9H7-
125.0398	139	C10H5-
129.0346	35	C9H5O-
138.035	26	C10H4N-
141.0348	36	C10H5O-
164.0505	45	C12H6N-
166.066	37	C12H8N-
