Mass spectrum: Spirotetramat Metabolite BYI08330 Enol-Glucoside; LC-ESI-QFT; MS2; CE: 45%; R=17500; [M+H]+
Name: Spirotetramat Metabolite BYI08330 Enol-Glucoside
Name: 3-(2,5-dimethylphenyl)-8-methoxy-4-[3,4,5-trihydroxy-6-(hydroxymethyl)oxan-2-yl]oxy-1-azaspiro[4.5]dec-3-en-2-one
Formula: C24H33NO8
Exact mass: 463.2206
SMILES: CC1=CC(=C(C=C1)C)C2=C(C3(CCC(CC3)OC)NC2=O)OC4C(C(C(C(O4)CO)O)O)O
InChI: InChI=1S/C24H33NO8/c1-12-4-5-13(2)15(10-12)17-21(24(25-22(17)30)8-6-14(31-3)7-9-24)33-23-20(29)19(28)18(27)16(11-26)32-23/h4-5,10,14,16,18-20,23,26-29H,6-9,11H2,1-3H3,(H,25,30)
Instrument: Exploris 240 Orbitrap Thermo Scientific
Instrument type: LC-ESI-QFT
Ms type: MS2
Ion mode: POSITIVE
Ionization: ESI
Fragmentation mode: HCD
Collision energy: 45 % (nominal)
Resolution: 17500
Column name: XBridge C18 3.5um, 2.1x50mm, Waters
Retention time: 3.587 min
Base peak: 464.2275
Precursor m/z: 464.2279
Precursor type: [M+H]+
m/z	relative intensity	assigned
117.0697	5	C9H9+
155.0853	9	C12H11+
173.0593	34	C11H9O2+
183.1175	6	C14H15+
197.1331	16	C15H17+
207.1175	5	C16H15+
216.1018	226	C13H14NO2+
225.1266	21	C16H17O+
242.1539	6	C16H20NO+
253.122	62	C17H17O2+
270.1488	567	C17H20NO2+
302.1749	999	C18H24NO3+
