Mass spectrum: DDAO; LC-ESI-ITFT; MS2; CE: 60%; R=15000; [M+H]+
Name: DDAO
Name: N,N-dimethyl-1-decanamine oxide
Name: NN-Dimethyldicylamine N-oxide
Formula: C12H27NO
Exact mass: 201.2093
SMILES: N(C)(CCCCCCCCCC)(C)=O
InChI: InChI=1S/C12H27NO/c1-4-5-6-7-8-9-10-11-12-13(2,3)14/h4-12H2,1-3H3
Instrument: LTQ Orbitrap XL Thermo Scientific
Instrument type: LC-ESI-ITFT
Ms type: MS2
Ion mode: POSITIVE
Ionization: ESI
Fragmentation mode: HCD
Collision energy: 60 % (nominal)
Resolution: 15000
Column name: XBridge C18 3.5um, 2.1x50mm, Waters
Retention time: 10.4 min
Base peak: 202.2163
Precursor m/z: 202.2165
Precursor type: [M+H]+
m/z	relative intensity	assigned
57.0698	42	C4H9+
58.0651	999	C3H8N+
62.06	106	C2H8NO+
71.0854	16	C5H11+
72.0806	3	C4H10N+
85.1011	10	C6H13+
114.1275	2	C7H16N+
128.1432	3	C8H18N+
184.2057	121	C12H26N+
202.2164	257	C12H28NO+
