Mass spectrum: Flunixine; LC-ESI-QFT; MS2; CE: 180; R=35000; [M-H]-
Name: Flunixine
Name: Banamine
Name: 2-[2-methyl-3-(trifluoromethyl)anilino]pyridine-3-carboxylic acid
Formula: C14H11F3N2O2
Exact mass: 296.07726
SMILES: CC1=C(C=CC=C1NC2=C(C=CC=N2)C(=O)O)C(F)(F)F
InChI: InChI=1S/C14H11F3N2O2/c1-8-10(14(15,16)17)5-2-6-11(8)19-12-9(13(20)21)4-3-7-18-12/h2-7H,1H3,(H,18,19)(H,20,21)
Instrument: Q Exactive Plus Orbitrap Thermo Scientific
Instrument type: LC-ESI-QFT
Ms type: MS2
Ion mode: NEGATIVE
Ionization: ESI
Fragmentation mode: HCD
Collision energy: 180 (nominal)
Resolution: 35000
Column name: XBridge C18 3.5um, 2.1x50mm, Waters
Retention time: 11.0 min
Base peak: 295.0694
Precursor m/z: 295.07
Precursor type: [M-H]-
m/z	relative intensity	assigned
50.0035	999	C3N-
63.0114	40	C4HN-
63.024	115	C5H3-
64.0192	741	C4H2N-
65.0144	112	C3HN2-
66.0348	100	C4H4N-
68.9959	29	CF3-
73.0084	227	C6H-
74.0037	704	C5N-
85.0083	92	
86.0161	118	C7H2-
87.0113	126	C6HN-
87.024	29	C7H3-
88.0192	340	C6H2N-
89.0144	154	C5HN2-
90.0349	48	C6H4N-
91.03	46	C5H3N2-
93.0457	56	C5H5N2-
97.0083	244	C8H-
98.0036	276	C7N-
112.0193	323	C8H2N-
113.0271	47	C8H3N-
114.0349	432	C8H4N-
115.0301	44	C7H3N2-
132.025	59	C8H3FN-
136.0188	49	C10H2N-
138.0348	518	C10H4N-
139.0301	362	C9H3N2-
161.0265	30	C12H3N-
162.0349	327	C12H4N-
163.0302	362	C11H3N2-
165.0458	158	C11H5N2-
187.03	317	C13H3N2-
189.0457	252	C13H5N2-
