Mass spectrum: MCLY; LC-ESI-QFT; MS2; CE: 75%; R=17500; [M+H]+
Name: MCLY
Name: Microcystin LY
Name: (5R,8S,11R,12S,15S,18S,19S,22R)-15-[(4-hydroxyphenyl)methyl]-18-[(1E,3E,5S,6S)-6-methoxy-3,5-dimethyl-7-phenylhepta-1,3-dienyl]-1,5,12,19-tetramethyl-2-methylidene-8-(2-methylpropyl)-3,6,9,13,16,20,25-heptaoxo-1,4,7,10,14,17,21-heptazacyclopentacosane-11,22-dicarboxylic acid
Class: NA
Formula: C52H71N7O13
Exact mass: 1001.5110
SMILES: COC(Cc1ccccc1)C(C)\C=C(C)\C=C/C2NC(=O)C(Cc3ccc(O)cc3)NC(=O)C(C)C(NC(=O)C(CC(C)C)NC(=O)C(C)NC(=O)C(=C)N(C)C(=O)CCC(NC(=O)C2C)C(O)=O)C(O)=O
InChI: InChI=1S/C52H71N7O13/c1-28(2)24-40-50(67)58-44(52(70)71)32(6)46(63)56-41(26-36-17-19-37(60)20-18-36)49(66)54-38(21-16-29(3)25-30(4)42(72-10)27-35-14-12-11-13-15-35)31(5)45(62)55-39(51(68)69)22-23-43(61)59(9)34(8)48(65)53-33(7)47(64)57-40/h11-21,25,28,30-33,38-42,44,60H,8,22-24,26-27H2,1-7,9-10H3,(H,53,65)(H,54,66)(H,55,62)(H,56,63)(H,57,64)(H,58,67)(H,68,69)(H,70,71)/b21-16-,29-25+
Instrument: Q Exactive Plus Orbitrap Thermo Scientific
Instrument type: LC-ESI-QFT
Ms type: MS2
Ion mode: POSITIVE
Ionization: ESI
Fragmentation mode: HCD
Collision energy: 75 % (nominal)
Resolution: 17500
Column name: XBridge C18 3.5um, 2.1x50mm, Waters
Retention time: 10.738 min
Base peak: 164.9846
Precursor m/z: 1002.5183
Precursor type: [M+H]+
m/z	relative intensity	assigned
74.0236	22	C2H4NO2+
77.0384	25	C6H5+
79.0542	257	C6H7+
80.0495	54	C5H6N+
81.0699	16	C6H9+
82.0288	18	C4H4NO+
82.0651	159	C5H8N+
84.0444	199	C4H6NO+
84.0808	9	
85.0285	17	C4H5O2+
86.0601	19	C4H8NO+
86.0964	237	C5H12N+
91.0543	999	C7H7+
92.0622	6	C7H8+
93.0699	229	C7H9+
94.0652	56	C6H8N+
95.0492	236	C6H7O+
95.0855	21	C7H11+
96.0443	11	C5H6NO+
96.0806	20	C6H10N+
99.0917	128	C5H11N2+
102.0465	17	C8H6+
102.0547	19	C4H8NO2+
103.0542	881	C8H7+
105.0449	73	C6H5N2+
105.0699	543	C8H9+
106.0652	6	C7H8N+
107.0491	49	C7H7O+
107.0855	894	C8H11+
108.0682	14	C6H8N2+
108.0807	16	C7H10N+
109.0648	81	C7H9O+
110.0602	58	C6H8NO+
110.0965	10	C7H12N+
113.0234	43	C5H5O3+
113.0709	10	C5H9N2O+
115.0543	116	C9H7+
116.0621	11	C9H8+
117.0571	8	C8H7N+
117.0698	146	C9H9+
118.0653	24	C8H8N+
119.0492	178	C8H7O+
119.0603	47	C7H7N2+
119.0855	62	C9H11+
120.0573	25	C8H8O+
120.0807	20	C8H10N+
120.0934	14	C9H12+
121.076	73	C7H9N2+
121.1012	10	C9H13+
122.06	12	C7H8NO+
122.0837	11	C7H10N2+
122.0964	16	C8H12N+
123.0913	23	C7H11N2+
124.0757	11	C7H10NO+
124.1124	7	C8H14N+
127.0866	603	C6H11N2O+
128.0619	51	C10H8+
128.0707	8	C6H10NO2+
129.0698	48	C10H9+
130.0499	16	C5H8NO3+
130.0652	18	C9H8N+
130.0774	20	C10H10+
131.0855	70	C10H11+
132.0808	9	C9H10N+
133.1009	28	C10H13+
134.0968	12	C9H12N+
135.0688	10	C8H9NO+
135.0804	157	C9H11O+
135.106	7	
135.1167	129	C10H15+
136.0757	388	C8H10NO+
138.055	35	C7H8NO2+
139.0869	14	C7H11N2O+
141.07	9	C11H9+
143.085	29	C11H11+
144.0814	9	C10H10N+
145.0646	10	C10H9O+
145.1012	30	C11H13+
146.06	44	C9H8NO+
146.0969	27	C10H12N+
149.0711	71	C8H9N2O+
151.0864	5	C8H11N2O+
153.0695	6	C12H9+
155.0818	21	C7H11N2O2+
158.0967	7	C11H12N+
159.0805	12	C11H11O+
162.0553	10	C9H8NO2+
162.0914	17	C10H12NO+
162.1276	6	C11H16N+
163.1118	19	C11H15O+
165.0696	32	C13H9+
167.0816	167	C8H11N2O2+
168.0653	18	C8H10NO3+
174.0917	10	C11H12NO+
179.0858	23	H13N5O6+
180.0934	8	C14H12+
181.1013	12	C14H13+
195.0773	36	C9H11N2O3+
213.087	22	C9H13N2O4+
