Mass spectrum: Metamitron; LC-ESI-ITFT; MS2; CE: 45%; R=15000; [M+H]+
Name: Metamitron
Name: 4-Amino-4,5-dihydro-3-methyl-6-phenyl-1,2,4-triazin-5-one
Name: 4-amino-3-methyl-6-phenyl-1,2,4-triazin-5-one
Formula: C10H10N4O
Exact mass: 202.0860
SMILES: c(ccc1C(=NN=C2C)C(=O)N2N)cc1
InChI: InChI=1S/C10H10N4O/c1-7-12-13-9(10(15)14(7)11)8-5-3-2-4-6-8/h2-6H,11H2,1H3
Instrument: LTQ Orbitrap XL Thermo Scientific
Instrument type: LC-ESI-ITFT
Ms type: MS2
Ion mode: POSITIVE
Ionization: ESI
Fragmentation mode: HCD
Collision energy: 45 % (nominal)
Resolution: 15000
Column name: XBridge C18 3.5um, 2.1x50mm, Waters
Retention time: 4.9 min
Base peak: 203.093
Precursor m/z: 203.0927
Precursor type: [M+H]+
m/z	relative intensity	assigned
57.0447	13	C2H5N2+
72.0444	8	C3H6NO+
72.0557	7	C2H6N3+
77.0386	8	C6H5+
79.0543	21	C6H7+
83.024	8	C3H3N2O+
89.0386	13	C7H5+
92.0497	2	C6H6N+
100.0505	3	C3H6N3O+
104.0495	82	C7H6N+
105.0571	4	C7H7N+
106.0652	40	C7H8N+
116.0496	4	C8H6N+
118.0655	2	C8H8N+
119.0604	7	C7H7N2+
130.0652	16	C9H8N+
132.0684	3	C8H8N2+
134.0713	12	C7H8N3+
145.0397	31	C8H5N2O+
158.0597	2	C10H8NO+
158.0714	13	C9H8N3+
159.0791	6	C9H9N3+
174.0789	133	C10H10N2O+
175.098	633	C9H11N4+
186.0663	11	C10H8N3O+
187.0741	4	C10H9N3O+
203.0929	999	C10H11N4O+
