Mass spectrum: Fosinopril; LC-ESI-QFT; MS2; CE: 30; R=35000; [M-H]-
Name: Fosinopril
Name: (2S,4S)-4-cyclohexyl-1-[2-[(2-methyl-1-propanoyloxypropoxy)-(4-phenylbutyl)phosphoryl]acetyl]pyrrolidine-2-carboxylic acid
Formula: C30H46NO7P
Exact mass: 563.30119
SMILES: O=C(CP(=O)(CCCCc1ccccc1)OC(OC(=O)CC)C(C)C)N2C[C@@H](C[C@H]2C(O)=O)C3CCCCC3
InChI: InChI=1S/C30H46NO7P/c1-4-28(33)37-30(22(2)3)38-39(36,18-12-11-15-23-13-7-5-8-14-23)21-27(32)31-20-25(19-26(31)29(34)35)24-16-9-6-10-17-24/h5,7-8,13-14,22,24-26,30H,4,6,9-12,15-21H2,1-3H3,(H,34,35)/t25-,26+,30?,39?/m1/s1
Instrument: Q Exactive Orbitrap Thermo Scientific
Instrument type: LC-ESI-QFT
Ms type: MS2
Ion mode: NEGATIVE
Ionization: ESI
Fragmentation mode: HCD
Collision energy: 30 (nominal)
Resolution: 35000
Column name: XBridge C18 3.5um, 2.1x50mm, Waters
Retention time: 16.6 min
Base peak: 562.2942
Precursor m/z: 562.2939
Precursor type: [M-H]-
m/z	relative intensity	assigned
73.0295	106	C3H5O2-
97.0295	12	C5H5O2-
179.0633	2	C10H12OP-
195.0582	3	C10H12O2P-
196.1342	12	C11H18NO2-
213.0687	44	C10H14O3P-
220.1342	999	C13H18NO2-
237.0685	15	C12H14O3P-
293.0947	8	C15H18O4P-
330.1985	2	C24H26O-
372.2096	66	C22H31NO2P-
390.2206	1	C22H33NO3P-
416.1997	48	C23H31NO4P-
434.2108	1	C23H33NO5P-
