Mass spectrum: MCLW; LC-ESI-QFT; MS2; CE: 120%; R=17500; [M+H]+
Name: MCLW
Name: Microcystin LW
Name: (5R,8S,11R,12S,15S,18S,19S,22R)-15-(1H-indol-3-ylmethyl)-18-[(1E,3E,5S,6S)-6-methoxy-3,5-dimethyl-7-phenylhepta-1,3-dienyl]-1,5,12,19-tetramethyl-2-methylidene-8-(2-methylpropyl)-3,6,9,13,16,20,25-heptaoxo-1,4,7,10,14,17,21-heptazacyclopentacosane-11,22-dicarboxylic acid
Class: NA
Formula: C54H72N8O12
Exact mass: 1024.5270
SMILES: CO[C@@H](Cc1ccccc1)[C@@H](C)/C=C(C)/C=C/[C@@H]2NC(=O)[C@H](Cc3c[nH]c4ccccc34)NC(=O)[C@@H](C)[C@@H](NC(=O)[C@H](CC(C)C)NC(=O)[C@@H](C)NC(=O)C(=C)N(C)C(=O)CC[C@@H](NC(=O)[C@H]2C)C(O)=O)C(O)=O
InChI: InChI=1S/C54H72N8O12/c1-29(2)24-42-52(69)61-46(54(72)73)33(6)48(65)59-43(27-37-28-55-40-19-15-14-18-38(37)40)51(68)57-39(21-20-30(3)25-31(4)44(74-10)26-36-16-12-11-13-17-36)32(5)47(64)58-41(53(70)71)22-23-45(63)62(9)35(8)50(67)56-34(7)49(66)60-42/h11-21,25,28-29,31-34,39,41-44,46,55H,8,22-24,26-27H2,1-7,9-10H3,(H,56,67)(H,57,68)(H,58,64)(H,59,65)(H,60,66)(H,61,69)(H,70,71)(H,72,73)/b21-20+,30-25+/t31-,32-,33-,34+,39-,41+,42-,43-,44-,46+/m0/s1
Instrument: Q Exactive Plus Orbitrap Thermo Scientific
Instrument type: LC-ESI-QFT
Ms type: MS2
Ion mode: POSITIVE
Ionization: ESI
Fragmentation mode: HCD
Collision energy: 120 % (nominal)
Resolution: 17500
Column name: XBridge C18 3.5um, 2.1x50mm, Waters
Retention time: 11.761 min
Base peak: 164.9846
Precursor m/z: 1025.5342
Precursor type: [M+H]+
m/z	relative intensity	assigned
74.0237	11	C2H4NO2+
77.0385	54	C6H5+
78.0463	6	C6H6+
79.0542	289	C6H7+
80.0495	75	C5H6N+
81.0333	8	C5H5O+
81.0447	10	C4H5N2+
81.0574	5	C5H7N+
81.0699	19	C6H9+
82.0288	32	C4H4NO+
82.0651	112	C5H8N+
84.0444	148	C4H6NO+
84.0808	7	C5H10N+
85.0284	19	C4H5O2+
86.0603	13	C4H8NO+
86.0965	66	C5H12N+
89.0385	10	C7H5+
90.0461	3	C7H6+
91.0543	999	C7H7+
92.0497	5	C6H6N+
92.062	23	C7H8+
93.0574	8	C6H7N+
93.0699	117	C7H9+
94.0652	42	C6H8N+
94.0778	4	C7H10+
95.0491	492	C6H7O+
95.0854	15	
96.0444	7	C5H6NO+
96.0681	6	C5H8N2+
96.0807	7	C6H10N+
97.0758	3	C5H9N2+
99.0916	54	C5H11N2+
102.0464	36	C8H6+
102.054	4	C2H6N4O+
103.0542	939	C8H7+
104.0619	6	C8H8+
105.0448	161	C6H5N2+
105.0699	444	C8H9+
106.0524	18	C6H6N2+
106.0652	7	C7H8N+
107.0489	8	
107.0855	340	C8H11+
108.0682	18	C6H8N2+
108.0809	10	C7H10N+
109.0648	75	C7H9O+
109.076	5	C6H9N2+
110.0601	18	C6H8NO+
111.0553	21	C5H7N2O+
113.0231	38	C5H5O3+
115.0543	298	C9H7+
116.0494	10	C8H6N+
116.0621	23	C9H8+
117.0572	172	C8H7N+
117.0699	73	C9H9+
118.0651	48	C8H8N+
119.0604	55	C7H7N2+
119.0856	25	C9H11+
120.0566	13	C8H8O+
120.0807	16	C8H10N+
120.0935	13	C9H12+
121.076	87	C7H9N2+
122.0601	9	C7H8NO+
122.0839	9	C7H10N2+
122.0963	6	C8H12N+
123.0915	7	C7H11N2+
124.0758	4	C7H10NO+
127.0866	167	C6H11N2O+
128.062	74	C10H8+
129.0698	42	C10H9+
130.0652	265	C9H8N+
131.073	10	C9H9N+
131.0854	31	C10H11+
132.0808	265	C9H10N+
133.0652	4	C9H9O+
133.1011	11	C10H13+
134.0601	3	C8H8NO+
134.0963	4	C9H12N+
135.0802	16	C9H11O+
135.1168	15	C10H15+
138.0549	5	C7H8NO2+
139.0864	10	C7H11N2O+
140.0494	22	C10H6N+
141.0697	16	C11H9+
142.0651	92	C10H8N+
143.0729	32	C10H9N+
143.0853	9	C11H11+
144.0807	38	C10H10N+
145.0647	11	C10H9O+
145.0757	5	C9H9N2+
145.1012	5	C11H13+
146.0599	10	C9H8NO+
146.0965	6	C10H12N+
149.0708	23	C8H9N2O+
152.0616	5	C12H8+
153.0697	10	C12H9+
154.065	14	C11H8N+
155.0602	16	C10H7N2+
155.0727	5	C11H9N+
155.0854	4	C12H11+
156.0805	4	C11H10N+
157.0764	20	C10H9N2+
158.0837	34	C10H10N2+
158.0966	6	C11H12N+
159.0803	4	C11H11O+
159.0916	61	C10H11N2+
160.0757	33	C10H10NO+
165.07	42	C13H9+
166.0783	7	C13H10+
167.0709	5	C9H11O3+
168.0807	15	C12H10N+
169.0761	88	C11H9N2+
170.06	21	C11H8NO+
178.0778	13	C14H10+
180.0811	6	C13H10N+
182.0839	23	C12H10N2+
185.071	19	C11H9N2O+
191.0858	4	C15H11+
197.1077	7	H21O11+
202.078	5	C2H12N5O6+
206.0841	28	H12N7O6+
207.0921	9	H13N7O6+
209.1073	4	C14H13N2+
218.0969	3	C2H14N6O6+
235.0871	11	CH13N7O7+
