Mass spectrum: Ranitidine-S-oxide; LC-ESI-ITFT; MS2; CE: 15%; R=7500; [M+H]+
Name: Ranitidine-S-oxide
Name: 1,1-Ethenediamine, N-(2-(((5-((dimethylamino)methyl)-2-furanyl)methyl)sulfinyl)ethyl)-N'-methyl-2-nitro-
Formula: C13H22N4O4S
Exact mass: 330.1362
SMILES: [O-][N+](=O)\C=C(/NC)NCCS(=O)Cc1oc(cc1)CN(C)C
InChI: InChI=1S/C13H22N4O4S/c1-14-13(9-17(18)19)15-6-7-22(20)10-12-5-4-11(21-12)8-16(2)3/h4-5,9,14-15H,6-8,10H2,1-3H3/b13-9+
Instrument: LTQ Orbitrap XL Thermo Scientific
Instrument type: LC-ESI-ITFT
Ms type: MS2
Ion mode: POSITIVE
Ionization: ESI
Fragmentation mode: HCD
Collision energy: 15 % (nominal)
Resolution: 7500
Column name: XBridge C18 3.5um, 2.1x50mm, Waters
Retention time: 0.8 min
Base peak: 331.1445
Precursor m/z: 331.1435
Precursor type: [M+H]+
m/z	relative intensity	assigned
58.065	6	C3H8N+
94.0411	17	C6H6O+
95.0491	7	C6H7O+
96.0556	2	C4H6N3+
110.0965	67	C7H12N+
116.9814	2	C3HO5+
130.0559	17	C5H10N2S+
138.0913	170	C8H12NO+
139.099	6	C8H13NO+
140.1064	2	C8H14NO+
143.0161	36	C6H7O2S+
156.1018	35	C8H14NO2+
176.0488	24	C13H6N+
188.0741	46	C8H14NO2S+
192.044	7	C11H4N4+
222.0828	6	C11H14N2OS+
268.0738	5	C11H14N3O3S+
286.0854	6	C11H16N3O4S+
331.1436	999	C13H23N4O4S+
