Mass spectrum: Exemestane; LC-ESI-ITFT; MS2; CE: 35%; R=30000; [M+H]+
Name: Exemestane
Name: (8R,9S,10R,13S,14S)-10,13-dimethyl-6-methylene-7,8,9,11,12,14,15,16-octahydrocyclopenta[a]phenanthrene-3,17-dione
Formula: C20H24O2
Exact mass: 296.1776
SMILES: CC12CCC3C(C1CCC2=O)CC(=C)C4=CC(=O)C=CC34C
InChI: InChI=1S/C20H24O2/c1-12-10-14-15-4-5-18(22)20(15,3)9-7-16(14)19(2)8-6-13(21)11-17(12)19/h6,8,11,14-16H,1,4-5,7,9-10H2,2-3H3/t14-,15-,16-,19+,20-/m0/s1
Instrument: LTQ Orbitrap XL Thermo Scientific
Instrument type: LC-ESI-ITFT
Ms type: MS2
Ion mode: POSITIVE
Ionization: ESI
Fragmentation mode: CID
Collision energy: 35 % (nominal)
Resolution: 30000
Column name: XBridge C18 3.5um, 2.1x50mm, Waters
Retention time: 10.1 min
Base peak: 297.1859
Precursor m/z: 297.1849
Precursor type: [M+H]+
m/z	relative intensity	assigned
91.0543	9	C7H7+
93.0699	19	C7H9+
97.0648	13	C6H9O+
105.0699	26	C8H9+
107.0854	21	C8H11+
121.0648	43	C8H9O+
121.1012	80	C9H13+
123.1167	5	C9H15+
131.0854	33	C10H11+
133.0651	4	C9H9O+
133.1011	25	C10H13+
135.0804	60	C9H11O+
137.096	8	C9H13O+
145.0651	6	C10H9O+
145.1011	118	C11H13+
147.0804	24	C10H11O+
147.1166	21	C11H15+
149.096	345	C10H13O+
159.0804	24	C11H11O+
161.096	34	C11H13O+
161.1324	7	C12H17+
163.1117	63	C11H15O+
171.0801	10	C12H11O+
171.1167	54	C13H15+
173.0961	27	C12H13O+
175.1117	12	C12H15O+
177.1271	7	C12H17O+
185.0959	120	C13H13O+
187.1117	26	C13H15O+
189.1273	60	C13H17O+
197.0964	7	C14H13O+
199.1115	12	C14H15O+
201.1273	106	C14H17O+
209.0959	7	C15H13O+
211.1112	9	C15H15O+
215.1066	8	C14H15O2+
223.1117	28	C16H15O+
225.1273	8	C16H17O+
227.1429	12	C16H19O+
237.1272	35	C17H17O+
239.1429	56	C17H19O+
251.1431	24	C18H19O+
253.1584	26	C18H21O+
255.1377	20	C17H19O2+
255.1741	14	C18H23O+
261.1631	9	C20H21+
279.1743	999	C20H23O+
