Mass spectrum: CGA62826 (2-[2,6-dimethylphenyl)-methoxyacetylamino]propionic acid; LC-ESI-QFT; MS2; CE: 75; R=35000; [M+H]+
Name: CGA62826 (2-[2,6-dimethylphenyl)-methoxyacetylamino]propionic acid
Name: N-(2,6-Dimethylphenyl)-N-(methoxyacetyl)-L-alanine
Name: (2S)-2-(N-(2-methoxyacetyl)-2,6-dimethylanilino)propanoic acid
Formula: C14H19NO4
Exact mass: 265.13141
SMILES: Cc1cccc(c1N([C@@H](C)C(=O)O)C(=O)COC)C
InChI: InChI=1S/C14H19NO4/c1-9-6-5-7-10(2)13(9)15(11(3)14(17)18)12(16)8-19-4/h5-7,11H,8H2,1-4H3,(H,17,18)/t11-/m0/s1
Instrument: Q Exactive Plus Orbitrap Thermo Scientific
Instrument type: LC-ESI-QFT
Ms type: MS2
Ion mode: POSITIVE
Ionization: ESI
Fragmentation mode: HCD
Collision energy: 75 (nominal)
Resolution: 35000
Column name: XBridge C18 3.5um, 2.1x50mm, Waters
Retention time: 7.8 min
Base peak: 266.1385
Precursor m/z: 266.1387
Precursor type: [M+H]+
m/z	relative intensity	assigned
51.0227	1	C4H3+
53.0385	2	C4H5+
56.0495	20	C3H6N+
63.0229	1	C5H3+
65.0384	2	C5H5+
68.0495	1	C4H6N+
77.0385	5	C6H5+
79.0542	58	C6H7+
91.0542	93	C7H7+
93.0573	2	C6H7N+
93.0701	8	C7H9+
95.049	8	C6H7O+
103.0542	33	C8H7+
104.0619	2	C8H8+
105.0699	301	C8H9+
106.0652	31	C7H8N+
106.0777	56	C8H10+
107.0729	13	C7H9N+
107.0855	69	C8H11+
109.0649	4	C7H9O+
115.0543	13	C9H7+
116.0622	11	C9H8+
117.0573	47	C8H7N+
117.0699	24	C9H9+
118.0651	163	C8H8N+
119.073	22	C8H9N+
119.0856	87	C9H11+
120.0808	74	C8H10N+
121.0886	126	C8H11N+
121.1011	8	C9H13+
122.0965	12	C8H12N+
123.0805	12	C8H11O+
128.0621	17	C10H8+
129.0699	7	C10H9+
130.0652	186	C9H8N+
131.073	75	C9H9N+
131.0856	26	C10H11+
132.0808	784	C9H10N+
133.0886	560	C9H11N+
134.0964	753	C9H12N+
135.0677	14	C8H9NO+
135.1042	20	C9H13N+
136.1124	1	C9H14N+
143.073	1	C10H9N+
143.0854	10	C11H11+
144.0808	146	C10H10N+
145.0887	562	C10H11N+
146.0965	108	C10H12N+
147.0679	1	C9H9NO+
147.1043	18	C10H13N+
148.1121	999	C10H14N+
149.0835	7	C9H11NO+
150.0914	84	C9H12NO+
155.0604	1	C10H7N2+
158.0966	15	C11H12N+
159.1043	4	C11H13N+
160.1121	663	C11H14N+
161.0837	10	C10H11NO+
161.1199	9	C11H15N+
162.1277	112	C11H16N+
164.1071	51	C10H14NO+
165.1148	1	C10H15NO+
178.1226	21	C11H16NO+
192.1374	7	C12H18NO+
206.1177	17	C12H16NO2+
