Mass spectrum: Metsulfuron-methyl; LC-ESI-ITFT; MS2; CE: 15%; R=7500; [M+H]+
Name: Metsulfuron-methyl
Name: 2-[(4-methoxy-6-methyl-s-triazin-2-yl)carbamoylsulfamoyl]benzoic acid methyl ester
Formula: C14H15N5O6S
Exact mass: 381.0743
SMILES: c1(c(cccc1)C(OC)=O)S(NC(Nc1nc(nc(n1)C)OC)=O)(=O)=O
InChI: InChI=1S/C14H15N5O6S/c1-8-15-12(18-14(16-8)25-3)17-13(21)19-26(22,23)10-7-5-4-6-9(10)11(20)24-2/h4-7H,1-3H3,(H2,15,16,17,18,19,21)
Instrument: LTQ Orbitrap XL Thermo Scientific
Instrument type: LC-ESI-ITFT
Ms type: MS2
Ion mode: POSITIVE
Ionization: ESI
Fragmentation mode: HCD
Collision energy: 15 % (nominal)
Resolution: 7500
Column name: XBridge C18 3.5um, 2.1x50mm, Waters
Retention time: 7.1 min
Base peak: 382.0825
Precursor m/z: 382.0816
Precursor type: [M+H]+
m/z	relative intensity	assigned
141.0771	38	C5H9N4O+
167.0565	999	C6H7N4O2+
199.0059	41	C8H7O4S+
350.0548	26	C13H12N5O5S+
382.0817	385	C14H16N5O6S+
