Mass spectrum: Pirimiphos-Ethyl; LC-ESI-QFT; MS2; CE: 150%; R=17500; [M+H]+
Name: Pirimiphos-Ethyl
Name: 4-diethoxyphosphinothioyloxy-N,N-diethyl-6-methylpyrimidin-2-amine
Formula: C13H24N3O3PS
Exact mass: 333.1276
SMILES: CCN(CC)C1=NC(=CC(=N1)OP(=S)(OCC)OCC)C
InChI: InChI=1S/C13H24N3O3PS/c1-6-16(7-2)13-14-11(5)10-12(15-13)19-20(21,17-8-3)18-9-4/h10H,6-9H2,1-5H3
Instrument: Exploris 240 Orbitrap Thermo Scientific
Instrument type: LC-ESI-QFT
Ms type: MS2
Ion mode: POSITIVE
Ionization: ESI
Fragmentation mode: HCD
Collision energy: 150 % (nominal)
Resolution: 17500
Column name: XBridge C18 3.5um, 2.1x50mm, Waters
Retention time: 12.748 min
Base peak: 334.1347
Precursor m/z: 334.1349
Precursor type: [M+H]+
m/z	relative intensity	assigned
54.034	64	C3H4N+
58.995	225	C2H3S+
59.9903	166	CH2NS+
64.9787	803	H2O2P+
66.0338	199	C4H4N+
67.0291	999	C3H3N2+
68.013	68	C3H2NO+
69.0083	377	C2HN2O+
71.0605	146	C3H7N2+
78.9402	528	OPS+
80.9737	95	H2O3P+
82.9949	326	C4H3S+
83.9904	292	C3H2NS+
84.0446	350	C4H6NO+
84.9855	267	C2HN2S+
96.9508	801	H2O2PS+
100.0217	438	C4H6NS+
108.0554	61	C5H6N3+
109.04	57	CH8N3OP+
114.9613	229	H4O3PS+
125.0171	176	CH8N3PS+
