Mass spectrum: Candesartan; LC-ESI-ITFT; MS2; CE: 45%; R=7500; [M+H]+
Name: Candesartan
Name: 2-ethoxy-3-[4-[2-(2H-tetrazol-5-yl)phenyl]benzyl]benzimidazole-4-carboxylic acid
Formula: C24H20N6O3
Exact mass: 440.1597
SMILES: c1(ccccc1c1ccc(Cn2c(nc3c2c(C(=O)O)ccc3)OCC)cc1)c1nnn[nH]1
InChI: InChI=1S/C24H20N6O3/c1-2-33-24-25-20-9-5-8-19(23(31)32)21(20)30(24)14-15-10-12-16(13-11-15)17-6-3-4-7-18(17)22-26-28-29-27-22/h3-13H,2,14H2,1H3,(H,31,32)(H,26,27,28,29)
Instrument: LTQ Orbitrap XL Thermo Scientific
Instrument type: LC-ESI-ITFT
Ms type: MS2
Ion mode: POSITIVE
Ionization: ESI
Fragmentation mode: HCD
Collision energy: 45 % (nominal)
Resolution: 7500
Column name: XBridge C18 3.5um, 2.1x50mm, Waters
Retention time: 9.3 min
Base peak: 441.1683
Precursor m/z: 441.167
Precursor type: [M+H]+
m/z	relative intensity	assigned
140.0497	11	C10H6N+
152.0618	19	C12H8+
153.07	42	C12H9+
161.0351	73	C8H5N2O2+
165.07	181	C13H9+
167.0853	58	C13H11+
173.035	33	C9H5N2O2+
175.0495	17	C9H7N2O2+
177.0578	17	C13H7N+
178.0779	177	C14H10+
179.0848	31	C14H11+
180.0808	337	C13H10N+
189.066	81	C10H9N2O2+
190.0653	244	C14H8N+
191.0456	17	C9H7N2O3+
191.0731	73	C14H9N+
192.0808	629	C14H10N+
193.0887	222	C14H11N+
194.0966	416	C14H12N+
196.0761	11	C13H10NO+
205.0755	75	C14H9N2+
206.0842	222	C14H10N2+
207.0917	999	C14H11N2+
208.1123	97	C15H14N+
210.0914	534	C14H12NO+
217.0891	12	C16H11N+
218.0962	76	C16H12N+
219.0913	50	C15H11N2+
220.0999	107	C15H12N2+
234.1153	163	C16H14N2+
235.0974	41	C14H11N4+
235.123	422	C16H15N2+
263.1305	78	C18H17NO+
308.118	39	C21H14N3+
309.103	70	C21H13N2O+
310.1091	23	C21H14N2O+
324.1139	18	C23H16O2+
337.0957	28	C22H13N2O2+
338.1049	70	C22H14N2O2+
349.1077	49	C22H13N4O+
350.0931	124	C22H12N3O2+
352.1085	468	C22H14N3O2+
367.121	16	C24H17NO3+
380.1391	19	C24H18N3O2+
395.1493	15	C24H19N4O2+
