Mass spectrum: Mycophenolic acid; LC-ESI-ITFT; MS2; CE: 45%; R=15000; [M+H]+
Name: Mycophenolic acid
Name: (E)-6-(4-hydroxy-3-keto-6-methoxy-7-methyl-phthalan-5-yl)-4-methyl-hex-4-enoic acid
Formula: C17H20O6
Exact mass: 320.1260
SMILES: c12c(c(c(C\C=C(\CCC(O)=O)C)c(c1C)OC)O)C(=O)OC2
InChI: InChI=1S/C17H20O6/c1-9(5-7-13(18)19)4-6-11-15(20)14-12(8-23-17(14)21)10(2)16(11)22-3/h4,20H,5-8H2,1-3H3,(H,18,19)/b9-4+
Instrument: LTQ Orbitrap XL Thermo Scientific
Instrument type: LC-ESI-ITFT
Ms type: MS2
Ion mode: POSITIVE
Ionization: ESI
Fragmentation mode: HCD
Collision energy: 45 % (nominal)
Resolution: 15000
Column name: XBridge C18 3.5um, 2.1x50mm, Waters
Retention time: 9.9 min
Base peak: 321.1329
Precursor m/z: 321.1333
Precursor type: [M+H]+
m/z	relative intensity	assigned
81.0699	5	C6H9+
91.0543	2	C7H7+
103.0542	1	C8H7+
109.0648	3	C7H9O+
135.0805	2	C9H11O+
159.0441	57	C10H7O2+
175.0755	2	C11H11O2+
177.0546	12	C10H9O3+
179.0703	2	C10H11O3+
193.0496	1	C10H9O4+
195.0652	40	C10H11O4+
207.0652	999	C11H11O4+
215.1066	4	C14H15O2+
219.0651	4	C12H11O4+
221.0805	3	C12H13O4+
223.06	7	C11H11O5+
233.0812	1	C13H13O4+
239.1065	2	C16H15O2+
241.1226	1	C16H17O2+
247.0963	2	C14H15O4+
257.1179	1	C16H17O3+
259.0964	4	C15H15O4+
261.1121	7	C15H17O4+
275.1279	34	C16H19O4+
285.1121	24	C17H17O4+
303.1227	12	C17H19O5+
