Mass spectrum: Pipemidic acid; LC-ESI-QFT; MS2; CE: 90; R=35000; [M+H]+
Name: Pipemidic acid
Name: 5,8-Dihydro-8-ethyl-5-oxo-2-(1-piperazinyl)pyrido(2,3-d)pyrimidine-6-carboxylic acid
Name: 8-ethyl-5-keto-2-piperazin-4-ium-1-yl-pyrido[2,3-d]pyrimidine-6-carboxylate
Formula: C14H17N5O3
Exact mass: 303.13314
SMILES: O=C(O)\C2=C\N(c1nc(ncc1C2=O)N3CCNCC3)CC
InChI: InChI=1S/C14H17N5O3/c1-2-18-8-10(13(21)22)11(20)9-7-16-14(17-12(9)18)19-5-3-15-4-6-19/h7-8,15H,2-6H2,1H3,(H,21,22)
Instrument: Q Exactive Orbitrap Thermo Scientific
Instrument type: LC-ESI-QFT
Ms type: MS2
Ion mode: POSITIVE
Ionization: ESI
Fragmentation mode: HCD
Collision energy: 90 (nominal)
Resolution: 35000
Column name: XBridge C18 3.5um, 2.1x50mm, Waters
Retention time: 3.6 min
Base peak: 304.1405
Precursor m/z: 304.1404
Precursor type: [M+H]+
m/z	relative intensity	assigned
68.0131	44	C3H2NO+
68.0495	18	C4H6N+
69.0447	6	C3H5N2+
70.0287	58	C3H4NO+
70.0651	98	C4H8N+
71.0606	1	C3H7N2+
78.0337	15	
79.0291	20	C4H3N2+
80.0131	13	
80.0495	13	C5H6N+
91.029	13	
93.0447	40	C5H5N2+
94.0287	10	
94.04	7	C4H4N3+
95.024	376	C4H3N2O+
96.0444	41	C5H6NO+
103.0291	14	C6H3N2+
105.0448	41	C6H5N2+
106.0288	18	C6H4NO+
106.0398	12	C5H4N3+
107.0604	6	C6H7N2+
108.0319	13	C5H4N2O+
111.0553	8	C5H7N2O+
117.0446	11	
118.0399	24	C6H4N3+
119.0241	16	C6H3N2O+
119.0604	32	C7H7N2+
120.0556	116	C6H6N3+
121.0396	162	C6H5N2O+
123.0552	12	C6H7N2O+
132.0557	47	C7H6N3+
133.0396	7	C7H5N2O+
133.0508	7	C6H5N4+
134.0585	16	C6H6N4+
134.0712	12	C7H8N3+
135.0553	50	C7H7N2O+
135.0665	4	C6H7N4+
136.0505	105	C6H6N3O+
137.0346	24	C6H5N2O2+
139.0503	74	C6H7N2O2+
144.0559	11	C8H6N3+
145.0397	43	C8H5N2O+
145.0508	22	C7H5N4+
146.0349	213	C7H4N3O+
146.0586	16	
146.0714	11	C8H8N3+
147.0553	69	C8H7N2O+
147.0661	12	C7H7N4+
148.0505	647	C7H6N3O+
149.0585	3	C7H7N3O+
149.0711	11	C8H9N2O+
149.0819	5	C7H9N4+
158.0588	47	C8H6N4+
159.0666	112	C8H7N4+
160.0506	59	C8H6N3O+
160.0744	91	C8H8N4+
161.0458	67	C7H5N4O+
161.0582	15	C8H7N3O+
161.0823	18	C8H9N4+
162.0299	28	
162.0662	514	C8H8N3O+
163.0614	213	C7H7N4O+
164.0454	93	C7H6N3O2+
171.0665	13	C9H7N4+
172.0505	60	C9H6N3O+
173.0822	82	C9H9N4+
174.0539	20	C8H6N4O+
174.0659	6	C9H8N3O+
174.0901	21	C9H10N4+
175.0616	19	C8H7N4O+
175.0979	7	C9H11N4+
176.0818	29	C9H10N3O+
185.0822	10	C10H9N4+
186.0537	10	C9H6N4O+
186.0661	4	C10H8N3O+
187.0615	433	C9H7N4O+
188.0695	62	C9H8N4O+
188.0818	3	C10H10N3O+
188.1055	18	C10H12N4+
189.0771	999	C9H9N4O+
190.0973	25	C10H12N3O+
191.0453	9	C9H7N2O3+
191.0925	16	C9H11N4O+
192.0403	19	C8H6N3O3+
192.0768	7	C9H10N3O2+
198.0664	15	C11H8N3O+
199.0616	14	C10H7N4O+
199.0975	4	C11H11N4+
200.069	25	C10H8N4O+
200.093	8	C10H10N5+
200.1059	1	C11H12N4+
201.0769	20	C10H9N4O+
201.1133	2	C11H13N4+
202.0848	24	C10H10N4O+
203.0925	3	C10H11N4O+
206.056	14	C9H8N3O3+
207.0515	33	C8H7N4O3+
213.0772	42	C11H9N4O+
214.0848	2	C11H10N4O+
215.0564	198	C10H7N4O2+
215.0927	63	C11H11N4O+
217.1085	151	C11H13N4O+
233.067	478	C10H9N4O3+
241.0722	16	C12H9N4O2+
243.1243	3	C13H15N4O+
258.0991	2	C12H12N5O2+
259.0824	33	C12H11N4O3+
276.1092	20	C12H14N5O3+
304.1406	25	C14H18N5O3+
