Mass spectrum: Cefazolin; LC-ESI-QFT; MS2; CE: 90; R=35000; [M+H]+
Name: Cefazolin
Name: 3-[(5-methyl-1,3,4-thiadiazol-2-yl)sulfanylmethyl]-8-oxo-7-[[2-(tetrazol-1-yl)acetyl]amino]-5-thia-1-azabicyclo[4.2.0]oct-2-ene-2-carboxylic acid
Formula: C14H14N8O4S3
Exact mass: 454.03001
SMILES: CC1=NN=C(S1)SCC2=C(N3C(C(C3=O)NC(=O)CN4C=NN=N4)SC2)C(=O)O
InChI: InChI=1S/C14H14N8O4S3/c1-6-17-18-14(29-6)28-4-7-3-27-12-9(11(24)22(12)10(7)13(25)26)16-8(23)2-21-5-15-19-20-21/h5,9,12H,2-4H2,1H3,(H,16,23)(H,25,26)
Instrument: Q Exactive Plus Orbitrap Thermo Scientific
Instrument type: LC-ESI-QFT
Ms type: MS2
Ion mode: POSITIVE
Ionization: ESI
Fragmentation mode: HCD
Collision energy: 90 (nominal)
Resolution: 35000
Column name: XBridge C18 3.5um, 2.1x50mm, Waters
Retention time: 4.5 min
Base peak: 455.0367
Precursor m/z: 455.0373
Precursor type: [M+H]+
m/z	relative intensity	assigned
50.0151	16	C4H2+
51.0229	25	C4H3+
52.0182	7	C3H2N+
53.0022	14	C3HO+
53.0386	272	C4H5+
54.0339	103	C3H4N+
55.0291	506	C2H3N2+
56.0131	6	C2H2NO+
56.037	5	C2H4N2+
56.0495	76	C3H6N+
56.9793	31	C2HS+
57.0448	242	C2H5N2+
57.9746	43	CNS+
57.9872	101	C2H2S+
58.0288	18	C2H4NO+
58.9824	8	CHNS+
58.995	141	C2H3S+
59.9664	22	COS+
59.9903	109	CH2NS+
62.0059	15	CH4NS+
63.0229	23	C5H3+
64.0181	8	C4H2N+
64.0308	6	C5H4+
65.0386	174	C5H5+
66.0339	449	C4H4N+
66.0464	26	C5H6+
67.0291	34	C3H3N2+
67.0417	83	C4H5N+
67.0542	6	C5H7+
68.037	36	C3H4N2+
68.0495	431	C4H6N+
68.9794	83	C3HS+
69.0448	334	C3H5N2+
69.9746	56	C2NS+
70.0288	15	C3H4NO+
70.0652	6	C4H8N+
70.995	212	C3H3S+
71.0352	29	CH3N4+
71.9903	108	C2H2NS+
72.0028	21	C3H4S+
72.0556	15	C2H6N3+
72.9981	308	C2H3NS+
73.0107	51	C3H5S+
74.0059	168	C2H4NS+
75.0137	39	C2H5NS+
78.0339	164	C5H4N+
79.0291	8	C4H3N2+
79.0417	37	C5H5N+
80.0495	999	C5H6N+
81.0448	98	C4H5N2+
81.0573	60	C5H7N+
82.0288	31	C4H4NO+
82.04	22	C3H4N3+
82.0526	221	C4H6N2+
82.0652	24	C5H8N+
82.995	46	C4H3S+
83.024	18	C3H3N2O+
83.0367	4	C4H5NO+
83.0478	34	C3H5N3+
83.0604	7	C4H7N2+
83.9903	48	C3H2NS+
84.0029	91	C4H4S+
84.0319	33	C3H4N2O+
84.0444	144	C4H6NO+
84.0557	198	C3H6N3+
84.9742	24	C3HOS+
85.0107	488	C4H5S+
85.0396	43	C3H5N2O+
86.0059	149	C3H4NS+
87.0138	23	C3H5NS+
87.0265	5	C4H7S+
90.0339	106	C6H4N+
91.0417	49	C6H5N+
91.9624	97	CH2NS2+
92.0369	12	C5H4N2+
92.0495	70	C6H6N+
93.0448	190	C5H5N2+
93.0574	70	C6H7N+
94.0289	4	C5H4NO+
94.0401	31	C4H4N3+
94.0526	20	C5H6N2+
94.0652	8	C6H8N+
94.9952	39	C5H3S+
95.0605	213	C5H7N2+
95.9904	17	C4H2NS+
96.0445	138	C5H6NO+
96.0557	318	C4H6N3+
97.0108	917	C5H5S+
97.9933	32	C3H2N2S+
98.006	66	C4H4NS+
98.0186	14	C5H6S+
98.0476	7	C4H6N2O+
99.0012	384	C3H3N2S+
99.0138	254	C4H5NS+
99.0263	30	C5H7S+
100.009	122	C3H4N2S+
100.0216	128	C4H6NS+
100.0506	55	C3H6N3O+
101.0057	20	C4H5OS+
101.0169	66	C3H5N2S+
102.001	3	C3H4NOS+
105.0448	135	C6H5N2+
106.0526	240	C6H6N2+
107.0605	767	C6H7N2+
108.0443	18	C6H6NO+
108.0558	22	C5H6N3+
108.0682	306	C6H8N2+
108.9981	3	C5H3NS+
109.0106	34	C6H5S+
109.0762	47	C6H9N2+
110.006	158	C5H4NS+
110.0601	28	C6H8NO+
111.0012	33	C4H3N2S+
111.0138	14	C5H5NS+
111.0317	5	C5H5NO2+
111.0554	6	C5H7N2O+
112.0216	421	C5H6NS+
112.0394	605	C5H6NO2+
113.0056	5	C5H5OS+
113.0169	38	C4H5N2S+
113.0294	4	C5H7NS+
114.0249	3	C4H6N2S+
114.0373	16	C5H8NS+
115.0326	4	C4H7N2S+
117.0447	18	C7H5N2+
118.0526	77	C7H6N2+
119.0605	692	C7H7N2+
120.0557	33	H12N2O3S+
120.0683	171	C7H8N2+
121.0396	4	C6H5N2O+
121.0637	5	C6H7N3+
121.076	25	C7H9N2+
122.006	247	C6H4NS+
122.0713	19	C6H8N3+
123.0138	95	C6H5NS+
123.0553	6	C6H7N2O+
124.0092	31	C5H4N2S+
124.0217	206	C6H6NS+
124.0394	27	C6H6NO2+
125.017	29	C5H5N2S+
125.0294	7	C6H7NS+
126.0009	13	C5H4NOS+
126.0121	21	C4H4N3S+
126.0248	14	C5H6N2S+
126.0372	24	C6H8NS+
127.02	42	C4H5N3S+
127.0325	12	C5H7N2S+
128.0168	24	C5H6NOS+
128.0278	79	C4H6N3S+
130.0196	3	C4H6N2OS+
132.0557	35	C7H6N3+
132.989	415	C3H5N2S2+
133.0635	46	C7H7N3+
134.0061	5	C7H4NS+
134.0478	5	C7H6N2O+
134.0714	61	C7H8N3+
135.0556	6	C7H7N2O+
136.0217	20	CH12O3S2+
137.0169	44	C6H5N2S+
138.0122	7	C5H4N3S+
138.0247	12	C6H6N2S+
139.0326	123	C6H7N2S+
140.0166	7	C6H6NOS+
140.0276	7	C5H6N3S+
141.0482	7	C6H9N2S+
144.0115	18	C5H6NO2S+
144.0557	13	C8H6N3+
145.0637	5	C8H7N3+
146.0715	19	C8H8N3+
147.0666	14	C7H7N4+
149.0169	19	C7H5N2S+
150.0248	20	C7H6N2S+
151.0326	63	C7H7N2S+
151.0505	4	C7H7N2O2+
152.0167	7	C7H6NOS+
153.0484	8	C7H9N2S+
156.0115	124	C6H6NO2S+
157.0194	7	C6H7NO2S+
159.0663	3	C8H7N4+
161.017	3	C8H5N2S+
161.0822	38	C8H9N4+
164.0279	20	C7H6N3S+
165.0121	4	CH11NO4S2+
166.0431	6	C7H8N3S+
168.0117	4	C7H6NO2S+
172.0506	3	C9H6N3O+
