Mass spectrum: Doxazosin; LC-ESI-QFT; MS2; CE: 45; R=35000; [M-H]-
Name: Doxazosin
Name: [4-(4-amino-6,7-dimethoxyquinazolin-2-yl)piperazin-1-yl]-(2,3-dihydro-1,4-benzodioxin-3-yl)methanone
Formula: C23H25N5O5
Exact mass: 451.18557
SMILES: COC1=C(C=C2C(=C1)C(=NC(=N2)N3CCN(CC3)C(=O)C4COC5=CC=CC=C5O4)N)OC
InChI: InChI=1S/C23H25N5O5/c1-30-18-11-14-15(12-19(18)31-2)25-23(26-21(14)24)28-9-7-27(8-10-28)22(29)20-13-32-16-5-3-4-6-17(16)33-20/h3-6,11-12,20H,7-10,13H2,1-2H3,(H2,24,25,26)
Instrument: Q Exactive Orbitrap Thermo Scientific
Instrument type: LC-ESI-QFT
Ms type: MS2
Ion mode: NEGATIVE
Ionization: ESI
Fragmentation mode: HCD
Collision energy: 45 (nominal)
Resolution: 35000
Column name: XBridge C18 3.5um, 2.1x50mm, Waters
Retention time: 7.2 min
Base peak: 496.1842
Precursor m/z: 450.1783
Precursor type: [M-H]-
m/z	relative intensity	assigned
59.0138	18	C2H3O2-
65.9986	8	C3NO-
67.0302	24	C3H3N2-
68.0142	1	C3H2NO-
81.0346	2	C5H5O-
81.0459	5	C4H5N2-
85.0295	2	C4H5O2-
90.0347	1	C6H4N-
91.0189	1	C6H3O-
92.0506	37	C6H6N-
93.0346	12	C6H5O-
106.0425	6	C7H6O-
107.0378	11	C6H5NO-
108.0218	36	C6H4O2-
108.0455	632	C6H6NO-
109.0295	999	C6H5O2-
110.0724	7	C5H8N3-
112.0404	2	C5H6NO2-
118.0299	299	C7H4NO-
119.025	8	C6H3N2O-
120.0455	127	C7H6NO-
121.0295	15	C7H5O2-
132.0454	15	C8H6NO-
133.0295	2	C8H5O2-
133.0404	2	C7H5N2O-
134.0248	79	C7H4NO2-
134.0612	198	C8H8NO-
135.0452	395	C8H7O2-
136.0762	1	C8H10NO-
144.0202	11	C7H2N3O-
147.0201	25	C7H3N2O2-
148.0404	63	C8H6NO2-
149.0243	3	C8H5O3-
150.056	127	C8H8NO2-
160.0404	16	C9H6NO2-
160.0767	13	C10H10NO-
162.0307	5	C7H4N3O2-
162.0435	30	C8H6N2O2-
172.0152	57	C8H2N3O2-
172.0515	5	C9H6N3O-
173.0228	6	C8H3N3O2-
173.0352	2	C9H5N2O2-
177.1033	44	C10H13N2O-
178.0509	179	C9H8NO3-
186.055	2	C9H6N4O-
186.067	1	C10H8N3O-
187.0388	205	C9H5N3O2-
187.0621	29	C9H7N4O-
188.0468	10	C9H6N3O2-
188.0705	1	C9H8N4O-
189.0419	44	C8H5N4O2-
192.0668	16	C10H10NO3-
199.0627	6	C10H7N4O-
201.054	2	C10H7N3O2-
201.0782	15	C10H9N4O-
202.0498	5	C9H6N4O2-
202.0623	58	C10H8N3O2-
203.0581	2	C9H7N4O2-
203.0699	13	C10H9N3O2-
204.0652	145	C9H8N4O2-
213.0415	5	C10H5N4O2-
213.0545	2	C11H7N3O2-
213.0784	13	C11H9N4O-
214.0497	107	C10H6N4O2-
215.0575	368	C10H7N4O2-
216.0652	40	C10H8N4O2-
216.0777	22	C11H10N3O2-
217.0732	46	C10H9N4O2-
219.0888	44	C10H11N4O2-
227.0583	2	C11H7N4O2-
227.0934	2	C12H11N4O-
228.0652	12	C11H8N4O2-
228.0778	8	C12H10N3O2-
229.073	395	C11H9N4O2-
230.0808	542	C11H10N4O2-
231.0886	99	C11H11N4O2-
233.0679	2	C10H9N4O3-
241.0731	114	C12H9N4O2-
242.0808	35	C12H10N4O2-
243.0887	15	C12H11N4O2-
244.0964	50	C12H12N4O2-
244.1204	3	C12H14N5O-
245.1043	81	C12H13N4O2-
247.0831	1	C11H11N4O3-
255.0884	7	C13H11N4O2-
256.0965	62	C13H12N4O2-
257.0918	42	C12H11N5O2-
257.1044	15	C13H13N4O2-
258.0995	325	C12H12N5O2-
259.0836	1	C12H11N4O3-
271.0834	6	C13H11N4O3-
271.1195	9	C14H15N4O2-
272.1154	61	C13H14N5O2-
273.1232	213	C13H15N5O2-
276.1098	5	C12H14N5O3-
281.0678	3	C14H9N4O3-
288.1465	33	C14H18N5O2-
295.0957	2	C16H13N3O3-
296.0915	13	C15H12N4O3-
308.0911	2	C16H12N4O3-
312.1099	10	C15H14N5O3-
323.1155	2	C17H15N4O3-
380.1728	6	C20H22N5O3-
392.1363	15	C20H18N5O4-
420.1314	124	C21H18N5O5-
435.1542	6	C22H21N5O5-
438.1431	3	C21H20N5O6-
