Mass spectrum: Morphine; LC-ESI-ITFT; MS2; CE: 90%; R=30000; [M+H]+
Name: Morphine
Name: (4R,4aR,7S,7aR,12bS)-3-methyl-2,4,4a,7,7a,13-hexahydro-1H-4,12-methanobenzofuro[3,2-e]isoquinoline-7,9-diol
Formula: C17H19NO3
Exact mass: 285.1364935
SMILES: CN1CC[C@]23[C@@H]4[C@H]1CC5=C2C(=C(C=C5)O)O[C@H]3[C@H](C=C4)O
InChI: InChI=1S/C17H19NO3/c1-18-7-6-17-10-3-5-13(20)16(17)21-15-12(19)4-2-9(14(15)17)8-11(10)18/h2-5,10-11,13,16,19-20H,6-8H2,1H3/t10-,11+,13-,16-,17-/m0/s1
Instrument: LTQ Orbitrap XL Thermo Scientific
Instrument type: LC-ESI-ITFT
Ms type: MS2
Ion mode: POSITIVE
Ionization: ESI
Fragmentation mode: HCD
Collision energy: 90 % (nominal)
Resolution: 30000
Column name: XBridge C18 3.5um, 2.1x50mm, Waters
Retention time: 1.1 min
Base peak: 286.1448
Precursor m/z: 286.1438
Precursor type: [M+H]+
m/z	relative intensity	assigned
55.0178	14	C3H3O+
57.0335	11	C3H5O+
58.0651	82	C3H8N+
67.0542	13	C5H7+
69.0336	8	C4H5O+
81.0335	21	C5H5O+
83.0494	10	C5H7O+
91.0543	68	C7H7+
93.0699	22	C7H9+
103.0542	46	C8H7+
105.07	28	C8H9+
107.0492	31	C7H7O+
115.0543	147	C9H7+
117.07	127	C9H9+
121.0648	18	C8H9O+
123.0441	101	C7H7O2+
128.0621	173	C10H8+
129.0699	157	C10H9+
131.0492	84	C9H7O+
131.0856	9	C10H11+
132.0808	19	C9H10N+
139.0542	11	C11H7+
141.0699	173	C11H9+
143.0492	28	C10H7O+
143.0856	44	C11H11+
144.057	83	C10H8O+
144.0809	9	C10H10N+
145.0649	203	C10H9O+
145.1013	18	C11H13+
147.0441	260	C9H7O2+
151.0541	19	C12H7+
152.0621	271	C12H8+
153.07	999	C12H9+
154.0778	89	C12H10+
155.0604	185	C10H7N2+
155.0856	430	C12H11+
157.0649	774	C11H9O+
158.0727	55	C11H10O+
159.0804	19	C11H11O+
160.0519	48	C10H8O2+
160.0755	10	C10H10NO+
161.0598	40	C10H9O2+
165.07	891	C13H9+
166.0777	138	C13H10+
167.0855	43	C13H11+
168.057	101	C12H8O+
169.0649	89	C12H9O+
170.0726	37	C12H10O+
171.0442	143	C11H7O2+
171.0805	100	C12H11O+
172.0519	20	C11H8O2+
173.0598	119	C11H9O2+
173.0961	29	C12H13O+
178.0777	71	C14H10+
179.0856	50	C14H11+
181.0649	728	C13H9O+
182.0727	38	C13H10O+
183.0805	184	C13H11O+
184.052	238	C12H8O2+
185.0598	282	C12H9O2+
186.0676	47	C12H10O2+
187.075	19	C12H11O2+
189.0701	67	C15H9+
190.0778	91	C15H10+
191.0856	125	C15H11+
193.0649	39	C14H9O+
193.0762	24	C13H9N2+
194.0727	87	C14H10O+
197.0598	63	C13H9O2+
198.0676	96	C13H10O2+
199.0754	84	C13H11O2+
200.0833	14	C13H12O2+
201.0694	10	C16H9+
201.091	80	C13H13O2+
207.0806	20	C15H11O+
209.0598	147	C14H9O2+
209.0961	26	C15H13O+
211.0755	102	C14H11O2+
213.0544	16	C13H9O3+
218.0728	26	C16H10O+
219.0802	18	C16H11O+
222.0676	21	C15H10O2+
227.0703	53	C14H11O3+
229.0856	12	C14H13O3+
