Mass spectrum: Dimethenamid-P; LC-ESI-ITFT; MS2; CE: 15%; R=15000; [M+H]+
Name: Dimethenamid-P
Name: 2-chloranyl-N-(2,4-dimethylthiophen-3-yl)-N-[(2S)-1-methoxypropan-2-yl]ethanamide
Formula: C12H18ClNO2S
Exact mass: 275.0741
SMILES: CC1=CSC(=C1N(C(C)COC)C(=O)CCl)C
InChI: InChI=1S/C12H18ClNO2S/c1-8-7-17-10(3)12(8)14(11(15)5-13)9(2)6-16-4/h7,9H,5-6H2,1-4H3
Instrument: LTQ Orbitrap XL Thermo Scientific
Instrument type: LC-ESI-ITFT
Ms type: MS2
Ion mode: POSITIVE
Ionization: ESI
Fragmentation mode: HCD
Collision energy: 15 % (nominal)
Resolution: 15000
Column name: XBridge C18 3.5um, 2.1x50mm, Waters
Retention time: 10.0 min
Base peak: 276.0826
Precursor m/z: 276.082
Precursor type: [M+H]+
m/z	relative intensity	assigned
244.0557	999	C11H15ClNOS+
276.0819	955	C12H19ClNO2S+
