Mass spectrum: Bensulfuron-Methyl; LC-ESI-QFT; MS2; CE: 30%; R=17500; [M+H]+
Name: Bensulfuron-Methyl
Name: methyl 2-[(4,6-dimethoxypyrimidin-2-yl)carbamoylsulfamoylmethyl]benzoate
Formula: C16H18N4O7S
Exact mass: 410.0896
SMILES: COC1=CC(=NC(=N1)NC(=O)NS(=O)(=O)CC2=CC=CC=C2C(=O)OC)OC
InChI: InChI=1S/C16H18N4O7S/c1-25-12-8-13(26-2)18-15(17-12)19-16(22)20-28(23,24)9-10-6-4-5-7-11(10)14(21)27-3/h4-8H,9H2,1-3H3,(H2,17,18,19,20,22)
Instrument: Exploris 240 Orbitrap Thermo Scientific
Instrument type: LC-ESI-QFT
Ms type: MS2
Ion mode: POSITIVE
Ionization: ESI
Fragmentation mode: HCD
Collision energy: 30 % (nominal)
Resolution: 17500
Column name: XBridge C18 3.5um, 2.1x50mm, Waters
Retention time: 7.850 min
Base peak: 411.0967
Precursor m/z: 411.0969
Precursor type: [M+H]+
m/z	relative intensity	assigned
119.0491	10	C8H7O+
149.0597	999	C9H9O2+
156.0769	70	C6H10N3O2+
182.0561	471	C7H8N3O3+
272.1031	9	C14H14N3O3+
411.096	9	C16H19N4O7S+
