Mass spectrum: Flusilazole; LC-ESI-ITFT; MS2; CE: 35%; R=7500; [M+H]+
Name: Flusilazole
Name: bis(4-fluorophenyl)-methyl-(1,2,4-triazol-1-ylmethyl)silane
Formula: C16H15F2N3Si
Exact mass: 315.0998
SMILES: n1(cncn1)C[Si](c1ccc(F)cc1)(C)c1ccc(cc1)F
InChI: InChI=1S/C16H15F2N3Si/c1-22(12-21-11-19-10-20-21,15-6-2-13(17)3-7-15)16-8-4-14(18)5-9-16/h2-11H,12H2,1H3
Instrument: LTQ Orbitrap XL Thermo Scientific
Instrument type: LC-ESI-ITFT
Ms type: MS2
Ion mode: POSITIVE
Ionization: ESI
Fragmentation mode: CID
Collision energy: 35 % (nominal)
Resolution: 7500
Column name: XBridge C18 3.5um, 2.1x50mm, Waters
Retention time: 12.4 min
Base peak: 316.1073
Precursor m/z: 316.1076
Precursor type: [M+H]+
m/z	relative intensity	assigned
91.0541	4	C2H6FN3+
105.0701	3	C8H9+
109.0441	5	C2H5F2N3+
125.0216	1	C6H6FSi+
141.0695	1	C6H8FN3+
151.0375	8	C8H8FSi+
152.0626	2	C12H8+
165.0699	75	C13H9+
166.0486	1	C8H9FNSi+
166.0777	15	C13H10+
169.048	376	C8H10FOSi+
171.0439	5	C8H9F2Si+
179.0853	2	C9H10FN3+
181.1016	1	C14H13+
185.076	2	C8H9F2N3+
199.0376	3	C12H8FSi+
219.0432	5	C12H9F2Si+
220.0698	21	C10H11FN3Si+
227.0689	4	C14H12FSi+
247.075	999	C14H13F2Si+
265.0852	7	C12H13F2N3Si+
