Mass spectrum: Carbofuran; LC-ESI-QFT; MS2; CE: 60; R=35000; [M+H]+
Name: Carbofuran
Name: (2,2-dimethyl-3H-1-benzofuran-7-yl) N-methylcarbamate
Formula: C12H15NO3
Exact mass: 221.10519
SMILES: CC2(C)CC1=C(C(=CC=C1)OC(NC)=O)O2
InChI: InChI=1S/C12H15NO3/c1-12(2)7-8-5-4-6-9(10(8)16-12)15-11(14)13-3/h4-6H,7H2,1-3H3,(H,13,14)
Instrument: Q Exactive Orbitrap Thermo Scientific
Instrument type: LC-ESI-QFT
Ms type: MS2
Ion mode: POSITIVE
Ionization: ESI
Fragmentation mode: HCD
Collision energy: 60 (nominal)
Resolution: 35000
Column name: XBridge C18 3.5um, 2.1x50mm, Waters
Retention time: 7.2 min
Base peak: 222.1124
Precursor m/z: 222.1125
Precursor type: [M+H]+
m/z	relative intensity	assigned
55.0543	1	C4H7+
58.0288	16	C2H4NO+
65.0385	1	C5H5+
67.0542	4	C5H7+
91.0541	37	C7H7+
93.0334	1	C6H5O+
95.0491	17	C6H7O+
105.0333	2	C7H5O+
107.049	2	C7H7O+
109.0283	5	C6H5O2+
109.0647	1	C7H9O+
110.036	1	C6H6O2+
111.0439	12	C6H7O2+
117.0698	1	C9H9+
119.0491	5	C8H7O+
119.0854	34	C9H11+
123.0439	999	C7H7O2+
132.0569	1	C9H8O+
137.0596	67	C8H9O2+
137.0958	3	C9H13O+
147.0803	25	C10H11O+
165.0908	132	C10H13O2+
