Mass spectrum: Fipronil-TP RPA 200761; LC-ESI-QFT; MS2; CE: 150%; R=17500; [M+H]+
Name: Fipronil-TP RPA 200761
Name: 5-amino-1-[2,6-dichloro-4-(trifluoromethyl)phenyl]-4-(trifluoromethylsulfinyl)pyrazole-3-carboxylic acid
Formula: C12H5Cl2F6N3O3S
Exact mass: 454.9333
SMILES: NC1=C(C(=NN1C1=C(Cl)C=C(C=C1Cl)C(F)(F)F)C(O)=O)S(=O)C(F)(F)F
InChI: InChI=1S/C12H5Cl2F6N3O3S/c13-4-1-3(11(15,16)17)2-5(14)7(4)23-9(21)8(6(22-23)10(24)25)27(26)12(18,19)20/h1-2H,21H2,(H,24,25)
Instrument: Q Exactive Plus Orbitrap Thermo Scientific
Instrument type: LC-ESI-QFT
Ms type: MS2
Ion mode: POSITIVE
Ionization: ESI
Fragmentation mode: HCD
Collision energy: 150 % (nominal)
Resolution: 17500
Column name: XBridge C18 3.5um, 2.1x50mm, Waters
Retention time: 8.085 min
Base peak: 455.9408
Precursor m/z: 455.9406
Precursor type: [M+H]+
m/z	relative intensity	assigned
51.0041	31	CHF2+
57.0134	45	C3H2F+
59.9902	12	CH2NS+
61.0073	27	C5H+
61.9792	129	CHClN+
62.0151	45	C5H2+
62.9699	35	CFS+
62.987	35	CH2ClN+
63.023	26	C5H3+
63.9852	32	H2NOS+
66.9745	92	CHClF+
68.9794	75	C3HS+
68.9946	467	CF3+
69.9746	351	C2NS+
72.9841	45	C3H2Cl+
74.015	20	C6H2+
75.004	207	C3HF2+
75.0086	10	
75.0103	17	C5HN+
75.0232	8	
76.0182	17	C5H2N+
77.0133	18	C4HN2+
78.9404	11	CClS+
80.0057	9	C5HF+
81.0135	210	C5H2F+
82.0025	31	C2HF3+
82.0087	47	C4HFN+
82.945	14	CHCl2+
83.9762	10	C4HCl+
84.9651	109	CClF2+
86.9698	41	C3FS+
87.0103	87	C6HN+
88.0126	25	CH3F3O+
88.0181	414	C6H2N+
90.9745	129	C3HClF+
92.0057	27	C6HF+
92.9795	14	C5HS+
92.9946	67	C3F3+
93.0135	44	C6H2F+
93.9744	19	C4NS+
95.9761	9	C5HCl+
96.9839	150	C5H2Cl+
97.9792	23	C4HClN+
99.004	91	C5HF2+
99.0104	67	C7HN+
99.9993	41	C4F2N+
100.0179	73	C7H2N+
105.9871	94	CHFN3S+
106.0024	30	C4HF3+
106.0087	146	C6HFN+
106.9454	10	C3HCl2+
106.995	13	F3H2O3+
107.0166	24	C6H2FN+
107.9763	57	C6HCl+
108.0245	48	C6H3FN+
108.965	74	C3ClF2+
108.984	27	C6H2Cl+
110.0158	16	CH2F2N3O+
110.9699	23	C5FS+
111.0041	29	C6HF2+
112.0117	27	CHF3N3+
112.0185	23	C8H2N+
113.0068	18	C2H6FO2S+
113.0137	19	C7HN2+
114.9745	64	C5HClF+
116.9951	46	C5F3+
118.0089	28	C7HFN+
118.0282	11	C7H4NO+
119.0168	46	C7H2FN+
121.9712	13	C2HFNO2S+
121.9793	173	C6HClN+
123.004	40	C2F3N3+
123.9942	99	CHF5O+
125.0128	60	F5H2N2+
126.9743	14	CClF2N3+
127.0294	10	C8H3N2+
127.9826	36	C6H2ClF+
130.0022	88	CF4N3+
130.0226	23	C6H4F2O+
130.9448	13	Cl2FN3+
131.0103	108	C6H2F3+
131.9908	12	CHF3NO3+
132.0179	51	CH2F4N3+
132.965	21	C5ClF2+
133.9792	35	C7HClN+
135.9993	19	C7F2N+
136.0192	10	C7H3FNO+
137.0069	121	C4H6FO2S+
138.0153	25	C7H2F2N+
139.0228	38	C7H3F2N+
140.0309	17	C7H4F2N+
141.9855	87	C6H2ClFN+
142.0023	14	C2F4N3+
142.9452	18	
142.9927	28	C9FO+
143.0103	482	C7H2F3+
143.0225	16	
144.0184	14	C7H3F3+
144.9652	13	C6ClF2+
145.0194	19	F6H3N2+
145.9731	31	C6HClF2+
147.9995	11	C8F2N+
148.013	47	C6H3F3O+
150.015	50	C8H2F2N+
150.951	41	Cl2F2HN3+
153.9856	16	C7H2ClFN+
157.0133	999	C7H2F3N+
158.0212	29	C7H3F3N+
158.9641	19	CClF2N3O2+
158.9807	42	C2HClF3N3+
159.0167	46	C6H2F3N2+
161.021	22	C7H4F3O+
165.0259	13	C8H3F2N2+
165.979	677	CHClF4N3+
166.0215	27	
166.9593	10	CHClF3NO3+
168.0055	56	C8HF3N+
169.0132	28	C8H2F3N+
172.9838	142	C7H2ClF2N+
173.9917	55	C7H3ClF2N+
174.9822	45	C2HF4N3S+
176.9711	40	C2ClF4N3+
178.9874	18	C2F5N2O2+
181.0129	42	CH6F3N3O2S+
181.9876	40	C7H3ClN2O2+
183.9761	26	C8HClF2N+
186.0163	16	C8H3F3NO+
187.0238	13	C8H4F3NO+
192.9901	20	C7H3ClF3N+
194.9817	17	C2H2ClF4N3O+
195.0165	27	C9H2F3N2+
201.0025	24	C8H4ClF2N2+
209.9695	15	C4H5Cl2F3NO+
