Mass spectrum: N-Bisdesmethyl Tramadol; LC-ESI-QFT; MS2; CE: 150; R=35000; [M+H]+
Name: N-Bisdesmethyl Tramadol
Name: 2-(aminomethyl)-1-(3-methoxyphenyl)cyclohexan-1-ol
Formula: C14H21NO2
Exact mass: 235.15723
SMILES: COC1=CC=CC(=C1)C2(CCCCC2CN)O
InChI: InChI=1S/C14H21NO2/c1-17-13-7-4-6-11(9-13)14(16)8-3-2-5-12(14)10-15/h4,6-7,9,12,16H,2-3,5,8,10,15H2,1H3
Instrument: Q Exactive Plus Orbitrap Thermo Scientific
Instrument type: LC-ESI-QFT
Ms type: MS2
Ion mode: POSITIVE
Ionization: ESI
Fragmentation mode: HCD
Collision energy: 150 (nominal)
Resolution: 35000
Column name: XBridge C18 3.5um, 2.1x50mm, Waters
Retention time: 5.2 min
Base peak: 236.1644
Precursor m/z: 236.1645
Precursor type: [M+H]+
m/z	relative intensity	assigned
50.0151	45	C4H2+
51.0229	155	C4H3+
52.0308	56	C4H4+
53.0022	9	C3HO+
53.0386	118	C4H5+
55.0178	10	C3H3O+
55.0542	9	C4H7+
56.0494	5	C3H6N+
63.0229	45	C5H3+
64.0307	7	C5H4+
65.0386	684	C5H5+
66.0464	6	C5H6+
67.0542	25	C5H7+
76.0307	18	C6H4+
77.0385	156	C6H5+
78.0464	999	C6H6+
79.0542	69	C6H7+
81.0335	7	C5H5O+
81.0698	5	C6H9+
89.0386	48	C7H5+
90.0463	10	C7H6+
91.0542	663	C7H7+
92.0257	6	C6H4O+
95.0491	274	C6H7O+
102.0464	38	C8H6+
103.0542	54	C8H7+
104.0619	7	C8H8+
105.0335	8	C7H5O+
105.0447	128	C6H5N2+
106.0414	48	C7H6O+
107.0491	21	C7H7O+
115.0542	226	C9H7+
116.0618	34	C9H8+
121.0648	116	C8H9O+
127.0541	17	C10H7+
128.0621	83	C10H8+
129.0697	9	C10H9+
131.0491	32	C9H7O+
144.057	5	C10H8O+
145.0649	16	C10H9O+
155.0604	20	C10H7N2+
