Mass spectrum: Cefaclor; LC-ESI-QFT; MS2; CE: 90; R=35000; [M-H]-
Name: Cefaclor
Name: CEFACLOR
Name: (6R,7R)-7-[[(2R)-2-amino-1-oxo-2-phenylethyl]amino]-3-chloro-8-oxo-5-thia-1-azabicyclo[4.2.0]oct-2-ene-2-carboxylic acid
Formula: C15H14ClN3O4S
Exact mass: 367.03935
SMILES: O=C2N1/C(=C(/Cl)CS[C@@H]1[C@@H]2NC(=O)[C@@H](c3ccccc3)N)C(=O)O
InChI: InChI=1S/C15H14ClN3O4S/c16-8-6-24-14-10(13(21)19(14)11(8)15(22)23)18-12(20)9(17)7-4-2-1-3-5-7/h1-5,9-10,14H,6,17H2,(H,18,20)(H,22,23)/t9-,10-,14-/m1/s1
Instrument: Q Exactive Orbitrap Thermo Scientific
Instrument type: LC-ESI-QFT
Ms type: MS2
Ion mode: NEGATIVE
Ionization: ESI
Fragmentation mode: HCD
Collision energy: 90 (nominal)
Resolution: 35000
Column name: XBridge C18 3.5um, 2.1x50mm, Waters
Retention time: 4.1 min
Base peak: 286.0657
Precursor m/z: 366.0321
Precursor type: [M-H]-
m/z	relative intensity	assigned
56.9804	802	C2HS-
57.9756	999	CNS-
63.9625	19	O2S-
65.0145	245	C3HN2-
65.9985	285	C3NO-
67.0301	43	C3H3N2-
70.9834	174	C2HNS-
74.0071	22	C2H4NS-
81.9757	267	C3NS-
83.9914	55	C3H2NS-
86.0069	66	C3H4NS-
89.0145	201	C5HN2-
91.0302	492	C5H3N2-
93.0458	746	C5H5N2-
95.9913	23	C4H2NS-
96.9992	584	C4H3NS-
98.007	199	C4H4NS-
101.0398	46	C8H5-
107.9913	109	C5H2NS-
108.9991	55	C5H3NS-
110.0072	246	C5H4NS-
111.9863	157	C4H2NOS-
116.0507	550	C8H6N-
117.0348	29	C8H5O-
118.0412	21	C6H4N3-
119.0251	133	C6H3N2O-
123.0023	516	C5H3N2S-
124.0101	607	C5H4N2S-
124.994	207	C5H3NOS-
125.018	48	C5H5N2S-
126.002	46	C5H4NOS-
135.0023	119	C6H3N2S-
135.9861	273	C6H2NOS-
147.0202	30	C7H3N2O2-
150.9972	370	C6H3N2OS-
152.005	173	C6H4N2OS-
153.0123	39	C6H5N2OS-
155.0615	131	C10H7N2-
156.0693	52	C10H8N2-
172.0406	30	C10H6NO2-
173.0479	41	C10H7NO2-
178.9921	101	C7H3N2O2S-
181.078	24	C12H9N2-
200.059	44	C11H8N2O2-
