Mass spectrum: Anabaenopeptin B; LC-ESI-QFT; MS2; CE: 75%; R=17500; [M+H]+
Name: Anabaenopeptin B
Name: (2S)-2-[[(3S,6S,9S,12S,15R)-3-benzyl-9-[2-(4-hydroxyphenyl)ethyl]-6,7-dimethyl-2,5,8,11,14-pentaoxo-12-propan-2-yl-1,4,7,10,13-pentazacyclononadec-15-yl]carbamoylamino]-5-(diaminomethylideneamino)pentanoic acid
Class: NA
Formula: C41H60N10O9
Exact mass: 836.4545
SMILES: CC(C)[C@@H]1NC(=O)[C@@H](CCCCNC(=O)[C@H](Cc2ccccc2)NC(=O)[C@H](C)N(C)C(=O)[C@H](CCc3ccc(O)cc3)NC1=O)NC(=O)N[C@@H](CCCNC(N)=N)C(O)=O
InChI: InChI=1S/C41H60N10O9/c1-24(2)33-37(56)46-30(20-17-26-15-18-28(52)19-16-26)38(57)51(4)25(3)34(53)47-32(23-27-11-6-5-7-12-27)35(54)44-21-9-8-13-29(36(55)50-33)48-41(60)49-31(39(58)59)14-10-22-45-40(42)43/h5-7,11-12,15-16,18-19,24-25,29-33,52H,8-10,13-14,17,20-23H2,1-4H3,(H,44,54)(H,46,56)(H,47,53)(H,50,55)(H,58,59)(H4,42,43,45)(H2,48,49,60)/t25-,29+,30-,31-,32-,33-/m0/s1
Instrument: Q Exactive Plus Orbitrap Thermo Scientific
Instrument type: LC-ESI-QFT
Ms type: MS2
Ion mode: POSITIVE
Ionization: ESI
Fragmentation mode: HCD
Collision energy: 75 % (nominal)
Resolution: 17500
Column name: XBridge C18 3.5um, 2.1x50mm, Waters
Retention time: 5.815 min
Base peak: 419.2347
Precursor m/z: 837.4617
Precursor type: [M+H]+
m/z	relative intensity	assigned
58.0652	67	C3H8N+
60.0557	118	CH6N3+
68.0495	23	C4H6N+
69.0335	7	C4H5O+
70.0651	999	C4H8N+
71.0491	72	C4H7O+
72.0807	16	C4H10N+
73.0635	17	C2H7N3+
84.0808	161	C5H10N+
86.0349	5	C2H4N3O+
86.0601	27	C4H8NO+
95.0604	8	C5H7N2+
96.0446	21	C5H6NO+
97.0759	6	C5H9N2+
98.06	6	C5H8NO+
99.044	13	C5H7O2+
103.0543	6	C8H7+
105.07	5	C8H9+
107.0491	34	C7H7O+
112.087	29	C5H10N3+
113.0709	38	C5H9N2O+
114.055	179	C5H8NO2+
115.0867	13	C5H11N2O+
116.0706	17	C5H10NO2+
120.0808	46	C8H10N+
130.0975	101	C5H12N3O+
141.066	7	C6H9N2O2+
142.0502	9	C6H8NO3+
158.0925	4	C6H12N3O2+
159.0766	7	C6H11N2O3+
201.0982	42	C7H13N4O3+
