Mass spectrum: CGA62826 (2-[2,6-dimethylphenyl)-methoxyacetylamino]propionic acid; LC-ESI-QFT; MS2; CE: 60; R=35000; [M-H]-
Name: CGA62826 (2-[2,6-dimethylphenyl)-methoxyacetylamino]propionic acid
Name: N-(2,6-Dimethylphenyl)-N-(methoxyacetyl)-L-alanine
Name: (2S)-2-(N-(2-methoxyacetyl)-2,6-dimethylanilino)propanoic acid
Formula: C14H19NO4
Exact mass: 265.13141
SMILES: Cc1cccc(c1N([C@@H](C)C(=O)O)C(=O)COC)C
InChI: InChI=1S/C14H19NO4/c1-9-6-5-7-10(2)13(9)15(11(3)14(17)18)12(16)8-19-4/h5-7,11H,8H2,1-4H3,(H,17,18)/t11-/m0/s1
Instrument: Q Exactive Plus Orbitrap Thermo Scientific
Instrument type: LC-ESI-QFT
Ms type: MS2
Ion mode: NEGATIVE
Ionization: ESI
Fragmentation mode: HCD
Collision energy: 60 (nominal)
Resolution: 35000
Column name: XBridge C18 3.5um, 2.1x50mm, Waters
Retention time: 7.8 min
Base peak: 264.1239
Precursor m/z: 264.1241
Precursor type: [M-H]-
m/z	relative intensity	assigned
55.0188	5	C3H3O-
57.0346	66	C3H5O-
58.006	14	C2H2O2-
66.035	9	C4H4N-
69.0346	2	C4H5O-
71.0139	28	C3H3O2-
72.0217	1	C3H4O2-
72.9931	2	C2HO3-
73.0298	1	C3H5O2-
85.0295	738	C4H5O2-
87.0451	13	C4H7O2-
88.0404	52	C3H6NO2-
89.0245	248	C3H5O3-
101.0609	2	C5H9O2-
105.0709	5	C8H9-
106.0662	1	C7H8N-
110.0248	5	C5H4NO2-
116.0507	5	C8H6N-
120.0819	300	C8H10N-
121.066	408	C8H9O-
129.0585	5	C9H7N-
130.0663	999	C9H8N-
132.0819	67	C9H10N-
142.0661	7	C10H8N-
143.0741	17	C10H9N-
144.0819	461	C10H10N-
145.0532	6	C9H7NO-
146.0612	120	C9H8NO-
146.0976	365	C10H12N-
148.0771	17	C9H10NO-
148.1133	164	C10H14N-
156.082	4	C11H10N-
158.0612	99	C10H8NO-
159.0694	1	C10H9NO-
160.0767	5	C10H10NO-
170.0976	6	C12H12N-
172.077	7	C11H10NO-
174.0924	253	C11H12NO-
175.0642	1	C10H9NO2-
176.0717	39	C10H10NO2-
177.0793	7	C10H11NO2-
192.1031	388	C11H14NO2-
204.1029	4	C12H14NO2-
205.111	1	C12H15NO2-
