Mass spectrum: Dimethachlor OXA; LC-ESI-ITFT; MS2; CE: 60%; R=15000; [M+H]+
Name: Dimethachlor OXA
Name: 2-[(2,6-dimethylphenyl)(2-methoxyethyl)amino]-2-oxo-acetic acid
Formula: C13H17NO4
Exact mass: 251.1158
SMILES: Cc1cccc(C)c1N(CCOC)C(=O)C(O)=O
InChI: InChI=1S/C13H17NO4/c1-9-5-4-6-10(2)11(9)14(7-8-18-3)12(15)13(16)17/h4-6H,7-8H2,1-3H3,(H,16,17)
Instrument: LTQ Orbitrap XL Thermo Scientific
Instrument type: LC-ESI-ITFT
Ms type: MS2
Ion mode: POSITIVE
Ionization: ESI
Fragmentation mode: HCD
Collision energy: 60 % (nominal)
Resolution: 15000
Column name: XBridge C18 3.5um, 2.1x50mm, Waters
Retention time: 6.6 min
Base peak: 252.1226
Precursor m/z: 252.123
Precursor type: [M+H]+
m/z	relative intensity	assigned
79.0542	23	C6H7+
91.0542	66	C7H7+
93.07	7	C7H9+
103.0543	31	C8H7+
105.07	470	C8H9+
106.0649	4	C7H8N+
106.0778	74	C8H10+
107.0855	193	C8H11+
115.0543	3	C9H7+
116.0623	7	C9H8+
117.0574	120	C8H7N+
118.0651	162	C8H8N+
119.0604	8	C7H7N2+
119.0855	27	C9H11+
120.0807	74	C8H10N+
121.0649	9	C8H9O+
121.0886	5	C8H11N+
121.1014	7	C9H13+
123.0806	2	C8H11O+
129.0701	8	C10H9+
130.0652	45	C9H8N+
131.073	265	C9H9N+
131.0856	39	C10H11+
132.0808	999	C9H10N+
133.0523	13	C8H7NO+
133.0761	15	C8H9N2+
133.0886	239	C9H11N+
134.0963	6	C9H12N+
143.0731	9	C10H9N+
144.0804	2	C10H10N+
146.0965	248	C10H12N+
147.1043	14	C10H13N+
148.0758	70	C9H10NO+
148.1121	846	C10H14N+
149.0596	10	C9H9O2+
158.0967	11	C11H12N+
164.1068	6	C10H14NO+
174.0914	13	C11H12NO+
176.107	100	C11H14NO+
178.1224	15	C11H16NO+
192.102	23	C11H14NO2+
220.0969	627	C12H14NO3+
