Mass spectrum: Difethialone; LC-ESI-QFT; MS2; CE: 90%; R=17500; [M+H]+
Name: Difethialone
Name: 3-[3-[4-(4-bromophenyl)phenyl]-1,2,3,4-tetrahydronaphthalen-1-yl]-2-hydroxythiochromen-4-one
Formula: C31H23BrO2S
Exact mass: 538.0602
SMILES: C1C(CC2=CC=CC=C2C1C3=C(SC4=CC=CC=C4C3=O)O)C5=CC=C(C=C5)C6=CC=C(C=C6)Br
InChI: InChI=1S/C31H23BrO2S/c32-24-15-13-20(14-16-24)19-9-11-21(12-10-19)23-17-22-5-1-2-6-25(22)27(18-23)29-30(33)26-7-3-4-8-28(26)35-31(29)34/h1-16,23,27,34H,17-18H2
Instrument: Exploris 240 Orbitrap Thermo Scientific
Instrument type: LC-ESI-QFT
Ms type: MS2
Ion mode: POSITIVE
Ionization: ESI
Fragmentation mode: HCD
Collision energy: 90 % (nominal)
Resolution: 17500
Column name: XBridge C18 3.5um, 2.1x50mm, Waters
Retention time: 17.282 min
Base peak: 541.0654
Precursor m/z: 539.0675
Precursor type: [M+H]+
m/z	relative intensity	assigned
65.0387	40	C5H5+
77.0386	9	C6H5+
91.0542	611	C7H7+
95.0491	11	C6H7O+
103.0543	84	C8H7+
105.0697	12	C8H9+
109.0107	388	C6H5S+
115.0542	49	C9H7+
121.0102	16	C7H5S+
123.0263	112	C7H7S+
128.0622	78	C10H8+
134.0183	18	C8H6S+
135.0263	99	C8H7S+
137.0058	122	C7H5OS+
141.0697	42	C11H9+
147.0263	78	C9H7S+
152.0623	48	C12H8+
153.0701	19	C12H9+
154.0777	55	C12H10+
163.0213	64	C9H7OS+
164.0624	59	C13H8+
165.0699	865	C13H9+
168.0568	8	C12H8O+
168.9644	14	C7H6Br+
176.0622	19	C14H8+
177.0699	83	C14H9+
178.0777	999	C14H10+
179.0855	187	C14H11+
215.0851	47	C17H11+
226.0784	43	C18H10+
228.0935	42	C18H12+
239.0856	340	C19H11+
240.0935	322	C19H12+
241.1012	423	C19H13+
242.9801	117	C13H8Br+
252.0936	51	C20H12+
253.1012	165	C20H13+
254.109	178	C20H14+
255.1169	247	C20H15+
256.1251	18	C20H16+
