Mass spectrum: Memantine; LC-ESI-QFT; MS2; CE: 60; R=35000; [M+H]+
Name: Memantine
Name: 3,5-dimethyladamantan-1-amine
Formula: C12H21N
Exact mass: 179.16740
SMILES: CC12CC3CC(C1)(CC(C3)(C2)N)C
InChI: InChI=1S/C12H21N/c1-10-3-9-4-11(2,6-10)8-12(13,5-9)7-10/h9H,3-8,13H2,1-2H3
Instrument: Q Exactive Plus Orbitrap Thermo Scientific
Instrument type: LC-ESI-QFT
Ms type: MS2
Ion mode: POSITIVE
Ionization: ESI
Fragmentation mode: HCD
Collision energy: 60 (nominal)
Resolution: 35000
Column name: XBridge C18 3.5um, 2.1x50mm, Waters
Retention time: 6.7 min
Base peak: 180.1746
Precursor m/z: 180.1747
Precursor type: [M+H]+
m/z	relative intensity	assigned
55.054	3	C4H7+
67.0542	1	C5H7+
69.0699	14	C5H9+
71.0855	1	C5H11+
79.0542	5	C6H7+
81.0699	28	C6H9+
83.0855	5	C6H11+
91.0542	8	C7H7+
93.0699	51	C7H9+
95.0855	27	C7H11+
105.0699	6	C8H9+
107.0855	582	C8H11+
109.0649	2	C7H9O+
119.0604	2	C7H7N2+
121.1012	51	C9H13+
135.1169	26	C10H15+
163.1481	999	C12H19+
180.1748	9	C12H22N+
