Mass spectrum: Propetamphos; LC-ESI-QFT; MS2; CE: 180%; R=17500; [M+H]+
Name: Propetamphos
Name: 1-Methylethyl 3-[[(ethylamino)methoxyphosphinothioyl]oxy]-2-butenoate
Name: propan-2-yl 3-[ethylamino(methoxy)phosphinothioyl]oxybut-2-enoate
Formula: C10H20NO4PS
Exact mass: 281.0851
SMILES: CCNP(=S)(OC)OC(=CC(=O)OC(C)C)C
InChI: InChI=1S/C10H20NO4PS/c1-6-11-16(17,13-5)15-9(4)7-10(12)14-8(2)3/h7-8H,6H2,1-5H3,(H,11,17)
Instrument: Exploris 240 Orbitrap Thermo Scientific
Instrument type: LC-ESI-QFT
Ms type: MS2
Ion mode: POSITIVE
Ionization: ESI
Fragmentation mode: HCD
Collision energy: 180 % (nominal)
Resolution: 17500
Column name: XBridge C18 3.5um, 2.1x50mm, Waters
Retention time: 9.418 min
Base peak: 341.072
Precursor m/z: 282.0923
Precursor type: [M+H]+
m/z	relative intensity	assigned
62.9455	92	PS+
63.9947	999	H3NOP+
67.0179	84	H6NOP+
78.9404	50	OPS+
95.9668	38	H3NOPS+
