Mass spectrum: O-Des[2-aminoethyl]-O-carboxymethyl dehydroamlodipine; LC-ESI-QFT; MS2; CE: 15%; R=15000; [M-H]-
Name: O-Des[2-aminoethyl]-O-carboxymethyl dehydroamlodipine
Name: 2-((4-(2-Chlorophenyl)-3-ethoxycarbonyl-5-methoxycarbonyl-6-methyl-2-pyridyl)methoxy)acetic acid
Name: 2-[[4-(2-chlorophenyl)-3-ethoxycarbonyl-5-methoxycarbonyl-6-methylpyridin-2-yl]methoxy]acetic acid
Formula: C20H20ClNO7
Exact mass: 421.0928
SMILES: CCOC(=O)C1=C(C(=C(N=C1COCC(=O)O)C)C(=O)OC)C2=CC=CC=C2Cl
InChI: InChI=1S/C20H20ClNO7/c1-4-29-20(26)18-14(9-28-10-15(23)24)22-11(2)16(19(25)27-3)17(18)12-7-5-6-8-13(12)21/h5-8H,4,9-10H2,1-3H3,(H,23,24)
Instrument: Orbitrap Exploris 240 Thermo Scientific
Instrument type: LC-ESI-QFT
Ms type: MS2
Ion mode: NEGATIVE
Ionization: ESI
Fragmentation mode: HCD
Collision energy: 15 % (nominal)
Resolution: 15000
Column name: Atlantis C18 3um, 3.0x150mm, Waters
Retention time: 18.423 min
Base peak: 420.0855
Precursor m/z: 420.0856
Precursor type: [M-H]-
Precursor intensity: 14212248
m/z	relative intensity	assigned
59.0138	592	C2H3O2-
228.0588	6	C14H11ClN-
236.0706	5	C15H10NO2-
254.0378	370	C15H9ClNO-
255.0466	4	C15H10ClNO-
256.0535	72	C15H11ClNO-
270.0331	13	C15H9ClNO2-
272.0489	27	C15H11ClNO2-
274.0641	136	C15H13ClNO2-
286.0644	47	C16H13ClNO2-
302.0597	4	C16H13ClNO3-
316.0752	11	C17H15ClNO3-
330.0539	136	C17H13ClNO4-
348.0637	15	C20H12O6-
360.0645	21	C18H15ClNO5-
361.0722	50	C18H16ClNO5-
376.0963	11	C19H19ClNO5-
420.0857	999	C20H19ClNO7-
