Mass spectrum: Tepraloxydim; LC-ESI-QFT; MS2; CE: 15; R=35000; [M-H]-
Name: Tepraloxydim
Name: E-Tepraloxydim
Formula: C17H24ClNO4
Exact mass: 341.13939
SMILES: CC/C(=N\OC\C=C\Cl)/C=1C(=O)CC(CC=1O)C2CCOCC2
InChI: InChI=1S/C17H24ClNO4/c1-2-14(19-23-7-3-6-18)17-15(20)10-13(11-16(17)21)12-4-8-22-9-5-12/h3,6,12-13,20H,2,4-5,7-11H2,1H3/b6-3+,19-14+
Instrument: Q Exactive Orbitrap Thermo Scientific
Instrument type: LC-ESI-QFT
Ms type: MS2
Ion mode: NEGATIVE
Ionization: ESI
Fragmentation mode: HCD
Collision energy: 15 (nominal)
Resolution: 35000
Column name: XBridge C18 3.5um, 2.1x50mm, Waters
Retention time: 11.5 min
Base peak: 340.1324
Precursor m/z: 340.1321
Precursor type: [M-H]-
m/z	relative intensity	assigned
90.9956	17	C3H4ClO-
134.0248	16	C7H4NO2-
191.0955	1	C11H13NO2-
206.1187	10	C12H16NO2-
219.0901	8	C12H13NO3-
220.0976	13	C12H14NO3-
221.1183	5	C13H17O3-
230.1182	3	C14H16NO2-
248.1293	999	C14H18NO3-
250.1448	24	C14H20NO3-
340.1321	704	C17H23ClNO4-
