Mass spectrum: Fluoxastrobin; LC-ESI-QFT; MS2; CE: 75; R=35000; [M+H]+
Name: Fluoxastrobin
Name: (E)-[[2-[6-(2-chlorophenoxy)-5-fluoro-pyrimidin-4-yl]oxyphenyl]-(5,6-dihydro-1,4,2-dioxazin-3-yl)methylene]-methoxy-amine
Formula: C21H16ClFN4O5
Exact mass: 458.07933
SMILES: Clc4ccccc4Oc3ncnc(Oc2ccccc2C(=N\OC)/C=1OCCON=1)c3F
InChI: InChI=1S/C21H16ClFN4O5/c1-28-26-18(21-27-30-11-10-29-21)13-6-2-4-8-15(13)31-19-17(23)20(25-12-24-19)32-16-9-5-3-7-14(16)22/h2-9,12H,10-11H2,1H3/b26-18+
Instrument: Q Exactive Orbitrap Thermo Scientific
Instrument type: LC-ESI-QFT
Ms type: MS2
Ion mode: POSITIVE
Ionization: ESI
Fragmentation mode: HCD
Collision energy: 75 (nominal)
Resolution: 35000
Column name: XBridge C18 3.5um, 2.1x50mm, Waters
Retention time: 11.5 min
Base peak: 459.0867
Precursor m/z: 459.0866
Precursor type: [M+H]+
m/z	relative intensity	assigned
64.0182	13	C4H2N+
64.0307	2	C5H4+
65.0386	97	C5H5+
66.0464	12	C5H6+
69.9924	20	C2NO2+
70.0087	3	C3HFN+
72.9839	4	C3H2Cl+
73.0196	15	C2H2FN2+
74.0151	5	C6H2+
75.0229	115	C6H3+
77.0385	16	C6H5+
78.0338	44	C5H4N+
79.0416	19	C5H5N+
79.0543	4	C6H7+
80.0495	10	C5H6N+
81.0334	30	C5H5O+
84.9837	4	C4H2Cl+
86.0037	3	C3HFNO+
86.9876	12	C3FO2+
86.9996	34	C4H4Cl+
90.0338	135	C6H4N+
91.0415	21	CH4FN4+
91.0541	10	C2H6FN3+
92.0256	29	C6H4O+
92.0494	32	
93.0334	44	C6H5O+
94.0413	15	C6H6O+
95.0491	77	C6H7O+
96.0444	20	C5H6NO+
97.0522	4	C5H7NO+
98.9995	43	C5H4Cl+
102.0338	71	C7H4N+
103.0417	5	C7H5N+
104.0141	3	C3H3FNO2+
104.0494	23	C7H6N+
105.0335	74	C7H5O+
105.0446	35	C6H5N2+
106.0287	41	C6H4NO+
106.0526	2	C6H6N2+
107.0292	42	C7H4F+
108.0443	4	C6H6NO+
109.0321	6	C6H4FN+
110.9995	41	C6H4Cl+
111.044	78	C6H7O2+
112.0074	5	C6H5Cl+
113.0396	23	C6H6FO+
114.034	13	
115.0417	23	C8H5N+
116.0367	22	C7H4N2+
116.0491	3	C3H5FN4+
117.0447	26	C7H5N2+
118.0285	4	C2H3FN4O+
118.0524	10	C7H6N2+
119.0366	36	C7H5NO+
120.0443	187	C7H6NO+
121.0323	24	C7H4FN+
121.0395	15	C6H5N2O+
122.0399	103	C7H5FN+
123.0352	44	C6H4FN2+
128.0026	24	C6H5ClO+
128.037	5	C8H4N2+
129.0101	213	C6H6ClO+
129.0446	211	C8H5N2+
130.0289	75	C8H4NO+
130.0399	293	C7H4N3+
131.0605	5	C8H7N2+
132.0245	26	C8H3FN+
132.0444	21	C8H6NO+
132.0554	2	C7H6N3+
133.0322	88	C8H4FN+
134.0236	3	C7H4NO2+
134.04	34	C8H5FN+
134.0474	5	C7H6N2O+
137.0026	4	C7H4ClN+
138.0105	304	C7H5ClN+
138.9945	48	C7H4ClO+
139.0057	291	C6H4ClN2+
140.0368	5	C9H4N2+
140.9901	27	C7H3ClF+
142.04	18	C8H4N3+
143.0059	4	C7H5ClF+
143.0366	3	C9H5NO+
144.0317	30	C8H4N2O+
144.0556	16	C8H6N3+
145.0397	98	C8H5N2O+
146.0234	10	C3H3FN4O2+
147.0353	14	C8H4FN2+
147.0552	10	C8H7N2O+
147.9946	3	C3H2ClFN4+
149.0269	10	C8H4FNO+
149.0508	5	C8H6FN2+
150.035	405	C8H5FNO+
151.0058	22	C7H4ClN2+
151.0429	14	C8H6FNO+
154.0399	43	C9H4N3+
154.9894	12	C7H4ClO2+
155.0236	3	C9H3N2O+
155.0348	3	C4H8FO5+
156.0008	4	C10HFO+
157.0397	18	C9H5N2O+
158.0475	3	C9H6N2O+
159.0355	44	C9H4FN2+
160.0267	23	C8H4N2O2+
160.0432	71	C9H5FN2+
161.027	19	C9H4FNO+
161.0344	23	C8H5N2O2+
162.0347	15	C9H5FNO+
162.0423	33	C8H6N2O2+
163.0056	6	C8H4ClN2+
163.0431	5	C6H9ClFN2+
163.0502	25	C8H7N2O2+
164.001	5	C7H3ClN3+
164.0341	57	C3H5FN4O3+
165.0222	2	C8H4FNO2+
165.0459	22	C8H6FN2O+
166.0055	10	C8H5ClNO+
167.0378	10	C8H6FNO2+
168.001	104	C8H4ClFN+
168.0316	5	C10H4N2O+
168.0453	10	C8H7FNO2+
169.0395	42	C10H5N2O+
170.0349	17	C9H4N3O+
172.0507	4	C9H6N3O+
174.046	11	C9H5FN3+
175.0302	71	C9H4FN2O+
176.0379	11	C9H5FN2O+
177.0455	3	C9H6FN2O+
177.0568	8	C8H6FN4+
178.0298	145	C9H5FNO2+
179.0005	15	C8H4ClN2O+
179.0376	3	C9H6FNO2+
182.0351	6	C10H4N3O+
183.996	15	C8H4ClFNO+
186.0462	4	C10H5FN3+
187.0301	3	C10H4FN2O+
188.038	999	C10H5FN2O+
189.0458	21	C10H6FN2O+
190.0409	14	C9H5FN3O+
191.0249	21	C9H4FN2O2+
194.06	2	C13H8NO+
195.0327	4	C9H6FNO3+
197.0635	11	C13H8FN+
198.0296	3	C10H4N3O2+
200.0485	2	C6H12ClFNO3+
202.041	15	C10H5FN3O+
202.0524	4	C14H6N2+
203.0245	4	C10H6ClN3+
203.0603	3	C14H7N2+
204.0335	2	C7H8ClFN3O+
205.0404	19	
212.0464	2	C8H7FN3O3+
213.0337	4	C8H7ClFN4+
214.0067	4	C9H6ClFNO2+
214.041	11	C11H5FN3O+
215.0604	4	C15H7N2+
220.0277	35	C10H5FN2O3+
222.0591	2	C14H7FN2+
223.0069	2	C10H5ClFN2O+
223.0666	20	C14H8FN2+
223.9908	3	C10H4ClFNO2+
225.0584	22	C14H8FNO+
228.045	3	C13H9ClN2+
229.0281	14	C11H4FN3O2+
230.036	68	C11H5FN3O2+
231.0554	4	C15H7N2O+
232.0522	3	C8H10ClFN4O+
232.0631	12	C15H8N2O+
239.0373	4	C14H8ClN2+
241.0516	11	C12H6FN4O+
248.0618	5	C15H7FN3+
251.0614	36	C15H8FN2O+
263.0612	4	C16H8FN2O+
264.0318	3	C18H4N2O+
266.0106	3	C14H5ClN3O+
278.0721	17	C16H9FN3O+
279.0566	45	C16H8FN2O2+
280.0645	17	C16H9FN2O2+
286.0611	3	C17H8N3O2+
298.0607	10	C18H8N3O2+
306.0673	79	C17H9FN3O2+
318.0681	11	
331.0632	13	
