Mass spectrum: Benserazide; LC-ESI-QFT; MS2; CE: 60; R=35000; [M-H]-
Name: Benserazide
Name: 2-amino-3-hydroxy-N`-(2,3,4-trihydroxybenzyl)propionohydrazide
Formula: C10H15N3O5
Exact mass: 257.10117
SMILES: O=C(NNCc1c(O)c(O)c(O)cc1)C(N)CO
InChI: InChI=1S/C10H15N3O5/c11-6(4-14)10(18)13-12-3-5-1-2-7(15)9(17)8(5)16/h1-2,6,12,14-17H,3-4,11H2,(H,13,18)
Instrument: Q Exactive Orbitrap Thermo Scientific
Instrument type: LC-ESI-QFT
Ms type: MS2
Ion mode: NEGATIVE
Ionization: ESI
Fragmentation mode: HCD
Collision energy: 60 (nominal)
Resolution: 35000
Column name: XBridge C18 3.5um, 2.1x50mm, Waters
Retention time: 0.8 min
Base peak: 256.094
Precursor m/z: 256.0939
Precursor type: [M-H]-
m/z	relative intensity	assigned
55.0187	1	C3H3O-
65.0397	5	C5H5-
71.0251	130	C2H3N2O-
81.0345	8	C5H5O-
86.036	219	C2H4N3O-
88.0516	470	C2H6N3O-
109.0295	999	C6H5O2-
118.0623	173	C3H8N3O2-
125.0244	46	C6H5O3-
128.0354	1	C5H6NO3-
137.0243	516	C7H5O3-
