Mass spectrum: Asulam-TP Sulfanilamide; LC-ESI-QFT; MS2; CE: 75%; R=17500; [M+H]+
Name: Asulam-TP Sulfanilamide
Name: Sulfanilamide
Name: 4-aminobenzenesulfonamide
Formula: C6H8N2O2S
Exact mass: 172.0306
SMILES: C1=C(C=CC(=C1)S(=O)(=O)N)N
InChI: InChI=1S/C6H8N2O2S/c7-5-1-3-6(4-2-5)11(8,9)10/h1-4H,7H2,(H2,8,9,10)
Instrument: Q Exactive Plus Orbitrap Thermo Scientific
Instrument type: LC-ESI-QFT
Ms type: MS2
Ion mode: POSITIVE
Ionization: ESI
Fragmentation mode: HCD
Collision energy: 75 % (nominal)
Resolution: 17500
Column name: XBridge C18 3.5um, 2.1x50mm, Waters
Retention time: 1.130 min
Base peak: 156.0115
Precursor m/z: 173.0379
Precursor type: [M+H]+
m/z	relative intensity	assigned
50.0152	4	C4H2+
53.0386	2	C4H5+
55.0177	1	C3H3O+
65.0386	395	C5H5+
66.0464	57	C5H6+
68.0494	5	C4H6N+
75.023	37	C6H3+
76.0308	25	C6H4+
79.0178	3	C5H3O+
80.0494	55	C5H6N+
81.0335	4	C5H5O+
92.0495	287	C6H6N+
93.0574	999	C6H7N+
94.0653	3	C6H8N+
108.0444	165	C6H6NO+
109.0285	6	C6H5O2+
110.0601	58	C6H8NO+
111.044	4	C6H7O2+
125.0472	188	C6H7NO2+
138.9848	10	C6H3O2S+
173.038	81	C6H9N2O2S+
