Mass spectrum: Amoxicillin; LC-ESI-QFT; MS2; CE: 30; R=35000; [M+H]+
Name: Amoxicillin
Name: Amoxicillin anhydrous
Name: (2S,5R,6R)-6-[[(2R)-2-amino-2-(4-hydroxyphenyl)-1-oxoethyl]amino]-3,3-dimethyl-7-oxo-4-thia-1-azabicyclo[3.2.0]heptane-2-carboxylic acid
Formula: C16H19N3O5S
Exact mass: 365.10454
SMILES: CC1(C)S[C@@H]2[C@H](NC(=O)[C@H](N)C3=CC=C(O)C=C3)C(=O)N2[C@H]1C(O)=O
InChI: InChI=1S/C16H19N3O5S/c1-16(2)11(15(23)24)19-13(22)10(14(19)25-16)18-12(21)9(17)7-3-5-8(20)6-4-7/h3-6,9-11,14,20H,17H2,1-2H3,(H,18,21)(H,23,24)/t9-,10-,11+,14-/m1/s1
Instrument: Q Exactive Orbitrap Thermo Scientific
Instrument type: LC-ESI-QFT
Ms type: MS2
Ion mode: POSITIVE
Ionization: ESI
Fragmentation mode: HCD
Collision energy: 30 (nominal)
Resolution: 35000
Column name: XBridge C18 3.5um, 2.1x50mm, Waters
Retention time: 2.3 min
Base peak: 366.1119
Precursor m/z: 366.1118
Precursor type: [M+H]+
m/z	relative intensity	assigned
58.9949	1	C2H3S+
68.0129	1	C3H2NO+
70.0288	5	C3H4NO+
70.0651	87	C4H8N+
71.0491	2	C4H7O+
72.0807	2	C4H10N+
86.0059	8	C3H4NS+
94.0651	1	C6H8N+
96.0443	15	C5H6NO+
98.06	1	C5H8NO+
99.044	4	C5H7O2+
107.049	3	C7H7O+
110.06	2	C6H8NO+
113.0345	1	C4H5N2O2+
114.0008	999	C4H4NOS+
116.0705	7	C5H10NO2+
122.06	10	C7H8NO+
126.0371	2	C6H8NS+
128.0528	2	C6H10NS+
128.0704	4	C6H10NO2+
133.0284	3	C8H5O2+
134.06	121	C8H8NO+
137.0055	29	C7H5OS+
137.071	7	C7H9N2O+
139.0213	6	C7H7OS+
139.0867	4	C7H11N2O+
142.0499	7	C6H8NO3+
146.06	1	C9H8NO+
148.0757	3	C9H10NO+
153.037	2	C8H9OS+
160.0427	119	C6H10NO2S+
162.0549	21	C9H8NO2+
163.0214	5	C9H7OS+
165.0368	2	C9H9OS+
165.0658	49	C8H9N2O2+
166.0325	1	C8H8NOS+
167.0814	6	C8H11N2O2+
174.055	4	C10H8NO2+
178.0321	14	C9H8NOS+
180.0477	74	C9H10NOS+
183.0764	6	C8H11N2O3+
185.0922	6	C8H13N2O3+
190.0499	74	C10H8NO3+
191.0159	5	C10H7O2S+
193.0607	39	C9H9N2O3+
194.027	3	C9H8NO2S+
206.0272	14	C10H8NO2S+
208.0427	92	C10H10NO2S+
209.0378	4	C9H9N2O2S+
211.054	6	C9H11N2O2S+
211.0713	84	C9H11N2O4+
215.0486	9	C8H11N2O3S+
216.102	10	C13H14NO2+
220.0972	2	C12H14NO3+
222.046	5	C10H10N2O2S+
227.0488	6	C9H11N2O3S+
234.0219	57	C11H8NO3S+
252.0325	5	C11H10NO4S+
255.0435	8	C10H11N2O4S+
260.074	1	C14H14NO2S+
275.0848	22	C14H15N2O2S+
277.1003	9	C14H17N2O2S+
293.0958	1	C14H17N2O3S+
303.0803	12	C15H15N2O3S+
303.0972	1	C15H15N2O5+
305.0954	12	C15H17N2O3S+
321.0903	31	C15H17N2O4S+
349.0851	12	C16H17N2O5S+
