Mass spectrum: Valsartan acid; LC-ESI-QFT; MS2; CE: 120; R=35000; [M+H]+
Name: Valsartan acid
Name: 4-[2-(2H-1,2,3,4-tetrazol-5-yl)phenyl]benzoic acid
Formula: C14H10N4O2
Exact mass: 266.08038
SMILES: C1=CC=C(C(=C1)C2=CC=C(C=C2)C(=O)O)C3=NNN=N3
InChI: InChI=1S/C14H10N4O2/c19-14(20)10-7-5-9(6-8-10)11-3-1-2-4-12(11)13-15-17-18-16-13/h1-8H,(H,19,20)(H,15,16,17,18)
Instrument: Q Exactive Plus Orbitrap Thermo Scientific
Instrument type: LC-ESI-QFT
Ms type: MS2
Ion mode: POSITIVE
Ionization: ESI
Fragmentation mode: HCD
Collision energy: 120 (nominal)
Resolution: 35000
Column name: XBridge C18 3.5um, 2.1x50mm, Waters
Retention time: 6.8 min
Base peak: 267.0873
Precursor m/z: 267.0877
Precursor type: [M+H]+
m/z	relative intensity	assigned
50.0151	25	C4H2+
51.0229	17	C4H3+
53.0386	26	C4H5+
63.0227	3	C5H3+
65.0022	1	C4HO+
65.0385	1	C5H5+
74.015	2	C6H2+
75.0228	15	C6H3+
76.018	1	C5H2N+
77.0385	66	C6H5+
81.0334	3	C5H5O+
88.0181	1	C6H2N+
89.0384	7	C7H5+
91.0541	2	C7H7+
95.0491	90	C6H7O+
98.0149	2	C8H2+
99.0229	12	C8H3+
101.0385	3	C8H5+
102.0337	4	C7H4N+
102.0464	2	C8H6+
103.0542	4	C8H7+
105.0447	53	C6H5N2+
113.0385	13	C9H5+
114.0464	2	C9H6+
115.0542	23	C9H7+
116.0493	2	C8H6N+
119.049	3	C8H7O+
123.0229	2	C10H3+
125.0385	88	C10H5+
126.0464	13	C10H6+
127.0414	2	C9H5N+
127.0541	30	C10H7+
128.0494	3	C9H6N+
128.0619	2	C10H8+
129.0446	10	C8H5N2+
130.0399	3	C7H4N3+
137.0382	1	C11H5+
138.0463	5	C11H6+
139.0542	52	C11H7+
140.0494	41	C10H6N+
141.0698	2	C11H9+
143.0491	10	C10H7O+
145.0647	20	C10H9O+
149.0385	32	C12H5+
150.0464	708	C12H6+
151.0542	417	C12H7+
152.0494	24	C11H6N+
152.062	128	C12H8+
153.0446	6	C10H5N2+
153.0571	3	C11H7N+
153.0699	6	C12H9+
155.0496	10	C11H7O+
155.0602	42	C10H7N2+
163.054	4	C13H7+
164.0495	23	C12H6N+
164.0619	2	C13H8+
165.0449	2	C11H5N2+
165.0573	5	C12H7N+
165.07	6	C13H9+
166.0652	6	C12H8N+
167.0491	12	C12H7O+
167.0729	2	C12H9N+
168.0568	9	C12H8O+
169.0647	999	C12H9O+
170.0599	51	C11H8NO+
175.0416	15	C13H5N+
176.0493	11	C13H6N+
177.0572	871	C13H7N+
178.065	30	C13H8N+
179.0603	380	C12H7N2+
180.0557	16	C11H6N3+
180.0806	5	C13H10N+
183.0803	10	C13H11O+
185.0597	8	C12H9O2+
191.0603	13	C13H7N2+
192.068	8	C13H8N2+
194.06	40	C13H8NO+
196.0757	2	C13H10NO+
204.0556	38	C13H6N3+
