Mass spectrum: Mirtazapine; LC-ESI-QFT; MS2; CE: 45; R=35000; [M+H]+
Name: Mirtazapine
Name: 2-Methyl-1,2,3,4,10,14b-hexahydropyrazino[2,1-a]pyrido[2,3-c][2]benzazepine
Formula: C17H19N3
Exact mass: 265.15790
SMILES: CN1CCN2C(C1)C3=CC=CC=C3CC4=C2N=CC=C4
InChI: InChI=1S/C17H19N3/c1-19-9-10-20-16(12-19)15-7-3-2-5-13(15)11-14-6-4-8-18-17(14)20/h2-8,16H,9-12H2,1H3
Instrument: Q Exactive Plus Orbitrap Thermo Scientific
Instrument type: LC-ESI-QFT
Ms type: MS2
Ion mode: POSITIVE
Ionization: ESI
Fragmentation mode: HCD
Collision energy: 45 (nominal)
Resolution: 35000
Column name: XBridge C18 3.5um, 2.1x50mm, Waters
Retention time: 4.7 min
Base peak: 266.1642
Precursor m/z: 266.1652
Precursor type: [M+H]+
m/z	relative intensity	assigned
56.0493	1	C3H6N+
58.065	4	C3H8N+
70.065	12	C4H8N+
72.0807	581	C4H10N+
85.0759	1	C4H9N2+
91.0542	1	C7H7+
92.0494	1	C6H6N+
105.0697	1	C8H9+
107.0602	3	C6H7N2+
110.0599	4	C6H8NO+
115.0539	4	C9H7+
133.0758	3	C8H9N2+
144.0805	3	C10H10N+
146.0962	1	C10H12N+
170.0957	1	C12H12N+
180.0805	6	C13H10N+
182.0963	8	C13H12N+
192.0807	2	C14H10N+
194.0835	6	C13H10N2+
195.0915	999	C13H11N2+
207.0915	3	C14H11N2+
209.1071	159	C14H13N2+
218.0963	3	C16H12N+
219.0915	1	C15H11N2+
220.0987	2	C15H12N2+
221.107	1	C15H13N2+
223.1227	29	C15H15N2+
233.1071	1	C16H13N2+
235.1227	36	C16H15N2+
237.1386	2	C16H17N2+
264.1492	15	C17H18N3+
266.1649	135	C17H20N3+
