Mass spectrum: Bromadiolone; LC-ESI-QFT; MS2; CE: 45; R=35000; [M-H]-
Name: Bromadiolone
Name: 3-[3-[4-(4-bromophenyl)phenyl]-3-hydroxy-1-phenylpropyl]-4-hydroxychromen-2-one
Formula: C30H23BrO4
Exact mass: 526.07797
SMILES: C1=CC=C(C=C1)C(CC(C2=CC=C(C=C2)C3=CC=C(C=C3)Br)O)C4=C(C5=CC=CC=C5OC4=O)O
InChI: InChI=1S/C30H23BrO4/c31-23-16-14-20(15-17-23)19-10-12-22(13-11-19)26(32)18-25(21-6-2-1-3-7-21)28-29(33)24-8-4-5-9-27(24)35-30(28)34/h1-17,25-26,32-33H,18H2
Instrument: Q Exactive Plus Orbitrap Thermo Scientific
Instrument type: LC-ESI-QFT
Ms type: MS2
Ion mode: NEGATIVE
Ionization: ESI
Fragmentation mode: HCD
Collision energy: 45 (nominal)
Resolution: 35000
Column name: XBridge C18 3.5um, 2.1x50mm, Waters
Retention time: 15.3 min
Base peak: 525.0704
Precursor m/z: 525.0707
Precursor type: [M-H]-
m/z	relative intensity	assigned
60.9931	8	CHO3-
65.0397	1	C5H5-
78.9189	978	Br-
92.0263	1	C6H4O-
93.0346	415	C6H5O-
101.0397	1	C8H5-
108.0216	3	C6H4O2-
115.0554	4	C9H7-
117.0347	62	C8H5O-
119.0502	5	C8H7O-
121.0295	11	C7H5O2-
130.0424	10	C9H6O-
131.0504	2	C9H7O-
133.0294	4	C8H5O2-
135.0452	49	C8H7O2-
137.0244	135	C7H5O3-
141.071	19	C11H9-
143.0501	13	C10H7O-
145.0295	6	C9H5O2-
145.0659	7	C10H9O-
147.0453	8	C9H7O2-
153.0708	6	C12H9-
159.0451	1	C10H7O2-
161.0245	102	C9H5O3-
163.0402	1	C9H7O3-
169.0659	6	C12H9O-
173.0608	11	C11H9O2-
179.0867	5	C14H11-
181.066	31	C13H9O-
187.04	26	C11H7O3-
191.0865	3	C15H11-
193.102	1	C15H13-
195.0815	27	C14H11O-
197.0608	20	C13H9O2-
199.0765	29	C13H11O2-
205.0659	3	C15H9O-
206.0737	45	C15H10O-
207.0815	55	C15H11O-
209.097	1	C15H13O-
219.0816	66	C16H11O-
221.061	8	C15H9O2-
221.0973	92	C16H13O-
222.0687	15	C15H10O2-
223.0766	57	C15H11O2-
225.0559	11	C14H9O3-
231.0818	1	C17H11O-
237.0922	66	C16H13O2-
247.0763	14	C17H11O2-
249.0556	3	C16H9O3-
249.0921	11	C17H13O2-
250.0637	999	C16H10O3-
251.0714	33	C16H11O3-
260.9921	7	C13H10BrO-
263.0714	107	C17H11O3-
265.087	21	C17H13O3-
270.9765	3	C14H8BrO-
272.9921	136	C14H10BrO-
274.9719	1	C13H8BrO2-
275.0716	18	C18H11O3-
300.9869	1	C15H10BrO2-
349.0233	9	C20H14BrO-
361.0612	1	C22H18Br-
363.0034	1	C20H12BrO2-
363.0405	1	C21H16BrO-
375.0036	3	C21H12BrO2-
375.0396	3	C22H16BrO-
377.0175	4	C21H14BrO2-
387.0389	45	C23H16BrO-
405.0487	1	C23H18BrO2-
463.0707	17	C29H20BrO-
479.0654	3	C29H20BrO2-
489.0499	11	C30H18BrO2-
507.0599	11	C30H20BrO3-
525.0706	129	C30H22BrO4-
