Mass spectrum: Flecainide; LC-ESI-QFT; MS2; CE: 75; R=35000; [M+H]+
Name: Flecainide
Name: N-(2-piperidinylmethyl)-2,5-bis(2,2,2-trifluoroethoxy)benzamide
Formula: C17H20F6N2O3
Exact mass: 414.13781
SMILES: C1CCNC(C1)CNC(=O)C2=C(C=CC(=C2)OCC(F)(F)F)OCC(F)(F)F
InChI: InChI=1S/C17H20F6N2O3/c18-16(19,20)9-27-12-4-5-14(28-10-17(21,22)23)13(7-12)15(26)25-8-11-3-1-2-6-24-11/h4-5,7,11,24H,1-3,6,8-10H2,(H,25,26)
Instrument: Q Exactive Orbitrap Thermo Scientific
Instrument type: LC-ESI-QFT
Ms type: MS2
Ion mode: POSITIVE
Ionization: ESI
Fragmentation mode: HCD
Collision energy: 75 (nominal)
Resolution: 35000
Column name: XBridge C18 3.5um, 2.1x50mm, Waters
Retention time: 6.7 min
Base peak: 415.1452
Precursor m/z: 415.1451
Precursor type: [M+H]+
m/z	relative intensity	assigned
65.0386	23	C5H5+
66.0464	7	C5H6+
69.0573	6	C4H7N+
69.0699	41	C5H9+
70.0651	72	C4H8N+
77.0386	3	C6H5+
79.0178	43	C5H3O+
79.0543	501	C6H7+
80.0494	5	C5H6N+
81.0699	856	C6H9+
82.0652	275	C5H8N+
83.0101	4	C2H2F3+
83.0291	13	C5H4F+
84.0808	231	C5H10N+
91.0542	4	C7H7+
92.0256	26	C6H4O+
95.0492	26	C6H7O+
96.0807	30	C6H10N+
97.0887	81	C6H11N+
98.0965	767	C6H12N+
99.024	4	C5H4FO+
105.0337	3	C7H5O+
105.0447	5	C6H5N2+
107.0128	153	C6H3O2+
109.0284	13	C6H5O2+
110.0163	3	C6H3FO+
111.0243	26	C6H4FO+
114.0277	5	C6H4F2+
127.019	73	C6H4FO2+
127.0357	16	C7H5F2+
129.0146	7	C6H3F2O+
135.0076	49	C7H3O3+
142.0229	6	C7H4F2O+
152.0342	15	C7H6NO3+
153.0183	551	C7H5O4+
170.0175	16	C8H4F2O2+
171.0252	13	C8H5F2O2+
175.0368	20	C8H6F3O+
181.0272	39	C7H5F4O+
187.0365	18	C9H6F3O+
188.1071	7	C12H14NO+
189.0159	4	C8H4F3O2+
189.0524	50	C9H8F3O+
190.0237	141	C8H5F3O2+
198.0127	3	C9H4F2O3+
203.0313	34	C9H6F3O2+
204.1024	30	C12H14NO2+
207.0429	28	C9H7F4O+
207.0624	5	C9H10F3O2+
209.0221	935	C8H5F4O2+
215.0316	22	C10H6F3O2+
216.1019	7	C13H14NO2+
217.0104	6	C9H4F3O3+
217.0343	7	C9H6F3NO2+
218.0183	28	C9H5F3O3+
219.0267	96	C9H6F3O3+
221.0223	8	C9H5F4O2+
225.0334	318	C9H6F5O+
232.0969	654	C13H14NO3+
236.0292	894	C9H7F3O4+
237.017	472	C9H5F4O3+
246.0373	31	C10H7F3NO3+
249.037	26	C10H8F3O4+
253.0284	360	C10H6F5O2+
254.036	36	C10H7F5O2+
279.0275	13	C14H6F3O3+
281.0234	151	C11H6F5O3+
298.1055	56	C15H15F3NO2+
301.0296	999	C14H6F5O2+
314.1002	21	C15H15F3NO3+
315.1085	5	C15H16F3NO3+
398.119	8	C17H18F6NO3+
