Mass spectrum: Minocycline; LC-ESI-QFT; MS2; CE: 45; R=35000; [M+H]+
Name: Minocycline
Name: Minocin
Name: (4S,4aS,5aR,12aS)-4,7-Bis(dimethylamino)-3,10,12,12a-tetrahydroxy-1,11-dioxo-1,4,4a,5,5a,6,11,12a-octahydro-2-tetracenecarboxamide
Formula: C23H27N3O7
Exact mass: 457.18490
SMILES: [H][C@@]12CC3=C(C(O)=CC=C3N(C)C)C(=O)C1=C(O)[C@]1(O)C(=O)C(C(N)=O)=C(O)[C@@H](N(C)C)[C@]1([H])C2
InChI: InChI=1S/C23H27N3O7/c1-25(2)12-5-6-13(27)15-10(12)7-9-8-11-17(26(3)4)19(29)16(22(24)32)21(31)23(11,33)20(30)14(9)18(15)28/h5-6,9,11,17,27,29-30,33H,7-8H2,1-4H3,(H2,24,32)/t9-,11-,17-,23-/m0/s1
Instrument: Q Exactive Plus Orbitrap Thermo Scientific
Instrument type: LC-ESI-QFT
Ms type: MS2
Ion mode: POSITIVE
Ionization: ESI
Fragmentation mode: HCD
Collision energy: 45 (nominal)
Resolution: 35000
Column name: XBridge C18 3.5um, 2.1x50mm, Waters
Retention time: 3.7 min
Base peak: 229.5995
Precursor m/z: 458.1922
Precursor type: [M+H]+
m/z	relative intensity	assigned
56.0494	1	C3H6N+
58.0651	83	C3H8N+
70.0651	6	C4H8N+
72.0443	9	C3H6NO+
74.0599	1	C3H8NO+
82.0649	1	C5H8N+
84.0443	11	C4H6NO+
84.0807	83	C5H10N+
86.0599	4	C4H8NO+
95.0492	1	C6H7O+
96.0807	1	C6H10N+
98.06	228	C5H8NO+
100.0757	1	C5H10NO+
108.0442	1	C6H6NO+
108.0804	1	C7H10N+
110.06	1	C6H8NO+
121.028	1	C7H5O2+
123.0438	3	C7H7O2+
124.0393	6	C6H6NO2+
124.0756	7	C7H10NO+
125.047	1	C6H7NO2+
126.0549	107	C6H8NO2+
136.0756	6	C8H10NO+
137.0833	4	C8H11NO+
139.0263	1	C6H5NO3+
142.0499	1	C6H8NO3+
148.0754	1	C9H10NO+
149.0233	7	C8H5O3+
150.0549	1	C8H8NO2+
150.0913	8	C9H12NO+
151.039	4	C8H7O3+
152.0343	4	C7H6NO3+
152.0704	5	C8H10NO2+
154.0498	237	C7H8NO3+
164.0705	16	C9H10NO2+
165.018	1	C8H5O4+
165.0783	9	C9H11NO2+
166.0862	28	C9H12NO2+
167.0339	5	C8H7O4+
172.0603	6	C7H10NO4+
176.0706	5	C10H10NO2+
177.018	16	C9H5O4+
178.0861	11	C10H12NO2+
180.0653	4	C9H10NO3+
186.0912	1	C12H12NO+
187.0624	13	C11H9NO2+
188.0702	8	C11H10NO2+
188.1066	2	C12H14NO+
189.0782	24	C11H11NO2+
190.0865	1	C11H12NO2+
192.0653	47	C10H10NO3+
193.0737	1	C10H11NO3+
194.081	12	C10H12NO3+
201.0784	5	C12H11NO2+
202.05	3	C11H8NO3+
202.0862	15	C12H12NO2+
203.0336	1	C11H7O4+
203.0939	9	C12H13NO2+
204.102	21	C12H14NO2+
210.076	19	C10H12NO4+
213.0781	1	C13H11NO2+
214.0866	3	C13H12NO2+
214.1228	4	C14H16NO+
215.0576	176	C12H9NO3+
216.0654	5	C12H10NO3+
216.1019	13	C13H14NO2+
217.0733	32	C12H11NO3+
220.0605	28	C11H10NO4+
225.0774	1	C14H11NO2+
226.0862	6	C14H12NO2+
226.1224	9	C15H16NO+
227.0938	13	C14H13NO2+
228.0649	1	C13H10NO3+
228.1016	1	C14H14NO2+
229.073	5	C13H11NO3+
230.0811	159	C13H12NO3+
231.0887	1	C13H13NO3+
232.0967	19	C13H14NO3+
233.0685	6	C12H11NO4+
236.1072	1	C16H14NO+
237.0783	3	C15H11NO2+
238.0865	3	C15H12NO2+
238.1225	1	C16H16NO+
239.0937	8	C15H13NO2+
240.1018	3	C15H14NO2+
241.1091	3	C15H15NO2+
242.0815	3	C14H12NO3+
242.1174	57	C15H16NO2+
243.0892	3	C14H13NO3+
243.125	1	C15H17NO2+
244.0968	6	C14H14NO3+
244.1333	5	C15H18NO2+
250.0852	1	C16H12NO2+
251.0941	1	C16H13NO2+
252.1014	10	C16H14NO2+
253.0729	3	C15H11NO3+
253.1098	1	C16H15NO2+
254.081	3	C15H12NO3+
254.1172	11	C16H16NO2+
255.0888	9	C15H13NO3+
256.097	6	C15H14NO3+
257.1042	17	C15H15NO3+
258.1125	1	C15H16NO3+
263.0938	1	C17H13NO2+
264.1018	3	C17H14NO2+
265.0728	1	C16H11NO3+
265.1098	4	C17H15NO2+
266.1175	3	C17H16NO2+
267.0888	30	C16H13NO3+
268.0596	4	C15H10NO4+
268.0967	4	C16H14NO3+
269.0682	8	C15H11NO4+
269.1045	12	C16H15NO3+
270.1123	28	C16H16NO3+
271.0838	4	C15H13NO4+
272.128	27	C16H18NO3+
273.0997	3	C15H15NO4+
278.1175	4	C18H16NO2+
279.0884	10	C17H13NO3+
280.0966	8	C17H14NO3+
280.1334	5	C18H18NO2+
281.0688	7	C16H11NO4+
281.1048	15	C17H15NO3+
282.076	4	C16H12NO4+
282.1123	31	C17H16NO3+
283.0838	602	C16H13NO4+
284.0919	6	C16H14NO4+
284.128	3	C17H18NO3+
285.0995	41	C16H15NO4+
286.1068	3	C16H16NO4+
288.1229	62	C16H18NO4+
291.0886	11	C18H13NO3+
292.0967	3	C18H14NO3+
293.1041	8	C18H15NO3+
294.076	5	C17H12NO4+
294.112	13	C18H16NO3+
295.0838	20	C17H13NO4+
296.0923	5	C17H14NO4+
296.1279	28	C18H18NO3+
297.0994	22	C17H15NO4+
298.1073	237	C17H16NO4+
299.1755	8	C18H23N2O2+
300.1229	158	C17H18NO4+
304.0964	3	C19H14NO3+
306.1121	15	C19H16NO3+
306.1363	1	C19H18N2O2+
307.0836	42	C18H13NO4+
308.0693	1	C21H10NO2+
308.0913	3	C18H14NO4+
308.1283	5	C19H18NO3+
308.1526	1	C19H20N2O2+
309.0995	61	C18H15NO4+
310.1065	8	C18H16NO4+
311.1148	1	C18H17NO4+
311.1751	1	C19H23N2O2+
312.1228	32	C18H18NO4+
312.146	5	C18H20N2O3+
313.0942	9	C17H15NO5+
316.1179	15	C17H18NO5+
319.0836	18	C19H13NO4+
320.0554	3	C18H10NO5+
320.0915	8	C19H14NO4+
321.0987	1	C19H15NO4+
321.159	1	C20H21N2O2+
322.0709	18	C18H12NO5+
322.1074	29	C19H16NO4+
324.1229	131	C19H18NO4+
325.0943	50	C18H15NO5+
327.1703	12	C19H23N2O3+
328.1179	16	C18H18NO5+
334.1072	13	C20H16NO4+
334.1305	4	C20H18N2O3+
335.0786	40	C19H13NO5+
336.0866	5	C19H14NO5+
336.1465	4	C20H20N2O3+
337.0944	999	C19H15NO5+
339.1702	45	C20H23N2O3+
340.1178	40	C19H18NO5+
345.1802	7	C19H25N2O4+
347.0785	4	C20H13NO5+
347.1009	1	C20H15N2O4+
350.0663	3	C19H12NO6+
350.1022	60	C20H16NO5+
351.0733	1	C19H13NO6+
352.1179	960	C20H18NO5+
353.0893	211	C19H15NO6+
355.1651	5	C20H23N2O4+
358.1283	7	C19H20NO6+
362.1262	9	C21H18N2O4+
363.0735	38	C20H13NO6+
365.0894	126	C20H15NO6+
366.0968	8	C20H16NO6+
367.1652	148	C21H23N2O4+
368.1129	58	C20H18NO6+
369.1809	14	C21H25N2O4+
370.1286	5	C20H20NO6+
377.1493	13	C22H21N2O4+
378.0972	17	C21H16NO6+
380.1126	27	C21H18NO6+
380.1365	95	C21H20N2O5+
381.0841	34	C20H15NO7+
393.108	3	C21H17N2O6+
395.16	127	C22H23N2O5+
396.1078	38	C21H18NO7+
397.1765	1	C22H25N2O5+
405.1443	5	C23H21N2O5+
408.1315	66	C22H20N2O6+
413.1705	19	C22H25N2O6+
414.1178	1	C21H20NO8+
423.1549	90	C23H23N2O6+
441.1656	259	C23H25N2O7+
