Mass spectrum: Fluroxypyr; LC-ESI-ITFT; MS2; CE: 90%; R=30000; [M+H]+
Name: Fluroxypyr
Name: 2-(4-amino-3,5-dichloro-6-fluoropyridin-2-yl)oxyacetic acid
Formula: C7H5Cl2FN2O3
Exact mass: 253.9667
SMILES: c1(c(c(c(Cl)c(n1)F)N)Cl)OCC(O)=O
InChI: InChI=1S/C7H5Cl2FN2O3/c8-3-5(11)4(9)7(12-6(3)10)15-1-2(13)14/h1H2,(H2,11,12)(H,13,14)
Instrument: LTQ Orbitrap XL Thermo Scientific
Instrument type: LC-ESI-ITFT
Ms type: MS2
Ion mode: POSITIVE
Ionization: ESI
Fragmentation mode: HCD
Collision energy: 90 % (nominal)
Resolution: 30000
Column name: XBridge C18 3.5um, 2.1x50mm, Waters
Retention time: 6.9 min
Base peak: 276.9555
Precursor m/z: 254.9734
Precursor type: [M+H]+
m/z	relative intensity	assigned
90.9744	618	C3HClF+
106.9448	274	C3HCl2+
110.0274	110	C5H3FN2+
115.9896	95	C4H3ClNO+
117.9854	204	C4H2ClFN+
124.9354	505	C3Cl2F+
124.9899	116	C5H2ClN2+
125.9977	207	C5H3ClN2+
133.9557	639	C4H2Cl2N+
143.9883	378	C5H2ClFN2+
144.9962	352	C5H3ClFN2+
146.004	999	C5H4ClFN2+
151.9463	923	C4HCl2FN+
160.9666	387	C5H3Cl2N2+
163.0067	720	C5H5ClFN2O+
178.9571	672	C5H2Cl2FN2+
178.9772	391	C5H5Cl2N2O+
180.9728	729	C5H4Cl2FN2+
196.9676	720	C5H4Cl2FN2O+
