Mass spectrum: Ethaboxam; LC-ESI-QFT; MS2; CE: 150%; R=17500; [M+H]+
Name: Ethaboxam
Name: N-[cyano(thiophen-2-yl)methyl]-4-ethyl-2-(ethylamino)-1,3-thiazole-5-carboxamide
Formula: C14H16N4OS2
Exact mass: 320.0766
SMILES: CCC1=C(SC(=N1)NCC)C(=O)NC(C#N)C2=CC=CS2
InChI: InChI=1S/C14H16N4OS2/c1-3-9-12(21-14(18-9)16-4-2)13(19)17-10(8-15)11-6-5-7-20-11/h5-7,10H,3-4H2,1-2H3,(H,16,18)(H,17,19)
Instrument: Exploris 240 Orbitrap Thermo Scientific
Instrument type: LC-ESI-QFT
Ms type: MS2
Ion mode: POSITIVE
Ionization: ESI
Fragmentation mode: HCD
Collision energy: 150 % (nominal)
Resolution: 17500
Column name: XBridge C18 3.5um, 2.1x50mm, Waters
Retention time: 6.055 min
Base peak: 321.0838
Precursor m/z: 321.0838
Precursor type: [M+H]+
m/z	relative intensity	assigned
51.023	36	C4H3+
53.0387	71	C4H5+
54.0338	208	C3H4N+
56.0494	192	C3H6N+
57.9872	346	C2H2S+
58.995	143	C2H3S+
59.9902	244	CH2NS+
67.0416	186	C4H5N+
68.0494	358	C4H6N+
68.9794	176	C3HS+
70.9823	51	C2HNS+
70.9949	278	C3H3S+
71.0604	27	C3H7N2+
71.9903	55	C2H2NS+
72.0028	160	C3H4S+
78.0341	23	C5H4N+
81.0448	200	C4H5N2+
82.9949	85	C4H3S+
84.0028	300	C4H4S+
85.0107	999	C4H5S+
86.0059	99	C3H4NS+
87.0138	83	C3H5NS+
95.0604	30	C5H7N2+
98.0062	110	C4H4NS+
99.0138	146	C4H5NS+
100.0218	102	C4H6NS+
110.0063	51	C5H4NS+
113.0167	61	C4H5N2S+
114.0248	118	C4H6N2S+
122.0061	44	C6H4NS+
125.0169	85	C5H5N2S+
126.0009	36	C5H4NOS+
126.0247	113	C5H6N2S+
127.0325	195	C5H7N2S+
