Mass spectrum: Isoxaflutole; LC-ESI-QFT; MS2; CE: 45; R=35000; [M-H]-
Name: Isoxaflutole
Name: (5-cyclopropyl-1,2-oxazol-4-yl)-[2-methylsulfonyl-4-(trifluoromethyl)phenyl]methanone
Formula: C15H12F3NO4S
Exact mass: 359.04391
SMILES: O=C(c1c(onc1)C2CC2)c3ccc(cc3S(=O)(=O)C)C(F)(F)F
InChI: InChI=1S/C15H12F3NO4S/c1-24(21,22)12-6-9(15(16,17)18)4-5-10(12)13(20)11-7-19-23-14(11)8-2-3-8/h4-8H,2-3H2,1H3
Instrument: Q Exactive Plus Orbitrap Thermo Scientific
Instrument type: LC-ESI-QFT
Ms type: MS2
Ion mode: NEGATIVE
Ionization: ESI
Fragmentation mode: HCD
Collision energy: 45 (nominal)
Resolution: 35000
Column name: XBridge C18 3.5um, 2.1x50mm, Waters
Retention time: 8.6 min
Base peak: 358.0367
Precursor m/z: 358.0366
Precursor type: [M-H]-
m/z	relative intensity	assigned
63.9625	408	O2S-
65.9986	3	C3NO-
67.0189	1	C4H3O-
78.986	999	CH3O2S-
90.0349	1	C6H4N-
108.0456	57	C6H6NO-
145.0273	2	C7H4F3-
159.0429	13	C8H6F3-
185.0221	1	C9H4F3O-
213.017	1	C10H4F3O2-
228.0628	1	C14H8F2N-
248.0329	2	C13H5F3NO-
248.9841	13	C9H4F3O3S-
251.0327	4	C13H6F3O2-
276.0643	21	C15H9F3NO-
278.0436	4	C14H7F3NO2-
340.0259	2	C15H9F3NO3S-
