Mass spectrum: Alachlor OXA; LC-ESI-ITFT; MS2; CE: 90%; R=30000; [M-H]-
Name: Alachlor OXA
Name: 2-[(2,6-diethylphenyl)-(methoxymethyl)amino]-2-oxidanylidene-ethanoic acid
Formula: C14H19NO4
Exact mass: 265.1314
SMILES: CCc1cccc(CC)c1N(COC)C(=O)C(O)=O
InChI: InChI=1S/C14H19NO4/c1-4-10-7-6-8-11(5-2)12(10)15(9-19-3)13(16)14(17)18/h6-8H,4-5,9H2,1-3H3,(H,17,18)
Instrument: LTQ Orbitrap XL Thermo Scientific
Instrument type: LC-ESI-ITFT
Ms type: MS2
Ion mode: NEGATIVE
Ionization: ESI
Fragmentation mode: HCD
Collision energy: 90 % (nominal)
Resolution: 30000
Column name: XBridge C18 3.5um, 2.1x50mm, Waters
Retention time: 7.4 min
Base peak: 264.1234
Precursor m/z: 264.1241
Precursor type: [M-H]-
m/z	relative intensity	assigned
143.0738	864	C10H9N-
144.0818	181	C10H10N-
158.0973	999	C11H12N-
175.0636	74	C10H9NO2-
