Mass spectrum: Flusilazole; LC-ESI-ITFT; MS2; CE: 75%; R=7500; [M+H]+
Name: Flusilazole
Name: bis(4-fluorophenyl)-methyl-(1,2,4-triazol-1-ylmethyl)silane
Formula: C16H15F2N3Si
Exact mass: 315.0998
SMILES: n1(cncn1)C[Si](c1ccc(F)cc1)(C)c1ccc(cc1)F
InChI: InChI=1S/C16H15F2N3Si/c1-22(12-21-11-19-10-20-21,15-6-2-13(17)3-7-15)16-8-4-14(18)5-9-16/h2-11H,12H2,1H3
Instrument: LTQ Orbitrap XL Thermo Scientific
Instrument type: LC-ESI-ITFT
Ms type: MS2
Ion mode: POSITIVE
Ionization: ESI
Fragmentation mode: HCD
Collision energy: 75 % (nominal)
Resolution: 7500
Column name: XBridge C18 3.5um, 2.1x50mm, Waters
Retention time: 12.4 min
Base peak: 316.1073
Precursor m/z: 316.1076
Precursor type: [M+H]+
m/z	relative intensity	assigned
53.0385	13	C4H5+
61.0104	18	CH5OSi+
63.0061	6	CH4FSi+
64.9852	18	FH2OSi+
65.0385	5	C5H5+
77.0385	271	C6H5+
79.0008	37	CH4FOSi+
79.0542	53	C6H7+
80.9967	11	CH3F2Si+
91.0541	126	C7H7+
95.0491	26	C6H7O+
99.007	9	CH5F2OSi+
103.0542	49	C8H7+
105.0446	69	C6H5N2+
105.0698	114	C3H8FN3+
109.0446	139	C2H5F2N3+
115.0541	44	C4H6FN3+
123.0057	15	CH3F2N3Si+
125.0214	43	C6H6FSi+
128.0617	12	C5H7FN3+
129.0698	8	C5H8FN3+
139.0544	17	C11H7+
141.0166	68	C6H6FOSi+
141.0698	21	C11H9+
143.0123	5	C6H5F2Si+
143.0322	6	C6H8FOSi+
149.0213	13	C3H5F2N3Si+
149.0417	6	C8H9OSi+
151.0373	45	C8H8FSi+
151.0536	17	C7H6FN3+
152.0618	126	C7H7FN3+
153.0697	69	C7H8FN3+
155.06	12	C10H7N2+
157.028	57	C7H7F2Si+
159.0604	15	C11H8F+
164.0618	45	C8H7FN3+
165.0698	999	C8H8FN3+
166.0775	24	C8H9FN3+
170.0524	34	C7H6F2N3+
171.0434	19	C8H9F2Si+
178.0774	48	C9H9FN3+
179.0599	7	C12H7N2+
179.0857	18	C14H11+
181.0759	8	C12H9N2+
183.0602	137	C8H7F2N3+
184.068	27	C8H8F2N3+
185.0759	125	C8H9F2N3+
199.0377	23	C12H8FSi+
203.0661	6	C13H9F2+
217.0272	11	C12H7F2Si+
217.0475	29	C15H9Si+
219.0431	179	C12H9F2Si+
227.0688	9	C14H12FSi+
235.038	37	C15H8FSi+
237.0541	24	C15H10FSi+
