Mass spectrum: Ethoprop; LC-ESI-QFT; MS2; CE: 75; R=35000; [M+H]+
Name: Ethoprop
Name: 1-[ethoxy(propylsulfanyl)phosphoryl]sulfanylpropane
Formula: C8H19O2PS2
Exact mass: 242.05641
SMILES: CCCSP(=O)(OCC)SCCC
InChI: InChI=1S/C8H19O2PS2/c1-4-7-12-11(9,10-6-3)13-8-5-2/h4-8H2,1-3H3
Instrument: Q Exactive Plus Orbitrap Thermo Scientific
Instrument type: LC-ESI-QFT
Ms type: MS2
Ion mode: POSITIVE
Ionization: ESI
Fragmentation mode: HCD
Collision energy: 75 (nominal)
Resolution: 35000
Column name: XBridge C18 3.5um, 2.1x50mm, Waters
Retention time: 11.5 min
Base peak: 243.0634
Precursor m/z: 243.0637
Precursor type: [M+H]+
m/z	relative intensity	assigned
53.0022	10	C3HO+
53.9975	2	C2NO+
63.0264	4	C2H7S+
64.9787	16	H2O2P+
67.9893	4	C3O2+
77.0419	19	C3H9S+
78.9402	9	OPS+
94.9174	12	PS2+
96.9509	407	H2O2PS+
102.9767	3	C3H4PS+
110.9665	9	CH4O2PS+
112.928	54	H2OPS2+
114.9614	999	H4O3PS+
120.9873	1	C3H6OPS+
123.0204	1	C3H8O3P+
128.977	12	CH6O3PS+
130.9386	359	H4O2PS2+
138.9979	1	C3H8O2PS+
148.9491	1	H6O3PS2+
172.9854	1	C3H10O2PS2+
