Mass spectrum: Fipronil-TP RPA 200761; LC-ESI-QFT; MS2; CE: 60%; R=17500; [M-H]-
Name: Fipronil-TP RPA 200761
Name: 5-amino-1-[2,6-dichloro-4-(trifluoromethyl)phenyl]-4-(trifluoromethylsulfinyl)pyrazole-3-carboxylic acid
Formula: C12H5Cl2F6N3O3S
Exact mass: 454.9333
SMILES: NC1=C(C(=NN1C1=C(Cl)C=C(C=C1Cl)C(F)(F)F)C(O)=O)S(=O)C(F)(F)F
InChI: InChI=1S/C12H5Cl2F6N3O3S/c13-4-1-3(11(15,16)17)2-5(14)7(4)23-9(21)8(6(22-23)10(24)25)27(26)12(18,19)20/h1-2H,21H2,(H,24,25)
Instrument: Q Exactive Plus Orbitrap Thermo Scientific
Instrument type: LC-ESI-QFT
Ms type: MS2
Ion mode: NEGATIVE
Ionization: ESI
Fragmentation mode: HCD
Collision energy: 60 % (nominal)
Resolution: 17500
Column name: XBridge C18 3.5um, 2.1x50mm, Waters
Retention time: 8.064 min
Base peak: 453.926
Precursor m/z: 453.926
Precursor type: [M-H]-
m/z	relative intensity	assigned
57.9755	14	CNS-
64.0066	82	C3N2-
65.0145	43	C3HN2-
85.9706	613	C2NOS-
111.9737	198	C3N2OS-
181.0078	16	C2HF6N3-
201.0136	18	C10HF2N3-
227.9606	25	C2ClF5N3O2-
232.9489	475	C8HCl2F2N2-
236.9911	84	C10H2ClF2N3-
252.9552	999	C8H2Cl2F3N2-
256.9973	366	C10H3ClF3N3-
258.0059	16	C10H2F4N2O2-
271.9841	97	C10H2ClF3N3O-
287.9613	160	C9H4Cl2F4NO-
