Mass spectrum: Famphur; LC-ESI-QFT; MS2; CE: 90%; R=17500; [M+H]+
Name: Famphur
Name: 4-dimethoxyphosphinothioyloxy-N,N-dimethylbenzenesulfonamide
Formula: C10H16NO5PS2
Exact mass: 325.0208
SMILES: CN(C)S(=O)(=O)C1=CC=C(C=C1)OP(=S)(OC)OC
InChI: InChI=1S/C10H16NO5PS2/c1-11(2)19(12,13)10-7-5-9(6-8-10)16-17(18,14-3)15-4/h5-8H,1-4H3
Instrument: Exploris 240 Orbitrap Thermo Scientific
Instrument type: LC-ESI-QFT
Ms type: MS2
Ion mode: POSITIVE
Ionization: ESI
Fragmentation mode: HCD
Collision energy: 90 % (nominal)
Resolution: 17500
Column name: XBridge C18 3.5um, 2.1x50mm, Waters
Retention time: 6.830 min
Base peak: 326.0278
Precursor m/z: 326.028
Precursor type: [M+H]+
m/z	relative intensity	assigned
62.9452	33	PS+
62.9994	460	CH4OP+
65.0387	20	C5H5+
67.0542	21	C5H7+
77.0384	23	C6H5+
78.9943	179	CH4O2P+
79.0541	13	C6H7+
81.0101	38	CH6O2P+
89.0383	11	C7H5+
93.0099	999	C2H6O2P+
95.049	20	C6H7O+
96.003	72	C5H4S+
105.0337	7	C7H5O+
108.0028	37	C6H4S+
111.0204	28	C2H8O3P+
121.0105	15	C7H5S+
122.9899	18	C2H6NOPS+
123.9978	38	C6H4OS+
124.9821	163	C2H6O2PS+
125.0054	23	C6H5OS+
126.9767	21	C5H4PS+
127.0154	299	C2H8O4P+
142.9928	35	C2H8O3PS+
154.9715	158	C6H4OPS+
169.9586	58	C6H3O2PS+
171.9742	142	C6H5O2PS+
184.982	31	C7H6O2PS+
