Mass spectrum: Phorate Sulfoxide; LC-ESI-QFT; MS2; CE: 30%; R=17500; [M+H]+
Name: Phorate Sulfoxide
Name: diethoxy-(ethylsulfinylmethylsulfanyl)-sulfanylidene-lambda5-phosphane
Formula: C7H17O3PS3
Exact mass: 276.0077
SMILES: CCOP(=S)(OCC)SCS(=O)CC
InChI: InChI=1S/C7H17O3PS3/c1-4-9-11(12,10-5-2)13-7-14(8)6-3/h4-7H2,1-3H3
Instrument: Exploris 240 Orbitrap Thermo Scientific
Instrument type: LC-ESI-QFT
Ms type: MS2
Ion mode: POSITIVE
Ionization: ESI
Fragmentation mode: HCD
Collision energy: 30 % (nominal)
Resolution: 17500
Column name: XBridge C18 3.5um, 2.1x50mm, Waters
Retention time: 6.677 min
Base peak: 277.0147
Precursor m/z: 277.015
Precursor type: [M+H]+
m/z	relative intensity	assigned
75.0264	12	C3H7S+
96.9508	99	H2O2PS+
114.9612	119	H4O3PS+
124.9819	259	C2H6O2PS+
126.9432	19	CH4OPS2+
128.9769	12	CH6O3PS+
142.9384	787	CH4O2PS2+
153.0133	625	C4H10O2PS+
154.9749	43	C3H8OPS2+
170.9697	999	C3H8O2PS2+
199.0008	428	C5H12O2PS2+
