Mass spectrum: Nicosulfuron-TP UCSN; LC-ESI-QFT; MS2; CE: 90%; R=17500; [M+H]+
Name: Nicosulfuron-TP UCSN
Name: 2-[(Carbamoylcarbamoyl)sulfamoyl]-N,N-dimethylnicotinamide
Formula: C10H13N5O5S
Exact mass: 315.0637
SMILES: CN(C)C(=O)C1=CC=CN=C1S(=O)(=O)NC(=O)NC(N)=O
InChI: InChI=1S/C10H13N5O5S/c1-15(2)8(16)6-4-3-5-12-7(6)21(19,20)14-10(18)13-9(11)17/h3-5H,1-2H3,(H4,11,13,14,17,18)
Instrument: Q Exactive Plus Orbitrap Thermo Scientific
Instrument type: LC-ESI-QFT
Ms type: MS2
Ion mode: POSITIVE
Ionization: ESI
Fragmentation mode: HCD
Collision energy: 90 % (nominal)
Resolution: 17500
Column name: XBridge C18 3.5um, 2.1x50mm, Waters
Retention time: 1.505 min
Base peak: 316.0711
Precursor m/z: 316.071
Precursor type: [M+H]+
m/z	relative intensity	assigned
50.0151	19	C4H2+
51.0229	68	C4H3+
52.0183	2	C3H2N+
64.0181	2	C4H2N+
65.0386	15	C5H5+
69.9923	2	C2NO2+
78.0338	999	C5H4N+
80.0497	1	C5H6N+
81.0448	8	C4H5N2+
82.0288	19	C4H4NO+
91.029	4	C5H3N2+
92.0497	7	C6H6N+
96.0444	100	C5H6NO+
106.0287	276	C6H4NO+
110.06	11	C6H8NO+
112.0392	1	C5H6NO2+
137.0344	7	C6H5N2O2+
