Mass spectrum: Metosulam; LC-ESI-QFT; MS2; CE: 90; R=35000; [M-H]-
Name: Metosulam
Name: N-(2,6-dichloro-3-methyl-phenyl)-5,7-dimethoxy-[1,2,4]triazolo[1,5-a]pyrimidine-2-sulfonamide
Formula: C14H13Cl2N5O4S
Exact mass: 417.00653
SMILES: Clc1c(ccc(Cl)c1NS(=O)(=O)c2nc3nc(OC)cc(OC)n3n2)C
InChI: InChI=1S/C14H13Cl2N5O4S/c1-7-4-5-8(15)12(11(7)16)20-26(22,23)14-18-13-17-9(24-2)6-10(25-3)21(13)19-14/h4-6,20H,1-3H3
Instrument: Q Exactive Orbitrap Thermo Scientific
Instrument type: LC-ESI-QFT
Ms type: MS2
Ion mode: NEGATIVE
Ionization: ESI
Fragmentation mode: HCD
Collision energy: 90 (nominal)
Resolution: 35000
Column name: XBridge C18 3.5um, 2.1x50mm, Waters
Retention time: 7.6 min
Base peak: 415.9998
Precursor m/z: 415.9993
Precursor type: [M-H]-
m/z	relative intensity	assigned
55.0301	1	C2H3N2-
64.0067	13	C3N2-
65.0145	93	C3HN2-
65.9986	371	C3NO-
66.0097	999	C2N3-
68.014	1	C3H2NO-
78.0224	24	C4H2N2-
79.0177	12	C3HN3-
79.0302	2	C4H3N2-
82.0172	2	C3H2N2O-
92.0255	6	C4H2N3-
93.0095	24	C4HN2O-
95.025	2	C4H3N2O-
97.0518	1	C3H5N4-
106.0285	1	C4H2N4-
107.0126	18	C4HN3O-
108.0203	7	C4H2N3O-
109.0044	7	C4HN2O2-
110.0121	2	C4H2N2O2-
111.0678	5	C4H7N4-
120.0205	5	C5H2N3O-
120.044	4	C5H4N4-
121.0042	3	C5HN2O2-
121.0156	9	C4HN4O-
121.0281	2	C5H3N3O-
122.012	4	C5H2N2O2-
123.0201	26	C5H3N2O2-
134.0235	6	C5H2N4O-
135.0313	31	C5H3N4O-
136.0388	4	C5H4N4O-
151.0257	2	C5H3N4O2-
163.0262	36	C6H3N4O2-
164.0341	26	C6H4N4O2-
165.0417	3	C6H5N4O2-
179.0575	1	C7H7N4O2-
