Mass spectrum: Oxytetracycline; LC-ESI-QFT; MS2; CE: 45; R=35000; [M+H]+
Name: Oxytetracycline
Name: (4S,4aR,5S,5aR,6S,12aS)-4-(Dimethylamino)-3,5,6,10,12,12a-hexahydroxy-6-methyl-1,11-dioxo-1,4,4a,5,5a,6,11,12a-octahydro-2-tetracenecarboxamide
Name: 2-carbamoyl-4-(dimethylazaniumyl)-5,6,10,11,12a-pentahydroxy-6-methyl-3,12-dioxo-4,4a,5,5a-tetrahydrotetracen-1-olate
Formula: C22H24N2O9
Exact mass: 460.14818
SMILES: CC1(C2C(C3C(C(=O)C(=C(C3(C(=O)C2=C(C4=C1C=CC=C4O)O)O)O)C(=O)N)N(C)C)O)O
InChI: InChI=1S/C22H24N2O9/c1-21(32)7-5-4-6-8(25)9(7)15(26)10-12(21)17(28)13-14(24(2)3)16(27)11(20(23)31)19(30)22(13,33)18(10)29/h4-6,12-14,17,25-26,28,30,32-33H,1-3H3,(H2,23,31)
Instrument: Q Exactive Plus Orbitrap Thermo Scientific
Instrument type: LC-ESI-QFT
Ms type: MS2
Ion mode: POSITIVE
Ionization: ESI
Fragmentation mode: HCD
Collision energy: 45 (nominal)
Resolution: 35000
Column name: XBridge C18 3.5um, 2.1x50mm, Waters
Retention time: 4.3 min
Base peak: 461.1547
Precursor m/z: 461.1555
Precursor type: [M+H]+
m/z	relative intensity	assigned
53.0021	1	C3HO+
55.0178	6	C3H3O+
56.0495	3	C3H6N+
58.0651	125	C3H8N+
68.0494	1	C4H6N+
68.9971	3	C3HO2+
69.0334	4	C4H5O+
70.0651	15	C4H8N+
71.0127	4	C3H3O2+
71.0366	3	C3H5NO+
72.0444	9	C3H6NO+
72.0807	1	C4H10N+
74.06	5	C3H8NO+
80.0495	1	C5H6N+
81.0335	1	C5H5O+
82.0651	3	C5H8N+
83.0127	31	C4H3O2+
84.0444	16	C4H6NO+
86.06	99	C4H8NO+
97.0285	7	C5H5O2+
98.0601	367	C5H8NO+
99.0076	4	C4H3O3+
100.0755	6	C5H10NO+
107.0127	5	C6H3O2+
109.0284	11	C6H5O2+
110.06	1	C6H8NO+
111.0078	1	C5H3O3+
114.0551	3	C5H8NO2+
123.0077	15	C6H3O3+
124.0394	4	C6H6NO2+
124.0757	2	C7H10NO+
125.0234	17	C6H5O3+
126.055	111	C6H8NO2+
127.0542	3	C10H7+
128.0705	11	C6H10NO2+
135.0077	11	C7H3O3+
137.0234	10	C7H5O3+
139.0263	4	C6H5NO3+
140.0706	4	C7H10NO2+
141.0182	8	C6H5O4+
142.0499	3	C6H8NO3+
144.0656	3	C6H10NO3+
145.0651	7	C10H9O+
150.0551	1	C8H8NO2+
151.0026	11	C7H3O4+
152.0343	10	C7H6NO3+
152.0707	26	C8H10NO2+
153.0183	31	C7H5O4+
154.0499	327	C7H8NO3+
155.0339	4	C7H7O4+
156.0656	6	C7H10NO3+
157.0371	3	C6H7NO4+
159.0803	1	C11H11O+
162.0546	1	C9H8NO2+
163.0024	1	C8H3O4+
166.0499	1	C8H8NO3+
166.9976	9	C7H3O5+
168.0658	3	C8H10NO3+
169.0132	9	C7H5O5+
169.0609	1	C7H9N2O3+
170.0447	11	C7H8NO4+
170.081	3	C8H12NO3+
172.0604	48	C7H10NO4+
173.0598	23	C11H9O2+
174.0676	19	C11H10O2+
175.0755	12	C11H11O2+
178.05	4	C9H8NO3+
178.9975	19	C8H3O5+
180.0655	76	C9H10NO3+
181.0132	14	C8H5O5+
181.0372	1	C8H7NO4+
182.0812	3	C9H12NO3+
183.0291	1	C8H7O5+
185.0597	5	C12H9O2+
186.0676	3	C12H10O2+
187.0755	28	C12H11O2+
194.0449	3	C9H8NO4+
195.0802	8	C14H11O+
196.0606	20	C9H10NO4+
197.0598	4	C13H9O2+
198.0762	77	C9H12NO4+
199.075	3	C13H11O2+
200.0468	4	C12H8O3+
201.0547	999	C12H9O3+
203.0705	7	C12H11O3+
206.045	4	C10H8NO4+
208.0606	131	C10H10NO4+
211.0754	34	C14H11O2+
213.0547	198	C13H9O3+
214.0624	14	C13H10O3+
215.0705	5	C13H11O3+
217.0131	2	C11H5O5+
219.0657	2	C12H11O4+
221.0594	3	C15H9O2+
223.0755	18	C15H11O2+
224.0557	6	C10H10NO5+
225.0546	4	C14H9O3+
225.0916	2	C15H13O2+
226.0711	109	C10H12NO5+
227.0704	12	C14H11O3+
229.0497	14	C13H9O4+
229.0859	3	C14H13O3+
231.0651	8	C13H11O4+
235.0754	12	C16H11O2+
237.0545	9	C15H9O3+
237.0908	1	C16H13O2+
239.0342	10	C14H7O4+
239.0704	124	C15H11O3+
240.0414	4	C14H8O4+
241.0497	26	C14H9O4+
241.0861	3	C15H13O3+
242.0571	10	C14H10O4+
243.0653	4	C14H11O4+
247.0758	5	C17H11O2+
249.0545	7	C16H9O3+
251.0705	22	C16H11O3+
252.0413	6	C15H8O4+
253.0496	13	C15H9O4+
253.0859	9	C16H13O3+
254.0574	4	C15H10O4+
255.0653	22	C15H11O4+
256.0732	8	C15H12O4+
257.0445	66	C14H9O5+
257.0808	34	C15H13O4+
258.0525	25	C14H10O5+
259.0603	13	C14H11O5+
261.0548	3	C17H9O3+
263.0704	47	C17H11O3+
265.0499	8	C16H9O4+
265.0864	8	C17H13O3+
266.0578	7	C16H10O4+
266.1177	1	C17H16NO2+
267.0653	165	C16H11O4+
268.0367	61	C15H8O5+
269.0433	1	C15H9O5+
269.0809	19	C16H13O4+
270.0524	9	C15H10O5+
271.0601	7	C15H11O5+
273.0759	59	C15H13O5+
275.07	1	C18H11O3+
277.049	5	C17H9O4+
278.0575	1	C17H10O4+
279.0653	111	C17H11O4+
281.0448	17	C16H9O5+
281.0808	16	C17H13O4+
283.0602	653	C16H11O5+
285.0759	69	C16H13O5+
289.0495	9	C18H9O4+
291.0652	58	C18H11O4+
292.0363	4	C17H8O5+
293.0444	4	C17H9O5+
293.0805	10	C18H13O4+
294.0523	15	C17H10O5+
295.0602	28	C17H11O5+
297.0757	21	C17H13O5+
297.0995	21	C17H15NO4+
299.0551	1	C16H11O6+
301.0707	32	C16H13O6+
306.0515	3	C18H10O5+
306.1136	1	C19H16NO3+
307.0602	161	C18H11O5+
308.0679	8	C18H12O5+
309.0758	41	C18H13O5+
310.0469	1	C17H10O6+
311.0551	4	C17H11O6+
311.092	1	C18H15O5+
312.1231	88	C18H18NO4+
313.0707	3	C17H13O6+
315.0863	4	C17H15O6+
317.0446	23	C19H9O5+
319.0604	45	C19H11O5+
320.0315	10	C18H8O6+
321.0392	6	C18H9O6+
321.075	4	C19H13O5+
322.0473	82	C18H10O6+
323.055	4	C18H11O6+
325.0708	23	C18H13O6+
330.1324	1	C18H20NO5+
334.0478	3	C19H10O6+
334.1076	5	C20H16NO4+
335.0551	151	C19H11O6+
336.1233	4	C20H18NO4+
337.0707	532	C19H13O6+
338.0421	1	C18H10O7+
345.0401	5	C20H9O6+
347.0545	7	C20H11O6+
347.0782	4	C20H13NO5+
348.0259	5	C19H8O7+
348.086	2	C20H14NO5+
350.0422	341	C19H10O7+
352.0816	4	C19H14NO6+
352.1188	7	C20H18NO5+
353.0656	45	C19H13O7+
362.1026	15	C21H16NO5+
363.05	87	C20H11O7+
364.1187	1	C21H18NO5+
365.0658	463	C20H13O7+
375.0738	13	C21H13NO6+
376.0816	23	C21H14NO6+
378.0615	1	C20H12NO7+
379.1053	1	C21H17NO6+
380.1132	20	C21H18NO6+
381.0606	90	C20H13O8+
390.0974	10	C22H16NO6+
391.1047	10	C22H17NO6+
393.0842	13	C21H15NO7+
408.1079	33	C22H18NO7+
426.1183	88	C22H20NO8+
444.1293	1	C22H22NO9+
