Mass spectrum: Eseroline; LC-ESI-QFT; MS2; CE: 180; R=35000; [M+H]+
Name: Eseroline
Name: 1,3a,8-Trimethyl-1,2,3,3a,8,8a-hexahydropyrrolo[2,3-b]indol-5-ol
Name: 3,4,8b-trimethyl-2,3a-dihydro-1H-pyrrolo[2,3-b]indol-7-ol
Formula: C13H18N2O
Exact mass: 218.14191
SMILES: CC12CCN(C1N(C3=C2C=C(C=C3)O)C)C
InChI: InChI=1S/C13H18N2O/c1-13-6-7-14(2)12(13)15(3)11-5-4-9(16)8-10(11)13/h4-5,8,12,16H,6-7H2,1-3H3
Instrument: Q Exactive Plus Orbitrap Thermo Scientific
Instrument type: LC-ESI-QFT
Ms type: MS2
Ion mode: POSITIVE
Ionization: ESI
Fragmentation mode: HCD
Collision energy: 180 (nominal)
Resolution: 35000
Column name: XBridge C18 3.5um, 2.1x50mm, Waters
Retention time: 2.4 min
Base peak: 164.9844
Precursor m/z: 219.1492
Precursor type: [M+H]+
m/z	relative intensity	assigned
50.0151	182	C4H2+
51.023	627	C4H3+
52.0308	23	C4H4+
53.0022	171	C3HO+
53.0386	282	C4H5+
55.0178	56	C3H3O+
55.0542	54	C4H7+
63.0229	119	C5H3+
65.0386	787	C5H5+
66.0464	52	C5H6+
67.0416	22	C4H5N+
67.0542	18	C5H7+
68.0131	53	C3H2NO+
75.0228	70	C6H3+
77.0386	232	C6H5+
78.0338	24	C5H4N+
78.0464	162	C6H6+
79.0542	193	C6H7+
80.0494	29	C5H6N+
81.0335	26	C5H5O+
81.0573	17	C5H7N+
89.0386	333	C7H5+
90.0465	118	C7H6+
91.0543	999	C7H7+
92.0494	14	C6H6N+
93.0696	13	C7H9+
95.0492	599	C6H7O+
96.0444	58	C5H6NO+
97.0077	132	C8H+
102.0465	110	C8H6+
103.0542	167	C8H7+
104.0495	99	C7H6N+
105.0448	385	C6H5N2+
105.0698	80	C8H9+
106.065	14	C7H8N+
115.0543	509	C9H7+
116.0494	29	C8H6N+
116.0622	24	C9H8+
117.0573	553	C8H7N+
118.0651	240	C8H8N+
127.0542	24	C10H7+
128.0494	52	C9H6N+
128.0621	258	C10H8+
129.0699	28	C10H9+
130.0653	62	C9H8N+
131.0731	15	C9H9N+
132.0443	17	C8H6NO+
133.0522	17	C8H7NO+
134.0602	16	C8H8NO+
141.0701	15	C11H9+
143.0728	16	C10H9N+
144.0445	17	C9H6NO+
145.0522	18	C9H7NO+
145.0649	21	C10H9O+
146.0601	255	C9H8NO+
155.0603	54	C10H7N2+
160.0756	23	C10H10NO+
