Mass spectrum: Niclosamide; LC-ESI-QFT; MS2; CE: 75; R=35000; [M+H]+
Name: Niclosamide
Name: 5-chloro-N-(2-chloro-4-nitrophenyl)-2-hydroxybenzamide
Formula: C13H8Cl2N2O4
Exact mass: 325.98611
SMILES: C1=CC(=C(C=C1[N+](=O)[O-])Cl)NC(=O)C2=C(C=CC(=C2)Cl)O
InChI: InChI=1S/C13H8Cl2N2O4/c14-7-1-4-12(18)9(5-7)13(19)16-11-3-2-8(17(20)21)6-10(11)15/h1-6,18H,(H,16,19)
Instrument: Q Exactive Orbitrap Thermo Scientific
Instrument type: LC-ESI-QFT
Ms type: MS2
Ion mode: POSITIVE
Ionization: ESI
Fragmentation mode: HCD
Collision energy: 75 (nominal)
Resolution: 35000
Column name: XBridge C18 3.5um, 2.1x50mm, Waters
Retention time: 15.6 min
Base peak: 149.0234
Precursor m/z: 326.9934
Precursor type: [M+H]+
m/z	relative intensity	assigned
67.0542	1	C5H7+
72.9839	6	C3H2Cl+
77.0152	2	C3H6Cl+
79.0542	1	C6H7+
81.0699	1	C6H9+
91.0541	1	C7H7+
95.0491	2	C6H7O+
98.9843	999	CH4ClO3+
105.0446	1	C6H5N2+
105.07	1	C8H9+
109.0286	1	C6H5O2+
109.0648	1	C7H9O+
113.9868	1	C5H3ClO+
126.9945	8	C6H4ClO+
127.0182	15	C6H6ClN+
131.9972	1	C5H5ClO2+
145.0051	10	C6H6ClO2+
152.062	3	C12H8+
154.9894	49	C7H4ClO2+
154.9998	9	C9HNO2+
168.057	1	C12H8O+
