Mass spectrum: Pyraclostrobin; LC-ESI-ITFT; MS2; CE: 90%; R=30000; [M+H]+
Name: Pyraclostrobin
Name: methyl [2-({[1-(4-chlorophenyl)-1H-pyrazol-3-yl]oxy}methyl)phenyl]methoxycarbamate
Formula: C19H18ClN3O4
Exact mass: 387.0986
SMILES: c1(ccc(n2ccc(OCc3c(cccc3)N(OC)C(OC)=O)n2)cc1)Cl
InChI: InChI=1S/C19H18ClN3O4/c1-25-19(24)23(26-2)17-6-4-3-5-14(17)13-27-18-11-12-22(21-18)16-9-7-15(20)8-10-16/h3-12H,13H2,1-2H3
Instrument: LTQ Orbitrap XL Thermo Scientific
Instrument type: LC-ESI-ITFT
Ms type: MS2
Ion mode: POSITIVE
Ionization: ESI
Fragmentation mode: HCD
Collision energy: 90 % (nominal)
Resolution: 30000
Column name: XBridge C18 3.5um, 2.1x50mm, Waters
Retention time: 13.4 min
Base peak: 388.1064
Precursor m/z: 388.1059
Precursor type: [M+H]+
m/z	relative intensity	assigned
53.0386	11	C4H5+
65.0386	31	C5H5+
66.0464	20	C5H6+
77.0386	114	C6H5+
78.0338	14	C5H4N+
78.0464	78	C6H6+
79.0542	26	C6H7+
91.0416	48	C6H5N+
91.0542	153	C7H7+
92.0256	16	C6H4O+
92.0494	57	C6H6N+
93.0572	18	C6H7N+
95.0491	21	C6H7O+
103.0417	15	C7H5N+
104.0495	999	C7H6N+
105.0573	664	C7H7N+
106.0287	80	C6H4NO+
106.0651	134	C7H8N+
107.0729	21	C7H9N+
108.0442	21	C6H6NO+
116.0494	14	C8H6N+
117.0572	34	C8H7N+
118.0651	117	C8H8N+
119.0366	403	C7H5NO+
120.0444	663	C7H6NO+
121.0521	11	C7H7NO+
121.0648	167	C8H9O+
128.0494	31	C9H6N+
130.0288	113	C8H4NO+
130.0399	44	C7H4N3+
132.0444	711	C8H6NO+
133.0522	223	C8H7NO+
134.0236	173	C7H4NO2+
134.06	67	C8H8NO+
139.0057	55	C6H4ClN2+
148.0394	124	C8H6NO2+
149.0471	178	C8H7NO2+
162.0549	313	C9H8NO2+
163.0627	48	C9H9NO2+
204.081	12	C15H10N+
218.0838	32	C15H10N2+
253.0527	22	C15H10ClN2+
