Mass spectrum: Fexofenadine; LC-ESI-QFT; MS2; CE: 90; R=35000; [M-H]-
Name: Fexofenadine
Name: 2-[4-[1-hydroxy-4-[4-[hydroxy(diphenyl)methyl]-1-piperidinyl]butyl]phenyl]-2-methylpropanoic acid
Formula: C32H39NO4
Exact mass: 501.28791
SMILES: CC(C)(C1=CC=C(C=C1)C(CCCN2CCC(CC2)C(C3=CC=CC=C3)(C4=CC=CC=C4)O)O)C(=O)O
InChI: InChI=1S/C32H39NO4/c1-31(2,30(35)36)25-17-15-24(16-18-25)29(34)14-9-21-33-22-19-28(20-23-33)32(37,26-10-5-3-6-11-26)27-12-7-4-8-13-27/h3-8,10-13,15-18,28-29,34,37H,9,14,19-23H2,1-2H3,(H,35,36)
Instrument: Q Exactive Orbitrap Thermo Scientific
Instrument type: LC-ESI-QFT
Ms type: MS2
Ion mode: NEGATIVE
Ionization: ESI
Fragmentation mode: HCD
Collision energy: 90 (nominal)
Resolution: 35000
Column name: XBridge C18 3.5um, 2.1x50mm, Waters
Retention time: 8.2 min
Base peak: 500.2812
Precursor m/z: 500.2806
Precursor type: [M-H]-
m/z	relative intensity	assigned
80.0505	27	C5H6N-
81.0345	35	C5H5O-
82.066	31	C5H8N-
83.0503	145	C5H7O-
84.0455	42	C4H6NO-
86.0612	34	C4H8NO-
92.0506	107	C6H6N-
96.0456	33	C5H6NO-
108.0454	134	C6H6NO-
110.0611	263	C6H8NO-
112.0767	24	C6H10NO-
119.0503	152	C8H7O-
120.0457	115	C7H6NO-
130.0424	43	C9H6O-
131.0502	27	C9H7O-
133.0657	36	C9H9O-
143.0502	190	C10H7O-
145.0659	197	C10H9O-
157.0659	999	C11H9O-
159.082	29	C11H11O-
168.0818	31	C12H10N-
170.0611	44	C11H8NO-
170.097	26	C12H12N-
186.0925	58	C12H12NO-
188.1079	104	C12H14NO-
