Mass spectrum: Clarithromycin; LC-ESI-ITFT; MS2; CE: 45%; R=15000; [M+H]+
Name: Clarithromycin
Name: 6-O-Methylerythromycin
Name: (3R,4S,5S,6R,7R,9R,11R,12R,13S,14R)-6-[4-(dimethylamino)-3-hydroxy-6-methyl-tetrahydropyran-2-yl]oxy-14-ethyl-12,13-dihydroxy-4-(5-hydroxy-4-methoxy-4,6-dimethyl-tetrahydropyran-2-yl)oxy-7-methoxy-3,5,7,9,11,13-hexamethyl-oxacyclotetradecane-2,10-quinone
Formula: C38H69NO13
Exact mass: 747.4769
SMILES: CC[C@H]1OC(=O)[C@H](C)[C@@H](OC2CC(C)(OC)C(O)C(C)O2)[C@H](C)[C@@H](OC3OC(C)CC(C3O)N(C)C)[C@@](C)(C[C@@H](C)C(=O)[C@H](C)[C@@H](O)[C@]1(C)O)OC
InChI: InChI=1S/C38H69NO13/c1-15-26-38(10,45)31(42)21(4)28(40)19(2)17-37(9,47-14)33(52-35-29(41)25(39(11)12)16-20(3)48-35)22(5)30(23(6)34(44)50-26)51-27-18-36(8,46-13)32(43)24(7)49-27/h19-27,29-33,35,41-43,45H,15-18H2,1-14H3/t19-,20?,21+,22+,23-,24?,25?,26-,27?,29?,30+,31-,32?,33-,35?,36?,37-,38-/m1/s1
Instrument: LTQ Orbitrap XL Thermo Scientific
Instrument type: LC-ESI-ITFT
Ms type: MS2
Ion mode: POSITIVE
Ionization: ESI
Fragmentation mode: HCD
Collision energy: 45 % (nominal)
Resolution: 15000
Column name: XBridge C18 3.5um, 2.1x50mm, Waters
Retention time: 9.7 min
Base peak: 748.4865
Precursor m/z: 748.4842
Precursor type: [M+H]+
m/z	relative intensity	assigned
55.0542	22	C4H7+
72.0808	141	C4H10N+
73.0524	9	C3H7NO+
81.0697	10	C6H9+
83.0492	999	C5H7O+
88.0757	96	C4H10NO+
98.0964	245	C6H12N+
100.0758	29	C5H10NO+
113.0597	93	C6H9O2+
114.0913	33	C6H12NO+
116.0706	288	C5H10NO2+
116.107	256	C6H14NO+
127.0753	13	C7H11O2+
158.1175	883	C8H16NO2+
353.1224	8	C17H21O8+
