Mass spectrum: Chlorthal-dimethyl; LC-ESI-QFT; MS2; CE: 45; R=35000; [M+H]+
Name: Chlorthal-dimethyl
Name: Dimethyl 2,3,5,6-tetrachloroterephthalate
Name: Dimethyl 2,3,5,6-tetrachlorobenzene-1,4-dicarboxylate
Formula: C10H6Cl4O4
Exact mass: 329.90202
SMILES: COC(=O)C1=C(C(=C(C(=C1Cl)Cl)C(=O)OC)Cl)Cl
InChI: InChI=1S/C10H6Cl4O4/c1-17-9(15)3-5(11)7(13)4(10(16)18-2)8(14)6(3)12/h1-2H3
Instrument: Q Exactive Plus Orbitrap Thermo Scientific
Instrument type: LC-ESI-QFT
Ms type: MS2
Ion mode: POSITIVE
Ionization: ESI
Fragmentation mode: HCD
Collision energy: 45 (nominal)
Resolution: 35000
Column name: XBridge C18 3.5um, 2.1x50mm, Waters
Retention time: 13.4 min
Base peak: 245.1745
Precursor m/z: 330.9093
Precursor type: [M+H]+
m/z	relative intensity	assigned
55.0543	3	C4H7+
67.0543	3	C5H7+
77.0152	1	C3H6Cl+
79.0542	2	C6H7+
91.0543	1	C7H7+
98.9843	999	CH4ClO3+
172.9923	1	C8H7Cl2+
192.9376	2	C7H4Cl3+
220.8961	49	C7Cl3O2+
227.9066	1	C7H4Cl4+
240.8779	47	C7HCl4O+
240.8885	2	C6HCl4N2+
254.8936	2	C8H3Cl4O+
255.8648	14	C7Cl4O2+
270.8884	72	C8H3Cl4O2+
298.8835	236	C9H3Cl4O3+
