Mass spectrum: Dimethenamid OXA; LC-ESI-ITFT; MS2; CE: 75%; R=7500; [M+H]+
Name: Dimethenamid OXA
Name: [(2,4-dimethylthiophen-3-yl)(1-methoxypropan-2-yl)amino](oxo)acetic acid
Formula: C12H17NO4S
Exact mass: 271.0878
SMILES: S(C=C1C)C(C)=C1N(C(=O)C(=O)O)C(COC)C
InChI: InChI=1S/C12H17NO4S/c1-7-6-18-9(3)10(7)13(8(2)5-17-4)11(14)12(15)16/h6,8H,5H2,1-4H3,(H,15,16)
Instrument: LTQ Orbitrap XL Thermo Scientific
Instrument type: LC-ESI-ITFT
Ms type: MS2
Ion mode: POSITIVE
Ionization: ESI
Fragmentation mode: HCD
Collision energy: 75 % (nominal)
Resolution: 7500
Column name: XBridge C18 3.5um, 2.1x50mm, Waters
Retention time: 7.5 min
Base peak: 272.0948
Precursor m/z: 272.0951
Precursor type: [M+H]+
m/z	relative intensity	assigned
67.0543	12	C5H7+
70.9948	6	C3H3S+
73.0648	85	C4H9O+
77.0386	31	C6H5+
78.0463	4	C6H6+
79.0542	35	C6H7+
80.0498	5	C5H6N+
82.0652	11	C5H8N+
85.0108	13	C4H5S+
91.0541	12	C7H7+
92.0496	15	C6H6N+
93.0573	29	C6H7N+
93.0701	4	C7H9+
94.0651	104	C6H8N+
95.073	60	C6H9N+
97.0106	35	C5H5S+
98.0185	6	C5H6S+
99.0264	37	C5H7S+
101.0422	6	C5H9S+
104.0495	37	C7H6N+
105.045	12	C6H5N2+
105.0573	102	C7H7N+
106.0648	6	C7H8N+
107.0732	4	C7H9N+
107.0855	8	C8H11+
108.0808	16	C7H10N+
109.0111	9	C6H5S+
110.0605	14	C6H8NO+
111.0263	505	C6H7S+
112.0216	10	C5H6NS+
112.0342	75	C6H8S+
113.0293	19	C5H7NS+
113.042	68	C6H9S+
117.0699	5	C9H9+
118.0651	11	C8H8N+
119.073	14	C8H9N+
120.0444	42	C7H6NO+
120.0808	61	C8H10N+
121.0102	8	C7H5S+
121.0521	23	C7H7NO+
122.0968	8	C8H12N+
123.0137	28	C6H5NS+
124.0216	12	C6H6NS+
124.0339	10	C7H8S+
125.0297	9	C6H7NS+
125.042	51	C7H9S+
126.0372	999	C6H8NS+
127.0212	25	C6H7OS+
127.0451	34	C6H9NS+
128.0529	26	C6H10NS+
129.0368	13	C6H9OS+
132.0808	36	C9H10N+
133.0885	47	C9H11N+
134.0964	34	C9H12N+
135.1043	52	C9H13N+
136.0217	32	C7H6NS+
136.0348	3	C8H8S+
137.0297	11	C7H7NS+
138.0372	357	C7H8NS+
139.009	10	C6H5NOS+
139.0213	10	C7H7OS+
139.0582	7	C8H11S+
140.0528	20	C7H10NS+
149.0422	8	C9H9S+
150.0374	15	C8H8NS+
151.0449	26	C8H9NS+
151.0575	17	C9H11S+
152.0164	38	C7H6NOS+
152.0527	123	C8H10NS+
153.0243	22	C7H7NOS+
153.0606	49	C8H11NS+
154.0321	143	C7H8NOS+
155.0404	4	C7H9NOS+
166.0684	35	C9H12NS+
167.0763	15	C9H13NS+
168.084	75	C9H14NS+
240.0678	17	C11H14NO3S+
