Mass spectrum: Diprogulic Acid; LC-ESI-QFT; MS2; CE: 45%; R=17500; [M+H]+
Name: Diprogulic Acid
Name: (-)-Diacetone-2-keto-L-gulonic acid monohydrate
Name: 4,4,11,11-tetramethyl-3,5,7,10,12-pentaoxatricyclo[6.4.0.02,6]dodecane-6-carboxylic acid
Formula: C12H18O7
Exact mass: 274.1053
SMILES: CC1(OCC2C(O1)C3C(O2)(OC(O3)(C)C)C(=O)O)C
InChI: InChI=1S/C12H18O7/c1-10(2)15-5-6-7(17-10)8-12(16-6,9(13)14)19-11(3,4)18-8/h6-8H,5H2,1-4H3,(H,13,14)
Instrument: Exploris 240 Orbitrap Thermo Scientific
Instrument type: LC-ESI-QFT
Ms type: MS2
Ion mode: POSITIVE
Ionization: ESI
Fragmentation mode: HCD
Collision energy: 45 % (nominal)
Resolution: 17500
Column name: XBridge C18 3.5um, 2.1x50mm, Waters
Retention time: 4.742 min
Base peak: 275.1123
Precursor m/z: 275.1125
Precursor type: [M+H]+
m/z	relative intensity	assigned
55.0178	13	C3H3O+
57.0335	81	C3H5O+
59.0491	999	C3H7O+
69.0334	214	C4H5O+
71.0127	21	C3H3O2+
73.0282	22	C3H5O2+
85.0284	98	C4H5O2+
87.0076	76	C3H3O3+
95.0126	82	C5H3O2+
97.0284	221	C5H5O2+
103.0392	18	C4H7O3+
113.0232	84	C5H5O3+
115.0026	53	C4H3O4+
115.039	10	C5H7O3+
127.0386	29	C6H7O3+
129.0183	15	C5H5O4+
131.0338	13	C5H7O4+
141.0181	97	C6H5O4+
145.0497	13	C6H9O4+
159.0289	98	C6H7O5+
171.0655	10	C8H11O4+
