Mass spectrum: Cyflumetofen; LC-ESI-QFT; MS2; CE: 90%; R=17500; [M+H]+
Name: Cyflumetofen
Name: 2-methoxyethyl 2-(4-tert-butylphenyl)-2-cyano-3-oxo-3-[2-(trifluoromethyl)phenyl]propanoate
Formula: C24H24F3NO4
Exact mass: 447.1657
SMILES: CC(C)(C)C1=CC=C(C=C1)C(C#N)(C(=O)C2=CC=CC=C2C(F)(F)F)C(=O)OCCOC
InChI: InChI=1S/C24H24F3NO4/c1-22(2,3)16-9-11-17(12-10-16)23(15-28,21(30)32-14-13-31-4)20(29)18-7-5-6-8-19(18)24(25,26)27/h5-12H,13-14H2,1-4H3
Instrument: Exploris 240 Orbitrap Thermo Scientific
Instrument type: LC-ESI-QFT
Ms type: MS2
Ion mode: POSITIVE
Ionization: ESI
Fragmentation mode: HCD
Collision energy: 90 % (nominal)
Resolution: 17500
Column name: XBridge C18 3.5um, 2.1x50mm, Waters
Retention time: 12.979 min
Base peak: 448.1729
Precursor m/z: 448.173
Precursor type: [M+H]+
m/z	relative intensity	assigned
59.0491	6	C3H7O+
68.9946	4	CF3+
75.004	10	C3HF2+
75.0229	25	C6H3+
95.0291	17	C6H4F+
113.0396	10	C6H6FO+
125.0197	30	C7H3F2+
145.0258	999	C7H4F3+
173.0208	84	C8H4F3O+
