Mass spectrum: Fenpropimorph; LC-ESI-ITFT; MS2; CE: 45%; R=7500; [M+H]+
Name: Fenpropimorph
Name: (2S,6R)-4-[3-(4-tert-butylphenyl)-2-methyl-propyl]-2,6-dimethyl-morpholine
Formula: C20H33NO
Exact mass: 303.2557
SMILES: CC1CN(CC(O1)C)CC(C)CC2=CC=C(C=C2)C(C)(C)C
InChI: InChI=1S/C20H33NO/c1-15(12-21-13-16(2)22-17(3)14-21)11-18-7-9-19(10-8-18)20(4,5)6/h7-10,15-17H,11-14H2,1-6H3/t15?,16-,17+
Instrument: LTQ Orbitrap XL Thermo Scientific
Instrument type: LC-ESI-ITFT
Ms type: MS2
Ion mode: POSITIVE
Ionization: ESI
Fragmentation mode: HCD
Collision energy: 45 % (nominal)
Resolution: 7500
Column name: XBridge C18 3.5um, 2.1x50mm, Waters
Retention time: 9.4 min
Base peak: 304.2639
Precursor m/z: 304.2635
Precursor type: [M+H]+
m/z	relative intensity	assigned
57.0697	7	C4H9+
72.0804	2	C4H10N+
91.0538	3	C7H7+
98.0964	34	C6H12N+
102.091	2	C5H12NO+
116.1069	78	C6H14NO+
119.086	2	C9H11+
130.1226	98	C7H16NO+
132.0928	2	C10H12+
147.1168	184	C11H15+
161.1325	3	C12H17+
189.1637	27	C14H21+
248.2007	8	C16H26NO+
262.2169	1	C17H28NO+
304.2632	999	C20H34NO+
