Mass spectrum: Indapamide; LC-ESI-QFT; MS2; CE: 180; R=35000; [M+H]+
Name: Indapamide
Name: 4-chloro-N-(2-methyl-2,3-dihydroindol-1-yl)-3-sulfamoylbenzamide
Formula: C16H16ClN3O3S
Exact mass: 365.06009
SMILES: CC1CC2=CC=CC=C2N1NC(=O)C3=CC(=C(C=C3)Cl)S(=O)(=O)N
InChI: InChI=1S/C16H16ClN3O3S/c1-10-8-11-4-2-3-5-14(11)20(10)19-16(21)12-6-7-13(17)15(9-12)24(18,22)23/h2-7,9-10H,8H2,1H3,(H,19,21)(H2,18,22,23)
Instrument: Q Exactive Plus Orbitrap Thermo Scientific
Instrument type: LC-ESI-QFT
Ms type: MS2
Ion mode: POSITIVE
Ionization: ESI
Fragmentation mode: HCD
Collision energy: 180 (nominal)
Resolution: 35000
Column name: XBridge C18 3.5um, 2.1x50mm, Waters
Retention time: 6.7 min
Base peak: 366.0667
Precursor m/z: 366.0674
Precursor type: [M+H]+
m/z	relative intensity	assigned
50.0152	85	C4H2+
51.023	84	C4H3+
52.0182	2	C3H2N+
53.0022	63	C3HO+
53.0386	23	C4H5+
53.9975	17	C2NO+
54.0464	5	C4H6+
55.0179	1	C3H3O+
61.0073	26	C5H+
62.0151	106	C5H2+
63.023	372	C5H3+
64.0308	72	C5H4+
65.0386	983	C5H5+
66.0464	24	C5H6+
67.0417	2	C4H5N+
67.9893	6	C3O2+
68.997	1	C3HO2+
72.9839	12	C3H2Cl+
74.0151	53	C6H2+
75.0229	34	C6H3+
77.0386	35	C6H5+
78.0087	4	C3N3+
78.0339	5	C5H4N+
78.0464	1	C6H6+
79.0542	11	C6H7+
80.0495	1	C5H6N+
81.0335	4	C5H5O+
83.9761	5	C4HCl+
89.0386	999	C7H5+
90.0464	274	C7H6+
91.0543	364	C7H7+
93.0573	1	C6H7N+
94.0414	3	C6H6O+
95.0492	64	C6H7O+
98.9996	5	C5H4Cl+
102.0464	4	C8H6+
103.0542	32	C8H7+
105.0448	45	C6H5N2+
108.984	1	C6H2Cl+
115.0542	2	C9H7+
116.0496	11	C8H6N+
117.0573	128	C8H7N+
118.0651	28	C8H8N+
121.0278	1	C7H5O2+
122.0362	4	C7H6O2+
128.0496	1	C9H6N+
130.0652	41	C9H8N+
