Mass spectrum: N4-Acetylsulfadimethoxine; LC-ESI-ITFT; MS2; CE: 30%; R=7500; [M+H]+
Name: N4-Acetylsulfadimethoxine
Name: N-[4-[(4,6-dimethoxy-2-pyrimidinyl)sulfamoyl]phenyl]acetamide
Formula: C14H16N4O5S
Exact mass: 352.0841
SMILES: C(C)(=O)Nc1ccc(cc1)S(=O)(=O)Nc1nc(cc(n1)OC)OC
InChI: InChI=1S/C14H16N4O5S/c1-9(19)15-10-4-6-11(7-5-10)24(20,21)18-14-16-12(22-2)8-13(17-14)23-3/h4-8H,1-3H3,(H,15,19)(H,16,17,18)
Instrument: LTQ Orbitrap XL Thermo Scientific
Instrument type: LC-ESI-ITFT
Ms type: MS2
Ion mode: POSITIVE
Ionization: ESI
Fragmentation mode: HCD
Collision energy: 30 % (nominal)
Resolution: 7500
Column name: XBridge C18 3.5um, 2.1x50mm, Waters
Retention time: 6.3 min
Base peak: 353.0926
Precursor m/z: 353.0914
Precursor type: [M+H]+
m/z	relative intensity	assigned
93.0339	3	C6H5O+
108.0444	29	C6H6NO+
134.0601	49	C8H8NO+
136.0748	3	H14N3O3S+
148.0762	4	C9H10NO+
150.0545	8	C8H8NO2+
154.0611	16	C6H8N3O2+
155.0689	58	C6H9N3O2+
156.0769	137	C6H10N3O2+
162.0663	16	C8H8N3O+
164.071	7	C9H10NO2+
198.022	100	C8H8NO3S+
212.0376	7	C9H10NO3S+
218.0229	35	C6H8N3O4S+
257.104	9	C13H13N4O2+
287.114	87	C14H15N4O3+
321.0655	29	C13H13N4O4S+
353.0917	999	C14H17N4O5S+
