Mass spectrum: Rosuvastatin; LC-ESI-ITFT; MS2; CE: 90%; R=7500; [M+H]+
Name: Rosuvastatin
Name: (E,3R,5S)-7-[4-(4-fluorophenyl)-2-[methyl(methylsulfonyl)amino]-6-propan-2-ylpyrimidin-5-yl]-3,5-dihydroxyhept-6-enoic acid
Formula: C22H28FN3O6S
Exact mass: 481.16828
SMILES: CC(C)C1=NC(=NC(=C1/C=C/[C@H](C[C@H](CC(=O)O)O)O)C2=CC=C(C=C2)F)N(C)S(=O)(=O)C
InChI: InChI=1S/C22H28FN3O6S/c1-13(2)20-18(10-9-16(27)11-17(28)12-19(29)30)21(14-5-7-15(23)8-6-14)25-22(24-20)26(3)33(4,31)32/h5-10,13,16-17,27-28H,11-12H2,1-4H3,(H,29,30)/b10-9+/t16-,17-/m1/s1
Instrument: LTQ Orbitrap XL Thermo Scientific
Instrument type: LC-ESI-ITFT
Ms type: MS2
Ion mode: POSITIVE
Ionization: ESI
Fragmentation mode: HCD
Collision energy: 90 % (nominal)
Resolution: 7500
Column name: XBridge C18 3.5um, 2.1x50mm, Waters
Retention time: 9.2 min
Base peak: 482.1762
Precursor m/z: 482.1756
Precursor type: [M+H]+
m/z	relative intensity	assigned
79.0544	55	C6H7+
107.0605	82	C6H7N2+
108.0805	55	C7H10N+
109.0447	62	C7H6F+
119.0605	61	C7H7N2+
122.0399	285	C7H5FN+
133.0447	999	C9H6F+
133.0767	83	C8H9N2+
146.0521	181	
147.0603	130	C10H8F+
148.0558	180	C9H7FN+
149.1069	75	C9H13N2+
155.0601	162	C10H7N2+
160.0548	93	C7H12O2S+
161.0636	91	C10H8FN+
173.0522	61	C4H12FNO3S+
174.0711	129	C11H9FN+
183.0606	88	C13H8F+
184.0685	80	C13H9F+
185.0635	209	C12H8FN+
186.0698	243	C4H13FN3O2S+
188.0867	169	C9H16O2S+
198.0712	118	C13H9FN+
199.0781	158	C5H14FN3O2S+
200.0857	260	
201.0826	234	C12H10FN2+
202.1031	73	C13H13FN+
203.0976	41	C9H17NO2S+
211.0779	102	C6H14FN3O2S+
213.0809	142	C10H15NO2S+
214.1007	148	C9H16N3OS+
216.0938	80	C17H12+
225.0838	86	C8H16FNO3S+
227.0965	208	C11H17NO2S+
228.0937	220	C18H12+
230.109	146	C18H14+
240.0934	212	
241.1002	167	C11H17N2O2S+
242.1087	920	C14H13FN3+
254.1084	597	C12H18N2O2S+
255.1162	129	C9H20FN2O3S+
256.1244	595	C15H15FN3+
258.14	68	C15H17FN3+
268.1248	188	C16H15FN3+
270.1397	113	C13H22N2O2S+
