Mass spectrum: Propyphenazone; LC-ESI-QFT; MS2; CE: 75%; R=15000; [M+H]+
Name: Propyphenazone
Name: 1,5-dimethyl-2-phenyl-4-propan-2-ylpyrazol-3-one
Formula: C14H18N2O
Exact mass: 230.1419
SMILES: CC1=C(C(=O)N(N1C)C2=CC=CC=C2)C(C)C
InChI: InChI=1S/C14H18N2O/c1-10(2)13-11(3)15(4)16(14(13)17)12-8-6-5-7-9-12/h5-10H,1-4H3
Instrument: Orbitrap Exploris 240 Thermo Scientific
Instrument type: LC-ESI-QFT
Ms type: MS2
Ion mode: POSITIVE
Ionization: ESI
Fragmentation mode: HCD
Collision energy: 75 % (nominal)
Resolution: 15000
Column name: Atlantis C18 3um, 3.0x150mm, Waters
Retention time: 17.440 min
Base peak: 231.149
Precursor m/z: 231.1492
Precursor type: [M+H]+
Precursor intensity: 2162391296
m/z	relative intensity	assigned
55.0543	27	C4H7+
56.0495	999	C3H6N+
58.0651	39	C3H8N+
77.0389	31	C6H5+
79.0542	39	C6H7+
81.07	20	C6H9+
82.0651	74	C5H8N+
92.0494	74	C6H6N+
94.0653	38	C6H8N+
95.0731	38	C6H9N+
96.0807	65	C6H10N+
98.0605	17	C5H8NO+
104.0495	73	C7H6N+
110.0966	30	C7H12N+
112.1121	89	C7H14N+
117.0573	20	C8H7N+
117.0698	13	C9H9+
118.0653	96	C8H8N+
120.0442	39	C7H6NO+
120.0809	61	C8H10N+
124.0758	50	C7H10NO+
131.073	55	C9H9N+
132.0807	21	C9H10N+
144.0806	91	C10H10N+
146.0836	40	C9H10N2+
146.0965	77	C10H12N+
189.1022	291	C11H13N2O+
201.1024	183	C12H13N2O+
231.1488	160	C14H19N2O+
