Mass spectrum: Mepanipyrim; LC-ESI-QFT; MS2; CE: 15; R=35000; [M+H]+
Name: Mepanipyrim
Name: (4-methyl-6-prop-1-ynyl-pyrimidin-2-yl)-phenyl-amine
Formula: C14H13N3
Exact mass: 223.11095
SMILES: n1c(C#CC)cc(nc1Nc2ccccc2)C
InChI: InChI=1S/C14H13N3/c1-3-7-13-10-11(2)15-14(17-13)16-12-8-5-4-6-9-12/h4-6,8-10H,1-2H3,(H,15,16,17)
Instrument: Q Exactive Orbitrap Thermo Scientific
Instrument type: LC-ESI-QFT
Ms type: MS2
Ion mode: POSITIVE
Ionization: ESI
Fragmentation mode: HCD
Collision energy: 15 (nominal)
Resolution: 35000
Column name: XBridge C18 3.5um, 2.1x50mm, Waters
Retention time: 11.1 min
Base peak: 224.1188
Precursor m/z: 224.1182
Precursor type: [M+H]+
m/z	relative intensity	assigned
106.0652	1	C7H8N+
223.1101	1	C14H13N3+
224.1187	999	C14H14N3+
