Mass spectrum: Ketoconazole; LC-ESI-QFT; MS2; CE: 150; R=35000; [M+H]+
Name: Ketoconazole
Name: 1-[4-[4-[[(2R,4S)-2-(2,4-dichlorophenyl)-2-(imidazol-1-ylmethyl)-1,3-dioxolan-4-yl]methoxy]phenyl]piperazin-1-yl]ethanone
Formula: C26H28Cl2N4O4
Exact mass: 530.14876
SMILES: CC(=O)N1CCN(CC1)C2=CC=C(C=C2)OC[C@H]3CO[C@](O3)(CN4C=CN=C4)C5=C(C=C(C=C5)Cl)Cl
InChI: InChI=1S/C26H28Cl2N4O4/c1-19(33)31-10-12-32(13-11-31)21-3-5-22(6-4-21)34-15-23-16-35-26(36-23,17-30-9-8-29-18-30)24-7-2-20(27)14-25(24)28/h2-9,14,18,23H,10-13,15-17H2,1H3/t23-,26-/m0/s1
Instrument: Q Exactive Plus Orbitrap Thermo Scientific
Instrument type: LC-ESI-QFT
Ms type: MS2
Ion mode: POSITIVE
Ionization: ESI
Fragmentation mode: HCD
Collision energy: 150 (nominal)
Resolution: 35000
Column name: XBridge C18 3.5um, 2.1x50mm, Waters
Retention time: 7.9 min
Base peak: 531.1558
Precursor m/z: 531.156
Precursor type: [M+H]+
m/z	relative intensity	assigned
50.0151	18	C4H2+
51.0229	13	C4H3+
52.0182	5	C3H2N+
53.0022	10	C3HO+
53.0386	50	C4H5+
54.0338	259	C3H4N+
55.0179	10	C3H3O+
55.0291	2	C2H3N2+
55.0416	19	C3H5N+
56.0495	40	C3H6N+
57.0573	1	C3H7N+
61.0071	1	C5H+
62.015	8	C5H2+
63.0229	37	C5H3+
64.0308	7	C5H4+
65.0386	208	C5H5+
66.0464	15	C5H6+
67.0291	4	C3H3N2+
67.0416	4	C4H5N+
67.0542	5	C5H7+
68.0369	14	C3H4N2+
68.0495	4	C4H6N+
69.0447	93	C3H5N2+
70.0651	14	C4H8N+
71.0603	10	C3H7N2+
72.9839	56	C3H2Cl+
74.0151	53	C6H2+
75.0229	34	C6H3+
76.0306	7	C6H4+
77.0021	23	C5HO+
77.0385	41	C6H5+
78.0338	6	C5H4N+
78.0464	19	C6H6+
79.0542	29	C6H7+
80.0494	28	C5H6N+
81.0447	999	C4H5N2+
82.0525	106	C4H6N2+
82.945	3	CHCl2+
83.0603	7	C4H7N2+
83.9761	1	C4HCl+
84.9839	6	C4H2Cl+
86.9632	14	C3ClO+
87.023	4	C7H3+
88.0307	15	C7H4+
89.0386	173	C7H5+
90.0464	16	C7H6+
91.0416	6	C6H5N+
91.0542	73	C7H7+
92.0257	1	C6H4O+
92.0495	9	C6H6N+
93.0335	3	C6H5O+
93.0573	8	C6H7N+
94.0413	53	C6H6O+
94.0651	3	C6H8N+
95.0491	132	C6H7O+
96.0443	10	C5H6NO+
96.984	26	C5H2Cl+
98.0151	25	C8H2+
98.9996	39	C5H4Cl+
99.0229	91	C8H3+
100.0307	7	C8H4+
101.0386	3	C8H5+
102.0464	22	C8H6+
103.0542	57	C8H7+
104.0495	14	C7H6N+
104.0619	3	C8H8+
105.0447	76	C6H5N2+
105.0572	5	C7H7N+
106.0651	16	C7H8N+
107.0491	14	C7H7O+
107.9761	5	C6HCl+
108.0443	4	C6H6NO+
108.984	87	C6H2Cl+
109.0395	8	C5H5N2O+
109.9918	3	C6H3Cl+
110.9997	1	C6H4Cl+
111.044	22	C6H7O2+
113.0386	4	C9H5+
114.0465	7	C9H6+
115.0542	133	C9H7+
116.0494	3	C8H6N+
116.062	6	C9H8+
117.0573	26	C8H7N+
117.0698	4	C9H9+
118.0413	4	C8H6O+
118.0651	26	C8H8N+
119.0493	1	C8H7O+
119.0729	1	C8H9N+
120.0444	49	C7H6NO+
120.0808	4	C8H10N+
121.0397	33	C6H5N2O+
121.0521	10	C7H7NO+
121.0647	3	C8H9O+
122.0601	8	C7H8NO+
122.9996	167	C7H4Cl+
124.0075	21	C7H5Cl+
125.0152	5	C7H6Cl+
126.0465	4	C10H6+
127.0502	25	C5H7N2O2+
127.0542	2	C10H7+
128.0024	1	C6H5ClO+
128.0494	4	C9H6N+
128.0621	15	C10H8+
129.0447	10	C8H5N2+
129.0698	1	C10H9+
130.0652	37	C9H8N+
131.0491	24	C9H7O+
131.0604	3	C8H7N2+
131.0729	3	C9H9N+
132.0443	1	C8H6NO+
132.0569	5	C9H8O+
132.0807	1	C9H10N+
132.9606	15	C5H3Cl2+
133.0521	3	C8H7NO+
133.0761	1	C8H9N2+
133.9919	6	C8H3Cl+
134.06	5	C8H8NO+
134.9996	8	C8H4Cl+
136.0075	41	C8H5Cl+
139.0056	6	C6H4ClN2+
140.0494	4	C10H6N+
141.0574	5	C10H7N+
142.0651	4	C10H8N+
143.0729	4	C10H9N+
144.0809	4	C10H10N+
144.9606	7	C6H3Cl2+
145.0397	1	C8H5N2O+
145.0647	2	C10H9O+
146.0599	4	C9H8NO+
149.0154	13	C9H6Cl+
153.01	2	C8H6ClO+
154.065	3	C11H8N+
155.0604	5	C10H7N2+
156.0683	1	C10H8N2+
156.0808	1	C11H10N+
158.0599	8	C10H8NO+
158.9763	24	C7H5Cl2+
160.0754	1	C10H10NO+
162.0106	1	C9H5ClN+
162.9709	2	C6H5Cl2O+
163.0057	15	C8H4ClN2+
169.9684	13	C8H4Cl2+
172.9555	1	C7H3Cl2O+
172.9668	17	C6H3Cl2N2+
