Mass spectrum: Mianserin-N-Oxide; LC-ESI-QFT; MS2; CE: 120; R=35000; [M+H]+
Name: Mianserin-N-Oxide
Name: 1,2,3,4,10,14b-Hexahydro-2-methyldibenzo(c,f)pyrazino(1,2-a)azepine 2-oxide
Formula: C18H20N2O
Exact mass: 280.15756
SMILES: C[N+]1(CCN2c3ccccc3Cc4ccccc4C2C1)[O-]
InChI: InChI=1S/C18H20N2O/c1-20(21)11-10-19-17-9-5-3-7-15(17)12-14-6-2-4-8-16(14)18(19)13-20/h2-9,18H,10-13H2,1H3
Instrument: Q Exactive Plus Orbitrap Thermo Scientific
Instrument type: LC-ESI-QFT
Ms type: MS2
Ion mode: POSITIVE
Ionization: ESI
Fragmentation mode: HCD
Collision energy: 120 (nominal)
Resolution: 35000
Column name: XBridge C18 3.5um, 2.1x50mm, Waters
Retention time: 7.0 min
Base peak: 281.1644
Precursor m/z: 281.1648
Precursor type: [M+H]+
m/z	relative intensity	assigned
50.015	4	C4H2+
51.0229	2	C4H3+
53.0386	8	C4H5+
54.0338	2	C3H4N+
56.0495	109	C3H6N+
57.0573	36	C3H7N+
58.0651	51	C3H8N+
62.0151	2	C5H2+
63.0228	15	C5H3+
64.0307	9	C5H4+
65.0386	37	C5H5+
66.0464	21	C5H6+
68.0258	1	C4H4O+
70.0651	134	C4H8N+
71.0603	24	C3H7N2+
71.0729	16	C4H9N+
72.0807	378	C4H10N+
74.06	6	C3H8NO+
75.0227	1	C6H3+
77.0384	11	C6H5+
78.0463	1	C6H6+
79.0542	5	C6H7+
83.0603	1	C4H7N2+
85.076	12	C4H9N2+
89.0385	365	C7H5+
90.0464	308	C7H6+
91.0542	136	C7H7+
95.0491	25	C6H7O+
102.0464	4	C8H6+
103.0542	32	C8H7+
104.0494	4	C7H6N+
105.0448	11	C6H5N2+
105.0699	5	C8H9+
106.0652	2	C7H8N+
115.0542	316	C9H7+
116.0494	53	C8H6N+
116.062	9	C9H8+
117.0572	27	C8H7N+
117.0698	24	C9H9+
118.065	15	C8H8N+
126.046	1	C10H6+
127.0541	1	C10H7+
128.0495	15	C9H6N+
128.0619	17	C10H8+
129.0446	5	C8H5N2+
129.0573	2	C9H7N+
129.07	2	C10H9+
130.0651	28	C9H8N+
131.0729	4	C9H9N+
132.0807	1	C9H10N+
134.06	1	C8H8NO+
139.0542	10	C11H7+
140.0492	8	C10H6N+
140.0618	2	C11H8+
141.057	1	C10H7N+
141.0698	5	C11H9+
142.065	16	C10H8N+
143.073	22	C10H9N+
144.0808	26	C10H10N+
146.06	11	C9H8NO+
151.0542	6	C12H7+
152.062	107	C12H8+
153.0573	2	C11H7N+
153.0698	7	C12H9+
154.065	5	C11H8N+
155.0603	5	C10H7N2+
156.0803	1	C11H10N+
157.0886	1	C11H11N+
163.0541	13	C13H7+
164.0621	27	C13H8+
165.0699	999	C13H9+
166.0652	32	C12H8N+
166.0775	28	C13H10+
167.0729	76	C12H9N+
168.057	5	C12H8O+
169.0648	14	C12H9O+
176.0619	41	C14H8+
177.0575	38	C13H7N+
177.0697	63	C14H9+
178.0776	626	C14H10+
179.0604	6	C12H7N2+
179.0729	6	C13H9N+
179.0855	43	C14H11+
180.0804	13	C13H10N+
181.0648	2	C13H9O+
181.0886	1	C13H11N+
189.0698	81	C15H9+
190.065	149	C14H8N+
190.0775	30	C15H10+
191.0728	214	C14H9N+
191.0855	87	C15H11+
192.0807	525	C14H10N+
193.0886	250	C14H11N+
194.0963	6	C14H12N+
196.0524	1	C13H8O2+
196.0756	2	C13H10NO+
200.0623	2	C16H8+
201.07	1	C16H9+
202.0776	77	C16H10+
203.0729	19	C15H9N+
203.0854	52	C16H11+
204.0808	336	C15H10N+
204.0927	18	C16H12+
205.0885	54	C15H11N+
206.0965	26	C15H12N+
210.0915	1	C14H12NO+
214.0647	1	C16H8N+
215.0855	1	C17H11+
216.0808	47	C16H10N+
217.0886	95	C16H11N+
218.0841	22	C15H10N2+
218.0964	120	C16H12N+
219.0918	31	C15H11N2+
219.1042	90	C16H13N+
220.112	143	C16H14N+
228.081	2	C17H10N+
230.0963	11	C17H12N+
231.0915	11	C16H11N2+
231.1034	2	C17H13N+
232.0997	9	C16H12N2+
233.1073	37	C16H13N2+
245.107	2	C17H13N2+
247.1228	7	C17H15N2+
