Mass spectrum: 2-Aminobenzimidazole; LC-ESI-ITFT; MS2; CE: 75%; R=7500; [M-H]-
Name: 2-Aminobenzimidazole
Name: 1H-Benzimidazol-2-amine
Formula: C7H7N3
Exact mass: 133.0640
SMILES: NC1=NC2=C(C=CC=C2)N1
InChI: InChI=1S/C7H7N3/c8-7-9-5-3-1-2-4-6(5)10-7/h1-4H,(H3,8,9,10)
Instrument: LTQ Orbitrap XL Thermo Scientific
Instrument type: LC-ESI-ITFT
Ms type: MS2
Ion mode: NEGATIVE
Ionization: ESI
Fragmentation mode: HCD
Collision energy: 75 % (nominal)
Resolution: 7500
Column name: XBridge C18 3.5um, 2.1x50mm, Waters
Retention time: 2.6 min
Base peak: 132.0569
Precursor m/z: 132.0567
Precursor type: [M-H]-
m/z	relative intensity	assigned
132.0567	999	C7H6N3-
