Mass spectrum: Cyprodinil; LC-ESI-ITFT; MS2; CE: 90%; R=30000; [M+H]+
Name: Cyprodinil
Name: (4-cyclopropyl-6-methyl-pyrimidin-2-yl)-phenyl-amine
Formula: C14H15N3
Exact mass: 225.1260
SMILES: c1ccccc1Nc1nc(C2CC2)cc(C)n1
InChI: InChI=1S/C14H15N3/c1-10-9-13(11-7-8-11)17-14(15-10)16-12-5-3-2-4-6-12/h2-6,9,11H,7-8H2,1H3,(H,15,16,17)
Instrument: LTQ Orbitrap XL Thermo Scientific
Instrument type: LC-ESI-ITFT
Ms type: MS2
Ion mode: POSITIVE
Ionization: ESI
Fragmentation mode: HCD
Collision energy: 90 % (nominal)
Resolution: 30000
Column name: XBridge C18 3.5um, 2.1x50mm, Waters
Retention time: 9.4 min
Base peak: 226.1338
Precursor m/z: 226.1339
Precursor type: [M+H]+
m/z	relative intensity	assigned
53.0385	9	C4H5+
65.0386	153	C5H5+
67.029	21	C3H3N2+
67.0416	15	C4H5N+
67.0542	63	C5H7+
68.0494	61	C4H6N+
77.0386	191	C6H5+
79.0542	199	C6H7+
80.0495	71	C5H6N+
81.0699	131	C6H9+
82.0651	51	C5H8N+
83.0603	10	C4H7N2+
84.0808	27	C5H10N+
89.0386	27	C7H5+
91.0542	376	C7H7+
92.0495	219	C6H6N+
92.062	40	C7H8+
93.0573	999	C6H7N+
94.0651	67	C6H8N+
95.0491	23	C6H7O+
96.0444	7	C5H6NO+
104.0495	50	C7H6N+
105.0447	60	C6H5N2+
106.0651	347	C7H8N+
107.0603	12	C6H7N2+
107.0729	32	C7H9N+
108.0682	81	C6H8N2+
108.0808	505	C7H10N+
109.076	31	C6H9N2+
109.0887	5	C7H11N+
110.06	17	C6H8NO+
115.0542	25	C9H7+
116.0495	107	C8H6N+
117.0447	16	C7H5N2+
117.0573	66	C8H7N+
117.0697	6	C9H9+
118.0525	324	C7H6N2+
118.0651	84	C8H8N+
119.0604	300	C7H7N2+
123.0916	11	C7H11N2+
124.0757	26	C7H10NO+
128.0495	14	C9H6N+
130.04	11	C7H4N3+
130.0651	7	C9H8N+
131.0604	119	C8H7N2+
132.0682	177	C8H8N2+
133.076	175	C8H9N2+
134.06	18	C8H8NO+
140.0495	16	C10H6N+
141.0696	6	C11H9+
142.0651	41	C10H8N+
143.0603	128	C9H7N2+
143.0729	7	C10H9N+
144.0556	19	C8H6N3+
144.0808	78	C10H10N+
145.076	60	C9H9N2+
148.0871	13	C8H10N3+
149.071	7	C8H9N2O+
154.0651	12	C11H8N+
156.0681	21	C10H8N2+
157.076	18	C10H9N2+
159.0917	57	C10H11N2+
165.0697	16	C13H9+
166.0651	8	C12H8N+
167.073	85	C12H9N+
168.0682	41	C11H8N2+
168.0807	57	C12H10N+
169.0636	11	C10H7N3+
169.0761	33	C11H9N2+
170.0837	16	C11H10N2+
171.0916	11	C11H11N2+
180.0804	12	C13H10N+
181.076	31	C12H9N2+
182.0838	43	C12H10N2+
182.0964	8	C13H12N+
183.0791	30	C11H9N3+
183.0916	37	C12H11N2+
184.0869	69	C11H10N3+
185.1073	31	C12H13N2+
191.0729	15	C14H9N+
192.0805	5	C14H10N+
193.076	83	C13H9N2+
193.0885	7	C14H11N+
194.0838	126	C13H10N2+
195.0917	6	C13H11N2+
196.0867	10	C12H10N3+
197.0946	18	C12H11N3+
198.1026	23	C12H12N3+
199.1102	9	C12H13N3+
199.1227	5	C13H15N2+
206.0837	6	C14H10N2+
207.0916	85	C14H11N2+
208.0993	39	C14H12N2+
209.1073	69	C14H13N2+
210.1025	177	C13H12N3+
211.1105	27	C13H13N3+
224.118	62	C14H14N3+
226.1337	348	C14H16N3+
