Mass spectrum: Cefalexin; LC-ESI-QFT; MS2; CE: 30; R=35000; [M-H]-
Name: Cefalexin
Name: 7-[(2-amino-1-oxo-2-phenylethyl)amino]-3-methyl-8-oxo-5-thia-1-azabicyclo[4.2.0]oct-2-ene-2-carboxylic acid
Formula: C16H17N3O4S
Exact mass: 347.09398
SMILES: CC1=C(N2C(C(C2=O)NC(=O)C(C3=CC=CC=C3)N)SC1)C(=O)O
InChI: InChI=1S/C16H17N3O4S/c1-8-7-24-15-11(14(21)19(15)12(8)16(22)23)18-13(20)10(17)9-5-3-2-4-6-9/h2-6,10-11,15H,7,17H2,1H3,(H,18,20)(H,22,23)
Instrument: Q Exactive Orbitrap Thermo Scientific
Instrument type: LC-ESI-QFT
Ms type: MS2
Ion mode: NEGATIVE
Ionization: ESI
Fragmentation mode: HCD
Collision energy: 30 (nominal)
Resolution: 35000
Column name: XBridge C18 3.5um, 2.1x50mm, Waters
Retention time: 4.4 min
Base peak: 346.0868
Precursor m/z: 346.0867
Precursor type: [M-H]-
m/z	relative intensity	assigned
56.9805	8	C2HS-
57.9757	11	CNS-
58.9961	15	C2H3S-
60.9754	3	CHOS-
65.0145	1	C3HN2-
68.0142	2	C3H2NO-
70.9835	4	C2HNS-
71.9913	15	C2H2NS-
72.0091	22	C2H2NO2-
73.0118	39	C3H5S-
74.007	81	C2H4NS-
80.0505	8	C5H6N-
83.9914	8	C3H2NS-
84.0091	7	C3H2NO2-
85.0119	3	C4H5S-
85.0295	14	C4H5O2-
92.0505	13	C6H6N-
93.0458	12	C5H5N2-
94.0663	2	C6H8N-
96.0455	13	C5H6NO-
96.9992	7	C4H3NS-
99.9862	15	C3H2NOS-
100.0227	31	C4H6NS-
100.0404	7	C4H6NO2-
102.002	9	C3H4NOS-
102.035	24	C7H4N-
102.0384	7	C4H8NS-
104.0507	2	C7H6N-
105.0457	17	C6H5N2-
107.0615	289	C6H7N2-
108.0456	21	C6H6NO-
109.0772	350	C6H9N2-
110.0613	15	C6H8NO-
111.0201	2	C4H3N2O2-
112.0227	25	C5H6NS-
112.0405	163	C5H6NO2-
114.0383	9	C5H8NS-
115.0222	3	C5H7OS-
116.0507	31	C8H6N-
117.0347	6	C8H5O-
118.03	2	C7H4NO-
118.0538	3	C7H6N2-
118.0663	2	C8H8N-
119.0615	14	C7H7N2-
120.0455	2	C7H6NO-
121.0772	119	C7H9N2-
122.0486	14	C6H6N2O-
122.0609	2	C7H8NO-
123.0565	35	C6H7N2O-
124.0226	36	C6H6NS-
124.0404	76	C6H6NO2-
126.0197	12	C5H4NO3-
126.0383	42	C6H8NS-
127.9816	2	C4H2NO2S-
128.0176	2	C5H6NOS-
128.0508	2	C9H6N-
129.0018	2	C5H5O2S-
132.0456	2	C8H6NO-
132.0567	2	C7H6N3-
133.041	2	C7H5N2O-
134.0485	2	C7H6N2O-
134.0612	32	C8H8NO-
135.0565	220	C7H7N2O-
136.0403	4	C7H6NO2-
137.072	52	C7H9N2O-
139.0877	9	C7H11N2O-
140.0176	4	C6H6NOS-
140.0354	13	C6H6NO3-
141.0494	3	C6H9N2S-
142.0331	263	C6H8NOS-
145.0771	2	C9H9N2-
146.0611	7	C9H8NO-
147.0564	31	C8H7N2O-
149.072	3	C8H9N2O-
151.0512	59	C7H7N2O2-
152.0175	27	C7H6NOS-
156.0126	9	C6H6NO2S-
156.0693	7	C10H8N2-
157.0769	7	C10H9N2-
158.0282	69	C6H8NO2S-
159.0564	20	C9H7N2O-
161.0358	3	C8H5N2O2-
161.0718	2	C9H9N2O-
162.0436	87	C8H6N2O2-
163.0512	16	C8H7N2O2-
164.0353	10	C8H6NO3-
165.0669	98	C8H9N2O2-
166.0331	29	C8H8NOS-
167.0287	2	C7H7N2OS-
168.057	2	C10H6N3-
169.0441	90	C7H9N2OS-
171.0565	22	C10H7N2O-
172.0403	11	C10H6NO2-
172.088	8	C10H10N3-
173.0481	73	C10H7NO2-
173.0719	999	C10H9N2O-
175.0513	22	C9H7N2O2-
181.0646	49	C11H7N3-
182.0977	3	C13H12N-
183.0927	16	C12H11N2-
187.0514	41	C10H7N2O2-
189.0494	97	C10H9N2S-
189.067	319	C10H9N2O2-
190.0332	4	C10H8NOS-
192.0491	4	C10H10NOS-
196.0073	8	C8H6NO3S-
196.0313	4	C8H8N2O2S-
197.1087	22	C13H13N2-
198.0924	7	C13H12NO-
199.0513	11	C11H7N2O2-
200.0591	48	C11H8N2O2-
201.0669	33	C11H9N2O2-
205.0441	11	C10H9N2OS-
207.0598	223	C10H11N2OS-
207.0927	131	C14H11N2-
208.0876	16	C13H10N3-
212.1194	13	C13H14N3-
213.0336	7	C8H9N2O3S-
213.0547	2	C11H7N3O2-
213.1037	15	C13H13N2O-
214.062	2	C11H8N3O2-
215.07	8	C11H9N3O2-
216.0777	234	C11H10N3O2-
217.0203	3	C11H7NO2S-
219.0773	7	C11H11N2O3-
222.1037	9	C14H12N3-
223.1116	1	C14H13N3-
224.1193	238	C14H14N3-
225.1034	68	C14H13N2O-
229.0983	7	C13H13N2O2-
231.1137	2	C13H15N2O2-
233.039	568	C11H9N2O2S-
240.1143	123	C14H14N3O-
241.0984	17	C14H13N2O2-
251.0825	16	C15H11N2O2-
252.0904	60	C15H12N2O2-
256.1091	130	C14H14N3O2-
258.1067	8	C14H16N3S-
259.0916	2	C14H15N2OS-
268.1093	202	C15H14N3O2-
269.0928	2	C15H13N2O3-
274.1024	4	C14H16N3OS-
275.0861	106	C14H15N2O2S-
284.081	8	C15H12N2O4-
302.0967	8	C15H16N3O2S-
312.0984	3	C16H14N3O4-
