Mass spectrum: Meperidine; LC-ESI-QFT; MS2; CE: 75; R=35000; [M+H]+
Name: Meperidine
Name: ethyl 1-methyl-4-phenylpiperidine-4-carboxylate
Formula: C15H21NO2
Exact mass: 247.15723
SMILES: CCOC(=O)C1(CCN(CC1)C)C2=CC=CC=C2
InChI: InChI=1S/C15H21NO2/c1-3-18-14(17)15(9-11-16(2)12-10-15)13-7-5-4-6-8-13/h4-8H,3,9-12H2,1-2H3
Instrument: Q Exactive Orbitrap Thermo Scientific
Instrument type: LC-ESI-QFT
Ms type: MS2
Ion mode: POSITIVE
Ionization: ESI
Fragmentation mode: HCD
Collision energy: 75 (nominal)
Resolution: 35000
Column name: XBridge C18 3.5um, 2.1x50mm, Waters
Retention time: 5.4 min
Base peak: 248.1647
Precursor m/z: 248.1645
Precursor type: [M+H]+
m/z	relative intensity	assigned
53.0386	1	C4H5+
57.0574	7	C3H7N+
58.0651	10	C3H8N+
65.0387	3	C5H5+
67.0542	8	C5H7+
68.0495	2	C4H6N+
69.0699	2	C5H9+
70.0651	999	C4H8N+
71.073	2	C4H9N+
77.0385	1	C6H5+
79.0542	11	C6H7+
81.0335	12	C5H5O+
81.0573	1	C5H7N+
82.0651	32	C5H8N+
83.073	21	C5H9N+
84.0807	1	C5H10N+
91.0542	318	C7H7+
94.0651	7	C6H8N+
95.0492	2	C6H7O+
96.0444	4	C5H6NO+
96.0808	65	C6H10N+
97.0887	34	C6H11N+
98.0965	96	C6H12N+
99.0441	56	C5H7O2+
102.0463	1	C8H6+
103.0543	255	C8H7+
105.0336	14	C7H5O+
105.0699	62	C8H9+
107.0491	5	C7H7O+
107.0728	1	C7H9N+
115.0542	55	C9H7+
116.0621	43	C9H8+
117.0699	104	C9H9+
122.0965	1	C8H12N+
128.0621	26	C10H8+
129.0699	61	C10H9+
130.0778	25	C10H10+
131.0856	355	C10H11+
132.0808	1	C9H10N+
133.065	7	C9H9O+
140.0706	5	C7H10NO2+
141.0699	4	C11H9+
142.0866	2	C7H12NO2+
143.0603	1	C9H7N2+
143.0733	1	C10H9N+
143.0855	21	C11H11+
144.0809	1	C10H10N+
145.0649	10	C10H9O+
145.1015	13	C11H13+
146.0968	8	C10H12N+
155.0604	4	C10H7N2+
157.0886	1	C11H11N+
158.0965	10	C11H12N+
159.0807	1	C11H11O+
159.1043	13	C11H13N+
160.1122	1	C11H14N+
168.0808	2	C12H10N+
169.0887	8	C12H11N+
172.1121	26	C12H14N+
174.1278	429	C12H16N+
175.1356	5	C12H17N+
176.1434	81	C12H18N+
182.0965	1	C13H12N+
184.1122	25	C13H14N+
202.1223	11	C13H16NO+
218.1179	4	C13H16NO2+
220.1333	279	C13H18NO2+
248.1651	9	C15H22NO2+
