Mass spectrum: Fenhexamid; LC-ESI-QFT; MS2; CE: 75; R=35000; [M+H]+
Name: Fenhexamid
Name: N-(2,3-dichloro-4-hydroxy-phenyl)-1-methyl-cyclohexanecarboxamide
Formula: C14H17Cl2NO2
Exact mass: 301.06363
SMILES: O=C(Nc1ccc(O)c(Cl)c1Cl)C2(C)CCCCC2
InChI: InChI=1S/C14H17Cl2NO2/c1-14(7-3-2-4-8-14)13(19)17-9-5-6-10(18)12(16)11(9)15/h5-6,18H,2-4,7-8H2,1H3,(H,17,19)
Instrument: Q Exactive Orbitrap Thermo Scientific
Instrument type: LC-ESI-QFT
Ms type: MS2
Ion mode: POSITIVE
Ionization: ESI
Fragmentation mode: HCD
Collision energy: 75 (nominal)
Resolution: 35000
Column name: XBridge C18 3.5um, 2.1x50mm, Waters
Retention time: 11.7 min
Base peak: 302.0714
Precursor m/z: 302.0709
Precursor type: [M+H]+
m/z	relative intensity	assigned
53.0024	1	C3HO+
53.0387	23	C4H5+
55.0543	295	C4H7+
69.0699	123	C5H9+
79.0542	1	C6H7+
81.0699	2	C6H9+
97.1012	999	C7H13+
106.0289	2	C6H4NO+
114.0105	4	C5H5ClN+
142.0056	79	C6H5ClNO+
143.0134	213	C6H6ClNO+
176.9746	2	C6H5Cl2NO+
177.9823	17	C6H6Cl2NO+
201.982	3	C8H6Cl2NO+
