Mass spectrum: 4-Aminoantipyrine; LC-ESI-ITFT; MS2; CE: 90%; R=7500; [M+H]+
Name: 4-Aminoantipyrine
Name: 4-amino-1,5-dimethyl-2-phenyl-3-pyrazolin-3-one
Formula: C11H13N3O
Exact mass: 203.1059
SMILES: c(ccc1N(N(C=2C)C)C(=O)C2N)cc1
InChI: InChI=1S/C11H13N3O/c1-8-10(12)11(15)14(13(8)2)9-6-4-3-5-7-9/h3-7H,12H2,1-2H3
Instrument: LTQ Orbitrap XL Thermo Scientific
Instrument type: LC-ESI-ITFT
Ms type: MS2
Ion mode: POSITIVE
Ionization: ESI
Fragmentation mode: HCD
Collision energy: 90 % (nominal)
Resolution: 7500
Column name: XBridge C18 3.5um, 2.1x50mm, Waters
Retention time: 2.6 min
Base peak: 204.1138
Precursor m/z: 204.1131
Precursor type: [M+H]+
m/z	relative intensity	assigned
53.0384	7	C4H5+
56.0495	999	C3H6N+
58.0652	40	C3H8N+
68.0495	14	C4H6N+
77.0386	90	C6H5+
83.0604	128	C4H7N2+
91.054	12	C7H7+
92.0493	8	C6H6N+
93.0571	8	C6H7N+
94.0652	299	C6H8N+
95.0496	11	C6H7O+
103.0543	12	C8H7+
104.0495	62	C7H6N+
105.0449	27	C6H5N2+
117.0576	8	C8H7N+
118.0654	23	C8H8N+
128.0496	41	C9H6N+
130.0652	24	C9H8N+
132.0446	12	C8H6NO+
132.0812	34	C9H10N+
145.0762	14	C9H9N2+
146.06	19	C9H8NO+
160.0865	9	C9H10N3+
