Mass spectrum: Thiazopyr; LC-ESI-QFT; MS2; CE: 90; R=35000; [M+H]+
Name: Thiazopyr
Name: 2-(difluoromethyl)-4-isobutyl-5-(2-thiazolin-2-yl)-6-(trifluoromethyl)nicotinic acid methyl ester
Formula: C16H17F5N2O2S
Exact mass: 396.09309
SMILES: FC(F)c2nc(c(C/1=N/CCS\1)c(c2C(=O)OC)CC(C)C)C(F)(F)F
InChI: InChI=1S/C16H17F5N2O2S/c1-7(2)6-8-9(15(24)25-3)11(13(17)18)23-12(16(19,20)21)10(8)14-22-4-5-26-14/h7,13H,4-6H2,1-3H3
Instrument: Q Exactive Orbitrap Thermo Scientific
Instrument type: LC-ESI-QFT
Ms type: MS2
Ion mode: POSITIVE
Ionization: ESI
Fragmentation mode: HCD
Collision energy: 90 (nominal)
Resolution: 35000
Column name: XBridge C18 3.5um, 2.1x50mm, Waters
Retention time: 12.9 min
Base peak: 397.0997
Precursor m/z: 397.1004
Precursor type: [M+H]+
m/z	relative intensity	assigned
58.9949	116	C2H3S+
60.0027	130	C2H4S+
61.0106	999	C2H5S+
62.9699	11	CFS+
68.9792	7	C3HS+
73.0646	5	C4H9O+
76.0213	11	C2H6NS+
107.9712	11	
114.0336	10	C8H4N+
115.0537	13	CH11N2O2S+
128.0492	11	C9H6N+
128.0618	67	C10H8+
129.0696	37	C10H9+
133.0445	51	
134.0398	9	C5H10O2S+
136.9925	10	C6H3NOS+
139.0006	32	C7H4FS+
140.0493	54	C10H6N+
142.0649	15	
145.0645	28	C10H9O+
146.0056	59	F5H5NS+
146.052	9	C10H7F+
147.0599	44	C2H12FN2O2S+
148.0554	28	C6H12O2S+
151.9959	12	C4HF3NO2+
152.0303	13	C5H9FO2S+
152.0495	8	C11H6N+
153.0041	12	C7H4FNS+
154.0649	125	C11H8N+
155.0601	65	C2H8F5N2+
155.0724	27	C11H9N+
156.0677	13	C10H8N2+
156.9916	7	C7H3F2S+
158.0208	24	C4H8F2O2S+
158.0395	27	C7H10O2S+
159.0347	9	C6H9NO2S+
159.0474	29	C7H11O2S+
160.0557	48	C10H7FN+
161.0161	10	
161.0505	6	C6H11NO2S+
163.9956	45	C5HF3NO2+
164.9914	14	C7H2FN2S+
165.0253	37	C5H8FNO2S+
166.0117	52	C8H5FNS+
167.0608	13	C11H7N2+
168.0051	12	C5H6F2O2S+
170.0063	9	C10H4NS+
170.0209	12	C5H8F2O2S+
170.0597	15	C11H8NO+
172.0209	31	C2H7F5NS+
172.0551	46	C8H12O2S+
173.0166	51	CH6F5N2S+
173.0504	43	C7H11NO2S+
173.0702	12	C10H9N2O+
174.0588	10	C10H7FN2+
174.0709	129	C8H14O2S+
175.0662	14	C7H13NO2S+
175.0786	9	C8H15O2S+
177.0036	28	C6H2F3NO2+
177.0449	9	C12H5N2+
177.9989	27	C8H3FN2S+
178.0115	50	C6H3F3NO2+
178.0656	25	C13H8N+
179.0067	14	C5H2F3N2O2+
179.0409	31	C6H10FNO2S+
179.0535	22	C7H12FO2S+
180.0614	13	C7H13FO2S+
181.0755	15	C4H10F5N2+
181.9867	25	
182.0076	12	C5H6F2NO2S+
182.0406	8	C9H6F2NO+
182.9943	32	
183.055	11	C3H8F5N2O+
184.0023	102	C8H4F2NS+
184.0227	44	C8H7FNOS+
184.0433	7	C11H5FN2+
184.0554	14	C9H12O2S+
185.0166	10	C2H6F5N2S+
185.0308	29	C5H9F2NO2S+
186.0179	52	C5H4F4NO2+
186.0584	66	C8H12NO2S+
187.0315	6	C7H5F2N2O2+
187.0659	13	C8H13NO2S+
187.9965	9	C10H3FNS+
188.0503	48	C11H7FNO+
189.0378	24	C8H10FO2S+
189.0467	26	C7H7F2N2O2+
190.0117	12	C7H3F3NO2+
190.0458	48	C8H11FO2S+
191.0072	24	C9H4FN2S+
191.0409	114	C7H10FNO2S+
192.014	6	C6H3F3N2O2+
192.0276	36	C10H7FNS+
192.0482	7	C10H10NOS+
192.061	11	C8H13FO2S+
192.0813	94	
193.021	96	C6H4F3N2O2+
193.0763	44	C13H9N2+
194.0068	12	
194.0773	28	C8H15FO2S+
195.0018	10	C8H4FN2OS+
195.016	81	C6H7F2NO2S+
195.9897	60	C8H2F2N2S+
196.0023	15	C9H4F2NS+
196.9973	31	C5HF4N2O2+
197.0098	29	C6H3F4NO2+
197.0511	62	C12H6FN2+
198.0057	74	C8H4F2N2S+
198.018	26	C6H4F4NO2+
199.047	28	C6H11F2NO2S+
199.0661	32	C9H13NO2S+
199.0859	11	C4H12F5N2O+
200.0737	33	C9H14NO2S+
201.082	57	C9H15NO2S+
201.9927	72	C13NO2+
202.0658	35	C12H9FNO+
202.9999	143	C5H2F5NO2+
203.0417	30	C11H5F2N2+
203.061	31	C11H8FN2O+
204.0156	83	C10H5FN2S+
204.0288	29	C8H8F2NOS+
204.0614	24	C9H13FO2S+
204.9858	13	C12HN2S+
205.0229	99	C10H6FN2S+
205.0569	43	C8H12FNO2S+
206.0648	123	C8H13FNO2S+
207.0369	12	C10H5F2N2O+
207.0728	15	C11H9F2N2+
207.9882	6	C6F4N2O2+
208.0025	133	C10H4F2NS+
208.0565	14	C11H8F2NO+
208.9976	132	C9H3F2N2S+
209.0434	10	C11H10FOS+
209.0524	13	C10H7F2N2O+
210.0056	18	C9H4F2N2S+
210.0381	28	C10H9FNOS+
210.052	61	C8H12F2O2S+
211.0129	37	C6H3F4N2O2+
211.0326	57	C12H7N2S+
211.0469	51	C7H11F2NO2S+
212.9929	48	C8H3F2N2OS+
213.0267	142	C9H4F3N2O+
213.0461	12	C9H7F2N2O2+
213.9929	7	C9H3F3NS+
214.0128	12	C12H5FNS+
214.053	9	C12H7FN2O+
214.9883	187	C8H2F3N2S+
215.0079	65	C11H4FN2S+
215.0221	39	C6H8F3NO2S+
215.0613	14	C12H8FN2O+
215.9964	112	C8H3F3N2S+
216.0071	17	C9H2F4NO+
216.0285	6	C9H8F2NOS+
217.0219	9	C8H4F3N2O2+
217.0569	67	C9H12FNO2S+
218.03	13	C8H5F3N2O2+
218.0646	11	C9H13FNO2S+
219.0372	69	C8H6F3N2O2+
219.0724	23	C9H14FNO2S+
219.9837	12	C8H2F4NS+
220.0227	10	C11H7FNOS+
220.9912	15	C8H3F4NS+
221.018	73	C10H6FN2OS+
221.0321	16	C11H4F3N2+
221.0879	34	C9H16FNO2S+
222.0251	29	C13H6N2S+
222.0401	55	
222.9766	9	C12FN2S+
223.0133	149	C7H3F4N2O2+
223.0471	9	C8H11F2NO2S+
223.067	24	C14H8FN2+
223.9848	14	C9H2F2N2OS+
223.997	43	C13H3FNS+
224.021	112	C10H6F2N2S+
224.0674	14	C9H14F2O2S+
224.9921	48	C12H2FN2S+
225.0289	208	C10H7F2N2S+
225.0464	15	C13H6FN2O+
225.9802	8	C9HF3N2S+
226.0127	12	C13H5FNS+
226.0357	37	C7H6F4N2O2+
226.9882	56	C9H2F3N2S+
227.0082	15	C9H5F2N2OS+
227.0426	43	C10H6F3N2O+
227.9955	54	C9H3F3N2S+
228.0083	92	C15H2NO2+
229.004	122	C9H4F3N2S+
229.0231	8	C12H6FN2S+
229.0765	27	C16H9N2+
229.9875	34	C12H2F2NS+
230.0116	161	C14H2N2O2+
230.0447	46	C10H10F2NOS+
231.0016	13	C11H4FN2OS+
231.0374	57	C9H6F3N2O2+
231.0534	37	C7H12F3NO2S+
231.0717	6	C13H13NOS+
232.0095	32	
232.0242	7	C12H3F3N2+
232.9785	32	C8HF4N2S+
232.9987	52	C8H4F3N2OS+
233.0327	73	C9H5F4N2O+
233.0518	28	C12H7F2N2O+
233.9982	20	C14HFNO2+
234.0592	40	C15H7FN2+
234.9942	38	C13FN2O2+
235.0136	146	C11H5F2N2S+
235.0328	25	C14H7N2S+
235.0479	13	C12H6F3N2+
235.0672	51	C12H9F2N2O+
236.0203	11	C8H4F4N2O2+
236.9925	84	C10H3F2N2OS+
237.0282	14	C8H5F4N2O2+
237.0479	15	C6H10F5N2S+
237.0624	37	C9H13F2NO2S+
238.0355	17	C8H6F4N2O2+
238.0471	10	C12H7F3NO+
239.0428	37	C8H7F4N2O2+
239.9952	13	C10F4N2O+
240.0138	15	C10H3F3N2O2+
240.0282	9	C14H7FNS+
240.9873	11	C9H3F2N2O2S+
241.0042	11	C10H4F3N2S+
241.0233	49	C13H6FN2S+
241.0368	16	C11H9F2NOS+
242.0113	52	
242.0456	29	C11H6F4N2+
242.9832	206	C12HF2N2S+
243.0195	375	C10H6F3N2S+
243.9905	62	C12H2F2N2S+
244.0033	59	C13H4F2NS+
244.0272	75	
244.9984	32	C9H4F3N2OS+
245.052	26	C13H7F2N2O+
245.9871	54	C9H2F4N2S+
246.9942	83	C14FN2O2+
247.0324	7	C15H7N2S+
247.0483	12	C13H6F3N2+
248.0024	195	C9H4F4N2S+
248.015	32	C10H6F4NS+
249.0105	53	C9H5F4N2S+
249.0275	7	C9H5F4N2O2+
249.0829	42	C13H11F2N2O+
250.02	7	C14H6N2OS+
251.008	129	C11H5F2N2OS+
251.0627	9	C12H9F2N2O2+
252.0168	73	C11H6F2N2OS+
252.9878	15	C10H3F2N2O2S+
253.0004	44	C11H5F2NO2S+
253.0234	57	C14H6FN2S+
253.0578	12	C12H8F3N2O+
254.0109	26	C8H3F5N2O2+
255.0194	248	C11H6F3N2S+
255.0373	40	C11H6F3N2O2+
256.0034	99	C11H5F3NOS+
256.0269	32	C16H4N2O2+
256.0444	7	C11H7F3N2O2+
256.0576	13	C15H8F2NO+
256.9982	14	C10H4F3N2OS+
257.0343	28	C8H6F5N2O2+
258.0061	25	C13H4F2N2S+
259.0136	14	C13H5F2N2S+
259.0485	9	C11H7F4N2O+
260.003	7	C7H5F5N2OS+
260.9935	55	C9H4F3N2O2S+
261.0096	39	C15H2FN2O2+
261.0291	27	C13H7F2N2S+
262.0178	136	C15H3FN2O2+
262.9897	63	C9H3F4N2OS+
263.997	17	C9H4F4N2OS+
264.9871	36	C14H2FN2OS+
265.0586	44	C13H8F3N2O+
268.023	7	C15H7FNOS+
269.0186	36	C11H7F2N2O2S+
270.9775	38	C13HF2N2OS+
271.0143	710	C11H6F3N2OS+
271.9853	37	C13H2F2N2OS+
271.9982	57	C11H5F3NO2S+
272.0225	50	C11H7F3N2OS+
272.9937	54	C10H4F3N2O2S+
273.0076	8	C11H2F5N2O+
273.028	26	C11H5F4N2O2+
274.0177	37	C16H3FN2O2+
275.0256	611	C16H4FN2O2+
276.0334	239	C16H5FN2O2+
277.0044	34	C13H4F3N2S+
279.0031	35	C12H5F2N2O2S+
280.0097	8	C15H5FN2OS+
280.0388	14	C11H7F5NO2+
283.0138	27	C15H5F2N2S+
285.0641	14	C16H8F3N2+
288.0294	15	C15H8F2NOS+
288.9882	8	C13H3F2N2O2S+
289.0242	10	C14H7F2N2OS+
290.9842	52	C10H3F4N2O2S+
291.0204	142	C14H6F3N2S+
293.0527	7	C14H8F3N2O2+
294.0074	30	C13H5F3N2OS+
299.0093	278	C12H6F3N2O2S+
300.0168	120	C15H6F2N2OS+
303.0201	86	C15H6F3N2S+
317.0204	48	C15H7F2N2O2S+
319.0153	293	C12H7F4N2O2S+
335.0472	12	C13H11F4N2O2S+
