Mass spectrum: Spinetoram L; LC-ESI-QFT; MS2; CE: 90%; R=17500; [M+H]+
Name: Spinetoram L
Name: 3-Ethoxy-spinosyn L
Name: 15-[5-(dimethylamino)-6-methyloxan-2-yl]oxy-7-(4-ethoxy-3,5-dimethoxy-6-methyloxan-2-yl)oxy-19-ethyl-4,14-dimethyl-20-oxatetracyclo[10.10.0.02,10.05,9]docosa-3,11-diene-13,21-dione
Formula: C43H69NO10
Exact mass: 759.4921
SMILES: CCC1CCCC(C(C(=O)C2=CC3C4CC(CC4C(=CC3C2CC(=O)O1)C)OC5C(C(C(C(O5)C)OC)OCC)OC)C)OC6CCC(C(O6)C)N(C)C
InChI: InChI=1S/C43H69NO10/c1-11-27-14-13-15-36(54-38-17-16-35(44(7)8)25(5)50-38)24(4)39(46)34-21-32-30(33(34)22-37(45)52-27)18-23(3)29-19-28(20-31(29)32)53-43-42(48-10)41(49-12-2)40(47-9)26(6)51-43/h18,21,24-33,35-36,38,40-43H,11-17,19-20,22H2,1-10H3
Instrument: Exploris 240 Orbitrap Thermo Scientific
Instrument type: LC-ESI-QFT
Ms type: MS2
Ion mode: POSITIVE
Ionization: ESI
Fragmentation mode: HCD
Collision energy: 90 % (nominal)
Resolution: 17500
Column name: XBridge C18 3.5um, 2.1x50mm, Waters
Retention time: 12.856 min
Base peak: 760.5001
Precursor m/z: 760.4994
Precursor type: [M+H]+
m/z	relative intensity	assigned
81.07	33	C6H9+
82.0413	13	C5H6O+
83.0492	45	C5H7O+
83.0854	9	C6H11+
84.0807	42	C5H10N+
85.0282	14	C4H5O2+
85.0647	23	C5H9O+
85.0887	75	C5H11N+
86.0963	9	C5H12N+
87.0442	83	C4H7O2+
91.0543	16	C7H7+
95.0492	19	C6H7O+
95.0855	13	C7H11+
97.0649	160	C6H9O+
98.0965	999	C6H12N+
99.0441	46	C5H7O2+
99.0803	32	C6H11O+
124.1126	28	C8H14N+
128.0621	19	C10H8+
129.07	16	C10H9+
141.0699	30	C11H9+
142.1228	104	C8H16NO+
143.0856	22	C11H11+
152.0623	13	C12H8+
153.0701	50	C12H9+
154.0778	62	C12H10+
155.0856	44	C12H11+
165.0703	34	C13H9+
166.0778	22	C13H10+
167.0857	63	C13H11+
168.0927	34	C13H12+
169.1014	28	C13H13+
183.1171	12	C14H15+
