Mass spectrum: Sarafloxacin; LC-ESI-QFT; MS2; CE: 15; R=35000; [M+H]+
Name: Sarafloxacin
Name: 6-fluoro-1-(4-fluorophenyl)-4-oxo-7-piperazin-1-ylquinoline-3-carboxylic acid
Formula: C20H17F2N3O3
Exact mass: 385.12380
SMILES: C1CN(CCN1)C2=C(C=C3C(=C2)N(C=C(C3=O)C(=O)O)C4=CC=C(C=C4)F)F
InChI: InChI=1S/C20H17F2N3O3/c21-12-1-3-13(4-2-12)25-11-15(20(27)28)19(26)14-9-16(22)18(10-17(14)25)24-7-5-23-6-8-24/h1-4,9-11,23H,5-8H2,(H,27,28)
Instrument: Q Exactive Plus Orbitrap Thermo Scientific
Instrument type: LC-ESI-QFT
Ms type: MS2
Ion mode: POSITIVE
Ionization: ESI
Fragmentation mode: HCD
Collision energy: 15 (nominal)
Resolution: 35000
Column name: XBridge C18 3.5um, 2.1x50mm, Waters
Retention time: 4.7 min
Base peak: 386.1304
Precursor m/z: 386.1311
Precursor type: [M+H]+
m/z	relative intensity	assigned
299.097	1	C20H12FN2+
342.1414	54	C19H18F2N3O+
368.1202	22	C20H16F2N3O2+
386.131	999	C20H18F2N3O3+
