Mass spectrum: Ethofumesate-2-keto; LC-ESI-ITFT; MS2; CE: 45%; R=7500; [M+H]+
Name: Ethofumesate-2-keto
Name: 3,3-Dimethyl-2-oxo-2,3-dihydrobenzofurane-5-yl methane sulfonate
Formula: C11H12O5S
Exact mass: 256.0405
SMILES: CS(=O)(=O)Oc1cc2c(cc1)OC(=O)C2(C)C
InChI: InChI=1S/C11H12O5S/c1-11(2)8-6-7(16-17(3,13)14)4-5-9(8)15-10(11)12/h4-6H,1-3H3
Instrument: LTQ Orbitrap XL Thermo Scientific
Instrument type: LC-ESI-ITFT
Ms type: MS2
Ion mode: POSITIVE
Ionization: ESI
Fragmentation mode: HCD
Collision energy: 45 % (nominal)
Resolution: 7500
Column name: XBridge C18 3.5um, 2.1x50mm, Waters
Retention time: 6.0 min
Base peak: 297.0411
Precursor m/z: 257.0478
Precursor type: [M+H]+
m/z	relative intensity	assigned
91.0542	9	C7H7+
105.0701	35	C8H9+
121.0649	43	C8H9O+
123.0443	25	C7H7O2+
133.0645	36	C9H9O+
135.0436	27	C8H7O2+
149.0598	168	C9H9O2+
150.0674	125	C9H10O2+
160.0519	83	C10H8O2+
161.0597	131	C10H9O2+
163.0387	19	C9H7O3+
177.0547	999	C10H9O3+
178.0625	203	C10H10O3+
179.0704	29	C10H11O3+
201.0216	280	C8H9O4S+
229.0528	228	C10H13O4S+
239.0368	62	C11H11O4S+
257.0479	115	C11H13O5S+
