Mass spectrum: Nitenpyram; LC-ESI-QFT; MS2; CE: 30%; R=17500; [M+H]+
Name: Nitenpyram
Name: N-((6-chloropyridin-3-yl)methyl)-N-ethyl-N`-methyl-2-nitroethene-1,1-diamine
Name: 1-N`-[(6-chloropyridin-3-yl)methyl]-1-N`-ethyl-1-N-methyl-2-nitroethene-1,1-diamine
Formula: C11H15ClN4O2
Exact mass: 270.0884
SMILES: CCN(CC1=CN=C(C=C1)Cl)C(=C[N+](=O)[O-])NC
InChI: InChI=1S/C11H15ClN4O2/c1-3-15(11(13-2)8-16(17)18)7-9-4-5-10(12)14-6-9/h4-6,8,13H,3,7H2,1-2H3
Instrument: Exploris 240 Orbitrap Thermo Scientific
Instrument type: LC-ESI-QFT
Ms type: MS2
Ion mode: POSITIVE
Ionization: ESI
Fragmentation mode: HCD
Collision energy: 30 % (nominal)
Resolution: 17500
Column name: XBridge C18 3.5um, 2.1x50mm, Waters
Retention time: 2.582 min
Base peak: 271.0955
Precursor m/z: 271.0956
Precursor type: [M+H]+
m/z	relative intensity	assigned
56.0495	167	C3H6N+
58.0651	31	C3H8N+
70.0524	12	C3H6N2+
85.0398	39	C3H5N2O+
85.0759	38	C4H9N2+
85.0885	12	C5H11N+
86.0838	178	C4H10N2+
98.0714	14	C4H8N3+
99.0917	684	C5H11N2+
112.0869	14	C5H10N3+
114.1025	21	C5H12N3+
115.0866	60	C5H11N2O+
126.0107	53	C6H5ClN+
129.0897	46	C5H11N3O+
130.0973	56	C5H12N3O+
167.0368	22	C11H5NO+
169.0527	101	C8H10ClN2+
171.0685	15	C8H12ClN2+
188.1184	10	C11H14N3+
189.1262	120	C11H15N3+
190.1336	80	C11H16N3+
194.0606	183	C10H11ClN2+
195.0685	82	C10H12ClN2+
196.0636	382	C9H11ClN3+
210.0789	111	C10H13ClN3+
224.095	250	C11H15ClN3+
225.1028	999	C11H16ClN3+
237.0908	63	C11H14ClN4+
271.0956	194	C11H16ClN4O2+
