Mass spectrum: Dienogest; LC-ESI-QFT; MS2; CE: 45; R=35000; [M+H]+
Name: Dienogest
Name: 2-[(8S,13S,14S,17R)-17-hydroxy-13-methyl-3-oxo-1,2,6,7,8,11,12,14,15,16-decahydrocyclopenta[a]phenanthren-17-yl]acetonitrile
Formula: C20H25NO2
Exact mass: 311.18853
SMILES: C[C@]12CCC3=C4CCC(=O)C=C4CC[C@H]3[C@@H]1CC[C@]2(CC#N)O
InChI: InChI=1S/C20H25NO2/c1-19-8-6-16-15-5-3-14(22)12-13(15)2-4-17(16)18(19)7-9-20(19,23)10-11-21/h12,17-18,23H,2-10H2,1H3/t17-,18+,19+,20-/m1/s1
Instrument: Q Exactive Orbitrap Thermo Scientific
Instrument type: LC-ESI-QFT
Ms type: MS2
Ion mode: POSITIVE
Ionization: ESI
Fragmentation mode: HCD
Collision energy: 45 (nominal)
Resolution: 35000
Column name: XBridge C18 3.5um, 2.1x50mm, Waters
Retention time: 8.2 min
Base peak: 312.1959
Precursor m/z: 312.1958
Precursor type: [M+H]+
m/z	relative intensity	assigned
67.0542	5	C5H7+
69.0699	2	C5H9+
70.0651	10	C4H8N+
77.0383	2	C6H5+
79.0542	23	C6H7+
81.0699	11	C6H9+
82.0651	1	C5H8N+
83.0491	21	C5H7O+
91.0542	42	C7H7+
93.0699	52	C7H9+
94.0651	1	C6H8N+
95.0491	3	C6H7O+
95.0855	16	C7H11+
96.0808	2	C6H10N+
97.0648	16	C6H9O+
105.0699	46	C8H9+
106.0651	3	C7H8N+
107.0492	49	C7H7O+
107.0855	51	C8H11+
108.0808	4	C7H10N+
109.0648	24	C7H9O+
109.1011	3	C8H13+
111.0804	4	C7H11O+
115.0541	3	C9H7+
117.0699	25	C9H9+
118.0651	2	C8H8N+
119.0855	65	C9H11+
120.0808	26	C8H10N+
121.0648	11	C8H9O+
121.1012	8	C9H13+
122.0963	1	C8H12N+
123.0805	15	C8H11O+
128.0619	4	C10H8+
129.0699	10	C10H9+
130.0652	1	C9H8N+
131.0856	39	C10H11+
132.0808	58	C9H10N+
133.0648	80	C9H9O+
133.1012	54	C10H13+
134.0964	39	C9H12N+
135.0804	298	C9H11O+
137.096	1	C9H13O+
138.0912	1	C8H12NO+
141.0699	14	C11H9+
143.0856	40	C11H11+
144.0572	1	C10H8O+
144.0808	3	C10H10N+
144.0934	1	C11H12+
145.0649	15	C10H9O+
145.1012	19	C11H13+
146.0726	5	C10H10O+
146.0964	34	C10H12N+
147.0805	44	C10H11O+
147.1169	6	C11H15+
148.0758	3	C9H10NO+
148.0881	7	C10H12O+
148.1121	17	C10H14N+
149.0961	21	C10H13O+
150.0917	1	C9H12NO+
155.0855	10	C12H11+
157.0648	29	C11H9O+
157.1013	15	C12H13+
158.0965	24	C11H12N+
159.0805	266	C11H11O+
160.0883	4	C11H12O+
160.112	6	C11H14N+
161.0961	350	C11H13O+
162.0914	2	C10H12NO+
162.1039	34	C11H14O+
162.1279	2	C11H16N+
163.1117	8	C11H15O+
164.0832	1	C10H12O2+
167.0854	6	C13H11+
169.1012	11	C13H13+
170.0962	2	C12H12N+
171.0803	6	C12H11O+
171.1168	11	C13H15+
172.112	13	C12H14N+
173.0961	37	C12H13O+
174.0919	1	C11H12NO+
174.1036	5	C12H14O+
174.1278	2	C12H16N+
175.1118	20	C12H15O+
176.1069	13	C11H14NO+
177.091	1	C11H13O2+
179.0856	1	C14H11+
181.1014	7	C14H13+
182.0965	4	C13H12N+
183.0808	4	C13H11O+
183.1168	10	C14H15+
184.1121	13	C13H14N+
185.0963	8	C13H13O+
185.1328	4	C14H17+
186.0911	1	C12H12NO+
186.1278	3	C13H16N+
187.112	5	C13H15O+
188.1069	1	C12H14NO+
189.127	1	C13H17O+
190.1227	4	C12H16NO+
192.0933	1	C15H12+
193.1013	9	C15H13+
194.0965	1	C14H12N+
195.0805	1	C14H11O+
195.117	16	C15H15+
196.1122	1	C14H14N+
196.1246	3	C15H16+
197.0962	12	C14H13O+
197.1324	4	C15H17+
198.0915	1	C13H12NO+
198.1033	1	C14H14O+
198.1276	6	C14H16N+
199.1117	9	C14H15O+
200.1071	3	C13H14NO+
200.1196	2	C14H16O+
201.1275	3	C14H17O+
202.1228	3	C13H16NO+
205.1016	1	C16H13+
207.1167	7	C16H15+
209.0964	6	C15H13O+
209.1325	8	C16H17+
210.1281	1	C15H16N+
211.1118	15	C15H15O+
211.1483	18	C16H19+
212.1195	2	C15H16O+
212.1436	4	C15H18N+
213.1274	16	C15H17O+
219.1167	5	C17H15+
220.1244	1	C17H16+
221.1327	5	C17H17+
222.1276	1	C16H16N+
223.1121	3	C16H15O+
223.1482	2	C17H19+
224.1434	6	C16H18N+
225.1274	14	C16H17O+
225.164	4	C17H21+
227.143	3	C16H19O+
228.1385	1	C15H18NO+
229.1587	12	C16H21O+
230.1541	1	C15H20NO+
233.1321	4	C18H17+
235.1116	5	C17H15O+
235.1482	23	C18H19+
236.1434	6	C17H18N+
236.156	2	C18H20+
237.1277	5	C17H17O+
238.1231	1	C16H16NO+
238.1587	1	C17H20N+
239.1432	4	C17H19O+
242.154	7	C16H20NO+
243.1384	2	C16H19O2+
249.1275	3	C18H17O+
249.1636	2	C19H21+
250.1593	2	C18H20N+
251.1432	15	C18H19O+
252.1388	2	C17H18NO+
252.1748	7	C18H22N+
253.1588	79	C18H21O+
254.1539	8	C17H20NO+
254.1664	44	C18H22O+
259.1484	3	C20H19+
266.1541	11	C18H20NO+
266.1911	1	C19H24N+
267.1743	8	C19H23O+
268.1696	1	C18H22NO+
269.1539	14	C18H21O2+
270.1856	2	C18H24NO+
271.1693	44	C18H23O2+
276.1753	11	C20H22N+
277.1589	10	C20H21O+
279.1619	1	C19H21NO+
284.1648	7	C18H22NO2+
292.1696	1	C20H22NO+
294.1854	128	C20H24NO+
295.1691	3	C20H23O2+
312.1958	999	C20H26NO2+
