Mass spectrum: Penciclovir; LC-ESI-QFT; MS2; CE: 15; R=35000; [M+H]+
Name: Penciclovir
Name: 2-amino-9-[4-hydroxy-3-(hydroxymethyl)butyl]-3H-purin-6-one
Formula: C10H15N5O3
Exact mass: 253.11749
SMILES: C1=NC2=C(N1CCC(CO)CO)N=C(NC2=O)N
InChI: InChI=1S/C10H15N5O3/c11-10-13-8-7(9(18)14-10)12-5-15(8)2-1-6(3-16)4-17/h5-6,16-17H,1-4H2,(H3,11,13,14,18)
Instrument: Q Exactive Orbitrap Thermo Scientific
Instrument type: LC-ESI-QFT
Ms type: MS2
Ion mode: POSITIVE
Ionization: ESI
Fragmentation mode: HCD
Collision energy: 15 (nominal)
Resolution: 35000
Column name: XBridge C18 3.5um, 2.1x50mm, Waters
Retention time: 1.1 min
Base peak: 254.1247
Precursor m/z: 254.1248
Precursor type: [M+H]+
m/z	relative intensity	assigned
55.0542	1	C4H7+
57.0699	1	C4H9+
67.0542	5	C5H7+
85.0647	13	C5H9O+
103.0753	6	C5H11O2+
135.0299	2	C5H3N4O+
152.0566	478	C5H6N5O+
153.04	1	C5H5N4O2+
254.1246	999	C10H16N5O3+
