Mass spectrum: Fentanyl; LC-ESI-QFT; MS2; CE: 150; R=35000; [M+H]+
Name: Fentanyl
Name: N-phenyl-N-[1-(2-phenylethyl)piperidin-4-yl]propanamide
Formula: C22H28N2O
Exact mass: 336.22016
SMILES: CCC(=O)N(C1CCN(CC1)CCC2=CC=CC=C2)C3=CC=CC=C3
InChI: InChI=1S/C22H28N2O/c1-2-22(25)24(20-11-7-4-8-12-20)21-14-17-23(18-15-21)16-13-19-9-5-3-6-10-19/h3-12,21H,2,13-18H2,1H3
Instrument: Q Exactive Plus Orbitrap Thermo Scientific
Instrument type: LC-ESI-QFT
Ms type: MS2
Ion mode: POSITIVE
Ionization: ESI
Fragmentation mode: HCD
Collision energy: 150 (nominal)
Resolution: 35000
Column name: XBridge C18 3.5um, 2.1x50mm, Waters
Retention time: 6.0 min
Base peak: 337.2264
Precursor m/z: 337.2274
Precursor type: [M+H]+
m/z	relative intensity	assigned
50.0151	129	C4H2+
51.023	194	C4H3+
53.0386	344	C4H5+
54.0339	1	C3H4N+
55.0178	18	C3H3O+
55.0542	22	C4H7+
56.0495	13	C3H6N+
57.0335	3	C3H5O+
63.0229	2	C5H3+
65.0022	10	C4HO+
65.0386	35	C5H5+
66.0464	2	C5H6+
67.0418	1	C4H5N+
67.0542	5	C5H7+
68.9971	1	C3HO2+
70.0653	1	C4H8N+
74.0149	1	C6H2+
77.0385	613	C6H5+
78.0464	18	C6H6+
79.0542	870	C6H7+
81.0335	42	C5H5O+
81.0696	2	C6H9+
82.0652	1	C5H8N+
84.0808	1	C5H10N+
89.0385	10	C7H5+
90.0464	9	C7H6+
91.0542	52	C7H7+
93.0573	4	C6H7N+
94.0413	14	C6H6O+
94.0651	9	C6H8N+
95.0491	999	C6H7O+
96.0808	1	C6H10N+
102.0463	20	C8H6+
103.0542	630	C8H7+
104.0494	1	C7H6N+
104.062	9	C8H8+
105.0447	729	C6H5N2+
105.0699	258	C8H9+
106.0416	5	C7H6O+
109.0646	4	C7H9O+
115.0542	24	C9H7+
116.062	1	C9H8+
117.0572	31	C8H7N+
117.0698	4	C9H9+
118.065	6	C8H8N+
128.0619	4	C10H8+
130.0651	20	C9H8N+
131.0727	1	C9H9N+
