Mass spectrum: Boscalid; LC-ESI-ITFT; MS2; CE: 60%; R=15000; [M+H]+
Name: Boscalid
Name: 2-chloranyl-N-[2-(4-chlorophenyl)phenyl]pyridine-3-carboxamide
Formula: C18H12Cl2N2O
Exact mass: 342.0327
SMILES: c1ccc(c(c1)c2ccc(cc2)Cl)NC(=O)c3cccnc3Cl
InChI: InChI=1S/C18H12Cl2N2O/c19-13-9-7-12(8-10-13)14-4-1-2-6-16(14)22-18(23)15-5-3-11-21-17(15)20/h1-11H,(H,22,23)
Instrument: LTQ Orbitrap XL Thermo Scientific
Instrument type: LC-ESI-ITFT
Ms type: MS2
Ion mode: POSITIVE
Ionization: ESI
Fragmentation mode: HCD
Collision energy: 60 % (nominal)
Resolution: 15000
Column name: XBridge C18 3.5um, 2.1x50mm, Waters
Retention time: 10.5 min
Base peak: 343.0412
Precursor m/z: 343.0399
Precursor type: [M+H]+
m/z	relative intensity	assigned
76.0184	1	C5H2N+
78.0339	105	C5H4N+
94.0288	23	C5H4NO+
96.0445	92	C5H6NO+
111.995	118	C5H3ClN+
112.0394	13	C2H9ClN2O+
113.0027	4	C5H4ClN+
114.0106	96	C5H5ClN+
130.0055	17	C5H5ClNO+
139.9899	356	C6H3ClNO+
144.9925	1	C2H7Cl2N2O+
152.0622	16	C12H8+
167.0606	11	C11H7N2+
177.0575	9	C13H7N+
195.0553	7	C12H7N2O+
195.0677	2	C13H9NO+
196.0634	5	C12H8N2O+
202.0779	5	C16H10+
204.0812	3	C15H10N+
212.0261	9	C13H7ClN+
214.0416	3	C13H9ClN+
216.0808	7	C16H10N+
217.0888	9	C16H11N+
226.0659	1	C17H8N+
227.0731	12	C17H9N+
228.0808	13	C17H10N+
229.0301	1	C10H11Cl2N2+
229.0771	2	C16H9N2+
229.0887	20	C17H11N+
230.0369	11	C13H9ClNO+
238.0419	11	C15H9ClN+
240.0581	4	C15H11ClN+
242.0839	21	C17H10N2+
243.0918	111	C17H11N2+
244.0996	61	C17H12N2+
245.0711	2	C16H9N2O+
245.0838	7	C17H11NO+
246.0784	1	C16H10N2O+
251.0509	2	C16H10ClN+
253.0762	58	C18H9N2+
254.0841	113	C18H10N2+
258.0796	1	C17H10N2O+
262.0418	9	C17H9ClN+
263.0368	2	C16H8ClN2+
264.0575	22	C17H11ClN+
265.0528	2	C16H10ClN2+
269.0701	1	C18H9N2O+
270.079	33	C18H10N2O+
271.0869	965	C18H11N2O+
272.0947	999	C18H12N2O+
278.0604	1	C17H11ClN2+
279.0685	16	C17H12ClN2+
280.0526	3	C17H11ClNO+
286.0733	1	C18H10N2O2+
289.0528	261	C18H10ClN2+
290.0367	2	C18H9ClNO+
292.0399	3	C17H9ClN2O+
305.0477	16	C18H10ClN2O+
306.0557	10	C18H11ClN2O+
307.0634	679	C18H12ClN2O+
328.0168	4	C17H10Cl2N2O+
343.0406	1	C18H13Cl2N2O+
