Mass spectrum: Chlorthiophos; LC-ESI-QFT; MS2; CE: 30%; R=17500; [M+H]+
Name: Chlorthiophos
Name: (2,5-dichloro-4-methylsulfanylphenoxy)-diethoxy-sulfanylidene-lambda5-phosphane
Formula: C11H15Cl2O3PS2
Exact mass: 359.9577
SMILES: CCOP(=S)(OCC)OC1=CC(=C(C=C1Cl)SC)Cl
InChI: InChI=1S/C11H15Cl2O3PS2/c1-4-14-17(18,15-5-2)16-10-6-9(13)11(19-3)7-8(10)12/h6-7H,4-5H2,1-3H3
Instrument: Exploris 240 Orbitrap Thermo Scientific
Instrument type: LC-ESI-QFT
Ms type: MS2
Ion mode: POSITIVE
Ionization: ESI
Fragmentation mode: HCD
Collision energy: 30 % (nominal)
Resolution: 17500
Column name: XBridge C18 3.5um, 2.1x50mm, Waters
Retention time: 14.135 min
Base peak: 360.9648
Precursor m/z: 360.965
Precursor type: [M+H]+
m/z	relative intensity	assigned
78.967	3	CH3S2+
190.9481	46	C6H5ClOPS+
191.956	153	C6H6ClOPS+
208.9588	43	C6H7ClO2PS+
219.9865	3	C8H10ClOPS+
222.9201	51	C6H5ClOPS2+
224.9359	309	C6H7ClOPS2+
304.9022	999	C7H8Cl2O3PS2+
332.9334	78	C9H12Cl2O3PS2+
360.9652	8	C11H16Cl2O3PS2+
