Mass spectrum: Fenpiclonil; LC-ESI-QFT; MS2; CE: 180%; R=17500; [M+H]+
Name: Fenpiclonil
Name: 4-(2,3-dichlorophenyl)-1H-pyrrole-3-carbonitrile
Formula: C11H6Cl2N2
Exact mass: 235.9908
SMILES: C1=CC(=C(C(=C1)Cl)Cl)C2=CNC=C2C#N
InChI: InChI=1S/C11H6Cl2N2/c12-10-3-1-2-8(11(10)13)9-6-15-5-7(9)4-14/h1-3,5-6,15H
Instrument: Exploris 240 Orbitrap Thermo Scientific
Instrument type: LC-ESI-QFT
Ms type: MS2
Ion mode: POSITIVE
Ionization: ESI
Fragmentation mode: HCD
Collision energy: 180 % (nominal)
Resolution: 17500
Column name: XBridge C18 3.5um, 2.1x50mm, Waters
Retention time: 8.123 min
Base peak: 236.998
Precursor m/z: 236.9981
Precursor type: [M+H]+
m/z	relative intensity	assigned
62.0151	234	C5H2+
63.0229	623	C5H3+
64.0181	116	C4H2N+
65.0387	108	C5H5+
72.9839	174	C3H2Cl+
74.0151	90	C6H2+
75.0228	158	C6H3+
86.015	447	C7H2+
87.0103	62	C6HN+
88.0182	182	C6H2N+
88.0306	322	C7H4+
89.0385	269	C7H5+
90.0338	55	C6H4N+
96.9839	80	C5H2Cl+
99	28	C5H4Cl+
99.0231	33	C8H3+
111.0108	37	C8HN+
112.0184	98	C8H2N+
112.0306	115	C9H4+
113.0385	999	C9H5+
114.034	225	C8H4N+
122.9994	27	C7H4Cl+
138.0337	281	C10H4N+
139.0059	27	C6H4ClN2+
139.0415	77	C10H5N+
140.0495	345	C10H6N+
146.9997	39	C9H4Cl+
166.053	33	C11H6N2+
