Mass spectrum: Flumorph; LC-ESI-QFT; MS2; CE: 150%; R=17500; [M+H]+
Name: Flumorph
Name: Fumalin
Name: 3-(3,4-dimethoxyphenyl)-3-(4-fluorophenyl)-1-morpholin-4-ylprop-2-en-1-one
Formula: C21H22FNO4
Exact mass: 371.1533
SMILES: COC1=C(C=C(C=C1)C(=CC(=O)N2CCOCC2)C3=CC=C(C=C3)F)OC
InChI: InChI=1S/C21H22FNO4/c1-25-19-8-5-16(13-20(19)26-2)18(15-3-6-17(22)7-4-15)14-21(24)23-9-11-27-12-10-23/h3-8,13-14H,9-12H2,1-2H3
Instrument: Exploris 240 Orbitrap Thermo Scientific
Instrument type: LC-ESI-QFT
Ms type: MS2
Ion mode: POSITIVE
Ionization: ESI
Fragmentation mode: HCD
Collision energy: 150 % (nominal)
Resolution: 17500
Column name: XBridge C18 3.5um, 2.1x50mm, Waters
Retention time: 7.522 min
Base peak: 274.2527
Precursor m/z: 372.1606
Precursor type: [M+H]+
m/z	relative intensity	assigned
50.015	26	C4H2+
51.0228	146	C4H3+
53.0385	76	C4H5+
55.0179	27	C3H3O+
57.0137	29	C3H2F+
63.023	69	C5H3+
64.0307	37	C5H4+
65.0386	141	C5H5+
66.0463	242	C5H6+
70.0286	123	C3H4NO+
75.0228	277	C6H3+
76.0306	25	C6H4+
77.0386	244	C6H5+
79.018	44	C5H3O+
79.0541	22	C6H7+
83.0291	237	C5H4F+
89.0387	34	C7H5+
92.0255	101	C6H4O+
94.0413	70	C6H6O+
95.0289	100	C6H4F+
95.0493	61	C6H7O+
107.0128	64	C6H3O2+
109.0448	118	C7H6F+
113.0402	33	C6H6FO+
121.0284	114	C7H5O2+
125.0388	56	C10H5+
133.0448	234	C9H6F+
144.0369	39	C10H5F+
145.0449	56	C10H6F+
150.0465	62	C12H6+
152.0622	64	C12H8+
157.0448	210	C11H6F+
163.0542	313	C13H7+
165.07	143	C13H9+
168.0373	25	C12H5F+
169.0447	54	C12H6F+
170.0525	999	C12H7F+
171.0603	70	C12H8F+
174.0462	31	C14H6+
175.0546	59	C14H7+
176.0623	56	C14H8+
181.0444	123	C13H6F+
182.0528	252	C13H7F+
183.0605	938	C13H8F+
186.0472	28	C12H7FO+
187.0559	37	C12H8FO+
194.0517	84	C14H7F+
195.0601	38	C14H8F+
196.0683	105	C14H9F+
