Mass spectrum: Pinoxaden; LC-ESI-ITFT; MS2; CE: 90%; R=7500; [M+H]+
Name: Pinoxaden
Name: 8-(2,6-diethyl-4-methylphenyl)-1,2,4,5-tetrahydro-7-oxo-7H-pyrazolo(1,2-d)(1,4,5)oxadiazepin-9-yl 2,2-dimethylpropanoate
Formula: C23H32N2O4
Exact mass: 400.2368
SMILES: CC(C)(C)C(=O)O/C2=C(/C(=O)N1CCOCCN12)c3c(CC)cc(C)cc3CC
InChI: InChI=1S/C23H32N2O4/c1-7-16-13-15(3)14-17(8-2)18(16)19-20(26)24-9-11-28-12-10-25(24)21(19)29-22(27)23(4,5)6/h13-14H,7-12H2,1-6H3
Instrument: LTQ Orbitrap XL Thermo Scientific
Instrument type: LC-ESI-ITFT
Ms type: MS2
Ion mode: POSITIVE
Ionization: ESI
Fragmentation mode: HCD
Collision energy: 90 % (nominal)
Resolution: 7500
Column name: XBridge C18 3.5um, 2.1x50mm, Waters
Retention time: 13.7 min
Base peak: 401.2442
Precursor m/z: 401.2435
Precursor type: [M+H]+
m/z	relative intensity	assigned
57.0699	489	C4H9+
71.0604	170	C3H7N2+
85.0395	71	C3H5N2O+
91.0543	229	C7H7+
93.0698	90	C7H9+
101.071	93	C4H9N2O+
103.0542	33	C8H7+
105.07	283	C8H9+
115.0543	83	C9H7+
116.0622	73	C9H8+
117.0699	248	C9H9+
118.0652	62	C8H8N+
119.0856	253	C9H11+
128.0621	75	C10H8+
129.0701	257	C10H9+
130.0652	76	C9H8N+
130.0778	139	C10H10+
131.073	152	C9H9N+
131.0856	999	C10H11+
132.0567	71	C9H8O+
132.0813	36	C9H10N+
133.1012	235	C10H13+
139.0507	23	C6H7N2O2+
141.0697	48	C11H9+
142.0657	47	C10H8N+
142.078	55	C11H10+
143.073	59	C10H9N+
143.0856	81	C11H11+
144.081	120	C10H10N+
144.0933	52	C11H12+
145.065	168	C10H9O+
145.0888	101	C10H11N+
145.1015	126	C11H13+
146.0599	128	C9H8NO+
146.0967	317	C10H12N+
147.0805	42	C10H11O+
147.1168	36	C11H15+
155.0863	22	C12H11+
156.0806	114	C11H10N+
157.0881	56	C11H11N+
157.1013	40	C12H13+
158.0734	97	C11H10O+
158.0962	81	C11H12N+
159.0679	61	C10H9NO+
159.0806	244	C11H11O+
159.1045	44	C11H13N+
159.1169	150	C12H15+
160.0752	85	C10H10NO+
160.0885	197	C11H12O+
160.1113	31	C11H14N+
170.096	79	C12H12N+
172.0627	24	C10H8N2O+
172.0765	42	C11H10NO+
172.1118	46	C12H14N+
174.0914	257	C11H12NO+
185.0707	76	C11H9N2O+
186.0548	34	C11H8NO2+
187.0755	93	C12H11O2+
187.1111	25	C13H15O+
188.1071	100	C12H14NO+
189.1394	28	C12H17N2+
198.091	57	C13H12NO+
229.0969	53	C13H13N2O2+
271.1445	88	C16H19N2O2+
