Mass spectrum: 1H-1,2,3-Triazole; LC-ESI-QFT; MS2; CE: 15; R=35000; [M+H]+
Name: 1H-1,2,3-Triazole
Name: 2H-1,2,3-triazole
Formula: C2H3N3
Exact mass: 69.03270
SMILES: c1cnn[nH]1
InChI: InChI=1S/C2H3N3/c1-2-4-5-3-1/h1-2H,(H,3,4,5)
Instrument: Q Exactive Orbitrap Thermo Scientific
Instrument type: LC-ESI-QFT
Ms type: MS2
Ion mode: POSITIVE
Ionization: ESI
Fragmentation mode: HCD
Collision energy: 15 (nominal)
Resolution: 35000
Column name: XBridge C18 3.5um, 2.1x50mm, Waters
Retention time: 1.0 min
Base peak: 70.0405
Precursor m/z: 70.04
Precursor type: [M+H]+
m/z	relative intensity	assigned
70.0399	999	C2H4N3+
