Mass spectrum: Norfenfluramine; LC-ESI-QFT; MS2; CE: 180; R=35000; [M+H]+
Name: Norfenfluramine
Name: 1-[3-(trifluoromethyl)phenyl]propan-2-amine
Formula: C10H12F3N
Exact mass: 203.09218
SMILES: CC(CC1=CC(=CC=C1)C(F)(F)F)N
InChI: InChI=1S/C10H12F3N/c1-7(14)5-8-3-2-4-9(6-8)10(11,12)13/h2-4,6-7H,5,14H2,1H3
Instrument: Q Exactive Plus Orbitrap Thermo Scientific
Instrument type: LC-ESI-QFT
Ms type: MS2
Ion mode: POSITIVE
Ionization: ESI
Fragmentation mode: HCD
Collision energy: 180 (nominal)
Resolution: 35000
Column name: XBridge C18 3.5um, 2.1x50mm, Waters
Retention time: 5.8 min
Base peak: 204.0993
Precursor m/z: 204.0995
Precursor type: [M+H]+
m/z	relative intensity	assigned
50.0151	13	C4H2+
51.0229	8	C4H3+
53.0022	13	C3HO+
53.9975	1	C2NO+
57.0135	340	C3H2F+
59.0291	102	C3H4F+
61.0072	12	C5H+
62.0151	58	C5H2+
63.0229	373	C5H3+
64.0307	32	C5H4+
65.0197	1	C2H3F2+
65.0385	12	C5H5+
66.0463	2	C5H6+
68.9946	19	CF3+
69.0135	8	C4H2F+
71.0292	1	C4H4F+
74.015	61	C6H2+
75.004	23	C3HF2+
75.0229	82	C6H3+
76.0306	3	C6H4+
77.0021	27	C5HO+
81.0135	28	C5H2F+
83.0291	999	C5H4F+
87.0229	8	C7H3+
89.0385	504	C7H5+
90.0464	44	C7H6+
91.0542	6	C7H7+
93.0135	88	C6H2F+
95.0102	1	C3H2F3+
95.0291	1	C6H4F+
95.0491	7	C6H7O+
96.037	1	C6H5F+
98.0151	307	C8H2+
99.0229	331	C8H3+
101.0197	3	C5H3F2+
102.0464	3	C8H6+
105.0447	2	C6H5N2+
107.0291	36	C7H4F+
108.0369	10	C7H5F+
109.0448	474	C7H6F+
113.0196	12	C6H3F2+
114.0276	4	C6H4F2+
115.0542	13	C9H7+
119.0291	17	C8H4F+
120.037	5	C8H5F+
123.0353	3	C6H4FN2+
125.0197	2	C7H3F2+
125.0387	1	C10H5+
126.0464	2	C10H6+
127.0355	1	C7H5F2+
131.03	4	CH4F3N3O+
132.018	12	C6H3F3+
133.0259	1	C6H4F3+
138.0274	13	C8H4F2+
141.0258	21	C6H3F2N2+
146.0524	4	C10H7F+
147.0352	15	C8H4FN2+
151.0351	1	C9H5F2+
157.0257	1	C8H4F3+
158.0338	3	C8H5F3+
164.0433	1	C10H6F2+
