Mass spectrum: Triadimefon; LC-ESI-QFT; MS2; CE: 150%; R=17500; [M+H]+
Name: Triadimefon
Name: 1-(4-chlorophenoxy)-3,3-dimethyl-1-(1,2,4-triazol-1-yl)butan-2-one
Formula: C14H16ClN3O2
Exact mass: 293.0931
SMILES: CC(C)(C)C(=O)C(N1C=NC=N1)OC2=CC=C(C=C2)Cl
InChI: InChI=1S/C14H16ClN3O2/c1-14(2,3)12(19)13(18-9-16-8-17-18)20-11-6-4-10(15)5-7-11/h4-9,13H,1-3H3
Instrument: Exploris 240 Orbitrap Thermo Scientific
Instrument type: LC-ESI-QFT
Ms type: MS2
Ion mode: POSITIVE
Ionization: ESI
Fragmentation mode: HCD
Collision energy: 150 % (nominal)
Resolution: 17500
Column name: XBridge C18 3.5um, 2.1x50mm, Waters
Retention time: 8.986 min
Base peak: 294.1001
Precursor m/z: 294.1004
Precursor type: [M+H]+
m/z	relative intensity	assigned
51.023	122	C4H3+
53.0386	52	C4H5+
55.0542	368	C4H7+
57.0699	211	C4H9+
63.023	54	C5H3+
65.0387	94	C5H5+
72.984	536	C3H2Cl+
74.0151	159	C6H2+
75.023	999	C6H3+
77.0385	68	C6H5+
84.9841	109	C4H2Cl+
91.0543	71	C7H7+
94.0413	66	C6H6O+
98.9996	484	C5H4Cl+
111	73	C6H4Cl+
139.0057	137	C6H4ClN2+
