Mass spectrum: Niflumic acid; LC-ESI-QFT; MS2; CE: 90; R=35000; [M+H]+
Name: Niflumic acid
Name: 2-[3-(trifluoromethyl)anilino]pyridine-3-carboxylic acid
Formula: C13H9F3N2O2
Exact mass: 282.06161
SMILES: C1=CC(=CC(=C1)NC2=C(C=CC=N2)C(=O)O)C(F)(F)F
InChI: InChI=1S/C13H9F3N2O2/c14-13(15,16)8-3-1-4-9(7-8)18-11-10(12(19)20)5-2-6-17-11/h1-7H,(H,17,18)(H,19,20)
Instrument: Q Exactive Plus Orbitrap Thermo Scientific
Instrument type: LC-ESI-QFT
Ms type: MS2
Ion mode: POSITIVE
Ionization: ESI
Fragmentation mode: HCD
Collision energy: 90 (nominal)
Resolution: 35000
Column name: XBridge C18 3.5um, 2.1x50mm, Waters
Retention time: 12.7 min
Base peak: 283.0682
Precursor m/z: 283.0689
Precursor type: [M+H]+
m/z	relative intensity	assigned
50.0151	9	C4H2+
51.0229	8	C4H3+
56.0495	2	C3H6N+
57.0135	2	C3H2F+
66.0338	3	C4H4N+
67.0178	1	C4H3O+
68.0495	3	C4H6N+
68.9946	2	CF3+
71.0292	9	C4H4F+
74.015	2	C6H2+
75.004	8	C3HF2+
75.0229	19	C6H3+
76.0181	1	C5H2N+
78.0338	104	C5H4N+
79.0178	3	C5H3O+
79.0416	18	C5H5N+
81.0134	1	C5H2F+
90.0465	5	C7H6+
93.0448	15	C5H5N2+
94.0288	4	C5H4NO+
95.0103	5	C3H2F3+
95.0292	12	C6H4F+
95.0366	6	C5H5NO+
96.0444	117	C5H6NO+
99.004	1	C5HF2+
103.029	5	C6H3N2+
112.0391	3	C5H6NO2+
113.0397	41	C6H6FO+
114.0464	7	C9H6+
115.0354	2	C6H5F2+
115.0542	2	C9H7+
117.0573	11	C8H7N+
118.0413	1	C8H6O+
119.0105	5	C5H2F3+
121.0397	40	C6H5N2O+
123.0353	107	C6H4FN2+
125.0198	74	C7H3F2+
126.0276	2	C7H4F2+
128.0495	2	C9H6N+
129.0447	2	C8H5N2+
132.057	3	C9H8O+
133.0448	9	C9H6F+
139.0355	1	C8H5F2+
140.0495	45	C10H6N+
141.0146	4	C7H3F2O+
141.0573	76	C10H7N+
142.0525	7	C9H6N2+
143.0296	6	C10H4F+
145.026	999	C7H4F3+
146.0402	1	C9H5FN+
150.0338	6	C11H4N+
152.0497	5	C11H6N+
153.0573	1	C11H7N+
159.0679	3	C10H9NO+
161.045	8	C7H6F3N+
163.0355	9	C10H5F2+
164.0306	5	C9H4F2N+
166.0525	3	C11H6N2+
167.0604	63	C11H7N2+
168.0682	573	C11H8N2+
169.0522	6	C11H7NO+
170.0212	6	C8H3F3N+
170.0401	39	C11H5FN+
170.0599	5	C11H8NO+
171.036	2	C7H5F2N2O+
171.0479	2	C11H6FN+
172.037	5	C8H5F3N+
172.056	2	C11H7FN+
173.0321	10	C7H4F3N2+
173.0509	2	C10H6FN2+
177.0448	7	C12H5N2+
178.0399	2	C11H4N3+
178.0527	1	C12H6N2+
179.0605	5	C12H7N2+
180.0444	1	C12H6NO+
181.0462	5	C10H7F2O+
182.0337	2	C10H5F3+
182.0412	9	C9H6F2NO+
183.0417	33	C10H6F3+
184.0369	2	C9H5F3N+
185.0711	7	C11H9N2O+
186.0588	6	C11H7FN2+
187.0668	2	C11H8FN2+
188.0507	32	C11H7FNO+
189.0385	5	C11H5F2N+
189.0461	1	C10H6FN2O+
190.0463	123	C11H6F2N+
191.0415	24	C10H5F2N2+
195.0554	30	C12H7N2O+
196.0632	177	C12H8N2O+
197.051	197	C12H6FN2+
198.0161	7	C9H3F3NO+
198.0351	2	C12H5FNO+
198.0462	14	C11H5FN3+
198.0589	16	C12H7FN2+
200.0308	1	C12H4F2N+
200.0581	3	C11H8N2O2+
201.0455	1	C11H6FN2O+
202.0466	6	C12H6F2N+
208.0367	1	C11H5F3N+
209.045	3	C11H6F3N+
210.0364	2	C10H6F2NO2+
210.0525	8	C11H7F3N+
213.0659	6	C12H9N2O2+
215.0417	4	C12H5F2N2+
215.0616	16	C12H8FN2O+
216.0495	19	C12H6F2N2+
217.0573	488	C12H7F2N2+
218.0413	44	C12H6F2NO+
220.0368	3	C12H5F3N+
225.0461	29	C13H6FN2O+
227.0414	3	C13H5F2N2+
228.053	2	C12H8N2O3+
235.048	4	C12H6F3N2+
235.0679	2	C12H9F2N2O+
236.0557	52	C12H7F3N2+
237.0635	40	C12H8F3N2+
238.0475	27	C12H7F3NO+
244.0444	3	C13H6F2N2O+
245.0522	214	C13H7F2N2O+
263.0424	2	C13H6F3N2O+
263.0628	6	C13H9F2N2O2+
264.0506	32	C13H7F3N2O+
265.0584	124	C13H8F3N2O+
