Mass spectrum: Simazine; LC-ESI-ITFT; MS2; CE: 60%; R=15000; [M+H]+
Name: Simazine
Name: 6-chloranyl-N2,N4-diethyl-1,3,5-triazine-2,4-diamine
Formula: C7H12ClN5
Exact mass: 201.0776
SMILES: c1(nc(nc(n1)Cl)NCC)NCC
InChI: InChI=1S/C7H12ClN5/c1-3-9-6-11-5(8)12-7(13-6)10-4-2/h3-4H2,1-2H3,(H2,9,10,11,12,13)
Instrument: LTQ Orbitrap XL Thermo Scientific
Instrument type: LC-ESI-ITFT
Ms type: MS2
Ion mode: POSITIVE
Ionization: ESI
Fragmentation mode: HCD
Collision energy: 60 % (nominal)
Resolution: 15000
Column name: XBridge C18 3.5um, 2.1x50mm, Waters
Retention time: 6.9 min
Base peak: 202.0857
Precursor m/z: 202.0854
Precursor type: [M+H]+
m/z	relative intensity	assigned
61.9791	29	CHClN+
68.0243	340	C2H2N3+
71.0604	210	C3H7N2+
79.0058	35	CH4ClN2+
90.0105	22	C3H5ClN+
96.0557	477	C4H6N3+
104.0011	592	C2H3ClN3+
107.0373	6	C3H8ClN2+
110.0463	4	C3H4N5+
124.087	758	C6H10N3+
132.0324	981	C4H7ClN3+
138.0774	33	C5H8N5+
146.0229	32	C3H5ClN5+
166.1087	206	C7H12N5+
174.0541	285	C5H9ClN5+
200.07	9	C7H11ClN5+
202.0855	999	C7H13ClN5+
