Mass spectrum: Valsartan; LC-ESI-ITFT; MS2; CE: 90%; R=7500; [M+H]+
Name: Valsartan
Name: (2S)-3-methyl-2-[1-oxopentyl-[[4-[2-(2H-tetrazol-5-yl)phenyl]phenyl]methyl]amino]butanoic acid
Formula: C24H29N5O3
Exact mass: 435.2270
SMILES: CCCCC(=O)N(CC1=CC=C(C=C1)C2=C(C=CC=C2)C3=NN=NN3)[C@@H](C(C)C)C(O)=O
InChI: InChI=1S/C24H29N5O3/c1-4-5-10-21(30)29(22(16(2)3)24(31)32)15-17-11-13-18(14-12-17)19-8-6-7-9-20(19)23-25-27-28-26-23/h6-9,11-14,16,22H,4-5,10,15H2,1-3H3,(H,31,32)(H,25,26,27,28)/t22-/m0/s1
Instrument: LTQ Orbitrap XL Thermo Scientific
Instrument type: LC-ESI-ITFT
Ms type: MS2
Ion mode: POSITIVE
Ionization: ESI
Fragmentation mode: HCD
Collision energy: 90 % (nominal)
Resolution: 7500
Column name: XBridge C18 3.5um, 2.1x50mm, Waters
Retention time: 11.2 min
Base peak: 436.2337
Precursor m/z: 436.2343
Precursor type: [M+H]+
m/z	relative intensity	assigned
77.0386	69	C6H5+
80.0494	23	C5H6N+
95.0495	9	C6H7O+
105.0447	48	C6H5N2+
115.0543	51	C9H7+
116.0496	10	C8H6N+
117.0567	12	C8H7N+
127.0542	13	C10H7+
128.0492	13	C9H6N+
128.0625	18	C10H8+
129.0447	31	C8H5N2+
129.0701	13	C10H9+
130.0402	13	C7H4N3+
139.0543	35	C11H7+
140.0495	168	C10H6N+
141.0575	13	C10H7N+
141.0701	16	C11H9+
151.0542	194	C12H7+
152.062	977	C12H8+
153.0699	672	C12H9+
154.065	71	C11H8N+
155.0604	90	C10H7N2+
163.0543	251	C13H7+
164.0495	56	C12H6N+
164.0625	72	C13H8+
165.0699	381	C13H9+
166.0651	78	C12H8N+
167.0731	82	C12H9N+
168.0683	51	C11H8N2+
169.0647	38	C12H9O+
176.0617	23	C14H8+
177.0574	101	C13H7N+
177.07	94	C14H9+
178.0777	777	C14H10+
179.0729	321	C13H9N+
180.0808	884	C13H10N+
181.0757	32	C12H9N2+
182.0593	7	C12H8NO+
183.0676	13	C12H9NO+
189.0575	53	C14H7N+
190.0652	999	C14H8N+
191.0728	169	C14H9N+
192.0684	483	C13H8N2+
193.0886	36	C14H11N+
194.06	11	C13H8NO+
194.096	10	C14H12N+
196.0754	25	C13H10NO+
205.0761	967	C14H9N2+
206.0838	310	C14H10N2+
207.0916	78	C14H11N2+
208.0761	38	C14H10NO+
210.0922	8	C14H12NO+
