Mass spectrum: Acetochlor; LC-ESI-ITFT; MS2; CE: 35%; R=7500; [M+H]+
Name: Acetochlor
Name: 2-chloranyl-N-(ethoxymethyl)-N-(2-ethyl-6-methyl-phenyl)ethanamide
Formula: C14H20ClNO2
Exact mass: 269.1177
SMILES: CCOCN(C(=O)CCl)C1=C(C)C=CC=C1CC
InChI: InChI=1S/C14H20ClNO2/c1-4-12-8-6-7-11(3)14(12)16(10-18-5-2)13(17)9-15/h6-8H,4-5,9-10H2,1-3H3
Instrument: LTQ Orbitrap XL Thermo Scientific
Instrument type: LC-ESI-ITFT
Ms type: MS2
Ion mode: POSITIVE
Ionization: ESI
Fragmentation mode: CID
Collision energy: 35 % (nominal)
Resolution: 7500
Column name: XBridge C18 3.5um, 2.1x50mm, Waters
Retention time: 11.7 min
Base peak: 292.1079
Precursor m/z: 270.1255
Precursor type: [M+H]+
m/z	relative intensity	assigned
148.1119	26	C10H14N+
194.073	6	C11H13ClN+
210.0681	9	C11H13ClNO+
224.0838	999	C12H15ClNO+
