Mass spectrum: Fluazifop; LC-ESI-ITFT; MS2; CE: 90%; R=7500; [M-H]-
Name: Fluazifop
Name: 2-[4-[5-(trifluoromethyl)pyridin-2-yl]oxyphenoxy]propanoic acid
Formula: C15H12F3NO4
Exact mass: 327.0724
SMILES: CC(C(=O)O)OC1=CC=C(C=C1)OC2=NC=C(C=C2)C(F)(F)F
InChI: InChI=1S/C15H12F3NO4/c1-9(14(20)21)22-11-3-5-12(6-4-11)23-13-7-2-10(8-19-13)15(16,17)18/h2-9H,1H3,(H,20,21)
Instrument: LTQ Orbitrap XL Thermo Scientific
Instrument type: LC-ESI-ITFT
Ms type: MS2
Ion mode: NEGATIVE
Ionization: ESI
Fragmentation mode: HCD
Collision energy: 90 % (nominal)
Resolution: 7500
Column name: XBridge C18 3.5um, 2.1x50mm, Waters
Retention time: 10.8 min
Base peak: 326.0639
Precursor m/z: 326.0646
Precursor type: [M-H]-
m/z	relative intensity	assigned
108.0216	999	C6H4O2-
138.0351	96	C10H4N-
142.011	53	C6H2F2NO-
158.0409	139	C10H5FN-
162.0172	281	C6H3F3NO-
178.0474	133	C10H6F2N-
186.0357	54	C11H5FNO-
206.0425	131	C11H6F2NO-
