Mass spectrum: EPN; LC-ESI-QFT; MS2; CE: 180%; R=17500; [M+H]+
Name: EPN
Name: O-Ethyl O-(4-nitrophenyl) phenylphosphonothioate
Name: ethoxy-(4-nitrophenoxy)-phenyl-sulfanylidene-lambda5-phosphane
Formula: C14H14NO4PS
Exact mass: 323.0381
SMILES: CCOP(=S)(C1=CC=CC=C1)OC2=CC=C(C=C2)[N+](=O)[O-]
InChI: InChI=1S/C14H14NO4PS/c1-2-18-20(21,14-6-4-3-5-7-14)19-13-10-8-12(9-11-13)15(16)17/h3-11H,2H2,1H3
Instrument: Exploris 240 Orbitrap Thermo Scientific
Instrument type: LC-ESI-QFT
Ms type: MS2
Ion mode: POSITIVE
Ionization: ESI
Fragmentation mode: HCD
Collision energy: 180 % (nominal)
Resolution: 17500
Column name: XBridge C18 3.5um, 2.1x50mm, Waters
Retention time: 12.283 min
Base peak: 334.1681
Precursor m/z: 324.0454
Precursor type: [M+H]+
m/z	relative intensity	assigned
50.0152	331	C4H2+
51.023	999	C4H3+
52.0309	65	C4H4+
53.0023	29	C3HO+
53.0387	118	C4H5+
55.0179	22	C3H3O+
62.9454	454	PS+
63.0229	199	C5H3+
65.0386	313	C5H5+
66.0465	387	CH9NP+
68.9796	31	C3HS+
74.0152	114	C6H2+
75.023	307	C6H3+
76.0311	25	C6H4+
77.0386	362	C6H5+
78.0465	229	C6H6+
81.0338	23	CH8NOP+
94.0414	71	C6H6O+
95.0492	123	C6H7O+
108.0025	23	C6H4S+
109.0105	18	C6H5S+
115.0541	19	C9H7+
