Mass spectrum: Betamethasone; LC-ESI-QFT; MS2; CE: 75; R=35000; [M+H]+
Name: Betamethasone
Name: (8S,9R,10S,11S,13S,14S,16S,17R)-9-fluoro-11,17-dihydroxy-17-(2-hydroxyacetyl)-10,13,16-trimethyl-6,7,8,11,12,14,15,16-octahydrocyclopenta[a]phenanthren-3-one
Formula: C22H29FO5
Exact mass: 392.19990
SMILES: O=C(CO)[C@]3(O)[C@]2(C[C@H](O)[C@]4(F)[C@@]/1(\C(=C/C(=O)\C=C\1)CC[C@H]4[C@@H]2C[C@@H]3C)C)C
InChI: InChI=1S/C22H29FO5/c1-12-8-16-15-5-4-13-9-14(25)6-7-19(13,2)21(15,23)17(26)10-20(16,3)22(12,28)18(27)11-24/h6-7,9,12,15-17,24,26,28H,4-5,8,10-11H2,1-3H3/t12-,15-,16-,17-,19-,20-,21-,22-/m0/s1
Instrument: Q Exactive Orbitrap Thermo Scientific
Instrument type: LC-ESI-QFT
Ms type: MS2
Ion mode: POSITIVE
Ionization: ESI
Fragmentation mode: HCD
Collision energy: 75 (nominal)
Resolution: 35000
Column name: XBridge C18 3.5um, 2.1x50mm, Waters
Retention time: 9.2 min
Base peak: 393.207
Precursor m/z: 393.2072
Precursor type: [M+H]+
m/z	relative intensity	assigned
57.0335	5	C3H5O+
59.0492	10	C3H7O+
65.0386	75	C5H5+
67.0542	283	C5H7+
69.0334	73	C4H5O+
69.0699	48	C5H9+
71.0127	9	C3H3O2+
71.0491	20	C4H7O+
77.0386	23	C6H5+
79.0542	315	C6H7+
81.0335	25	C5H5O+
81.0699	121	C6H9+
83.0491	26	C5H7O+
83.0854	5	C6H11+
91.0542	999	C7H7+
93.0698	294	C7H9+
95.0491	280	C6H7O+
95.0854	191	C7H11+
97.0648	26	C6H9O+
103.0542	117	C8H7+
104.062	24	C8H8+
105.0447	41	C6H5N2+
105.0698	570	C8H9+
106.0778	8	C8H10+
107.0491	126	C7H7O+
107.0855	239	C8H11+
108.057	18	C7H8O+
109.0648	112	C7H9O+
109.1011	77	C8H13+
111.0804	10	C7H11O+
115.0542	269	C9H7+
116.0619	99	C9H8+
117.0698	222	C9H9+
118.0776	4	C9H10+
119.0855	544	C9H11+
121.0647	811	C8H9O+
121.101	64	C9H13+
123.0804	77	C8H11O+
125.0596	28	C7H9O2+
125.0962	5	C8H13O+
127.0539	8	C10H7+
128.062	561	C10H8+
129.0698	228	C10H9+
130.0777	80	C10H10+
131.0492	67	C9H7O+
131.0855	223	C10H11+
132.0569	208	C9H8O+
133.0645	53	C9H9O+
133.1011	68	C10H13+
135.0803	144	C9H11O+
137.0959	8	C9H13O+
141.0696	240	C11H9+
142.0776	144	C11H10+
143.0855	276	C11H11+
144.057	144	C10H8O+
144.0931	10	C11H12+
145.0647	343	C10H9O+
145.1011	93	C11H13+
146.0726	92	C10H10O+
147.0803	655	C10H11O+
149.0959	21	C10H13O+
151.0756	8	C9H11O2+
152.0618	55	C12H8+
153.0697	74	C12H9+
154.0774	49	C12H10+
155.06	32	C10H7N2+
155.0855	150	C12H11+
156.0569	51	C11H8O+
156.0932	44	C12H12+
157.0648	52	C11H9O+
157.1012	43	C12H13+
158.0725	262	C11H10O+
159.0803	301	C11H11O+
160.0878	8	C11H12O+
161.0959	93	C11H13O+
163.0756	9	C10H11O2+
165.0697	149	C13H9+
166.0775	81	C13H10+
167.0853	99	C13H11+
168.0569	10	C12H8O+
168.0932	20	C13H12+
169.0646	107	C12H9O+
169.101	50	C13H13+
170.0724	55	C12H10O+
171.0802	381	C12H11O+
172.0879	37	C12H12O+
173.096	85	C12H13O+
175.1124	5	C12H15O+
177.0696	7	C14H9+
178.0775	217	C14H10+
179.0853	279	C14H11+
180.0931	74	C14H12+
181.0647	140	C13H9O+
181.1009	63	C14H13+
182.0725	109	C13H10O+
182.109	6	C14H14+
183.0805	81	C13H11O+
183.1168	7	C14H15+
184.0883	31	C13H12O+
185.0959	99	C13H13O+
187.0754	11	C12H11O2+
187.1121	5	C13H15O+
189.0697	107	C15H9+
190.0775	80	C15H10+
191.0854	113	C15H11+
192.0932	114	C15H12+
193.1009	128	C15H13+
194.0722	62	C14H10O+
194.1086	56	C15H14+
195.08	178	C14H11O+
195.1165	27	C15H15+
196.088	119	C14H12O+
197.0958	121	C14H13O+
198.1037	28	C14H14O+
199.1118	9	C14H15O+
202.0772	62	C16H10+
203.0851	103	C16H11+
204.0933	80	C16H12+
205.0646	35	C15H9O+
205.101	79	C16H13+
206.0726	30	C15H10O+
206.1088	58	C16H14+
207.0803	137	C15H11O+
207.1169	50	C16H15+
208.088	175	C15H12O+
209.0959	180	C15H13O+
210.1036	72	C15H14O+
211.1116	43	C15H15O+
212.12	5	C15H16O+
215.0852	99	C17H11+
215.1065	5	C14H15O2+
216.0933	68	C17H12+
217.1012	63	C17H13+
218.0725	27	C16H10O+
218.1089	24	C17H14+
219.0804	115	C16H11O+
219.1166	37	C17H15+
220.0881	45	C16H12O+
220.1247	9	C17H16+
221.0958	191	C16H13O+
221.1324	32	C17H17+
222.1036	161	C16H14O+
223.1116	86	C16H15O+
224.119	25	C16H16O+
225.0908	4	C15H13O2+
225.1276	9	C16H17O+
227.0859	7	C18H11+
228.0929	43	C18H12+
229.101	112	C18H13+
230.1088	58	C18H14+
231.0805	70	C17H11O+
231.1168	49	C18H15+
232.0881	59	C17H12O+
232.125	7	C18H16+
233.0959	158	C17H13O+
234.1038	79	C17H14O+
235.1114	123	C17H15O+
235.1479	10	C18H19+
236.1195	24	C17H16O+
237.1269	41	C17H17O+
239.086	6	C19H11+
239.1425	6	C17H19O+
241.1007	21	C19H13+
242.109	27	C19H14+
243.1165	66	C19H15+
244.0883	9	C18H12O+
244.1246	25	C19H16+
245.096	85	C18H13O+
245.1321	32	C19H17+
246.1037	73	C18H14O+
247.1114	135	C18H15O+
248.1192	103	C18H16O+
249.0917	5	C14H14FO3+
249.127	49	C18H17O+
251.143	10	C18H19O+
256.0879	10	C19H12O+
257.096	8	C19H13O+
257.1323	6	C20H17+
258.1038	31	C19H14O+
259.1119	58	C19H15O+
260.1196	7	C19H16O+
261.0908	9	C18H13O2+
261.1274	72	C19H17O+
262.1353	26	C19H18O+
263.1066	10	C18H15O2+
263.1425	91	C19H19O+
270.104	5	C20H14O+
271.1117	27	C20H15O+
277.1225	5	C19H17O2+
291.1379	4	C17H20FO3+
