Mass spectrum: Acetazolamide; LC-ESI-QFT; MS2; CE: 60; R=35000; [M-H]-
Name: Acetazolamide
Name: AZM
Name: N-(5-sulfamoyl-1,3,4-thiadiazol-2-yl)acetamide
Formula: C4H6N4O3S2
Exact mass: 221.98813
SMILES: O=S(=O)(c1nnc(s1)NC(=O)C)N
InChI: InChI=1S/C4H6N4O3S2/c1-2(9)6-3-7-8-4(12-3)13(5,10)11/h1H3,(H2,5,10,11)(H,6,7,9)
Instrument: Q Exactive Orbitrap Thermo Scientific
Instrument type: LC-ESI-QFT
Ms type: MS2
Ion mode: NEGATIVE
Ionization: ESI
Fragmentation mode: HCD
Collision energy: 60 (nominal)
Resolution: 35000
Column name: XBridge C18 3.5um, 2.1x50mm, Waters
Retention time: 2.4 min
Base peak: 220.9809
Precursor m/z: 220.9809
Precursor type: [M-H]-
m/z	relative intensity	assigned
57.9757	322	CNS-
61.9706	92	NOS-
63.9624	29	O2S-
66.0098	3	C2N3-
68.0016	1	C2N2O-
72.9866	22	CHN2S-
77.9656	11	NO2S-
79.9812	287	H2NO2S-
83.0251	999	C3H3N2O-
115.0086	2	C2H3N4S-
115.9925	5	C2H2N3OS-
142.0081	4	C4H4N3OS-
220.9814	3	C4H5N4O3S2-
