Mass spectrum: Atenolol-desisopropyl; LC-ESI-QFT; MS2; CE: 150; R=35000; [M+H]+
Name: Atenolol-desisopropyl
Name: 4-(3-Amino-2-hydroxypropoxy)phenylacetamide
Formula: C11H16N2O3
Exact mass: 224.11609
SMILES: c1cc(ccc1CC(=O)N)OCC(CN)O
InChI: InChI=1S/C11H16N2O3/c12-6-9(14)7-16-10-3-1-8(2-4-10)5-11(13)15/h1-4,9,14H,5-7,12H2,(H2,13,15)
Instrument: Q Exactive Plus Orbitrap Thermo Scientific
Instrument type: LC-ESI-QFT
Ms type: MS2
Ion mode: POSITIVE
Ionization: ESI
Fragmentation mode: HCD
Collision energy: 150 (nominal)
Resolution: 35000
Column name: XBridge C18 3.5um, 2.1x50mm, Waters
Retention time: 1.0 min
Base peak: 225.1233
Precursor m/z: 225.1234
Precursor type: [M+H]+
m/z	relative intensity	assigned
50.0151	62	C4H2+
51.023	175	C4H3+
53.0022	15	C3HO+
53.0386	189	C4H5+
54.0339	3	C3H4N+
55.0179	56	C3H3O+
56.0495	221	C3H6N+
57.0335	2	C3H5O+
58.0652	2	C3H8N+
61.0072	2	C5H+
62.0151	32	C5H2+
63.023	583	C5H3+
65.0386	478	C5H5+
66.0464	11	C5H6+
67.0417	14	C4H5N+
67.0542	3	C5H7+
67.9892	1	C3O2+
74.06	28	C3H8NO+
75.0229	13	C6H3+
76.0308	2	C6H4+
77.0385	300	C6H5+
78.0339	10	C5H4N+
78.0464	44	C6H6+
79.0542	230	C6H7+
80.0494	17	C5H6N+
81.0335	27	C5H5O+
89.0386	999	C7H5+
90.0339	8	C6H4N+
90.0465	31	C7H6+
91.0543	653	C7H7+
93.0574	10	C6H7N+
94.0414	4	C6H6O+
94.0652	4	C6H8N+
95.0492	620	C6H7O+
96.0445	10	C5H6NO+
102.0464	17	C8H6+
103.0542	48	C8H7+
104.0495	9	C7H6N+
104.0623	2	C8H8+
105.0448	322	C6H5N2+
106.0651	15	C7H8N+
107.0492	510	C7H7O+
114.0465	1	C9H6+
115.0543	419	C9H7+
116.0495	14	C8H6N+
116.062	25	C9H8+
117.0573	22	C8H7N+
117.07	11	C9H9+
119.0494	1	C8H7O+
127.0543	2	C10H7+
128.0621	3	C10H8+
131.0491	15	C9H7O+
135.0552	8	C7H7N2O+
144.0568	15	C10H8O+
145.0649	10	C10H9O+
155.0605	2	C10H7N2+
