Mass spectrum: Tepraloxydim; LC-ESI-QFT; MS2; CE: 60; R=35000; [M-H]-
Name: Tepraloxydim
Name: E-Tepraloxydim
Formula: C17H24ClNO4
Exact mass: 341.13939
SMILES: CC/C(=N\OC\C=C\Cl)/C=1C(=O)CC(CC=1O)C2CCOCC2
InChI: InChI=1S/C17H24ClNO4/c1-2-14(19-23-7-3-6-18)17-15(20)10-13(11-16(17)21)12-4-8-22-9-5-12/h3,6,12-13,20H,2,4-5,7-11H2,1H3/b6-3+,19-14+
Instrument: Q Exactive Orbitrap Thermo Scientific
Instrument type: LC-ESI-QFT
Ms type: MS2
Ion mode: NEGATIVE
Ionization: ESI
Fragmentation mode: HCD
Collision energy: 60 (nominal)
Resolution: 35000
Column name: XBridge C18 3.5um, 2.1x50mm, Waters
Retention time: 11.5 min
Base peak: 340.1324
Precursor m/z: 340.1321
Precursor type: [M-H]-
m/z	relative intensity	assigned
57.0345	6	C3H5O-
65.0397	2	C5H5-
65.9985	93	C3NO-
66.0349	29	C4H4N-
67.0189	2	C4H3O-
81.0346	6	C5H5O-
81.0709	2	C6H9-
82.03	8	C4H4NO-
83.0139	5	C4H3O2-
83.0503	17	C5H7O-
90.9956	5	C3H4ClO-
92.0506	32	C6H6N-
93.0347	3	C6H5O-
94.0299	8	C5H4NO-
95.0378	2	C5H5NO-
95.0503	3	C6H7O-
96.0455	3	C5H6NO-
107.0377	7	C6H5NO-
107.0503	13	C7H7O-
108.0456	20	C6H6NO-
109.0295	68	C6H5O2-
110.0247	2	C5H4NO2-
110.0612	15	C6H8NO-
112.0767	1	C6H10NO-
118.03	2	C7H4NO-
119.0502	6	C8H7O-
120.0092	17	C6H2NO2-
120.0456	8	C7H6NO-
120.0819	19	C8H10N-
121.0295	1	C7H5O2-
121.0534	5	C7H7NO-
121.0659	6	C8H9O-
122.0613	5	C7H8NO-
123.0816	10	C8H11O-
134.0248	323	C7H4NO2-
135.0327	10	C7H5NO2-
135.0453	6	C8H7O2-
135.0815	2	C9H11O-
136.0404	9	C7H6NO2-
137.0608	9	C8H9O2-
144.0455	1	C9H6NO-
145.0533	10	C9H7NO-
148.0406	2	C8H6NO2-
148.0771	7	C9H10NO-
148.1133	2	C10H14N-
149.0968	5	C10H13O-
150.056	2	C8H8NO2-
150.0924	24	C9H12NO-
151.0639	1	C8H9NO2-
153.0921	39	C9H13O2-
158.0977	2	C11H12N-
160.0771	2	C10H10NO-
161.0842	1	C10H11NO-
162.0562	34	C9H8NO2-
162.0921	1	C10H12NO-
163.0639	13	C9H9NO2-
164.0719	21	C9H10NO2-
165.0796	38	C9H11NO2-
174.0922	3	C11H12NO-
176.1078	16	C11H14NO-
178.0873	18	C10H12NO2-
178.1237	6	C11H16NO-
179.1075	1	C11H15O2-
180.0668	2	C9H10NO3-
188.0716	2	C11H10NO2-
192.1036	3	C11H14NO2-
195.1028	53	C11H15O3-
196.0982	2	C10H14NO3-
200.108	1	C13H14NO-
204.103	3	C12H14NO2-
206.1186	17	C12H16NO2-
218.1181	3	C13H16NO2-
220.098	999	C12H14NO3-
221.1182	32	C13H17O3-
222.1136	2	C12H16NO3-
233.1057	18	C13H15NO3-
236.0928	8	C12H14NO4-
248.1293	244	C14H18NO3-
250.1449	5	C14H20NO3-
