Mass spectrum: N'-(2,4-Dimethylphenyl)-N-methylformamidine; LC-ESI-ITFT; MS2; CE: 60%; R=15000; [M+H]+
Name: N'-(2,4-Dimethylphenyl)-N-methylformamidine
Name: Methanimidamide, N-(2,4-dimethylphenyl)-N'-methyl-
Name: N-(2,4-dimethylphenyl)-N'-methyl-formamidine
Formula: C10H14N2
Exact mass: 162.1157
SMILES: C(=NC)Nc1c(cc(cc1)C)C
InChI: InChI=1S/C10H14N2/c1-8-4-5-10(9(2)6-8)12-7-11-3/h4-7H,1-3H3,(H,11,12)
Instrument: LTQ Orbitrap XL Thermo Scientific
Instrument type: LC-ESI-ITFT
Ms type: MS2
Ion mode: POSITIVE
Ionization: ESI
Fragmentation mode: HCD
Collision energy: 60 % (nominal)
Resolution: 15000
Column name: XBridge C18 3.5um, 2.1x50mm, Waters
Retention time: 4.5 min
Base peak: 163.1229
Precursor m/z: 163.123
Precursor type: [M+H]+
m/z	relative intensity	assigned
77.0384	1	C6H5+
79.0541	2	C6H7+
105.0698	98	C8H9+
106.0648	2	C7H8N+
107.0729	197	C7H9N+
115.0541	4	C9H7+
117.0573	153	C8H7N+
120.0807	34	C8H10N+
121.0886	3	C8H11N+
122.0964	917	C8H12N+
131.073	3	C9H9N+
132.0807	526	C9H10N+
133.0759	16	C8H9N2+
136.1119	6	C9H14N+
148.0995	2	C9H12N2+
163.1229	999	C10H15N2+
