Mass spectrum: Bromazepam; LC-ESI-QFT; MS2; CE: 150; R=35000; [M+H]+
Name: Bromazepam
Name: 7-bromo-5-pyridin-2-yl-1,3-dihydro-1,4-benzodiazepin-2-one
Formula: C14H10BrN3O
Exact mass: 315.00072
SMILES: C1C(=O)NC2=C(C=C(C=C2)Br)C(=N1)C3=CC=CC=N3
InChI: InChI=1S/C14H10BrN3O/c15-9-4-5-11-10(7-9)14(17-8-13(19)18-11)12-3-1-2-6-16-12/h1-7H,8H2,(H,18,19)
Instrument: Q Exactive Plus Orbitrap Thermo Scientific
Instrument type: LC-ESI-QFT
Ms type: MS2
Ion mode: POSITIVE
Ionization: ESI
Fragmentation mode: HCD
Collision energy: 150 (nominal)
Resolution: 35000
Column name: XBridge C18 3.5um, 2.1x50mm, Waters
Retention time: 7.0 min
Base peak: 316.0073
Precursor m/z: 316.008
Precursor type: [M+H]+
m/z	relative intensity	assigned
50.0151	123	C4H2+
51.0229	57	C4H3+
52.0181	11	C3H2N+
52.0307	19	C4H4+
53.0022	8	C3HO+
53.0386	137	C4H5+
54.0338	13	C3H4N+
55.0179	4	C3H3O+
55.0416	5	C3H5N+
61.0072	5	C5H+
62.015	20	C5H2+
63.0229	73	C5H3+
64.0181	19	C4H2N+
64.0307	15	C5H4+
65.0021	10	C4HO+
65.0385	48	C5H5+
66.0464	29	C5H6+
67.0416	16	C4H5N+
74.015	29	C6H2+
75.0228	92	C6H3+
76.0181	14	C5H2N+
76.0307	151	C6H4+
77.0385	160	C6H5+
78.0338	306	C5H4N+
78.0464	183	C6H6+
79.0416	81	C5H5N+
80.0494	114	C5H6N+
81.0334	14	C5H5O+
82.0288	1	C4H4NO+
86.015	8	C7H2+
87.0228	12	C7H3+
88.0182	17	C6H2N+
88.0307	30	C7H4+
89.0385	146	C7H5+
90.0339	11	C6H4N+
90.0464	35	C7H6+
91.0178	1	C6H3O+
91.0416	11	C6H5N+
91.0542	15	C7H7+
92.037	1	C5H4N2+
92.0493	7	C6H6N+
93.0574	2	C6H7N+
94.0413	12	C6H6O+
95.0366	32	C5H5NO+
95.0491	279	C6H7O+
96.0443	295	C5H6NO+
98.015	1	C8H2+
99.0229	14	C8H3+
100.0181	5	C7H2N+
100.0308	8	C8H4+
101.0386	20	C8H5+
102.0338	21	C7H4N+
102.0464	97	C8H6+
103.0289	9	C6H3N2+
103.0416	88	C7H5N+
103.0542	86	C8H7+
104.0494	563	C7H6N+
105.0447	243	C6H5N2+
105.0572	30	C7H7N+
106.0286	7	C6H4NO+
110.0599	4	C6H8NO+
111.0225	1	C9H3+
111.0314	5	C5H5NO2+
112.0308	4	C9H4+
113.0385	58	C9H5+
114.0339	32	C8H4N+
114.0464	20	C9H6+
115.029	23	C7H3N2+
115.0416	24	C8H5N+
115.0542	62	C9H7+
116.0494	24	C8H6N+
116.9334	6	C3H2Br+
117.0572	58	C8H7N+
118.0527	1	C7H6N2+
119.0491	23	C8H7O+
120.0443	7	C7H6NO+
121.0395	4	C6H5N2O+
125.0386	58	C10H5+
126.0464	176	C10H6+
127.0416	62	C9H5N+
127.0542	281	C10H7+
128.0494	295	C9H6N+
128.0619	45	C10H8+
129.0446	138	C8H5N2+
129.0572	78	C9H7N+
130.0399	30	C7H4N3+
130.0525	41	C8H6N2+
130.0651	214	C9H8N+
131.0491	2	C9H7O+
131.0603	29	C8H7N2+
132.0444	1	C8H6NO+
132.0567	2	C9H8O+
133.0523	5	C8H7NO+
134.0599	2	C8H8NO+
135.0313	8	C7H5NO2+
137.0385	41	C11H5+
137.0469	3	C7H7NO2+
138.0338	16	C10H4N+
138.0462	23	C11H6+
139.0419	13	C10H5N+
139.0541	114	C11H7+
140.0494	191	C10H6N+
141.0572	58	C10H7N+
142.0525	35	C9H6N2+
142.0651	5	C10H8N+
142.9494	2	C5H4Br+
143.049	8	C10H7O+
144.0444	9	C9H6NO+
145.0648	162	C10H9O+
146.06	101	C9H8NO+
151.0415	7	C11H5N+
152.0495	111	C11H6N+
153.0446	42	C10H5N2+
153.0573	263	C11H7N+
154.0651	979	C11H8N+
155.0603	478	C10H7N2+
156.0444	2	C10H6NO+
156.0569	2	C11H8O+
156.068	12	C10H8N2+
156.0806	2	C11H10N+
157.0522	10	C10H7NO+
157.0761	7	C10H9N2+
159.0553	4	C9H7N2O+
161.0471	13	C9H7NO2+
162.0422	14	C8H6N2O2+
164.0494	175	C12H6N+
165.0453	16	C11H5N2+
165.0572	70	C12H7N+
166.0526	37	C11H6N2+
166.065	51	C12H8N+
167.061	8	C11H7N2+
167.0729	24	C12H9N+
168.0682	19	C11H8N2+
169.076	7	C11H9N2+
170.06	95	C11H8NO+
171.0551	16	C10H7N2O+
172.9596	5	C6H6BrO+
177.0448	12	C12H5N2+
178.0524	26	C12H6N2+
179.0603	999	C12H7N2+
180.0563	33	C11H6N3+
180.0681	274	C12H8N2+
181.0759	337	C12H9N2+
181.9595	9	C7H5BrN+
182.0712	7	C11H8N3+
182.084	8	C12H10N2+
182.9552	16	C6H4BrN2+
183.055	11	C11H7N2O+
183.0678	1	C12H9NO+
183.9758	1	C7H7BrN+
184.063	10	C11H8N2O+
184.0763	1	C12H10NO+
185.0471	16	C11H7NO2+
186.0423	4	C10H6N2O2+
190.0526	5	C13H6N2+
191.0601	21	C13H7N2+
192.0681	35	C13H8N2+
193.0635	8	C12H7N3+
193.0757	1	C13H9N2+
195.0551	5	C12H7N2O+
197.0711	3	C12H9N2O+
206.0713	144	C13H8N3+
207.0791	77	C13H9N3+
208.0867	8	C13H10N3+
208.9711	1	C8H6BrN2+
209.0719	1	C13H9N2O+
210.0422	15	C12H6N2O2+
212.058	38	C12H8N2O2+
217.0633	1	C14H7N3+
231.9755	2	C11H7BrN+
258.9866	35	C12H8BrN2+
