Mass spectrum: Iohexol; LC-ESI-ITFT; MS2; CE: 60%; R=7500; [M+H]+
Name: Iohexol
Name: 5-[acetyl(2,3-dihydroxypropyl)amino]-1-N,3-N-bis(2,3-dihydroxypropyl)-2,4,6-triiodobenzene-1,3-dicarboxamide
Formula: C19H26I3N3O9
Exact mass: 820.8803
SMILES: OCC(O)CNC(=O)c1c(I)c(N(CC(O)CO)C(C)=O)c(I)c(c1I)C(=O)NCC(O)CO
InChI: InChI=1S/C19H26I3N3O9/c1-8(29)25(4-11(32)7-28)17-15(21)12(18(33)23-2-9(30)5-26)14(20)13(16(17)22)19(34)24-3-10(31)6-27/h9-11,26-28,30-32H,2-7H2,1H3,(H,23,33)(H,24,34)
Instrument: LTQ Orbitrap XL Thermo Scientific
Instrument type: LC-ESI-ITFT
Ms type: MS2
Ion mode: POSITIVE
Ionization: ESI
Fragmentation mode: HCD
Collision energy: 60 % (nominal)
Resolution: 7500
Column name: XBridge C18 3.5um, 2.1x50mm, Waters
Retention time: 1.6 min
Base peak: 132.9578
Precursor m/z: 821.8876
Precursor type: [M+H]+
m/z	relative intensity	assigned
119.0364	104	C7H5NO+
132.0442	114	C8H6NO+
142.0293	118	C9H4NO+
145.0392	101	C8H5N2O+
147.031	184	C8H5NO2+
158.0235	172	C9H4NO2+
175.0272	199	C9H5NO3+
176.0345	110	C9H6NO3+
257.9409	682	C8H5INO+
270.9355	166	C8H4IN2O+
273.9354	960	C8H5INO2+
275.9523	139	C8H7INO2+
285.9355	119	C9H5INO2+
297.9359	113	C10H5INO2+
301.9308	999	C9H5INO3+
319.9395	113	C6H9IO7+
325.9489	111	C3H9IN3O7+
374.9843	219	C12H12IN2O4+
398.8484	121	C8H5I2N2O+
