Mass spectrum: Mycophenolic acid; LC-ESI-ITFT; MS2; CE: 90%; R=30000; [M+H]+
Name: Mycophenolic acid
Name: (E)-6-(4-hydroxy-3-keto-6-methoxy-7-methyl-phthalan-5-yl)-4-methyl-hex-4-enoic acid
Formula: C17H20O6
Exact mass: 320.1260
SMILES: c12c(c(c(C\C=C(\CCC(O)=O)C)c(c1C)OC)O)C(=O)OC2
InChI: InChI=1S/C17H20O6/c1-9(5-7-13(18)19)4-6-11-15(20)14-12(8-23-17(14)21)10(2)16(11)22-3/h4,20H,5-8H2,1-3H3,(H,18,19)/b9-4+
Instrument: LTQ Orbitrap XL Thermo Scientific
Instrument type: LC-ESI-ITFT
Ms type: MS2
Ion mode: POSITIVE
Ionization: ESI
Fragmentation mode: HCD
Collision energy: 90 % (nominal)
Resolution: 30000
Column name: XBridge C18 3.5um, 2.1x50mm, Waters
Retention time: 9.9 min
Base peak: 321.1329
Precursor m/z: 321.1333
Precursor type: [M+H]+
m/z	relative intensity	assigned
53.0386	4	C4H5+
65.0386	6	C5H5+
67.0542	3	C5H7+
77.0386	207	C6H5+
79.0543	15	C6H7+
81.0699	12	C6H9+
89.0386	2	C7H5+
91.0542	535	C7H7+
93.0699	8	C7H9+
95.0491	17	C6H7O+
102.0465	14	C8H6+
103.0543	602	C8H7+
105.0334	5	C7H5O+
105.0447	67	C6H5N2+
105.0698	9	C8H9+
107.0492	4	C7H7O+
108.0571	2	C7H8O+
115.0544	4	C9H7+
117.0335	33	C8H5O+
117.07	2	C9H9+
119.0857	3	C9H11+
121.0647	11	C8H9O+
128.062	2	C10H8+
131.0491	137	C9H7O+
133.0647	4	C9H9O+
135.0805	13	C9H11O+
136.052	9	C8H8O2+
139.0752	2	C8H11O2+
142.0777	3	C11H10+
145.0648	13	C10H9O+
147.0439	3	C9H7O2+
149.0597	21	C9H9O2+
159.044	999	C10H7O2+
161.0597	5	C10H9O2+
163.0392	5	C9H7O3+
171.0809	1	C12H11O+
173.0605	2	C11H9O2+
175.0753	4	C11H11O2+
177.0546	102	C10H9O3+
179.0702	34	C10H11O3+
195.0646	4	C10H11O4+
207.0651	34	C11H11O4+
215.1059	1	C14H15O2+
241.0857	4	C15H13O3+
