Mass spectrum: Diatrizoate; LC-ESI-ITFT; MS2; CE: 45%; R=7500; [M+H]+
Name: Diatrizoate
Name: Diatrizoic acid
Name: 3,5-diacetamido-2,4,6-triiodo-benzoic acid
Formula: C11H9I3N2O4
Exact mass: 613.7697
SMILES: CC(=O)NC1=C(I)C(C(O)=O)=C(I)C(NC(C)=O)=C1I
InChI: InChI=1S/C11H9I3N2O4/c1-3(17)15-9-6(12)5(11(19)20)7(13)10(8(9)14)16-4(2)18/h1-2H3,(H,15,17)(H,16,18)(H,19,20)
Instrument: LTQ Orbitrap XL Thermo Scientific
Instrument type: LC-ESI-ITFT
Ms type: MS2
Ion mode: POSITIVE
Ionization: ESI
Fragmentation mode: HCD
Collision energy: 45 % (nominal)
Resolution: 7500
Column name: XBridge C18 3.5um, 2.1x50mm, Waters
Retention time: 1.6 min
Base peak: 631.8031
Precursor m/z: 614.7769
Precursor type: [M+H]+
m/z	relative intensity	assigned
148.0391	65	C8H6NO2+
148.0637	5	C8H8N2O+
180.0522	13	C8H8N2O3+
189.0661	32	C10H9N2O2+
191.0581	5	C10H9NO3+
192.0529	145	C9H8N2O3+
215.0446	8	C11H7N2O3+
219.0394	25	C10H7N2O4+
233.0555	999	C11H9N2O4+
300.9455	5	C9H6IN2O2+
318.957	50	C9H8IN2O3+
360.9682	84	C11H10IN2O4+
