Mass spectrum: Repaglinide; LC-ESI-QFT; MS2; CE: 120; R=35000; [M+H]+
Name: Repaglinide
Name: 2-ethoxy-4-[2-[[3-methyl-1-(2-piperidin-1-ylphenyl)butyl]amino]-2-oxoethyl]benzoic acid
Formula: C27H36N2O4
Exact mass: 452.26751
SMILES: CCOC1=C(C=CC(=C1)CC(=O)NC(CC(C)C)C2=CC=CC=C2N3CCCCC3)C(=O)O
InChI: InChI=1S/C27H36N2O4/c1-4-33-25-17-20(12-13-22(25)27(31)32)18-26(30)28-23(16-19(2)3)21-10-6-7-11-24(21)29-14-8-5-9-15-29/h6-7,10-13,17,19,23H,4-5,8-9,14-16,18H2,1-3H3,(H,28,30)(H,31,32)
Instrument: Q Exactive Plus Orbitrap Thermo Scientific
Instrument type: LC-ESI-QFT
Ms type: MS2
Ion mode: POSITIVE
Ionization: ESI
Fragmentation mode: HCD
Collision energy: 120 (nominal)
Resolution: 35000
Column name: XBridge C18 3.5um, 2.1x50mm, Waters
Retention time: 9.7 min
Base peak: 453.2744
Precursor m/z: 453.2748
Precursor type: [M+H]+
m/z	relative intensity	assigned
50.0151	5	C4H2+
51.0228	6	C4H3+
53.0022	11	C3HO+
53.0386	19	C4H5+
53.9974	2	C2NO+
54.0338	1	C3H4N+
55.0543	26	C4H7+
56.0495	3	C3H6N+
57.0699	2	C4H9+
63.0228	5	C5H3+
65.0386	115	C5H5+
66.0464	7	C5H6+
67.0417	2	C4H5N+
67.0542	15	C5H7+
67.9893	1	C3O2+
68.0495	1	C4H6N+
69.0699	4	C5H9+
77.0385	41	C6H5+
78.0464	7	C6H6+
79.0542	61	C6H7+
80.0494	3	C5H6N+
81.0335	2	C5H5O+
82.0651	3	C5H8N+
84.0808	2	C5H10N+
86.0964	4	C5H12N+
89.0386	28	C7H5+
90.0465	73	C7H6+
91.0543	635	C7H7+
92.0495	1	C6H6N+
92.0621	4	C7H8+
93.0574	14	C6H7N+
93.0699	4	C7H9+
94.0653	5	C6H8N+
95.0492	72	C6H7O+
96.0443	2	C5H6NO+
102.0464	3	C8H6+
103.0543	81	C8H7+
104.0495	20	C7H6N+
104.0621	10	C8H8+
105.0335	54	C7H5O+
105.0448	41	C6H5N2+
105.0699	41	C8H9+
106.0652	144	C7H8N+
107.0494	4	C7H7O+
107.0729	2	C7H9N+
109.0649	11	C7H9O+
115.0543	85	C9H7+
116.0495	10	C8H6N+
116.062	11	C9H8+
117.0573	504	C8H7N+
117.0698	46	C9H9+
118.0651	328	C8H8N+
119.0604	5	C7H7N2+
119.0729	6	C8H9N+
120.0808	25	C8H10N+
123.0441	3	C7H7O2+
127.0541	4	C10H7+
128.0495	17	C9H6N+
128.0621	15	C10H8+
129.0575	5	C9H7N+
129.0698	14	C10H9+
130.0652	999	C9H8N+
131.073	196	C9H9N+
132.0808	85	C9H10N+
141.07	4	C11H9+
142.0651	9	C10H8N+
142.0775	1	C11H10+
143.073	128	C10H9N+
144.0808	531	C10H10N+
145.065	6	C10H9O+
145.0887	20	C10H11N+
146.0599	10	C9H8NO+
146.0965	36	C10H12N+
154.0651	1	C11H8N+
155.0605	13	C10H7N2+
155.0728	1	C11H9N+
156.0808	22	C11H10N+
157.0887	27	C11H11N+
158.0965	205	C11H12N+
159.1043	6	C11H13N+
160.0758	1	C10H10NO+
160.1121	4	C11H14N+
168.0807	2	C12H10N+
170.0965	23	C12H12N+
171.1044	7	C12H13N+
172.1121	183	C12H14N+
174.1277	6	C12H16N+
184.1122	7	C13H14N+
186.1278	23	C13H16N+
