Mass spectrum: 3,4,5-Trimethacarb; LC-ESI-QFT; MS2; CE: 75%; R=17500; [M+H]+
Name: 3,4,5-Trimethacarb
Name: 3,4,5-Trimethylphenyl methylcarbamate
Name: (3,4,5-trimethylphenyl) N-methylcarbamate
Formula: C11H15NO2
Exact mass: 193.1103
SMILES: CC1=CC(=CC(=C1C)C)OC(=O)NC
InChI: InChI=1S/C11H15NO2/c1-7-5-10(14-11(13)12-4)6-8(2)9(7)3/h5-6H,1-4H3,(H,12,13)
Instrument: Exploris 240 Orbitrap Thermo Scientific
Instrument type: LC-ESI-QFT
Ms type: MS2
Ion mode: POSITIVE
Ionization: ESI
Fragmentation mode: HCD
Collision energy: 75 % (nominal)
Resolution: 17500
Column name: XBridge C18 3.5um, 2.1x50mm, Waters
Retention time: 7.147 min
Base peak: 137.096
Precursor m/z: 194.1176
Precursor type: [M+H]+
m/z	relative intensity	assigned
55.0543	15	C4H7+
58.0288	11	C2H4NO+
67.0542	192	C5H7+
77.0389	20	C6H5+
81.07	55	C6H9+
91.0543	56	C7H7+
93.0697	35	C7H9+
95.0856	33	C7H11+
103.0541	9	C8H7+
107.0491	139	C7H7O+
109.1011	347	C8H13+
119.0856	84	C9H11+
121.0649	96	C8H9O+
122.0726	999	C8H10O+
135.0806	39	C9H11O+
137.096	994	C9H13O+
