Mass spectrum: Sulfamethoxazole; LC-ESI-ITFT; MS2; CE: 30%; R=7500; [M+H]+
Name: Sulfamethoxazole
Name: 4-Amino-N-(5-methyl-3-isoxazolyl)benzenesulfonamide
Name: 4-amino-N-(5-methyl-1,2-oxazol-3-yl)benzenesulfonamide
Formula: C10H11N3O3S
Exact mass: 253.0521
SMILES: c1(S(Nc2cc(C)on2)(=O)=O)ccc(N)cc1
InChI: InChI=1S/C10H11N3O3S/c1-7-6-10(12-16-7)13-17(14,15)9-4-2-8(11)3-5-9/h2-6H,11H2,1H3,(H,12,13)
Instrument: LTQ Orbitrap XL Thermo Scientific
Instrument type: LC-ESI-ITFT
Ms type: MS2
Ion mode: POSITIVE
Ionization: ESI
Fragmentation mode: HCD
Collision energy: 30 % (nominal)
Resolution: 7500
Column name: XBridge C18 3.5um, 2.1x50mm, Waters
Retention time: 4.6 min
Base peak: 254.0603
Precursor m/z: 254.0594
Precursor type: [M+H]+
m/z	relative intensity	assigned
65.0385	10	C5H5+
68.0494	9	C4H6N+
92.0495	206	C6H6N+
93.0573	119	C6H7N+
94.0652	25	C6H8N+
99.0553	126	C4H7N2O+
107.0604	24	C6H7N2+
108.0444	356	C6H6NO+
146.071	30	C8H8N3+
147.0791	155	C8H9N3+
148.087	50	C8H10N3+
156.0114	944	C6H6NO2S+
160.0869	180	C9H10N3+
161.0013	11	C4H5N2O3S+
176.0273	7	C8H6N3S+
188.0817	137	C10H10N3O+
190.0974	96	C10H12N3O+
194.0382	49	C8H8N3OS+
254.0593	999	C10H12N3O3S+
