Mass spectrum: Linoleic acid; LC-ESI-QFT; MS2; CE: 60; R=35000; [M+H]+
Name: Linoleic acid
Name: (9Z,12Z)-octadeca-9,12-dienoic acid
Formula: C18H32O2
Exact mass: 280.24023
SMILES: CCCCC/C=C\C/C=C\CCCCCCCC(=O)O
InChI: InChI=1S/C18H32O2/c1-2-3-4-5-6-7-8-9-10-11-12-13-14-15-16-17-18(19)20/h6-7,9-10H,2-5,8,11-17H2,1H3,(H,19,20)/b7-6-,10-9-
Instrument: Q Exactive Orbitrap Thermo Scientific
Instrument type: LC-ESI-QFT
Ms type: MS2
Ion mode: POSITIVE
Ionization: ESI
Fragmentation mode: HCD
Collision energy: 60 (nominal)
Resolution: 35000
Column name: XBridge C18 3.5um, 2.1x50mm, Waters
Retention time: 19.4 min
Base peak: 298.274
Precursor m/z: 281.2475
Precursor type: [M+H]+
m/z	relative intensity	assigned
53.0023	5	C3HO+
53.0387	14	C4H5+
55.0543	53	C4H7+
57.0336	6	C3H5O+
57.0699	115	C4H9+
59.0492	28	C3H7O+
65.0386	35	C5H5+
67.0542	600	C5H7+
69.0699	999	C5H9+
71.0491	53	C4H7O+
71.0855	68	C5H11+
73.0648	17	C4H9O+
74.0964	6	C4H12N+
77.0385	5	C6H5+
79.0542	255	C6H7+
81.0699	832	C6H9+
83.0492	75	C5H7O+
83.0855	445	C6H11+
85.0285	4	C4H5O2+
85.0648	65	C5H9O+
85.1011	11	C6H13+
87.0439	3	C4H7O2+
87.0805	4	C5H11O+
91.0542	291	C7H7+
93.0699	368	C7H9+
95.0492	58	C6H7O+
95.0855	706	C7H11+
96.0889	4	C2H12N2O2+
97.0648	107	C6H9O+
97.1012	225	C7H13+
99.0441	12	C5H7O2+
99.0805	24	C6H11O+
101.0598	14	C5H9O2+
103.0544	5	C8H7+
105.0699	326	C8H9+
107.0856	262	C8H11+
109.0648	69	C7H9O+
109.1012	285	C8H13+
111.044	17	C6H7O2+
111.0804	38	C7H11O+
111.1168	23	C8H15+
113.0963	3	C7H13O+
115.0543	3	C9H7+
117.0698	22	C9H9+
118.0778	3	C9H10+
119.0855	276	C9H11+
121.0284	36	C7H5O2+
121.0649	16	C8H9O+
121.1012	144	C9H13+
123.0804	84	C8H11O+
123.1168	82	C9H15+
125.0598	4	C7H9O2+
125.096	16	C8H13O+
128.0622	5	C10H8+
129.07	5	C10H9+
131.0005	3	C7HNO2+
131.0858	22	C10H11+
133.1012	169	C10H13+
135.0804	15	C9H11O+
135.1168	67	C10H15+
137.0598	14	C8H9O2+
137.0961	29	C9H13O+
137.1325	20	C10H17+
139.0755	4	C8H11O2+
139.112	3	C9H15O+
142.078	4	C11H10+
143.0859	13	C11H11+
145.1013	18	C11H13+
147.0806	14	C10H11O+
147.1169	90	C11H15+
149.0234	164	C8H5O3+
149.1325	29	C11H17+
157.1014	5	C12H13+
159.117	5	C12H15+
161.0961	7	C11H13O+
161.1326	47	C12H17+
163.112	3	C11H15O+
163.1481	7	C12H19+
165.1278	5	C11H17O+
175.1116	4	C12H15O+
175.1484	18	C13H19+
193.1226	7	C12H17O2+
