Mass spectrum: Tepraloxydim; LC-ESI-QFT; MS2; CE: 45; R=35000; [M-H]-
Name: Tepraloxydim
Name: E-Tepraloxydim
Formula: C17H24ClNO4
Exact mass: 341.13939
SMILES: CC/C(=N\OC\C=C\Cl)/C=1C(=O)CC(CC=1O)C2CCOCC2
InChI: InChI=1S/C17H24ClNO4/c1-2-14(19-23-7-3-6-18)17-15(20)10-13(11-16(17)21)12-4-8-22-9-5-12/h3,6,12-13,20H,2,4-5,7-11H2,1H3/b6-3+,19-14+
Instrument: Q Exactive Orbitrap Thermo Scientific
Instrument type: LC-ESI-QFT
Ms type: MS2
Ion mode: NEGATIVE
Ionization: ESI
Fragmentation mode: HCD
Collision energy: 45 (nominal)
Resolution: 35000
Column name: XBridge C18 3.5um, 2.1x50mm, Waters
Retention time: 11.5 min
Base peak: 340.1324
Precursor m/z: 340.1321
Precursor type: [M-H]-
m/z	relative intensity	assigned
57.0346	1	C3H5O-
65.9984	19	C3NO-
66.0349	11	C4H4N-
81.0346	1	C5H5O-
82.0299	2	C4H4NO-
83.0139	4	C4H3O2-
83.0503	8	C5H7O-
90.9957	10	C3H4ClO-
92.0506	11	C6H6N-
93.0347	1	C6H5O-
94.0299	3	C5H4NO-
96.0456	2	C5H6NO-
107.0503	4	C7H7O-
108.0455	11	C6H6NO-
109.0295	15	C6H5O2-
110.0248	1	C5H4NO2-
110.0612	14	C6H8NO-
112.077	1	C6H10NO-
118.0299	2	C7H4NO-
120.0091	1	C6H2NO2-
120.0455	1	C7H6NO-
120.0819	3	C8H10N-
121.0533	4	C7H7NO-
121.0658	2	C8H9O-
122.0613	5	C7H8NO-
123.0817	1	C8H11O-
126.0199	1	C5H4NO3-
134.0248	226	C7H4NO2-
135.0326	4	C7H5NO2-
135.045	1	C8H7O2-
136.0402	6	C7H6NO2-
137.061	8	C8H9O2-
144.0455	1	C9H6NO-
145.0533	8	C9H7NO-
146.0613	1	C9H8NO-
148.0771	1	C9H10NO-
148.1128	1	C10H14N-
149.097	2	C10H13O-
150.0559	1	C8H8NO2-
150.0924	13	C9H12NO-
153.0921	15	C9H13O2-
158.0976	2	C11H12N-
161.0849	1	C10H11NO-
162.0561	16	C9H8NO2-
162.0925	1	C10H12NO-
163.0639	23	C9H9NO2-
164.0719	9	C9H10NO2-
165.0795	24	C9H11NO2-
165.0921	4	C10H13O2-
167.0229	1	C7H5NO4-
174.0922	1	C11H12NO-
176.108	24	C11H14NO-
178.0879	1	C10H12NO2-
178.1238	4	C11H16NO-
179.1077	5	C11H15O2-
180.067	6	C9H10NO3-
192.103	1	C11H14NO2-
195.1027	40	C11H15O3-
200.1081	6	C13H14NO-
204.1032	2	C12H14NO2-
206.1188	45	C12H16NO2-
218.1182	9	C13H16NO2-
220.098	446	C12H14NO3-
221.1183	52	C13H17O3-
222.1135	1	C12H16NO3-
230.1187	5	C14H16NO2-
233.1056	11	C13H15NO3-
236.0927	4	C12H14NO4-
248.1293	999	C14H18NO3-
250.1448	37	C14H20NO3-
