Mass spectrum: Metamitron; LC-ESI-ITFT; MS2; CE: 60%; R=15000; [M+H]+
Name: Metamitron
Name: 4-Amino-4,5-dihydro-3-methyl-6-phenyl-1,2,4-triazin-5-one
Name: 4-amino-3-methyl-6-phenyl-1,2,4-triazin-5-one
Formula: C10H10N4O
Exact mass: 202.0860
SMILES: c(ccc1C(=NN=C2C)C(=O)N2N)cc1
InChI: InChI=1S/C10H10N4O/c1-7-12-13-9(10(15)14(7)11)8-5-3-2-4-6-8/h2-6H,11H2,1H3
Instrument: LTQ Orbitrap XL Thermo Scientific
Instrument type: LC-ESI-ITFT
Ms type: MS2
Ion mode: POSITIVE
Ionization: ESI
Fragmentation mode: HCD
Collision energy: 60 % (nominal)
Resolution: 15000
Column name: XBridge C18 3.5um, 2.1x50mm, Waters
Retention time: 4.9 min
Base peak: 203.093
Precursor m/z: 203.0927
Precursor type: [M+H]+
m/z	relative intensity	assigned
56.0131	7	C2H2NO+
57.0447	35	C2H5N2+
59.0239	5	CH3N2O+
72.0446	6	C3H6NO+
72.0557	15	C2H6N3+
77.0386	32	C6H5+
79.0543	61	C6H7+
83.0241	32	C3H3N2O+
89.0386	22	C7H5+
92.0257	4	C6H4O+
92.0496	24	C6H6N+
95.049	4	C6H7O+
100.0506	6	C3H6N3O+
103.0542	5	C8H7+
104.0495	355	C7H6N+
105.0449	10	C6H5N2+
105.0573	24	C7H7N+
106.0652	81	C7H8N+
107.0605	10	C6H7N2+
117.0449	10	C7H5N2+
117.0573	3	C8H7N+
118.0526	4	C7H6N2+
118.065	6	C8H8N+
119.0604	13	C7H7N2+
130.0652	50	C9H8N+
134.0713	22	C7H8N3+
145.0397	40	C8H5N2O+
158.0588	2	C8H6N4+
158.0715	36	C9H8N3+
159.0791	47	C9H9N3+
173.0715	6	C10H9N2O+
174.0789	194	C10H10N2O+
175.098	999	C9H11N4+
186.0663	6	C10H8N3O+
187.0739	7	C10H9N3O+
203.0929	391	C10H11N4O+
