Mass spectrum: Flecainide; LC-ESI-QFT; MS2; CE: 15; R=35000; [M+H]+
Name: Flecainide
Name: N-(2-piperidinylmethyl)-2,5-bis(2,2,2-trifluoroethoxy)benzamide
Formula: C17H20F6N2O3
Exact mass: 414.13781
SMILES: C1CCNC(C1)CNC(=O)C2=C(C=CC(=C2)OCC(F)(F)F)OCC(F)(F)F
InChI: InChI=1S/C17H20F6N2O3/c18-16(19,20)9-27-12-4-5-14(28-10-17(21,22)23)13(7-12)15(26)25-8-11-3-1-2-6-24-11/h4-5,7,11,24H,1-3,6,8-10H2,(H,25,26)
Instrument: Q Exactive Orbitrap Thermo Scientific
Instrument type: LC-ESI-QFT
Ms type: MS2
Ion mode: POSITIVE
Ionization: ESI
Fragmentation mode: HCD
Collision energy: 15 (nominal)
Resolution: 35000
Column name: XBridge C18 3.5um, 2.1x50mm, Waters
Retention time: 6.7 min
Base peak: 415.1452
Precursor m/z: 415.1451
Precursor type: [M+H]+
m/z	relative intensity	assigned
98.0963	2	C6H12N+
301.0275	3	C14H6F5O2+
398.1179	32	C17H18F6NO3+
415.145	999	C17H21F6N2O3+
