Mass spectrum: Coumatetralyl; LC-ESI-QFT; MS2; CE: 150%; R=17500; [M+H]+
Name: Coumatetralyl
Name: 4-hydroxy-3-(1,2,3,4-tetrahydronaphthalen-1-yl)chromen-2-one
Formula: C19H16O3
Exact mass: 292.1099
SMILES: C1CC(C2=CC=CC=C2C1)C3=C(C4=CC=CC=C4OC3=O)O
InChI: InChI=1S/C19H16O3/c20-18-15-9-3-4-11-16(15)22-19(21)17(18)14-10-5-7-12-6-1-2-8-13(12)14/h1-4,6,8-9,11,14,20H,5,7,10H2
Instrument: Exploris 240 Orbitrap Thermo Scientific
Instrument type: LC-ESI-QFT
Ms type: MS2
Ion mode: POSITIVE
Ionization: ESI
Fragmentation mode: HCD
Collision energy: 150 % (nominal)
Resolution: 17500
Column name: XBridge C18 3.5um, 2.1x50mm, Waters
Retention time: 10.203 min
Base peak: 293.1169
Precursor m/z: 293.1172
Precursor type: [M+H]+
m/z	relative intensity	assigned
50.0152	15	C4H2+
51.0229	186	C4H3+
53.0022	24	C3HO+
53.0386	63	C4H5+
63.023	31	C5H3+
65.0386	999	C5H5+
77.0386	487	C6H5+
79.0543	109	C6H7+
89.0386	8	C7H5+
91.0543	673	C7H7+
93.0334	44	C6H5O+
94.0414	18	C6H6O+
95.0492	293	C6H7O+
102.0467	11	C8H6+
103.0543	27	C8H7+
111.0442	24	C6H7O2+
115.054	49	C9H7+
121.0284	64	C7H5O2+
128.0622	23	C10H8+
