Mass spectrum: 2-Chlorobenzenesulfonamide; LC-ESI-QFT; MS2; CE: 75; R=35000; [M+H]+
Name: 2-Chlorobenzenesulfonamide
Name: 2-chlorobenzenesulfonamide
Formula: C6H6ClNO2S
Exact mass: 190.98078
SMILES: C1=CC=C(C(=C1)S(=O)(=O)N)Cl
InChI: InChI=1S/C6H6ClNO2S/c7-5-3-1-2-4-6(5)11(8,9)10/h1-4H,(H2,8,9,10)
Instrument: Q Exactive Orbitrap Thermo Scientific
Instrument type: LC-ESI-QFT
Ms type: MS2
Ion mode: POSITIVE
Ionization: ESI
Fragmentation mode: HCD
Collision energy: 75 (nominal)
Resolution: 35000
Column name: XBridge C18 3.5um, 2.1x50mm, Waters
Retention time: 4.4 min
Base peak: 191.988
Precursor m/z: 191.9881
Precursor type: [M+H]+
m/z	relative intensity	assigned
50.0151	5	C4H2+
53.0022	11	C3HO+
59.0491	1	C3H7O+
65.0385	28	C5H5+
74.015	31	C6H2+
75.0229	509	C6H3+
76.0306	4	C6H4+
79.0178	8	C5H3O+
80.0256	1	C5H4O+
84.9839	25	C4H2Cl+
86.9996	68	C4H4Cl+
93.0334	46	C6H5O+
94.0413	35	C6H6O+
98.0362	2	C5H6O2+
98.9996	8	C5H4Cl+
101.0153	2	C5H6Cl+
108.0206	1	C6H4O2+
110.9995	221	C6H4Cl+
111.044	148	C6H7O2+
114.9943	5	C5H4ClO+
121.0395	23	C6H5N2O+
126.9945	2	C6H4ClO+
128.0021	1	C6H5ClO+
129.0101	874	C6H6ClO+
130.0137	1	CH7ClN2O3+
130.9716	1	C5H4ClS+
139.0057	999	C6H4ClN2+
