Mass spectrum: Albuterol; LC-ESI-ITFT; MS2; CE: 60%; R=7500; [M+H]+
Name: Albuterol
Name: Salbutamol
Name: 4-[2-(tert-butylamino)-1-hydroxy-ethyl]-2-methylol-phenol
Formula: C13H21NO3
Exact mass: 239.1521
SMILES: OCc1cc(ccc1O)C(O)CNC(C)(C)C
InChI: InChI=1S/C13H21NO3/c1-13(2,3)14-7-12(17)9-4-5-11(16)10(6-9)8-15/h4-6,12,14-17H,7-8H2,1-3H3
Instrument: LTQ Orbitrap XL Thermo Scientific
Instrument type: LC-ESI-ITFT
Ms type: MS2
Ion mode: POSITIVE
Ionization: ESI
Fragmentation mode: HCD
Collision energy: 60 % (nominal)
Resolution: 7500
Column name: XBridge C18 3.5um, 2.1x50mm, Waters
Retention time: 2.0 min
Base peak: 240.1602
Precursor m/z: 240.1594
Precursor type: [M+H]+
m/z	relative intensity	assigned
55.0178	2	C3H3O+
57.0698	17	C4H9+
68.0494	1	C4H6N+
77.0383	2	C6H5+
79.0543	15	C6H7+
80.0495	7	C5H6N+
91.0543	13	C7H7+
93.0699	13	C7H9+
94.0652	4	C6H8N+
103.0543	12	C8H7+
106.0652	11	C7H8N+
107.0486	2	C7H7O+
118.0651	11	C8H8N+
119.049	6	C8H7O+
120.0809	58	C8H10N+
121.0649	91	C8H9O+
130.0652	88	C9H8N+
131.0495	11	C9H7O+
133.0523	69	C8H7NO+
135.0674	2	C8H9NO+
136.0758	14	C8H10NO+
148.0758	999	C9H10NO+
166.0861	9	C9H12NO2+
