Mass spectrum: Dexamethasone; LC-ESI-ITFT; MS2; CE: 35%; R=30000; [M+H]+
Name: Dexamethasone
Name: (8S,9R,10S,11S,13S,14S,16R,17R)-9-fluoranyl-10,13,16-trimethyl-11,17-bis(oxidanyl)-17-(2-oxidanylethanoyl)-6,7,8,11,12,14,15,16-octahydrocyclopenta[a]phenanthren-3-one
Formula: C22H29FO5
Exact mass: 392.1999
SMILES: [H][C@@]12C[C@@H](C)[C@](O)(C(=O)CO)[C@@]1(C)C[C@H](O)[C@@]3(F)[C@@]2([H])CCC4=CC(=O)C=C[C@]34C
InChI: InChI=1S/C22H29FO5/c1-12-8-16-15-5-4-13-9-14(25)6-7-19(13,2)21(15,23)17(26)10-20(16,3)22(12,28)18(27)11-24/h6-7,9,12,15-17,24,26,28H,4-5,8,10-11H2,1-3H3/t12-,15+,16+,17+,19+,20+,21+,22+/m1/s1
Instrument: LTQ Orbitrap XL Thermo Scientific
Instrument type: LC-ESI-ITFT
Ms type: MS2
Ion mode: POSITIVE
Ionization: ESI
Fragmentation mode: CID
Collision energy: 35 % (nominal)
Resolution: 30000
Column name: XBridge C18 3.5um, 2.1x50mm, Waters
Retention time: 9.5 min
Base peak: 393.2068
Precursor m/z: 393.2072
Precursor type: [M+H]+
m/z	relative intensity	assigned
173.0959	4	C12H13O+
185.0958	5	C13H13O+
195.1017	3	C11H15O3+
209.0959	2	C15H13O+
211.1112	3	C15H15O+
223.1122	2	C16H15O+
225.1272	5	C16H17O+
237.1272	22	C17H17O+
239.1441	3	C17H19O+
253.1221	5	C17H17O2+
267.1378	5	C18H19O2+
267.174	24	C19H23O+
275.1436	6	C20H19O+
277.1588	17	C20H21O+
279.174	14	C20H23O+
289.1581	6	C21H21O+
291.1742	53	C21H23O+
295.1687	9	C20H23O2+
297.185	5	C20H25O2+
301.1586	19	C22H21O+
307.1692	19	C21H23O2+
309.1847	55	C21H25O2+
319.1691	95	C22H23O2+
325.1796	54	C21H25O3+
327.1961	10	C21H27O3+
337.1796	158	C22H25O3+
343.1902	23	C21H27O4+
355.1902	326	C22H27O4+
373.2007	999	C22H29O5+
