Mass spectrum: Epinephrine; LC-ESI-QFT; MS2; CE: 90; R=35000; [M+H]+
Name: Epinephrine
Name: 4-[(1R)-1-hydroxy-2-(methylamino)ethyl]benzene-1,2-diol
Formula: C9H13NO3
Exact mass: 183.08954
SMILES: CNC[C@@H](C1=CC(=C(C=C1)O)O)O
InChI: InChI=1S/C9H13NO3/c1-10-5-9(13)6-2-3-7(11)8(12)4-6/h2-4,9-13H,5H2,1H3/t9-/m0/s1
Instrument: Q Exactive Orbitrap Thermo Scientific
Instrument type: LC-ESI-QFT
Ms type: MS2
Ion mode: POSITIVE
Ionization: ESI
Fragmentation mode: HCD
Collision energy: 90 (nominal)
Resolution: 35000
Column name: XBridge C18 3.5um, 2.1x50mm, Waters
Retention time: 0.8 min
Base peak: 166.0863
Precursor m/z: 184.0968
Precursor type: [M+H]+
m/z	relative intensity	assigned
50.0152	3	C4H2+
53.0387	3	C4H5+
56.0496	38	C3H6N+
57.0574	203	C3H7N+
58.0652	82	C3H8N+
63.023	3	C5H3+
65.0386	56	C5H5+
66.0465	2	C5H6+
67.0417	14	C4H5N+
67.0542	39	C5H7+
68.0495	26	C4H6N+
69.0574	2	C4H7N+
70.0287	13	C3H4NO+
70.0651	2	C4H8N+
77.0386	193	C6H5+
78.0464	108	C6H6+
79.0543	600	C6H7+
80.0495	190	C5H6N+
81.0335	234	C5H5O+
82.0414	3	C5H6O+
89.0386	49	C7H5+
90.0463	2	C7H6+
91.0542	381	C7H7+
92.0257	3	C6H4O+
92.0494	4	C6H6N+
93.0334	2	C6H5O+
93.0574	12	C6H7N+
93.0699	36	C7H9+
94.0287	32	C5H4NO+
94.0652	87	C6H8N+
95.0492	485	C6H7O+
95.073	33	C6H9N+
96.0443	15	C5H6NO+
96.0567	1	C6H8O+
97.0649	8	C6H9O+
103.0543	54	C8H7+
104.0495	100	C7H6N+
105.0336	86	C7H5O+
105.0448	189	C6H5N2+
105.0573	130	C7H7N+
106.0414	59	C7H6O+
106.0652	26	C7H8N+
107.0492	999	C7H7O+
108.0444	45	C6H6NO+
108.057	4	C7H8O+
108.0809	4	C7H10N+
109.0285	101	C6H5O2+
109.0649	8	C7H9O+
110.0363	89	C6H6O2+
110.0601	10	C6H8NO+
117.0336	8	C8H5O+
117.0574	2	C8H7N+
118.0651	39	C8H8N+
119.0492	47	C8H7O+
119.0729	10	C8H9N+
120.0808	285	C8H10N+
121.0648	18	C8H9O+
122.0601	46	C7H8NO+
123.0441	932	C7H7O2+
124.0519	82	C7H8O2+
125.0597	3	C7H9O2+
130.0653	27	C9H8N+
131.0493	11	C9H7O+
131.073	10	C9H9N+
132.0445	57	C8H6NO+
132.0807	3	C9H10N+
133.0523	140	C8H7NO+
134.0364	39	C8H6O2+
134.0601	135	C8H8NO+
135.0441	30	C8H7O2+
136.0393	29	C7H6NO2+
136.0519	4	C8H8O2+
136.076	2	C8H10NO+
137.0598	16	C8H9O2+
146.0602	45	C9H8NO+
147.0678	13	C9H9NO+
148.0758	154	C9H10NO+
149.0836	24	C9H11NO+
150.055	84	C8H8NO2+
151.0628	283	C8H9NO2+
164.071	2	C9H10NO2+
165.0786	7	C9H11NO2+
166.0865	10	C9H12NO2+
