Mass spectrum: 2-Naphthoxyacetic acid; LC-ESI-QFT; MS2; CE: 30; R=35000; [M+H]+
Name: 2-Naphthoxyacetic acid
Name: beta-Naphthoxyacetic acid
Name: (2-Naphthyloxy)acetic acid
Formula: C12H10O3
Exact mass: 202.06299
SMILES: C1=CC=C2C=C(C=CC2=C1)OCC(=O)O
InChI: InChI=1S/C12H10O3/c13-12(14)8-15-11-6-5-9-3-1-2-4-10(9)7-11/h1-7H,8H2,(H,13,14)
Instrument: Q Exactive Plus Orbitrap Thermo Scientific
Instrument type: LC-ESI-QFT
Ms type: MS2
Ion mode: POSITIVE
Ionization: ESI
Fragmentation mode: HCD
Collision energy: 30 (nominal)
Resolution: 35000
Column name: XBridge C18 3.5um, 2.1x50mm, Waters
Retention time: 8.5 min
Base peak: 230.1747
Precursor m/z: 203.0703
Precursor type: [M+H]+
m/z	relative intensity	assigned
55.0542	1	C4H7+
67.0542	1	C5H7+
69.0698	1	C5H9+
77.0382	1	C6H5+
81.0698	1	C6H9+
83.0855	12	C6H11+
87.0441	1	C4H7O2+
93.0699	1	C7H9+
103.0542	2	C8H7+
107.0855	3	C8H11+
111.0439	1	C6H7O2+
111.0804	9	C7H11O+
115.0542	4	C9H7+
127.054	10	C10H7+
128.0619	2	C10H8+
129.0699	193	C10H9+
135.0805	2	C9H11O+
139.0754	5	C8H11O2+
143.0854	1	C11H11+
144.0571	1	C10H8O+
145.0649	11	C10H9O+
155.0605	25	C10H7N2+
157.0648	999	C11H9O+
175.0753	7	C11H11O2+
185.0598	6	C12H9O2+
203.0706	10	C12H11O3+
