Mass spectrum: 4,6-dinitro-o-cresol; LC-ESI-QFT; MS2; CE: 60; R=35000; [M-H]-
Name: 4,6-dinitro-o-cresol
Name: DNOC
Name: 2-methyl-4,6-dinitro-phenol
Formula: C7H6N2O5
Exact mass: 198.02767
SMILES: [O-][N+](=O)c1cc([N+]([O-])=O)cc(c1O)C
InChI: InChI=1S/C7H6N2O5/c1-4-2-5(8(11)12)3-6(7(4)10)9(13)14/h2-3,10H,1H3
Instrument: Q Exactive Orbitrap Thermo Scientific
Instrument type: LC-ESI-QFT
Ms type: MS2
Ion mode: NEGATIVE
Ionization: ESI
Fragmentation mode: HCD
Collision energy: 60 (nominal)
Resolution: 35000
Column name: XBridge C18 3.5um, 2.1x50mm, Waters
Retention time: 8.0 min
Base peak: 197.0207
Precursor m/z: 197.0204
Precursor type: [M-H]-
m/z	relative intensity	assigned
63.0115	2	C4HN-
64.0193	34	C4H2N-
65.0146	9	C3HN2-
65.0397	58	C5H5-
65.9985	14	C3NO-
66.035	8	C4H4N-
67.0189	4	C4H3O-
68.9982	8	C3HO2-
76.0194	2	C5H2N-
78.035	3	C5H4N-
80.0267	1	C5H4O-
81.0346	11	C5H5O-
88.0193	13	C6H2N-
93.0346	59	C6H5O-
95.0139	3	C5H3O2-
108.0217	2	C6H4O2-
109.0296	729	C6H5O2-
110.0247	29	C5H4NO2-
120.0215	2	C7H4O2-
121.0296	60	C7H5O2-
122.0247	47	C6H4NO2-
123.0327	237	C6H5NO2-
134.025	10	C7H4NO2-
137.0244	958	C7H5O3-
138.0196	104	C6H4NO3-
139.0276	12	C6H5NO3-
140.0353	295	
150.0196	275	C7H4NO3-
151.0274	188	C7H5NO3-
166.0145	59	C7H4NO4-
167.0224	325	C7H5NO4-
180.0177	999	C7H4N2O4-
197.0204	744	C7H5N2O5-
212.0074	10	C7H4N2O6-
