Mass spectrum: Chlorothalonil-TP SYN507900; LC-ESI-QFT; MS2; CE: 75%; R=17500; [M-H]-
Name: Chlorothalonil-TP SYN507900
Name: 2,3,6-trichloro-5-cyano-4-hydroxybenzamide
Formula: C8H3Cl3N2O2
Exact mass: 263.9260
SMILES: NC(=O)C1=C(Cl)C(C#N)=C(O)C(Cl)=C1Cl
InChI: InChI=1S/C8H3Cl3N2O2/c9-4-2(1-12)7(14)6(11)5(10)3(4)8(13)15/h14H,(H2,13,15)
Instrument: Q Exactive Orbitrap Thermo Scientific
Instrument type: LC-ESI-QFT
Ms type: MS2
Ion mode: NEGATIVE
Ionization: ESI
Fragmentation mode: HCD
Collision energy: 75 % (nominal)
Resolution: 17500
Column name: XBridge C18 3.5um, 2.1x50mm, Waters
Retention time: 2.712 min
Base peak: 262.9187
Precursor m/z: 262.9187
Precursor type: [M-H]-
m/z	relative intensity	assigned
65.9986	411	C3NO-
86.0036	49	C6N-
88.0067	84	C5N2-
89.9987	201	C5NO-
112.0068	850	C7N2-
113.9986	567	C7NO-
122.9756	340	C5ClN2-
134.9755	222	C6ClN2-
146.9756	903	C7ClN2-
183.9361	985	C7Cl2NO-
219.9128	999	C7HCl3NO-
244.9079	233	C8Cl3N2O-
