Mass spectrum: Zonisamide; LC-ESI-QFT; MS2; CE: 90; R=35000; [M-H]-
Name: Zonisamide
Name: AD-810
Name: 1,2-benzoxazol-3-ylmethanesulfonamide
Formula: C8H8N2O3S
Exact mass: 212.02556
SMILES: O=S(=O)(N)Cc2noc1ccccc12
InChI: InChI=1S/C8H8N2O3S/c9-14(11,12)5-7-6-3-1-2-4-8(6)13-10-7/h1-4H,5H2,(H2,9,11,12)
Instrument: Q Exactive Orbitrap Thermo Scientific
Instrument type: LC-ESI-QFT
Ms type: MS2
Ion mode: NEGATIVE
Ionization: ESI
Fragmentation mode: HCD
Collision energy: 90 (nominal)
Resolution: 35000
Column name: XBridge C18 3.5um, 2.1x50mm, Waters
Retention time: 4.3 min
Base peak: 211.0183
Precursor m/z: 211.0183
Precursor type: [M-H]-
m/z	relative intensity	assigned
61.9706	77	NOS-
63.9624	195	O2S-
64.9703	10	HO2S-
65.0397	83	C5H5-
67.019	1	C4H3O-
77.9655	88	NO2S-
78.9733	419	HNO2S-
79.9812	8	H2NO2S-
89.0397	5	C7H5-
90.0349	238	C6H4N-
91.0553	100	C7H7-
93.0346	355	C6H5O-
93.9605	15	NO3S-
102.0349	2	C7H4N-
106.0424	8	C7H6O-
107.0503	68	C7H7O-
117.0347	316	C8H5O-
118.03	999	C7H4NO-
119.0502	685	C8H7O-
132.0454	9	C8H6NO-
