Mass spectrum: Isoxaben; LC-ESI-QFT; MS2; CE: 60; R=35000; [M+H]+
Name: Isoxaben
Name: 2,6-dimethoxy-N-[3-(3-methylpentan-3-yl)-1,2-oxazol-5-yl]benzamide
Formula: C18H24N2O4
Exact mass: 332.17361
SMILES: CCC(C)(CC)C1=NOC(=C1)NC(=O)C2=C(C=CC=C2OC)OC
InChI: InChI=1S/C18H24N2O4/c1-6-18(3,7-2)14-11-15(24-20-14)19-17(21)16-12(22-4)9-8-10-13(16)23-5/h8-11H,6-7H2,1-5H3,(H,19,21)
Instrument: Q Exactive Plus Orbitrap Thermo Scientific
Instrument type: LC-ESI-QFT
Ms type: MS2
Ion mode: POSITIVE
Ionization: ESI
Fragmentation mode: HCD
Collision energy: 60 (nominal)
Resolution: 35000
Column name: XBridge C18 3.5um, 2.1x50mm, Waters
Retention time: 10.5 min
Base peak: 333.1799
Precursor m/z: 333.1809
Precursor type: [M+H]+
m/z	relative intensity	assigned
53.0385	1	C4H5+
77.0384	5	C6H5+
79.0542	19	C6H7+
81.0334	1	C5H5O+
81.0698	2	C6H9+
91.0543	1	C7H7+
92.0255	2	C6H4O+
94.0413	2	C6H6O+
95.0491	5	C6H7O+
105.0334	5	C7H5O+
105.0447	3	C6H5N2+
107.0126	13	C6H3O2+
107.0491	22	C7H7O+
109.0647	9	C7H9O+
120.0204	1	C7H4O2+
122.0362	51	C7H6O2+
125.0597	4	C7H9O2+
135.0439	13	C8H7O2+
135.0551	2	C7H7N2O+
137.0597	4	C8H9O2+
150.0311	225	C8H6O3+
165.0545	999	C9H9O3+
168.0416	42	C8H8O4+
182.0574	2	C9H10O4+
