Mass spectrum: Fipronil-sulfide; LC-ESI-ITFT; MS2; CE: 45%; R=15000; [M+H]+
Name: Fipronil-sulfide
Name: 5-Amino-1-[2,6-dichloro-4-(trifluoromethyl)phenyl]-4-[(trifluoromethyl)sulfanyl]-1H-pyrazole-3-carbonitrile
Formula: C12H4Cl2F6N4S
Exact mass: 419.9438
SMILES: FC(F)(F)c2cc(Cl)c(n1nc(C#N)c(SC(F)(F)F)c1N)c(Cl)c2
InChI: InChI=1S/C12H4Cl2F6N4S/c13-5-1-4(11(15,16)17)2-6(14)8(5)24-10(22)9(7(3-21)23-24)25-12(18,19)20/h1-2H,22H2
Instrument: LTQ Orbitrap XL Thermo Scientific
Instrument type: LC-ESI-ITFT
Ms type: MS2
Ion mode: POSITIVE
Ionization: ESI
Fragmentation mode: HCD
Collision energy: 45 % (nominal)
Resolution: 15000
Column name: XBridge C18 3.5um, 2.1x50mm, Waters
Retention time: 13.0 min
Base peak: 442.9332
Precursor m/z: 420.9511
Precursor type: [M+H]+
m/z	relative intensity	assigned
80.0242	10	C3H2N3+
87.001	22	C2H3N2S+
96.9854	11	C3HN2S+
97.9933	38	C3H2N2S+
154.9882	13	C3H2F3N2S+
181.9989	11	C4H3F3N3S+
228.9662	11	C2H3Cl2F4N4+
233.0083	6	C9H5ClF3N2+
237.9702	12	C8H4ClF3NS+
239.9586	15	C3H2Cl2F4N4+
246.0038	54	C9H4ClF3N3+
254.9694	37	C9HF6S+
257.9279	21	C3H2Cl2F4N3S+
258.0038	5	C10H4ClF3N3+
259.0117	4	C10H5ClF3N3+
262.9659	8	C9H3ClF3N2S+
264.9806	135	C9H5ClF3N2S+
267.9773	12	C10H2F6S+
273.0132	5	C11F3N6+
274.9654	14	C10H3ClF3N2S+
282.0167	4	C8H5ClF4N5+
282.9223	14	C4HCl2F4N4S+
284.0066	11	C11H4ClF3N4+
285.0147	54	C11H5ClF3N4+
289.9758	48	C10H4ClF3N3S+
292.9722	8	C11HF6NS+
315.979	4	C11H4ClF3N4S+
316.9866	999	C11H5ClF3N4S+
317.9894	10	C9H5ClF2N6OS+
318.9752	5	C12HF6N2S+
319.9834	113	C12H2F6N2S+
335.9367	16	C11H3Cl2F3N3S+
350.9475	11	C11H4Cl2F3N4S+
351.9555	26	C11H5Cl2F3N4S+
385.984	8	C12H5ClF6N4S+
420.9506	170	C12H5Cl2F6N4S+
