Mass spectrum: Didanosine; LC-ESI-QFT; MS2; CE: 90; R=35000; [M-H]-
Name: Didanosine
Name: 9-[(2R,5S)-5-(hydroxymethyl)-2-oxolanyl]-3H-purin-6-one
Formula: C10H12N4O3
Exact mass: 236.09094
SMILES: O=C3/N=C\Nc1c3ncn1[C@@H]2O[C@@H](CC2)CO
InChI: InChI=1S/C10H12N4O3/c15-3-6-1-2-7(17-6)14-5-13-8-9(14)11-4-12-10(8)16/h4-7,15H,1-3H2,(H,11,12,16)/t6-,7+/m0/s1
Instrument: Q Exactive Orbitrap Thermo Scientific
Instrument type: LC-ESI-QFT
Ms type: MS2
Ion mode: NEGATIVE
Ionization: ESI
Fragmentation mode: HCD
Collision energy: 90 (nominal)
Resolution: 35000
Column name: XBridge C18 3.5um, 2.1x50mm, Waters
Retention time: 2.3 min
Base peak: 235.0838
Precursor m/z: 235.0837
Precursor type: [M-H]-
m/z	relative intensity	assigned
64.0067	5	C3N2-
65.0145	37	C3HN2-
65.9985	30	C3NO-
66.0098	7	C2N3-
71.0251	3	C2H3N2O-
79.0177	6	C3HN3-
80.0254	3	C3H2N3-
82.0411	6	C3H4N3-
92.0255	358	C4H2N3-
105.0333	5	C5H3N3-
105.0459	9	C6H5N2-
106.0286	23	C4H2N4-
107.0126	17	C4HN3O-
107.0362	1	C4H3N4-
108.0204	214	C4H2N3O-
118.0412	3	C6H4N3-
126.0309	253	C4H4N3O2-
131.049	13	C7H5N3-
132.0568	52	C7H6N3-
133.0156	4	C5HN4O-
133.0283	6	C6H3N3O-
134.0236	455	C5H2N4O-
135.0313	999	C5H3N4O-
145.0521	5	C7H5N4-
147.0311	3	C6H3N4O-
148.0517	5	C7H6N3O-
159.0314	3	C7H3N4O-
161.0471	2	C7H5N4O-
173.0467	5	C8H5N4O-
175.0626	8	C8H7N4O-
