Mass spectrum: Cocaine; LC-ESI-ITFT; MS2; CE: 75%; R=7500; [M+H]+
Name: Cocaine
Name: (1S,3S,4R,5R)-3-benzoyloxy-8-methyl-8-azabicyclo[3.2.1]octane-4-carboxylic acid methyl ester
Formula: C17H21NO4
Exact mass: 303.1471
SMILES: CN1C2CCC1C(C(C2)OC(=O)C3=CC=CC=C3)C(=O)OC
InChI: InChI=1S/C17H21NO4/c1-18-12-8-9-13(18)15(17(20)21-2)14(10-12)22-16(19)11-6-4-3-5-7-11/h3-7,12-15H,8-10H2,1-2H3/t12-,13+,14-,15+/m0/s1
Instrument: LTQ Orbitrap XL Thermo Scientific
Instrument type: LC-ESI-ITFT
Ms type: MS2
Ion mode: POSITIVE
Ionization: ESI
Fragmentation mode: HCD
Collision energy: 75 % (nominal)
Resolution: 7500
Column name: XBridge C18 3.5um, 2.1x50mm, Waters
Retention time: 5.0 min
Base peak: 304.1557
Precursor m/z: 304.1543
Precursor type: [M+H]+
m/z	relative intensity	assigned
65.0387	98	C5H5+
67.0545	14	C5H7+
68.0495	107	C4H6N+
70.0654	27	C4H8N+
77.0387	212	C6H5+
79.0543	82	C6H7+
81.07	44	C6H9+
82.0653	845	C5H8N+
83.073	142	C5H9N+
84.0441	11	C4H6NO+
91.0543	342	C7H7+
93.0336	135	C6H5O+
93.07	56	C7H9+
94.0652	103	C6H8N+
95.0492	27	C6H7O+
96.0808	69	C6H10N+
97.0648	69	C6H9O+
105.0336	999	C7H5O+
105.0449	63	C6H5N2+
107.0731	22	C7H9N+
108.0809	179	C7H10N+
114.0912	7	C6H12NO+
117.0571	10	C8H7N+
118.0414	30	C8H6O+
119.0492	238	C8H7O+
120.0806	9	C8H10N+
122.0599	10	C7H8NO+
122.0965	197	C8H12N+
125.06	26	C7H9O2+
132.0809	25	C9H10N+
135.068	39	C8H9NO+
150.0915	158	C9H12NO+
154.0864	68	C8H12NO2+
182.1177	344	C10H16NO2+
