Mass spectrum: Flumioxazin; LC-ESI-QFT; MS2; CE: 30; R=35000; [M+H]+
Name: Flumioxazin
Name: 2-(7-fluoranyl-3-oxidanylidene-4-prop-2-ynyl-1,4-benzoxazin-6-yl)-4,5,6,7-tetrahydroisoindole-1,3-dione
Formula: C19H15FN2O4
Exact mass: 354.10159
SMILES: O=C3\C4=C(/C(=O)N3c2c(F)cc1OCC(=O)N(c1c2)CC#C)CCCC4
InChI: InChI=1S/C19H15FN2O4/c1-2-7-21-15-9-14(13(20)8-16(15)26-10-17(21)23)22-18(24)11-5-3-4-6-12(11)19(22)25/h1,8-9H,3-7,10H2
Instrument: Q Exactive Orbitrap Thermo Scientific
Instrument type: LC-ESI-QFT
Ms type: MS2
Ion mode: POSITIVE
Ionization: ESI
Fragmentation mode: HCD
Collision energy: 30 (nominal)
Resolution: 35000
Column name: XBridge C18 3.5um, 2.1x50mm, Waters
Retention time: 9.7 min
Base peak: 355.1088
Precursor m/z: 355.1089
Precursor type: [M+H]+
m/z	relative intensity	assigned
79.0542	7	C6H7+
81.0699	5	C6H9+
107.0491	27	C7H7O+
109.0648	2	C7H9O+
121.0447	2	C8H6F+
134.06	2	C8H8NO+
135.0439	7	C8H7O2+
148.0556	17	C9H7FN+
149.0398	9	C9H6FO+
152.0706	1	C8H10NO2+
164.0706	5	C9H10NO2+
173.071	1	C10H9N2O+
176.0506	83	C10H7FNO+
177.0584	7	C10H8FNO+
189.0456	1	C10H6FN2O+
190.0536	25	C10H7FN2O+
191.0618	4	C10H8FN2O+
193.077	3	C10H10FN2O+
203.0616	2	C11H8FN2O+
204.0456	102	C11H7FNO2+
205.0531	2	C11H8FNO2+
219.0565	5	C11H8FN2O2+
232.0768	2	C16H10NO+
239.0616	1	C14H8FN2O+
241.0769	1	C14H10FN2O+
244.0765	2	C14H11FNO2+
251.0974	5	C16H12FN2+
251.1177	2	C16H15N2O+
253.0772	17	C15H10FN2O+
257.0717	3	C14H10FN2O2+
257.1084	2	C15H14FN2O+
258.0562	1	C14H9FNO3+
258.0925	9	C15H13FNO2+
259.0514	3	C13H8FN2O3+
260.0718	37	C14H11FNO3+
265.0976	1	C16H13N2O2+
267.0925	2	C16H12FN2O+
269.0727	3	C15H10FN2O2+
269.1081	2	C16H14FN2O+
270.0925	2	C16H13FNO2+
271.0875	9	C15H12FN2O2+
271.1244	2	C16H16FN2O+
272.0718	7	C15H11FNO3+
274.0874	2	C15H13FNO3+
279.0765	15	C16H11N2O3+
279.0928	2	C17H12FN2O+
279.1126	18	C17H15N2O2+
281.0724	5	C16H10FN2O2+
281.1084	26	C17H14FN2O+
283.0878	1	C16H12FN2O2+
283.1245	4	C17H16FN2O+
285.0676	4	C15H10FN2O3+
285.0806	4	C16H12FNO3+
285.1032	22	C16H14FN2O2+
286.0872	16	C16H13FNO3+
287.0825	35	C15H12FN2O3+
295.088	1	C17H12FN2O2+
297.1032	23	C17H14FN2O2+
298.0875	9	C17H13FNO3+
299.0825	115	C16H12FN2O3+
299.1185	17	C17H16FN2O2+
300.0667	2	C16H11FNO4+
300.1033	1	C17H15FNO3+
301.0981	22	C19H13N2O2+
307.1076	68	C18H15N2O3+
309.1033	6	C18H14FN2O2+
313.0982	85	C17H14FN2O3+
316.0857	8	C16H13FN2O4+
325.098	6	C18H14FN2O3+
327.1137	355	C18H16FN2O3+
328.0972	4	C18H15FNO4+
329.0928	2	C17H14FN2O4+
335.1023	5	C19H15N2O4+
355.1087	999	C19H16FN2O4+
