Mass spectrum: Fenpropimorph; LC-ESI-ITFT; MS2; CE: 35%; R=30000; [M+H]+
Name: Fenpropimorph
Name: (2S,6R)-4-[3-(4-tert-butylphenyl)-2-methyl-propyl]-2,6-dimethyl-morpholine
Formula: C20H33NO
Exact mass: 303.2557
SMILES: CC1CN(CC(O1)C)CC(C)CC2=CC=C(C=C2)C(C)(C)C
InChI: InChI=1S/C20H33NO/c1-15(12-21-13-16(2)22-17(3)14-21)11-18-7-9-19(10-8-18)20(4,5)6/h7-10,15-17H,11-14H2,1-6H3/t15?,16-,17+
Instrument: LTQ Orbitrap XL Thermo Scientific
Instrument type: LC-ESI-ITFT
Ms type: MS2
Ion mode: POSITIVE
Ionization: ESI
Fragmentation mode: CID
Collision energy: 35 % (nominal)
Resolution: 30000
Column name: XBridge C18 3.5um, 2.1x50mm, Waters
Retention time: 9.4 min
Base peak: 304.2639
Precursor m/z: 304.2635
Precursor type: [M+H]+
m/z	relative intensity	assigned
91.0542	11	C7H7+
98.0964	133	C6H12N+
100.1121	9	C6H14N+
102.0913	43	C5H12NO+
105.0698	48	C8H9+
107.0855	6	C8H11+
112.112	14	C7H14N+
114.0913	5	C6H12NO+
115.0544	3	C9H7+
116.107	372	C6H14NO+
117.0698	14	C9H9+
119.0855	78	C9H11+
130.1226	999	C7H16NO+
131.0854	11	C10H11+
132.0933	29	C10H12+
133.1011	13	C10H13+
145.1009	4	C11H13+
147.1168	981	C11H15+
159.1163	3	C12H15+
161.1325	38	C12H17+
189.1636	163	C14H21+
248.2006	184	C16H26NO+
262.2162	36	C17H28NO+
286.2525	37	C20H32N+
