Mass spectrum: Fenoxycarb; LC-ESI-ITFT; MS2; CE: 75%; R=7500; [M+H]+
Name: Fenoxycarb
Name: N-[2-(4-phenoxyphenoxy)ethyl]carbamic acid ethyl ester
Formula: C17H19NO4
Exact mass: 301.1314
SMILES: O=C(OCC)NCCOc2ccc(Oc1ccccc1)cc2
InChI: InChI=1S/C17H19NO4/c1-2-20-17(19)18-12-13-21-14-8-10-16(11-9-14)22-15-6-4-3-5-7-15/h3-11H,2,12-13H2,1H3,(H,18,19)
Instrument: LTQ Orbitrap XL Thermo Scientific
Instrument type: LC-ESI-ITFT
Ms type: MS2
Ion mode: POSITIVE
Ionization: ESI
Fragmentation mode: HCD
Collision energy: 75 % (nominal)
Resolution: 7500
Column name: XBridge C18 3.5um, 2.1x50mm, Waters
Retention time: 12.6 min
Base peak: 302.1394
Precursor m/z: 302.1387
Precursor type: [M+H]+
m/z	relative intensity	assigned
65.0385	3	C5H5+
66.0465	7	C5H6+
70.0288	28	C3H4NO+
72.0808	1	C4H10N+
77.0386	8	C6H5+
79.054	3	C6H7+
88.0394	999	C3H6NO2+
91.0543	10	C7H7+
92.062	2	C7H8+
94.0414	18	C6H6O+
105.0336	6	C7H5O+
105.0449	5	C6H5N2+
107.0492	12	C7H7O+
109.0285	3	C6H5O2+
115.0544	9	C9H7+
118.0414	9	C8H6O+
119.0491	3	C8H7O+
120.057	14	C8H8O+
128.0622	4	C10H8+
129.0699	22	C10H9+
133.0289	1	C8H5O2+
134.0363	3	C8H6O2+
141.07	25	C11H9+
152.0625	4	C12H8+
157.065	8	C11H9O+
158.0728	4	C11H10O+
165.0698	7	C13H9+
167.0857	2	C13H11+
169.065	5	C12H9O+
170.0727	2	C12H10O+
183.0805	2	C13H11O+
185.0599	8	C12H9O2+
186.0677	23	C12H10O2+
213.0544	11	C13H9O3+
