Mass spectrum: Orphenadrine; LC-ESI-QFT; MS2; CE: 45; R=35000; [M+H]+
Name: Orphenadrine
Name: N,N-dimethyl-2-[(2-methylphenyl)-phenylmethoxy]ethanamine
Formula: C18H23NO
Exact mass: 269.17796
SMILES: CC1=CC=CC=C1C(C2=CC=CC=C2)OCCN(C)C
InChI: InChI=1S/C18H23NO/c1-15-9-7-8-12-17(15)18(20-14-13-19(2)3)16-10-5-4-6-11-16/h4-12,18H,13-14H2,1-3H3
Instrument: Q Exactive Plus Orbitrap Thermo Scientific
Instrument type: LC-ESI-QFT
Ms type: MS2
Ion mode: POSITIVE
Ionization: ESI
Fragmentation mode: HCD
Collision energy: 45 (nominal)
Resolution: 35000
Column name: XBridge C18 3.5um, 2.1x50mm, Waters
Retention time: 7.4 min
Base peak: 270.1849
Precursor m/z: 270.1852
Precursor type: [M+H]+
m/z	relative intensity	assigned
88.0757	1	C4H10NO+
103.0541	2	C8H7+
115.054	2	C9H7+
141.0698	5	C11H9+
152.0619	1	C12H8+
153.0698	26	C12H9+
165.0698	35	C13H9+
166.0777	311	C13H10+
179.0856	35	C14H11+
180.0929	2	C14H12+
181.1011	999	C14H13+
183.0807	1	C13H11O+
193.0759	1	C13H9N2+
