Mass spectrum: Terbinafine; LC-ESI-QFT; MS2; CE: 45; R=35000; [M+H]+
Name: Terbinafine
Name: Terbinex
Name: N,6,6-trimethyl-N-(naphthalen-1-ylmethyl)hept-2-en-4-yn-1-amine
Formula: C21H25N
Exact mass: 291.19870
SMILES: CC(C)(C)C#CC=CCN(C)CC1=CC=CC2=CC=CC=C21
InChI: InChI=1S/C21H25N/c1-21(2,3)15-8-5-9-16-22(4)17-19-13-10-12-18-11-6-7-14-20(18)19/h5-7,9-14H,16-17H2,1-4H3
Instrument: Q Exactive Plus Orbitrap Thermo Scientific
Instrument type: LC-ESI-QFT
Ms type: MS2
Ion mode: POSITIVE
Ionization: ESI
Fragmentation mode: HCD
Collision energy: 45 (nominal)
Resolution: 35000
Column name: XBridge C18 3.5um, 2.1x50mm, Waters
Retention time: 8.8 min
Base peak: 292.2054
Precursor m/z: 292.206
Precursor type: [M+H]+
m/z	relative intensity	assigned
53.0386	2	C4H5+
55.0542	3	C4H7+
57.0699	2	C4H9+
67.0542	1	C5H7+
77.0385	5	C6H5+
79.0542	21	C6H7+
81.0699	1	C6H9+
91.0542	32	C7H7+
93.0699	96	C7H9+
95.0491	5	C6H7O+
103.0542	3	C8H7+
105.0447	4	C6H5N2+
105.0699	25	C8H9+
106.0778	2	C8H10+
115.0541	2	C9H7+
119.0856	6	C9H11+
121.1011	2	C9H13+
133.0761	1	C8H9N2+
141.0698	999	C11H9+
150.1276	3	C10H16N+
165.0698	1	C13H9+
170.0964	11	C12H12N+
179.0852	1	C14H11+
191.0855	1	C15H11+
193.1012	1	C15H13+
203.0857	1	C16H11+
205.1012	4	C16H13+
261.1638	1	C20H21+
