Mass spectrum: Praziquantel; LC-ESI-QFT; MS2; CE: 75; R=35000; [M+H]+
Name: Praziquantel
Name: 2-(cyclohexanecarbonyl)-3,6,7,11b-tetrahydro-1H-pyrazino[2,1-a]isoquinolin-4-one
Formula: C19H24N2O2
Exact mass: 312.18378
SMILES: C1CCC(CC1)C(=O)N2CC3C4=CC=CC=C4CCN3C(=O)C2
InChI: InChI=1S/C19H24N2O2/c22-18-13-20(19(23)15-7-2-1-3-8-15)12-17-16-9-5-4-6-14(16)10-11-21(17)18/h4-6,9,15,17H,1-3,7-8,10-13H2
Instrument: Q Exactive Orbitrap Thermo Scientific
Instrument type: LC-ESI-QFT
Ms type: MS2
Ion mode: POSITIVE
Ionization: ESI
Fragmentation mode: HCD
Collision energy: 75 (nominal)
Resolution: 35000
Column name: XBridge C18 3.5um, 2.1x50mm, Waters
Retention time: 10.1 min
Base peak: 313.191
Precursor m/z: 313.1911
Precursor type: [M+H]+
m/z	relative intensity	assigned
51.0231	1	C4H3+
53.0023	5	C3HO+
53.0387	19	C4H5+
55.0543	136	C4H7+
58.0288	2	C2H4NO+
67.0542	1	C5H7+
67.9892	2	C3O2+
72.0443	93	C3H6NO+
79.0542	1	C6H7+
83.0855	999	C6H11+
91.0542	12	C7H7+
103.0542	12	C8H7+
105.0699	40	C8H9+
115.0541	30	C9H7+
117.0572	22	C8H7N+
117.0698	106	C9H9+
118.0649	4	C8H8N+
119.0854	6	C9H11+
128.062	54	C10H8+
129.0698	291	C10H9+
130.0651	66	C9H8N+
131.0729	52	C9H9N+
131.0855	2	C10H11+
132.0808	812	C9H10N+
143.0729	2	C10H9N+
144.0808	64	C10H10N+
145.0648	6	C10H9O+
145.0887	62	C10H11N+
146.0964	289	C10H12N+
155.0604	8	C10H7N2+
156.0807	2	C11H10N+
158.0964	50	C11H12N+
171.0918	1	C11H11N2+
173.1077	2	C11H13N2+
174.0913	551	C11H12NO+
175.1231	7	C11H15N2+
185.1074	6	C12H13N2+
186.0921	2	C12H12NO+
203.1179	37	C12H15N2O+
256.1699	1	C17H22NO+
