Mass spectrum: CGA62826 (2-[2,6-dimethylphenyl)-methoxyacetylamino]propionic acid; LC-ESI-QFT; MS2; CE: 180; R=35000; [M+H]+
Name: CGA62826 (2-[2,6-dimethylphenyl)-methoxyacetylamino]propionic acid
Name: N-(2,6-Dimethylphenyl)-N-(methoxyacetyl)-L-alanine
Name: (2S)-2-(N-(2-methoxyacetyl)-2,6-dimethylanilino)propanoic acid
Formula: C14H19NO4
Exact mass: 265.13141
SMILES: Cc1cccc(c1N([C@@H](C)C(=O)O)C(=O)COC)C
InChI: InChI=1S/C14H19NO4/c1-9-6-5-7-10(2)13(9)15(11(3)14(17)18)12(16)8-19-4/h5-7,11H,8H2,1-4H3,(H,17,18)/t11-/m0/s1
Instrument: Q Exactive Plus Orbitrap Thermo Scientific
Instrument type: LC-ESI-QFT
Ms type: MS2
Ion mode: POSITIVE
Ionization: ESI
Fragmentation mode: HCD
Collision energy: 180 (nominal)
Resolution: 35000
Column name: XBridge C18 3.5um, 2.1x50mm, Waters
Retention time: 7.8 min
Base peak: 266.1385
Precursor m/z: 266.1387
Precursor type: [M+H]+
m/z	relative intensity	assigned
50.0151	171	C4H2+
51.023	528	C4H3+
53.0022	25	C3HO+
53.0386	298	C4H5+
54.0338	18	C3H4N+
55.0178	14	C3H3O+
62.0151	13	C5H2+
63.0229	120	C5H3+
64.0306	13	
65.0386	648	C5H5+
66.0464	77	C5H6+
67.0542	7	C5H7+
75.0228	27	C6H3+
76.0307	14	
77.0385	457	C6H5+
78.0464	160	C6H6+
79.0542	372	C6H7+
80.0494	60	C5H6N+
81.0335	34	C5H5O+
89.0386	423	C7H5+
90.0464	375	C7H6+
91.0542	999	C7H7+
92.0495	7	C6H6N+
92.0621	5	C7H8+
93.0574	40	C6H7N+
93.0699	19	C7H9+
94.0414	21	C6H6O+
94.0652	14	C6H8N+
95.0492	991	C6H7O+
96.0444	30	C5H6NO+
102.0464	94	C8H6+
103.0542	369	C8H7+
104.0495	91	C7H6N+
104.0621	14	C8H8+
105.0447	496	C6H5N2+
105.0699	121	C8H9+
106.0651	144	C7H8N+
107.073	7	C7H9N+
109.0647	3	C7H9O+
110.0599	4	C6H8NO+
115.0542	351	C9H7+
116.0495	39	C8H6N+
116.0621	19	C9H8+
117.0573	771	C8H7N+
117.0696	39	C9H9+
118.0651	123	C8H8N+
119.0729	14	C8H9N+
120.0808	44	C8H10N+
127.0545	4	C10H7+
128.0496	31	C9H6N+
128.0622	12	C10H8+
129.0448	15	C8H5N2+
129.0574	24	C9H7N+
130.0652	301	C9H8N+
131.0729	27	C9H9N+
132.0808	42	C9H10N+
134.0602	22	C8H8NO+
134.0962	5	C9H12N+
142.0651	68	C10H8N+
143.073	131	C10H9N+
144.0808	150	C10H10N+
145.0646	5	C10H9O+
146.0602	17	C9H8NO+
148.0757	7	C9H10NO+
155.0602	6	C10H7N2+
