Mass spectrum: Metalaxyl-M-TP CGA108906; LC-ESI-QFT; MS2; CE: 75%; R=17500; [M-H]-
Name: Metalaxyl-M-TP CGA108906
Name: 2-[1-carboxyethyl-(2-methoxyacetyl)amino]-3-methylbenzoic acid
Formula: C14H17NO6
Exact mass: 295.1056
SMILES: COCC(=O)N(C(C)C(O)=O)C1=C(C=CC=C1C)C(O)=O
InChI: InChI=1S/C14H17NO6/c1-8-5-4-6-10(14(19)20)12(8)15(9(2)13(17)18)11(16)7-21-3/h4-6,9H,7H2,1-3H3,(H,17,18)(H,19,20)
Instrument: Q Exactive Plus Orbitrap Thermo Scientific
Instrument type: LC-ESI-QFT
Ms type: MS2
Ion mode: NEGATIVE
Ionization: ESI
Fragmentation mode: HCD
Collision energy: 75 % (nominal)
Resolution: 17500
Column name: XBridge C18 3.5um, 2.1x50mm, Waters
Retention time: 5.743 min
Base peak: 294.0983
Precursor m/z: 294.0983
Precursor type: [M-H]-
m/z	relative intensity	assigned
57.0344	32	C3H5O-
72.993	34	C2HO3-
85.0296	116	C4H5O2-
88.0404	17	C3H6NO2-
89.0245	876	C3H5O3-
91.0553	11	C7H7-
106.0663	70	C7H8N-
107.0503	35	C7H7O-
116.0506	999	C8H6N-
130.0662	445	C9H8N-
132.0818	166	C9H10N-
145.0533	819	C9H7NO-
158.0614	30	C10H8NO-
160.0764	14	C10H10NO-
178.0882	8	C10H12NO2-
