Mass spectrum: Progesterone; LC-ESI-QFT; MS2; CE: 90; R=35000; [M+H]+
Name: Progesterone
Name: (8S,9S,10R,13S,14S,17S)-17-acetyl-10,13-dimethyl-1,2,6,7,8,9,11,12,14,15,16,17-dodecahydrocyclopenta[a]phenanthren-3-one
Formula: C21H30O2
Exact mass: 314.22458
SMILES: O=C4\C=C2/[C@]([C@H]1CC[C@@]3([C@@H](C(=O)C)CC[C@H]3[C@@H]1CC2)C)(C)CC4
InChI: InChI=1S/C21H30O2/c1-13(22)17-6-7-18-16-5-4-14-12-15(23)8-10-20(14,2)19(16)9-11-21(17,18)3/h12,16-19H,4-11H2,1-3H3/t16-,17+,18-,19-,20-,21+/m0/s1
Instrument: Q Exactive Orbitrap Thermo Scientific
Instrument type: LC-ESI-QFT
Ms type: MS2
Ion mode: POSITIVE
Ionization: ESI
Fragmentation mode: HCD
Collision energy: 90 (nominal)
Resolution: 35000
Column name: XBridge C18 3.5um, 2.1x50mm, Waters
Retention time: 13.1 min
Base peak: 315.232
Precursor m/z: 315.2319
Precursor type: [M+H]+
m/z	relative intensity	assigned
53.0023	8	C3HO+
53.0387	10	C4H5+
55.0179	20	C3H3O+
55.0543	4	C4H7+
57.0335	5	C3H5O+
65.0386	49	C5H5+
66.0465	10	C5H6+
67.0542	168	C5H7+
69.0335	19	C4H5O+
69.0699	94	C5H9+
71.0491	11	C4H7O+
77.0385	18	C6H5+
78.0465	2	C6H6+
79.0543	698	C6H7+
81.0699	485	C6H9+
82.0413	8	C5H6O+
83.0492	67	C5H7O+
91.0543	255	C7H7+
93.0699	96	C7H9+
94.0414	23	C6H6O+
95.0492	160	C6H7O+
95.0855	91	C7H11+
97.0648	999	C6H9O+
103.0544	17	C8H7+
105.0448	26	C6H5N2+
105.0699	154	C8H9+
107.0493	26	C7H7O+
107.0856	35	C8H11+
108.0572	11	C7H8O+
109.0648	896	C7H9O+
115.0542	19	C9H7+
116.062	3	C9H8+
117.07	34	C9H9+
119.0856	65	C9H11+
121.0648	21	C8H9O+
121.1012	8	C9H13+
123.0804	86	C8H11O+
128.0621	17	C10H8+
129.0698	36	C10H9+
130.0779	16	C10H10+
131.0857	47	C10H11+
133.1012	17	C10H13+
141.0699	16	C11H9+
142.0778	17	C11H10+
143.0856	31	C11H11+
144.0935	4	C11H12+
145.1011	27	C11H13+
147.1167	2	C11H15+
149.0962	3	C10H13O+
153.07	3	C12H9+
155.0856	13	C12H11+
156.0934	8	C12H12+
157.1012	9	C12H13+
159.117	8	C12H15+
165.07	2	C13H9+
167.0858	3	C13H11+
169.101	4	C13H13+
170.1086	2	C13H14+
171.1169	4	C13H15+
181.1011	3	C14H13+
