Mass spectrum: N-(2,4-dimethylphenyl)formamide; LC-ESI-QFT; MS2; CE: 120; R=35000; [M+H]+
Name: N-(2,4-dimethylphenyl)formamide
Formula: C9H11NO
Exact mass: 149.08406
SMILES: CC1=C(NC([H])=O)C=CC(C)=C1
InChI: InChI=1S/C9H11NO/c1-7-3-4-9(10-6-11)8(2)5-7/h3-6H,1-2H3,(H,10,11)
Instrument: Q Exactive Plus Orbitrap Thermo Scientific
Instrument type: LC-ESI-QFT
Ms type: MS2
Ion mode: POSITIVE
Ionization: ESI
Fragmentation mode: HCD
Collision energy: 120 (nominal)
Resolution: 35000
Column name: XBridge C18 3.5um, 2.1x50mm, Waters
Retention time: 6.6 min
Base peak: 150.0913
Precursor m/z: 150.0913
Precursor type: [M+H]+
m/z	relative intensity	assigned
50.0151	8	C4H2+
51.0229	6	C4H3+
53.0386	35	C4H5+
55.0178	2	C3H3O+
55.0543	4	C4H7+
63.0229	1	C5H3+
65.0386	14	C5H5+
66.0464	5	C5H6+
67.0416	1	C4H5N+
67.0542	10	C5H7+
77.0386	100	C6H5+
78.0337	1	C5H4N+
78.0465	2	C6H6+
79.0542	199	C6H7+
80.0494	9	C5H6N+
80.062	7	C6H8+
81.0335	4	C5H5O+
81.0573	1	C5H7N+
89.0386	19	C7H5+
90.0465	31	C7H6+
91.0543	17	C7H7+
92.0495	2	C6H6N+
93.07	2	C7H9+
94.0415	1	C6H6O+
94.0652	1	C6H8N+
95.0492	148	C6H7O+
96.0444	1	C5H6NO+
102.0466	2	C8H6+
103.0543	87	C8H7+
104.0621	3	C8H8+
105.0448	70	C6H5N2+
105.07	52	C8H9+
106.0652	999	C7H8N+
107.0729	373	C7H9N+
108.057	19	C7H8O+
117.0573	51	C8H7N+
120.0808	6	C8H10N+
121.0647	2	C8H9O+
123.0804	2	C8H11O+
130.0654	2	C9H8N+
