Mass spectrum: Pioglitazone; LC-ESI-QFT; MS2; CE: 90; R=35000; [M+H]+
Name: Pioglitazone
Name: 5-[[4-[2-(5-ethylpyridin-2-yl)ethoxy]phenyl]methyl]-1,3-thiazolidine-2,4-dione
Formula: C19H20N2O3S
Exact mass: 356.11946
SMILES: CCC1=CN=C(C=C1)CCOC2=CC=C(C=C2)CC3C(=O)NC(=O)S3
InChI: InChI=1S/C19H20N2O3S/c1-2-13-3-6-15(20-12-13)9-10-24-16-7-4-14(5-8-16)11-17-18(22)21-19(23)25-17/h3-8,12,17H,2,9-11H2,1H3,(H,21,22,23)
Instrument: Q Exactive Orbitrap Thermo Scientific
Instrument type: LC-ESI-QFT
Ms type: MS2
Ion mode: POSITIVE
Ionization: ESI
Fragmentation mode: HCD
Collision energy: 90 (nominal)
Resolution: 35000
Column name: XBridge C18 3.5um, 2.1x50mm, Waters
Retention time: 6.0 min
Base peak: 357.1277
Precursor m/z: 357.1267
Precursor type: [M+H]+
m/z	relative intensity	assigned
65.0387	6	C5H5+
66.0465	7	C5H6+
68.0496	2	C4H6N+
77.0386	5	C6H5+
78.034	4	C5H4N+
78.0464	1	C6H6+
79.0544	63	C6H7+
80.0496	7	C5H6N+
80.0622	1	C6H8+
81.0337	2	C5H5O+
91.0417	4	C6H5N+
91.0544	45	C7H7+
92.0496	17	C6H6N+
92.0622	2	C7H8+
93.0575	29	C6H7N+
93.07	2	C7H9+
95.0493	27	C6H7O+
96.0446	29	C5H6NO+
98.0603	1	C5H8NO+
103.0543	1	C8H7+
104.0496	16	C7H6N+
105.045	9	C6H5N2+
105.0575	3	C7H7N+
105.0701	1	C8H9+
106.0653	76	C7H8N+
107.0731	14	C7H9N+
108.0445	3	C6H6NO+
108.081	3	C7H10N+
109.0524	11	C6H7NO+
110.0603	3	C6H8NO+
117.0574	6	C8H7N+
118.0654	141	C8H8N+
119.0731	999	C8H9N+
120.0809	72	C8H10N+
121.0888	7	C8H11N+
122.0602	5	C7H8NO+
123.068	4	C7H9NO+
124.0759	16	C7H10NO+
125.0474	1	C6H7NO2+
126.055	1	C6H8NO2+
132.081	2	C9H10N+
134.0967	662	C9H12N+
135.1044	8	C9H13N+
139.063	5	C7H9NO2+
