Mass spectrum: Ketamine; LC-ESI-ITFT; MS2; CE: 60%; R=15000; [M+H]+
Name: Ketamine
Name: 2-(2-chlorophenyl)-2-(methylamino)-1-cyclohexanone
Formula: C13H16ClNO
Exact mass: 237.0920
SMILES: CNC1(CCCCC1=O)C2=CC=CC=C2Cl
InChI: InChI=1S/C13H16ClNO/c1-15-13(9-5-4-8-12(13)16)10-6-2-3-7-11(10)14/h2-3,6-7,15H,4-5,8-9H2,1H3
Instrument: LTQ Orbitrap XL Thermo Scientific
Instrument type: LC-ESI-ITFT
Ms type: MS2
Ion mode: POSITIVE
Ionization: ESI
Fragmentation mode: HCD
Collision energy: 60 % (nominal)
Resolution: 15000
Column name: XBridge C18 3.5um, 2.1x50mm, Waters
Retention time: 4.6 min
Base peak: 238.0997
Precursor m/z: 238.0993
Precursor type: [M+H]+
m/z	relative intensity	assigned
67.0542	41	C5H7+
113.0152	3	C6H6Cl+
115.0544	6	C9H7+
116.0621	4	C9H8+
125.0153	999	C7H6Cl+
128.0621	18	C10H8+
129.0698	13	C10H9+
130.0777	9	C10H10+
138.9945	10	C7H4ClO+
139.0316	2	C8H8Cl+
141.0102	32	C7H6ClO+
142.0775	3	C11H10+
143.0855	15	C11H11+
144.0934	28	C11H12+
149.0153	15	C9H6Cl+
151.031	81	C9H8Cl+
152.0261	60	C8H7ClN+
153.0699	26	C12H9+
154.0419	4	C8H9ClN+
154.0777	42	C12H10+
155.0604	11	C10H7N2+
155.0853	3	C12H11+
156.0934	15	C12H12+
157.0887	7	C11H11N+
163.0309	158	C10H8Cl+
165.0102	43	C9H6ClO+
165.0466	31	C10H10Cl+
172.0885	5	C12H12O+
177.0469	4	C11H10Cl+
179.0622	170	C11H12Cl+
184.1119	2	C13H14N+
185.1199	3	C13H15N+
189.0466	45	C12H10Cl+
191.0622	7	C12H12Cl+
192.0572	5	C11H11ClN+
207.0573	38	C12H12ClO+
220.0887	90	C13H15ClN+
