Mass spectrum: Ciprofloxacin; LC-ESI-ITFT; MS2; CE: 90%; R=30000; [M+H]+
Name: Ciprofloxacin
Name: 1-cyclopropyl-6-fluoro-4-keto-7-piperazin-4-ium-1-yl-quinoline-3-carboxylate
Formula: C17H18FN3O3
Exact mass: 331.1332
SMILES: C(C1)C1N(C=C(C-2=O)C(=O)O)-c(cc(c3F)N(CCN4)CC4)c2c3
InChI: InChI=1S/C17H18FN3O3/c18-13-7-11-14(8-15(13)20-5-3-19-4-6-20)21(10-1-2-10)9-12(16(11)22)17(23)24/h7-10,19H,1-6H2,(H,23,24)
Instrument: LTQ Orbitrap XL Thermo Scientific
Instrument type: LC-ESI-ITFT
Ms type: MS2
Ion mode: POSITIVE
Ionization: ESI
Fragmentation mode: HCD
Collision energy: 90 % (nominal)
Resolution: 30000
Column name: XBridge C18 3.5um, 2.1x50mm, Waters
Retention time: 4.5 min
Base peak: 332.1415
Precursor m/z: 332.1405
Precursor type: [M+H]+
m/z	relative intensity	assigned
56.0495	1	C3H6N+
65.0387	1	C5H5+
70.0653	4	C4H8N+
89.0388	2	C7H5+
109.0449	13	C7H6F+
110.0403	1	C6H5FN+
115.0543	4	C9H7+
116.0495	20	C8H6N+
117.0574	3	C8H7N+
121.0448	1	C8H6F+
122.0401	4	C7H5FN+
124.0556	2	C7H7FN+
128.0496	10	C9H6N+
128.0622	5	C10H8+
129.0571	2	C9H7N+
129.07	2	C10H9+
130.0652	7	C9H8N+
131.0605	6	C8H7N2+
132.0244	2	C8H3FN+
133.0449	5	C9H6F+
134.0401	17	C8H5FN+
134.06	4	C8H8NO+
135.048	34	C8H6FN+
136.0558	31	C8H7FN+
137.0635	4	C8H8FN+
141.0574	3	C10H7N+
142.0652	5	C10H8N+
143.0604	5	C9H7N2+
144.0445	1	C9H6NO+
144.0559	3	C8H6N3+
146.0401	4	C9H5FN+
146.0527	3	C10H7F+
147.048	4	C9H6FN+
147.0607	2	C10H8F+
148.0558	109	C9H7FN+
149.0511	3	C8H6FN2+
149.0638	2	C9H8FN+
150.0351	2	C8H5FNO+
150.0587	3	C8H7FN2+
150.071	1	C9H9FN+
151.0431	2	C8H6FNO+
151.0667	5	C8H8FN2+
152.0505	6	C8H7FNO+
154.0653	13	C11H8N+
155.0605	35	C10H7N2+
155.0727	4	C11H9N+
156.0448	1	C10H6NO+
156.0683	17	C10H8N2+
156.081	4	C11H10N+
157.076	3	C10H9N2+
158.0597	1	C10H8NO+
159.048	2	C10H6FN+
160.0559	5	C10H7FN+
161.0271	11	C9H4FNO+
161.051	8	C9H6FN2+
161.0635	5	C10H8FN+
162.0351	33	C9H5FNO+
162.0589	5	C9H7FN2+
162.0716	4	C10H9FN+
163.0429	5	C9H6FNO+
163.0667	16	C9H8FN2+
164.0508	7	C9H7FNO+
167.0605	4	C11H7N2+
167.0727	1	C12H9N+
168.0684	5	C11H8N2+
168.0809	1	C12H10N+
169.0531	2	C8H8FNO2+
169.0761	14	C11H9N2+
170.0606	1	C11H8NO+
171.0557	1	C10H7N2O+
172.0558	13	C11H7FN+
173.051	6	C10H6FN2+
173.0637	9	C11H8FN+
174.0353	8	C10H5FNO+
174.0589	25	C10H7FN2+
174.0715	25	C11H9FN+
175.0302	6	C9H4FN2O+
175.043	2	C10H6FNO+
175.0667	47	C10H8FN2+
175.0792	3	C11H10FN+
176.0509	12	C10H7FNO+
176.0745	40	C10H9FN2+
177.0456	1	C9H6FN2O+
177.0588	3	C10H8FNO+
177.0824	1	C10H10FN2+
178.0539	8	C9H7FN2O+
178.066	2	C10H9FNO+
179.0615	7	C9H8FN2O+
180.0455	6	C9H7FNO2+
181.0762	5	C12H9N2+
182.0605	2	C9H9FNO2+
182.0838	6	C12H10N2+
183.0553	3	C11H7N2O+
183.0678	2	C12H9NO+
183.0919	1	C12H11N2+
184.0631	7	C11H8N2O+
184.0748	1	C12H10NO+
185.071	8	C11H9N2O+
186.0347	2	C11H5FNO+
186.0585	2	C11H7FN2+
186.0718	3	C12H9FN+
187.0302	7	C10H4FN2O+
187.0433	3	C11H6FNO+
187.0668	29	C11H8FN2+
188.0143	3	C10H3FNO2+
188.0382	58	C10H5FN2O+
188.0504	7	C11H7FNO+
188.075	3	C11H9FN2+
189.046	69	C10H6FN2O+
189.0825	12	C11H10FN2+
190.0536	6	C10H7FN2O+
191.0616	23	C10H8FN2O+
193.0756	2	C13H9N2+
195.0327	3	C9H6FNO3+
195.0915	2	C13H11N2+
196.1002	1	C13H12N2+
197.0707	2	C12H9N2O+
200.0509	3	C12H7FNO+
200.0744	4	C12H9FN2+
201.0586	7	C12H8FNO+
201.0824	17	C12H10FN2+
202.0301	4	C11H5FNO2+
202.0539	4	C11H7FN2O+
202.0664	11	C12H9FNO+
202.0898	4	C12H11FN2+
203.0617	205	C11H8FN2O+
204.0694	9	C11H9FN2O+
205.0773	36	C11H10FN2O+
209.0712	3	C13H9N2O+
209.094	1	C13H11N3+
215.0253	14	C11H4FN2O2+
215.0616	17	C12H8FN2O+
215.0982	10	C13H12FN2+
216.033	18	C11H5FN2O2+
216.0694	4	C12H9FN2O+
217.0409	9	C11H6FN2O2+
217.0771	6	C12H10FN2O+
218.0489	6	C11H7FN2O2+
220.0643	1	C11H9FN2O2+
223.0863	2	C14H11N2O+
224.0457	5	C12H6N3O2+
226.0979	1	C13H12N3O+
227.0972	1	C14H12FN2+
229.0396	1	C15H5N2O+
229.0772	17	C13H10FN2O+
231.0567	999	C12H8FN2O2+
235.0647	2	C12H10FNO3+
243.0563	1	C13H8FN2O2+
243.0932	4	C14H12FN2O+
245.1087	3	C14H14FN2O+
249.0672	11	C12H10FN2O3+
257.0716	2	C14H10FN2O2+
288.1628	1	C15H19FN5+
