Mass spectrum: N4-Acetylsulfadiazine; LC-ESI-ITFT; MS2; CE: 30%; R=7500; [M+H]+
Name: N4-Acetylsulfadiazine
Name: N-[4-(2-pyrimidinylsulfamoyl)phenyl]acetamide
Formula: C12H12N4O3S
Exact mass: 292.0630
SMILES: c1nc(NS(c2ccc(cc2)NC(C)=O)(=O)=O)ncc1
InChI: InChI=1S/C12H12N4O3S/c1-9(17)15-10-3-5-11(6-4-10)20(18,19)16-12-13-7-2-8-14-12/h2-8H,1H3,(H,15,17)(H,13,14,16)
Instrument: LTQ Orbitrap XL Thermo Scientific
Instrument type: LC-ESI-ITFT
Ms type: MS2
Ion mode: POSITIVE
Ionization: ESI
Fragmentation mode: HCD
Collision energy: 30 % (nominal)
Resolution: 7500
Column name: XBridge C18 3.5um, 2.1x50mm, Waters
Retention time: 3.6 min
Base peak: 293.0713
Precursor m/z: 293.0703
Precursor type: [M+H]+
m/z	relative intensity	assigned
93.0334	9	C6H5O+
96.0557	77	C4H6N3+
108.0444	87	C6H6NO+
118.0652	8	C8H8N+
134.06	163	C8H8NO+
136.0757	186	C8H10NO+
150.0551	27	C8H8NO2+
156.0119	13	C6H6NO2S+
158.002	54	C4H4N3O2S+
162.0662	51	C8H8N3O+
198.0219	333	C8H8NO3S+
227.0926	121	C12H11N4O+
293.0703	999	C12H13N4O3S+
