Mass spectrum: Mianserin-N-Oxide; LC-ESI-QFT; MS2; CE: 45; R=35000; [M+H]+
Name: Mianserin-N-Oxide
Name: 1,2,3,4,10,14b-Hexahydro-2-methyldibenzo(c,f)pyrazino(1,2-a)azepine 2-oxide
Formula: C18H20N2O
Exact mass: 280.15756
SMILES: C[N+]1(CCN2c3ccccc3Cc4ccccc4C2C1)[O-]
InChI: InChI=1S/C18H20N2O/c1-20(21)11-10-19-17-9-5-3-7-15(17)12-14-6-2-4-8-16(14)18(19)13-20/h2-9,18H,10-13H2,1H3
Instrument: Q Exactive Plus Orbitrap Thermo Scientific
Instrument type: LC-ESI-QFT
Ms type: MS2
Ion mode: POSITIVE
Ionization: ESI
Fragmentation mode: HCD
Collision energy: 45 (nominal)
Resolution: 35000
Column name: XBridge C18 3.5um, 2.1x50mm, Waters
Retention time: 7.0 min
Base peak: 281.1644
Precursor m/z: 281.1648
Precursor type: [M+H]+
m/z	relative intensity	assigned
56.0495	11	C3H6N+
57.0573	10	C3H7N+
58.0526	10	C2H6N2+
58.0651	34	C3H8N+
68.0494	1	C4H6N+
69.0573	5	C4H7N+
70.0651	387	C4H8N+
71.0603	66	C3H7N2+
71.0729	168	C4H9N+
72.0807	929	C4H10N+
73.0759	17	C3H9N2+
74.06	39	C3H8NO+
85.076	64	C4H9N2+
86.0838	61	C4H10N2+
88.0756	12	C4H10NO+
91.0542	3	C7H7+
106.0652	1	C7H8N+
115.0541	11	C9H7+
117.0697	9	C9H9+
118.065	10	C8H8N+
120.0806	1	C8H10N+
129.0698	3	C10H9+
130.065	3	C9H8N+
132.0807	6	C9H10N+
136.0758	1	C8H10NO+
144.0807	38	C10H10N+
145.0885	5	C10H11N+
146.0966	3	C10H12N+
158.0964	240	C11H12N+
159.0918	1	C10H11N2+
160.1119	1	C11H14N+
165.0692	3	C13H9+
167.0855	3	C13H11+
170.0964	7	C12H12N+
172.1119	3	C12H14N+
178.0775	28	C14H10+
179.0854	94	C14H11+
180.0933	9	C14H12+
186.1153	1	C12H14N2+
191.0855	447	C15H11+
192.0806	40	C14H10N+
192.0932	12	C15H12+
193.0886	405	C14H11N+
194.0964	18	C14H12N+
195.0803	4	C14H11O+
203.0854	4	C16H11+
204.0808	3	C15H10N+
205.0884	15	C15H11N+
206.0965	27	C15H12N+
207.1043	27	C15H13N+
208.1121	176	C15H14N+
217.0885	6	C16H11N+
218.0964	27	C16H12N+
219.1043	18	C16H13N+
220.1121	961	C16H14N+
221.1198	146	C16H15N+
222.1277	5	C16H16N+
224.1069	11	C15H14NO+
232.112	20	C17H14N+
233.1069	4	C16H13N2+
233.1197	5	C17H15N+
234.1278	14	C17H16N+
235.123	30	C16H15N2+
236.1307	5	C16H16N2+
238.1222	1	C16H16NO+
247.1227	9	C17H15N2+
248.1308	184	C17H16N2+
249.1385	94	C17H17N2+
261.1385	17	C18H17N2+
262.1463	12	C18H18N2+
263.1542	999	C18H19N2+
264.162	299	C18H20N2+
266.1407	3	C17H18N2O+
281.1647	25	C18H21N2O+
