Mass spectrum: Primaquine; LC-ESI-QFT; MS2; CE: 15; R=35000; [M+H]+
Name: Primaquine
Name: (4-amino-1-methyl-butyl)-(6-methoxy-8-quinolyl)amine
Formula: C15H21N3O
Exact mass: 259.16846
SMILES: O(c1cc(NC(C)CCCN)c2ncccc2c1)C
InChI: InChI=1S/C15H21N3O/c1-11(5-3-7-16)18-14-10-13(19-2)9-12-6-4-8-17-15(12)14/h4,6,8-11,18H,3,5,7,16H2,1-2H3
Instrument: Q Exactive Orbitrap Thermo Scientific
Instrument type: LC-ESI-QFT
Ms type: MS2
Ion mode: POSITIVE
Ionization: ESI
Fragmentation mode: HCD
Collision energy: 15 (nominal)
Resolution: 35000
Column name: XBridge C18 3.5um, 2.1x50mm, Waters
Retention time: 6.4 min
Base peak: 260.1758
Precursor m/z: 260.1757
Precursor type: [M+H]+
m/z	relative intensity	assigned
69.0698	18	C5H9+
86.0964	857	C5H12N+
175.0865	471	C10H11N2O+
187.0862	4	C11H11N2O+
241.1328	14	C15H17N2O+
243.1491	999	C15H19N2O+
260.1755	685	C15H22N3O+
