Mass spectrum: Acifluorfen; LC-ESI-QFT; MS2; CE: 30; R=35000; [M+H]+
Name: Acifluorfen
Name: 5-[2-chloranyl-4-(trifluoromethyl)phenoxy]-2-nitro-benzoic acid
Formula: C14H7ClF3NO5
Exact mass: 360.99648
SMILES: Clc2cc(ccc2Oc1cc(C(=O)O)c([N+]([O-])=O)cc1)C(F)(F)F
InChI: InChI=1S/C14H7ClF3NO5/c15-10-5-7(14(16,17)18)1-4-12(10)24-8-2-3-11(19(22)23)9(6-8)13(20)21/h1-6H,(H,20,21)
Instrument: Q Exactive Orbitrap Thermo Scientific
Instrument type: LC-ESI-QFT
Ms type: MS2
Ion mode: POSITIVE
Ionization: ESI
Fragmentation mode: HCD
Collision energy: 30 (nominal)
Resolution: 35000
Column name: XBridge C18 3.5um, 2.1x50mm, Waters
Retention time: 12.3 min
Base peak: 379.0305
Precursor m/z: 362.0038
Precursor type: [M+H]+
m/z	relative intensity	assigned
67.0179	3	C4H3O+
68.9972	5	C3HO2+
76.0183	5	C5H2N+
78.034	22	C5H4N+
80.0133	3	C4H2NO+
104.0132	42	C6H2NO+
122.0236	4	C6H4NO2+
164.9909	3	C6H4ClF2O+
178.9871	75	C7H3ClF3+
203.0135	6	C11H6ClNO+
206.9933	54	C6H6ClNO5+
209.0447	6	C11H6F3N+
217.0026	18	C10H5ClF3+
220.9815	66	C8H4ClF2O3+
222.9769	999	C8H3ClF3O2+
224.0075	7	C11H5ClF2N+
229.9998	6	C12H5ClNO2+
237.0401	28	C12H6F3NO+
252.0027	25	C12H3F3O3+
264.0269	4	C13H5F3NO2+
272.0085	24	C12H6ClF3NO+
272.9926	6	C12H5ClF3O2+
279.9974	86	C13H5ClF2NO2+
300.0035	769	C13H6ClF3NO2+
343.9934	412	C14H6ClF3NO4+
