Mass spectrum: Clomipramine; LC-ESI-QFT; MS2; CE: 120; R=35000; [M+H]+
Name: Clomipramine
Name: 3-(2-chloro-5,6-dihydrobenzo[b][1]benzazepin-11-yl)-N,N-dimethylpropan-1-amine
Formula: C19H23ClN2
Exact mass: 314.15498
SMILES: CN(C)CCCN1C2=CC=CC=C2CCC3=C1C=C(C=C3)Cl
InChI: InChI=1S/C19H23ClN2/c1-21(2)12-5-13-22-18-7-4-3-6-15(18)8-9-16-10-11-17(20)14-19(16)22/h3-4,6-7,10-11,14H,5,8-9,12-13H2,1-2H3
Instrument: Q Exactive Plus Orbitrap Thermo Scientific
Instrument type: LC-ESI-QFT
Ms type: MS2
Ion mode: POSITIVE
Ionization: ESI
Fragmentation mode: HCD
Collision energy: 120 (nominal)
Resolution: 35000
Column name: XBridge C18 3.5um, 2.1x50mm, Waters
Retention time: 9.2 min
Base peak: 315.1618
Precursor m/z: 315.1623
Precursor type: [M+H]+
m/z	relative intensity	assigned
56.0495	32	C3H6N+
57.0573	2	C3H7N+
58.0652	999	C3H8N+
65.0386	2	C5H5+
70.0652	2	C4H8N+
71.073	18	C4H9N+
86.0965	39	C5H12N+
89.0386	12	C7H5+
90.0465	3	C7H6+
91.0543	6	C7H7+
103.0543	2	C8H7+
115.0544	2	C9H7+
117.0574	3	C8H7N+
125.0153	2	C7H6Cl+
128.0496	2	C9H6N+
130.0654	4	C9H8N+
139.0544	2	C11H7+
152.0623	3	C12H8+
163.0542	2	C13H7+
164.062	3	C13H8+
165.0701	72	C13H9+
166.0653	10	C12H8N+
167.0732	3	C12H9N+
168.0572	1	C9H11ClN+
176.0623	2	C14H8+
177.0576	3	C13H7N+
177.07	2	C14H9+
178.0779	14	C14H10+
179.0729	2	C13H9N+
179.0856	5	C14H11+
180.081	3	C13H10N+
181.0888	1	C13H11N+
190.0653	22	C14H8N+
191.0731	104	C14H9N+
192.0809	89	C14H10N+
193.0891	2	C14H11N+
199.0311	5	C13H8Cl+
201.0342	11	C12H8ClN+
204.0811	23	C15H10N+
205.0891	5	C15H11N+
206.0967	21	C15H12N+
207.1044	1	C15H13N+
212.0389	1	C14H9Cl+
217.0886	2	C16H11N+
218.0969	3	C16H12N+
219.1044	1	C16H13N+
225.0342	2	C14H8ClN+
226.0421	33	C14H9ClN+
227.0499	26	C14H10ClN+
238.0417	1	C15H9ClN+
240.0572	1	C15H11ClN+
