Mass spectrum: Chlorthiazide; LC-ESI-QFT; MS2; CE: 75; R=35000; [M+H]+
Name: Chlorthiazide
Name: 6-chloro-1,1-dioxo-4H-1$l^{6},2,4-benzothiadiazine-7-sulfonamide
Formula: C7H6ClN3O4S2
Exact mass: 294.94883
SMILES: C1=C2C(=CC(=C1Cl)S(=O)(=O)N)S(=O)(=O)NC=N2
InChI: InChI=1S/C7H6ClN3O4S2/c8-4-1-5-7(2-6(4)16(9,12)13)17(14,15)11-3-10-5/h1-3H,(H,10,11)(H2,9,12,13)
Instrument: Q Exactive Plus Orbitrap Thermo Scientific
Instrument type: LC-ESI-QFT
Ms type: MS2
Ion mode: POSITIVE
Ionization: ESI
Fragmentation mode: HCD
Collision energy: 75 (nominal)
Resolution: 35000
Column name: XBridge C18 3.5um, 2.1x50mm, Waters
Retention time: 1.9 min
Base peak: 295.956
Precursor m/z: 295.9561
Precursor type: [M+H]+
m/z	relative intensity	assigned
50.015	3	C4H2+
51.0102	1	C3HN+
51.0228	3	C4H3+
52.0181	23	C3H2N+
53.0022	7	C3HO+
54.0338	17	C3H4N+
55.0178	5	C3H3O+
56.0494	8	C3H6N+
58.9823	1	CHNS+
58.995	2	C2H3S+
59.9664	1	COS+
59.9902	2	CH2NS+
60.9839	2	C2H2Cl+
61.9791	15	CHClN+
62.0151	8	C5H2+
62.9632	11	CClO+
63.0229	7	C5H3+
63.9851	87	H2NOS+
64.0181	37	C4H2N+
65.0021	1	C4HO+
65.026	7	C4H3N+
66.0338	52	C4H4N+
67.0178	2	C4H3O+
67.0289	1	C3H3N2+
67.0416	24	C4H5N+
68.013	16	C3H2NO+
68.0494	1	C4H6N+
68.9793	41	C3HS+
69.0446	6	C3H5N2+
69.9745	6	C2NS+
69.987	3	C3H2S+
70.0525	6	C3H6N2+
70.9949	13	C3H3S+
71.9902	22	C2H2NS+
72.9839	112	C3H2Cl+
74.9995	8	C3H4Cl+
76.0181	52	C5H2N+
77.0021	7	C5HO+
78.0338	109	C5H4N+
78.9403	82	CClS+
79.0177	6	C5H3O+
79.029	6	C4H3N2+
79.0417	13	C5H5N+
79.98	13	H2NO2S+
80.013	54	C4H2NO+
80.0494	6	C5H6N+
80.9792	2	C4HS+
81.0336	2	C5H5O+
81.9871	2	C4H2S+
82.0288	12	C4H4NO+
82.0526	8	C4H6N2+
83.9902	3	C3H2NS+
84.9742	6	C3HOS+
84.9839	17	C4H2Cl+
85.9792	32	C3HClN+
86.0059	9	C3H4NS+
86.9632	24	C3ClO+
86.9996	93	C4H4Cl+
87.9948	47	C3H3ClN+
88.0182	11	C6H2N+
89.026	203	C6H3N+
90.0106	15	C3H5ClN+
90.0339	34	C6H4N+
91.0178	7	C6H3O+
91.0291	3	C5H3N2+
91.9483	2	C2HClS+
92.0131	23	C5H2NO+
92.0369	5	C5H4N2+
93.0447	173	C5H5N2+
94.0288	43	C5H4NO+
94.0525	52	C5H6N2+
94.9949	2	C5H3S+
95.0127	1	C5H3O2+
95.9902	147	C4H2NS+
96.0444	24	C5H6NO+
96.9744	13	C4HOS+
96.984	259	C5H2Cl+
96.9981	37	C4H3NS+
97.9792	714	C4HClN+
98.9996	12	C5H4Cl+
99.9948	83	C4H3ClN+
101.0027	94	C4H4ClN+
102.0105	117	C4H5ClN+
102.9403	91	C3ClS+
103.029	6	C6H3N2+
104.956	443	C3H2ClS+
105.0447	91	C6H5N2+
106.0288	43	C6H4NO+
106.0525	81	C6H6N2+
106.9824	281	C5HNS+
107.9902	53	C5H2NS+
108.0444	3	C6H6NO+
108.998	22	C5H3NS+
109.0157	2	C5H3NO2+
109.0396	18	C5H5N2O+
110.0475	12	C5H6N2O+
110.9631	1	C5ClO+
111.0553	16	C5H7N2O+
111.9948	264	C5H3ClN+
112.9789	20	C5H2ClO+
112.99	17	C4H2ClN2+
113.0028	16	C5H4ClN+
113.9741	136	C4HClNO+
114.0105	313	C5H5ClN+
114.9945	43	C5H4ClO+
115.0055	3	C4H4ClN2+
115.0289	6	C7H3N2+
115.9898	58	C4H3ClNO+
116.0369	21	C7H4N2+
117.0447	395	C7H5N2+
118.0055	2	C4H5ClNO+
118.0284	5	C7H4NO+
118.0397	1	C6H4N3+
118.0526	11	C7H6N2+
119.0241	1	C6H3N2O+
119.9669	6	C3H3ClNS+
120.0081	2	C6H2NO2+
121.0396	76	C6H5N2O+
122.0475	52	C6H6N2O+
122.9665	11	C3H4ClOS+
123.0011	84	C5H3N2S+
123.9949	505	C6H3ClN+
124.009	113	C5H4N2S+
124.0393	109	C6H6NO2+
125.0027	346	C6H4ClN+
125.9979	6	C5H3ClN2+
126.0105	23	C6H5ClN+
126.9819	23	C5H2ClNO+
127.0057	27	C5H4ClN2+
127.9897	54	C5H3ClNO+
128.0133	3	C5H5ClN2+
128.9976	42	C5H4ClNO+
129.0214	495	C5H6ClN2+
130.0054	391	C5H5ClNO+
130.9589	3	C4H2ClNS+
130.9721	1	C5H4ClS+
131.9669	319	C4H3ClNS+
131.9846	94	C4H3ClNO2+
132.9509	54	C4H2ClOS+
133.0395	7	C7H5N2O+
133.0635	5	C7H7N3+
134.0477	11	C7H6N2O+
139.0057	69	C6H4ClN2+
139.9897	999	C6H3ClNO+
140.9736	3	C6H2ClO2+
140.9974	43	C6H4ClNO+
141.0117	9	C5H5N2OS+
141.0214	35	C6H6ClN2+
141.9513	845	C5HClNS+
142.0054	726	C6H5ClNO+
142.9589	11	C5H2ClNS+
143.9668	10	C5H3ClNS+
143.9846	8	C5H3ClNO2+
144.9511	2	C5H2ClOS+
144.9924	9	C5H4ClNO2+
145.0162	25	C5H6ClN2O+
145.0507	3	C7H5N4+
146	6	C5H5ClNO2+
150.996	5	C6H3N2OS+
151.0058	92	C7H4ClN2+
152.0007	59	C6H3ClN3+
152.0136	148	C7H5ClN2+
152.9974	10	C7H4ClNO+
153.0216	14	C7H6ClN2+
153.9688	1	C6HClNO2+
153.9928	2	C6H3ClN2O+
155.0006	163	C6H4ClN2O+
155.9846	935	C6H3ClNO2+
157.0163	379	C6H6ClN2O+
158.0003	181	C6H5ClNO2+
158.978	10	C2H7O4S2+
159.9618	49	C5H3ClNOS+
160.0159	51	C6H7ClNO2+
160.9454	2	C5H2ClO2S+
167.0006	3	C7H4ClN2O+
168.0084	2	C7H5ClN2O+
168.9924	7	C7H4ClNO2+
169.0169	2	C7H6ClN2O+
169.9462	188	C6HClNOS+
170.9774	2	C6H4ClN2S+
171.9621	2	C6H3ClNOS+
171.9796	3	C6H3ClNO3+
173.0112	564	C6H6ClN2O2+
173.9952	256	C6H5ClNO3+
177.9722	8	C5H5ClNO2S+
179.0113	10	C4H7N2O4S+
181.0069	2	C7H5N2O2S+
184.0033	41	C7H5ClN2O2+
184.9872	7	C7H4ClNO3+
185.0014	19	C6H5N2O3S+
186.9728	2	C6H4ClN2OS+
187.9567	116	C6H3ClNO2S+
188.9646	12	C6H4ClNO2S+
192.9831	3	C5H6ClN2O2S+
203.9517	106	C6H3ClNO3S+
204.9833	82	C6H6ClN2O2S+
206.9748	1	C6H6ClNO3S+
207.9831	1	C6H7ClNO3S+
214.9676	58	C7H4ClN2O2S+
215.9754	30	C7H5ClN2O2S+
220.9782	120	C6H6ClN2O3S+
230.9635	10	C7H4ClN2O3S+
232.9781	3	C7H6ClN2O3S+
247.9652	32	C7H5ClN2O4S+
