Mass spectrum: 2-Butyl-1-2-benzisothiazolin-3-one; LC-ESI-QFT; MS2; CE: 90%; R=17500; [M+H]+
Name: 2-Butyl-1-2-benzisothiazolin-3-one
Name: 1,2-Benzisothiazol-3(2H)-one, 2-butyl-
Name: 2-butyl-1,2-benzothiazol-3-one
Formula: C11H13NOS
Exact mass: 207.0718
SMILES: CCCCN1C(=O)C2=CC=CC=C2S1
InChI: InChI=1S/C11H13NOS/c1-2-3-8-12-11(13)9-6-4-5-7-10(9)14-12/h4-7H,2-3,8H2,1H3
Instrument: Exploris 240 Orbitrap Thermo Scientific
Instrument type: LC-ESI-QFT
Ms type: MS2
Ion mode: POSITIVE
Ionization: ESI
Fragmentation mode: HCD
Collision energy: 90 % (nominal)
Resolution: 17500
Column name: XBridge C18 3.5um, 2.1x50mm, Waters
Retention time: 7.954 min
Base peak: 208.0789
Precursor m/z: 208.0791
Precursor type: [M+H]+
m/z	relative intensity	assigned
57.0699	160	C4H9+
80.0495	58	C5H6N+
90.0337	20	C6H4N+
105.0335	165	C7H5O+
109.0106	431	C6H5S+
124.0219	13	C6H6NS+
134.0059	227	C7H4NS+
152.0164	999	C7H6NOS+
