Mass spectrum: Cyanophos; LC-ESI-QFT; MS2; CE: 150%; R=17500; [M+H]+
Name: Cyanophos
Name: 4-dimethoxyphosphinothioyloxybenzonitrile
Formula: C9H10NO3PS
Exact mass: 243.0119
SMILES: COP(=S)(OC)OC1=CC=C(C=C1)C#N
InChI: InChI=1S/C9H10NO3PS/c1-11-14(15,12-2)13-9-5-3-8(7-10)4-6-9/h3-6H,1-2H3
Instrument: Exploris 240 Orbitrap Thermo Scientific
Instrument type: LC-ESI-QFT
Ms type: MS2
Ion mode: POSITIVE
Ionization: ESI
Fragmentation mode: HCD
Collision energy: 150 % (nominal)
Resolution: 17500
Column name: XBridge C18 3.5um, 2.1x50mm, Waters
Retention time: 6.931 min
Base peak: 244.0192
Precursor m/z: 244.0192
Precursor type: [M+H]+
m/z	relative intensity	assigned
50.0151	60	C4H2+
51.0229	594	C4H3+
52.0182	120	C3H2N+
62.9453	160	PS+
62.9995	171	CH4OP+
63.023	769	C5H3+
64.0182	195	C4H2N+
64.0307	91	C5H4+
68.9793	243	C3HS+
74.0151	174	C6H2+
75.023	999	C6H3+
76.0182	443	C5H2N+
78.9944	788	CH4O2P+
81.9872	173	C4H2S+
90.0338	711	C6H4N+
91.0417	521	C6H5N+
92.9794	78	CH4NPS+
102.0338	212	C7H4N+
106.9952	114	C2H6NPS+
108.003	145	C2H7NPS+
132.9981	117	C7H3NS+
