Mass spectrum: Cefadroxil; LC-ESI-QFT; MS2; CE: 90; R=35000; [M-H]-
Name: Cefadroxil
Name: 7-[[2-azaniumyl-2-(4-hydroxyphenyl)acetyl]amino]-3-methyl-8-oxo-5-thia-1-azabicyclo[4.2.0]oct-2-ene-2-carboxylate
Formula: C16H17N3O5S
Exact mass: 363.08889
SMILES: CC1=C(N2C(C(C2=O)NC(=O)C(C3=CC=C(C=C3)O)N)SC1)C(=O)O
InChI: InChI=1S/C16H17N3O5S/c1-7-6-25-15-11(14(22)19(15)12(7)16(23)24)18-13(21)10(17)8-2-4-9(20)5-3-8/h2-5,10-11,15,20H,6,17H2,1H3,(H,18,21)(H,23,24)
Instrument: Q Exactive Plus Orbitrap Thermo Scientific
Instrument type: LC-ESI-QFT
Ms type: MS2
Ion mode: NEGATIVE
Ionization: ESI
Fragmentation mode: HCD
Collision energy: 90 (nominal)
Resolution: 35000
Column name: XBridge C18 3.5um, 2.1x50mm, Waters
Retention time: 2.3 min
Base peak: 362.0818
Precursor m/z: 362.0816
Precursor type: [M-H]-
m/z	relative intensity	assigned
50.0036	44	C3N-
55.0189	23	C3H3O-
56.9805	124	C2HS-
57.9758	181	CNS-
58.9961	6	C2H3S-
59.9913	7	CH2NS-
60.9754	165	CHOS-
63.9625	3	O2S-
64.0195	4	C4H2N-
65.0146	38	C3HN2-
65.0397	21	C5H5-
65.9986	22	C3NO-
66.0351	3	C4H4N-
67.0303	31	C3H3N2-
70.9837	112	C2HNS-
71.9915	53	C2H2NS-
72.0092	18	C2H2NO2-
72.9755	12	C2HOS-
72.9994	74	C2H3NS-
73.012	13	C3H5S-
74.0072	66	C2H4NS-
74.9911	17	C2H3OS-
77.0397	15	C6H5-
78.035	3	C5H4N-
80.0507	13	C5H6N-
81.9758	13	C3NS-
82.0174	4	C3H2N2O-
83.0252	53	C3H3N2O-
83.9914	21	C3H2NS-
84.0092	27	C3H2NO2-
84.9994	4	C3H3NS-
86.0071	5	C3H4NS-
87.9864	6	C2H2NOS-
90.0349	26	C6H4N-
91.0303	5	C5H3N2-
92.0507	16	C6H6N-
93.0347	877	C6H5O-
95.0252	31	C4H3N2O-
95.0503	117	C6H7O-
96.9993	68	C4H3NS-
98.0071	5	C4H4NS-
99.9863	56	C3H2NOS-
102.0385	3	C4H8NS-
105.0348	6	C7H5O-
105.0459	17	C6H5N2-
107.0616	173	C6H7N2-
108.0457	6	C6H6NO-
109.0773	12	C6H9N2-
111.0022	4	C4H3N2S-
111.0201	21	C4H3N2O2-
111.9866	3	C4H2NOS-
116.0269	6	C8H4O-
116.0508	15	C8H6N-
117.0348	369	C8H5O-
118.0301	401	C7H4NO-
119.0504	263	C8H7O-
120.0457	999	C7H6NO-
121.0297	13	C7H5O2-
121.0409	6	C6H5N2O-
122.0489	6	C6H6N2O-
123.0454	218	C7H7O2-
123.0566	21	C6H7N2O-
124.0227	16	C6H6NS-
126.9971	5	C4H3N2OS-
129.0346	14	C9H5O-
131.0378	143	C8H5NO-
132.0219	28	C8H4O2-
132.0457	13	C8H6NO-
132.0569	6	C7H6N3-
133.0117	6	C8H5S-
133.0295	15	C8H5O2-
133.0408	6	C7H5N2O-
134.0612	53	C8H8NO-
135.0566	193	C7H7N2O-
137.0068	35	C7H5OS-
142.03	7	C9H4NO-
144.0457	131	C9H6NO-
147.0451	5	C9H7O2-
147.9991	12	C8H4OS-
149.0067	4	C8H5OS-
155.0379	13	C4H11O4S-
158.0488	5	C9H6N2O-
161.0069	35	C9H5OS-
171.0567	24	C10H7N2O-
181.0534	4	C12H7NO-
188.0358	4	C10H6NO3-
194.0852	17	C13H10N2-
195.0567	8	C12H7N2O-
197.0722	3	C12H9N2O-
211.0881	13	C13H11N2O-
222.0802	21	C14H10N2O-
223.088	12	C14H11N2O-
