Mass spectrum: Diethyl-phthalate; LC-ESI-QFT; MS2; CE: 150; R=35000; [M+H]+
Name: Diethyl-phthalate
Name: Diethyl phthalate
Name: Diethyl benzene-1,2-dicarboxylate
Formula: C12H14O4
Exact mass: 222.08921
SMILES: CCOC(=O)C1=CC=CC=C1C(=O)OCC
InChI: InChI=1S/C12H14O4/c1-3-15-11(13)9-7-5-6-8-10(9)12(14)16-4-2/h5-8H,3-4H2,1-2H3
Instrument: Q Exactive Plus Orbitrap Thermo Scientific
Instrument type: LC-ESI-QFT
Ms type: MS2
Ion mode: POSITIVE
Ionization: ESI
Fragmentation mode: HCD
Collision energy: 150 (nominal)
Resolution: 35000
Column name: XBridge C18 3.5um, 2.1x50mm, Waters
Retention time: 8.7 min
Base peak: 223.0959
Precursor m/z: 223.0965
Precursor type: [M+H]+
m/z	relative intensity	assigned
51.0229	2	C4H3+
53.0022	54	C3HO+
53.9975	12	C2NO+
54.01	2	C3H2O+
63.0229	3	C5H3+
65.0386	999	C5H5+
67.9893	13	C3O2+
68.9971	1	C3HO2+
75.0229	3	C6H3+
92.0258	3	C6H4O+
93.0335	8	C6H5O+
111.044	12	C6H7O2+
121.0284	8	C7H5O2+
121.0396	23	C6H5N2O+
149.0235	1	C8H5O3+
