Mass spectrum: Pyraclostrobin; LC-ESI-ITFT; MS2; CE: 60%; R=7500; [M+H]+
Name: Pyraclostrobin
Name: methyl [2-({[1-(4-chlorophenyl)-1H-pyrazol-3-yl]oxy}methyl)phenyl]methoxycarbamate
Formula: C19H18ClN3O4
Exact mass: 387.0986
SMILES: c1(ccc(n2ccc(OCc3c(cccc3)N(OC)C(OC)=O)n2)cc1)Cl
InChI: InChI=1S/C19H18ClN3O4/c1-25-19(24)23(26-2)17-6-4-3-5-14(17)13-27-18-11-12-22(21-18)16-9-7-15(20)8-10-16/h3-12H,13H2,1-2H3
Instrument: LTQ Orbitrap XL Thermo Scientific
Instrument type: LC-ESI-ITFT
Ms type: MS2
Ion mode: POSITIVE
Ionization: ESI
Fragmentation mode: HCD
Collision energy: 60 % (nominal)
Resolution: 7500
Column name: XBridge C18 3.5um, 2.1x50mm, Waters
Retention time: 13.4 min
Base peak: 388.1064
Precursor m/z: 388.1059
Precursor type: [M+H]+
m/z	relative intensity	assigned
77.0387	15	C6H5+
91.0543	58	C7H7+
104.0495	151	C7H6N+
105.0573	319	C7H7N+
106.0651	57	C7H8N+
107.073	29	C7H9N+
108.0439	7	C6H6NO+
116.0495	18	C8H6N+
117.0574	23	C8H7N+
118.0652	56	C8H8N+
119.0366	166	C7H5NO+
120.0444	197	C7H6NO+
121.0521	7	C7H7NO+
121.0647	64	C8H9O+
123.0674	13	C7H9NO+
128.0493	23	C9H6N+
130.0286	34	C8H4NO+
132.0444	284	C8H6NO+
133.0522	837	C8H7NO+
134.06	98	C8H8NO+
139.0059	19	C6H4ClN2+
146.0604	25	C6H11ClN2+
148.0388	29	C8H6NO2+
149.0472	602	C8H7NO2+
151.0631	11	C8H9NO2+
156.0445	6	C10H6NO+
162.0549	211	C9H8NO2+
163.0628	999	C9H9NO2+
218.0842	20	C15H10N2+
243.0789	24	C12H16ClO3+
253.0524	33	C18H7NO+
261.0892	15	C12H18ClO4+
