Mass spectrum: Tenofovir; LC-ESI-QFT; MS2; CE: 60; R=35000; [M+H]+
Name: Tenofovir
Name: [(1R)-2-adenin-9-yl-1-methyl-ethoxy]methylphosphonic acid
Formula: C9H14N5O4P
Exact mass: 287.07834
SMILES: O=P(O)(O)CO[C@H](C)Cn1c2ncnc(c2nc1)N
InChI: InChI=1S/C9H14N5O4P/c1-6(18-5-19(15,16)17)2-14-4-13-7-8(10)11-3-12-9(7)14/h3-4,6H,2,5H2,1H3,(H2,10,11,12)(H2,15,16,17)/t6-/m1/s1
Instrument: Q Exactive Orbitrap Thermo Scientific
Instrument type: LC-ESI-QFT
Ms type: MS2
Ion mode: POSITIVE
Ionization: ESI
Fragmentation mode: HCD
Collision energy: 60 (nominal)
Resolution: 35000
Column name: XBridge C18 3.5um, 2.1x50mm, Waters
Retention time: 1.0 min
Base peak: 157.0352
Precursor m/z: 288.0856
Precursor type: [M+H]+
m/z	relative intensity	assigned
59.0492	67	C3H7O+
64.9787	30	H2O2P+
71.0491	4	C4H7O+
82.0399	4	C3H4N3+
82.9893	9	H4O3P+
94.04	2	C4H4N3+
94.9892	2	CH4O3P+
105.01	4	C3H6O2P+
105.0448	2	C6H5N2+
109.0508	2	C4H5N4+
112.9998	73	CH6O4P+
119.0352	6	C5H3N4+
122.0712	4	C6H8N3+
131.0353	1	C6H3N4+
132.0556	11	C7H6N3+
134.0713	6	C7H8N3+
135.0538	10	C5H5N5+
136.0618	290	C5H6N5+
137.0459	5	C5H5N4O+
148.0618	32	C6H6N5+
149.0457	6	C6H5N4O+
149.0696	1	C6H7N5+
149.0822	23	C7H9N4+
150.0662	2	C7H8N3O+
152.0819	7	C7H10N3O+
153.0312	10	C4H10O4P+
159.0665	214	C8H7N4+
161.0696	3	C7H7N5+
176.0931	999	C8H10N5+
177.077	77	C8H9N4O+
190.1089	1	C9H12N5+
192.0882	5	C8H10N5O+
194.1036	6	C8H12N5O+
206.1037	137	C9H12N5O+
212.0333	4	C6H7N5O2P+
222.0986	4	C9H12N5O2+
230.0439	1	C6H9N5O3P+
240.0644	95	C8H11N5O2P+
252.0645	17	C9H11N5O2P+
270.075	65	C9H13N5O3P+
288.0856	51	C9H15N5O4P+
