Mass spectrum: Iminostilbene; LC-ESI-ITFT; MS2; CE: 35%; R=7500; [M+H]+
Name: Iminostilbene
Name: 11H-benzo[b][1]benzazepine
Formula: C14H11N
Exact mass: 193.0891
SMILES: c1cc2Nc3ccccc3\C=C/c2cc1
InChI: InChI=1S/C14H11N/c1-3-7-13-11(5-1)9-10-12-6-2-4-8-14(12)15-13/h1-10,15H
Instrument: LTQ Orbitrap XL Thermo Scientific
Instrument type: LC-ESI-ITFT
Ms type: MS2
Ion mode: POSITIVE
Ionization: ESI
Fragmentation mode: CID
Collision energy: 35 % (nominal)
Resolution: 7500
Column name: XBridge C18 3.5um, 2.1x50mm, Waters
Retention time: 11.0 min
Base peak: 194.0971
Precursor m/z: 194.0964
Precursor type: [M+H]+
m/z	relative intensity	assigned
165.0696	3	C13H9+
168.0801	3	C12H10N+
193.0886	25	C14H11N+
194.0969	999	C14H12N+
