Mass spectrum: 3-Hydroxycarbofuran; LC-ESI-QFT; MS2; CE: 75%; R=17500; [M+H]+
Name: 3-Hydroxycarbofuran
Name: (3-hydroxy-2,2-dimethyl-3H-1-benzofuran-7-yl) N-methylcarbamate
Formula: C12H15NO4
Exact mass: 237.1001
SMILES: CC1(C(C2=C(O1)C(=CC=C2)OC(=O)NC)O)C
InChI: InChI=1S/C12H15NO4/c1-12(2)10(14)7-5-4-6-8(9(7)17-12)16-11(15)13-3/h4-6,10,14H,1-3H3,(H,13,15)
Instrument: Exploris 240 Orbitrap Thermo Scientific
Instrument type: LC-ESI-QFT
Ms type: MS2
Ion mode: POSITIVE
Ionization: ESI
Fragmentation mode: HCD
Collision energy: 75 % (nominal)
Resolution: 17500
Column name: XBridge C18 3.5um, 2.1x50mm, Waters
Retention time: 4.051 min
Base peak: 220.0968
Precursor m/z: 238.1074
Precursor type: [M+H]+
m/z	relative intensity	assigned
53.0387	38	C4H5+
55.0178	17	C3H3O+
58.0288	427	C2H4NO+
71.0491	25	C4H7O+
77.0386	13	C6H5+
79.0542	27	C6H7+
91.0542	84	C7H7+
93.0332	8	C6H5O+
93.0696	14	C7H9+
95.0491	170	C6H7O+
107.0491	999	C7H7O+
109.0288	9	C6H5O2+
115.0543	197	C9H7+
117.0699	564	C9H9+
121.0649	25	C8H9O+
123.0439	29	C7H7O2+
127.0541	22	C10H7+
135.0804	559	C9H11O+
145.0648	312	C10H9O+
163.0753	165	C10H11O2+
