Mass spectrum: Lincomycin; LC-ESI-QFT; MS2; CE: 180; R=35000; [M-H]-
Name: Lincomycin
Name: N-[2-hydroxy-1-(3,4,5-trihydroxy-6-methylsulfanyloxan-2-yl)propyl]-1-methyl-4-propylpyrrolidine-2-carboxamide
Formula: C18H34N2O6S
Exact mass: 406.21376
SMILES: CCCC1CC(N(C1)C)C(=O)NC(C2C(C(C(C(O2)SC)O)O)O)C(C)O
InChI: InChI=1S/C18H34N2O6S/c1-5-6-10-7-11(20(3)8-10)17(25)19-12(9(2)21)16-14(23)13(22)15(24)18(26-16)27-4/h9-16,18,21-24H,5-8H2,1-4H3,(H,19,25)
Instrument: Q Exactive Plus Orbitrap Thermo Scientific
Instrument type: LC-ESI-QFT
Ms type: MS2
Ion mode: NEGATIVE
Ionization: ESI
Fragmentation mode: HCD
Collision energy: 180 (nominal)
Resolution: 35000
Column name: XBridge C18 3.5um, 2.1x50mm, Waters
Retention time: 3.7 min
Base peak: 451.2115
Precursor m/z: 405.2065
Precursor type: [M-H]-
m/z	relative intensity	assigned
50.0036	999	C3N-
51.0239	168	C4H3-
52.0192	197	C3H2N-
53.0032	518	C3HO-
55.0189	884	C3H3O-
56.9804	424	C2HS-
57.0345	44	C3H5O-
59.0138	156	C2H3O2-
60.9754	548	CHOS-
63.9624	152	O2S-
64.0193	161	C4H2N-
65.0033	87	C4HO-
65.0397	85	C5H5-
65.9986	288	C3NO-
66.0349	396	C4H4N-
67.0189	733	C4H3O-
68.0142	781	C3H2NO-
68.9982	952	C3HO2-
69.0347	96	C4H5O-
71.0138	290	C3H3O2-
72.9754	172	C2HOS-
72.993	42	C2HO3-
73.9833	248	C2H2OS-
76.0194	181	C5H2N-
80.9803	192	C4HS-
84.9754	52	C3HOS-
90.035	40	C6H4N-
94.0298	505	C5H4NO-
