Mass spectrum: Propachlor; LC-ESI-ITFT; MS2; CE: 35%; R=30000; [M+H]+
Name: Propachlor
Name: 2-chloranyl-N-phenyl-N-propan-2-yl-ethanamide
Formula: C11H14ClNO
Exact mass: 211.0758
SMILES: CC(C)N(C(=O)CCl)c1ccccc1
InChI: InChI=1S/C11H14ClNO/c1-9(2)13(11(14)8-12)10-6-4-3-5-7-10/h3-7,9H,8H2,1-2H3
Instrument: LTQ Orbitrap XL Thermo Scientific
Instrument type: LC-ESI-ITFT
Ms type: MS2
Ion mode: POSITIVE
Ionization: ESI
Fragmentation mode: CID
Collision energy: 35 % (nominal)
Resolution: 30000
Column name: XBridge C18 3.5um, 2.1x50mm, Waters
Retention time: 8.6 min
Base peak: 212.0841
Precursor m/z: 212.0837
Precursor type: [M+H]+
m/z	relative intensity	assigned
94.0648	1	C6H8N+
152.0262	16	C11H4O+
170.0369	999	C8H9ClNO+
194.0732	1	C11H13ClN+
212.0836	3	C11H15ClNO+
