Mass spectrum: Terbuthylazine-TP CSCD692760 (LM3); LC-ESI-QFT; MS2; CE: 15%; R=17500; [M+H]+
Name: Terbuthylazine-TP CSCD692760 (LM3)
Name: 6-Hydroxy-7,7-dimethyl-7,8-dihydroimidazo[1,2-a][1,3,5]triazine-2,4(3H,6H)-dione
Formula: C7H10N4O3
Exact mass: 198.0753
SMILES: CC1(C)NC2=NC(O)=NC(=O)N2C1O
InChI: InChI=1S/C7H10N4O3/c1-7(2)3(12)11-4(10-7)8-5(13)9-6(11)14/h3,12H,1-2H3,(H2,8,9,10,13,14)
Instrument: Q Exactive Plus Orbitrap Thermo Scientific
Instrument type: LC-ESI-QFT
Ms type: MS2
Ion mode: POSITIVE
Ionization: ESI
Fragmentation mode: HCD
Collision energy: 15 % (nominal)
Resolution: 17500
Column name: XBridge C18 3.5um, 2.1x50mm, Waters
Retention time: 1.307 min
Base peak: 199.0826
Precursor m/z: 199.0826
Precursor type: [M+H]+
m/z	relative intensity	assigned
68.524	3	
71.049	2	C4H7O+
110.0716	1	C5H8N3+
113.0709	2	C5H9N2O+
114.0661	3	C4H8N3O+
129.0406	20	C3H5N4O2+
129.05	1	
138.0662	21	C6H8N3O+
139.05	2	C6H7N2O2+
156.0767	17	C6H10N3O2+
157.0607	1	C6H9N2O3+
181.0719	64	C7H9N4O2+
199.0825	999	C7H11N4O3+
