Mass spectrum: Amidosulfuron; LC-ESI-QFT; MS2; CE: 45; R=35000; [M+H]+
Name: Amidosulfuron
Name: 1-(4,6-dimethoxy-2-pyrimidinyl)-3-[methyl(methylsulfonyl)sulfamoyl]urea
Formula: C9H15N5O7S2
Exact mass: 369.04129
SMILES: O=C(Nc1nc(OC)cc(OC)n1)NS(=O)(=O)N(C)S(=O)(=O)C
InChI: InChI=1S/C9H15N5O7S2/c1-14(22(4,16)17)23(18,19)13-9(15)12-8-10-6(20-2)5-7(11-8)21-3/h5H,1-4H3,(H2,10,11,12,13,15)
Instrument: Q Exactive Orbitrap Thermo Scientific
Instrument type: LC-ESI-QFT
Ms type: MS2
Ion mode: POSITIVE
Ionization: ESI
Fragmentation mode: HCD
Collision energy: 45 (nominal)
Resolution: 35000
Column name: XBridge C18 3.5um, 2.1x50mm, Waters
Retention time: 8.4 min
Base peak: 370.0493
Precursor m/z: 370.0486
Precursor type: [M+H]+
m/z	relative intensity	assigned
69.0084	37	C2HN2O+
69.0448	10	C3H5N2+
70.0288	6	C3H4NO+
71.0605	9	C3H7N2+
72.0445	1	C3H6NO+
82.0288	1	C4H4NO+
82.0401	1	C3H4N3+
83.0241	28	C3H3N2O+
84.0319	7	C3H4N2O+
84.0445	4	C4H6NO+
86.0238	2	C3H4NO2+
94.0401	3	C4H4N3+
97.0398	63	C4H5N2O+
99.0554	1	C4H7N2O+
100.0394	9	C4H6NO2+
109.0272	4	C4H3N3O+
111.0429	14	C4H5N3O+
112.0394	3	C5H6NO2+
118.9911	2	C2H3N2O2S+
124.0507	195	C5H6N3O+
125.0348	3	C5H5N2O2+
126.0663	33	C5H8N3O+
127.0378	11	C4H5N3O2+
127.0503	164	C5H7N2O2+
139.0378	429	C5H5N3O2+
142.0613	150	C5H8N3O2+
154.0613	385	C6H8N3O2+
155.0688	9	C6H9N3O2+
156.0769	11	C6H10N3O2+
157.061	31	C6H9N2O3+
161.9856	2	C4H4NO4S+
181.0722	49	C7H9N4O2+
182.0563	145	C7H8N3O3+
218.0233	444	C6H8N3O4S+
236.0339	999	C6H10N3O5S+
238.0383	2	C7H12NO6S+
250.0497	1	C7H12N3O5S+
261.0292	85	C7H9N4O5S+
279.0397	4	C7H11N4O6S+
