Mass spectrum: Dimethachlor ESA; LC-ESI-ITFT; MS2; CE: 75%; R=7500; [M+H]+
Name: Dimethachlor ESA
Name: 2-[(2,6-dimethylphenyl)(2-methoxyethyl)amino]-2-oxoethanesulfonic acid
Formula: C13H19NO5S
Exact mass: 301.0984
SMILES: CC1=C(N(C(CS(O)(=O)=O)=O)CCOC)C(C)=CC=C1
InChI: InChI=1S/C13H19NO5S/c1-10-5-4-6-11(2)13(10)14(7-8-19-3)12(15)9-20(16,17)18/h4-6H,7-9H2,1-3H3,(H,16,17,18)
Instrument: LTQ Orbitrap XL Thermo Scientific
Instrument type: LC-ESI-ITFT
Ms type: MS2
Ion mode: POSITIVE
Ionization: ESI
Fragmentation mode: HCD
Collision energy: 75 % (nominal)
Resolution: 7500
Column name: XBridge C18 3.5um, 2.1x50mm, Waters
Retention time: 5.9 min
Base peak: 302.1064
Precursor m/z: 302.1057
Precursor type: [M+H]+
m/z	relative intensity	assigned
59.0492	1	C3H7O+
68.0495	23	C4H6N+
79.0543	3	C6H7+
85.0524	1	C4H7NO+
91.0543	4	C7H7+
103.0541	4	C8H7+
105.0699	69	C8H9+
106.0775	3	C8H10+
107.0854	3	C8H11+
117.0573	13	C8H7N+
118.0652	9	C8H8N+
119.0855	7	C9H11+
120.0808	8	C8H10N+
121.0886	5	C8H11N+
122.0964	1	C8H12N+
129.0699	3	C10H9+
130.0649	4	C9H8N+
130.0782	4	C10H10+
131.073	64	C9H9N+
131.0854	5	C10H11+
132.0808	999	C9H10N+
133.0759	5	C8H9N2+
133.0885	12	C9H11N+
134.0962	7	C9H12N+
144.0807	25	C10H10N+
145.0886	17	C10H11N+
146.0966	446	C10H12N+
147.1042	77	C10H13N+
148.112	77	C10H14N+
156.0807	1	C11H10N+
158.0964	26	C11H12N+
159.1042	22	C11H13N+
160.0755	1	C10H10NO+
160.1116	2	C11H14N+
174.0915	611	C11H12NO+
176.107	2	C11H14NO+
188.1071	3	C12H14NO+
204.1017	6	C12H14NO2+
206.1181	3	C12H16NO2+
270.0967	4	C12H16NO6+
