Mass spectrum: Mecarbam; LC-ESI-QFT; MS2; CE: 30%; R=17500; [M+H]+
Name: Mecarbam
Name: ethyl N-(2-diethoxyphosphinothioylsulfanylacetyl)-N-methylcarbamate
Formula: C10H20NO5PS2
Exact mass: 329.0521
SMILES: CCOC(=O)N(C)C(=O)CSP(=S)(OCC)OCC
InChI: InChI=1S/C10H20NO5PS2/c1-5-14-10(13)11(4)9(12)8-19-17(18,15-6-2)16-7-3/h5-8H2,1-4H3
Instrument: Exploris 240 Orbitrap Thermo Scientific
Instrument type: LC-ESI-QFT
Ms type: MS2
Ion mode: POSITIVE
Ionization: ESI
Fragmentation mode: HCD
Collision energy: 30 % (nominal)
Resolution: 17500
Column name: XBridge C18 3.5um, 2.1x50mm, Waters
Retention time: 9.793 min
Base peak: 243.0634
Precursor m/z: 330.0593
Precursor type: [M+H]+
m/z	relative intensity	assigned
75.0264	26	C3H7S+
96.9507	168	H2O2PS+
114.9614	146	H4O3PS+
116.0341	837	C4H6NO3+
124.9821	260	C2H6O2PS+
128.9235	17	H2O2PS2+
128.9769	16	CH6O3PS+
132.0113	139	C4H6NO2S+
142.9384	527	CH4O2PS2+
144.0654	234	C6H10NO3+
153.0133	610	C4H10O2PS+
154.9749	47	C3H8OPS2+
156.954	72	C2H6O2PS2+
160.0426	59	C6H10NO2S+
170.9332	386	C2H4O3PS2+
170.9697	964	C3H8O2PS2+
184.9854	483	C4H10O2PS2+
198.9647	926	C10H2NPS+
199.0011	999	C5H12O2PS2+
226.9959	896	C6H12O3PS2+
