Mass spectrum: D617; LC-ESI-ITFT; MS2; CE: 30%; R=15000; [M+H]+
Name: D617
Name: Verapamil metabolite D617
Name: 2-(3,4-dimethoxyphenyl)-2-isopropyl-5-(methylamino)valeronitrile
Formula: C17H26N2O2
Exact mass: 290.1994
SMILES: CC(C)C(CCCNC)(C#N)C1=CC(=C(C=C1)OC)OC
InChI: InChI=1S/C17H26N2O2/c1-13(2)17(12-18,9-6-10-19-3)14-7-8-15(20-4)16(11-14)21-5/h7-8,11,13,19H,6,9-10H2,1-5H3
Instrument: LTQ Orbitrap XL Thermo Scientific
Instrument type: LC-ESI-ITFT
Ms type: MS2
Ion mode: POSITIVE
Ionization: ESI
Fragmentation mode: HCD
Collision energy: 30 % (nominal)
Resolution: 15000
Column name: XBridge C18 3.5um, 2.1x50mm, Waters
Retention time: 6.3 min
Base peak: 291.2077
Precursor m/z: 291.2067
Precursor type: [M+H]+
m/z	relative intensity	assigned
70.0651	6	C4H8N+
72.0809	1	C4H10N+
96.0809	2	C6H10N+
122.0965	7	C8H12N+
124.0523	1	C7H8O2+
136.052	3	C8H8O2+
138.0675	2	C8H10O2+
139.0753	2	C8H11O2+
151.0754	21	C9H11O2+
153.1388	4	C9H17N2+
165.0909	8	C10H13O2+
176.071	1	C10H10NO2+
177.091	16	C11H13O2+
203.1064	1	C13H15O2+
217.1095	2	C13H15NO2+
218.1179	7	C13H16NO2+
233.1536	9	C15H21O2+
243.138	7	C16H19O2+
245.1414	4	C15H19NO2+
248.1519	51	C14H20N2O2+
260.1646	174	C16H22NO2+
264.1955	7	C16H26NO2+
291.207	999	C17H27N2O2+
