Mass spectrum: Nafcillin; LC-ESI-QFT; MS2; CE: 150; R=35000; [M+H]+
Name: Nafcillin
Name: (2S,5R,6R)-6-[(2-ethoxynaphthalene-1-carbonyl)amino]-3,3-dimethyl-7-oxo-4-thia-1-azabicyclo[3.2.0]heptane-2-carboxylic acid
Formula: C21H22N2O5S
Exact mass: 414.12494
SMILES: CCOC1=C(C(=O)N[C@H]2[C@H]3SC(C)(C)[C@@H](N3C2=O)C(O)=O)C2=CC=CC=C2C=C1
InChI: InChI=1S/C21H22N2O5S/c1-4-28-13-10-9-11-7-5-6-8-12(11)14(13)17(24)22-15-18(25)23-16(20(26)27)21(2,3)29-19(15)23/h5-10,15-16,19H,4H2,1-3H3,(H,22,24)(H,26,27)/t15-,16+,19-/m1/s1
Instrument: Q Exactive Plus Orbitrap Thermo Scientific
Instrument type: LC-ESI-QFT
Ms type: MS2
Ion mode: POSITIVE
Ionization: ESI
Fragmentation mode: HCD
Collision energy: 150 (nominal)
Resolution: 35000
Column name: XBridge C18 3.5um, 2.1x50mm, Waters
Retention time: 9.4 min
Base peak: 415.1318
Precursor m/z: 415.1322
Precursor type: [M+H]+
m/z	relative intensity	assigned
50.015	5	C4H2+
51.0229	3	C4H3+
53.0022	5	C3HO+
53.0386	9	C4H5+
53.9974	1	C2NO+
54.0338	2	C3H4N+
57.9872	2	C2H2S+
58.995	6	C2H3S+
61.0072	3	C5H+
62.0151	18	C5H2+
63.0229	172	C5H3+
65.0386	264	C5H5+
74.015	7	C6H2+
75.0229	28	C6H3+
76.0306	1	C6H4+
77.0385	9	C6H5+
78.0463	3	C6H6+
79.0542	1	C6H7+
80.0494	2	C5H6N+
86.015	3	C7H2+
87.0229	17	C7H3+
88.0307	14	C7H4+
89.0385	592	C7H5+
90.0464	15	C7H6+
91.0543	4	C7H7+
95.0491	27	C6H7O+
99.0227	2	C8H3+
101.0385	2	C8H5+
102.0464	6	C8H6+
103.0541	5	C8H7+
105.0448	15	C6H5N2+
113.0385	21	C9H5+
114.0464	28	C9H6+
115.0542	999	C9H7+
118.0412	7	C8H6O+
119.0491	2	C8H7O+
120.0206	1	C7H4O2+
125.0386	3	C10H5+
126.0464	38	C2H10N2O2S+
127.0542	31	C10H7+
128.062	18	C10H8+
129.0446	5	C8H5N2+
132.0569	17	C9H8O+
139.0541	15	C11H7+
140.0494	18	C10H6N+
140.0619	1	C11H8+
141.0572	4	C10H7N+
141.0699	1	C11H9+
142.0412	2	C10H6O+
143.0492	9	C10H7O+
145.0648	24	C10H9O+
150.0465	3	C12H6+
151.0542	1	C12H7+
152.0494	2	C11H6N+
152.062	26	C12H8+
153.0572	3	C11H7N+
153.0698	2	C12H9+
154.065	11	C11H8N+
155.0603	44	C10H7N2+
164.0494	2	C12H6N+
165.0697	1	C13H9+
166.0651	3	C12H8N+
169.0648	5	C12H9O+
170.06	8	C11H8NO+
179.0605	2	C12H7N2+
181.0762	2	C12H9N2+
182.0602	3	C12H8NO+
193.0762	1	C13H9N2+
221.0711	1	C14H9N2O+
