Mass spectrum: Acetamiprid; LC-ESI-ITFT; MS2; CE: 35%; R=7500; [M+H]+
Name: Acetamiprid
Name: (1E)-N-[(6-Chloro-3-pyridinyl)methyl]-N'-cyano-N-methylethanimidamide
Formula: C10H11ClN4
Exact mass: 222.0672
SMILES: CN(CC1=CN=C(Cl)C=C1)C(\C)=N\C#N
InChI: InChI=1S/C10H11ClN4/c1-8(14-7-12)15(2)6-9-3-4-10(11)13-5-9/h3-5H,6H2,1-2H3/b14-8+
Instrument: LTQ Orbitrap XL Thermo Scientific
Instrument type: LC-ESI-ITFT
Ms type: MS2
Ion mode: POSITIVE
Ionization: ESI
Fragmentation mode: CID
Collision energy: 35 % (nominal)
Resolution: 7500
Column name: XBridge C18 3.5um, 2.1x50mm, Waters
Retention time: 5.3 min
Base peak: 223.0746
Precursor m/z: 223.0745
Precursor type: [M+H]+
m/z	relative intensity	assigned
73.076	2	C3H9N2+
126.0104	999	C6H5ClN+
139.0057	17	C6H4ClN2+
141.0213	5	C6H6ClN2+
146.0711	14	C8H8N3+
147.0787	12	C8H9N3+
151.006	5	C7H4ClN2+
153.0212	5	C7H6ClN2+
155.0369	37	C7H8ClN2+
160.0866	7	C9H10N3+
165.0212	9	C8H6ClN2+
167.0371	8	C8H8ClN2+
168.0322	23	C7H7ClN3+
179.037	7	C9H8ClN2+
180.0322	46	C8H7ClN3+
181.0526	373	C9H10ClN2+
182.0479	77	C8H9ClN3+
187.0976	501	C10H11N4+
188.1056	2	C10H12N4+
192.0323	52	C9H7ClN3+
196.0634	499	C9H11ClN3+
206.0478	262	C10H9ClN3+
208.0511	7	C9H9ClN4+
