Mass spectrum: Flufenamic acid; LC-ESI-QFT; MS2; CE: 75; R=35000; [M+H]+
Name: Flufenamic acid
Name: Arlef
Name: 2-[3-(trifluoromethyl)anilino]benzoic acid
Formula: C14H10F3NO2
Exact mass: 281.06636
SMILES: C1=CC=C(C(=C1)C(=O)O)NC2=CC=CC(=C2)C(F)(F)F
InChI: InChI=1S/C14H10F3NO2/c15-14(16,17)9-4-3-5-10(8-9)18-12-7-2-1-6-11(12)13(19)20/h1-8,18H,(H,19,20)
Instrument: Q Exactive Orbitrap Thermo Scientific
Instrument type: LC-ESI-QFT
Ms type: MS2
Ion mode: POSITIVE
Ionization: ESI
Fragmentation mode: HCD
Collision energy: 75 (nominal)
Resolution: 35000
Column name: XBridge C18 3.5um, 2.1x50mm, Waters
Retention time: 14.6 min
Base peak: 282.0736
Precursor m/z: 282.0736
Precursor type: [M+H]+
m/z	relative intensity	assigned
92.0257	1	C6H4O+
95.0491	3	C6H7O+
130.0288	1	C8H4NO+
139.0539	1	C11H7+
141.0142	1	C7H3F2O+
166.065	15	C12H8N+
167.0729	364	C12H9N+
169.0648	11	C12H9O+
177.0571	10	C13H7N+
178.0651	10	C13H8N+
179.0604	3	C12H7N2+
185.0636	1	C12H8FN+
187.0559	5	C12H8FO+
188.0431	3	C12H6F2+
194.0599	10	C13H8NO+
195.0678	281	C13H9NO+
196.0556	127	C13H7FN+
196.0753	39	C13H10NO+
197.0511	1	C12H6FN2+
197.0635	16	C13H8FN+
204.0556	3	C13H6N3+
214.0664	19	C13H9FNO+
215.0538	13	C13H7F2N+
216.0619	388	C13H8F2N+
224.0505	16	C14H7FNO+
224.0614	1	C13H7FN3+
226.0461	10	C14H6F2N+
227.0577	4	C13H9NO3+
229.0533	3	C13H8FNO2+
234.0522	2	C13H7F3N+
235.0603	46	C13H8F3N+
236.0692	4	C13H9F3N+
242.0612	11	C14H9FNO2+
243.0488	8	C14H7F2NO+
244.0568	647	C14H8F2NO+
246.0522	9	C14H7F3N+
247.0437	1	C13H7F2NO2+
262.0674	3	C14H10F2NO2+
263.0552	77	C14H8F3NO+
264.063	999	C14H9F3NO+
