Mass spectrum: Norfentanyl; LC-ESI-QFT; MS2; CE: 180; R=35000; [M+H]+
Name: Norfentanyl
Name: N-phenyl-N-piperidin-4-ylpropanamide
Formula: C14H20N2O
Exact mass: 232.15756
SMILES: CCC(=O)N(C1CCNCC1)C2=CC=CC=C2
InChI: InChI=1S/C14H20N2O/c1-2-14(17)16(12-6-4-3-5-7-12)13-8-10-15-11-9-13/h3-7,13,15H,2,8-11H2,1H3
Instrument: Q Exactive Plus Orbitrap Thermo Scientific
Instrument type: LC-ESI-QFT
Ms type: MS2
Ion mode: POSITIVE
Ionization: ESI
Fragmentation mode: HCD
Collision energy: 180 (nominal)
Resolution: 35000
Column name: XBridge C18 3.5um, 2.1x50mm, Waters
Retention time: 4.7 min
Base peak: 233.1641
Precursor m/z: 233.1648
Precursor type: [M+H]+
m/z	relative intensity	assigned
50.0151	52	C4H2+
51.0229	209	C4H3+
53.0022	64	C3HO+
53.0386	272	C4H5+
53.9974	21	C2NO+
54.0338	45	C3H4N+
55.0542	999	C4H7+
56.0494	383	C3H6N+
57.0334	12	C3H5O+
65.0385	38	C5H5+
66.0464	11	
67.0416	56	C4H5N+
67.0541	45	C5H7+
67.9892	9	C3O2+
68.0494	122	C4H6N+
69.0572	26	C4H7N+
77.0385	127	C6H5+
80.0493	12	C5H6N+
82.0651	25	C5H8N+
84.081	6	C5H10N+
93.0573	35	C6H7N+
94.0651	39	C6H8N+
95.0491	182	C6H7O+
105.0447	118	C6H5N2+
