Mass spectrum: Imicyafos; LC-ESI-QFT; MS2; CE: 90%; R=17500; [M+H]+
Name: Imicyafos
Name: [1-[ethoxy(propylsulfanyl)phosphoryl]-3-ethylimidazolidin-2-ylidene]cyanamide
Formula: C11H21N4O2PS
Exact mass: 304.1123
SMILES: CCCSP(=O)(N1CCN(C1=NC#N)CC)OCC
InChI: InChI=1S/C11H21N4O2PS/c1-4-9-19-18(16,17-6-3)15-8-7-14(5-2)11(15)13-10-12/h4-9H2,1-3H3
Instrument: Exploris 240 Orbitrap Thermo Scientific
Instrument type: LC-ESI-QFT
Ms type: MS2
Ion mode: POSITIVE
Ionization: ESI
Fragmentation mode: HCD
Collision energy: 90 % (nominal)
Resolution: 17500
Column name: XBridge C18 3.5um, 2.1x50mm, Waters
Retention time: 5.301 min
Base peak: 305.1193
Precursor m/z: 305.1196
Precursor type: [M+H]+
m/z	relative intensity	assigned
68.0243	297	C2H2N3+
69.0447	999	C3H5N2+
70.0652	544	C4H8N+
71.0603	234	C3H7N2+
72.081	120	C4H10N+
78.9947	37	CH4O2P+
79.9898	38	H3NO2P+
84.0556	79	C3H6N3+
86.0713	71	C3H8N3+
87.9948	71	C2H3NOP+
88.9901	38	CH2N2OP+
96.0554	50	C4H6N3+
96.9508	279	H2O2PS+
97.076	73	C5H9N2+
106.0053	144	C2H5NO2P+
109.0509	54	C4H5N4+
110.0588	51	C4H6N4+
111.0666	273	C4H7N4+
112.0869	307	C5H10N3+
123.0666	74	C5H7N4+
130.0167	128	C3H5N3OP+
131.0009	109	C3H4N2O2P+
137.0823	112	C6H9N4+
139.0977	728	C6H11N4+
148.0272	92	C3H7N3O2P+
155.0118	108	C4H4N4OP+
156.0322	655	C5H7N3OP+
158.0478	89	C5H9N3OP+
173.0221	476	C4H6N4O2P+
176.0585	61	C5H11N3O2P+
185.0592	146	C10H7N3O+
201.0537	266	C6H10N4O2P+
217.0311	60	C6H10N4OPS+
