Mass spectrum: Mesosulfuron-methyl; LC-ESI-QFT; MS2; CE: 45; R=35000; [M+H]+
Name: Mesosulfuron-methyl
Name: 2-[(4,6-dimethoxypyrimidin-2-yl)carbamoylsulfamoyl]-4-(methanesulfonamidomethyl)benzoic acid methyl ester
Formula: C17H21N5O9S2
Exact mass: 503.07807
SMILES: O=C(Nc1nc(cc(OC)n1)OC)NS(=O)(=O)c2cc(CNS(C)(=O)=O)ccc2C(=O)OC
InChI: InChI=1S/C17H21N5O9S2/c1-29-13-8-14(30-2)20-16(19-13)21-17(24)22-33(27,28)12-7-10(9-18-32(4,25)26)5-6-11(12)15(23)31-3/h5-8,18H,9H2,1-4H3,(H2,19,20,21,22,24)
Instrument: Q Exactive Orbitrap Thermo Scientific
Instrument type: LC-ESI-QFT
Ms type: MS2
Ion mode: POSITIVE
Ionization: ESI
Fragmentation mode: HCD
Collision energy: 45 (nominal)
Resolution: 35000
Column name: XBridge C18 3.5um, 2.1x50mm, Waters
Retention time: 8.9 min
Base peak: 504.0852
Precursor m/z: 504.0853
Precursor type: [M+H]+
m/z	relative intensity	assigned
57.0449	2	C2H5N2+
71.0604	2	C3H7N2+
78.9848	1	CH3O2S+
82.0286	2	C4H4NO+
83.0239	119	C3H3N2O+
93.0082	1	C4HN2O+
100.0393	19	C4H6NO2+
104.0495	1	C7H6N+
106.0651	1	C7H8N+
107.0239	1	C5H3N2O+
124.0505	1	C5H6N3O+
125.0345	2	C5H5N2O2+
126.0186	2	C5H4NO3+
132.0445	2	C8H6NO+
134.0599	1	C8H8NO+
135.0439	1	C8H7O2+
138.0659	1	C6H8N3O+
139.0501	38	C6H7N2O2+
141.053	1	C5H7N3O2+
147.0551	2	C8H7N2O+
150.0296	3	C6H4N3O2+
156.0767	79	C6H10N3O2+
157.0607	104	C6H9N2O3+
162.0548	145	C9H8NO2+
167.0322	1	C6H5N3O3+
173.0346	3	C9H5N2O2+
182.056	999	C7H8N3O3+
196.0059	1	H10N3O5S2+
211.0173	2	C8H7N2O3S+
226.0166	9	C9H8NO4S+
242.0481	25	C2H16N3O6S2+
291.0104	4	C9H11N2O5S2+
306.0099	26	C10H12NO6S2+
316.9901	1	C10H9N2O6S2+
