Mass spectrum: Buflomedil; LC-ESI-QFT; MS2; CE: 45; R=35000; [M+H]+
Name: Buflomedil
Name: 4-(1-pyrrolidinyl)-1-(2,4,6-trimethoxyphenyl)-1-butanone
Formula: C17H25NO4
Exact mass: 307.17836
SMILES: O=C(c1c(OC)cc(OC)cc1OC)CCCN2CCCC2
InChI: InChI=1S/C17H25NO4/c1-20-13-11-15(21-2)17(16(12-13)22-3)14(19)7-6-10-18-8-4-5-9-18/h11-12H,4-10H2,1-3H3
Instrument: Q Exactive Orbitrap Thermo Scientific
Instrument type: LC-ESI-QFT
Ms type: MS2
Ion mode: POSITIVE
Ionization: ESI
Fragmentation mode: HCD
Collision energy: 45 (nominal)
Resolution: 35000
Column name: XBridge C18 3.5um, 2.1x50mm, Waters
Retention time: 4.8 min
Base peak: 308.1855
Precursor m/z: 308.1856
Precursor type: [M+H]+
m/z	relative intensity	assigned
69.0334	32	C4H5O+
70.065	71	C4H8N+
71.049	32	C4H7O+
72.0807	12	C4H10N+
84.0806	2	C5H10N+
86.06	7	C4H8NO+
98.0599	96	C5H8NO+
105.0698	1	C8H9+
112.1119	2	C7H14N+
121.0647	3	C8H9O+
123.0803	3	C8H11O+
136.0517	3	C8H8O2+
137.0594	3	C8H9O2+
139.0751	5	C8H11O2+
140.1068	367	C8H14NO+
147.0802	3	C10H11O+
151.0754	6	C9H11O2+
152.0466	1	C8H8O3+
165.0547	1	C9H9O3+
165.0906	5	C10H13O2+
167.0702	11	C9H11O3+
168.078	3	C9H12O3+
169.0856	3	C9H13O3+
175.0753	1	C11H11O2+
177.0908	28	C11H13O2+
178.0622	13	C10H10O3+
178.0986	9	C11H14O2+
179.0703	4	C10H11O3+
179.1065	4	C11H15O2+
180.0418	5	C9H8O4+
180.0784	1	C10H12O3+
181.0857	140	C10H13O3+
189.0913	1	C12H13O2+
191.07	14	C11H11O3+
191.1064	2	C12H15O2+
193.0856	1	C11H13O3+
194.0935	2	C11H14O3+
195.065	456	C10H11O4+
195.1012	64	C11H15O3+
204.078	13	C12H12O3+
207.1012	6	C12H15O3+
209.117	23	C12H17O3+
219.1013	4	C13H15O3+
221.1168	9	C13H17O3+
222.0884	13	C12H14O4+
237.1119	999	C13H17O4+
290.1744	6	C17H24NO3+
