Mass spectrum: Atazanavir; LC-ESI-QFT; MS2; CE: 45; R=35000; [M+H]+
Name: Atazanavir
Name: N-[(1S)-1-[[(1S,2S)-1-benzyl-3-[[[(2S)-2-(carbomethoxyamino)-3,3-dimethyl-butanoyl]amino]-[4-(2-pyridyl)benzyl]amino]-2-hydroxy-propyl]carbamoyl]-2,2-dimethyl-propyl]carbamic acid methyl ester
Formula: C38H52N6O7
Exact mass: 704.38975
SMILES: CC(C)(C)C(C(=O)NC(CC1=CC=CC=C1)C(CN(CC2=CC=C(C=C2)C3=CC=CC=N3)NC(=O)C(C(C)(C)C)NC(=O)OC)O)NC(=O)OC
InChI: InChI=1S/C38H52N6O7/c1-37(2,3)31(41-35(48)50-7)33(46)40-29(22-25-14-10-9-11-15-25)30(45)24-44(43-34(47)32(38(4,5)6)42-36(49)51-8)23-26-17-19-27(20-18-26)28-16-12-13-21-39-28/h9-21,29-32,45H,22-24H2,1-8H3,(H,40,46)(H,41,48)(H,42,49)(H,43,47)/t29-,30-,31+,32+/m0/s1
Instrument: Q Exactive Orbitrap Thermo Scientific
Instrument type: LC-ESI-QFT
Ms type: MS2
Ion mode: POSITIVE
Ionization: ESI
Fragmentation mode: HCD
Collision energy: 45 (nominal)
Resolution: 35000
Column name: XBridge C18 3.5um, 2.1x50mm, Waters
Retention time: 11.6 min
Base peak: 705.3972
Precursor m/z: 705.397
Precursor type: [M+H]+
m/z	relative intensity	assigned
69.0699	14	C5H9+
76.0393	12	C2H6NO2+
91.0541	3	C7H7+
100.1122	2	C6H14N+
101.0961	10	C6H13O+
105.0701	2	C8H9+
112.0757	24	C6H10NO+
117.0699	2	C9H9+
120.0808	31	C8H10N+
129.0699	11	C10H9+
131.0857	2	C10H11+
132.081	1	C9H10N+
141.0698	4	C11H9+
144.102	218	C7H14NO2+
146.0964	7	C10H12N+
147.0803	1	C10H11O+
164.1073	2	C10H14NO+
166.0645	1	C12H8N+
167.0731	51	C12H9N+
168.0808	999	C12H10N+
169.0885	17	C12H11N+
170.0964	9	C12H12N+
183.0918	1	C12H11N2+
183.1047	2	C13H13N+
192.1019	1	C11H14NO2+
212.1185	1	C13H14N3+
287.1541	2	C20H19N2+
302.1539	1	C21H20NO+
335.1967	12	C18H27N2O4+
