Mass spectrum: Linezolid; LC-ESI-QFT; MS2; CE: 90; R=35000; [M+H]+
Name: Linezolid
Name: N-[[(5S)-3-(3-fluoro-4-morpholin-4-ylphenyl)-2-oxo-1,3-oxazolidin-5-yl]methyl]acetamide
Formula: C16H20FN3O4
Exact mass: 337.14378
SMILES: CC(=O)NC[C@H]1CN(C(=O)O1)C2=CC(=C(C=C2)N3CCOCC3)F
InChI: InChI=1S/C16H20FN3O4/c1-11(21)18-9-13-10-20(16(22)24-13)12-2-3-15(14(17)8-12)19-4-6-23-7-5-19/h2-3,8,13H,4-7,9-10H2,1H3,(H,18,21)/t13-/m0/s1
Instrument: Q Exactive Orbitrap Thermo Scientific
Instrument type: LC-ESI-QFT
Ms type: MS2
Ion mode: POSITIVE
Ionization: ESI
Fragmentation mode: HCD
Collision energy: 90 (nominal)
Resolution: 35000
Column name: XBridge C18 3.5um, 2.1x50mm, Waters
Retention time: 5.6 min
Base peak: 338.1509
Precursor m/z: 338.1511
Precursor type: [M+H]+
m/z	relative intensity	assigned
56.0495	175	C3H6N+
60.0444	12	C2H6NO+
65.0386	8	C5H5+
68.0494	2	C4H6N+
72.0444	3	C3H6NO+
75.0229	7	C6H3+
77.0386	6	C6H5+
78.0338	2	C5H4N+
79.0292	3	C4H3N2+
79.0542	2	C6H7+
80.0495	1	C5H6N+
83.0291	24	C5H4F+
84.037	6	C5H5F+
84.0444	15	C4H6NO+
85.0522	2	C4H7NO+
89.0385	35	C7H5+
90.0338	9	C6H4N+
91.0541	32	C7H7+
92.0494	13	C6H6N+
95.0491	22	C6H7O+
96.0369	12	C6H5F+
96.0443	10	C5H6NO+
97.0448	26	C6H6F+
98.0399	14	C5H5FN+
103.0542	37	C8H7+
104.0495	40	C7H6N+
105.0445	13	C6H5N2+
105.0573	2	C7H7N+
106.0651	17	C7H8N+
107.0291	31	C7H4F+
108.0243	8	C6H3FN+
108.0369	36	C7H5F+
109.0322	15	C6H4FN+
109.0448	126	C7H6F+
110.0399	31	C6H5FN+
110.0526	37	C7H7F+
111.0478	99	C6H6FN+
112.0558	14	C6H7FN+
113.0397	9	C6H6FO+
115.0541	128	C9H7+
116.0494	67	C8H6N+
117.0447	10	C7H5N2+
117.0572	106	C8H7N+
118.065	54	C8H8N+
119.0729	1	C8H9N+
120.037	2	C8H5F+
121.0448	10	C8H6F+
122.04	134	C7H5FN+
122.0524	12	C8H7F+
123.0354	7	C6H4FN2+
123.0477	97	C7H6FN+
123.0601	12	C8H8F+
124.0556	148	C7H7FN+
125.0509	65	C6H6FN2+
125.0634	13	C7H8FN+
126.034	2	C9H4N+
126.0588	9	C6H7FN2+
126.0712	3	C7H9FN+
128.0495	34	C9H6N+
129.0446	21	C8H5N2+
129.0573	23	C9H7N+
130.0651	85	C9H8N+
131.0603	51	C8H7N2+
131.0728	8	C9H9N+
132.0442	6	C8H6NO+
132.068	23	C8H8N2+
132.0808	7	C9H10N+
133.0447	16	C9H6F+
133.0523	2	C8H7NO+
133.0759	20	C8H9N2+
134.0399	29	C8H5FN+
134.0599	74	C8H8NO+
135.0478	608	C8H6FN+
136.0556	329	C8H7FN+
137.0509	118	C7H6FN2+
137.0634	166	C8H8FN+
138.0587	43	C7H7FN2+
138.0713	52	C8H9FN+
139.0665	46	C7H8FN2+
140.0269	3	C7H5FO2+
140.0496	13	C10H6N+
141.0572	23	C10H7N+
142.0526	26	C9H6N2+
142.0651	69	C10H8N+
143.0604	34	C9H7N2+
143.0729	24	C10H9N+
144.0445	2	C9H6NO+
144.0558	9	C8H6N3+
144.0683	9	C9H8N2+
144.0807	19	C10H10N+
145.0444	2	C10H6F+
145.0645	1	C5H8FN3O+
145.0761	15	C9H9N2+
146.0399	40	C9H5FN+
146.0523	2	C10H7F+
146.06	9	C9H8NO+
147.0479	58	C9H6FN+
148.0556	999	C9H7FN+
149.0509	101	C8H6FN2+
149.0636	66	C9H8FN+
150.0588	71	C8H7FN2+
150.0713	115	C9H9FN+
151.0665	178	C8H8FN2+
151.0792	9	C9H10FN+
152.0504	22	C8H7FNO+
152.0743	68	C8H9FN2+
153.0583	2	C8H8FNO+
153.0821	36	C8H10FN2+
154.04	11	C9H4N3+
154.065	16	C11H8N+
155.0375	7	C7H6FNO2+
155.0603	19	C10H7N2+
155.0728	2	C11H9N+
156.0681	48	C10H8N2+
157.0759	28	C10H9N2+
158.084	1	C10H10N2+
159.0918	8	C10H11N2+
160.0432	1	C9H5FN2+
160.0555	20	C10H7FN+
160.0758	2	C10H10NO+
161.051	11	C9H6FN2+
161.0634	77	C10H8FN+
162.0463	17	C13H6+
162.0589	30	C9H7FN2+
162.0712	112	C10H9FN+
163.0665	152	C9H8FN2+
163.0788	8	C10H10FN+
164.0504	16	C9H7FNO+
164.0743	20	C9H9FN2+
164.0869	8	C10H11FN+
165.0822	156	C9H10FN2+
166.0902	9	C9H11FN2+
167.061	2	C11H7N2+
167.0977	9	C9H12FN2+
168.0681	29	C11H8N2+
169.0759	129	C11H9N2+
170.0838	11	C11H10N2+
171.0914	20	C11H11N2+
172.0556	43	C11H7FN+
173.051	31	C10H6FN2+
173.0635	6	C11H8FN+
174.0587	174	C10H7FN2+
174.0714	14	C11H9FN+
175.0666	46	C10H8FN2+
176.0747	21	C10H9FN2+
176.0866	2	C11H11FN+
177.0822	73	C10H10FN2+
178.0901	8	C10H11FN2+
179.0375	12	C9H6FNO2+
179.0615	25	C9H8FN2O+
179.0979	14	C10H12FN2+
180.0817	3	C10H11FNO+
181.077	15	C9H10FN2O+
181.0897	3	C10H12FNO+
183.0916	7	C12H11N2+
187.0666	65	C11H8FN2+
188.0745	6	C11H9FN2+
188.0869	2	C12H11FN+
189.0822	73	C11H10FN2+
190.0898	3	C11H11FN2+
191.0976	31	C11H12FN2+
195.0925	21	C10H12FN2O+
196.1004	4	C10H13FN2O+
201.0819	11	C12H10FN2+
203.0978	2	C12H12FN2+
209.1083	2	C11H14FN2O+
215.118	3	C13H15N2O+
