Mass spectrum: Hydrochlorothiazide; LC-ESI-ITFT; MS2; CE: 90%; R=30000; [M+H]+
Name: Hydrochlorothiazide
Name: 6-Chloro-3,4-dihydro-2H-1,2,4-benzothiadiazine-7-sulfonamide 1,1-dioxide
Name: 6-chloranyl-1,1-bis(oxidanylidene)-3,4-dihydro-2H-1$l^{6},2,4-benzothiadiazine-7-sulfonamide
Formula: C7H8ClN3O4S2
Exact mass: 296.9645
SMILES: NS(=O)(=O)C1=CC2=C(NCNS2(=O)=O)C=C1Cl
InChI: InChI=1S/C7H8ClN3O4S2/c8-4-1-5-7(2-6(4)16(9,12)13)17(14,15)11-3-10-5/h1-2,10-11H,3H2,(H2,9,12,13)
Instrument: LTQ Orbitrap XL Thermo Scientific
Instrument type: LC-ESI-ITFT
Ms type: MS2
Ion mode: POSITIVE
Ionization: ESI
Fragmentation mode: HCD
Collision energy: 90 % (nominal)
Resolution: 30000
Column name: XBridge C18 3.5um, 2.1x50mm, Waters
Retention time: 2.2 min
Base peak: 163.1326
Precursor m/z: 297.9718
Precursor type: [M+H]+
m/z	relative intensity	assigned
63.0228	45	C5H3+
76.0182	78	C5H2N+
85.9792	163	C3HClN+
89.026	115	C6H3N+
90.0338	224	C6H4N+
91.0178	71	C6H3O+
91.0418	50	C6H5N+
97.9792	131	C4HClN+
98.9995	146	C5H4Cl+
104.9561	67	C3H2ClS+
106.9824	112	C5HNS+
107.9903	732	C5H2NS+
108.9839	104	C6H2Cl+
111.9948	170	C5H3ClN+
113.9741	217	C4HClNO+
114.0104	56	C5H5ClN+
117.0448	174	C7H5N2+
118.0525	119	C7H6N2+
123.9948	213	C6H3ClN+
125.0027	500	C6H4ClN+
130.0051	45	C5H5ClNO+
131.9669	25	C7OS+
139.9897	999	C6H3ClNO+
141.9515	93	C5HClNS+
142.0054	145	C6H5ClNO+
142.9588	79	C5H2ClNS+
143.967	104	C5H3ClNS+
152.0135	44	C7H5ClN2+
152.9977	49	C7H4ClNO+
155.0004	45	C6H4ClN2O+
155.9847	46	C6H3ClNO2+
171.9618	216	C6H3ClNOS+
