Mass spectrum: Dichlofluanid; LC-ESI-QFT; MS2; CE: 90; R=35000; [M+H]+
Name: Dichlofluanid
Name: 1,1-dichloro-N-(dimethylsulfamoyl)-1-fluoro-N-phenylmethanesulfenamide
Formula: C9H11Cl2FN2O2S2
Exact mass: 331.96230
SMILES: N(c1ccccc1)(S(N(C)C)(=O)=O)SC(F)(Cl)Cl
InChI: InChI=1S/C9H11Cl2FN2O2S2/c1-13(2)18(15,16)14(17-9(10,11)12)8-6-4-3-5-7-8/h3-7H,1-2H3
Instrument: Q Exactive Orbitrap Thermo Scientific
Instrument type: LC-ESI-QFT
Ms type: MS2
Ion mode: POSITIVE
Ionization: ESI
Fragmentation mode: HCD
Collision energy: 90 (nominal)
Resolution: 35000
Column name: XBridge C18 3.5um, 2.1x50mm, Waters
Retention time: 11.6 min
Base peak: 223.9499
Precursor m/z: 332.9696
Precursor type: [M+H]+
m/z	relative intensity	assigned
50.0152	2	C4H2+
51.023	2	C4H3+
53.0387	2	C4H5+
65.0386	1	C5H5+
69.9871	2	C3H2S+
75.9949	2	C2H3ClN+
77.0385	27	C6H5+
79.0416	2	C5H5N+
81.0335	4	C5H5O+
91.0416	1	C6H5N+
92.0164	2	C2H6NOS+
95.0491	307	C6H7O+
96.0028	98	C5H4S+
97.0106	6	C5H5S+
98.9842	7	CH4ClO3+
100.9357	2	CCl2F+
105.0447	71	C6H5N2+
109.0106	2	C6H5S+
110.0168	2	C3H6ClFN+
120.0807	6	C8H10N+
121.0887	1	C8H11N+
122.0059	75	C6H4NS+
123.0136	999	C6H5NS+
125.987	4	C3H6Cl2N+
127.9926	5	C5H4O2S+
153.0043	3	C7H4FNS+
