Mass spectrum: Fluxapyroxad (BAS 700 F)-TP CSAA798670; LC-ESI-QFT; MS2; CE: 90%; R=17500; [M-H]-
Name: Fluxapyroxad (BAS 700 F)-TP CSAA798670
Name: 3-(Difluoromethyl)-1-methyl-1H-pyrazole-4-carboxylic acid
Name: 3-(difluoromethyl)-1-methylpyrazole-4-carboxylic acid
Formula: C6H6F2N2O2
Exact mass: 176.0397
SMILES: CN1C=C(C(O)=O)C(=N1)C(F)F
InChI: InChI=1S/C6H6F2N2O2/c1-10-2-3(6(11)12)4(9-10)5(7)8/h2,5H,1H3,(H,11,12)
Instrument: Q Exactive Plus Orbitrap Thermo Scientific
Instrument type: LC-ESI-QFT
Ms type: MS2
Ion mode: NEGATIVE
Ionization: ESI
Fragmentation mode: HCD
Collision energy: 90 % (nominal)
Resolution: 17500
Column name: XBridge C18 3.5um, 2.1x50mm, Waters
Retention time: 2.937 min
Base peak: 175.0323
Precursor m/z: 175.0325
Precursor type: [M-H]-
m/z	relative intensity	assigned
50.0036	268	C3N-
63.024	163	C5H3-
64.0193	27	C4H2N-
64.0273	4	H4N2O2-
65.0145	71	C3HN2-
68.0069	16	C4HF-
76.0066	6	C4N2-
91.0303	999	C5H3N2-
92.0334	16	
111.0364	59	C5H4FN2-
131.0428	13	C5H5F2N2-
