Mass spectrum: 1H-Benzotriazole-5-carboxylic acid; LC-ESI-QFT; MS2; CE: 150; R=35000; [M+H]+
Name: 1H-Benzotriazole-5-carboxylic acid
Name: 1H-benzotriazole-5-carboxylic acid
Name: 2H-benzotriazole-5-carboxylic acid
Formula: C7H5N3O2
Exact mass: 163.03818
SMILES: c1cc2c(cc1C(=O)O)nn[nH]2
InChI: InChI=1S/C7H5N3O2/c11-7(12)4-1-2-5-6(3-4)9-10-8-5/h1-3H,(H,11,12)(H,8,9,10)
Instrument: Q Exactive Plus Orbitrap Thermo Scientific
Instrument type: LC-ESI-QFT
Ms type: MS2
Ion mode: POSITIVE
Ionization: ESI
Fragmentation mode: HCD
Collision energy: 150 (nominal)
Resolution: 35000
Column name: XBridge C18 3.5um, 2.1x50mm, Waters
Retention time: 3.7 min
Base peak: 164.0453
Precursor m/z: 164.0455
Precursor type: [M+H]+
m/z	relative intensity	assigned
50.0151	47	C4H2+
51.023	90	C4H3+
52.0182	110	C3H2N+
52.0307	12	C4H4+
53.0022	69	C3HO+
53.0386	530	C4H5+
53.9975	15	C2NO+
54.0338	45	C3H4N+
54.0464	10	C4H6+
55.0178	37	C3H3O+
61.0073	20	C5H+
62.0151	125	C5H2+
63.0229	999	C5H3+
64.0182	208	C4H2N+
64.0307	67	C5H4+
65.026	51	C4H3N+
65.0386	417	C5H5+
66.0338	12	C4H4N+
67.0179	2	C4H3O+
67.029	2	C3H3N2+
67.9893	12	C3O2+
68.0131	123	C3H2NO+
68.9971	12	C3HO2+
74.015	2	C6H2+
75.0103	3	C5HN+
76.0181	34	C5H2N+
78.0338	41	C5H4N+
79.0178	6	C5H3O+
79.0417	16	C5H5N+
80.0494	248	C5H6N+
81.0335	185	C5H5O+
82.0287	13	C4H4NO+
89.0259	19	C6H3N+
90.0339	118	C6H4N+
91.0291	9	C5H3N2+
91.0417	56	C6H5N+
92.0369	5	C5H4N2+
92.0495	1	C6H6N+
96.0444	9	C5H6NO+
103.0291	1	C6H3N2+
106.0287	5	C6H4NO+
107.0366	2	C6H5NO+
108.0444	77	C6H6NO+
118.0287	24	C7H4NO+
118.04	114	C6H4N3+
119.0478	84	C6H5N3+
124.0393	2	C6H6NO2+
134.035	2	C6H4N3O+
136.0505	1	C6H6N3O+
151.0377	30	C6H5N3O2+
