Mass spectrum: Uniconazole; LC-ESI-QFT; MS2; CE: 75; R=35000; [M+H]+
Name: Uniconazole
Name: 1-(4-chlorophenyl)-4,4-dimethyl-2-(1,2,4-triazol-1-yl)pent-1-en-3-ol
Formula: C15H18ClN3O
Exact mass: 291.11384
SMILES: CC(C)(C)C(C(=CC1=CC=C(C=C1)Cl)N2C=NC=N2)O
InChI: InChI=1S/C15H18ClN3O/c1-15(2,3)14(20)13(19-10-17-9-18-19)8-11-4-6-12(16)7-5-11/h4-10,14,20H,1-3H3
Instrument: Q Exactive Plus Orbitrap Thermo Scientific
Instrument type: LC-ESI-QFT
Ms type: MS2
Ion mode: POSITIVE
Ionization: ESI
Fragmentation mode: HCD
Collision energy: 75 (nominal)
Resolution: 35000
Column name: XBridge C18 3.5um, 2.1x50mm, Waters
Retention time: 11.8 min
Base peak: 292.1207
Precursor m/z: 292.1211
Precursor type: [M+H]+
m/z	relative intensity	assigned
53.0022	1	C3HO+
55.0542	2	C4H7+
57.0699	15	C4H9+
59.0491	1	C3H7O+
69.0699	17	C5H9+
70.04	999	C2H4N3+
77.0384	1	C6H5+
86.9996	1	C4H4Cl+
87.0805	4	C5H11O+
89.0386	4	C7H5+
91.0543	4	C7H7+
93.07	1	C7H9+
95.0491	1	C6H7O+
98.9997	1	C5H4Cl+
102.0464	5	C8H6+
103.0542	9	C8H7+
105.0448	1	C6H5N2+
115.0542	4	C9H7+
116.0621	2	C9H8+
117.0699	1	C9H9+
125.0153	100	C7H6Cl+
128.062	12	C10H8+
129.0101	3	C6H6ClO+
129.0449	2	C8H5N2+
129.0699	4	C10H9+
130.0777	1	C10H10+
131.0491	4	C9H7O+
132.0571	2	C9H8O+
137.0153	8	C8H6Cl+
138.9946	18	C7H4ClO+
139.0058	13	C6H4ClN2+
139.0309	3	C8H8Cl+
141.0699	9	C11H9+
142.0778	16	C11H10+
145.0649	3	C10H9O+
146.0727	1	C10H10O+
149.0153	4	C9H6Cl+
151.0309	1	C9H8Cl+
153.0698	2	C12H9+
154.0777	1	C12H10+
155.0603	7	C10H7N2+
155.0855	31	C12H11+
156.0681	2	C10H8N2+
157.0635	3	C9H7N3+
159.0804	1	C11H11O+
163.031	2	C10H8Cl+
169.0762	2	C11H9N2+
169.101	1	C13H13+
170.109	6	C13H14+
173.0962	1	C12H13O+
175.0309	2	C11H8Cl+
176.039	2	C11H9Cl+
182.0714	1	C11H8N3+
183.0791	6	C11H9N3+
190.0544	2	C12H11Cl+
196.0871	1	C12H10N3+
230.0479	1	C12H9ClN3+
244.0635	1	C13H11ClN3+
