Mass spectrum: 3,4,5-Trimethacarb; LC-ESI-QFT; MS2; CE: 150%; R=17500; [M+H]+
Name: 3,4,5-Trimethacarb
Name: 3,4,5-Trimethylphenyl methylcarbamate
Name: (3,4,5-trimethylphenyl) N-methylcarbamate
Formula: C11H15NO2
Exact mass: 193.1103
SMILES: CC1=CC(=CC(=C1C)C)OC(=O)NC
InChI: InChI=1S/C11H15NO2/c1-7-5-10(14-11(13)12-4)6-8(2)9(7)3/h5-6H,1-4H3,(H,12,13)
Instrument: Exploris 240 Orbitrap Thermo Scientific
Instrument type: LC-ESI-QFT
Ms type: MS2
Ion mode: POSITIVE
Ionization: ESI
Fragmentation mode: HCD
Collision energy: 150 % (nominal)
Resolution: 17500
Column name: XBridge C18 3.5um, 2.1x50mm, Waters
Retention time: 7.147 min
Base peak: 137.096
Precursor m/z: 194.1176
Precursor type: [M+H]+
m/z	relative intensity	assigned
51.0229	102	C4H3+
53.0387	91	C4H5+
55.0178	28	C3H3O+
55.0543	29	C4H7+
58.0288	49	C2H4NO+
65.0386	81	C5H5+
67.0542	54	C5H7+
77.0386	386	C6H5+
78.0463	96	C6H6+
79.0542	314	C6H7+
81.0698	18	C6H9+
91.0542	151	C7H7+
93.0702	29	C7H9+
95.0491	90	C6H7O+
103.0543	78	C8H7+
104.0623	30	C8H8+
107.0491	999	C7H7O+
121.0648	232	C8H9O+
122.0726	75	C8H10O+
