Mass spectrum: Metolachlor; LC-ESI-ITFT; MS2; CE: 60%; R=7500; [M+H]+
Name: Metolachlor
Name: 2-chloranyl-N-(2-ethyl-6-methyl-phenyl)-N-(1-methoxypropan-2-yl)ethanamide
Formula: C15H22ClNO2
Exact mass: 283.1334
SMILES: CCC1=CC=CC(=C1N(C(C)COC)C(=O)CCl)C
InChI: InChI=1S/C15H22ClNO2/c1-5-13-8-6-7-11(2)15(13)17(14(18)9-16)12(3)10-19-4/h6-8,12H,5,9-10H2,1-4H3
Instrument: LTQ Orbitrap XL Thermo Scientific
Instrument type: LC-ESI-ITFT
Ms type: MS2
Ion mode: POSITIVE
Ionization: ESI
Fragmentation mode: HCD
Collision energy: 60 % (nominal)
Resolution: 7500
Column name: XBridge C18 3.5um, 2.1x50mm, Waters
Retention time: 11.8 min
Base peak: 306.1236
Precursor m/z: 284.1412
Precursor type: [M+H]+
m/z	relative intensity	assigned
73.0649	54	C4H9O+
76.9788	12	C2H2ClO+
91.0544	15	C7H7+
108.0807	10	C7H10N+
109.065	5	C7H9O+
117.0695	10	C9H9+
118.0654	6	C8H8N+
119.0857	26	C9H11+
120.0806	16	C8H10N+
130.0651	10	C9H8N+
131.0729	11	C9H9N+
132.0809	14	C9H10N+
133.0887	48	C9H11N+
134.0965	163	C9H12N+
135.0815	8	C6H14ClN+
136.1123	6	C9H14N+
144.0811	12	C10H10N+
145.0889	19	C10H11N+
146.0965	88	C10H12N+
148.0756	7	C9H10NO+
148.1122	23	C10H14N+
158.0964	59	C11H12N+
159.1042	25	C11H13N+
160.1121	93	C11H14N+
162.0915	18	C10H12NO+
174.1279	16	C12H16N+
176.1436	999	C12H18N+
184.0525	77	C9H11ClNO+
194.073	32	C11H13ClN+
212.0838	56	C11H15ClNO+
252.1149	518	C14H19ClNO+
