Mass spectrum: Oxytetracycline; LC-ESI-QFT; MS2; CE: 90; R=35000; [M-H]-
Name: Oxytetracycline
Name: (4S,4aR,5S,5aR,6S,12aS)-4-(Dimethylamino)-3,5,6,10,12,12a-hexahydroxy-6-methyl-1,11-dioxo-1,4,4a,5,5a,6,11,12a-octahydro-2-tetracenecarboxamide
Name: 2-carbamoyl-4-(dimethylazaniumyl)-5,6,10,11,12a-pentahydroxy-6-methyl-3,12-dioxo-4,4a,5,5a-tetrahydrotetracen-1-olate
Formula: C22H24N2O9
Exact mass: 460.14818
SMILES: CC1(C2C(C3C(C(=O)C(=C(C3(C(=O)C2=C(C4=C1C=CC=C4O)O)O)O)C(=O)N)N(C)C)O)O
InChI: InChI=1S/C22H24N2O9/c1-21(32)7-5-4-6-8(25)9(7)15(26)10-12(21)17(28)13-14(24(2)3)16(27)11(20(23)31)19(30)22(13,33)18(10)29/h4-6,12-14,17,25-26,28,30,32-33H,1-3H3,(H2,23,31)
Instrument: Q Exactive Plus Orbitrap Thermo Scientific
Instrument type: LC-ESI-QFT
Ms type: MS2
Ion mode: NEGATIVE
Ionization: ESI
Fragmentation mode: HCD
Collision energy: 90 (nominal)
Resolution: 35000
Column name: XBridge C18 3.5um, 2.1x50mm, Waters
Retention time: 4.3 min
Base peak: 459.1405
Precursor m/z: 459.1409
Precursor type: [M-H]-
m/z	relative intensity	assigned
51.0239	4	C4H3-
53.0032	5	C3HO-
55.0189	71	C3H3O-
57.0346	14	C3H5O-
59.0138	17	C2H3O2-
63.024	83	C5H3-
64.0193	3	C4H2N-
65.0033	75	C4HO-
65.0397	60	C5H5-
65.9985	150	C3NO-
67.0189	44	C4H3O-
68.0142	7	C3H2NO-
68.9982	313	C3HO2-
69.0346	99	C4H5O-
71.0139	34	C3H3O2-
72.9934	3	C2HO3-
75.0241	13	C6H3-
76.0194	4	C5H2N-
78.035	14	C5H4N-
79.0189	88	C5H3O-
80.0267	5	C5H4O-
81.0345	41	C5H5O-
82.0059	13	C4H2O2-
82.0299	4	C4H4NO-
83.0138	107	C4H3O2-
84.009	124	C3H2NO2-
85.0295	17	C4H5O2-
87.0087	39	C3H3O3-
89.0397	32	C7H5-
90.0349	41	C6H4N-
91.0189	143	C6H3O-
91.0553	13	C7H7-
92.0141	5	C5H2NO-
92.0267	26	C6H4O-
93.0345	310	C6H5O-
94.0298	4	C5H4NO-
95.0138	183	C5H3O2-
95.0502	17	C6H7O-
96.0091	98	C4H2NO2-
96.0455	12	C5H6NO-
96.9931	110	C4HO3-
97.0294	76	C5H5O2-
99.0089	22	C4H3O3-
99.045	6	C5H7O2-
101.0396	13	C8H5-
103.0554	5	C8H7-
105.0344	16	C7H5O-
107.0139	28	C6H3O2-
107.0502	18	C7H7O-
108.0217	199	C6H4O2-
109.0295	177	C6H5O2-
110.0248	6	C5H4NO2-
110.061	4	C6H8NO-
111.0087	39	C5H3O3-
115.0554	11	C9H7-
117.0346	221	C8H5O-
118.0298	12	C7H4NO-
119.0136	21	C7H3O2-
119.0502	43	C8H7O-
120.0091	16	C6H2NO2-
121.0295	73	C7H5O2-
122.0248	26	C6H4NO2-
122.0372	6	C7H6O2-
123.0088	115	C6H3O3-
124.0165	72	C6H4O3-
124.0402	11	C6H6NO2-
124.9878	10	C5HO4-
125.0244	41	C6H5O3-
126.0198	3	C5H4NO3-
126.0561	33	C6H8NO2-
129.0708	13	C10H9-
130.0423	53	C9H6O-
131.0136	7	C8H3O2-
131.0502	45	C9H7O-
132.0213	6	C8H4O2-
133.0164	4	C7H3NO2-
133.0295	24	C8H5O2-
133.066	4	C9H9O-
134.0247	118	C7H4NO2-
134.0373	18	C8H6O2-
135.0452	999	C8H7O2-
136.0165	4	C7H4O3-
136.0406	4	C7H6NO2-
137.0243	37	C7H5O3-
137.048	6	C7H7NO2-
138.0198	4	C6H4NO3-
138.0323	5	C7H6O3-
139.0149	140	C5H3N2O3-
141.0346	5	C10H5O-
142.9984	20	C5H3O5-
143.0502	130	C10H7O-
144.058	280	C10H8O-
145.0294	91	C9H5O2-
145.0658	20	C10H9O-
146.0375	12	C9H6O2-
147.0202	7	C7H3N2O2-
147.0322	3	C8H5NO2-
147.0452	24	C9H7O2-
148.0042	33	C7H2NO3-
148.0405	4	C8H6NO2-
149.0117	31	C7H3NO3-
149.0243	7	C8H5O3-
149.0356	6	C7H5N2O2-
149.9958	14	C7H2O4-
150.0197	58	C7H4NO3-
151.0038	13	C7H3O4-
151.0273	25	C7H5NO3-
152.0353	13	C7H6NO3-
152.0632	3	C12H8-
154.0423	4	C11H6O-
155.0501	36	C11H7O-
156.0582	14	C11H8O-
157.0295	4	C10H5O2-
157.0659	56	C11H9O-
158.0373	202	C10H6O2-
159.0451	172	C10H7O2-
160.0407	5	C9H6NO2-
161.0245	295	C9H5O3-
161.0606	15	C10H9O2-
162.0196	107	C8H4NO3-
163.0037	5	C8H3O4-
163.0152	11	C7H3N2O3-
163.0277	32	C8H5NO3-
163.0399	22	C9H7O3-
163.0555	3	C13H7-
164.0115	12	C8H4O4-
164.0355	4	C8H6NO3-
165.0708	11	C13H9-
167.0503	44	C12H7O-
168.058	15	C12H8O-
169.0659	113	C12H9O-
170.0372	4	C11H6O2-
171.0452	356	C11H7O2-
172.053	393	C11H8O2-
173.0243	129	C10H5O3-
173.0607	631	C11H9O2-
174.0322	200	C10H6O3-
175.0399	71	C10H7O3-
177.0303	38	C8H5N2O3-
178.0146	13	C8H4NO4-
179.0503	15	C13H7O-
180.0579	46	C13H8O-
181.0659	65	C13H9O-
182.0375	42	C12H6O2-
183.045	85	C12H7O2-
183.0813	66	C13H11O-
184.0531	12	C12H8O2-
185.024	32	C11H5O3-
185.0607	73	C12H9O2-
186.0322	12	C11H6O3-
186.0684	5	C12H10O2-
187.04	337	C11H7O3-
188.0479	29	C11H8O3-
189.0191	7	C10H5O4-
189.0557	20	C11H9O3-
190.0519	3	C10H8NO3-
191.0504	37	C14H7O-
193.0652	32	C14H9O-
195.0451	98	C13H7O2-
195.0814	21	C14H11O-
196.0529	136	C13H8O2-
197.0608	188	C13H9O2-
198.032	5	C12H6O3-
199.0402	25	C12H7O3-
199.0764	62	C13H11O2-
200.0475	5	C12H8O3-
201.0557	167	C12H9O3-
202.0269	15	C11H6O4-
203.035	55	C11H7O4-
204.0426	4	C11H8O4-
204.0579	16	C15H8O-
205.0656	14	C15H9O-
206.0225	4	C10H6O5-
207.0449	33	C14H7O2-
207.0817	6	C15H11O-
208.0529	68	C14H8O2-
209.0608	231	C14H9O2-
210.0321	37	C13H6O3-
210.0687	19	C14H10O2-
211.0401	132	C13H7O3-
211.0763	50	C14H11O2-
212.0475	14	C13H8O3-
213.019	5	C12H5O4-
213.0556	37	C13H9O3-
215.0714	3	C13H11O3-
216.0419	3	C12H8O4-
217.0659	5	C16H9O-
219.0447	21	C15H7O2-
220.053	32	C15H8O2-
221.061	53	C15H9O2-
222.0684	21	C15H10O2-
223.04	23	C14H7O3-
223.0763	28	C15H11O2-
224.0479	208	C14H8O3-
225.0556	293	C14H9O3-
226.0265	9	C13H6O4-
226.0875	3	C14H12NO2-
227.035	64	C13H7O4-
227.0715	13	C14H11O3-
228.0424	3	C13H8O4-
232.0529	15	C16H8O2-
233.0607	36	C16H9O2-
234.0683	4	C16H10O2-
235.0401	172	C15H7O3-
236.0481	6	C15H8O3-
236.0719	5	C15H10NO2-
237.0559	76	C15H9O3-
238.063	17	C15H10O3-
238.0872	3	C15H12NO2-
239.035	67	C14H7O4-
239.0711	16	C15H11O3-
240.043	14	C14H8O4-
241.0499	15	C14H9O4-
245.06	6	C17H9O2-
246.0687	5	C17H10O2-
247.0403	6	C16H7O3-
248.0476	37	C16H8O3-
249.0559	39	C16H9O3-
250.0634	5	C16H10O3-
250.0873	3	C16H12NO2-
251.035	15	C15H7O4-
251.0713	20	C16H11O3-
252.0424	25	C15H8O4-
252.1027	5	C16H14NO2-
253.0505	453	C15H9O4-
254.0591	5	C15H10O4-
255.0298	115	C14H7O5-
261.0555	26	C17H9O3-
262.0634	4	C17H10O3-
263.0346	16	C16H7O4-
263.0585	5	C16H9NO3-
263.0714	6	C17H11O3-
264.0427	4	C16H8O4-
265.0505	18	C16H9O4-
267.0659	3	C16H11O4-
275.0711	3	C18H11O3-
276.0419	7	C17H8O4-
277.0503	16	C17H9O4-
279.0301	4	C16H7O5-
289.0503	3	C18H9O4-
292.0373	3	C17H8O5-
303.0294	3	C18H7O5-
