Mass spectrum: Lumiracoxib; LC-ESI-QFT; MS2; CE: 30%; R=15000; [M-H]-
Name: Lumiracoxib
Name: 2-[2-(2-chloro-6-fluoroanilino)-5-methylphenyl]acetic acid
Formula: C15H13ClFNO2
Exact mass: 293.0618846
SMILES: CC1=CC(=C(C=C1)NC2=C(C=CC=C2Cl)F)CC(=O)O
InChI: InChI=1S/C15H13ClFNO2/c1-9-5-6-13(10(7-9)8-14(19)20)18-15-11(16)3-2-4-12(15)17/h2-7,18H,8H2,1H3,(H,19,20)
Instrument: Exploris 240 Thermo Scientific
Instrument type: LC-ESI-QFT
Ms type: MS2
Ion mode: NEGATIVE
Ionization: ESI
Fragmentation mode: HCD
Collision energy: 30 % (nominal)
Resolution: 15000
Column name: XBridge C18 3.5um, 2.1x50mm, Waters
Retention time: 11.408 min
Base peak: 292.0545
Precursor m/z: 292.0546
Precursor type: [M-H]-
m/z	relative intensity	assigned
212.0879	32	C14H11FN-
228.0588	33	C14H11ClN-
248.0648	999	C14H12ClFN-
