Mass spectrum: 10,11-trans-Dihydroxy-10,11-dihydrocarbamazepine; LC-ESI-ITFT; MS2; CE: 75%; R=15000; [M+H]+
Name: 10,11-trans-Dihydroxy-10,11-dihydrocarbamazepine
Name: (5S,6S)-5,6-bis(oxidanyl)-5,6-dihydrobenzo[b][1]benzazepine-11-carboxamide
Formula: C15H14N2O3
Exact mass: 270.1004
SMILES: c12[C@@H]([C@@H](O)c3c(N(C(N)=O)c2cccc1)cccc3)O
InChI: InChI=1S/C15H14N2O3/c16-15(20)17-11-7-3-1-5-9(11)13(18)14(19)10-6-2-4-8-12(10)17/h1-8,13-14,18-19H,(H2,16,20)/t13-,14-/m0/s1
Instrument: LTQ Orbitrap XL Thermo Scientific
Instrument type: LC-ESI-ITFT
Ms type: MS2
Ion mode: POSITIVE
Ionization: ESI
Fragmentation mode: HCD
Collision energy: 75 % (nominal)
Resolution: 15000
Column name: XBridge C18 3.5um, 2.1x50mm, Waters
Retention time: 6.1 min
Base peak: 271.1079
Precursor m/z: 271.1077
Precursor type: [M+H]+
m/z	relative intensity	assigned
117.0572	1	C8H7N+
152.062	3	C12H8+
153.0699	1	C12H9+
165.0699	14	C13H9+
167.0729	83	C12H9N+
179.073	6	C13H9N+
180.0808	999	C13H10N+
181.0885	14	C13H11N+
182.0964	172	C13H12N+
191.073	1	C14H9N+
192.0807	3	C14H10N+
193.0885	12	C14H11N+
195.0677	1	C13H9NO+
208.0758	2	C14H10NO+
210.0915	19	C14H12NO+
