Mass spectrum: Pirimicarb-desamido; LC-ESI-QFT; MS2; CE: 45%; R=17500; [M+H]+
Name: Pirimicarb-desamido
Name: 2-(dimethylamino)-5,6-dimethyl-1H-pyrimidin-4-one
Formula: C8H13N3O
Exact mass: 167.1059
SMILES: CC1=C(N=C(N=C1C)N(C)C)O
InChI: InChI=1S/C8H13N3O/c1-5-6(2)9-8(11(3)4)10-7(5)12/h1-4H3,(H,9,10,12)
Instrument: Q Exactive Plus Orbitrap Thermo Scientific
Instrument type: LC-ESI-QFT
Ms type: MS2
Ion mode: POSITIVE
Ionization: ESI
Fragmentation mode: HCD
Collision energy: 45 % (nominal)
Resolution: 17500
Column name: XBridge C18 3.5um, 2.1x50mm, Waters
Retention time: 1.434 min
Base peak: 168.1132
Precursor m/z: 168.1131
Precursor type: [M+H]+
m/z	relative intensity	assigned
55.0542	2	C4H7+
70.065	4	C4H8N+
71.0603	64	C3H7N2+
98.06	126	C5H8NO+
109.076	8	C6H9N2+
123.0553	37	C6H7N2O+
150.1026	28	C8H12N3+
153.0892	7	C7H11N3O+
166.0977	6	C8H12N3O+
168.1132	999	C8H14N3O+
