Mass spectrum: Memantine; LC-ESI-QFT; MS2; CE: 150; R=35000; [M+H]+
Name: Memantine
Name: 3,5-dimethyladamantan-1-amine
Formula: C12H21N
Exact mass: 179.16740
SMILES: CC12CC3CC(C1)(CC(C3)(C2)N)C
InChI: InChI=1S/C12H21N/c1-10-3-9-4-11(2,6-10)8-12(13,5-9)7-10/h9H,3-8,13H2,1-2H3
Instrument: Q Exactive Plus Orbitrap Thermo Scientific
Instrument type: LC-ESI-QFT
Ms type: MS2
Ion mode: POSITIVE
Ionization: ESI
Fragmentation mode: HCD
Collision energy: 150 (nominal)
Resolution: 35000
Column name: XBridge C18 3.5um, 2.1x50mm, Waters
Retention time: 6.7 min
Base peak: 180.1746
Precursor m/z: 180.1747
Precursor type: [M+H]+
m/z	relative intensity	assigned
50.0151	8	C4H2+
51.023	13	C4H3+
53.0022	11	C3HO+
53.0386	40	C4H5+
53.9975	2	C2NO+
55.0543	59	C4H7+
62.0151	1	C5H2+
63.0229	13	C5H3+
65.0386	468	C5H5+
66.0464	2	C5H6+
67.0542	69	C5H7+
69.0699	8	C5H9+
77.0386	61	C6H5+
78.0464	4	C6H6+
79.0542	177	C6H7+
80.0621	2	C6H8+
81.0335	3	C5H5O+
81.0699	27	C6H9+
89.0385	2	C7H5+
91.0543	999	C7H7+
92.0621	31	C7H8+
93.0699	47	C7H9+
94.0414	1	C6H6O+
95.0492	122	C6H7O+
95.0856	15	C7H11+
103.0542	25	C8H7+
105.0448	66	C6H5N2+
105.07	165	C8H9+
106.0777	1	C8H10+
107.0856	82	C8H11+
109.0649	42	C7H9O+
117.0699	2	C9H9+
119.0605	36	C7H7N2+
119.0855	4	C9H11+
121.1012	2	C9H13+
