Mass spectrum: Fenthion-sulfoxide; LC-ESI-QFT; MS2; CE: 180; R=35000; [M+H]+
Name: Fenthion-sulfoxide
Name: Mesulfenos
Name: O,O-Dimethyl O-[3-methyl-4-(methylsulfinyl)phenyl] phosphorothioate
Formula: C10H15O4PS2
Exact mass: 294.01494
SMILES: CC1=C(C=CC(=C1)OP(=S)(OC)OC)S(=O)C
InChI: InChI=1S/C10H15O4PS2/c1-8-7-9(5-6-10(8)17(4)11)14-15(16,12-2)13-3/h5-7H,1-4H3
Instrument: Q Exactive Plus Orbitrap Thermo Scientific
Instrument type: LC-ESI-QFT
Ms type: MS2
Ion mode: POSITIVE
Ionization: ESI
Fragmentation mode: HCD
Collision energy: 180 (nominal)
Resolution: 35000
Column name: XBridge C18 3.5um, 2.1x50mm, Waters
Retention time: 7.4 min
Base peak: 295.0216
Precursor m/z: 295.0222
Precursor type: [M+H]+
m/z	relative intensity	assigned
50.0152	307	C4H2+
51.023	598	C4H3+
52.0308	83	C4H4+
53.0023	46	C3HO+
53.0386	216	C4H5+
53.9975	6	C2NO+
55.0179	16	C3H3O+
57.9872	89	C2H2S+
58.995	29	C2H3S+
59.9665	125	COS+
61.0073	20	C5H+
62.0151	72	C5H2+
62.0185	22	C2H6S+
62.9453	207	PS+
62.9631	22	O2P+
62.9995	131	CH4OP+
63.023	343	C5H3+
63.9436	23	S2+
64.0307	16	C5H4+
65.0386	999	C5H5+
66.0465	461	C5H6+
67.0544	6	C5H7+
68.9794	683	C3HS+
69.9872	38	C3H2S+
70.9951	96	C3H3S+
75.0229	23	C6H3+
76.0307	31	C6H4+
77.0386	235	C6H5+
78.0464	391	C6H6+
78.9944	313	CH4O2P+
79.0542	56	C6H7+
79.9481	6	HOPS+
81.0101	15	CH6O2P+
81.0336	24	C5H5O+
81.9872	111	C4H2S+
82.9951	16	C4H3S+
84.0029	64	C4H4S+
89.0387	195	C7H5+
90.0465	19	C7H6+
91.0543	290	C7H7+
92.9795	34	C5HS+
93.0102	24	C2H6O2P+
94.0414	43	C6H6O+
94.9951	70	C5H3S+
95.0492	484	C6H7O+
96.0029	16	C5H4S+
97.0108	278	C5H5S+
98.9843	47	H4O4P+
100.9515	9	C3HS2+
102.0466	4	C8H6+
103.0544	25	C8H7+
105.0448	307	C6H5N2+
107.0047	16	C6H4P+
107.0493	18	C7H7O+
108.0029	142	C6H4S+
109.0108	241	C6H5S+
110.0186	61	C6H6S+
115.0547	4	C9H7+
120.003	8	C7H4S+
121.0108	519	C7H5S+
122.0187	17	C7H6S+
123.0266	4	C7H7S+
127.0155	5	C2H8O4P+
134.0185	29	C8H6S+
135.0264	14	C8H7S+
137.0059	24	C7H5OS+
138.9764	4	C6H4PS+
152.9829	94	C7H5S2+
