Mass spectrum: Paichongding; LC-ESI-QFT; MS2; CE: 30%; R=17500; [M+H]+
Name: Paichongding
Name: 1-[(6-chloropyridin-3-yl)methyl]-7-methyl-8-nitro-5-propoxy-3,5,6,7-tetrahydro-2H-imidazo[1,2-a]pyridine
Formula: C17H23ClN4O3
Exact mass: 366.1459
SMILES: CCCOC1CC(C(=C2N1CCN2CC3=CN=C(C=C3)Cl)[N+](=O)[O-])C
InChI: InChI=1S/C17H23ClN4O3/c1-3-8-25-15-9-12(2)16(22(23)24)17-20(6-7-21(15)17)11-13-4-5-14(18)19-10-13/h4-5,10,12,15H,3,6-9,11H2,1-2H3
Instrument: Exploris 240 Orbitrap Thermo Scientific
Instrument type: LC-ESI-QFT
Ms type: MS2
Ion mode: POSITIVE
Ionization: ESI
Fragmentation mode: HCD
Collision energy: 30 % (nominal)
Resolution: 17500
Column name: XBridge C18 3.5um, 2.1x50mm, Waters
Retention time: 5.460 min
Base peak: 367.1531
Precursor m/z: 367.1531
Precursor type: [M+H]+
m/z	relative intensity	assigned
71.0492	32	C4H7O+
113.096	27	C7H13O+
137.1073	564	C8H13N2+
150.1027	10	C8H12N3+
206.0477	22	C13H6N2O+
209.0717	17	C10H12ClN3+
226.155	17	C11H20N3O2+
235.088	8	C12H14ClN3+
236.0592	22	C11H11ClN3O+
251.1185	69	C13H18ClN3+
263.1184	999	C14H18ClN3+
278.1052	87	C17H14N2O2+
279.1129	39	C17H15N2O2+
306.1367	735	C16H21ClN3O+
320.1524	165	C17H23ClN3O+
321.1603	233	C17H24ClN3O+
333.1465	24	C17H22ClN4O+
350.1507	47	C17H23ClN4O2+
367.1535	41	C17H24ClN4O3+
