Mass spectrum: Clenbuterol; LC-ESI-QFT; MS2; CE: 75; R=35000; [M+H]+
Name: Clenbuterol
Name: 1-(4-amino-3,5-dichlorophenyl)-2-(tert-butylamino)ethanol
Formula: C12H18Cl2N2O
Exact mass: 276.07962
SMILES: CC(C)(C)NCC(C1=CC(=C(C(=C1)Cl)N)Cl)O
InChI: InChI=1S/C12H18Cl2N2O/c1-12(2,3)16-6-10(17)7-4-8(13)11(15)9(14)5-7/h4-5,10,16-17H,6,15H2,1-3H3
Instrument: Q Exactive Plus Orbitrap Thermo Scientific
Instrument type: LC-ESI-QFT
Ms type: MS2
Ion mode: POSITIVE
Ionization: ESI
Fragmentation mode: HCD
Collision energy: 75 (nominal)
Resolution: 35000
Column name: XBridge C18 3.5um, 2.1x50mm, Waters
Retention time: 4.6 min
Base peak: 277.0862
Precursor m/z: 277.0869
Precursor type: [M+H]+
m/z	relative intensity	assigned
53.0022	1	C3HO+
57.0698	172	C4H9+
60.0443	2	C2H6NO+
77.0385	1	C6H5+
93.0573	2	C6H7N+
104.0494	34	C7H6N+
105.0572	12	C7H7N+
106.0651	10	C7H8N+
113.015	3	C6H6Cl+
116.0492	1	C8H6N+
127.0182	1	C6H6ClN+
131.0603	193	C8H7N2+
132.0681	999	C8H8N2+
133.0759	78	C8H9N2+
134.0597	3	C8H8NO+
140.026	158	C7H7ClN+
141.0338	19	C7H8ClN+
150.0104	2	C8H5ClN+
151.0183	105	C8H6ClN+
152.0261	18	C8H7ClN+
153.0213	9	C7H6ClN2+
158.976	2	C7H5Cl2+
160.9791	5	C9H2ClO+
167.037	301	C8H8ClN2+
168.0447	913	C11H6NO+
169.0287	2	C8H8ClNO+
173.9872	13	C10H3ClO+
176.0029	2	C7H8Cl2N+
185.987	13	C8H6Cl2N+
189.9816	5	C7H6Cl2NO+
190.9896	8	C7H7Cl2NO+
203.0137	16	C8H9Cl2N2+
