Mass spectrum: Paclobutrazole; LC-ESI-QFT; MS2; CE: 75; R=35000; [M+H]+
Name: Paclobutrazole
Name: Paclobutrazol
Name: 1-(4-chlorophenyl)-4,4-dimethyl-2-(1,2,4-triazol-1-yl)pentan-3-ol
Formula: C15H20ClN3O
Exact mass: 293.12949
SMILES: CC(C)(C)C(C(CC1=CC=C(C=C1)Cl)N2C=NC=N2)O
InChI: InChI=1S/C15H20ClN3O/c1-15(2,3)14(20)13(19-10-17-9-18-19)8-11-4-6-12(16)7-5-11/h4-7,9-10,13-14,20H,8H2,1-3H3
Instrument: Q Exactive Plus Orbitrap Thermo Scientific
Instrument type: LC-ESI-QFT
Ms type: MS2
Ion mode: POSITIVE
Ionization: ESI
Fragmentation mode: HCD
Collision energy: 75 (nominal)
Resolution: 35000
Column name: XBridge C18 3.5um, 2.1x50mm, Waters
Retention time: 10.6 min
Base peak: 294.1362
Precursor m/z: 294.1368
Precursor type: [M+H]+
m/z	relative intensity	assigned
53.0022	1	C3HO+
55.0543	2	C4H7+
57.0699	17	C4H9+
59.0492	9	C3H7O+
69.0699	25	C5H9+
70.04	999	C2H4N3+
71.0855	1	C5H11+
77.0385	1	C6H5+
87.0805	7	C5H11O+
89.0386	7	C7H5+
90.0465	1	C7H6+
91.0543	4	C7H7+
95.0491	3	C6H7O+
98.9997	2	C5H4Cl+
102.0464	3	C8H6+
103.0542	19	C8H7+
105.0449	1	C6H5N2+
113.0153	3	C6H6Cl+
115.0543	2	C9H7+
116.0621	3	C9H8+
125.0153	162	C7H6Cl+
128.0621	1	C10H8+
129.0699	6	C10H9+
130.0778	14	C10H10+
137.0154	6	C8H6Cl+
139.031	10	C8H8Cl+
141.0103	1	C7H6ClO+
151.031	2	C9H8Cl+
164.0707	1	C6H13ClN2O+
165.0467	7	C10H10Cl+
