Mass spectrum: Tributylphosphine oxide; LC-ESI-QFT; MS2; CE: 90; R=35000; [M+H]+
Name: Tributylphosphine oxide
Name: Tri-n-butylphosphine oxide
Formula: C12H27OP
Exact mass: 218.17995
SMILES: CCCCP(=O)(CCCC)CCCC
InChI: InChI=1S/C12H27OP/c1-4-7-10-14(13,11-8-5-2)12-9-6-3/h4-12H2,1-3H3
Instrument: Q Exactive Plus Orbitrap Thermo Scientific
Instrument type: LC-ESI-QFT
Ms type: MS2
Ion mode: POSITIVE
Ionization: ESI
Fragmentation mode: HCD
Collision energy: 90 (nominal)
Resolution: 35000
Column name: XBridge C18 3.5um, 2.1x50mm, Waters
Retention time: 11.0 min
Base peak: 219.1869
Precursor m/z: 219.1872
Precursor type: [M+H]+
m/z	relative intensity	assigned
50.9994	2	H4OP+
53.0022	11	C3HO+
53.9974	2	C2NO+
55.0543	37	C4H7+
56.9889	11	C2H2P+
57.0699	88	C4H9+
59.0045	22	C2H4P+
61.0202	79	C2H6P+
62.9994	324	CH4OP+
64.0073	125	CH5OP+
64.9786	4	H2O2P+
65.015	4	CH6OP+
67.9893	3	C3O2+
69.0698	2	C5H9+
73.02	4	C3H6P+
75.0358	6	C3H8P+
77.0151	69	C2H6OP+
78.0229	999	C2H7OP+
78.9943	15	CH4O2P+
79.0307	5	C2H8OP+
81.0098	1	CH6O2P+
87.0358	9	C4H8P+
89.0515	32	C4H10P+
91.0308	37	C3H8OP+
92.0386	635	C3H9OP+
93.01	74	C2H6O2P+
95.0257	111	C2H8O2P+
103.0671	13	C5H12P+
105.0464	59	C4H10OP+
106.0542	10	C4H11OP+
107.062	80	C4H12OP+
109.0412	1	C3H10O2P+
119.0621	17	C5H12OP+
120.0699	5	C5H13OP+
121.0413	1	C4H10O2P+
121.0777	4	C5H14OP+
133.0777	81	C6H14OP+
135.057	6	C5H12O2P+
135.0933	15	C6H16OP+
147.0933	91	C7H16OP+
161.109	41	C8H18OP+
163.1247	138	C8H20OP+
175.1247	47	C9H20OP+
177.1403	7	C9H22OP+
189.1402	2	C10H22OP+
191.1559	21	C10H24OP+
219.1874	107	C12H28OP+
