Mass spectrum: Oseltamivir carboxylate; LC-ESI-ITFT; MS2; CE: 60%; R=15000; [M+H]+
Name: Oseltamivir carboxylate
Name: (3R,4R,5S)-4-acetamido-5-amino-3-pentan-3-yloxycyclohexene-1-carboxylic acid
Formula: C14H24N2O4
Exact mass: 284.1736
SMILES: CCC(CC)O[C@@H]1C=C(C[C@@H]([C@H]1NC(=O)C)N)C(=O)O
InChI: InChI=1S/C14H24N2O4/c1-4-10(5-2)20-12-7-9(14(18)19)6-11(15)13(12)16-8(3)17/h7,10-13H,4-6,15H2,1-3H3,(H,16,17)(H,18,19)/t11-,12+,13+/m0/s1
Instrument: LTQ Orbitrap XL Thermo Scientific
Instrument type: LC-ESI-ITFT
Ms type: MS2
Ion mode: POSITIVE
Ionization: ESI
Fragmentation mode: HCD
Collision energy: 60 % (nominal)
Resolution: 15000
Column name: XBridge C18 3.5um, 2.1x50mm, Waters
Retention time: 5.1 min
Base peak: 285.1822
Precursor m/z: 285.1809
Precursor type: [M+H]+
m/z	relative intensity	assigned
60.0444	29	C2H6NO+
65.0386	42	C5H5+
67.0543	83	C5H7+
68.0495	19	C4H6N+
77.0385	16	C6H5+
80.0495	4	C5H6N+
82.0652	12	C5H8N+
83.0492	19	C5H7O+
92.0495	54	C6H6N+
93.0335	93	C6H5O+
93.0574	9	C6H7N+
94.0652	867	C6H8N+
95.0492	28	C6H7O+
108.0448	5	C6H6NO+
109.0761	77	C6H9N2+
110.0601	62	C6H8NO+
111.0442	31	C6H7O2+
112.0392	3	C5H6NO2+
119.0604	18	C7H7N2+
120.0445	641	C7H6NO+
121.0284	14	C7H5O2+
133.0762	14	C8H9N2+
134.0602	14	C8H8NO+
136.0759	18	C8H10NO+
137.071	339	C7H9N2O+
138.0551	999	C7H8NO2+
139.0391	9	C7H7O3+
151.0872	6	C8H11N2O+
155.0816	14	C7H11N2O2+
156.0656	35	C7H10NO3+
161.0708	23	C9H9N2O+
162.055	80	C9H8NO2+
179.0822	3	C9H11N2O2+
180.0656	37	C9H10NO3+
198.0761	39	C9H12NO4+
