Mass spectrum: Candesartan; LC-ESI-ITFT; MS2; CE: 15%; R=7500; [M+H]+
Name: Candesartan
Name: 2-ethoxy-3-[4-[2-(2H-tetrazol-5-yl)phenyl]benzyl]benzimidazole-4-carboxylic acid
Formula: C24H20N6O3
Exact mass: 440.1597
SMILES: c1(ccccc1c1ccc(Cn2c(nc3c2c(C(=O)O)ccc3)OCC)cc1)c1nnn[nH]1
InChI: InChI=1S/C24H20N6O3/c1-2-33-24-25-20-9-5-8-19(23(31)32)21(20)30(24)14-15-10-12-16(13-11-15)17-6-3-4-7-18(17)22-26-28-29-27-22/h3-13H,2,14H2,1H3,(H,31,32)(H,26,27,28,29)
Instrument: LTQ Orbitrap XL Thermo Scientific
Instrument type: LC-ESI-ITFT
Ms type: MS2
Ion mode: POSITIVE
Ionization: ESI
Fragmentation mode: HCD
Collision energy: 15 % (nominal)
Resolution: 7500
Column name: XBridge C18 3.5um, 2.1x50mm, Waters
Retention time: 9.3 min
Base peak: 441.1683
Precursor m/z: 441.167
Precursor type: [M+H]+
m/z	relative intensity	assigned
189.0653	3	C10H9N2O2+
192.0813	21	C14H10N+
194.0962	8	C14H12N+
206.1093	3	C16H14+
207.0917	35	C14H11N2+
208.1129	11	C15H14N+
210.0909	7	C14H12NO+
218.0973	4	C16H12N+
235.0976	27	C14H11N4+
235.1232	51	C16H15N2+
263.1295	999	C18H17NO+
338.1051	13	C22H14N2O2+
395.1502	12	C24H19N4O2+
423.157	408	C24H19N6O2+
441.1672	123	C24H21N6O3+
