Mass spectrum: N4-Acetylsulfamethazine; LC-ESI-ITFT; MS2; CE: 35%; R=7500; [M+H]+
Name: N4-Acetylsulfamethazine
Name: N-[4-[(4,6-dimethyl-2-pyrimidinyl)sulfamoyl]phenyl]acetamide
Formula: C14H16N4O3S
Exact mass: 320.0943
SMILES: O=S(=O)(c1ccc(cc1)NC(=O)C)Nc1nc(cc(n1)C)C
InChI: InChI=1S/C14H16N4O3S/c1-9-8-10(2)16-14(15-9)18-22(20,21)13-6-4-12(5-7-13)17-11(3)19/h4-8H,1-3H3,(H,17,19)(H,15,16,18)
Instrument: LTQ Orbitrap XL Thermo Scientific
Instrument type: LC-ESI-ITFT
Ms type: MS2
Ion mode: POSITIVE
Ionization: ESI
Fragmentation mode: CID
Collision energy: 35 % (nominal)
Resolution: 7500
Column name: XBridge C18 3.5um, 2.1x50mm, Waters
Retention time: 4.5 min
Base peak: 321.1027
Precursor m/z: 321.1016
Precursor type: [M+H]+
m/z	relative intensity	assigned
95.0603	8	C5H7N2+
107.0603	6	C6H7N2+
108.0445	38	C6H6NO+
116.0577	1	C4H8N2O2+
118.0652	94	C8H8N+
122.0713	23	C6H8N3+
124.0869	68	C6H10N3+
134.06	56	C8H8NO+
136.0758	45	C8H10NO+
150.0547	7	C8H8NO2+
156.0112	5	C6H6NO2S+
162.0662	5	C8H8N3O+
186.0334	999	C6H8N3O2S+
198.022	271	C8H8NO3S+
204.0438	163	C6H10N3O3S+
241.1451	9	C14H17N4+
255.1239	142	C14H15N4O+
279.0906	13	C12H15N4O2S+
303.0912	25	C14H15N4O2S+
