Mass spectrum: MCLA; LC-ESI-QFT; MS2; CE: 45%; R=17500; [M+H]+
Name: MCLA
Name: Microcystin LA
Name: (5R,8S,11R,12S,15S,18S,19S,22R)-18-[(1E,3E,5S,6S)-6-methoxy-3,5-dimethyl-7-phenylhepta-1,3-dienyl]-1,5,12,15,19-pentamethyl-2-methylidene-8-(2-methylpropyl)-3,6,9,13,16,20,25-heptaoxo-1,4,7,10,14,17,21-heptazacyclopentacosane-11,22-dicarboxylic acid
Class: NA
Formula: C46H67N7O12
Exact mass: 909.4848
SMILES: CO[C@@H](Cc1ccccc1)[C@@H](C)\C=C(C)\C=C\[C@@H]2NC(=O)[C@H](C)NC(=O)[C@@H](C)[C@@H](NC(=O)[C@H](CC(C)C)NC(=O)[C@@H](C)NC(=O)C(=C)N(C)C(=O)CC[C@@H](NC(=O)[C@H]2C)C(O)=O)C(O)=O
InChI: InChI=1S/C46H67N7O12/c1-24(2)21-35-44(60)52-38(46(63)64)28(6)40(56)47-29(7)41(57)49-33(18-17-25(3)22-26(4)36(65-11)23-32-15-13-12-14-16-32)27(5)39(55)50-34(45(61)62)19-20-37(54)53(10)31(9)43(59)48-30(8)42(58)51-35/h12-18,22,24,26-30,33-36,38H,9,19-21,23H2,1-8,10-11H3,(H,47,56)(H,48,59)(H,49,57)(H,50,55)(H,51,58)(H,52,60)(H,61,62)(H,63,64)/b18-17+,25-22+/t26-,27-,28-,29-,30+,33-,34+,35-,36-,38+/m0/s1
Instrument: Q Exactive Plus Orbitrap Thermo Scientific
Instrument type: LC-ESI-QFT
Ms type: MS2
Ion mode: POSITIVE
Ionization: ESI
Fragmentation mode: HCD
Collision energy: 45 % (nominal)
Resolution: 17500
Column name: XBridge C18 3.5um, 2.1x50mm, Waters
Retention time: 10.516 min
Base peak: 164.9846
Precursor m/z: 910.492
Precursor type: [M+H]+
m/z	relative intensity	assigned
65.0387	12	C5H5+
69.0335	37	C4H5O+
69.0698	10	C5H9+
77.0383	10	C6H5+
79.0541	77	C6H7+
82.0651	41	C5H8N+
84.0444	152	C4H6NO+
84.0807	11	C5H10N+
86.0964	779	C5H12N+
89.0709	23	C3H9N2O+
91.0543	245	C7H7+
93.0699	138	C7H9+
94.0651	13	C6H8N+
95.0492	29	C6H7O+
95.0856	28	C7H11+
96.0808	9	C6H10N+
99.0915	35	C5H11N2+
102.0549	29	C4H8NO2+
103.0542	191	C8H7+
105.0699	259	C8H9+
107.0855	999	C8H11+
108.0806	7	C7H10N+
109.0649	19	C7H9O+
110.0601	36	C6H8NO+
112.0756	12	C6H10NO+
112.112	15	C7H14N+
115.0542	25	C9H7+
117.0699	100	C9H9+
119.0603	10	C7H7N2+
119.0854	40	C9H11+
121.0648	10	C8H9O+
121.1014	21	C9H13+
122.0963	19	C8H12N+
124.0758	49	C7H10NO+
124.1122	79	C8H14N+
127.0866	763	C6H11N2O+
128.062	12	C10H8+
128.0705	37	C6H10NO2+
129.0699	25	C10H9+
130.05	47	C5H8NO3+
131.0855	82	C10H11+
133.101	46	C10H13+
135.0804	988	C9H11O+
135.1167	736	C10H15+
136.0755	11	C8H10NO+
138.0549	173	C7H8NO2+
139.0872	9	C7H11N2O+
140.0706	21	C7H10NO2+
141.1016	5	C7H13N2O+
143.0857	57	C11H11+
145.1012	65	C11H13+
146.0963	32	C10H12N+
149.0708	41	C8H9N2O+
152.0705	24	C8H10NO2+
152.1071	6	C9H14NO+
155.0815	525	C7H11N2O2+
156.0658	35	C7H10NO3+
157.1011	13	C12H13+
157.1334	79	C8H17N2O+
159.117	37	C12H15+
161.0958	39	C11H13O+
162.1274	43	C11H16N+
163.1117	480	C11H15O+
167.0816	209	C8H11N2O2+
168.0656	17	C8H10NO3+
169.0998	14	C13H13+
171.0802	13	C12H11O+
171.1174	24	C13H15+
173.0922	328	C7H13N2O3+
180.1388	6	C11H18NO+
181.101	36	C14H13+
181.1335	22	C10H17N2O+
183.0771	9	C8H11N2O3+
183.1494	10	C10H19N2O+
185.1289	14	C9H17N2O2+
187.112	18	C13H15O+
188.1071	15	C12H14NO+
188.1434	23	C13H18N+
190.1228	18	C12H16NO+
193.099	15	H19NO10+
194.1651	11	C11H20N3+
195.0767	190	C9H11N2O3+
195.1168	41	C15H15+
196.0604	33	C9H10NO4+
197.129	20	C10H17N2O2+
200.1032	13	C8H14N3O3+
201.0872	165	C8H13N2O4+
209.1308	72	CH23NO10+
211.0713	16	C9H11N2O4+
213.0873	692	C9H13N2O4+
218.1144	28	C9H12N7+
218.1543	80	H22N6O7+
222.1606	11	C12H20N3O+
225.1238	7	C11H17N2O3+
226.1594	92	C2H22N6O6+
232.0973	5	C13H14NO3+
237.1244	17	H21N4O10+
237.1637	73	C18H21+
239.0672	77	C11H7N6O+
243.1339	60	C11H19N2O4+
246.1492	72	CH22N6O8+
258.1854	17	C17H24NO+
259.1807	14	C16H23N2O+
265.1595	22	C5H23N5O7+
268.1652	21	C13H22N3O3+
269.113	11	C12H17N2O5+
282.1859	14	C5H26N6O7+
319.2025	16	C4H29N7O9+
329.1861	15	C19H25N2O3+
347.1976	17	C20H23N6+
375.1903	24	C18H25N5O4+
384.2275	13	C22H30N3O3+
