Mass spectrum: Sulfentrazon; LC-ESI-QFT; MS2; CE: 75; R=35000; [M+H]+
Name: Sulfentrazon
Name: N-(2,4-dichloro-5-(4-(difluoromethyl)-4,5-dihydro-3-methyl-5-oxo-1H-1,2,4-triazol-1-yl)phenyl)methanesulfonamide
Name: N-[2,4-dichloro-5-[4-(difluoromethyl)-3-methyl-5-oxo-1,2,4-triazol-1-yl]phenyl]methanesulfonamide
Formula: C11H10Cl2F2N4O3S
Exact mass: 385.98187
SMILES: O=S(=O)(Nc2c(Cl)cc(Cl)c(N1/N=C(\N(C1=O)C(F)F)C)c2)C
InChI: InChI=1S/C11H10Cl2F2N4O3S/c1-5-16-19(11(20)18(5)10(14)15)9-4-8(17-23(2,21)22)6(12)3-7(9)13/h3-4,10,17H,1-2H3
Instrument: Q Exactive Plus Orbitrap Thermo Scientific
Instrument type: LC-ESI-QFT
Ms type: MS2
Ion mode: POSITIVE
Ionization: ESI
Fragmentation mode: HCD
Collision energy: 75 (nominal)
Resolution: 35000
Column name: XBridge C18 3.5um, 2.1x50mm, Waters
Retention time: 7.4 min
Base peak: 386.989
Precursor m/z: 386.9891
Precursor type: [M+H]+
m/z	relative intensity	assigned
51.004	1	CHF2+
52.0181	3	C3H2N+
61.9792	76	CHClN+
62.9632	4	CClO+
64.0181	6	C4H2N+
66.9746	2	CHClF+
67.029	6	C3H3N2+
68.0131	12	C3H2NO+
72.9839	30	C3H2Cl+
73.0196	5	C2H2FN2+
73.0322	2	C3H4FN+
74.0036	69	C2HFNO+
75.0102	9	FN4+
76.0181	33	FHN4+
78.9848	3	CH3O2S+
82.0287	2	C4H4NO+
82.945	14	CHCl2+
83.0239	1	C3H3N2O+
83.976	2	C4HCl+
84.9839	60	C4H2Cl+
85.9792	13	C3HClN+
86.9632	4	C3ClO+
86.9871	4	C3H2ClN+
87.9948	5	C3H3ClN+
88.9789	3	C3H2ClO+
89.0509	2	C3H6FN2+
90.0105	3	C3H5ClN+
91.0291	3	C5H3N2+
92.0131	16	C5H2NO+
92.0306	74	C3H4F2N+
97.9792	21	C4HClN+
99.0427	41	C3H5N3O+
99.9948	25	C4H3ClN+
101.0134	115	C6HN2+
101.9741	1	C3HClNO+
102.0105	11	C4H5ClN+
103.0291	30	C6H3N2+
105.0447	3	C6H5N2+
106.945	8	C3HCl2+
109.9792	613	C5HClN+
110.987	4	C5H2ClN+
111.9948	93	C5H3ClN+
112.9902	4	C4H2ClN2+
113.9741	3	C4HClNO+
114.9818	2	C4H2ClNO+
115.0058	2	C4H4ClN2+
115.9897	4	C4H3ClNO+
117.0082	1	C6HN2O+
117.0573	6	C8H7N+
118.0053	2	C4H5ClNO+
118.0166	2	C3H5ClN3+
118.0399	1	C6H4N3+
118.9449	9	C4HCl2+
119.024	19	C6H3N2O+
120.9606	2	C4H3Cl2+
121.0396	14	C6H5N2O+
122.9996	1	C7H4Cl+
123.9949	5	C6H3ClN+
124.9902	2	C5H2ClN2+
125.0028	2	C6H4ClN+
125.015	1	C2H5ClFN3+
125.9979	2	C5H3ClN2+
126.0103	1	CH4ClFN4+
127.0057	15	C5H4ClN2+
127.9898	135	C5H3ClNO+
128.9975	2	ClFH3N4O+
130.0054	31	C5H5ClNO+
130.9449	2	C5HCl2+
132.9482	3	C4HCl2N+
132.9607	2	C5H3Cl2+
133.9558	14	C4H2Cl2N+
135.9717	4	C4H4Cl2N+
136.9901	363	C6H2ClN2+
137.9979	32	C6H3ClN2+
139.0057	642	C6H4ClN2+
139.9895	2	CH2ClFN4O+
140.0134	11	C6H5ClN2+
142.0055	2	C6H5ClNO+
143.0009	2	C5H4ClN2O+
143.0479	4	C8H5N3+
143.9405	1	C5Cl2N+
144.0214	2	CH4F2N3O3+
144.0556	5	C8H6N3+
145.0165	3	C5H6ClN2O+
145.9559	667	C5H2Cl2N+
146.0003	135	C5H5ClNO2+
146.9637	39	C5H3Cl2N+
147.9715	53	C5H4Cl2N+
149.0395	17	C4H5F2N3O+
149.9509	3	C4H2Cl2NO+
151.0059	5	C7H4ClN2+
151.0182	7	C8H6ClN+
152.0136	5	C7H5ClN2+
152.0262	11	C8H7ClN+
152.9848	5	C6H2ClN2O+
153.0088	7	C6H4ClN3+
153.0213	7	C7H6ClN2+
153.993	7	C6H3ClN2O+
154.0166	33	C6H5ClN3+
155.0006	510	C6H4ClN2O+
156.9622	1	C5H2ClN2S+
156.9962	2	C6H3ClFN2+
157.9559	269	C6H2Cl2N+
158.9511	2	C5HCl2N2+
158.9634	5	CH2Cl2FN4+
159.0664	1	C8H7N4+
160.0508	1	C8H6N3O+
160.0632	1	C9H8N2O+
160.9669	4	C5H3Cl2N2+
160.9794	3	C6H5Cl2N+
161.9508	3	C5H2Cl2NO+
162.9588	3	C5H3Cl2NO+
163.9664	999	C5H4Cl2NO+
164.9743	1	C5H5Cl2NO+
164.9849	17	C7H2ClN2O+
167.0008	2	C7H4ClN2O+
170.9511	52	C6HCl2N2+
170.9956	2	C6H4ClN2O2+
171.9589	11	C6H2Cl2N2+
172.9668	190	C6H3Cl2N2+
173.9508	54	C6H2Cl2NO+
173.9746	100	C6H4Cl2N2+
174.9825	6	C6H5Cl2N2+
175.9664	16	C6H4Cl2NO+
176.0254	3	C8H3FN3O+
177.0088	2	C8H4ClN3+
178.0166	37	C8H5ClN3+
178.9535	6	C5H3Cl2NO2+
179.0247	2	C8H6ClN3+
179.9957	8	C7H3ClN3O+
180.0323	26	C8H7ClN3+
180.9621	2	C7H2ClN2S+
181.0037	40	C7H4ClN3O+
181.0401	27	C8H8ClN3+
182.0115	752	C7H5ClN3O+
182.9996	3	CH11Cl2N3OS+
184.9912	10	C7H3ClFN2O+
186.9824	98	C7H5Cl2N2+
187.0614	7	C9H7N4O+
187.9779	4	C6H4Cl2N3+
188.0693	12	C9H8N4O+
188.9616	30	C6H3Cl2N2O+
190.9572	2	C6H2Cl2FN2+
190.9773	9	C6H5Cl2N2O+
191.9613	2	C6H4Cl2NO2+
194.0117	1	C11H2N2O2+
197.962	3	C7H2Cl2N3+
198.9461	143	C7HCl2N2O+
200.9616	13	C7H3Cl2N2O+
206.0117	2	C9H5ClN3O+
207.0197	2	C9H6ClN3O+
209.0225	7	C8H6ClN4O+
212.0023	30	C8H4ClFN3O+
213.01	4	C8H5ClFN3O+
213.9932	5	C6F2N4O3+
215.0011	2	C6HF2N4O3+
215.9728	1	C7H4Cl2N3O+
216.9566	2	C7H3Cl2N2O2+
217.9684	4	C7H3Cl2FN3+
218.9524	34	C7H2Cl2FN2O+
221.0226	10	C9H6ClN4O+
222.0304	15	C9H7ClN4O+
223.0382	110	C9H8ClN4O+
232.0084	237	C8H5ClF2N3O+
237.0585	1	C10H7F2N4O+
241.988	1	C9H6Cl2N3O+
245.9631	12	C8HClF2N2O3+
246.0237	3	C9H7ClF2N3O+
246.9713	5	C8H4Cl2FN3O+
256.9986	8	C9H7Cl2N4O+
259.019	2	C6H11ClFN3O3S+
272.0271	14	C10H7ClF2N4O+
273.0349	63	C10H8ClF2N4O+
274.0427	3	C10H9ClF2N4O+
279.9849	1	C9H6Cl2F2N3O+
