Mass spectrum: Rimsulfuron; LC-ESI-ITFT; MS2; CE: 35%; R=7500; [M-H]-
Name: Rimsulfuron
Name: 1-(4,6-dimethoxy-2-pyrimidinyl)-3-[(3-ethylsulfonyl-2-pyridinyl)sulfonyl]urea
Formula: C14H17N5O7S2
Exact mass: 431.0569
SMILES: CCS(=O)(=O)c1cccnc1S(=O)(=O)NC(=O)Nc1nc(OC)cc(OC)n1
InChI: InChI=1S/C14H17N5O7S2/c1-4-27(21,22)9-6-5-7-15-12(9)28(23,24)19-14(20)18-13-16-10(25-2)8-11(17-13)26-3/h5-8H,4H2,1-3H3,(H2,16,17,18,19,20)
Instrument: LTQ Orbitrap XL Thermo Scientific
Instrument type: LC-ESI-ITFT
Ms type: MS2
Ion mode: NEGATIVE
Ionization: ESI
Fragmentation mode: CID
Collision energy: 35 % (nominal)
Resolution: 7500
Column name: XBridge C18 3.5um, 2.1x50mm, Waters
Retention time: 7.9 min
Base peak: 430.0488
Precursor m/z: 430.0497
Precursor type: [M-H]-
m/z	relative intensity	assigned
157.0081	7	C5H5N2O2S-
157.992	54	C5H4NO3S-
164.0342	41	C6H4N4O2-
179.0577	999	C7H7N4O2-
185.0393	7	C7H9N2O2S-
186.0232	525	C7H8NO3S-
231.975	5	C7H6NO4S2-
249.0013	44	C7H9N2O4S2-
274.9806	137	C8H7N2O5S2-
323.0821	66	C13H15N4O4S-
