Mass spectrum: Dihydrocodeine; LC-ESI-QFT; MS2; CE: 45; R=35000; [M+H]+
Name: Dihydrocodeine
Name: (4R,4aR,7S,7aR,12bS)-9-methoxy-3-methyl-2,4,4a,5,6,7,7a,13-octahydro-1H-4,12-methanobenzofuro[3,2-e]isoquinoline-7-ol
Formula: C18H23NO3
Exact mass: 301.16779
SMILES: CN1CC[C@]23[C@@H]4[C@H]1CC5=C2C(=C(C=C5)OC)O[C@H]3[C@H](CC4)O
InChI: InChI=1S/C18H23NO3/c1-19-8-7-18-11-4-5-13(20)17(18)22-16-14(21-2)6-3-10(15(16)18)9-12(11)19/h3,6,11-13,17,20H,4-5,7-9H2,1-2H3/t11-,12+,13-,17-,18-/m0/s1
Instrument: Q Exactive Orbitrap Thermo Scientific
Instrument type: LC-ESI-QFT
Ms type: MS2
Ion mode: POSITIVE
Ionization: ESI
Fragmentation mode: HCD
Collision energy: 45 (nominal)
Resolution: 35000
Column name: XBridge C18 3.5um, 2.1x50mm, Waters
Retention time: 2.6 min
Base peak: 302.1753
Precursor m/z: 302.1751
Precursor type: [M+H]+
m/z	relative intensity	assigned
58.0652	3	C3H8N+
67.0543	2	C5H7+
83.0493	1	C5H7O+
137.0598	12	C8H9O2+
143.0493	4	C10H7O+
151.0756	1	C9H11O2+
157.0649	5	C11H9O+
157.1012	2	C12H13+
158.0727	1	C11H10O+
161.0596	7	C10H9O2+
163.0754	7	C10H11O2+
165.0698	1	C13H9+
167.0856	7	C13H11+
169.0647	3	C12H9O+
171.0805	11	C12H11O+
173.0963	10	C12H13O+
175.0756	6	C11H11O2+
177.0911	3	C11H13O2+
179.0705	2	C10H11O3+
181.0649	5	C13H9O+
183.0806	27	C13H11O+
184.0885	2	C13H12O+
185.06	2	C12H9O2+
185.0962	18	C13H13O+
186.0678	3	C12H10O2+
187.0753	10	C12H11O2+
189.0912	28	C12H13O2+
192.1022	2	C11H14NO2+
193.0647	2	C14H9O+
194.0725	1	C14H10O+
195.0805	51	C14H11O+
196.0884	5	C14H12O+
197.0961	4	C14H13O+
198.0677	1	C13H10O2+
199.0754	150	C13H11O2+
199.1117	21	C14H15O+
201.091	138	C13H13O2+
203.1065	3	C13H15O2+
209.0963	7	C15H13O+
211.0755	10	C14H11O2+
212.0828	3	C14H12O2+
213.0911	33	C14H13O2+
215.1069	6	C14H15O2+
217.1105	1	C13H15NO2+
217.1225	33	C14H17O2+
221.0964	4	C16H13O+
225.0911	11	C15H13O2+
227.1068	112	C15H15O2+
229.0863	1	C14H13O3+
241.1225	5	C16H17O2+
243.1018	49	C15H15O3+
245.1174	153	C15H17O3+
253.1228	7	C17H17O2+
256.1095	1	C16H16O3+
269.1413	6	C17H19NO2+
271.1328	2	C17H19O3+
274.1435	3	C16H20NO3+
284.1647	16	C18H22NO2+
287.1519	2	C17H21NO3+
302.1752	999	C18H24NO3+
