Mass spectrum: Nigericin; LC-ESI-QFT; MS2; CE: 90; R=35000; [M-H]-
Name: Nigericin
Name: 2-{6-[(2-{5`-[6-hydroxy-6-(hydroxymethyl)-3,5-dimethyltetrahydro-2h-pyran-2-yl]-2,3`-dimethyloctahydro-2,2`-bifuran-5-yl}-9-methoxy-2,4,10-trimethyl-1,6-dioxaspiro[4.5]dec-7-yl)methyl]-3-methyltetrahydro-2h-pyran-2-yl}propanoic acid
Name: 2-[6-[[2-[5-[5-[6-hydroxy-6-(hydroxymethyl)-3,5-dimethyloxan-2-yl]-3-methyloxolan-2-yl]-5-methyloxolan-2-yl]-7-methoxy-2,4,6-trimethyl-1,10-dioxaspiro[4.5]decan-9-yl]methyl]-3-methyloxan-2-yl]propanoic acid
Formula: C40H68O11
Exact mass: 724.47616
SMILES: CC1CCC(OC1C(C)C(=O)O)CC2CC(C(C3(O2)C(CC(O3)(C)C4CCC(O4)(C)C5C(CC(O5)C6C(CC(C(O6)(CO)O)C)C)C)C)C)OC
InChI: InChI=1S/C40H68O11/c1-21-11-12-28(46-33(21)26(6)36(42)43)17-29-18-30(45-10)27(7)40(48-29)25(5)19-38(9,51-40)32-13-14-37(8,49-32)35-23(3)16-31(47-35)34-22(2)15-24(4)39(44,20-41)50-34/h21-35,41,44H,11-20H2,1-10H3,(H,42,43)
Instrument: Q Exactive Plus Orbitrap Thermo Scientific
Instrument type: LC-ESI-QFT
Ms type: MS2
Ion mode: NEGATIVE
Ionization: ESI
Fragmentation mode: HCD
Collision energy: 90 (nominal)
Resolution: 35000
Column name: XBridge C18 3.5um, 2.1x50mm, Waters
Retention time: 19.7 min
Base peak: 115.9207
Precursor m/z: 723.4689
Precursor type: [M-H]-
m/z	relative intensity	assigned
55.0189	183	C3H3O-
57.0346	999	C3H5O-
58.006	178	C2H2O2-
59.0138	79	C2H3O2-
65.0398	11	C5H5-
67.0189	9	C4H3O-
69.0346	89	C4H5O-
71.0139	50	C3H3O2-
71.0503	161	C4H7O-
73.0296	95	C3H5O2-
80.0267	7	C5H4O-
81.0345	39	C5H5O-
83.0503	94	C5H7O-
85.0295	203	C4H5O2-
85.0659	30	C5H9O-
87.0451	305	C4H7O2-
93.0346	30	C6H5O-
93.0709	14	C7H9-
95.0502	132	C6H7O-
97.0659	76	C6H9O-
99.0452	68	C5H7O2-
99.0815	37	C6H11O-
101.0608	63	C5H9O2-
105.0709	7	C8H9-
107.0502	69	C7H7O-
109.0658	156	C7H9O-
111.0452	34	C6H7O2-
111.0815	144	C7H11O-
113.0608	10	C6H9O2-
120.058	8	C8H8O-
121.0659	115	C8H9O-
122.0373	10	C7H6O2-
123.045	9	C7H7O2-
123.0816	61	C8H11O-
125.0605	9	C7H9O2-
125.0972	13	C8H13O-
133.0657	11	C9H9O-
135.0815	85	C9H11O-
137.0606	34	C8H9O2-
137.0969	14	C9H13O-
141.0921	7	C8H13O2-
147.0815	11	C10H11O-
149.0971	12	C10H13O-
151.0766	10	C9H11O2-
