Mass spectrum: Chloridazon; LC-ESI-ITFT; MS2; CE: 35%; R=30000; [M+H]+
Name: Chloridazon
Name: 5-amino-4-chloro-2-phenyl-3-pyridazinone
Formula: C10H8ClN3O
Exact mass: 221.0350
SMILES: ClC(=C(N)C=N1)C(=O)N1-c(ccc2)cc2
InChI: InChI=1S/C10H8ClN3O/c11-9-8(12)6-13-14(10(9)15)7-4-2-1-3-5-7/h1-6H,12H2
Instrument: LTQ Orbitrap XL Thermo Scientific
Instrument type: LC-ESI-ITFT
Ms type: MS2
Ion mode: POSITIVE
Ionization: ESI
Fragmentation mode: CID
Collision energy: 35 % (nominal)
Resolution: 30000
Column name: XBridge C18 3.5um, 2.1x50mm, Waters
Retention time: 5.2 min
Base peak: 222.0432
Precursor m/z: 222.0429
Precursor type: [M+H]+
m/z	relative intensity	assigned
77.0385	68	C6H5+
92.0495	59	C6H6N+
94.0651	120	C6H8N+
104.0495	999	C7H6N+
105.0447	14	C6H5N2+
128.9849	71	C4H2ClN2O+
130.0649	8	C9H8N+
146.0116	36	C4H5ClN3O+
149.0154	34	C9H6Cl+
158.0601	9	C10H8NO+
159.0554	24	C9H7N2O+
186.0661	154	C10H8N3O+
193.0288	136	C10H8ClNO+
195.0318	27	C9H8ClN2O+
205.0163	120	C10H6ClN2O+
222.0427	98	C10H9ClN3O+
