Mass spectrum: Alfuzosin; LC-ESI-QFT; MS2; CE: 150; R=35000; [M+H]+
Name: Alfuzosin
Name: N-{3-[(4-Amino-6,7-dimethoxy-2-quinazolinyl)(methyl)amino]propyl}tetrahydro-2-furancarboxamide
Name: N-[3-[(4-amino-6,7-dimethoxyquinazolin-2-yl)-methylamino]propyl]oxolane-2-carboxamide
Formula: C19H27N5O4
Exact mass: 389.20630
SMILES: CN(CCCNC(=O)C1CCCO1)C2=NC3=CC(=C(C=C3C(=N2)N)OC)OC
InChI: InChI=1S/C19H27N5O4/c1-24(8-5-7-21-18(25)14-6-4-9-28-14)19-22-13-11-16(27-3)15(26-2)10-12(13)17(20)23-19/h10-11,14H,4-9H2,1-3H3,(H,21,25)(H2,20,22,23)
Instrument: Q Exactive Plus Orbitrap Thermo Scientific
Instrument type: LC-ESI-QFT
Ms type: MS2
Ion mode: POSITIVE
Ionization: ESI
Fragmentation mode: HCD
Collision energy: 150 (nominal)
Resolution: 35000
Column name: XBridge C18 3.5um, 2.1x50mm, Waters
Retention time: 5.3 min
Base peak: 390.2132
Precursor m/z: 390.2136
Precursor type: [M+H]+
m/z	relative intensity	assigned
50.0151	36	C4H2+
51.0229	60	C4H3+
52.0182	32	C3H2N+
52.0308	15	C4H4+
53.0022	122	C3HO+
53.0386	55	C4H5+
53.9974	25	C2NO+
54.0338	20	C3H4N+
54.0464	5	C4H6+
55.0178	23	C3H3O+
55.0291	9	C2H3N2+
55.0542	3	C4H7+
56.013	2	C2H2NO+
56.0495	13	C3H6N+
57.0447	271	C2H5N2+
58.0286	16	C2H4NO+
58.0651	31	C3H8N+
59.0492	5	C3H7O+
62.0151	20	C5H2+
63.0229	214	C5H3+
64.0182	83	C4H2N+
64.0307	30	C5H4+
65.026	31	C4H3N+
65.0386	161	C5H5+
66.0101	2	C4H2O+
66.0212	3	C3H2N2+
66.0338	11	C4H4N+
66.0464	14	C5H6+
67.0416	17	C4H5N+
67.9892	20	C3O2+
68.013	31	C3H2NO+
68.0494	9	C4H6N+
69.0446	4	C3H5N2+
71.0491	999	C4H7O+
75.0103	14	C5HN+
75.0229	13	C6H3+
76.0181	29	C5H2N+
76.0307	16	C6H4+
77.0134	3	C4HN2+
77.026	61	C5H3N+
77.0386	5	C6H5+
78.0338	301	C5H4N+
79.0177	5	C5H3O+
79.029	29	C4H3N2+
79.0416	84	C5H5N+
80.0131	24	C4H2NO+
80.0494	141	C5H6N+
81.0335	21	C5H5O+
81.0446	3	C4H5N2+
82.065	3	C5H8N+
86.06	11	C4H8NO+
88.0182	25	C6H2N+
89.0261	10	C6H3N+
89.0386	4	C7H5+
90.0339	245	C6H4N+
91.0417	108	C6H5N+
92.0257	9	C6H4O+
92.0369	165	C5H4N2+
92.0495	105	C6H6N+
93.0334	3	C6H5O+
93.0448	26	C5H5N2+
93.0573	5	C6H7N+
94.0287	5	C5H4NO+
95.0366	14	C5H5NO+
95.0491	36	C6H7O+
96.0443	41	C5H6NO+
97.0522	4	C5H7NO+
101.0261	27	C7H3N+
102.0338	18	C7H4N+
103.029	30	C6H3N2+
103.0417	21	C7H5N+
104.0131	10	C6H2NO+
104.0368	19	C6H4N2+
104.0494	28	C7H6N+
105.0447	694	C6H5N2+
106.0287	146	C6H4NO+
106.0525	113	C6H6N2+
107.0366	51	C6H5NO+
107.0604	28	C6H7N2+
108.0443	35	C6H6NO+
109.0523	3	C6H7NO+
110.0602	10	C6H8NO+
111.044	24	C6H7O2+
115.029	15	C7H3N2+
116.0369	29	C7H4N2+
116.0495	5	C8H6N+
117.0447	94	C7H5N2+
118.0287	33	C7H4NO+
118.0525	77	C7H6N2+
119.0367	38	C7H5NO+
119.0478	5	C6H5N3+
119.0604	63	C7H7N2+
120.008	73	C6H2NO2+
120.0319	82	C6H4N2O+
120.0444	162	C7H6NO+
120.0557	10	C6H6N3+
121.0283	3	C7H5O2+
121.0396	29	C6H5N2O+
129.0446	71	C8H5N2+
130.04	51	C7H4N3+
130.0525	12	C8H6N2+
131.0241	22	C7H3N2O+
131.0478	14	C7H5N3+
131.0604	28	C8H7N2+
132.0318	9	C7H4N2O+
132.0446	2	C8H6NO+
132.0557	17	C7H6N3+
133.0396	287	C7H5N2O+
133.0635	20	C7H7N3+
134.0237	22	C7H4NO2+
134.0474	116	C7H6N2O+
135.0314	41	C7H5NO2+
135.0553	134	C7H7N2O+
136.0268	19	C6H4N2O2+
136.0395	5	C7H6NO2+
141.0322	4	C8H3N3+
142.04	5	C8H4N3+
143.0478	11	C8H5N3+
144.032	2	C8H4N2O+
144.0559	25	C8H6N3+
145.0396	82	C8H5N2O+
145.0634	5	C8H7N3+
146.0236	61	C8H4NO2+
146.0345	3	C7H4N3O+
146.0474	3	C8H6N2O+
146.0591	4	C7H6N4+
146.0714	5	C8H8N3+
147.0553	222	C8H7N2O+
147.0664	46	C7H7N4+
148.0396	20	C8H6NO2+
148.0745	5	C7H8N4+
149.0712	5	C8H9N2O+
150.0549	20	C8H8NO2+
151.0502	11	C7H7N2O2+
156.0555	12	C9H6N3+
157.0393	2	C9H5N2O+
158.0711	4	C9H8N3+
159.0427	30	C8H5N3O+
159.0553	5	C9H7N2O+
160.0505	36	C8H6N3O+
161.0345	117	C8H5N2O2+
162.0423	12	C8H6N2O2+
162.0663	15	C8H8N3O+
163.0501	24	C8H7N2O2+
168.0562	3	C10H6N3+
172.0506	10	C9H6N3O+
173.0345	50	C9H5N2O2+
173.0584	5	C9H7N3O+
173.0821	14	C9H9N4+
174.0536	2	C8H6N4O+
174.0662	3	C9H8N3O+
175.0502	76	C9H7N2O2+
176.0695	5	C8H8N4O+
177.0296	19	C8H5N2O3+
177.0659	13	C9H9N2O2+
179.0451	3	C8H7N2O3+
185.0824	2	C10H9N4+
186.0296	17	C9H4N3O2+
187.0379	8	C9H5N3O2+
187.0501	2	C10H7N2O2+
188.0454	37	C9H6N3O2+
189.0528	2	C9H7N3O2+
189.0658	2	C10H9N2O2+
189.0773	3	C9H9N4O+
190.0612	21	C9H8N3O2+
191.0452	22	C9H7N2O3+
204.0642	4	C9H8N4O2+
206.0566	2	C9H8N3O3+
217.0724	10	C10H9N4O2+
219.0876	3	C10H11N4O2+
229.073	3	C11H9N4O2+
