Mass spectrum: Dimethenamide ESA; LC-ESI-ITFT; MS2; CE: 30%; R=15000; [M+H]+
Name: Dimethenamide ESA
Name: 2-[(2,4-Dimethyl-3-thienyl)(1-methoxy-2-propanyl)amino]-2-oxoethanesulfonic acid
Formula: C12H19NO5S2
Exact mass: 321.0705
SMILES: S(C=C1C)C(C)=C1N(C(=O)CS(=O)(=O)O)C(COC)C
InChI: InChI=1S/C12H19NO5S2/c1-8-6-19-10(3)12(8)13(9(2)5-18-4)11(14)7-20(15,16)17/h6,9H,5,7H2,1-4H3,(H,15,16,17)
Instrument: LTQ Orbitrap XL Thermo Scientific
Instrument type: LC-ESI-ITFT
Ms type: MS2
Ion mode: POSITIVE
Ionization: ESI
Fragmentation mode: HCD
Collision energy: 30 % (nominal)
Resolution: 15000
Column name: XBridge C18 3.5um, 2.1x50mm, Waters
Retention time: 6.7 min
Base peak: 322.0788
Precursor m/z: 322.0777
Precursor type: [M+H]+
m/z	relative intensity	assigned
73.0648	5	C4H9O+
128.053	1	C6H10NS+
150.0497	1	C9H10S+
151.0575	1	C9H11S+
152.0529	1	C8H10NS+
166.0685	10	C9H12NS+
167.0764	3	C9H13NS+
168.0842	17	C9H14NS+
170.0635	1	C8H12NOS+
209.087	12	C11H15NOS+
210.095	165	C11H16NOS+
226.0896	2	C11H16NO2S+
250.0203	3	C8H12NO4S2+
290.0514	999	C11H16NO4S2+
322.0771	7	C12H20NO5S2+
