Mass spectrum: Proquinazid; LC-ESI-QFT; MS2; CE: 60; R=35000; [M+H]+
Name: Proquinazid
Name: 6-Iodo-2-propoxy-3-propylquinazolin-4-one
Formula: C14H17IN2O2
Exact mass: 372.03348
SMILES: CCCN1C(=O)C2=C(C=CC(=C2)I)N=C1OCCC
InChI: InChI=1S/C14H17IN2O2/c1-3-7-17-13(18)11-9-10(15)5-6-12(11)16-14(17)19-8-4-2/h5-6,9H,3-4,7-8H2,1-2H3
Instrument: Q Exactive Plus Orbitrap Thermo Scientific
Instrument type: LC-ESI-QFT
Ms type: MS2
Ion mode: POSITIVE
Ionization: ESI
Fragmentation mode: HCD
Collision energy: 60 (nominal)
Resolution: 35000
Column name: XBridge C18 3.5um, 2.1x50mm, Waters
Retention time: 16.6 min
Base peak: 373.0401
Precursor m/z: 373.0408
Precursor type: [M+H]+
m/z	relative intensity	assigned
53.0022	1	C3HO+
89.0261	1	C6H3N+
91.0417	1	C6H5N+
92.0258	1	C6H4O+
116.0369	1	C7H4N2+
117.0209	6	C7H3NO+
119.0367	49	C7H5NO+
121.0159	1	C6H3NO2+
137.0472	20	C7H7NO2+
144.032	3	C8H4N2O+
145.0159	40	C8H3NO2+
146.0239	1	C8H4NO2+
162.0425	123	C8H6N2O2+
176.0219	1	C8H4N2O3+
177.0058	26	
186.0789	1	C11H10N2O+
194.0324	32	
215.9307	171	C6H3IN+
217.9464	8	C6H5IN+
242.9416	9	C7H4IN2+
245.9413	7	C7H5INO+
270.9366	101	C8H4IN2O+
271.9205	999	C8H3INO2+
288.947	361	C8H6IN2O2+
289.9311	8	C8H5INO3+
302.9632	1	C9H8IN2O2+
303.9467	11	C9H7INO3+
330.9936	4	C11H12IN2O2+
