Mass spectrum: Benzoylecgonine; LC-ESI-ITFT; MS2; CE: 75%; R=7500; [M+H]+
Name: Benzoylecgonine
Name: 3-benzoyloxy-8-methyl-8-azabicyclo[3.2.1]octane-4-carboxylic acid
Formula: C16H19NO4
Exact mass: 289.1314
SMILES: CN1C2CCC1C(C(C2)OC(=O)C3=CC=CC=C3)C(=O)O
InChI: InChI=1S/C16H19NO4/c1-17-11-7-8-12(17)14(15(18)19)13(9-11)21-16(20)10-5-3-2-4-6-10/h2-6,11-14H,7-9H2,1H3,(H,18,19)
Instrument: LTQ Orbitrap XL Thermo Scientific
Instrument type: LC-ESI-ITFT
Ms type: MS2
Ion mode: POSITIVE
Ionization: ESI
Fragmentation mode: HCD
Collision energy: 75 % (nominal)
Resolution: 7500
Column name: XBridge C18 3.5um, 2.1x50mm, Waters
Retention time: 4.6 min
Base peak: 290.1395
Precursor m/z: 290.1387
Precursor type: [M+H]+
m/z	relative intensity	assigned
56.0494	5	C3H6N+
57.0572	7	C3H7N+
65.0388	13	C5H5+
67.0542	52	C5H7+
68.0494	56	C4H6N+
77.0386	185	C6H5+
79.054	10	C6H7+
81.0698	12	C6H9+
82.0651	288	C5H8N+
83.0492	24	C5H7O+
83.073	110	C5H9N+
84.0808	13	C5H10N+
91.0542	181	C7H7+
93.0331	7	C6H5O+
93.0697	52	C7H9+
94.0651	42	C6H8N+
95.0492	21	C6H7O+
96.0807	42	C6H10N+
100.0757	39	C5H10NO+
105.0335	999	C7H5O+
107.0731	12	C7H9N+
108.0806	28	C7H10N+
117.0572	8	C8H7N+
119.0491	119	C8H7O+
122.0963	97	C8H12N+
124.1119	45	C8H14N+
132.0806	19	C9H10N+
135.0678	33	C8H9NO+
140.0703	15	C7H10NO2+
150.0912	66	C9H12NO+
168.1018	273	C9H14NO2+
