Mass spectrum: Iopamidol; LC-ESI-ITFT; MS2; CE: 45%; R=15000; [M+H]+
Name: Iopamidol
Name: 1,3-Benzenedicarboxamide, N,N'-bis(2-hydroxy-1-(hydroxymethyl)ethyl)-5-((2-hydroxy-1-oxopropyl)amino)-2,4,6-triiodo-
Name: 1-N,3-N-bis(1,3-dihydroxypropan-2-yl)-5-(2-hydroxypropanoylamino)-2,4,6-triiodobenzene-1,3-dicarboxamide
Formula: C17H22I3N3O8
Exact mass: 776.8541
SMILES: CC(O)C(=O)NC1=C(I)C(C(=O)NC(CO)CO)=C(I)C(C(=O)NC(CO)CO)=C1I
InChI: InChI=1S/C17H22I3N3O8/c1-6(28)15(29)23-14-12(19)9(16(30)21-7(2-24)3-25)11(18)10(13(14)20)17(31)22-8(4-26)5-27/h6-8,24-28H,2-5H2,1H3,(H,21,30)(H,22,31)(H,23,29)
Instrument: LTQ Orbitrap XL Thermo Scientific
Instrument type: LC-ESI-ITFT
Ms type: MS2
Ion mode: POSITIVE
Ionization: ESI
Fragmentation mode: HCD
Collision energy: 45 % (nominal)
Resolution: 15000
Column name: XBridge C18 3.5um, 2.1x50mm, Waters
Retention time: 1.2 min
Base peak: 132.9578
Precursor m/z: 777.8614
Precursor type: [M+H]+
m/z	relative intensity	assigned
74.06	144	C3H8NO+
176.0217	44	C8H4N2O3+
229.0602	53	C12H9N2O3+
259.0344	99	C12H7N2O5+
259.0713	200	C13H11N2O4+
260.079	103	C13H12N2O4+
269.9404	87	C9H5INO+
277.0813	136	C13H13N2O5+
285.9358	185	C9H5INO2+
295.9203	66	C10H3INO2+
297.9358	32	C10H5INO2+
312.9472	71	C10H6IN2O2+
313.9307	821	C10H5INO3+
330.9208	55	C9H4IN2O4+
331.941	999	C10H7INO4+
368.9731	110	C13H10IN2O3+
386.9486	62	C12H8IN2O5+
386.9835	946	C13H12IN2O4+
396.8458	47	C9H5I2NO+
397.8159	97	C5H4I2O5+
404.9941	99	C13H14IN2O5+
422.8115	333	C9HI2N2O2+
438.8433	150	C10H5I2N2O2+
441.8066	106	C9H2I2NO4+
