Mass spectrum: Myclobutanil; LC-ESI-ITFT; MS2; CE: 35%; R=15000; [M+H]+
Name: Myclobutanil
Name: MYC
Name: 2-(4-chlorophenyl)-2-(1,2,4-triazol-1-ylmethyl)hexanenitrile
Formula: C15H17ClN4
Exact mass: 288.1142
SMILES: Clc1ccc(cc1)C(C#N)(CCCC)Cn2ncnc2
InChI: InChI=1S/C15H17ClN4/c1-2-3-8-15(9-17,10-20-12-18-11-19-20)13-4-6-14(16)7-5-13/h4-7,11-12H,2-3,8,10H2,1H3
Instrument: LTQ Orbitrap XL Thermo Scientific
Instrument type: LC-ESI-ITFT
Ms type: MS2
Ion mode: POSITIVE
Ionization: ESI
Fragmentation mode: CID
Collision energy: 35 % (nominal)
Resolution: 15000
Column name: XBridge C18 3.5um, 2.1x50mm, Waters
Retention time: 11.2 min
Base peak: 289.1218
Precursor m/z: 289.1215
Precursor type: [M+H]+
m/z	relative intensity	assigned
125.0153	170	C7H6Cl+
151.031	48	C9H8Cl+
164.0262	26	C9H7ClN+
166.0417	41	C9H9ClN+
168.0931	13	C13H12+
178.0417	66	C10H9ClN+
185.1198	10	C13H15N+
191.0625	10	C12H12Cl+
192.0575	36	C11H11ClN+
193.0779	55	C12H14Cl+
194.048	55	C9H9ClN3+
203.0622	150	C13H12Cl+
220.0887	999	C13H15ClN+
