Mass spectrum: Diatrizoate; LC-ESI-ITFT; MS2; CE: 35%; R=7500; [M+H]+
Name: Diatrizoate
Name: Diatrizoic acid
Name: 3,5-diacetamido-2,4,6-triiodo-benzoic acid
Formula: C11H9I3N2O4
Exact mass: 613.7697
SMILES: CC(=O)NC1=C(I)C(C(O)=O)=C(I)C(NC(C)=O)=C1I
InChI: InChI=1S/C11H9I3N2O4/c1-3(17)15-9-6(12)5(11(19)20)7(13)10(8(9)14)16-4(2)18/h1-2H3,(H,15,17)(H,16,18)(H,19,20)
Instrument: LTQ Orbitrap XL Thermo Scientific
Instrument type: LC-ESI-ITFT
Ms type: MS2
Ion mode: POSITIVE
Ionization: ESI
Fragmentation mode: CID
Collision energy: 35 % (nominal)
Resolution: 7500
Column name: XBridge C18 3.5um, 2.1x50mm, Waters
Retention time: 1.6 min
Base peak: 631.8031
Precursor m/z: 614.7769
Precursor type: [M+H]+
m/z	relative intensity	assigned
233.0556	23	C11H9N2O4+
360.9678	999	C11H10IN2O4+
487.8723	81	C11H10I2N2O4+
