Mass spectrum: N-Bisdesmethyl Tramadol; LC-ESI-QFT; MS2; CE: 75; R=35000; [M+H]+
Name: N-Bisdesmethyl Tramadol
Name: 2-(aminomethyl)-1-(3-methoxyphenyl)cyclohexan-1-ol
Formula: C14H21NO2
Exact mass: 235.15723
SMILES: COC1=CC=CC(=C1)C2(CCCCC2CN)O
InChI: InChI=1S/C14H21NO2/c1-17-13-7-4-6-11(9-13)14(16)8-3-2-5-12(14)10-15/h4,6-7,9,12,16H,2-3,5,8,10,15H2,1H3
Instrument: Q Exactive Plus Orbitrap Thermo Scientific
Instrument type: LC-ESI-QFT
Ms type: MS2
Ion mode: POSITIVE
Ionization: ESI
Fragmentation mode: HCD
Collision energy: 75 (nominal)
Resolution: 35000
Column name: XBridge C18 3.5um, 2.1x50mm, Waters
Retention time: 5.2 min
Base peak: 236.1644
Precursor m/z: 236.1645
Precursor type: [M+H]+
m/z	relative intensity	assigned
53.0386	6	C4H5+
55.0542	6	C4H7+
65.0385	1	C5H5+
67.0542	5	C5H7+
77.0384	5	C6H5+
78.0463	5	C6H6+
79.0542	26	C6H7+
81.0699	90	C6H9+
91.0542	98	C7H7+
93.0699	17	C7H9+
95.0491	10	C6H7O+
105.0448	7	C6H5N2+
105.0699	1	C8H9+
106.0413	5	C7H6O+
107.0491	4	C7H7O+
109.0648	10	C7H9O+
115.0543	3	C9H7+
117.0698	4	C9H9+
119.0603	6	C7H7N2+
121.0648	999	C8H9O+
129.0699	4	C10H9+
132.0569	3	C9H8O+
133.0645	1	C9H9O+
135.0804	6	C9H11O+
144.057	8	C10H8O+
145.0647	3	C10H9O+
147.0804	35	C10H11O+
158.0727	4	C11H10O+
159.0804	7	C11H11O+
160.0885	3	C11H12O+
173.0963	1	C12H13O+
189.1276	8	C13H17O+
