Mass spectrum: Albendazole sulfone; LC-ESI-QFT; MS2; CE: 75; R=35000; [M-H]-
Name: Albendazole sulfone
Name: methyl N-(6-propylsulfonyl-1H-benzimidazol-2-yl)carbamate
Formula: C12H15N3O4S
Exact mass: 297.07833
SMILES: CCCS(=O)(=O)C1=CC2=C(C=C1)N=C(N2)NC(=O)OC
InChI: InChI=1S/C12H15N3O4S/c1-3-6-20(17,18)8-4-5-9-10(7-8)14-11(13-9)15-12(16)19-2/h4-5,7H,3,6H2,1-2H3,(H2,13,14,15,16)
Instrument: Q Exactive Plus Orbitrap Thermo Scientific
Instrument type: LC-ESI-QFT
Ms type: MS2
Ion mode: NEGATIVE
Ionization: ESI
Fragmentation mode: HCD
Collision energy: 75 (nominal)
Resolution: 35000
Column name: XBridge C18 3.5um, 2.1x50mm, Waters
Retention time: 5.7 min
Base peak: 264.0444
Precursor m/z: 296.0711
Precursor type: [M-H]-
m/z	relative intensity	assigned
64.0066	3	C3N2-
65.0145	26	C3HN2-
65.9985	26	C3NO-
68.0015	5	C2N2O-
78.0224	3	C4H2N2-
89.0145	8	C5HN2-
89.9985	1	C5NO-
90.0223	19	C5H2N2-
91.0063	3	C5HNO-
92.0254	24	C4H2N3-
93.0093	6	C4HN2O-
95.025	57	C4H3N2O-
102.0222	6	C6H2N2-
105.0332	7	C5H3N3-
106.0172	182	C5H2N2O-
115.0302	20	C7H3N2-
118.0172	4	C6H2N2O-
119.0249	1	C6H3N2O-
120.0091	13	C6H2NO2-
120.0203	1	C5H2N3O-
122.0123	1	C5H2N2O2-
129.0332	71	C7H3N3-
132.0203	15	C6H2N3O-
133.0282	497	C6H3N3O-
134.0122	6	C6H2N2O2-
134.0359	1	C6H4N3O-
136.0152	14	C5H2N3O2-
144.0204	1	C7H2N3O-
145.0281	22	C7H3N3O-
146.036	1	C7H4N3O-
147.02	4	C7H3N2O2-
149.023	88	C6H3N3O2-
156.0204	1	C8H2N3O-
157.0281	999	C8H3N3O-
158.0359	110	C8H4N3O-
160.0152	230	C7H2N3O2-
161.0231	6	C7H3N3O2-
173.0229	115	C8H3N3O2-
174.0306	3	C8H4N3O2-
188.0099	6	C8H2N3O3-
189.0543	5	C9H7N3O2-
220.9901	4	C8H3N3O3S-
221.9974	2	C8H4N3O3S-
264.0448	7	C11H10N3O3S-
