Mass spectrum: Levamisole; LC-ESI-ITFT; MS2; CE: 60%; R=15000; [M+H]+
Name: Levamisole
Name: (6S)-6-phenyl-2,3,5,6-tetrahydroimidazo[2,1-b][1,3]thiazole
Formula: C11H12N2S
Exact mass: 204.0721
SMILES: c1([C@H]2CN3CCSC3=N2)ccccc1
InChI: InChI=1S/C11H12N2S/c1-2-4-9(5-3-1)10-8-13-6-7-14-11(13)12-10/h1-5,10H,6-8H2/t10-/m1/s1
Instrument: LTQ Orbitrap XL Thermo Scientific
Instrument type: LC-ESI-ITFT
Ms type: MS2
Ion mode: POSITIVE
Ionization: ESI
Fragmentation mode: HCD
Collision energy: 60 % (nominal)
Resolution: 15000
Column name: XBridge C18 3.5um, 2.1x50mm, Waters
Retention time: 2.9 min
Base peak: 205.0801
Precursor m/z: 205.0794
Precursor type: [M+H]+
m/z	relative intensity	assigned
61.0107	5	C2H5S+
88.0216	31	C3H6NS+
91.0542	34	C7H7+
103.0541	3	C8H7+
105.07	22	C8H9+
117.0574	7	C8H7N+
117.0699	34	C9H9+
118.0652	32	C8H8N+
119.0726	1	C8H9N+
119.0856	2	C9H11+
120.0806	1	C8H10N+
123.0264	37	C7H7S+
127.0322	3	C5H7N2S+
128.0495	2	C9H6N+
128.062	3	C10H8+
129.07	55	C10H9+
130.0652	3	C9H8N+
131.073	9	C9H9N+
135.0263	5	C8H7S+
144.0808	7	C10H10N+
145.0761	21	C9H9N2+
146.0965	92	C10H12N+
148.0219	1	C8H6NS+
150.0373	15	C8H8NS+
178.0687	586	C10H12NS+
188.053	12	C11H10NS+
205.0796	999	C11H13N2S+
