Mass spectrum: Benalaxyl; LC-ESI-QFT; MS2; CE: 90; R=35000; [M+H]+
Name: Benalaxyl
Name: 2-(2,6-dimethyl-N-(1-oxo-2-phenylethyl)anilino)propanoic acid methyl ester
Formula: C20H23NO3
Exact mass: 325.16779
SMILES: O=C(N(c1c(cccc1C)C)C(C(=O)OC)C)Cc2ccccc2
InChI: InChI=1S/C20H23NO3/c1-14-9-8-10-15(2)19(14)21(16(3)20(23)24-4)18(22)13-17-11-6-5-7-12-17/h5-12,16H,13H2,1-4H3
Instrument: Q Exactive Orbitrap Thermo Scientific
Instrument type: LC-ESI-QFT
Ms type: MS2
Ion mode: POSITIVE
Ionization: ESI
Fragmentation mode: HCD
Collision energy: 90 (nominal)
Resolution: 35000
Column name: XBridge C18 3.5um, 2.1x50mm, Waters
Retention time: 13.0 min
Base peak: 326.1754
Precursor m/z: 326.1751
Precursor type: [M+H]+
m/z	relative intensity	assigned
63.023	1	C5H3+
65.0387	62	C5H5+
77.0386	2	C6H5+
78.0465	1	C6H6+
79.0543	28	C6H7+
91.0543	999	C7H7+
93.07	2	C7H9+
95.0493	9	C6H7O+
103.0543	17	C8H7+
104.0622	1	C8H8+
105.07	100	C8H9+
106.0652	151	C7H8N+
106.0776	10	C8H10+
107.0731	14	C7H9N+
107.0855	5	C8H11+
109.0649	1	C7H9O+
116.0622	3	C9H8+
118.0652	39	C8H8N+
119.0857	10	C9H11+
120.0809	66	C8H10N+
121.0887	359	C8H11N+
122.0964	9	C8H12N+
123.0805	2	C8H11O+
129.0699	2	C10H9+
131.073	1	C9H9N+
131.0857	13	C10H11+
132.0809	15	C9H10N+
133.0887	72	C9H11N+
146.0967	7	C10H12N+
148.1122	383	C10H14N+
196.1123	3	C14H14N+
