Mass spectrum: Warfarin; LC-ESI-QFT; MS2; CE: 15; R=35000; [M+H]+
Name: Warfarin
Name: 2-hydroxy-3-(3-oxo-1-phenylbutyl)chromen-4-one
Name: Coumafen
Formula: C19H16O4
Exact mass: 308.10486
SMILES: O=C\1c3c(OC(/O)=C/1C(c2ccccc2)CC(=O)C)cccc3
InChI: InChI=1S/C19H16O4/c1-12(20)11-15(13-7-3-2-4-8-13)17-18(21)14-9-5-6-10-16(14)23-19(17)22/h2-10,15,22H,11H2,1H3
Instrument: Q Exactive Orbitrap Thermo Scientific
Instrument type: LC-ESI-QFT
Ms type: MS2
Ion mode: POSITIVE
Ionization: ESI
Fragmentation mode: HCD
Collision energy: 15 (nominal)
Resolution: 35000
Column name: XBridge C18 3.5um, 2.1x50mm, Waters
Retention time: 10.6 min
Base peak: 309.112
Precursor m/z: 309.1121
Precursor type: [M+H]+
m/z	relative intensity	assigned
121.0279	2	C7H5O2+
147.0803	165	C10H11O+
163.0388	991	C9H7O3+
189.0545	4	C11H9O3+
191.034	1	C10H7O4+
205.0498	4	C11H9O4+
251.0701	363	C16H11O3+
291.1012	29	C19H15O3+
309.1118	999	C19H17O4+
