Mass spectrum: Anabaenopeptin A; LC-ESI-QFT; MS2; CE: 45%; R=17500; [M-H]-
Name: Anabaenopeptin A
Name: 2-[[3-benzyl-9-[2-(4-hydroxyphenyl)ethyl]-6,7-dimethyl-2,5,8,11,14-pentaoxo-12-propan-2-yl-1,4,7,10,13-pentazacyclononadec-15-yl]carbamoylamino]-3-(4-hydroxyphenyl)propanoic acid
Formula: C44H57N7O10
Exact mass: 843.4167
SMILES: CC1C(=O)NC(C(=O)NCCCCC(C(=O)NC(C(=O)NC(C(=O)N1C)CCC2=CC=C(C=C2)O)C(C)C)NC(=O)NC(CC3=CC=C(C=C3)O)C(=O)O)CC4=CC=CC=C4
InChI: InChI=1S/C44H57N7O10/c1-26(2)37-41(57)46-34(22-17-28-13-18-31(52)19-14-28)42(58)51(4)27(3)38(54)47-35(24-29-10-6-5-7-11-29)39(55)45-23-9-8-12-33(40(56)50-37)48-44(61)49-36(43(59)60)25-30-15-20-32(53)21-16-30/h5-7,10-11,13-16,18-21,26-27,33-37,52-53H,8-9,12,17,22-25H2,1-4H3,(H,45,55)(H,46,57)(H,47,54)(H,50,56)(H,59,60)(H2,48,49,61)
Instrument: Q Exactive Plus Orbitrap Thermo Scientific
Instrument type: LC-ESI-QFT
Ms type: MS2
Ion mode: NEGATIVE
Ionization: ESI
Fragmentation mode: HCD
Collision energy: 45 % (nominal)
Resolution: 17500
Column name: XBridge C18 3.5um, 2.1x50mm, Waters
Retention time: 7.272 min
Base peak: 190.9278
Precursor m/z: 842.4094
Precursor type: [M-H]-
m/z	relative intensity	assigned
72.0092	100	C2H2NO2-
93.0344	225	C6H5O-
97.0045	27	C3HN2O2-
99.0199	208	C3H3N2O2-
101.072	327	C4H9N2O-
102.0561	55	C4H8NO2-
107.0505	135	C7H7O-
119.0502	558	C8H7O-
125.0717	96	C6H9N2O-
127.0509	177	C5H7N2O2-
141.0666	270	C6H9N2O2-
146.0609	206	C9H8NO-
152.0711	43	C8H10NO2-
153.0667	118	C7H9N2O2-
160.0764	231	C10H10NO-
163.0396	546	C9H7O3-
167.0817	63	C6H9N5O-
170.0932	75	C7H12N3O2-
180.0659	999	C7H8N4O2-
189.0665	144	C10H9N2O2-
199.0865	39	C10H9N5-
204.0656	60	C9H8N4O2-
227.1194	201	H17N7O7-
229.1343	894	C14H17N2O-
231.1136	114	C13H15N2O2-
261.1246	120	C14H17N2O3-
271.1457	35	C2H21N7O8-
274.1568	48	C15H20N3O2-
275.1406	56	CH21N7O9-
278.152	89	C16H22O4-
300.1362	334	C18H20O4-
306.1835	62	C18H26O4-
314.1517	177	C19H22O4-
331.2154	295	C20H29NO3-
338.1874	50	C20H24N3O2-
356.1988	76	C22H28O4-
366.2219	66	C12H34N2O10-
402.2172	120	C23H26N6O-
