Mass spectrum: Chlorcyclizine; LC-ESI-QFT; MS2; CE: 90; R=35000; [M+H]+
Name: Chlorcyclizine
Name: 1-[(4-chlorophenyl)-phenylmethyl]-4-methylpiperazine
Formula: C18H21ClN2
Exact mass: 300.13933
SMILES: CN1CCN(CC1)C(C2=CC=CC=C2)C3=CC=C(C=C3)Cl
InChI: InChI=1S/C18H21ClN2/c1-20-11-13-21(14-12-20)18(15-5-3-2-4-6-15)16-7-9-17(19)10-8-16/h2-10,18H,11-14H2,1H3
Instrument: Q Exactive Plus Orbitrap Thermo Scientific
Instrument type: LC-ESI-QFT
Ms type: MS2
Ion mode: POSITIVE
Ionization: ESI
Fragmentation mode: HCD
Collision energy: 90 (nominal)
Resolution: 35000
Column name: XBridge C18 3.5um, 2.1x50mm, Waters
Retention time: 8.2 min
Base peak: 301.1464
Precursor m/z: 301.1466
Precursor type: [M+H]+
m/z	relative intensity	assigned
70.0651	1	C4H8N+
98.9996	2	C5H4Cl+
115.0542	5	C9H7+
139.0543	4	C11H7+
149.0156	1	C9H6Cl+
152.0618	1	C12H8+
163.0535	2	C13H7+
164.0621	12	C13H8+
165.0699	999	C13H9+
166.0777	434	C13H10+
168.0567	4	C9H11ClN+
183.0807	1	C10H14ClN+
193.0759	2	C13H9N2+
199.0309	19	C13H8Cl+
201.0465	4	C13H10Cl+
