Mass spectrum: EDDP; LC-ESI-ITFT; MS2; CE: 60%; R=15000; [M+H]+
Name: EDDP
Name: (2E)-2-ethylidene-1,5-dimethyl-3,3-diphenyl-pyrrolidine
Formula: C20H23N
Exact mass: 277.1830
SMILES: C/C=C/1\C(CC(N1C)C)(C2=CC=CC=C2)C3=CC=CC=C3
InChI: InChI=1S/C20H23N/c1-4-19-20(15-16(2)21(19)3,17-11-7-5-8-12-17)18-13-9-6-10-14-18/h4-14,16H,15H2,1-3H3/b19-4+
Instrument: LTQ Orbitrap XL Thermo Scientific
Instrument type: LC-ESI-ITFT
Ms type: MS2
Ion mode: POSITIVE
Ionization: ESI
Fragmentation mode: HCD
Collision energy: 60 % (nominal)
Resolution: 15000
Column name: XBridge C18 3.5um, 2.1x50mm, Waters
Retention time: 6.5 min
Base peak: 278.1909
Precursor m/z: 278.1903
Precursor type: [M+H]+
m/z	relative intensity	assigned
58.065	3	C3H8N+
91.0542	9	C7H7+
105.0698	8	C8H9+
118.065	3	C8H8N+
129.0698	8	C10H9+
143.0856	2	C11H11+
171.1043	7	C12H13N+
172.1119	30	C12H14N+
186.1276	181	C13H16N+
200.1432	63	C14H18N+
201.151	98	C14H19N+
207.1042	26	C15H13N+
208.1122	3	C15H14N+
217.088	3	C16H11N+
221.1198	3	C16H15N+
233.1205	4	C17H15N+
234.1277	999	C17H16N+
235.1351	5	C17H17N+
236.1431	9	C17H18N+
237.1511	3	C17H19N+
248.1432	58	C18H18N+
249.1511	536	C18H19N+
250.1591	4	C18H20N+
262.1585	9	C19H20N+
263.1667	4	C19H21N+
278.19	634	C20H24N+
