Mass spectrum: Formetanate; LC-ESI-QFT; MS2; CE: 150%; R=17500; [M+H]+
Name: Formetanate
Name: [3-(dimethylaminomethylideneamino)phenyl] N-methylcarbamate
Formula: C11H15N3O2
Exact mass: 221.1164
SMILES: CNC(=O)OC1=CC=CC(=C1)N=CN(C)C
InChI: InChI=1S/C11H15N3O2/c1-12-11(15)16-10-6-4-5-9(7-10)13-8-14(2)3/h4-8H,1-3H3,(H,12,15)
Instrument: Exploris 240 Orbitrap Thermo Scientific
Instrument type: LC-ESI-QFT
Ms type: MS2
Ion mode: POSITIVE
Ionization: ESI
Fragmentation mode: HCD
Collision energy: 150 % (nominal)
Resolution: 17500
Column name: XBridge C18 3.5um, 2.1x50mm, Waters
Retention time: 1.752 min
Base peak: 132.9582
Precursor m/z: 222.1237
Precursor type: [M+H]+
m/z	relative intensity	assigned
65.0386	999	C5H5+
81.0574	21	C5H7N+
93.0337	48	C6H5O+
111.0441	51	C6H7O2+
121.0399	76	C6H5N2O+
