Mass spectrum: Flufenacet ESA; LC-ESI-ITFT; MS2; CE: 75%; R=7500; [M+H]+
Name: Flufenacet ESA
Name: 2-[(4-Fluorophenyl)(isopropyl)amino]-2-oxoethanesulfonic acid
Formula: C11H14FNO4S
Exact mass: 275.0628
SMILES: Fc1ccc(cc1)N(C(C)C)C(=O)CS(O)(=O)=O
InChI: InChI=1S/C11H14FNO4S/c1-8(2)13(11(14)7-18(15,16)17)10-5-3-9(12)4-6-10/h3-6,8H,7H2,1-2H3,(H,15,16,17)
Instrument: LTQ Orbitrap XL Thermo Scientific
Instrument type: LC-ESI-ITFT
Ms type: MS2
Ion mode: POSITIVE
Ionization: ESI
Fragmentation mode: HCD
Collision energy: 75 % (nominal)
Resolution: 7500
Column name: XBridge C18 3.5um, 2.1x50mm, Waters
Retention time: 6.0 min
Base peak: 276.0707
Precursor m/z: 276.07
Precursor type: [M+H]+
m/z	relative intensity	assigned
92.0496	39	C6H6N+
97.0452	36	C6H6F+
109.0452	97	C7H6F+
112.0558	999	C6H7FN+
123.035	26	C3H9NO2S+
124.0557	363	C7H7FN+
135.048	341	C8H6FN+
152.0507	32	C8H7FNO+
216.012	19	C8H7FNO3S+
