Mass spectrum: Thiamethoxam; LC-ESI-ITFT; MS2; CE: 75%; R=7500; [M+H]+
Name: Thiamethoxam
Name: 3-((2-Chloro-5-thiazolyl)methyl)tetrahydro-5-methyl-N-nitro-4H-1,3,5-oxadiazin-4-imine
Formula: C8H10ClN5O3S
Exact mass: 291.0193
SMILES: Clc1ncc(s1)CN2\C(=N\[N+]([O-])=O)N(C)COC2
InChI: InChI=1S/C8H10ClN5O3S/c1-12-4-17-5-13(8(12)11-14(15)16)3-6-2-10-7(9)18-6/h2H,3-5H2,1H3/b11-8+
Instrument: LTQ Orbitrap XL Thermo Scientific
Instrument type: LC-ESI-ITFT
Ms type: MS2
Ion mode: POSITIVE
Ionization: ESI
Fragmentation mode: HCD
Collision energy: 75 % (nominal)
Resolution: 7500
Column name: XBridge C18 3.5um, 2.1x50mm, Waters
Retention time: 4.1 min
Base peak: 292.0274
Precursor m/z: 292.0266
Precursor type: [M+H]+
m/z	relative intensity	assigned
57.0446	5	C2H5N2+
61.9791	2	CHClN+
66.0339	2	C4H4N+
67.0417	47	C4H5N+
68.0495	3	C4H6N+
69.0447	127	C3H5N2+
70.995	86	C3H3S+
71.9903	3	C2H2NS+
78.9404	6	CClS+
79.0292	5	C4H3N2+
81.0448	22	C4H5N2+
81.0573	10	C5H7N+
82.0525	3	C4H6N2+
82.9824	8	C3HNS+
83.99	6	C3H2NS+
86.0055	1	C3H4NS+
87.9949	12	C3H3ClN+
93.0445	7	C5H5N2+
94.0527	9	C5H6N2+
95.0603	11	C5H7N2+
95.9902	2	C4H2NS+
96.0555	1	C4H6N3+
97.0397	3	C4H5N2O+
98.0059	63	C4H4NS+
99.0012	48	C3H3N2S+
99.055	2	C4H7N2O+
106.04	2	C5H4N3+
107.0478	2	C5H5N3+
108.0557	373	C5H6N3+
110.0714	3	C5H8N3+
111.0012	7	C4H3N2S+
112.0216	24	C5H6NS+
113.0168	24	C4H5N2S+
118.9589	4	C3H2ClNS+
119.9674	2	C3H3ClNS+
120.0556	2	C6H6N3+
121.0636	3	C6H7N3+
122.0713	214	C6H8N3+
123.0006	3	C5H3N2S+
123.0791	53	C6H9N3+
124.009	14	C5H4N2S+
125.0168	163	C5H5N2S+
126.0244	8	C5H6N2S+
127.0331	1	C5H7N2S+
131.967	999	C4H3ClNS+
132.9747	17	C4H4ClNS+
137.0817	3	C6H9N4+
138.012	54	C5H4N3S+
138.025	3	C6H6N2S+
139.0196	3	C5H5N3S+
139.0322	8	C6H7N2S+
140.0275	5	C5H6N3S+
144.9751	3	C5H4ClNS+
145.9704	7	C4H3ClN2S+
146.978	6	C4H4ClN2S+
147.0664	12	C7H7N4+
148.0736	2	C7H8N4+
151.0198	103	C6H5N3S+
152.0277	473	C6H6N3S+
154.0431	17	C6H8N3S+
165.0229	24	C6H5N4S+
165.0771	5	C7H9N4O+
166.0306	7	C6H6N4S+
171.973	7	C8N2OS+
172.9796	2	C8HN2OS+
172.994	3	C6H6ClN2S+
174.9729	20	C5H4ClN2OS+
179.0381	13	C7H7N4S+
180.0456	6	C7H8N4S+
181.0541	168	C7H9N4S+
185.9881	3	C6H5ClN3S+
211.0658	12	C8H11N4OS+
215.0153	10	C7H8ClN4S+
292.028	2	C8H11ClN5O3S+
