Mass spectrum: Dimefuron; LC-ESI-QFT; MS2; CE: 45; R=35000; [M+H]+
Name: Dimefuron
Name: 3-[4-(5-tert-butyl-2-keto-1,3,4-oxadiazol-3-yl)-3-chloro-phenyl]-1,1-dimethyl-urea
Formula: C15H19ClN4O3
Exact mass: 338.11457
SMILES: O=C2O\C(=N/N2c1c(Cl)cc(NC(=O)N(C)C)cc1)C(C)(C)C
InChI: InChI=1S/C15H19ClN4O3/c1-15(2,3)12-18-20(14(22)23-12)11-7-6-9(8-10(11)16)17-13(21)19(4)5/h6-8H,1-5H3,(H,17,21)
Instrument: Q Exactive Orbitrap Thermo Scientific
Instrument type: LC-ESI-QFT
Ms type: MS2
Ion mode: POSITIVE
Ionization: ESI
Fragmentation mode: HCD
Collision energy: 45 (nominal)
Resolution: 35000
Column name: XBridge C18 3.5um, 2.1x50mm, Waters
Retention time: 9.8 min
Base peak: 339.122
Precursor m/z: 339.1218
Precursor type: [M+H]+
m/z	relative intensity	assigned
71.0603	4	C3H7N2+
72.0444	999	C3H6NO+
139.0056	3	C6H4ClN2+
139.9897	20	C6H3ClNO+
142.0056	2	C6H5ClNO+
166.0167	1	C7H5ClN3+
167.0006	453	C7H4ClN2O+
170.0478	1	C7H9ClN3+
176.0215	5	C8H4N2O3+
176.0817	8	C9H10N3O+
177.0894	1	C9H11N3O+
194.0924	4	C9H12N3O2+
210.9906	5	C8H4ClN2O3+
212.0585	22	C9H11ClN3O+
222.0792	4	C11H13ClN3+
256.0484	2	C10H11ClN3O3+
295.1318	1	C14H20ClN4O+
339.1216	1	C15H20ClN4O3+
