Mass spectrum: Orbencarb; LC-ESI-ITFT; MS2; CE: 45%; R=7500; [M+H]+
Name: Orbencarb
Name: N,N-diethylcarbamothioic acid S-[(2-chlorophenyl)methyl] ester
Formula: C12H16ClNOS
Exact mass: 257.0647
SMILES: c1(CSC(N(CC)CC)=O)c(cccc1)Cl
InChI: InChI=1S/C12H16ClNOS/c1-3-14(4-2)12(15)16-9-10-7-5-6-8-11(10)13/h5-8H,3-4,9H2,1-2H3
Instrument: LTQ Orbitrap XL Thermo Scientific
Instrument type: LC-ESI-ITFT
Ms type: MS2
Ion mode: POSITIVE
Ionization: ESI
Fragmentation mode: HCD
Collision energy: 45 % (nominal)
Resolution: 7500
Column name: XBridge C18 3.5um, 2.1x50mm, Waters
Retention time: 13.3 min
Base peak: 258.0719
Precursor m/z: 258.0714
Precursor type: [M+H]+
m/z	relative intensity	assigned
72.0445	75	C3H6NO+
98.9998	1	C5H4Cl+
100.0758	76	C5H10NO+
125.0154	999	C7H6Cl+
