Mass spectrum: Di-n-butyl phthalate; LC-ESI-QFT; MS2; CE: 90; R=35000; [M-H]-
Name: Di-n-butyl phthalate
Name: Dibutyl phthalate
Name: dibutyl benzene-1,2-dicarboxylate
Formula: C16H22O4
Exact mass: 278.15181
SMILES: CCCCOC(=O)C1=CC=CC=C1C(=O)OCCCC
InChI: InChI=1S/C16H22O4/c1-3-5-11-19-15(17)13-9-7-8-10-14(13)16(18)20-12-6-4-2/h7-10H,3-6,11-12H2,1-2H3
Instrument: Q Exactive Plus Orbitrap Thermo Scientific
Instrument type: LC-ESI-QFT
Ms type: MS2
Ion mode: NEGATIVE
Ionization: ESI
Fragmentation mode: HCD
Collision energy: 90 (nominal)
Resolution: 35000
Column name: XBridge C18 3.5um, 2.1x50mm, Waters
Retention time: 13.8 min
Base peak: 277.1444
Precursor m/z: 277.1445
Precursor type: [M-H]-
m/z	relative intensity	assigned
69.0346	4	C4H5O-
71.0502	5	C4H7O-
75.0242	999	C6H3-
77.0399	9	C6H5-
83.0504	6	C5H7O-
93.0347	23	C6H5O-
103.0191	40	C7H3O-
111.0818	6	C7H11O-
119.0142	21	C7H3O2-
121.0297	167	C7H5O2-
125.0973	21	C8H13O-
127.113	61	C8H15O-
147.0091	36	C8H3O3-
