Mass spectrum: Uniconazole; LC-ESI-QFT; MS2; CE: 150; R=35000; [M+H]+
Name: Uniconazole
Name: 1-(4-chlorophenyl)-4,4-dimethyl-2-(1,2,4-triazol-1-yl)pent-1-en-3-ol
Formula: C15H18ClN3O
Exact mass: 291.11384
SMILES: CC(C)(C)C(C(=CC1=CC=C(C=C1)Cl)N2C=NC=N2)O
InChI: InChI=1S/C15H18ClN3O/c1-15(2,3)14(20)13(19-10-17-9-18-19)8-11-4-6-12(16)7-5-11/h4-10,14,20H,1-3H3
Instrument: Q Exactive Plus Orbitrap Thermo Scientific
Instrument type: LC-ESI-QFT
Ms type: MS2
Ion mode: POSITIVE
Ionization: ESI
Fragmentation mode: HCD
Collision energy: 150 (nominal)
Resolution: 35000
Column name: XBridge C18 3.5um, 2.1x50mm, Waters
Retention time: 11.8 min
Base peak: 292.1207
Precursor m/z: 292.1211
Precursor type: [M+H]+
m/z	relative intensity	assigned
50.0151	5	C4H2+
51.023	11	C4H3+
53.0022	6	C3HO+
53.0386	9	C4H5+
59.0492	2	C3H7O+
62.0151	2	C5H2+
63.0229	29	C5H3+
65.0386	13	C5H5+
66.0464	2	C5H6+
70.04	999	C2H4N3+
72.9839	19	C3H2Cl+
74.015	13	C6H2+
74.9995	4	C3H4Cl+
75.0229	65	C6H3+
76.0307	5	C6H4+
77.0385	14	C6H5+
78.0464	7	C6H6+
81.0335	1	C5H5O+
84.984	5	C4H2Cl+
88.0307	2	C7H4+
89.0386	85	C7H5+
90.0464	23	C7H6+
91.0542	13	C7H7+
95.0491	22	C6H7O+
98.9996	38	C5H4Cl+
101.0387	2	C8H5+
102.0464	24	C8H6+
103.0542	13	C8H7+
105.0447	15	C6H5N2+
110.9996	3	C6H4Cl+
113.0387	3	C9H5+
114.0465	4	C9H6+
115.0543	73	C9H7+
116.062	2	C9H8+
125.0153	26	C7H6Cl+
126.0464	4	C10H6+
127.0542	7	C10H7+
128.062	42	C10H8+
129.0101	4	C6H6ClO+
129.0448	7	C8H5N2+
129.0698	8	C10H9+
131.0489	3	C9H7O+
132.0571	1	C9H8O+
139.0058	8	C6H4ClN2+
139.0541	7	C11H7+
140.0494	1	C10H6N+
140.062	2	C11H8+
141.0698	16	C11H9+
145.0648	5	C10H9O+
149.0153	7	C9H6Cl+
152.0621	12	C12H8+
153.0699	14	C12H9+
154.0777	2	C12H10+
155.0603	13	C10H7N2+
