Mass spectrum: 8phiC8SPC; LC-ESI-QFT; MS2; CE: 180; R=35000; [M+H]+
Name: 8phiC8SPC
Name: Octacarboxy sulfophenyl carboxylic acid
Name: 8-(4-sulfophenyl)octanoic acid
Formula: C14H20O5S
Exact mass: 300.10314
SMILES: OS(=O)(=O)c1ccc(CCCCCCCC(=O)O)cc1
InChI: InChI=1S/C14H20O5S/c15-14(16)7-5-3-1-2-4-6-12-8-10-13(11-9-12)20(17,18)19/h8-11H,1-7H2,(H,15,16)(H,17,18,19)
Instrument: Q Exactive Plus Orbitrap Thermo Scientific
Instrument type: LC-ESI-QFT
Ms type: MS2
Ion mode: POSITIVE
Ionization: ESI
Fragmentation mode: HCD
Collision energy: 180 (nominal)
Resolution: 35000
Column name: XBridge C18 3.5um, 2.1x50mm, Waters
Retention time: 7.9 min
Base peak: 315.1259
Precursor m/z: 301.1104
Precursor type: [M+H]+
m/z	relative intensity	assigned
50.0151	365	C4H2+
51.023	999	C4H3+
52.0308	36	C4H4+
53.0022	43	C3HO+
53.0386	205	C4H5+
53.9975	12	C2NO+
55.0179	69	C3H3O+
62.0151	42	C5H2+
63.0229	269	C5H3+
64.0307	30	C5H4+
65.0022	17	C4HO+
65.0386	300	C5H5+
66.0464	3	C5H6+
67.0179	2	C4H3O+
67.0543	5	C5H7+
68.9793	5	C3HS+
74.0151	13	C6H2+
75.0229	30	C6H3+
76.0308	16	C6H4+
77.0385	297	C6H5+
78.0464	280	C6H6+
79.0178	2	C5H3O+
79.0542	17	C6H7+
81.0335	40	C5H5O+
89.0386	385	C7H5+
90.0464	22	C7H6+
91.0543	317	C7H7+
94.0414	10	C6H6O+
95.0492	551	C6H7O+
102.0464	39	C8H6+
103.0542	132	C8H7+
105.0448	294	C6H5N2+
107.0492	10	C7H7O+
115.0543	324	C9H7+
116.062	5	C9H8+
117.07	8	C9H9+
121.0107	3	C7H5S+
127.0543	11	C10H7+
128.0621	46	C10H8+
131.0491	2	C9H7O+
134.0182	2	C8H6S+
145.0648	2	C10H9O+
152.0621	3	C12H8+
155.0602	9	C10H7N2+
