Mass spectrum: Codeine; LC-ESI-ITFT; MS2; CE: 45%; R=15000; [M+H]+
Name: Codeine
Name: (5,6)-3-Methoxy-17-methyl-7,8-didehydro-4,5-epoxymorphinan-6-ol
Name: Methylmorphine
Formula: C18H21NO3
Exact mass: 299.1521
SMILES: CN1CC[C@]23[C@@H]4[C@H]1CC5=C2C(=C(C=C5)OC)O[C@H]3[C@H](C=C4)O
InChI: InChI=1S/C18H21NO3/c1-19-8-7-18-11-4-5-13(20)17(18)22-16-14(21-2)6-3-10(15(16)18)9-12(11)19/h3-6,11-13,17,20H,7-9H2,1-2H3/t11-,12+,13-,17-,18-/m0/s1
Instrument: LTQ Orbitrap XL Thermo Scientific
Instrument type: LC-ESI-ITFT
Ms type: MS2
Ion mode: POSITIVE
Ionization: ESI
Fragmentation mode: HCD
Collision energy: 45 % (nominal)
Resolution: 15000
Column name: XBridge C18 3.5um, 2.1x50mm, Waters
Retention time: 2.8 min
Base peak: 300.1595
Precursor m/z: 300.1594
Precursor type: [M+H]+
m/z	relative intensity	assigned
58.0651	9	C3H8N+
121.0649	1	C8H9O+
137.0597	4	C8H9O2+
155.0855	2	C12H11+
159.0804	3	C11H11O+
161.0597	11	C10H9O2+
162.091	1	C10H12NO+
165.07	4	C13H9+
171.0802	2	C12H11O+
174.0675	1	C11H10O2+
175.0753	4	C11H11O2+
179.0942	1	C10H13NO2+
181.0648	5	C13H9O+
181.1014	1	C14H13+
183.0804	22	C13H11O+
185.0601	1	C12H9O2+
187.0753	16	C12H11O2+
187.1117	4	C13H15O+
191.0854	4	C15H11+
192.1019	3	C11H14NO2+
193.0646	12	C14H9O+
193.1014	1	C15H13+
194.0728	2	C14H10O+
195.0801	1	C14H11O+
197.096	4	C14H13O+
198.0677	1	C13H10O2+
199.0754	29	C13H11O2+
200.0832	3	C13H12O2+
201.0909	3	C13H13O2+
207.0802	2	C15H11O+
209.0597	6	C14H9O2+
209.0958	3	C15H13O+
211.0752	5	C14H11O2+
212.0832	2	C14H12O2+
213.091	8	C14H13O2+
215.1066	96	C14H15O2+
219.0803	4	C16H11O+
220.0889	1	C16H12O+
221.096	5	C16H13O+
223.0753	4	C15H11O2+
225.0909	42	C15H13O2+
236.0834	2	C16H12O2+
237.0911	2	C16H13O2+
238.099	1	C16H14O2+
239.1068	2	C16H15O2+
241.0859	18	C15H13O3+
241.1224	3	C16H17O2+
243.1015	79	C15H15O3+
250.123	1	C17H16NO+
251.1066	8	C17H15O2+
253.1224	8	C17H17O2+
266.1172	3	C17H16NO2+
267.1252	6	C17H17NO2+
269.1171	3	C17H17O3+
282.1488	31	C18H20NO2+
285.1357	1	C17H19NO3+
300.1593	999	C18H22NO3+
