Mass spectrum: Chlorthiazide; LC-ESI-QFT; MS2; CE: 150; R=35000; [M+H]+
Name: Chlorthiazide
Name: 6-chloro-1,1-dioxo-4H-1$l^{6},2,4-benzothiadiazine-7-sulfonamide
Formula: C7H6ClN3O4S2
Exact mass: 294.94883
SMILES: C1=C2C(=CC(=C1Cl)S(=O)(=O)N)S(=O)(=O)NC=N2
InChI: InChI=1S/C7H6ClN3O4S2/c8-4-1-5-7(2-6(4)16(9,12)13)17(14,15)11-3-10-5/h1-3H,(H,10,11)(H2,9,12,13)
Instrument: Q Exactive Plus Orbitrap Thermo Scientific
Instrument type: LC-ESI-QFT
Ms type: MS2
Ion mode: POSITIVE
Ionization: ESI
Fragmentation mode: HCD
Collision energy: 150 (nominal)
Resolution: 35000
Column name: XBridge C18 3.5um, 2.1x50mm, Waters
Retention time: 1.9 min
Base peak: 295.956
Precursor m/z: 295.9561
Precursor type: [M+H]+
m/z	relative intensity	assigned
50.0151	68	C4H2+
51.0104	10	C3HN+
51.023	34	C4H3+
52.0182	204	C3H2N+
53.0022	43	C3HO+
53.9974	7	C2NO+
54.0339	11	C3H4N+
55.0179	21	C3H3O+
55.0291	2	C2H3N2+
56.0495	6	C3H6N+
56.9794	1	C2HS+
57.9872	2	C2H2S+
59.9665	6	COS+
59.9762	1	C2HCl+
59.9902	1	CH2NS+
60.984	27	C2H2Cl+
61.0073	116	C5H+
61.9792	111	CHClN+
62.0151	679	C5H2+
63.0229	999	C5H3+
63.9852	79	H2NOS+
63.9949	12	CH3ClN+
64.0182	199	C4H2N+
65.0022	12	C4HO+
65.026	118	C4H3N+
66.0338	67	C4H4N+
67.0179	2	C4H3O+
67.029	6	C3H3N2+
67.0416	29	C4H5N+
68.0131	50	C3H2NO+
68.9793	145	C3HS+
69.9746	6	C2NS+
69.9871	22	C3H2S+
70.9683	5	C3Cl+
70.995	2	C3H3S+
71.9761	1	C3HCl+
71.9902	7	C2H2NS+
72.9839	401	C3H2Cl+
73.9792	40	C2HClN+
74.0151	47	C6H2+
74.987	12	C2H2ClN+
74.9995	16	C3H4Cl+
75.0103	38	C5HN+
75.0229	9	C6H3+
76.0181	278	C5H2N+
77.0022	102	C5HO+
77.0259	6	C5H3N+
78.0101	8	C5H2O+
78.0338	154	C5H4N+
78.9404	45	CClS+
79.0178	20	C5H3O+
79.0291	8	C4H3N2+
79.0417	15	C5H5N+
79.9799	11	H2NO2S+
80.0131	7	C4H2NO+
80.0495	7	C5H6N+
80.9794	29	C4HS+
81.0209	2	C4H3NO+
81.0335	34	C5H5O+
81.9872	8	C4H2S+
82.0288	1	C4H4NO+
82.0525	1	C4H6N2+
82.9825	3	C3HNS+
83.9667	1	C3OS+
83.9761	5	C4HCl+
83.9903	1	C3H2NS+
84.9839	80	C4H2Cl+
85.9792	179	C3HClN+
86.9633	16	C3ClO+
86.9996	35	C4H4Cl+
87.9948	24	C3H3ClN+
88.0182	104	C6H2N+
89.026	467	C6H3N+
90.0339	548	C6H4N+
91.0178	2	C6H3O+
91.0291	8	C5H3N2+
91.0417	7	C6H5N+
91.9483	5	C2HClS+
92.0131	7	C5H2NO+
92.0369	9	C5H4N2+
92.9794	18	C5HS+
93.0448	43	C5H5N2+
94.0288	5	C5H4NO+
95.9665	37	C4OS+
95.9761	7	C5HCl+
95.9903	8	C4H2NS+
96.0446	3	C5H6NO+
96.984	531	C5H2Cl+
97.9792	207	C4HClN+
97.9917	11	C5H3Cl+
98.9871	2	C4H2ClN+
98.9996	5	C5H4Cl+
99.9948	62	C4H3ClN+
101.0027	8	C4H4ClN+
102.0106	23	C4H5ClN+
102.9404	27	C3ClS+
103.0292	2	C6H3N2+
104.9561	51	C3H2ClS+
105.0447	18	C6H5N2+
105.9746	32	C5NS+
106.0289	8	C6H4NO+
106.0524	1	C6H6N2+
106.9824	308	C5HNS+
107.9774	7	C4N2S+
107.9902	16	C5H2NS+
108.0443	23	C6H6NO+
108.9839	1	C6H2Cl+
108.998	1	C5H3NS+
109.9791	2	C5HClN+
110.9632	35	C5ClO+
111.0317	1	C5H5NO2+
111.9948	27	C5H3ClN+
112.9789	6	C5H2ClO+
112.9901	15	C4H2ClN2+
113.0024	1	C5H4ClN+
113.9742	2	C4HClNO+
114.0107	15	C5H5ClN+
116.0369	10	C7H4N2+
117.0447	326	C7H5N2+
117.9746	2	C6NS+
118.0287	12	C7H4NO+
118.0398	1	C6H4N3+
118.0526	2	C7H6N2+
123.995	25	C6H3ClN+
125.0028	23	C6H4ClN+
127.0056	1	C5H4ClN2+
127.9899	2	C5H3ClNO+
129.0214	10	C5H6ClN2+
130.0055	8	C5H5ClNO+
142.0053	1	C6H5ClNO+
145.0165	1	C5H6ClN2O+
155.9845	4	C6H3ClNO2+
173.011	1	C6H6ClN2O2+
