Mass spectrum: Pyraclostrobin; LC-ESI-ITFT; MS2; CE: 45%; R=15000; [M+H]+
Name: Pyraclostrobin
Name: methyl [2-({[1-(4-chlorophenyl)-1H-pyrazol-3-yl]oxy}methyl)phenyl]methoxycarbamate
Formula: C19H18ClN3O4
Exact mass: 387.0986
SMILES: c1(ccc(n2ccc(OCc3c(cccc3)N(OC)C(OC)=O)n2)cc1)Cl
InChI: InChI=1S/C19H18ClN3O4/c1-25-19(24)23(26-2)17-6-4-3-5-14(17)13-27-18-11-12-22(21-18)16-9-7-15(20)8-10-16/h3-12H,13H2,1-2H3
Instrument: LTQ Orbitrap XL Thermo Scientific
Instrument type: LC-ESI-ITFT
Ms type: MS2
Ion mode: POSITIVE
Ionization: ESI
Fragmentation mode: HCD
Collision energy: 45 % (nominal)
Resolution: 15000
Column name: XBridge C18 3.5um, 2.1x50mm, Waters
Retention time: 13.4 min
Base peak: 388.1064
Precursor m/z: 388.1059
Precursor type: [M+H]+
m/z	relative intensity	assigned
75.0441	4	C3H7O2+
91.0541	10	C7H7+
104.0494	16	C7H6N+
105.0573	36	C7H7N+
106.0652	14	C7H8N+
107.0732	7	C7H9N+
109.0646	6	C7H9O+
117.0569	7	C8H7N+
118.0651	28	C8H8N+
119.0365	46	C7H5NO+
120.0444	38	C7H6NO+
121.0649	9	C8H9O+
128.0496	6	C9H6N+
130.0291	6	C8H4NO+
132.0444	101	C8H6NO+
133.0522	307	C8H7NO+
134.06	78	C8H8NO+
138.0099	3	C7H5ClN+
146.0601	17	C6H11ClN2+
149.0471	360	C8H7NO2+
151.063	6	C8H9NO2+
162.055	129	C9H8NO2+
163.0628	999	C9H9NO2+
164.0705	135	C9H10NO2+
166.0864	10	C9H12NO2+
179.0576	12	C9H9NO3+
194.0813	21	C10H12NO3+
216.0654	3	C12H10NO3+
218.0833	7	C15H10N2+
253.0529	18	C15H10ClN2+
261.0892	17	C12H18ClO4+
281.046	3	C19H7NO2+
296.0584	57	C16H11ClN3O+
324.0523	5	C17H11ClN3O2+
