Mass spectrum: Vinclozolin; LC-ESI-QFT; MS2; CE: 90; R=35000; [M+H]+
Name: Vinclozolin
Name: 3-(3,5-dichlorophenyl)-5-ethenyl-5-methyl-1,3-oxazolidine-2,4-dione
Formula: C12H9Cl2NO3
Exact mass: 284.99595
SMILES: O=C2OC(C(=O)N2c1cc(Cl)cc(Cl)c1)(\C=C)C
InChI: InChI=1S/C12H9Cl2NO3/c1-3-12(2)10(16)15(11(17)18-12)9-5-7(13)4-8(14)6-9/h3-6H,1H2,2H3
Instrument: Q Exactive Orbitrap Thermo Scientific
Instrument type: LC-ESI-QFT
Ms type: MS2
Ion mode: POSITIVE
Ionization: ESI
Fragmentation mode: HCD
Collision energy: 90 (nominal)
Resolution: 35000
Column name: XBridge C18 3.5um, 2.1x50mm, Waters
Retention time: 12.2 min
Base peak: 205.9771
Precursor m/z: 286.0032
Precursor type: [M+H]+
m/z	relative intensity	assigned
62.9995	1	C2H4Cl+
64.0029	1	H2NO3+
67.0542	4	C5H7+
75.0229	8	C6H3+
79.0541	3	C6H7+
80.0495	4	C5H6N+
81.0698	3	C6H9+
91.0542	5	C7H7+
95.049	4	C6H7O+
96.0443	3	C5H6NO+
98.9841	5	CH4ClO3+
102.0463	6	C8H6+
103.0541	5	C8H7+
104.0494	78	C7H6N+
105.0699	1	C8H9+
108.0443	6	C6H6NO+
110.9994	6	C6H4Cl+
112.0073	13	C6H5Cl+
115.0541	53	C9H7+
116.0619	15	C9H8+
117.0697	26	C9H9+
120.0443	11	C7H6NO+
126.0462	2	C10H6+
127.0541	6	C10H7+
128.0494	8	C9H6N+
129.0101	23	C6H6ClO+
130.0055	2	C5H5ClNO+
130.0399	17	C7H4N3+
130.0651	9	C9H8N+
132.9603	5	C5H3Cl2+
138.0104	56	C7H5ClN+
139.0058	23	C9HNO+
139.0182	92	C7H6ClN+
140.0494	19	C10H6N+
141.0572	17	C10H7N+
142.0652	38	C10H8N+
143.0729	120	C10H9N+
144.0807	225	C10H10N+
145.0647	39	C10H9O+
146.06	3	C9H8NO+
146.9762	25	C6H5Cl2+
149.0152	29	C9H6Cl+
150.023	23	C9H7Cl+
151.0182	42	C8H6ClN+
154.0053	2	C7H5ClNO+
154.0651	3	C11H8N+
155.0602	27	C10H7N2+
156.0443	1	C10H6NO+
158.9761	2	C7H5Cl2+
160.0073	2	C10H5Cl+
160.0757	2	C10H10NO+
161.0026	10	C9H4ClN+
162.0108	5	C9H5ClN+
162.023	17	C10H7Cl+
163.0182	3	C9H6ClN+
164.026	251	C9H7ClN+
169.0521	7	C11H7NO+
170.06	24	C11H8NO+
170.9762	1	C8H5Cl2+
171.9716	6	C7H4Cl2N+
172.0752	1	C11H10NO+
172.9668	3	C9ClNO+
173.9871	999	C7H6Cl2N+
174.9708	7	C7H5Cl2O+
176.0261	9	C10H7ClN+
177.0338	54	C10H8ClN+
178.0416	103	C10H9ClN+
179.0496	12	C10H10ClN+
180.021	3	C9H7ClNO+
184.9794	13	C8H5Cl2N+
184.9916	11	C9H7Cl2+
187.0182	24	C11H6ClN+
187.9663	4	C7H4Cl2NO+
188.0703	8	C11H10NO2+
190.0053	1	C10H5ClNO+
197.987	37	C9H6Cl2N+
199.9663	35	C8H4Cl2NO+
204.0212	11	C11H7ClNO+
205.0286	1	C11H8ClNO+
207.0446	3	C11H10ClNO+
210.9949	2	C10H7Cl2N+
212.0027	21	C10H8Cl2N+
213.9821	9	C9H6Cl2NO+
217.9772	3	C8H6Cl2NO2+
221.9872	15	C11H6Cl2N+
