Mass spectrum: Fenthion-sulfone; LC-ESI-QFT; MS2; CE: 15; R=35000; [M+H]+
Name: Fenthion-sulfone
Name: Fenthione sulphone
Name: O,O-Dimethyl O-[3-methyl-4-(methylsulfonyl)phenyl] phosphorothioate
Formula: C10H15O5PS2
Exact mass: 310.00985
SMILES: CC1=C(C=CC(=C1)OP(=S)(OC)OC)S(=O)(=O)C
InChI: InChI=1S/C10H15O5PS2/c1-8-7-9(15-16(17,13-2)14-3)5-6-10(8)18(4,11)12/h5-7H,1-4H3
Instrument: Q Exactive Plus Orbitrap Thermo Scientific
Instrument type: LC-ESI-QFT
Ms type: MS2
Ion mode: POSITIVE
Ionization: ESI
Fragmentation mode: HCD
Collision energy: 15 (nominal)
Resolution: 35000
Column name: XBridge C18 3.5um, 2.1x50mm, Waters
Retention time: 7.8 min
Base peak: 311.0163
Precursor m/z: 311.0171
Precursor type: [M+H]+
m/z	relative intensity	assigned
91.054	1	C7H7+
109.0049	1	C2H6O3P+
124.9819	34	C2H6O2PS+
127.0154	5	C2H8O4P+
137.0419	15	C8H9S+
142.9926	27	C2H8O3PS+
154.9981	1	C7H7S2+
185.0087	1	C8H9OS2+
201.058	1	C9H13O3S+
217.0351	8	C9H13O2S2+
217.0625	2	C9H14O4P+
232.0316	13	C9H13O3PS+
233.0396	16	C9H14O3PS+
247.0552	3	C10H16O3PS+
248.0267	1	C9H13O4PS+
278.9907	15	C9H12O4PS2+
297.0015	17	C9H14O5PS2+
311.0168	999	C10H16O5PS2+
