Mass spectrum: Dimethenamid OXA; LC-ESI-ITFT; MS2; CE: 30%; R=15000; [M+H]+
Name: Dimethenamid OXA
Name: [(2,4-dimethylthiophen-3-yl)(1-methoxypropan-2-yl)amino](oxo)acetic acid
Formula: C12H17NO4S
Exact mass: 271.0878
SMILES: S(C=C1C)C(C)=C1N(C(=O)C(=O)O)C(COC)C
InChI: InChI=1S/C12H17NO4S/c1-7-6-18-9(3)10(7)13(8(2)5-17-4)11(14)12(15)16/h6,8H,5H2,1-4H3,(H,15,16)
Instrument: LTQ Orbitrap XL Thermo Scientific
Instrument type: LC-ESI-ITFT
Ms type: MS2
Ion mode: POSITIVE
Ionization: ESI
Fragmentation mode: HCD
Collision energy: 30 % (nominal)
Resolution: 15000
Column name: XBridge C18 3.5um, 2.1x50mm, Waters
Retention time: 7.5 min
Base peak: 272.0948
Precursor m/z: 272.0951
Precursor type: [M+H]+
m/z	relative intensity	assigned
73.0648	14	C4H9O+
111.0263	4	C6H7S+
126.0372	4	C6H8NS+
128.0528	3	C6H10NS+
129.0369	2	C6H9OS+
138.0372	5	C7H8NS+
151.0577	1	C9H11S+
152.053	1	C8H10NS+
154.0321	9	C7H8NOS+
156.048	1	C7H10NOS+
166.0684	8	C9H12NS+
168.0841	22	C9H14NS+
194.0632	4	C10H12NOS+
196.0791	23	C10H14NOS+
198.0947	8	C10H16NOS+
200.0375	1	C8H10NO3S+
200.1104	11	C10H18NOS+
212.0739	3	C10H14NO2S+
226.0896	8	C11H16NO2S+
240.0687	999	C11H14NO3S+
272.095	7	C12H18NO4S+
