Mass spectrum: Rosuvastatin; LC-ESI-ITFT; MS2; CE: 60%; R=7500; [M+H]+
Name: Rosuvastatin
Name: (E,3R,5S)-7-[4-(4-fluorophenyl)-2-[methyl(methylsulfonyl)amino]-6-propan-2-ylpyrimidin-5-yl]-3,5-dihydroxyhept-6-enoic acid
Formula: C22H28FN3O6S
Exact mass: 481.16828
SMILES: CC(C)C1=NC(=NC(=C1/C=C/[C@H](C[C@H](CC(=O)O)O)O)C2=CC=C(C=C2)F)N(C)S(=O)(=O)C
InChI: InChI=1S/C22H28FN3O6S/c1-13(2)20-18(10-9-16(27)11-17(28)12-19(29)30)21(14-5-7-15(23)8-6-14)25-22(24-20)26(3)33(4,31)32/h5-10,13,16-17,27-28H,11-12H2,1-4H3,(H,29,30)/b10-9+/t16-,17-/m1/s1
Instrument: LTQ Orbitrap XL Thermo Scientific
Instrument type: LC-ESI-ITFT
Ms type: MS2
Ion mode: POSITIVE
Ionization: ESI
Fragmentation mode: HCD
Collision energy: 60 % (nominal)
Resolution: 7500
Column name: XBridge C18 3.5um, 2.1x50mm, Waters
Retention time: 9.2 min
Base peak: 482.1762
Precursor m/z: 482.1756
Precursor type: [M+H]+
m/z	relative intensity	assigned
109.076	17	C6H9N2+
122.0401	19	C7H5FN+
133.0447	167	C9H6F+
148.0557	27	C9H7FN+
149.107	58	C9H13N2+
151.1227	43	C9H15N2+
160.056	14	C7H12O2S+
174.0712	50	C11H9FN+
175.0557	22	C11H8FO+
189.0822	371	C11H10FN2+
201.0821	79	C12H10FN2+
202.103	38	C13H13FN+
203.0977	99	C9H17NO2S+
215.1099	56	C6H18FN3O2S+
216.0929	92	C9H16N2O2S+
216.1172	50	C6H19FN3O2S+
217.1007	107	C12H12FN3+
227.0969	45	C11H17NO2S+
228.0934	41	C18H12+
229.1128	36	C11H19NO2S+
230.1084	139	C10H18N2O2S+
242.1086	124	C14H13FN3+
243.1164	108	C14H14FN3+
244.1113	59	C18H14N+
244.1251	49	C8H21FN2O3S+
254.1089	64	C12H18N2O2S+
255.1162	106	C9H20FN2O3S+
256.1242	315	C12H20N2O2S+
257.1322	152	C15H16FN3+
258.14	999	C15H17FN3+
268.125	78	C16H15FN3+
270.1399	492	C16H17FN3+
272.1555	384	C13H24N2O2S+
282.1395	177	C14H22N2O2S+
300.1505	548	C17H19FN3O+
314.1651	30	C15H26N2O3S+
