Mass spectrum: Anthraquinone; LC-ESI-QFT; MS2; CE: 30%; R=17500; [M+H]+
Name: Anthraquinone
Name: anthracene-9,10-dione
Formula: C14H8O2
Exact mass: 208.0524
SMILES: C1=CC=C2C(=C1)C(=O)C3=CC=CC=C3C2=O
InChI: InChI=1S/C14H8O2/c15-13-9-5-1-2-6-10(9)14(16)12-8-4-3-7-11(12)13/h1-8H
Instrument: Exploris 240 Orbitrap Thermo Scientific
Instrument type: LC-ESI-QFT
Ms type: MS2
Ion mode: POSITIVE
Ionization: ESI
Fragmentation mode: HCD
Collision energy: 30 % (nominal)
Resolution: 17500
Column name: XBridge C18 3.5um, 2.1x50mm, Waters
Retention time: 9.212 min
Base peak: 132.9582
Precursor m/z: 209.0597
Precursor type: [M+H]+
m/z	relative intensity	assigned
209.0596	999	C14H9O2+
