Mass spectrum: Albendazole sulfone; LC-ESI-QFT; MS2; CE: 60; R=35000; [M-H]-
Name: Albendazole sulfone
Name: methyl N-(6-propylsulfonyl-1H-benzimidazol-2-yl)carbamate
Formula: C12H15N3O4S
Exact mass: 297.07833
SMILES: CCCS(=O)(=O)C1=CC2=C(C=C1)N=C(N2)NC(=O)OC
InChI: InChI=1S/C12H15N3O4S/c1-3-6-20(17,18)8-4-5-9-10(7-8)14-11(13-9)15-12(16)19-2/h4-5,7H,3,6H2,1-2H3,(H2,13,14,15,16)
Instrument: Q Exactive Plus Orbitrap Thermo Scientific
Instrument type: LC-ESI-QFT
Ms type: MS2
Ion mode: NEGATIVE
Ionization: ESI
Fragmentation mode: HCD
Collision energy: 60 (nominal)
Resolution: 35000
Column name: XBridge C18 3.5um, 2.1x50mm, Waters
Retention time: 5.7 min
Base peak: 264.0444
Precursor m/z: 296.0711
Precursor type: [M-H]-
m/z	relative intensity	assigned
64.0067	2	C3N2-
65.0145	22	C3HN2-
65.9985	24	C3NO-
68.0016	4	C2N2O-
68.0141	2	C3H2NO-
78.0224	1	C4H2N2-
89.0145	5	C5HN2-
89.9985	1	C5NO-
90.0223	12	C5H2N2-
91.0064	3	C5HNO-
92.0254	27	C4H2N3-
93.0094	7	C4HN2O-
95.025	49	C4H3N2O-
102.0224	5	C6H2N2-
105.0333	8	C5H3N3-
106.0172	179	C5H2N2O-
110.0121	1	C4H2N2O2-
118.0174	3	C6H2N2O-
119.0251	1	C6H3N2O-
120.0091	12	C6H2NO2-
120.0204	1	C5H2N3O-
122.0122	1	C5H2N2O2-
129.0334	5	C7H3N3-
132.0203	14	C6H2N3O-
133.0282	494	C6H3N3O-
134.0122	6	C6H2N2O2-
134.036	2	C6H4N3O-
136.0152	13	C5H2N3O2-
145.0282	19	C7H3N3O-
147.0202	3	C7H3N2O2-
148.0153	2	C6H2N3O2-
149.023	85	C6H3N3O2-
157.0281	999	C8H3N3O-
158.0359	110	C8H4N3O-
160.0152	229	C7H2N3O2-
161.023	16	C7H3N3O2-
162.031	2	C7H4N3O2-
165.0542	2	C7H7N3O2-
173.023	118	C8H3N3O2-
174.0304	3	C8H4N3O2-
188.0103	6	C8H2N3O3-
189.0181	4	C8H3N3O3-
189.0543	22	C9H7N3O2-
192.0415	3	C8H6N3O3-
204.9946	1	C8H3N3O2S-
205.049	1	C9H7N3O3-
220.99	86	C8H3N3O3S-
221.9978	18	C8H4N3O3S-
264.0447	154	C11H10N3O3S-
