Mass spectrum: EPN; LC-ESI-QFT; MS2; CE: 75%; R=17500; [M+H]+
Name: EPN
Name: O-Ethyl O-(4-nitrophenyl) phenylphosphonothioate
Name: ethoxy-(4-nitrophenoxy)-phenyl-sulfanylidene-lambda5-phosphane
Formula: C14H14NO4PS
Exact mass: 323.0381
SMILES: CCOP(=S)(C1=CC=CC=C1)OC2=CC=C(C=C2)[N+](=O)[O-]
InChI: InChI=1S/C14H14NO4PS/c1-2-18-20(21,14-6-4-3-5-7-14)19-13-10-8-12(9-11-13)15(16)17/h3-11H,2H2,1H3
Instrument: Exploris 240 Orbitrap Thermo Scientific
Instrument type: LC-ESI-QFT
Ms type: MS2
Ion mode: POSITIVE
Ionization: ESI
Fragmentation mode: HCD
Collision energy: 75 % (nominal)
Resolution: 17500
Column name: XBridge C18 3.5um, 2.1x50mm, Waters
Retention time: 12.283 min
Base peak: 334.1681
Precursor m/z: 324.0454
Precursor type: [M+H]+
m/z	relative intensity	assigned
53.0386	69	C4H5+
62.9453	623	PS+
64.0309	11	C5H4+
75.023	76	C6H3+
76.0307	24	C6H4+
77.0386	125	C6H5+
78.0465	138	C6H6+
79.0543	36	C6H7+
92.0257	92	C6H4O+
94.0414	561	C6H6O+
95.0491	74	C6H7O+
109.0108	21	C6H5S+
110.0186	448	C6H6S+
123.0316	219	C6H5NO2+
138.9767	187	C6H4PS+
139.0086	28	C6H5NOS+
139.9846	57	C6H5PS+
140.0345	21	C6H6NO3+
141.0101	21	C6H6O2P+
153.9641	20	C6H3OPS+
154.9716	99	C6H4OPS+
156.9873	999	C6H6OPS+
159.021	45	C6H8O3P+
169.0652	16	C8H12NOP+
171.9745	67	C6H5O2PS+
184.0346	15	C8H11NPS+
189.0138	62	C7H10O2PS+
216.0341	31	C12H9O2P+
232.011	17	C12H9OPS+
