Mass spectrum: N,O-Didesmethylvenlafaxine; LC-ESI-ITFT; MS2; CE: 75%; R=15000; [M+H]+
Name: N,O-Didesmethylvenlafaxine
Name: 4-[1-(1-Hydroxycyclohexyl)-2-(methylamino)ethyl]phenol
Formula: C15H23NO2
Exact mass: 249.1729
SMILES: OC2(C(c1ccc(O)cc1)CNC)CCCCC2
InChI: InChI=1S/C15H23NO2/c1-16-11-14(12-5-7-13(17)8-6-12)15(18)9-3-2-4-10-15/h5-8,14,16-18H,2-4,9-11H2,1H3
Instrument: LTQ Orbitrap XL Thermo Scientific
Instrument type: LC-ESI-ITFT
Ms type: MS2
Ion mode: POSITIVE
Ionization: ESI
Fragmentation mode: HCD
Collision energy: 75 % (nominal)
Resolution: 15000
Column name: XBridge C18 3.5um, 2.1x50mm, Waters
Retention time: 4.9 min
Base peak: 250.1809
Precursor m/z: 250.1802
Precursor type: [M+H]+
m/z	relative intensity	assigned
67.0542	19	C5H7+
69.0699	23	C5H9+
79.0542	78	C6H7+
81.0699	121	C6H9+
91.0542	23	C7H7+
105.0699	129	C8H9+
107.0492	999	C7H7O+
117.0696	14	C9H9+
119.0491	11	C8H7O+
121.0648	60	C8H9O+
131.049	19	C9H7O+
131.0856	29	C10H11+
133.0648	545	C9H9O+
135.0678	37	C8H9NO+
144.0569	21	C10H8O+
145.0648	115	C10H9O+
147.0803	16	C10H11O+
150.0914	20	C9H12NO+
159.0804	134	C11H11O+
169.0758	18	C11H9N2+
