Mass spectrum: MCLY; LC-ESI-QFT; MS2; CE: 30%; R=17500; [M+H]+
Name: MCLY
Name: Microcystin LY
Name: (5R,8S,11R,12S,15S,18S,19S,22R)-15-[(4-hydroxyphenyl)methyl]-18-[(1E,3E,5S,6S)-6-methoxy-3,5-dimethyl-7-phenylhepta-1,3-dienyl]-1,5,12,19-tetramethyl-2-methylidene-8-(2-methylpropyl)-3,6,9,13,16,20,25-heptaoxo-1,4,7,10,14,17,21-heptazacyclopentacosane-11,22-dicarboxylic acid
Class: NA
Formula: C52H71N7O13
Exact mass: 1001.5110
SMILES: COC(Cc1ccccc1)C(C)\C=C(C)\C=C/C2NC(=O)C(Cc3ccc(O)cc3)NC(=O)C(C)C(NC(=O)C(CC(C)C)NC(=O)C(C)NC(=O)C(=C)N(C)C(=O)CCC(NC(=O)C2C)C(O)=O)C(O)=O
InChI: InChI=1S/C52H71N7O13/c1-28(2)24-40-50(67)58-44(52(70)71)32(6)46(63)56-41(26-36-17-19-37(60)20-18-36)49(66)54-38(21-16-29(3)25-30(4)42(72-10)27-35-14-12-11-13-15-35)31(5)45(62)55-39(51(68)69)22-23-43(61)59(9)34(8)48(65)53-33(7)47(64)57-40/h11-21,25,28,30-33,38-42,44,60H,8,22-24,26-27H2,1-7,9-10H3,(H,53,65)(H,54,66)(H,55,62)(H,56,63)(H,57,64)(H,58,67)(H,68,69)(H,70,71)/b21-16-,29-25+
Instrument: Q Exactive Plus Orbitrap Thermo Scientific
Instrument type: LC-ESI-QFT
Ms type: MS2
Ion mode: POSITIVE
Ionization: ESI
Fragmentation mode: HCD
Collision energy: 30 % (nominal)
Resolution: 17500
Column name: XBridge C18 3.5um, 2.1x50mm, Waters
Retention time: 10.738 min
Base peak: 164.9846
Precursor m/z: 1002.5183
Precursor type: [M+H]+
m/z	relative intensity	assigned
74.0242	5	C2H4NO2+
79.0542	5	C6H7+
82.0652	6	C5H8N+
84.0444	67	C4H6NO+
86.0964	680	C5H12N+
91.0542	111	C7H7+
93.0698	22	C7H9+
95.0489	6	C6H7O+
95.0855	20	C7H11+
102.055	21	C4H8NO2+
103.0541	48	C8H7+
105.0698	72	C8H9+
107.0855	465	C8H11+
115.054	11	C9H7+
117.0699	32	C9H9+
119.0856	19	C9H11+
121.065	9	C8H9O+
121.1012	9	C9H13+
123.0805	10	C8H11O+
124.0759	20	C7H10NO+
124.1121	130	C8H14N+
127.0865	253	C6H11N2O+
129.0696	7	C10H9+
130.0498	32	C5H8NO3+
131.0855	44	C10H11+
131.118	16	C6H15N2O+
133.1008	23	C10H13+
135.0804	983	C9H11O+
135.1167	363	C10H15+
136.0756	293	C8H10NO+
138.0549	125	C7H8NO2+
140.0704	8	C7H10NO2+
143.0856	64	C11H11+
145.1008	39	C11H13+
146.0961	15	C10H12N+
149.0709	10	C8H9N2O+
150.1276	4	C10H16N+
152.0706	16	C8H10NO2+
155.0815	511	C7H11N2O2+
157.1335	83	C8H17N2O+
159.1169	16	C12H15+
161.0959	75	C11H13O+
162.0918	4	C10H12NO+
162.1282	27	C11H16N+
163.1117	823	C11H15O+
165.091	10	C10H13O2+
167.0815	77	C8H11N2O2+
168.0656	9	C8H10NO3+
169.1001	22	C13H13+
171.0808	14	C12H11O+
171.1175	23	C13H15+
171.1494	10	C9H19N2O+
173.0959	46	C12H13O+
174.1043	7	C12H14O+
175.1117	18	C12H15O+
180.1386	13	C11H18NO+
181.0975	82	C9H13N2O2+
182.0811	14	C9H12NO3+
185.0929	22	C8H13N2O3+
185.1285	81	C9H17N2O2+
188.1068	6	C12H14NO+
190.123	23	C12H16NO+
195.0766	175	C9H11N2O3+
196.061	21	C9H10NO4+
197.1296	24	H23NO10+
198.0764	10	C9H12NO4+
204.1389	13	C13H18NO+
209.1315	91	CH23NO10+
213.0873	999	C9H13N2O4+
214.0711	12	C9H12NO5+
218.1544	116	H22N6O7+
219.1135	40	C12H15N2O2+
221.0925	16	C11H13N2O3+
223.108	42	C11H15N2O3+
225.126	16	C14H15N3+
226.1595	90	C2H22N6O6+
228.1385	18	C15H18NO+
237.1249	99	H21N4O10+
237.1638	203	C18H21+
239.0665	71	C10H11N2O5+
240.1714	13	C14H24O3+
243.1343	108	C11H19N2O4+
246.1492	255	CH22N6O8+
247.1081	114	C13H15N2O3+
248.1646	7	C15H22NO2+
250.1559	39	C15H22O3+
251.1029	25	C12H15N2O4+
258.1857	192	C3H26N6O7+
259.181	18	C3H31O12+
264.134	16	C13H18N3O3+
264.1606	28	C3H26N3O10+
265.1186	889	C13H17N2O4+
265.1591	146	C5H23N5O7+
266.1148	22	C13H12N7+
268.1658	253	C13H22N3O3+
269.1141	34	C13H13N6O+
269.1907	14	C5H27N5O7+
274.1444	37	C2H22N6O9+
275.1038	30	C15H11N6+
275.1748	32	CH29N3O12+
282.1855	79	C19H24NO+
284.1241	24	C12H18N3O5+
287.1749	13	C2H29N3O12+
290.1386	10	C16H20NO4+
292.1286	56	C14H18N3O4+
292.1556	74	C17H18N5+
293.1136	423	H19N7O11+
294.1452	8	C14H20N3O4+
297.185	31	C20H25O2+
303.1715	50	C5H27N4O10+
310.1042	24	C14H12N7O2+
310.1395	218	C14H20N3O5+
314.1714	27	C14H24N3O5+
314.2116	16	C20H28NO2+
319.2028	26	C6H31N4O10+
320.1601	34	C16H22N3O4+
320.2011	24	C22H26NO+
322.1396	17	C15H20N3O5+
329.1862	90	C19H25N2O3+
343.2014	11	C20H27N2O3+
345.1812	13	C5H27N7O10+
347.1966	190	C19H27N2O4+
348.1945	37	C21H24N4O+
351.2033	35	C17H27N4O4+
360.1913	62	C19H26N3O4+
364.1507	39	C17H22N3O6+
375.1915	703	C20H27N2O5+
378.2023	93	C19H28N3O5+
379.1981	10	C18H27N4O5+
384.2278	46	C22H30N3O3+
394.2017	6	C10H30N6O10+
397.2083	339	C18H29N4O6+
400.2216	22	C20H28N6O3+
405.2145	29	C22H31NO6+
406.1971	51	C20H28N3O6+
423.2237	54	C20H31N4O6+
428.2179	31	C23H30N3O5+
431.23	18	C24H33NO6+
446.2288	135	C23H32N3O6+
449.2403	62	C24H35NO7+
477.2366	69	C26H31N5O4+
508.2381	16	C35H30N3O+
509.2679	33	C32H35N3O3+
580.2987	7	C29H44N2O10+
670.3424	31	C46H44N3O2+
