Mass spectrum: Trimethoprim; LC-ESI-ITFT; MS2; CE: 45%; R=7500; [M+H]+
Name: Trimethoprim
Name: 2,4-Diamino-5-(3,4,5-trimethoxybenzyl)pyrimidine
Name: 5-[(3,4,5-trimethoxyphenyl)methyl]pyrimidine-2,4-diamine
Formula: C14H18N4O3
Exact mass: 290.1379
SMILES: c1(Cc2c(nc(N)nc2)N)cc(c(OC)c(c1)OC)OC
InChI: InChI=1S/C14H18N4O3/c1-19-10-5-8(6-11(20-2)12(10)21-3)4-9-7-17-14(16)18-13(9)15/h5-7H,4H2,1-3H3,(H4,15,16,17,18)
Instrument: LTQ Orbitrap XL Thermo Scientific
Instrument type: LC-ESI-ITFT
Ms type: MS2
Ion mode: POSITIVE
Ionization: ESI
Fragmentation mode: HCD
Collision energy: 45 % (nominal)
Resolution: 7500
Column name: XBridge C18 3.5um, 2.1x50mm, Waters
Retention time: 3.8 min
Base peak: 291.1463
Precursor m/z: 291.1452
Precursor type: [M+H]+
m/z	relative intensity	assigned
81.0448	5	C4H5N2+
123.0666	347	C5H7N4+
124.0749	4	C5H8N4+
181.086	27	C10H13O3+
201.079	5	C12H11NO2+
201.1144	7	C11H13N4+
202.1216	9	C11H14N4+
217.1097	14	C13H15NO2+
229.1089	30	C12H13N4O+
230.1164	444	C12H14N4O+
232.0971	7	C13H14NO3+
233.1026	18	C11H13N4O2+
245.1034	261	C12H13N4O2+
246.1115	27	C12H14N4O2+
247.1187	65	C12H15N4O2+
257.1033	44	C13H13N4O2+
258.1112	122	C13H14N4O2+
259.119	9	C13H15N4O2+
260.1261	9	C13H16N4O2+
261.0984	492	C12H13N4O3+
275.114	352	C13H15N4O3+
276.1214	61	C13H16N4O3+
291.1451	999	C14H19N4O3+
