Mass spectrum: Trinexapac; LC-ESI-ITFT; MS2; CE: 35%; R=7500; [M+H]+
Name: Trinexapac
Name: 4-[Cyclopropyl(hydroxy)methylene]-3,5-dioxocyclohexanecarboxylic acid
Formula: C11H12O5
Exact mass: 224.0685
SMILES: C(C1)C1C(O)=C(C(=O)CC2C(=O)O)C(=O)C2
InChI: InChI=1S/C11H12O5/c12-7-3-6(11(15)16)4-8(13)9(7)10(14)5-1-2-5/h5-6,14H,1-4H2,(H,15,16)/b10-9-
Instrument: LTQ Orbitrap XL Thermo Scientific
Instrument type: LC-ESI-ITFT
Ms type: MS2
Ion mode: POSITIVE
Ionization: ESI
Fragmentation mode: CID
Collision energy: 35 % (nominal)
Resolution: 7500
Column name: XBridge C18 3.5um, 2.1x50mm, Waters
Retention time: 6.9 min
Base peak: 225.0758
Precursor m/z: 225.0757
Precursor type: [M+H]+
m/z	relative intensity	assigned
69.0336	310	C4H5O+
83.0494	2	C5H7O+
97.0284	13	C5H5O2+
111.0441	163	C6H7O2+
121.0284	16	C7H5O2+
129.0547	26	C6H9O3+
137.0598	41	C8H9O2+
139.039	501	C7H7O3+
153.0915	6	C9H13O2+
157.0496	999	C7H9O4+
161.0602	4	C10H9O2+
165.0183	146	C8H5O4+
179.0704	65	C10H11O3+
183.0289	311	C8H7O5+
189.0542	6	C11H9O3+
197.081	39	C10H13O4+
201.0396	26	C8H9O6+
207.0653	373	C11H11O4+
