Mass spectrum: Fexofenadine; LC-ESI-QFT; MS2; CE: 75; R=35000; [M-H]-
Name: Fexofenadine
Name: 2-[4-[1-hydroxy-4-[4-[hydroxy(diphenyl)methyl]-1-piperidinyl]butyl]phenyl]-2-methylpropanoic acid
Formula: C32H39NO4
Exact mass: 501.28791
SMILES: CC(C)(C1=CC=C(C=C1)C(CCCN2CCC(CC2)C(C3=CC=CC=C3)(C4=CC=CC=C4)O)O)C(=O)O
InChI: InChI=1S/C32H39NO4/c1-31(2,30(35)36)25-17-15-24(16-18-25)29(34)14-9-21-33-22-19-28(20-23-33)32(37,26-10-5-3-6-11-26)27-12-7-4-8-13-27/h3-8,10-13,15-18,28-29,34,37H,9,14,19-23H2,1-2H3,(H,35,36)
Instrument: Q Exactive Orbitrap Thermo Scientific
Instrument type: LC-ESI-QFT
Ms type: MS2
Ion mode: NEGATIVE
Ionization: ESI
Fragmentation mode: HCD
Collision energy: 75 (nominal)
Resolution: 35000
Column name: XBridge C18 3.5um, 2.1x50mm, Waters
Retention time: 8.2 min
Base peak: 500.2812
Precursor m/z: 500.2806
Precursor type: [M-H]-
m/z	relative intensity	assigned
80.0505	15	C5H6N-
81.0347	31	C5H5O-
82.0662	68	C5H8N-
83.0502	195	C5H7O-
84.0455	100	C4H6NO-
86.0612	37	C4H8NO-
92.0506	90	C6H6N-
94.0665	18	C6H8N-
96.0454	38	C5H6NO-
108.0455	147	C6H6NO-
110.0612	688	C6H8NO-
112.0768	232	C6H10NO-
119.0502	212	C8H7O-
120.0454	201	C7H6NO-
121.0294	57	C7H5O2-
124.0769	46	C7H10NO-
130.0424	241	C9H6O-
131.0502	104	C9H7O-
131.0865	20	C10H11-
133.0659	101	C9H9O-
134.061	22	C8H8NO-
141.0712	46	C11H9-
143.0502	167	C10H7O-
144.058	155	C10H8O-
145.0659	710	C10H9O-
147.0816	158	C10H11O-
157.0658	999	C11H9O-
159.0815	315	C11H11O-
162.0924	31	C10H12NO-
168.082	75	C12H10N-
169.0653	16	C12H9O-
170.0973	123	C12H12N-
171.0812	45	C12H11O-
185.0846	25	C12H11NO-
186.0927	188	C12H12NO-
187.113	26	C13H15O-
188.1081	681	C12H14NO-
190.0873	30	C11H12NO2-
256.1348	18	C16H18NO2-
258.1503	91	C16H20NO2-
