Mass spectrum: Nodularin; LC-ESI-QFT; MS2; CE: 30; R=35000; [M-H]-
Name: Nodularin
Name: (2Z,5R,6S,9S,12S,13S,16R)-9-[3-(diaminomethylideneamino)propyl]-2-ethylidene-12-[(1E,3E,5S,6S)-6-methoxy-3,5-dimethyl-7-phenylhepta-1,3-dienyl]-1,6,13-trimethyl-3,7,10,14,19-pentaoxo-1,4,8,11,15-pentazacyclononadecane-5,16-dicarboxylic acid
Formula: C41H60N8O10
Exact mass: 824.44324
SMILES: NC(=N)NCCC[C@@H]2NC(=O)[C@@H](C)[C@@H](NC(=O)C(=C\C)\N(C)C(=O)CC[C@@H](NC(=O)[C@@H](C)[C@H](/C=C/C(/C)=C/[C@H](C)[C@H](Cc1ccccc1)OC)NC2=O)C(=O)O)C(O)=O
InChI: InChI=1S/C41H60N8O10/c1-8-31-38(54)48-34(40(57)58)26(5)36(52)46-29(15-12-20-44-41(42)43)37(53)45-28(25(4)35(51)47-30(39(55)56)18-19-33(50)49(31)6)17-16-23(2)21-24(3)32(59-7)22-27-13-10-9-11-14-27/h8-11,13-14,16-17,21,24-26,28-30,32,34H,12,15,18-20,22H2,1-7H3,(H,45,53)(H,46,52)(H,47,51)(H,48,54)(H,55,56)(H,57,58)(H4,42,43,44)/b17-16+,23-21+,31-8-/t24-,25-,26-,28-,29-,30+,32-,34+/m0/s1
Instrument: Q Exactive Orbitrap Thermo Scientific
Instrument type: LC-ESI-QFT
Ms type: MS2
Ion mode: NEGATIVE
Ionization: ESI
Fragmentation mode: HCD
Collision energy: 30 (nominal)
Resolution: 35000
Column name: XBridge C18 3.5um, 2.1x50mm, Waters
Retention time: 9.7 min
Base peak: 823.4366
Precursor m/z: 823.436
Precursor type: [M-H]-
m/z	relative intensity	assigned
66.035	2	C4H4N-
67.0302	3	C3H3N2-
72.0455	8	C3H6NO-
73.0295	14	C3H5O2-
74.0247	14	C2H4NO2-
80.0504	1	C5H6N-
81.0457	4	C4H5N2-
82.0299	28	C4H4NO-
84.0455	43	C4H6NO-
86.0248	2	C3H4NO2-
96.0455	3	C5H6NO-
98.0247	3	C4H4NO2-
98.0612	10	C5H8NO-
100.0039	7	C3H2NO3-
101.0721	1	C4H9N2O-
110.0248	70	C5H4NO2-
111.0327	3	C5H5NO2-
111.0565	1	C5H7N2O-
112.0404	46	C5H6NO2-
112.0771	2	C6H10NO-
113.0721	71	C5H9N2O-
114.0561	7	C5H8NO2-
122.0488	2	C6H6N2O-
122.0611	8	C7H8NO-
124.0404	21	C6H6NO2-
125.0245	2	C6H5O3-
126.0563	1	C6H8NO2-
127.0514	19	C5H7N2O2-
128.0353	999	C5H6NO3-
129.0386	1	H7N3O5-
130.0509	12	C5H8NO3-
131.0866	18	C10H11-
136.0515	2	C6H6N3O-
137.072	95	C7H9N2O-
138.056	47	C7H8NO2-
138.0672	86	C6H8N3O-
139.0513	25	C6H7N2O2-
140.0719	7	C7H10NO2-
141.0672	2	C6H9N2O2-
142.0508	3	C6H8NO3-
145.0614	4	C5H9N2O3-
149.072	14	C8H9N2O-
150.0554	2	C8H8NO2-
153.1033	1	C8H13N2O-
154.0139	1	C6H4NO4-
155.0824	7	C7H11N2O2-
155.0938	6	C6H11N4O-
163.0875	6	C9H11N2O-
168.1139	2	C8H14N3O-
178.0986	2	C9H12N3O-
179.0826	2	C9H11N2O2-
180.1142	11	C9H14N3O-
181.0983	28	C9H13N2O2-
184.0613	14	C8H10NO4-
198.125	1	C9H16N3O2-
206.094	2	C10H12N3O2-
