Mass spectrum: Fenthion Oxon Sulfone; LC-ESI-QFT; MS2; CE: 75%; R=17500; [M+H]+
Name: Fenthion Oxon Sulfone
Name: dimethyl (3-methyl-4-methylsulfonylphenyl) phosphate
Formula: C10H15O6PS
Exact mass: 294.0327
SMILES: CC1=C(C=CC(=C1)OP(=O)(OC)OC)S(=O)(=O)C
InChI: InChI=1S/C10H15O6PS/c1-8-7-9(16-17(11,14-2)15-3)5-6-10(8)18(4,12)13/h5-7H,1-4H3
Instrument: Exploris 240 Orbitrap Thermo Scientific
Instrument type: LC-ESI-QFT
Ms type: MS2
Ion mode: POSITIVE
Ionization: ESI
Fragmentation mode: HCD
Collision energy: 75 % (nominal)
Resolution: 17500
Column name: XBridge C18 3.5um, 2.1x50mm, Waters
Retention time: 4.335 min
Base peak: 295.0397
Precursor m/z: 295.04
Precursor type: [M+H]+
m/z	relative intensity	assigned
64.9788	31	H2O2P+
65.0386	227	C5H5+
66.0465	41	C5H6+
67.0543	35	C5H7+
77.0385	96	C6H5+
78.0464	999	C6H6+
78.985	69	CH3O2S+
78.9943	102	CH4O2P+
79.0542	134	C6H7+
89.0384	106	C7H5+
90.0463	174	C7H6+
91.0542	975	C7H7+
93.0333	32	C6H5O+
93.0699	366	C7H9+
94.0414	26	C6H6O+
94.9894	26	CH4O3P+
95.0493	47	C6H7O+
95.9973	28	CH5O3P+
103.0542	495	C8H7+
104.062	814	C8H8+
105.0696	166	C8H9+
107.0494	160	C7H7O+
108.057	84	C7H8O+
109.0046	213	C2H6O3P+
109.0643	36	C7H9O+
112.9996	27	CH6O4P+
117.0702	32	C9H9+
121.0649	215	C8H9O+
122.0727	65	C8H10O+
123.0439	63	C7H7O2+
123.0804	30	C8H11O+
127.0154	731	C2H8O4P+
141.0312	44	C3H10O4P+
155.0258	38	C7H8O2P+
185.036	49	C8H10O3P+
216.055	33	C9H13O4P+
