Mass spectrum: Ranitidine N-oxide; LC-ESI-ITFT; MS2; CE: 75%; R=15000; [M+H]+
Name: Ranitidine N-oxide
Name: 1,1-Ethenediamine, N-(2-(((5-((dimethylamino)methyl)-2-furanyl)methyl)thio)ethyl)-N'-methyl-2-nitro-, N-oxide
Formula: C13H22N4O4S
Exact mass: 330.1362
SMILES: c1(oc(CSCCN\C(=C\[N+](=O)[O-])NC)cc1)CN(C)(C)=O
InChI: InChI=1S/C13H22N4O4S/c1-14-13(8-16(18)19)15-6-7-22-10-12-5-4-11(21-12)9-17(2,3)20/h4-5,8,14-15H,6-7,9-10H2,1-3H3/b13-8+
Instrument: LTQ Orbitrap XL Thermo Scientific
Instrument type: LC-ESI-ITFT
Ms type: MS2
Ion mode: POSITIVE
Ionization: ESI
Fragmentation mode: HCD
Collision energy: 75 % (nominal)
Resolution: 15000
Column name: XBridge C18 3.5um, 2.1x50mm, Waters
Retention time: 2.4 min
Base peak: 331.1444
Precursor m/z: 331.1435
Precursor type: [M+H]+
m/z	relative intensity	assigned
55.0416	26	C3H5N+
56.0495	33	C3H6N+
61.0107	48	C2H5S+
68.0494	17	C4H6N+
81.0335	550	C5H5O+
83.0603	31	C4H7N2+
88.0215	21	C3H6NS+
94.0413	23	C6H6O+
94.0654	27	C6H8N+
95.0492	29	C6H7O+
97.076	500	C5H9N2+
98.0839	199	C5H10N2+
101.0296	24	C4H7NS+
102.0372	999	C4H8NS+
107.0492	193	C7H7O+
109.0763	17	C6H9N2+
110.0604	21	C6H8NO+
115.0325	22	C4H7N2S+
117.0483	40	C4H9N2S+
121.0761	108	C7H9N2+
124.0762	20	C7H10NO+
125.0056	746	C6H5OS+
129.0481	44	C5H9N2S+
130.0559	147	C5H10N2S+
132.0443	65	H10N3O3S+
133.052	60	C8H7NO+
134.0599	28	C8H8NO+
135.0259	32	C8H7S+
135.0917	177	C8H11N2+
148.0757	234	C9H10NO+
149.0715	37	C8H9N2O+
151.0214	22	C8H7OS+
163.0866	84	C9H11N2O+
164.0946	17	C9H12N2O+
165.1023	74	C9H13N2O+
177.1021	95	C10H13N2O+
178.0319	32	C9H8NOS+
181.0793	19	C9H13N2S+
191.1178	30	C11H15N2O+
270.0952	24	C10H14N4O5+
