Mass spectrum: Pirimiphos-Ethyl; LC-ESI-QFT; MS2; CE: 90%; R=17500; [M+H]+
Name: Pirimiphos-Ethyl
Name: 4-diethoxyphosphinothioyloxy-N,N-diethyl-6-methylpyrimidin-2-amine
Formula: C13H24N3O3PS
Exact mass: 333.1276
SMILES: CCN(CC)C1=NC(=CC(=N1)OP(=S)(OCC)OCC)C
InChI: InChI=1S/C13H24N3O3PS/c1-6-16(7-2)13-14-11(5)10-12(15-13)19-20(21,17-8-3)18-9-4/h10H,6-9H2,1-5H3
Instrument: Exploris 240 Orbitrap Thermo Scientific
Instrument type: LC-ESI-QFT
Ms type: MS2
Ion mode: POSITIVE
Ionization: ESI
Fragmentation mode: HCD
Collision energy: 90 % (nominal)
Resolution: 17500
Column name: XBridge C18 3.5um, 2.1x50mm, Waters
Retention time: 12.748 min
Base peak: 334.1347
Precursor m/z: 334.1349
Precursor type: [M+H]+
m/z	relative intensity	assigned
58.9951	68	C2H3S+
67.0291	681	C3H3N2+
69.0084	76	C2HN2O+
70.0652	48	C4H8N+
71.0604	414	C3H7N2+
74.0966	50	C4H12N+
80.9738	61	H2O3P+
83.9901	41	C3H2NS+
84.0444	598	C4H6NO+
84.9856	48	C2HN2S+
88.0217	45	C3H6NS+
94.0655	50	C6H8N+
95.06	148	C5H7N2+
96.9508	888	H2O2PS+
99.0917	999	C5H11N2+
100.0216	864	C4H6NS+
108.0557	742	C5H6N3+
109.0766	42	C2H12N3P+
113.0167	30	C4H5N2S+
114.9612	254	H4O3PS+
115.0326	148	C4H7N2S+
125.0172	293	CH8N3PS+
126.0661	108	C5H8N3O+
136.0873	85	C7H10N3+
137.0715	131	C3H12N3OP+
141.0361	51	C5H7N3S+
142.0435	394	C5H8N3S+
153.0483	236	C3H12N3PS+
154.0433	64	C6H8N3S+
154.0978	350	C7H12N3O+
168.0594	66	C7H10N3S+
170.0746	631	C7H12N3S+
182.1291	109	C9H16N3O+
198.1061	152	C9H16N3S+
