Mass spectrum: Tembotrione; LC-ESI-QFT; MS2; CE: 75; R=35000; [M-H]-
Name: Tembotrione
Name: 2-{2-Chloro-4-(methylsulfonyl)-3-[(2,2,2-trifluoroethoxy)methyl]benzoyl}-1,3-cyclohexanedione
Formula: C17H16ClF3O6S
Exact mass: 440.03082
SMILES: O=C(c1ccc(c(c1Cl)COCC(F)(F)F)S(=O)(=O)C)C2C(=O)CCCC2=O
InChI: InChI=1S/C17H16ClF3O6S/c1-28(25,26)13-6-5-9(15(18)10(13)7-27-8-17(19,20)21)16(24)14-11(22)3-2-4-12(14)23/h5-6,14H,2-4,7-8H2,1H3
Instrument: Q Exactive Orbitrap Thermo Scientific
Instrument type: LC-ESI-QFT
Ms type: MS2
Ion mode: NEGATIVE
Ionization: ESI
Fragmentation mode: HCD
Collision energy: 75 (nominal)
Resolution: 35000
Column name: XBridge C18 3.5um, 2.1x50mm, Waters
Retention time: 9.9 min
Base peak: 439.0241
Precursor m/z: 439.0235
Precursor type: [M-H]-
m/z	relative intensity	assigned
51.0238	16	C4H3-
63.9624	144	O2S-
65.0033	32	C4HO-
65.0397	34	C5H5-
67.0189	34	C4H3O-
68.9957	411	CF3-
78.9859	122	CH3O2S-
79.0001	10	C2HF2O-
83.0138	11	C4H3O2-
89.0398	11	C7H5-
92.0269	8	C6H4O-
93.0346	398	C6H5O-
99.0063	41	C2H2F3O-
115.0552	34	C9H7-
117.0346	217	C8H5O-
119.0502	50	C8H7O-
130.0423	47	C9H6O-
135.0089	8	C7H3O3-
139.0554	93	C11H7-
141.071	74	C11H9-
142.0424	15	C10H6O-
143.0502	188	C10H7O-
145.0295	35	C9H5O2-
153.0712	18	C12H9-
154.0424	11	C11H6O-
155.0503	55	C11H7O-
156.0581	152	C11H8O-
157.0659	10	C11H9O-
161.0244	229	C9H5O3-
167.0501	58	C12H7O-
169.0659	457	C12H9O-
170.0374	57	C11H6O2-
170.0733	15	C12H10O-
171.0452	93	C11H7O2-
172.053	82	C11H8O2-
180.0582	33	C13H8O-
181.0665	25	C13H9O-
182.0373	34	C12H6O2-
182.0738	44	C13H10O-
183.0451	476	C12H7O2-
183.0813	45	C13H11O-
184.053	602	C12H8O2-
185.0608	72	C12H9O2-
187.0223	10	C11H7OS-
193.0658	43	C14H9O-
195.0449	84	C13H7O2-
195.0817	70	C14H11O-
196.0529	98	C13H8O2-
197.0608	690	C13H9O2-
198.0325	13	C12H6O3-
198.0686	51	C13H10O2-
199.0397	14	C10H9F2S-
208.0532	9	C14H8O2-
209.0609	102	C14H9O2-
210.0322	20	C13H6O3-
211.0401	80	C13H7O3-
211.0764	72	C14H11O2-
213.0556	42	C13H9O3-
215.0175	9	C6H6F3O5-
215.035	10	C12H7O4-
216.0428	64	C12H8O4-
221.0611	13	C15H9O2-
222.0687	45	C15H10O2-
223.04	86	C14H7O3-
224.0479	258	C14H8O3-
225.0557	815	C14H9O3-
226.0636	999	C14H10O3-
237.0558	244	C15H9O3-
238.0637	379	C15H10O3-
239.035	63	C14H7O4-
239.0715	121	C15H11O3-
240.0792	86	C15H12O3-
241.05	11	C12H11F2OS-
243.0121	72	C13H7O3S-
258.0532	116	
271.0075	51	C14H7O4S-
