Mass spectrum: N-(2,4-dimethylphenyl)formamide; LC-ESI-QFT; MS2; CE: 45; R=35000; [M+H]+
Name: N-(2,4-dimethylphenyl)formamide
Formula: C9H11NO
Exact mass: 149.08406
SMILES: CC1=C(NC([H])=O)C=CC(C)=C1
InChI: InChI=1S/C9H11NO/c1-7-3-4-9(10-6-11)8(2)5-7/h3-6H,1-2H3,(H,10,11)
Instrument: Q Exactive Plus Orbitrap Thermo Scientific
Instrument type: LC-ESI-QFT
Ms type: MS2
Ion mode: POSITIVE
Ionization: ESI
Fragmentation mode: HCD
Collision energy: 45 (nominal)
Resolution: 35000
Column name: XBridge C18 3.5um, 2.1x50mm, Waters
Retention time: 6.6 min
Base peak: 150.0913
Precursor m/z: 150.0913
Precursor type: [M+H]+
m/z	relative intensity	assigned
77.0385	2	C6H5+
79.0542	9	C6H7+
81.07	1	C6H9+
91.0542	2	C7H7+
95.0855	12	C7H11+
103.0542	5	C8H7+
105.0699	375	C8H9+
106.065	7	C7H8N+
107.073	450	C7H9N+
108.0569	2	C7H8O+
115.0543	4	C9H7+
117.0573	116	C8H7N+
120.057	1	C8H8O+
120.0807	2	C8H10N+
121.0649	1	C8H9O+
121.0888	2	C8H11N+
122.0965	340	C8H12N+
123.0804	401	C8H11O+
130.0652	1	C9H8N+
131.0731	2	C9H9N+
132.0808	549	C9H10N+
133.076	32	C8H9N2+
135.0678	4	C8H9NO+
148.0757	1	C9H10NO+
150.0914	999	C9H12NO+
