Mass spectrum: Flonicamid; LC-ESI-ITFT; MS2; CE: 35%; R=30000; [M+H]+
Name: Flonicamid
Name: N-(cyanomethyl)-4-(trifluoromethyl)-3-pyridinecarboxamide
Formula: C9H6F3N3O
Exact mass: 229.0463
SMILES: O=C(NCC#N)c1cnccc1C(F)(F)F
InChI: InChI=1S/C9H6F3N3O/c10-9(11,12)7-1-3-14-5-6(7)8(16)15-4-2-13/h1,3,5H,4H2,(H,15,16)
Instrument: LTQ Orbitrap XL Thermo Scientific
Instrument type: LC-ESI-ITFT
Ms type: MS2
Ion mode: POSITIVE
Ionization: ESI
Fragmentation mode: CID
Collision energy: 35 % (nominal)
Resolution: 30000
Column name: XBridge C18 3.5um, 2.1x50mm, Waters
Retention time: 3.9 min
Base peak: 230.0537
Precursor m/z: 230.0536
Precursor type: [M+H]+
m/z	relative intensity	assigned
146.0214	2	C6H3F3N+
147.0285	2	C6H4F3N+
148.0373	4	C6H5F3N+
174.0161	583	C7H3F3NO+
176.0316	13	C7H5F3NO+
183.0363	8	C8H5F2N2O+
187.0478	2	C8H6F3N2+
203.0427	999	C8H6F3N2O+
210.0474	2	C9H6F2N3O+
