Mass spectrum: Vinclozolin; LC-ESI-QFT; MS2; CE: 30; R=35000; [M+H]+
Name: Vinclozolin
Name: 3-(3,5-dichlorophenyl)-5-ethenyl-5-methyl-1,3-oxazolidine-2,4-dione
Formula: C12H9Cl2NO3
Exact mass: 284.99595
SMILES: O=C2OC(C(=O)N2c1cc(Cl)cc(Cl)c1)(\C=C)C
InChI: InChI=1S/C12H9Cl2NO3/c1-3-12(2)10(16)15(11(17)18-12)9-5-7(13)4-8(14)6-9/h3-6H,1H2,2H3
Instrument: Q Exactive Orbitrap Thermo Scientific
Instrument type: LC-ESI-QFT
Ms type: MS2
Ion mode: POSITIVE
Ionization: ESI
Fragmentation mode: HCD
Collision energy: 30 (nominal)
Resolution: 35000
Column name: XBridge C18 3.5um, 2.1x50mm, Waters
Retention time: 12.2 min
Base peak: 205.9771
Precursor m/z: 286.0032
Precursor type: [M+H]+
m/z	relative intensity	assigned
61.0284	7	C2H5O2+
62.9996	1	C2H4Cl+
64.003	1	H2NO3+
71.0492	1	C4H7O+
81.0335	13	C5H5O+
81.0699	1	C6H9+
98.9842	3	CH4ClO3+
99.0441	1	C5H7O2+
143.0728	12	C10H9N+
144.0807	14	C10H10N+
149.015	1	C9H6Cl+
151.0183	5	C8H6ClN+
160.9766	3	C3H7Cl2O3+
162.023	1	C10H7Cl+
164.026	99	C9H7ClN+
165.0339	4	C9H8ClN+
171.068	1	C11H9NO+
173.9871	121	C7H6Cl2N+
176.0261	5	C10H7ClN+
177.0339	9	C10H8ClN+
178.0417	109	C10H9ClN+
179.0496	231	C10H10ClN+
184.9793	1	C8H5Cl2N+
185.9873	12	C8H6Cl2N+
188.0705	21	C11H10NO2+
191.013	1	C10H6ClNO+
196.9921	10	C10H7Cl2+
197.9872	11	C9H6Cl2N+
198.9949	6	C9H7Cl2N+
199.9663	9	C8H4Cl2NO+
200.0027	4	C9H8Cl2N+
204.0212	98	C11H7ClNO+
205.0288	16	C11H8ClNO+
206.0368	26	C11H9ClNO+
207.0445	43	C11H10ClNO+
208.016	8	C10H7ClNO2+
212.0028	289	C10H8Cl2N+
214.0185	455	C10H10Cl2N+
216.0652	1	C12H10NO3+
217.977	999	C8H6Cl2NO2+
221.9873	12	C11H6Cl2N+
222.0316	34	C11H9ClNO2+
223.0394	263	C11H10ClNO2+
224.0026	39	C11H8Cl2N+
224.9868	4	C11H7Cl2O+
225.982	12	C10H6Cl2NO+
226.9901	1	C10H7Cl2NO+
229.9771	1	C9H6Cl2NO2+
231.9565	4	C8H4Cl2NO3+
232.0168	1	C12H7ClNO2+
233.0233	6	C12H8ClNO2+
239.9977	241	C11H8Cl2NO+
242.0133	127	C11H10Cl2NO+
243.9928	32	C10H8Cl2NO2+
250.0266	25	C12H9ClNO3+
251.0342	32	C12H10ClNO3+
258.0084	71	C11H10Cl2NO2+
267.9927	71	C12H8Cl2NO2+
286.0031	552	C12H10Cl2NO3+
