Mass spectrum: Methoprotryne; LC-ESI-QFT; MS2; CE: 30%; R=17500; [M+H]+
Name: Methoprotryne
Name: 4-N-(3-methoxypropyl)-6-methylsulfanyl-2-N-propan-2-yl-1,3,5-triazine-2,4-diamine
Formula: C11H21N5OS
Exact mass: 271.1467
SMILES: CC(C)NC1=NC(=NC(=N1)NCCCOC)SC
InChI: InChI=1S/C11H21N5OS/c1-8(2)13-10-14-9(12-6-5-7-17-3)15-11(16-10)18-4/h8H,5-7H2,1-4H3,(H2,12,13,14,15,16)
Instrument: Exploris 240 Orbitrap Thermo Scientific
Instrument type: LC-ESI-QFT
Ms type: MS2
Ion mode: POSITIVE
Ionization: ESI
Fragmentation mode: HCD
Collision energy: 30 % (nominal)
Resolution: 17500
Column name: XBridge C18 3.5um, 2.1x50mm, Waters
Retention time: 6.075 min
Base peak: 272.1537
Precursor m/z: 272.154
Precursor type: [M+H]+
m/z	relative intensity	assigned
198.0806	31	C7H12N5S+
212.097	4	C8H14N5S+
230.1074	39	C8H16N5OS+
240.1278	143	C10H18N5S+
272.154	999	C11H22N5OS+
