Mass spectrum: Pethoxamide; LC-ESI-ITFT; MS2; CE: 75%; R=7500; [M+H]+
Name: Pethoxamide
Name: 2-chloro-N-(2-ethoxyethyl)-N-(2-methyl-1-phenylprop-1-enyl)acetamide
Formula: C16H22ClNO2
Exact mass: 295.1334
SMILES: ClCC(=O)N(CCOCC)\C(=C(\C)C)c1ccccc1
InChI: InChI=1S/C16H22ClNO2/c1-4-20-11-10-18(15(19)12-17)16(13(2)3)14-8-6-5-7-9-14/h5-9H,4,10-12H2,1-3H3
Instrument: LTQ Orbitrap XL Thermo Scientific
Instrument type: LC-ESI-ITFT
Ms type: MS2
Ion mode: POSITIVE
Ionization: ESI
Fragmentation mode: HCD
Collision energy: 75 % (nominal)
Resolution: 7500
Column name: XBridge C18 3.5um, 2.1x50mm, Waters
Retention time: 11.5 min
Base peak: 296.1418
Precursor m/z: 296.1412
Precursor type: [M+H]+
m/z	relative intensity	assigned
91.0543	999	C7H7+
103.0542	35	C8H7+
104.0499	15	C7H6N+
105.07	50	C8H9+
115.0542	45	C9H7+
116.062	217	C9H8+
128.0619	8	C10H8+
129.0699	184	C10H9+
130.0652	4	C9H8N+
131.0856	651	C10H11+
132.0809	6	C9H10N+
143.0603	11	C9H7N2+
145.0889	11	C10H11N+
146.097	6	C10H12N+
148.1122	7	C10H14N+
158.0961	4	C11H12N+
160.1121	73	C11H14N+
172.1121	4	C12H14N+
174.1274	9	C12H16N+
190.1228	3	C12H16NO+
