Mass spectrum: Uvinul-LR; LC-ESI-QFT; MS2; CE: 60%; R=17500; [M-H]-
Name: Uvinul-LR
Name: 2-ethoxyethyl 2-cyano-2-[3-(3-methoxypropylamino)cyclohex-2-en-1-ylidene]acetate
Formula: C17H26N2O4
Exact mass: 322.1893
SMILES: CCOCCOC(=O)C(=C1CCCC(=C1)NCCCOC)C#N
InChI: InChI=1S/C17H26N2O4/c1-3-22-10-11-23-17(20)16(13-18)14-6-4-7-15(12-14)19-8-5-9-21-2/h12,19H,3-11H2,1-2H3
Instrument: Exploris 240 Orbitrap Thermo Scientific
Instrument type: LC-ESI-QFT
Ms type: MS2
Ion mode: NEGATIVE
Ionization: ESI
Fragmentation mode: HCD
Collision energy: 60 % (nominal)
Resolution: 17500
Column name: XBridge C18 3.5um, 2.1x50mm, Waters
Retention time: 6.732 min
Base peak: 321.1817
Precursor m/z: 321.182
Precursor type: [M-H]-
m/z	relative intensity	assigned
59.0141	106	C2H3O2-
61.0297	63	C2H5O2-
65.9985	883	C3NO-
76.0194	79	C5H2N-
89.0148	115	C5HN2-
92.0506	251	C6H6N-
104.0377	197	C6H4N2-
116.0506	143	C8H6N-
117.0458	492	C7H5N2-
118.0536	999	C7H6N2-
128.1083	138	C7H14NO-
130.0172	144	C7H2N2O-
131.0617	142	C8H7N2-
132.0689	239	C8H8N2-
133.0771	623	C8H9N2-
134.0608	58	C8H8NO-
144.0689	37	C9H8N2-
145.077	872	C9H9N2-
146.0848	965	C9H10N2-
158.0487	89	C9H6N2O-
159.0563	315	C9H7N2O-
159.0929	71	C10H11N2-
161.0727	94	C9H9N2O-
163.0875	110	C9H11N2O-
173.1089	99	C11H13N2-
203.1196	119	C12H15N2O-
204.1267	450	C12H16N2O-
205.1343	426	C12H17N2O-
208.0983	74	C11H14NO3-
231.1136	824	C13H15N2O2-
249.1249	136	C13H17N2O3-
321.1831	291	C17H25N2O4-
