Mass spectrum: Cocaine; LC-ESI-ITFT; MS2; CE: 90%; R=30000; [M+H]+
Name: Cocaine
Name: (1S,3S,4R,5R)-3-benzoyloxy-8-methyl-8-azabicyclo[3.2.1]octane-4-carboxylic acid methyl ester
Formula: C17H21NO4
Exact mass: 303.1471
SMILES: CN1C2CCC1C(C(C2)OC(=O)C3=CC=CC=C3)C(=O)OC
InChI: InChI=1S/C17H21NO4/c1-18-12-8-9-13(18)15(17(20)21-2)14(10-12)22-16(19)11-6-4-3-5-7-11/h3-7,12-15H,8-10H2,1-2H3/t12-,13+,14-,15+/m0/s1
Instrument: LTQ Orbitrap XL Thermo Scientific
Instrument type: LC-ESI-ITFT
Ms type: MS2
Ion mode: POSITIVE
Ionization: ESI
Fragmentation mode: HCD
Collision energy: 90 % (nominal)
Resolution: 30000
Column name: XBridge C18 3.5um, 2.1x50mm, Waters
Retention time: 5.0 min
Base peak: 304.1557
Precursor m/z: 304.1543
Precursor type: [M+H]+
m/z	relative intensity	assigned
56.0495	9	C3H6N+
57.0573	9	C3H7N+
65.0386	139	C5H5+
67.0417	13	C4H5N+
67.0542	41	C5H7+
68.0495	184	C4H6N+
70.0652	38	C4H8N+
77.0386	566	C6H5+
79.0542	106	C6H7+
80.0495	6	C5H6N+
81.0572	8	C5H7N+
81.0699	45	C6H9+
82.0652	840	C5H8N+
83.073	180	C5H9N+
84.0444	11	C4H6NO+
91.0543	418	C7H7+
93.0335	106	C6H5O+
93.0699	27	C7H9+
94.0651	155	C6H8N+
95.0491	65	C6H7O+
95.073	11	C6H9N+
96.0807	57	C6H10N+
97.0648	85	C6H9O+
105.0335	999	C7H5O+
105.0447	154	C6H5N2+
106.0652	6	C7H8N+
107.0729	28	C7H9N+
108.0808	108	C7H10N+
109.0645	6	C7H9O+
117.0575	9	C8H7N+
118.0413	27	C8H6O+
119.0492	141	C8H7O+
120.0807	10	C8H10N+
122.06	17	C7H8NO+
122.0964	110	C8H12N+
125.0597	12	C7H9O2+
132.0808	17	C9H10N+
135.0679	50	C8H9NO+
150.0913	35	C9H12NO+
154.0863	38	C8H12NO2+
182.1175	50	C10H16NO2+
