Mass spectrum: Difenacoum; LC-ESI-QFT; MS2; CE: 60%; R=17500; [M-H]-
Name: Difenacoum
Name: 4-hydroxy-3-[3-(4-phenylphenyl)-1,2,3,4-tetrahydronaphthalen-1-yl]chromen-2-one
Formula: C31H24O3
Exact mass: 444.1725
SMILES: C1C(CC2=CC=CC=C2C1C3=C(C4=CC=CC=C4OC3=O)O)C5=CC=C(C=C5)C6=CC=CC=C6
InChI: InChI=1S/C31H24O3/c32-30-26-12-6-7-13-28(26)34-31(33)29(30)27-19-24(18-23-10-4-5-11-25(23)27)22-16-14-21(15-17-22)20-8-2-1-3-9-20/h1-17,24,27,32H,18-19H2
Instrument: Exploris 240 Orbitrap Thermo Scientific
Instrument type: LC-ESI-QFT
Ms type: MS2
Ion mode: NEGATIVE
Ionization: ESI
Fragmentation mode: HCD
Collision energy: 60 % (nominal)
Resolution: 17500
Column name: XBridge C18 3.5um, 2.1x50mm, Waters
Retention time: 15.439 min
Base peak: 443.1649
Precursor m/z: 443.1653
Precursor type: [M-H]-
m/z	relative intensity	assigned
59.014	38	C2H3O2-
93.0346	727	C6H5O-
106.0424	77	C7H6O-
115.0556	36	C9H7-
117.0346	129	C8H5O-
119.0502	139	C8H7O-
135.0452	999	C8H7O2-
143.0502	389	C10H7O-
161.025	29	C9H5O3-
167.0871	36	C13H11-
187.04	245	C11H7O3-
217.0666	34	C16H9O-
219.0815	295	C16H11O-
232.089	63	C17H12O-
245.0979	53	C18H13O-
281.1345	22	C22H17-
293.1337	646	C23H17-
397.1604	139	C30H21O-
399.1762	30	C30H23O-
443.166	111	C31H23O3-
