Mass spectrum: Nateglinide; LC-ESI-QFT; MS2; CE: 15; R=35000; [M+H]+
Name: Nateglinide
Formula: C19H27NO3
Exact mass: 317.19909
SMILES: CC([C@H]1CC[C@@H](CC1)C(=O)N[C@@H](C(=O)O)CC2=CC=CC=C2)C
InChI: InChI=1S/C19H27NO3/c1-13(2)15-8-10-16(11-9-15)18(21)20-17(19(22)23)12-14-6-4-3-5-7-14/h3-7,13,15-17H,8-12H2,1-2H3,(H,20,21)(H,22,23)/t15-,16-,17-/m1/s1
Instrument: Q Exactive Orbitrap Thermo Scientific
Instrument type: LC-ESI-QFT
Ms type: MS2
Ion mode: POSITIVE
Ionization: ESI
Fragmentation mode: HCD
Collision energy: 15 (nominal)
Resolution: 35000
Column name: XBridge C18 3.5um, 2.1x50mm, Waters
Retention time: 13.7 min
Base peak: 318.2065
Precursor m/z: 318.2064
Precursor type: [M+H]+
m/z	relative intensity	assigned
57.0699	20	C4H9+
67.0542	14	C5H7+
69.0698	75	C5H9+
83.0855	57	C6H11+
91.054	1	C7H7+
103.0541	2	C8H7+
120.0808	408	C8H10N+
125.1325	550	C9H17+
149.0597	1	C9H9O2+
153.1274	50	C10H17O+
166.0863	999	C9H12NO2+
272.2009	108	C18H26NO+
300.1959	55	C19H26NO2+
318.2065	778	C19H28NO3+
