Mass spectrum: Thiacloprid-amide; LC-ESI-ITFT; MS2; CE: 35%; R=7500; [M+H]+
Name: Thiacloprid-amide
Name: [3-(6-Chloro-3-pyridylmethyl)thiazolidin-2-ylidene]urea
Formula: C10H11ClN4OS
Exact mass: 270.0342
SMILES: Clc1ncc(cc1)CN2C(=N/C(=O)N)/SCC2
InChI: InChI=1S/C10H11ClN4OS/c11-8-2-1-7(5-13-8)6-15-3-4-17-10(15)14-9(12)16/h1-2,5H,3-4,6H2,(H2,12,16)/b14-10-
Instrument: LTQ Orbitrap XL Thermo Scientific
Instrument type: LC-ESI-ITFT
Ms type: MS2
Ion mode: POSITIVE
Ionization: ESI
Fragmentation mode: CID
Collision energy: 35 % (nominal)
Resolution: 7500
Column name: XBridge C18 3.5um, 2.1x50mm, Waters
Retention time: 4.6 min
Base peak: 271.0418
Precursor m/z: 271.0415
Precursor type: [M+H]+
m/z	relative intensity	assigned
126.01	13	C9H2O+
228.0359	238	C9H11ClN3S+
254.0152	999	C10H9ClN3OS+
