Mass spectrum: Tiapride; LC-ESI-QFT; MS2; CE: 15; R=35000; [M+H]+
Name: Tiapride
Name: N-(2-diethylaminoethyl)-2-methoxy-5-methylsulfonyl-benzamide
Formula: C15H24N2O4S
Exact mass: 328.14568
SMILES: CCN(CC)CCNC(=O)C1=C(C=CC(=C1)S(=O)(=O)C)OC
InChI: InChI=1S/C15H24N2O4S/c1-5-17(6-2)10-9-16-15(18)13-11-12(22(4,19)20)7-8-14(13)21-3/h7-8,11H,5-6,9-10H2,1-4H3,(H,16,18)
Instrument: Q Exactive Orbitrap Thermo Scientific
Instrument type: LC-ESI-QFT
Ms type: MS2
Ion mode: POSITIVE
Ionization: ESI
Fragmentation mode: HCD
Collision energy: 15 (nominal)
Resolution: 35000
Column name: XBridge C18 3.5um, 2.1x50mm, Waters
Retention time: 2.6 min
Base peak: 329.1529
Precursor m/z: 329.153
Precursor type: [M+H]+
m/z	relative intensity	assigned
74.0964	4	C4H12N+
212.0379	1	C9H10NO3S+
250.1663	2	C14H22N2O2+
256.0637	104	C11H14NO4S+
329.1528	999	C15H25N2O4S+
