Mass spectrum: Chlortetracycline; LC-ESI-QFT; MS2; CE: 90; R=35000; [M-H]-
Name: Chlortetracycline
Name: 2-carbamoyl-7-chloro-4-(dimethylazaniumyl)-6,10,11,12a-tetrahydroxy-6-methyl-3,12-dioxo-4,4a,5,5a-tetrahydrotetracen-1-olate
Formula: C22H23ClN2O8
Exact mass: 478.11429
SMILES: CC1(C2CC3C(C(=O)C(=C(C3(C(=O)C2=C(C4=C(C=CC(=C41)Cl)O)O)O)O)C(=O)N)N(C)C)O
InChI: InChI=1S/C22H23ClN2O8/c1-21(32)7-6-8-15(25(2)3)17(28)13(20(24)31)19(30)22(8,33)18(29)11(7)16(27)12-10(26)5-4-9(23)14(12)21/h4-5,7-8,15,26-27,30,32-33H,6H2,1-3H3,(H2,24,31)
Instrument: Q Exactive Plus Orbitrap Thermo Scientific
Instrument type: LC-ESI-QFT
Ms type: MS2
Ion mode: NEGATIVE
Ionization: ESI
Fragmentation mode: HCD
Collision energy: 90 (nominal)
Resolution: 35000
Column name: XBridge C18 3.5um, 2.1x50mm, Waters
Retention time: 5.4 min
Base peak: 477.1067
Precursor m/z: 477.107
Precursor type: [M-H]-
m/z	relative intensity	assigned
50.0036	17	C3N-
55.0188	7	C3H3O-
57.0346	9	C3H5O-
59.0138	69	C2H3O2-
63.024	263	C5H3-
65.0033	114	C4HO-
65.0397	137	C5H5-
65.9985	126	C3NO-
67.0062	48	C3HNO-
67.0189	21	C4H3O-
68.0142	21	C3H2NO-
68.9982	156	C3HO2-
69.0346	20	C4H5O-
71.0139	7	C3H3O2-
75.024	30	C6H3-
77.0397	24	C6H5-
78.0349	5	C5H4N-
79.019	26	C5H3O-
79.0553	52	C6H7-
81.0346	55	C5H5O-
83.0138	18	C4H3O2-
83.0502	66	C5H7O-
84.009	128	C3H2NO2-
86.0247	4	C3H4NO2-
89.0397	87	C7H5-
90.0349	6	C6H4N-
91.019	98	C6H3O-
91.0553	10	C7H7-
93.0346	199	C6H5O-
95.0138	57	C5H3O2-
95.0503	66	C6H7O-
96.0091	84	C4H2NO2-
96.9931	27	C4HO3-
97.0293	14	C5H5O2-
103.019	6	C7H3O-
103.0555	7	C8H7-
105.0345	108	C7H5O-
107.0139	44	C6H3O2-
107.0502	123	C7H7O-
108.0217	72	C6H4O2-
109.0295	198	C6H5O2-
111.0091	6	C5H3O3-
111.0452	104	C6H7O2-
115.0189	40	C8H3O-
115.0555	4	C9H7-
117.0346	217	C8H5O-
118.03	19	C7H4NO-
119.0139	89	C7H3O2-
119.0501	33	C8H7O-
120.009	5	C6H2NO2-
121.0295	93	C7H5O2-
121.0659	28	C8H9O-
122.0248	8	C6H4NO2-
122.0372	24	C7H6O2-
123.0452	205	C7H7O2-
124.004	7	C5H2NO3-
124.98	180	C6H2ClO-
125.9876	7	C6H3ClO-
126.056	48	C6H8NO2-
126.9956	821	C6H4ClO-
129.0348	6	C9H5O-
130.0425	6	C9H6O-
131.0138	25	C8H3O2-
131.0502	26	C9H7O-
132.0217	44	C8H4O2-
133.0295	254	C8H5O2-
134.0248	132	C7H4NO2-
135.0088	177	C7H3O3-
135.0452	151	C8H7O2-
136.0161	9	C7H4O3-
136.0402	21	C7H6NO2-
137.0244	39	C7H5O3-
138.0324	7	C7H6O3-
139.0149	125	C5H3N2O3-
141.0345	8	C10H5O-
141.9826	31	C6H3ClO2-
143.0139	6	C9H3O2-
143.0501	34	C10H7O-
145.0294	70	C9H5O2-
146.0372	8	C9H6O2-
147.0451	45	C9H7O2-
149.0242	39	C8H5O3-
149.0609	26	C9H9O2-
149.9959	4	C7H2O4-
150.0197	21	C7H4NO3-
150.9956	303	C8H4ClO-
153.0114	56	C8H6ClO-
153.0176	4	C5H3N3O3-
154.9905	8	C7H4ClO2-
157.0294	7	C10H5O2-
158.0371	27	C10H6O2-
159.0089	28	C9H3O3-
159.045	21	C10H7O2-
160.0165	60	C9H4O3-
161.0245	69	C9H5O3-
162.0198	65	C8H4NO3-
163.0037	31	C8H3O4-
163.0275	5	C8H5NO3-
163.0397	8	C9H7O3-
166.9903	4	C8H4ClO2-
167.0503	46	C12H7O-
169.0062	999	C8H6ClO2-
170.0373	18	C11H6O2-
171.0452	67	C11H7O2-
173.0244	21	C10H5O3-
174.0322	5	C10H6O3-
175.04	19	C10H7O3-
176.0116	8	C9H4O4-
177.0114	20	C10H6ClO-
177.0306	18	C8H5N2O3-
178.0425	4	C13H6O-
178.9905	79	C9H4ClO2-
179.0501	8	C13H7O-
179.9983	8	C9H5ClO2-
180.0581	33	C13H8O-
181.0659	26	C13H9O-
182.0373	56	C12H6O2-
183.0451	59	C12H7O2-
184.0525	8	C12H8O2-
185.0245	18	C11H5O3-
187.0401	23	C11H7O3-
190.0273	5	C10H6O4-
191.027	16	C11H8ClO-
191.0499	23	C14H7O-
191.9984	36	C10H5ClO2-
193.0061	27	C10H6ClO2-
193.0295	8	C13H5O2-
194.9854	741	C9H4ClO3-
195.0451	75	C13H7O2-
196.053	36	C13H8O2-
197.0009	5	C9H6ClO3-
197.0245	35	C12H5O3-
197.0608	28	C13H9O2-
198.0323	97	C12H6O3-
199.0399	6	C12H7O3-
199.0762	6	C13H11O2-
201.0113	20	C12H6ClO-
203.0269	17	C12H8ClO-
205.0063	45	C11H6ClO2-
206.014	106	C11H7ClO2-
207.0217	62	C11H8ClO2-
207.045	34	C14H7O2-
207.9933	14	C10H5ClO3-
209.0246	7	C13H5O3-
209.061	30	C14H9O2-
211.0403	75	C13H7O3-
212.048	39	C13H8O3-
215.0272	9	C13H8ClO-
217.0059	7	C12H6ClO2-
217.0429	9	C13H10ClO-
219.0223	29	C12H8ClO2-
219.045	38	C15H7O2-
220.0295	7	C12H9ClO2-
220.0528	8	C15H8O2-
221.0014	38	C11H6ClO3-
221.0608	9	C15H9O2-
222.0322	62	C14H6O3-
223.0403	38	C11H10ClNO2-
224.0483	31	C11H11ClNO2-
225.0561	15	C11H12ClNO2-
226.0275	17	C10H9ClNO3-
227.0351	9	C13H7O4-
229.0063	48	C13H6ClO2-
230.0135	8	C13H7ClO2-
231.0214	10	C13H8ClO2-
231.9935	4	C12H5ClO3-
235.0169	33	C12H8ClO3-
235.0402	58	C15H7O3-
236.0469	5	C15H8O3-
237.0557	34	C15H9O3-
238.0039	40	C11H7ClO4-
240.0429	59	C14H8O4-
243.0215	49	C14H8ClO2-
245.001	28	C13H6ClO3-
245.0376	19	C14H10ClO2-
247.0169	21	C13H8ClO3-
247.0399	18	C16H7O3-
248.0476	15	C16H8O3-
249.055	6	C16H9O3-
250.0267	8	C15H6O4-
253.0503	5	C15H9O4-
257.0369	20	C15H10ClO2-
258.0084	5	C15H2N2O3-
259.0167	16	C14H8ClO3-
260.0474	5	C14H11ClNO2-
260.9952	5	C13H6ClO4-
261.0325	6	C14H10ClO3-
263.0344	21	C16H7O4-
269.0002	6	C15H6ClO3-
271.0166	62	C15H8ClO3-
272.9955	7	C14H6ClO4-
273.0326	4	C15H10ClO3-
283.0164	6	C16H8ClO3-
