Mass spectrum: MCLA; LC-ESI-QFT; MS2; CE: 90%; R=17500; [M+H]+
Name: MCLA
Name: Microcystin LA
Name: (5R,8S,11R,12S,15S,18S,19S,22R)-18-[(1E,3E,5S,6S)-6-methoxy-3,5-dimethyl-7-phenylhepta-1,3-dienyl]-1,5,12,15,19-pentamethyl-2-methylidene-8-(2-methylpropyl)-3,6,9,13,16,20,25-heptaoxo-1,4,7,10,14,17,21-heptazacyclopentacosane-11,22-dicarboxylic acid
Class: NA
Formula: C46H67N7O12
Exact mass: 909.4848
SMILES: CO[C@@H](Cc1ccccc1)[C@@H](C)\C=C(C)\C=C\[C@@H]2NC(=O)[C@H](C)NC(=O)[C@@H](C)[C@@H](NC(=O)[C@H](CC(C)C)NC(=O)[C@@H](C)NC(=O)C(=C)N(C)C(=O)CC[C@@H](NC(=O)[C@H]2C)C(O)=O)C(O)=O
InChI: InChI=1S/C46H67N7O12/c1-24(2)21-35-44(60)52-38(46(63)64)28(6)40(56)47-29(7)41(57)49-33(18-17-25(3)22-26(4)36(65-11)23-32-15-13-12-14-16-32)27(5)39(55)50-34(45(61)62)19-20-37(54)53(10)31(9)43(59)48-30(8)42(58)51-35/h12-18,22,24,26-30,33-36,38H,9,19-21,23H2,1-8,10-11H3,(H,47,56)(H,48,59)(H,49,57)(H,50,55)(H,51,58)(H,52,60)(H,61,62)(H,63,64)/b18-17+,25-22+/t26-,27-,28-,29-,30+,33-,34+,35-,36-,38+/m0/s1
Instrument: Q Exactive Plus Orbitrap Thermo Scientific
Instrument type: LC-ESI-QFT
Ms type: MS2
Ion mode: POSITIVE
Ionization: ESI
Fragmentation mode: HCD
Collision energy: 90 % (nominal)
Resolution: 17500
Column name: XBridge C18 3.5um, 2.1x50mm, Waters
Retention time: 10.516 min
Base peak: 164.9846
Precursor m/z: 910.492
Precursor type: [M+H]+
m/z	relative intensity	assigned
65.0386	90	C5H5+
67.0416	12	C4H5N+
67.0542	39	C5H7+
68.0495	12	C4H6N+
69.0335	35	C4H5O+
69.0698	20	C5H9+
70.0652	16	C4H8N+
74.0236	31	C2H4NO2+
77.0385	28	C6H5+
79.0542	296	C6H7+
80.0494	68	C5H6N+
81.0337	4	C5H5O+
81.07	18	C6H9+
82.0287	28	C4H4NO+
82.0651	150	C5H8N+
84.0444	160	C4H6NO+
84.0807	19	C5H10N+
85.0283	22	C4H5O2+
86.0601	17	C4H8NO+
86.0964	120	C5H12N+
91.0543	846	C7H7+
92.062	19	C7H8+
93.0699	141	C7H9+
94.0651	44	C6H8N+
95.0491	349	C6H7O+
95.0854	14	
96.0443	5	C5H6NO+
96.0808	12	C6H10N+
99.0916	69	C5H11N2+
102.0464	28	C8H6+
102.0547	11	C4H8NO2+
103.0542	999	C8H7+
105.0447	118	C6H5N2+
105.0699	469	C8H9+
107.0855	448	C8H11+
108.0682	13	C6H8N2+
109.0648	90	C7H9O+
110.0602	28	C6H8NO+
113.0233	41	C5H5O3+
115.0542	134	C9H7+
116.0622	18	C9H8+
117.0574	8	C8H7N+
117.0698	82	C9H9+
118.0649	8	C8H8N+
119.0604	50	C7H7N2+
119.0856	45	C9H11+
120.0569	15	C8H8O+
120.0806	21	C8H10N+
120.0933	14	C9H12+
121.0664	5	
121.076	84	C7H9N2+
122.06	11	C7H8NO+
122.0838	9	C7H10N2+
123.0916	8	C7H11N2+
127.0866	242	C6H11N2O+
128.0619	54	C10H8+
129.0698	39	C10H9+
130.0652	14	C9H8N+
130.0777	17	C10H10+
131.0855	38	C10H11+
133.1011	14	C10H13+
134.0968	6	C9H12N+
135.0802	34	C9H11O+
135.1167	29	C10H15+
138.0547	6	C7H8NO2+
139.0866	5	C7H11N2O+
141.07	14	C11H9+
144.0807	5	C10H10N+
145.1012	14	C11H13+
146.0963	10	C10H12N+
149.0711	28	C8H9N2O+
165.0701	32	C13H9+
166.0777	11	C13H10+
167.0815	52	C8H11N2O2+
178.0776	10	C14H10+
179.0857	13	C14H11+
