Mass spectrum: 4-Acetamidoantipyrine; LC-ESI-ITFT; MS2; CE: 75%; R=15000; [M+H]+
Name: 4-Acetamidoantipyrine
Name: N-(1,5-dimethyl-3-oxidanylidene-2-phenyl-pyrazol-4-yl)ethanamide
Formula: C13H15N3O2
Exact mass: 245.1164
SMILES: CC(=O)NC=2C(=O)N(c1ccccc1)N(C)C=2C
InChI: InChI=1S/C13H15N3O2/c1-9-12(14-10(2)17)13(18)16(15(9)3)11-7-5-4-6-8-11/h4-8H,1-3H3,(H,14,17)
Instrument: LTQ Orbitrap XL Thermo Scientific
Instrument type: LC-ESI-ITFT
Ms type: MS2
Ion mode: POSITIVE
Ionization: ESI
Fragmentation mode: HCD
Collision energy: 75 % (nominal)
Resolution: 15000
Column name: XBridge C18 3.5um, 2.1x50mm, Waters
Retention time: 3.7 min
Base peak: 246.1244
Precursor m/z: 246.1237
Precursor type: [M+H]+
m/z	relative intensity	assigned
56.0495	229	C3H6N+
58.0651	8	C3H8N+
68.0497	4	C4H6N+
77.0386	78	C6H5+
83.0604	999	C4H7N2+
85.076	13	C4H9N2+
92.0494	6	C6H6N+
94.0651	93	C6H8N+
95.0491	6	C6H7O+
104.0495	530	C7H6N+
105.0447	18	C6H5N2+
118.0653	7	C8H8N+
119.0604	10	C7H7N2+
128.0494	5	C9H6N+
130.0651	7	C9H8N+
131.0602	17	C8H7N2+
132.0443	8	C8H6NO+
144.0683	8	C9H8N2+
144.0806	11	C10H10N+
145.076	12	C9H9N2+
145.089	6	C10H11N+
146.0599	26	C9H8NO+
159.0553	10	C9H7N2O+
159.0916	102	C10H11N2+
171.0556	10	C10H7N2O+
172.0631	22	C10H8N2O+
173.0709	7	C10H9N2O+
185.0707	12	C11H9N2O+
186.0784	9	C11H10N2O+
187.0864	7	C11H11N2O+
189.0901	7	C10H11N3O+
213.0902	5	C12H11N3O+
226.0974	5	C13H12N3O+
