Mass spectrum: Perfluorobutylsulphonamide; LC-ESI-QFT; MS2; CE: 75%; R=15000; [M-H]-
Name: Perfluorobutylsulphonamide
Name: 1,1,2,2,3,3,4,4,4-nonafluorobutane-1-sulfonamide
Formula: C4H2F9NO2S
Exact mass: 298.9663
SMILES: C(C(C(F)(F)S(=O)(=O)N)(F)F)(C(F)(F)F)(F)F
InChI: InChI=1S/C4H2F9NO2S/c5-1(6,3(9,10)11)2(7,8)4(12,13)17(14,15)16/h(H2,14,15,16)
Instrument: Orbitrap Exploris 240 Thermo Scientific
Instrument type: LC-ESI-QFT
Ms type: MS2
Ion mode: NEGATIVE
Ionization: ESI
Fragmentation mode: HCD
Collision energy: 75 % (nominal)
Resolution: 15000
Column name: Atlantis C18 3um, 3.0x150mm, Waters
Retention time: 18.295 min
Base peak: 297.9589
Precursor m/z: 297.959
Precursor type: [M-H]-
Precursor intensity: 1212487296
m/z	relative intensity	assigned
63.9625	7	O2S-
77.9655	999	NO2S-
