Mass spectrum: Ceftazidime; LC-ESI-QFT; MS2; CE: 90; R=35000; [M+H]+
Name: Ceftazidime
Name: (6R,7R)-7-[[(2Z)-2-(2-amino-1,3-thiazol-4-yl)-2-(2-carboxypropan-2-yloxyimino)acetyl]amino]-8-oxo-3-(pyridin-1-ium-1-ylmethyl)-5-thia-1-azabicyclo[4.2.0]oct-2-ene-2-carboxylate
Formula: C22H22N6O7S2
Exact mass: 546.09914
SMILES: O=C2N1/C(=C(\CS[C@@H]1[C@@H]2NC(=O)C(=N\OC(C(=O)O)(C)C)/c3nc(sc3)N)C[n+]4ccccc4)C([O-])=O
InChI: InChI=1S/C22H22N6O7S2/c1-22(2,20(33)34)35-26-13(12-10-37-21(23)24-12)16(29)25-14-17(30)28-15(19(31)32)11(9-36-18(14)28)8-27-6-4-3-5-7-27/h3-7,10,14,18H,8-9H2,1-2H3,(H4-,23,24,25,29,31,32,33,34)/b26-13-/t14-,18-/m1/s1
Instrument: Q Exactive Orbitrap Thermo Scientific
Instrument type: LC-ESI-QFT
Ms type: MS2
Ion mode: POSITIVE
Ionization: ESI
Fragmentation mode: HCD
Collision energy: 90 (nominal)
Resolution: 35000
Column name: XBridge C18 3.5um, 2.1x50mm, Waters
Retention time: 3.4 min
Base peak: 274.0573
Precursor m/z: 547.1064
Precursor type: [M+H]+
m/z	relative intensity	assigned
50.0152	3	C4H2+
53.0387	42	C4H5+
55.0292	33	C2H3N2+
56.0132	19	C2H2NO+
56.9795	5	C2HS+
57.9872	9	C2H2S+
59.0492	310	C3H7O+
59.9665	18	COS+
59.9903	233	CH2NS+
60.9981	2	CH3NS+
62.006	7	CH4NS+
65.0386	15	C5H5+
66.0213	6	C3H2N2+
66.0339	29	C4H4N+
66.0465	4	C5H6+
67.0292	4	C3H3N2+
67.0417	19	C4H5N+
68.0243	68	C2H2N3+
68.037	19	C3H4N2+
68.0495	129	C4H6N+
68.9794	37	C3HS+
69.0084	4	C2HN2O+
69.0336	3	C4H5O+
69.0448	16	C3H5N2+
69.9746	20	C2NS+
70.9824	33	C2HNS+
70.9951	22	C3H3S+
71.9903	113	C2H2NS+
72.9981	67	C2H3NS+
74.0059	18	C2H4NS+
74.99	7	C2H3OS+
78.0339	61	C5H4N+
79.0416	4	C5H5N+
80.0495	401	C5H6N+
81.0448	17	C4H5N2+
81.0573	14	C5H7N+
82.0289	4	C4H4NO+
82.0526	40	C4H6N2+
82.0655	3	C5H8N+
82.9824	53	C3HNS+
82.9951	14	C4H3S+
83.9903	98	C3H2NS+
84.0028	21	C4H4S+
85.0107	382	C4H5S+
85.9695	7	C2NOS+
86.006	13	C3H4NS+
87.0011	28	C2H3N2S+
87.0442	6	C4H7O2+
90.0009	13	C2H4NOS+
90.0339	3	C6H4N+
93.0448	49	C5H5N2+
93.0574	3	C6H7N+
94.04	6	C4H4N3+
94.0524	5	C5H6N2+
94.995	13	C5H3S+
95.0604	54	C5H7N2+
95.9902	4	C4H2NS+
96.0444	65	C5H6NO+
97.0107	280	C5H5S+
97.9934	129	C3H2N2S+
98.0059	20	C4H4NS+
98.9774	23	C3HNOS+
99.0012	127	C3H3N2S+
99.9852	29	C3H2NOS+
100.0091	7	C3H4N2S+
100.0216	7	C4H6NS+
100.9931	6	C3H3NOS+
101.0171	3	C3H5N2S+
104.0495	7	C7H6N+
105.0448	52	C6H5N2+
106.0288	19	C6H4NO+
106.0526	71	C6H6N2+
107.0604	148	C6H7N2+
108.0683	188	C6H8N2+
108.9856	5	C4HN2S+
109.0108	4	C6H5S+
109.076	3	C6H9N2+
110.006	35	C5H4NS+
110.0348	3	C4H4N3O+
111.0012	6	C4H3N2S+
111.0136	3	C5H5NS+
111.0317	5	C5H5NO2+
112.009	43	C4H4N2S+
112.0216	270	C5H6NS+
112.0394	19	C5H6NO2+
114.012	4	C3H4N3S+
114.0373	3	C5H8NS+
114.9962	6	C3H3N2OS+
117.0119	15	C3H5N2OS+
119.0605	25	C7H7N2+
121.0397	5	C6H5N2O+
122.0059	49	C6H4NS+
123.0135	6	C6H5NS+
124.0091	19	C5H4N2S+
124.0216	32	C6H6NS+
125.0043	999	C4H3N3S+
126.0121	544	C4H4N3S+
126.9961	13	C4H3N2OS+
127.02	14	C4H5N3S+
131.0605	3	C8H7N2+
132.0559	3	C7H6N3+
133.0066	6	C3H5N2O2S+
134.0476	4	C7H6N2O+
134.0712	6	C7H8N3+
136.0214	12	C7H6NS+
137.0169	17	C6H5N2S+
138.0122	7	C5H4N3S+
139.0198	231	C5H5N3S+
139.0322	44	C6H7N2S+
140.0165	29	C6H6NOS+
141.0481	14	C6H9N2S+
142.0071	264	C4H4N3OS+
142.9735	3	C4H3N2S2+
144.0226	31	C4H6N3OS+
144.0558	19	C8H6N3+
146.0714	6	C8H8N3+
148.0095	3	CH10NO3S2+
149.0168	18	C7H5N2S+
150.0121	5	C6H4N3S+
150.0249	3	C7H6N2S+
151.0326	4	C7H7N2S+
151.9913	3	C5H2N3OS+
152.0156	5	C5H4N4S+
153.0229	53	C5H5N4S+
154.0071	30	C5H4N3OS+
154.0307	4	C5H6N4S+
156.0556	4	C9H6N3+
157.0635	9	C9H7N3+
161.0165	25	C8H5N2S+
162.0246	17	C8H6N2S+
163.0326	28	C8H7N2S+
167.0148	3	C6H5N3OS+
167.0278	4	C7H7N2OS+
171.0664	7	C9H7N4+
173.082	4	C9H9N4+
174.0247	16	C9H6N2S+
175.0325	17	C9H7N2S+
176.0279	25	C8H6N3S+
178.0437	6	C8H8N3S+
182.0019	67	C6H4N3O2S+
182.0255	7	C6H6N4OS+
184.0743	4	C10H8N4+
188.0282	15	C9H6N3S+
189.0352	7	C9H7N3S+
190.0197	7	C9H6N2OS+
190.0434	14	C9H8N3S+
191.0275	6	C9H7N2OS+
203.0378	4	CH11N6O2S2+
204.9887	3	C9H5N2S2+
205.0544	6	C9H9N4S+
215.0385	4	C10H7N4S+
217.0542	5	C10H9N4S+
