Mass spectrum: 4-Acetamidoantipyrine; LC-ESI-ITFT; MS2; CE: 90%; R=30000; [M+H]+
Name: 4-Acetamidoantipyrine
Name: N-(1,5-dimethyl-3-oxidanylidene-2-phenyl-pyrazol-4-yl)ethanamide
Formula: C13H15N3O2
Exact mass: 245.1164
SMILES: CC(=O)NC=2C(=O)N(c1ccccc1)N(C)C=2C
InChI: InChI=1S/C13H15N3O2/c1-9-12(14-10(2)17)13(18)16(15(9)3)11-7-5-4-6-8-11/h4-8H,1-3H3,(H,14,17)
Instrument: LTQ Orbitrap XL Thermo Scientific
Instrument type: LC-ESI-ITFT
Ms type: MS2
Ion mode: POSITIVE
Ionization: ESI
Fragmentation mode: HCD
Collision energy: 90 % (nominal)
Resolution: 30000
Column name: XBridge C18 3.5um, 2.1x50mm, Waters
Retention time: 3.7 min
Base peak: 246.1244
Precursor m/z: 246.1237
Precursor type: [M+H]+
m/z	relative intensity	assigned
53.0386	9	C4H5+
56.0495	261	C3H6N+
58.0651	5	C3H8N+
68.0495	2	C4H6N+
77.0386	144	C6H5+
83.0604	999	C4H7N2+
85.0762	2	C4H9N2+
92.0495	5	C6H6N+
94.0651	84	C6H8N+
95.0492	15	C6H7O+
104.0495	359	C7H6N+
105.0447	45	C6H5N2+
106.0652	3	C7H8N+
118.0651	11	C8H8N+
119.0604	8	C7H7N2+
128.0495	14	C9H6N+
130.0651	12	C9H8N+
131.0603	10	C8H7N2+
132.0444	5	C8H6NO+
132.0808	13	C9H10N+
144.0681	10	C9H8N2+
144.0808	12	C10H10N+
145.076	8	C9H9N2+
145.089	4	C10H11N+
146.06	15	C9H8NO+
158.0599	2	C10H8NO+
159.0554	3	C9H7N2O+
159.0916	30	C10H11N2+
171.0555	9	C10H7N2O+
172.063	6	C10H8N2O+
185.0712	6	C11H9N2O+
187.0868	3	C11H11N2O+
