Mass spectrum: Flubendazole; LC-ESI-QFT; MS2; CE: 60; R=35000; [M+H]+
Name: Flubendazole
Name: Methyl N-[6-(4-fluorobenzoyl)-1H-benzimidazol-2-yl]carbamate
Formula: C16H12FN3O3
Exact mass: 313.08627
SMILES: COC(=O)NC1=NC2=C(N1)C=C(C=C2)C(=O)C3=CC=C(C=C3)F
InChI: InChI=1S/C16H12FN3O3/c1-23-16(22)20-15-18-12-7-4-10(8-13(12)19-15)14(21)9-2-5-11(17)6-3-9/h2-8H,1H3,(H2,18,19,20,22)
Instrument: Q Exactive Plus Orbitrap Thermo Scientific
Instrument type: LC-ESI-QFT
Ms type: MS2
Ion mode: POSITIVE
Ionization: ESI
Fragmentation mode: HCD
Collision energy: 60 (nominal)
Resolution: 35000
Column name: XBridge C18 3.5um, 2.1x50mm, Waters
Retention time: 8.1 min
Base peak: 314.093
Precursor m/z: 314.0935
Precursor type: [M+H]+
m/z	relative intensity	assigned
50.015	1	C4H2+
51.023	1	C4H3+
71.0292	4	C4H4F+
75.0229	2	C6H3+
79.0178	1	C5H3O+
93.0335	1	C6H5O+
95.0289	6	C6H4F+
99.0241	1	C5H4FO+
113.0397	21	C6H6FO+
123.0241	887	C7H4FO+
123.0351	83	C6H4FN2+
158.0351	1	C8H4N3O+
159.0426	6	C8H5N3O+
160.0507	7	C8H6N3O+
184.0558	3	C12H7FN+
185.0638	1	C12H8FN+
186.03	23	C9H4N3O2+
186.0412	6	C8H4N5O+
191.0327	2	C8H5N3O3+
226.0777	13	C13H9FN3+
254.0725	10	C14H9FN3O+
257.072	1	C14H10FN2O2+
264.057	3	C15H7FN3O+
282.0674	999	C15H9FN3O2+
