Mass spectrum: Ranitidine N-oxide; LC-ESI-ITFT; MS2; CE: 60%; R=7500; [M+H]+
Name: Ranitidine N-oxide
Name: 1,1-Ethenediamine, N-(2-(((5-((dimethylamino)methyl)-2-furanyl)methyl)thio)ethyl)-N'-methyl-2-nitro-, N-oxide
Formula: C13H22N4O4S
Exact mass: 330.1362
SMILES: c1(oc(CSCCN\C(=C\[N+](=O)[O-])NC)cc1)CN(C)(C)=O
InChI: InChI=1S/C13H22N4O4S/c1-14-13(8-16(18)19)15-6-7-22-10-12-5-4-11(21-12)9-17(2,3)20/h4-5,8,14-15H,6-7,9-10H2,1-3H3/b13-8+
Instrument: LTQ Orbitrap XL Thermo Scientific
Instrument type: LC-ESI-ITFT
Ms type: MS2
Ion mode: POSITIVE
Ionization: ESI
Fragmentation mode: HCD
Collision energy: 60 % (nominal)
Resolution: 7500
Column name: XBridge C18 3.5um, 2.1x50mm, Waters
Retention time: 2.4 min
Base peak: 331.1444
Precursor m/z: 331.1435
Precursor type: [M+H]+
m/z	relative intensity	assigned
55.0416	34	C3H5N+
56.0495	24	C3H6N+
61.0108	11	C2H5S+
81.0335	263	C5H5O+
83.0604	34	C4H7N2+
84.0682	38	C4H8N2+
95.0491	32	C6H7O+
97.076	307	C5H9N2+
98.0838	300	C5H10N2+
101.0293	19	C4H7NS+
102.0372	999	C4H8NS+
107.0492	76	C7H7O+
110.0597	28	C6H8NO+
117.0479	32	C4H9N2S+
121.0761	45	C7H9N2+
124.0756	60	C7H10NO+
125.0055	910	C6H5OS+
129.0483	35	C5H9N2S+
130.0558	335	C5H10N2S+
132.0436	16	H10N3O3S+
133.0521	25	C8H7NO+
135.0915	94	C8H11N2+
148.0756	165	C9H10NO+
149.071	41	C8H9N2O+
151.0199	17	C6H5N3S+
163.0863	47	C9H11N2O+
164.0945	50	C9H12N2O+
165.1023	165	C9H13N2O+
167.0631	25	C8H11N2S+
176.0488	109	C5H10N3O2S+
177.1022	140	C10H13N2O+
178.0313	29	C9H8NOS+
181.0795	59	C9H13N2S+
191.1178	124	C11H15N2O+
192.0484	37	C10H10NOS+
223.0889	16	C11H15N2OS+
