Mass spectrum: Cloethocarb; LC-ESI-QFT; MS2; CE: 45%; R=17500; [M+H]+
Name: Cloethocarb
Name: [2-(2-chloro-1-methoxyethoxy)phenyl] N-methylcarbamate
Formula: C11H14ClNO4
Exact mass: 259.0611
SMILES: CNC(=O)OC1=CC=CC=C1OC(CCl)OC
InChI: InChI=1S/C11H14ClNO4/c1-13-11(14)17-9-6-4-3-5-8(9)16-10(7-12)15-2/h3-6,10H,7H2,1-2H3,(H,13,14)
Instrument: Exploris 240 Orbitrap Thermo Scientific
Instrument type: LC-ESI-QFT
Ms type: MS2
Ion mode: POSITIVE
Ionization: ESI
Fragmentation mode: HCD
Collision energy: 45 % (nominal)
Resolution: 17500
Column name: XBridge C18 3.5um, 2.1x50mm, Waters
Retention time: 4.885 min
Base peak: 116.0528
Precursor m/z: 260.0684
Precursor type: [M+H]+
m/z	relative intensity	assigned
108.0445	154	C6H6NO+
123.0678	999	C7H9NO+
126.0104	106	C6H5ClN+
133.052	136	C8H7NO+
143.0134	491	C6H6ClNO+
143.0264	32	C7H8ClO+
150.0549	66	C8H8NO2+
158.0375	85	C7H9ClNO+
167.9972	73	C8H5ClO2+
170.0003	853	C7H5ClNO2+
171.008	737	C7H6ClNO2+
179.058	79	C9H9NO3+
183.9954	604	C11H3ClN+
186.0314	182	C8H9ClNO2+
197.024	330	C9H8ClNO2+
214.0267	105	C9H9ClNO3+
