Mass spectrum: Dimethenamide ESA; LC-ESI-ITFT; MS2; CE: 75%; R=15000; [M+H]+
Name: Dimethenamide ESA
Name: 2-[(2,4-Dimethyl-3-thienyl)(1-methoxy-2-propanyl)amino]-2-oxoethanesulfonic acid
Formula: C12H19NO5S2
Exact mass: 321.0705
SMILES: S(C=C1C)C(C)=C1N(C(=O)CS(=O)(=O)O)C(COC)C
InChI: InChI=1S/C12H19NO5S2/c1-8-6-19-10(3)12(8)13(9(2)5-18-4)11(14)7-20(15,16)17/h6,9H,5,7H2,1-4H3,(H,15,16,17)
Instrument: LTQ Orbitrap XL Thermo Scientific
Instrument type: LC-ESI-ITFT
Ms type: MS2
Ion mode: POSITIVE
Ionization: ESI
Fragmentation mode: HCD
Collision energy: 75 % (nominal)
Resolution: 15000
Column name: XBridge C18 3.5um, 2.1x50mm, Waters
Retention time: 6.7 min
Base peak: 322.0788
Precursor m/z: 322.0777
Precursor type: [M+H]+
m/z	relative intensity	assigned
58.9951	5	C2H3S+
65.0386	2	C5H5+
73.0648	69	C4H9O+
77.0386	6	C6H5+
79.0543	11	C6H7+
82.0652	21	C5H8N+
83.0492	9	C5H7O+
85.0108	9	C4H5S+
91.0543	17	C7H7+
93.07	16	C7H9+
94.0651	28	C6H8N+
95.073	57	C6H9N+
97.0107	17	C5H5S+
99.0264	18	C5H7S+
105.0574	6	C7H7N+
105.0699	8	C8H9+
106.0652	4	C7H8N+
107.0855	8	C8H11+
108.0808	25	C7H10N+
111.0264	287	C6H7S+
112.0216	9	C5H6NS+
112.0342	98	C6H8S+
113.0294	24	C5H7NS+
113.042	37	C6H9S+
114.0373	12	C5H8NS+
117.0699	16	C9H9+
118.0651	17	C8H8N+
119.073	66	C8H9N+
120.0808	35	C8H10N+
121.0885	6	C8H11N+
122.0966	12	C8H12N+
123.0259	5	C7H7S+
124.0216	7	C6H6NS+
124.0341	20	C7H8S+
124.0754	4	C7H10NO+
125.0294	63	C6H7NS+
125.042	182	C7H9S+
126.0372	427	C6H8NS+
127.0213	34	C6H7OS+
127.0451	65	C6H9NS+
127.0575	10	C7H11S+
128.0529	89	C6H10NS+
132.0807	26	C9H10N+
133.0887	63	C9H11N+
134.0965	379	C9H12N+
135.0263	79	C8H7S+
135.1042	48	C9H13N+
136.022	3	C7H6NS+
136.1119	6	C9H14N+
137.0294	25	C7H7NS+
137.0421	8	C8H9S+
138.0372	269	C7H8NS+
139.0451	21	C7H9NS+
139.0576	11	C8H11S+
140.0529	35	C7H10NS+
148.0215	3	C8H6NS+
148.1121	9	C10H14N+
149.042	75	C9H9S+
150.0372	87	C8H8NS+
150.0498	65	C9H10S+
151.0211	6	C8H7OS+
151.0451	94	C8H9NS+
151.0576	29	C9H11S+
152.0165	243	C7H6NOS+
152.0529	999	C8H10NS+
153.0607	33	C8H11NS+
154.0324	7	C7H8NOS+
154.0687	12	C8H12NS+
162.0915	15	C10H12NO+
164.0538	6	C3H16O3S2+
165.073	3	C10H13S+
166.0322	81	C8H8NOS+
166.0685	713	C9H12NS+
167.0398	22	C8H9NOS+
167.0764	106	C9H13NS+
168.0478	48	C8H10NOS+
168.0842	184	C9H14NS+
176.1071	41	C11H14NO+
194.0634	86	C10H12NOS+
208.0796	13	C5H20O4S2+
210.0947	43	C11H16NOS+
290.0599	15	C7H18N2O6S2+
