Mass spectrum: Morphine; LC-ESI-ITFT; MS2; CE: 75%; R=15000; [M+H]+
Name: Morphine
Name: (4R,4aR,7S,7aR,12bS)-3-methyl-2,4,4a,7,7a,13-hexahydro-1H-4,12-methanobenzofuro[3,2-e]isoquinoline-7,9-diol
Formula: C17H19NO3
Exact mass: 285.1364935
SMILES: CN1CC[C@]23[C@@H]4[C@H]1CC5=C2C(=C(C=C5)O)O[C@H]3[C@H](C=C4)O
InChI: InChI=1S/C17H19NO3/c1-18-7-6-17-10-3-5-13(20)16(17)21-15-12(19)4-2-9(14(15)17)8-11(10)18/h2-5,10-11,13,16,19-20H,6-8H2,1H3/t10-,11+,13-,16-,17-/m0/s1
Instrument: LTQ Orbitrap XL Thermo Scientific
Instrument type: LC-ESI-ITFT
Ms type: MS2
Ion mode: POSITIVE
Ionization: ESI
Fragmentation mode: HCD
Collision energy: 75 % (nominal)
Resolution: 15000
Column name: XBridge C18 3.5um, 2.1x50mm, Waters
Retention time: 1.1 min
Base peak: 286.1448
Precursor m/z: 286.1438
Precursor type: [M+H]+
m/z	relative intensity	assigned
55.0179	51	C3H3O+
57.0335	36	C3H5O+
58.0651	204	C3H8N+
67.0542	27	C5H7+
69.0334	24	C4H5O+
81.0333	34	C5H5O+
83.0492	40	C5H7O+
91.0542	101	C7H7+
93.07	20	C7H9+
103.0542	50	C8H7+
105.0699	27	C8H9+
107.0489	41	C7H7O+
115.0543	64	C9H7+
117.0699	103	C9H9+
121.0647	64	C8H9O+
123.0441	155	C7H7O2+
128.0618	33	C10H8+
129.0699	97	C10H9+
131.0492	48	C9H7O+
135.0445	23	C8H7O2+
137.06	17	C8H9O2+
141.0699	132	C11H9+
143.0857	65	C11H11+
144.0568	61	C10H8O+
145.0648	329	C10H9O+
145.1013	43	C11H13+
146.0968	18	C10H12N+
147.044	294	C9H7O2+
149.0595	24	C9H9O2+
151.0543	16	C12H7+
152.0619	77	C12H8+
153.0699	831	C12H9+
154.0775	23	C12H10+
155.0604	108	C10H7N2+
155.0856	738	C12H11+
157.0648	834	C11H9O+
158.0728	71	C11H10O+
158.0959	19	C11H12N+
159.0804	64	C11H11O+
160.052	85	C10H8O2+
160.076	19	C10H10NO+
161.0598	86	C10H9O2+
162.0913	27	C10H12NO+
165.0699	953	C13H9+
166.0776	155	C13H10+
167.0853	70	C13H11+
168.0569	84	C12H8O+
169.0649	104	C12H9O+
170.0726	24	C12H10O+
171.044	116	C11H7O2+
171.0804	126	C12H11O+
172.0518	52	C11H8O2+
173.0597	362	C11H9O2+
173.0961	124	C12H13O+
178.0776	79	C14H10+
178.0865	33	C10H12NO2+
179.0855	94	C14H11+
181.0648	999	C13H9O+
181.1014	117	C14H13+
182.0731	45	C13H10O+
183.0804	582	C13H11O+
184.0519	180	C12H8O2+
185.0597	857	C12H9O2+
186.0676	96	C12H10O2+
187.0756	69	C12H11O2+
189.0704	26	C15H9+
190.0777	92	C15H10+
191.0856	359	C15H11+
193.0649	178	C14H9O+
193.0758	41	C13H9N2+
193.1013	44	C15H13+
194.0726	147	C14H10O+
195.08	27	C14H11O+
197.0598	67	C13H9O2+
198.0676	174	C13H10O2+
199.0754	273	C13H11O2+
201.0707	33	C16H9+
201.0911	600	C13H13O2+
202.0779	24	C16H10+
203.0855	23	C16H11+
207.0803	39	C15H11O+
209.0598	480	C14H9O2+
209.0959	126	C15H13O+
211.0753	458	C14H11O2+
213.0544	31	C13H9O3+
218.0732	48	C16H10O+
219.0805	110	C16H11O+
221.0956	57	C16H13O+
222.067	38	C15H10O2+
227.0704	302	C14H11O3+
229.0859	150	C14H13O3+
237.0913	71	C16H13O2+
239.1061	22	C16H15O2+
252.1022	17	C16H14NO2+
268.1342	47	C17H18NO2+
286.1438	546	C17H20NO3+
