Mass spectrum: Ethofumesate; LC-ESI-ITFT; MS2; CE: 75%; R=7500; [M+H]+
Name: Ethofumesate
Name: (2-ethoxy-3,3-dimethyl-2H-1-benzofuran-5-yl) methanesulfonate
Formula: C13H18O5S
Exact mass: 286.0869
SMILES: S(=O)(=O)(C)O-c(ccc1O2)cc1C(C2OCC)(C)C
InChI: InChI=1S/C13H18O5S/c1-5-16-12-13(2,3)10-8-9(18-19(4,14)15)6-7-11(10)17-12/h6-8,12H,5H2,1-4H3
Instrument: LTQ Orbitrap XL Thermo Scientific
Instrument type: LC-ESI-ITFT
Ms type: MS2
Ion mode: POSITIVE
Ionization: ESI
Fragmentation mode: HCD
Collision energy: 75 % (nominal)
Resolution: 7500
Column name: XBridge C18 3.5um, 2.1x50mm, Waters
Retention time: 10.0 min
Base peak: 309.0774
Precursor m/z: 287.0948
Precursor type: [M+H]+
m/z	relative intensity	assigned
53.0385	8	C4H5+
55.018	9	C3H3O+
65.0388	8	C5H5+
68.9971	8	C3HO2+
77.0386	90	C6H5+
78.0467	7	C6H6+
79.0543	148	C6H7+
81.0006	33	CH5O2S+
81.0334	7	C5H5O+
81.0699	68	C6H9+
91.0543	395	C7H7+
93.07	208	C7H9+
95.0492	34	C6H7O+
103.0544	397	C8H7+
105.07	784	C8H9+
106.0778	41	C8H10+
107.0493	115	C7H7O+
107.0851	8	C8H11+
109.0285	59	C6H5O2+
109.0649	87	C7H9O+
115.0544	309	C9H7+
116.062	26	C9H8+
117.07	103	C9H9+
119.0493	68	C8H7O+
121.0649	999	C8H9O+
123.0443	45	C7H7O2+
133.065	624	C9H9O+
134.0728	279	C9H10O+
135.0805	79	C9H11O+
137.0598	272	C8H9O2+
138.068	8	C8H10O2+
143.0494	56	C10H7O+
144.0569	28	C10H8O+
145.0649	79	C10H9O+
147.0441	56	C9H7O2+
149.0963	11	C10H13O+
155.0605	31	C10H7N2+
161.0599	292	C10H9O2+
162.0677	156	C10H10O2+
163.0753	38	C10H11O2+
173.0711	113	C10H9N2O+
185.0272	12	C8H9O3S+
