Mass spectrum: Guanylurea; LC-ESI-QFT; MS2; CE: 45; R=35000; [M+H]+
Name: Guanylurea
Name: diaminomethylideneurea
Formula: C2H6N4O
Exact mass: 102.05416
SMILES: O=C(/N=C(\N)N)N
InChI: InChI=1S/C2H6N4O/c3-1(4)6-2(5)7/h(H6,3,4,5,6,7)
Instrument: Q Exactive Orbitrap Thermo Scientific
Instrument type: LC-ESI-QFT
Ms type: MS2
Ion mode: POSITIVE
Ionization: ESI
Fragmentation mode: HCD
Collision energy: 45 (nominal)
Resolution: 35000
Column name: XBridge C18 3.5um, 2.1x50mm, Waters
Retention time: 0.8 min
Base peak: 103.0617
Precursor m/z: 103.0614
Precursor type: [M+H]+
m/z	relative intensity	assigned
60.0556	999	CH6N3+
61.0396	5	CH5N2O+
69.0083	5	C2HN2O+
86.0349	224	C2H4N3O+
103.0614	208	C2H7N4O+
