Mass spectrum: Isopropalin; LC-ESI-QFT; MS2; CE: 120%; R=17500; [M+H]+
Name: Isopropalin
Name: 2,6-dinitro-4-propan-2-yl-N,N-dipropylaniline
Formula: C15H23N3O4
Exact mass: 309.1689
SMILES: CCCN(CCC)C1=C(C=C(C=C1[N+](=O)[O-])C(C)C)[N+](=O)[O-]
InChI: InChI=1S/C15H23N3O4/c1-5-7-16(8-6-2)15-13(17(19)20)9-12(11(3)4)10-14(15)18(21)22/h9-11H,5-8H2,1-4H3
Instrument: Exploris 240 Orbitrap Thermo Scientific
Instrument type: LC-ESI-QFT
Ms type: MS2
Ion mode: POSITIVE
Ionization: ESI
Fragmentation mode: HCD
Collision energy: 120 % (nominal)
Resolution: 17500
Column name: XBridge C18 3.5um, 2.1x50mm, Waters
Retention time: 15.043 min
Base peak: 310.1757
Precursor m/z: 310.1761
Precursor type: [M+H]+
m/z	relative intensity	assigned
51.023	99	C4H3+
52.0181	96	C3H2N+
53.0386	165	C4H5+
65.0386	355	C5H5+
77.0384	343	C6H5+
78.034	115	C5H4N+
78.0464	158	C6H6+
79.054	389	C6H7+
80.0495	112	C5H6N+
89.0386	292	C7H5+
90.0462	97	C7H6+
91.0542	999	C7H7+
92.0496	128	C6H6N+
93.0573	137	C6H7N+
94.0654	92	C6H8N+
95.0494	98	C6H7O+
103.0541	238	C8H7+
104.0495	275	C7H6N+
105.0447	212	C6H5N2+
105.0699	99	C8H9+
106.0652	230	C7H8N+
116.0496	428	C8H6N+
117.0574	478	C8H7N+
117.07	196	C9H9+
118.0652	922	C8H8N+
119.0606	108	C7H7N2+
130.065	181	C9H8N+
131.0607	228	C8H7N2+
132.0679	214	C8H8N2+
143.0605	134	C9H7N2+
144.0683	187	C9H8N2+
145.0758	407	C9H9N2+
157.0764	116	C10H9N2+
159.0918	106	C10H11N2+
171.0915	282	C11H11N2+
173.1071	72	C11H13N2+
