Mass spectrum: Metaxalone; LC-ESI-QFT; MS2; CE: 30; R=35000; [M-H]-
Name: Metaxalone
Name: Methaxalonum
Name: 5-[(3,5-dimethylphenoxy)methyl]-1,3-oxazolidin-2-one
Formula: C12H15NO3
Exact mass: 221.10519
SMILES: CC1=CC(OCC2CNC(=O)O2)=CC(C)=C1
InChI: InChI=1S/C12H15NO3/c1-8-3-9(2)5-10(4-8)15-7-11-6-13-12(14)16-11/h3-5,11H,6-7H2,1-2H3,(H,13,14)
Instrument: Q Exactive Orbitrap Thermo Scientific
Instrument type: LC-ESI-QFT
Ms type: MS2
Ion mode: NEGATIVE
Ionization: ESI
Fragmentation mode: HCD
Collision energy: 30 (nominal)
Resolution: 35000
Column name: XBridge C18 3.5um, 2.1x50mm, Waters
Retention time: 7.8 min
Base peak: 218.0311
Precursor m/z: 220.0979
Precursor type: [M-H]-
m/z	relative intensity	assigned
130.0172	804	C7H2N2O-
131.0137	235	C8H3O2-
144.0325	22	C8H4N2O-
145.029	10	C9H5O2-
176.0223	50	C8H4N2O3-
220.0359	999	C9H6N3O4-
