Mass spectrum: Candesartan; LC-ESI-ITFT; MS2; CE: 60%; R=15000; [M+H]+
Name: Candesartan
Name: 2-ethoxy-3-[4-[2-(2H-tetrazol-5-yl)phenyl]benzyl]benzimidazole-4-carboxylic acid
Formula: C24H20N6O3
Exact mass: 440.1597
SMILES: c1(ccccc1c1ccc(Cn2c(nc3c2c(C(=O)O)ccc3)OCC)cc1)c1nnn[nH]1
InChI: InChI=1S/C24H20N6O3/c1-2-33-24-25-20-9-5-8-19(23(31)32)21(20)30(24)14-15-10-12-16(13-11-15)17-6-3-4-7-18(17)22-26-28-29-27-22/h3-13H,2,14H2,1H3,(H,31,32)(H,26,27,28,29)
Instrument: LTQ Orbitrap XL Thermo Scientific
Instrument type: LC-ESI-ITFT
Ms type: MS2
Ion mode: POSITIVE
Ionization: ESI
Fragmentation mode: HCD
Collision energy: 60 % (nominal)
Resolution: 15000
Column name: XBridge C18 3.5um, 2.1x50mm, Waters
Retention time: 9.3 min
Base peak: 441.1683
Precursor m/z: 441.167
Precursor type: [M+H]+
m/z	relative intensity	assigned
77.0388	13	C6H5+
80.0496	23	C5H6N+
115.0541	27	C9H7+
129.0447	21	C8H5N2+
140.0496	63	C10H6N+
145.0397	21	C8H5N2O+
152.0621	156	C12H8+
153.0699	281	C12H9+
161.0346	234	C8H5N2O2+
163.0542	53	C13H7+
165.0699	963	C13H9+
166.0652	45	C12H8N+
166.0774	31	C13H10+
167.0727	64	C12H9N+
167.0857	142	C13H11+
173.0346	95	C9H5N2O2+
177.0574	137	C13H7N+
177.0696	60	C14H9+
178.0656	70	C13H8N+
178.0778	703	C14H10+
179.0452	34	C8H7N2O3+
179.073	103	C13H9N+
179.0858	43	C14H11+
180.0808	954	C13H10N+
181.0763	20	C12H9N2+
189.066	79	C10H9N2O2+
190.0652	826	C14H8N+
191.073	460	C14H9N+
192.0683	315	C13H8N2+
192.0808	999	C14H10N+
193.0759	21	C13H9N2+
193.0886	428	C14H11N+
194.0965	550	C14H12N+
196.0751	23	C13H10NO+
203.0734	15	C15H9N+
205.076	348	C14H9N2+
206.0839	628	C14H10N2+
207.0917	856	C14H11N2+
208.1123	97	C15H14N+
210.0913	324	C14H12NO+
217.0886	78	C16H11N+
218.0968	69	C16H12N+
219.0917	189	C15H11N2+
220.0998	95	C15H12N2+
233.107	81	C16H13N2+
234.1153	222	C16H14N2+
235.1229	165	C16H15N2+
263.1325	26	C7H17N7O4+
279.0905	24	C20H11N2+
282.0918	33	C20H12NO+
296.1173	22	C20H14N3+
297.1017	16	C20H13N2O+
306.1024	27	C23H14O+
308.0956	30	C21H12N2O+
308.1186	121	C21H14N3+
309.1025	164	C21H13N2O+
310.1108	49	C21H14N2O+
321.0896	15	C19H9N6+
322.0969	50	C21H12N3O+
324.1135	119	C21H14N3O+
334.0966	34	C20H10N6+
337.0969	51	C22H13N2O2+
348.101	33	C24H14NO2+
349.1074	43	C22H13N4O+
350.0923	42	C22H12N3O2+
351.1004	56	C22H13N3O2+
352.1083	153	C22H14N3O2+
