Mass spectrum: Azoxystrobin; LC-ESI-ITFT; MS2; CE: 60%; R=7500; [M+H]+
Name: Azoxystrobin
Name: Methyl (E)-2-[2-[6-(2-cyanophenoxy)pyrimidin-4-YL]oxyphenyl]-3-methoxy-prop-2-enoate
Formula: C22H17N3O5
Exact mass: 403.1168206
SMILES: CO/C=C(\C1=CC=CC=C1OC2=NC=NC(=C2)OC3=CC=CC=C3C#N)/C(=O)OC
InChI: InChI=1S/C22H17N3O5/c1-27-13-17(22(26)28-2)16-8-4-6-10-19(16)30-21-11-20(24-14-25-21)29-18-9-5-3-7-15(18)12-23/h3-11,13-14H,1-2H3/b17-13+
Instrument: LTQ Orbitrap XL Thermo Scientific
Instrument type: LC-ESI-ITFT
Ms type: MS2
Ion mode: POSITIVE
Ionization: ESI
Fragmentation mode: HCD
Collision energy: 60 % (nominal)
Resolution: 7500
Column name: XBridge C18 3.5um, 2.1x50mm, Waters
Retention time: 9.9 min
Base peak: 404.1245
Precursor m/z: 404.1241
Precursor type: [M+H]+
m/z	relative intensity	assigned
89.0384	19	C7H5+
103.0421	8	C7H5N+
107.0489	25	C7H7O+
114.0337	18	C8H4N+
120.0442	45	C7H6NO+
129.0331	21	C9H5O+
129.0446	89	C8H5N2+
130.0293	9	C8H4NO+
130.0398	53	C7H4N3+
133.0286	10	C8H5O2+
133.0521	80	C8H7NO+
134.0599	173	C8H8NO+
141.0447	45	C9H5N2+
143.0361	35	C9H5NO+
143.0603	84	C9H7N2+
144.0443	13	C9H6NO+
145.0284	42	C9H5O2+
145.0522	63	C9H7NO+
154.0526	12	C10H6N2+
155.06	21	C10H7N2+
156.0442	252	C10H6NO+
157.0285	20	C10H5O2+
157.0519	10	C10H7NO+
162.0555	11	C9H8NO2+
169.0396	82	C10H5N2O+
170.0472	29	C10H6N2O+
171.0309	21	C10H5NO2+
171.0552	66	C10H7N2O+
172.0392	334	C10H6NO2+
173.0474	39	C10H7NO2+
177.0547	38	C10H9O3+
182.0476	45	C11H6N2O+
183.0552	590	C11H7N2O+
184.0398	13	C11H6NO2+
186.0556	13	C11H8NO2+
199.05	155	C11H7N2O2+
200.0342	236	C11H6NO3+
201.0418	194	C11H7NO3+
201.0667	33	C11H9N2O2+
210.0421	145	C12H6N2O2+
210.066	21	C12H8N3O+
211.0499	49	C12H7N2O2+
216.0653	60	C12H10NO3+
242.0321	37	C12H6N2O4+
244.0876	11	C16H10N3+
245.0702	21	C16H9N2O+
246.0778	22	C16H10N2O+
247.0863	12	C16H11N2O+
259.0874	13	C17H11N2O+
272.0818	132	C17H10N3O+
273.0881	106	C14H13N2O4+
275.0813	23	C17H11N2O2+
288.1121	13	C18H14N3O+
300.0761	151	C18H10N3O2+
301.0842	301	C18H11N3O2+
328.0713	426	C19H10N3O3+
329.079	999	C19H11N3O3+
344.1021	89	C20H14N3O3+
