Mass spectrum: 5-Chloro-2-methyl-4-isothiazolin-3-one (CMI); LC-ESI-ITFT; MS2; CE: 75%; R=7500; [M+H]+
Name: 5-Chloro-2-methyl-4-isothiazolin-3-one (CMI)
Name: 3(2H)-Isothiazolone, 5-chloro-2-methyl-
Name: 5-chloranyl-2-methyl-1,2-thiazol-3-one
Formula: C4H4ClNOS
Exact mass: 148.9702
SMILES: c1(n(sc(c1)Cl)C)=O
InChI: InChI=1S/C4H4ClNOS/c1-6-4(7)2-3(5)8-6/h2H,1H3
Instrument: LTQ Orbitrap XL Thermo Scientific
Instrument type: LC-ESI-ITFT
Ms type: MS2
Ion mode: POSITIVE
Ionization: ESI
Fragmentation mode: HCD
Collision energy: 75 % (nominal)
Resolution: 7500
Column name: XBridge C18 3.5um, 2.1x50mm, Waters
Retention time: 3.7 min
Base peak: 149.9773
Precursor m/z: 149.9775
Precursor type: [M+H]+
m/z	relative intensity	assigned
58.0288	17	C2H4NO+
58.9951	10	C2H3S+
59.9904	5	CH2NS+
60.003	1	C2H4S+
60.9841	1	C2H2Cl+
62.006	3	CH4NS+
62.9997	2	C2H4Cl+
63.9949	2	CH3ClN+
66.0106	1	CH5ClN+
67.0179	9	C4H3O+
68.9795	2	C3HS+
69.9746	1	C2NS+
69.9872	1	C3H2S+
70.9951	27	C3H3S+
72.003	2	C3H4S+
72.9841	5	C3H2Cl+
74.006	8	C2H4NS+
74.9998	4	C3H4Cl+
75.9946	1	C2H3ClN+
78.0106	16	C2H5ClN+
78.9405	11	CClS+
79.9484	1	CHClS+
80.9562	1	CH2ClS+
82.0287	1	C4H4NO+
82.9825	2	C3HNS+
83.9665	8	C3OS+
84.9743	8	C3HOS+
86.006	18	C3H4NS+
86.9633	9	C3ClO+
86.9901	1	C3H3OS+
87.0139	10	C3H5NS+
87.9949	5	C3H3ClN+
88.9788	2	C3H2ClO+
90.001	3	C2H4NOS+
90.9404	3	C2ClS+
92.9561	16	C2H2ClS+
94.9718	17	C2H4ClS+
95.9904	67	C4H2NS+
102.9405	9	C3ClS+
102.9946	28	C4H4ClO+
104.9561	34	C3H2ClS+
106.0054	13	C3H5ClNO+
106.9592	9	C2H2ClNS+
106.9718	18	C3H4ClS+
114.0009	5	C4H4NOS+
115.0087	135	C4H5NOS+
115.9899	1	C4H3ClNO+
116.9977	9	C4H4ClNO+
117.9515	2	C3HClNS+
118.9354	91	C3ClOS+
119.9673	1	C3H3ClNS+
120.9511	29	C3H2ClOS+
121.9828	4	C3H5ClNS+
122.9663	1	C3H4ClOS+
131.9672	3	C4H3ClNS+
132.9511	10	C4H2ClOS+
134.9541	133	C3H2ClNOS+
147.9621	3	C4H3ClNOS+
149.9776	999	C4H5ClNOS+
