Mass spectrum: Chlorthiophos; LC-ESI-QFT; MS2; CE: 60%; R=17500; [M+H]+
Name: Chlorthiophos
Name: (2,5-dichloro-4-methylsulfanylphenoxy)-diethoxy-sulfanylidene-lambda5-phosphane
Formula: C11H15Cl2O3PS2
Exact mass: 359.9577
SMILES: CCOP(=S)(OCC)OC1=CC(=C(C=C1Cl)SC)Cl
InChI: InChI=1S/C11H15Cl2O3PS2/c1-4-14-17(18,15-5-2)16-10-6-9(13)11(19-3)7-8(10)12/h6-7H,4-5H2,1-3H3
Instrument: Exploris 240 Orbitrap Thermo Scientific
Instrument type: LC-ESI-QFT
Ms type: MS2
Ion mode: POSITIVE
Ionization: ESI
Fragmentation mode: HCD
Collision energy: 60 % (nominal)
Resolution: 17500
Column name: XBridge C18 3.5um, 2.1x50mm, Waters
Retention time: 14.135 min
Base peak: 360.9648
Precursor m/z: 360.965
Precursor type: [M+H]+
m/z	relative intensity	assigned
78.967	83	CH3S2+
132.9603	29	C4H3ClOP+
141.9645	7	C6H3ClS+
158.9761	100	C6H5ClOP+
161.9634	63	C6H4Cl2O+
175.9247	13	C5H2ClOPS+
176.9325	187	C5H3ClOPS+
177.9405	63	C6H4Cl2S+
178.9482	21	C5H5ClOPS+
186.9437	45	C7H4ClS2+
187.9515	187	C6H5OPS2+
188.9768	110	C6H6O3PS+
189.967	62	C6H7OPS2+
191.956	999	C6H6ClOPS+
192.9275	21	C5H3ClO2PS+
204.9538	8	C6H6O2PS2+
206.9431	82	C6H5ClO2PS+
208.9053	16	C5H3ClOPS2+
208.9588	102	C6H7ClO2PS+
221.9305	28	C7H4Cl2O2S+
222.9198	339	C6H5ClOPS2+
270.9145	20	C7H6Cl2O3PS+
