Mass spectrum: Famoxadone; LC-ESI-QFT; MS2; CE: 30; R=35000; [M+H]+
Name: Famoxadone
Name: 3-anilino-5-methyl-5-(4-phenoxyphenyl)-1,3-oxazolidine-2,4-dione
Formula: C22H18N2O4
Exact mass: 374.12666
SMILES: O=C2OC(C(=O)N2Nc1ccccc1)(c4ccc(Oc3ccccc3)cc4)C
InChI: InChI=1S/C22H18N2O4/c1-22(16-12-14-19(15-13-16)27-18-10-6-3-7-11-18)20(25)24(21(26)28-22)23-17-8-4-2-5-9-17/h2-15,23H,1H3
Instrument: Q Exactive Orbitrap Thermo Scientific
Instrument type: LC-ESI-QFT
Ms type: MS2
Ion mode: POSITIVE
Ionization: ESI
Fragmentation mode: HCD
Collision energy: 30 (nominal)
Resolution: 35000
Column name: XBridge C18 3.5um, 2.1x50mm, Waters
Retention time: 13.5 min
Base peak: 331.144
Precursor m/z: 375.1339
Precursor type: [M+H]+
m/z	relative intensity	assigned
89.0709	67	C3H9N2O+
92.0494	670	C6H6N+
93.0572	474	C6H7N+
107.0604	674	C6H7N2+
133.076	67	C8H9N2+
145.052	39	C9H7NO+
146.06	305	C9H8NO+
161.0707	89	C9H9N2O+
169.0884	36	C12H11N+
193.0889	173	C14H11N+
195.0805	999	C14H11O+
197.0955	38	C14H13O+
209.1075	40	C14H13N2+
210.1148	23	C14H14N2+
224.0701	64	C14H10NO2+
237.1022	69	C15H13N2O+
238.0865	122	C15H12NO2+
238.1099	246	C15H14N2O+
239.0942	339	C15H13NO2+
286.1229	129	C20H16NO+
303.1494	155	C20H19N2O+
331.1439	28	C21H19N2O2+
