Mass spectrum: Clothianidin; LC-ESI-ITFT; MS2; CE: 60%; R=7500; [M+H]+
Name: Clothianidin
Name: 1-[(2-chloranyl-1,3-thiazol-5-yl)methyl]-2-methyl-3-nitro-guanidine
Name: 1-[(2-chloro-1,3-thiazol-5-yl)methyl]-2-methyl-3-nitroguanidine
Formula: C6H8ClN5O2S
Exact mass: 249.0087
SMILES: Clc1ncc(s1)CN/C(=N/C)N[N+]([O-])=O
InChI: InChI=1S/C6H8ClN5O2S/c1-8-6(11-12(13)14)10-3-4-2-9-5(7)15-4/h2H,3H2,1H3,(H2,8,10,11)
Instrument: LTQ Orbitrap XL Thermo Scientific
Instrument type: LC-ESI-ITFT
Ms type: MS2
Ion mode: POSITIVE
Ionization: ESI
Fragmentation mode: HCD
Collision energy: 60 % (nominal)
Resolution: 7500
Column name: XBridge C18 3.5um, 2.1x50mm, Waters
Retention time: 4.9 min
Base peak: 250.0165
Precursor m/z: 250.016
Precursor type: [M+H]+
m/z	relative intensity	assigned
54.0338	6	C3H4N+
57.0447	8	C2H5N2+
63.9948	2	CH3ClN+
70.995	19	C3H3S+
78.9402	3	CClS+
86.0059	26	C3H4NS+
87.0137	1	C3H5NS+
87.9951	1	C3H3ClN+
96.056	2	C4H6N3+
97.0636	1	C4H7N3+
98.0712	1	C4H8N3+
108.0557	2	C5H6N3+
109.0635	8	C5H7N3+
110.0713	242	C5H8N3+
111.0791	92	C5H9N3+
112.0092	5	C4H4N2S+
113.0169	475	C4H5N2S+
115.033	1	C4H7N2S+
118.959	2	C3H2ClNS+
119.967	18	C3H3ClNS+
121.9824	4	C3H5ClNS+
125.082	4	C5H9N4+
126.0116	2	C4H4N3S+
127.0199	15	C4H5N3S+
131.9671	999	C4H3ClNS+
132.9747	18	C4H4ClNS+
135.0666	2	C6H7N4+
138.0122	3	C5H4N3S+
142.0433	24	C5H8N3S+
143.0512	5	C5H9N3S+
145.9698	1	C4H3ClN2S+
146.9778	39	C4H4ClN2S+
147.9857	45	C4H5ClN2S+
149.9767	1	C2H3ClN4S+
152.0275	4	C6H6N3S+
153.023	19	C5H5N4S+
154.0308	2	C5H6N4S+
167.0386	19	C6H7N4S+
168.0463	43	C6H8N4S+
169.0542	323	C6H9N4S+
171.9733	5	C5H3ClN3S+
172.9808	17	C5H4ClN3S+
174.9728	39	C5H4ClN2OS+
203.0158	1	C6H8ClN4S+
206.0147	1	C6H9ClN3OS+
