Mass spectrum: 2-(Methylsulfanyl)-1,3-benzothiazole; LC-ESI-QFT; MS2; CE: 150; R=35000; [M+H]+
Name: 2-(Methylsulfanyl)-1,3-benzothiazole
Name: 2-(Methylthio)benzothiazole (2-Me-S-Benzothiazole)
Name: 2-Methylmercaptobenzothiazole
Formula: C8H7NS2
Exact mass: 181.00199
SMILES: CSC1=NC2=CC=CC=C2S1
InChI: InChI=1S/C8H7NS2/c1-10-8-9-6-4-2-3-5-7(6)11-8/h2-5H,1H3
Instrument: Q Exactive Plus Orbitrap Thermo Scientific
Instrument type: LC-ESI-QFT
Ms type: MS2
Ion mode: POSITIVE
Ionization: ESI
Fragmentation mode: HCD
Collision energy: 150 (nominal)
Resolution: 35000
Column name: XBridge C18 3.5um, 2.1x50mm, Waters
Retention time: 10.0 min
Base peak: 182.0086
Precursor m/z: 182.0093
Precursor type: [M+H]+
m/z	relative intensity	assigned
50.015	17	C4H2+
51.0228	7	C4H3+
52.0181	8	C3H2N+
52.0307	3	C4H4+
53.0022	7	C3HO+
53.0385	22	C4H5+
53.9974	1	C2NO+
54.0463	17	C4H6+
57.9871	47	C2H2S+
58.995	1	C2H3S+
59.9664	1	COS+
61.007	1	C5H+
62.015	4	C5H2+
63.0228	122	C5H3+
63.9435	179	S2+
64.0307	119	C5H4+
65.0385	999	C5H5+
66.0463	36	C5H6+
68.9792	300	C3HS+
69.987	90	C3H2S+
70.9949	25	C3H3S+
71.9901	1	C2H2NS+
72.0027	3	C3H4S+
75.0227	3	C6H3+
76.018	3	C5H2N+
76.0306	45	C6H4+
77.0384	48	C6H5+
78.0336	4	C5H4N+
78.0464	1	C6H6+
78.967	1	CH3S2+
79.0415	20	C5H5N+
81.0333	7	C5H5O+
81.987	120	C4H2S+
82.9948	14	C4H3S+
84.0027	39	C4H4S+
90.0337	24	C6H4N+
91.0416	221	C6H5N+
92.0368	3	C5H4N2+
92.9792	20	C5HS+
94.0412	9	C6H6O+
94.9949	80	C5H3S+
95.049	71	C6H7O+
96.0027	444	C5H4S+
97.0105	8	C5H5S+
98.0058	3	C4H4NS+
99.9435	1	C3S2+
101.9465	13	C2NS2+
103.0415	78	C7H5N+
105.0446	44	C6H5N2+
106.9948	12	C6H3S+
108.0027	228	C6H4S+
109.0105	696	C6H5S+
121.0103	1	C7H5S+
122.0057	77	C6H4NS+
123.0135	440	C6H5NS+
127.0211	1	C6H7OS+
127.9925	31	
132.9978	1	C7H3NS+
134.0057	20	C7H4NS+
135.0135	243	C7H5NS+
137.0166	3	C6H5N2S+
138.9669	8	C6H3S2+
139.9747	70	C6H4S2+
140.9699	17	C5H3NS2+
165.9778	23	C7H4NS2+
166.9856	135	C7H5NS2+
