Mass spectrum: delta9-Tetrahydrocannabinol; LC-ESI-QFT; MS2; CE: 45; R=35000; [M+H]+
Name: delta9-Tetrahydrocannabinol
Name: delta9-THC
Name: 6,6,9-trimethyl-3-pentyl-6a,7,8,10a-tetrahydrobenzo[c]chromen-1-ol
Formula: C21H30O2
Exact mass: 314.22458
SMILES: CCCCCC1=CC2=C(C3C=C(CCC3C(O2)(C)C)C)C(=C1)O
InChI: InChI=1S/C21H30O2/c1-5-6-7-8-15-12-18(22)20-16-11-14(2)9-10-17(16)21(3,4)23-19(20)13-15/h11-13,16-17,22H,5-10H2,1-4H3
Instrument: Q Exactive Plus Orbitrap Thermo Scientific
Instrument type: LC-ESI-QFT
Ms type: MS2
Ion mode: POSITIVE
Ionization: ESI
Fragmentation mode: HCD
Collision energy: 45 (nominal)
Resolution: 35000
Column name: XBridge C18 3.5um, 2.1x50mm, Waters
Retention time: 17.8 min
Base peak: 391.2837
Precursor m/z: 315.2319
Precursor type: [M+H]+
m/z	relative intensity	assigned
53.0022	3	C3HO+
53.0385	4	C4H5+
55.0179	3	C3H3O+
55.0543	35	C4H7+
57.0335	1	C3H5O+
57.0699	15	C4H9+
59.0492	1	C3H7O+
65.0385	2	C5H5+
67.0543	47	C5H7+
69.0699	176	C5H9+
71.0855	47	C5H11+
77.0383	4	C6H5+
79.0543	64	C6H7+
81.0699	234	C6H9+
83.0492	23	C5H7O+
83.0855	9	C6H11+
85.0648	2	C5H9O+
91.0543	30	C7H7+
93.07	403	C7H9+
95.0493	13	C6H7O+
95.0856	41	C7H11+
97.0285	2	C5H5O2+
97.0649	18	C6H9O+
97.1013	31	C7H13+
99.0805	1	C6H11O+
101.0599	4	C5H9O2+
105.0447	4	C6H5N2+
105.07	13	C8H9+
107.0492	12	C7H7O+
107.0856	215	C8H11+
109.0649	20	C7H9O+
109.1013	133	C8H13+
111.0441	44	C6H7O2+
111.1169	13	C8H15+
117.07	1	C9H9+
119.0492	1	C8H7O+
119.0606	1	C7H7N2+
119.0857	24	C9H11+
120.0935	3	C9H12+
121.0649	34	C8H9O+
121.1013	75	C9H13+
123.0441	292	C7H7O2+
123.1169	73	C9H15+
124.0521	1	C7H8O2+
125.0599	5	C7H9O2+
125.0962	3	C8H13O+
129.0547	1	C6H9O3+
129.0701	2	C10H9+
131.0856	12	C10H11+
133.065	4	C9H9O+
133.1012	8	C10H13+
135.1169	302	C10H15+
136.1249	8	C10H16+
137.0598	60	C8H9O2+
139.1118	61	C9H15O+
143.0856	5	C11H11+
145.0651	5	C10H9O+
145.1012	5	C11H13+
147.0442	6	C9H7O2+
147.0806	9	C10H11O+
147.0916	1	C9H11N2+
147.117	5	C11H15+
149.0599	18	C9H9O2+
149.0963	13	C10H13O+
149.1325	4	C11H17+
151.0755	41	C9H11O2+
157.1014	5	C12H13+
157.1225	1	C9H17O2+
159.0806	16	C11H11O+
159.1173	3	C12H15+
161.0599	10	C10H9O2+
161.0963	13	C11H13O+
161.1327	2	C12H17+
163.0754	34	C10H11O2+
163.1121	2	C11H15O+
165.0912	73	C10H13O2+
167.1068	3	C10H15O2+
171.0807	15	C12H11O+
171.1167	3	C13H15+
173.0964	2	C12H13O+
173.1326	2	C13H17+
175.0755	8	C11H11O2+
175.112	9	C12H15O+
177.0912	33	C11H13O2+
177.1276	45	C12H17O+
179.1069	9	C11H15O2+
181.1224	63	C11H17O2+
185.0965	6	C13H13O+
185.1174	1	C10H17O3+
187.1118	2	C13H15O+
188.0834	4	C12H12O2+
189.0912	28	C12H13O2+
189.1278	5	C13H17O+
191.1066	2	C12H15O2+
191.1433	7	C13H19O+
193.1225	999	C12H17O2+
199.1121	2	C14H15O+
199.1481	4	C15H19+
201.0905	1	C13H13O2+
203.1069	9	C13H15O2+
203.1434	4	C14H19O+
205.1225	13	C13H17O2+
205.159	8	C14H21O+
207.1382	93	C13H19O2+
213.1638	3	C16H21+
215.1433	4	C15H19O+
217.1226	73	C14H17O2+
217.159	5	C15H21O+
218.1301	3	C14H18O2+
219.1381	21	C14H19O2+
219.1742	4	C15H23O+
221.1539	78	C14H21O2+
225.127	1	C16H17O+
226.1357	5	C16H18O+
227.1432	14	C16H19O+
229.1226	3	C15H17O2+
229.159	8	C16H21O+
231.1382	119	C15H19O2+
231.1746	13	C16H23O+
233.1539	120	C15H21O2+
235.1695	113	C15H23O2+
241.1587	18	C17H21O+
244.1455	3	C16H20O2+
245.1538	32	C16H21O2+
245.1898	4	C17H25O+
247.1695	87	C16H23O2+
255.1748	7	C18H23O+
259.1695	290	C17H23O2+
269.2268	2	C20H29+
272.1773	4	C18H24O2+
273.1851	23	C18H25O2+
287.237	2	C20H31O+
297.2214	12	C21H29O+
315.2321	77	C21H31O2+
