Mass spectrum: Theophyline; LC-ESI-QFT; MS2; CE: 150; R=35000; [M+H]+
Name: Theophyline
Name: Theophylline
Name: 1,3-dimethyl-7H-purine-2,6-dione
Formula: C7H8N4O2
Exact mass: 180.06473
SMILES: CN1C2=C(C(=O)N(C1=O)C)NC=N2
InChI: InChI=1S/C7H8N4O2/c1-10-5-4(8-3-9-5)6(12)11(2)7(10)13/h3H,1-2H3,(H,8,9)
Instrument: Q Exactive Plus Orbitrap Thermo Scientific
Instrument type: LC-ESI-QFT
Ms type: MS2
Ion mode: POSITIVE
Ionization: ESI
Fragmentation mode: HCD
Collision energy: 150 (nominal)
Resolution: 35000
Column name: XBridge C18 3.5um, 2.1x50mm, Waters
Retention time: 3.2 min
Base peak: 181.0717
Precursor m/z: 181.072
Precursor type: [M+H]+
m/z	relative intensity	assigned
52.0183	23	C3H2N+
53.0135	5	C2HN2+
54.0213	305	C2H2N2+
54.0339	39	C3H4N+
55.0291	90	C2H3N2+
57.0448	52	C2H5N2+
58.0288	5	C2H4NO+
65.0135	2	C3HN2+
66.0213	36	C3H2N2+
67.0291	186	C3H3N2+
68.0131	17	C3H2NO+
68.037	92	C3H4N2+
69.0448	999	C3H5N2+
70.0289	3	C3H4NO+
79.0291	10	C4H3N2+
80.0132	9	C4H2NO+
81.0084	6	C3HN2O+
81.0322	3	C3H3N3+
81.0448	31	C4H5N2+
82.0163	57	C3H2N2O+
83.0242	4	C3H3N2O+
93.0449	2	C5H5N2+
94.0401	70	C4H4N3+
95.0241	17	C4H3N2O+
96.0557	49	C4H6N3+
97.0398	3	C4H5N2O+
109.0272	204	C4H3N3O+
121.0509	18	C5H5N4+
124.0509	16	C5H6N3O+
