Mass spectrum: Flusilazole; LC-ESI-ITFT; MS2; CE: 45%; R=7500; [M+H]+
Name: Flusilazole
Name: bis(4-fluorophenyl)-methyl-(1,2,4-triazol-1-ylmethyl)silane
Formula: C16H15F2N3Si
Exact mass: 315.0998
SMILES: n1(cncn1)C[Si](c1ccc(F)cc1)(C)c1ccc(cc1)F
InChI: InChI=1S/C16H15F2N3Si/c1-22(12-21-11-19-10-20-21,15-6-2-13(17)3-7-15)16-8-4-14(18)5-9-16/h2-11H,12H2,1H3
Instrument: LTQ Orbitrap XL Thermo Scientific
Instrument type: LC-ESI-ITFT
Ms type: MS2
Ion mode: POSITIVE
Ionization: ESI
Fragmentation mode: HCD
Collision energy: 45 % (nominal)
Resolution: 7500
Column name: XBridge C18 3.5um, 2.1x50mm, Waters
Retention time: 12.4 min
Base peak: 316.1073
Precursor m/z: 316.1076
Precursor type: [M+H]+
m/z	relative intensity	assigned
61.0103	9	CH5OSi+
64.9856	4	FH2OSi+
77.0385	92	C6H5+
79.0009	65	CH4FOSi+
79.0546	9	C6H7+
80.9967	24	CH3F2Si+
91.0541	29	C2H6FN3+
95.0488	8	CH6FN3O+
99.007	16	CH5F2OSi+
103.054	9	C3H6FN3+
105.0447	26	C6H5N2+
105.0697	72	C3H8FN3+
109.0449	9	C2H5F2N3+
115.0537	7	C4H6FN3+
125.0223	10	C6H6FSi+
128.0617	7	C5H7FN3+
141.0166	47	C6H6FOSi+
141.0698	42	C11H9+
151.0373	82	C8H8FSi+
152.0619	46	C7H7FN3+
153.0698	47	C12H9+
155.0851	8	C7H10FN3+
157.0276	29	C7H7F2Si+
165.0699	999	C13H9+
166.0776	250	C13H10+
167.0327	10	C8H8FOSi+
169.0478	514	C3H9F2N3OSi+
171.0435	86	C8H9F2Si+
178.0778	14	C14H10+
179.0856	31	C14H11+
181.0763	12	C12H9N2+
181.1019	12	C14H13+
183.0606	39	C13H8F+
185.0761	175	C13H10F+
193.0756	17	C13H9N2+
199.0368	16	C7H7F2N3Si+
217.048	30	C12H10FOSi+
219.0433	103	C12H9F2Si+
220.0696	10	C10H11FN3Si+
227.0686	55	C14H12FSi+
231.0436	10	C13H9F2Si+
232.0515	22	C13H10F2Si+
237.054	20	C15H10FSi+
245.0786	33	C12H12FN3Si+
247.0745	279	C14H13F2Si+
265.0852	17	C12H13F2N3Si+
