Mass spectrum: Perfluoropentanoic acid; LC-ESI-ITFT; MS2; CE: 35%; R=7500; [M-H]-
Name: Perfluoropentanoic acid
Name: Pentanoic acid, nonafluoro-
Name: 2,2,3,3,4,4,5,5,5-nonafluoropentanoic acid
Formula: C5HF9O2
Exact mass: 263.9833
SMILES: O=C(O)C(F)(F)C(F)(F)C(F)(F)C(F)(F)F
InChI: InChI=1S/C5HF9O2/c6-2(7,1(15)16)3(8,9)4(10,11)5(12,13)14/h(H,15,16)
Instrument: LTQ Orbitrap XL Thermo Scientific
Instrument type: LC-ESI-ITFT
Ms type: MS2
Ion mode: NEGATIVE
Ionization: ESI
Fragmentation mode: CID
Collision energy: 35 % (nominal)
Resolution: 7500
Column name: XBridge C18 3.5um, 2.1x50mm, Waters
Retention time: 7.3 min
Base peak: 262.9763
Precursor m/z: 262.976
Precursor type: [M-H]-
m/z	relative intensity	assigned
196.9834	1	C4F7O-
218.9862	999	C4F9-
