Mass spectrum: Etodolac; LC-ESI-QFT; MS2; CE: 75; R=35000; [M-H]-
Name: Etodolac
Name: 2-(1,8-diethyl-4,9-dihydro-3H-pyrano[3,4-b]indol-1-yl)acetic acid
Formula: C17H21NO3
Exact mass: 287.15214
SMILES: CCC1=C2C(=CC=C1)C3=C(N2)C(OCC3)(CC)CC(=O)O
InChI: InChI=1S/C17H21NO3/c1-3-11-6-5-7-12-13-8-9-21-17(4-2,10-14(19)20)16(13)18-15(11)12/h5-7,18H,3-4,8-10H2,1-2H3,(H,19,20)
Instrument: Q Exactive Orbitrap Thermo Scientific
Instrument type: LC-ESI-QFT
Ms type: MS2
Ion mode: NEGATIVE
Ionization: ESI
Fragmentation mode: HCD
Collision energy: 75 (nominal)
Resolution: 35000
Column name: XBridge C18 3.5um, 2.1x50mm, Waters
Retention time: 12.5 min
Base peak: 286.1449
Precursor m/z: 286.1449
Precursor type: [M-H]-
m/z	relative intensity	assigned
158.0975	11	C11H12N-
167.0739	5	C12H9N-
169.0896	12	C12H11N-
170.0972	11	C12H12N-
174.092	3	C11H12NO-
179.0741	7	C13H9N-
181.0898	35	C13H11N-
182.0975	99	C13H12N-
183.1053	19	C13H13N-
184.1132	90	C13H14N-
185.0847	51	C12H11NO-
193.0898	15	C14H11N-
194.0975	83	C14H12N-
195.105	14	C14H13N-
196.1132	170	C14H14N-
197.1209	597	C14H15N-
198.1288	50	C14H16N-
208.1132	57	C15H14N-
209.1212	3	C15H15N-
210.1288	150	C15H16N-
212.1444	999	C15H18N-
224.1442	4	C16H18N-
229.1107	178	C14H15NO2-
242.1553	10	C16H20NO-
