Mass spectrum: Dimoxystrobin; LC-ESI-QFT; MS2; CE: 45; R=35000; [M+H]+
Name: Dimoxystrobin
Name: 2-[2-[(2,5-dimethylphenoxy)methyl]phenyl]-2-methoxyimino-N-methylacetamide
Formula: C19H22N2O3
Exact mass: 326.16304
SMILES: CC1=CC(=C(C=C1)C)OCC2=CC=CC=C2C(=NOC)C(=O)NC
InChI: InChI=1S/C19H22N2O3/c1-13-9-10-14(2)17(11-13)24-12-15-7-5-6-8-16(15)18(21-23-4)19(22)20-3/h5-11H,12H2,1-4H3,(H,20,22)
Instrument: Q Exactive Plus Orbitrap Thermo Scientific
Instrument type: LC-ESI-QFT
Ms type: MS2
Ion mode: POSITIVE
Ionization: ESI
Fragmentation mode: HCD
Collision energy: 45 (nominal)
Resolution: 35000
Column name: XBridge C18 3.5um, 2.1x50mm, Waters
Retention time: 12.4 min
Base peak: 327.1694
Precursor m/z: 327.1703
Precursor type: [M+H]+
m/z	relative intensity	assigned
58.0287	562	C2H4NO+
89.0385	8	C7H5+
91.0542	3	C7H7+
116.0494	999	C8H6N+
117.0571	19	C8H7N+
118.065	9	C8H8N+
121.0647	7	C8H9O+
122.0726	1	C8H10O+
123.0803	1	C8H11O+
134.06	47	C8H8NO+
135.0803	6	C9H11O+
145.0759	3	C9H9N2+
146.06	1	C9H8NO+
146.0837	2	C9H10N2+
148.0756	16	C9H10NO+
149.0471	1	C8H7NO2+
160.0753	1	C10H10NO+
161.0472	1	C9H7NO2+
174.0789	3	C10H10N2O+
178.0777	2	C14H10+
180.081	2	C13H10N+
181.0882	2	C13H11N+
182.0963	2	C13H12N+
193.1012	11	C15H13+
194.0962	1	C14H12N+
195.1042	16	C14H13N+
196.112	4	C14H14N+
205.0971	29	C11H13N2O2+
208.1121	1	C15H14N+
210.1277	9	C15H16N+
220.1117	2	C16H14N+
221.0961	7	C16H13O+
221.1198	1	C16H15N+
222.1038	5	C16H14O+
223.0992	62	C15H13NO+
236.1067	1	C16H14NO+
237.1145	1	C16H15NO+
238.1226	13	C16H16NO+
249.091	3	C17H13O2+
252.1384	3	C17H18NO+
