Mass spectrum: Cyenopyrafen; LC-ESI-QFT; MS2; CE: 90%; R=17500; [M+H]+
Name: Cyenopyrafen
Name: (E)-2-(4-tert-butylphenyl)-2-cyano-1-(1,3,4-trimethylpyrazol-5-yl)vinyl 2,2-dimethylpropionate
Name: [2-(4-tert-butylphenyl)-2-cyano-1-(2,4,5-trimethylpyrazol-3-yl)ethenyl] 2,2-dimethylpropanoate
Formula: C24H31N3O2
Exact mass: 393.2416
SMILES: CC1=C(N(N=C1C)C)C(=C(C#N)C2=CC=C(C=C2)C(C)(C)C)OC(=O)C(C)(C)C
InChI: InChI=1S/C24H31N3O2/c1-15-16(2)26-27(9)20(15)21(29-22(28)24(6,7)8)19(14-25)17-10-12-18(13-11-17)23(3,4)5/h10-13H,1-9H3
Instrument: Exploris 240 Orbitrap Thermo Scientific
Instrument type: LC-ESI-QFT
Ms type: MS2
Ion mode: POSITIVE
Ionization: ESI
Fragmentation mode: HCD
Collision energy: 90 % (nominal)
Resolution: 17500
Column name: XBridge C18 3.5um, 2.1x50mm, Waters
Retention time: 14.706 min
Base peak: 360.3623
Precursor m/z: 394.2489
Precursor type: [M+H]+
m/z	relative intensity	assigned
54.034	30	C3H4N+
56.0496	57	C3H6N+
57.0699	999	C4H9+
66.034	23	C4H4N+
68.0494	152	C4H6N+
69.0573	599	C4H7N+
70.0652	71	C4H8N+
89.0386	217	C7H5+
91.0541	132	C7H7+
95.0603	151	C5H7N2+
96.0685	38	C5H8N2+
109.076	383	C6H9N2+
110.084	115	C6H10N2+
111.0917	382	C6H11N2+
115.0542	47	C9H7+
116.0495	468	C8H6N+
123.0551	53	C6H7N2O+
128.0497	59	C9H6N+
128.0618	33	C10H8+
129.0699	269	C10H9+
134.0707	33	C7H8N3+
136.0869	47	C7H10N3+
137.0708	208	C7H9N2O+
141.0698	34	C11H9+
144.0445	178	C9H6NO+
156.0444	656	C10H6NO+
156.081	56	C11H10N+
157.0647	63	C11H9O+
157.0889	28	C11H11N+
159.0803	44	C11H11O+
167.0727	33	C12H9N+
184.0757	515	C12H10NO+
252.1132	66	C15H14N3O+
254.1286	64	C15H16N3O+
294.1604	81	C18H20N3O+
