Mass spectrum: Ribavirin; LC-ESI-QFT; MS2; CE: 30; R=35000; [M+H]+
Name: Ribavirin
Name: Copegus
Name: 1-[(2R,3R,4S,5R)-3,4-dihydroxy-5-(hydroxymethyl)-2-oxolanyl]-1,2,4-triazole-3-carboxamide
Formula: C8H12N4O5
Exact mass: 244.08077
SMILES: c1nc(nn1[C@H]2[C@@H]([C@@H]([C@H](O2)CO)O)O)C(=O)N
InChI: InChI=1S/C8H12N4O5/c9-6(16)7-10-2-12(11-7)8-5(15)4(14)3(1-13)17-8/h2-5,8,13-15H,1H2,(H2,9,16)/t3-,4-,5-,8-/m1/s1
Instrument: Q Exactive Orbitrap Thermo Scientific
Instrument type: LC-ESI-QFT
Ms type: MS2
Ion mode: POSITIVE
Ionization: ESI
Fragmentation mode: HCD
Collision energy: 30 (nominal)
Resolution: 35000
Column name: XBridge C18 3.5um, 2.1x50mm, Waters
Retention time: 0.9 min
Base peak: 267.0699
Precursor m/z: 245.088
Precursor type: [M+H]+
m/z	relative intensity	assigned
57.0335	10	C3H5O+
59.0492	1	C3H7O+
61.0284	3	C2H5O2+
69.0083	1	C2HN2O+
69.0335	6	C4H5O+
70.04	11	C2H4N3+
71.0128	2	C3H3O2+
73.0284	15	C3H5O2+
85.0284	19	C4H5O2+
87.044	4	C4H7O2+
95.0352	4	C3H3N4+
96.0191	5	C3H2N3O+
97.0284	8	C5H5O2+
103.039	5	C4H7O3+
113.0458	999	C3H5N4O+
114.0296	96	C3H4N3O2+
115.0388	26	C5H7O3+
133.0495	38	C5H9O4+
144.0081	1	C8H2NO2+
167.005	1	CH3N4O6+
