Mass spectrum: Ethion; LC-ESI-QFT; MS2; CE: 90%; R=17500; [M+H]+
Name: Ethion
Name: diethoxyphosphinothioylsulfanylmethylsulfanyl-diethoxy-sulfanylidene-lambda5-phosphane
Formula: C9H22O4P2S4
Exact mass: 383.9876
SMILES: CCOP(=S)(OCC)SCSP(=S)(OCC)OCC
InChI: InChI=1S/C9H22O4P2S4/c1-5-10-14(16,11-6-2)18-9-19-15(17,12-7-3)13-8-4/h5-9H2,1-4H3
Instrument: Exploris 240 Orbitrap Thermo Scientific
Instrument type: LC-ESI-QFT
Ms type: MS2
Ion mode: POSITIVE
Ionization: ESI
Fragmentation mode: HCD
Collision energy: 90 % (nominal)
Resolution: 17500
Column name: XBridge C18 3.5um, 2.1x50mm, Waters
Retention time: 13.677 min
Base peak: 384.9948
Precursor m/z: 384.9949
Precursor type: [M+H]+
m/z	relative intensity	assigned
64.9787	69	H2O2P+
78.9401	56	OPS+
78.9669	12	CH3S2+
96.9508	999	H2O2PS+
110.9666	39	CH4O2PS+
114.9614	332	H4O3PS+
126.9437	9	CH4OPS2+
128.9229	26	H2O2PS2+
128.9771	22	CH6O3PS+
142.9385	93	CH4O2PS2+
