Mass spectrum: Nitrofen; LC-ESI-QFT; MS2; CE: 45; R=35000; [M+H]+
Name: Nitrofen
Name: 2,4-bis(chloranyl)-1-(4-nitrophenoxy)benzene
Formula: C12H7Cl2NO3
Exact mass: 282.98030
SMILES: c1(Oc2ccc([N+](=O)[O-])cc2)c(cc(Cl)cc1)Cl
InChI: InChI=1S/C12H7Cl2NO3/c13-8-1-6-12(11(14)7-8)18-10-4-2-9(3-5-10)15(16)17/h1-7H
Instrument: Q Exactive Orbitrap Thermo Scientific
Instrument type: LC-ESI-QFT
Ms type: MS2
Ion mode: POSITIVE
Ionization: ESI
Fragmentation mode: HCD
Collision energy: 45 (nominal)
Resolution: 35000
Column name: XBridge C18 3.5um, 2.1x50mm, Waters
Retention time: 14.8 min
Base peak: 149.0234
Precursor m/z: 283.9876
Precursor type: [M+H]+
m/z	relative intensity	assigned
59.0492	3	C3H7O+
73.0284	17	C3H5O2+
98.9842	8	CH4ClO3+
139.0538	4	C11H7+
149.0152	7	C9H6Cl+
168.0573	18	C12H8O+
173.0155	13	C11H6Cl+
174.0231	2	C11H7Cl+
182.9763	8	C9H5Cl2+
184.0521	14	C12H8O2+
202.0179	211	C12H7ClO+
203.0259	30	C12H8ClO+
208.992	218	C11H7Cl2+
236.9872	3	C12H7Cl2O+
237.9945	11	C12H8Cl2O+
253.9903	2	C12H8Cl2O2+
264.9931	193	C12H7Cl2N2O+
266.9849	999	C12H7Cl2NO2+
283.9867	12	C12H8Cl2NO3+
