Mass spectrum: Ifosfamide; LC-ESI-ITFT; MS2; CE: 15%; R=15000; [M+H]+
Name: Ifosfamide
Name: Isophosphamide
Name: N,3-Bis(2-chloroethyl)-1,3,2-oxazaphosphinan-2-amine 2-oxide
Formula: C7H15Cl2N2O2P
Exact mass: 260.0248
SMILES: ClCCN(P(OC1)(=O)NCCCl)CC1
InChI: InChI=1S/C7H15Cl2N2O2P/c8-2-4-10-14(12)11(6-3-9)5-1-7-13-14/h1-7H2,(H,10,12)
Instrument: LTQ Orbitrap XL Thermo Scientific
Instrument type: LC-ESI-ITFT
Ms type: MS2
Ion mode: POSITIVE
Ionization: ESI
Fragmentation mode: HCD
Collision energy: 15 % (nominal)
Resolution: 15000
Column name: XBridge C18 3.5um, 2.1x50mm, Waters
Retention time: 6.3 min
Base peak: 261.0321
Precursor m/z: 261.0321
Precursor type: [M+H]+
m/z	relative intensity	assigned
233.001	1	C5H12Cl2N2O2P+
261.0321	999	C7H16Cl2N2O2P+
