Mass spectrum: Chlorcyclizine; LC-ESI-QFT; MS2; CE: 150; R=35000; [M+H]+
Name: Chlorcyclizine
Name: 1-[(4-chlorophenyl)-phenylmethyl]-4-methylpiperazine
Formula: C18H21ClN2
Exact mass: 300.13933
SMILES: CN1CCN(CC1)C(C2=CC=CC=C2)C3=CC=C(C=C3)Cl
InChI: InChI=1S/C18H21ClN2/c1-20-11-13-21(14-12-20)18(15-5-3-2-4-6-15)16-7-9-17(19)10-8-16/h2-10,18H,11-14H2,1H3
Instrument: Q Exactive Plus Orbitrap Thermo Scientific
Instrument type: LC-ESI-QFT
Ms type: MS2
Ion mode: POSITIVE
Ionization: ESI
Fragmentation mode: HCD
Collision energy: 150 (nominal)
Resolution: 35000
Column name: XBridge C18 3.5um, 2.1x50mm, Waters
Retention time: 8.2 min
Base peak: 301.1464
Precursor m/z: 301.1466
Precursor type: [M+H]+
m/z	relative intensity	assigned
53.0022	1	C3HO+
61.0072	1	C5H+
62.0151	4	C5H2+
63.0229	24	C5H3+
65.0386	17	C5H5+
72.9839	22	C3H2Cl+
74.015	1	C6H2+
75.0228	2	C6H3+
76.0306	1	C6H4+
86.0151	2	C7H2+
87.0229	6	C7H3+
88.0307	2	C7H4+
89.0385	26	C7H5+
90.0465	2	C7H6+
91.0542	8	C7H7+
98.9996	19	C5H4Cl+
99.0229	1	C8H3+
102.0464	2	C8H6+
113.0385	10	C9H5+
114.0464	6	C9H6+
115.0542	168	C9H7+
122.9996	2	C7H4Cl+
125.0154	1	C7H6Cl+
126.0464	9	C10H6+
127.0542	1	C10H7+
128.062	1	C10H8+
129.0448	1	C8H5N2+
132.057	3	C6H11ClN+
136.0075	3	C8H5Cl+
137.0386	2	C11H5+
138.0464	5	C11H6+
139.0542	142	C11H7+
140.062	4	C11H8+
149.0153	9	C9H6Cl+
150.0463	3	C12H6+
151.0541	1	C12H7+
152.0618	2	C12H8+
155.0604	1	C10H7N2+
162.0466	3	C13H6+
163.0542	154	C13H7+
164.062	175	C13H8+
165.0698	999	C13H9+
166.0776	1	C13H10+
168.0569	65	C9H11ClN+
169.0645	2	C9H12ClN+
179.0604	1	C12H7N2+
196.0518	20	C10H11ClNO+
199.0309	2	C13H8Cl+
