Mass spectrum: 10phiC10SPC; LC-ESI-QFT; MS2; CE: 60; R=35000; [M-H]-
Name: 10phiC10SPC
Name: Decacarboxy sulfophenyl carboxylic acid
Name: 10-(4-sulfophenyl)octanoic acid
Formula: C16H24O5S
Exact mass: 328.13444
SMILES: OS(=O)(=O)c1ccc(CCCCCCCCCC(=O)O)cc1
InChI: InChI=1S/C16H24O5S/c17-16(18)9-7-5-3-1-2-4-6-8-14-10-12-15(13-11-14)22(19,20)21/h10-13H,1-9H2,(H,17,18)(H,19,20,21)
Instrument: Q Exactive Plus Orbitrap Thermo Scientific
Instrument type: LC-ESI-QFT
Ms type: MS2
Ion mode: NEGATIVE
Ionization: ESI
Fragmentation mode: HCD
Collision energy: 60 (nominal)
Resolution: 35000
Column name: XBridge C18 3.5um, 2.1x50mm, Waters
Retention time: 10.9 min
Base peak: 327.1268
Precursor m/z: 327.1272
Precursor type: [M-H]-
m/z	relative intensity	assigned
63.9624	3	O2S-
79.9574	116	O3S-
80.9651	7	HO3S-
106.0424	4	C7H6O-
155.9888	4	C6H4O3S-
170.0043	999	C7H6O3S-
171.0124	2	C7H7O3S-
183.0121	100	C8H7O3S-
184.0199	10	C8H8O3S-
197.0277	13	C9H9O3S-
201.9941	23	C7H6O5S-
211.0435	4	C10H11O3S-
216.0098	1	C8H8O5S-
219.1756	1	C15H23O-
225.0591	5	C11H13O3S-
239.0745	2	C12H15O3S-
245.1546	11	C16H21O2-
247.1701	1	C16H23O2-
253.0904	1	C13H17O3S-
263.1654	3	C16H23O3-
267.1064	1	C14H19O3S-
283.1374	9	C15H23O3S-
309.1167	110	C16H21O4S-
327.1274	413	C16H23O5S-
