Mass spectrum: MCPA; LC-ESI-QFT; MS2; CE: 90%; R=15000; [M-H]-
Name: MCPA
Name: (4-Chloro-2-methylphenoxy)acetic acid
Name: 2-(4-chloro-2-methylphenoxy)acetic acid
Formula: C9H9ClO3
Exact mass: 200.0240218
SMILES: CC1=C(OCC(O)=O)C=CC(Cl)=C1
InChI: InChI=1S/C9H9ClO3/c1-6-4-7(10)2-3-8(6)13-5-9(11)12/h2-4H,5H2,1H3,(H,11,12)
Instrument: Q Exactive Plus
Instrument type: LC-ESI-QFT
Ms type: MS2
Ion mode: NEGATIVE
Ionization: ESI
Fragmentation mode: HCD
Collision energy: 90 % (nominal)
Resolution: 15000
Column name: XBridge C18 3.5um, 2.1x50mm, Waters
Retention time: 8.456 min
Base peak: 199.0167
Precursor m/z: 199.0167
Precursor type: [M-H]-
Precursor intensity: 244141507.79
m/z	relative intensity	assigned
105.0346	61	C7H5O-
121.0296	102	C7H5O2-
141.0113	999	C7H6ClO-
