Mass spectrum: Letrozole; LC-ESI-QFT; MS2; CE: 90; R=35000; [M-H]-
Name: Letrozole
Name: 4-[(4-cyanophenyl)-(1,2,4-triazol-1-yl)methyl]benzonitrile
Formula: C17H11N5
Exact mass: 285.10145
SMILES: C1=CC(=CC=C1C#N)C(C2=CC=C(C=C2)C#N)N3C=NC=N3
InChI: InChI=1S/C17H11N5/c18-9-13-1-5-15(6-2-13)17(22-12-20-11-21-22)16-7-3-14(10-19)4-8-16/h1-8,11-12,17H
Instrument: Q Exactive Plus Orbitrap Thermo Scientific
Instrument type: LC-ESI-QFT
Ms type: MS2
Ion mode: NEGATIVE
Ionization: ESI
Fragmentation mode: HCD
Collision energy: 90 (nominal)
Resolution: 35000
Column name: XBridge C18 3.5um, 2.1x50mm, Waters
Retention time: 6.6 min
Base peak: 284.0946
Precursor m/z: 284.0942
Precursor type: [M-H]-
m/z	relative intensity	assigned
64.0193	3	C4H2N-
66.0098	178	C2N3-
68.0255	15	C2H2N3-
90.0349	3	C6H4N-
100.0193	1	C7H2N-
102.0349	526	C7H4N-
113.0273	2	C8H3N-
114.0351	2	C8H4N-
115.0302	23	C7H3N2-
126.035	20	C9H4N-
127.0302	258	C8H3N2-
139.0302	9	C9H3N2-
140.0257	6	C8H2N3-
141.0459	723	C9H5N2-
142.041	25	C8H4N3-
153.0332	3	C9H3N3-
180.044	2	C10H4N4-
188.0505	17	C14H6N-
191.0616	10	C13H7N2-
213.046	10	C15H5N2-
214.0536	11	C15H6N2-
215.0616	999	C15H7N2-
228.0696	1	C16H8N2-
239.0482	3	C16H5N3-
240.0569	505	C16H6N3-
242.0725	69	C16H8N3-
