Mass spectrum: Dinoseb; LC-ESI-ITFT; MS2; CE: 75%; R=7500; [M-H]-
Name: Dinoseb
Name: 2,4-dinitro-6-sec-butyl-phenol
Formula: C10H12N2O5
Exact mass: 240.0746
SMILES: OC1=C([N+]([O-])=O)C=C([N+]([O-])=O)C=C1C(C)CC
InChI: InChI=1S/C10H12N2O5/c1-3-6(2)8-4-7(11(14)15)5-9(10(8)13)12(16)17/h4-6,13H,3H2,1-2H3
Instrument: LTQ Orbitrap XL Thermo Scientific
Instrument type: LC-ESI-ITFT
Ms type: MS2
Ion mode: NEGATIVE
Ionization: ESI
Fragmentation mode: HCD
Collision energy: 75 % (nominal)
Resolution: 7500
Column name: XBridge C18 3.5um, 2.1x50mm, Waters
Retention time: 13.0 min
Base peak: 239.0673
Precursor m/z: 239.0673
Precursor type: [M-H]-
m/z	relative intensity	assigned
121.0294	60	C7H5O2-
134.0245	132	C7H4NO2-
136.0403	89	C7H6NO2-
151.0761	77	C9H11O2-
162.0191	49	C8H4NO3-
164.0478	67	C9H8O3-
176.0354	164	C9H6NO3-
177.0431	84	C9H7NO3-
178.0512	176	C9H8NO3-
179.0711	25	C10H11O3-
192.0664	278	C10H10NO3-
193.0254	999	C8H5N2O4-
194.0453	480	C9H8NO4-
207.0414	153	C9H7N2O4-
209.0203	238	C8H5N2O5-
