Mass spectrum: Dichlofluanid; LC-ESI-QFT; MS2; CE: 15; R=35000; [M+H]+
Name: Dichlofluanid
Name: 1,1-dichloro-N-(dimethylsulfamoyl)-1-fluoro-N-phenylmethanesulfenamide
Formula: C9H11Cl2FN2O2S2
Exact mass: 331.96230
SMILES: N(c1ccccc1)(S(N(C)C)(=O)=O)SC(F)(Cl)Cl
InChI: InChI=1S/C9H11Cl2FN2O2S2/c1-13(2)18(15,16)14(17-9(10,11)12)8-6-4-3-5-7-8/h3-7H,1-2H3
Instrument: Q Exactive Orbitrap Thermo Scientific
Instrument type: LC-ESI-QFT
Ms type: MS2
Ion mode: POSITIVE
Ionization: ESI
Fragmentation mode: HCD
Collision energy: 15 (nominal)
Resolution: 35000
Column name: XBridge C18 3.5um, 2.1x50mm, Waters
Retention time: 11.6 min
Base peak: 223.9499
Precursor m/z: 332.9696
Precursor type: [M+H]+
m/z	relative intensity	assigned
77.0384	2	C6H5+
91.0414	1	C6H5N+
110.0167	4	C3H6ClFN+
121.0885	35	C8H11N+
123.0135	74	C6H5NS+
125.9871	22	C3H6Cl2N+
176.9892	2	C2H7ClFN2O2S+
188.9809	1	C7H5ClFNS+
199.0534	3	C8H11N2O2S+
223.9497	999	C7H5Cl2FNS+
254.994	1	C8H11ClFNOS2+
269.0077	11	C9H12Cl2FN2S+
332.9695	7	C9H12Cl2FN2O2S2+
