Mass spectrum: Flumethrin; LC-ESI-QFT; MS2; CE: 30%; R=17500; [M+H]+
Name: Flumethrin
Name: [cyano-(4-fluoro-3-phenoxyphenyl)methyl] 3-[2-chloro-2-(4-chlorophenyl)ethenyl]-2,2-dimethylcyclopropane-1-carboxylate
Formula: C28H22Cl2FNO3
Exact mass: 509.0961
SMILES: CC1(C(C1C(=O)OC(C#N)C2=CC(=C(C=C2)F)OC3=CC=CC=C3)C=C(C4=CC=C(C=C4)Cl)Cl)C
InChI: InChI=1S/C28H22Cl2FNO3/c1-28(2)21(15-22(30)17-8-11-19(29)12-9-17)26(28)27(33)35-25(16-32)18-10-13-23(31)24(14-18)34-20-6-4-3-5-7-20/h3-15,21,25-26H,1-2H3
Instrument: Exploris 240 Orbitrap Thermo Scientific
Instrument type: LC-ESI-QFT
Ms type: MS2
Ion mode: POSITIVE
Ionization: ESI
Fragmentation mode: HCD
Collision energy: 30 % (nominal)
Resolution: 17500
Column name: XBridge C18 3.5um, 2.1x50mm, Waters
Retention time: 16.434 min
Base peak: 394.2373
Precursor m/z: 510.1034
Precursor type: [M+H]+
m/z	relative intensity	assigned
138.9946	113	C7H4ClO+
203.0614	301	C13H12Cl+
239.039	999	C13H13Cl2+
267.0332	355	C14H13Cl2O+
