Mass spectrum: Memantine; LC-ESI-QFT; MS2; CE: 120; R=35000; [M+H]+
Name: Memantine
Name: 3,5-dimethyladamantan-1-amine
Formula: C12H21N
Exact mass: 179.16740
SMILES: CC12CC3CC(C1)(CC(C3)(C2)N)C
InChI: InChI=1S/C12H21N/c1-10-3-9-4-11(2,6-10)8-12(13,5-9)7-10/h9H,3-8,13H2,1-2H3
Instrument: Q Exactive Plus Orbitrap Thermo Scientific
Instrument type: LC-ESI-QFT
Ms type: MS2
Ion mode: POSITIVE
Ionization: ESI
Fragmentation mode: HCD
Collision energy: 120 (nominal)
Resolution: 35000
Column name: XBridge C18 3.5um, 2.1x50mm, Waters
Retention time: 6.7 min
Base peak: 180.1746
Precursor m/z: 180.1747
Precursor type: [M+H]+
m/z	relative intensity	assigned
50.0151	2	C4H2+
51.0229	3	C4H3+
53.0022	6	C3HO+
53.0386	19	C4H5+
53.9975	1	C2NO+
55.0543	67	C4H7+
57.0699	1	C4H9+
63.0229	3	C5H3+
65.0386	171	C5H5+
66.0464	1	C5H6+
67.0542	66	C5H7+
69.0699	40	C5H9+
77.0386	37	C6H5+
79.0542	223	C6H7+
81.0699	71	C6H9+
83.0855	6	C6H11+
89.0384	2	C7H5+
91.0543	999	C7H7+
92.0621	28	C7H8+
93.07	140	C7H9+
95.0492	63	C6H7O+
95.0856	60	C7H11+
103.0543	14	C8H7+
105.0448	34	C6H5N2+
105.07	281	C8H9+
106.0414	5	C7H6O+
106.0777	2	C8H10+
107.0856	590	C8H11+
108.0932	1	C8H12+
109.0649	113	C7H9O+
117.07	1	C9H9+
119.0605	95	C7H7N2+
119.0856	14	C9H11+
121.1012	29	C9H13+
123.0804	3	C8H11O+
133.0762	1	C8H9N2+
135.1168	6	C10H15+
163.1482	7	C12H19+
