Mass spectrum: Triflumuron; LC-ESI-QFT; MS2; CE: 75; R=35000; [M+H]+
Name: Triflumuron
Name: 2-chloranyl-N-[[4-(trifluoromethyloxy)phenyl]carbamoyl]benzamide
Formula: C15H10ClF3N2O3
Exact mass: 358.03320
SMILES: O=C(c1ccccc1Cl)NC(=O)Nc2ccc(OC(F)(F)F)cc2
InChI: InChI=1S/C15H10ClF3N2O3/c16-12-4-2-1-3-11(12)13(22)21-14(23)20-9-5-7-10(8-6-9)24-15(17,18)19/h1-8H,(H2,20,21,22,23)
Instrument: Q Exactive Orbitrap Thermo Scientific
Instrument type: LC-ESI-QFT
Ms type: MS2
Ion mode: POSITIVE
Ionization: ESI
Fragmentation mode: HCD
Collision energy: 75 (nominal)
Resolution: 35000
Column name: XBridge C18 3.5um, 2.1x50mm, Waters
Retention time: 13.8 min
Base peak: 359.0407
Precursor m/z: 359.0405
Precursor type: [M+H]+
m/z	relative intensity	assigned
50.0152	1	C4H2+
65.0385	3	C5H5+
75.0228	12	C6H3+
77.0384	3	C6H5+
79.0178	1	C5H3O+
86.9996	11	C4H4Cl+
92.0494	3	C6H6N+
93.0334	12	C6H5O+
93.0573	3	C6H7N+
94.0413	8	C6H6O+
95.0491	37	C6H7O+
105.0447	8	C6H5N2+
110.0599	3	C6H8NO+
110.9994	10	C6H4Cl+
111.044	28	C6H7O2+
113.0152	56	C6H6Cl+
120.0443	1	C7H6NO+
121.0395	8	C6H5N2O+
129.0101	65	C6H6ClO+
130.04	3	C7H4N3+
138.0105	15	C7H5ClN+
138.9948	999	C2HF2N2O3+
139.0042	63	
156.021	99	C7H7ClNO+
176.0314	4	C7H5F3NO+
178.0474	7	C7H7F3NO+
