Mass spectrum: Lincomycin; LC-ESI-QFT; MS2; CE: 60; R=35000; [M-H]-
Name: Lincomycin
Name: N-[2-hydroxy-1-(3,4,5-trihydroxy-6-methylsulfanyloxan-2-yl)propyl]-1-methyl-4-propylpyrrolidine-2-carboxamide
Formula: C18H34N2O6S
Exact mass: 406.21376
SMILES: CCCC1CC(N(C1)C)C(=O)NC(C2C(C(C(C(O2)SC)O)O)O)C(C)O
InChI: InChI=1S/C18H34N2O6S/c1-5-6-10-7-11(20(3)8-10)17(25)19-12(9(2)21)16-14(23)13(22)15(24)18(26-16)27-4/h9-16,18,21-24H,5-8H2,1-4H3,(H,19,25)
Instrument: Q Exactive Plus Orbitrap Thermo Scientific
Instrument type: LC-ESI-QFT
Ms type: MS2
Ion mode: NEGATIVE
Ionization: ESI
Fragmentation mode: HCD
Collision energy: 60 (nominal)
Resolution: 35000
Column name: XBridge C18 3.5um, 2.1x50mm, Waters
Retention time: 3.7 min
Base peak: 451.2115
Precursor m/z: 405.2065
Precursor type: [M-H]-
m/z	relative intensity	assigned
55.0189	24	C3H3O-
57.0346	59	C3H5O-
58.006	3	C2H2O2-
58.0298	13	C2H4NO-
59.0138	106	C2H3O2-
65.0397	9	C5H5-
65.9986	2	C3NO-
66.0349	8	C4H4N-
67.019	8	C4H3O-
68.0143	5	C3H2NO-
68.9982	40	C3HO2-
69.0346	120	C4H5O-
70.0299	33	C3H4NO-
71.0139	640	C3H3O2-
72.9932	16	C2HO3-
73.0296	38	C3H5O2-
73.9832	9	C2H2OS-
75.0089	5	C2H3O3-
78.0349	2	C5H4N-
79.019	9	C5H3O-
80.0506	45	C5H6N-
81.022	76	C4H3NO-
81.0346	211	C5H5O-
82.0298	31	C4H4NO-
83.0138	24	C4H3O2-
83.0503	98	C5H7O-
84.0091	5	C3H2NO2-
84.0216	18	C4H4O2-
84.0455	15	C4H6NO-
85.0295	502	C4H5O2-
85.0407	25	C3H5N2O-
86.0248	1	C3H4NO2-
87.0087	63	C3H3O3-
88.9703	5	C2HO2S-
89.0033	3	C6HO-
89.0066	4	C3H5OS-
89.0244	4	C3H5O3-
90.0348	4	C6H4N-
93.0345	5	C6H5O-
94.0298	36	C5H4NO-
95.0138	26	C5H3O2-
95.0501	6	C6H7O-
96.0092	1	C4H2NO2-
96.0217	5	C5H4O2-
96.0455	16	C5H6NO-
97.0294	166	C5H5O2-
98.0247	11	C4H4NO2-
98.061	4	C5H8NO-
98.0975	3	C6H12N-
99.0087	5	C4H3O3-
99.0451	68	C5H7O2-
99.9989	6	C4H4OS-
100.0404	7	C4H6NO2-
101.0242	3	C4H5O3-
101.978	38	C3H2O2S-
105.022	77	C6H3NO-
106.0298	11	C6H4NO-
107.0139	3	C6H3O2-
107.0376	10	C6H5NO-
107.0502	3	C7H7O-
108.0217	60	C6H4O2-
108.0455	11	C6H6NO-
109.0169	71	C5H3NO2-
109.0294	79	C6H5O2-
109.0658	11	C7H9O-
110.0247	14	C5H4NO2-
110.061	10	C6H8NO-
111.0326	2	C5H5NO2-
111.0452	32	C6H7O2-
112.0165	2	C5H4O3-
112.0404	7	C5H6NO2-
113.0245	8	C5H5O3-
114.9859	3	C4H3O2S-
115.0401	19	C5H7O3-
117.0016	7	C4H5O2S-
120.0455	2	C7H6NO-
122.0248	21	C6H4NO2-
123.0087	1	C6H3O3-
123.0325	11	C6H5NO2-
123.0452	4	C7H7O2-
124.0403	82	C6H6NO2-
125.0244	11	C6H5O3-
125.072	5	C6H9N2O-
125.0971	4	C8H13O-
126.0559	13	C6H8NO2-
126.0924	28	C7H12NO-
126.9859	15	C5H3O2S-
127.0401	18	C6H7O3-
133.017	7	C7H3NO2-
134.0248	13	C7H4NO2-
135.0329	3	C7H5NO2-
136.0405	1	C7H6NO2-
137.0483	1	C7H7NO2-
137.0971	2	C9H13O-
138.0019	21	C6H4NOS-
138.0195	4	C6H4NO3-
138.0923	2	C8H12NO-
139.0096	3	C6H5NOS-
139.1128	1	C9H15O-
139.9938	2	C6H4O2S-
147.0327	4	C8H5NO2-
150.0197	3	C7H4NO3-
151.0274	8	C7H5NO3-
151.04	2	C8H7O3-
152.0353	1	C7H6NO3-
152.108	4	C9H14NO-
153.0432	1	C7H7NO3-
153.1036	1	C8H13N2O-
160.0404	1	C9H6NO2-
165.9968	21	C7H4NO2S-
166.1239	6	C10H16NO-
168.1394	18	C10H18NO-
169.1347	999	C9H17N2O-
170.1187	163	C9H16NO2-
182.1549	19	C11H20NO-
184.1342	2	C10H18NO2-
186.0558	1	C11H8NO2-
191.1555	3	C12H19N2-
193.1345	14	C11H17N2O-
195.1502	70	C11H19N2O-
196.1342	2	C11H18NO2-
197.1295	49	C10H17N2O2-
207.1504	8	C12H19N2O-
209.1296	8	C11H17N2O2-
209.1659	145	C12H21N2O-
210.1373	2	C11H18N2O2-
211.1452	21	C11H19N2O2-
212.1293	1	C11H18NO3-
217.1347	1	C13H17N2O-
219.1502	4	C13H19N2O-
221.166	8	C13H21N2O-
223.1453	51	C12H19N2O2-
223.1814	4	C13H23N2O-
225.1608	27	C12H21N2O2-
231.1501	2	C14H19N2O-
233.1659	10	C14H21N2O-
235.1453	15	C13H19N2O2-
237.161	25	C13H21N2O2-
239.1764	4	C13H23N2O2-
249.1607	7	C14H21N2O2-
253.1559	15	C13H21N2O3-
259.1449	24	C15H19N2O2-
261.1608	2	C15H21N2O2-
263.176	2	C15H23N2O2-
277.1556	2	C15H21N2O3-
