Mass spectrum: Acetamiprid; LC-ESI-ITFT; MS2; CE: 35%; R=15000; [M+H]+
Name: Acetamiprid
Name: (1E)-N-[(6-Chloro-3-pyridinyl)methyl]-N'-cyano-N-methylethanimidamide
Formula: C10H11ClN4
Exact mass: 222.0672
SMILES: CN(CC1=CN=C(Cl)C=C1)C(\C)=N\C#N
InChI: InChI=1S/C10H11ClN4/c1-8(14-7-12)15(2)6-9-3-4-10(11)13-5-9/h3-5H,6H2,1-2H3/b14-8+
Instrument: LTQ Orbitrap XL Thermo Scientific
Instrument type: LC-ESI-ITFT
Ms type: MS2
Ion mode: POSITIVE
Ionization: ESI
Fragmentation mode: CID
Collision energy: 35 % (nominal)
Resolution: 15000
Column name: XBridge C18 3.5um, 2.1x50mm, Waters
Retention time: 5.3 min
Base peak: 223.0746
Precursor m/z: 223.0745
Precursor type: [M+H]+
m/z	relative intensity	assigned
73.076	2	C3H9N2+
90.0339	2	C6H4N+
98.9998	2	C5H4Cl+
126.0104	999	C6H5ClN+
128.0259	1	C6H7ClN+
139.0057	14	C6H4ClN2+
141.0214	8	C6H6ClN2+
146.0712	17	C8H8N3+
147.079	12	C8H9N3+
151.0058	5	C7H4ClN2+
153.0211	3	C7H6ClN2+
155.0369	39	C7H8ClN2+
160.0868	7	C9H10N3+
165.0212	7	C8H6ClN2+
167.037	9	C8H8ClN2+
168.0323	23	C7H7ClN3+
179.0368	7	C9H8ClN2+
180.0322	47	C8H7ClN3+
181.0525	367	C9H10ClN2+
182.0478	75	C8H9ClN3+
182.0611	3	C9H11ClN2+
187.0977	519	C10H11N4+
188.1058	2	C10H12N4+
192.0321	48	C9H7ClN3+
196.0635	509	C9H11ClN3+
206.0478	240	C10H9ClN3+
208.0509	6	C9H9ClN4+
223.0747	2	C10H12ClN4+
