Mass spectrum: Darunavir; LC-ESI-QFT; MS2; CE: 90; R=35000; [M+H]+
Name: Darunavir
Name: N-[(1S,2R)-1-benzyl-2-hydroxy-3-[isobutyl(sulfanilyl)amino]propyl]carbamic acid [(3aS,4R,6aR)-2,3,3a,4,5,6a-hexahydrofuro[2,3-b]furan-4-yl] ester
Formula: C27H37N3O7S
Exact mass: 547.23522
SMILES: CC(C)CN(CC(C(CC1=CC=CC=C1)NC(=O)OC2COC3C2CCO3)O)S(=O)(=O)C4=CC=C(C=C4)N
InChI: InChI=1S/C27H37N3O7S/c1-18(2)15-30(38(33,34)21-10-8-20(28)9-11-21)16-24(31)23(14-19-6-4-3-5-7-19)29-27(32)37-25-17-36-26-22(25)12-13-35-26/h3-11,18,22-26,31H,12-17,28H2,1-2H3,(H,29,32)/t22-,23-,24+,25-,26+/m0/s1
Instrument: Q Exactive Orbitrap Thermo Scientific
Instrument type: LC-ESI-QFT
Ms type: MS2
Ion mode: POSITIVE
Ionization: ESI
Fragmentation mode: HCD
Collision energy: 90 (nominal)
Resolution: 35000
Column name: XBridge C18 3.5um, 2.1x50mm, Waters
Retention time: 8.7 min
Base peak: 548.2426
Precursor m/z: 548.2425
Precursor type: [M+H]+
m/z	relative intensity	assigned
80.0495	184	C5H6N+
83.0491	31	C5H7O+
85.0284	7	C4H5O2+
86.0963	11	C5H12N+
91.0542	168	C7H7+
92.0495	999	C6H6N+
93.07	9	C7H9+
95.049	58	C6H7O+
103.0542	133	C8H7+
105.0697	9	C8H9+
108.0444	949	C6H6NO+
110.0601	349	C6H8NO+
113.0597	12	C6H9O2+
117.0698	43	C9H9+
120.0558	8	C6H6N3+
120.0807	128	C8H10N+
128.0494	39	C9H6N+
128.0621	117	C10H8+
129.0699	181	C10H9+
145.0647	15	C10H9O+
146.0601	28	C9H8NO+
146.0964	9	C10H12N+
156.0112	30	C6H6NO2S+
