Mass spectrum: Trinexapac; LC-ESI-ITFT; MS2; CE: 60%; R=7500; [M+H]+
Name: Trinexapac
Name: 4-[Cyclopropyl(hydroxy)methylene]-3,5-dioxocyclohexanecarboxylic acid
Formula: C11H12O5
Exact mass: 224.0685
SMILES: C(C1)C1C(O)=C(C(=O)CC2C(=O)O)C(=O)C2
InChI: InChI=1S/C11H12O5/c12-7-3-6(11(15)16)4-8(13)9(7)10(14)5-1-2-5/h5-6,14H,1-4H2,(H,15,16)/b10-9-
Instrument: LTQ Orbitrap XL Thermo Scientific
Instrument type: LC-ESI-ITFT
Ms type: MS2
Ion mode: POSITIVE
Ionization: ESI
Fragmentation mode: HCD
Collision energy: 60 % (nominal)
Resolution: 7500
Column name: XBridge C18 3.5um, 2.1x50mm, Waters
Retention time: 6.9 min
Base peak: 225.0758
Precursor m/z: 225.0757
Precursor type: [M+H]+
m/z	relative intensity	assigned
57.0337	3	C3H5O+
65.0383	4	C5H5+
67.018	5	C4H3O+
68.9972	90	C3HO2+
69.0335	999	C4H5O+
71.0128	58	C3H3O2+
81.0336	32	C5H5O+
83.0492	22	C5H7O+
85.0284	621	C4H5O2+
93.0335	11	C6H5O+
95.0128	83	C5H3O2+
97.0285	40	C5H5O2+
99.0077	152	C4H3O3+
105.07	12	C8H9+
107.0492	77	C7H7O+
109.0285	38	C6H5O2+
109.0649	8	C7H9O+
111.044	834	C6H7O2+
113.0233	442	C5H5O3+
119.049	4	C8H7O+
121.0283	9	C7H5O2+
121.0397	9	C6H5N2O+
123.0077	248	C6H3O3+
127.0392	8	C6H7O3+
129.055	7	C6H9O3+
133.0651	24	C9H9O+
137.0234	159	C7H5O3+
137.0596	16	C8H9O2+
139.039	34	C7H7O3+
141.0183	142	C6H5O4+
151.0386	7	C8H7O3+
151.0755	13	C9H11O2+
155.034	72	C7H7O4+
157.0498	18	C7H9O4+
159.029	30	C6H7O5+
161.0602	19	C10H9O2+
165.0183	270	C8H5O4+
179.0702	35	C10H11O3+
183.0289	111	C8H7O5+
