Mass spectrum: Spirotetramat BYI08330-enol; LC-ESI-QFT; MS2; CE: 60%; R=17500; [M+H]+
Name: Spirotetramat BYI08330-enol
Name: Cis-3-(2,5-dimethylphenyl)-4-hydroxy-8-methoxy-1-azaspiro(4.5)dec-3-en-2-one
Name: 3-(2,5-dimethylphenyl)-4-hydroxy-8-methoxy-1-azaspiro[4.5]dec-3-en-2-one
Formula: C18H23NO3
Exact mass: 301.1678
SMILES: CC1=CC(=C(C=C1)C)C2=C(C3(CCC(CC3)OC)NC2=O)O
InChI: InChI=1S/C18H23NO3/c1-11-4-5-12(2)14(10-11)15-16(20)18(19-17(15)21)8-6-13(22-3)7-9-18/h4-5,10,13,20H,6-9H2,1-3H3,(H,19,21)
Instrument: Exploris 240 Orbitrap Thermo Scientific
Instrument type: LC-ESI-QFT
Ms type: MS2
Ion mode: POSITIVE
Ionization: ESI
Fragmentation mode: HCD
Collision energy: 60 % (nominal)
Resolution: 17500
Column name: XBridge C18 3.5um, 2.1x50mm, Waters
Retention time: 6.514 min
Base peak: 302.1748
Precursor m/z: 302.1751
Precursor type: [M+H]+
m/z	relative intensity	assigned
67.0542	12	C5H7+
79.0542	4	C6H7+
81.0699	4	C6H9+
91.0543	12	C7H7+
96.0805	19	C6H10N+
105.0697	8	C8H9+
117.0699	130	C9H9+
119.0854	69	C9H11+
129.0701	10	C10H9+
131.0855	15	C10H11+
133.0654	6	C9H9O+
136.0755	5	C8H10NO+
143.0855	36	C11H11+
145.0648	29	C10H9O+
145.1013	41	C11H13+
147.0805	15	C10H11O+
155.0856	61	C12H11+
160.1116	10	C11H14N+
169.1009	12	C13H13+
173.0597	75	C11H9O2+
181.1016	8	C14H13+
182.1093	14	C14H14+
183.117	18	C14H15+
188.1078	23	C12H14NO+
192.0936	8	C15H12+
197.1325	31	C15H17+
200.1072	6	C13H14NO+
207.1168	14	C16H15+
214.1592	7	C15H20N+
216.102	999	C13H14NO2+
225.1275	17	C16H17O+
253.1216	14	C17H17O2+
270.149	159	C17H20NO2+
302.1759	21	C18H24NO3+
