Mass spectrum: 1H-Benzotriazole-5-carboxylic acid; LC-ESI-QFT; MS2; CE: 90; R=35000; [M+H]+
Name: 1H-Benzotriazole-5-carboxylic acid
Name: 1H-benzotriazole-5-carboxylic acid
Name: 2H-benzotriazole-5-carboxylic acid
Formula: C7H5N3O2
Exact mass: 163.03818
SMILES: c1cc2c(cc1C(=O)O)nn[nH]2
InChI: InChI=1S/C7H5N3O2/c11-7(12)4-1-2-5-6(3-4)9-10-8-5/h1-3H,(H,11,12)(H,8,9,10)
Instrument: Q Exactive Plus Orbitrap Thermo Scientific
Instrument type: LC-ESI-QFT
Ms type: MS2
Ion mode: POSITIVE
Ionization: ESI
Fragmentation mode: HCD
Collision energy: 90 (nominal)
Resolution: 35000
Column name: XBridge C18 3.5um, 2.1x50mm, Waters
Retention time: 3.7 min
Base peak: 164.0453
Precursor m/z: 164.0455
Precursor type: [M+H]+
m/z	relative intensity	assigned
50.0151	7	C4H2+
51.0229	6	C4H3+
52.0182	11	C3H2N+
53.0386	267	C4H5+
53.9974	1	C2NO+
54.0338	17	C3H4N+
55.0178	8	C3H3O+
62.015	5	C5H2+
63.0229	273	C5H3+
64.0181	10	C4H2N+
65.0386	660	C5H5+
66.0338	7	C4H4N+
67.0178	9	C4H3O+
68.0131	77	C3H2NO+
68.0494	6	C4H6N+
68.9971	1	C3HO2+
78.0338	37	C5H4N+
79.0179	1	C5H3O+
79.0417	8	C5H5N+
80.0494	999	C5H6N+
81.0335	198	C5H5O+
82.0287	1	C4H4NO+
90.0339	333	C6H4N+
91.0179	2	C6H3O+
91.0416	16	C6H5N+
92.0495	57	C6H6N+
93.0335	1	C6H5O+
94.0289	1	C5H4NO+
96.0443	23	C5H6NO+
106.0287	65	C6H4NO+
107.0365	12	C6H5NO+
108.0444	510	C6H6NO+
109.0284	5	C6H5O2+
118.0287	68	C7H4NO+
118.0399	203	C6H4N3+
119.0128	5	C7H3O2+
119.0478	31	C6H5N3+
120.0556	30	C6H6N3+
124.0393	40	C6H6NO2+
136.0393	24	C7H6NO2+
136.0505	6	C6H6N3O+
146.0348	11	C7H4N3O+
146.046	5	C6H4N5+
151.0377	7	C6H5N3O2+
164.0454	317	C7H6N3O2+
