Mass spectrum: Aminopyrine; LC-ESI-ITFT; MS2; CE: 15%; R=7500; [M+H]+
Name: Aminopyrine
Name: 4-(dimethylamino)-1,5-dimethyl-2-phenyl-3-pyrazolin-3-one
Formula: C13H17N3O
Exact mass: 231.1372
SMILES: c(ccc1N(N(C=2C)C)C(=O)C2N(C)C)cc1
InChI: InChI=1S/C13H17N3O/c1-10-12(14(2)3)13(17)16(15(10)4)11-8-6-5-7-9-11/h5-9H,1-4H3
Instrument: LTQ Orbitrap XL Thermo Scientific
Instrument type: LC-ESI-ITFT
Ms type: MS2
Ion mode: POSITIVE
Ionization: ESI
Fragmentation mode: HCD
Collision energy: 15 % (nominal)
Resolution: 7500
Column name: XBridge C18 3.5um, 2.1x50mm, Waters
Retention time: 2.6 min
Base peak: 232.1453
Precursor m/z: 232.1444
Precursor type: [M+H]+
m/z	relative intensity	assigned
58.0649	2	C3H8N+
70.0652	6	C4H8N+
72.0809	6	C4H10N+
84.0808	1	C5H10N+
87.092	3	C4H11N2+
97.076	4	C5H9N2+
98.0839	16	C5H10N2+
99.092	3	C5H11N2+
111.0917	36	C6H11N2+
113.1074	107	C6H13N2+
139.0867	13	C7H11N2O+
146.0597	2	C9H8NO+
149.1075	7	C9H13N2+
159.0916	9	C10H11N2+
175.0865	4	C10H11N2O+
177.1027	1	C10H13N2O+
187.0866	27	C11H11N2O+
188.0948	6	C11H12N2O+
204.1498	2	C12H18N3+
232.1448	999	C13H18N3O+
