Mass spectrum: Flurtamone; LC-ESI-QFT; MS2; CE: 60; R=35000; [M-H]-
Name: Flurtamone
Name: 5-(methylamino)-2-phenyl-4-[3-(trifluoromethyl)phenyl]furan-3-one
Formula: C18H14F3NO2
Exact mass: 333.09766
SMILES: CNC1=C(C(=O)C(O1)C2=CC=CC=C2)C3=CC(=CC=C3)C(F)(F)F
InChI: InChI=1S/C18H14F3NO2/c1-22-17-14(12-8-5-9-13(10-12)18(19,20)21)15(23)16(24-17)11-6-3-2-4-7-11/h2-10,16,22H,1H3
Instrument: Q Exactive Plus Orbitrap Thermo Scientific
Instrument type: LC-ESI-QFT
Ms type: MS2
Ion mode: NEGATIVE
Ionization: ESI
Fragmentation mode: HCD
Collision energy: 60 (nominal)
Resolution: 35000
Column name: XBridge C18 3.5um, 2.1x50mm, Waters
Retention time: 10.1 min
Base peak: 332.0898
Precursor m/z: 332.0904
Precursor type: [M-H]-
m/z	relative intensity	assigned
68.9957	15	CF3-
77.0397	2	C6H5-
101.0397	143	C8H5-
102.0348	2	C7H4N-
116.0505	2	C8H6N-
117.0347	8	C8H5O-
118.0664	2	C8H8N-
121.0293	5	C7H5O2-
129.0347	5	C9H5O-
131.0377	10	C8H5NO-
132.0455	2	C8H6NO-
134.0611	143	C8H8NO-
142.066	6	C10H8N-
144.0455	1	C9H6NO-
145.0271	540	C7H4F3-
146.0251	1	C8H4NO2-
146.0611	7	C9H8NO-
147.0455	5	C9H7O2-
151.0236	2	C8H3F2N-
156.0193	20	C8H3F3-
158.0413	5	C10H5FN-
159.0427	26	C8H6F3-
160.0141	13	C7H3F3O-
161.022	60	C7H4F3O-
162.0561	1	C9H8NO2-
165.0158	15	C9H3F2O-
169.0271	221	C9H4F3-
170.0224	6	C8H3F3N-
171.0328	4	C10H5NO2-
171.0428	49	C9H6F3-
172.0405	2	C10H6NO2-
178.0473	13	C10H6F2N-
182.0221	13	C9H3F3N-
183.0301	748	C9H4F3N-
184.0378	16	C9H5F3N-
185.022	999	C9H4F3O-
186.0559	7	C11H8NO2-
187.0377	2	C9H6F3O-
187.0556	2	C15H7-
187.0639	1	C11H9NO2-
189.0169	45	C8H4F3O2-
196.0379	6	C10H5F3N-
198.0536	202	C10H7F3N-
199.025	2	C9H4F3NO-
207.0615	40	C15H8F-
210.0538	14	C11H7F3N-
212.0329	1	C10H5F3NO-
214.0125	17	C9H3F3NO2-
214.0247	7	C10H5F3O2-
215.0327	1	C10H6F3O2-
215.0507	1	C16H7O-
217.0662	1	C16H9O-
222.0486	2	C15H7FO-
226.0484	8	C11H7F3NO-
226.0671	1	C14H9FNO-
227.0202	7	C10H4F3NO2-
227.0677	49	C15H9F2-
228.082	7	C17H10N-
235.0564	13	C16H8FO-
237.0726	2	C16H10FO-
239.0196	12	C11H4F3NO2-
240.0279	148	C11H5F3NO2-
242.0436	2	C11H7F3NO2-
242.0549	6	C15H8F2O-
245.0581	13	C15H8F3-
247.074	335	C15H10F3-
248.0462	1	C14H7F3O-
254.0431	25	C12H7F3NO2-
255.0511	5	C12H8F3NO2-
255.0629	19	C16H9F2O-
259.0743	14	C16H10F3-
263.069	7	C15H10F3O-
272.0724	1	C18H10NO2-
273.0774	7	C16H10F3N-
274.0609	29	C16H9F3O-
275.0691	27	C16H10F3O-
277.0846	17	C16H12F3O-
284.0692	6	C17H9F3N-
286.085	56	C17H11F3N-
287.0689	3	C17H10F3O-
288.0643	35	C16H9F3NO-
291.0638	11	C16H10F3O2-
292.0784	2	C18H11FNO2-
302.0566	8	C17H9F3O2-
303.0639	4	C17H10F3O2-
304.0957	26	C17H13F3NO-
314.0797	40	C18H11F3NO-
316.059	180	C17H9F3NO2-
317.0668	26	C17H10F3NO2-
330.0748	6	C18H11F3NO2-
331.0823	1	C18H12F3NO2-
332.0904	276	C18H13F3NO2-
