Mass spectrum: Pyraclofos; LC-ESI-QFT; MS2; CE: 90%; R=17500; [M+H]+
Name: Pyraclofos
Name: 1-(4-chlorophenyl)-4-[ethoxy(propylsulfanyl)phosphoryl]oxypyrazole
Formula: C14H18ClN2O3PS
Exact mass: 360.0464
SMILES: CCCSP(=O)(OCC)OC1=CN(N=C1)C2=CC=C(C=C2)Cl
InChI: InChI=1S/C14H18ClN2O3PS/c1-3-9-22-21(18,19-4-2)20-14-10-16-17(11-14)13-7-5-12(15)6-8-13/h5-8,10-11H,3-4,9H2,1-2H3
Instrument: Exploris 240 Orbitrap Thermo Scientific
Instrument type: LC-ESI-QFT
Ms type: MS2
Ion mode: POSITIVE
Ionization: ESI
Fragmentation mode: HCD
Collision energy: 90 % (nominal)
Resolution: 17500
Column name: XBridge C18 3.5um, 2.1x50mm, Waters
Retention time: 11.576 min
Base peak: 361.0538
Precursor m/z: 361.0537
Precursor type: [M+H]+
m/z	relative intensity	assigned
51.0229	22	C4H3+
58.0286	48	C2H4NO+
64.9787	177	H2O2P+
74.0056	9	C2H4NS+
77.0387	13	C6H5+
78.9402	28	OPS+
86.9995	49	C4H4Cl+
96.9507	500	H2O2PS+
104.0497	28	C3H9N2P+
105.0573	43	C7H7N+
110.9663	22	CH4O2PS+
110.9997	85	C6H4Cl+
113.0156	17	C2H9ClNP+
114.9612	175	H4O3PS+
115.0417	12	C8H5N+
122.9999	25	C3H7ClNP+
129.0104	52	C2H9ClNOP+
132.0685	38	C8H8N2+
138.0105	999	C7H5ClN+
139.0058	464	C6H4ClN2+
140.0261	681	C7H7ClN+
142.0526	65	C9H6N2+
149.0298	41	C8H7NS+
150.0107	107	C8H5ClN+
151.0186	22	C8H6ClN+
165.0218	16	C2H12ClNO3S+
166.0055	146	C8H5ClNO+
176.0402	17	C9H8N2S+
178.0288	25	C9H7ClN2+
183.9722	30	C9N2OS+
