Mass spectrum: CGA62826 (2-[2,6-dimethylphenyl)-methoxyacetylamino]propionic acid; LC-ESI-QFT; MS2; CE: 30; R=35000; [M+H]+
Name: CGA62826 (2-[2,6-dimethylphenyl)-methoxyacetylamino]propionic acid
Name: N-(2,6-Dimethylphenyl)-N-(methoxyacetyl)-L-alanine
Name: (2S)-2-(N-(2-methoxyacetyl)-2,6-dimethylanilino)propanoic acid
Formula: C14H19NO4
Exact mass: 265.13141
SMILES: Cc1cccc(c1N([C@@H](C)C(=O)O)C(=O)COC)C
InChI: InChI=1S/C14H19NO4/c1-9-6-5-7-10(2)13(9)15(11(3)14(17)18)12(16)8-19-4/h5-7,11H,8H2,1-4H3,(H,17,18)/t11-/m0/s1
Instrument: Q Exactive Plus Orbitrap Thermo Scientific
Instrument type: LC-ESI-QFT
Ms type: MS2
Ion mode: POSITIVE
Ionization: ESI
Fragmentation mode: HCD
Collision energy: 30 (nominal)
Resolution: 35000
Column name: XBridge C18 3.5um, 2.1x50mm, Waters
Retention time: 7.8 min
Base peak: 266.1385
Precursor m/z: 266.1387
Precursor type: [M+H]+
m/z	relative intensity	assigned
77.0383	1	C6H5+
105.0699	1	C8H9+
121.0886	6	C8H11N+
132.0803	3	C9H10N+
133.0886	22	C9H11N+
134.0964	22	C9H12N+
146.0964	11	C10H12N+
148.1121	227	C10H14N+
150.0913	2	C9H12NO+
160.1121	303	C11H14N+
161.0837	4	C10H11NO+
162.1277	29	C11H16N+
165.1149	145	C10H15NO+
176.1071	4	C11H14NO+
178.1227	71	C11H16NO+
188.1071	14	C12H14NO+
192.1382	999	C12H18NO+
194.1175	19	C11H16NO2+
206.1176	617	C12H16NO2+
208.1333	1	C12H18NO2+
220.1332	861	C13H18NO2+
234.1126	7	C13H16NO3+
238.144	6	C13H20NO3+
248.1282	45	C14H18NO3+
266.1387	96	C14H20NO4+
