Mass spectrum: Atrazine; LC-ESI-ITFT; MS2; CE: 75%; R=15000; [M+H]+
Name: Atrazine
Name: 6-chloro-N-ethyl-N'-isopropyl-1,3,5-triazine-2,4-diamine
Name: 6-chloranyl-N4-ethyl-N2-propan-2-yl-1,3,5-triazine-2,4-diamine
Formula: C8H14ClN5
Exact mass: 215.0932
SMILES: c1(nc(nc(n1)Cl)NCC)NC(C)C
InChI: InChI=1S/C8H14ClN5/c1-4-10-7-12-6(9)13-8(14-7)11-5(2)3/h5H,4H2,1-3H3,(H2,10,11,12,13,14)
Instrument: LTQ Orbitrap XL Thermo Scientific
Instrument type: LC-ESI-ITFT
Ms type: MS2
Ion mode: POSITIVE
Ionization: ESI
Fragmentation mode: HCD
Collision energy: 75 % (nominal)
Resolution: 15000
Column name: XBridge C18 3.5um, 2.1x50mm, Waters
Retention time: 8.3 min
Base peak: 216.1012
Precursor m/z: 216.101
Precursor type: [M+H]+
m/z	relative intensity	assigned
61.9792	50	CHClN+
68.0243	791	C2H2N3+
71.0604	164	C3H7N2+
79.0058	476	CH4ClN2+
90.0105	11	C3H5ClN+
96.0557	570	C4H6N3+
104.0011	962	C2H3ClN3+
110.0462	61	C3H4N5+
132.0324	485	C4H7ClN3+
138.0774	147	C5H8N5+
146.0229	471	C3H5ClN5+
172.0386	6	C5H7ClN5+
174.0542	999	C5H9ClN5+
180.1244	5	C8H14N5+
