Mass spectrum: Efavirenz; LC-ESI-QFT; MS2; CE: 90; R=35000; [M+H]+
Name: Efavirenz
Name: (4S)-6-chloro-4-(2-cyclopropylethynyl)-4-(trifluoromethyl)-1H-3,1-benzoxazin-2-one
Formula: C14H9ClF3NO2
Exact mass: 315.02739
SMILES: C1CC1C#C[C@]2(C3=C(C=CC(=C3)Cl)NC(=O)O2)C(F)(F)F
InChI: InChI=1S/C14H9ClF3NO2/c15-9-3-4-11-10(7-9)13(14(16,17)18,21-12(20)19-11)6-5-8-1-2-8/h3-4,7-8H,1-2H2,(H,19,20)/t13-/m0/s1
Instrument: Q Exactive Orbitrap Thermo Scientific
Instrument type: LC-ESI-QFT
Ms type: MS2
Ion mode: POSITIVE
Ionization: ESI
Fragmentation mode: HCD
Collision energy: 90 (nominal)
Resolution: 35000
Column name: XBridge C18 3.5um, 2.1x50mm, Waters
Retention time: 13.0 min
Base peak: 316.0348
Precursor m/z: 316.0347
Precursor type: [M+H]+
m/z	relative intensity	assigned
50.0153	7	C4H2+
51.0231	8	C4H3+
53.0387	73	C4H5+
75.004	1	C3HF2+
75.0229	7	C6H3+
77.0022	3	C5HO+
87.0229	3	C7H3+
89.0385	16	C7H5+
91.0543	2	C7H7+
98.015	2	C8H2+
99.023	8	C8H3+
102.0464	2	C8H6+
107.0292	2	C7H4F+
113.0387	7	C9H5+
115.0542	55	C9H7+
116.0495	10	C8H6N+
117.0134	2	C8H2F+
118.0212	7	C8H3F+
122.9994	8	C7H4Cl+
123.9948	2	C6H3ClN+
124.0074	4	C7H5Cl+
125.0387	2	C10H5+
126.0339	2	C9H4N+
126.0464	10	C10H6+
127.0416	42	C9H5N+
128.0494	29	C9H6N+
129.0447	4	C8H5N2+
129.0574	7	C9H7N+
132.984	3	C8H2Cl+
135.0477	9	C8H6FN+
137.0194	5	C8H3F2+
138.0275	242	C8H4F2+
139.0416	6	C10H5N+
139.0542	86	C11H7+
140.0494	122	C10H6N+
140.0618	21	C11H8+
141.0573	7	C10H7N+
141.0698	67	C11H9+
142.0215	2	C10H3F+
143.0365	2	C9H5NO+
144.0369	13	C10H5F+
144.0444	2	C9H6NO+
145.0326	12	C9H4FN+
145.0653	1	C10H9O+
146.0401	7	C9H5FN+
146.0602	7	C9H8NO+
146.9998	19	C9H4Cl+
147.0479	3	C9H6FN+
148.0181	18	C11H2N+
149.0148	2	C9H6Cl+
149.0385	2	C12H5+
150.0279	2	C9H4F2+
150.0345	2	C8H5FNO+
150.0466	12	C12H6+
151.0184	65	C8H6ClN+
151.0353	7	C9H5F2+
151.0417	3	C11H5N+
152.0306	3	C8H4F2N+
152.0495	8	C11H6N+
152.9901	22	C8H3ClF+
153.0573	52	C11H7N+
154.0401	15	C9H4N3+
154.0651	8	C11H8N+
157.0264	2	C8H4F3+
157.0447	10	C11H6F+
157.0522	15	C10H7NO+
158.034	2	C8H5F3+
158.04	23	C10H5FN+
159.0479	11	C10H6FN+
159.0807	2	C6H10FN3O+
161.0198	2	C10H3F2+
162.0105	111	C9H5ClN+
162.0275	90	C10H4F2+
163.0056	3	C11HNO+
163.0232	17	C9H3F2N+
164.026	81	C9H7ClN+
164.0495	31	C12H6N+
164.9901	2	C9H3ClF+
165.0385	24	C9H5F2N+
165.0574	21	C12H7N+
166.0652	251	C12H8N+
167.0729	999	C12H9N+
168.0248	24	C11H3FN+
168.037	28	C12H5F+
168.0807	203	C12H10N+
169.0322	93	C11H4FN+
169.0446	8	C12H6F+
169.0646	7	C12H9O+
169.076	11	C11H9N2+
170.0525	76	C12H7F+
170.06	24	C11H8NO+
171.048	15	C11H6FN+
172.0557	79	C11H7FN+
172.9962	21	C8H4ClF2+
173.0155	11	C11H6Cl+
173.051	2	C10H6FN2+
174.0105	105	C10H5ClN+
175.0184	43	C10H6ClN+
175.0353	26	C11H5F2+
175.0424	14	C10H6FNO+
176.0308	43	C10H4F2N+
176.0495	2	C13H6N+
177.039	20	C10H5F2N+
177.0572	32	C13H7N+
178.0464	3	C10H6F2N+
178.0653	9	C13H8N+
180.021	20	C9H7ClNO+
180.9959	6	C11FNO+
182.0166	23	C9H6ClFN+
182.0337	11	C10H5F3+
182.0406	12	C12H5FN+
183.068	8	C12H9NO+
183.996	51	C8H4ClFNO+
184.0557	34	C12H7FN+
184.9965	29	C9H4ClF2+
185.0453	18	C9H6F3N+
185.0637	43	C12H8FN+
185.9917	28	C8H3ClF2N+
186.0277	2	C12H4F2+
186.0351	34	C11H5FNO+
186.0711	2	C12H9FN+
187.0555	28	C12H8FO+
188.0259	157	C14H4O+
188.0433	55	C12H6F2+
189.0385	340	C11H5F2N+
190.0462	47	C11H6F2N+
191.0418	1	C10H5F2N2+
192.001	128	C10H4ClFN+
193.0326	2	C13H4FN+
194.0395	3	C13H5FN+
194.06	12	C13H8NO+
195.0479	96	C13H6FN+
196.0557	107	C13H7FN+
197.0511	11	C12H6FN2+
197.0634	70	C13H8FN+
198.0528	4	C10H7F3N+
198.0714	12	C13H9FN+
198.9993	1	C9H4ClF2N+
200.0256	13	C12H7ClN+
200.0505	8	C12H7FNO+
201.0337	49	C12H8ClN+
202.047	103	C9H7F3NO+
203.0541	12	C12H7F2N+
204.0019	21	C11H2F2O2+
204.0557	3	C13H6N3+
205.046	3	C12H7F2O+
206.017	15	C11H6ClFN+
206.0414	24	C11H6F2NO+
208.037	13	C11H5F3N+
209.0447	23	C11H6F3N+
210.0116	11	C10H6ClFNO+
212.0075	31	C10H5ClF2N+
212.0506	8	C13H7FNO+
213.0381	12	C13H5F2N+
214.0463	73	C13H6F2N+
215.0428	3	C11H10ClF2+
215.0541	50	C13H7F2N+
216.0022	6	C9H5ClF2NO+
216.062	101	C13H8F2N+
218.0373	1	C12H9ClNO+
219.0244	3	C12H7ClFN+
220.057	12	C12H8F2NO+
221.0281	3	C11H5F2NO2+
222.0116	12	C11H6ClFNO+
222.053	43	C12H7F3N+
222.9996	7	C11H4ClF2N+
224.0073	93	C11H5ClF2N+
225.0027	1	C10H2F3NO2+
230.0167	3	C13H6ClFN+
231.0244	1	C13H7ClFN+
232.0138	9	C10H6ClF3N+
232.0323	6	C13H8ClFN+
234.0522	5	C13H7F3N+
235.0604	4	C13H8F3N+
236.0073	2	C12H5ClF2N+
236.0677	11	C13H9F3N+
237.0152	24	C12H6ClF2N+
247.0443	1	C13H7F2NO2+
250.0225	17	C13H7ClF2N+
