Mass spectrum: Dienogest; LC-ESI-QFT; MS2; CE: 45; R=35000; [M-H]-
Name: Dienogest
Name: 2-[(8S,13S,14S,17R)-17-hydroxy-13-methyl-3-oxo-1,2,6,7,8,11,12,14,15,16-decahydrocyclopenta[a]phenanthren-17-yl]acetonitrile
Formula: C20H25NO2
Exact mass: 311.18853
SMILES: C[C@]12CCC3=C4CCC(=O)C=C4CC[C@H]3[C@@H]1CC[C@]2(CC#N)O
InChI: InChI=1S/C20H25NO2/c1-19-8-6-16-15-5-3-14(22)12-13(15)2-4-17(16)18(19)7-9-20(19,23)10-11-21/h12,17-18,23H,2-10H2,1H3/t17-,18+,19+,20-/m1/s1
Instrument: Q Exactive Orbitrap Thermo Scientific
Instrument type: LC-ESI-QFT
Ms type: MS2
Ion mode: NEGATIVE
Ionization: ESI
Fragmentation mode: HCD
Collision energy: 45 (nominal)
Resolution: 35000
Column name: XBridge C18 3.5um, 2.1x50mm, Waters
Retention time: 8.2 min
Base peak: 356.1873
Precursor m/z: 310.1813
Precursor type: [M-H]-
m/z	relative intensity	assigned
66.035	10	C4H4N-
80.0507	14	C5H6N-
106.0665	5	C7H8N-
109.066	5	C7H9O-
130.0175	1	C7H2N2O-
130.0661	5	C9H8N-
131.0137	1	C8H3O2-
131.0867	1	C10H11-
132.082	59	C9H10N-
144.0821	1	C10H10N-
145.0659	6	C10H9O-
147.0816	3	C10H11O-
155.0866	1	C12H11-
157.0658	1	C11H9O-
159.0816	28	C11H11O-
161.0973	14	C11H13O-
171.0817	6	C12H11O-
173.0971	324	C12H13O-
184.0897	1	C13H12O-
197.0977	1	C14H13O-
199.1131	9	C14H15O-
211.1132	5	C15H15O-
212.1206	1	C15H16O-
213.1286	16	C15H17O-
223.1127	3	C16H15O-
225.1286	19	C16H17O-
227.1441	1	C16H19O-
239.1439	1	C17H19O-
249.1285	7	C18H17O-
251.1444	11	C18H19O-
262.1236	6	C18H16NO-
263.132	11	C18H17NO-
264.1392	6	C18H18NO-
265.1601	1	C19H21O-
267.1392	6	C18H19O2-
269.1549	49	C18H21O2-
274.1235	7	C19H16NO-
275.132	3	C19H17NO-
276.1395	21	C19H18NO-
277.147	1	C19H19NO-
290.1554	38	C20H20NO-
292.1709	999	C20H22NO-
310.1815	39	C20H24NO2-
