Mass spectrum: Niflumic acid; LC-ESI-QFT; MS2; CE: 180; R=35000; [M-H]-
Name: Niflumic acid
Name: 2-[3-(trifluoromethyl)anilino]pyridine-3-carboxylic acid
Formula: C13H9F3N2O2
Exact mass: 282.06161
SMILES: C1=CC(=CC(=C1)NC2=C(C=CC=N2)C(=O)O)C(F)(F)F
InChI: InChI=1S/C13H9F3N2O2/c14-13(15,16)8-3-1-4-9(7-8)18-11-10(12(19)20)5-2-6-17-11/h1-7H,(H,17,18)(H,19,20)
Instrument: Q Exactive Plus Orbitrap Thermo Scientific
Instrument type: LC-ESI-QFT
Ms type: MS2
Ion mode: NEGATIVE
Ionization: ESI
Fragmentation mode: HCD
Collision energy: 180 (nominal)
Resolution: 35000
Column name: XBridge C18 3.5um, 2.1x50mm, Waters
Retention time: 12.9 min
Base peak: 281.0538
Precursor m/z: 281.0543
Precursor type: [M-H]-
m/z	relative intensity	assigned
50.0036	964	C3N-
64.0193	125	C4H2N-
66.0349	372	C4H4N-
66.9989	16	C4F-
68.9958	85	CF3-
72.0007	185	C6-
73.0084	999	C6H-
74.0037	720	C5N-
76.0193	16	C5H2N-
89.0146	49	C5HN2-
90.035	28	C6H4N-
91.0302	169	C5H3N2-
93.0457	221	C5H5N2-
96.0005	25	C8-
97.0083	285	C8H-
98.0036	888	C7N-
100.0192	56	C7H2N-
114.0349	395	C8H4N-
115.0301	21	C7H3N2-
116.9958	12	C5F3-
121.0084	111	C10H-
122.0036	244	C9N-
124.019	27	C9H2N-
138.0348	126	C10H4N-
139.0302	60	C9H3N2-
141.0461	13	C9H5N2-
147.0112	17	C11HN-
148.0194	71	C11H2N-
163.0304	20	C11H3N2-
165.0458	266	C11H5N2-
174.0221	15	C12H2N2-
175.0301	201	C12H3N2-
