Mass spectrum: Pyrithione; LC-ESI-QFT; MS2; CE: 120%; R=17500; [M+H]+
Name: Pyrithione
Name: 1-hydroxypyridine-2-thione
Formula: C5H5NOS
Exact mass: 127.0092
SMILES: C1=CC(=S)N(C=C1)O
InChI: InChI=1S/C5H5NOS/c7-6-4-2-1-3-5(6)8/h1-4,7H
Instrument: Exploris 240 Orbitrap Thermo Scientific
Instrument type: LC-ESI-QFT
Ms type: MS2
Ion mode: POSITIVE
Ionization: ESI
Fragmentation mode: HCD
Collision energy: 120 % (nominal)
Resolution: 17500
Column name: XBridge C18 3.5um, 2.1x50mm, Waters
Retention time: 2.993 min
Base peak: 128.0164
Precursor m/z: 128.0165
Precursor type: [M+H]+
m/z	relative intensity	assigned
41.0261	3	C2H3N+
44.9793	5	CHS+
51.0229	13	C4H3+
52.0183	4	C3H2N+
56.0494	5	C3H6N+
66.0338	27	C4H4N+
67.0417	999	C4H5N+
68.9794	40	C3HS+
78.0338	58	C5H4N+
82.995	267	C4H3S+
83.9902	22	C3H2NS+
84.0029	2	C4H4S+
96.0444	55	C5H6NO+
110.0059	132	C5H4NS+
111.0137	156	C5H5NS+
128.0166	26	C5H6NOS+
