Mass spectrum: Dicloxacillin; LC-ESI-QFT; MS2; CE: 15; R=35000; [M-H]-
Name: Dicloxacillin
Name: 6-[[3-(2,6-dichlorophenyl)-5-methyl-1,2-oxazole-4-carbonyl]amino]-3,3-dimethyl-7-oxo-4-thia-1-azabicyclo[3.2.0]heptane-2-carboxylic acid
Formula: C19H17Cl2N3O5S
Exact mass: 469.02660
SMILES: CC1=C(C(=NO1)C2=C(C=CC=C2Cl)Cl)C(=O)NC3C4N(C3=O)C(C(S4)(C)C)C(=O)O
InChI: InChI=1S/C19H17Cl2N3O5S/c1-7-10(12(23-29-7)11-8(20)5-4-6-9(11)21)15(25)22-13-16(26)24-14(18(27)28)19(2,3)30-17(13)24/h4-6,13-14,17H,1-3H3,(H,22,25)(H,27,28)
Instrument: Q Exactive Plus Orbitrap Thermo Scientific
Instrument type: LC-ESI-QFT
Ms type: MS2
Ion mode: NEGATIVE
Ionization: ESI
Fragmentation mode: HCD
Collision energy: 15 (nominal)
Resolution: 35000
Column name: XBridge C18 3.5um, 2.1x50mm, Waters
Retention time: 9.5 min
Base peak: 468.0196
Precursor m/z: 468.0193
Precursor type: [M-H]-
m/z	relative intensity	assigned
57.9757	2	CNS-
74.9911	6	C2H3OS-
83.014	1	C4H3O2-
156.0129	1	C3H9ClN2OS-
190.0066	1	C10H5ClNO-
233.0115	2	C11H6ClN2O2-
247.9823	1	C8H8Cl2N3S-
247.9945	22	C9H10Cl2N2S-
248.9901	3	C8H9Cl2N3S-
255.0237	1	C10H10ClN3OS-
258.02	4	C13H7ClN2O2-
275.977	1	C9H8Cl2N3OS-
291.0005	168	C10H11Cl2N3OS-
326.9771	999	C13H9Cl2N2O2S-
388.0532	40	C18H15ClN3O3S-
424.03	90	
