Mass spectrum: Bupropion; LC-ESI-ITFT; MS2; CE: 45%; R=15000; [M+H]+
Name: Bupropion
Name: 2-(tert-butylamino)-1-(3-chlorophenyl)-1-propanone
Formula: C13H18ClNO
Exact mass: 239.1077
SMILES: c1(C(=O)C(NC(C)(C)C)C)cc(ccc1)Cl
InChI: InChI=1S/C13H18ClNO/c1-9(15-13(2,3)4)12(16)10-6-5-7-11(14)8-10/h5-9,15H,1-4H3
Instrument: LTQ Orbitrap XL Thermo Scientific
Instrument type: LC-ESI-ITFT
Ms type: MS2
Ion mode: POSITIVE
Ionization: ESI
Fragmentation mode: HCD
Collision energy: 45 % (nominal)
Resolution: 15000
Column name: XBridge C18 3.5um, 2.1x50mm, Waters
Retention time: 5.8 min
Base peak: 240.1157
Precursor m/z: 240.115
Precursor type: [M+H]+
m/z	relative intensity	assigned
57.0699	37	C4H9+
103.0542	3	C8H7+
130.0653	8	C9H8N+
131.073	244	C9H9N+
139.031	124	C8H8Cl+
151.0183	2	C8H6ClN+
166.042	999	C9H9ClN+
167.0259	441	C9H8ClO+
184.0524	706	C9H11ClNO+
240.1147	5	C13H19ClNO+
