Mass spectrum: N-Desmethyltramadol; LC-ESI-QFT; MS2; CE: 180; R=35000; [M+H]+
Name: N-Desmethyltramadol
Name: N-demethyltramadol
Name: 1-(3-methoxyphenyl)-2-(methylaminomethyl)cyclohexan-1-ol
Formula: C15H23NO2
Exact mass: 249.17288
SMILES: CNCC1CCCCC1(c2cccc(c2)OC)O
InChI: InChI=1S/C15H23NO2/c1-16-11-13-6-3-4-9-15(13,17)12-7-5-8-14(10-12)18-2/h5,7-8,10,13,16-17H,3-4,6,9,11H2,1-2H3
Instrument: Q Exactive Plus Orbitrap Thermo Scientific
Instrument type: LC-ESI-QFT
Ms type: MS2
Ion mode: POSITIVE
Ionization: ESI
Fragmentation mode: HCD
Collision energy: 180 (nominal)
Resolution: 35000
Column name: XBridge C18 3.5um, 2.1x50mm, Waters
Retention time: 5.2 min
Base peak: 250.1799
Precursor m/z: 250.1802
Precursor type: [M+H]+
m/z	relative intensity	assigned
50.0151	300	
51.023	830	C4H3+
52.0308	186	
53.0386	195	C4H5+
63.0229	729	C5H3+
64.0307	217	
65.0386	999	C5H5+
66.0464	81	
75.0229	52	
77.0386	125	C6H5+
78.0464	912	C6H6+
89.0386	324	C7H5+
91.0542	559	C7H7+
92.0257	91	C6H4O+
95.0491	528	C6H7O+
102.0464	211	C8H6+
103.0543	118	C8H7+
105.0448	291	C6H5N2+
115.0543	891	C9H7+
128.0621	356	C10H8+
