Mass spectrum: Chlordiazepoxide; LC-ESI-QFT; MS2; CE: 120; R=35000; [M+H]+
Name: Chlordiazepoxide
Name: Zetran
Name: 7-chloro-4-hydroxy-N-methyl-5-phenyl-3H-1,4-benzodiazepin-2-imine
Formula: C16H14ClN3O
Exact mass: 299.08254
SMILES: CN=C1CN(C(=C2C=C(C=CC2=N1)Cl)C3=CC=CC=C3)O
InChI: InChI=1S/C16H14ClN3O/c1-18-15-10-20(21)16(11-5-3-2-4-6-11)13-9-12(17)7-8-14(13)19-15/h2-9,21H,10H2,1H3
Instrument: Q Exactive Plus Orbitrap Thermo Scientific
Instrument type: LC-ESI-QFT
Ms type: MS2
Ion mode: POSITIVE
Ionization: ESI
Fragmentation mode: HCD
Collision energy: 120 (nominal)
Resolution: 35000
Column name: XBridge C18 3.5um, 2.1x50mm, Waters
Retention time: 6.2 min
Base peak: 300.0888
Precursor m/z: 300.0898
Precursor type: [M+H]+
m/z	relative intensity	assigned
50.015	8	C4H2+
51.0229	9	C4H3+
53.0022	3	C3HO+
53.0385	9	C4H5+
55.0178	1	C3H3O+
55.029	9	C2H3N2+
56.0494	1	C3H6N+
57.0447	456	C2H5N2+
61.9791	1	CHClN+
62.0149	3	C5H2+
63.0228	45	C5H3+
64.0306	1	C5H4+
65.0385	10	C5H5+
66.0464	4	C5H6+
72.9838	3	C3H2Cl+
74.015	6	C6H2+
75.0228	43	C6H3+
76.0181	3	C5H2N+
77.0384	28	C6H5+
78.0337	1	C5H4N+
78.0464	1	C6H6+
81.0333	1	C5H5O+
84.9838	4	C4H2Cl+
86.9995	7	C4H4Cl+
88.0306	1	C7H4+
89.0384	999	C7H5+
90.0337	3	C6H4N+
90.0463	19	C7H6+
91.0416	1	C6H5N+
91.0542	13	C7H7+
93.0334	4	C6H5O+
93.0573	4	C6H7N+
95.049	36	C6H7O+
98.9995	4	C5H4Cl+
99.0102	3	C7HN+
100.018	75	C7H2N+
102.0338	7	C7H4N+
103.0416	3	C7H5N+
104.0493	24	C7H6N+
105.0446	24	C6H5N2+
108.9838	4	C6H2Cl+
110.9995	11	C6H4Cl+
114.0336	9	C8H4N+
115.0415	7	C8H5N+
115.0541	20	C9H7+
116.0494	13	C8H6N+
117.0571	19	C8H7N+
118.0286	20	C7H4NO+
118.0524	3	C7H6N2+
118.0649	2	C8H8N+
120.0442	3	C7H6NO+
122.9994	16	C7H4Cl+
123.9948	3	C6H3ClN+
124.0073	41	C7H5Cl+
125.0151	4	C7H6Cl+
125.0385	1	C10H5+
126.0105	1	C6H5ClN+
126.0463	1	C10H6+
127.0414	5	C9H5N+
127.054	1	C10H7+
128.0493	3	C9H6N+
128.0618	1	C10H8+
129.01	21	C6H6ClO+
129.0444	8	C8H5N2+
130.0398	13	C7H4N3+
130.0651	1	C9H8N+
131.06	4	C8H7N2+
135.9948	15	C7H3ClN+
137.0026	1	C7H4ClN+
138.0103	39	C7H5ClN+
139.0056	59	C6H4ClN2+
139.0541	19	C11H7+
140.0493	7	C10H6N+
140.0617	5	C11H8+
146.0599	1	C9H8NO+
150.0104	14	C8H5ClN+
150.0462	8	C12H6+
151.0181	11	C8H6ClN+
151.0541	17	C12H7+
152.0619	46	C12H8+
153.0572	3	C11H7N+
153.0697	6	C12H9+
154.0053	5	C7H5ClNO+
154.0398	2	C9H4N3+
154.065	1	C11H8N+
155.0348	1	C8H3N4+
155.0602	1	C10H7N2+
162.0104	4	C9H5ClN+
162.0468	1	C13H6+
163.0056	30	C8H4ClN2+
163.054	59	C13H7+
164.0008	51	C7H3ClN3+
164.0494	9	C12H6N+
164.0618	100	C13H8+
165.0213	46	C8H6ClN2+
165.0697	866	C13H9+
166.065	15	C12H8N+
167.0491	1	C12H7O+
167.0728	2	C12H9N+
168.0568	39	C12H8O+
169.0646	34	C12H9O+
170.0598	2	C11H8NO+
175.054	2	C14H7+
176.0493	1	C13H6N+
176.0618	26	C14H8+
177.0571	50	C13H7N+
177.0697	4	C14H9+
178.0289	3	C12H4NO+
178.065	42	C13H8N+
179.0605	18	C12H7N2+
179.0727	44	C13H9N+
180.056	1	C11H6N3+
180.0805	13	C13H10N+
181.0163	2	C8H6ClN2O+
183.0803	3	C13H11O+
188.0493	25	C14H6N+
189.057	38	C14H7N+
190.0649	270	C14H8N+
191.0727	173	C14H9N+
192.0805	75	C14H10N+
193.0519	9	C13H7NO+
193.0646	6	C14H9O+
193.0759	2	C13H9N2+
193.0882	3	C14H11N+
194.0601	5	C13H8NO+
195.0442	1	C10H10ClNO+
196.0516	9	C10H11ClNO+
196.0754	4	C13H10NO+
198.0227	2	C13H7Cl+
199.0307	52	C13H8Cl+
201.0338	5	C12H8ClN+
201.057	15	C15H7N+
202.0649	24	C15H8N+
203.0603	6	C14H7N2+
203.0727	93	C15H9N+
204.0555	3	C13H6N3+
204.0681	12	C14H8N2+
204.0805	16	C15H10N+
205.0759	171	C14H9N2+
206.0838	23	C14H10N2+
207.0676	14	C14H9NO+
213.0338	20	C13H8ClN+
214.0417	13	C13H9ClN+
215.0602	56	C15H7N2+
216.0681	39	C15H8N2+
217.0758	103	C15H9N2+
218.0837	115	C15H10N2+
219.0915	34	C15H11N2+
220.0755	23	C15H10NO+
221.0468	6	C11H10ClN2O+
221.0704	1	C14H9N2O+
224.026	29	C14H7ClN+
225.0338	4	C14H8ClN+
226.0415	18	C14H9ClN+
227.0493	14	C14H10ClN+
229.0757	15	C16H9N2+
230.0711	7	C15H8N3+
231.0789	33	C15H9N3+
232.0867	32	C15H10N3+
234.0786	5	C15H10N2O+
235.0864	3	C15H11N2O+
237.0336	3	C15H8ClN+
238.0415	5	C15H9ClN+
239.037	26	C14H8ClN2+
240.0447	10	C14H9ClN2+
241.052	6	C14H10ClN2+
244.0866	3	C16H10N3+
245.0945	6	C16H11N3+
246.1024	11	C16H12N3+
247.1101	1	C16H13N3+
251.0366	2	C15H8ClN2+
252.0445	24	C15H9ClN2+
253.0524	4	C15H10ClN2+
265.0523	4	C16H10ClN2+
266.0479	11	C15H9ClN3+
267.0554	5	C15H10ClN3+
