Mass spectrum: Dimethachlor ESA; LC-ESI-ITFT; MS2; CE: 60%; R=15000; [M-H]-
Name: Dimethachlor ESA
Name: 2-[(2,6-dimethylphenyl)(2-methoxyethyl)amino]-2-oxoethanesulfonic acid
Formula: C13H19NO5S
Exact mass: 301.0984
SMILES: CC1=C(N(C(CS(O)(=O)=O)=O)CCOC)C(C)=CC=C1
InChI: InChI=1S/C13H19NO5S/c1-10-5-4-6-11(2)13(10)14(7-8-19-3)12(15)9-20(16,17)18/h4-6H,7-9H2,1-3H3,(H,16,17,18)
Instrument: LTQ Orbitrap XL Thermo Scientific
Instrument type: LC-ESI-ITFT
Ms type: MS2
Ion mode: NEGATIVE
Ionization: ESI
Fragmentation mode: HCD
Collision energy: 60 % (nominal)
Resolution: 15000
Column name: XBridge C18 3.5um, 2.1x50mm, Waters
Retention time: 5.9 min
Base peak: 300.0909
Precursor m/z: 300.0911
Precursor type: [M-H]-
m/z	relative intensity	assigned
76.9701	94	CHO2S-
79.9573	999	O3S-
119.976	15	C2H2NO3S-
120.96	132	C2HO4S-
121.0659	26	C8H9O-
130.0662	12	C9H8N-
146.0975	21	C10H12N-
300.09	10	C13H18NO5S-
