Mass spectrum: Sulfentrazon; LC-ESI-QFT; MS2; CE: 75; R=35000; [M-H]-
Name: Sulfentrazon
Name: N-(2,4-dichloro-5-(4-(difluoromethyl)-4,5-dihydro-3-methyl-5-oxo-1H-1,2,4-triazol-1-yl)phenyl)methanesulfonamide
Name: N-[2,4-dichloro-5-[4-(difluoromethyl)-3-methyl-5-oxo-1,2,4-triazol-1-yl]phenyl]methanesulfonamide
Formula: C11H10Cl2F2N4O3S
Exact mass: 385.98187
SMILES: O=S(=O)(Nc2c(Cl)cc(Cl)c(N1/N=C(\N(C1=O)C(F)F)C)c2)C
InChI: InChI=1S/C11H10Cl2F2N4O3S/c1-5-16-19(11(20)18(5)10(14)15)9-4-8(17-23(2,21)22)6(12)3-7(9)13/h3-4,10,17H,1-2H3
Instrument: Q Exactive Plus Orbitrap Thermo Scientific
Instrument type: LC-ESI-QFT
Ms type: MS2
Ion mode: NEGATIVE
Ionization: ESI
Fragmentation mode: HCD
Collision energy: 75 (nominal)
Resolution: 35000
Column name: XBridge C18 3.5um, 2.1x50mm, Waters
Retention time: 7.5 min
Base peak: 384.9745
Precursor m/z: 384.9746
Precursor type: [M-H]-
m/z	relative intensity	assigned
50.0036	10	C3N-
63.9625	66	O2S-
65.0146	3	C3HN2-
65.9986	5	C3NO-
70.9462	46	Cl2H-
71.0052	76	C2FN2-
74.0037	14	C5N-
76.9704	107	CHO2S-
78.986	19	CH3O2S-
79.9575	1	O3S-
80.0142	10	C4H2NO-
82.0411	40	C3H4N3-
87	28	C2FN2O-
87.0114	1	C6HN-
88.0068	10	C5N2-
88.0193	6	C6H2N-
89.0148	5	C5HN2-
89.9986	8	C5NO-
90.01	2	C4N3-
91.0112	18	C2HF2N2-
98.0037	1	C7N-
100.0067	85	C6N2-
101.0145	50	C6HN2-
108.0203	5	C4H2N3O-
112.0069	8	C7N2-
113.0147	2	C7HN2-
114.0099	5	C6N3-
114.0224	1	C7H2N2-
115.0178	6	C6HN3-
116.0255	2	C6H2N3-
117.046	2	C7H5N2-
119.0052	5	ClH8N2OS-
121.9805	3	C6HClN-
123.9959	12	C6H3ClN-
124.0066	1	C8N2-
126.0099	93	C7N3-
127.9911	8	F2N3O3-
128.0266	100	C4H3FN3O-
134.9756	29	C6ClN2-
136.9912	6	C6H2ClN2-
139.0176	6	C8HN3-
140.0255	44	C8H2N3-
142.0411	7	C8H4N3-
145.0081	5	C7FN3-
146.0162	11	CH9ClN3OS-
146.9757	5	C7ClN2-
148.0329	36	C9H5FO-
148.9913	13	C7H2ClN2-
151.0068	7	C7H4ClN2-
152.0147	35	C7H5ClN2-
153.0227	102	C7H6ClN2-
155.0363	1	C8H3N4-
156.0444	2	C8H4N4-
157.957	7	C6H2Cl2N-
160.9787	5	C7ClN3-
161.9866	25	C7HClN3-
162.9704	3	C7ClN2O-
163.9784	20	C7HClN2O-
164.9861	46	C7H2ClN2O-
165.0209	12	C9HN4-
166.9819	69	CH9Cl2N2OS-
168.0206	12	C9H2N3O-
168.9976	1	C7H3ClFN2-
171.024	7	C9H2FN3-
171.9602	72	C6H2Cl2N2-
173.9861	3	C8HClN3-
174.011	7	C2H9ClN3O2S-
174.031	5	C8H4N3O2-
176.0022	23	C8H3ClN3-
177.0101	10	C8H4ClN3-
177.9815	11	C7HClN3O-
178.0179	25	C8H5ClN3-
178.9894	2	C7H2ClN3O-
179.9426	5	C5HCl2FNO-
179.9972	26	C7H3ClN3O-
180.9852	7	CH9Cl2N3OS-
182.9522	19	C7HCl2N2-
182.9769	7	CH9Cl2N2O2S-
184.0394	3	C9H4N4O-
185.0266	2	C9H2FN4-
188.9739	2	C5H3Cl2N4-
189.9815	167	C8HClN3O-
196.9553	18	C7HCl2N3-
198.9473	999	C7HCl2N2O-
199.9551	56	C7H2Cl2N2O-
200.963	59	C7H3Cl2N2O-
202.9813	18	C7H6ClNO2S-
203.9969	31	C9H3ClN3O-
208.9798	7	C2H9Cl2N3O2S-
209.9877	2	C8H2ClFN3O-
212.9629	39	C8H3Cl2N2O-
215.9759	6	C4H5Cl2FN3O2-
221.0239	17	C9H6ClN4O-
225.9582	130	C8H2Cl2N3O-
228.9912	1	C10H2ClN4O-
231	72	C8H8ClN2O2S-
238.9656	1	C9H3Cl2N3O-
239.9737	89	C9H4Cl2N3O-
255.9951	2	C9H7ClN3O2S-
306.9971	3	C10H7Cl2F2N4O-
