Mass spectrum: Sarafloxacin; LC-ESI-QFT; MS2; CE: 180; R=35000; [M+H]+
Name: Sarafloxacin
Name: 6-fluoro-1-(4-fluorophenyl)-4-oxo-7-piperazin-1-ylquinoline-3-carboxylic acid
Formula: C20H17F2N3O3
Exact mass: 385.12380
SMILES: C1CN(CCN1)C2=C(C=C3C(=C2)N(C=C(C3=O)C(=O)O)C4=CC=C(C=C4)F)F
InChI: InChI=1S/C20H17F2N3O3/c21-12-1-3-13(4-2-12)25-11-15(20(27)28)19(26)14-9-16(22)18(10-17(14)25)24-7-5-23-6-8-24/h1-4,9-11,23H,5-8H2,(H,27,28)
Instrument: Q Exactive Plus Orbitrap Thermo Scientific
Instrument type: LC-ESI-QFT
Ms type: MS2
Ion mode: POSITIVE
Ionization: ESI
Fragmentation mode: HCD
Collision energy: 180 (nominal)
Resolution: 35000
Column name: XBridge C18 3.5um, 2.1x50mm, Waters
Retention time: 4.7 min
Base peak: 386.1304
Precursor m/z: 386.1311
Precursor type: [M+H]+
m/z	relative intensity	assigned
50.0151	86	C4H2+
51.023	64	C4H3+
52.0182	14	C3H2N+
53.0022	62	C3HO+
53.0386	21	C4H5+
54.0339	3	C3H4N+
55.0179	3	C3H3O+
56.0495	24	C3H6N+
57.0135	554	C3H2F+
59.0292	27	C3H4F+
61.0073	70	C5H+
62.0151	159	C5H2+
63.023	384	C5H3+
64.0182	26	C4H2N+
64.0308	4	C5H4+
65.0022	10	C4HO+
65.026	4	C4H3N+
65.0386	29	C5H5+
68.0057	29	C4HF+
68.0494	4	C4H6N+
69.0135	23	C4H2F+
70.0214	45	C4H3F+
71.0292	8	C4H4F+
74.0151	498	C6H2+
75.0229	999	C6H3+
76.0181	68	C5H2N+
76.0307	42	C6H4+
77.0385	56	C6H5+
78.0339	21	C5H4N+
78.0464	15	C6H6+
79.0179	2	C5H3O+
79.0417	2	C5H5N+
80.0494	2	C5H6N+
81.0135	377	C5H2F+
82.0088	33	C4HFN+
82.0213	28	C5H3F+
83.0292	278	C5H4F+
84.037	19	C5H5F+
85.0073	40	
86.0151	82	
87.0105	27	C6HN+
87.023	144	C7H3+
88.0182	55	C6H2N+
88.0308	38	C7H4+
89.0386	193	C7H5+
90.0339	11	C6H4N+
90.0465	13	C7H6+
91.0417	3	C6H5N+
91.0543	11	C7H7+
92.0057	12	C6HF+
92.0258	3	C6H4O+
93.0136	28	C6H2F+
94.0214	78	C6H3F+
95.0291	37	C6H4F+
95.0492	74	C6H7O+
96.0244	3	C5H3FN+
96.037	31	C6H5F+
96.0445	16	C5H6NO+
97.0323	2	C5H4FN+
98.0152	135	C8H2+
99.023	207	C8H3+
100.0182	93	C7H2N+
100.0307	26	C8H4+
101.0198	23	C5H3F2+
101.0387	33	C8H5+
102.0339	33	C7H4N+
102.0465	47	C8H6+
103.0418	5	C7H5N+
103.0543	8	C8H7+
104.0494	10	C7H6N+
105.0136	163	C7H2F+
105.0448	43	C6H5N2+
106.0088	18	C6HFN+
106.0214	57	C7H3F+
107.0292	806	C7H4F+
108.0244	44	C6H3FN+
108.037	37	C7H5F+
109.0449	38	C7H6F+
110.0152	50	C9H2+
111.0103	11	C8HN+
111.023	36	C9H3+
112.0182	23	C8H2N+
113.026	9	C8H3N+
113.0393	66	CH5F2N3O+
114.0339	46	C8H4N+
115.0417	14	C8H5N+
115.0543	22	C9H7+
116.0495	11	C8H6N+
117.0573	4	C8H7N+
118.0214	12	C8H3F+
118.0288	4	C7H4NO+
119.0292	13	C8H4F+
120.0371	68	C8H5F+
120.0443	5	C7H6NO+
121.0322	13	C7H4FN+
122.0152	43	
122.0401	32	C7H5FN+
123.023	114	C10H3+
123.0354	72	C6H4FN2+
124.0183	39	C9H2N+
125.0199	32	C7H3F2+
125.0388	25	C10H5+
126.034	47	C9H4N+
127.0417	15	C9H5N+
128.0495	57	C9H6N+
129.0135	37	
129.0447	82	C8H5N2+
130.0089	10	C8HFN+
130.0401	26	C7H4N3+
131.0292	182	C9H4F+
132.0245	81	C8H3FN+
132.0371	14	C9H5F+
133.0323	14	C8H4FN+
133.0449	85	C9H6F+
134.0401	31	C8H5FN+
135.0478	12	C8H6FN+
136.0315	11	C3H4F2N3O+
137.0387	26	C11H5+
138.0112	3	C7H3FO2+
138.0341	16	C10H4N+
140.0496	21	C10H6N+
141.0572	4	C10H7N+
142.0214	12	C10H3F+
142.0654	4	C10H8N+
143.0292	19	C10H4F+
144.037	57	C10H5F+
145.0325	18	C9H4FN+
146.0402	39	C9H5FN+
146.0531	3	C10H7F+
146.0602	2	C9H8NO+
147.0231	34	
147.0353	23	C8H4FN2+
147.0477	5	C9H6FN+
148.0182	25	C11H2N+
148.0307	12	C12H4+
148.0559	16	C9H7FN+
149.0198	46	C9H3F2+
149.0388	38	C4H5F2N3O+
150.0343	18	C8H5FNO+
150.0465	54	C12H6+
151.0356	76	C9H5F2+
151.0418	9	C11H5N+
152.0306	4	C8H4F2N+
152.05	15	C8H7FNO+
152.0624	2	C12H8+
153.0447	12	C10H5N2+
153.0576	3	C11H7N+
154.0401	32	C9H4N3+
155.0292	191	C11H4F+
156.0246	26	C10H3FN+
156.0371	40	C11H5F+
157.045	92	C11H6F+
158.0401	111	C10H5FN+
161.0387	152	C13H5+
162.0274	13	C10H4F2+
162.0464	21	C13H6+
163.0414	3	C12H5N+
163.0544	50	C13H7+
164.0438	2	C10H6F2+
164.0496	25	C12H6N+
165.0448	4	C11H5N2+
166.0214	5	C12H3F+
167.0293	20	C12H4F+
167.0491	9	C12H7O+
168.0372	195	C12H5F+
168.0441	12	C11H6NO+
169.0326	13	C11H4FN+
169.0449	7	C12H6F+
170.0409	16	C11H5FN+
170.0529	39	C12H7F+
170.06	4	C11H8NO+
171.0477	10	C11H6FN+
173.0198	35	C11H3F2+
173.0513	15	C10H6FN2+
174.0275	17	C11H4F2+
174.0344	11	C10H5FNO+
174.0466	51	C14H6+
175.0354	92	C11H5F2+
175.042	32	C13H5N+
176.0307	49	C10H4F2N+
176.0622	4	C14H8+
177.0573	10	C13H7N+
179.0293	360	C13H4F+
180.0249	47	C12H3FN+
180.037	133	C13H5F+
181.0449	549	C13H6F+
182.0402	177	C12H5FN+
182.0529	12	C13H7F+
183.0481	3	C12H6FN+
183.0607	14	C13H8F+
184.0556	10	C12H7FN+
186.0274	30	
186.0341	56	C11H5FNO+
186.0475	9	C12H7FO+
187.0422	24	C11H6FNO+
187.0553	46	C12H8FO+
188.0428	25	C12H6F2+
188.0497	113	C11H7FNO+
189.0574	9	C14H7N+
190.0652	3	C14H8N+
191.0293	3	C14H4F+
191.0484	3	C9H6FN3O+
192.037	42	C14H5F+
192.0444	5	C13H6NO+
193.0324	40	C13H4FN+
193.045	7	C14H6F+
193.0648	4	C14H9O+
194.0406	19	C13H5FN+
194.0528	41	C14H7F+
194.0605	5	C10H9FNO2+
195.0479	70	C13H6FN+
195.0561	3	C9H8FN2O2+
196.0559	18	C13H7FN+
197.051	19	C12H6FN2+
198.0277	47	C13H4F2+
199.0354	584	C13H5F2+
200.0306	113	C12H4F2N+
200.0431	18	C13H6F2+
201.0378	3	C12H5F2N+
201.0507	54	C13H7F2+
202.0462	29	C12H6F2N+
202.065	8	C15H8N+
203.0611	3	C11H8FN2O+
204.0378	16	C12H6F2O+
204.0558	11	C13H6N3+
205.0324	35	
205.0452	27	C15H6F+
206.0403	472	C14H5FN+
207.048	62	C14H6FN+
207.0582	3	C7H9F2N2O3+
208.0559	93	C14H7FN+
209.0636	9	C14H8FN+
210.0274	5	C14H4F2+
211.0433	9	C13H6FNO+
211.0557	4	C14H8FO+
212.0271	44	C13H5FO2+
212.0417	16	C6H6N5O4+
212.051	9	C13H7FNO+
213.0384	15	C13H5F2N+
214.0455	12	C13H6F2N+
215.0418	8	C12H5F2N2+
217.0322	9	C15H4FN+
219.048	37	C15H6FN+
220.0561	27	C15H7FN+
221.0525	15	C11H7F2N2O+
221.0634	13	C15H8FN+
222.0464	14	C18H6+
222.071	4	C15H9FN+
224.0308	83	C14H4F2N+
225.0388	57	C14H5F2N+
226.0465	219	C14H6F2N+
227.0533	21	C14H7F2N+
230.0402	4	C13H6F2NO+
232.0329	9	C13H6F2O2+
232.0437	5	C12H6F2N2O+
232.0558	9	C16H7FN+
233.0514	16	C12H7F2N2O+
234.0591	5	C15H7FN2+
237.0218	9	C14H4FNO2+
237.0384	3	C15H5F2N+
239.0381	3	C14H6FNO2+
239.0545	9	C15H7F2N+
240.0622	4	C15H8F2N+
247.0668	3	C16H8FN2+
252.0491	4	C15H6F2N2+
257.0282	9	C14H5F2NO2+
