Mass spectrum: Imiprothrin; LC-ESI-QFT; MS2; CE: 15; R=35000; [M+H]+
Name: Imiprothrin
Name: (2,5-dioxo-3-prop-2-ynylimidazolidin-1-yl)methyl 2,2-dimethyl-3-(2-methylprop-1-enyl)cyclopropane-1-carboxylate
Formula: C17H22N2O4
Exact mass: 318.15796
SMILES: O=C(OCN1C(=O)CN(C1=O)CC#C)C2C(\C=C(/C)C)C2(C)C
InChI: InChI=1S/C17H22N2O4/c1-6-7-18-9-13(20)19(16(18)22)10-23-15(21)14-12(8-11(2)3)17(14,4)5/h1,8,12,14H,7,9-10H2,2-5H3
Instrument: Q Exactive Orbitrap Thermo Scientific
Instrument type: LC-ESI-QFT
Ms type: MS2
Ion mode: POSITIVE
Ionization: ESI
Fragmentation mode: HCD
Collision energy: 15 (nominal)
Resolution: 35000
Column name: XBridge C18 3.5um, 2.1x50mm, Waters
Retention time: 11.7 min
Base peak: 341.1472
Precursor m/z: 319.1652
Precursor type: [M+H]+
m/z	relative intensity	assigned
59.0492	2	C3H7O+
67.0543	5	C5H7+
69.0334	1	C4H5O+
79.054	1	C6H7+
81.0699	24	C6H9+
93.0699	9	C7H9+
95.0492	1	C6H7O+
95.0855	6	C7H11+
107.0855	8	C8H11+
109.0648	22	C7H9O+
109.1012	11	C8H13+
113.0597	88	C6H9O2+
114.063	57	CH10N2O4+
121.0648	5	C8H9O+
121.1011	34	C9H13+
123.1168	574	C9H15+
131.0702	1	C6H11O3+
133.1012	10	C10H13+
135.1168	193	C10H15+
137.1324	5	C10H17+
139.0501	34	C6H7N2O2+
145.1011	16	C11H13+
151.1118	999	C10H15O+
163.1117	225	C11H15O+
169.0606	17	C7H9N2O3+
181.1219	1	C11H17O2+
193.097	2	C10H13N2O2+
207.1124	3	C11H15N2O2+
219.1128	2	C12H15N2O2+
259.1442	19	C15H19N2O2+
273.1597	91	C16H21N2O2+
275.1752	1	C16H23N2O2+
283.1442	8	C17H19N2O2+
291.1699	1	C16H23N2O3+
301.1544	112	C17H21N2O3+
319.1652	73	C17H23N2O4+
