Mass spectrum: Thiazopyr; LC-ESI-QFT; MS2; CE: 60; R=35000; [M+H]+
Name: Thiazopyr
Name: 2-(difluoromethyl)-4-isobutyl-5-(2-thiazolin-2-yl)-6-(trifluoromethyl)nicotinic acid methyl ester
Formula: C16H17F5N2O2S
Exact mass: 396.09309
SMILES: FC(F)c2nc(c(C/1=N/CCS\1)c(c2C(=O)OC)CC(C)C)C(F)(F)F
InChI: InChI=1S/C16H17F5N2O2S/c1-7(2)6-8-9(15(24)25-3)11(13(17)18)23-12(16(19,20)21)10(8)14-22-4-5-26-14/h7,13H,4-6H2,1-3H3
Instrument: Q Exactive Orbitrap Thermo Scientific
Instrument type: LC-ESI-QFT
Ms type: MS2
Ion mode: POSITIVE
Ionization: ESI
Fragmentation mode: HCD
Collision energy: 60 (nominal)
Resolution: 35000
Column name: XBridge C18 3.5um, 2.1x50mm, Waters
Retention time: 12.9 min
Base peak: 397.0997
Precursor m/z: 397.1004
Precursor type: [M+H]+
m/z	relative intensity	assigned
58.995	26	C2H3S+
60.0028	18	C2H4S+
61.0106	891	C2H5S+
73.0647	8	C4H9O+
75.0262	37	C3H7S+
76.0215	24	C2H6NS+
129.0697	9	C10H9+
154.0649	4	C11H8N+
155.06	4	C2H8F5N2+
155.0725	5	C11H9N+
158.0397	5	C7H10O2S+
172.021	5	C2H7F5NS+
174.0709	33	C8H14O2S+
181.0753	5	C4H10F5N2+
186.0583	7	C8H12NO2S+
192.0277	4	C10H7FNS+
192.0816	65	C11H11FNO+
194.0773	5	C8H15FO2S+
198.0179	4	C6H4F4NO2+
199.0466	6	C6H11F2NO2S+
199.086	5	C4H12F5N2O+
201.0818	46	C9H15NO2S+
202.0657	26	C12H9FNO+
203.0615	5	C11H8FN2O+
203.074	4	C12H10FNO+
204.0613	6	C9H13FO2S+
205.0228	4	C10H6FN2S+
206.0649	36	
207.0727	5	C11H9F2N2+
208.0567	6	C11H8F2NO+
209.0703	6	C8H9F4N2+
210.0521	18	C8H12F2O2S+
211.0135	6	C6H3F4N2O2+
211.0318	3	C4H8F5N2S+
215.061	8	C12H8FN2O+
217.0569	28	C9H12FNO2S+
218.0644	4	C9H13FNO2S+
219.038	27	C8H6F3N2O2+
220.0576	4	C12H8F2NO+
220.0766	4	C12H11FNO2+
221.088	58	C9H16FNO2S+
222.0721	278	C12H10F2NO+
223.0676	16	C11H9F2N2O+
224.0208	4	C7H4F4N2O2+
224.0678	54	C9H14F2O2S+
225.0286	19	C7H5F4N2O2+
226.0125	4	C13H5FNS+
226.0365	7	C7H6F4N2O2+
228.063	4	C14H8F2N+
229.0227	8	C12H6FN2S+
229.0769	65	C13H10FN2O+
229.9873	4	C12H2F2NS+
230.0121	12	C14H2N2O2+
230.0438	7	C10H10F2NOS+
231.0686	6	C13H10FNO2+
232.0101	5	C11H5FN2OS+
234.0597	35	C12H8F2N2O+
235.0131	20	C11H5F2N2S+
235.0333	9	C11H8FN2OS+
235.0675	37	C12H9F2N2O+
236.9924	11	C10H3F2N2OS+
237.0628	43	C9H13F2NO2S+
238.0368	4	C8H6F4N2O2+
238.0467	37	C15H6F2N+
238.0712	6	C12H9F3N2+
239.0438	24	C8H7F4N2O2+
239.0785	16	C9H15F2NO2S+
240.0293	4	C11H8F2NOS+
241.023	7	C13H6FN2S+
242.0477	11	C16H6N2O+
242.0783	28	C12H11F3NO+
242.9814	5	C12HF2N2S+
244.027	8	C15H4N2O2+
245.0526	29	C13H7F2N2O+
246.9945	7	C9H3F4N2S+
247.0328	39	C15H7N2S+
247.0473	11	C13H6F3N2+
247.0687	7	C10H10F3N2O2+
248.0021	16	C14HFN2O2+
249.0829	235	C13H11F2N2O+
250.0199	8	C14H6N2OS+
250.0671	142	C13H10F2NO2+
251.0085	5	C11H5F2N2OS+
251.0623	43	C12H9F2N2O2+
251.0787	16	C10H15F2NO2S+
252.0158	37	C11H6F2N2OS+
252.0623	6	C16H8F2N+
252.9995	6	C11H5F2NO2S+
253.0232	33	C14H6FN2S+
253.0581	25	C12H8F3N2O+
255.0193	64	C16H3N2O2+
255.0368	8	C14H5F2N2O+
255.0492	7	C15H7F2NO+
256.0037	54	C11H5F3NOS+
256.0272	8	C16H4N2O2+
256.0573	32	C15H8F2NO+
257.034	6	C8H6F5N2O2+
257.056	5	C11H11F2N2OS+
257.0708	36	C9H10F5N2O+
258.0066	51	C10H5F3N2OS+
259.0143	9	C10H6F3N2OS+
260.0041	7	C15H4N2OS+
261.0837	5	C14H11F2N2O+
262.0542	7	C16H7FN2O+
262.9891	16	C9H3F4N2OS+
263.0626	31	C16H8FN2O+
263.0986	8	C14H13F2N2O+
265.0448	12	C12H10FN2O2S+
265.0579	237	C13H8F3N2O+
266.0319	5	C15H7FN2S+
267.0387	30	C15H8FN2S+
267.0734	7	C13H10F3N2O+
268.0231	20	C15H7FNOS+
268.0375	9	C13H6F4NO+
269.0186	11	C11H7F2N2O2S+
269.0892	203	C13H12F3N2O+
270.0402	5	C15H5F3N2+
271.0142	107	C11H6F3N2OS+
271.0683	84	C12H10F3N2O2+
271.9858	17	C10H3F3N2O2S+
272.0221	111	C11H7F3N2OS+
272.0691	50	C13H10F4NO+
274.0175	6	C16H3FN2O2+
274.0562	5	C9H11F5N2S+
275.0257	532	C11H7F4N2S+
276.0334	511	
277.0599	20	C11H9F4N2O2+
277.0777	71	C14H11F2N2O2+
279.0736	9	C14H10F3N2O+
280.0109	73	C15H5FN2OS+
280.041	5	C14H9F3NS+
281.0541	4	C16H10FN2S+
282.0435	8	C13H9F3N2S+
282.06	5	C16H8F2N2O+
283.0144	97	C12H6F3N2OS+
283.0307	8	C15H5F2N2O2+
283.068	6	C16H9F2N2O+
283.1046	8	C14H14F3N2O+
285.0494	43	C15H10FN2OS+
285.064	204	C16H8F3N2+
287.0449	55	C15H9F2N2S+
288.0296	136	C12H9F3NO2S+
289.0241	23	C14H7F2N2OS+
290.9836	50	C13H2F3N2OS+
291.0204	40	C14H6F3N2S+
291.9932	5	C10H4F4N2O2S+
293.0544	31	C14H8F3N2O2+
295.0336	18	C16H8FN2OS+
295.0697	4	C14H13F2N2OS+
297.0665	22	C14H12F3N2S+
297.0839	245	C14H12F3N2O2+
299.0092	195	C12H6F3N2O2S+
300.017	587	C12H7F3N2O2S+
303.0205	948	C12H7F4N2OS+
304.0119	19	C14H6F2N2O2S+
305.0356	15	C12H9F4N2OS+
305.0547	26	C15H11F2N2OS+
306.0074	74	C14H5F3N2OS+
307.0153	19	C14H6F3N2OS+
307.0328	5	C12H8F5N2S+
307.0502	6	C12H8F5N2O2+
309.0854	7	C15H15F2N2OS+
311.0995	15	C15H14F3N2O2+
314.0324	44	C16H8F2N2OS+
315.0405	272	C13H10F3N2O2S+
317.0902	103	C14H13F4N2O2+
319.0154	630	C12H7F4N2O2S+
321.0303	4	C15H8F3N2OS+
322.0582	46	C15H12F2N2O2S+
324.0177	15	C14H7F3N2O2S+
325.0616	63	C15H12F3N2OS+
327.0392	14	C14H7F4N2O3+
327.0568	64	C15H11F4N2S+
333.0501	7	C16H11F2N2O2S+
334.0387	25	C16H9F3N2OS+
335.0466	999	C13H11F4N2O2S+
337.0813	41	C16H15F2N2O2S+
345.0682	5	C15H13F4N2OS+
357.0871	26	C16H16F3N2O2S+
377.0935	145	C16H17F4N2O2S+
397.0991	27	C16H18F5N2O2S+
