Mass spectrum: Terbumeton; LC-ESI-ITFT; MS2; CE: 60%; R=15000; [M+H]+
Name: Terbumeton
Name: 2-N-tert-butyl-4-N-ethyl-6-methoxy-1,3,5-triazine-2,4-diamine
Name: 1,3,5-Triazine-2,4-diamine, N-(1,1-dimethylethyl)-N'-ethyl-6-methoxy-
Formula: C10H19N5O
Exact mass: 225.1584
SMILES: c1(nc(nc(n1)OC)NCC)NC(C)(C)C
InChI: InChI=1S/C10H19N5O/c1-6-11-7-12-8(15-10(2,3)4)14-9(13-7)16-5/h6H2,1-5H3,(H2,11,12,13,14,15)
Instrument: LTQ Orbitrap XL Thermo Scientific
Instrument type: LC-ESI-ITFT
Ms type: MS2
Ion mode: POSITIVE
Ionization: ESI
Fragmentation mode: HCD
Collision energy: 60 % (nominal)
Resolution: 15000
Column name: XBridge C18 3.5um, 2.1x50mm, Waters
Retention time: 6.7 min
Base peak: 226.1662
Precursor m/z: 226.1662
Precursor type: [M+H]+
m/z	relative intensity	assigned
57.0447	14	C2H5N2+
57.0699	2	C4H9+
68.0244	11	C2H2N3+
69.0084	36	C2HN2O+
71.0604	12	C3H7N2+
75.0554	42	C2H7N2O+
82.04	1	C3H4N3+
83.0241	5	C3H3N2O+
85.0761	17	C4H9N2+
86.035	23	C2H4N3O+
96.0557	14	C4H6N3+
97.0397	18	C4H5N2O+
99.0664	2	C3H7N4+
100.0506	39	C3H6N3O+
110.0714	2	C5H8N3+
113.0823	2	C4H9N4+
114.0663	70	C4H8N3O+
127.0977	2	C5H11N4+
128.082	40	C5H10N3O+
138.0775	9	C5H8N5+
142.0725	96	C4H8N5O+
153.0776	1	C6H9N4O+
168.0882	3	C6H10N5O+
170.1038	999	C6H12N5O+
226.1664	18	C10H20N5O+
