Mass spectrum: Difethialone; LC-ESI-QFT; MS2; CE: 30%; R=17500; [M+H]+
Name: Difethialone
Name: 3-[3-[4-(4-bromophenyl)phenyl]-1,2,3,4-tetrahydronaphthalen-1-yl]-2-hydroxythiochromen-4-one
Formula: C31H23BrO2S
Exact mass: 538.0602
SMILES: C1C(CC2=CC=CC=C2C1C3=C(SC4=CC=CC=C4C3=O)O)C5=CC=C(C=C5)C6=CC=C(C=C6)Br
InChI: InChI=1S/C31H23BrO2S/c32-24-15-13-20(14-16-24)19-9-11-21(12-10-19)23-17-22-5-1-2-6-25(22)27(18-23)29-30(33)26-7-3-4-8-28(26)35-31(29)34/h1-16,23,27,34H,17-18H2
Instrument: Exploris 240 Orbitrap Thermo Scientific
Instrument type: LC-ESI-QFT
Ms type: MS2
Ion mode: POSITIVE
Ionization: ESI
Fragmentation mode: HCD
Collision energy: 30 % (nominal)
Resolution: 17500
Column name: XBridge C18 3.5um, 2.1x50mm, Waters
Retention time: 17.282 min
Base peak: 541.0654
Precursor m/z: 539.0675
Precursor type: [M+H]+
m/z	relative intensity	assigned
91.0543	24	C7H7+
117.0701	3	C9H9+
129.0696	13	C10H9+
165.07	67	C13H9+
178.0778	233	C14H10+
179.0166	19	C9H7O2S+
191.0162	224	C10H7O2S+
203.017	10	C11H7O2S+
205.0318	133	C11H9O2S+
242.9805	21	C13H8Br+
244.9957	39	C13H10Br+
256.1248	178	C20H16+
256.9959	21	C14H10Br+
307.0788	155	C19H15O2S+
335.0432	999	C20H16Br+
361.0577	7	C22H18Br+
435.0048	50	C23H16BrO2S+
447.006	10	C24H16BrO2S+
539.0675	143	C31H24BrO2S+
