Mass spectrum: Nordiazepam; LC-ESI-QFT; MS2; CE: 180; R=35000; [M+H]+
Name: Nordiazepam
Name: Nordazepam (1-Demethyldiazepam)
Name: 7-chloro-5-phenyl-1,3-dihydro-1,4-benzodiazepin-2-one
Formula: C15H11ClN2O
Exact mass: 270.05599
SMILES: C1C(=O)NC2=C(C=C(C=C2)Cl)C(=N1)C3=CC=CC=C3
InChI: InChI=1S/C15H11ClN2O/c16-11-6-7-13-12(8-11)15(17-9-14(19)18-13)10-4-2-1-3-5-10/h1-8H,9H2,(H,18,19)
Instrument: Q Exactive Plus Orbitrap Thermo Scientific
Instrument type: LC-ESI-QFT
Ms type: MS2
Ion mode: POSITIVE
Ionization: ESI
Fragmentation mode: HCD
Collision energy: 180 (nominal)
Resolution: 35000
Column name: XBridge C18 3.5um, 2.1x50mm, Waters
Retention time: 9.3 min
Base peak: 271.0623
Precursor m/z: 271.0633
Precursor type: [M+H]+
m/z	relative intensity	assigned
50.0151	464	C4H2+
51.0229	322	C4H3+
52.0181	42	C3H2N+
52.0307	34	C4H4+
53.0022	63	C3HO+
53.0385	167	C4H5+
53.9974	8	C2NO+
54.0337	18	C3H4N+
55.0178	11	C3H3O+
60.9839	10	
61.0072	35	C5H+
61.9791	29	CHClN+
62.015	133	C5H2+
63.0229	520	C5H3+
64.0181	36	C4H2N+
64.0306	28	C5H4+
65.0021	43	
65.0385	745	C5H5+
66.0338	4	C4H4N+
66.0463	38	C5H6+
67.0416	4	C4H5N+
67.0542	2	C5H7+
67.9892	3	C3O2+
72.9839	190	C3H2Cl+
74.015	387	C6H2+
75.0228	999	C6H3+
76.018	191	C5H2N+
76.0306	278	C6H4+
77.0384	467	C6H5+
78.0337	82	C5H4N+
78.0463	323	C6H6+
79.0177	9	C5H3O+
79.0415	43	C5H5N+
80.0494	12	C5H6N+
81.0334	28	C5H5O+
84.9838	78	C4H2Cl+
86.0149	21	C7H2+
86.9996	26	C4H4Cl+
87.0102	8	C6HN+
87.0229	51	C7H3+
88.0181	49	C6H2N+
88.0306	33	C7H4+
89.0385	532	C7H5+
90.0338	22	C6H4N+
90.0463	45	C7H6+
91.0541	123	C7H7+
92.0494	24	C6H6N+
93.0333	2	C6H5O+
94.0412	20	C6H6O+
95.049	560	C6H7O+
96.0443	72	C5H6NO+
96.9838	37	C5H2Cl+
97.9791	5	C4HClN+
98.015	20	C8H2+
98.9994	24	C5H4Cl+
99.0102	60	C7HN+
99.0229	27	C8H3+
100.0073	16	C5H5Cl+
100.0181	115	C7H2N+
101.0026	12	C4H4ClN+
101.0385	13	C8H5+
102.0337	124	C7H4N+
102.0463	65	C8H6+
103.0415	99	C7H5N+
104.0494	710	C7H6N+
105.0446	394	C6H5N2+
105.0571	27	C7H7N+
108.9836	3	C6H2Cl+
110.9995	36	C6H4Cl+
111.0228	10	
111.0313	2	C5H5NO2+
111.9947	10	C5H3ClN+
113.0384	105	C9H5+
114.0103	8	C5H5ClN+
114.0337	29	C8H4N+
114.0462	12	C9H6+
115.0541	146	C9H7+
116.0368	3	C7H4N2+
116.0493	11	C8H6N+
117.0571	13	C8H7N+
118.0287	10	C7H4NO+
119.049	10	C8H7O+
120.0443	24	C7H6NO+
122.9994	23	C7H4Cl+
123.0228	11	
123.9949	18	C6H3ClN+
125.0386	36	C10H5+
126.0463	129	C10H6+
127.0182	11	C6H6ClN+
127.0414	17	C9H5N+
127.054	54	C10H7+
128.0494	29	C9H6N+
128.0619	31	C10H8+
129.01	28	C6H6ClO+
129.0445	103	C8H5N2+
130.0399	118	C7H4N3+
131.0601	2	C8H7N2+
132.0568	2	C9H8O+
135.0314	8	C4H8ClN2O+
137.0385	65	C11H5+
138.01	19	
138.0463	23	C11H6+
139.0056	74	C6H4ClN2+
139.0541	137	C11H7+
140.0493	131	C10H6N+
141.0572	4	C10H7N+
145.0646	32	C10H9O+
146.0598	8	C9H8NO+
149.0385	10	
150.0463	255	C12H6+
151.0413	11	
151.0541	94	C12H7+
152.0619	509	C12H8+
153.0572	31	C11H7N+
153.0698	23	C12H9+
154.0649	11	C11H8N+
155.0603	50	C10H7N2+
161.0386	29	C13H5+
162.0462	74	C13H6+
163.054	511	C13H7+
164.001	10	C10N2O+
164.0493	126	C12H6N+
164.0617	56	C13H8+
165.0573	12	C12H7N+
165.0698	65	C13H9+
166.065	9	C12H8N+
168.0568	20	C12H8O+
169.0646	248	C12H9O+
170.0599	21	C11H8NO+
175.0413	7	C13H5N+
177.0571	113	C13H7N+
178.065	206	C13H8N+
179.0603	106	C12H7N2+
179.0727	99	C13H9N+
180.0806	30	C13H10N+
188.0493	90	C14H6N+
189.0573	22	C14H7N+
190.0649	75	C14H8N+
191.0601	3	C13H7N2+
192.0678	4	C13H8N2+
193.0518	9	C13H7NO+
194.0358	17	
194.0598	10	C13H8NO+
196.0519	5	C10H11ClNO+
196.0753	10	C13H10NO+
204.0554	11	C13H6N3+
204.0684	5	C14H8N2+
205.0759	82	C14H9N2+
206.0835	9	C14H10N2+
211.0633	2	C10H12ClN2O+
213.0336	2	C13H8ClN+
221.0466	3	C11H10ClN2O+
