Mass spectrum: Haloperidol; LC-ESI-QFT; MS2; CE: 180; R=35000; [M+H]+
Name: Haloperidol
Name: 4-[4-(4-chlorophenyl)-4-hydroxypiperidin-1-yl]-1-(4-fluorophenyl)butan-1-one
Formula: C21H23ClFNO2
Exact mass: 375.14013
SMILES: C1CN(CCC1(C2=CC=C(C=C2)Cl)O)CCCC(=O)C3=CC=C(C=C3)F
InChI: InChI=1S/C21H23ClFNO2/c22-18-7-5-17(6-8-18)21(26)11-14-24(15-12-21)13-1-2-20(25)16-3-9-19(23)10-4-16/h3-10,26H,1-2,11-15H2
Instrument: Q Exactive Plus Orbitrap Thermo Scientific
Instrument type: LC-ESI-QFT
Ms type: MS2
Ion mode: POSITIVE
Ionization: ESI
Fragmentation mode: HCD
Collision energy: 180 (nominal)
Resolution: 35000
Column name: XBridge C18 3.5um, 2.1x50mm, Waters
Retention time: 6.8 min
Base peak: 376.1475
Precursor m/z: 376.1474
Precursor type: [M+H]+
m/z	relative intensity	assigned
50.0151	5	C4H2+
51.0229	1	C4H3+
53.0022	20	C3HO+
57.0135	4	C3H2F+
59.0291	2	C3H4F+
61.0072	2	C5H+
62.0151	1	C5H2+
63.023	4	C5H3+
65.0386	5	C5H5+
68.0057	1	C4HF+
69.0135	37	C4H2F+
71.0292	15	C4H4F+
74.0151	392	C6H2+
75.0229	999	C6H3+
76.0306	1	C6H4+
79.0178	4	C5H3O+
83.0292	5	C5H4F+
89.0022	3	C6HO+
89.0386	3	C7H5+
93.0336	3	C6H5O+
95.0292	88	C6H4F+
99.0242	2	C5H4FO+
102.0464	2	C8H6+
109.0449	2	C7H6F+
111.0442	2	C6H7O2+
113.0397	97	C6H6FO+
115.0542	3	C9H7+
120.0369	1	C8H5F+
123.0353	188	C6H4FN2+
124.0323	1	C4H8ClFN+
128.0622	1	C10H8+
146.0527	1	C10H7F+
