Mass spectrum: Olopatadine; LC-ESI-QFT; MS2; CE: 15; R=35000; [M+H]+
Name: Olopatadine
Name: 2-[(11Z)-11-[3-(dimethylazaniumyl)propylidene]-6H-benzo[c][1]benzoxepin-2-yl]acetate
Formula: C21H23NO3
Exact mass: 337.16779
SMILES: CN(C)CC/C=C\1/C2=CC=CC=C2COC3=C1C=C(C=C3)CC(=O)O
InChI: InChI=1S/C21H23NO3/c1-22(2)11-5-8-18-17-7-4-3-6-16(17)14-25-20-10-9-15(12-19(18)20)13-21(23)24/h3-4,6-10,12H,5,11,13-14H2,1-2H3,(H,23,24)/b18-8-
Instrument: Q Exactive Orbitrap Thermo Scientific
Instrument type: LC-ESI-QFT
Ms type: MS2
Ion mode: POSITIVE
Ionization: ESI
Fragmentation mode: HCD
Collision energy: 15 (nominal)
Resolution: 35000
Column name: XBridge C18 3.5um, 2.1x50mm, Waters
Retention time: 7.1 min
Base peak: 338.1752
Precursor m/z: 338.1751
Precursor type: [M+H]+
m/z	relative intensity	assigned
58.0652	1	C3H8N+
84.0807	1	C5H10N+
165.0544	3	C9H9O3+
247.1118	5	C18H15O+
293.1173	7	C19H17O3+
338.175	999	C21H24NO3+
