Mass spectrum: Famoxadone; LC-ESI-QFT; MS2; CE: 45; R=35000; [M+H]+
Name: Famoxadone
Name: 3-anilino-5-methyl-5-(4-phenoxyphenyl)-1,3-oxazolidine-2,4-dione
Formula: C22H18N2O4
Exact mass: 374.12666
SMILES: O=C2OC(C(=O)N2Nc1ccccc1)(c4ccc(Oc3ccccc3)cc4)C
InChI: InChI=1S/C22H18N2O4/c1-22(16-12-14-19(15-13-16)27-18-10-6-3-7-11-18)20(25)24(21(26)28-22)23-17-8-4-2-5-9-17/h2-15,23H,1H3
Instrument: Q Exactive Orbitrap Thermo Scientific
Instrument type: LC-ESI-QFT
Ms type: MS2
Ion mode: POSITIVE
Ionization: ESI
Fragmentation mode: HCD
Collision energy: 45 (nominal)
Resolution: 35000
Column name: XBridge C18 3.5um, 2.1x50mm, Waters
Retention time: 13.5 min
Base peak: 331.144
Precursor m/z: 375.1339
Precursor type: [M+H]+
m/z	relative intensity	assigned
65.0386	185	C5H5+
72.0444	24	C3H6NO+
89.0709	25	C3H9N2O+
91.0543	23	C7H7+
92.0495	943	C6H6N+
93.0573	766	C6H7N+
95.0489	18	C6H7O+
102.0464	20	C8H6+
107.0604	554	C6H7N2+
133.0757	92	C8H9N2+
145.052	38	C9H7NO+
146.0601	343	C9H8NO+
152.0616	19	C12H8+
161.0708	22	C9H9N2O+
165.07	34	C13H9+
167.0856	27	C13H11+
168.0807	18	C12H10N+
169.0885	40	C12H11N+
193.0884	163	C14H11N+
195.0805	999	C14H11O+
209.107	79	C14H13N2+
210.0673	18	C14H10O2+
210.1149	23	C14H14N2+
224.0705	110	C14H10NO2+
237.1027	25	C15H13N2O+
238.0858	81	C15H12NO2+
286.1227	33	C20H16NO+
303.149	39	C20H19N2O+
