Mass spectrum: Tembotrione; LC-ESI-QFT; MS2; CE: 45; R=35000; [M-H]-
Name: Tembotrione
Name: 2-{2-Chloro-4-(methylsulfonyl)-3-[(2,2,2-trifluoroethoxy)methyl]benzoyl}-1,3-cyclohexanedione
Formula: C17H16ClF3O6S
Exact mass: 440.03082
SMILES: O=C(c1ccc(c(c1Cl)COCC(F)(F)F)S(=O)(=O)C)C2C(=O)CCCC2=O
InChI: InChI=1S/C17H16ClF3O6S/c1-28(25,26)13-6-5-9(15(18)10(13)7-27-8-17(19,20)21)16(24)14-11(22)3-2-4-12(14)23/h5-6,14H,2-4,7-8H2,1H3
Instrument: Q Exactive Orbitrap Thermo Scientific
Instrument type: LC-ESI-QFT
Ms type: MS2
Ion mode: NEGATIVE
Ionization: ESI
Fragmentation mode: HCD
Collision energy: 45 (nominal)
Resolution: 35000
Column name: XBridge C18 3.5um, 2.1x50mm, Waters
Retention time: 9.9 min
Base peak: 439.0241
Precursor m/z: 439.0235
Precursor type: [M-H]-
m/z	relative intensity	assigned
63.9625	8	O2S-
68.9957	16	CF3-
78.9859	24	CH3O2S-
79.0001	2	C2HF2O-
93.0345	26	C6H5O-
99.0064	12	C2H2F3O-
119.0502	10	C8H7O-
141.0711	4	C11H9-
143.05	3	C10H7O-
145.0294	1	C9H5O2-
161.0242	13	C7H7F2S-
167.0865	1	C13H11-
169.0659	27	C12H9O-
171.045	6	C11H7O2-
180.0583	2	C13H8O-
182.0739	1	C13H10O-
183.0451	2	C12H7O2-
183.0816	8	C13H11O-
184.0531	8	C12H8O2-
185.0609	10	C12H9O2-
193.066	6	C14H9O-
195.0815	58	C14H11O-
196.053	1	C13H8O2-
197.0608	201	C13H9O2-
198.0688	5	C13H10O2-
209.0607	6	C14H9O2-
211.0411	2	C13H7O3-
211.0765	45	C14H11O2-
213.0557	85	C13H9O3-
215.0179	2	C6H6F3O5-
215.0349	5	C12H7O4-
221.0609	6	C15H9O2-
222.0688	11	C15H10O2-
223.0759	5	C15H11O2-
224.0479	66	C14H8O3-
225.0556	19	
226.0635	999	C14H10O3-
237.056	6	C15H9O3-
238.0636	92	C15H10O3-
239.0714	348	C15H11O3-
240.0792	92	C15H12O3-
241.0506	11	
241.087	69	C15H13O3-
243.0117	2	C13H7O3S-
255.0667	18	C15H11O4-
256.038	2	C14H8O5-
258.0535	104	C14H10O5-
261.0226	33	C13H9O4S-
263.0383	15	C13H11O4S-
271.0072	24	C14H7O4S-
272.0692	3	C15H12O5-
288.0098	2	C14H8O5S-
303.0344	13	C12H12FO6S-
304.0409	19	C15H12O5S-
305.049	48	C15H13O5S-
349.0342	3	C17H11F2O4S-
361.0365	33	C15H12F3O5S-
403.0468	343	C17H14F3O6S-
