Mass spectrum: Atropine; LC-ESI-QFT; MS2; CE: 75; R=35000; [M+H]+
Name: Atropine
Name: (1R,5S)-8-Methyl-8-azabicyclo[3.2.1]oct-3-yl tropate
Formula: C17H23NO3
Exact mass: 289.16779
SMILES: CN1[C@@H]2CC[C@H]1C[C@H](C2)OC(=O)C(CO)C3=CC=CC=C3
InChI: InChI=1S/C17H23NO3/c1-18-13-7-8-14(18)10-15(9-13)21-17(20)16(11-19)12-5-3-2-4-6-12/h2-6,13-16,19H,7-11H2,1H3/t13-,14+,15+,16?
Instrument: Q Exactive Orbitrap Thermo Scientific
Instrument type: LC-ESI-QFT
Ms type: MS2
Ion mode: POSITIVE
Ionization: ESI
Fragmentation mode: HCD
Collision energy: 75 (nominal)
Resolution: 35000
Column name: XBridge C18 3.5um, 2.1x50mm, Waters
Retention time: 4.3 min
Base peak: 290.1752
Precursor m/z: 290.1751
Precursor type: [M+H]+
m/z	relative intensity	assigned
51.0229	1	C4H3+
53.0023	1	C3HO+
53.0387	1	C4H5+
56.0495	1	C3H6N+
57.0573	10	C3H7N+
58.0652	11	C3H8N+
65.0386	24	C5H5+
67.0542	284	C5H7+
68.0495	58	C4H6N+
69.0699	6	C5H9+
70.0651	60	C4H8N+
77.0386	61	C6H5+
78.0464	2	C6H6+
79.0542	39	C6H7+
80.0494	5	C5H6N+
81.0335	5	C5H5O+
81.0573	6	C5H7N+
81.0698	2	C6H9+
82.0651	104	C5H8N+
83.073	56	C5H9N+
86.0601	2	C4H8NO+
91.0542	509	C7H7+
93.0699	999	C7H9+
94.065	16	C6H8N+
95.0491	174	C6H7O+
95.0729	31	C6H9N+
95.0855	78	C7H11+
96.0808	62	C6H10N+
97.0885	4	C6H11N+
98.0964	30	C6H12N+
103.0542	171	C8H7+
105.0447	80	C6H5N2+
107.0726	1	C7H9N+
107.0855	1	C8H11+
108.0808	12	C7H10N+
109.0886	20	C7H11N+
110.0967	1	C7H12N+
121.0648	57	C8H9O+
122.0963	8	C8H12N+
124.1121	592	C8H14N+
125.1198	6	C8H15N+
140.1069	26	C8H14NO+
142.1227	88	C8H16NO+
214.1585	1	C15H20N+
290.1762	1	C17H24NO3+
