Mass spectrum: Fluvastatin; LC-ESI-QFT; MS2; CE: 75; R=35000; [M-H]-
Name: Fluvastatin
Name: (3R,5S)-7-[3-(4-fluorophenyl)-1-isopropyl-2-indolyl]-3,5-dihydroxy-6-heptenoic acid
Formula: C24H26FNO4
Exact mass: 411.18459
SMILES: O=C(O)C[C@H](O)C[C@H](O)/C=C/c2c(c1ccccc1n2C(C)C)c3ccc(F)cc3
InChI: InChI=1S/C24H26FNO4/c1-15(2)26-21-6-4-3-5-20(21)24(16-7-9-17(25)10-8-16)22(26)12-11-18(27)13-19(28)14-23(29)30/h3-12,15,18-19,27-28H,13-14H2,1-2H3,(H,29,30)/b12-11+/t18-,19-/m1/s1
Instrument: Q Exactive Orbitrap Thermo Scientific
Instrument type: LC-ESI-QFT
Ms type: MS2
Ion mode: NEGATIVE
Ionization: ESI
Fragmentation mode: HCD
Collision energy: 75 (nominal)
Resolution: 35000
Column name: XBridge C18 3.5um, 2.1x50mm, Waters
Retention time: 13.5 min
Base peak: 410.1777
Precursor m/z: 410.1773
Precursor type: [M-H]-
m/z	relative intensity	assigned
57.0346	4	C3H5O-
59.0139	298	C2H3O2-
69.0346	1	C4H5O-
82.0424	1	C5H6O-
83.0503	16	C5H7O-
85.0295	47	C4H5O2-
87.0088	25	C3H3O3-
116.0507	8	C8H6N-
140.0504	1	C10H6N-
188.1326	2	C9H17FN2O-
190.0668	1	C14H8N-
208.0568	3	C14H7FN-
210.0724	999	C14H9FN-
214.0661	4	C16H8N-
216.0818	4	C16H10N-
221.0645	12	C15H8FN-
222.0725	88	C15H9FN-
223.08	6	C15H10FN-
224.0882	40	C15H11FN-
234.0725	78	C16H9FN-
236.0881	296	C16H11FN-
238.1034	9	C16H13FN-
247.0804	1	C17H10FN-
248.0883	7	C17H11FN-
255.0696	1	C15H10FNO2-
256.1135	3	C19H14N-
260.0881	8	C18H11FN-
262.1039	5	C18H13FN-
263.0753	2	C17H10FNO-
264.083	45	C17H11FNO-
267.1554	1	C19H20F-
276.0829	3	C18H11FNO-
278.1352	1	C19H17FN-
280.1144	3	C18H15FNO-
286.1042	3	C20H13FN-
288.1202	1	C20H15FN-
290.099	1	C19H13FNO-
