Mass spectrum: Morphothion; LC-ESI-QFT; MS2; CE: 150%; R=17500; [M+H]+
Name: Morphothion
Name: 2-dimethoxyphosphinothioylsulfanyl-1-morpholin-4-ylethanone
Formula: C8H16NO4PS2
Exact mass: 285.0258
SMILES: COP(=S)(OC)SCC(=O)N1CCOCC1
InChI: InChI=1S/C8H16NO4PS2/c1-11-14(15,12-2)16-7-8(10)9-3-5-13-6-4-9/h3-7H2,1-2H3
Instrument: Exploris 240 Orbitrap Thermo Scientific
Instrument type: LC-ESI-QFT
Ms type: MS2
Ion mode: POSITIVE
Ionization: ESI
Fragmentation mode: HCD
Collision energy: 150 % (nominal)
Resolution: 17500
Column name: XBridge C18 3.5um, 2.1x50mm, Waters
Retention time: 4.868 min
Base peak: 286.033
Precursor m/z: 286.0331
Precursor type: [M+H]+
m/z	relative intensity	assigned
56.0496	140	C3H6N+
58.9949	185	C2H3S+
62.0185	132	C2H6S+
62.9452	68	PS+
62.9995	495	CH4OP+
78.9943	999	CH4O2P+
88.0757	80	C4H10NO+
93.01	297	C2H6O2P+
124.982	88	C2H6O2PS+
