Mass spectrum: Sulfadimethoxine; LC-ESI-ITFT; MS2; CE: 75%; R=15000; [M+H]+
Name: Sulfadimethoxine
Name: 4-amino-N-(2,6-dimethoxy-4-pyrimidinyl)benzenesulfonamide
Formula: C12H14N4O4S
Exact mass: 310.0736
SMILES: c1(NS(c2ccc(N)cc2)(=O)=O)cc(nc(n1)OC)OC
InChI: InChI=1S/C12H14N4O4S/c1-19-11-7-10(14-12(15-11)20-2)16-21(17,18)9-5-3-8(13)4-6-9/h3-7H,13H2,1-2H3,(H,14,15,16)
Instrument: LTQ Orbitrap XL Thermo Scientific
Instrument type: LC-ESI-ITFT
Ms type: MS2
Ion mode: POSITIVE
Ionization: ESI
Fragmentation mode: HCD
Collision energy: 75 % (nominal)
Resolution: 15000
Column name: XBridge C18 3.5um, 2.1x50mm, Waters
Retention time: 5.7 min
Base peak: 311.0817
Precursor m/z: 311.0809
Precursor type: [M+H]+
m/z	relative intensity	assigned
65.0386	278	C5H5+
67.0291	29	C3H3N2+
68.0133	16	C3H2NO+
68.0494	69	C4H6N+
72.0443	22	C3H6NO+
80.0494	34	C5H6N+
82.0286	28	C4H4NO+
89.0705	24	C3H9N2O+
92.0494	820	C6H6N+
99.0551	30	C4H7N2O+
108.0444	999	C6H6NO+
110.035	17	C4H4N3O+
110.06	81	C6H8NO+
124.0507	60	C5H6N3O+
125.0585	19	C5H7N3O+
126.0662	45	C5H8N3O+
127.0502	49	C5H7N2O2+
140.0462	25	C5H6N3O2+
141.0532	99	C5H7N3O2+
154.0611	227	C6H8N3O2+
156.0766	588	C6H10N3O2+
157.0481	31	C5H7N3O3+
172.05	23	C9H6N3O+
173.0582	121	C9H7N3O+
