Mass spectrum: Amisulpride N-Oxide; LC-ESI-QFT; MS2; CE: 15; R=35000; [M+H]+
Name: Amisulpride N-Oxide
Name: 4-amino-N-[(1-ethyl-1-oxidopyrrolidin-1-ium-2-yl)methyl]-5-ethylsulfonyl-2-methoxybenzamide
Formula: C17H27N3O5S
Exact mass: 385.16714
SMILES: CC[N+]1(CCCC1CNC(=O)C2=CC(=C(C=C2OC)N)S(=O)(=O)CC)[O-]
InChI: InChI=1S/C17H27N3O5S/c1-4-20(22)8-6-7-12(20)11-19-17(21)13-9-16(26(23,24)5-2)14(18)10-15(13)25-3/h9-10,12H,4-8,11,18H2,1-3H3,(H,19,21)
Instrument: Q Exactive Plus Orbitrap Thermo Scientific
Instrument type: LC-ESI-QFT
Ms type: MS2
Ion mode: POSITIVE
Ionization: ESI
Fragmentation mode: HCD
Collision energy: 15 (nominal)
Resolution: 35000
Column name: XBridge C18 3.5um, 2.1x50mm, Waters
Retention time: 4.2 min
Base peak: 386.1742
Precursor m/z: 386.1744
Precursor type: [M+H]+
m/z	relative intensity	assigned
98.0962	1	C6H12N+
127.123	4	C7H15N2+
128.1069	9	C7H14NO+
242.0475	23	
259.0743	1	C10H15N2O4S+
293.1717	2	C12H25N2O6+
368.1634	2	C17H26N3O4S+
386.1744	999	C17H28N3O5S+
