Mass spectrum: Fensulfothion; LC-ESI-QFT; MS2; CE: 180%; R=17500; [M+H]+
Name: Fensulfothion
Name: diethoxy-(4-methylsulfinylphenoxy)-sulfanylidene-lambda5-phosphane
Formula: C11H17O4PS2
Exact mass: 308.0306
SMILES: CCOP(=S)(OCC)OC1=CC=C(C=C1)S(=O)C
InChI: InChI=1S/C11H17O4PS2/c1-4-13-16(17,14-5-2)15-10-6-8-11(9-7-10)18(3)12/h6-9H,4-5H2,1-3H3
Instrument: Exploris 240 Orbitrap Thermo Scientific
Instrument type: LC-ESI-QFT
Ms type: MS2
Ion mode: POSITIVE
Ionization: ESI
Fragmentation mode: HCD
Collision energy: 180 % (nominal)
Resolution: 17500
Column name: XBridge C18 3.5um, 2.1x50mm, Waters
Retention time: 7.188 min
Base peak: 309.0377
Precursor m/z: 309.0379
Precursor type: [M+H]+
m/z	relative intensity	assigned
51.0229	134	C4H3+
53.0386	414	C4H5+
62.963	197	O2P+
64.9787	520	H2O2P+
65.0386	999	C5H5+
66.0464	926	C5H6+
67.0542	94	C5H7+
68.9794	253	C3HS+
69.9874	138	C3H2S+
70.9953	76	C3H3S+
77.0385	179	C6H5+
78.9402	283	OPS+
80.9739	110	H2O3P+
81.0336	509	C5H5O+
84.0031	46	C4H4S+
85.0107	41	C4H5S+
94.0413	685	C6H6O+
94.9953	102	C5H3S+
95.0491	67	C6H7O+
96.003	199	C5H4S+
96.9508	194	H2O2PS+
97.0107	584	C5H5S+
98.9842	256	H4O4P+
108.0028	384	C6H4S+
109.0105	54	C6H5S+
111.0263	41	C6H7S+
114.9615	106	H4O3PS+
125.0056	493	C6H5OS+
