Mass spectrum: Difenacoum; LC-ESI-QFT; MS2; CE: 30%; R=17500; [M+H]+
Name: Difenacoum
Name: 4-hydroxy-3-[3-(4-phenylphenyl)-1,2,3,4-tetrahydronaphthalen-1-yl]chromen-2-one
Formula: C31H24O3
Exact mass: 444.1725
SMILES: C1C(CC2=CC=CC=C2C1C3=C(C4=CC=CC=C4OC3=O)O)C5=CC=C(C=C5)C6=CC=CC=C6
InChI: InChI=1S/C31H24O3/c32-30-26-12-6-7-13-28(26)34-31(33)29(30)27-19-24(18-23-10-4-5-11-25(23)27)22-16-14-21(15-17-22)20-8-2-1-3-9-20/h1-17,24,27,32H,18-19H2
Instrument: Exploris 240 Orbitrap Thermo Scientific
Instrument type: LC-ESI-QFT
Ms type: MS2
Ion mode: POSITIVE
Ionization: ESI
Fragmentation mode: HCD
Collision energy: 30 % (nominal)
Resolution: 17500
Column name: XBridge C18 3.5um, 2.1x50mm, Waters
Retention time: 15.423 min
Base peak: 445.1795
Precursor m/z: 445.1798
Precursor type: [M+H]+
m/z	relative intensity	assigned
91.0545	8	C7H7+
117.0701	10	C9H9+
129.0699	14	C10H9+
163.0391	22	C9H7O3+
165.0701	23	C13H9+
167.086	14	C13H11+
175.039	129	C10H7O3+
179.0855	313	C14H11+
189.0547	107	C11H9O3+
257.1324	999	C20H17+
283.1475	8	C22H19+
291.1016	198	C19H15O3+
341.1174	14	C23H17O3+
445.1796	89	C31H25O3+
