Mass spectrum: Dimethachlor-TP CGA 369873; LC-ESI-QFT; MS2; CE: 15%; R=17500; [M-H]-
Name: Dimethachlor-TP CGA 369873
Name: 2-(2,6-dimethylanilino)-2-oxoethane-1-sulfonic acid
Formula: C10H13NO4S
Exact mass: 243.0565
SMILES: CC1=CC=CC(C)=C1NC(=O)CS(O)(=O)=O
InChI: InChI=1S/C10H13NO4S/c1-7-4-3-5-8(2)10(7)11-9(12)6-16(13,14)15/h3-5H,6H2,1-2H3,(H,11,12)(H,13,14,15)
Instrument: Q Exactive Orbitrap Thermo Scientific
Instrument type: LC-ESI-QFT
Ms type: MS2
Ion mode: NEGATIVE
Ionization: ESI
Fragmentation mode: HCD
Collision energy: 15 % (nominal)
Resolution: 17500
Column name: XBridge C18 3.5um, 2.1x50mm, Waters
Retention time: 3.028 min
Base peak: 242.0493
Precursor m/z: 242.0493
Precursor type: [M-H]-
m/z	relative intensity	assigned
76.9702	6	CHO2S-
79.957	27	O3S-
94.9808	29	CH3O3S-
120.9602	85	C2HO4S-
178.0869	3	C10H12NO2-
242.0495	999	C10H12NO4S-
