Mass spectrum: Resmethrin; LC-ESI-QFT; MS2; CE: 75%; R=17500; [M+H]+
Name: Resmethrin
Name: (5-benzylfuran-3-yl)methyl 2,2-dimethyl-3-(2-methylprop-1-enyl)cyclopropane-1-carboxylate
Formula: C22H26O3
Exact mass: 338.1882
SMILES: CC(=CC1C(C1(C)C)C(=O)OCC2=COC(=C2)CC3=CC=CC=C3)C
InChI: InChI=1S/C22H26O3/c1-15(2)10-19-20(22(19,3)4)21(23)25-14-17-12-18(24-13-17)11-16-8-6-5-7-9-16/h5-10,12-13,19-20H,11,14H2,1-4H3
Instrument: Exploris 240 Orbitrap Thermo Scientific
Instrument type: LC-ESI-QFT
Ms type: MS2
Ion mode: POSITIVE
Ionization: ESI
Fragmentation mode: HCD
Collision energy: 75 % (nominal)
Resolution: 17500
Column name: XBridge C18 3.5um, 2.1x50mm, Waters
Retention time: 15.698 min
Base peak: 339.1952
Precursor m/z: 339.1955
Precursor type: [M+H]+
m/z	relative intensity	assigned
53.0386	8	C4H5+
55.0543	46	C4H7+
59.0491	27	C3H7O+
65.0385	40	C5H5+
67.0542	33	C5H7+
69.0333	9	C4H5O+
69.0697	22	C5H9+
77.0385	25	C6H5+
79.0543	63	C6H7+
81.07	59	C6H9+
83.0491	16	C5H7O+
85.0646	18	C5H9O+
91.0542	566	C7H7+
93.0699	61	C7H9+
95.0492	17	C6H7O+
95.0855	55	C7H11+
103.0541	26	C8H7+
105.0334	266	C7H5O+
105.0699	99	C8H9+
107.0854	40	C8H11+
115.0542	147	C9H7+
117.0698	69	C9H9+
119.0856	49	C9H11+
121.0647	38	C8H9O+
121.1009	65	C9H13+
127.0541	40	C10H7+
128.062	999	C10H8+
129.0698	29	C10H9+
131.0856	27	C10H11+
133.0648	10	C9H9O+
133.1009	11	C10H13+
135.0802	16	C9H11O+
141.07	66	C11H9+
142.0776	26	C11H10+
143.0855	277	C11H11+
145.0646	29	C10H9O+
147.0803	12	C10H11O+
152.0623	25	C12H8+
153.0696	36	C12H9+
155.0855	13	C12H11+
159.0803	14	C11H11O+
159.1173	8	C12H15+
171.0803	34	C12H11O+
