Mass spectrum: Metoxuron; LC-ESI-QFT; MS2; CE: 30; R=35000; [M-H]-
Name: Metoxuron
Name: 3-(3-chloro-4-methoxyphenyl)-1,1-dimethylurea
Formula: C10H13ClN2O2
Exact mass: 228.06656
SMILES: Clc1cc(ccc1OC)NC(=O)N(C)C
InChI: InChI=1S/C10H13ClN2O2/c1-13(2)10(14)12-7-4-5-9(15-3)8(11)6-7/h4-6H,1-3H3,(H,12,14)
Instrument: Q Exactive Plus Orbitrap Thermo Scientific
Instrument type: LC-ESI-QFT
Ms type: MS2
Ion mode: NEGATIVE
Ionization: ESI
Fragmentation mode: HCD
Collision energy: 30 (nominal)
Resolution: 35000
Column name: XBridge C18 3.5um, 2.1x50mm, Waters
Retention time: 6.0 min
Base peak: 182.9883
Precursor m/z: 227.0593
Precursor type: [M-H]-
m/z	relative intensity	assigned
154.0065	40	C7H5ClNO-
167.9857	74	C7H3ClNO2-
168.0221	101	C8H7ClNO-
169.03	7	C8H8ClNO-
197.0123	325	C8H6ClN2O2-
212.0357	999	C9H9ClN2O2-
227.0592	79	C10H12ClN2O2-
