Mass spectrum: Diphenhydramine; LC-ESI-QFT; MS2; CE: 120; R=35000; [M+H]+
Name: Diphenhydramine
Name: 2-benzhydryloxy-N,N-dimethylethanamine
Formula: C17H21NO
Exact mass: 255.16231
SMILES: CN(C)CCOC(C1=CC=CC=C1)C2=CC=CC=C2
InChI: InChI=1S/C17H21NO/c1-18(2)13-14-19-17(15-9-5-3-6-10-15)16-11-7-4-8-12-16/h3-12,17H,13-14H2,1-2H3
Instrument: Q Exactive Plus Orbitrap Thermo Scientific
Instrument type: LC-ESI-QFT
Ms type: MS2
Ion mode: POSITIVE
Ionization: ESI
Fragmentation mode: HCD
Collision energy: 120 (nominal)
Resolution: 35000
Column name: XBridge C18 3.5um, 2.1x50mm, Waters
Retention time: 6.6 min
Base peak: 256.1694
Precursor m/z: 256.1696
Precursor type: [M+H]+
m/z	relative intensity	assigned
63.0228	4	C5H3+
65.0386	20	C5H5+
67.9892	1	C3O2+
78.0464	3	C6H6+
89.0386	8	C7H5+
91.0543	7	C7H7+
95.0492	1	C6H7O+
102.0464	10	C8H6+
115.0543	128	C9H7+
125.0389	1	C10H5+
126.0464	8	C10H6+
127.0544	5	C10H7+
128.0621	135	C10H8+
139.0542	25	C11H7+
140.062	1	C11H8+
141.0699	71	C11H9+
145.0651	3	C10H9O+
150.0465	13	C12H6+
151.0543	20	C12H7+
152.0621	743	C12H8+
155.0604	5	C10H7N2+
163.0542	9	C13H7+
164.0621	49	C13H8+
165.0699	999	C13H9+
166.0777	64	C13H10+
167.0854	5	C13H11+
168.0569	14	C12H8O+
169.0648	52	C12H9O+
179.0604	18	C12H7N2+
196.0516	4	C13H8O2+
