Mass spectrum: Droperidol; LC-ESI-QFT; MS2; CE: 90; R=35000; [M+H]+
Name: Droperidol
Name: 3-[1-[4-(4-fluorophenyl)-4-oxobutyl]-3,6-dihydro-2H-pyridin-4-yl]-1H-benzimidazol-2-one
Formula: C22H22FN3O2
Exact mass: 379.16961
SMILES: C1CN(CC=C1N2C3=CC=CC=C3NC2=O)CCCC(=O)C4=CC=C(C=C4)F
InChI: InChI=1S/C22H22FN3O2/c23-17-9-7-16(8-10-17)21(27)6-3-13-25-14-11-18(12-15-25)26-20-5-2-1-4-19(20)24-22(26)28/h1-2,4-5,7-11H,3,6,12-15H2,(H,24,28)
Instrument: Q Exactive Plus Orbitrap Thermo Scientific
Instrument type: LC-ESI-QFT
Ms type: MS2
Ion mode: POSITIVE
Ionization: ESI
Fragmentation mode: HCD
Collision energy: 90 (nominal)
Resolution: 35000
Column name: XBridge C18 3.5um, 2.1x50mm, Waters
Retention time: 5.9 min
Base peak: 380.176
Precursor m/z: 380.1769
Precursor type: [M+H]+
m/z	relative intensity	assigned
50.0151	3	C4H2+
51.0229	2	C4H3+
71.0291	9	C4H4F+
74.015	1	CHFN3+
75.0228	10	CH2FN3+
79.0178	3	C5H3O+
93.0335	2	C6H5O+
95.0291	12	C6H4F+
99.0241	1	C5H4FO+
109.0448	4	C7H6F+
113.0397	53	C6H6FO+
123.0241	999	C7H4FO+
123.035	174	C6H4FN2+
124.0322	1	C7H5FO+
130.0651	1	C9H8N+
135.0548	1	C7H7N2O+
144.0809	2	C10H10N+
165.0711	35	C10H10FO+
171.0553	1	C10H7N2O+
172.0629	1	C10H8N2O+
