Mass spectrum: Sulfapyridine; LC-ESI-ITFT; MS2; CE: 60%; R=7500; [M+H]+
Name: Sulfapyridine
Name: 2-Sulfapyridine
Name: 4-amino-N-(2-pyridinyl)benzenesulfonamide
Formula: C11H11N3O2S
Exact mass: 249.0572
SMILES: c1(S(Nc2ccccn2)(=O)=O)ccc(N)cc1
InChI: InChI=1S/C11H11N3O2S/c12-9-4-6-10(7-5-9)17(15,16)14-11-3-1-2-8-13-11/h1-8H,12H2,(H,13,14)
Instrument: LTQ Orbitrap XL Thermo Scientific
Instrument type: LC-ESI-ITFT
Ms type: MS2
Ion mode: POSITIVE
Ionization: ESI
Fragmentation mode: HCD
Collision energy: 60 % (nominal)
Resolution: 7500
Column name: XBridge C18 3.5um, 2.1x50mm, Waters
Retention time: 2.9 min
Base peak: 250.0651
Precursor m/z: 250.0645
Precursor type: [M+H]+
m/z	relative intensity	assigned
65.0386	146	C5H5+
67.0419	8	C4H5N+
68.0495	106	C4H6N+
69.0336	4	C4H5O+
78.0337	13	C5H4N+
79.018	14	C5H3O+
92.0495	622	C6H6N+
93.0449	43	C5H5N2+
93.0572	58	C6H7N+
94.0526	102	C5H6N2+
95.0604	454	C5H7N2+
96.0444	23	C5H6NO+
108.0445	999	C6H6NO+
110.06	46	C6H8NO+
120.0555	5	C6H6N3+
156.0114	340	C6H6NO2S+
157.0067	49	C5H5N2O2S+
167.0605	13	C11H7N2+
169.0755	6	C11H9N2+
184.0869	474	C11H10N3+
186.1019	8	C11H12N3+
