Mass spectrum: Nilotinib; LC-ESI-QFT; MS2; CE: 60; R=35000; [M+H]+
Name: Nilotinib
Name: 4-methyl-N-(3-(4-methylimidazol-1-yl)-5-(trifluoromethyl)phenyl)-3-((4-pyridin-3-ylpyrimidin-2-yl)amino)benzamide
Formula: C28H22F3N7O
Exact mass: 529.18379
SMILES: CC1=C(C=C(C=C1)C(=O)NC2=CC(=CC(=C2)N3C=C(N=C3)C)C(F)(F)F)NC4=NC=CC(=N4)C5=CN=CC=C5
InChI: InChI=1S/C28H22F3N7O/c1-17-5-6-19(10-25(17)37-27-33-9-7-24(36-27)20-4-3-8-32-14-20)26(39)35-22-11-21(28(29,30)31)12-23(13-22)38-15-18(2)34-16-38/h3-16H,1-2H3,(H,35,39)(H,33,36,37)
Instrument: Q Exactive Plus Orbitrap Thermo Scientific
Instrument type: LC-ESI-QFT
Ms type: MS2
Ion mode: POSITIVE
Ionization: ESI
Fragmentation mode: HCD
Collision energy: 60 (nominal)
Resolution: 35000
Column name: XBridge C18 3.5um, 2.1x50mm, Waters
Retention time: 8.2 min
Base peak: 530.1902
Precursor m/z: 530.1911
Precursor type: [M+H]+
m/z	relative intensity	assigned
56.0495	4	C3H6N+
78.0338	1	C5H4N+
80.0494	1	C5H6N+
83.0602	2	C4H7N2+
91.0542	6	C7H7+
104.0494	15	C2H5FN4+
105.0447	3	C6H5N2+
106.0651	3	C7H8N+
107.0727	2	C2H8FN4+
117.0573	2	C8H7N+
118.0651	1	C8H8N+
119.0492	1	C8H7O+
129.0447	1	C8H5N2+
130.0651	4	C9H8N+
131.0603	18	C3H6FN5+
132.0681	13	C8H8N2+
133.0758	1	C3H8FN5+
134.06	1	C8H8NO+
142.0527	2	C9H6N2+
143.0604	1	C9H7N2+
144.0682	1	C9H8N2+
147.0677	1	C4H8FN4O+
155.0602	3	C5H6FN5+
156.0555	6	C9H6N3+
156.068	3	C5H7FN5+
157.0759	11	C5H8FN5+
158.0712	15	C9H8N3+
159.0552	4	C4H6FN5O+
159.0916	1	C10H11N2+
171.079	13	C5H8FN6+
174.066	8	C4H7FN6O+
176.0819	1	C9H10N3O+
182.0711	4	C6H7FN6+
183.0792	9	C11H9N3+
184.0867	2	C6H9FN6+
185.0708	6	C6H8FN5O+
188.0319	2	C8H5F3NO+
193.0761	1	C13H9N2+
194.0647	1	C5H7F3N5+
194.0715	1	C12H8N3+
195.0802	2	C9H10FN3O+
196.057	2	C10H8F2NO+
198.0524	15	C10H7F3N+
200.0554	1	C9H7F3N2+
206.0711	1	C8H7FN6+
207.0791	1	C13H9N3+
207.0916	3	C14H11N2+
208.087	6	C13H10N3+
213.0632	3	C10H8F3N2+
214.0711	10	C10H9F3N2+
217.0764	2	C15H9N2+
218.0709	1	C9H7FN6+
218.0831	1	C10H9FN5+
219.0791	5	C14H9N3+
220.0871	7	C14H10N3+
221.0823	1	C13H9N4+
221.0947	9	C14H11N3+
223.0675	1	C6H8F3N5O+
225.0634	15	C11H8F3N2+
226.0714	5	C11H9F3N2+
232.0865	4	C10H9FN6+
233.0821	3	C14H9N4+
233.0947	6	C15H11N3+
234.1025	90	C15H12N3+
235.0977	9	C14H11N4+
236.1185	1	C15H14N3+
241.0821	17	C11H10F3N3+
242.0895	4	C11H11F3N3+
243.0736	16	C11H10F3N2O+
244.0737	2	C10H7FN7+
244.0868	24	C11H9FN6+
245.0822	35	C15H9N4+
245.0947	26	C16H11N3+
246.09	176	C10H9FN7+
247.0977	9	C10H10FN7+
249.071	3	C20H9+
257.0821	1	C16H9N4+
258.061	3	C14H8F2N2O+
258.0893	1	C11H9FN7+
259.0977	999	C11H10FN7+
260.1056	376	C16H12N4+
261.1133	760	C11H12FN7+
263.1289	25	C11H14FN7+
268.069	14	C12H9F3N3O+
272.0816	4	C12H9FN6O+
272.0933	1	C16H10N5+
278.0805	3	C15H10N4O2+
286.1083	1	C17H12N5+
289.1082	42	C12H12FN7O+
307.1189	26	C17H16F3NO+
337.103	1	C24H14FO+
