Mass spectrum: Fluensulfone; LC-ESI-QFT; MS2; CE: 75%; R=17500; [M+H]+
Name: Fluensulfone
Name: 5-chloro-2-(3,4,4-trifluorobut-3-enylsulfonyl)-1,3-thiazole
Formula: C7H5ClF3NO2S2
Exact mass: 290.9402
SMILES: C1=C(SC(=N1)S(=O)(=O)CCC(=C(F)F)F)Cl
InChI: InChI=1S/C7H5ClF3NO2S2/c8-5-3-12-7(15-5)16(13,14)2-1-4(9)6(10)11/h3H,1-2H2
Instrument: Exploris 240 Orbitrap Thermo Scientific
Instrument type: LC-ESI-QFT
Ms type: MS2
Ion mode: POSITIVE
Ionization: ESI
Fragmentation mode: HCD
Collision energy: 75 % (nominal)
Resolution: 17500
Column name: XBridge C18 3.5um, 2.1x50mm, Waters
Retention time: 6.848 min
Base peak: 326.0275
Precursor m/z: 291.9475
Precursor type: [M+H]+
m/z	relative intensity	assigned
59.0291	616	C3H4F+
65.0197	53	C2H3F2+
78.9403	196	CClS+
89.0196	999	C4H3F2+
92.9561	91	C2H2ClS+
109.0257	169	C4H4F3+
117.9512	146	C3HClNS+
119.9668	120	C3H3ClNS+
121.946	359	C2HClNOS+
165.9184	178	C3HClNOS2+
