Mass spectrum: Timolol; LC-ESI-QFT; MS2; CE: 180; R=35000; [M+H]+
Name: Timolol
Name: 1-(tert-butylamino)-3-[(4-morpholin-4-yl-1,2,5-thiadiazol-3-yl)oxy]propan-2-ol
Formula: C13H24N4O3S
Exact mass: 316.15691
SMILES: CC(C)(C)NCC(O)COC1=NSN=C1N1CCOCC1
InChI: InChI=1S/C13H24N4O3S/c1-13(2,3)14-8-10(18)9-20-12-11(15-21-16-12)17-4-6-19-7-5-17/h10,14,18H,4-9H2,1-3H3
Instrument: Q Exactive Plus Orbitrap Thermo Scientific
Instrument type: LC-ESI-QFT
Ms type: MS2
Ion mode: POSITIVE
Ionization: ESI
Fragmentation mode: HCD
Collision energy: 180 (nominal)
Resolution: 35000
Column name: XBridge C18 3.5um, 2.1x50mm, Waters
Retention time: 4.9 min
Base peak: 317.164
Precursor m/z: 317.1642
Precursor type: [M+H]+
m/z	relative intensity	assigned
52.0182	16	
53.0023	323	C3HO+
53.0134	60	C2HN2+
53.9974	119	C2NO+
54.0339	107	C3H4N+
55.0291	120	C2H3N2+
56.0495	999	C3H6N+
57.0335	18	C3H5O+
57.0699	107	C4H9+
57.9746	182	CNS+
57.9871	27	C2H2S+
58.065	57	C3H8N+
58.9823	22	CHNS+
58.995	140	C2H3S+
59.9903	460	CH2NS+
62.0059	21	CH4NS+
67.029	29	C3H3N2+
67.0416	19	C4H5N+
67.9891	62	C3O2+
68.0129	16	C3H2NO+
68.0368	18	C3H4N2+
68.0495	20	C4H6N+
69.0447	724	C3H5N2+
70.0288	19	C3H4NO+
71.9903	81	C2H2NS+
73.9696	105	CNOS+
74.0059	292	C2H4NS+
74.06	101	C3H8NO+
74.9773	16	CHNOS+
75.9851	14	CH2NOS+
78.0086	24	C3N3+
80.0492	19	C5H6N+
84.9854	52	C2HN2S+
85.9695	177	C2NOS+
