Mass spectrum: Metobromuron; LC-ESI-QFT; MS2; CE: 60%; R=17500; [M+H]+
Name: Metobromuron
Name: 3-(4-bromophenyl)-1-methoxy-1-methylurea
Formula: C9H11BrN2O2
Exact mass: 258.0004
SMILES: CN(C(=O)NC1=CC=C(C=C1)Br)OC
InChI: InChI=1S/C9H11BrN2O2/c1-12(14-2)9(13)11-8-5-3-7(10)4-6-8/h3-6H,1-2H3,(H,11,13)
Instrument: Exploris 240 Orbitrap Thermo Scientific
Instrument type: LC-ESI-QFT
Ms type: MS2
Ion mode: POSITIVE
Ionization: ESI
Fragmentation mode: HCD
Collision energy: 60 % (nominal)
Resolution: 17500
Column name: XBridge C18 3.5um, 2.1x50mm, Waters
Retention time: 6.748 min
Base peak: 259.0077
Precursor m/z: 259.0077
Precursor type: [M+H]+
m/z	relative intensity	assigned
60.0445	98	C2H6NO+
61.0522	13	C2H7NO+
62.06	97	C2H8NO+
90.0338	12	C6H4N+
91.0417	352	C6H5N+
92.0496	15	C6H6N+
119.0606	135	C7H7N2+
142.9493	83	C5H4Br+
147.0552	109	C8H7N2O+
148.0632	325	C8H8N2O+
169.9601	999	C6H5BrN+
170.9679	457	C6H6BrN+
226.9818	51	C8H8BrN2O+
