Mass spectrum: Boscalid; LC-ESI-ITFT; MS2; CE: 90%; R=7500; [M+H]+
Name: Boscalid
Name: 2-chloranyl-N-[2-(4-chlorophenyl)phenyl]pyridine-3-carboxamide
Formula: C18H12Cl2N2O
Exact mass: 342.0327
SMILES: c1ccc(c(c1)c2ccc(cc2)Cl)NC(=O)c3cccnc3Cl
InChI: InChI=1S/C18H12Cl2N2O/c19-13-9-7-12(8-10-13)14-4-1-2-6-16(14)22-18(23)15-5-3-11-21-17(15)20/h1-11H,(H,22,23)
Instrument: LTQ Orbitrap XL Thermo Scientific
Instrument type: LC-ESI-ITFT
Ms type: MS2
Ion mode: POSITIVE
Ionization: ESI
Fragmentation mode: HCD
Collision energy: 90 % (nominal)
Resolution: 7500
Column name: XBridge C18 3.5um, 2.1x50mm, Waters
Retention time: 10.5 min
Base peak: 343.0412
Precursor m/z: 343.0399
Precursor type: [M+H]+
m/z	relative intensity	assigned
76.0183	64	C5H2N+
78.0339	438	C5H4N+
84.9843	4	C4H2Cl+
94.0289	40	C5H4NO+
96.0445	253	C5H6NO+
111.995	413	C5H3ClN+
112.0396	24	C2H9ClN2O+
113.0028	33	C5H4ClN+
114.0106	60	C5H5ClN+
130.0055	104	C5H5ClNO+
139.9898	73	C6H3ClNO+
140.0495	51	C10H6N+
141.0453	4	C9H5N2+
144.9929	11	C2H7Cl2N2O+
151.0544	7	C12H7+
152.0622	116	C12H8+
166.0523	15	C11H6N2+
167.0602	22	C11H7N2+
167.0738	13	C12H9N+
168.0682	21	C11H8N2+
175.0535	3	C14H7+
176.0628	7	C14H8+
177.0574	97	C13H7N+
179.0599	4	C12H7N2+
186.0231	4	C12H7Cl+
189.07	35	C15H9+
190.0654	25	C14H8N+
191.0728	8	C14H9N+
195.9463	2	C7Cl2N3+
196.0633	19	C12H8N2O+
199.0304	5	C13H8Cl+
199.0538	8	C16H7+
200.0623	15	C16H8+
202.0768	43	C16H10+
203.073	48	C15H9N+
204.0809	36	C15H10N+
212.0272	5	C13H7ClN+
214.0651	23	C16H8N+
215.0728	35	C16H9N+
216.0807	136	C16H10N+
217.0884	80	C16H11N+
220.0748	5	C15H10NO+
225.0569	20	C17H7N+
226.065	46	C17H8N+
227.0729	167	C17H9N+
228.0804	115	C17H10N+
230.0373	6	C10H12Cl2N2+
230.0601	4	C16H8NO+
241.0762	34	C17H9N2+
242.0839	399	C17H10N2+
243.0919	616	C17H11N2+
244.0749	32	C17H10NO+
244.0998	131	C17H12N2+
245.0714	26	C16H9N2O+
246.0788	8	C16H10N2O+
252.0686	57	C18H8N2+
253.0763	303	C18H9N2+
254.0839	135	C18H10N2+
255.0916	8	C18H11N2+
257.0716	8	C17H9N2O+
261.0352	5	C17H8ClN+
262.0419	14	C17H9ClN+
263.0378	13	C16H8ClN2+
264.0578	10	C17H11ClN+
269.0717	24	C18H9N2O+
270.079	145	C18H10N2O+
271.0867	999	C18H11N2O+
272.0944	207	C18H12N2O+
277.0523	6	C17H10ClN2+
278.059	10	C18H6N4+
286.073	3	C18H10N2O2+
287.0378	5	C18H8ClN2+
288.0436	6	C18H9ClN2+
289.0526	33	C18H10ClN2+
305.0481	20	C18H10ClN2O+
306.0552	6	C18H11ClN2O+
