Mass spectrum: Corticosterone; LC-ESI-QFT; MS2; CE: 180; R=35000; [M+H]+
Name: Corticosterone
Name: 11b,21-Dihydroxyprogesterone
Name: (8S,9S,10R,11S,13S,14S,17S)-11-hydroxy-17-(2-hydroxyacetyl)-10,13-dimethyl-1,2,6,7,8,9,11,12,14,15,16,17-dodecahydrocyclopenta[a]phenanthren-3-one
Formula: C21H30O4
Exact mass: 346.21441
SMILES: O=C4\C=C2/[C@]([C@H]1[C@@H](O)C[C@@]3([C@@H](C(=O)CO)CC[C@H]3[C@@H]1CC2)C)(C)CC4
InChI: InChI=1S/C21H30O4/c1-20-8-7-13(23)9-12(20)3-4-14-15-5-6-16(18(25)11-22)21(15,2)10-17(24)19(14)20/h9,14-17,19,22,24H,3-8,10-11H2,1-2H3/t14-,15-,16+,17-,19+,20-,21-/m0/s1
Instrument: Q Exactive Plus Orbitrap Thermo Scientific
Instrument type: LC-ESI-QFT
Ms type: MS2
Ion mode: POSITIVE
Ionization: ESI
Fragmentation mode: HCD
Collision energy: 180 (nominal)
Resolution: 35000
Column name: XBridge C18 3.5um, 2.1x50mm, Waters
Retention time: 8.9 min
Base peak: 347.2214
Precursor m/z: 347.2217
Precursor type: [M+H]+
m/z	relative intensity	assigned
50.0151	248	C4H2+
51.023	389	C4H3+
52.0308	13	C4H4+
53.0022	93	C3HO+
53.0386	357	C4H5+
53.9975	24	C2NO+
55.0179	106	C3H3O+
55.0542	124	C4H7+
57.0335	13	C3H5O+
62.015	20	C5H2+
63.0229	108	C5H3+
65.0386	970	C5H5+
66.0101	2	C4H2O+
66.0464	41	C5H6+
67.0542	136	C5H7+
67.9892	10	C3O2+
68.9971	3	C3HO2+
69.0335	12	C4H5O+
69.0698	4	C5H9+
71.0491	2	C4H7O+
74.015	12	C6H2+
75.0229	30	C6H3+
76.0306	17	C6H4+
77.0385	359	C6H5+
78.0464	195	C6H6+
79.0542	347	C6H7+
80.0622	7	C6H8+
81.0335	50	C5H5O+
81.0698	18	C6H9+
82.0413	13	C5H6O+
83.049	18	C5H7O+
89.0386	157	C7H5+
90.0465	4	C7H6+
91.0542	999	C7H7+
92.0621	3	C7H8+
93.0699	10	C7H9+
94.0414	35	C6H6O+
95.0492	848	C6H7O+
97.0647	8	C6H9O+
102.0464	154	C8H6+
103.0542	170	C8H7+
104.062	23	C8H8+
105.0448	456	C6H5N2+
105.0699	69	C8H9+
107.0491	43	C7H7O+
109.0649	8	C7H9O+
113.0386	8	C9H5+
115.0543	994	C9H7+
116.062	40	C9H8+
117.0699	49	C9H9+
119.0494	10	C8H7O+
119.0856	4	C9H11+
126.0464	43	C10H6+
127.0542	72	C10H7+
128.0621	545	C10H8+
129.0448	10	
129.0699	62	C10H9+
131.0492	28	C9H7O+
131.0856	2	C10H11+
132.0568	4	C9H8O+
133.0646	3	C9H9O+
139.0543	44	C11H7+
140.0617	3	C11H8+
141.0698	127	C11H9+
142.0777	3	C11H10+
144.0568	3	C10H8O+
145.0649	44	C10H9O+
147.0803	15	C10H11O+
150.0465	9	C12H6+
151.0541	3	C12H7+
152.0621	224	C12H8+
153.0699	56	C12H9+
154.0777	5	C12H10+
155.0604	97	C10H7N2+
163.0541	19	C13H7+
164.062	21	C13H8+
165.0699	137	C13H9+
166.0779	4	C13H10+
168.0572	4	C12H8O+
169.0648	36	C12H9O+
176.0622	18	C14H8+
177.07	11	C14H9+
178.0777	39	C14H10+
179.0604	12	C12H7N2+
181.0643	2	C13H9O+
189.0701	29	C15H9+
190.0781	4	C15H10+
191.0855	3	C15H11+
202.0777	13	C16H10+
