Mass spectrum: Neotame; LC-ESI-ITFT; MS2; CE: 60%; R=15000; [M-H]-
Name: Neotame
Name: (3S)-3-(3,3-dimethylbutylamino)-4-[[(2S)-1-methoxy-1-oxidanylidene-3-phenyl-propan-2-yl]amino]-4-oxidanylidene-butanoic acid
Formula: C20H30N2O5
Exact mass: 378.2155
SMILES: CC(C)(C)CCN[C@@H](CC(=O)O)C(=O)N[C@@H](CC1=CC=CC=C1)C(=O)OC
InChI: InChI=1S/C20H30N2O5/c1-20(2,3)10-11-21-15(13-17(23)24)18(25)22-16(19(26)27-4)12-14-8-6-5-7-9-14/h5-9,15-16,21H,10-13H2,1-4H3,(H,22,25)(H,23,24)/t15-,16-/m0/s1
Instrument: LTQ Orbitrap XL Thermo Scientific
Instrument type: LC-ESI-ITFT
Ms type: MS2
Ion mode: NEGATIVE
Ionization: ESI
Fragmentation mode: HCD
Collision energy: 60 % (nominal)
Resolution: 15000
Column name: XBridge C18 3.5um, 2.1x50mm, Waters
Retention time: 9.0 min
Base peak: 377.2074
Precursor m/z: 377.2082
Precursor type: [M-H]-
m/z	relative intensity	assigned
109.0168	259	C5H3NO2-
111.0195	290	C4H3N2O2-
116.0505	428	C8H6N-
118.0662	999	C8H8N-
126.1292	348	C8H16N-
197.1305	173	C10H17N2O2-
200.0719	949	C12H10NO2-
285.1619	174	C17H21N2O2-
