Mass spectrum: Topiramate; LC-ESI-QFT; MS2; CE: 60; R=35000; [M+H]+
Name: Topiramate
Name: Topamax
Name: (2,2,7,7-tetramethyl-5,5a,8a,8b-tetrahydrodi[1,3]dioxolo[4,5-a:5`,3`-d]pyran-3a-yl)methyl sulfamate
Formula: C12H21NO8S
Exact mass: 339.09879
SMILES: CC1(OC2COC3(C(C2O1)OC(O3)(C)C)COS(=O)(=O)N)C
InChI: InChI=1S/C12H21NO8S/c1-10(2)18-7-5-16-12(6-17-22(13,14)15)9(8(7)19-10)20-11(3,4)21-12/h7-9H,5-6H2,1-4H3,(H2,13,14,15)
Instrument: Q Exactive Plus Orbitrap Thermo Scientific
Instrument type: LC-ESI-QFT
Ms type: MS2
Ion mode: POSITIVE
Ionization: ESI
Fragmentation mode: HCD
Collision energy: 60 (nominal)
Resolution: 35000
Column name: XBridge C18 3.5um, 2.1x50mm, Waters
Retention time: 6.1 min
Base peak: 357.132
Precursor m/z: 340.1061
Precursor type: [M+H]+
m/z	relative intensity	assigned
53.0022	10	C3HO+
53.0386	60	C4H5+
54.0339	6	C3H4N+
55.0179	172	C3H3O+
55.0543	20	C4H7+
56.0495	48	C3H6N+
57.0335	178	C3H5O+
57.07	13	C4H9+
58.0288	2	C2H4NO+
58.0651	5	C3H8N+
59.0492	999	C3H7O+
60.0444	16	C2H6NO+
61.0284	52	C2H5O2+
65.0386	2	C5H5+
67.0543	23	C5H7+
68.0495	29	C4H6N+
69.0335	204	C4H5O+
70.0287	13	C3H4NO+
70.0651	23	C4H8N+
71.0128	66	C3H3O2+
71.0491	42	C4H7O+
72.0444	17	C3H6NO+
73.0284	75	C3H5O2+
74.0601	2	C3H8NO+
75.0441	2	C3H7O2+
77.0386	3	C6H5+
79.0542	60	C6H7+
79.9801	70	H2NO2S+
80.0495	43	C5H6N+
81.0335	413	C5H5O+
82.0288	13	C4H4NO+
82.0652	15	C5H8N+
83.0128	24	C4H3O2+
83.0491	40	C5H7O+
84.0444	57	C4H6NO+
84.0808	3	C5H10N+
85.0284	136	C4H5O2+
86.0601	5	C4H8NO+
87.0078	10	C3H3O3+
87.044	13	C4H7O2+
91.0543	8	C7H7+
93.0699	9	C7H9+
94.0653	19	C6H8N+
95.0492	168	C6H7O+
96.0444	37	C5H6NO+
96.057	2	C6H8O+
96.0809	14	C6H10N+
97.0285	175	C5H5O2+
97.0649	24	C6H9O+
97.9907	8	H4NO3S+
98.0237	29	C4H4NO2+
98.0601	30	C5H8NO+
99.0077	106	C4H3O3+
99.0441	97	C5H7O2+
100.0394	5	C4H6NO2+
101.0234	37	C4H5O3+
101.0597	5	C5H9O2+
102.055	1	C4H8NO2+
103.0391	6	C4H7O3+
105.0448	5	C6H5N2+
106.0652	2	C7H8N+
107.0492	12	C7H7O+
108.0445	14	C6H6NO+
108.057	3	C7H8O+
109.0285	92	C6H5O2+
109.0648	12	C7H9O+
110.06	1	C6H8NO+
111.0441	1	C6H7O2+
111.0679	9	C6H9NO+
112.0394	13	C5H6NO2+
112.0757	37	C6H10NO+
113.0597	19	C6H9O2+
114.055	30	C5H8NO2+
115.0391	2	C5H7O3+
121.0649	16	C8H9O+
121.9908	10	C2H4NO3S+
123.0441	32	C7H7O2+
124.0519	12	C7H8O2+
124.0758	27	C7H10NO+
125.0236	1	C6H5O3+
125.0598	27	C7H9O2+
126.055	41	C6H8NO2+
127.0391	109	C6H7O3+
130.0501	1	C5H8NO3+
130.98	8	C4H3O3S+
136.0756	1	C8H10NO+
137.0598	8	C8H9O2+
138.0913	1	C8H12NO+
140.0011	2	C2H6NO4S+
143.0701	2	C7H11O3+
144.0656	5	C6H10NO3+
145.0493	1	C6H9O4+
148.9904	24	C4H5O4S+
149.0598	24	C9H9O2+
164.0014	10	C4H6NO4S+
164.9852	20	C4H5O5S+
167.0704	23	C9H11O3+
176.0013	2	C5H6NO4S+
179.9958	2	C4H6NO5S+
184.0969	14	C9H14NO3+
185.0808	1	C9H13O4+
188.9853	27	C6H5O5S+
