Mass spectrum: Risperidone; LC-ESI-QFT; MS2; CE: 180; R=35000; [M+H]+
Name: Risperidone
Name: Pargyline N-oxide
Name: N-benzyl-N-methylprop-2-yn-1-amine oxide
Formula: C11H13NO
Exact mass: 175.09971
SMILES: C[N+](CC#C)(CC1=CC=CC=C1)[O-]
InChI: InChI=1S/C11H13NO/c1-3-9-12(2,13)10-11-7-5-4-6-8-11/h1,4-8H,9-10H2,2H3
Instrument: Q Exactive Plus Orbitrap Thermo Scientific
Instrument type: LC-ESI-QFT
Ms type: MS2
Ion mode: POSITIVE
Ionization: ESI
Fragmentation mode: HCD
Collision energy: 180 (nominal)
Resolution: 35000
Column name: XBridge C18 3.5um, 2.1x50mm, Waters
Retention time: 5.7 min
Base peak: 164.9844
Precursor m/z: 176.107
Precursor type: [M+H]+
m/z	relative intensity	assigned
50.015	1	C4H2+
51.0228	1	C4H3+
53.0022	39	C3HO+
53.9974	7	C2NO+
61.0072	4	C5H+
62.0151	28	C5H2+
63.0229	131	C5H3+
65.0385	999	C5H5+
67.0542	1	C5H7+
75.0228	1	C6H3+
78.0085	2	C3N3+
79.0178	2	C5H3O+
83.0491	2	C5H7O+
89.0385	8	C7H5+
90.0464	1	C7H6+
91.0542	342	C7H7+
