Mass spectrum: Minocycline; LC-ESI-QFT; MS2; CE: 180; R=35000; [M+H]+
Name: Minocycline
Name: Minocin
Name: (4S,4aS,5aR,12aS)-4,7-Bis(dimethylamino)-3,10,12,12a-tetrahydroxy-1,11-dioxo-1,4,4a,5,5a,6,11,12a-octahydro-2-tetracenecarboxamide
Formula: C23H27N3O7
Exact mass: 457.18490
SMILES: [H][C@@]12CC3=C(C(O)=CC=C3N(C)C)C(=O)C1=C(O)[C@]1(O)C(=O)C(C(N)=O)=C(O)[C@@H](N(C)C)[C@]1([H])C2
InChI: InChI=1S/C23H27N3O7/c1-25(2)12-5-6-13(27)15-10(12)7-9-8-11-17(26(3)4)19(29)16(22(24)32)21(31)23(11,33)20(30)14(9)18(15)28/h5-6,9,11,17,27,29-30,33H,7-8H2,1-4H3,(H2,24,32)/t9-,11-,17-,23-/m0/s1
Instrument: Q Exactive Plus Orbitrap Thermo Scientific
Instrument type: LC-ESI-QFT
Ms type: MS2
Ion mode: POSITIVE
Ionization: ESI
Fragmentation mode: HCD
Collision energy: 180 (nominal)
Resolution: 35000
Column name: XBridge C18 3.5um, 2.1x50mm, Waters
Retention time: 3.7 min
Base peak: 229.5995
Precursor m/z: 458.1922
Precursor type: [M+H]+
m/z	relative intensity	assigned
50.0151	96	C4H2+
51.0229	71	C4H3+
52.0182	89	C3H2N+
52.0308	8	C4H4+
53.0022	78	C3HO+
53.0386	160	C4H5+
54.0338	24	C3H4N+
55.0178	45	C3H3O+
55.0416	31	C3H5N+
56.0494	9	C3H6N+
58.0651	48	C3H8N+
62.015	48	C5H2+
63.0229	303	C5H3+
64.0181	4	C4H2N+
64.0307	7	C5H4+
65.0385	215	C5H5+
66.0338	15	C4H4N+
66.0464	19	C5H6+
67.0178	2	C4H3O+
67.0416	17	C4H5N+
67.0542	4	C5H7+
68.0131	2	C3H2NO+
68.0494	25	C4H6N+
68.997	77	C3HO2+
70.0651	2	C4H8N+
72.0444	3	C3H6NO+
74.015	68	C6H2+
75.0228	128	C6H3+
76.0306	185	C6H4+
77.0385	142	C6H5+
78.0337	23	C5H4N+
78.0463	235	C6H6+
79.0177	6	C5H3O+
79.0416	13	C5H5N+
79.0542	35	C6H7+
80.013	59	C4H2NO+
80.0494	29	C5H6N+
81.0335	40	C5H5O+
81.0572	3	C5H7N+
82.0652	1	C5H8N+
83.0365	9	C4H5NO+
87.0229	36	C7H3+
88.0307	29	C7H4+
89.0385	773	C7H5+
90.0339	22	C6H4N+
90.0464	56	C7H6+
91.0542	169	C7H7+
92.0256	4	C6H4O+
92.0494	12	C6H6N+
93.0333	2	C6H5O+
93.0573	10	C6H7N+
94.0412	13	C6H6O+
94.0651	3	C6H8N+
95.0491	577	C6H7O+
96.0443	45	C5H6NO+
101.0385	35	C8H5+
102.0464	999	C8H6+
103.0542	678	C8H7+
104.0494	142	C7H6N+
104.062	30	C8H8+
105.0447	334	C6H5N2+
105.0572	69	C7H7N+
106.0415	2	C7H6O+
106.065	16	C7H8N+
107.049	23	C7H7O+
113.0385	153	C9H5+
114.0339	14	C8H4N+
114.0463	36	C9H6+
115.0542	781	C9H7+
116.0494	103	C8H6N+
116.0619	22	C9H8+
117.0572	93	C8H7N+
118.0285	4	C7H4NO+
118.0411	19	C8H6O+
118.065	23	C8H8N+
119.0366	3	C7H5NO+
119.0492	24	C8H7O+
120.0446	8	C7H6NO+
121.0288	2	C7H5O2+
121.0523	2	C7H7NO+
125.0385	22	C10H5+
126.0463	149	C10H6+
127.0542	115	C10H7+
128.0494	83	C9H6N+
128.062	364	C10H8+
129.0335	13	C9H5O+
129.0446	70	C8H5N2+
129.0573	15	C9H7N+
129.0697	24	C10H9+
130.0651	579	C9H8N+
131.0491	71	C9H7O+
131.0728	39	C9H9N+
132.0444	8	C8H6NO+
132.0568	31	C9H8O+
133.0521	14	C8H7NO+
134.06	36	C8H8NO+
137.0385	28	C11H5+
138.0464	29	C11H6+
139.0541	637	C11H7+
140.0494	195	C10H6N+
140.0618	41	C11H8+
141.0572	35	C10H7N+
141.0697	55	C11H9+
142.0414	6	C10H6O+
142.065	27	C10H8N+
143.0491	12	C10H7O+
143.0729	10	C10H9N+
144.0444	11	C9H6NO+
144.0809	8	C10H10N+
145.0647	72	C10H9O+
146.0599	33	C9H8NO+
147.0438	9	C9H7O2+
148.0389	1	C8H6NO2+
149.0382	6	C12H5+
150.0464	147	C12H6+
151.0542	25	C12H7+
152.062	402	C12H8+
153.0572	35	C11H7N+
153.0697	38	C12H9+
154.065	175	C11H8N+
155.0602	135	C10H7N2+
155.0731	15	C11H9N+
156.0447	5	C10H6NO+
156.0569	12	C11H8O+
156.0807	4	C11H10N+
157.0523	7	C10H7NO+
157.0649	11	C11H9O+
158.0362	1	C10H6O2+
158.0599	11	C10H8NO+
160.0758	2	C10H10NO+
161.0386	9	C13H5+
162.0464	13	C13H6+
163.0541	126	C13H7+
164.0494	55	C12H6N+
164.0616	23	C13H8+
165.0574	12	C12H7N+
165.0698	98	C13H9+
166.0651	98	C12H8N+
167.0729	82	C12H9N+
168.057	36	C12H8O+
168.0806	17	C12H10N+
169.0647	168	C12H9O+
170.06	25	C11H8NO+
171.0441	2	C11H7O2+
176.062	38	C14H8+
177.0572	26	C13H7N+
177.0693	5	C14H9+
178.0651	43	C13H8N+
178.0773	4	C14H10+
179.0487	4	C13H7O+
179.0603	55	C12H7N2+
179.0725	4	C13H9N+
180.0807	17	C13H10N+
181.0647	11	C13H9O+
182.0599	25	C12H8NO+
183.0443	2	C12H7O2+
183.0677	13	C12H9NO+
184.0756	3	C12H10NO+
185.0596	7	C12H9O2+
186.0551	2	C11H8NO2+
187.0543	4	C15H7+
188.0493	8	C14H6N+
189.0571	2	C14H7N+
189.0699	9	C15H9+
190.0649	31	C14H8N+
191.0728	22	C14H9N+
192.0804	3	C14H10N+
193.0523	8	C13H7NO+
193.0653	7	C14H9O+
194.0599	8	C13H8NO+
195.0684	2	C13H9NO+
196.0522	4	C13H8O2+
196.0759	8	C13H10NO+
201.0573	3	C15H7N+
203.0732	1	C15H9N+
204.081	7	C15H10N+
206.0599	2	C14H8NO+
207.0677	2	C14H9NO+
214.0648	2	C16H8N+
