Mass spectrum: Timolol; LC-ESI-QFT; MS2; CE: 30; R=35000; [M+H]+
Name: Timolol
Name: 1-(tert-butylamino)-3-[(4-morpholin-4-yl-1,2,5-thiadiazol-3-yl)oxy]propan-2-ol
Formula: C13H24N4O3S
Exact mass: 316.15691
SMILES: CC(C)(C)NCC(O)COC1=NSN=C1N1CCOCC1
InChI: InChI=1S/C13H24N4O3S/c1-13(2,3)14-8-10(18)9-20-12-11(15-21-16-12)17-4-6-19-7-5-17/h10,14,18H,4-9H2,1-3H3
Instrument: Q Exactive Plus Orbitrap Thermo Scientific
Instrument type: LC-ESI-QFT
Ms type: MS2
Ion mode: POSITIVE
Ionization: ESI
Fragmentation mode: HCD
Collision energy: 30 (nominal)
Resolution: 35000
Column name: XBridge C18 3.5um, 2.1x50mm, Waters
Retention time: 4.9 min
Base peak: 317.164
Precursor m/z: 317.1642
Precursor type: [M+H]+
m/z	relative intensity	assigned
56.0494	19	C3H6N+
57.0699	42	C4H9+
74.06	490	C3H8NO+
113.0709	1	C5H9N2O+
130.1226	24	C7H16NO+
144.0224	1	C4H6N3OS+
158.0924	4	C6H12N3O2+
188.0488	115	C6H10N3O2S+
200.0488	1	C7H10N3O2S+
232.0752	1	C8H14N3O3S+
243.0911	29	C9H15N4O2S+
244.0751	291	C9H14N3O3S+
261.1015	999	C9H17N4O3S+
317.1643	370	C13H25N4O3S+
