Mass spectrum: Cyanazine; LC-ESI-ITFT; MS2; CE: 15%; R=7500; [M+H]+
Name: Cyanazine
Name: 2-[[4-chloranyl-6-(ethylamino)-1,3,5-triazin-2-yl]amino]-2-methyl-propanenitrile
Formula: C9H13ClN6
Exact mass: 240.0890
SMILES: CCNC1=NC(=NC(=N1)Cl)NC(C)(C)C#N
InChI: InChI=1S/C9H13ClN6/c1-4-12-7-13-6(10)14-8(15-7)16-9(2,3)5-11/h4H2,1-3H3,(H2,12,13,14,15,16)
Instrument: LTQ Orbitrap XL Thermo Scientific
Instrument type: LC-ESI-ITFT
Ms type: MS2
Ion mode: POSITIVE
Ionization: ESI
Fragmentation mode: HCD
Collision energy: 15 % (nominal)
Resolution: 7500
Column name: XBridge C18 3.5um, 2.1x50mm, Waters
Retention time: 6.6 min
Base peak: 241.0971
Precursor m/z: 241.0963
Precursor type: [M+H]+
m/z	relative intensity	assigned
71.0602	1	C3H7N2+
214.0851	44	C8H13ClN5+
241.0965	999	C9H14ClN6+
