Mass spectrum: Nilotinib; LC-ESI-QFT; MS2; CE: 30; R=35000; [M+H]+
Name: Nilotinib
Name: 4-methyl-N-(3-(4-methylimidazol-1-yl)-5-(trifluoromethyl)phenyl)-3-((4-pyridin-3-ylpyrimidin-2-yl)amino)benzamide
Formula: C28H22F3N7O
Exact mass: 529.18379
SMILES: CC1=C(C=C(C=C1)C(=O)NC2=CC(=CC(=C2)N3C=C(N=C3)C)C(F)(F)F)NC4=NC=CC(=N4)C5=CN=CC=C5
InChI: InChI=1S/C28H22F3N7O/c1-17-5-6-19(10-25(17)37-27-33-9-7-24(36-27)20-4-3-8-32-14-20)26(39)35-22-11-21(28(29,30)31)12-23(13-22)38-15-18(2)34-16-38/h3-16H,1-2H3,(H,35,39)(H,33,36,37)
Instrument: Q Exactive Plus Orbitrap Thermo Scientific
Instrument type: LC-ESI-QFT
Ms type: MS2
Ion mode: POSITIVE
Ionization: ESI
Fragmentation mode: HCD
Collision energy: 30 (nominal)
Resolution: 35000
Column name: XBridge C18 3.5um, 2.1x50mm, Waters
Retention time: 8.2 min
Base peak: 530.1902
Precursor m/z: 530.1911
Precursor type: [M+H]+
m/z	relative intensity	assigned
246.0886	1	C10H9FN7+
259.0965	5	C11H10FN7+
260.1055	24	C11H11FN7+
261.1134	32	C11H12FN7+
263.1289	1	C11H14FN7+
289.1082	999	C12H12FN7O+
307.1188	609	C17H16F3NO+
321.1345	23	C18H18F3NO+
510.185	15	C28H22F2N7O+
512.1809	1	C28H21F3N7+
530.1912	615	C28H23F3N7O+
