Mass spectrum: Difenacoum; LC-ESI-QFT; MS2; CE: 90%; R=17500; [M+H]+
Name: Difenacoum
Name: 4-hydroxy-3-[3-(4-phenylphenyl)-1,2,3,4-tetrahydronaphthalen-1-yl]chromen-2-one
Formula: C31H24O3
Exact mass: 444.1725
SMILES: C1C(CC2=CC=CC=C2C1C3=C(C4=CC=CC=C4OC3=O)O)C5=CC=C(C=C5)C6=CC=CC=C6
InChI: InChI=1S/C31H24O3/c32-30-26-12-6-7-13-28(26)34-31(33)29(30)27-19-24(18-23-10-4-5-11-25(23)27)22-16-14-21(15-17-22)20-8-2-1-3-9-20/h1-17,24,27,32H,18-19H2
Instrument: Exploris 240 Orbitrap Thermo Scientific
Instrument type: LC-ESI-QFT
Ms type: MS2
Ion mode: POSITIVE
Ionization: ESI
Fragmentation mode: HCD
Collision energy: 90 % (nominal)
Resolution: 17500
Column name: XBridge C18 3.5um, 2.1x50mm, Waters
Retention time: 15.423 min
Base peak: 445.1795
Precursor m/z: 445.1798
Precursor type: [M+H]+
m/z	relative intensity	assigned
53.0385	9	C4H5+
65.0385	37	C5H5+
77.0385	68	C6H5+
79.0542	121	C6H7+
91.0542	377	C7H7+
93.0333	11	C6H5O+
95.0491	50	C6H7O+
103.0542	142	C8H7+
105.07	10	C8H9+
107.0491	110	C7H7O+
115.0543	40	C9H7+
117.0701	10	C9H9+
121.0285	108	C7H5O2+
128.062	55	C10H8+
129.0699	21	C10H9+
141.0699	22	C11H9+
152.0624	19	C12H8+
153.07	5	C12H9+
165.0698	535	C13H9+
166.0778	30	C13H10+
175.0387	30	C10H7O3+
176.0618	10	C14H8+
177.07	32	C14H9+
178.0777	999	C14H10+
179.0855	296	C14H11+
202.0775	10	C16H10+
215.085	13	C17H11+
228.0934	7	C18H12+
239.0858	14	C19H11+
240.0932	8	C19H12+
241.1011	69	C19H13+
