Mass spectrum: Flecainide; LC-ESI-QFT; MS2; CE: 45; R=35000; [M+H]+
Name: Flecainide
Name: N-(2-piperidinylmethyl)-2,5-bis(2,2,2-trifluoroethoxy)benzamide
Formula: C17H20F6N2O3
Exact mass: 414.13781
SMILES: C1CCNC(C1)CNC(=O)C2=C(C=CC(=C2)OCC(F)(F)F)OCC(F)(F)F
InChI: InChI=1S/C17H20F6N2O3/c18-16(19,20)9-27-12-4-5-14(28-10-17(21,22)23)13(7-12)15(26)25-8-11-3-1-2-6-24-11/h4-5,7,11,24H,1-3,6,8-10H2,(H,25,26)
Instrument: Q Exactive Orbitrap Thermo Scientific
Instrument type: LC-ESI-QFT
Ms type: MS2
Ion mode: POSITIVE
Ionization: ESI
Fragmentation mode: HCD
Collision energy: 45 (nominal)
Resolution: 35000
Column name: XBridge C18 3.5um, 2.1x50mm, Waters
Retention time: 6.7 min
Base peak: 415.1452
Precursor m/z: 415.1451
Precursor type: [M+H]+
m/z	relative intensity	assigned
56.0495	13	C3H6N+
65.0385	1	C5H5+
69.0699	6	C5H9+
70.0651	13	C4H8N+
79.0542	73	C6H7+
81.0699	377	C6H9+
82.0651	57	C5H8N+
84.0808	69	C5H10N+
95.0491	2	C6H7O+
96.0809	6	C6H10N+
97.0886	19	C6H11N+
98.0964	662	C6H12N+
107.0125	2	C6H3O2+
153.0183	1	C7H5O4+
188.1071	6	C12H14NO+
189.0522	2	C9H8F3O+
207.0625	2	C9H10F3O2+
209.0222	14	C8H5F4O2+
216.1023	2	C13H14NO2+
219.0264	2	C9H6F3O3+
232.0969	166	C13H14NO3+
236.0292	25	C9H7F3O4+
237.0172	25	C9H5F4O3+
246.0376	2	C10H7F3NO3+
253.0288	14	C10H6F5O2+
274.069	2	C12H11F3NO3+
279.0272	1	C14H6F3O3+
281.0229	12	C11H6F5O3+
287.0502	18	C11H9F6O2+
298.1053	26	C15H15F3NO2+
301.0295	999	C14H6F5O2+
314.0999	7	C15H15F3NO3+
315.1077	89	C15H16F3NO3+
318.0559	16	C11H10F6NO3+
397.1359	1	C17H19F6N2O2+
398.1187	905	C17H18F6NO3+
415.1453	21	C17H21F6N2O3+
