Mass spectrum: Diazepam; LC-ESI-ITFT; MS2; CE: 60%; R=7500; [M+H]+
Name: Diazepam
Name: 7-chloranyl-1-methyl-5-phenyl-3H-1,4-benzodiazepin-2-one
Formula: C16H13ClN2O
Exact mass: 284.0716
SMILES: CN1C2=C(C=C(Cl)C=C2)C(=NCC1=O)C3=CC=CC=C3
InChI: InChI=1S/C16H13ClN2O/c1-19-14-8-7-12(17)9-13(14)16(18-10-15(19)20)11-5-3-2-4-6-11/h2-9H,10H2,1H3
Instrument: LTQ Orbitrap XL Thermo Scientific
Instrument type: LC-ESI-ITFT
Ms type: MS2
Ion mode: POSITIVE
Ionization: ESI
Fragmentation mode: HCD
Collision energy: 60 % (nominal)
Resolution: 7500
Column name: XBridge C18 3.5um, 2.1x50mm, Waters
Retention time: 10.1 min
Base peak: 285.0798
Precursor m/z: 285.0789
Precursor type: [M+H]+
m/z	relative intensity	assigned
58.0286	15	C2H4NO+
91.0542	125	C7H7+
104.0495	15	C7H6N+
105.0335	63	C7H5O+
116.0496	40	C8H6N+
117.0573	39	C8H7N+
118.065	25	C8H8N+
119.0726	7	C8H9N+
125.0152	27	C7H6Cl+
138.9947	10	C7H4ClO+
140.0263	17	C7H7ClN+
141.0342	35	C7H8ClN+
143.0598	13	C9H7N2+
144.0439	7	C9H6NO+
144.0685	11	C9H8N2+
147.0678	44	C9H9NO+
150.0103	26	C8H5ClN+
152.0263	36	C8H7ClN+
154.0418	999	C8H9ClN+
165.0213	10	C8H6ClN2+
167.0132	78	C8H6ClNO+
172.0631	143	C10H8N2O+
179.037	112	C9H8ClN2+
180.0211	87	C9H7ClNO+
182.0366	94	C9H9ClNO+
192.0813	13	C14H10N+
193.0886	809	C14H11N+
194.097	16	C14H12N+
204.0809	20	C15H10N+
205.0888	24	C15H11N+
206.0837	15	C14H10N2+
207.0319	10	C10H8ClN2O+
207.0922	26	C14H11N2+
216.0574	67	C13H11ClN+
221.0836	14	C15H11NO+
221.1072	74	C15H13N2+
222.1152	684	C15H14N2+
226.0412	20	C14H9ClN+
227.0496	100	C14H10ClN+
228.0574	525	C14H11ClN+
230.073	48	C14H13ClN+
240.0569	27	C15H11ClN+
241.0528	188	C14H10ClN2+
242.0612	38	C14H11ClN2+
255.0682	122	C15H12ClN2+
257.084	430	C15H14ClN2+
285.0785	612	C16H14ClN2O+
