Mass spectrum: Metolachlor-TP SYN542490; LC-ESI-QFT; MS2; CE: 60%; R=17500; [M-H]-
Name: Metolachlor-TP SYN542490
Formula: C15H21NO6S
Exact mass: 343.1090
SMILES: O=S(=O)(O)CC(=O)N(C(C)COC)c1c(C)cccc1C(C)=O
InChI: InChI=1S/C15H21NO6S/c1-10-6-5-7-13(12(3)17)15(10)16(11(2)8-22-4)14(18)9-23(19,20)21/h5-7,11H,8-9H2,1-4H3,(H,19,20,21)
Instrument: Exploris 240 Orbitrap Thermo Scientific
Instrument type: LC-ESI-QFT
Ms type: MS2
Ion mode: NEGATIVE
Ionization: ESI
Fragmentation mode: HCD
Collision energy: 60 % (nominal)
Resolution: 17500
Column name: XBridge C18 3.5um, 2.1x50mm, Waters
Retention time: 4.678 min
Base peak: 342.1014
Precursor m/z: 342.1017
Precursor type: [M-H]-
m/z	relative intensity	assigned
76.9702	179	CHO2S-
79.9573	999	O3S-
80.9652	13	HO3S-
93.9731	20	CH2O3S-
94.9808	37	CH3O3S-
107.0502	34	C7H7O-
118.9682	183	C2HNO3S-
119.9761	109	C2H2NO3S-
120.9601	266	C2HO4S-
149.0607	629	C9H9O2-
170.0972	25	C12H12N-
172.0767	11	C11H10NO-
192.0336	9	C6H10NO4S-
220.134	12	C13H18NO2-
