Mass spectrum: Enrofloxacin; LC-ESI-QFT; MS2; CE: 120; R=35000; [M+H]+
Name: Enrofloxacin
Name: 1-cyclopropyl-7-(4-ethylpiperazin-4-ium-1-yl)-6-fluoro-4-oxoquinoline-3-carboxylate
Formula: C19H22FN3O3
Exact mass: 359.16452
SMILES: CCN1CCN(CC1)C2=C(C=C3C(=C2)N(C=C(C3=O)C(=O)O)C4CC4)F
InChI: InChI=1S/C19H22FN3O3/c1-2-21-5-7-22(8-6-21)17-10-16-13(9-15(17)20)18(24)14(19(25)26)11-23(16)12-3-4-12/h9-12H,2-8H2,1H3,(H,25,26)
Instrument: Q Exactive Plus Orbitrap Thermo Scientific
Instrument type: LC-ESI-QFT
Ms type: MS2
Ion mode: POSITIVE
Ionization: ESI
Fragmentation mode: HCD
Collision energy: 120 (nominal)
Resolution: 35000
Column name: XBridge C18 3.5um, 2.1x50mm, Waters
Retention time: 4.4 min
Base peak: 360.1712
Precursor m/z: 360.1718
Precursor type: [M+H]+
m/z	relative intensity	assigned
50.0151	16	C4H2+
51.0229	30	C4H3+
52.0181	9	C3H2N+
53.0023	384	C3HO+
53.0386	28	C4H5+
53.9974	8	C2NO+
54.0339	6	C3H4N+
55.0179	9	C3H3O+
55.0542	18	C4H7+
56.0495	348	C3H6N+
57.0136	32	C3H2F+
57.0574	53	C3H7N+
58.0652	136	C3H8N+
62.0151	8	C5H2+
63.0229	66	C5H3+
65.0386	44	C5H5+
67.0416	16	C4H5N+
67.0543	5	C5H7+
68.0495	58	C4H6N+
69.0447	6	C3H5N2+
70.0652	362	C4H8N+
72.0808	102	C4H10N+
74.015	7	C6H2+
75.0229	90	C6H3+
76.0307	4	C6H4+
77.0022	5	C5HO+
77.0386	42	C6H5+
78.0337	16	C5H4N+
78.0464	20	C6H6+
80.0495	26	C5H6N+
81.0135	9	C5H2F+
81.0336	5	C5H5O+
82.0652	27	C5H8N+
83.0292	169	C5H4F+
83.0603	18	C4H7N2+
84.037	25	C5H5F+
84.0809	111	C5H10N+
86.0964	33	C5H12N+
87.0103	4	C6HN+
87.0229	22	C7H3+
88.0183	5	C6H2N+
88.0308	28	C7H4+
89.0386	450	C7H5+
90.0339	28	C6H4N+
90.0465	35	C7H6+
91.0417	4	C6H5N+
91.0543	36	C7H7+
92.0257	8	C6H4O+
92.0495	17	C6H6N+
93.0137	5	C6H2F+
93.0337	4	C6H5O+
94.0216	14	C6H3F+
95.0292	17	C6H4F+
95.0492	66	C6H7O+
96.0371	40	C6H5F+
96.0445	32	C5H6NO+
97.0324	6	C5H4FN+
97.0449	8	C6H6F+
97.0763	4	C5H9N2+
98.084	9	C5H10N2+
99.023	15	C8H3+
100.0183	22	C7H2N+
101.0387	45	C8H5+
102.0339	18	C7H4N+
102.0465	96	C8H6+
103.0416	15	C7H5N+
103.0543	74	C8H7+
104.0495	59	C7H6N+
105.0449	61	C6H5N2+
105.0573	21	C7H7N+
106.0214	28	C7H3F+
107.0292	525	C7H4F+
108.0245	100	C6H3FN+
108.037	151	C7H5F+
109.0449	268	C7H6F+
110.0401	24	C6H5FN+
112.0185	3	C8H2N+
113.026	7	C8H3N+
113.0389	36	C9H5+
114.034	148	C8H4N+
114.0466	19	C9H6+
115.0417	95	C8H5N+
115.0543	241	C9H7+
116.0496	202	C8H6N+
117.0574	95	C8H7N+
118.0287	22	C7H4NO+
118.0651	18	C8H8N+
119.0292	6	C8H4F+
119.0492	37	C8H7O+
120.0245	15	C7H3FN+
120.0371	107	C8H5F+
120.0442	7	C7H6NO+
121.0323	117	C7H4FN+
121.0448	47	C8H6F+
122.0402	107	C7H5FN+
123.0354	54	C6H4FN2+
123.048	15	C7H6FN+
124.0557	14	C7H7FN+
125.0388	29	C10H5+
126.034	61	C9H4N+
126.0466	32	C10H6+
127.0419	44	C9H5N+
127.0543	80	C10H7+
128.0496	304	C9H6N+
128.0621	121	C10H8+
129.0448	205	C8H5N2+
129.0574	151	C9H7N+
129.0699	15	C10H9+
130.0403	16	C7H4N3+
130.0653	125	C9H8N+
131.0292	8	C9H4F+
131.037	8	C8H5NO+
131.0606	36	C8H7N2+
132.0245	176	C8H3FN+
132.0368	17	C9H5F+
132.0445	48	C8H6NO+
133.0324	108	C8H4FN+
133.0449	211	C9H6F+
134.0402	621	C8H5FN+
134.0601	105	C8H8NO+
135.0479	485	C8H6FN+
136.0195	42	C7H3FNO+
136.0559	104	C8H7FN+
137.0272	4	C7H4FNO+
137.0513	4	C7H6FN2+
138.0349	16	C7H5FNO+
139.0294	27	C9H3N2+
139.0543	17	C11H7+
140.027	15	
140.0372	14	C9H4N2+
140.0496	166	C10H6N+
141.0449	46	C9H5N2+
141.0574	93	C10H7N+
142.0289	27	C9H4NO+
142.0528	23	C9H6N2+
142.0653	66	C10H8N+
143.0493	4	C10H7O+
143.0605	51	C9H7N2+
143.0732	15	C10H9N+
144.0244	5	C9H3FN+
144.0445	28	C9H6NO+
144.0558	49	C8H6N3+
144.0812	4	C10H10N+
145.0323	20	C9H4FN+
145.045	8	C10H6F+
145.065	55	C10H9O+
146.0402	197	C9H5FN+
146.0528	169	C10H7F+
146.0601	37	C9H8NO+
147.0354	49	C8H4FN2+
147.048	174	C9H6FN+
147.0605	57	C10H8F+
148.0436	64	C8H5FN2+
148.0558	999	C9H7FN+
149.0513	51	C8H6FN2+
149.0637	23	C9H8FN+
150.0352	40	C8H5FNO+
150.0589	28	C8H7FN2+
150.0718	6	C9H9FN+
151.043	37	C8H6FNO+
151.0671	5	C8H8FN2+
152.0506	116	C8H7FNO+
152.0621	15	C12H8+
153.0451	30	C10H5N2+
153.0573	35	C11H7N+
154.0402	86	C9H4N3+
154.0653	444	C11H8N+
155.0605	455	C10H7N2+
155.073	26	C11H9N+
156.0446	36	C10H6NO+
156.0683	148	C10H8N2+
156.0809	16	C11H10N+
157.0397	18	C9H5N2O+
157.0454	7	C11H6F+
157.0525	8	C10H7NO+
157.0762	26	C10H9N2+
158.0403	105	C10H5FN+
158.0603	22	C10H8NO+
159.036	6	C9H4FN2+
159.0481	102	C10H6FN+
159.0554	26	C9H7N2O+
160.0194	21	
160.0434	61	C9H5FN2+
160.0558	88	C10H7FN+
161.0273	59	C9H4FNO+
161.0513	367	C9H6FN2+
161.0636	77	C10H8FN+
162.0352	173	C9H5FNO+
162.0461	91	C8H5FN3+
162.0587	53	C9H7FN2+
162.0714	34	C10H9FN+
163.0428	30	C9H6FNO+
163.0553	5	C10H8FO+
163.0667	24	C9H8FN2+
164.0507	74	C9H7FNO+
165.0451	8	C11H5N2+
166.0528	40	C11H6N2+
166.0655	27	C12H8N+
167.0607	87	C11H7N2+
167.0729	36	C12H9N+
168.0083	8	C10H2NO2+
168.0446	8	C11H6NO+
168.0558	17	C10H6N3+
168.0683	87	C11H8N2+
168.0808	22	C12H10N+
169.0399	7	C10H5N2O+
169.0515	7	C11H7NO+
169.0761	60	C11H9N2+
170.0344	4	C9H4N3O+
170.0472	4	C10H6N2O+
170.0601	21	C11H8NO+
171.0477	7	C11H6FN+
171.0553	7	C10H7N2O+
172.0558	379	C11H7FN+
173.0513	171	C10H6FN2+
173.0637	110	C11H8FN+
173.071	13	C10H9N2O+
174.0352	195	C10H5FNO+
174.0591	251	C10H7FN2+
174.0713	174	C11H9FN+
175.0429	15	C10H6FNO+
175.0668	223	C10H8FN2+
176.0509	95	C10H7FNO+
176.0747	113	C10H9FN2+
177.0464	6	C9H6FN2O+
177.0585	16	C10H8FNO+
178.0304	6	C9H5FNO2+
178.0659	15	C10H9FNO+
179.0379	25	C9H6FNO2+
179.0607	33	C9H8FN2O+
180.0457	155	C9H7FNO2+
180.0554	15	C11H6N3+
180.0684	20	C12H8N2+
181.0761	99	C12H9N2+
182.0603	32	C12H8NO+
182.0842	17	C12H10N2+
183.0554	14	C11H7N2O+
183.0682	4	C12H9NO+
183.0922	4	C12H11N2+
184.0558	29	C12H7FN+
184.0635	21	C11H8N2O+
185.0516	36	C11H6FN2+
185.0637	80	C12H8FN+
185.0714	30	C11H9N2O+
186.0589	50	C11H7FN2+
186.0714	30	C12H9FN+
187.0304	34	C10H4FN2O+
187.0429	47	C11H6FNO+
187.0668	134	C11H8FN2+
188.0145	96	C10H3FNO2+
188.0257	23	C9H3FN3O+
188.0383	7	C10H5FN2O+
188.0508	42	C11H7FNO+
188.0745	9	C11H9FN2+
189.0461	135	C10H6FN2O+
189.0825	20	C11H10FN2+
190.0412	23	C14H6O+
190.0665	4	C11H9FNO+
191.0614	9	C10H8FN2O+
193.0762	24	C13H9N2+
194.0613	7	C10H9FNO2+
195.0192	5	C11H3N2O2+
195.0309	15	
195.0556	31	C12H7N2O+
195.092	14	C13H11N2+
197.0711	20	C12H9N2O+
199.0668	20	C12H8FN2+
200.0507	56	C12H7FNO+
200.0747	23	C12H9FN2+
201.046	5	C11H6FN2O+
201.0588	68	C12H8FNO+
201.0823	94	C12H10FN2+
202.0306	5	C11H5FNO2+
202.0665	73	C12H9FNO+
202.0903	6	C12H11FN2+
203.0617	276	C11H8FN2O+
205.0767	24	C11H10FN2O+
206.0252	19	C10H5FNO3+
208.0871	20	C13H10N3+
209.0713	23	C13H9N2O+
211.0667	5	C13H8FN2+
215.0253	106	C11H4FN2O2+
215.0616	65	C12H8FN2O+
217.0412	7	C11H6FN2O2+
227.0622	7	C13H8FN2O+
229.0775	57	C13H10FN2O+
233.0362	15	C11H6FN2O3+
243.0568	6	C13H8FN2O2+
