Mass spectrum: Ditalimfos; LC-ESI-QFT; MS2; CE: 150%; R=17500; [M+H]+
Name: Ditalimfos
Name: 2-diethoxyphosphinothioylisoindole-1,3-dione
Formula: C12H14NO4PS
Exact mass: 299.0381
SMILES: CCOP(=S)(N1C(=O)C2=CC=CC=C2C1=O)OCC
InChI: InChI=1S/C12H14NO4PS/c1-3-16-18(19,17-4-2)13-11(14)9-7-5-6-8-10(9)12(13)15/h5-8H,3-4H2,1-2H3
Instrument: Exploris 240 Orbitrap Thermo Scientific
Instrument type: LC-ESI-QFT
Ms type: MS2
Ion mode: POSITIVE
Ionization: ESI
Fragmentation mode: HCD
Collision energy: 150 % (nominal)
Resolution: 17500
Column name: XBridge C18 3.5um, 2.1x50mm, Waters
Retention time: 9.578 min
Base peak: 170.0964
Precursor m/z: 300.0454
Precursor type: [M+H]+
m/z	relative intensity	assigned
50.0151	24	C4H2+
51.0229	411	C4H3+
52.0181	32	C3H2N+
64.9787	191	H2O2P+
65.0386	28	C5H5+
75.023	883	C6H3+
76.0182	244	C5H2N+
78.034	63	C5H4N+
78.9403	95	OPS+
92.0493	20	C6H6N+
96.9508	98	H2O2PS+
102.0339	999	C7H4N+
114.9615	36	H4O3PS+
120.0447	123	C7H6NO+
130.0288	120	C8H4NO+
