Mass spectrum: delta9-Tetrahydrocannabinol; LC-ESI-QFT; MS2; CE: 75; R=35000; [M+H]+
Name: delta9-Tetrahydrocannabinol
Name: delta9-THC
Name: 6,6,9-trimethyl-3-pentyl-6a,7,8,10a-tetrahydrobenzo[c]chromen-1-ol
Formula: C21H30O2
Exact mass: 314.22458
SMILES: CCCCCC1=CC2=C(C3C=C(CCC3C(O2)(C)C)C)C(=C1)O
InChI: InChI=1S/C21H30O2/c1-5-6-7-8-15-12-18(22)20-16-11-14(2)9-10-17(16)21(3,4)23-19(20)13-15/h11-13,16-17,22H,5-10H2,1-4H3
Instrument: Q Exactive Plus Orbitrap Thermo Scientific
Instrument type: LC-ESI-QFT
Ms type: MS2
Ion mode: POSITIVE
Ionization: ESI
Fragmentation mode: HCD
Collision energy: 75 (nominal)
Resolution: 35000
Column name: XBridge C18 3.5um, 2.1x50mm, Waters
Retention time: 17.8 min
Base peak: 391.2837
Precursor m/z: 315.2319
Precursor type: [M+H]+
m/z	relative intensity	assigned
50.0152	4	C4H2+
51.0229	2	C4H3+
52.0182	1	C3H2N+
52.0306	1	C4H4+
53.0023	26	C3HO+
53.0386	45	C4H5+
53.9975	6	C2NO+
55.0179	60	C3H3O+
55.0543	168	C4H7+
57.0335	5	C3H5O+
57.0699	51	C4H9+
59.0492	7	C3H7O+
65.0386	36	C5H5+
67.0543	306	C5H7+
67.9894	5	C3O2+
69.0336	32	C4H5O+
69.0699	378	C5H9+
71.0492	4	C4H7O+
71.0856	17	C5H11+
73.0649	3	C4H9O+
77.0385	35	C6H5+
78.0464	1	C6H6+
79.0543	255	C6H7+
80.0621	5	C6H8+
81.0335	27	C5H5O+
81.0699	354	C6H9+
83.0128	18	C4H3O2+
83.0492	40	C5H7O+
83.0856	5	C6H11+
85.0285	1	C4H5O2+
85.0648	1	C5H9O+
91.0543	317	C7H7+
92.0622	4	C7H8+
93.07	424	C7H9+
94.0415	3	C6H6O+
94.0778	5	C7H10+
95.0492	231	C6H7O+
95.0856	84	C7H11+
97.0286	5	C5H5O2+
97.0649	19	C6H9O+
97.1013	10	C7H13+
103.0543	13	C8H7+
105.0449	70	C6H5N2+
105.07	137	C8H9+
106.0779	1	C8H10+
107.0492	118	C7H7O+
107.0856	200	C8H11+
108.0571	7	C7H8O+
109.0286	15	C6H5O2+
109.0649	127	C7H9O+
109.1013	51	C8H13+
111.0441	32	C6H7O2+
115.0541	10	C9H7+
116.0622	5	C9H8+
117.0699	24	C9H9+
119.0493	8	C8H7O+
119.0605	21	C7H7N2+
119.0857	59	C9H11+
120.0572	1	C8H8O+
120.0934	9	C9H12+
121.0649	85	C8H9O+
121.1013	50	C9H13+
123.0441	999	C7H7O2+
124.052	7	C7H8O2+
125.0599	6	C7H9O2+
128.0623	12	C10H8+
129.07	17	C10H9+
130.0779	1	C10H10+
131.0492	8	C9H7O+
131.0856	28	C10H11+
132.0571	1	C9H8O+
133.0285	1	C8H5O2+
133.0649	24	C9H9O+
133.1013	15	C10H13+
135.0441	20	C8H7O2+
135.0805	20	C9H11O+
135.1169	20	C10H15+
136.052	33	C8H8O2+
137.0599	120	C8H9O2+
139.1116	3	C9H15O+
141.0699	9	C11H9+
142.0779	8	C11H10+
143.0857	16	C11H11+
144.0574	4	C10H8O+
144.0936	1	C11H12+
145.0648	10	C10H9O+
145.1012	13	C11H13+
146.0727	7	C10H10O+
147.0442	23	C9H7O2+
147.0805	16	C10H11O+
147.1171	5	C11H15+
148.052	6	C9H8O2+
149.0598	12	C9H9O2+
149.0962	10	C10H13O+
151.0756	9	C9H11O2+
152.0625	1	C12H8+
153.0699	1	C12H9+
155.0606	3	C10H7N2+
155.0856	5	C12H11+
156.0935	4	C12H12+
157.0651	4	C11H9O+
157.1013	8	C12H13+
158.0728	4	C11H10O+
159.0806	22	C11H11O+
159.1173	5	C12H15+
160.0521	23	C10H8O2+
160.0885	1	C11H12O+
161.0599	54	C10H9O2+
161.0963	9	C11H13O+
162.0674	6	C10H10O2+
163.0756	9	C10H11O2+
163.1119	3	C11H15O+
165.0702	1	C13H9+
165.0912	21	C10H13O2+
165.1275	3	C11H17O+
169.065	4	C12H9O+
169.076	2	C11H9N2+
169.1014	1	C13H13+
170.0725	1	C12H10O+
171.0805	15	C12H11O+
171.1171	1	C13H15+
172.0886	1	C12H12O+
173.0599	8	C11H9O2+
173.0965	4	C12H13O+
174.0677	50	C11H10O2+
175.0756	28	C11H11O2+
175.1119	5	C12H15O+
177.0913	6	C11H13O2+
177.1276	29	C12H17O+
183.0808	5	C13H11O+
184.0883	10	C13H12O+
185.0963	3	C13H13O+
187.0755	18	C12H11O2+
188.0834	14	C12H12O2+
189.091	5	C12H13O2+
189.1278	4	C13H17O+
191.1433	1	C13H19O+
193.1225	184	C12H17O2+
197.0963	3	C14H13O+
201.0912	7	C13H13O2+
202.0989	15	C13H14O2+
203.1074	1	C13H15O2+
203.1433	2	C14H19O+
205.1226	1	C13H17O2+
207.1382	5	C13H19O2+
211.1123	2	C15H15O+
215.1068	1	C14H15O2+
215.1435	1	C15H19O+
217.1226	23	C14H17O2+
225.1272	1	C16H17O+
229.1223	4	C15H17O2+
231.1383	38	C15H19O2+
233.1541	1	C15H21O2+
241.1589	4	C17H21O+
243.1384	4	C16H19O2+
244.1457	4	C16H20O2+
245.153	3	C16H21O2+
259.1695	12	C17H23O2+
