Mass spectrum: Flusilazole; LC-ESI-ITFT; MS2; CE: 75%; R=15000; [M+H]+
Name: Flusilazole
Name: bis(4-fluorophenyl)-methyl-(1,2,4-triazol-1-ylmethyl)silane
Formula: C16H15F2N3Si
Exact mass: 315.0998
SMILES: n1(cncn1)C[Si](c1ccc(F)cc1)(C)c1ccc(cc1)F
InChI: InChI=1S/C16H15F2N3Si/c1-22(12-21-11-19-10-20-21,15-6-2-13(17)3-7-15)16-8-4-14(18)5-9-16/h2-11H,12H2,1H3
Instrument: LTQ Orbitrap XL Thermo Scientific
Instrument type: LC-ESI-ITFT
Ms type: MS2
Ion mode: POSITIVE
Ionization: ESI
Fragmentation mode: HCD
Collision energy: 75 % (nominal)
Resolution: 15000
Column name: XBridge C18 3.5um, 2.1x50mm, Waters
Retention time: 12.4 min
Base peak: 316.1073
Precursor m/z: 316.1076
Precursor type: [M+H]+
m/z	relative intensity	assigned
53.0384	12	C4H5+
61.0103	15	CH5OSi+
63.0059	5	CH4FSi+
64.9853	23	FH2OSi+
65.0385	5	C5H5+
77.0385	262	C6H5+
79.0009	35	CH4FOSi+
79.0542	46	C6H7+
80.9967	11	CH3F2Si+
91.0542	130	C7H7+
95.049	34	C6H7O+
99.0072	9	CH5F2OSi+
103.0542	41	C8H7+
105.0447	62	C6H5N2+
105.0698	107	C3H8FN3+
109.0447	130	C2H5F2N3+
115.0541	42	C4H6FN3+
123.006	17	C6H4FSi+
125.0216	48	C6H6FSi+
127.0545	4	C10H7+
128.0621	13	C10H8+
129.0696	4	C5H8FN3+
139.054	16	C6H6FN3+
141.0165	75	CH5F2N3OSi+
141.0696	23	C6H8FN3+
143.0324	6	C6H8FOSi+
149.0217	14	C8H6FSi+
149.0414	5	C3H8FN3OSi+
151.0374	39	C8H8FSi+
151.054	16	C7H6FN3+
152.062	135	C12H8+
153.0697	74	C7H8FN3+
155.0603	13	C10H7N2+
155.0854	5	C7H10FN3+
157.0279	53	C7H7F2Si+
159.0604	14	C11H8F+
164.062	40	C13H8+
165.0698	999	C13H9+
166.0776	29	C8H9FN3+
167.0321	42	C3H7F2N3OSi+
168.0568	16	C7H7FN3O+
169.0478	72	C3H9F2N3OSi+
170.0525	41	C7H6F2N3+
171.0434	21	C8H9F2Si+
175.0221	10	C10H3F2N+
178.0775	46	C9H9FN3+
179.0599	5	C12H7N2+
179.0853	25	C9H10FN3+
181.0757	6	C12H9N2+
183.0603	135	C8H7F2N3+
184.0681	27	C8H8F2N3+
185.0759	126	C8H9F2N3+
187.0583	39	C11H11OSi+
196.0518	5	C10H10F2Si+
199.0377	22	C12H8FSi+
217.0282	9	C12H7F2Si+
217.0478	31	C15H9Si+
219.0434	150	C12H9F2Si+
227.0681	8	C9H11F2N3Si+
231.0437	8	C13H9F2Si+
232.0516	4	C13H10F2Si+
235.0381	33	C15H8FSi+
237.0539	21	C15H10FSi+
245.0587	4	C14H11F2Si+
245.0791	7	C12H12FN3Si+
247.0688	4	C15H11N2Si+
247.0802	6	C16H13NSi+
249.0538	6	C16H10FSi+
