Mass spectrum: 2-Hydroxybenzothiazole; LC-ESI-QFT; MS2; CE: 90; R=35000; [M+H]+
Name: 2-Hydroxybenzothiazole
Name: 2-Benzothiazolol
Name: 3H-1,3-benzothiazol-2-one
Formula: C7H5NOS
Exact mass: 151.00918
SMILES: C1=CC=C2C(=C1)NC(=O)S2
InChI: InChI=1S/C7H5NOS/c9-7-8-5-3-1-2-4-6(5)10-7/h1-4H,(H,8,9)
Instrument: Q Exactive Plus Orbitrap Thermo Scientific
Instrument type: LC-ESI-QFT
Ms type: MS2
Ion mode: POSITIVE
Ionization: ESI
Fragmentation mode: HCD
Collision energy: 90 (nominal)
Resolution: 35000
Column name: XBridge C18 3.5um, 2.1x50mm, Waters
Retention time: 6.4 min
Base peak: 152.0164
Precursor m/z: 152.0165
Precursor type: [M+H]+
m/z	relative intensity	assigned
51.0228	2	C4H3+
53.0386	13	C4H5+
63.0229	17	C5H3+
64.0181	1	C4H2N+
64.0306	3	C5H4+
65.0386	487	C5H5+
67.0416	1	C4H5N+
68.9793	19	C3HS+
78.0463	1	C6H6+
80.0494	999	C5H6N+
81.0335	10	C5H5O+
82.995	2	C4H3S+
90.0339	202	C6H4N+
91.0417	156	C6H5N+
92.0495	608	C6H6N+
92.9793	1	C5HS+
97.0107	176	C5H5S+
106.0287	1	C6H4NO+
106.995	13	C6H3S+
108.0027	10	C6H4S+
108.0443	5	C6H6NO+
109.0107	551	C6H5S+
110.0185	1	C6H6S+
119.0366	648	C7H5NO+
123.0138	2	C6H5NS+
124.0216	754	C6H6NS+
132.998	2	C7H3NS+
134.0059	88	C7H4NS+
135.0013	1	C6H3N2S+
136.0392	4	C7H6NO2+
146.0349	9	C7H4N3O+
150.0006	1	C7H4NOS+
151.0087	1	C7H5NOS+
152.0165	673	C7H6NOS+
