Mass spectrum: Cloethocarb; LC-ESI-QFT; MS2; CE: 30%; R=17500; [M+H]+
Name: Cloethocarb
Name: [2-(2-chloro-1-methoxyethoxy)phenyl] N-methylcarbamate
Formula: C11H14ClNO4
Exact mass: 259.0611
SMILES: CNC(=O)OC1=CC=CC=C1OC(CCl)OC
InChI: InChI=1S/C11H14ClNO4/c1-13-11(14)17-9-6-4-3-5-8(9)16-10(7-12)15-2/h3-6,10H,7H2,1-2H3,(H,13,14)
Instrument: Exploris 240 Orbitrap Thermo Scientific
Instrument type: LC-ESI-QFT
Ms type: MS2
Ion mode: POSITIVE
Ionization: ESI
Fragmentation mode: HCD
Collision energy: 30 % (nominal)
Resolution: 17500
Column name: XBridge C18 3.5um, 2.1x50mm, Waters
Retention time: 4.885 min
Base peak: 116.0528
Precursor m/z: 260.0684
Precursor type: [M+H]+
m/z	relative intensity	assigned
123.068	503	C7H9NO+
126.0102	26	C6H5ClN+
133.0523	60	C8H7NO+
143.0131	160	C6H6ClNO+
158.0365	119	C7H9ClNO+
170.0005	34	C7H5ClNO2+
171.0081	344	C7H6ClNO2+
179.0583	46	C9H9NO3+
186.0318	668	C8H9ClNO2+
197.0234	107	C9H8ClNO2+
214.0268	529	C9H9ClNO3+
242.0571	88	C11H13ClNO3+
260.0686	999	C11H15ClNO4+
