Mass spectrum: Alfuzosin; LC-ESI-QFT; MS2; CE: 150; R=35000; [M-H]-
Name: Alfuzosin
Name: N-{3-[(4-Amino-6,7-dimethoxy-2-quinazolinyl)(methyl)amino]propyl}tetrahydro-2-furancarboxamide
Name: N-[3-[(4-amino-6,7-dimethoxyquinazolin-2-yl)-methylamino]propyl]oxolane-2-carboxamide
Formula: C19H27N5O4
Exact mass: 389.20630
SMILES: CN(CCCNC(=O)C1CCCO1)C2=NC3=CC(=C(C=C3C(=N2)N)OC)OC
InChI: InChI=1S/C19H27N5O4/c1-24(8-5-7-21-18(25)14-6-4-9-28-14)19-22-13-11-16(27-3)15(26-2)10-12(13)17(20)23-19/h10-11,14H,4-9H2,1-3H3,(H,21,25)(H2,20,22,23)
Instrument: Q Exactive Plus Orbitrap Thermo Scientific
Instrument type: LC-ESI-QFT
Ms type: MS2
Ion mode: NEGATIVE
Ionization: ESI
Fragmentation mode: HCD
Collision energy: 150 (nominal)
Resolution: 35000
Column name: XBridge C18 3.5um, 2.1x50mm, Waters
Retention time: 5.3 min
Base peak: 434.2043
Precursor m/z: 388.199
Precursor type: [M-H]-
m/z	relative intensity	assigned
50.0036	165	C3N-
55.0302	585	C2H3N2-
62.0036	14	C4N-
63.0115	8	C4HN-
64.0067	30	C3N2-
64.0193	61	C4H2N-
65.0146	498	C3HN2-
65.9986	999	C3NO-
66.0098	197	C2N3-
67.0302	375	C3H3N2-
68.0142	18	C3H2NO-
69.0094	1	C2HN2O-
69.0348	2	C4H5O-
72.0092	6	C2H2NO2-
74.0037	30	C5N-
76.0194	95	C5H2N-
77.0146	101	C4HN2-
77.9986	2	C4NO-
78.0349	7	C5H4N-
79.0303	7	C4H3N2-
81.0458	8	C4H5N2-
84.0455	7	C4H6NO-
88.0068	2	C5N2-
88.0192	3	C6H2N-
89.0145	176	C5HN2-
89.9985	145	C5NO-
90.0097	171	C4N3-
90.0349	24	C6H4N-
91.0302	52	C5H3N2-
92.0142	84	C5H2NO-
92.0253	13	C4H2N3-
93.0094	60	C4HN2O-
94.0299	17	C5H4NO-
101.0145	2	C6HN2-
102.0097	2	C5N3-
102.0224	3	C6H2N2-
103.0063	11	C6HNO-
103.0302	6	C6H3N2-
104.0017	7	C5N2O-
104.0142	6	C6H2NO-
104.0381	3	C6H4N2-
105.0094	1	C5HN2O-
105.022	10	C6H3NO-
105.0333	6	C5H3N3-
105.0458	34	C6H5N2-
106.0172	18	C5H2N2O-
106.0289	9	C4H2N4-
106.041	3	C5H4N3-
107.0251	10	C5H3N2O-
107.0364	2	C4H3N4-
115.0302	20	C7H3N2-
116.0255	58	C6H2N3-
117.0095	57	C6HN2O-
118.0173	2	C6H2N2O-
118.0299	23	C7H4NO-
118.0412	35	C6H4N3-
119.0251	344	C6H3N2O-
120.0092	3	C6H2NO2-
120.0204	9	C5H2N3O-
120.0329	39	C6H4N2O-
121.0408	9	C6H5N2O-
129.0333	9	C7H3N3-
130.0172	109	C7H2N2O-
131.0251	14	C7H3N2O-
132.0204	6	C6H2N3O-
132.0329	34	C7H4N2O-
132.0568	2	C7H6N3-
133.0282	11	C6H3N3O-
133.0408	36	C7H5N2O-
134.0245	1	C7H4NO2-
134.0358	1	C6H4N3O-
142.0414	2	C8H4N3-
143.0251	14	C8H3N2O-
143.0364	20	C7H3N4-
144.0204	521	C7H2N3O-
145.0282	73	C7H3N3O-
145.0521	20	C7H5N4-
146.036	68	C7H4N3O-
147.0201	12	C7H3N2O2-
147.0437	5	C7H5N3O-
147.068	5	C7H7N4-
148.028	1	C7H4N2O2-
148.0518	2	C7H6N3O-
157.0282	19	C8H3N3O-
157.0519	11	C8H5N4-
158.0122	6	C8H2N2O2-
158.036	17	C8H4N3O-
158.0593	1	C8H6N4-
159.0203	3	C8H3N2O2-
159.0317	6	C7H3N4O-
160.0516	15	C8H6N3O-
171.0314	13	C8H3N4O-
172.039	15	C8H4N4O-
172.0515	2	C9H6N3O-
173.0468	25	C8H5N4O-
173.0835	6	C9H9N4-
174.0545	3	C8H6N4O-
175.0622	2	C8H7N4O-
185.0468	3	C9H5N4O-
186.0544	2	C9H6N4O-
199.0621	1	C10H7N4O-
201.0789	1	C10H9N4O-
