Mass spectrum: Flusilazole; LC-ESI-ITFT; MS2; CE: 60%; R=7500; [M+H]+
Name: Flusilazole
Name: bis(4-fluorophenyl)-methyl-(1,2,4-triazol-1-ylmethyl)silane
Formula: C16H15F2N3Si
Exact mass: 315.0998
SMILES: n1(cncn1)C[Si](c1ccc(F)cc1)(C)c1ccc(cc1)F
InChI: InChI=1S/C16H15F2N3Si/c1-22(12-21-11-19-10-20-21,15-6-2-13(17)3-7-15)16-8-4-14(18)5-9-16/h2-11H,12H2,1H3
Instrument: LTQ Orbitrap XL Thermo Scientific
Instrument type: LC-ESI-ITFT
Ms type: MS2
Ion mode: POSITIVE
Ionization: ESI
Fragmentation mode: HCD
Collision energy: 60 % (nominal)
Resolution: 7500
Column name: XBridge C18 3.5um, 2.1x50mm, Waters
Retention time: 12.4 min
Base peak: 316.1073
Precursor m/z: 316.1076
Precursor type: [M+H]+
m/z	relative intensity	assigned
53.0385	11	C4H5+
61.0104	9	CH5OSi+
64.9854	11	FH2OSi+
77.0386	220	C6H5+
79.001	59	CH4FOSi+
79.0542	20	C6H7+
80.9969	17	CH3F2Si+
91.0542	41	C7H7+
95.0492	23	C6H7O+
99.0075	14	CH5F2OSi+
103.0542	25	C8H7+
105.0446	43	C6H5N2+
105.0699	87	C8H9+
109.0449	35	C2H5F2N3+
115.0541	15	C4H6FN3+
125.0218	29	C6H6FSi+
128.062	9	C10H8+
141.0166	63	C6H6FOSi+
141.07	36	C11H9+
143.0327	5	C6H8FOSi+
149.0219	6	C8H6FSi+
151.0374	63	C8H8FSi+
152.0621	61	C12H8+
153.0699	67	C12H9+
155.0601	5	C10H7N2+
155.0858	6	C12H11+
157.028	59	C7H7F2Si+
159.0601	7	C6H7F2N3+
164.0625	9	C13H8+
165.07	999	C13H9+
166.0777	95	C13H10+
167.0321	16	C3H7F2N3OSi+
169.0478	135	C3H9F2N3OSi+
170.0523	7	C7H6F2N3+
171.0436	61	C8H9F2Si+
175.0205	5	C7H5N3OSi+
178.0777	29	C14H10+
179.0853	29	C9H10FN3+
181.0758	9	C12H9N2+
183.0604	68	C13H8F+
184.0685	7	C13H9F+
185.0761	197	C13H10F+
193.0756	6	C13H9N2+
199.0381	25	C12H8FSi+
217.0479	29	C12H10FOSi+
219.0436	165	C12H9F2Si+
227.0685	35	C9H11F2N3Si+
232.0512	14	C13H10F2Si+
235.0392	16	C12H9F2OSi+
237.054	27	C15H10FSi+
245.0788	18	C12H12FN3Si+
