Mass spectrum: Cilastatin; LC-ESI-ITFT; MS2; CE: 30%; R=15000; [M+H]+
Name: Cilastatin
Formula: C16H26N2O5S
Exact mass: 358.1562
SMILES: [H][C@](N)(CSCCCC\C=C(/NC(=O)[C@@]1([H])CC1(C)C)C(O)=O)C(O)=O
InChI: InChI=1S/C16H26N2O5S/c1-16(2)8-10(16)13(19)18-12(15(22)23)6-4-3-5-7-24-9-11(17)14(20)21/h6,10-11H,3-5,7-9,17H2,1-2H3,(H,18,19)(H,20,21)(H,22,23)/b12-6-/t10-,11+/m1/s1
Instrument: LTQ Orbitrap XL Thermo Scientific
Instrument type: LC-ESI-ITFT
Ms type: MS2
Ion mode: POSITIVE
Ionization: ESI
Fragmentation mode: HCD
Collision energy: 30 % (nominal)
Resolution: 15000
Column name: XBridge C18 3.5um, 2.1x50mm, Waters
Retention time: 5.2 min
Base peak: 359.1645
Precursor m/z: 359.1635
Precursor type: [M+H]+
m/z	relative intensity	assigned
55.0178	13	C3H3O+
67.0542	17	C5H7+
69.0698	117	C5H9+
79.0542	107	C6H7+
96.0807	7	C6H10N+
97.0648	999	C6H9O+
98.0963	72	C6H12N+
113.0418	57	C6H9S+
114.0912	7	C6H12NO+
115.0576	19	C6H11S+
122.0961	4	C8H12N+
130.0684	202	C6H12NS+
142.0862	20	C7H12NO2+
156.084	74	C8H14NS+
166.0859	11	C9H12NO2+
171.0943	4	C8H15N2S+
174.0581	32	C7H12NO2S+
182.0631	11	C9H12NOS+
184.0967	26	C9H14NO3+
194.1539	6	C12H20NO+
200.0738	49	C9H14NO2S+
202.0894	276	C9H16NO2S+
217.1003	11	C9H17N2O2S+
219.116	267	C9H19N2O2S+
220.1331	12	C13H18NO2+
238.1433	37	C13H20NO3+
245.095	23	C10H17N2O3S+
252.1051	7	C13H18NO2S+
263.106	45	C10H19N2O4S+
313.1572	10	C15H25N2O3S+
315.1735	29	C15H27N2O3S+
342.1361	11	C16H24NO5S+
359.1627	40	C16H27N2O5S+
