Mass spectrum: Anabaenopeptin NZ857; LC-ESI-QFT; MS2; CE: 30%; R=17500; [M+H]+
Name: Anabaenopeptin NZ857
Name: 2-[[12-butan-2-yl-3,9-bis[2-(4-hydroxyphenyl)ethyl]-7-methyl-2,5,8,11,14-pentaoxo-1,4,7,10,13-pentazacyclononadec-15-yl]carbamoylamino]-3-phenylpropanoic acid
Formula: C45H59N7O10
Exact mass: 857.4323
SMILES: CCC(C)C1C(=O)NC(C(=O)N(CC(=O)NC(C(=O)NCCCCC(C(=O)N1)NC(=O)NC(CC2=CC=CC=C2)C(=O)O)CCC3=CC=C(C=C3)O)C)CCC4=CC=C(C=C4)O
InChI: InChI=1S/C45H59N7O10/c1-4-28(2)39-42(58)48-36(24-18-30-15-21-33(54)22-16-30)43(59)52(3)27-38(55)47-35(23-17-29-13-19-32(53)20-14-29)40(56)46-25-9-8-12-34(41(57)51-39)49-45(62)50-37(44(60)61)26-31-10-6-5-7-11-31/h5-7,10-11,13-16,19-22,28,34-37,39,53-54H,4,8-9,12,17-18,23-27H2,1-3H3,(H,46,56)(H,47,55)(H,48,58)(H,51,57)(H,60,61)(H2,49,50,62)
Instrument: Q Exactive Plus Orbitrap Thermo Scientific
Instrument type: LC-ESI-QFT
Ms type: MS2
Ion mode: POSITIVE
Ionization: ESI
Fragmentation mode: HCD
Collision energy: 30 % (nominal)
Resolution: 17500
Column name: XBridge C18 3.5um, 2.1x50mm, Waters
Retention time: 7.905 min
Base peak: 164.9845
Precursor m/z: 858.4396
Precursor type: [M+H]+
m/z	relative intensity	assigned
84.0808	999	C5H10N+
86.06	88	C4H8NO+
86.0966	8	C5H12N+
107.0498	6	C7H7O+
114.0549	304	C5H8NO2+
120.0804	23	C8H10N+
129.102	33	C6H13N2O+
136.0757	7	C8H10NO+
147.1125	5	C6H15N2O2+
150.0912	20	C9H12NO+
155.0811	5	C7H11N2O2+
169.1329	7	C9H17N2O+
173.092	6	C7H13N2O3+
176.1071	5	C11H14NO+
182.0811	8	C9H12NO3+
190.1226	16	C12H16NO+
197.1652	8	C11H21N2O+
199.144	5	C10H19N2O2+
204.1383	8	C13H18NO+
205.1338	67	C12H17N2O+
214.1927	5	C13H26O2+
218.1533	2	C14H20NO+
224.176	3	C12H22N3O+
231.1498	120	H21N7O7+
233.1292	117	C13H17N2O2+
235.1447	3	C13H19N2O2+
240.1715	29	C14H24O3+
246.1139	4	C2H20N3O10+
247.109	5	CH19N4O10+
249.1242	52	C13H17N2O3+
249.1635	5	C19H21+
250.1555	7	C13H20N3O2+
252.1397	3	C5H22N3O8+
258.1455	2	C11H20N3O4+
261.1611	8	C3H25N4O9+
263.1401	83	H21N7O9+
263.1761	34	CH25N7O8+
268.1665	15	C15H24O4+
274.1564	8	C17H22O3+
275.1044	18	C15H11N6+
277.1561	6	C3H25N4O10+
285.1937	5	C15H27NO4+
286.1786	11	C16H22N4O+
291.1716	31	C4H27N4O10+
292.1309	10	C16H20O5+
294.1823	9	C17H26O4+
303.2093	6	C8H33NO10+
308.1641	5	C20H22NO2+
311.1413	16	C6H23N4O10+
311.21	10	C3H31N6O10+
316.2049	18	C8H32N2O10+
320.1631	64	C19H20N4O+
325.2264	8	C19H27N5+
331.2046	9	C22H25N3+
336.1576	13	C19H20N4O2+
337.1929	10	C9H29N4O9+
346.2166	4	C24H28NO+
350.1736	7	C20H22N4O2+
351.1727	7	C24H21N3+
353.2226	28	C8H31N7O8+
361.2654	11	C13H37N4O7+
362.2106	5	C22H26N4O+
363.2095	6	C13H33NO10+
365.1901	11	C27H25O+
376.2278	95	C11H32N6O8+
379.2394	31	C12H35N4O9+
381.2218	10	C14H31N5O7+
387.2097	5	C15H33NO10+
387.2456	61	C14H35N4O8+
389.2606	4	C14H37N4O8+
397.2272	4	C27H29N2O+
401.2607	16	C15H37N4O8+
405.219	202	C13H33N4O10+
410.213	9	C16H32N3O9+
412.2298	8	C17H30N7O5+
417.2562	69	C17H39NO10+
431.2363	5	C32H31O+
432.2669	3	C15H38N5O9+
433.2503	10	C15H37N4O10+
437.2265	12	C34H29+
445.2525	9	C33H33O+
446.3205	20	C20H42N6O5+
449.2482	18	C18H35N5O8+
452.2284	3	C23H34NO8+
455.2364	33	C34H31O+
456.3039	5	C20H44N2O9+
457.2876	5	C20H43NO10+
458.2836	19	C19H42N2O10+
463.2609	18	C29H31N6+
465.2157	10	C28H27N5O2+
472.2928	58	C27H40N2O5+
474.3068	15	C25H40N5O4+
483.2247	40	C27H33NO7+
493.2792	5	C26H35N7O3+
494.265	7	C28H36N3O5+
497.2735	7	C24H39N3O8+
499.3023	3	C26H39N6O4+
500.2861	36	C26H38N5O5+
502.3002	23	C23H42N4O8+
518.2975	18	C26H40N5O6+
519.2963	7	C30H39N4O4+
522.2685	6	C25H38N4O8+
530.2945	4	C24H42N4O9+
534.2937	5	C28H42N2O8+
540.2818	103	C28H38N5O6+
543.3286	18	C28H43N6O5+
548.3238	13	C33H44N2O5+
550.2946	13	C36H40NO4+
564.3179	114	C31H42N5O5+
566.334	14	C31H44N5O5+
568.2751	57	C41H34N3+
592.3129	6	C32H42N5O6+
596.307	17	C45H40O+
610.3224	17	C44H40N3+
623.3887	6	C31H53N5O8+
635.3541	8	C33H51N2O10+
649.3706	75	C35H49N6O6+
651.3874	26	C37H53N3O7+
653.3651	6	C34H49N6O7+
659.3549	13	C36H47N6O6+
663.3474	6	C32H49N5O10+
677.3684	4	C39H47N7O4+
681.358	28	C45H43N7+
695.3767	6	C36H51N6O8+
