Mass spectrum: N-desmethylpheniramine; LC-ESI-QFT; MS2; CE: 150; R=35000; [M+H]+
Name: N-desmethylpheniramine
Name: N-methyl-3-phenyl-3-pyridin-2-ylpropan-1-amine
Formula: C15H18N2
Exact mass: 226.14700
SMILES: CNCCC(C1=CC=CC=C1)C2=CC=CC=N2
InChI: InChI=1S/C15H18N2/c1-16-12-10-14(13-7-3-2-4-8-13)15-9-5-6-11-17-15/h2-9,11,14,16H,10,12H2,1H3
Instrument: Q Exactive Plus Orbitrap Thermo Scientific
Instrument type: LC-ESI-QFT
Ms type: MS2
Ion mode: POSITIVE
Ionization: ESI
Fragmentation mode: HCD
Collision energy: 150 (nominal)
Resolution: 35000
Column name: XBridge C18 3.5um, 2.1x50mm, Waters
Retention time: 3.6 min
Base peak: 227.154
Precursor m/z: 227.1543
Precursor type: [M+H]+
m/z	relative intensity	assigned
50.0151	9	C4H2+
51.0229	11	C4H3+
52.0182	1	C3H2N+
53.0022	3	C3HO+
53.0386	7	C4H5+
62.015	2	C5H2+
63.0229	15	C5H3+
64.0308	1	C5H4+
65.0386	188	C5H5+
66.0464	12	C5H6+
67.0416	2	C4H5N+
74.0149	1	C6H2+
75.0229	6	C6H3+
77.0385	10	C6H5+
78.0338	43	C5H4N+
79.0416	7	C5H5N+
80.0494	4	C5H6N+
88.0307	3	C7H4+
89.0385	49	C7H5+
90.0464	57	C7H6+
91.0542	282	C7H7+
92.0494	11	C6H6N+
93.0573	37	C6H7N+
94.0651	2	C6H8N+
95.0365	3	C5H5NO+
95.0491	16	C6H7O+
96.0444	44	C5H6NO+
102.0463	5	C8H6+
103.0542	5	C8H7+
104.0494	13	C7H6N+
105.0447	7	C6H5N2+
110.06	9	C6H8NO+
113.0385	5	C9H5+
114.0464	11	C9H6+
115.0542	119	C9H7+
116.0495	11	C8H6N+
116.062	3	C9H8+
117.0573	245	C8H7N+
118.0651	461	C8H8N+
119.0491	3	C8H7O+
119.073	3	C8H9N+
126.0464	4	C10H6+
127.0414	2	C9H5N+
127.0542	3	C10H7+
128.0494	27	C9H6N+
128.0621	7	C10H8+
129.0446	9	C8H5N2+
130.0652	3	C9H8N+
132.057	5	C9H8O+
134.0601	3	C8H8NO+
139.0542	396	C11H7+
140.0495	112	C10H6N+
140.0619	96	C11H8+
141.0574	8	C10H7N+
141.0699	11	C11H9+
145.0645	2	C10H9O+
146.0598	4	C9H8NO+
152.062	23	C12H8+
153.0697	2	C12H9+
154.0651	3	C11H8N+
155.0604	2	C10H7N2+
164.0495	5	C12H6N+
165.0574	8	C12H7N+
165.07	6	C13H9+
166.0651	604	C12H8N+
167.0729	999	C12H9N+
168.0807	17	C12H10N+
169.0646	2	C12H9O+
178.0651	4	C13H8N+
179.0727	5	C13H9N+
180.0807	23	C13H10N+
184.0756	9	C12H10NO+
191.0728	6	C14H9N+
192.0807	16	C14H10N+
193.0886	19	C14H11N+
194.0965	16	C14H12N+
