Mass spectrum: Metoprolol; LC-ESI-ITFT; MS2; CE: 90%; R=7500; [M+H]+
Name: Metoprolol
Name: 1-(isopropylamino)-3-[4-(2-methoxyethyl)phenoxy]propan-2-ol
Formula: C15H25NO3
Exact mass: 267.1834
SMILES: COCCC1=CC=C(OCC(O)CNC(C)C)C=C1
InChI: InChI=1S/C15H25NO3/c1-12(2)16-10-14(17)11-19-15-6-4-13(5-7-15)8-9-18-3/h4-7,12,14,16-17H,8-11H2,1-3H3
Instrument: LTQ Orbitrap XL Thermo Scientific
Instrument type: LC-ESI-ITFT
Ms type: MS2
Ion mode: POSITIVE
Ionization: ESI
Fragmentation mode: HCD
Collision energy: 90 % (nominal)
Resolution: 7500
Column name: XBridge C18 3.5um, 2.1x50mm, Waters
Retention time: 5.1 min
Base peak: 268.1916
Precursor m/z: 268.1907
Precursor type: [M+H]+
m/z	relative intensity	assigned
53.0383	29	C4H5+
56.0494	314	C3H6N+
58.0651	80	C3H8N+
72.0807	146	C4H10N+
74.0601	386	C3H8NO+
77.0386	215	C6H5+
79.0542	259	C6H7+
84.0807	45	C5H10N+
91.0542	443	C7H7+
93.0699	159	C7H9+
98.0964	41	C6H12N+
100.1121	62	C6H14N+
103.0542	999	C8H7+
104.0619	28	C8H8+
105.0446	52	C6H5N2+
105.0698	577	C8H9+
107.0496	42	C7H7O+
115.0539	83	C9H7+
116.0623	81	C9H8+
116.1065	23	C6H14NO+
119.0856	25	C9H11+
120.0575	24	C8H8O+
121.0647	457	C8H9O+
129.07	52	C10H9+
131.0486	27	C9H7O+
131.0854	71	C10H11+
133.0648	312	C9H9O+
135.0807	52	C9H11O+
144.0568	128	C10H8O+
148.0761	94	C9H10NO+
159.0801	21	C11H11O+
163.0861	78	C9H11N2O+
