Mass spectrum: 2',3'-di-O-acetyl-5'-deoxy-5-fluorocytidine; LC-ESI-ITFT; MS2; CE: 35%; R=7500; [M+H]+
Name: 2',3'-di-O-acetyl-5'-deoxy-5-fluorocytidine
Formula: C13H16FN3O6
Exact mass: 329.1023
SMILES: FC=1\C(=N/C(=O)N(C=1)[C@@H]2O[C@@H]([C@@H](OC(=O)C)[C@H]2OC(=O)C)C)\N
InChI: InChI=1S/C13H16FN3O6/c1-5-9(22-6(2)18)10(23-7(3)19)12(21-5)17-4-8(14)11(15)16-13(17)20/h4-5,9-10,12H,1-3H3,(H2,15,16,20)/t5-,9-,10-,12-/m1/s1
Instrument: LTQ Orbitrap XL Thermo Scientific
Instrument type: LC-ESI-ITFT
Ms type: MS2
Ion mode: POSITIVE
Ionization: ESI
Fragmentation mode: CID
Collision energy: 35 % (nominal)
Resolution: 7500
Column name: XBridge C18 3.5um, 2.1x50mm, Waters
Retention time: 5.2 min
Base peak: 201.0762
Precursor m/z: 330.1096
Precursor type: [M+H]+
m/z	relative intensity	assigned
99.044	242	C5H7O2+
130.041	135	C4H5FN3O+
141.0545	107	C7H9O3+
201.0758	999	C9H13O5+
