Mass spectrum: Venlafaxine N-Oxide; LC-ESI-QFT; MS2; CE: 60; R=35000; [M+H]+
Name: Venlafaxine N-Oxide
Name: 2-(1-hydroxycyclohexyl)-2-(4-methoxyphenyl)-N,N-dimethylethanamine oxide
Formula: C17H27NO3
Exact mass: 293.19909
SMILES: OC1(C(C2=CC=C(OC)C=C2)C[N+](C)(C)[O-])CCCCC1
InChI: InChI=1S/C17H27NO3/c1-18(2,20)13-16(17(19)11-5-4-6-12-17)14-7-9-15(21-3)10-8-14/h7-10,16,19H,4-6,11-13H2,1-3H3
Instrument: Q Exactive Plus Orbitrap Thermo Scientific
Instrument type: LC-ESI-QFT
Ms type: MS2
Ion mode: POSITIVE
Ionization: ESI
Fragmentation mode: HCD
Collision energy: 60 (nominal)
Resolution: 35000
Column name: XBridge C18 3.5um, 2.1x50mm, Waters
Retention time: 6.6 min
Base peak: 294.206
Precursor m/z: 294.2064
Precursor type: [M+H]+
m/z	relative intensity	assigned
53.0386	1	C4H5+
55.0542	1	C4H7+
58.0651	3	C3H8N+
62.06	9	C2H8NO+
69.0698	1	C5H9+
77.0384	3	C6H5+
78.0462	3	C6H6+
79.0542	4	C6H7+
81.0698	25	C6H9+
91.0542	13	C7H7+
93.0699	2	C7H9+
95.0491	3	C6H7O+
99.0804	20	C6H11O+
103.054	1	C8H7+
105.0447	2	C6H5N2+
105.0698	5	C8H9+
106.0411	1	C7H6O+
107.0857	1	C8H11+
109.0646	1	C7H9O+
120.0571	1	C8H8O+
121.0647	999	C8H9O+
132.0566	1	C9H8O+
133.0644	1	C9H9O+
135.0803	21	C9H11O+
146.0964	2	C10H12N+
147.0803	14	C10H11O+
147.1042	4	C10H13N+
148.0756	4	C9H10NO+
158.0726	1	C11H10O+
159.0804	4	C11H11O+
163.099	13	C10H13NO+
173.096	5	C12H13O+
178.1225	10	C11H16NO+
