Mass spectrum: Flunixine; LC-ESI-QFT; MS2; CE: 90; R=35000; [M-H]-
Name: Flunixine
Name: Banamine
Name: 2-[2-methyl-3-(trifluoromethyl)anilino]pyridine-3-carboxylic acid
Formula: C14H11F3N2O2
Exact mass: 296.07726
SMILES: CC1=C(C=CC=C1NC2=C(C=CC=N2)C(=O)O)C(F)(F)F
InChI: InChI=1S/C14H11F3N2O2/c1-8-10(14(15,16)17)5-2-6-11(8)19-12-9(13(20)21)4-3-7-18-12/h2-7H,1H3,(H,18,19)(H,20,21)
Instrument: Q Exactive Plus Orbitrap Thermo Scientific
Instrument type: LC-ESI-QFT
Ms type: MS2
Ion mode: NEGATIVE
Ionization: ESI
Fragmentation mode: HCD
Collision energy: 90 (nominal)
Resolution: 35000
Column name: XBridge C18 3.5um, 2.1x50mm, Waters
Retention time: 11.0 min
Base peak: 295.0694
Precursor m/z: 295.07
Precursor type: [M-H]-
m/z	relative intensity	assigned
50.0036	8	C3N-
64.0193	6	C4H2N-
65.0144	1	C3HN2-
66.035	7	C4H4N-
68.9958	30	CF3-
76.0193	9	C5H2N-
87.0241	1	C7H3-
88.0191	3	C6H2N-
90.035	1	C6H4N-
91.0302	15	C5H3N2-
93.0457	14	C5H5N2-
107.0303	3	C7H4F-
113.027	1	C8H3N-
114.0349	242	C8H4N-
115.0302	6	C7H3N2-
117.046	2	C7H5N2-
132.0253	1	C8H3FN-
134.0411	72	C8H5FN-
138.035	9	C10H4N-
139.0299	2	C9H3N2-
140.0506	16	C10H6N-
141.0459	54	C9H5N2-
142.0535	5	C9H6N2-
154.0474	2	C8H6F2N-
155.0381	5	C10H5NO-
162.0348	2	C12H4N-
163.03	1	C11H3N2-
163.0429	6	C12H5N-
164.0506	165	C12H6N-
165.0457	145	C11H5N2-
166.0536	63	C11H6N2-
169.0407	7	C10H5N2O-
174.0349	33	C13H4N-
175.0304	6	C12H3N2-
176.0381	6	C12H4N2-
178.0539	1	C12H6N2-
180.033	1	C11H4N2O-
182.0413	2	C12H5FN-
182.0488	4	C11H6N2O-
183.0362	2	C11H4FN2-
184.0567	137	C12H7FN-
185.0522	2	C11H6FN2-
189.0459	370	C13H5N2-
190.0537	279	C13H6N2-
191.0615	770	C13H7N2-
193.0405	18	C12H5N2O-
194.0411	51	C13H5FN-
194.0487	4	C12H6N2O-
195.0363	18	C12H4FN2-
196.0443	12	C12H5FN2-
200.039	6	C11H5FN2O-
206.0487	3	C13H6N2O-
208.0274	4	C12H4N2O2-
209.0521	999	C13H6FN2-
210.06	10	C13H7FN2-
211.0677	65	C13H8FN2-
214.0472	2	C13H6F2N-
215.0424	1	C12H5F2N2-
216.0505	14	C12H6F2N2-
222.0728	2	C12H10F2NO-
224.0693	22	C12H9F3N-
225.0474	3	C13H6FN2O-
228.034	9	C12H5FN2O2-
229.0582	32	C13H7F2N2-
230.0666	5	C13H8F2N2-
231.074	15	C13H9F2N2-
234.0535	12	C13H7F3N-
235.0485	11	C12H6F3N2-
249.0645	14	C13H8F3N2-
251.0801	2	C13H10F3N2-
