Mass spectrum: Proquinazid; LC-ESI-QFT; MS2; CE: 75; R=35000; [M+H]+
Name: Proquinazid
Name: 6-Iodo-2-propoxy-3-propylquinazolin-4-one
Formula: C14H17IN2O2
Exact mass: 372.03348
SMILES: CCCN1C(=O)C2=C(C=CC(=C2)I)N=C1OCCC
InChI: InChI=1S/C14H17IN2O2/c1-3-7-17-13(18)11-9-10(15)5-6-12(11)16-14(17)19-8-4-2/h5-6,9H,3-4,7-8H2,1-2H3
Instrument: Q Exactive Plus Orbitrap Thermo Scientific
Instrument type: LC-ESI-QFT
Ms type: MS2
Ion mode: POSITIVE
Ionization: ESI
Fragmentation mode: HCD
Collision energy: 75 (nominal)
Resolution: 35000
Column name: XBridge C18 3.5um, 2.1x50mm, Waters
Retention time: 16.6 min
Base peak: 373.0401
Precursor m/z: 373.0408
Precursor type: [M+H]+
m/z	relative intensity	assigned
53.0022	2	C3HO+
62.0149	6	C5H2+
65.026	1	C4H3N+
66.01	3	C4H2O+
79.0416	1	C5H5N+
88.0181	4	C6H2N+
89.0259	15	C6H3N+
91.0417	15	C6H5N+
92.0257	20	C6H4O+
93.0209	2	C5H3NO+
116.037	25	C7H4N2+
117.021	109	C7H3NO+
118.0525	1	C7H6N2+
119.0367	126	C7H5NO+
121.0159	6	C6H3NO2+
135.0315	6	C7H5NO2+
137.0473	55	C7H7NO2+
144.032	25	C8H4N2O+
145.016	248	C8H3NO2+
146.0238	6	C8H4NO2+
148.003	3	C7H2NO3+
151.0629	2	C8H9NO2+
162.0425	186	C8H6N2O2+
163.0263	1	C8H5NO3+
164.9194	1	C3H2I+
176.0218	12	C8H4N2O3+
177.0058	166	
186.0787	2	C11H10N2O+
188.9198	2	C5H2I+
190.9357	1	C5H4I+
194.0324	74	
215.9307	972	C6H3IN+
217.9464	16	C6H5IN+
242.9416	39	C7H4IN2+
245.9413	6	C7H5INO+
270.9365	118	C8H4IN2O+
271.9204	999	C8H3INO2+
288.947	105	C8H6IN2O2+
289.931	6	C8H5INO3+
302.9625	2	C9H8IN2O2+
303.9468	11	C9H7INO3+
