Mass spectrum: Corticosterone; LC-ESI-QFT; MS2; CE: 60; R=35000; [M+H]+
Name: Corticosterone
Name: 11b,21-Dihydroxyprogesterone
Name: (8S,9S,10R,11S,13S,14S,17S)-11-hydroxy-17-(2-hydroxyacetyl)-10,13-dimethyl-1,2,6,7,8,9,11,12,14,15,16,17-dodecahydrocyclopenta[a]phenanthren-3-one
Formula: C21H30O4
Exact mass: 346.21441
SMILES: O=C4\C=C2/[C@]([C@H]1[C@@H](O)C[C@@]3([C@@H](C(=O)CO)CC[C@H]3[C@@H]1CC2)C)(C)CC4
InChI: InChI=1S/C21H30O4/c1-20-8-7-13(23)9-12(20)3-4-14-15-5-6-16(18(25)11-22)21(15,2)10-17(24)19(14)20/h9,14-17,19,22,24H,3-8,10-11H2,1-2H3/t14-,15-,16+,17-,19+,20-,21-/m0/s1
Instrument: Q Exactive Plus Orbitrap Thermo Scientific
Instrument type: LC-ESI-QFT
Ms type: MS2
Ion mode: POSITIVE
Ionization: ESI
Fragmentation mode: HCD
Collision energy: 60 (nominal)
Resolution: 35000
Column name: XBridge C18 3.5um, 2.1x50mm, Waters
Retention time: 8.9 min
Base peak: 347.2214
Precursor m/z: 347.2217
Precursor type: [M+H]+
m/z	relative intensity	assigned
51.0228	2	C4H3+
53.0022	6	C3HO+
53.0385	19	C4H5+
55.0178	60	C3H3O+
55.0542	113	C4H7+
57.0335	13	C3H5O+
57.0699	4	C4H9+
59.0491	2	C3H7O+
61.0284	16	C2H5O2+
63.0227	2	C5H3+
65.0385	16	C5H5+
67.0542	169	C5H7+
67.9892	1	C3O2+
69.0335	56	C4H5O+
69.0699	75	C5H9+
71.0491	25	C4H7O+
77.0385	20	C6H5+
79.0542	356	C6H7+
81.0699	286	C6H9+
83.0491	229	C5H7O+
85.0648	9	C5H9O+
87.0441	58	C4H7O2+
91.0542	363	C7H7+
93.0699	432	C7H9+
95.0491	79	C6H7O+
95.0855	324	C7H11+
97.0648	634	C6H9O+
99.0441	24	C5H7O2+
99.0801	1	C6H11O+
101.0597	30	C5H9O2+
103.0542	20	C8H7+
104.0618	1	C8H8+
105.0699	565	C8H9+
106.0775	2	C8H10+
107.0491	71	C7H7O+
107.0855	388	C8H11+
108.0569	3	C7H8O+
109.0648	364	C7H9O+
109.1012	45	C8H13+
111.044	34	C6H7O2+
111.0804	17	C7H11O+
113.0598	2	C6H9O2+
115.0542	36	C9H7+
116.0621	10	C9H8+
117.0699	181	C9H9+
118.0774	1	C9H10+
119.0855	407	C9H11+
121.0648	999	C8H9O+
121.1012	85	C9H13+
123.0804	483	C8H11O+
125.0597	2	C7H9O2+
125.0958	1	C8H13O+
126.0459	1	C10H6+
127.0753	5	C7H11O2+
128.0619	56	C10H8+
129.0699	139	C10H9+
130.0777	29	C10H10+
131.0855	337	C10H11+
132.057	5	C9H8O+
132.0932	4	C10H12+
133.0648	51	C9H9O+
133.1012	280	C10H13+
134.0724	2	C9H10O+
135.0804	159	C9H11O+
135.1168	54	C10H15+
137.0595	2	C8H9O2+
137.0961	28	C9H13O+
139.0751	6	C8H11O2+
141.0698	54	C11H9+
142.0777	97	C11H10+
143.0856	264	C11H11+
144.0569	1	C10H8O+
144.0935	25	C11H12+
145.0648	32	C10H9O+
145.1012	372	C11H13+
146.0728	11	C10H10O+
146.1089	5	C11H14+
147.0804	136	C10H11O+
147.1168	154	C11H15+
148.088	18	C10H12O+
149.0961	62	C10H13O+
149.1323	19	C11H17+
151.0755	1	C9H11O2+
151.1117	3	C10H15O+
153.0696	13	C12H9+
153.0909	8	C9H13O2+
154.0778	28	C12H10+
155.0855	127	C12H11+
156.0934	124	C12H12+
157.1012	252	C12H13+
158.0727	8	C11H10O+
158.1092	15	C12H14+
159.0805	66	C11H11O+
159.1168	200	C12H15+
160.0881	10	C11H12O+
160.1244	2	C12H16+
161.0961	105	C11H13O+
161.1325	37	C12H17+
162.1039	5	C11H14O+
163.1117	224	C11H15O+
165.0697	21	C13H9+
165.0909	2	C10H13O2+
166.0779	9	C13H10+
167.0855	46	C13H11+
168.0934	42	C13H12+
169.1012	156	C13H13+
170.0722	2	C12H10O+
170.1091	14	C13H14+
171.0806	19	C12H11O+
171.1168	172	C13H15+
172.0883	3	C12H12O+
172.1247	7	C13H16+
173.0961	65	C12H13O+
173.1325	61	C13H17+
174.104	8	C12H14O+
175.1118	86	C12H15O+
175.1482	5	C13H19+
176.1196	8	C12H16O+
177.1275	20	C12H17O+
178.0777	7	C14H10+
179.0855	31	C14H11+
180.0933	21	C14H12+
181.1012	82	C14H13+
182.0728	2	C13H10O+
182.109	39	C14H14+
183.1168	102	C14H15+
184.0889	1	C13H12O+
184.1247	10	C14H16+
185.0962	21	C13H13O+
185.1325	76	C14H17+
186.1039	2	C13H14O+
186.1403	9	C14H18+
187.1116	38	C13H15O+
187.1481	28	C14H19+
188.1195	5	C13H16O+
189.1273	47	C13H17O+
191.0856	3	C15H11+
191.107	1	C12H15O2+
192.0929	10	C15H12+
193.1012	35	C15H13+
193.1225	1	C12H17O2+
194.109	25	C15H14+
195.1168	81	C15H15+
196.0884	3	C14H12O+
196.1246	18	C15H16+
197.0964	12	C14H13O+
197.1325	79	C15H17+
198.104	5	C14H14O+
198.1402	2	C15H18+
199.1117	21	C14H15O+
199.1483	25	C15H19+
200.1195	5	C14H16O+
201.1274	32	C14H17O+
201.1638	6	C15H21+
203.0851	1	C16H11+
203.143	9	C14H19O+
204.0933	3	C16H12+
205.1013	17	C16H13+
206.1093	10	C16H14+
207.1169	32	C16H15+
208.1247	21	C16H16+
209.1326	62	C16H17+
210.1039	2	C15H14O+
210.1404	10	C16H18+
211.1118	25	C15H15O+
211.1482	40	C16H19+
212.1194	7	C15H16O+
212.1556	1	C16H20+
213.1274	23	C15H17O+
213.164	15	C16H21+
214.1351	9	C15H18O+
215.1426	13	C15H19O+
217.1012	2	C17H13+
217.1224	1	C14H17O2+
217.1589	1	C15H21O+
218.1088	7	C17H14+
219.1168	12	C17H15+
220.1246	13	C17H16+
221.0957	1	C16H13O+
221.1325	23	C17H17+
222.103	4	C16H14O+
222.1403	7	C17H18+
223.1121	11	C16H15O+
223.1481	38	C17H19+
224.1193	4	C16H16O+
224.1555	2	C17H20+
225.1275	16	C16H17O+
225.1639	24	C17H21+
226.1355	6	C16H18O+
226.1718	2	C17H22+
227.1431	25	C16H19O+
227.1794	3	C17H23+
228.1509	11	C16H20O+
229.1586	17	C16H21O+
231.1165	8	C18H15+
232.1245	5	C18H16+
233.1324	12	C18H17+
234.1402	5	C18H18+
235.1114	1	C17H15O+
235.1483	22	C18H19+
236.1198	5	C17H16O+
236.156	7	C18H20+
237.1274	9	C17H17O+
237.1639	19	C18H21+
238.1352	2	C17H18O+
239.1429	18	C17H19O+
240.1506	5	C17H20O+
241.1587	13	C17H21O+
242.1658	2	C17H22O+
243.1746	2	C17H23O+
245.1329	10	C19H17+
245.1533	1	C16H21O2+
246.1399	5	C19H18+
247.1482	6	C19H19+
249.1632	9	C19H21+
250.1343	3	C18H18O+
251.1429	8	C18H19O+
251.1791	8	C19H23+
252.1508	1	C18H20O+
252.1875	1	C19H24+
253.1587	16	C18H21O+
253.1949	6	C19H25+
254.1664	7	C18H22O+
255.1375	2	C17H19O2+
255.1744	10	C18H23O+
263.1432	2	C19H19O+
263.179	1	C20H23+
265.1584	8	C19H21O+
265.1953	2	C20H25+
267.1742	10	C19H23O+
269.1892	7	C19H25O+
271.1695	1	C18H23O2+
275.1794	4	C21H23+
278.1664	3	C20H22O+
283.1691	6	C19H23O2+
293.1902	2	C21H25O+
296.1766	1	C20H24O2+
299.1644	14	C19H23O3+
314.1874	2	C20H26O3+
