Mass spectrum: Imidacloprid; LC-ESI-ITFT; MS2; CE: 90%; R=15000; [M+H]+
Name: Imidacloprid
Name: N-[1-[(6-chloranylpyridin-3-yl)methyl]-4,5-dihydroimidazol-2-yl]nitramide
Formula: C9H10ClN5O2
Exact mass: 255.0523
SMILES: Cl-c(ncc1CN(CC2)C(N2)=NN(=O)=O)cc1
InChI: InChI=1S/C9H10ClN5O2/c10-8-2-1-7(5-12-8)6-14-4-3-11-9(14)13-15(16)17/h1-2,5H,3-4,6H2,(H,11,13)
Instrument: LTQ Orbitrap XL Thermo Scientific
Instrument type: LC-ESI-ITFT
Ms type: MS2
Ion mode: POSITIVE
Ionization: ESI
Fragmentation mode: HCD
Collision energy: 90 % (nominal)
Resolution: 15000
Column name: XBridge C18 3.5um, 2.1x50mm, Waters
Retention time: 4.8 min
Base peak: 256.0596
Precursor m/z: 256.0596
Precursor type: [M+H]+
m/z	relative intensity	assigned
56.0494	13	C3H6N+
63.0229	4	C5H3+
65.0385	13	C5H5+
69.0447	15	C3H5N2+
71.0603	12	C3H7N2+
72.984	5	C3H2Cl+
78.0337	10	C5H4N+
79.0541	8	C6H7+
80.0369	4	C4H4N2+
80.0494	31	C5H6N+
84.0556	184	C3H6N3+
85.0392	2	C3H5N2O+
90.0337	36	C6H4N+
91.0415	11	C6H5N+
92.0369	7	C5H4N2+
92.0494	31	C6H6N+
93.0446	7	C5H5N2+
93.0572	21	C6H7N+
95.0603	6	C5H7N2+
96.0443	19	C5H6NO+
96.0557	8	C4H6N3+
97.0635	2	C4H7N3+
98.0713	8	C4H8N3+
98.9995	38	C5H4Cl+
99.0552	17	C4H7N2O+
102.0429	2	ClH9N3O+
104.0494	18	C7H6N+
105.0447	113	C6H5N2+
106.0524	14	C6H6N2+
106.0651	95	C7H8N+
107.0603	86	C6H7N2+
108.0682	21	C6H8N2+
109.0634	12	C5H7N3+
110.0601	9	C6H8NO+
111.995	4	C5H3ClN+
113.0026	9	C5H4ClN+
114.0104	25	C5H5ClN+
117.0446	10	C7H5N2+
117.0572	3	C8H7N+
118.04	6	C6H4N3+
118.0524	39	C7H6N2+
119.0477	27	C6H5N3+
119.0603	86	C7H7N2+
120.0556	92	C6H6N3+
120.0681	9	C7H8N2+
121.0395	9	C6H5N2O+
121.0632	5	C6H7N3+
121.0761	9	C7H9N2+
122.0712	18	C6H8N3+
123.0552	25	C6H7N2O+
126.0105	169	C6H5ClN+
127.0183	47	C6H6ClN+
128.0262	69	C6H7ClN+
128.9976	3	C5H4ClNO+
130.0053	3	C5H5ClNO+
130.0401	7	C7H4N3+
131.0477	18	C7H5N3+
131.0603	84	C8H7N2+
132.0556	57	C7H6N3+
132.0681	28	C8H8N2+
133.0634	138	C7H7N3+
133.076	94	C8H9N2+
134.0712	91	C7H8N3+
134.0836	7	C8H10N2+
135.0551	14	C7H7N2O+
135.079	38	C7H9N3+
138.0104	13	C7H5ClN+
139.0057	39	C6H4ClN2+
139.0178	3	C7H6ClN+
140.0136	5	C6H5ClN2+
140.026	16	C7H7ClN+
141.0214	125	C6H6ClN2+
142.0291	5	C6H7ClN2+
144.021	28	C6H7ClNO+
144.9924	25	C5H4ClNO2+
145.0507	29	C7H5N4+
146.0587	26	C7H6N4+
146.0711	223	C8H8N3+
147.0664	328	C7H7N4+
147.0788	25	C8H9N3+
148.0741	15	C7H8N4+
148.0868	139	C8H10N3+
150.0661	4	C7H8N3O+
151.0057	5	C7H4ClN2+
151.0183	8	C8H6ClN+
152.0135	8	C7H5ClN2+
153.0213	16	C7H6ClN2+
154.0165	7	C6H5ClN3+
155.0372	10	C7H8ClN2+
157.0633	40	C9H7N3+
158.0712	142	C9H8N3+
159.067	16	C8H7N4+
159.079	275	C9H9N3+
160.0744	8	C8H8N4+
160.0867	8	C9H10N3+
163.0613	12	C7H7N4O+
165.0212	8	C8H6ClN2+
166.0165	63	C7H5ClN3+
167.037	62	C8H8ClN2+
168.0328	4	C7H7ClN3+
172.0744	7	C9H8N4+
173.082	501	C9H9N4+
174.0899	237	C9H10N4+
175.0977	695	C9H11N4+
180.0196	44	C7H5ClN4+
180.0321	18	C8H7ClN3+
181.0274	96	C7H6ClN4+
182.0477	5	C8H9ClN3+
191.0926	59	C9H11N4O+
193.028	3	C8H6ClN4+
194.0477	43	C9H9ClN3+
195.0435	2	C8H8ClN4+
207.0433	31	C9H8ClN4+
208.051	90	C9H9ClN4+
209.0587	999	C9H10ClN4+
