Mass spectrum: Alanycarb; LC-ESI-QFT; MS2; CE: 60; R=35000; [M+H]+
Name: Alanycarb
Name: 5-Oxa-2,8-dithia-4,7,9-triazadodec-3-en-12-oic acid, 3,7-dimethyl-6-oxo-9-(phenylmethyl)-, ethyl ester, (Z)-
Name: 3-[[[methyl-[[(Z)-1-(methylthio)ethylideneamino]oxy-oxomethyl]amino]thio]-(phenylmethyl)amino]propanoic acid ethyl ester
Formula: C17H25N3O4S2
Exact mass: 399.12865
SMILES: O=C(OCC)CCN(SN(C(=O)O\N=C(/SC)C)C)Cc1ccccc1
InChI: InChI=1S/C17H25N3O4S2/c1-5-23-16(21)11-12-20(13-15-9-7-6-8-10-15)26-19(3)17(22)24-18-14(2)25-4/h6-10H,5,11-13H2,1-4H3/b18-14-
Instrument: Q Exactive Orbitrap Thermo Scientific
Instrument type: LC-ESI-QFT
Ms type: MS2
Ion mode: POSITIVE
Ionization: ESI
Fragmentation mode: HCD
Collision energy: 60 (nominal)
Resolution: 35000
Column name: XBridge C18 3.5um, 2.1x50mm, Waters
Retention time: 12.8 min
Base peak: 238.0897
Precursor m/z: 400.1359
Precursor type: [M+H]+
m/z	relative intensity	assigned
59.9903	54	CH2NS+
62.0059	6	CH4NS+
65.0386	18	C5H5+
73.0284	267	C3H5O2+
77.0383	1	C6H5+
78.967	6	CH3S2+
79.0543	1	C6H7+
88.0215	11	C3H6NS+
88.0395	2	C3H6NO2+
90.0463	1	C7H6+
91.0542	999	C7H7+
94.9619	5	CH3OS2+
95.049	5	C6H7O+
101.0597	29	C5H9O2+
104.0495	14	C7H6N+
105.07	1	C8H9+
106.0321	2	C3H8NOS+
106.0652	5	C7H8N+
107.9935	2	C2H6NS2+
109.0107	5	C6H5S+
111.0263	23	C6H7S+
116.0706	1	C5H10NO2+
117.0572	1	C8H7N+
117.0702	1	C9H9+
118.065	8	C8H8N+
121.0107	7	C7H5S+
122.0183	8	C7H6S+
123.0263	227	C7H7S+
130.0651	3	C9H8N+
131.0729	1	C9H9N+
135.0264	3	C8H7S+
136.0217	6	C7H6NS+
137.0293	1	C7H7NS+
137.0421	6	C8H9S+
138.0372	210	C7H8NS+
150.0373	265	C8H8NS+
159.0678	5	C10H9NO+
164.0529	4	C9H10NS+
192.048	7	C10H10NOS+
