Mass spectrum: Atorvastatin; LC-ESI-ITFT; MS2; CE: 45%; R=7500; [M+H]+
Name: Atorvastatin
Name: (3R,5R)-7-[3-(anilinocarbonyl)-5-(4-fluorophenyl)-2-isopropyl-4-phenyl-1H-pyrrol-1-yl]-3,5-dihydroxyheptanoic acid
Name: (3R,5R)-7-[2-(4-fluorophenyl)-3-phenyl-4-(phenylcarbamoyl)-5-propan-2-yl-pyrrol-1-yl]-3,5-bis(oxidanyl)heptanoic acid
Formula: C33H35FN2O5
Exact mass: 558.2530
SMILES: c1(c(n(CC[C@H](C[C@H](CC(=O)O)O)O)c(c1C(Nc1ccccc1)=O)C(C)C)c1ccc(F)cc1)c1ccccc1
InChI: InChI=1S/C33H35FN2O5/c1-21(2)31-30(33(41)35-25-11-7-4-8-12-25)29(22-9-5-3-6-10-22)32(23-13-15-24(34)16-14-23)36(31)18-17-26(37)19-27(38)20-28(39)40/h3-16,21,26-27,37-38H,17-20H2,1-2H3,(H,35,41)(H,39,40)/t26-,27-/m1/s1
Instrument: LTQ Orbitrap XL Thermo Scientific
Instrument type: LC-ESI-ITFT
Ms type: MS2
Ion mode: POSITIVE
Ionization: ESI
Fragmentation mode: HCD
Collision energy: 45 % (nominal)
Resolution: 7500
Column name: XBridge C18 3.5um, 2.1x50mm, Waters
Retention time: 12.4 min
Base peak: 559.2616
Precursor m/z: 559.2603
Precursor type: [M+H]+
m/z	relative intensity	assigned
79.0542	14	C6H7+
83.0491	9	C5H7O+
92.0495	10	C6H6N+
120.0444	30	C7H6NO+
238.1027	83	C16H13FN+
249.0946	66	C17H12FN+
250.1027	999	C17H13FN+
252.1175	16	C17H15FN+
262.1027	59	C18H13FN+
264.0821	13	C17H11FNO+
264.1187	15	C18H15FN+
276.0826	37	C18H11FNO+
276.1183	346	C19H15FN+
277.1257	15	C19H16FN+
279.1426	13	C19H18FN+
280.1504	32	C19H19FN+
290.1331	27	C20H17FN+
292.1497	336	C20H19FN+
294.1285	9	C19H17FNO+
294.1651	33	C20H21FN+
302.1343	42	C21H17FN+
306.1287	44	C20H17FNO+
316.1511	12	C22H19FN+
318.1278	18	C21H17FNO+
318.166	58	C22H21FN+
320.1443	50	C24H18N+
336.1745	22	C22H23FNO+
344.1428	17	C23H19FNO+
362.1553	132	C26H20NO+
380.1664	114	C23H23FNO3+
406.1811	18	C25H25FNO3+
422.2135	28	C26H29FNO3+
440.2236	48	C26H31FNO4+
466.2025	52	C27H29FNO5+
