Mass spectrum: Theophyline; LC-ESI-QFT; MS2; CE: 75; R=35000; [M+H]+
Name: Theophyline
Name: Theophylline
Name: 1,3-dimethyl-7H-purine-2,6-dione
Formula: C7H8N4O2
Exact mass: 180.06473
SMILES: CN1C2=C(C(=O)N(C1=O)C)NC=N2
InChI: InChI=1S/C7H8N4O2/c1-10-5-4(8-3-9-5)6(12)11(2)7(10)13/h3H,1-2H3,(H,8,9)
Instrument: Q Exactive Plus Orbitrap Thermo Scientific
Instrument type: LC-ESI-QFT
Ms type: MS2
Ion mode: POSITIVE
Ionization: ESI
Fragmentation mode: HCD
Collision energy: 75 (nominal)
Resolution: 35000
Column name: XBridge C18 3.5um, 2.1x50mm, Waters
Retention time: 3.2 min
Base peak: 181.0717
Precursor m/z: 181.072
Precursor type: [M+H]+
m/z	relative intensity	assigned
55.0291	3	C2H3N2+
67.0291	3	C3H3N2+
68.0369	4	C3H4N2+
69.0447	352	C3H5N2+
79.029	1	C4H3N2+
80.0131	1	C4H2NO+
81.0448	8	C4H5N2+
83.024	34	C3H3N2O+
93.0448	5	C5H5N2+
94.0401	9	C4H4N3+
95.0241	6	C4H3N2O+
96.0557	483	C4H6N3+
97.0397	25	C4H5N2O+
106.0402	1	C5H4N3+
108.0557	6	C5H6N3+
109.0272	21	C4H3N3O+
110.0714	4	C5H8N3+
113.0347	1	C4H5N2O2+
120.0557	3	C6H6N3+
121.0511	1	C5H5N4+
122.035	4	C5H4N3O+
122.0589	3	C5H6N4+
124.0507	999	C5H6N3O+
137.0823	5	C6H9N4+
140.0454	4	C5H6N3O2+
142.0613	33	C5H8N3O2+
149.0461	2	C6H5N4O+
167.0567	1	C6H7N4O2+
181.0721	79	C7H9N4O2+
