Mass spectrum: Amidithion; LC-ESI-QFT; MS2; CE: 15%; R=17500; [M+H]+
Name: Amidithion
Name: 2-dimethoxyphosphinothioylsulfanyl-N-(2-methoxyethyl)acetamide
Formula: C7H16NO4PS2
Exact mass: 273.0258
SMILES: COCCNC(=O)CSP(=S)(OC)OC
InChI: InChI=1S/C7H16NO4PS2/c1-10-5-4-8-7(9)6-15-13(14,11-2)12-3/h4-6H2,1-3H3,(H,8,9)
Instrument: Exploris 240 Orbitrap Thermo Scientific
Instrument type: LC-ESI-QFT
Ms type: MS2
Ion mode: POSITIVE
Ionization: ESI
Fragmentation mode: HCD
Collision energy: 15 % (nominal)
Resolution: 17500
Column name: XBridge C18 3.5um, 2.1x50mm, Waters
Retention time: 4.721 min
Base peak: 274.0331
Precursor m/z: 274.0331
Precursor type: [M+H]+
m/z	relative intensity	assigned
59.0491	15	C3H7O+
76.0757	10	C3H10NO+
116.0167	3	C4H6NOS+
132.0477	57	C5H10NOS+
170.9698	24	C3H8O2PS2+
198.9647	999	C4H8O3PS2+
242.0071	250	C6H13NO3PS2+
256.0217	16	C7H15NO3PS2+
274.0333	833	C7H17NO4PS2+
