Mass spectrum: Ethofumesate-2-keto; LC-ESI-ITFT; MS2; CE: 60%; R=7500; [M+H]+
Name: Ethofumesate-2-keto
Name: 3,3-Dimethyl-2-oxo-2,3-dihydrobenzofurane-5-yl methane sulfonate
Formula: C11H12O5S
Exact mass: 256.0405
SMILES: CS(=O)(=O)Oc1cc2c(cc1)OC(=O)C2(C)C
InChI: InChI=1S/C11H12O5S/c1-11(2)8-6-7(16-17(3,13)14)4-5-9(8)15-10(11)12/h4-6H,1-3H3
Instrument: LTQ Orbitrap XL Thermo Scientific
Instrument type: LC-ESI-ITFT
Ms type: MS2
Ion mode: POSITIVE
Ionization: ESI
Fragmentation mode: HCD
Collision energy: 60 % (nominal)
Resolution: 7500
Column name: XBridge C18 3.5um, 2.1x50mm, Waters
Retention time: 6.0 min
Base peak: 297.0411
Precursor m/z: 257.0478
Precursor type: [M+H]+
m/z	relative intensity	assigned
77.0385	35	C6H5+
79.0543	39	C6H7+
91.0542	43	C7H7+
93.0698	81	C7H9+
94.0412	46	C6H6O+
103.0543	116	C8H7+
105.0698	176	C8H9+
107.0491	78	C7H7O+
108.0566	21	C7H8O+
115.0539	34	C9H7+
121.0647	277	C8H9O+
122.0726	85	C8H10O+
123.044	257	C7H7O2+
131.0494	54	C9H7O+
132.057	91	C9H8O+
133.0648	84	C9H9O+
135.0438	118	C8H7O2+
149.0597	576	C9H9O2+
150.0675	292	C9H10O2+
159.0443	65	C10H7O2+
160.0518	329	C10H8O2+
161.0597	178	C10H9O2+
163.039	145	C9H7O3+
177.0547	999	C10H9O3+
178.0623	180	C10H10O3+
179.0705	45	C10H11O3+
201.0216	482	C8H9O4S+
229.0531	60	C10H13O4S+
