Mass spectrum: Acetazolamide; LC-ESI-QFT; MS2; CE: 75; R=35000; [M+H]+
Name: Acetazolamide
Name: AZM
Name: N-(5-sulfamoyl-1,3,4-thiadiazol-2-yl)acetamide
Formula: C4H6N4O3S2
Exact mass: 221.98813
SMILES: O=S(=O)(c1nnc(s1)NC(=O)C)N
InChI: InChI=1S/C4H6N4O3S2/c1-2(9)6-3-7-8-4(12-3)13(5,10)11/h1H3,(H2,5,10,11)(H,6,7,9)
Instrument: Q Exactive Orbitrap Thermo Scientific
Instrument type: LC-ESI-QFT
Ms type: MS2
Ion mode: POSITIVE
Ionization: ESI
Fragmentation mode: HCD
Collision energy: 75 (nominal)
Resolution: 35000
Column name: XBridge C18 3.5um, 2.1x50mm, Waters
Retention time: 2.5 min
Base peak: 222.9955
Precursor m/z: 222.9954
Precursor type: [M+H]+
m/z	relative intensity	assigned
57.9746	3	CNS+
58.9824	49	CHNS+
59.9903	59	CH2NS+
63.9852	32	H2NOS+
68.0243	1	C2H2N3+
71.9903	4	C2H2NS+
72.9855	524	CHN2S+
75.0011	6	CH3N2S+
79.98	14	H2NO2S+
99.9964	137	C2H2N3S+
101.004	3	C2H3N3S+
102.012	11	C2H4N3S+
149.0234	12	CH5N6OS+
163.9565	3	N6OS2+
180.9849	246	C2H5N4O2S2+
181.9688	999	C2H4N3O3S2+
199.9794	6	C2H6N3O4S2+
