Mass spectrum: 4-Formylaminoantipyrine; LC-ESI-ITFT; MS2; CE: 15%; R=7500; [M+H]+
Name: 4-Formylaminoantipyrine
Name: N-(1,5-dimethyl-3-oxidanylidene-2-phenyl-pyrazol-4-yl)methanamide
Formula: C12H13N3O2
Exact mass: 231.1008
SMILES: O=C2C(\NC=O)=C(\C)N(C)N2c1ccccc1
InChI: InChI=1S/C12H13N3O2/c1-9-11(13-8-16)12(17)15(14(9)2)10-6-4-3-5-7-10/h3-8H,1-2H3,(H,13,16)
Instrument: LTQ Orbitrap XL Thermo Scientific
Instrument type: LC-ESI-ITFT
Ms type: MS2
Ion mode: POSITIVE
Ionization: ESI
Fragmentation mode: HCD
Collision energy: 15 % (nominal)
Resolution: 7500
Column name: XBridge C18 3.5um, 2.1x50mm, Waters
Retention time: 3.7 min
Base peak: 232.1088
Precursor m/z: 232.1081
Precursor type: [M+H]+
m/z	relative intensity	assigned
104.0491	1	C7H6N+
187.0873	2	C11H11N2O+
204.1136	48	C11H14N3O+
214.097	37	C12H12N3O+
232.1085	999	C12H14N3O2+
