Mass spectrum: Chlorothalonil-TP R471811; LC-ESI-QFT; MS2; CE: 150%; R=17500; [M+H]+
Name: Chlorothalonil-TP R471811
Name: 2,4-dicarbamoyl-3,5,6-trichlorobenzenesulfonic acid
Formula: C8H5Cl3N2O5S
Exact mass: 345.8985
SMILES: NC(=O)C1=C(Cl)C(C(N)=O)=C(C(Cl)=C1Cl)S(O)(=O)=O
InChI: InChI=1S/C8H5Cl3N2O5S/c9-3-1(7(12)14)4(10)5(11)6(19(16,17)18)2(3)8(13)15/h(H2,12,14)(H2,13,15)(H,16,17,18)
Instrument: Q Exactive Plus Orbitrap Thermo Scientific
Instrument type: LC-ESI-QFT
Ms type: MS2
Ion mode: POSITIVE
Ionization: ESI
Fragmentation mode: HCD
Collision energy: 150 % (nominal)
Resolution: 17500
Column name: XBridge C18 3.5um, 2.1x50mm, Waters
Retention time: 1.062 min
Base peak: 346.906
Precursor m/z: 346.9058
Precursor type: [M+H]+
m/z	relative intensity	assigned
52.0181	9	C3H2N+
61.0073	111	C5H+
61.9792	20	CHClN+
62.0151	29	C5H2+
62.9632	161	CClO+
70.9682	28	C3Cl+
71.9761	101	C3HCl+
72.9839	118	C3H2Cl+
73.9793	12	C2HClN+
75.0104	69	C5HN+
76.0183	14	C5H2N+
77.0021	28	C5HO+
82.945	280	CHCl2+
83.9762	70	C4HCl+
84.984	8	C4H2Cl+
85.9794	14	C3HClN+
86.9633	33	C3ClO+
88.0183	19	C6H2N+
94.9683	63	C5Cl+
95.9761	670	C5HCl+
96.9841	142	C5H2Cl+
97.9792	6	C4HClN+
98.987	7	C4H2ClN+
106.945	999	C3HCl2+
107.9402	7	C2Cl2N+
107.9762	39	C6HCl+
109.9791	61	C5HClN+
110.9631	11	C5ClO+
110.9871	25	C5H2ClN+
116.9062	10	CCl3+
117.9375	10	C4Cl2+
118.9453	17	C4HCl2+
120.9715	19	C6ClN+
121.9791	19	C6HClN+
122.9633	10	C6ClO+
122.9875	14	C6H2ClN+
123.9709	38	C6HClO+
129.9373	89	C5Cl2+
130.945	188	C5HCl2+
132.9713	10	C7ClN+
140.9063	19	C3Cl3+
141.9373	204	C6Cl2+
164.9049	8	Cl2HNO3S+
