Mass spectrum: Clozapine; LC-ESI-ITFT; MS2; CE: 75%; R=15000; [M+H]+
Name: Clozapine
Name: 8-chloro-11-(4-methylpiperazin-1-yl)-5H-dibenzo[b,e][1,4]diazepine
Formula: C18H19ClN4
Exact mass: 326.1298
SMILES: C1(=Nc2c(Nc3c1cccc3)ccc(c2)Cl)N1CCN(CC1)C
InChI: InChI=1S/C18H19ClN4/c1-22-8-10-23(11-9-22)18-14-4-2-3-5-15(14)20-16-7-6-13(19)12-17(16)21-18/h2-7,12,20H,8-11H2,1H3
Instrument: LTQ Orbitrap XL Thermo Scientific
Instrument type: LC-ESI-ITFT
Ms type: MS2
Ion mode: POSITIVE
Ionization: ESI
Fragmentation mode: HCD
Collision energy: 75 % (nominal)
Resolution: 15000
Column name: XBridge C18 3.5um, 2.1x50mm, Waters
Retention time: 6.4 min
Base peak: 327.1383
Precursor m/z: 327.1371
Precursor type: [M+H]+
m/z	relative intensity	assigned
58.0651	21	C3H8N+
82.0651	3	C5H8N+
84.0808	57	C5H10N+
85.0761	6	C4H9N2+
90.0339	9	C6H4N+
98.9994	3	C5H4Cl+
117.0569	1	C8H7N+
123.9949	15	C6H3ClN+
132.0684	6	C8H8N2+
164.0495	6	C12H6N+
191.0603	16	C13H7N2+
192.0683	999	C13H8N2+
193.0757	2	C13H9N2+
194.0841	7	C13H10N2+
200.026	19	C12H7ClN+
205.0756	4	C14H9N2+
206.0838	12	C14H10N2+
207.0915	6	C14H11N2+
208.0993	7	C14H12N2+
209.071	7	C10H12ClN3+
213.0332	2	C13H8ClN+
214.0418	2	C13H9ClN+
215.037	11	C12H8ClN2+
218.0836	18	C15H10N2+
219.0665	9	C13H7N4+
220.0868	18	C14H10N3+
226.0292	60	C13H7ClN2+
227.037	189	C13H8ClN2+
228.0446	13	C13H9ClN2+
229.0528	10	C13H10ClN2+
233.0956	3	C15H11N3+
234.1024	26	C15H12N3+
235.1103	15	C15H13N3+
239.0372	6	C14H8ClN2+
240.0448	9	C14H9ClN2+
241.0524	7	C14H10ClN2+
243.0693	4	C14H12ClN2+
246.1027	6	C16H12N3+
252.044	2	C15H9ClN2+
253.0525	28	C15H10ClN2+
254.0478	8	C14H9ClN3+
254.0611	4	C15H11ClN2+
255.0559	11	C14H10ClN3+
256.0634	2	C14H11ClN3+
268.0632	4	C15H11ClN3+
269.0732	3	C17H14ClO+
270.0791	349	C15H13ClN3+
280.0638	7	C16H11ClN3+
281.0715	5	C16H12ClN3+
294.0789	5	C17H13ClN3+
296.0948	43	C17H15ClN3+
