Mass spectrum: Triflumuron; LC-ESI-QFT; MS2; CE: 30; R=35000; [M+H]+
Name: Triflumuron
Name: 2-chloranyl-N-[[4-(trifluoromethyloxy)phenyl]carbamoyl]benzamide
Formula: C15H10ClF3N2O3
Exact mass: 358.03320
SMILES: O=C(c1ccccc1Cl)NC(=O)Nc2ccc(OC(F)(F)F)cc2
InChI: InChI=1S/C15H10ClF3N2O3/c16-12-4-2-1-3-11(12)13(22)21-14(23)20-9-5-7-10(8-6-9)24-15(17,18)19/h1-8H,(H2,20,21,22,23)
Instrument: Q Exactive Orbitrap Thermo Scientific
Instrument type: LC-ESI-QFT
Ms type: MS2
Ion mode: POSITIVE
Ionization: ESI
Fragmentation mode: HCD
Collision energy: 30 (nominal)
Resolution: 35000
Column name: XBridge C18 3.5um, 2.1x50mm, Waters
Retention time: 13.8 min
Base peak: 359.0407
Precursor m/z: 359.0405
Precursor type: [M+H]+
m/z	relative intensity	assigned
75.0229	1	C6H3+
95.0492	1	C6H7O+
110.9993	1	C6H4Cl+
113.0152	19	C6H6Cl+
138.0109	2	C7H5ClN+
138.9945	208	C7H4ClO+
156.0211	999	C7H7ClNO+
178.0474	20	C7H7F3NO+
359.0408	1	C15H11ClF3N2O3+
