Mass spectrum: Isopropalin; LC-ESI-QFT; MS2; CE: 75%; R=17500; [M+H]+
Name: Isopropalin
Name: 2,6-dinitro-4-propan-2-yl-N,N-dipropylaniline
Formula: C15H23N3O4
Exact mass: 309.1689
SMILES: CCCN(CCC)C1=C(C=C(C=C1[N+](=O)[O-])C(C)C)[N+](=O)[O-]
InChI: InChI=1S/C15H23N3O4/c1-5-7-16(8-6-2)15-13(17(19)20)9-12(11(3)4)10-14(15)18(21)22/h9-11H,5-8H2,1-4H3
Instrument: Exploris 240 Orbitrap Thermo Scientific
Instrument type: LC-ESI-QFT
Ms type: MS2
Ion mode: POSITIVE
Ionization: ESI
Fragmentation mode: HCD
Collision energy: 75 % (nominal)
Resolution: 17500
Column name: XBridge C18 3.5um, 2.1x50mm, Waters
Retention time: 15.043 min
Base peak: 310.1757
Precursor m/z: 310.1761
Precursor type: [M+H]+
m/z	relative intensity	assigned
53.026	195	C3H3N+
57.0335	169	C3H5O+
59.0491	113	C3H7O+
79.0543	223	C6H7+
91.0542	638	C7H7+
92.0496	126	C6H6N+
94.0651	216	C6H8N+
103.0542	148	C8H7+
104.0499	208	C7H6N+
106.0654	292	C7H8N+
116.0497	332	C8H6N+
117.0578	235	C8H7N+
117.0701	99	C9H9+
118.0648	999	C8H8N+
130.0656	297	C9H8N+
131.0604	308	C8H7N2+
132.0683	442	C8H8N2+
133.0761	646	C8H9N2+
133.0887	283	C9H11N+
134.0474	146	C7H6N2O+
134.0963	418	C9H12N+
135.0556	250	C7H7N2O+
145.0759	575	C9H9N2+
146.0839	130	C9H10N2+
147.0557	255	C8H7N2O+
147.0918	218	C9H11N2+
160.063	298	C9H8N2O+
160.1	547	C10H12N2+
161.0708	682	C9H9N2O+
164.0585	191	C8H8N2O2+
171.0919	309	C11H11N2+
172.0997	560	C11H12N2+
173.1073	308	C11H13N2+
175.0869	256	C10H11N2O+
176.0948	469	C10H12N2O+
187.1231	157	C12H15N2+
188.1306	929	C12H16N2+
190.061	237	C9H8N3O2+
191.0686	200	C9H9N3O2+
194.0562	510	C8H8N3O3+
203.0947	125	C12H13NO2+
203.1169	192	C12H15N2O+
206.0924	315	C10H12N3O2+
208.0722	231	C9H10N3O3+
209.0797	266	C9H11N3O3+
218.0924	222	C11H12N3O2+
234.1229	149	C12H16N3O2+
