Mass spectrum: 5-Chloro-2-methyl-4-isothiazolin-3-one (CMI); LC-ESI-ITFT; MS2; CE: 75%; R=15000; [M+H]+
Name: 5-Chloro-2-methyl-4-isothiazolin-3-one (CMI)
Name: 3(2H)-Isothiazolone, 5-chloro-2-methyl-
Name: 5-chloranyl-2-methyl-1,2-thiazol-3-one
Formula: C4H4ClNOS
Exact mass: 148.9702
SMILES: c1(n(sc(c1)Cl)C)=O
InChI: InChI=1S/C4H4ClNOS/c1-6-4(7)2-3(5)8-6/h2H,1H3
Instrument: LTQ Orbitrap XL Thermo Scientific
Instrument type: LC-ESI-ITFT
Ms type: MS2
Ion mode: POSITIVE
Ionization: ESI
Fragmentation mode: HCD
Collision energy: 75 % (nominal)
Resolution: 15000
Column name: XBridge C18 3.5um, 2.1x50mm, Waters
Retention time: 3.7 min
Base peak: 149.9773
Precursor m/z: 149.9775
Precursor type: [M+H]+
m/z	relative intensity	assigned
58.0288	17	C2H4NO+
58.995	8	C2H3S+
59.9903	5	CH2NS+
60.0029	1	C2H4S+
60.984	1	C2H2Cl+
62.0059	3	CH4NS+
62.9996	2	C2H4Cl+
63.9949	2	CH3ClN+
66.0106	1	CH5ClN+
67.0179	8	C4H3O+
68.9794	1	C3HS+
70.9951	24	C3H3S+
72.0029	3	C3H4S+
72.984	3	C3H2Cl+
74.0059	8	C2H4NS+
74.9997	3	C3H4Cl+
75.9948	1	C2H3ClN+
78.0105	14	C2H5ClN+
78.9404	9	CClS+
79.9483	1	CHClS+
80.9561	1	CH2ClS+
82.0289	1	C4H4NO+
82.9824	2	C3HNS+
83.9664	5	C3OS+
84.9743	7	C3HOS+
86.006	15	C3H4NS+
86.9633	8	C3ClO+
86.99	1	C3H3OS+
87.0138	9	C3H5NS+
87.9948	3	C3H3ClN+
88.979	1	C3H2ClO+
90.0009	2	C2H4NOS+
90.9404	2	C2ClS+
92.9561	12	C2H2ClS+
94.9718	16	C2H4ClS+
95.9903	66	C4H2NS+
102.0008	1	C3H4NOS+
102.9404	7	C3ClS+
102.9946	24	C4H4ClO+
104.9561	31	C3H2ClS+
106.0055	9	C3H5ClNO+
106.9592	8	C2H2ClNS+
106.9717	15	C3H4ClS+
114.001	4	C4H4NOS+
115.0087	134	C4H5NOS+
115.9899	2	C4H3ClNO+
116.9977	8	C4H4ClNO+
117.9514	2	C3HClNS+
118.9354	88	C3ClOS+
119.9669	1	C3H3ClNS+
120.9511	27	C3H2ClOS+
121.9827	3	C3H5ClNS+
122.967	1	C3H4ClOS+
131.9671	2	C4H3ClNS+
132.9511	10	C4H2ClOS+
134.9541	131	C3H2ClNOS+
147.9621	3	C4H3ClNOS+
149.9776	999	C4H5ClNOS+
