Mass spectrum: Triclabendazole; LC-ESI-QFT; MS2; CE: 90; R=35000; [M+H]+
Name: Triclabendazole
Name: Triclabendazol
Name: 6-chloro-5-(2,3-dichlorophenoxy)-2-methylsulfanyl-1H-benzimidazole
Formula: C14H9Cl3N2OS
Exact mass: 357.95012
SMILES: CSc1[nH]c2cc(c(cc2n1)Oc3cccc(c3Cl)Cl)Cl
InChI: InChI=1S/C14H9Cl3N2OS/c1-21-14-18-9-5-8(16)12(6-10(9)19-14)20-11-4-2-3-7(15)13(11)17/h2-6H,1H3,(H,18,19)
Instrument: Q Exactive Plus Orbitrap Thermo Scientific
Instrument type: LC-ESI-QFT
Ms type: MS2
Ion mode: POSITIVE
Ionization: ESI
Fragmentation mode: HCD
Collision energy: 90 (nominal)
Resolution: 35000
Column name: XBridge C18 3.5um, 2.1x50mm, Waters
Retention time: 14.2 min
Base peak: 360.954
Precursor m/z: 358.9574
Precursor type: [M+H]+
m/z	relative intensity	assigned
61.9791	2	CHClN+
64.0181	2	C4H2N+
72.9838	1	C3H2Cl+
76.018	3	C5H2N+
78.0337	4	C5H4N+
78.9403	1	CClS+
82.0286	1	C4H4NO+
90.0105	1	C3H5ClN+
90.0337	2	C6H4N+
91.029	4	C5H3N2+
92.0369	3	C5H4N2+
96.9838	3	C5H2Cl+
99.9949	5	C4H3ClN+
103.0291	6	C6H3N2+
107.9902	6	C5H2NS+
108.9981	3	C5H3NS+
111.9949	5	C5H3ClN+
113.0025	1	C5H4ClN+
117.0446	3	C7H5N2+
118.0525	2	C7H6N2+
119.9903	2	C6H2NS+
120.998	1	C6H3NS+
121.0395	2	C6H5N2O+
123.9948	7	C6H3ClN+
125.0027	5	C6H4ClN+
127.0057	115	C5H4ClN2+
128.956	10	C5H2ClS+
129.0099	1	C6H6ClO+
129.0447	2	C8H5N2+
130.0055	3	C5H5ClNO+
130.04	3	C7H4N3+
130.0526	5	C8H6N2+
135.0011	17	C6H3N2S+
136.009	4	C6H4N2S+
136.0217	1	C7H6NS+
138.0105	31	C7H5ClN+
139.0057	72	C6H4ClN2+
139.9896	2	C6H3ClNO+
142.0054	2	C6H5ClNO+
143.0007	3	C5H4ClN2O+
143.9669	28	C5H3ClNS+
147.0011	2	C7H3N2S+
147.0551	1	C8H7N2O+
148.0089	71	C7H4N2S+
151.0416	1	C11H5N+
152.0136	9	C7H5ClN2+
153.0117	1	C6H5N2OS+
153.0214	25	C7H6ClN2+
153.0574	3	C11H7N+
155.0007	2	C6H4ClN2O+
155.9668	48	C6H3ClNS+
157.0508	2	C8H5N4+
160.0073	6	C10H5Cl+
163.0324	183	C8H7N2S+
164.0037	2	C7H4N2OS+
165.0214	97	C8H6ClN2+
166.0291	2	C8H7ClN2+
167.0009	7	C7H4ClN2O+
170.0598	2	C11H8NO+
170.9777	999	C9HNOS+
174.0104	3	C10H5ClN+
178.0524	2	C12H6N2+
179.0605	5	C12H7N2+
180.0442	11	C12H6NO+
181.0517	1	C12H7NO+
182.9778	34	C7H4ClN2S+
183.0136	2	C11H5NS+
184.0217	1	C11H6NS+
186.0102	2	C11H5ClN+
186.973	1	C6H4ClN2OS+
187.0182	15	C11H6ClN+
188.0261	32	C11H7ClN+
189.0101	27	C11H6ClO+
195.0551	4	C12H7N2O+
195.9838	3	C10H6Cl2+
196.9935	21	C8H6ClN2S+
198.0013	14	C8H7ClN2S+
198.9727	293	C7H4ClN2OS+
202.0294	4	C11H7ClN2+
203.0129	3	C11H6ClNO+
204.0209	4	C11H7ClNO+
207.0551	7	C13H7N2O+
210.0245	4	C12H6N2S+
211.0324	136	C12H7N2S+
212.0164	19	C12H6NOS+
213.0213	15	C12H6ClN2+
214.0055	24	C12H5ClNO+
214.0292	2	C12H7ClN2+
215.0133	20	C12H6ClNO+
216.0211	51	C12H7ClNO+
218.9906	14	C11H6ClNS+
219.9743	8	C11H5ClOS+
220.9814	3	C11H6ClOS+
220.9916	3	C12H7Cl2+
221.071	2	C14H9N2O+
221.9871	6	C11H6Cl2N+
222.9713	14	C11H5Cl2O+
222.9938	4	C14H4ClO+
223.979	3	C11H6Cl2O+
228.0445	1	C13H9ClN2+
229.0168	6	C12H6ClN2O+
229.9908	4	C8H7ClN2O2S+
238.0194	11	C13H6N2OS+
239.0273	200	C13H7N2OS+
241.0163	36	C13H6ClN2O+
242.0241	474	C13H7ClN2O+
244.9935	16	C12H6ClN2S+
245.9775	34	C12H5ClNOS+
246.0011	16	C12H7ClN2S+
247.9658	2	C12H4Cl2NO+
248.9739	3	C12H5Cl2NO+
248.9977	5	C12H7Cl2N2+
249.982	10	C12H6Cl2NO+
250.9899	185	C12H7Cl2NO+
255.0318	1	C14H8ClN2O+
256.0396	1	C14H9ClN2O+
272.9884	30	C13H6ClN2OS+
273.9961	722	C13H7ClN2OS+
274.9775	1	C13H5Cl2N2O+
275.9851	105	C13H6Cl2N2O+
276.9931	6	C13H7Cl2N2O+
278.9551	1	C11H10Cl3S+
280.97	16	C12H7Cl2N2S+
307.9572	7	C13H6Cl2N2OS+
308.9643	1	C13H7Cl2N2OS+
