Mass spectrum: Rosuvastatin; LC-ESI-ITFT; MS2; CE: 90%; R=30000; [M+H]+
Name: Rosuvastatin
Name: (E,3R,5S)-7-[4-(4-fluorophenyl)-2-[methyl(methylsulfonyl)amino]-6-propan-2-ylpyrimidin-5-yl]-3,5-dihydroxyhept-6-enoic acid
Formula: C22H28FN3O6S
Exact mass: 481.16828
SMILES: CC(C)C1=NC(=NC(=C1/C=C/[C@H](C[C@H](CC(=O)O)O)O)C2=CC=C(C=C2)F)N(C)S(=O)(=O)C
InChI: InChI=1S/C22H28FN3O6S/c1-13(2)20-18(10-9-16(27)11-17(28)12-19(29)30)21(14-5-7-15(23)8-6-14)25-22(24-20)26(3)33(4,31)32/h5-10,13,16-17,27-28H,11-12H2,1-4H3,(H,29,30)/b10-9+/t16-,17-/m1/s1
Instrument: LTQ Orbitrap XL Thermo Scientific
Instrument type: LC-ESI-ITFT
Ms type: MS2
Ion mode: POSITIVE
Ionization: ESI
Fragmentation mode: HCD
Collision energy: 90 % (nominal)
Resolution: 30000
Column name: XBridge C18 3.5um, 2.1x50mm, Waters
Retention time: 9.2 min
Base peak: 482.1762
Precursor m/z: 482.1756
Precursor type: [M+H]+
m/z	relative intensity	assigned
79.0543	95	C6H7+
107.0601	57	C6H7N2+
109.0448	72	C7H6F+
119.0605	98	C7H7N2+
122.04	177	C7H5FN+
133.0448	999	C9H6F+
133.0761	67	C8H9N2+
147.0606	109	C10H8F+
148.0557	71	C9H7FN+
149.1074	107	C9H13N2+
155.0603	78	C10H7N2+
160.0556	65	C7H12O2S+
161.0634	139	C10H8FN+
173.051	101	C4H12FNO3S+
174.0711	153	C11H9FN+
183.0603	134	C13H8F+
184.068	76	C13H9F+
185.0634	242	C12H8FN+
186.0593	91	C11H7FN2+
186.0712	197	C4H13FN3O2S+
187.079	167	C12H10FN+
188.087	183	C9H16O2S+
198.0714	95	C13H9FN+
199.0793	145	C5H14FN3O2S+
200.087	213	C10H16O2S+
201.0821	202	C12H10FN2+
213.0824	192	C10H15NO2S+
214.1024	97	C14H13FN+
215.0969	62	C13H12FN2+
216.0932	121	C12H11FN3+
225.0819	81	C8H16FNO3S+
227.0976	159	C11H17NO2S+
230.1085	150	C10H18N2O2S+
240.0931	312	C14H11FN3+
242.1087	961	C14H13FN3+
254.1086	657	C12H18N2O2S+
255.1161	117	C9H20FN2O3S+
256.1244	647	C15H15FN3+
266.109	68	C21H14+
268.1244	100	C16H15FN3+
270.14	152	C16H17FN3+
