Mass spectrum: CGA62826 (2-[2,6-dimethylphenyl)-methoxyacetylamino]propionic acid; LC-ESI-QFT; MS2; CE: 90; R=35000; [M+H]+
Name: CGA62826 (2-[2,6-dimethylphenyl)-methoxyacetylamino]propionic acid
Name: N-(2,6-Dimethylphenyl)-N-(methoxyacetyl)-L-alanine
Name: (2S)-2-(N-(2-methoxyacetyl)-2,6-dimethylanilino)propanoic acid
Formula: C14H19NO4
Exact mass: 265.13141
SMILES: Cc1cccc(c1N([C@@H](C)C(=O)O)C(=O)COC)C
InChI: InChI=1S/C14H19NO4/c1-9-6-5-7-10(2)13(9)15(11(3)14(17)18)12(16)8-19-4/h5-7,11H,8H2,1-4H3,(H,17,18)/t11-/m0/s1
Instrument: Q Exactive Plus Orbitrap Thermo Scientific
Instrument type: LC-ESI-QFT
Ms type: MS2
Ion mode: POSITIVE
Ionization: ESI
Fragmentation mode: HCD
Collision energy: 90 (nominal)
Resolution: 35000
Column name: XBridge C18 3.5um, 2.1x50mm, Waters
Retention time: 7.8 min
Base peak: 266.1385
Precursor m/z: 266.1387
Precursor type: [M+H]+
m/z	relative intensity	assigned
50.0151	1	C4H2+
51.0229	4	C4H3+
53.0386	9	C4H5+
56.0495	14	C3H6N+
65.0385	2	C5H5+
67.0543	1	C5H7+
77.0385	18	C6H5+
78.0463	2	C6H6+
79.0542	165	C6H7+
89.0382	1	C7H5+
91.0543	221	C7H7+
92.0619	1	C7H8+
93.0572	2	C6H7N+
93.0699	16	C7H9+
94.0651	1	C6H8N+
95.0492	31	C6H7O+
102.0464	1	C8H6+
103.0542	93	C8H7+
104.0495	1	C7H6N+
104.0621	12	C8H8+
105.0699	447	C8H9+
106.0651	91	C7H8N+
106.0777	75	C8H10+
107.073	19	C7H9N+
107.0855	51	C8H11+
108.0809	1	C7H10N+
109.0648	7	C7H9O+
115.0543	36	C9H7+
116.062	17	C9H8+
117.0573	134	C8H7N+
117.0698	39	C9H9+
118.0651	248	C8H8N+
118.0775	14	
119.0604	7	C7H7N2+
119.073	22	C8H9N+
119.0856	53	C9H11+
120.0808	124	C8H10N+
121.0886	85	C8H11N+
121.1011	7	C9H13+
122.0964	6	C8H12N+
123.0805	8	C8H11O+
128.0621	18	C10H8+
129.0698	10	C10H9+
130.0652	364	C9H8N+
131.073	66	C9H9N+
131.0855	28	C10H11+
132.0808	999	C9H10N+
133.0886	318	C9H11N+
134.0964	686	C9H12N+
135.0678	32	C8H9NO+
135.1042	7	C9H13N+
143.073	6	C10H9N+
143.0853	4	C11H11+
144.0808	288	C10H10N+
145.0887	399	C10H11N+
146.06	5	C9H8NO+
146.0964	69	C10H12N+
147.104	11	C10H13N+
148.1121	396	C10H14N+
149.0834	28	C9H11NO+
150.0914	43	C9H12NO+
158.0965	12	C11H12N+
159.1043	5	C11H13N+
160.1121	220	C11H14N+
161.084	1	C10H11NO+
161.12	1	C11H15N+
162.1278	28	C11H16N+
164.107	32	C10H14NO+
