Mass spectrum: Procymidone; LC-ESI-QFT; MS2; CE: 60; R=35000; [M+H]+
Name: Procymidone
Name: 3-(3,5-dichlorophenyl)-1,5-dimethyl-3-azabicyclo[3.1.0]hexane-2,4-dione
Formula: C13H11Cl2NO2
Exact mass: 283.01668
SMILES: Clc1cc(cc(Cl)c1)N2C(=O)C3(CC3(C2=O)C)C
InChI: InChI=1S/C13H11Cl2NO2/c1-12-6-13(12,2)11(18)16(10(12)17)9-4-7(14)3-8(15)5-9/h3-5H,6H2,1-2H3
Instrument: Q Exactive Orbitrap Thermo Scientific
Instrument type: LC-ESI-QFT
Ms type: MS2
Ion mode: POSITIVE
Ionization: ESI
Fragmentation mode: HCD
Collision energy: 60 (nominal)
Resolution: 35000
Column name: XBridge C18 3.5um, 2.1x50mm, Waters
Retention time: 11.5 min
Base peak: 284.0241
Precursor m/z: 284.024
Precursor type: [M+H]+
m/z	relative intensity	assigned
53.0023	6	C3HO+
57.0335	1	C3H5O+
57.0699	1	C4H9+
65.0386	103	C5H5+
67.0542	999	C5H7+
68.0621	2	C5H8+
69.0334	7	C4H5O+
69.0699	134	C5H9+
71.0491	3	C4H7O+
81.0334	3	C5H5O+
83.0491	2	C5H7O+
85.0648	75	C5H9O+
94.0649	2	C6H8N+
95.0491	657	C6H7O+
96.057	41	C6H8O+
113.0597	164	C6H9O2+
123.044	8	C7H7O2+
126.9944	6	C6H4ClO+
127.0184	14	C6H6ClN+
128.0023	6	C6H5ClO+
143.0729	2	C10H9N+
144.9604	6	C6H3Cl2+
145.0051	1	C6H6ClO2+
145.968	3	C6H4Cl2+
151.0183	33	C8H6ClN+
157.0885	14	C11H11N+
158.0964	24	C11H12N+
158.9763	2	C7H5Cl2+
159.9715	39	C6H4Cl2N+
160.9793	21	C9H2ClO+
161.9872	37	C6H6Cl2N+
162.9711	22	C6H5Cl2O+
164.026	34	C9H7ClN+
165.034	40	C9H8ClN+
167.0729	8	C12H9N+
168.0807	23	C12H10N+
171.9715	264	C7H4Cl2N+
172.9668	50	C9ClNO+
173.9872	39	C7H6Cl2N+
176.0386	8	C11H9Cl+
177.034	7	C10H8ClN+
178.0417	154	C10H9ClN+
179.0136	12	C9H6ClNO+
179.0494	32	C10H10ClN+
184.9794	1	C8H5Cl2N+
185.0835	3	C12H11NO+
185.9872	370	C8H6Cl2N+
187.9665	43	C7H4Cl2NO+
188.0028	10	C8H8Cl2N+
188.0259	10	C11H7ClN+
189.0337	1	C11H8ClN+
192.0574	73	C11H11ClN+
193.0653	62	C11H12ClN+
195.9719	2	C9H4Cl2N+
197.9871	102	C9H6Cl2N+
198.995	35	C9H7Cl2N+
199.9664	20	C8H4Cl2NO+
200.0027	39	C9H8Cl2N+
201.0341	1	C12H8ClN+
202.0185	14	C9H10Cl2N+
202.0416	46	C12H9ClN+
203.0495	75	C12H10ClN+
204.0575	3	C12H11ClN+
206.0368	30	C11H9ClNO+
212.0028	178	C10H8Cl2N+
213.0106	17	C10H9Cl2N+
213.9821	43	C9H6Cl2NO+
214.0185	37	C10H10Cl2N+
214.9899	2	C9H7Cl2NO+
220.0522	22	C12H11ClNO+
221.0602	43	C12H12ClNO+
222.9952	5	C11H7Cl2N+
224.0028	6	C11H8Cl2N+
225.9822	3	C10H6Cl2NO+
227.9978	128	C10H8Cl2NO+
228.0341	185	C11H12Cl2N+
231.0445	2	C13H10ClNO+
238.0185	325	C12H10Cl2N+
239.0262	40	C12H11Cl2N+
239.998	10	C11H8Cl2NO+
240.0333	2	C12H12Cl2N+
241.0055	72	C11H9Cl2NO+
256.0291	308	C12H12Cl2NO+
266.013	3	C13H10Cl2NO+
284.0239	52	C13H12Cl2NO2+
