Mass spectrum: Bentazone; LC-ESI-ITFT; MS2; CE: 75%; R=7500; [M+H]+
Name: Bentazone
Name: 2,2-bis(oxidanylidene)-3-propan-2-yl-1H-2$l^{6},1,3-benzothiadiazin-4-one
Formula: C10H12N2O3S
Exact mass: 240.0563
SMILES: c12c(C(N(C(C)C)S(N1)(=O)=O)=O)cccc2
InChI: InChI=1S/C10H12N2O3S/c1-7(2)12-10(13)8-5-3-4-6-9(8)11-16(12,14)15/h3-7,11H,1-2H3
Instrument: LTQ Orbitrap XL Thermo Scientific
Instrument type: LC-ESI-ITFT
Ms type: MS2
Ion mode: POSITIVE
Ionization: ESI
Fragmentation mode: HCD
Collision energy: 75 % (nominal)
Resolution: 7500
Column name: XBridge C18 3.5um, 2.1x50mm, Waters
Retention time: 7.5 min
Base peak: 162.9912
Precursor m/z: 241.0641
Precursor type: [M+H]+
m/z	relative intensity	assigned
80.0494	120	C5H6N+
92.0492	161	C6H6N+
107.0603	999	C6H7N2+
120.0441	295	C7H6NO+
135.055	158	C7H7N2O+
