Mass spectrum: Nortriptyline; LC-ESI-QFT; MS2; CE: 60; R=35000; [M+H]+
Name: Nortriptyline
Name: 3-(5,6-dihydrodibenzo[2,1-b:2`,1`-f][7]annulen-11-ylidene)-N-methylpropan-1-amine
Formula: C19H21N
Exact mass: 263.16740
SMILES: CNCCC=C1C2=CC=CC=C2CCC3=CC=CC=C31
InChI: InChI=1S/C19H21N/c1-20-14-6-11-19-17-9-4-2-7-15(17)12-13-16-8-3-5-10-18(16)19/h2-5,7-11,20H,6,12-14H2,1H3
Instrument: Q Exactive Plus Orbitrap Thermo Scientific
Instrument type: LC-ESI-QFT
Ms type: MS2
Ion mode: POSITIVE
Ionization: ESI
Fragmentation mode: HCD
Collision energy: 60 (nominal)
Resolution: 35000
Column name: XBridge C18 3.5um, 2.1x50mm, Waters
Retention time: 8.5 min
Base peak: 264.1741
Precursor m/z: 264.1747
Precursor type: [M+H]+
m/z	relative intensity	assigned
53.0386	3	C4H5+
55.0542	7	C4H7+
56.0495	2	C3H6N+
65.0385	14	C5H5+
67.0542	2	C5H7+
70.0651	175	C4H8N+
71.073	3	C4H9N+
77.0384	6	C6H5+
79.0542	42	C6H7+
91.0542	999	C7H7+
95.0492	4	C6H7O+
103.0542	50	C8H7+
105.0699	710	C8H9+
115.0542	97	C9H7+
117.0698	625	C9H9+
127.054	1	C10H7+
128.062	14	C10H8+
129.0698	155	C10H9+
131.0855	5	C10H11+
141.0698	49	C11H9+
142.0778	8	C11H10+
144.0807	2	C10H10N+
145.0646	1	C10H9O+
153.0699	37	C12H9+
154.0778	13	C12H10+
155.0855	197	C12H11+
158.0962	3	C11H12N+
159.1045	2	C11H13N+
165.0699	12	C13H9+
167.0854	4	C13H11+
172.1121	2	C12H14N+
173.1201	1	C12H15N+
178.0777	151	C14H10+
179.0855	138	C14H11+
189.0697	7	C15H9+
190.0776	45	C15H10+
191.0855	484	C15H11+
192.0933	65	C15H12+
193.1012	46	C15H13+
202.0776	14	C16H10+
203.0855	225	C16H11+
204.0934	163	C16H12+
205.1012	237	C16H13+
207.1168	5	C16H15+
215.0856	7	C17H11+
216.0934	18	C17H12+
217.1012	75	C17H13+
218.109	308	C17H14+
231.1169	17	C18H15+
232.1246	3	C18H16+
233.1325	58	C18H17+
264.1744	1	C19H22N+
