Mass spectrum: Cyclophosphamide; LC-ESI-ITFT; MS2; CE: 60%; R=7500; [M+H]+
Name: Cyclophosphamide
Name: N,N-bis(2-chloroethyl)-2-oxidanylidene-1,3,2$l^{5}-oxazaphosphinan-2-amine
Formula: C7H15Cl2N2O2P
Exact mass: 260.0248
SMILES: ClCCN(CCCl)P1(=O)NCCCO1
InChI: InChI=1S/C7H15Cl2N2O2P/c8-2-5-11(6-3-9)14(12)10-4-1-7-13-14/h1-7H2,(H,10,12)
Instrument: LTQ Orbitrap XL Thermo Scientific
Instrument type: LC-ESI-ITFT
Ms type: MS2
Ion mode: POSITIVE
Ionization: ESI
Fragmentation mode: HCD
Collision energy: 60 % (nominal)
Resolution: 7500
Column name: XBridge C18 3.5um, 2.1x50mm, Waters
Retention time: 6.3 min
Base peak: 261.0328
Precursor m/z: 261.0321
Precursor type: [M+H]+
m/z	relative intensity	assigned
56.0495	55	C3H6N+
58.0651	40	C3H8N+
62.9996	47	C2H4Cl+
70.0651	17	C4H8N+
78.0105	22	C2H5ClN+
91.9897	8	C2H3ClNO+
94.0052	11	C5H2O2+
102.0102	13	C3H5NOP+
104.0262	11	C4H7ClN+
106.0418	219	C4H9ClN+
110.0002	42	C2H5ClNO2+
111.9719	3	C2H4Cl2N+
112.0157	13	C2H7ClNO2+
113.9869	1	CH6ClNOP+
114.0104	1	C5H5ClN+
120.0209	193	C3H7NO2P+
124.0158	1	C3H7ClNO2+
127.9662	1	CH4ClNO2P+
132.0206	1	C4H7NO2P+
138.0315	130	C4H9ClNO2+
140.0029	999	C4H8Cl2N+
141.9823	35	C3H6Cl2NO+
142.0185	271	C4H10Cl2N+
154.0183	5	C4H10ClNOP+
155.998	4	C4H8Cl2NO+
167.9976	5	C4H8ClNO2P+
171.0086	7	C4H9Cl2N2O+
174.0079	1	C4H10Cl2NO2+
185.0239	5	C4H11ClN2O2P+
197.0237	2	C5H11ClN2O2P+
199.0396	3	C5H13ClN2O2P+
203.9742	4	C4H9Cl2NO2P+
233.0007	35	C5H12Cl2N2O2P+
261.0328	32	C7H16Cl2N2O2P+
