Mass spectrum: Ethoxyquin; LC-ESI-QFT; MS2; CE: 150; R=35000; [M+H]+
Name: Ethoxyquin
Name: 6-ethoxy-2,2,4-trimethyl-1H-quinoline
Formula: C14H19NO
Exact mass: 217.14666
SMILES: CCOC1=CC2=C(C=C1)NC(C=C2C)(C)C
InChI: InChI=1S/C14H19NO/c1-5-16-11-6-7-13-12(8-11)10(2)9-14(3,4)15-13/h6-9,15H,5H2,1-4H3
Instrument: Q Exactive Plus Orbitrap Thermo Scientific
Instrument type: LC-ESI-QFT
Ms type: MS2
Ion mode: POSITIVE
Ionization: ESI
Fragmentation mode: HCD
Collision energy: 150 (nominal)
Resolution: 35000
Column name: XBridge C18 3.5um, 2.1x50mm, Waters
Retention time: 7.0 min
Base peak: 218.1537
Precursor m/z: 218.1539
Precursor type: [M+H]+
m/z	relative intensity	assigned
50.0151	59	C4H2+
51.023	45	C4H3+
52.0182	10	C3H2N+
52.0309	3	C4H4+
53.0022	17	C3HO+
53.0386	192	C4H5+
53.9975	4	C2NO+
54.0339	29	C3H4N+
55.0179	51	C3H3O+
55.0543	17	C4H7+
56.0495	7	C3H6N+
62.0151	7	C5H2+
63.023	96	C5H3+
64.0308	3	C5H4+
65.0386	439	C5H5+
66.0464	55	C5H6+
67.0417	30	C4H5N+
67.0543	43	C5H7+
68.0131	15	C3H2NO+
68.0255	1	C4H4O+
68.0495	3	C4H6N+
75.023	14	C6H3+
76.0183	2	C5H2N+
76.0306	4	C6H4+
77.0386	185	C6H5+
78.0339	19	C5H4N+
78.0464	183	C6H6+
79.0417	55	C5H5N+
79.0542	300	C6H7+
80.0131	10	C4H2NO+
80.0495	155	C5H6N+
81.0335	41	C5H5O+
81.0573	13	C5H7N+
81.0699	2	C6H9+
82.0653	2	C5H8N+
83.0366	2	C4H5NO+
89.0386	361	C7H5+
90.034	10	C6H4N+
90.0465	124	C7H6+
91.0543	734	C7H7+
92.0495	26	C6H6N+
92.0622	1	C7H8+
93.0574	78	C6H7N+
93.07	14	C7H9+
94.0414	31	C6H6O+
94.0652	43	C6H8N+
95.0492	562	C6H7O+
96.0444	54	C5H6NO+
101.0387	2	C8H5+
102.0465	35	C8H6+
103.0543	320	C8H7+
104.0495	383	C7H6N+
105.0336	32	C7H5O+
105.0448	351	C6H5N2+
105.0574	177	C7H7N+
105.07	73	C8H9+
106.0415	19	C7H6O+
106.0652	108	C7H8N+
107.0492	136	C7H7O+
108.0444	25	C6H6NO+
109.0524	25	C6H7NO+
110.0601	21	C6H8NO+
111.0316	10	C5H5NO2+
111.0441	7	C6H7O2+
114.0465	2	C9H6+
115.0543	506	C9H7+
116.0495	100	C8H6N+
116.0621	55	C9H8+
117.0574	920	C8H7N+
118.0652	411	C8H8N+
119.0493	12	C8H7O+
119.0731	9	C8H9N+
120.0446	9	C7H6NO+
120.0808	16	C8H10N+
121.0398	7	C6H5N2O+
121.0651	2	C8H9O+
122.0601	22	C7H8NO+
126.0467	13	C10H6+
127.0543	27	C10H7+
128.0496	45	C9H6N+
128.0621	206	C10H8+
129.0448	14	C8H5N2+
129.07	74	C10H9+
130.0653	999	C9H8N+
131.0493	51	C9H7O+
131.0731	667	C9H9N+
132.0445	38	C8H6NO+
132.057	11	C9H8O+
132.0809	129	C9H10N+
133.0523	185	C8H7NO+
134.06	47	C8H8NO+
139.0544	9	C11H7+
140.0494	15	C10H6N+
141.0573	12	C10H7N+
141.0699	11	C11H9+
142.0652	44	C10H8N+
143.0731	137	C10H9N+
144.0445	46	C9H6NO+
144.056	21	C8H6N3+
144.0809	165	C10H10N+
145.0524	38	C9H7NO+
145.065	25	C10H9O+
145.0888	126	C10H11N+
146.0601	327	C9H8NO+
146.0965	68	C10H12N+
147.0678	7	C9H9NO+
148.0758	4	C9H10NO+
152.0623	2	C12H8+
154.0654	10	C11H8N+
155.0605	52	C10H7N2+
156.0809	50	C11H10N+
157.065	26	C11H9O+
157.0887	19	C11H11N+
158.0603	32	C10H8NO+
158.0967	14	C11H12N+
159.068	216	C10H9NO+
160.0758	207	C10H10NO+
162.0552	4	C9H8NO2+
172.0759	15	C11H10NO+
173.0839	40	C11H11NO+
174.0915	94	C11H12NO+
