Mass spectrum: Sulfanilic acid; LC-ESI-ITFT; MS2; CE: 90%; R=15000; [M+H]+
Name: Sulfanilic acid
Name: 4-aminobenzenesulfonic acid
Formula: C6H7NO3S
Exact mass: 173.0147
SMILES: S(c1ccc(N)cc1)(O)(=O)=O
InChI: InChI=1S/C6H7NO3S/c7-5-1-3-6(4-2-5)11(8,9)10/h1-4H,7H2,(H,8,9,10)
Instrument: LTQ Orbitrap XL Thermo Scientific
Instrument type: LC-ESI-ITFT
Ms type: MS2
Ion mode: POSITIVE
Ionization: ESI
Fragmentation mode: HCD
Collision energy: 90 % (nominal)
Resolution: 15000
Column name: XBridge C18 3.5um, 2.1x50mm, Waters
Retention time: 0.9 min
Base peak: 174.0217
Precursor m/z: 174.0219
Precursor type: [M+H]+
m/z	relative intensity	assigned
65.0386	81	C5H5+
66.0464	17	C5H6+
75.0228	1	C6H3+
76.0309	2	C6H4+
78.0337	1	C5H4N+
80.0494	12	C5H6N+
81.0336	3	C5H5O+
92.0495	99	C6H6N+
93.0573	999	C6H7N+
108.0444	55	C6H6NO+
109.0285	3	C6H5O2+
109.0525	1	C6H7NO+
110.0601	12	C6H8NO+
125.0471	48	C6H7NO2+
174.0221	6	C6H8NO3S+
