Mass spectrum: Methoprotryne; LC-ESI-QFT; MS2; CE: 75%; R=17500; [M+H]+
Name: Methoprotryne
Name: 4-N-(3-methoxypropyl)-6-methylsulfanyl-2-N-propan-2-yl-1,3,5-triazine-2,4-diamine
Formula: C11H21N5OS
Exact mass: 271.1467
SMILES: CC(C)NC1=NC(=NC(=N1)NCCCOC)SC
InChI: InChI=1S/C11H21N5OS/c1-8(2)13-10-14-9(12-6-5-7-17-3)15-11(16-10)18-4/h8H,5-7H2,1-4H3,(H2,12,13,14,15,16)
Instrument: Exploris 240 Orbitrap Thermo Scientific
Instrument type: LC-ESI-QFT
Ms type: MS2
Ion mode: POSITIVE
Ionization: ESI
Fragmentation mode: HCD
Collision energy: 75 % (nominal)
Resolution: 17500
Column name: XBridge C18 3.5um, 2.1x50mm, Waters
Retention time: 6.075 min
Base peak: 272.1537
Precursor m/z: 272.154
Precursor type: [M+H]+
m/z	relative intensity	assigned
55.0292	64	C2H3N2+
56.0496	40	C3H6N+
57.0448	44	C2H5N2+
58.0654	9	C3H8N+
59.0492	18	C3H7O+
61.0108	37	C2H5S+
68.0244	101	C2H2N3+
73.0648	144	C4H9O+
74.0059	66	C2H4NS+
82.0399	57	C3H4N3+
83.0604	150	C4H7N2+
91.0322	83	C2H7N2S+
97.0508	18	C3H5N4+
103.0326	25	C3H7N2S+
108.0557	53	C5H6N3+
116.0277	126	C3H6N3S+
125.0822	308	C5H9N4+
150.0776	29	C6H8N5+
156.0345	15	C4H6N5S+
156.0591	17	C6H10N3S+
158.0493	24	C4H8N5S+
170.0496	999	C5H8N5S+
198.0808	287	C7H12N5S+
212.0964	42	C8H14N5S+
240.1284	21	C10H18N5S+
