Mass spectrum: Brodifacoum; LC-ESI-QFT; MS2; CE: 15%; R=17500; [M+H]+
Name: Brodifacoum
Name: 3-[3-[4-(4-bromophenyl)phenyl]-1,2,3,4-tetrahydronaphthalen-1-yl]-4-hydroxychromen-2-one
Formula: C31H23BrO3
Exact mass: 522.0831
SMILES: C1C(CC2=CC=CC=C2C1C3=C(C4=CC=CC=C4OC3=O)O)C5=CC=C(C=C5)C6=CC=C(C=C6)Br
InChI: InChI=1S/C31H23BrO3/c32-24-15-13-20(14-16-24)19-9-11-21(12-10-19)23-17-22-5-1-2-6-25(22)27(18-23)29-30(33)26-7-3-4-8-28(26)35-31(29)34/h1-16,23,27,33H,17-18H2
Instrument: Exploris 240 Orbitrap Thermo Scientific
Instrument type: LC-ESI-QFT
Ms type: MS2
Ion mode: POSITIVE
Ionization: ESI
Fragmentation mode: HCD
Collision energy: 15 % (nominal)
Resolution: 17500
Column name: XBridge C18 3.5um, 2.1x50mm, Waters
Retention time: 16.530 min
Base peak: 523.0906
Precursor m/z: 523.0903
Precursor type: [M+H]+
m/z	relative intensity	assigned
163.0391	4	C9H7O3+
175.0392	2	C10H7O3+
189.0547	22	C11H9O3+
291.1017	22	C19H15O3+
335.0432	88	C20H16Br+
361.0581	1	C22H18Br+
523.0904	999	C31H24BrO3+
