Mass spectrum: Myclobutanil; LC-ESI-ITFT; MS2; CE: 60%; R=7500; [M+H]+
Name: Myclobutanil
Name: MYC
Name: 2-(4-chlorophenyl)-2-(1,2,4-triazol-1-ylmethyl)hexanenitrile
Formula: C15H17ClN4
Exact mass: 288.1142
SMILES: Clc1ccc(cc1)C(C#N)(CCCC)Cn2ncnc2
InChI: InChI=1S/C15H17ClN4/c1-2-3-8-15(9-17,10-20-12-18-11-19-20)13-4-6-14(16)7-5-13/h4-7,11-12H,2-3,8,10H2,1H3
Instrument: LTQ Orbitrap XL Thermo Scientific
Instrument type: LC-ESI-ITFT
Ms type: MS2
Ion mode: POSITIVE
Ionization: ESI
Fragmentation mode: HCD
Collision energy: 60 % (nominal)
Resolution: 7500
Column name: XBridge C18 3.5um, 2.1x50mm, Waters
Retention time: 11.2 min
Base peak: 289.1218
Precursor m/z: 289.1215
Precursor type: [M+H]+
m/z	relative intensity	assigned
55.0545	1	C4H7+
57.0699	3	C4H9+
70.04	886	C2H4N3+
81.0698	6	C6H9+
82.0401	7	C3H4N3+
82.0653	4	C5H8N+
83.0478	10	C3H5N3+
89.0385	2	C7H5+
94.0653	2	C6H8N+
95.0731	6	C6H9N+
108.0808	2	C7H10N+
115.0542	10	C9H7+
116.0622	10	C9H8+
125.0153	999	C7H6Cl+
128.0495	5	C9H6N+
130.0652	12	C9H8N+
131.0733	3	C9H9N+
137.0155	6	C8H6Cl+
139.031	7	C8H8Cl+
142.0783	2	C11H10+
143.0725	3	C10H9N+
149.0152	10	C9H6Cl+
150.0106	24	C8H5ClN+
151.031	206	C9H8Cl+
153.0692	3	C12H9+
157.1018	1	C12H13+
163.0169	2	C10HN3+
163.0314	2	C10H8Cl+
164.0263	87	C9H7ClN+
165.0344	12	C9H8ClN+
165.0459	4	C10H10Cl+
166.0417	12	C9H9ClN+
167.0849	3	C13H11+
168.0933	14	C13H12+
170.0965	1	C12H12N+
175.0312	9	C11H8Cl+
178.0418	26	C10H9ClN+
184.1119	3	C13H14N+
191.0503	3	C11H10ClN+
192.0579	3	C11H11ClN+
203.0627	4	C13H12Cl+
220.0895	4	C13H15ClN+
