Mass spectrum: 4,4`-Dichlorobenzophenone; LC-ESI-QFT; MS2; CE: 90%; R=17500; [M+H]+
Name: 4,4`-Dichlorobenzophenone
Name: bis(4-chlorophenyl)methanone
Formula: C13H8Cl2O
Exact mass: 249.9952
SMILES: C1=CC(=CC=C1C(=O)C2=CC=C(C=C2)Cl)Cl
InChI: InChI=1S/C13H8Cl2O/c14-11-5-1-9(2-6-11)13(16)10-3-7-12(15)8-4-10/h1-8H
Instrument: Exploris 240 Orbitrap Thermo Scientific
Instrument type: LC-ESI-QFT
Ms type: MS2
Ion mode: POSITIVE
Ionization: ESI
Fragmentation mode: HCD
Collision energy: 90 % (nominal)
Resolution: 17500
Column name: XBridge C18 3.5um, 2.1x50mm, Waters
Retention time: 12.103 min
Base peak: 299.1387
Precursor m/z: 251.0025
Precursor type: [M+H]+
m/z	relative intensity	assigned
51.0229	63	C4H3+
75.0229	209	C6H3+
93.0339	28	C6H5O+
110.9995	408	C6H4Cl+
129.01	398	C6H6ClO+
138.9941	999	C7H4ClO+
