Mass spectrum: 1-[(4-Chlorophenyl)phenylmethyl]piperazine; LC-ESI-QFT; MS2; CE: 120; R=35000; [M+H]+
Name: 1-[(4-Chlorophenyl)phenylmethyl]piperazine
Name: Norchlorcyclizine
Name: 1-(4-Chlorobenzhydryl) piperazine
Formula: C17H19ClN2
Exact mass: 286.12368
SMILES: C1CN(CCN1)C(C2=CC=CC=C2)C3=CC=C(C=C3)Cl
InChI: InChI=1S/C17H19ClN2/c18-16-8-6-15(7-9-16)17(14-4-2-1-3-5-14)20-12-10-19-11-13-20/h1-9,17,19H,10-13H2
Instrument: Q Exactive Plus Orbitrap Thermo Scientific
Instrument type: LC-ESI-QFT
Ms type: MS2
Ion mode: POSITIVE
Ionization: ESI
Fragmentation mode: HCD
Collision energy: 120 (nominal)
Resolution: 35000
Column name: XBridge C18 3.5um, 2.1x50mm, Waters
Retention time: 9.0 min
Base peak: 287.1308
Precursor m/z: 287.131
Precursor type: [M+H]+
m/z	relative intensity	assigned
63.0228	2	C5H3+
65.0386	6	C5H5+
72.9839	4	C3H2Cl+
89.0386	2	C7H5+
91.0542	1	C7H7+
98.9996	8	C5H4Cl+
114.0465	1	C9H6+
115.0543	29	C9H7+
125.0153	1	C7H6Cl+
126.0465	1	C10H6+
136.0073	1	C8H5Cl+
139.0543	26	C11H7+
140.0619	1	C11H8+
149.0155	6	C9H6Cl+
152.0618	1	C12H8+
162.0229	1	C10H7Cl+
163.0544	21	C13H7+
164.0622	50	C13H8+
165.0699	999	C13H9+
166.0778	31	C13H10+
168.057	18	C9H11ClN+
196.0519	5	C10H11ClNO+
199.0311	9	C13H8Cl+
