Mass spectrum: Nicosulfuron; LC-ESI-ITFT; MS2; CE: 60%; R=15000; [M+H]+
Name: Nicosulfuron
Name: 2-[(4,6-dimethoxypyrimidin-2-yl)carbamoylsulfamoyl]-N,N-dimethyl-nicotinamide
Formula: C15H18N6O6S
Exact mass: 410.1009
SMILES: O=C(Nc1nc(cc(OC)n1)OC)NS(=O)(=O)c2ncccc2C(=O)N(C)C
InChI: InChI=1S/C15H18N6O6S/c1-21(2)13(22)9-6-5-7-16-12(9)28(24,25)20-15(23)19-14-17-10(26-3)8-11(18-14)27-4/h5-8H,1-4H3,(H2,17,18,19,20,23)
Instrument: LTQ Orbitrap XL Thermo Scientific
Instrument type: LC-ESI-ITFT
Ms type: MS2
Ion mode: POSITIVE
Ionization: ESI
Fragmentation mode: HCD
Collision energy: 60 % (nominal)
Resolution: 15000
Column name: XBridge C18 3.5um, 2.1x50mm, Waters
Retention time: 7.1 min
Base peak: 433.0908
Precursor m/z: 411.1081
Precursor type: [M+H]+
m/z	relative intensity	assigned
78.0337	176	C5H4N+
83.0239	232	C3H3N2O+
106.0286	843	C6H4NO+
139.0502	128	C6H7N2O2+
156.0764	102	C6H10N3O2+
157.0607	331	C6H9N2O3+
182.0559	999	C7H8N3O3+
