Mass spectrum: Metoprolol; LC-ESI-ITFT; MS2; CE: 60%; R=7500; [M+H]+
Name: Metoprolol
Name: 1-(isopropylamino)-3-[4-(2-methoxyethyl)phenoxy]propan-2-ol
Formula: C15H25NO3
Exact mass: 267.1834
SMILES: COCCC1=CC=C(OCC(O)CNC(C)C)C=C1
InChI: InChI=1S/C15H25NO3/c1-12(2)16-10-14(17)11-19-15-6-4-13(5-7-15)8-9-18-3/h4-7,12,14,16-17H,8-11H2,1-3H3
Instrument: LTQ Orbitrap XL Thermo Scientific
Instrument type: LC-ESI-ITFT
Ms type: MS2
Ion mode: POSITIVE
Ionization: ESI
Fragmentation mode: HCD
Collision energy: 60 % (nominal)
Resolution: 7500
Column name: XBridge C18 3.5um, 2.1x50mm, Waters
Retention time: 5.1 min
Base peak: 268.1916
Precursor m/z: 268.1907
Precursor type: [M+H]+
m/z	relative intensity	assigned
56.0494	308	C3H6N+
58.0652	72	C3H8N+
72.0807	466	C4H10N+
74.06	784	C3H8NO+
84.0806	30	C5H10N+
91.0546	66	C7H7+
93.0699	41	C7H9+
98.0963	337	C6H12N+
103.0542	80	C8H7+
105.07	212	C8H9+
116.1069	538	C6H14NO+
119.0853	34	C9H11+
121.0647	608	C8H9O+
129.0698	40	C10H9+
131.0855	184	C10H11+
133.0647	999	C9H9O+
135.0809	71	C9H11O+
141.0701	41	C11H9+
144.057	53	C10H8O+
147.0804	76	C10H11O+
148.0754	175	C9H10NO+
159.0802	541	C11H11O+
163.0866	145	C9H11N2O+
165.0907	86	C10H13O2+
176.1068	93	C11H14NO+
177.0911	89	C11H13O2+
191.1069	116	C12H15O2+
