Mass spectrum: Doxycycline; LC-ESI-QFT; MS2; CE: 30; R=35000; [M-H]-
Name: Doxycycline
Name: 8-carbamoyl-10-(dimethylazaniumyl)-4,6a,7,11-tetrahydroxy-12-methyl-6,9-dioxo-10a,11,11a,12-tetrahydro-10H-tetracen-5-olate
Formula: C22H24N2O8
Exact mass: 444.15327
SMILES: CC1C2C(C3C(C(=O)C(=C(C3(C(=O)C2=C(C4=C1C=CC=C4O)O)O)O)C(=O)N)N(C)C)O
InChI: InChI=1S/C22H24N2O8/c1-7-8-5-4-6-9(25)11(8)16(26)12-10(7)17(27)14-15(24(2)3)18(28)13(21(23)31)20(30)22(14,32)19(12)29/h4-7,10,14-15,17,25-27,30,32H,1-3H3,(H2,23,31)
Instrument: Q Exactive Plus Orbitrap Thermo Scientific
Instrument type: LC-ESI-QFT
Ms type: MS2
Ion mode: NEGATIVE
Ionization: ESI
Fragmentation mode: HCD
Collision energy: 30 (nominal)
Resolution: 35000
Column name: XBridge C18 3.5um, 2.1x50mm, Waters
Retention time: 6.3 min
Base peak: 443.1457
Precursor m/z: 443.146
Precursor type: [M-H]-
m/z	relative intensity	assigned
84.0089	5	C3H2NO2-
85.0294	1	C4H5O2-
93.0346	2	C6H5O-
95.0138	36	C5H3O2-
96.0091	1	C4H2NO2-
97.0295	2	C5H5O2-
99.0087	7	C4H3O3-
100.0768	3	C5H10NO-
108.0215	1	C6H4O2-
109.0294	47	C6H5O2-
111.0087	3	C5H3O3-
119.0138	16	C7H3O2-
119.0499	1	C8H7O-
123.0088	8	C6H3O3-
124.0165	6	C6H4O3-
124.0766	1	C7H10NO-
124.988	5	C5HO4-
125.0243	8	C6H5O3-
125.072	19	C6H9N2O-
126.056	11	C6H8NO2-
128.0353	2	C5H6NO3-
134.0247	6	C7H4NO2-
135.0088	20	C7H3O3-
136.0401	2	C7H6NO2-
136.0766	6	C8H10NO-
136.988	3	C6HO4-
137.0243	18	C7H5O3-
138.032	1	C7H6O3-
138.0558	6	C7H8NO2-
138.0924	1	C8H12NO-
140.0353	9	C6H6NO3-
140.0716	4	C7H10NO2-
141.0191	1	C6H5O4-
142.0145	133	C5H4NO4-
142.9985	14	C5H3O5-
143.0824	10	C6H11N2O2-
147.0451	18	C9H7O2-
149.0608	5	C9H9O2-
150.0196	4	C7H4NO3-
151.0038	4	C7H3O4-
151.0275	1	C7H5NO3-
152.0353	58	C7H6NO3-
152.0717	14	C8H10NO2-
153.0191	4	C7H5O4-
154.0384	3	C6H6N2O3-
154.0874	8	C8H12NO2-
159.0448	2	C10H7O2-
159.0815	2	C11H11O-
161.061	4	C10H9O2-
162.02	4	C8H4NO3-
163.0037	58	C8H3O4-
164.0117	6	C8H4O4-
164.0716	20	C9H10NO2-
166.0145	2	C7H4NO4-
166.0513	1	C8H8NO3-
167.0223	12	C7H5NO4-
168.0302	68	C7H6NO4-
168.0666	35	C8H10NO3-
169.0255	5	C6H5N2O4-
169.0619	45	C7H9N2O3-
171.0817	3	C12H11O-
172.0532	2	C11H8O2-
173.0607	153	C11H9O2-
178.0145	3	C8H4NO4-
178.9986	4	C8H3O5-
179.0825	7	C9H11N2O2-
180.0303	39	C8H6NO4-
180.0666	16	C9H10NO3-
181.0381	8	C8H7NO4-
181.0618	7	C8H9N2O3-
182.082	24	C9H12NO3-
186.0688	1	C12H10O2-
187.0764	78	C12H11O2-
189.0559	1	C11H9O3-
189.0668	4	C10H9N2O2-
192.0539	2	C9H8N2O3-
195.0773	11	C9H11N2O3-
196.025	18	C8H6NO5-
196.061	4	C9H10NO4-
197.0931	50	C9H13N2O3-
198.0771	2	C9H12NO4-
199.0397	1	C12H7O3-
199.0764	3	C13H11O2-
201.0557	11	C12H9O3-
203.0714	20	C12H11O3-
207.0775	105	C10H11N2O3-
208.0615	26	C10H10NO4-
211.04	2	C13H7O3-
211.0768	18	C14H11O2-
213.0554	7	C13H9O3-
213.0919	3	C14H13O2-
215.0712	3	C13H11O3-
217.0506	275	C12H9O4-
221.097	2	C16H13O-
223.0773	4	C15H11O2-
225.0881	123	C10H13N2O4-
226.0724	17	C10H12NO5-
227.0352	2	C13H7O4-
227.0714	11	C14H11O3-
229.0505	13	C13H9O4-
229.0871	15	C14H13O3-
231.0666	7	C13H11O4-
234.0685	3	C16H10O2-
237.092	3	C16H13O2-
238.0638	2	C15H10O3-
239.0714	19	C15H11O3-
240.0427	49	C14H8O4-
241.0507	4	C14H9O4-
241.0871	13	C15H13O3-
243.0665	1	C14H11O4-
247.0755	2	C17H11O2-
249.0556	1	C16H9O3-
249.0918	11	C17H13O2-
250.0632	2	C16H10O3-
251.0712	12	C16H11O3-
252.0788	1	C16H12O3-
253.0507	2	C15H9O4-
253.0869	11	C16H13O3-
254.0823	2	C15H12NO3-
255.0663	295	C15H11O4-
256.0976	3	C15H14NO3-
256.1347	2	C16H18NO2-
257.0456	26	C14H9O5-
257.0817	6	C15H13O4-
258.1135	1	C15H16NO3-
260.0471	1	C17H8O3-
261.0554	2	C17H9O3-
263.0708	1	C17H11O3-
265.0869	32	C17H13O3-
266.0949	1	C17H14O3-
267.0662	10	C16H11O4-
267.1023	7	C17H15O3-
268.0974	2	C16H14NO3-
268.1341	4	C17H18NO2-
269.0819	65	C16H13O4-
270.1136	2	C16H16NO3-
271.0979	1	C16H15O4-
273.0768	167	C15H13O5-
275.0714	35	C18H11O3-
276.0797	3	C18H12O3-
277.0502	5	C17H9O4-
277.0869	1	C18H13O3-
278.0585	9	C17H10O4-
278.0815	1	C17H12NO3-
278.1186	3	C18H16NO2-
279.066	7	C17H11O4-
280.0747	1	C17H12O4-
280.0973	2	C17H14NO3-
281.0818	20	C17H13O4-
281.1053	1	C17H15NO3-
282.1132	5	C17H16NO3-
283.0975	15	C17H15O4-
284.129	5	C17H18NO3-
285.0765	8	C16H13O5-
290.0822	1	C18H12NO3-
291.0663	14	C18H11O4-
292.0739	3	C18H12O4-
292.0975	1	C18H14NO3-
292.1346	6	C19H18NO2-
293.082	97	C18H13O4-
294.0901	11	C18H14O4-
294.1136	4	C18H16NO3-
294.1499	19	C19H20NO2-
295.0612	7	C17H11O5-
295.0974	3	C18H15O4-
296.0921	1	C17H14NO4-
296.1292	19	C18H18NO3-
297.0768	64	C17H13O5-
300.1244	5	C17H18NO4-
304.0619	3	C18H10NO4-
305.0456	12	C18H9O5-
305.1059	4	C19H15NO3-
305.1301	1	C19H17N2O2-
308.0928	10	C18H14NO4-
308.129	1	C19H18NO3-
309.0769	66	C18H13O5-
310.145	24	C19H20NO3-
311.0927	19	C18H15O5-
312.1244	18	C18H18NO4-
312.1605	8	C19H22NO3-
313.0716	1	C17H13O6-
314.14	13	C18H20NO4-
318.0771	4	C19H12NO4-
318.1135	4	C20H16NO3-
319.0614	13	C19H11O5-
320.0695	4	C19H12O5-
320.1289	24	C20H18NO3-
321.0639	1	C18H11NO5-
321.101	2	C19H15NO4-
322.0479	2	C18H10O6-
323.1161	5	C19H17NO4-
323.1396	2	C19H19N2O3-
326.1037	14	C18H16NO5-
326.1396	24	C19H20NO4-
327.0882	6	C18H15O6-
328.1554	28	C19H22NO4-
334.0709	3	C19H12NO5-
335.0564	4	C19H11O6-
335.1404	2	C20H19N2O3-
336.089	11	C19H14NO5-
336.1242	61	C20H18NO4-
337.0721	46	C19H13O6-
337.0951	8	C19H15NO5-
338.0807	8	C19H14O6-
338.1398	100	C20H20NO4-
340.1189	14	C19H18NO5-
349.0958	2	C20H15NO5-
353.1507	17	C20H21N2O4-
354.1346	43	C20H20NO5-
356.1503	33	C20H22NO5-
358.1297	999	C19H20NO6-
359.132	1	C14H21N3O8-
362.0668	2	C20H12NO6-
363.0506	5	C20H11O7-
363.1342	5	C21H19N2O4-
364.1191	33	C21H18NO5-
371.161	123	C20H23N2O5-
380.077	7	C20H14NO7-
381.0613	3	C20H13O8-
381.1456	13	C21H21N2O5-
382.1295	64	C21H20NO6-
399.1559	83	C21H23N2O6-
400.1399	134	C21H22NO7-
408.1088	32	C22H18NO7-
425.135	4	C22H21N2O7-
426.1193	80	C22H20NO8-
443.1458	17	C22H23N2O8-
444.1295	19	C22H22NO9-
