Mass spectrum: 7-amino-flunitrazepam; LC-ESI-QFT; MS2; CE: 120; R=35000; [M+H]+
Name: 7-amino-flunitrazepam
Name: 7-aminoflunitrazepam
Name: 7-amino-5-(2-fluorophenyl)-1-methyl-3H-1,4-benzodiazepin-2-one
Formula: C16H14FN3O
Exact mass: 283.11209
SMILES: CN1C(=O)CN=C(C2=C1C=CC(=C2)N)C3=CC=CC=C3F
InChI: InChI=1S/C16H14FN3O/c1-20-14-7-6-10(18)8-12(14)16(19-9-15(20)21)11-4-2-3-5-13(11)17/h2-8H,9,18H2,1H3
Instrument: Q Exactive Plus Orbitrap Thermo Scientific
Instrument type: LC-ESI-QFT
Ms type: MS2
Ion mode: POSITIVE
Ionization: ESI
Fragmentation mode: HCD
Collision energy: 120 (nominal)
Resolution: 35000
Column name: XBridge C18 3.5um, 2.1x50mm, Waters
Retention time: 4.9 min
Base peak: 284.1182
Precursor m/z: 284.1194
Precursor type: [M+H]+
m/z	relative intensity	assigned
50.015	34	C4H2+
51.0228	25	C4H3+
52.0181	9	C3H2N+
52.0306	1	C4H4+
53.0385	113	C4H5+
54.0337	21	C3H4N+
55.0178	9	C3H3O+
56.0494	7	C3H6N+
57.0134	9	C3H2F+
58.0286	21	C2H4NO+
59.029	3	C3H4F+
62.0148	3	FHN3+
63.0228	81	FH2N3+
64.018	3	C4H2N+
64.0306	2	FH3N3+
65.0385	236	FH4N3+
66.0337	9	C4H4N+
66.0463	114	FH5N3+
67.0415	46	C4H5N+
67.0541	44	FH6N3+
68.0494	27	C4H6N+
74.0149	7	CHFN3+
75.0227	82	CH2FN3+
76.018	19	C5H2N+
76.0306	2	CH3FN3+
77.0384	184	CH4FN3+
78.0337	45	C5H4N+
78.0462	83	CH5FN3+
79.0415	15	C5H5N+
79.0541	253	CH6FN3+
80.0493	136	C5H6N+
81.0333	11	FH4N3O+
81.0445	33	C4H5N2+
81.0571	3	C5H7N+
81.0696	13	CH8FN3+
82.0524	11	C4H6N2+
82.0649	3	C5H8N+
83.0289	71	C5H4F+
88.018	2	C6H2N+
89.0384	180	C2H4FN3+
90.0337	153	C6H4N+
90.0463	60	C2H5FN3+
91.0415	26	C6H5N+
91.0541	129	C2H6FN3+
92.0493	206	C6H6N+
93.0572	999	C6H7N+
94.065	162	C6H8N+
95.049	292	CH6FN3O+
95.0603	20	C5H7N2+
96.0442	47	C5H6NO+
96.068	60	C5H8N2+
97.0446	3	C6H6F+
99.0226	3	C3H2FN3+
102.0336	76	C7H4N+
103.0415	13	C7H5N+
103.054	2	C3H6FN3+
104.0493	752	C7H6N+
105.0446	284	C6H5N2+
105.0571	67	C7H7N+
106.0649	486	C7H8N+
107.0289	54	C7H4F+
107.0602	14	C6H7N2+
107.0727	180	C7H9N+
108.0442	15	C6H6NO+
108.0679	7	C6H8N2+
108.0806	88	C7H10N+
109.0446	122	C7H6F+
110.0599	23	C6H8NO+
113.0394	15	C6H6FO+
114.0337	16	C8H4N+
114.0463	2	C4H5FN3+
115.0415	18	C8H5N+
115.0541	39	C4H6FN3+
116.0492	54	C8H6N+
117.0445	141	C7H5N2+
117.0571	82	C8H7N+
118.0523	33	C7H6N2+
118.0648	44	C8H8N+
119.0602	378	C7H7N2+
120.0442	30	C7H6NO+
120.068	74	C7H8N2+
121.0319	3	C7H4FN+
121.0445	2	C8H6F+
121.0758	12	C7H9N2+
122.0398	83	C7H5FN+
123.0238	10	C7H4FO+
123.0351	29	C6H4FN2+
126.0461	2	C5H5FN3+
127.054	14	C5H6FN3+
128.0491	3	C9H6N+
128.062	13	
129.0445	31	C8H5N2+
130.0398	132	C7H4N3+
131.0602	126	C8H7N2+
132.0442	10	C8H6NO+
132.0555	12	C7H6N3+
132.068	99	C8H8N2+
133.0446	98	C9H6F+
133.0521	9	C8H7NO+
133.0757	54	C8H9N2+
134.0398	19	C8H5FN+
134.0526	4	C9H7F+
134.0597	22	C8H8NO+
134.0836	8	C8H10N2+
135.0475	11	C8H6FN+
135.055	76	C7H7N2O+
135.0914	62	C8H11N2+
136.0555	8	C8H7FN+
139.054	76	C6H6FN3+
140.0493	52	C10H6N+
140.0617	11	C6H7FN3+
141.0571	2	C10H7N+
141.0695	12	C6H8FN3+
142.0522	1	C9H6N2+
143.048	3	C8H5N3+
143.0602	3	C9H7N2+
144.0554	194	C8H6N3+
145.0444	3	C10H6F+
145.0641	19	C8H7N3+
145.0759	3	C9H9N2+
146.0524	27	C10H7F+
146.0599	7	C9H8NO+
146.071	85	C8H8N3+
147.055	7	C8H7N2O+
147.0602	3	C10H8F+
148.0629	8	C8H8N2O+
149.0384	8	C7H4FN3+
149.0705	2	C8H9N2O+
150.0462	18	C7H5FN3+
151.0539	52	C7H6FN3+
152.0618	215	C7H7FN3+
153.057	12	C11H7N+
153.0696	53	C7H8FN3+
154.0648	20	C11H8N+
155.06	27	C10H7N2+
157.0446	44	C11H6F+
158.0398	9	C10H5FN+
158.0523	8	C11H7F+
158.0709	1	C9H8N3+
159.0603	17	C11H8F+
160.0867	4	C9H10N3+
161.0633	25	C10H8FN+
161.0705	3	C9H9N2O+
163.0539	87	C8H6FN3+
164.0493	43	C12H6N+
164.0614	19	C8H7FN3+
165.0447	2	C11H5N2+
165.0574	14	C12H7N+
165.0696	41	C8H8FN3+
166.0649	144	C12H8N+
167.0727	93	C12H9N+
168.0362	2	C12H5F+
168.0565	8	C7H7FN3O+
168.0805	16	C12H10N+
169.0447	6	C12H6F+
169.0645	93	C7H8FN3O+
170.0524	117	C12H7F+
170.0597	12	C11H8NO+
171.0478	2	C11H6FN+
171.0601	47	C12H8F+
172.0551	23	C11H7FN+
173.0506	12	C10H6FN2+
173.0631	2	C11H8FN+
174.0711	36	C11H9FN+
175.0415	2	C13H5N+
176.0491	11	C13H6N+
176.061	2	C9H7FN3+
177.057	65	C13H7N+
178.0649	123	C13H8N+
179.0602	54	C12H7N2+
179.0726	66	C13H9N+
180.0555	6	C11H6N3+
180.0805	105	C13H10N+
181.0445	46	C13H6F+
181.0757	8	C12H9N2+
181.0882	43	C13H11N+
182.0524	49	C13H7F+
182.06	4	C12H8NO+
183.0602	293	C13H8F+
184.0553	29	C12H7FN+
184.0678	2	C13H9F+
184.0752	2	C12H10NO+
185.0633	66	C12H8FN+
186.0472	14	C12H7FO+
186.071	20	C12H9FN+
187.0554	17	C12H8FO+
187.079	3	C12H10FN+
188.0494	8	C14H6N+
189.0568	7	C14H7N+
190.0648	110	C14H8N+
191.06	33	C13H7N2+
191.0726	34	C14H9N+
192.0678	78	C13H8N2+
192.081	6	C14H10N+
193.0757	77	C13H9N2+
194.0521	4	C14H7F+
194.0598	39	C13H8NO+
194.0835	23	C13H10N2+
195.0472	22	C13H6FN+
195.0914	14	C13H11N2+
196.0556	33	C13H7FN+
196.0755	8	C13H10NO+
197.0508	13	C12H6FN2+
197.063	33	C13H8FN+
198.071	221	C13H9FN+
199.0661	8	C12H8FN2+
199.0791	2	C13H10FN+
200.074	4	C12H9FN2+
200.0864	3	C13H11FN+
201.0566	6	C15H7N+
202.052	4	C14H6N2+
203.06	42	C14H7N2+
204.0553	35	C13H6N3+
204.0677	9	C14H8N2+
205.0757	159	C14H9N2+
206.0835	37	C14H10N2+
207.0911	14	C14H11N2+
208.0554	74	C14H7FN+
209.0632	100	C14H8FN+
210.0584	10	C13H7FN2+
210.0709	29	C14H9FN+
211.0789	50	C14H10FN+
212.0503	2	C13H7FNO+
212.0742	21	C13H9FN2+
213.082	54	C13H10FN2+
214.0423	8	C16H6O+
214.0657	7	C13H9FNO+
217.0632	17	C14H7N3+
218.0711	18	C14H8N3+
218.084	8	C15H10N2+
219.0788	9	C14H9N3+
219.0911	12	C15H11N2+
220.0866	117	C14H10N3+
221.0506	7	C14H6FN2+
221.0708	30	C14H9N2O+
222.0458	3	C13H5FN3+
222.0711	8	C15H9FN+
223.0662	71	C14H8FN2+
224.0742	30	C14H9FN2+
225.0818	65	C14H10FN2+
226.0898	38	C14H11FN2+
229.0519	2	C16H7NO+
237.082	2	C15H10FN2+
238.0771	52	C14H9FN3+
239.0613	15	C14H8FN2O+
239.0848	3	C14H10FN3+
240.0926	69	C14H11FN3+
248.0809	2	C15H10N3O+
