Mass spectrum: 2,6-Di-tert-butylpyridine; LC-ESI-QFT; MS2; CE: 60; R=35000; [M+H]+
Name: 2,6-Di-tert-butylpyridine
Name: 2,6-ditert-butylpyridine
Name: 2,6-Bis(2-methyl-2-propanyl)pyridine
Formula: C13H21N
Exact mass: 191.16740
SMILES: CC(C)(C)C1=NC(=CC=C1)C(C)(C)C
InChI: InChI=1S/C13H21N/c1-12(2,3)10-8-7-9-11(14-10)13(4,5)6/h7-9H,1-6H3
Instrument: Q Exactive Plus Orbitrap Thermo Scientific
Instrument type: LC-ESI-QFT
Ms type: MS2
Ion mode: POSITIVE
Ionization: ESI
Fragmentation mode: HCD
Collision energy: 60 (nominal)
Resolution: 35000
Column name: XBridge C18 3.5um, 2.1x50mm, Waters
Retention time: 5.5 min
Base peak: 164.9844
Precursor m/z: 192.1747
Precursor type: [M+H]+
m/z	relative intensity	assigned
55.0179	1	C3H3O+
55.0542	9	C4H7+
57.0697	1	C4H9+
59.0491	2	C3H7O+
69.0698	6	C5H9+
83.0854	25	C6H11+
93.0698	1	C7H9+
105.0699	6	C8H9+
111.0803	3	C7H11O+
114.0913	2	C6H12NO+
119.0492	3	C8H7O+
121.0886	18	C8H11N+
122.06	1	C7H8NO+
133.0648	3	C9H9O+
135.1041	1	C9H13N+
136.1122	1	C9H14N+
146.0964	1	C10H12N+
147.1037	1	C10H13N+
148.112	24	C10H14N+
149.1199	24	C10H15N+
162.1277	123	C11H16N+
163.1355	217	C11H17N+
164.1433	1	C11H18N+
176.1433	70	C12H18N+
177.1512	400	C12H19N+
192.1746	999	C13H22N+
