Mass spectrum: N4-Acetylsulfamethazine; LC-ESI-ITFT; MS2; CE: 75%; R=7500; [M+H]+
Name: N4-Acetylsulfamethazine
Name: N-[4-[(4,6-dimethyl-2-pyrimidinyl)sulfamoyl]phenyl]acetamide
Formula: C14H16N4O3S
Exact mass: 320.0943
SMILES: O=S(=O)(c1ccc(cc1)NC(=O)C)Nc1nc(cc(n1)C)C
InChI: InChI=1S/C14H16N4O3S/c1-9-8-10(2)16-14(15-9)18-22(20,21)13-6-4-12(5-7-13)17-11(3)19/h4-8H,1-3H3,(H,17,19)(H,15,16,18)
Instrument: LTQ Orbitrap XL Thermo Scientific
Instrument type: LC-ESI-ITFT
Ms type: MS2
Ion mode: POSITIVE
Ionization: ESI
Fragmentation mode: HCD
Collision energy: 75 % (nominal)
Resolution: 7500
Column name: XBridge C18 3.5um, 2.1x50mm, Waters
Retention time: 4.5 min
Base peak: 321.1027
Precursor m/z: 321.1016
Precursor type: [M+H]+
m/z	relative intensity	assigned
54.0337	9	C3H4N+
65.0386	999	C5H5+
68.0494	38	C4H6N+
79.0542	29	C6H7+
80.0495	22	C5H6N+
81.0448	51	C4H5N2+
82.0653	17	C5H8N+
83.0606	25	C4H7N2+
92.0495	217	C6H6N+
93.0335	80	C6H5O+
93.0571	48	C6H7N+
94.0652	49	C6H8N+
95.0604	249	C5H7N2+
96.0682	295	C5H8N2+
106.0652	73	C7H8N+
107.0607	36	C6H7N2+
108.0444	614	C6H6NO+
110.0601	21	C6H8NO+
122.0712	71	C6H8N3+
123.0791	390	C6H9N3+
124.0869	763	C6H10N3+
125.0712	54	C6H9N2O+
134.0601	745	C8H8NO+
156.0117	20	C6H6NO2S+
186.0329	50	C6H8N3O2S+
196.0861	27	C12H10N3+
198.0891	18	C11H10N4+
204.0436	16	C6H10N3O3S+
212.1055	102	C12H12N4+
213.1135	196	C12H13N4+
214.0974	37	C12H12N3O+
255.1245	36	C14H15N4O+
