Mass spectrum: 5-Hydroxy Diclofenac; LC-ESI-QFT; MS2; CE: 60; R=35000; [M-H]-
Name: 5-Hydroxy Diclofenac
Name: 5-hydroxydiclofenac
Name: 2-[2-(2,6-dichloroanilino)-5-hydroxyphenyl]acetic acid
Formula: C14H11Cl2NO3
Exact mass: 311.01160
SMILES: C1=CC(=C(C(=C1)Cl)NC2=C(C=C(C=C2)O)CC(=O)O)Cl
InChI: InChI=1S/C14H11Cl2NO3/c15-10-2-1-3-11(16)14(10)17-12-5-4-9(18)6-8(12)7-13(19)20/h1-6,17-18H,7H2,(H,19,20)
Instrument: Q Exactive Plus Orbitrap Thermo Scientific
Instrument type: LC-ESI-QFT
Ms type: MS2
Ion mode: NEGATIVE
Ionization: ESI
Fragmentation mode: HCD
Collision energy: 60 (nominal)
Resolution: 35000
Column name: XBridge C18 3.5um, 2.1x50mm, Waters
Retention time: 10.4 min
Base peak: 310.0042
Precursor m/z: 310.0043
Precursor type: [M-H]-
m/z	relative intensity	assigned
123.9959	31	C6H3ClN-
166.0662	501	C12H8N-
167.0503	410	C12H7O-
179.0376	55	C12H5NO-
187.0194	100	C11H6ClN-
188.0273	16	C11H7ClN-
192.0456	272	C13H6NO-
193.0533	159	C13H7NO-
194.0611	999	C13H8NO-
198.0559	11	C12H8NO2-
200.0274	11	C12H7ClN-
202.0428	9	C12H9ClN-
215.0145	530	C12H6ClNO-
228.0223	100	C13H7ClNO-
229.03	946	C13H8ClNO-
230.0378	361	C13H9ClNO-
266.0152	14	C13H10Cl2NO-
