Mass spectrum: delta9-Tetrahydrocannabinol; LC-ESI-QFT; MS2; CE: 60; R=35000; [M+H]+
Name: delta9-Tetrahydrocannabinol
Name: delta9-THC
Name: 6,6,9-trimethyl-3-pentyl-6a,7,8,10a-tetrahydrobenzo[c]chromen-1-ol
Formula: C21H30O2
Exact mass: 314.22458
SMILES: CCCCCC1=CC2=C(C3C=C(CCC3C(O2)(C)C)C)C(=C1)O
InChI: InChI=1S/C21H30O2/c1-5-6-7-8-15-12-18(22)20-16-11-14(2)9-10-17(16)21(3,4)23-19(20)13-15/h11-13,16-17,22H,5-10H2,1-4H3
Instrument: Q Exactive Plus Orbitrap Thermo Scientific
Instrument type: LC-ESI-QFT
Ms type: MS2
Ion mode: POSITIVE
Ionization: ESI
Fragmentation mode: HCD
Collision energy: 60 (nominal)
Resolution: 35000
Column name: XBridge C18 3.5um, 2.1x50mm, Waters
Retention time: 17.8 min
Base peak: 391.2837
Precursor m/z: 315.2319
Precursor type: [M+H]+
m/z	relative intensity	assigned
51.0227	2	C4H3+
53.0023	15	C3HO+
53.0386	19	C4H5+
53.9975	1	C2NO+
55.0179	20	C3H3O+
55.0543	111	C4H7+
57.0335	7	C3H5O+
57.0699	42	C4H9+
59.0491	3	C3H7O+
65.0386	11	C5H5+
67.0543	151	C5H7+
67.9893	3	C3O2+
69.0335	18	C4H5O+
69.0699	354	C5H9+
71.0491	5	C4H7O+
71.0855	47	C5H11+
73.0649	1	C4H9O+
77.0385	15	C6H5+
79.0543	176	C6H7+
80.062	1	C6H8+
81.0699	329	C6H9+
83.0128	12	C4H3O2+
83.0492	48	C5H7O+
83.0855	12	C6H11+
85.0284	1	C4H5O2+
85.0648	1	C5H9O+
91.0543	136	C7H7+
92.0621	3	C7H8+
93.07	517	C7H9+
94.0778	1	C7H10+
95.0492	85	C6H7O+
95.0856	87	C7H11+
97.0284	7	C5H5O2+
97.0648	23	C6H9O+
97.1012	28	C7H13+
99.0804	3	C6H11O+
101.0598	4	C5H9O2+
103.0543	5	C8H7+
105.0448	22	C6H5N2+
105.07	72	C8H9+
107.0492	64	C7H7O+
107.0856	312	C8H11+
108.0569	1	C7H8O+
109.0286	5	C6H5O2+
109.0649	91	C7H9O+
109.1013	114	C8H13+
111.0441	46	C6H7O2+
111.1168	5	C8H15+
115.0541	3	C9H7+
117.0699	14	C9H9+
119.0493	8	C8H7O+
119.0605	9	C7H7N2+
119.0856	60	C9H11+
120.0934	7	C9H12+
121.0649	76	C8H9O+
121.1013	75	C9H13+
123.0441	999	C7H7O2+
124.052	6	C7H8O2+
125.0598	14	C7H9O2+
128.0621	1	C10H8+
129.0698	8	C10H9+
131.0493	3	C9H7O+
131.0856	24	C10H11+
133.0285	1	C8H5O2+
133.0649	21	C9H9O+
133.1013	17	C10H13+
135.0442	29	C8H7O2+
135.0805	25	C9H11O+
135.1169	124	C10H15+
136.0517	7	C8H8O2+
136.1248	4	C10H16+
137.0598	136	C8H9O2+
139.1119	13	C9H15O+
142.0777	4	C11H10+
143.0857	15	C11H11+
144.0936	1	C11H12+
145.0649	14	C10H9O+
145.1012	10	C11H13+
147.0442	19	C9H7O2+
147.0805	21	C10H11O+
147.0917	1	C9H11N2+
147.117	13	C11H15+
148.0519	1	C9H8O2+
149.0599	24	C9H9O2+
149.0962	17	C10H13O+
149.1325	5	C11H17+
151.0755	29	C9H11O2+
155.0705	1	C8H11O3+
155.0858	1	C12H11+
156.0939	1	C12H12+
157.065	3	C11H9O+
157.1014	9	C12H13+
159.0806	29	C11H11O+
159.1172	8	C12H15+
160.0518	8	C10H8O2+
160.0886	1	C11H12O+
161.0599	43	C10H9O2+
161.0962	23	C11H13O+
162.0677	4	C10H10O2+
163.0755	29	C10H11O2+
163.1116	9	C11H15O+
165.0912	64	C10H13O2+
165.1275	8	C11H17O+
170.0728	1	C12H10O+
171.0805	22	C12H11O+
171.1169	1	C13H15+
172.0882	1	C12H12O+
173.0593	1	C11H9O2+
173.0964	5	C12H13O+
173.1326	1	C13H17+
174.0678	15	C11H10O2+
175.0756	22	C11H11O2+
175.112	12	C12H15O+
176.0835	1	C11H12O2+
177.0912	27	C11H13O2+
177.1276	60	C12H17O+
179.1067	3	C11H15O2+
181.1224	14	C11H17O2+
184.0885	4	C13H12O+
185.0963	11	C13H13O+
187.0753	4	C12H11O2+
187.1113	1	C13H15O+
188.0834	13	C12H12O2+
189.0912	27	C12H13O2+
189.1275	8	C13H17O+
191.1066	4	C12H15O2+
191.1431	8	C13H19O+
193.1225	653	C12H17O2+
197.096	1	C14H13O+
199.1121	1	C14H15O+
199.1484	4	C15H19+
201.0911	5	C13H13O2+
201.1276	1	C14H17O+
202.099	9	C13H14O2+
203.1068	5	C13H15O2+
203.1432	4	C14H19O+
205.1225	9	C13H17O2+
205.1589	5	C14H21O+
207.1382	37	C13H19O2+
211.1117	5	C15H15O+
213.1635	1	C16H21+
215.107	1	C14H15O2+
215.1429	3	C15H19O+
217.1225	77	C14H17O2+
218.1302	1	C14H18O2+
219.1381	5	C14H19O2+
221.154	10	C14H21O2+
225.1275	1	C16H17O+
226.1358	6	C16H18O+
227.1431	5	C16H19O+
229.122	4	C15H17O2+
229.1586	4	C16H21O+
231.1382	113	C15H19O2+
231.1748	5	C16H23O+
233.1537	29	C15H21O2+
235.1694	15	C15H23O2+
241.1588	15	C17H21O+
243.1383	1	C16H19O2+
244.1459	8	C16H20O2+
245.1538	16	C16H21O2+
247.1695	19	C16H23O2+
255.1744	4	C18H23O+
259.1695	79	C17H23O2+
315.2319	1	C21H31O2+
