Mass spectrum: Pyrazophos; LC-ESI-QFT; MS2; CE: 60%; R=17500; [M+H]+
Name: Pyrazophos
Name: ethyl 2-diethoxyphosphinothioyloxy-5-methylpyrazolo[1,5-a]pyrimidine-6-carboxylate
Formula: C14H20N3O5PS
Exact mass: 373.0861
SMILES: CCOC(=O)C1=CN2C(=CC(=N2)OP(=S)(OCC)OCC)N=C1C
InChI: InChI=1S/C14H20N3O5PS/c1-5-19-14(18)11-9-17-12(15-10(11)4)8-13(16-17)22-23(24,20-6-2)21-7-3/h8-9H,5-7H2,1-4H3
Instrument: Exploris 240 Orbitrap Thermo Scientific
Instrument type: LC-ESI-QFT
Ms type: MS2
Ion mode: POSITIVE
Ionization: ESI
Fragmentation mode: HCD
Collision energy: 60 % (nominal)
Resolution: 17500
Column name: XBridge C18 3.5um, 2.1x50mm, Waters
Retention time: 11.575 min
Base peak: 374.0932
Precursor m/z: 374.0934
Precursor type: [M+H]+
m/z	relative intensity	assigned
64.9787	36	H2O2P+
93.01	39	C2H6O2P+
96.9507	99	H2O2PS+
113.9535	103	H3O3PS+
114.9612	79	H4O3PS+
124.982	5	C2H6O2PS+
125.9898	5	C2H7O2PS+
141.9848	9	C2H7O3PS+
142.9927	11	C2H8O3PS+
148.0506	33	C7H6N3O+
159.0424	9	C8H5N3O+
165.0116	7	C7H5N2OS+
166.0609	23	C7H8N3O2+
176.0454	299	C8H6N3O2+
177.0301	17	C4H8N3O3P+
177.0532	125	C8H7N3O2+
178.061	5	C8H8N3O2+
180.0894	9	C9H12N2O2+
181.0067	22	C7H5N2O2S+
183.0223	88	C7H7N2O2S+
192.0231	20	C8H6N3OS+
194.056	999	C8H8N3O3+
205.0847	50	C10H11N3O2+
208.0181	24	C12H5N2P+
210.0328	60	C8H8N3O2S+
222.0872	195	C10H12N3O3+
236.0493	7	C10H10N3O2S+
238.0646	24	C10H12N3O2S+
