Mass spectrum: Thiamphenicol; LC-ESI-QFT; MS2; CE: 120; R=35000; [M+H]+
Name: Thiamphenicol
Name: 2,2-dichloro-N-[1,3-dihydroxy-1-(4-methylsulfonylphenyl)propan-2-yl]acetamide
Formula: C12H15Cl2NO5S
Exact mass: 355.00480
SMILES: CS(=O)(=O)C1=CC=C(C=C1)C(C(CO)NC(=O)C(Cl)Cl)O
InChI: InChI=1S/C12H15Cl2NO5S/c1-21(19,20)8-4-2-7(3-5-8)10(17)9(6-16)15-12(18)11(13)14/h2-5,9-11,16-17H,6H2,1H3,(H,15,18)
Instrument: Q Exactive Plus Orbitrap Thermo Scientific
Instrument type: LC-ESI-QFT
Ms type: MS2
Ion mode: POSITIVE
Ionization: ESI
Fragmentation mode: HCD
Collision energy: 120 (nominal)
Resolution: 35000
Column name: XBridge C18 3.5um, 2.1x50mm, Waters
Retention time: 3.7 min
Base peak: 373.0381
Precursor m/z: 356.0121
Precursor type: [M+H]+
m/z	relative intensity	assigned
50.0151	4	C4H2+
51.0227	4	C4H3+
53.0386	36	C4H5+
55.0179	5	C3H3O+
62.9899	2	CH3OS+
63.0228	5	C5H3+
63.9949	13	CH3ClN+
65.0386	90	C5H5+
66.0464	6	C5H6+
67.0417	5	C4H5N+
74.0151	3	C6H2+
75.0229	11	C6H3+
76.0307	11	C6H4+
77.0385	33	C6H5+
78.0464	28	C6H6+
78.9848	13	CH3O2S+
79.0542	24	C6H7+
80.0494	10	C5H6N+
81.0336	6	C5H5O+
82.945	999	CHCl2+
89.0386	30	C7H5+
90.0465	23	C7H6+
91.0543	724	C7H7+
92.0621	50	C7H8+
93.0573	8	C6H7N+
93.07	3	C7H9+
94.0413	3	C6H6O+
95.0492	122	C6H7O+
96.0444	2	C5H6NO+
101.0387	7	C8H5+
102.0465	90	C8H6+
103.0543	336	C8H7+
104.0495	100	C7H6N+
104.0619	5	C8H8+
105.0448	90	C6H5N2+
106.0651	8	C7H8N+
107.0492	23	C7H7O+
113.0386	2	C9H5+
114.0465	2	C9H6+
115.0543	150	C9H7+
116.0496	9	C8H6N+
116.062	2	C9H8+
117.0573	105	C8H7N+
118.0652	553	C8H8N+
119.0491	11	C8H7O+
119.073	64	C8H9N+
120.057	8	C8H8O+
120.0809	9	C8H10N+
126.0465	4	C10H6+
127.0542	6	C10H7+
128.0495	49	C9H6N+
128.0621	38	C10H8+
129.0447	28	C8H5N2+
129.0573	7	C9H7N+
130.0652	125	C9H8N+
131.0492	49	C9H7O+
132.057	3	C9H8O+
134.0601	10	C8H8NO+
137.0151	1	C8H6Cl+
140.0495	7	C10H6N+
141.0573	2	C10H7N+
142.0652	3	C10H8N+
145.0648	3	C10H9O+
146.06	10	C9H8NO+
149.0156	1	C9H6Cl+
151.0629	7	C8H9NO2+
153.0574	1	C11H7N+
155.0605	12	C4H13NO3S+
161.0473	1	C9H7NO2+
164.0261	1	C9H7ClN+
166.0321	1	C8H8NOS+
170.0601	6	C11H8NO+
