Mass spectrum: Florfenicol; LC-ESI-QFT; MS2; CE: 60; R=35000; [M-H]-
Name: Florfenicol
Name: 2,2-dichloro-N-{3-fluoro-1-hydroxy-1-[4-(methylsulfonyl)phenyl]propan-2-yl}acetamide
Name: 2,2-dichloro-N-[3-fluoro-1-hydroxy-1-(4-methylsulfonylphenyl)propan-2-yl]acetamide
Formula: C12H14Cl2FNO4S
Exact mass: 357.00046
SMILES: CS(=O)(=O)C1=CC=C(C=C1)C(C(CF)NC(=O)C(Cl)Cl)O
InChI: InChI=1S/C12H14Cl2FNO4S/c1-21(19,20)8-4-2-7(3-5-8)10(17)9(6-15)16-12(18)11(13)14/h2-5,9-11,17H,6H2,1H3,(H,16,18)
Instrument: Q Exactive Plus Orbitrap Thermo Scientific
Instrument type: LC-ESI-QFT
Ms type: MS2
Ion mode: NEGATIVE
Ionization: ESI
Fragmentation mode: HCD
Collision energy: 60 (nominal)
Resolution: 35000
Column name: XBridge C18 3.5um, 2.1x50mm, Waters
Retention time: 4.6 min
Base peak: 355.9929
Precursor m/z: 355.9932
Precursor type: [M-H]-
m/z	relative intensity	assigned
63.9624	134	O2S-
70.946	1	Cl2H-
78.9859	666	CH3O2S-
82.9461	143	CHCl2-
88.0204	1	C3H3FNO-
105.0343	6	C7H5O-
107.9413	5	C2Cl2N-
117.0711	5	C9H9-
119.0502	999	C8H7O-
121.0295	54	C7H5O2-
121.0659	20	C8H9O-
123.9987	1	C6H4OS-
130.0425	1	C9H6O-
139.9937	4	C6H4O2S-
145.0292	1	C9H5O2-
145.0658	8	C10H9O-
146.0246	3	C8H4NO2-
151.9673	3	C4H4Cl2NO-
155.0173	86	C7H7O2S-
157.0535	1	C10H7NO-
160.0406	1	C9H6NO2-
168.9965	263	C7H5O3S-
170.0043	53	C7H6O3S-
173.048	3	C10H7NO2-
181.033	6	C9H9O2S-
183.0122	6	C8H7O3S-
184.0198	10	C8H8O3S-
185.0277	126	C8H9O3S-
193.9917	1	C8H4NO3S-
194.0041	1	C9H6O3S-
209.0153	1	C9H7NO3S-
