Mass spectrum: Iomeprol; LC-ESI-ITFT; MS2; CE: 75%; R=7500; [M+H]+
Name: Iomeprol
Name: 1-N,3-N-bis(2,3-dihydroxypropyl)-5-[(2-hydroxyacetyl)-methylamino]-2,4,6-triiodobenzene-1,3-dicarboxamide
Formula: C17H22I3N3O8
Exact mass: 776.8541
SMILES: Ic1c(c(I)c(c(I)c1N(C)C(=O)CO)C(=O)NCC(O)CO)C(=O)NCC(O)CO
InChI: InChI=1S/C17H22I3N3O8/c1-23(9(29)6-26)15-13(19)10(16(30)21-2-7(27)4-24)12(18)11(14(15)20)17(31)22-3-8(28)5-25/h7-8,24-28H,2-6H2,1H3,(H,21,30)(H,22,31)
Instrument: LTQ Orbitrap XL Thermo Scientific
Instrument type: LC-ESI-ITFT
Ms type: MS2
Ion mode: POSITIVE
Ionization: ESI
Fragmentation mode: HCD
Collision energy: 75 % (nominal)
Resolution: 7500
Column name: XBridge C18 3.5um, 2.1x50mm, Waters
Retention time: 1.6 min
Base peak: 132.9578
Precursor m/z: 777.8614
Precursor type: [M+H]+
m/z	relative intensity	assigned
72.0442	11	C3H6NO+
79.0416	25	C5H5N+
80.0492	9	C5H6N+
90.0339	31	C6H4N+
91.0417	41	C6H5N+
92.0493	24	C6H6N+
103.0417	12	C7H5N+
104.0494	37	C7H6N+
106.0291	26	C6H4NO+
108.0442	20	C6H6NO+
118.0286	36	C7H4NO+
119.0363	76	C7H5NO+
120.0444	30	C7H6NO+
131.0364	29	C8H5NO+
136.0392	24	C7H6NO2+
146.0237	80	C8H4NO2+
147.0315	23	C8H5NO2+
148.0397	48	C8H6NO2+
149.0476	31	C8H7NO2+
160.0394	29	C9H6NO2+
161.0469	99	C9H7NO2+
162.0184	11	C8H4NO3+
162.0549	55	C9H8NO2+
164.0343	36	C8H6NO3+
176.0334	25	C9H6NO3+
177.0422	99	C9H7NO3+
177.9156	12	C3HIN+
178.0497	25	C9H8NO3+
188.919	27	C5H2I+
193.037	71	C9H7NO4+
195.0526	33	C9H9NO4+
204.0307	13	C11H2N5+
205.0605	19	C10H9N2O3+
217.9456	39	C6H5IN+
231.925	14	C6H3INO+
245.941	46	C7H5INO+
247.0722	15	C12H11N2O4+
257.9408	201	C8H5INO+
273.9355	75	C8H5INO2+
287.9514	999	C9H7INO2+
291.9461	14	C8H7INO3+
301.9309	15	C9H5INO3+
331.9419	22	C10H7INO4+
