Mass spectrum: Clopidogrel carboxylic acid; LC-ESI-ITFT; MS2; CE: 30%; R=7500; [M+H]+
Name: Clopidogrel carboxylic acid
Name: 2-(2-chlorophenyl)-2-(6,7-dihydro-4H-thieno[3,2-c]pyridin-5-yl)acetic acid
Formula: C15H14ClNO2S
Exact mass: 307.0434
SMILES: C1CN(CC2=C1SC=C2)C(C3=CC=CC=C3Cl)C(=O)O
InChI: InChI=1S/C15H14ClNO2S/c16-12-4-2-1-3-11(12)14(15(18)19)17-7-5-13-10(9-17)6-8-20-13/h1-4,6,8,14H,5,7,9H2,(H,18,19)
Instrument: LTQ Orbitrap XL Thermo Scientific
Instrument type: LC-ESI-ITFT
Ms type: MS2
Ion mode: POSITIVE
Ionization: ESI
Fragmentation mode: HCD
Collision energy: 30 % (nominal)
Resolution: 7500
Column name: XBridge C18 3.5um, 2.1x50mm, Waters
Retention time: 5.7 min
Base peak: 308.0518
Precursor m/z: 308.0507
Precursor type: [M+H]+
m/z	relative intensity	assigned
111.0261	9	C6H7S+
125.0153	34	C7H6Cl+
140.0259	6	C7H7ClN+
141.0101	7	C7H6ClO+
152.0263	256	C8H7ClN+
169.0052	75	C8H6ClO2+
170.0368	212	C8H9ClNO+
198.0318	999	C9H9ClNO2+
262.0454	5	C14H13ClNS+
308.0508	264	C15H15ClNO2S+
