Mass spectrum: MCLA; LC-ESI-QFT; MS2; CE: 120%; R=17500; [M+H]+
Name: MCLA
Name: Microcystin LA
Name: (5R,8S,11R,12S,15S,18S,19S,22R)-18-[(1E,3E,5S,6S)-6-methoxy-3,5-dimethyl-7-phenylhepta-1,3-dienyl]-1,5,12,15,19-pentamethyl-2-methylidene-8-(2-methylpropyl)-3,6,9,13,16,20,25-heptaoxo-1,4,7,10,14,17,21-heptazacyclopentacosane-11,22-dicarboxylic acid
Class: NA
Formula: C46H67N7O12
Exact mass: 909.4848
SMILES: CO[C@@H](Cc1ccccc1)[C@@H](C)\C=C(C)\C=C\[C@@H]2NC(=O)[C@H](C)NC(=O)[C@@H](C)[C@@H](NC(=O)[C@H](CC(C)C)NC(=O)[C@@H](C)NC(=O)C(=C)N(C)C(=O)CC[C@@H](NC(=O)[C@H]2C)C(O)=O)C(O)=O
InChI: InChI=1S/C46H67N7O12/c1-24(2)21-35-44(60)52-38(46(63)64)28(6)40(56)47-29(7)41(57)49-33(18-17-25(3)22-26(4)36(65-11)23-32-15-13-12-14-16-32)27(5)39(55)50-34(45(61)62)19-20-37(54)53(10)31(9)43(59)48-30(8)42(58)51-35/h12-18,22,24,26-30,33-36,38H,9,19-21,23H2,1-8,10-11H3,(H,47,56)(H,48,59)(H,49,57)(H,50,55)(H,51,58)(H,52,60)(H,61,62)(H,63,64)/b18-17+,25-22+/t26-,27-,28-,29-,30+,33-,34+,35-,36-,38+/m0/s1
Instrument: Q Exactive Plus Orbitrap Thermo Scientific
Instrument type: LC-ESI-QFT
Ms type: MS2
Ion mode: POSITIVE
Ionization: ESI
Fragmentation mode: HCD
Collision energy: 120 % (nominal)
Resolution: 17500
Column name: XBridge C18 3.5um, 2.1x50mm, Waters
Retention time: 10.516 min
Base peak: 164.9846
Precursor m/z: 910.492
Precursor type: [M+H]+
m/z	relative intensity	assigned
65.0386	171	C5H5+
67.0416	19	C4H5N+
67.0542	46	C5H7+
68.0495	9	C4H6N+
69.0334	15	C4H5O+
69.0699	16	C5H9+
70.0653	5	C4H8N+
74.0237	24	C2H4NO2+
77.0385	59	C6H5+
78.0463	11	C6H6+
79.0542	254	C6H7+
80.0494	70	C5H6N+
81.0335	9	C5H5O+
81.0574	6	C5H7N+
81.0698	12	C6H9+
82.0288	27	C4H4NO+
82.0651	84	C5H8N+
84.0445	102	C4H6NO+
84.0809	7	C5H10N+
85.0284	16	C4H5O2+
86.0602	7	C4H8NO+
86.0965	34	C5H12N+
91.0543	999	C7H7+
92.0621	27	C7H8+
93.0577	5	C6H7N+
93.0698	64	C7H9+
94.0651	34	C6H8N+
95.0492	595	C6H7O+
95.0851	6	
96.0443	7	C5H6NO+
96.0682	5	C5H8N2+
96.0807	6	C6H10N+
99.0919	23	C5H11N2+
102.0464	31	C8H6+
103.0542	763	C8H7+
105.0448	188	C6H5N2+
105.0699	317	C8H9+
106.0524	18	C6H6N2+
107.0855	151	C8H11+
108.0683	10	C6H8N2+
109.0648	62	C7H9O+
110.0601	10	C6H8NO+
113.0232	15	C5H5O3+
115.0542	120	C9H7+
116.062	21	C9H8+
117.0699	37	C9H9+
118.0652	3	C8H8N+
119.0605	37	C7H7N2+
119.0854	17	C9H11+
120.057	10	C8H8O+
120.0807	12	C8H10N+
120.0936	6	C9H12+
121.0759	60	C7H9N2+
127.0865	55	C6H11N2O+
128.0621	59	C10H8+
129.0699	28	C10H9+
130.0773	7	C10H10+
131.0854	20	C10H11+
141.0697	10	C11H9+
145.0644	6	C10H9O+
149.0709	5	C8H9N2O+
155.0604	6	C10H7N2+
165.0698	36	C13H9+
178.0781	16	H12N5O6+
179.0858	13	H13N5O6+
