Mass spectrum: 4-Chlorobenzenesulfonamide; LC-ESI-QFT; MS2; CE: 15; R=35000; [M-H]-
Name: 4-Chlorobenzenesulfonamide
Name: 4-chlorobenzenesulfonamide
Formula: C6H6ClNO2S
Exact mass: 190.98078
SMILES: C1=CC(=CC=C1S(=O)(=O)N)Cl
InChI: InChI=1S/C6H6ClNO2S/c7-5-1-3-6(4-2-5)11(8,9)10/h1-4H,(H2,8,9,10)
Instrument: Q Exactive Orbitrap Thermo Scientific
Instrument type: LC-ESI-QFT
Ms type: MS2
Ion mode: NEGATIVE
Ionization: ESI
Fragmentation mode: HCD
Collision energy: 15 (nominal)
Resolution: 35000
Column name: XBridge C18 3.5um, 2.1x50mm, Waters
Retention time: 5.6 min
Base peak: 189.9738
Precursor m/z: 189.9735
Precursor type: [M-H]-
m/z	relative intensity	assigned
61.9706	17	NOS-
63.9625	10	O2S-
77.9655	28	NO2S-
78.9733	20	HNO2S-
79.9811	57	H2NO2S-
126.0116	999	C6H5ClN-
126.9957	15	C6H4ClO-
189.9735	919	C6H5ClNO2S-
