Mass spectrum: Paichongding; LC-ESI-QFT; MS2; CE: 15%; R=17500; [M+H]+
Name: Paichongding
Name: 1-[(6-chloropyridin-3-yl)methyl]-7-methyl-8-nitro-5-propoxy-3,5,6,7-tetrahydro-2H-imidazo[1,2-a]pyridine
Formula: C17H23ClN4O3
Exact mass: 366.1459
SMILES: CCCOC1CC(C(=C2N1CCN2CC3=CN=C(C=C3)Cl)[N+](=O)[O-])C
InChI: InChI=1S/C17H23ClN4O3/c1-3-8-25-15-9-12(2)16(22(23)24)17-20(6-7-21(15)17)11-13-4-5-14(18)19-10-13/h4-5,10,12,15H,3,6-9,11H2,1-2H3
Instrument: Exploris 240 Orbitrap Thermo Scientific
Instrument type: LC-ESI-QFT
Ms type: MS2
Ion mode: POSITIVE
Ionization: ESI
Fragmentation mode: HCD
Collision energy: 15 % (nominal)
Resolution: 17500
Column name: XBridge C18 3.5um, 2.1x50mm, Waters
Retention time: 5.460 min
Base peak: 367.1531
Precursor m/z: 367.1531
Precursor type: [M+H]+
m/z	relative intensity	assigned
113.0962	3	C7H13O+
263.1185	136	C14H18ClN3+
278.1051	10	C17H14N2O2+
279.1125	5	C17H15N2O2+
306.1359	25	C16H21ClN3O+
321.1604	458	C17H24ClN3O+
337.1547	14	C17H24ClN3O2+
350.1508	7	C17H23ClN4O2+
367.1532	999	C17H24ClN4O3+
