Mass spectrum: Isoproturon-monodemethyl; LC-ESI-ITFT; MS2; CE: 90%; R=7500; [M+H]+
Name: Isoproturon-monodemethyl
Name: 1-(4-Isoprophenyl)-3-methylurea
Formula: C11H16N2O
Exact mass: 192.1263
SMILES: N(C(=O)Nc1ccc(cc1)C(C)C)C
InChI: InChI=1S/C11H16N2O/c1-8(2)9-4-6-10(7-5-9)13-11(14)12-3/h4-8H,1-3H3,(H2,12,13,14)
Instrument: LTQ Orbitrap XL Thermo Scientific
Instrument type: LC-ESI-ITFT
Ms type: MS2
Ion mode: POSITIVE
Ionization: ESI
Fragmentation mode: HCD
Collision energy: 90 % (nominal)
Resolution: 7500
Column name: XBridge C18 3.5um, 2.1x50mm, Waters
Retention time: 8.6 min
Base peak: 193.1341
Precursor m/z: 193.1335
Precursor type: [M+H]+
m/z	relative intensity	assigned
53.0387	4	C4H5+
58.0288	41	C2H4NO+
77.0386	106	C6H5+
91.0543	60	C7H7+
92.0495	11	C6H6N+
93.0574	9	C6H7N+
94.0652	999	C6H8N+
95.0492	11	C6H7O+
104.0622	10	C8H8+
105.0447	30	C6H5N2+
107.0854	13	C8H11+
117.0698	10	C9H9+
119.0728	11	C8H9N+
120.0448	7	C7H6NO+
120.0806	5	C8H10N+
121.0892	6	C8H11N+
134.0965	22	C9H12N+
136.1121	63	C9H14N+
147.0924	5	C9H11N2+
