Mass spectrum: Nornicotine; LC-ESI-QFT; MS2; CE: 180; R=35000; [M+H]+
Name: Nornicotine
Name: 3-pyrrolidin-2-ylpyridine
Formula: C9H12N2
Exact mass: 148.10005
SMILES: c1cc(cnc1)C2CCCN2
InChI: InChI=1S/C9H12N2/c1-3-8(7-10-5-1)9-4-2-6-11-9/h1,3,5,7,9,11H,2,4,6H2
Instrument: Q Exactive Plus Orbitrap Thermo Scientific
Instrument type: LC-ESI-QFT
Ms type: MS2
Ion mode: POSITIVE
Ionization: ESI
Fragmentation mode: HCD
Collision energy: 180 (nominal)
Resolution: 35000
Column name: XBridge C18 3.5um, 2.1x50mm, Waters
Retention time: 1.0 min
Base peak: 149.1072
Precursor m/z: 149.1073
Precursor type: [M+H]+
m/z	relative intensity	assigned
50.0151	108	C4H2+
51.023	325	C4H3+
52.0307	18	C4H4+
53.0386	376	C4H5+
54.0339	10	C3H4N+
63.0229	114	C5H3+
64.0308	40	C5H4+
65.0386	345	C5H5+
66.0464	50	C5H6+
67.0416	38	C4H5N+
68.0494	29	C4H6N+
70.0651	329	C4H8N+
75.0229	15	C6H3+
77.0385	183	C6H5+
78.0338	193	C5H4N+
79.0416	60	C5H5N+
79.0542	15	C6H7+
80.0494	515	C5H6N+
81.0335	5	C5H5O+
89.0386	999	C7H5+
90.0464	374	C7H6+
91.0542	211	C7H7+
92.0495	75	C6H6N+
93.0573	61	C6H7N+
95.0491	270	C6H7O+
96.0444	171	C5H6NO+
102.0464	27	C8H6+
103.0542	108	C8H7+
104.0494	13	C7H6N+
105.0447	134	C6H5N2+
106.0652	19	C7H8N+
110.0599	10	C6H8NO+
115.0541	9	C9H7+
116.0495	41	C8H6N+
117.0573	386	C8H7N+
118.0651	87	C8H8N+
128.0493	10	C9H6N+
130.0652	145	C9H8N+
146.0601	2	C9H8NO+
