Mass spectrum: Norfentanyl; LC-ESI-QFT; MS2; CE: 120; R=35000; [M+H]+
Name: Norfentanyl
Name: N-phenyl-N-piperidin-4-ylpropanamide
Formula: C14H20N2O
Exact mass: 232.15756
SMILES: CCC(=O)N(C1CCNCC1)C2=CC=CC=C2
InChI: InChI=1S/C14H20N2O/c1-2-14(17)16(12-6-4-3-5-7-12)13-8-10-15-11-9-13/h3-7,13,15H,2,8-11H2,1H3
Instrument: Q Exactive Plus Orbitrap Thermo Scientific
Instrument type: LC-ESI-QFT
Ms type: MS2
Ion mode: POSITIVE
Ionization: ESI
Fragmentation mode: HCD
Collision energy: 120 (nominal)
Resolution: 35000
Column name: XBridge C18 3.5um, 2.1x50mm, Waters
Retention time: 4.7 min
Base peak: 233.1641
Precursor m/z: 233.1648
Precursor type: [M+H]+
m/z	relative intensity	assigned
51.0229	5	C4H3+
53.0022	6	C3HO+
53.0386	71	C4H5+
53.9974	1	C2NO+
54.0338	1	C3H4N+
55.0542	999	C4H7+
56.0494	403	C3H6N+
57.0334	36	C3H5O+
57.0699	6	C4H9+
65.0385	12	C5H5+
67.0417	3	C4H5N+
67.0542	43	C5H7+
67.9893	1	C3O2+
68.0494	10	C4H6N+
69.0572	13	C4H7N+
77.0384	14	C6H5+
80.0495	1	C5H6N+
82.065	20	C5H8N+
84.0807	83	C5H10N+
93.0575	5	C6H7N+
94.0651	128	C6H8N+
95.0491	30	C6H7O+
105.0447	25	C6H5N2+
106.0653	1	C7H8N+
117.0572	7	C8H7N+
120.0811	2	C8H10N+
