Mass spectrum: Pyrimidinol; LC-ESI-ITFT; MS2; CE: 90%; R=7500; [M+H]+
Name: Pyrimidinol
Name: 2-isopropyl-6-methyl-1H-pyrimidin-4-one
Formula: C8H12N2O
Exact mass: 152.0950
SMILES: O=C/1/N=C(\N\C(=C\1)C)C(C)C
InChI: InChI=1S/C8H12N2O/c1-5(2)8-9-6(3)4-7(11)10-8/h4-5H,1-3H3,(H,9,10,11)
Instrument: LTQ Orbitrap XL Thermo Scientific
Instrument type: LC-ESI-ITFT
Ms type: MS2
Ion mode: POSITIVE
Ionization: ESI
Fragmentation mode: HCD
Collision energy: 90 % (nominal)
Resolution: 7500
Column name: XBridge C18 3.5um, 2.1x50mm, Waters
Retention time: 3.4 min
Base peak: 153.1023
Precursor m/z: 153.1022
Precursor type: [M+H]+
m/z	relative intensity	assigned
56.0495	6	C3H6N+
67.0179	7	C4H3O+
70.0651	224	C4H8N+
84.0444	999	C4H6NO+
137.071	21	C7H9N2O+
138.0789	12	C7H10N2O+
153.102	214	C8H13N2O+
