Mass spectrum: Dicloxacillin; LC-ESI-QFT; MS2; CE: 120; R=35000; [M-H]-
Name: Dicloxacillin
Name: 6-[[3-(2,6-dichlorophenyl)-5-methyl-1,2-oxazole-4-carbonyl]amino]-3,3-dimethyl-7-oxo-4-thia-1-azabicyclo[3.2.0]heptane-2-carboxylic acid
Formula: C19H17Cl2N3O5S
Exact mass: 469.02660
SMILES: CC1=C(C(=NO1)C2=C(C=CC=C2Cl)Cl)C(=O)NC3C4N(C3=O)C(C(S4)(C)C)C(=O)O
InChI: InChI=1S/C19H17Cl2N3O5S/c1-7-10(12(23-29-7)11-8(20)5-4-6-9(11)21)15(25)22-13-16(26)24-14(18(27)28)19(2,3)30-17(13)24/h4-6,13-14,17H,1-3H3,(H,22,25)(H,27,28)
Instrument: Q Exactive Plus Orbitrap Thermo Scientific
Instrument type: LC-ESI-QFT
Ms type: MS2
Ion mode: NEGATIVE
Ionization: ESI
Fragmentation mode: HCD
Collision energy: 120 (nominal)
Resolution: 35000
Column name: XBridge C18 3.5um, 2.1x50mm, Waters
Retention time: 9.5 min
Base peak: 468.0196
Precursor m/z: 468.0193
Precursor type: [M-H]-
m/z	relative intensity	assigned
50.0035	43	C3N-
56.9805	74	C2HS-
57.9757	173	CNS-
58.9961	11	C2H3S-
59.9914	8	CH2NS-
64.0067	12	C3N2-
64.0193	17	C4H2N-
65.0146	47	C3HN2-
65.9986	999	C3NO-
70.9836	191	C2HNS-
72.9994	229	C2H3NS-
74.0038	15	C5N-
74.9912	105	C2H3OS-
81.9758	17	C3NS-
82.0299	33	C4H4NO-
83.0139	181	C4H3O2-
90.035	16	C6H4N-
115.03	8	C7H3N2-
116.0143	9	C7H2NO-
151.9908	9	C7H3ClNO-
