Mass spectrum: Metrafenone; LC-ESI-QFT; MS2; CE: 60; R=35000; [M+H]+
Name: Metrafenone
Name: (3-bromo-6-methoxy-2-methylphenyl)(2,3,4-trimethoxy-6-methylphenyl)methanone
Name: (3-bromanyl-6-methoxy-2-methyl-phenyl)-(2,3,4-trimethoxy-6-methyl-phenyl)methanone
Formula: C19H21BrO5
Exact mass: 408.05724
SMILES: Brc2ccc(OC)c(C(=O)c1c(cc(OC)c(OC)c1OC)C)c2C
InChI: InChI=1S/C19H21BrO5/c1-10-9-14(23-4)18(24-5)19(25-6)15(10)17(21)16-11(2)12(20)7-8-13(16)22-3/h7-9H,1-6H3
Instrument: Q Exactive Orbitrap Thermo Scientific
Instrument type: LC-ESI-QFT
Ms type: MS2
Ion mode: POSITIVE
Ionization: ESI
Fragmentation mode: HCD
Collision energy: 60 (nominal)
Resolution: 35000
Column name: XBridge C18 3.5um, 2.1x50mm, Waters
Retention time: 13.7 min
Base peak: 411.0623
Precursor m/z: 409.0645
Precursor type: [M+H]+
m/z	relative intensity	assigned
65.0386	6	C5H5+
66.0464	9	C5H6+
67.0543	1	C5H7+
77.0385	4	C6H5+
78.0465	1	C6H6+
79.0542	7	C6H7+
89.0385	20	C7H5+
90.0464	78	C7H6+
91.0542	92	C7H7+
92.062	96	C7H8+
93.0699	1	C7H9+
94.0413	7	C6H6O+
95.0491	16	C6H7O+
105.0336	38	C7H5O+
106.0415	8	C7H6O+
107.0492	18	C7H7O+
108.057	20	C7H8O+
109.0648	13	C7H9O+
110.0728	1	C7H10O+
118.0413	5	C8H6O+
119.0492	19	C8H7O+
120.057	119	C8H8O+
121.0284	1	C7H5O2+
121.0648	6	C8H9O+
122.0725	1	C8H10O+
123.0441	18	C7H7O2+
123.0804	2	C8H11O+
124.0519	1	C7H8O2+
133.0284	1	C8H5O2+
134.0361	8	C8H6O2+
135.0441	34	C8H7O2+
136.052	63	C8H8O2+
137.0598	43	C8H9O2+
138.0678	7	C8H10O2+
147.0442	13	C9H7O2+
148.0519	125	C9H8O2+
149.0599	12	C9H9O2+
151.0391	53	C8H7O3+
153.0547	26	C8H9O3+
153.091	5	C9H13O2+
155.9569	1	C6H5Br+
163.0391	20	C9H7O3+
164.0469	9	C9H8O3+
165.0548	216	C9H9O3+
166.0625	383	C9H10O3+
168.0418	2	C8H8O4+
168.9648	298	C7H6Br+
170.9804	11	C7H8Br+
176.0469	71	C10H8O3+
177.0546	2	C10H9O3+
179.0339	28	C9H7O4+
181.0496	158	C9H9O4+
182.9439	16	C7H4BrO+
183.9519	223	C7H5BrO+
186.9754	66	C7H8BrO+
193.0497	27	C10H9O4+
194.0575	172	C10H10O4+
196.9709	135	C7H6BrN2+
198.9751	5	C8H8BrO+
209.081	466	C11H13O4+
211.9468	50	C8H5BrO2+
226.9703	999	C9H8BrO2+
229.9574	97	C8H7BrO3+
