Mass spectrum: Pioglitazone; LC-ESI-QFT; MS2; CE: 30; R=35000; [M+H]+
Name: Pioglitazone
Name: 5-[[4-[2-(5-ethylpyridin-2-yl)ethoxy]phenyl]methyl]-1,3-thiazolidine-2,4-dione
Formula: C19H20N2O3S
Exact mass: 356.11946
SMILES: CCC1=CN=C(C=C1)CCOC2=CC=C(C=C2)CC3C(=O)NC(=O)S3
InChI: InChI=1S/C19H20N2O3S/c1-2-13-3-6-15(20-12-13)9-10-24-16-7-4-14(5-8-16)11-17-18(22)21-19(23)25-17/h3-8,12,17H,2,9-11H2,1H3,(H,21,22,23)
Instrument: Q Exactive Orbitrap Thermo Scientific
Instrument type: LC-ESI-QFT
Ms type: MS2
Ion mode: POSITIVE
Ionization: ESI
Fragmentation mode: HCD
Collision energy: 30 (nominal)
Resolution: 35000
Column name: XBridge C18 3.5um, 2.1x50mm, Waters
Retention time: 6.0 min
Base peak: 357.1277
Precursor m/z: 357.1267
Precursor type: [M+H]+
m/z	relative intensity	assigned
119.0731	7	C8H9N+
120.0809	3	C8H10N+
121.0887	1	C8H11N+
134.0966	438	C9H12N+
135.1043	63	C9H13N+
167.0939	2	C9H13NO2+
240.1388	4	C16H18NO+
241.1466	8	C16H19NO+
286.1271	2	C17H20NOS+
357.1273	999	C19H21N2O3S+
