Mass spectrum: Dioxabenzofos; LC-ESI-QFT; MS2; CE: 180%; R=17500; [M+H]+
Name: Dioxabenzofos
Name: 2-methoxy-2-sulfanylidene-4H-1,3,2lambda5-benzodioxaphosphinine
Formula: C8H9O3PS
Exact mass: 216.0010
SMILES: COP1(=S)OCC2=CC=CC=C2O1
InChI: InChI=1S/C8H9O3PS/c1-9-12(13)10-6-7-4-2-3-5-8(7)11-12/h2-5H,6H2,1H3
Instrument: Exploris 240 Orbitrap Thermo Scientific
Instrument type: LC-ESI-QFT
Ms type: MS2
Ion mode: POSITIVE
Ionization: ESI
Fragmentation mode: HCD
Collision energy: 180 % (nominal)
Resolution: 17500
Column name: XBridge C18 3.5um, 2.1x50mm, Waters
Retention time: 7.127 min
Base peak: 217.0083
Precursor m/z: 217.0083
Precursor type: [M+H]+
m/z	relative intensity	assigned
50.0152	121	C4H2+
51.0229	999	C4H3+
53.0386	294	C4H5+
59.0492	24	C3H7O+
65.0386	67	C5H5+
77.0386	636	C6H5+
78.0464	38	C6H6+
79.0545	23	C6H7+
91.054	20	C7H7+
95.0492	212	C6H7O+
121.0111	43	C7H5S+
