Mass spectrum: Ganciclovir; LC-ESI-QFT; MS2; CE: 30%; R=15000; [M-H]-
Name: Ganciclovir
Name: CID 3454
Name: 2-azanyl-9-[1,3-bis(oxidanyl)propan-2-yloxymethyl]-1H-purin-6-one
Formula: C9H13N5O4
Exact mass: 255.0967539
SMILES: C1=NC2=C(N1COC(CO)CO)N=C(NC2=O)N
InChI: InChI=1S/C9H13N5O4/c10-9-12-7-6(8(17)13-9)11-3-14(7)4-18-5(1-15)2-16/h3,5,15-16H,1-2,4H2,(H3,10,12,13,17)
Instrument: Q Exactive
Instrument type: LC-ESI-QFT
Ms type: MS2
Ion mode: NEGATIVE
Ionization: ESI
Fragmentation mode: HCD
Collision energy: 30 % (nominal)
Resolution: 15000
Column name: XBridge C18 3.5um, 2.1x50mm, Waters
Retention time: 0.849 min
Base peak: 254.0896
Precursor m/z: 254.0895
Precursor type: [M-H]-
Precursor intensity: 119879646.76
m/z	relative intensity	assigned
108.0202	18	C4H2N3O-
119.0364	41	C5H3N4-
120.0204	15	C5H2N3O-
133.0157	48	C5HN4O-
150.0421	906	C5H4N5O-
162.0422	271	C6H4N5O-
254.0896	999	C9H12N5O4-
