Mass spectrum: Metosulam; LC-ESI-QFT; MS2; CE: 60; R=35000; [M-H]-
Name: Metosulam
Name: N-(2,6-dichloro-3-methyl-phenyl)-5,7-dimethoxy-[1,2,4]triazolo[1,5-a]pyrimidine-2-sulfonamide
Formula: C14H13Cl2N5O4S
Exact mass: 417.00653
SMILES: Clc1c(ccc(Cl)c1NS(=O)(=O)c2nc3nc(OC)cc(OC)n3n2)C
InChI: InChI=1S/C14H13Cl2N5O4S/c1-7-4-5-8(15)12(11(7)16)20-26(22,23)14-18-13-17-9(24-2)6-10(25-3)21(13)19-14/h4-6,20H,1-3H3
Instrument: Q Exactive Orbitrap Thermo Scientific
Instrument type: LC-ESI-QFT
Ms type: MS2
Ion mode: NEGATIVE
Ionization: ESI
Fragmentation mode: HCD
Collision energy: 60 (nominal)
Resolution: 35000
Column name: XBridge C18 3.5um, 2.1x50mm, Waters
Retention time: 7.6 min
Base peak: 415.9998
Precursor m/z: 415.9993
Precursor type: [M-H]-
m/z	relative intensity	assigned
55.0301	6	C2H3N2-
64.0066	15	C3N2-
65.0145	133	C3HN2-
65.9985	572	C3NO-
66.0097	907	C2N3-
68.0016	2	C2N2O-
68.0141	2	C3H2NO-
78.0224	126	C4H2N2-
79.0063	2	C4HNO-
79.0176	46	C3HN3-
79.0302	3	C4H3N2-
82.0173	13	C3H2N2O-
83.0251	6	C3H3N2O-
90.0096	2	C4N3-
92.0255	15	C4H2N3-
93.0095	43	C4HN2O-
94.0172	7	C4H2N2O-
95.0252	19	C4H3N2O-
95.0365	1	C3H3N4-
96.033	3	C4H4N2O-
96.0442	14	C3H4N4-
98.0248	26	C4H4NO2-
106.0286	2	C4H2N4-
107.0126	151	C4HN3O-
108.0204	52	C4H2N3O-
109.0044	49	C4HN2O2-
110.0122	7	C4H2N2O2-
111.0677	341	C4H7N4-
120.0204	9	C5H2N3O-
120.0442	69	C5H4N4-
121.0157	22	C4HN4O-
121.0282	40	C5H3N3O-
122.0123	99	C5H2N2O2-
122.036	6	C5H4N3O-
123.0201	102	C5H3N2O2-
134.0235	46	C5H2N4O-
135.0314	108	C5H3N4O-
136.0391	37	C5H4N4O-
137.0232	6	C5H3N3O2-
149.0469	23	C6H5N4O-
151.026	13	C5H3N4O2-
163.0263	106	C6H3N4O2-
164.0341	999	C6H4N4O2-
165.0417	20	C6H5N4O2-
179.0575	367	C7H7N4O2-
203.0129	12	C9H4ClN4-
270.0195	13	
