Mass spectrum: Clozapine; LC-ESI-ITFT; MS2; CE: 75%; R=7500; [M+H]+
Name: Clozapine
Name: 8-chloro-11-(4-methylpiperazin-1-yl)-5H-dibenzo[b,e][1,4]diazepine
Formula: C18H19ClN4
Exact mass: 326.1298
SMILES: C1(=Nc2c(Nc3c1cccc3)ccc(c2)Cl)N1CCN(CC1)C
InChI: InChI=1S/C18H19ClN4/c1-22-8-10-23(11-9-22)18-14-4-2-3-5-15(14)20-16-7-6-13(19)12-17(16)21-18/h2-7,12,20H,8-11H2,1H3
Instrument: LTQ Orbitrap XL Thermo Scientific
Instrument type: LC-ESI-ITFT
Ms type: MS2
Ion mode: POSITIVE
Ionization: ESI
Fragmentation mode: HCD
Collision energy: 75 % (nominal)
Resolution: 7500
Column name: XBridge C18 3.5um, 2.1x50mm, Waters
Retention time: 6.4 min
Base peak: 327.1383
Precursor m/z: 327.1371
Precursor type: [M+H]+
m/z	relative intensity	assigned
58.0651	23	C3H8N+
82.0655	4	C5H8N+
84.0809	56	C5H10N+
85.0764	5	C4H9N2+
123.995	12	C6H3ClN+
132.0678	4	C8H8N2+
164.05	6	C12H6N+
191.0607	20	C13H7N2+
192.0685	999	C13H8N2+
194.0842	5	C13H10N2+
200.0262	20	C12H7ClN+
205.0759	4	C14H9N2+
206.084	11	C14H10N2+
207.0907	6	C14H11N2+
209.0707	8	C10H12ClN3+
215.036	5	C12H8ClN2+
217.0756	3	C15H9N2+
218.0842	17	C15H10N2+
219.0663	7	C13H7N4+
220.0877	13	C14H10N3+
226.0295	59	C13H7ClN2+
227.0372	167	C13H8ClN2+
228.0449	12	C13H9ClN2+
229.0526	11	C13H10ClN2+
233.0949	4	C15H11N3+
234.1027	20	C15H12N3+
235.1105	13	C15H13N3+
239.0371	3	C14H8ClN2+
240.0456	11	C14H9ClN2+
241.0532	6	C14H10ClN2+
243.0667	4	C15H7N4+
246.1037	5	C16H12N3+
253.0534	29	C15H10ClN2+
254.0486	9	C14H9ClN3+
268.0641	8	C15H11ClN3+
270.0792	342	C15H13ClN3+
296.0948	43	C17H15ClN3+
