Mass spectrum: Ametryn; LC-ESI-QFT; MS2; CE: 45; R=35000; [M+H]+
Name: Ametryn
Name: 4-N-ethyl-6-methylsulfanyl-2-N-propan-2-yl-1,3,5-triazine-2,4-diamine
Formula: C9H17N5S
Exact mass: 227.12047
SMILES: S(c1nc(nc(n1)NC(C)C)NCC)C
InChI: InChI=1S/C9H17N5S/c1-5-10-7-12-8(11-6(2)3)14-9(13-7)15-4/h6H,5H2,1-4H3,(H2,10,11,12,13,14)
Instrument: Q Exactive Orbitrap Thermo Scientific
Instrument type: LC-ESI-QFT
Ms type: MS2
Ion mode: POSITIVE
Ionization: ESI
Fragmentation mode: HCD
Collision energy: 45 (nominal)
Resolution: 35000
Column name: XBridge C18 3.5um, 2.1x50mm, Waters
Retention time: 7.2 min
Base peak: 228.128
Precursor m/z: 228.1277
Precursor type: [M+H]+
m/z	relative intensity	assigned
68.0243	25	C2H2N3+
71.0603	42	C3H7N2+
74.0058	8	C2H4NS+
85.0509	4	C2H5N4+
85.076	4	C4H9N2+
91.0324	84	C2H7N2S+
96.0556	129	C4H6N3+
102.0372	7	C4H8NS+
110.0462	2	C3H4N5+
110.0712	1	C5H8N3+
113.0821	13	C4H9N4+
116.0276	54	C3H6N3S+
138.0775	52	C5H8N5+
138.1026	37	C7H12N3+
144.0591	44	C5H10N3S+
158.0496	44	C4H8N5S+
158.0747	7	C6H12N3S+
171.057	2	C5H9N5S+
180.1245	8	C8H14N5+
186.0808	999	C6H12N5S+
200.0962	2	C7H14N5S+
228.1278	376	C9H18N5S+
