Mass spectrum: Candesartan; LC-ESI-ITFT; MS2; CE: 75%; R=7500; [M+H]+
Name: Candesartan
Name: 2-ethoxy-3-[4-[2-(2H-tetrazol-5-yl)phenyl]benzyl]benzimidazole-4-carboxylic acid
Formula: C24H20N6O3
Exact mass: 440.1597
SMILES: c1(ccccc1c1ccc(Cn2c(nc3c2c(C(=O)O)ccc3)OCC)cc1)c1nnn[nH]1
InChI: InChI=1S/C24H20N6O3/c1-2-33-24-25-20-9-5-8-19(23(31)32)21(20)30(24)14-15-10-12-16(13-11-15)17-6-3-4-7-18(17)22-26-28-29-27-22/h3-13H,2,14H2,1H3,(H,31,32)(H,26,27,28,29)
Instrument: LTQ Orbitrap XL Thermo Scientific
Instrument type: LC-ESI-ITFT
Ms type: MS2
Ion mode: POSITIVE
Ionization: ESI
Fragmentation mode: HCD
Collision energy: 75 % (nominal)
Resolution: 7500
Column name: XBridge C18 3.5um, 2.1x50mm, Waters
Retention time: 9.3 min
Base peak: 441.1683
Precursor m/z: 441.167
Precursor type: [M+H]+
m/z	relative intensity	assigned
77.0389	37	C6H5+
80.0496	20	C5H6N+
91.0544	35	C7H7+
105.0447	48	C6H5N2+
115.054	11	C9H7+
116.0499	14	C8H6N+
117.0444	18	C7H5N2+
140.0499	40	C10H6N+
141.0702	10	C11H9+
152.0622	322	C12H8+
153.07	311	C12H9+
154.0654	27	C11H8N+
155.0607	20	C10H7N2+
161.0347	166	C8H5N2O2+
163.0544	61	C13H7+
164.0622	51	C13H8+
165.07	999	C13H9+
166.0652	62	C12H8N+
166.0781	49	C13H10+
167.0735	39	C12H9N+
167.0854	42	C13H11+
168.0678	28	C11H8N2+
173.0349	37	C9H5N2O2+
176.0625	31	C14H8+
177.0577	229	C13H7N+
178.0778	563	C14H10+
179.0454	42	C8H7N2O3+
179.0729	157	C13H9N+
180.0808	494	C13H10N+
183.0679	10	C12H9NO+
190.0654	810	C14H8N+
191.0732	396	C14H9N+
192.0798	510	
193.0886	228	C14H11N+
194.0964	137	C14H12N+
196.0759	22	C13H10NO+
203.072	18	C15H9N+
204.0561	14	C13H6N3+
205.0762	431	C14H9N2+
206.0839	278	C14H10N2+
207.0919	169	C14H11N2+
208.0762	15	C14H10NO+
210.0917	37	C14H12NO+
217.0881	49	C16H11N+
219.0921	142	C15H11N2+
220.0995	20	C15H12N2+
233.1075	61	C16H13N2+
234.1152	82	C16H14N2+
254.0954	19	C19H12N+
279.0919	36	C20H11N2+
282.0919	22	C20H12NO+
306.1046	15	C23H14O+
309.1013	50	C21H13N2O+
310.1123	14	C10H14N8O4+
321.0871	21	C19H9N6+
322.0979	28	C21H12N3O+
348.103	20	C24H14NO2+
351.1	27	C22H13N3O2+
