Mass spectrum: Tolfenpyrad; LC-ESI-QFT; MS2; CE: 90%; R=17500; [M+H]+
Name: Tolfenpyrad
Name: 4-chloro-5-ethyl-2-methyl-N-[[4-(4-methylphenoxy)phenyl]methyl]pyrazole-3-carboxamide
Formula: C21H22ClN3O2
Exact mass: 383.1401
SMILES: CCC1=NN(C(=C1Cl)C(=O)NCC2=CC=C(C=C2)OC3=CC=C(C=C3)C)C
InChI: InChI=1S/C21H22ClN3O2/c1-4-18-19(22)20(25(3)24-18)21(26)23-13-15-7-11-17(12-8-15)27-16-9-5-14(2)6-10-16/h5-12H,4,13H2,1-3H3,(H,23,26)
Instrument: Exploris 240 Orbitrap Thermo Scientific
Instrument type: LC-ESI-QFT
Ms type: MS2
Ion mode: POSITIVE
Ionization: ESI
Fragmentation mode: HCD
Collision energy: 90 % (nominal)
Resolution: 17500
Column name: XBridge C18 3.5um, 2.1x50mm, Waters
Retention time: 13.456 min
Base peak: 308.0038
Precursor m/z: 384.1473
Precursor type: [M+H]+
m/z	relative intensity	assigned
54.0338	21	C3H4N+
55.0178	7	C3H3O+
56.0132	12	C2H2NO+
56.0495	8	C3H6N+
62.9995	16	C2H4Cl+
65.0386	172	C5H5+
75.9949	166	C2H3ClN+
81.0447	25	C4H5N2+
82.0526	12	C4H6N2+
87.9951	12	C3H3ClN+
90.0107	50	C3H5ClN+
91.0542	999	C7H7+
106.0653	11	C7H8N+
107.0492	121	C7H7O+
109.0649	12	C7H9O+
115.0058	10	C4H4ClN2+
115.0541	21	C9H7+
117.0214	341	C4H6ClN2+
119.0602	40	C7H7N2+
128.0618	47	C10H8+
129.0698	70	C10H9+
141.07	144	C11H9+
143.0371	12	C6H8ClN2+
145.0525	37	C6H10ClN2+
153.0699	252	C12H9+
154.0778	574	C12H10+
165.07	10	C13H9+
167.0853	21	C13H11+
169.1014	186	C13H13+
171.0318	34	C7H8ClN2O+
197.0961	89	C14H13O+
