Mass spectrum: Topiramate; LC-ESI-QFT; MS2; CE: 120; R=35000; [M-H]-
Name: Topiramate
Name: Topamax
Name: (2,2,7,7-tetramethyl-5,5a,8a,8b-tetrahydrodi[1,3]dioxolo[4,5-a:5`,3`-d]pyran-3a-yl)methyl sulfamate
Formula: C12H21NO8S
Exact mass: 339.09879
SMILES: CC1(OC2COC3(C(C2O1)OC(O3)(C)C)COS(=O)(=O)N)C
InChI: InChI=1S/C12H21NO8S/c1-10(2)18-7-5-16-12(6-17-22(13,14)15)9(8(7)19-10)20-11(3,4)21-12/h7-9H,5-6H2,1-4H3,(H2,13,14,15)
Instrument: Q Exactive Plus Orbitrap Thermo Scientific
Instrument type: LC-ESI-QFT
Ms type: MS2
Ion mode: NEGATIVE
Ionization: ESI
Fragmentation mode: HCD
Collision energy: 120 (nominal)
Resolution: 35000
Column name: XBridge C18 3.5um, 2.1x50mm, Waters
Retention time: 6.1 min
Base peak: 338.0915
Precursor m/z: 338.0915
Precursor type: [M-H]-
m/z	relative intensity	assigned
61.9706	9	NOS-
63.9625	177	O2S-
77.9656	999	NO2S-
79.9574	61	O3S-
80.9651	2	HO3S-
94.9684	1	HNO3S-
95.9762	35	H2NO3S-
96.96	1	HO4S-
