Mass spectrum: 7-amino-flunitrazepam; LC-ESI-QFT; MS2; CE: 75; R=35000; [M+H]+
Name: 7-amino-flunitrazepam
Name: 7-aminoflunitrazepam
Name: 7-amino-5-(2-fluorophenyl)-1-methyl-3H-1,4-benzodiazepin-2-one
Formula: C16H14FN3O
Exact mass: 283.11209
SMILES: CN1C(=O)CN=C(C2=C1C=CC(=C2)N)C3=CC=CC=C3F
InChI: InChI=1S/C16H14FN3O/c1-20-14-7-6-10(18)8-12(14)16(19-9-15(20)21)11-4-2-3-5-13(11)17/h2-8H,9,18H2,1H3
Instrument: Q Exactive Plus Orbitrap Thermo Scientific
Instrument type: LC-ESI-QFT
Ms type: MS2
Ion mode: POSITIVE
Ionization: ESI
Fragmentation mode: HCD
Collision energy: 75 (nominal)
Resolution: 35000
Column name: XBridge C18 3.5um, 2.1x50mm, Waters
Retention time: 4.9 min
Base peak: 284.1182
Precursor m/z: 284.1194
Precursor type: [M+H]+
m/z	relative intensity	assigned
51.0228	1	C4H3+
53.0385	5	C4H5+
54.0336	3	C3H4N+
56.0493	1	C3H6N+
58.0286	11	C2H4NO+
65.0384	8	FH4N3+
66.0462	1	FH5N3+
67.0415	1	C4H5N+
67.0542	5	C5H7+
68.0493	7	C4H6N+
77.0383	11	CH4FN3+
78.0337	1	C5H4N+
78.0462	4	CH5FN3+
79.0541	38	CH6FN3+
80.0493	20	C5H6N+
81.0445	1	C4H5N2+
81.0572	1	C5H7N+
81.0697	5	CH8FN3+
82.0649	1	C5H8N+
89.0383	2	C2H4FN3+
90.0337	1	C6H4N+
91.0541	32	C2H6FN3+
92.0493	24	C6H6N+
93.0572	164	C6H7N+
94.065	146	C6H8N+
95.049	14	CH6FN3O+
95.0603	8	C5H7N2+
95.0728	5	C6H9N+
96.0442	1	C5H6NO+
96.068	10	C5H8N2+
97.0447	1	C6H6F+
102.0336	1	C7H4N+
104.0493	124	C7H6N+
105.0446	14	C6H5N2+
105.0571	36	C7H7N+
106.065	177	C7H8N+
107.0728	189	C7H9N+
108.0806	145	C7H10N+
109.0446	58	C7H6F+
110.0598	5	C6H8NO+
115.0541	3	C4H6FN3+
116.0493	21	C8H6N+
117.0447	7	C7H5N2+
117.0571	28	C8H7N+
118.0522	1	C7H6N2+
118.0649	32	C8H8N+
119.0602	50	C7H7N2+
119.0728	14	C8H9N+
120.0442	10	C7H6NO+
120.068	126	C7H8N2+
121.0758	38	C7H9N2+
122.0399	56	C7H5FN+
123.0238	45	C7H4FO+
123.0351	8	C6H4FN2+
124.0555	4	C7H7FN+
128.0491	1	C9H6N+
129.0445	1	C8H5N2+
129.0695	1	C5H8FN3+
130.0398	19	C7H4N3+
131.0602	129	C8H7N2+
132.0442	20	C8H6NO+
132.068	81	C8H8N2+
133.0446	4	C9H6F+
133.0521	4	C8H7NO+
133.0758	77	C8H9N2+
134.0398	30	C8H5FN+
134.0598	23	C8H8NO+
134.0836	14	C8H10N2+
135.0914	999	C8H11N2+
136.0555	12	C8H7FN+
139.054	1	C6H6FN3+
142.0652	1	C10H8N+
143.0474	1	C8H5N3+
143.06	6	C9H7N2+
144.0554	25	C8H6N3+
145.0632	6	C8H7N3+
145.0757	7	C9H9N2+
146.0598	18	C9H8NO+
146.0711	70	C8H8N3+
146.0833	7	C9H10N2+
147.0552	3	C8H7N2O+
147.0677	2	C9H9NO+
147.0789	21	C8H9N3+
148.0629	144	C8H8N2O+
149.051	1	C8H6FN2+
149.0707	16	C8H9N2O+
152.0615	2	C7H7FN3+
153.0696	15	C7H8FN3+
154.0647	1	C11H8N+
158.0711	28	C9H8N3+
160.0867	28	C9H10N3+
161.0633	27	C10H8FN+
161.0707	43	C9H9N2O+
161.0944	16	C9H11N3+
162.071	4	C10H9FN+
162.0784	4	C9H10N2O+
163.0863	9	C9H11N2O+
165.0697	12	C8H8FN3+
166.0649	14	C12H8N+
167.0726	18	C12H9N+
168.0805	17	C12H10N+
170.0525	3	C12H7F+
171.0601	7	C12H8F+
173.0637	1	C11H8FN+
173.0761	1	C12H10F+
174.0712	20	C11H9FN+
177.057	1	C13H7N+
178.065	15	C13H8N+
179.0601	1	C12H7N2+
179.0727	12	C13H9N+
180.0805	105	C13H10N+
181.0755	4	C12H9N2+
181.0883	69	C13H11N+
182.0963	2	C13H12N+
183.0602	101	C13H8F+
185.0634	19	C12H8FN+
186.0711	5	C12H9FN+
187.079	14	C12H10FN+
188.087	12	C12H11FN+
190.0649	28	C14H8N+
191.0727	12	C14H9N+
192.0678	7	C13H8N2+
192.0807	11	C14H10N+
193.0759	11	C13H9N2+
193.0882	3	C14H11N+
194.0597	1	C13H8NO+
194.0836	18	C13H10N2+
195.0914	72	C13H11N2+
196.0554	1	C13H7FN+
196.0754	4	C13H10NO+
197.0634	1	C13H8FN+
198.0711	84	C13H9FN+
199.0788	8	C13H10FN+
200.0746	3	C12H9FN2+
200.0867	44	C13H11FN+
204.068	3	C14H8N2+
205.0757	38	C14H9N2+
206.0836	93	C14H10N2+
207.0914	104	C14H11N2+
208.0557	7	C14H7FN+
208.0993	71	C14H12N2+
209.0633	52	C14H8FN+
209.1071	29	C14H13N2+
210.0711	96	C14H9FN+
211.0789	189	C14H10FN+
212.074	17	C13H9FN2+
212.0866	7	C14H11FN+
213.082	19	C13H10FN2+
214.0662	5	C13H9FNO+
214.0899	6	C13H11FN2+
215.0977	45	C13H12FN2+
217.0757	1	C15H9N2+
218.0834	7	C15H10N2+
219.0795	4	C14H9N3+
219.0913	39	C15H11N2+
220.0867	60	C14H10N3+
220.099	14	C15H12N2+
221.0945	38	C14H11N3+
222.0709	6	C15H9FN+
222.1022	3	C14H12N3+
223.0663	16	C14H8FN2+
224.074	24	C14H9FN2+
225.082	58	C14H10FN2+
226.0898	521	C14H11FN2+
227.0976	160	C14H12FN2+
228.0818	14	C14H11FNO+
229.1133	14	C14H14FN2+
234.1023	23	C15H12N3+
235.1099	4	C15H13N3+
236.1179	38	C15H14N3+
237.0819	4	C15H10FN2+
238.0773	34	C14H9FN3+
238.0896	4	C15H11FN2+
239.0848	6	C14H10FN3+
239.0975	20	C15H12FN2+
240.093	404	C14H11FN3+
240.1051	32	C15H13FN2+
241.1006	66	C14H12FN3+
248.0813	4	C15H10N3O+
249.0893	7	C15H11N3O+
250.0968	4	C15H12N3O+
253.0769	1	C15H10FN2O+
254.0862	2	C15H11FN2O+
254.1083	51	C15H13FN3+
255.0932	2	C15H12FN2O+
255.1163	15	C15H14FN3+
256.1241	14	C15H15FN3+
264.1129	4	C16H14N3O+
268.0877	14	C15H11FN3O+
269.0956	1	C15H12FN3O+
284.1191	6	C16H15FN3O+
