Mass spectrum: Oseltamivir carboxylate; LC-ESI-ITFT; MS2; CE: 30%; R=7500; [M+H]+
Name: Oseltamivir carboxylate
Name: (3R,4R,5S)-4-acetamido-5-amino-3-pentan-3-yloxycyclohexene-1-carboxylic acid
Formula: C14H24N2O4
Exact mass: 284.1736
SMILES: CCC(CC)O[C@@H]1C=C(C[C@@H]([C@H]1NC(=O)C)N)C(=O)O
InChI: InChI=1S/C14H24N2O4/c1-4-10(5-2)20-12-7-9(14(18)19)6-11(15)13(12)16-8(3)17/h7,10-13H,4-6,15H2,1-3H3,(H,16,17)(H,18,19)/t11-,12+,13+/m0/s1
Instrument: LTQ Orbitrap XL Thermo Scientific
Instrument type: LC-ESI-ITFT
Ms type: MS2
Ion mode: POSITIVE
Ionization: ESI
Fragmentation mode: HCD
Collision energy: 30 % (nominal)
Resolution: 7500
Column name: XBridge C18 3.5um, 2.1x50mm, Waters
Retention time: 5.1 min
Base peak: 285.1822
Precursor m/z: 285.1809
Precursor type: [M+H]+
m/z	relative intensity	assigned
60.0443	15	C2H6NO+
67.054	5	C5H7+
92.0498	4	C6H6N+
93.0335	8	C6H5O+
94.0652	135	C6H8N+
109.0755	4	C6H9N2+
111.0443	17	C6H7O2+
119.0603	8	C7H7N2+
120.0444	132	C7H6NO+
121.0282	8	C7H5O2+
136.0759	15	C8H10NO+
137.071	87	C7H9N2O+
138.0551	999	C7H8NO2+
139.0394	17	C7H7O3+
151.0864	3	C8H11N2O+
153.1023	3	C8H13N2O+
155.0816	7	C7H11N2O2+
156.0656	8	C7H10NO3+
161.0713	6	C9H9N2O+
162.0549	44	C9H8NO2+
179.0814	39	C9H11N2O2+
180.0656	371	C9H10NO3+
197.0921	419	C9H13N2O3+
198.0761	334	C9H12NO4+
215.1027	157	C9H15N2O4+
268.1542	50	C14H22NO4+
