Mass spectrum: Haloxyfop; LC-ESI-QFT; MS2; CE: 150; R=35000; [M-H]-
Name: Haloxyfop
Name: 2-[4-[3-chloro-5-(trifluoromethyl)pyridin-2-yl]oxyphenoxy]propanoic acid
Formula: C15H11ClF3NO4
Exact mass: 361.03287
SMILES: CC(C(=O)O)OC1=CC=C(C=C1)OC2=C(C=C(C=N2)C(F)(F)F)Cl
InChI: InChI=1S/C15H11ClF3NO4/c1-8(14(21)22)23-10-2-4-11(5-3-10)24-13-12(16)6-9(7-20-13)15(17,18)19/h2-8H,1H3,(H,21,22)
Instrument: Q Exactive Plus Orbitrap Thermo Scientific
Instrument type: LC-ESI-QFT
Ms type: MS2
Ion mode: NEGATIVE
Ionization: ESI
Fragmentation mode: HCD
Collision energy: 150 (nominal)
Resolution: 35000
Column name: XBridge C18 3.5um, 2.1x50mm, Waters
Retention time: 13.6 min
Base peak: 277.1447
Precursor m/z: 360.0256
Precursor type: [M-H]-
m/z	relative intensity	assigned
66.999	576	C4F-
71.014	149	C3H3O2-
73.0086	999	C6H-
74.0038	755	C5N-
108.0218	255	C6H4O2-
109.0084	251	C9H-
110.0037	516	C8N-
123.0052	121	C7HF2-
127.0191	538	C9H3O-
136.0194	181	C10H2N-
