Mass spectrum: Ampicillin; LC-ESI-QFT; MS2; CE: 150; R=35000; [M+H]+
Name: Ampicillin
Name: 2-amino-1-methyl-5-propylideneimidazol-4-one
Name: 6-[(2-azaniumyl-2-phenylacetyl)amino]-3,3-dimethyl-7-oxo-4-thia-1-azabicyclo[3.2.0]heptane-2-carboxylate
Formula: C16H19N3O4S
Exact mass: 349.10963
SMILES: CC1(C(N2C(S1)C(C2=O)NC(=O)C(C3=CC=CC=C3)N)C(=O)O)C
InChI: InChI=1S/C16H19N3O4S/c1-16(2)11(15(22)23)19-13(21)10(14(19)24-16)18-12(20)9(17)8-6-4-3-5-7-8/h3-7,9-11,14H,17H2,1-2H3,(H,18,20)(H,22,23)
Instrument: Q Exactive Plus Orbitrap Thermo Scientific
Instrument type: LC-ESI-QFT
Ms type: MS2
Ion mode: POSITIVE
Ionization: ESI
Fragmentation mode: HCD
Collision energy: 150 (nominal)
Resolution: 35000
Column name: XBridge C18 3.5um, 2.1x50mm, Waters
Retention time: 4.7 min
Base peak: 350.1165
Precursor m/z: 350.1169
Precursor type: [M+H]+
m/z	relative intensity	assigned
50.0152	75	C4H2+
51.023	154	C4H3+
52.0183	4	C3H2N+
53.0023	28	C3HO+
53.0386	279	C4H5+
53.9975	13	C2NO+
54.0339	11	C3H4N+
55.0179	13	C3H3O+
55.0543	18	C4H7+
56.0132	3	C2H2NO+
56.0495	4	C3H6N+
56.9794	8	C2HS+
57.9872	60	C2H2S+
58.9951	390	C2H3S+
59.9666	14	COS+
59.9904	4	CH2NS+
61.0073	2	C5H+
62.006	11	CH4NS+
62.0151	11	C5H2+
63.023	78	C5H3+
64.0308	17	C5H4+
65.0386	769	C5H5+
66.0465	38	C5H6+
67.0417	14	C4H5N+
67.0542	4	C5H7+
67.9893	3	C3O2+
68.0131	60	C3H2NO+
68.0495	21	C4H6N+
68.9794	32	C3HS+
69.0448	15	C3H5N2+
70.0651	64	C4H8N+
70.995	8	C3H3S+
72.9981	7	C2H3NS+
73.0108	7	C3H5S+
74.0059	4	C2H4NS+
74.0152	9	C6H2+
75.0229	33	C6H3+
76.0308	2	C6H4+
77.0386	210	C6H5+
78.0465	32	C6H6+
79.0543	604	C6H7+
80.0495	26	C5H6N+
81.0335	27	C5H5O+
81.0572	2	C5H7N+
82.0653	3	C5H8N+
85.0107	9	C4H5S+
86.0059	154	C3H4NS+
87.0264	28	C4H7S+
89.0387	425	C7H5+
90.0465	277	C7H6+
91.0543	999	C7H7+
92.0495	2	C6H6N+
93.0575	2	C6H7N+
94.0414	13	C6H6O+
94.0653	9	C6H8N+
95.0492	492	C6H7O+
96.0443	2	C5H6NO+
100.0216	3	C4H6NS+
101.0387	2	C8H5+
102.0464	25	C8H6+
103.0543	93	C8H7+
104.0495	21	C7H6N+
104.0619	3	C8H8+
105.0448	350	C6H5N2+
106.0652	63	C7H8N+
114.0374	9	C5H8NS+
115.0543	35	C9H7+
116.0496	11	C8H6N+
117.0574	232	C8H7N+
118.0414	2	C8H6O+
118.0653	19	C8H8N+
119.049	2	C8H7O+
121.0108	174	C7H5S+
128.0494	14	C9H6N+
128.0623	4	C10H8+
129.0446	10	C8H5N2+
129.0574	3	C9H7N+
130.0653	51	C9H8N+
134.0184	4	C8H6S+
140.0496	3	C10H6N+
146.0602	8	C9H8NO+
147.0264	3	C9H7S+
172.0216	3	C10H6NS+
173.0298	7	C10H7NS+
