Mass spectrum: Pyrifluquinazon; LC-ESI-QFT; MS2; CE: 60%; R=17500; [M+H]+
Name: Pyrifluquinazon
Name: 1-acetyl-6-(1,1,1,2,3,3,3-heptafluoropropan-2-yl)-3-(pyridin-3-ylmethylamino)-4H-quinazolin-2-one
Formula: C19H15F7N4O2
Exact mass: 464.1083
SMILES: CC(=O)N1C2=C(CN(C1=O)NCC3=CN=CC=C3)C=C(C=C2)C(C(F)(F)F)(C(F)(F)F)F
InChI: InChI=1S/C19H15F7N4O2/c1-11(31)30-15-5-4-14(17(20,18(21,22)23)19(24,25)26)7-13(15)10-29(16(30)32)28-9-12-3-2-6-27-8-12/h2-8,28H,9-10H2,1H3
Instrument: Exploris 240 Orbitrap Thermo Scientific
Instrument type: LC-ESI-QFT
Ms type: MS2
Ion mode: POSITIVE
Ionization: ESI
Fragmentation mode: HCD
Collision energy: 60 % (nominal)
Resolution: 17500
Column name: XBridge C18 3.5um, 2.1x50mm, Waters
Retention time: 8.322 min
Base peak: 465.1151
Precursor m/z: 465.1156
Precursor type: [M+H]+
m/z	relative intensity	assigned
65.0386	112	C5H5+
80.0494	50	C5H6N+
92.0494	999	C6H6N+
93.0573	665	C6H7N+
94.0652	44	C6H8N+
107.0603	502	C6H7N2+
108.0679	13	C6H8N2+
109.0759	13	C6H9N2+
110.06	15	C6H8NO+
330.0478	16	C16H8F6O+
