Mass spectrum: Fenpropimorph; LC-ESI-ITFT; MS2; CE: 60%; R=7500; [M+H]+
Name: Fenpropimorph
Name: (2S,6R)-4-[3-(4-tert-butylphenyl)-2-methyl-propyl]-2,6-dimethyl-morpholine
Formula: C20H33NO
Exact mass: 303.2557
SMILES: CC1CN(CC(O1)C)CC(C)CC2=CC=C(C=C2)C(C)(C)C
InChI: InChI=1S/C20H33NO/c1-15(12-21-13-16(2)22-17(3)14-21)11-18-7-9-19(10-8-18)20(4,5)6/h7-10,15-17H,11-14H2,1-6H3/t15?,16-,17+
Instrument: LTQ Orbitrap XL Thermo Scientific
Instrument type: LC-ESI-ITFT
Ms type: MS2
Ion mode: POSITIVE
Ionization: ESI
Fragmentation mode: HCD
Collision energy: 60 % (nominal)
Resolution: 7500
Column name: XBridge C18 3.5um, 2.1x50mm, Waters
Retention time: 9.4 min
Base peak: 304.2639
Precursor m/z: 304.2635
Precursor type: [M+H]+
m/z	relative intensity	assigned
57.0698	50	C4H9+
59.049	6	C3H7O+
70.0651	9	C4H8N+
72.0808	9	C4H10N+
81.0697	5	C6H9+
88.0756	4	C4H10NO+
91.0542	24	C7H7+
98.0964	241	C6H12N+
100.1125	4	C6H14N+
102.0912	9	C5H12NO+
105.0699	63	C8H9+
107.086	5	C8H11+
112.1121	8	C7H14N+
116.107	176	C6H14NO+
117.0694	12	C9H9+
119.0855	65	C9H11+
130.1227	218	C7H16NO+
132.0934	44	C10H12+
147.1169	999	C11H15+
161.1323	25	C12H17+
189.1633	21	C14H21+
304.2631	241	C20H34NO+
