Mass spectrum: Azoxystrobin; LC-ESI-ITFT; MS2; CE: 75%; R=7500; [M+H]+
Name: Azoxystrobin
Name: Methyl (E)-2-[2-[6-(2-cyanophenoxy)pyrimidin-4-YL]oxyphenyl]-3-methoxy-prop-2-enoate
Formula: C22H17N3O5
Exact mass: 403.1168206
SMILES: CO/C=C(\C1=CC=CC=C1OC2=NC=NC(=C2)OC3=CC=CC=C3C#N)/C(=O)OC
InChI: InChI=1S/C22H17N3O5/c1-27-13-17(22(26)28-2)16-8-4-6-10-19(16)30-21-11-20(24-14-25-21)29-18-9-5-3-7-15(18)12-23/h3-11,13-14H,1-2H3/b17-13+
Instrument: LTQ Orbitrap XL Thermo Scientific
Instrument type: LC-ESI-ITFT
Ms type: MS2
Ion mode: POSITIVE
Ionization: ESI
Fragmentation mode: HCD
Collision energy: 75 % (nominal)
Resolution: 7500
Column name: XBridge C18 3.5um, 2.1x50mm, Waters
Retention time: 9.9 min
Base peak: 404.1245
Precursor m/z: 404.1241
Precursor type: [M+H]+
m/z	relative intensity	assigned
68.9973	10	C3HO2+
77.0385	20	C6H5+
89.0385	60	C7H5+
91.0414	9	C6H5N+
103.0413	21	C7H5N+
104.0494	59	C7H6N+
105.0333	14	C7H5O+
105.0576	13	C7H7N+
106.0652	10	C7H8N+
107.0495	9	C7H7O+
114.0337	51	C8H4N+
115.0416	11	C8H5N+
116.0494	53	C8H6N+
117.0334	14	C8H5O+
117.0576	27	C8H7N+
118.0414	15	C8H6O+
119.0368	19	C7H5NO+
120.0442	61	C7H6NO+
127.0416	25	C9H5N+
128.0497	40	C9H6N+
129.0334	31	C9H5O+
129.0446	154	C8H5N2+
130.0291	29	C8H4NO+
130.04	164	C7H4N3+
132.0443	28	C8H6NO+
133.0285	26	C8H5O2+
133.0521	145	C8H7NO+
134.0361	15	C8H6O2+
134.0599	126	C8H8NO+
141.0447	57	C9H5N2+
143.0365	26	C9H5NO+
143.0602	71	C9H7N2+
144.0443	74	C9H6NO+
145.0285	23	C9H5O2+
145.0521	82	C9H7NO+
146.0235	33	C8H4NO2+
146.0601	9	C9H8NO+
154.0526	9	C10H6N2+
155.0363	15	C10H5NO+
155.06	54	C10H7N2+
156.0443	654	C10H6NO+
157.0284	19	C10H5O2+
157.0521	9	C10H7NO+
159.0314	12	C9H5NO2+
159.0554	14	C9H7N2O+
162.0309	16	C9H6O3+
169.0397	42	C10H5N2O+
170.0476	55	C10H6N2O+
171.0553	141	C10H7N2O+
172.0392	999	C10H6NO2+
177.0541	14	C10H9O3+
181.0398	13	C11H5N2O+
182.0475	48	C11H6N2O+
183.0552	325	C11H7N2O+
184.0386	15	C11H6NO2+
186.055	13	C11H8NO2+
197.0342	19	C11H5N2O2+
199.0501	184	C11H7N2O2+
200.0342	354	C11H6NO3+
201.0417	59	C11H7NO3+
210.0422	73	C12H6N2O2+
211.05	38	C12H7N2O2+
219.0683	9	C15H9NO+
229.0767	9	C16H9N2+
233.0708	12	C15H9N2O+
242.0322	20	C12H6N2O4+
244.0866	36	C16H10N3+
245.0708	47	C16H9N2O+
246.0791	24	C16H10N2O+
259.087	10	C17H11N2O+
261.078	11	C17H11NO2+
272.0819	145	C17H10N3O+
273.0664	79	C17H9N2O2+
274.0736	28	C17H10N2O2+
284.0822	9	C20H12O2+
300.0761	147	C18H10N3O2+
301.0847	78	C18H11N3O2+
328.0712	291	C19H10N3O3+
329.0792	45	C19H11N3O3+
