Mass spectrum: Cefadroxil; LC-ESI-QFT; MS2; CE: 45; R=35000; [M-H]-
Name: Cefadroxil
Name: 7-[[2-azaniumyl-2-(4-hydroxyphenyl)acetyl]amino]-3-methyl-8-oxo-5-thia-1-azabicyclo[4.2.0]oct-2-ene-2-carboxylate
Formula: C16H17N3O5S
Exact mass: 363.08889
SMILES: CC1=C(N2C(C(C2=O)NC(=O)C(C3=CC=C(C=C3)O)N)SC1)C(=O)O
InChI: InChI=1S/C16H17N3O5S/c1-7-6-25-15-11(14(22)19(15)12(7)16(23)24)18-13(21)10(17)8-2-4-9(20)5-3-8/h2-5,10-11,15,20H,6,17H2,1H3,(H,18,21)(H,23,24)
Instrument: Q Exactive Plus Orbitrap Thermo Scientific
Instrument type: LC-ESI-QFT
Ms type: MS2
Ion mode: NEGATIVE
Ionization: ESI
Fragmentation mode: HCD
Collision energy: 45 (nominal)
Resolution: 35000
Column name: XBridge C18 3.5um, 2.1x50mm, Waters
Retention time: 2.3 min
Base peak: 362.0818
Precursor m/z: 362.0816
Precursor type: [M-H]-
m/z	relative intensity	assigned
50.0036	3	C3N-
56.9805	24	C2HS-
57.9758	72	CNS-
59.9914	4	CH2NS-
60.9755	78	CHOS-
63.9625	4	O2S-
65.9985	9	C3NO-
66.0351	3	C4H4N-
67.0303	36	C3H3N2-
70.9836	14	C2HNS-
71.0252	16	C2H3N2O-
71.9914	10	C2H2NS-
72.0093	81	C2H2NO2-
72.9755	3	C2HOS-
72.9994	17	C2H3NS-
73.0119	9	C3H5S-
74.0072	25	C2H4NS-
80.0506	2	C5H6N-
82.0172	2	C3H2N2O-
83.0252	60	C3H3N2O-
83.9914	26	C3H2NS-
84.0092	340	C3H2NO2-
85.0296	4	C4H5O2-
86.0071	24	C3H4NS-
87.0025	2	C2H3N2S-
87.9864	10	C2H2NOS-
92.0507	31	C6H6N-
93.0347	520	C6H5O-
94.03	2	C5H4NO-
95.0252	73	C4H3N2O-
96.0456	4	C5H6NO-
96.9992	74	C4H3NS-
99.9864	76	C3H2NOS-
100.0228	11	C4H6NS-
102.0021	9	C3H4NOS-
102.0385	4	C4H8NS-
104.038	3	C6H4N2-
105.0346	3	C7H5O-
105.0459	22	C6H5N2-
107.0616	270	C6H7N2-
108.0457	16	C6H6NO-
109.0407	5	C5H5N2O-
109.0772	59	C6H9N2-
111.0024	46	C4H3N2S-
111.0201	156	C4H3N2O2-
111.9864	13	C4H2NOS-
112.0229	107	C5H6NS-
112.0405	17	C5H6NO2-
115.0225	2	C5H7OS-
117.0349	118	C8H5O-
117.046	173	C7H5N2-
118.0301	227	C7H4NO-
119.0504	288	C8H7O-
119.0616	134	C7H7N2-
120.0457	999	C7H6NO-
121.0295	3	C7H5O2-
121.0774	8	C7H9N2-
122.0489	10	C6H6N2O-
122.0613	4	C7H8NO-
123.0454	72	C7H7O2-
123.0567	10	C6H7N2O-
123.999	3	C6H4OS-
124.0227	39	C6H6NS-
124.0407	4	C6H6NO2-
126.0198	4	C5H4NO3-
126.0383	20	C6H8NS-
126.9973	25	C4H3N2OS-
127.9814	24	C4H2NO2S-
128.005	3	C4H4N2OS-
129.013	202	C4H5N2OS-
131.0378	84	C8H5NO-
132.0218	20	C8H4O2-
132.0456	77	C8H6NO-
132.0567	17	C7H6N3-
133.0297	115	C8H5O2-
134.0614	87	C8H8NO-
134.0724	9	C7H8N3-
135.0566	493	C7H7N2O-
136.0405	10	C7H6NO2-
137.0067	49	C7H5OS-
137.072	12	C7H9N2O-
138.0311	43	C5H4N3O2-
139.0279	4	C6H5NO3-
140.0176	11	C6H6NOS-
142.0334	96	C6H8NOS-
144.0457	226	C9H6NO-
145.0411	4	C8H5N2O-
146.025	13	C8H4NO2-
146.0375	3	C9H6O2-
146.0614	52	C9H8NO-
146.0726	8	C8H8N3-
147.0454	32	C9H7O2-
147.0566	19	C8H7N2O-
148.0407	69	C8H6NO2-
149.0242	2	C8H5O3-
150.0562	18	C8H8NO2-
150.0675	9	C7H8N3O-
151.0226	21	C8H7OS-
151.0515	13	C7H7N2O2-
152.0179	28	C7H6NOS-
154.0204	3	C6H6N2OS-
154.0298	3	C10H4NO-
154.9924	75	C5H3N2O2S-
155.038	5	C4H11O4S-
158.0486	21	C9H6N2O-
158.0614	3	C10H8NO-
159.0564	3	C9H7N2O-
160.0408	18	C3H12O5S-
160.0768	3	C10H10NO-
161.0069	23	C9H5OS-
162.0021	3	C8H4NOS-
162.0148	43	C9H6OS-
162.0441	20	C2H12NO5S-
162.0564	8	C9H8NO2-
163.0226	15	C9H7OS-
164.083	3	C8H10N3O-
165.0668	2	C8H9N2O2-
167.0288	13	C7H7N2OS-
168.0364	12	C7H8N2OS-
169.0445	70	C7H9N2OS-
171.0566	60	C10H7N2O-
173.0723	14	C10H9N2O-
174.0437	3	C9H6N2O2-
175.0516	13	C9H7N2O2-
178.0623	9	C8H8N3O2-
181.0443	3	C8H9N2OS-
182.0281	11	C8H8NO2S-
184.0516	19	C10H6N3O-
185.0597	22	C10H7N3O-
187.0514	26	C10H7N2O2-
188.0179	68	C10H6NOS-
188.0356	187	C10H6NO3-
189.0435	235	C10H7NO3-
189.0671	134	C10H9N2O2-
196.0304	2	C8H8N2O2S-
197.0393	33	C8H9N2O2S-
197.0596	26	C11H7N3O-
197.0721	5	C12H9N2O-
198.0803	10	C6H16NO4S-
198.0925	13	C13H12NO-
203.0463	4	C10H7N2O3-
204.0125	3	C10H6NO2S-
205.0621	217	C10H9N2O3-
206.0283	61	C10H8NO2S-
209.0725	9	C7H15NO4S-
211.088	49	C13H11N2O-
213.1036	35	C13H13N2O-
214.0878	11	C13H12NO2-
215.0466	69	C11H7N2O3-
216.0542	20	C11H8N2O3-
221.0391	2	C10H9N2O2S-
222.08	4	C14H10N2O-
223.088	125	C14H11N2O-
224.0505	3	C9H10N3O2S-
224.0833	14	C13H10N3O-
224.0959	41	C14H12N2O-
227.0827	3	C13H11N2O2-
229.0986	3	C13H13N2O2-
232.0076	21	C11H6NO3S-
232.0729	10	C11H10N3O3-
239.0832	30	C14H11N2O2-
240.1147	3	C14H14N3O-
241.0987	11	C14H13N2O2-
249.0345	31	C11H9N2O3S-
253.0623	12	C14H9N2O3-
255.0778	5	C14H11N2O3-
258.0588	3	C14H12NO2S-
267.0779	11	C15H11N2O3-
268.0859	35	C15H12N2O3-
274.054	6	C14H12NO3S-
