Mass spectrum: Dithiopyr; LC-ESI-QFT; MS2; CE: 90%; R=17500; [M+H]+
Name: Dithiopyr
Name: 3-S,5-S-dimethyl 2-(difluoromethyl)-4-(2-methylpropyl)-6-(trifluoromethyl)pyridine-3,5-dicarbothioate
Formula: C15H16F5NO2S2
Exact mass: 401.0543
SMILES: CC(C)CC1=C(C(=NC(=C1C(=O)SC)C(F)(F)F)C(F)F)C(=O)SC
InChI: InChI=1S/C15H16F5NO2S2/c1-6(2)5-7-8(13(22)24-3)10(12(16)17)21-11(15(18,19)20)9(7)14(23)25-4/h6,12H,5H2,1-4H3
Instrument: Exploris 240 Orbitrap Thermo Scientific
Instrument type: LC-ESI-QFT
Ms type: MS2
Ion mode: POSITIVE
Ionization: ESI
Fragmentation mode: HCD
Collision energy: 90 % (nominal)
Resolution: 17500
Column name: XBridge C18 3.5um, 2.1x50mm, Waters
Retention time: 12.694 min
Base peak: 334.1679
Precursor m/z: 402.0615
Precursor type: [M+H]+
m/z	relative intensity	assigned
61.0105	51	C2H5S+
74.9897	117	C2H3OS+
115.0545	167	C9H7+
132.0247	79	F3H11S2+
139.0018	68	C7H4FS+
140.0497	189	C2H14F2S2+
145.026	123	C7H4F3+
146.0059	298	C8H4NS+
148.0214	124	F5H7NS+
150.0342	56	C3H12F2S2+
152.0307	607	C8H4F2N+
154.0653	387	C11H8N+
160.0218	137	C9H6NS+
166.0121	188	C5H10O2S2+
168.9919	131	C8H3F2S+
171.0271	122	C8H8FOS+
172.0367	200	C8H5F3N+
175.9965	192	C9H3FNS+
178.0121	114	C6H10O2S2+
180.0259	82	CH12F4OS2+
188.0511	112	C3H15F3OS2+
188.9986	104	C8H4F3S+
196.0024	897	C9H4F2NS+
196.0227	65	C9H7FNOS+
197.0103	474	C6H10FO2S2+
198.0376	373	C12H8NS+
204.0628	110	C9H9F3NO+
209.9829	233	C9H2F2NOS+
210.0533	205	C11H14S2+
216.0084	643	C6H10F2O2S2+
216.0478	181	C12H10NOS+
217.0161	110	C6H11F2O2S2+
218.0438	107	C12H9FNS+
223.9978	999	C10H4F2NOS+
228.0279	203	C13H7FNS+
229.9887	116	C9H3F3NOS+
236.0156	100	C9H6F4NS+
237.9799	275	C10H5FNOS2+
244.0041	172	C10H5F3NOS+
248.0348	151	C13H8F2NS+
