Mass spectrum: N-Bisdesmethyl Tramadol; LC-ESI-QFT; MS2; CE: 180; R=35000; [M+H]+
Name: N-Bisdesmethyl Tramadol
Name: 2-(aminomethyl)-1-(3-methoxyphenyl)cyclohexan-1-ol
Formula: C14H21NO2
Exact mass: 235.15723
SMILES: COC1=CC=CC(=C1)C2(CCCCC2CN)O
InChI: InChI=1S/C14H21NO2/c1-17-13-7-4-6-11(9-13)14(16)8-3-2-5-12(14)10-15/h4,6-7,9,12,16H,2-3,5,8,10,15H2,1H3
Instrument: Q Exactive Plus Orbitrap Thermo Scientific
Instrument type: LC-ESI-QFT
Ms type: MS2
Ion mode: POSITIVE
Ionization: ESI
Fragmentation mode: HCD
Collision energy: 180 (nominal)
Resolution: 35000
Column name: XBridge C18 3.5um, 2.1x50mm, Waters
Retention time: 5.2 min
Base peak: 236.1644
Precursor m/z: 236.1645
Precursor type: [M+H]+
m/z	relative intensity	assigned
50.0151	173	C4H2+
51.023	341	C4H3+
52.0308	201	C4H4+
53.0022	42	C3HO+
53.0386	134	C4H5+
55.0178	11	C3H3O+
63.0229	158	C5H3+
64.0306	24	C5H4+
65.0386	728	C5H5+
66.0463	22	C5H6+
67.0541	7	C5H7+
75.0228	11	
76.0308	38	C6H4+
77.0385	155	C6H5+
78.0464	999	C6H6+
79.0541	32	C6H7+
81.0333	8	C5H5O+
89.0385	98	C7H5+
90.0464	8	C7H6+
91.0542	333	C7H7+
95.0491	249	C6H7O+
102.0464	76	C8H6+
103.0542	57	C8H7+
104.0619	5	C8H8+
105.0447	154	C6H5N2+
106.0413	9	C7H6O+
107.0491	12	C7H7O+
115.0542	283	C9H7+
116.062	13	C9H8+
121.0648	10	C8H9O+
126.0465	9	C10H6+
127.0543	20	C10H7+
128.0621	95	C10H8+
131.0492	10	C9H7O+
155.0603	9	C10H7N2+
