Mass spectrum: Chlorthiazide; LC-ESI-QFT; MS2; CE: 150; R=35000; [M-H]-
Name: Chlorthiazide
Name: 6-chloro-1,1-dioxo-4H-1$l^{6},2,4-benzothiadiazine-7-sulfonamide
Formula: C7H6ClN3O4S2
Exact mass: 294.94883
SMILES: C1=C2C(=CC(=C1Cl)S(=O)(=O)N)S(=O)(=O)NC=N2
InChI: InChI=1S/C7H6ClN3O4S2/c8-4-1-5-7(2-6(4)16(9,12)13)17(14,15)11-3-10-5/h1-3H,(H,10,11)(H2,9,12,13)
Instrument: Q Exactive Plus Orbitrap Thermo Scientific
Instrument type: LC-ESI-QFT
Ms type: MS2
Ion mode: NEGATIVE
Ionization: ESI
Fragmentation mode: HCD
Collision energy: 150 (nominal)
Resolution: 35000
Column name: XBridge C18 3.5um, 2.1x50mm, Waters
Retention time: 1.9 min
Base peak: 293.9414
Precursor m/z: 293.9415
Precursor type: [M-H]-
m/z	relative intensity	assigned
50.0036	207	C3N-
56.9804	92	C2HS-
57.9757	66	CNS-
60.0006	62	C5-
61.0084	23	C5H-
61.9706	30	NOS-
62.0036	22	C4N-
63.0115	17	C4HN-
63.9625	36	O2S-
64.0067	67	C3N2-
64.0193	326	C4H2N-
65.0146	542	C3HN2-
65.9986	55	C3NO-
71.9676	2	C2OS-
73.0085	10	C6H-
74.0038	44	C5N-
76.0194	17	C5H2N-
77.0034	2	C5HO-
77.9655	56	NO2S-
80.9805	16	C4HS-
81.9758	33	C3NS-
86.0037	211	C6N-
87.0114	302	C6HN-
88.0068	30	C5N2-
88.0193	510	C6H2N-
89.0145	123	C5HN2-
89.9986	4	C5NO-
90.0222	4	C5H2N2-
92.0143	5	C5H2NO-
101.9655	54	C2NO2S-
105.9757	9	C5NS-
108.9866	24	C4HN2S-
112.0068	30	C7N2-
113.0146	474	C7HN2-
114.0224	64	C7H2N2-
115.0302	999	C7H3N2-
119.025	4	C6H3N2O-
120.0091	3	C6H2NO2-
122.9882	3	C6H2ClN-
130.0171	14	C7H2N2O-
148.9912	14	C7H2ClN2-
177.9841	6	C7H2N2O2S-
178.9922	773	C7H3N2O2S-
