Mass spectrum: Cimaterol; LC-ESI-QFT; MS2; CE: 90; R=35000; [M+H]+
Name: Cimaterol
Name: 2-amino-5-[1-hydroxy-2-(propan-2-ylamino)ethyl]benzonitrile
Formula: C12H17N3O
Exact mass: 219.13716
SMILES: CC(C)NCC(C1=CC(=C(C=C1)N)C#N)O
InChI: InChI=1S/C12H17N3O/c1-8(2)15-7-12(16)9-3-4-11(14)10(5-9)6-13/h3-5,8,12,15-16H,7,14H2,1-2H3
Instrument: Q Exactive Plus Orbitrap Thermo Scientific
Instrument type: LC-ESI-QFT
Ms type: MS2
Ion mode: POSITIVE
Ionization: ESI
Fragmentation mode: HCD
Collision energy: 90 (nominal)
Resolution: 35000
Column name: XBridge C18 3.5um, 2.1x50mm, Waters
Retention time: 1.5 min
Base peak: 220.1439
Precursor m/z: 220.1444
Precursor type: [M+H]+
m/z	relative intensity	assigned
53.0022	3	C3HO+
63.0229	3	C5H3+
65.0385	5	C5H5+
67.9893	2	C3O2+
77.0385	1	C6H5+
79.0542	7	C6H7+
80.0495	1	C5H6N+
89.0386	127	C7H5+
90.0339	1	C6H4N+
91.0417	2	C6H5N+
91.0542	7	C7H7+
92.0494	11	C6H6N+
93.0573	5	C6H7N+
95.0491	1	C6H7O+
104.0494	11	C7H6N+
105.0448	2	C6H5N2+
105.0573	1	C7H7N+
106.0651	52	C7H8N+
114.0337	1	C8H4N+
116.0494	999	C8H6N+
117.0447	1	C7H5N2+
117.0572	13	C8H7N+
118.0525	67	C7H6N2+
118.0649	4	C8H8N+
119.0603	7	C7H7N2+
120.0443	1	C7H6NO+
128.0496	4	C9H6N+
130.0399	3	C7H4N3+
131.0604	224	C8H7N2+
132.0682	19	C8H8N2+
133.076	33	C8H9N2+
134.06	178	C8H8NO+
142.0526	118	C9H6N2+
143.0604	669	C9H7N2+
144.0556	48	C8H6N3+
144.068	10	C9H8N2+
158.0713	2	C9H8N3+
159.0791	15	C9H9N3+
160.0869	15	C9H10N3+
161.071	47	C9H9N2O+
