Mass spectrum: Capecitabine; LC-ESI-QFT; MS2; CE: 75; R=35000; [M-H]-
Name: Capecitabine
Name: (1-(5-Deoxy-beta-D-ribofuranosyl)-5-fluoro-1,2-dihydro-2-oxo-4-pyrimidinyl)-carbamic acid pentyl ester
Name: N-[1-[(2R,3R,4S,5R)-3,4-dihydroxy-5-methyl-2-oxolanyl]-5-fluoro-2-oxo-4-pyrimidinyl]carbamic acid pentyl ester
Formula: C15H22FN3O6
Exact mass: 359.14926
SMILES: FC=1\C(=N/C(=O)N(C=1)[C@@H]2O[C@@H]([C@@H](O)[C@H]2O)C)\NC(=O)OCCCCC
InChI: InChI=1S/C15H22FN3O6/c1-3-4-5-6-24-15(23)18-12-9(16)7-19(14(22)17-12)13-11(21)10(20)8(2)25-13/h7-8,10-11,13,20-21H,3-6H2,1-2H3,(H,17,18,22,23)/t8-,10-,11-,13-/m1/s1
Instrument: Q Exactive Orbitrap Thermo Scientific
Instrument type: LC-ESI-QFT
Ms type: MS2
Ion mode: NEGATIVE
Ionization: ESI
Fragmentation mode: HCD
Collision energy: 75 (nominal)
Resolution: 35000
Column name: XBridge C18 3.5um, 2.1x50mm, Waters
Retention time: 7.8 min
Base peak: 358.1422
Precursor m/z: 358.142
Precursor type: [M-H]-
m/z	relative intensity	assigned
64.0066	18	C3N2-
65.0146	67	C3HN2-
65.9985	120	C3NO-
70.0099	20	C3HFN-
77.0146	75	C4HN2-
80.0016	62	C3N2O-
80.0143	14	C4H2NO-
83.0052	101	C3FN2-
84.0256	51	C4H3FN-
85.0209	17	C3H2FN2-
85.0659	104	C5H9O-
87.0816	12	C5H11O-
89.0145	16	C5HN2-
93.0094	18	C4HN2O-
97.0208	240	C4H2FN2-
99.0364	43	C4H4FN2-
105.0094	13	C5HN2O-
106.0173	190	C5H2N2O-
107.0251	158	C5H3N2O-
109.0045	10	C4HN2O2-
109.0208	12	C5H2FN2-
111	11	C4FN2O-
113.0158	74	C4H2FN2O-
113.9997	16	C4HFNO2-
120.0199	8	C5H2N3O-
125.0156	687	C5H2FN2O-
129.0106	44	C4H2FN2O2-
135.0201	15	C6H3N2O2-
148.0154	14	C6H2N3O2-
150.007	15	C6H2N2O3-
153.0106	999	C6H2FN2O2-
154.0058	289	C5HFN3O2-
155.0827	81	C7H11N2O2-
164.0102	11	C6H2N3O3-
179.0827	47	C9H11N2O2-
