Mass spectrum: Tetrazepam; LC-ESI-QFT; MS2; CE: 90; R=35000; [M+H]+
Name: Tetrazepam
Name: 7-chloro-5-(cyclohexen-1-yl)-1-methyl-3H-1,4-benzodiazepin-2-one
Formula: C16H17ClN2O
Exact mass: 288.10294
SMILES: CN1C(=O)CN=C(C2=C1C=CC(=C2)Cl)C3=CCCCC3
InChI: InChI=1S/C16H17ClN2O/c1-19-14-8-7-12(17)9-13(14)16(18-10-15(19)20)11-5-3-2-4-6-11/h5,7-9H,2-4,6,10H2,1H3
Instrument: Q Exactive Orbitrap Thermo Scientific
Instrument type: LC-ESI-QFT
Ms type: MS2
Ion mode: POSITIVE
Ionization: ESI
Fragmentation mode: HCD
Collision energy: 90 (nominal)
Resolution: 35000
Column name: XBridge C18 3.5um, 2.1x50mm, Waters
Retention time: 10.1 min
Base peak: 289.1101
Precursor m/z: 289.1102
Precursor type: [M+H]+
m/z	relative intensity	assigned
50.0151	3	C4H2+
53.0022	3	C3HO+
53.0386	4	C4H5+
58.0287	44	C2H4NO+
65.0385	84	C5H5+
66.0464	22	C5H6+
67.0416	27	C4H5N+
67.0542	339	C5H7+
68.0494	26	C4H6N+
69.0698	8	C5H9+
70.065	5	C4H8N+
77.0385	33	C6H5+
79.0541	484	C6H7+
80.0494	31	C5H6N+
80.062	6	C6H8+
81.0698	455	C6H9+
82.065	32	C5H8N+
89.0384	33	C7H5+
90.0463	5	C7H6+
91.0541	157	C7H7+
92.0491	4	C6H6N+
93.0571	5	C6H7N+
93.0698	32	C7H9+
94.065	13	C6H8N+
95.049	89	C6H7O+
95.0728	8	C6H9N+
95.0854	24	C7H11+
96.0806	17	C6H10N+
98.9995	16	C5H4Cl+
102.0465	5	C8H6+
103.0541	19	C8H7+
104.0493	18	C7H6N+
105.0446	39	C6H5N2+
105.0572	3	C7H7N+
106.0652	4	C7H8N+
108.0804	3	C7H10N+
110.0962	18	C7H12N+
113.0151	7	C6H6Cl+
115.054	71	C9H7+
116.0492	30	C8H6N+
116.0619	7	C9H8+
117.0571	308	C8H7N+
118.0649	97	C8H8N+
119.0604	4	C7H7N2+
119.0729	54	C8H9N+
120.0806	23	C8H10N+
122.9994	7	C7H4Cl+
125.0151	121	C7H6Cl+
126.0229	22	C7H7Cl+
127.031	4	C7H8Cl+
128.0491	27	C9H6N+
128.062	47	C10H8+
129.0571	19	C9H7N+
129.0696	55	C10H9+
130.065	153	C9H8N+
131.0603	15	C8H7N2+
131.0728	97	C9H9N+
132.0679	20	C8H8N2+
132.0805	3	C9H10N+
133.0647	2	C9H9O+
134.06	5	C8H8NO+
137.0029	5	C7H4ClN+
137.0151	4	C8H6Cl+
138.0104	64	C7H5ClN+
139.0181	51	C7H6ClN+
139.0538	3	C11H7+
140.026	79	C7H7ClN+
140.0491	16	C10H6N+
140.0617	6	C11H8+
141.057	16	C10H7N+
141.0696	65	C11H9+
142.0652	35	C10H8N+
142.0775	7	C11H10+
143.0603	263	C9H7N2+
143.0728	162	C10H9N+
144.0683	70	C9H8N2+
144.0807	156	C10H10N+
145.0645	6	C10H9O+
145.0759	15	C9H9N2+
145.0885	23	C10H11N+
146.06	20	C9H8NO+
146.0837	23	C9H10N2+
147.0676	26	C9H9NO+
147.0803	7	C10H11O+
149.0152	29	C9H6Cl+
150.0103	36	C8H5ClN+
151.0182	72	C8H6ClN+
152.0137	5	C7H5ClN2+
152.026	53	C8H7ClN+
152.062	33	C12H8+
153.0213	6	C7H6ClN2+
153.0699	45	C12H9+
154.0417	217	C8H9ClN+
154.065	217	C11H8N+
155.0602	65	C10H7N2+
155.0728	97	C11H9N+
155.0855	7	C12H11+
156.0682	46	C10H8N2+
156.0807	186	C11H10N+
157.0395	13	C9H5N2O+
157.0759	86	C10H9N2+
157.0884	96	C11H11N+
158.0838	14	C10H10N2+
158.0962	22	C11H12N+
159.0914	4	C10H11N2+
160.0998	3	C10H12N2+
162.0105	30	C9H5ClN+
163.0181	6	C9H6ClN+
163.0308	5	C10H8Cl+
164.026	275	C9H7ClN+
165.0214	46	C8H6ClN2+
165.0338	37	C9H8ClN+
165.0696	88	C13H9+
166.029	4	C8H7ClN2+
166.0416	17	C12H6O+
166.0652	52	C12H8N+
166.0774	22	C13H10+
167.0131	57	C8H6ClNO+
167.0728	317	C12H9N+
168.0679	57	C11H8N2+
168.0806	426	C12H10N+
169.0761	144	C11H9N2+
169.0883	224	C12H11N+
170.084	104	C11H10N2+
170.0961	204	C12H12N+
171.0915	302	C11H11N2+
171.1039	18	C12H13N+
172.063	43	C10H8N2O+
172.0992	74	C11H12N2+
175.0182	23	C10H6ClN+
175.0307	7	C11H8Cl+
176.0261	45	C10H7ClN+
177.0338	83	C10H8ClN+
178.029	21	C9H7ClN2+
178.0416	217	C10H9ClN+
178.0775	19	C14H10+
179.0489	7	C13H7O+
179.0728	14	C13H9N+
179.0853	23	C14H11+
180.021	40	C9H7ClNO+
180.0806	351	C13H10N+
181.076	183	C12H9N2+
181.0883	303	C13H11N+
182.0837	472	C12H10N2+
182.0962	422	C13H12N+
183.0914	476	C12H11N2+
183.104	381	C13H13N+
184.0994	57	C12H12N2+
184.1118	24	C13H14N+
185.1072	92	C12H13N2+
188.026	45	C11H7ClN+
189.0343	4	C11H8ClN+
190.0417	123	C11H9ClN+
191.037	38	C10H8ClN2+
191.0495	100	C11H10ClN+
192.0447	21	C10H9ClN2+
192.0568	26	C14H8O+
192.0805	22	C14H10N+
193.0526	40	C10H10ClN2+
193.0885	54	C14H11N+
194.0963	164	C14H12N+
195.0915	111	C13H11N2+
195.1037	23	C14H13N+
196.0994	114	C13H12N2+
196.1118	409	C14H14N+
197.1071	999	C13H13N2+
197.1195	134	C14H15N+
198.0787	21	C12H10N2O+
198.091	14	C13H12NO+
198.1149	71	C13H14N2+
198.1274	137	C14H16N+
199.0863	173	C12H11N2O+
200.0939	32	C12H12N2O+
201.0335	56	C15H5O+
202.0414	141	C15H6O+
203.0367	144	C14H5NO+
203.0491	18	C15H7O+
204.0459	10	C11H9ClN2+
204.0573	99	C12H11ClN+
205.0524	30	C14H7NO+
207.0682	19	C11H12ClN2+
207.0917	6	C14H11N2+
207.1036	4	C15H13N+
208.1119	61	C15H14N+
209.071	5	C13H9N2O+
209.107	61	C14H13N2+
210.0785	20	C13H10N2O+
210.115	30	C14H14N2+
211.0865	74	C13H11N2O+
211.1227	50	C14H15N2+
212.0942	29	C13H12N2O+
213.102	79	C13H13N2O+
214.0416	49	C13H9ClN+
215.0367	47	
215.0492	22	C16H7O+
216.0449	25	C12H9ClN2+
216.0573	116	C13H11ClN+
217.0526	241	C12H10ClN2+
217.0647	27	C16H9O+
218.0367	16	C12H9ClNO+
218.0606	108	C12H11ClN2+
218.0727	16	C16H10O+
219.0683	18	C12H12ClN2+
223.0868	7	C14H11N2O+
223.1227	23	C15H15N2+
224.094	4	C14H12N2O+
225.1021	706	C14H13N2O+
225.1384	173	C15H17N2+
226.1097	51	C14H14N2O+
228.0571	55	C14H11ClN+
229.0527	21	C13H10ClN2+
230.0727	30	C14H13ClN+
231.0321	12	C12H8ClN2O+
231.0683	32	C13H12ClN2+
232.0884	50	C14H15ClN+
233.0838	17	C16H11NO+
237.1023	4	C15H13N2O+
239.1175	18	C15H15N2O+
243.0681	6	C14H12ClN2+
244.0523	13	C14H11ClNO+
245.0478	19	C13H10ClN2O+
245.0838	67	C14H14ClN2+
247.0629	4	C13H12ClN2O+
253.1332	65	C16H17N2O+
259.0632	4	C14H12ClN2O+
