Mass spectrum: Gabapentin; LC-ESI-ITFT; MS2; CE: 90%; R=7500; [M+H]+
Name: Gabapentin
Name: 1-(Aminomethyl)cyclohexaneacetic acid
Name: 2-[1-(aminomethyl)cyclohexyl]acetic acid
Formula: C9H17NO2
Exact mass: 171.1259
SMILES: NCC1(CC(O)=O)CCCCC1
InChI: InChI=1S/C9H17NO2/c10-7-9(6-8(11)12)4-2-1-3-5-9/h1-7,10H2,(H,11,12)
Instrument: LTQ Orbitrap XL Thermo Scientific
Instrument type: LC-ESI-ITFT
Ms type: MS2
Ion mode: POSITIVE
Ionization: ESI
Fragmentation mode: HCD
Collision energy: 90 % (nominal)
Resolution: 7500
Column name: XBridge C18 3.5um, 2.1x50mm, Waters
Retention time: 3.6 min
Base peak: 172.1336
Precursor m/z: 172.1332
Precursor type: [M+H]+
m/z	relative intensity	assigned
55.0178	201	C3H3O+
55.0541	19	C4H7+
65.0387	20	C5H5+
67.0543	522	C5H7+
69.0701	25	C5H9+
72.0445	7	C3H6NO+
77.0387	23	C6H5+
79.0542	25	C6H7+
80.0498	14	C5H6N+
81.0699	91	C6H9+
83.0491	8	C5H7O+
83.0854	12	C6H11+
91.0542	365	C7H7+
93.0699	281	C7H9+
95.0856	999	C7H11+
107.0851	14	C8H11+
109.1012	248	C8H13+
110.0965	66	C7H12N+
112.112	20	C7H14N+
117.0702	14	C9H9+
119.0856	202	C9H11+
126.128	20	C8H16N+
136.1121	62	C9H14N+
137.0961	116	C9H13O+
154.1223	121	C9H16NO+
