Mass spectrum: Enrofloxacin; LC-ESI-QFT; MS2; CE: 30; R=35000; [M+H]+
Name: Enrofloxacin
Name: 1-cyclopropyl-7-(4-ethylpiperazin-4-ium-1-yl)-6-fluoro-4-oxoquinoline-3-carboxylate
Formula: C19H22FN3O3
Exact mass: 359.16452
SMILES: CCN1CCN(CC1)C2=C(C=C3C(=C2)N(C=C(C3=O)C(=O)O)C4CC4)F
InChI: InChI=1S/C19H22FN3O3/c1-2-21-5-7-22(8-6-21)17-10-16-13(9-15(17)20)18(24)14(19(25)26)11-23(16)12-3-4-12/h9-12H,2-8H2,1H3,(H,25,26)
Instrument: Q Exactive Plus Orbitrap Thermo Scientific
Instrument type: LC-ESI-QFT
Ms type: MS2
Ion mode: POSITIVE
Ionization: ESI
Fragmentation mode: HCD
Collision energy: 30 (nominal)
Resolution: 35000
Column name: XBridge C18 3.5um, 2.1x50mm, Waters
Retention time: 4.4 min
Base peak: 360.1712
Precursor m/z: 360.1718
Precursor type: [M+H]+
m/z	relative intensity	assigned
72.0808	15	C4H10N+
84.0808	3	C5H10N+
86.0965	3	C5H12N+
98.0964	3	C6H12N+
203.0616	2	C11H8FN2O+
204.0694	6	C11H9FN2O+
219.0929	1	C12H12FN2O+
231.093	11	C13H12FN2O+
245.1087	126	C14H14FN2O+
257.1091	2	C15H14FN2O+
268.1449	1	C16H18N3O+
273.1396	1	C16H18FN2O+
275.1423	1	C18H17N3+
285.1271	1	C16H16FN3O+
287.142	2	C16H18FN3O+
288.1508	10	C16H19FN3O+
296.1761	4	C18H22N3O+
314.1665	29	C18H21FN3O+
316.1821	999	C18H23FN3O+
342.1615	278	C19H21FN3O2+
360.1719	641	C19H23FN3O3+
361.1757	3	C17H23N5O4+
