Mass spectrum: Anthraquinone; LC-ESI-QFT; MS2; CE: 90%; R=17500; [M+H]+
Name: Anthraquinone
Name: anthracene-9,10-dione
Formula: C14H8O2
Exact mass: 208.0524
SMILES: C1=CC=C2C(=C1)C(=O)C3=CC=CC=C3C2=O
InChI: InChI=1S/C14H8O2/c15-13-9-5-1-2-6-10(9)14(16)12-8-4-3-7-11(12)13/h1-8H
Instrument: Exploris 240 Orbitrap Thermo Scientific
Instrument type: LC-ESI-QFT
Ms type: MS2
Ion mode: POSITIVE
Ionization: ESI
Fragmentation mode: HCD
Collision energy: 90 % (nominal)
Resolution: 17500
Column name: XBridge C18 3.5um, 2.1x50mm, Waters
Retention time: 9.212 min
Base peak: 132.9582
Precursor m/z: 209.0597
Precursor type: [M+H]+
m/z	relative intensity	assigned
53.0385	14	C4H5+
77.0385	36	C6H5+
95.0491	20	C6H7O+
105.0336	193	C7H5O+
127.0541	16	C10H7+
151.0543	50	C12H7+
152.062	999	C12H8+
153.0699	227	C12H9+
169.0649	58	C12H9O+
209.0601	34	C14H9O2+
