Mass spectrum: Nateglinide; LC-ESI-QFT; MS2; CE: 45; R=35000; [M+H]+
Name: Nateglinide
Formula: C19H27NO3
Exact mass: 317.19909
SMILES: CC([C@H]1CC[C@@H](CC1)C(=O)N[C@@H](C(=O)O)CC2=CC=CC=C2)C
InChI: InChI=1S/C19H27NO3/c1-13(2)15-8-10-16(11-9-15)18(21)20-17(19(22)23)12-14-6-4-3-5-7-14/h3-7,13,15-17H,8-12H2,1-2H3,(H,20,21)(H,22,23)/t15-,16-,17-/m1/s1
Instrument: Q Exactive Orbitrap Thermo Scientific
Instrument type: LC-ESI-QFT
Ms type: MS2
Ion mode: POSITIVE
Ionization: ESI
Fragmentation mode: HCD
Collision energy: 45 (nominal)
Resolution: 35000
Column name: XBridge C18 3.5um, 2.1x50mm, Waters
Retention time: 13.7 min
Base peak: 318.2065
Precursor m/z: 318.2064
Precursor type: [M+H]+
m/z	relative intensity	assigned
57.0699	55	C4H9+
67.0542	23	C5H7+
69.0699	999	C5H9+
83.0855	306	C6H11+
91.0541	2	C7H7+
93.0699	3	C7H9+
103.0543	11	C8H7+
107.0493	4	C7H7O+
120.0808	703	C8H10N+
125.1325	121	C9H17+
131.0492	16	C9H7O+
149.0598	13	C9H9O2+
166.0863	80	C9H12NO2+
