Mass spectrum: Iomeprol; LC-ESI-ITFT; MS2; CE: 30%; R=7500; [M+H]+
Name: Iomeprol
Name: 1-N,3-N-bis(2,3-dihydroxypropyl)-5-[(2-hydroxyacetyl)-methylamino]-2,4,6-triiodobenzene-1,3-dicarboxamide
Formula: C17H22I3N3O8
Exact mass: 776.8541
SMILES: Ic1c(c(I)c(c(I)c1N(C)C(=O)CO)C(=O)NCC(O)CO)C(=O)NCC(O)CO
InChI: InChI=1S/C17H22I3N3O8/c1-23(9(29)6-26)15-13(19)10(16(30)21-2-7(27)4-24)12(18)11(14(15)20)17(31)22-3-8(28)5-25/h7-8,24-28H,2-6H2,1H3,(H,21,30)(H,22,31)
Instrument: LTQ Orbitrap XL Thermo Scientific
Instrument type: LC-ESI-ITFT
Ms type: MS2
Ion mode: POSITIVE
Ionization: ESI
Fragmentation mode: HCD
Collision energy: 30 % (nominal)
Resolution: 7500
Column name: XBridge C18 3.5um, 2.1x50mm, Waters
Retention time: 1.6 min
Base peak: 132.9578
Precursor m/z: 777.8614
Precursor type: [M+H]+
m/z	relative intensity	assigned
74.0601	12	C3H8NO+
293.9139	13	C6H3IN2O4+
319.9407	5	C9H7INO4+
331.9422	21	C10H7INO4+
374.9839	16	C12H12IN2O4+
386.983	18	C13H12IN2O4+
404.9942	999	C13H14IN2O5+
423.0051	23	C13H16IN2O6+
446.8454	10	C9H7I2NO4+
531.8987	98	C13H14I2N2O5+
558.8858	82	C14H13I2N2O6+
686.7981	9	C17H12I3N3O3+
