Mass spectrum: 1-Hydroxybenzotriazole; LC-ESI-QFT; MS2; CE: 45; R=35000; [M+H]+
Name: 1-Hydroxybenzotriazole
Formula: C6H5N3O
Exact mass: 135.04326
SMILES: C1=CC=C2C(=C1)N=NN2O
InChI: InChI=1S/C6H5N3O/c10-9-6-4-2-1-3-5(6)7-8-9/h1-4,10H
Instrument: Q Exactive Plus Orbitrap Thermo Scientific
Instrument type: LC-ESI-QFT
Ms type: MS2
Ion mode: POSITIVE
Ionization: ESI
Fragmentation mode: HCD
Collision energy: 45 (nominal)
Resolution: 35000
Column name: XBridge C18 3.5um, 2.1x50mm, Waters
Retention time: 3.0 min
Base peak: 136.0506
Precursor m/z: 136.0505
Precursor type: [M+H]+
m/z	relative intensity	assigned
53.0386	21	C4H5+
63.0227	1	C5H3+
64.0306	2	C5H4+
65.0387	1	C5H5+
77.0383	1	C6H5+
78.0464	14	C6H6+
80.0495	36	C5H6N+
81.0336	2	C5H5O+
90.0339	1	C6H4N+
91.0417	165	C6H5N+
105.0448	1	C6H5N2+
106.0526	2	C6H6N2+
108.0443	1	C6H6NO+
109.0523	10	
119.0479	68	C6H5N3+
136.0506	999	C6H6N3O+
