Mass spectrum: 5-Chloro-2-methyl-4-isothiazolin-3-one (CMI); LC-ESI-ITFT; MS2; CE: 90%; R=15000; [M+H]+
Name: 5-Chloro-2-methyl-4-isothiazolin-3-one (CMI)
Name: 3(2H)-Isothiazolone, 5-chloro-2-methyl-
Name: 5-chloranyl-2-methyl-1,2-thiazol-3-one
Formula: C4H4ClNOS
Exact mass: 148.9702
SMILES: c1(n(sc(c1)Cl)C)=O
InChI: InChI=1S/C4H4ClNOS/c1-6-4(7)2-3(5)8-6/h2H,1H3
Instrument: LTQ Orbitrap XL Thermo Scientific
Instrument type: LC-ESI-ITFT
Ms type: MS2
Ion mode: POSITIVE
Ionization: ESI
Fragmentation mode: HCD
Collision energy: 90 % (nominal)
Resolution: 15000
Column name: XBridge C18 3.5um, 2.1x50mm, Waters
Retention time: 3.7 min
Base peak: 149.9773
Precursor m/z: 149.9775
Precursor type: [M+H]+
m/z	relative intensity	assigned
57.9872	4	C2H2S+
58.0288	55	C2H4NO+
58.995	17	C2H3S+
59.9903	10	CH2NS+
60.0029	6	C2H4S+
60.984	3	C2H2Cl+
61.9793	2	CHClN+
62.0059	9	CH4NS+
62.9997	5	C2H4Cl+
63.9949	4	CH3ClN+
66.0105	3	CH5ClN+
67.0179	44	C4H3O+
68.9795	5	C3HS+
69.9747	4	C2NS+
69.9872	4	C3H2S+
70.0289	1	C3H4NO+
70.9951	56	C3H3S+
71.9903	3	C2H2NS+
72.0029	9	C3H4S+
72.984	13	C3H2Cl+
74.006	25	C2H4NS+
74.9997	17	C3H4Cl+
75.9948	1	C2H3ClN+
78.0106	31	C2H5ClN+
78.9404	24	CClS+
79.9483	10	CHClS+
80.9561	6	CH2ClS+
82.0289	1	C4H4NO+
82.9825	19	C3HNS+
83.9665	34	C3OS+
84.9744	21	C3HOS+
86.006	35	C3H4NS+
86.9633	87	C3ClO+
86.99	6	C3H3OS+
87.0138	24	C3H5NS+
87.9949	15	C3H3ClN+
88.9789	4	C3H2ClO+
90.0008	6	C2H4NOS+
90.9405	9	C2ClS+
92.9561	38	C2H2ClS+
94.9718	26	C2H4ClS+
95.9904	160	C4H2NS+
102.0008	2	C3H4NOS+
102.9405	22	C3ClS+
102.9946	71	C4H4ClO+
104.9561	61	C3H2ClS+
106.0056	19	C3H5ClNO+
106.9592	46	C2H2ClNS+
106.9717	27	C3H4ClS+
114.001	11	C4H4NOS+
115.0087	265	C4H5NOS+
115.9899	3	C4H3ClNO+
116.9977	17	C4H4ClNO+
117.9515	8	C3HClNS+
118.9354	213	C3ClOS+
119.967	3	C3H3ClNS+
120.9511	53	C3H2ClOS+
121.9828	3	C3H5ClNS+
122.967	1	C3H4ClOS+
131.9672	6	C4H3ClNS+
132.9511	15	C4H2ClOS+
134.9541	429	C3H2ClNOS+
147.9621	6	C4H3ClNOS+
149.9776	999	C4H5ClNOS+
