Mass spectrum: Metamitron; LC-ESI-ITFT; MS2; CE: 75%; R=15000; [M+H]+
Name: Metamitron
Name: 4-Amino-4,5-dihydro-3-methyl-6-phenyl-1,2,4-triazin-5-one
Name: 4-amino-3-methyl-6-phenyl-1,2,4-triazin-5-one
Formula: C10H10N4O
Exact mass: 202.0860
SMILES: c(ccc1C(=NN=C2C)C(=O)N2N)cc1
InChI: InChI=1S/C10H10N4O/c1-7-12-13-9(10(15)14(7)11)8-5-3-2-4-6-8/h2-6H,11H2,1H3
Instrument: LTQ Orbitrap XL Thermo Scientific
Instrument type: LC-ESI-ITFT
Ms type: MS2
Ion mode: POSITIVE
Ionization: ESI
Fragmentation mode: HCD
Collision energy: 75 % (nominal)
Resolution: 15000
Column name: XBridge C18 3.5um, 2.1x50mm, Waters
Retention time: 4.9 min
Base peak: 203.093
Precursor m/z: 203.0927
Precursor type: [M+H]+
m/z	relative intensity	assigned
56.013	13	C2H2NO+
57.0447	69	C2H5N2+
59.0239	10	CH3N2O+
65.0386	8	C5H5+
66.0465	9	C5H6+
72.0443	11	C3H6NO+
72.0557	38	C2H6N3+
77.0386	139	C6H5+
79.0543	134	C6H7+
83.024	52	C3H3N2O+
89.0386	52	C7H5+
91.0544	10	C7H7+
92.0257	9	C6H4O+
92.0495	65	C6H6N+
93.0576	8	C6H7N+
94.0414	10	C6H6O+
95.0495	11	C6H7O+
104.0496	999	C7H6N+
105.0448	32	C6H5N2+
105.0573	58	C7H7N+
106.0652	86	C7H8N+
107.0606	18	C6H7N2+
117.0447	24	C7H5N2+
118.0526	49	C7H6N2+
118.0651	10	C8H8N+
119.0603	27	C7H7N2+
130.0652	56	C9H8N+
134.0713	41	C7H8N3+
145.0398	25	C8H5N2O+
158.0714	28	C9H8N3+
159.0792	87	C9H9N3+
173.0708	12	C10H9N2O+
174.0788	110	C10H10N2O+
175.0979	626	C9H11N4+
187.0736	11	C10H9N3O+
203.0932	120	C10H11N4O+
