Mass spectrum: N-ethyl-4-methoxybenzamide; LC-ESI-QFT; MS2; CE: 75; R=35000; [M+H]+
Name: N-ethyl-4-methoxybenzamide
Formula: C10H13NO2
Exact mass: 179.09463
SMILES: O=C(c1ccc(OC)cc1)NCC
InChI: InChI=1S/C10H13NO2/c1-3-11-10(12)8-4-6-9(13-2)7-5-8/h4-7H,3H2,1-2H3,(H,11,12)
Instrument: Q Exactive Orbitrap Thermo Scientific
Instrument type: LC-ESI-QFT
Ms type: MS2
Ion mode: POSITIVE
Ionization: ESI
Fragmentation mode: HCD
Collision energy: 75 (nominal)
Resolution: 35000
Column name: XBridge C18 3.5um, 2.1x50mm, Waters
Retention time: 5.6 min
Base peak: 180.1017
Precursor m/z: 180.1019
Precursor type: [M+H]+
m/z	relative intensity	assigned
53.0386	11	C4H5+
63.0228	1	C5H3+
65.0385	3	C5H5+
66.0464	1	C5H6+
68.0256	1	C4H4O+
68.997	1	C3HO2+
72.0443	39	C3H6NO+
77.0385	83	C6H5+
79.0542	60	C6H7+
81.0334	7	C5H5O+
81.0698	5	C6H9+
91.054	3	C7H7+
92.0255	119	C6H4O+
94.0412	135	C6H6O+
95.049	241	C6H7O+
105.0446	111	C6H5N2+
107.049	36	C7H7O+
109.0647	58	C7H9O+
111.044	1	C6H7O2+
119.0364	3	C7H5NO+
125.0596	182	C7H9O2+
134.06	23	C8H8NO+
135.044	999	C8H7O2+
135.0547	173	C7H7N2O+
