Mass spectrum: Gabapentin Related Compound E; LC-ESI-QFT; MS2; CE: 120; R=35000; [M+H]+
Name: Gabapentin Related Compound E
Name: 1-(carboxymethyl)cyclohexanecarboxylic acid
Name: 1-(carboxymethyl)cyclohexane-1-carboxylic acid
Formula: C9H14O4
Exact mass: 186.08921
SMILES: C1CC[C@@](CC1)(C(=O)O)CC(=O)O
InChI: InChI=1S/C9H14O4/c10-7(11)6-9(8(12)13)4-2-1-3-5-9/h1-6H2,(H,10,11)(H,12,13)
Instrument: Q Exactive Plus Orbitrap Thermo Scientific
Instrument type: LC-ESI-QFT
Ms type: MS2
Ion mode: POSITIVE
Ionization: ESI
Fragmentation mode: HCD
Collision energy: 120 (nominal)
Resolution: 35000
Column name: XBridge C18 3.5um, 2.1x50mm, Waters
Retention time: 6.8 min
Base peak: 141.091
Precursor m/z: 187.0965
Precursor type: [M+H]+
m/z	relative intensity	assigned
50.0151	1	C4H2+
51.023	5	C4H3+
53.0022	13	C3HO+
53.0386	109	C4H5+
53.9975	1	C2NO+
55.0543	217	C4H7+
57.0335	11	C3H5O+
59.0492	1	C3H7O+
65.0386	63	C5H5+
66.0464	22	C5H6+
67.0542	427	C5H7+
67.9893	2	C3O2+
77.0385	27	C6H5+
79.0542	717	C6H7+
80.062	12	C6H8+
81.0699	999	C6H9+
91.0543	24	C7H7+
93.07	50	C7H9+
95.0492	94	C6H7O+
95.0856	142	C7H11+
99.0805	3	C6H11O+
103.0543	12	C8H7+
105.0448	48	C6H5N2+
105.0699	18	C8H9+
