Mass spectrum: Iminostilbene; LC-ESI-ITFT; MS2; CE: 90%; R=7500; [M+H]+
Name: Iminostilbene
Name: 11H-benzo[b][1]benzazepine
Formula: C14H11N
Exact mass: 193.0891
SMILES: c1cc2Nc3ccccc3\C=C/c2cc1
InChI: InChI=1S/C14H11N/c1-3-7-13-11(5-1)9-10-12-6-2-4-8-14(12)15-13/h1-10,15H
Instrument: LTQ Orbitrap XL Thermo Scientific
Instrument type: LC-ESI-ITFT
Ms type: MS2
Ion mode: POSITIVE
Ionization: ESI
Fragmentation mode: HCD
Collision energy: 90 % (nominal)
Resolution: 7500
Column name: XBridge C18 3.5um, 2.1x50mm, Waters
Retention time: 11.0 min
Base peak: 194.0971
Precursor m/z: 194.0964
Precursor type: [M+H]+
m/z	relative intensity	assigned
89.039	5	C7H5+
90.0464	7	C7H6+
91.0543	22	C7H7+
116.0496	15	C8H6N+
117.0573	31	C8H7N+
128.0491	5	C9H6N+
152.0621	69	C12H8+
154.0656	5	C11H8N+
165.0699	67	C13H9+
167.0733	97	C12H9N+
176.0623	21	C14H8+
177.0698	24	C14H9+
178.0657	50	C13H8N+
179.0731	571	C13H9N+
191.0734	16	C14H9N+
192.0813	168	C14H10N+
193.089	999	C14H11N+
194.0968	785	C14H12N+
