Mass spectrum: Ethiofencarb-Sulfone; LC-ESI-QFT; MS2; CE: 180%; R=17500; [M+H]+
Name: Ethiofencarb-Sulfone
Name: Phenol, 2-((ethylsulfonyl)methyl)-, methylcarbamate
Name: [2-(ethylsulfonylmethyl)phenyl] N-methylcarbamate
Formula: C11H15NO4S
Exact mass: 257.0722
SMILES: CCS(=O)(=O)CC1=CC=CC=C1OC(=O)NC
InChI: InChI=1S/C11H15NO4S/c1-3-17(14,15)8-9-6-4-5-7-10(9)16-11(13)12-2/h4-7H,3,8H2,1-2H3,(H,12,13)
Instrument: Exploris 240 Orbitrap Thermo Scientific
Instrument type: LC-ESI-QFT
Ms type: MS2
Ion mode: POSITIVE
Ionization: ESI
Fragmentation mode: HCD
Collision energy: 180 % (nominal)
Resolution: 17500
Column name: XBridge C18 3.5um, 2.1x50mm, Waters
Retention time: 3.501 min
Base peak: 201.058
Precursor m/z: 258.0795
Precursor type: [M+H]+
m/z	relative intensity	assigned
50.0151	179	C4H2+
51.0229	999	C4H3+
53.0386	270	C4H5+
55.0179	16	C3H3O+
58.0289	25	C2H4NO+
77.0385	778	C6H5+
78.0465	14	C6H6+
79.0542	85	C6H7+
81.0334	19	C5H5O+
94.0414	28	C6H6O+
95.0491	220	C6H7O+
107.0494	27	C7H7O+
