Mass spectrum: Dichlorprop; LC-ESI-ITFT; MS2; CE: 15%; R=7500; [M-H]-
Name: Dichlorprop
Name: 2-(2,4-dichlorophenoxy)propanoic acid
Formula: C9H8Cl2O3
Exact mass: 233.9845
SMILES: CC(OC1=C(Cl)C=C(Cl)C=C1)C(O)=O
InChI: InChI=1S/C9H8Cl2O3/c1-5(9(12)13)14-8-3-2-6(10)4-7(8)11/h2-5H,1H3,(H,12,13)
Instrument: LTQ Orbitrap XL Thermo Scientific
Instrument type: LC-ESI-ITFT
Ms type: MS2
Ion mode: NEGATIVE
Ionization: ESI
Fragmentation mode: HCD
Collision energy: 15 % (nominal)
Resolution: 7500
Column name: XBridge C18 3.5um, 2.1x50mm, Waters
Retention time: 10.7 min
Base peak: 232.9778
Precursor m/z: 232.9778
Precursor type: [M-H]-
m/z	relative intensity	assigned
160.9566	999	C6H3Cl2O-
232.9776	106	C9H7Cl2O3-
