Mass spectrum: Oxolinic acid; LC-ESI-QFT; MS2; CE: 75; R=35000; [M+H]+
Name: Oxolinic acid
Name: 5-ethyl-8-oxo-[1,3]dioxolo[4,5-g]quinoline-7-carboxylic acid
Formula: C13H11NO5
Exact mass: 261.06372
SMILES: CCN1C=C(C(=O)C2=CC3=C(C=C21)OCO3)C(=O)O
InChI: InChI=1S/C13H11NO5/c1-2-14-5-8(13(16)17)12(15)7-3-10-11(4-9(7)14)19-6-18-10/h3-5H,2,6H2,1H3,(H,16,17)
Instrument: Q Exactive Plus Orbitrap Thermo Scientific
Instrument type: LC-ESI-QFT
Ms type: MS2
Ion mode: POSITIVE
Ionization: ESI
Fragmentation mode: HCD
Collision energy: 75 (nominal)
Resolution: 35000
Column name: XBridge C18 3.5um, 2.1x50mm, Waters
Retention time: 0.9 min
Base peak: 262.0705
Precursor m/z: 262.071
Precursor type: [M+H]+
m/z	relative intensity	assigned
51.0228	1	C4H3+
52.018	3	C3H2N+
53.0022	6	C3HO+
53.0386	5	C4H5+
55.0178	4	C3H3O+
62.015	1	C5H2+
63.0227	1	C5H3+
65.0385	31	C5H5+
68.0132	1	C3H2NO+
68.9971	5	C3HO2+
75.0228	3	C6H3+
77.0383	8	C6H5+
79.0542	12	C6H7+
80.0495	3	C5H6N+
81.0334	1	C5H5O+
87.0227	1	C7H3+
89.0386	5	C7H5+
90.0339	1	C6H4N+
91.0416	1	C6H5N+
91.0542	21	C7H7+
92.0494	1	C6H6N+
95.0129	3	C5H3O2+
95.0492	8	C6H7O+
96.0445	3	C5H6NO+
102.0337	7	C7H4N+
103.0542	46	C8H7+
104.0494	44	C7H6N+
105.0336	7	C7H5O+
105.0447	5	C6H5N2+
105.07	4	C8H9+
106.0287	17	C6H4NO+
106.065	8	C7H8N+
107.0127	2	C6H3O2+
107.0365	1	C6H5NO+
109.0285	8	C6H5O2+
114.0339	8	C8H4N+
115.0542	32	C9H7+
116.0494	4	C8H6N+
117.0335	2	C8H5O+
117.0572	21	C8H7N+
118.0651	225	C8H8N+
119.0491	1	C8H7O+
120.0205	2	C7H4O2+
120.0444	7	C7H6NO+
121.0284	13	C7H5O2+
121.0522	3	C7H7NO+
128.0492	5	C9H6N+
129.0575	1	C9H7N+
130.0288	45	C8H4NO+
130.0652	476	C9H8N+
131.0365	4	C8H5NO+
131.0492	7	C9H7O+
131.073	12	C9H9N+
132.0444	27	C8H6NO+
132.0808	36	C9H10N+
133.0284	66	C8H5O2+
134.0235	7	C7H4NO2+
135.0315	1	C7H5NO2+
136.0393	16	C7H6NO2+
137.0235	10	C7H5O3+
139.0391	7	C7H7O3+
140.0496	3	C10H6N+
142.0288	9	C9H4NO+
142.0652	90	C10H8N+
143.0494	7	C10H7O+
143.0729	2	C10H9N+
144.0444	7	C9H6NO+
144.081	1	C10H10N+
145.0523	5	C9H7NO+
146.06	145	C9H8NO+
148.0393	400	C8H6NO2+
149.0233	4	C8H5O3+
149.0346	20	C7H5N2O2+
149.0473	3	C8H7NO2+
156.0444	2	C10H6NO+
157.0519	2	C10H7NO+
158.0237	227	C9H4NO2+
158.0601	557	C10H8NO+
159.0314	4	C9H5NO2+
159.0679	12	C10H9NO+
160.0393	999	C9H6NO2+
161.0232	6	C9H5O3+
161.0469	4	C9H7NO2+
161.0599	1	C10H9O2+
163.0264	20	C8H5NO3+
164.034	9	C8H6NO3+
167.0705	3	C9H11O3+
170.0601	56	C11H8NO+
171.0319	1	C10H5NO2+
172.0393	502	C10H6NO2+
173.0472	149	C10H7NO2+
174.0183	1	C9H4NO3+
174.055	14	C10H8NO2+
175.0266	1	C9H5NO3+
176.0342	109	C9H6NO3+
176.0706	70	C10H10NO2+
177.0421	15	C9H7NO3+
177.0658	11	C9H9N2O2+
185.0469	1	C11H7NO2+
186.0185	47	C10H4NO3+
186.055	116	C11H8NO2+
187.0264	91	C10H5NO3+
187.0628	79	C11H9NO2+
188.0342	349	C10H6NO3+
188.0706	116	C11H10NO2+
189.0422	5	C10H7NO3+
190.0501	4	C10H8NO3+
198.0553	6	C12H8NO2+
199.0265	1	C11H5NO3+
199.0629	6	C12H9NO2+
200.0706	145	C12H10NO2+
201.0421	92	C11H7NO3+
203.0219	1	C10H5NO4+
204.0294	11	C10H6NO4+
204.0659	5	C11H10NO3+
205.0368	3	C10H7NO4+
206.0446	1	C10H8NO4+
214.0136	127	C11H4NO4+
214.0498	19	C12H8NO3+
215.0214	326	C11H5NO4+
216.0293	339	C11H6NO4+
216.0656	231	C12H10NO3+
226.0503	1	C13H8NO3+
228.0293	6	C12H6NO4+
229.0371	130	C12H7NO4+
232.024	11	C11H6NO5+
232.0606	4	C12H10NO4+
233.032	191	C11H7NO5+
234.0398	908	C11H8NO5+
242.0446	11	C13H8NO4+
244.0605	521	C13H10NO4+
247.0477	12	C12H9NO5+
248.0553	5	C12H10NO5+
260.0561	1	C13H10NO5+
262.0711	739	C13H12NO5+
