Mass spectrum: Ethoxyquin; LC-ESI-QFT; MS2; CE: 90; R=35000; [M+H]+
Name: Ethoxyquin
Name: 6-ethoxy-2,2,4-trimethyl-1H-quinoline
Formula: C14H19NO
Exact mass: 217.14666
SMILES: CCOC1=CC2=C(C=C1)NC(C=C2C)(C)C
InChI: InChI=1S/C14H19NO/c1-5-16-11-6-7-13-12(8-11)10(2)9-14(3,4)15-13/h6-9,15H,5H2,1-4H3
Instrument: Q Exactive Plus Orbitrap Thermo Scientific
Instrument type: LC-ESI-QFT
Ms type: MS2
Ion mode: POSITIVE
Ionization: ESI
Fragmentation mode: HCD
Collision energy: 90 (nominal)
Resolution: 35000
Column name: XBridge C18 3.5um, 2.1x50mm, Waters
Retention time: 7.0 min
Base peak: 218.1537
Precursor m/z: 218.1539
Precursor type: [M+H]+
m/z	relative intensity	assigned
50.015	1	C4H2+
51.0228	1	C4H3+
53.0022	2	C3HO+
53.0386	19	C4H5+
53.9976	1	C2NO+
54.0338	2	C3H4N+
55.0179	6	C3H3O+
55.0543	28	C4H7+
56.0495	3	C3H6N+
57.0699	24	C4H9+
59.0491	4	C3H7O+
65.0386	65	C5H5+
66.0464	2	C5H6+
67.0542	16	C5H7+
68.0131	2	C3H2NO+
68.0493	1	C4H6N+
69.0336	1	C4H5O+
69.0699	2	C5H9+
70.0288	1	C3H4NO+
77.0385	14	C6H5+
78.0336	1	C5H4N+
78.0464	2	C6H6+
79.0542	139	C6H7+
80.0495	15	C5H6N+
81.0336	1	C5H5O+
81.0574	5	C5H7N+
81.07	19	C6H9+
82.0289	8	C4H4NO+
82.0651	7	C5H8N+
83.0365	1	C4H5NO+
83.0491	4	C5H7O+
83.0855	1	C6H11+
84.0444	1	C4H6NO+
89.0386	19	C7H5+
91.0543	71	C7H7+
92.0495	10	C6H6N+
92.0623	1	C7H8+
93.0336	4	C6H5O+
93.0574	19	C6H7N+
93.07	26	C7H9+
94.0415	4	C6H6O+
94.0652	42	C6H8N+
95.0492	50	C6H7O+
96.0445	8	C5H6NO+
102.0464	2	C8H6+
103.0543	82	C8H7+
104.0495	13	C7H6N+
105.0448	28	C6H5N2+
105.0574	41	C7H7N+
105.07	48	C8H9+
106.0652	215	C7H8N+
107.0492	155	C7H7O+
108.0444	28	C6H6NO+
108.0809	5	C7H10N+
109.0523	42	C6H7NO+
110.0602	15	C6H8NO+
111.0441	26	C6H7O2+
115.0543	51	C9H7+
116.0495	29	C8H6N+
116.062	7	C9H8+
117.0574	60	C8H7N+
117.0699	27	C9H9+
118.0652	175	C8H8N+
119.0731	51	C8H9N+
119.0855	9	C9H11+
120.0809	172	C8H10N+
121.0398	38	C6H5N2O+
121.0649	20	C8H9O+
121.1013	2	C9H13+
122.0601	168	C7H8NO+
128.0495	1	C9H6N+
128.0621	14	C10H8+
129.0699	57	C10H9+
130.0653	77	C9H8N+
130.0779	28	C10H10+
131.0493	20	C9H7O+
131.0731	110	C9H9N+
131.0857	6	C10H11+
132.0445	7	C8H6NO+
132.0809	112	C9H10N+
133.0523	417	C8H7NO+
134.0601	366	C8H8NO+
135.0679	14	C8H9NO+
136.0756	10	C8H10NO+
137.0835	2	C8H11NO+
141.0699	5	C11H9+
142.0652	5	C10H8N+
143.0495	5	C10H7O+
143.0731	51	C10H9N+
143.0856	6	C11H11+
144.0559	67	C8H6N3+
144.0809	50	C10H10N+
145.0524	7	C9H7NO+
145.065	12	C10H9O+
145.0888	32	C10H11N+
145.1013	17	C11H13+
146.0602	606	C9H8NO+
146.0966	251	C10H12N+
147.068	188	C9H9NO+
148.0758	245	C9H10NO+
149.0836	4	C9H11NO+
150.0915	5	C9H12NO+
153.07	5	C12H9+
155.0604	8	C10H7N2+
155.0856	4	C12H11+
156.081	24	C11H10N+
157.065	19	C11H9O+
157.0888	39	C11H11N+
158.0725	56	C11H10O+
158.0966	139	C11H12N+
159.068	111	C10H9NO+
160.0758	999	C10H10NO+
161.0836	59	C10H11NO+
161.1203	8	C11H15N+
162.0914	29	C10H12NO+
162.1277	8	C11H16N+
172.0757	1	C11H10NO+
172.1122	26	C12H14N+
173.0837	23	C11H11NO+
173.0962	5	C12H13O+
173.1199	2	C12H15N+
174.0915	947	C11H12NO+
175.0998	33	C11H13NO+
176.1072	4	C11H14NO+
188.1071	204	C12H14NO+
189.1148	10	C12H15NO+
190.1227	20	C12H16NO+
202.1228	172	C13H16NO+
