Mass spectrum: Fenhexamid; LC-ESI-QFT; MS2; CE: 15; R=35000; [M-H]-
Name: Fenhexamid
Name: N-(2,3-dichloro-4-hydroxy-phenyl)-1-methyl-cyclohexanecarboxamide
Formula: C14H17Cl2NO2
Exact mass: 301.06363
SMILES: O=C(Nc1ccc(O)c(Cl)c1Cl)C2(C)CCCCC2
InChI: InChI=1S/C14H17Cl2NO2/c1-14(7-3-2-4-8-14)13(19)17-9-5-6-10(18)12(16)11(9)15/h5-6,18H,2-4,7-8H2,1H3,(H,17,19)
Instrument: Q Exactive Orbitrap Thermo Scientific
Instrument type: LC-ESI-QFT
Ms type: MS2
Ion mode: NEGATIVE
Ionization: ESI
Fragmentation mode: HCD
Collision energy: 15 (nominal)
Resolution: 35000
Column name: XBridge C18 3.5um, 2.1x50mm, Waters
Retention time: 11.6 min
Base peak: 300.0566
Precursor m/z: 300.0564
Precursor type: [M-H]-
m/z	relative intensity	assigned
249.0558	1	C13H12ClNO2-
264.0798	112	C14H15ClNO2-
300.0564	999	C14H16Cl2NO2-
