Mass spectrum: Ethofumesate; LC-ESI-ITFT; MS2; CE: 45%; R=7500; [M+H]+
Name: Ethofumesate
Name: (2-ethoxy-3,3-dimethyl-2H-1-benzofuran-5-yl) methanesulfonate
Formula: C13H18O5S
Exact mass: 286.0869
SMILES: S(=O)(=O)(C)O-c(ccc1O2)cc1C(C2OCC)(C)C
InChI: InChI=1S/C13H18O5S/c1-5-16-12-13(2,3)10-8-9(18-19(4,14)15)6-7-11(10)17-12/h6-8,12H,5H2,1-4H3
Instrument: LTQ Orbitrap XL Thermo Scientific
Instrument type: LC-ESI-ITFT
Ms type: MS2
Ion mode: POSITIVE
Ionization: ESI
Fragmentation mode: HCD
Collision energy: 45 % (nominal)
Resolution: 7500
Column name: XBridge C18 3.5um, 2.1x50mm, Waters
Retention time: 10.0 min
Base peak: 309.0774
Precursor m/z: 287.0948
Precursor type: [M+H]+
m/z	relative intensity	assigned
71.049	7	C4H7O+
77.0384	5	C6H5+
81.0006	6	CH5O2S+
91.0545	12	C7H7+
93.0699	26	C7H9+
103.0541	10	C8H7+
105.0699	22	C8H9+
109.0644	4	C7H9O+
115.0541	8	C9H7+
117.0698	7	C9H9+
121.0649	999	C8H9O+
133.0648	116	C9H9O+
134.0726	13	C9H10O+
135.0808	14	C9H11O+
137.0597	152	C8H9O2+
145.0648	30	C10H9O+
147.0445	8	C9H7O2+
149.0962	44	C10H13O+
161.0598	627	C10H9O2+
162.0676	165	C10H10O2+
163.0755	64	C10H11O2+
173.071	74	C10H9N2O+
179.0703	116	C10H11O3+
180.0777	9	C10H12O3+
190.0981	4	C12H14O2+
213.0583	13	C10H13O3S+
241.053	38	C11H13O4S+
259.0628	9	C11H15O5S+
