Mass spectrum: Etodolac; LC-ESI-QFT; MS2; CE: 90; R=35000; [M-H]-
Name: Etodolac
Name: 2-(1,8-diethyl-4,9-dihydro-3H-pyrano[3,4-b]indol-1-yl)acetic acid
Formula: C17H21NO3
Exact mass: 287.15214
SMILES: CCC1=C2C(=CC=C1)C3=C(N2)C(OCC3)(CC)CC(=O)O
InChI: InChI=1S/C17H21NO3/c1-3-11-6-5-7-12-13-8-9-21-17(4-2,10-14(19)20)16(13)18-15(11)12/h5-7,18H,3-4,8-10H2,1-2H3,(H,19,20)
Instrument: Q Exactive Orbitrap Thermo Scientific
Instrument type: LC-ESI-QFT
Ms type: MS2
Ion mode: NEGATIVE
Ionization: ESI
Fragmentation mode: HCD
Collision energy: 90 (nominal)
Resolution: 35000
Column name: XBridge C18 3.5um, 2.1x50mm, Waters
Retention time: 12.5 min
Base peak: 286.1449
Precursor m/z: 286.1449
Precursor type: [M-H]-
m/z	relative intensity	assigned
143.0739	20	C10H9N-
144.0818	14	C10H10N-
158.0973	26	C11H12N-
166.066	16	
167.0741	227	C12H9N-
169.0897	134	C12H11N-
170.097	19	C12H12N-
174.0924	13	C11H12NO-
179.074	211	C13H9N-
180.0819	79	C13H10N-
181.0898	513	C13H11N-
182.0975	700	C13H12N-
183.1054	59	C13H13N-
184.1131	358	C13H14N-
185.0846	78	C12H11NO-
193.0896	191	C14H11N-
194.0975	562	C14H12N-
195.1057	98	C14H13N-
196.1131	999	C14H14N-
197.121	625	C14H15N-
198.1287	109	C14H16N-
207.1059	19	
208.1129	230	C15H14N-
210.1288	297	C15H16N-
211.0636	20	C13H9NO2-
212.1445	592	C15H18N-
213.0787	15	C13H11NO2-
227.0953	23	
229.1105	251	C14H15NO2-
