Mass spectrum: Amiodarone; LC-ESI-QFT; MS2; CE: 90; R=35000; [M+H]+
Name: Amiodarone
Name: (2-butyl-1-benzofuran-3-yl)-[4-(2-diethylaminoethyloxy)-3,5-bis(iodanyl)phenyl]methanone
Formula: C25H29I2NO3
Exact mass: 645.02369
SMILES: Ic1cc(cc(I)c1OCCN(CC)CC)C(=O)c2c3ccccc3oc2CCCC
InChI: InChI=1S/C25H29I2NO3/c1-4-7-11-22-23(18-10-8-9-12-21(18)31-22)24(29)17-15-19(26)25(20(27)16-17)30-14-13-28(5-2)6-3/h8-10,12,15-16H,4-7,11,13-14H2,1-3H3
Instrument: Q Exactive Orbitrap Thermo Scientific
Instrument type: LC-ESI-QFT
Ms type: MS2
Ion mode: POSITIVE
Ionization: ESI
Fragmentation mode: HCD
Collision energy: 90 (nominal)
Resolution: 35000
Column name: XBridge C18 3.5um, 2.1x50mm, Waters
Retention time: 14.4 min
Base peak: 646.0309
Precursor m/z: 646.031
Precursor type: [M+H]+
m/z	relative intensity	assigned
89.0387	24	C7H5+
91.0542	41	C7H7+
93.0082	26	
95.049	44	C6H7O+
100.1119	86	C6H14N+
102.0463	46	
103.0544	200	C8H7+
115.0541	124	C9H7+
128.062	32	C10H8+
131.0492	999	C9H7O+
159.0442	548	C10H7O2+
163.0539	101	
164.0619	50	
165.07	430	C13H9+
168.0568	31	C12H8O+
176.0619	135	C14H8+
178.0774	166	C14H10+
179.0491	54	C13H7O+
189.0697	117	C15H9+
191.0856	171	C15H11+
192.0571	447	C14H8O+
193.0645	51	C14H9O+
201.0908	23	C13H13O2+
202.0776	55	C16H10+
203.0853	25	
205.0649	481	C15H9O+
206.0723	42	C15H10O+
217.9219	49	C6H3IO+
218.0726	186	C16H10O+
219.044	27	
219.0803	134	C16H11O+
221.0595	187	C15H9O2+
231.0805	47	C17H11O+
232.0515	22	C16H8O2+
233.0605	33	C16H9O2+
234.0679	53	C16H10O2+
235.0756	31	C16H11O2+
245.0603	26	C17H9O2+
247.0755	310	C17H11O2+
258.0673	33	C18H10O2+
275.0706	53	C18H11O3+
