Mass spectrum: Triadimefon; LC-ESI-QFT; MS2; CE: 90%; R=17500; [M+H]+
Name: Triadimefon
Name: 1-(4-chlorophenoxy)-3,3-dimethyl-1-(1,2,4-triazol-1-yl)butan-2-one
Formula: C14H16ClN3O2
Exact mass: 293.0931
SMILES: CC(C)(C)C(=O)C(N1C=NC=N1)OC2=CC=C(C=C2)Cl
InChI: InChI=1S/C14H16ClN3O2/c1-14(2,3)12(19)13(18-9-16-8-17-18)20-11-6-4-10(15)5-7-11/h4-9,13H,1-3H3
Instrument: Exploris 240 Orbitrap Thermo Scientific
Instrument type: LC-ESI-QFT
Ms type: MS2
Ion mode: POSITIVE
Ionization: ESI
Fragmentation mode: HCD
Collision energy: 90 % (nominal)
Resolution: 17500
Column name: XBridge C18 3.5um, 2.1x50mm, Waters
Retention time: 8.986 min
Base peak: 294.1001
Precursor m/z: 294.1004
Precursor type: [M+H]+
m/z	relative intensity	assigned
55.0542	339	C4H7+
57.0699	999	C4H9+
65.0386	38	C5H5+
69.0698	387	C5H9+
70.0777	229	C5H10+
75.023	55	C6H3+
77.0387	82	C6H5+
91.0543	81	C7H7+
93.0339	29	C3H8ClN+
94.0412	55	C6H6O+
98.9995	582	C5H4Cl+
110.9996	51	C6H4Cl+
113.0154	72	C6H6Cl+
126.9947	163	C6H4ClO+
139.0057	295	C6H4ClN2+
141.0103	104	C7H6ClO+
