Mass spectrum: Warfarin; LC-ESI-QFT; MS2; CE: 75; R=35000; [M+H]+
Name: Warfarin
Name: 2-hydroxy-3-(3-oxo-1-phenylbutyl)chromen-4-one
Name: Coumafen
Formula: C19H16O4
Exact mass: 308.10486
SMILES: O=C\1c3c(OC(/O)=C/1C(c2ccccc2)CC(=O)C)cccc3
InChI: InChI=1S/C19H16O4/c1-12(20)11-15(13-7-3-2-4-8-13)17-18(21)14-9-5-6-10-16(14)23-19(17)22/h2-10,15,22H,11H2,1H3
Instrument: Q Exactive Orbitrap Thermo Scientific
Instrument type: LC-ESI-QFT
Ms type: MS2
Ion mode: POSITIVE
Ionization: ESI
Fragmentation mode: HCD
Collision energy: 75 (nominal)
Resolution: 35000
Column name: XBridge C18 3.5um, 2.1x50mm, Waters
Retention time: 10.6 min
Base peak: 309.112
Precursor m/z: 309.1121
Precursor type: [M+H]+
m/z	relative intensity	assigned
53.0022	2	C3HO+
53.0387	2	C4H5+
55.0179	2	C3H3O+
65.0385	70	C5H5+
68.997	45	C3HO2+
77.0384	32	C6H5+
79.0542	5	C6H7+
89.0385	9	C7H5+
91.0541	124	C7H7+
93.0334	52	C6H5O+
95.0491	383	C6H7O+
102.0461	8	C8H6+
103.0542	138	C8H7+
105.0335	21	C7H5O+
105.0447	38	C6H5N2+
105.0698	10	C8H9+
107.049	7	C7H7O+
111.044	48	C6H7O2+
115.0541	7	C9H7+
119.049	22	C8H7O+
121.0283	951	C7H5O2+
128.0619	34	C10H8+
129.0332	25	C9H5O+
129.0698	132	C10H9+
130.0413	17	C9H6O+
131.0491	166	C9H7O+
139.0389	39	C7H7O3+
141.0697	7	C11H9+
143.0854	3	C11H11+
145.0285	24	C9H5O2+
145.0647	4	C10H9O+
147.0803	55	C10H11O+
152.062	27	C12H8+
153.0698	42	C12H9+
154.0778	12	C12H10+
155.0854	532	C12H11+
157.0283	44	C10H5O2+
163.0388	999	C9H7O3+
165.0697	81	C13H9+
166.0776	12	C13H10+
167.0854	151	C13H11+
171.08	11	C12H11O+
175.0388	40	C10H7O3+
176.0614	2	C14H8+
177.0697	21	C14H9+
178.0775	108	C14H10+
179.0854	33	C14H11+
181.0645	15	C13H9O+
183.0804	310	C13H11O+
189.0546	17	C11H9O3+
191.0337	704	C10H7O4+
193.0762	2	C13H9N2+
194.0729	3	C14H10O+
195.0803	37	C14H11O+
205.0647	74	C15H9O+
206.0728	3	C15H10O+
207.08	9	C15H11O+
223.0753	225	C15H11O2+
233.0596	82	C16H9O2+
234.0673	8	C16H10O2+
249.0544	27	C16H9O3+
251.0701	261	C16H11O3+
