Mass spectrum: Fosthiazate; LC-ESI-QFT; MS2; CE: 75; R=35000; [M+H]+
Name: Fosthiazate
Name: 3-[(butan-2-ylthio)-ethoxyphosphoryl]-2-thiazolidinone
Formula: C9H18NO3PS2
Exact mass: 283.04657
SMILES: O=P(SC(CC)C)(OCC)N1C(=O)SCC1
InChI: InChI=1S/C9H18NO3PS2/c1-4-8(3)16-14(12,13-5-2)10-6-7-15-9(10)11/h8H,4-7H2,1-3H3
Instrument: Q Exactive Orbitrap Thermo Scientific
Instrument type: LC-ESI-QFT
Ms type: MS2
Ion mode: POSITIVE
Ionization: ESI
Fragmentation mode: HCD
Collision energy: 75 (nominal)
Resolution: 35000
Column name: XBridge C18 3.5um, 2.1x50mm, Waters
Retention time: 8.1 min
Base peak: 284.0534
Precursor m/z: 284.0538
Precursor type: [M+H]+
m/z	relative intensity	assigned
57.0698	2	C4H9+
58.9949	2	C2H3S+
61.0106	31	C2H5S+
74.0058	3	C2H4NS+
76.0214	26	C2H6NS+
87.9945	1	C2H3NOP+
94.9172	2	PS2+
98.0001	3	H5NO3P+
104.0163	999	C3H6NOS+
106.005	2	C6H2O2+
109.9999	1	C5H2O3+
114.9611	26	H4O3PS+
119.9934	12	C3H6NS2+
120.9327	2	C2H2PS2+
121.9822	10	C6H2OS+
124.0156	7	C6H4O3+
137.9593	60	C6H2S2+
138.9434	3	C2H4OPS2+
139.9563	15	C5O3S+
139.9927	9	C6H4O2S+
165.9719	6	C7H2O3S+
171.9646	10	C6H4O2S2+
181.949	2	C7H2O2S2+
183.9826	9	C7H4O4S+
199.9595	8	C7H4O3S2+
