Mass spectrum: Chlorothalonil-TP R471811; LC-ESI-QFT; MS2; CE: 30%; R=17500; [M-H]-
Name: Chlorothalonil-TP R471811
Name: 2,4-dicarbamoyl-3,5,6-trichlorobenzenesulfonic acid
Formula: C8H5Cl3N2O5S
Exact mass: 345.8985
SMILES: NC(=O)C1=C(Cl)C(C(N)=O)=C(C(Cl)=C1Cl)S(O)(=O)=O
InChI: InChI=1S/C8H5Cl3N2O5S/c9-3-1(7(12)14)4(10)5(11)6(19(16,17)18)2(3)8(13)15/h(H2,12,14)(H2,13,15)(H,16,17,18)
Instrument: Q Exactive Plus Orbitrap Thermo Scientific
Instrument type: LC-ESI-QFT
Ms type: MS2
Ion mode: NEGATIVE
Ionization: ESI
Fragmentation mode: HCD
Collision energy: 30 % (nominal)
Resolution: 17500
Column name: XBridge C18 3.5um, 2.1x50mm, Waters
Retention time: 1.041 min
Base peak: 346.8881
Precursor m/z: 344.8912
Precursor type: [M-H]-
m/z	relative intensity	assigned
96.9601	22	HO4S-
114.9265	13	ClO3S-
194.9177	40	C6H2Cl3O-
237.9235	153	C7H3Cl3NO2-
280.9292	5	C8H4Cl3N2O3-
301.8854	999	C7H3Cl3NO4S-
308.9144	12	C8H3Cl2N2O5S-
344.8912	919	C8H4Cl3N2O5S-
