Mass spectrum: Torsemide; LC-ESI-QFT; MS2; CE: 60; R=35000; [M+H]+
Name: Torsemide
Name: SMR000466313
Name: 1-[4-(3-methylanilino)pyridin-3-yl]sulfonyl-3-propan-2-ylurea
Formula: C16H20N4O3S
Exact mass: 348.12561
SMILES: O=S(=O)(c2c(Nc1cc(ccc1)C)ccnc2)NC(=O)NC(C)C
InChI: InChI=1S/C16H20N4O3S/c1-11(2)18-16(21)20-24(22,23)15-10-17-8-7-14(15)19-13-6-4-5-12(3)9-13/h4-11H,1-3H3,(H,17,19)(H2,18,20,21)
Instrument: Q Exactive Orbitrap Thermo Scientific
Instrument type: LC-ESI-QFT
Ms type: MS2
Ion mode: POSITIVE
Ionization: ESI
Fragmentation mode: HCD
Collision energy: 60 (nominal)
Resolution: 35000
Column name: XBridge C18 3.5um, 2.1x50mm, Waters
Retention time: 6.7 min
Base peak: 349.1332
Precursor m/z: 349.1329
Precursor type: [M+H]+
m/z	relative intensity	assigned
67.0417	9	C4H5N+
81.0448	3	C4H5N2+
83.0491	1	C5H7O+
92.0496	2	C6H6N+
93.0575	4	C6H7N+
94.0653	3	C6H8N+
98.006	9	C4H4NS+
116.0495	1	C8H6N+
120.0445	1	C7H6NO+
122.0601	47	C7H8NO+
125.0168	259	C5H5N2S+
126.0008	15	C5H4NOS+
126.0247	6	C5H6N2S+
127.0088	5	C5H5NOS+
127.0325	3	C5H7N2S+
128.0165	5	C5H6NOS+
128.0619	1	C10H8+
129.07	8	C10H9+
137.0169	31	C6H5N2S+
141.0572	1	C10H7N+
150.0373	1	C8H8NS+
153.0118	15	C6H5N2OS+
154.0654	1	C11H8N+
156.0809	12	C11H10N+
158.0842	1	C10H10N2+
167.0605	1	C11H7N2+
168.0683	348	C3H12N4O2S+
169.0762	9	C11H9N2+
171.0916	6	C11H11N2+
174.0375	3	C10H8NS+
174.0917	3	C11H12NO+
176.0404	4	C9H8N2S+
177.0484	3	C9H9N2S+
179.0401	1	C9H9NOS+
181.0762	23	C12H9N2+
182.0841	103	C12H10N2+
183.0918	999	C4H15N4O2S+
184.0633	4	C11H8N2O+
185.071	22	C11H9N2O+
186.0791	3	C11H10N2O+
191.0639	72	C10H11N2S+
192.0476	1	C10H10NOS+
197.0715	1	C12H9N2O+
198.0789	97	C12H10N2O+
199.0867	102	C12H11N2O+
200.0404	2	C11H8N2S+
201.0482	77	C11H9N2S+
202.0324	5	C11H8NOS+
202.0559	8	C11H10N2S+
203.0642	3	C11H11N2S+
204.0355	5	C10H8N2OS+
205.0432	3	C10H9N2OS+
214.0737	13	C12H10N2O2+
217.0435	1	C11H9N2OS+
219.0589	162	C11H11N2OS+
228.0591	4	C12H10N3S+
229.0433	28	C12H9N2OS+
230.0511	155	C12H10N2OS+
232.0309	3	C11H8N2O2S+
247.0538	132	C12H11N2O2S+
264.0804	568	C12H14N3O2S+
290.0596	52	C13H12N3O3S+
