Mass spectrum: Rotenone; LC-ESI-QFT; MS2; CE: 90%; R=17500; [M+H]+
Name: Rotenone
Name: 5`beta-Rotenone
Name: 16,17-dimethoxy-6-prop-1-en-2-yl-2,7,20-trioxapentacyclo[11.8.0.03,11.04,8.014,19]henicosa-3(11),4(8),9,14,16,18-hexaen-12-one
Formula: C23H22O6
Exact mass: 394.1416
SMILES: CC(=C)C1CC2=C(O1)C=CC3=C2OC4COC5=CC(=C(C=C5C4C3=O)OC)OC
InChI: InChI=1S/C23H22O6/c1-11(2)16-8-14-15(28-16)6-5-12-22(24)21-13-7-18(25-3)19(26-4)9-17(13)27-10-20(21)29-23(12)14/h5-7,9,16,20-21H,1,8,10H2,2-4H3
Instrument: Exploris 240 Orbitrap Thermo Scientific
Instrument type: LC-ESI-QFT
Ms type: MS2
Ion mode: POSITIVE
Ionization: ESI
Fragmentation mode: HCD
Collision energy: 90 % (nominal)
Resolution: 17500
Column name: XBridge C18 3.5um, 2.1x50mm, Waters
Retention time: 10.235 min
Base peak: 372.0284
Precursor m/z: 395.1489
Precursor type: [M+H]+
m/z	relative intensity	assigned
53.0385	110	C4H5+
55.0178	168	C3H3O+
65.0385	149	C5H5+
66.0463	216	C5H6+
68.9972	43	C3HO2+
77.0385	462	C6H5+
78.0465	74	C6H6+
79.0541	522	C6H7+
80.0621	39	C6H8+
81.0335	68	C5H5O+
81.0699	184	C6H9+
90.0465	113	C7H6+
91.0541	876	C7H7+
92.0256	125	C6H4O+
93.0335	122	C6H5O+
93.07	132	C7H9+
94.0413	202	C6H6O+
95.0491	208	C6H7O+
96.0569	131	C6H8O+
103.0543	416	C8H7+
105.0334	210	C7H5O+
105.0697	231	C8H9+
106.0413	113	C7H6O+
107.0491	463	C7H7O+
108.0569	248	C7H8O+
109.0283	107	C6H5O2+
109.0648	141	C7H9O+
115.0541	184	C9H7+
117.07	60	C9H9+
118.0411	228	C8H6O+
119.0489	215	C8H7O+
119.0854	55	C9H11+
120.0573	73	C8H8O+
121.0282	72	C7H5O2+
121.0648	539	C8H9O+
122.0362	68	C7H6O2+
124.0516	174	C7H8O2+
128.0618	326	C10H8+
129.0696	186	C10H9+
131.0495	177	C9H7O+
132.0574	65	C9H8O+
133.0287	243	C8H5O2+
133.0648	237	C9H9O+
134.0363	62	C8H6O2+
135.0441	316	C8H7O2+
136.052	99	C8H8O2+
139.0755	100	C8H11O2+
142.0777	140	C11H10+
144.057	109	C10H8O+
145.0651	52	C10H9O+
147.0439	678	C9H7O2+
147.0805	103	C10H11O+
148.0517	189	C9H8O2+
149.0594	200	C9H9O2+
150.0681	72	C9H10O2+
151.0753	694	C9H11O2+
152.0618	322	C12H8+
159.0438	343	C10H7O2+
160.0518	135	C10H8O2+
161.0234	143	C9H5O3+
161.0596	490	C10H9O2+
162.068	127	C10H10O2+
163.0388	70	C9H7O3+
165.07	103	C13H9+
169.0645	559	C12H9O+
170.0724	250	C12H10O+
171.0443	48	C11H7O2+
173.0597	73	C11H9O2+
175.0387	103	C10H7O3+
176.0471	154	C10H8O3+
177.0547	397	C10H9O3+
185.0599	51	C12H9O2+
191.0702	999	C11H11O3+
195.0802	440	C14H11O+
198.0674	397	C13H10O2+
