Mass spectrum: N4-Acetylsulfadimethoxine; LC-ESI-ITFT; MS2; CE: 90%; R=7500; [M+H]+
Name: N4-Acetylsulfadimethoxine
Name: N-[4-[(4,6-dimethoxy-2-pyrimidinyl)sulfamoyl]phenyl]acetamide
Formula: C14H16N4O5S
Exact mass: 352.0841
SMILES: C(C)(=O)Nc1ccc(cc1)S(=O)(=O)Nc1nc(cc(n1)OC)OC
InChI: InChI=1S/C14H16N4O5S/c1-9(19)15-10-4-6-11(7-5-10)24(20,21)18-14-16-12(22-2)8-13(17-14)23-3/h4-8H,1-3H3,(H,15,19)(H,16,17,18)
Instrument: LTQ Orbitrap XL Thermo Scientific
Instrument type: LC-ESI-ITFT
Ms type: MS2
Ion mode: POSITIVE
Ionization: ESI
Fragmentation mode: HCD
Collision energy: 90 % (nominal)
Resolution: 7500
Column name: XBridge C18 3.5um, 2.1x50mm, Waters
Retention time: 6.3 min
Base peak: 353.0926
Precursor m/z: 353.0914
Precursor type: [M+H]+
m/z	relative intensity	assigned
57.0446	19	C2H5N2+
58.0289	26	C2H4NO+
65.0386	999	C5H5+
67.0291	164	C3H3N2+
68.0131	51	C3H2NO+
69.0447	43	C3H5N2+
72.0443	33	C3H6NO+
77.0388	28	C6H5+
78.0339	24	C5H4N+
79.0543	49	C6H7+
80.0495	50	C5H6N+
81.0448	113	C4H5N2+
82.0286	35	C4H4NO+
84.032	39	C3H4N2O+
85.0396	23	C3H5N2O+
92.0495	258	C6H6N+
93.0339	35	C6H5O+
93.0575	40	C6H7N+
95.0236	19	C4H3N2O+
95.0479	34	C4H5N3+
96.0557	58	C4H6N3+
97.0638	26	C4H7N3+
98.0712	52	C4H8N3+
99.0553	56	C4H7N2O+
106.065	74	C7H8N+
108.0444	478	C6H6NO+
109.0397	76	C5H5N2O+
110.0349	293	C4H4N3O+
111.0552	54	C5H7N2O+
113.0345	47	C4H5N2O2+
124.0504	21	C5H6N3O+
125.0584	78	C5H7N3O+
126.0661	180	C5H8N3O+
127.0373	16	C4H5N3O2+
134.06	166	C8H8NO+
140.0454	56	C5H6N3O2+
141.0529	84	C5H7N3O2+
145.0631	33	C8H7N3+
154.0611	766	C6H8N3O2+
156.0767	87	C6H10N3O2+
157.0479	72	C5H7N3O3+
172.0508	54	C9H6N3O+
172.0744	24	C3H14N3O3S+
173.0586	129	C9H7N3O+
