Mass spectrum: Pydiflumetofen; LC-ESI-QFT; MS2; CE: 180%; R=17500; [M+H]+
Name: Pydiflumetofen
Name: 3-(Difluoromethyl)-N-methoxy-1-methyl-N-(1-methyl-2-(2,4,6-trichlorophenyl)ethyl)-1H-pyrazole-4-carboxamide
Name: 3-(difluoromethyl)-N-methoxy-1-methyl-N-[1-(2,4,6-trichlorophenyl)propan-2-yl]pyrazole-4-carboxamide
Formula: C16H16Cl3F2N3O2
Exact mass: 425.0276
SMILES: CC(CC1=C(C=C(C=C1Cl)Cl)Cl)N(C(=O)C2=CN(N=C2C(F)F)C)OC
InChI: InChI=1S/C16H16Cl3F2N3O2/c1-8(4-10-12(18)5-9(17)6-13(10)19)24(26-3)16(25)11-7-23(2)22-14(11)15(20)21/h5-8,15H,4H2,1-3H3
Instrument: Exploris 240 Orbitrap Thermo Scientific
Instrument type: LC-ESI-QFT
Ms type: MS2
Ion mode: POSITIVE
Ionization: ESI
Fragmentation mode: HCD
Collision energy: 180 % (nominal)
Resolution: 17500
Column name: XBridge C18 3.5um, 2.1x50mm, Waters
Retention time: 11.996 min
Base peak: 426.0351
Precursor m/z: 426.0349
Precursor type: [M+H]+
m/z	relative intensity	assigned
51.023	21	C4H3+
52.0182	40	C3H2N+
58.009	25	C2HFN+
67.0292	14	C3H3N2+
72.984	695	C3H2Cl+
82.945	221	CHCl2+
87.0231	151	C7H3+
88.0308	116	C7H4+
95.9762	22	C5HCl+
96.984	276	C5H2Cl+
106.945	196	C3HCl2+
115.0544	26	C9H7+
122.9996	999	C7H4Cl+
132.9609	49	C5H3Cl2+
