Mass spectrum: Phorate Sulfone; LC-ESI-QFT; MS2; CE: 60%; R=17500; [M+H]+
Name: Phorate Sulfone
Name: diethoxy-(ethylsulfonylmethylsulfanyl)-sulfanylidene-lambda5-phosphane
Formula: C7H17O4PS3
Exact mass: 292.0027
SMILES: CCOP(=S)(OCC)SCS(=O)(=O)CC
InChI: InChI=1S/C7H17O4PS3/c1-4-10-12(13,11-5-2)14-7-15(8,9)6-3/h4-7H2,1-3H3
Instrument: Exploris 240 Orbitrap Thermo Scientific
Instrument type: LC-ESI-QFT
Ms type: MS2
Ion mode: POSITIVE
Ionization: ESI
Fragmentation mode: HCD
Collision energy: 60 % (nominal)
Resolution: 17500
Column name: XBridge C18 3.5um, 2.1x50mm, Waters
Retention time: 6.950 min
Base peak: 194.1175
Precursor m/z: 293.0099
Precursor type: [M+H]+
m/z	relative intensity	assigned
77.0057	3	C2H5OS+
95.016	6	C2H7O2S+
96.9507	808	H2O2PS+
98.984	11	H4O4P+
110.9665	20	CH4O2PS+
114.9613	999	H4O3PS+
124.9823	45	C2H6O2PS+
126.9439	6	CH4OPS2+
128.9767	8	CH6O3PS+
142.9384	174	CH4O2PS2+
142.9927	44	C2H8O3PS+
