Mass spectrum: Nadolol; LC-ESI-QFT; MS2; CE: 45; R=35000; [M+H]+
Name: Nadolol
Name: NADOLOL
Name: (2R,3S)-5-[3-(tert-butylamino)-2-hydroxy-propoxy]tetralin-2,3-diol
Formula: C17H27NO4
Exact mass: 309.19401
SMILES: OC(CNC(C)(C)C)COc1cccc2c1C[C@H](O)[C@H](O)C2
InChI: InChI=1S/C17H27NO4/c1-17(2,3)18-9-12(19)10-22-16-6-4-5-11-7-14(20)15(21)8-13(11)16/h4-6,12,14-15,18-21H,7-10H2,1-3H3/t12?,14-,15+/m1/s1
Instrument: Q Exactive Orbitrap Thermo Scientific
Instrument type: LC-ESI-QFT
Ms type: MS2
Ion mode: POSITIVE
Ionization: ESI
Fragmentation mode: HCD
Collision energy: 45 (nominal)
Resolution: 35000
Column name: XBridge C18 3.5um, 2.1x50mm, Waters
Retention time: 4.2 min
Base peak: 310.2016
Precursor m/z: 310.2013
Precursor type: [M+H]+
m/z	relative intensity	assigned
56.0496	186	C3H6N+
57.07	76	C4H9+
58.0652	22	C3H8N+
72.0444	27	C3H6NO+
74.0601	661	C3H8NO+
91.0543	6	C7H7+
115.0539	7	C9H7+
117.0698	10	C9H9+
128.0619	3	C10H8+
129.0699	9	C10H9+
131.0492	8	C9H7O+
131.0857	7	C10H11+
133.0649	27	C9H9O+
141.0699	7	C11H9+
143.0497	2	C10H7O+
143.0857	12	C11H11+
144.0569	2	C10H8O+
145.0649	200	C10H9O+
147.0806	76	C10H11O+
153.0701	9	C12H9+
155.0856	51	C12H11+
157.0649	74	C11H9O+
159.0806	129	C11H11O+
160.0519	3	C10H8O2+
161.0599	13	C10H9O2+
161.0963	11	C11H13O+
163.0754	16	C10H11O2+
165.0701	9	C13H9+
168.0575	2	C12H8O+
171.0805	290	C12H11O+
172.088	3	C12H12O+
173.0599	9	C11H9O2+
173.0962	79	C12H13O+
174.0915	20	C11H12NO+
175.0755	65	C11H11O2+
183.0806	248	C13H11O+
189.0913	28	C12H13O2+
200.1068	13	C13H14NO+
201.0911	999	C13H13O2+
206.1179	7	C12H16NO2+
218.1177	59	C13H16NO2+
219.1018	29	C13H15O3+
236.1283	484	C13H18NO3+
254.1389	432	C13H20NO4+
310.2016	21	C17H28NO4+
