Mass spectrum: Furathiocarb; LC-ESI-QFT; MS2; CE: 75%; R=17500; [M+H]+
Name: Furathiocarb
Name: (2,2-dimethyl-3H-1-benzofuran-7-yl) N-[butoxycarbonyl(methyl)amino]sulfanyl-N-methylcarbamate
Formula: C18H26N2O5S
Exact mass: 382.1562
SMILES: CCCCOC(=O)N(C)SN(C)C(=O)OC1=CC=CC2=C1OC(C2)(C)C
InChI: InChI=1S/C18H26N2O5S/c1-6-7-11-23-16(21)19(4)26-20(5)17(22)24-14-10-8-9-13-12-18(2,3)25-15(13)14/h8-10H,6-7,11-12H2,1-5H3
Instrument: Exploris 240 Orbitrap Thermo Scientific
Instrument type: LC-ESI-QFT
Ms type: MS2
Ion mode: POSITIVE
Ionization: ESI
Fragmentation mode: HCD
Collision energy: 75 % (nominal)
Resolution: 17500
Column name: XBridge C18 3.5um, 2.1x50mm, Waters
Retention time: 13.069 min
Base peak: 383.1633
Precursor m/z: 383.1635
Precursor type: [M+H]+
m/z	relative intensity	assigned
55.0179	69	C3H3O+
55.0542	51	C4H7+
57.0699	104	C4H9+
58.0287	48	C2H4NO+
58.9952	76	C2H3S+
62.0059	148	CH4NS+
67.0542	20	C5H7+
76.0396	52	C2H6NO2+
79.0542	89	C6H7+
81.0697	34	C6H9+
84.9741	192	C3HOS+
90.0372	62	C3H8NS+
91.0542	135	C7H7+
93.07	34	C7H9+
97.0106	371	C5H5S+
103.054	91	C8H7+
105.0698	263	C8H9+
107.0489	62	C7H7O+
107.0859	34	C8H11+
109.0285	217	C6H5O2+
109.0652	43	C7H9O+
111.0264	34	C6H7S+
115.0542	137	C9H7+
116.062	170	C9H8+
117.0702	40	C9H9+
118.0778	30	C9H10+
122.0362	134	C7H6O2+
123.0439	217	C7H7O2+
125.0055	999	C6H5OS+
131.0489	237	C9H7O+
133.0647	132	C9H9O+
134.0189	75	C8H6S+
134.0724	55	C9H10O+
135.0808	35	C9H11O+
139.0215	46	C7H7OS+
139.0578	54	C8H11S+
143.0495	48	C10H7O+
144.0568	236	C10H8O+
145.0653	41	C10H9O+
146.0723	74	C10H10O+
147.0438	131	C9H7O2+
149.0426	124	C9H9S+
149.0599	573	C9H9O2+
153.0372	75	C8H9OS+
161.0592	86	C10H9O2+
162.0675	651	C10H10O2+
164.0831	250	C10H12O2+
167.0523	458	C9H11OS+
177.0361	145	C10H9OS+
195.0476	151	C10H11O2S+
