Mass spectrum: Atomoxetine; LC-ESI-ITFT; MS2; CE: 90%; R=7500; [M+H]+
Name: Atomoxetine
Name: (3R)-N-methyl-3-(2-methylphenoxy)-3-phenyl-1-propanamine
Formula: C17H21NO
Exact mass: 255.1623
SMILES: c1c(c(ccc1)O[C@@H](c1ccccc1)CCNC)C
InChI: InChI=1S/C17H21NO/c1-14-8-6-7-11-16(14)19-17(12-13-18-2)15-9-4-3-5-10-15/h3-11,17-18H,12-13H2,1-2H3/t17-/m1/s1
Instrument: LTQ Orbitrap XL Thermo Scientific
Instrument type: LC-ESI-ITFT
Ms type: MS2
Ion mode: POSITIVE
Ionization: ESI
Fragmentation mode: HCD
Collision energy: 90 % (nominal)
Resolution: 7500
Column name: XBridge C18 3.5um, 2.1x50mm, Waters
Retention time: 8.0 min
Base peak: 256.1706
Precursor m/z: 256.1696
Precursor type: [M+H]+
m/z	relative intensity	assigned
91.0542	994	C7H7+
115.0542	236	C9H7+
117.0699	999	C9H9+
182.0727	202	C13H10O+
