Mass spectrum: Anabaenopeptin B; LC-ESI-QFT; MS2; CE: 60%; R=17500; [M-H]-
Name: Anabaenopeptin B
Name: (2S)-2-[[(3S,6S,9S,12S,15R)-3-benzyl-9-[2-(4-hydroxyphenyl)ethyl]-6,7-dimethyl-2,5,8,11,14-pentaoxo-12-propan-2-yl-1,4,7,10,13-pentazacyclononadec-15-yl]carbamoylamino]-5-(diaminomethylideneamino)pentanoic acid
Class: NA
Formula: C41H60N10O9
Exact mass: 836.4545
SMILES: CC(C)[C@@H]1NC(=O)[C@@H](CCCCNC(=O)[C@H](Cc2ccccc2)NC(=O)[C@H](C)N(C)C(=O)[C@H](CCc3ccc(O)cc3)NC1=O)NC(=O)N[C@@H](CCCNC(N)=N)C(O)=O
InChI: InChI=1S/C41H60N10O9/c1-24(2)33-37(56)46-30(20-17-26-15-18-28(52)19-16-26)38(57)51(4)25(3)34(53)47-32(23-27-11-6-5-7-12-27)35(54)44-21-9-8-13-29(36(55)50-33)48-41(60)49-31(39(58)59)14-10-22-45-40(42)43/h5-7,11-12,15-16,18-19,24-25,29-33,52H,8-10,13-14,17,20-23H2,1-4H3,(H,44,54)(H,46,56)(H,47,53)(H,50,55)(H,58,59)(H4,42,43,45)(H2,48,49,60)/t25-,29+,30-,31-,32-,33-/m0/s1
Instrument: Q Exactive Plus Orbitrap Thermo Scientific
Instrument type: LC-ESI-QFT
Ms type: MS2
Ion mode: NEGATIVE
Ionization: ESI
Fragmentation mode: HCD
Collision energy: 60 % (nominal)
Resolution: 17500
Column name: XBridge C18 3.5um, 2.1x50mm, Waters
Retention time: 5.792 min
Base peak: 190.9276
Precursor m/z: 835.4472
Precursor type: [M-H]-
m/z	relative intensity	assigned
93.0346	12	C6H5O-
99.0201	15	C3H3N2O2-
101.072	52	C4H9N2O-
107.0502	26	C7H7O-
113.0355	8	C4H5N2O2-
114.0563	14	C5H8NO2-
119.05	57	C8H7O-
125.0719	16	C6H9N2O-
127.0514	17	C5H7N2O2-
131.0825	999	C5H11N2O2-
141.067	28	C6H9N2O2-
146.0609	27	C9H8NO-
153.0668	11	C7H9N2O2-
156.0778	27	C6H10N3O2-
160.0769	10	C10H10NO-
173.1041	12	C6H13N4O2-
227.118	12	C12H13N5-
229.1333	52	C12H15N5-
