Mass spectrum: Ceftazidime; LC-ESI-QFT; MS2; CE: 60; R=35000; [M+H]+
Name: Ceftazidime
Name: (6R,7R)-7-[[(2Z)-2-(2-amino-1,3-thiazol-4-yl)-2-(2-carboxypropan-2-yloxyimino)acetyl]amino]-8-oxo-3-(pyridin-1-ium-1-ylmethyl)-5-thia-1-azabicyclo[4.2.0]oct-2-ene-2-carboxylate
Formula: C22H22N6O7S2
Exact mass: 546.09914
SMILES: O=C2N1/C(=C(\CS[C@@H]1[C@@H]2NC(=O)C(=N\OC(C(=O)O)(C)C)/c3nc(sc3)N)C[n+]4ccccc4)C([O-])=O
InChI: InChI=1S/C22H22N6O7S2/c1-22(2,20(33)34)35-26-13(12-10-37-21(23)24-12)16(29)25-14-17(30)28-15(19(31)32)11(9-36-18(14)28)8-27-6-4-3-5-7-27/h3-7,10,14,18H,8-9H2,1-2H3,(H4-,23,24,25,29,31,32,33,34)/b26-13-/t14-,18-/m1/s1
Instrument: Q Exactive Orbitrap Thermo Scientific
Instrument type: LC-ESI-QFT
Ms type: MS2
Ion mode: POSITIVE
Ionization: ESI
Fragmentation mode: HCD
Collision energy: 60 (nominal)
Resolution: 35000
Column name: XBridge C18 3.5um, 2.1x50mm, Waters
Retention time: 3.4 min
Base peak: 274.0573
Precursor m/z: 547.1064
Precursor type: [M+H]+
m/z	relative intensity	assigned
53.0387	16	C4H5+
55.0292	6	C2H3N2+
56.0132	8	C2H2NO+
59.0492	422	C3H7O+
59.9903	61	CH2NS+
60.9981	6	CH3NS+
62.006	4	CH4NS+
65.0387	19	C5H5+
66.034	8	C4H4N+
67.0417	5	C4H5N+
68.0244	27	C2H2N3+
68.037	9	C3H4N2+
68.0495	119	C4H6N+
68.9793	6	C3HS+
69.0336	9	C4H5O+
69.0448	8	C3H5N2+
70.9951	8	C3H3S+
71.9903	57	C2H2NS+
72.998	36	C2H3NS+
74.0059	10	C2H4NS+
78.0338	34	C5H4N+
80.0495	586	C5H6N+
81.0336	9	C5H5O+
81.0448	10	C4H5N2+
81.0574	9	C5H7N+
82.0288	7	C4H4NO+
82.9823	5	C3HNS+
82.9951	4	C4H3S+
83.9903	21	C3H2NS+
84.0029	20	C4H4S+
84.0445	7	C4H6NO+
85.0107	456	C4H5S+
85.9696	7	C2NOS+
86.0058	8	C3H4NS+
87.0012	7	C2H3N2S+
87.0441	52	C4H7O2+
90.0009	26	C2H4NOS+
90.0338	5	C6H4N+
93.0447	33	C5H5N2+
94.0399	4	C4H4N3+
94.0527	7	C5H6N2+
95.0604	79	C5H7N2+
95.9902	7	C4H2NS+
96.0445	78	C5H6NO+
97.0107	500	C5H5S+
97.9933	16	C3H2N2S+
98.006	29	C4H4NS+
98.0186	8	C5H6S+
98.9774	9	C3HNOS+
99.0012	78	C3H3N2S+
99.0264	9	C5H7S+
99.9853	19	C3H2NOS+
100.0091	12	C3H4N2S+
100.0213	4	C4H6NS+
100.9931	34	C3H3NOS+
105.0448	75	C6H5N2+
106.0288	79	C6H4NO+
106.0526	102	C6H6N2+
107.0366	30	C6H5NO+
107.0604	190	C6H7N2+
108.0683	270	C6H8N2+
109.0761	16	C6H9N2+
110.006	34	C5H4NS+
110.035	24	C4H4N3O+
111.0011	5	C4H3N2S+
111.0139	37	C5H5NS+
112.0216	999	C5H6NS+
113.0166	6	C4H5N2S+
113.0293	32	C5H7NS+
114.0121	50	C3H4N3S+
114.0371	35	C5H8NS+
114.9961	22	C3H3N2OS+
116.0278	31	C3H6N3S+
117.0119	9	C3H5N2OS+
119.0603	8	C7H7N2+
121.0397	28	C6H5N2O+
122.006	98	C6H4NS+
123.0139	6	C6H5NS+
123.0554	18	C6H7N2O+
124.0092	10	C5H4N2S+
124.0216	159	C6H6NS+
125.0043	754	C4H3N3S+
126.0121	987	C4H4N3S+
127.0201	36	C4H5N3S+
127.0325	4	C5H7N2S+
128.0278	8	C4H6N3S+
130.0321	8	C5H8NOS+
132.0226	31	C3H6N3OS+
133.0395	5	C7H5N2O+
134.0474	25	C7H6N2O+
134.0714	6	C7H8N3+
136.0217	7	C7H6NS+
137.017	33	C6H5N2S+
138.0009	8	C6H4NOS+
138.012	8	C5H4N3S+
138.0298	10	C5H4N3O2+
139.0201	73	C5H5N3S+
139.0324	422	C6H7N2S+
140.0164	666	C6H6NOS+
140.0402	38	C6H8N2S+
141.048	234	C6H9N2S+
142.0071	984	C4H4N3OS+
142.9731	5	C4H3N2S2+
144.0228	235	C4H6N3OS+
145.0068	10	C4H5N2O2S+
149.0165	7	C7H5N2S+
150.0246	7	C7H6N2S+
151.0325	22	C7H7N2S+
151.0502	30	C7H7N2O2+
152.0153	98	C5H4N4S+
153.023	156	C5H5N4S+
154.007	79	C5H4N3OS+
154.0309	21	C5H6N4S+
156.0115	9	C6H6NO2S+
157.0633	7	C9H7N3+
158.0271	21	C6H8NO2S+
161.0168	4	C8H5N2S+
163.0323	43	C8H7N2S+
164.0273	6	C7H6N3S+
165.0117	16	C7H5N2OS+
165.0226	5	C6H5N4S+
166.0193	5	C7H6N2OS+
166.0306	10	C6H6N4S+
167.0274	301	C7H7N2OS+
169.0177	9	C5H5N4OS+
170.0017	8	C5H4N3O2S+
172.0743	6	C9H8N4+
173.0821	6	C9H9N4+
174.0242	9	C9H6N2S+
175.0327	22	C9H7N2S+
176.0279	55	C8H6N3S+
178.0436	31	C8H8N3S+
179.0023	6	C6H3N4OS+
180.0099	5	C6H4N4OS+
181.0064	5	C7H5N2O2S+
181.0179	82	C6H5N4OS+
182.0019	357	C6H4N3O2S+
182.0257	77	C6H6N4OS+
185.0821	7	C10H9N4+
188.0274	8	C9H6N3S+
189.0358	52	C9H7N3S+
190.0198	40	C9H6N2OS+
191.0273	86	C9H7N2OS+
191.036	6	C5H9N3O3S+
192.0225	9	C8H6N3OS+
192.0339	4	C7H6N5S+
193.0181	10	C7H5N4OS+
195.0041	5	C8H7N2S2+
197.0126	178	C6H5N4O2S+
199.0615	6	C10H7N4O+
202.0433	21	C10H8N3S+
203.029	5	C4H5N5O5+
203.0383	46	CH11N6O2S2+
204.0463	23	C9H8N4S+
205.0305	21	C9H7N3OS+
205.0544	51	C9H9N4S+
206.0385	5	C9H8N3OS+
207.0051	41	C9H7N2S2+
211.0171	5	C8H7N2O3S+
215.0387	29	C10H7N4S+
216.0227	8	C10H6N3OS+
216.0464	21	C10H8N4S+
217.0542	95	C10H9N4S+
218.0492	7	C8H12NO4S+
219.9996	6	C9H6N3S2+
230.0495	14	C10H8N5S+
231.0332	6	C10H7N4OS+
231.0571	20	C10H9N5S+
231.9996	45	C10H6N3S2+
232.0415	21	C10H8N4OS+
232.0648	43	C10H10N5S+
233.0494	9	C10H9N4OS+
234.9993	24	C10H7N2OS2+
243.034	6	C11H7N4OS+
243.0582	6	C5H15N4O3S2+
244.0653	31	C11H10N5S+
245.0491	74	C11H9N4OS+
249.0265	70	C10H9N4S2+
260.0603	6	C11H10N5OS+
