Mass spectrum: Anabaenopeptin NZ857; LC-ESI-QFT; MS2; CE: 60%; R=17500; [M+H]+
Name: Anabaenopeptin NZ857
Name: 2-[[12-butan-2-yl-3,9-bis[2-(4-hydroxyphenyl)ethyl]-7-methyl-2,5,8,11,14-pentaoxo-1,4,7,10,13-pentazacyclononadec-15-yl]carbamoylamino]-3-phenylpropanoic acid
Formula: C45H59N7O10
Exact mass: 857.4323
SMILES: CCC(C)C1C(=O)NC(C(=O)N(CC(=O)NC(C(=O)NCCCCC(C(=O)N1)NC(=O)NC(CC2=CC=CC=C2)C(=O)O)CCC3=CC=C(C=C3)O)C)CCC4=CC=C(C=C4)O
InChI: InChI=1S/C45H59N7O10/c1-4-28(2)39-42(58)48-36(24-18-30-15-21-33(54)22-16-30)43(59)52(3)27-38(55)47-35(23-17-29-13-19-32(53)20-14-29)40(56)46-25-9-8-12-34(41(57)51-39)49-45(62)50-37(44(60)61)26-31-10-6-5-7-11-31/h5-7,10-11,13-16,19-22,28,34-37,39,53-54H,4,8-9,12,17-18,23-27H2,1-3H3,(H,46,56)(H,47,55)(H,48,58)(H,51,57)(H,60,61)(H2,49,50,62)
Instrument: Q Exactive Plus Orbitrap Thermo Scientific
Instrument type: LC-ESI-QFT
Ms type: MS2
Ion mode: POSITIVE
Ionization: ESI
Fragmentation mode: HCD
Collision energy: 60 % (nominal)
Resolution: 17500
Column name: XBridge C18 3.5um, 2.1x50mm, Waters
Retention time: 7.905 min
Base peak: 164.9845
Precursor m/z: 858.4396
Precursor type: [M+H]+
m/z	relative intensity	assigned
67.0543	8	C5H7+
69.0699	18	C5H9+
82.065	7	C5H8N+
84.0808	999	C5H10N+
86.06	227	C4H8NO+
86.0964	75	C5H12N+
91.0543	18	C7H7+
93.0699	5	C7H9+
95.0492	5	C6H7O+
96.0809	3	C6H10N+
98.0962	4	C6H12N+
99.0191	3	C3H3N2O2+
103.0543	19	C8H7+
105.0698	22	C8H9+
107.0491	155	C7H7O+
110.0601	7	C6H8NO+
110.0967	5	C7H12N+
111.0917	8	C6H11N2+
112.0757	7	C6H10NO+
114.055	31	C5H8NO2+
119.0491	8	C8H7O+
120.0807	406	C8H10N+
121.0648	9	C8H9O+
123.0437	8	C7H7O2+
126.1275	10	C8H16N+
127.0865	13	C6H11N2O+
129.0696	2	
129.1021	57	C6H13N2O+
130.0861	9	C6H12NO2+
131.0493	6	C9H7O+
132.0805	3	C9H10N+
133.0646	6	C9H9O+
136.0755	63	C8H10NO+
137.0706	2	C7H9N2O+
139.0864	7	C7H11N2O+
140.0703	11	C7H10NO2+
146.0603	10	C9H8NO+
146.0959	16	C10H12N+
147.0436	3	C9H7O2+
147.0676	4	C9H9NO+
147.1123	5	C6H15N2O2+
148.076	3	C9H10NO+
150.091	27	C9H12NO+
152.1429	5	C10H18N+
154.0973	2	C7H12N3O+
155.0813	53	C7H11N2O2+
162.0547	9	C9H8NO2+
173.0921	26	C7H13N2O3+
176.1072	7	C11H14NO+
180.1386	2	C11H18NO+
181.0972	7	C9H13N2O2+
188.1432	28	C13H18N+
197.1652	8	C11H21N2O+
204.1377	4	C13H18NO+
205.1337	8	C12H17N2O+
222.1602	7	C12H20N3O+
223.1449	14	C12H19N2O2+
229.1331	3	C14H17N2O+
231.1506	4	C2H23N4O8+
238.1232	12	C2H18N6O7+
240.1715	48	C14H24O3+
257.1299	5	C3H21N4O9+
265.1557	3	H23N7O9+
266.1876	12	C16H26O3+
273.1249	3	C3H21N4O10+
320.1637	5	C19H20N4O+
342.2219	4	C11H30N6O6+
