Mass spectrum: Etodolac; LC-ESI-QFT; MS2; CE: 30; R=35000; [M+H]+
Name: Etodolac
Name: 2-(1,8-diethyl-4,9-dihydro-3H-pyrano[3,4-b]indol-1-yl)acetic acid
Formula: C17H21NO3
Exact mass: 287.15214
SMILES: CCC1=C2C(=CC=C1)C3=C(N2)C(OCC3)(CC)CC(=O)O
InChI: InChI=1S/C17H21NO3/c1-3-11-6-5-7-12-13-8-9-21-17(4-2,10-14(19)20)16(13)18-15(11)12/h5-7,18H,3-4,8-10H2,1-2H3,(H,19,20)
Instrument: Q Exactive Orbitrap Thermo Scientific
Instrument type: LC-ESI-QFT
Ms type: MS2
Ion mode: POSITIVE
Ionization: ESI
Fragmentation mode: HCD
Collision energy: 30 (nominal)
Resolution: 35000
Column name: XBridge C18 3.5um, 2.1x50mm, Waters
Retention time: 12.5 min
Base peak: 288.1594
Precursor m/z: 288.1594
Precursor type: [M+H]+
m/z	relative intensity	assigned
143.0731	11	C10H9N+
144.0809	12	C10H10N+
156.0809	1	C11H10N+
157.0887	1	C11H11N+
168.0806	1	C12H10N+
172.1121	999	C12H14N+
181.0882	1	C13H11N+
182.0966	5	C13H12N+
195.104	2	C14H13N+
196.1122	5	C14H14N+
197.12	1	C14H15N+
198.1275	1	C14H16N+
200.1432	1	C14H18N+
209.1202	1	C15H15N+
210.1278	52	C15H16N+
211.1356	5	C15H17N+
223.0999	2	C15H13NO+
224.1434	36	C16H18N+
226.1229	1	C15H16NO+
226.1589	7	C16H20N+
228.1384	16	C15H18NO+
229.1418	7	C10H19N3O3+
241.1096	1	C15H15NO2+
242.1541	2	C16H20NO+
252.1384	27	C17H18NO+
270.1489	90	C17H20NO2+
288.1594	3	C17H22NO3+
