Mass spectrum: Nornicotine; LC-ESI-QFT; MS2; CE: 60; R=35000; [M+H]+
Name: Nornicotine
Name: 3-pyrrolidin-2-ylpyridine
Formula: C9H12N2
Exact mass: 148.10005
SMILES: c1cc(cnc1)C2CCCN2
InChI: InChI=1S/C9H12N2/c1-3-8(7-10-5-1)9-4-2-6-11-9/h1,3,5,7,9,11H,2,4,6H2
Instrument: Q Exactive Plus Orbitrap Thermo Scientific
Instrument type: LC-ESI-QFT
Ms type: MS2
Ion mode: POSITIVE
Ionization: ESI
Fragmentation mode: HCD
Collision energy: 60 (nominal)
Resolution: 35000
Column name: XBridge C18 3.5um, 2.1x50mm, Waters
Retention time: 1.0 min
Base peak: 149.1072
Precursor m/z: 149.1073
Precursor type: [M+H]+
m/z	relative intensity	assigned
51.0228	1	C4H3+
53.0385	3	C4H5+
56.0494	1	C3H6N+
65.0386	1	C5H5+
70.0651	191	C4H8N+
77.0382	1	C6H5+
80.0494	656	C5H6N+
91.0543	4	C7H7+
92.0494	14	C6H6N+
93.0573	5	C6H7N+
94.065	4	C6H8N+
103.0543	1	C8H7+
104.0492	1	C7H6N+
105.0699	15	C8H9+
106.0651	254	C7H8N+
115.0542	52	C9H7+
117.0573	561	C8H7N+
118.065	35	C8H8N+
119.0729	18	C8H9N+
120.0807	52	C8H10N+
121.0761	1	C7H9N2+
130.0651	999	C9H8N+
131.073	16	C9H9N+
132.0807	748	C9H10N+
149.1073	212	C9H13N2+
