Mass spectrum: 1,4-Diazabicyclo[2.2.2]octane; LC-ESI-QFT; MS2; CE: 120%; R=15000; [M+H]+
Name: 1,4-Diazabicyclo[2.2.2]octane
Formula: C6H12N2
Exact mass: 112.1000484
SMILES: C1CN2CCN1CC2
InChI: InChI=1S/C6H12N2/c1-2-8-5-3-7(1)4-6-8/h1-6H2
Instrument: Exploris 240 Thermo Scientific
Instrument type: LC-ESI-QFT
Ms type: MS2
Ion mode: POSITIVE
Ionization: ESI
Fragmentation mode: HCD
Collision energy: 120 % (nominal)
Resolution: 15000
Column name: XBridge C18 3.5um, 2.1x50mm, Waters
Retention time: 0.717 min
Base peak: 113.107
Precursor m/z: 113.1073
Precursor type: [M+H]+
m/z	relative intensity	assigned
41.0385	13	C3H5+
42.0338	56	C2H4N+
43.0541	13	C3H7+
44.0494	25	C2H6N+
56.0494	273	C3H6N+
58.065	74	C3H8N+
70.065	208	C4H8N+
84.0681	60	C4H8N2+
84.0807	229	C5H10N+
98.0838	16	C5H10N2+
113.1071	999	C6H13N2+
