Mass spectrum: Metalaxyl; LC-ESI-ITFT; MS2; CE: 90%; R=30000; [M+H]+
Name: Metalaxyl
Name: 2-(N-(2-methoxy-1-oxoethyl)-2,6-dimethylanilino)propanoic acid methyl ester
Formula: C15H21NO4
Exact mass: 279.1465
SMILES: CC1=C(C(=CC=C1)C)N(C(C)C(=O)OC)C(=O)COC
InChI: InChI=1S/C15H21NO4/c1-10-7-6-8-11(2)14(10)16(13(17)9-19-4)12(3)15(18)20-5/h6-8,12H,9H2,1-5H3
Instrument: LTQ Orbitrap XL Thermo Scientific
Instrument type: LC-ESI-ITFT
Ms type: MS2
Ion mode: POSITIVE
Ionization: ESI
Fragmentation mode: HCD
Collision energy: 90 % (nominal)
Resolution: 30000
Column name: XBridge C18 3.5um, 2.1x50mm, Waters
Retention time: 8.7 min
Base peak: 302.1365
Precursor m/z: 280.1543
Precursor type: [M+H]+
m/z	relative intensity	assigned
77.0386	16	C6H5+
79.0542	70	C6H7+
91.0542	122	C7H7+
103.0542	32	C8H7+
105.0698	497	C8H9+
106.065	17	C7H8N+
106.0776	43	C8H10+
107.0855	21	C8H11+
115.0542	18	C9H7+
117.0572	95	C8H7N+
117.0698	39	C9H9+
118.065	124	C8H8N+
119.0728	23	C8H9N+
119.0854	77	C9H11+
120.0807	70	C8H10N+
121.0885	72	C8H11N+
128.062	19	C10H8+
130.065	378	C9H8N+
131.0728	86	C9H9N+
132.0807	999	C9H10N+
133.0885	258	C9H11N+
133.101	17	C10H13+
134.0963	780	C9H12N+
135.0677	23	C8H9NO+
135.1039	15	C9H13N+
144.0807	272	C10H10N+
145.0885	629	C10H11N+
146.0963	123	C10H12N+
148.112	374	C10H14N+
149.0834	21	C9H11NO+
150.0912	61	C9H12NO+
158.0961	26	C11H12N+
160.112	699	C11H14N+
161.1197	11	C11H15N+
162.1276	133	C11H16N+
164.107	31	C10H14NO+
248.1276	17	C14H18NO3+
