Mass spectrum: Irgarol; LC-ESI-ITFT; MS2; CE: 90%; R=30000; [M+H]+
Name: Irgarol
Name: 2-N-tert-butyl-4-N-cyclopropyl-6-methylsulfanyl-1,3,5-triazine-2,4-diamine
Formula: C11H19N5S
Exact mass: 253.1356
SMILES: c1(nc(NC(C)(C)C)nc(n1)SC)NC1CC1
InChI: InChI=1S/C11H19N5S/c1-11(2,3)16-9-13-8(12-7-5-6-7)14-10(15-9)17-4/h7H,5-6H2,1-4H3,(H2,12,13,14,15,16)
Instrument: LTQ Orbitrap XL Thermo Scientific
Instrument type: LC-ESI-ITFT
Ms type: MS2
Ion mode: POSITIVE
Ionization: ESI
Fragmentation mode: HCD
Collision energy: 90 % (nominal)
Resolution: 30000
Column name: XBridge C18 3.5um, 2.1x50mm, Waters
Retention time: 9.2 min
Base peak: 254.1437
Precursor m/z: 254.1434
Precursor type: [M+H]+
m/z	relative intensity	assigned
54.0337	16	C3H4N+
55.029	50	C2H3N2+
56.0494	623	C3H6N+
57.0698	28	C4H9+
58.065	72	C3H8N+
68.0243	770	C2H2N3+
70.0399	24	C2H4N3+
74.0059	770	C2H4NS+
81.0447	216	C4H5N2+
83.0603	916	C4H7N2+
85.0106	10	C4H5S+
85.0508	46	C2H5N4+
87.0262	46	C4H7S+
91.0324	656	C2H7N2S+
98.0712	9	C4H8N3+
99.0012	21	C3H3N2S+
108.0556	999	C5H6N3+
114.0371	88	C5H8NS+
116.0276	320	C3H6N3S+
125.0821	137	C5H9N4+
127.0073	9	C3H3N4S+
150.0773	86	C6H8N5+
156.0588	183	C6H10N3S+
158.0495	18	C4H8N5S+
168.0336	35	C5H6N5S+
170.0493	47	C5H8N5S+
171.0698	9	C6H11N4S+
182.0491	11	C6H8N5S+
198.0805	121	C7H12N5S+
