Mass spectrum: Haloperidol; LC-ESI-QFT; MS2; CE: 75; R=35000; [M+H]+
Name: Haloperidol
Name: 4-[4-(4-chlorophenyl)-4-hydroxypiperidin-1-yl]-1-(4-fluorophenyl)butan-1-one
Formula: C21H23ClFNO2
Exact mass: 375.14013
SMILES: C1CN(CCC1(C2=CC=C(C=C2)Cl)O)CCCC(=O)C3=CC=C(C=C3)F
InChI: InChI=1S/C21H23ClFNO2/c22-18-7-5-17(6-8-18)21(26)11-14-24(15-12-21)13-1-2-20(25)16-3-9-19(23)10-4-16/h3-10,26H,1-2,11-15H2
Instrument: Q Exactive Plus Orbitrap Thermo Scientific
Instrument type: LC-ESI-QFT
Ms type: MS2
Ion mode: POSITIVE
Ionization: ESI
Fragmentation mode: HCD
Collision energy: 75 (nominal)
Resolution: 35000
Column name: XBridge C18 3.5um, 2.1x50mm, Waters
Retention time: 6.8 min
Base peak: 376.1475
Precursor m/z: 376.1474
Precursor type: [M+H]+
m/z	relative intensity	assigned
50.015	1	C4H2+
71.0291	5	C4H4F+
74.0149	1	C6H2+
75.0229	7	C6H3+
79.0178	2	C5H3O+
93.0335	1	C6H5O+
95.0291	7	C6H4F+
99.0241	1	C5H4FO+
109.0448	8	C7H6F+
113.0397	40	C6H6FO+
115.0542	1	C9H7+
123.0241	999	C7H4FO+
123.0349	104	C6H4FN2+
125.0153	1	C7H6Cl+
129.0702	1	C10H9+
135.0604	2	C9H8F+
147.0605	1	C10H8F+
165.0711	52	C10H10FO+
173.0511	1	C10H6FN2+
206.0978	1	C12H13FNO+
