Mass spectrum: Metribuzin-diketo; LC-ESI-ITFT; MS2; CE: 60%; R=7500; [M+H]+
Name: Metribuzin-diketo
Name: 4-amino-6-tert-butyl-2H-1,2,4-triazine-3,5-dione
Formula: C7H12N4O2
Exact mass: 184.0960
SMILES: O=C(NN=C1C(C)(C)C)N(N)C1=O
InChI: InChI=1S/C7H12N4O2/c1-7(2,3)4-5(12)11(8)6(13)10-9-4/h8H2,1-3H3,(H,10,13)
Instrument: LTQ Orbitrap XL Thermo Scientific
Instrument type: LC-ESI-ITFT
Ms type: MS2
Ion mode: POSITIVE
Ionization: ESI
Fragmentation mode: HCD
Collision energy: 60 % (nominal)
Resolution: 7500
Column name: XBridge C18 3.5um, 2.1x50mm, Waters
Retention time: 5.9 min
Base peak: 185.1036
Precursor m/z: 185.1033
Precursor type: [M+H]+
m/z	relative intensity	assigned
57.0698	154	C4H9+
58.0651	3	C3H8N+
59.0239	5	CH3N2O+
65.0386	6	C5H5+
67.0542	33	C5H7+
68.0493	13	C4H6N+
69.0083	35	C2HN2O+
69.0698	126	C5H9+
70.0287	13	C3H4NO+
70.0412	4	C4H6O+
70.0652	7	C4H8N+
74.0347	4	CH4N3O+
82.0652	15	C5H8N+
83.0239	9	C3H3N2O+
83.0602	4	C4H7N2+
83.073	12	C5H9N+
84.0807	43	C5H10N+
95.0606	3	C5H7N2+
96.0443	22	C5H6NO+
97.076	17	C5H9N2+
100.0505	14	C3H6N3O+
101.0345	47	C3H5N2O2+
101.0456	6	C2H5N4O+
110.0599	88	C6H8NO+
111.0678	143	C6H9NO+
112.014	38	C3H2N3O2+
114.0422	11	C4H6N2O2+
125.0708	28	C6H9N2O+
127.0863	7	C6H11N2O+
140.0817	5	C6H10N3O+
141.0658	89	C6H9N2O2+
141.0894	13	C6H11N3O+
142.0742	5	C6H10N2O2+
143.0811	8	C6H11N2O2+
156.0891	79	C7H12N2O2+
157.1082	765	C6H13N4O+
169.0718	62	C6H9N4O2+
185.1031	999	C7H13N4O2+
