Mass spectrum: Verapamil; LC-ESI-ITFT; MS2; CE: 60%; R=15000; [M+H]+
Name: Verapamil
Name: 2-(3,4-dimethoxyphenyl)-5-[2-(3,4-dimethoxyphenyl)ethyl-methyl-amino]-2-propan-2-yl-pentanenitrile
Formula: C27H38N2O4
Exact mass: 454.2832
SMILES: COC1=C(OC)C=CC(C(C(C)C)(C#N)CCCN(CCC2=CC(OC)=C(OC)C=C2)C)=C1
InChI: InChI=1S/C27H38N2O4/c1-20(2)27(19-28,22-10-12-24(31-5)26(18-22)33-7)14-8-15-29(3)16-13-21-9-11-23(30-4)25(17-21)32-6/h9-12,17-18,20H,8,13-16H2,1-7H3
Instrument: LTQ Orbitrap XL Thermo Scientific
Instrument type: LC-ESI-ITFT
Ms type: MS2
Ion mode: POSITIVE
Ionization: ESI
Fragmentation mode: HCD
Collision energy: 60 % (nominal)
Resolution: 15000
Column name: XBridge C18 3.5um, 2.1x50mm, Waters
Retention time: 7.3 min
Base peak: 455.292
Precursor m/z: 455.2904
Precursor type: [M+H]+
m/z	relative intensity	assigned
58.0652	36	C3H8N+
77.0384	5	C6H5+
79.0543	32	C6H7+
84.0808	11	C5H10N+
86.0967	4	C5H12N+
91.0543	13	C7H7+
96.0809	7	C6H10N+
103.0543	32	C8H7+
104.0621	4	C8H8+
105.07	140	C8H9+
107.0494	13	C7H7O+
109.0649	4	C7H9O+
118.0412	16	C8H6O+
119.0491	18	C8H7O+
120.0571	15	C8H8O+
121.0649	37	C8H9O+
122.0728	10	C8H10O+
122.0965	14	C8H12N+
124.0522	5	C7H8O2+
131.0493	7	C9H7O+
132.0572	6	C9H8O+
133.0649	109	C9H9O+
133.0761	6	C8H9N2+
134.0728	96	C9H10O+
135.0442	58	C8H7O2+
135.0805	56	C9H11O+
136.0521	18	C8H8O2+
137.06	14	C8H9O2+
138.0677	8	C8H10O2+
139.0755	12	C8H11O2+
146.073	5	C10H10O+
149.0598	16	C9H9O2+
150.0677	538	C9H10O2+
151.0755	69	C9H11O2+
152.0836	11	C9H12O2+
164.0837	6	C10H12O2+
165.0913	999	C10H13O2+
176.0709	4	C10H10NO2+
177.0912	49	C11H13O2+
179.1068	3	C11H15O2+
187.0993	10	C12H13NO+
191.1069	10	C12H15O2+
202.0865	9	C12H12NO2+
217.1101	10	C13H15NO2+
218.1177	30	C13H16NO2+
243.1377	5	C16H19O2+
245.1417	4	C15H19NO2+
260.1648	29	C16H22NO2+
261.1599	16	C15H21N2O2+
303.2063	9	C18H27N2O2+
