Mass spectrum: Ampicillin; LC-ESI-QFT; MS2; CE: 60; R=35000; [M+H]+
Name: Ampicillin
Name: 2-amino-1-methyl-5-propylideneimidazol-4-one
Name: 6-[(2-azaniumyl-2-phenylacetyl)amino]-3,3-dimethyl-7-oxo-4-thia-1-azabicyclo[3.2.0]heptane-2-carboxylate
Formula: C16H19N3O4S
Exact mass: 349.10963
SMILES: CC1(C(N2C(S1)C(C2=O)NC(=O)C(C3=CC=CC=C3)N)C(=O)O)C
InChI: InChI=1S/C16H19N3O4S/c1-16(2)11(15(22)23)19-13(21)10(14(19)24-16)18-12(20)9(17)8-6-4-3-5-7-8/h3-7,9-11,14H,17H2,1-2H3,(H,18,20)(H,22,23)
Instrument: Q Exactive Plus Orbitrap Thermo Scientific
Instrument type: LC-ESI-QFT
Ms type: MS2
Ion mode: POSITIVE
Ionization: ESI
Fragmentation mode: HCD
Collision energy: 60 (nominal)
Resolution: 35000
Column name: XBridge C18 3.5um, 2.1x50mm, Waters
Retention time: 4.7 min
Base peak: 350.1165
Precursor m/z: 350.1169
Precursor type: [M+H]+
m/z	relative intensity	assigned
53.0386	3	C4H5+
55.0543	2	C4H7+
58.995	6	C2H3S+
65.0386	1	C5H5+
67.0542	1	C5H7+
68.0131	14	C3H2NO+
68.0495	9	C4H6N+
69.0447	1	C3H5N2+
70.0652	93	C4H8N+
71.0491	5	C4H7O+
72.0808	1	C4H10N+
72.9982	2	C2H3NS+
74.0059	38	C2H4NS+
75.0263	2	C3H7S+
77.0385	3	C6H5+
79.0542	172	C6H7+
81.0336	1	C5H5O+
82.0651	4	C5H8N+
84.0808	3	C5H10N+
86.0059	40	C3H4NS+
87.0264	23	C4H7S+
90.0464	1	C7H6+
91.0543	85	C7H7+
94.0652	13	C6H8N+
95.0493	1	C6H7O+
96.0081	3	C4H2NO2+
96.0444	20	C5H6NO+
98.0602	3	C5H8NO+
99.0441	3	C5H7O2+
103.0543	8	C8H7+
105.0449	1	C6H5N2+
105.0699	1	C8H9+
106.0652	999	C7H8N+
109.0761	5	C6H9N2+
110.0601	2	C6H8NO+
113.0346	1	C4H5N2O2+
114.0009	173	C4H4NOS+
114.0373	212	C5H8NS+
115.0542	4	C9H7+
117.0574	17	C8H7N+
118.0414	12	C8H6O+
118.0652	209	C8H8N+
119.0492	16	C8H7O+
120.0807	2	C8H10N+
121.0107	51	C7H5S+
122.0601	14	C7H8NO+
123.0263	6	C7H7S+
126.0372	2	C6H8NS+
128.049	3	C9H6N+
128.0708	1	C6H10NO2+
130.0653	22	C9H8N+
131.0492	1	C9H7O+
131.0732	4	C9H9N+
132.081	4	C9H10N+
135.0264	10	C8H7S+
137.0421	21	C8H9S+
137.0711	33	C7H9N2O+
139.0866	1	C7H11N2O+
141.0483	6	C6H9N2S+
142.0323	8	C6H8NOS+
143.0638	1	C6H11N2S+
145.0762	2	C9H9N2+
146.0601	56	C9H8NO+
147.0264	35	C9H7S+
150.0374	2	C8H8NS+
156.0446	1	C10H6NO+
157.0761	2	C10H9N2+
158.0602	3	C10H8NO+
158.0966	1	C11H12N+
159.0682	3	C10H9NO+
160.0428	57	C6H10NO2S+
162.0373	17	C9H8NS+
164.0529	35	C9H10NS+
165.066	16	C8H9N2O2+
169.0432	2	C7H9N2OS+
173.0297	1	C10H7NS+
173.0711	1	C10H9N2O+
174.0375	7	C10H8NS+
174.0551	21	C10H8NO2+
175.0213	1	C10H7OS+
185.0709	1	C11H9N2O+
187.0537	1	C7H11N2O2S+
188.0615	1	C7H12N2O2S+
190.0322	5	C10H8NOS+
192.0477	5	C10H10NOS+
193.0611	1	C9H9N2O3+
214.0686	1	C13H12NS+
218.0273	2	C11H8NO2S+
