Mass spectrum: 2-Aminobenzothiazole; LC-ESI-QFT; MS2; CE: 150; R=35000; [M+H]+
Name: 2-Aminobenzothiazole
Name: benzo(d)thiazol-2-amine
Name: 1,3-benzothiazol-2-amine
Formula: C7H6N2S
Exact mass: 150.02517
SMILES: c1ccc2c(c1)nc(s2)N
InChI: InChI=1S/C7H6N2S/c8-7-9-5-3-1-2-4-6(5)10-7/h1-4H,(H2,8,9)
Instrument: Q Exactive Plus Orbitrap Thermo Scientific
Instrument type: LC-ESI-QFT
Ms type: MS2
Ion mode: POSITIVE
Ionization: ESI
Fragmentation mode: HCD
Collision energy: 150 (nominal)
Resolution: 35000
Column name: XBridge C18 3.5um, 2.1x50mm, Waters
Retention time: 3.1 min
Base peak: 151.0325
Precursor m/z: 151.0324
Precursor type: [M+H]+
m/z	relative intensity	assigned
50.0152	6	C4H2+
51.023	5	C4H3+
53.0023	12	C3HO+
53.0386	45	C4H5+
53.9975	2	C2NO+
54.0465	1	C4H6+
57.9873	1	C2H2S+
59.9903	14	CH2NS+
62.0151	2	C5H2+
63.023	62	C5H3+
64.0182	19	C4H2N+
64.0308	9	C5H4+
65.0386	999	C5H5+
66.0464	9	C5H6+
67.0417	2	C4H5N+
68.9794	227	C3HS+
69.9872	1	C3H2S+
70.9951	2	C3H3S+
77.0386	30	C6H5+
80.0495	321	C5H6N+
81.0336	3	C5H5O+
81.9872	5	C4H2S+
82.995	13	C4H3S+
90.0339	65	C6H4N+
91.0417	70	C6H5N+
92.0496	24	C6H6N+
92.9795	2	C5HS+
93.0574	9	C6H7N+
94.9951	2	C5H3S+
95.0492	39	C6H7O+
96.0029	11	C5H4S+
96.0445	2	C5H6NO+
97.0108	31	C5H5S+
105.0448	20	C6H5N2+
106.995	7	C6H3S+
108.0029	59	C6H4S+
109.0108	388	C6H5S+
118.0526	52	C7H6N2+
119.0605	2	C7H7N2+
122.0061	1	C6H4NS+
123.0139	4	C6H5NS+
124.0217	40	C6H6NS+
132.9981	2	C7H3NS+
134.006	4	C7H4NS+
150.0249	2	C7H6N2S+
151.0326	10	C7H7N2S+
