Mass spectrum: Dimethachlor OXA; LC-ESI-ITFT; MS2; CE: 90%; R=30000; [M+H]+
Name: Dimethachlor OXA
Name: 2-[(2,6-dimethylphenyl)(2-methoxyethyl)amino]-2-oxo-acetic acid
Formula: C13H17NO4
Exact mass: 251.1158
SMILES: Cc1cccc(C)c1N(CCOC)C(=O)C(O)=O
InChI: InChI=1S/C13H17NO4/c1-9-5-4-6-10(2)11(9)14(7-8-18-3)12(15)13(16)17/h4-6H,7-8H2,1-3H3,(H,16,17)
Instrument: LTQ Orbitrap XL Thermo Scientific
Instrument type: LC-ESI-ITFT
Ms type: MS2
Ion mode: POSITIVE
Ionization: ESI
Fragmentation mode: HCD
Collision energy: 90 % (nominal)
Resolution: 30000
Column name: XBridge C18 3.5um, 2.1x50mm, Waters
Retention time: 6.6 min
Base peak: 252.1226
Precursor m/z: 252.123
Precursor type: [M+H]+
m/z	relative intensity	assigned
77.0386	129	C6H5+
79.0543	362	C6H7+
91.0542	388	C7H7+
93.0699	25	C7H9+
95.0491	15	C6H7O+
103.0543	338	C8H7+
104.0495	12	C7H6N+
104.062	8	C8H8+
105.0448	75	C6H5N2+
105.0699	999	C8H9+
106.0653	9	C7H8N+
106.0777	104	C8H10+
107.0729	13	C7H9N+
107.0855	60	C8H11+
109.0647	4	C7H9O+
115.0543	15	C9H7+
116.0622	22	C9H8+
117.0573	655	C8H7N+
118.0651	502	C8H8N+
119.049	5	C8H7O+
119.0603	27	C7H7N2+
119.0856	26	C9H11+
120.0808	108	C8H10N+
121.0648	14	C8H9O+
121.0885	15	C8H11N+
123.0803	4	C8H11O+
129.0696	5	C10H9+
130.0651	310	C9H8N+
131.073	454	C9H9N+
132.0808	703	C9H10N+
133.0523	32	C8H7NO+
133.0759	9	C8H9N2+
133.0886	163	C9H11N+
134.0963	10	C9H12N+
143.0728	9	C10H9N+
146.0601	8	C9H8NO+
146.0966	48	C10H12N+
147.1035	5	C10H13N+
148.0755	9	C9H10NO+
148.1121	117	C10H14N+
149.0597	6	C9H9O2+
196.0717	6	C8H10N3O3+
