Mass spectrum: Metolachlor-TP CGA 368208; LC-ESI-QFT; MS2; CE: 60%; R=17500; [M-H]-
Name: Metolachlor-TP CGA 368208
Name: 2-(2-ethyl-6-methylanilino)-2-oxoethanesulfonic acid
Name: Acetochlor sulfonic acid
Formula: C11H15NO4S
Exact mass: 257.0722
SMILES: CCC1=C(NC(=O)CS(O)(=O)=O)C(C)=CC=C1
InChI: InChI=1S/C11H15NO4S/c1-3-9-6-4-5-8(2)11(9)12-10(13)7-17(14,15)16/h4-6H,3,7H2,1-2H3,(H,12,13)(H,14,15,16)
Instrument: Q Exactive Orbitrap Thermo Scientific
Instrument type: LC-ESI-QFT
Ms type: MS2
Ion mode: NEGATIVE
Ionization: ESI
Fragmentation mode: HCD
Collision energy: 60 % (nominal)
Resolution: 17500
Column name: XBridge C18 3.5um, 2.1x50mm, Waters
Retention time: 3.940 min
Base peak: 256.0649
Precursor m/z: 256.0649
Precursor type: [M-H]-
m/z	relative intensity	assigned
64.9704	11	HO2S-
76.9703	191	CHO2S-
79.9574	999	O3S-
94.9809	241	CH3O3S-
120.9601	211	C2HO4S-
134.0977	32	C9H12N-
192.1039	2	C11H14NO2-
256.0655	16	C11H14NO4S-
