Mass spectrum: Metobromuron; LC-ESI-QFT; MS2; CE: 90%; R=17500; [M+H]+
Name: Metobromuron
Name: 3-(4-bromophenyl)-1-methoxy-1-methylurea
Formula: C9H11BrN2O2
Exact mass: 258.0004
SMILES: CN(C(=O)NC1=CC=C(C=C1)Br)OC
InChI: InChI=1S/C9H11BrN2O2/c1-12(14-2)9(13)11-8-5-3-7(10)4-6-8/h3-6H,1-2H3,(H,11,13)
Instrument: Exploris 240 Orbitrap Thermo Scientific
Instrument type: LC-ESI-QFT
Ms type: MS2
Ion mode: POSITIVE
Ionization: ESI
Fragmentation mode: HCD
Collision energy: 90 % (nominal)
Resolution: 17500
Column name: XBridge C18 3.5um, 2.1x50mm, Waters
Retention time: 6.748 min
Base peak: 259.0077
Precursor m/z: 259.0077
Precursor type: [M+H]+
m/z	relative intensity	assigned
58.0286	12	C2H4NO+
60.0445	52	C2H6NO+
61.0523	7	C2H7NO+
62.06	24	C2H8NO+
63.0231	29	C5H3+
64.0306	35	C5H4+
65.0386	102	C5H5+
90.0338	25	C6H4N+
91.0417	999	C6H5N+
92.0495	199	C6H6N+
93.0577	10	C6H7N+
116.9334	14	C3H2Br+
119.0604	344	C7H7N2+
129.0446	12	C8H5N2+
131.0608	10	C8H7N2+
142.9492	314	C5H4Br+
147.0557	106	C8H7N2O+
148.0631	53	C8H8N2O+
169.96	304	C6H5BrN+
170.9679	380	C6H6BrN+
