Mass spectrum: Dimethenamid-P; LC-ESI-ITFT; MS2; CE: 45%; R=15000; [M+H]+
Name: Dimethenamid-P
Name: 2-chloranyl-N-(2,4-dimethylthiophen-3-yl)-N-[(2S)-1-methoxypropan-2-yl]ethanamide
Formula: C12H18ClNO2S
Exact mass: 275.0741
SMILES: CC1=CSC(=C1N(C(C)COC)C(=O)CCl)C
InChI: InChI=1S/C12H18ClNO2S/c1-8-7-17-10(3)12(8)14(11(15)5-13)9(2)6-16-4/h7,9H,5-6H2,1-4H3
Instrument: LTQ Orbitrap XL Thermo Scientific
Instrument type: LC-ESI-ITFT
Ms type: MS2
Ion mode: POSITIVE
Ionization: ESI
Fragmentation mode: HCD
Collision energy: 45 % (nominal)
Resolution: 15000
Column name: XBridge C18 3.5um, 2.1x50mm, Waters
Retention time: 10.0 min
Base peak: 276.0826
Precursor m/z: 276.082
Precursor type: [M+H]+
m/z	relative intensity	assigned
73.0648	20	C4H9O+
76.9788	1	C2H2ClO+
93.0698	1	C7H9+
111.0262	25	C6H7S+
113.042	1	C6H9S+
116.026	1	C5H7ClN+
125.0418	2	C7H9S+
126.0371	6	C6H8NS+
127.0213	1	C6H7OS+
128.0528	4	C6H10NS+
129.0367	2	C6H9OS+
134.0962	1	C9H12N+
135.1045	2	C9H13N+
138.0371	3	C7H8NS+
140.053	2	C7H10NS+
150.0373	4	C8H8NS+
151.0576	13	C9H11S+
152.0162	3	C7H6NOS+
152.0529	4	C8H10NS+
153.0241	4	C7H7NOS+
154.068	1	C8H12NS+
166.0322	4	C8H8NOS+
166.0685	7	C9H12NS+
167.0763	23	C9H13NS+
168.0842	391	C9H14NS+
186.0138	20	C8H9ClNS+
202.0089	4	C8H9ClNOS+
203.0164	16	C8H10ClNOS+
204.0243	12	C8H11ClNOS+
244.0558	999	C11H15ClNOS+
