Mass spectrum: Sitagliptin; LC-ESI-ITFT; MS2; CE: 90%; R=30000; [M+H]+
Name: Sitagliptin
Name: (3R)-3-amino-1-[3-(trifluoromethyl)-6,8-dihydro-5H-[1,2,4]triazolo[4,3-a]pyrazin-7-yl]-4-(2,4,5-trifluorophenyl)-1-butanone
Formula: C16H15F6N5O
Exact mass: 407.1181
SMILES: Fc1cc(c(F)cc1F)C[C@@H](N)CC(=O)N3Cc2nnc(n2CC3)C(F)(F)F
InChI: InChI=1S/C16H15F6N5O/c17-10-6-12(19)11(18)4-8(10)3-9(23)5-14(28)26-1-2-27-13(7-26)24-25-15(27)16(20,21)22/h4,6,9H,1-3,5,7,23H2/t9-/m1/s1
Instrument: LTQ Orbitrap XL Thermo Scientific
Instrument type: LC-ESI-ITFT
Ms type: MS2
Ion mode: POSITIVE
Ionization: ESI
Fragmentation mode: HCD
Collision energy: 90 % (nominal)
Resolution: 30000
Column name: XBridge C18 3.5um, 2.1x50mm, Waters
Retention time: 5.2 min
Base peak: 408.1261
Precursor m/z: 408.1254
Precursor type: [M+H]+
m/z	relative intensity	assigned
55.029	3	C2H3N2+
56.0494	44	C3H6N+
96.0193	11	C3H2N3O+
101.0197	9	C5H3F2+
107.0291	15	C7H4F+
127.0354	999	C7H5F2+
134.04	63	C8H5FN+
137.0322	1	C4H4F3N2+
138.0273	59	C3H3F3N3+
145.0259	92	C7H4F3+
150.0274	20	C4H3F3N3+
151.0354	87	C9H5F2+
152.0505	8	C8H7FNO+
153.0385	55	C8H5F2N+
154.0463	342	C8H6F2N+
157.0259	43	C8H4F3+
164.0426	2	C5H5F3N3+
165.0258	24	C8H3F2N2+
165.0382	8	C4H4F3N4+
168.0379	53	C4H5F3N3O+
169.026	8	C9H4F3+
171.0416	12	C9H6F3+
174.0525	135	C8H7F3N+
193.0695	21	C6H8F3N4+
