Mass spectrum: Doxycycline; LC-ESI-QFT; MS2; CE: 180; R=35000; [M+H]+
Name: Doxycycline
Name: 8-carbamoyl-10-(dimethylazaniumyl)-4,6a,7,11-tetrahydroxy-12-methyl-6,9-dioxo-10a,11,11a,12-tetrahydro-10H-tetracen-5-olate
Formula: C22H24N2O8
Exact mass: 444.15327
SMILES: CC1C2C(C3C(C(=O)C(=C(C3(C(=O)C2=C(C4=C1C=CC=C4O)O)O)O)C(=O)N)N(C)C)O
InChI: InChI=1S/C22H24N2O8/c1-7-8-5-4-6-9(25)11(8)16(26)12-10(7)17(27)14-15(24(2)3)18(28)13(21(23)31)20(30)22(14,32)19(12)29/h4-7,10,14-15,17,25-27,30,32H,1-3H3,(H2,23,31)
Instrument: Q Exactive Plus Orbitrap Thermo Scientific
Instrument type: LC-ESI-QFT
Ms type: MS2
Ion mode: POSITIVE
Ionization: ESI
Fragmentation mode: HCD
Collision energy: 180 (nominal)
Resolution: 35000
Column name: XBridge C18 3.5um, 2.1x50mm, Waters
Retention time: 6.4 min
Base peak: 445.1595
Precursor m/z: 445.1605
Precursor type: [M+H]+
m/z	relative intensity	assigned
50.0151	120	C4H2+
51.023	91	C4H3+
52.0308	2	C4H4+
53.0022	55	C3HO+
53.0386	91	C4H5+
53.9975	3	C2NO+
54.0339	30	C3H4N+
55.0179	56	C3H3O+
55.0417	35	C3H5N+
56.0495	21	C3H6N+
57.0573	2	C3H7N+
58.0651	53	C3H8N+
61.0072	9	C5H+
62.0151	52	C5H2+
63.0229	200	C5H3+
65.0386	285	C5H5+
66.01	3	C4H2O+
66.0339	1	C4H4N+
66.0464	10	C5H6+
67.0179	6	C4H3O+
67.0417	12	C4H5N+
67.0542	6	C5H7+
68.0256	3	C4H4O+
68.0495	15	C4H6N+
68.9971	115	C3HO2+
70.0651	8	C4H8N+
72.0444	5	C3H6NO+
74.015	52	C6H2+
75.0229	161	C6H3+
76.0307	61	C6H4+
77.0021	13	C5HO+
77.0385	118	C6H5+
78.0464	93	C6H6+
79.0178	9	C5H3O+
79.0542	10	C6H7+
80.0494	9	C5H6N+
81.0335	17	C5H5O+
82.0651	6	C5H8N+
83.0366	10	C4H5NO+
84.0444	2	C4H6NO+
86.015	17	C7H2+
87.0229	59	C7H3+
88.0308	42	C7H4+
89.0386	316	C7H5+
90.0464	18	C7H6+
91.0542	233	C7H7+
92.0257	1	C6H4O+
92.0495	2	C6H6N+
94.0413	6	C6H6O+
94.0653	2	C6H8N+
95.0492	250	C6H7O+
98.0151	20	C8H2+
99.023	20	C8H3+
101.0386	24	C8H5+
102.0464	204	C8H6+
103.0542	82	C8H7+
104.0619	1	C8H8+
105.0448	184	C6H5N2+
107.0493	6	C7H7O+
113.0386	135	C9H5+
114.0464	41	C9H6+
115.0543	958	C9H7+
116.062	23	C9H8+
117.0702	1	C9H9+
118.0413	19	C8H6O+
119.0492	15	C8H7O+
125.0386	24	C10H5+
126.0464	238	C10H6+
127.0542	100	C10H7+
128.0621	267	C10H8+
129.0447	45	C8H5N2+
129.0698	7	C10H9+
131.0492	39	C9H7O+
132.057	21	C9H8O+
137.0387	27	C11H5+
138.0464	24	C11H6+
139.0543	999	C11H7+
140.0621	33	C11H8+
141.0699	48	C11H9+
142.0413	2	C10H6O+
143.0492	2	C10H7O+
144.057	7	C10H8O+
145.0648	38	C10H9O+
149.0385	10	C12H5+
150.0465	252	C12H6+
151.0543	52	C12H7+
152.0621	429	C12H8+
153.0699	27	C12H9+
155.0493	9	C11H7O+
155.0604	94	C10H7N2+
156.0573	3	C11H8O+
157.0649	2	C11H9O+
161.0599	1	C10H9O2+
162.0464	20	C13H6+
163.0542	298	C13H7+
164.062	67	C13H8+
165.07	201	C13H9+
167.0491	6	C12H7O+
168.057	51	C12H8O+
169.0648	192	C12H9O+
174.0464	24	C14H6+
175.0544	5	C14H7+
176.0621	108	C14H8+
177.0696	11	C14H9+
178.0779	12	C14H10+
179.0604	73	C12H7N2+
181.0645	11	C13H9O+
183.0809	2	C13H11O+
185.0597	6	C12H9O2+
187.0543	47	C15H7+
188.0619	11	C15H8+
189.07	35	C15H9+
192.0569	6	C14H8O+
193.0648	14	C14H9O+
194.0365	7	C13H6O2+
196.0519	15	C13H8O2+
200.062	12	C16H8+
203.0601	5	C14H7N2+
203.0725	1	C15H9N+
220.0519	2	C15H8O2+
