Mass spectrum: Chloramphenicol; LC-ESI-QFT; MS2; CE: 90; R=35000; [M+H]+
Name: Chloramphenicol
Name: CLM
Name: 2,2-bis(chloranyl)-N-[(1R,2R)-1-(4-nitrophenyl)-1,3-bis(oxidanyl)propan-2-yl]ethanamide
Formula: C11H12Cl2N2O5
Exact mass: 322.01233
SMILES: c1cc(ccc1[C@H]([C@@H](CO)NC(=O)C(Cl)Cl)O)[N+](=O)[O-]
InChI: InChI=1S/C11H12Cl2N2O5/c12-10(13)11(18)14-8(5-16)9(17)6-1-3-7(4-2-6)15(19)20/h1-4,8-10,16-17H,5H2,(H,14,18)/t8-,9-/m1/s1
Instrument: Q Exactive Orbitrap Thermo Scientific
Instrument type: LC-ESI-QFT
Ms type: MS2
Ion mode: POSITIVE
Ionization: ESI
Fragmentation mode: HCD
Collision energy: 90 (nominal)
Resolution: 35000
Column name: XBridge C18 3.5um, 2.1x50mm, Waters
Retention time: 5.8 min
Base peak: 305.0091
Precursor m/z: 323.0196
Precursor type: [M+H]+
m/z	relative intensity	assigned
63.9948	22	CH3ClN+
65.0385	12	C5H5+
66.0464	1	C5H6+
67.0417	6	C4H5N+
77.0384	4	C6H5+
78.0464	30	C6H6+
79.0542	7	C6H7+
80.0495	13	C5H6N+
80.0622	1	C6H8+
82.945	999	CHCl2+
89.0386	10	C7H5+
90.0464	19	C7H6+
91.0542	209	C7H7+
92.0494	6	C6H6N+
92.062	79	C7H8+
93.0572	4	C6H7N+
94.0651	1	C6H8N+
95.0491	13	C6H7O+
102.0464	37	C8H6+
103.0542	132	C8H7+
104.0495	24	C7H6N+
104.062	17	C8H8+
105.0334	4	C7H5O+
105.0449	4	C6H5N2+
106.0651	25	C7H8N+
107.049	10	C7H7O+
107.0731	11	C7H9N+
108.0571	1	C7H8O+
109.0649	2	C7H9O+
109.9557	1	C2H2Cl2N+
115.0542	117	C9H7+
116.0496	5	C8H6N+
117.0573	118	C8H7N+
118.0651	418	C8H8N+
119.0729	584	C8H9N+
120.0446	1	C7H6NO+
120.057	7	C8H8O+
121.0521	4	C7H7NO+
125.0154	7	C7H6Cl+
127.9664	4	C2H4Cl2NO+
128.0495	17	C9H6N+
128.062	35	C10H8+
129.0448	3	C8H5N2+
129.0573	25	C9H7N+
130.0651	140	C9H8N+
131.0366	4	C8H5NO+
131.0492	75	C9H7O+
131.073	26	C9H9N+
132.057	35	C9H8O+
133.0522	1	C8H7NO+
134.06	37	C8H8NO+
135.068	5	C8H9NO+
136.0756	7	C8H10NO+
137.0153	24	C8H6Cl+
137.0599	2	C8H9O2+
138.0231	15	C8H7Cl+
138.055	2	C7H8NO2+
140.0496	4	C10H6N+
142.0652	17	C10H8N+
145.0523	28	C9H7NO+
145.0648	18	C10H9O+
146.0601	19	C9H8NO+
147.0555	1	C8H7N2O+
148.0631	19	C8H8N2O+
149.0153	40	C9H6Cl+
149.047	9	C8H7NO2+
150.0232	7	C9H7Cl+
151.0628	250	C8H9NO2+
154.018	1	C8H7ClO+
155.0605	8	C10H7N2+
157.0523	1	C10H7NO+
158.0598	1	C10H8NO+
161.0471	6	C9H7NO2+
162.0229	4	C10H7Cl+
163.0311	1	C10H8Cl+
164.0261	227	C9H7ClN+
165.0659	168	C8H9N2O2+
170.06	24	C11H8NO+
177.0216	2	C9H6ClN2+
177.0344	2	C10H8ClN+
177.0419	21	C9H7NO3+
193.029	4	C10H8ClNO+
227.9984	1	C10H8Cl2NO+
257.9957	1	C10H8Cl2N2O2+
