Mass spectrum: Tembotrione; LC-ESI-QFT; MS2; CE: 90; R=35000; [M-H]-
Name: Tembotrione
Name: 2-{2-Chloro-4-(methylsulfonyl)-3-[(2,2,2-trifluoroethoxy)methyl]benzoyl}-1,3-cyclohexanedione
Formula: C17H16ClF3O6S
Exact mass: 440.03082
SMILES: O=C(c1ccc(c(c1Cl)COCC(F)(F)F)S(=O)(=O)C)C2C(=O)CCCC2=O
InChI: InChI=1S/C17H16ClF3O6S/c1-28(25,26)13-6-5-9(15(18)10(13)7-27-8-17(19,20)21)16(24)14-11(22)3-2-4-12(14)23/h5-6,14H,2-4,7-8H2,1H3
Instrument: Q Exactive Orbitrap Thermo Scientific
Instrument type: LC-ESI-QFT
Ms type: MS2
Ion mode: NEGATIVE
Ionization: ESI
Fragmentation mode: HCD
Collision energy: 90 (nominal)
Resolution: 35000
Column name: XBridge C18 3.5um, 2.1x50mm, Waters
Retention time: 9.9 min
Base peak: 439.0241
Precursor m/z: 439.0235
Precursor type: [M-H]-
m/z	relative intensity	assigned
51.0239	104	C4H3-
63.9624	472	O2S-
65.0033	116	C4HO-
65.0397	49	C5H5-
67.0189	38	C4H3O-
68.9957	999	CF3-
78.9859	122	CH3O2S-
79.0002	28	C2HF2O-
83.014	44	C4H3O2-
89.0396	47	C7H5-
91.0189	54	C6H3O-
93.0346	820	C6H5O-
115.0553	129	C9H7-
117.0347	453	C8H5O-
119.0502	100	C8H7O-
130.0422	137	C9H6O-
135.0088	25	C7H3O3-
139.0554	444	C11H7-
141.071	139	C11H9-
142.0423	26	C10H6O-
143.0502	400	C10H7O-
145.0295	107	C9H5O2-
153.0709	45	C12H9-
154.0422	40	C11H6O-
155.0505	178	C11H7O-
156.0581	158	C11H8O-
161.0243	132	C7H7F2S-
167.0503	214	C12H7O-
169.0659	556	C12H9O-
171.0452	118	C11H7O2-
172.0532	67	C11H8O2-
180.0582	42	C13H8O-
181.0658	132	C13H9O-
182.0375	335	C12H6O2-
183.0452	917	C12H7O2-
184.0531	470	C12H8O2-
185.0607	49	C12H9O2-
187.0223	31	C11H7OS-
193.0657	30	C14H9O-
195.0452	375	C13H7O2-
195.0814	26	C14H11O-
196.0532	226	C13H8O2-
197.0608	943	C13H9O2-
208.0527	52	C14H8O2-
209.0608	232	C14H9O2-
210.0322	136	C13H6O3-
211.0399	166	C13H7O3-
211.0763	52	C14H11O2-
221.0609	129	C15H9O2-
223.0403	257	C14H7O3-
224.048	535	C14H8O3-
225.0559	801	C14H9O3-
226.064	247	C14H10O3-
227.0348	37	C11H9F2OS-
237.0557	649	C15H9O3-
238.0635	280	C15H10O3-
239.0351	38	C14H7O4-
239.0714	99	C15H11O3-
240.0792	30	C15H12O3-
