Mass spectrum: Amitriptyline; LC-ESI-ITFT; MS2; CE: 60%; R=15000; [M+H]+
Name: Amitriptyline
Name: 3-(10,11-Dihydro-5H-dibenzo[a,d][7]annulen-5-ylidene)-N,N-dimethyl-1-propanamine
Formula: C20H23N
Exact mass: 277.1830
SMILES: C1(\c2c(CCc3c1cccc3)cccc2)=C\CCN(C)C
InChI: InChI=1S/C20H23N/c1-21(2)15-7-12-20-18-10-5-3-8-16(18)13-14-17-9-4-6-11-19(17)20/h3-6,8-12H,7,13-15H2,1-2H3
Instrument: LTQ Orbitrap XL Thermo Scientific
Instrument type: LC-ESI-ITFT
Ms type: MS2
Ion mode: POSITIVE
Ionization: ESI
Fragmentation mode: HCD
Collision energy: 60 % (nominal)
Resolution: 15000
Column name: XBridge C18 3.5um, 2.1x50mm, Waters
Retention time: 8.6 min
Base peak: 278.1914
Precursor m/z: 278.1903
Precursor type: [M+H]+
m/z	relative intensity	assigned
58.0651	45	C3H8N+
70.0651	24	C4H8N+
72.0808	8	C4H10N+
79.0542	19	C6H7+
84.0808	235	C5H10N+
85.0886	23	C5H11N+
91.0542	999	C7H7+
103.0543	29	C8H7+
105.0699	925	C8H9+
115.0542	58	C9H7+
117.0699	897	C9H9+
129.0699	235	C10H9+
141.0699	81	C11H9+
153.0699	23	C12H9+
154.077	7	C12H10+
155.0855	352	C12H11+
165.0694	12	C13H9+
178.0777	223	C14H10+
179.0855	238	C14H11+
190.0775	21	C15H10+
191.0855	765	C15H11+
192.0933	94	C15H12+
193.1012	110	C15H13+
203.0856	160	C16H11+
204.0934	211	C16H12+
205.1012	493	C16H13+
207.1169	32	C16H15+
215.0863	6	C17H11+
216.093	19	C17H12+
217.1016	42	C17H13+
218.109	605	C17H14+
231.1166	36	C18H15+
233.1324	323	C18H17+
