Mass spectrum: Ethofumesate-2-keto; LC-ESI-ITFT; MS2; CE: 90%; R=7500; [M+H]+
Name: Ethofumesate-2-keto
Name: 3,3-Dimethyl-2-oxo-2,3-dihydrobenzofurane-5-yl methane sulfonate
Formula: C11H12O5S
Exact mass: 256.0405
SMILES: CS(=O)(=O)Oc1cc2c(cc1)OC(=O)C2(C)C
InChI: InChI=1S/C11H12O5S/c1-11(2)8-6-7(16-17(3,13)14)4-5-9(8)15-10(11)12/h4-6H,1-3H3
Instrument: LTQ Orbitrap XL Thermo Scientific
Instrument type: LC-ESI-ITFT
Ms type: MS2
Ion mode: POSITIVE
Ionization: ESI
Fragmentation mode: HCD
Collision energy: 90 % (nominal)
Resolution: 7500
Column name: XBridge C18 3.5um, 2.1x50mm, Waters
Retention time: 6.0 min
Base peak: 297.0411
Precursor m/z: 257.0478
Precursor type: [M+H]+
m/z	relative intensity	assigned
66.0463	121	C5H6+
67.0543	93	C5H7+
77.0386	868	C6H5+
79.0543	922	C6H7+
91.0542	592	C7H7+
93.0699	457	C7H9+
94.0412	606	C6H6O+
95.049	248	C6H7O+
103.0543	999	C8H7+
104.0615	101	C8H8+
105.0448	168	C6H5N2+
105.0699	306	C8H9+
107.049	718	C7H7O+
108.0572	81	C7H8O+
115.0542	230	C9H7+
121.0647	563	C8H9O+
122.0727	520	C8H10O+
123.0441	754	C7H7O2+
131.049	519	C9H7O+
132.0567	504	C9H8O+
133.0648	144	C9H9O+
135.044	371	C8H7O2+
149.0596	494	C9H9O2+
150.0674	153	C9H10O2+
160.0519	249	C10H8O2+
163.0389	341	C9H7O3+
177.0549	151	C10H9O3+
