Mass spectrum: Triphenylphosphine oxide; LC-ESI-QFT; MS2; CE: 180; R=35000; [M+H]+
Name: Triphenylphosphine oxide
Name: Triphenylphosphineoxide
Name: (diphenylphosphoroso)benzene
Formula: C18H15OP
Exact mass: 278.08605
SMILES: C1=CC=C(C=C1)P(=O)(C2=CC=CC=C2)C3=CC=CC=C3
InChI: InChI=1S/C18H15OP/c19-20(16-10-4-1-5-11-16,17-12-6-2-7-13-17)18-14-8-3-9-15-18/h1-15H
Instrument: Q Exactive Plus Orbitrap Thermo Scientific
Instrument type: LC-ESI-QFT
Ms type: MS2
Ion mode: POSITIVE
Ionization: ESI
Fragmentation mode: HCD
Collision energy: 180 (nominal)
Resolution: 35000
Column name: XBridge C18 3.5um, 2.1x50mm, Waters
Retention time: 9.4 min
Base peak: 391.2839
Precursor m/z: 279.0933
Precursor type: [M+H]+
m/z	relative intensity	assigned
50.0151	127	C4H2+
51.023	255	C4H3+
53.0022	344	C3HO+
53.0386	18	C4H5+
53.9975	57	C2NO+
55.0543	6	C4H7+
62.0151	12	C5H2+
63.0229	50	C5H3+
65.0386	999	C5H5+
68.9888	30	C3H2P+
68.9971	5	C3HO2+
74.0151	35	C6H2+
75.0229	28	C6H3+
77.0385	27	C6H5+
78.0464	11	C6H6+
89.0386	11	C7H5+
91.0543	20	C7H7+
92.0257	11	C6H4O+
95.0046	2	C5H4P+
95.0491	34	C6H7O+
97.0075	5	C8H+
102.0464	7	C8H6+
103.0541	3	C8H7+
105.0448	32	C6H5N2+
107.0046	18	C6H4P+
115.0541	26	C9H7+
121.0397	3	C6H5N2O+
128.0622	15	C10H8+
139.0544	4	C11H7+
152.0619	25	C12H8+
169.0648	5	C12H9O+
