Mass spectrum: Iobitridol; LC-ESI-ITFT; MS2; CE: 45%; R=7500; [M+H]+
Name: Iobitridol
Name: 1,3-Benzenedicarboxamide, N,N'-bis(2,3-dihydroxypropyl)-5-((5-hydroxy-2-(hydroxymethyl)-1-oxopropyl)amino)-2,4,6-triiodo-N,N'-dimethyl-
Name: 1-N,3-N-bis(2,3-dihydroxypropyl)-5-[[3-hydroxy-2-(hydroxymethyl)propanoyl]amino]-2,4,6-triiodo-1-N,3-N-dimethylbenzene-1,3-dicarboxamide
Formula: C20H28I3N3O9
Exact mass: 834.8960
SMILES: Ic1c(c(I)c(c(I)c1NC(=O)C(CO)CO)C(=O)N(CC(O)CO)C)C(=O)N(CC(O)CO)C
InChI: InChI=1S/C20H28I3N3O9/c1-25(3-10(31)7-29)19(34)12-14(21)13(20(35)26(2)4-11(32)8-30)16(23)17(15(12)22)24-18(33)9(5-27)6-28/h9-11,27-32H,3-8H2,1-2H3,(H,24,33)
Instrument: LTQ Orbitrap XL Thermo Scientific
Instrument type: LC-ESI-ITFT
Ms type: MS2
Ion mode: POSITIVE
Ionization: ESI
Fragmentation mode: HCD
Collision energy: 45 % (nominal)
Resolution: 7500
Column name: XBridge C18 3.5um, 2.1x50mm, Waters
Retention time: 1.6 min
Base peak: 149.0023
Precursor m/z: 835.9032
Precursor type: [M+H]+
m/z	relative intensity	assigned
88.0755	103	C4H10NO+
170.0234	62	C10H4NO2+
196.1662	85	C7H22N3O3+
200.035	85	C11H6NO3+
245.0931	70	C13H13N2O3+
273.0874	342	C14H13N2O4+
275.1023	144	C14H15N2O4+
293.8959	195	HIN5O6+
317.963	140	C11N3O9+
325.9312	129	C11H5INO3+
328.9185	233	C10H4INO4+
339.1231	84	C20H19O5+
339.9103	126	C11H3INO4+
343.9414	500	C11H7INO4+
357.9217	123	C11H5INO5+
358.9298	83	C11H6INO5+
361.9524	135	C11H9INO5+
369.9189	108	C12H5INO5+
387.9302	137	C12H7INO6+
400.9992	999	C14H14IN2O4+
405.9437	176	C12H9INO7+
423.8327	112	C10H4I2NO2+
426.9778	154	C15H12IN2O5+
431.0085	283	C15H16IN2O5+
439.7916	373	C9I2NO4+
451.8212	67	C6H4I2N3O5+
456.9908	92	C19H12IN3O3+
457.8002	87	C6H4I2O8+
497.834	468	C12H6I2NO5+
554.8918	353	C15H13I2N2O5+
584.906	87	C19H13I2N3O3+
