Mass spectrum: Fenhexamid; LC-ESI-QFT; MS2; CE: 45; R=35000; [M-H]-
Name: Fenhexamid
Name: N-(2,3-dichloro-4-hydroxy-phenyl)-1-methyl-cyclohexanecarboxamide
Formula: C14H17Cl2NO2
Exact mass: 301.06363
SMILES: O=C(Nc1ccc(O)c(Cl)c1Cl)C2(C)CCCCC2
InChI: InChI=1S/C14H17Cl2NO2/c1-14(7-3-2-4-8-14)13(19)17-9-5-6-10(18)12(16)11(9)15/h5-6,18H,2-4,7-8H2,1H3,(H,17,19)
Instrument: Q Exactive Orbitrap Thermo Scientific
Instrument type: LC-ESI-QFT
Ms type: MS2
Ion mode: NEGATIVE
Ionization: ESI
Fragmentation mode: HCD
Collision energy: 45 (nominal)
Resolution: 35000
Column name: XBridge C18 3.5um, 2.1x50mm, Waters
Retention time: 11.6 min
Base peak: 300.0566
Precursor m/z: 300.0564
Precursor type: [M-H]-
m/z	relative intensity	assigned
138.9832	4	C6H2ClNO-
155.9858	2	C6H3ClNO2-
166.9779	12	C7H2ClNO2-
167.9858	19	C7H3ClNO2-
174.9596	11	C6H3Cl2NO-
180.9937	3	C8H4ClNO2-
182.9726	4	C7H2ClNO3-
185.0847	7	C12H11NO-
192.9936	2	C9H4ClNO2-
194.0013	2	C9H5ClNO2-
195.0093	13	C9H6ClNO2-
200.0719	1	C12H10NO2-
207.0092	2	C10H6ClNO2-
208.0171	3	C10H7ClNO2-
212.0718	3	C13H10NO2-
213.0796	10	C13H11NO2-
220.0171	3	C11H7ClNO2-
221.0249	55	C11H8ClNO2-
228.1031	5	C14H14NO2-
248.0484	24	C13H11ClNO2-
249.0563	249	C13H12ClNO2-
264.0797	999	C14H15ClNO2-
300.0564	41	C14H16Cl2NO2-
