Mass spectrum: Cycloxydim-TP BH 517-TSO E/Z-isomer; LC-ESI-QFT; MS2; CE: 45%; R=17500; [M+H]+
Name: Cycloxydim-TP BH 517-TSO E/Z-isomer
Name: Cycloxydim sulfoxide
Formula: C17H27NO4S
Exact mass: 341.1661
SMILES: CCC\C(=N/OCC)C1=C(O)CC(CC1=O)C1CCCS(=O)C1
InChI: InChI=1S/C17H27NO4S/c1-3-6-14(18-22-4-2)17-15(19)9-13(10-16(17)20)12-7-5-8-23(21)11-12/h12-13,19H,3-11H2,1-2H3/b18-14+
Instrument: Q Exactive Plus Orbitrap Thermo Scientific
Instrument type: LC-ESI-QFT
Ms type: MS2
Ion mode: POSITIVE
Ionization: ESI
Fragmentation mode: HCD
Collision energy: 45 % (nominal)
Resolution: 17500
Column name: XBridge C18 3.5um, 2.1x50mm, Waters
Retention time: 7.731 min
Base peak: 342.1734
Precursor m/z: 342.1734
Precursor type: [M+H]+
m/z	relative intensity	assigned
55.0178	8	C3H3O+
55.0542	21	C4H7+
57.0335	32	C3H5O+
58.995	38	C2H3S+
62.9899	61	CH3OS+
65.0386	11	C5H5+
67.0541	49	C5H7+
68.0494	26	C4H6N+
69.0336	10	C4H5O+
69.0698	12	C5H9+
70.0651	26	C4H8N+
73.0105	15	C3H5S+
79.0542	28	C6H7+
81.07	21	C6H9+
82.0652	35	C5H8N+
84.081	7	C5H10N+
85.011	8	C4H5S+
87.0264	75	C4H7S+
91.0542	35	C7H7+
93.0697	38	C7H9+
95.013	6	C5H3O2+
95.0493	10	C6H7O+
95.0858	9	C7H11+
99.0263	27	C5H7S+
101.0419	244	C5H9S+
105.0699	56	C8H9+
107.0491	59	C7H7O+
107.0857	22	C8H11+
108.0442	47	C6H6NO+
109.0284	10	C6H5O2+
109.0649	25	C7H9O+
110.06	201	C6H8NO+
111.0443	20	C6H7O2+
112.0757	241	C6H10NO+
113.042	18	C6H9S+
115.0542	26	C9H7+
117.037	13	C5H9OS+
117.0701	59	C9H9+
119.0857	13	C9H11+
121.0648	37	C8H9O+
122.0601	7	C7H8NO+
122.0964	48	C8H12N+
123.044	13	C7H7O2+
123.0806	10	C8H11O+
124.0755	34	C7H10NO+
125.0419	23	C7H9S+
127.0578	9	C7H11S+
128.0709	13	C6H10NO2+
129.0368	73	C6H9OS+
129.0699	31	C10H9+
131.0856	25	C10H11+
132.0446	31	C8H6NO+
132.0809	12	C9H10N+
133.0647	52	C9H9O+
133.1013	6	C10H13+
134.0967	10	C9H12N+
135.0803	37	C9H11O+
136.0394	64	C7H6NO2+
136.0757	29	C8H10NO+
137.0599	15	C8H9O2+
138.0918	18	C2H18O4S+
139.058	19	C8H11S+
143.0856	18	C11H11+
145.1013	14	C11H13+
146.0602	38	C9H8NO+
146.0964	18	C10H12N+
147.0802	35	C10H11O+
150.0913	162	C9H12NO+
152.0708	23	C8H10NO2+
152.1073	15	C9H14NO+
153.0368	51	C8H9OS+
157.0658	11	C11H9O+
158.0959	11	C11H12N+
159.0807	40	C11H11O+
160.0761	46	C4H16O4S+
161.0597	146	C10H9O2+
161.0826	27	C10H11NO+
161.0957	11	C11H13O+
162.0916	30	C10H12NO+
163.0757	21	C10H11O2+
164.1072	7	C10H14NO+
165.0363	10	C9H9OS+
167.0526	29	C9H11OS+
171.0475	75	C8H11O2S+
171.0804	13	C12H11O+
172.1124	9	C12H14N+
173.0961	24	C12H13O+
174.0912	72	C11H12NO+
175.0755	72	C11H11O2+
175.0983	27	C11H13NO+
176.1069	17	C11H14NO+
177.1148	13	C11H15NO+
178.0862	999	C10H12NO2+
180.1018	126	C10H14NO2+
181.1096	25	C10H15NO2+
185.0632	19	C9H13O2S+
185.0963	15	C13H13O+
187.0979	6	C12H13NO+
188.1073	14	C12H14NO+
190.0858	13	C11H12NO2+
191.0927	8	C11H13NO2+
192.0481	13	C10H10NOS+
194.1178	14	C11H16NO2+
196.097	19	C10H14NO3+
199.1122	6	C14H15O+
201.1277	20	C14H17O+
202.1225	57	C13H16NO+
204.1021	63	C12H14NO2+
204.138	30	C13H18NO+
206.118	11	C12H16NO2+
212.0741	15	C10H14NO2S+
218.1176	21	C13H16NO2+
218.1535	9	C14H20NO+
228.1386	20	C15H18NO+
229.1226	20	C15H17O2+
232.1338	9	C14H18NO2+
236.11	27	C13H18NOS+
246.1492	44	C15H20NO2+
252.1052	45	C13H18NO2S+
252.1416	13	C14H22NOS+
254.0841	67	C12H16NO3S+
254.1211	24	C13H20NO2S+
262.126	11	C15H20NOS+
263.1102	28	C15H19O2S+
264.1047	10	C14H18NO2S+
278.1208	15	C15H20NO2S+
280.1365	835	C15H22NO2S+
296.1319	19	C15H22NO3S+
