Mass spectrum: Venlafaxine; LC-ESI-QFT; MS2; CE: 45; R=35000; [M+H]+
Name: Venlafaxine
Name: 1-[2-(dimethylamino)-1-(4-methoxyphenyl)ethyl]-1-cyclohexanol
Formula: C17H27NO2
Exact mass: 277.20418
SMILES: CN(C)CC(C1=CC=C(C=C1)OC)C2(CCCCC2)O
InChI: InChI=1S/C17H27NO2/c1-18(2)13-16(17(19)11-5-4-6-12-17)14-7-9-15(20-3)10-8-14/h7-10,16,19H,4-6,11-13H2,1-3H3
Instrument: Q Exactive Orbitrap Thermo Scientific
Instrument type: LC-ESI-QFT
Ms type: MS2
Ion mode: POSITIVE
Ionization: ESI
Fragmentation mode: HCD
Collision energy: 45 (nominal)
Resolution: 35000
Column name: XBridge C18 3.5um, 2.1x50mm, Waters
Retention time: 6.2 min
Base peak: 278.2118
Precursor m/z: 278.2115
Precursor type: [M+H]+
m/z	relative intensity	assigned
58.0652	999	C3H8N+
67.0543	2	C5H7+
69.0699	6	C5H9+
79.0543	8	C6H7+
81.0699	10	C6H9+
91.0542	7	C7H7+
93.0699	4	C7H9+
107.0856	10	C8H11+
109.0647	1	C7H9O+
121.0649	225	C8H9O+
132.0571	3	C9H8O+
135.0805	11	C9H11O+
147.0805	108	C10H11O+
152.1435	3	C10H18N+
158.0729	2	C11H10O+
159.0805	30	C11H11O+
161.0962	2	C11H13O+
163.0992	2	C10H13NO+
173.0961	40	C12H13O+
177.1149	5	C11H15NO+
178.123	5	C11H16NO+
183.1168	2	C14H15+
187.1121	2	C13H15O+
215.1432	48	C15H19O+
260.2006	8	C17H26NO+
