Mass spectrum: Diazepam; LC-ESI-ITFT; MS2; CE: 45%; R=7500; [M+H]+
Name: Diazepam
Name: 7-chloranyl-1-methyl-5-phenyl-3H-1,4-benzodiazepin-2-one
Formula: C16H13ClN2O
Exact mass: 284.0716
SMILES: CN1C2=C(C=C(Cl)C=C2)C(=NCC1=O)C3=CC=CC=C3
InChI: InChI=1S/C16H13ClN2O/c1-19-14-8-7-12(17)9-13(14)16(18-10-15(19)20)11-5-3-2-4-6-11/h2-9H,10H2,1H3
Instrument: LTQ Orbitrap XL Thermo Scientific
Instrument type: LC-ESI-ITFT
Ms type: MS2
Ion mode: POSITIVE
Ionization: ESI
Fragmentation mode: HCD
Collision energy: 45 % (nominal)
Resolution: 7500
Column name: XBridge C18 3.5um, 2.1x50mm, Waters
Retention time: 10.1 min
Base peak: 285.0798
Precursor m/z: 285.0789
Precursor type: [M+H]+
m/z	relative intensity	assigned
58.0286	2	C2H4NO+
91.0543	11	C7H7+
105.0336	24	C7H5O+
147.0679	3	C9H9NO+
150.0111	1	C8H5ClN+
154.0417	153	C8H9ClN+
167.0135	8	C8H6ClNO+
172.0629	13	C10H8N2O+
179.037	13	C9H8ClN2+
180.0209	14	C9H7ClNO+
182.0367	48	C9H9ClNO+
193.0885	50	C14H11N+
207.0321	4	C10H8ClN2O+
216.0567	3	C16H8O+
221.1071	8	C15H13N2+
222.1151	90	C15H14N2+
227.0488	8	C14H10ClN+
228.0574	104	C14H11ClN+
230.0724	4	C14H13ClN+
241.0525	11	C14H10ClN2+
242.0601	4	C14H11ClN2+
243.0677	3	C14H12ClN2+
255.0677	11	C15H12ClN2+
257.0839	185	C15H14ClN2+
285.079	999	C16H14ClN2O+
