Mass spectrum: Pyribencarb; LC-ESI-QFT; MS2; CE: 120%; R=17500; [M+H]+
Name: Pyribencarb
Name: methyl {2-chloro-5-[(1E)-1-(6-methyl-2-pyridylmethoxyimino)ethyl]benzyl}carbamate
Name: methyl N-[[2-chloro-5-[C-methyl-N-[(6-methylpyridin-2-yl)methoxy]carbonimidoyl]phenyl]methyl]carbamate
Formula: C18H20ClN3O3
Exact mass: 361.1193
SMILES: CC1=NC(=CC=C1)CON=C(C)C2=CC(=C(C=C2)Cl)CNC(=O)OC
InChI: InChI=1S/C18H20ClN3O3/c1-12-5-4-6-16(21-12)11-25-22-13(2)14-7-8-17(19)15(9-14)10-20-18(23)24-3/h4-9H,10-11H2,1-3H3,(H,20,23)
Instrument: Exploris 240 Orbitrap Thermo Scientific
Instrument type: LC-ESI-QFT
Ms type: MS2
Ion mode: POSITIVE
Ionization: ESI
Fragmentation mode: HCD
Collision energy: 120 % (nominal)
Resolution: 17500
Column name: XBridge C18 3.5um, 2.1x50mm, Waters
Retention time: 5.920 min
Base peak: 362.1261
Precursor m/z: 362.1266
Precursor type: [M+H]+
m/z	relative intensity	assigned
51.023	106	C4H3+
53.0386	66	C4H5+
58.0287	18	C2H4NO+
62.0151	15	C5H2+
63.0229	239	C5H3+
65.0385	133	C5H5+
66.0464	22	C5H6+
67.0542	15	C5H7+
72.9839	309	C3H2Cl+
75.023	104	C6H3+
77.0385	284	C6H5+
78.0339	35	C5H4N+
78.0466	38	C6H6+
79.0543	25	C6H7+
87.023	44	C7H3+
88.0309	22	C7H4+
89.0386	379	C7H5+
90.0464	21	C7H6+
91.0542	103	C7H7+
92.0495	114	C6H6N+
93.0574	19	C6H7N+
94.0651	100	C6H8N+
95.0491	59	C6H7O+
96.0446	12	C5H6NO+
96.9839	386	C5H2Cl+
98.9994	15	C5H4Cl+
102.0339	38	C7H4N+
102.0467	31	C8H6+
104.0492	45	C7H6N+
105.0449	69	C6H5N2+
106.0415	13	C7H6O+
106.0653	33	C7H8N+
107.073	50	C7H9N+
110.0603	38	C6H8NO+
110.9997	26	C6H4Cl+
113.0155	13	C6H6Cl+
117.0574	18	C8H7N+
118.0651	30	C8H8N+
120.0444	13	C7H6NO+
122.0599	87	C7H8NO+
122.9996	999	C7H4Cl+
124.0074	76	C7H5Cl+
125.0148	11	C7H6Cl+
129.0451	18	C8H5N2+
130.0403	20	C7H4N3+
130.0649	10	C9H8N+
138.0104	24	C7H5ClN+
139.0061	33	C6H4ClN2+
141.0102	20	C7H6ClO+
150.011	19	C8H5ClN+
