Mass spectrum: Uvinul-LR; LC-ESI-QFT; MS2; CE: 45%; R=17500; [M+H]+
Name: Uvinul-LR
Name: 2-ethoxyethyl 2-cyano-2-[3-(3-methoxypropylamino)cyclohex-2-en-1-ylidene]acetate
Formula: C17H26N2O4
Exact mass: 322.1893
SMILES: CCOCCOC(=O)C(=C1CCCC(=C1)NCCCOC)C#N
InChI: InChI=1S/C17H26N2O4/c1-3-22-10-11-23-17(20)16(13-18)14-6-4-7-15(12-14)19-8-5-9-21-2/h12,19H,3-11H2,1-2H3
Instrument: Exploris 240 Orbitrap Thermo Scientific
Instrument type: LC-ESI-QFT
Ms type: MS2
Ion mode: POSITIVE
Ionization: ESI
Fragmentation mode: HCD
Collision energy: 45 % (nominal)
Resolution: 17500
Column name: XBridge C18 3.5um, 2.1x50mm, Waters
Retention time: 6.721 min
Base peak: 233.1283
Precursor m/z: 323.1965
Precursor type: [M+H]+
m/z	relative intensity	assigned
73.0648	20	C4H9O+
146.06	63	C9H8NO+
147.0916	12	C9H11N2+
149.1073	8	C9H13N2+
161.0713	2	C9H9N2O+
173.071	16	C10H9N2O+
173.1074	4	C11H13N2+
175.1232	15	C11H15N2+
201.1024	145	C12H13N2O+
233.1285	999	C13H17N2O2+
