Mass spectrum: Flonicamid; LC-ESI-ITFT; MS2; CE: 75%; R=15000; [M+H]+
Name: Flonicamid
Name: N-(cyanomethyl)-4-(trifluoromethyl)-3-pyridinecarboxamide
Formula: C9H6F3N3O
Exact mass: 229.0463
SMILES: O=C(NCC#N)c1cnccc1C(F)(F)F
InChI: InChI=1S/C9H6F3N3O/c10-9(11,12)7-1-3-14-5-6(7)8(16)15-4-2-13/h1,3,5H,4H2,(H,15,16)
Instrument: LTQ Orbitrap XL Thermo Scientific
Instrument type: LC-ESI-ITFT
Ms type: MS2
Ion mode: POSITIVE
Ionization: ESI
Fragmentation mode: HCD
Collision energy: 75 % (nominal)
Resolution: 15000
Column name: XBridge C18 3.5um, 2.1x50mm, Waters
Retention time: 3.9 min
Base peak: 230.0537
Precursor m/z: 230.0536
Precursor type: [M+H]+
m/z	relative intensity	assigned
75.0042	1	C3HF2+
77.0197	1	C3H3F2+
78.0337	2	C5H4N+
79.0417	23	C5H5N+
83.024	1	C3H3N2O+
98.0401	239	C5H5FN+
101.0197	25	C5H3F2+
103.0291	1	C6H3N2+
105.0446	4	C6H5N2+
106.0525	2	C6H6N2+
108.0245	3	C6H3FN+
110.0401	3	C6H5FN+
111.0314	8	C5H5NO2+
115.0228	5	C5H3F2N+
117.0448	2	C7H5N2+
119.01	1	C5H2F3+
121.0259	5	C5H4F3+
124.0193	1	C6H3FNO+
126.0147	6	C6H2F2N+
126.0349	30	C6H5FNO+
128.0307	159	C6H4F2N+
129.0385	118	C6H5F2N+
131.024	11	C7H3N2O+
133.0256	2	C6H4F3+
133.0394	1	C7H5N2O+
134.0474	36	C7H6N2O+
135.0353	27	C7H4FN2+
136.0431	11	C7H5FN2+
140.0306	9	C7H4F2N+
144.0256	58	C6H4F2NO+
146.0213	294	C6H3F3N+
147.0291	76	C6H4F3N+
148.0368	999	C6H5F3N+
153.0458	11	C7H6FN2O+
155.0415	91	C7H5F2N2+
156.0255	11	C7H4F2NO+
158.0213	1	C7H3F3N+
160.0369	4	C7H5F3N+
160.0506	1	C8H6N3O+
161.0445	5	C7H6F3N+
162.046	4	C8H5FN3+
163.03	9	C8H4FN2O+
164.0317	31	C6H5F3NO+
165.026	1	C8H3F2N2+
170.0283	1	C7H4F2N2O+
173.0323	9	C7H4F3N2+
174.0162	250	C7H3F3NO+
175.0477	24	C7H6F3N2+
176.0318	331	C7H5F3NO+
179.0188	48	C6H4F3NO2+
181.0405	2	C3H5F2N5O2+
183.0364	164	C8H5F2N2O+
185.032	10	C8H4F3N2+
190.0414	1	C9H5FN3O+
192.0267	1	C7H5F3NO2+
203.0428	173	C8H6F3N2O+
