Mass spectrum: Isoproturon-monodemethyl; LC-ESI-ITFT; MS2; CE: 60%; R=15000; [M+H]+
Name: Isoproturon-monodemethyl
Name: 1-(4-Isoprophenyl)-3-methylurea
Formula: C11H16N2O
Exact mass: 192.1263
SMILES: N(C(=O)Nc1ccc(cc1)C(C)C)C
InChI: InChI=1S/C11H16N2O/c1-8(2)9-4-6-10(7-5-9)13-11(14)12-3/h4-8H,1-3H3,(H2,12,13,14)
Instrument: LTQ Orbitrap XL Thermo Scientific
Instrument type: LC-ESI-ITFT
Ms type: MS2
Ion mode: POSITIVE
Ionization: ESI
Fragmentation mode: HCD
Collision energy: 60 % (nominal)
Resolution: 15000
Column name: XBridge C18 3.5um, 2.1x50mm, Waters
Retention time: 8.6 min
Base peak: 193.1341
Precursor m/z: 193.1335
Precursor type: [M+H]+
m/z	relative intensity	assigned
58.0287	17	C2H4NO+
77.0385	9	C6H5+
91.0541	5	C7H7+
92.0496	6	C6H6N+
94.0652	999	C6H8N+
107.0857	5	C8H11+
117.0695	2	C9H9+
120.0445	12	C7H6NO+
121.089	2	C8H11N+
134.0965	46	C9H12N+
136.1122	369	C9H14N+
147.0918	9	C9H11N2+
151.0867	294	C8H11N2O+
162.0915	6	C10H12NO+
193.1336	35	C11H17N2O+
