Mass spectrum: Fludioxonil; LC-ESI-ITFT; MS2; CE: 75%; R=15000; [M-H]-
Name: Fludioxonil
Name: 4-(2,2-difluoro-1,3-benzodioxol-4-yl)-1H-pyrrole-3-carbonitrile
Formula: C12H6F2N2O2
Exact mass: 248.0397
SMILES: C1(Oc2c(cccc2O1)c1c(c[nH]c1)C#N)(F)F
InChI: InChI=1S/C12H6F2N2O2/c13-12(14)17-10-3-1-2-8(11(10)18-12)9-6-16-5-7(9)4-15/h1-3,5-6,16H
Instrument: LTQ Orbitrap XL Thermo Scientific
Instrument type: LC-ESI-ITFT
Ms type: MS2
Ion mode: NEGATIVE
Ionization: ESI
Fragmentation mode: HCD
Collision energy: 75 % (nominal)
Resolution: 15000
Column name: XBridge C18 3.5um, 2.1x50mm, Waters
Retention time: 10.7 min
Base peak: 247.0324
Precursor m/z: 247.0325
Precursor type: [M-H]-
m/z	relative intensity	assigned
89.0143	60	C5HN2-
126.0348	999	C9H4N-
151.03	228	C10H3N2-
152.038	134	C10H4N2-
153.0459	76	C10H5N2-
169.0406	433	C10H5N2O-
179.0244	68	C11H3N2O-
180.0327	926	C11H4N2O-
181.0404	151	C11H5N2O-
197.0355	67	C11H5N2O2-
247.0319	451	C12H5F2N2O2-
