Mass spectrum: Phenylephrine; LC-ESI-QFT; MS2; CE: 45; R=35000; [M+H]+
Name: Phenylephrine
Name: 3-[(1R)-1-hydroxy-2-(methylamino)ethyl]phenol
Formula: C9H13NO2
Exact mass: 167.09463
SMILES: CNC[C@@H](C1=CC(=CC=C1)O)O
InChI: InChI=1S/C9H13NO2/c1-10-6-9(12)7-3-2-4-8(11)5-7/h2-5,9-12H,6H2,1H3/t9-/m0/s1
Instrument: Q Exactive Orbitrap Thermo Scientific
Instrument type: LC-ESI-QFT
Ms type: MS2
Ion mode: POSITIVE
Ionization: ESI
Fragmentation mode: HCD
Collision energy: 45 (nominal)
Resolution: 35000
Column name: XBridge C18 3.5um, 2.1x50mm, Waters
Retention time: 0.9 min
Base peak: 150.0914
Precursor m/z: 168.1019
Precursor type: [M+H]+
m/z	relative intensity	assigned
57.0573	4	C3H7N+
65.0385	1	C5H5+
79.0542	1	C6H7+
81.0699	11	C6H9+
91.0542	134	C7H7+
93.0698	6	C7H9+
94.0412	2	C6H6O+
95.0491	1	C6H7O+
103.0542	2	C8H7+
105.0699	4	C8H9+
107.0491	12	C7H7O+
107.0729	1	C7H9N+
108.0569	1	C7H8O+
108.0807	2	C7H10N+
109.0648	163	C7H9O+
117.0572	12	C8H7N+
118.0651	2	C8H8N+
119.0491	82	C8H7O+
120.0443	1	C7H6NO+
121.0647	40	C8H9O+
122.0964	8	C8H12N+
132.0808	14	C9H10N+
133.0647	1	C9H9O+
134.0599	5	C8H8NO+
135.0678	130	C8H9NO+
149.0838	1	C9H11NO+
150.0914	999	C9H12NO+
168.1018	1	C9H14NO2+
