Mass spectrum: Etridiazole; LC-ESI-QFT; MS2; CE: 150%; R=17500; [M+H]+
Name: Etridiazole
Name: 5-ethoxy-3-(trichloromethyl)-1,2,4-thiadiazole
Formula: C5H5Cl3N2OS
Exact mass: 245.9188
SMILES: CCOC1=NC(=NS1)C(Cl)(Cl)Cl
InChI: InChI=1S/C5H5Cl3N2OS/c1-2-11-4-9-3(10-12-4)5(6,7)8/h2H2,1H3
Instrument: Exploris 240 Orbitrap Thermo Scientific
Instrument type: LC-ESI-QFT
Ms type: MS2
Ion mode: POSITIVE
Ionization: ESI
Fragmentation mode: HCD
Collision energy: 150 % (nominal)
Resolution: 17500
Column name: XBridge C18 3.5um, 2.1x50mm, Waters
Retention time: 10.269 min
Base peak: 243.0635
Precursor m/z: 246.9261
Precursor type: [M+H]+
m/z	relative intensity	assigned
78.9403	406	CClS+
107.9402	999	C2Cl2N+
139.9125	206	C2Cl2NS+
