Mass spectrum: Metolachlor; LC-ESI-ITFT; MS2; CE: 90%; R=30000; [M+H]+
Name: Metolachlor
Name: 2-chloranyl-N-(2-ethyl-6-methyl-phenyl)-N-(1-methoxypropan-2-yl)ethanamide
Formula: C15H22ClNO2
Exact mass: 283.1334
SMILES: CCC1=CC=CC(=C1N(C(C)COC)C(=O)CCl)C
InChI: InChI=1S/C15H22ClNO2/c1-5-13-8-6-7-11(2)15(13)17(14(18)9-16)12(3)10-19-4/h6-8,12H,5,9-10H2,1-4H3
Instrument: LTQ Orbitrap XL Thermo Scientific
Instrument type: LC-ESI-ITFT
Ms type: MS2
Ion mode: POSITIVE
Ionization: ESI
Fragmentation mode: HCD
Collision energy: 90 % (nominal)
Resolution: 30000
Column name: XBridge C18 3.5um, 2.1x50mm, Waters
Retention time: 11.8 min
Base peak: 306.1236
Precursor m/z: 284.1412
Precursor type: [M+H]+
m/z	relative intensity	assigned
73.0648	83	C4H9O+
76.9789	53	C2H2ClO+
79.0542	76	C6H7+
91.0542	800	C7H7+
93.0573	46	C6H7N+
93.0699	122	C7H9+
103.0542	108	C8H7+
104.0621	96	C8H8+
105.0698	64	C8H9+
106.065	57	C7H8N+
107.0731	63	C7H9N+
107.0856	37	C8H11+
108.0807	356	C7H10N+
109.0649	80	C7H9O+
115.0543	75	C9H7+
117.0699	355	C9H9+
118.0651	156	C8H8N+
119.0729	362	C8H9N+
119.0855	218	C9H11+
120.0808	332	C8H10N+
130.065	121	C9H8N+
131.073	292	C9H9N+
132.0808	416	C9H10N+
133.0886	791	C9H11N+
134.0964	999	C9H12N+
136.1122	31	C9H14N+
143.0729	142	C10H9N+
144.0808	346	C10H10N+
145.0886	243	C10H11N+
146.0602	49	C9H8NO+
146.0964	676	C10H12N+
147.068	49	C9H9NO+
147.1041	55	C10H13N+
148.1121	90	C10H14N+
158.0965	204	C11H12N+
159.1043	161	C11H13N+
160.1121	472	C11H14N+
161.1197	40	C11H15N+
162.0912	65	C10H12NO+
166.0425	25	C9H9ClN+
176.1434	428	C12H18N+
184.0522	157	C9H11ClNO+
