Mass spectrum: Vinclozolin; LC-ESI-QFT; MS2; CE: 60; R=35000; [M+H]+
Name: Vinclozolin
Name: 3-(3,5-dichlorophenyl)-5-ethenyl-5-methyl-1,3-oxazolidine-2,4-dione
Formula: C12H9Cl2NO3
Exact mass: 284.99595
SMILES: O=C2OC(C(=O)N2c1cc(Cl)cc(Cl)c1)(\C=C)C
InChI: InChI=1S/C12H9Cl2NO3/c1-3-12(2)10(16)15(11(17)18-12)9-5-7(13)4-8(14)6-9/h3-6H,1H2,2H3
Instrument: Q Exactive Orbitrap Thermo Scientific
Instrument type: LC-ESI-QFT
Ms type: MS2
Ion mode: POSITIVE
Ionization: ESI
Fragmentation mode: HCD
Collision energy: 60 (nominal)
Resolution: 35000
Column name: XBridge C18 3.5um, 2.1x50mm, Waters
Retention time: 12.2 min
Base peak: 205.9771
Precursor m/z: 286.0032
Precursor type: [M+H]+
m/z	relative intensity	assigned
61.0285	2	C2H5O2+
62.9996	3	C2H4Cl+
64.0029	1	H2NO3+
67.0542	2	C5H7+
71.0491	1	C4H7O+
81.0335	3	C5H5O+
81.0699	3	C6H9+
83.0491	1	C5H7O+
98.9841	3	CH4ClO3+
104.0493	3	C7H6N+
115.054	7	C9H7+
116.0619	3	C9H8+
117.0699	2	C9H9+
130.0649	3	C9H8N+
138.0103	2	C7H5ClN+
139.0182	2	C7H6ClN+
140.0492	4	C10H6N+
141.0572	6	C10H7N+
142.0651	13	C10H8N+
143.0729	50	C10H9N+
144.0807	200	C10H10N+
145.0648	3	C10H9O+
146.9765	1	C6H5Cl2+
149.0152	10	C9H6Cl+
150.023	4	C9H7Cl+
151.0183	22	C8H6ClN+
151.0308	4	C9H8Cl+
154.0651	3	C11H8N+
155.0602	1	C10H7N2+
160.0757	1	C10H10NO+
162.023	10	C10H7Cl+
164.026	210	C9H7ClN+
165.0339	8	C9H8ClN+
169.0522	10	C11H7NO+
170.06	22	C11H8NO+
170.9765	2	C8H5Cl2+
171.0679	1	C11H9NO+
172.0758	2	C11H10NO+
173.9872	999	C7H6Cl2N+
174.971	7	C7H5Cl2O+
176.026	20	C10H7ClN+
177.0339	61	C10H8ClN+
178.0417	150	C10H9ClN+
179.0495	181	C10H10ClN+
184.9796	10	C8H5Cl2N+
184.9918	28	C9H7Cl2+
185.9872	10	C8H6Cl2N+
187.0181	6	C11H6ClN+
187.9664	5	C7H4Cl2NO+
188.0706	75	C11H10NO2+
189.0338	2	C11H8ClN+
191.0128	1	C10H6ClNO+
194.0368	10	C10H9ClNO+
195.9713	6	C9H4Cl2N+
196.992	5	C10H7Cl2+
197.9871	35	C9H6Cl2N+
198.9951	6	C9H7Cl2N+
199.9663	35	C8H4Cl2NO+
200.0027	4	C9H8Cl2N+
204.0211	25	C11H7ClNO+
205.0289	19	C11H8ClNO+
206.0366	8	C11H9ClNO+
207.0446	24	C11H10ClNO+
212.0028	145	C10H8Cl2N+
212.9869	1	C10H7Cl2O+
213.9819	7	C9H6Cl2NO+
214.0184	29	C10H10Cl2N+
217.977	219	C8H6Cl2NO2+
221.9871	53	C11H6Cl2N+
223.0394	34	C11H10ClNO2+
224.0028	16	C11H8Cl2N+
225.9822	2	C10H6Cl2NO+
226.9896	1	C10H7Cl2NO+
233.024	2	C12H8ClNO2+
239.9977	26	C11H8Cl2NO+
251.0336	1	C12H10ClNO3+
267.9926	3	C12H8Cl2NO2+
