Mass spectrum: Difenacoum; LC-ESI-QFT; MS2; CE: 120%; R=17500; [M+H]+
Name: Difenacoum
Name: 4-hydroxy-3-[3-(4-phenylphenyl)-1,2,3,4-tetrahydronaphthalen-1-yl]chromen-2-one
Formula: C31H24O3
Exact mass: 444.1725
SMILES: C1C(CC2=CC=CC=C2C1C3=C(C4=CC=CC=C4OC3=O)O)C5=CC=C(C=C5)C6=CC=CC=C6
InChI: InChI=1S/C31H24O3/c32-30-26-12-6-7-13-28(26)34-31(33)29(30)27-19-24(18-23-10-4-5-11-25(23)27)22-16-14-21(15-17-22)20-8-2-1-3-9-20/h1-17,24,27,32H,18-19H2
Instrument: Exploris 240 Orbitrap Thermo Scientific
Instrument type: LC-ESI-QFT
Ms type: MS2
Ion mode: POSITIVE
Ionization: ESI
Fragmentation mode: HCD
Collision energy: 120 % (nominal)
Resolution: 17500
Column name: XBridge C18 3.5um, 2.1x50mm, Waters
Retention time: 15.423 min
Base peak: 445.1795
Precursor m/z: 445.1798
Precursor type: [M+H]+
m/z	relative intensity	assigned
51.0229	31	C4H3+
53.0387	34	C4H5+
65.0385	167	C5H5+
77.0385	175	C6H5+
79.0542	70	C6H7+
91.0542	351	C7H7+
93.0334	21	C6H5O+
94.0414	9	C6H6O+
95.0491	138	C6H7O+
102.0464	11	C8H6+
103.0542	88	C8H7+
107.049	16	C7H7O+
115.0542	74	C9H7+
121.0282	53	C7H5O2+
127.0541	13	C10H7+
128.0621	83	C10H8+
129.0698	6	C10H9+
139.0545	17	C11H7+
141.0703	12	C11H9+
151.0541	11	C12H7+
152.0621	137	C12H8+
153.0701	13	C12H9+
163.0545	8	C13H7+
164.0617	40	C13H8+
165.0698	491	C13H9+
166.077	9	C13H10+
169.0648	15	C12H9O+
176.062	62	C14H8+
177.0697	82	C14H9+
178.0776	999	C14H10+
179.0853	29	C14H11+
189.0693	7	C15H9+
202.0778	14	C16H10+
215.0853	14	C17H11+
226.0777	13	C18H10+
239.0854	38	C19H11+
240.0932	16	C19H12+
241.101	50	C19H13+
253.1019	5	C20H13+
