Mass spectrum: Olanzapine; LC-ESI-QFT; MS2; CE: 45; R=35000; [M+H]+
Name: Olanzapine
Name: 2-methyl-4-(4-methylpiperazin-1-yl)-5H-thieno[3,2-c][1,5]benzodiazepine
Formula: C17H20N4S
Exact mass: 312.14087
SMILES: CC1=CC2=C(NC3=CC=CC=C3N=C2S1)N4CCN(CC4)C
InChI: InChI=1S/C17H20N4S/c1-12-11-13-16(21-9-7-20(2)8-10-21)18-14-5-3-4-6-15(14)19-17(13)22-12/h3-6,11,18H,7-10H2,1-2H3
Instrument: Q Exactive Plus Orbitrap Thermo Scientific
Instrument type: LC-ESI-QFT
Ms type: MS2
Ion mode: POSITIVE
Ionization: ESI
Fragmentation mode: HCD
Collision energy: 45 (nominal)
Resolution: 35000
Column name: XBridge C18 3.5um, 2.1x50mm, Waters
Retention time: 3.1 min
Base peak: 313.1474
Precursor m/z: 313.1481
Precursor type: [M+H]+
m/z	relative intensity	assigned
58.0651	9	C3H8N+
72.0807	1	C4H10N+
82.0651	2	C5H8N+
84.0808	334	C5H10N+
85.076	11	C4H9N2+
99.0917	1	C5H11N2+
133.076	1	C8H9N2+
169.076	6	C11H9N2+
179.0607	1	C12H7N2+
180.0682	7	C12H8N2+
186.0369	3	C11H8NS+
195.0791	3	C12H9N3+
198.0246	26	C11H6N2S+
208.087	1	C13H10N3+
212.0406	5	C12H8N2S+
213.0481	131	C12H9N2S+
215.0637	8	C12H11N2S+
222.1028	6	C14H12N3+
223.1104	11	C14H13N3+
224.1183	3	C14H14N3+
225.0478	2	C13H9N2S+
227.064	6	C13H11N2S+
228.0591	4	C12H10N3S+
229.0795	2	C13H13N2S+
230.0747	21	C12H12N3S+
239.0637	15	C14H11N2S+
241.0668	4	C13H11N3S+
242.0748	5	C13H12N3S+
254.0743	2	C14H12N3S+
255.082	1	C14H13N3S+
256.0902	999	C14H14N3S+
270.106	2	C15H16N3S+
282.106	122	C16H16N3S+
311.133	1	C17H19N4S+
313.1481	90	C17H21N4S+
