Mass spectrum: Dimefuron; LC-ESI-QFT; MS2; CE: 30; R=35000; [M+H]+
Name: Dimefuron
Name: 3-[4-(5-tert-butyl-2-keto-1,3,4-oxadiazol-3-yl)-3-chloro-phenyl]-1,1-dimethyl-urea
Formula: C15H19ClN4O3
Exact mass: 338.11457
SMILES: O=C2O\C(=N/N2c1c(Cl)cc(NC(=O)N(C)C)cc1)C(C)(C)C
InChI: InChI=1S/C15H19ClN4O3/c1-15(2,3)12-18-20(14(22)23-12)11-7-6-9(8-10(11)16)17-13(21)19(4)5/h6-8H,1-5H3,(H,17,21)
Instrument: Q Exactive Orbitrap Thermo Scientific
Instrument type: LC-ESI-QFT
Ms type: MS2
Ion mode: POSITIVE
Ionization: ESI
Fragmentation mode: HCD
Collision energy: 30 (nominal)
Resolution: 35000
Column name: XBridge C18 3.5um, 2.1x50mm, Waters
Retention time: 9.8 min
Base peak: 339.122
Precursor m/z: 339.1218
Precursor type: [M+H]+
m/z	relative intensity	assigned
72.0444	999	C3H6NO+
139.9898	3	C6H3ClNO+
167.0006	736	C7H4ClN2O+
176.0819	3	C9H10N3O+
177.0897	1	C9H11N3O+
194.0114	2	C8H5ClN3O+
210.9906	8	C8H4ClN2O3+
212.0584	30	C9H11ClN3O+
222.0795	2	C11H13ClN3+
256.0482	136	C10H11ClN3O3+
294.0638	8	C13H13ClN3O3+
295.1319	54	C14H20ClN4O+
339.1218	328	C15H20ClN4O3+
