Mass spectrum: Cetirizine N-Oxide; LC-ESI-QFT; MS2; CE: 45; R=35000; [M-H]-
Name: Cetirizine N-Oxide
Name: (R)-Cetirizine N-Oxide
Name: 2-[2-[4-[(4-chlorophenyl)-phenylmethyl]-1-oxidopiperazin-1-ium-1-yl]ethoxy]acetic acid
Formula: C21H25ClN2O4
Exact mass: 404.15028
SMILES: C1C[N+](CCN1C(C2=CC=CC=C2)C3=CC=C(C=C3)Cl)(CCOCC(=O)O)[O-]
InChI: InChI=1S/C21H25ClN2O4/c22-19-8-6-18(7-9-19)21(17-4-2-1-3-5-17)23-10-12-24(27,13-11-23)14-15-28-16-20(25)26/h1-9,21H,10-16H2,(H,25,26)
Instrument: Q Exactive Plus Orbitrap Thermo Scientific
Instrument type: LC-ESI-QFT
Ms type: MS2
Ion mode: NEGATIVE
Ionization: ESI
Fragmentation mode: HCD
Collision energy: 45 (nominal)
Resolution: 35000
Column name: XBridge C18 3.5um, 2.1x50mm, Waters
Retention time: 9.6 min
Base peak: 403.1428
Precursor m/z: 403.143
Precursor type: [M-H]-
m/z	relative intensity	assigned
55.0189	5	C3H3O-
57.0346	11	C3H5O-
58.006	18	C2H2O2-
59.0139	42	C2H3O2-
59.9853	10	CO3-
71.0139	4	C3H3O2-
72.9932	999	C2HO3-
75.0088	440	C2H3O3-
84.0454	2	C4H6NO-
89.0244	17	C3H5O3-
98.0247	4	C4H4NO2-
101.0244	280	C4H5O3-
102.0349	2	C7H4N-
103.0401	149	C4H7O3-
111.0007	2	C6H4Cl-
117.0194	17	C4H5O4-
118.0512	1	C4H8NO3-
118.0663	2	C8H8N-
119.035	5	C4H7O4-
184.0852	3	C8H12N2O3-
192.0821	4	C14H10N-
199.032	5	C13H8Cl-
201.0477	18	C13H10Cl-
228.0588	7	C14H11ClN-
242.0745	3	C15H13ClN-
