Mass spectrum: Niflumic acid; LC-ESI-QFT; MS2; CE: 45; R=35000; [M+H]+
Name: Niflumic acid
Name: 2-[3-(trifluoromethyl)anilino]pyridine-3-carboxylic acid
Formula: C13H9F3N2O2
Exact mass: 282.06161
SMILES: C1=CC(=CC(=C1)NC2=C(C=CC=N2)C(=O)O)C(F)(F)F
InChI: InChI=1S/C13H9F3N2O2/c14-13(15,16)8-3-1-4-9(7-8)18-11-10(12(19)20)5-2-6-17-11/h1-7H,(H,17,18)(H,19,20)
Instrument: Q Exactive Plus Orbitrap Thermo Scientific
Instrument type: LC-ESI-QFT
Ms type: MS2
Ion mode: POSITIVE
Ionization: ESI
Fragmentation mode: HCD
Collision energy: 45 (nominal)
Resolution: 35000
Column name: XBridge C18 3.5um, 2.1x50mm, Waters
Retention time: 12.7 min
Base peak: 283.0682
Precursor m/z: 283.0689
Precursor type: [M+H]+
m/z	relative intensity	assigned
196.0632	3	C12H8N2O+
217.0568	2	C12H7F2N2+
237.063	1	C12H8F3N2+
238.0481	1	C12H7F3NO+
245.0523	59	C13H7F2N2O+
263.0629	14	C13H9F2N2O2+
264.051	1	C13H7F3N2O+
265.0583	999	C13H8F3N2O+
266.0608	1	C11H8F2N4O2+
283.0689	90	C13H10F3N2O2+
