Mass spectrum: Dimethomorph; LC-ESI-ITFT; MS2; CE: 45%; R=15000; [M+H]+
Name: Dimethomorph
Name: (Z)-3-(4-chlorophenyl)-3-(3,4-dimethoxyphenyl)-1-(4-morpholinyl)-2-propen-1-one
Formula: C21H22ClNO4
Exact mass: 387.1237
SMILES: COC1=C(C=C(C=C1)/C(=C/C(=O)N2CCOCC2)/C3=CC=C(C=C3)Cl)OC
InChI: InChI=1S/C21H22ClNO4/c1-25-19-8-5-16(13-20(19)26-2)18(15-3-6-17(22)7-4-15)14-21(24)23-9-11-27-12-10-23/h3-8,13-14H,9-12H2,1-2H3/b18-14+
Instrument: LTQ Orbitrap XL Thermo Scientific
Instrument type: LC-ESI-ITFT
Ms type: MS2
Ion mode: POSITIVE
Ionization: ESI
Fragmentation mode: HCD
Collision energy: 45 % (nominal)
Resolution: 15000
Column name: XBridge C18 3.5um, 2.1x50mm, Waters
Retention time: 10.8 min
Base peak: 388.1318
Precursor m/z: 388.131
Precursor type: [M+H]+
m/z	relative intensity	assigned
70.0288	36	C3H4NO+
86.0601	1	C4H8NO+
114.055	71	C5H8NO2+
125.0152	11	C7H6Cl+
138.9946	135	C7H4ClO+
162.9947	1	C9H4ClO+
165.0547	584	C9H9O3+
195.08	1	C14H11O+
208.0526	1	C11H11ClNO+
210.1037	1	C15H14O+
215.0259	1	C13H8ClO+
223.0757	2	C12H14ClNO+
227.0259	1	C14H8ClO+
229.0408	1	C14H10ClO+
230.0497	1	C14H11ClO+
235.0765	1	C13H14ClNO+
238.0989	15	C16H14O2+
242.0493	19	C15H11ClO+
243.0208	3	C14H8ClO2+
243.0568	2	C15H12ClO+
256.0278	2	C15H9ClO2+
257.0363	4	C15H10ClO2+
258.0442	42	C15H11ClO2+
261.068	4	C15H14ClO2+
266.0938	14	C17H14O3+
269.0358	1	C16H10ClO2+
270.0441	16	C16H11ClO2+
271.0514	1	C16H12ClO2+
273.0677	213	C16H14ClO2+
285.032	1	C16H10ClO3+
286.0391	16	C16H11ClO3+
287.0467	1	C16H12ClO3+
301.0625	999	C17H14ClO3+
388.132	8	C21H23ClNO4+
390.1352	1	C20H23ClN2O4+
