Mass spectrum: Mebendazole; LC-ESI-QFT; MS2; CE: 180; R=35000; [M+H]+
Name: Mebendazole
Name: methyl N-(6-benzoyl-1H-benzimidazol-2-yl)carbamate
Formula: C16H13N3O3
Exact mass: 295.09569
SMILES: COC(=O)NC1=NC2=C(N1)C=C(C=C2)C(=O)C3=CC=CC=C3
InChI: InChI=1S/C16H13N3O3/c1-22-16(21)19-15-17-12-8-7-11(9-13(12)18-15)14(20)10-5-3-2-4-6-10/h2-9H,1H3,(H2,17,18,19,21)
Instrument: Q Exactive Plus Orbitrap Thermo Scientific
Instrument type: LC-ESI-QFT
Ms type: MS2
Ion mode: POSITIVE
Ionization: ESI
Fragmentation mode: HCD
Collision energy: 180 (nominal)
Resolution: 35000
Column name: XBridge C18 3.5um, 2.1x50mm, Waters
Retention time: 7.6 min
Base peak: 296.1024
Precursor m/z: 296.103
Precursor type: [M+H]+
m/z	relative intensity	assigned
50.0152	850	C4H2+
51.023	999	C4H3+
52.0183	77	C3H2N+
52.0308	16	C4H4+
53.0023	14	
53.0261	12	
53.0386	198	C4H5+
53.9975	9	C2NO+
54.0339	16	C3H4N+
55.0179	22	C3H3O+
55.029	2	C2H3N2+
61.0074	11	
62.0152	54	C5H2+
63.023	173	C5H3+
64.0182	89	C4H2N+
64.0308	21	C5H4+
65.0022	74	C4HO+
65.026	24	C4H3N+
65.0386	30	C5H5+
66.0101	15	C4H2O+
67.0417	37	C4H5N+
67.0543	3	C5H7+
68.0257	3	C4H4O+
68.0495	2	C4H6N+
69.0084	70	C2HN2O+
74.0151	11	C6H2+
75.0104	34	C5HN+
75.023	27	C6H3+
76.0182	533	C5H2N+
77.026	662	C5H3N+
77.0386	533	C6H5+
78.0339	320	C5H4N+
79.0417	17	C5H5N+
81.0336	28	C5H5O+
87.0229	13	C7H3+
88.0183	12	C6H2N+
89.0261	11	C6H3N+
89.0386	47	C7H5+
90.034	39	C6H4N+
91.0418	12	C6H5N+
91.0543	8	C7H7+
94.0288	5	C5H4NO+
94.0414	8	C6H6O+
95.0492	517	C6H7O+
96.0445	30	C5H6NO+
102.0338	2	C7H4N+
102.0465	7	C8H6+
103.0292	69	C6H3N2+
104.037	131	C6H4N2+
105.0448	575	C6H5N2+
113.0386	48	C9H5+
114.034	9	C8H4N+
115.0543	41	C9H7+
116.037	6	C7H4N2+
120.0318	1	C6H4N2O+
121.0399	15	C6H5N2O+
125.0388	2	C10H5+
126.0465	25	C10H6+
127.0543	9	C10H7+
128.0621	15	C10H8+
129.0448	8	C8H5N2+
130.0402	42	C7H4N3+
131.048	18	C7H5N3+
136.0269	16	C6H4N2O2+
137.0387	8	C11H5+
138.0467	3	C11H6+
139.0544	73	C11H7+
140.0496	48	C10H6N+
145.0649	2	C10H9O+
150.0465	7	C12H6+
153.0574	8	C11H7N+
155.0606	12	C10H7N2+
158.0348	1	C8H4N3O+
164.0497	17	C12H6N+
166.0655	3	C12H8N+
