Mass spectrum: Xipamide; LC-ESI-QFT; MS2; CE: 90%; R=15000; [M-H]-
Name: Xipamide
Name: 4-chloro-N-(2,6-dimethylphenyl)-2-hydroxy-5-sulfamoylbenzamide
Formula: C15H15ClN2O4S
Exact mass: 354.0441
SMILES: CC1=C(C(=CC=C1)C)NC(=O)C2=CC(=C(C=C2O)Cl)S(=O)(=O)N
InChI: InChI=1S/C15H15ClN2O4S/c1-8-4-3-5-9(2)14(8)18-15(20)10-6-13(23(17,21)22)11(16)7-12(10)19/h3-7,19H,1-2H3,(H,18,20)(H2,17,21,22)
Instrument: Orbitrap Exploris 240 Thermo Scientific
Instrument type: LC-ESI-QFT
Ms type: MS2
Ion mode: NEGATIVE
Ionization: ESI
Fragmentation mode: HCD
Collision energy: 90 % (nominal)
Resolution: 15000
Column name: Atlantis C18 3um, 3.0x150mm, Waters
Retention time: 17.859 min
Base peak: 353.0365
Precursor m/z: 353.0368
Precursor type: [M-H]-
Precursor intensity: 133348944
m/z	relative intensity	assigned
50.0036	13	C3N-
63.9624	24	O2S-
65.9984	16	C3NO-
66.0352	13	C4H4N-
76.0194	20	C5H2N-
77.9655	999	NO2S-
78.0348	94	C5H4N-
89.0032	15	C6HO-
91.0191	25	C6H3O-
94.0298	143	C5H4NO-
95.0144	44	C2H6ClNO-
104.0143	40	C6H2NO-
105.0218	114	C6H3NO-
120.0817	38	C8H10N-
122.0246	105	C6H4NO2-
125.9878	49	C6H3ClO-
126.9955	210	C6H4ClO-
132.0092	18	C7H2NO2-
141.9824	30	C6H3ClO2-
169.9908	23	C3H7ClN2O2S-
176.9659	13	C5H4ClNO2S-
