Mass spectrum: Betamethasone 21; LC-ESI-QFT; MS2; CE: 30; R=35000; [M+H]+
Name: Betamethasone 21
Name: [2-[(8S,9R,10S,11S,13S,14S,16S,17R)-9-fluoro-11,17-dihydroxy-10,13,16-trimethyl-3-oxo-6,7,8,11,12,14,15,16-octahydrocyclopenta[a]phenanthren-17-yl]-2-oxoethyl] acetate
Formula: C24H31FO6
Exact mass: 434.21047
SMILES: O=C(OCC(=O)[C@]3(O)[C@]2(C[C@H](O)[C@]4(F)[C@@]/1(\C(=C/C(=O)\C=C\1)CC[C@H]4[C@@H]2C[C@@H]3C)C)C)C
InChI: InChI=1S/C24H31FO6/c1-13-9-18-17-6-5-15-10-16(27)7-8-21(15,3)23(17,25)19(28)11-22(18,4)24(13,30)20(29)12-31-14(2)26/h7-8,10,13,17-19,28,30H,5-6,9,11-12H2,1-4H3/t13-,17-,18-,19-,21-,22-,23-,24-/m0/s1
Instrument: Q Exactive Orbitrap Thermo Scientific
Instrument type: LC-ESI-QFT
Ms type: MS2
Ion mode: POSITIVE
Ionization: ESI
Fragmentation mode: HCD
Collision energy: 30 (nominal)
Resolution: 35000
Column name: XBridge C18 3.5um, 2.1x50mm, Waters
Retention time: 10.5 min
Base peak: 435.2171
Precursor m/z: 435.2177
Precursor type: [M+H]+
m/z	relative intensity	assigned
59.0492	4	C3H7O+
61.0284	184	C2H5O2+
67.0543	18	C5H7+
69.0335	25	C4H5O+
69.0699	28	C5H9+
75.0441	6	C3H7O2+
79.0541	5	C6H7+
81.0698	24	C6H9+
83.0856	4	C6H11+
85.0648	8	C5H9O+
91.0541	10	C7H7+
93.0698	55	C7H9+
95.0491	28	C6H7O+
95.0854	85	C7H11+
97.0646	32	C6H9O+
101.0232	229	C4H5O3+
105.0698	34	C8H9+
107.0854	198	C8H11+
109.0648	46	C7H9O+
109.101	122	C8H13+
111.0439	5	C6H7O2+
111.0804	44	C7H11O+
113.0597	9	C6H9O2+
115.0751	37	C6H11O2+
117.0546	19	C5H9O3+
119.0854	123	C9H11+
121.0647	197	C8H9O+
121.1011	100	C9H13+
123.0801	80	C8H11O+
123.1166	25	C9H15+
125.0597	29	C7H9O2+
125.096	23	C8H13O+
127.0755	5	C7H11O2+
128.0615	7	C10H8+
131.0854	73	C10H11+
133.0647	40	C9H9O+
133.1011	117	C10H13+
135.0802	311	C9H11O+
137.0595	11	C8H9O2+
137.0959	110	C9H13O+
139.0752	26	C8H11O2+
139.1115	5	C9H15O+
143.0855	36	C11H11+
145.0646	58	C10H9O+
145.101	46	C11H13+
147.0803	999	C10H11O+
149.0959	205	C10H13O+
151.0753	72	C9H11O2+
151.1116	29	C10H15O+
153.0908	206	C9H13O2+
155.0697	5	C8H11O3+
155.0853	9	C12H11+
157.0646	6	C11H9O+
157.101	25	C12H13+
159.0802	326	C11H11O+
161.0958	258	C11H13O+
163.0751	34	C10H11O2+
163.1115	31	C11H15O+
165.091	23	C10H13O2+
167.1063	124	C10H15O2+
169.0645	37	C12H9O+
169.0855	5	C9H13O3+
169.1006	8	C13H13+
171.0801	491	C12H11O+
172.0879	6	C12H12O+
173.0959	363	C12H13O+
175.075	27	C11H11O2+
175.1115	29	C12H15O+
177.0906	123	C11H13O2+
179.0852	8	C14H11+
179.1067	9	C11H15O2+
183.0804	29	C13H11O+
183.1169	9	C14H15+
185.0959	344	C13H13O+
187.075	197	C12H11O2+
187.1115	109	C13H15O+
189.0907	46	C12H13O2+
191.1062	6	C12H15O2+
193.0859	8	C11H13O3+
195.08	21	C14H11O+
195.1011	50	C11H15O3+
195.1163	5	C15H15+
196.0879	8	C14H12O+
197.0957	188	C14H13O+
198.1037	6	C14H14O+
199.0748	25	C13H11O2+
199.1112	106	C14H15O+
201.0907	30	C13H13O2+
201.127	24	C14H17O+
203.1063	38	C13H15O2+
207.1171	8	C16H15+
209.0958	116	C15H13O+
209.1169	9	C12H17O3+
209.1321	22	C16H17+
210.1034	18	C15H14O+
211.1114	297	C15H15O+
212.1194	39	C15H16O+
213.0907	18	C14H13O2+
213.127	153	C15H17O+
215.1064	115	C14H15O2+
219.1168	30	C17H15+
221.0958	105	C16H13O+
221.1319	10	C17H17+
222.1038	54	C16H14O+
223.1114	197	C16H15O+
224.119	20	C16H16O+
225.0909	24	C15H13O2+
225.127	177	C16H17O+
227.1064	19	C15H15O2+
227.1426	286	C16H19O+
229.1221	5	C15H17O2+
231.117	8	C18H15+
233.096	17	C17H13O+
233.1322	8	C18H17+
234.1036	19	C17H14O+
235.1113	266	C17H15O+
236.1194	9	C17H16O+
237.1269	617	C17H17O+
238.135	6	C17H18O+
239.1062	78	C16H15O2+
239.1426	221	C17H19O+
241.1218	54	C16H17O2+
245.1321	7	C19H17+
246.1031	9	C18H14O+
247.1114	21	C18H15O+
247.1473	19	C19H19+
248.1187	35	C18H16O+
249.127	194	C18H17O+
249.1633	25	C19H21+
250.1351	4	C18H18O+
251.1062	30	C17H15O2+
251.1426	154	C18H19O+
252.1501	8	C18H20O+
253.1218	97	C17H17O2+
253.1582	206	C18H21O+
255.1375	72	C17H19O2+
257.1324	20	C20H17+
259.1112	33	C19H15O+
259.148	28	C20H19+
260.1187	23	C19H16O+
261.1268	106	C19H17O+
262.1349	61	C19H18O+
263.106	37	C18H15O2+
263.1426	283	C19H19O+
264.1141	6	C18H16O2+
264.1504	9	C19H20O+
265.1215	17	C18H17O2+
265.158	75	C19H21O+
267.1375	97	C18H19O2+
267.1738	71	C19H23O+
272.1189	38	C20H16O+
273.1271	32	C20H17O+
273.1635	57	C21H21+
275.1424	196	C20H19O+
276.1139	5	C19H16O2+
276.1505	105	C20H20O+
277.1228	52	C19H17O2+
277.1583	498	C20H21O+
278.1661	144	C20H22O+
279.1391	45	C16H20FO3+
279.1739	725	C20H23O+
281.1175	6	C18H17O3+
281.1538	37	C19H21O2+
281.1895	79	C20H25O+
283.1471	7	C22H19+
286.1348	84	C21H18O+
289.1219	5	C20H17O2+
289.1583	88	C21H21O+
290.1292	21	C20H18O2+
291.1739	937	C21H23O+
293.1529	77	C20H21O2+
294.1603	10	C20H22O2+
295.1328	27	C19H19O3+
295.1689	190	C20H23O2+
296.1773	5	C20H24O2+
297.1846	41	C20H25O2+
301.1583	497	C22H21O+
304.1457	43	C21H20O2+
306.1609	29	C21H22O2+
307.1688	82	C21H23O2+
309.1844	315	C21H25O2+
311.1639	103	C20H23O3+
313.1793	9	C20H25O3+
319.1689	702	C22H23O2+
325.1794	42	C21H25O3+
327.1947	46	C21H27O3+
337.1794	457	C22H25O3+
351.1956	9	C23H27O3+
353.1739	32	C22H25O4+
355.19	118	C22H27O4+
357.1859	17	C22H26FO3+
361.1795	19	C24H25O3+
379.1896	63	C24H27O4+
397.2006	106	C24H29O5+
