Mass spectrum: Flecainide; LC-ESI-QFT; MS2; CE: 60; R=35000; [M-H]-
Name: Flecainide
Name: N-(2-piperidinylmethyl)-2,5-bis(2,2,2-trifluoroethoxy)benzamide
Formula: C17H20F6N2O3
Exact mass: 414.13781
SMILES: C1CCNC(C1)CNC(=O)C2=C(C=CC(=C2)OCC(F)(F)F)OCC(F)(F)F
InChI: InChI=1S/C17H20F6N2O3/c18-16(19,20)9-27-12-4-5-14(28-10-17(21,22)23)13(7-12)15(26)25-8-11-3-1-2-6-24-11/h4-5,7,11,24H,1-3,6,8-10H2,(H,25,26)
Instrument: Q Exactive Orbitrap Thermo Scientific
Instrument type: LC-ESI-QFT
Ms type: MS2
Ion mode: NEGATIVE
Ionization: ESI
Fragmentation mode: HCD
Collision energy: 60 (nominal)
Resolution: 35000
Column name: XBridge C18 3.5um, 2.1x50mm, Waters
Retention time: 6.6 min
Base peak: 459.1364
Precursor m/z: 413.1305
Precursor type: [M-H]-
m/z	relative intensity	assigned
58.0098	23	C2HFN-
58.994	1	C2FO-
65.9985	14	C3NO-
68.9957	12	CF3-
69.0346	121	C4H5O-
75.0241	1	C6H3-
79.0001	10	C2HF2O-
79.019	3	C5H3O-
81.0347	8	C5H5O-
89.0035	1	C6HO-
91.0191	1	C6H3O-
95.0138	10	C5H3O2-
97.0296	83	C5H5O2-
98.0174	14	C5H3FO-
102.035	1	C7H4N-
103.019	15	C7H3O-
106.006	6	C6H2O2-
106.0426	2	C7H6O-
107.0139	44	C6H3O2-
107.0615	6	C6H7N2-
108.0217	117	C6H4O2-
109.0297	16	C6H5O2-
110.0171	2	C6H3FO-
116.0145	10	C7H2NO-
117.022	7	C7H3NO-
118.03	29	C7H4NO-
120.0092	2	C6H2NO2-
120.0456	1	C7H6NO-
121.0296	24	C7H5O2-
122.0173	1	C7H3FO-
123.0089	21	C6H3O3-
125.0244	269	C6H5O3-
126.0122	11	C6H3FO2-
130.0299	24	C8H4NO-
131.014	15	C8H3O2-
131.0377	33	C8H5NO-
132.0217	22	C8H4O2-
133.017	75	C7H3NO2-
134.0247	6	C7H4NO2-
135.0089	213	C7H3O3-
136.0166	24	C7H4O3-
137.072	9	C7H9N2O-
138.0122	6	C7H3FO2-
139.02	2	C7H4FO2-
139.0877	24	C7H11N2O-
142.0298	15	C9H4NO-
144.0093	2	C8H2NO2-
144.0455	3	C9H6NO-
145.0096	19	C9H2FO-
145.0167	2	C8H3NO2-
145.0297	2	C9H5O2-
146.0248	361	C8H4NO2-
147.0326	3	C8H5NO2-
147.0453	1	C9H7O2-
148.0165	2	C8H4O3-
148.0406	6	C8H6NO2-
149.0045	2	C8H2FO2-
150.0122	22	C8H3FO2-
150.0322	2	C8H6O3-
151.0201	22	C8H4FO2-
151.0274	20	C7H5NO3-
152.0284	4	C8H5FO2-
152.0354	15	C7H6NO3-
154.0073	16	C7H3FO3-
154.0298	3	C10H4NO-
158.0247	11	C9H4NO2-
158.0616	1	C10H8NO-
159.0326	632	C9H5NO2-
160.0164	42	C9H4O3-
160.0404	61	C9H6NO2-
161.0054	2	C6H3F2O3-
161.0117	12	C8H3NO3-
161.0245	23	C9H5O3-
161.0718	2	C9H9N2O-
162.0197	6	C8H4NO3-
162.0361	16	C9H5FNO-
163.0276	6	C8H5NO3-
164.0155	70	C8H3FNO2-
164.0354	4	C8H6NO3-
165.0158	2	C9H3F2O-
165.043	2	C8H7NO3-
166.0069	1	C8H3FO3-
170.0249	3	C10H4NO2-
170.0611	9	C11H8NO-
171.0567	5	C10H7N2O-
172.0405	44	C10H6NO2-
173.0044	8	C10H2FO2-
173.0119	25	C9H3NO3-
173.0483	15	C10H7NO2-
174.0196	126	C9H4NO3-
175.0205	3	C10H4FO2-
175.0273	18	C9H5NO3-
176.0152	3	C9H3FNO2-
176.0351	9	C9H6NO3-
176.9994	20	C9H2FO3-
178.031	3	C9H5FNO2-
178.0508	6	C9H8NO3-
179.0827	183	C9H11N2O2-
181.011	3	C9H3F2O2-
183.0559	2	C3H8F5N2O-
184.0404	20	C11H6NO2-
185.0357	54	C10H5N2O2-
186.0198	63	C10H4NO3-
186.0435	33	C10H6N2O2-
186.056	52	C11H8NO2-
187.0148	39	C9H3N2O3-
187.0275	32	C10H5NO3-
187.0514	8	C10H7N2O2-
188.0157	2	C10H3FNO2-
188.0354	23	C10H6NO3-
189.0429	2	C10H7NO3-
190.0672	1	C11H9FNO-
192.0104	999	C9H3FNO3-
193.0103	13	C10H3F2O2-
193.0184	5	C9H4FNO3-
194.0257	3	C9H5FNO3-
197.0056	2	C9H3F2O3-
197.0481	18	C4H8F5NO2-
198.0436	7	C11H6N2O2-
198.0561	13	C12H8NO2-
198.0925	6	C13H12NO-
199.0513	24	C11H7N2O2-
199.0639	6	C12H9NO2-
199.0885	2	C9H12FN2O2-
200.0353	9	C11H6NO3-
200.0718	64	C12H10NO2-
202.0069	17	C11H3FO3-
202.031	16	C11H5FNO2-
202.0505	2	C11H8NO3-
202.0877	3	C12H12NO2-
203.0151	1	C11H4FO3-
206.0259	59	C10H5FNO3-
207.0336	3	C10H6FNO3-
212.0357	2	C12H6NO3-
212.0608	2	C9H9FN2O3-
212.0717	29	C13H10NO2-
213.0306	62	C11H5N2O3-
213.067	19	C12H9N2O2-
213.1034	5	C13H13N2O-
214.0385	22	C11H6N2O3-
214.0507	6	C4H9F5NO3-
214.0871	12	C13H12NO2-
215.0027	3	C11H2FNO3-
215.0461	14	C3H8F5N2O3-
215.0954	3	C13H13NO2-
216.0103	3	C11H3FNO3-
216.0544	3	C11H8N2O3-
216.0662	3	C12H10NO3-
218.0821	2	C12H12NO3-
223.0512	6	C5H8F5N2O2-
223.0875	8	C6H12F5N2O-
224.0592	23	C13H8N2O2-
224.0705	3	C9H10F4NO-
225.1036	8	C14H13N2O-
226.0501	3	C8H8F4NO2-
227.0465	53	C12H7N2O3-
227.0589	7	C13H9NO3-
228.0669	15	C13H10NO3-
228.0904	8	C13H12N2O2-
230.0257	3	C4H6F6NO3-
230.082	16	C13H12NO3-
231.0906	3	C13H13NO3-
233.9976	8	C12F4N-
235.0087	14	C11H3F2NO3-
237.0668	6	C6H10F5N2O2-
238.075	7	C14H10N2O2-
240.0542	8	C13H8N2O3-
241.0623	19	C13H9N2O3-
241.0983	178	C14H13N2O2-
242.07	5	C13H10N2O3-
242.0825	10	C14H12NO3-
243.0898	13	C14H13NO3-
250.02	2	C11H4F2N2O3-
250.0324	2	C12H6F2NO3-
251.083	23	C15H11N2O2-
252.0906	16	C15H12N2O2-
253.0982	33	C15H13N2O2-
255.0778	5	C14H11N2O3-
256.0229	3	C11H5F3NO3-
257.0934	1	C14H13N2O3-
265.0982	9	C16H13N2O2-
269.0933	299	C15H13N2O3-
270.1012	801	C15H14N2O3-
273.1048	17	C15H14FN2O2-
285.1051	6	C16H14FN2O2-
289.0999	17	C15H14FN2O3-
290.1073	25	C15H15FN2O3-
293.0925	3	C9H14F5N2O3-
310.1136	5	C15H16F2N2O3-
313.0995	3	C17H14FN2O3-
333.1058	7	C17H15F2N2O3-
