Mass spectrum: Aspartame; LC-ESI-ITFT; MS2; CE: 15%; R=15000; [M+H]+
Name: Aspartame
Name: 3-amino-4-[(1-benzyl-2-keto-2-methoxy-ethyl)amino]-4-keto-butyric acid
Formula: C14H18N2O5
Exact mass: 294.1216
SMILES: COC(=O)C(CC1=CC=CC=C1)NC(=O)C(CC(=O)O)N
InChI: InChI=1S/C14H18N2O5/c1-21-14(20)11(7-9-5-3-2-4-6-9)16-13(19)10(15)8-12(17)18/h2-6,10-11H,7-8,15H2,1H3,(H,16,19)(H,17,18)/t10-,11-/m0/s1
Instrument: LTQ Orbitrap XL Thermo Scientific
Instrument type: LC-ESI-ITFT
Ms type: MS2
Ion mode: POSITIVE
Ionization: ESI
Fragmentation mode: HCD
Collision energy: 15 % (nominal)
Resolution: 15000
Column name: XBridge C18 3.5um, 2.1x50mm, Waters
Retention time: 4.8 min
Base peak: 295.1297
Precursor m/z: 295.1288
Precursor type: [M+H]+
m/z	relative intensity	assigned
70.0288	3	C3H4NO+
88.039	5	C3H6NO2+
120.0808	76	C8H10N+
163.0756	5	C10H11O2+
175.0866	34	C10H11N2O+
180.102	242	C10H14NO2+
189.1024	4	C11H13N2O+
190.086	3	C11H12NO2+
200.0706	34	C12H10NO2+
203.0815	6	C11H11N2O2+
217.0972	27	C12H13N2O2+
218.0818	5	C12H12NO3+
228.0658	15	C13H10NO3+
235.1078	387	C12H15N2O3+
245.092	117	C13H13N2O3+
246.0759	3	C13H12NO4+
249.1226	4	C13H17N2O3+
260.0918	128	C14H14NO4+
263.1026	74	C13H15N2O4+
277.1183	303	C14H17N2O4+
278.1023	10	C14H16NO5+
295.1292	999	C14H19N2O5+
