Mass spectrum: N-Bisdesmethyl Tramadol; LC-ESI-QFT; MS2; CE: 45; R=35000; [M+H]+
Name: N-Bisdesmethyl Tramadol
Name: 2-(aminomethyl)-1-(3-methoxyphenyl)cyclohexan-1-ol
Formula: C14H21NO2
Exact mass: 235.15723
SMILES: COC1=CC=CC(=C1)C2(CCCCC2CN)O
InChI: InChI=1S/C14H21NO2/c1-17-13-7-4-6-11(9-13)14(16)8-3-2-5-12(14)10-15/h4,6-7,9,12,16H,2-3,5,8,10,15H2,1H3
Instrument: Q Exactive Plus Orbitrap Thermo Scientific
Instrument type: LC-ESI-QFT
Ms type: MS2
Ion mode: POSITIVE
Ionization: ESI
Fragmentation mode: HCD
Collision energy: 45 (nominal)
Resolution: 35000
Column name: XBridge C18 3.5um, 2.1x50mm, Waters
Retention time: 5.2 min
Base peak: 236.1644
Precursor m/z: 236.1645
Precursor type: [M+H]+
m/z	relative intensity	assigned
67.0542	5	C5H7+
78.0462	1	C6H6+
79.0541	6	C6H7+
81.0699	128	C6H9+
91.0542	5	C7H7+
93.0698	6	C7H9+
109.0647	4	C7H9O+
121.0648	994	C8H9O+
135.0803	1	C9H11O+
147.0804	19	C10H11O+
157.1014	1	C12H13+
159.0803	13	C11H11O+
160.0889	1	C11H12O+
173.096	5	C12H13O+
187.1116	2	C13H15O+
189.1274	999	C13H17O+
201.1274	13	C14H17O+
