Mass spectrum: Diaveridine; LC-ESI-QFT; MS2; CE: 60; R=35000; [M+H]+
Name: Diaveridine
Name: 5-[(3,4-dimethoxyphenyl)methyl]pyrimidine-2,4-diamine
Formula: C13H16N4O2
Exact mass: 260.12733
SMILES: COC1=C(C=C(C=C1)CC2=CN=C(N=C2N)N)OC
InChI: InChI=1S/C13H16N4O2/c1-18-10-4-3-8(6-11(10)19-2)5-9-7-16-13(15)17-12(9)14/h3-4,6-7H,5H2,1-2H3,(H4,14,15,16,17)
Instrument: Q Exactive Plus Orbitrap Thermo Scientific
Instrument type: LC-ESI-QFT
Ms type: MS2
Ion mode: POSITIVE
Ionization: ESI
Fragmentation mode: HCD
Collision energy: 60 (nominal)
Resolution: 35000
Column name: XBridge C18 3.5um, 2.1x50mm, Waters
Retention time: 3.4 min
Base peak: 261.1339
Precursor m/z: 261.1346
Precursor type: [M+H]+
m/z	relative intensity	assigned
54.0338	3	C3H4N+
81.0447	110	C4H5N2+
106.0398	4	C5H4N3+
107.0491	6	C7H7O+
110.0586	11	C4H6N4+
111.0666	4	C4H7N4+
123.0665	540	C5H7N4+
124.0744	3	C5H8N4+
135.044	4	C8H7O2+
151.0754	10	C9H11O2+
158.0597	1	C10H8NO+
161.082	1	C8H9N4+
171.0678	6	C11H9NO+
173.0822	2	C9H9N4+
175.0752	1	C11H11O2+
187.0627	1	C11H9NO2+
187.0978	8	C10H11N4+
188.1057	9	C10H12N4+
199.0983	1	C11H11N4+
200.0821	3	C11H10N3O+
200.1054	9	C11H12N4+
202.086	5	C12H12NO2+
203.0822	1	C11H11N2O2+
203.0925	11	C10H11N4O+
212.082	1	C12H10N3O+
215.0928	13	C11H11N4O+
216.1006	50	C11H12N4O+
217.1085	159	C11H13N4O+
227.0928	1	C12H11N4O+
228.0772	4	C12H10N3O2+
229.0844	1	C12H11N3O2+
229.1084	8	C12H13N4O+
230.1167	1	C12H14N4O+
231.0877	16	C11H11N4O2+
232.096	2	C11H12N4O2+
243.0877	9	C12H11N4O2+
245.1033	999	C12H13N4O2+
246.1111	32	C12H14N4O2+
261.1346	46	C13H17N4O2+
