Mass spectrum: Propyzamide; LC-ESI-QFT; MS2; CE: 90; R=35000; [M-H]-
Name: Propyzamide
Name: 3,5-bis(chloranyl)-N-(2-methylbut-3-yn-2-yl)benzamide
Name: Promamide
Formula: C12H11Cl2NO
Exact mass: 255.02177
SMILES: Clc1cc(C(=O)NC(C#C)(C)C)cc(Cl)c1
InChI: InChI=1S/C12H11Cl2NO/c1-4-12(2,3)15-11(16)8-5-9(13)7-10(14)6-8/h1,5-7H,2-3H3,(H,15,16)
Instrument: Q Exactive Orbitrap Thermo Scientific
Instrument type: LC-ESI-QFT
Ms type: MS2
Ion mode: NEGATIVE
Ionization: ESI
Fragmentation mode: HCD
Collision energy: 90 (nominal)
Resolution: 35000
Column name: XBridge C18 3.5um, 2.1x50mm, Waters
Retention time: 10.9 min
Base peak: 218.0312
Precursor m/z: 254.0145
Precursor type: [M-H]-
m/z	relative intensity	assigned
65.0396	14	C5H5-
97.0659	22	C6H9O-
129.9945	60	CH6Cl2N3-
137.0606	19	C8H9O2-
144.9616	66	C6H3Cl2-
145.9894	999	CH6Cl2N3O-
146.9858	517	C2H7Cl2NO2-
147.9845	18	C6H6Cl2-
171.9859	174	C8H6Cl2-
