Mass spectrum: Pyridate; LC-ESI-QFT; MS2; CE: 150; R=35000; [M+H]+
Name: Pyridate
Name: Pyridat
Name: (6-chloro-3-phenylpyridazin-4-yl) octylsulfanylformate
Formula: C19H23ClN2O2S
Exact mass: 378.11688
SMILES: O=C(SCCCCCCCC)Oc2cc(Cl)nnc2c1ccccc1
InChI: InChI=1S/C19H23ClN2O2S/c1-2-3-4-5-6-10-13-25-19(23)24-16-14-17(20)21-22-18(16)15-11-8-7-9-12-15/h7-9,11-12,14H,2-6,10,13H2,1H3
Instrument: Q Exactive Plus Orbitrap Thermo Scientific
Instrument type: LC-ESI-QFT
Ms type: MS2
Ion mode: POSITIVE
Ionization: ESI
Fragmentation mode: HCD
Collision energy: 150 (nominal)
Resolution: 35000
Column name: XBridge C18 3.5um, 2.1x50mm, Waters
Retention time: 18.1 min
Base peak: 379.1241
Precursor m/z: 379.1242
Precursor type: [M+H]+
m/z	relative intensity	assigned
50.0152	173	C4H2+
51.023	477	C4H3+
52.0183	2	C3H2N+
52.0308	3	C4H4+
53.0023	48	C3HO+
53.0386	136	C4H5+
53.9975	18	C2NO+
54.0099	1	C3H2O+
55.0179	8	C3H3O+
55.0543	15	C4H7+
57.07	7	C4H9+
60.9841	2	C2H2Cl+
61.9793	207	CHClN+
62.9633	16	CClO+
63.023	19	C5H3+
65.0022	12	C4HO+
65.0386	25	C5H5+
66.01	2	C4H2O+
66.0465	2	C5H6+
67.0053	1	C3HNO+
67.0543	1	C5H7+
68.0131	999	C3H2NO+
68.9971	1	C3HO2+
72.9839	4	C3H2Cl+
73.9793	6	C2HClN+
74.0151	59	C6H2+
75.023	16	C6H3+
75.9949	6	C2H3ClN+
76.0308	54	C6H4+
77.0386	280	C6H5+
78.0088	2	C3N3+
78.0463	2	C6H6+
81.0336	14	C5H5O+
81.0699	1	C6H9+
85.9793	2	C3HClN+
86.0151	7	C7H2+
86.9633	11	C3ClO+
87.023	12	C7H3+
89.0386	49	C7H5+
90.0465	10	C7H6+
91.0543	3	C7H7+
94.0414	13	C6H6O+
95.0492	433	C6H7O+
98.0152	44	C8H2+
99.0231	6	C8H3+
100.0308	24	C8H4+
102.0338	2	C7H4N+
103.9897	6	C3H3ClNO+
104.0495	52	C7H6N+
105.0448	250	C6H5N2+
111.0231	2	C9H3+
115.0543	40	C9H7+
116.0496	3	C8H6N+
117.0574	7	C8H7N+
125.0155	2	C7H6Cl+
125.0385	2	C10H5+
126.0465	202	C10H6+
130.0402	3	C7H4N3+
