Mass spectrum: Chinomethionat; LC-ESI-QFT; MS2; CE: 120%; R=17500; [M+H]+
Name: Chinomethionat
Name: 6-methyl-[1,3]dithiolo[4,5-b]quinoxalin-2-one
Formula: C10H6N2OS2
Exact mass: 233.9922
SMILES: CC1=CC2=C(C=C1)N=C3C(=N2)SC(=O)S3
InChI: InChI=1S/C10H6N2OS2/c1-5-2-3-6-7(4-5)12-9-8(11-6)14-10(13)15-9/h2-4H,1H3
Instrument: Exploris 240 Orbitrap Thermo Scientific
Instrument type: LC-ESI-QFT
Ms type: MS2
Ion mode: POSITIVE
Ionization: ESI
Fragmentation mode: HCD
Collision energy: 120 % (nominal)
Resolution: 17500
Column name: XBridge C18 3.5um, 2.1x50mm, Waters
Retention time: 12.419 min
Base peak: 234.9995
Precursor m/z: 234.9994
Precursor type: [M+H]+
m/z	relative intensity	assigned
51.0231	34	C4H3+
53.0386	75	C4H5+
63.0232	30	C5H3+
65.0385	41	C5H5+
68.9795	29	C3HS+
77.0385	436	C6H5+
78.0339	84	C5H4N+
78.0464	259	C6H6+
89.0386	232	C7H5+
90.0465	63	C7H6+
91.0545	68	C7H7+
92.0497	93	C6H6N+
95.0492	185	C6H7O+
104.0496	430	C7H6N+
105.0448	198	C6H5N2+
105.0577	25	C7H7N+
109.0106	119	C6H5S+
116.0496	124	C8H6N+
117.0576	36	C8H7N+
121.0109	203	C7H5S+
129.0449	35	C8H5N2+
136.0216	999	C7H6NS+
148.0219	145	C8H6NS+
149.0295	67	C8H7NS+
163.0325	523	C8H7N2S+
