Mass spectrum: Aminopyrine; LC-ESI-ITFT; MS2; CE: 45%; R=7500; [M+H]+
Name: Aminopyrine
Name: 4-(dimethylamino)-1,5-dimethyl-2-phenyl-3-pyrazolin-3-one
Formula: C13H17N3O
Exact mass: 231.1372
SMILES: c(ccc1N(N(C=2C)C)C(=O)C2N(C)C)cc1
InChI: InChI=1S/C13H17N3O/c1-10-12(14(2)3)13(17)16(15(10)4)11-8-6-5-7-9-11/h5-9H,1-4H3
Instrument: LTQ Orbitrap XL Thermo Scientific
Instrument type: LC-ESI-ITFT
Ms type: MS2
Ion mode: POSITIVE
Ionization: ESI
Fragmentation mode: HCD
Collision energy: 45 % (nominal)
Resolution: 7500
Column name: XBridge C18 3.5um, 2.1x50mm, Waters
Retention time: 2.6 min
Base peak: 232.1453
Precursor m/z: 232.1444
Precursor type: [M+H]+
m/z	relative intensity	assigned
56.0495	201	C3H6N+
58.0652	282	C3H8N+
68.0497	6	C4H6N+
70.0652	340	C4H8N+
72.0808	280	C4H10N+
82.0652	52	C5H8N+
84.0681	10	C4H8N2+
84.0808	81	C5H10N+
87.0917	17	C4H11N2+
97.0761	622	C5H9N2+
98.0839	465	C5H10N2+
99.0917	106	C5H11N2+
106.0652	74	C7H8N+
111.0918	568	C6H11N2+
113.1074	999	C6H13N2+
118.0652	57	C8H8N+
132.0444	23	C8H6NO+
133.0759	12	C8H9N2+
149.1073	38	C9H13N2+
159.0919	70	C10H11N2+
175.0863	13	C10H11N2O+
177.1022	98	C10H13N2O+
187.0861	25	C11H11N2O+
188.0945	14	C11H12N2O+
216.113	11	C12H14N3O+
217.1215	27	C12H15N3O+
232.1438	69	C13H18N3O+
