Mass spectrum: Nilotinib; LC-ESI-QFT; MS2; CE: 150; R=35000; [M-H]-
Name: Nilotinib
Name: 4-methyl-N-(3-(4-methylimidazol-1-yl)-5-(trifluoromethyl)phenyl)-3-((4-pyridin-3-ylpyrimidin-2-yl)amino)benzamide
Formula: C28H22F3N7O
Exact mass: 529.18379
SMILES: CC1=C(C=C(C=C1)C(=O)NC2=CC(=CC(=C2)N3C=C(N=C3)C)C(F)(F)F)NC4=NC=CC(=N4)C5=CN=CC=C5
InChI: InChI=1S/C28H22F3N7O/c1-17-5-6-19(10-25(17)37-27-33-9-7-24(36-27)20-4-3-8-32-14-20)26(39)35-22-11-21(28(29,30)31)12-23(13-22)38-15-18(2)34-16-38/h3-16H,1-2H3,(H,35,39)(H,33,36,37)
Instrument: Q Exactive Plus Orbitrap Thermo Scientific
Instrument type: LC-ESI-QFT
Ms type: MS2
Ion mode: NEGATIVE
Ionization: ESI
Fragmentation mode: HCD
Collision energy: 150 (nominal)
Resolution: 35000
Column name: XBridge C18 3.5um, 2.1x50mm, Waters
Retention time: 8.5 min
Base peak: 528.1775
Precursor m/z: 528.1765
Precursor type: [M-H]-
m/z	relative intensity	assigned
50.0036	247	C3N-
52.0192	28	C3H2N-
64.0067	88	C3N2-
64.0192	49	C4H2N-
65.0145	404	C3HN2-
65.9985	64	C3NO-
67.0301	56	C3H3N2-
68.9958	96	CF3-
74.0038	142	C5N-
79.0302	67	C4H3N2-
81.0458	999	C4H5N2-
86.0036	15	C6N-
90.0349	11	C6H4N-
92.0254	83	C4H2N3-
92.9956	15	C3F3-
98.0036	231	C7N-
105.0456	18	CH4FN5-
110.0036	27	C8N-
112.0066	47	C7N2-
115.0302	14	C7H3N2-
118.0098	16	C7HFN-
136.0066	49	C9N2-
138.016	12	C7H2F2N-
140.0254	19	C8H2N3-
141.0458	13	C9H5N2-
143.0051	15	C8FN2-
152.038	13	C10H4N2-
153.0459	16	C10H5N2-
