Mass spectrum: Nilotinib; LC-ESI-QFT; MS2; CE: 180; R=35000; [M+H]+
Name: Nilotinib
Name: 4-methyl-N-(3-(4-methylimidazol-1-yl)-5-(trifluoromethyl)phenyl)-3-((4-pyridin-3-ylpyrimidin-2-yl)amino)benzamide
Formula: C28H22F3N7O
Exact mass: 529.18379
SMILES: CC1=C(C=C(C=C1)C(=O)NC2=CC(=CC(=C2)N3C=C(N=C3)C)C(F)(F)F)NC4=NC=CC(=N4)C5=CN=CC=C5
InChI: InChI=1S/C28H22F3N7O/c1-17-5-6-19(10-25(17)37-27-33-9-7-24(36-27)20-4-3-8-32-14-20)26(39)35-22-11-21(28(29,30)31)12-23(13-22)38-15-18(2)34-16-38/h3-16H,1-2H3,(H,35,39)(H,33,36,37)
Instrument: Q Exactive Plus Orbitrap Thermo Scientific
Instrument type: LC-ESI-QFT
Ms type: MS2
Ion mode: POSITIVE
Ionization: ESI
Fragmentation mode: HCD
Collision energy: 180 (nominal)
Resolution: 35000
Column name: XBridge C18 3.5um, 2.1x50mm, Waters
Retention time: 8.2 min
Base peak: 530.1902
Precursor m/z: 530.1911
Precursor type: [M+H]+
m/z	relative intensity	assigned
50.0151	628	C4H2+
51.0229	467	C4H3+
52.0182	77	C3H2N+
52.0307	22	C4H4+
53.0022	52	C3HO+
53.0135	24	C2HN2+
53.0386	182	C4H5+
54.0338	82	C3H4N+
55.0179	19	C3H3O+
55.0416	7	C3H5N+
56.0495	50	C3H6N+
57.0135	103	C3H2F+
61.0072	85	C5H+
62.0151	395	C5H2+
63.0229	999	C5H3+
64.0182	89	C4H2N+
64.0307	51	C5H4+
65.0022	59	C4HO+
65.026	56	C4H3N+
65.0386	316	C5H5+
66.0464	54	C5H6+
67.0417	18	C4H5N+
67.0542	3	C5H7+
68.0495	5	C4H6N+
68.9946	55	CF3+
74.0151	255	C6H2+
75.004	119	C3HF2+
75.0229	880	C6H3+
76.0181	377	C5H2N+
76.0307	175	C6H4+
77.0385	344	CH4FN3+
78.0338	536	C5H4N+
78.0464	31	C6H6+
79.0416	109	C5H5N+
79.0542	21	C6H7+
80.0368	5	C4H4N2+
80.0494	30	C5H6N+
81.0135	92	C5H2F+
81.0335	55	C5H5O+
81.0447	63	C4H5N2+
82.0212	5	F2H2N3+
82.0525	3	C4H6N2+
83.029	38	F2H3N3+
83.0603	7	C4H7N2+
86.015	58	C7H2+
87.0103	24	C6HN+
87.0229	150	C7H3+
88.0122	24	C4H2F2+
88.0182	168	C6H2N+
88.0307	145	C7H4+
89.026	57	C6H3N+
89.0386	705	C7H5+
90.0339	127	C6H4N+
90.0464	112	C7H6+
91.0416	80	C6H5N+
91.0542	113	C7H7+
92.0368	7	C5H4N2+
92.0494	56	C6H6N+
93.0135	31	C6H2F+
93.0448	3	C5H5N2+
93.0573	5	C6H7N+
94.0413	16	C6H6O+
95.0491	511	C6H7O+
96.0372	28	C6H5F+
96.0443	493	C5H6NO+
98.0151	40	C8H2+
99.0041	44	C5HF2+
99.0229	84	C8H3+
100.0181	126	C7H2N+
101.0198	30	C5H3F2+
101.0261	13	C7H3N+
101.0386	29	C8H5+
102.0338	315	C7H4N+
102.0463	83	C8H6+
103.029	44	C6H3N2+
103.0416	80	C7H5N+
103.0543	7	C8H7+
104.0494	383	C7H6N+
105.0447	403	C6H5N2+
106.0651	31	C7H8N+
107.0291	58	C7H4F+
108.0244	17	C6H3FN+
109.0447	16	C7H6F+
110.0601	12	C6H8NO+
111.0043	6	C6HF2+
111.0232	6	C9H3+
111.0315	38	C5H5NO2+
112.0119	21	C6H2F2+
113.0196	28	CH2F3N3+
113.0386	95	C9H5+
114.0338	277	C8H4N+
114.0463	24	C4H5FN3+
115.0416	110	C8H5N+
115.0542	52	C9H7+
116.0369	39	C7H4N2+
116.0495	98	C8H6N+
117.0448	13	C7H5N2+
117.0572	118	C8H7N+
118.0524	32	C2H5FN5+
118.0651	21	C8H8N+
119.0491	17	C8H7O+
119.0604	5	C7H7N2+
120.0207	6	C7H4O2+
120.037	16	C8H5F+
120.0443	102	C7H6NO+
121.0396	54	C6H5N2O+
122.0401	16	C7H5FN+
123.0229	30	C10H3+
123.0352	52	
124.0182	31	C9H2N+
125.0197	165	C7H3F2+
125.0385	42	C10H5+
126.0276	14	C7H4F2+
126.0339	25	C9H4N+
126.0465	32	C10H6+
127.0291	8	C8H3N2+
127.0356	24	C7H5F2+
127.0416	43	C9H5N+
127.0541	6	C5H6FN3+
128.0494	96	C9H6N+
129.0447	345	C8H5N2+
130.04	259	C7H4N3+
130.0527	13	C8H6N2+
131.0296	23	C9H4F+
131.0604	97	C3H6FN5+
132.0181	24	C6H3F3+
132.0246	14	C8H3FN+
132.0442	17	C3H5FN4O+
132.0569	8	C9H8O+
133.0263	3	C6H4F3+
133.0521	6	C8H7NO+
134.0476	5	C7H6N2O+
134.0598	24	C3H7FN4O+
137.0386	87	C11H5+
138.0338	100	C10H4N+
139.0228	19	C2H2F3N4+
139.036	7	C8H5F2+
139.0417	61	C10H5N+
139.0541	58	C11H7+
140.0306	48	C7H4F2N+
140.0369	20	C9H4N2+
140.0494	135	C10H6N+
141.026	33	C6H3F2N2+
141.0448	17	C9H5N2+
141.0573	13	C10H7N+
142.0525	64	C9H6N2+
143.0102	8	C7H2F3+
143.0484	28	C8H5N3+
143.0604	20	C9H7N2+
144.0446	5	C9H6NO+
144.0555	14	C3H5FN6+
144.0684	5	C9H8N2+
145.026	64	C7H4F3+
145.0758	6	C4H8FN5+
146.0401	14	C9H5FN+
146.06	18	C9H8NO+
147.0354	26	C8H4FN2+
147.0552	35	C8H7N2O+
148.0305	20	C7H3FN3+
148.0558	6	C9H7FN+
149.0193	4	C4H2F3N3+
149.0387	26	C12H5+
150.0338	33	C11H4N+
150.0463	75	C12H6+
151.0418	39	C11H5N+
152.0495	55	C11H6N+
152.0623	16	C12H8+
153.0385	13	C8H5F2N+
153.0445	74	C5H4FN5+
153.0572	25	C6H6FN4+
154.0401	51	C9H4N3+
154.0526	15	C10H6N2+
155.0604	70	C10H7N2+
156.0556	49	C9H6N3+
157.0522	81	C10H7NO+
159.0552	13	C9H7N2O+
162.0338	120	C12H4N+
163.0417	116	
163.0541	49	C13H7+
164.0494	408	C12H6N+
165.0448	95	C11H5N2+
165.0573	41	C12H7N+
166.0461	20	C4H5F3N4+
166.0525	64	C11H6N2+
167.0481	23	C10H5N3+
168.0443	42	C11H6NO+
168.0558	16	C10H6N3+
168.0682	8	C11H8N2+
169.0395	5	C10H5N2O+
169.0523	3	C11H7NO+
169.0645	45	C2H7F2N6O+
170.0602	51	C11H8NO+
171.0554	22	C10H7N2O+
172.0366	3	C6H2N7+
173.051	7	C10H6FN2+
175.0416	44	C13H5N+
176.0307	4	C10H4F2N+
177.0448	105	C12H5N2+
178.0525	30	C12H6N2+
179.0604	94	C12H7N2+
180.0555	22	C11H6N3+
181.052	52	C7H6FN4O+
182.0717	3	C11H8N3+
183.0553	21	C11H7N2O+
186.0424	6	C10H6N2O2+
188.0495	75	C14H6N+
189.0447	412	C13H5N2+
190.0525	100	C13H6N2+
190.0651	28	C14H8N+
191.048	48	C12H5N3+
191.0602	114	C8H6FN5+
191.073	11	C14H9N+
192.0556	33	C12H6N3+
192.068	69	C8H7FN5+
193.0637	39	C12H7N3+
194.0599	85	
195.0317	24	C12H5NO2+
195.0553	134	C12H7N2O+
197.0705	3	C7H8FN5O+
202.0525	51	C14H6N2+
203.0604	123	C6H7F2N5O+
204.0556	170	C13H6N3+
204.0677	15	C9H7FN5+
205.0512	6	C12H5N4+
205.0764	24	C14H9N2+
206.0712	53	C8H7FN6+
207.0557	55	C13H7N2O+
207.0657	6	C7H6FN7+
207.0786	4	C8H8FN6+
208.0632	29	C13H8N2O+
209.071	14	C13H9N2O+
216.0555	104	
217.0635	178	C14H7N3+
218.0713	33	C14H8N3+
222.0664	20	C13H8N3O+
228.0557	50	C7H6F2N6O+
229.0506	17	C9H4FN7+
229.0634	58	C15H7N3+
230.0714	212	C15H8N3+
231.0666	25	C14H7N4+
231.079	29	C15H9N3+
234.066	65	
242.059	60	C7H6F2N7O+
242.0705	6	C11H7FN6+
243.0666	116	C15H7N4+
244.0744	85	C15H8N4+
255.0666	183	C16H7N4+
256.0743	194	
257.0821	405	C16H9N4+
