Mass spectrum: Imazamox; LC-ESI-ITFT; MS2; CE: 75%; R=7500; [M+H]+
Name: Imazamox
Name: 2-(4-isopropyl-5-keto-4-methyl-2-imidazolin-2-yl)-5-(methoxymethyl)nicotinic acid
Formula: C15H19N3O4
Exact mass: 305.1376
SMILES: O=C(O)c1c(ncc(c1)COC)/C2=N/C(C(=O)N2)(C(C)C)C
InChI: InChI=1S/C15H19N3O4/c1-8(2)15(3)14(21)17-12(18-15)11-10(13(19)20)5-9(6-16-11)7-22-4/h5-6,8H,7H2,1-4H3,(H,19,20)(H,17,18,21)
Instrument: LTQ Orbitrap XL Thermo Scientific
Instrument type: LC-ESI-ITFT
Ms type: MS2
Ion mode: POSITIVE
Ionization: ESI
Fragmentation mode: HCD
Collision energy: 75 % (nominal)
Resolution: 7500
Column name: XBridge C18 3.5um, 2.1x50mm, Waters
Retention time: 5.7 min
Base peak: 306.1456
Precursor m/z: 306.1448
Precursor type: [M+H]+
m/z	relative intensity	assigned
58.0652	4	C3H8N+
65.0386	5	C5H5+
67.0542	16	C5H7+
69.0699	350	C5H9+
70.0651	6	C4H8N+
71.073	16	C4H9N+
79.0417	5	C5H5N+
79.0543	5	C6H7+
84.0806	4	C5H10N+
86.0965	916	C5H12N+
88.018	7	C6H2N+
90.0338	5	C6H4N+
92.0495	37	C6H6N+
94.0522	8	C5H6N2+
97.0648	9	C6H9O+
105.045	8	C6H5N2+
106.0285	4	C6H4NO+
107.0367	5	C6H5NO+
107.0604	37	C6H7N2+
108.0441	9	C6H6NO+
109.0647	11	C7H9O+
110.0601	11	C6H8NO+
111.0439	8	C6H7O2+
115.0286	7	C7H3N2+
117.0446	29	C7H5N2+
118.0525	44	C7H6N2+
119.0604	59	C7H7N2+
120.0444	25	C7H6NO+
121.0397	13	C6H5N2O+
122.0601	132	C7H8NO+
123.0681	15	C7H9NO+
131.0606	9	C8H7N2+
132.0312	4	C7H4N2O+
133.0399	8	C7H5N2O+
133.0759	5	C8H9N2+
134.0473	12	C7H6N2O+
135.0554	19	C7H7N2O+
140.0707	60	C7H10NO2+
144.0317	9	C8H4N2O+
144.0807	5	C10H10N+
145.0396	215	C8H5N2O+
146.0239	9	C8H4NO2+
147.0553	53	C8H7N2O+
148.063	102	C8H8N2O+
149.035	11	C7H5N2O2+
149.0709	139	C8H9N2O+
150.042	7	C7H6N2O2+
150.0551	15	C8H8NO2+
151.087	8	C8H11N2O+
158.0709	5	C9H8N3+
159.0552	21	C9H7N2O+
159.0791	7	C9H9N3+
160.0505	29	C8H6N3O+
160.0633	39	C9H8N2O+
161.058	70	C8H7N3O+
161.071	136	C9H9N2O+
162.0424	101	C8H6N2O2+
162.0661	20	C8H8N3O+
163.0503	999	C8H7N2O2+
165.066	24	C8H9N2O2+
168.0654	36	C8H10NO3+
171.0916	8	C11H11N2+
175.0503	394	C9H7N2O2+
176.0581	17	C9H8N2O2+
177.0658	103	C9H9N2O2+
180.065	5	C9H10NO3+
184.0991	11	C12H12N2+
186.0658	9	C10H8N3O+
187.074	65	C10H9N3O+
188.0822	31	C10H10N3O+
191.0815	435	C10H11N2O2+
192.0768	202	C9H10N3O2+
193.0607	467	C9H9N2O3+
203.0694	15	C10H9N3O2+
212.0952	10	C13H12N2O+
213.1017	5	C13H13N2O+
215.0688	88	C11H9N3O2+
216.0766	35	C11H10N3O2+
217.0845	17	C11H11N3O2+
218.0923	348	C11H12N3O2+
219.1132	21	C12H15N2O2+
220.0974	6	C12H14NO3+
230.0944	6	C14H14O3+
235.0945	21	C11H13N3O3+
243.1123	21	C14H15N2O2+
245.0789	11	C12H11N3O3+
246.0873	193	C12H12N3O3+
260.1403	7	C14H18N3O2+
261.1323	4	C10H19N3O5+
