Mass spectrum: Lacosamide; LC-ESI-QFT; MS2; CE: 15; R=35000; [M-H]-
Name: Lacosamide
Name: N2-Acetyl-N-benzyl-O-methyl-D-serinamide
Name: 2-acetamido-N-benzyl-3-methoxypropanamide
Formula: C13H18N2O3
Exact mass: 250.13174
SMILES: CC(=O)NC(COC)C(=O)NCC1=CC=CC=C1
InChI: InChI=1S/C13H18N2O3/c1-10(16)15-12(9-18-2)13(17)14-8-11-6-4-3-5-7-11/h3-7,12H,8-9H2,1-2H3,(H,14,17)(H,15,16)
Instrument: Q Exactive Plus Orbitrap Thermo Scientific
Instrument type: LC-ESI-QFT
Ms type: MS2
Ion mode: NEGATIVE
Ionization: ESI
Fragmentation mode: HCD
Collision energy: 15 (nominal)
Resolution: 35000
Column name: XBridge C18 3.5um, 2.1x50mm, Waters
Retention time: 5.0 min
Base peak: 295.1293
Precursor m/z: 249.1245
Precursor type: [M-H]-
m/z	relative intensity	assigned
57.0345	1	C3H5O-
58.0297	1	C2H4NO-
77.0395	1	C6H5-
84.0454	11	C4H6NO-
104.0502	1	C7H6N-
112.0403	2	C5H6NO2-
114.056	1	C5H8NO2-
132.0454	3	C8H6NO-
148.0768	159	C9H10NO-
159.0563	9	C9H7N2O-
174.0923	2	C11H12NO-
175.0876	153	C10H11N2O-
187.0876	2	C11H11N2O-
199.0876	65	C12H11N2O-
201.0668	3	C11H9N2O2-
202.0746	17	C11H10N2O2-
207.1139	279	C11H15N2O2-
217.098	999	C12H13N2O2-
231.1129	1	C13H15N2O2-
249.1244	373	C13H17N2O3-
