Mass spectrum: LSD; LC-ESI-QFT; MS2; CE: 60; R=35000; [M+H]+
Name: LSD
Name: D-Lysergic acid N,N-diethylamide
Name: N,N-diethyl-7-methyl-6,6a,8,9-tetrahydro-4H-indolo[4,3-fg]quinoline-9-carboxamide
Formula: C20H25N3O
Exact mass: 323.19976
SMILES: CCN(CC)C(=O)C1CN(C2CC3=CNC4=CC=CC(=C34)C2=C1)C
InChI: InChI=1S/C20H25N3O/c1-4-23(5-2)20(24)14-9-16-15-7-6-8-17-19(15)13(11-21-17)10-18(16)22(3)12-14/h6-9,11,14,18,21H,4-5,10,12H2,1-3H3
Instrument: Q Exactive Plus Orbitrap Thermo Scientific
Instrument type: LC-ESI-QFT
Ms type: MS2
Ion mode: POSITIVE
Ionization: ESI
Fragmentation mode: HCD
Collision energy: 60 (nominal)
Resolution: 35000
Column name: XBridge C18 3.5um, 2.1x50mm, Waters
Retention time: 5.6 min
Base peak: 324.2062
Precursor m/z: 324.207
Precursor type: [M+H]+
m/z	relative intensity	assigned
55.0179	5	C3H3O+
56.0495	16	C3H6N+
68.0494	2	C4H6N+
70.0651	3	C4H8N+
72.0443	71	C3H6NO+
72.0807	27	C4H10N+
74.0964	168	C4H12N+
83.0491	2	C5H7O+
86.0964	2	C5H12N+
100.0756	52	C5H10NO+
128.107	44	C7H14NO+
129.0698	14	C10H9+
130.0651	4	C9H8N+
139.0536	1	C11H7+
142.0653	3	C10H8N+
144.0809	2	C10H10N+
153.0699	62	C12H9+
154.0651	36	C11H8N+
155.0729	3	C11H9N+
155.0857	1	C12H11+
156.0808	49	C11H10N+
165.0699	16	C13H9+
166.0648	3	C12H8N+
167.0729	75	C12H9N+
167.0855	6	C13H11+
168.0807	38	C12H10N+
170.0963	2	C12H12N+
178.0646	5	C13H8N+
179.0727	11	C13H9N+
179.0854	3	C14H11+
180.0807	999	C13H10N+
181.0648	29	C13H9O+
181.0757	3	C12H9N2+
181.0885	48	C13H11N+
182.0841	54	C12H10N2+
182.0964	139	C13H12N+
183.0803	1	C13H11O+
190.065	47	C14H8N+
191.0729	146	C14H9N+
192.0807	218	C14H10N+
193.0761	46	C13H9N2+
193.0886	26	C14H11N+
194.0602	9	C13H8NO+
194.0837	11	C13H10N2+
194.0964	70	C14H12N+
195.0918	4	C13H11N2+
195.1042	31	C14H13N+
196.0994	3	C13H12N2+
196.1121	47	C14H14N+
197.1073	128	C13H13N2+
205.0757	5	C14H9N2+
206.0849	6	C14H10N2+
206.0965	13	C15H12N+
207.068	226	C14H9NO+
207.0917	316	C14H11N2+
208.0758	898	C14H10NO+
208.0994	541	C14H12N2+
209.1072	12	C14H13N2+
210.0913	32	C14H12NO+
220.0758	12	C15H10NO+
220.0995	10	C15H12N2+
221.1073	97	C15H13N2+
222.1151	35	C15H14N2+
223.123	642	C15H15N2+
224.1307	7	C15H16N2+
236.0939	6	C15H12N2O+
251.1182	8	C16H15N2O+
253.1698	12	C17H21N2+
281.1648	44	C18H21N2O+
309.1825	1	C19H23N3O+
