Mass spectrum: Paroxetine; LC-ESI-QFT; MS2; CE: 150; R=35000; [M+H]+
Name: Paroxetine
Name: 3-[(1,3-Benzodioxol-5-yloxy)methyl]-4-(4-fluorophenyl)piperidine
Name: 3-(1,3-benzodioxol-5-yloxymethyl)-4-(4-fluorophenyl)piperidine
Formula: C19H20FNO3
Exact mass: 329.14272
SMILES: C1CNCC(C1C2=CC=C(C=C2)F)COC3=CC4=C(C=C3)OCO4
InChI: InChI=1S/C19H20FNO3/c20-15-3-1-13(2-4-15)17-7-8-21-10-14(17)11-22-16-5-6-18-19(9-16)24-12-23-18/h1-6,9,14,17,21H,7-8,10-12H2
Instrument: Q Exactive Plus Orbitrap Thermo Scientific
Instrument type: LC-ESI-QFT
Ms type: MS2
Ion mode: POSITIVE
Ionization: ESI
Fragmentation mode: HCD
Collision energy: 150 (nominal)
Resolution: 35000
Column name: XBridge C18 3.5um, 2.1x50mm, Waters
Retention time: 7.8 min
Base peak: 330.1493
Precursor m/z: 330.15
Precursor type: [M+H]+
m/z	relative intensity	assigned
50.0151	19	C4H2+
51.023	61	C4H3+
53.0022	176	C3HO+
53.0386	72	C4H5+
53.9975	23	C2NO+
54.01	2	C3H2O+
54.0339	25	C3H4N+
55.0179	9	C3H3O+
55.0416	12	C3H5N+
55.0543	3	C4H7+
56.0495	84	C3H6N+
57.0135	96	C3H2F+
59.0292	49	C3H4F+
61.0072	3	C5H+
62.0152	9	C5H2+
63.023	83	C5H3+
65.0386	149	C5H5+
67.0417	27	C4H5N+
67.0543	3	C5H7+
67.9893	25	C3O2+
68.0495	84	C4H6N+
68.9971	11	C3HO2+
69.0574	3	C4H7N+
70.0652	147	C4H8N+
74.0151	12	C6H2+
75.0229	126	C6H3+
77.0386	59	C6H5+
78.0087	8	C3N3+
78.0464	3	C6H6+
80.0494	12	C5H6N+
81.0136	3	C5H2F+
81.0336	53	C5H5O+
81.0574	3	C5H7N+
82.0652	30	C5H8N+
83.0292	651	C5H4F+
89.0386	132	C7H5+
91.0543	25	C7H7+
94.0213	2	C6H3F+
95.0492	97	C6H7O+
96.037	25	C6H5F+
96.0809	2	C6H10N+
97.0448	9	C6H6F+
99.0229	8	C8H3+
101.0386	15	C8H5+
102.0464	27	C8H6+
103.0543	60	C8H7+
105.0448	79	C6H5N2+
107.0293	40	C7H4F+
108.0371	3	C7H5F+
109.0449	999	C7H6F+
113.0396	9	C6H6FO+
115.0543	551	C9H7+
116.0621	3	C9H8+
119.0492	9	C8H7O+
120.0371	31	C8H5F+
121.0449	15	C8H6F+
123.0353	22	C6H4FN2+
123.0605	10	C8H8F+
125.0388	8	C10H5+
126.0465	12	C10H6+
127.0542	16	C10H7+
128.0621	41	C10H8+
129.0448	50	C8H5N2+
130.0652	3	C9H8N+
133.0449	479	C9H6F+
134.0527	15	C9H7F+
135.0605	70	C9H8F+
137.0235	8	C7H5O3+
145.0452	2	C10H6F+
145.0652	16	C10H9O+
146.0527	185	C10H7F+
147.0606	26	C10H8F+
148.0557	3	C9H7FN+
155.0604	36	C10H7N2+
159.0604	8	C11H8F+
173.0512	5	C10H6FN2+
