Mass spectrum: Irbesartan; LC-ESI-ITFT; MS2; CE: 75%; R=15000; [M+H]+
Name: Irbesartan
Name: 8-butyl-7-[4-[2-(2H-tetrazol-5-yl)phenyl]benzyl]-7,9-diazaspiro[4.4]non-8-en-6-one
Formula: C25H28N6O
Exact mass: 428.2325
SMILES: C12(C(N(Cc3ccc(c4c(c5[nH]nnn5)cccc4)cc3)C(=N1)CCCC)=O)CCCC2
InChI: InChI=1S/C25H28N6O/c1-2-3-10-22-26-25(15-6-7-16-25)24(32)31(22)17-18-11-13-19(14-12-18)20-8-4-5-9-21(20)23-27-29-30-28-23/h4-5,8-9,11-14H,2-3,6-7,10,15-17H2,1H3,(H,27,28,29,30)
Instrument: LTQ Orbitrap XL Thermo Scientific
Instrument type: LC-ESI-ITFT
Ms type: MS2
Ion mode: POSITIVE
Ionization: ESI
Fragmentation mode: HCD
Collision energy: 75 % (nominal)
Resolution: 15000
Column name: XBridge C18 3.5um, 2.1x50mm, Waters
Retention time: 9.2 min
Base peak: 429.2411
Precursor m/z: 429.2397
Precursor type: [M+H]+
m/z	relative intensity	assigned
67.0541	7	C5H7+
77.0385	31	C6H5+
79.0542	35	C6H7+
80.0495	40	C5H6N+
84.0808	322	C5H10N+
95.0491	12	C6H7O+
105.0447	10	C6H5N2+
129.0447	35	C8H5N2+
130.0394	7	C7H4N3+
139.0539	7	C11H7+
140.0495	37	C10H6N+
151.0544	59	C12H7+
152.062	147	C12H8+
153.0699	193	C12H9+
154.0651	19	C11H8N+
155.06	15	C10H7N2+
163.0542	30	C13H7+
164.049	15	C12H6N+
165.0698	193	C13H9+
166.065	56	C12H8N+
166.0776	31	C13H10+
167.0728	91	C12H9N+
167.1544	8	C10H19N2+
169.0648	19	C12H9O+
177.0572	30	C13H7N+
178.065	147	C13H8N+
179.0606	37	C12H7N2+
179.0728	176	C13H9N+
180.0807	999	C13H10N+
181.0755	18	C12H9N2+
182.0604	19	C12H8NO+
190.065	330	C14H8N+
191.0605	12	C13H7N2+
191.0729	42	C14H9N+
192.0681	354	C13H8N2+
192.0806	226	C14H10N+
194.06	61	C13H8NO+
195.149	23	C11H19N2O+
196.0755	55	C13H10NO+
205.076	694	C14H9N2+
206.0838	590	C14H10N2+
207.0916	686	C14H11N2+
208.0755	27	C14H10NO+
211.0634	10	C13H9NO2+
