Mass spectrum: Chinomethionat; LC-ESI-QFT; MS2; CE: 45%; R=17500; [M+H]+
Name: Chinomethionat
Name: 6-methyl-[1,3]dithiolo[4,5-b]quinoxalin-2-one
Formula: C10H6N2OS2
Exact mass: 233.9922
SMILES: CC1=CC2=C(C=C1)N=C3C(=N2)SC(=O)S3
InChI: InChI=1S/C10H6N2OS2/c1-5-2-3-6-7(4-5)12-9-8(11-6)14-10(13)15-9/h2-4H,1H3
Instrument: Exploris 240 Orbitrap Thermo Scientific
Instrument type: LC-ESI-QFT
Ms type: MS2
Ion mode: POSITIVE
Ionization: ESI
Fragmentation mode: HCD
Collision energy: 45 % (nominal)
Resolution: 17500
Column name: XBridge C18 3.5um, 2.1x50mm, Waters
Retention time: 12.419 min
Base peak: 234.9995
Precursor m/z: 234.9994
Precursor type: [M+H]+
m/z	relative intensity	assigned
131.0606	3	C8H7N2+
149.0298	8	C8H7NS+
163.0325	56	C8H7N2S+
175.0325	8	C9H7N2S+
207.0045	999	C9H7N2S2+
235	11	C10H7N2OS2+
