Mass spectrum: Ronidazole; LC-ESI-QFT; MS2; CE: 75; R=35000; [M+H]+
Name: Ronidazole
Name: (1-methyl-5-nitroimidazol-2-yl)methyl carbamate
Formula: C6H8N4O4
Exact mass: 200.05455
SMILES: CN1C(=CN=C1COC(=O)N)[N+](=O)[O-]
InChI: InChI=1S/C6H8N4O4/c1-9-4(3-14-6(7)11)8-2-5(9)10(12)13/h2H,3H2,1H3,(H2,7,11)
Instrument: Q Exactive Plus Orbitrap Thermo Scientific
Instrument type: LC-ESI-QFT
Ms type: MS2
Ion mode: POSITIVE
Ionization: ESI
Fragmentation mode: HCD
Collision energy: 75 (nominal)
Resolution: 35000
Column name: XBridge C18 3.5um, 2.1x50mm, Waters
Retention time: 2.3 min
Base peak: 201.0615
Precursor m/z: 201.0618
Precursor type: [M+H]+
m/z	relative intensity	assigned
53.026	4	C3H3N+
54.0339	146	C3H4N+
55.0417	999	C3H5N+
66.0339	11	C4H4N+
67.0417	89	C4H5N+
68.0369	2	C3H4N2+
71.0241	5	C2H3N2O+
72.008	4	C2H2NO2+
81.0448	4	C4H5N2+
82.0526	19	C4H6N2+
94.0527	84	C5H6N2+
110.0476	21	C5H6N2O+
140.0456	58	C5H6N3O2+
