Mass spectrum: Propranolol; LC-ESI-ITFT; MS2; CE: 30%; R=15000; [M+H]+
Name: Propranolol
Name: 1-(1-naphthalenyloxy)-3-(propan-2-ylamino)-2-propanol
Formula: C16H21NO2
Exact mass: 259.1572
SMILES: CC(C)NCC(COC1=CC=CC2=CC=CC=C21)O
InChI: InChI=1S/C16H21NO2/c1-12(2)17-10-14(18)11-19-16-9-5-7-13-6-3-4-8-15(13)16/h3-9,12,14,17-18H,10-11H2,1-2H3
Instrument: LTQ Orbitrap XL Thermo Scientific
Instrument type: LC-ESI-ITFT
Ms type: MS2
Ion mode: POSITIVE
Ionization: ESI
Fragmentation mode: HCD
Collision energy: 30 % (nominal)
Resolution: 15000
Column name: XBridge C18 3.5um, 2.1x50mm, Waters
Retention time: 6.6 min
Base peak: 260.165
Precursor m/z: 260.1645
Precursor type: [M+H]+
m/z	relative intensity	assigned
56.0494	5	C3H6N+
58.0651	9	C3H8N+
72.0808	10	C4H10N+
74.0601	11	C3H8NO+
86.0964	9	C5H12N+
98.0964	26	C6H12N+
116.107	91	C6H14NO+
129.0696	1	C10H9+
132.1021	3	C6H14NO2+
141.0701	2	C11H9+
155.0857	3	C12H11+
157.0648	21	C11H9O+
165.0699	1	C13H9+
183.0804	72	C13H11O+
218.1176	28	C13H16NO2+
242.1537	5	C16H20NO+
260.1647	999	C16H22NO2+
