Mass spectrum: Medazepam; LC-ESI-QFT; MS2; CE: 75; R=35000; [M+H]+
Name: Medazepam
Name: 7-chloranyl-1-methyl-5-phenyl-2,3-dihydro-1,4-benzodiazepine
Formula: C16H15ClN2
Exact mass: 270.09238
SMILES: CN1CCN=C(C2=C1C=CC(=C2)Cl)C3=CC=CC=C3
InChI: InChI=1S/C16H15ClN2/c1-19-10-9-18-16(12-5-3-2-4-6-12)14-11-13(17)7-8-15(14)19/h2-8,11H,9-10H2,1H3
Instrument: Q Exactive Orbitrap Thermo Scientific
Instrument type: LC-ESI-QFT
Ms type: MS2
Ion mode: POSITIVE
Ionization: ESI
Fragmentation mode: HCD
Collision energy: 75 (nominal)
Resolution: 35000
Column name: XBridge C18 3.5um, 2.1x50mm, Waters
Retention time: 6.5 min
Base peak: 271.0999
Precursor m/z: 271.0997
Precursor type: [M+H]+
m/z	relative intensity	assigned
65.0386	32	C5H5+
79.0543	13	C6H7+
89.0384	6	C7H5+
90.0465	1	C7H6+
91.0542	999	C7H7+
95.0491	1	C6H7O+
103.0543	7	C8H7+
104.0496	4	C7H6N+
105.0699	7	C8H9+
106.0651	12	C7H8N+
115.0543	5	C9H7+
116.0496	1	C8H6N+
117.0573	96	C8H7N+
118.0652	7	C8H8N+
120.0809	1	C8H10N+
125.0152	32	C7H6Cl+
128.0495	1	C9H6N+
129.0102	1	C6H6ClO+
130.0652	21	C9H8N+
131.073	42	C9H9N+
132.0809	2	C9H10N+
134.06	2	C5H11ClN2+
138.0105	5	C7H5ClN+
139.0057	1	C6H4ClN2+
140.0263	7	C7H7ClN+
145.0762	1	C9H9N2+
150.0105	1	C8H5ClN+
151.0184	6	C8H6ClN+
152.0261	51	C8H7ClN+
153.0341	4	C8H8ClN+
154.0418	9	C8H9ClN+
158.084	2	C10H10N2+
164.0262	30	C9H7ClN+
165.0214	333	C8H6ClN2+
165.0699	25	C13H9+
166.042	9	C9H9ClN+
166.0778	12	C13H10+
176.0264	1	C10H7ClN+
178.0778	29	C14H10+
179.037	35	C9H8ClN2+
179.0731	5	C13H9N+
179.0854	10	C14H11+
180.0449	86	C9H9ClN2+
180.0808	12	C13H10N+
181.0886	5	C13H11N+
192.0807	20	C14H10N+
193.0887	189	C14H11N+
194.0964	26	C14H12N+
195.104	14	C14H13N+
201.0463	4	C13H10Cl+
203.0725	1	C15H9N+
204.0808	15	C15H10N+
205.0887	7	C15H11N+
206.0965	151	C15H12N+
207.1043	647	C15H13N+
208.1126	4	C15H14N+
212.0391	4	C14H9Cl+
213.0465	1	C14H10Cl+
214.0418	24	C13H9ClN+
216.0577	1	C13H11ClN+
217.0888	4	C16H11N+
218.0965	57	C16H12N+
219.1043	24	C16H13N+
220.0998	1	C15H12N2+
220.1117	1	C16H14N+
221.1075	12	C15H13N2+
226.0417	1	C14H9ClN+
227.0497	72	C14H10ClN+
228.0574	128	C14H11ClN+
230.0732	66	C14H13ClN+
235.1228	7	C16H15N2+
238.0418	5	C15H9ClN+
239.0501	1	C15H10ClN+
240.057	3	C15H11ClN+
241.0526	7	C14H10ClN2+
241.0645	1	C15H12ClN+
242.0731	44	C15H13ClN+
244.0886	4	C15H15ClN+
252.0572	1	C16H11ClN+
254.0732	55	C16H13ClN+
255.0684	14	C15H12ClN2+
256.0768	1	C15H13ClN2+
269.0847	2	C16H14ClN2+
271.0997	33	C16H16ClN2+
