Mass spectrum: Methsuximide; LC-ESI-QFT; MS2; CE: 90; R=35000; [M+H]+
Name: Methsuximide
Name: 1,3-dimethyl-3-phenylpyrrolidine-2,5-dione
Formula: C12H13NO2
Exact mass: 203.09463
SMILES: CC1(CC(=O)N(C1=O)C)C2=CC=CC=C2
InChI: InChI=1S/C12H13NO2/c1-12(9-6-4-3-5-7-9)8-10(14)13(2)11(12)15/h3-7H,8H2,1-2H3
Instrument: Q Exactive Orbitrap Thermo Scientific
Instrument type: LC-ESI-QFT
Ms type: MS2
Ion mode: POSITIVE
Ionization: ESI
Fragmentation mode: HCD
Collision energy: 90 (nominal)
Resolution: 35000
Column name: XBridge C18 3.5um, 2.1x50mm, Waters
Retention time: 6.8 min
Base peak: 204.1021
Precursor m/z: 204.1019
Precursor type: [M+H]+
m/z	relative intensity	assigned
53.0023	12	C3HO+
53.0387	2	C4H5+
53.9976	5	C2NO+
56.0496	38	C3H6N+
58.0288	558	C2H4NO+
65.0386	21	C5H5+
67.0178	1	C4H3O+
67.9893	1	C3O2+
69.0335	93	C4H5O+
77.0386	14	C6H5+
79.0543	162	C6H7+
80.0495	9	C5H6N+
91.0542	999	C7H7+
95.0491	42	C6H7O+
98.0601	4	C5H8NO+
103.0543	50	C8H7+
104.0621	2	C8H8+
105.0335	24	C7H5O+
105.0448	19	C6H5N2+
105.0699	2	C8H9+
107.0492	2	C7H7O+
115.0542	96	C9H7+
116.062	6	C9H8+
117.0699	90	C9H9+
118.0651	7	C8H8N+
119.0856	80	C9H11+
120.0809	1	C8H10N+
121.0648	12	C8H9O+
126.055	12	C6H8NO2+
127.0543	2	C10H7+
128.0621	20	C10H8+
129.07	19	C10H9+
131.0492	6	C9H7O+
134.0965	64	C9H12N+
142.0655	2	C10H8N+
143.0731	34	C10H9N+
144.0808	13	C10H10N+
145.0649	40	C10H9O+
145.0888	5	C10H11N+
146.0599	1	C9H8NO+
147.0678	8	C9H9NO+
155.0605	7	C10H7N2+
157.0887	2	C11H11N+
158.0965	21	C11H12N+
160.0759	5	C10H10NO+
171.0684	1	C11H9NO+
