Mass spectrum: N4-Acetylsulfamethoxazole; LC-ESI-ITFT; MS2; CE: 35%; R=7500; [M+H]+
Name: N4-Acetylsulfamethoxazole
Name: N-[4-[(5-methyl-1,2-oxazol-3-yl)sulfamoyl]phenyl]acetamide
Formula: C12H13N3O4S
Exact mass: 295.0627
SMILES: c1(ccc(cc1)NC(C)=O)S(Nc1cc(C)on1)(=O)=O
InChI: InChI=1S/C12H13N3O4S/c1-8-7-12(14-19-8)15-20(17,18)11-5-3-10(4-6-11)13-9(2)16/h3-7H,1-2H3,(H,13,16)(H,14,15)
Instrument: LTQ Orbitrap XL Thermo Scientific
Instrument type: LC-ESI-ITFT
Ms type: MS2
Ion mode: POSITIVE
Ionization: ESI
Fragmentation mode: CID
Collision energy: 35 % (nominal)
Resolution: 7500
Column name: XBridge C18 3.5um, 2.1x50mm, Waters
Retention time: 5.5 min
Base peak: 318.0528
Precursor m/z: 296.07
Precursor type: [M+H]+
m/z	relative intensity	assigned
94.065	79	C6H8N+
99.055	8	C4H7N2O+
108.0443	55	C6H6NO+
134.06	116	C8H8NO+
136.0756	999	C8H10NO+
146.0711	56	C8H8N3+
147.079	25	C8H9N3+
148.0865	14	C8H10N3+
149.0711	21	C8H9N2O+
150.0553	12	C8H8NO2+
151.0321	12	C7H7N2S+
152.071	11	C8H10NO2+
156.0111	73	C6H6NO2S+
160.0867	54	C9H10N3+
162.0666	9	C8H8N3O+
172.0864	27	C10H10N3+
176.0276	44	C8H6N3S+
177.0117	20	C8H5N2OS+
188.0818	910	C10H10N3O+
189.0895	165	C10H11N3O+
190.0973	370	C10H12N3O+
191.0811	33	C10H11N2O2+
193.0425	22	C9H9N2OS+
194.0382	483	C8H8N3OS+
195.0224	33	C8H7N2O2S+
198.0217	667	C8H8NO3S+
202.0977	107	C11H12N3O+
203.0813	16	C11H11N2O2+
214.0973	136	C12H12N3O+
216.0319	29	C8H10NO4S+
218.038	67	C10H8N3OS+
219.0225	31	C10H7N2O2S+
230.0923	289	C12H12N3O2+
232.1079	191	C12H14N3O2+
236.0487	826	C10H10N3O2S+
254.0591	119	C10H12N3O3S+
278.059	92	C12H12N3O3S+
