Mass spectrum: Nodularin; LC-ESI-QFT; MS2; CE: 90; R=35000; [M+H]+
Name: Nodularin
Name: (2Z,5R,6S,9S,12S,13S,16R)-9-[3-(diaminomethylideneamino)propyl]-2-ethylidene-12-[(1E,3E,5S,6S)-6-methoxy-3,5-dimethyl-7-phenylhepta-1,3-dienyl]-1,6,13-trimethyl-3,7,10,14,19-pentaoxo-1,4,8,11,15-pentazacyclononadecane-5,16-dicarboxylic acid
Formula: C41H60N8O10
Exact mass: 824.44324
SMILES: NC(=N)NCCC[C@@H]2NC(=O)[C@@H](C)[C@@H](NC(=O)C(=C\C)\N(C)C(=O)CC[C@@H](NC(=O)[C@@H](C)[C@H](/C=C/C(/C)=C/[C@H](C)[C@H](Cc1ccccc1)OC)NC2=O)C(=O)O)C(O)=O
InChI: InChI=1S/C41H60N8O10/c1-8-31-38(54)48-34(40(57)58)26(5)36(52)46-29(15-12-20-44-41(42)43)37(53)45-28(25(4)35(51)47-30(39(55)56)18-19-33(50)49(31)6)17-16-23(2)21-24(3)32(59-7)22-27-13-10-9-11-14-27/h8-11,13-14,16-17,21,24-26,28-30,32,34H,12,15,18-20,22H2,1-7H3,(H,45,53)(H,46,52)(H,47,51)(H,48,54)(H,55,56)(H,57,58)(H4,42,43,44)/b17-16+,23-21+,31-8-/t24-,25-,26-,28-,29-,30+,32-,34+/m0/s1
Instrument: Q Exactive Orbitrap Thermo Scientific
Instrument type: LC-ESI-QFT
Ms type: MS2
Ion mode: POSITIVE
Ionization: ESI
Fragmentation mode: HCD
Collision energy: 90 (nominal)
Resolution: 35000
Column name: XBridge C18 3.5um, 2.1x50mm, Waters
Retention time: 9.6 min
Base peak: 825.4499
Precursor m/z: 825.4505
Precursor type: [M+H]+
m/z	relative intensity	assigned
58.0652	1	C3H8N+
59.0478	4	CH5N3+
60.0557	12	CH6N3+
63.0228	1	C5H3+
65.0386	35	C5H5+
67.0542	17	C5H7+
68.0495	28	C4H6N+
69.0335	11	C4H5O+
69.0699	3	C5H9+
70.0651	669	C4H8N+
71.0491	11	C4H7O+
72.0808	16	C4H10N+
74.0235	2	C2H4NO2+
77.0386	36	C6H5+
78.0464	1	C6H6+
79.0542	115	C6H7+
80.0495	9	C5H6N+
81.0335	7	C5H5O+
81.0572	1	C5H7N+
81.0699	7	C6H9+
82.0287	17	C4H4NO+
82.0652	5	C5H8N+
83.0492	10	C5H7O+
83.0604	1	C4H7N2+
84.0444	89	C4H6NO+
85.0284	16	C4H5O2+
85.0761	6	C4H9N2+
86.0601	5	C4H8NO+
89.0388	1	C7H5+
91.0542	350	C7H7+
92.0621	9	C7H8+
93.0699	55	C7H9+
94.0651	26	C6H8N+
95.0491	355	C6H7O+
95.0603	19	C5H7N2+
96.0444	7	C5H6NO+
96.0683	1	C5H8N2+
96.0808	7	C6H10N+
97.0761	40	C5H9N2+
98.0601	34	C5H8NO+
99.0189	9	C3H3N2O2+
100.0757	8	C5H10NO+
102.0465	21	C8H6+
102.055	1	C4H8NO2+
103.0543	999	C8H7+
104.0619	1	C8H8+
105.0448	64	C6H5N2+
105.0699	266	C8H9+
106.0651	3	C7H8N+
106.0777	1	C8H10+
107.0855	104	C8H11+
108.0808	13	C7H10N+
109.0648	31	C7H9O+
109.0761	7	C6H9N2+
110.0235	1	C5H4NO2+
110.0601	3	C6H8NO+
110.0712	1	C5H8N3+
110.0963	1	C7H12N+
111.0553	1	C5H7N2O+
112.087	18	C5H10N3+
113.0234	17	C5H5O3+
113.071	6	C5H9N2O+
114.055	1	C5H8NO2+
114.1026	3	C5H12N3+
115.0542	111	C9H7+
115.0867	8	C5H11N2O+
116.0619	9	C9H8+
117.0699	55	C9H9+
118.0651	2	C8H8N+
119.0605	7	C7H7N2+
119.0855	10	C9H11+
120.0571	21	C8H8O+
120.0682	5	C7H8N2+
120.0807	11	C8H10N+
120.0934	3	C9H12+
121.0646	1	C8H9O+
121.0759	1	C7H9N2+
122.06	1	C7H8NO+
122.0839	1	C7H10N2+
122.0964	1	C8H12N+
123.0554	1	C6H7N2O+
124.0394	1	C6H6NO2+
124.0516	1	C7H8O2+
124.0756	1	C7H10NO+
125.071	8	C6H9N2O+
127.0865	6	C6H11N2O+
128.0621	10	C10H8+
129.0697	8	C10H9+
130.0499	5	C5H8NO3+
130.0649	2	C9H8N+
130.0778	3	C10H10+
130.0977	1	C5H12N3O+
131.0856	8	C10H11+
133.0649	1	C9H9O+
133.076	1	C8H9N2+
134.0965	1	C9H12N+
135.0805	20	C9H11O+
135.0917	37	C8H11N2+
135.1168	4	C10H15+
136.0757	5	C8H10NO+
136.0995	5	C8H12N2+
137.1073	5	C8H13N2+
138.0662	1	C6H8N3O+
138.0913	1	C8H12NO+
140.0818	1	C6H10N3O+
141.0655	6	C6H9N2O2+
142.0781	1	C11H10+
143.0862	1	C11H11+
144.0807	1	C10H10N+
145.1012	1	C11H13+
146.0598	1	C9H8NO+
147.0917	1	C9H11N2+
151.0864	1	C8H11N2O+
153.1022	14	C8H13N2O+
163.0865	5	C9H11N2O+
165.07	6	C13H9+
165.1023	1	C9H13N2O+
170.0966	1	C12H12N+
172.112	1	C12H14N+
179.0856	3	C14H11+
181.0972	11	C9H13N2O2+
209.0918	1	C10H13N2O3+
