Mass spectrum: 10phiC10SPC; LC-ESI-QFT; MS2; CE: 180; R=35000; [M+H]+
Name: 10phiC10SPC
Name: Decacarboxy sulfophenyl carboxylic acid
Name: 10-(4-sulfophenyl)octanoic acid
Formula: C16H24O5S
Exact mass: 328.13444
SMILES: OS(=O)(=O)c1ccc(CCCCCCCCCC(=O)O)cc1
InChI: InChI=1S/C16H24O5S/c17-16(18)9-7-5-3-1-2-4-6-8-14-10-12-15(13-11-14)22(19,20)21/h10-13H,1-9H2,(H,17,18)(H,19,20,21)
Instrument: Q Exactive Plus Orbitrap Thermo Scientific
Instrument type: LC-ESI-QFT
Ms type: MS2
Ion mode: POSITIVE
Ionization: ESI
Fragmentation mode: HCD
Collision energy: 180 (nominal)
Resolution: 35000
Column name: XBridge C18 3.5um, 2.1x50mm, Waters
Retention time: 10.8 min
Base peak: 343.1573
Precursor m/z: 329.1417
Precursor type: [M+H]+
m/z	relative intensity	assigned
50.0152	377	C4H2+
51.023	999	C4H3+
52.0308	48	C4H4+
53.0022	90	C3HO+
53.0386	262	C4H5+
53.9974	15	C2NO+
55.0179	74	C3H3O+
55.0544	4	C4H7+
62.0151	53	C5H2+
63.023	324	C5H3+
64.0308	45	C5H4+
65.0386	469	C5H5+
66.0464	7	C5H6+
67.0542	8	C5H7+
68.9794	36	C3HS+
74.0151	22	C6H2+
75.0229	50	C6H3+
76.0307	25	C6H4+
77.0386	353	C6H5+
78.0464	404	C6H6+
79.0179	4	C5H3O+
79.0543	34	C6H7+
81.0335	47	C5H5O+
89.0386	543	C7H5+
90.0465	31	C7H6+
91.0543	456	C7H7+
94.0415	7	C6H6O+
95.0492	755	C6H7O+
102.0464	77	C8H6+
103.0543	224	C8H7+
104.0622	4	C8H8+
105.0448	398	C6H5N2+
107.0491	7	C7H7O+
108.0029	6	C6H4S+
115.0543	481	C9H7+
116.0621	8	C9H8+
117.0698	8	C9H9+
121.0107	5	C7H5S+
126.0469	4	C10H6+
127.054	16	C10H7+
128.0621	158	C10H8+
129.0699	5	C10H9+
134.0187	14	C8H6S+
141.0693	4	C11H9+
145.0648	15	C10H9O+
147.0269	3	C9H7S+
155.0604	25	C10H7N2+
