Mass spectrum: Cefalexin; LC-ESI-QFT; MS2; CE: 15; R=35000; [M-H]-
Name: Cefalexin
Name: 7-[(2-amino-1-oxo-2-phenylethyl)amino]-3-methyl-8-oxo-5-thia-1-azabicyclo[4.2.0]oct-2-ene-2-carboxylic acid
Formula: C16H17N3O4S
Exact mass: 347.09398
SMILES: CC1=C(N2C(C(C2=O)NC(=O)C(C3=CC=CC=C3)N)SC1)C(=O)O
InChI: InChI=1S/C16H17N3O4S/c1-8-7-24-15-11(14(21)19(15)12(8)16(22)23)18-13(20)10(17)9-5-3-2-4-6-9/h2-6,10-11,15H,7,17H2,1H3,(H,18,20)(H,22,23)
Instrument: Q Exactive Orbitrap Thermo Scientific
Instrument type: LC-ESI-QFT
Ms type: MS2
Ion mode: NEGATIVE
Ionization: ESI
Fragmentation mode: HCD
Collision energy: 15 (nominal)
Resolution: 35000
Column name: XBridge C18 3.5um, 2.1x50mm, Waters
Retention time: 4.4 min
Base peak: 346.0868
Precursor m/z: 346.0867
Precursor type: [M-H]-
m/z	relative intensity	assigned
57.9757	1	CNS-
71.9913	2	C2H2NS-
73.0117	6	C3H5S-
74.0071	3	C2H4NS-
96.0456	3	C5H6NO-
96.9992	1	C4H3NS-
99.9861	1	C3H2NOS-
100.0226	12	C4H6NS-
100.0404	1	C4H6NO2-
102.0019	6	C3H4NOS-
102.0349	8	C7H4N-
102.0383	10	C4H8NS-
104.0507	1	C7H6N-
107.0615	28	C6H7N2-
108.0457	1	C6H6NO-
109.0771	100	C6H9N2-
112.0227	23	C5H6NS-
112.0405	36	C5H6NO2-
116.0507	1	C8H6N-
119.0616	4	C7H7N2-
121.0773	9	C7H9N2-
123.0565	1	C6H7N2O-
124.0227	8	C6H6NS-
124.0404	27	C6H6NO2-
126.0198	9	C5H4NO3-
126.0383	23	C6H8NS-
128.0177	1	C5H6NOS-
129.0014	2	C5H5O2S-
134.061	1	C8H8NO-
135.0565	82	C7H7N2O-
137.0719	6	C7H9N2O-
139.0874	3	C7H11N2O-
140.0354	16	C6H6NO3-
142.0332	25	C6H8NOS-
147.0565	13	C8H7N2O-
149.072	12	C8H9N2O-
151.0513	33	C7H7N2O2-
152.0175	17	C7H6NOS-
156.0125	72	C6H6NO2S-
158.028	16	C6H8NO2S-
159.0563	9	C9H7N2O-
162.0436	15	C8H6N2O2-
163.0514	18	C8H7N2O2-
165.0669	88	C8H9N2O2-
166.0332	30	C8H8NOS-
169.0441	41	C7H9N2OS-
171.0564	2	C10H7N2O-
172.0881	1	C10H10N3-
173.0483	7	C10H7NO2-
173.0719	116	C10H9N2O-
175.0512	12	C9H7N2O2-
181.0648	8	C11H7N3-
187.0514	24	C10H7N2O2-
189.067	284	C10H9N2O2-
190.0332	1	C10H8NOS-
196.0074	24	C8H6NO3S-
196.031	8	C8H8N2O2S-
197.1084	4	C13H13N2-
200.059	2	C11H8N2O2-
201.067	33	C11H9N2O2-
205.0443	10	C10H9N2OS-
207.0597	222	C10H11N2OS-
207.0925	17	C14H11N2-
212.1194	1	C13H14N3-
213.034	2	C8H9N2O3S-
213.1031	1	C13H13N2O-
216.0777	149	C11H10N3O2-
219.0775	37	C11H11N2O3-
224.1193	156	C14H14N3-
225.1033	49	C14H13N2O-
231.1137	1	C13H15N2O2-
233.039	399	C11H9N2O2S-
240.1143	79	C14H14N3O-
241.0981	11	C14H13N2O2-
251.0827	20	C15H11N2O2-
252.0903	17	C15H12N2O2-
256.1092	91	C14H14N3O2-
258.1069	20	C14H16N3S-
259.0911	16	C14H15N2OS-
268.1092	999	C15H14N3O2-
269.0937	1	C15H13N2O3-
274.1021	8	C14H16N3OS-
275.0861	209	C14H15N2O2S-
302.0969	224	C15H16N3O2S-
312.0991	84	C16H14N3O4-
