Mass spectrum: Dienogest; LC-ESI-QFT; MS2; CE: 60; R=35000; [M+H]+
Name: Dienogest
Name: 2-[(8S,13S,14S,17R)-17-hydroxy-13-methyl-3-oxo-1,2,6,7,8,11,12,14,15,16-decahydrocyclopenta[a]phenanthren-17-yl]acetonitrile
Formula: C20H25NO2
Exact mass: 311.18853
SMILES: C[C@]12CCC3=C4CCC(=O)C=C4CC[C@H]3[C@@H]1CC[C@]2(CC#N)O
InChI: InChI=1S/C20H25NO2/c1-19-8-6-16-15-5-3-14(22)12-13(15)2-4-17(16)18(19)7-9-20(19,23)10-11-21/h12,17-18,23H,2-10H2,1H3/t17-,18+,19+,20-/m1/s1
Instrument: Q Exactive Orbitrap Thermo Scientific
Instrument type: LC-ESI-QFT
Ms type: MS2
Ion mode: POSITIVE
Ionization: ESI
Fragmentation mode: HCD
Collision energy: 60 (nominal)
Resolution: 35000
Column name: XBridge C18 3.5um, 2.1x50mm, Waters
Retention time: 8.2 min
Base peak: 312.1959
Precursor m/z: 312.1958
Precursor type: [M+H]+
m/z	relative intensity	assigned
65.0386	3	C5H5+
67.0542	49	C5H7+
68.0494	2	C4H6N+
69.0335	3	C4H5O+
69.0699	11	C5H9+
70.0651	17	C4H8N+
71.0491	2	C4H7O+
77.0385	11	C6H5+
79.0542	202	C6H7+
80.0495	2	C5H6N+
80.062	1	C6H8+
81.0699	92	C6H9+
82.0652	2	C5H8N+
83.0491	94	C5H7O+
85.0651	1	C5H9O+
91.0542	428	C7H7+
92.062	3	C7H8+
93.0699	246	C7H9+
94.0652	6	C6H8N+
95.0491	22	C6H7O+
95.0855	62	C7H11+
96.0444	2	C5H6NO+
96.0807	3	C6H10N+
97.0648	65	C6H9O+
103.0542	10	C8H7+
104.0494	2	C7H6N+
105.0699	301	C8H9+
106.0652	12	C7H8N+
106.0778	7	C8H10+
107.0492	231	C7H7O+
107.0855	167	C8H11+
108.0808	25	C7H10N+
109.0648	96	C7H9O+
109.1012	12	C8H13+
110.0726	8	C7H10O+
111.0805	3	C7H11O+
115.0542	31	C9H7+
116.062	9	C9H8+
117.0699	229	C9H9+
118.065	11	C8H8N+
118.0778	2	C9H10+
119.0855	268	C9H11+
120.057	6	C8H8O+
120.0808	64	C8H10N+
121.0648	43	C8H9O+
121.1012	22	C9H13+
122.0964	11	C8H12N+
123.0804	57	C8H11O+
128.062	55	C10H8+
129.0699	99	C10H9+
130.0651	14	C9H8N+
130.0777	16	C10H10+
131.0494	14	C9H7O+
131.0731	15	C9H9N+
131.0856	219	C10H11+
132.057	23	C9H8O+
132.0808	121	C9H10N+
132.0935	6	C10H12+
133.0648	305	C9H9O+
133.1012	181	C10H13+
134.0726	23	C9H10O+
134.0964	53	C9H12N+
135.0804	999	C9H11O+
137.0959	3	C9H13O+
141.0699	71	C11H9+
142.0778	14	C11H10+
143.0856	164	C11H11+
144.057	21	C10H8O+
144.081	19	C10H10N+
144.0933	18	C11H12+
145.0649	37	C10H9O+
145.1013	77	C11H13+
146.0727	59	C10H10O+
146.0964	79	C10H12N+
147.0805	147	C10H11O+
147.117	16	C11H15+
148.0757	3	C9H10NO+
148.0883	62	C10H12O+
148.1121	22	C10H14N+
149.0962	58	C10H13O+
153.0698	12	C12H9+
154.0781	3	C12H10+
155.0605	3	C10H7N2+
155.0856	54	C12H11+
156.0937	4	C12H12+
157.0649	75	C11H9O+
157.1012	62	C12H13+
158.0966	52	C11H12N+
158.1091	4	C12H14+
159.0805	568	C11H11O+
159.1168	38	C12H15+
160.0885	14	C11H12O+
160.112	10	C11H14N+
161.0961	828	C11H13O+
162.1039	172	C11H14O+
163.1119	12	C11H15O+
164.0832	7	C10H12O2+
165.0699	9	C13H9+
166.0776	6	C13H10+
167.0856	30	C13H11+
168.0936	4	C13H12+
169.0761	7	C11H9N2+
169.1012	52	C13H13+
170.0965	9	C12H12N+
171.0804	18	C12H11O+
171.1168	42	C13H15+
172.0883	2	C12H12O+
172.1121	26	C12H14N+
173.0961	66	C12H13O+
174.0921	4	C11H12NO+
174.1039	26	C12H14O+
175.1117	45	C12H15O+
176.1069	6	C11H14NO+
176.1197	2	C12H16O+
178.0777	6	C14H10+
179.0856	20	C14H11+
180.0936	11	C14H12+
181.1013	30	C14H13+
182.0965	9	C13H12N+
182.1093	10	C14H14+
183.0805	9	C13H11O+
183.1169	43	C14H15+
184.0885	2	C13H12O+
184.1121	27	C13H14N+
184.1249	6	C14H16+
185.0961	21	C13H13O+
185.1326	21	C14H17+
186.1039	3	C13H14O+
186.1279	2	C13H16N+
187.112	17	C13H15O+
188.1068	6	C12H14NO+
188.1196	2	C13H16O+
190.1235	1	C12H16NO+
191.0859	3	C15H11+
192.0936	9	C15H12+
193.1011	34	C15H13+
194.109	8	C15H14+
195.0804	3	C14H11O+
195.1167	45	C15H15+
196.0883	2	C14H12O+
196.1121	3	C14H14N+
196.1249	8	C15H16+
197.0962	24	C14H13O+
197.1325	24	C15H17+
198.1039	7	C14H14O+
198.1278	11	C14H16N+
198.1404	3	C15H18+
199.1116	17	C14H15O+
200.107	2	C13H14NO+
200.1196	7	C14H16O+
201.1275	13	C14H17O+
202.123	2	C13H16NO+
202.1351	2	C14H18O+
203.0855	2	C16H11+
204.0929	3	C16H12+
205.1016	6	C16H13+
206.1097	2	C16H14+
207.1171	30	C16H15+
208.1124	2	C15H14N+
208.1247	1	C16H16+
209.0965	12	C15H13O+
209.1324	25	C16H17+
210.1037	3	C15H14O+
210.1279	3	C15H16N+
210.14	2	C16H18+
211.1119	41	C15H15O+
211.1482	60	C16H19+
212.1073	2	C14H14NO+
212.1198	7	C15H16O+
212.1437	3	C15H18N+
213.1275	42	C15H17O+
214.1353	10	C15H18O+
215.1435	8	C15H19O+
216.1498	1	C15H20O+
217.1018	2	C17H13+
218.109	3	C17H14+
219.1173	3	C17H15+
220.1127	2	C16H14N+
220.1247	7	C17H16+
221.096	3	C16H13O+
221.1327	16	C17H17+
222.1281	3	C16H16N+
223.1125	2	C16H15O+
223.1479	3	C17H19+
224.1435	7	C16H18N+
225.1275	40	C16H17O+
225.1638	13	C17H21+
226.1353	2	C16H18O+
227.1429	6	C16H19O+
229.1589	10	C16H21O+
233.133	4	C18H17+
235.1117	3	C17H15O+
235.1481	28	C18H19+
236.1433	11	C17H18N+
236.1556	3	C18H20+
237.1269	2	C17H17O+
238.1354	9	C17H18O+
239.1431	27	C17H19O+
242.1544	3	C16H20NO+
243.1385	6	C16H19O2+
248.1195	1	C18H16O+
249.1277	5	C18H17O+
249.164	3	C19H21+
250.16	3	C18H20N+
251.1432	16	C18H19O+
252.1388	2	C17H18NO+
252.1747	8	C18H22N+
253.1588	94	C18H21O+
254.1544	6	C17H20NO+
254.1666	87	C18H22O+
256.1455	2	C17H20O2+
266.154	6	C18H20NO+
267.1745	7	C19H23O+
269.1537	10	C18H21O2+
271.1693	53	C18H23O2+
276.1746	7	C20H22N+
277.159	3	C20H21O+
279.1611	2	C19H21NO+
284.1653	8	C18H22NO2+
292.1689	2	C20H22NO+
294.1855	39	C20H24NO+
312.1959	247	C20H26NO2+
