Mass spectrum: Alfuzosin; LC-ESI-QFT; MS2; CE: 30; R=35000; [M-H]-
Name: Alfuzosin
Name: N-{3-[(4-Amino-6,7-dimethoxy-2-quinazolinyl)(methyl)amino]propyl}tetrahydro-2-furancarboxamide
Name: N-[3-[(4-amino-6,7-dimethoxyquinazolin-2-yl)-methylamino]propyl]oxolane-2-carboxamide
Formula: C19H27N5O4
Exact mass: 389.20630
SMILES: CN(CCCNC(=O)C1CCCO1)C2=NC3=CC(=C(C=C3C(=N2)N)OC)OC
InChI: InChI=1S/C19H27N5O4/c1-24(8-5-7-21-18(25)14-6-4-9-28-14)19-22-13-11-16(27-3)15(26-2)10-12(13)17(20)23-19/h10-11,14H,4-9H2,1-3H3,(H,21,25)(H2,20,22,23)
Instrument: Q Exactive Plus Orbitrap Thermo Scientific
Instrument type: LC-ESI-QFT
Ms type: MS2
Ion mode: NEGATIVE
Ionization: ESI
Fragmentation mode: HCD
Collision energy: 30 (nominal)
Resolution: 35000
Column name: XBridge C18 3.5um, 2.1x50mm, Waters
Retention time: 5.3 min
Base peak: 434.2043
Precursor m/z: 388.199
Precursor type: [M-H]-
m/z	relative intensity	assigned
55.0301	12	C2H3N2-
72.0092	1	C2H2NO2-
84.0455	7	C4H6NO-
114.056	53	C5H8NO2-
162.0435	58	C8H6N2O2-
177.0669	94	C9H9N2O2-
185.1292	2	C9H17N2O2-
187.0387	7	C9H5N3O2-
188.0463	1	C9H6N3O2-
202.0622	34	C10H8N3O2-
203.0576	3	C9H7N4O2-
203.07	38	C10H9N3O2-
210.1248	67	C10H16N3O2-
216.0648	1	C10H8N4O2-
216.0778	2	C11H10N3O2-
217.0731	146	C10H9N4O2-
218.0809	87	C10H10N4O2-
230.0801	2	C11H10N4O2-
231.0886	34	C11H11N4O2-
232.0961	1	C11H12N4O2-
233.1044	198	C11H13N4O2-
235.0595	1	C10H9N3O4-
243.0887	2	C12H11N4O2-
244.0969	1	C12H12N4O2-
245.1044	222	C12H13N4O2-
258.112	22	C13H14N4O2-
259.1198	4	C13H15N4O2-
273.1356	34	C14H17N4O2-
274.131	1	C13H16N5O2-
275.1387	1	C13H17N5O2-
290.1622	15	C14H20N5O2-
302.1258	53	C14H16N5O3-
303.1339	1	C14H17N5O3-
317.1496	1	C15H19N5O3-
329.1257	3	C16H17N4O4-
330.1195	3	C15H16N5O4-
330.1569	4	C16H20N5O3-
331.1414	2	C16H19N4O4-
342.1572	3	C17H20N5O3-
344.149	2	C17H20N4O4-
345.1442	44	C16H19N5O4-
358.1522	216	C17H20N5O4-
360.1674	1	C17H22N5O4-
372.1683	2	C18H22N5O4-
373.1755	999	C18H23N5O4-
388.1991	831	C19H26N5O4-
