Mass spectrum: Ciprofloxacin; LC-ESI-ITFT; MS2; CE: 60%; R=15000; [M+H]+
Name: Ciprofloxacin
Name: 1-cyclopropyl-6-fluoro-4-keto-7-piperazin-4-ium-1-yl-quinoline-3-carboxylate
Formula: C17H18FN3O3
Exact mass: 331.1332
SMILES: C(C1)C1N(C=C(C-2=O)C(=O)O)-c(cc(c3F)N(CCN4)CC4)c2c3
InChI: InChI=1S/C17H18FN3O3/c18-13-7-11-14(8-15(13)20-5-3-19-4-6-20)21(10-1-2-10)9-12(16(11)22)17(23)24/h7-10,19H,1-6H2,(H,23,24)
Instrument: LTQ Orbitrap XL Thermo Scientific
Instrument type: LC-ESI-ITFT
Ms type: MS2
Ion mode: POSITIVE
Ionization: ESI
Fragmentation mode: HCD
Collision energy: 60 % (nominal)
Resolution: 15000
Column name: XBridge C18 3.5um, 2.1x50mm, Waters
Retention time: 4.5 min
Base peak: 332.1415
Precursor m/z: 332.1405
Precursor type: [M+H]+
m/z	relative intensity	assigned
56.0495	1	C3H6N+
58.0652	1	C3H8N+
70.0652	9	C4H8N+
116.0496	2	C8H6N+
131.0603	1	C8H7N2+
135.0479	10	C8H6FN+
136.0558	12	C8H7FN+
148.0559	2	C9H7FN+
150.0713	2	C9H9FN+
151.0669	1	C8H8FN2+
154.0655	1	C11H8N+
155.0603	2	C10H7N2+
156.0684	2	C10H8N2+
156.0807	1	C11H10N+
161.0511	3	C9H6FN2+
161.0634	1	C10H8FN+
162.0346	1	C9H5FNO+
162.0714	2	C10H9FN+
163.0425	1	C9H6FNO+
163.0668	8	C9H8FN2+
169.0762	4	C11H9N2+
172.0553	1	C11H7FN+
174.059	3	C10H7FN2+
174.0716	1	C11H9FN+
175.0668	5	C10H8FN2+
175.0793	4	C11H10FN+
176.0509	4	C10H7FNO+
176.0745	16	C10H9FN2+
177.0579	1	C10H8FNO+
177.0821	1	C10H10FN2+
178.054	5	C9H7FN2O+
179.0612	1	C9H8FN2O+
182.0842	2	C12H10N2+
183.0686	1	C12H9NO+
183.0917	3	C12H11N2+
184.0634	8	C11H8N2O+
184.0758	2	C12H10NO+
185.0706	2	C11H9N2O+
186.0718	1	C12H9FN+
187.0668	4	C11H8FN2+
188.0506	2	C11H7FNO+
188.0744	1	C11H9FN2+
189.046	36	C10H6FN2O+
189.0824	16	C11H10FN2+
190.0538	4	C10H7FN2O+
190.0904	2	C11H11FN2+
191.0616	34	C10H8FN2O+
192.0694	2	C10H9FN2O+
195.0323	1	C9H6FNO3+
197.0711	4	C12H9N2O+
197.1074	2	C13H13N2+
198.0661	2	C11H8N3O+
199.0739	2	C11H9N3O+
200.0497	1	C12H7FNO+
201.0584	2	C12H8FNO+
201.0826	3	C12H10FN2+
202.054	4	C11H7FN2O+
202.0665	9	C12H9FNO+
202.0902	4	C12H11FN2+
203.0617	98	C11H8FN2O+
203.0983	7	C12H12FN2+
204.0695	117	C11H9FN2O+
205.0773	81	C11H10FN2O+
207.0915	1	C14H11N2+
210.0796	1	C10H11FN2O2+
210.1032	1	C10H13FN3O+
212.082	5	C12H10N3O+
212.1173	1	C13H14N3+
215.0617	7	C12H8FN2O+
215.0982	5	C13H12FN2+
216.0697	8	C12H9FN2O+
216.1055	3	C13H13FN2+
217.041	5	C11H6FN2O2+
217.0774	22	C12H10FN2O+
217.0899	5	C13H12FNO+
217.1138	13	C13H14FN2+
218.049	10	C11H7FN2O2+
218.0852	11	C12H11FN2O+
219.0928	8	C12H12FN2O+
222.1028	1	C14H12N3+
224.0827	1	C10H11FN3O2+
225.0537	3	C14H9O3+
225.0656	2	C13H9N2O2+
225.1024	10	C14H13N2O+
226.0976	6	C13H12N3O+
229.0406	1	C15H5N2O+
229.0773	17	C13H10FN2O+
230.049	2	C12H7FN2O2+
230.0851	6	C13H11FN2O+
231.0567	999	C12H8FN2O2+
231.0924	69	C13H12FN2O+
232.0995	2	C13H13FN2O+
235.064	5	C12H10FNO3+
238.0976	6	C14H12N3O+
238.1345	2	C15H16N3+
239.1055	2	C14H13N3O+
240.1129	3	C14H14N3O+
243.0566	7	C13H8FN2O2+
243.0928	7	C14H12FN2O+
245.1086	269	C14H14FN2O+
248.0833	1	C17H12O2+
249.0671	11	C12H10FN2O3+
252.113	2	C15H14N3O+
253.0849	5	C14H11N3O2+
257.0725	1	C14H10FN2O2+
257.1087	5	C15H14FN2O+
258.0679	1	C13H9FN3O2+
258.1407	2	C15H17FN3+
260.1191	2	C14H15FN3O+
266.0923	5	C15H12N3O2+
266.1291	5	C16H16N3O+
268.1449	11	C16H18N3O+
270.1399	1	C16H17FN3+
271.0876	6	C15H12FN2O2+
272.0831	12	C14H11FN3O2+
272.1195	10	C15H15FN3O+
273.0909	16	C16H14FO3+
286.1351	11	C16H17FN3O+
288.1513	17	C16H19FN3O+
289.0994	1	C15H14FN2O3+
294.1236	55	C17H16N3O2+
312.1344	14	C17H18N3O3+
314.1302	439	C17H17FN3O2+
332.1408	133	C17H19FN3O3+
