Mass spectrum: Ciprofloxacin; LC-ESI-ITFT; MS2; CE: 45%; R=15000; [M+H]+
Name: Ciprofloxacin
Name: 1-cyclopropyl-6-fluoro-4-keto-7-piperazin-4-ium-1-yl-quinoline-3-carboxylate
Formula: C17H18FN3O3
Exact mass: 331.1332
SMILES: C(C1)C1N(C=C(C-2=O)C(=O)O)-c(cc(c3F)N(CCN4)CC4)c2c3
InChI: InChI=1S/C17H18FN3O3/c18-13-7-11-14(8-15(13)20-5-3-19-4-6-20)21(10-1-2-10)9-12(16(11)22)17(23)24/h7-10,19H,1-6H2,(H,23,24)
Instrument: LTQ Orbitrap XL Thermo Scientific
Instrument type: LC-ESI-ITFT
Ms type: MS2
Ion mode: POSITIVE
Ionization: ESI
Fragmentation mode: HCD
Collision energy: 45 % (nominal)
Resolution: 15000
Column name: XBridge C18 3.5um, 2.1x50mm, Waters
Retention time: 4.5 min
Base peak: 332.1415
Precursor m/z: 332.1405
Precursor type: [M+H]+
m/z	relative intensity	assigned
70.0652	7	C4H8N+
135.0481	2	C8H6FN+
136.0557	2	C8H7FN+
151.0663	1	C8H8FN2+
163.067	2	C9H8FN2+
176.0745	1	C10H9FN2+
178.0545	1	C9H7FN2O+
189.0458	2	C10H6FN2O+
189.0826	2	C11H10FN2+
190.053	1	C10H7FN2O+
191.0617	13	C10H8FN2O+
192.0692	2	C10H9FN2O+
198.066	4	C11H8N3O+
202.0536	2	C11H7FN2O+
202.0668	1	C12H9FNO+
203.0616	26	C11H8FN2O+
203.0979	2	C12H12FN2+
204.0695	46	C11H9FN2O+
205.0773	41	C11H10FN2O+
212.0818	4	C12H10N3O+
213.102	2	C13H13N2O+
216.0696	2	C12H9FN2O+
217.0773	8	C12H10FN2O+
217.0906	2	C13H12FNO+
217.1137	5	C13H14FN2+
218.0485	1	C11H7FN2O2+
218.0853	8	C12H11FN2O+
219.0928	10	C12H12FN2O+
225.1022	2	C14H13N2O+
226.0977	3	C13H12N3O+
227.105	8	C13H13N3O+
229.0777	3	C13H10FN2O+
230.085	3	C13H11FN2O+
231.0567	94	C12H8FN2O2+
231.0929	57	C13H12FN2O+
232.1009	3	C13H13FN2O+
235.0642	1	C12H10FNO3+
238.0972	1	C14H12N3O+
239.1053	3	C14H13N3O+
240.1134	5	C14H14N3O+
243.0928	2	C14H12FN2O+
245.1088	404	C14H14FN2O+
257.1085	1	C15H14FN2O+
260.1199	1	C14H15FN3O+
260.1551	2	C15H19FN3+
266.1294	1	C16H16N3O+
268.1446	54	C16H18N3O+
271.0877	7	C15H12FN2O2+
271.124	4	C16H16FN2O+
272.0839	2	C14H11FN3O2+
272.1199	2	C15H15FN3O+
273.0909	8	C16H14FO3+
286.1351	22	C16H17FN3O+
288.1508	255	C16H19FN3O+
289.0983	3	C15H14FN2O3+
294.1237	26	C17H16N3O2+
312.1346	5	C17H18N3O3+
314.1299	999	C17H17FN3O2+
332.1408	343	C17H19FN3O3+
