Mass spectrum: Deferasirox; LC-ESI-QFT; MS2; CE: 45; R=35000; [M+H]+
Name: Deferasirox
Formula: C21H15N3O4
Exact mass: 373.10626
SMILES: OC(=O)c1ccc(cc1)n2nc(nc2c3ccccc3O)c4ccccc4O
InChI: InChI=1S/C21H15N3O4/c25-17-7-3-1-5-15(17)19-22-20(16-6-2-4-8-18(16)26)24(23-19)14-11-9-13(10-12-14)21(27)28/h1-12,25-26H,(H,27,28)
Instrument: Q Exactive Orbitrap Thermo Scientific
Instrument type: LC-ESI-QFT
Ms type: MS2
Ion mode: POSITIVE
Ionization: ESI
Fragmentation mode: HCD
Collision energy: 45 (nominal)
Resolution: 35000
Column name: XBridge C18 3.5um, 2.1x50mm, Waters
Retention time: 13.1 min
Base peak: 374.1137
Precursor m/z: 374.1135
Precursor type: [M+H]+
m/z	relative intensity	assigned
65.0386	4	C5H5+
80.0495	9	C5H6N+
81.0336	1	C5H5O+
90.0339	1	C6H4N+
92.0495	8	C6H6N+
108.0444	32	C6H6NO+
118.0287	8	C7H4NO+
119.0366	2	C7H5NO+
120.0444	19	C7H6NO+
129.07	1	C10H9+
136.0393	61	C7H6NO2+
137.0471	3	C7H7NO2+
153.07	2	C12H9+
154.0499	3	C7H8NO3+
155.0856	2	C12H11+
156.0808	5	C11H10N+
165.0699	3	C13H9+
166.0652	5	C12H8N+
167.073	1	C12H9N+
181.0648	7	C13H9O+
181.0757	2	C12H9N2+
182.06	1	C12H8NO+
182.084	5	C12H10N2+
183.0683	1	C12H9NO+
183.0799	1	C13H11O+
183.0917	11	C12H11N2+
184.0758	16	C12H10NO+
193.076	1	C13H9N2+
194.0603	2	C13H8NO+
196.0761	2	C13H10NO+
207.0683	1	C14H9NO+
209.0602	1	C14H9O2+
209.0709	7	C13H9N2O+
210.0552	1	C13H8NO2+
210.0789	4	C13H10N2O+
211.0866	25	C13H11N2O+
212.0704	2	C13H10NO2+
224.0704	1	C14H10NO2+
225.0785	6	C14H11NO2+
227.0812	5	C13H11N2O2+
228.0658	1	C13H10NO3+
237.0659	18	C14H9N2O2+
239.0577	8	C14H9NO3+
240.0654	25	C14H10NO3+
255.0765	23	C14H11N2O3+
301.1096	2	C20H15NO2+
328.1087	1	C20H14N3O2+
330.1243	5	C20H16N3O2+
331.1079	9	C20H15N2O3+
346.1187	46	C20H16N3O3+
356.1028	2	C21H14N3O3+
374.1136	999	C21H16N3O4+
