Mass spectrum: S-Methoprene; LC-ESI-QFT; MS2; CE: 75%; R=17500; [M+H]+
Name: S-Methoprene
Name: (+)-Methoprene;(7S)-Methoprene;ZR 2458
Name: propan-2-yl 11-methoxy-3,7,11-trimethyldodeca-2,4-dienoate
Formula: C19H34O3
Exact mass: 310.2508
SMILES: CC(C)OC(=O)C=C(C)C=CCC(C)CCCC(C)(C)OC
InChI: InChI=1S/C19H34O3/c1-15(2)22-18(20)14-17(4)11-8-10-16(3)12-9-13-19(5,6)21-7/h8,11,14-16H,9-10,12-13H2,1-7H3
Instrument: Exploris 240 Orbitrap Thermo Scientific
Instrument type: LC-ESI-QFT
Ms type: MS2
Ion mode: POSITIVE
Ionization: ESI
Fragmentation mode: HCD
Collision energy: 75 % (nominal)
Resolution: 17500
Column name: XBridge C18 3.5um, 2.1x50mm, Waters
Retention time: 16.124 min
Base peak: 279.2317
Precursor m/z: 311.2581
Precursor type: [M+H]+
m/z	relative intensity	assigned
53.0388	51	C4H5+
55.0542	562	C4H7+
57.0699	111	C4H9+
67.0542	457	C5H7+
69.0335	49	C4H5O+
69.0699	618	C5H9+
77.0389	56	C6H5+
79.0543	590	C6H7+
81.0699	999	C6H9+
83.0856	119	C6H11+
85.0648	55	C5H9O+
91.0543	194	C7H7+
93.0699	643	C7H9+
95.0493	101	C6H7O+
95.0856	650	C7H11+
97.065	92	C6H9O+
105.0701	106	C8H9+
107.0856	458	C8H11+
109.0648	68	C7H9O+
109.1011	253	C8H13+
111.0805	43	C7H11O+
119.0855	55	C9H11+
121.0649	74	C8H9O+
121.1012	254	C9H13+
123.1168	39	C9H15+
