Mass spectrum: Fenarimol; LC-ESI-QFT; MS2; CE: 90%; R=17500; [M+H]+
Name: Fenarimol
Name: (2-chlorophenyl)-(4-chlorophenyl)-pyrimidin-5-ylmethanol
Formula: C17H12Cl2N2O
Exact mass: 330.0327
SMILES: C1=CC=C(C(=C1)C(C2=CC=C(C=C2)Cl)(C3=CN=CN=C3)O)Cl
InChI: InChI=1S/C17H12Cl2N2O/c18-14-7-5-12(6-8-14)17(22,13-9-20-11-21-10-13)15-3-1-2-4-16(15)19/h1-11,22H
Instrument: Exploris 240 Orbitrap Thermo Scientific
Instrument type: LC-ESI-QFT
Ms type: MS2
Ion mode: POSITIVE
Ionization: ESI
Fragmentation mode: HCD
Collision energy: 90 % (nominal)
Resolution: 17500
Column name: XBridge C18 3.5um, 2.1x50mm, Waters
Retention time: 9.833 min
Base peak: 328.0614
Precursor m/z: 331.0399
Precursor type: [M+H]+
m/z	relative intensity	assigned
52.0184	19	C3H2N+
54.0338	434	C3H4N+
81.0447	999	C4H5N2+
86.9997	25	C4H4Cl+
110.9995	56	C6H4Cl+
129.0102	32	C6H6ClO+
130.0651	24	C9H8N+
138.9945	737	C7H4ClO+
139.0062	277	C6H4ClN2+
158.0598	10	C10H8NO+
165.0695	30	C13H9+
176.0623	19	C14H8+
178.0784	76	C14H10+
188.0626	26	C15H8+
189.0699	579	C15H9+
199.0311	30	C13H8Cl+
203.0733	23	C15H9N+
204.0801	114	C15H10N+
212.0388	14	C14H9Cl+
214.0652	14	C16H8N+
216.0805	75	C16H10N+
219.032	20	C11H8ClN2O+
223.0306	154	C15H8Cl+
232.0767	25	C13H13ClN2+
232.9914	47	C13H7Cl2+
233.0838	21	C16H11NO+
238.0413	52	C15H9ClN+
240.0576	33	C15H11ClN+
242.0831	22	C17H10N2+
250.042	35	C16H9ClN+
251.0507	11	C16H10ClN+
252.0336	39	C16H9ClO+
266.0368	36	C13H12Cl2N2+
