Mass spectrum: Nystatin; LC-ESI-QFT; MS2; CE: 90; R=35000; [M-H]-
Name: Nystatin
Name: (1S,3R,4R,7R,9R,11R,15S,16R,17R,18S,19E,21E,25E,27E,29E,31E,33R,35S,36R,37S)-33-[(3-Amino-3,6-dideoxy-?-D-mannopyranosyl)oxy]-1,3,4,7,9,11,17,37-octahydroxy-15,16,18-trimethyl-13-oxo-14,39-dioxabic yclo[33.3.1]nonatriaconta-19,21,25,27,29,31-hexaene-36-carboxylic acid
Formula: C47H75NO17
Exact mass: 925.50350
SMILES: CC1C=CC=CCCC=CC=CC=CC=CC(CC2C(C(CC(O2)(CC(C(CCC(CC(CC(CC(=O)OC(C(C1O)C)C)O)O)O)O)O)O)O)C(=O)O)OC3C(C(C(C(O3)C)O)N)O
InChI: InChI=1S/C47H75NO17/c1-27-17-15-13-11-9-7-5-6-8-10-12-14-16-18-34(64-46-44(58)41(48)43(57)30(4)63-46)24-38-40(45(59)60)37(54)26-47(61,65-38)25-36(53)35(52)20-19-31(49)21-32(50)22-33(51)23-39(55)62-29(3)28(2)42(27)56/h5-6,8,10-18,27-38,40-44,46,49-54,56-58,61H,7,9,19-26,48H2,1-4H3,(H,59,60)/b6-5+,10-8+,13-11+,14-12+,17-15+,18-16+/t27-,28-,29-,30+,31+,32+,33+,34-,35+,36+,37-,38-,40+,41-,42+,43+,44-,46-,47+/m0/s1
Instrument: Q Exactive Orbitrap Thermo Scientific
Instrument type: LC-ESI-QFT
Ms type: MS2
Ion mode: NEGATIVE
Ionization: ESI
Fragmentation mode: HCD
Collision energy: 90 (nominal)
Resolution: 35000
Column name: XBridge C18 3.5um, 2.1x50mm, Waters
Retention time: 11.6 min
Base peak: 924.4966
Precursor m/z: 924.4962
Precursor type: [M-H]-
m/z	relative intensity	assigned
129.0712	500	C10H9-
130.0426	741	C9H6O-
131.0501	999	C9H7O-
133.0661	488	C9H9O-
134.0374	93	C8H6O2-
135.0454	110	C8H7O2-
135.0818	92	C9H11O-
137.0611	615	C8H9O2-
139.0405	92	C7H7O3-
141.071	126	C11H9-
143.0502	497	C10H7O-
143.0867	120	C11H11-
145.0659	650	C10H9O-
147.0451	891	C9H7O2-
147.0815	188	C10H11O-
148.0532	96	C9H8O2-
149.0612	144	C9H9O2-
156.0583	94	C11H8O-
157.0658	189	C11H9O-
161.0609	106	C10H9O2-
169.0659	482	C12H9O-
169.1024	86	C13H13-
173.0609	101	C11H9O2-
181.0661	117	C13H9O-
183.0816	248	C13H11O-
195.0818	152	C14H11O-
197.097	505	C14H13O-
209.098	122	C15H13O-
