Mass spectrum: N-Ethylperfluorooctane sulfonamidoacetic acid; LC-ESI-ITFT; MS2; CE: 30%; R=15000; [M-H]-
Name: N-Ethylperfluorooctane sulfonamidoacetic acid
Name: 2-[ethyl(1,1,2,2,3,3,4,4,5,5,6,6,7,7,8,8,8-heptadecafluorooctylsulfonyl)amino]acetic acid
Formula: C12H8F17NO4S
Exact mass: 584.9903
SMILES: FC(F)(C(F)(F)C(F)(F)C(F)(F)C(F)(F)C(F)(F)C(F)(F)C(F)(F)F)S(=O)(=O)N(CC(O)=O)CC
InChI: InChI=1S/C12H8F17NO4S/c1-2-30(3-4(31)32)35(33,34)12(28,29)10(23,24)8(19,20)6(15,16)5(13,14)7(17,18)9(21,22)11(25,26)27/h2-3H2,1H3,(H,31,32)
Instrument: LTQ Orbitrap XL Thermo Scientific
Instrument type: LC-ESI-ITFT
Ms type: MS2
Ion mode: NEGATIVE
Ionization: ESI
Fragmentation mode: HCD
Collision energy: 30 % (nominal)
Resolution: 15000
Column name: XBridge C18 3.5um, 2.1x50mm, Waters
Retention time: 16.9 min
Base peak: 583.9827
Precursor m/z: 583.983
Precursor type: [M-H]-
m/z	relative intensity	assigned
168.9894	671	C3F7-
218.9856	999	C4F9-
268.9818	328	C5F11-
