Mass spectrum: Simvastatin; LC-ESI-QFT; MS2; CE: 45; R=35000; [M+H]+
Name: Simvastatin
Name: (1S,3R,7S,8S,8aR)-8-{2-[(2R,4R)-4-hydroxy-6-oxotetrahydro-2H-pyran-2-yl]ethyl}-3,7-dimethyl-1,2,3,7,8,8a-hexahydronaphthalen-1-yl 2,2-dimethylbutanoate
Name: 2,2-dimethylbutanoic acid [(1S,3R,7S,8S,8aR)-8-[2-[(2R,4R)-4-hydroxy-6-oxo-2-oxanyl]ethyl]-3,7-dimethyl-1,2,3,7,8,8a-hexahydronaphthalen-1-yl] ester
Formula: C25H38O5
Exact mass: 418.27192
SMILES: O=C(O[C@@H]1[C@H]3C(=C/[C@H](C)C1)\C=C/[C@@H]([C@@H]3CC[C@H]2OC(=O)C[C@H](O)C2)C)C(C)(C)CC
InChI: InChI=1S/C25H38O5/c1-6-25(4,5)24(28)30-21-12-15(2)11-17-8-7-16(3)20(23(17)21)10-9-19-13-18(26)14-22(27)29-19/h7-8,11,15-16,18-21,23,26H,6,9-10,12-14H2,1-5H3/t15-,16-,18+,19+,20-,21-,23-/m0/s1
Instrument: Q Exactive Orbitrap Thermo Scientific
Instrument type: LC-ESI-QFT
Ms type: MS2
Ion mode: POSITIVE
Ionization: ESI
Fragmentation mode: HCD
Collision energy: 45 (nominal)
Resolution: 35000
Column name: XBridge C18 3.5um, 2.1x50mm, Waters
Retention time: 16.0 min
Base peak: 436.3049
Precursor m/z: 419.2792
Precursor type: [M+H]+
m/z	relative intensity	assigned
65.0384	3	C5H5+
67.0541	39	C5H7+
68.997	11	C3HO2+
69.0333	3	C4H5O+
69.0698	55	C5H9+
71.0127	17	C3H3O2+
71.049	14	C4H7O+
71.0854	14	C5H11+
77.0385	4	C6H5+
79.0541	224	C6H7+
81.0697	222	C6H9+
83.049	102	C5H7O+
83.0854	10	C6H11+
85.0646	45	C5H9O+
89.0232	15	C3H5O3+
91.0541	39	C7H7+
93.0697	96	C7H9+
95.049	16	C6H7O+
95.0854	65	C7H11+
97.0646	83	C6H9O+
103.0542	2	C8H7+
105.0697	213	C8H9+
107.0854	156	C8H11+
109.0647	16	C7H9O+
109.1009	22	C8H13+
111.0803	6	C7H11O+
115.0537	11	C9H7+
117.0696	41	C9H9+
119.0853	107	C9H11+
121.0643	4	C8H9O+
121.1009	67	C9H13+
123.0803	3	C8H11O+
125.0595	15	C7H9O2+
127.0752	2	C7H11O2+
128.0619	26	C10H8+
129.0697	33	C10H9+
130.0777	5	C10H10+
131.0853	270	C10H11+
133.0649	2	C9H9O+
133.1009	59	C10H13+
135.0803	13	C9H11O+
135.1168	12	C10H15+
141.0697	17	C11H9+
142.0776	37	C11H10+
143.0854	542	C11H11+
144.093	21	C11H12+
145.101	336	C11H13+
147.0803	11	C10H11O+
147.1167	27	C11H15+
149.096	16	C10H13O+
151.0754	18	C9H11O2+
155.0853	129	C12H11+
156.0932	48	C12H12+
157.101	300	C12H13+
158.1088	72	C12H14+
159.1166	386	C12H15+
160.1243	5	C12H16+
161.0957	4	C11H13O+
161.1323	13	C12H17+
163.1115	12	C11H15O+
165.0909	12	C10H13O2+
167.0853	12	C13H11+
168.0932	12	C13H12+
169.1009	297	C13H13+
170.1087	3	C13H14+
171.1165	306	C13H15+
173.1322	790	C13H17+
177.0908	4	C11H13O2+
179.0856	7	C14H11+
181.1008	46	C14H13+
182.1087	5	C14H14+
183.1166	215	C14H15+
184.1245	14	C14H16+
185.1322	68	C14H17+
187.1115	12	C13H15O+
191.1065	40	C12H15O2+
192.0932	5	C15H12+
193.1009	34	C15H13+
194.1087	5	C15H14+
195.1166	33	C15H15+
196.1243	15	C15H16+
197.1322	153	C15H17+
198.1402	16	C15H18+
199.1478	999	C15H19+
201.1634	109	C15H21+
203.1062	5	C13H15O2+
205.1009	10	C16H13+
205.1222	11	C13H17O2+
207.1164	62	C16H15+
208.124	4	C16H16+
209.1316	4	C16H17+
210.1403	19	C16H18+
211.1115	22	C15H15O+
211.1479	66	C16H19+
215.1791	21	C16H23+
217.1223	3	C14H17O2+
219.1167	16	C17H15+
220.125	6	C17H16+
221.1318	18	C17H17+
223.1478	130	C17H19+
225.1634	500	C17H21+
229.1222	19	C15H17O2+
234.1396	28	C18H18+
239.1422	4	C17H19O+
239.1793	52	C18H23+
243.1742	70	C17H23O+
249.1636	78	C19H21+
267.1735	20	C19H23O+
285.1846	14	C19H25O2+
