Mass spectrum: Cyanofenphos; LC-ESI-QFT; MS2; CE: 90%; R=17500; [M+H]+
Name: Cyanofenphos
Name: 4-[ethoxy(phenyl)phosphinothioyl]oxybenzonitrile
Formula: C15H14NO2PS
Exact mass: 303.0483
SMILES: CCOP(=S)(C1=CC=CC=C1)OC2=CC=C(C=C2)C#N
InChI: InChI=1S/C15H14NO2PS/c1-2-17-19(20,15-6-4-3-5-7-15)18-14-10-8-13(12-16)9-11-14/h3-11H,2H2,1H3
Instrument: Exploris 240 Orbitrap Thermo Scientific
Instrument type: LC-ESI-QFT
Ms type: MS2
Ion mode: POSITIVE
Ionization: ESI
Fragmentation mode: HCD
Collision energy: 90 % (nominal)
Resolution: 17500
Column name: XBridge C18 3.5um, 2.1x50mm, Waters
Retention time: 10.835 min
Base peak: 363.0217
Precursor m/z: 304.0556
Precursor type: [M+H]+
m/z	relative intensity	assigned
51.0228	77	C4H3+
53.0386	89	C4H5+
62.9452	999	PS+
65.0385	216	C5H5+
75.0228	74	C6H3+
77.0385	577	C2H8NP+
78.0464	388	C6H6+
79.0542	66	C6H7+
91.0541	27	C7H7+
92.0494	427	C6H6N+
94.0412	28	C6H6O+
95.0491	288	C6H7O+
102.0339	262	C7H4N+
107.0044	28	C6H4P+
109.0109	37	C2H8NPS+
110.0185	874	C6H6S+
119.0366	30	C7H5NO+
120.0443	338	C7H6NO+
134.0058	151	C7H4NS+
136.0219	49	C7H6NS+
138.9766	298	C6H4PS+
139.9846	60	C6H5PS+
141.0101	31	C6H6O2P+
156.9871	540	C6H6OPS+
179.9667	125	C7H3NOPS+
189.0141	18	C7H10O2PS+
