Mass spectrum: Benodanil; LC-ESI-QFT; MS2; CE: 75%; R=17500; [M+H]+
Name: Benodanil
Name: 2-iodo-N-phenylbenzamide
Formula: C13H10INO
Exact mass: 322.9807
SMILES: C1=CC=C(C=C1)NC(=O)C2=CC=CC=C2I
InChI: InChI=1S/C13H10INO/c14-12-9-5-4-8-11(12)13(16)15-10-6-2-1-3-7-10/h1-9H,(H,15,16)
Instrument: Exploris 240 Orbitrap Thermo Scientific
Instrument type: LC-ESI-QFT
Ms type: MS2
Ion mode: POSITIVE
Ionization: ESI
Fragmentation mode: HCD
Collision energy: 75 % (nominal)
Resolution: 17500
Column name: XBridge C18 3.5um, 2.1x50mm, Waters
Retention time: 6.793 min
Base peak: 216.1009
Precursor m/z: 323.988
Precursor type: [M+H]+
m/z	relative intensity	assigned
50.0152	9	C4H2+
52.0308	45	C4H4+
64.0307	21	C5H4+
76.0307	322	C6H4+
77.0386	43	C6H5+
80.0254	11	C5H4O+
92.0493	28	C6H6N+
94.0413	541	C6H6O+
95.0495	12	C6H7O+
104.0257	121	C7H4O+
105.0334	159	C7H5O+
108.057	27	C7H8O+
202.9352	806	C6H4I+
220.946	46	C6H6IO+
230.9293	999	C7H4IO+
