Mass spectrum: Niflumic acid; LC-ESI-QFT; MS2; CE: 75; R=35000; [M+H]+
Name: Niflumic acid
Name: 2-[3-(trifluoromethyl)anilino]pyridine-3-carboxylic acid
Formula: C13H9F3N2O2
Exact mass: 282.06161
SMILES: C1=CC(=CC(=C1)NC2=C(C=CC=N2)C(=O)O)C(F)(F)F
InChI: InChI=1S/C13H9F3N2O2/c14-13(15,16)8-3-1-4-9(7-8)18-11-10(12(19)20)5-2-6-17-11/h1-7H,(H,17,18)(H,19,20)
Instrument: Q Exactive Plus Orbitrap Thermo Scientific
Instrument type: LC-ESI-QFT
Ms type: MS2
Ion mode: POSITIVE
Ionization: ESI
Fragmentation mode: HCD
Collision energy: 75 (nominal)
Resolution: 35000
Column name: XBridge C18 3.5um, 2.1x50mm, Waters
Retention time: 12.7 min
Base peak: 283.0682
Precursor m/z: 283.0689
Precursor type: [M+H]+
m/z	relative intensity	assigned
50.0151	4	C4H2+
51.0229	6	C4H3+
56.0495	2	C3H6N+
66.0338	2	C4H4N+
71.0291	1	C4H4F+
75.0229	2	C6H3+
78.0338	94	C5H4N+
79.0416	9	C5H5N+
93.0448	4	C5H5N2+
94.0287	2	C5H4NO+
95.0291	1	C6H4F+
95.0364	3	C5H5NO+
96.0444	131	C5H6NO+
103.0291	3	C6H3N2+
110.0601	1	C6H8NO+
112.0393	2	C5H6NO2+
113.0396	7	C6H6FO+
117.0573	1	C8H7N+
121.0397	40	C6H5N2O+
123.0353	17	C6H4FN2+
125.0198	17	C7H3F2+
140.0495	4	C10H6N+
141.0145	3	C7H3F2O+
141.0574	18	C10H7N+
145.026	692	C7H4F3+
152.0497	2	C11H6N+
153.0573	1	C11H7N+
161.0448	5	C7H6F3N+
167.0603	21	C11H7N2+
168.0683	459	C11H8N2+
169.0522	3	C11H7NO+
170.0211	2	C8H3F3N+
170.0402	14	C11H5FN+
170.0598	2	C11H8NO+
172.0368	6	C8H5F3N+
173.0322	15	C7H4F3N2+
177.0447	2	C12H5N2+
179.0606	10	C12H7N2+
180.0442	1	C12H6NO+
182.0409	2	C9H6F2NO+
183.0417	26	C10H6F3+
185.0713	1	C11H9N2O+
187.0667	3	C11H8FN2+
188.0508	11	C11H7FNO+
190.0463	79	C11H6F2N+
191.0415	7	C10H5F2N2+
195.0554	26	C12H7N2O+
196.0632	363	C12H8N2O+
197.0511	176	C12H6FN2+
198.0162	10	C9H3F3NO+
198.0353	2	C12H5FNO+
198.0462	7	C11H5FN3+
198.059	12	C12H7FN2+
199.0665	2	C12H8FN2+
202.0463	5	C12H6F2N+
208.0373	1	C11H5F3N+
210.0526	18	C11H7F3N+
213.0662	6	C12H9N2O2+
215.0412	2	C12H5F2N2+
215.0616	22	C12H8FN2O+
216.0495	15	C12H6F2N2+
217.0573	632	C12H7F2N2+
218.0414	68	C12H6F2NO+
223.0493	1	C13H7N2O2+
225.0462	30	C13H6FN2O+
225.0571	3	C12H6FN4+
227.0418	2	C13H5F2N2+
228.0528	1	C12H8N2O3+
235.048	2	C12H6F3N2+
235.0679	5	C12H9F2N2O+
236.0557	33	C12H7F3N2+
237.0635	103	C12H8F3N2+
238.0476	63	C12H7F3NO+
244.0444	6	C13H6F2N2O+
245.0522	845	C13H7F2N2O+
247.048	3	C13H6F3N2+
263.0628	23	C13H9F2N2O2+
264.0507	59	C13H7F3N2O+
265.0584	999	C13H8F3N2O+
266.0615	1	C11H8F2N4O2+
