Mass spectrum: Anthraquinone; LC-ESI-QFT; MS2; CE: 120%; R=17500; [M+H]+
Name: Anthraquinone
Name: anthracene-9,10-dione
Formula: C14H8O2
Exact mass: 208.0524
SMILES: C1=CC=C2C(=C1)C(=O)C3=CC=CC=C3C2=O
InChI: InChI=1S/C14H8O2/c15-13-9-5-1-2-6-10(9)14(16)12-8-4-3-7-11(12)13/h1-8H
Instrument: Exploris 240 Orbitrap Thermo Scientific
Instrument type: LC-ESI-QFT
Ms type: MS2
Ion mode: POSITIVE
Ionization: ESI
Fragmentation mode: HCD
Collision energy: 120 % (nominal)
Resolution: 17500
Column name: XBridge C18 3.5um, 2.1x50mm, Waters
Retention time: 9.212 min
Base peak: 132.9582
Precursor m/z: 209.0597
Precursor type: [M+H]+
m/z	relative intensity	assigned
51.0229	7	C4H3+
53.0385	51	C4H5+
77.0385	123	C6H5+
95.0491	104	C6H7O+
105.0336	112	C7H5O+
127.0545	68	C10H7+
145.0652	18	C10H9O+
150.0464	20	C12H6+
151.0545	53	C12H7+
152.062	999	C12H8+
169.0652	46	C12H9O+
