Mass spectrum: Chlorpyrifos; LC-ESI-ITFT; MS2; CE: 35%; R=7500; [M+H]+
Name: Chlorpyrifos
Name: diethoxy-sulfanylidene-(3,5,6-trichloropyridin-2-yl)oxy-{5}-phosphane
Formula: C9H11Cl3NO3PS
Exact mass: 348.9263
SMILES: Clc1c(OP(=S)(OCC)OCC)nc(Cl)c(Cl)c1
InChI: InChI=1S/C9H11Cl3NO3PS/c1-3-14-17(18,15-4-2)16-9-7(11)5-6(10)8(12)13-9/h5H,3-4H2,1-2H3
Instrument: LTQ Orbitrap XL Thermo Scientific
Instrument type: LC-ESI-ITFT
Ms type: MS2
Ion mode: POSITIVE
Ionization: ESI
Fragmentation mode: CID
Collision energy: 35 % (nominal)
Resolution: 7500
Column name: XBridge C18 3.5um, 2.1x50mm, Waters
Retention time: 16.0 min
Base peak: 349.9337
Precursor m/z: 349.9336
Precursor type: [M+H]+
m/z	relative intensity	assigned
96.9508	4	H2O2PS+
124.9821	8	C2H6O2PS+
171.0242	1	C5H12ClO2S+
197.9275	122	C5H3Cl3NO+
213.9043	5	C4H3Cl2NOPS+
225.9586	1	C6H7Cl2NO2P+
241.9369	1	C7H7Cl3NS+
272.9818	1	C9H7ClN2O4P+
275.8606	9	C5H2Cl3NO2PS+
293.871	186	C5H4Cl3NO3PS+
303.8919	36	C7H6Cl3NO2PS+
321.9025	999	C7H8Cl3NO3PS+
