Mass spectrum: Capecitabine; LC-ESI-QFT; MS2; CE: 15; R=35000; [M+H]+
Name: Capecitabine
Name: (1-(5-Deoxy-beta-D-ribofuranosyl)-5-fluoro-1,2-dihydro-2-oxo-4-pyrimidinyl)-carbamic acid pentyl ester
Name: N-[1-[(2R,3R,4S,5R)-3,4-dihydroxy-5-methyl-2-oxolanyl]-5-fluoro-2-oxo-4-pyrimidinyl]carbamic acid pentyl ester
Formula: C15H22FN3O6
Exact mass: 359.14926
SMILES: FC=1\C(=N/C(=O)N(C=1)[C@@H]2O[C@@H]([C@@H](O)[C@H]2O)C)\NC(=O)OCCCCC
InChI: InChI=1S/C15H22FN3O6/c1-3-4-5-6-24-15(23)18-12-9(16)7-19(14(22)17-12)13-11(21)10(20)8(2)25-13/h7-8,10-11,13,20-21H,3-6H2,1-2H3,(H,17,18,22,23)/t8-,10-,11-,13-/m1/s1
Instrument: Q Exactive Orbitrap Thermo Scientific
Instrument type: LC-ESI-QFT
Ms type: MS2
Ion mode: POSITIVE
Ionization: ESI
Fragmentation mode: HCD
Collision energy: 15 (nominal)
Resolution: 35000
Column name: XBridge C18 3.5um, 2.1x50mm, Waters
Retention time: 7.8 min
Base peak: 360.1562
Precursor m/z: 360.1565
Precursor type: [M+H]+
m/z	relative intensity	assigned
71.0855	2	C5H11+
130.0408	8	C4H5FN3O+
174.0307	54	C5H5FN3O3+
244.109	999	C10H15FN3O3+
328.0618	1	C15H9FN4O4+
346.0712	1	C15H11FN4O5+
360.1561	16	C15H23FN3O6+
