Mass spectrum: Metalaxyl-M-TP CGA108906; LC-ESI-QFT; MS2; CE: 60%; R=17500; [M+H]+
Name: Metalaxyl-M-TP CGA108906
Name: 2-[1-carboxyethyl-(2-methoxyacetyl)amino]-3-methylbenzoic acid
Formula: C14H17NO6
Exact mass: 295.1056
SMILES: COCC(=O)N(C(C)C(O)=O)C1=C(C=CC=C1C)C(O)=O
InChI: InChI=1S/C14H17NO6/c1-8-5-4-6-10(14(19)20)12(8)15(9(2)13(17)18)11(16)7-21-3/h4-6,9H,7H2,1-3H3,(H,17,18)(H,19,20)
Instrument: Q Exactive Plus Orbitrap Thermo Scientific
Instrument type: LC-ESI-QFT
Ms type: MS2
Ion mode: POSITIVE
Ionization: ESI
Fragmentation mode: HCD
Collision energy: 60 % (nominal)
Resolution: 17500
Column name: XBridge C18 3.5um, 2.1x50mm, Waters
Retention time: 5.723 min
Base peak: 296.1129
Precursor m/z: 296.1129
Precursor type: [M+H]+
m/z	relative intensity	assigned
65.0385	1	C5H5+
67.6603	7	
91.0542	54	C7H7+
105.0699	2	C8H9+
117.0573	26	C8H7N+
118.065	21	C8H8N+
119.0493	18	C8H7O+
131.0729	2	C9H9N+
132.0808	46	C9H10N+
134.0596	1	C8H8NO+
142.0651	9	C10H8N+
144.0808	19	C10H10N+
145.0522	4	C9H7NO+
146.06	49	C9H8NO+
148.0759	5	C9H10NO+
158.06	5	C10H8NO+
159.0678	4	C10H9NO+
160.0757	999	C10H10NO+
162.0542	1	C9H8NO2+
162.0915	1	C10H12NO+
163.0628	2	C9H9NO2+
172.0756	12	C11H10NO+
174.092	2	C11H12NO+
178.0861	7	C10H12NO2+
190.086	6	C11H12NO2+
