Mass spectrum: 2-Aminobenzimidazole; LC-ESI-ITFT; MS2; CE: 90%; R=7500; [M+H]+
Name: 2-Aminobenzimidazole
Name: 1H-Benzimidazol-2-amine
Formula: C7H7N3
Exact mass: 133.0640
SMILES: NC1=NC2=C(C=CC=C2)N1
InChI: InChI=1S/C7H7N3/c8-7-9-5-3-1-2-4-6(5)10-7/h1-4H,(H3,8,9,10)
Instrument: LTQ Orbitrap XL Thermo Scientific
Instrument type: LC-ESI-ITFT
Ms type: MS2
Ion mode: POSITIVE
Ionization: ESI
Fragmentation mode: HCD
Collision energy: 90 % (nominal)
Resolution: 7500
Column name: XBridge C18 3.5um, 2.1x50mm, Waters
Retention time: 2.7 min
Base peak: 134.0712
Precursor m/z: 134.0713
Precursor type: [M+H]+
m/z	relative intensity	assigned
65.0385	54	C5H5+
80.0494	12	C5H6N+
92.0494	275	C6H6N+
93.0572	54	C6H7N+
107.0603	68	C6H7N2+
110.0601	1	C6H8NO+
117.0446	7	C7H5N2+
133.0635	11	C7H7N3+
134.0712	999	C7H8N3+
