Mass spectrum: Oxacillin; LC-ESI-QFT; MS2; CE: 120; R=35000; [M+H]+
Name: Oxacillin
Name: (2S,5R,6R)-3,3-dimethyl-6-[(5-methyl-3-phenyl-1,2-oxazole-4-carbonyl)amino]-7-oxo-4-thia-1-azabicyclo[3.2.0]heptane-2-carboxylic acid
Formula: C19H19N3O5S
Exact mass: 401.10454
SMILES: CC1=C(C(=O)N[C@H]2[C@H]3SC(C)(C)[C@@H](N3C2=O)C(O)=O)C(=NO1)C1=CC=CC=C1
InChI: InChI=1S/C19H19N3O5S/c1-9-11(12(21-27-9)10-7-5-4-6-8-10)15(23)20-13-16(24)22-14(18(25)26)19(2,3)28-17(13)22/h4-8,13-14,17H,1-3H3,(H,20,23)(H,25,26)/t13-,14+,17-/m1/s1
Instrument: Q Exactive Plus Orbitrap Thermo Scientific
Instrument type: LC-ESI-QFT
Ms type: MS2
Ion mode: POSITIVE
Ionization: ESI
Fragmentation mode: HCD
Collision energy: 120 (nominal)
Resolution: 35000
Column name: XBridge C18 3.5um, 2.1x50mm, Waters
Retention time: 8.5 min
Base peak: 402.1116
Precursor m/z: 402.1118
Precursor type: [M+H]+
m/z	relative intensity	assigned
50.0151	123	C4H2+
51.023	253	C4H3+
52.0182	10	C3H2N+
53.0386	510	C4H5+
53.9975	2	C2NO+
54.0338	17	C3H4N+
55.0179	15	C3H3O+
55.0543	16	C4H7+
56.0495	5	C3H6N+
57.9871	5	C2H2S+
58.995	164	C2H3S+
59.9665	11	COS+
59.9902	1	CH2NS+
62.0059	15	CH4NS+
63.0229	12	C5H3+
65.0022	5	C4HO+
65.0386	30	C5H5+
66.0338	4	C4H4N+
67.0416	2	C4H5N+
67.0542	6	C5H7+
67.9893	1	C3O2+
68.0131	11	C3H2NO+
68.0494	2	C4H6N+
68.997	1	C3HO2+
69.0447	12	C3H5N2+
70.0651	207	C4H8N+
70.9949	1	C3H3S+
71.0491	5	C4H7O+
72.0027	1	C3H4S+
72.0807	1	C4H10N+
73.0106	2	C3H5S+
74.0059	1	C2H4NS+
75.0229	2	C6H3+
75.0263	5	C3H7S+
77.0385	462	C6H5+
78.0464	23	C6H6+
79.029	2	C4H3N2+
79.0541	4	C6H7+
80.0495	21	C5H6N+
81.0335	26	C5H5O+
81.0447	37	C4H5N2+
81.0573	7	C5H7N+
82.0649	1	C5H8N+
85.0106	36	C4H5S+
86.0059	2	C3H4NS+
87.0263	298	C4H7S+
89.0386	162	C7H5+
90.0339	7	C6H4N+
90.0465	2	C7H6+
91.0543	35	C7H7+
93.0448	5	C5H5N2+
94.0413	12	C6H6O+
94.0652	5	C6H8N+
95.0492	999	C6H7O+
100.0214	4	C4H6NS+
102.0464	8	C8H6+
103.0542	107	C8H7+
104.0495	21	C7H6N+
105.0448	580	C6H5N2+
106.0397	1	C5H4N3+
107.0477	2	C5H5N3+
109.0648	5	C7H9O+
112.0215	6	C5H6NS+
113.0295	2	C5H7NS+
114.0373	162	C5H8NS+
115.0415	2	C8H5N+
115.0543	13	C9H7+
116.0495	101	C8H6N+
117.0573	11	C8H7N+
118.0651	4	C8H8N+
119.0603	6	C7H7N2+
128.0494	18	C9H6N+
129.0448	2	C8H5N2+
129.0574	1	C9H7N+
130.0652	21	C9H8N+
133.0761	2	C8H9N2+
140.0495	5	C10H6N+
142.0526	7	C9H6N2+
142.0651	1	C10H8N+
143.0607	2	C9H7N2+
144.0445	25	C9H6NO+
146.0602	2	C9H8NO+
155.0602	5	C10H7N2+
156.0683	2	C10H8N2+
168.0685	2	C11H8N2+
169.0757	1	C11H9N2+
