Mass spectrum: Imatinib; LC-ESI-QFT; MS2; CE: 180; R=35000; [M+H]+
Name: Imatinib
Name: 4-[(4-methylpiperazin-1-yl)methyl]-N-[4-methyl-3-[(4-pyridin-3-ylpyrimidin-2-yl)amino]phenyl]benzamide
Formula: C29H31N7O
Exact mass: 493.25901
SMILES: CC1=C(C=C(C=C1)NC(=O)C2=CC=C(C=C2)CN3CCN(CC3)C)NC4=NC=CC(=N4)C5=CN=CC=C5
InChI: InChI=1S/C29H31N7O/c1-21-5-10-25(18-27(21)34-29-31-13-11-26(33-29)24-4-3-12-30-19-24)32-28(37)23-8-6-22(7-9-23)20-36-16-14-35(2)15-17-36/h3-13,18-19H,14-17,20H2,1-2H3,(H,32,37)(H,31,33,34)
Instrument: Q Exactive Plus Orbitrap Thermo Scientific
Instrument type: LC-ESI-QFT
Ms type: MS2
Ion mode: POSITIVE
Ionization: ESI
Fragmentation mode: HCD
Collision energy: 180 (nominal)
Resolution: 35000
Column name: XBridge C18 3.5um, 2.1x50mm, Waters
Retention time: 5.8 min
Base peak: 247.6364
Precursor m/z: 494.2663
Precursor type: [M+H]+
m/z	relative intensity	assigned
50.0151	166	C4H2+
51.0229	133	C4H3+
52.0182	31	C3H2N+
52.0307	5	C4H4+
53.0022	20	C3HO+
53.0386	62	C4H5+
54.0338	13	C3H4N+
54.0464	9	C4H6+
55.0178	6	C3H3O+
55.0417	8	C3H5N+
56.0495	49	C3H6N+
57.0574	1	C3H7N+
58.0651	172	C3H8N+
61.0073	23	C5H+
62.0151	77	C5H2+
63.0229	410	C5H3+
64.0181	12	C4H2N+
64.0307	80	C5H4+
65.0386	201	C5H5+
66.0464	20	C5H6+
67.029	1	C3H3N2+
67.0416	12	C4H5N+
67.0542	2	C5H7+
68.0495	13	C4H6N+
69.0447	10	C3H5N2+
70.0651	20	C4H8N+
72.0808	1	C4H10N+
74.015	55	C6H2+
75.0229	137	C6H3+
76.0181	41	C5H2N+
76.0307	52	C6H4+
77.0385	91	C6H5+
78.0338	110	C5H4N+
78.0464	36	C6H6+
79.0416	27	C5H5N+
79.0542	5	C6H7+
80.0494	19	C5H6N+
81.0335	8	C5H5O+
81.0447	2	C4H5N2+
82.0526	1	C4H6N2+
82.0652	6	C5H8N+
83.0603	39	C4H7N2+
86.015	12	C7H2+
87.0229	31	C7H3+
88.0182	15	C6H2N+
88.0307	16	C7H4+
89.0386	999	C7H5+
90.0338	22	C6H4N+
90.0464	91	C7H6+
91.0416	10	C6H5N+
91.0542	74	C7H7+
92.0494	9	C6H6N+
93.0572	2	C6H7N+
94.0412	3	C6H6O+
94.0652	1	C6H8N+
95.0491	166	C6H7O+
96.0444	99	C5H6NO+
97.0761	2	C5H9N2+
98.0151	19	C8H2+
99.0229	37	C8H3+
100.018	11	C7H2N+
100.0308	13	C8H4+
101.0385	10	C8H5+
102.0339	32	C7H4N+
102.0464	94	C8H6+
103.0291	13	C6H3N2+
103.0416	20	C7H5N+
103.0542	19	C8H7+
104.0494	67	C7H6N+
105.0447	123	C6H5N2+
110.0601	2	C6H8NO+
111.0314	11	C5H5NO2+
113.0385	62	C9H5+
114.0339	35	C8H4N+
114.0464	5	C9H6+
115.0542	189	C9H7+
116.0495	21	C8H6N+
117.0447	5	C7H5N2+
117.0572	17	C8H7N+
118.0412	2	C8H6O+
118.0525	3	C7H6N2+
119.049	6	C8H7O+
119.0604	1	C7H7N2+
120.0445	14	C7H6NO+
121.0396	9	C6H5N2O+
122.0358	1	C7H6O2+
124.0309	13	C10H4+
125.0386	47	C10H5+
126.0464	128	C10H6+
127.0417	25	C9H5N+
127.0542	29	C10H7+
128.0494	25	C9H6N+
128.062	42	C10H8+
129.0447	56	C8H5N2+
129.0572	9	C9H7N+
130.0398	24	C7H4N3+
130.0651	7	C9H8N+
131.0603	23	C8H7N2+
132.0445	2	C8H6NO+
132.057	2	C9H8O+
134.0602	2	C8H8NO+
137.0386	38	C11H5+
138.0339	19	C10H4N+
138.0466	10	C11H6+
139.0542	177	C11H7+
140.0494	122	C10H6N+
140.0618	9	C11H8+
141.0571	9	C10H7N+
141.0697	8	C11H9+
142.0524	10	C9H6N2+
142.0653	3	C10H8N+
143.0492	14	C10H7O+
145.0647	13	C10H9O+
146.0601	6	C9H8NO+
149.0386	37	C12H5+
150.0464	345	C12H6+
151.0416	37	C11H5N+
151.0543	32	C12H7+
152.0494	27	C11H6N+
152.062	206	C12H8+
153.0447	18	C10H5N2+
153.0572	32	C11H7N+
153.0696	7	C12H9+
154.0401	7	C9H4N3+
154.065	7	C11H8N+
155.0603	38	C10H7N2+
156.0556	12	C9H6N3+
157.0521	6	C10H7NO+
159.0548	1	C9H7N2O+
161.0386	14	C13H5+
162.0465	17	C13H6+
163.0542	259	C13H7+
164.0495	126	C12H6N+
164.0617	38	C13H8+
165.0574	12	C12H7N+
165.0699	119	C13H9+
166.0651	65	C12H8N+
167.049	15	C12H7O+
167.073	39	C12H9N+
168.0568	38	C12H8O+
169.0648	219	C12H9O+
170.06	31	C11H8NO+
171.0549	1	C10H7N2O+
174.0464	26	C14H6+
175.0417	58	C13H5N+
175.0543	7	C14H7+
176.0499	18	C13H6N+
176.062	78	C14H8+
177.0573	131	C13H7N+
177.0699	8	C14H9+
178.0524	7	C12H6N2+
178.065	62	C13H8N+
178.0777	7	C14H10+
179.0603	102	C12H7N2+
180.0557	9	C11H6N3+
180.0807	12	C13H10N+
183.0681	2	C12H9NO+
184.0752	1	C12H10NO+
185.0472	2	C11H7NO2+
185.0597	19	C12H9O2+
187.0412	2	C14H5N+
188.0495	94	C14H6N+
189.0447	15	C13H5N2+
189.0573	23	C14H7N+
189.0699	3	C15H9+
190.0651	142	C14H8N+
191.0605	21	C13H7N2+
191.0729	65	C14H9N+
192.0684	23	C13H8N2+
192.0808	16	C14H10N+
193.0523	13	C13H7NO+
193.0646	16	C14H9O+
193.0886	5	C14H11N+
194.06	41	C13H8NO+
195.0552	13	C12H7N2O+
196.0518	19	C13H8O2+
199.042	10	C15H5N+
200.05	1	C15H6N+
201.0573	29	C15H7N+
202.0525	19	C14H6N2+
202.0651	3	C15H8N+
203.0603	39	C14H7N2+
204.0558	45	C13H6N3+
204.0678	5	C14H8N2+
205.0513	1	C14H7NO+
205.0761	8	C14H9N2+
206.0719	4	C13H8N3+
207.067	7	C14H9NO+
208.0754	1	C14H10NO+
213.0446	10	C15H5N2+
214.0524	1	C15H6N2+
214.0652	7	C16H8N+
215.0604	25	C15H7N2+
216.0683	32	C15H8N2+
217.0637	6	C14H7N3+
217.0758	8	C15H9N2+
218.06	3	C15H8NO+
218.0839	2	C15H10N2+
220.0755	5	C15H10NO+
221.0469	8	C14H7NO2+
221.0711	5	C14H9N2O+
225.0575	3	C17H7N+
226.0531	1	C16H6N2+
226.0646	2	C17H8N+
227.0597	1	C16H7N2+
228.0552	5	C15H6N3+
228.0671	1	C16H8N2+
229.0764	3	C16H9N2+
230.0713	6	C15H8N3+
231.0672	2	C14H7N4+
238.0654	5	C18H8N+
239.0599	3	C17H7N2+
242.0709	1	C16H8N3+
243.079	2	C16H9N3+
244.0751	2	C15H8N4+
245.0709	1	C16H9N2O+
253.0761	1	C18H9N2+
254.0717	2	C17H8N3+
255.0671	2	C16H7N4+
256.0747	2	C16H8N4+
257.0821	3	C16H9N4+
265.0766	2	C19H9N2+
277.0761	3	C20H9N2+
304.0871	2	C21H10N3+
