Mass spectrum: Imiprothrin; LC-ESI-QFT; MS2; CE: 75; R=35000; [M+H]+
Name: Imiprothrin
Name: (2,5-dioxo-3-prop-2-ynylimidazolidin-1-yl)methyl 2,2-dimethyl-3-(2-methylprop-1-enyl)cyclopropane-1-carboxylate
Formula: C17H22N2O4
Exact mass: 318.15796
SMILES: O=C(OCN1C(=O)CN(C1=O)CC#C)C2C(\C=C(/C)C)C2(C)C
InChI: InChI=1S/C17H22N2O4/c1-6-7-18-9-13(20)19(16(18)22)10-23-15(21)14-12(8-11(2)3)17(14,4)5/h1,8,12,14H,7,9-10H2,2-5H3
Instrument: Q Exactive Orbitrap Thermo Scientific
Instrument type: LC-ESI-QFT
Ms type: MS2
Ion mode: POSITIVE
Ionization: ESI
Fragmentation mode: HCD
Collision energy: 75 (nominal)
Resolution: 35000
Column name: XBridge C18 3.5um, 2.1x50mm, Waters
Retention time: 11.7 min
Base peak: 341.1472
Precursor m/z: 319.1652
Precursor type: [M+H]+
m/z	relative intensity	assigned
53.0023	14	C3HO+
53.0387	14	C4H5+
54.034	2	C3H4N+
55.018	46	C3H3O+
55.0543	21	C4H7+
56.0132	85	C2H2NO+
57.07	25	C4H9+
59.0492	18	C3H7O+
65.0387	25	C5H5+
66.0465	3	C5H6+
67.0417	18	C4H5N+
67.0543	223	C5H7+
68.0495	54	C4H6N+
69.0336	96	C4H5O+
69.0699	72	C5H9+
77.0386	4	C6H5+
79.0543	316	C6H7+
80.0495	100	C5H6N+
81.0699	999	C6H9+
82.0288	8	C4H4NO+
83.0493	11	C5H7O+
83.0856	10	C6H11+
91.0543	183	C7H7+
93.0699	269	C7H9+
94.0288	11	C5H4NO+
94.0413	2	C6H6O+
94.0778	17	C7H10+
95.0492	91	C6H7O+
95.0856	166	C7H11+
96.0444	20	C5H6NO+
97.0648	2	C6H9O+
103.0543	17	C8H7+
105.0448	17	C6H5N2+
105.0699	173	C8H9+
106.0779	4	C8H10+
107.0856	293	C8H11+
108.057	7	C7H8O+
108.0934	19	C8H12+
109.0648	96	C7H9O+
109.1013	28	C8H13+
110.0598	3	C6H8NO+
111.0554	28	C5H7N2O+
113.0597	13	C6H9O2+
114.0631	9	CH10N2O4+
115.0543	4	C9H7+
117.0698	23	C9H9+
118.0779	2	C9H10+
119.0604	4	C7H7N2+
119.0856	75	C9H11+
120.0935	21	C9H12+
121.0648	50	C8H9O+
121.1012	138	C9H13+
122.0726	8	C8H10O+
123.0553	55	C6H7N2O+
123.0805	33	C8H11O+
123.1168	140	C9H15+
124.076	2	C7H10NO+
129.0699	4	C10H9+
130.0779	19	C10H10+
131.0857	3	C10H11+
133.1012	21	C10H13+
135.0805	54	C9H11O+
135.1169	123	C10H15+
136.0884	12	C9H12O+
137.096	2	C9H13O+
139.0503	10	C6H7N2O2+
143.0851	2	C11H11+
145.1013	27	C11H13+
147.0807	14	C10H11O+
148.0883	11	C10H12O+
151.112	2	C10H15O+
161.0962	9	C11H13O+
163.1117	55	C11H15O+
