Mass spectrum: Spirotetramat BYI08330-ketohydroxy; LC-ESI-QFT; MS2; CE: 75%; R=17500; [M+H]+
Name: Spirotetramat BYI08330-ketohydroxy
Name: 3-(2,5-Dimethylphenyl)-3-hydroxy-8-methoxy-1-azaspiro(4.5)decane-2,4-dione
Name: 3-(2,5-dimethylphenyl)-3-hydroxy-8-methoxy-1-azaspiro[4.5]decane-2,4-dione
Formula: C18H23NO4
Exact mass: 317.1627
SMILES: CC1=CC(=C(C=C1)C)C2(C(=O)C3(CCC(CC3)OC)NC2=O)O
InChI: InChI=1S/C18H23NO4/c1-11-4-5-12(2)14(10-11)18(22)15(20)17(19-16(18)21)8-6-13(23-3)7-9-17/h4-5,10,13,22H,6-9H2,1-3H3,(H,19,21)
Instrument: Exploris 240 Orbitrap Thermo Scientific
Instrument type: LC-ESI-QFT
Ms type: MS2
Ion mode: POSITIVE
Ionization: ESI
Fragmentation mode: HCD
Collision energy: 75 % (nominal)
Resolution: 17500
Column name: XBridge C18 3.5um, 2.1x50mm, Waters
Retention time: 7.435 min
Base peak: 318.1698
Precursor m/z: 318.17
Precursor type: [M+H]+
m/z	relative intensity	assigned
53.0387	25	C4H5+
67.0544	117	C5H7+
77.0387	31	C6H5+
79.0541	92	C6H7+
81.07	57	C6H9+
91.0542	98	C7H7+
94.0652	89	C6H8N+
96.081	48	C6H10N+
105.07	63	C8H9+
115.054	165	C9H7+
117.0699	991	C9H9+
119.0856	58	C9H11+
122.0601	86	C7H8NO+
128.0618	143	C10H8+
129.0701	93	C10H9+
131.0856	104	C10H11+
133.0653	20	C9H9O+
141.0699	42	C11H9+
143.0854	516	C11H11+
145.0648	214	C10H9O+
155.0861	112	C12H11+
158.0964	111	C11H12N+
159.0809	87	C11H11O+
160.0758	26	C10H10NO+
165.0698	71	C13H9+
170.0962	54	C12H12N+
171.0805	583	C12H11O+
173.0601	67	C11H9O2+
186.0911	95	C12H12NO+
195.1171	40	C15H15+
214.0863	999	C13H12NO2+
226.0866	49	C14H12NO2+
234.0915	36	C16H12NO+
235.0992	82	C16H13NO+
268.1337	33	C17H18NO2+
