Mass spectrum: Dexamethasone acetate; LC-ESI-QFT; MS2; CE: 30; R=35000; [M-H]-
Name: Dexamethasone acetate
Name: Dexamethason-21-acetate
Name: [2-(9-fluoro-11,17-dihydroxy-10,13,16-trimethyl-3-oxo-6,7,8,11,12,14,15,16-octahydrocyclopenta[a]phenanthren-17-yl)-2-oxoethyl] acetate
Formula: C24H31FO6
Exact mass: 434.21047
SMILES: CC1CC2C3CCC4=CC(=O)C=CC4(C3(C(CC2(C1(C(=O)COC(=O)C)O)C)O)F)C
InChI: InChI=1S/C24H31FO6/c1-13-9-18-17-6-5-15-10-16(27)7-8-21(15,3)23(17,25)19(28)11-22(18,4)24(13,30)20(29)12-31-14(2)26/h7-8,10,13,17-19,28,30H,5-6,9,11-12H2,1-4H3
Instrument: Q Exactive Plus Orbitrap Thermo Scientific
Instrument type: LC-ESI-QFT
Ms type: MS2
Ion mode: NEGATIVE
Ionization: ESI
Fragmentation mode: HCD
Collision energy: 30 (nominal)
Resolution: 35000
Column name: XBridge C18 3.5um, 2.1x50mm, Waters
Retention time: 10.3 min
Base peak: 479.2081
Precursor m/z: 433.2032
Precursor type: [M-H]-
m/z	relative intensity	assigned
59.0138	999	C2H3O2-
73.0295	8	C3H5O2-
99.0451	2	C5H7O2-
101.0243	10	C4H5O3-
121.0658	3	C8H9O-
203.1076	1	C13H15O2-
208.0893	1	C15H12O-
241.1233	5	C16H17O2-
292.1105	5	C19H16O3-
307.1337	23	C20H19O3-
310.121	4	C19H18O4-
311.1652	36	C20H23O3-
317.1547	1	C22H21O2-
319.1338	1	C21H19O3-
323.1651	1	C21H23O3-
325.1445	18	C20H21O4-
325.18	5	C21H25O3-
327.14	2	C20H20FO3-
331.1712	3	C20H24FO3-
335.1653	2	C22H23O3-
337.1443	3	C21H21O4-
338.1521	1	C21H22O4-
339.16	8	C21H23O4-
341.1756	10	C21H25O4-
343.171	1	C21H24FO3-
343.1916	2	C21H27O4-
345.1506	18	C20H22FO4-
353.1759	218	C22H25O4-
359.1665	2	C21H24FO4-
361.182	137	C21H26FO4-
365.1749	1	C23H25O4-
373.1817	8	C22H26FO4-
377.1764	2	C24H25O4-
433.2035	1	C24H30FO6-
