Mass spectrum: Chlordiazepoxide; LC-ESI-QFT; MS2; CE: 75; R=35000; [M+H]+
Name: Chlordiazepoxide
Name: Zetran
Name: 7-chloro-4-hydroxy-N-methyl-5-phenyl-3H-1,4-benzodiazepin-2-imine
Formula: C16H14ClN3O
Exact mass: 299.08254
SMILES: CN=C1CN(C(=C2C=C(C=CC2=N1)Cl)C3=CC=CC=C3)O
InChI: InChI=1S/C16H14ClN3O/c1-18-15-10-20(21)16(11-5-3-2-4-6-11)13-9-12(17)7-8-14(13)19-15/h2-9,21H,10H2,1H3
Instrument: Q Exactive Plus Orbitrap Thermo Scientific
Instrument type: LC-ESI-QFT
Ms type: MS2
Ion mode: POSITIVE
Ionization: ESI
Fragmentation mode: HCD
Collision energy: 75 (nominal)
Resolution: 35000
Column name: XBridge C18 3.5um, 2.1x50mm, Waters
Retention time: 6.2 min
Base peak: 300.0888
Precursor m/z: 300.0898
Precursor type: [M+H]+
m/z	relative intensity	assigned
51.0228	1	C4H3+
53.0385	2	C4H5+
55.029	2	C2H3N2+
57.0447	355	C2H5N2+
60.0443	2	C2H6NO+
65.0385	4	C5H5+
75.0228	1	C6H3+
77.0384	6	C6H5+
79.054	3	C6H7+
86.9996	2	C4H4Cl+
89.0384	79	C7H5+
90.0463	2	C7H6+
91.0542	3	C7H7+
93.0333	3	C6H5O+
93.0572	3	C6H7N+
95.049	8	C6H7O+
100.0072	4	C5H5Cl+
104.0493	19	C7H6N+
105.0334	4	C7H5O+
105.0446	5	C6H5N2+
110.9995	1	C6H4Cl+
116.0494	1	C8H6N+
117.0571	4	C8H7N+
118.0526	1	C7H6N2+
118.065	1	C8H8N+
121.0283	1	C7H5O2+
124.0073	66	C7H5Cl+
126.0104	1	C6H5ClN+
128.0259	1	C6H7ClN+
129.01	5	C6H6ClO+
129.0445	1	C8H5N2+
131.0602	1	C8H7N2+
135.9945	1	C10O+
138.0104	31	C7H5ClN+
139.0056	23	C6H4ClN2+
145.0758	1	C9H9N2+
150.0104	10	C8H5ClN+
151.0182	8	C8H6ClN+
151.0539	1	C12H7+
152.026	9	C8H7ClN+
152.062	5	C12H8+
153.0212	2	C7H6ClN2+
154.0053	1	C7H5ClNO+
155.997	1	C7H5ClO2+
163.0056	89	C8H4ClN2+
164.0008	19	C7H3ClN3+
164.0262	1	C9H7ClN+
164.0621	2	C13H8+
165.0213	50	C8H6ClN2+
165.0697	174	C13H9+
169.0647	2	C12H9O+
177.0214	4	C9H6ClN2+
177.0572	1	C13H7N+
178.0649	5	C13H8N+
179.037	3	C9H8ClN2+
179.0599	1	C12H7N2+
179.0728	5	C13H9N+
180.0447	21	C9H9ClN2+
180.0805	6	C13H10N+
181.0163	3	C8H6ClN2O+
183.0805	2	C13H11O+
190.0649	23	C14H8N+
191.0727	26	C14H9N+
192.0805	439	C14H10N+
193.0524	2	C13H7NO+
193.0885	4	C14H11N+
195.0317	1	C9H8ClN2O+
199.0308	7	C13H8Cl+
201.0339	4	C12H8ClN+
203.0727	24	C15H9N+
204.0806	4	C15H10N+
205.076	34	C14H9N2+
206.0837	40	C14H10N2+
207.0916	5	C14H11N2+
214.0416	21	C13H9ClN+
215.0601	2	C15H7N2+
216.068	29	C15H8N2+
217.0759	12	C15H9N2+
218.0837	67	C15H10N2+
219.0915	54	C15H11N2+
220.0756	2	C15H10NO+
220.0993	26	C15H12N2+
224.026	24	C14H7ClN+
226.0416	84	C14H9ClN+
227.0494	999	C14H10ClN+
229.0756	2	C16H9N2+
230.0838	3	C16H10N2+
232.0866	17	C15H10N3+
233.1071	1	C16H13N2+
234.0786	4	C15H10N2O+
235.0864	2	C15H11N2O+
238.0416	54	C15H9ClN+
239.037	6	C14H8ClN2+
240.0446	13	C14H9ClN2+
240.0572	5	C15H11ClN+
241.0525	141	C14H10ClN2+
245.0948	2	C16H11N3+
246.1023	47	C16H12N3+
247.1101	136	C16H13N3+
250.0735	10	C12H13ClN3O+
251.0368	41	C15H8ClN2+
252.0446	74	C15H9ClN2+
253.0523	19	C15H10ClN2+
254.0602	20	C15H11ClN2+
255.068	37	C15H12ClN2+
256.0525	4	C15H11ClNO+
256.0755	2	C15H13ClN2+
265.0526	6	C16H10ClN2+
266.0474	1	C15H9ClN3+
266.0602	8	C16H11ClN2+
267.0555	51	C15H10ClN3+
268.0633	2	C15H11ClN3+
269.0837	25	C16H14ClN2+
280.063	3	C16H11ClN3+
281.0709	3	C16H12ClN3+
282.079	79	C16H13ClN3+
