Mass spectrum: Terbutylazine; LC-ESI-ITFT; MS2; CE: 45%; R=15000; [M+H]+
Name: Terbutylazine
Name: 2-N-tert-butyl-6-chloro-4-N-ethyl-1,3,5-triazine-2,4-diamine
Formula: C9H16ClN5
Exact mass: 229.1089
SMILES: c1(nc(nc(n1)Cl)NCC)NC(C)(C)C
InChI: InChI=1S/C9H16ClN5/c1-5-11-7-12-6(10)13-8(14-7)15-9(2,3)4/h5H2,1-4H3,(H2,11,12,13,14,15)
Instrument: LTQ Orbitrap XL Thermo Scientific
Instrument type: LC-ESI-ITFT
Ms type: MS2
Ion mode: POSITIVE
Ionization: ESI
Fragmentation mode: HCD
Collision energy: 45 % (nominal)
Resolution: 15000
Column name: XBridge C18 3.5um, 2.1x50mm, Waters
Retention time: 10.1 min
Base peak: 230.1168
Precursor m/z: 230.1167
Precursor type: [M+H]+
m/z	relative intensity	assigned
57.0698	1	C4H9+
68.0243	7	C2H2N3+
71.0604	1	C3H7N2+
79.0058	13	CH4ClN2+
96.0556	10	C4H6N3+
104.0011	6	C2H3ClN3+
132.0323	18	C4H7ClN3+
138.0775	4	C5H8N5+
146.0229	21	C3H5ClN5+
174.0542	999	C5H9ClN5+
230.1167	81	C9H17ClN5+
