Mass spectrum: Methacrifos; LC-ESI-QFT; MS2; CE: 30%; R=17500; [M+H]+
Name: Methacrifos
Name: Methyl 3-((dimethoxyphosphinothioyl)oxy)methacrylate
Name: methyl 3-dimethoxyphosphinothioyloxy-2-methylprop-2-enoate
Formula: C7H13O5PS
Exact mass: 240.0221
SMILES: CC(=COP(=S)(OC)OC)C(=O)OC
InChI: InChI=1S/C7H13O5PS/c1-6(7(8)9-2)5-12-13(14,10-3)11-4/h5H,1-4H3
Instrument: Exploris 240 Orbitrap Thermo Scientific
Instrument type: LC-ESI-QFT
Ms type: MS2
Ion mode: POSITIVE
Ionization: ESI
Fragmentation mode: HCD
Collision energy: 30 % (nominal)
Resolution: 17500
Column name: XBridge C18 3.5um, 2.1x50mm, Waters
Retention time: 7.717 min
Base peak: 209.0029
Precursor m/z: 241.0294
Precursor type: [M+H]+
m/z	relative intensity	assigned
67.0177	13	C4H3O+
93.0099	14	C2H6O2P+
98.9898	49	C4H3OS+
99.0439	17	C5H7O2+
109.0049	9	C2H6O3P+
124.9819	582	C2H6O2PS+
127.0153	17	C2H8O4P+
131.016	72	C5H7O2S+
142.9925	138	C2H8O3PS+
148.9821	2	C4H6O2PS+
157.0083	24	C3H10O3PS+
181.0081	126	C5H10O3PS+
209.0029	999	C6H10O4PS+
