Mass spectrum: Azoxystrobin; LC-ESI-ITFT; MS2; CE: 45%; R=7500; [M+H]+
Name: Azoxystrobin
Name: Methyl (E)-2-[2-[6-(2-cyanophenoxy)pyrimidin-4-YL]oxyphenyl]-3-methoxy-prop-2-enoate
Formula: C22H17N3O5
Exact mass: 403.1168206
SMILES: CO/C=C(\C1=CC=CC=C1OC2=NC=NC(=C2)OC3=CC=CC=C3C#N)/C(=O)OC
InChI: InChI=1S/C22H17N3O5/c1-27-13-17(22(26)28-2)16-8-4-6-10-19(16)30-21-11-20(24-14-25-21)29-18-9-5-3-7-15(18)12-23/h3-11,13-14H,1-2H3/b17-13+
Instrument: LTQ Orbitrap XL Thermo Scientific
Instrument type: LC-ESI-ITFT
Ms type: MS2
Ion mode: POSITIVE
Ionization: ESI
Fragmentation mode: HCD
Collision energy: 45 % (nominal)
Resolution: 7500
Column name: XBridge C18 3.5um, 2.1x50mm, Waters
Retention time: 9.9 min
Base peak: 404.1245
Precursor m/z: 404.1241
Precursor type: [M+H]+
m/z	relative intensity	assigned
129.045	14	C8H5N2+
130.0402	4	C7H4N3+
134.0599	68	C8H8NO+
141.0448	5	C9H5N2+
143.0604	46	C9H7N2+
145.0289	23	C9H5O2+
156.0443	11	C10H6NO+
161.0703	5	C9H9N2O+
162.055	16	C9H8NO2+
169.0396	32	C10H5N2O+
171.0556	18	C10H7N2O+
172.0391	50	C10H6NO2+
177.0545	20	C10H9O3+
182.0713	8	C11H8N3+
183.0552	38	C11H7N2O+
199.0496	6	C11H7N2O2+
201.0416	42	C11H7NO3+
201.066	42	C11H9N2O2+
202.0497	6	C11H8NO3+
210.0423	29	C12H6N2O2+
210.0658	33	C12H8N3O+
211.0504	10	C12H7N2O2+
216.0654	115	C12H10NO3+
225.066	6	C13H9N2O2+
262.086	6	C17H12NO2+
272.0825	7	C17H10N3O+
273.0883	12	C14H13N2O4+
284.0835	4	C20H12O2+
287.0802	23	C18H11N2O2+
289.0967	10	C18H13N2O2+
303.0756	21	C18H11N2O3+
312.0783	12	C19H10N3O2+
315.0996	16	C19H13N3O2+
316.1076	61	C19H14N3O2+
317.0908	17	C19H13N2O3+
328.0712	45	C19H10N3O3+
329.079	999	C19H11N3O3+
340.0701	6	C20H10N3O3+
344.1026	891	C20H14N3O3+
372.0974	166	C21H14N3O4+
