Mass spectrum: Fenamiphos; LC-ESI-QFT; MS2; CE: 180%; R=17500; [M+H]+
Name: Fenamiphos
Name: N-[ethoxy-(3-methyl-4-methylsulfanylphenoxy)phosphoryl]propan-2-amine
Formula: C13H22NO3PS
Exact mass: 303.1058
SMILES: CCOP(=O)(NC(C)C)OC1=CC(=C(C=C1)SC)C
InChI: InChI=1S/C13H22NO3PS/c1-6-16-18(15,14-10(2)3)17-12-7-8-13(19-5)11(4)9-12/h7-10H,6H2,1-5H3,(H,14,15)
Instrument: Exploris 240 Orbitrap Thermo Scientific
Instrument type: LC-ESI-QFT
Ms type: MS2
Ion mode: POSITIVE
Ionization: ESI
Fragmentation mode: HCD
Collision energy: 180 % (nominal)
Resolution: 17500
Column name: XBridge C18 3.5um, 2.1x50mm, Waters
Retention time: 10.489 min
Base peak: 304.1128
Precursor m/z: 304.1131
Precursor type: [M+H]+
m/z	relative intensity	assigned
51.0229	651	C4H3+
53.0385	425	C4H5+
58.9949	216	C2H3S+
63.023	121	C5H3+
65.0385	779	C5H5+
66.0463	826	C5H6+
67.0544	72	C5H7+
68.9795	179	C3HS+
70.9953	70	C3H3S+
77.0385	999	C6H5+
78.0463	813	C6H6+
79.0541	272	C6H7+
84.0029	129	C4H4S+
89.0385	78	C7H5+
91.0543	296	C7H7+
94.0415	91	C6H6O+
95.049	290	C6H7O+
97.0105	202	C5H5S+
97.9998	63	H5NO3P+
103.0546	123	C8H7+
107.0492	322	C7H7O+
121.0106	632	C7H5S+
