Mass spectrum: Secbumeton; LC-ESI-ITFT; MS2; CE: 60%; R=15000; [M+H]+
Name: Secbumeton
Name: 2-N-butan-2-yl-4-N-ethyl-6-methoxy-1,3,5-triazine-2,4-diamine
Formula: C10H19N5O
Exact mass: 225.1590
SMILES: c1(nc(nc(n1)OC)NCC)NC(CC)C
InChI: InChI=1S/C10H19N5O/c1-5-7(3)12-9-13-8(11-6-2)14-10(15-9)16-4/h7H,5-6H2,1-4H3,(H2,11,12,13,14,15)
Instrument: LTQ Orbitrap XL Thermo Scientific
Instrument type: LC-ESI-ITFT
Ms type: MS2
Ion mode: POSITIVE
Ionization: ESI
Fragmentation mode: HCD
Collision energy: 60 % (nominal)
Resolution: 15000
Column name: XBridge C18 3.5um, 2.1x50mm, Waters
Retention time: 6.7 min
Base peak: 226.1668
Precursor m/z: 226.1662
Precursor type: [M+H]+
m/z	relative intensity	assigned
57.0447	22	C2H5N2+
57.0699	7	C4H9+
58.0288	3	C2H4NO+
68.0244	52	C2H2N3+
69.0084	39	C2HN2O+
71.0604	19	C3H7N2+
75.0553	57	C2H7N2O+
82.0399	3	C3H4N3+
83.0241	8	C3H3N2O+
85.0761	26	C4H9N2+
86.0349	32	C2H4N3O+
96.0557	58	C4H6N3+
97.0397	25	C4H5N2O+
99.0664	2	C3H7N4+
100.0506	135	C3H6N3O+
113.0822	3	C4H9N4+
114.0662	100	C4H8N3O+
128.0819	73	C5H10N3O+
138.0775	14	C5H8N5+
142.0724	134	C4H8N5O+
168.0881	6	C6H10N5O+
170.1038	999	C6H12N5O+
196.1194	2	C8H14N5O+
198.1356	2	C8H16N5O+
226.1665	188	C10H20N5O+
