Mass spectrum: N-Acetylcaprolactam; LC-ESI-QFT; MS2; CE: 90%; R=17500; [M+H]+
Name: N-Acetylcaprolactam
Name: 1-acetylazepan-2-one
Formula: C8H13NO2
Exact mass: 155.0946
SMILES: CC(=O)N1CCCCCC1=O
InChI: InChI=1S/C8H13NO2/c1-7(10)9-6-4-2-3-5-8(9)11/h2-6H2,1H3
Instrument: Exploris 240 Orbitrap Thermo Scientific
Instrument type: LC-ESI-QFT
Ms type: MS2
Ion mode: POSITIVE
Ionization: ESI
Fragmentation mode: HCD
Collision energy: 90 % (nominal)
Resolution: 17500
Column name: XBridge C18 3.5um, 2.1x50mm, Waters
Retention time: 4.594 min
Base peak: 156.1019
Precursor m/z: 156.1019
Precursor type: [M+H]+
m/z	relative intensity	assigned
41.0386	23	C3H5+
43.0178	51	C2H3O+
43.0542	28	C3H7+
44.0131	63	CH2NO+
46.0288	6	CH4NO+
55.0179	28	C3H3O+
55.0542	46	C4H7+
67.0541	23	C5H7+
68.0495	21	C4H6N+
69.0699	179	C5H9+
70.0651	6	C4H8N+
71.049	9	C4H7O+
71.0855	16	C5H11+
72.0806	17	C4H10N+
77.0383	4	C6H5+
79.0542	187	C6H7+
86.0965	16	C5H12N+
96.0808	116	C6H10N+
97.0648	37	C6H9O+
114.0913	999	C6H12NO+
