Mass spectrum: Kresoxim-methyl; LC-ESI-ITFT; MS2; CE: 35%; R=7500; [M+H]+
Name: Kresoxim-methyl
Name: Methyl (E)-alpha-(methoxyimino)-2-((2-methylphenoxy)methyl)benzeneacetic acid
Formula: C18H19NO4
Exact mass: 313.1309
SMILES: Cc1ccccc1OCc1ccccc1\C(=N/OC)C(=O)OC
InChI: InChI=1S/C18H19NO4/c1-13-8-4-7-11-16(13)23-12-14-9-5-6-10-15(14)17(19-22-3)18(20)21-2/h4-11H,12H2,1-3H3/b19-17+
Instrument: LTQ Orbitrap XL Thermo Scientific
Instrument type: LC-ESI-ITFT
Ms type: MS2
Ion mode: POSITIVE
Ionization: ESI
Fragmentation mode: CID
Collision energy: 35 % (nominal)
Resolution: 7500
Column name: XBridge C18 3.5um, 2.1x50mm, Waters
Retention time: 12.5 min
Base peak: 336.1208
Precursor m/z: 314.1387
Precursor type: [M+H]+
m/z	relative intensity	assigned
116.0491	87	C8H6N+
206.081	455	C11H12NO3+
222.0906	144	C15H12NO+
238.1232	54	C16H16NO+
267.1011	999	C17H15O3+
282.112	519	C17H16NO3+
