Mass spectrum: Metolachlor-TP NOA413173; LC-ESI-QFT; MS2; CE: 30%; R=17500; [M-H]-
Name: Metolachlor-TP NOA413173
Name: 2-(2-ethyl-6-methyl-N-(2-sulfoacetyl)anilino)propanoic acid
Formula: C14H19NO6S
Exact mass: 329.0933
SMILES: CCC1=C(N(C(C)C(O)=O)C(=O)CS(O)(=O)=O)C(C)=CC=C1
InChI: InChI=1S/C14H19NO6S/c1-4-11-7-5-6-9(2)13(11)15(10(3)14(17)18)12(16)8-22(19,20)21/h5-7,10H,4,8H2,1-3H3,(H,17,18)(H,19,20,21)
Instrument: Q Exactive Orbitrap Thermo Scientific
Instrument type: LC-ESI-QFT
Ms type: MS2
Ion mode: NEGATIVE
Ionization: ESI
Fragmentation mode: HCD
Collision energy: 30 % (nominal)
Resolution: 17500
Column name: XBridge C18 3.5um, 2.1x50mm, Waters
Retention time: 5.475 min
Base peak: 328.0861
Precursor m/z: 328.086
Precursor type: [M-H]-
m/z	relative intensity	assigned
76.9703	96	CHO2S-
79.9573	224	O3S-
80.9653	120	HO3S-
94.9809	11	CH3O3S-
120.9602	999	C2HO4S-
135.0818	23	C9H11O-
144.0821	17	C10H10N-
148.0073	13	C4H6NO3S-
162.129	9	C11H16N-
202.1238	9	C13H16NO-
206.1187	450	C12H16NO2-
230.1182	41	C14H16NO2-
256.065	606	C11H14NO4S-
284.0963	706	C13H18NO4S-
310.0758	8	C14H16NO5S-
328.0861	121	C14H18NO6S-
