Mass spectrum: Dexamethasone acetate; LC-ESI-QFT; MS2; CE: 150; R=35000; [M-H]-
Name: Dexamethasone acetate
Name: Dexamethason-21-acetate
Name: [2-(9-fluoro-11,17-dihydroxy-10,13,16-trimethyl-3-oxo-6,7,8,11,12,14,15,16-octahydrocyclopenta[a]phenanthren-17-yl)-2-oxoethyl] acetate
Formula: C24H31FO6
Exact mass: 434.21047
SMILES: CC1CC2C3CCC4=CC(=O)C=CC4(C3(C(CC2(C1(C(=O)COC(=O)C)O)C)O)F)C
InChI: InChI=1S/C24H31FO6/c1-13-9-18-17-6-5-15-10-16(27)7-8-21(15,3)23(17,25)19(28)11-22(18,4)24(13,30)20(29)12-31-14(2)26/h7-8,10,13,17-19,28,30H,5-6,9,11-12H2,1-4H3
Instrument: Q Exactive Plus Orbitrap Thermo Scientific
Instrument type: LC-ESI-QFT
Ms type: MS2
Ion mode: NEGATIVE
Ionization: ESI
Fragmentation mode: HCD
Collision energy: 150 (nominal)
Resolution: 35000
Column name: XBridge C18 3.5um, 2.1x50mm, Waters
Retention time: 10.3 min
Base peak: 479.2081
Precursor m/z: 433.2032
Precursor type: [M-H]-
m/z	relative intensity	assigned
55.0189	11	C3H3O-
59.0138	999	C2H3O2-
65.0397	5	C5H5-
67.0189	1	C4H3O-
68.9983	3	C3HO2-
81.0346	1	C5H5O-
89.0398	1	C7H5-
91.0554	3	C7H7-
93.0345	9	C6H5O-
95.0503	1	C6H7O-
102.0474	5	C8H6-
103.0554	7	C8H7-
107.0503	4	C7H7O-
108.0219	1	C6H4O2-
115.0553	32	C9H7-
117.0345	9	C8H5O-
119.0502	9	C8H7O-
121.0294	7	C7H5O2-
129.0347	3	C9H5O-
129.071	1	C10H9-
130.0423	28	C9H6O-
131.0501	23	C9H7O-
133.066	1	C9H9O-
134.0372	1	C8H6O2-
135.0453	1	C8H7O2-
139.0557	1	C11H7-
141.0712	3	C11H9-
143.0502	60	C10H7O-
145.0296	18	C9H5O2-
145.066	3	C10H9O-
146.0377	1	C9H6O2-
147.0452	11	C9H7O2-
154.0427	1	C11H6O-
156.0579	5	C11H8O-
157.0659	7	C11H9O-
158.0373	14	C10H6O2-
159.0455	4	C10H7O2-
161.0612	1	C10H9O2-
165.0709	18	C13H9-
167.0501	14	C12H7O-
169.0659	10	C12H9O-
171.0451	10	C11H7O2-
173.0242	6	C10H5O3-
174.0323	1	C10H6O3-
179.0868	5	C14H11-
180.0582	8	C13H8O-
181.0661	6	C13H9O-
182.0371	1	C12H6O2-
183.0455	4	C12H7O2-
183.0814	1	C13H11O-
187.0395	1	C11H7O3-
189.0711	4	C15H9-
191.0502	7	C14H7O-
193.0658	37	C14H9O-
195.045	8	C13H7O2-
195.0816	4	C14H11O-
197.0606	1	C13H9O2-
202.0788	11	C16H10-
204.0579	7	C15H8O-
205.0664	5	C15H9O-
206.0736	9	C15H10O-
207.0815	12	C15H11O-
208.0533	3	C14H8O2-
209.0611	3	C14H9O2-
217.0657	18	C16H9O-
218.074	1	C16H10O-
219.0815	25	C16H11O-
221.0609	4	C15H9O2-
230.0736	34	C17H10O-
231.0814	16	C17H11O-
232.0535	3	C16H8O2-
232.0892	6	C17H12O-
233.0615	3	C16H9O2-
233.0976	3	C17H13O-
243.0817	4	C18H11O-
244.0892	1	C18H12O-
245.0606	11	C17H9O2-
245.0966	1	C18H13O-
246.0691	4	C17H10O2-
247.0763	12	C17H11O2-
258.0685	11	C18H10O2-
259.0763	8	C18H11O2-
260.085	3	C18H12O2-
261.0919	1	C18H13O2-
274.0644	1	C15H11FO4-
275.0712	1	C18H11O3-
