Mass spectrum: Fenthion Oxon; LC-ESI-QFT; MS2; CE: 75%; R=17500; [M+H]+
Name: Fenthion Oxon
Name: dimethyl (3-methyl-4-methylsulfanylphenyl) phosphate
Formula: C10H15O4PS
Exact mass: 262.0429
SMILES: CC1=C(C=CC(=C1)OP(=O)(OC)OC)SC
InChI: InChI=1S/C10H15O4PS/c1-8-7-9(5-6-10(8)16-4)14-15(11,12-2)13-3/h5-7H,1-4H3
Instrument: Exploris 240 Orbitrap Thermo Scientific
Instrument type: LC-ESI-QFT
Ms type: MS2
Ion mode: POSITIVE
Ionization: ESI
Fragmentation mode: HCD
Collision energy: 75 % (nominal)
Resolution: 17500
Column name: XBridge C18 3.5um, 2.1x50mm, Waters
Retention time: 7.813 min
Base peak: 263.0501
Precursor m/z: 263.0501
Precursor type: [M+H]+
m/z	relative intensity	assigned
53.0386	73	C4H5+
58.995	338	C2H3S+
65.0385	21	C5H5+
70.9951	49	C3H3S+
77.0384	150	C6H5+
78.0464	161	C6H6+
78.9947	37	CH4O2P+
79.0543	48	C6H7+
89.0385	22	C7H5+
91.0542	769	C7H7+
93.0699	291	C7H9+
95.0494	46	C6H7O+
97.0106	739	C5H5S+
103.0542	290	C8H7+
104.0621	353	C8H8+
105.0701	58	C8H9+
107.0493	35	C7H7O+
109.0648	55	C7H9O+
110.0184	78	C6H6S+
121.0107	119	C7H5S+
121.0647	48	C8H9O+
122.0185	477	C7H6S+
127.0156	151	C2H8O4P+
135.0264	140	C8H7S+
136.0345	29	C8H8S+
137.0418	98	C8H9S+
138.0136	65	C7H6OS+
139.0213	64	C7H7OS+
153.0099	65	C7H6O2P+
154.0443	133	C8H10OS+
168.9874	65	C7H6OPS+
183.0203	44	C8H8O3P+
185.99	516	C7H7O2PS+
200.9768	83	C7H6O3PS+
216.0006	999	C8H9O3PS+
231.0243	49	C9H12O3PS+
