Mass spectrum: FK-506; LC-ESI-QFT; MS2; CE: 30; R=35000; [M+H]+
Name: FK-506
Name: Tacrolimus
Name: (1R,9S,12S,13R,14S,17R,21S,23S,24R,25S,27R)-17-Allyl-1,14-dihydroxy-12-{(1E)-1-[(1R,3R,4R)-4-hydroxy-3-methoxycyclohexyl]-1-propen-2-yl}-23,25-dimethoxy-13,19,21,27-tetramethyl-11,28-dioxa-4-azatricyc lo[22.3.1.0 4,9]octacos-18-ene-2,3,10,16-tetrone
Formula: C44H69NO12
Exact mass: 803.48198
SMILES: CC1CC(C2C(CC(C(O2)(C(=O)C(=O)N3CCCCC3C(=O)OC(C(C(CC(=O)C(C=C(C1)C)CC=C)O)C)C(=CC4CCC(C(C4)OC)O)C)O)C)OC)OC
InChI: InChI=1S/C44H69NO12/c1-10-13-31-19-25(2)18-26(3)20-37(54-8)40-38(55-9)22-28(5)44(52,57-40)41(49)42(50)45-17-12-11-14-32(45)43(51)56-39(29(6)34(47)24-35(31)48)27(4)21-30-15-16-33(46)36(23-30)53-7/h10,19,21,26,28-34,36-40,46-47,52H,1,11-18,20,22-24H2,2-9H3/b25-19-,27-21+/t26-,28+,29+,30-,31+,32-,33+,34-,36+,37-,38-,39+,40+,44+/m0/s1
Instrument: Q Exactive Plus Orbitrap Thermo Scientific
Instrument type: LC-ESI-QFT
Ms type: MS2
Ion mode: POSITIVE
Ionization: ESI
Fragmentation mode: HCD
Collision energy: 30 (nominal)
Resolution: 35000
Column name: XBridge C18 3.5um, 2.1x50mm, Waters
Retention time: 15.3 min
Base peak: 279.159
Precursor m/z: 804.4893
Precursor type: [M+H]+
m/z	relative intensity	assigned
56.0495	9	C3H6N+
57.0335	2	C3H5O+
57.0699	5	C4H9+
59.0492	10	C3H7O+
65.0386	2	C5H5+
67.0542	37	C5H7+
69.0335	50	C4H5O+
69.0699	33	C5H9+
71.0128	5	C3H3O2+
71.0491	35	C4H7O+
74.0964	4	C4H12N+
75.0441	2	C3H7O2+
79.0542	62	C6H7+
81.0699	97	C6H9+
82.0651	10	C5H8N+
83.0491	38	C5H7O+
83.0856	10	C6H11+
84.0808	999	C5H10N+
85.0648	127	C5H9O+
91.0542	43	C7H7+
93.07	113	C7H9+
95.0493	67	C6H7O+
95.0856	141	C7H11+
97.0649	57	C6H9O+
97.1012	3	C7H13+
99.0441	8	C5H7O2+
99.0805	24	C6H11O+
101.0598	5	C5H9O2+
105.0699	101	C8H9+
107.0493	24	C7H7O+
107.0856	189	C8H11+
109.0284	154	C6H5O2+
109.0649	87	C7H9O+
109.1013	67	C8H13+
110.0601	67	C6H8NO+
111.044	17	C6H7O2+
111.0805	178	C7H11O+
112.0757	10	C6H10NO+
113.0598	11	C6H9O2+
117.0698	20	C9H9+
119.0492	12	C8H7O+
119.0856	138	C9H11+
121.0649	49	C8H9O+
121.1012	86	C9H13+
123.0442	29	C7H7O2+
123.0804	70	C8H11O+
123.1168	5	C9H15+
125.0597	34	C7H9O2+
125.0961	22	C8H13O+
127.039	13	C6H7O3+
127.0754	14	C7H11O2+
128.0707	298	C6H10NO2+
129.0699	32	C10H9+
130.0864	574	C6H12NO2+
131.0856	93	C10H11+
133.0647	20	C9H9O+
133.1012	131	C10H13+
135.0442	14	C8H7O2+
135.0805	66	C9H11O+
135.1169	146	C10H15+
136.112	5	C9H14N+
137.0599	34	C8H9O2+
137.0962	47	C9H13O+
137.1327	22	C10H17+
138.0554	3	C7H8NO2+
139.0391	17	C7H7O3+
139.0754	29	C8H11O2+
139.1117	19	C9H15O+
140.0704	9	C7H10NO2+
141.0547	9	C7H9O3+
141.0699	9	C11H9+
141.0913	9	C8H13O2+
143.0856	107	C11H11+
145.1013	195	C11H13+
147.0805	49	C10H11O+
147.1169	106	C11H15+
149.0599	25	C9H9O2+
149.0961	63	C10H13O+
149.1327	24	C11H17+
150.0917	3	C9H12NO+
151.039	12	C8H7O3+
151.0756	30	C9H11O2+
151.1118	39	C10H15O+
152.1071	60	C9H14NO+
153.0547	31	C8H9O3+
153.091	17	C9H13O2+
155.0857	17	C12H11+
156.0655	24	C7H10NO3+
156.0937	12	C12H12+
157.0651	11	C11H9O+
157.1012	91	C12H13+
158.1095	3	C12H14+
159.0803	26	C11H11O+
159.117	144	C12H15+
161.0962	86	C11H13O+
161.1326	244	C12H17+
163.0753	30	C10H11O2+
163.1118	95	C11H15O+
163.1481	29	C12H19+
164.1069	2	C10H14NO+
165.0548	14	C9H9O3+
165.0912	23	C10H13O2+
165.1278	19	C11H17O+
167.0704	10	C9H11O3+
167.0859	5	C13H11+
167.1069	21	C10H15O2+
168.1017	4	C9H14NO2+
168.1384	4	C10H18NO+
169.1013	67	C13H13+
170.1092	2	C13H14+
171.0806	33	C12H11O+
171.1169	497	C13H15+
173.0963	55	C12H13O+
173.1326	137	C13H17+
175.0755	48	C11H11O2+
175.1118	54	C12H15O+
175.1482	74	C13H19+
176.1072	2	C11H14NO+
177.0552	3	C10H9O3+
177.0912	33	C11H13O2+
177.1274	37	C12H17O+
178.0863	3	C10H12NO2+
179.0703	16	C10H11O3+
179.0854	3	C14H11+
179.1068	22	C11H15O2+
179.1432	32	C12H19O+
180.1019	123	C10H14NO2+
181.0863	4	C10H13O3+
181.1011	29	C14H13+
181.1227	18	C11H17O2+
182.1181	2	C10H16NO2+
183.117	80	C14H15+
184.1247	3	C14H16+
185.0964	27	C13H13O+
185.1326	226	C14H17+
186.1405	4	C14H18+
187.0755	10	C12H11O2+
187.1118	59	C13H15O+
187.1482	129	C14H19+
189.091	64	C12H13O2+
189.1275	307	C13H17O+
190.1227	9	C12H16NO+
191.0702	5	C11H11O3+
191.1068	18	C12H15O2+
191.143	37	C13H19O+
192.102	303	C11H14NO2+
193.0862	11	C11H13O3+
193.101	24	C15H13+
194.1097	3	C15H14+
195.117	76	C15H15+
196.0971	16	C10H14NO3+
196.1335	36	C11H18NO2+
197.081	13	C10H13O4+
197.0959	15	C14H13O+
197.1325	87	C15H17+
199.0753	10	C13H11O2+
199.1119	48	C14H15O+
199.1482	101	C15H19+
201.0911	13	C13H13O2+
201.1275	83	C14H17O+
201.1635	27	C15H21+
203.1072	16	C13H15O2+
203.1433	223	C14H19O+
204.1018	5	C12H14NO2+
205.0865	9	C12H13O3+
205.1225	21	C13H17O2+
205.1589	17	C14H21O+
206.1096	2	C16H14+
206.1179	24	C12H16NO2+
207.1019	12	C12H15O3+
207.117	64	C16H15+
207.138	69	C13H19O2+
208.097	199	C11H14NO3+
209.0963	12	C15H13O+
209.1328	54	C16H17+
210.1127	51	C11H16NO3+
210.14	3	C16H18+
211.112	68	C15H15O+
211.1482	43	C16H19+
213.0911	9	C14H13O2+
213.1276	176	C15H17O+
213.1639	46	C16H21+
214.1359	2	C15H18O+
215.107	20	C14H15O2+
215.1432	95	C15H19O+
217.086	10	C13H13O3+
217.1224	19	C14H17O2+
217.1588	52	C15H21O+
218.1177	14	C13H16NO2+
218.167	15	C15H22O+
219.1018	11	C13H15O3+
219.1167	2	C17H15+
219.1381	14	C14H19O2+
219.1746	36	C15H23O+
220.097	301	C12H14NO3+
221.1329	24	C17H17+
221.1538	127	C14H21O2+
222.1128	20	C12H16NO3+
223.1121	25	C16H15O+
223.1482	62	C17H19+
224.1283	99	C12H18NO3+
225.0912	4	C15H13O2+
225.1274	41	C16H17O+
225.1638	33	C17H21+
226.1075	15	C11H16NO4+
226.1348	2	C16H18O+
227.1068	14	C15H15O2+
227.1432	56	C16H19O+
227.1795	56	C17H23+
228.152	3	C16H20O+
229.1224	50	C15H17O2+
229.1588	38	C16H21O+
231.1383	84	C15H19O2+
231.1748	18	C16H23O+
232.1338	18	C14H18NO2+
233.1183	2	C14H17O3+
233.1326	12	C18H17+
233.1538	20	C15H21O2+
234.1127	357	C13H16NO3+
235.1119	11	C17H15O+
235.1481	19	C18H19+
236.092	61	C12H14NO4+
236.1285	32	C13H18NO3+
237.0914	10	C16H13O2+
237.1271	21	C17H17O+
237.1639	62	C18H21+
238.1077	53	C12H16NO4+
239.1067	26	C16H15O2+
239.1428	27	C17H19O+
239.1796	48	C18H23+
241.1223	21	C16H17O2+
241.1588	48	C17H21O+
243.1375	9	C16H19O2+
243.1742	19	C17H23O+
245.1322	4	C19H17+
245.1538	45	C16H21O2+
246.1128	26	C14H16NO3+
247.1484	40	C19H19+
248.0921	63	C13H14NO4+
248.1283	19	C14H18NO3+
249.1639	131	C19H21+
250.1074	21	C13H16NO4+
251.1067	3	C17H15O2+
251.1433	20	C18H19O+
251.1793	22	C19H23+
253.1224	14	C17H17O2+
253.1588	30	C18H21O+
254.1025	138	C12H16NO5+
255.1372	8	C17H19O2+
255.1746	103	C18H23O+
257.1177	18	C16H17O3+
257.1536	10	C17H21O2+
257.1903	30	C18H25O+
259.1478	5	C20H19+
259.1697	13	C17H23O2+
261.1641	18	C20H21+
262.1076	69	C14H16NO4+
263.1428	8	C19H19O+
263.1644	21	C16H23O3+
263.1795	25	C20H23+
265.1588	158	C19H21O+
265.1954	13	C20H25+
266.1024	233	C13H16NO5+
267.1381	14	C18H19O2+
267.1744	102	C19H23O+
269.1535	15	C18H21O2+
269.191	18	C19H25O+
273.1635	9	C21H21+
275.1432	21	C20H19O+
275.1797	13	C21H23+
277.1223	3	C19H17O2+
277.159	19	C20H21O+
277.1957	4	C21H25+
278.1023	22	C14H16NO5+
279.1744	19	C20H23O+
280.1183	21	C14H18NO5+
281.1902	57	C20H25O+
283.1695	158	C19H23O2+
285.185	56	C19H25O2+
286.1441	22	C17H20NO3+
289.1588	3	C21H21O+
289.1954	20	C22H25+
290.1022	5	C15H16NO5+
291.1744	28	C21H23O+
291.2108	13	C22H27+
292.1178	17	C15H18NO5+
293.1538	145	C20H21O2+
293.1899	11	C21H25O+
294.1334	5	C15H20NO5+
295.1704	31	C20H23O2+
297.1848	18	C20H25O2+
299.2006	41	C20H27O2+
301.1942	7	C23H25+
303.211	11	C23H27+
304.1172	19	C16H18NO5+
304.1547	10	C17H22NO4+
306.134	26	C16H20NO5+
307.206	20	C22H27O+
309.185	47	C21H25O2+
309.2208	3	C22H29O+
310.1281	10	C15H20NO6+
311.1644	131	C20H23O3+
313.2159	4	C21H29O2+
315.1954	26	C20H27O3+
317.2113	33	C20H29O3+
319.1694	41	C22H23O2+
321.221	9	C23H29O+
322.1288	4	C16H20NO6+
327.1955	51	C21H27O3+
329.1747	35	C20H25O4+
331.2428	5	C25H31+
332.1496	54	C18H22NO5+
336.1442	5	C17H22NO6+
337.1799	61	C22H25O3+
338.1587	4	C17H24NO6+
339.1598	36	C21H23O4+
343.1904	53	C21H27O4+
346.1653	15	C19H24NO5+
349.2525	26	C25H33O+
355.1907	35	C22H27O4+
362.1603	13	C19H24NO6+
368.1857	3	C22H26NO4+
372.1799	4	C21H26NO5+
375.2166	28	C22H31O5+
386.1954	22	C22H28NO5+
394.2381	84	C25H32NO3+
399.2896	20	C26H39O3+
404.222	17	C26H30NO3+
407.2928	2	C28H39O2+
412.2483	16	C25H34NO4+
413.2665	235	C24H35N3O3+
414.2699	219	C18H40NO9+
422.2327	94	C26H32NO4+
424.2473	3	C26H34NO4+
426.2649	24	C26H36NO4+
440.2434	39	C26H34NO5+
448.2483	9	C28H34NO4+
450.2282	10	C27H32NO5+
458.29	35	C27H40NO5+
465.246	3	C25H37O8+
466.2596	29	C28H36NO5+
468.2379	22	C27H34NO6+
470.2906	21	C28H40NO5+
472.2697	11	C27H38NO6+
476.2991	2	C24H44O9+
479.2942	19	C34H39O2+
480.2746	3	C29H38NO5+
482.2541	3	C28H36NO6+
484.2692	10	C28H38NO6+
486.2844	36	C28H40NO6+
488.3012	17	C28H42NO6+
494.2526	5	C29H36NO6+
498.284	9	C29H40NO6+
500.2638	34	C28H38NO7+
502.3152	18	C29H44NO6+
504.2962	9	C28H42NO7+
511.3206	5	C35H43O3+
512.2629	11	C29H38NO7+
512.3007	13	C30H42NO6+
514.2795	10	C29H40NO7+
514.3163	32	C30H44NO6+
516.297	5	C29H42NO7+
526.2795	3	C30H40NO7+
529.3307	10	C35H45O4+
530.3103	18	C30H44NO7+
532.2921	19	C29H42NO8+
544.2904	5	C30H42NO8+
548.3199	3	C30H46NO8+
558.3067	24	C31H44NO8+
561.3575	4	C36H49O5+
576.3161	12	C31H46NO9+
579.3665	5	C36H51O6+
658.4097	3	C41H56NO6+
672.4301	3	C35H62NO11+
700.4212	3	C43H58NO7+
706.4677	15	C43H64NO7+
736.4414	5	C43H62NO9+
768.467	4	C44H66NO10+
