Mass spectrum: Metolachlor OXA; LC-ESI-ITFT; MS2; CE: 90%; R=7500; [M+H]+
Name: Metolachlor OXA
Name: 2-(2-ethyl-N-(2-methoxy-1-methyl-ethyl)-6-methyl-anilino)-2-keto-acetic acid
Formula: C15H21NO4
Exact mass: 279.1471
SMILES: CC1=CC=CC(CC)=C1N(C(C)COC)C(C(O)=O)=O
InChI: InChI=1S/C15H21NO4/c1-5-12-8-6-7-10(2)13(12)16(11(3)9-20-4)14(17)15(18)19/h6-8,11H,5,9H2,1-4H3,(H,18,19)
Instrument: LTQ Orbitrap XL Thermo Scientific
Instrument type: LC-ESI-ITFT
Ms type: MS2
Ion mode: POSITIVE
Ionization: ESI
Fragmentation mode: HCD
Collision energy: 90 % (nominal)
Resolution: 7500
Column name: XBridge C18 3.5um, 2.1x50mm, Waters
Retention time: 9.3 min
Base peak: 280.1539
Precursor m/z: 280.1543
Precursor type: [M+H]+
m/z	relative intensity	assigned
73.0648	86	C4H9O+
77.0386	52	C6H5+
79.0542	45	C6H7+
91.0542	734	C7H7+
93.0575	18	C6H7N+
93.0698	111	C7H9+
103.0543	121	C8H7+
104.062	98	C8H8+
105.0444	20	C6H5N2+
105.07	99	C8H9+
106.0652	92	C7H8N+
107.0729	23	C7H9N+
107.0852	17	C8H11+
108.0807	33	C7H10N+
109.0644	10	C7H9O+
115.0542	149	C9H7+
116.05	11	C8H6N+
116.0618	16	C9H8+
117.0574	103	C8H7N+
117.0699	309	C9H9+
118.0651	326	C8H8N+
119.0605	28	C7H7N2+
119.073	310	C8H9N+
119.0855	204	C9H11+
120.0808	103	C8H10N+
128.0622	44	C10H8+
129.0699	66	C10H9+
130.0652	428	C9H8N+
131.073	999	C9H9N+
132.0807	495	C9H10N+
133.0885	247	C9H11N+
134.0605	39	C8H8NO+
134.0965	271	C9H12N+
142.065	41	C10H8N+
143.0731	17	C10H9N+
144.0808	608	C10H10N+
145.0887	164	C10H11N+
146.0965	454	C10H12N+
147.0678	11	C9H9NO+
148.1121	185	C10H14N+
155.0604	18	C10H7N2+
156.0806	7	C11H10N+
158.0965	40	C11H12N+
159.1047	18	C11H13N+
160.0754	8	C10H10NO+
160.1121	126	C11H14N+
162.0912	20	C10H12NO+
176.1427	18	C12H18N+
