Mass spectrum: Isoxaflutole; LC-ESI-QFT; MS2; CE: 150%; R=15000; [M-H]-
Name: Isoxaflutole
Name: (5-cyclopropyl-1,2-oxazol-4-yl)-[2-methylsulfonyl-4-(trifluoromethyl)phenyl]methanone
Formula: C15H12F3NO4S
Exact mass: 359.0439135
SMILES: CS(=O)(=O)C1=C(C=CC(=C1)C(F)(F)F)C(=O)C1=C(ON=C1)C1CC1
InChI: InChI=1S/C15H12F3NO4S/c1-24(21,22)12-6-9(15(16,17)18)4-5-10(12)13(20)11-7-19-23-14(11)8-2-3-8/h4-8H,2-3H2,1H3
Instrument: Q Exactive Plus
Instrument type: LC-ESI-QFT
Ms type: MS2
Ion mode: NEGATIVE
Ionization: ESI
Fragmentation mode: HCD
Collision energy: 150 % (nominal)
Resolution: 15000
Column name: XBridge C18 3.5um, 2.1x50mm, Waters
Retention time: 7.728 min
Base peak: 116.9287
Precursor m/z: 358.0366
Precursor type: [M-H]-
Precursor intensity: 4704394.01
m/z	relative intensity	assigned
63.9624	999	O2S-
