Mass spectrum: Thiazopyr; LC-ESI-QFT; MS2; CE: 75; R=35000; [M+H]+
Name: Thiazopyr
Name: 2-(difluoromethyl)-4-isobutyl-5-(2-thiazolin-2-yl)-6-(trifluoromethyl)nicotinic acid methyl ester
Formula: C16H17F5N2O2S
Exact mass: 396.09309
SMILES: FC(F)c2nc(c(C/1=N/CCS\1)c(c2C(=O)OC)CC(C)C)C(F)(F)F
InChI: InChI=1S/C16H17F5N2O2S/c1-7(2)6-8-9(15(24)25-3)11(13(17)18)23-12(16(19,20)21)10(8)14-22-4-5-26-14/h7,13H,4-6H2,1-3H3
Instrument: Q Exactive Orbitrap Thermo Scientific
Instrument type: LC-ESI-QFT
Ms type: MS2
Ion mode: POSITIVE
Ionization: ESI
Fragmentation mode: HCD
Collision energy: 75 (nominal)
Resolution: 35000
Column name: XBridge C18 3.5um, 2.1x50mm, Waters
Retention time: 12.9 min
Base peak: 397.0997
Precursor m/z: 397.1004
Precursor type: [M+H]+
m/z	relative intensity	assigned
58.995	47	C2H3S+
60.0028	54	C2H4S+
61.0106	999	C2H5S+
68.9792	5	C3HS+
73.0647	6	C4H9O+
75.0262	5	C3H7S+
76.0215	20	C2H6NS+
122.0395	5	C4H10O2S+
128.0621	8	C10H8+
129.0698	36	C10H9+
136.9926	7	C6H3NOS+
145.0646	6	C10H9O+
146.0058	7	F5H5NS+
147.0602	9	C10H8F+
154.065	58	C11H8N+
155.06	28	C2H8F5N2+
155.0728	11	C11H9N+
160.0554	11	C10H7FN+
161.0506	5	C6H11NO2S+
166.0118	8	C8H5FNS+
170.0594	8	C11H8NO+
172.0212	26	C2H7F5NS+
172.0553	7	C8H12O2S+
173.0165	9	CH6F5N2S+
173.0505	7	C7H11NO2S+
173.0706	21	C10H9N2O+
174.0711	107	C8H14O2S+
175.0788	11	C8H15O2S+
179.0535	7	C7H12FO2S+
180.0613	10	C7H13FO2S+
181.0565	5	C6H12FNO2S+
181.0756	19	C4H10F5N2+
183.0552	6	C3H8F5N2O+
184.0025	25	C8H4F2NS+
184.0226	7	C8H7FNOS+
184.0554	6	C9H12O2S+
185.0165	7	C2H6F5N2S+
186.0179	25	C5H4F4NO2+
186.0584	32	C8H12NO2S+
187.0663	20	C8H13NO2S+
188.0504	9	C11H7FNO+
189.0476	7	C7H7F2N2O2+
190.0461	21	
191.0271	10	CH8F5N2OS+
191.0411	26	C7H10FNO2S+
192.0274	9	C10H7FNS+
192.0617	9	C8H13FO2S+
192.0815	125	C11H11FNO+
193.0222	34	C6H4F3N2O2+
193.0769	27	
194.0064	6	C12H4NS+
194.0772	21	C8H15FO2S+
195.0161	21	C6H7F2NO2S+
197.0505	34	
198.0054	6	C8H4F2N2S+
198.0177	11	C6H4F4NO2+
199.0473	27	C6H11F2NO2S+
199.0861	21	C4H12F5N2O+
200.0741	26	C9H14NO2S+
201.0819	65	C9H15NO2S+
201.9927	5	C13NO2+
202.0659	37	C12H9FNO+
203.0004	41	C13HNO2+
203.0611	20	C11H8FN2O+
203.0737	9	C12H10FNO+
204.0148	25	C10H5FN2S+
204.0272	6	C11H7FNS+
204.0617	24	C9H13FO2S+
205.0229	36	C10H6FN2S+
206.0308	5	C10H7FN2S+
206.0648	107	C8H13FNO2S+
207.0367	8	C10H5F2N2O+
207.0726	26	C8H14FNO2S+
207.9938	5	C11F4+
208.0019	34	C7H2F4NO2+
208.0564	20	C11H8F2NO+
208.9975	30	C9H3F2N2S+
210.0057	18	C9H4F2N2S+
210.0374	10	C13H8NS+
210.0522	58	C8H12F2O2S+
211.0129	25	C6H3F4N2O2+
211.0324	21	C12H7N2S+
211.0476	28	
213.0265	41	C9H4F3N2O+
213.0472	9	C9H7F2N2O2+
213.0817	7	C10H15NO2S+
213.9932	5	C9H3F3NS+
214.0128	10	C12H5FNS+
214.0534	7	C12H7FN2O+
214.9879	25	C8H2F3N2S+
215.0071	24	C11H4FN2S+
215.0222	6	C6H8F3NO2S+
215.0612	22	C12H8FN2O+
215.0972	6	C10H17NO2S+
215.996	27	C8H3F3N2S+
217.057	72	C12H7F2N2+
218.0305	8	C8H5F3N2O2+
218.0643	6	C9H13FNO2S+
219.0379	60	C8H6F3N2O2+
219.0721	22	C9H14FNO2S+
220.0223	18	C11H7FNOS+
220.0571	6	C12H8F2NO+
220.0764	6	C12H11FNO2+
221.0176	48	C10H6FN2OS+
221.0316	6	C11H4F3N2+
221.0881	51	C9H16FNO2S+
222.0247	18	C13H6N2S+
222.0396	24	C8H10F2NO2S+
222.0721	172	C12H10F2NO+
223.0128	36	C7H3F4N2O2+
223.0677	44	C11H9F2N2O+
223.9842	8	C9H2F2N2OS+
223.9974	5	C10H4F2NOS+
224.0209	52	C7H4F4N2O2+
224.0677	39	C9H14F2O2S+
225.0288	134	C10H7F2N2S+
225.046	7	C13H6FN2O+
225.9802	5	C9HF3N2S+
226.0131	8	C10H6F2NOS+
226.0364	22	C7H6F4N2O2+
226.9881	8	C9H2F3N2S+
227.0085	5	C9H5F2N2OS+
227.0432	19	C10H6F3N2O+
227.9971	9	C9H3F3N2S+
228.0083	45	C15H2NO2+
228.0619	7	C14H8F2N+
229.0035	46	
229.0767	76	C13H10FN2O+
230.0119	91	C14H2N2O2+
230.0446	19	C10H10F2NOS+
231.0023	7	C11H4FN2OS+
231.0381	25	C9H6F3N2O2+
231.0713	5	C13H13NOS+
232.01	43	C11H5FN2OS+
232.9791	27	C8HF4N2S+
232.9988	9	C8H4F3N2OS+
233.0334	47	C9H5F4N2O+
233.0522	41	C12H7F2N2O+
233.9993	26	C14HFNO2+
234.0596	61	C12H8F2N2O+
234.9948	15	C8H3F4N2S+
235.0139	99	C11H5F2N2S+
235.0328	24	C14H7N2S+
235.0479	9	C12H6F3N2+
235.0673	59	C12H9F2N2O+
236.9925	56	C10H3F2N2OS+
237.0287	6	C8H5F4N2O2+
237.048	29	C14H9N2S+
237.0631	55	C9H13F2NO2S+
238.0468	38	C15H6F2N+
238.0703	9	C9H14F2NO2S+
239.0084	7	C13H4FN2S+
239.0436	62	C8H7F4N2O2+
239.0992	6	C12H13F2N2O+
240.0133	24	
240.0284	7	C11H8F2NOS+
240.988	4	C9H3F2N2O2S+
241.0048	6	C10H4F3N2S+
241.0236	49	C13H6FN2S+
242.0103	22	C10H2F4N2O+
242.046	26	C11H6F4N2+
242.9832	60	C12HF2N2S+
243.0194	69	C15H3N2O2+
243.0545	11	C11H7F4N2+
243.0922	5	C14H12FN2O+
243.9913	35	C9H3F3N2OS+
244.0029	7	C13H4F2NS+
244.0269	71	C15H4N2O2+
244.9994	12	C9H4F3N2OS+
245.0525	40	C13H7F2N2O+
245.9867	21	C9H2F4N2S+
246.9941	45	C14FN2O2+
247.0325	41	C15H7N2S+
247.0482	28	C13H6F3N2+
247.0686	5	C10H10F3N2O2+
248.0025	108	C9H4F4N2S+
248.0154	20	C10H6F4NS+
249.011	36	C9H5F4N2S+
249.083	142	C13H11F2N2O+
250.0199	10	C14H6N2OS+
250.0671	38	C13H10F2NO2+
251.0082	55	C11H5F2N2OS+
251.0624	35	C12H9F2N2O2+
251.0783	6	C10H15F2NO2S+
252.0162	55	C11H6F2N2OS+
253.0003	45	C11H5F2NO2S+
253.0234	55	C14H6FN2S+
253.0581	26	C12H8F3N2O+
253.9963	5	C10H4F2N2O2S+
254.0115	13	C16H2N2O2+
255.0194	211	C11H6F3N2S+
255.037	31	C11H6F3N2O2+
255.0493	12	C15H7F2NO+
256.0031	90	C14H4F2NS+
256.0263	39	C8H5F5N2O2+
256.0462	6	C11H7F3N2O2+
256.0567	39	C15H8F2NO+
256.9996	34	C10H4F3N2OS+
257.0348	25	C16H5N2O2+
257.0546	13	C14H10FN2S+
257.0704	20	C9H10F5N2O+
258.0066	56	C10H5F3N2OS+
259.0145	20	C10H6F3N2OS+
259.049	18	C11H7F4N2O+
260.0039	10	C15H4N2OS+
260.9936	26	C9H4F3N2O2S+
261.0291	11	C13H7F2N2S+
262.0177	43	C15H3FN2O2+
262.0528	5	C16H7FN2O+
262.9894	53	C9H3F4N2OS+
263.0085	10	C12H5F2N2OS+
263.0625	10	C16H8FN2O+
263.9975	5	C9H4F4N2OS+
264.9873	32	C11H3F2N2O2S+
265.0446	14	C12H10FN2O2S+
265.0582	117	C13H8F3N2O+
267.0387	29	C15H8FN2S+
268.0232	30	C15H7FNOS+
269.0193	36	C11H7F2N2O2S+
269.0745	8	C15H13N2OS+
269.0886	59	C16H11F2N2+
270.9785	35	C10H2F3N2O2S+
271.0143	524	C11H6F3N2OS+
271.0685	100	C12H10F3N2O2+
271.9857	54	C10H3F3N2O2S+
271.9987	18	C11H5F3NO2S+
272.0221	114	C11H7F3N2OS+
272.0686	6	C16H9F3N+
272.9935	9	C10H4F3N2O2S+
273.0291	8	C14H7F2N2S+
274.0173	34	C16H3FN2O2+
275.0256	989	C16H4FN2O2+
276.0334	631	C16H5FN2O2+
277.0039	6	C13H4F3N2S+
277.0599	20	C11H9F4N2O2+
279.0026	17	C15H4FN2OS+
279.0736	7	C14H10F3N2O+
280.0101	39	C15H5FN2OS+
280.0399	24	C14H9F3NS+
282.0423	8	C13H9F3N2S+
282.0602	5	C16H8F2N2O+
283.0142	76	C12H6F3N2OS+
285.0496	32	C15H10FN2OS+
285.0644	57	C16H8F3N2+
287.0449	44	C15H9F2N2S+
288.0296	92	C12H9F3NO2S+
288.988	6	C13H3F2N2O2S+
289.0243	23	C14H7F2N2OS+
290.9842	95	C10H3F4N2O2S+
291.0203	103	C14H6F3N2S+
291.9921	13	C10H4F4N2O2S+
293.0545	31	C14H8F3N2O2+
294.007	4	C13H5F3N2OS+
297.0849	21	C14H12F3N2O2+
299.0091	397	C12H6F3N2O2S+
300.017	417	C12H7F3N2O2S+
303.0205	498	C12H7F4N2OS+
304.0122	10	C14H6F2N2O2S+
306.0079	13	C11H6F4N2O2S+
307.0336	5	C14H9F2N2O2S+
307.0502	6	C12H8F5N2O2+
310.0382	8	C14H9F3N2OS+
314.0316	7	C16H8F2N2OS+
315.0403	66	C16H9F2N2OS+
317.0202	27	C15H7F2N2O2S+
319.0154	759	C12H7F4N2O2S+
327.0398	7	C14H10F3N2O2S+
327.0569	21	C15H11F4N2S+
335.0469	148	C13H11F4N2O2S+
