Mass spectrum: Dronedarone; LC-ESI-ITFT; MS2; CE: 35%; R=30000; [M+H]+
Name: Dronedarone
Name: N-[2-butyl-3-[4-[3-(dibutylamino)propoxy]benzoyl]-1-benzofuran-5-yl]methanesulfonamide
Formula: C31H44N2O5S
Exact mass: 556.2971
SMILES: CS(=O)(=O)Nc1cc2c(c(oc2cc1)CCCC)C(c1ccc(cc1)OCCCN(CCCC)CCCC)=O
InChI: InChI=1S/C31H44N2O5S/c1-5-8-12-29-30(27-23-25(32-39(4,35)36)15-18-28(27)38-29)31(34)24-13-16-26(17-14-24)37-22-11-21-33(19-9-6-2)20-10-7-3/h13-18,23,32H,5-12,19-22H2,1-4H3
Instrument: LTQ Orbitrap XL Thermo Scientific
Instrument type: LC-ESI-ITFT
Ms type: MS2
Ion mode: POSITIVE
Ionization: ESI
Fragmentation mode: CID
Collision energy: 35 % (nominal)
Resolution: 30000
Column name: XBridge C18 3.5um, 2.1x50mm, Waters
Retention time: 11.5 min
Base peak: 557.3051
Precursor m/z: 557.3044
Precursor type: [M+H]+
m/z	relative intensity	assigned
161.0597	1	C10H9O2+
170.1902	117	C11H24N+
173.0471	1	C10H7NO2+
186.0548	1	C11H8NO2+
186.0912	1	C12H12NO+
186.1852	1	C11H24NO+
214.0859	3	C13H12NO2+
215.0941	6	C13H13NO2+
222.0914	1	C15H12NO+
249.0788	1	C16H11NO2+
252.0323	18	C11H10NO4S+
266.0804	1	C16H12NO3+
279.0883	1	C17H13NO3+
280.0966	1	C17H14NO3+
292.1332	3	C19H18NO2+
294.0792	188	C14H16NO4S+
295.0822	2	C15H11N4O3+
305.1049	1	C19H15NO3+
308.1275	6	C19H18NO3+
309.1355	7	C19H19NO3+
310.1433	35	C19H20NO3+
311.1463	1	C20H23OS+
320.1271	1	C20H18NO3+
321.1347	1	C20H19NO3+
321.1708	1	C21H23NO2+
324.1588	48	C20H22NO3+
325.1625	2	C21H25OS+
336.1587	13	C21H22NO3+
348.1581	2	C22H22NO3+
349.1669	2	C22H23NO3+
350.1742	12	C22H24NO3+
366.1912	2	C19H28NO6+
372.1259	20	
379.2011	24	C23H27N2O3+
388.1209	29	C26H16N2O2+
393.2167	7	C24H29N2O3+
421.2479	35	C26H33N2O3+
422.256	6	C26H34N2O3+
423.2636	10	C26H35N2O3+
428.1522	12	C29H20N2O2+
435.264	999	C27H35N2O3+
436.2666	39	C28H38NOS+
449.2789	4	C28H37N2O3+
477.31	5	C30H41N2O3+
478.3186	2	C30H42N2O3+
479.3259	26	C30H43N2O3+
501.241	347	C27H37N2O5S+
502.2446	13	C30H34N2O5+
