Mass spectrum: MCLF; LC-ESI-QFT; MS2; CE: 60%; R=17500; [M-H]-
Name: MCLF
Name: Microcystin LF
Name: 15-benzyl-18-[(1E,3E)-6-methoxy-3,5-dimethyl-7-phenylhepta-1,3-dienyl]-1,5,12,19-tetramethyl-2-methylidene-8-(2-methylpropyl)-3,6,9,13,16,20,25-heptaoxo-1,4,7,10,14,17,21-heptazacyclopentacosane-11,22-dicarboxylic acid
Class: NA
Formula: C52H71N7O12
Exact mass: 985.5161
SMILES: COC(Cc1ccccc1)C(C)/C=C(C)/C=C/C2NC(=O)C(Cc3ccccc3)NC(=O)C(C)C(NC(=O)C(CC(C)C)NC(=O)C(C)NC(=O)C(=C)N(C)C(=O)CCC(NC(=O)C2C)C(O)=O)C(O)=O
InChI: InChI=1S/C52H71N7O12/c1-29(2)25-40-50(66)58-44(52(69)70)33(6)46(62)56-41(27-36-17-13-11-14-18-36)49(65)54-38(22-21-30(3)26-31(4)42(71-10)28-37-19-15-12-16-20-37)32(5)45(61)55-39(51(67)68)23-24-43(60)59(9)35(8)48(64)53-34(7)47(63)57-40/h11-22,26,29,31-34,38-42,44H,8,23-25,27-28H2,1-7,9-10H3,(H,53,64)(H,54,65)(H,55,61)(H,56,62)(H,57,63)(H,58,66)(H,67,68)(H,69,70)/b22-21+,30-26+
Instrument: Q Exactive Plus Orbitrap Thermo Scientific
Instrument type: LC-ESI-QFT
Ms type: MS2
Ion mode: NEGATIVE
Ionization: ESI
Fragmentation mode: HCD
Collision energy: 60 % (nominal)
Resolution: 17500
Column name: XBridge C18 3.5um, 2.1x50mm, Waters
Retention time: 12.295 min
Base peak: 190.9277
Precursor m/z: 984.5088
Precursor type: [M-H]-
m/z	relative intensity	assigned
72.0455	78	C3H6NO-
73.0295	32	C3H5O2-
74.0248	94	C2H4NO2-
82.0299	106	C4H4NO-
82.0663	62	C5H8N-
84.0455	138	C4H6NO-
84.0819	22	C5H10N-
85.0407	13	C3H5N2O-
87.0565	98	C3H7N2O-
88.0404	26	C3H6NO2-
91.0555	20	C7H7-
95.0251	30	C4H3N2O-
96.0819	42	C6H10N-
97.0408	34	C4H5N2O-
99.0565	235	C4H7N2O-
108.033	23	C5H4N2O-
109.0408	48	C5H5N2O-
110.0248	998	C5H4NO2-
110.0612	22	
111.02	35	C4H3N2O2-
111.0562	28	C5H7N2O-
112.0405	150	C5H6NO2-
112.0769	62	C6H10NO-
113.0358	89	C4H5N2O2-
116.0505	34	C8H6N-
118.0662	40	C8H8N-
122.0484	37	C6H6N2O-
122.0972	15	C8H12N-
123.0326	35	C6H5NO2-
123.0563	60	C6H7N2O-
124.0404	215	C6H6NO2-
125.072	54	C6H9N2O-
127.0512	190	C5H7N2O2-
128.0353	999	C5H6NO3-
129.1034	427	C6H13N2O-
131.0861	27	C10H11-
136.1124	26	C9H14N-
138.0433	79	C6H6N2O2-
138.0539	17	C4H10O5-
139.0876	244	C7H11N2O-
146.0607	20	C9H8NO-
150.0561	83	C8H8NO2-
152.0822	30	C5H8N6-
153.0668	169	C7H9N2O2-
153.1033	54	C8H13N2O-
155.0825	88	C7H11N2O2-
155.119	35	C8H15N2O-
165.1028	389	C9H13N2O-
167.0823	57	C8H11N2O2-
170.0923	15	C5H10N6O-
180.1138	270	C9H14N3O-
182.1292	632	C7H14N6-
183.1135	65	C9H15N2O2-
193.0723	26	C7H13O6-
198.1237	31	C7H14N6O-
200.1394	148	C7H16N6O-
208.1086	61	C10H14N3O2-
226.119	14	C8H14N6O2-
