Mass spectrum: Lorazepam; LC-ESI-QFT; MS2; CE: 90; R=35000; [M+H]+
Name: Lorazepam
Name: 2H-1,4-Benzodiazepin-2-one, 7-chloro-5-(2-chlorophenyl)-1,3-dihydro-3-hydroxy-
Name: 7-chloranyl-5-(2-chlorophenyl)-3-oxidanyl-1,3-dihydro-1,4-benzodiazepin-2-one
Formula: C15H10Cl2N2O2
Exact mass: 320.01193
SMILES: Clc3ccccc3C/2=N/C(O)C(=O)Nc1c\2cc(Cl)cc1
InChI: InChI=1S/C15H10Cl2N2O2/c16-8-5-6-12-10(7-8)13(19-15(21)14(20)18-12)9-3-1-2-4-11(9)17/h1-7,15,21H,(H,18,20)
Instrument: Q Exactive Orbitrap Thermo Scientific
Instrument type: LC-ESI-QFT
Ms type: MS2
Ion mode: POSITIVE
Ionization: ESI
Fragmentation mode: HCD
Collision energy: 90 (nominal)
Resolution: 35000
Column name: XBridge C18 3.5um, 2.1x50mm, Waters
Retention time: 8.9 min
Base peak: 321.0195
Precursor m/z: 321.0192
Precursor type: [M+H]+
m/z	relative intensity	assigned
51.023	1	C4H3+
65.0386	5	C5H5+
66.0464	20	C5H6+
74.015	2	C6H2+
75.0228	34	C6H3+
76.0181	8	C5H2N+
77.0385	7	C6H5+
78.0338	6	C5H4N+
86.9996	6	C4H4Cl+
90.0338	15	C6H4N+
92.0494	15	C6H6N+
93.0572	247	C6H7N+
95.0491	15	C6H7O+
98.9996	11	C5H4Cl+
100.0181	30	C7H2N+
102.0337	47	C7H4N+
105.0448	6	C6H5N2+
110.9995	9	C6H4Cl+
111.044	1	C6H7O2+
117.0447	12	C7H5N2+
118.0524	64	C7H6N2+
120.0443	88	C7H6NO+
126.0105	31	C6H5ClN+
128.026	50	C6H7ClN+
129.0101	65	C6H6ClO+
130.04	250	C7H4N3+
135.9948	26	C7H3ClN+
138.0104	481	C7H5ClN+
139.0057	140	C6H4ClN2+
145.0508	8	C7H5N4+
151.0057	19	C7H4ClN2+
152.0135	7	C7H5ClN2+
153.0213	31	C7H6ClN2+
154.0054	27	C7H5ClNO+
155.0351	6	C8H3N4+
156.0211	1	C7H7ClNO+
163.0057	582	C8H4ClN2+
164.0009	218	C10N2O+
166.0052	11	C8H5ClNO+
166.0651	37	C12H8N+
167.0728	42	C12H9N+
168.0682	17	C11H8N2+
176.0493	2	C13H6N+
177.0572	152	C13H7N+
178.065	18	C13H8N+
179.0007	13	C8H4ClN2O+
181.0162	48	C8H6ClN2O+
183.0553	5	C11H7N2O+
186.0232	26	C12H7Cl+
192.0685	13	C13H8N2+
193.0761	138	C13H9N2+
194.0838	999	C13H10N2+
195.0917	5	C13H11N2+
203.0601	12	C14H7N2+
204.0683	45	C14H8N2+
205.0761	157	C14H9N2+
206.0599	13	C14H8NO+
212.0263	11	C13H7ClN+
213.0339	34	C13H8ClN+
214.0416	10	C13H9ClN+
221.0708	13	C14H9N2O+
228.045	34	C13H9ClN2+
229.0527	670	C13H10ClN2+
230.037	8	C13H9ClNO+
239.037	355	C14H8ClN2+
240.0448	14	C14H9ClN2+
241.0288	5	C14H8ClNO+
248.0026	20	C13H8Cl2N+
255.0324	9	C14H8ClN2O+
257.0476	11	C14H10ClN2O+
263.0137	63	C13H9Cl2N2+
272.9977	15	C14H7Cl2N2+
275.0137	390	C14H9Cl2N2+
291.0087	19	C14H9Cl2N2O+
