Mass spectrum: Mycophenolic acid; LC-ESI-ITFT; MS2; CE: 45%; R=7500; [M-H]-
Name: Mycophenolic acid
Name: (E)-6-(4-hydroxy-3-keto-6-methoxy-7-methyl-phthalan-5-yl)-4-methyl-hex-4-enoic acid
Formula: C17H20O6
Exact mass: 320.1260
SMILES: c12c(c(c(C\C=C(\CCC(O)=O)C)c(c1C)OC)O)C(=O)OC2
InChI: InChI=1S/C17H20O6/c1-9(5-7-13(18)19)4-6-11-15(20)14-12(8-23-17(14)21)10(2)16(11)22-3/h4,20H,5-8H2,1-3H3,(H,18,19)/b9-4+
Instrument: LTQ Orbitrap XL Thermo Scientific
Instrument type: LC-ESI-ITFT
Ms type: MS2
Ion mode: NEGATIVE
Ionization: ESI
Fragmentation mode: HCD
Collision energy: 45 % (nominal)
Resolution: 7500
Column name: XBridge C18 3.5um, 2.1x50mm, Waters
Retention time: 9.6 min
Base peak: 319.1183
Precursor m/z: 319.1187
Precursor type: [M-H]-
m/z	relative intensity	assigned
135.0446	40	C8H7O2-
179.0348	259	C9H7O4-
191.035	999	C10H7O4-
192.0426	323	C10H8O4-
199.1132	62	C14H15O-
203.0341	74	C11H7O4-
205.0506	471	C11H9O4-
207.0657	149	C11H11O4-
215.108	93	C14H15O2-
245.0817	174	C14H13O4-
275.1286	223	C16H19O4-
287.0922	125	C16H15O5-
319.1191	416	C17H19O6-
