Mass spectrum: 3,4-Methylenedioxy-N-ethylamphetamine (MDEA); LC-ESI-QFT; MS2; CE: 120; R=35000; [M+H]+
Name: 3,4-Methylenedioxy-N-ethylamphetamine (MDEA)
Name: 3,4-methylenedioxyethamphetamine
Name: 1-(1,3-benzodioxol-5-yl)-N-ethylpropan-2-amine
Formula: C12H17NO2
Exact mass: 207.12593
SMILES: CCNC(C)CC1=CC2=C(C=C1)OCO2
InChI: InChI=1S/C12H17NO2/c1-3-13-9(2)6-10-4-5-11-12(7-10)15-8-14-11/h4-5,7,9,13H,3,6,8H2,1-2H3
Instrument: Q Exactive Plus Orbitrap Thermo Scientific
Instrument type: LC-ESI-QFT
Ms type: MS2
Ion mode: POSITIVE
Ionization: ESI
Fragmentation mode: HCD
Collision energy: 120 (nominal)
Resolution: 35000
Column name: XBridge C18 3.5um, 2.1x50mm, Waters
Retention time: 4.0 min
Base peak: 208.1326
Precursor m/z: 208.1332
Precursor type: [M+H]+
m/z	relative intensity	assigned
50.0151	66	C4H2+
51.0229	79	C4H3+
53.0386	196	C4H5+
55.0178	72	C3H3O+
63.0229	1	C5H3+
65.0385	177	C5H5+
66.0463	2	C5H6+
67.0541	11	C5H7+
68.0256	1	C4H4O+
68.9969	1	C3HO2+
72.0807	43	C4H10N+
77.0384	617	C6H5+
78.0463	7	C6H6+
79.0541	999	C6H7+
81.0334	24	C5H5O+
89.0385	12	C7H5+
90.0465	1	C7H6+
91.0541	32	C7H7+
93.0335	22	C6H5O+
94.0411	7	C6H6O+
95.049	680	C6H7O+
102.0463	9	C8H6+
103.0541	563	C8H7+
104.062	8	C8H8+
105.0334	110	C7H5O+
105.0446	412	C6H5N2+
105.0698	385	C8H9+
106.0416	4	C7H6O+
107.0489	6	C7H7O+
109.0647	1	C7H9O+
111.044	9	C6H7O2+
115.0541	29	C9H7+
118.0411	1	C8H6O+
121.0283	61	C7H5O2+
122.0361	10	C7H6O2+
131.0488	4	C9H7O+
133.0646	10	C9H9O+
135.0439	234	C8H7O2+
147.0439	69	C9H7O2+
148.0517	11	C9H8O2+
