Mass spectrum: Fipronil-sulfide; LC-ESI-ITFT; MS2; CE: 90%; R=15000; [M+H]+
Name: Fipronil-sulfide
Name: 5-Amino-1-[2,6-dichloro-4-(trifluoromethyl)phenyl]-4-[(trifluoromethyl)sulfanyl]-1H-pyrazole-3-carbonitrile
Formula: C12H4Cl2F6N4S
Exact mass: 419.9438
SMILES: FC(F)(F)c2cc(Cl)c(n1nc(C#N)c(SC(F)(F)F)c1N)c(Cl)c2
InChI: InChI=1S/C12H4Cl2F6N4S/c13-5-1-4(11(15,16)17)2-6(14)8(5)24-10(22)9(7(3-21)23-24)25-12(18,19)20/h1-2H,22H2
Instrument: LTQ Orbitrap XL Thermo Scientific
Instrument type: LC-ESI-ITFT
Ms type: MS2
Ion mode: POSITIVE
Ionization: ESI
Fragmentation mode: HCD
Collision energy: 90 % (nominal)
Resolution: 15000
Column name: XBridge C18 3.5um, 2.1x50mm, Waters
Retention time: 13.0 min
Base peak: 442.9332
Precursor m/z: 420.9511
Precursor type: [M+H]+
m/z	relative intensity	assigned
97.9932	230	C3H2N2S+
200.9477	90	CHCl2F4N3+
201.993	309	C3H2F4N4S+
203.9822	118	C8H2ClF3N+
212.9483	79	C7H2Cl2F3+
217.9631	63	C3H2ClF3N4S+
220.0012	34	C8H4ClF3N2+
221.0085	92	C8H5ClF3N2+
226.9884	164	C9H2F3N2S+
227.9585	212	C2H2Cl2F4N4+
228.9665	48	C2H3Cl2F4N4+
230.9926	64	C9H3ClF3N2+
237.9696	999	C3H3ClF4N4S+
238.9507	82	C3HCl2F4N4+
242.9589	72	C9H2ClF2N2S+
246.0042	92	C9H4ClF3N3+
247.9541	233	C4HClF4N4S+
254.9696	113	C9HF6S+
256.9192	67	C3HCl2F4N3S+
262.9649	769	C9H3ClF3N2S+
264.9807	236	C9H5ClF3N2S+
274.9642	132	C10H3ClF3N2S+
289.9758	35	C10H4ClF3N3S+
316.9878	34	C11H5ClF3N4S+
325.9139	34	C12Cl2F2N3S+
