Mass spectrum: Benodanil; LC-ESI-QFT; MS2; CE: 120%; R=17500; [M+H]+
Name: Benodanil
Name: 2-iodo-N-phenylbenzamide
Formula: C13H10INO
Exact mass: 322.9807
SMILES: C1=CC=C(C=C1)NC(=O)C2=CC=CC=C2I
InChI: InChI=1S/C13H10INO/c14-12-9-5-4-8-11(12)13(16)15-10-6-2-1-3-7-10/h1-9H,(H,15,16)
Instrument: Exploris 240 Orbitrap Thermo Scientific
Instrument type: LC-ESI-QFT
Ms type: MS2
Ion mode: POSITIVE
Ionization: ESI
Fragmentation mode: HCD
Collision energy: 120 % (nominal)
Resolution: 17500
Column name: XBridge C18 3.5um, 2.1x50mm, Waters
Retention time: 6.793 min
Base peak: 216.1009
Precursor m/z: 323.988
Precursor type: [M+H]+
m/z	relative intensity	assigned
50.0151	144	C4H2+
51.0228	12	C4H3+
52.0308	20	C4H4+
53.0386	11	C4H5+
63.0227	6	C5H3+
64.0306	6	C5H4+
66.0463	45	C5H6+
75.0231	5	C6H3+
76.0307	999	C6H4+
77.0385	57	C6H5+
81.0337	4	C5H5O+
91.0179	22	C6H3O+
94.0412	74	C6H6O+
95.049	13	C6H7O+
104.0255	47	C7H4O+
105.0334	12	C7H5O+
202.9353	78	C6H4I+
220.9455	7	C6H6IO+
