Mass spectrum: Epinephrine; LC-ESI-QFT; MS2; CE: 45; R=35000; [M-H]-
Name: Epinephrine
Name: 4-[(1R)-1-hydroxy-2-(methylamino)ethyl]benzene-1,2-diol
Formula: C9H13NO3
Exact mass: 183.08954
SMILES: CNC[C@@H](C1=CC(=C(C=C1)O)O)O
InChI: InChI=1S/C9H13NO3/c1-10-5-9(13)6-2-3-7(11)8(12)4-6/h2-4,9-13H,5H2,1H3/t9-/m0/s1
Instrument: Q Exactive Orbitrap Thermo Scientific
Instrument type: LC-ESI-QFT
Ms type: MS2
Ion mode: NEGATIVE
Ionization: ESI
Fragmentation mode: HCD
Collision energy: 45 (nominal)
Resolution: 35000
Column name: XBridge C18 3.5um, 2.1x50mm, Waters
Retention time: 0.8 min
Base peak: 182.0824
Precursor m/z: 182.0823
Precursor type: [M-H]-
m/z	relative intensity	assigned
93.0345	3	C6H5O-
108.0217	6	C6H4O2-
109.0295	28	C6H5O2-
121.0296	5	C7H5O2-
122.0374	781	C7H6O2-
123.0451	31	C7H7O2-
124.0165	15	C6H4O3-
131.0377	1	C8H5NO-
134.0374	3	C8H6O2-
135.0452	15	C8H7O2-
136.0168	4	C7H4O3-
137.0244	38	C7H5O3-
139.0402	3	C7H7O3-
147.0327	4	C8H5NO2-
148.0405	33	C8H6NO2-
149.0481	285	C8H7NO2-
153.0193	2	C7H5O4-
154.0272	38	C7H6O4-
160.0405	1	C9H6NO2-
161.0482	8	C9H7NO2-
162.0562	29	C9H8NO2-
163.064	8	C9H9NO2-
164.0717	999	C9H10NO2-
182.0822	8	C9H12NO3-
