Mass spectrum: Ofurace; LC-ESI-QFT; MS2; CE: 150%; R=17500; [M+H]+
Name: Ofurace
Name: 2-chloro-N-(2,6-dimethylphenyl)-N-(2-oxooxolan-3-yl)acetamide
Formula: C14H16ClNO3
Exact mass: 281.0819
SMILES: CC1=C(C(=CC=C1)C)N(C2CCOC2=O)C(=O)CCl
InChI: InChI=1S/C14H16ClNO3/c1-9-4-3-5-10(2)13(9)16(12(17)8-15)11-6-7-19-14(11)18/h3-5,11H,6-8H2,1-2H3
Instrument: Exploris 240 Orbitrap Thermo Scientific
Instrument type: LC-ESI-QFT
Ms type: MS2
Ion mode: POSITIVE
Ionization: ESI
Fragmentation mode: HCD
Collision energy: 150 % (nominal)
Resolution: 17500
Column name: XBridge C18 3.5um, 2.1x50mm, Waters
Retention time: 5.728 min
Base peak: 312.1342
Precursor m/z: 282.0891
Precursor type: [M+H]+
m/z	relative intensity	assigned
51.0229	114	C4H3+
53.0384	137	C4H5+
65.0386	85	C5H5+
77.0386	653	C6H5+
78.0464	34	C6H6+
79.0542	647	C6H7+
90.0466	93	C7H6+
91.0543	349	C7H7+
95.0492	202	C6H7O+
103.0541	491	C8H7+
105.0698	393	C8H9+
106.0652	458	C7H8N+
115.0543	92	C9H7+
117.0573	756	C8H7N+
118.0653	112	C8H8N+
120.0806	283	C8H10N+
121.0886	43	C8H11N+
128.0623	76	C10H8+
130.0651	999	C9H8N+
131.0729	110	C9H9N+
132.0809	245	C9H10N+
144.0808	869	C10H10N+
