Mass spectrum: Nafcillin; LC-ESI-QFT; MS2; CE: 90; R=35000; [M-H]-
Name: Nafcillin
Name: (2S,5R,6R)-6-[(2-ethoxynaphthalene-1-carbonyl)amino]-3,3-dimethyl-7-oxo-4-thia-1-azabicyclo[3.2.0]heptane-2-carboxylic acid
Formula: C21H22N2O5S
Exact mass: 414.12494
SMILES: CCOC1=C(C(=O)N[C@H]2[C@H]3SC(C)(C)[C@@H](N3C2=O)C(O)=O)C2=CC=CC=C2C=C1
InChI: InChI=1S/C21H22N2O5S/c1-4-28-13-10-9-11-7-5-6-8-12(11)14(13)17(24)22-15-18(25)23-16(20(26)27)21(2,3)29-19(15)23/h5-10,15-16,19H,4H2,1-3H3,(H,22,24)(H,26,27)/t15-,16+,19-/m1/s1
Instrument: Q Exactive Plus Orbitrap Thermo Scientific
Instrument type: LC-ESI-QFT
Ms type: MS2
Ion mode: NEGATIVE
Ionization: ESI
Fragmentation mode: HCD
Collision energy: 90 (nominal)
Resolution: 35000
Column name: XBridge C18 3.5um, 2.1x50mm, Waters
Retention time: 9.7 min
Base peak: 413.1172
Precursor m/z: 413.1177
Precursor type: [M-H]-
m/z	relative intensity	assigned
56.9805	7	C2HS-
57.9757	38	CNS-
60.9754	6	CHOS-
61.0118	2	C2H5S-
65.9986	4	C3NO-
70.9836	16	C2HNS-
71.9914	21	C2H2NS-
72.9993	999	C2H3NS-
74.0071	39	C2H4NS-
99.9862	33	C3H2NOS-
115.0554	26	C9H7-
140.0504	1	C10H6N-
143.0502	235	C2H11N2O3S-
152.0505	3	C11H6N-
166.0662	11	C12H8N-
168.0454	46	C11H6NO-
181.0534	1	C12H7NO-
182.0612	4	C12H8NO-
186.0555	4	C11H8NO2-
192.0455	4	C13H6NO-
194.061	28	C13H8NO-
197.0306	1	C12H7NS-
199.0224	2	C12H7OS-
224.0177	2	C13H6NOS-
225.0253	9	C13H7NOS-
226.0334	3	C13H8NOS-
