Mass spectrum: 1-Chlorobenzotriazole; LC-ESI-QFT; MS2; CE: 75; R=35000; [M+H]+
Name: 1-Chlorobenzotriazole
Name: 1-chloro-benzotriazole
Name: Chlorobenzotriazole
Formula: C6H4ClN3
Exact mass: 153.00937
SMILES: C1=CC=C2C(=C1)N=NN2Cl
InChI: InChI=1S/C6H4ClN3/c7-10-6-4-2-1-3-5(6)8-9-10/h1-4H
Instrument: Q Exactive Plus Orbitrap Thermo Scientific
Instrument type: LC-ESI-QFT
Ms type: MS2
Ion mode: POSITIVE
Ionization: ESI
Fragmentation mode: HCD
Collision energy: 75 (nominal)
Resolution: 35000
Column name: XBridge C18 3.5um, 2.1x50mm, Waters
Retention time: 6.4 min
Base peak: 154.0164
Precursor m/z: 154.0167
Precursor type: [M+H]+
m/z	relative intensity	assigned
53.0386	1	C4H5+
61.9792	2	CHClN+
62.015	2	C5H2+
63.0229	157	C5H3+
64.0182	11	C4H2N+
64.0307	2	C5H4+
65.0386	2	C5H5+
72.9839	96	C3H2Cl+
74.9996	2	C3H4Cl+
81.0335	16	C5H5O+
90.0339	508	C6H4N+
91.0417	122	C6H5N+
98.9996	999	C5H4Cl+
106.0287	1	C6H4NO+
108.0444	20	
119.0479	3	C6H5N3+
125.0025	2	C6H4ClN+
126.0105	196	C6H5ClN+
154.0166	856	C6H5ClN3+
