Mass spectrum: Norclozapine; LC-ESI-QFT; MS2; CE: 45; R=35000; [M+H]+
Name: Norclozapine
Name: 3-chloro-6-piperazin-1-yl-5H-benzo[b][1,4]benzodiazepine
Formula: C17H17ClN4
Exact mass: 312.11417
SMILES: C1CN(CCN1)C2=NC3=C(C=CC(=C3)Cl)NC4=CC=CC=C42
InChI: InChI=1S/C17H17ClN4/c18-12-5-6-15-16(11-12)21-17(22-9-7-19-8-10-22)13-3-1-2-4-14(13)20-15/h1-6,11,19-20H,7-10H2
Instrument: Q Exactive Plus Orbitrap Thermo Scientific
Instrument type: LC-ESI-QFT
Ms type: MS2
Ion mode: POSITIVE
Ionization: ESI
Fragmentation mode: HCD
Collision energy: 45 (nominal)
Resolution: 35000
Column name: XBridge C18 3.5um, 2.1x50mm, Waters
Retention time: 5.9 min
Base peak: 313.1204
Precursor m/z: 313.1215
Precursor type: [M+H]+
m/z	relative intensity	assigned
56.0494	1	C3H6N+
68.0493	2	C4H6N+
70.065	229	C4H8N+
71.0602	12	C3H7N2+
85.0759	5	C4H9N2+
87.0916	1	C4H11N2+
181.0759	1	C12H9N2+
186.1023	1	C11H12N3+
191.0599	2	C13H7N2+
192.0679	116	C13H8N2+
200.0258	1	C12H7ClN+
209.0708	1	C10H12ClN3+
218.0831	3	C15H10N2+
220.0868	1	C14H10N3+
226.0289	3	C13H7ClN2+
227.0368	311	C13H8ClN2+
228.0445	1	C13H9ClN2+
229.0524	15	C13H10ClN2+
234.1031	2	C15H12N3+
235.1101	2	C15H13N3+
241.0523	1	C14H10ClN2+
243.0677	1	C14H12ClN2+
244.0634	141	C13H11ClN3+
253.0525	168	C15H10ClN2+
254.0607	1	C15H11ClN2+
255.0561	5	C14H10ClN3+
256.0637	3	C14H11ClN3+
268.0631	3	C15H11ClN3+
268.0763	1	C16H13ClN2+
269.071	1	C15H12ClN3+
270.0789	999	C15H13ClN3+
281.0711	1	C16H12ClN3+
296.0946	172	C17H15ClN3+
311.1053	7	C17H16ClN4+
313.121	350	C17H18ClN4+
