Mass spectrum: Lincomycin; LC-ESI-QFT; MS2; CE: 120; R=35000; [M+H]+
Name: Lincomycin
Name: N-[2-hydroxy-1-(3,4,5-trihydroxy-6-methylsulfanyloxan-2-yl)propyl]-1-methyl-4-propylpyrrolidine-2-carboxamide
Formula: C18H34N2O6S
Exact mass: 406.21376
SMILES: CCCC1CC(N(C1)C)C(=O)NC(C2C(C(C(C(O2)SC)O)O)O)C(C)O
InChI: InChI=1S/C18H34N2O6S/c1-5-6-10-7-11(20(3)8-10)17(25)19-12(9(2)21)16-14(23)13(22)15(24)18(26-16)27-4/h9-16,18,21-24H,5-8H2,1-4H3,(H,19,25)
Instrument: Q Exactive Plus Orbitrap Thermo Scientific
Instrument type: LC-ESI-QFT
Ms type: MS2
Ion mode: POSITIVE
Ionization: ESI
Fragmentation mode: HCD
Collision energy: 120 (nominal)
Resolution: 35000
Column name: XBridge C18 3.5um, 2.1x50mm, Waters
Retention time: 3.6 min
Base peak: 407.2201
Precursor m/z: 407.221
Precursor type: [M+H]+
m/z	relative intensity	assigned
51.0229	1	C4H3+
53.0022	25	C3HO+
53.0386	11	C4H5+
53.9975	8	C2NO+
54.0338	14	C3H4N+
55.0417	15	C3H5N+
55.0543	189	C4H7+
56.0495	39	C3H6N+
57.0573	14	C3H7N+
57.0699	6	C4H9+
58.0652	110	C3H8N+
61.0107	13	C2H5S+
65.0386	19	C5H5+
67.0417	56	C4H5N+
67.0542	141	C5H7+
68.0495	448	C4H6N+
69.0573	15	C4H7N+
69.0699	261	C5H9+
70.0651	733	C4H8N+
71.0128	1	C3H3O2+
71.073	5	C4H9N+
72.0808	4	C4H10N+
77.0385	1	C6H5+
79.0542	9	C6H7+
80.0494	17	C5H6N+
81.0574	18	C5H7N+
82.0652	999	C5H8N+
83.0729	480	C5H9N+
84.0808	123	C5H10N+
85.1011	2	C6H13+
91.0543	7	C7H7+
93.07	18	C7H9+
94.0652	18	C6H8N+
95.0492	4	C6H7O+
95.0856	39	C7H11+
96.0808	150	C6H10N+
97.0887	52	C6H11N+
98.0964	21	C6H12N+
108.0808	1	C7H10N+
111.1042	9	C7H13N+
124.1122	55	C8H14N+
126.1278	641	C8H16N+
