Mass spectrum: Imazamox; LC-ESI-ITFT; MS2; CE: 30%; R=15000; [M+H]+
Name: Imazamox
Name: 2-(4-isopropyl-5-keto-4-methyl-2-imidazolin-2-yl)-5-(methoxymethyl)nicotinic acid
Formula: C15H19N3O4
Exact mass: 305.1376
SMILES: O=C(O)c1c(ncc(c1)COC)/C2=N/C(C(=O)N2)(C(C)C)C
InChI: InChI=1S/C15H19N3O4/c1-8(2)15(3)14(21)17-12(18-15)11-10(13(19)20)5-9(6-16-11)7-22-4/h5-6,8H,7H2,1-4H3,(H,19,20)(H,17,18,21)
Instrument: LTQ Orbitrap XL Thermo Scientific
Instrument type: LC-ESI-ITFT
Ms type: MS2
Ion mode: POSITIVE
Ionization: ESI
Fragmentation mode: HCD
Collision energy: 30 % (nominal)
Resolution: 15000
Column name: XBridge C18 3.5um, 2.1x50mm, Waters
Retention time: 5.7 min
Base peak: 306.1456
Precursor m/z: 306.1448
Precursor type: [M+H]+
m/z	relative intensity	assigned
69.0699	1	C5H9+
86.0965	11	C5H12N+
149.0709	2	C8H9N2O+
192.0768	2	C9H10N3O2+
193.0608	7	C9H9N2O3+
217.1336	16	C13H17N2O+
220.1082	1	C11H14N3O2+
234.1603	3	C13H20N3O+
235.0953	1	C11H13N3O3+
243.1118	1	C14H15N2O2+
246.0871	12	C12H12N3O3+
260.1394	27	C14H18N3O2+
261.1234	90	C14H17N2O3+
262.1552	2	C14H20N3O2+
263.09	3	C12H13N3O4+
264.0979	102	C12H14N3O4+
278.15	101	C14H20N3O3+
288.1342	15	C15H18N3O3+
306.1445	999	C15H20N3O4+
