Mass spectrum: Dimethenamide ESA; LC-ESI-ITFT; MS2; CE: 35%; R=7500; [M-H]-
Name: Dimethenamide ESA
Name: 2-[(2,4-Dimethyl-3-thienyl)(1-methoxy-2-propanyl)amino]-2-oxoethanesulfonic acid
Formula: C12H19NO5S2
Exact mass: 321.0705
SMILES: S(C=C1C)C(C)=C1N(C(=O)CS(=O)(=O)O)C(COC)C
InChI: InChI=1S/C12H19NO5S2/c1-8-6-19-10(3)12(8)13(9(2)5-18-4)11(14)7-20(15,16)17/h6,9H,5,7H2,1-4H3,(H,15,16,17)
Instrument: LTQ Orbitrap XL Thermo Scientific
Instrument type: LC-ESI-ITFT
Ms type: MS2
Ion mode: NEGATIVE
Ionization: ESI
Fragmentation mode: CID
Collision energy: 35 % (nominal)
Resolution: 7500
Column name: XBridge C18 3.5um, 2.1x50mm, Waters
Retention time: 6.6 min
Base peak: 320.0627
Precursor m/z: 320.0632
Precursor type: [M-H]-
m/z	relative intensity	assigned
76.9702	14	CHO2S-
120.9601	999	C2HO4S-
127.0221	4	C6H7OS-
166.0696	58	C9H12NS-
192.0339	7	C6H10NO4S-
198.0959	19	C10H16NOS-
224.075	38	C11H14NO2S-
229.9942	6	C8H8NO3S2-
246.9982	8	C8H9NO4S2-
248.0055	58	C8H10NO4S2-
256.1016	10	C12H18NO3S-
288.0368	114	C11H14NO4S2-
