Mass spectrum: Fipronil-sulfide; LC-ESI-ITFT; MS2; CE: 30%; R=15000; [M+H]+
Name: Fipronil-sulfide
Name: 5-Amino-1-[2,6-dichloro-4-(trifluoromethyl)phenyl]-4-[(trifluoromethyl)sulfanyl]-1H-pyrazole-3-carbonitrile
Formula: C12H4Cl2F6N4S
Exact mass: 419.9438
SMILES: FC(F)(F)c2cc(Cl)c(n1nc(C#N)c(SC(F)(F)F)c1N)c(Cl)c2
InChI: InChI=1S/C12H4Cl2F6N4S/c13-5-1-4(11(15,16)17)2-6(14)8(5)24-10(22)9(7(3-21)23-24)25-12(18,19)20/h1-2H,22H2
Instrument: LTQ Orbitrap XL Thermo Scientific
Instrument type: LC-ESI-ITFT
Ms type: MS2
Ion mode: POSITIVE
Ionization: ESI
Fragmentation mode: HCD
Collision energy: 30 % (nominal)
Resolution: 15000
Column name: XBridge C18 3.5um, 2.1x50mm, Waters
Retention time: 13.0 min
Base peak: 442.9332
Precursor m/z: 420.9511
Precursor type: [M+H]+
m/z	relative intensity	assigned
181.9989	3	C4H3F3N3S+
246.0043	3	C9H4ClF3N3+
264.9804	5	C9H5ClF3N2S+
285.015	4	C11H5ClF3N4+
316.9869	108	C11H5ClF3N4S+
319.9838	37	C11H5Cl2F3N4+
325.915	4	C12Cl2F2N3S+
335.9369	13	C11H3Cl2F3N3S+
351.956	21	C11H5Cl2F3N4S+
385.9812	5	C12H5ClF6N4S+
420.9508	999	C12H5Cl2F6N4S+
421.9555	6	C10H5Cl2F5N6OS+
