Mass spectrum: Malaoxon; LC-ESI-QFT; MS2; CE: 150; R=35000; [M+H]+
Name: Malaoxon
Name: Diethyl 2-dimethoxyphosphorylsulfanylbutanedioate
Formula: C10H19O7PS
Exact mass: 314.05891
SMILES: CCOC(=O)CC(C(=O)OCC)SP(=O)(OC)OC
InChI: InChI=1S/C10H19O7PS/c1-5-16-9(11)7-8(10(12)17-6-2)19-18(13,14-3)15-4/h8H,5-7H2,1-4H3
Instrument: Q Exactive Plus Orbitrap Thermo Scientific
Instrument type: LC-ESI-QFT
Ms type: MS2
Ion mode: POSITIVE
Ionization: ESI
Fragmentation mode: HCD
Collision energy: 150 (nominal)
Resolution: 35000
Column name: XBridge C18 3.5um, 2.1x50mm, Waters
Retention time: 7.1 min
Base peak: 315.0654
Precursor m/z: 315.0662
Precursor type: [M+H]+
m/z	relative intensity	assigned
53.0022	775	C3HO+
55.0179	83	C3H3O+
56.9794	17	C2HS+
57.9872	29	C2H2S+
58.995	74	C2H3S+
59.9665	22	COS+
62.0185	7	C2H6S+
62.9454	4	PS+
62.9994	34	CH4OP+
64.9787	50	H2O2P+
68.9794	36	C3HS+
71.0128	999	C3H3O2+
74.99	4	C2H3OS+
78.9943	269	CH4O2P+
84.9743	25	C3HOS+
93.01	18	C2H6O2P+
97.0051	5	CH6O3P+
99.0077	201	C4H3O3+
110.9665	4	CH4O2PS+
127.0156	31	C2H8O4P+
128.9769	42	CH6O3PS+
142.9928	9	C2H8O3PS+
