Mass spectrum: Morphine; LC-ESI-ITFT; MS2; CE: 60%; R=15000; [M+H]+
Name: Morphine
Name: (4R,4aR,7S,7aR,12bS)-3-methyl-2,4,4a,7,7a,13-hexahydro-1H-4,12-methanobenzofuro[3,2-e]isoquinoline-7,9-diol
Formula: C17H19NO3
Exact mass: 285.1364935
SMILES: CN1CC[C@]23[C@@H]4[C@H]1CC5=C2C(=C(C=C5)O)O[C@H]3[C@H](C=C4)O
InChI: InChI=1S/C17H19NO3/c1-18-7-6-17-10-3-5-13(20)16(17)21-15-12(19)4-2-9(14(15)17)8-11(10)18/h2-5,10-11,13,16,19-20H,6-8H2,1H3/t10-,11+,13-,16-,17-/m0/s1
Instrument: LTQ Orbitrap XL Thermo Scientific
Instrument type: LC-ESI-ITFT
Ms type: MS2
Ion mode: POSITIVE
Ionization: ESI
Fragmentation mode: HCD
Collision energy: 60 % (nominal)
Resolution: 15000
Column name: XBridge C18 3.5um, 2.1x50mm, Waters
Retention time: 1.1 min
Base peak: 286.1448
Precursor m/z: 286.1438
Precursor type: [M+H]+
m/z	relative intensity	assigned
58.0651	52	C3H8N+
67.0543	6	C5H7+
83.0494	5	C5H7O+
91.0543	13	C7H7+
93.07	5	C7H9+
107.049	6	C7H7O+
115.0542	6	C9H7+
117.0695	4	C9H9+
121.0649	19	C8H9O+
123.0441	29	C7H7O2+
129.0698	5	C10H9+
132.081	4	C9H10N+
141.0698	9	C11H9+
144.0573	5	C10H8O+
145.0648	48	C10H9O+
147.0441	60	C9H7O2+
153.0699	53	C12H9+
155.0856	87	C12H11+
157.0649	56	C11H9O+
158.0729	6	C11H10O+
159.08	9	C11H11O+
160.052	7	C10H8O2+
161.0601	15	C10H9O2+
162.0914	4	C10H12NO+
165.07	94	C13H9+
166.0777	5	C13H10+
166.0864	13	C9H12NO2+
167.0853	4	C13H11+
168.0575	7	C12H8O+
169.0649	14	C12H9O+
171.044	15	C11H7O2+
171.0805	11	C12H11O+
172.0515	8	C11H8O2+
173.0598	108	C11H9O2+
173.0963	29	C12H13O+
178.0863	23	C10H12NO2+
179.0854	12	C14H11+
181.0649	106	C13H9O+
181.1014	20	C14H13+
183.0805	191	C13H11O+
184.0522	10	C12H8O2+
185.0598	206	C12H9O2+
186.0675	12	C12H10O2+
187.0753	24	C12H11O2+
191.0856	57	C15H11+
193.0648	74	C14H9O+
193.101	15	C15H13+
194.0726	9	C14H10O+
195.0805	9	C14H11O+
197.0598	7	C13H9O2+
197.0962	5	C14H13O+
198.0678	13	C13H10O2+
199.0754	70	C13H11O2+
201.0911	337	C13H13O2+
207.0801	17	C15H11O+
209.0598	116	C14H9O2+
209.0961	43	C15H13O+
211.0754	177	C14H11O2+
213.0543	6	C13H9O3+
213.0916	5	C14H13O2+
219.0806	36	C16H11O+
221.096	18	C16H13O+
225.0913	11	C15H13O2+
227.0704	117	C14H11O3+
227.1067	11	C15H15O2+
229.0859	167	C14H13O3+
237.091	38	C16H13O2+
239.1065	18	C16H15O2+
240.1373	5	C16H18NO+
253.1093	4	C16H15NO2+
255.1021	6	C16H15O3+
268.1333	56	C17H18NO2+
286.1439	999	C17H20NO3+
