Mass spectrum: Ethaboxam; LC-ESI-QFT; MS2; CE: 30%; R=17500; [M+H]+
Name: Ethaboxam
Name: N-[cyano(thiophen-2-yl)methyl]-4-ethyl-2-(ethylamino)-1,3-thiazole-5-carboxamide
Formula: C14H16N4OS2
Exact mass: 320.0766
SMILES: CCC1=C(SC(=N1)NCC)C(=O)NC(C#N)C2=CC=CS2
InChI: InChI=1S/C14H16N4OS2/c1-3-9-12(21-14(18-9)16-4-2)13(19)17-10(8-15)11-6-5-7-20-11/h5-7,10H,3-4H2,1-2H3,(H,16,18)(H,17,19)
Instrument: Exploris 240 Orbitrap Thermo Scientific
Instrument type: LC-ESI-QFT
Ms type: MS2
Ion mode: POSITIVE
Ionization: ESI
Fragmentation mode: HCD
Collision energy: 30 % (nominal)
Resolution: 17500
Column name: XBridge C18 3.5um, 2.1x50mm, Waters
Retention time: 6.055 min
Base peak: 321.0838
Precursor m/z: 321.0838
Precursor type: [M+H]+
m/z	relative intensity	assigned
112.0216	6	C5H6NS+
155.064	8	C7H11N2S+
171.046	4	C6H9N3OS+
183.0587	106	C8H11N2OS+
184.0539	4	C7H10N3OS+
198.0704	3	C8H12N3OS+
199.0774	108	C8H13N3OS+
200.0852	56	C8H14N3OS+
208.0251	8	C10H10NS2+
210.0693	12	C9H12N3OS+
237.0807	127	C10H13N4OS+
251.0669	17	C12H15N2S2+
294.0732	92	C13H16N3OS2+
321.0839	999	C14H17N4OS2+
