Mass spectrum: 2-Naphthoxyacetic acid; LC-ESI-QFT; MS2; CE: 60; R=35000; [M+H]+
Name: 2-Naphthoxyacetic acid
Name: beta-Naphthoxyacetic acid
Name: (2-Naphthyloxy)acetic acid
Formula: C12H10O3
Exact mass: 202.06299
SMILES: C1=CC=C2C=C(C=CC2=C1)OCC(=O)O
InChI: InChI=1S/C12H10O3/c13-12(14)8-15-11-6-5-9-3-1-2-4-10(9)7-11/h1-7H,8H2,(H,13,14)
Instrument: Q Exactive Plus Orbitrap Thermo Scientific
Instrument type: LC-ESI-QFT
Ms type: MS2
Ion mode: POSITIVE
Ionization: ESI
Fragmentation mode: HCD
Collision energy: 60 (nominal)
Resolution: 35000
Column name: XBridge C18 3.5um, 2.1x50mm, Waters
Retention time: 8.5 min
Base peak: 230.1747
Precursor m/z: 203.0703
Precursor type: [M+H]+
m/z	relative intensity	assigned
51.0229	2	C4H3+
53.0386	1	C4H5+
55.0179	5	C3H3O+
55.0543	47	C4H7+
57.0699	2	C4H9+
59.0492	2	C3H7O+
67.0542	5	C5H7+
69.0335	1	C4H5O+
69.0699	17	C5H9+
73.0648	2	C4H9O+
77.0385	2	C6H5+
79.0542	6	C6H7+
81.0699	5	C6H9+
83.0491	2	C5H7O+
83.0855	48	C6H11+
91.0543	6	C7H7+
93.0699	5	C7H9+
95.0492	3	C6H7O+
95.0855	2	C7H11+
97.0648	1	C6H9O+
101.0599	1	C5H9O2+
103.0542	81	C8H7+
105.0699	8	C8H9+
107.0856	4	C8H11+
111.0804	5	C7H11O+
115.0542	36	C9H7+
116.0576	2	C4H8N2O2+
117.0699	15	C9H9+
119.0856	3	C9H11+
121.0648	3	C8H9O+
127.0542	80	C10H7+
128.0621	189	C10H8+
129.0699	999	C10H9+
131.0492	4	C9H7O+
131.0856	1	C10H11+
133.0647	1	C9H9O+
142.0777	2	C11H10+
143.0853	1	C11H11+
144.057	27	C10H8O+
145.0649	398	C10H9O+
146.0728	3	C10H10O+
155.0604	901	C10H7N2+
156.0574	9	C11H8O+
157.0648	331	C11H9O+
159.0804	2	C11H11O+
