Mass spectrum: Fenthion Oxon Sulfone; LC-ESI-QFT; MS2; CE: 30%; R=17500; [M+H]+
Name: Fenthion Oxon Sulfone
Name: dimethyl (3-methyl-4-methylsulfonylphenyl) phosphate
Formula: C10H15O6PS
Exact mass: 294.0327
SMILES: CC1=C(C=CC(=C1)OP(=O)(OC)OC)S(=O)(=O)C
InChI: InChI=1S/C10H15O6PS/c1-8-7-9(16-17(11,14-2)15-3)5-6-10(8)18(4,12)13/h5-7H,1-4H3
Instrument: Exploris 240 Orbitrap Thermo Scientific
Instrument type: LC-ESI-QFT
Ms type: MS2
Ion mode: POSITIVE
Ionization: ESI
Fragmentation mode: HCD
Collision energy: 30 % (nominal)
Resolution: 17500
Column name: XBridge C18 3.5um, 2.1x50mm, Waters
Retention time: 4.335 min
Base peak: 295.0397
Precursor m/z: 295.04
Precursor type: [M+H]+
m/z	relative intensity	assigned
78.9849	3	CH3O2S+
104.062	40	C8H8+
121.0648	14	C8H9O+
201.0583	8	C9H13O3S+
216.0544	61	C9H13O4P+
217.0624	518	C9H14O4P+
231.0779	20	C10H16O4P+
263.0132	20	C9H12O5PS+
281.0239	6	C9H14O6PS+
295.04	999	C10H16O6PS+
