Mass spectrum: Flecainide; LC-ESI-QFT; MS2; CE: 45; R=35000; [M-H]-
Name: Flecainide
Name: N-(2-piperidinylmethyl)-2,5-bis(2,2,2-trifluoroethoxy)benzamide
Formula: C17H20F6N2O3
Exact mass: 414.13781
SMILES: C1CCNC(C1)CNC(=O)C2=C(C=CC(=C2)OCC(F)(F)F)OCC(F)(F)F
InChI: InChI=1S/C17H20F6N2O3/c18-16(19,20)9-27-12-4-5-14(28-10-17(21,22)23)13(7-12)15(26)25-8-11-3-1-2-6-24-11/h4-5,7,11,24H,1-3,6,8-10H2,(H,25,26)
Instrument: Q Exactive Orbitrap Thermo Scientific
Instrument type: LC-ESI-QFT
Ms type: MS2
Ion mode: NEGATIVE
Ionization: ESI
Fragmentation mode: HCD
Collision energy: 45 (nominal)
Resolution: 35000
Column name: XBridge C18 3.5um, 2.1x50mm, Waters
Retention time: 6.6 min
Base peak: 459.1364
Precursor m/z: 413.1305
Precursor type: [M-H]-
m/z	relative intensity	assigned
58.0098	9	C2HFN-
65.9986	3	C3NO-
68.9957	4	CF3-
69.0346	17	C4H5O-
79.0001	3	C2HF2O-
95.014	6	C5H3O2-
97.0296	12	C5H5O2-
98.0174	5	C5H3FO-
103.0191	3	C7H3O-
106.0061	2	C6H2O2-
107.0139	11	C6H3O2-
108.0218	38	C6H4O2-
109.0295	5	C6H5O2-
117.0219	2	C7H3NO-
118.03	4	C7H4NO-
121.0297	5	C7H5O2-
123.0089	8	C6H3O3-
125.0244	68	C6H5O3-
126.0122	3	C6H3FO2-
130.0298	5	C8H4NO-
131.0139	6	C8H3O2-
131.0377	5	C8H5NO-
132.0217	3	C8H4O2-
133.017	17	C7H3NO2-
134.0249	1	C7H4NO2-
135.0089	101	C7H3O3-
136.0166	9	C7H4O3-
137.0721	1	C7H9N2O-
138.0121	4	C7H3FO2-
139.0203	1	C7H4FO2-
139.0878	17	C7H11N2O-
142.03	1	C9H4NO-
144.0453	1	C9H6NO-
145.0099	2	C9H2FO-
146.0248	103	C8H4NO2-
147.0325	2	C8H5NO2-
148.0167	1	C8H4O3-
150.0122	8	C8H3FO2-
150.0323	3	C8H6O3-
151.0201	14	C8H4FO2-
151.0275	10	C7H5NO3-
152.028	3	C8H5FO2-
152.0354	7	C7H6NO3-
154.0071	6	C7H3FO3-
158.0247	4	C9H4NO2-
159.0326	191	C9H5NO2-
160.0164	18	C9H4O3-
160.0404	16	C9H6NO2-
161.0116	1	C8H3NO3-
161.0245	7	C9H5O3-
161.0717	1	C9H9N2O-
162.0196	3	C8H4NO3-
162.0363	1	C9H5FNO-
163.0204	1	C9H4FO2-
164.0155	16	C8H3FNO2-
164.0354	3	C8H6NO3-
165.0155	1	C9H3F2O-
166.0072	1	C8H3FO3-
170.018	1	C8H4F2O2-
170.0245	1	C2H5F5NO2-
170.0613	1	C11H8NO-
171.0264	2	C8H5F2O2-
172.0405	14	C10H6NO2-
173.0046	1	C10H2FO2-
173.0116	6	C9H3NO3-
173.0481	5	C10H7NO2-
174.0196	48	C9H4NO3-
175.0201	1	C10H4FO2-
175.0274	7	C9H5NO3-
176.0152	1	C9H3FNO2-
176.0354	3	C9H6NO3-
176.9994	5	C9H2FO3-
178.0508	3	C9H8NO3-
179.0826	75	C9H11N2O2-
181.0106	1	C9H3F2O2-
184.0404	6	C11H6NO2-
185.0357	15	C10H5N2O2-
186.0198	19	C10H4NO3-
186.0436	8	C10H6N2O2-
186.056	15	C11H8NO2-
187.0151	13	C9H3N2O3-
187.0276	18	C10H5NO3-
188.0157	1	C10H3FNO2-
188.0354	8	C10H6NO3-
190.0677	1	C11H9FNO-
192.0104	311	C9H3FNO3-
193.0105	8	C10H3F2O2-
193.0183	3	C9H4FNO3-
194.0261	1	C9H5FNO3-
197.0332	1	C9H4F3N2-
197.072	4	C12H9N2O-
198.0561	3	C12H8NO2-
199.0513	9	C11H7N2O2-
199.0641	3	C12H9NO2-
199.089	7	C9H12FN2O2-
200.0718	32	C12H10NO2-
202.0072	3	C11H3FO3-
202.0311	6	C11H5FNO2-
202.051	1	C11H8NO3-
203.015	2	C11H4FO3-
206.0258	26	C10H5FNO3-
207.0335	4	C10H6FNO3-
210.0371	1	C10H6F2NO2-
212.0716	9	C5H11F5NO2-
213.0178	1	C10H4F3O2-
213.0305	18	C11H5N2O3-
213.0669	6	C4H10F5N2O2-
213.1037	2	C13H13N2O-
214.0385	7	C11H6N2O3-
214.0497	1	C7H8F4NO2-
214.0874	3	C13H12NO2-
215.0945	1	C13H13NO2-
216.0546	1	C11H8N2O3-
216.0659	1	C12H10NO3-
223.0511	2	C5H8F5N2O2-
224.0592	10	C13H8N2O2-
225.1035	3	C14H13N2O-
226.0875	4	C14H12NO2-
227.0202	3	C10H4F3NO2-
227.0463	15	C12H7N2O3-
227.0589	3	C13H9NO3-
227.0838	1	C10H12FN2O3-
227.0951	3	C14H13NO2-
228.0538	2	C12H8N2O3-
228.0665	6	C5H11F5NO3-
228.0905	6	C13H12N2O2-
229.074	2	C13H11NO3-
230.0431	1	C10H7F3NO2-
230.0819	6	C13H12NO3-
231.0901	3	C13H13NO3-
233.0699	1	C10H9F4N2-
233.9974	2	C12F4N-
235.0085	6	C11H3F2NO3-
237.0667	2	C6H10F5N2O2-
241.0629	7	C13H9N2O3-
241.0983	58	C14H13N2O2-
242.0708	2	C13H10N2O3-
242.0823	5	C14H12NO3-
242.1065	9	C14H14N2O2-
243.0901	11	C14H13NO3-
246.1013	1	C13H14N2O3-
249.0187	1	C10H5F4O3-
250.0319	2	C12H6F2NO3-
251.0825	7	C15H11N2O2-
252.0903	11	C7H13F5N2O2-
253.0984	16	C15H13N2O2-
255.0151	1	C11H4F3NO3-
255.0777	5	C14H11N2O3-
256.0231	1	C11H5F3NO3-
257.0935	1	C14H13N2O3-
265.0986	6	C16H13N2O2-
268.0862	1	C15H12N2O3-
269.0934	120	C15H13N2O3-
270.1012	999	C15H14N2O3-
273.1048	10	C15H14FN2O2-
289.0995	10	C15H14FN2O3-
290.1073	72	C15H15FN2O3-
293.0932	2	C17H13N2O3-
310.1139	15	C15H16F2N2O3-
333.1056	14	C17H15F2N2O3-
353.1118	3	C17H16F3N2O3-
