Mass spectrum: Topiramate; LC-ESI-QFT; MS2; CE: 30; R=35000; [M+H]+
Name: Topiramate
Name: Topamax
Name: (2,2,7,7-tetramethyl-5,5a,8a,8b-tetrahydrodi[1,3]dioxolo[4,5-a:5`,3`-d]pyran-3a-yl)methyl sulfamate
Formula: C12H21NO8S
Exact mass: 339.09879
SMILES: CC1(OC2COC3(C(C2O1)OC(O3)(C)C)COS(=O)(=O)N)C
InChI: InChI=1S/C12H21NO8S/c1-10(2)18-7-5-16-12(6-17-22(13,14)15)9(8(7)19-10)20-11(3,4)21-12/h7-9H,5-6H2,1-4H3,(H2,13,14,15)
Instrument: Q Exactive Plus Orbitrap Thermo Scientific
Instrument type: LC-ESI-QFT
Ms type: MS2
Ion mode: POSITIVE
Ionization: ESI
Fragmentation mode: HCD
Collision energy: 30 (nominal)
Resolution: 35000
Column name: XBridge C18 3.5um, 2.1x50mm, Waters
Retention time: 6.1 min
Base peak: 357.132
Precursor m/z: 340.1061
Precursor type: [M+H]+
m/z	relative intensity	assigned
53.0386	4	C4H5+
55.0179	72	C3H3O+
55.0543	5	C4H7+
56.0495	6	C3H6N+
57.0335	128	C3H5O+
57.0699	6	C4H9+
58.0651	1	C3H8N+
59.0492	713	C3H7O+
60.0444	28	C2H6NO+
61.0284	13	C2H5O2+
67.054	1	C5H7+
68.0495	2	C4H6N+
69.0335	76	C4H5O+
70.0287	1	C3H4NO+
70.0652	3	C4H8N+
71.0127	39	C3H3O2+
71.0491	18	C4H7O+
72.0444	12	C3H6NO+
73.0284	26	C3H5O2+
74.0599	2	C3H8NO+
75.044	1	C3H7O2+
77.0383	1	C6H5+
79.0542	59	C6H7+
79.98	1	H2NO2S+
80.0494	15	C5H6N+
81.0335	68	C5H5O+
82.0651	16	C5H8N+
83.0127	1	C4H3O2+
83.0491	34	C5H7O+
84.0444	60	C4H6NO+
85.0284	100	C4H5O2+
86.06	21	C4H8NO+
87.0077	2	C3H3O3+
87.0441	7	C4H7O2+
93.07	5	C7H9+
94.0652	12	C6H8N+
95.0492	101	C6H7O+
96.0444	27	C5H6NO+
96.0808	8	C6H10N+
97.0285	116	C5H5O2+
97.0649	35	C6H9O+
97.9906	8	H4NO3S+
98.0237	12	C4H4NO2+
98.0601	39	C5H8NO+
99.0077	90	C4H3O3+
99.0441	220	C5H7O2+
100.0393	1	C4H6NO2+
101.0234	34	C4H5O3+
101.0598	40	C5H9O2+
102.0549	2	C4H8NO2+
103.039	30	C4H7O3+
106.0652	4	C7H8N+
107.0492	73	C7H7O+
108.0443	17	C6H6NO+
109.0285	88	C6H5O2+
109.0649	14	C7H9O+
110.0602	2	C6H8NO+
111.0443	2	C6H7O2+
111.0806	8	C7H11O+
112.0393	30	C5H6NO2+
112.0757	45	C6H10NO+
113.0597	102	C6H9O2+
114.055	31	C5H8NO2+
115.039	6	C5H7O3+
116.0707	9	C5H10NO2+
120.0805	1	C8H10N+
121.0649	56	C8H9O+
121.9908	9	C2H4NO3S+
123.044	12	C7H7O2+
124.0758	221	C7H10NO+
125.0235	5	C6H5O3+
125.0598	87	C7H9O2+
126.055	243	C6H8NO2+
127.039	850	C6H7O3+
129.0181	1	C5H5O4+
130.0501	9	C5H8NO3+
136.0758	8	C8H10NO+
137.0599	25	C8H9O2+
138.022	14	C3H8NO3S+
138.0913	11	C8H12NO+
139.0754	23	C8H11O2+
140.0012	85	C2H6NO4S+
141.0545	5	C7H9O3+
142.0863	1	C7H12NO2+
143.0704	31	C7H11O3+
144.0656	61	C6H10NO3+
145.0496	14	C6H9O4+
148.0062	2	C4H6NO3S+
148.0756	9	C9H10NO+
148.9906	10	C4H5O4S+
149.0598	60	C9H9O2+
149.9858	1	C3H4NO4S+
154.0863	2	C8H12NO2+
157.0861	6	C8H13O3+
161.9857	5	C4H4NO4S+
164.0012	36	C4H6NO4S+
164.9852	15	C4H5O5S+
166.0864	23	C9H12NO2+
167.0704	351	C9H11O3+
176.0013	65	C5H6NO4S+
177.9807	11	C4H4NO5S+
178.017	16	C5H8NO4S+
179.9962	12	C4H6NO5S+
184.0969	999	C9H14NO3+
185.081	312	C9H13O4+
188.0013	24	C6H6NO4S+
188.9853	173	C6H5O5S+
204.0327	88	C7H10NO4S+
206.0119	162	C6H8NO5S+
206.9961	26	C6H7O6S+
222.0435	2	C7H12NO5S+
224.0225	153	C6H10NO6S+
246.0436	12	C9H12NO5S+
264.0538	168	C9H14NO6S+
