Mass spectrum: MCLY; LC-ESI-QFT; MS2; CE: 90%; R=17500; [M-H]-
Name: MCLY
Name: Microcystin LY
Name: (5R,8S,11R,12S,15S,18S,19S,22R)-15-[(4-hydroxyphenyl)methyl]-18-[(1E,3E,5S,6S)-6-methoxy-3,5-dimethyl-7-phenylhepta-1,3-dienyl]-1,5,12,19-tetramethyl-2-methylidene-8-(2-methylpropyl)-3,6,9,13,16,20,25-heptaoxo-1,4,7,10,14,17,21-heptazacyclopentacosane-11,22-dicarboxylic acid
Class: NA
Formula: C52H71N7O13
Exact mass: 1001.5110
SMILES: COC(Cc1ccccc1)C(C)\C=C(C)\C=C/C2NC(=O)C(Cc3ccc(O)cc3)NC(=O)C(C)C(NC(=O)C(CC(C)C)NC(=O)C(C)NC(=O)C(=C)N(C)C(=O)CCC(NC(=O)C2C)C(O)=O)C(O)=O
InChI: InChI=1S/C52H71N7O13/c1-28(2)24-40-50(67)58-44(52(70)71)32(6)46(63)56-41(26-36-17-19-37(60)20-18-36)49(66)54-38(21-16-29(3)25-30(4)42(72-10)27-35-14-12-11-13-15-35)31(5)45(62)55-39(51(68)69)22-23-43(61)59(9)34(8)48(65)53-33(7)47(64)57-40/h11-21,25,28,30-33,38-42,44,60H,8,22-24,26-27H2,1-7,9-10H3,(H,53,65)(H,54,66)(H,55,62)(H,56,63)(H,57,64)(H,58,67)(H,68,69)(H,70,71)/b21-16-,29-25+
Instrument: Q Exactive Plus Orbitrap Thermo Scientific
Instrument type: LC-ESI-QFT
Ms type: MS2
Ion mode: NEGATIVE
Ionization: ESI
Fragmentation mode: HCD
Collision energy: 90 % (nominal)
Resolution: 17500
Column name: XBridge C18 3.5um, 2.1x50mm, Waters
Retention time: 10.715 min
Base peak: 190.9277
Precursor m/z: 1000.5037
Precursor type: [M-H]-
m/z	relative intensity	assigned
72.0455	106	C3H6NO-
73.0294	59	C3H5O2-
74.0247	168	C2H4NO2-
80.0507	85	C5H6N-
82.0299	171	C4H4NO-
82.0662	213	C5H8N-
83.0251	92	C3H3N2O-
84.0454	205	C4H6NO-
87.0563	167	C3H7N2O-
93.0344	130	C6H5O-
95.025	64	C4H3N2O-
96.0455	121	C5H6NO-
96.0819	58	C6H10N-
97.0406	90	C4H5N2O-
108.021	79	C4H2N3O-
108.033	137	C5H4N2O-
109.0167	108	C5H3NO2-
109.0406	389	C5H5N2O-
110.0248	712	C5H4NO2-
110.0361	54	C4H4N3O-
111.0199	55	C4H3N2O2-
112.0405	90	C5H6NO2-
112.0767	72	C6H10NO-
117.0343	278	C8H5O-
119.0502	999	C8H7O-
123.0328	86	C6H5NO2-
124.0403	241	C6H6NO2-
125.0593	169	C5H7N3O-
127.0512	183	C5H7N2O2-
128.0353	237	C5H6NO3-
129.1033	225	C6H13N2O-
133.0532	145	C8H7NO-
138.0432	50	C6H6N2O2-
144.0451	92	C9H6NO-
150.0563	94	C8H8NO2-
165.1026	80	C7H11N5-
182.1288	177	C7H14N6-
