Mass spectrum: Flocoumafen; LC-ESI-QFT; MS2; CE: 30%; R=17500; [M+H]+
Name: Flocoumafen
Name: 4-hydroxy-3-[3-[4-[[4-(trifluoromethyl)phenyl]methoxy]phenyl]-1,2,3,4-tetrahydronaphthalen-1-yl]chromen-2-one
Formula: C33H25F3O4
Exact mass: 542.1705
SMILES: C1C(CC2=CC=CC=C2C1C3=C(C4=CC=CC=C4OC3=O)O)C5=CC=C(C=C5)OCC6=CC=C(C=C6)C(F)(F)F
InChI: InChI=1S/C33H25F3O4/c34-33(35,36)24-13-9-20(10-14-24)19-39-25-15-11-21(12-16-25)23-17-22-5-1-2-6-26(22)28(18-23)30-31(37)27-7-3-4-8-29(27)40-32(30)38/h1-16,23,28,37H,17-19H2
Instrument: Exploris 240 Orbitrap Thermo Scientific
Instrument type: LC-ESI-QFT
Ms type: MS2
Ion mode: POSITIVE
Ionization: ESI
Fragmentation mode: HCD
Collision energy: 30 % (nominal)
Resolution: 17500
Column name: XBridge C18 3.5um, 2.1x50mm, Waters
Retention time: 15.796 min
Base peak: 543.1776
Precursor m/z: 543.1778
Precursor type: [M+H]+
m/z	relative intensity	assigned
91.0542	71	C7H7+
107.0493	20	C7H7O+
117.0697	16	C9H9+
119.049	22	C8H7O+
129.0699	21	C10H9+
155.0856	3	C12H11+
159.0417	264	C8H6F3+
167.0853	3	C13H11+
171.0801	5	C12H11O+
175.0391	208	C10H7O3+
189.0545	27	C11H9O3+
195.0803	24	C14H11O+
196.0885	13	C14H12O+
249.0882	5	C15H12F3+
261.0886	5	C16H12F3+
277.0832	9	C16H12F3O+
291.1016	327	C19H15O3+
355.1305	999	C22H18F3O+
483.1593	42	C33H23O4+
503.1656	115	C33H24FO4+
543.1792	11	C33H26F3O4+
