Mass spectrum: Amisulpride N-Oxide; LC-ESI-QFT; MS2; CE: 60; R=35000; [M+H]+
Name: Amisulpride N-Oxide
Name: 4-amino-N-[(1-ethyl-1-oxidopyrrolidin-1-ium-2-yl)methyl]-5-ethylsulfonyl-2-methoxybenzamide
Formula: C17H27N3O5S
Exact mass: 385.16714
SMILES: CC[N+]1(CCCC1CNC(=O)C2=CC(=C(C=C2OC)N)S(=O)(=O)CC)[O-]
InChI: InChI=1S/C17H27N3O5S/c1-4-20(22)8-6-7-12(20)11-19-17(21)13-9-16(26(23,24)5-2)14(18)10-15(13)25-3/h9-10,12H,4-8,11,18H2,1-3H3,(H,19,21)
Instrument: Q Exactive Plus Orbitrap Thermo Scientific
Instrument type: LC-ESI-QFT
Ms type: MS2
Ion mode: POSITIVE
Ionization: ESI
Fragmentation mode: HCD
Collision energy: 60 (nominal)
Resolution: 35000
Column name: XBridge C18 3.5um, 2.1x50mm, Waters
Retention time: 4.2 min
Base peak: 386.1742
Precursor m/z: 386.1744
Precursor type: [M+H]+
m/z	relative intensity	assigned
54.0338	1	C3H4N+
56.0494	3	C3H6N+
58.0651	4	C3H8N+
65.0386	1	C5H5+
66.0464	1	C5H6+
67.0542	6	C5H7+
68.0494	1	C4H6N+
69.0573	1	C4H7N+
70.0651	4	C4H8N+
71.0491	1	C4H7O+
72.0807	1	C4H10N+
74.06	41	C3H8NO+
80.0494	1	C5H6N+
82.0651	4	C5H8N+
84.0807	11	C5H10N+
85.0648	1	C5H9O+
93.0573	1	C6H7N+
95.0365	3	C5H5NO+
96.0444	4	C5H6NO+
96.0807	2	C6H10N+
97.0522	1	C5H7NO+
98.0964	77	C6H12N+
107.0365	1	C6H5NO+
107.99	1	C5H2NS+
108.0444	4	C6H6NO+
110.0058	2	C5H4NS+
110.0964	11	C7H12N+
111.1041	1	C7H13N+
112.0215	1	C5H6NS+
114.0914	2	C6H12NO+
120.0445	1	C7H6NO+
121.0523	5	C7H7NO+
122.0361	3	C7H6O2+
123.0678	1	C7H9NO+
124.0393	4	C6H6NO2+
127.1229	1	C7H15N2+
128.107	3	C7H14NO+
132.0078	1	C7H2NO2+
135.0314	1	C7H5NO2+
138.0008	2	C6H4NOS+
138.0186	5	C6H4NO3+
140.0164	9	C6H6NOS+
147.0315	18	C8H5NO2+
149.0471	75	H11N3O4S+
150.055	9	C8H8NO2+
152.034	2	C7H6NO3+
163.0264	1	C8H5NO3+
164.0341	1	C8H6NO3+
165.0421	1	C8H7NO3+
168.0113	56	C7H6NO2S+
177.9958	16	C8H4NO2S+
180.0114	1	C8H6NO2S+
196.0063	874	C14N2+
197.0139	1	C8H7NO3S+
199.0296	1	C8H9NO3S+
214.0169	222	C8H8NO4S+
242.0481	999	C10H12NO4S+
259.0756	1	C10H15N2O4S+
