Mass spectrum: Propanil; LC-ESI-QFT; MS2; CE: 90; R=35000; [M-H]-
Name: Propanil
Name: N-(3,4-dichlorophenyl)propanamide
Formula: C9H9Cl2NO
Exact mass: 217.00612
SMILES: Clc1ccc(NC(=O)CC)cc1Cl
InChI: InChI=1S/C9H9Cl2NO/c1-2-9(13)12-6-3-4-7(10)8(11)5-6/h3-5H,2H2,1H3,(H,12,13)
Instrument: Q Exactive Orbitrap Thermo Scientific
Instrument type: LC-ESI-QFT
Ms type: MS2
Ion mode: NEGATIVE
Ionization: ESI
Fragmentation mode: HCD
Collision energy: 90 (nominal)
Resolution: 35000
Column name: XBridge C18 3.5um, 2.1x50mm, Waters
Retention time: 10.3 min
Base peak: 215.999
Precursor m/z: 215.9988
Precursor type: [M-H]-
m/z	relative intensity	assigned
88.0193	134	C6H2N-
123.9959	319	C6H3ClN-
124.9799	43	C6H2ClO-
149.9752	9	C7HClNO-
159.9726	999	C6H4Cl2N-
160.9567	35	C6H3Cl2O-
199.9672	10	C8H4Cl2NO-
