Mass spectrum: Irgarol; LC-ESI-ITFT; MS2; CE: 90%; R=7500; [M+H]+
Name: Irgarol
Name: 2-N-tert-butyl-4-N-cyclopropyl-6-methylsulfanyl-1,3,5-triazine-2,4-diamine
Formula: C11H19N5S
Exact mass: 253.1356
SMILES: c1(nc(NC(C)(C)C)nc(n1)SC)NC1CC1
InChI: InChI=1S/C11H19N5S/c1-11(2,3)16-9-13-8(12-7-5-6-7)14-10(15-9)17-4/h7H,5-6H2,1-4H3,(H2,12,13,14,15,16)
Instrument: LTQ Orbitrap XL Thermo Scientific
Instrument type: LC-ESI-ITFT
Ms type: MS2
Ion mode: POSITIVE
Ionization: ESI
Fragmentation mode: HCD
Collision energy: 90 % (nominal)
Resolution: 7500
Column name: XBridge C18 3.5um, 2.1x50mm, Waters
Retention time: 9.2 min
Base peak: 254.1437
Precursor m/z: 254.1434
Precursor type: [M+H]+
m/z	relative intensity	assigned
54.0338	23	C3H4N+
55.0292	53	C2H3N2+
56.0494	695	C3H6N+
57.0699	42	C4H9+
58.065	92	C3H8N+
68.0243	771	C2H2N3+
70.04	20	C2H4N3+
74.0059	783	C2H4NS+
81.0447	241	C4H5N2+
83.0604	907	C4H7N2+
85.051	39	C2H5N4+
87.0265	63	C4H7S+
91.0324	716	C2H7N2S+
108.0556	999	C5H6N3+
114.0373	72	C5H8NS+
116.0277	305	C3H6N3S+
125.0821	125	C5H9N4+
150.0773	73	C6H8N5+
156.0591	197	C6H10N3S+
168.0336	39	C5H6N5S+
170.0489	29	C5H8N5S+
182.05	19	C6H8N5S+
198.0827	157	C9H14N2OS+
