Mass spectrum: Coumatetralyl; LC-ESI-QFT; MS2; CE: 45%; R=17500; [M+H]+
Name: Coumatetralyl
Name: 4-hydroxy-3-(1,2,3,4-tetrahydronaphthalen-1-yl)chromen-2-one
Formula: C19H16O3
Exact mass: 292.1099
SMILES: C1CC(C2=CC=CC=C2C1)C3=C(C4=CC=CC=C4OC3=O)O
InChI: InChI=1S/C19H16O3/c20-18-15-9-3-4-11-16(15)22-19(21)17(18)14-10-5-7-12-6-1-2-8-13(12)14/h1-4,6,8-9,11,14,20H,5,7,10H2
Instrument: Exploris 240 Orbitrap Thermo Scientific
Instrument type: LC-ESI-QFT
Ms type: MS2
Ion mode: POSITIVE
Ionization: ESI
Fragmentation mode: HCD
Collision energy: 45 % (nominal)
Resolution: 17500
Column name: XBridge C18 3.5um, 2.1x50mm, Waters
Retention time: 10.203 min
Base peak: 293.1169
Precursor m/z: 293.1172
Precursor type: [M+H]+
m/z	relative intensity	assigned
91.0542	330	C7H7+
95.0494	6	C6H7O+
105.0699	23	C8H9+
107.0492	23	C7H7O+
119.0858	8	C9H11+
121.0282	15	C7H5O2+
129.0701	11	C10H9+
131.0856	159	C10H11+
163.0389	71	C9H7O3+
175.039	999	C10H7O3+
189.0548	41	C11H9O3+
215.0704	33	C13H11O3+
293.1173	163	C19H17O3+
