Mass spectrum: Dexamethasone acetate; LC-ESI-QFT; MS2; CE: 15; R=35000; [M-H]-
Name: Dexamethasone acetate
Name: Dexamethason-21-acetate
Name: [2-(9-fluoro-11,17-dihydroxy-10,13,16-trimethyl-3-oxo-6,7,8,11,12,14,15,16-octahydrocyclopenta[a]phenanthren-17-yl)-2-oxoethyl] acetate
Formula: C24H31FO6
Exact mass: 434.21047
SMILES: CC1CC2C3CCC4=CC(=O)C=CC4(C3(C(CC2(C1(C(=O)COC(=O)C)O)C)O)F)C
InChI: InChI=1S/C24H31FO6/c1-13-9-18-17-6-5-15-10-16(27)7-8-21(15,3)23(17,25)19(28)11-22(18,4)24(13,30)20(29)12-31-14(2)26/h7-8,10,13,17-19,28,30H,5-6,9,11-12H2,1-4H3
Instrument: Q Exactive Plus Orbitrap Thermo Scientific
Instrument type: LC-ESI-QFT
Ms type: MS2
Ion mode: NEGATIVE
Ionization: ESI
Fragmentation mode: HCD
Collision energy: 15 (nominal)
Resolution: 35000
Column name: XBridge C18 3.5um, 2.1x50mm, Waters
Retention time: 10.3 min
Base peak: 479.2081
Precursor m/z: 433.2032
Precursor type: [M-H]-
m/z	relative intensity	assigned
59.0138	999	C2H3O2-
73.0295	1	C3H5O2-
101.0243	13	C4H5O3-
241.1231	1	C16H17O2-
311.1651	19	C20H23O3-
331.171	2	C20H24FO3-
335.1652	4	C22H23O3-
339.1601	5	C21H23O4-
341.1756	4	C21H25O4-
343.1919	1	C21H27O4-
351.1963	1	C23H27O3-
353.1758	294	C22H25O4-
359.1663	1	C21H24FO4-
361.1821	171	C21H26FO4-
365.175	2	C23H25O4-
371.1859	5	C22H27O5-
373.1818	62	C22H26FO4-
377.1761	1	C24H25O4-
385.1816	1	C23H26FO4-
395.1857	3	C24H27O5-
397.1829	1	C24H26FO4-
413.1967	17	C24H29O6-
415.1925	4	C24H28FO5-
433.2031	215	C24H30FO6-
