Mass spectrum: Paraoxon-ethyl; LC-ESI-QFT; MS2; CE: 75%; R=17500; [M+H]+
Name: Paraoxon-ethyl
Name: Paraoxon
Name: diethyl (4-nitrophenyl) phosphate
Formula: C10H14NO6P
Exact mass: 275.0559
SMILES: CCOP(=O)(OCC)OC1=CC=C(C=C1)[N+](=O)[O-]
InChI: InChI=1S/C10H14NO6P/c1-3-15-18(14,16-4-2)17-10-7-5-9(6-8-10)11(12)13/h5-8H,3-4H2,1-2H3
Instrument: Exploris 240 Orbitrap Thermo Scientific
Instrument type: LC-ESI-QFT
Ms type: MS2
Ion mode: POSITIVE
Ionization: ESI
Fragmentation mode: HCD
Collision energy: 75 % (nominal)
Resolution: 17500
Column name: XBridge C18 3.5um, 2.1x50mm, Waters
Retention time: 6.797 min
Base peak: 276.0629
Precursor m/z: 276.0632
Precursor type: [M+H]+
m/z	relative intensity	assigned
64.0308	8	C5H4+
75.0229	36	C6H3+
82.0416	4	CH9NOP+
92.0256	27	C6H4O+
93.0335	4	C6H5O+
94.0413	999	C6H6O+
98.9842	14	H4O4P+
109.0283	42	C6H5O2+
110.0364	28	C2H9NO2P+
123.0314	56	C6H5NO2+
140.0343	10	C6H6NO3+
154.9891	8	C6H4O3P+
155.9968	8	C6H5O3P+
172.9996	15	C6H6O4P+
174.0077	249	C6H7O4P+
201.0058	45	C10H3NO4+
202.9978	129	C6H6NO5P+
220.0014	26	C6H7NO6P+
