Mass spectrum: Methacrifos; LC-ESI-QFT; MS2; CE: 45%; R=17500; [M+H]+
Name: Methacrifos
Name: Methyl 3-((dimethoxyphosphinothioyl)oxy)methacrylate
Name: methyl 3-dimethoxyphosphinothioyloxy-2-methylprop-2-enoate
Formula: C7H13O5PS
Exact mass: 240.0221
SMILES: CC(=COP(=S)(OC)OC)C(=O)OC
InChI: InChI=1S/C7H13O5PS/c1-6(7(8)9-2)5-12-13(14,10-3)11-4/h5H,1-4H3
Instrument: Exploris 240 Orbitrap Thermo Scientific
Instrument type: LC-ESI-QFT
Ms type: MS2
Ion mode: POSITIVE
Ionization: ESI
Fragmentation mode: HCD
Collision energy: 45 % (nominal)
Resolution: 17500
Column name: XBridge C18 3.5um, 2.1x50mm, Waters
Retention time: 7.717 min
Base peak: 209.0029
Precursor m/z: 241.0294
Precursor type: [M+H]+
m/z	relative intensity	assigned
59.0492	1	C3H7O+
62.0185	2	C2H6S+
67.0178	25	C4H3O+
70.9948	1	C3H3S+
78.9943	17	CH4O2P+
93.0099	33	C2H6O2P+
98.9898	64	C4H3OS+
99.044	16	C5H7O2+
103.0212	4	C4H7OS+
109.0048	30	C2H6O3P+
124.9819	999	C2H6O2PS+
127.0154	58	C2H8O4P+
131.0161	45	C5H7O2S+
142.9925	228	C2H8O3PS+
148.9815	10	C4H6O2PS+
157.0081	40	C3H10O3PS+
181.008	52	C5H10O3PS+
183.0239	4	C5H12O3PS+
209.003	97	C6H10O4PS+
