Mass spectrum: Atenolol; LC-ESI-ITFT; MS2; CE: 45%; R=15000; [M+H]+
Name: Atenolol
Name: 2-[4-[2-hydroxy-3-(isopropylamino)propoxy]phenyl]acetamide
Formula: C14H22N2O3
Exact mass: 266.1630
SMILES: CC(C)NCC(O)COc1ccc(cc1)CC(N)=O
InChI: InChI=1S/C14H22N2O3/c1-10(2)16-8-12(17)9-19-13-5-3-11(4-6-13)7-14(15)18/h3-6,10,12,16-17H,7-9H2,1-2H3,(H2,15,18)
Instrument: LTQ Orbitrap XL Thermo Scientific
Instrument type: LC-ESI-ITFT
Ms type: MS2
Ion mode: POSITIVE
Ionization: ESI
Fragmentation mode: HCD
Collision energy: 45 % (nominal)
Resolution: 15000
Column name: XBridge C18 3.5um, 2.1x50mm, Waters
Retention time: 2.0 min
Base peak: 267.171
Precursor m/z: 267.1703
Precursor type: [M+H]+
m/z	relative intensity	assigned
56.0494	103	C3H6N+
58.0651	18	C3H8N+
72.0808	150	C4H10N+
74.0601	355	C3H8NO+
84.0808	5	C5H10N+
91.0543	7	C7H7+
98.0964	183	C6H12N+
107.0491	12	C7H7O+
116.107	349	C6H14NO+
119.049	17	C8H7O+
121.0648	27	C8H9O+
122.0602	4	C7H8NO+
133.0648	50	C9H9O+
145.0648	433	C10H9O+
147.044	23	C9H7O2+
152.0705	25	C8H10NO2+
161.0596	5	C10H9O2+
162.0913	101	C10H12NO+
163.0751	25	C10H11O2+
164.0706	112	C9H10NO2+
173.0597	73	C11H9O2+
178.0862	225	C10H12NO2+
180.1017	16	C10H14NO2+
190.0862	764	C11H12NO2+
204.138	15	C13H18NO+
207.1126	11	C11H15N2O2+
208.0968	214	C11H14NO3+
225.1233	301	C11H17N2O3+
232.1329	7	C14H18NO2+
249.1596	34	C14H21N2O2+
250.1437	11	C14H20NO3+
267.1704	999	C14H23N2O3+
