Mass spectrum: Fenarimol; LC-ESI-QFT; MS2; CE: 60%; R=17500; [M+H]+
Name: Fenarimol
Name: (2-chlorophenyl)-(4-chlorophenyl)-pyrimidin-5-ylmethanol
Formula: C17H12Cl2N2O
Exact mass: 330.0327
SMILES: C1=CC=C(C(=C1)C(C2=CC=C(C=C2)Cl)(C3=CN=CN=C3)O)Cl
InChI: InChI=1S/C17H12Cl2N2O/c18-14-7-5-12(6-8-14)17(22,13-9-20-11-21-10-13)15-3-1-2-4-16(15)19/h1-11,22H
Instrument: Exploris 240 Orbitrap Thermo Scientific
Instrument type: LC-ESI-QFT
Ms type: MS2
Ion mode: POSITIVE
Ionization: ESI
Fragmentation mode: HCD
Collision energy: 60 % (nominal)
Resolution: 17500
Column name: XBridge C18 3.5um, 2.1x50mm, Waters
Retention time: 9.833 min
Base peak: 328.0614
Precursor m/z: 331.0399
Precursor type: [M+H]+
m/z	relative intensity	assigned
54.0338	94	C3H4N+
81.0447	999	C4H5N2+
138.9945	545	C7H4ClO+
140.0262	8	C7H7ClN+
149.0151	17	C9H6Cl+
157.0765	20	C10H9N2+
164.0262	15	C12H4O+
189.0698	181	C15H9+
199.0316	12	C13H8Cl+
204.0807	44	C15H10N+
205.0878	11	C15H11N+
219.0312	13	C11H8ClN2O+
223.0311	97	C15H8Cl+
224.0392	25	C15H9Cl+
232.0759	24	C16H10NO+
232.9929	9	C13H7Cl2+
233.0833	76	C16H11NO+
235.0072	19	C13H9Cl2+
238.0422	60	C15H9ClN+
240.058	50	C15H11ClN+
241.0414	25	C15H10ClO+
243.0917	15	C17H11N2+
250.0423	33	C16H9ClN+
259.0077	296	C15H9Cl2+
266.0366	25	C13H12Cl2N2+
268.0524	502	C16H11ClNO+
278.0602	57	C17H11ClN2+
