Mass spectrum: Metamitron; LC-ESI-ITFT; MS2; CE: 75%; R=7500; [M+H]+
Name: Metamitron
Name: 4-Amino-4,5-dihydro-3-methyl-6-phenyl-1,2,4-triazin-5-one
Name: 4-amino-3-methyl-6-phenyl-1,2,4-triazin-5-one
Formula: C10H10N4O
Exact mass: 202.0860
SMILES: c(ccc1C(=NN=C2C)C(=O)N2N)cc1
InChI: InChI=1S/C10H10N4O/c1-7-12-13-9(10(15)14(7)11)8-5-3-2-4-6-8/h2-6H,11H2,1H3
Instrument: LTQ Orbitrap XL Thermo Scientific
Instrument type: LC-ESI-ITFT
Ms type: MS2
Ion mode: POSITIVE
Ionization: ESI
Fragmentation mode: HCD
Collision energy: 75 % (nominal)
Resolution: 7500
Column name: XBridge C18 3.5um, 2.1x50mm, Waters
Retention time: 4.9 min
Base peak: 203.093
Precursor m/z: 203.0927
Precursor type: [M+H]+
m/z	relative intensity	assigned
53.0386	9	C4H5+
56.0129	18	C2H2NO+
57.0447	60	C2H5N2+
59.0238	12	CH3N2O+
66.0465	14	C5H6+
72.0555	33	C2H6N3+
77.0386	140	C6H5+
79.0543	123	C6H7+
83.0242	62	C3H3N2O+
89.0387	58	C7H5+
92.0258	10	C6H4O+
92.0494	68	C6H6N+
93.0574	14	C6H7N+
95.049	22	C6H7O+
104.0495	999	C7H6N+
105.0447	34	C6H5N2+
105.0574	60	C7H7N+
106.065	84	C7H8N+
107.0603	25	C6H7N2+
118.0525	46	C7H6N2+
119.0604	25	C7H7N2+
130.0651	84	C9H8N+
134.0711	47	C7H8N3+
145.0396	27	C8H5N2O+
158.0716	25	C9H8N3+
159.0791	79	C9H9N3+
174.0786	147	C10H10N2O+
175.0977	676	C9H11N4+
187.074	10	C10H9N3O+
