Mass spectrum: Trinexapac; LC-ESI-ITFT; MS2; CE: 15%; R=15000; [M+H]+
Name: Trinexapac
Name: 4-[Cyclopropyl(hydroxy)methylene]-3,5-dioxocyclohexanecarboxylic acid
Formula: C11H12O5
Exact mass: 224.0685
SMILES: C(C1)C1C(O)=C(C(=O)CC2C(=O)O)C(=O)C2
InChI: InChI=1S/C11H12O5/c12-7-3-6(11(15)16)4-8(13)9(7)10(14)5-1-2-5/h5-6,14H,1-4H2,(H,15,16)/b10-9-
Instrument: LTQ Orbitrap XL Thermo Scientific
Instrument type: LC-ESI-ITFT
Ms type: MS2
Ion mode: POSITIVE
Ionization: ESI
Fragmentation mode: HCD
Collision energy: 15 % (nominal)
Resolution: 15000
Column name: XBridge C18 3.5um, 2.1x50mm, Waters
Retention time: 6.9 min
Base peak: 225.0758
Precursor m/z: 225.0757
Precursor type: [M+H]+
m/z	relative intensity	assigned
69.0335	81	C4H5O+
111.0441	4	C6H7O2+
129.0547	1	C6H9O3+
139.039	19	C7H7O3+
157.0496	19	C7H9O4+
165.0183	4	C8H5O4+
183.0288	7	C8H7O5+
197.0809	1	C10H13O4+
201.0394	1	C8H9O6+
207.0653	12	C11H11O4+
225.0758	999	C11H13O5+
