Mass spectrum: Gemcitabine; LC-ESI-ITFT; MS2; CE: 35%; R=7500; [M-H]-
Name: Gemcitabine
Name: 2'-deoxy-2',2'-difluorocytidine
Name: 4-amino-1-[(2R,4R,5R)-3,3-difluoro-4-hydroxy-5-(hydroxymethyl)-2-oxolanyl]-2-pyrimidinone
Formula: C9H11F2N3O4
Exact mass: 263.0718
SMILES: NC1=NC(=O)N(C=C1)[C@@H]2O[C@H](CO)[C@@H](O)C2(F)F
InChI: InChI=1S/C9H11F2N3O4/c10-9(11)6(16)4(3-15)18-7(9)14-2-1-5(12)13-8(14)17/h1-2,4,6-7,15-16H,3H2,(H2,12,13,17)/t4-,6-,7-/m1/s1
Instrument: LTQ Orbitrap XL Thermo Scientific
Instrument type: LC-ESI-ITFT
Ms type: MS2
Ion mode: NEGATIVE
Ionization: ESI
Fragmentation mode: CID
Collision energy: 35 % (nominal)
Resolution: 7500
Column name: XBridge C18 3.5um, 2.1x50mm, Waters
Retention time: 1.0 min
Base peak: 308.0689
Precursor m/z: 262.0645
Precursor type: [M-H]-
m/z	relative intensity	assigned
110.0361	999	C4H4N3O-
111.0089	46	C5H3O3-
149.0356	6	C7H5N2O2-
179.0464	11	C8H7N2O3-
192.0415	12	C8H6N3O3-
194.0573	20	C8H8N3O3-
219.0587	95	C8H9F2N2O3-
222.0522	118	C9H8N3O4-
242.0584	227	C9H9FN3O4-
