Mass spectrum: Eprosartan; LC-ESI-ITFT; MS2; CE: 45%; R=15000; [M+H]+
Name: Eprosartan
Name: 4-[[2-butyl-5-[(E)-3-hydroxy-3-keto-2-(2-thenyl)prop-1-enyl]imidazol-1-yl]methyl]benzoic acid
Formula: C23H24N2O4S
Exact mass: 424.1457
SMILES: CCCCC1=NC=C(N1CC2=CC=C(C=C2)C(=O)O)/C=C(\CC3=CC=CS3)/C(=O)O
InChI: InChI=1S/C23H24N2O4S/c1-2-3-6-21-24-14-19(12-18(23(28)29)13-20-5-4-11-30-20)25(21)15-16-7-9-17(10-8-16)22(26)27/h4-5,7-12,14H,2-3,6,13,15H2,1H3,(H,26,27)(H,28,29)/b18-12+
Instrument: LTQ Orbitrap XL Thermo Scientific
Instrument type: LC-ESI-ITFT
Ms type: MS2
Ion mode: POSITIVE
Ionization: ESI
Fragmentation mode: HCD
Collision energy: 45 % (nominal)
Resolution: 15000
Column name: XBridge C18 3.5um, 2.1x50mm, Waters
Retention time: 6.3 min
Base peak: 425.154
Precursor m/z: 425.153
Precursor type: [M+H]+
m/z	relative intensity	assigned
78.0338	20	C5H4N+
80.0494	19	C5H6N+
97.0107	166	C5H5S+
106.029	15	C6H4NO+
107.049	102	C7H7O+
121.0109	10	C7H5S+
124.0393	27	C6H6NO2+
135.0441	999	C8H7O2+
162.0373	20	C9H8NS+
163.1229	350	C10H15N2+
164.0582	12	C8H8N2O2+
201.0477	38	C11H9N2S+
202.0559	36	C11H10N2S+
207.1128	782	C11H15N2O2+
244.1029	109	C14H16N2S+
245.1104	100	C14H17N2S+
272.0977	105	C15H16N2OS+
273.1055	49	C15H17N2OS+
291.115	16	C15H19N2O2S+
297.1599	55	C18H21N2O2+
341.1493	120	C19H21N2O4+
379.1478	34	C22H23N2O2S+
