Mass spectrum: Valganciclovir; LC-ESI-QFT; MS2; CE: 15; R=35000; [M-H]-
Name: Valganciclovir
Name: (2S)-2-amino-3-methyl-butyric acid [2-[(2-amino-6-keto-3H-purin-9-yl)methoxy]-3-hydroxy-propyl] ester
Formula: C14H22N6O5
Exact mass: 354.16517
SMILES: O=C(OCC(OCn1c2N\C(=N/C(=O)c2nc1)N)CO)[C@@H](N)C(C)C
InChI: InChI=1S/C14H22N6O5/c1-7(2)9(15)13(23)24-4-8(3-21)25-6-20-5-17-10-11(20)18-14(16)19-12(10)22/h5,7-9,21H,3-4,6,15H2,1-2H3,(H3,16,18,19,22)/t8?,9-/m0/s1
Instrument: Q Exactive Orbitrap Thermo Scientific
Instrument type: LC-ESI-QFT
Ms type: MS2
Ion mode: NEGATIVE
Ionization: ESI
Fragmentation mode: HCD
Collision energy: 15 (nominal)
Resolution: 35000
Column name: XBridge C18 3.5um, 2.1x50mm, Waters
Retention time: 1.2 min
Base peak: 353.158
Precursor m/z: 353.1579
Precursor type: [M-H]-
m/z	relative intensity	assigned
116.0717	168	C5H10NO2-
126.0308	1	C4H4N3O2-
133.0155	5	C5HN4O-
150.042	39	C5H4N5O-
162.0417	8	C6H4N5O-
176.0576	3	C7H6N5O-
206.0682	128	C8H8N5O2-
236.0787	199	C9H10N5O3-
254.0893	16	C9H12N5O4-
353.1577	999	C14H21N6O5-
