Mass spectrum: Climbazol; LC-ESI-ITFT; MS2; CE: 35%; R=30000; [M+H]+
Name: Climbazol
Name: Climbazole
Name: 1-(4-chloranylphenoxy)-1-imidazol-1-yl-3,3-dimethyl-butan-2-one
Formula: C15H17ClN2O2
Exact mass: 292.0979
SMILES: CC(C)(C)C(=O)C(N1C=CN=C1)OC2=CC=C(C=C2)Cl
InChI: InChI=1S/C15H17ClN2O2/c1-15(2,3)13(19)14(18-9-8-17-10-18)20-12-6-4-11(16)5-7-12/h4-10,14H,1-3H3
Instrument: LTQ Orbitrap XL Thermo Scientific
Instrument type: LC-ESI-ITFT
Ms type: MS2
Ion mode: POSITIVE
Ionization: ESI
Fragmentation mode: CID
Collision energy: 35 % (nominal)
Resolution: 30000
Column name: XBridge C18 3.5um, 2.1x50mm, Waters
Retention time: 8.1 min
Base peak: 293.1064
Precursor m/z: 293.1051
Precursor type: [M+H]+
m/z	relative intensity	assigned
82.0525	12	C4H6N2+
95.0604	5	C5H7N2+
98.9997	1	C5H4Cl+
109.0396	51	C5H5N2O+
115.0753	29	C6H11O2+
124.0631	8	C6H8N2O+
129.0101	20	C6H6ClO+
129.0909	1	C7H13O2+
137.1073	206	C8H13N2+
141.0101	36	C7H6ClO+
155.0258	22	C8H8ClO+
165.1021	18	C9H13N2O+
166.1101	149	C9H14N2O+
169.005	5	C8H6ClO2+
190.0987	1	C12H14O2+
197.0728	999	C11H14ClO+
225.0677	341	C12H14ClO2+
