Mass spectrum: Norclozapine; LC-ESI-QFT; MS2; CE: 90; R=35000; [M+H]+
Name: Norclozapine
Name: 3-chloro-6-piperazin-1-yl-5H-benzo[b][1,4]benzodiazepine
Formula: C17H17ClN4
Exact mass: 312.11417
SMILES: C1CN(CCN1)C2=NC3=C(C=CC(=C3)Cl)NC4=CC=CC=C42
InChI: InChI=1S/C17H17ClN4/c18-12-5-6-15-16(11-12)21-17(22-9-7-19-8-10-22)13-3-1-2-4-14(13)20-15/h1-6,11,19-20H,7-10H2
Instrument: Q Exactive Plus Orbitrap Thermo Scientific
Instrument type: LC-ESI-QFT
Ms type: MS2
Ion mode: POSITIVE
Ionization: ESI
Fragmentation mode: HCD
Collision energy: 90 (nominal)
Resolution: 35000
Column name: XBridge C18 3.5um, 2.1x50mm, Waters
Retention time: 5.9 min
Base peak: 313.1204
Precursor m/z: 313.1215
Precursor type: [M+H]+
m/z	relative intensity	assigned
56.0494	4	C3H6N+
63.0228	4	C5H3+
64.0181	2	C4H2N+
65.0385	1	C5H5+
68.0494	2	C4H6N+
70.065	31	C4H8N+
71.0603	7	C3H7N2+
72.9839	2	C3H2Cl+
81.0333	1	C5H5O+
85.076	1	C4H9N2+
87.0915	1	C4H11N2+
90.0338	30	C6H4N+
96.9839	1	C5H2Cl+
98.9995	6	C5H4Cl+
114.0462	1	C9H6+
123.9948	34	C6H3ClN+
126.0105	1	C6H5ClN+
127.018	1	C6H6ClN+
132.0678	1	C8H8N2+
138.0463	4	C11H6+
140.0494	2	C10H6N+
164.0493	44	C12H6N+
165.0572	41	C12H7N+
166.053	1	C11H6N2+
166.0653	2	C12H8N+
167.0729	1	C12H9N+
169.0521	1	C8H10ClN2+
173.0153	2	C11H6Cl+
174.0103	1	C10H5ClN+
179.0727	1	C13H9N+
181.0757	2	C12H9N2+
183.0678	15	C9H12ClN2+
190.065	1	C14H8N+
191.0602	51	C13H7N2+
192.0679	999	C13H8N2+
193.0761	3	C13H9N2+
194.0836	6	C13H10N2+
200.0259	20	C12H7ClN+
201.0341	2	C12H8ClN+
205.0758	4	C14H9N2+
206.0835	3	C14H10N2+
207.0916	3	C14H11N2+
208.0994	3	C14H12N2+
209.0708	11	C10H12ClN3+
209.0945	1	C13H11N3+
213.0336	1	C13H8ClN+
214.0412	1	C13H9ClN+
215.0368	4	C12H8ClN2+
217.0762	3	C15H9N2+
218.0836	15	C15H10N2+
219.0665	3	C13H7N4+
219.0916	2	C15H11N2+
220.0868	6	C14H10N3+
226.029	67	C13H7ClN2+
227.0368	15	C13H8ClN2+
228.0446	6	C13H9ClN2+
229.0525	1	C13H10ClN2+
233.0942	2	C15H11N3+
234.1023	7	C15H12N3+
239.0368	3	C14H8ClN2+
240.0444	3	C14H9ClN2+
241.0397	1	C13H8ClN3+
241.0528	1	C14H10ClN2+
246.1025	1	C16H12N3+
252.0444	1	C15H9ClN2+
253.0399	3	C14H8ClN3+
253.0525	7	C15H10ClN2+
254.0477	5	C14H9ClN3+
255.0555	1	C14H10ClN3+
268.0634	2	C15H11ClN3+
270.0789	9	C15H13ClN3+
280.0634	2	C16H11ClN3+
294.0785	1	C17H13ClN3+
