Mass spectrum: Valsartan; LC-ESI-ITFT; MS2; CE: 45%; R=15000; [M-H]-
Name: Valsartan
Name: (2S)-3-methyl-2-[1-oxopentyl-[[4-[2-(2H-tetrazol-5-yl)phenyl]phenyl]methyl]amino]butanoic acid
Formula: C24H29N5O3
Exact mass: 435.2270
SMILES: CCCCC(=O)N(CC1=CC=C(C=C1)C2=C(C=CC=C2)C3=NN=NN3)[C@@H](C(C)C)C(O)=O
InChI: InChI=1S/C24H29N5O3/c1-4-5-10-21(30)29(22(16(2)3)24(31)32)15-17-11-13-18(14-12-17)19-8-6-7-9-20(19)23-25-27-28-26-23/h6-9,11-14,16,22H,4-5,10,15H2,1-3H3,(H,31,32)(H,25,26,27,28)/t22-/m0/s1
Instrument: LTQ Orbitrap XL Thermo Scientific
Instrument type: LC-ESI-ITFT
Ms type: MS2
Ion mode: NEGATIVE
Ionization: ESI
Fragmentation mode: HCD
Collision energy: 45 % (nominal)
Resolution: 15000
Column name: XBridge C18 3.5um, 2.1x50mm, Waters
Retention time: 11.0 min
Base peak: 434.2193
Precursor m/z: 434.2198
Precursor type: [M-H]-
m/z	relative intensity	assigned
100.0766	21	C5H10NO-
116.0716	103	C5H10NO2-
141.1284	51	C9H17O-
156.1394	99	C9H18NO-
178.0788	62	C14H10-
179.0867	999	C14H11-
192.0816	115	C14H10N-
193.0662	27	C14H9O-
195.0454	28	C13H7O2-
206.0851	18	C14H10N2-
207.0929	39	C14H11N2-
235.0986	55	C14H11N4-
276.1509	52	C18H18N3-
307.1455	25	C19H19N2O2-
332.1984	17	C18H26N3O3-
350.1513	33	C20H20N3O3-
