Mass spectrum: Mesosulfuron-methyl; LC-ESI-QFT; MS2; CE: 30; R=35000; [M-H]-
Name: Mesosulfuron-methyl
Name: 2-[(4,6-dimethoxypyrimidin-2-yl)carbamoylsulfamoyl]-4-(methanesulfonamidomethyl)benzoic acid methyl ester
Formula: C17H21N5O9S2
Exact mass: 503.07807
SMILES: O=C(Nc1nc(cc(OC)n1)OC)NS(=O)(=O)c2cc(CNS(C)(=O)=O)ccc2C(=O)OC
InChI: InChI=1S/C17H21N5O9S2/c1-29-13-8-14(30-2)20-16(19-13)21-17(24)22-33(27,28)12-7-10(9-18-32(4,25)26)5-6-11(12)15(23)31-3/h5-8,18H,9H2,1-4H3,(H2,19,20,21,22,24)
Instrument: Q Exactive Orbitrap Thermo Scientific
Instrument type: LC-ESI-QFT
Ms type: MS2
Ion mode: NEGATIVE
Ionization: ESI
Fragmentation mode: HCD
Collision energy: 30 (nominal)
Resolution: 35000
Column name: XBridge C18 3.5um, 2.1x50mm, Waters
Retention time: 8.9 min
Base peak: 502.0713
Precursor m/z: 502.0708
Precursor type: [M-H]-
m/z	relative intensity	assigned
63.9624	10	O2S-
65.0146	1	C3HN2-
78.9859	61	CH3O2S-
93.9968	4	CH4NO2S-
122.036	1	C5H4N3O-
139.0385	1	C5H5N3O2-
154.0622	95	C6H8N3O2-
160.0402	1	C9H6NO2-
209.0021	2	H9N4O5S2-
236.9975	1	C9H5N2O4S-
239.9972	51	C9H6NO5S-
264.9924	5	C10H5N2O5S-
267.0081	999	C10H7N2O5S-
268.0156	2	C10H8N2O5S-
269.0236	9	C10H9N2O5S-
288.9958	219	C9H9N2O5S2-
347.0012	61	C11H11N2O7S2-
