Mass spectrum: Resveratrol; LC-ESI-QFT; MS2; CE: 15; R=35000; [M+H]+
Name: Resveratrol
Name: 5-[(E)-2-(4-hydroxyphenyl)ethenyl]benzene-1,3-diol
Formula: C14H12O3
Exact mass: 228.07864
SMILES: Oc2cc(\C=C\c1ccc(O)cc1)cc(O)c2
InChI: InChI=1S/C14H12O3/c15-12-5-3-10(4-6-12)1-2-11-7-13(16)9-14(17)8-11/h1-9,15-17H/b2-1+
Instrument: Q Exactive Orbitrap Thermo Scientific
Instrument type: LC-ESI-QFT
Ms type: MS2
Ion mode: POSITIVE
Ionization: ESI
Fragmentation mode: HCD
Collision energy: 15 (nominal)
Resolution: 35000
Column name: XBridge C18 3.5um, 2.1x50mm, Waters
Retention time: 6.1 min
Base peak: 229.086
Precursor m/z: 229.0859
Precursor type: [M+H]+
m/z	relative intensity	assigned
85.0284	1	C4H5O2+
91.0542	9	C7H7+
95.0491	3	C6H7O+
107.0491	30	C7H7O+
111.044	12	C6H7O2+
119.0491	59	C8H7O+
120.0567	2	C8H8O+
121.0283	2	C7H5O2+
123.044	2	C7H7O2+
135.044	193	C8H7O2+
136.0516	2	C8H8O2+
141.0698	1	C11H9+
145.0648	6	C10H9O+
157.0648	1	C11H9O+
159.0801	2	C11H11O+
165.0697	4	C13H9+
169.0646	1	C12H9O+
171.0439	1	C11H7O2+
173.0599	1	C11H9O2+
183.0804	18	C13H11O+
187.0753	3	C12H11O2+
193.0645	5	C14H9O+
201.0905	4	C13H13O2+
211.0753	34	C14H11O2+
229.0857	999	C14H13O3+
