Mass spectrum: 3-Phenoxybenzylalcohol; LC-ESI-ITFT; MS2; CE: 15%; R=7500; [M+H]+
Name: 3-Phenoxybenzylalcohol
Name: Benzenemethanol, 3-phenoxy-
Name: (3-phenoxyphenyl)methanol
Formula: C13H12O2
Exact mass: 200.0837
SMILES: c1(Oc2ccccc2)cc(ccc1)CO
InChI: InChI=1S/C13H12O2/c14-10-11-5-4-8-13(9-11)15-12-6-2-1-3-7-12/h1-9,14H,10H2
Instrument: LTQ Orbitrap XL Thermo Scientific
Instrument type: LC-ESI-ITFT
Ms type: MS2
Ion mode: POSITIVE
Ionization: ESI
Fragmentation mode: HCD
Collision energy: 15 % (nominal)
Resolution: 7500
Column name: XBridge C18 3.5um, 2.1x50mm, Waters
Retention time: 9.8 min
Base peak: 162.9913
Precursor m/z: 201.091
Precursor type: [M+H]+
m/z	relative intensity	assigned
171.0804	530	C12H11O+
183.0805	999	C13H11O+
