Mass spectrum: Fluxapyroxad (BAS 700 F)-TP CSCD465008; LC-ESI-QFT; MS2; CE: 15%; R=17500; [M+H]+
Name: Fluxapyroxad (BAS 700 F)-TP CSCD465008
Name: 3-(Difluoromethyl)-1H-pyrazole-4-carboxylic acid
Name: 5-(difluoromethyl)-1H-pyrazole-4-carboxylic acid
Formula: C5H4F2N2O2
Exact mass: 162.0241
SMILES: OC(=O)C1=CNN=C1C(F)F
InChI: InChI=1S/C5H4F2N2O2/c6-4(7)3-2(5(10)11)1-8-9-3/h1,4H,(H,8,9)(H,10,11)
Instrument: Q Exactive Plus Orbitrap Thermo Scientific
Instrument type: LC-ESI-QFT
Ms type: MS2
Ion mode: POSITIVE
Ionization: ESI
Fragmentation mode: HCD
Collision energy: 15 % (nominal)
Resolution: 17500
Column name: XBridge C18 3.5um, 2.1x50mm, Waters
Retention time: 2.043 min
Base peak: 163.0315
Precursor m/z: 163.0314
Precursor type: [M+H]+
m/z	relative intensity	assigned
68.013	10	C3H2NO+
95.0241	3	C4H3N2O+
99.0353	1	C4H4FN2+
100.9684	3	
123.0188	999	C5H3N2O2+
141.0295	147	
143.0252	74	C5H4FN2O2+
163.0313	472	C5H5F2N2O2+
