Mass spectrum: Cefadroxil; LC-ESI-QFT; MS2; CE: 60; R=35000; [M+H]+
Name: Cefadroxil
Name: 7-[[2-azaniumyl-2-(4-hydroxyphenyl)acetyl]amino]-3-methyl-8-oxo-5-thia-1-azabicyclo[4.2.0]oct-2-ene-2-carboxylate
Formula: C16H17N3O5S
Exact mass: 363.08889
SMILES: CC1=C(N2C(C(C2=O)NC(=O)C(C3=CC=C(C=C3)O)N)SC1)C(=O)O
InChI: InChI=1S/C16H17N3O5S/c1-7-6-25-15-11(14(22)19(15)12(7)16(23)24)18-13(21)10(17)8-2-4-9(20)5-3-8/h2-5,10-11,15,20H,6,17H2,1H3,(H,18,21)(H,23,24)
Instrument: Q Exactive Plus Orbitrap Thermo Scientific
Instrument type: LC-ESI-QFT
Ms type: MS2
Ion mode: POSITIVE
Ionization: ESI
Fragmentation mode: HCD
Collision energy: 60 (nominal)
Resolution: 35000
Column name: XBridge C18 3.5um, 2.1x50mm, Waters
Retention time: 2.4 min
Base peak: 364.0954
Precursor m/z: 364.0962
Precursor type: [M+H]+
m/z	relative intensity	assigned
53.0022	1	C3HO+
58.995	23	C2H3S+
68.0495	193	C4H6N+
69.0335	3	C4H5O+
70.0651	5	C4H8N+
74.0059	3	C2H4NS+
78.0464	2	C6H6+
80.0495	1	C5H6N+
81.0336	1	C5H5O+
82.0412	2	C5H6O+
82.0651	1	C5H8N+
86.0059	233	C3H4NS+
91.0543	2	C7H7+
94.0652	3	C6H8N+
95.0491	4	C6H7O+
97.0285	4	C5H5O2+
98.0601	1	C5H8NO+
102.0008	3	C3H4NOS+
105.0335	3	C7H5O+
106.0413	17	C7H6O+
106.0652	10	C7H8N+
107.0491	23	C7H7O+
108.0445	1	C6H6NO+
109.0761	1	C6H9N2+
112.0216	7	C5H6NS+
114.0008	999	C4H4NOS+
116.0494	1	C8H6N+
119.0491	6	C8H7O+
120.0444	1	C7H6NO+
120.057	1	C8H8O+
122.0601	13	C7H8NO+
126.0372	1	C6H8NS+
133.0285	6	C8H5O2+
133.0522	13	C8H7NO+
134.0363	134	C8H6O2+
134.0601	81	C8H8NO+
135.044	4	C8H7O2+
135.0553	2	C7H7N2O+
137.0056	6	C7H5OS+
137.0711	1	C7H9N2O+
138.0313	1	C7H6O3+
138.0549	2	C7H8NO2+
139.0213	29	C7H7OS+
140.0165	3	C6H6NOS+
140.0342	4	C6H6NO3+
144.0559	1	C8H6N3+
146.0603	4	C9H8NO+
151.0214	1	C8H7OS+
152.0165	1	C7H6NOS+
153.037	1	C8H9OS+
158.0271	35	C6H8NO2S+
162.0549	2	C9H8NO2+
163.0213	8	C9H7OS+
166.0322	6	C8H8NOS+
178.0322	5	C9H8NOS+
180.0478	2	C9H10NOS+
190.0496	1	C10H8NO3+
194.0271	3	C9H8NO2S+
214.0625	3	C13H10O3+
228.0656	1	C13H10NO3+
241.0373	1	C13H7NO4+
