Mass spectrum: 4-Amino-6-chloro-1,3-benzenedisulfonamide; LC-ESI-QFT; MS2; CE: 90; R=35000; [M+H]+
Name: 4-Amino-6-chloro-1,3-benzenedisulfonamide
Name: 4-amino-6-chlorobenzene-1,3-disulfonamide
Formula: C6H8ClN3O4S2
Exact mass: 284.96448
SMILES: C1=C(C(=CC(=C1Cl)S(=O)(=O)N)S(=O)(=O)N)N
InChI: InChI=1S/C6H8ClN3O4S2/c7-3-1-4(8)6(16(10,13)14)2-5(3)15(9,11)12/h1-2H,8H2,(H2,9,11,12)(H2,10,13,14)
Instrument: Q Exactive Orbitrap Thermo Scientific
Instrument type: LC-ESI-QFT
Ms type: MS2
Ion mode: POSITIVE
Ionization: ESI
Fragmentation mode: HCD
Collision energy: 90 (nominal)
Resolution: 35000
Column name: XBridge C18 3.5um, 2.1x50mm, Waters
Retention time: 1.7 min
Base peak: 285.9718
Precursor m/z: 285.9718
Precursor type: [M+H]+
m/z	relative intensity	assigned
50.0152	12	C4H2+
51.0103	2	C3HN+
51.023	3	C4H3+
52.0182	21	C3H2N+
53.0023	2	C3HO+
54.034	3	C3H4N+
56.0495	3	C3H6N+
60.984	2	C2H2Cl+
61.0072	4	C5H+
61.9792	45	CHClN+
62.0151	42	C5H2+
62.9633	10	CClO+
63.023	30	C5H3+
63.9851	143	H2NOS+
63.9949	13	CH3ClN+
64.0181	26	C4H2N+
65.026	31	C4H3N+
66.0338	120	C4H4N+
67.0291	4	C3H3N2+
67.0417	72	C4H5N+
68.0131	36	C3H2NO+
68.0495	2	C4H6N+
68.9794	17	C3HS+
69.0447	4	C3H5N2+
70.0525	4	C3H6N2+
72.9839	184	C3H2Cl+
73.9792	4	C2HClN+
74.9996	45	C3H4Cl+
76.0182	130	C5H2N+
77.0022	74	C5HO+
78.0338	307	C5H4N+
78.9403	12	CClS+
79.0179	15	C5H3O+
79.0292	5	C4H3N2+
79.0417	22	C5H5N+
80.0131	38	C4H2NO+
80.0494	11	C5H6N+
81.0336	11	C5H5O+
81.0447	3	C4H5N2+
82.0288	34	C4H4NO+
82.0526	14	C4H6N2+
84.9743	9	C3HOS+
84.9839	57	C4H2Cl+
85.9792	90	C3HClN+
86.9996	187	C4H4Cl+
87.9949	54	C3H3ClN+
88.0182	13	C6H2N+
89.026	999	C6H3N+
90.0105	41	C3H5ClN+
90.0338	25	C6H4N+
91.0291	15	C5H3N2+
92.0131	17	C5H2NO+
92.0369	21	C5H4N2+
93.0447	249	C5H5N2+
94.0287	87	C5H4NO+
94.0525	31	C5H6N2+
95.9902	11	C4H2NS+
96.0444	31	C5H6NO+
96.984	339	C5H2Cl+
97.9792	174	C4HClN+
98.9842	4	CH4ClO3+
98.9995	17	C5H4Cl+
99.9949	255	C4H3ClN+
101.0027	139	C4H4ClN+
102.0105	267	C4H5ClN+
102.9404	30	C3ClS+
104.9561	168	C3H2ClS+
105.0447	74	C6H5N2+
106.0286	16	C6H4NO+
106.0526	60	C6H6N2+
106.9824	186	C5HNS+
107.0366	9	C6H5NO+
107.9903	27	C5H2NS+
108.9981	2	C5H3NS+
109.0395	26	C5H5N2O+
110.0474	12	C5H6N2O+
110.9632	37	C5ClO+
111.0315	15	C5H5NO2+
111.0553	15	C5H7N2O+
111.9949	239	C5H3ClN+
112.9789	34	C5H2ClO+
112.9901	54	C4H2ClN2+
113.0026	12	C5H4ClN+
113.9741	18	C4HClNO+
114.0105	288	C5H5ClN+
114.9945	26	C5H4ClO+
115.9898	10	C4H3ClNO+
117.0212	3	C4H6ClN2+
118.0054	33	C4H5ClNO+
119.024	3	C6H3N2O+
120.0079	17	C6H2NO2+
121.0396	20	C6H5N2O+
122.0474	11	C6H6N2O+
123.9949	169	C6H3ClN+
124.009	13	C5H4N2S+
124.0394	107	C6H6NO2+
125.0027	69	C6H4ClN+
125.9977	4	C5H3ClN2+
127.0058	76	C5H4ClN2+
127.9898	112	C5H3ClNO+
129.0214	493	C5H6ClN2+
130.0055	399	C5H5ClNO+
131.0009	19	C4H4ClN2O+
131.9669	24	C4H3ClNS+
131.9847	131	C4H3ClNO2+
139.0059	23	C3H7O4S+
139.9898	167	C6H3ClNO+
140.9978	21	C6H4ClNO+
141.9514	47	C5HClNS+
142.0055	468	C6H5ClNO+
142.9592	3	C5H2ClNS+
145.0163	53	C5H6ClN2O+
152.0008	13	C6H3ClN3+
155.0007	117	C6H4ClN2O+
155.9846	306	C6H3ClNO2+
157.0163	60	C6H6ClN2O+
158.0004	23	C6H5ClNO2+
160.016	119	C6H7ClNO2+
169.9469	3	C6HClNOS+
173.0112	507	C6H6ClN2O2+
173.9952	561	C6H5ClNO3+
188.9645	3	C6H4ClNO2S+
220.9785	2	C6H6ClN2O3S+
