Mass spectrum: Levamisole; LC-ESI-ITFT; MS2; CE: 90%; R=7500; [M+H]+
Name: Levamisole
Name: (6S)-6-phenyl-2,3,5,6-tetrahydroimidazo[2,1-b][1,3]thiazole
Formula: C11H12N2S
Exact mass: 204.0721
SMILES: c1([C@H]2CN3CCSC3=N2)ccccc1
InChI: InChI=1S/C11H12N2S/c1-2-4-9(5-3-1)10-8-13-6-7-14-11(13)12-10/h1-5,10H,6-8H2/t10-/m1/s1
Instrument: LTQ Orbitrap XL Thermo Scientific
Instrument type: LC-ESI-ITFT
Ms type: MS2
Ion mode: POSITIVE
Ionization: ESI
Fragmentation mode: HCD
Collision energy: 90 % (nominal)
Resolution: 7500
Column name: XBridge C18 3.5um, 2.1x50mm, Waters
Retention time: 2.9 min
Base peak: 205.0801
Precursor m/z: 205.0794
Precursor type: [M+H]+
m/z	relative intensity	assigned
58.995	22	C2H3S+
59.9904	11	CH2NS+
61.0107	64	C2H5S+
74.0059	27	C2H4NS+
77.0386	24	C6H5+
79.0543	59	C6H7+
86.006	34	C3H4NS+
88.0217	59	C3H6NS+
91.0543	976	C7H7+
103.0544	195	C8H7+
104.0498	23	C7H6N+
104.0622	47	C8H8+
105.07	269	C8H9+
106.0653	14	C7H8N+
115.0543	105	C9H7+
117.0574	179	C8H7N+
117.07	268	C9H9+
118.0653	300	C8H8N+
119.0724	12	C8H9N+
119.0855	31	C9H11+
120.0808	18	C8H10N+
123.0264	754	C7H7S+
128.0497	40	C9H6N+
128.0622	196	C10H8+
129.07	242	C10H9+
130.0652	157	C9H8N+
131.073	124	C9H9N+
132.0809	102	C9H10N+
135.0265	85	C8H7S+
144.0809	117	C10H10N+
145.0761	32	C9H9N2+
145.0885	13	C10H11N+
146.0599	13	C9H8NO+
146.0966	122	C10H12N+
148.022	20	C8H6NS+
150.0373	94	C8H8NS+
155.0605	57	C10H7N2+
178.0686	999	C10H12NS+
188.0531	13	C11H10NS+
205.0791	229	C11H13N2S+
