Mass spectrum: Lovastatin; LC-ESI-QFT; MS2; CE: 75; R=35000; [M+H]+
Name: Lovastatin
Name: (1S,3R,7S,8S,8aR)-8-{2-[(2R,4R)-4-hydroxy-6-oxotetrahydro-2H-pyran-2-yl]ethyl}-3,7-dimethyl-1,2,3,7,8,8a-hexahydronaphthalen-1-yl (2S)-2-methylbutanoate
Name: (2S)-2-methylbutanoic acid [(1S,3R,7S,8S,8aR)-8-[2-[(2R,4R)-4-hydroxy-6-oxo-2-oxanyl]ethyl]-3,7-dimethyl-1,2,3,7,8,8a-hexahydronaphthalen-1-yl] ester
Formula: C24H36O5
Exact mass: 404.25627
SMILES: O=C(O[C@@H]1[C@H]3C(=C/[C@H](C)C1)\C=C/[C@@H]([C@@H]3CC[C@H]2OC(=O)C[C@H](O)C2)C)[C@@H](C)CC
InChI: InChI=1S/C24H36O5/c1-5-15(3)24(27)29-21-11-14(2)10-17-7-6-16(4)20(23(17)21)9-8-19-12-18(25)13-22(26)28-19/h6-7,10,14-16,18-21,23,25H,5,8-9,11-13H2,1-4H3/t14-,15-,16-,18+,19+,20-,21-,23-/m0/s1
Instrument: Q Exactive Orbitrap Thermo Scientific
Instrument type: LC-ESI-QFT
Ms type: MS2
Ion mode: POSITIVE
Ionization: ESI
Fragmentation mode: HCD
Collision energy: 75 (nominal)
Resolution: 35000
Column name: XBridge C18 3.5um, 2.1x50mm, Waters
Retention time: 15.3 min
Base peak: 405.2632
Precursor m/z: 405.2636
Precursor type: [M+H]+
m/z	relative intensity	assigned
57.07	5	C4H9+
65.0386	17	C5H5+
67.0542	102	C5H7+
68.9971	11	C3HO2+
69.0334	4	C4H5O+
69.0698	56	C5H9+
71.0127	32	C3H3O2+
71.0491	16	C4H7O+
77.0385	15	C6H5+
79.0542	308	C6H7+
81.0698	297	C6H9+
83.0491	88	C5H7O+
85.0648	21	C5H9O+
89.0232	5	C3H5O3+
91.0542	244	C7H7+
93.0698	149	C7H9+
95.0491	57	C6H7O+
95.0855	53	C7H11+
97.0648	35	C6H9O+
103.054	6	C8H7+
105.0448	26	C6H5N2+
105.0699	423	C8H9+
107.0855	124	C8H11+
109.0648	20	C7H9O+
109.1012	12	C8H13+
115.054	51	C9H7+
116.0619	21	C9H8+
117.0698	148	C9H9+
119.0854	225	C9H11+
121.0647	12	C8H9O+
121.1011	29	C9H13+
127.0544	3	C10H7+
128.0619	228	C10H8+
129.0698	205	C10H9+
130.0777	70	C10H10+
131.0855	424	C10H11+
133.1011	53	C10H13+
135.0803	5	C9H11O+
135.1166	4	C10H15+
141.0698	111	C11H9+
142.0778	248	C11H10+
143.0856	999	C11H11+
144.0933	143	C11H12+
145.1011	335	C11H13+
147.0804	6	C10H11O+
147.1165	13	C11H15+
149.0963	5	C10H13O+
153.0699	29	C12H9+
154.0776	72	C12H10+
155.0604	17	C10H7N2+
155.0854	249	C12H11+
156.0934	167	C12H12+
157.1011	258	C12H13+
158.109	210	C12H14+
159.1168	185	C12H15+
165.07	23	C13H9+
166.0776	11	C13H10+
167.0855	49	C13H11+
168.0933	82	C13H12+
169.1011	319	C13H13+
170.1086	24	C13H14+
171.1167	151	C13H15+
173.1324	189	C13H17+
178.0774	12	C14H10+
179.0855	36	C14H11+
180.0933	11	C14H12+
181.1012	71	C14H13+
182.1091	37	C14H14+
183.1169	159	C14H15+
184.1248	12	C14H16+
185.1327	7	C14H17+
191.0856	5	C15H11+
192.0933	30	C15H12+
193.1013	38	C15H13+
194.109	6	C15H14+
195.1168	51	C15H15+
196.1246	35	C15H16+
197.1323	62	C15H17+
198.1405	4	C15H18+
199.1481	107	C15H19+
201.1641	4	C15H21+
205.1013	14	C16H13+
206.1094	4	C16H14+
207.1168	29	C16H15+
208.1248	14	C16H16+
210.1403	27	C16H18+
211.1117	5	C15H15O+
211.1481	15	C16H19+
219.1171	16	C17H15+
223.1481	33	C17H19+
225.1637	67	C17H21+
234.1402	5	C18H18+
