Mass spectrum: Iminostilbene; LC-ESI-ITFT; MS2; CE: 90%; R=30000; [M+H]+
Name: Iminostilbene
Name: 11H-benzo[b][1]benzazepine
Formula: C14H11N
Exact mass: 193.0891
SMILES: c1cc2Nc3ccccc3\C=C/c2cc1
InChI: InChI=1S/C14H11N/c1-3-7-13-11(5-1)9-10-12-6-2-4-8-14(12)15-13/h1-10,15H
Instrument: LTQ Orbitrap XL Thermo Scientific
Instrument type: LC-ESI-ITFT
Ms type: MS2
Ion mode: POSITIVE
Ionization: ESI
Fragmentation mode: HCD
Collision energy: 90 % (nominal)
Resolution: 30000
Column name: XBridge C18 3.5um, 2.1x50mm, Waters
Retention time: 11.0 min
Base peak: 194.0971
Precursor m/z: 194.0964
Precursor type: [M+H]+
m/z	relative intensity	assigned
89.0387	5	C7H5+
90.0465	6	C7H6+
91.0543	19	C7H7+
116.0496	20	C8H6N+
117.0574	34	C8H7N+
128.0496	6	C9H6N+
152.0622	62	C12H8+
154.0656	2	C11H8N+
165.07	68	C13H9+
166.0652	12	C12H8N+
166.0778	21	C13H10+
167.073	101	C12H9N+
167.0857	25	C13H11+
168.0808	5	C12H10N+
176.0623	20	C14H8+
177.07	24	C14H9+
178.0653	51	C13H8N+
178.0777	21	C14H10+
179.0732	582	C13H9N+
191.0731	15	C14H9N+
192.081	185	C14H10N+
193.0889	999	C14H11N+
194.0966	827	C14H12N+
