Mass spectrum: Oxadiazon; LC-ESI-QFT; MS2; CE: 90; R=35000; [M+H]+
Name: Oxadiazon
Name: 5-tert-butyl-3-(2,4-dichloro-5-propan-2-yloxyphenyl)-1,3,4-oxadiazol-2-one
Formula: C15H18Cl2N2O3
Exact mass: 344.06945
SMILES: CC(C)OC1=C(C=C(C(=C1)N2C(=O)OC(=N2)C(C)(C)C)Cl)Cl
InChI: InChI=1S/C15H18Cl2N2O3/c1-8(2)21-12-7-11(9(16)6-10(12)17)19-14(20)22-13(18-19)15(3,4)5/h6-8H,1-5H3
Instrument: Q Exactive Plus Orbitrap Thermo Scientific
Instrument type: LC-ESI-QFT
Ms type: MS2
Ion mode: POSITIVE
Ionization: ESI
Fragmentation mode: HCD
Collision energy: 90 (nominal)
Resolution: 35000
Column name: XBridge C18 3.5um, 2.1x50mm, Waters
Retention time: 15.4 min
Base peak: 273.2055
Precursor m/z: 345.0767
Precursor type: [M+H]+
m/z	relative intensity	assigned
50.0149	11	C4H2+
51.0228	1	C4H3+
52.0181	8	C3H2N+
53.0022	170	C3HO+
54.0338	1	C3H4N+
55.0179	8	C3H3O+
55.0543	4	C4H7+
56.0495	1	C3H6N+
57.0699	65	C4H9+
59.976	3	C2HCl+
60.9839	4	C2H2Cl+
61.9793	12	CHClN+
62.9632	182	CClO+
64.0182	24	C4H2N+
65.026	20	C4H3N+
66.01	1	C4H2O+
66.0338	20	C4H4N+
67.0178	10	C4H3O+
67.0542	3	C5H7+
68.0131	10	C3H2NO+
68.9971	1	C3HO2+
69.9924	44	C2NO2+
72.9839	102	C3H2Cl+
74.0965	1	C4H12N+
75.0103	4	C5HN+
76.0181	78	C5H2N+
77.0021	8	C5HO+
77.0259	3	C5H3N+
78.0338	39	C5H4N+
79.0178	4	C5H3O+
79.0542	1	C6H7+
80.0131	3	C4H2NO+
82.0287	11	C4H4NO+
83.0365	1	C4H5NO+
84.0805	1	C5H10N+
84.984	427	C4H2Cl+
85.9792	3	C3HClN+
85.9918	11	C4H3Cl+
86.9632	27	C3ClO+
87.9948	1	C3H3ClN+
88.9789	48	C3H2ClO+
90.0106	21	C3H5ClN+
91.0544	4	C7H7+
92.0131	6	C5H2NO+
93.021	40	C5H3NO+
94.0288	470	C5H4NO+
95.0128	17	C5H3O2+
96.0444	1	C5H6NO+
98.9996	1	C5H4Cl+
99.9949	48	C4H3ClN+
101.0027	115	C4H4ClN+
101.9867	97	C4H3ClO+
104.013	8	C6H2NO+
104.9971	3	C6HO2+
105.0701	1	C8H9+
106.0051	1	C6H2O2+
106.0288	1	C6H4NO+
108.9607	1	C3H3Cl2+
109.9792	128	C5HClN+
110.987	4	C5H2ClN+
111.9949	58	C5H3ClN+
112.0394	10	C5H6NO2+
112.9789	999	C5H2ClO+
113.9742	5	C4HClNO+
113.9867	3	C5H3ClO+
118.0053	4	C4H5ClNO+
118.945	1	C4HCl2+
120.0081	29	C6H2NO2+
120.9607	187	C4H3Cl2+
122.0237	195	C6H4NO2+
127.9898	81	C5H3ClNO+
128.9976	842	C5H4ClNO+
129.9817	213	C5H3ClO2+
130.0055	25	C5H5ClNO+
131.0131	3	C5H6ClNO+
131.9845	1	C4H3ClNO2+
135.9717	3	C4H4Cl2N+
138.982	4	C6H2ClNO+
139.0062	4	C6H4ClN2+
139.9899	13	C6H3ClNO+
140.9738	402	C6H2ClO2+
140.9976	23	C6H4ClNO+
141.9817	4	C6H3ClO2+
144.9926	3	C5H4ClNO2+
145.956	52	C5H2Cl2N+
146.0004	4	C5H5ClNO2+
146.9639	1	C5H3Cl2N+
147.9716	46	C5H4Cl2N+
148.0029	15	C7H2NO3+
148.9556	933	C5H3Cl2O+
155.0007	3	C6H4ClN2O+
155.9847	60	C6H3ClNO2+
156.9926	40	C6H4ClNO2+
158.0009	1	C3H8Cl2N2O+
158.9846	1	C6H4ClO3+
160.9877	5	C5H4ClNO3+
161.0239	3	C6H8ClNO2+
162.9826	3	C5H5Cl2N2+
163.9665	43	C5H4Cl2NO+
166.9663	9	C5H5Cl2O2+
172.9998	1	C7H6ClO3+
173.9509	140	C6H2Cl2NO+
175.9665	1	C6H4Cl2NO+
176.9505	330	C6H3Cl2O2+
180.9819	3	C6H7Cl2O2+
183.9798	16	C7H3ClNO3+
184.0037	8	C7H5ClN2O2+
184.9875	433	C7H4ClNO3+
191.9617	1	C6H4Cl2NO2+
201.9461	4	C7H2Cl2NO2+
202.9535	13	C10ClO3+
219.9567	1	C7H4Cl2NO3+
