Mass spectrum: Tonalide; LC-ESI-QFT; MS2; CE: 15%; R=15000; [M+H]+
Name: Tonalide
Name: Tonalid
Name: 1-(3,5,5,6,8,8-hexamethyl-6,7-dihydronaphthalen-2-yl)ethanone
Formula: C18H26O
Exact mass: 258.1983655
SMILES: CC1CC(C2=C(C1(C)C)C=C(C(=C2)C(=O)C)C)(C)C
InChI: InChI=1S/C18H26O/c1-11-8-16-15(9-14(11)13(3)19)17(4,5)10-12(2)18(16,6)7/h8-9,12H,10H2,1-7H3
Instrument: Exploris 240 Thermo Scientific
Instrument type: LC-ESI-QFT
Ms type: MS2
Ion mode: POSITIVE
Ionization: ESI
Fragmentation mode: HCD
Collision energy: 15 % (nominal)
Resolution: 15000
Column name: XBridge C18 3.5um, 2.1x50mm, Waters
Retention time: 15.295 min
Base peak: 259.2053
Precursor m/z: 259.2056
Precursor type: [M+H]+
m/z	relative intensity	assigned
175.1116	60	C12H15O+
202.0777	44	C16H10+
259.2055	999	C18H27O+
