Mass spectrum: Nilotinib; LC-ESI-QFT; MS2; CE: 90; R=35000; [M+H]+
Name: Nilotinib
Name: 4-methyl-N-(3-(4-methylimidazol-1-yl)-5-(trifluoromethyl)phenyl)-3-((4-pyridin-3-ylpyrimidin-2-yl)amino)benzamide
Formula: C28H22F3N7O
Exact mass: 529.18379
SMILES: CC1=C(C=C(C=C1)C(=O)NC2=CC(=CC(=C2)N3C=C(N=C3)C)C(F)(F)F)NC4=NC=CC(=N4)C5=CN=CC=C5
InChI: InChI=1S/C28H22F3N7O/c1-17-5-6-19(10-25(17)37-27-33-9-7-24(36-27)20-4-3-8-32-14-20)26(39)35-22-11-21(28(29,30)31)12-23(13-22)38-15-18(2)34-16-38/h3-16H,1-2H3,(H,35,39)(H,33,36,37)
Instrument: Q Exactive Plus Orbitrap Thermo Scientific
Instrument type: LC-ESI-QFT
Ms type: MS2
Ion mode: POSITIVE
Ionization: ESI
Fragmentation mode: HCD
Collision energy: 90 (nominal)
Resolution: 35000
Column name: XBridge C18 3.5um, 2.1x50mm, Waters
Retention time: 8.2 min
Base peak: 530.1902
Precursor m/z: 530.1911
Precursor type: [M+H]+
m/z	relative intensity	assigned
50.0151	2	C4H2+
51.0228	1	C4H3+
53.0386	5	C4H5+
54.0338	1	C3H4N+
56.0495	8	C3H6N+
63.0229	2	C5H3+
65.0386	10	C5H5+
77.0384	5	CH4FN3+
78.0337	10	C5H4N+
79.0416	4	C5H5N+
79.0542	10	C6H7+
80.0494	4	C5H6N+
81.0446	2	C4H5N2+
82.0525	1	C4H6N2+
83.0602	3	C4H7N2+
89.0385	22	C7H5+
90.0338	1	C6H4N+
90.0464	2	C7H6+
91.0417	2	C6H5N+
91.0542	21	C7H7+
92.0494	7	C6H6N+
93.0572	1	C6H7N+
95.0491	15	C6H7O+
96.0443	12	C5H6NO+
102.0338	2	C7H4N+
102.0464	4	C8H6+
103.0415	2	C2H4FN4+
103.0542	6	C8H7+
104.0494	89	C7H6N+
105.0447	23	C6H5N2+
106.0525	1	C6H6N2+
106.065	14	C7H8N+
107.0729	4	C7H9N+
110.06	3	C6H8NO+
114.0337	5	C3H3FN4+
115.0416	7	C8H5N+
115.0541	1	C9H7+
116.0369	1	C7H4N2+
116.0494	28	C8H6N+
117.0446	1	C2H4FN5+
117.0572	11	C8H7N+
118.0524	6	C2H5FN5+
118.065	4	C3H7FN4+
119.0491	1	C8H7O+
119.0605	4	C7H7N2+
120.0443	4	C2H5FN4O+
121.0396	1	C6H5N2O+
126.0276	1	C7H4F2+
127.0352	1	C2H4F3N3+
128.0494	7	C9H6N+
129.0446	21	
129.0571	3	C4H6FN4+
130.0399	8	C7H4N3+
130.0525	5	C8H6N2+
130.0651	13	C9H8N+
131.0603	68	C3H6FN5+
132.0681	8	C8H8N2+
133.0262	1	C6H4F3+
133.0521	1	C8H7NO+
133.0759	2	C3H8FN5+
134.0473	5	C2H5FN5O+
134.0598	5	C3H7FN4O+
135.0554	1	C7H7N2O+
139.0227	2	C2H2F3N4+
140.0495	3	C10H6N+
141.0446	1	C4H4FN5+
142.0525	32	C9H6N2+
143.0477	3	C8H5N3+
143.0603	6	C9H7N2+
144.0443	1	C4H5FN4O+
144.0558	2	C8H6N3+
144.0682	8	C9H8N2+
145.0257	3	C5HN6+
145.0636	1	C8H7N3+
145.0759	6	C4H8FN5+
146.06	5	C9H8NO+
146.0714	1	C8H8N3+
147.0551	9	C3H6FN5O+
147.0673	2	C4H8FN4O+
148.0555	3	C4H6F2N4+
149.0708	2	C3H8FN5O+
151.0354	13	C9H5F2+
152.0306	1	C8H4F2N+
153.0385	8	C8H5F2N+
155.0603	22	C5H6FN5+
156.0555	50	C4H5FN6+
156.0681	9	C5H7FN5+
157.0261	1	C8H4F3+
157.0635	2	C9H7N3+
157.076	9	C10H9N2+
158.0402	3	C10H5FN+
158.0712	15	C9H8N3+
159.0552	1	C9H7N2O+
160.0631	1	C9H8N2O+
161.0207	3	C5HN6O+
162.0422	2	C3H5FN5O2+
166.0463	2	C9H6F2N+
166.0651	2	C12H8N+
167.0477	1	C5H4FN6+
167.0605	1	C11H7N2+
167.073	1	C12H9N+
168.0556	1	C10H6N3+
169.0633	4	C5H6FN6+
171.055	2	C5H6FN5O+
171.079	17	C5H8FN6+
172.0368	4	C8H5F3N+
172.0629	2	C5H7FN5O+
173.0443	1	C6H3N7+
173.0512	1	C10H6FN2+
174.059	1	C10H7FN2+
174.0661	16	C4H7FN6O+
175.0669	1	C10H8FN2+
176.0819	1	C9H10N3O+
178.0462	4	C10H6F2N+
179.0603	2	C12H7N2+
180.0491	1	C4H5F3N5+
180.0557	1	C11H6N3+
180.0682	1	C12H8N2+
180.0805	3	C8H9FN4+
181.0634	2	C11H7N3+
181.0757	2	C7H8FN5+
182.0712	11	C11H8N3+
183.0666	1	C10H7N4+
183.0791	6	C11H9N3+
186.016	1	C6N7O+
186.0524	3	C9H7F3N+
187.0486	1	C8H6F3N2+
190.065	3	C9H7FN4+
191.0606	2	C8H6FN5+
191.0728	3	C9H8FN4+
192.0681	11	C8H7FN5+
193.0567	11	C5H6F3N5+
193.0638	2	C12H7N3+
193.076	6	C13H9N2+
194.0715	5	C12H8N3+
195.0803	4	C9H10FN3O+
196.0368	1	C10H5F3N+
196.0569	1	C10H8F2NO+
197.0451	2	C10H6F3N+
198.0524	9	C10H7F3N+
199.0478	2	C9H6F3N2+
200.0553	3	C9H7F3N2+
201.0398	1	C9H6F3NO+
201.0529	1	C10H8F3O+
205.0574	1	C11H7F2N2+
205.076	7	C14H9N2+
206.0714	6	C13H8N3+
207.0792	5	C13H9N3+
207.0917	7	C14H11N2+
208.0869	17	C13H10N3+
210.04	1	C10H5F3N2+
213.027	1	C9H4F3N2O+
213.0634	12	C10H8F3N2+
214.0712	17	C10H9F3N2+
216.0682	5	C15H8N2+
217.0635	2	C14H7N3+
217.0761	6	C15H9N2+
218.0713	21	C14H8N3+
218.0837	8	C10H9FN5+
219.0792	39	C14H9N3+
219.0915	6	C10H10FN5+
220.0868	30	C9H9FN6+
221.0516	2	C6H6F3N5O+
221.0823	4	C13H9N4+
221.0948	5	C14H11N3+
223.0474	3	C11H6F3N2+
224.0554	1	C11H7F3N2+
225.0519	1	C10H5N6O+
225.0636	2	C11H8F3N2+
230.0709	3	C10H7FN6+
231.079	2	C15H9N3+
232.0869	27	C15H10N3+
233.0822	5	C14H9N4+
233.0948	22	C15H11N3+
234.0899	4	C14H10N4+
234.1024	37	C10H11FN6+
240.0741	1	C11H9F3N3+
241.0827	2	C16H11F2+
242.0711	1	C11H7FN6+
242.0897	1	C11H11F3N3+
243.0791	12	C16H9N3+
244.0743	51	C15H8N4+
245.0823	168	C15H9N4+
245.0941	10	C11H10FN6+
246.09	158	C10H9FN7+
247.0977	17	C10H10FN7+
257.082	8	C11H8FN7+
258.0899	24	C16H10N4+
259.0977	999	C11H10FN7+
260.1056	63	C16H12N4+
261.1133	47	C11H12FN7+
268.0688	1	C12H9F3N3O+
272.0931	1	C16H10N5+
278.0798	1	C15H11F3NO+
