Mass spectrum: Pyraclofos; LC-ESI-QFT; MS2; CE: 30%; R=17500; [M+H]+
Name: Pyraclofos
Name: 1-(4-chlorophenyl)-4-[ethoxy(propylsulfanyl)phosphoryl]oxypyrazole
Formula: C14H18ClN2O3PS
Exact mass: 360.0464
SMILES: CCCSP(=O)(OCC)OC1=CN(N=C1)C2=CC=C(C=C2)Cl
InChI: InChI=1S/C14H18ClN2O3PS/c1-3-9-22-21(18,19-4-2)20-14-10-16-17(11-14)13-7-5-12(15)6-8-13/h5-8,10-11H,3-4,9H2,1-2H3
Instrument: Exploris 240 Orbitrap Thermo Scientific
Instrument type: LC-ESI-QFT
Ms type: MS2
Ion mode: POSITIVE
Ionization: ESI
Fragmentation mode: HCD
Collision energy: 30 % (nominal)
Resolution: 17500
Column name: XBridge C18 3.5um, 2.1x50mm, Waters
Retention time: 11.576 min
Base peak: 361.0538
Precursor m/z: 361.0537
Precursor type: [M+H]+
m/z	relative intensity	assigned
114.9612	27	H4O3PS+
124.9822	14	C3H6ClOS+
138.9976	58	C3H8O2PS+
177.0212	11	C8H6N2OP+
195.032	172	C9H8ClN2O+
211.009	63	C9H8ClN2S+
256.9879	360	C9H7ClN2O3P+
272.9647	70	C13H4ClNO2S+
290.9755	202	C9H9ClN2O3PS+
319.0069	209	C11H13ClN2O3PS+
333.0225	348	C12H15ClN2O3PS+
361.0539	999	C14H19ClN2O3PS+
