Mass spectrum: Chlordiazepoxide; LC-ESI-QFT; MS2; CE: 60; R=35000; [M-H]-
Name: Chlordiazepoxide
Name: Zetran
Name: 7-chloro-4-hydroxy-N-methyl-5-phenyl-3H-1,4-benzodiazepin-2-imine
Formula: C16H14ClN3O
Exact mass: 299.08254
SMILES: CN=C1CN(C(=C2C=C(C=CC2=N1)Cl)C3=CC=CC=C3)O
InChI: InChI=1S/C16H14ClN3O/c1-18-15-10-20(21)16(11-5-3-2-4-6-11)13-9-12(17)7-8-14(13)19-15/h2-9,21H,10H2,1H3
Instrument: Q Exactive Plus Orbitrap Thermo Scientific
Instrument type: LC-ESI-QFT
Ms type: MS2
Ion mode: NEGATIVE
Ionization: ESI
Fragmentation mode: HCD
Collision energy: 60 (nominal)
Resolution: 35000
Column name: XBridge C18 3.5um, 2.1x50mm, Waters
Retention time: 6.2 min
Base peak: 298.0748
Precursor m/z: 298.0753
Precursor type: [M-H]-
m/z	relative intensity	assigned
55.0301	18	C2H3N2-
65.9985	1	C3NO-
102.0347	1	C7H4N-
111.0006	4	C6H4Cl-
116.0141	5	C7H2NO-
131.061	1	C8H7N2-
135.9958	4	C7H3ClN-
145.0407	6	C8H5N2O-
151.9909	9	C7H3ClNO-
154.9908	1	C7H4ClO2-
165.0223	1	C8H6ClN2-
190.0662	8	C14H8N-
192.0334	7	C9H7ClN3-
193.0768	7	C13H9N2-
215.0614	4	C15H7N2-
217.077	42	C15H9N2-
218.085	4	C15H10N2-
221.0719	36	C14H9N2O-
222.0798	4	C14H10N2O-
224.0269	6	C14H7ClN-
226.0428	37	C14H9ClN-
238.0302	140	C14H7ClN2-
239.0381	12	C14H8ClN2-
240.0459	11	C14H9ClN2-
241.0301	4	C14H8ClNO-
249.0669	8	C12H12ClN3O-
251.038	53	C15H8ClN2-
253.0537	999	C15H10ClN2-
254.0606	10	C15H11ClN2-
255.0332	19	C14H8ClN2O-
255.0695	2	C15H12ClN2-
