Mass spectrum: Propyzamide; LC-ESI-QFT; MS2; CE: 45; R=35000; [M+H]+
Name: Propyzamide
Name: 3,5-bis(chloranyl)-N-(2-methylbut-3-yn-2-yl)benzamide
Name: Promamide
Formula: C12H11Cl2NO
Exact mass: 255.02177
SMILES: Clc1cc(C(=O)NC(C#C)(C)C)cc(Cl)c1
InChI: InChI=1S/C12H11Cl2NO/c1-4-12(2,3)15-11(16)8-5-9(13)7-10(14)6-8/h1,5-7H,2-3H3,(H,15,16)
Instrument: Q Exactive Orbitrap Thermo Scientific
Instrument type: LC-ESI-QFT
Ms type: MS2
Ion mode: POSITIVE
Ionization: ESI
Fragmentation mode: HCD
Collision energy: 45 (nominal)
Resolution: 35000
Column name: XBridge C18 3.5um, 2.1x50mm, Waters
Retention time: 11.0 min
Base peak: 256.0295
Precursor m/z: 256.029
Precursor type: [M+H]+
m/z	relative intensity	assigned
53.0025	1	ClH4N+
65.0387	61	C5H5+
67.0543	189	C5H7+
84.984	5	C4H2Cl+
85.0648	2	C5H9O+
108.9839	3	C6H2Cl+
120.9607	2	C4H3Cl2+
126.9946	3	C6H4ClO+
128.0024	2	C6H5ClO+
129.0102	1	C6H6ClO+
139.0057	4	C9HNO+
144.9601	6	C6H3Cl2+
146.9763	87	C6H5Cl2+
162.9712	8	C6H5Cl2O+
171.9717	9	C7H4Cl2N+
172.9557	999	C7H3Cl2O+
172.9661	49	C9ClNO+
189.9822	930	C7H6Cl2NO+
256.0291	15	C12H12Cl2NO+
