Mass spectrum: Propranolol; LC-ESI-ITFT; MS2; CE: 90%; R=7500; [M+H]+
Name: Propranolol
Name: 1-(1-naphthalenyloxy)-3-(propan-2-ylamino)-2-propanol
Formula: C16H21NO2
Exact mass: 259.1572
SMILES: CC(C)NCC(COC1=CC=CC2=CC=CC=C21)O
InChI: InChI=1S/C16H21NO2/c1-12(2)17-10-14(18)11-19-16-9-5-7-13-6-3-4-8-15(13)16/h3-9,12,14,17-18H,10-11H2,1-2H3
Instrument: LTQ Orbitrap XL Thermo Scientific
Instrument type: LC-ESI-ITFT
Ms type: MS2
Ion mode: POSITIVE
Ionization: ESI
Fragmentation mode: HCD
Collision energy: 90 % (nominal)
Resolution: 7500
Column name: XBridge C18 3.5um, 2.1x50mm, Waters
Retention time: 6.6 min
Base peak: 260.165
Precursor m/z: 260.1645
Precursor type: [M+H]+
m/z	relative intensity	assigned
56.0494	552	C3H6N+
58.0651	404	C3H8N+
72.0808	283	C4H10N+
74.0601	579	C3H8NO+
77.0383	26	C6H5+
84.0808	96	C5H10N+
98.0964	51	C6H12N+
100.112	274	C6H14N+
103.0545	55	C8H7+
115.0542	376	C9H7+
116.1068	87	C6H14NO+
117.0699	115	C9H9+
127.0543	77	C10H7+
128.062	504	C10H8+
129.0698	928	C10H9+
141.0701	99	C11H9+
144.0564	43	C10H8O+
145.0646	177	C10H9O+
153.0698	470	C12H9+
154.0776	225	C12H10+
155.0603	999	C10H7N2+
155.0855	523	C12H11+
157.0645	221	C11H9O+
165.0698	359	C13H9+
168.057	134	C12H8O+
