Mass spectrum: Nicosulfuron-TP AUSN; LC-ESI-QFT; MS2; CE: 120%; R=17500; [M-H]-
Name: Nicosulfuron-TP AUSN
Name: 2-(diaminomethylidenecarbamoylsulfamoyl)-N,N-dimethylpyridine-3-carboxamide
Formula: C10H14N6O4S
Exact mass: 314.0797
SMILES: CN(C)C(=O)C1=CC=CN=C1S(=O)(=O)NC(=O)NC(N)=N
InChI: InChI=1S/C10H14N6O4S/c1-16(2)8(17)6-4-3-5-13-7(6)21(19,20)15-10(18)14-9(11)12/h3-5H,1-2H3,(H5,11,12,14,15,18)
Instrument: Q Exactive Plus Orbitrap Thermo Scientific
Instrument type: LC-ESI-QFT
Ms type: MS2
Ion mode: NEGATIVE
Ionization: ESI
Fragmentation mode: HCD
Collision energy: 120 % (nominal)
Resolution: 17500
Column name: XBridge C18 3.5um, 2.1x50mm, Waters
Retention time: 1.351 min
Base peak: 313.0724
Precursor m/z: 313.0724
Precursor type: [M-H]-
m/z	relative intensity	assigned
50.0034	78	C3N-
61.9706	687	NOS-
63.9625	999	O2S-
65.9985	25	C3NO-
66.0349	198	C4H4N-
76.0191	23	C5H2N-
77.9655	689	NO2S-
78.9734	363	HNO2S-
79.9811	74	H2NO2S-
91.0302	148	C5H3N2-
93.0458	379	C5H5N2-
94.0299	709	C5H4NO-
117.0461	50	C7H5N2-
119.0248	141	C6H3N2O-
147.0444	41	CH11N2O4S-
