Mass spectrum: 2-Toluenesulfonamide; LC-ESI-QFT; MS2; CE: 180; R=35000; [M+H]+
Name: 2-Toluenesulfonamide
Name: o-Toluenesulfonamide
Name: 2-methylbenzenesulfonamide
Formula: C7H9NO2S
Exact mass: 171.03540
SMILES: CC1=CC=CC=C1S(=O)(=O)N
InChI: InChI=1S/C7H9NO2S/c1-6-4-2-3-5-7(6)11(8,9)10/h2-5H,1H3,(H2,8,9,10)
Instrument: Q Exactive Plus Orbitrap Thermo Scientific
Instrument type: LC-ESI-QFT
Ms type: MS2
Ion mode: POSITIVE
Ionization: ESI
Fragmentation mode: HCD
Collision energy: 180 (nominal)
Resolution: 35000
Column name: XBridge C18 3.5um, 2.1x50mm, Waters
Retention time: 4.6 min
Base peak: 189.0689
Precursor m/z: 172.0427
Precursor type: [M+H]+
m/z	relative intensity	assigned
50.0151	81	C4H2+
51.023	113	C4H3+
52.0183	1	C3H2N+
52.0308	1	C4H4+
53.0022	89	C3HO+
53.9975	22	C2NO+
54.0101	3	C3H2O+
61.0073	15	C5H+
62.0151	87	C5H2+
63.0229	237	C5H3+
64.0308	3	C5H4+
65.0386	999	C5H5+
66.0463	1	C5H6+
67.9893	14	C3O2+
74.015	4	C6H2+
75.0228	4	C6H3+
78.0086	4	C3N3+
79.0177	1	C5H3O+
89.0386	14	C7H5+
90.0463	1	C7H6+
91.0542	82	C7H7+
