Mass spectrum: Dioxabenzofos; LC-ESI-QFT; MS2; CE: 120%; R=17500; [M+H]+
Name: Dioxabenzofos
Name: 2-methoxy-2-sulfanylidene-4H-1,3,2lambda5-benzodioxaphosphinine
Formula: C8H9O3PS
Exact mass: 216.0010
SMILES: COP1(=S)OCC2=CC=CC=C2O1
InChI: InChI=1S/C8H9O3PS/c1-9-12(13)10-6-7-4-2-3-5-8(7)11-12/h2-5H,6H2,1H3
Instrument: Exploris 240 Orbitrap Thermo Scientific
Instrument type: LC-ESI-QFT
Ms type: MS2
Ion mode: POSITIVE
Ionization: ESI
Fragmentation mode: HCD
Collision energy: 120 % (nominal)
Resolution: 17500
Column name: XBridge C18 3.5um, 2.1x50mm, Waters
Retention time: 7.127 min
Base peak: 217.0083
Precursor m/z: 217.0083
Precursor type: [M+H]+
m/z	relative intensity	assigned
51.0229	146	C4H3+
53.0386	343	C4H5+
55.0177	16	C3H3O+
62.9452	80	PS+
64.9785	42	H2O2P+
77.0385	999	C6H5+
78.0463	18	C6H6+
79.0542	646	C6H7+
81.0333	19	C5H5O+
91.0543	29	C7H7+
94.0413	33	C6H6O+
95.0491	354	C6H7O+
107.0491	323	C7H7O+
109.0107	25	C6H5S+
110.9665	45	CH4O2PS+
121.0107	71	C7H5S+
128.9771	26	CH6O3PS+
154.9714	49	C6H4OPS+
