Mass spectrum: Doxycycline; LC-ESI-QFT; MS2; CE: 75; R=35000; [M-H]-
Name: Doxycycline
Name: 8-carbamoyl-10-(dimethylazaniumyl)-4,6a,7,11-tetrahydroxy-12-methyl-6,9-dioxo-10a,11,11a,12-tetrahydro-10H-tetracen-5-olate
Formula: C22H24N2O8
Exact mass: 444.15327
SMILES: CC1C2C(C3C(C(=O)C(=C(C3(C(=O)C2=C(C4=C1C=CC=C4O)O)O)O)C(=O)N)N(C)C)O
InChI: InChI=1S/C22H24N2O8/c1-7-8-5-4-6-9(25)11(8)16(26)12-10(7)17(27)14-15(24(2)3)18(28)13(21(23)31)20(30)22(14,32)19(12)29/h4-7,10,14-15,17,25-27,30,32H,1-3H3,(H2,23,31)
Instrument: Q Exactive Plus Orbitrap Thermo Scientific
Instrument type: LC-ESI-QFT
Ms type: MS2
Ion mode: NEGATIVE
Ionization: ESI
Fragmentation mode: HCD
Collision energy: 75 (nominal)
Resolution: 35000
Column name: XBridge C18 3.5um, 2.1x50mm, Waters
Retention time: 6.3 min
Base peak: 443.1457
Precursor m/z: 443.146
Precursor type: [M-H]-
m/z	relative intensity	assigned
55.0189	2	C3H3O-
57.0345	1	C3H5O-
59.0138	1	C2H3O2-
63.024	31	C5H3-
65.0033	11	C4HO-
65.0396	6	C5H5-
65.9985	30	C3NO-
67.019	7	C4H3O-
68.0142	2	C3H2NO-
68.9982	37	C3HO2-
69.0346	14	C4H5O-
71.0139	6	C3H3O2-
72.9933	1	C2HO3-
78.0349	2	C5H4N-
79.0189	10	C5H3O-
80.0268	6	C5H4O-
81.022	2	C4H3NO-
81.0346	8	C5H5O-
82.0299	1	C4H4NO-
83.0139	8	C4H3O2-
84.009	45	C3H2NO2-
85.0295	2	C4H5O2-
86.0247	1	C3H4NO2-
90.0349	1	C6H4N-
91.0189	12	C6H3O-
93.0345	13	C6H5O-
94.0296	1	C5H4NO-
95.0138	60	C5H3O2-
96.0091	16	C4H2NO2-
96.0454	2	C5H6NO-
96.9931	33	C4HO3-
97.0294	11	C5H5O2-
99.0089	5	C4H3O3-
100.0768	1	C5H10NO-
106.0298	2	C6H4NO-
107.0138	10	C6H3O2-
108.0217	28	C6H4O2-
109.0295	35	C6H5O2-
110.0248	1	C5H4NO2-
110.061	2	C6H8NO-
111.0088	6	C5H3O3-
117.0346	12	C8H5O-
118.0298	1	C7H4NO-
119.0139	15	C7H3O2-
119.0502	46	C8H7O-
120.0091	2	C6H2NO2-
120.0455	1	C7H6NO-
121.0295	7	C7H5O2-
121.0535	1	C7H7NO-
121.0658	20	C8H9O-
122.0248	7	C6H4NO2-
122.0611	1	C7H8NO-
123.0088	34	C6H3O3-
123.0324	4	C6H5NO2-
124.0165	17	C6H4O3-
124.0404	3	C6H6NO2-
124.9879	3	C5HO4-
125.0242	7	C6H5O3-
125.072	5	C6H9N2O-
126.0196	3	C5H4NO3-
126.056	22	C6H8NO2-
129.0712	2	C10H9-
130.0424	8	C9H6O-
133.0168	1	C7H3NO2-
133.0658	1	C9H9O-
134.0247	17	C7H4NO2-
135.0088	34	C7H3O3-
135.0452	3	C8H7O2-
136.0167	1	C7H4O3-
136.0403	1	C7H6NO2-
136.0767	2	C8H10NO-
137.0244	9	C7H5O3-
137.0482	4	C7H7NO2-
138.0196	10	C6H4NO3-
138.0562	2	C7H8NO2-
139.0149	40	C5H3N2O3-
141.0195	3	C6H5O4-
142.9986	13	C5H3O5-
143.0502	10	C10H7O-
144.0581	6	C10H8O-
145.0295	2	C9H5O2-
145.0659	2	C10H9O-
146.0246	1	C8H4NO2-
146.0377	5	C9H6O2-
147.0452	3	C9H7O2-
148.0039	2	C7H2NO3-
149.0118	6	C7H3NO3-
149.0243	2	C8H5O3-
149.048	1	C8H7NO2-
149.0607	3	C9H9O2-
149.9959	5	C7H2O4-
150.0196	29	C7H4NO3-
151.0037	6	C7H3O4-
151.0274	2	C7H5NO3-
152.0115	2	C7H4O4-
152.0354	6	C7H6NO3-
152.0716	1	C8H10NO2-
153.0194	2	C7H5O4-
154.0382	1	C6H6N2O3-
155.0501	1	C11H7O-
156.058	2	C11H8O-
157.0658	21	C11H9O-
158.0373	38	C10H6O2-
159.0451	26	C10H7O2-
159.0816	9	C11H11O-
161.0245	4	C9H5O3-
161.0607	1	C10H9O2-
162.0197	8	C8H4NO3-
163.0037	5	C8H3O4-
163.0274	2	C8H5NO3-
164.0117	3	C8H4O4-
164.0355	2	C8H6NO3-
166.0511	1	C8H8NO3-
167.0223	1	C7H5NO4-
167.051	1	C12H7O-
168.0666	3	C8H10NO3-
169.0256	1	C6H5N2O4-
169.0658	8	C12H9O-
171.0451	9	C11H7O2-
171.0816	4	C12H11O-
172.0531	36	C11H8O2-
173.0607	235	C11H9O2-
174.0323	3	C10H6O3-
175.0764	3	C11H11O2-
177.0307	6	C8H5N2O3-
178.0145	8	C8H4NO4-
180.0581	5	C13H8O-
181.0661	10	C13H9O-
182.0373	1	C12H6O2-
183.0451	10	C12H7O2-
183.0815	6	C13H11O-
184.0532	4	C12H8O2-
185.0608	37	C12H9O2-
186.0318	7	C11H6O3-
186.0686	9	C12H10O2-
187.04	50	C11H7O3-
187.0764	9	C12H11O2-
188.0479	2	C11H8O3-
193.0661	4	C14H9O-
194.0736	4	C14H10O-
195.0454	6	C13H7O2-
195.0818	7	C14H11O-
196.0529	47	C13H8O2-
197.0608	28	C13H9O2-
198.0321	3	C12H6O3-
198.0685	2	C13H10O2-
199.04	2	C12H7O3-
199.0765	15	C13H11O2-
201.0192	4	C11H5O4-
201.0557	11	C12H9O3-
203.0352	1	C11H7O4-
203.0715	15	C12H11O3-
204.0426	4	C11H8O4-
204.058	2	C15H8O-
206.0741	1	C15H10O-
207.045	1	C14H7O2-
207.0819	7	C15H11O-
208.0528	7	C14H8O2-
209.0608	34	C14H9O2-
210.0685	11	C14H10O2-
211.04	38	C13H7O3-
211.0764	17	C14H11O2-
212.0481	17	C13H8O3-
213.0556	9	C13H9O3-
213.092	9	C14H13O2-
214.0272	14	C12H6O4-
217.0504	3	C12H9O4-
220.0528	5	C15H8O2-
221.0611	10	C15H9O2-
222.0323	1	C14H6O3-
222.0687	13	C15H10O2-
223.0397	4	C14H7O3-
223.065	1	C14H9NO2-
223.0764	18	C15H11O2-
224.0479	38	C14H8O3-
225.0557	25	C14H9O3-
225.0921	7	C15H13O2-
226.064	4	C14H10O3-
226.0871	4	C14H12NO2-
227.0713	17	C14H11O3-
229.0506	2	C13H9O4-
229.0872	1	C14H13O3-
232.0529	7	C16H8O2-
233.0608	14	C16H9O2-
234.0683	3	C16H10O2-
235.0399	7	C15H7O3-
235.0764	7	C16H11O2-
236.0483	6	C15H8O3-
236.0727	1	C15H10NO2-
236.0846	2	C16H12O2-
237.0558	21	C15H9O3-
237.0926	4	C16H13O2-
238.0635	16	C15H10O3-
238.0873	2	C15H12NO2-
239.0351	68	C14H7O4-
239.0713	12	C15H11O3-
240.0429	999	C14H8O4-
241.0507	7	C14H9O4-
241.0869	7	C15H13O3-
246.0684	1	C17H10O2-
247.0637	3	C16H9NO2-
247.0766	6	C17H11O2-
248.048	10	C16H8O3-
248.071	4	C16H10NO2-
249.0556	18	C16H9O3-
250.0514	1	C15H8NO3-
250.0631	7	C16H10O3-
250.087	1	C16H12NO2-
251.0345	1	C15H7O4-
251.0712	13	C16H11O3-
252.0432	3	C15H8O4-
252.0668	2	C15H10NO3-
252.1031	3	C16H14NO2-
253.0508	11	C15H9O4-
253.087	1	C16H13O3-
254.0585	13	C15H10O4-
254.083	1	C15H12NO3-
255.0663	34	C15H11O4-
261.0556	11	C17H9O3-
262.0644	2	C17H10O3-
262.087	3	C17H12NO2-
263.0713	7	C17H11O3-
264.0427	6	C16H8O4-
264.0665	2	C16H10NO3-
265.0505	5	C16H9O4-
265.0742	2	C16H11NO3-
265.0874	3	C17H13O3-
266.0583	2	C16H10O4-
266.0821	3	C16H12NO3-
267.0659	4	C16H11O4-
269.0819	1	C16H13O4-
275.0583	1	C17H9NO3-
275.0717	2	C18H11O3-
276.0425	4	C17H8O4-
276.0664	1	C17H10NO3-
277.0505	11	C17H9O4-
278.058	2	C17H10O4-
279.0667	3	C17H11O4-
280.0382	3	C16H8O5-
280.0983	3	C17H14NO3-
281.0822	1	C17H13O4-
290.0221	14	C17H6O5-
290.0821	3	C18H12NO3-
291.0527	1	C17H9NO4-
291.0669	1	C18H11O4-
293.046	2	C17H9O5-
293.1057	1	C18H15NO3-
