Mass spectrum: Flurtamone; LC-ESI-QFT; MS2; CE: 120; R=35000; [M-H]-
Name: Flurtamone
Name: 5-(methylamino)-2-phenyl-4-[3-(trifluoromethyl)phenyl]furan-3-one
Formula: C18H14F3NO2
Exact mass: 333.09766
SMILES: CNC1=C(C(=O)C(O1)C2=CC=CC=C2)C3=CC(=CC=C3)C(F)(F)F
InChI: InChI=1S/C18H14F3NO2/c1-22-17-14(12-8-5-9-13(10-12)18(19,20)21)15(23)16(24-17)11-6-3-2-4-7-11/h2-10,16,22H,1H3
Instrument: Q Exactive Plus Orbitrap Thermo Scientific
Instrument type: LC-ESI-QFT
Ms type: MS2
Ion mode: NEGATIVE
Ionization: ESI
Fragmentation mode: HCD
Collision energy: 120 (nominal)
Resolution: 35000
Column name: XBridge C18 3.5um, 2.1x50mm, Waters
Retention time: 10.1 min
Base peak: 332.0898
Precursor m/z: 332.0904
Precursor type: [M-H]-
m/z	relative intensity	assigned
50.0035	136	C3N-
65.9985	5	C3NO-
68.9957	39	CF3-
70.9939	19	C3FO-
73.0085	26	C6H-
74.0036	9	C5N-
75.024	4	C6H3-
85.0084	9	C7H-
94.9937	4	C5FO-
96.0002	6	C8-
97.0083	999	C8H-
99.0114	6	C7HN-
99.0241	59	C8H3-
101.0396	158	C8H5-
105.0144	6	C7H2F-
109.0083	69	C9H-
109.9972	4	C6F2-
111.0113	8	C8HN-
114.0349	15	C8H4N-
117.0146	350	C8H2F-
122.0036	142	C9N-
123.0115	27	C9HN-
129.0146	128	C9H2F-
131.0377	4	C8H5NO-
135.0051	5	C8HF2-
136.013	125	C8H2F2-
137.0208	80	C8H3F2-
138.035	4	C10H4N-
142.0098	123	C9HFN-
143.0176	65	C9H2FN-
145.0095	500	C9H2FO-
145.0269	31	C7H4F3-
149.0208	106	C9H3F2-
156.0193	376	C8H3F3-
161.0218	9	C7H4F3O-
162.0161	166	C9H2F2N-
163.0244	27	C9H3F2N-
165.0157	418	C9H3F2O-
169.027	160	C9H4F3-
180.0267	17	C9H4F2NO-
182.0222	392	C9H3F3N-
183.0302	69	C9H4F3N-
184.038	4	C9H5F3N-
185.0219	615	C9H4F3O-
189.0161	5	C8H4F3O2-
