Mass spectrum: Timolol; LC-ESI-QFT; MS2; CE: 60; R=35000; [M+H]+
Name: Timolol
Name: 1-(tert-butylamino)-3-[(4-morpholin-4-yl-1,2,5-thiadiazol-3-yl)oxy]propan-2-ol
Formula: C13H24N4O3S
Exact mass: 316.15691
SMILES: CC(C)(C)NCC(O)COC1=NSN=C1N1CCOCC1
InChI: InChI=1S/C13H24N4O3S/c1-13(2,3)14-8-10(18)9-20-12-11(15-21-16-12)17-4-6-19-7-5-17/h10,14,18H,4-9H2,1-3H3
Instrument: Q Exactive Plus Orbitrap Thermo Scientific
Instrument type: LC-ESI-QFT
Ms type: MS2
Ion mode: POSITIVE
Ionization: ESI
Fragmentation mode: HCD
Collision energy: 60 (nominal)
Resolution: 35000
Column name: XBridge C18 3.5um, 2.1x50mm, Waters
Retention time: 4.9 min
Base peak: 317.164
Precursor m/z: 317.1642
Precursor type: [M+H]+
m/z	relative intensity	assigned
53.0022	2	C3HO+
56.0495	287	C3H6N+
57.0699	212	C4H9+
58.0652	3	C3H8N+
59.9902	6	CH2NS+
62.0059	5	CH4NS+
69.0447	5	C3H5N2+
71.9902	2	C2H2NS+
74.06	999	C3H8NO+
76.0216	1	C2H6NS+
85.0523	2	C4H7NO+
86.0059	2	C3H4NS+
86.06	43	C4H8NO+
88.0757	2	C4H10NO+
99.0012	2	C3H3N2S+
100.0757	1	C5H10NO+
101.0168	5	C3H5N2S+
104.0164	8	C3H6NOS+
111.0554	1	C5H7N2O+
113.0709	185	C5H9N2O+
114.9962	1	C3H3N2OS+
118.0321	7	C4H8NOS+
126.9959	4	C4H3N2OS+
127.0326	1	C5H7N2S+
127.0502	1	C5H7N2O2+
127.9914	3	C3H2N3OS+
128.0278	1	C4H6N3S+
130.007	1	C3H4N3OS+
130.1227	3	C7H16NO+
132.0114	5	C4H6NO2S+
144.0227	227	C4H6N3OS+
145.0067	7	C4H5N2O2S+
145.0431	70	C5H9N2OS+
154.0613	1	C6H8N3O2+
158.0383	2	C5H8N3OS+
158.0923	4	C6H12N3O2+
159.0223	25	C5H7N2O2S+
167.0689	5	C7H9N3O2+
170.0384	13	C6H8N3OS+
172.0539	29	C6H10N3OS+
180.0767	1	C8H10N3O2+
185.0257	1	C6H7N3O2S+
186.0332	2	C6H8N3O2S+
188.0489	408	C6H10N3O2S+
200.0489	19	C7H10N3O2S+
243.0915	2	C9H15N4O2S+
244.0752	153	C9H14N3O3S+
261.1017	4	C9H17N4O3S+
