Mass spectrum: Metribuzin-diketo; LC-ESI-ITFT; MS2; CE: 60%; R=15000; [M+H]+
Name: Metribuzin-diketo
Name: 4-amino-6-tert-butyl-2H-1,2,4-triazine-3,5-dione
Formula: C7H12N4O2
Exact mass: 184.0960
SMILES: O=C(NN=C1C(C)(C)C)N(N)C1=O
InChI: InChI=1S/C7H12N4O2/c1-7(2,3)4-5(12)11(8)6(13)10-9-4/h8H2,1-3H3,(H,10,13)
Instrument: LTQ Orbitrap XL Thermo Scientific
Instrument type: LC-ESI-ITFT
Ms type: MS2
Ion mode: POSITIVE
Ionization: ESI
Fragmentation mode: HCD
Collision energy: 60 % (nominal)
Resolution: 15000
Column name: XBridge C18 3.5um, 2.1x50mm, Waters
Retention time: 5.9 min
Base peak: 185.1036
Precursor m/z: 185.1033
Precursor type: [M+H]+
m/z	relative intensity	assigned
57.0698	149	C4H9+
58.0651	2	C3H8N+
65.0386	4	C5H5+
67.0542	31	C5H7+
68.0495	12	C4H6N+
69.0083	31	C2HN2O+
69.0699	125	C5H9+
70.0287	9	C3H4NO+
70.0651	5	C4H8N+
74.0349	6	CH4N3O+
82.0651	23	C5H8N+
83.024	10	C3H3N2O+
83.0601	2	C4H7N2+
83.0729	11	C5H9N+
84.0445	3	C4H6NO+
84.0807	42	C5H10N+
85.0885	3	C5H11N+
95.0606	3	C5H7N2+
96.0443	28	C5H6NO+
97.076	13	C5H9N2+
99.0916	5	C5H11N2+
100.0506	9	C3H6N3O+
101.0345	49	C3H5N2O2+
101.0458	9	C2H5N4O+
110.06	85	C6H8NO+
111.0678	145	C6H9NO+
112.0141	40	C3H2N3O2+
114.0423	13	C4H6N2O2+
124.0505	3	C5H6N3O+
125.0708	29	C6H9N2O+
126.0661	4	C5H8N3O+
127.0868	4	C6H11N2O+
140.0818	5	C6H10N3O+
141.0657	101	C6H9N2O2+
141.0895	11	C6H11N3O+
142.0739	4	C6H10N2O2+
143.0814	6	C6H11N2O2+
154.0608	5	C6H8N3O2+
156.0892	70	C7H12N2O2+
157.1083	784	C6H13N4O+
169.0719	55	C6H9N4O2+
185.1032	999	C7H13N4O2+
