Mass spectrum: N-methylperfluorooctane sulfonamidoacetic acid; LC-ESI-ITFT; MS2; CE: 30%; R=7500; [M-H]-
Name: N-methylperfluorooctane sulfonamidoacetic acid
Name: N-[(Heptadecafluorooctyl)sulfonyl]-N-methylglycine
Formula: C11H6F17NO4S
Exact mass: 570.9746
SMILES: FC(F)(C(F)(F)C(F)(F)C(F)(F)C(F)(F)C(F)(F)C(F)(F)C(F)(F)F)S(=O)(=O)N(C)CC(O)=O
InChI: InChI=1S/C11H6F17NO4S/c1-29(2-3(30)31)34(32,33)11(27,28)9(22,23)7(18,19)5(14,15)4(12,13)6(16,17)8(20,21)10(24,25)26/h2H2,1H3,(H,30,31)
Instrument: LTQ Orbitrap XL Thermo Scientific
Instrument type: LC-ESI-ITFT
Ms type: MS2
Ion mode: NEGATIVE
Ionization: ESI
Fragmentation mode: HCD
Collision energy: 30 % (nominal)
Resolution: 7500
Column name: XBridge C18 3.5um, 2.1x50mm, Waters
Retention time: 16.5 min
Base peak: 569.9676
Precursor m/z: 569.9673
Precursor type: [M-H]-
m/z	relative intensity	assigned
168.9892	655	C3F7-
218.9862	999	C4F9-
