Mass spectrum: Ethiprole; LC-ESI-QFT; MS2; CE: 60%; R=17500; [M-H]-
Name: Ethiprole
Name: 5-amino-1-[2,6-dichloro-4-(trifluoromethyl)phenyl]-4-ethylsulfinylpyrazole-3-carbonitrile
Formula: C13H9Cl2F3N4OS
Exact mass: 395.9826
SMILES: CCS(=O)C1=C(N(N=C1C#N)C2=C(C=C(C=C2Cl)C(F)(F)F)Cl)N
InChI: InChI=1S/C13H9Cl2F3N4OS/c1-2-24(23)11-9(5-19)21-22(12(11)20)10-7(14)3-6(4-8(10)15)13(16,17)18/h3-4H,2,20H2,1H3
Instrument: Exploris 240 Orbitrap Thermo Scientific
Instrument type: LC-ESI-QFT
Ms type: MS2
Ion mode: NEGATIVE
Ionization: ESI
Fragmentation mode: HCD
Collision energy: 60 % (nominal)
Resolution: 17500
Column name: XBridge C18 3.5um, 2.1x50mm, Waters
Retention time: 8.805 min
Base peak: 394.9752
Precursor m/z: 394.9753
Precursor type: [M-H]-
m/z	relative intensity	assigned
50.0037	14	C3N-
57.9758	157	CNS-
76.0064	9	C4N2-
77.0145	27	C4HN2-
113.0145	34	C7HN2-
143.0056	8	C2H8ClN2OS-
163.0115	81	C8HF2N2-
170.0097	78	C7HF3N2-
182.0098	205	C8HF3N2-
183.0176	999	C8H2F3N2-
212.9497	26	C7HCl2N3O-
216.9789	21	C8HClF3N2-
217.9863	340	C8H2ClF3N2-
218.009	19	C11HF3N2-
218.9942	32	C8H3ClF3N2-
233.9801	29	C11HClF2N2-
243.9895	220	C9H2ClF3N3-
246.9898	48	C9H3ClF3N2O-
249.9585	744	C8H2ClF3N2S-
253.987	37	C11H2ClF3N2-
261.9585	591	C9H2ClF3N2S-
267.9897	189	C11H2ClF3N3-
277.9534	329	C9H2ClF3N2OS-
281.992	115	C11H2ClF3N4-
287.9621	34	C10H2ClF3N3S-
303.9563	17	C10H2ClF3N3OS-
