Mass spectrum: Fluazifop; LC-ESI-ITFT; MS2; CE: 75%; R=15000; [M+H]+
Name: Fluazifop
Name: 2-[4-[5-(trifluoromethyl)pyridin-2-yl]oxyphenoxy]propanoic acid
Formula: C15H12F3NO4
Exact mass: 327.0724
SMILES: CC(C(=O)O)OC1=CC=C(C=C1)OC2=NC=C(C=C2)C(F)(F)F
InChI: InChI=1S/C15H12F3NO4/c1-9(14(20)21)22-11-3-5-12(6-4-11)23-13-7-2-10(8-19-13)15(16,17)18/h2-9H,1H3,(H,20,21)
Instrument: LTQ Orbitrap XL Thermo Scientific
Instrument type: LC-ESI-ITFT
Ms type: MS2
Ion mode: POSITIVE
Ionization: ESI
Fragmentation mode: HCD
Collision energy: 75 % (nominal)
Resolution: 15000
Column name: XBridge C18 3.5um, 2.1x50mm, Waters
Retention time: 10.9 min
Base peak: 328.0794
Precursor m/z: 328.0791
Precursor type: [M+H]+
m/z	relative intensity	assigned
64.0308	17	C5H4+
65.0386	377	C5H5+
75.0231	14	C6H3+
77.0384	11	C6H5+
81.0336	12	C5H5O+
91.0543	767	C7H7+
92.0257	62	C6H4O+
93.0335	59	C6H5O+
94.0414	32	C6H6O+
109.0287	16	C6H5O2+
110.0362	14	C6H6O2+
111.0439	28	C6H7O2+
119.0492	42	C8H7O+
121.0284	22	C7H5O2+
121.0396	27	C6H5N2O+
121.0645	15	C8H9O+
131.0491	50	C9H7O+
141.0573	137	C10H7N+
142.0419	8	C7H7FO2+
144.026	11	C6H4F2NO+
146.0212	71	C6H3F3N+
147.029	163	C6H4F3N+
152.0439	11	C9H6F2+
158.0601	113	C10H8NO+
163.024	60	C6H4F3NO+
164.0318	361	C6H5F3NO+
167.0725	15	C12H9N+
168.0446	20	C11H6NO+
169.0524	31	C11H7NO+
179.0189	310	C6H4F3NO2+
180.0381	28	C10H6F2O+
185.0453	14	C9H6F3N+
188.0507	34	C11H7FNO+
190.0462	74	C11H6F2N+
191.041	14	C10H5F2N2+
198.0524	110	C10H7F3N+
199.0596	14	C10H8F3N+
207.0493	30	C11H7F2NO+
208.0564	26	C11H8F2NO+
209.0448	22	C11H6F3N+
210.0523	59	C11H7F3N+
211.0607	35	C11H8F3N+
218.0412	162	C12H6F2NO+
226.0473	58	C11H7F3NO+
227.0552	693	C11H8F3NO+
236.068	18	C13H9F3N+
238.0474	999	C12H7F3NO+
254.0423	767	C12H7F3NO2+
256.0578	139	C12H9F3NO2+
