Mass spectrum: 5-Hydroxy Diclofenac; LC-ESI-QFT; MS2; CE: 180; R=35000; [M+H]+
Name: 5-Hydroxy Diclofenac
Name: 5-hydroxydiclofenac
Name: 2-[2-(2,6-dichloroanilino)-5-hydroxyphenyl]acetic acid
Formula: C14H11Cl2NO3
Exact mass: 311.01160
SMILES: C1=CC(=C(C(=C1)Cl)NC2=C(C=C(C=C2)O)CC(=O)O)Cl
InChI: InChI=1S/C14H11Cl2NO3/c15-10-2-1-3-11(16)14(10)17-12-5-4-9(18)6-8(12)7-13(19)20/h1-6,17-18H,7H2,(H,19,20)
Instrument: Q Exactive Plus Orbitrap Thermo Scientific
Instrument type: LC-ESI-QFT
Ms type: MS2
Ion mode: POSITIVE
Ionization: ESI
Fragmentation mode: HCD
Collision energy: 180 (nominal)
Resolution: 35000
Column name: XBridge C18 3.5um, 2.1x50mm, Waters
Retention time: 10.3 min
Base peak: 312.0187
Precursor m/z: 312.0189
Precursor type: [M+H]+
m/z	relative intensity	assigned
50.0151	14	C4H2+
51.0229	9	C4H3+
52.0181	1	C3H2N+
53.0022	7	C3HO+
53.0386	8	C4H5+
55.0178	4	C3H3O+
61.0073	13	C5H+
62.0151	38	C5H2+
63.0229	199	C5H3+
64.0181	10	C4H2N+
65.0386	81	C5H5+
66.0464	5	C5H6+
72.9839	44	C3H2Cl+
74.0151	30	C6H2+
75.0229	61	C6H3+
76.0307	13	C6H4+
77.0022	2	C5HO+
77.0386	17	C6H5+
78.0464	5	C6H6+
79.0543	1	C6H7+
81.0335	6	C5H5O+
82.945	17	CHCl2+
86.0151	17	C7H2+
87.023	85	C7H3+
88.0182	26	C6H2N+
88.0307	33	C7H4+
89.0386	256	C7H5+
90.0339	19	C6H4N+
90.0465	21	C7H6+
91.0543	19	C7H7+
94.0413	1	C6H6O+
95.0492	31	C6H7O+
96.9841	6	C5H2Cl+
98.0151	19	C8H2+
99.0229	41	C8H3+
100.0182	14	C7H2N+
100.0307	8	C8H4+
101.0386	8	C8H5+
102.0464	22	C8H6+
104.0493	1	C7H6N+
105.0448	16	C6H5N2+
106.945	6	C3HCl2+
108.9842	1	C6H2Cl+
112.0182	3	C8H2N+
112.0308	5	C9H4+
113.0386	398	C9H5+
114.0339	63	C8H4N+
114.0464	38	C9H6+
115.0543	204	C9H7+
116.0495	40	C8H6N+
117.0572	10	C8H7N+
118.0412	6	C8H6O+
119.0492	6	C8H7O+
120.0443	5	C7H6NO+
122.0151	7	C10H2+
123.0229	28	C10H3+
124.0183	5	C9H2N+
125.0027	1	C6H4ClN+
125.0386	12	C10H5+
126.0337	2	C9H4N+
126.0465	31	C10H6+
127.0417	18	C9H5N+
127.0541	8	C10H7+
128.0494	32	C9H6N+
128.0621	4	C10H8+
129.0447	19	C8H5N2+
129.0573	2	C9H7N+
130.04	3	C7H4N3+
131.0494	1	C9H7O+
132.0445	5	C8H6NO+
132.057	17	C9H8O+
132.9606	1	C5H3Cl2+
134.0601	1	C8H8NO+
137.0387	88	C11H5+
138.0341	14	
138.0464	74	C11H6+
139.0543	999	C11H7+
140.0495	739	C10H6N+
141.0334	1	C10H5O+
141.0574	11	C10H7N+
141.0698	3	C11H9+
143.0364	1	C9H5NO+
143.0491	3	C10H7O+
144.0444	3	C9H6NO+
145.0649	4	C10H9O+
146.0598	6	C9H8NO+
149.0386	21	C12H5+
150.0465	86	C12H6+
151.0417	12	C11H5N+
151.0541	3	C12H7+
152.0495	4	C11H6N+
152.0618	4	C12H8+
153.0574	3	C11H7N+
154.0403	1	C9H4N3+
154.0653	6	C11H8N+
155.0605	9	C10H7N2+
156.057	11	C11H8O+
157.0522	9	C10H7NO+
158.0602	2	C10H8NO+
162.0108	1	C9H5ClN+
164.0495	411	C12H6N+
165.0574	70	C12H7N+
166.0652	452	C12H8N+
167.073	137	C12H9N+
168.0443	6	C11H6NO+
168.057	2	C12H8O+
169.0529	2	C11H7NO+
169.0648	18	C12H9O+
170.0362	9	C11H6O2+
170.0602	3	C11H8NO+
173.015	1	C11H6Cl+
175.0417	42	C13H5N+
176.0495	7	C13H6N+
177.0445	2	C12H5N2+
177.0573	45	C13H7N+
178.0652	10	C13H8N+
179.0606	5	C12H7N2+
183.0679	6	C12H9NO+
184.0754	4	C12H10NO+
185.0597	4	C12H9O2+
193.0523	24	C13H7NO+
194.0602	18	C13H8NO+
195.0681	7	C13H9NO+
198.0913	1	C13H12NO+
200.0261	1	C12H7ClN+
201.034	8	C12H8ClN+
204.0556	7	C13H6N3+
