Mass spectrum: Reserpine; LC-ESI-ITFT; MS2; CE: 75%; R=7500; [M+H]+
Name: Reserpine
Name: (1S,2R,3R,4aS,13bR,14aS)-2,11-dimethoxy-3-(3,4,5-trimethoxybenzoyl)oxy-1,2,3,4,4a,5,7,8,13,13b,14,14a-dodecahydroisoquinolino[3,2-a]$b-carboline-1-carboxylic acid methyl ester
Formula: C33H40N2O9
Exact mass: 608.2734
SMILES: CO[C@H]1[C@@H](C[C@@H]2CN3CCC4=C([C@H]3C[C@@H]2[C@@H]1C(=O)OC)NC5=C4C=CC(=C5)OC)OC(=O)C6=CC(=C(C(=C6)OC)OC)OC
InChI: InChI=1S/C33H40N2O9/c1-38-19-7-8-20-21-9-10-35-16-18-13-27(44-32(36)17-11-25(39-2)30(41-4)26(12-17)40-3)31(42-5)28(33(37)43-6)22(18)15-24(35)29(21)34-23(20)14-19/h7-8,11-12,14,18,22,24,27-28,31,34H,9-10,13,15-16H2,1-6H3/t18-,22+,24-,27-,28+,31+/m1/s1
Instrument: LTQ Orbitrap XL Thermo Scientific
Instrument type: LC-ESI-ITFT
Ms type: MS2
Ion mode: POSITIVE
Ionization: ESI
Fragmentation mode: HCD
Collision energy: 75 % (nominal)
Resolution: 7500
Column name: XBridge C18 3.5um, 2.1x50mm, Waters
Retention time: 8.3 min
Base peak: 609.2812
Precursor m/z: 609.2807
Precursor type: [M+H]+
m/z	relative intensity	assigned
53.0385	31	C4H5+
65.0385	20	C5H5+
66.0464	15	C5H6+
67.0544	20	C5H7+
71.0493	7	C4H7O+
77.0386	81	C6H5+
78.0464	8	C6H6+
79.0542	93	C6H7+
80.0493	10	C5H6N+
81.0335	115	C5H5O+
81.0699	39	C6H9+
91.0542	90	C7H7+
92.026	12	C6H4O+
93.0571	12	C6H7N+
93.0698	7	C7H9+
94.0412	28	C6H6O+
94.0651	35	C6H8N+
95.049	41	C6H7O+
96.0569	72	C6H8O+
97.065	10	C6H9O+
99.044	6	C5H7O2+
103.0544	17	C8H7+
105.0334	12	C7H5O+
105.0447	36	C6H5N2+
105.07	24	C8H9+
106.0413	14	C7H6O+
106.0651	22	C7H8N+
107.0494	24	C7H7O+
108.057	54	C7H8O+
108.0806	8	C7H10N+
109.0284	37	C6H5O2+
109.0648	112	C7H9O+
111.0438	17	C6H7O2+
111.0804	30	C7H11O+
113.0598	23	C6H9O2+
115.0542	67	C9H7+
116.0618	18	C9H8+
117.0572	30	C8H7N+
117.0699	32	C9H9+
118.065	33	C8H8N+
120.081	18	C8H10N+
121.0283	30	C7H5O2+
121.0649	36	C8H9O+
122.0362	130	C7H6O2+
123.0444	8	C7H7O2+
123.0806	5	C8H11O+
124.0519	114	C7H8O2+
129.07	23	C10H9+
130.0651	139	C9H8N+
131.073	456	C9H9N+
132.0447	11	C8H6NO+
132.0563	15	C9H8O+
132.081	51	C9H10N+
133.0642	12	C9H9O+
134.0362	21	C8H6O2+
134.06	8	C8H8NO+
135.044	8	C8H7O2+
136.0755	12	C8H10NO+
137.0233	95	C7H5O3+
139.0753	234	C8H11O2+
142.0651	54	C10H8N+
143.0729	340	C10H9N+
144.0572	19	C10H8O+
144.0807	83	C10H10N+
145.0523	22	C9H7NO+
145.0647	8	C10H9O+
145.0885	22	C10H11N+
146.06	55	C9H8NO+
147.0681	35	C9H9NO+
147.0804	55	C10H11O+
148.0755	37	C9H10NO+
149.0603	13	C9H9O2+
150.0908	8	C9H12NO+
151.0393	68	C8H7O3+
152.0467	425	C8H8O3+
154.0651	12	C11H8N+
155.0606	15	C10H7N2+
156.0417	7	C7H8O4+
156.0812	20	C11H10N+
157.0882	13	C11H11N+
158.06	53	C10H8NO+
159.0678	685	C10H9NO+
160.0757	126	C10H10NO+
161.0835	43	C10H11NO+
162.0909	18	C10H12NO+
167.0704	46	C9H11O3+
168.0809	12	C12H10N+
169.0879	12	C12H11N+
170.0598	43	C11H8NO+
171.0677	14	C11H9NO+
172.0755	58	C11H10NO+
173.0834	107	C11H11NO+
174.0913	999	C11H12NO+
176.1076	6	C11H14NO+
180.0801	12	C13H10N+
181.0883	16	C13H11N+
182.0597	13	C12H8NO+
182.0971	8	C13H12N+
183.0681	13	C12H9NO+
184.0755	51	C12H10NO+
185.0833	43	C12H11NO+
186.0913	55	C12H12NO+
187.0996	21	C12H13NO+
188.0691	6	C9H8N4O+
188.1061	22	C12H14NO+
192.0801	12	C14H10N+
192.102	10	C11H14NO2+
193.0882	15	C14H11N+
194.0965	10	C14H12N+
195.0652	388	C10H11O4+
196.0761	25	C13H10NO+
197.0829	21	C13H11NO+
198.0909	48	C13H12NO+
199.0876	44	C12H11N2O+
201.1019	10	C12H13N2O+
204.0804	10	C15H10N+
204.1016	8	C12H14NO2+
205.089	18	C15H11N+
206.0963	10	C15H12N+
207.1018	9	C12H15O3+
208.076	16	C14H10NO+
209.083	12	C14H11NO+
210.0909	37	C14H12NO+
211.0973	21	C11H15O4+
217.0877	11	C16H11N+
218.0958	17	C16H12N+
219.1043	9	C16H13N+
221.083	16	C15H11NO+
222.0914	35	C15H12NO+
222.1133	6	C12H16NO3+
223.0981	29	C15H13NO+
224.1067	52	C15H14NO+
227.1173	14	C14H15N2O+
230.0968	14	C17H12N+
231.1042	17	C17H13N+
232.1091	7	C14H16O3+
233.084	12	C16H11NO+
234.0911	29	C16H12NO+
235.0976	13	C13H15O4+
236.1038	30	C13H16O4+
237.103	22	C15H13N2O+
239.1182	22	C15H15N2O+
245.0826	7	C17H11NO+
245.1211	7	C18H15N+
246.0907	32	C17H12NO+
247.0993	22	C17H13NO+
248.1069	36	C17H14NO+
249.1031	21	C16H13N2O+
250.1101	22	C16H14N2O+
251.1179	75	C16H15N2O+
258.0916	11	C18H12NO+
260.107	32	C18H14NO+
261.1145	27	C18H15NO+
262.1225	45	C18H16NO+
264.1009	12	C17H14NO2+
265.1332	24	C17H17N2O+
272.1097	7	C9H20O9+
273.115	9	C19H15NO+
274.0866	9	C18H12NO2+
274.1231	16	C19H16NO+
275.1147	6	C15H17NO4+
276.1393	15	C19H18NO+
277.1312	9	C15H19NO4+
289.1347	10	C19H17N2O+
291.1464	10	C16H21NO4+
448.2074	11	C24H32O8+
