Mass spectrum: N4-Acetylsulfadiazine; LC-ESI-ITFT; MS2; CE: 60%; R=15000; [M+H]+
Name: N4-Acetylsulfadiazine
Name: N-[4-(2-pyrimidinylsulfamoyl)phenyl]acetamide
Formula: C12H12N4O3S
Exact mass: 292.0630
SMILES: c1nc(NS(c2ccc(cc2)NC(C)=O)(=O)=O)ncc1
InChI: InChI=1S/C12H12N4O3S/c1-9(17)15-10-3-5-11(6-4-10)20(18,19)16-12-13-7-2-8-14-12/h2-8H,1H3,(H,15,17)(H,13,14,16)
Instrument: LTQ Orbitrap XL Thermo Scientific
Instrument type: LC-ESI-ITFT
Ms type: MS2
Ion mode: POSITIVE
Ionization: ESI
Fragmentation mode: HCD
Collision energy: 60 % (nominal)
Resolution: 15000
Column name: XBridge C18 3.5um, 2.1x50mm, Waters
Retention time: 3.6 min
Base peak: 293.0713
Precursor m/z: 293.0703
Precursor type: [M+H]+
m/z	relative intensity	assigned
65.0386	346	C5H5+
92.0494	60	C6H6N+
93.0335	80	C6H5O+
93.0572	20	C6H7N+
94.0651	50	C6H8N+
96.0557	226	C4H6N3+
106.0655	25	C7H8N+
108.0444	374	C6H6NO+
134.06	999	C8H8NO+
136.076	42	C8H10NO+
156.0114	37	C6H6NO2S+
158.0022	37	C4H4N3O2S+
162.0663	40	C8H8N3O+
185.0823	80	C10H9N4+
198.0219	35	C8H8NO3S+
227.0924	47	C12H11N4O+
