Mass spectrum: Famoxadone; LC-ESI-QFT; MS2; CE: 90; R=35000; [M+H]+
Name: Famoxadone
Name: 3-anilino-5-methyl-5-(4-phenoxyphenyl)-1,3-oxazolidine-2,4-dione
Formula: C22H18N2O4
Exact mass: 374.12666
SMILES: O=C2OC(C(=O)N2Nc1ccccc1)(c4ccc(Oc3ccccc3)cc4)C
InChI: InChI=1S/C22H18N2O4/c1-22(16-12-14-19(15-13-16)27-18-10-6-3-7-11-18)20(25)24(21(26)28-22)23-17-8-4-2-5-9-17/h2-15,23H,1H3
Instrument: Q Exactive Orbitrap Thermo Scientific
Instrument type: LC-ESI-QFT
Ms type: MS2
Ion mode: POSITIVE
Ionization: ESI
Fragmentation mode: HCD
Collision energy: 90 (nominal)
Resolution: 35000
Column name: XBridge C18 3.5um, 2.1x50mm, Waters
Retention time: 13.5 min
Base peak: 331.144
Precursor m/z: 375.1339
Precursor type: [M+H]+
m/z	relative intensity	assigned
65.0386	999	C5H5+
66.0464	30	C5H6+
72.0443	20	C3H6NO+
77.0385	19	C6H5+
79.0541	23	C6H7+
80.0495	20	C5H6N+
89.0385	121	C7H5+
91.0542	120	C7H7+
92.0494	631	C6H6N+
93.0572	886	C6H7N+
95.0491	292	C6H7O+
102.0464	148	C8H6+
105.0447	38	C6H5N2+
107.0604	132	C6H7N2+
111.0439	35	C6H7O2+
117.0333	24	C8H5O+
117.0571	34	C8H7N+
119.0489	67	C8H7O+
128.0493	81	C9H6N+
141.0697	21	C11H9+
146.0603	69	C9H8NO+
152.062	193	C12H8+
165.0699	149	C13H9+
166.0778	24	C13H10+
167.0731	37	C12H9N+
167.0858	27	C13H11+
192.0803	23	C14H10N+
193.0885	63	C14H11N+
195.081	40	C14H11O+
