Mass spectrum: Tilidine; LC-ESI-QFT; MS2; CE: 90; R=35000; [M+H]+
Name: Tilidine
Name: ethyl (2R)-2-(dimethylamino)-1-phenylcyclohex-3-ene-1-carboxylate
Formula: C17H23NO2
Exact mass: 273.17288
SMILES: O=C(OCC)C2(c1ccccc1)[C@@H](\C=C/CC2)N(C)C
InChI: InChI=1S/C17H23NO2/c1-4-20-16(19)17(14-10-6-5-7-11-14)13-9-8-12-15(17)18(2)3/h5-8,10-12,15H,4,9,13H2,1-3H3/t15-,17?/m1/s1
Instrument: Q Exactive Orbitrap Thermo Scientific
Instrument type: LC-ESI-QFT
Ms type: MS2
Ion mode: POSITIVE
Ionization: ESI
Fragmentation mode: HCD
Collision energy: 90 (nominal)
Resolution: 35000
Column name: XBridge C18 3.5um, 2.1x50mm, Waters
Retention time: 5.2 min
Base peak: 274.1803
Precursor m/z: 274.1802
Precursor type: [M+H]+
m/z	relative intensity	assigned
50.0153	14	C4H2+
51.023	11	C4H3+
53.0387	17	C4H5+
55.0178	1	C3H3O+
63.023	2	C5H3+
65.0386	51	C5H5+
67.0542	31	C5H7+
76.0305	1	C6H4+
77.0386	236	C6H5+
78.0464	18	C6H6+
79.0542	196	C6H7+
81.0335	21	C5H5O+
81.07	1	C6H9+
83.0492	44	C5H7O+
91.0542	858	C7H7+
93.0698	2	C7H9+
95.0491	664	C6H7O+
97.0282	3	C5H5O2+
98.0965	1	C6H12N+
103.0542	64	C8H7+
104.0621	19	C8H8+
105.0335	56	C7H5O+
105.0447	296	C6H5N2+
107.0494	12	C7H7O+
115.0542	387	C9H7+
116.062	11	C9H8+
117.0698	44	C9H9+
119.0855	46	C9H11+
126.0459	2	C10H6+
127.0542	38	C10H7+
128.062	356	C10H8+
129.0698	459	C10H9+
131.0493	2	C9H7O+
135.0442	1	C8H7O2+
141.0698	107	C11H9+
142.0778	17	C11H10+
143.0855	2	C11H11+
145.0648	100	C10H9O+
152.062	79	C12H8+
153.0699	769	C12H9+
154.0777	415	C12H10+
155.0605	136	C10H7N2+
155.0855	999	C12H11+
156.0934	12	C12H12+
165.0699	43	C13H9+
168.0568	2	C12H8O+
169.065	3	C12H9O+
181.0763	2	C12H9N2+
