Mass spectrum: Ethoxyquin; LC-ESI-QFT; MS2; CE: 180; R=35000; [M+H]+
Name: Ethoxyquin
Name: 6-ethoxy-2,2,4-trimethyl-1H-quinoline
Formula: C14H19NO
Exact mass: 217.14666
SMILES: CCOC1=CC2=C(C=C1)NC(C=C2C)(C)C
InChI: InChI=1S/C14H19NO/c1-5-16-11-6-7-13-12(8-11)10(2)9-14(3,4)15-13/h6-9,15H,5H2,1-4H3
Instrument: Q Exactive Plus Orbitrap Thermo Scientific
Instrument type: LC-ESI-QFT
Ms type: MS2
Ion mode: POSITIVE
Ionization: ESI
Fragmentation mode: HCD
Collision energy: 180 (nominal)
Resolution: 35000
Column name: XBridge C18 3.5um, 2.1x50mm, Waters
Retention time: 7.0 min
Base peak: 218.1537
Precursor m/z: 218.1539
Precursor type: [M+H]+
m/z	relative intensity	assigned
50.0152	134	C4H2+
51.023	131	C4H3+
52.0181	12	C3H2N+
52.0308	10	C4H4+
53.0023	33	C3HO+
53.0386	207	C4H5+
53.9975	9	C2NO+
54.0339	30	C3H4N+
55.0179	39	C3H3O+
55.0542	6	C4H7+
56.0495	2	C3H6N+
62.0151	27	C5H2+
63.023	207	C5H3+
64.0308	15	C5H4+
65.0386	552	C5H5+
66.0464	72	C5H6+
67.0417	32	C4H5N+
67.0542	22	C5H7+
68.0131	7	C3H2NO+
68.0256	2	C4H4O+
68.0494	2	C4H6N+
68.997	2	C3HO2+
75.0229	38	C6H3+
76.0182	2	C5H2N+
76.0307	12	C6H4+
77.0386	258	C6H5+
78.0338	40	C5H4N+
78.0464	208	C6H6+
79.0416	44	C5H5N+
79.0543	147	C6H7+
80.0495	136	C5H6N+
81.0336	31	C5H5O+
81.0573	6	C5H7N+
82.0413	2	C5H6O+
89.0386	538	C7H5+
90.034	13	C6H4N+
90.0465	200	C7H6+
91.0543	545	C7H7+
92.0495	25	C6H6N+
93.0574	55	C6H7N+
93.07	3	C7H9+
94.0414	26	C6H6O+
94.0652	10	C6H8N+
95.0492	608	C6H7O+
96.0445	81	C5H6NO+
101.0387	7	C8H5+
102.0464	67	C8H6+
103.0543	386	C8H7+
104.0495	337	C7H6N+
105.0335	31	C7H5O+
105.0448	355	C6H5N2+
105.0573	57	C7H7N+
105.07	21	C8H9+
106.0415	10	C7H6O+
106.0652	32	C7H8N+
107.0492	54	C7H7O+
108.0445	8	C6H6NO+
109.0523	8	C6H7NO+
110.0602	9	C6H8NO+
111.0315	9	C5H5NO2+
111.044	2	C6H7O2+
112.0392	1	C5H6NO2+
114.0464	6	C9H6+
115.0543	427	C9H7+
116.0495	66	C8H6N+
116.0621	34	C9H8+
117.0574	600	C8H7N+
118.0652	134	C8H8N+
119.0493	7	C8H7O+
120.0446	6	C7H6NO+
120.0809	2	C8H10N+
121.0396	2	C6H5N2O+
122.0603	2	C7H8NO+
126.0465	24	C10H6+
127.0543	27	C10H7+
128.0496	41	C9H6N+
128.0622	190	C10H8+
129.0448	18	C8H5N2+
129.0699	24	C10H9+
130.0653	999	C9H8N+
131.0493	41	C9H7O+
131.0731	220	C9H9N+
132.0444	22	C8H6NO+
132.057	10	C9H8O+
132.0809	26	C9H10N+
133.0523	54	C8H7NO+
134.0602	16	C8H8NO+
139.0545	11	C11H7+
140.0497	17	C10H6N+
141.0575	12	C10H7N+
141.0701	3	C11H9+
142.0652	22	C10H8N+
143.0731	67	C10H9N+
144.0446	21	C9H6NO+
144.0809	135	C10H10N+
145.0525	17	C9H7NO+
145.0649	16	C10H9O+
145.0887	34	C10H11N+
146.0601	76	C9H8NO+
146.0965	10	C10H12N+
148.0758	1	C9H10NO+
152.0622	2	C12H8+
154.0652	9	C11H8N+
155.0605	36	C10H7N2+
156.0811	24	C11H10N+
157.0652	2	C11H9O+
158.0601	24	C10H8NO+
159.0681	57	C10H9NO+
160.0757	18	C10H10NO+
162.0551	2	C9H8NO2+
172.0759	12	C11H10NO+
173.0837	8	C11H11NO+
174.0918	1	C11H12NO+
