Mass spectrum: Isazofos; LC-ESI-QFT; MS2; CE: 120%; R=17500; [M+H]+
Name: Isazofos
Name: (5-chloro-1-propan-2-yl-1,2,4-triazol-3-yl)oxy-diethoxy-sulfanylidene-lambda5-phosphane
Formula: C9H17ClN3O3PS
Exact mass: 313.0417
SMILES: CCOP(=S)(OCC)OC1=NN(C(=N1)Cl)C(C)C
InChI: InChI=1S/C9H17ClN3O3PS/c1-5-14-17(18,15-6-2)16-9-11-8(10)13(12-9)7(3)4/h7H,5-6H2,1-4H3
Instrument: Exploris 240 Orbitrap Thermo Scientific
Instrument type: LC-ESI-QFT
Ms type: MS2
Ion mode: POSITIVE
Ionization: ESI
Fragmentation mode: HCD
Collision energy: 120 % (nominal)
Resolution: 17500
Column name: XBridge C18 3.5um, 2.1x50mm, Waters
Retention time: 9.421 min
Base peak: 314.0488
Precursor m/z: 314.049
Precursor type: [M+H]+
m/z	relative intensity	assigned
61.9792	34	CHClN+
64.9786	306	H2O2P+
74.9747	12	CClN2+
76.9901	269	CH2ClN2+
78.9402	250	OPS+
84.019	109	C2H2N3O+
92.0011	54	CH3ClN3+
96.9507	999	H2O2PS+
110.9663	46	CH4O2PS+
114.9612	325	H4O3PS+
119.9959	768	C2H3ClN3O+
