Mass spectrum: Warfarin; LC-ESI-QFT; MS2; CE: 30; R=35000; [M+H]+
Name: Warfarin
Name: 2-hydroxy-3-(3-oxo-1-phenylbutyl)chromen-4-one
Name: Coumafen
Formula: C19H16O4
Exact mass: 308.10486
SMILES: O=C\1c3c(OC(/O)=C/1C(c2ccccc2)CC(=O)C)cccc3
InChI: InChI=1S/C19H16O4/c1-12(20)11-15(13-7-3-2-4-8-13)17-18(21)14-9-5-6-10-16(14)23-19(17)22/h2-10,15,22H,11H2,1H3
Instrument: Q Exactive Orbitrap Thermo Scientific
Instrument type: LC-ESI-QFT
Ms type: MS2
Ion mode: POSITIVE
Ionization: ESI
Fragmentation mode: HCD
Collision energy: 30 (nominal)
Resolution: 35000
Column name: XBridge C18 3.5um, 2.1x50mm, Waters
Retention time: 10.6 min
Base peak: 309.112
Precursor m/z: 309.1121
Precursor type: [M+H]+
m/z	relative intensity	assigned
91.0542	3	C7H7+
105.0698	1	C8H9+
121.028	5	C7H5O2+
129.0698	7	C10H9+
147.0804	190	C10H11O+
163.0388	999	C9H7O3+
171.0803	7	C12H11O+
175.0388	2	C10H7O3+
183.0801	4	C13H11O+
189.0545	10	C11H9O3+
191.0338	12	C10H7O4+
251.0702	904	C16H11O3+
291.1012	31	C19H15O3+
309.1119	25	C19H17O4+
