Mass spectrum: Rufinamide; LC-ESI-QFT; MS2; CE: 90; R=35000; [M+H]+
Name: Rufinamide
Name: 1-(2,6-difluorobenzyl)triazole-4-carboxamide
Formula: C10H8F2N4O
Exact mass: 238.06662
SMILES: O=C(c1nnn(c1)Cc2c(F)cccc2F)N
InChI: InChI=1S/C10H8F2N4O/c11-7-2-1-3-8(12)6(7)4-16-5-9(10(13)17)14-15-16/h1-3,5H,4H2,(H2,13,17)
Instrument: Q Exactive Orbitrap Thermo Scientific
Instrument type: LC-ESI-QFT
Ms type: MS2
Ion mode: POSITIVE
Ionization: ESI
Fragmentation mode: HCD
Collision energy: 90 (nominal)
Resolution: 35000
Column name: XBridge C18 3.5um, 2.1x50mm, Waters
Retention time: 5.2 min
Base peak: 239.074
Precursor m/z: 239.0739
Precursor type: [M+H]+
m/z	relative intensity	assigned
57.0135	4	C3H2F+
63.0229	3	C5H3+
68.0131	1	C3H2NO+
75.0041	2	C3HF2+
75.0229	1	C6H3+
77.0198	10	C3H3F2+
77.0386	5	C6H5+
81.0135	3	C5H2F+
83.0292	2	C5H4F+
95.0492	12	C6H7O+
101.0198	59	C5H3F2+
105.0447	5	C6H5N2+
107.0292	51	C7H4F+
109.0449	8	C7H6F+
119.0293	1	C8H4F+
121.045	1	C8H6F+
126.034	1	C9H4N+
127.0355	999	C7H5F2+
129.0447	1	C8H5N2+
135.0479	1	C8H6FN+
139.0357	2	C8H5F2+
140.0307	1	C7H4F2N+
142.0464	4	C7H6F2N+
147.0354	5	C8H4FN2+
148.0558	5	C9H7FN+
154.0402	2	C9H4N3+
166.0464	13	C9H6F2N+
