Mass spectrum: Profoxydim; LC-ESI-QFT; MS2; CE: 150; R=35000; [M-H]-
Name: Profoxydim
Name: 2-[1-[2-(4-chlorophenoxy)propoxyamino]butylidene]-5-(thian-3-yl)cyclohexane-1,3-dione
Formula: C24H32ClNO4S
Exact mass: 465.17406
SMILES: CCCC(=C1C(=O)CC(CC1=O)C2CCCSC2)NOCC(C)OC3=CC=C(C=C3)Cl
InChI: InChI=1S/C24H32ClNO4S/c1-3-5-21(26-29-14-16(2)30-20-9-7-19(25)8-10-20)24-22(27)12-18(13-23(24)28)17-6-4-11-31-15-17/h7-10,16-18,26H,3-6,11-15H2,1-2H3
Instrument: Q Exactive Plus Orbitrap Thermo Scientific
Instrument type: LC-ESI-QFT
Ms type: MS2
Ion mode: NEGATIVE
Ionization: ESI
Fragmentation mode: HCD
Collision energy: 150 (nominal)
Resolution: 35000
Column name: XBridge C18 3.5um, 2.1x50mm, Waters
Retention time: 14.4 min
Base peak: 464.1659
Precursor m/z: 464.1668
Precursor type: [M-H]-
m/z	relative intensity	assigned
50.0035	32	C3N-
53.0032	1	C3HO-
58.9961	7	C2H3S-
64.0192	17	C4H2N-
65.9985	999	C3NO-
67.0189	8	C4H3O-
67.051	2	H7N2O2-
68.0142	3	C3H2NO-
69.0345	6	C4H5O-
78.0349	3	C5H4N-
90.0349	7	C6H4N-
91.0188	1	C6H3O-
92.0141	9	C5H2NO-
120.009	94	C6H2NO2-
126.9956	1	C6H4ClO-
133.0169	10	C7H3NO2-
134.0247	123	C7H4NO2-
160.0406	1	C9H6NO2-
