Mass spectrum: Metalaxyl-M-TP CGA108906; LC-ESI-QFT; MS2; CE: 180%; R=17500; [M-H]-
Name: Metalaxyl-M-TP CGA108906
Name: 2-[1-carboxyethyl-(2-methoxyacetyl)amino]-3-methylbenzoic acid
Formula: C14H17NO6
Exact mass: 295.1056
SMILES: COCC(=O)N(C(C)C(O)=O)C1=C(C=CC=C1C)C(O)=O
InChI: InChI=1S/C14H17NO6/c1-8-5-4-6-10(14(19)20)12(8)15(9(2)13(17)18)11(16)7-21-3/h4-6,9H,7H2,1-3H3,(H,17,18)(H,19,20)
Instrument: Q Exactive Plus Orbitrap Thermo Scientific
Instrument type: LC-ESI-QFT
Ms type: MS2
Ion mode: NEGATIVE
Ionization: ESI
Fragmentation mode: HCD
Collision energy: 180 % (nominal)
Resolution: 17500
Column name: XBridge C18 3.5um, 2.1x50mm, Waters
Retention time: 5.743 min
Base peak: 294.0983
Precursor m/z: 294.0983
Precursor type: [M-H]-
m/z	relative intensity	assigned
55.0188	999	C3H3O-
116.0505	959	C8H6N-
