Mass spectrum: Prednisolone; LC-ESI-ITFT; MS2; CE: 15%; R=7500; [M+H]+
Name: Prednisolone
Name: 1-Dehydrohydrocortisone
Name: (8S,9S,10R,11S,13S,14S,17R)-10,13-dimethyl-11,17-bis(oxidanyl)-17-(2-oxidanylethanoyl)-7,8,9,11,12,14,15,16-octahydro-6H-cyclopenta[a]phenanthren-3-one
Formula: C21H28O5
Exact mass: 360.1937
SMILES: C1[C@H]2[C@H]3[C@@H]([C@@]4(C(=CC(=O)C=C4)CC3)C)[C@@H](O)C[C@@]2([C@](C(CO)=O)(O)C1)C
InChI: InChI=1S/C21H28O5/c1-19-7-5-13(23)9-12(19)3-4-14-15-6-8-21(26,17(25)11-22)20(15,2)10-16(24)18(14)19/h5,7,9,14-16,18,22,24,26H,3-4,6,8,10-11H2,1-2H3/t14-,15-,16-,18+,19-,20-,21-/m0/s1
Instrument: LTQ Orbitrap XL Thermo Scientific
Instrument type: LC-ESI-ITFT
Ms type: MS2
Ion mode: POSITIVE
Ionization: ESI
Fragmentation mode: HCD
Collision energy: 15 % (nominal)
Resolution: 7500
Column name: XBridge C18 3.5um, 2.1x50mm, Waters
Retention time: 8.0 min
Base peak: 361.202
Precursor m/z: 361.201
Precursor type: [M+H]+
m/z	relative intensity	assigned
147.0809	125	C10H11O+
279.1745	61	C20H23O+
289.1597	87	C21H21O+
307.1694	320	C21H23O2+
325.179	587	C21H25O3+
343.1902	999	C21H27O4+
361.2007	316	C21H29O5+
