Mass spectrum: Diphenamid; LC-ESI-QFT; MS2; CE: 180%; R=17500; [M+H]+
Name: Diphenamid
Name: N,N-dimethyl-2,2-diphenylacetamide
Formula: C16H17NO
Exact mass: 239.1310
SMILES: CN(C)C(=O)C(C1=CC=CC=C1)C2=CC=CC=C2
InChI: InChI=1S/C16H17NO/c1-17(2)16(18)15(13-9-5-3-6-10-13)14-11-7-4-8-12-14/h3-12,15H,1-2H3
Instrument: Exploris 240 Orbitrap Thermo Scientific
Instrument type: LC-ESI-QFT
Ms type: MS2
Ion mode: POSITIVE
Ionization: ESI
Fragmentation mode: HCD
Collision energy: 180 % (nominal)
Resolution: 17500
Column name: XBridge C18 3.5um, 2.1x50mm, Waters
Retention time: 7.502 min
Base peak: 274.2526
Precursor m/z: 240.1383
Precursor type: [M+H]+
m/z	relative intensity	assigned
53.0385	148	C4H5+
65.0385	530	C5H5+
72.0445	103	C3H6NO+
77.0385	364	C6H5+
78.0466	100	C6H6+
89.0387	94	C7H5+
91.0542	730	C7H7+
95.0493	114	C6H7O+
102.0466	117	C8H6+
115.0541	420	C9H7+
117.0575	84	C8H7N+
118.0651	999	C8H8N+
128.0616	155	C10H8+
139.0539	125	C11H7+
151.0545	136	C12H7+
152.0621	383	C12H8+
163.0546	134	C13H7+
164.0619	153	C13H8+
165.0699	836	C13H9+
