Mass spectrum: Danofloxacin; LC-ESI-QFT; MS2; CE: 60; R=35000; [M+H]+
Name: Danofloxacin
Name: 1-cyclopropyl-6-fluoro-7-(5-methyl-2-aza-5-azoniabicyclo[2.2.1]heptan-2-yl)-4-oxoquinoline-3-carboxylate
Formula: C19H20FN3O3
Exact mass: 357.14887
SMILES: CN1C[C@@H]2C[C@H]1CN2C3=C(C=C4C(=C3)N(C=C(C4=O)C(=O)O)C5CC5)F
InChI: InChI=1S/C19H20FN3O3/c1-21-7-12-4-11(21)8-22(12)17-6-16-13(5-15(17)20)18(24)14(19(25)26)9-23(16)10-2-3-10/h5-6,9-12H,2-4,7-8H2,1H3,(H,25,26)/t11-,12-/m0/s1
Instrument: Q Exactive Plus Orbitrap Thermo Scientific
Instrument type: LC-ESI-QFT
Ms type: MS2
Ion mode: POSITIVE
Ionization: ESI
Fragmentation mode: HCD
Collision energy: 60 (nominal)
Resolution: 35000
Column name: XBridge C18 3.5um, 2.1x50mm, Waters
Retention time: 4.4 min
Base peak: 164.9843
Precursor m/z: 358.1561
Precursor type: [M+H]+
m/z	relative intensity	assigned
53.0022	1	C3HO+
53.0386	2	C4H5+
54.0339	1	C3H4N+
55.0543	6	C4H7+
56.0495	4	C3H6N+
57.0573	7	C3H7N+
58.0652	4	C3H8N+
65.0386	4	C5H5+
67.0417	21	C4H5N+
67.0542	13	C5H7+
68.0495	48	C4H6N+
69.07	4	C5H9+
70.0652	118	C4H8N+
74.0964	2	C4H12N+
75.0479	10	C3H6FN+
79.0542	25	C6H7+
80.0495	24	C5H6N+
81.0574	53	C5H7N+
82.0651	999	C5H8N+
83.0729	183	C5H9N+
84.0808	32	C5H10N+
94.0652	91	C6H8N+
95.0729	1	C6H9N+
96.0808	165	C6H10N+
97.0761	9	C5H9N2+
97.0886	7	C6H11N+
105.0447	1	C6H5N2+
147.0479	1	C9H6FN+
147.0607	1	C10H8F+
148.0557	3	C9H7FN+
149.0508	1	C8H6FN2+
154.0654	4	C11H8N+
155.0605	2	C10H7N2+
160.0559	1	C10H7FN+
161.0637	3	C10H8FN+
162.0589	1	C9H7FN2+
162.0712	1	C10H9FN+
163.0668	1	C9H8FN2+
164.051	1	C9H7FNO+
168.0684	3	C11H8N2+
169.0762	3	C11H9N2+
172.0558	4	C11H7FN+
173.0512	1	C10H6FN2+
173.0636	2	C11H8FN+
174.0589	1	C10H7FN2+
174.0714	10	C11H9FN+
175.0666	5	C10H8FN2+
175.0794	2	C11H10FN+
176.0507	2	C10H7FNO+
176.0744	1	C10H9FN2+
178.0539	14	C9H7FN2O+
179.0618	3	C9H8FN2O+
181.0763	1	C12H9N2+
182.0601	1	C12H8NO+
183.092	2	C12H11N2+
184.0395	3	C11H6NO2+
184.0632	2	C11H8N2O+
184.0757	2	C12H10NO+
185.0639	1	C12H8FN+
186.059	4	C11H7FN2+
186.0715	3	C12H9FN+
187.0428	1	C11H6FNO+
187.0667	12	C11H8FN2+
188.0506	2	C11H7FNO+
188.0747	5	C11H9FN2+
188.0873	4	C12H11FN+
189.0459	9	C10H6FN2O+
189.0825	8	C11H10FN2+
189.0949	5	C12H12FN+
190.0538	7	C10H7FN2O+
190.0661	1	C11H9FNO+
191.0616	6	C10H8FN2O+
193.0768	3	C13H9N2+
195.0328	2	C9H6FNO3+
195.0922	1	C13H11N2+
196.0634	5	C12H8N2O+
197.0472	2	C12H7NO2+
197.0713	3	C12H9N2O+
197.1076	14	C13H13N2+
198.0714	1	C13H9FN+
199.0671	1	C12H8FN2+
200.0506	6	C12H7FNO+
200.0746	4	C12H9FN2+
201.0586	12	C12H8FNO+
201.0824	5	C12H10FN2+
202.0664	54	C12H9FNO+
202.0903	3	C12H11FN2+
203.0616	39	C11H8FN2O+
203.0978	6	C12H12FN2+
204.0695	5	C11H9FN2O+
204.0819	4	C12H11FNO+
205.0771	3	C11H10FN2O+
207.092	3	C14H11N2+
209.0714	4	C13H9N2O+
209.1073	2	C14H13N2+
211.0671	1	C13H8FN2+
211.0867	1	C13H11N2O+
212.0749	3	C13H9FN2+
212.087	5	C14H11FN+
213.0827	6	C13H10FN2+
213.0952	3	C14H12FN+
214.0541	2	C12H7FN2O+
214.0668	5	C13H9FNO+
214.0902	14	C13H11FN2+
215.0257	10	C11H4FN2O2+
215.0618	58	C12H8FN2O+
215.0979	9	C13H12FN2+
216.0697	16	C12H9FN2O+
216.081	1	C13H11FNO+
216.1058	1	C13H13FN2+
217.0413	5	C11H6FN2O2+
217.0776	15	C12H10FN2O+
218.0489	51	C11H7FN2O2+
218.0848	5	C12H11FN2O+
219.093	14	C12H12FN2O+
221.0707	3	C14H9N2O+
221.107	1	C15H13N2+
222.0789	4	C14H10N2O+
223.0505	1	C13H7N2O2+
225.0825	3	C14H10FN2+
225.1027	2	C14H13N2O+
226.0905	2	C14H11FN2+
227.0615	7	C13H8FN2O+
227.0981	13	C14H12FN2+
228.0529	1	C12H8N2O3+
228.0695	3	C13H9FN2O+
228.0821	2	C14H11FNO+
229.0774	60	C13H10FN2O+
229.1139	3	C14H14FN2+
230.0487	1	C12H7FN2O2+
230.0855	7	C13H11FN2O+
231.0568	5	C12H8FN2O2+
231.093	43	C13H12FN2O+
234.0565	4	C12H9FNO3+
235.0518	1	C11H8FN2O3+
235.0642	1	C12H10FNO3+
235.0871	2	C15H11N2O+
236.0593	26	C11H9FN2O3+
237.1024	25	C15H13N2O+
238.0979	12	C14H12N3O+
239.0613	1	C14H8FN2O+
239.098	9	C15H12FN2+
240.0703	5	C14H9FN2O+
240.1056	8	C15H13FN2+
241.0773	18	C14H10FN2O+
241.0888	1	C18H11N+
241.113	1	C15H14FN2+
242.0852	21	C14H11FN2O+
242.0966	1	C18H12N+
243.0567	10	C13H8FN2O2+
243.0929	8	C14H12FN2O+
244.0644	1	C13H9FN2O2+
244.1005	1	C14H13FN2O+
245.0726	2	C13H10FN2O2+
245.1087	23	C14H14FN2O+
248.0948	1	C16H12N2O+
248.1185	1	C16H14N3+
249.1021	1	C16H13N2O+
251.1183	1	C16H15N2O+
252.1135	6	C15H14N3O+
253.0778	6	C15H10FN2O+
253.1212	6	C15H15N3O+
254.0487	17	C14H7FN2O2+
254.0851	1	C15H11FN2O+
255.0566	330	C14H8FN2O2+
256.0644	33	C14H9FN2O2+
257.0722	4	C14H10FN2O2+
257.0931	2	C14H13N2O3+
257.1083	21	C15H14FN2O+
259.0877	1	C14H12FN2O2+
261.0672	3	C13H10FN2O3+
263.0829	8	C13H12FN2O3+
263.1183	4	C17H15N2O+
264.0771	5	C15H10N3O2+
264.1499	3	C17H18N3+
267.0927	7	C16H12FN2O+
268.1008	4	C16H13FN2O+
269.1092	4	C16H14FN2O+
271.1241	41	C16H16FN2O+
272.0596	4	C14H9FN2O3+
273.0671	84	C14H10FN2O3+
274.0749	9	C14H11FN2O3+
275.0826	14	C14H12FN2O3+
277.0986	12	C14H14FN2O3+
278.0926	3	C16H12N3O2+
279.1003	10	C16H13N3O2+
281.1084	15	C17H14FN2O+
282.0884	1	C15H12N3O3+
283.1242	49	C17H16FN2O+
284.0832	3	C15H11FN3O2+
285.14	1	C17H18FN2O+
287.0825	3	C15H12FN2O3+
289.0983	10	C15H14FN2O3+
295.0872	1	C17H12FN2O2+
296.1555	4	C18H19FN3+
298.099	6	C16H13FN3O2+
298.1352	10	C17H17FN3O+
301.0985	10	C16H14FN2O3+
312.1509	9	C18H19FN3O+
315.1139	5	C17H16FN2O3+
318.1248	2	C16H17FN3O3+
320.1396	1	C19H18N3O2+
338.1501	17	C19H20N3O3+
340.1454	41	C19H19FN3O2+
344.1414	4	C18H19FN3O3+
358.1564	765	C19H21FN3O3+
