Mass spectrum: Chlorthalidone; LC-ESI-QFT; MS2; CE: 30; R=35000; [M+H]+
Name: Chlorthalidone
Name: Chlortalidone
Name: 2-chloranyl-5-(1-oxidanyl-3-oxidanylidene-2H-isoindol-1-yl)benzenesulfonamide
Formula: C14H11ClN2O4S
Exact mass: 338.01281
SMILES: O=S(=O)(N)c1c(Cl)ccc(c1)C2(O)c3ccccc3C(=O)N2
InChI: InChI=1S/C14H11ClN2O4S/c15-11-6-5-8(7-12(11)22(16,20)21)14(19)10-4-2-1-3-9(10)13(18)17-14/h1-7,19H,(H,17,18)(H2,16,20,21)
Instrument: Q Exactive Orbitrap Thermo Scientific
Instrument type: LC-ESI-QFT
Ms type: MS2
Ion mode: POSITIVE
Ionization: ESI
Fragmentation mode: HCD
Collision energy: 30 (nominal)
Resolution: 35000
Column name: XBridge C18 3.5um, 2.1x50mm, Waters
Retention time: 5.6 min
Base peak: 321.9937
Precursor m/z: 339.0201
Precursor type: [M+H]+
m/z	relative intensity	assigned
79.98	5	H2NO2S+
148.0394	1	C8H6NO2+
152.0619	1	C12H8+
185.0155	1	C12H6Cl+
222.0548	1	C14H8NO2+
223.0626	3	C14H9NO2+
231.0206	4	C13H8ClO2+
241.0052	79	C14H6ClO2+
241.016	4	C13H6ClN2O+
242.0116	2	C6H11ClN2O4S+
243.0209	106	C14H8ClO2+
258.0315	6	C14H9ClNO2+
259.0158	37	C14H8ClO3+
269.0113	2	C14H6ClN2O2+
286.0167	1	C14H8NO4S+
303.9831	1	C14H7ClNO3S+
304.9671	49	C14H6ClO4S+
321.9936	999	C14H9ClNO4S+
