Mass spectrum: Disulfoton-sulfoxide; LC-ESI-QFT; MS2; CE: 75%; R=17500; [M+H]+
Name: Disulfoton-sulfoxide
Name: Oxydisulfoton
Name: diethoxy-(2-ethylsulfinylethylsulfanyl)-sulfanylidene-lambda5-phosphane
Formula: C8H19O3PS3
Exact mass: 290.0234
SMILES: CCOP(=S)(OCC)SCCS(=O)CC
InChI: InChI=1S/C8H19O3PS3/c1-4-10-12(13,11-5-2)14-7-8-15(9)6-3/h4-8H2,1-3H3
Instrument: Exploris 240 Orbitrap Thermo Scientific
Instrument type: LC-ESI-QFT
Ms type: MS2
Ion mode: POSITIVE
Ionization: ESI
Fragmentation mode: HCD
Collision energy: 75 % (nominal)
Resolution: 17500
Column name: XBridge C18 3.5um, 2.1x50mm, Waters
Retention time: 6.653 min
Base peak: 282.279
Precursor m/z: 291.0307
Precursor type: [M+H]+
m/z	relative intensity	assigned
61.0106	198	C2H5S+
64.9787	81	H2O2P+
92.9829	11	C2H5S2+
96.9507	999	H2O2PS+
110.9665	25	CH4O2PS+
114.9613	328	H4O3PS+
124.9818	30	C2H6O2PS+
128.9228	610	H2O2PS2+
138.9437	81	C2H4OPS2+
156.9541	233	C2H6O2PS2+
