Mass spectrum: Celiprolol; LC-ESI-QFT; MS2; CE: 75; R=35000; [M+H]+
Name: Celiprolol
Name: 3-[3-acetyl-4-[3-(tert-butylamino)-2-hydroxy-propoxy]phenyl]-1,1-diethyl-urea
Formula: C20H33N3O4
Exact mass: 379.24711
SMILES: CCN(CC)C(=O)NC1=CC(=C(C=C1)OCC(CNC(C)(C)C)O)C(=O)C
InChI: InChI=1S/C20H33N3O4/c1-7-23(8-2)19(26)22-15-9-10-18(17(11-15)14(3)24)27-13-16(25)12-21-20(4,5)6/h9-11,16,21,25H,7-8,12-13H2,1-6H3,(H,22,26)
Instrument: Q Exactive Orbitrap Thermo Scientific
Instrument type: LC-ESI-QFT
Ms type: MS2
Ion mode: POSITIVE
Ionization: ESI
Fragmentation mode: HCD
Collision energy: 75 (nominal)
Resolution: 35000
Column name: XBridge C18 3.5um, 2.1x50mm, Waters
Retention time: 5.6 min
Base peak: 380.2546
Precursor m/z: 380.2544
Precursor type: [M+H]+
m/z	relative intensity	assigned
56.0496	458	C3H6N+
57.0699	65	C4H9+
72.0444	281	C3H6NO+
74.06	999	C3H8NO+
74.0964	691	C4H12N+
100.0757	254	C5H10NO+
115.054	8	C9H7+
120.0809	4	C8H10N+
130.0652	13	C9H8N+
132.0444	28	C8H6NO+
134.06	5	C8H8NO+
136.0395	5	C7H6NO2+
142.0652	3	C10H8N+
146.0601	22	C9H8NO+
148.0394	253	C8H6NO2+
150.055	37	C8H8NO2+
158.0603	15	C10H8NO+
160.0394	10	C9H6NO2+
160.0758	4	C10H10NO+
162.0184	4	C8H4NO3+
162.055	13	C9H8NO2+
170.0604	4	C11H8NO+
172.0394	10	C10H6NO2+
174.0548	18	C10H8NO2+
176.0706	64	C10H10NO2+
178.05	16	C9H8NO3+
186.0551	84	C11H8NO2+
188.0703	3	C11H10NO2+
190.0496	12	C10H8NO3+
198.0556	4	C12H8NO2+
204.0657	44	C11H10NO3+
216.0656	38	C12H10NO3+
233.0922	10	C12H13N2O3+
251.14	3	C13H19N2O3+
