Mass spectrum: Octocrylene; LC-ESI-QFT; MS2; CE: 150; R=35000; [M+H]+
Name: Octocrylene
Name: [(2R)-2-ethylhexyl] 2-cyano-3,3-diphenylprop-2-enoate
Formula: C24H27NO2
Exact mass: 361.20418
SMILES: C(\c1ccccc1)(c1ccccc1)=C(/C(OC[C@@H](CCCC)CC)=O)C#N
InChI: InChI=1S/C24H27NO2/c1-3-5-12-19(4-2)18-27-24(26)22(17-25)23(20-13-8-6-9-14-20)21-15-10-7-11-16-21/h6-11,13-16,19H,3-5,12,18H2,1-2H3/t19-/m1/s1
Instrument: Q Exactive Plus Orbitrap Thermo Scientific
Instrument type: LC-ESI-QFT
Ms type: MS2
Ion mode: POSITIVE
Ionization: ESI
Fragmentation mode: HCD
Collision energy: 150 (nominal)
Resolution: 35000
Column name: XBridge C18 3.5um, 2.1x50mm, Waters
Retention time: 17.2 min
Base peak: 250.086
Precursor m/z: 362.2115
Precursor type: [M+H]+
m/z	relative intensity	assigned
50.0151	201	C4H2+
51.023	614	C4H3+
52.0183	3	C3H2N+
52.0309	2	C4H4+
53.0022	20	C3HO+
53.0386	152	C4H5+
53.9975	6	C2NO+
55.0179	3	C3H3O+
55.0542	2	C4H7+
57.0699	3	C4H9+
63.023	18	C5H3+
65.0022	15	C4HO+
65.0386	5	C5H5+
68.9971	13	C3HO2+
74.015	68	C6H2+
75.0229	275	C6H3+
76.0181	6	C5H2N+
76.0307	33	C6H4+
77.0385	305	C6H5+
78.0464	23	C6H6+
81.0335	14	C5H5O+
87.0229	13	C7H3+
89.0386	30	C7H5+
91.0542	2	C7H7+
94.0413	5	C6H6O+
95.0492	485	C6H7O+
98.015	42	C8H2+
99.0229	52	C8H3+
100.0181	24	C7H2N+
100.0307	6	C8H4+
101.0386	13	C8H5+
102.0464	75	C8H6+
103.0544	4	C8H7+
104.0494	28	C7H6N+
105.0447	293	C6H5N2+
110.0152	3	C9H2+
111.023	4	C9H3+
113.0386	5	C9H5+
115.0543	48	C9H7+
119.0493	17	C8H7O+
122.0153	5	C10H2+
123.0229	15	C10H3+
124.031	11	C10H4+
125.0387	61	C10H5+
126.0465	109	C10H6+
127.0416	15	C9H5N+
127.0542	16	C10H7+
128.0621	55	C10H8+
129.0334	19	C9H5O+
129.0448	32	C8H5N2+
137.0386	6	C11H5+
139.0543	34	C11H7+
140.0495	11	C10H6N+
143.049	13	C10H7O+
145.065	15	C10H9O+
149.0387	71	C12H5+
150.0465	999	C12H6+
151.0418	14	C11H5N+
151.0542	116	C12H7+
152.0621	258	C12H8+
153.0572	21	C11H7N+
155.0603	25	C10H7N2+
162.0466	3	C13H6+
163.0543	48	C13H7+
164.0495	15	C12H6N+
164.0624	4	C13H8+
165.0699	17	C13H9+
167.0495	25	C12H7O+
168.0572	5	C12H8O+
169.0648	364	C12H9O+
170.0599	4	C11H8NO+
174.0464	167	C14H6+
175.042	50	C13H5N+
175.0541	111	C14H7+
176.0621	955	C14H8+
177.0574	156	C13H7N+
177.0695	53	C14H9+
178.0776	35	C14H10+
179.0491	14	C13H7O+
179.0604	124	C12H7N2+
185.0596	31	C12H9O2+
188.0496	4	C14H6N+
193.0648	170	C14H9O+
194.0602	52	C13H8NO+
201.0573	273	C15H7N+
202.0651	68	C15H8N+
203.0604	72	C14H7N2+
203.073	40	C15H9N+
204.0557	36	C13H6N3+
220.0757	48	C15H10NO+
