Mass spectrum: Triflusulfuron-methyl; LC-ESI-QFT; MS2; CE: 90; R=35000; [M-H]-
Name: Triflusulfuron-methyl
Name: 2-[[4-(dimethylamino)-6-(2,2,2-trifluoroethoxy)-s-triazin-2-yl]carbamoylsulfamoyl]-3-methyl-benzoic acid methyl ester
Formula: C17H19F3N6O6S
Exact mass: 492.10389
SMILES: O=C(OC)c1cccc(c1S(=O)(=O)NC(=O)Nc2nc(nc(OCC(F)(F)F)n2)N(C)C)C
InChI: InChI=1S/C17H19F3N6O6S/c1-9-6-5-7-10(12(27)31-4)11(9)33(29,30)25-15(28)22-13-21-14(26(2)3)24-16(23-13)32-8-17(18,19)20/h5-7H,8H2,1-4H3,(H2,21,22,23,24,25,28)
Instrument: Q Exactive Orbitrap Thermo Scientific
Instrument type: LC-ESI-QFT
Ms type: MS2
Ion mode: NEGATIVE
Ionization: ESI
Fragmentation mode: HCD
Collision energy: 90 (nominal)
Resolution: 35000
Column name: XBridge C18 3.5um, 2.1x50mm, Waters
Retention time: 10.8 min
Base peak: 491.0971
Precursor m/z: 491.0966
Precursor type: [M-H]-
m/z	relative intensity	assigned
58.0098	3	C2HFN-
58.9937	211	C2FO-
61.9705	19	NOS-
66.0097	530	C2N3-
68.9957	413	CF3-
71.0051	28	C2FN2-
78.0097	21	C3N3-
79.0001	731	C2HF2O-
79.0176	46	
90.0098	87	C4N3-
99.0064	29	C2H2F3O-
100.0078	43	C3HFN2O-
104.0128	27	C4N4-
105.9605	4	CNO3S-
106.0047	20	C4N3O-
106.0285	75	C4H2N4-
107.0361	5	C4H3N4-
111.0112	47	C3FN4-
111.0677	37	C4H7N4-
113.0395	5	C4H4FN3-
118.016	46	C4N5-
118.0286	7	C5H2N4-
120.0443	4	C5H4N4-
121.052	7	C5H5N4-
124.019	23	C4HFN4-
126.011	25	C4HFN3O-
132.0315	63	
133.0155	18	C5HN4O-
133.0395	50	C5H3N5-
134.0236	6	C5H2N4O-
135.0312	6	C5H3N4O-
136.0628	230	C5H6N5-
138.0219	48	C4HFN5-
138.0784	100	C5H8N5-
139.0062	6	C4FN4O-
149.0466	4	C6H5N4O-
151.0061	58	C5FN4O-
152.0138	79	C5HFN4O-
152.0378	171	C5H3FN5-
158.0108	15	
160.0264	999	C6H2N5O-
161.0342	751	C6H3N5O-
166.0167	6	CH6F2NO6-
166.0734	90	C6H8N5O-
167.0611	8	C6H6FN5-
176.0576	88	C3H11FNO6-
196.0072	37	
