Mass spectrum: Spinetoram J; LC-ESI-QFT; MS2; CE: 120%; R=17500; [M+H]+
Name: Spinetoram J
Name: 13-{[5-(Dimethylamino)-6-methyloxan-2-yl]oxy}-9-ethyl-14-methyl-7,15-dioxo-2,3,3a,4,5,5a,5b,6,7,9,10,11,12,13,14,15,16a,16b-octadecahydro-1H-as-indaceno[3,2-d]oxacyclododecin-2-yl 6-deoxy-3-O-ethyl-2,4-di-O-methylhexopyranoside
Name: 15-[5-(dimethylamino)-6-methyloxan-2-yl]oxy-7-(4-ethoxy-3,5-dimethoxy-6-methyloxan-2-yl)oxy-19-ethyl-14-methyl-20-oxatetracyclo[10.10.0.02,10.05,9]docos-11-ene-13,21-dione
Formula: C42H69NO10
Exact mass: 747.4921
SMILES: CCC1CCCC(C(C(=O)C2=CC3C(C2CC(=O)O1)CCC4C3CC(C4)OC5C(C(C(C(O5)C)OC)OCC)OC)C)OC6CCC(C(O6)C)N(C)C
InChI: InChI=1S/C42H69NO10/c1-10-27-13-12-14-35(53-37-18-17-34(43(6)7)24(4)49-37)23(3)38(45)33-21-31-29(32(33)22-36(44)51-27)16-15-26-19-28(20-30(26)31)52-42-41(47-9)40(48-11-2)39(46-8)25(5)50-42/h21,23-32,34-35,37,39-42H,10-20,22H2,1-9H3
Instrument: Exploris 240 Orbitrap Thermo Scientific
Instrument type: LC-ESI-QFT
Ms type: MS2
Ion mode: POSITIVE
Ionization: ESI
Fragmentation mode: HCD
Collision energy: 120 % (nominal)
Resolution: 17500
Column name: XBridge C18 3.5um, 2.1x50mm, Waters
Retention time: 12.060 min
Base peak: 748.4992
Precursor m/z: 748.4994
Precursor type: [M+H]+
m/z	relative intensity	assigned
79.0542	506	C6H7+
81.0334	51	C5H5O+
81.0698	119	C6H9+
82.0415	84	C5H6O+
83.0494	69	C5H7O+
84.0808	254	C5H10N+
85.0887	215	C5H11N+
87.0441	110	C4H7O2+
91.0541	491	C7H7+
95.0488	157	C6H7O+
97.0648	90	C6H9O+
98.0963	999	C6H12N+
105.0697	56	C8H9+
115.0541	281	C9H7+
116.0623	76	C9H8+
117.07	150	C9H9+
127.0542	58	C10H7+
128.062	478	C10H8+
129.0697	399	C10H9+
142.0779	134	C11H10+
153.0694	68	C12H9+
155.0858	67	C12H11+
157.1007	55	C12H13+
165.0698	86	C13H9+
