Mass spectrum: Indapamide; LC-ESI-QFT; MS2; CE: 90; R=35000; [M+H]+
Name: Indapamide
Name: 4-chloro-N-(2-methyl-2,3-dihydroindol-1-yl)-3-sulfamoylbenzamide
Formula: C16H16ClN3O3S
Exact mass: 365.06009
SMILES: CC1CC2=CC=CC=C2N1NC(=O)C3=CC(=C(C=C3)Cl)S(=O)(=O)N
InChI: InChI=1S/C16H16ClN3O3S/c1-10-8-11-4-2-3-5-14(11)20(10)19-16(21)12-6-7-13(17)15(9-12)24(18,22)23/h2-7,9-10H,8H2,1H3,(H,19,21)(H2,18,22,23)
Instrument: Q Exactive Plus Orbitrap Thermo Scientific
Instrument type: LC-ESI-QFT
Ms type: MS2
Ion mode: POSITIVE
Ionization: ESI
Fragmentation mode: HCD
Collision energy: 90 (nominal)
Resolution: 35000
Column name: XBridge C18 3.5um, 2.1x50mm, Waters
Retention time: 6.7 min
Base peak: 366.0667
Precursor m/z: 366.0674
Precursor type: [M+H]+
m/z	relative intensity	assigned
50.0151	1	C4H2+
51.0229	1	C4H3+
53.0022	1	C3HO+
53.0386	1	C4H5+
62.0151	1	C5H2+
63.0229	9	C5H3+
65.0386	324	C5H5+
66.0464	4	C5H6+
77.0386	2	C6H5+
79.0542	20	C6H7+
89.0386	13	C7H5+
90.0465	45	C7H6+
91.0542	999	C7H7+
95.0492	6	C6H7O+
98.9996	11	C5H4Cl+
103.0542	17	C8H7+
105.0446	4	C6H5N2+
105.0699	64	C8H9+
106.0414	1	C7H6O+
107.0492	1	C7H7O+
108.9839	2	C6H2Cl+
109.0649	8	C7H9O+
114.9946	1	C5H4ClO+
115.0542	14	C9H7+
116.0496	2	C8H6N+
117.0573	671	C8H7N+
118.0651	104	C8H8N+
119.0603	9	C7H7N2+
126.0103	1	C6H5ClN+
130.0652	22	C9H8N+
131.073	20	C9H9N+
132.0808	76	C9H10N+
133.0762	2	C8H9N2+
134.0599	1	C8H8NO+
136.9789	1	C7H2ClO+
142.9896	1	C6H4ClO2+
