Mass spectrum: Fenamidone; LC-ESI-QFT; MS2; CE: 90; R=35000; [M+H]+
Name: Fenamidone
Name: (5S)-3-anilino-5-methyl-2-(methylthio)-5-phenyl-2-imidazolin-4-one
Formula: C17H17N3OS
Exact mass: 311.10923
SMILES: O=C2N(Nc1ccccc1)C(\SC)=N/[C@]2(c3ccccc3)C
InChI: InChI=1S/C17H17N3OS/c1-17(13-9-5-3-6-10-13)15(21)20(16(18-17)22-2)19-14-11-7-4-8-12-14/h3-12,19H,1-2H3/t17-/m0/s1
Instrument: Q Exactive Orbitrap Thermo Scientific
Instrument type: LC-ESI-QFT
Ms type: MS2
Ion mode: POSITIVE
Ionization: ESI
Fragmentation mode: HCD
Collision energy: 90 (nominal)
Resolution: 35000
Column name: XBridge C18 3.5um, 2.1x50mm, Waters
Retention time: 10.3 min
Base peak: 312.1166
Precursor m/z: 312.1165
Precursor type: [M+H]+
m/z	relative intensity	assigned
53.0023	3	C3HO+
63.0227	1	C5H3+
64.0305	1	C5H4+
65.0386	999	C5H5+
74.0059	20	C2H4NS+
74.9899	5	C2H3OS+
77.0385	4	C6H5+
79.0542	3	C6H7+
85.9695	12	C2NOS+
91.0415	1	C6H5N+
91.0542	1	C7H7+
92.0494	693	C6H6N+
93.0571	12	C6H7N+
95.0491	32	C6H7O+
102.0464	3	C8H6+
103.0542	185	C8H7+
104.0495	19	C7H6N+
105.0448	7	C6H5N2+
106.0526	4	C6H6N2+
107.0604	4	C6H7N2+
109.0762	1	C6H9N2+
110.06	1	C6H8NO+
116.0494	4	C8H6N+
118.0525	8	C7H6N2+
118.0649	1	C8H8N+
119.0604	1	C7H7N2+
120.0807	61	C8H10N+
121.0106	3	C7H5S+
123.0137	8	C6H5NS+
128.0495	1	C9H6N+
130.0653	2	C9H8N+
131.0606	4	C8H7N2+
133.0633	7	C7H7N3+
133.076	15	C8H9N2+
134.0713	121	C7H8N3+
138.037	1	C7H8NS+
146.0602	1	C9H8NO+
150.0247	64	C7H6N2S+
158.0713	8	C9H8N3+
162.0372	1	C9H8NS+
165.048	6	C8H9N2S+
167.073	1	C12H9N+
179.0731	5	C13H9N+
180.0811	1	C13H10N+
192.0805	1	C14H10N+
193.0889	6	C14H11N+
194.0963	7	C14H12N+
195.0921	3	C13H11N2+
205.0766	4	C14H9N2+
206.0836	6	C14H10N2+
207.0684	3	C14H9NO+
219.0918	8	C15H11N2+
220.0868	9	C14H10N3+
221.0948	2	C14H11N3+
236.1188	5	C15H14N3+
237.0485	4	C14H9N2S+
