Mass spectrum: Fosinopril; LC-ESI-QFT; MS2; CE: 75; R=35000; [M-H]-
Name: Fosinopril
Name: (2S,4S)-4-cyclohexyl-1-[2-[(2-methyl-1-propanoyloxypropoxy)-(4-phenylbutyl)phosphoryl]acetyl]pyrrolidine-2-carboxylic acid
Formula: C30H46NO7P
Exact mass: 563.30119
SMILES: O=C(CP(=O)(CCCCc1ccccc1)OC(OC(=O)CC)C(C)C)N2C[C@@H](C[C@H]2C(O)=O)C3CCCCC3
InChI: InChI=1S/C30H46NO7P/c1-4-28(33)37-30(22(2)3)38-39(36,18-12-11-15-23-13-7-5-8-14-23)21-27(32)31-20-25(19-26(31)29(34)35)24-16-9-6-10-17-24/h5,7-8,13-14,22,24-26,30H,4,6,9-12,15-21H2,1-3H3,(H,34,35)/t25-,26+,30?,39?/m1/s1
Instrument: Q Exactive Orbitrap Thermo Scientific
Instrument type: LC-ESI-QFT
Ms type: MS2
Ion mode: NEGATIVE
Ionization: ESI
Fragmentation mode: HCD
Collision energy: 75 (nominal)
Resolution: 35000
Column name: XBridge C18 3.5um, 2.1x50mm, Waters
Retention time: 16.6 min
Base peak: 562.2942
Precursor m/z: 562.2939
Precursor type: [M-H]-
m/z	relative intensity	assigned
60.9849	1	CH2OP-
62.9641	68	O2P-
64.0193	1	C4H2N-
64.9798	4	H2O2P-
66.0349	17	C4H4N-
68.0142	1	C3H2NO-
68.9982	6	C3HO2-
73.0295	402	C3H5O2-
75.0006	1	C2H4OP-
78.9591	79	O3P-
82.0299	127	C4H4NO-
86.0247	1	C3H4NO2-
86.9642	1	C2O2P-
87.0004	1	C3H4OP-
87.9957	4	C2H3NOP-
88.9798	1	C2H2O2P-
96.0092	37	C4H2NO2-
97.0295	129	C5H5O2-
102.959	3	C2O3P-
110.0248	838	C5H4NO2-
126.0198	1	C5H4NO3-
148.1133	1	C10H14N-
152.0354	1	C7H6NO3-
161.0524	1	C10H10P-
166.1235	4	C10H16NO-
179.0633	7	C10H12OP-
192.1394	3	C12H18NO-
195.058	20	C10H12O2P-
196.1343	35	C11H18NO2-
198.1054	5	C10H17NOP-
213.0685	23	C10H14O3P-
220.1342	999	C13H18NO2-
