Mass spectrum: Spirotetramat BYI08330-enol; LC-ESI-QFT; MS2; CE: 15%; R=17500; [M-H]-
Name: Spirotetramat BYI08330-enol
Name: Cis-3-(2,5-dimethylphenyl)-4-hydroxy-8-methoxy-1-azaspiro(4.5)dec-3-en-2-one
Name: 3-(2,5-dimethylphenyl)-4-hydroxy-8-methoxy-1-azaspiro[4.5]dec-3-en-2-one
Formula: C18H23NO3
Exact mass: 301.1678
SMILES: CC1=CC(=C(C=C1)C)C2=C(C3(CCC(CC3)OC)NC2=O)O
InChI: InChI=1S/C18H23NO3/c1-11-4-5-12(2)14(10-11)15-16(20)18(19-17(15)21)8-6-13(22-3)7-9-18/h4-5,10,13,20H,6-9H2,1-3H3,(H,19,21)
Instrument: Exploris 240 Orbitrap Thermo Scientific
Instrument type: LC-ESI-QFT
Ms type: MS2
Ion mode: NEGATIVE
Ionization: ESI
Fragmentation mode: HCD
Collision energy: 15 % (nominal)
Resolution: 17500
Column name: XBridge C18 3.5um, 2.1x50mm, Waters
Retention time: 6.525 min
Base peak: 300.1604
Precursor m/z: 300.1605
Precursor type: [M-H]-
m/z	relative intensity	assigned
300.1605	999	C18H22NO3-
