Mass spectrum: LSD; LC-ESI-QFT; MS2; CE: 150; R=35000; [M+H]+
Name: LSD
Name: D-Lysergic acid N,N-diethylamide
Name: N,N-diethyl-7-methyl-6,6a,8,9-tetrahydro-4H-indolo[4,3-fg]quinoline-9-carboxamide
Formula: C20H25N3O
Exact mass: 323.19976
SMILES: CCN(CC)C(=O)C1CN(C2CC3=CNC4=CC=CC(=C34)C2=C1)C
InChI: InChI=1S/C20H25N3O/c1-4-23(5-2)20(24)14-9-16-15-7-6-8-17-19(15)13(11-21-17)10-18(16)22(3)12-14/h6-9,11,14,18,21H,4-5,10,12H2,1-3H3
Instrument: Q Exactive Plus Orbitrap Thermo Scientific
Instrument type: LC-ESI-QFT
Ms type: MS2
Ion mode: POSITIVE
Ionization: ESI
Fragmentation mode: HCD
Collision energy: 150 (nominal)
Resolution: 35000
Column name: XBridge C18 3.5um, 2.1x50mm, Waters
Retention time: 5.6 min
Base peak: 324.2062
Precursor m/z: 324.207
Precursor type: [M+H]+
m/z	relative intensity	assigned
50.0151	3	C4H2+
51.0229	3	C4H3+
53.0386	8	C4H5+
54.0338	5	C3H4N+
55.0178	8	C3H3O+
56.0495	4	C3H6N+
63.0227	4	C5H3+
65.0385	4	C5H5+
68.0495	1	C4H6N+
70.0651	1	C4H8N+
72.0444	1	C3H6NO+
74.015	2	C6H2+
74.0964	3	C4H12N+
75.0228	5	C6H3+
76.0306	2	C6H4+
77.0385	12	C6H5+
78.0464	5	C6H6+
86.0149	1	C7H2+
87.0229	2	C7H3+
89.0385	15	C7H5+
90.0465	4	C7H6+
91.0542	4	C7H7+
95.0491	22	C6H7O+
99.0229	2	C8H3+
102.0464	14	C8H6+
103.0542	10	C8H7+
105.0447	15	C6H5N2+
113.0385	6	C9H5+
114.0464	7	C9H6+
115.0542	71	C9H7+
116.0496	1	C8H6N+
116.062	5	C9H8+
117.0573	5	C8H7N+
117.0699	1	C9H9+
119.0492	2	C8H7O+
125.0386	9	C10H5+
126.0464	65	C10H6+
127.0542	63	C10H7+
128.0494	3	C9H6N+
128.062	40	C10H8+
129.0446	7	C8H5N2+
129.0575	1	C9H7N+
129.0699	4	C10H9+
130.0653	4	C9H8N+
132.0571	2	C9H8O+
137.0385	1	C11H5+
138.0464	5	C11H6+
139.0542	262	C11H7+
140.0495	40	C10H6N+
140.062	49	C11H8+
141.0574	5	C10H7N+
141.07	7	C11H9+
142.0652	3	C10H8N+
143.0494	1	C10H7O+
145.0648	45	C10H9O+
149.0386	1	C12H5+
150.0465	58	C12H6+
151.0542	77	C12H7+
152.062	999	C12H8+
153.0573	30	C11H7N+
153.0699	83	C12H9+
154.0651	91	C11H8N+
155.0603	115	C10H7N2+
156.0574	2	C11H8O+
156.081	1	C11H10N+
162.0463	4	C13H6+
163.0542	148	C13H7+
164.0497	11	C12H6N+
164.062	117	C13H8+
165.058	19	C12H7N+
165.0699	94	C13H9+
166.0651	95	C12H8N+
167.0729	44	C12H9N+
168.0569	41	C12H8O+
168.0808	2	C12H10N+
169.0648	187	C12H9O+
170.06	6	C11H8NO+
172.0524	1	C11H8O2+
176.0624	2	C14H8+
177.0572	10	C13H7N+
178.0651	143	C13H8N+
179.0604	104	C12H7N2+
179.0727	57	C13H9N+
180.0571	12	C13H8O+
180.0807	84	C13H10N+
181.0651	2	C13H9O+
181.0759	11	C12H9N2+
181.0884	1	C13H11N+
182.06	3	C12H8NO+
183.0679	4	C12H9NO+
183.0807	1	C13H11O+
184.0515	4	C12H8O2+
184.0756	4	C12H10NO+
185.0472	5	C11H7NO2+
188.0499	4	C14H6N+
189.0573	2	C14H7N+
190.065	21	C14H8N+
191.0609	5	C13H7N2+
191.0729	48	C14H9N+
192.0682	44	C13H8N2+
192.0808	11	C14H10N+
193.0761	13	C13H9N2+
193.0889	2	C14H11N+
194.0597	2	C13H8NO+
194.0965	6	C14H12N+
196.0519	18	C13H8O2+
198.0917	1	C13H12NO+
205.0761	73	C14H9N2+
206.0599	3	C14H8NO+
206.0839	44	C14H10N2+
207.0917	34	C14H11N2+
211.063	8	C13H9NO2+
219.0917	2	C15H11N2+
221.1072	1	C15H13N2+
