Mass spectrum: Meperidine; LC-ESI-QFT; MS2; CE: 60; R=35000; [M+H]+
Name: Meperidine
Name: ethyl 1-methyl-4-phenylpiperidine-4-carboxylate
Formula: C15H21NO2
Exact mass: 247.15723
SMILES: CCOC(=O)C1(CCN(CC1)C)C2=CC=CC=C2
InChI: InChI=1S/C15H21NO2/c1-3-18-14(17)15(9-11-16(2)12-10-15)13-7-5-4-6-8-13/h4-8H,3,9-12H2,1-2H3
Instrument: Q Exactive Orbitrap Thermo Scientific
Instrument type: LC-ESI-QFT
Ms type: MS2
Ion mode: POSITIVE
Ionization: ESI
Fragmentation mode: HCD
Collision energy: 60 (nominal)
Resolution: 35000
Column name: XBridge C18 3.5um, 2.1x50mm, Waters
Retention time: 5.4 min
Base peak: 248.1647
Precursor m/z: 248.1645
Precursor type: [M+H]+
m/z	relative intensity	assigned
58.0652	4	C3H8N+
67.0542	4	C5H7+
70.0651	838	C4H8N+
71.0729	1	C4H9N+
79.0542	1	C6H7+
81.0335	4	C5H5O+
82.0651	12	C5H8N+
83.073	8	C5H9N+
84.0809	1	C5H10N+
91.0542	80	C7H7+
96.0444	4	C5H6NO+
96.0808	33	C6H10N+
97.0886	27	C6H11N+
98.0965	76	C6H12N+
99.0441	42	C5H7O2+
103.0543	80	C8H7+
105.0336	11	C7H5O+
105.0699	29	C8H9+
115.0543	10	C9H7+
116.0621	6	C9H8+
117.0699	65	C9H9+
127.0754	1	C7H11O2+
128.062	5	C10H8+
129.0699	20	C10H9+
130.0778	11	C10H10+
131.0856	232	C10H11+
133.0649	5	C9H9O+
140.0707	4	C7H10NO2+
141.0699	1	C11H9+
142.0865	3	C7H12NO2+
143.0856	16	C11H11+
145.0648	11	C10H9O+
145.1012	28	C11H13+
146.0964	4	C10H12N+
158.0965	5	C11H12N+
159.0805	2	C11H11O+
159.1044	6	C11H13N+
169.0887	2	C12H11N+
172.1121	15	C12H14N+
174.1278	701	C12H16N+
175.1355	8	C12H17N+
176.1434	121	C12H18N+
184.1123	32	C13H14N+
202.1226	30	C13H16NO+
218.1177	5	C13H16NO2+
220.1333	999	C13H18NO2+
248.1647	148	C15H22NO2+
