Mass spectrum: MCLF; LC-ESI-QFT; MS2; CE: 15%; R=17500; [M+H]+
Name: MCLF
Name: Microcystin LF
Name: 15-benzyl-18-[(1E,3E)-6-methoxy-3,5-dimethyl-7-phenylhepta-1,3-dienyl]-1,5,12,19-tetramethyl-2-methylidene-8-(2-methylpropyl)-3,6,9,13,16,20,25-heptaoxo-1,4,7,10,14,17,21-heptazacyclopentacosane-11,22-dicarboxylic acid
Class: NA
Formula: C52H71N7O12
Exact mass: 985.5161
SMILES: COC(Cc1ccccc1)C(C)/C=C(C)/C=C/C2NC(=O)C(Cc3ccccc3)NC(=O)C(C)C(NC(=O)C(CC(C)C)NC(=O)C(C)NC(=O)C(=C)N(C)C(=O)CCC(NC(=O)C2C)C(O)=O)C(O)=O
InChI: InChI=1S/C52H71N7O12/c1-29(2)25-40-50(66)58-44(52(69)70)33(6)46(62)56-41(27-36-17-13-11-14-18-36)49(65)54-38(22-21-30(3)26-31(4)42(71-10)28-37-19-15-12-16-20-37)32(5)45(61)55-39(51(67)68)23-24-43(60)59(9)35(8)48(64)53-34(7)47(63)57-40/h11-22,26,29,31-34,38-42,44H,8,23-25,27-28H2,1-7,9-10H3,(H,53,64)(H,54,65)(H,55,61)(H,56,62)(H,57,63)(H,58,66)(H,67,68)(H,69,70)/b22-21+,30-26+
Instrument: Q Exactive Plus Orbitrap Thermo Scientific
Instrument type: LC-ESI-QFT
Ms type: MS2
Ion mode: POSITIVE
Ionization: ESI
Fragmentation mode: HCD
Collision energy: 15 % (nominal)
Resolution: 17500
Column name: XBridge C18 3.5um, 2.1x50mm, Waters
Retention time: 12.318 min
Base peak: 164.9846
Precursor m/z: 986.5233
Precursor type: [M+H]+
m/z	relative intensity	assigned
124.1113	4	C8H14N+
135.0803	26	C9H11O+
163.1118	58	C11H15O+
195.0765	35	C9H11N2O3+
218.1541	6	C14H20NO+
226.1587	8	C16H20N+
237.1236	4	C12H17N2O3+
237.1641	9	C4H23N5O6+
246.1487	10	C15H20NO2+
249.1232	24	C13H17N2O3+
258.1855	125	C3H26N6O7+
265.1591	33	C5H23N5O7+
268.1656	21	C13H22N3O3+
277.1191	8	H19N7O10+
294.145	104	C14H20N3O4+
297.1851	58	C20H25O2+
314.2117	6	C20H28NO2+
320.2004	5	C7H32N2O11+
347.1962	21	C19H27N2O4+
352.227	6	C23H30NO2+
375.1914	352	C20H27N2O5+
380.2231	15	C10H32N6O9+
389.2201	5	C8H33N6O11+
394.2014	6	C24H28NO4+
397.207	31	C17H33O10+
407.2288	203	C20H31N4O5+
433.245	22	C22H33N4O5+
446.2286	216	C23H32N3O6+
449.2423	6	C25H31N5O3+
460.2554	62	C23H34N5O5+
461.2391	109	C23H33N4O6+
477.2384	81	C28H33N2O5+
478.266	814	C23H36N5O6+
479.2519	6	C25H37NO8+
508.2373	20	C20H36N4O11+
509.2646	287	C29H37N2O6+
516.2825	34	C28H40N2O7+
541.3009	9	C28H45O10+
543.2919	90	C41H37N+
544.2764	343	C27H38N5O7+
548.2757	36	C31H38N3O6+
559.3125	356	C29H43N4O7+
561.303	396	C27H41N6O7+
580.3031	192	C34H44O8+
627.3142	16	C31H43N6O8+
640.3684	7	C46H46N3+
655.3076	28	C46H41NO3+
661.3591	35	C37H49N4O7+
663.3526	9	C38H45N7O4+
667.3809	33	C49H49NO+
672.3339	60	C44H42N5O2+
673.3191	58	C32H45N6O10+
675.375	8	C38H51N4O7+
688.3551	32	C34H50N5O10+
693.3857	195	C38H53N4O8+
699.2985	9	C33H43N6O11+
711.3335	22	C47H43N4O3+
718.4181	31	C42H58N2O8+
719.3652	7	C39H51N4O9+
723.4055	8	C50H51N4O+
751.401	42	C51H51N4O2+
756.3571	45	C51H44N6O+
801.4544	116	C44H61N6O8+
806.4454	29	C44H62N4O10+
807.4275	73	C42H59N6O10+
817.4111	31	C43H57N6O10+
822.4286	15	C43H60N5O11+
824.4536	12	C42H62N7O10+
834.4393	307	C43H60N7O10+
835.4236	506	C43H59N6O11+
852.4496	999	C43H62N7O11+
885.4753	24	C48H65N6O10+
909.4736	7	C50H65N6O10+
923.4922	6	C51H67N6O10+
936.4868	34	C51H66N7O10+
937.4743	38	C51H65N6O11+
940.5179	26	C51H70N7O10+
954.497	104	C51H68N7O11+
968.5125	333	C52H70N7O11+
969.4958	180	C52H69N6O12+
986.5229	763	C52H72N7O12+
