Mass spectrum: 8phiC8SPC; LC-ESI-QFT; MS2; CE: 60; R=35000; [M-H]-
Name: 8phiC8SPC
Name: Octacarboxy sulfophenyl carboxylic acid
Name: 8-(4-sulfophenyl)octanoic acid
Formula: C14H20O5S
Exact mass: 300.10314
SMILES: OS(=O)(=O)c1ccc(CCCCCCCC(=O)O)cc1
InChI: InChI=1S/C14H20O5S/c15-14(16)7-5-3-1-2-4-6-12-8-10-13(11-9-12)20(17,18)19/h8-11H,1-7H2,(H,15,16)(H,17,18,19)
Instrument: Q Exactive Plus Orbitrap Thermo Scientific
Instrument type: LC-ESI-QFT
Ms type: MS2
Ion mode: NEGATIVE
Ionization: ESI
Fragmentation mode: HCD
Collision energy: 60 (nominal)
Resolution: 35000
Column name: XBridge C18 3.5um, 2.1x50mm, Waters
Retention time: 8.0 min
Base peak: 299.0956
Precursor m/z: 299.0959
Precursor type: [M-H]-
m/z	relative intensity	assigned
63.9625	4	O2S-
79.9574	133	O3S-
80.9652	9	HO3S-
106.0425	2	C7H6O-
132.058	1	C9H8O-
155.9888	3	C6H4O3S-
170.0044	999	C7H6O3S-
171.0123	2	C7H7O3S-
183.0121	71	C8H7O3S-
184.02	6	C8H8O3S-
197.0277	8	C9H9O3S-
201.9942	18	C7H6O5S-
211.0437	2	C10H11O3S-
217.1234	7	C14H17O2-
225.0591	1	C11H13O3S-
235.1341	4	C14H19O3-
239.0744	1	C12H15O3S-
255.1063	4	C13H19O3S-
281.0853	78	C14H17O4S-
299.0961	412	C14H19O5S-
