Mass spectrum: 4,5-Dichloro-2-n-octyl-3(2H)-isothiazolone (DCOIT); LC-ESI-ITFT; MS2; CE: 90%; R=30000; [M+H]+
Name: 4,5-Dichloro-2-n-octyl-3(2H)-isothiazolone (DCOIT)
Name: 3(2H)-Isothiazolone, 4,5-dichloro-2-octyl-
Name: 4,5-bis(chloranyl)-2-octyl-1,2-thiazol-3-one
Formula: C11H17Cl2NOS
Exact mass: 281.0402
SMILES: O=c1c(Cl)c(Cl)sn1CCCCCCCC
InChI: InChI=1S/C11H17Cl2NOS/c1-2-3-4-5-6-7-8-14-11(15)9(12)10(13)16-14/h2-8H2,1H3
Instrument: LTQ Orbitrap XL Thermo Scientific
Instrument type: LC-ESI-ITFT
Ms type: MS2
Ion mode: POSITIVE
Ionization: ESI
Fragmentation mode: HCD
Collision energy: 90 % (nominal)
Resolution: 30000
Column name: XBridge C18 3.5um, 2.1x50mm, Waters
Retention time: 15.3 min
Base peak: 282.0485
Precursor m/z: 282.0481
Precursor type: [M+H]+
m/z	relative intensity	assigned
55.0541	10	C4H7+
57.0698	140	C4H9+
59.9901	17	CH2NS+
71.0855	10	C5H11+
78.9404	52	CClS+
82.9449	106	CHCl2+
90.9403	40	C2ClS+
91.9481	25	C2HClS+
107.9402	35	C2Cl2N+
122.9398	31	C3HCl2O+
126.917	155	C2HCl2S+
134.954	533	C3H2ClNOS+
151.9122	85	C3Cl2NS+
169.9229	999	C3H2Cl2NOS+
