Mass spectrum: D617; LC-ESI-ITFT; MS2; CE: 30%; R=7500; [M+H]+
Name: D617
Name: Verapamil metabolite D617
Name: 2-(3,4-dimethoxyphenyl)-2-isopropyl-5-(methylamino)valeronitrile
Formula: C17H26N2O2
Exact mass: 290.1994
SMILES: CC(C)C(CCCNC)(C#N)C1=CC(=C(C=C1)OC)OC
InChI: InChI=1S/C17H26N2O2/c1-13(2)17(12-18,9-6-10-19-3)14-7-8-15(20-4)16(11-14)21-5/h7-8,11,13,19H,6,9-10H2,1-5H3
Instrument: LTQ Orbitrap XL Thermo Scientific
Instrument type: LC-ESI-ITFT
Ms type: MS2
Ion mode: POSITIVE
Ionization: ESI
Fragmentation mode: HCD
Collision energy: 30 % (nominal)
Resolution: 7500
Column name: XBridge C18 3.5um, 2.1x50mm, Waters
Retention time: 6.3 min
Base peak: 291.2077
Precursor m/z: 291.2067
Precursor type: [M+H]+
m/z	relative intensity	assigned
70.0651	3	C4H8N+
122.0963	7	C8H12N+
136.0513	3	C8H8O2+
139.0747	4	C8H11O2+
151.0753	22	C9H11O2+
153.1385	4	C9H17N2+
165.091	8	C10H13O2+
177.0909	18	C11H13O2+
217.1105	3	C13H15NO2+
218.1174	9	C13H16NO2+
233.1538	8	C15H21O2+
243.1384	8	C16H19O2+
245.1416	4	C15H19NO2+
248.1522	58	C14H20N2O2+
260.1646	167	C16H22NO2+
264.1962	7	C16H26NO2+
291.2071	999	C17H27N2O2+
