Mass spectrum: Diazepam; LC-ESI-ITFT; MS2; CE: 60%; R=15000; [M+H]+
Name: Diazepam
Name: 7-chloranyl-1-methyl-5-phenyl-3H-1,4-benzodiazepin-2-one
Formula: C16H13ClN2O
Exact mass: 284.0716
SMILES: CN1C2=C(C=C(Cl)C=C2)C(=NCC1=O)C3=CC=CC=C3
InChI: InChI=1S/C16H13ClN2O/c1-19-14-8-7-12(17)9-13(14)16(18-10-15(19)20)11-5-3-2-4-6-11/h2-9H,10H2,1H3
Instrument: LTQ Orbitrap XL Thermo Scientific
Instrument type: LC-ESI-ITFT
Ms type: MS2
Ion mode: POSITIVE
Ionization: ESI
Fragmentation mode: HCD
Collision energy: 60 % (nominal)
Resolution: 15000
Column name: XBridge C18 3.5um, 2.1x50mm, Waters
Retention time: 10.1 min
Base peak: 285.0798
Precursor m/z: 285.0789
Precursor type: [M+H]+
m/z	relative intensity	assigned
58.0287	19	C2H4NO+
91.0542	129	C7H7+
104.0495	16	C7H6N+
105.0335	49	C7H5O+
116.0494	28	C8H6N+
117.0574	31	C8H7N+
118.0651	19	C8H8N+
119.073	9	C8H9N+
125.0154	23	C7H6Cl+
138.9944	11	C7H4ClO+
140.0264	18	C7H7ClN+
141.034	26	C7H8ClN+
143.0605	6	C9H7N2+
144.0442	6	C9H6NO+
144.0677	11	C9H8N2+
147.0678	46	C9H9NO+
150.0105	30	C8H5ClN+
152.0259	25	C8H7ClN+
154.0418	999	C8H9ClN+
165.0213	13	C8H6ClN2+
167.0132	83	C8H6ClNO+
172.0631	123	C10H8N2O+
179.037	106	C9H8ClN2+
180.0211	102	C9H7ClNO+
180.0799	14	C13H10N+
181.088	6	C13H11N+
182.0366	105	C9H9ClNO+
191.0732	12	C14H9N+
193.0886	793	C14H11N+
194.0964	21	C14H12N+
204.0808	26	C15H10N+
205.0887	16	C15H11N+
206.0842	11	C14H10N2+
207.0314	14	C10H8ClN2O+
207.0918	23	C14H11N2+
216.0574	64	C13H11ClN+
220.099	19	C15H12N2+
221.0835	17	C15H11NO+
221.1071	66	C15H13N2+
222.1151	657	C15H14N2+
226.0417	28	C14H9ClN+
227.0495	72	C14H10ClN+
228.0574	514	C14H11ClN+
230.0732	38	C14H13ClN+
240.0576	20	C15H11ClN+
241.0526	193	C14H10ClN2+
242.0605	53	C14H11ClN2+
243.0682	9	C14H12ClN2+
255.0683	141	C15H12ClN2+
256.0763	9	C15H13ClN2+
257.0839	416	C15H14ClN2+
269.0482	8	C15H10ClN2O+
285.0786	564	C16H14ClN2O+
