Mass spectrum: Chromafenozide; LC-ESI-QFT; MS2; CE: 45%; R=17500; [M-H]-
Name: Chromafenozide
Name: N`-tert-butyl-N`-(3,5-dimethylbenzoyl)-5-methyl-3,4-dihydro-2H-chromene-6-carbohydrazide
Formula: C24H30N2O3
Exact mass: 394.2256
SMILES: CC1=CC(=CC(=C1)C(=O)N(C(C)(C)C)NC(=O)C2=C(C3=C(C=C2)OCCC3)C)C
InChI: InChI=1S/C24H30N2O3/c1-15-12-16(2)14-18(13-15)23(28)26(24(4,5)6)25-22(27)20-9-10-21-19(17(20)3)8-7-11-29-21/h9-10,12-14H,7-8,11H2,1-6H3,(H,25,27)
Instrument: Exploris 240 Orbitrap Thermo Scientific
Instrument type: LC-ESI-QFT
Ms type: MS2
Ion mode: NEGATIVE
Ionization: ESI
Fragmentation mode: HCD
Collision energy: 45 % (nominal)
Resolution: 17500
Column name: XBridge C18 3.5um, 2.1x50mm, Waters
Retention time: 9.615 min
Base peak: 393.2184
Precursor m/z: 393.2184
Precursor type: [M-H]-
m/z	relative intensity	assigned
105.071	150	C8H9-
147.0818	5	C10H11O-
148.0774	5	C9H10NO-
149.0606	999	C9H9O2-
191.0717	21	C11H11O3-
204.1393	49	C13H18NO-
337.1543	17	C20H21N2O3-
