Mass spectrum: Normianserin; LC-ESI-QFT; MS2; CE: 60; R=35000; [M+H]+
Name: Normianserin
Name: N-desmethylmianserin
Name: 1,2,3,4,10,14b-Hexahydrodibenzo[c,f]pyrazino[1,2-a]azepine
Formula: C17H18N2
Exact mass: 250.14700
SMILES: C3c1ccccc1C2CNCCN2c4ccccc34
InChI: InChI=1S/C17H18N2/c1-3-7-15-13(5-1)11-14-6-2-4-8-16(14)19-10-9-18-12-17(15)19/h1-8,17-18H,9-12H2
Instrument: Q Exactive Plus Orbitrap Thermo Scientific
Instrument type: LC-ESI-QFT
Ms type: MS2
Ion mode: POSITIVE
Ionization: ESI
Fragmentation mode: HCD
Collision energy: 60 (nominal)
Resolution: 35000
Column name: XBridge C18 3.5um, 2.1x50mm, Waters
Retention time: 6.7 min
Base peak: 251.1539
Precursor m/z: 251.1543
Precursor type: [M+H]+
m/z	relative intensity	assigned
51.0228	2	C4H3+
56.0494	37	C3H6N+
58.0651	5	C3H8N+
65.0384	4	C5H5+
68.0131	3	C3H2NO+
71.0603	30	C3H7N2+
77.0383	7	C6H5+
78.0463	2	C6H6+
79.0542	11	C6H7+
80.0494	1	C5H6N+
83.0602	2	C4H7N2+
84.0681	3	C4H8N2+
91.0542	210	C7H7+
92.0494	17	C6H6N+
93.0573	11	C6H7N+
93.0698	13	C7H9+
94.0651	5	C6H8N+
95.0491	6	C6H7O+
103.0541	42	C8H7+
104.0494	5	C7H6N+
105.0698	109	C8H9+
106.0651	51	C7H8N+
107.0728	3	C7H9N+
109.0648	2	C7H9O+
115.0542	76	C9H7+
116.0493	8	C8H6N+
116.062	12	C9H8+
117.0572	28	C8H7N+
117.0698	79	C9H9+
118.065	526	C8H8N+
119.0603	2	C7H7N2+
119.0729	17	C8H9N+
119.0855	5	C9H11+
120.0807	526	C8H10N+
128.0617	5	C10H8+
129.0698	54	C10H9+
130.0651	115	C9H8N+
131.0602	1	C8H7N2+
131.0729	14	C9H9N+
131.0855	7	C10H11+
132.0807	387	C9H10N+
133.0884	2	C9H11N+
134.0963	22	C9H12N+
141.0697	4	C11H9+
142.065	2	C10H8N+
143.0729	26	C10H9N+
144.0807	75	C10H10N+
145.0761	9	C9H9N2+
145.0885	11	C10H11N+
146.0963	40	C10H12N+
147.0916	189	C9H11N2+
156.0806	6	C11H10N+
157.0886	1	C11H11N+
158.0963	63	C11H12N+
159.0916	9	C10H11N2+
160.0994	19	C10H12N2+
165.0699	3	C13H9+
166.0777	5	C13H10+
167.0856	2	C13H11+
178.0776	18	C14H10+
179.0854	48	C14H11+
180.0806	3	C13H10N+
181.101	23	C14H13+
191.0853	6	C15H11+
192.0804	2	C14H10N+
192.0933	2	C15H12+
193.0885	166	C14H11N+
194.0963	39	C14H12N+
196.1119	36	C14H14N+
202.0777	2	C16H10+
203.0854	2	C16H11+
204.0807	21	C15H10N+
205.0885	17	C15H11N+
206.0964	39	C15H12N+
207.1043	19	C15H13N+
208.112	999	C15H14N+
217.0885	3	C16H11N+
217.1009	2	C17H13+
218.0963	25	C16H12N+
219.1042	27	C16H13N+
220.112	21	C16H14N+
221.1072	3	C15H13N2+
222.1276	31	C16H16N+
223.1229	8	C15H15N2+
232.1119	15	C17H14N+
233.1197	1	C17H15N+
234.1275	40	C17H16N+
235.123	1	C16H15N2+
249.1385	56	C17H17N2+
251.1541	85	C17H19N2+
