Mass spectrum: Ronidazole; LC-ESI-QFT; MS2; CE: 180; R=35000; [M+H]+
Name: Ronidazole
Name: (1-methyl-5-nitroimidazol-2-yl)methyl carbamate
Formula: C6H8N4O4
Exact mass: 200.05455
SMILES: CN1C(=CN=C1COC(=O)N)[N+](=O)[O-]
InChI: InChI=1S/C6H8N4O4/c1-9-4(3-14-6(7)11)8-2-5(9)10(12)13/h2H,3H2,1H3,(H2,7,11)
Instrument: Q Exactive Plus Orbitrap Thermo Scientific
Instrument type: LC-ESI-QFT
Ms type: MS2
Ion mode: POSITIVE
Ionization: ESI
Fragmentation mode: HCD
Collision energy: 180 (nominal)
Resolution: 35000
Column name: XBridge C18 3.5um, 2.1x50mm, Waters
Retention time: 2.3 min
Base peak: 201.0615
Precursor m/z: 201.0618
Precursor type: [M+H]+
m/z	relative intensity	assigned
52.0183	488	C3H2N+
53.0261	162	C3H3N+
54.0339	735	C3H4N+
55.0417	612	C3H5N+
56.0132	6	C2H2NO+
66.0339	999	C4H4N+
67.0417	95	C4H5N+
69.0447	17	C3H5N2+
79.029	3	C4H3N2+
81.0447	7	C4H5N2+
97.0398	3	C4H5N2O+
