Mass spectrum: Oxadiazon; LC-ESI-QFT; MS2; CE: 30; R=35000; [M+H]+
Name: Oxadiazon
Name: 5-tert-butyl-3-(2,4-dichloro-5-propan-2-yloxyphenyl)-1,3,4-oxadiazol-2-one
Formula: C15H18Cl2N2O3
Exact mass: 344.06945
SMILES: CC(C)OC1=C(C=C(C(=C1)N2C(=O)OC(=N2)C(C)(C)C)Cl)Cl
InChI: InChI=1S/C15H18Cl2N2O3/c1-8(2)21-12-7-11(9(16)6-10(12)17)19-14(20)22-13(18-19)15(3,4)5/h6-8H,1-5H3
Instrument: Q Exactive Plus Orbitrap Thermo Scientific
Instrument type: LC-ESI-QFT
Ms type: MS2
Ion mode: POSITIVE
Ionization: ESI
Fragmentation mode: HCD
Collision energy: 30 (nominal)
Resolution: 35000
Column name: XBridge C18 3.5um, 2.1x50mm, Waters
Retention time: 15.4 min
Base peak: 273.2055
Precursor m/z: 345.0767
Precursor type: [M+H]+
m/z	relative intensity	assigned
57.0699	28	C4H9+
84.0808	2	C5H10N+
147.9715	3	C5H4Cl2N+
148.9555	1	C5H3Cl2O+
155.0006	2	C6H4ClN2O+
173.951	1	C6H2Cl2NO+
175.9665	11	C6H4Cl2NO+
176.9505	163	C6H3Cl2O2+
182.9956	5	C7H4ClN2O2+
183.9797	35	C7H3ClNO3+
184.9875	114	C7H4ClNO3+
195.0684	5	C10H12ClN2+
201.9458	17	C7H2Cl2NO2+
202.9523	1	C10ClO3+
202.9774	4	C7H5Cl2N2O+
217.0395	1	C7H15Cl2O3+
218.9726	5	C7H5Cl2N2O2+
219.9563	999	C7H4Cl2NO3+
223.0636	2	C11H12ClN2O+
224.0714	2	C11H13ClN2O+
239.058	3	C11H12ClN2O2+
246.9674	2	C8H5Cl2N2O3+
259.04	15	C11H13Cl2N2O+
267.0525	1	C12H12ClN2O3+
303.0298	457	C12H13Cl2N2O3+
335.0557	1	C13H17Cl2N2O4+
345.0767	25	C15H19Cl2N2O3+
