Mass spectrum: Gabapentin Related Compound E; LC-ESI-QFT; MS2; CE: 180; R=35000; [M+H]+
Name: Gabapentin Related Compound E
Name: 1-(carboxymethyl)cyclohexanecarboxylic acid
Name: 1-(carboxymethyl)cyclohexane-1-carboxylic acid
Formula: C9H14O4
Exact mass: 186.08921
SMILES: C1CC[C@@](CC1)(C(=O)O)CC(=O)O
InChI: InChI=1S/C9H14O4/c10-7(11)6-9(8(12)13)4-2-1-3-5-9/h1-6H2,(H,10,11)(H,12,13)
Instrument: Q Exactive Plus Orbitrap Thermo Scientific
Instrument type: LC-ESI-QFT
Ms type: MS2
Ion mode: POSITIVE
Ionization: ESI
Fragmentation mode: HCD
Collision energy: 180 (nominal)
Resolution: 35000
Column name: XBridge C18 3.5um, 2.1x50mm, Waters
Retention time: 6.8 min
Base peak: 141.091
Precursor m/z: 187.0965
Precursor type: [M+H]+
m/z	relative intensity	assigned
50.0152	67	C4H2+
51.023	277	C4H3+
53.0022	187	C3HO+
53.0386	760	C4H5+
53.9975	43	C2NO+
55.0179	19	C3H3O+
55.0543	332	C4H7+
57.0335	21	C3H5O+
65.0386	284	C5H5+
66.0464	162	C5H6+
67.0543	290	C5H7+
67.9893	20	C3O2+
77.0386	164	C6H5+
78.0465	10	C6H6+
79.0543	999	C6H7+
80.0621	14	C6H8+
81.0699	313	C6H9+
91.0543	40	C7H7+
93.07	6	C7H9+
94.0416	3	C6H6O+
95.0492	469	C6H7O+
105.0448	248	C6H5N2+
