Mass spectrum: 4-Aminoantipyrine; LC-ESI-ITFT; MS2; CE: 75%; R=7500; [M+H]+
Name: 4-Aminoantipyrine
Name: 4-amino-1,5-dimethyl-2-phenyl-3-pyrazolin-3-one
Formula: C11H13N3O
Exact mass: 203.1059
SMILES: c(ccc1N(N(C=2C)C)C(=O)C2N)cc1
InChI: InChI=1S/C11H13N3O/c1-8-10(12)11(15)14(13(8)2)9-6-4-3-5-7-9/h3-7H,12H2,1-2H3
Instrument: LTQ Orbitrap XL Thermo Scientific
Instrument type: LC-ESI-ITFT
Ms type: MS2
Ion mode: POSITIVE
Ionization: ESI
Fragmentation mode: HCD
Collision energy: 75 % (nominal)
Resolution: 7500
Column name: XBridge C18 3.5um, 2.1x50mm, Waters
Retention time: 2.6 min
Base peak: 204.1138
Precursor m/z: 204.1131
Precursor type: [M+H]+
m/z	relative intensity	assigned
56.0495	999	C3H6N+
58.0651	45	C3H8N+
68.0494	16	C4H6N+
77.0386	44	C6H5+
83.0604	116	C4H7N2+
85.0761	30	C4H9N2+
94.0652	371	C6H8N+
104.0495	76	C7H6N+
105.0448	12	C6H5N2+
118.065	29	C8H8N+
128.0495	39	C9H6N+
130.0651	24	C9H8N+
132.0442	15	C8H6NO+
132.0809	37	C9H10N+
145.0759	28	C9H9N2+
146.0599	50	C9H8NO+
159.0917	54	C10H11N2+
160.0868	9	C9H10N3+
188.0826	11	C10H10N3O+
