Mass spectrum: Quinalphos; LC-ESI-QFT; MS2; CE: 30%; R=17500; [M+H]+
Name: Quinalphos
Name: diethoxy-quinoxalin-2-yloxy-sulfanylidene-lambda5-phosphane
Formula: C12H15N2O3PS
Exact mass: 298.0541
SMILES: CCOP(=S)(OCC)OC1=NC2=CC=CC=C2N=C1
InChI: InChI=1S/C12H15N2O3PS/c1-3-15-18(19,16-4-2)17-12-9-13-10-7-5-6-8-11(10)14-12/h5-9H,3-4H2,1-2H3
Instrument: Exploris 240 Orbitrap Thermo Scientific
Instrument type: LC-ESI-QFT
Ms type: MS2
Ion mode: POSITIVE
Ionization: ESI
Fragmentation mode: HCD
Collision energy: 30 % (nominal)
Resolution: 17500
Column name: XBridge C18 3.5um, 2.1x50mm, Waters
Retention time: 10.502 min
Base peak: 299.061
Precursor m/z: 299.0614
Precursor type: [M+H]+
m/z	relative intensity	assigned
96.9507	155	H2O2PS+
109.0051	21	C2H6O3P+
114.9614	133	H4O3PS+
124.9821	232	C2H6O2PS+
147.0552	999	C8H7N2O+
153.0133	127	C4H10O2PS+
163.0324	897	C8H7N2S+
224.9881	105	C8H6N2O2PS+
242.9987	841	C8H8N2O3PS+
253.0191	49	C10H10N2O2PS+
271.03	520	C10H12N2O3PS+
299.0613	854	C12H16N2O3PS+
