Mass spectrum: Thiacloprid; LC-ESI-ITFT; MS2; CE: 90%; R=7500; [M+H]+
Name: Thiacloprid
Name: (Z)-[3-[(6-Chloro-3-pyridinyl)methyl]-2-thiazolidinylidene]cyanamide
Name: Calypso
Formula: C10H9ClN4S
Exact mass: 252.0236
SMILES: C1CSC(=NC#N)N1CC2=CN=C(C=C2)Cl
InChI: InChI=1S/C10H9ClN4S/c11-9-2-1-8(5-13-9)6-15-3-4-16-10(15)14-7-12/h1-2,5H,3-4,6H2
Instrument: LTQ Orbitrap XL Thermo Scientific
Instrument type: LC-ESI-ITFT
Ms type: MS2
Ion mode: POSITIVE
Ionization: ESI
Fragmentation mode: HCD
Collision energy: 90 % (nominal)
Resolution: 7500
Column name: XBridge C18 3.5um, 2.1x50mm, Waters
Retention time: 5.8 min
Base peak: 253.0312
Precursor m/z: 253.0309
Precursor type: [M+H]+
m/z	relative intensity	assigned
63.023	26	C5H3+
64.0183	1	C4H2N+
65.0386	4	C5H5+
72.984	38	C3H2Cl+
80.0495	2	C5H6N+
81.0336	5	C5H5O+
90.0338	295	C6H4N+
91.0417	56	C6H5N+
98.9996	294	C5H4Cl+
108.0444	16	C3H9ClN2+
123.9952	1	C6H3ClN+
126.0105	999	C6H5ClN+
144.0211	53	C6H7ClNO+
151.0057	3	C7H4ClN2+
