Mass spectrum: Terbuthylazine-TP CSAA036479 (LM2); LC-ESI-QFT; MS2; CE: 45%; R=17500; [M+H]+
Name: Terbuthylazine-TP CSAA036479 (LM2)
Name: 2-[(6-amino-4-oxo-1H-1,3,5-triazin-2-yl)amino]-2-methylpropanoic acid
Formula: C7H11N5O3
Exact mass: 213.0862
SMILES: CC(C)(NC1=NC(N)=NC(O)=N1)C(O)=O
InChI: InChI=1S/C7H11N5O3/c1-7(2,3(13)14)12-5-9-4(8)10-6(15)11-5/h1-2H3,(H,13,14)(H4,8,9,10,11,12,15)
Instrument: Q Exactive Plus Orbitrap Thermo Scientific
Instrument type: LC-ESI-QFT
Ms type: MS2
Ion mode: POSITIVE
Ionization: ESI
Fragmentation mode: HCD
Collision energy: 45 % (nominal)
Resolution: 17500
Column name: XBridge C18 3.5um, 2.1x50mm, Waters
Retention time: 1.352 min
Base peak: 214.0934
Precursor m/z: 214.0935
Precursor type: [M+H]+
m/z	relative intensity	assigned
58.0651	16	C3H8N+
59.049	6	C3H7O+
69.0333	3	C4H5O+
83.0603	7	C4H7N2+
84.0443	34	C4H6NO+
85.0509	50	C2H5N4+
86.0348	67	C2H4N3O+
87.0441	6	C4H7O2+
111.03	3	C3H3N4O+
126.0662	281	C5H8N3O+
127.0615	4	C4H7N4O+
128.0566	159	C3H6N5O+
151.0615	21	C6H7N4O+
168.088	999	C6H10N5O+
172.0716	3	C6H10N3O3+
196.0828	18	C7H10N5O2+
214.0934	76	C7H12N5O3+
