Mass spectrum: Isoxaflutole; LC-ESI-QFT; MS2; CE: 75; R=35000; [M+H]+
Name: Isoxaflutole
Name: (5-cyclopropyl-1,2-oxazol-4-yl)-[2-methylsulfonyl-4-(trifluoromethyl)phenyl]methanone
Formula: C15H12F3NO4S
Exact mass: 359.04391
SMILES: O=C(c1c(onc1)C2CC2)c3ccc(cc3S(=O)(=O)C)C(F)(F)F
InChI: InChI=1S/C15H12F3NO4S/c1-24(21,22)12-6-9(15(16,17)18)4-5-10(12)13(20)11-7-19-23-14(11)8-2-3-8/h4-8H,2-3H2,1H3
Instrument: Q Exactive Plus Orbitrap Thermo Scientific
Instrument type: LC-ESI-QFT
Ms type: MS2
Ion mode: POSITIVE
Ionization: ESI
Fragmentation mode: HCD
Collision energy: 75 (nominal)
Resolution: 35000
Column name: XBridge C18 3.5um, 2.1x50mm, Waters
Retention time: 8.7 min
Base peak: 360.0506
Precursor m/z: 360.0512
Precursor type: [M+H]+
m/z	relative intensity	assigned
50.0151	1	C4H2+
51.0229	3	C4H3+
53.0022	5	C3HO+
55.0178	5	C3H3O+
57.0135	3	C3H2F+
58.995	1	C2H3S+
59.9665	6	COS+
62.9699	6	CFS+
62.99	70	CH3OS+
63.0227	5	C5H3+
67.0179	1	C4H3O+
68.9792	5	C3HS+
68.9946	3	CF3+
69.0335	47	C4H5O+
70.0214	12	C4H3F+
74.9899	1	C2H3OS+
75.0041	4	C3HF2+
75.0229	7	C6H3+
77.0197	1	C3H3F2+
77.0385	1	C6H5+
78.9848	16	CH3O2S+
79.0178	21	C5H3O+
83.0292	21	C5H4F+
88.0119	1	C4H2F2+
89.0385	1	C7H5+
90.0278	1	C4H4F2+
90.9991	6	C3HF2O+
94.995	12	C5H3S+
95.0103	2	C3H2F3+
95.0291	1	C6H4F+
95.0492	1	C6H7O+
96.0369	1	C6H5F+
97.008	1	C5H2FO+
97.0108	14	C5H5S+
98.0159	1	C5H3FO+
98.0189	5	C5H6S+
100.0119	1	C5H2F2+
101.0198	173	C5H3F2+
102.0112	1	C4H3FO2+
103.0355	2	C5H5F2+
105.0337	1	C7H5O+
105.0449	2	C6H5N2+
107.0128	1	C6H3O2+
108.0029	31	C6H4S+
109.0449	286	C7H6F+
110.016	35	C6H3FO+
112.0319	49	C6H5FO+
113.0198	16	C6H3F2+
113.0399	1	C6H6FO+
113.9934	3	C5H3FS+
114.0278	11	C6H4F2+
115.0013	117	C5H4FS+
115.0355	9	C6H5F2+
118.0225	5	C5H4F2O+
119.0105	16	C5H2F3+
119.0293	4	C8H4F+
120.0182	160	C5H3F3+
121.0261	50	C5H4F3+
123.0054	2	C4H2F3O+
123.0354	4	C3H9NO2S+
125.0197	9	C7H3F2+
127.0355	137	C7H5F2+
128.027	4	C6H5FO2+
129.0147	107	C6H3F2O+
130.0227	1	C6H4F2O+
131.0306	4	C6H5F2O+
132.0182	390	C6H3F3+
133.026	97	C6H4F3+
134.0338	3	C6H5F3+
137.04	1	C8H6FO+
139.0014	9	C7H4FS+
139.0355	24	C8H5F2+
141.0147	171	C7H3F2O+
141.0259	26	C3H8FNO2S+
142.0226	11	C7H4F2O+
143.0105	8	C7H2F3+
143.0305	35	C7H5F2O+
143.9841	6	C8O3+
144.0183	52	C7H3F3+
144.9919	86	C8HO3+
145.0261	45	C7H4F3+
146.0173	7	C6H4F2O2+
146.0339	4	C7H5F3+
147.0077	25	C8H3O3+
147.0356	28	C2H10FNO3S+
147.0417	4	C7H6F3+
148.0131	18	C6H3F3O+
149.021	257	C6H4F3O+
151.9905	1	C7HFO3+
156.992	198	C9HO3+
158.0339	1	C8H5F3+
159.0418	118	C8H6F3+
160.0132	418	C7H3F3O+
161.021	320	C7H4F3O+
162.0288	98	C7H5F3O+
163.0369	1	C7H6F3O+
163.9903	229	C6H3F3S+
164.9982	339	C8H2FO3+
166.0238	57	C6H5F3O2+
167.0314	21	C6H6F3O2+
171.0076	3	C10H3O3+
172.0132	241	C8H3F3O+
172.0237	15	C4H8F2NO2S+
173.021	52	C8H4F3O+
173.0322	15	C4H9F2NO2S+
174.0165	23	C7H3F3NO+
174.029	2	C8H5F3O+
175.0367	54	C8H6F3O+
175.9903	15	
176.0079	14	C7H3F3O2+
176.9982	142	C9H2FO3+
177.0158	63	C7H4F3O2+
178.0238	51	C7H5F3O2+
179.0138	75	C7H6F3S+
181.0472	2	C7H8F3O2+
183.0418	3	C10H6F3+
188.0082	14	C8H3F3O2+
189.0159	312	C8H4F3O2+
192.0265	1	C7H5F3NO2+
192.9932	196	C9H2FO4+
194.0186	5	C7H5F3O3+
195.0087	4	C7H6F3OS+
195.0267	5	C7H6F3O3+
195.9802	35	C6H3F3O2S+
203.0313	1	C9H6F3O2+
203.9855	15	C10HFO4+
204.0145	5	C4H8F2NO4S+
204.993	12	C10H2FO4+
206.0188	80	C8H5F3O3+
207.9801	1	C7H3F3O2S+
219.9803	999	C8H3F3O2S+
220.9881	180	C8H4F3O2S+
235.0035	1	C9H6F3O2S+
235.061	1	C13H8F3N+
238.0483	1	C6H13F3O4S+
250.9987	416	C9H6F3O3S+
283.0249	1	C10H10F3O4S+
