Mass spectrum: Atropine; LC-ESI-QFT; MS2; CE: 30; R=35000; [M+H]+
Name: Atropine
Name: (1R,5S)-8-Methyl-8-azabicyclo[3.2.1]oct-3-yl tropate
Formula: C17H23NO3
Exact mass: 289.16779
SMILES: CN1[C@@H]2CC[C@H]1C[C@H](C2)OC(=O)C(CO)C3=CC=CC=C3
InChI: InChI=1S/C17H23NO3/c1-18-13-7-8-14(18)10-15(9-13)21-17(20)16(11-19)12-5-3-2-4-6-12/h2-6,13-16,19H,7-11H2,1H3/t13-,14+,15+,16?
Instrument: Q Exactive Orbitrap Thermo Scientific
Instrument type: LC-ESI-QFT
Ms type: MS2
Ion mode: POSITIVE
Ionization: ESI
Fragmentation mode: HCD
Collision energy: 30 (nominal)
Resolution: 35000
Column name: XBridge C18 3.5um, 2.1x50mm, Waters
Retention time: 4.3 min
Base peak: 290.1752
Precursor m/z: 290.1751
Precursor type: [M+H]+
m/z	relative intensity	assigned
67.0542	1	C5H7+
91.0539	2	C7H7+
93.0698	22	C7H9+
124.1121	203	C8H14N+
125.1199	1	C8H15N+
142.1227	1	C8H16NO+
260.1645	8	C16H22NO2+
290.175	999	C17H24NO3+
