Mass spectrum: Vinclozolin; LC-ESI-QFT; MS2; CE: 45; R=35000; [M+H]+
Name: Vinclozolin
Name: 3-(3,5-dichlorophenyl)-5-ethenyl-5-methyl-1,3-oxazolidine-2,4-dione
Formula: C12H9Cl2NO3
Exact mass: 284.99595
SMILES: O=C2OC(C(=O)N2c1cc(Cl)cc(Cl)c1)(\C=C)C
InChI: InChI=1S/C12H9Cl2NO3/c1-3-12(2)10(16)15(11(17)18-12)9-5-7(13)4-8(14)6-9/h3-6H,1H2,2H3
Instrument: Q Exactive Orbitrap Thermo Scientific
Instrument type: LC-ESI-QFT
Ms type: MS2
Ion mode: POSITIVE
Ionization: ESI
Fragmentation mode: HCD
Collision energy: 45 (nominal)
Resolution: 35000
Column name: XBridge C18 3.5um, 2.1x50mm, Waters
Retention time: 12.2 min
Base peak: 205.9771
Precursor m/z: 286.0032
Precursor type: [M+H]+
m/z	relative intensity	assigned
53.0388	1	C4H5+
61.0284	6	C2H5O2+
62.9997	6	C2H4Cl+
64.003	2	H2NO3+
67.0542	1	C5H7+
71.0491	2	C4H7O+
81.0335	9	C5H5O+
81.0699	1	C6H9+
83.0491	1	C5H7O+
93.0698	3	C7H9+
97.0647	1	C6H9O+
98.9841	11	CH4ClO3+
99.044	1	C5H7O2+
104.0492	1	C7H6N+
105.0698	1	C8H9+
115.0538	7	C9H7+
139.0183	1	C7H6ClN+
140.0494	1	C10H6N+
141.0571	2	C10H7N+
142.0652	8	C10H8N+
143.0729	55	C10H9N+
144.0807	181	C10H10N+
149.0152	5	C9H6Cl+
150.0228	1	C9H7Cl+
151.0183	26	C8H6ClN+
151.0312	7	C9H8Cl+
158.9759	1	C7H5Cl2+
160.0755	1	C10H10NO+
162.023	12	C10H7Cl+
164.026	275	C9H7ClN+
165.0338	14	C9H8ClN+
169.0523	11	C11H7NO+
170.06	16	C11H8NO+
171.0677	1	C11H9NO+
171.9716	2	C7H4Cl2N+
172.0757	2	C11H10NO+
173.9871	999	C7H6Cl2N+
174.971	6	C7H5Cl2O+
176.026	23	C10H7ClN+
177.0339	55	C10H8ClN+
178.0417	248	C10H9ClN+
179.0495	422	C10H10ClN+
184.9796	9	C8H5Cl2N+
184.9918	26	C9H7Cl2+
185.9872	21	C8H6Cl2N+
187.0185	2	C11H6ClN+
188.0705	131	C11H10NO2+
189.0336	2	C11H8ClN+
190.0048	1	C10H5ClNO+
191.0132	5	C10H6ClNO+
194.0366	12	C10H9ClNO+
195.9715	4	C9H4Cl2N+
196.9919	14	C10H7Cl2+
197.9871	48	C9H6Cl2N+
198.9948	13	C9H7Cl2N+
199.9662	36	C8H4Cl2NO+
200.0029	9	C9H8Cl2N+
204.0211	77	C11H7ClNO+
205.0288	47	C11H8ClNO+
206.0366	16	C11H9ClNO+
207.0445	51	C11H10ClNO+
208.016	2	C10H7ClNO2+
209.024	1	C10H8ClNO2+
212.0028	368	C10H8Cl2N+
212.9867	3	C10H7Cl2O+
214.0184	146	C10H10Cl2N+
215.9617	1	C8H4Cl2NO2+
216.0656	1	C12H10NO3+
217.977	892	C8H6Cl2NO2+
221.9871	71	C11H6Cl2N+
222.0316	12	C11H9ClNO2+
223.0393	166	C11H10ClNO2+
224.0026	40	C11H8Cl2N+
225.9824	7	C10H6Cl2NO+
226.9899	3	C10H7Cl2NO+
229.9777	2	C9H6Cl2NO2+
231.9563	2	C8H4Cl2NO3+
232.0169	1	C12H7ClNO2+
233.023	7	C12H8ClNO2+
239.9976	110	C11H8Cl2NO+
242.013	25	C11H10Cl2NO+
243.9928	7	C10H8Cl2NO2+
251.0346	12	C12H10ClNO3+
258.0084	5	C11H10Cl2NO2+
267.9927	18	C12H8Cl2NO2+
286.0032	18	C12H10Cl2NO3+
