Mass spectrum: MCYR; LC-ESI-QFT; MS2; CE: 60%; R=17500; [M-H]-
Name: MCYR
Name: Microcystin YR
Name: (5R,8S,11R,12S,15S,18S,19S,22R)-15-[3-(diaminomethylideneamino)propyl]-8-[(4-hydroxyphenyl)methyl]-18-[(1E,3E,5S,6S)-6-methoxy-3,5-dimethyl-7-phenylhepta-1,3-dienyl]-1,5,12,19-tetramethyl-2-methylidene-3,6,9,13,16,20,25-heptaoxo-1,4,7,10,14,17,21-heptazacyclopentacosane-11,22-dicarboxylic acid
Class: NA
Formula: C52H72N10O13
Exact mass: 1044.5280
SMILES: CO[C@@H](Cc1ccccc1)[C@@H](C)\C=C(C)\C=C\[C@@H]2NC(=O)[C@H](CCCNC(N)=N)NC(=O)[C@@H](C)[C@@H](NC(=O)[C@H](Cc3ccc(O)cc3)NC(=O)[C@@H](C)NC(=O)C(=C)N(C)C(=O)CC[C@@H](NC(=O)[C@H]2C)C(O)=O)C(O)=O
InChI: InChI=1S/C52H72N10O13/c1-28(25-29(2)41(75-8)27-34-13-10-9-11-14-34)16-21-37-30(3)44(65)59-39(50(71)72)22-23-42(64)62(7)33(6)47(68)56-32(5)46(67)60-40(26-35-17-19-36(63)20-18-35)49(70)61-43(51(73)74)31(4)45(66)58-38(48(69)57-37)15-12-24-55-52(53)54/h9-11,13-14,16-21,25,29-32,37-41,43,63H,6,12,15,22-24,26-27H2,1-5,7-8H3,(H,56,68)(H,57,69)(H,58,66)(H,59,65)(H,60,67)(H,61,70)(H,71,72)(H,73,74)(H4,53,54,55)/b21-16+,28-25+/t29-,30-,31-,32+,37-,38-,39+,40-,41-,43+/m0/s1
Instrument: Q Exactive Plus Orbitrap Thermo Scientific
Instrument type: LC-ESI-QFT
Ms type: MS2
Ion mode: NEGATIVE
Ionization: ESI
Fragmentation mode: HCD
Collision energy: 60 % (nominal)
Resolution: 17500
Column name: XBridge C18 3.5um, 2.1x50mm, Waters
Retention time: 8.062 min
Base peak: 190.9277
Precursor m/z: 1043.5208
Precursor type: [M-H]-
m/z	relative intensity	assigned
72.0453	68	C3H6NO-
73.0408	218	C2H5N2O-
74.0248	90	C2H4NO2-
82.0297	95	C4H4NO-
83.0251	88	C3H3N2O-
84.0455	92	C4H6NO-
85.0406	29	C3H5N2O-
87.0565	125	C3H7N2O-
93.0346	70	C6H5O-
97.0405	37	C4H5N2O-
98.0251	54	C4H4NO2-
99.0201	107	C3H3N2O2-
99.0565	259	C4H7N2O-
107.0503	51	C7H7O-
108.0454	22	C6H6NO-
109.0408	835	C5H5N2O-
110.0248	412	C5H4NO2-
111.02	31	C4H3N2O2-
111.0565	58	C5H7N2O-
112.0404	138	C5H6NO2-
113.0357	165	C4H5N2O2-
113.0719	40	C5H9N2O-
119.0502	362	C8H7O-
120.0456	32	C7H6NO-
123.0563	75	C6H7N2O-
124.0403	213	C6H6NO2-
124.0515	100	C5H6N3O-
125.0356	32	C5H5N2O2-
125.0717	66	C6H9N2O-
126.0673	191	C5H8N3O-
127.0511	145	C5H7N2O2-
128.0353	999	C5H6NO3-
131.0868	35	C10H11-
134.0607	61	C8H8NO-
138.0434	58	C6H6N2O2-
138.056	24	C7H8NO2-
139.0511	37	C6H7N2O2-
142.0619	125	C5H8N3O2-
144.0452	23	C9H6NO-
144.0775	291	C5H10N3O2-
150.0558	112	C8H8NO2-
152.0826	38	C7H10N3O-
153.0669	174	C7H9N2O2-
154.0985	34	C7H12N3O-
156.0778	40	C6H10N3O2-
162.0557	386	C9H8NO2-
167.082	66	C8H11N2O2-
168.1143	41	C8H14N3O-
169.0488	40	C6H7N3O3-
170.0565	56	C6H8N3O3-
170.0935	75	C7H12N3O2-
179.0826	23	C9H11N2O2-
180.114	57	C9H14N3O-
181.0977	85	C9H13N2O2-
182.0929	29	C8H12N3O2-
205.0979	42	C11H13N2O2-
206.0932	50	C10H12N3O2-
209.1035	197	C8H17O6-
