Mass spectrum: Clothianidin; LC-ESI-ITFT; MS2; CE: 30%; R=7500; [M+H]+
Name: Clothianidin
Name: 1-[(2-chloranyl-1,3-thiazol-5-yl)methyl]-2-methyl-3-nitro-guanidine
Name: 1-[(2-chloro-1,3-thiazol-5-yl)methyl]-2-methyl-3-nitroguanidine
Formula: C6H8ClN5O2S
Exact mass: 249.0087
SMILES: Clc1ncc(s1)CN/C(=N/C)N[N+]([O-])=O
InChI: InChI=1S/C6H8ClN5O2S/c1-8-6(11-12(13)14)10-3-4-2-9-5(7)15-4/h2H,3H2,1H3,(H2,8,10,11)
Instrument: LTQ Orbitrap XL Thermo Scientific
Instrument type: LC-ESI-ITFT
Ms type: MS2
Ion mode: POSITIVE
Ionization: ESI
Fragmentation mode: HCD
Collision energy: 30 % (nominal)
Resolution: 7500
Column name: XBridge C18 3.5um, 2.1x50mm, Waters
Retention time: 4.9 min
Base peak: 250.0165
Precursor m/z: 250.016
Precursor type: [M+H]+
m/z	relative intensity	assigned
70.9949	1	C3H3S+
78.9406	1	CClS+
86.0058	11	C3H4NS+
109.0632	2	C5H7N3+
110.0713	25	C5H8N3+
111.0787	1	C5H9N3+
113.0168	113	C4H5N2S+
119.9668	5	C3H3ClNS+
131.9669	992	C4H3ClNS+
142.0429	2	C5H8N3S+
143.051	8	C5H9N3S+
146.9779	17	C4H4ClN2S+
147.962	2	C4H3ClNOS+
147.9857	15	C4H5ClN2S+
148.9934	5	C4H6ClN2S+
152.0276	3	C6H6N3S+
167.0387	5	C6H7N4S+
168.0465	261	C6H8N4S+
169.0543	999	C6H9N4S+
172.9809	15	C5H4ClN3S+
174.9726	33	C5H4ClN2OS+
186.9966	2	C6H6ClN3S+
188.0048	2	C6H7ClN3S+
203.0157	4	C6H8ClN4S+
204.0231	42	C6H9ClN4S+
206.0148	53	C6H9ClN3OS+
250.0161	35	C6H9ClN5O2S+
