Mass spectrum: 8phiC8SPC; LC-ESI-QFT; MS2; CE: 45; R=35000; [M-H]-
Name: 8phiC8SPC
Name: Octacarboxy sulfophenyl carboxylic acid
Name: 8-(4-sulfophenyl)octanoic acid
Formula: C14H20O5S
Exact mass: 300.10314
SMILES: OS(=O)(=O)c1ccc(CCCCCCCC(=O)O)cc1
InChI: InChI=1S/C14H20O5S/c15-14(16)7-5-3-1-2-4-6-12-8-10-13(11-9-12)20(17,18)19/h8-11H,1-7H2,(H,15,16)(H,17,18,19)
Instrument: Q Exactive Plus Orbitrap Thermo Scientific
Instrument type: LC-ESI-QFT
Ms type: MS2
Ion mode: NEGATIVE
Ionization: ESI
Fragmentation mode: HCD
Collision energy: 45 (nominal)
Resolution: 35000
Column name: XBridge C18 3.5um, 2.1x50mm, Waters
Retention time: 8.0 min
Base peak: 299.0956
Precursor m/z: 299.0959
Precursor type: [M-H]-
m/z	relative intensity	assigned
79.9574	24	O3S-
80.9652	1	HO3S-
170.0044	150	C7H6O3S-
183.0119	5	C8H7O3S-
184.0201	1	C8H8O3S-
201.9942	2	C7H6O5S-
217.1235	3	C14H17O2-
235.1339	2	C14H19O3-
255.1058	1	C13H19O3S-
281.0853	47	C14H17O4S-
299.0958	999	C14H19O5S-
