Mass spectrum: Cetirizine N-Oxide; LC-ESI-QFT; MS2; CE: 30; R=35000; [M+H]+
Name: Cetirizine N-Oxide
Name: (R)-Cetirizine N-Oxide
Name: 2-[2-[4-[(4-chlorophenyl)-phenylmethyl]-1-oxidopiperazin-1-ium-1-yl]ethoxy]acetic acid
Formula: C21H25ClN2O4
Exact mass: 404.15028
SMILES: C1C[N+](CCN1C(C2=CC=CC=C2)C3=CC=C(C=C3)Cl)(CCOCC(=O)O)[O-]
InChI: InChI=1S/C21H25ClN2O4/c22-19-8-6-18(7-9-19)21(17-4-2-1-3-5-17)23-10-12-24(27,13-11-23)14-15-28-16-20(25)26/h1-9,21H,10-16H2,(H,25,26)
Instrument: Q Exactive Plus Orbitrap Thermo Scientific
Instrument type: LC-ESI-QFT
Ms type: MS2
Ion mode: POSITIVE
Ionization: ESI
Fragmentation mode: HCD
Collision energy: 30 (nominal)
Resolution: 35000
Column name: XBridge C18 3.5um, 2.1x50mm, Waters
Retention time: 9.4 min
Base peak: 405.1573
Precursor m/z: 405.1576
Precursor type: [M+H]+
m/z	relative intensity	assigned
56.0493	2	C3H6N+
58.0651	17	C3H8N+
68.0494	1	C4H6N+
69.0572	1	C4H7N+
70.065	3	C4H8N+
71.0729	2	C4H9N+
72.0807	1	C4H10N+
73.0885	10	C4H11N+
83.0602	1	C4H7N2+
84.0682	15	C4H8N2+
84.0807	10	C5H10N+
85.076	1	C4H9N2+
86.06	1	C4H8NO+
97.076	14	C5H9N2+
99.0917	87	C5H11N2+
104.0618	3	C8H8+
111.0916	10	C6H11N2+
112.0995	91	C6H12N2+
113.1073	1	C6H13N2+
114.0913	10	C6H12NO+
130.0651	1	C9H8N+
132.0655	59	C5H10NO3+
138.0232	1	C8H7Cl+
146.0812	183	C6H12NO3+
147.089	5	C6H13NO3+
148.0968	1	C6H14NO3+
158.0811	3	C7H12NO3+
159.0917	5	C10H11N2+
160.0968	8	C7H14NO3+
164.0263	1	C9H7ClN+
165.0693	6	C13H9+
166.0774	5	C13H10+
173.1048	3	C8H15NO3+
179.0856	7	C14H11+
185.0921	1	C8H13N2O3+
186.1	2	C8H14N2O3+
187.1077	104	C8H15N2O3+
188.1159	1	C8H16N2O3+
189.0464	2	C12H10Cl+
189.1234	2	C8H17N2O3+
201.0465	999	C13H10Cl+
206.0964	32	C15H12N+
214.0543	1	C14H11Cl+
216.0574	15	C13H11ClN+
217.0415	17	C13H10ClO+
228.0574	38	C14H11ClN+
229.0653	93	C14H12ClN+
240.0574	112	C15H11ClN+
241.0653	217	C15H12ClN+
242.073	255	C15H13ClN+
254.0731	1	C16H13ClN+
268.0885	2	C17H15ClN+
271.0991	1	C19H13NO+
283.0996	16	C17H16ClN2+
284.1074	35	C17H17ClN2+
285.1155	10	C17H18ClN2+
286.1238	2	C17H19ClN2+
299.1309	176	C18H20ClN2+
311.1309	2	C19H20ClN2+
312.1389	24	C19H21ClN2+
313.1466	21	C19H22ClN2+
387.1471	15	C21H24ClN2O3+
388.1549	22	C21H25ClN2O3+
405.1577	315	C21H26ClN2O4+
