Mass spectrum: Ketoconazole; LC-ESI-QFT; MS2; CE: 90; R=35000; [M+H]+
Name: Ketoconazole
Name: 1-[4-[4-[[(2R,4S)-2-(2,4-dichlorophenyl)-2-(imidazol-1-ylmethyl)-1,3-dioxolan-4-yl]methoxy]phenyl]piperazin-1-yl]ethanone
Formula: C26H28Cl2N4O4
Exact mass: 530.14876
SMILES: CC(=O)N1CCN(CC1)C2=CC=C(C=C2)OC[C@H]3CO[C@](O3)(CN4C=CN=C4)C5=C(C=C(C=C5)Cl)Cl
InChI: InChI=1S/C26H28Cl2N4O4/c1-19(33)31-10-12-32(13-11-31)21-3-5-22(6-4-21)34-15-23-16-35-26(36-23,17-30-9-8-29-18-30)24-7-2-20(27)14-25(24)28/h2-9,14,18,23H,10-13,15-17H2,1H3/t23-,26-/m0/s1
Instrument: Q Exactive Plus Orbitrap Thermo Scientific
Instrument type: LC-ESI-QFT
Ms type: MS2
Ion mode: POSITIVE
Ionization: ESI
Fragmentation mode: HCD
Collision energy: 90 (nominal)
Resolution: 35000
Column name: XBridge C18 3.5um, 2.1x50mm, Waters
Retention time: 7.9 min
Base peak: 531.1558
Precursor m/z: 531.156
Precursor type: [M+H]+
m/z	relative intensity	assigned
53.0022	2	C3HO+
53.0386	10	C4H5+
54.0338	90	C3H4N+
55.0178	6	C3H3O+
55.0416	14	C3H5N+
55.0543	1	C4H7+
56.0495	75	C3H6N+
57.0573	2	C3H7N+
58.0651	7	C3H8N+
63.0229	1	C5H3+
65.0386	29	C5H5+
66.0464	1	C5H6+
67.0291	1	C3H3N2+
67.0417	1	C4H5N+
67.0543	2	C5H7+
68.0369	37	C3H4N2+
68.0495	8	C4H6N+
69.0447	106	C3H5N2+
70.0651	130	C4H8N+
71.0603	40	C3H7N2+
75.0229	1	C6H3+
77.0384	9	C6H5+
78.0464	1	C6H6+
79.0542	72	C6H7+
80.0131	1	C4H2NO+
80.0494	13	C5H6N+
81.0447	999	C4H5N2+
82.0525	590	C4H6N2+
83.0603	17	C4H7N2+
84.984	1	C4H2Cl+
85.0284	1	C4H5O2+
86.06	20	C4H8NO+
89.0385	10	C7H5+
90.0464	1	C7H6+
91.0542	53	C7H7+
92.0495	2	C6H6N+
93.0337	4	C6H5O+
93.0574	4	C6H7N+
93.0699	6	C7H9+
94.0413	27	C6H6O+
94.0651	11	C6H8N+
95.0492	37	C6H7O+
95.0604	8	C5H7N2+
96.0443	4	C5H6NO+
98.9996	15	C5H4Cl+
99.0229	1	C8H3+
102.0464	5	C8H6+
103.0542	55	C8H7+
104.0494	11	C7H6N+
104.062	5	C8H8+
105.0337	1	C7H5O+
105.0448	16	C6H5N2+
105.0572	5	C7H7N+
105.0699	13	C8H9+
106.0651	32	C7H8N+
107.0492	44	C7H7O+
107.0604	8	C6H7N2+
107.0729	4	C7H9N+
108.0444	8	C6H6NO+
108.057	1	C7H8O+
108.0807	1	C7H10N+
108.9841	3	C6H2Cl+
109.0397	23	C5H5N2O+
109.0523	4	C6H7NO+
109.0761	5	C6H9N2+
111.0441	16	C6H7O2+
111.0555	2	C5H7N2O+
112.0757	81	C6H10NO+
115.0542	79	C9H7+
116.0495	1	C8H6N+
116.062	13	C9H8+
117.0573	36	C8H7N+
117.0699	23	C9H9+
118.0413	2	C8H6O+
118.0651	54	C8H8N+
119.0492	3	C8H7O+
119.0603	1	C7H7N2+
119.073	12	C8H9N+
119.0856	3	C9H11+
120.0444	286	C7H6NO+
120.0808	47	C8H10N+
121.0396	33	C6H5N2O+
121.0521	12	C7H7NO+
121.0646	8	C8H9O+
121.076	2	C7H9N2+
122.06	122	C7H8NO+
122.9996	127	C7H4Cl+
124.0075	9	C7H5Cl+
125.0152	17	C7H6Cl+
125.9868	1	C6H3ClO+
126.9945	10	C6H4ClO+
127.0502	172	C5H7N2O2+
128.0024	2	C6H5ClO+
128.0621	21	C10H8+
129.0101	4	C6H6ClO+
129.0699	15	C10H9+
130.0652	78	C9H8N+
131.0492	25	C9H7O+
131.0604	8	C8H7N2+
131.073	34	C9H9N+
132.0444	1	C8H6NO+
132.057	17	C9H8O+
132.0808	22	C9H10N+
132.9608	4	C5H3Cl2+
133.0522	14	C8H7NO+
133.0648	1	C9H9O+
134.06	86	C8H8NO+
134.9995	4	C8H4Cl+
135.0678	22	C8H9NO+
136.0075	26	C8H5Cl+
136.0757	75	C8H10NO+
137.0153	6	C8H6Cl+
139.0057	8	C6H4ClN2+
139.0308	5	C8H8Cl+
141.0572	1	C10H7N+
142.0652	2	C10H8N+
143.073	20	C10H9N+
144.0565	3	C10H8O+
144.0808	32	C10H10N+
144.9606	3	C6H3Cl2+
145.005	1	C6H6ClO2+
145.0526	1	C6H10ClN2+
145.0648	9	C10H9O+
145.0885	6	C10H11N+
145.9684	6	C6H4Cl2+
146.0601	31	C9H8NO+
146.0964	29	C10H12N+
146.9763	5	C6H5Cl2+
147.0555	1	C8H7N2O+
147.068	7	C9H9NO+
148.0757	39	C9H10NO+
149.0153	34	C9H6Cl+
150.0231	47	C9H7Cl+
151.0312	6	C9H8Cl+
154.0652	3	C11H8N+
154.9896	3	C7H4ClO2+
155.0603	10	C10H7N2+
155.073	3	C11H9N+
156.0684	6	C10H8N2+
156.0809	13	C11H10N+
157.0889	3	C11H11N+
157.9685	54	C7H4Cl2+
158.06	12	C10H8NO+
158.0968	6	C11H12N+
158.9763	283	C7H5Cl2+
159.0679	18	C10H9NO+
160.0758	23	C10H10NO+
161.0709	1	C9H9N2O+
161.0836	1	C10H11NO+
161.9637	1	C6H4Cl2O+
162.0106	2	C9H5ClN+
162.0913	3	C10H12NO+
162.9712	3	C6H5Cl2O+
163.0058	7	C8H4ClN2+
163.0309	2	C10H8Cl+
163.0867	3	C9H11N2O+
167.0259	7	C9H8ClO+
167.0815	22	C8H11N2O2+
168.0681	1	C11H8N2+
169.0761	1	C11H9N2+
169.9685	169	C8H4Cl2+
170.9762	28	C8H5Cl2+
171.9837	1	C8H6Cl2+
172.0756	10	C11H10NO+
172.9556	103	C7H3Cl2O+
172.9669	39	C6H3Cl2N2+
174.0914	31	C11H12NO+
174.971	6	C7H5Cl2O+
176.0707	1	C10H10NO2+
176.107	1	C11H14NO+
177.0341	3	C10H8ClN+
177.0785	1	C10H11NO2+
177.1024	6	C10H13N2O+
178.0862	1	C10H12NO2+
182.9764	4	C9H5Cl2+
184.0759	1	C12H10NO+
184.9917	5	C9H7Cl2+
185.9633	26	C8H4Cl2O+
186.9713	3	C8H5Cl2O+
189.9581	1	C7H4Cl2O2+
191.0368	1	C10H8ClN2+
192.1021	7	C11H14NO2+
198.971	1	C9H5Cl2O+
203.0371	26	C11H8ClN2+
204.0213	4	C8H10Cl2N2+
204.0451	2	C11H9ClN2+
205.0288	9	C11H8ClNO+
236.998	2	C11H7Cl2N2+
239.998	3	C11H8Cl2NO+
252.9928	11	C11H7Cl2N2O+
255.0087	9	C11H9Cl2N2O+
267.0088	6	C12H9Cl2N2O+
