Mass spectrum: Bisperfluorodecyl phosphate; LC-ESI-ITFT; MS2; CE: 30%; R=15000; [M+H]+
Name: Bisperfluorodecyl phosphate
Name: 8:2diPAP
Name: Bis(1H,1H,2H,2H-perfluorodecyl)phosphate
Formula: C20H9F34O4P
Exact mass: 989.9696
SMILES: FC(F)(CCOP(=O)(OCCC(F)(F)C(F)(F)C(F)(F)C(F)(F)C(F)(F)C(F)(F)C(F)(F)C(F)(F)F)O)C(F)(F)C(F)(F)C(F)(F)C(F)(F)C(F)(F)C(F)(F)C(F)(F)F
InChI: InChI=1S/C20H9F34O4P/c21-5(22,7(25,26)9(29,30)11(33,34)13(37,38)15(41,42)17(45,46)19(49,50)51)1-3-57-59(55,56)58-4-2-6(23,24)8(27,28)10(31,32)12(35,36)14(39,40)16(43,44)18(47,48)20(52,53)54/h1-4H2,(H,55,56)
Instrument: LTQ Orbitrap XL Thermo Scientific
Instrument type: LC-ESI-ITFT
Ms type: MS2
Ion mode: POSITIVE
Ionization: ESI
Fragmentation mode: HCD
Collision energy: 30 % (nominal)
Resolution: 15000
Column name: XBridge C18 3.5um, 2.1x50mm, Waters
Retention time: 20.4 min
Base peak: 413.2651
Precursor m/z: 990.9768
Precursor type: [M+H]+
m/z	relative intensity	assigned
98.9839	999	H4O4P+
