Mass spectrum: Atazanavir; LC-ESI-QFT; MS2; CE: 60; R=35000; [M+H]+
Name: Atazanavir
Name: N-[(1S)-1-[[(1S,2S)-1-benzyl-3-[[[(2S)-2-(carbomethoxyamino)-3,3-dimethyl-butanoyl]amino]-[4-(2-pyridyl)benzyl]amino]-2-hydroxy-propyl]carbamoyl]-2,2-dimethyl-propyl]carbamic acid methyl ester
Formula: C38H52N6O7
Exact mass: 704.38975
SMILES: CC(C)(C)C(C(=O)NC(CC1=CC=CC=C1)C(CN(CC2=CC=C(C=C2)C3=CC=CC=N3)NC(=O)C(C(C)(C)C)NC(=O)OC)O)NC(=O)OC
InChI: InChI=1S/C38H52N6O7/c1-37(2,3)31(41-35(48)50-7)33(46)40-29(22-25-14-10-9-11-15-25)30(45)24-44(43-34(47)32(38(4,5)6)42-36(49)51-8)23-26-17-19-27(20-18-26)28-16-12-13-21-39-28/h9-21,29-32,45H,22-24H2,1-8H3,(H,40,46)(H,41,48)(H,42,49)(H,43,47)/t29-,30-,31+,32+/m0/s1
Instrument: Q Exactive Orbitrap Thermo Scientific
Instrument type: LC-ESI-QFT
Ms type: MS2
Ion mode: POSITIVE
Ionization: ESI
Fragmentation mode: HCD
Collision energy: 60 (nominal)
Resolution: 35000
Column name: XBridge C18 3.5um, 2.1x50mm, Waters
Retention time: 11.6 min
Base peak: 705.3972
Precursor m/z: 705.397
Precursor type: [M+H]+
m/z	relative intensity	assigned
100.1122	2	C6H14N+
101.0961	14	C6H13O+
102.0549	1	C4H8NO2+
103.0542	3	C8H7+
105.0701	2	C8H9+
112.0757	29	C6H10NO+
115.0541	9	C9H7+
117.0572	3	C8H7N+
117.0699	3	C9H9+
120.0808	32	C8H10N+
128.062	1	C10H8+
129.0699	12	C10H9+
131.0856	2	C10H11+
132.0808	1	C9H10N+
134.0963	1	C9H12N+
139.0541	8	C11H7+
140.0497	2	C10H6N+
140.0623	3	C11H8+
141.0698	15	C11H9+
144.102	123	C7H14NO2+
146.0964	3	C10H12N+
147.0808	1	C10H11O+
153.0571	2	C11H7N+
156.0809	1	C11H10N+
166.0653	14	C12H8N+
167.0732	232	C12H9N+
168.0807	999	C12H10N+
169.0884	16	C12H11N+
170.0962	7	C12H12N+
183.0916	1	C12H11N2+
