Mass spectrum: Chlorothalonil TP SYN548581; LC-ESI-QFT; MS2; CE: 60%; R=15000; [M+H]+
Name: Chlorothalonil TP SYN548581
Name: 4-carbamoyl-2,3,5-trichloro-6-cyanobenzenesulfonic acid
Formula: C8H3Cl3N2O4S
Exact mass: 327.8879
SMILES: NC(=O)C1=C(Cl)C(Cl)=C(C(C#N)=C1Cl)S(O)(=O)=O
InChI: InChI=1S/C8H3Cl3N2O4S/c9-4-2(1-12)7(18(15,16)17)6(11)5(10)3(4)8(13)14/h(H2,13,14)(H,15,16,17)
Instrument: Orbitrap Exploris 240 Thermo Scientific
Instrument type: LC-ESI-QFT
Ms type: MS2
Ion mode: POSITIVE
Ionization: ESI
Fragmentation mode: HCD
Collision energy: 60 % (nominal)
Resolution: 15000
Column name: Atlantis C18 3um, 3.0x150mm, Waters
Retention time: 10.461 min
Base peak: 132.9582
Precursor m/z: 328.8952
Precursor type: [M+H]+
Precursor intensity: 4062616.5
m/z	relative intensity	assigned
63.9851	37	H2NOS+
130.9452	41	C5HCl2+
145.9555	31	C5H2Cl2N+
157.9559	583	C6H2Cl2N+
158.9638	404	C6H3Cl2N+
164.9066	35	C5Cl3+
164.9856	26	C7H2ClN2O+
166.9215	313	C5H2Cl3+
172.9667	263	C6H3Cl2N2+
173.9505	101	C6H2Cl2NO+
175.9664	37	C6H4Cl2NO+
181.9323	36	C8Cl2O+
185.9507	334	C7H2Cl2NO+
186.9588	79	C7H3Cl2NO+
191.9169	666	C6HCl3N+
191.9612	69	C6H4Cl2NO2+
193.9325	503	C6H3Cl3N+
200.9615	168	C7H3Cl2N2O+
201.9459	34	C7H2Cl2NO2+
203.9171	77	C7HCl3N+
204.8997	45	C2HCl2NO4S+
210.9462	28	C8HCl2N2O+
212.9617	57	C8H3Cl2N2O+
219.9118	174	C7HCl3NO+
221.9273	520	C7H3Cl3NO+
222.9115	514	C7H2Cl3O2+
228.9572	89	C8H3Cl2N2O2+
229.9408	106	C8H2Cl2NO3+
234.9231	60	C7H2Cl3N2O+
246.9236	85	C8H2Cl3N2O+
247.9064	999	C8HCl3NO2+
249.9134	26	C7H2Cl2NO3S+
265.9171	80	C8H3Cl3NO3+
266.9012	42	C8H2Cl3O4+
285.8901	152	C7H3Cl3NO3S+
311.8692	58	C8HCl3NO4S+
328.8967	87	C8H4Cl3N2O4S+
