Mass spectrum: Dioxabenzofos; LC-ESI-QFT; MS2; CE: 60%; R=17500; [M+H]+
Name: Dioxabenzofos
Name: 2-methoxy-2-sulfanylidene-4H-1,3,2lambda5-benzodioxaphosphinine
Formula: C8H9O3PS
Exact mass: 216.0010
SMILES: COP1(=S)OCC2=CC=CC=C2O1
InChI: InChI=1S/C8H9O3PS/c1-9-12(13)10-6-7-4-2-3-5-8(7)11-12/h2-5H,6H2,1H3
Instrument: Exploris 240 Orbitrap Thermo Scientific
Instrument type: LC-ESI-QFT
Ms type: MS2
Ion mode: POSITIVE
Ionization: ESI
Fragmentation mode: HCD
Collision energy: 60 % (nominal)
Resolution: 17500
Column name: XBridge C18 3.5um, 2.1x50mm, Waters
Retention time: 7.127 min
Base peak: 217.0083
Precursor m/z: 217.0083
Precursor type: [M+H]+
m/z	relative intensity	assigned
53.0388	4	C4H5+
62.9453	22	PS+
77.0385	17	C6H5+
79.0542	96	C6H7+
91.0543	4	C7H7+
107.0491	999	C7H7O+
109.0109	31	C6H5S+
110.9664	45	CH4O2PS+
121.0107	35	C7H5S+
123.0263	515	C7H7S+
128.9765	21	CH6O3PS+
137.0419	16	C8H9S+
166.9712	10	C7H4OPS+
186.998	31	C7H8O2PS+
202.9924	23	C7H8O3PS+
205.009	6	C7H10O3PS+
217.0082	49	C8H10O3PS+
