Mass spectrum: Rimantadine; LC-ESI-QFT; MS2; CE: 15; R=35000; [M+H]+
Name: Rimantadine
Name: 1-(1-adamantyl)ethanamine
Formula: C12H21N
Exact mass: 179.16740
SMILES: NC(C)C13CC2CC(CC(C1)C2)C3
InChI: InChI=1S/C12H21N/c1-8(13)12-5-9-2-10(6-12)4-11(3-9)7-12/h8-11H,2-7,13H2,1H3
Instrument: Q Exactive Orbitrap Thermo Scientific
Instrument type: LC-ESI-QFT
Ms type: MS2
Ion mode: POSITIVE
Ionization: ESI
Fragmentation mode: HCD
Collision energy: 15 (nominal)
Resolution: 35000
Column name: XBridge C18 3.5um, 2.1x50mm, Waters
Retention time: 6.5 min
Base peak: 180.1746
Precursor m/z: 180.1747
Precursor type: [M+H]+
m/z	relative intensity	assigned
55.0541	1	C4H7+
67.0539	3	C5H7+
69.0698	1	C5H9+
81.0698	27	C6H9+
93.0696	4	C7H9+
95.0854	2	C7H11+
107.0853	6	C8H11+
121.101	4	C9H13+
135.1167	4	C10H15+
163.148	879	C12H19+
180.1745	999	C12H22N+
