Mass spectrum: Olanzapine; LC-ESI-QFT; MS2; CE: 75; R=35000; [M+H]+
Name: Olanzapine
Name: 2-methyl-4-(4-methylpiperazin-1-yl)-5H-thieno[3,2-c][1,5]benzodiazepine
Formula: C17H20N4S
Exact mass: 312.14087
SMILES: CC1=CC2=C(NC3=CC=CC=C3N=C2S1)N4CCN(CC4)C
InChI: InChI=1S/C17H20N4S/c1-12-11-13-16(21-9-7-20(2)8-10-21)18-14-5-3-4-6-15(14)19-17(13)22-12/h3-6,11,18H,7-10H2,1-2H3
Instrument: Q Exactive Plus Orbitrap Thermo Scientific
Instrument type: LC-ESI-QFT
Ms type: MS2
Ion mode: POSITIVE
Ionization: ESI
Fragmentation mode: HCD
Collision energy: 75 (nominal)
Resolution: 35000
Column name: XBridge C18 3.5um, 2.1x50mm, Waters
Retention time: 3.1 min
Base peak: 313.1474
Precursor m/z: 313.1481
Precursor type: [M+H]+
m/z	relative intensity	assigned
53.0386	2	C4H5+
55.0542	6	C4H7+
56.0495	11	C3H6N+
58.0651	79	C3H8N+
58.995	7	C2H3S+
65.0385	9	C5H5+
67.0416	2	C4H5N+
68.0494	3	C4H6N+
68.9793	1	C3HS+
69.0572	5	C4H7N+
70.065	4	C4H8N+
70.995	11	C3H3S+
72.0808	5	C4H10N+
77.0383	1	C6H5+
78.0337	1	C5H4N+
79.0542	4	C6H7+
80.0494	1	C5H6N+
82.0651	12	C5H8N+
82.995	2	C4H3S+
83.0603	1	C4H7N2+
84.0808	236	C5H10N+
85.0106	3	C4H5S+
85.076	28	C4H9N2+
90.0339	2	C6H4N+
91.0543	1	C7H7+
92.0495	23	C6H6N+
93.0574	3	C6H7N+
94.0652	6	C6H8N+
95.049	1	C6H7O+
96.0442	1	C5H6NO+
97.0107	1	C5H5S+
99.0916	1	C5H11N2+
101.1072	4	C5H13N2+
104.0494	10	C7H6N+
105.0448	1	C6H5N2+
106.0651	15	C7H8N+
107.0603	2	C6H7N2+
109.0106	8	C6H5S+
110.0059	10	C5H4NS+
111.0262	2	C6H7S+
115.0542	26	C9H7+
116.0494	6	C8H6N+
117.0573	17	C8H7N+
117.0698	1	C9H9+
118.0525	3	C7H6N2+
118.0651	4	C8H8N+
119.0604	12	C7H7N2+
120.0806	5	C8H10N+
123.0136	1	C6H5NS+
128.0494	3	C9H6N+
128.0622	3	C10H8+
129.0447	2	C8H5N2+
130.0652	3	C9H8N+
131.0604	3	C8H7N2+
132.0682	14	C8H8N2+
133.0761	11	C8H9N2+
134.0599	4	C8H8NO+
136.0216	3	C7H6NS+
137.0168	1	C6H5N2S+
140.0496	8	C10H6N+
142.0652	31	C10H8N+
143.0603	5	C9H7N2+
143.0731	3	C10H9N+
144.0553	1	C8H6N3+
145.0762	1	C9H9N2+
146.006	3	C8H4NS+
146.0185	9	C9H6S+
148.0215	5	C8H6NS+
150.0248	1	C7H6N2S+
150.0372	2	C8H8NS+
151.0323	1	C7H7N2S+
152.0497	3	C11H6N+
153.0573	7	C11H7N+
154.0525	1	C10H6N2+
154.0651	15	C11H8N+
155.0603	23	C10H7N2+
155.0731	3	C11H9N+
156.0682	3	C10H8N2+
157.0759	2	C10H9N2+
158.0837	3	C10H10N2+
159.0262	2	C10H7S+
160.0344	1	C10H8S+
160.0757	3	C10H10NO+
160.0866	1	C9H10N3+
161.0167	1	C8H5N2S+
166.0651	3	C12H8N+
167.0604	14	C11H7N2+
167.0727	2	C12H9N+
168.0682	19	C11H8N2+
169.076	445	C11H9N2+
170.0602	3	C11H8NO+
170.0837	4	C11H10N2+
171.0136	5	C10H5NS+
172.0214	3	C10H6NS+
173.0169	37	C9H5N2S+
173.0292	19	C10H7NS+
174.0248	5	C9H6N2S+
177.0478	1	C9H9N2S+
179.0604	128	C12H7N2+
180.0682	325	C12H8N2+
181.076	21	C12H9N2+
182.0717	5	C11H8N3+
182.0838	15	C12H10N2+
183.0792	8	C11H9N3+
183.0918	7	C12H11N2+
184.087	10	C11H10N3+
185.0165	1	C10H5N2S+
185.0295	8	C11H7NS+
185.071	15	C11H9N2O+
186.0372	229	C11H8NS+
187.0327	5	C10H7N2S+
187.0451	12	C11H9NS+
189.0246	1	C10H7NOS+
192.0684	1	C13H8N2+
193.0759	5	C13H9N2+
194.0714	18	C12H8N3+
194.0839	6	C13H10N2+
195.0792	91	C12H9N3+
195.0918	14	C13H11N2+
196.0217	3	C12H6NS+
196.0871	28	C12H10N3+
196.0995	12	C13H12N2+
197.0168	5	C11H5N2S+
197.0294	3	C12H7NS+
197.0711	3	C12H9N2O+
197.0948	6	C12H11N3+
197.1073	3	C13H13N2+
198.0246	999	C11H6N2S+
199.045	7	C12H9NS+
199.0868	4	C12H11N2O+
200.0403	6	C11H8N2S+
200.0529	19	C12H10NS+
201.0481	26	C11H9N2S+
202.0326	1	C11H8NOS+
205.0762	3	C14H9N2+
206.0716	3	C13H8N3+
206.0838	7	C14H10N2+
207.0792	11	C13H9N3+
207.0915	3	C14H11N2+
208.087	20	C13H10N3+
209.0949	7	C13H11N3+
210.1026	3	C13H12N3+
211.0325	30	C12H7N2S+
212.0403	254	C12H8N2S+
213.0481	303	C12H9N2S+
214.0559	32	C12H10N2S+
215.0638	18	C12H11N2S+
220.0869	18	C14H10N3+
221.0948	11	C14H11N3+
221.1072	3	C15H13N2+
222.1026	206	C14H12N3+
223.1104	56	C14H13N3+
224.0402	12	C13H8N2S+
224.1182	48	C14H14N3+
225.0481	13	C13H9N2S+
226.0435	11	C12H8N3S+
226.0559	36	C13H10N2S+
227.0518	3	C12H9N3S+
227.0637	53	C13H11N2S+
228.0591	35	C12H10N3S+
228.0714	5	C13H12N2S+
229.0432	2	C12H9N2OS+
229.067	5	C12H11N3S+
229.0794	10	C13H13N2S+
230.0742	2	C12H12N3S+
233.0947	1	C15H11N3+
234.1024	4	C15H12N3+
237.0482	2	C14H9N2S+
238.0444	1	C13H8N3S+
238.0556	8	C14H10N2S+
239.0511	3	C13H9N3S+
239.0636	39	C14H11N2S+
240.0592	49	C13H10N3S+
240.0714	5	C14H12N2S+
241.0668	46	C13H11N3S+
241.0788	2	C14H13N2S+
242.0747	4	C13H12N3S+
248.1183	14	C16H14N3+
249.1263	2	C16H15N3+
250.1339	12	C16H16N3+
252.059	4	C14H10N3S+
253.0667	3	C14H11N3S+
253.0798	2	C15H13N2S+
254.0746	25	C14H12N3S+
255.0827	11	C14H13N3S+
256.0903	373	C14H14N3S+
266.0747	12	C15H12N3S+
267.0826	3	C15H13N3S+
280.0904	4	C16H14N3S+
282.106	67	C16H16N3S+
