Mass spectrum: Famphur; LC-ESI-QFT; MS2; CE: 150%; R=17500; [M+H]+
Name: Famphur
Name: 4-dimethoxyphosphinothioyloxy-N,N-dimethylbenzenesulfonamide
Formula: C10H16NO5PS2
Exact mass: 325.0208
SMILES: CN(C)S(=O)(=O)C1=CC=C(C=C1)OP(=S)(OC)OC
InChI: InChI=1S/C10H16NO5PS2/c1-11(2)19(12,13)10-7-5-9(6-8-10)16-17(18,14-3)15-4/h5-8H,1-4H3
Instrument: Exploris 240 Orbitrap Thermo Scientific
Instrument type: LC-ESI-QFT
Ms type: MS2
Ion mode: POSITIVE
Ionization: ESI
Fragmentation mode: HCD
Collision energy: 150 % (nominal)
Resolution: 17500
Column name: XBridge C18 3.5um, 2.1x50mm, Waters
Retention time: 6.830 min
Base peak: 326.0278
Precursor m/z: 326.028
Precursor type: [M+H]+
m/z	relative intensity	assigned
51.0229	51	C4H3+
62.9452	199	PS+
62.9994	999	CH4OP+
63.023	112	C5H3+
65.0386	158	C5H5+
68.9793	192	C3HS+
69.9872	258	C3H2S+
75.023	53	C6H3+
77.0386	130	C6H5+
78.9943	465	CH4O2P+
81.9873	57	C4H2S+
93.01	202	C2H6O2P+
94.995	306	C5H3S+
96.0028	222	C5H4S+
97.0108	130	CH8NPS+
108.0028	290	C6H4S+
127.0156	82	C2H8O4P+
