Mass spectrum: Dimethenamide ESA; LC-ESI-ITFT; MS2; CE: 60%; R=7500; [M+H]+
Name: Dimethenamide ESA
Name: 2-[(2,4-Dimethyl-3-thienyl)(1-methoxy-2-propanyl)amino]-2-oxoethanesulfonic acid
Formula: C12H19NO5S2
Exact mass: 321.0705
SMILES: S(C=C1C)C(C)=C1N(C(=O)CS(=O)(=O)O)C(COC)C
InChI: InChI=1S/C12H19NO5S2/c1-8-6-19-10(3)12(8)13(9(2)5-18-4)11(14)7-20(15,16)17/h6,9H,5,7H2,1-4H3,(H,15,16,17)
Instrument: LTQ Orbitrap XL Thermo Scientific
Instrument type: LC-ESI-ITFT
Ms type: MS2
Ion mode: POSITIVE
Ionization: ESI
Fragmentation mode: HCD
Collision energy: 60 % (nominal)
Resolution: 7500
Column name: XBridge C18 3.5um, 2.1x50mm, Waters
Retention time: 6.7 min
Base peak: 322.0788
Precursor m/z: 322.0777
Precursor type: [M+H]+
m/z	relative intensity	assigned
73.0649	74	C4H9O+
82.0652	41	C5H8N+
83.0493	4	C5H7O+
91.054	4	C7H7+
93.0699	5	C7H9+
94.0654	6	C6H8N+
95.073	15	C6H9N+
97.0104	6	C5H5S+
99.0263	6	C5H7S+
107.085	2	C8H11+
108.0808	12	C7H10N+
111.0264	188	C6H7S+
112.0342	71	C6H8S+
113.0293	17	C5H7NS+
113.0419	24	C6H9S+
114.0373	12	C5H8NS+
117.07	5	C9H9+
118.0654	3	C8H8N+
119.0731	13	C8H9N+
120.0807	12	C8H10N+
122.0966	9	C8H12N+
124.0342	10	C7H8S+
125.0295	20	C6H7NS+
125.042	100	C7H9S+
126.0373	178	C6H8NS+
126.0499	9	C7H10S+
127.0213	31	C6H7OS+
127.0451	48	C6H9NS+
127.0576	11	C7H11S+
128.053	85	C6H10NS+
129.0365	3	C6H9OS+
132.0805	6	C9H10N+
133.0886	20	C9H11N+
134.0965	228	C9H12N+
135.0262	37	C8H7S+
135.1044	36	C9H13N+
136.0341	2	C8H8S+
136.112	11	C9H14N+
137.0289	7	C7H7NS+
137.0418	4	C8H9S+
138.0373	164	C7H8NS+
139.0451	11	C7H9NS+
139.0576	7	C8H11S+
140.053	19	C7H10NS+
148.1123	6	C10H14N+
149.042	39	C9H9S+
150.0371	51	C8H8NS+
150.0499	141	C9H10S+
151.045	31	C8H9NS+
151.0576	41	C9H11S+
152.0168	67	C7H6NOS+
152.053	737	C8H10NS+
153.0368	4	C8H9OS+
153.0608	22	C8H11NS+
154.0323	4	C7H8NOS+
154.0685	11	C8H12NS+
155.0406	3	C7H9NOS+
162.0914	14	C10H12NO+
163.0996	8	C10H13NO+
164.0515	3	CH14N3O2S2+
164.1072	11	C10H14NO+
166.0687	999	C9H12NS+
167.0398	31	C8H9NOS+
167.0764	382	C9H13NS+
168.0478	121	C8H10NOS+
168.0842	547	C9H14NS+
169.0557	14	C8H11NOS+
170.0638	5	C8H12NOS+
176.1071	68	C11H14NO+
177.1155	3	C11H15NO+
180.0481	4	C9H10NOS+
192.0832	5	C11H14NS+
194.0635	112	C10H12NOS+
206.0645	4	C5H18O4S2+
208.0794	13	C5H20O4S2+
209.087	41	C11H15NOS+
210.0949	455	C11H16NOS+
224.0738	5	C11H14NO2S+
226.0897	17	C11H16NO2S+
290.052	74	C11H16NO4S2+
