Mass spectrum: Lidocaine-N-Oxide; LC-ESI-QFT; MS2; CE: 120; R=35000; [M+H]+
Name: Lidocaine-N-Oxide
Name: Lignocaine N-oxide
Name: 2-(2,6-dimethylanilino)-N,N-diethyl-2-oxoethanamine oxide
Formula: C14H22N2O2
Exact mass: 250.16813
SMILES: CC[N+](CC)(CC(=O)NC1=C(C=CC=C1C)C)[O-]
InChI: InChI=1S/C14H22N2O2/c1-5-16(18,6-2)10-13(17)15-14-11(3)8-7-9-12(14)4/h7-9H,5-6,10H2,1-4H3,(H,15,17)
Instrument: Q Exactive Plus Orbitrap Thermo Scientific
Instrument type: LC-ESI-QFT
Ms type: MS2
Ion mode: POSITIVE
Ionization: ESI
Fragmentation mode: HCD
Collision energy: 120 (nominal)
Resolution: 35000
Column name: XBridge C18 3.5um, 2.1x50mm, Waters
Retention time: 4.8 min
Base peak: 251.1752
Precursor m/z: 251.1754
Precursor type: [M+H]+
m/z	relative intensity	assigned
50.0151	10	C4H2+
51.023	28	C4H3+
53.0386	61	C4H5+
54.0339	2	C3H4N+
55.0179	2	C3H3O+
56.0495	63	C3H6N+
58.0651	779	C3H8N+
60.0444	347	C2H6NO+
65.0386	67	C5H5+
66.0464	2	C5H6+
67.0542	9	C5H7+
68.0495	2	C4H6N+
72.0808	16	C4H10N+
74.06	124	C3H8NO+
77.0385	102	C6H5+
78.0464	13	C6H6+
79.0542	228	C6H7+
80.0494	29	C5H6N+
81.0336	8	C5H5O+
81.0573	2	C5H7N+
84.0808	3	C5H10N+
86.0964	999	C5H12N+
88.0757	43	C4H10NO+
89.0385	1	C7H5+
90.0464	3	C7H6+
91.0542	260	C7H7+
92.0495	41	C6H6N+
92.0621	11	C7H8+
93.0572	19	C6H7N+
93.0699	110	C7H9+
94.0652	17	C6H8N+
95.0491	224	C6H7O+
102.0465	8	C8H6+
103.0542	194	C8H7+
104.0494	23	C7H6N+
104.0619	2	C8H8+
105.0447	123	C6H5N2+
105.0573	21	C7H7N+
105.0699	146	C8H9+
106.0651	220	C7H8N+
107.0729	286	C7H9N+
109.0648	3	C7H9O+
110.0601	30	C6H8NO+
115.0542	14	C9H7+
117.0574	15	C8H7N+
117.0699	3	C9H9+
118.0651	79	C8H8N+
119.0491	19	C8H7O+
119.0605	3	C7H7N2+
119.073	33	C8H9N+
119.0858	2	C9H11+
120.0808	797	C8H10N+
121.0649	1	C8H9O+
121.0887	7	C8H11N+
122.0963	18	C8H12N+
130.0652	20	C9H8N+
131.073	20	C9H9N+
132.0809	1	C9H10N+
133.0521	57	C8H7NO+
134.0601	8	C8H8NO+
134.0965	19	C9H12N+
144.0808	8	C10H10N+
146.0601	3	C9H8NO+
146.0963	1	C10H12N+
148.0756	13	C9H10NO+
