Mass spectrum: Iprodione; LC-ESI-QFT; MS2; CE: 60; R=35000; [M+H]+
Name: Iprodione
Name: 3-(3,5-dichlorophenyl)-2,4-dioxo-N-propan-2-yl-1-imidazolidinecarboxamide
Formula: C13H13Cl2N3O3
Exact mass: 329.03340
SMILES: O=C2N(c1cc(Cl)cc(Cl)c1)C(=O)CN2C(=O)NC(C)C
InChI: InChI=1S/C13H13Cl2N3O3/c1-7(2)16-12(20)17-6-11(19)18(13(17)21)10-4-8(14)3-9(15)5-10/h3-5,7H,6H2,1-2H3,(H,16,20)
Instrument: Q Exactive Orbitrap Thermo Scientific
Instrument type: LC-ESI-QFT
Ms type: MS2
Ion mode: POSITIVE
Ionization: ESI
Fragmentation mode: HCD
Collision energy: 60 (nominal)
Resolution: 35000
Column name: XBridge C18 3.5um, 2.1x50mm, Waters
Retention time: 12.3 min
Base peak: 330.0406
Precursor m/z: 330.0407
Precursor type: [M+H]+
m/z	relative intensity	assigned
56.0132	920	C2H2NO+
74.0236	80	C2H4NO2+
86.0601	4	C4H8NO+
98.9842	403	CH4ClO3+
125.002	2	C9HO+
127.0182	28	C6H6ClN+
138.0105	16	C7H5ClN+
139.0057	2	C6H4ClN2+
139.0186	17	C7H6ClN+
144.9605	3	C6H3Cl2+
145.9683	4	C6H4Cl2+
146.9764	10	C6H5Cl2+
152.9976	41	C7H4ClNO+
159.9715	13	C6H4Cl2N+
160.9793	39	C6H5Cl2N+
161.9872	883	C6H6Cl2N+
162.9711	12	C6H5Cl2O+
165.0214	6	C8H6ClN2+
166.0292	92	C8H7ClN2+
167.0132	164	C8H6ClNO+
171.9715	402	C10HClO+
172.967	17	C6H3Cl2N2+
173.9872	999	C7H6Cl2N+
181.0164	9	C8H6ClN2O+
187.9664	678	C7H4Cl2NO+
191.9979	22	C7H8Cl2NO+
199.9664	54	C8H4Cl2NO+
200.9977	3	C11H4ClNO+
201.982	73	C8H6Cl2NO+
213.9453	10	C8H2Cl2NO2+
216.993	253	C8H7Cl2N2O+
226.9773	81	C9H5Cl2N2O+
244.988	612	C9H7Cl2N2O2+
