Mass spectrum: Dimefuron; LC-ESI-QFT; MS2; CE: 15; R=35000; [M+H]+
Name: Dimefuron
Name: 3-[4-(5-tert-butyl-2-keto-1,3,4-oxadiazol-3-yl)-3-chloro-phenyl]-1,1-dimethyl-urea
Formula: C15H19ClN4O3
Exact mass: 338.11457
SMILES: O=C2O\C(=N/N2c1c(Cl)cc(NC(=O)N(C)C)cc1)C(C)(C)C
InChI: InChI=1S/C15H19ClN4O3/c1-15(2,3)12-18-20(14(22)23-12)11-7-6-9(8-10(11)16)17-13(21)19(4)5/h6-8H,1-5H3,(H,17,21)
Instrument: Q Exactive Orbitrap Thermo Scientific
Instrument type: LC-ESI-QFT
Ms type: MS2
Ion mode: POSITIVE
Ionization: ESI
Fragmentation mode: HCD
Collision energy: 15 (nominal)
Resolution: 35000
Column name: XBridge C18 3.5um, 2.1x50mm, Waters
Retention time: 9.8 min
Base peak: 339.122
Precursor m/z: 339.1218
Precursor type: [M+H]+
m/z	relative intensity	assigned
72.0441	47	C3H6NO+
167.0005	32	C7H4ClN2O+
256.0482	32	C10H11ClN3O3+
295.132	8	C14H20ClN4O+
339.1217	999	C15H20ClN4O3+
