Mass spectrum: Dimefuron; LC-ESI-QFT; MS2; CE: 45; R=35000; [M-H]-
Name: Dimefuron
Name: 3-[4-(5-tert-butyl-2-keto-1,3,4-oxadiazol-3-yl)-3-chloro-phenyl]-1,1-dimethyl-urea
Formula: C15H19ClN4O3
Exact mass: 338.11457
SMILES: O=C2O\C(=N/N2c1c(Cl)cc(NC(=O)N(C)C)cc1)C(C)(C)C
InChI: InChI=1S/C15H19ClN4O3/c1-15(2,3)12-18-20(14(22)23-12)11-7-6-9(8-10(11)16)17-13(21)19(4)5/h6-8H,1-5H3,(H,17,21)
Instrument: Q Exactive Orbitrap Thermo Scientific
Instrument type: LC-ESI-QFT
Ms type: MS2
Ion mode: NEGATIVE
Ionization: ESI
Fragmentation mode: HCD
Collision energy: 45 (nominal)
Resolution: 35000
Column name: XBridge C18 3.5um, 2.1x50mm, Waters
Retention time: 9.8 min
Base peak: 337.1077
Precursor m/z: 337.1073
Precursor type: [M-H]-
m/z	relative intensity	assigned
102.0224	16	C6H2N2-
130.0172	48	C7H2N2O-
137.9989	3	C6H3ClN2-
164.9861	999	C7H2ClN2O-
165.9939	783	C7H3ClN2O-
167.0119	3	C9HN3O-
192.0336	2	C9H7ClN3-
210.0436	12	
