Mass spectrum: Quinalphos; LC-ESI-QFT; MS2; CE: 120%; R=17500; [M+H]+
Name: Quinalphos
Name: diethoxy-quinoxalin-2-yloxy-sulfanylidene-lambda5-phosphane
Formula: C12H15N2O3PS
Exact mass: 298.0541
SMILES: CCOP(=S)(OCC)OC1=NC2=CC=CC=C2N=C1
InChI: InChI=1S/C12H15N2O3PS/c1-3-15-18(19,16-4-2)17-12-9-13-10-7-5-6-8-11(10)14-12/h5-9H,3-4H2,1-2H3
Instrument: Exploris 240 Orbitrap Thermo Scientific
Instrument type: LC-ESI-QFT
Ms type: MS2
Ion mode: POSITIVE
Ionization: ESI
Fragmentation mode: HCD
Collision energy: 120 % (nominal)
Resolution: 17500
Column name: XBridge C18 3.5um, 2.1x50mm, Waters
Retention time: 10.502 min
Base peak: 299.061
Precursor m/z: 299.0614
Precursor type: [M+H]+
m/z	relative intensity	assigned
64.9787	328	H2O2P+
65.0386	233	C5H5+
75.0229	46	C6H3+
77.0386	10	C6H5+
78.0339	13	C5H4N+
78.9402	284	OPS+
80.9738	47	H2O3P+
92.0495	400	C6H6N+
96.9508	961	H2O2PS+
102.0338	142	C7H4N+
109.0049	10	C2H6O3P+
110.9665	22	CH4O2PS+
114.9614	284	H4O3PS+
118.0527	19	C7H6N2+
119.0605	999	C7H7N2+
120.0444	30	C3H9N2OP+
129.0448	274	C8H5N2+
130.0401	327	CH10N2O3S+
147.0554	87	C8H7N2O+
163.033	20	C8H7N2S+
