Mass spectrum: Bromuconazole; LC-ESI-QFT; MS2; CE: 60; R=35000; [M+H]+
Name: Bromuconazole
Name: 1-[[4-bromo-2-(2,4-dichlorophenyl)oxolan-2-yl]methyl]-1,2,4-triazole
Formula: C13H12BrCl2N3O
Exact mass: 374.95408
SMILES: C1C(COC1(CN2C=NC=N2)C3=C(C=C(C=C3)Cl)Cl)Br
InChI: InChI=1S/C13H12BrCl2N3O/c14-9-4-13(20-5-9,6-19-8-17-7-18-19)11-2-1-10(15)3-12(11)16/h1-3,7-9H,4-6H2
Instrument: Q Exactive Plus Orbitrap Thermo Scientific
Instrument type: LC-ESI-QFT
Ms type: MS2
Ion mode: POSITIVE
Ionization: ESI
Fragmentation mode: HCD
Collision energy: 60 (nominal)
Resolution: 35000
Column name: XBridge C18 3.5um, 2.1x50mm, Waters
Retention time: 10.9 min
Base peak: 377.9586
Precursor m/z: 375.9614
Precursor type: [M+H]+
m/z	relative intensity	assigned
70.04	178	C2H4N3+
89.0383	1	C7H5+
118.9492	2	C3H4Br+
122.9997	7	C7H4Cl+
124.0074	1	C7H5Cl+
128.0623	2	C10H8+
129.07	8	C10H9+
150.023	2	C9H7Cl+
158.9764	999	C7H5Cl2+
162.0232	8	C10H7Cl+
163.0308	2	C10H8Cl+
164.0387	9	C10H9Cl+
172.9558	90	C7H3Cl2O+
172.9666	8	C6H3Cl2N2+
184.9918	1	C9H7Cl2+
192.0335	1	C11H9ClO+
196.9921	1	C10H7Cl2+
199.0074	1	C10H9Cl2+
208.992	2	C11H7Cl2+
