Mass spectrum: Propachlor ESA; LC-ESI-ITFT; MS2; CE: 60%; R=15000; [M+H]+
Name: Propachlor ESA
Name: 2-[Isopropyl(phenyl)amino]-2-oxoethanesulfonic acid
Formula: C11H15NO4S
Exact mass: 257.0722
SMILES: O=S(=O)(O)CC(=O)N(c1ccccc1)C(C)C
InChI: InChI=1S/C11H15NO4S/c1-9(2)12(10-6-4-3-5-7-10)11(13)8-17(14,15)16/h3-7,9H,8H2,1-2H3,(H,14,15,16)
Instrument: LTQ Orbitrap XL Thermo Scientific
Instrument type: LC-ESI-ITFT
Ms type: MS2
Ion mode: POSITIVE
Ionization: ESI
Fragmentation mode: HCD
Collision energy: 60 % (nominal)
Resolution: 15000
Column name: XBridge C18 3.5um, 2.1x50mm, Waters
Retention time: 5.9 min
Base peak: 258.0802
Precursor m/z: 258.0795
Precursor type: [M+H]+
m/z	relative intensity	assigned
59.0128	12	C2H3O2+
77.0384	11	C6H5+
79.0544	5	C6H7+
91.0542	18	C7H7+
94.0652	999	C6H8N+
104.0493	12	C7H6N+
106.0651	280	C7H8N+
117.0573	165	C8H7N+
118.0652	54	C8H8N+
120.0444	52	C7H6NO+
122.9745	11	C2H3O4S+
134.06	97	C8H8NO+
135.0677	11	C8H9NO+
136.0757	71	C8H10NO+
198.0219	147	C8H8NO3S+
216.0317	27	C8H10NO4S+
