Mass spectrum: Metrafenone; LC-ESI-QFT; MS2; CE: 90; R=35000; [M+H]+
Name: Metrafenone
Name: (3-bromo-6-methoxy-2-methylphenyl)(2,3,4-trimethoxy-6-methylphenyl)methanone
Name: (3-bromanyl-6-methoxy-2-methyl-phenyl)-(2,3,4-trimethoxy-6-methyl-phenyl)methanone
Formula: C19H21BrO5
Exact mass: 408.05724
SMILES: Brc2ccc(OC)c(C(=O)c1c(cc(OC)c(OC)c1OC)C)c2C
InChI: InChI=1S/C19H21BrO5/c1-10-9-14(23-4)18(24-5)19(25-6)15(10)17(21)16-11(2)12(20)7-8-13(16)22-3/h7-9H,1-6H3
Instrument: Q Exactive Orbitrap Thermo Scientific
Instrument type: LC-ESI-QFT
Ms type: MS2
Ion mode: POSITIVE
Ionization: ESI
Fragmentation mode: HCD
Collision energy: 90 (nominal)
Resolution: 35000
Column name: XBridge C18 3.5um, 2.1x50mm, Waters
Retention time: 13.7 min
Base peak: 411.0623
Precursor m/z: 409.0645
Precursor type: [M+H]+
m/z	relative intensity	assigned
63.0229	16	C5H3+
65.0386	63	C5H5+
66.0464	86	C5H6+
67.0542	59	C5H7+
77.0385	59	C6H5+
78.0464	61	C6H6+
79.0542	116	C6H7+
80.0621	20	C6H8+
81.0335	21	C5H5O+
81.0699	30	C6H9+
89.0386	369	C7H5+
90.0464	999	C7H6+
91.0542	861	C7H7+
92.062	214	C7H8+
93.0336	6	C6H5O+
93.0699	3	C7H9+
94.0414	40	C6H6O+
95.0491	462	C6H7O+
102.0464	4	C8H6+
105.0335	608	C7H5O+
105.0447	76	C6H5N2+
106.0414	62	C7H6O+
107.0492	116	C7H7O+
108.0206	15	
108.057	111	C7H8O+
109.0648	106	C7H9O+
110.0728	3	C7H10O+
118.0412	49	C8H6O+
119.0491	130	C8H7O+
120.057	201	C8H8O+
121.0284	37	C7H5O2+
121.0646	28	C8H9O+
122.0362	42	C7H6O2+
123.044	213	C7H7O2+
124.052	20	C7H8O2+
133.0286	33	C8H5O2+
134.0364	37	C8H6O2+
135.0441	229	C8H7O2+
136.052	138	C8H8O2+
137.0597	97	C8H9O2+
138.0676	5	C8H10O2+
142.9492	16	C5H4Br+
147.044	65	C9H7O2+
148.0519	110	C9H8O2+
149.0599	13	C9H9O2+
150.0311	43	C8H6O3+
151.039	351	C8H7O3+
153.0546	12	C8H9O3+
155.957	83	C6H5Br+
163.0389	73	C9H7O3+
164.0469	14	C9H8O3+
165.0547	509	C9H9O3+
166.0261	14	
166.0625	148	C9H10O3+
168.0417	41	C8H8O4+
168.9648	650	C7H6Br+
170.98	6	C7H8Br+
176.0468	21	C10H8O3+
179.0339	46	C9H7O4+
181.0495	70	C9H9O4+
182.9441	434	C7H4BrO+
183.9519	772	C7H5BrO+
186.9754	34	C7H8BrO+
191.0337	19	C10H7O4+
193.0497	64	C10H9O4+
194.0575	16	C10H10O4+
196.9709	72	C7H6BrN2+
198.9754	4	C8H8BrO+
209.0445	16	
209.081	16	C11H13O4+
211.9467	55	C8H5BrO2+
226.9703	148	C9H8BrO2+
229.9575	148	C8H7BrO3+
