Mass spectrum: Metalaxyl-M-TP CGA108906; LC-ESI-QFT; MS2; CE: 30%; R=17500; [M-H]-
Name: Metalaxyl-M-TP CGA108906
Name: 2-[1-carboxyethyl-(2-methoxyacetyl)amino]-3-methylbenzoic acid
Formula: C14H17NO6
Exact mass: 295.1056
SMILES: COCC(=O)N(C(C)C(O)=O)C1=C(C=CC=C1C)C(O)=O
InChI: InChI=1S/C14H17NO6/c1-8-5-4-6-10(14(19)20)12(8)15(9(2)13(17)18)11(16)7-21-3/h4-6,9H,7H2,1-3H3,(H,17,18)(H,19,20)
Instrument: Q Exactive Plus Orbitrap Thermo Scientific
Instrument type: LC-ESI-QFT
Ms type: MS2
Ion mode: NEGATIVE
Ionization: ESI
Fragmentation mode: HCD
Collision energy: 30 % (nominal)
Resolution: 17500
Column name: XBridge C18 3.5um, 2.1x50mm, Waters
Retention time: 5.743 min
Base peak: 294.0983
Precursor m/z: 294.0983
Precursor type: [M-H]-
m/z	relative intensity	assigned
72.9933	5	C2HO3-
85.0295	32	C4H5O2-
89.0245	999	C3H5O3-
91.0554	10	C7H7-
106.0662	19	C7H8N-
107.0502	8	C7H7O-
116.0506	10	C8H6N-
130.0662	17	C9H8N-
132.0818	83	C9H10N-
145.0533	277	C9H7NO-
158.0607	5	C10H8NO-
160.0768	655	C10H10NO-
174.0561	23	C10H8NO2-
176.0717	509	C10H10NO2-
178.0872	99	C10H12NO2-
186.0556	15	C11H8NO2-
191.0952	29	C11H13NO2-
204.0665	430	C11H10NO3-
222.0774	6	C11H12NO4-
250.1083	10	C13H16NO4-
