Mass spectrum: Trinexapac; LC-ESI-ITFT; MS2; CE: 45%; R=7500; [M+H]+
Name: Trinexapac
Name: 4-[Cyclopropyl(hydroxy)methylene]-3,5-dioxocyclohexanecarboxylic acid
Formula: C11H12O5
Exact mass: 224.0685
SMILES: C(C1)C1C(O)=C(C(=O)CC2C(=O)O)C(=O)C2
InChI: InChI=1S/C11H12O5/c12-7-3-6(11(15)16)4-8(13)9(7)10(14)5-1-2-5/h5-6,14H,1-4H2,(H,15,16)/b10-9-
Instrument: LTQ Orbitrap XL Thermo Scientific
Instrument type: LC-ESI-ITFT
Ms type: MS2
Ion mode: POSITIVE
Ionization: ESI
Fragmentation mode: HCD
Collision energy: 45 % (nominal)
Resolution: 7500
Column name: XBridge C18 3.5um, 2.1x50mm, Waters
Retention time: 6.9 min
Base peak: 225.0758
Precursor m/z: 225.0757
Precursor type: [M+H]+
m/z	relative intensity	assigned
69.0335	999	C4H5O+
71.0128	10	C3H3O2+
79.0543	2	C6H7+
81.0334	2	C5H5O+
81.0699	2	C6H9+
83.0493	7	C5H7O+
85.0284	185	C4H5O2+
93.0336	4	C6H5O+
95.0128	21	C5H3O2+
97.0284	28	C5H5O2+
99.0077	29	C4H3O3+
107.0492	35	C7H7O+
109.0285	11	C6H5O2+
109.065	3	C7H9O+
111.0441	662	C6H7O2+
113.0234	251	C5H5O3+
121.0284	3	C7H5O2+
121.0393	4	C6H5N2O+
123.0077	93	C6H3O3+
123.0442	6	C7H7O2+
129.0547	16	C6H9O3+
133.0646	10	C9H9O+
137.0234	95	C7H5O3+
137.0601	12	C8H9O2+
139.039	66	C7H7O3+
141.0183	172	C6H5O4+
151.0753	12	C9H11O2+
155.034	49	C7H7O4+
157.0496	98	C7H9O4+
159.0288	33	C6H7O5+
161.0594	13	C10H9O2+
165.0183	534	C8H5O4+
179.0704	78	C10H11O3+
183.0289	264	C8H7O5+
197.0445	4	C9H9O5+
197.0809	14	C10H13O4+
201.0392	16	C8H9O6+
207.0651	53	C11H11O4+
225.0769	201	C11H13O5+
