Mass spectrum: Vildagliptin; LC-ESI-QFT; MS2; CE: 60; R=35000; [M+H]+
Name: Vildagliptin
Name: (2S)-1-[2-[(3-hydroxy-1-adamantyl)amino]-1-oxoethyl]-2-pyrrolidinecarbonitrile
Name: Equa
Formula: C17H25N3O2
Exact mass: 303.19468
SMILES: N#C[C@H]4N(C(=O)CNC13CC2CC(C1)CC(O)(C2)C3)CCC4
InChI: InChI=1S/C17H25N3O2/c18-9-14-2-1-3-20(14)15(21)10-19-16-5-12-4-13(6-16)8-17(22,7-12)11-16/h12-14,19,22H,1-8,10-11H2/t12?,13?,14-,16?,17?/m0/s1
Instrument: Q Exactive Orbitrap Thermo Scientific
Instrument type: LC-ESI-QFT
Ms type: MS2
Ion mode: POSITIVE
Ionization: ESI
Fragmentation mode: HCD
Collision energy: 60 (nominal)
Resolution: 35000
Column name: XBridge C18 3.5um, 2.1x50mm, Waters
Retention time: 2.2 min
Base peak: 304.202
Precursor m/z: 304.202
Precursor type: [M+H]+
m/z	relative intensity	assigned
55.0292	3	C2H3N2+
59.0492	29	C3H7O+
67.0543	3	C5H7+
69.0335	1	C4H5O+
69.0699	3	C5H9+
70.0651	237	C4H8N+
71.0491	3	C4H7O+
77.0386	4	C6H5+
79.0542	7	C6H7+
81.0699	36	C6H9+
83.0492	1	C5H7O+
91.0542	42	C7H7+
93.0699	475	C7H9+
95.0492	196	C6H7O+
97.076	999	C5H9N2+
99.0918	5	C5H11N2+
105.0447	4	C6H5N2+
105.0699	19	C8H9+
107.0856	176	C8H11+
109.0648	62	C7H9O+
109.1012	7	C8H13+
123.1168	15	C9H15+
127.0865	34	C6H11N2O+
133.1012	116	C10H13+
151.1118	420	C10H15O+
154.0975	538	C7H12N3O+
