Mass spectrum: Oxacillin; LC-ESI-QFT; MS2; CE: 15; R=35000; [M-H]-
Name: Oxacillin
Name: (2S,5R,6R)-3,3-dimethyl-6-[(5-methyl-3-phenyl-1,2-oxazole-4-carbonyl)amino]-7-oxo-4-thia-1-azabicyclo[3.2.0]heptane-2-carboxylic acid
Formula: C19H19N3O5S
Exact mass: 401.10454
SMILES: CC1=C(C(=O)N[C@H]2[C@H]3SC(C)(C)[C@@H](N3C2=O)C(O)=O)C(=NO1)C1=CC=CC=C1
InChI: InChI=1S/C19H19N3O5S/c1-9-11(12(21-27-9)10-7-5-4-6-8-10)15(23)20-13-16(24)22-14(18(25)26)19(2,3)28-17(13)22/h4-8,13-14,17H,1-3H3,(H,20,23)(H,25,26)/t13-,14+,17-/m1/s1
Instrument: Q Exactive Plus Orbitrap Thermo Scientific
Instrument type: LC-ESI-QFT
Ms type: MS2
Ion mode: NEGATIVE
Ionization: ESI
Fragmentation mode: HCD
Collision energy: 15 (nominal)
Resolution: 35000
Column name: XBridge C18 3.5um, 2.1x50mm, Waters
Retention time: 8.4 min
Base peak: 400.097
Precursor m/z: 400.0973
Precursor type: [M-H]-
m/z	relative intensity	assigned
74.991	5	C2H3OS-
83.0138	1	C4H3O2-
156.0126	3	C6H6NO2S-
174.0382	2	C10H8NS-
185.0721	1	C11H9N2O-
216.049	6	C12H10NOS-
217.0434	1	C11H9N2OS-
225.0668	1	C13H9N2O2-
241.0438	1	C13H9N2OS-
259.0547	999	C13H11N2O2S-
356.1076	91	C18H18N3O3S-
