Mass spectrum: Chloridazone-desphenyl; LC-ESI-ITFT; MS2; CE: 90%; R=7500; [M+H]+
Name: Chloridazone-desphenyl
Name: 3(2H)-Pyridazinone, 5-amino-4-chloro-
Name: 4-amino-5-chloro-1H-pyridazin-6-one
Formula: C4H4ClN3O
Exact mass: 145.0043
SMILES: c1(c(nncc1N)O)Cl
InChI: InChI=1S/C4H4ClN3O/c5-3-2(6)1-7-8-4(3)9/h1H,(H3,6,8,9)
Instrument: LTQ Orbitrap XL Thermo Scientific
Instrument type: LC-ESI-ITFT
Ms type: MS2
Ion mode: POSITIVE
Ionization: ESI
Fragmentation mode: HCD
Collision energy: 90 % (nominal)
Resolution: 7500
Column name: XBridge C18 3.5um, 2.1x50mm, Waters
Retention time: 1.3 min
Base peak: 146.0113
Precursor m/z: 146.0116
Precursor type: [M+H]+
m/z	relative intensity	assigned
54.0338	31	C3H4N+
55.0179	1	C3H3O+
55.029	4	C2H3N2+
61.9795	2	CHClN+
62.9634	2	CClO+
62.9996	4	C2H4Cl+
63.9949	17	CH3ClN+
66.0213	16	C3H2N2+
67.0291	4	C3H3N2+
70.0401	7	C2H4N3+
71.0239	1	C2H3N2O+
72.984	34	C3H2Cl+
73.9792	16	C2HClN+
73.9919	8	C3H3Cl+
74.9871	1	C2H2ClN+
74.9996	4	C3H4Cl+
75.9712	3	C2HClO+
75.9949	58	C2H3ClN+
82.0288	8	C4H4NO+
83.024	1	C3H3N2O+
83.0366	5	C4H5NO+
83.0479	11	C3H5N3+
85.9795	3	C3HClN+
87.9949	79	C3H3ClN+
89.0027	19	C3H4ClN+
90.0105	22	C3H5ClN+
90.9944	1	C3H4ClO+
91.0058	12	C2H4ClN2+
99.995	2	C4H3ClN+
100.9901	292	C3H2ClN2+
101.9742	22	C3HClNO+
103.0058	17	C3H4ClN2+
103.9899	4	C3H3ClNO+
110.0349	7	C4H4N3O+
116.9976	504	C4H4ClNO+
119.001	3	C3H4ClN2O+
126.0294	1	C4H4N3O2+
128.9851	12	C4H2ClN2O+
146.0115	999	C4H5ClN3O+
