Mass spectrum: Ditalimfos; LC-ESI-QFT; MS2; CE: 45%; R=17500; [M+H]+
Name: Ditalimfos
Name: 2-diethoxyphosphinothioylisoindole-1,3-dione
Formula: C12H14NO4PS
Exact mass: 299.0381
SMILES: CCOP(=S)(N1C(=O)C2=CC=CC=C2C1=O)OCC
InChI: InChI=1S/C12H14NO4PS/c1-3-16-18(19,17-4-2)13-11(14)9-7-5-6-8-10(9)12(13)15/h5-8H,3-4H2,1-2H3
Instrument: Exploris 240 Orbitrap Thermo Scientific
Instrument type: LC-ESI-QFT
Ms type: MS2
Ion mode: POSITIVE
Ionization: ESI
Fragmentation mode: HCD
Collision energy: 45 % (nominal)
Resolution: 17500
Column name: XBridge C18 3.5um, 2.1x50mm, Waters
Retention time: 9.578 min
Base peak: 170.0964
Precursor m/z: 300.0454
Precursor type: [M+H]+
m/z	relative intensity	assigned
96.9507	56	H2O2PS+
114.961	22	H4O3PS+
124.9819	14	C2H6O2PS+
130.0288	243	C8H4NO+
148.0393	999	C8H6NO2+
164.0169	8	C8H6NOS+
225.9721	22	C8H5NO3PS+
243.9827	53	C8H7NO4PS+
