Mass spectrum: Sulfentrazon; LC-ESI-QFT; MS2; CE: 120; R=35000; [M-H]-
Name: Sulfentrazon
Name: N-(2,4-dichloro-5-(4-(difluoromethyl)-4,5-dihydro-3-methyl-5-oxo-1H-1,2,4-triazol-1-yl)phenyl)methanesulfonamide
Name: N-[2,4-dichloro-5-[4-(difluoromethyl)-3-methyl-5-oxo-1,2,4-triazol-1-yl]phenyl]methanesulfonamide
Formula: C11H10Cl2F2N4O3S
Exact mass: 385.98187
SMILES: O=S(=O)(Nc2c(Cl)cc(Cl)c(N1/N=C(\N(C1=O)C(F)F)C)c2)C
InChI: InChI=1S/C11H10Cl2F2N4O3S/c1-5-16-19(11(20)18(5)10(14)15)9-4-8(17-23(2,21)22)6(12)3-7(9)13/h3-4,10,17H,1-2H3
Instrument: Q Exactive Plus Orbitrap Thermo Scientific
Instrument type: LC-ESI-QFT
Ms type: MS2
Ion mode: NEGATIVE
Ionization: ESI
Fragmentation mode: HCD
Collision energy: 120 (nominal)
Resolution: 35000
Column name: XBridge C18 3.5um, 2.1x50mm, Waters
Retention time: 7.5 min
Base peak: 384.9745
Precursor m/z: 384.9746
Precursor type: [M-H]-
m/z	relative intensity	assigned
50.0036	258	C3N-
63.9625	999	O2S-
65.0145	143	C3HN2-
65.9985	101	C3NO-
66.0096	20	C2N3-
70.9462	107	Cl2H-
71.0052	245	C2FN2-
74.0037	662	C5N-
76.9704	184	CHO2S-
78.986	129	CH3O2S-
80.0142	109	C4H2NO-
82.0411	352	C3H4N3-
86.0036	101	C6N-
86.9999	168	C2FN2O-
87.0115	20	C6HN-
88.0067	154	C5N2-
88.0193	229	C6H2N-
89.0146	251	C5HN2-
89.9986	116	C5NO-
90.035	28	C6H4N-
98.0035	164	C7N-
100.0067	336	C6N2-
101.0145	243	C6HN2-
112.0068	402	C7N2-
113.0147	167	C7HN2-
114.0098	159	C6N3-
115.0303	41	C7H3N2-
116.0255	25	C6H2N3-
117.0459	108	C7H5N2-
119.0054	19	ClH8N2OS-
126.0097	211	C7N3-
131.0051	133	CH8ClN2OS-
134.9756	110	C6ClN2-
140.0255	186	C8H2N3-
146.9754	76	C7ClN2-
147.9958	29	C3H2ClFN4-
148.9911	37	C7H2ClN2-
151.0069	208	C7H4ClN2-
165.0207	30	C9HN4-
166.9819	108	CH9Cl2N2OS-
182.9519	38	C7HCl2N2-
198.9472	115	C7HCl2N2O-
