Mass spectrum: Amisulpride N-Oxide; LC-ESI-QFT; MS2; CE: 120; R=35000; [M+H]+
Name: Amisulpride N-Oxide
Name: 4-amino-N-[(1-ethyl-1-oxidopyrrolidin-1-ium-2-yl)methyl]-5-ethylsulfonyl-2-methoxybenzamide
Formula: C17H27N3O5S
Exact mass: 385.16714
SMILES: CC[N+]1(CCCC1CNC(=O)C2=CC(=C(C=C2OC)N)S(=O)(=O)CC)[O-]
InChI: InChI=1S/C17H27N3O5S/c1-4-20(22)8-6-7-12(20)11-19-17(21)13-9-16(26(23,24)5-2)14(18)10-15(13)25-3/h9-10,12H,4-8,11,18H2,1-3H3,(H,19,21)
Instrument: Q Exactive Plus Orbitrap Thermo Scientific
Instrument type: LC-ESI-QFT
Ms type: MS2
Ion mode: POSITIVE
Ionization: ESI
Fragmentation mode: HCD
Collision energy: 120 (nominal)
Resolution: 35000
Column name: XBridge C18 3.5um, 2.1x50mm, Waters
Retention time: 4.2 min
Base peak: 386.1742
Precursor m/z: 386.1744
Precursor type: [M+H]+
m/z	relative intensity	assigned
50.0151	25	C4H2+
51.0103	1	C3HN+
51.0229	13	C4H3+
52.0182	43	C3H2N+
52.0308	6	C4H4+
53.0022	110	C3HO+
53.0386	75	C4H5+
54.0339	114	C3H4N+
54.0464	17	C4H6+
55.0179	36	C3H3O+
55.0542	6	C4H7+
56.0495	33	C3H6N+
56.9794	8	C2HS+
57.0336	6	C3H5O+
57.9872	15	C2H2S+
58.0288	18	C2H4NO+
58.0652	8	C3H8N+
58.995	38	C2H3S+
59.9665	1	COS+
59.9903	6	CH2NS+
62.0151	10	C5H2+
63.023	49	C5H3+
64.0182	79	C4H2N+
64.0308	66	C5H4+
65.026	83	C4H3N+
65.0386	319	C5H5+
66.0338	111	C4H4N+
66.0464	999	C5H6+
67.0178	14	C4H3O+
67.0417	123	C4H5N+
67.0542	21	C5H7+
68.0131	89	C3H2NO+
68.0495	63	C4H6N+
68.9793	123	C3HS+
68.9971	6	C3HO2+
69.0335	12	C4H5O+
69.9872	40	C3H2S+
70.0287	9	C3H4NO+
70.0651	131	C4H8N+
70.995	34	C3H3S+
71.9903	2	C2H2NS+
73.0106	2	C3H5S+
74.06	45	C3H8NO+
74.9899	10	C2H3OS+
75.0103	1	C5HN+
75.0229	7	C6H3+
76.0181	41	C5H2N+
76.0307	3	C6H4+
77.0022	2	C5HO+
77.026	26	C5H3N+
77.0386	11	C6H5+
78.0338	192	C5H4N+
79.0178	58	C5H3O+
79.0416	75	C5H5N+
80.0131	51	C4H2NO+
80.0494	64	C5H6N+
80.9794	8	C4HS+
81.0335	105	C5H5O+
81.9747	1	C3NS+
81.9871	13	C4H2S+
82.0287	13	C4H4NO+
82.0415	2	C5H6O+
82.0651	9	C5H8N+
82.995	108	C4H3S+
83.9903	14	C3H2NS+
84.0028	11	C4H4S+
84.0809	2	C5H10N+
84.9743	29	C3HOS+
85.0106	66	C4H5S+
86.0058	19	C3H4NS+
86.99	9	C3H3OS+
89.026	23	C6H3N+
90.0339	28	C6H4N+
91.0417	289	C6H5N+
92.0495	262	C6H6N+
92.9794	9	C5HS+
93.021	24	C5H3NO+
93.0336	8	C6H5O+
93.0573	133	C6H7N+
94.0288	105	C5H4NO+
94.0413	86	C6H6O+
94.0652	17	C6H8N+
94.995	37	C5H3S+
95.0161	4	C2H7O2S+
95.0366	26	C5H5NO+
95.0491	16	C6H7O+
95.9903	5	C4H2NS+
96.0444	61	C5H6NO+
96.0808	18	C6H10N+
96.9981	78	C4H3NS+
97.0106	9	C5H5S+
97.9821	52	C4H2OS+
98.006	19	C4H4NS+
98.0965	137	C6H12N+
98.9899	19	C4H3OS+
103.0417	2	C7H5N+
104.0131	67	C6H2NO+
104.0495	9	C7H6N+
105.0211	2	C6H3NO+
105.0335	5	C7H5O+
105.0449	8	C6H5N2+
106.0288	328	C6H4NO+
106.9824	21	C5HNS+
107.0128	380	C6H3O2+
107.0366	136	C6H5NO+
107.9902	170	C5H2NS+
108.0444	64	C6H6NO+
108.9743	9	C5HOS+
108.998	5	C5H3NS+
109.0283	11	C6H5O2+
109.0522	5	C6H7NO+
110.0059	135	C5H4NS+
110.06	25	C6H8NO+
110.9899	13	C5H3OS+
111.0012	10	C4H3N2S+
111.0137	2	C5H5NS+
111.0318	1	C5H5NO2+
111.9851	9	C4H2NOS+
112.0216	13	C5H6NS+
112.0393	11	C5H6NO2+
113.0055	30	C5H5OS+
114.0915	10	C6H12NO+
117.0209	16	C7H3NO+
118.0287	1	C7H4NO+
119.0367	9	C7H5NO+
119.0604	2	C7H7N2+
119.9904	19	C6H2NS+
120.0444	263	C7H6NO+
121.0523	299	C7H7NO+
122.0059	43	C6H4NS+
122.0239	19	C6H4NO2+
122.0362	203	C7H6O2+
122.9898	9	C6H3OS+
123.0316	1	C6H5NO2+
124.0393	11	C6H6NO2+
124.993	106	C5H3NOS+
125.0055	14	C6H5OS+
125.0235	6	C6H5O3+
125.9771	3	C5H2O2S+
127.0264	2	C5H5NO3+
129.996	1	C4H4NO2S+
132.008	762	C7H2NO2+
133.0159	8	C7H3NO2+
133.0284	7	C8H5O2+
134.0236	7	C7H4NO2+
135.0315	7	C7H5NO2+
135.9853	16	C6H2NOS+
136.0395	2	C7H6NO2+
137.0238	1	C7H5O3+
138.0009	23	C6H4NOS+
138.0184	14	C6H4NO3+
139.0087	8	C6H5NOS+
140.0165	69	C6H6NOS+
140.0342	12	C6H6NO3+
141.0005	11	C6H5O2S+
143.0037	6	C5H5NO2S+
143.9876	2	C5H4O3S+
147.0315	115	C8H5NO2+
148.003	23	C7H2NO3+
148.0394	32	C8H6NO2+
149.0233	10	C8H5O3+
149.0472	107	H11N3O4S+
150.0008	53	C7H4NOS+
150.0186	116	C7H4NO3+
150.0551	10	C8H8NO2+
151.0264	5	C7H5NO3+
152.0343	2	C7H6NO3+
152.988	13	C6H3NO2S+
153.0421	1	C7H7NO3+
158.0273	1	C6H8NO2S+
163.0266	7	C8H5NO3+
164.0344	7	C8H6NO3+
165.9958	2	C7H4NO2S+
166.0136	11	C7H4NO4+
168.0114	66	C7H6NO2S+
170.9982	4	C6H5NO3S+
177.9957	33	C8H4NO2S+
196.0062	29	C14N2+
