Mass spectrum: Flusilazole; LC-ESI-ITFT; MS2; CE: 90%; R=30000; [M+H]+
Name: Flusilazole
Name: bis(4-fluorophenyl)-methyl-(1,2,4-triazol-1-ylmethyl)silane
Formula: C16H15F2N3Si
Exact mass: 315.0998
SMILES: n1(cncn1)C[Si](c1ccc(F)cc1)(C)c1ccc(cc1)F
InChI: InChI=1S/C16H15F2N3Si/c1-22(12-21-11-19-10-20-21,15-6-2-13(17)3-7-15)16-8-4-14(18)5-9-16/h2-11H,12H2,1H3
Instrument: LTQ Orbitrap XL Thermo Scientific
Instrument type: LC-ESI-ITFT
Ms type: MS2
Ion mode: POSITIVE
Ionization: ESI
Fragmentation mode: HCD
Collision energy: 90 % (nominal)
Resolution: 30000
Column name: XBridge C18 3.5um, 2.1x50mm, Waters
Retention time: 12.4 min
Base peak: 316.1073
Precursor m/z: 316.1076
Precursor type: [M+H]+
m/z	relative intensity	assigned
53.0384	9	C4H5+
61.0103	13	CH5OSi+
63.006	5	CH4FSi+
64.9853	17	FH2OSi+
65.0385	24	C5H5+
77.0386	274	C6H5+
79.001	38	CH4FOSi+
79.0542	58	C6H7+
80.9966	11	CH3F2Si+
83.0291	4	C5H4F+
91.0542	245	C7H7+
95.0491	25	C6H7O+
99.0072	7	CH5F2OSi+
103.0541	60	C8H7+
105.0447	69	C6H5N2+
105.0698	68	C8H9+
109.0447	296	C2H5F2N3+
115.0542	76	C9H7+
123.006	57	C6H4FSi+
125.0216	31	C6H6FSi+
127.0542	8	C10H7+
128.0619	15	C5H7FN3+
139.0542	44	C11H7+
141.0166	28	C6H6FOSi+
141.0697	14	C6H8FN3+
143.0117	3	C6H5F2Si+
143.0322	4	C6H8FOSi+
149.0216	18	C3H5F2N3Si+
151.0373	15	C8H8FSi+
151.0542	44	C12H7+
152.062	256	C12H8+
153.0698	38	C7H8FN3+
155.0603	28	C10H7N2+
157.0278	30	C7H7F2Si+
159.0268	7	C9H7OSi+
159.0603	22	C6H7F2N3+
164.0619	81	C8H7FN3+
165.0698	999	C13H9+
166.0779	4	C13H10+
167.0321	46	C3H7F2N3OSi+
168.0568	23	C7H7FN3O+
169.0477	24	C3H9F2N3OSi+
169.0647	10	C7H8FN3O+
170.0525	71	C7H6F2N3+
175.0221	10	C10H3F2N+
175.0385	5	C7H9F2OSi+
178.0776	49	C9H9FN3+
179.0602	20	C12H7N2+
179.0854	9	C9H10FN3+
183.0603	231	C8H7F2N3+
184.0682	29	C13H9F+
185.0227	11	C8H7F2OSi+
185.076	38	C13H10F+
196.0517	8	C10H10F2Si+
199.0373	11	C12H8FSi+
217.0277	13	C12H7F2Si+
217.0477	19	C15H9Si+
219.0434	60	C12H9F2Si+
231.0429	5	C13H9F2Si+
235.0382	44	C15H8FSi+
237.0537	8	C15H10FSi+
247.0698	3	C15H11N2Si+
247.0812	5	C16H13NSi+
