Mass spectrum: Triallate; LC-ESI-QFT; MS2; CE: 180; R=35000; [M+H]+
Name: Triallate
Name: S-(2,3,3-trichloroprop-2-enyl) N,N-di(propan-2-yl)carbamothioate
Formula: C10H16Cl3NOS
Exact mass: 303.00182
SMILES: CC(C)N(C(C)C)C(=O)SCC(=C(Cl)Cl)Cl
InChI: InChI=1S/C10H16Cl3NOS/c1-6(2)14(7(3)4)10(15)16-5-8(11)9(12)13/h6-7H,5H2,1-4H3
Instrument: Q Exactive Plus Orbitrap Thermo Scientific
Instrument type: LC-ESI-QFT
Ms type: MS2
Ion mode: POSITIVE
Ionization: ESI
Fragmentation mode: HCD
Collision energy: 180 (nominal)
Resolution: 35000
Column name: XBridge C18 3.5um, 2.1x50mm, Waters
Retention time: 15.9 min
Base peak: 279.1584
Precursor m/z: 304.0091
Precursor type: [M+H]+
m/z	relative intensity	assigned
53.0022	6	C3HO+
58.0651	9	C3H8N+
60.984	18	C2H2Cl+
62.9632	20	CClO+
65.0386	3	C5H5+
68.9793	12	C3HS+
69.9871	1	C3H2S+
70.9683	4	C3Cl+
71.9761	5	C3HCl+
72.9839	21	C3H2Cl+
78.9403	15	CClS+
81.9371	4	CCl2+
82.945	999	CHCl2+
88.9789	2	C3H2ClO+
91.0543	1	C7H7+
96.9608	3	C2H3Cl2+
104.9561	1	C3H2ClS+
106.945	22	C3HCl2+
116.906	5	CCl3+
