Mass spectrum: Formothion; LC-ESI-QFT; MS2; CE: 75%; R=17500; [M+H]+
Name: Formothion
Name: 2-dimethoxyphosphinothioylsulfanyl-N-formyl-N-methylacetamide
Formula: C6H12NO4PS2
Exact mass: 256.9945
SMILES: CN(C=O)C(=O)CSP(=S)(OC)OC
InChI: InChI=1S/C6H12NO4PS2/c1-7(5-8)6(9)4-14-12(13,10-2)11-3/h5H,4H2,1-3H3
Instrument: Exploris 240 Orbitrap Thermo Scientific
Instrument type: LC-ESI-QFT
Ms type: MS2
Ion mode: POSITIVE
Ionization: ESI
Fragmentation mode: HCD
Collision energy: 75 % (nominal)
Resolution: 17500
Column name: XBridge C18 3.5um, 2.1x50mm, Waters
Retention time: 5.214 min
Base peak: 198.9647
Precursor m/z: 258.0018
Precursor type: [M+H]+
m/z	relative intensity	assigned
58.9948	5	C2H3S+
62.0184	50	C2H6S+
62.9993	18	CH4OP+
78.9943	339	CH4O2P+
88.0217	27	C3H6NS+
93.0099	195	C2H6O2P+
100.0392	56	C4H6NO2+
110.9661	37	CH4O2PS+
116.0164	12	C4H6NOS+
124.982	999	C2H6O2PS+
127.0151	8	C2H8O4P+
128.9768	29	CH6O3PS+
142.9926	493	C2H8O3PS+
156.954	72	C2H6O2PS2+
157.0083	58	C3H10O3PS+
170.9696	5	C3H8O2PS2+
183.0232	5	C5H12O3PS+
