Mass spectrum: Ifosfamide; LC-ESI-ITFT; MS2; CE: 60%; R=15000; [M+H]+
Name: Ifosfamide
Name: Isophosphamide
Name: N,3-Bis(2-chloroethyl)-1,3,2-oxazaphosphinan-2-amine 2-oxide
Formula: C7H15Cl2N2O2P
Exact mass: 260.0248
SMILES: ClCCN(P(OC1)(=O)NCCCl)CC1
InChI: InChI=1S/C7H15Cl2N2O2P/c8-2-4-10-14(12)11(6-3-9)5-1-7-13-14/h1-7H2,(H,10,12)
Instrument: LTQ Orbitrap XL Thermo Scientific
Instrument type: LC-ESI-ITFT
Ms type: MS2
Ion mode: POSITIVE
Ionization: ESI
Fragmentation mode: HCD
Collision energy: 60 % (nominal)
Resolution: 15000
Column name: XBridge C18 3.5um, 2.1x50mm, Waters
Retention time: 6.3 min
Base peak: 261.0321
Precursor m/z: 261.0321
Precursor type: [M+H]+
m/z	relative intensity	assigned
56.0495	10	C3H6N+
62.9996	32	C2H4Cl+
67.0544	2	C5H7+
72.0444	5	C3H6NO+
78.0106	163	C2H5ClN+
80.0263	6	C2H7ClN+
82.0651	8	C5H8N+
84.0808	5	C5H10N+
92.0262	999	C3H7ClN+
106.0053	9	C2H5NO2P+
115.9664	7	ClH4NO2P+
116.9503	27	CH3Cl2O2+
118.0055	5	C4H5ClNO+
118.0419	16	CH12ClN2P+
120.0575	172	C5H11ClN+
123.9713	5	C2H4ClNOP+
124.0157	7	C3H7ClNO2+
125.9507	27	C2H2Cl2NO+
126.9708	5	C2H5ClO2P+
127.9664	25	C2H4Cl2NO+
128.0259	18	C5H7NOP+
136.0157	15	C4H7ClNO2+
141.982	39	C3H6Cl2NO+
143.9613	2	C2H4Cl2NO2+
146.0366	36	C5H9NO2P+
153.9819	767	C3H6ClNO2P+
182.0133	70	C5H10ClNO2P+
185.0243	2	C5H11Cl2N2O+
200.0239	5	C6H12Cl2NO2+
233.0008	46	C5H12Cl2N2O2P+
261.0321	19	C7H16Cl2N2O2P+
