Mass spectrum: Oseltamivir; LC-ESI-ITFT; MS2; CE: 75%; R=15000; [M+H]+
Name: Oseltamivir
Name: (3R,4R,5S)-4-acetamido-5-amino-3-(1-ethylpropoxy)cyclohexene-1-carboxylic acid ethyl ester
Formula: C16H28N2O4
Exact mass: 312.2049
SMILES: CCC(CC)OC1C=C(CC(C1NC(=O)C)N)C(=O)OCC
InChI: InChI=1S/C16H28N2O4/c1-5-12(6-2)22-14-9-11(16(20)21-7-3)8-13(17)15(14)18-10(4)19/h9,12-15H,5-8,17H2,1-4H3,(H,18,19)/t13-,14+,15+/m0/s1
Instrument: LTQ Orbitrap XL Thermo Scientific
Instrument type: LC-ESI-ITFT
Ms type: MS2
Ion mode: POSITIVE
Ionization: ESI
Fragmentation mode: HCD
Collision energy: 75 % (nominal)
Resolution: 15000
Column name: XBridge C18 3.5um, 2.1x50mm, Waters
Retention time: 7.0 min
Base peak: 313.2132
Precursor m/z: 313.2122
Precursor type: [M+H]+
m/z	relative intensity	assigned
60.0444	13	C2H6NO+
65.0386	150	C5H5+
67.0542	98	C5H7+
68.0495	19	C4H6N+
77.0386	34	C6H5+
80.0495	57	C5H6N+
82.0652	40	C5H8N+
83.0492	15	C5H7O+
92.0495	287	C6H6N+
93.0335	200	C6H5O+
93.0573	144	C6H7N+
94.0652	687	C6H8N+
95.0491	26	C6H7O+
95.0855	11	C7H11+
105.0448	8	C6H5N2+
106.0648	6	C7H8N+
108.0445	14	C6H6NO+
108.0685	10	C6H8N2+
109.076	185	C6H9N2+
110.0601	115	C6H8NO+
111.0439	24	C6H7O2+
119.0604	47	C7H7N2+
120.0444	999	C7H6NO+
121.0281	9	C7H5O2+
122.0964	6	C8H12N+
126.0547	5	C6H8NO2+
133.0763	7	C8H9N2+
134.0601	16	C8H8NO+
136.076	5	C8H10NO+
137.0472	57	C7H7NO2+
137.071	217	C7H9N2O+
138.0549	282	C7H8NO2+
138.0914	17	C8H12NO+
161.0713	9	C9H9N2O+
162.0549	23	C9H8NO2+
166.0862	237	C9H12NO2+
