Mass spectrum: Nicosulfuron-TP UCSN; LC-ESI-QFT; MS2; CE: 180%; R=17500; [M+H]+
Name: Nicosulfuron-TP UCSN
Name: 2-[(Carbamoylcarbamoyl)sulfamoyl]-N,N-dimethylnicotinamide
Formula: C10H13N5O5S
Exact mass: 315.0637
SMILES: CN(C)C(=O)C1=CC=CN=C1S(=O)(=O)NC(=O)NC(N)=O
InChI: InChI=1S/C10H13N5O5S/c1-15(2)8(16)6-4-3-5-12-7(6)21(19,20)14-10(18)13-9(11)17/h3-5H,1-2H3,(H4,11,13,14,17,18)
Instrument: Q Exactive Plus Orbitrap Thermo Scientific
Instrument type: LC-ESI-QFT
Ms type: MS2
Ion mode: POSITIVE
Ionization: ESI
Fragmentation mode: HCD
Collision energy: 180 % (nominal)
Resolution: 17500
Column name: XBridge C18 3.5um, 2.1x50mm, Waters
Retention time: 1.505 min
Base peak: 316.0711
Precursor m/z: 316.071
Precursor type: [M+H]+
m/z	relative intensity	assigned
50.0151	473	C4H2+
51.023	999	C4H3+
52.0181	26	C3H2N+
52.0308	4	C4H4+
53.0022	17	C3HO+
55.018	3	C3H3O+
64.0182	46	C4H2N+
65.0021	32	C4HO+
65.0386	13	C5H5+
66.01	7	C4H2O+
69.9923	23	C2NO2+
76.018	4	C5H2N+
78.0338	245	C5H4N+
79.0414	7	C5H5N+
82.0286	4	C4H4NO+
96.0441	19	C5H6NO+
