Mass spectrum: Tributylphosphine oxide; LC-ESI-QFT; MS2; CE: 60; R=35000; [M+H]+
Name: Tributylphosphine oxide
Name: Tri-n-butylphosphine oxide
Formula: C12H27OP
Exact mass: 218.17995
SMILES: CCCCP(=O)(CCCC)CCCC
InChI: InChI=1S/C12H27OP/c1-4-7-10-14(13,11-8-5-2)12-9-6-3/h4-12H2,1-3H3
Instrument: Q Exactive Plus Orbitrap Thermo Scientific
Instrument type: LC-ESI-QFT
Ms type: MS2
Ion mode: POSITIVE
Ionization: ESI
Fragmentation mode: HCD
Collision energy: 60 (nominal)
Resolution: 35000
Column name: XBridge C18 3.5um, 2.1x50mm, Waters
Retention time: 11.0 min
Base peak: 219.1869
Precursor m/z: 219.1872
Precursor type: [M+H]+
m/z	relative intensity	assigned
55.0542	3	C4H7+
57.0699	12	C4H9+
61.0202	5	C2H6P+
62.9994	12	CH4OP+
64.0072	5	CH5OP+
75.0358	1	C3H8P+
77.015	1	C2H6OP+
78.0229	86	C2H7OP+
78.9944	1	CH4O2P+
87.0358	3	C4H8P+
89.0514	10	C4H10P+
91.0307	3	C3H8OP+
92.0385	87	C3H9OP+
93.01	4	C2H6O2P+
95.0257	1	C2H8O2P+
103.0671	8	C5H12P+
105.0464	7	C4H10OP+
106.0542	8	C4H11OP+
107.062	13	C4H12OP+
119.0621	1	C5H12OP+
120.0698	10	C5H13OP+
121.0411	1	C4H10O2P+
133.0776	9	C6H14OP+
134.0854	2	C6H15OP+
135.0569	8	C5H12O2P+
135.0933	2	C6H16OP+
145.1141	3	C8H18P+
147.0933	13	C7H16OP+
149.0727	1	C6H14O2P+
161.109	18	C8H18OP+
162.1166	1	C8H19OP+
163.1246	95	C8H20OP+
175.1247	8	C9H20OP+
177.1401	4	C9H22OP+
191.1558	20	C10H24OP+
219.1872	999	C12H28OP+
