Mass spectrum: Deferasirox; LC-ESI-QFT; MS2; CE: 90; R=35000; [M-H]-
Name: Deferasirox
Formula: C21H15N3O4
Exact mass: 373.10626
SMILES: OC(=O)c1ccc(cc1)n2nc(nc2c3ccccc3O)c4ccccc4O
InChI: InChI=1S/C21H15N3O4/c25-17-7-3-1-5-15(17)19-22-20(16-6-2-4-8-18(16)26)24(23-19)14-11-9-13(10-12-14)21(27)28/h1-12,25-26H,(H,27,28)
Instrument: Q Exactive Orbitrap Thermo Scientific
Instrument type: LC-ESI-QFT
Ms type: MS2
Ion mode: NEGATIVE
Ionization: ESI
Fragmentation mode: HCD
Collision energy: 90 (nominal)
Resolution: 35000
Column name: XBridge C18 3.5um, 2.1x50mm, Waters
Retention time: 13.0 min
Base peak: 372.0991
Precursor m/z: 372.099
Precursor type: [M-H]-
m/z	relative intensity	assigned
90.0349	64	C6H4N-
93.0346	43	C6H5O-
102.0349	1	C7H4N-
115.0303	3	C7H3N2-
117.0461	10	C7H5N2-
118.0299	999	C7H4NO-
121.0295	9	C7H5O2-
131.0375	4	C8H5NO-
132.0329	15	C7H4N2O-
133.0408	35	C7H5N2O-
166.0661	2	C12H8N-
169.0656	2	C12H9O-
180.0581	1	C13H8O-
180.0694	1	C12H8N2-
191.0616	1	C13H7N2-
194.061	9	C13H8NO-
206.0485	1	C13H6N2O-
209.0721	1	C13H9N2O-
218.0721	1	C14H8N3-
222.056	1	C14H8NO2-
223.064	2	C14H9NO2-
234.0674	1	C14H8N3O-
252.0777	52	C14H10N3O2-
