Mass spectrum: Flutriafol; LC-ESI-QFT; MS2; CE: 45; R=35000; [M+H]+
Name: Flutriafol
Name: 1-(2-fluorophenyl)-1-(4-fluorophenyl)-2-(1,2,4-triazol-1-yl)ethanol
Formula: C16H13F2N3O
Exact mass: 301.10267
SMILES: C1=CC=C(C(=C1)C(CN2C=NC=N2)(C3=CC=C(C=C3)F)O)F
InChI: InChI=1S/C16H13F2N3O/c17-13-7-5-12(6-8-13)16(22,9-21-11-19-10-20-21)14-3-1-2-4-15(14)18/h1-8,10-11,22H,9H2
Instrument: Q Exactive Plus Orbitrap Thermo Scientific
Instrument type: LC-ESI-QFT
Ms type: MS2
Ion mode: POSITIVE
Ionization: ESI
Fragmentation mode: HCD
Collision energy: 45 (nominal)
Resolution: 35000
Column name: XBridge C18 3.5um, 2.1x50mm, Waters
Retention time: 8.6 min
Base peak: 302.1094
Precursor m/z: 302.1099
Precursor type: [M+H]+
m/z	relative intensity	assigned
70.0399	999	C2H4N3+
91.0543	1	C7H7+
109.0448	139	C7H6F+
123.0241	345	C2H3F2N3O+
137.0398	27	C8H6FO+
165.0699	1	C13H9+
185.076	2	C13H10F+
195.0608	2	C14H8F+
215.0668	17	C14H9F2+
233.0774	19	C14H11F2O+
