Mass spectrum: Oxasulfuron; LC-ESI-QFT; MS2; CE: 75%; R=15000; [M-H]-
Name: Oxasulfuron
Name: oxetan-3-yl 2-[(4,6-dimethylpyrimidin-2-yl)carbamoylsulfamoyl]benzoate
Formula: C17H18N4O6S
Exact mass: 406.0947053
SMILES: CC1=CC(=NC(=N1)NC(=O)NS(=O)(=O)C2=CC=CC=C2C(=O)OC3COC3)C
InChI: InChI=1S/C17H18N4O6S/c1-10-7-11(2)19-16(18-10)20-17(23)21-28(24,25)14-6-4-3-5-13(14)15(22)27-12-8-26-9-12/h3-7,12H,8-9H2,1-2H3,(H2,18,19,20,21,23)
Instrument: Exploris 240 Thermo Scientific
Instrument type: LC-ESI-QFT
Ms type: MS2
Ion mode: NEGATIVE
Ionization: ESI
Fragmentation mode: HCD
Collision energy: 75 % (nominal)
Resolution: 15000
Column name: XBridge C18 3.5um, 2.1x50mm, Waters
Retention time: 5.473 min
Base peak: 405.0876
Precursor m/z: 405.0874
Precursor type: [M-H]-
m/z	relative intensity	assigned
61.9706	20	NOS-
81.0459	27	C4H5N2-
105.9606	32	CNO3S-
122.0724	999	C6H8N3-
181.9919	421	C7H4NO3S-
