Mass spectrum: Ethoxyquin; LC-ESI-QFT; MS2; CE: 120; R=35000; [M+H]+
Name: Ethoxyquin
Name: 6-ethoxy-2,2,4-trimethyl-1H-quinoline
Formula: C14H19NO
Exact mass: 217.14666
SMILES: CCOC1=CC2=C(C=C1)NC(C=C2C)(C)C
InChI: InChI=1S/C14H19NO/c1-5-16-11-6-7-13-12(8-11)10(2)9-14(3,4)15-13/h6-9,15H,5H2,1-4H3
Instrument: Q Exactive Plus Orbitrap Thermo Scientific
Instrument type: LC-ESI-QFT
Ms type: MS2
Ion mode: POSITIVE
Ionization: ESI
Fragmentation mode: HCD
Collision energy: 120 (nominal)
Resolution: 35000
Column name: XBridge C18 3.5um, 2.1x50mm, Waters
Retention time: 7.0 min
Base peak: 218.1537
Precursor m/z: 218.1539
Precursor type: [M+H]+
m/z	relative intensity	assigned
50.0151	14	C4H2+
51.0229	13	C4H3+
52.0308	2	C4H4+
53.0022	12	C3HO+
53.0386	96	C4H5+
53.9975	2	C2NO+
54.0339	14	C3H4N+
55.0179	31	C3H3O+
55.0543	32	C4H7+
56.0495	3	C3H6N+
57.0699	8	C4H9+
59.0491	1	C3H7O+
63.0229	17	C5H3+
64.0308	1	C5H4+
65.0386	278	C5H5+
66.0464	24	C5H6+
67.0417	11	C4H5N+
67.0543	60	C5H7+
68.0131	13	C3H2NO+
68.0495	8	C4H6N+
68.9972	2	C3HO2+
70.0287	2	C3H4NO+
77.0385	101	C6H5+
78.0338	9	C5H4N+
78.0464	63	C6H6+
79.0416	19	C5H5N+
79.0543	361	C6H7+
80.0131	7	C4H2NO+
80.0495	85	C5H6N+
81.0336	23	C5H5O+
81.0574	17	C5H7N+
81.0699	8	C6H9+
82.0288	7	C4H4NO+
82.0413	1	C5H6O+
82.0652	8	C5H8N+
83.0366	2	C4H5NO+
89.0386	176	C7H5+
90.0339	7	C6H4N+
90.0465	22	C7H6+
91.0543	428	C7H7+
92.0495	22	C6H6N+
92.0621	1	C7H8+
93.0336	11	C6H5O+
93.0574	67	C6H7N+
93.07	43	C7H9+
94.0413	20	C6H6O+
94.0652	81	C6H8N+
95.0492	316	C6H7O+
96.0444	29	C5H6NO+
102.0465	20	C8H6+
103.0543	230	C8H7+
104.0495	195	C7H6N+
105.0337	18	C7H5O+
105.0448	181	C6H5N2+
105.0574	212	C7H7N+
105.07	100	C8H9+
106.0415	13	C7H6O+
106.0652	204	C7H8N+
107.0492	290	C7H7O+
108.0444	51	C6H6NO+
109.0523	58	C6H7NO+
110.0601	16	C6H8NO+
111.0316	3	C5H5NO2+
111.0441	30	C6H7O2+
112.0391	2	C5H6NO2+
115.0543	343	C9H7+
116.0495	101	C8H6N+
116.0621	33	C9H8+
117.0574	577	C8H7N+
117.0698	30	C9H9+
118.0652	603	C8H8N+
119.0494	8	C8H7O+
119.0731	46	C8H9N+
119.0855	12	C9H11+
120.0443	14	C7H6NO+
120.0809	73	C8H10N+
121.0397	33	C6H5N2O+
121.0649	11	C8H9O+
122.0601	117	C7H8NO+
127.0543	12	C10H7+
128.0496	18	C9H6N+
128.0621	124	C10H8+
129.0699	138	C10H9+
130.0653	394	C9H8N+
130.0777	20	C10H10+
131.0731	778	C9H9N+
132.0445	27	C8H6NO+
132.0809	313	C9H10N+
133.0523	541	C8H7NO+
134.0601	167	C8H8NO+
135.0679	10	C8H9NO+
139.0542	3	C11H7+
140.0496	6	C10H6N+
141.0574	4	C10H7N+
141.0699	18	C11H9+
142.0652	34	C10H8N+
143.0495	9	C10H7O+
143.0731	188	C10H9N+
144.0445	36	C9H6NO+
144.0559	57	C8H6N3+
144.0809	93	C10H10N+
145.0524	28	C9H7NO+
145.0648	20	C10H9O+
145.0888	177	C10H11N+
146.0602	907	C9H8NO+
146.0965	350	C10H12N+
147.068	46	C9H9NO+
147.0807	2	C10H11O+
148.0758	52	C9H10NO+
152.0619	2	C12H8+
153.0702	2	C12H9+
154.0654	2	C11H8N+
155.0606	35	C10H7N2+
156.0809	71	C11H10N+
157.065	51	C11H9O+
157.0887	55	C11H11N+
158.0601	22	C10H8NO+
158.0724	20	C11H10O+
158.0966	78	C11H12N+
159.068	343	C10H9NO+
160.0758	999	C10H10NO+
161.0837	8	C10H11NO+
162.0551	13	C9H8NO2+
172.0759	17	C11H10NO+
172.1124	7	C12H14N+
173.0837	59	C11H11NO+
174.0915	684	C11H12NO+
188.1074	17	C12H14NO+
202.1227	9	C13H16NO+
