Mass spectrum: 1H-Benzotriazole, 4(or 5)-methyl-; LC-ESI-QFT; MS2; CE: 75; R=35000; [M+H]+
Name: 1H-Benzotriazole, 4(or 5)-methyl-
Name: 4-methyl-2H-benzotriazole
Formula: C7H7N3
Exact mass: 133.06400
SMILES: n1nc2c(cccc2[nH]1)C
InChI: InChI=1S/C7H7N3/c1-5-3-2-4-6-7(5)9-10-8-6/h2-4H,1H3,(H,8,9,10)
Instrument: Q Exactive Plus Orbitrap Thermo Scientific
Instrument type: LC-ESI-QFT
Ms type: MS2
Ion mode: POSITIVE
Ionization: ESI
Fragmentation mode: HCD
Collision energy: 75 (nominal)
Resolution: 35000
Column name: XBridge C18 3.5um, 2.1x50mm, Waters
Retention time: 5.8 min
Base peak: 134.0712
Precursor m/z: 134.0713
Precursor type: [M+H]+
m/z	relative intensity	assigned
50.0151	6	C4H2+
51.0228	7	C4H3+
53.0386	87	C4H5+
54.0338	2	C3H4N+
55.0179	5	C3H3O+
63.0229	2	C5H3+
65.0385	8	C5H5+
66.0339	3	C4H4N+
66.0464	21	C5H6+
67.0416	17	C4H5N+
77.0385	246	C6H5+
78.0338	21	C5H4N+
78.0464	10	C6H6+
79.0542	915	C6H7+
80.0494	29	C5H6N+
81.0335	10	C5H5O+
89.0386	15	C7H5+
91.0417	6	C6H5N+
94.0414	4	C6H6O+
95.0491	346	C6H7O+
96.0444	31	C5H6NO+
104.0495	5	C7H6N+
105.0447	174	C6H5N2+
106.0651	275	C7H8N+
134.0712	999	C7H8N3+
