Mass spectrum: Oxprenolol; LC-ESI-QFT; MS2; CE: 75; R=35000; [M+H]+
Name: Oxprenolol
Name: 1-(2-allyloxyphenoxy)-3-(isopropylamino)propan-2-ol
Formula: C15H23NO3
Exact mass: 265.16779
SMILES: O(c1ccccc1OC\C=C)CC(O)CNC(C)C
InChI: InChI=1S/C15H23NO3/c1-4-9-18-14-7-5-6-8-15(14)19-11-13(17)10-16-12(2)3/h4-8,12-13,16-17H,1,9-11H2,2-3H3
Instrument: Q Exactive Orbitrap Thermo Scientific
Instrument type: LC-ESI-QFT
Ms type: MS2
Ion mode: POSITIVE
Ionization: ESI
Fragmentation mode: HCD
Collision energy: 75 (nominal)
Resolution: 35000
Column name: XBridge C18 3.5um, 2.1x50mm, Waters
Retention time: 5.8 min
Base peak: 266.1755
Precursor m/z: 266.1751
Precursor type: [M+H]+
m/z	relative intensity	assigned
56.0496	742	C3H6N+
58.0653	226	C3H8N+
72.0808	999	C4H10N+
74.0602	151	C3H8NO+
116.107	21	C6H14NO+
