Mass spectrum: Sulfamethoxazole; LC-ESI-ITFT; MS2; CE: 35%; R=30000; [M+H]+
Name: Sulfamethoxazole
Name: 4-Amino-N-(5-methyl-3-isoxazolyl)benzenesulfonamide
Name: 4-amino-N-(5-methyl-1,2-oxazol-3-yl)benzenesulfonamide
Formula: C10H11N3O3S
Exact mass: 253.0521
SMILES: c1(S(Nc2cc(C)on2)(=O)=O)ccc(N)cc1
InChI: InChI=1S/C10H11N3O3S/c1-7-6-10(12-16-7)13-17(14,15)9-4-2-8(11)3-5-9/h2-6H,11H2,1H3,(H,12,13)
Instrument: LTQ Orbitrap XL Thermo Scientific
Instrument type: LC-ESI-ITFT
Ms type: MS2
Ion mode: POSITIVE
Ionization: ESI
Fragmentation mode: CID
Collision energy: 35 % (nominal)
Resolution: 30000
Column name: XBridge C18 3.5um, 2.1x50mm, Waters
Retention time: 4.6 min
Base peak: 254.0603
Precursor m/z: 254.0594
Precursor type: [M+H]+
m/z	relative intensity	assigned
65.0389	5	C5H5+
92.0495	46	C6H6N+
93.0573	24	C6H7N+
94.0651	32	C6H8N+
99.0553	19	C4H7N2O+
107.0603	20	C6H7N2+
108.0444	121	C6H6NO+
121.076	4	C7H9N2+
131.0603	2	C8H7N2+
133.0635	4	C7H7N3+
146.0712	108	C8H8N3+
147.0791	503	C8H9N3+
148.0869	125	C8H10N3+
156.0114	999	C6H6NO2S+
160.0868	153	C9H10N3+
161.0017	5	C4H5N2O3S+
161.0709	7	C9H9N2O+
163.0864	6	C9H11N2O+
172.0868	11	C10H10N3+
176.0276	24	C8H6N3S+
188.0819	943	C10H10N3O+
190.0975	375	C10H12N3O+
194.0382	335	C8H8N3OS+
236.0488	112	C10H10N3O2S+
254.0593	43	C10H12N3O3S+
