Mass spectrum: Phosphamidon; LC-ESI-QFT; MS2; CE: 150%; R=17500; [M+H]+
Name: Phosphamidon
Name: 2-Chloro-3-(diethylamino)-1-methyl-3-oxo-1-propenyl dimethyl phosphate
Name: [3-chloro-4-(diethylamino)-4-oxobut-2-en-2-yl] dimethyl phosphate
Formula: C10H19ClNO5P
Exact mass: 299.0689
SMILES: CCN(CC)C(=O)C(=C(C)OP(=O)(OC)OC)Cl
InChI: InChI=1S/C10H19ClNO5P/c1-6-12(7-2)10(13)9(11)8(3)17-18(14,15-4)16-5/h6-7H2,1-5H3
Instrument: Exploris 240 Orbitrap Thermo Scientific
Instrument type: LC-ESI-QFT
Ms type: MS2
Ion mode: POSITIVE
Ionization: ESI
Fragmentation mode: HCD
Collision energy: 150 % (nominal)
Resolution: 17500
Column name: XBridge C18 3.5um, 2.1x50mm, Waters
Retention time: 5.169 min
Base peak: 300.076
Precursor m/z: 300.0762
Precursor type: [M+H]+
m/z	relative intensity	assigned
65.0386	382	C5H5+
67.0417	194	C4H5N+
72.984	999	C3H2Cl+
74.9871	330	C2H2ClN+
74.9996	290	C3H4Cl+
75.9949	632	C2H3ClN+
78.9946	305	CH4O2P+
109.005	175	C2H6O3P+
113.0001	352	C2H6ClO3+
