Mass spectrum: Spirotetramat Metabolite BYI08330 Enol-Glucoside; LC-ESI-QFT; MS2; CE: 120%; R=17500; [M+H]+
Name: Spirotetramat Metabolite BYI08330 Enol-Glucoside
Name: 3-(2,5-dimethylphenyl)-8-methoxy-4-[3,4,5-trihydroxy-6-(hydroxymethyl)oxan-2-yl]oxy-1-azaspiro[4.5]dec-3-en-2-one
Formula: C24H33NO8
Exact mass: 463.2206
SMILES: CC1=CC(=C(C=C1)C)C2=C(C3(CCC(CC3)OC)NC2=O)OC4C(C(C(C(O4)CO)O)O)O
InChI: InChI=1S/C24H33NO8/c1-12-4-5-13(2)15(10-12)17-21(24(25-22(17)30)8-6-14(31-3)7-9-24)33-23-20(29)19(28)18(27)16(11-26)32-23/h4-5,10,14,16,18-20,23,26-29H,6-9,11H2,1-3H3,(H,25,30)
Instrument: Exploris 240 Orbitrap Thermo Scientific
Instrument type: LC-ESI-QFT
Ms type: MS2
Ion mode: POSITIVE
Ionization: ESI
Fragmentation mode: HCD
Collision energy: 120 % (nominal)
Resolution: 17500
Column name: XBridge C18 3.5um, 2.1x50mm, Waters
Retention time: 3.587 min
Base peak: 464.2275
Precursor m/z: 464.2279
Precursor type: [M+H]+
m/z	relative intensity	assigned
53.0386	70	C4H5+
55.0177	31	C3H3O+
55.0543	33	C4H7+
65.0386	83	C5H5+
67.0542	52	C5H7+
77.0386	123	C6H5+
78.0463	31	C6H6+
79.0542	178	C6H7+
91.0542	963	C7H7+
103.0545	138	C8H7+
104.0618	86	C8H8+
105.0698	517	C8H9+
115.0542	999	C9H7+
116.0622	103	C9H8+
117.0699	520	C9H9+
119.0854	432	C9H11+
127.0545	76	C10H7+
128.062	573	C10H8+
129.0698	478	C10H9+
130.0651	115	C9H8N+
130.0778	432	C10H10+
141.0704	99	C11H9+
142.0777	31	C11H10+
143.0855	148	C11H11+
144.0806	160	C10H10N+
145.0886	172	C10H11N+
145.1016	103	C11H13+
152.0624	47	C12H8+
153.0698	136	C12H9+
154.0645	42	C11H8N+
155.0855	57	C12H11+
156.0808	37	C11H10N+
157.0646	46	C11H9O+
158.0725	161	C11H10O+
165.07	69	C13H9+
167.0853	63	C13H11+
178.0776	61	C14H10+
179.0849	52	C14H11+
