Mass spectrum: Uvinul-LR; LC-ESI-QFT; MS2; CE: 75%; R=17500; [M+H]+
Name: Uvinul-LR
Name: 2-ethoxyethyl 2-cyano-2-[3-(3-methoxypropylamino)cyclohex-2-en-1-ylidene]acetate
Formula: C17H26N2O4
Exact mass: 322.1893
SMILES: CCOCCOC(=O)C(=C1CCCC(=C1)NCCCOC)C#N
InChI: InChI=1S/C17H26N2O4/c1-3-22-10-11-23-17(20)16(13-18)14-6-4-7-15(12-14)19-8-5-9-21-2/h12,19H,3-11H2,1-2H3
Instrument: Exploris 240 Orbitrap Thermo Scientific
Instrument type: LC-ESI-QFT
Ms type: MS2
Ion mode: POSITIVE
Ionization: ESI
Fragmentation mode: HCD
Collision energy: 75 % (nominal)
Resolution: 17500
Column name: XBridge C18 3.5um, 2.1x50mm, Waters
Retention time: 6.721 min
Base peak: 233.1283
Precursor m/z: 323.1965
Precursor type: [M+H]+
m/z	relative intensity	assigned
73.0648	137	C4H9O+
79.0542	94	C6H7+
91.0543	173	C7H7+
92.0496	20	C6H6N+
104.0495	65	C7H6N+
105.0448	56	C6H5N2+
106.0655	45	C7H8N+
116.0496	331	C8H6N+
117.0574	51	C8H7N+
118.0651	267	C8H8N+
120.0448	23	C7H6NO+
120.0809	38	C8H10N+
128.0498	26	C9H6N+
130.0651	26	C9H8N+
131.073	21	C9H9N+
132.045	37	C8H6NO+
132.0807	28	C9H10N+
133.076	53	C8H9N2+
143.0603	43	C9H7N2+
144.0445	47	C9H6NO+
145.076	448	C9H9N2+
146.06	416	C9H8NO+
147.0918	191	C9H11N2+
158.0838	37	C10H10N2+
161.0705	84	C9H9N2O+
173.0711	999	C10H9N2O+
173.1069	178	C11H13N2+
175.1229	34	C11H15N2+
201.1023	918	C12H13N2O+
233.1283	244	C13H17N2O2+
