Mass spectrum: Topiramate; LC-ESI-QFT; MS2; CE: 75; R=35000; [M+H]+
Name: Topiramate
Name: Topamax
Name: (2,2,7,7-tetramethyl-5,5a,8a,8b-tetrahydrodi[1,3]dioxolo[4,5-a:5`,3`-d]pyran-3a-yl)methyl sulfamate
Formula: C12H21NO8S
Exact mass: 339.09879
SMILES: CC1(OC2COC3(C(C2O1)OC(O3)(C)C)COS(=O)(=O)N)C
InChI: InChI=1S/C12H21NO8S/c1-10(2)18-7-5-16-12(6-17-22(13,14)15)9(8(7)19-10)20-11(3,4)21-12/h7-9H,5-6H2,1-4H3,(H2,13,14,15)
Instrument: Q Exactive Plus Orbitrap Thermo Scientific
Instrument type: LC-ESI-QFT
Ms type: MS2
Ion mode: POSITIVE
Ionization: ESI
Fragmentation mode: HCD
Collision energy: 75 (nominal)
Resolution: 35000
Column name: XBridge C18 3.5um, 2.1x50mm, Waters
Retention time: 6.1 min
Base peak: 357.132
Precursor m/z: 340.1061
Precursor type: [M+H]+
m/z	relative intensity	assigned
51.0229	2	C4H3+
53.0022	16	C3HO+
53.0386	131	C4H5+
53.9975	3	C2NO+
54.0338	14	C3H4N+
55.0179	198	C3H3O+
55.0543	16	C4H7+
56.0495	69	C3H6N+
57.0335	162	C3H5O+
57.0699	11	C4H9+
58.0652	6	C3H8N+
59.0492	999	C3H7O+
60.0444	12	C2H6NO+
61.0284	46	C2H5O2+
65.0387	9	C5H5+
67.0543	40	C5H7+
68.0495	33	C4H6N+
69.0335	219	C4H5O+
70.0287	10	C3H4NO+
70.0651	25	C4H8N+
71.0128	57	C3H3O2+
71.0492	29	C4H7O+
72.0444	16	C3H6NO+
73.0284	73	C3H5O2+
77.0386	6	C6H5+
79.0542	51	C6H7+
79.9801	142	H2NO2S+
80.0494	31	C5H6N+
81.0335	422	C5H5O+
82.0288	14	C4H4NO+
82.0651	9	C5H8N+
83.0128	18	C4H3O2+
83.0492	14	C5H7O+
84.0444	30	C4H6NO+
84.0808	1	C5H10N+
85.0284	101	C4H5O2+
87.0078	12	C3H3O3+
87.0442	9	C4H7O2+
91.0543	13	C7H7+
93.0699	2	C7H9+
94.0653	16	C6H8N+
95.0492	156	C6H7O+
96.0444	27	C5H6NO+
96.0571	3	C6H8O+
96.0808	7	C6H10N+
97.0285	100	C5H5O2+
97.0648	12	C6H9O+
98.0237	11	C4H4NO2+
98.0362	1	C5H6O2+
98.0602	14	C5H8NO+
99.0077	26	C4H3O3+
99.0441	45	C5H7O2+
100.0395	1	C4H6NO2+
101.0233	17	C4H5O3+
101.0599	1	C5H9O2+
103.0387	1	C4H7O3+
105.0447	14	C6H5N2+
106.0652	1	C7H8N+
107.0492	7	C7H7O+
108.0444	6	C6H6NO+
108.0569	3	C7H8O+
109.0285	41	C6H5O2+
109.0649	7	C7H9O+
110.0601	2	C6H8NO+
111.0439	1	C6H7O2+
111.068	6	C6H9NO+
112.0395	3	C5H6NO2+
112.0757	13	C6H10NO+
114.055	11	C5H8NO2+
115.0391	2	C5H7O3+
121.0648	10	C8H9O+
121.9907	3	C2H4NO3S+
123.0441	19	C7H7O2+
124.0517	2	C7H8O2+
124.076	5	C7H10NO+
125.0233	1	C6H5O3+
125.0598	11	C7H9O2+
126.055	6	C6H8NO2+
127.039	27	C6H7O3+
130.9798	3	C4H3O3S+
137.0595	1	C8H9O2+
148.9905	3	C4H5O4S+
149.0597	7	C9H9O2+
164.9854	3	C4H5O5S+
188.9853	2	C6H5O5S+
