Mass spectrum: EPN; LC-ESI-QFT; MS2; CE: 60%; R=17500; [M+H]+
Name: EPN
Name: O-Ethyl O-(4-nitrophenyl) phenylphosphonothioate
Name: ethoxy-(4-nitrophenoxy)-phenyl-sulfanylidene-lambda5-phosphane
Formula: C14H14NO4PS
Exact mass: 323.0381
SMILES: CCOP(=S)(C1=CC=CC=C1)OC2=CC=C(C=C2)[N+](=O)[O-]
InChI: InChI=1S/C14H14NO4PS/c1-2-18-20(21,14-6-4-3-5-7-14)19-13-10-8-12(9-11-13)15(16)17/h3-11H,2H2,1H3
Instrument: Exploris 240 Orbitrap Thermo Scientific
Instrument type: LC-ESI-QFT
Ms type: MS2
Ion mode: POSITIVE
Ionization: ESI
Fragmentation mode: HCD
Collision energy: 60 % (nominal)
Resolution: 17500
Column name: XBridge C18 3.5um, 2.1x50mm, Waters
Retention time: 12.283 min
Base peak: 334.1681
Precursor m/z: 324.0454
Precursor type: [M+H]+
m/z	relative intensity	assigned
53.0385	8	C4H5+
62.9453	181	PS+
75.0229	16	C6H3+
77.0386	22	C6H5+
78.0463	17	C6H6+
79.0542	26	C6H7+
92.0258	22	C6H4O+
94.0414	255	C6H6O+
95.0492	11	C6H7O+
110.0186	95	C6H6S+
123.0316	111	C6H5NO2+
138.9766	70	C6H4PS+
139.0087	15	C6H5NOS+
139.9845	18	C6H5PS+
140.0343	40	C6H6NO3+
141.0102	15	C6H6O2P+
153.964	7	C6H3OPS+
154.9714	26	C6H4OPS+
156.0114	7	C6H6NO2S+
156.9872	999	C6H6OPS+
159.0208	43	C6H8O3P+
171.9745	46	C6H5O2PS+
174.9983	7	C6H8O2PS+
189.0135	63	C7H10O2PS+
199.9568	11	C6H3NO3PS+
216.0341	27	C12H9O2P+
232.0103	26	C12H9OPS+
234.0447	13	C12H11O3P+
262.026	28	C12H9NO4P+
278.0033	30	C12H9NO3PS+
