Mass spectrum: Cyclophosphamide; LC-ESI-ITFT; MS2; CE: 45%; R=15000; [M+H]+
Name: Cyclophosphamide
Name: N,N-bis(2-chloroethyl)-2-oxidanylidene-1,3,2$l^{5}-oxazaphosphinan-2-amine
Formula: C7H15Cl2N2O2P
Exact mass: 260.0248
SMILES: ClCCN(CCCl)P1(=O)NCCCO1
InChI: InChI=1S/C7H15Cl2N2O2P/c8-2-5-11(6-3-9)14(12)10-4-1-7-13-14/h1-7H2,(H,10,12)
Instrument: LTQ Orbitrap XL Thermo Scientific
Instrument type: LC-ESI-ITFT
Ms type: MS2
Ion mode: POSITIVE
Ionization: ESI
Fragmentation mode: HCD
Collision energy: 45 % (nominal)
Resolution: 15000
Column name: XBridge C18 3.5um, 2.1x50mm, Waters
Retention time: 6.3 min
Base peak: 261.0328
Precursor m/z: 261.0321
Precursor type: [M+H]+
m/z	relative intensity	assigned
56.0495	26	C3H6N+
58.0651	29	C3H8N+
62.9996	10	C2H4Cl+
70.0651	9	C4H8N+
78.0105	9	C2H5ClN+
91.9896	1	CH3NO2P+
94.0051	4	C5H2O2+
102.0103	4	C3H5NOP+
104.026	2	C3H7NOP+
106.0419	346	C4H9ClN+
110.0002	43	C2H5ClNO2+
112.0158	3	C2H7ClNO2+
120.0209	163	C3H7NO2P+
122.0363	2	C3H9NO2P+
132.0208	1	C4H7NO2P+
138.0315	151	C4H9ClNO2+
140.0028	999	C4H8Cl2N+
142.0185	327	C4H10Cl2N+
154.0182	2	C4H10ClNOP+
155.9976	5	C3H8ClNO2P+
163.0632	1	C6H12ClN2O+
167.9974	4	C4H8ClNO2P+
171.0085	6	C3H9ClN2O2P+
174.0083	1	C4H10Cl2NO2+
185.0241	16	C4H11ClN2O2P+
197.024	4	C5H11ClN2O2P+
199.0398	12	C5H13ClN2O2P+
203.9739	3	C4H9Cl2NO2P+
220.9998	1	C4H12Cl2N2O2P+
225.0553	1	C7H15ClN2O2P+
233.0009	269	C5H12Cl2N2O2P+
261.0322	580	C7H16Cl2N2O2P+
