Mass spectrum: Metribuzin-diketo; LC-ESI-ITFT; MS2; CE: 45%; R=15000; [M+H]+
Name: Metribuzin-diketo
Name: 4-amino-6-tert-butyl-2H-1,2,4-triazine-3,5-dione
Formula: C7H12N4O2
Exact mass: 184.0960
SMILES: O=C(NN=C1C(C)(C)C)N(N)C1=O
InChI: InChI=1S/C7H12N4O2/c1-7(2,3)4-5(12)11(8)6(13)10-9-4/h8H2,1-3H3,(H,10,13)
Instrument: LTQ Orbitrap XL Thermo Scientific
Instrument type: LC-ESI-ITFT
Ms type: MS2
Ion mode: POSITIVE
Ionization: ESI
Fragmentation mode: HCD
Collision energy: 45 % (nominal)
Resolution: 15000
Column name: XBridge C18 3.5um, 2.1x50mm, Waters
Retention time: 5.9 min
Base peak: 185.1036
Precursor m/z: 185.1033
Precursor type: [M+H]+
m/z	relative intensity	assigned
57.0699	22	C4H9+
67.0543	3	C5H7+
68.0495	1	C4H6N+
69.0084	2	C2HN2O+
69.0699	24	C5H9+
70.0289	1	C3H4NO+
82.0651	3	C5H8N+
83.024	1	C3H3N2O+
84.0808	6	C5H10N+
96.0445	1	C5H6NO+
97.076	2	C5H9N2+
100.0505	1	C3H6N3O+
101.0346	21	C3H5N2O2+
110.06	10	C6H8NO+
111.0679	12	C6H9NO+
112.0142	9	C3H2N3O2+
125.0709	10	C6H9N2O+
127.0868	1	C6H11N2O+
140.0818	1	C6H10N3O+
141.0658	23	C6H9N2O2+
141.0898	1	C6H11N3O+
143.0814	1	C6H11N2O2+
156.0893	21	C7H12N2O2+
157.1085	261	C6H13N4O+
168.0774	1	C7H10N3O2+
169.072	17	C6H9N4O2+
185.1032	999	C7H13N4O2+
