Mass spectrum: Sitagliptin; LC-ESI-ITFT; MS2; CE: 45%; R=7500; [M+H]+
Name: Sitagliptin
Name: (3R)-3-amino-1-[3-(trifluoromethyl)-6,8-dihydro-5H-[1,2,4]triazolo[4,3-a]pyrazin-7-yl]-4-(2,4,5-trifluorophenyl)-1-butanone
Formula: C16H15F6N5O
Exact mass: 407.1181
SMILES: Fc1cc(c(F)cc1F)C[C@@H](N)CC(=O)N3Cc2nnc(n2CC3)C(F)(F)F
InChI: InChI=1S/C16H15F6N5O/c17-10-6-12(19)11(18)4-8(10)3-9(23)5-14(28)26-1-2-27-13(7-26)24-25-15(27)16(20,21)22/h4,6,9H,1-3,5,7,23H2/t9-/m1/s1
Instrument: LTQ Orbitrap XL Thermo Scientific
Instrument type: LC-ESI-ITFT
Ms type: MS2
Ion mode: POSITIVE
Ionization: ESI
Fragmentation mode: HCD
Collision energy: 45 % (nominal)
Resolution: 7500
Column name: XBridge C18 3.5um, 2.1x50mm, Waters
Retention time: 5.2 min
Base peak: 408.1261
Precursor m/z: 408.1254
Precursor type: [M+H]+
m/z	relative intensity	assigned
56.0494	13	C3H6N+
127.0354	10	C7H5F2+
137.0327	4	C4H4F3N2+
138.0276	18	C8H4F2+
154.0464	42	C8H6F2N+
171.0416	62	C9H6F3+
174.0527	999	C8H7F3N+
193.0696	693	C6H8F3N4+
199.0369	8	C10H6F3O+
235.0802	315	C8H10F3N4O+
391.0991	16	C16H13F6N4O+
