Mass spectrum: Clenbuterol; LC-ESI-QFT; MS2; CE: 180; R=35000; [M+H]+
Name: Clenbuterol
Name: 1-(4-amino-3,5-dichlorophenyl)-2-(tert-butylamino)ethanol
Formula: C12H18Cl2N2O
Exact mass: 276.07962
SMILES: CC(C)(C)NCC(C1=CC(=C(C(=C1)Cl)N)Cl)O
InChI: InChI=1S/C12H18Cl2N2O/c1-12(2,3)16-6-10(17)7-4-8(13)11(15)9(14)5-7/h4-5,10,16-17H,6,15H2,1-3H3
Instrument: Q Exactive Plus Orbitrap Thermo Scientific
Instrument type: LC-ESI-QFT
Ms type: MS2
Ion mode: POSITIVE
Ionization: ESI
Fragmentation mode: HCD
Collision energy: 180 (nominal)
Resolution: 35000
Column name: XBridge C18 3.5um, 2.1x50mm, Waters
Retention time: 4.6 min
Base peak: 277.0862
Precursor m/z: 277.0869
Precursor type: [M+H]+
m/z	relative intensity	assigned
50.0151	112	C4H2+
51.023	220	C4H3+
52.0182	16	C3H2N+
52.0307	20	C4H4+
53.0022	34	C3HO+
53.0386	145	C4H5+
53.9974	8	C2NO+
54.0339	12	C3H4N+
55.0179	12	C3H3O+
55.0541	1	C4H7+
57.0699	10	C4H9+
58.0651	2	C3H8N+
61.0073	9	C5H+
61.9792	19	CHClN+
62.0151	75	C5H2+
63.0229	218	C5H3+
64.0182	27	C4H2N+
64.0307	14	C5H4+
65.026	6	C4H3N+
65.0386	53	C5H5+
66.0338	6	C4H4N+
66.0464	17	C5H6+
67.0416	33	C4H5N+
67.9892	6	C3O2+
72.9839	57	C3H2Cl+
74.0151	47	C6H2+
75.0229	129	C6H3+
76.0181	33	C5H2N+
76.0307	14	C6H4+
77.0385	253	C6H5+
78.0338	74	C5H4N+
78.0464	179	C6H6+
79.0416	58	C5H5N+
79.0542	68	C6H7+
80.0494	97	C5H6N+
81.0335	20	C5H5O+
81.0573	1	C5H7N+
86.9997	3	C4H4Cl+
87.0229	10	C7H3+
88.0181	12	
88.0308	33	C7H4+
89.0386	334	C7H5+
90.0338	65	C6H4N+
90.0464	41	C7H6+
91.0417	41	C6H5N+
92.0495	22	C6H6N+
93.0573	6	C6H7N+
94.0414	6	C6H6O+
95.0491	346	C6H7O+
96.0444	99	C5H6NO+
96.984	8	C5H2Cl+
98.9996	35	C5H4Cl+
100.0075	6	C5H5Cl+
101.0028	2	C4H4ClN+
102.0338	18	C7H4N+
103.0416	8	C7H5N+
104.0494	999	C7H6N+
105.0447	249	C6H5N2+
105.0573	127	C7H7N+
106.0651	102	C7H8N+
108.0443	8	C6H6NO+
108.984	6	C6H2Cl+
110.9997	3	C6H4Cl+
111.0314	8	C2H8ClN2O+
112.0074	6	C6H5Cl+
113.0152	28	C6H6Cl+
114.0105	13	C5H5ClN+
114.0339	20	C8H4N+
115.0416	19	C8H5N+
116.0494	33	C8H6N+
117.0573	66	C8H7N+
118.0525	13	C7H6N2+
120.0444	6	C7H6NO+
122.0599	2	C7H8NO+
122.9995	20	C7H4Cl+
124.0075	2	C7H5Cl+
125.0028	6	C6H4ClN+
126.0106	2	C6H5ClN+
127.0182	16	C6H6ClN+
129.0099	1	C6H6ClO+
129.0448	5	C8H5N2+
130.0401	16	C7H4N3+
130.0526	1	C8H6N2+
131.0604	196	C8H7N2+
132.0682	108	C8H8N2+
134.06	10	C8H8NO+
138.0106	15	C7H5ClN+
139.0057	7	C6H4ClN2+
140.0261	149	C7H7ClN+
144.0557	5	C8H6N3+
150.0102	1	C11H2O+
151.0185	11	C8H6ClN+
153.0216	1	C7H6ClN2+
160.979	1	C9H2ClO+
