Mass spectrum: CGA62826 (2-[2,6-dimethylphenyl)-methoxyacetylamino]propionic acid; LC-ESI-QFT; MS2; CE: 60; R=35000; [M+H]+
Name: CGA62826 (2-[2,6-dimethylphenyl)-methoxyacetylamino]propionic acid
Name: N-(2,6-Dimethylphenyl)-N-(methoxyacetyl)-L-alanine
Name: (2S)-2-(N-(2-methoxyacetyl)-2,6-dimethylanilino)propanoic acid
Formula: C14H19NO4
Exact mass: 265.13141
SMILES: Cc1cccc(c1N([C@@H](C)C(=O)O)C(=O)COC)C
InChI: InChI=1S/C14H19NO4/c1-9-6-5-7-10(2)13(9)15(11(3)14(17)18)12(16)8-19-4/h5-7,11H,8H2,1-4H3,(H,17,18)/t11-/m0/s1
Instrument: Q Exactive Plus Orbitrap Thermo Scientific
Instrument type: LC-ESI-QFT
Ms type: MS2
Ion mode: POSITIVE
Ionization: ESI
Fragmentation mode: HCD
Collision energy: 60 (nominal)
Resolution: 35000
Column name: XBridge C18 3.5um, 2.1x50mm, Waters
Retention time: 7.8 min
Base peak: 266.1385
Precursor m/z: 266.1387
Precursor type: [M+H]+
m/z	relative intensity	assigned
51.0228	1	C4H3+
56.0495	9	C3H6N+
77.0383	1	C6H5+
79.0543	6	C6H7+
91.0543	15	C7H7+
93.0699	1	C7H9+
103.0542	3	C8H7+
105.0699	65	C8H9+
106.0651	1	C7H8N+
106.0777	10	C8H10+
107.0729	1	C7H9N+
107.0855	32	C8H11+
115.0541	1	C9H7+
116.0622	1	C9H8+
117.0573	5	C8H7N+
117.0698	5	C9H9+
118.0652	41	C8H8N+
119.073	3	C8H9N+
119.0856	40	C9H11+
120.0808	20	C8H10N+
121.0886	84	C8H11N+
121.1009	5	C9H13+
122.0964	4	C8H12N+
123.0803	4	C8H11O+
128.0621	3	C10H8+
129.0699	3	C10H9+
130.0652	25	C9H8N+
131.073	27	C9H9N+
131.0856	8	C10H11+
132.0808	228	C9H10N+
133.0886	442	C9H11N+
134.0964	448	C9H12N+
135.1042	17	C9H13N+
143.0855	4	C11H11+
144.0808	22	C10H10N+
145.0887	248	C10H11N+
146.0965	101	C10H12N+
147.1043	11	C10H13N+
148.1121	982	C10H14N+
150.0914	50	C9H12NO+
158.0966	6	C11H12N+
159.1045	1	C11H13N+
160.1121	999	C11H14N+
161.0836	15	C10H11NO+
161.1201	5	C11H15N+
162.1277	185	C11H16N+
164.107	30	C10H14NO+
165.1149	28	C10H15NO+
173.0834	1	C11H11NO+
176.1072	7	C11H14NO+
178.1227	98	C11H16NO+
188.1069	1	C12H14NO+
192.1383	61	C12H18NO+
206.1177	119	C12H16NO2+
