Mass spectrum: Flunixine; LC-ESI-QFT; MS2; CE: 30; R=35000; [M-H]-
Name: Flunixine
Name: Banamine
Name: 2-[2-methyl-3-(trifluoromethyl)anilino]pyridine-3-carboxylic acid
Formula: C14H11F3N2O2
Exact mass: 296.07726
SMILES: CC1=C(C=CC=C1NC2=C(C=CC=N2)C(=O)O)C(F)(F)F
InChI: InChI=1S/C14H11F3N2O2/c1-8-10(14(15,16)17)5-2-6-11(8)19-12-9(13(20)21)4-3-7-18-12/h2-7H,1H3,(H,18,19)(H,20,21)
Instrument: Q Exactive Plus Orbitrap Thermo Scientific
Instrument type: LC-ESI-QFT
Ms type: MS2
Ion mode: NEGATIVE
Ionization: ESI
Fragmentation mode: HCD
Collision energy: 30 (nominal)
Resolution: 35000
Column name: XBridge C18 3.5um, 2.1x50mm, Waters
Retention time: 11.0 min
Base peak: 295.0694
Precursor m/z: 295.07
Precursor type: [M-H]-
m/z	relative intensity	assigned
191.0615	3	C13H7N2-
209.052	6	C13H6FN2-
211.0677	22	C13H8FN2-
224.0692	13	C12H9F3N-
230.0661	2	C13H8F2N2-
231.0739	86	C13H9F2N2-
234.0537	5	C13H7F3N-
235.0489	4	C12H6F3N2-
249.0645	8	C13H8F3N2-
251.0801	999	C13H10F3N2-
295.0699	158	C14H10F3N2O2-
