Mass spectrum: Iodosulfuron-methyl; LC-ESI-QFT; MS2; CE: 45; R=35000; [M+H]+
Name: Iodosulfuron-methyl
Name: Methyl 4-iodo-2-(N-(4-methoxy-6-methyl-1,3,5-triazin-2-ylcarbamoyl)sulfamoyl)benzoate
Name: Methyl 4-iodo-2-[(4-methoxy-6-methyl-1,3,5-triazin-2-yl)carbamoylsulfamoyl]benzoate
Formula: C14H14IN5O6S
Exact mass: 506.97095
SMILES: Cc2nc(NC(=O)NS(=O)(=O)c1cc(I)ccc1C(=O)OC)nc(OC)n2
InChI: InChI=1S/C14H14IN5O6S/c1-7-16-12(19-14(17-7)26-3)18-13(22)20-27(23,24)10-6-8(15)4-5-9(10)11(21)25-2/h4-6H,1-3H3,(H2,16,17,18,19,20,22)
Instrument: Q Exactive Plus Orbitrap Thermo Scientific
Instrument type: LC-ESI-QFT
Ms type: MS2
Ion mode: POSITIVE
Ionization: ESI
Fragmentation mode: HCD
Collision energy: 45 (nominal)
Resolution: 35000
Column name: XBridge C18 3.5um, 2.1x50mm, Waters
Retention time: 9.3 min
Base peak: 507.9772
Precursor m/z: 507.9782
Precursor type: [M+H]+
m/z	relative intensity	assigned
56.0495	114	C3H6N+
57.0448	10	C2H5N2+
58.0288	40	C2H4NO+
67.0291	4	C3H3N2+
69.0083	35	C2HN2O+
78.0464	2	C6H6+
78.9848	2	CH3O2S+
83.024	77	C3H3N2O+
85.0397	3	C3H5N2O+
100.0506	4	C3H6N3O+
106.0414	1	C7H6O+
110.035	3	C4H4N3O+
119.0366	1	C7H5NO+
125.0346	1	C5H5N2O2+
134.0363	19	C8H6O2+
141.0772	119	C5H9N4O+
145.016	2	C8H3NO2+
166.0262	12	C8H6O4+
167.0565	999	C6H7N4O2+
177.0059	1	C8H3NO4+
215.9304	2	C6H3IN+
217.9223	2	C6H3IO+
230.9415	2	C6H4IN2+
245.9177	2	C7H3IO2+
245.9413	5	C7H5INO+
246.9253	1	C7H4IO2+
260.941	75	C8H6IO2+
263.9277	3	C7H5IO3+
271.9204	10	C8H3INO2+
309.9032	7	C7H5INO3S+
324.9029	32	C8H6IO4S+
335.8824	14	C8H3INO4S+
