Mass spectrum: Paroxetine; LC-ESI-QFT; MS2; CE: 120; R=35000; [M+H]+
Name: Paroxetine
Name: 3-[(1,3-Benzodioxol-5-yloxy)methyl]-4-(4-fluorophenyl)piperidine
Name: 3-(1,3-benzodioxol-5-yloxymethyl)-4-(4-fluorophenyl)piperidine
Formula: C19H20FNO3
Exact mass: 329.14272
SMILES: C1CNCC(C1C2=CC=C(C=C2)F)COC3=CC4=C(C=C3)OCO4
InChI: InChI=1S/C19H20FNO3/c20-15-3-1-13(2-4-15)17-7-8-21-10-14(17)11-22-16-5-6-18-19(9-16)24-12-23-18/h1-6,9,14,17,21H,7-8,10-12H2
Instrument: Q Exactive Plus Orbitrap Thermo Scientific
Instrument type: LC-ESI-QFT
Ms type: MS2
Ion mode: POSITIVE
Ionization: ESI
Fragmentation mode: HCD
Collision energy: 120 (nominal)
Resolution: 35000
Column name: XBridge C18 3.5um, 2.1x50mm, Waters
Retention time: 7.8 min
Base peak: 330.1493
Precursor m/z: 330.15
Precursor type: [M+H]+
m/z	relative intensity	assigned
50.015	5	C4H2+
51.0229	16	C4H3+
52.0182	2	C3H2N+
53.0022	116	C3HO+
53.0386	48	C4H5+
53.9975	21	C2NO+
54.01	2	C3H2O+
54.0339	18	C3H4N+
55.0179	9	C3H3O+
55.0417	7	C3H5N+
55.0542	2	C4H7+
56.0495	148	C3H6N+
57.0135	14	C3H2F+
57.0573	8	C3H7N+
58.0651	9	C3H8N+
59.0292	10	C3H4F+
63.0229	10	C5H3+
65.0386	157	C5H5+
67.0417	16	C4H5N+
67.0543	20	C5H7+
67.9893	26	C3O2+
68.0495	123	C4H6N+
68.9971	10	C3HO2+
69.0574	2	C4H7N+
70.0652	510	C4H8N+
75.0229	25	C6H3+
77.0385	40	C6H5+
78.0086	3	C3N3+
79.0543	6	C6H7+
80.0495	12	C5H6N+
81.0336	74	C5H5O+
82.0652	73	C5H8N+
83.0292	227	C5H4F+
84.0809	7	C5H10N+
89.0386	33	C7H5+
91.0543	22	C7H7+
93.0336	19	C6H5O+
94.0652	2	C6H8N+
95.0492	69	C6H7O+
96.0371	16	C6H5F+
96.0808	10	C6H10N+
97.0449	11	C6H6F+
101.0386	9	C8H5+
102.0464	15	C8H6+
103.0543	183	C8H7+
105.0448	61	C6H5N2+
107.0292	8	C7H4F+
109.0449	999	C7H6F+
113.0399	2	C6H6FO+
115.0543	549	C9H7+
116.062	8	C9H8+
117.0699	7	C9H9+
119.0493	13	C8H7O+
120.037	6	C8H5F+
121.0285	2	C7H5O2+
121.0449	30	C8H6F+
122.0526	1	C8H7F+
123.0354	10	C6H4FN2+
123.0606	62	C8H8F+
125.0389	3	C10H5+
126.0464	1	C10H6+
127.0543	10	C10H7+
128.0621	48	C10H8+
129.0448	52	C8H5N2+
130.0653	3	C9H8N+
133.0449	385	C9H6F+
134.0527	41	C9H7F+
135.0605	301	C9H8F+
137.0236	11	C7H5O3+
138.0716	2	C8H9FN+
141.0697	5	C11H9+
145.0449	2	C10H6F+
145.0648	14	C10H9O+
146.0527	189	C10H7F+
147.0605	95	C10H8F+
148.056	13	C9H7FN+
148.0684	12	C10H9F+
149.0763	2	C10H10F+
150.0717	1	C9H9FN+
151.0393	2	C8H7O3+
155.0605	34	C10H7N2+
159.0608	14	C11H8F+
160.0682	2	C11H9F+
162.0714	3	C10H9FN+
173.0511	14	C10H6FN2+
