Mass spectrum: Tricyclazole; LC-ESI-QFT; MS2; CE: 120%; R=17500; [M+H]+
Name: Tricyclazole
Name: 8-methyl-[1,2,4]triazolo[3,4-b][1,3]benzothiazole
Formula: C9H7N3S
Exact mass: 189.0361
SMILES: CC1=C2C(=CC=C1)SC3=NN=CN23
InChI: InChI=1S/C9H7N3S/c1-6-3-2-4-7-8(6)12-5-10-11-9(12)13-7/h2-5H,1H3
Instrument: Exploris 240 Orbitrap Thermo Scientific
Instrument type: LC-ESI-QFT
Ms type: MS2
Ion mode: POSITIVE
Ionization: ESI
Fragmentation mode: HCD
Collision energy: 120 % (nominal)
Resolution: 17500
Column name: XBridge C18 3.5um, 2.1x50mm, Waters
Retention time: 4.550 min
Base peak: 190.0431
Precursor m/z: 190.0433
Precursor type: [M+H]+
m/z	relative intensity	assigned
44.9794	64	CHS+
51.0229	14	C4H3+
65.0386	308	C5H5+
68.9794	107	C3HS+
77.0385	69	C6H5+
78.0465	36	C6H6+
92.0495	453	C6H6N+
102.0338	52	C7H4N+
103.0416	69	C7H5N+
105.0449	14	C6H5N2+
109.0107	999	C6H5S+
119.0605	44	C7H7N2+
121.0106	51	C7H5S+
136.0216	950	C7H6NS+
137.017	29	C6H5N2S+
163.0325	189	C8H7N2S+
