Mass spectrum: Clothianidin; LC-ESI-ITFT; MS2; CE: 15%; R=7500; [M+H]+
Name: Clothianidin
Name: 1-[(2-chloranyl-1,3-thiazol-5-yl)methyl]-2-methyl-3-nitro-guanidine
Name: 1-[(2-chloro-1,3-thiazol-5-yl)methyl]-2-methyl-3-nitroguanidine
Formula: C6H8ClN5O2S
Exact mass: 249.0087
SMILES: Clc1ncc(s1)CN/C(=N/C)N[N+]([O-])=O
InChI: InChI=1S/C6H8ClN5O2S/c1-8-6(11-12(13)14)10-3-4-2-9-5(7)15-4/h2H,3H2,1H3,(H2,8,10,11)
Instrument: LTQ Orbitrap XL Thermo Scientific
Instrument type: LC-ESI-ITFT
Ms type: MS2
Ion mode: POSITIVE
Ionization: ESI
Fragmentation mode: HCD
Collision energy: 15 % (nominal)
Resolution: 7500
Column name: XBridge C18 3.5um, 2.1x50mm, Waters
Retention time: 4.9 min
Base peak: 250.0165
Precursor m/z: 250.016
Precursor type: [M+H]+
m/z	relative intensity	assigned
86.0058	1	C3H4NS+
110.0712	9	C5H8N3+
113.0166	47	C4H5N2S+
131.967	615	C4H3ClNS+
142.0431	1	C5H8N3S+
143.0513	7	C5H9N3S+
146.9777	13	C4H4ClN2S+
147.962	1	C4H3ClNOS+
148.9934	3	C4H6ClN2S+
152.0281	1	C6H6N3S+
167.0386	1	C6H7N4S+
168.0464	300	C6H8N4S+
169.0542	851	C6H9N4S+
172.9808	16	C5H4ClN3S+
174.9728	8	C5H4ClN2OS+
185.0497	2	C6H9N4OS+
186.9965	6	C6H6ClN3S+
203.0153	12	C6H8ClN4S+
204.0229	68	C6H9ClN4S+
206.0148	123	C6H9ClN3OS+
220.0179	17	C6H9ClN4OS+
250.0161	999	C6H9ClN5O2S+
