Mass spectrum: Uniconazole; LC-ESI-QFT; MS2; CE: 90; R=35000; [M+H]+
Name: Uniconazole
Name: 1-(4-chlorophenyl)-4,4-dimethyl-2-(1,2,4-triazol-1-yl)pent-1-en-3-ol
Formula: C15H18ClN3O
Exact mass: 291.11384
SMILES: CC(C)(C)C(C(=CC1=CC=C(C=C1)Cl)N2C=NC=N2)O
InChI: InChI=1S/C15H18ClN3O/c1-15(2,3)14(20)13(19-10-17-9-18-19)8-11-4-6-12(16)7-5-11/h4-10,14,20H,1-3H3
Instrument: Q Exactive Plus Orbitrap Thermo Scientific
Instrument type: LC-ESI-QFT
Ms type: MS2
Ion mode: POSITIVE
Ionization: ESI
Fragmentation mode: HCD
Collision energy: 90 (nominal)
Resolution: 35000
Column name: XBridge C18 3.5um, 2.1x50mm, Waters
Retention time: 11.8 min
Base peak: 292.1207
Precursor m/z: 292.1211
Precursor type: [M+H]+
m/z	relative intensity	assigned
53.0023	1	C3HO+
53.0386	1	C4H5+
55.0543	2	C4H7+
57.0699	12	C4H9+
59.0492	2	C3H7O+
63.023	1	C5H3+
69.0699	13	C5H9+
70.04	999	C2H4N3+
75.0229	3	C6H3+
77.0385	3	C6H5+
86.9996	1	C4H4Cl+
87.0805	1	C5H11O+
89.0386	17	C7H5+
90.0464	3	C7H6+
91.0543	4	C7H7+
95.0492	2	C6H7O+
98.9996	6	C5H4Cl+
102.0464	9	C8H6+
103.0542	12	C8H7+
104.0621	1	C8H8+
105.0448	2	C6H5N2+
110.9995	2	C6H4Cl+
115.0543	11	C9H7+
116.0621	4	C9H8+
117.0699	1	C9H9+
125.0153	102	C7H6Cl+
127.054	2	C10H7+
128.0495	1	C9H6N+
128.062	13	C10H8+
129.0101	7	C6H6ClO+
129.0448	3	C8H5N2+
129.0573	1	C9H7N+
129.0699	7	C10H9+
130.0778	2	C10H10+
131.0491	4	C9H7O+
132.0569	3	C9H8O+
137.0153	3	C8H6Cl+
138.9946	8	C7H4ClO+
139.0058	20	C6H4ClN2+
139.031	1	C8H8Cl+
141.0699	16	C11H9+
142.0778	11	C11H10+
145.0648	3	C10H9O+
149.0153	6	C9H6Cl+
153.0699	5	C12H9+
154.0778	3	C12H10+
155.0604	8	C10H7N2+
155.0855	35	C12H11+
156.068	2	C10H8N2+
157.0635	2	C9H7N3+
158.0725	1	C11H10O+
162.0229	2	C10H7Cl+
164.0262	1	C9H7ClN+
169.076	1	C11H9N2+
169.101	1	C13H13+
175.0309	3	C11H8Cl+
183.079	2	C11H9N3+
230.0479	1	C12H9ClN3+
