Mass spectrum: Tramadol N-Oxide; LC-ESI-QFT; MS2; CE: 60; R=35000; [M+H]+
Name: Tramadol N-Oxide
Name: 1-[(1R,2R)-2-hydroxy-2-(3-methoxyphenyl)cyclohexyl]-N,N-dimethylmethanamine oxide
Formula: C16H25NO3
Exact mass: 279.18344
SMILES: [O-][N+](C)(C)C[C@H]2CCCC[C@]2(O)c1cc(OC)ccc1
InChI: InChI=1S/C16H25NO3/c1-17(2,19)12-14-7-4-5-10-16(14,18)13-8-6-9-15(11-13)20-3/h6,8-9,11,14,18H,4-5,7,10,12H2,1-3H3/t14-,16+/m1/s1
Instrument: Q Exactive Plus Orbitrap Thermo Scientific
Instrument type: LC-ESI-QFT
Ms type: MS2
Ion mode: POSITIVE
Ionization: ESI
Fragmentation mode: HCD
Collision energy: 60 (nominal)
Resolution: 35000
Column name: XBridge C18 3.5um, 2.1x50mm, Waters
Retention time: 5.1 min
Base peak: 280.1904
Precursor m/z: 280.1907
Precursor type: [M+H]+
m/z	relative intensity	assigned
53.0386	9	C4H5+
55.0178	7	C3H3O+
55.0542	27	C4H7+
56.0495	10	C3H6N+
57.0335	2	C3H5O+
57.0573	2	C3H7N+
58.0651	999	C3H8N+
62.06	21	C2H8NO+
65.0385	3	C5H5+
67.0542	34	C5H7+
68.0257	2	C4H4O+
68.0495	16	C4H6N+
69.0335	3	C4H5O+
69.0698	13	C5H9+
70.0651	17	C4H8N+
71.0729	12	C4H9N+
72.0807	12	C4H10N+
74.06	22	C3H8NO+
77.0385	24	C6H5+
79.0542	36	C6H7+
80.0495	1	C5H6N+
81.0573	5	C5H7N+
81.0699	28	C6H9+
82.0651	47	C5H8N+
83.049	2	C5H7O+
83.0855	18	C6H11+
84.0808	47	C5H10N+
91.0542	52	C7H7+
92.0256	17	C6H4O+
93.0699	45	C7H9+
94.0413	5	C6H6O+
94.0651	17	C6H8N+
95.0491	36	C6H7O+
95.073	37	C6H9N+
96.0807	2	C6H10N+
97.0886	3	C6H11N+
98.0964	2	C6H12N+
105.0447	20	C6H5N2+
105.07	4	C8H9+
106.0412	1	C7H6O+
107.0491	59	C7H7O+
108.0807	32	C7H10N+
109.0648	44	C7H9O+
110.0964	184	C7H12N+
111.0804	3	C7H11O+
111.1043	1	C7H13N+
115.0539	4	C9H7+
117.0699	3	C9H9+
119.0491	1	C8H7O+
119.0603	3	C7H7N2+
119.0856	2	C9H11+
121.0648	313	C8H9O+
122.0964	1	C8H12N+
123.0803	1	C8H11O+
123.1041	1	C8H13N+
124.0518	1	C7H8O2+
125.0597	210	C7H9O2+
126.1277	6	C8H16N+
128.0619	3	C10H8+
129.0697	7	C10H9+
131.049	5	C9H7O+
131.0856	1	C10H11+
132.0572	4	C9H8O+
133.0649	6	C9H9O+
135.044	975	C8H7O2+
135.0549	108	C7H7N2O+
136.0522	1	C8H8O2+
137.0597	7	C8H9O2+
141.0699	2	C11H9+
142.0778	1	C11H10+
144.057	42	C10H8O+
145.0648	27	C10H9O+
146.0726	10	C10H10O+
147.0804	66	C10H11O+
151.0755	1	C9H11O2+
155.0603	1	C10H7N2+
158.0726	33	C11H10O+
159.0804	238	C11H11O+
160.0883	35	C11H12O+
161.0596	2	C10H9O2+
161.0961	7	C11H13O+
163.0752	3	C10H11O2+
169.0647	1	C12H9O+
169.1013	2	C13H13+
171.0804	6	C12H11O+
172.0881	12	C12H12O+
173.0961	43	C12H13O+
175.1119	2	C12H15O+
184.0886	4	C13H12O+
186.1039	7	C13H14O+
189.1275	1	C13H17O+
191.1065	4	C12H15O2+
199.1116	4	C14H15O+
201.1273	62	C14H17O+
262.1803	9	C16H24NO2+
