Mass spectrum: Parathion; LC-ESI-QFT; MS2; CE: 45; R=35000; [M+H]+
Name: Parathion
Name: diethoxy-(4-nitrophenoxy)-sulfanylidene-$l^{5}-phosphane
Formula: C10H14NO5PS
Exact mass: 291.03303
SMILES: S=P(Oc1ccc(cc1)[N+]([O-])=O)(OCC)OCC
InChI: InChI=1S/C10H14NO5PS/c1-3-14-17(18,15-4-2)16-10-7-5-9(6-8-10)11(12)13/h5-8H,3-4H2,1-2H3
Instrument: Q Exactive Orbitrap Thermo Scientific
Instrument type: LC-ESI-QFT
Ms type: MS2
Ion mode: POSITIVE
Ionization: ESI
Fragmentation mode: HCD
Collision energy: 45 (nominal)
Resolution: 35000
Column name: XBridge C18 3.5um, 2.1x50mm, Waters
Retention time: 12.6 min
Base peak: 292.0402
Precursor m/z: 292.0403
Precursor type: [M+H]+
m/z	relative intensity	assigned
64.9786	5	H2O2P+
65.0384	6	C5H5+
66.0464	4	C5H6+
75.0228	1	C6H3+
78.0338	4	C5H4N+
80.0494	3	C5H6N+
80.9733	3	H2O3P+
92.0494	10	C6H6N+
94.0412	403	C6H6O+
96.9507	4	H2O2PS+
97.0108	1	C5H5S+
98.0059	3	C4H4NS+
98.0183	1	C5H6S+
98.9842	9	H4O4P+
105.0698	4	C8H9+
108.0025	1	C6H4S+
108.0444	6	C6H6NO+
109.0104	5	C6H5S+
110.0184	264	C6H6S+
111.0439	3	C6H7O2+
114.9612	369	H4O3PS+
121.0396	5	C6H5N2O+
122.0235	1	C6H4NO2+
123.0313	304	C6H5NO2+
123.9974	1	C6H4OS+
125.0054	23	C6H5OS+
126.0132	22	C6H6OS+
127.0211	1	C6H7OS+
132.9718	5	H6O4PS+
137.0165	1	C6H5N2S+
138.0007	17	C6H4NOS+
139.0085	30	C6H5NOS+
140.0341	475	C6H6NO3+
150.0298	6	C6H4N3O2+
153.9956	17	C6H4NO2S+
156.0112	258	C6H6NO2S+
171.9741	50	C6H5O2PS+
174.0076	75	C6H7O4P+
174.0219	4	C6H8NO3S+
184.9878	1	C6H4NO4P+
187.9693	9	C6H5O3PS+
188.9769	16	C6H6O3PS+
189.9847	328	C6H7O3PS+
200.9644	1	C6H4NO3PS+
202.9976	3	C10H3O5+
204.9717	7	C6H6O4PS+
205.9795	21	C6H7O4PS+
216.9828	6	C10H3NO3S+
217.9672	13	C6H5NO4PS+
218.9749	67	C6H6NO4PS+
220.0004	41	C10H4O6+
221.9749	3	C6H7O5PS+
235.9776	999	
253.9881	66	C6H9NO6PS+
