Mass spectrum: Demeton-S-Methyl Sulfone; LC-ESI-QFT; MS2; CE: 75%; R=17500; [M+H]+
Name: Demeton-S-Methyl Sulfone
Name: Demeton-S-methylsulphon
Name: 1-dimethoxyphosphorylsulfanyl-2-ethylsulfonylethane
Formula: C6H15O5PS2
Exact mass: 262.0099
SMILES: CCS(=O)(=O)CCSP(=O)(OC)OC
InChI: InChI=1S/C6H15O5PS2/c1-4-14(8,9)6-5-13-12(7,10-2)11-3/h4-6H2,1-3H3
Instrument: Exploris 240 Orbitrap Thermo Scientific
Instrument type: LC-ESI-QFT
Ms type: MS2
Ion mode: POSITIVE
Ionization: ESI
Fragmentation mode: HCD
Collision energy: 75 % (nominal)
Resolution: 17500
Column name: XBridge C18 3.5um, 2.1x50mm, Waters
Retention time: 2.945 min
Base peak: 263.0169
Precursor m/z: 263.0171
Precursor type: [M+H]+
m/z	relative intensity	assigned
58.9951	28	C2H3S+
64.9692	14	HO2S+
74.9899	18	C2H3OS+
77.0058	11	C2H5OS+
78.9943	198	CH4O2P+
80.9463	10	HOS2+
93.0004	73	C2H5O2S+
109.0049	512	C2H6O3P+
110.9665	79	CH4O2PS+
121.0318	17	C4H9O2S+
124.9821	375	C2H6O2PS+
127.0155	999	C2H8O4P+
128.9771	29	CH6O3PS+
141.031	14	C3H10O4P+
142.9927	107	C2H8O3PS+
169.008	39	C4H10O3PS+
