Mass spectrum: Linuron; LC-ESI-ITFT; MS2; CE: 75%; R=15000; [M+H]+
Name: Linuron
Name: 3-(3,4-dichlorophenyl)-1-methoxy-1-methyl-urea
Formula: C9H10Cl2N2O2
Exact mass: 248.0114
SMILES: c1(cc(c(Cl)cc1)Cl)NC(N(OC)C)=O
InChI: InChI=1S/C9H10Cl2N2O2/c1-13(15-2)9(14)12-6-3-4-7(10)8(11)5-6/h3-5H,1-2H3,(H,12,14)
Instrument: LTQ Orbitrap XL Thermo Scientific
Instrument type: LC-ESI-ITFT
Ms type: MS2
Ion mode: POSITIVE
Ionization: ESI
Fragmentation mode: HCD
Collision energy: 75 % (nominal)
Resolution: 15000
Column name: XBridge C18 3.5um, 2.1x50mm, Waters
Retention time: 10.0 min
Base peak: 249.0194
Precursor m/z: 249.0192
Precursor type: [M+H]+
m/z	relative intensity	assigned
60.0442	24	C2H6NO+
62.0599	14	C2H8NO+
98.9996	10	C5H4Cl+
119.0604	8	C7H7N2+
123.9948	114	C9O+
125.0026	441	C6H4ClN+
126.0105	15	C6H5ClN+
132.9606	999	C5H3Cl2+
133.9681	8	C5H4Cl2+
142.0051	17	C9H2O2+
153.0213	349	C7H6ClN2+
159.9714	781	C6H4Cl2N+
160.9793	780	C6H5Cl2N+
165.0212	20	C8H6ClN2+
167.0009	15	C7H4ClN2O+
181.0163	186	C8H6ClN2O+
182.024	227	C8H7ClN2O+
216.9927	73	C8H7Cl2N2O+
