Mass spectrum: Amidithion; LC-ESI-QFT; MS2; CE: 150%; R=17500; [M+H]+
Name: Amidithion
Name: 2-dimethoxyphosphinothioylsulfanyl-N-(2-methoxyethyl)acetamide
Formula: C7H16NO4PS2
Exact mass: 273.0258
SMILES: COCCNC(=O)CSP(=S)(OC)OC
InChI: InChI=1S/C7H16NO4PS2/c1-10-5-4-8-7(9)6-15-13(14,11-2)12-3/h4-6H2,1-3H3,(H,8,9)
Instrument: Exploris 240 Orbitrap Thermo Scientific
Instrument type: LC-ESI-QFT
Ms type: MS2
Ion mode: POSITIVE
Ionization: ESI
Fragmentation mode: HCD
Collision energy: 150 % (nominal)
Resolution: 17500
Column name: XBridge C18 3.5um, 2.1x50mm, Waters
Retention time: 4.721 min
Base peak: 274.0331
Precursor m/z: 274.0331
Precursor type: [M+H]+
m/z	relative intensity	assigned
59.0493	132	C3H7O+
62.0185	115	C2H6S+
62.9452	111	PS+
62.9994	498	CH4OP+
78.9943	999	CH4O2P+
93.0101	284	C2H6O2P+
