Mass spectrum: Dicloxacillin; LC-ESI-QFT; MS2; CE: 180; R=35000; [M+H]+
Name: Dicloxacillin
Name: 6-[[3-(2,6-dichlorophenyl)-5-methyl-1,2-oxazole-4-carbonyl]amino]-3,3-dimethyl-7-oxo-4-thia-1-azabicyclo[3.2.0]heptane-2-carboxylic acid
Formula: C19H17Cl2N3O5S
Exact mass: 469.02660
SMILES: CC1=C(C(=NO1)C2=C(C=CC=C2Cl)Cl)C(=O)NC3C4N(C3=O)C(C(S4)(C)C)C(=O)O
InChI: InChI=1S/C19H17Cl2N3O5S/c1-7-10(12(23-29-7)11-8(20)5-4-6-9(11)21)15(25)22-13-16(26)24-14(18(27)28)19(2,3)30-17(13)24/h4-6,13-14,17H,1-3H3,(H,22,25)(H,27,28)
Instrument: Q Exactive Plus Orbitrap Thermo Scientific
Instrument type: LC-ESI-QFT
Ms type: MS2
Ion mode: POSITIVE
Ionization: ESI
Fragmentation mode: HCD
Collision energy: 180 (nominal)
Resolution: 35000
Column name: XBridge C18 3.5um, 2.1x50mm, Waters
Retention time: 9.6 min
Base peak: 470.0332
Precursor m/z: 470.0339
Precursor type: [M+H]+
m/z	relative intensity	assigned
50.0152	16	C4H2+
51.023	9	C4H3+
52.0182	19	C3H2N+
53.0022	14	C3HO+
53.0386	47	C4H5+
53.9974	1	C2NO+
54.0339	10	C3H4N+
55.0178	1	C3H3O+
55.0543	4	C4H7+
56.0495	3	C3H6N+
57.0574	1	C3H7N+
57.9872	17	C2H2S+
58.995	150	C2H3S+
59.9665	24	COS+
59.9902	1	CH2NS+
60.984	6	C2H2Cl+
61.0073	53	C5H+
62.006	5	CH4NS+
62.0151	73	C5H2+
63.023	165	C5H3+
64.0182	34	C4H2N+
65.0022	4	C4HO+
65.0386	11	C5H5+
66.0338	1	C4H4N+
67.0417	5	C4H5N+
68.0496	1	C4H6N+
69.0448	5	C3H5N2+
70.0652	15	C4H8N+
70.995	13	C3H3S+
71.9762	5	C3HCl+
72.0029	1	C3H4S+
72.984	319	C3H2Cl+
74.0151	999	C6H2+
75.0229	194	C6H3+
76.0182	18	C5H2N+
76.0307	4	C6H4+
77.0021	2	C5HO+
77.0386	1	C6H5+
78.0338	1	C5H4N+
79.0179	5	C5H3O+
79.0291	1	C4H3N2+
80.0495	12	C5H6N+
81.0447	1	C4H5N2+
82.945	57	CHCl2+
83.9762	39	C4HCl+
84.984	29	C4H2Cl+
85.0074	9	C7H+
85.0107	4	C4H5S+
86.0151	47	C7H2+
86.9633	7	C3ClO+
87.0104	30	C6HN+
87.023	134	C7H3+
88.0182	111	C6H2N+
89.0023	20	C6HO+
89.0386	15	C7H5+
90.0338	1	C6H4N+
92.0258	1	C6H4O+
93.0449	1	C5H5N2+
94.0653	1	C6H8N+
95.0494	1	C6H7O+
95.9762	19	C5HCl+
96.0445	1	C5H6NO+
96.9841	90	C5H2Cl+
97.9793	27	C4HClN+
98.0152	17	C8H2+
98.9997	3	C5H4Cl+
99.0104	21	C7HN+
99.023	7	C8H3+
100.0183	37	C7H2N+
100.0216	5	C4H6NS+
106.945	68	C3HCl2+
107.9761	7	C6HCl+
108.984	132	C6H2Cl+
109.9918	11	C6H3Cl+
112.0183	5	C8H2N+
112.0218	1	C5H6NS+
113.0387	4	C9H5+
114.0339	132	C8H4N+
115.0419	1	C8H5N+
118.0289	1	C7H4NO+
118.9451	1	C4HCl2+
120.984	11	C7H2Cl+
121.9794	4	C6HClN+
121.9918	11	C7H3Cl+
122.9998	4	C7H4Cl+
123.0105	1	C9HN+
123.9951	5	C6H3ClN+
127.0419	2	C9H5N+
128.0024	3	C6H5ClO+
128.0495	1	C9H6N+
130.9451	8	C5HCl2+
132.961	5	C5H3Cl2+
145.0161	1	C5H6ClN2O+
149.0026	2	C8H4ClN+
153.9819	5	C4H6Cl2NO+
156.9608	23	C7H3Cl2+
