Mass spectrum: N-Nitrosofenfluramine; LC-ESI-QFT; MS2; CE: 120; R=35000; [M+H]+
Name: N-Nitrosofenfluramine
Name: N-Ethyl-N-nitroso-1-[3-(trifluoromethyl)phenyl]-2-propanamine
Formula: C12H15F3N2O
Exact mass: 260.11365
SMILES: CCN(C(C)Cc1cccc(c1)C(F)(F)F)N=O
InChI: InChI=1S/C12H15F3N2O/c1-3-17(16-18)9(2)7-10-5-4-6-11(8-10)12(13,14)15/h4-6,8-9H,3,7H2,1-2H3
Instrument: Q Exactive Plus Orbitrap Thermo Scientific
Instrument type: LC-ESI-QFT
Ms type: MS2
Ion mode: POSITIVE
Ionization: ESI
Fragmentation mode: HCD
Collision energy: 120 (nominal)
Resolution: 35000
Column name: XBridge C18 3.5um, 2.1x50mm, Waters
Retention time: 10.0 min
Base peak: 261.1206
Precursor m/z: 261.1209
Precursor type: [M+H]+
m/z	relative intensity	assigned
51.0228	1	C4H3+
53.0022	2	C3HO+
57.0134	6	C3H2F+
59.0291	7	C3H4F+
62.015	1	C5H2+
63.0229	12	C5H3+
64.0307	1	C5H4+
65.0385	2	C5H5+
66.0464	3	C5H6+
75.004	1	C3HF2+
75.0229	16	C6H3+
77.0021	20	C5HO+
77.0385	1	C6H5+
83.0291	140	C5H4F+
89.0386	71	C7H5+
90.0464	37	C7H6+
91.0542	1	C7H7+
93.0135	6	C6H2F+
95.0292	4	C6H4F+
98.0151	7	C8H2+
99.0229	78	C8H3+
107.0293	2	C7H4F+
108.0368	2	C7H5F+
109.0448	999	C7H6F+
113.0195	2	C6H3F2+
113.0397	2	C6H6FO+
115.0543	3	C9H7+
117.0573	1	C8H7N+
119.0292	48	C8H4F+
123.0352	4	C6H4FN2+
127.0354	3	C7H5F2+
130.065	1	C9H8N+
131.0303	1	C6H5F2O+
132.0182	1	C6H3F3+
133.0259	11	C6H4F3+
133.0447	1	C9H6F+
137.0397	8	C8H6FO+
138.0275	4	C8H4F2+
139.0354	37	C8H5F2+
141.0258	13	C6H3F2N2+
146.0525	7	C10H7F+
147.0353	97	C8H4FN2+
151.0353	1	C9H5F2+
155.0603	1	C10H7N2+
158.0338	4	C8H5F3+
159.0416	122	C8H6F3+
166.0464	2	C9H6F2N+
180.0619	1	C10H8F2N+
194.0777	2	C11H10F2N+
