Mass spectrum: Triadimefon; LC-ESI-QFT; MS2; CE: 120%; R=17500; [M-H]-
Name: Triadimefon
Name: 1-(4-chlorophenoxy)-3,3-dimethyl-1-(1,2,4-triazol-1-yl)butan-2-one
Formula: C14H16ClN3O2
Exact mass: 293.0931
SMILES: CC(C)(C)C(=O)C(N1C=NC=N1)OC2=CC=C(C=C2)Cl
InChI: InChI=1S/C14H16ClN3O2/c1-14(2,3)12(19)13(18-9-16-8-17-18)20-11-6-4-10(15)5-7-11/h4-9,13H,1-3H3
Instrument: Exploris 240 Orbitrap Thermo Scientific
Instrument type: LC-ESI-QFT
Ms type: MS2
Ion mode: NEGATIVE
Ionization: ESI
Fragmentation mode: HCD
Collision energy: 120 % (nominal)
Resolution: 17500
Column name: XBridge C18 3.5um, 2.1x50mm, Waters
Retention time: 8.888 min
Base peak: 326.1796
Precursor m/z: 292.0858
Precursor type: [M-H]-
m/z	relative intensity	assigned
68.0254	999	C2H2N3-
126.9956	24	C6H4ClO-
