Mass spectrum: Clarithromycin N-Oxide; LC-ESI-QFT; MS2; CE: 30; R=35000; [M+H]+
Name: Clarithromycin N-Oxide
Name: (2S,3R,4S,6R)-2-[[(3R,4S,5S,6R,7R,9R,11R,12R,13S,14R)-14-ethyl-12,13-dihydroxy-4-[(2R,4R,5S,6S)-5-hydroxy-4-methoxy-4,6-dimethyloxan-2-yl]oxy-7-methoxy-3,5,7,9,11,13-hexamethyl-2,10-dioxo-oxacyclotetradec-6-yl]oxy]-3-hydroxy-N,N,6-trimethyloxan-4-amine oxide
Formula: C38H69NO14
Exact mass: 763.47181
SMILES: [O-][N+](C)(C)[C@H]3C[C@@H](C)O[C@@H](O[C@@H]2[C@@H](C)[C@H](O[C@H]1C[C@@](C)(OC)[C@@H](O)[C@H](C)O1)[C@@H](C)C(=O)O[C@H](CC)[C@@](C)(O)[C@H](O)[C@@H](C)C(=O)[C@H](C)C[C@@]2(C)OC)[C@@H]3O
InChI: InChI=1S/C38H69NO14/c1-15-26-38(10,45)31(42)21(4)28(40)19(2)17-37(9,48-14)33(53-35-29(41)25(39(11,12)46)16-20(3)49-35)22(5)30(23(6)34(44)51-26)52-27-18-36(8,47-13)32(43)24(7)50-27/h19-27,29-33,35,41-43,45H,15-18H2,1-14H3/t19-,20-,21+,22+,23-,24+,25+,26-,27+,29-,30+,31-,32+,33-,35+,36-,37-,38-/m1/s1
Instrument: Q Exactive Plus Orbitrap Thermo Scientific
Instrument type: LC-ESI-QFT
Ms type: MS2
Ion mode: POSITIVE
Ionization: ESI
Fragmentation mode: HCD
Collision energy: 30 (nominal)
Resolution: 35000
Column name: XBridge C18 3.5um, 2.1x50mm, Waters
Retention time: 9.7 min
Base peak: 764.4783
Precursor m/z: 764.4791
Precursor type: [M+H]+
m/z	relative intensity	assigned
55.0541	6	C4H7+
57.0333	10	C3H5O+
57.0698	3	C4H9+
58.0651	6	C3H8N+
59.0491	1	C3H7O+
60.0443	2	C2H6NO+
62.06	12	C2H8NO+
65.0385	2	C5H5+
67.0542	21	C5H7+
69.0333	5	C4H5O+
69.0698	29	C5H9+
70.0651	29	C4H8N+
71.049	2	C4H7O+
71.0728	3	C4H9N+
72.0443	2	C3H6NO+
72.0807	5	C4H10N+
73.0648	2	C4H9O+
74.06	2	C3H8NO+
75.0439	2	C3H7O2+
79.054	1	C6H7+
81.0697	4	C6H9+
83.0491	145	C5H7O+
84.0807	18	C5H10N+
85.0283	17	C4H5O2+
85.0647	20	C5H9O+
86.06	17	C4H8NO+
95.0491	31	C6H7O+
95.0855	6	C7H11+
97.0648	111	C6H9O+
98.0965	7	C6H12N+
99.0678	2	C5H9NO+
99.0803	7	C6H11O+
99.1042	6	C6H13N+
100.112	35	C6H14N+
101.0233	1	C4H5O3+
102.0913	12	C5H12NO+
107.0854	6	C8H11+
109.0648	38	C7H9O+
109.1011	47	C8H13+
111.0438	5	C6H7O2+
111.0804	7	C7H11O+
111.1169	4	C8H15+
112.1121	1	C7H14N+
113.0596	444	C6H9O2+
114.0913	138	C6H12NO+
115.0753	22	C6H11O2+
116.0707	5	C5H10NO2+
116.1069	45	C6H14NO+
119.0853	5	C9H11+
121.1012	131	C9H13+
123.0803	999	C8H11O+
125.0597	8	C7H9O2+
125.096	46	C8H13O+
126.0912	2	C7H12NO+
127.0753	32	C7H11O2+
127.1116	15	C8H15O+
128.1069	105	C7H14NO+
129.0546	3	C6H9O3+
129.091	2	C7H13O2+
130.0862	1	C6H12NO2+
132.0655	6	C5H10NO3+
133.1011	2	C10H13+
135.0803	4	C9H11O+
135.1165	7	C10H15+
137.096	76	C9H13O+
139.0752	6	C8H11O2+
139.1117	25	C9H15O+
140.1069	3	C8H14NO+
141.0547	1	C7H9O3+
141.0908	4	C8H13O2+
143.0702	15	C7H11O3+
143.1068	1	C8H15O2+
146.1175	25	C7H16NO2+
147.0803	1	C10H11O+
147.1168	9	C11H15+
149.0961	2	C10H13O+
149.1324	42	C11H17+
151.0751	5	C9H11O2+
151.1117	6	C10H15O+
151.1483	2	C11H19+
153.0909	52	C9H13O2+
155.1065	20	C9H15O2+
156.1019	71	C8H14NO2+
157.0858	11	C8H13O3+
158.1175	39	C8H16NO2+
159.1169	12	C12H15+
159.1252	2	C8H17NO2+
161.1322	3	C12H17+
163.0754	2	C10H11O2+
163.1117	23	C11H15O+
165.0909	35	C10H13O2+
165.1274	23	C11H17O+
167.1066	5	C10H15O2+
167.143	36	C11H19O+
169.0858	11	C9H13O3+
169.1222	5	C10H17O2+
171.1015	47	C9H15O3+
173.1326	2	C13H17+
174.1124	220	C8H16NO3+
175.1116	12	C12H15O+
177.1273	91	C12H17O+
179.1065	9	C11H15O2+
179.143	4	C12H19O+
181.0857	12	C10H13O3+
181.1222	30	C11H17O2+
183.1015	120	C10H15O3+
183.1379	9	C11H19O2+
185.1171	8	C10H17O3+
185.1325	1	C14H17+
187.148	16	C14H19+
188.1283	1	C9H18NO3+
189.127	2	C13H17O+
189.1636	5	C14H21+
191.1066	2	C12H15O2+
191.143	2	C13H19O+
192.1229	62	C8H18NO4+
193.1223	101	C12H17O2+
195.1379	135	C12H19O2+
197.1172	16	C11H17O3+
199.0964	11	C10H15O4+
199.1484	2	C15H19+
201.1637	5	C15H21+
203.1065	7	C13H15O2+
203.1433	5	C14H19O+
205.1225	3	C13H17O2+
205.1587	45	C14H21O+
207.1381	3	C13H19O2+
207.1741	4	C14H23O+
209.1171	3	C12H17O3+
209.1534	6	C13H21O2+
211.1328	21	C12H19O3+
213.1485	13	C12H21O3+
215.143	10	C15H19O+
217.1589	5	C15H21O+
219.1382	1	C14H19O2+
219.1747	2	C15H23O+
221.1172	70	C13H17O3+
221.1535	20	C14H21O2+
223.1331	5	C13H19O3+
223.1693	20	C14H23O2+
225.1642	1	C17H21+
227.1789	3	C17H23+
229.1587	6	C16H21O+
231.1381	9	C15H19O2+
233.1535	73	C15H21O2+
235.1335	2	C14H19O3+
235.1692	8	C15H23O2+
239.1277	52	C13H19O4+
243.1743	8	C17H23O+
245.1899	43	C17H25O+
247.169	6	C16H23O2+
249.1484	15	C15H21O3+
251.1641	89	C15H23O3+
253.1589	3	C18H21O+
259.133	4	C16H19O3+
261.1486	1	C16H21O3+
261.1848	10	C17H25O2+
263.2005	60	C17H27O2+
265.1799	10	C16H25O3+
267.1588	5	C15H23O4+
271.1541	2	C14H23O5+
271.1688	20	C18H23O2+
277.1433	11	C16H21O4+
279.159	51	C16H23O4+
289.1797	165	C18H25O3+
291.1952	15	C18H27O3+
301.2166	4	C20H29O2+
303.2316	4	C20H31O2+
307.1903	178	C18H27O4+
311.2007	2	C21H27O2+
320.2067	2	C15H30NO6+
321.206	22	
325.201	11	C18H29O5+
329.211	21	C21H29O3+
335.1852	50	C19H27O5+
339.2167	4	C19H31O5+
347.2217	97	C21H31O4+
353.1959	16	
365.2323	164	C21H33O5+
379.248	50	C22H35O5+
383.2428	31	C21H35O6+
393.2272	84	C22H33O6+
397.2585	2	C22H37O6+
411.2377	27	C22H35O7+
425.2531	4	C23H37O7+
538.3374	13	
556.3483	18	C29H50NO9+
574.3586	80	C29H52NO10+
588.3744	3	C30H54NO10+
606.3848	448	C30H56NO11+
