Mass spectrum: Chlorothalonil-TP R471811; LC-ESI-QFT; MS2; CE: 60%; R=17500; [M-H]-
Name: Chlorothalonil-TP R471811
Name: 2,4-dicarbamoyl-3,5,6-trichlorobenzenesulfonic acid
Formula: C8H5Cl3N2O5S
Exact mass: 345.8985
SMILES: NC(=O)C1=C(Cl)C(C(N)=O)=C(C(Cl)=C1Cl)S(O)(=O)=O
InChI: InChI=1S/C8H5Cl3N2O5S/c9-3-1(7(12)14)4(10)5(11)6(19(16,17)18)2(3)8(13)15/h(H2,12,14)(H2,13,15)(H,16,17,18)
Instrument: Q Exactive Plus Orbitrap Thermo Scientific
Instrument type: LC-ESI-QFT
Ms type: MS2
Ion mode: NEGATIVE
Ionization: ESI
Fragmentation mode: HCD
Collision energy: 60 % (nominal)
Resolution: 17500
Column name: XBridge C18 3.5um, 2.1x50mm, Waters
Retention time: 1.041 min
Base peak: 346.8881
Precursor m/z: 344.8912
Precursor type: [M-H]-
m/z	relative intensity	assigned
65.9985	26	C3NO-
79.9574	54	O3S-
89.9986	8	C5NO-
96.9602	119	HO4S-
97.9804	38	C4HClN-
114.9263	190	ClO3S-
121.9804	119	C6HClN-
122.9643	19	C6ClO-
137.9748	12	C6HClNO-
148.9918	8	C7H2ClN2-
158.9411	170	C6HCl2O-
165.9699	43	C7HClNO2-
178.9229	13	C6H2Cl3-
194.9176	999	C6H2Cl3O-
201.9471	38	C7H2Cl2NO2-
219.9122	34	C2H2Cl2N2O4S-
237.9236	313	C7H3Cl3NO2-
301.885	110	C7H3Cl3NO4S-
