Mass spectrum: Dimoxystrobin; LC-ESI-QFT; MS2; CE: 30; R=35000; [M+H]+
Name: Dimoxystrobin
Name: 2-[2-[(2,5-dimethylphenoxy)methyl]phenyl]-2-methoxyimino-N-methylacetamide
Formula: C19H22N2O3
Exact mass: 326.16304
SMILES: CC1=CC(=C(C=C1)C)OCC2=CC=CC=C2C(=NOC)C(=O)NC
InChI: InChI=1S/C19H22N2O3/c1-13-9-10-14(2)17(11-13)24-12-15-7-5-6-8-16(15)18(21-23-4)19(22)20-3/h5-11H,12H2,1-4H3,(H,20,22)
Instrument: Q Exactive Plus Orbitrap Thermo Scientific
Instrument type: LC-ESI-QFT
Ms type: MS2
Ion mode: POSITIVE
Ionization: ESI
Fragmentation mode: HCD
Collision energy: 30 (nominal)
Resolution: 35000
Column name: XBridge C18 3.5um, 2.1x50mm, Waters
Retention time: 12.4 min
Base peak: 327.1694
Precursor m/z: 327.1703
Precursor type: [M+H]+
m/z	relative intensity	assigned
58.0287	393	C2H4NO+
89.0384	2	C7H5+
116.0494	999	C8H6N+
117.0571	3	C8H7N+
118.065	9	C8H8N+
121.0648	6	C8H9O+
123.0804	1	C8H11O+
134.06	43	C8H8NO+
135.0804	5	C9H11O+
145.0761	1	C9H9N2+
146.0599	1	C9H8NO+
148.0756	14	C9H10NO+
174.0786	3	C10H10N2O+
182.0965	2	C13H12N+
193.1018	7	C15H13+
195.1043	6	C14H13N+
195.1167	2	C15H15+
196.112	5	C14H14N+
205.0972	463	C11H13N2O2+
207.113	2	C11H15N2O2+
210.1277	29	C15H16N+
220.1121	3	C16H14N+
221.0962	7	C16H13O+
222.1035	3	C16H14O+
223.0992	45	C15H13NO+
236.1069	2	C16H14NO+
238.1226	116	C16H16NO+
249.0909	10	C17H13O2+
252.1382	5	C17H18NO+
262.1225	2	C18H16NO+
268.1333	1	C17H18NO2+
280.1331	9	C18H18NO2+
