Mass spectrum: Dimethoate; LC-ESI-ITFT; MS2; CE: 15%; R=7500; [M+H]+
Name: Dimethoate
Name: 2-(dimethoxyphosphinothioylthio)-N-methylacetamide
Formula: C5H12NO3PS2
Exact mass: 228.9996
SMILES: P(SCC(NC)=O)(OC)(OC)=S
InChI: InChI=1S/C5H12NO3PS2/c1-6-5(7)4-12-10(11,8-2)9-3/h4H2,1-3H3,(H,6,7)
Instrument: LTQ Orbitrap XL Thermo Scientific
Instrument type: LC-ESI-ITFT
Ms type: MS2
Ion mode: POSITIVE
Ionization: ESI
Fragmentation mode: HCD
Collision energy: 15 % (nominal)
Resolution: 7500
Column name: XBridge C18 3.5um, 2.1x50mm, Waters
Retention time: 5.2 min
Base peak: 230.007
Precursor m/z: 230.0069
Precursor type: [M+H]+
m/z	relative intensity	assigned
61.0104	1	C2H5S+
78.9947	1	CH4O2P+
88.0215	85	C3H6NS+
119.9938	1	C3H6NS2+
124.982	75	C2H6O2PS+
142.9925	30	C2H8O3PS+
156.9541	12	C2H6O2PS2+
170.9697	384	C3H8O2PS2+
197.9807	36	C4H9NO2PS2+
198.9646	999	C4H8O3PS2+
230.0067	351	C5H13NO3PS2+
