Mass spectrum: Fipronil-sulfide; LC-ESI-ITFT; MS2; CE: 60%; R=15000; [M+H]+
Name: Fipronil-sulfide
Name: 5-Amino-1-[2,6-dichloro-4-(trifluoromethyl)phenyl]-4-[(trifluoromethyl)sulfanyl]-1H-pyrazole-3-carbonitrile
Formula: C12H4Cl2F6N4S
Exact mass: 419.9438
SMILES: FC(F)(F)c2cc(Cl)c(n1nc(C#N)c(SC(F)(F)F)c1N)c(Cl)c2
InChI: InChI=1S/C12H4Cl2F6N4S/c13-5-1-4(11(15,16)17)2-6(14)8(5)24-10(22)9(7(3-21)23-24)25-12(18,19)20/h1-2H,22H2
Instrument: LTQ Orbitrap XL Thermo Scientific
Instrument type: LC-ESI-ITFT
Ms type: MS2
Ion mode: POSITIVE
Ionization: ESI
Fragmentation mode: HCD
Collision energy: 60 % (nominal)
Resolution: 15000
Column name: XBridge C18 3.5um, 2.1x50mm, Waters
Retention time: 13.0 min
Base peak: 442.9332
Precursor m/z: 420.9511
Precursor type: [M+H]+
m/z	relative intensity	assigned
71.99	13	C2H2NS+
80.0243	21	C3H2N3+
87.001	31	C2H3N2S+
97.9932	206	C3H2N2S+
154.9881	36	C3H2F3N2S+
212.9474	29	C2HCl2F4N3+
213.9562	15	C7H3Cl2F3+
227.9587	53	C2H2Cl2F4N4+
228.9666	96	C2H3Cl2F4N4+
233.008	43	C9H5ClF3N2+
236.9628	13	C8H3ClF3NS+
237.9695	536	C3H3ClF4N4S+
238.9505	50	C3HCl2F4N4+
239.9581	42	C3H2Cl2F4N4+
246.0036	173	C9H4ClF3N3+
250.0457	85	C11H5F3N4+
251.9728	82	C8H4ClF3N2S+
254.9696	303	C9HF6S+
255.0072	24	C10H4F3N3S+
256.9189	18	C3HCl2F4N3S+
257.9274	110	C3H2Cl2F4N3S+
258.0035	49	C10H4ClF3N3+
262.9649	496	C9H3ClF3N2S+
263.9736	15	C9H4ClF3N2S+
264.9806	909	C9H5ClF3N2S+
273.0142	26	C10H5ClF3N4+
274.965	319	C10H3ClF3N2S+
282.0177	83	C11H5F3N4S+
282.9227	74	C4HCl2F4N4S+
284.0071	42	C11H4ClF3N4+
285.0146	86	C11H5ClF3N4+
289.9758	595	C10H4ClF3N3S+
292.9722	23	C11HF6NS+
316.9866	999	C11H5ClF3N4S+
319.9833	53	C12H2F6N2S+
