Mass spectrum: 4,5-dihydro-5,5-diphenyl-1,2-oxazole-3-carboxylic acid, ethyl ester; LC-ESI-QFT; MS2; CE: 90; R=35000; [M+H]+
Name: 4,5-dihydro-5,5-diphenyl-1,2-oxazole-3-carboxylic acid, ethyl ester
Name: 5,5-diphenyl-2-isoxazoline-3-carboxylic acid ethyl ester
Formula: C18H17NO3
Exact mass: 295.12084
SMILES: C1(C(OCC)=O)=NOC(C1)(c1ccccc1)c1ccccc1
InChI: InChI=1S/C18H17NO3/c1-2-21-17(20)16-13-18(22-19-16,14-9-5-3-6-10-14)15-11-7-4-8-12-15/h3-12H,2,13H2,1H3
Instrument: Q Exactive Orbitrap Thermo Scientific
Instrument type: LC-ESI-QFT
Ms type: MS2
Ion mode: POSITIVE
Ionization: ESI
Fragmentation mode: HCD
Collision energy: 90 (nominal)
Resolution: 35000
Column name: XBridge C18 3.5um, 2.1x50mm, Waters
Retention time: 12.7 min
Base peak: 296.1281
Precursor m/z: 296.1281
Precursor type: [M+H]+
m/z	relative intensity	assigned
53.0388	9	C4H5+
65.0386	6	C5H5+
75.0229	39	C6H3+
77.0385	124	C6H5+
79.0543	1	C6H7+
81.0335	7	C5H5O+
89.0385	12	C7H5+
91.0542	19	C7H7+
95.0491	196	C6H7O+
101.0386	15	C8H5+
103.0541	8	C8H7+
104.0495	24	C7H6N+
105.0335	140	C7H5O+
105.0447	139	C6H5N2+
115.0542	5	C9H7+
116.0493	9	C8H6N+
117.0572	5	C8H7N+
119.0491	11	C8H7O+
120.0445	1	C7H6NO+
126.0335	1	C9H4N+
127.0541	2	C10H7+
128.0494	30	C9H6N+
128.0621	6	C10H8+
129.0447	39	C8H5N2+
130.04	7	C7H4N3+
139.0538	2	C11H7+
144.0441	1	C9H6NO+
145.0647	2	C10H9O+
146.0601	6	C9H8NO+
150.0463	22	C12H6+
151.0541	130	C12H7+
152.062	88	C12H8+
153.0698	11	C12H9+
155.0602	11	C10H7N2+
164.0618	5	C13H8+
165.0698	111	C13H9+
166.0776	5	C13H10+
167.0727	12	C12H9N+
169.0647	263	C12H9O+
175.0542	20	C14H7+
176.062	921	C14H8+
177.0575	74	C13H7N+
177.0697	160	C14H9+
178.0649	27	C13H8N+
178.0776	421	C14H10+
179.0602	79	C12H7N2+
179.0721	11	C13H9N+
179.0854	23	C14H11+
180.0809	2	C13H10N+
181.0642	3	C13H9O+
189.0698	34	C15H9+
190.0649	11	C14H8N+
190.0776	23	C15H10+
191.0854	36	C15H11+
192.0805	18	C14H10N+
193.0649	23	C14H9O+
193.0884	21	C14H11N+
194.0598	6	C13H8NO+
194.0727	1	C14H10O+
195.0804	5	C14H11O+
196.0756	5	C13H10NO+
201.0572	52	C15H7N+
202.0651	110	C15H8N+
203.0728	999	C15H9N+
204.0807	401	C15H10N+
205.0653	2	C15H9O+
205.0759	9	C14H9N2+
205.0886	2	C15H11N+
206.0962	1	C15H12N+
207.0805	37	C15H11O+
217.0885	2	C16H11N+
218.0962	1	C16H12N+
220.0757	88	C15H10NO+
232.0757	13	C16H10NO+
