Mass spectrum: Benzoylecgonine; LC-ESI-ITFT; MS2; CE: 90%; R=7500; [M+H]+
Name: Benzoylecgonine
Name: 3-benzoyloxy-8-methyl-8-azabicyclo[3.2.1]octane-4-carboxylic acid
Formula: C16H19NO4
Exact mass: 289.1314
SMILES: CN1C2CCC1C(C(C2)OC(=O)C3=CC=CC=C3)C(=O)O
InChI: InChI=1S/C16H19NO4/c1-17-11-7-8-12(17)14(15(18)19)13(9-11)21-16(20)10-5-3-2-4-6-10/h2-6,11-14H,7-9H2,1H3,(H,18,19)
Instrument: LTQ Orbitrap XL Thermo Scientific
Instrument type: LC-ESI-ITFT
Ms type: MS2
Ion mode: POSITIVE
Ionization: ESI
Fragmentation mode: HCD
Collision energy: 90 % (nominal)
Resolution: 7500
Column name: XBridge C18 3.5um, 2.1x50mm, Waters
Retention time: 4.6 min
Base peak: 290.1395
Precursor m/z: 290.1387
Precursor type: [M+H]+
m/z	relative intensity	assigned
57.0574	13	C3H7N+
65.0384	30	C5H5+
67.0542	94	C5H7+
68.0494	87	C4H6N+
70.0652	9	C4H8N+
77.0386	501	C6H5+
79.0542	18	C6H7+
81.0699	18	C6H9+
82.0651	326	C5H8N+
83.049	31	C5H7O+
83.073	135	C5H9N+
84.0807	9	C5H10N+
91.0542	285	C7H7+
93.0698	43	C7H9+
94.065	67	C6H8N+
95.049	51	C6H7O+
96.0806	50	C6H10N+
100.0756	31	C5H10NO+
105.0334	999	C7H5O+
105.0446	143	C6H5N2+
107.0729	15	C7H9N+
108.0808	31	C7H10N+
109.0649	8	C7H9O+
117.0576	14	C8H7N+
119.0493	68	C8H7O+
122.0963	51	C8H12N+
124.1118	27	C8H14N+
132.0813	11	C9H10N+
135.0677	29	C8H9NO+
140.07	14	C7H10NO2+
150.0911	23	C9H12NO+
168.1021	52	C9H14NO2+
