Mass spectrum: Monolinuron; LC-ESI-QFT; MS2; CE: 45; R=35000; [M+H]+
Name: Monolinuron
Name: 3-(4-chlorophenyl)-1-methoxy-1-methyl-urea
Formula: C9H11ClN2O2
Exact mass: 214.05091
SMILES: Clc1ccc(NC(=O)N(OC)C)cc1
InChI: InChI=1S/C9H11ClN2O2/c1-12(14-2)9(13)11-8-5-3-7(10)4-6-8/h3-6H,1-2H3,(H,11,13)
Instrument: Q Exactive Orbitrap Thermo Scientific
Instrument type: LC-ESI-QFT
Ms type: MS2
Ion mode: POSITIVE
Ionization: ESI
Fragmentation mode: HCD
Collision energy: 45 (nominal)
Resolution: 35000
Column name: XBridge C18 3.5um, 2.1x50mm, Waters
Retention time: 8.0 min
Base peak: 215.0581
Precursor m/z: 215.0582
Precursor type: [M+H]+
m/z	relative intensity	assigned
60.0445	61	C2H6NO+
62.0601	81	C2H8NO+
72.9836	4	C3H2Cl+
88.0392	9	C3H6NO2+
90.0337	13	C6H4N+
91.0414	4	C6H5N+
98.9995	99	C5H4Cl+
106.0649	1	C7H8N+
119.0602	27	C7H7N2+
120.068	4	C7H8N2+
126.0104	999	C6H5ClN+
127.0181	279	C9H3O+
131.0601	3	C8H7N2+
140.0258	2	C7H7ClN+
141.0212	2	C6H6ClN2+
141.0339	6	C7H8ClN+
147.0551	22	C8H7N2O+
148.0629	508	C8H8N2O+
154.0052	11	C7H5ClNO+
155.037	1	C7H8ClN2+
168.008	2	C7H5ClN2O+
183.0318	61	C8H8ClN2O+
184.0395	7	C8H9ClN2O+
215.0579	15	C9H12ClN2O2+
