Mass spectrum: Heptenophos; LC-ESI-QFT; MS2; CE: 90; R=35000; [M+H]+
Name: Heptenophos
Name: (6-chloranyl-7-bicyclo[3.2.0]hepta-3,6-dienyl) dimethyl phosphate
Name: Ragadan
Formula: C9H12ClO4P
Exact mass: 250.01617
SMILES: COP(=O)(OC)OC1=C(Cl)C2C=CCC12
InChI: InChI=1S/C9H12ClO4P/c1-12-15(11,13-2)14-9-7-5-3-4-6(7)8(9)10/h3-4,6-7H,5H2,1-2H3
Instrument: Q Exactive Orbitrap Thermo Scientific
Instrument type: LC-ESI-QFT
Ms type: MS2
Ion mode: POSITIVE
Ionization: ESI
Fragmentation mode: HCD
Collision energy: 90 (nominal)
Resolution: 35000
Column name: XBridge C18 3.5um, 2.1x50mm, Waters
Retention time: 9.1 min
Base peak: 251.0238
Precursor m/z: 251.0234
Precursor type: [M+H]+
m/z	relative intensity	assigned
62.0151	8	C5H2+
63.023	103	C5H3+
64.0308	1	C5H4+
64.9786	7	H2O2P+
65.0386	34	C5H5+
66.0464	12	C5H6+
72.9839	50	C3H2Cl+
74.9996	18	C3H4Cl+
78.9944	65	CH4O2P+
79.0542	4	C6H7+
89.0386	589	C7H5+
90.0464	222	C7H6+
91.0541	6	C7H7+
94.989	1	CH4O3P+
95.0491	6	C6H7O+
96.9605	1	CH3ClOP+
96.9839	5	C5H2Cl+
97.0049	6	CH6O3P+
98.9996	346	C5H4Cl+
103.0541	1	C8H7+
112.9998	275	CH6O4P+
125.0153	246	C7H6Cl+
127.0155	999	C2H8O4P+
131.0106	3	CH8O5P+
145.0262	3	C2H10O5P+
202.9659	4	C7H5ClO3P+
203.9742	1	C7H6ClO3P+
