Mass spectrum: Propachlor ESA; LC-ESI-ITFT; MS2; CE: 75%; R=15000; [M+H]+
Name: Propachlor ESA
Name: 2-[Isopropyl(phenyl)amino]-2-oxoethanesulfonic acid
Formula: C11H15NO4S
Exact mass: 257.0722
SMILES: O=S(=O)(O)CC(=O)N(c1ccccc1)C(C)C
InChI: InChI=1S/C11H15NO4S/c1-9(2)12(10-6-4-3-5-7-10)11(13)8-17(14,15)16/h3-7,9H,8H2,1-2H3,(H,14,15,16)
Instrument: LTQ Orbitrap XL Thermo Scientific
Instrument type: LC-ESI-ITFT
Ms type: MS2
Ion mode: POSITIVE
Ionization: ESI
Fragmentation mode: HCD
Collision energy: 75 % (nominal)
Resolution: 15000
Column name: XBridge C18 3.5um, 2.1x50mm, Waters
Retention time: 5.9 min
Base peak: 258.0802
Precursor m/z: 258.0795
Precursor type: [M+H]+
m/z	relative intensity	assigned
59.0129	12	C2H3O2+
77.0385	29	C6H5+
79.0542	32	C6H7+
91.0542	30	C7H7+
92.0497	14	C6H6N+
94.0651	999	C6H8N+
104.0496	10	C7H6N+
105.0448	12	C6H5N2+
106.0651	420	C7H8N+
117.0572	304	C8H7N+
118.065	68	C8H8N+
120.0443	65	C7H6NO+
134.0599	57	C8H8NO+
135.0676	10	C8H9NO+
136.0757	10	C8H10NO+
198.0214	30	C8H8NO3S+
