Mass spectrum: Nortriptyline; LC-ESI-QFT; MS2; CE: 15; R=35000; [M+H]+
Name: Nortriptyline
Name: 3-(5,6-dihydrodibenzo[2,1-b:2`,1`-f][7]annulen-11-ylidene)-N-methylpropan-1-amine
Formula: C19H21N
Exact mass: 263.16740
SMILES: CNCCC=C1C2=CC=CC=C2CCC3=CC=CC=C31
InChI: InChI=1S/C19H21N/c1-20-14-6-11-19-17-9-4-2-7-15(17)12-13-16-8-3-5-10-18(16)19/h2-5,7-11,20H,6,12-14H2,1H3
Instrument: Q Exactive Plus Orbitrap Thermo Scientific
Instrument type: LC-ESI-QFT
Ms type: MS2
Ion mode: POSITIVE
Ionization: ESI
Fragmentation mode: HCD
Collision energy: 15 (nominal)
Resolution: 35000
Column name: XBridge C18 3.5um, 2.1x50mm, Waters
Retention time: 8.5 min
Base peak: 264.1741
Precursor m/z: 264.1747
Precursor type: [M+H]+
m/z	relative intensity	assigned
70.065	7	C4H8N+
91.0542	41	C7H7+
105.0699	40	C8H9+
117.0698	39	C9H9+
129.0695	2	C10H9+
141.0696	1	C11H9+
155.0855	11	C12H11+
178.0771	2	C14H10+
179.0855	3	C14H11+
191.0855	15	C15H11+
193.1011	1	C15H13+
205.1008	1	C16H13+
207.1167	1	C16H15+
218.1086	1	C17H14+
233.1325	271	C18H17+
264.1746	999	C19H22N+
