Mass spectrum: Oxytetracycline; LC-ESI-QFT; MS2; CE: 75; R=35000; [M-H]-
Name: Oxytetracycline
Name: (4S,4aR,5S,5aR,6S,12aS)-4-(Dimethylamino)-3,5,6,10,12,12a-hexahydroxy-6-methyl-1,11-dioxo-1,4,4a,5,5a,6,11,12a-octahydro-2-tetracenecarboxamide
Name: 2-carbamoyl-4-(dimethylazaniumyl)-5,6,10,11,12a-pentahydroxy-6-methyl-3,12-dioxo-4,4a,5,5a-tetrahydrotetracen-1-olate
Formula: C22H24N2O9
Exact mass: 460.14818
SMILES: CC1(C2C(C3C(C(=O)C(=C(C3(C(=O)C2=C(C4=C1C=CC=C4O)O)O)O)C(=O)N)N(C)C)O)O
InChI: InChI=1S/C22H24N2O9/c1-21(32)7-5-4-6-8(25)9(7)15(26)10-12(21)17(28)13-14(24(2)3)16(27)11(20(23)31)19(30)22(13,33)18(10)29/h4-6,12-14,17,25-26,28,30,32-33H,1-3H3,(H2,23,31)
Instrument: Q Exactive Plus Orbitrap Thermo Scientific
Instrument type: LC-ESI-QFT
Ms type: MS2
Ion mode: NEGATIVE
Ionization: ESI
Fragmentation mode: HCD
Collision energy: 75 (nominal)
Resolution: 35000
Column name: XBridge C18 3.5um, 2.1x50mm, Waters
Retention time: 4.3 min
Base peak: 459.1405
Precursor m/z: 459.1409
Precursor type: [M-H]-
m/z	relative intensity	assigned
50.0035	2	C3N-
51.0239	3	C4H3-
55.0189	48	C3H3O-
57.0345	12	C3H5O-
58.0298	3	C2H4NO-
59.0138	13	C2H3O2-
63.024	42	C5H3-
65.0033	34	C4HO-
65.0397	41	C5H5-
65.9985	78	C3NO-
67.019	22	C4H3O-
68.0143	5	C3H2NO-
68.9982	173	C3HO2-
69.0346	62	C4H5O-
71.014	28	C3H3O2-
72.9932	9	C2HO3-
73.0296	3	C3H5O2-
75.024	3	C6H3-
78.035	4	C5H4N-
79.0189	45	C5H3O-
80.0268	16	C5H4O-
81.0346	34	C5H5O-
83.0139	123	C4H3O2-
84.009	144	C3H2NO2-
85.0295	13	C4H5O2-
87.0087	77	C3H3O3-
89.0397	12	C7H5-
90.0349	11	C6H4N-
91.0189	99	C6H3O-
91.0553	12	C7H7-
92.0268	15	C6H4O-
93.0345	130	C6H5O-
95.0138	133	C5H3O2-
96.0091	40	C4H2NO2-
96.0455	3	C5H6NO-
96.9931	169	C4HO3-
97.0294	75	C5H5O2-
98.0247	3	C4H4NO2-
99.0087	29	C4H3O3-
99.0451	3	C5H7O2-
100.0768	14	C5H10NO-
103.0554	2	C8H7-
105.0345	17	C7H5O-
106.0299	4	C6H4NO-
107.0138	35	C6H3O2-
107.0503	13	C7H7O-
107.0615	3	C6H7N2-
108.0217	125	C6H4O2-
109.0295	134	C6H5O2-
110.0249	4	C5H4NO2-
111.0088	106	C5H3O3-
115.055	3	C9H7-
117.0346	75	C8H5O-
118.03	3	C7H4NO-
119.0139	14	C7H3O2-
119.0502	35	C8H7O-
120.0091	12	C6H2NO2-
121.0295	69	C7H5O2-
121.0534	3	C7H7NO-
122.025	19	C6H4NO2-
122.0374	11	C7H6O2-
122.0611	3	C7H8NO-
123.0088	122	C6H3O3-
123.0327	12	C6H5NO2-
124.0165	85	C6H4O3-
124.0404	5	C6H6NO2-
124.9878	28	C5HO4-
125.0243	58	C6H5O3-
125.072	16	C6H9N2O-
126.0195	10	C5H4NO3-
126.0561	61	C6H8NO2-
129.0348	3	C9H5O-
129.0711	11	C10H9-
130.0422	26	C9H6O-
131.0135	3	C8H3O2-
131.0502	25	C9H7O-
132.0218	4	C8H4O2-
133.017	5	C7H3NO2-
133.0293	22	C8H5O2-
133.0661	3	C9H9O-
134.0248	92	C7H4NO2-
134.0373	23	C8H6O2-
135.0088	69	C7H3O3-
135.0452	999	C8H7O2-
136.0164	6	C7H4O3-
136.0402	5	C7H6NO2-
136.0762	3	C8H10NO-
136.9881	9	C6HO4-
137.0244	40	C7H5O3-
137.0483	14	C7H7NO2-
138.0196	5	C6H4NO3-
138.0323	13	C7H6O3-
138.0561	3	C7H8NO2-
139.0149	115	C5H3N2O3-
140.0718	3	C7H10NO2-
141.0193	5	C6H5O4-
142.0144	5	C5H4NO4-
142.9986	64	C5H3O5-
143.0502	33	C10H7O-
144.058	113	C10H8O-
145.0294	57	C9H5O2-
145.0658	25	C10H9O-
146.0247	4	C8H4NO2-
146.037	19	C9H6O2-
147.02	3	C7H3N2O2-
147.0327	3	C8H5NO2-
147.0452	29	C9H7O2-
148.004	4	C7H2NO3-
148.0168	3	C8H4O3-
148.0403	2	C8H6NO2-
149.0118	31	C7H3NO3-
149.0243	22	C8H5O3-
149.0353	2	C7H5N2O2-
149.0481	4	C8H7NO2-
149.996	19	C7H2O4-
150.0196	99	C7H4NO3-
151.0037	26	C7H3O4-
151.0275	44	C7H5NO3-
152.0118	3	C7H4O4-
152.0356	10	C7H6NO3-
152.0714	5	C8H10NO2-
153.0195	10	C7H5O4-
155.0501	19	C11H7O-
156.058	13	C11H8O-
157.0658	58	C11H9O-
158.0373	96	C10H6O2-
159.0452	184	C10H7O2-
160.0163	4	C9H4O3-
160.0401	5	C9H6NO2-
161.0245	319	C9H5O3-
162.0197	94	C8H4NO3-
162.0323	16	C9H6O3-
163.004	11	C8H3O4-
163.0152	10	C7H3N2O3-
163.0276	91	C8H5NO3-
163.0401	63	C9H7O3-
164.0115	47	C8H4O4-
164.0353	10	C8H6NO3-
165.0193	4	C8H5O4-
165.0712	5	C13H9-
167.0221	4	C7H5NO4-
167.0501	11	C12H7O-
168.0664	3	C8H10NO3-
169.025	4	C6H5N2O4-
169.066	55	C12H9O-
170.0372	3	C11H6O2-
171.0452	173	C11H7O2-
172.053	362	C11H8O2-
173.0244	84	C10H5O3-
173.0607	675	C11H9O2-
174.0322	233	C10H6O3-
175.04	69	C10H7O3-
176.035	4	C9H6NO3-
177.0306	59	C8H5N2O3-
178.0146	36	C8H4NO4-
180.0583	29	C13H8O-
181.066	36	C13H9O-
182.0368	5	C12H6O2-
183.0449	55	C12H7O2-
183.0815	86	C13H11O-
184.0528	17	C12H8O2-
185.0244	22	C11H5O3-
185.0608	83	C12H9O2-
186.0323	18	C11H6O3-
186.0686	23	C12H10O2-
187.0401	301	C11H7O3-
188.0479	49	C11H8O3-
189.0193	25	C10H5O4-
189.0557	38	C11H9O3-
190.051	4	C10H8NO3-
191.0348	4	C10H7O4-
191.0507	3	C14H7O-
191.0714	4	C11H11O3-
192.0305	2	C9H6NO4-
193.0659	32	C14H9O-
195.0459	36	C13H7O2-
195.0814	26	C14H11O-
196.053	111	C13H8O2-
197.0608	157	C13H9O2-
198.0319	4	C12H6O3-
198.069	4	C13H10O2-
199.0397	34	C12H7O3-
199.0764	111	C13H11O2-
200.048	18	C12H8O3-
201.0557	298	C12H9O3-
202.0271	30	C11H6O4-
203.0349	89	C11H7O4-
203.0713	4	C12H11O3-
204.0424	5	C11H8O4-
204.0584	2	C15H8O-
205.0656	4	C15H9O-
206.0211	2	C10H6O5-
207.0451	18	C14H7O2-
207.0815	15	C15H11O-
208.0532	40	C14H8O2-
209.0608	230	C14H9O2-
210.0322	19	C13H6O3-
210.0684	54	C14H10O2-
211.04	107	C13H7O3-
211.0764	134	C14H11O2-
212.048	31	C13H8O3-
213.0556	47	C13H9O3-
214.0269	5	C12H6O4-
214.0636	3	C13H10O3-
215.0351	5	C12H7O4-
215.0716	17	C13H11O3-
216.0427	4	C12H8O4-
217.0507	3	C12H9O4-
217.0661	5	C16H9O-
218.0223	2	C11H6O5-
218.059	10	C12H10O4-
219.0449	13	C15H7O2-
220.0531	15	C15H8O2-
221.0607	56	C15H9O2-
222.0683	17	C15H10O2-
223.0401	25	C14H7O3-
223.0763	62	C15H11O2-
224.0479	139	C14H8O3-
224.0714	11	C14H10NO2-
225.0557	248	C14H9O3-
225.0924	29	C15H13O2-
226.027	5	C13H6O4-
226.0635	4	C14H10O3-
227.035	49	C13H7O4-
227.0713	41	C14H11O3-
228.043	17	C13H8O4-
229.0511	5	C13H9O4-
230.0218	3	C12H6O5-
230.0581	3	C13H10O4-
231.03	16	C12H7O5-
232.0531	10	C16H8O2-
233.0608	41	C16H9O2-
234.0686	2	C16H10O2-
235.0401	225	C15H7O3-
235.0762	32	C16H11O2-
236.0482	3	C15H8O3-
236.0716	14	C15H10NO2-
237.0557	67	C15H9O3-
237.0921	3	C16H13O2-
238.0272	3	C14H6O4-
238.0637	28	C15H10O3-
238.0877	5	C15H12NO2-
239.035	40	C14H7O4-
239.0713	58	C15H11O3-
240.0426	22	C14H8O4-
241.051	21	C14H9O4-
241.0874	3	C15H13O3-
243.0664	19	C14H11O4-
245.0602	3	C17H9O2-
246.0684	12	C17H10O2-
247.0402	10	C16H7O3-
247.0764	11	C17H11O2-
248.0476	38	C16H8O3-
249.0557	50	C16H9O3-
250.0277	3	C15H6O4-
250.0637	14	C16H10O3-
250.0875	9	C16H12NO2-
251.0347	10	C15H7O4-
251.0712	30	C16H11O3-
252.0428	58	C15H8O4-
252.1027	19	C16H14NO2-
253.0506	603	C15H9O4-
254.0586	10	C15H10O4-
255.03	82	C14H7O5-
255.0665	15	C15H11O4-
256.0377	32	C14H8O5-
261.0553	24	C17H9O3-
262.064	8	C17H10O3-
263.0351	11	C16H7O4-
263.0586	4	C16H9NO3-
263.0713	27	C17H11O3-
264.0427	10	C16H8O4-
264.0667	3	C16H10NO3-
265.0503	33	C16H9O4-
265.087	5	C17H13O3-
266.0584	11	C16H10O4-
267.066	30	C16H11O4-
268.0613	3	C15H10NO4-
269.0459	11	C15H9O5-
271.0616	9	C15H11O5-
273.056	5	C18H9O3-
274.0639	3	C18H10O3-
275.0716	2	C18H11O3-
276.0428	11	C17H8O4-
277.0504	27	C17H9O4-
278.0579	3	C17H10O4-
278.0824	2	C17H12NO3-
279.0293	12	C16H7O5-
279.0666	5	C17H11O4-
280.0382	4	C16H8O5-
282.0539	2	C16H10O5-
289.0507	10	C18H9O4-
291.066	14	C18H11O4-
292.0374	4	C17H8O5-
293.0456	12	C17H9O5-
303.0299	3	C18H7O5-
304.0618	2	C18H10NO4-
305.0452	4	C18H9O5-
316.0629	3	C19H10NO4-
