Mass spectrum: Hydrocortisone; LC-ESI-QFT; MS2; CE: 30; R=35000; [M+H]+
Name: (8S,9S,10R,11S,13S,14S,17R)-11,17-dihydroxy-17-(2-hydroxyacetyl)-10,13-dimethyl-2,6,7,8,9,11,12,14,15,16-decahydro-1H-cyclopenta[a]phenanthren-3-one
Name: Cortisol
Name: Hydrocortisone
Formula: C21H30O5
Exact mass: 362.20932
SMILES: C[C@]12CCC(=O)C=C1CC[C@@H]3[C@@H]2[C@H](C[C@]4([C@H]3CC[C@@]4(C(=O)CO)O)C)O
InChI: InChI=1S/C21H30O5/c1-19-7-5-13(23)9-12(19)3-4-14-15-6-8-21(26,17(25)11-22)20(15,2)10-16(24)18(14)19/h9,14-16,18,22,24,26H,3-8,10-11H2,1-2H3/t14-,15-,16-,18+,19-,20-,21-/m0/s1
Instrument: Q Exactive Plus Orbitrap Thermo Scientific
Instrument type: LC-ESI-QFT
Ms type: MS2
Ion mode: POSITIVE
Ionization: ESI
Fragmentation mode: HCD
Collision energy: 30 (nominal)
Resolution: 35000
Column name: XBridge C18 3.5um, 2.1x50mm, Waters
Retention time: 7.7 min
Base peak: 363.2164
Precursor m/z: 363.2166
Precursor type: [M+H]+
m/z	relative intensity	assigned
51.0228	1	C4H3+
53.0385	1	C4H5+
55.0178	1	C3H3O+
55.0542	2	C4H7+
57.0335	1	C3H5O+
67.0543	6	C5H7+
69.0334	9	C4H5O+
69.0698	5	C5H9+
71.0491	8	C4H7O+
75.044	1	C3H7O2+
77.0233	2	C2H5O3+
77.0383	3	C6H5+
79.0542	6	C6H7+
81.0335	4	C5H5O+
81.0699	33	C6H9+
83.0491	34	C5H7O+
83.0854	1	C6H11+
85.0285	1	C4H5O2+
85.0647	5	C5H9O+
91.0541	9	C7H7+
93.0699	32	C7H9+
95.0491	5	C6H7O+
95.0855	35	C7H11+
97.0648	246	C6H9O+
99.044	37	C5H7O2+
101.0597	6	C5H9O2+
103.0389	10	C4H7O3+
105.0699	31	C8H9+
107.0491	6	C7H7O+
107.0855	37	C8H11+
109.0648	120	C7H9O+
109.1012	13	C8H13+
111.0441	6	C6H7O2+
111.0804	14	C7H11O+
113.0597	5	C6H9O2+
115.054	1	C9H7+
117.0698	9	C9H9+
119.0856	75	C9H11+
121.0648	999	C8H9O+
123.0804	131	C8H11O+
125.0598	12	C7H9O2+
125.0961	1	C8H13O+
127.0753	5	C7H11O2+
128.0618	1	C10H8+
129.0698	13	C10H9+
131.0855	50	C10H11+
133.0649	17	C9H9O+
133.1012	42	C10H13+
135.0804	118	C9H11O+
135.1168	26	C10H15+
137.0597	6	C8H9O2+
137.0962	26	C9H13O+
139.0753	8	C8H11O2+
141.0698	22	C11H9+
143.0856	64	C11H11+
145.0647	12	C10H9O+
145.1012	101	C11H13+
146.1091	1	C11H14+
147.0804	75	C10H11O+
147.1168	103	C11H15+
149.0962	61	C10H13O+
149.1326	24	C11H17+
151.0753	20	C9H11O2+
151.1115	7	C10H15O+
153.0697	2	C12H9+
153.0912	10	C9H13O2+
155.0855	35	C12H11+
157.0648	9	C11H9O+
157.1012	98	C12H13+
159.0805	44	C11H11O+
159.1168	74	C12H15+
161.0961	66	C11H13O+
161.1324	23	C12H17+
163.1117	94	C11H15O+
165.0697	1	C13H9+
165.091	11	C10H13O2+
165.1274	7	C11H17O+
167.0856	14	C13H11+
169.1012	91	C13H13+
171.0804	41	C12H11O+
171.1168	63	C13H15+
172.1246	6	C13H16+
173.0962	86	C12H13O+
173.1326	38	C13H17+
175.1118	91	C12H15O+
177.091	11	C11H13O2+
177.1274	22	C12H17O+
178.077	1	C14H10+
179.0857	4	C14H11+
179.1067	12	C11H15O2+
181.1012	30	C14H13+
183.0805	4	C13H11O+
183.1169	61	C14H15+
185.0961	54	C13H13O+
185.1325	60	C14H17+
187.1118	155	C13H15O+
187.1481	12	C14H19+
189.0909	4	C12H13O2+
189.1274	52	C13H17O+
191.1065	13	C12H15O2+
191.1432	4	C13H19O+
193.1013	14	C15H13+
193.1221	11	C12H17O2+
195.1168	41	C15H15+
197.096	20	C14H13O+
197.1325	36	C15H17+
199.1118	39	C14H15O+
199.1481	20	C15H19+
200.1199	1	C14H16O+
201.1274	75	C14H17O+
203.1068	19	C13H15O2+
203.1431	13	C14H19O+
205.1014	4	C16H13+
205.1223	29	C13H17O2+
207.117	34	C16H15+
207.1379	19	C13H19O2+
209.0965	9	C15H13O+
209.1325	84	C16H17+
211.112	30	C15H15O+
211.1482	38	C16H19+
213.1275	65	C15H17O+
213.1639	6	C16H21+
215.1432	51	C15H19O+
217.1018	1	C17H13+
217.1222	12	C14H17O2+
217.159	10	C15H21O+
219.1166	6	C17H15+
219.1381	20	C14H19O2+
221.096	2	C16H13O+
221.1326	37	C17H17+
222.1402	1	C17H18+
223.1122	19	C16H15O+
223.1482	67	C17H19+
225.1275	101	C16H17O+
225.1637	31	C17H21+
227.1431	66	C16H19O+
227.1794	4	C17H23+
229.1225	10	C15H17O2+
229.1588	33	C16H21O+
231.1165	4	C18H15+
231.1381	45	C15H19O2+
233.1324	20	C18H17+
233.1535	4	C15H21O2+
234.1405	1	C18H18+
235.1117	7	C17H15O+
235.1484	16	C18H19+
236.1557	1	C18H20+
237.1273	17	C17H17O+
237.1639	14	C18H21+
239.1431	105	C17H19O+
239.1793	19	C18H23+
241.1587	180	C17H21O+
243.1382	28	C16H19O2+
243.1744	84	C17H23O+
244.124	1	C19H16+
245.1327	5	C19H17+
245.1537	22	C16H21O2+
247.1482	18	C19H19+
248.1558	4	C19H20+
249.1279	14	C18H17O+
249.1638	97	C19H21+
250.134	1	C18H18O+
250.1715	4	C19H22+
251.1431	95	C18H19O+
251.1795	59	C19H23+
252.151	2	C18H20O+
253.1224	7	C17H17O2+
253.1587	38	C18H21O+
253.195	10	C19H25+
255.1383	5	C17H19O2+
255.1745	15	C18H23O+
257.1539	13	C17H21O2+
258.1405	1	C20H18+
259.1698	4	C17H23O2+
261.1486	10	C16H21O3+
261.1638	18	C20H21+
262.1353	1	C19H18O+
263.1431	28	C19H19O+
263.1793	37	C20H23+
265.1587	50	C19H21O+
266.1665	9	C19H22O+
267.1744	393	C19H23O+
268.1823	46	C19H24O+
269.1538	38	C18H21O2+
269.19	291	C19H25O+
271.1342	1	C17H19O3+
271.1691	22	C18H23O2+
273.1638	33	C21H21+
276.1502	2	C20H20O+
279.1744	89	C20H23O+
281.1539	53	C19H21O2+
281.19	160	C20H25O+
283.1694	25	C19H23O2+
284.1771	1	C19H24O2+
285.185	67	C19H25O2+
286.1926	4	C19H26O2+
287.2006	41	C19H27O2+
291.1743	187	C21H23O+
294.1615	4	C20H22O2+
296.1776	1	C20H24O2+
297.185	231	C20H25O2+
299.1644	12	C19H23O3+
299.2007	56	C20H27O2+
301.1801	14	C19H25O3+
309.185	526	C21H25O2+
312.1727	3	C20H24O3+
315.1956	59	C20H27O3+
317.2121	8	C20H29O3+
327.1956	589	C21H27O3+
345.2062	219	C21H29O4+
363.2168	803	C21H31O5+
