Mass spectrum: Molinate; LC-ESI-QFT; MS2; CE: 150; R=35000; [M+H]+
Name: Molinate
Name: S-ethyl azepane-1-carbothioate
Formula: C9H17NOS
Exact mass: 187.10309
SMILES: CCSC(=O)N1CCCCCC1
InChI: InChI=1S/C9H17NOS/c1-2-12-9(11)10-7-5-3-4-6-8-10/h2-8H2,1H3
Instrument: Q Exactive Plus Orbitrap Thermo Scientific
Instrument type: LC-ESI-QFT
Ms type: MS2
Ion mode: POSITIVE
Ionization: ESI
Fragmentation mode: HCD
Collision energy: 150 (nominal)
Resolution: 35000
Column name: XBridge C18 3.5um, 2.1x50mm, Waters
Retention time: 10.5 min
Base peak: 188.11
Precursor m/z: 188.1104
Precursor type: [M+H]+
m/z	relative intensity	assigned
51.023	4	C4H3+
53.0022	51	C3HO+
53.0386	118	C4H5+
53.9975	13	C2NO+
54.0338	2	C3H4N+
55.0543	999	C4H7+
56.0131	59	C2H2NO+
56.0495	51	C3H6N+
57.0572	4	C3H7N+
58.0287	1	C2H4NO+
58.995	2	C2H3S+
65.0386	8	C5H5+
66.0464	1	C5H6+
67.0416	1	C4H5N+
67.0543	10	C5H7+
67.9893	5	C3O2+
68.0494	17	C4H6N+
69.0573	6	C4H7N+
69.0699	6	C5H9+
70.0651	60	C4H8N+
71.9902	7	C2H2NS+
78.0088	2	C3N3+
79.0542	22	C6H7+
81.0699	8	C6H9+
82.0651	48	C5H8N+
83.0729	35	C5H9N+
84.0444	20	C4H6NO+
84.0808	7	C5H10N+
95.0492	2	C6H7O+
96.0809	2	C6H10N+
98.0965	36	C6H12N+
