Mass spectrum: Benzoximate; LC-ESI-QFT; MS2; CE: 15%; R=17500; [M+H]+
Name: Benzoximate
Name: [C-(3-chloro-2,6-dimethoxyphenyl)-N-ethoxycarbonimidoyl] benzoate
Formula: C18H18ClNO5
Exact mass: 363.0874
SMILES: CCON=C(C1=C(C=CC(=C1OC)Cl)OC)OC(=O)C2=CC=CC=C2
InChI: InChI=1S/C18H18ClNO5/c1-4-24-20-17(25-18(21)12-8-6-5-7-9-12)15-14(22-2)11-10-13(19)16(15)23-3/h5-11H,4H2,1-3H3
Instrument: Exploris 240 Orbitrap Thermo Scientific
Instrument type: LC-ESI-QFT
Ms type: MS2
Ion mode: POSITIVE
Ionization: ESI
Fragmentation mode: HCD
Collision energy: 15 % (nominal)
Resolution: 17500
Column name: XBridge C18 3.5um, 2.1x50mm, Waters
Retention time: 11.695 min
Base peak: 276.2181
Precursor m/z: 364.0946
Precursor type: [M+H]+
m/z	relative intensity	assigned
105.0334	245	C7H5O+
183.9928	3	C8H5ClO3+
199.0155	999	C9H8ClO3+
