Mass spectrum: Chlorthal-dimethyl; LC-ESI-QFT; MS2; CE: 60; R=35000; [M+H]+
Name: Chlorthal-dimethyl
Name: Dimethyl 2,3,5,6-tetrachloroterephthalate
Name: Dimethyl 2,3,5,6-tetrachlorobenzene-1,4-dicarboxylate
Formula: C10H6Cl4O4
Exact mass: 329.90202
SMILES: COC(=O)C1=C(C(=C(C(=C1Cl)Cl)C(=O)OC)Cl)Cl
InChI: InChI=1S/C10H6Cl4O4/c1-17-9(15)3-5(11)7(13)4(10(16)18-2)8(14)6(3)12/h1-2H3
Instrument: Q Exactive Plus Orbitrap Thermo Scientific
Instrument type: LC-ESI-QFT
Ms type: MS2
Ion mode: POSITIVE
Ionization: ESI
Fragmentation mode: HCD
Collision energy: 60 (nominal)
Resolution: 35000
Column name: XBridge C18 3.5um, 2.1x50mm, Waters
Retention time: 13.4 min
Base peak: 245.1745
Precursor m/z: 330.9093
Precursor type: [M+H]+
m/z	relative intensity	assigned
55.0543	5	C4H7+
67.0543	5	C5H7+
77.0153	1	C3H6Cl+
79.0543	4	C6H7+
83.0493	2	C5H7O+
91.0544	4	C7H7+
98.9843	999	CH4ClO3+
152.9064	3	C4Cl3+
156.9607	2	C7H3Cl2+
164.9061	2	C5Cl3+
178.9219	2	C6H2Cl3+
179.9297	12	C6H3Cl3+
190.9221	1	C7H2Cl3+
191.9296	2	C7H3Cl3+
192.9378	2	C7H4Cl3+
206.9172	1	C7H2Cl3O+
206.9282	2	C6H2Cl3N2+
212.8829	3	C6HCl4+
214.8984	2	C6H3Cl4+
220.8962	162	C7Cl3O2+
226.8984	1	C7H3Cl4+
227.8702	7	C6Cl4O+
239.9147	1	C7H3Cl3O3+
240.8779	41	C7HCl4O+
240.8893	8	C6HCl4N2+
255.865	40	C7Cl4O2+
270.8884	61	C8H3Cl4O2+
271.8599	4	C7Cl4O3+
284.8676	3	C8HCl4O3+
298.8834	37	C9H3Cl4O3+
