Mass spectrum: Thiram; LC-ESI-QFT; MS2; CE: 150; R=35000; [M+H]+
Name: Thiram
Name: Dimethylcarbamothioylsulfanyl N,N-dimethylcarbamodithioate
Formula: C6H12N2S4
Exact mass: 239.98833
SMILES: CN(C)C(=S)SSC(=S)N(C)C
InChI: InChI=1S/C6H12N2S4/c1-7(2)5(9)11-12-6(10)8(3)4/h1-4H3
Instrument: Q Exactive Plus Orbitrap Thermo Scientific
Instrument type: LC-ESI-QFT
Ms type: MS2
Ion mode: POSITIVE
Ionization: ESI
Fragmentation mode: HCD
Collision energy: 150 (nominal)
Resolution: 35000
Column name: XBridge C18 3.5um, 2.1x50mm, Waters
Retention time: 6.5 min
Base peak: 240.995
Precursor m/z: 240.9956
Precursor type: [M+H]+
m/z	relative intensity	assigned
51.0229	1	C4H3+
53.0386	1	C4H5+
55.0542	1	C4H7+
56.0495	101	C3H6N+
58.0651	3	C3H8N+
59.9664	10	COS+
59.9902	2	CH2NS+
60.9981	69	CH3NS+
61.0106	17	C2H5S+
63.9436	59	S2+
65.0385	1	C5H5+
71.9902	316	C2H2NS+
72.998	999	C2H3NS+
74.0059	2	C2H4NS+
76.0215	91	C2H6NS+
76.9514	19	CHS2+
88.0215	410	C3H6NS+
95.0492	1	C6H7O+
