Mass spectrum: Warfarin; LC-ESI-QFT; MS2; CE: 45; R=35000; [M+H]+
Name: Warfarin
Name: 2-hydroxy-3-(3-oxo-1-phenylbutyl)chromen-4-one
Name: Coumafen
Formula: C19H16O4
Exact mass: 308.10486
SMILES: O=C\1c3c(OC(/O)=C/1C(c2ccccc2)CC(=O)C)cccc3
InChI: InChI=1S/C19H16O4/c1-12(20)11-15(13-7-3-2-4-8-13)17-18(21)14-9-5-6-10-16(14)23-19(17)22/h2-10,15,22H,11H2,1H3
Instrument: Q Exactive Orbitrap Thermo Scientific
Instrument type: LC-ESI-QFT
Ms type: MS2
Ion mode: POSITIVE
Ionization: ESI
Fragmentation mode: HCD
Collision energy: 45 (nominal)
Resolution: 35000
Column name: XBridge C18 3.5um, 2.1x50mm, Waters
Retention time: 10.6 min
Base peak: 309.112
Precursor m/z: 309.1121
Precursor type: [M+H]+
m/z	relative intensity	assigned
65.0385	2	C5H5+
68.9971	3	C3HO2+
77.0384	1	C6H5+
91.0542	12	C7H7+
95.0491	9	C6H7O+
103.0542	1	C8H7+
105.0335	1	C7H5O+
105.0698	3	C8H9+
119.0487	1	C8H7O+
121.0283	59	C7H5O2+
128.0621	1	C10H8+
129.0698	39	C10H9+
131.0491	33	C9H7O+
143.0853	1	C11H11+
147.0804	141	C10H11O+
155.0854	24	C12H11+
157.0282	3	C10H5O2+
163.0388	876	C9H7O3+
165.0697	3	C13H9+
167.0856	9	C13H11+
171.0803	13	C12H11O+
173.0227	1	C10H5O3+
175.0389	14	C10H7O3+
178.0775	4	C14H10+
179.0855	5	C14H11+
183.0804	106	C13H11O+
189.0547	15	C11H9O3+
191.0337	201	C10H7O4+
195.0803	9	C14H11O+
205.0648	13	C15H9O+
207.0804	3	C15H11O+
223.0752	47	C15H11O2+
233.0596	19	C16H9O2+
249.0544	1	C16H9O3+
251.0702	999	C16H11O3+
291.1021	5	C19H15O3+
