Mass spectrum: Nodularin; LC-ESI-QFT; MS2; CE: 60; R=35000; [M+H]+
Name: Nodularin
Name: (2Z,5R,6S,9S,12S,13S,16R)-9-[3-(diaminomethylideneamino)propyl]-2-ethylidene-12-[(1E,3E,5S,6S)-6-methoxy-3,5-dimethyl-7-phenylhepta-1,3-dienyl]-1,6,13-trimethyl-3,7,10,14,19-pentaoxo-1,4,8,11,15-pentazacyclononadecane-5,16-dicarboxylic acid
Formula: C41H60N8O10
Exact mass: 824.44324
SMILES: NC(=N)NCCC[C@@H]2NC(=O)[C@@H](C)[C@@H](NC(=O)C(=C\C)\N(C)C(=O)CC[C@@H](NC(=O)[C@@H](C)[C@H](/C=C/C(/C)=C/[C@H](C)[C@H](Cc1ccccc1)OC)NC2=O)C(=O)O)C(O)=O
InChI: InChI=1S/C41H60N8O10/c1-8-31-38(54)48-34(40(57)58)26(5)36(52)46-29(15-12-20-44-41(42)43)37(53)45-28(25(4)35(51)47-30(39(55)56)18-19-33(50)49(31)6)17-16-23(2)21-24(3)32(59-7)22-27-13-10-9-11-14-27/h8-11,13-14,16-17,21,24-26,28-30,32,34H,12,15,18-20,22H2,1-7H3,(H,45,53)(H,46,52)(H,47,51)(H,48,54)(H,55,56)(H,57,58)(H4,42,43,44)/b17-16+,23-21+,31-8-/t24-,25-,26-,28-,29-,30+,32-,34+/m0/s1
Instrument: Q Exactive Orbitrap Thermo Scientific
Instrument type: LC-ESI-QFT
Ms type: MS2
Ion mode: POSITIVE
Ionization: ESI
Fragmentation mode: HCD
Collision energy: 60 (nominal)
Resolution: 35000
Column name: XBridge C18 3.5um, 2.1x50mm, Waters
Retention time: 9.6 min
Base peak: 825.4499
Precursor m/z: 825.4505
Precursor type: [M+H]+
m/z	relative intensity	assigned
58.0652	1	C3H8N+
59.0478	1	CH5N3+
60.0557	23	CH6N3+
65.0386	12	C5H5+
67.0542	7	C5H7+
68.0495	19	C4H6N+
69.0335	24	C4H5O+
69.0699	7	C5H9+
70.0651	999	C4H8N+
71.0492	10	C4H7O+
72.0807	21	C4H10N+
73.0634	1	C2H7N3+
74.0237	1	C2H4NO2+
74.0602	1	C3H8NO+
77.0385	18	C6H5+
79.0542	78	C6H7+
80.0495	4	C5H6N+
81.0335	2	C5H5O+
81.0699	7	C6H9+
82.0288	8	C4H4NO+
82.0652	5	C5H8N+
83.0491	16	C5H7O+
84.0444	135	C4H6NO+
85.0284	8	C4H5O2+
85.076	6	C4H9N2+
86.0599	8	C4H8NO+
87.0792	10	C3H9N3+
89.0384	1	C7H5+
91.0542	201	C7H7+
92.062	1	C7H8+
93.0699	145	C7H9+
94.0651	15	C6H8N+
95.0491	107	C6H7O+
95.0603	25	C5H7N2+
95.0855	10	C7H11+
96.0444	13	C5H6NO+
96.0681	1	C5H8N2+
96.0807	10	C6H10N+
97.076	53	C5H9N2+
98.0601	58	C5H8NO+
99.0189	12	C3H3N2O2+
100.0756	7	C5H10NO+
102.0465	9	C8H6+
102.055	4	C4H8NO2+
103.0542	719	C8H7+
104.0577	1	C3H8N2O2+
105.0699	449	C8H9+
106.0651	1	C7H8N+
107.0855	433	C8H11+
108.0808	11	C7H10N+
109.0648	28	C7H9O+
109.076	2	C6H9N2+
110.0237	1	C5H4NO2+
110.0714	1	C5H8N3+
110.0963	6	C7H12N+
112.0869	116	C5H10N3+
113.0234	17	C5H5O3+
113.0709	25	C5H9N2O+
114.0547	8	C5H8NO2+
114.1026	27	C5H12N3+
115.0542	91	C9H7+
115.0866	76	C5H11N2O+
116.062	5	C9H8+
116.0706	16	C5H10NO2+
117.0699	170	C9H9+
118.0653	2	C8H8N+
119.0604	7	C7H7N2+
119.0855	22	C9H11+
120.057	16	C8H8O+
120.0808	25	C8H10N+
120.0934	1	C9H12+
121.0648	2	C8H9O+
121.1012	7	C9H13+
122.0601	2	C7H8NO+
122.0965	5	C8H12N+
123.0553	5	C6H7N2O+
123.0802	1	C8H11O+
123.0917	1	C7H11N2+
124.0392	4	C6H6NO2+
124.0757	29	C7H10NO+
124.112	5	C8H14N+
125.0709	34	C6H9N2O+
126.055	10	C6H8NO2+
126.0662	1	C5H8N3O+
126.0914	14	C7H12NO+
127.0866	26	C6H11N2O+
127.1232	1	C7H15N2+
128.0343	2	C5H6NO3+
128.062	5	C10H8+
129.0698	9	C10H9+
130.0499	31	C5H8NO3+
130.0652	1	C9H8N+
130.0778	2	C10H10+
130.0975	16	C5H12N3O+
131.0855	14	C10H11+
132.0807	2	C9H10N+
133.0647	1	C9H9O+
133.1011	12	C10H13+
135.0804	465	C9H11O+
135.0912	32	C8H11N2+
135.1167	141	C10H15+
136.0756	19	C8H10NO+
136.0995	4	C8H12N2+
137.0711	1	C7H9N2O+
137.1074	11	C8H13N2+
138.0661	5	C6H8N3O+
138.0913	10	C8H12NO+
139.0978	10	C6H11N4+
139.1228	2	C8H15N2+
140.0703	4	C7H10NO2+
140.0817	29	C6H10N3O+
141.0657	60	C6H9N2O2+
142.0863	1	C7H12NO2+
142.0976	1	C6H12N3O+
143.0855	10	C11H11+
145.1014	15	C11H13+
146.0965	1	C10H12N+
146.1091	2	C11H14+
147.0807	2	C10H11O+
147.0921	1	C9H11N2+
147.1172	2	C11H15+
148.112	1	C10H14N+
150.0918	1	C9H12NO+
150.1027	1	C8H12N3+
151.0867	5	C8H11N2O+
152.0706	28	C8H10NO2+
152.1182	4	C8H14N3+
153.0658	4	C7H9N2O2+
153.1021	49	C8H13N2O+
154.0862	7	C8H12NO2+
155.0855	2	C12H11+
155.118	4	C8H15N2O+
156.1244	1	C6H14N5+
157.1083	20	C6H13N4O+
158.0925	6	C6H12N3O2+
159.1169	2	C12H15+
161.0959	1	C11H13O+
162.0921	1	C10H12NO+
162.1027	5	C9H12N3+
163.0865	43	C9H11N2O+
163.1117	34	C11H15O+
164.0703	10	C9H10NO2+
164.1184	6	C9H14N3+
165.1021	23	C9H13N2O+
166.0864	6	C9H12NO2+
167.0858	1	C13H11+
170.0811	5	C8H12NO3+
170.0969	1	C12H12N+
171.0763	9	C7H11N2O3+
171.1125	1	C8H15N2O2+
172.1121	7	C12H14N+
173.0961	2	C12H13O+
174.1353	8	C6H16N5O+
176.1068	1	C11H14NO+
176.1428	1	C12H18N+
178.0973	8	C9H12N3O+
180.0933	1	C14H12+
180.1131	10	C9H14N3O+
181.097	153	C9H13N2O2+
182.0812	28	C9H12NO3+
182.1036	18	C7H12N5O+
182.1288	4	C9H16N3O+
183.0876	12	C7H11N4O2+
183.1123	11	C9H15N2O2+
186.0916	1	C12H12NO+
188.1066	2	C12H14NO+
192.1133	6	C10H14N3O+
195.1241	1	C9H15N4O+
197.1074	1	C13H13N2+
198.1237	4	C9H16N3O2+
199.1073	12	C9H15N2O3+
200.1141	17	C7H14N5O2+
201.0979	15	C7H13N4O3+
204.1383	2	C13H18NO+
206.0925	5	C10H12N3O2+
207.0769	2	C10H11N2O3+
208.1081	6	C10H14N3O2+
209.092	78	C10H13N2O3+
210.0762	9	C10H12NO4+
210.1243	1	C10H16N3O2+
213.1355	1	C9H17N4O2+
218.1545	1	C14H20NO+
223.1193	4	C10H15N4O2+
224.1027	4	C10H14N3O3+
225.0872	5	C10H13N2O4+
225.135	1	C10H17N4O2+
226.1183	11	C10H16N3O3+
227.1025	59	C10H15N2O4+
228.0868	2	C10H14NO5+
249.1231	2	C13H17N2O3+
253.0819	7	C11H13N2O5+
267.1344	4	C13H19N2O4+
