Mass spectrum: Praziquantel; LC-ESI-QFT; MS2; CE: 45; R=35000; [M+H]+
Name: Praziquantel
Name: 2-(cyclohexanecarbonyl)-3,6,7,11b-tetrahydro-1H-pyrazino[2,1-a]isoquinolin-4-one
Formula: C19H24N2O2
Exact mass: 312.18378
SMILES: C1CCC(CC1)C(=O)N2CC3C4=CC=CC=C4CCN3C(=O)C2
InChI: InChI=1S/C19H24N2O2/c22-18-13-20(19(23)15-7-2-1-3-8-15)12-17-16-9-5-4-6-14(16)10-11-21(17)18/h4-6,9,15,17H,1-3,7-8,10-13H2
Instrument: Q Exactive Orbitrap Thermo Scientific
Instrument type: LC-ESI-QFT
Ms type: MS2
Ion mode: POSITIVE
Ionization: ESI
Fragmentation mode: HCD
Collision energy: 45 (nominal)
Resolution: 35000
Column name: XBridge C18 3.5um, 2.1x50mm, Waters
Retention time: 10.1 min
Base peak: 313.191
Precursor m/z: 313.1911
Precursor type: [M+H]+
m/z	relative intensity	assigned
53.0386	1	C4H5+
55.0542	9	C4H7+
72.0443	14	C3H6NO+
83.0855	999	C6H11+
105.0698	3	C8H9+
111.0803	7	C7H11O+
117.0698	5	C9H9+
128.062	1	C10H8+
129.0698	37	C10H9+
130.065	8	C9H8N+
131.0729	3	C9H9N+
132.0807	237	C9H10N+
144.0808	19	C10H10N+
146.0964	131	C10H12N+
158.0964	34	C11H12N+
173.1073	9	C11H13N2+
174.0913	449	C11H12NO+
175.1229	96	C11H15N2+
176.1068	2	C11H14NO+
185.1075	5	C12H13N2+
186.0912	1	C12H12NO+
201.102	1	C12H13N2O+
203.1177	939	C12H15N2O+
254.1535	1	C17H20NO+
256.1695	34	C17H22NO+
285.196	22	C18H25N2O+
313.1914	2	C19H25N2O2+
