Mass spectrum: Celiprolol; LC-ESI-QFT; MS2; CE: 90; R=35000; [M-H]-
Name: Celiprolol
Name: 3-[3-acetyl-4-[3-(tert-butylamino)-2-hydroxy-propoxy]phenyl]-1,1-diethyl-urea
Formula: C20H33N3O4
Exact mass: 379.24711
SMILES: CCN(CC)C(=O)NC1=CC(=C(C=C1)OCC(CNC(C)(C)C)O)C(=O)C
InChI: InChI=1S/C20H33N3O4/c1-7-23(8-2)19(26)22-15-9-10-18(17(11-15)14(3)24)27-13-16(25)12-21-20(4,5)6/h9-11,16,21,25H,7-8,12-13H2,1-6H3,(H,22,26)
Instrument: Q Exactive Orbitrap Thermo Scientific
Instrument type: LC-ESI-QFT
Ms type: MS2
Ion mode: NEGATIVE
Ionization: ESI
Fragmentation mode: HCD
Collision energy: 90 (nominal)
Resolution: 35000
Column name: XBridge C18 3.5um, 2.1x50mm, Waters
Retention time: 5.5 min
Base peak: 378.2399
Precursor m/z: 378.2398
Precursor type: [M-H]-
m/z	relative intensity	assigned
59.0138	56	C2H3O2-
78.0349	107	C5H4N-
92.0506	17	C6H6N-
93.0346	68	C6H5O-
106.0299	177	C6H4NO-
107.0377	7	C6H5NO-
108.0455	7	C6H6NO-
118.0299	71	C7H4NO-
119.0502	38	C8H7O-
120.0455	14	C7H6NO-
133.0535	7	C8H7NO-
134.0249	485	C7H4NO2-
134.0611	540	C8H8NO-
135.0451	39	C8H7O2-
148.0403	7	C8H6NO2-
148.0768	28	C9H10NO-
149.0482	71	C8H7NO2-
150.0559	26	C8H8NO2-
160.0404	346	C9H6NO2-
161.0608	61	C10H9O2-
162.0561	18	C9H8NO2-
162.0922	7	C10H12NO-
163.0764	4	C10H11O2-
174.0561	48	C10H8NO2-
175.0638	19	C10H9NO2-
176.0356	438	C9H6NO3-
176.0714	999	C10H10NO2-
188.0718	18	C11H10NO2-
190.0874	290	C11H12NO2-
203.0463	3	C10H7N2O3-
204.1029	37	C12H14NO2-
207.0538	5	C10H9NO4-
219.0775	1	C11H11N2O3-
