Mass spectrum: Propranolol; LC-ESI-QFT; MS2; CE: 60; R=35000; [M+H]+
Name: Propranolol
Name: 1-(1-naphthalenyloxy)-3-(propan-2-ylamino)-2-propanol
Formula: C16H21NO2
Exact mass: 259.15723
SMILES: CC(C)NCC(COC1=CC=CC2=CC=CC=C21)O
InChI: InChI=1S/C16H21NO2/c1-12(2)17-10-14(18)11-19-16-9-5-7-13-6-3-4-8-15(13)16/h3-9,12,14,17-18H,10-11H2,1-2H3
Instrument: Q Exactive Orbitrap Thermo Scientific
Instrument type: LC-ESI-QFT
Ms type: MS2
Ion mode: POSITIVE
Ionization: ESI
Fragmentation mode: HCD
Collision energy: 60 (nominal)
Resolution: 35000
Column name: XBridge C18 3.5um, 2.1x50mm, Waters
Retention time: 6.6 min
Base peak: 260.1646
Precursor m/z: 260.1645
Precursor type: [M+H]+
m/z	relative intensity	assigned
56.0496	357	C3H6N+
58.0652	602	C3H8N+
60.0808	20	C3H10N+
70.0651	4	C4H8N+
72.0808	768	C4H10N+
74.06	999	C3H8NO+
84.0808	61	C5H10N+
86.0965	32	C5H12N+
90.0549	4	C3H8NO2+
91.0543	3	C7H7+
98.0964	391	C6H12N+
100.1121	164	C6H14N+
102.0912	10	C5H12NO+
115.0542	42	C9H7+
116.107	802	C6H14NO+
117.0699	12	C9H9+
128.0619	25	C10H8+
129.0699	258	C10H9+
141.0698	111	C11H9+
143.0492	35	C10H7O+
144.0568	4	C10H8O+
145.0648	136	C10H9O+
153.0699	150	C12H9+
154.0775	30	C12H10+
155.0855	777	C12H11+
157.0648	518	C11H9O+
165.0699	232	C13H9+
167.0854	2	C13H11+
168.0569	47	C12H8O+
171.0804	24	C12H11O+
181.0646	5	C13H9O+
182.0724	12	C13H10O+
183.0805	504	C13H11O+
218.1172	18	C13H16NO2+
260.1646	44	C16H22NO2+
