Mass spectrum: Diphenhydramine; LC-ESI-QFT; MS2; CE: 180; R=35000; [M+H]+
Name: Diphenhydramine
Name: 2-benzhydryloxy-N,N-dimethylethanamine
Formula: C17H21NO
Exact mass: 255.16231
SMILES: CN(C)CCOC(C1=CC=CC=C1)C2=CC=CC=C2
InChI: InChI=1S/C17H21NO/c1-18(2)13-14-19-17(15-9-5-3-6-10-15)16-11-7-4-8-12-16/h3-12,17H,13-14H2,1-2H3
Instrument: Q Exactive Plus Orbitrap Thermo Scientific
Instrument type: LC-ESI-QFT
Ms type: MS2
Ion mode: POSITIVE
Ionization: ESI
Fragmentation mode: HCD
Collision energy: 180 (nominal)
Resolution: 35000
Column name: XBridge C18 3.5um, 2.1x50mm, Waters
Retention time: 6.6 min
Base peak: 256.1694
Precursor m/z: 256.1696
Precursor type: [M+H]+
m/z	relative intensity	assigned
50.0151	33	C4H2+
51.0229	31	C4H3+
52.0307	5	C4H4+
53.0022	13	C3HO+
53.0386	16	C4H5+
61.0072	17	C5H+
62.0151	61	C5H2+
63.0229	268	C5H3+
65.0386	229	C5H5+
67.9893	2	C3O2+
74.0151	76	C6H2+
75.0229	53	C6H3+
76.0307	124	C6H4+
77.0385	30	C6H5+
78.0464	181	C6H6+
81.0336	3	C5H5O+
86.0151	29	C7H2+
87.0229	68	C7H3+
89.0386	353	C7H5+
91.0543	89	C7H7+
95.0492	69	C6H7O+
98.0152	32	C8H2+
99.023	24	C8H3+
100.0307	23	C8H4+
101.0384	2	C8H5+
102.0464	364	C8H6+
103.0542	3	C8H7+
105.0448	38	C6H5N2+
113.0386	60	C9H5+
114.0464	9	C9H6+
115.0543	935	C9H7+
119.0492	2	C8H7O+
125.0386	40	C10H5+
126.0465	341	C10H6+
127.0542	62	C10H7+
128.0621	191	C10H8+
129.0447	14	C8H5N2+
137.0386	15	C11H5+
138.0464	19	C11H6+
139.0543	419	C11H7+
140.0621	8	C11H8+
141.0699	17	C11H9+
145.0648	18	C10H9O+
149.0385	9	C12H5+
150.0465	302	C12H6+
151.0543	100	C12H7+
152.0621	351	C12H8+
155.0605	47	C10H7N2+
162.0466	14	C13H6+
163.0543	586	C13H7+
164.0621	378	C13H8+
165.0699	999	C13H9+
168.057	140	C12H8O+
169.0648	296	C12H9O+
179.0605	90	C12H7N2+
196.0521	48	C13H8O2+
