Mass spectrum: Ethaboxam; LC-ESI-QFT; MS2; CE: 90%; R=17500; [M+H]+
Name: Ethaboxam
Name: N-[cyano(thiophen-2-yl)methyl]-4-ethyl-2-(ethylamino)-1,3-thiazole-5-carboxamide
Formula: C14H16N4OS2
Exact mass: 320.0766
SMILES: CCC1=C(SC(=N1)NCC)C(=O)NC(C#N)C2=CC=CS2
InChI: InChI=1S/C14H16N4OS2/c1-3-9-12(21-14(18-9)16-4-2)13(19)17-10(8-15)11-6-5-7-20-11/h5-7,10H,3-4H2,1-2H3,(H,16,18)(H,17,19)
Instrument: Exploris 240 Orbitrap Thermo Scientific
Instrument type: LC-ESI-QFT
Ms type: MS2
Ion mode: POSITIVE
Ionization: ESI
Fragmentation mode: HCD
Collision energy: 90 % (nominal)
Resolution: 17500
Column name: XBridge C18 3.5um, 2.1x50mm, Waters
Retention time: 6.055 min
Base peak: 321.0838
Precursor m/z: 321.0838
Precursor type: [M+H]+
m/z	relative intensity	assigned
54.0339	32	C3H4N+
56.0495	101	C3H6N+
57.9872	31	C2H2S+
59.9902	42	CH2NS+
67.0416	47	C4H5N+
68.0495	999	C4H6N+
71.0604	188	C3H7N2+
72.0029	23	C3H4S+
81.0447	45	C4H5N2+
84.0028	187	C4H4S+
85.0106	844	C4H5S+
86.006	24	C3H4NS+
87.0264	47	C4H7S+
88.0216	62	C3H6NS+
95.0605	44	C5H7N2+
96.0446	110	C5H6NO+
98.0063	29	C4H4NS+
99.0136	176	C4H5NS+
100.0215	177	C4H6NS+
102.0373	56	C4H8NS+
110.0063	24	C5H4NS+
110.99	19	C5H3OS+
112.0218	68	C5H6NS+
113.0057	27	C5H5OS+
114.0249	43	C4H6N2S+
114.0373	85	C5H8NS+
122.006	103	C6H4NS+
125.0166	72	C5H5N2S+
126.0007	36	C5H4NOS+
126.0245	226	C5H6N2S+
127.0325	305	C5H7N2S+
128.0168	62	C5H6NOS+
128.0402	73	C5H8N2S+
129.048	138	C5H9N2S+
130.032	91	C5H8NOS+
139.0327	49	C6H7N2S+
141.0478	83	C6H9N2S+
143.0275	26	C5H7N2OS+
153.0116	165	C6H5N2OS+
153.0482	37	C7H9N2S+
154.0198	44	C6H6N2OS+
154.0434	31	C6H8N3S+
155.0277	108	C6H7N2OS+
155.0635	323	C7H11N2S+
157.0796	66	C7H13N2S+
170.0379	35	C6H8N3OS+
171.0464	26	C6H9N3OS+
172.0541	69	C6H10N3OS+
181.0427	186	C8H9N2OS+
183.059	108	C8H11N2OS+
184.0539	36	C7H10N3OS+
198.0695	119	C8H12N3OS+
200.0851	89	C8H14N3OS+
