Mass spectrum: Diaveridine; LC-ESI-QFT; MS2; CE: 15; R=35000; [M+H]+
Name: Diaveridine
Name: 5-[(3,4-dimethoxyphenyl)methyl]pyrimidine-2,4-diamine
Formula: C13H16N4O2
Exact mass: 260.12733
SMILES: COC1=C(C=C(C=C1)CC2=CN=C(N=C2N)N)OC
InChI: InChI=1S/C13H16N4O2/c1-18-10-4-3-8(6-11(10)19-2)5-9-7-16-13(15)17-12(9)14/h3-4,6-7H,5H2,1-2H3,(H4,14,15,16,17)
Instrument: Q Exactive Plus Orbitrap Thermo Scientific
Instrument type: LC-ESI-QFT
Ms type: MS2
Ion mode: POSITIVE
Ionization: ESI
Fragmentation mode: HCD
Collision energy: 15 (nominal)
Resolution: 35000
Column name: XBridge C18 3.5um, 2.1x50mm, Waters
Retention time: 3.4 min
Base peak: 261.1339
Precursor m/z: 261.1346
Precursor type: [M+H]+
m/z	relative intensity	assigned
123.0663	3	C5H7N4+
246.1103	1	C12H14N4O2+
261.1345	999	C13H17N4O2+
