Mass spectrum: Cefazolin; LC-ESI-QFT; MS2; CE: 60; R=35000; [M+H]+
Name: Cefazolin
Name: 3-[(5-methyl-1,3,4-thiadiazol-2-yl)sulfanylmethyl]-8-oxo-7-[[2-(tetrazol-1-yl)acetyl]amino]-5-thia-1-azabicyclo[4.2.0]oct-2-ene-2-carboxylic acid
Formula: C14H14N8O4S3
Exact mass: 454.03001
SMILES: CC1=NN=C(S1)SCC2=C(N3C(C(C3=O)NC(=O)CN4C=NN=N4)SC2)C(=O)O
InChI: InChI=1S/C14H14N8O4S3/c1-6-17-18-14(29-6)28-4-7-3-27-12-9(11(24)22(12)10(7)13(25)26)16-8(23)2-21-5-15-19-20-21/h5,9,12H,2-4H2,1H3,(H,16,23)(H,25,26)
Instrument: Q Exactive Plus Orbitrap Thermo Scientific
Instrument type: LC-ESI-QFT
Ms type: MS2
Ion mode: POSITIVE
Ionization: ESI
Fragmentation mode: HCD
Collision energy: 60 (nominal)
Resolution: 35000
Column name: XBridge C18 3.5um, 2.1x50mm, Waters
Retention time: 4.5 min
Base peak: 455.0367
Precursor m/z: 455.0373
Precursor type: [M+H]+
m/z	relative intensity	assigned
50.015	2	C4H2+
51.0229	4	C4H3+
52.0182	2	C3H2N+
53.0386	50	C4H5+
54.0338	37	C3H4N+
55.0291	241	C2H3N2+
56.0495	30	C3H6N+
57.0448	211	C2H5N2+
57.9746	3	CNS+
57.9872	12	C2H2S+
58.0288	9	C2H4NO+
58.995	42	C2H3S+
59.9665	4	COS+
59.9903	39	CH2NS+
62.0059	14	CH4NS+
65.0386	51	C5H5+
66.0339	88	C4H4N+
67.0291	4	C3H3N2+
67.0417	21	C4H5N+
67.0543	9	C5H7+
68.0495	270	C4H6N+
68.9794	13	C3HS+
69.0448	236	C3H5N2+
69.9746	12	C2NS+
70.0288	13	C3H4NO+
70.0401	2	C2H4N3+
70.0652	4	C4H8N+
70.995	44	C3H3S+
71.0353	46	CH3N4+
71.9903	43	C2H2NS+
72.0557	47	C2H6N3+
72.9981	90	C2H3NS+
73.0107	25	C3H5S+
74.0059	88	C2H4NS+
75.0138	16	C2H5NS+
78.0339	33	C5H4N+
79.029	2	C4H3N2+
79.0417	9	C5H5N+
80.0495	505	C5H6N+
81.0448	63	C4H5N2+
81.0573	42	C5H7N+
82.0288	32	C4H4NO+
82.04	16	C3H4N3+
82.0526	47	C4H6N2+
82.0652	23	C5H8N+
82.995	17	C4H3S+
83.024	5	C3H3N2O+
83.0478	18	C3H5N3+
83.0605	5	C4H7N2+
83.9903	21	C3H2NS+
84.0029	51	C4H4S+
84.0319	15	C3H4N2O+
84.0445	41	C4H6NO+
84.0557	204	C3H6N3+
84.9744	29	C3HOS+
85.0107	404	C4H5S+
85.0397	103	C3H5N2O+
86.0059	80	C3H4NS+
87.0139	16	C3H5NS+
87.0263	9	C4H7S+
89.0169	3	C2H5N2S+
90.034	48	C6H4N+
91.0417	14	C6H5N+
91.9624	30	CH2NS2+
92.0496	35	C6H6N+
93.0448	70	C5H5N2+
93.0574	41	C6H7N+
94.0401	23	C4H4N3+
94.0528	3	C5H6N2+
94.0653	15	C6H8N+
94.9953	8	C5H3S+
95.0241	10	C4H3N2O+
95.0605	163	C5H7N2+
96.0445	85	C5H6NO+
96.0557	428	C4H6N3+
97.0108	686	C5H5S+
97.0398	50	C4H5N2O+
97.9934	4	C3H2N2S+
98.0059	53	C4H4NS+
98.0185	12	C5H6S+
98.0238	15	C4H4NO2+
98.035	4	C3H4N3O+
98.0476	25	C4H6N2O+
99.0012	152	C3H3N2S+
99.0138	158	C4H5NS+
99.0263	57	C5H7S+
100.009	62	C3H4N2S+
100.0216	162	C4H6NS+
100.0506	197	C3H6N3O+
101.0057	29	C4H5OS+
101.0169	80	C3H5N2S+
102.0008	4	C3H4NOS+
102.0248	4	C3H6N2S+
102.0373	4	C4H8NS+
105.0448	71	C6H5N2+
106.0288	9	C6H4NO+
106.0526	132	C6H6N2+
107.0605	440	C6H7N2+
108.0558	30	C5H6N3+
108.0683	377	C6H8N2+
109.0108	15	C6H5S+
109.0762	53	C6H9N2+
110.0059	67	C5H4NS+
110.035	20	C4H4N3O+
110.0602	21	C6H8NO+
110.0713	5	C5H8N3+
110.9901	2	C5H3OS+
111.0012	21	C4H3N2S+
111.0138	10	C5H5NS+
111.0265	4	C6H7S+
111.0429	16	C4H5N3O+
111.0554	13	C5H7N2O+
111.0665	11	C4H7N4+
112.0216	568	C5H6NS+
112.0394	555	C5H6NO2+
112.0504	57	C4H6N3O+
113.0056	8	C5H5OS+
113.0169	69	C4H5N2S+
113.0294	29	C5H7NS+
114.0014	3	C4H4NOS+
114.0247	10	C4H6N2S+
114.0374	43	C5H8NS+
117.0448	4	C7H5N2+
118.0526	46	C7H6N2+
119.0605	367	C7H7N2+
120.0559	49	H12N2O3S+
120.0683	496	C7H8N2+
121.0399	8	C6H5N2O+
121.0638	8	C6H7N3+
121.0762	19	C7H9N2+
122.006	200	C6H4NS+
122.0715	27	C6H8N3+
123.0138	55	C6H5NS+
123.0555	15	C6H7N2O+
124.0217	746	C6H6NS+
124.0394	39	C6H6NO2+
124.0507	54	C5H6N3O+
125.0058	9	C6H5OS+
125.0169	30	C5H5N2S+
125.0295	16	C6H7NS+
126.0009	38	C5H4NOS+
126.0122	36	C4H4N3S+
126.0248	20	C5H6N2S+
126.0373	82	C6H8NS+
126.9961	12	C4H3N2OS+
127.02	154	C4H5N3S+
127.0326	10	C5H7N2S+
128.0168	33	C5H6NOS+
128.0278	231	C4H6N3S+
129.0006	22	C5H5O2S+
129.0119	17	C4H5N2OS+
129.0356	3	C4H7N3S+
130.0197	38	C4H6N2OS+
132.0558	58	C7H6N3+
132.989	999	C3H5N2S2+
133.0636	85	C7H7N3+
134.0061	5	C7H4NS+
134.0475	4	C7H6N2O+
134.0714	78	C7H8N3+
135.0553	22	C7H7N2O+
135.0792	11	C7H9N3+
136.0217	57	CH12O3S2+
136.0394	8	C7H6NO2+
136.0507	4	C6H6N3O+
136.0871	5	C7H10N3+
137.0169	66	C6H5N2S+
137.0345	5	C6H5N2O2+
138.0122	10	C5H4N3S+
138.0248	17	C6H6N2S+
139.0326	570	C6H7N2S+
140.0038	4	C5H4N2OS+
140.0165	55	C6H6NOS+
140.0278	27	C5H6N3S+
140.0404	19	C6H8N2S+
140.0453	5	C5H6N3O2+
141.0119	12	C5H5N2OS+
141.0482	74	C6H9N2S+
142.0324	20	C6H8NOS+
144.0115	55	C5H6NO2S+
144.0559	10	C8H6N3+
145.0637	20	C8H7N3+
146.0714	32	C8H8N3+
147.0552	3	C8H7N2O+
147.0666	21	C7H7N4+
147.0791	35	C8H9N3+
148.0508	13	C7H6N3O+
148.0631	4	C8H8N2O+
148.0743	11	C7H8N4+
149.0171	25	C7H5N2S+
149.0822	10	C7H9N4+
150.0009	9	C7H4NOS+
150.0249	22	C7H6N2S+
150.0664	5	C7H8N3O+
151.0326	326	C7H7N2S+
151.0501	24	C7H7N2O2+
152.0166	78	C7H6NOS+
153.0482	203	C7H9N2S+
154.0069	4	C5H4N3OS+
154.0434	5	C6H8N3S+
155.0149	15	C5H5N3OS+
155.0273	2	C6H7N2OS+
156.0115	837	C6H6NO2S+
157.0194	58	C6H7NO2S+
157.0306	12	C5H7N3OS+
158.0273	21	C6H8NO2S+
160.0744	2	C8H8N4+
161.017	4	C8H5N2S+
161.0823	76	C8H9N4+
162.0663	22	C8H8N3O+
162.0903	20	C8H10N4+
163.0326	32	C8H7N2S+
163.0741	4	C8H9N3O+
164.0278	42	C7H6N3S+
164.0579	5	C8H8N2O2+
164.082	2	C8H10N3O+
165.0118	14	C7H5N2OS+
165.0357	16	C7H7N3S+
166.0435	122	C7H8N3S+
167.0276	89	C7H7N2OS+
168.0116	34	C7H6NO2S+
168.0229	3	C6H6N3OS+
168.0594	5	C7H10N3S+
169.0436	3	CH15NO4S2+
172.0508	2	C9H6N3O+
177.012	3	C8H5N2OS+
177.0771	2	C8H9N4O+
178.0435	100	C8H8N3S+
179.0274	28	C8H7N2OS+
180.0588	16	C8H10N3S+
181.0441	3	C2H15NO4S2+
182.0386	11	C7H8N3OS+
189.0771	12	C9H9N4O+
192.0227	13	C8H6N3OS+
193.0068	19	C8H5N2O2S+
193.0541	4	C8H9N4S+
195.0228	26	CH7N8S2+
196.0531	2	C8H10N3OS+
206.0269	2	C3H8N7S2+
206.0386	8	C9H8N3OS+
208.0534	3	C9H10N3OS+
210.0337	5	C8H8N3O2S+
