Mass spectrum: Trimethoprim; LC-ESI-ITFT; MS2; CE: 35%; R=30000; [M+H]+
Name: Trimethoprim
Name: 2,4-Diamino-5-(3,4,5-trimethoxybenzyl)pyrimidine
Name: 5-[(3,4,5-trimethoxyphenyl)methyl]pyrimidine-2,4-diamine
Formula: C14H18N4O3
Exact mass: 290.1379
SMILES: c1(Cc2c(nc(N)nc2)N)cc(c(OC)c(c1)OC)OC
InChI: InChI=1S/C14H18N4O3/c1-19-10-5-8(6-11(20-2)12(10)21-3)4-9-7-17-14(16)18-13(9)15/h5-7H,4H2,1-3H3,(H4,15,16,17,18)
Instrument: LTQ Orbitrap XL Thermo Scientific
Instrument type: LC-ESI-ITFT
Ms type: MS2
Ion mode: POSITIVE
Ionization: ESI
Fragmentation mode: CID
Collision energy: 35 % (nominal)
Resolution: 30000
Column name: XBridge C18 3.5um, 2.1x50mm, Waters
Retention time: 3.8 min
Base peak: 291.1463
Precursor m/z: 291.1452
Precursor type: [M+H]+
m/z	relative intensity	assigned
106.0399	1	C5H4N3+
110.0586	2	C4H6N4+
123.0666	648	C5H7N4+
181.086	111	C10H13O3+
187.0972	1	C10H11N4+
201.0784	5	C12H11NO2+
201.1129	1	C11H13N4+
228.1005	2	C12H12N4O+
229.1089	5	C12H13N4O+
230.1165	999	C12H14N4O+
232.0969	10	C13H14NO3+
243.0879	1	C12H11N4O2+
244.0717	1	C12H10N3O3+
245.1033	60	C12H13N4O2+
246.1113	11	C12H14N4O2+
247.119	42	C12H15N4O2+
257.1032	6	C13H13N4O2+
258.1113	412	C13H14N4O2+
259.1189	15	C13H15N4O2+
260.1269	28	C13H16N4O2+
261.0984	457	C12H13N4O3+
275.114	223	C13H15N4O3+
276.1218	252	C13H16N4O3+
