Mass spectrum: Sulfotep; LC-ESI-QFT; MS2; CE: 120%; R=17500; [M+H]+
Name: Sulfotep
Name: diethoxyphosphinothioyloxy-diethoxy-sulfanylidene-lambda5-phosphane
Formula: C8H20O5P2S2
Exact mass: 322.0227
SMILES: CCOP(=S)(OCC)OP(=S)(OCC)OCC
InChI: InChI=1S/C8H20O5P2S2/c1-5-9-14(16,10-6-2)13-15(17,11-7-3)12-8-4/h5-8H2,1-4H3
Instrument: Exploris 240 Orbitrap Thermo Scientific
Instrument type: LC-ESI-QFT
Ms type: MS2
Ion mode: POSITIVE
Ionization: ESI
Fragmentation mode: HCD
Collision energy: 120 % (nominal)
Resolution: 17500
Column name: XBridge C18 3.5um, 2.1x50mm, Waters
Retention time: 10.996 min
Base peak: 284.0713
Precursor m/z: 323.03
Precursor type: [M+H]+
m/z	relative intensity	assigned
64.9787	254	H2O2P+
78.9402	237	OPS+
80.9736	80	H2O3P+
94.9174	18	PS2+
96.9507	999	H2O2PS+
98.9841	111	H4O4P+
110.9662	37	CH4O2PS+
114.9613	401	H4O3PS+
128.9772	17	CH6O3PS+
