Mass spectrum: 4-Chlorobenzophenone; LC-ESI-QFT; MS2; CE: 120; R=35000; [M+H]+
Name: 4-Chlorobenzophenone
Name: 4-Chlorobenzophenon
Name: (4-chlorophenyl)-phenylmethanone
Formula: C13H9ClO
Exact mass: 216.03419
SMILES: C1=CC=C(C=C1)C(=O)C2=CC=C(C=C2)Cl
InChI: InChI=1S/C13H9ClO/c14-12-8-6-11(7-9-12)13(15)10-4-2-1-3-5-10/h1-9H
Instrument: Q Exactive Plus Orbitrap Thermo Scientific
Instrument type: LC-ESI-QFT
Ms type: MS2
Ion mode: POSITIVE
Ionization: ESI
Fragmentation mode: HCD
Collision energy: 120 (nominal)
Resolution: 35000
Column name: XBridge C18 3.5um, 2.1x50mm, Waters
Retention time: 12.2 min
Base peak: 217.0415
Precursor m/z: 217.0415
Precursor type: [M+H]+
m/z	relative intensity	assigned
50.0151	58	C4H2+
51.0229	31	C4H3+
53.0022	56	C3HO+
53.0386	83	C4H5+
55.0179	12	C3H3O+
55.0542	6	C4H7+
60.9839	3	C2H2Cl+
65.0022	2	C4HO+
65.0386	16	C5H5+
74.0151	91	C6H2+
75.0229	999	C6H3+
76.0307	13	C6H4+
77.0385	221	C6H5+
79.0178	12	C5H3O+
80.0257	8	C5H4O+
81.0335	8	C5H5O+
84.984	73	C4H2Cl+
86.9996	89	C4H4Cl+
93.0336	33	C6H5O+
94.0413	16	C6H6O+
95.0492	375	C6H7O+
98.0362	2	C5H6O2+
105.0336	40	C7H5O+
105.0448	192	C6H5N2+
108.0206	2	C6H4O2+
109.0648	1	C7H9O+
110.9996	208	C6H4Cl+
111.0441	18	C6H7O2+
114.9946	9	C5H4ClO+
121.0395	5	C6H5N2O+
128.0023	3	C6H5ClO+
129.0102	368	C6H6ClO+
138.9948	57	C7H4ClO+
139.0058	793	C6H4ClN2+
140.0029	5	C7H5ClO+
