Mass spectrum: Oxytetracycline; LC-ESI-QFT; MS2; CE: 120; R=35000; [M-H]-
Name: Oxytetracycline
Name: (4S,4aR,5S,5aR,6S,12aS)-4-(Dimethylamino)-3,5,6,10,12,12a-hexahydroxy-6-methyl-1,11-dioxo-1,4,4a,5,5a,6,11,12a-octahydro-2-tetracenecarboxamide
Name: 2-carbamoyl-4-(dimethylazaniumyl)-5,6,10,11,12a-pentahydroxy-6-methyl-3,12-dioxo-4,4a,5,5a-tetrahydrotetracen-1-olate
Formula: C22H24N2O9
Exact mass: 460.14818
SMILES: CC1(C2C(C3C(C(=O)C(=C(C3(C(=O)C2=C(C4=C1C=CC=C4O)O)O)O)C(=O)N)N(C)C)O)O
InChI: InChI=1S/C22H24N2O9/c1-21(32)7-5-4-6-8(25)9(7)15(26)10-12(21)17(28)13-14(24(2)3)16(27)11(20(23)31)19(30)22(13,33)18(10)29/h4-6,12-14,17,25-26,28,30,32-33H,1-3H3,(H2,23,31)
Instrument: Q Exactive Plus Orbitrap Thermo Scientific
Instrument type: LC-ESI-QFT
Ms type: MS2
Ion mode: NEGATIVE
Ionization: ESI
Fragmentation mode: HCD
Collision energy: 120 (nominal)
Resolution: 35000
Column name: XBridge C18 3.5um, 2.1x50mm, Waters
Retention time: 4.3 min
Base peak: 459.1405
Precursor m/z: 459.1409
Precursor type: [M-H]-
m/z	relative intensity	assigned
50.0036	98	C3N-
51.0239	70	C4H3-
53.0032	58	C3HO-
55.0189	132	C3H3O-
57.0345	11	C3H5O-
59.0139	10	C2H3O2-
63.024	152	C5H3-
64.0192	19	C4H2N-
65.0033	389	C4HO-
65.0397	301	C5H5-
65.9985	833	C3NO-
67.019	135	C4H3O-
68.0142	90	C3H2NO-
68.9982	789	C3HO2-
69.0346	129	C4H5O-
71.0139	57	C3H3O2-
75.0241	30	C6H3-
76.0193	20	C5H2N-
78.0348	35	C5H4N-
79.0189	125	C5H3O-
81.0345	50	C5H5O-
82.0061	64	C4H2O2-
82.0298	9	C4H4NO-
83.0138	57	C4H3O2-
84.0091	152	C3H2NO2-
89.0397	155	C7H5-
90.0348	59	C6H4N-
91.0189	287	C6H3O-
91.0552	15	C7H7-
92.0143	20	C5H2NO-
92.0267	107	C6H4O-
93.0345	925	C6H5O-
95.0138	412	C5H3O2-
96.0091	282	C4H2NO2-
96.9931	52	C4HO3-
97.0295	75	C5H5O2-
101.0396	44	C8H5-
103.0551	14	C8H7-
106.0297	8	C6H4NO-
107.0137	18	C6H3O2-
107.0502	15	C7H7O-
108.0217	578	C6H4O2-
109.0295	263	C6H5O2-
113.0399	13	C9H5-
115.0554	87	C9H7-
117.0346	613	C8H5O-
118.0298	19	C7H4NO-
119.0137	19	C7H3O2-
119.0501	48	C8H7O-
120.0089	53	C6H2NO2-
121.0295	77	C7H5O2-
122.0247	41	C6H4NO2-
123.0088	189	C6H3O3-
123.0451	15	C7H7O2-
124.0165	38	C6H4O3-
124.0403	9	C6H6NO2-
129.0346	14	C9H5O-
130.0423	278	C9H6O-
131.0503	120	C9H7O-
132.0215	16	C8H4O2-
133.0171	18	C7H3NO2-
133.0296	20	C8H5O2-
134.0248	165	C7H4NO2-
134.0376	9	C8H6O2-
135.0452	525	C8H7O2-
139.0149	101	C5H3N2O3-
139.0552	43	C11H7-
141.0345	66	C10H5O-
143.0502	646	C10H7O-
144.0579	208	C10H8O-
145.0295	335	C9H5O2-
145.0657	45	C10H9O-
146.0249	9	C8H4NO2-
147.0198	18	C7H3N2O2-
147.0449	48	C9H7O2-
148.0041	88	C7H2NO3-
149.0118	38	C7H3NO3-
150.0195	16	C7H4NO3-
152.063	12	C12H8-
154.0425	51	C11H6O-
155.0503	53	C11H7O-
156.0579	44	C11H8O-
157.0293	13	C10H5O2-
157.0656	41	C11H9O-
158.0373	394	C10H6O2-
159.0451	248	C10H7O2-
161.0245	211	C9H5O3-
161.061	12	C10H9O2-
162.0198	72	C8H4NO3-
163.0551	20	C13H7-
165.0706	12	C13H9-
167.0502	245	C12H7O-
168.0578	49	C12H8O-
169.0293	49	C11H5O2-
169.0659	195	C12H9O-
170.0371	12	C11H6O2-
171.0452	999	C11H7O2-
172.053	150	C11H8O2-
173.0243	219	C10H5O3-
173.0607	366	C11H9O2-
174.0322	136	C10H6O3-
175.04	21	C10H7O3-
179.0502	31	C13H7O-
180.058	143	C13H8O-
181.0656	75	C13H9O-
182.0373	163	C12H6O2-
183.045	216	C12H7O2-
183.081	15	C13H11O-
184.0528	13	C12H8O2-
185.024	11	C11H5O3-
185.0604	45	C12H9O2-
187.0401	324	C11H7O3-
191.05	60	C14H7O-
193.0662	22	C14H9O-
195.045	205	C13H7O2-
196.0528	141	C13H8O2-
197.0607	130	C13H9O2-
198.0318	15	C12H6O3-
199.0399	44	C12H7O3-
199.076	15	C13H11O2-
201.0551	39	C12H9O3-
204.0579	21	C15H8O-
207.0448	64	C14H7O2-
208.0529	80	C14H8O2-
209.0607	170	C14H9O2-
210.0319	45	C13H6O3-
211.04	162	C13H7O3-
211.0762	11	C14H11O2-
213.0563	9	C13H9O3-
219.0447	15	C15H7O2-
220.053	10	C15H8O2-
221.0602	10	C15H9O2-
223.0398	34	C14H7O3-
223.0759	9	C15H11O2-
224.0478	244	C14H8O3-
225.0558	107	C14H9O3-
226.027	74	C13H6O4-
227.0354	63	C13H7O4-
232.0531	9	C16H8O2-
233.0601	42	C16H9O2-
235.0396	51	C15H7O3-
237.0553	47	C15H9O3-
239.0349	38	C14H7O4-
253.0502	59	C15H9O4-
255.0297	74	C14H7O5-
