Mass spectrum: Propyzamide; LC-ESI-QFT; MS2; CE: 90; R=35000; [M+H]+
Name: Propyzamide
Name: 3,5-bis(chloranyl)-N-(2-methylbut-3-yn-2-yl)benzamide
Name: Promamide
Formula: C12H11Cl2NO
Exact mass: 255.02177
SMILES: Clc1cc(C(=O)NC(C#C)(C)C)cc(Cl)c1
InChI: InChI=1S/C12H11Cl2NO/c1-4-12(2,3)15-11(16)8-5-9(13)7-10(14)6-8/h1,5-7H,2-3H3,(H,15,16)
Instrument: Q Exactive Orbitrap Thermo Scientific
Instrument type: LC-ESI-QFT
Ms type: MS2
Ion mode: POSITIVE
Ionization: ESI
Fragmentation mode: HCD
Collision energy: 90 (nominal)
Resolution: 35000
Column name: XBridge C18 3.5um, 2.1x50mm, Waters
Retention time: 11.0 min
Base peak: 256.0295
Precursor m/z: 256.029
Precursor type: [M+H]+
m/z	relative intensity	assigned
53.0025	11	ClH4N+
57.0701	1	C4H9+
62.9633	7	CClO+
65.0387	102	C5H5+
67.0543	80	C5H7+
67.9894	5	C3O2+
74.0151	26	C6H2+
75.0229	8	C6H3+
84.984	65	C4H2Cl+
86.9633	77	C3ClO+
86.9996	4	C4H4Cl+
98.9997	4	C5H4Cl+
108.984	237	C6H2Cl+
109.9918	4	C6H3Cl+
110.9997	7	C6H4Cl+
112.9789	11	C5H2ClO+
113.9868	1	C5H3ClO+
120.9608	27	C4H3Cl2+
126.9946	45	C6H4ClO+
128.0024	45	C6H5ClO+
129.0103	19	C6H6ClO+
139.0058	59	C9HNO+
144.9607	128	C6H3Cl2+
145.0051	10	C3H9Cl2NO+
146.9763	7	C6H5Cl2+
148.9558	1	C5H3Cl2O+
162.9712	122	C6H5Cl2O+
171.9718	16	C7H4Cl2N+
172.956	255	C7H3Cl2O+
172.9668	999	C9ClNO+
173.9639	4	C7H4Cl2O+
189.9825	1	C7H6Cl2NO+
