Mass spectrum: Metolachlor-TP SYN547977; LC-ESI-QFT; MS2; CE: 150%; R=17500; [M+H]+
Name: Metolachlor-TP SYN547977
Formula: C15H20ClNO3
Exact mass: 297.1132
SMILES: ClCC(=O)N(C(C)COC)c1c(C)cccc1C(C)=O
InChI: InChI=1S/C15H20ClNO3/c1-10-6-5-7-13(12(3)18)15(10)17(14(19)8-16)11(2)9-20-4/h5-7,11H,8-9H2,1-4H3
Instrument: Exploris 240 Orbitrap Thermo Scientific
Instrument type: LC-ESI-QFT
Ms type: MS2
Ion mode: POSITIVE
Ionization: ESI
Fragmentation mode: HCD
Collision energy: 150 % (nominal)
Resolution: 17500
Column name: XBridge C18 3.5um, 2.1x50mm, Waters
Retention time: 6.762 min
Base peak: 298.1202
Precursor m/z: 298.1204
Precursor type: [M+H]+
m/z	relative intensity	assigned
51.023	226	C4H3+
53.0387	193	C4H5+
65.0387	378	C5H5+
77.0386	999	C6H5+
79.0542	655	C6H7+
89.0387	149	C7H5+
90.0463	118	C7H6+
91.0543	971	C7H7+
93.0574	218	C6H7N+
95.0491	543	C6H7O+
103.0542	384	C8H7+
105.07	198	C8H9+
106.0652	169	C7H8N+
115.0543	737	C9H7+
116.0619	142	C9H8+
117.0572	542	C8H7N+
118.0654	144	C8H8N+
128.062	206	C10H8+
129.0702	142	C10H9+
130.0652	509	C9H8N+
131.0731	75	C9H9N+
142.0654	214	C10H8N+
144.0809	87	C10H10N+
154.0656	175	C11H8N+
156.0808	535	C11H10N+
157.0885	312	C11H11N+
170.0966	79	C12H12N+
