Mass spectrum: Rivastigmine; LC-ESI-QFT; MS2; CE: 45; R=35000; [M+H]+
Name: Rivastigmine
Name: N-ethyl-N-methyl-carbamic acid [3-[(1S)-1-(dimethylamino)ethyl]phenyl] ester
Formula: C14H22N2O2
Exact mass: 250.16813
SMILES: O=C(Oc1cc(ccc1)[C@@H](N(C)C)C)N(CC)C
InChI: InChI=1S/C14H22N2O2/c1-6-16(5)14(17)18-13-9-7-8-12(10-13)11(2)15(3)4/h7-11H,6H2,1-5H3/t11-/m0/s1
Instrument: Q Exactive Orbitrap Thermo Scientific
Instrument type: LC-ESI-QFT
Ms type: MS2
Ion mode: POSITIVE
Ionization: ESI
Fragmentation mode: HCD
Collision energy: 45 (nominal)
Resolution: 35000
Column name: XBridge C18 3.5um, 2.1x50mm, Waters
Retention time: 5.0 min
Base peak: 251.1756
Precursor m/z: 251.1754
Precursor type: [M+H]+
m/z	relative intensity	assigned
56.0495	2	C3H6N+
58.0288	197	C2H4NO+
58.0652	19	C3H8N+
79.0542	3	C6H7+
86.06	999	C4H8NO+
93.0698	15	C7H9+
105.0699	18	C8H9+
107.0855	4	C8H11+
114.055	2	C5H8NO2+
121.0648	14	C8H9O+
121.1011	16	C9H13+
131.0856	5	C10H11+
135.0804	6	C9H11O+
149.0598	11	C9H9O2+
149.096	5	C10H13O+
162.1275	2	C11H16N+
178.1224	4	C11H16NO+
206.1176	683	C12H16NO2+
224.1282	5	C12H18NO3+
