Mass spectrum: Phosmet; LC-ESI-QFT; MS2; CE: 90; R=35000; [M+H]+
Name: Phosmet
Name: Fosmet
Name: 2-(dimethoxyphosphinothioylsulfanylmethyl)isoindole-1,3-dione
Formula: C11H12NO4PS2
Exact mass: 316.99454
SMILES: COP(=S)(OC)SCN1C(=O)C2=CC=CC=C2C1=O
InChI: InChI=1S/C11H12NO4PS2/c1-15-17(18,16-2)19-7-12-10(13)8-5-3-4-6-9(8)11(12)14/h3-6H,7H2,1-2H3
Instrument: Q Exactive Orbitrap Thermo Scientific
Instrument type: LC-ESI-QFT
Ms type: MS2
Ion mode: POSITIVE
Ionization: ESI
Fragmentation mode: HCD
Collision energy: 90 (nominal)
Resolution: 35000
Column name: XBridge C18 3.5um, 2.1x50mm, Waters
Retention time: 9.5 min
Base peak: 149.0234
Precursor m/z: 318.0018
Precursor type: [M+H]+
m/z	relative intensity	assigned
50.0152	21	C4H2+
51.023	35	C4H3+
53.0387	34	C4H5+
67.0542	32	C5H7+
76.0307	5	C6H4+
77.0386	159	C6H5+
81.0335	34	C5H5O+
92.0256	43	C6H4O+
92.0368	14	C5H4N2+
95.0492	890	C6H7O+
104.0257	9	C7H4O+
104.0495	130	C7H6N+
105.0336	683	C7H5O+
105.0447	175	C6H5N2+
120.0442	36	C7H6NO+
130.0289	136	C8H4NO+
130.04	68	C7H4N3+
132.0442	63	C8H6NO+
133.0284	999	C8H5O2+
160.0393	671	C9H6NO2+
