Mass spectrum: Hydrocortisone; LC-ESI-QFT; MS2; CE: 120; R=35000; [M+H]+
Name: (8S,9S,10R,11S,13S,14S,17R)-11,17-dihydroxy-17-(2-hydroxyacetyl)-10,13-dimethyl-2,6,7,8,9,11,12,14,15,16-decahydro-1H-cyclopenta[a]phenanthren-3-one
Name: Cortisol
Name: Hydrocortisone
Formula: C21H30O5
Exact mass: 362.20932
SMILES: C[C@]12CCC(=O)C=C1CC[C@@H]3[C@@H]2[C@H](C[C@]4([C@H]3CC[C@@]4(C(=O)CO)O)C)O
InChI: InChI=1S/C21H30O5/c1-19-7-5-13(23)9-12(19)3-4-14-15-6-8-21(26,17(25)11-22)20(15,2)10-16(24)18(14)19/h9,14-16,18,22,24,26H,3-8,10-11H2,1-2H3/t14-,15-,16-,18+,19-,20-,21-/m0/s1
Instrument: Q Exactive Plus Orbitrap Thermo Scientific
Instrument type: LC-ESI-QFT
Ms type: MS2
Ion mode: POSITIVE
Ionization: ESI
Fragmentation mode: HCD
Collision energy: 120 (nominal)
Resolution: 35000
Column name: XBridge C18 3.5um, 2.1x50mm, Waters
Retention time: 7.7 min
Base peak: 363.2164
Precursor m/z: 363.2166
Precursor type: [M+H]+
m/z	relative intensity	assigned
50.0151	23	C4H2+
51.0229	20	C4H3+
53.0022	19	C3HO+
53.0386	151	C4H5+
53.9975	3	C2NO+
55.0179	83	C3H3O+
55.0543	107	C4H7+
57.0335	16	C3H5O+
63.0228	7	C5H3+
65.0386	194	C5H5+
66.0464	10	C5H6+
67.0542	168	C5H7+
67.9893	1	C3O2+
68.9971	1	C3HO2+
69.0335	12	C4H5O+
69.0699	21	C5H9+
71.0491	2	C4H7O+
75.0228	2	C6H3+
76.0305	1	C6H4+
77.0385	151	C6H5+
78.0464	38	C6H6+
79.0542	431	C6H7+
80.062	7	C6H8+
81.0336	25	C5H5O+
81.0699	88	C6H9+
82.0414	3	C5H6O+
83.0491	56	C5H7O+
89.0386	7	C7H5+
90.0464	1	C7H6+
91.0543	999	C7H7+
92.0621	8	C7H8+
93.0699	89	C7H9+
94.0414	18	C6H6O+
95.0492	420	C6H7O+
95.0855	23	C7H11+
96.0567	1	C6H8O+
97.0648	78	C6H9O+
99.044	4	C5H7O2+
102.0465	14	C8H6+
103.0542	153	C8H7+
104.062	28	C8H8+
105.0448	219	C6H5N2+
105.0699	315	C8H9+
107.0492	49	C7H7O+
107.0854	11	C8H11+
108.057	8	C7H8O+
109.0648	38	C7H9O+
115.0543	412	C9H7+
116.0621	91	C9H8+
117.0699	143	C9H9+
118.0776	3	C9H10+
119.0493	3	C8H7O+
119.0605	4	C7H7N2+
119.0856	65	C9H11+
120.0569	2	C8H8O+
121.0649	92	C8H9O+
123.0804	14	C8H11O+
126.0466	4	C10H6+
127.0543	29	C10H7+
128.0621	472	C10H8+
129.0699	242	C10H9+
130.0778	43	C10H10+
131.0491	26	C9H7O+
131.0856	53	C10H11+
132.0571	8	C9H8O+
132.0936	1	C10H12+
133.0648	23	C9H9O+
133.1012	3	C10H13+
135.0805	2	C9H11O+
139.0542	5	C11H7+
140.0621	4	C11H8+
141.0699	251	C11H9+
142.0778	68	C11H10+
143.0856	38	C11H11+
144.0571	14	C10H8O+
144.0933	5	C11H12+
145.0648	52	C10H9O+
145.1014	10	C11H13+
146.0726	5	C10H10O+
147.0805	28	C10H11O+
148.0883	14	C10H12O+
151.0543	1	C12H7+
152.0621	100	C12H8+
153.0699	155	C12H9+
154.0778	44	C12H10+
155.0604	65	C10H7N2+
155.0856	57	C12H11+
156.0935	9	C12H12+
157.0649	16	C11H9O+
157.1013	6	C12H13+
158.0727	4	C11H10O+
159.0804	10	C11H11O+
161.0957	1	C11H13O+
164.0621	1	C13H8+
165.07	190	C13H9+
166.0778	36	C13H10+
167.0856	61	C13H11+
168.0569	2	C12H8O+
168.0935	13	C13H12+
169.065	13	C12H9O+
169.0761	1	C11H9N2+
169.101	11	C13H13+
170.0727	1	C12H10O+
170.1087	1	C13H14+
171.0804	3	C12H11O+
171.1167	2	C13H15+
173.0961	2	C12H13O+
174.1038	1	C12H14O+
176.0618	1	C14H8+
177.07	5	C14H9+
178.0777	91	C14H10+
179.0856	50	C14H11+
180.0935	8	C14H12+
181.0649	12	C13H9O+
181.1012	16	C14H13+
182.0726	2	C13H10O+
182.1088	1	C14H14+
183.0806	5	C13H11O+
183.1167	6	C14H15+
189.07	16	C15H9+
190.0778	17	C15H10+
191.0856	33	C15H11+
192.0934	11	C15H12+
193.1012	14	C15H13+
194.0728	2	C14H10O+
195.0804	4	C14H11O+
195.117	1	C15H15+
197.0963	2	C14H13O+
202.0777	15	C16H10+
203.0854	12	C16H11+
204.0935	4	C16H12+
205.1013	6	C16H13+
207.0808	1	C15H11O+
209.1325	1	C16H17+
211.112	1	C15H15O+
215.0857	5	C17H11+
217.1009	1	C17H13+
226.078	1	C18H10+
237.1276	1	C17H17O+
