Mass spectrum: 1-(Methoxymethyl)-1H-benzotriazole; LC-ESI-QFT; MS2; CE: 75; R=35000; [M+H]+
Name: 1-(Methoxymethyl)-1H-benzotriazole
Name: 1-(methoxymethyl)benzotriazole
Formula: C8H9N3O
Exact mass: 163.07456
SMILES: n1nn(c2ccccc12)COC
InChI: InChI=1S/C8H9N3O/c1-12-6-11-8-5-3-2-4-7(8)9-10-11/h2-5H,6H2,1H3
Instrument: Q Exactive Plus Orbitrap Thermo Scientific
Instrument type: LC-ESI-QFT
Ms type: MS2
Ion mode: POSITIVE
Ionization: ESI
Fragmentation mode: HCD
Collision energy: 75 (nominal)
Resolution: 35000
Column name: XBridge C18 3.5um, 2.1x50mm, Waters
Retention time: 5.4 min
Base peak: 164.0818
Precursor m/z: 164.0818
Precursor type: [M+H]+
m/z	relative intensity	assigned
50.0151	14	C4H2+
51.023	53	C4H3+
53.0386	167	C4H5+
55.0178	8	C3H3O+
65.0386	61	C5H5+
66.0464	4	C5H6+
77.0386	368	C6H5+
78.0339	15	C5H4N+
78.0464	90	C6H6+
79.0543	402	C6H7+
80.0497	3	C5H6N+
81.0335	13	C5H5O+
91.0417	56	C6H5N+
91.0545	3	C7H7+
93.0573	29	C6H7N+
94.0412	3	C6H6O+
95.0492	586	C6H7O+
96.0445	18	C5H6NO+
104.0495	132	C7H6N+
105.0448	322	C6H5N2+
106.0652	268	C7H8N+
119.0475	2	C6H5N3+
120.0445	87	C7H6NO+
121.0524	5	C7H7NO+
132.0558	46	C7H6N3+
134.0713	999	C7H8N3+
164.0817	3	C8H10N3O+
