Mass spectrum: Flunitrazepam; LC-ESI-QFT; MS2; CE: 60; R=35000; [M+H]+
Name: Flunitrazepam
Name: 5-(2-fluorophenyl)-1-methyl-7-nitro-3H-1,4-benzodiazepin-2-one
Formula: C16H12FN3O3
Exact mass: 313.08627
SMILES: CN1C(=O)CN=C(C2=C1C=CC(=C2)[N+](=O)[O-])C3=CC=CC=C3F
InChI: InChI=1S/C16H12FN3O3/c1-19-14-7-6-10(20(22)23)8-12(14)16(18-9-15(19)21)11-4-2-3-5-13(11)17/h2-8H,9H2,1H3
Instrument: Q Exactive Plus Orbitrap Thermo Scientific
Instrument type: LC-ESI-QFT
Ms type: MS2
Ion mode: POSITIVE
Ionization: ESI
Fragmentation mode: HCD
Collision energy: 60 (nominal)
Resolution: 35000
Column name: XBridge C18 3.5um, 2.1x50mm, Waters
Retention time: 7.9 min
Base peak: 314.0927
Precursor m/z: 314.0935
Precursor type: [M+H]+
m/z	relative intensity	assigned
53.0385	1	C4H5+
58.0287	15	C2H4NO+
65.0386	3	C5H5+
80.0493	6	C5H6N+
89.0386	1	C7H5+
90.0465	7	C7H6+
91.0542	2	C7H7+
92.0496	4	C6H6N+
93.0573	2	C6H7N+
94.0651	9	C6H8N+
104.0494	8	C7H6N+
105.0572	1	C7H7N+
106.0651	2	C7H8N+
107.0729	20	C7H9N+
109.0448	22	C7H6F+
117.0572	14	C8H7N+
118.0651	37	C8H8N+
119.073	126	C8H9N+
120.0444	2	C7H6NO+
120.0682	4	C7H8N2+
122.0399	4	C7H5FN+
123.024	26	C7H4FO+
131.0604	6	C8H7N2+
132.0444	4	C8H6NO+
133.0519	3	C8H7NO+
134.04	5	C8H5FN+
134.0599	1	C8H8NO+
135.0679	1	C8H9NO+
143.0604	17	C9H7N2+
144.0683	11	C9H8N2+
145.0522	8	C9H7NO+
145.076	10	C9H9N2+
146.0601	2	C9H8NO+
147.0678	50	C9H9NO+
148.0395	3	C8H6NO2+
150.0185	2	C7H4NO3+
151.0628	10	C8H9NO2+
162.0351	2	C9H5FNO+
164.0619	4	C8H7FN3+
165.0652	18	C8H9N2O2+
166.0777	1	C13H10+
170.0526	24	C12H7F+
172.0629	4	C10H8N2O+
173.0712	2	C10H9N2O+
174.0591	2	C10H7FN2+
176.058	1	C9H8N2O2+
179.0576	17	C9H9NO3+
179.0727	3	C13H9N+
180.0809	3	C13H10N+
182.0525	5	C13H7F+
182.0964	2	C13H12N+
183.0605	75	C13H8F+
184.0682	13	C13H9F+
185.0636	5	C12H8FN+
185.076	3	C13H10F+
186.0711	3	C12H9FN+
190.062	5	C9H8N3O2+
191.0452	5	C9H7N2O3+
191.0727	6	C14H9N+
192.0808	11	C14H10N+
193.0607	6	C9H9N2O3+
193.0754	1	C13H9N2+
193.0887	10	C14H11N+
194.0965	2	C14H12N+
196.0559	1	C13H7FN+
197.0636	122	C13H8FN+
198.0714	71	C13H9FN+
199.0553	7	C13H8FO+
199.0792	19	C13H10FN+
200.0632	1	C13H9FO+
200.087	6	C13H11FN+
201.0535	2	C10H7N3O2+
204.0811	3	C15H10N+
205.0762	70	C14H9N2+
206.0837	3	C14H10N2+
208.0556	4	C14H7FN+
208.0995	1	C14H12N2+
209.0639	5	C14H8FN+
209.1073	4	C14H13N2+
210.0714	98	C14H9FN+
211.0793	249	C14H10FN+
212.0871	128	C14H11FN+
213.0588	1	C13H8FNO+
213.0823	26	C13H10FN2+
213.0947	15	C14H12FN+
214.0663	12	C13H9FNO+
218.0842	1	C15H10N2+
219.0917	65	C15H11N2+
220.0995	24	C15H12N2+
221.1074	97	C15H13N2+
222.0714	47	C15H9FN+
223.0666	9	C14H8FN2+
223.0793	6	C15H10FN+
224.0745	25	C14H9FN2+
224.0869	8	C15H11FN+
225.0823	88	C14H10FN2+
226.0663	4	C14H9FNO+
226.0898	4	C14H11FN2+
227.0744	6	C14H10FNO+
227.0979	66	C14H12FN2+
228.082	25	C14H11FNO+
228.1056	8	C14H13FN2+
235.0871	3	C15H11N2O+
237.0824	8	C15H10FN2+
237.1024	1	C15H13N2O+
238.0666	6	C15H9FNO+
238.0902	22	C15H11FN2+
239.0979	874	C15H12FN2+
240.0693	12	C14H9FN2O+
240.1057	191	C15H13FN2+
241.0771	5	C14H10FN2O+
241.0898	2	C15H12FNO+
243.0692	13	C14H10FNO2+
243.0923	8	C14H12FN2O+
245.0727	1	C13H10FN2O2+
245.0848	3	C14H12FNO2+
246.0564	1	C13H9FNO3+
247.0865	2	C16H11N2O+
249.1026	4	C16H13N2O+
253.0771	4	C15H10FN2O+
255.0928	12	C15H12FN2O+
256.0638	4	C14H9FN2O2+
256.1008	5	C15H13FN2O+
257.0721	16	C14H10FN2O2+
267.0929	62	C16H12FN2O+
268.1006	999	C16H13FN2O+
270.0673	18	C14H9FN3O2+
270.0802	6	C15H11FN2O2+
271.0873	8	C15H12FN2O2+
272.0955	43	C15H13FN2O2+
283.0876	13	C16H12FN2O2+
284.0958	1	C16H13FN2O2+
286.0987	22	C15H13FN3O2+
300.0905	383	C16H13FN2O3+
314.0936	59	C16H13FN3O3+
