Mass spectrum: Iomeprol; LC-ESI-ITFT; MS2; CE: 90%; R=7500; [M+H]+
Name: Iomeprol
Name: 1-N,3-N-bis(2,3-dihydroxypropyl)-5-[(2-hydroxyacetyl)-methylamino]-2,4,6-triiodobenzene-1,3-dicarboxamide
Formula: C17H22I3N3O8
Exact mass: 776.8541
SMILES: Ic1c(c(I)c(c(I)c1N(C)C(=O)CO)C(=O)NCC(O)CO)C(=O)NCC(O)CO
InChI: InChI=1S/C17H22I3N3O8/c1-23(9(29)6-26)15-13(19)10(16(30)21-2-7(27)4-24)12(18)11(14(15)20)17(31)22-3-8(28)5-25/h7-8,24-28H,2-6H2,1H3,(H,21,30)(H,22,31)
Instrument: LTQ Orbitrap XL Thermo Scientific
Instrument type: LC-ESI-ITFT
Ms type: MS2
Ion mode: POSITIVE
Ionization: ESI
Fragmentation mode: HCD
Collision energy: 90 % (nominal)
Resolution: 7500
Column name: XBridge C18 3.5um, 2.1x50mm, Waters
Retention time: 1.6 min
Base peak: 132.9578
Precursor m/z: 777.8614
Precursor type: [M+H]+
m/z	relative intensity	assigned
63.023	49	C5H3+
66.0339	65	C4H4N+
72.0443	47	C3H6NO+
76.0181	90	C5H2N+
76.0307	48	C6H4+
79.0416	122	C5H5N+
80.0497	49	C5H6N+
90.0338	122	C6H4N+
91.0417	241	C6H5N+
92.0495	138	C6H6N+
103.0417	129	C7H5N+
104.0495	186	C7H6N+
106.0287	106	C6H4NO+
108.0447	71	C6H6NO+
114.0337	44	C8H4N+
118.0288	263	C7H4NO+
119.0365	385	C7H5NO+
120.044	129	C7H6NO+
130.0281	60	C8H4NO+
131.0363	106	C8H5NO+
132.0443	295	C8H6NO+
146.0236	391	C8H4NO2+
147.031	59	C8H5NO2+
148.039	68	C8H6NO2+
160.0388	160	C9H6NO2+
161.047	345	C9H7NO2+
162.0183	60	C8H4NO3+
162.0552	177	C9H8NO2+
164.0339	62	C8H6NO3+
177.0417	176	C9H7NO3+
188.9194	237	C5H2I+
193.0369	201	C9H7NO4+
195.052	48	C9H9NO4+
217.9453	137	C6H5IN+
245.9398	113	C7H5INO+
257.9409	519	C8H5INO+
287.9514	999	C9H7INO2+
613.922	36	C12H18I2N5O8+
