Mass spectrum: Didanosine; LC-ESI-QFT; MS2; CE: 90; R=35000; [M+H]+
Name: Didanosine
Name: 9-[(2R,5S)-5-(hydroxymethyl)-2-oxolanyl]-3H-purin-6-one
Formula: C10H12N4O3
Exact mass: 236.09094
SMILES: O=C3/N=C\Nc1c3ncn1[C@@H]2O[C@@H](CC2)CO
InChI: InChI=1S/C10H12N4O3/c15-3-6-1-2-7(17-6)14-5-13-8-9(14)11-4-12-10(8)16/h4-7,15H,1-3H2,(H,11,12,16)/t6-,7+/m0/s1
Instrument: Q Exactive Orbitrap Thermo Scientific
Instrument type: LC-ESI-QFT
Ms type: MS2
Ion mode: POSITIVE
Ionization: ESI
Fragmentation mode: HCD
Collision energy: 90 (nominal)
Resolution: 35000
Column name: XBridge C18 3.5um, 2.1x50mm, Waters
Retention time: 2.3 min
Base peak: 137.0459
Precursor m/z: 237.0982
Precursor type: [M+H]+
m/z	relative intensity	assigned
53.0388	1	C4H5+
55.0292	20	C2H3N2+
55.0543	14	C4H7+
57.0336	58	C3H5O+
59.0492	11	C3H7O+
65.0135	1	C3HN2+
67.0291	12	C3H3N2+
67.0543	3	C5H7+
69.0699	1	C5H9+
73.0648	6	C4H9O+
79.0543	1	C6H7+
81.07	3	C6H9+
82.04	37	C3H4N3+
83.0241	3	C3H3N2O+
83.0492	4	C5H7O+
91.0542	4	C7H7+
92.0243	12	C4H2N3+
93.0699	1	C7H9+
94.04	100	C4H4N3+
95.0856	2	C7H11+
105.0698	1	C8H9+
110.0349	238	C4H4N3O+
112.0506	15	C4H6N3O+
119.0353	167	C5H3N4+
120.0189	1	C5H2N3O+
128.0455	12	C4H6N3O2+
137.0459	999	C5H5N4O+
138.0298	11	C5H4N3O2+
