Mass spectrum: Norfluoxetine; LC-ESI-QFT; MS2; CE: 90; R=35000; [M+H]+
Name: Norfluoxetine
Name: Norfluoxetin
Name: 3-phenyl-3-[4-(trifluoromethyl)phenoxy]propan-1-amine
Formula: C16H16F3NO
Exact mass: 295.11840
SMILES: NCCC(Oc1ccc(cc1)C(F)(F)F)c2ccccc2
InChI: InChI=1S/C16H16F3NO/c17-16(18,19)13-6-8-14(9-7-13)21-15(10-11-20)12-4-2-1-3-5-12/h1-9,15H,10-11,20H2
Instrument: Q Exactive Plus Orbitrap Thermo Scientific
Instrument type: LC-ESI-QFT
Ms type: MS2
Ion mode: POSITIVE
Ionization: ESI
Fragmentation mode: HCD
Collision energy: 90 (nominal)
Resolution: 35000
Column name: XBridge C18 3.5um, 2.1x50mm, Waters
Retention time: 8.7 min
Base peak: 296.1255
Precursor m/z: 296.1257
Precursor type: [M+H]+
m/z	relative intensity	assigned
79.0542	180	C6H7+
91.0543	574	C7H7+
105.07	999	C8H9+
