Mass spectrum: Metribuzin-desamino; LC-ESI-QFT; MS2; CE: 120; R=35000; [M+H]+
Name: Metribuzin-desamino
Name: Deaminometribuzin
Name: 6-tert-butyl-3-(methylthio)-2H-1,2,4-triazin-5-one
Formula: C8H13N3OS
Exact mass: 199.27332
SMILES: CC(C)(C)C1=NNC(=NC1=O)SC
InChI: InChI=1S/C8H13N3OS/c1-8(2,3)5-6(12)9-7(13-4)11-10-5/h1-4H3,(H,9,11,12)
Instrument: Q Exactive Plus Orbitrap Thermo Scientific
Instrument type: LC-ESI-QFT
Ms type: MS2
Ion mode: POSITIVE
Ionization: ESI
Fragmentation mode: HCD
Collision energy: 120 (nominal)
Resolution: 35000
Column name: XBridge C18 3.5um, 2.1x50mm, Waters
Retention time: 7.3 min
Base peak: 200.085
Precursor m/z: 200.0852
Precursor type: [M+H]+
m/z	relative intensity	assigned
53.0022	51	C3HO+
53.0386	4	C4H5+
53.9975	14	C2NO+
54.0338	65	C3H4N+
55.0291	9	C2H3N2+
55.0542	14	C4H7+
56.0495	30	C3H6N+
57.0699	719	C4H9+
57.9746	2	CNS+
58.9824	15	CHNS+
58.995	2	C2H3S+
59.9664	11	COS+
59.9902	36	CH2NS+
61.0106	21	C2H5S+
62.0059	400	CH4NS+
65.0386	2	C5H5+
66.0337	3	C4H4N+
67.0417	50	C4H5N+
67.0542	5	C5H7+
67.9893	13	C3O2+
68.0243	43	C2H2N3+
68.0495	245	C4H6N+
69.0083	25	C2HN2O+
69.0447	21	C3H5N2+
69.0573	2	C4H7N+
69.0698	3	C5H9+
70.04	36	C2H4N3+
70.0651	4	C4H8N+
71.024	3	C2H3N2O+
71.9902	4	C2H2NS+
72.9981	2	C2H3NS+
73.9933	99	CH2N2S+
74.0059	576	C2H4NS+
75.0011	17	CH3N2S+
80.0495	4	C5H6N+
81.0447	3	C4H5N2+
82.0524	3	C4H6N2+
82.0651	3	C5H8N+
83.0603	167	C4H7N2+
84.0682	140	C4H8N2+
84.0808	11	C5H10N+
84.9855	3	C2HN2S+
85.9695	4	C2NOS+
87.0012	4	C2H3N2S+
89.0168	999	C2H5N2S+
94.0399	3	C4H4N3+
100.0216	12	C4H6NS+
101.0042	716	C2H3N3S+
108.0555	20	C5H6N3+
110.0712	20	C5H8N3+
112.0216	3	C5H6NS+
114.0121	13	C3H4N3S+
114.0371	7	C5H8NS+
115.0198	24	C3H5N3S+
115.0325	4	C4H7N2S+
116.0277	159	C3H6N3S+
127.0198	68	C4H5N3S+
129.0354	3	C4H7N3S+
132.0224	18	C3H6N3OS+
140.0278	11	C5H6N3S+
141.0355	152	C5H7N3S+
142.0434	822	C5H8N3S+
146.0385	8	C4H8N3OS+
156.059	815	C6H10N3S+
157.0668	44	C6H11N3S+
170.0384	3	C6H8N3OS+
