Mass spectrum: Iobitridol; LC-ESI-ITFT; MS2; CE: 30%; R=7500; [M+H]+
Name: Iobitridol
Name: 1,3-Benzenedicarboxamide, N,N'-bis(2,3-dihydroxypropyl)-5-((5-hydroxy-2-(hydroxymethyl)-1-oxopropyl)amino)-2,4,6-triiodo-N,N'-dimethyl-
Name: 1-N,3-N-bis(2,3-dihydroxypropyl)-5-[[3-hydroxy-2-(hydroxymethyl)propanoyl]amino]-2,4,6-triiodo-1-N,3-N-dimethylbenzene-1,3-dicarboxamide
Formula: C20H28I3N3O9
Exact mass: 834.8960
SMILES: Ic1c(c(I)c(c(I)c1NC(=O)C(CO)CO)C(=O)N(CC(O)CO)C)C(=O)N(CC(O)CO)C
InChI: InChI=1S/C20H28I3N3O9/c1-25(3-10(31)7-29)19(34)12-14(21)13(20(35)26(2)4-11(32)8-30)16(23)17(15(12)22)24-18(33)9(5-27)6-28/h9-11,27-32H,3-8H2,1-2H3,(H,24,33)
Instrument: LTQ Orbitrap XL Thermo Scientific
Instrument type: LC-ESI-ITFT
Ms type: MS2
Ion mode: POSITIVE
Ionization: ESI
Fragmentation mode: HCD
Collision energy: 30 % (nominal)
Resolution: 7500
Column name: XBridge C18 3.5um, 2.1x50mm, Waters
Retention time: 1.6 min
Base peak: 149.0023
Precursor m/z: 835.9032
Precursor type: [M+H]+
m/z	relative intensity	assigned
88.0757	95	C4H10NO+
196.1703	40	C12H22NO+
314.9606	24	C7H10INO5+
321.1081	87	C15H17N2O6+
339.1221	33	C20H19O5+
400.9995	413	C14H14IN2O4+
416.9977	42	C17H12IN3O2+
431.01	101	C15H16IN2O5+
449.0205	236	C15H18IN2O6+
474.9993	448	C15H25I2O+
554.8914	74	C15H13I2N2O5+
602.912	999	C16H17I2N2O7+
625.7469	64	C12H7I3NO5+
