Mass spectrum: Lacosamide; LC-ESI-QFT; MS2; CE: 120; R=35000; [M-H]-
Name: Lacosamide
Name: N2-Acetyl-N-benzyl-O-methyl-D-serinamide
Name: 2-acetamido-N-benzyl-3-methoxypropanamide
Formula: C13H18N2O3
Exact mass: 250.13174
SMILES: CC(=O)NC(COC)C(=O)NCC1=CC=CC=C1
InChI: InChI=1S/C13H18N2O3/c1-10(16)15-12(9-18-2)13(17)14-8-11-6-4-3-5-7-11/h3-7,12H,8-9H2,1-2H3,(H,14,17)(H,15,16)
Instrument: Q Exactive Plus Orbitrap Thermo Scientific
Instrument type: LC-ESI-QFT
Ms type: MS2
Ion mode: NEGATIVE
Ionization: ESI
Fragmentation mode: HCD
Collision energy: 120 (nominal)
Resolution: 35000
Column name: XBridge C18 3.5um, 2.1x50mm, Waters
Retention time: 5.0 min
Base peak: 295.1293
Precursor m/z: 249.1245
Precursor type: [M-H]-
m/z	relative intensity	assigned
57.0345	999	C3H5O-
58.0298	263	C2H4NO-
59.0138	120	C2H3O2-
68.0142	22	C3H2NO-
82.0298	28	C4H4NO-
84.0454	199	C4H6NO-
85.0169	16	C3H3NO2-
93.0346	25	C6H5O-
102.0348	24	C7H4N-
111.0197	22	C4H3N2O2-
116.0506	108	C8H6N-
121.0295	48	C7H5O2-
