Mass spectrum: Hydrocodone; LC-ESI-QFT; MS2; CE: 75; R=35000; [M+H]+
Name: Hydrocodone
Name: (4R,4aR,7aR,12bS)-9-methoxy-3-methyl-1,2,4,4a,5,6,7a,13-octahydro-4,12-methanobenzofuro[3,2-e]isoquinoline-7-one
Formula: C18H21NO3
Exact mass: 299.15214
SMILES: CN1CC[C@]23[C@@H]4[C@H]1CC5=C2C(=C(C=C5)OC)O[C@H]3C(=O)CC4
InChI: InChI=1S/C18H21NO3/c1-19-8-7-18-11-4-5-13(20)17(18)22-16-14(21-2)6-3-10(15(16)18)9-12(11)19/h3,6,11-12,17H,4-5,7-9H2,1-2H3/t11-,12+,17-,18-/m0/s1
Instrument: Q Exactive Orbitrap Thermo Scientific
Instrument type: LC-ESI-QFT
Ms type: MS2
Ion mode: POSITIVE
Ionization: ESI
Fragmentation mode: HCD
Collision energy: 75 (nominal)
Resolution: 35000
Column name: XBridge C18 3.5um, 2.1x50mm, Waters
Retention time: 3.2 min
Base peak: 300.1595
Precursor m/z: 300.1594
Precursor type: [M+H]+
m/z	relative intensity	assigned
55.018	1	C3H3O+
58.0288	1	C2H4NO+
58.0651	15	C3H8N+
65.0385	1	C5H5+
68.0495	1	C4H6N+
70.0652	1	C4H8N+
79.0542	3	C6H7+
82.0651	6	C5H8N+
83.0492	3	C5H7O+
84.0808	10	C5H10N+
86.06	2	C4H8NO+
91.0542	5	C7H7+
94.065	1	C6H8N+
95.0491	1	C6H7O+
100.0757	5	C5H10NO+
103.0542	4	C8H7+
105.0698	1	C8H9+
107.0492	1	C7H7O+
108.0808	1	C7H10N+
110.0601	13	C6H8NO+
115.0542	51	C9H7+
116.062	1	C9H8+
117.0698	3	C9H9+
119.049	1	C8H7O+
121.0647	1	C8H9O+
122.0364	2	C7H6O2+
122.0962	1	C8H12N+
126.0458	1	C10H6+
128.062	137	C10H8+
129.0699	29	C10H9+
131.0491	7	C9H7O+
131.0855	1	C10H11+
132.0805	1	C9H10N+
134.0963	5	C9H12N+
137.0597	18	C8H9O2+
139.0539	2	C11H7+
141.0698	208	C11H9+
142.0778	10	C11H10+
143.0493	6	C10H7O+
143.0855	26	C11H11+
144.0569	29	C10H8O+
145.0649	14	C10H9O+
146.0363	1	C9H6O2+
146.0602	1	C9H8NO+
146.0723	1	C10H10O+
146.0962	1	C10H12N+
147.0442	1	C9H7O2+
148.0757	7	C9H10NO+
150.0915	6	C9H12NO+
152.0619	35	C12H8+
153.0698	216	C12H9+
154.0777	39	C12H10+
155.0492	13	C11H7O+
155.0601	9	C10H7N2+
155.0855	65	C12H11+
156.0569	96	C11H8O+
157.0649	14	C11H9O+
157.1011	1	C12H13+
158.0726	23	C11H10O+
159.0441	3	C10H7O2+
159.0804	43	C11H11O+
160.0518	1	C10H8O2+
160.0758	1	C10H10NO+
161.0597	14	C10H9O2+
162.0913	7	C10H12NO+
163.0991	2	C10H13NO+
165.0699	125	C13H9+
166.0776	12	C13H10+
167.0855	14	C13H11+
168.057	30	C12H8O+
169.0647	23	C12H9O+
169.0759	14	C11H9N2+
169.1012	3	C13H13+
170.0361	13	C11H6O2+
170.0726	75	C12H10O+
171.0804	665	C12H11O+
172.0518	11	C11H8O2+
172.0881	8	C12H12O+
173.0595	3	C11H9O2+
173.096	9	C12H13O+
174.0675	3	C11H10O2+
175.0755	8	C11H11O2+
177.0696	5	C14H9+
178.0775	4	C14H10+
179.0853	8	C14H11+
180.0567	5	C13H8O+
181.0647	197	C13H9O+
182.0726	35	C13H10O+
183.0441	35	C12H7O2+
183.0805	81	C13H11O+
184.0519	41	C12H8O2+
184.088	8	C13H12O+
185.0597	152	C12H9O2+
185.096	60	C13H13O+
186.0676	20	C12H10O2+
187.0754	29	C12H11O2+
187.1117	3	C13H15O+
188.0833	2	C12H12O2+
189.0909	7	C12H13O2+
190.0778	1	C15H10+
191.0853	8	C15H11+
193.0649	16	C14H9O+
193.0759	3	C13H9N2+
194.0726	25	C14H10O+
195.0804	18	C14H11O+
196.0519	3	C13H8O2+
196.0757	1	C13H10NO+
196.0884	2	C14H12O+
197.0598	18	C13H9O2+
197.0961	13	C14H13O+
198.0675	114	C13H10O2+
199.0752	999	C13H11O2+
200.0829	15	C13H12O2+
201.0548	1	C12H9O3+
201.091	10	C13H13O2+
202.0862	1	C12H12NO2+
203.0942	4	C12H13NO2+
203.1061	1	C13H15O2+
207.0809	1	C15H11O+
208.0883	1	C15H12O+
209.0599	5	C14H9O2+
209.0962	3	C15H13O+
210.0676	14	C14H10O2+
211.0753	16	C14H11O2+
212.0831	11	C14H12O2+
213.0909	133	C14H13O2+
214.0859	3	C13H12NO2+
214.0986	1	C14H14O2+
215.1068	7	C14H15O2+
219.0806	3	C16H11O+
223.0754	7	C15H11O2+
224.107	1	C15H14NO+
225.0909	33	C15H13O2+
226.0623	3	C14H10O3+
226.0861	4	C14H12NO2+
226.0985	1	C15H14O2+
227.0705	1	C14H11O3+
227.107	1	C15H15O2+
228.078	5	C14H12O3+
228.102	9	C14H14NO2+
239.1064	1	C16H15O2+
240.1016	1	C15H14NO2+
241.0858	72	C15H13O3+
242.1175	4	C15H16NO2+
243.1017	12	C15H15O3+
250.1231	1	C17H16NO+
251.1066	1	C17H15O2+
252.1024	1	C16H14NO2+
255.1023	1	C16H15O3+
256.1337	6	C16H18NO2+
257.1171	4	C16H17O3+
266.1182	2	C17H16NO2+
268.1331	2	C17H18NO2+
270.1127	1	C16H16NO3+
284.1279	5	C17H18NO3+
285.136	9	C17H19NO3+
300.1593	21	C18H22NO3+
