Mass spectrum: 1,3-Dimethylpteridine-2,4-dione; LC-ESI-QFT; MS2; CE: 60; R=35000; [M+H]+
Name: 1,3-Dimethylpteridine-2,4-dione
Name: 1,3-Dimethyllumazine
Formula: C8H8N4O2
Exact mass: 192.06473
SMILES: O=C2c1nccnc1N(C(=O)N2C)C
InChI: InChI=1S/C8H8N4O2/c1-11-6-5(9-3-4-10-6)7(13)12(2)8(11)14/h3-4H,1-2H3
Instrument: Q Exactive Orbitrap Thermo Scientific
Instrument type: LC-ESI-QFT
Ms type: MS2
Ion mode: POSITIVE
Ionization: ESI
Fragmentation mode: HCD
Collision energy: 60 (nominal)
Resolution: 35000
Column name: XBridge C18 3.5um, 2.1x50mm, Waters
Retention time: 3.6 min
Base peak: 193.072
Precursor m/z: 193.072
Precursor type: [M+H]+
m/z	relative intensity	assigned
54.0338	1	C3H4N+
66.0338	4	C4H4N+
81.0447	57	C4H5N2+
82.04	1	C3H4N3+
82.0526	1	C4H6N2+
93.0447	39	C5H5N2+
95.0604	15	C5H7N2+
97.0396	13	C4H5N2O+
105.0448	2	C6H5N2+
106.04	2	C5H4N3+
108.0556	199	C5H6N3+
110.0348	3	C4H4N3O+
110.0714	1	C5H8N3+
111.0553	13	C5H7N2O+
120.0556	80	C6H6N3+
121.0509	1	C5H5N4+
121.0634	5	C6H7N3+
122.0712	89	C6H8N3+
126.0663	2	C5H8N3O+
132.0556	32	C7H6N3+
133.0509	17	C6H5N4+
134.0587	27	C6H6N4+
136.0506	29	C6H6N3O+
147.0665	1	C7H7N4+
148.0743	4	C7H8N4+
149.0822	138	C7H9N4+
150.0661	3	C7H8N3O+
161.0457	2	C7H5N4O+
165.0537	2	C7H7N3O2+
165.0772	1	C7H9N4O+
179.0563	14	C7H7N4O2+
193.072	999	C8H9N4O2+
