Mass spectrum: 1-Hydroxybenzotriazole; LC-ESI-QFT; MS2; CE: 75; R=35000; [M+H]+
Name: 1-Hydroxybenzotriazole
Formula: C6H5N3O
Exact mass: 135.04326
SMILES: C1=CC=C2C(=C1)N=NN2O
InChI: InChI=1S/C6H5N3O/c10-9-6-4-2-1-3-5(6)7-8-9/h1-4,10H
Instrument: Q Exactive Plus Orbitrap Thermo Scientific
Instrument type: LC-ESI-QFT
Ms type: MS2
Ion mode: POSITIVE
Ionization: ESI
Fragmentation mode: HCD
Collision energy: 75 (nominal)
Resolution: 35000
Column name: XBridge C18 3.5um, 2.1x50mm, Waters
Retention time: 3.0 min
Base peak: 136.0506
Precursor m/z: 136.0505
Precursor type: [M+H]+
m/z	relative intensity	assigned
50.0151	1	C4H2+
51.0229	1	C4H3+
52.0182	6	C3H2N+
53.0386	65	C4H5+
54.0339	3	C3H4N+
54.0465	9	C4H6+
63.023	27	C5H3+
64.0308	71	C5H4+
65.026	16	C4H3N+
65.0386	2	C5H5+
77.0386	10	C6H5+
78.0464	53	C6H6+
79.0416	2	C5H5N+
80.0495	51	C5H6N+
81.0336	8	C5H5O+
90.034	7	C6H4N+
91.0417	999	C6H5N+
92.037	5	C5H4N2+
95.0492	15	
105.0448	12	C6H5N2+
106.0526	4	C6H6N2+
108.0445	2	C6H6NO+
109.0523	16	
119.0479	184	C6H5N3+
136.0507	328	C6H6N3O+
