Mass spectrum: Linuron; LC-ESI-ITFT; MS2; CE: 90%; R=30000; [M+H]+
Name: Linuron
Name: 3-(3,4-dichlorophenyl)-1-methoxy-1-methyl-urea
Formula: C9H10Cl2N2O2
Exact mass: 248.0114
SMILES: c1(cc(c(Cl)cc1)Cl)NC(N(OC)C)=O
InChI: InChI=1S/C9H10Cl2N2O2/c1-13(15-2)9(14)12-6-3-4-7(10)8(11)5-6/h3-5H,1-2H3,(H,12,14)
Instrument: LTQ Orbitrap XL Thermo Scientific
Instrument type: LC-ESI-ITFT
Ms type: MS2
Ion mode: POSITIVE
Ionization: ESI
Fragmentation mode: HCD
Collision energy: 90 % (nominal)
Resolution: 30000
Column name: XBridge C18 3.5um, 2.1x50mm, Waters
Retention time: 10.0 min
Base peak: 249.0194
Precursor m/z: 249.0192
Precursor type: [M+H]+
m/z	relative intensity	assigned
60.0443	11	C2H6NO+
63.0228	7	C5H3+
72.9839	24	C3H2Cl+
82.9449	12	CHCl2+
90.0338	32	C6H4N+
98.9995	22	C5H4Cl+
106.9449	9	C3HCl2+
118.0525	6	C7H6N2+
123.9948	64	C9O+
125.0026	479	C6H4ClN+
126.0104	42	C6H5ClN+
127.0182	8	C6H6ClN+
132.9606	999	C5H3Cl2+
133.9683	41	C5H4Cl2+
142.0054	10	C6H5ClNO+
153.0213	332	C7H6ClN2+
159.9715	199	C6H4Cl2N+
160.9793	557	C6H5Cl2N+
163.0055	10	C8H4ClN2+
165.0213	16	C8H6ClN2+
167.0005	13	C7H4ClN2O+
173.987	11	C7H6Cl2N+
181.0162	80	C8H6ClN2O+
182.0239	46	C8H7ClN2O+
201.9696	5	C7H4Cl2N2O+
216.9925	23	C8H7Cl2N2O+
