Mass spectrum: Dexamethasone; LC-ESI-ITFT; MS2; CE: 45%; R=7500; [M+H]+
Name: Dexamethasone
Name: (8S,9R,10S,11S,13S,14S,16R,17R)-9-fluoranyl-10,13,16-trimethyl-11,17-bis(oxidanyl)-17-(2-oxidanylethanoyl)-6,7,8,11,12,14,15,16-octahydrocyclopenta[a]phenanthren-3-one
Formula: C22H29FO5
Exact mass: 392.1999
SMILES: [H][C@@]12C[C@@H](C)[C@](O)(C(=O)CO)[C@@]1(C)C[C@H](O)[C@@]3(F)[C@@]2([H])CCC4=CC(=O)C=C[C@]34C
InChI: InChI=1S/C22H29FO5/c1-12-8-16-15-5-4-13-9-14(25)6-7-19(13,2)21(15,23)17(26)10-20(16,3)22(12,28)18(27)11-24/h6-7,9,12,15-17,24,26,28H,4-5,8,10-11H2,1-3H3/t12-,15+,16+,17+,19+,20+,21+,22+/m1/s1
Instrument: LTQ Orbitrap XL Thermo Scientific
Instrument type: LC-ESI-ITFT
Ms type: MS2
Ion mode: POSITIVE
Ionization: ESI
Fragmentation mode: HCD
Collision energy: 45 % (nominal)
Resolution: 7500
Column name: XBridge C18 3.5um, 2.1x50mm, Waters
Retention time: 9.5 min
Base peak: 393.2068
Precursor m/z: 393.2072
Precursor type: [M+H]+
m/z	relative intensity	assigned
91.0543	33	C7H7+
93.0699	84	C7H9+
95.0856	106	C7H11+
105.07	56	C8H9+
107.0856	216	C8H11+
109.1017	67	C8H13+
119.0855	148	C9H11+
121.0648	279	C8H9O+
121.101	95	C9H13+
123.0807	68	C8H11O+
125.0599	77	C7H9O2+
131.0856	136	C10H11+
133.0647	44	C9H9O+
133.1011	62	C10H13+
135.0805	254	C9H11O+
137.0962	70	C9H13O+
143.0854	66	C11H11+
145.0646	81	C10H9O+
145.101	45	C11H13+
147.0805	999	C10H11O+
149.0961	105	C10H13O+
153.0909	48	C9H13O2+
157.101	45	C12H13+
159.0805	225	C11H11O+
161.0963	144	C11H13O+
171.0805	473	C12H11O+
173.0961	264	C12H13O+
177.0914	51	C11H13O2+
181.1008	27	C14H13+
183.081	37	C13H11O+
185.0959	184	C13H13O+
187.0752	103	C12H11O2+
187.1113	108	C13H15O+
195.1177	34	C12H16FO+
197.0965	143	C14H13O+
199.112	75	C14H15O+
208.0872	32	C15H12O+
209.0962	94	C15H13O+
209.132	82	C16H17+
211.112	209	C15H15O+
212.1193	39	C15H16O+
213.1278	151	C15H17O+
219.117	62	C17H15+
221.096	89	C16H13O+
221.1325	33	C17H17+
222.1036	148	C16H14O+
223.112	226	C16H15O+
225.1272	146	C16H17O+
227.1432	107	C16H19O+
235.1118	208	C17H15O+
237.1272	598	C17H17O+
239.1428	251	C17H19O+
241.1226	66	C16H17O2+
248.1198	60	C18H16O+
249.1277	77	C18H17O+
251.1434	75	C18H19O+
253.1217	74	C17H17O2+
253.1581	57	C18H21O+
261.1271	78	C19H17O+
262.134	94	C19H18O+
263.143	253	C19H19O+
265.1578	34	C19H21O+
267.1373	67	C18H19O2+
274.1377	29	C17H19FO2+
275.1405	52	C12H20FN2O4+
276.1503	64	C20H20O+
277.158	165	C20H21O+
278.1665	142	C20H22O+
279.1744	304	C20H23O+
286.1356	50	C21H18O+
289.16	34	C21H21O+
291.1744	104	C21H23O+
295.1705	41	C20H23O2+
301.1587	58	C22H21O+
319.1698	63	C22H23O2+
325.1805	32	C21H25O3+
337.1797	29	C22H25O3+
