Mass spectrum: Cyanazine; LC-ESI-ITFT; MS2; CE: 60%; R=15000; [M+H]+
Name: Cyanazine
Name: 2-[[4-chloranyl-6-(ethylamino)-1,3,5-triazin-2-yl]amino]-2-methyl-propanenitrile
Formula: C9H13ClN6
Exact mass: 240.0890
SMILES: CCNC1=NC(=NC(=N1)Cl)NC(C)(C)C#N
InChI: InChI=1S/C9H13ClN6/c1-4-12-7-13-6(10)14-8(15-7)16-9(2,3)5-11/h4H2,1-3H3,(H2,12,13,14,15,16)
Instrument: LTQ Orbitrap XL Thermo Scientific
Instrument type: LC-ESI-ITFT
Ms type: MS2
Ion mode: POSITIVE
Ionization: ESI
Fragmentation mode: HCD
Collision energy: 60 % (nominal)
Resolution: 15000
Column name: XBridge C18 3.5um, 2.1x50mm, Waters
Retention time: 6.6 min
Base peak: 241.0971
Precursor m/z: 241.0963
Precursor type: [M+H]+
m/z	relative intensity	assigned
58.0651	4	C3H8N+
61.9791	16	CHClN+
67.0291	3	C3H3N2+
68.0244	200	C2H2N3+
71.0604	87	C3H7N2+
79.0058	50	CH4ClN2+
83.0604	62	C4H7N2+
85.0762	5	C4H9N2+
90.0105	15	C3H5ClN+
96.0557	229	C4H6N3+
104.001	289	C2H3ClN3+
108.0557	9	C5H6N3+
110.0462	7	C3H4N5+
110.0713	36	C5H8N3+
111.0792	10	C5H9N3+
119.0371	76	C4H8ClN2+
132.0323	235	C4H7ClN3+
136.0869	88	C7H10N3+
138.0775	24	C5H8N5+
144.0323	16	C5H7ClN3+
146.0228	70	C3H5ClN5+
150.0775	12	C6H8N5+
163.0977	6	C8H11N4+
171.0435	4	C6H8ClN4+
173.0588	48	C6H10ClN4+
174.0541	175	C5H9ClN5+
177.0883	22	C7H9N6+
178.1087	29	C8H12N5+
180.1242	4	C8H14N5+
186.0541	38	C6H9ClN5+
197.0587	7	C8H10ClN4+
205.1196	44	C9H13N6+
214.0854	999	C8H13ClN5+
241.0967	68	C9H14ClN6+
