Mass spectrum: Phenylbutazone; LC-ESI-QFT; MS2; CE: 90; R=35000; [M-H]-
Name: Phenylbutazone
Name: 4-butyl-1,2-diphenylpyrazolidine-3,5-dione
Formula: C19H20N2O2
Exact mass: 308.15248
SMILES: CCCCC1C(=O)N(N(C1=O)C2=CC=CC=C2)C3=CC=CC=C3
InChI: InChI=1S/C19H20N2O2/c1-2-3-14-17-18(22)20(15-10-6-4-7-11-15)21(19(17)23)16-12-8-5-9-13-16/h4-13,17H,2-3,14H2,1H3
Instrument: Q Exactive Plus Orbitrap Thermo Scientific
Instrument type: LC-ESI-QFT
Ms type: MS2
Ion mode: NEGATIVE
Ionization: ESI
Fragmentation mode: HCD
Collision energy: 90 (nominal)
Resolution: 35000
Column name: XBridge C18 3.5um, 2.1x50mm, Waters
Retention time: 11.2 min
Base peak: 307.1448
Precursor m/z: 307.1452
Precursor type: [M-H]-
m/z	relative intensity	assigned
52.0192	2	C3H2N-
65.0396	5	C5H5-
78.035	7	C5H4N-
80.0268	5	C5H4O-
80.0506	14	C5H6N-
82.0662	6	C5H8N-
92.0506	999	C6H6N-
95.0502	37	C6H7O-
102.0349	1	C7H4N-
116.0506	9	C8H6N-
118.0663	4	C8H8N-
131.0376	110	C8H5NO-
132.0453	2	C8H6NO-
133.0407	1	C7H5N2O-
142.0662	5	C10H8N-
144.0455	21	C9H6NO-
155.0741	10	C11H9N-
156.0819	8	C11H10N-
157.0532	4	C10H7NO-
158.0973	5	C11H12N-
166.0661	9	C12H8N-
168.0819	15	C12H10N-
170.0976	4	C12H12N-
187.0511	1	C10H7N2O2-
