Mass spectrum: Chlorthiophos; LC-ESI-QFT; MS2; CE: 120%; R=17500; [M+H]+
Name: Chlorthiophos
Name: (2,5-dichloro-4-methylsulfanylphenoxy)-diethoxy-sulfanylidene-lambda5-phosphane
Formula: C11H15Cl2O3PS2
Exact mass: 359.9577
SMILES: CCOP(=S)(OCC)OC1=CC(=C(C=C1Cl)SC)Cl
InChI: InChI=1S/C11H15Cl2O3PS2/c1-4-14-17(18,15-5-2)16-10-6-9(13)11(19-3)7-8(10)12/h6-7H,4-5H2,1-3H3
Instrument: Exploris 240 Orbitrap Thermo Scientific
Instrument type: LC-ESI-QFT
Ms type: MS2
Ion mode: POSITIVE
Ionization: ESI
Fragmentation mode: HCD
Collision energy: 120 % (nominal)
Resolution: 17500
Column name: XBridge C18 3.5um, 2.1x50mm, Waters
Retention time: 14.135 min
Base peak: 360.9648
Precursor m/z: 360.965
Precursor type: [M+H]+
m/z	relative intensity	assigned
63.0229	138	C5H3+
64.9786	207	H2O2P+
65.0384	33	C5H5+
68.9793	56	C3HS+
75.0231	19	C6H3+
78.9402	218	OPS+
78.9672	32	CH3S2+
82.9448	135	ClHOP+
89.0385	47	C7H5+
94.995	101	C5H3S+
96.9506	218	H2O2PS+
96.9836	15	C4H2OP+
97.0105	53	C5H5S+
97.9917	43	C5H3Cl+
98.9842	75	CH4ClO3+
98.9995	215	C5H4Cl+
106.945	39	C3HCl2+
106.9952	37	C6H3S+
108.0027	139	C6H4S+
109.0108	67	C6H5S+
114.9946	49	C5H4ClO+
121.0105	124	C7H5S+
122.9898	34	C6H3OS+
122.9998	116	C7H4Cl+
123.9978	48	C6H4OS+
125.9868	45	C6H3ClO+
128.0025	46	C6H5ClO+
128.9561	180	C5H2ClS+
129.9636	92	C4H3OPS+
130.9716	171	C4H4OPS+
132.9605	999	C4H3ClOP+
139.9752	49	C6H4S2+
140.9564	34	C6H2ClS+
141.0102	58	C7H6ClO+
141.9638	797	C6H3ClS+
142.9716	129	C5H4OPS+
152.9825	49	C7H5S2+
154.9718	103	C7H4ClS+
157.9588	44	C6H3ClOS+
160.9555	32	C6H3Cl2O+
160.9825	54	C5H6O2PS+
161.9632	236	C5H4ClO2P+
172.9281	303	C6H2ClS2+
173.9356	21	C5H3OPS2+
173.9902	40	C7H7ClOS+
176.9325	194	C5H3ClOPS+
178.9487	53	C6H5Cl2S+
186.9434	234	C7H4ClS2+
