Mass spectrum: Nitrazepam; LC-ESI-QFT; MS2; CE: 60; R=35000; [M+H]+
Name: Nitrazepam
Name: 7-nitro-5-phenyl-1,3-dihydro-1,4-benzodiazepin-2-one
Formula: C15H11N3O3
Exact mass: 281.08004
SMILES: C1C(=O)NC2=C(C=C(C=C2)[N+](=O)[O-])C(=N1)C3=CC=CC=C3
InChI: InChI=1S/C15H11N3O3/c19-14-9-16-15(10-4-2-1-3-5-10)12-8-11(18(20)21)6-7-13(12)17-14/h1-8H,9H2,(H,17,19)
Instrument: Q Exactive Plus Orbitrap Thermo Scientific
Instrument type: LC-ESI-QFT
Ms type: MS2
Ion mode: POSITIVE
Ionization: ESI
Fragmentation mode: HCD
Collision energy: 60 (nominal)
Resolution: 35000
Column name: XBridge C18 3.5um, 2.1x50mm, Waters
Retention time: 7.7 min
Base peak: 282.0866
Precursor m/z: 282.0873
Precursor type: [M+H]+
m/z	relative intensity	assigned
78.0463	1	C6H6+
79.0416	2	C5H5N+
80.0256	1	C5H4O+
80.0494	5	C5H6N+
91.0542	44	C7H7+
93.0573	7	C6H7N+
103.0416	5	C7H5N+
104.0494	17	C7H6N+
105.0335	6	C7H5O+
105.0448	2	C6H5N2+
105.0573	18	C7H7N+
106.0526	1	C6H6N2+
106.0651	2	C7H8N+
108.0443	1	C6H6NO+
116.0494	4	C8H6N+
118.0526	4	C7H6N2+
118.065	1	C8H8N+
129.0447	3	C8H5N2+
130.0526	45	C8H6N2+
131.0604	1	C8H7N2+
133.0395	1	C7H5N2O+
133.0522	10	C8H7NO+
144.0446	1	C9H6NO+
146.0472	2	C8H6N2O+
148.0632	1	C8H8N2O+
151.05	3	C7H7N2O2+
152.062	6	C12H8+
153.0699	1	C12H9+
156.0807	1	C11H10N+
157.0393	1	C9H5N2O+
158.0475	22	C9H6N2O+
159.0553	2	C9H7N2O+
162.042	3	C8H6N2O2+
164.062	5	C13H8+
165.0421	1	C8H7NO3+
165.0698	5	C13H9+
166.0777	1	C13H10+
167.0727	3	C12H9N+
167.0853	2	C13H11+
168.057	1	C12H8O+
168.0684	4	C11H8N2+
168.0807	6	C12H10N+
176.0455	32	C8H6N3O2+
177.0295	2	C8H5N2O3+
178.0651	1	C13H8N+
179.0729	32	C13H9N+
180.0807	417	C13H10N+
181.0762	1	C12H9N2+
181.0885	7	C13H11N+
183.0917	1	C12H11N2+
187.0377	9	C9H5N3O2+
190.065	19	C14H8N+
191.0729	23	C14H9N+
192.0806	20	C14H10N+
193.076	5	C13H9N2+
193.0886	13	C14H11N+
194.0839	10	C13H10N2+
194.0964	14	C14H12N+
195.0679	5	C13H9NO+
195.0917	12	C13H11N2+
196.0757	27	C13H10NO+
196.0994	4	C13H12N2+
204.0404	1	C9H6N3O3+
205.0759	1	C14H9N2+
206.0605	2	C14H8NO+
206.0839	11	C14H10N2+
207.0917	406	C14H11N2+
208.0996	131	C14H12N2+
209.0837	2	C14H11NO+
210.0794	1	C13H10N2O+
211.0867	6	C13H11N2O+
217.0762	3	C15H9N2+
218.0839	4	C15H10N2+
219.0676	2	C15H9NO+
222.0792	1	C14H10N2O+
223.0631	2	C14H9NO2+
223.0866	23	C14H11N2O+
224.0943	3	C14H12N2O+
225.0658	2	C13H9N2O2+
235.0866	104	C15H11N2O+
236.0944	999	C15H12N2O+
237.0659	4	C14H9N2O2+
237.0898	1	C14H11N3O+
239.0811	7	C14H11N2O2+
240.0893	18	C14H12N2O2+
251.0814	24	C15H11N2O2+
252.0768	2	C14H10N3O2+
253.0843	3	C14H11N3O2+
254.0924	7	C14H12N3O2+
268.0843	366	C15H12N2O3+
270.0885	1	C14H12N3O3+
282.0872	55	C15H12N3O3+
