Mass spectrum: N-Methyl-N-nitrosotoluene-4-sulphonamide (NTOLS); LC-ESI-QFT; MS2; CE: 30; R=70000; [M+H]+
Name: N-Methyl-N-nitrosotoluene-4-sulphonamide (NTOLS)
Name: N,4-dimethyl-N-nitrosobenzenesulfonamide
Formula: C8H10N2O3S
Exact mass: 214.04121
SMILES: O=S(=O)(c1ccc(cc1)C)N(N=O)C
InChI: InChI=1S/C8H10N2O3S/c1-7-3-5-8(6-4-7)14(12,13)10(2)9-11/h3-6H,1-2H3
Instrument: Q Exactive Plus Orbitrap Thermo Scientific
Instrument type: LC-ESI-QFT
Ms type: MS2
Ion mode: POSITIVE
Ionization: ESI
Fragmentation mode: HCD
Collision energy: 30 (nominal)
Resolution: 70000
Column name: XBridge C18 3.5um, 2.1x50mm, Waters
Retention time: 8.3 min
Base peak: 186.0583
Precursor m/z: 215.0485
Precursor type: [M+H]+
m/z	relative intensity	assigned
53.0386	20	C4H5+
55.0178	20	C3H3O+
55.0542	146	C4H7+
57.0699	283	C4H9+
59.0491	43	C3H7O+
67.0542	103	C5H7+
69.0699	598	C5H9+
71.0491	82	C4H7O+
71.0855	102	C5H11+
73.0647	18	C4H9O+
81.0699	224	C6H9+
83.049	122	C5H7O+
83.0854	85	C6H11+
85.0648	81	C5H9O+
87.044	32	C4H7O2+
91.0542	40	C7H7+
93.0698	41	C7H9+
95.0492	277	C6H7O+
95.0855	580	C7H11+
96.0525	261	CH8N2O3+
97.0648	66	C6H9O+
99.044	44	C5H7O2+
99.0804	77	C6H11O+
101.0597	501	C5H9O2+
103.0753	31	C5H11O2+
105.0446	41	C6H5N2+
105.0698	69	C8H9+
106.048	34	CH6N4O2+
107.0855	72	C8H11+
109.0648	110	C7H9O+
111.0441	391	C6H7O2+
111.0804	34	C7H11O+
113.0597	33	C6H9O2+
116.0528	29	C5H10NS+
121.0284	504	C7H5O2+
123.0805	75	C8H11O+
125.0598	33	C7H9O2+
127.0752	37	C7H11O2+
129.0546	597	C6H9O3+
137.0598	21	C8H9O2+
141.0005	798	C6H5O2S+
142.0039	999	C7N3O+
147.0653	391	C6H11O4+
155.0702	112	C8H11O3+
158.0271	440	C6H8NO2S+
159.0305	708	C7H3N4O+
169.0272	20	C3H9N2O4S+
183.0224	24	C7H7N2O2S+
189.0169	83	C8H3N3O3+
