Mass spectrum: Fosinopril; LC-ESI-QFT; MS2; CE: 60; R=35000; [M+H]+
Name: Fosinopril
Name: (2S,4S)-4-cyclohexyl-1-[2-[(2-methyl-1-propanoyloxypropoxy)-(4-phenylbutyl)phosphoryl]acetyl]pyrrolidine-2-carboxylic acid
Formula: C30H46NO7P
Exact mass: 563.30119
SMILES: O=C(CP(=O)(CCCCc1ccccc1)OC(OC(=O)CC)C(C)C)N2C[C@@H](C[C@H]2C(O)=O)C3CCCCC3
InChI: InChI=1S/C30H46NO7P/c1-4-28(33)37-30(22(2)3)38-39(36,18-12-11-15-23-13-7-5-8-14-23)21-27(32)31-20-25(19-26(31)29(34)35)24-16-9-6-10-17-24/h5,7-8,13-14,22,24-26,30H,4,6,9-12,15-21H2,1-3H3,(H,34,35)/t25-,26+,30?,39?/m1/s1
Instrument: Q Exactive Orbitrap Thermo Scientific
Instrument type: LC-ESI-QFT
Ms type: MS2
Ion mode: POSITIVE
Ionization: ESI
Fragmentation mode: HCD
Collision energy: 60 (nominal)
Resolution: 35000
Column name: XBridge C18 3.5um, 2.1x50mm, Waters
Retention time: 16.6 min
Base peak: 564.3085
Precursor m/z: 564.3085
Precursor type: [M+H]+
m/z	relative intensity	assigned
55.0542	1	C4H7+
56.0495	1	C3H6N+
67.0542	10	C5H7+
68.0493	1	C4H6N+
70.0651	12	C4H8N+
79.0542	3	C6H7+
81.0699	7	C6H9+
83.0855	5	C6H11+
84.0808	1	C5H10N+
91.0542	16	C7H7+
93.0698	5	C7H9+
94.0651	5	C6H8N+
107.0856	3	C8H11+
109.1012	20	C8H13+
117.0697	5	C9H9+
119.0256	1	C4H8O2P+
121.1011	2	C9H13+
123.1168	1	C9H15+
129.0699	7	C10H9+
131.0855	3	C10H11+
135.1168	2	C10H15+
142.0779	1	C7H13NP+
143.0855	1	C11H11+
152.1435	999	C10H18N+
157.1011	7	C12H13+
161.0361	1	C6H10O3P+
161.0515	9	C10H10P+
176.1435	2	C12H18N+
179.062	16	C10H12OP+
194.154	9	C12H20NO+
195.0568	1	C10H12O2P+
197.0725	52	C10H14O2P+
198.1488	7	C11H20NO2+
203.0621	2	C12H12OP+
221.0727	9	C12H14O2P+
239.0833	4	C12H16O3P+
