Mass spectrum: Doxazosin; LC-ESI-QFT; MS2; CE: 75; R=35000; [M-H]-
Name: Doxazosin
Name: [4-(4-amino-6,7-dimethoxyquinazolin-2-yl)piperazin-1-yl]-(2,3-dihydro-1,4-benzodioxin-3-yl)methanone
Formula: C23H25N5O5
Exact mass: 451.18557
SMILES: COC1=C(C=C2C(=C1)C(=NC(=N2)N3CCN(CC3)C(=O)C4COC5=CC=CC=C5O4)N)OC
InChI: InChI=1S/C23H25N5O5/c1-30-18-11-14-15(12-19(18)31-2)25-23(26-21(14)24)28-9-7-27(8-10-28)22(29)20-13-32-16-5-3-4-6-17(16)33-20/h3-6,11-12,20H,7-10,13H2,1-2H3,(H2,24,25,26)
Instrument: Q Exactive Orbitrap Thermo Scientific
Instrument type: LC-ESI-QFT
Ms type: MS2
Ion mode: NEGATIVE
Ionization: ESI
Fragmentation mode: HCD
Collision energy: 75 (nominal)
Resolution: 35000
Column name: XBridge C18 3.5um, 2.1x50mm, Waters
Retention time: 7.2 min
Base peak: 496.1842
Precursor m/z: 450.1783
Precursor type: [M-H]-
m/z	relative intensity	assigned
59.0138	1	C2H3O2-
65.0145	1	C3HN2-
65.0397	1	C5H5-
65.9986	5	C3NO-
66.0097	1	C2N3-
67.0302	153	C3H3N2-
70.0299	6	C3H4NO-
77.0146	1	C4HN2-
81.0346	10	C5H5O-
81.0459	42	C4H5N2-
84.0567	1	C3H6N3-
90.0349	8	C6H4N-
91.0189	8	C6H3O-
91.0301	1	C5H3N2-
92.0506	60	C6H6N-
93.0346	21	C6H5O-
106.0285	7	C4H2N4-
107.025	1	C5H3N2O-
107.0378	18	C6H5NO-
108.0218	77	C6H4O2-
108.0456	229	C6H6NO-
109.0295	999	C6H5O2-
110.0724	3	C5H8N3-
117.046	1	C7H5N2-
118.03	80	C7H4NO-
119.0251	76	C6H3N2O-
120.0329	3	C6H4N2O-
120.0455	25	C7H6NO-
121.0295	5	C7H5O2-
121.0407	1	C6H5N2O-
122.0361	1	C5H4N3O-
130.0171	4	C7H2N2O-
132.0327	1	C7H4N2O-
132.0455	9	C8H6NO-
133.0292	1	C8H5O2-
133.0408	8	C7H5N2O-
134.0248	44	C7H4NO2-
134.0359	2	C6H4N3O-
134.0611	20	C8H8NO-
135.0452	71	C8H7O2-
142.0412	1	C8H4N3-
144.0203	66	C7H2N3O-
145.0282	35	C7H3N3O-
145.0406	16	C8H5N2O-
146.0247	1	C8H4NO2-
146.0359	9	C7H4N3O-
147.02	77	C7H3N2O2-
148.0277	9	C7H4N2O2-
148.0405	1	C8H6NO2-
149.0357	1	C7H5N2O2-
157.0518	1	C8H5N4-
158.0123	7	C8H2N2O2-
158.0358	1	C8H4N3O-
159.0436	1	C8H5N3O-
159.0565	3	C9H7N2O-
159.0672	1	C8H7N4-
160.0401	1	C9H6NO2-
160.0516	14	C8H6N3O-
161.0354	2	C8H5N2O2-
161.0468	5	C7H5N4O-
162.0436	5	C8H6N2O2-
170.0357	3	C9H4N3O-
171.0438	3	C9H5N3O-
171.0676	4	C9H7N4-
172.0152	58	C8H2N3O2-
172.0516	92	C9H6N3O-
173.0225	3	C8H3N3O2-
173.0357	7	C9H5N2O2-
173.0467	1	C8H5N4O-
173.0593	12	C9H7N3O-
174.0305	1	C8H4N3O2-
174.0547	14	C8H6N4O-
174.067	9	C9H8N3O-
175.0623	1	C8H7N4O-
184.0517	1	C10H6N3O-
185.0469	12	C9H5N4O-
185.0596	2	C10H7N3O-
185.0832	3	C10H9N4-
186.0547	97	C9H6N4O-
186.0668	11	C10H8N3O-
187.0392	9	C9H5N3O2-
187.0625	112	C9H7N4O-
188.034	4	C8H4N4O2-
188.0464	10	C9H6N3O2-
188.0705	19	C9H8N4O-
189.042	31	C8H5N4O2-
199.0386	1	C10H5N3O2-
199.0626	13	C10H7N4O-
200.0344	1	C9H4N4O2-
200.0701	4	C10H8N4O-
201.0415	1	C9H5N4O2-
201.0545	13	C10H7N3O2-
201.0783	28	C10H9N4O-
202.0496	15	C9H6N4O2-
202.0621	4	C10H8N3O2-
203.0574	1	C9H7N4O2-
204.0654	3	C9H8N4O2-
211.0629	1	C11H7N4O-
213.0419	28	C10H5N4O2-
213.0544	5	C11H7N3O2-
213.0783	29	C11H9N4O-
214.0497	170	C10H6N4O2-
215.0575	192	C10H7N4O2-
216.0651	10	C10H8N4O2-
216.0771	1	C11H10N3O2-
217.0729	4	C10H9N4O2-
227.0573	2	C11H7N4O2-
227.0944	1	C12H11N4O-
228.0651	8	C11H8N4O2-
228.0894	1	C11H10N5O-
229.073	35	C11H9N4O2-
229.0966	14	C11H11N5O-
230.0814	6	C11H10N4O2-
230.1047	37	C11H12N5O-
233.0681	9	C10H9N4O3-
241.073	16	C12H9N4O2-
242.0806	2	C12H10N4O2-
247.0839	1	C11H11N4O3-
256.0844	1	C12H10N5O2-
257.0917	4	C12H11N5O2-
258.0995	34	C12H12N5O2-
276.1093	1	C12H14N5O3-
