Mass spectrum: Metronidazole; LC-ESI-ITFT; MS2; CE: 60%; R=7500; [M+H]+
Name: Metronidazole
Name: 2-Methyl-5-nitroimidazole-1-ethanol
Name: 2-(2-methyl-5-nitro-1-imidazolyl)ethanol
Formula: C6H9N3O3
Exact mass: 171.0644
SMILES: CC1=NC=C(N1CCO)[N+]([O-])=O
InChI: InChI=1S/C6H9N3O3/c1-5-7-4-6(9(11)12)8(5)2-3-10/h4,10H,2-3H2,1H3
Instrument: LTQ Orbitrap XL Thermo Scientific
Instrument type: LC-ESI-ITFT
Ms type: MS2
Ion mode: POSITIVE
Ionization: ESI
Fragmentation mode: HCD
Collision energy: 60 % (nominal)
Resolution: 7500
Column name: XBridge C18 3.5um, 2.1x50mm, Waters
Retention time: 2.1 min
Base peak: 172.072
Precursor m/z: 172.0717
Precursor type: [M+H]+
m/z	relative intensity	assigned
56.037	15	C2H4N2+
82.0526	42	C4H6N2+
98.0475	31	C4H6N2O+
111.0427	36	C4H5N3O+
128.0456	999	C4H6N3O2+
