Mass spectrum: Climbazol; LC-ESI-ITFT; MS2; CE: 45%; R=15000; [M+H]+
Name: Climbazol
Name: Climbazole
Name: 1-(4-chloranylphenoxy)-1-imidazol-1-yl-3,3-dimethyl-butan-2-one
Formula: C15H17ClN2O2
Exact mass: 292.0979
SMILES: CC(C)(C)C(=O)C(N1C=CN=C1)OC2=CC=C(C=C2)Cl
InChI: InChI=1S/C15H17ClN2O2/c1-15(2,3)13(19)14(18-9-8-17-10-18)20-12-6-4-11(16)5-7-12/h4-10,14H,1-3H3
Instrument: LTQ Orbitrap XL Thermo Scientific
Instrument type: LC-ESI-ITFT
Ms type: MS2
Ion mode: POSITIVE
Ionization: ESI
Fragmentation mode: HCD
Collision energy: 45 % (nominal)
Resolution: 15000
Column name: XBridge C18 3.5um, 2.1x50mm, Waters
Retention time: 8.1 min
Base peak: 293.1064
Precursor m/z: 293.1051
Precursor type: [M+H]+
m/z	relative intensity	assigned
57.0699	123	C4H9+
67.0542	24	C5H7+
69.0699	698	C5H9+
70.0777	25	C5H10+
81.0447	12	C4H5N2+
82.0525	74	C4H6N2+
98.9996	17	C5H4Cl+
103.0309	8	C5H8Cl+
109.0396	88	C5H5N2O+
113.0152	39	C6H6Cl+
124.0631	6	C6H8N2O+
126.9944	101	C6H4ClO+
129.0101	263	C6H6ClO+
137.1073	34	C8H13N2+
139.0059	10	C6H4ClN2+
141.0102	366	C7H6ClO+
155.0257	176	C8H8ClO+
161.0961	31	C11H13O+
166.1103	21	C9H14N2O+
190.0982	13	C12H14O2+
197.0727	999	C11H14ClO+
