Mass spectrum: Demeton-S-Methyl Sulfone; LC-ESI-QFT; MS2; CE: 30%; R=17500; [M+H]+
Name: Demeton-S-Methyl Sulfone
Name: Demeton-S-methylsulphon
Name: 1-dimethoxyphosphorylsulfanyl-2-ethylsulfonylethane
Formula: C6H15O5PS2
Exact mass: 262.0099
SMILES: CCS(=O)(=O)CCSP(=O)(OC)OC
InChI: InChI=1S/C6H15O5PS2/c1-4-14(8,9)6-5-13-12(7,10-2)11-3/h4-6H2,1-3H3
Instrument: Exploris 240 Orbitrap Thermo Scientific
Instrument type: LC-ESI-QFT
Ms type: MS2
Ion mode: POSITIVE
Ionization: ESI
Fragmentation mode: HCD
Collision energy: 30 % (nominal)
Resolution: 17500
Column name: XBridge C18 3.5um, 2.1x50mm, Waters
Retention time: 2.945 min
Base peak: 263.0169
Precursor m/z: 263.0171
Precursor type: [M+H]+
m/z	relative intensity	assigned
93.0004	8	C2H5O2S+
121.0317	422	C4H9O2S+
124.9819	49	C2H6O2PS+
127.0153	62	C2H8O4P+
137.0089	23	C4H9OS2+
142.9927	118	C2H8O3PS+
152.9769	11	C3H6O3PS+
154.9926	12	C3H8O3PS+
169.0082	999	C4H10O3PS+
170.9873	16	C3H8O4PS+
184.9493	7	C3H6O3PS2+
230.991	196	C5H12O4PS2+
263.0172	546	C6H16O5PS2+
