Mass spectrum: Lacosamide; LC-ESI-QFT; MS2; CE: 150; R=35000; [M+H]+
Name: Lacosamide
Name: N2-Acetyl-N-benzyl-O-methyl-D-serinamide
Name: 2-acetamido-N-benzyl-3-methoxypropanamide
Formula: C13H18N2O3
Exact mass: 250.13174
SMILES: CC(=O)NC(COC)C(=O)NCC1=CC=CC=C1
InChI: InChI=1S/C13H18N2O3/c1-10(16)15-12(9-18-2)13(17)14-8-11-6-4-3-5-7-11/h3-7,12H,8-9H2,1-2H3,(H,14,17)(H,15,16)
Instrument: Q Exactive Plus Orbitrap Thermo Scientific
Instrument type: LC-ESI-QFT
Ms type: MS2
Ion mode: POSITIVE
Ionization: ESI
Fragmentation mode: HCD
Collision energy: 150 (nominal)
Resolution: 35000
Column name: XBridge C18 3.5um, 2.1x50mm, Waters
Retention time: 5.1 min
Base peak: 251.138
Precursor m/z: 251.139
Precursor type: [M+H]+
m/z	relative intensity	assigned
50.0151	8	C4H2+
51.0229	17	C4H3+
53.0022	11	C3HO+
53.9973	1	C2NO+
56.0493	10	C3H6N+
58.0287	1	C2H4NO+
59.0365	69	C2H5NO+
61.0072	1	C5H+
62.0151	6	C5H2+
63.0228	55	C5H3+
65.0385	854	C5H5+
67.9891	2	C3O2+
74.0599	83	C3H8NO+
89.0383	2	C7H5+
91.0541	999	C7H7+
95.049	1	C6H7O+
103.0542	1	C8H7+
115.0541	1	C9H7+
117.0571	1	C8H7N+
130.0646	1	C9H8N+
