Mass spectrum: Mefenamic acid; LC-ESI-ITFT; MS2; CE: 35%; R=7500; [M-H]-
Name: Mefenamic acid
Name: 2-(2,3-dimethylanilino)benzoic acid
Formula: C15H15NO2
Exact mass: 241.1103
SMILES: c1(c(cccc1)C(O)=O)Nc1c(c(ccc1)C)C
InChI: InChI=1S/C15H15NO2/c1-10-6-5-9-13(11(10)2)16-14-8-4-3-7-12(14)15(17)18/h3-9,16H,1-2H3,(H,17,18)
Instrument: LTQ Orbitrap XL Thermo Scientific
Instrument type: LC-ESI-ITFT
Ms type: MS2
Ion mode: NEGATIVE
Ionization: ESI
Fragmentation mode: CID
Collision energy: 35 % (nominal)
Resolution: 7500
Column name: XBridge C18 3.5um, 2.1x50mm, Waters
Retention time: 14.6 min
Base peak: 240.1032
Precursor m/z: 240.103
Precursor type: [M-H]-
m/z	relative intensity	assigned
180.0817	1	C13H10N-
196.1136	999	C14H14N-
