Mass spectrum: Pethoxamide; LC-ESI-ITFT; MS2; CE: 90%; R=7500; [M+H]+
Name: Pethoxamide
Name: 2-chloro-N-(2-ethoxyethyl)-N-(2-methyl-1-phenylprop-1-enyl)acetamide
Formula: C16H22ClNO2
Exact mass: 295.1334
SMILES: ClCC(=O)N(CCOCC)\C(=C(\C)C)c1ccccc1
InChI: InChI=1S/C16H22ClNO2/c1-4-20-11-10-18(15(19)12-17)16(13(2)3)14-8-6-5-7-9-14/h5-9H,4,10-12H2,1-3H3
Instrument: LTQ Orbitrap XL Thermo Scientific
Instrument type: LC-ESI-ITFT
Ms type: MS2
Ion mode: POSITIVE
Ionization: ESI
Fragmentation mode: HCD
Collision energy: 90 % (nominal)
Resolution: 7500
Column name: XBridge C18 3.5um, 2.1x50mm, Waters
Retention time: 11.5 min
Base peak: 296.1418
Precursor m/z: 296.1412
Precursor type: [M+H]+
m/z	relative intensity	assigned
65.0387	5	C5H5+
77.0386	4	C6H5+
79.0543	5	C6H7+
91.0543	999	C7H7+
103.0543	29	C8H7+
104.0494	15	C7H6N+
105.0699	37	C8H9+
115.0542	63	C9H7+
116.0621	217	C9H8+
119.0853	3	C9H11+
128.062	28	C10H8+
129.0699	130	C10H9+
130.0652	6	C9H8N+
131.0855	191	C10H11+
132.0808	3	C9H10N+
143.0604	7	C9H7N2+
144.0801	6	C10H10N+
145.0883	5	C10H11N+
146.0969	5	C10H12N+
155.0602	7	C10H7N2+
158.0961	5	C11H12N+
160.1121	18	C11H14N+
