Mass spectrum: Sulpiride; LC-ESI-QFT; MS2; CE: 45; R=35000; [M+H]+
Name: Sulpiride
Name: Sulpirid
Name: N-[(1-ethyl-2-pyrrolidinyl)methyl]-2-methoxy-5-sulfamoylbenzamide
Formula: C15H23N3O4S
Exact mass: 341.14093
SMILES: CCN1CCCC1CNC(=O)C2=C(C=CC(=C2)S(=O)(=O)N)OC
InChI: InChI=1S/C15H23N3O4S/c1-3-18-8-4-5-11(18)10-17-15(19)13-9-12(23(16,20)21)6-7-14(13)22-2/h6-7,9,11H,3-5,8,10H2,1-2H3,(H,17,19)(H2,16,20,21)
Instrument: Q Exactive Orbitrap Thermo Scientific
Instrument type: LC-ESI-QFT
Ms type: MS2
Ion mode: POSITIVE
Ionization: ESI
Fragmentation mode: HCD
Collision energy: 45 (nominal)
Resolution: 35000
Column name: XBridge C18 3.5um, 2.1x50mm, Waters
Retention time: 1.7 min
Base peak: 342.1483
Precursor m/z: 342.1482
Precursor type: [M+H]+
m/z	relative intensity	assigned
56.0494	1	C3H6N+
58.0652	103	C3H8N+
67.0543	4	C5H7+
69.0699	2	C5H9+
70.0651	1	C4H8N+
84.0808	86	C5H10N+
98.0964	93	C6H12N+
110.0965	8	C7H12N+
112.1121	999	C7H14N+
127.1229	2	C7H15N2+
199.006	2	C8H7O4S+
200.0371	1	C14H4N2+
214.0168	340	C14H2N2O+
231.0437	4	C8H11N2O4S+
285.0907	3	C12H17N2O4S+
297.0903	5	C13H17N2O4S+
340.1319	3	C15H22N3O4S+
342.1483	173	C15H24N3O4S+
