Mass spectrum: Bexarotene; LC-ESI-QFT; MS2; CE: 15; R=35000; [M-H]-
Name: Bexarotene
Name: 4-[1-(3,5,5,8,8-pentamethyl-6,7-dihydronaphthalen-2-yl)ethenyl]benzoic acid
Formula: C24H28O2
Exact mass: 348.20893
SMILES: CC1=CC2=C(C=C1C(=C)C3=CC=C(C=C3)C(=O)O)C(CCC2(C)C)(C)C
InChI: InChI=1S/C24H28O2/c1-15-13-20-21(24(5,6)12-11-23(20,3)4)14-19(15)16(2)17-7-9-18(10-8-17)22(25)26/h7-10,13-14H,2,11-12H2,1,3-6H3,(H,25,26)
Instrument: Q Exactive Orbitrap Thermo Scientific
Instrument type: LC-ESI-QFT
Ms type: MS2
Ion mode: NEGATIVE
Ionization: ESI
Fragmentation mode: HCD
Collision energy: 15 (nominal)
Resolution: 35000
Column name: XBridge C18 3.5um, 2.1x50mm, Waters
Retention time: 19.0 min
Base peak: 347.2017
Precursor m/z: 347.2017
Precursor type: [M-H]-
m/z	relative intensity	assigned
303.2116	45	C23H27-
347.2014	999	C24H27O2-
