Mass spectrum: Diphenamid; LC-ESI-QFT; MS2; CE: 150%; R=17500; [M+H]+
Name: Diphenamid
Name: N,N-dimethyl-2,2-diphenylacetamide
Formula: C16H17NO
Exact mass: 239.1310
SMILES: CN(C)C(=O)C(C1=CC=CC=C1)C2=CC=CC=C2
InChI: InChI=1S/C16H17NO/c1-17(2)16(18)15(13-9-5-3-6-10-13)14-11-7-4-8-12-14/h3-12,15H,1-2H3
Instrument: Exploris 240 Orbitrap Thermo Scientific
Instrument type: LC-ESI-QFT
Ms type: MS2
Ion mode: POSITIVE
Ionization: ESI
Fragmentation mode: HCD
Collision energy: 150 % (nominal)
Resolution: 17500
Column name: XBridge C18 3.5um, 2.1x50mm, Waters
Retention time: 7.502 min
Base peak: 274.2526
Precursor m/z: 240.1383
Precursor type: [M+H]+
m/z	relative intensity	assigned
53.0385	20	C4H5+
65.0386	216	C5H5+
72.0444	153	C3H6NO+
77.0386	140	C6H5+
78.0466	40	C6H6+
91.0542	725	C7H7+
95.0494	31	C6H7O+
102.0467	14	C8H6+
104.0499	32	C7H6N+
115.0542	156	C9H7+
117.0578	35	C8H7N+
118.0651	999	C8H8N+
119.0729	25	C8H9N+
128.062	141	C10H8+
132.0814	34	C9H10N+
134.0965	111	C9H12N+
139.0541	33	C11H7+
141.0701	50	C11H9+
151.054	61	C12H7+
152.0621	566	C12H8+
164.0623	55	C13H8+
165.0699	732	C13H9+
166.0785	19	C13H10+
