Mass spectrum: Flunitrazepam; LC-ESI-QFT; MS2; CE: 150; R=35000; [M+H]+
Name: Flunitrazepam
Name: 5-(2-fluorophenyl)-1-methyl-7-nitro-3H-1,4-benzodiazepin-2-one
Formula: C16H12FN3O3
Exact mass: 313.08627
SMILES: CN1C(=O)CN=C(C2=C1C=CC(=C2)[N+](=O)[O-])C3=CC=CC=C3F
InChI: InChI=1S/C16H12FN3O3/c1-19-14-7-6-10(20(22)23)8-12(14)16(18-9-15(19)21)11-4-2-3-5-13(11)17/h2-8H,9H2,1H3
Instrument: Q Exactive Plus Orbitrap Thermo Scientific
Instrument type: LC-ESI-QFT
Ms type: MS2
Ion mode: POSITIVE
Ionization: ESI
Fragmentation mode: HCD
Collision energy: 150 (nominal)
Resolution: 35000
Column name: XBridge C18 3.5um, 2.1x50mm, Waters
Retention time: 7.9 min
Base peak: 314.0927
Precursor m/z: 314.0935
Precursor type: [M+H]+
m/z	relative intensity	assigned
50.0151	51	C4H2+
51.0229	31	C4H3+
52.0181	8	C3H2N+
52.0308	2	C4H4+
53.0022	8	C3HO+
53.0386	41	C4H5+
54.0338	3	C3H4N+
54.0464	3	C4H6+
55.0178	2	C3H3O+
57.0135	26	C3H2F+
58.0287	24	C2H4NO+
59.0291	6	C3H4F+
61.0072	6	C5H+
62.0151	43	C5H2+
63.0229	202	C5H3+
64.0181	10	C4H2N+
64.0307	43	C5H4+
65.0386	183	C5H5+
66.0338	2	C4H4N+
66.0464	22	C5H6+
67.0416	7	C4H5N+
70.0212	2	C4H3F+
74.015	39	C6H2+
75.0229	159	C6H3+
76.0181	22	C5H2N+
76.0307	29	C6H4+
77.0385	72	C6H5+
78.0338	40	C5H4N+
78.0464	29	CH5FN3+
79.0416	7	C5H5N+
79.0542	10	C6H7+
80.0494	17	C5H6N+
81.0134	11	C5H2F+
81.0334	7	C5H5O+
83.0291	100	C5H4F+
86.015	13	
87.0229	24	C7H3+
88.0182	6	C6H2N+
88.0307	22	C7H4+
89.0385	683	C7H5+
90.0339	26	C6H4N+
90.0464	88	C7H6+
91.0416	28	C6H5N+
91.0542	352	C7H7+
92.0257	2	C6H4O+
92.0494	19	C6H6N+
93.0573	3	C6H7N+
94.0213	11	C6H3F+
94.0413	3	C6H6O+
95.0291	7	C6H4F+
95.0491	100	C6H7O+
96.0369	18	C6H5F+
96.0443	26	C5H6NO+
98.015	17	C8H2+
99.0229	45	C8H3+
100.0181	6	C7H2N+
100.0308	7	C8H4+
101.026	3	C7H3N+
101.0386	6	C8H5+
102.0338	45	C7H4N+
102.0463	13	C8H6+
103.0416	7	C7H5N+
103.0543	1	C8H7+
104.0494	54	C7H6N+
105.0447	66	C6H5N2+
106.0216	1	C7H3F+
106.0651	9	C7H8N+
107.0291	92	C7H4F+
108.0244	1	C6H3FN+
108.0368	6	C7H5F+
109.0448	61	C7H6F+
110.0599	3	C6H8NO+
111.0229	3	C9H3+
112.0176	1	C8H2N+
113.0385	26	C9H5+
114.0338	27	C8H4N+
114.0462	11	
115.0416	18	C8H5N+
115.0542	121	C9H7+
116.0369	14	C7H4N2+
116.0494	77	C8H6N+
117.0573	144	C8H7N+
118.0651	73	C8H8N+
119.0492	3	C8H7O+
120.037	62	C8H5F+
120.0439	15	C7H6NO+
121.0323	8	C7H4FN+
122.04	13	C7H5FN+
123.0228	40	
123.0354	13	C6H4FN2+
124.0181	2	C9H2N+
124.0307	10	C10H4+
125.0386	102	C10H5+
126.034	3	C9H4N+
126.0464	41	C10H6+
127.0416	6	C9H5N+
127.0541	18	
128.0495	14	C9H6N+
128.0621	14	C10H8+
129.0447	33	C8H5N2+
130.04	56	C7H4N3+
131.0291	31	C9H4F+
132.0245	3	C8H3FN+
132.0369	6	C9H5F+
132.0445	1	C8H6NO+
133.0448	375	C9H6F+
134.0399	18	C8H5FN+
134.06	9	C8H8NO+
135.0479	7	C8H6FN+
137.0386	36	C11H5+
138.0337	8	C10H4N+
138.0464	35	C11H6+
139.0542	157	C11H7+
140.0495	75	C10H6N+
140.062	9	C11H8+
142.0416	2	C10H6O+
142.0527	18	C9H6N2+
143.0293	3	C10H4F+
143.049	13	
143.0606	7	C9H7N2+
144.037	137	C10H5F+
145.0325	2	C9H4FN+
145.0447	17	C10H6F+
145.0648	10	C10H9O+
146.0402	8	C9H5FN+
146.0526	99	C10H7F+
147.0352	2	C8H4FN2+
147.0479	2	C9H6FN+
149.0386	143	C12H5+
150.0464	481	C12H6+
151.0418	25	C11H5N+
151.0542	136	C12H7+
152.0495	30	C11H6N+
152.062	124	C12H8+
153.0336	12	C11H5O+
153.0446	20	C10H5N2+
153.0573	28	C11H7N+
153.0698	6	C12H9+
154.0402	7	C9H4N3+
154.0651	9	C11H8N+
155.0292	8	C11H4F+
155.0491	6	C11H7O+
155.0603	24	C10H7N2+
156.037	7	C11H5F+
156.0573	2	C11H8O+
157.0448	330	C11H6F+
158.0401	83	C10H5FN+
158.0525	24	C11H7F+
159.0606	15	C11H8F+
161.0387	21	C13H5+
162.0464	52	C13H6+
163.0542	708	C13H7+
164.0496	118	C12H6N+
164.0619	162	C8H7FN3+
165.0699	405	C13H9+
166.0651	30	C12H8N+
166.0774	2	C8H9FN3+
167.0491	41	C12H7O+
167.0729	10	C12H9N+
168.037	111	C12H5F+
168.044	5	C11H6NO+
168.0569	61	C7H7FN3O+
169.0448	69	C12H6F+
169.0648	294	C12H9O+
170.0527	683	C12H7F+
170.0596	38	C11H8NO+
171.0479	36	C11H6FN+
171.0602	23	C12H8F+
172.0557	19	C11H7FN+
173.0395	8	C11H6FO+
173.0509	37	C10H6FN2+
174.0464	85	C14H6+
175.0417	73	C13H5N+
175.0539	41	
176.0495	93	C13H6N+
176.0618	50	C9H7FN3+
177.0446	19	C12H5N2+
177.0573	321	C13H7N+
178.0525	9	C12H6N2+
178.0651	90	C13H8N+
179.0603	148	C12H7N2+
180.037	12	C13H5F+
180.0444	23	C12H6NO+
180.0558	10	C11H6N3+
180.0806	3	C13H10N+
181.0448	360	C13H6F+
182.0406	33	C12H5FN+
182.0526	219	C13H7F+
183.0605	999	C13H8F+
184.0558	65	C12H7FN+
185.0642	40	C12H8FN+
186.0475	80	C12H7FO+
187.0553	227	C12H8FO+
188.0496	60	C14H6N+
189.0444	2	C13H5N2+
189.0572	32	C14H7N+
190.0651	311	C14H8N+
191.0603	10	C13H7N2+
191.0728	95	C14H9N+
192.0369	3	C14H5F+
192.0448	2	C13H6NO+
192.0678	12	C13H8N2+
192.0807	11	C14H10N+
193.0449	5	C14H6F+
193.0523	8	C13H7NO+
193.0648	48	C14H9O+
194.0524	103	C14H7F+
194.0601	204	C13H8NO+
195.0479	144	C13H6FN+
195.0618	15	
196.0555	131	C13H7FN+
196.0676	17	C14H9F+
197.0509	165	C12H6FN2+
197.0634	53	C13H8FN+
198.0715	13	C13H9FN+
199.0416	3	C15H5N+
199.0558	2	C13H8FO+
201.0573	99	C15H7N+
202.0526	33	C14H6N2+
202.0651	30	C15H8N+
203.0603	154	C14H7N2+
203.0724	14	C15H9N+
204.0557	160	C13H6N3+
204.0676	12	C14H8N2+
204.0808	8	C15H10N+
205.076	80	C14H9N2+
206.0401	11	C14H5FN+
207.0479	3	C14H6FN+
207.0676	2	C14H9NO+
208.0557	87	C14H7FN+
209.0635	79	C14H8FN+
210.0592	9	C13H7FN2+
210.0713	49	C14H9FN+
211.079	20	C14H10FN+
212.0505	2	C13H7FNO+
212.0746	2	C13H9FN2+
214.0426	42	C13H7FO2+
214.0665	5	C13H9FNO+
216.0682	20	C15H8N2+
217.0761	32	C15H9N2+
218.0603	3	C15H8NO+
218.0837	17	C15H10N2+
219.0477	10	C15H6FN+
219.0916	9	C15H11N2+
220.0558	8	C15H7FN+
220.0757	10	C15H10NO+
221.0491	3	C11H8FNO3+
221.0634	21	C15H8FN+
222.0462	6	C13H5FN3+
222.0712	29	C15H9FN+
223.0666	185	C14H8FN2+
224.074	1	C14H9FN2+
228.0555	6	C15H6N3+
229.0516	1	C16H7NO+
236.0743	10	C15H9FN2+
237.0822	11	C15H10FN2+
238.0664	8	C15H9FNO+
