Mass spectrum: Droperidol; LC-ESI-QFT; MS2; CE: 30; R=35000; [M+H]+
Name: Droperidol
Name: 3-[1-[4-(4-fluorophenyl)-4-oxobutyl]-3,6-dihydro-2H-pyridin-4-yl]-1H-benzimidazol-2-one
Formula: C22H22FN3O2
Exact mass: 379.16961
SMILES: C1CN(CC=C1N2C3=CC=CC=C3NC2=O)CCCC(=O)C4=CC=C(C=C4)F
InChI: InChI=1S/C22H22FN3O2/c23-17-9-7-16(8-10-17)21(27)6-3-13-25-14-11-18(12-15-25)26-20-5-2-1-4-19(20)24-22(26)28/h1-2,4-5,7-11H,3,6,12-15H2,(H,24,28)
Instrument: Q Exactive Plus Orbitrap Thermo Scientific
Instrument type: LC-ESI-QFT
Ms type: MS2
Ion mode: POSITIVE
Ionization: ESI
Fragmentation mode: HCD
Collision energy: 30 (nominal)
Resolution: 35000
Column name: XBridge C18 3.5um, 2.1x50mm, Waters
Retention time: 5.9 min
Base peak: 380.176
Precursor m/z: 380.1769
Precursor type: [M+H]+
m/z	relative intensity	assigned
123.0237	19	C7H4FO+
165.071	882	C10H10FO+
187.0866	13	C11H11N2O+
194.0976	999	C11H13FNO+
201.1024	1	C12H13N2O+
246.1294	2	C15H17FNO+
380.1768	9	C22H23FN3O2+
