Mass spectrum: Fluazifop; LC-ESI-ITFT; MS2; CE: 60%; R=7500; [M-H]-
Name: Fluazifop
Name: 2-[4-[5-(trifluoromethyl)pyridin-2-yl]oxyphenoxy]propanoic acid
Formula: C15H12F3NO4
Exact mass: 327.0724
SMILES: CC(C(=O)O)OC1=CC=C(C=C1)OC2=NC=C(C=C2)C(F)(F)F
InChI: InChI=1S/C15H12F3NO4/c1-9(14(20)21)22-11-3-5-12(6-4-11)23-13-7-2-10(8-19-13)15(16,17)18/h2-9H,1H3,(H,20,21)
Instrument: LTQ Orbitrap XL Thermo Scientific
Instrument type: LC-ESI-ITFT
Ms type: MS2
Ion mode: NEGATIVE
Ionization: ESI
Fragmentation mode: HCD
Collision energy: 60 % (nominal)
Resolution: 7500
Column name: XBridge C18 3.5um, 2.1x50mm, Waters
Retention time: 10.8 min
Base peak: 326.0639
Precursor m/z: 326.0646
Precursor type: [M-H]-
m/z	relative intensity	assigned
71.014	53	C3H3O2-
108.0216	806	C6H4O2-
150.0356	51	C11H4N-
162.0171	120	C6H3F3NO-
170.0407	45	C11H5FN-
178.047	146	C10H6F2N-
186.0367	61	C11H5FNO-
190.0476	79	C11H6F2N-
198.0534	270	C10H7F3N-
199.0251	210	C9H4F3NO-
200.0329	64	C9H5F3NO-
206.0421	854	C11H6F2NO-
210.0539	153	C11H7F3N-
212.032	187	C10H5F3NO-
226.0482	999	C11H7F3NO-
234.0361	130	C12H6F2NO2-
253.0355	366	C12H6F3NO2-
254.0431	936	C12H7F3NO2-
