Mass spectrum: Exemestane; LC-ESI-ITFT; MS2; CE: 75%; R=15000; [M+H]+
Name: Exemestane
Name: (8R,9S,10R,13S,14S)-10,13-dimethyl-6-methylene-7,8,9,11,12,14,15,16-octahydrocyclopenta[a]phenanthrene-3,17-dione
Formula: C20H24O2
Exact mass: 296.1776
SMILES: CC12CCC3C(C1CCC2=O)CC(=C)C4=CC(=O)C=CC34C
InChI: InChI=1S/C20H24O2/c1-12-10-14-15-4-5-18(22)20(15,3)9-7-16(14)19(2)8-6-13(21)11-17(12)19/h6,8,11,14-16H,1,4-5,7,9-10H2,2-3H3/t14-,15-,16-,19+,20-/m0/s1
Instrument: LTQ Orbitrap XL Thermo Scientific
Instrument type: LC-ESI-ITFT
Ms type: MS2
Ion mode: POSITIVE
Ionization: ESI
Fragmentation mode: HCD
Collision energy: 75 % (nominal)
Resolution: 15000
Column name: XBridge C18 3.5um, 2.1x50mm, Waters
Retention time: 10.1 min
Base peak: 297.1859
Precursor m/z: 297.1849
Precursor type: [M+H]+
m/z	relative intensity	assigned
67.0542	67	C5H7+
77.0386	64	C6H5+
79.0542	664	C6H7+
81.0699	119	C6H9+
91.0542	526	C7H7+
93.0699	999	C7H9+
95.0855	93	C7H11+
97.0648	71	C6H9O+
103.0543	35	C8H7+
105.0447	34	C6H5N2+
105.0699	676	C8H9+
107.0491	47	C7H7O+
107.0855	542	C8H11+
109.0648	42	C7H9O+
115.0541	41	C9H7+
117.07	114	C9H9+
119.0855	231	C9H11+
121.0648	923	C8H9O+
121.1011	296	C9H13+
128.0618	52	C10H8+
129.0699	140	C10H9+
130.0779	78	C10H10+
131.0855	207	C10H11+
132.0569	106	C9H8O+
133.1011	54	C10H13+
135.0803	191	C9H11O+
141.0702	43	C11H9+
143.0855	86	C11H11+
145.0649	73	C10H9O+
145.1013	112	C11H13+
146.0728	58	C10H10O+
147.0805	212	C10H11O+
149.096	104	C10H13O+
159.0802	100	C11H11O+
161.0957	45	C11H13O+
171.0811	67	C12H11O+
171.1166	41	C13H15+
173.096	78	C12H13O+
185.0958	93	C13H13O+
197.0955	37	C14H13O+
211.1115	36	C15H15O+
