Mass spectrum: Chlorothalonil TP SYN548581; LC-ESI-QFT; MS2; CE: 75%; R=15000; [M+H]+
Name: Chlorothalonil TP SYN548581
Name: 4-carbamoyl-2,3,5-trichloro-6-cyanobenzenesulfonic acid
Formula: C8H3Cl3N2O4S
Exact mass: 327.8879
SMILES: NC(=O)C1=C(Cl)C(Cl)=C(C(C#N)=C1Cl)S(O)(=O)=O
InChI: InChI=1S/C8H3Cl3N2O4S/c9-4-2(1-12)7(18(15,16)17)6(11)5(10)3(4)8(13)14/h(H2,13,14)(H,15,16,17)
Instrument: Orbitrap Exploris 240 Thermo Scientific
Instrument type: LC-ESI-QFT
Ms type: MS2
Ion mode: POSITIVE
Ionization: ESI
Fragmentation mode: HCD
Collision energy: 75 % (nominal)
Resolution: 15000
Column name: Atlantis C18 3um, 3.0x150mm, Waters
Retention time: 10.461 min
Base peak: 132.9582
Precursor m/z: 328.8952
Precursor type: [M+H]+
Precursor intensity: 4062616.5
m/z	relative intensity	assigned
63.9852	64	H2NOS+
72.984	39	C3H2Cl+
82.9449	118	CHCl2+
97.9793	40	C4HClN+
106.9452	155	C3HCl2+
109.9793	56	C5HClN+
122.9869	62	C6H2ClN+
130.9449	234	C5HCl2+
131.9404	62	C4Cl2N+
136.9904	52	C6H2ClN2+
139.0058	33	C6H4ClN2+
145.956	137	C5H2Cl2N+
146.9398	36	C5HCl2O+
155.9405	82	C6Cl2N+
157.9559	963	C6H2Cl2N+
158.9637	639	C6H3Cl2N+
164.9061	169	C5Cl3+
166.9216	616	C5H2Cl3+
172.967	253	C6H3Cl2N2+
173.9512	105	C6H2Cl2NO+
175.9667	46	C6H4Cl2NO+
181.9327	61	C5H3Cl3N+
182.9514	64	C4H4ClO4S+
183.9591	65	C7H2Cl2N2+
184.9429	34	C7HCl2NO+
185.9509	245	C7H2Cl2NO+
186.9352	47	C4H4Cl3NO+
186.9582	57	C7H3Cl2NO+
191.917	999	C6HCl3N+
193.9329	155	C6H3Cl3N+
200.9625	44	C7H3Cl2N2O+
203.9168	90	C7HCl3N+
204.9016	68	C7Cl3O+
206.9279	46	C6H2Cl3N2+
219.9121	86	C7HCl3NO+
221.9282	150	C7H3Cl3NO+
222.912	178	C7H2Cl3O2+
234.9243	27	C7H3Cl2NO2S+
247.9065	332	C8HCl3NO2+
