Mass spectrum: Penflufen; LC-ESI-QFT; MS2; CE: 90%; R=17500; [M+H]+
Name: Penflufen
Name: 5-fluoro-1,3-dimethyl-N-[2-(4-methylpentan-2-yl)phenyl]pyrazole-4-carboxamide
Formula: C18H24FN3O
Exact mass: 317.1903
SMILES: CC1=NN(C(=C1C(=O)NC2=CC=CC=C2C(C)CC(C)C)F)C
InChI: InChI=1S/C18H24FN3O/c1-11(2)10-12(3)14-8-6-7-9-15(14)20-18(23)16-13(4)21-22(5)17(16)19/h6-9,11-12H,10H2,1-5H3,(H,20,23)
Instrument: Exploris 240 Orbitrap Thermo Scientific
Instrument type: LC-ESI-QFT
Ms type: MS2
Ion mode: POSITIVE
Ionization: ESI
Fragmentation mode: HCD
Collision energy: 90 % (nominal)
Resolution: 17500
Column name: XBridge C18 3.5um, 2.1x50mm, Waters
Retention time: 10.753 min
Base peak: 306.1031
Precursor m/z: 318.1976
Precursor type: [M+H]+
m/z	relative intensity	assigned
54.0338	3	C3H4N+
57.0697	14	C4H9+
59.029	15	C3H4F+
60.0243	62	C2H3FN+
65.0385	19	C5H5+
72.0242	19	C3H3FN+
82.0285	11	C4H4NO+
84.0243	72	C4H3FN+
85.0448	32	C5H6F+
92.0493	9	C6H6N+
100.0192	11	C4H3FNO+
115.0666	24	C5H8FN2+
141.0457	999	C6H6FN2O+
