Mass spectrum: Linoleic acid; LC-ESI-QFT; MS2; CE: 90; R=35000; [M+H]+
Name: Linoleic acid
Name: (9Z,12Z)-octadeca-9,12-dienoic acid
Formula: C18H32O2
Exact mass: 280.24023
SMILES: CCCCC/C=C\C/C=C\CCCCCCCC(=O)O
InChI: InChI=1S/C18H32O2/c1-2-3-4-5-6-7-8-9-10-11-12-13-14-15-16-17-18(19)20/h6-7,9-10H,2-5,8,11-17H2,1H3,(H,19,20)/b7-6-,10-9-
Instrument: Q Exactive Orbitrap Thermo Scientific
Instrument type: LC-ESI-QFT
Ms type: MS2
Ion mode: POSITIVE
Ionization: ESI
Fragmentation mode: HCD
Collision energy: 90 (nominal)
Resolution: 35000
Column name: XBridge C18 3.5um, 2.1x50mm, Waters
Retention time: 19.4 min
Base peak: 298.274
Precursor m/z: 281.2475
Precursor type: [M+H]+
m/z	relative intensity	assigned
53.0023	39	C3HO+
53.0387	56	C4H5+
53.9975	4	C2NO+
55.018	20	C3H3O+
55.0543	287	C4H7+
57.0336	9	C3H5O+
57.0699	87	C4H9+
59.0492	35	C3H7O+
65.0386	271	C5H5+
67.0542	999	C5H7+
69.0699	555	C5H9+
71.0491	58	C4H7O+
71.0856	6	C5H11+
73.0648	9	C4H9O+
77.0386	32	C6H5+
79.0542	568	C6H7+
81.0699	804	C6H9+
83.0491	66	C5H7O+
83.0855	112	C6H11+
85.0284	8	C4H5O2+
85.0648	40	C5H9O+
91.0542	617	C7H7+
93.0334	27	C6H5O+
93.0699	319	C7H9+
95.0491	178	C6H7O+
95.0855	404	C7H11+
97.0648	59	C6H9O+
97.1012	9	C7H13+
99.0805	5	C6H11O+
103.0542	34	C8H7+
105.0448	62	C6H5N2+
105.0699	345	C8H9+
107.0856	103	C8H11+
109.0647	51	C7H9O+
109.1012	63	C8H13+
111.0441	34	C6H7O2+
111.0803	4	C7H11O+
115.0542	27	C9H7+
117.0698	38	C9H9+
119.0855	108	C9H11+
121.0285	44	C7H5O2+
121.0396	44	C6H5N2O+
121.0648	5	C8H9O+
121.1011	23	C9H13+
123.0435	5	C7H7O2+
123.0806	38	C8H11O+
128.0621	21	C10H8+
129.0697	17	C10H9+
131.0857	39	C10H11+
133.1012	41	C10H13+
137.096	6	C9H13O+
141.0698	9	C11H9+
142.078	5	C11H10+
143.0858	6	C11H11+
145.0648	7	C10H9O+
145.1012	4	C11H13+
147.1166	5	C11H15+
149.0233	49	C8H5O3+
156.0937	5	C12H12+
