Mass spectrum: Telmisartan; LC-ESI-ITFT; MS2; CE: 90%; R=30000; [M+H]+
Name: Telmisartan
Name: 4'-[(1,7'-dimethyl-2'-propyl-1H,3'H-2,5'-bibenzimidazol-3'-yl)methyl]biphenyl-2-carboxylic acid
Name: 2-[4-[[4-methyl-6-(1-methyl-2-benzimidazolyl)-2-propyl-1-benzimidazolyl]methyl]phenyl]benzoic acid
Formula: C33H30N4O2
Exact mass: 514.2369
SMILES: n1(c(nc2c1cccc2)c1cc(c2c(n(c(CCC)n2)Cc2ccc(cc2)c2c(cccc2)C(O)=O)c1)C)C
InChI: InChI=1S/C33H30N4O2/c1-4-9-30-35-31-21(2)18-24(32-34-27-12-7-8-13-28(27)36(32)3)19-29(31)37(30)20-22-14-16-23(17-15-22)25-10-5-6-11-26(25)33(38)39/h5-8,10-19H,4,9,20H2,1-3H3,(H,38,39)
Instrument: LTQ Orbitrap XL Thermo Scientific
Instrument type: LC-ESI-ITFT
Ms type: MS2
Ion mode: POSITIVE
Ionization: ESI
Fragmentation mode: HCD
Collision energy: 90 % (nominal)
Resolution: 30000
Column name: XBridge C18 3.5um, 2.1x50mm, Waters
Retention time: 9.2 min
Base peak: 515.2452
Precursor m/z: 515.2442
Precursor type: [M+H]+
m/z	relative intensity	assigned
65.0386	3	C5H5+
77.0386	7	C6H5+
79.0543	20	C6H7+
91.0542	3	C7H7+
92.0495	32	C6H6N+
104.0495	7	C7H6N+
105.0336	6	C7H5O+
105.0448	6	C6H5N2+
106.0652	73	C7H8N+
107.0728	2	C7H9N+
115.0543	23	C9H7+
116.0495	4	C8H6N+
117.0574	3	C8H7N+
118.0654	3	C8H8N+
119.0605	10	C7H7N2+
120.0682	3	C7H8N2+
128.0621	14	C10H8+
129.045	7	C8H5N2+
129.07	17	C10H9+
131.0604	30	C8H7N2+
132.0684	5	C8H8N2+
133.0285	22	C8H5O2+
133.0761	30	C8H9N2+
139.0541	5	C11H7+
141.0699	18	C11H9+
142.0522	2	C9H6N2+
143.0604	32	C9H7N2+
144.0681	13	C9H8N2+
145.0761	18	C9H9N2+
146.0845	2	C9H10N2+
151.0544	4	C12H7+
152.0621	79	C12H8+
153.0699	35	C12H9+
154.0777	15	C12H10+
155.0605	12	C10H7N2+
155.0856	39	C12H11+
156.0683	6	C10H8N2+
157.076	18	C10H9N2+
158.0839	14	C10H10N2+
159.0915	3	C10H11N2+
165.07	252	C13H9+
166.0777	24	C13H10+
167.0856	12	C13H11+
168.057	23	C12H8O+
168.0809	2	C12H10N+
169.0762	9	C11H9N2+
170.0713	24	C10H8N3+
171.0917	13	C11H11N2+
176.0582	6	C9H8N2O2+
181.0649	7	C13H9O+
183.0803	19	C13H11O+
184.0872	5	C11H10N3+
185.1074	2	C12H13N2+
192.0683	2	C13H8N2+
193.0649	87	C14H9O+
195.0918	6	C13H11N2+
198.1028	1	C12H12N3+
206.0839	20	C14H10N2+
207.0919	27	C14H11N2+
209.1073	4	C14H13N2+
211.0756	44	C14H11O2+
220.087	59	C14H10N3+
221.1074	24	C15H13N2+
222.1033	2	C16H14O+
222.1155	9	C15H14N2+
231.0793	12	C15H9N3+
232.0872	21	C15H10N3+
233.0949	23	C15H11N3+
234.1027	84	C15H12N3+
235.1115	4	C17H15O+
236.1184	10	C15H14N3+
244.0874	9	C16H10N3+
246.0901	45	C15H10N4+
246.1027	29	C16H12N3+
247.0979	15	C15H11N4+
247.1105	35	C16H13N3+
248.1061	9	C15H12N4+
248.1186	14	C16H14N3+
254.1052	7	C15H14N2O2+
259.0979	51	C16H11N4+
260.1058	171	C16H12N4+
261.1137	999	C18H15NO+
263.13	4	C18H17NO+
272.1058	9	C17H12N4+
273.1135	106	C17H13N4+
274.1214	159	C17H14N4+
275.1292	457	C17H15N4+
276.1372	473	C17H16N4+
277.1399	11	C12H17N6O2+
279.1004	6	C16H13N3O2+
286.1213	7	C18H14N4+
287.1291	86	C18H15N4+
288.1372	33	C18H16N4+
289.1447	238	C18H17N4+
290.1481	8	C13H18N6O2+
301.1447	18	C19H17N4+
302.1528	5	C19H18N4+
303.1605	98	C19H19N4+
305.176	8	C19H21N4+
409.1454	2	C28H17N4+
411.1617	2	C30H21NO+
423.1605	8	C29H19N4+
424.1685	3	C29H20N4+
425.1766	8	C29H21N4+
437.1388	2	C29H17N4O+
437.1743	2	C30H21N4+
439.1903	3	C30H23N4+
441.2056	2	C30H25N4+
451.1559	9	C30H19N4O+
465.1714	4	C31H21N4O+
469.1649	4	C30H21N4O2+
483.1801	4	C31H23N4O2+
485.1988	6	C31H25N4O2+
497.2351	3	C33H29N4O+
