Mass spectrum: Tetraconazole; LC-ESI-QFT; MS2; CE: 180; R=35000; [M+H]+
Name: Tetraconazole
Name: 1-[2-(2,4-dichlorophenyl)-3-(1,1,2,2-tetrafluoroethoxy)propyl]-1,2,4-triazole
Formula: C13H11Cl2F4N3O
Exact mass: 371.02153
SMILES: C1=CC(=C(C=C1Cl)Cl)C(CN2C=NC=N2)COC(C(F)F)(F)F
InChI: InChI=1S/C13H11Cl2F4N3O/c14-9-1-2-10(11(15)3-9)8(4-22-7-20-6-21-22)5-23-13(18,19)12(16)17/h1-3,6-8,12H,4-5H2
Instrument: Q Exactive Plus Orbitrap Thermo Scientific
Instrument type: LC-ESI-QFT
Ms type: MS2
Ion mode: POSITIVE
Ionization: ESI
Fragmentation mode: HCD
Collision energy: 180 (nominal)
Resolution: 35000
Column name: XBridge C18 3.5um, 2.1x50mm, Waters
Retention time: 11.8 min
Base peak: 372.0281
Precursor m/z: 372.0288
Precursor type: [M+H]+
m/z	relative intensity	assigned
50.015	5	C4H2+
51.0041	67	CHF2+
53.0022	6	C3HO+
57.0135	9	C3H2F+
61.0073	39	C5H+
62.0151	224	C5H2+
63.0229	508	C5H3+
64.0308	7	C5H4+
65.0386	36	C5H5+
66.9745	4	CHClF+
70.04	182	C2H4N3+
71.9761	2	C3HCl+
72.9839	684	C3H2Cl+
74.0151	13	C6H2+
74.9996	8	C3H4Cl+
75.0229	18	C6H3+
76.0307	4	C6H4+
79.0178	12	C5H3O+
81.0135	3	C5H2F+
82.04	1	C3H4N3+
82.945	64	CHCl2+
83.0292	5	C5H4F+
86.0151	20	C7H2+
87.023	44	C7H3+
88.0308	70	C7H4+
89.0386	999	C2H4FN3+
90.0464	3	C7H6+
90.9746	3	C3HClF+
95.0492	3	C6H7O+
96.984	156	C5H2Cl+
98.9996	113	C5H4Cl+
102.0464	4	C8H6+
105.0449	2	C6H5N2+
106.945	18	C3HCl2+
107.0292	17	C7H4F+
108.9607	3	C3H3Cl2+
113.0386	17	C9H5+
114.0464	4	C9H6+
115.0543	110	C9H7+
118.0416	1	C8H6O+
120.0206	14	C4H7ClNO+
122.9996	92	C7H4Cl+
124.0076	10	C7H5Cl+
132.057	3	C9H8O+
132.9606	26	C5H3Cl2+
133.0448	10	C9H6F+
158.9764	2	C2H4Cl2FN3+
