Mass spectrum: Afidopyropen; LC-ESI-QFT; MS2; CE: 150%; R=17500; [M+H]+
Name: Afidopyropen
Name: [5-(cyclopropanecarbonyloxy)-9,18-dihydroxy-2,6,10-trimethyl-16-oxo-14-pyridin-3-yl-11,15-dioxatetracyclo[8.8.0.02,7.012,17]octadeca-12(17),13-dien-6-yl]methyl cyclopropanecarboxylate
Formula: C33H39NO9
Exact mass: 593.2625
SMILES: CC12CCC(C(C1CC(C3(C2C(C4=C(O3)C=C(OC4=O)C5=CN=CC=C5)O)C)O)(C)COC(=O)C6CC6)OC(=O)C7CC7
InChI: InChI=1S/C33H39NO9/c1-31-11-10-24(42-29(38)18-8-9-18)32(2,16-40-28(37)17-6-7-17)22(31)14-23(35)33(3)27(31)26(36)25-21(43-33)13-20(41-30(25)39)19-5-4-12-34-15-19/h4-5,12-13,15,17-18,22-24,26-27,35-36H,6-11,14,16H2,1-3H3
Instrument: Exploris 240 Orbitrap Thermo Scientific
Instrument type: LC-ESI-QFT
Ms type: MS2
Ion mode: POSITIVE
Ionization: ESI
Fragmentation mode: HCD
Collision energy: 150 % (nominal)
Resolution: 17500
Column name: XBridge C18 3.5um, 2.1x50mm, Waters
Retention time: 8.509 min
Base peak: 594.2694
Precursor m/z: 594.2698
Precursor type: [M+H]+
m/z	relative intensity	assigned
65.0386	807	C5H5+
68.9971	303	C3HO2+
69.0335	43	C4H5O+
75.023	48	C6H3+
77.0386	215	C6H5+
78.0338	999	C5H4N+
79.0416	358	C5H5N+
79.0542	72	C6H7+
80.0494	989	C5H6N+
89.0389	54	C7H5+
91.0542	207	C7H7+
92.0494	278	C6H6N+
95.0492	44	C6H7O+
96.0445	135	C5H6NO+
102.0338	67	C7H4N+
102.0467	32	C8H6+
103.0542	44	C8H7+
104.0494	362	C7H6N+
105.0701	38	C8H9+
106.029	29	C6H4NO+
110.0601	25	C6H8NO+
115.0541	265	C9H7+
117.0694	24	C9H9+
120.0443	73	C7H6NO+
122.0598	16	C7H8NO+
127.0545	38	C10H7+
128.062	186	C10H8+
129.0702	34	C10H9+
130.0292	28	C8H4NO+
139.0543	14	C11H7+
141.0703	62	C11H9+
148.0392	75	C8H6NO2+
152.062	113	C12H8+
153.07	35	C12H9+
165.0697	112	C13H9+
