Mass spectrum: Bromacil; LC-ESI-QFT; MS2; CE: 60%; R=15000; [M-H]-
Name: Bromacil
Name: 5-bromo-3-butan-2-yl-6-methyl-1H-pyrimidine-2,4-dione
Formula: C9H13BrN2O2
Exact mass: 260.0160398
SMILES: CCC(C)N1C(=O)NC(C)=C(Br)C1=O
InChI: InChI=1S/C9H13BrN2O2/c1-4-5(2)12-8(13)7(10)6(3)11-9(12)14/h5H,4H2,1-3H3,(H,11,14)
Instrument: Q Exactive Plus
Instrument type: LC-ESI-QFT
Ms type: MS2
Ion mode: NEGATIVE
Ionization: ESI
Fragmentation mode: HCD
Collision energy: 60 % (nominal)
Resolution: 15000
Column name: XBridge C18 3.5um, 2.1x50mm, Waters
Retention time: 6.156 min
Base peak: 259.0087
Precursor m/z: 259.0088
Precursor type: [M-H]-
Precursor intensity: 151855393.77
m/z	relative intensity	assigned
78.9189	999	Br-
159.9401	10	C4H3BrNO-
202.9462	214	C5H4BrN2O2-
259.0087	32	C9H12BrN2O2-
