Mass spectrum: Zidovudine; LC-ESI-QFT; MS2; CE: 60; R=35000; [M-H]-
Name: Zidovudine
Name: 1-[(2R,4S,5S)-4-azido-5-(hydroxymethyl)oxolan-2-yl]-5-methylpyrimidine-2,4-dione
Formula: C10H13N5O4
Exact mass: 267.09675
SMILES: CC1=CN(C(=O)NC1=O)[C@H]2C[C@@H]([C@H](O2)CO)N=[N+]=[N-]
InChI: InChI=1S/C10H13N5O4/c1-5-3-15(10(18)12-9(5)17)8-2-6(13-14-11)7(4-16)19-8/h3,6-8,16H,2,4H2,1H3,(H,12,17,18)/t6-,7+,8+/m0/s1
Instrument: Q Exactive Orbitrap Thermo Scientific
Instrument type: LC-ESI-QFT
Ms type: MS2
Ion mode: NEGATIVE
Ionization: ESI
Fragmentation mode: HCD
Collision energy: 60 (nominal)
Resolution: 35000
Column name: XBridge C18 3.5um, 2.1x50mm, Waters
Retention time: 4.3 min
Base peak: 266.0895
Precursor m/z: 266.0895
Precursor type: [M-H]-
m/z	relative intensity	assigned
107.0376	138	C6H5NO-
122.0611	999	C7H8NO-
125.0355	129	C5H5N2O2-
134.0611	140	C8H8NO-
147.0325	43	C8H5NO2-
150.0558	120	C8H8NO2-
161.0481	40	C9H7NO2-
