Mass spectrum: 5-Hydroxy Diclofenac; LC-ESI-QFT; MS2; CE: 75; R=35000; [M+H]+
Name: 5-Hydroxy Diclofenac
Name: 5-hydroxydiclofenac
Name: 2-[2-(2,6-dichloroanilino)-5-hydroxyphenyl]acetic acid
Formula: C14H11Cl2NO3
Exact mass: 311.01160
SMILES: C1=CC(=C(C(=C1)Cl)NC2=C(C=C(C=C2)O)CC(=O)O)Cl
InChI: InChI=1S/C14H11Cl2NO3/c15-10-2-1-3-11(16)14(10)17-12-5-4-9(18)6-8(12)7-13(19)20/h1-6,17-18H,7H2,(H,19,20)
Instrument: Q Exactive Plus Orbitrap Thermo Scientific
Instrument type: LC-ESI-QFT
Ms type: MS2
Ion mode: POSITIVE
Ionization: ESI
Fragmentation mode: HCD
Collision energy: 75 (nominal)
Resolution: 35000
Column name: XBridge C18 3.5um, 2.1x50mm, Waters
Retention time: 10.3 min
Base peak: 312.0187
Precursor m/z: 312.0189
Precursor type: [M+H]+
m/z	relative intensity	assigned
132.9606	2	C5H3Cl2+
139.0541	2	C11H7+
140.0493	1	C10H6N+
166.0652	12	C12H8N+
167.073	27	C12H9N+
168.0811	1	C12H10N+
183.068	2	C12H9NO+
193.0514	1	C13H7NO+
194.0602	13	C13H8NO+
195.068	54	C13H9NO+
196.0758	29	C13H10NO+
201.034	7	C12H8ClN+
202.0419	22	C12H9ClN+
212.0265	1	C13H7ClN+
214.0419	19	C13H9ClN+
224.0711	4	C14H10NO2+
229.0285	2	C13H8ClNO+
230.0367	999	C13H9ClNO+
231.0447	10	C13H10ClNO+
236.9925	1	C12HN2O4+
