Mass spectrum: Dichlofenthion; LC-ESI-QFT; MS2; CE: 120%; R=17500; [M+H]+
Name: Dichlofenthion
Name: (2,4-dichlorophenoxy)-diethoxy-sulfanylidene-lambda5-phosphane
Formula: C10H13Cl2O3PS
Exact mass: 313.9700
SMILES: CCOP(=S)(OCC)OC1=C(C=C(C=C1)Cl)Cl
InChI: InChI=1S/C10H13Cl2O3PS/c1-3-13-16(17,14-4-2)15-10-6-5-8(11)7-9(10)12/h5-7H,3-4H2,1-2H3
Instrument: Exploris 240 Orbitrap Thermo Scientific
Instrument type: LC-ESI-QFT
Ms type: MS2
Ion mode: POSITIVE
Ionization: ESI
Fragmentation mode: HCD
Collision energy: 120 % (nominal)
Resolution: 17500
Column name: XBridge C18 3.5um, 2.1x50mm, Waters
Retention time: 13.510 min
Base peak: 314.9773
Precursor m/z: 314.9773
Precursor type: [M+H]+
m/z	relative intensity	assigned
51.0229	102	C4H3+
62.9453	50	PS+
63.0229	102	C5H3+
64.0307	19	C5H4+
64.9786	536	H2O2P+
65.0386	60	C5H5+
74.0149	93	C6H2+
78.9402	334	OPS+
82.9451	68	CHCl2+
86.963	23	C2O2P+
86.9995	165	C4H4Cl+
92.0255	28	C6H4O+
96.9507	461	H2O2PS+
98.9846	113	CH4ClO3+
98.9996	770	C5H4Cl+
100.0075	132	C5H5Cl+
106.9953	20	C6H3S+
108.0028	201	C6H4S+
108.9839	238	C6H2Cl+
109.0105	90	C6H5S+
114.9612	493	H4O3PS+
114.9945	710	C5H4ClO+
125.9869	16	C6H3ClO+
126.9945	36	C6H4ClO+
128.0023	999	C6H5ClO+
130.9719	72	C5H4ClS+
132.9606	669	C5H3Cl2+
141.9638	337	C5H3OPS+
142.9894	55	C6H4ClO2+
145.9684	154	C6H4Cl2+
161.9637	109	C6H4Cl2O+
