Mass spectrum: Metoprolol; LC-ESI-ITFT; MS2; CE: 75%; R=15000; [M+H]+
Name: Metoprolol
Name: 1-(isopropylamino)-3-[4-(2-methoxyethyl)phenoxy]propan-2-ol
Formula: C15H25NO3
Exact mass: 267.1834
SMILES: COCCC1=CC=C(OCC(O)CNC(C)C)C=C1
InChI: InChI=1S/C15H25NO3/c1-12(2)16-10-14(17)11-19-15-6-4-13(5-7-15)8-9-18-3/h4-7,12,14,16-17H,8-11H2,1-3H3
Instrument: LTQ Orbitrap XL Thermo Scientific
Instrument type: LC-ESI-ITFT
Ms type: MS2
Ion mode: POSITIVE
Ionization: ESI
Fragmentation mode: HCD
Collision energy: 75 % (nominal)
Resolution: 15000
Column name: XBridge C18 3.5um, 2.1x50mm, Waters
Retention time: 5.1 min
Base peak: 268.1916
Precursor m/z: 268.1907
Precursor type: [M+H]+
m/z	relative intensity	assigned
56.0495	419	C3H6N+
58.0651	91	C3H8N+
70.0654	14	C4H8N+
72.0808	330	C4H10N+
74.06	701	C3H8NO+
77.0386	52	C6H5+
79.0542	192	C6H7+
84.0808	44	C5H10N+
91.0542	331	C7H7+
93.0699	88	C7H9+
98.0964	195	C6H12N+
100.112	98	C6H14N+
103.0542	583	C8H7+
104.0623	19	C8H8+
105.0699	709	C8H9+
107.0493	19	C7H7O+
115.0541	75	C9H7+
116.0619	57	C9H8+
116.1069	225	C6H14NO+
117.07	59	C9H9+
119.0496	22	C8H7O+
119.0855	42	C9H11+
120.0568	39	C8H8O+
121.0648	780	C8H9O+
129.0698	78	C10H9+
131.0494	54	C9H7O+
131.0855	188	C10H11+
133.0648	999	C9H9O+
135.0804	84	C9H11O+
141.0698	73	C11H9+
144.057	112	C10H8O+
147.0803	54	C10H11O+
148.0757	208	C9H10NO+
159.0805	222	C11H11O+
163.0865	279	C9H11N2O+
165.0913	21	C10H13O2+
177.0907	18	C11H13O2+
191.1072	33	C12H15O2+
