Mass spectrum: Methsuximide; LC-ESI-QFT; MS2; CE: 75; R=35000; [M+H]+
Name: Methsuximide
Name: 1,3-dimethyl-3-phenylpyrrolidine-2,5-dione
Formula: C12H13NO2
Exact mass: 203.09463
SMILES: CC1(CC(=O)N(C1=O)C)C2=CC=CC=C2
InChI: InChI=1S/C12H13NO2/c1-12(9-6-4-3-5-7-9)8-10(14)13(2)11(12)15/h3-7H,8H2,1-2H3
Instrument: Q Exactive Orbitrap Thermo Scientific
Instrument type: LC-ESI-QFT
Ms type: MS2
Ion mode: POSITIVE
Ionization: ESI
Fragmentation mode: HCD
Collision energy: 75 (nominal)
Resolution: 35000
Column name: XBridge C18 3.5um, 2.1x50mm, Waters
Retention time: 6.8 min
Base peak: 204.1021
Precursor m/z: 204.1019
Precursor type: [M+H]+
m/z	relative intensity	assigned
53.0023	8	C3HO+
53.9976	1	C2NO+
56.0496	16	C3H6N+
58.0288	558	C2H4NO+
65.0386	9	C5H5+
67.0179	2	C4H3O+
69.0335	223	C4H5O+
77.0386	10	C6H5+
79.0543	225	C6H7+
80.0495	7	C5H6N+
85.0285	1	C4H5O2+
91.0542	999	C7H7+
95.0492	23	C6H7O+
97.0286	1	C5H5O2+
98.0601	15	C5H8NO+
103.0543	31	C8H7+
105.0336	26	C7H5O+
105.0447	12	C6H5N2+
105.0698	2	C8H9+
107.0493	5	C7H7O+
115.0542	49	C9H7+
117.0699	111	C9H9+
118.0653	2	C8H8N+
119.0856	346	C9H11+
120.0806	4	C8H10N+
121.0648	44	C8H9O+
126.055	58	C6H8NO2+
127.0542	1	C10H7+
128.0621	17	C10H8+
129.0699	37	C10H9+
131.0494	2	C9H7O+
134.0965	98	C9H12N+
143.0733	24	C10H9N+
144.081	7	C10H10N+
145.0649	109	C10H9O+
145.0888	6	C10H11N+
147.0678	10	C9H9NO+
147.0803	5	C10H11O+
155.0606	6	C10H7N2+
157.0889	2	C11H11N+
158.0966	40	C11H12N+
160.0756	2	C10H10NO+
162.0914	6	C10H12NO+
171.0679	11	C11H9NO+
175.0633	1	C10H9NO2+
186.0916	8	C12H12NO+
