Mass spectrum: Rotenone; LC-ESI-QFT; MS2; CE: 120%; R=17500; [M+H]+
Name: Rotenone
Name: 5`beta-Rotenone
Name: 16,17-dimethoxy-6-prop-1-en-2-yl-2,7,20-trioxapentacyclo[11.8.0.03,11.04,8.014,19]henicosa-3(11),4(8),9,14,16,18-hexaen-12-one
Formula: C23H22O6
Exact mass: 394.1416
SMILES: CC(=C)C1CC2=C(O1)C=CC3=C2OC4COC5=CC(=C(C=C5C4C3=O)OC)OC
InChI: InChI=1S/C23H22O6/c1-11(2)16-8-14-15(28-16)6-5-12-22(24)21-13-7-18(25-3)19(26-4)9-17(13)27-10-20(21)29-23(12)14/h5-7,9,16,20-21H,1,8,10H2,2-4H3
Instrument: Exploris 240 Orbitrap Thermo Scientific
Instrument type: LC-ESI-QFT
Ms type: MS2
Ion mode: POSITIVE
Ionization: ESI
Fragmentation mode: HCD
Collision energy: 120 % (nominal)
Resolution: 17500
Column name: XBridge C18 3.5um, 2.1x50mm, Waters
Retention time: 10.235 min
Base peak: 372.0284
Precursor m/z: 395.1489
Precursor type: [M+H]+
m/z	relative intensity	assigned
51.0229	179	C4H3+
53.0385	298	C4H5+
55.0178	114	C3H3O+
63.0229	50	C5H3+
65.0386	532	C5H5+
66.0464	303	C5H6+
67.0542	50	C5H7+
68.9973	102	C3HO2+
77.0386	927	C6H5+
78.0464	337	C6H6+
79.0542	497	C6H7+
80.0621	56	C6H8+
81.0335	106	C5H5O+
81.07	73	C6H9+
89.0384	162	C7H5+
90.0463	296	C7H6+
91.0542	999	C7H7+
92.0255	140	C6H4O+
93.0335	125	C6H5O+
93.07	38	C7H9+
94.0413	147	C6H6O+
95.0492	270	C6H7O+
96.0572	39	C6H8O+
102.0465	97	C8H6+
103.0542	391	C8H7+
104.0624	50	C8H8+
105.0337	361	C7H5O+
105.0695	65	C8H9+
106.0415	140	C7H6O+
107.013	70	C6H3O2+
107.0491	705	C7H7O+
108.0569	103	C7H8O+
109.0284	85	C6H5O2+
115.0542	451	C9H7+
117.0696	44	C9H9+
118.0413	252	C8H6O+
119.0496	151	C8H7O+
121.0286	112	C7H5O2+
121.0648	213	C8H9O+
127.0542	83	C10H7+
128.0619	322	C10H8+
129.0699	64	C10H9+
130.0415	87	C9H6O+
131.0492	194	C9H7O+
132.0568	70	C9H8O+
133.0281	164	C8H5O2+
134.0368	55	C8H6O2+
135.0442	233	C8H7O2+
141.0699	309	C11H9+
144.0571	102	C10H8O+
145.0653	32	C10H9O+
146.0365	103	C9H6O2+
147.0439	783	C9H7O2+
149.0592	49	C9H9O2+
151.0755	114	C9H11O2+
152.0621	335	C12H8+
153.0698	80	C12H9+
159.0441	118	C10H7O2+
161.06	188	C10H9O2+
165.0693	149	C13H9+
169.0645	438	C12H9O+
175.0394	113	C10H7O3+
195.0809	33	C14H11O+
197.0599	135	C13H9O2+
