Mass spectrum: Mebendazole; LC-ESI-QFT; MS2; CE: 60; R=35000; [M-H]-
Name: Mebendazole
Name: methyl N-(6-benzoyl-1H-benzimidazol-2-yl)carbamate
Formula: C16H13N3O3
Exact mass: 295.09569
SMILES: COC(=O)NC1=NC2=C(N1)C=C(C=C2)C(=O)C3=CC=CC=C3
InChI: InChI=1S/C16H13N3O3/c1-22-16(21)19-15-17-12-8-7-11(9-13(12)18-15)14(20)10-5-3-2-4-6-10/h2-9H,1H3,(H2,17,18,19,21)
Instrument: Q Exactive Plus Orbitrap Thermo Scientific
Instrument type: LC-ESI-QFT
Ms type: MS2
Ion mode: NEGATIVE
Ionization: ESI
Fragmentation mode: HCD
Collision energy: 60 (nominal)
Resolution: 35000
Column name: XBridge C18 3.5um, 2.1x50mm, Waters
Retention time: 7.5 min
Base peak: 262.0621
Precursor m/z: 294.0884
Precursor type: [M-H]-
m/z	relative intensity	assigned
65.0146	1	C3HN2-
65.9986	1	C3NO-
95.0251	1	C4H3N2O-
106.0174	7	C5H2N2O-
129.0335	14	C7H3N3-
132.0204	1	C6H2N3O-
133.0284	18	C6H3N3O-
149.0232	2	C6H3N3O2-
156.0206	1	C8H2N3O-
157.0283	60	C8H3N3O-
160.0155	10	C7H2N3O2-
173.0233	3	C8H3N3O2-
219.0568	7	C14H7N2O-
233.06	1	C14H7N3O-
234.0685	1	C16H10O2-
235.0514	3	C14H7N2O2-
244.0517	1	C15H6N3O-
260.0469	5	C15H6N3O2-
262.0626	999	C15H8N3O2-
