Mass spectrum: Oxadiazon; LC-ESI-QFT; MS2; CE: 120; R=35000; [M+H]+
Name: Oxadiazon
Name: 5-tert-butyl-3-(2,4-dichloro-5-propan-2-yloxyphenyl)-1,3,4-oxadiazol-2-one
Formula: C15H18Cl2N2O3
Exact mass: 344.06945
SMILES: CC(C)OC1=C(C=C(C(=C1)N2C(=O)OC(=N2)C(C)(C)C)Cl)Cl
InChI: InChI=1S/C15H18Cl2N2O3/c1-8(2)21-12-7-11(9(16)6-10(12)17)19-14(20)22-13(18-19)15(3,4)5/h6-8H,1-5H3
Instrument: Q Exactive Plus Orbitrap Thermo Scientific
Instrument type: LC-ESI-QFT
Ms type: MS2
Ion mode: POSITIVE
Ionization: ESI
Fragmentation mode: HCD
Collision energy: 120 (nominal)
Resolution: 35000
Column name: XBridge C18 3.5um, 2.1x50mm, Waters
Retention time: 15.4 min
Base peak: 273.2055
Precursor m/z: 345.0767
Precursor type: [M+H]+
m/z	relative intensity	assigned
50.0151	32	C4H2+
51.023	3	C4H3+
52.0182	11	C3H2N+
53.0022	412	C3HO+
53.9975	3	C2NO+
54.0338	1	C3H4N+
55.0179	10	C3H3O+
55.0542	1	C4H7+
56.0495	8	C3H6N+
57.0699	24	C4H9+
59.0492	1	C3H7O+
59.976	1	C2HCl+
60.984	19	C2H2Cl+
61.9792	31	CHClN+
62.9632	450	CClO+
64.0182	35	C4H2N+
65.0022	4	C4HO+
65.026	61	C4H3N+
66.01	9	C4H2O+
66.0338	103	C4H4N+
67.0179	35	C4H3O+
68.0131	32	C3H2NO+
68.9971	3	C3HO2+
69.9924	36	C2NO2+
72.9839	134	C3H2Cl+
73.9918	7	C3H3Cl+
74.0964	1	C4H12N+
75.0103	42	C5HN+
76.0182	180	C5H2N+
77.0021	34	C5HO+
77.026	8	C5H3N+
78.0101	4	C5H2O+
78.0338	52	C5H4N+
79.0178	13	C5H3O+
80.0131	1	C4H2NO+
82.0288	2	C4H4NO+
82.9452	1	CHCl2+
83.9762	3	C4HCl+
84.984	999	C4H2Cl+
85.9792	10	C3HClN+
85.9917	26	C4H3Cl+
86.9633	103	C3ClO+
87.9948	2	C3H3ClN+
88.9789	130	C3H2ClO+
90.0106	5	C3H5ClN+
91.0542	3	C7H7+
92.0131	5	C5H2NO+
93.021	29	C5H3NO+
94.0288	690	C5H4NO+
95.0128	40	C5H3O2+
96.0444	1	C5H6NO+
96.9837	1	C5H2Cl+
99.9948	26	C4H3ClN+
101.0027	122	C4H4ClN+
101.9867	123	C4H3ClO+
104.013	5	C6H2NO+
106.0048	1	C6H2O2+
106.0287	3	C6H4NO+
106.9451	5	C3HCl2+
108.9607	1	C3H3Cl2+
109.9792	169	C5HClN+
110.987	16	C5H2ClN+
111.9949	44	C5H3ClN+
112.0393	9	C5H6NO2+
112.9789	517	C5H2ClO+
113.974	1	C4HClNO+
118.9451	4	C4HCl2+
119.953	1	C4H2Cl2+
120.0081	4	C6H2NO2+
120.9607	113	C4H3Cl2+
122.0237	63	C6H4NO2+
127.9898	28	C5H3ClNO+
128.9976	178	C5H4ClNO+
129.9817	71	C5H3ClO2+
130.0054	8	C5H5ClNO+
130.945	1	C5HCl2+
139.9898	6	C6H3ClNO+
140.9738	41	C6H2ClO2+
140.9977	5	C6H4ClNO+
144.9927	1	C5H4ClNO2+
145.9559	11	C5H2Cl2N+
147.9715	9	C5H4Cl2N+
148.9556	180	C5H3Cl2O+
160.9875	3	C5H4ClNO3+
163.9664	5	C5H4Cl2NO+
166.9664	2	C5H5Cl2O2+
173.9511	11	C6H2Cl2NO+
176.9505	8	C6H3Cl2O2+
184.9875	9	C7H4ClNO3+
