Mass spectrum: Cefaclor; LC-ESI-QFT; MS2; CE: 45; R=35000; [M-H]-
Name: Cefaclor
Name: CEFACLOR
Name: (6R,7R)-7-[[(2R)-2-amino-1-oxo-2-phenylethyl]amino]-3-chloro-8-oxo-5-thia-1-azabicyclo[4.2.0]oct-2-ene-2-carboxylic acid
Formula: C15H14ClN3O4S
Exact mass: 367.03935
SMILES: O=C2N1/C(=C(/Cl)CS[C@@H]1[C@@H]2NC(=O)[C@@H](c3ccccc3)N)C(=O)O
InChI: InChI=1S/C15H14ClN3O4S/c16-8-6-24-14-10(13(21)19(14)11(8)15(22)23)18-12(20)9(17)7-4-2-1-3-5-7/h1-5,9-10,14H,6,17H2,(H,18,20)(H,22,23)/t9-,10-,14-/m1/s1
Instrument: Q Exactive Orbitrap Thermo Scientific
Instrument type: LC-ESI-QFT
Ms type: MS2
Ion mode: NEGATIVE
Ionization: ESI
Fragmentation mode: HCD
Collision energy: 45 (nominal)
Resolution: 35000
Column name: XBridge C18 3.5um, 2.1x50mm, Waters
Retention time: 4.1 min
Base peak: 286.0657
Precursor m/z: 366.0321
Precursor type: [M-H]-
m/z	relative intensity	assigned
56.9804	168	C2HS-
57.9757	625	CNS-
58.9961	18	C2H3S-
65.0145	74	C3HN2-
65.9985	102	C3NO-
67.0302	65	C3H3N2-
70.9837	11	C2HNS-
72.0091	86	C2H2NO2-
74.007	17	C2H4NS-
81.9756	73	C3NS-
83.9914	164	C3H2NS-
84.0091	72	C3H2NO2-
86.0069	199	C3H4NS-
86.9909	26	C3H3OS-
90.0223	23	C5H2N2-
91.0302	328	C5H3N2-
93.0458	975	C5H5N2-
96.9992	159	C4H3NS-
98.007	221	C4H4NS-
99.9862	22	C3H2NOS-
101.0396	21	C8H5-
105.0458	166	C6H5N2-
106.0172	16	C5H2N2O-
107.0124	16	C4HN3O-
107.0251	21	C5H3N2O-
108.009	22	C5H2NO2-
108.9992	74	C5H3NS-
110.0071	446	C5H4NS-
111.0198	26	C4H3N2O2-
111.9861	57	C4H2NOS-
116.0507	202	C8H6N-
118.041	16	C6H4N3-
119.0251	216	C6H3N2O-
121.0407	66	C6H5N2O-
123.0023	280	C5H3N2S-
124.01	999	C5H4N2S-
124.994	71	C5H3NOS-
125.0179	413	C5H5N2S-
126.0019	131	C5H4NOS-
128.0176	19	C5H6NOS-
135.0023	110	C6H3N2S-
135.0201	12	C6H3N2O2-
135.9863	403	C6H2NOS-
136.994	205	C6H3NOS-
137.0178	26	C6H5N2S-
139.0337	111	C6H7N2S-
146.0122	141	C7H2N2O2-
147.0198	24	C7H3N2O2-
150.9971	548	C6H3N2OS-
152.005	642	C6H4N2OS-
153.0128	329	C6H5N2OS-
153.997	18	C6H4NO2S-
154.0205	21	C6H6N2OS-
156.0693	147	C10H8N2-
159.0563	61	C9H7N2O-
171.0564	82	C10H7N2O-
172.0405	98	C10H6NO2-
173.0481	439	C10H7NO2-
174.9557	26	C4ClN2O4-
175.0508	50	C9H7N2O2-
178.9919	25	C7H3N2O2S-
180	604	C7H4N2O2S-
181.0771	22	C12H9N2-
187.0514	594	C10H7N2O2-
189.0493	207	C10H9N2S-
189.067	412	C10H9N2O2-
196.0879	59	C12H10N3-
198.0675	28	C11H8N3O-
200.0592	581	C11H8N2O2-
208.0878	123	C13H10N3-
209.0717	23	C13H9N2O-
214.062	83	C11H8N3O2-
215.0645	18	C12H11N2S-
216.0778	595	C11H10N3O2-
224.0602	13	C10H11ClN3O-
224.0827	69	C13H10N3O-
225.0489	26	C13H9N2S-
225.0668	83	C13H9N2O2-
233.0389	440	C11H9N2O2S-
240.0777	28	C13H10N3O2-
258.0697	26	C13H12N3OS-
