Mass spectrum: Thiram; LC-ESI-QFT; MS2; CE: 60; R=35000; [M+H]+
Name: Thiram
Name: Dimethylcarbamothioylsulfanyl N,N-dimethylcarbamodithioate
Formula: C6H12N2S4
Exact mass: 239.98833
SMILES: CN(C)C(=S)SSC(=S)N(C)C
InChI: InChI=1S/C6H12N2S4/c1-7(2)5(9)11-12-6(10)8(3)4/h1-4H3
Instrument: Q Exactive Plus Orbitrap Thermo Scientific
Instrument type: LC-ESI-QFT
Ms type: MS2
Ion mode: POSITIVE
Ionization: ESI
Fragmentation mode: HCD
Collision energy: 60 (nominal)
Resolution: 35000
Column name: XBridge C18 3.5um, 2.1x50mm, Waters
Retention time: 6.5 min
Base peak: 240.995
Precursor m/z: 240.9956
Precursor type: [M+H]+
m/z	relative intensity	assigned
56.0495	17	C3H6N+
57.0698	1	C4H9+
58.0651	3	C3H8N+
61.0106	5	C2H5S+
71.9903	3	C2H2NS+
72.998	41	C2H3NS+
76.0215	69	C2H6NS+
76.9514	11	CHS2+
81.0698	2	C6H9+
88.0215	999	C3H6NS+
119.9936	420	C3H6NS2+
151.9657	1	C3H6NS3+
