Mass spectrum: Gemcitabine; LC-ESI-ITFT; MS2; CE: 45%; R=15000; [M-H]-
Name: Gemcitabine
Name: 2'-deoxy-2',2'-difluorocytidine
Name: 4-amino-1-[(2R,4R,5R)-3,3-difluoro-4-hydroxy-5-(hydroxymethyl)-2-oxolanyl]-2-pyrimidinone
Formula: C9H11F2N3O4
Exact mass: 263.0718
SMILES: NC1=NC(=O)N(C=C1)[C@@H]2O[C@H](CO)[C@@H](O)C2(F)F
InChI: InChI=1S/C9H11F2N3O4/c10-9(11)6(16)4(3-15)18-7(9)14-2-1-5(12)13-8(14)17/h1-2,4,6-7,15-16H,3H2,(H2,12,13,17)/t4-,6-,7-/m1/s1
Instrument: LTQ Orbitrap XL Thermo Scientific
Instrument type: LC-ESI-ITFT
Ms type: MS2
Ion mode: NEGATIVE
Ionization: ESI
Fragmentation mode: HCD
Collision energy: 45 % (nominal)
Resolution: 15000
Column name: XBridge C18 3.5um, 2.1x50mm, Waters
Retention time: 1.0 min
Base peak: 308.0689
Precursor m/z: 262.0645
Precursor type: [M-H]-
m/z	relative intensity	assigned
109.0207	999	C5H2FN2-
110.0358	178	C4H4N3O-
129.0272	280	C5H3F2N2-
149.0353	282	C7H5N2O2-
