Mass spectrum: Albendazole; LC-ESI-QFT; MS2; CE: 45; R=35000; [M+H]+
Name: Albendazole
Name: Methyl N-(6-propylsulfanyl-1H-benzimidazol-2-yl)carbamate
Formula: C12H15N3O2S
Exact mass: 265.08850
SMILES: CCCSC1=CC2=C(C=C1)N=C(N2)NC(=O)OC
InChI: InChI=1S/C12H15N3O2S/c1-3-6-18-8-4-5-9-10(7-8)14-11(13-9)15-12(16)17-2/h4-5,7H,3,6H2,1-2H3,(H2,13,14,15,16)
Instrument: Q Exactive Plus Orbitrap Thermo Scientific
Instrument type: LC-ESI-QFT
Ms type: MS2
Ion mode: POSITIVE
Ionization: ESI
Fragmentation mode: HCD
Collision energy: 45 (nominal)
Resolution: 35000
Column name: XBridge C18 3.5um, 2.1x50mm, Waters
Retention time: 7.8 min
Base peak: 266.0953
Precursor m/z: 266.0958
Precursor type: [M+H]+
m/z	relative intensity	assigned
159.0427	10	C8H5N3O+
179.0509	1	C8H9N3S+
190.0068	1	C8H4N3OS+
191.0148	71	C8H5N3OS+
192.0226	82	C8H6N3OS+
206.0745	1	C10H12N3S+
223.0411	5	C9H9N3O2S+
234.0696	999	C11H12N3OS+
266.0958	36	C12H16N3O2S+
