Mass spectrum: Nornicotine; LC-ESI-QFT; MS2; CE: 75; R=35000; [M+H]+
Name: Nornicotine
Name: 3-pyrrolidin-2-ylpyridine
Formula: C9H12N2
Exact mass: 148.10005
SMILES: c1cc(cnc1)C2CCCN2
InChI: InChI=1S/C9H12N2/c1-3-8(7-10-5-1)9-4-2-6-11-9/h1,3,5,7,9,11H,2,4,6H2
Instrument: Q Exactive Plus Orbitrap Thermo Scientific
Instrument type: LC-ESI-QFT
Ms type: MS2
Ion mode: POSITIVE
Ionization: ESI
Fragmentation mode: HCD
Collision energy: 75 (nominal)
Resolution: 35000
Column name: XBridge C18 3.5um, 2.1x50mm, Waters
Retention time: 1.0 min
Base peak: 149.1072
Precursor m/z: 149.1073
Precursor type: [M+H]+
m/z	relative intensity	assigned
51.0228	1	C4H3+
53.0386	8	C4H5+
54.0339	1	C3H4N+
56.0495	1	C3H6N+
65.0385	6	C5H5+
67.0417	1	C4H5N+
68.0495	1	C4H6N+
70.0651	287	C4H8N+
77.0384	1	C6H5+
78.0338	2	C5H4N+
79.0542	8	C6H7+
80.0494	834	C5H6N+
82.065	1	C5H8N+
89.0385	1	C7H5+
90.0464	2	C7H6+
91.0542	12	C7H7+
92.0494	49	C6H6N+
93.0573	11	C6H7N+
93.0699	1	C7H9+
94.0651	5	C6H8N+
95.0491	1	C6H7O+
96.0443	8	C5H6NO+
103.0542	20	C8H7+
104.0494	2	C7H6N+
105.0699	19	C8H9+
106.0651	233	C7H8N+
110.06	5	C6H8NO+
115.0542	72	C9H7+
117.0573	900	C8H7N+
118.0651	101	C8H8N+
119.0731	14	C8H9N+
120.0808	57	C8H10N+
121.0763	1	C7H9N2+
128.0491	1	C9H6N+
130.0651	999	C9H8N+
131.073	22	C9H9N+
132.0807	349	C9H10N+
149.1073	50	C9H13N2+
