Mass spectrum: Fenthion-sulfone; LC-ESI-QFT; MS2; CE: 30; R=35000; [M+H]+
Name: Fenthion-sulfone
Name: Fenthione sulphone
Name: O,O-Dimethyl O-[3-methyl-4-(methylsulfonyl)phenyl] phosphorothioate
Formula: C10H15O5PS2
Exact mass: 310.00985
SMILES: CC1=C(C=CC(=C1)OP(=S)(OC)OC)S(=O)(=O)C
InChI: InChI=1S/C10H15O5PS2/c1-8-7-9(15-16(17,13-2)14-3)5-6-10(8)18(4,11)12/h5-7H,1-4H3
Instrument: Q Exactive Plus Orbitrap Thermo Scientific
Instrument type: LC-ESI-QFT
Ms type: MS2
Ion mode: POSITIVE
Ionization: ESI
Fragmentation mode: HCD
Collision energy: 30 (nominal)
Resolution: 35000
Column name: XBridge C18 3.5um, 2.1x50mm, Waters
Retention time: 7.8 min
Base peak: 311.0163
Precursor m/z: 311.0171
Precursor type: [M+H]+
m/z	relative intensity	assigned
62.0184	2	C2H6S+
77.0383	1	C6H5+
78.9942	23	CH4O2P+
79.0541	6	C6H7+
91.0541	38	C7H7+
93.01	2	C2H6O2P+
94.9618	1	CH3OS2+
104.062	63	C8H8+
105.0698	129	C8H9+
107.049	5	C7H7O+
109.0046	25	C2H6O3P+
110.9661	2	CH4O2PS+
121.0106	2	C7H5S+
121.0647	6	C8H9O+
122.0184	3	C7H6S+
122.0725	5	C8H10O+
123.0262	22	C7H7S+
123.0442	3	C7H7O2+
124.034	4	C7H8S+
124.982	750	C2H6O2PS+
127.0154	518	C2H8O4P+
135.0256	1	C8H7S+
136.0341	28	C8H8S+
136.0518	4	C8H8O2+
137.0419	448	C8H9S+
138.0496	11	C8H10S+
139.0156	2	C3H8O4P+
139.0211	42	C7H7OS+
141.0309	2	C3H10O4P+
142.9926	702	C2H8O3PS+
151.0208	1	C8H7OS+
152.9827	2	C7H5S2+
153.0367	1	C8H9OS+
154.0446	3	C8H10OS+
154.9982	20	C7H7S2+
157.0083	23	C3H10O3PS+
166.9983	4	C8H7S2+
168.006	3	C7H4O5+
168.9869	3	C7H6OPS+
169.0317	4	C8H9O2S+
169.9853	10	C7H6OS2+
185.0089	15	C8H9OS2+
185.0268	3	C8H9O3S+
185.0362	16	C8H10O3P+
197.0378	6	C8H9N2O2S+
199.0518	25	C9H12O3P+
200.0054	179	C8H9O2PS+
201.0038	16	C8H9O2S2+
201.0133	52	C8H10O2PS+
201.0579	32	C9H13O3S+
202.9926	3	C7H8O3PS+
215.0293	5	C9H12O2PS+
215.0469	3	C9H12O4P+
216.0005	22	C8H9O3PS+
217.0083	16	C8H10O3PS+
217.0351	277	C9H13O2S2+
217.0624	43	C9H14O4P+
219.0239	29	C8H12O3PS+
230.9699	8	C8H8O2PS2+
231.0237	5	C9H12O3PS+
232.0317	373	C9H13O3PS+
233.0395	334	C9H14O3PS+
234.9646	1	C7H8O3PS2+
246.9646	51	C8H8O3PS2+
247.0551	83	C10H16O3PS+
248.0266	5	C9H13O4PS+
248.9802	42	C8H10O3PS2+
264.9748	14	C8H10O4PS2+
278.9908	342	C9H12O4PS2+
297.0014	630	C9H14O5PS2+
311.0169	999	C10H16O5PS2+
