Mass spectrum: Metribuzin; LC-ESI-ITFT; MS2; CE: 35%; R=7500; [M+H]+
Name: Metribuzin
Name: 1,2,4-Triazin-5(4H)-one, 4-amino-6-(1,1-dimethylethyl)-3-(methylthio)-
Name: 4-amino-6-tert-butyl-3-(methylthio)-1,2,4-triazin-5-one
Formula: C8H14N4OS
Exact mass: 214.0883
SMILES: S(C)C(=NN=C1C(C)(C)C)N(N)C1=O
InChI: InChI=1S/C8H14N4OS/c1-8(2,3)5-6(13)12(9)7(14-4)11-10-5/h9H2,1-4H3
Instrument: LTQ Orbitrap XL Thermo Scientific
Instrument type: LC-ESI-ITFT
Ms type: MS2
Ion mode: POSITIVE
Ionization: ESI
Fragmentation mode: CID
Collision energy: 35 % (nominal)
Resolution: 7500
Column name: XBridge C18 3.5um, 2.1x50mm, Waters
Retention time: 6.9 min
Base peak: 215.0964
Precursor m/z: 215.0961
Precursor type: [M+H]+
m/z	relative intensity	assigned
69.0084	5	C2HN2O+
69.0696	8	C5H9+
74.006	13	C2H4NS+
76.0216	9	C2H6NS+
79.054	5	C6H7+
82.0653	8	C5H8N+
83.0239	9	C3H3N2O+
84.0195	4	C2H2N3O+
84.0808	49	C5H10N+
86.9899	12	C3H3OS+
87.0011	16	C2H3N2S+
88.0091	4	C2H4N2S+
89.0168	41	C2H5N2S+
89.0419	10	C4H9S+
94.0653	2	C6H8N+
95.0606	3	C5H7N2+
97.0648	33	C6H9O+
97.0758	4	C5H9N2+
99.0918	4	C5H11N2+
103.0576	9	C5H11S+
104.0163	7	C3H6NOS+
104.0278	4	C2H6N3S+
109.0758	4	C6H9N2+
112.0756	4	C6H10NO+
114.996	112	C3H3N2OS+
124.0869	6	C6H10N3+
125.0712	5	C6H9N2O+
130.0684	31	C6H12NS+
131.0274	191	C4H7N2OS+
131.0388	11	C3H7N4S+
132.0226	13	C3H6N3OS+
136.0875	4	C7H10N3+
139.0868	7	C7H11N2O+
140.1056	15	C6H12N4+
142.007	2	C4H4N3OS+
145.0543	61	C4H9N4S+
150.0661	4	C7H8N3O+
155.0505	3	C6H9N3S+
155.0639	3	C7H11N2S+
157.0432	15	C6H9N2OS+
159.0329	6	C4H7N4OS+
167.0925	25	C7H11N4O+
169.1086	14	C7H13N4O+
171.0586	72	C7H11N2OS+
172.0666	21	C7H12N2OS+
183.0461	9	C7H9N3OS+
186.0822	355	C8H14N2OS+
187.1012	999	C7H15N4S+
198.0693	5	C8H12N3OS+
200.0731	3	C7H12N4OS+
