Mass spectrum: Cetirizine N-Oxide; LC-ESI-QFT; MS2; CE: 75; R=35000; [M+H]+
Name: Cetirizine N-Oxide
Name: (R)-Cetirizine N-Oxide
Name: 2-[2-[4-[(4-chlorophenyl)-phenylmethyl]-1-oxidopiperazin-1-ium-1-yl]ethoxy]acetic acid
Formula: C21H25ClN2O4
Exact mass: 404.15028
SMILES: C1C[N+](CCN1C(C2=CC=CC=C2)C3=CC=C(C=C3)Cl)(CCOCC(=O)O)[O-]
InChI: InChI=1S/C21H25ClN2O4/c22-19-8-6-18(7-9-19)21(17-4-2-1-3-5-17)23-10-12-24(27,13-11-23)14-15-28-16-20(25)26/h1-9,21H,10-16H2,(H,25,26)
Instrument: Q Exactive Plus Orbitrap Thermo Scientific
Instrument type: LC-ESI-QFT
Ms type: MS2
Ion mode: POSITIVE
Ionization: ESI
Fragmentation mode: HCD
Collision energy: 75 (nominal)
Resolution: 35000
Column name: XBridge C18 3.5um, 2.1x50mm, Waters
Retention time: 9.4 min
Base peak: 405.1573
Precursor m/z: 405.1576
Precursor type: [M+H]+
m/z	relative intensity	assigned
56.0495	40	C3H6N+
58.0651	24	C3H8N+
68.0494	4	C4H6N+
70.0651	26	C4H8N+
71.0604	2	C3H7N2+
72.0808	3	C4H10N+
78.0464	5	C6H6+
79.0541	1	C6H7+
82.0651	4	C5H8N+
83.0603	6	C4H7N2+
84.0682	18	C4H8N2+
84.0807	5	C5H10N+
85.0759	1	C4H9N2+
86.06	40	C4H8NO+
86.0964	4	C5H12N+
91.0542	9	C7H7+
95.0492	1	C6H7O+
97.0761	5	C5H9N2+
98.0601	2	C5H8NO+
98.0839	8	C5H10N2+
99.0917	43	C5H11N2+
100.0757	2	C5H10NO+
102.0464	1	C8H6+
103.0389	7	C4H7O3+
103.0542	21	C8H7+
104.0494	2	C7H6N+
104.062	16	C8H8+
105.0699	10	C8H9+
111.0916	4	C6H11N2+
116.0495	7	C8H6N+
125.0153	7	C7H6Cl+
128.0494	8	C9H6N+
130.0652	6	C9H8N+
132.0656	10	C5H10NO3+
137.0153	8	C8H6Cl+
138.0105	2	C7H5ClN+
138.0231	9	C8H7Cl+
139.0308	4	C8H8Cl+
139.054	1	C11H7+
144.0654	2	C6H10NO3+
146.0599	4	C9H8NO+
146.0813	2	C6H12NO3+
152.0619	4	C12H8+
153.0699	3	C12H9+
154.0776	2	C12H10+
158.0811	2	C7H12NO3+
160.0968	1	C7H14NO3+
163.0537	1	C13H7+
164.0262	4	C9H7ClN+
164.0616	2	C13H8+
165.0699	525	C13H9+
166.0777	999	C13H10+
178.0777	6	C14H10+
179.0855	26	C14H11+
180.0934	1	C14H12+
181.0648	1	C13H9O+
183.0804	25	C13H11O+
187.1077	2	C8H15N2O3+
193.0761	34	C13H9N2+
193.0886	15	C14H11N+
194.0964	1	C14H12N+
199.0309	16	C13H8Cl+
201.0466	308	C13H10Cl+
205.0888	1	C15H11N+
206.0965	17	C15H12N+
207.1044	1	C15H13N+
215.0624	1	C14H12Cl+
216.0574	6	C13H11ClN+
227.0497	4	C14H10ClN+
228.0575	98	C14H11ClN+
240.0574	45	C15H11ClN+
242.0731	16	C15H13ClN+
283.0997	1	C17H16ClN2+
