Mass spectrum: 4-Nitro-1,2-phenylenediamine; LC-ESI-QFT; MS2; CE: 75%; R=15000; [M+H]+
Name: 4-Nitro-1,2-phenylenediamine
Name: 4-Nitro-o-phenylenediamine
Name: 4-nitrobenzene-1,2-diamine
Formula: C6H7N3O2
Exact mass: 153.0538265
SMILES: NC1=C(N)C=C(C=C1)[N+]([O-])=O
InChI: InChI=1S/C6H7N3O2/c7-5-2-1-4(9(10)11)3-6(5)8/h1-3H,7-8H2
Instrument: Exploris 240 Thermo Scientific
Instrument type: LC-ESI-QFT
Ms type: MS2
Ion mode: POSITIVE
Ionization: ESI
Fragmentation mode: HCD
Collision energy: 75 % (nominal)
Resolution: 15000
Column name: XBridge C18 3.5um, 2.1x50mm, Waters
Retention time: 2.575 min
Base peak: 154.061
Precursor m/z: 154.0611
Precursor type: [M+H]+
m/z	relative intensity	assigned
42.0338	15	C2H4N+
56.0494	36	C3H6N+
68.0494	13	C4H6N+
70.0287	22	C3H4NO+
80.0495	223	C5H6N+
94.0287	23	C5H4NO+
95.0127	13	C5H3O2+
107.0603	999	C6H7N2+
108.0682	386	C6H8N2+
110.0475	21	C5H6N2O+
137.0583	682	C6H7N3O+
