Mass spectrum: Linoleic acid; LC-ESI-QFT; MS2; CE: 30; R=35000; [M+H]+
Name: Linoleic acid
Name: (9Z,12Z)-octadeca-9,12-dienoic acid
Formula: C18H32O2
Exact mass: 280.24023
SMILES: CCCCC/C=C\C/C=C\CCCCCCCC(=O)O
InChI: InChI=1S/C18H32O2/c1-2-3-4-5-6-7-8-9-10-11-12-13-14-15-16-17-18(19)20/h6-7,9-10H,2-5,8,11-17H2,1H3,(H,19,20)/b7-6-,10-9-
Instrument: Q Exactive Orbitrap Thermo Scientific
Instrument type: LC-ESI-QFT
Ms type: MS2
Ion mode: POSITIVE
Ionization: ESI
Fragmentation mode: HCD
Collision energy: 30 (nominal)
Resolution: 35000
Column name: XBridge C18 3.5um, 2.1x50mm, Waters
Retention time: 19.4 min
Base peak: 298.274
Precursor m/z: 281.2475
Precursor type: [M+H]+
m/z	relative intensity	assigned
55.0542	22	C4H7+
57.0699	182	C4H9+
59.0492	27	C3H7O+
67.0542	195	C5H7+
69.0699	953	C5H9+
71.0491	48	C4H7O+
71.0855	205	C5H11+
73.0647	15	C4H9O+
74.0965	9	C4H12N+
79.0542	56	C6H7+
81.0699	554	C6H9+
83.0492	59	C5H7O+
83.0855	991	C6H11+
85.0284	7	C4H5O2+
85.0648	61	C5H9O+
85.1012	98	C6H13+
87.0441	7	C4H7O2+
87.0805	3	C5H11O+
89.0597	9	C4H9O2+
91.0542	82	C7H7+
93.0698	202	C7H9+
95.0855	611	C7H11+
97.0648	164	C6H9O+
97.1012	999	C7H13+
99.044	28	C5H7O2+
99.0805	74	C6H11O+
101.0598	55	C5H9O2+
101.0962	4	C6H13O+
105.0699	154	C8H9+
107.0855	234	C8H11+
109.0648	65	C7H9O+
109.1012	480	C8H13+
111.0805	101	C7H11O+
111.1168	482	C8H15+
113.0597	25	C6H9O2+
113.0961	35	C7H13O+
115.0754	64	C6H11O2+
115.1117	6	C7H15O+
117.0697	9	C9H9+
119.0855	259	C9H11+
121.1012	309	C9H13+
123.0804	155	C8H11O+
123.1168	338	C9H15+
125.0597	16	C7H9O2+
125.0961	91	C8H13O+
125.1325	121	C9H17+
127.0751	40	C7H11O2+
127.1118	26	C8H15O+
129.0912	45	C7H13O2+
131.0856	9	C10H11+
133.1012	416	C10H13+
135.1168	290	C10H15+
137.0598	24	C8H9O2+
137.0961	162	C9H13O+
137.1324	133	C10H17+
139.0754	9	C8H11O2+
139.1117	102	C9H15O+
139.1481	29	C10H19+
141.0547	6	C7H9O3+
141.0911	37	C8H13O2+
141.1272	19	C9H17O+
143.1068	18	C8H15O2+
145.1012	9	C11H13+
147.0803	20	C10H11O+
147.1169	379	C11H15+
149.0234	307	C8H5O3+
149.1326	250	C11H17+
151.1118	219	C10H15O+
151.1481	81	C11H19+
153.0548	8	C8H9O3+
153.0909	8	C9H13O2+
153.1274	85	C10H17O+
155.1067	46	C9H15O2+
155.143	7	C10H19O+
157.101	7	C12H13+
157.1225	9	C9H17O2+
159.1166	24	C12H15+
161.0959	21	C11H13O+
161.1325	325	C12H17+
163.1481	203	C12H19+
165.0908	23	C10H13O2+
165.1275	189	C11H17O+
165.1638	78	C12H21+
167.0705	5	C9H11O3+
167.143	66	C11H19O+
169.0862	9	C9H13O3+
169.1225	22	C10H17O2+
171.1164	5	C13H15+
171.1376	6	C10H19O2+
173.1319	5	C13H17+
175.1118	31	C12H15O+
175.1481	268	C13H19+
177.0909	6	C11H13O2+
177.1276	18	C12H17O+
177.1637	49	C13H21+
179.1063	32	C11H15O2+
179.143	143	C12H19O+
179.1794	93	C13H23+
181.1588	58	C12H21O+
183.1383	7	C11H19O2+
183.1746	5	C12H23O+
187.112	6	C13H15O+
187.1489	5	C14H19+
189.0906	15	C12H13O2+
189.1277	16	C13H17O+
189.1638	212	C14H21+
191.1067	6	C12H15O2+
191.1797	19	C14H23+
193.1224	52	C12H17O2+
193.1587	110	C13H21O+
195.1011	5	C11H15O3+
195.175	5	C13H23O+
203.1063	9	C13H15O2+
203.1428	7	C14H19O+
203.1796	65	C15H23+
205.1232	8	C13H17O2+
205.1953	36	C15H25+
207.1018	19	C12H15O3+
207.1743	63	C14H23O+
217.1225	7	C14H17O2+
217.158	6	C15H21O+
217.1952	22	C16H25+
219.2109	72	C16H27+
221.1167	21	C13H17O3+
221.1536	16	C14H21O2+
221.1903	22	C15H25O+
221.2265	143	C16H29+
223.1321	6	C13H19O3+
231.1381	6	C15H19O2+
235.1323	19	C14H19O3+
235.1692	5	C15H23O2+
245.2265	707	C18H29+
246.1	7	C13H14N2O3+
249.1854	4	C16H25O2+
253.253	29	C17H33O+
263.1643	19	C16H23O3+
263.2371	322	C18H31O+
281.2469	17	C18H33O2+
