Mass spectrum: Metamitron; LC-ESI-ITFT; MS2; CE: 35%; R=30000; [M+H]+
Name: Metamitron
Name: 4-Amino-4,5-dihydro-3-methyl-6-phenyl-1,2,4-triazin-5-one
Name: 4-amino-3-methyl-6-phenyl-1,2,4-triazin-5-one
Formula: C10H10N4O
Exact mass: 202.0860
SMILES: c(ccc1C(=NN=C2C)C(=O)N2N)cc1
InChI: InChI=1S/C10H10N4O/c1-7-12-13-9(10(15)14(7)11)8-5-3-2-4-6-8/h2-6H,11H2,1H3
Instrument: LTQ Orbitrap XL Thermo Scientific
Instrument type: LC-ESI-ITFT
Ms type: MS2
Ion mode: POSITIVE
Ionization: ESI
Fragmentation mode: CID
Collision energy: 35 % (nominal)
Resolution: 30000
Column name: XBridge C18 3.5um, 2.1x50mm, Waters
Retention time: 4.9 min
Base peak: 203.093
Precursor m/z: 203.0927
Precursor type: [M+H]+
m/z	relative intensity	assigned
72.0444	47	C3H6NO+
77.0386	31	C6H5+
79.0543	140	C6H7+
83.024	9	C3H3N2O+
89.0386	32	C7H5+
91.0542	7	C7H7+
93.0575	3	C6H7N+
94.0652	8	C6H8N+
100.0506	20	C3H6N3O+
103.0542	14	C8H7+
104.0495	260	C7H6N+
106.0652	439	C7H8N+
115.0542	3	C9H7+
116.0495	30	C8H6N+
117.0335	9	C8H5O+
117.0449	6	C7H5N2+
117.0574	19	C8H7N+
118.0652	14	C8H8N+
119.0604	37	C7H7N2+
120.0808	35	C8H10N+
130.0652	238	C9H8N+
131.049	3	C9H7O+
132.0683	17	C8H8N2+
132.0807	11	C9H10N+
134.0601	11	C8H8NO+
134.0713	12	C7H8N3+
143.0605	11	C9H7N2+
145.0397	255	C8H5N2O+
148.0755	5	C9H10NO+
158.0601	61	C10H8NO+
158.0713	25	C9H8N3+
174.0789	777	C10H10N2O+
175.0868	117	C10H11N2O+
175.0979	999	C9H11N4+
186.0662	48	C10H8N3O+
187.074	10	C10H9N3O+
203.0927	158	C10H11N4O+
