Mass spectrum: Nicosulfuron-TP AUSN; LC-ESI-QFT; MS2; CE: 30%; R=17500; [M-H]-
Name: Nicosulfuron-TP AUSN
Name: 2-(diaminomethylidenecarbamoylsulfamoyl)-N,N-dimethylpyridine-3-carboxamide
Formula: C10H14N6O4S
Exact mass: 314.0797
SMILES: CN(C)C(=O)C1=CC=CN=C1S(=O)(=O)NC(=O)NC(N)=N
InChI: InChI=1S/C10H14N6O4S/c1-16(2)8(17)6-4-3-5-13-7(6)21(19,20)15-10(18)14-9(11)12/h3-5H,1-2H3,(H5,11,12,14,15,18)
Instrument: Q Exactive Plus Orbitrap Thermo Scientific
Instrument type: LC-ESI-QFT
Ms type: MS2
Ion mode: NEGATIVE
Ionization: ESI
Fragmentation mode: HCD
Collision energy: 30 % (nominal)
Resolution: 17500
Column name: XBridge C18 3.5um, 2.1x50mm, Waters
Retention time: 1.351 min
Base peak: 313.0724
Precursor m/z: 313.0724
Precursor type: [M-H]-
m/z	relative intensity	assigned
58.0298	2	C2H4NO-
61.9706	5	NOS-
63.9623	2	O2S-
77.9654	3	NO2S-
78.9736	4	HNO2S-
79.9811	5	H2NO2S-
83.0364	16	C2H3N4-
93.0458	7	C5H5N2-
94.0299	67	C5H4NO-
119.025	14	C6H3N2O-
121.0408	7	C6H5N2O-
146.0727	10	C8H8N3-
147.0564	6	C8H7N2O-
149.0594	28	C7H7N3O-
162.0674	28	C8H8N3O-
164.083	220	C8H10N3O-
165.0669	55	C8H9N2O2-
181.0075	13	C7H5N2O2S-
182.9868	88	C6H3N2O3S-
200.0497	2	C7H10N3O2S-
210.0342	195	C8H8N3O2S-
228.0449	999	C8H10N3O3S-
271.0506	23	C9H11N4O4S-
313.0726	25	C10H13N6O4S-
