Mass spectrum: Pyrazophos; LC-ESI-QFT; MS2; CE: 90%; R=17500; [M+H]+
Name: Pyrazophos
Name: ethyl 2-diethoxyphosphinothioyloxy-5-methylpyrazolo[1,5-a]pyrimidine-6-carboxylate
Formula: C14H20N3O5PS
Exact mass: 373.0861
SMILES: CCOC(=O)C1=CN2C(=CC(=N2)OP(=S)(OCC)OCC)N=C1C
InChI: InChI=1S/C14H20N3O5PS/c1-5-19-14(18)11-9-17-12(15-10(11)4)8-13(16-17)22-23(24,20-6-2)21-7-3/h8-9H,5-7H2,1-4H3
Instrument: Exploris 240 Orbitrap Thermo Scientific
Instrument type: LC-ESI-QFT
Ms type: MS2
Ion mode: POSITIVE
Ionization: ESI
Fragmentation mode: HCD
Collision energy: 90 % (nominal)
Resolution: 17500
Column name: XBridge C18 3.5um, 2.1x50mm, Waters
Retention time: 11.575 min
Base peak: 374.0932
Precursor m/z: 374.0934
Precursor type: [M+H]+
m/z	relative intensity	assigned
54.0339	32	C3H4N+
64.9787	190	H2O2P+
66.0338	63	C4H4N+
68.0132	56	C3H2NO+
68.0494	16	C4H6N+
78.0338	22	C5H4N+
78.9401	35	OPS+
80.0133	32	H5N2OP+
80.9736	52	H2O3P+
82.0287	35	C4H4NO+
92.0498	43	C6H6N+
93.0101	19	C2H6O2P+
93.0447	169	C5H5N2+
94.0287	145	C5H4NO+
95.0602	47	C5H7N2+
96.9508	564	H2O2PS+
98.9841	47	H4O4P+
105.0447	32	C6H5N2+
106.0293	12	C2H7N2OP+
109.04	17	C5H5N2O+
110.9667	24	CH4O2PS+
111.0554	18	C5H7N2O+
113.9535	131	H3O3PS+
114.9612	340	H4O3PS+
120.0554	206	C6H6N3+
121.0396	119	C6H5N2O+
131.024	24	C7H3N2O+
133.0635	14	CH13N2O3S+
134.0472	13	C3H9N3OP+
139.0502	161	C6H7N2O2+
148.0506	781	C7H6N3O+
152.0583	15	C3H11N3O2P+
159.0429	128	C8H5N3O+
165.0116	79	C7H5N2OS+
166.0612	203	C7H8N3O2+
176.0455	999	C8H6N3O2+
177.0301	93	C4H8N3O3P+
177.0535	260	C8H7N3O2+
178.0602	12	C8H8N3O2+
183.0224	160	C7H7N2O2S+
194.0561	530	C8H8N3O3+
