Mass spectrum: Sulfadimethoxine; LC-ESI-ITFT; MS2; CE: 60%; R=7500; [M+H]+
Name: Sulfadimethoxine
Name: 4-amino-N-(2,6-dimethoxy-4-pyrimidinyl)benzenesulfonamide
Formula: C12H14N4O4S
Exact mass: 310.0736
SMILES: c1(NS(c2ccc(N)cc2)(=O)=O)cc(nc(n1)OC)OC
InChI: InChI=1S/C12H14N4O4S/c1-19-11-7-10(14-12(15-11)20-2)16-21(17,18)9-5-3-8(13)4-6-9/h3-7H,13H2,1-2H3,(H,14,15,16)
Instrument: LTQ Orbitrap XL Thermo Scientific
Instrument type: LC-ESI-ITFT
Ms type: MS2
Ion mode: POSITIVE
Ionization: ESI
Fragmentation mode: HCD
Collision energy: 60 % (nominal)
Resolution: 7500
Column name: XBridge C18 3.5um, 2.1x50mm, Waters
Retention time: 5.7 min
Base peak: 311.0817
Precursor m/z: 311.0809
Precursor type: [M+H]+
m/z	relative intensity	assigned
65.0386	132	C5H5+
68.0495	81	C4H6N+
82.0286	11	C4H4NO+
92.0495	559	C6H6N+
93.0575	41	C6H7N+
96.0445	23	C5H6NO+
99.0552	17	C4H7N2O+
108.0444	945	C6H6NO+
110.0603	31	C6H8NO+
124.0502	11	C5H6N3O+
125.0585	29	C5H7N3O+
126.0663	24	C5H8N3O+
127.0501	61	C5H7N2O2+
140.0454	24	C5H6N3O2+
141.0535	24	C5H7N3O2+
154.0611	210	C6H8N3O2+
155.0689	53	C6H9N3O2+
156.0114	200	C6H6NO2S+
156.0768	999	C6H10N3O2+
157.0472	22	C3H5N6O2+
173.0587	171	C9H7N3O+
230.08	47	C11H10N4O2+
245.1023	43	C12H13N4O2+
