Mass spectrum: Genistein; LC-ESI-QFT; MS2; CE: 120; R=35000; [M-H]-
Name: Genistein
Name: 5,7-dihydroxy-3-(4-hydroxyphenyl)chromen-4-one
Formula: C15H10O5
Exact mass: 270.05282
SMILES: C1=CC(=CC=C1C2=COC3=CC(=CC(=C3C2=O)O)O)O
InChI: InChI=1S/C15H10O5/c16-9-3-1-8(2-4-9)11-7-20-13-6-10(17)5-12(18)14(13)15(11)19/h1-7,16-18H
Instrument: Q Exactive Plus Orbitrap Thermo Scientific
Instrument type: LC-ESI-QFT
Ms type: MS2
Ion mode: NEGATIVE
Ionization: ESI
Fragmentation mode: HCD
Collision energy: 120 (nominal)
Resolution: 35000
Column name: XBridge C18 3.5um, 2.1x50mm, Waters
Retention time: 7.7 min
Base peak: 269.0453
Precursor m/z: 269.0455
Precursor type: [M-H]-
m/z	relative intensity	assigned
61.0084	17	C5H-
62.0162	7	C5H2-
63.0241	559	C5H3-
63.9955	79	C4O-
65.0033	999	C4HO-
67.0189	10	C4H3O-
68.9983	8	C3HO2-
75.0241	1	C6H3-
77.0033	2	C5HO-
77.0397	32	C6H5-
79.0191	1	C5H3O-
83.0139	28	C4H3O2-
89.0033	32	C6HO-
89.0397	47	C7H5-
91.0189	99	C6H3O-
92.0268	9	C6H4O-
92.9981	1	C5HO2-
93.0345	14	C6H5O-
95.0503	69	C6H7O-
101.0397	7	C8H5-
102.0476	5	C8H6-
103.019	2	C7H3O-
103.0554	1	C8H7-
104.0268	37	C7H4O-
105.0347	8	C7H5O-
106.0425	6	C7H6O-
107.0139	38	C6H3O2-
107.0504	11	C7H7O-
108.0218	5	C6H4O2-
115.0552	9	C9H7-
116.0268	27	C8H4O-
117.0347	108	C8H5O-
119.0503	6	C8H7O-
120.0218	12	C7H4O2-
121.0296	2	C7H5O2-
122.0004	1	C6H2O3-
123.0453	38	C7H7O2-
125.0401	1	C10H5-
127.0555	1	C10H7-
128.0268	27	C9H4O-
129.0346	25	C9H5O-
130.0424	44	C9H6O-
131.0504	5	C9H7O-
132.0217	703	C8H4O2-
133.0296	142	C8H5O2-
134.0374	286	C8H6O2-
135.0452	38	C8H7O2-
139.0555	5	C11H7-
140.0266	9	C10H4O-
141.0347	43	C10H5O-
142.0426	1	C10H6O-
143.0501	10	C10H7O-
145.0294	4	C9H5O2-
153.0348	2	C11H5O-
154.0425	22	C11H6O-
155.0506	8	C11H7O-
156.0217	16	C10H4O2-
157.0296	16	C10H5O2-
158.0373	16	C10H6O2-
159.0451	6	C10H7O2-
167.0503	41	C12H7O-
169.0296	2	C11H5O2-
171.0446	1	C11H7O2-
180.0584	5	C13H8O-
182.0373	10	C12H6O2-
183.0454	8	C12H7O2-
195.0453	24	C13H7O2-
210.0327	2	C13H6O3-
211.0403	9	C13H7O3-
223.0403	6	C14H7O3-
