Mass spectrum: Pyrimethanil; LC-ESI-ITFT; MS2; CE: 90%; R=7500; [M+H]+
Name: Pyrimethanil
Name: (4,6-dimethylpyrimidin-2-yl)-phenyl-amine
Formula: C12H13N3
Exact mass: 199.1109
SMILES: c(ccc1N-c(nc(c2)C)nc2C)cc1
InChI: InChI=1S/C12H13N3/c1-9-8-10(2)14-12(13-9)15-11-6-4-3-5-7-11/h3-8H,1-2H3,(H,13,14,15)
Instrument: LTQ Orbitrap XL Thermo Scientific
Instrument type: LC-ESI-ITFT
Ms type: MS2
Ion mode: POSITIVE
Ionization: ESI
Fragmentation mode: HCD
Collision energy: 90 % (nominal)
Resolution: 7500
Column name: XBridge C18 3.5um, 2.1x50mm, Waters
Retention time: 7.6 min
Base peak: 200.1185
Precursor m/z: 200.1182
Precursor type: [M+H]+
m/z	relative intensity	assigned
53.0385	32	C4H5+
58.0652	13	C3H8N+
65.0385	84	C5H5+
66.0337	125	C4H4N+
67.0291	121	C3H3N2+
67.0417	81	C4H5N+
77.0386	177	C6H5+
80.0494	425	C5H6N+
82.0651	937	C5H8N+
83.0603	102	C4H7N2+
91.0539	39	C7H7+
92.0494	177	C6H6N+
93.0573	129	C6H7N+
94.0654	11	C6H8N+
95.0492	24	C6H7O+
98.0598	17	C5H8NO+
105.0445	61	C6H5N2+
107.0603	894	C6H7N2+
115.0541	87	C9H7+
116.0494	25	C8H6N+
117.0574	37	C8H7N+
118.0525	44	C7H6N2+
118.0651	109	C8H8N+
119.0603	242	C7H7N2+
125.0709	243	C6H9N2O+
129.0698	39	C10H9+
131.0602	59	C8H7N2+
139.0545	21	C11H7+
140.049	33	C10H6N+
141.0571	49	C10H7N+
142.0651	203	C10H8N+
143.0603	295	C9H7N2+
146.0602	12	C9H8NO+
154.0651	13	C11H8N+
155.0601	17	C10H7N2+
156.0682	52	C10H8N2+
156.0808	95	C11H10N+
157.0765	11	C10H9N2+
158.0832	25	C10H10N2+
159.0916	105	C10H11N2+
166.0652	69	C12H8N+
167.073	83	C12H9N+
168.0682	705	C11H8N2+
173.1081	33	C11H13N2+
181.0759	196	C12H9N2+
182.0838	802	C12H10N2+
183.0916	821	C12H11N2+
184.0874	18	C11H10N3+
185.0945	50	C11H11N3+
198.1024	48	C12H12N3+
200.1177	999	C12H14N3+
