Mass spectrum: Cyenopyrafen; LC-ESI-QFT; MS2; CE: 60%; R=17500; [M+H]+
Name: Cyenopyrafen
Name: (E)-2-(4-tert-butylphenyl)-2-cyano-1-(1,3,4-trimethylpyrazol-5-yl)vinyl 2,2-dimethylpropionate
Name: [2-(4-tert-butylphenyl)-2-cyano-1-(2,4,5-trimethylpyrazol-3-yl)ethenyl] 2,2-dimethylpropanoate
Formula: C24H31N3O2
Exact mass: 393.2416
SMILES: CC1=C(N(N=C1C)C)C(=C(C#N)C2=CC=C(C=C2)C(C)(C)C)OC(=O)C(C)(C)C
InChI: InChI=1S/C24H31N3O2/c1-15-16(2)26-27(9)20(15)21(29-22(28)24(6,7)8)19(14-25)17-10-12-18(13-11-17)23(3,4)5/h10-13H,1-9H3
Instrument: Exploris 240 Orbitrap Thermo Scientific
Instrument type: LC-ESI-QFT
Ms type: MS2
Ion mode: POSITIVE
Ionization: ESI
Fragmentation mode: HCD
Collision energy: 60 % (nominal)
Resolution: 17500
Column name: XBridge C18 3.5um, 2.1x50mm, Waters
Retention time: 14.706 min
Base peak: 360.3623
Precursor m/z: 394.2489
Precursor type: [M+H]+
m/z	relative intensity	assigned
57.0699	507	C4H9+
69.0573	57	C4H7N+
91.0542	10	C7H7+
95.0603	20	C5H7N2+
109.0762	45	C6H9N2+
110.0839	93	C6H10N2+
111.0917	173	C6H11N2+
116.0495	28	C8H6N+
137.071	63	C7H9N2O+
144.0442	50	C9H6NO+
147.1168	18	C11H15+
159.0812	8	C11H11O+
184.0757	161	C12H10NO+
185.107	9	C12H13N2+
209.1068	13	C14H13N2+
236.1183	29	C15H14N3+
253.121	131	C15H15N3O+
254.129	999	C15H16N3O+
294.1604	502	C18H20N3O+
310.1917	255	C19H24N3O+
