Mass spectrum: Dimethachlor; LC-ESI-ITFT; MS2; CE: 75%; R=7500; [M+H]+
Name: Dimethachlor
Name: 2-chloranyl-N-(2,6-dimethylphenyl)-N-(2-methoxyethyl)ethanamide
Formula: C13H18ClNO2
Exact mass: 255.1021
SMILES: Cc1cccc(C)c1N(CCOC)C(=O)CCl
InChI: InChI=1S/C13H18ClNO2/c1-10-5-4-6-11(2)13(10)15(7-8-17-3)12(16)9-14/h4-6H,7-9H2,1-3H3
Instrument: LTQ Orbitrap XL Thermo Scientific
Instrument type: LC-ESI-ITFT
Ms type: MS2
Ion mode: POSITIVE
Ionization: ESI
Fragmentation mode: HCD
Collision energy: 75 % (nominal)
Resolution: 7500
Column name: XBridge C18 3.5um, 2.1x50mm, Waters
Retention time: 9.1 min
Base peak: 256.1106
Precursor m/z: 256.1099
Precursor type: [M+H]+
m/z	relative intensity	assigned
76.9789	29	C2H2ClO+
77.0386	12	C6H5+
79.0543	40	C6H7+
91.0542	22	C7H7+
93.07	4	C7H9+
103.0543	21	C8H7+
105.0699	220	C8H9+
106.0778	8	C8H10+
107.0857	12	C8H11+
116.0618	4	C9H8+
117.0573	3	C8H7N+
118.0652	43	C8H8N+
119.0855	20	C9H11+
120.0807	21	C8H10N+
121.0646	20	C8H9O+
121.1012	3	C9H13+
122.0968	5	C8H12N+
123.0807	3	C8H11O+
131.0731	30	C9H9N+
131.0856	21	C10H11+
132.0809	199	C9H10N+
133.0887	84	C9H11N+
134.0965	8	C9H12N+
144.0806	8	C10H10N+
146.0964	38	C10H12N+
147.0672	5	C9H9NO+
147.1039	12	C10H13N+
148.1122	999	C10H14N+
153.0465	4	C9H10Cl+
174.0914	28	C11H12NO+
224.0832	130	C12H15ClNO+
