Mass spectrum: Lauroyl Lysine; LC-ESI-QFT; MS2; CE: 45%; R=17500; [M-H]-
Name: Lauroyl Lysine
Name: N6-Dodecanoyllysine
Name: 2-amino-6-(dodecanoylamino)hexanoic acid
Formula: C18H36N2O3
Exact mass: 328.2726
SMILES: CCCCCCCCCCCC(=O)NCCCCC(C(=O)O)N
InChI: InChI=1S/C18H36N2O3/c1-2-3-4-5-6-7-8-9-10-14-17(21)20-15-12-11-13-16(19)18(22)23/h16H,2-15,19H2,1H3,(H,20,21)(H,22,23)
Instrument: Exploris 240 Orbitrap Thermo Scientific
Instrument type: LC-ESI-QFT
Ms type: MS2
Ion mode: NEGATIVE
Ionization: ESI
Fragmentation mode: HCD
Collision energy: 45 % (nominal)
Resolution: 17500
Column name: XBridge C18 3.5um, 2.1x50mm, Waters
Retention time: 12.151 min
Base peak: 327.2653
Precursor m/z: 327.2653
Precursor type: [M-H]-
m/z	relative intensity	assigned
97.0773	9	C5H9N2-
128.0715	20	C6H10NO2-
145.0982	889	C6H13N2O2-
198.1861	67	C12H24NO-
254.249	4	C16H32NO-
266.248	8	C17H32NO-
279.2448	13	C17H31N2O-
281.2594	21	C17H33N2O-
283.2754	110	C17H35N2O-
327.2653	999	C18H35N2O3-
