Mass spectrum: Asulam-TP Sulfanilamide; LC-ESI-QFT; MS2; CE: 90%; R=17500; [M+H]+
Name: Asulam-TP Sulfanilamide
Name: Sulfanilamide
Name: 4-aminobenzenesulfonamide
Formula: C6H8N2O2S
Exact mass: 172.0306
SMILES: C1=C(C=CC(=C1)S(=O)(=O)N)N
InChI: InChI=1S/C6H8N2O2S/c7-5-1-3-6(4-2-5)11(8,9)10/h1-4H,7H2,(H2,8,9,10)
Instrument: Q Exactive Plus Orbitrap Thermo Scientific
Instrument type: LC-ESI-QFT
Ms type: MS2
Ion mode: POSITIVE
Ionization: ESI
Fragmentation mode: HCD
Collision energy: 90 % (nominal)
Resolution: 17500
Column name: XBridge C18 3.5um, 2.1x50mm, Waters
Retention time: 1.130 min
Base peak: 156.0115
Precursor m/z: 173.0379
Precursor type: [M+H]+
m/z	relative intensity	assigned
50.0151	8	C4H2+
51.0229	2	C4H3+
53.0021	3	C3HO+
53.0386	7	C4H5+
55.0179	3	C3H3O+
56.0495	2	
65.0386	601	C5H5+
66.0464	163	C5H6+
67.0417	7	C4H5N+
68.0494	4	C4H6N+
74.0151	4	C6H2+
75.0229	79	C6H3+
76.0307	101	C6H4+
79.0178	2	C5H3O+
80.0495	110	C5H6N+
81.0335	11	C5H5O+
92.0495	217	C6H6N+
93.0574	999	C6H7N+
94.0416	3	C6H6O+
108.0444	114	C6H6NO+
109.0284	2	C6H5O2+
109.0528	3	C6H7NO+
110.06	30	C6H8NO+
125.0472	234	C6H7NO2+
173.0378	18	C6H9N2O2S+
