Mass spectrum: Dimethoate; LC-ESI-ITFT; MS2; CE: 30%; R=7500; [M+H]+
Name: Dimethoate
Name: 2-(dimethoxyphosphinothioylthio)-N-methylacetamide
Formula: C5H12NO3PS2
Exact mass: 228.9996
SMILES: P(SCC(NC)=O)(OC)(OC)=S
InChI: InChI=1S/C5H12NO3PS2/c1-6-5(7)4-12-10(11,8-2)9-3/h4H2,1-3H3,(H,6,7)
Instrument: LTQ Orbitrap XL Thermo Scientific
Instrument type: LC-ESI-ITFT
Ms type: MS2
Ion mode: POSITIVE
Ionization: ESI
Fragmentation mode: HCD
Collision energy: 30 % (nominal)
Resolution: 7500
Column name: XBridge C18 3.5um, 2.1x50mm, Waters
Retention time: 5.2 min
Base peak: 230.007
Precursor m/z: 230.0069
Precursor type: [M+H]+
m/z	relative intensity	assigned
58.9948	1	C2H3S+
61.0107	14	C2H5S+
78.9943	10	CH4O2P+
88.0215	292	C3H6NS+
93.0099	4	C2H6O2P+
104.0162	4	C3H6NOS+
109.0045	3	C2H6O3P+
110.9665	8	CH4O2PS+
119.9938	13	C3H6NS2+
123.9978	6	C2H7NOPS+
124.982	673	C2H6O2PS+
127.0153	4	C2H8O4P+
128.9768	3	CH6O3PS+
140.9593	5	C2H6OPS2+
142.9926	429	C2H8O3PS+
155.9698	6	C2H7NOPS2+
156.9542	69	C2H6O2PS2+
158.9697	9	C2H8O2PS2+
169.9868	2	C5H3N2O3P+
170.9697	999	C3H8O2PS2+
197.9807	86	C4H9NO2PS2+
198.9646	813	C4H8O3PS2+
230.0068	16	C5H13NO3PS2+
