Mass spectrum: Triamterene; LC-ESI-QFT; MS2; CE: 150; R=35000; [M+H]+
Name: Triamterene
Name: 6-phenylpteridine-2,4,7-triamine
Formula: C12H11N7
Exact mass: 253.10759
SMILES: C1=CC=C(C=C1)C2=NC3=C(N=C2N)N=C(N=C3N)N
InChI: InChI=1S/C12H11N7/c13-9-7(6-4-2-1-3-5-6)16-8-10(14)18-12(15)19-11(8)17-9/h1-5H,(H6,13,14,15,17,18,19)
Instrument: Q Exactive Plus Orbitrap Thermo Scientific
Instrument type: LC-ESI-QFT
Ms type: MS2
Ion mode: POSITIVE
Ionization: ESI
Fragmentation mode: HCD
Collision energy: 150 (nominal)
Resolution: 35000
Column name: XBridge C18 3.5um, 2.1x50mm, Waters
Retention time: 4.5 min
Base peak: 254.1144
Precursor m/z: 254.1149
Precursor type: [M+H]+
m/z	relative intensity	assigned
50.0151	41	C4H2+
51.023	40	C4H3+
52.0181	1	C3H2N+
53.0386	93	C4H5+
53.9975	28	C2NO+
55.0179	6	C3H3O+
55.0291	46	C2H3N2+
61.0073	1	C5H+
62.0151	10	C5H2+
63.023	139	C5H3+
64.0182	6	C4H2N+
65.0135	103	C3HN2+
65.0386	17	C5H5+
66.0212	4	C3H2N2+
66.0464	19	C5H6+
67.0291	15	C3H3N2+
68.0243	19	C2H2N3+
75.0229	14	C6H3+
76.0181	6	C5H2N+
76.0307	21	C6H4+
77.0386	174	C6H5+
78.0339	1	C5H4N+
79.0542	79	C6H7+
80.0243	45	C3H2N3+
81.0336	11	C5H5O+
82.04	4	C3H4N3+
87.0229	6	C7H3+
88.0182	18	C6H2N+
88.0308	7	C7H4+
89.0386	999	C7H5+
90.0087	33	C4N3+
90.0339	24	C6H4N+
90.0465	26	C7H6+
91.0418	6	C6H5N+
91.0542	10	C7H7+
92.0244	93	C4H2N3+
94.0414	6	C6H6O+
95.0492	289	C6H7O+
99.023	1	C8H3+
100.0182	4	C7H2N+
101.0262	3	C7H3N+
102.0339	13	C7H4N+
103.0417	110	C7H5N+
104.0495	550	C7H6N+
105.0448	201	C6H5N2+
106.0652	1	C7H8N+
112.0183	2	C8H2N+
114.0339	187	C8H4N+
115.0417	60	C8H5N+
116.0495	223	C8H6N+
117.0573	26	C8H7N+
119.0363	1	C7H5NO+
120.0443	4	C7H6NO+
126.034	3	C9H4N+
128.037	7	C8H4N2+
129.0448	17	C8H5N2+
130.0401	21	C7H4N3+
131.0605	21	C8H7N2+
132.0445	8	C8H6NO+
133.0523	7	C8H7NO+
134.0601	10	C8H8NO+
139.0291	17	C9H3N2+
140.037	3	C9H4N2+
141.0448	247	C9H5N2+
142.0526	69	C9H6N2+
143.0604	3	C9H7N2+
153.0447	1	C10H5N2+
154.04	4	C9H4N3+
156.0557	1	C9H6N3+
157.0397	2	C9H5N2O+
159.0553	3	C9H7N2O+
166.04	4	C10H4N3+
167.0478	4	C10H5N3+
168.0555	4	C10H6N3+
