Mass spectrum: Imatinib; LC-ESI-QFT; MS2; CE: 90; R=35000; [M+H]+
Name: Imatinib
Name: 4-[(4-methylpiperazin-1-yl)methyl]-N-[4-methyl-3-[(4-pyridin-3-ylpyrimidin-2-yl)amino]phenyl]benzamide
Formula: C29H31N7O
Exact mass: 493.25901
SMILES: CC1=C(C=C(C=C1)NC(=O)C2=CC=C(C=C2)CN3CCN(CC3)C)NC4=NC=CC(=N4)C5=CN=CC=C5
InChI: InChI=1S/C29H31N7O/c1-21-5-10-25(18-27(21)34-29-31-13-11-26(33-29)24-4-3-12-30-19-24)32-28(37)23-8-6-22(7-9-23)20-36-16-14-35(2)15-17-36/h3-13,18-19H,14-17,20H2,1-2H3,(H,32,37)(H,31,33,34)
Instrument: Q Exactive Plus Orbitrap Thermo Scientific
Instrument type: LC-ESI-QFT
Ms type: MS2
Ion mode: POSITIVE
Ionization: ESI
Fragmentation mode: HCD
Collision energy: 90 (nominal)
Resolution: 35000
Column name: XBridge C18 3.5um, 2.1x50mm, Waters
Retention time: 5.8 min
Base peak: 247.6364
Precursor m/z: 494.2663
Precursor type: [M+H]+
m/z	relative intensity	assigned
50.0151	21	C4H2+
51.0228	28	C4H3+
52.0182	77	C3H2N+
53.0386	63	C4H5+
54.0339	16	C3H4N+
55.0179	14	C3H3O+
55.0416	8	C3H5N+
56.0495	408	C3H6N+
57.0573	25	C3H7N+
58.0651	999	C3H8N+
62.015	4	C5H2+
63.0229	22	C5H3+
65.0385	130	C5H5+
66.0464	277	C5H6+
67.0417	4	C4H5N+
67.0543	3	C5H7+
68.0256	15	C4H4O+
68.0494	44	C4H6N+
69.0447	5	C3H5N2+
69.0573	4	C4H7N+
70.0651	834	C4H8N+
71.0603	7	C3H7N2+
71.0729	3	C4H9N+
72.0807	64	C4H10N+
77.0385	55	C6H5+
78.0338	156	C5H4N+
79.0416	21	C5H5N+
79.0541	32	C6H7+
80.0494	181	C5H6N+
81.0334	4	C5H5O+
82.0525	19	C4H6N2+
82.0651	58	C5H8N+
83.0603	136	C4H7N2+
84.0682	135	C4H8N2+
89.0385	337	C7H5+
90.0464	678	C7H6+
91.0542	646	C7H7+
92.0495	26	C6H6N+
93.0335	6	C6H5O+
93.0448	4	C5H5N2+
93.0573	4	C6H7N+
94.0416	25	C6H6O+
94.065	29	C6H8N+
95.0491	173	C6H7O+
96.0443	171	C5H6NO+
96.0682	17	C5H8N2+
97.076	136	C5H9N2+
98.0838	202	C5H10N2+
99.0916	85	C5H11N2+
101.1073	7	C5H13N2+
102.0339	8	C7H4N+
102.0465	4	C8H6+
103.0417	8	C7H5N+
103.0542	127	C8H7+
104.0494	548	C7H6N+
105.0335	229	C7H5O+
105.0447	337	C6H5N2+
105.07	25	C8H9+
106.0652	27	C7H8N+
107.0491	14	C7H7O+
109.0648	58	C7H9O+
109.0759	6	C6H9N2+
110.0601	6	C6H8NO+
111.0315	5	C5H5NO2+
111.0915	40	C6H11N2+
112.0995	7	C6H12N2+
115.0542	48	C9H7+
116.0494	40	C8H6N+
117.0447	5	C7H5N2+
117.0573	99	C8H7N+
117.0698	5	C9H9+
118.0413	122	C8H6O+
118.0526	20	C7H6N2+
118.0651	57	C8H8N+
119.0491	140	C8H7O+
119.0604	121	C7H7N2+
120.0443	5	C7H6NO+
121.076	55	C7H9N2+
122.0362	142	C7H6O2+
128.062	31	C10H8+
129.0447	75	C8H5N2+
129.0573	66	C9H7N+
129.0699	8	C10H9+
130.0402	20	C7H4N3+
130.0526	23	C8H6N2+
130.0651	89	C9H8N+
131.0494	141	C9H7O+
131.0603	685	C8H7N2+
132.0443	32	C8H6NO+
132.0682	75	C8H8N2+
132.0807	26	C9H10N+
133.0762	7	C8H9N2+
134.06	13	C8H8NO+
135.0554	7	C7H7N2O+
135.0917	15	C8H11N2+
139.0542	6	C11H7+
140.0493	27	C10H6N+
141.0699	34	C11H9+
142.0525	5	C9H6N2+
142.0654	7	C10H8N+
143.0604	23	C9H7N2+
143.073	6	C10H9N+
144.0557	7	C8H6N3+
144.0809	6	C10H10N+
145.0643	15	C10H9O+
145.0762	6	C9H9N2+
146.0601	7	C9H8NO+
146.0713	45	C8H8N3+
146.0964	4	C10H12N+
147.0553	26	C8H7N2O+
151.0542	15	C12H7+
152.062	403	C12H8+
153.0571	26	C11H7N+
153.0699	50	C12H9+
154.0652	50	C11H8N+
154.0777	14	C12H10+
155.06	29	C10H7N2+
156.0556	222	C9H6N3+
157.0637	18	C9H7N3+
158.0601	21	C10H8NO+
158.0712	32	C9H8N3+
160.0755	5	C10H10NO+
161.0471	68	C9H7NO2+
163.0545	3	C13H7+
164.062	16	C13H8+
165.0699	560	C13H9+
166.0651	60	C12H8N+
166.0776	82	C13H10+
167.0731	108	C12H9N+
167.0854	139	C13H11+
168.0568	6	C12H8O+
168.0807	71	C12H10N+
169.0648	81	C12H9O+
169.0887	15	C12H11N+
170.0714	14	C10H8N3+
171.0663	31	C9H7N4+
171.0789	15	C10H9N3+
173.0821	37	C9H9N4+
174.0661	90	C9H8N3O+
176.0619	125	C14H8+
177.0574	153	C13H7N+
177.0697	149	C14H9+
178.0653	220	C13H8N+
178.0776	425	C14H10+
179.0729	385	C13H9N+
179.0849	89	C14H11+
180.0807	188	C13H10N+
181.0646	24	C13H9O+
181.0762	5	C12H9N2+
181.0885	19	C13H11N+
182.0601	31	C12H8NO+
182.0723	21	C13H10O+
182.0966	40	C13H12N+
183.0675	22	C12H9NO+
183.1044	13	C13H13N+
185.0813	3	C10H9N4+
189.0575	13	C14H7N+
190.0651	204	C14H8N+
191.0596	15	C13H7N2+
191.0728	196	C14H9N+
192.0683	30	C13H8N2+
192.0807	340	C14H10N+
193.0522	19	C13H7NO+
193.0762	41	C13H9N2+
193.0886	350	C14H11N+
194.0964	650	C14H12N+
195.0676	8	C13H9NO+
195.0805	44	C14H11O+
195.0917	132	C13H11N2+
195.1045	30	C14H13N+
196.0757	93	C13H10NO+
197.0832	33	C13H11NO+
201.0573	25	C15H7N+
202.0652	66	C15H8N+
203.0605	67	C14H7N2+
203.073	261	C15H9N+
204.0683	190	C14H8N2+
204.0809	181	C15H10N+
205.0525	19	C14H7NO+
205.0762	334	C14H9N2+
205.0886	95	C15H11N+
206.0603	114	C14H8NO+
206.0718	18	C13H8N3+
206.0838	217	C14H10N2+
207.068	97	C14H9NO+
207.0785	5	C13H9N3+
207.0916	8	C14H11N2+
208.0757	171	C14H10NO+
208.0994	17	C14H12N2+
209.0469	16	C13H7NO2+
209.1074	184	C14H13N2+
210.0913	102	C14H12NO+
210.1146	35	C14H14N2+
211.0627	23	C13H9NO2+
211.0991	5	C14H13NO+
215.0603	27	C15H7N2+
216.0683	41	C15H8N2+
217.0762	121	C15H9N2+
218.0839	345	C15H10N2+
219.0917	810	C15H11N2+
220.0758	317	C15H10NO+
220.0869	63	C14H10N3+
220.0994	44	C15H12N2+
221.0475	6	C14H7NO2+
221.0709	104	C14H9N2O+
221.0831	48	C15H11NO+
221.0946	31	C14H11N3+
221.1072	19	C15H13N2+
222.0795	52	C14H10N2O+
222.0913	698	C15H12NO+
223.0866	90	C14H11N2O+
223.0987	96	C15H13NO+
224.0949	6	C14H12N2O+
228.068	22	C16H8N2+
229.0761	136	C16H9N2+
230.0714	52	C15H8N3+
230.0839	26	C16H10N2+
231.0556	38	C15H7N2O+
231.0792	72	C15H9N3+
231.0919	28	C16H11N2+
232.0632	295	C15H8N2O+
232.0873	26	C15H10N3+
232.0997	20	C16H12N2+
233.0711	87	C15H9N2O+
233.0824	28	C14H9N4+
233.0946	8	C15H11N3+
233.1073	19	C16H13N2+
234.0788	38	C15H10N2O+
234.0901	176	C14H10N4+
234.1027	38	C15H12N3+
235.0865	30	C15H11N2O+
235.0979	23	C14H11N4+
235.1097	7	C15H13N3+
236.0699	3	C13H8N4O+
236.1177	8	C15H14N3+
237.1023	247	C15H13N2O+
238.1101	72	C15H14N2O+
241.0636	8	C16H7N3+
242.0837	5	C17H10N2+
243.0794	5	C16H9N3+
243.0921	15	C17H11N2+
244.0755	5	C15H8N4+
244.0869	28	C16H10N3+
244.0992	6	C17H12N2+
245.072	37	C16H9N2O+
245.0823	40	C15H9N4+
245.0949	23	C16H11N3+
245.1074	16	C17H13N2+
246.0788	141	C16H10N2O+
246.0903	36	C15H10N4+
246.1027	46	C16H12N3+
247.0866	776	C16H11N2O+
248.0817	54	C15H10N3O+
248.0943	48	C16H12N2O+
248.1061	8	C15H12N4+
249.0899	105	C15H11N3O+
249.1019	13	C16H13N2O+
249.1135	15	C15H13N4+
251.0817	29	C15H11N2O2+
255.0792	20	C17H9N3+
255.0911	4	C18H11N2+
256.0868	58	C17H10N3+
256.0989	5	C18H12N2+
257.0704	6	C17H9N2O+
257.0825	6	C16H9N4+
257.0947	13	C17H11N3+
258.0666	13	C16H8N3O+
258.0787	6	C17H10N2O+
258.0905	8	C16H10N4+
258.1026	12	C17H12N3+
259.075	81	C16H9N3O+
259.0978	203	C16H11N4+
260.0813	14	C16H10N3O+
260.0932	30	C15H10N5+
260.1057	19	C16H12N4+
261.101	129	C15H11N5+
261.1137	38	C16H13N4+
262.0975	16	C16H12N3O+
262.109	20	C15H12N5+
263.1178	13	C17H15N2O+
264.1134	45	C16H14N3O+
265.0971	117	
270.1021	5	C18H12N3+
271.1107	14	C18H13N3+
272.0819	23	C17H10N3O+
272.0942	5	C18H12N2O+
273.0894	22	C17H11N3O+
274.0971	88	C17H12N3O+
274.1091	45	C16H12N5+
276.1245	23	C16H14N5+
280.0856	11	C19H10N3+
283.0978	14	C18H11N4+
288.0879	14	C16H10N5O+
288.113	5	C18H14N3O+
293.0938	6	C20H11N3+
294.1021	5	C20H12N3+
297.1142	4	C19H13N4+
301.1089	6	C18H13N4O+
306.1023	21	C21H12N3+
307.1109	7	C21H13N3+
308.1051	18	C20H12N4+
308.1192	14	C23H16O+
309.1137	17	C20H13N4+
317.0953	8	C22H11N3+
318.0888	8	C21H10N4+
319.098	13	C21H11N4+
320.1049	17	C21H12N4+
321.112	27	C21H13N4+
322.1199	6	C21H14N4+
323.1297	45	C21H15N4+
331.0978	4	C22H11N4+
332.1054	23	C22H12N4+
333.1133	125	C22H13N4+
335.0928	7	C21H11N4O+
335.1312	40	C24H17NO+
337.1084	8	C19H11N7+
337.1439	25	C22H17N4+
346.1075	7	C22H12N5+
347.1305	35	C23H15N4+
349.11	7	C22H13N4O+
350.1169	15	C22H14N4O+
350.1399	197	C24H18N2O+
351.1249	102	C22H15N4O+
351.1476	21	C22H17N5+
359.1163	74	C23H13N5+
360.1245	287	C23H14N5+
361.1097	28	C23H13N4O+
362.1024	58	C22H12N5O+
364.1188	15	C22H14N5O+
364.1554	18	C23H18N5+
374.1401	24	C24H16N5+
376.119	50	C23H14N5O+
377.1264	81	C23H15N5O+
378.1351	771	C23H16N5O+
