Mass spectrum: Tramadol N-Oxide; LC-ESI-QFT; MS2; CE: 45; R=35000; [M+H]+
Name: Tramadol N-Oxide
Name: 1-[(1R,2R)-2-hydroxy-2-(3-methoxyphenyl)cyclohexyl]-N,N-dimethylmethanamine oxide
Formula: C16H25NO3
Exact mass: 279.18344
SMILES: [O-][N+](C)(C)C[C@H]2CCCC[C@]2(O)c1cc(OC)ccc1
InChI: InChI=1S/C16H25NO3/c1-17(2,19)12-14-7-4-5-10-16(14,18)13-8-6-9-15(11-13)20-3/h6,8-9,11,14,18H,4-5,7,10,12H2,1-3H3/t14-,16+/m1/s1
Instrument: Q Exactive Plus Orbitrap Thermo Scientific
Instrument type: LC-ESI-QFT
Ms type: MS2
Ion mode: POSITIVE
Ionization: ESI
Fragmentation mode: HCD
Collision energy: 45 (nominal)
Resolution: 35000
Column name: XBridge C18 3.5um, 2.1x50mm, Waters
Retention time: 5.1 min
Base peak: 280.1904
Precursor m/z: 280.1907
Precursor type: [M+H]+
m/z	relative intensity	assigned
55.0542	6	C4H7+
56.0495	3	C3H6N+
58.0651	848	C3H8N+
62.06	13	C2H8NO+
67.0542	14	C5H7+
68.0494	9	C4H6N+
69.0334	2	C4H5O+
69.0698	3	C5H9+
70.0651	3	C4H8N+
71.0729	3	C4H9N+
72.0807	8	C4H10N+
74.06	33	C3H8NO+
77.0384	3	C6H5+
79.0541	8	C6H7+
81.0572	1	C5H7N+
81.0698	12	C6H9+
82.0651	18	C5H8N+
83.0855	10	C6H11+
84.0808	13	C5H10N+
91.0542	6	C7H7+
92.0253	3	C6H4O+
93.0699	22	C7H9+
94.0651	4	C6H8N+
95.0492	5	C6H7O+
95.073	11	C6H9N+
97.0886	2	C6H11N+
107.0491	14	C7H7O+
108.0807	15	C7H10N+
109.0648	20	C7H9O+
110.0964	287	C7H12N+
111.0804	2	C7H11O+
121.0648	140	C8H9O+
125.0597	39	C7H9O2+
126.1277	5	C8H16N+
131.0492	2	C9H7O+
133.0649	2	C9H9O+
135.044	999	C8H7O2+
137.0597	10	C8H9O2+
144.0571	4	C10H8O+
145.0648	10	C10H9O+
146.0728	2	C10H10O+
147.0804	35	C10H11O+
151.075	2	C9H11O2+
158.0726	4	C11H10O+
159.0804	125	C11H11O+
160.0883	7	C11H12O+
161.0597	2	C10H9O2+
161.096	5	C11H13O+
163.0752	3	C10H11O2+
171.0805	2	C12H11O+
172.0882	2	C12H12O+
173.0961	29	C12H13O+
175.0753	2	C11H11O2+
175.1116	3	C12H15O+
184.0883	2	C13H12O+
186.104	2	C13H14O+
189.1276	4	C13H17O+
191.1065	22	C12H15O2+
199.1118	4	C14H15O+
201.1273	192	C14H17O+
217.1227	1	C14H17O2+
219.1379	4	C14H19O2+
234.1485	2	C14H20NO2+
244.1696	1	C16H22NO+
262.1801	184	C16H24NO2+
280.1907	21	C16H26NO3+
