Mass spectrum: Edetic acid (EDTA); LC-ESI-QFT; MS2; CE: 60%; R=15000; [M-H]-
Name: Edetic acid (EDTA)
Name: Edetic acid
Name: 2-[2-[bis(carboxymethyl)amino]ethyl-(carboxymethyl)amino]acetic acid
Formula: C10H16N2O8
Exact mass: 292.0907
SMILES: C(CN(CC(=O)O)CC(=O)O)N(CC(=O)O)CC(=O)O
InChI: InChI=1S/C10H16N2O8/c13-7(14)3-11(4-8(15)16)1-2-12(5-9(17)18)6-10(19)20/h1-6H2,(H,13,14)(H,15,16)(H,17,18)(H,19,20)
Instrument: Orbitrap Exploris 240 Thermo Scientific
Instrument type: LC-ESI-QFT
Ms type: MS2
Ion mode: NEGATIVE
Ionization: ESI
Fragmentation mode: HCD
Collision energy: 60 % (nominal)
Resolution: 15000
Column name: Atlantis C18 3um, 3.0x150mm, Waters
Retention time: 4.243 min
Base peak: 291.0834
Precursor m/z: 291.0834
Precursor type: [M-H]-
Precursor intensity: 339100352
m/z	relative intensity	assigned
58.0061	52	C2H2O2-
59.0139	35	C2H3O2-
75.0088	109	C2H3O3-
86.0248	112	C3H4NO2-
88.0404	999	C3H6NO2-
100.0403	35	C4H6NO2-
101.0483	38	C4H7NO2-
114.0562	58	C5H8NO2-
129.0668	84	C5H9N2O2-
131.0825	36	C5H11N2O2-
132.0305	58	C4H6NO4-
143.0827	108	C6H11N2O2-
145.0983	146	C6H13N2O2-
157.0983	230	C7H13N2O2-
159.114	59	C7H15N2O2-
171.0781	59	C7H11N2O3-
187.0719	19	C7H11N2O4-
