Mass spectrum: Chlortetracycline; LC-ESI-QFT; MS2; CE: 30; R=35000; [M-H]-
Name: Chlortetracycline
Name: 2-carbamoyl-7-chloro-4-(dimethylazaniumyl)-6,10,11,12a-tetrahydroxy-6-methyl-3,12-dioxo-4,4a,5,5a-tetrahydrotetracen-1-olate
Formula: C22H23ClN2O8
Exact mass: 478.11429
SMILES: CC1(C2CC3C(C(=O)C(=C(C3(C(=O)C2=C(C4=C(C=CC(=C41)Cl)O)O)O)O)C(=O)N)N(C)C)O
InChI: InChI=1S/C22H23ClN2O8/c1-21(32)7-6-8-15(25(2)3)17(28)13(20(24)31)19(30)22(8,33)18(29)11(7)16(27)12-10(26)5-4-9(23)14(12)21/h4-5,7-8,15,26-27,30,32-33H,6H2,1-3H3,(H2,24,31)
Instrument: Q Exactive Plus Orbitrap Thermo Scientific
Instrument type: LC-ESI-QFT
Ms type: MS2
Ion mode: NEGATIVE
Ionization: ESI
Fragmentation mode: HCD
Collision energy: 30 (nominal)
Resolution: 35000
Column name: XBridge C18 3.5um, 2.1x50mm, Waters
Retention time: 5.4 min
Base peak: 477.1067
Precursor m/z: 477.107
Precursor type: [M-H]-
m/z	relative intensity	assigned
67.0068	1	ClH4N2-
84.0091	1	C3H2NO2-
99.0087	1	C4H3O3-
100.0767	1	C5H10NO-
109.0294	2	C6H5O2-
124.004	1	C5H2NO3-
125.072	6	C6H9N2O-
126.0197	1	C5H4NO3-
126.0559	2	C6H8NO2-
126.9952	2	C6H4ClO-
135.0087	2	C7H3O3-
136.0405	4	C7H6NO2-
142.0145	17	C5H4NO4-
142.9984	2	C5H3O5-
152.0354	3	C7H6NO3-
154.0384	1	C6H6N2O3-
161.0245	1	C9H5O3-
162.0196	1	C8H4NO3-
163.0037	4	C8H3O4-
166.0873	1	C9H12NO2-
169.006	13	C8H6ClO2-
169.0618	16	C7H9N2O3-
170.9854	1	C7H4ClO3-
175.0401	5	C10H7O3-
180.0302	52	C8H6NO4-
181.0383	1	C8H7NO4-
191.0351	1	C10H7O4-
192.0667	1	C10H10NO3-
193.0061	1	C10H6ClO2-
193.0506	1	C10H9O4-
194.9853	28	C9H4ClO3-
195.0217	5	C10H8ClO2-
197.001	66	C9H6ClO3-
206.013	2	C11H7ClO2-
207.0218	6	C11H8ClO2-
207.993	1	C10H5ClO3-
209.0932	27	C10H13N2O3-
221.0375	64	C12H10ClO2-
223.0167	12	C11H8ClO3-
235.0167	3	C12H8ClO3-
235.0531	13	C13H12ClO2-
236.0929	11	C12H14NO4-
245.0372	7	C14H10ClO2-
247.0168	1	C13H8ClO3-
248.0245	6	C13H9ClO3-
251.0119	1	C12H8ClO4-
253.0506	1	C15H9O4-
257.0372	2	C15H10ClO2-
259.0155	2	C14H8ClO3-
259.0534	1	C15H12ClO2-
261.0325	1	C14H10ClO3-
263.048	37	C14H12ClO3-
265.0271	1	C13H10ClO4-
271.0169	1	C15H8ClO3-
271.0532	1	C16H12ClO2-
273.0324	1	C15H10ClO3-
275.0486	2	C15H12ClO3-
279.0065	4	C13H8ClO5-
279.0988	1	C13H15N2O5-
285.0319	5	C16H10ClO3-
287.0122	1	C15H8ClO4-
287.0486	1	C16H12ClO3-
288.0797	1	C16H15ClNO2-
289.0272	17	C15H10ClO4-
290.0355	1	C15H11ClO4-
291.0433	1	C15H12ClO4-
299.0482	4	C17H12ClO3-
301.0278	2	C16H10ClO4-
303.043	8	C16H12ClO4-
305.0224	12	C15H10ClO5-
306.09	1	C16H17ClNO3-
307.0379	85	C15H12ClO5-
309.0329	1	C18H10ClO3-
312.02	1	C17H9ClO4-
315.0437	1	C17H12ClO4-
319.0382	9	C16H12ClO5-
325.0276	4	C18H10ClO4-
327.0074	2	C17H8ClO5-
327.0432	12	C18H12ClO4-
329.0222	10	C17H10ClO5-
331.0373	2	C17H12ClO5-
332.0695	1	C17H15ClNO4-
342.0544	6	C18H13ClNO4-
343.038	10	C18H12ClO5-
345.0182	2	C17H10ClO6-
345.0537	6	C18H14ClO5-
347.0325	22	C17H12ClO6-
348.1009	6	C18H19ClNO4-
353.0221	5	C19H10ClO5-
354.0892	3	C20H17ClNO3-
356.0088	3	C18H9ClO6-
356.0694	1	C19H15ClNO4-
356.1137	1	C19H18NO6-
359.0336	2	C18H12ClO6-
360.0649	6	C18H15ClNO5-
369.0171	4	C19H10ClO6-
370.0328	1	C15H13ClNO8-
370.0855	5	C20H17ClNO4-
371.0327	32	C19H12ClO6-
372.1012	10	C20H19ClNO4-
373.0122	2	C18H10ClO7-
374.0796	7	C22H14O6-
387.0276	19	C19H12ClO7-
388.0959	20	C20H19ClNO5-
389.0434	38	C19H14ClO7-
390.1108	7	C20H21ClNO5-
392.0908	999	C19H19ClNO6-
397.012	4	C20H10ClO7-
398.0807	4	C21H17ClNO5-
399.9992	6	C19H9ClO8-
404.0538	1	C22H12O8-
405.1212	1	C20H22ClN2O5-
414.0378	2	C20H13ClNO7-
415.0226	42	C20H12ClO8-
415.107	2	C21H20ClN2O5-
416.0906	20	C21H19ClNO6-
432.0512	2	C20H15ClNO8-
434.1011	42	C21H21ClNO7-
442.0699	3	C22H17ClNO7-
459.0965	5	C22H20ClN2O7-
460.0804	56	C22H19ClNO8-
477.1072	4	C22H22ClN2O8-
478.0914	4	C22H21ClNO9-
