Mass spectrum: Ethoxyquin; LC-ESI-QFT; MS2; CE: 60; R=35000; [M+H]+
Name: Ethoxyquin
Name: 6-ethoxy-2,2,4-trimethyl-1H-quinoline
Formula: C14H19NO
Exact mass: 217.14666
SMILES: CCOC1=CC2=C(C=C1)NC(C=C2C)(C)C
InChI: InChI=1S/C14H19NO/c1-5-16-11-6-7-13-12(8-11)10(2)9-14(3,4)15-13/h6-9,15H,5H2,1-4H3
Instrument: Q Exactive Plus Orbitrap Thermo Scientific
Instrument type: LC-ESI-QFT
Ms type: MS2
Ion mode: POSITIVE
Ionization: ESI
Fragmentation mode: HCD
Collision energy: 60 (nominal)
Resolution: 35000
Column name: XBridge C18 3.5um, 2.1x50mm, Waters
Retention time: 7.0 min
Base peak: 218.1537
Precursor m/z: 218.1539
Precursor type: [M+H]+
m/z	relative intensity	assigned
53.0022	1	C3HO+
53.0386	4	C4H5+
55.0178	1	C3H3O+
55.0543	22	C4H7+
56.0495	2	C3H6N+
57.0699	43	C4H9+
59.0491	1	C3H7O+
65.0385	5	C5H5+
66.0464	1	C5H6+
67.0542	4	C5H7+
68.0494	1	C4H6N+
69.0699	5	C5H9+
70.0287	1	C3H4NO+
71.0855	2	C5H11+
77.0382	1	C6H5+
79.0542	25	C6H7+
81.0335	1	C5H5O+
81.0574	1	C5H7N+
81.0699	25	C6H9+
82.0288	7	C4H4NO+
82.0651	2	C5H8N+
83.0491	9	C5H7O+
83.0855	10	C6H11+
84.0445	2	C4H6NO+
91.0543	13	C7H7+
92.0496	1	C6H6N+
93.0574	2	C6H7N+
93.0699	6	C7H9+
94.0651	5	C6H8N+
95.0492	4	C6H7O+
96.0444	1	C5H6NO+
96.0808	2	C6H10N+
97.1011	1	C7H13+
101.0595	2	C5H9O2+
103.0542	17	C8H7+
105.0571	1	C7H7N+
105.07	18	C8H9+
106.0652	89	C7H8N+
107.0492	32	C7H7O+
107.0855	11	C8H11+
108.0445	8	C6H6NO+
108.0809	6	C7H10N+
109.0524	9	C6H7NO+
109.1012	5	C8H13+
110.0601	9	C6H8NO+
111.044	5	C6H7O2+
115.0543	1	C9H7+
116.0495	5	C8H6N+
117.0572	6	C8H7N+
117.0699	16	C9H9+
118.0652	9	C8H8N+
119.0493	1	C8H7O+
119.0729	7	C8H9N+
119.0855	7	C9H11+
120.0809	144	C8H10N+
121.0397	2	C6H5N2O+
121.0649	4	C8H9O+
121.1012	9	C9H13+
122.0601	106	C7H8NO+
129.0699	4	C10H9+
130.0652	27	C9H8N+
130.0779	6	C10H10+
131.0492	10	C9H7O+
131.0729	11	C9H9N+
131.0857	7	C10H11+
132.0809	26	C9H10N+
133.0523	110	C8H7NO+
133.0649	6	C9H9O+
134.0601	437	C8H8NO+
134.0965	26	C9H12N+
135.0678	8	C8H9NO+
135.0805	9	C9H11O+
136.0758	39	C8H10NO+
137.0836	17	C8H11NO+
138.0912	8	C8H12NO+
139.0754	1	C8H11O2+
142.0777	1	C11H10+
143.0728	5	C10H9N+
143.086	2	C11H11+
144.056	20	C8H6N3+
144.081	39	C10H10N+
145.0649	21	C10H9O+
145.089	12	C10H11N+
145.1013	71	C11H13+
146.0601	181	C9H8NO+
146.0966	49	C10H12N+
147.068	255	C9H9NO+
148.0757	999	C9H10NO+
149.0707	1	C8H9N2O+
149.0836	5	C9H11NO+
149.096	6	C10H13O+
150.0914	45	C9H12NO+
155.0857	14	C12H11+
157.0887	41	C11H11N+
158.0725	54	C11H10O+
158.0965	166	C11H12N+
159.0678	6	C10H9NO+
159.0806	3	C11H11O+
159.1043	10	C11H13N+
160.0758	370	C10H10NO+
161.0836	190	C10H11NO+
161.12	29	C11H15N+
162.0914	305	C10H12NO+
162.1278	60	C11H16N+
163.0992	7	C10H13NO+
164.1071	4	C10H14NO+
172.1122	76	C12H14N+
173.0837	5	C11H11NO+
173.0962	67	C12H13O+
173.1201	77	C12H15N+
174.0915	755	C11H12NO+
175.0994	240	C11H13NO+
176.1071	267	C11H14NO+
177.115	4	C11H15NO+
183.092	4	C12H11N2+
188.1071	668	C12H14NO+
189.1149	280	C12H15NO+
190.1227	601	C12H16NO+
201.1274	5	C14H17O+
202.1227	630	C13H16NO+
203.1307	91	C13H17NO+
216.1385	4	C14H18NO+
218.1542	609	C14H20NO+
