Mass spectrum: 2,4-Dimethylaniline; LC-ESI-QFT; MS2; CE: 45%; R=17500; [M+H]+
Name: 2,4-Dimethylaniline
Formula: C8H11N
Exact mass: 121.0891
SMILES: CC1=CC(=C(C=C1)N)C
InChI: InChI=1S/C8H11N/c1-6-3-4-8(9)7(2)5-6/h3-5H,9H2,1-2H3
Instrument: Exploris 240 Orbitrap Thermo Scientific
Instrument type: LC-ESI-QFT
Ms type: MS2
Ion mode: POSITIVE
Ionization: ESI
Fragmentation mode: HCD
Collision energy: 45 % (nominal)
Resolution: 17500
Column name: XBridge C18 3.5um, 2.1x50mm, Waters
Retention time: 2.610 min
Base peak: 122.0964
Precursor m/z: 122.0964
Precursor type: [M+H]+
m/z	relative intensity	assigned
79.0541	6	C6H7+
103.0544	3	C8H7+
105.0699	79	C8H9+
106.0653	1	C7H8N+
107.073	186	C7H9N+
122.0965	999	C8H12N+
