Mass spectrum: Benfuracarb; LC-ESI-QFT; MS2; CE: 180%; R=17500; [M+H]+
Name: Benfuracarb
Name: ethyl 3-[[(2,2-dimethyl-3H-1-benzofuran-7-yl)oxycarbonyl-methylamino]sulfanyl-propan-2-ylamino]propanoate
Formula: C20H30N2O5S
Exact mass: 410.1875
SMILES: CCOC(=O)CCN(C(C)C)SN(C)C(=O)OC1=CC=CC2=C1OC(C2)(C)C
InChI: InChI=1S/C20H30N2O5S/c1-7-25-17(23)11-12-22(14(2)3)28-21(6)19(24)26-16-10-8-9-15-13-20(4,5)27-18(15)16/h8-10,14H,7,11-13H2,1-6H3
Instrument: Exploris 240 Orbitrap Thermo Scientific
Instrument type: LC-ESI-QFT
Ms type: MS2
Ion mode: POSITIVE
Ionization: ESI
Fragmentation mode: HCD
Collision energy: 180 % (nominal)
Resolution: 17500
Column name: XBridge C18 3.5um, 2.1x50mm, Waters
Retention time: 12.809 min
Base peak: 411.1952
Precursor m/z: 411.1948
Precursor type: [M+H]+
m/z	relative intensity	assigned
51.023	274	C4H3+
53.0386	614	C4H5+
55.0179	155	C3H3O+
56.0496	66	C3H6N+
56.9794	382	C2HS+
58.0289	134	C2H4NO+
58.9951	90	C2H3S+
65.0386	464	C5H5+
66.0464	51	C5H6+
68.9794	110	C3HS+
75.023	181	C6H3+
77.0384	216	C6H5+
79.0543	103	C6H7+
81.0336	197	C5H5O+
84.9744	379	C3HOS+
89.0386	320	C7H5+
91.0542	266	C7H7+
95.0492	102	C6H7O+
97.0109	130	C5H5S+
105.0451	105	C6H5N2+
115.0542	999	C9H7+
