Mass spectrum: Ethaboxam; LC-ESI-QFT; MS2; CE: 180%; R=17500; [M+H]+
Name: Ethaboxam
Name: N-[cyano(thiophen-2-yl)methyl]-4-ethyl-2-(ethylamino)-1,3-thiazole-5-carboxamide
Formula: C14H16N4OS2
Exact mass: 320.0766
SMILES: CCC1=C(SC(=N1)NCC)C(=O)NC(C#N)C2=CC=CS2
InChI: InChI=1S/C14H16N4OS2/c1-3-9-12(21-14(18-9)16-4-2)13(19)17-10(8-15)11-6-5-7-20-11/h5-7,10H,3-4H2,1-2H3,(H,16,18)(H,17,19)
Instrument: Exploris 240 Orbitrap Thermo Scientific
Instrument type: LC-ESI-QFT
Ms type: MS2
Ion mode: POSITIVE
Ionization: ESI
Fragmentation mode: HCD
Collision energy: 180 % (nominal)
Resolution: 17500
Column name: XBridge C18 3.5um, 2.1x50mm, Waters
Retention time: 6.055 min
Base peak: 321.0838
Precursor m/z: 321.0838
Precursor type: [M+H]+
m/z	relative intensity	assigned
53.0386	120	C4H5+
54.0338	529	C3H4N+
56.0493	223	C3H6N+
57.9872	917	C2H2S+
58.995	259	C2H3S+
59.9902	503	CH2NS+
67.0291	195	C3H3N2+
67.0416	307	C4H5N+
68.0493	329	C4H6N+
68.9794	686	C3HS+
69.987	81	C3H2S+
70.9823	121	C2HNS+
70.995	882	C3H3S+
71.9903	85	C2H2NS+
72.0029	325	C3H4S+
81.0447	247	C4H5N2+
82.995	181	C4H3S+
84.0029	350	C4H4S+
85.0106	999	C4H5S+
86.0059	72	C3H4NS+
98.0059	156	C4H4NS+
99.0137	98	C4H5NS+
100.0214	43	C4H6NS+
110.0058	64	C5H4NS+
114.025	66	C4H6N2S+
125.0168	91	C5H5N2S+
127.0322	93	C5H7N2S+
