Mass spectrum: Acetamiprid; LC-ESI-ITFT; MS2; CE: 30%; R=15000; [M+H]+
Name: Acetamiprid
Name: (1E)-N-[(6-Chloro-3-pyridinyl)methyl]-N'-cyano-N-methylethanimidamide
Formula: C10H11ClN4
Exact mass: 222.0672
SMILES: CN(CC1=CN=C(Cl)C=C1)C(\C)=N\C#N
InChI: InChI=1S/C10H11ClN4/c1-8(14-7-12)15(2)6-9-3-4-10(11)13-5-9/h3-5H,6H2,1-2H3/b14-8+
Instrument: LTQ Orbitrap XL Thermo Scientific
Instrument type: LC-ESI-ITFT
Ms type: MS2
Ion mode: POSITIVE
Ionization: ESI
Fragmentation mode: HCD
Collision energy: 30 % (nominal)
Resolution: 15000
Column name: XBridge C18 3.5um, 2.1x50mm, Waters
Retention time: 5.3 min
Base peak: 223.0746
Precursor m/z: 223.0745
Precursor type: [M+H]+
m/z	relative intensity	assigned
56.0495	91	C3H6N+
126.0105	470	C6H5ClN+
155.0369	2	C7H8ClN2+
168.0323	1	C7H7ClN3+
181.0527	13	C9H10ClN2+
182.048	2	C8H9ClN3+
187.0978	21	C10H11N4+
192.032	1	C9H7ClN3+
196.0637	10	C9H11ClN3+
206.0479	10	C10H9ClN3+
223.0744	999	C10H12ClN4+
