Mass spectrum: Halosulfuron-Methyl; LC-ESI-QFT; MS2; CE: 75%; R=17500; [M+H]+
Name: Halosulfuron-Methyl
Name: methyl 3-chloro-5-[(4,6-dimethoxypyrimidin-2-yl)carbamoylsulfamoyl]-1-methylpyrazole-4-carboxylate
Formula: C13H15ClN6O7S
Exact mass: 434.0411
SMILES: CN1C(=C(C(=N1)Cl)C(=O)OC)S(=O)(=O)NC(=O)NC2=NC(=CC(=N2)OC)OC
InChI: InChI=1S/C13H15ClN6O7S/c1-20-10(8(9(14)18-20)11(21)27-4)28(23,24)19-13(22)17-12-15-6(25-2)5-7(16-12)26-3/h5H,1-4H3,(H2,15,16,17,19,22)
Instrument: Exploris 240 Orbitrap Thermo Scientific
Instrument type: LC-ESI-QFT
Ms type: MS2
Ion mode: POSITIVE
Ionization: ESI
Fragmentation mode: HCD
Collision energy: 75 % (nominal)
Resolution: 17500
Column name: XBridge C18 3.5um, 2.1x50mm, Waters
Retention time: 10.024 min
Base peak: 435.048
Precursor m/z: 435.0484
Precursor type: [M+H]+
m/z	relative intensity	assigned
56.0132	9	C2H2NO+
57.0447	10	C2H5N2+
58.0288	6	C2H4NO+
68.9971	27	C3HO2+
71.0603	61	C3H7N2+
72.0443	5	C3H6NO+
81.0449	11	C4H5N2+
82.0286	32	C4H4NO+
83.0239	999	C3H3N2O+
93.0084	28	C4HN2O+
100.0392	21	C4H6NO2+
107.0239	12	C5H3N2O+
109.0396	15	C5H5N2O+
139.0501	585	C6H7N2O2+
156.0768	15	C6H10N3O2+
157.0606	274	C6H9N2O3+
167.0324	9	C6H5N3O3+
171.0759	8	C2H12ClN6O+
182.0559	477	C7H8N3O3+
221.9735	18	C5H5ClN3O3S+
