Mass spectrum: Nadolol; LC-ESI-QFT; MS2; CE: 30; R=35000; [M+H]+
Name: Nadolol
Name: NADOLOL
Name: (2R,3S)-5-[3-(tert-butylamino)-2-hydroxy-propoxy]tetralin-2,3-diol
Formula: C17H27NO4
Exact mass: 309.19401
SMILES: OC(CNC(C)(C)C)COc1cccc2c1C[C@H](O)[C@H](O)C2
InChI: InChI=1S/C17H27NO4/c1-17(2,3)18-9-12(19)10-22-16-6-4-5-11-7-14(20)15(21)8-13(11)16/h4-6,12,14-15,18-21H,7-10H2,1-3H3/t12?,14-,15+/m1/s1
Instrument: Q Exactive Orbitrap Thermo Scientific
Instrument type: LC-ESI-QFT
Ms type: MS2
Ion mode: POSITIVE
Ionization: ESI
Fragmentation mode: HCD
Collision energy: 30 (nominal)
Resolution: 35000
Column name: XBridge C18 3.5um, 2.1x50mm, Waters
Retention time: 4.2 min
Base peak: 310.2016
Precursor m/z: 310.2013
Precursor type: [M+H]+
m/z	relative intensity	assigned
56.0495	15	C3H6N+
57.0698	9	C4H9+
58.0653	2	C3H8N+
72.0443	3	C3H6NO+
74.0601	75	C3H8NO+
133.065	1	C9H9O+
145.0648	10	C10H9O+
147.0804	2	C10H11O+
155.0858	1	C12H11+
157.065	5	C11H9O+
159.0805	4	C11H11O+
163.0752	2	C10H11O2+
171.0806	20	C12H11O+
173.0959	4	C12H13O+
174.0912	2	C11H12NO+
175.0755	7	C11H11O2+
183.0807	25	C13H11O+
189.0911	3	C12H13O2+
200.1072	1	C13H14NO+
201.091	188	C13H13O2+
218.1177	30	C13H16NO2+
219.1017	16	C13H15O3+
236.1283	312	C13H18NO3+
254.1388	999	C13H20NO4+
310.2014	457	C17H28NO4+
