Mass spectrum: Fipronil-sulfide; LC-ESI-ITFT; MS2; CE: 60%; R=7500; [M+H]+
Name: Fipronil-sulfide
Name: 5-Amino-1-[2,6-dichloro-4-(trifluoromethyl)phenyl]-4-[(trifluoromethyl)sulfanyl]-1H-pyrazole-3-carbonitrile
Formula: C12H4Cl2F6N4S
Exact mass: 419.9438
SMILES: FC(F)(F)c2cc(Cl)c(n1nc(C#N)c(SC(F)(F)F)c1N)c(Cl)c2
InChI: InChI=1S/C12H4Cl2F6N4S/c13-5-1-4(11(15,16)17)2-6(14)8(5)24-10(22)9(7(3-21)23-24)25-12(18,19)20/h1-2H,22H2
Instrument: LTQ Orbitrap XL Thermo Scientific
Instrument type: LC-ESI-ITFT
Ms type: MS2
Ion mode: POSITIVE
Ionization: ESI
Fragmentation mode: HCD
Collision energy: 60 % (nominal)
Resolution: 7500
Column name: XBridge C18 3.5um, 2.1x50mm, Waters
Retention time: 13.0 min
Base peak: 442.9332
Precursor m/z: 420.9511
Precursor type: [M+H]+
m/z	relative intensity	assigned
80.0243	10	C3H2N3+
87.0009	39	C2H3N2S+
96.9857	17	C3HN2S+
97.9932	185	C3H2N2S+
154.9887	29	C2H5Cl2N4+
212.9478	29	C2HCl2F4N3+
227.9591	51	C7H3Cl2F3N+
228.9668	68	C7H4Cl2F3N+
233.0083	44	C9H5ClF3N2+
237.9697	450	C3H3ClF4N4S+
238.9506	40	C3HCl2F4N4+
239.9592	41	C8H3Cl2F3N+
246.0039	147	C9H4ClF3N3+
247.9538	38	C4HClF4N4S+
250.0456	70	C11H5F3N4+
251.9726	79	C8H4ClF3N2S+
254.9696	308	C9HF6S+
256.9187	21	C3HCl2F4N3S+
257.9277	83	C3H2Cl2F4N3S+
258.0044	54	C10H4ClF3N3+
262.9651	433	C9H3ClF3N2S+
264.9807	839	C9H5ClF3N2S+
267.9764	24	C10H2F6S+
273.014	24	C10H5ClF3N4+
274.965	303	C10H3ClF3N2S+
282.0177	70	C11H5F3N4S+
282.9228	63	C4HCl2F4N4S+
284.0082	34	C11H4ClF3N4+
285.0148	111	C11H5ClF3N4+
289.9757	533	C10H4ClF3N3S+
315.9822	12	C11HF5N4S+
316.9866	999	C11H5ClF3N4S+
319.9837	64	C12H2F6N2S+
