Mass spectrum: Nateglinide; LC-ESI-QFT; MS2; CE: 75; R=35000; [M+H]+
Name: Nateglinide
Formula: C19H27NO3
Exact mass: 317.19909
SMILES: CC([C@H]1CC[C@@H](CC1)C(=O)N[C@@H](C(=O)O)CC2=CC=CC=C2)C
InChI: InChI=1S/C19H27NO3/c1-13(2)15-8-10-16(11-9-15)18(21)20-17(19(22)23)12-14-6-4-3-5-7-14/h3-7,13,15-17H,8-12H2,1-2H3,(H,20,21)(H,22,23)/t15-,16-,17-/m1/s1
Instrument: Q Exactive Orbitrap Thermo Scientific
Instrument type: LC-ESI-QFT
Ms type: MS2
Ion mode: POSITIVE
Ionization: ESI
Fragmentation mode: HCD
Collision energy: 75 (nominal)
Resolution: 35000
Column name: XBridge C18 3.5um, 2.1x50mm, Waters
Retention time: 13.7 min
Base peak: 318.2065
Precursor m/z: 318.2064
Precursor type: [M+H]+
m/z	relative intensity	assigned
53.0023	9	C3HO+
53.0388	3	C4H5+
53.9975	1	C2NO+
55.0543	12	C4H7+
57.0699	40	C4H9+
67.0543	22	C5H7+
67.9893	3	C3O2+
69.0699	999	C5H9+
77.0385	1	C6H5+
79.0543	12	C6H7+
81.0699	3	C6H9+
83.0856	237	C6H11+
91.0542	14	C7H7+
93.0699	28	C7H9+
95.0491	5	C6H7O+
103.0543	132	C8H7+
105.0448	1	C6H5N2+
107.0491	11	C7H7O+
107.0856	1	C8H11+
118.0652	1	C8H8N+
119.073	2	C8H9N+
120.0808	568	C8H10N+
131.0493	5	C9H7O+
