Mass spectrum: Nuarimol; LC-ESI-QFT; MS2; CE: 180%; R=17500; [M+H]+
Name: Nuarimol
Name: (2-chlorophenyl)-(4-fluorophenyl)-pyrimidin-5-ylmethanol
Formula: C17H12ClFN2O
Exact mass: 314.0622
SMILES: C1=CC=C(C(=C1)C(C2=CC=C(C=C2)F)(C3=CN=CN=C3)O)Cl
InChI: InChI=1S/C17H12ClFN2O/c18-16-4-2-1-3-15(16)17(22,13-9-20-11-21-10-13)12-5-7-14(19)8-6-12/h1-11,22H
Instrument: Exploris 240 Orbitrap Thermo Scientific
Instrument type: LC-ESI-QFT
Ms type: MS2
Ion mode: POSITIVE
Ionization: ESI
Fragmentation mode: HCD
Collision energy: 180 % (nominal)
Resolution: 17500
Column name: XBridge C18 3.5um, 2.1x50mm, Waters
Retention time: 8.405 min
Base peak: 315.0692
Precursor m/z: 315.0695
Precursor type: [M+H]+
m/z	relative intensity	assigned
50.0151	35	C4H2+
51.0229	65	C4H3+
52.0182	28	C3H2N+
53.0022	29	C3HO+
54.0338	273	C3H4N+
74.0151	188	C6H2+
75.0229	999	C6H3+
81.0448	65	C4H5N2+
84.984	65	C4H2Cl+
95.029	49	C6H4F+
110.9997	33	C6H4Cl+
113.0399	29	C6H6FO+
123.0351	105	C6H4FN2+
133.045	17	C9H6F+
139.006	79	C6H4ClN2+
170.0528	15	C12H7F+
181.0449	90	C13H6F+
187.0542	68	C15H7+
205.0448	120	C15H6F+
206.0523	23	C15H7F+
207.0602	30	C15H8F+
