Mass spectrum: Propranolol; LC-ESI-ITFT; MS2; CE: 90%; R=30000; [M+H]+
Name: Propranolol
Name: 1-(1-naphthalenyloxy)-3-(propan-2-ylamino)-2-propanol
Formula: C16H21NO2
Exact mass: 259.1572
SMILES: CC(C)NCC(COC1=CC=CC2=CC=CC=C21)O
InChI: InChI=1S/C16H21NO2/c1-12(2)17-10-14(18)11-19-16-9-5-7-13-6-3-4-8-15(13)16/h3-9,12,14,17-18H,10-11H2,1-2H3
Instrument: LTQ Orbitrap XL Thermo Scientific
Instrument type: LC-ESI-ITFT
Ms type: MS2
Ion mode: POSITIVE
Ionization: ESI
Fragmentation mode: HCD
Collision energy: 90 % (nominal)
Resolution: 30000
Column name: XBridge C18 3.5um, 2.1x50mm, Waters
Retention time: 6.6 min
Base peak: 260.165
Precursor m/z: 260.1645
Precursor type: [M+H]+
m/z	relative intensity	assigned
56.0494	574	C3H6N+
58.0651	411	C3H8N+
72.0807	296	C4H10N+
74.06	485	C3H8NO+
77.0386	19	C6H5+
84.0807	78	C5H10N+
98.0964	58	C6H12N+
100.112	204	C6H14N+
103.0542	68	C8H7+
115.0541	352	C9H7+
116.1069	98	C6H14NO+
117.0697	131	C9H9+
127.0542	35	C10H7+
128.0619	430	C10H8+
129.0698	999	C10H9+
141.0697	101	C11H9+
143.0488	21	C10H7O+
144.0567	23	C10H8O+
145.0647	151	C10H9O+
153.0697	471	C12H9+
154.0776	194	C12H10+
155.0602	902	C10H7N2+
155.0854	562	C12H11+
157.0647	212	C11H9O+
165.0697	391	C13H9+
168.0568	110	C12H8O+
182.0723	21	C13H10O+
183.0805	30	C13H11O+
