Mass spectrum: MCLW; LC-ESI-QFT; MS2; CE: 30%; R=17500; [M-H]-
Name: MCLW
Name: Microcystin LW
Name: (5R,8S,11R,12S,15S,18S,19S,22R)-15-(1H-indol-3-ylmethyl)-18-[(1E,3E,5S,6S)-6-methoxy-3,5-dimethyl-7-phenylhepta-1,3-dienyl]-1,5,12,19-tetramethyl-2-methylidene-8-(2-methylpropyl)-3,6,9,13,16,20,25-heptaoxo-1,4,7,10,14,17,21-heptazacyclopentacosane-11,22-dicarboxylic acid
Class: NA
Formula: C54H72N8O12
Exact mass: 1024.5270
SMILES: CO[C@@H](Cc1ccccc1)[C@@H](C)/C=C(C)/C=C/[C@@H]2NC(=O)[C@H](Cc3c[nH]c4ccccc34)NC(=O)[C@@H](C)[C@@H](NC(=O)[C@H](CC(C)C)NC(=O)[C@@H](C)NC(=O)C(=C)N(C)C(=O)CC[C@@H](NC(=O)[C@H]2C)C(O)=O)C(O)=O
InChI: InChI=1S/C54H72N8O12/c1-29(2)24-42-52(69)61-46(54(72)73)33(6)48(65)59-43(27-37-28-55-40-19-15-14-18-38(37)40)51(68)57-39(21-20-30(3)25-31(4)44(74-10)26-36-16-12-11-13-17-36)32(5)47(64)58-41(53(70)71)22-23-45(63)62(9)35(8)50(67)56-34(7)49(66)60-42/h11-21,25,28-29,31-34,39,41-44,46,55H,8,22-24,26-27H2,1-7,9-10H3,(H,56,67)(H,57,68)(H,58,64)(H,59,65)(H,60,66)(H,61,69)(H,70,71)(H,72,73)/b21-20+,30-25+/t31-,32-,33-,34+,39-,41+,42-,43-,44-,46+/m0/s1
Instrument: Q Exactive Plus Orbitrap Thermo Scientific
Instrument type: LC-ESI-QFT
Ms type: MS2
Ion mode: NEGATIVE
Ionization: ESI
Fragmentation mode: HCD
Collision energy: 30 % (nominal)
Resolution: 17500
Column name: XBridge C18 3.5um, 2.1x50mm, Waters
Retention time: 11.783 min
Base peak: 1023.5204
Precursor m/z: 1023.5197
Precursor type: [M-H]-
m/z	relative intensity	assigned
73.0295	4	C3H5O2-
74.0248	6	C2H4NO2-
84.0455	4	C4H6NO-
96.0453	2	C5H6NO-
99.0202	3	C3H3N2O2-
99.0564	11	C4H7N2O-
100.0038	3	C3H2NO3-
100.0403	9	C4H6NO2-
110.0248	81	C5H4NO2-
112.0405	13	C5H6NO2-
123.0565	8	C6H7N2O-
124.0404	93	C6H6NO2-
127.0514	22	C5H7N2O2-
128.0354	999	C5H6NO3-
129.1032	24	C6H13N2O-
130.0507	5	C5H8NO3-
130.087	6	C6H12NO2-
131.0865	3	C10H11-
135.0569	3	C7H7N2O-
138.0556	5	C7H8NO2-
139.0876	14	C7H11N2O-
140.0719	3	C7H10NO2-
141.0673	9	C6H9N2O2-
142.0508	3	C6H8NO3-
142.0659	8	C10H8N-
149.0354	9	C7H5N2O2-
150.0197	3	C7H4NO3-
150.0561	6	C8H8NO2-
153.0668	45	C7H9N2O2-
155.0827	22	C7H11N2O2-
165.0669	3	C8H9N2O2-
165.1028	31	C9H13N2O-
166.0867	4	C9H12NO2-
167.0455	12	C5H5N5O2-
167.0824	13	C8H11N2O2-
170.0927	20	C5H10N6O-
171.077	9	C7H11N2O3-
171.1136	7	C8H15N2O2-
180.0777	2	C8H10N3O2-
180.1009	5	C7H16O5-
180.1144	8	C9H14N3O-
181.0612	25	C8H9N2O3-
182.1296	12	C9H16N3O-
183.1131	8	C7H13N5O-
184.0607	33	C6H8N4O3-
185.0713	9	C9H7N5-
185.1295	3	C9H17N2O2-
195.113	8	C8H13N5O-
198.0874	8	C6H10N6O2-
198.1239	8	C7H14N6O-
200.1397	74	C7H16N6O-
202.0984	4	C11H12N3O-
205.0974	9	C9H11N5O-
210.0876	7	C7H10N6O2-
211.0714	35	C7H9N5O3-
212.1396	15	C8H16N6O-
222.1605	4	C12H20N3O-
223.1079	11	C9H13N5O2-
226.1189	36	C8H14N6O2-
228.0769	10	C10H8N6O-
234.041	3	C11H8NO5-
238.1199	4	C11H16N3O3-
239.1028	7	C9H13N5O3-
240.1343	45	C9H16N6O2-
265.1657	224	C12H25O6-
267.0988	5	C12H15N2O5-
270.1239	6	H22N4O12-
278.0923	4	C14H10N6O-
283.1762	385	C11H21N7O2-
284.1605	11	C11H20N6O3-
293.1609	22	C13H25O7-
294.146	9	C14H20N3O4-
296.1029	50	C14H12N6O2-
307.1777	7	C15H23N4O3-
311.1719	113	C14H23N4O4-
312.1956	6	C18H24N4O-
323.2097	11	C18H29NO4-
325.1876	11	C15H25N4O4-
330.2063	3	C18H26N4O2-
337.189	8	C17H21N8-
352.1915	4	C22H26NO3-
367.1991	2	C17H27N4O5-
368.2293	5	C16H34NO8-
370.2034	13	C23H24N5-
375.174	7	C26H21N3-
377.1855	6	C21H23N5O2-
380.2254	6	C12H34N3O10-
394.2101	20	C18H28N5O5-
411.2655	5	C25H35N2O3-
412.2208	81	C18H30N5O6-
424.2129	26	C24H24N8-
437.2448	25	C26H33N2O4-
441.2423	5	C28H31N3O2-
442.2526	8	C18H38N2O10-
445.2519	5	C31H31N3-
451.2621	3	C15H39N4O11-
455.2708	32	C16H37N7O8-
468.2461	27	C21H34N5O7-
472.2977	5	C16H40N8O8-
480.2475	15	C24H36N2O8-
481.2364	11	C28H29N6O2-
506.2703	12	C34H36NO3-
507.2527	7	C32H33N3O3-
516.2884	14	C19H42N5O11-
524.2853	5	C25H40N4O8-
563.3592	6	C32H51O8-
566.3024	26	C35H40N3O4-
609.3093	24	C37H37N8O-
610.2928	193	C22H42N8O12-
627.3199	10	C37H39N8O2-
635.3268	8	C41H41N5O2-
647.3786	3	C34H53N3O9-
667.3132	32	C38H43N4O7-
708.3992	46	C40H56N2O9-
709.371	3	C39H53N2O10-
716.38	8	C41H48N8O4-
720.3407	7	C41H46N5O7-
721.3258	31	C43H47NO9-
725.426	17	C40H59N3O9-
742.3608	5	C44H48N5O6-
760.3729	36	C46H52N2O8-
778.3832	5	C46H54N2O9-
803.3778	44	C45H51N6O8-
804.3627	90	C47H52N2O10-
809.3923	5	C49H53N4O7-
820.3987	10	C53H56O8-
831.4097	7	C49H57N3O9-
851.4398	4	C53H55N8O3-
876.4526	6	C47H64N4O12-
911.5052	58	C51H69N5O10-
944.4892	20	C50H68N6O12-
961.5175	18	C50H71N7O12-
979.5288	29	C53H71N8O10-
987.4948	14	C54H67N8O10-
1005.5096	827	C54H69N8O11-
1023.5199	66	C54H71N8O12-
