Mass spectrum: Dioxabenzofos; LC-ESI-QFT; MS2; CE: 150%; R=17500; [M+H]+
Name: Dioxabenzofos
Name: 2-methoxy-2-sulfanylidene-4H-1,3,2lambda5-benzodioxaphosphinine
Formula: C8H9O3PS
Exact mass: 216.0010
SMILES: COP1(=S)OCC2=CC=CC=C2O1
InChI: InChI=1S/C8H9O3PS/c1-9-12(13)10-6-7-4-2-3-5-8(7)11-12/h2-5H,6H2,1H3
Instrument: Exploris 240 Orbitrap Thermo Scientific
Instrument type: LC-ESI-QFT
Ms type: MS2
Ion mode: POSITIVE
Ionization: ESI
Fragmentation mode: HCD
Collision energy: 150 % (nominal)
Resolution: 17500
Column name: XBridge C18 3.5um, 2.1x50mm, Waters
Retention time: 7.127 min
Base peak: 217.0083
Precursor m/z: 217.0083
Precursor type: [M+H]+
m/z	relative intensity	assigned
50.0151	43	C4H2+
51.0229	549	C4H3+
53.0386	339	C4H5+
55.018	30	C3H3O+
59.0491	10	C3H7O+
64.9787	30	H2O2P+
77.0386	999	C6H5+
78.0464	34	C6H6+
79.0543	175	C6H7+
81.0339	13	C5H5O+
91.0543	23	C7H7+
94.0414	32	C6H6O+
95.0491	311	C6H7O+
107.0494	41	C7H7O+
108.003	38	C6H4S+
109.0105	16	C6H5S+
121.0109	40	C7H5S+
