Mass spectrum: Chlordiazepoxide; LC-ESI-QFT; MS2; CE: 90; R=35000; [M+H]+
Name: Chlordiazepoxide
Name: Zetran
Name: 7-chloro-4-hydroxy-N-methyl-5-phenyl-3H-1,4-benzodiazepin-2-imine
Formula: C16H14ClN3O
Exact mass: 299.08254
SMILES: CN=C1CN(C(=C2C=C(C=CC2=N1)Cl)C3=CC=CC=C3)O
InChI: InChI=1S/C16H14ClN3O/c1-18-15-10-20(21)16(11-5-3-2-4-6-11)13-9-12(17)7-8-14(13)19-15/h2-9,21H,10H2,1H3
Instrument: Q Exactive Plus Orbitrap Thermo Scientific
Instrument type: LC-ESI-QFT
Ms type: MS2
Ion mode: POSITIVE
Ionization: ESI
Fragmentation mode: HCD
Collision energy: 90 (nominal)
Resolution: 35000
Column name: XBridge C18 3.5um, 2.1x50mm, Waters
Retention time: 6.2 min
Base peak: 300.0888
Precursor m/z: 300.0898
Precursor type: [M+H]+
m/z	relative intensity	assigned
50.0151	5	C4H2+
51.0229	4	C4H3+
53.0385	12	C4H5+
55.0177	1	C3H3O+
55.029	8	C2H3N2+
57.0446	853	C2H5N2+
60.0443	4	C2H6NO+
63.0228	7	C5H3+
65.0384	15	C5H5+
75.0227	11	C6H3+
76.0179	1	C5H2N+
77.0384	22	C6H5+
79.0541	7	C6H7+
86.9995	8	C4H4Cl+
89.0384	698	C7H5+
90.0336	4	C6H4N+
90.0462	14	C7H6+
91.0541	12	C7H7+
92.0256	4	C6H4O+
92.0492	1	C6H6N+
93.0335	14	C6H5O+
93.0573	12	C6H7N+
94.0412	1	C6H6O+
95.049	39	C6H7O+
98.9994	4	C5H4Cl+
100.0072	15	C5H5Cl+
100.018	16	C7H2N+
103.054	1	C8H7+
104.0493	41	C7H6N+
105.0335	5	C7H5O+
105.0446	23	C6H5N2+
105.0569	1	C7H7N+
110.9994	5	C6H4Cl+
114.0336	1	C8H4N+
115.0417	1	C8H5N+
116.0494	8	C8H6N+
117.0571	17	C8H7N+
118.0286	7	C7H4NO+
118.0524	4	C7H6N2+
118.065	4	C8H8N+
120.0443	1	C7H6NO+
121.0282	6	C7H5O2+
122.9994	2	C7H4Cl+
124.0073	252	C7H5Cl+
125.0027	1	C6H4ClN+
125.0152	1	C7H6Cl+
126.0105	4	C6H5ClN+
128.0023	1	C6H5ClO+
128.0495	5	C9H6N+
129.01	29	C6H6ClO+
129.0446	5	C8H5N2+
130.0398	4	C7H4N3+
131.0603	8	C8H7N2+
134.0598	1	C8H8NO+
135.9948	14	C7H3ClN+
137.0024	4	C7H4ClN+
138.0103	62	C7H5ClN+
139.0056	96	C6H4ClN2+
140.0259	3	C7H7ClN+
143.0602	1	C9H7N2+
144.0681	1	C9H8N2+
145.0758	4	C9H9N2+
146.0598	1	C9H8NO+
147.055	1	C8H7N2O+
150.0104	32	C8H5ClN+
151.0182	18	C8H6ClN+
151.0541	7	C12H7+
152.026	12	C8H7ClN+
152.0618	30	C12H8+
153.0212	1	C7H6ClN2+
153.0699	1	C12H9+
154.0053	8	C7H5ClNO+
155.0353	2	C8H3N4+
155.9971	6	C7H5ClO2+
156.0553	2	C9H6N3+
162.0102	8	C12H2O+
163.0056	158	C8H4ClN2+
164.0008	93	C7H3ClN3+
164.0259	5	C9H7ClN+
164.0617	13	C13H8+
165.0213	151	C8H6ClN2+
165.0697	999	C13H9+
166.0647	1	C12H8N+
167.0727	1	C12H9N+
168.0568	6	C12H8O+
169.0644	13	C12H9O+
176.0619	6	C14H8+
177.0213	5	C9H6ClN2+
177.0571	17	C13H7N+
177.0696	1	C14H9+
178.029	6	C12H4NO+
178.065	20	C13H8N+
178.0773	3	C14H10+
179.037	5	C9H8ClN2+
179.0605	8	C12H7N2+
179.0726	24	C13H9N+
180.0207	1	C9H7ClNO+
180.0446	12	C12H6NO+
180.0805	19	C13H10N+
181.0161	13	C8H6ClN2O+
183.0802	14	C13H11O+
188.0492	1	C14H6N+
189.0571	9	C14H7N+
190.0649	172	C14H8N+
191.0727	232	C14H9N+
192.0805	960	C14H10N+
193.0525	8	C10H10ClN2+
193.0759	10	C13H9N2+
193.0884	14	C14H11N+
194.0478	1	C9H9ClN3+
195.0913	1	C13H11N2+
198.0227	1	C13H7Cl+
199.0307	47	C13H8Cl+
201.0337	17	C12H8ClN+
201.0573	1	C15H7N+
202.0647	9	C15H8N+
203.0727	147	C15H9N+
204.0804	16	C15H10N+
205.0759	145	C14H9N2+
206.0837	105	C14H10N2+
207.0676	7	C14H9NO+
207.0913	7	C14H11N2+
208.0754	1	C14H10NO+
213.0338	6	C13H8ClN+
214.0416	49	C13H9ClN+
215.06	14	C15H7N2+
216.068	111	C15H8N2+
217.0758	72	C15H9N2+
218.0837	254	C15H10N2+
219.0915	136	C15H11N2+
220.0756	17	C15H10NO+
220.0992	43	C15H12N2+
224.0259	77	C14H7ClN+
225.0342	1	C14H8ClN+
226.0416	212	C14H9ClN+
227.0494	737	C14H10ClN+
229.0757	16	C16H9N2+
230.0836	10	C16H10N2+
231.0788	13	C15H9N3+
231.0914	6	C16H11N2+
232.0866	106	C15H10N3+
233.1067	4	C16H13N2+
234.0784	31	C15H10N2O+
235.0862	9	C15H11N2O+
237.034	4	C15H8ClN+
238.0415	90	C15H9ClN+
239.0368	19	C14H8ClN2+
240.0446	41	C14H9ClN2+
240.057	9	C15H11ClN+
241.0524	114	C14H10ClN2+
244.0865	1	C16H10N3+
245.0946	11	C16H11N3+
246.1023	99	C16H12N3+
247.1102	120	C16H13N3+
250.0732	20	C12H13ClN3O+
251.0366	28	C15H8ClN2+
252.0445	174	C15H9ClN2+
253.0524	42	C15H10ClN2+
254.0602	24	C15H11ClN2+
255.0678	13	C15H12ClN2+
256.0511	1	C15H11ClNO+
265.0523	16	C16H10ClN2+
266.0475	20	C15H9ClN3+
266.0603	9	C16H11ClN2+
267.0555	116	C15H10ClN3+
269.0834	7	C16H14ClN2+
280.0631	5	C16H11ClN3+
281.0724	3	C16H12ClN3+
282.0787	19	C16H13ClN3+
