Mass spectrum: Flunitrazepam; LC-ESI-QFT; MS2; CE: 30; R=35000; [M+H]+
Name: Flunitrazepam
Name: 5-(2-fluorophenyl)-1-methyl-7-nitro-3H-1,4-benzodiazepin-2-one
Formula: C16H12FN3O3
Exact mass: 313.08627
SMILES: CN1C(=O)CN=C(C2=C1C=CC(=C2)[N+](=O)[O-])C3=CC=CC=C3F
InChI: InChI=1S/C16H12FN3O3/c1-19-14-7-6-10(20(22)23)8-12(14)16(18-9-15(19)21)11-4-2-3-5-13(11)17/h2-8H,9H2,1H3
Instrument: Q Exactive Plus Orbitrap Thermo Scientific
Instrument type: LC-ESI-QFT
Ms type: MS2
Ion mode: POSITIVE
Ionization: ESI
Fragmentation mode: HCD
Collision energy: 30 (nominal)
Resolution: 35000
Column name: XBridge C18 3.5um, 2.1x50mm, Waters
Retention time: 7.9 min
Base peak: 314.0927
Precursor m/z: 314.0935
Precursor type: [M+H]+
m/z	relative intensity	assigned
123.024	2	C7H4FO+
165.0659	3	C8H9N2O2+
191.0453	1	C9H7N2O3+
193.0608	3	C9H9N2O3+
211.0794	1	C14H10FN+
227.0735	1	C14H10FNO+
228.0819	1	C14H11FNO+
240.0692	3	C14H9FN2O+
240.1053	2	C15H13FN2+
256.1003	2	C15H13FN2O+
257.0724	3	C14H10FN2O2+
267.0925	2	C16H12FN2O+
268.1005	55	C16H13FN2O+
283.088	1	C16H12FN2O2+
286.0986	18	C15H13FN3O2+
300.0906	17	C16H13FN2O3+
314.0933	999	C16H13FN3O3+
