Mass spectrum: EPN; LC-ESI-QFT; MS2; CE: 30%; R=17500; [M+H]+
Name: EPN
Name: O-Ethyl O-(4-nitrophenyl) phenylphosphonothioate
Name: ethoxy-(4-nitrophenoxy)-phenyl-sulfanylidene-lambda5-phosphane
Formula: C14H14NO4PS
Exact mass: 323.0381
SMILES: CCOP(=S)(C1=CC=CC=C1)OC2=CC=C(C=C2)[N+](=O)[O-]
InChI: InChI=1S/C14H14NO4PS/c1-2-18-20(21,14-6-4-3-5-7-14)19-13-10-8-12(9-11-13)15(16)17/h3-11H,2H2,1H3
Instrument: Exploris 240 Orbitrap Thermo Scientific
Instrument type: LC-ESI-QFT
Ms type: MS2
Ion mode: POSITIVE
Ionization: ESI
Fragmentation mode: HCD
Collision energy: 30 % (nominal)
Resolution: 17500
Column name: XBridge C18 3.5um, 2.1x50mm, Waters
Retention time: 12.283 min
Base peak: 334.1681
Precursor m/z: 324.0454
Precursor type: [M+H]+
m/z	relative intensity	assigned
79.0542	17	C6H7+
94.0414	24	C6H6O+
123.0316	38	C6H5NO2+
140.0343	101	C6H6NO3+
141.0103	13	C6H6O2P+
156.0114	92	C6H6NO2S+
156.9872	609	C6H6OPS+
173.9901	15	C6H7O2PS+
185.0186	57	C8H10OPS+
262.0261	41	C12H9NO4P+
278.0037	207	C12H9NO3PS+
296.0142	999	C12H11NO4PS+
324.0464	48	C14H15NO4PS+
