Mass spectrum: Candesartan; LC-ESI-ITFT; MS2; CE: 30%; R=15000; [M+H]+
Name: Candesartan
Name: 2-ethoxy-3-[4-[2-(2H-tetrazol-5-yl)phenyl]benzyl]benzimidazole-4-carboxylic acid
Formula: C24H20N6O3
Exact mass: 440.1597
SMILES: c1(ccccc1c1ccc(Cn2c(nc3c2c(C(=O)O)ccc3)OCC)cc1)c1nnn[nH]1
InChI: InChI=1S/C24H20N6O3/c1-2-33-24-25-20-9-5-8-19(23(31)32)21(20)30(24)14-15-10-12-16(13-11-15)17-6-3-4-7-18(17)22-26-28-29-27-22/h3-13H,2,14H2,1H3,(H,31,32)(H,26,27,28,29)
Instrument: LTQ Orbitrap XL Thermo Scientific
Instrument type: LC-ESI-ITFT
Ms type: MS2
Ion mode: POSITIVE
Ionization: ESI
Fragmentation mode: HCD
Collision energy: 30 % (nominal)
Resolution: 15000
Column name: XBridge C18 3.5um, 2.1x50mm, Waters
Retention time: 9.3 min
Base peak: 441.1683
Precursor m/z: 441.167
Precursor type: [M+H]+
m/z	relative intensity	assigned
161.0346	14	C8H5N2O2+
167.0859	12	C13H11+
175.0504	5	C9H7N2O2+
178.0778	28	C14H10+
179.0855	8	C14H11+
180.0808	57	C13H10N+
189.066	42	C10H9N2O2+
190.0653	44	C14H8N+
191.0451	24	C9H7N2O3+
192.0808	200	C14H10N+
193.0887	50	C14H11N+
194.0965	156	C14H12N+
206.0838	26	C14H10N2+
206.1087	17	C16H14+
207.0764	36	C10H11N2O3+
207.0917	556	C14H11N2+
208.1121	78	C15H14N+
210.0913	229	C14H12NO+
218.0965	51	C16H12N+
219.092	14	C15H11N2+
220.0996	64	C15H12N2+
233.107	16	C16H13N2+
234.1151	57	C16H14N2+
235.0979	208	C14H11N4+
235.123	632	C16H15N2+
261.1032	6	C17H13N2O+
263.1292	999	C18H17NO+
337.0971	17	C22H13N2O2+
338.1051	195	C22H14N2O2+
349.1087	36	C22H13N4O+
350.0926	105	C22H12N3O2+
352.1082	271	C22H14N3O2+
367.1193	25	C24H17NO3+
380.1394	133	C24H18N3O2+
395.1504	206	C24H19N4O2+
423.1564	146	C24H19N6O2+
