Mass spectrum: Benproperine; LC-ESI-QFT; MS2; CE: 45; R=35000; [M+H]+
Name: Benproperine
Name: 1-[1-(2-benzylphenoxy)propan-2-yl]piperidine
Formula: C21H27NO
Exact mass: 309.20926
SMILES: CC(COC1=CC=CC=C1CC2=CC=CC=C2)N3CCCCC3
InChI: InChI=1S/C21H27NO/c1-18(22-14-8-3-9-15-22)17-23-21-13-7-6-12-20(21)16-19-10-4-2-5-11-19/h2,4-7,10-13,18H,3,8-9,14-17H2,1H3
Instrument: Q Exactive Orbitrap Thermo Scientific
Instrument type: LC-ESI-QFT
Ms type: MS2
Ion mode: POSITIVE
Ionization: ESI
Fragmentation mode: HCD
Collision energy: 45 (nominal)
Resolution: 35000
Column name: XBridge C18 3.5um, 2.1x50mm, Waters
Retention time: 8.8 min
Base peak: 310.2167
Precursor m/z: 310.2165
Precursor type: [M+H]+
m/z	relative intensity	assigned
58.0652	15	C3H8N+
67.0543	1	C5H7+
69.0699	27	C5H9+
70.0651	20	C4H8N+
72.0807	9	C4H10N+
79.0543	1	C6H7+
84.0808	141	C5H10N+
85.0886	140	C5H11N+
86.0964	144	C5H12N+
91.0542	214	C7H7+
98.0964	13	C6H12N+
105.0699	1	C8H9+
107.0491	87	C7H7O+
111.1044	2	C7H13N+
112.112	13	C7H14N+
119.0855	74	C9H11+
124.1121	11	C8H14N+
126.1277	999	C8H16N+
128.1433	2	C8H18N+
129.07	2	C10H9+
131.0856	11	C10H11+
147.0805	32	C10H11O+
155.0855	4	C12H11+
165.0698	4	C13H9+
177.1147	2	C11H15NO+
183.0805	28	C13H11O+
193.0757	1	C13H9N2+
310.2166	288	C21H28NO+
