Mass spectrum: Dimethenamid-P; LC-ESI-ITFT; MS2; CE: 60%; R=15000; [M+H]+
Name: Dimethenamid-P
Name: 2-chloranyl-N-(2,4-dimethylthiophen-3-yl)-N-[(2S)-1-methoxypropan-2-yl]ethanamide
Formula: C12H18ClNO2S
Exact mass: 275.0741
SMILES: CC1=CSC(=C1N(C(C)COC)C(=O)CCl)C
InChI: InChI=1S/C12H18ClNO2S/c1-8-7-17-10(3)12(8)14(11(15)5-13)9(2)6-16-4/h7,9H,5-6H2,1-4H3
Instrument: LTQ Orbitrap XL Thermo Scientific
Instrument type: LC-ESI-ITFT
Ms type: MS2
Ion mode: POSITIVE
Ionization: ESI
Fragmentation mode: HCD
Collision energy: 60 % (nominal)
Resolution: 15000
Column name: XBridge C18 3.5um, 2.1x50mm, Waters
Retention time: 10.0 min
Base peak: 276.0826
Precursor m/z: 276.082
Precursor type: [M+H]+
m/z	relative intensity	assigned
58.9949	3	C2H3S+
73.0648	40	C4H9O+
76.9789	18	C2H2ClO+
77.0386	2	C6H5+
93.0699	7	C7H9+
94.0652	5	C6H8N+
95.073	9	C6H9N+
99.0264	6	C5H7S+
107.0856	2	C8H11+
108.0808	10	C7H10N+
110.0182	2	C6H6S+
111.0263	205	C6H7S+
112.0341	6	C6H8S+
113.0419	13	C6H9S+
116.0262	3	C5H7ClN+
117.07	5	C9H9+
120.081	6	C8H10N+
122.0964	4	C8H12N+
123.0262	2	C7H7S+
124.0341	12	C7H8S+
125.0291	3	C6H7NS+
125.042	26	C7H9S+
126.0372	93	C6H8NS+
127.0211	11	C6H7OS+
127.0451	16	C6H9NS+
127.0574	11	C7H11S+
128.0528	43	C6H10NS+
129.0368	14	C6H9OS+
133.0887	2	C9H11N+
134.0965	14	C9H12N+
135.0264	3	C8H7S+
135.1043	33	C9H13N+
137.0294	16	C7H7NS+
138.0372	43	C7H8NS+
140.0529	11	C7H10NS+
149.0423	4	C9H9S+
150.0372	35	C8H8NS+
151.0454	6	C8H9NS+
151.0576	58	C9H11S+
152.0163	17	C7H6NOS+
152.0529	84	C8H10NS+
153.0243	59	C7H7NOS+
153.0607	15	C8H11NS+
154.0322	12	C7H8NOS+
154.0685	8	C8H12NS+
158.0368	2	C7H9ClNO+
159.0037	3	C7H8ClS+
166.032	20	C8H8NOS+
166.0686	29	C9H12NS+
167.0764	85	C9H13NS+
168.0842	999	C9H14NS+
174.0137	5	C7H9ClNS+
186.0139	67	C8H9ClNS+
202.0087	15	C8H9ClNOS+
203.0165	42	C8H10ClNOS+
204.0245	24	C8H11ClNOS+
244.0558	532	C11H15ClNOS+
