Mass spectrum: 3,5,6-Trichloro-2-pyridinol; LC-ESI-ITFT; MS2; CE: 30%; R=7500; [M-H]-
Name: 3,5,6-Trichloro-2-pyridinol
Name: 3,5,6-trichloro-1H-pyridin-2-one
Formula: C5H2Cl3NO
Exact mass: 196.9202
SMILES: ClC(NC(=O)C=1Cl)=C(Cl)C1
InChI: InChI=1S/C5H2Cl3NO/c6-2-1-3(7)5(10)9-4(2)8/h1H,(H,9,10)
Instrument: LTQ Orbitrap XL Thermo Scientific
Instrument type: LC-ESI-ITFT
Ms type: MS2
Ion mode: NEGATIVE
Ionization: ESI
Fragmentation mode: HCD
Collision energy: 30 % (nominal)
Resolution: 7500
Column name: XBridge C18 3.5um, 2.1x50mm, Waters
Retention time: 9.7 min
Base peak: 195.9132
Precursor m/z: 195.9129
Precursor type: [M-H]-
m/z	relative intensity	assigned
195.9128	999	C5HCl3NO-
