Mass spectrum: Nitrazepam; LC-ESI-QFT; MS2; CE: 120; R=35000; [M-H]-
Name: Nitrazepam
Name: 7-nitro-5-phenyl-1,3-dihydro-1,4-benzodiazepin-2-one
Formula: C15H11N3O3
Exact mass: 281.08004
SMILES: C1C(=O)NC2=C(C=C(C=C2)[N+](=O)[O-])C(=N1)C3=CC=CC=C3
InChI: InChI=1S/C15H11N3O3/c19-14-9-16-15(10-4-2-1-3-5-10)12-8-11(18(20)21)6-7-13(12)17-14/h1-8H,9H2,(H,17,19)
Instrument: Q Exactive Plus Orbitrap Thermo Scientific
Instrument type: LC-ESI-QFT
Ms type: MS2
Ion mode: NEGATIVE
Ionization: ESI
Fragmentation mode: HCD
Collision energy: 120 (nominal)
Resolution: 35000
Column name: XBridge C18 3.5um, 2.1x50mm, Waters
Retention time: 7.7 min
Base peak: 280.0723
Precursor m/z: 280.0728
Precursor type: [M-H]-
m/z	relative intensity	assigned
50.0036	45	C3N-
52.0191	1	C3H2N-
64.0193	33	C4H2N-
65.0033	2	C4HO-
65.0145	12	C3HN2-
65.9985	24	C3NO-
74.0037	1	C5N-
76.0193	15	C5H2N-
90.0349	159	C6H4N-
92.0142	1	C5H2NO-
101.0396	286	C8H5-
113.0397	29	C9H5-
115.0554	268	C9H7-
117.0345	14	C8H5O-
118.0299	6	C7H4NO-
125.0396	32	C10H5-
129.0347	8	C9H5O-
138.0346	1	C10H4N-
139.0553	2	C11H7-
140.0506	19	C10H6N-
141.0346	103	C10H5O-
164.0507	49	C12H6N-
165.0586	7	C12H7N-
166.0663	999	C12H8N-
167.0501	2	C12H7O-
177.0585	2	C13H7N-
191.0615	1	C13H7N2-
192.0456	8	C13H6NO-
194.0611	110	C13H8NO-
195.0571	1	C12H7N2O-
205.0533	12	C14H7NO-
222.0561	11	C14H8NO2-
