Mass spectrum: Metsulfuron-methyl; LC-ESI-ITFT; MS2; CE: 90%; R=30000; [M+H]+
Name: Metsulfuron-methyl
Name: 2-[(4-methoxy-6-methyl-s-triazin-2-yl)carbamoylsulfamoyl]benzoic acid methyl ester
Formula: C14H15N5O6S
Exact mass: 381.0743
SMILES: c1(c(cccc1)C(OC)=O)S(NC(Nc1nc(nc(n1)C)OC)=O)(=O)=O
InChI: InChI=1S/C14H15N5O6S/c1-8-15-12(18-14(16-8)25-3)17-13(21)19-26(22,23)10-7-5-4-6-9(10)11(20)24-2/h4-7H,1-3H3,(H2,15,16,17,18,19,21)
Instrument: LTQ Orbitrap XL Thermo Scientific
Instrument type: LC-ESI-ITFT
Ms type: MS2
Ion mode: POSITIVE
Ionization: ESI
Fragmentation mode: HCD
Collision energy: 90 % (nominal)
Resolution: 30000
Column name: XBridge C18 3.5um, 2.1x50mm, Waters
Retention time: 7.1 min
Base peak: 382.0825
Precursor m/z: 382.0816
Precursor type: [M+H]+
m/z	relative intensity	assigned
53.0385	49	C4H5+
56.0494	331	C3H6N+
57.0447	44	C2H5N2+
58.0287	284	C2H4NO+
69.0083	502	C2HN2O+
77.0386	999	C6H5+
79.0543	85	C6H7+
83.024	397	C3H3N2O+
90.0338	403	C6H4N+
92.0256	419	C6H4O+
95.0491	116	C6H7O+
105.0335	54	C7H5O+
105.0447	316	C6H5N2+
120.0204	70	C7H4O2+
130.0399	59	C7H4N3+
135.044	394	C8H7O2+
167.0563	251	C6H7N4O2+
