Mass spectrum: Cyanazine; LC-ESI-ITFT; MS2; CE: 60%; R=7500; [M+H]+
Name: Cyanazine
Name: 2-[[4-chloranyl-6-(ethylamino)-1,3,5-triazin-2-yl]amino]-2-methyl-propanenitrile
Formula: C9H13ClN6
Exact mass: 240.0890
SMILES: CCNC1=NC(=NC(=N1)Cl)NC(C)(C)C#N
InChI: InChI=1S/C9H13ClN6/c1-4-12-7-13-6(10)14-8(15-7)16-9(2,3)5-11/h4H2,1-3H3,(H2,12,13,14,15,16)
Instrument: LTQ Orbitrap XL Thermo Scientific
Instrument type: LC-ESI-ITFT
Ms type: MS2
Ion mode: POSITIVE
Ionization: ESI
Fragmentation mode: HCD
Collision energy: 60 % (nominal)
Resolution: 7500
Column name: XBridge C18 3.5um, 2.1x50mm, Waters
Retention time: 6.6 min
Base peak: 241.0971
Precursor m/z: 241.0963
Precursor type: [M+H]+
m/z	relative intensity	assigned
58.0654	4	C3H8N+
61.9793	16	CHClN+
68.0243	208	C2H2N3+
71.0604	94	C3H7N2+
79.0058	55	CH4ClN2+
83.0604	61	C4H7N2+
85.0761	6	C4H9N2+
90.0106	14	C3H5ClN+
96.0557	238	C4H6N3+
104.0011	307	C2H3ClN3+
108.0555	14	C5H6N3+
110.0465	5	C3H4N5+
110.0713	47	C5H8N3+
111.0794	4	C5H9N3+
119.0371	69	C4H8ClN2+
132.0323	260	C4H7ClN3+
136.0869	92	C7H10N3+
138.0774	27	C5H8N5+
144.0323	15	C5H7ClN3+
146.0228	76	C3H5ClN5+
150.0768	9	C6H8N5+
163.0981	9	C8H11N4+
173.0588	44	C6H10ClN4+
174.0541	180	C5H9ClN5+
177.0881	19	C7H9N6+
178.1089	33	C8H12N5+
186.0541	35	C6H9ClN5+
197.0585	11	C8H10ClN4+
205.1196	32	C9H13N6+
214.0853	999	C8H13ClN5+
