Mass spectrum: 3,4-Methylenedioxyamphetamine (MDA); LC-ESI-QFT; MS2; CE: 180; R=35000; [M+H]+
Name: 3,4-Methylenedioxyamphetamine (MDA)
Name: 1-(3,4-Methylenedioxyphenyl)-2-aminopropane
Name: 1-(1,3-benzodioxol-5-yl)propan-2-amine
Formula: C10H13NO2
Exact mass: 179.09463
SMILES: CC(CC1=CC2=C(C=C1)OCO2)N
InChI: InChI=1S/C10H13NO2/c1-7(11)4-8-2-3-9-10(5-8)13-6-12-9/h2-3,5,7H,4,6,11H2,1H3
Instrument: Q Exactive Plus Orbitrap Thermo Scientific
Instrument type: LC-ESI-QFT
Ms type: MS2
Ion mode: POSITIVE
Ionization: ESI
Fragmentation mode: HCD
Collision energy: 180 (nominal)
Resolution: 35000
Column name: XBridge C18 3.5um, 2.1x50mm, Waters
Retention time: 3.6 min
Base peak: 180.1013
Precursor m/z: 180.1019
Precursor type: [M+H]+
m/z	relative intensity	assigned
50.0151	390	C4H2+
51.0229	999	C4H3+
53.0022	37	C3HO+
53.0385	233	C4H5+
53.9973	5	C2NO+
55.0178	25	C3H3O+
62.015	10	C5H2+
63.0228	67	C5H3+
64.0307	12	C5H4+
65.0021	34	
65.0385	256	C5H5+
66.0463	19	C5H6+
67.0542	5	C5H7+
67.9892	1	C3O2+
68.9969	2	C3HO2+
75.0228	16	C6H3+
77.0384	556	C6H5+
78.0463	27	C6H6+
79.0541	160	C6H7+
81.0334	21	C5H5O+
89.0385	140	C7H5+
90.0464	5	C7H6+
91.0542	51	C7H7+
94.0412	8	C6H6O+
95.049	620	C6H7O+
102.0463	18	C8H6+
103.0541	83	C8H7+
104.0617	1	C8H8+
105.0446	425	C6H5N2+
106.0416	1	C7H6O+
115.0541	5	C9H7+
118.0411	1	C8H6O+
121.0282	30	C7H5O2+
135.0436	2	C8H7O2+
147.0438	14	C9H7O2+
