Mass spectrum: Mycophenolic acid; LC-ESI-ITFT; MS2; CE: 60%; R=15000; [M-H]-
Name: Mycophenolic acid
Name: (E)-6-(4-hydroxy-3-keto-6-methoxy-7-methyl-phthalan-5-yl)-4-methyl-hex-4-enoic acid
Formula: C17H20O6
Exact mass: 320.1260
SMILES: c12c(c(c(C\C=C(\CCC(O)=O)C)c(c1C)OC)O)C(=O)OC2
InChI: InChI=1S/C17H20O6/c1-9(5-7-13(18)19)4-6-11-15(20)14-12(8-23-17(14)21)10(2)16(11)22-3/h4,20H,5-8H2,1-3H3,(H,18,19)/b9-4+
Instrument: LTQ Orbitrap XL Thermo Scientific
Instrument type: LC-ESI-ITFT
Ms type: MS2
Ion mode: NEGATIVE
Ionization: ESI
Fragmentation mode: HCD
Collision energy: 60 % (nominal)
Resolution: 15000
Column name: XBridge C18 3.5um, 2.1x50mm, Waters
Retention time: 9.6 min
Base peak: 319.1183
Precursor m/z: 319.1187
Precursor type: [M-H]-
m/z	relative intensity	assigned
161.0609	110	C10H9O2-
173.061	150	C11H9O2-
179.0344	55	C9H7O4-
187.0764	129	C12H11O2-
191.0349	999	C10H7O4-
192.0426	153	C10H8O4-
201.0922	52	C13H13O2-
203.035	219	C11H7O4-
205.0505	470	C11H9O4-
245.0821	224	C14H13O4-
319.1188	41	C17H19O6-
