Mass spectrum: Sulfadimethoxine; LC-ESI-ITFT; MS2; CE: 35%; R=7500; [M-H]-
Name: Sulfadimethoxine
Name: 4-amino-N-(2,6-dimethoxy-4-pyrimidinyl)benzenesulfonamide
Formula: C12H14N4O4S
Exact mass: 310.0736
SMILES: c1(NS(c2ccc(N)cc2)(=O)=O)cc(nc(n1)OC)OC
InChI: InChI=1S/C12H14N4O4S/c1-19-11-7-10(14-12(15-11)20-2)16-21(17,18)9-5-3-8(13)4-6-9/h3-7H,13H2,1-2H3,(H,14,15,16)
Instrument: LTQ Orbitrap XL Thermo Scientific
Instrument type: LC-ESI-ITFT
Ms type: MS2
Ion mode: NEGATIVE
Ionization: ESI
Fragmentation mode: CID
Collision energy: 35 % (nominal)
Resolution: 7500
Column name: XBridge C18 3.5um, 2.1x50mm, Waters
Retention time: 5.7 min
Base peak: 309.0653
Precursor m/z: 309.0663
Precursor type: [M-H]-
m/z	relative intensity	assigned
107.0375	15	C6H5NO-
122.0361	31	C5H4N3O-
124.0153	120	C4H2N3O2-
130.0536	29	C8H6N2-
131.0377	133	C8H5NO-
131.0615	101	C8H7N2-
132.0567	44	C7H6N3-
139.0385	6	C5H5N3O2-
144.0564	11	C8H6N3-
154.0622	78	C6H8N3O2-
155.0048	75	C6H5NO2S-
156.0126	37	C6H6NO2S-
156.0567	153	C9H6N3-
161.0721	98	C9H9N2O-
171.0235	59	C6H7N2O2S-
172.052	18	C3H12N2O4S-
173.0595	97	C9H7N3O-
174.0673	199	C9H8N3O-
177.0668	81	C9H9N2O2-
185.039	71	C7H9N2O2S-
187.0753	17	C10H9N3O-
188.0464	74	C9H6N3O2-
195.0234	999	C8H7N2O2S-
196.0183	61	C7H6N3O2S-
198.0548	27	C10H6N4O-
199.0625	65	C10H7N4O-
200.07	43	C10H8N4O-
213.0781	35	C11H9N4O-
215.0572	283	C10H7N4O2-
220.0186	26	C9H6N3O2S-
229.0728	315	C11H9N4O2-
230.0807	859	C11H10N4O2-
245.1041	123	C12H13N4O2-
253.0288	39	C10H9N2O4S-
277.04	157	C11H9N4O3S-
