Mass spectrum: Chloridazone-desphenyl; LC-ESI-ITFT; MS2; CE: 60%; R=15000; [M+H]+
Name: Chloridazone-desphenyl
Name: 3(2H)-Pyridazinone, 5-amino-4-chloro-
Name: 4-amino-5-chloro-1H-pyridazin-6-one
Formula: C4H4ClN3O
Exact mass: 145.0043
SMILES: c1(c(nncc1N)O)Cl
InChI: InChI=1S/C4H4ClN3O/c5-3-2(6)1-7-8-4(3)9/h1H,(H3,6,8,9)
Instrument: LTQ Orbitrap XL Thermo Scientific
Instrument type: LC-ESI-ITFT
Ms type: MS2
Ion mode: POSITIVE
Ionization: ESI
Fragmentation mode: HCD
Collision energy: 60 % (nominal)
Resolution: 15000
Column name: XBridge C18 3.5um, 2.1x50mm, Waters
Retention time: 1.3 min
Base peak: 146.0113
Precursor m/z: 146.0116
Precursor type: [M+H]+
m/z	relative intensity	assigned
54.0338	3	C3H4N+
72.9839	2	C3H2Cl+
75.9949	3	C2H3ClN+
82.0288	1	C4H4NO+
87.9948	2	C3H3ClN+
89.0027	1	C3H4ClN+
90.0106	4	C3H5ClN+
100.9902	12	C3H2ClN2+
101.9741	1	C3HClNO+
116.9976	36	C4H4ClNO+
146.0117	999	C4H5ClN3O+
