Mass spectrum: Ethofumesate; LC-ESI-ITFT; MS2; CE: 60%; R=15000; [M+H]+
Name: Ethofumesate
Name: (2-ethoxy-3,3-dimethyl-2H-1-benzofuran-5-yl) methanesulfonate
Formula: C13H18O5S
Exact mass: 286.0869
SMILES: S(=O)(=O)(C)O-c(ccc1O2)cc1C(C2OCC)(C)C
InChI: InChI=1S/C13H18O5S/c1-5-16-12-13(2,3)10-8-9(18-19(4,14)15)6-7-11(10)17-12/h6-8,12H,5H2,1-4H3
Instrument: LTQ Orbitrap XL Thermo Scientific
Instrument type: LC-ESI-ITFT
Ms type: MS2
Ion mode: POSITIVE
Ionization: ESI
Fragmentation mode: HCD
Collision energy: 60 % (nominal)
Resolution: 15000
Column name: XBridge C18 3.5um, 2.1x50mm, Waters
Retention time: 10.0 min
Base peak: 309.0774
Precursor m/z: 287.0948
Precursor type: [M+H]+
m/z	relative intensity	assigned
55.0178	7	C3H3O+
62.9898	3	CH3OS+
71.0491	7	C4H7O+
77.0385	17	C6H5+
79.0542	15	C6H7+
81.0005	13	CH5O2S+
81.0699	16	C6H9+
91.0542	69	C7H7+
93.0699	91	C7H9+
95.0492	8	C6H7O+
103.0542	63	C8H7+
105.0699	204	C8H9+
106.0777	4	C8H10+
107.0491	30	C7H7O+
109.0284	19	C6H5O2+
109.0648	23	C7H9O+
115.0542	64	C9H7+
116.0626	6	C9H8+
117.0699	40	C9H9+
119.0492	14	C8H7O+
121.0649	999	C8H9O+
123.0441	22	C7H7O2+
133.0649	359	C9H9O+
134.0726	108	C9H10O+
135.0805	48	C9H11O+
137.0597	264	C8H9O2+
138.0677	9	C8H10O2+
143.0492	17	C10H7O+
144.057	2	C10H8O+
145.0649	68	C10H9O+
147.0442	18	C9H7O2+
149.096	21	C10H13O+
155.0606	6	C10H7N2+
160.0516	3	C10H8O2+
161.0598	541	C10H9O2+
162.0676	216	C10H10O2+
163.0754	77	C10H11O2+
173.071	137	C10H9N2O+
179.0702	34	C10H11O3+
185.026	5	C8H9O3S+
213.0578	6	C10H13O3S+
