Mass spectrum: Dimethenamide ESA; LC-ESI-ITFT; MS2; CE: 45%; R=7500; [M+H]+
Name: Dimethenamide ESA
Name: 2-[(2,4-Dimethyl-3-thienyl)(1-methoxy-2-propanyl)amino]-2-oxoethanesulfonic acid
Formula: C12H19NO5S2
Exact mass: 321.0705
SMILES: S(C=C1C)C(C)=C1N(C(=O)CS(=O)(=O)O)C(COC)C
InChI: InChI=1S/C12H19NO5S2/c1-8-6-19-10(3)12(8)13(9(2)5-18-4)11(14)7-20(15,16)17/h6,9H,5,7H2,1-4H3,(H,15,16,17)
Instrument: LTQ Orbitrap XL Thermo Scientific
Instrument type: LC-ESI-ITFT
Ms type: MS2
Ion mode: POSITIVE
Ionization: ESI
Fragmentation mode: HCD
Collision energy: 45 % (nominal)
Resolution: 7500
Column name: XBridge C18 3.5um, 2.1x50mm, Waters
Retention time: 6.7 min
Base peak: 322.0788
Precursor m/z: 322.0777
Precursor type: [M+H]+
m/z	relative intensity	assigned
73.0649	35	C4H9O+
82.0652	15	C5H8N+
93.0694	1	C7H9+
111.0264	29	C6H7S+
112.0342	16	C6H8S+
113.0299	1	C5H7NS+
113.0421	2	C6H9S+
125.0421	22	C7H9S+
126.0374	19	C6H8NS+
127.0213	4	C6H7OS+
127.0449	7	C6H9NS+
127.0575	3	C7H11S+
128.0529	21	C6H10NS+
129.0368	1	C6H9OS+
134.0966	22	C9H12N+
135.0265	4	C8H7S+
135.1045	4	C9H13N+
136.1124	3	C9H14N+
137.0425	1	C8H9S+
138.0373	18	C7H8NS+
139.057	1	C8H11S+
140.0533	2	C7H10NS+
149.0419	3	C9H9S+
150.037	7	C8H8NS+
150.0499	65	C9H10S+
151.0451	9	C8H9NS+
151.0577	10	C9H11S+
152.053	124	C8H10NS+
153.0368	1	C8H9OS+
153.0607	2	C8H11NS+
155.0401	2	C7H9NOS+
162.0916	4	C10H12NO+
163.0991	3	C10H13NO+
164.1071	6	C10H14NO+
165.0727	1	C10H13S+
166.0687	433	C9H12NS+
167.0765	196	C9H13NS+
168.0479	43	C8H10NOS+
168.0843	315	C9H14NS+
169.0563	4	C8H11NOS+
170.0638	9	C8H12NOS+
176.1071	26	C11H14NO+
192.0842	4	C11H14NS+
194.0636	31	C10H12NOS+
195.9565	2	C6N2O4S+
206.064	2	C5H18O4S2+
208.0796	5	C5H20O4S2+
209.0871	119	C11H15NOS+
210.0951	999	C11H16NOS+
224.0742	2	C11H14NO2S+
226.0896	26	C11H16NO2S+
250.02	2	C8H12NO4S2+
272.0414	6	C11H14NO3S2+
290.0518	737	C11H16NO4S2+
