Mass spectrum: Nitrazepam; LC-ESI-QFT; MS2; CE: 150; R=35000; [M+H]+
Name: Nitrazepam
Name: 7-nitro-5-phenyl-1,3-dihydro-1,4-benzodiazepin-2-one
Formula: C15H11N3O3
Exact mass: 281.08004
SMILES: C1C(=O)NC2=C(C=C(C=C2)[N+](=O)[O-])C(=N1)C3=CC=CC=C3
InChI: InChI=1S/C15H11N3O3/c19-14-9-16-15(10-4-2-1-3-5-10)12-8-11(18(20)21)6-7-13(12)17-14/h1-8H,9H2,(H,17,19)
Instrument: Q Exactive Plus Orbitrap Thermo Scientific
Instrument type: LC-ESI-QFT
Ms type: MS2
Ion mode: POSITIVE
Ionization: ESI
Fragmentation mode: HCD
Collision energy: 150 (nominal)
Resolution: 35000
Column name: XBridge C18 3.5um, 2.1x50mm, Waters
Retention time: 7.7 min
Base peak: 282.0866
Precursor m/z: 282.0873
Precursor type: [M+H]+
m/z	relative intensity	assigned
50.0151	50	C4H2+
51.0229	38	C4H3+
52.0182	10	C3H2N+
52.0308	5	C4H4+
53.0386	54	C4H5+
54.0338	4	C3H4N+
55.0178	4	C3H3O+
61.0073	3	C5H+
62.0151	24	C5H2+
63.0229	30	C5H3+
64.0181	2	C4H2N+
64.0307	4	C5H4+
65.0021	3	C4HO+
65.0386	71	C5H5+
66.0464	21	C5H6+
67.0417	2	C4H5N+
74.015	8	C6H2+
75.0229	58	C6H3+
76.0181	15	C5H2N+
76.0307	78	C6H4+
77.0385	126	C6H5+
78.0338	29	C5H4N+
78.0464	38	C6H6+
79.0416	9	C5H5N+
79.0542	2	C6H7+
80.0494	1	C5H6N+
81.0335	9	C5H5O+
86.0149	1	C7H2+
87.0227	5	C7H3+
88.0181	5	C6H2N+
88.0307	3	C7H4+
89.0386	77	C7H5+
90.0339	10	C6H4N+
90.0464	16	C7H6+
91.0416	3	C6H5N+
91.0542	62	C7H7+
92.0369	1	C5H4N2+
92.0495	4	C6H6N+
93.0573	3	C6H7N+
94.0413	6	C6H6O+
95.0491	165	C6H7O+
96.0444	29	C5H6NO+
99.0229	4	C8H3+
101.0385	3	C8H5+
102.0338	43	C7H4N+
102.0464	26	C8H6+
103.0416	34	C7H5N+
103.0542	12	C8H7+
104.0494	111	C7H6N+
105.0447	114	C6H5N2+
111.023	1	C9H3+
113.0386	40	C9H5+
114.0339	8	C8H4N+
114.0464	10	C9H6+
115.0542	101	C9H7+
116.0495	17	C8H6N+
116.062	4	C9H8+
117.0573	16	C8H7N+
119.0492	3	C8H7O+
120.0444	12	C7H6NO+
121.0396	2	C6H5N2O+
125.0386	24	C10H5+
126.0464	70	C10H6+
127.0416	4	C9H5N+
127.0542	61	C10H7+
128.0495	14	C9H6N+
128.062	72	C10H8+
129.0447	61	C8H5N2+
130.04	49	C7H4N3+
130.0651	5	C9H8N+
131.0605	1	C8H7N2+
132.057	2	C9H8O+
135.0317	3	C7H5NO2+
137.0386	11	C11H5+
138.034	1	C10H4N+
138.0464	8	C11H6+
139.0542	133	C11H7+
140.0495	133	C10H6N+
140.0618	17	C11H8+
141.0574	9	C10H7N+
141.0696	6	C11H9+
143.0493	2	C10H7O+
145.0648	39	C10H9O+
146.0599	6	C9H8NO+
149.0388	5	C12H5+
150.0465	91	C12H6+
151.0542	111	C12H7+
152.062	999	C12H8+
153.0573	44	C11H7N+
153.0699	89	C12H9+
154.0651	44	C11H8N+
155.0603	108	C10H7N2+
157.0523	1	C10H7NO+
161.0386	1	C13H5+
162.0464	19	C13H6+
163.0542	293	C13H7+
164.0496	83	C12H6N+
164.0619	63	C13H8+
165.0585	12	
165.0699	95	C13H9+
166.0652	41	C12H8N+
167.073	32	C12H9N+
168.057	24	C12H8O+
168.068	1	C11H8N2+
169.0648	243	C12H9O+
170.06	18	C11H8NO+
175.0416	3	C13H5N+
176.0496	1	C13H6N+
176.0622	1	C14H8+
177.0573	93	C13H7N+
178.0651	181	C13H8N+
179.0604	118	C12H7N2+
179.073	94	C13H9N+
180.0559	6	C11H6N3+
180.0807	65	C13H10N+
181.0757	2	C12H9N2+
182.0601	3	C12H8NO+
183.0681	5	C12H9NO+
183.0806	2	C13H11O+
185.0473	3	C11H7NO2+
188.0495	34	C14H6N+
189.0573	22	C14H7N+
190.0651	157	C14H8N+
191.0603	10	C13H7N2+
191.0729	24	C14H9N+
192.0681	19	C13H8N2+
192.081	4	C14H10N+
193.0522	7	C13H7NO+
193.0758	3	C13H9N2+
194.0359	2	C13H6O2+
194.0603	6	C13H8NO+
196.0522	7	C13H8O2+
196.0757	8	C13H10NO+
203.0602	2	C14H7N2+
204.0555	5	C13H6N3+
204.0685	1	C14H8N2+
205.0761	189	C14H9N2+
206.0839	15	C14H10N2+
207.0681	3	C14H9NO+
211.0628	7	C13H9NO2+
221.0474	4	C14H7NO2+
