Mass spectrum: Pencycuron; LC-ESI-QFT; MS2; CE: 60; R=35000; [M-H]-
Name: Pencycuron
Name: 1-(4-chlorobenzyl)-1-cyclopentyl-3-phenyl-urea
Formula: C19H21ClN2O
Exact mass: 328.13424
SMILES: Clc1ccc(cc1)CN(C(=O)Nc2ccccc2)C3CCCC3
InChI: InChI=1S/C19H21ClN2O/c20-16-12-10-15(11-13-16)14-22(18-8-4-5-9-18)19(23)21-17-6-2-1-3-7-17/h1-3,6-7,10-13,18H,4-5,8-9,14H2,(H,21,23)
Instrument: Q Exactive Orbitrap Thermo Scientific
Instrument type: LC-ESI-QFT
Ms type: MS2
Ion mode: NEGATIVE
Ionization: ESI
Fragmentation mode: HCD
Collision energy: 60 (nominal)
Resolution: 35000
Column name: XBridge C18 3.5um, 2.1x50mm, Waters
Retention time: 13.8 min
Base peak: 327.1271
Precursor m/z: 327.127
Precursor type: [M-H]-
m/z	relative intensity	assigned
81.0346	1	C5H5O-
83.0503	1	C5H7O-
92.0506	907	C6H6N-
102.0348	1	C7H4N-
111.0007	999	C6H4Cl-
118.03	15	C7H4NO-
126.0117	32	C6H5ClN-
135.9959	2	C7H3ClN-
151.9909	5	C7H3ClNO-
154.9906	52	C7H4ClO2-
170.0975	1	C12H12N-
183.0119	1	C14HN-
186.0926	1	C12H12NO-
