Mass spectrum: Chloralose; LC-ESI-QFT; MS2; CE: 45%; R=17500; [M+H]+
Name: Chloralose
Name: Glucochloralose
Name: 1-[6-hydroxy-2-(trichloromethyl)-3a,5,6,6a-tetrahydrofuro[2,3-d][1,3]dioxol-5-yl]ethane-1,2-diol
Formula: C8H11Cl3O6
Exact mass: 307.9621
SMILES: C(C(C1C(C2C(O1)OC(O2)C(Cl)(Cl)Cl)O)O)O
InChI: InChI=1S/C8H11Cl3O6/c9-8(10,11)7-16-5-3(14)4(2(13)1-12)15-6(5)17-7/h2-7,12-14H,1H2
Instrument: Exploris 240 Orbitrap Thermo Scientific
Instrument type: LC-ESI-QFT
Ms type: MS2
Ion mode: POSITIVE
Ionization: ESI
Fragmentation mode: HCD
Collision energy: 45 % (nominal)
Resolution: 17500
Column name: XBridge C18 3.5um, 2.1x50mm, Waters
Retention time: 4.863 min
Base peak: 308.9692
Precursor m/z: 308.9694
Precursor type: [M+H]+
m/z	relative intensity	assigned
53.0385	124	C4H5+
55.018	60	C3H3O+
57.0335	226	C3H5O+
61.0284	107	C2H5O2+
69.0335	709	C4H5O+
71.0126	85	C3H3O2+
71.0491	129	C4H7O+
73.0284	102	C3H5O2+
74.9996	67	C3H4Cl+
76.979	32	C2H2ClO+
81.0335	774	C5H5O+
82.9447	82	CHCl2+
83.0126	69	C4H3O2+
83.0492	42	C5H7O+
84.0206	75	C4H4O2+
85.0284	999	C4H5O2+
87.0441	30	C4H7O2+
89.0151	66	C4H6Cl+
91.0388	27	C3H7O3+
97.0284	403	C5H5O2+
99.0439	233	C5H7O2+
101.0231	32	C4H5O3+
102.9944	40	C4H4ClO+
103.039	131	C4H7O3+
108.9605	134	C3H3Cl2+
109.0284	407	C6H5O2+
118.9894	34	C4H4ClO2+
127.0389	437	C6H7O3+
134.9759	18	C5H5Cl2+
152.9504	27	C4H3Cl2O2+
180.9461	23	C5H3Cl2O3+
200.9274	28	C5H4Cl3O2+
228.922	58	C6H4Cl3O3+
