Mass spectrum: Etodolac; LC-ESI-QFT; MS2; CE: 60; R=35000; [M-H]-
Name: Etodolac
Name: 2-(1,8-diethyl-4,9-dihydro-3H-pyrano[3,4-b]indol-1-yl)acetic acid
Formula: C17H21NO3
Exact mass: 287.15214
SMILES: CCC1=C2C(=CC=C1)C3=C(N2)C(OCC3)(CC)CC(=O)O
InChI: InChI=1S/C17H21NO3/c1-3-11-6-5-7-12-13-8-9-21-17(4-2,10-14(19)20)16(13)18-15(11)12/h5-7,18H,3-4,8-10H2,1-2H3,(H,19,20)
Instrument: Q Exactive Orbitrap Thermo Scientific
Instrument type: LC-ESI-QFT
Ms type: MS2
Ion mode: NEGATIVE
Ionization: ESI
Fragmentation mode: HCD
Collision energy: 60 (nominal)
Resolution: 35000
Column name: XBridge C18 3.5um, 2.1x50mm, Waters
Retention time: 12.5 min
Base peak: 286.1449
Precursor m/z: 286.1449
Precursor type: [M-H]-
m/z	relative intensity	assigned
158.0976	3	C11H12N-
170.0976	1	C12H12N-
182.0976	11	C13H12N-
183.1053	3	C13H13N-
184.1132	17	C13H14N-
185.0846	37	C12H11NO-
194.0974	13	C14H12N-
195.1053	2	C14H13N-
196.1132	22	C14H14N-
197.121	192	C14H15N-
198.1288	16	C14H16N-
208.113	8	C15H14N-
209.1213	1	C15H15N-
210.1289	28	C15H16N-
212.1444	999	C15H18N-
214.1601	3	C15H20N-
224.1443	8	C16H18N-
229.1107	49	C14H15NO2-
242.155	49	C16H20NO-
