Mass spectrum: Cyanazine; LC-ESI-ITFT; MS2; CE: 45%; R=15000; [M+H]+
Name: Cyanazine
Name: 2-[[4-chloranyl-6-(ethylamino)-1,3,5-triazin-2-yl]amino]-2-methyl-propanenitrile
Formula: C9H13ClN6
Exact mass: 240.0890
SMILES: CCNC1=NC(=NC(=N1)Cl)NC(C)(C)C#N
InChI: InChI=1S/C9H13ClN6/c1-4-12-7-13-6(10)14-8(15-7)16-9(2,3)5-11/h4H2,1-3H3,(H2,12,13,14,15,16)
Instrument: LTQ Orbitrap XL Thermo Scientific
Instrument type: LC-ESI-ITFT
Ms type: MS2
Ion mode: POSITIVE
Ionization: ESI
Fragmentation mode: HCD
Collision energy: 45 % (nominal)
Resolution: 15000
Column name: XBridge C18 3.5um, 2.1x50mm, Waters
Retention time: 6.6 min
Base peak: 241.0971
Precursor m/z: 241.0963
Precursor type: [M+H]+
m/z	relative intensity	assigned
58.0651	1	C3H8N+
61.9791	2	CHClN+
68.0243	37	C2H2N3+
71.0603	8	C3H7N2+
79.0058	11	CH4ClN2+
83.0603	5	C4H7N2+
90.0106	2	C3H5ClN+
96.0556	69	C4H6N3+
104.001	50	C2H3ClN3+
110.0713	11	C5H8N3+
119.0371	12	C4H8ClN2+
132.0323	34	C4H7ClN3+
136.0869	12	C7H10N3+
138.0775	4	C5H8N5+
146.0228	15	C3H5ClN5+
163.098	12	C8H11N4+
171.0429	4	C6H8ClN4+
173.0588	11	C6H10ClN4+
174.0541	99	C5H9ClN5+
177.0884	9	C7H9N6+
178.1087	10	C8H12N5+
180.1244	2	C8H14N5+
186.054	13	C6H9ClN5+
205.1195	73	C9H13N6+
214.0855	999	C8H13ClN5+
241.0962	366	C9H14ClN6+
