Mass spectrum: Marbofloxacin; LC-ESI-QFT; MS2; CE: 60; R=35000; [M+H]+
Name: Marbofloxacin
Name: 9-Fluoro-3-methyl-10-(4-methyl-1-piperazinyl)-7-oxo-2,3-dihydro-7H-[1,3,4]oxadiazino[6,5,4-ij]quinoline-6-carboxylic acid
Formula: C17H19FN4O4
Exact mass: 362.13903
SMILES: CN1CCN(CC1)C2=C(C=C3C4=C2OCN(N4C=C(C3=O)C(=O)O)C)F
InChI: InChI=1S/C17H19FN4O4/c1-19-3-5-21(6-4-19)14-12(18)7-10-13-16(14)26-9-20(2)22(13)8-11(15(10)23)17(24)25/h7-8H,3-6,9H2,1-2H3,(H,24,25)
Instrument: Q Exactive Plus Orbitrap Thermo Scientific
Instrument type: LC-ESI-QFT
Ms type: MS2
Ion mode: POSITIVE
Ionization: ESI
Fragmentation mode: HCD
Collision energy: 60 (nominal)
Resolution: 35000
Column name: XBridge C18 3.5um, 2.1x50mm, Waters
Retention time: 3.7 min
Base peak: 363.1454
Precursor m/z: 363.1463
Precursor type: [M+H]+
m/z	relative intensity	assigned
56.0495	21	C3H6N+
57.0573	22	C3H7N+
58.0651	6	C3H8N+
68.0494	1	C4H6N+
69.0573	1	C4H7N+
70.0651	208	C4H8N+
71.073	4	C4H9N+
72.0807	999	C4H10N+
82.0651	5	C5H8N+
84.0808	1	C5H10N+
85.076	8	C4H9N2+
98.0838	1	C5H10N2+
116.0494	1	C8H6N+
122.04	7	C7H5FN+
130.0652	1	C9H8N+
134.0401	1	C8H5FN+
136.0557	7	C8H7FN+
138.0349	2	C7H5FNO+
144.0444	1	C9H6NO+
148.0558	3	C9H7FN+
149.0511	2	C8H6FN2+
150.0349	3	C8H5FNO+
157.0396	14	C9H5N2O+
157.076	1	C10H9N2+
158.0236	1	C9H4NO2+
158.0601	7	C10H8NO+
162.035	4	C9H5FNO+
163.0302	1	C8H4FN2O+
163.0427	1	C9H6FNO+
164.0506	38	C9H7FNO+
169.0758	1	C11H9N2+
171.0552	6	C10H7N2O+
176.0507	5	C10H7FNO+
177.046	1	C9H6FN2O+
177.0586	1	C10H8FNO+
178.0299	13	C9H5FNO2+
178.0663	1	C10H9FNO+
179.025	1	C8H4FN2O2+
180.0451	2	C9H7FNO2+
183.0552	1	C11H7N2O+
185.0346	10	C10H5N2O2+
185.071	5	C11H9N2O+
188.0507	2	C11H7FNO+
190.0535	1	C10H7FN2O+
191.0377	6	C10H6FNO2+
191.0615	3	C10H8FN2O+
192.0455	34	C10H7FNO2+
193.017	4	C9H4FNO3+
199.0502	1	C11H7N2O2+
204.0456	34	C11H7FNO2+
205.0409	83	C10H6FN2O2+
205.053	8	C11H8FNO2+
206.0613	16	C11H9FNO2+
213.0659	9	C12H9N2O2+
215.0615	4	C12H8FN2O+
216.0456	3	C12H7FNO2+
218.0486	4	C11H7FN2O2+
219.0563	5	C11H8FN2O2+
230.0246	1	C12H5FNO3+
231.02	3	C11H4FN2O3+
231.0563	4	C12H8FN2O2+
231.0801	3	C12H10FN3O+
233.072	4	C12H10FN2O2+
236.0352	2	C11H7FNO4+
247.0511	1	C12H8FN2O3+
248.0356	2	C12H7FNO4+
249.0306	8	C11H6FN2O4+
250.0515	1	C12H9FNO4+
254.0561	1	C13H8N3O3+
259.0515	4	C13H8FN2O3+
259.075	1	C13H10FN3O2+
261.0908	1	C13H12FN3O2+
272.0463	3	C13H7FN3O3+
274.0618	1	C13H9FN3O3+
274.0984	1	C14H13FN3O2+
277.0618	3	C13H10FN2O4+
287.07	8	C14H10FN3O3+
302.0933	1	C15H13FN3O3+
345.136	2	C17H18FN4O3+
363.1456	1	C17H20FN4O4+
