Mass spectrum: Triisopropanolamine borate; LC-ESI-QFT; MS2; CE: 45%; R=15000; [M+H]+
Name: Triisopropanolamine borate
Name: 3,7,10-trimethyl-2,8,9-trioxa-5-aza-1-borabicyclo[3.3.3]undecane
Formula: C9H18BNO3
Exact mass: 199.1380
SMILES: B12OC(CN(CC(O1)C)CC(O2)C)C
InChI: InChI=1S/C9H18BNO3/c1-7-4-11-5-8(2)13-10(12-7)14-9(3)6-11/h7-9H,4-6H2,1-3H3
Instrument: Orbitrap Exploris 240 Thermo Scientific
Instrument type: LC-ESI-QFT
Ms type: MS2
Ion mode: POSITIVE
Ionization: ESI
Fragmentation mode: HCD
Collision energy: 45 % (nominal)
Resolution: 15000
Column name: Atlantis C18 3um, 3.0x150mm, Waters
Retention time: 8.524 min
Base peak: 200.145
Precursor m/z: 200.1453
Precursor type: [M+H]+
Precursor intensity: 514897152
m/z	relative intensity	assigned
55.0541	19	C4H7+
56.0495	6	C3H6N+
58.0649	7	C3H8N+
59.049	34	C3H7O+
69.0695	8	C5H9+
81.0699	13	C6H9+
98.0964	144	C6H12N+
100.0562	20	C3H7BNO2+
103.0559	22	C3H8BO3+
114.072	17	C4H9BNO2+
124.0923	10	C6H11BNO+
138.1276	7	C9H16N+
140.0875	91	C6H11BNO2+
142.1032	726	C6H13BNO2+
156.1379	17	C9H18NO+
182.1345	999	C9H17BNO2+
200.1451	772	C9H19BNO3+
