Mass spectrum: Dronedarone; LC-ESI-ITFT; MS2; CE: 35%; R=7500; [M+H]+
Name: Dronedarone
Name: N-[2-butyl-3-[4-[3-(dibutylamino)propoxy]benzoyl]-1-benzofuran-5-yl]methanesulfonamide
Formula: C31H44N2O5S
Exact mass: 556.2971
SMILES: CS(=O)(=O)Nc1cc2c(c(oc2cc1)CCCC)C(c1ccc(cc1)OCCCN(CCCC)CCCC)=O
InChI: InChI=1S/C31H44N2O5S/c1-5-8-12-29-30(27-23-25(32-39(4,35)36)15-18-28(27)38-29)31(34)24-13-16-26(17-14-24)37-22-11-21-33(19-9-6-2)20-10-7-3/h13-18,23,32H,5-12,19-22H2,1-4H3
Instrument: LTQ Orbitrap XL Thermo Scientific
Instrument type: LC-ESI-ITFT
Ms type: MS2
Ion mode: POSITIVE
Ionization: ESI
Fragmentation mode: CID
Collision energy: 35 % (nominal)
Resolution: 7500
Column name: XBridge C18 3.5um, 2.1x50mm, Waters
Retention time: 11.5 min
Base peak: 557.3051
Precursor m/z: 557.3044
Precursor type: [M+H]+
m/z	relative intensity	assigned
161.0602	1	C10H9O2+
170.1903	123	C11H24N+
173.0465	3	C10H7NO2+
186.0916	1	C12H12NO+
215.0943	7	C13H13NO2+
222.0917	2	C15H12NO+
250.0863	1	C16H12NO2+
252.0327	20	C11H10NO4S+
279.0897	1	C17H13NO3+
292.1328	3	C19H18NO2+
294.0793	177	C14H16NO4S+
295.0824	9	C15H11N4O3+
306.111	1	C19H16NO3+
308.1282	8	C19H18NO3+
309.1355	6	C19H19NO3+
310.1433	37	C19H20NO3+
311.1477	1	C20H23OS+
321.1367	2	C20H19NO3+
321.1738	2	C21H23NO2+
324.1594	42	C20H22NO3+
325.1633	3	C21H25OS+
336.1589	13	C21H22NO3+
348.1608	1	C22H22NO3+
349.1666	3	C22H23NO3+
350.1755	14	C22H24NO3+
372.1261	20	
379.2012	22	C23H27N2O3+
388.1212	29	C20H22NO5S+
393.2172	7	C24H29N2O3+
421.2481	38	C26H33N2O3+
422.2544	5	C26H34N2O3+
423.2644	8	C26H35N2O3+
428.1522	12	C29H20N2O2+
435.2641	999	C27H35N2O3+
436.2673	92	C28H38NOS+
449.2808	5	C28H37N2O3+
477.3124	4	C30H41N2O3+
478.3179	2	C30H42N2O3+
479.3265	28	C30H43N2O3+
501.2415	332	C27H37N2O5S+
502.2443	31	C30H34N2O5+
