Mass spectrum: Diphenhydramine; LC-ESI-QFT; MS2; CE: 90; R=35000; [M+H]+
Name: Diphenhydramine
Name: 2-benzhydryloxy-N,N-dimethylethanamine
Formula: C17H21NO
Exact mass: 255.16231
SMILES: CN(C)CCOC(C1=CC=CC=C1)C2=CC=CC=C2
InChI: InChI=1S/C17H21NO/c1-18(2)13-14-19-17(15-9-5-3-6-10-15)16-11-7-4-8-12-16/h3-12,17H,13-14H2,1-2H3
Instrument: Q Exactive Plus Orbitrap Thermo Scientific
Instrument type: LC-ESI-QFT
Ms type: MS2
Ion mode: POSITIVE
Ionization: ESI
Fragmentation mode: HCD
Collision energy: 90 (nominal)
Resolution: 35000
Column name: XBridge C18 3.5um, 2.1x50mm, Waters
Retention time: 6.6 min
Base peak: 256.1694
Precursor m/z: 256.1696
Precursor type: [M+H]+
m/z	relative intensity	assigned
63.0227	1	C5H3+
65.0386	2	C5H5+
115.0542	14	C9H7+
128.0621	56	C10H8+
139.0541	3	C11H7+
141.0699	63	C11H9+
150.0464	1	C12H6+
151.0542	20	C12H7+
152.0621	968	C12H8+
164.062	4	C13H8+
165.0699	999	C13H9+
166.0777	245	C13H10+
167.0855	188	C13H11+
169.0648	42	C12H9O+
179.0604	19	C12H7N2+
