Mass spectrum: Flurtamone; LC-ESI-QFT; MS2; CE: 75; R=35000; [M+H]+
Name: Flurtamone
Name: 5-(methylamino)-2-phenyl-4-[3-(trifluoromethyl)phenyl]furan-3-one
Formula: C18H14F3NO2
Exact mass: 333.09766
SMILES: CNC1=C(C(=O)C(O1)C2=CC=CC=C2)C3=CC(=CC=C3)C(F)(F)F
InChI: InChI=1S/C18H14F3NO2/c1-22-17-14(12-8-5-9-13(10-12)18(19,20)21)15(23)16(24-17)11-6-3-2-4-7-11/h2-10,16,22H,1H3
Instrument: Q Exactive Plus Orbitrap Thermo Scientific
Instrument type: LC-ESI-QFT
Ms type: MS2
Ion mode: POSITIVE
Ionization: ESI
Fragmentation mode: HCD
Collision energy: 75 (nominal)
Resolution: 35000
Column name: XBridge C18 3.5um, 2.1x50mm, Waters
Retention time: 10.1 min
Base peak: 334.1042
Precursor m/z: 334.1049
Precursor type: [M+H]+
m/z	relative intensity	assigned
50.0151	1	C4H2+
51.0228	2	C4H3+
53.0386	21	C4H5+
55.0179	1	C3H3O+
58.0288	93	C2H4NO+
77.0385	42	C6H5+
79.0542	2	C6H7+
81.0336	2	C5H5O+
90.0466	1	C7H6+
91.0542	13	C7H7+
94.0413	1	C6H6O+
95.0492	73	C6H7O+
102.0465	2	C8H6+
103.0543	44	C8H7+
105.0336	323	C7H5O+
105.0448	48	C6H5N2+
109.0448	1	C7H6F+
115.0543	2	C9H7+
118.0414	1	C8H6O+
118.0651	7	C8H8N+
120.0808	73	C8H10N+
127.0354	1	C7H5F2+
130.0652	1	C9H8N+
131.0492	3	C9H7O+
131.0729	3	C9H9N+
133.0448	1	C9H6F+
145.0258	3	C7H4F3+
151.0354	19	C9H5F2+
152.0623	4	C12H8+
159.0417	6	C8H6F3+
165.0699	9	C13H9+
166.0781	1	C13H10+
167.0302	3	C9H5F2O+
169.0261	17	C9H4F3+
171.0417	20	C9H6F3+
173.0212	3	C8H4F3O+
173.0322	1	C7H4F3N2+
176.0618	4	C14H8+
177.0699	7	C14H9+
178.0778	999	C14H10+
179.0855	5	C14H11+
180.0617	3	C10H8F2N+
180.0934	1	C14H12+
181.0648	1	C13H9O+
183.0418	2	C10H6F3+
183.0605	4	C13H8F+
185.0447	3	C9H6F3N+
186.0526	3	C9H7F3N+
188.0681	2	C9H9F3N+
189.0699	8	C15H9+
190.0779	1	C15H10+
191.0856	1	C15H11+
193.065	1	C14H9O+
196.0684	23	C14H9F+
197.021	41	C10H4F3O+
197.0316	3	C9H4F3N2+
198.0526	1	C10H7F3N+
199.0364	2	C10H6F3O+
200.0681	1	C10H9F3N+
201.0512	9	C13H7F2+
204.081	2	C15H10N+
205.0648	2	C15H9O+
206.0729	2	C15H10O+
207.0607	184	C15H8F+
208.0684	4	C15H9F+
209.0762	22	C15H10F+
210.0526	3	C11H7F3N+
214.0589	14	C14H8F2+
215.0667	1	C14H9F2+
217.0645	1	C16H9O+
218.0965	1	C16H12N+
225.0159	3	C11H4F3O2+
225.0507	5	C15H7F2+
226.0591	7	C15H8F2+
227.0668	597	C15H9F2+
228.0631	3	C11H9F3NO+
229.0825	3	C15H11F2+
232.0498	1	C14H7F3+
233.0576	3	C14H8F3+
234.0658	1	C14H9F3+
235.0557	1	C16H8FO+
237.0715	1	C16H10FO+
238.0587	1	C16H8F2+
239.0667	1	C16H9F2+
243.0264	1	C14H5F2O2+
245.0575	2	C15H8F3+
246.0652	54	C15H9F3+
247.0731	172	C15H10F3+
254.0538	1	C16H8F2O+
255.0617	5	C16H9F2O+
259.0732	4	C16H10F3+
262.06	2	C15H9F3O+
272.0684	1	C16H9F3N+
275.0679	20	C16H10F3O+
288.0991	2	C17H13F3N+
