Mass spectrum: Flunitrazepam; LC-ESI-QFT; MS2; CE: 120; R=35000; [M+H]+
Name: Flunitrazepam
Name: 5-(2-fluorophenyl)-1-methyl-7-nitro-3H-1,4-benzodiazepin-2-one
Formula: C16H12FN3O3
Exact mass: 313.08627
SMILES: CN1C(=O)CN=C(C2=C1C=CC(=C2)[N+](=O)[O-])C3=CC=CC=C3F
InChI: InChI=1S/C16H12FN3O3/c1-19-14-7-6-10(20(22)23)8-12(14)16(18-9-15(19)21)11-4-2-3-5-13(11)17/h2-8H,9H2,1H3
Instrument: Q Exactive Plus Orbitrap Thermo Scientific
Instrument type: LC-ESI-QFT
Ms type: MS2
Ion mode: POSITIVE
Ionization: ESI
Fragmentation mode: HCD
Collision energy: 120 (nominal)
Resolution: 35000
Column name: XBridge C18 3.5um, 2.1x50mm, Waters
Retention time: 7.9 min
Base peak: 314.0927
Precursor m/z: 314.0935
Precursor type: [M+H]+
m/z	relative intensity	assigned
50.0151	10	C4H2+
51.0229	7	C4H3+
52.0181	1	C3H2N+
53.0022	1	C3HO+
53.0386	11	C4H5+
54.0339	1	C3H4N+
55.0178	1	C3H3O+
57.0134	3	C3H2F+
58.0287	16	C2H4NO+
62.015	6	C5H2+
63.0229	26	C5H3+
64.0308	9	C5H4+
65.0386	44	C5H5+
66.0338	1	C4H4N+
66.0464	10	C5H6+
67.0416	6	C4H5N+
75.0229	17	C6H3+
76.0182	3	C5H2N+
76.0307	8	C6H4+
77.0385	20	C6H5+
78.0338	22	C5H4N+
78.0464	18	CH5FN3+
79.0416	4	C5H5N+
79.0542	7	C6H7+
80.0494	15	C5H6N+
81.0335	1	C5H5O+
83.0291	19	C5H4F+
88.0308	1	C7H4+
89.0386	321	C7H5+
90.0338	14	C6H4N+
90.0464	75	C7H6+
91.0417	29	C6H5N+
91.0542	200	C7H7+
92.0494	16	C6H6N+
93.0573	4	C6H7N+
94.0413	1	C6H6O+
95.0491	31	C6H7O+
96.037	1	C6H5F+
96.0443	20	C5H6NO+
102.0338	14	C7H4N+
103.0416	6	C7H5N+
103.0542	1	C8H7+
104.0494	76	C7H6N+
105.0447	29	C6H5N2+
105.0572	1	C7H7N+
106.0652	16	C7H8N+
107.0291	24	C7H4F+
108.037	4	C7H5F+
109.0448	47	C7H6F+
110.0599	1	C6H8NO+
113.0394	4	C6H6FO+
114.034	7	C8H4N+
114.0466	1	C9H6+
115.0417	7	C8H5N+
115.0542	14	C9H7+
116.037	9	C7H4N2+
116.0495	98	C8H6N+
117.0573	85	C8H7N+
118.0651	158	C8H8N+
119.0604	4	C7H7N2+
119.073	12	C8H9N+
120.037	5	C8H5F+
120.0443	8	C7H6NO+
121.0323	1	C7H4FN+
121.045	1	C8H6F+
122.0401	26	C7H5FN+
123.024	4	C7H4FO+
123.0354	10	C6H4FN2+
125.0387	10	C10H5+
126.0466	3	C10H6+
127.0543	5	C10H7+
128.0495	5	C9H6N+
128.0621	3	C10H8+
129.0446	18	C8H5N2+
130.04	32	C7H4N3+
131.0294	1	C9H4F+
131.0606	1	C8H7N2+
132.0447	1	C8H6NO+
133.0448	65	C9H6F+
134.0401	19	C8H5FN+
134.0601	20	C8H8NO+
135.048	4	C8H6FN+
136.0556	1	C8H7FN+
138.0466	8	C11H6+
139.0542	26	C11H7+
140.0494	16	C10H6N+
140.062	5	C11H8+
142.0526	21	C9H6N2+
143.0604	22	C9H7N2+
144.037	18	C10H5F+
144.0556	4	C8H6N3+
144.0683	1	C9H8N2+
145.045	3	C10H6F+
145.0648	5	C10H9O+
146.0526	36	C10H7F+
147.048	1	C9H6FN+
148.0556	4	C9H7FN+
149.0383	10	
150.0464	52	C12H6+
151.0542	95	C12H7+
152.0497	10	C11H6N+
152.0621	46	C12H8+
153.0446	1	C10H5N2+
153.0573	10	C11H7N+
153.0698	7	C12H9+
154.0404	1	C9H4N3+
154.0653	6	C11H8N+
155.0494	4	C11H7O+
155.0603	11	C10H7N2+
157.0449	48	C11H6F+
158.0401	21	C10H5FN+
158.0526	11	C11H7F+
159.0606	16	C11H8F+
161.0385	2	C13H5+
161.0636	4	C10H8FN+
163.0542	151	C13H7+
164.0499	25	C12H6N+
164.062	54	C13H8+
165.0699	376	C13H9+
166.0651	23	C12H8N+
167.073	11	C12H9N+
168.0368	5	C12H5F+
168.057	18	C12H8O+
169.0449	21	C12H6F+
169.0648	164	C12H9O+
170.0527	508	C12H7F+
171.0484	20	C11H6FN+
171.0604	51	C12H8F+
172.0557	18	C11H7FN+
173.0395	1	C11H6FO+
173.051	17	C10H6FN2+
174.0467	8	C14H6+
174.0587	15	C10H7FN2+
174.0712	1	C11H9FN+
175.0418	4	C13H5N+
175.0542	35	C14H7+
176.0496	21	C13H6N+
176.0621	18	C14H8+
177.0573	145	C13H7N+
177.07	7	C14H9+
178.0651	99	C13H8N+
179.0604	87	C12H7N2+
179.0723	17	C13H9N+
180.0445	5	C12H6NO+
180.0558	3	C11H6N3+
180.0808	15	C13H10N+
181.0448	59	C13H6F+
182.0399	3	C12H5FN+
182.0527	75	C13H7F+
183.0605	999	C13H8F+
184.0558	40	C12H7FN+
184.0681	21	C13H9F+
185.0636	61	C12H8FN+
185.0755	6	C13H10F+
186.0476	24	C12H7FO+
186.0586	4	C11H7FN2+
186.0712	6	C12H9FN+
187.0554	54	C12H8FO+
188.0496	11	C14H6N+
189.0578	7	C14H7N+
190.0651	195	C14H8N+
191.0609	6	C13H7N2+
191.0729	112	C14H9N+
192.0681	13	C13H8N2+
192.0808	51	C14H10N+
193.0522	1	C13H7NO+
193.065	31	C14H9O+
193.076	6	C13H9N2+
193.0885	13	C14H11N+
194.0525	47	C14H7F+
194.0603	41	C13H8NO+
195.0479	29	C13H6FN+
195.0606	31	C14H8F+
196.0558	90	C13H7FN+
196.0682	27	C14H9F+
196.076	12	C13H10NO+
197.0511	38	C12H6FN2+
197.0636	121	C13H8FN+
198.0714	141	C13H9FN+
199.0557	4	C13H8FO+
199.0666	3	C12H8FN2+
199.0793	1	C13H10FN+
200.0498	3	C12H7FNO+
201.0573	57	C15H7N+
202.0528	4	C14H6N2+
202.0651	50	C15H8N+
203.0604	79	C14H7N2+
203.0728	14	C15H9N+
204.0558	37	C13H6N3+
204.0682	25	C14H8N2+
204.0809	22	C15H10N+
205.0761	132	C14H9N2+
206.0839	13	C14H10N2+
207.0486	1	C14H6FN+
208.0557	64	C14H7FN+
209.0636	73	C14H8FN+
210.0593	9	C13H7FN2+
210.0713	77	C14H9FN+
211.0671	11	C13H8FN2+
211.0792	108	C14H10FN+
212.0508	4	C13H7FNO+
212.0745	31	C13H9FN2+
212.0869	17	C14H11FN+
213.0826	4	C13H10FN2+
214.0425	10	C13H7FO2+
214.0668	6	C13H9FNO+
216.0683	5	C15H8N2+
217.076	23	C15H9N2+
218.0604	4	C15H8NO+
218.0839	40	C15H10N2+
219.048	4	C15H6FN+
219.0917	39	C15H11N2+
220.0555	5	C15H7FN+
220.0757	19	C15H10NO+
220.0995	1	C15H12N2+
221.063	26	C15H8FN+
222.0714	127	C15H9FN+
223.0667	356	C14H8FN2+
224.0745	35	C14H9FN2+
225.0822	5	C14H10FN2+
228.0559	4	C15H6N3+
229.0533	4	C16H7NO+
236.0746	6	C15H9FN2+
237.0823	46	C15H10FN2+
238.0659	7	C15H9FNO+
238.09	8	C15H11FN2+
239.0979	7	C15H12FN2+
256.064	1	C14H9FN2O2+
