Mass spectrum: Afidopyropen; LC-ESI-QFT; MS2; CE: 180%; R=17500; [M+H]+
Name: Afidopyropen
Name: [5-(cyclopropanecarbonyloxy)-9,18-dihydroxy-2,6,10-trimethyl-16-oxo-14-pyridin-3-yl-11,15-dioxatetracyclo[8.8.0.02,7.012,17]octadeca-12(17),13-dien-6-yl]methyl cyclopropanecarboxylate
Formula: C33H39NO9
Exact mass: 593.2625
SMILES: CC12CCC(C(C1CC(C3(C2C(C4=C(O3)C=C(OC4=O)C5=CN=CC=C5)O)C)O)(C)COC(=O)C6CC6)OC(=O)C7CC7
InChI: InChI=1S/C33H39NO9/c1-31-11-10-24(42-29(38)18-8-9-18)32(2,16-40-28(37)17-6-7-17)22(31)14-23(35)33(3)27(31)26(36)25-21(43-33)13-20(41-30(25)39)19-5-4-12-34-15-19/h4-5,12-13,15,17-18,22-24,26-27,35-36H,6-11,14,16H2,1-3H3
Instrument: Exploris 240 Orbitrap Thermo Scientific
Instrument type: LC-ESI-QFT
Ms type: MS2
Ion mode: POSITIVE
Ionization: ESI
Fragmentation mode: HCD
Collision energy: 180 % (nominal)
Resolution: 17500
Column name: XBridge C18 3.5um, 2.1x50mm, Waters
Retention time: 8.509 min
Base peak: 594.2694
Precursor m/z: 594.2698
Precursor type: [M+H]+
m/z	relative intensity	assigned
65.0386	981	C5H5+
68.997	524	C3HO2+
75.023	118	C6H3+
77.0386	298	C6H5+
78.0338	990	C5H4N+
79.0416	662	C5H5N+
79.0542	60	C6H7+
80.0494	999	C5H6N+
89.0384	150	C7H5+
91.0542	220	C7H7+
92.0494	218	C6H6N+
95.0493	60	C6H7O+
96.0444	250	C5H6NO+
102.0338	62	C7H4N+
102.0468	77	C8H6+
103.0541	31	C8H7+
104.0494	304	C7H6N+
115.0543	447	C9H7+
127.0538	38	C10H7+
128.0621	195	C10H8+
139.0545	39	C11H7+
141.0699	71	C11H9+
152.0622	197	C12H8+
165.0703	110	C13H9+
178.0778	31	C14H10+
