Mass spectrum: Norlidocaine; LC-ESI-QFT; MS2; CE: 75; R=35000; [M+H]+
Name: Norlidocaine
Name: Monoethylglycinexylidide
Name: N-(2,6-dimethylphenyl)-2-(ethylamino)acetamide
Formula: C12H18N2O
Exact mass: 206.14191
SMILES: CCNCC(=O)NC1=C(C=CC=C1C)C
InChI: InChI=1S/C12H18N2O/c1-4-13-8-11(15)14-12-9(2)6-5-7-10(12)3/h5-7,13H,4,8H2,1-3H3,(H,14,15)
Instrument: Q Exactive Plus Orbitrap Thermo Scientific
Instrument type: LC-ESI-QFT
Ms type: MS2
Ion mode: POSITIVE
Ionization: ESI
Fragmentation mode: HCD
Collision energy: 75 (nominal)
Resolution: 35000
Column name: XBridge C18 3.5um, 2.1x50mm, Waters
Retention time: 3.8 min
Base peak: 207.1491
Precursor m/z: 207.1492
Precursor type: [M+H]+
m/z	relative intensity	assigned
58.0651	999	C3H8N+
79.0543	1	C6H7+
105.0699	13	C8H9+
107.073	13	C7H9N+
117.0573	2	C8H7N+
122.0964	21	C8H12N+
123.0805	4	C8H11O+
132.0807	3	C9H10N+
133.0762	1	C8H9N2+
150.0914	2	C9H12NO+
