Mass spectrum: EDDP; LC-ESI-ITFT; MS2; CE: 45%; R=7500; [M+H]+
Name: EDDP
Name: (2E)-2-ethylidene-1,5-dimethyl-3,3-diphenyl-pyrrolidine
Formula: C20H23N
Exact mass: 277.1830
SMILES: C/C=C/1\C(CC(N1C)C)(C2=CC=CC=C2)C3=CC=CC=C3
InChI: InChI=1S/C20H23N/c1-4-19-20(15-16(2)21(19)3,17-11-7-5-8-12-17)18-13-9-6-10-14-18/h4-14,16H,15H2,1-3H3/b19-4+
Instrument: LTQ Orbitrap XL Thermo Scientific
Instrument type: LC-ESI-ITFT
Ms type: MS2
Ion mode: POSITIVE
Ionization: ESI
Fragmentation mode: HCD
Collision energy: 45 % (nominal)
Resolution: 7500
Column name: XBridge C18 3.5um, 2.1x50mm, Waters
Retention time: 6.5 min
Base peak: 278.1909
Precursor m/z: 278.1903
Precursor type: [M+H]+
m/z	relative intensity	assigned
186.1277	3	C13H16N+
200.1432	8	C14H18N+
201.1511	13	C14H19N+
234.1276	60	C17H16N+
236.1426	2	C17H18N+
248.1436	6	C18H18N+
249.1513	168	C18H19N+
250.1588	1	C18H20N+
278.1907	999	C20H24N+
