Mass spectrum: Carbetamide; LC-ESI-ITFT; MS2; CE: 75%; R=7500; [M+H]+
Name: Carbetamide
Name: N-phenylcarbamic acid [1-(ethylamino)-1-oxopropan-2-yl] ester
Formula: C12H16N2O3
Exact mass: 236.1155
SMILES: CCNC(=O)C(C)OC(=O)NC1=CC=CC=C1
InChI: InChI=1S/C12H16N2O3/c1-3-13-11(15)9(2)17-12(16)14-10-7-5-4-6-8-10/h4-9H,3H2,1-2H3,(H,13,15)(H,14,16)
Instrument: LTQ Orbitrap XL Thermo Scientific
Instrument type: LC-ESI-ITFT
Ms type: MS2
Ion mode: POSITIVE
Ionization: ESI
Fragmentation mode: HCD
Collision energy: 75 % (nominal)
Resolution: 7500
Column name: XBridge C18 3.5um, 2.1x50mm, Waters
Retention time: 6.6 min
Base peak: 259.1057
Precursor m/z: 237.1234
Precursor type: [M+H]+
m/z	relative intensity	assigned
53.0388	9	C4H5+
55.0179	29	C3H3O+
65.0387	21	C5H5+
72.0442	56	C3H6NO+
72.0808	999	C4H10N+
77.0386	178	C6H5+
92.0495	377	C6H6N+
95.0492	28	C6H7O+
100.0756	164	C5H10NO+
105.0447	53	C6H5N2+
118.0862	129	C5H12NO2+
120.0444	543	C7H6NO+
192.0656	12	C10H10NO3+
