Mass spectrum: Paraoxon-ethyl; LC-ESI-QFT; MS2; CE: 90%; R=17500; [M+H]+
Name: Paraoxon-ethyl
Name: Paraoxon
Name: diethyl (4-nitrophenyl) phosphate
Formula: C10H14NO6P
Exact mass: 275.0559
SMILES: CCOP(=O)(OCC)OC1=CC=C(C=C1)[N+](=O)[O-]
InChI: InChI=1S/C10H14NO6P/c1-3-15-18(14,16-4-2)17-10-7-5-9(6-8-10)11(12)13/h5-8H,3-4H2,1-2H3
Instrument: Exploris 240 Orbitrap Thermo Scientific
Instrument type: LC-ESI-QFT
Ms type: MS2
Ion mode: POSITIVE
Ionization: ESI
Fragmentation mode: HCD
Collision energy: 90 % (nominal)
Resolution: 17500
Column name: XBridge C18 3.5um, 2.1x50mm, Waters
Retention time: 6.797 min
Base peak: 276.0629
Precursor m/z: 276.0632
Precursor type: [M+H]+
m/z	relative intensity	assigned
63.0229	8	C5H3+
64.0306	13	C5H4+
65.0385	12	C5H5+
66.0463	25	C5H6+
75.0229	78	C6H3+
76.0308	11	C6H4+
81.0335	14	C5H5O+
92.0256	33	C6H4O+
94.0413	999	C6H6O+
98.9843	25	H4O4P+
109.0284	49	C6H5O2+
123.0314	48	C6H5NO2+
154.9895	13	C6H4O3P+
155.9965	9	C6H5O3P+
172.9997	28	C6H6O4P+
174.0078	44	C6H7O4P+
201.0055	23	C10H3NO4+
202.9978	23	C6H6NO5P+
