Mass spectrum: Atraton; LC-ESI-ITFT; MS2; CE: 30%; R=15000; [M+H]+
Name: Atraton
Name: 4-N-ethyl-6-methoxy-2-N-propan-2-yl-1,3,5-triazine-2,4-diamine
Formula: C9H17N5O
Exact mass: 211.1428
SMILES: COc1nc(NCC)nc(NC(C)C)n1
InChI: InChI=1S/C9H17N5O/c1-5-10-7-12-8(11-6(2)3)14-9(13-7)15-4/h6H,5H2,1-4H3,(H2,10,11,12,13,14)
Instrument: LTQ Orbitrap XL Thermo Scientific
Instrument type: LC-ESI-ITFT
Ms type: MS2
Ion mode: POSITIVE
Ionization: ESI
Fragmentation mode: HCD
Collision energy: 30 % (nominal)
Resolution: 15000
Column name: XBridge C18 3.5um, 2.1x50mm, Waters
Retention time: 5.7 min
Base peak: 212.1507
Precursor m/z: 212.1506
Precursor type: [M+H]+
m/z	relative intensity	assigned
170.1037	74	C6H12N5O+
212.1507	999	C9H18N5O+
