Mass spectrum: Ciprofloxacin; LC-ESI-ITFT; MS2; CE: 60%; R=7500; [M+H]+
Name: Ciprofloxacin
Name: 1-cyclopropyl-6-fluoro-4-keto-7-piperazin-4-ium-1-yl-quinoline-3-carboxylate
Formula: C17H18FN3O3
Exact mass: 331.1332
SMILES: C(C1)C1N(C=C(C-2=O)C(=O)O)-c(cc(c3F)N(CCN4)CC4)c2c3
InChI: InChI=1S/C17H18FN3O3/c18-13-7-11-14(8-15(13)20-5-3-19-4-6-20)21(10-1-2-10)9-12(16(11)22)17(23)24/h7-10,19H,1-6H2,(H,23,24)
Instrument: LTQ Orbitrap XL Thermo Scientific
Instrument type: LC-ESI-ITFT
Ms type: MS2
Ion mode: POSITIVE
Ionization: ESI
Fragmentation mode: HCD
Collision energy: 60 % (nominal)
Resolution: 7500
Column name: XBridge C18 3.5um, 2.1x50mm, Waters
Retention time: 4.5 min
Base peak: 332.1415
Precursor m/z: 332.1405
Precursor type: [M+H]+
m/z	relative intensity	assigned
56.0496	2	C3H6N+
58.0651	1	C3H8N+
70.0652	9	C4H8N+
135.0479	8	C8H6FN+
136.0557	15	C8H7FN+
148.0556	4	C9H7FN+
150.0718	2	C9H9FN+
151.0666	2	C8H8FN2+
156.0684	1	C10H8N2+
156.0802	2	C11H10N+
161.0504	2	C9H6FN2+
162.0718	2	C10H9FN+
163.0672	7	C9H8FN2+
169.0761	5	C11H9N2+
174.0593	3	C10H7FN2+
174.0714	4	C11H9FN+
175.0669	5	C10H8FN2+
175.0789	4	C11H10FN+
176.0502	3	C10H7FNO+
176.0745	16	C10H9FN2+
177.0573	2	C13H7N+
178.0539	5	C9H7FN2O+
182.0835	2	C12H10N2+
183.0914	2	C12H11N2+
184.0637	8	C11H8N2O+
187.0671	4	C11H8FN2+
188.0509	1	C11H7FNO+
188.0753	1	C11H9FN2+
189.0458	33	C10H6FN2O+
189.0825	14	C11H10FN2+
190.0544	4	C10H7FN2O+
191.0616	32	C10H8FN2O+
197.0714	2	C12H9N2O+
197.1075	2	C13H13N2+
201.0828	3	C12H10FN2+
202.0908	5	C12H11FN2+
203.0617	98	C11H8FN2O+
204.0696	107	C11H9FN2O+
205.0773	80	C11H10FN2O+
212.082	3	C12H10N3O+
212.1185	1	C13H14N3+
215.0616	11	C12H8FN2O+
215.0978	3	C13H12FN2+
216.07	8	C12H9FN2O+
216.1061	2	C13H13FN2+
217.0411	5	C11H6FN2O2+
217.078	23	C12H10FN2O+
217.1133	8	C13H14FN2+
218.0489	9	C11H7FN2O2+
218.0853	9	C12H11FN2O+
219.0927	7	C12H12FN2O+
225.0545	5	C14H9O3+
226.0981	5	C10H13FN3O2+
229.0771	15	C13H10FN2O+
230.0496	2	C12H7FN2O2+
231.0566	999	C12H8FN2O2+
231.0932	62	C13H12FN2O+
235.0635	3	C12H10FNO3+
238.0971	6	C14H12N3O+
238.1332	2	C15H16N3+
239.1056	3	C14H13N3O+
240.1125	5	C14H14N3O+
243.0563	4	C13H8FN2O2+
243.0925	6	C14H12FN2O+
245.1087	255	C14H14FN2O+
248.0835	2	C17H12O2+
249.0671	9	C12H10FN2O3+
252.1138	3	C15H14N3O+
253.0844	6	C14H11N3O2+
257.0729	1	C14H10FN2O2+
257.1084	4	C15H14FN2O+
258.0671	1	C13H9FN3O2+
258.1399	2	C15H17FN3+
260.12	1	C14H15FN3O+
266.0927	7	C15H12N3O2+
266.1297	5	C16H16N3O+
268.1452	9	C13H19FN3O2+
270.1405	1	C16H17FN3+
271.0865	6	C15H12FN2O2+
272.0831	10	C14H11FN3O2+
272.1197	11	C15H15FN3O+
273.0908	15	C16H14FO3+
274.0982	1	C14H13FN3O2+
286.1348	9	C16H17FN3O+
288.1515	17	C16H19FN3O+
294.1237	58	C17H16N3O2+
312.1333	12	C17H18N3O3+
314.1299	430	C17H17FN3O2+
332.1407	125	C17H19FN3O3+
