Mass spectrum: 4`-Hydroxy Diclofenac; LC-ESI-QFT; MS2; CE: 120; R=35000; [M+H]+
Name: 4`-Hydroxy Diclofenac
Name: 4`-hydroxydiclofenac
Name: 2-[2-(2,6-dichloro-4-hydroxyanilino)phenyl]acetic acid
Formula: C14H11Cl2NO3
Exact mass: 311.01160
SMILES: C1=CC=C(C(=C1)CC(=O)O)NC2=C(C=C(C=C2Cl)O)Cl
InChI: InChI=1S/C14H11Cl2NO3/c15-10-6-9(18)7-11(16)14(10)17-12-4-2-1-3-8(12)5-13(19)20/h1-4,6-7,17-18H,5H2,(H,19,20)
Instrument: Q Exactive Plus Orbitrap Thermo Scientific
Instrument type: LC-ESI-QFT
Ms type: MS2
Ion mode: POSITIVE
Ionization: ESI
Fragmentation mode: HCD
Collision energy: 120 (nominal)
Resolution: 35000
Column name: XBridge C18 3.5um, 2.1x50mm, Waters
Retention time: 10.0 min
Base peak: 312.0187
Precursor m/z: 312.0189
Precursor type: [M+H]+
m/z	relative intensity	assigned
65.0385	1	C5H5+
77.0385	2	C6H5+
84.9839	5	C4H2Cl+
88.9788	2	C3H2ClO+
89.0385	7	C7H5+
91.0541	2	C7H7+
95.0491	3	C6H7O+
113.0385	8	C9H5+
114.0105	6	C5H5ClN+
115.0542	51	C9H7+
116.0494	18	C8H6N+
126.0463	3	C10H6+
128.0493	4	C9H6N+
137.0389	1	C11H5+
138.0463	2	C11H6+
139.0542	310	C11H7+
140.0494	327	C10H6N+
141.0573	1	C10H7N+
141.0699	1	C11H9+
142.065	7	C10H8N+
146.0599	1	C9H8NO+
148.9553	3	C5H3Cl2O+
149.0384	1	C12H5+
154.0652	6	C11H8N+
164.0494	8	C12H6N+
165.0574	13	C12H7N+
166.0651	579	C12H8N+
167.0729	999	C12H9N+
168.0808	14	C12H10N+
169.0648	5	C12H9O+
170.0599	3	C11H8NO+
175.0414	1	C13H5N+
175.9666	1	C6H4Cl2NO+
176.0494	4	C13H6N+
177.0572	28	C13H7N+
178.065	6	C13H8N+
179.0605	2	C12H7N2+
179.0723	3	C13H9N+
181.052	1	C12H7NO+
182.0599	1	C12H8NO+
183.0681	3	C12H9NO+
184.0755	12	C12H10NO+
193.052	3	C13H7NO+
194.06	37	C13H8NO+
195.0678	453	C13H9NO+
196.0757	11	C13H10NO+
201.0339	22	C12H8ClN+
202.0417	43	C12H9ClN+
204.0555	1	C13H6N3+
212.0261	23	C13H7ClN+
214.042	4	C13H9ClN+
229.0287	7	C13H8ClNO+
230.0367	339	C13H9ClNO+
