Mass spectrum: N,N-Dimethyl-N'-phenylsulfamide; LC-ESI-ITFT; MS2; CE: 75%; R=7500; [M+H]+
Name: N,N-Dimethyl-N'-phenylsulfamide
Name: DMSA
Formula: C8H12N2O2S
Exact mass: 200.0619
SMILES: S(Nc1ccccc1)(N(C)C)(=O)=O
InChI: InChI=1S/C8H12N2O2S/c1-10(2)13(11,12)9-8-6-4-3-5-7-8/h3-7,9H,1-2H3
Instrument: LTQ Orbitrap XL Thermo Scientific
Instrument type: LC-ESI-ITFT
Ms type: MS2
Ion mode: POSITIVE
Ionization: ESI
Fragmentation mode: HCD
Collision energy: 75 % (nominal)
Resolution: 7500
Column name: XBridge C18 3.5um, 2.1x50mm, Waters
Retention time: 6.3 min
Base peak: 223.0517
Precursor m/z: 201.0692
Precursor type: [M+H]+
m/z	relative intensity	assigned
65.0386	314	C5H5+
92.0495	999	C6H6N+
93.0573	266	C6H7N+
94.0652	33	C6H8N+
108.0113	3	C2H6NO2S+
108.0439	2	C6H6NO+
108.0809	5	C7H10N+
120.0807	4	C8H10N+
121.0759	4	C7H9N2+
121.0886	6	C8H11N+
122.084	23	C7H10N2+
135.0918	2	C8H11N2+
136.0996	3	C8H12N2+
