Mass spectrum: Flocoumafen; LC-ESI-QFT; MS2; CE: 90%; R=17500; [M-H]-
Name: Flocoumafen
Name: 4-hydroxy-3-[3-[4-[[4-(trifluoromethyl)phenyl]methoxy]phenyl]-1,2,3,4-tetrahydronaphthalen-1-yl]chromen-2-one
Formula: C33H25F3O4
Exact mass: 542.1705
SMILES: C1C(CC2=CC=CC=C2C1C3=C(C4=CC=CC=C4OC3=O)O)C5=CC=C(C=C5)OCC6=CC=C(C=C6)C(F)(F)F
InChI: InChI=1S/C33H25F3O4/c34-33(35,36)24-13-9-20(10-14-24)19-39-25-15-11-21(12-16-25)23-17-22-5-1-2-6-26(22)28(18-23)30-31(37)27-7-3-4-8-29(27)40-32(30)38/h1-16,23,28,37H,17-19H2
Instrument: Exploris 240 Orbitrap Thermo Scientific
Instrument type: LC-ESI-QFT
Ms type: MS2
Ion mode: NEGATIVE
Ionization: ESI
Fragmentation mode: HCD
Collision energy: 90 % (nominal)
Resolution: 17500
Column name: XBridge C18 3.5um, 2.1x50mm, Waters
Retention time: 15.818 min
Base peak: 541.1631
Precursor m/z: 541.1632
Precursor type: [M-H]-
m/z	relative intensity	assigned
92.0269	29	C6H4O-
93.0346	243	C6H5O-
115.0553	68	C9H7-
117.0346	999	C8H5O-
119.0502	51	C8H7O-
133.0294	4	C8H5O2-
141.0712	17	C11H9-
143.0502	118	C10H7O-
155.0504	21	C11H7O-
161.0244	301	C9H5O3-
167.0502	48	C12H7O-
171.0453	65	C11H7O2-
206.0737	22	C15H10O-
207.0813	32	C15H11O-
219.0815	228	C16H11O-
233.0973	43	C17H13O-
243.0815	47	C18H11O-
245.06	11	C17H9O2-
246.0685	13	C17H10O2-
247.0762	29	C17H11O2-
