Mass spectrum: Repaglinide; LC-ESI-QFT; MS2; CE: 120; R=35000; [M-H]-
Name: Repaglinide
Name: 2-ethoxy-4-[2-[[3-methyl-1-(2-piperidin-1-ylphenyl)butyl]amino]-2-oxoethyl]benzoic acid
Formula: C27H36N2O4
Exact mass: 452.26751
SMILES: CCOC1=C(C=CC(=C1)CC(=O)NC(CC(C)C)C2=CC=CC=C2N3CCCCC3)C(=O)O
InChI: InChI=1S/C27H36N2O4/c1-4-33-25-17-20(12-13-22(25)27(31)32)18-26(30)28-23(16-19(2)3)21-10-6-7-11-24(21)29-14-8-5-9-15-29/h6-7,10-13,17,19,23H,4-5,8-9,14-16,18H2,1-3H3,(H,28,30)(H,31,32)
Instrument: Q Exactive Plus Orbitrap Thermo Scientific
Instrument type: LC-ESI-QFT
Ms type: MS2
Ion mode: NEGATIVE
Ionization: ESI
Fragmentation mode: HCD
Collision energy: 120 (nominal)
Resolution: 35000
Column name: XBridge C18 3.5um, 2.1x50mm, Waters
Retention time: 9.9 min
Base peak: 497.2656
Precursor m/z: 451.2602
Precursor type: [M-H]-
m/z	relative intensity	assigned
65.0397	842	C5H5-
67.019	172	C4H3O-
77.0397	2	C6H5-
79.0554	369	C6H7-
82.0061	20	C4H2O2-
91.019	4	C6H3O-
92.0268	196	C6H4O-
93.0345	9	C6H5O-
95.0139	39	C5H3O2-
95.0502	49	C6H7O-
104.0268	3	C7H4O-
106.0424	785	C7H6O-
107.0503	605	C7H7O-
108.0217	93	C6H4O2-
109.0295	19	C6H5O2-
120.0216	10	C7H4O2-
121.0296	999	C7H5O2-
136.0165	17	C7H4O3-
137.0244	48	C7H5O3-
