Mass spectrum: Metominostrobin; LC-ESI-QFT; MS2; CE: 15%; R=17500; [M+H]+
Name: Metominostrobin
Name: N-methyl-2-(2-phenoxyphenyl)-2-methoxyiminoacetamide
Name: 2-methoxyimino-N-methyl-2-(2-phenoxyphenyl)acetamide
Formula: C16H16N2O3
Exact mass: 284.1161
SMILES: CNC(=O)C(=NOC)C1=CC=CC=C1OC2=CC=CC=C2
InChI: InChI=1S/C16H16N2O3/c1-17-16(19)15(18-20-2)13-10-6-7-11-14(13)21-12-8-4-3-5-9-12/h3-11H,1-2H3,(H,17,19)
Instrument: Exploris 240 Orbitrap Thermo Scientific
Instrument type: LC-ESI-QFT
Ms type: MS2
Ion mode: POSITIVE
Ionization: ESI
Fragmentation mode: HCD
Collision energy: 15 % (nominal)
Resolution: 17500
Column name: XBridge C18 3.5um, 2.1x50mm, Waters
Retention time: 7.515 min
Base peak: 285.1232
Precursor m/z: 285.1234
Precursor type: [M+H]+
m/z	relative intensity	assigned
58.0287	13	C2H4NO+
194.06	69	C13H8NO+
196.0758	587	C13H10NO+
238.0864	522	C15H12NO2+
253.097	89	C15H13N2O2+
254.0813	86	C15H12NO3+
285.1235	999	C16H17N2O3+
