Mass spectrum: Monolinuron; LC-ESI-QFT; MS2; CE: 30; R=35000; [M+H]+
Name: Monolinuron
Name: 3-(4-chlorophenyl)-1-methoxy-1-methyl-urea
Formula: C9H11ClN2O2
Exact mass: 214.05091
SMILES: Clc1ccc(NC(=O)N(OC)C)cc1
InChI: InChI=1S/C9H11ClN2O2/c1-12(14-2)9(13)11-8-5-3-7(10)4-6-8/h3-6H,1-2H3,(H,11,13)
Instrument: Q Exactive Orbitrap Thermo Scientific
Instrument type: LC-ESI-QFT
Ms type: MS2
Ion mode: POSITIVE
Ionization: ESI
Fragmentation mode: HCD
Collision energy: 30 (nominal)
Resolution: 35000
Column name: XBridge C18 3.5um, 2.1x50mm, Waters
Retention time: 8.0 min
Base peak: 215.0581
Precursor m/z: 215.0582
Precursor type: [M+H]+
m/z	relative intensity	assigned
60.0444	75	C2H6NO+
62.0601	202	C2H8NO+
63.0226	1	C5H3+
72.9838	1	C3H2Cl+
88.0392	36	C3H6NO2+
90.0336	3	C6H4N+
98.9994	22	C5H4Cl+
106.0496	4	C3H8NO3+
119.06	4	C7H7N2+
123.0676	1	C7H9NO+
126.0104	999	C6H5ClN+
127.0181	166	C9H3O+
140.026	1	C7H7ClN+
141.0214	1	C6H6ClN2+
141.0339	4	C7H8ClN+
143.0131	2	C6H6ClNO+
147.0552	6	C8H7N2O+
148.0629	740	C8H8N2O+
154.0052	21	C7H5ClNO+
155.0369	3	C7H8ClN2+
158.0367	2	C7H9ClNO+
168.0083	1	C7H5ClN2O+
183.0318	61	C8H8ClN2O+
184.0396	54	C8H9ClN2O+
215.0579	354	C9H12ClN2O2+
