Mass spectrum: Irgarol; LC-ESI-ITFT; MS2; CE: 30%; R=15000; [M+H]+
Name: Irgarol
Name: 2-N-tert-butyl-4-N-cyclopropyl-6-methylsulfanyl-1,3,5-triazine-2,4-diamine
Formula: C11H19N5S
Exact mass: 253.1356
SMILES: c1(nc(NC(C)(C)C)nc(n1)SC)NC1CC1
InChI: InChI=1S/C11H19N5S/c1-11(2,3)16-9-13-8(12-7-5-6-7)14-10(15-9)17-4/h7H,5-6H2,1-4H3,(H2,12,13,14,15,16)
Instrument: LTQ Orbitrap XL Thermo Scientific
Instrument type: LC-ESI-ITFT
Ms type: MS2
Ion mode: POSITIVE
Ionization: ESI
Fragmentation mode: HCD
Collision energy: 30 % (nominal)
Resolution: 15000
Column name: XBridge C18 3.5um, 2.1x50mm, Waters
Retention time: 9.2 min
Base peak: 254.1437
Precursor m/z: 254.1434
Precursor type: [M+H]+
m/z	relative intensity	assigned
198.0808	530	C7H12N5S+
254.1434	999	C11H20N5S+
