Mass spectrum: Cefaclor; LC-ESI-QFT; MS2; CE: 75; R=35000; [M-H]-
Name: Cefaclor
Name: CEFACLOR
Name: (6R,7R)-7-[[(2R)-2-amino-1-oxo-2-phenylethyl]amino]-3-chloro-8-oxo-5-thia-1-azabicyclo[4.2.0]oct-2-ene-2-carboxylic acid
Formula: C15H14ClN3O4S
Exact mass: 367.03935
SMILES: O=C2N1/C(=C(/Cl)CS[C@@H]1[C@@H]2NC(=O)[C@@H](c3ccccc3)N)C(=O)O
InChI: InChI=1S/C15H14ClN3O4S/c16-8-6-24-14-10(13(21)19(14)11(8)15(22)23)18-12(20)9(17)7-4-2-1-3-5-7/h1-5,9-10,14H,6,17H2,(H,18,20)(H,22,23)/t9-,10-,14-/m1/s1
Instrument: Q Exactive Orbitrap Thermo Scientific
Instrument type: LC-ESI-QFT
Ms type: MS2
Ion mode: NEGATIVE
Ionization: ESI
Fragmentation mode: HCD
Collision energy: 75 (nominal)
Resolution: 35000
Column name: XBridge C18 3.5um, 2.1x50mm, Waters
Retention time: 4.1 min
Base peak: 286.0657
Precursor m/z: 366.0321
Precursor type: [M-H]-
m/z	relative intensity	assigned
56.9804	537	C2HS-
57.9756	896	CNS-
58.996	28	C2H3S-
65.0145	189	C3HN2-
65.9985	220	C3NO-
67.0302	107	C3H3N2-
70.9835	120	C2HNS-
72.0091	38	C2H2NO2-
74.007	29	C2H4NS-
81.9758	98	C3NS-
83.9915	130	C3H2NS-
84.009	29	C3H2NO2-
86.007	90	C3H4NS-
86.9909	22	C3H3OS-
89.0145	78	C5HN2-
90.0221	23	C5H2N2-
91.0302	388	C5H3N2-
93.0458	999	C5H5N2-
96.9992	430	C4H3NS-
98.007	335	C4H4NS-
99.9863	32	C3H2NOS-
101.0395	43	C8H5-
105.0458	26	C6H5N2-
106.0172	26	C5H2N2O-
107.9912	41	C5H2NS-
108.0092	23	C5H2NO2-
108.9992	124	C5H3NS-
110.007	308	C5H4NS-
111.0199	27	C4H3N2O2-
111.9864	157	C4H2NOS-
116.0506	482	C8H6N-
117.0345	42	C8H5O-
119.0251	199	C6H3N2O-
121.0407	29	C6H5N2O-
123.0023	518	C5H3N2S-
124.01	800	C5H4N2S-
124.9943	178	C5H3NOS-
125.018	136	C5H5N2S-
126.0019	84	C5H4NOS-
135.0022	117	C6H3N2S-
135.9863	377	C6H2NOS-
136.9941	42	C6H3NOS-
143.0016	37	C5H4ClN2O-
146.0119	20	C7H2N2O2-
150.9971	537	C6H3N2OS-
152.0051	194	C6H4N2OS-
153.0126	109	C6H5N2OS-
155.0615	143	C10H7N2-
156.0694	248	C10H8N2-
171.0563	35	C10H7N2O-
172.0404	85	C10H6NO2-
173.0482	336	C10H7NO2-
178.992	27	C7H3N2O2S-
187.0515	161	C10H7N2O2-
189.0492	22	C10H9N2S-
200.059	174	C11H8N2O2-
225.0496	22	C13H9N2S-
