Mass spectrum: Spirotetramat BYI08330-monohydroxy; LC-ESI-QFT; MS2; CE: 150%; R=17500; [M+H]+
Name: Spirotetramat BYI08330-monohydroxy
Name: 1-Azaspiro(4.5)decan-2-one, 3-(2,5-dimethylphenyl)-4-hydroxy-8-methoxy-
Name: 3-(2,5-dimethylphenyl)-4-hydroxy-8-methoxy-1-azaspiro[4.5]decan-2-one
Formula: C18H25NO3
Exact mass: 303.1834
SMILES: CC1=CC(=C(C=C1)C)C2C(C3(CCC(CC3)OC)NC2=O)O
InChI: InChI=1S/C18H25NO3/c1-11-4-5-12(2)14(10-11)15-16(20)18(19-17(15)21)8-6-13(22-3)7-9-18/h4-5,10,13,15-16,20H,6-9H2,1-3H3,(H,19,21)
Instrument: Exploris 240 Orbitrap Thermo Scientific
Instrument type: LC-ESI-QFT
Ms type: MS2
Ion mode: POSITIVE
Ionization: ESI
Fragmentation mode: HCD
Collision energy: 150 % (nominal)
Resolution: 17500
Column name: XBridge C18 3.5um, 2.1x50mm, Waters
Retention time: 5.434 min
Base peak: 304.1905
Precursor m/z: 304.1907
Precursor type: [M+H]+
m/z	relative intensity	assigned
51.023	133	C4H3+
53.0386	224	C4H5+
55.0542	34	C4H7+
65.0386	347	C5H5+
67.0542	114	C5H7+
77.0386	460	C6H5+
78.0463	83	C6H6+
79.0542	338	C6H7+
80.0498	29	C5H6N+
81.0697	99	C6H9+
89.0387	29	C7H5+
91.0542	999	C7H7+
95.0491	113	C6H7O+
103.0542	155	C8H7+
104.0622	79	C8H8+
105.0698	145	C8H9+
115.0542	630	C9H7+
116.062	133	C9H8+
117.0702	80	C9H9+
119.0854	54	C9H11+
127.0546	43	C10H7+
128.0619	288	C10H8+
129.0698	152	C10H9+
130.0651	46	C9H8N+
130.0776	30	C10H10+
141.0699	252	C11H9+
142.0777	42	C11H10+
152.0623	80	C12H8+
153.07	123	C12H9+
154.0783	23	C12H10+
165.0699	142	C13H9+
178.0783	76	C14H10+
179.0859	15	C14H11+
