Mass spectrum: 4,5-dihydro-5,5-diphenyl-1,2-oxazole-3-carboxylic acid, ethyl ester; LC-ESI-QFT; MS2; CE: 30; R=35000; [M+H]+
Name: 4,5-dihydro-5,5-diphenyl-1,2-oxazole-3-carboxylic acid, ethyl ester
Name: 5,5-diphenyl-2-isoxazoline-3-carboxylic acid ethyl ester
Formula: C18H17NO3
Exact mass: 295.12084
SMILES: C1(C(OCC)=O)=NOC(C1)(c1ccccc1)c1ccccc1
InChI: InChI=1S/C18H17NO3/c1-2-21-17(20)16-13-18(22-19-16,14-9-5-3-6-10-14)15-11-7-4-8-12-15/h3-12H,2,13H2,1H3
Instrument: Q Exactive Orbitrap Thermo Scientific
Instrument type: LC-ESI-QFT
Ms type: MS2
Ion mode: POSITIVE
Ionization: ESI
Fragmentation mode: HCD
Collision energy: 30 (nominal)
Resolution: 35000
Column name: XBridge C18 3.5um, 2.1x50mm, Waters
Retention time: 12.7 min
Base peak: 296.1281
Precursor m/z: 296.1281
Precursor type: [M+H]+
m/z	relative intensity	assigned
70.0651	8	C4H8N+
95.0491	1	C6H7O+
103.0542	6	C8H7+
104.0494	5	C7H6N+
105.0335	249	C7H5O+
128.0494	2	C9H6N+
146.0599	1	C9H8NO+
165.0698	8	C13H9+
166.078	3	C13H10+
167.0857	1	C13H11+
176.0618	2	C14H8+
177.0697	5	C14H9+
178.0775	5	C14H10+
179.0853	13	C14H11+
181.1013	1	C14H13+
183.0804	125	C13H11O+
191.0854	73	C15H11+
194.0964	7	C14H12N+
202.0776	2	C16H10+
203.0729	9	C15H9N+
204.0808	335	C15H10N+
205.0887	5	C15H11N+
206.0965	73	C15H12N+
207.0804	78	C15H11O+
219.104	3	C16H13N+
222.0913	41	C15H12NO+
232.0756	999	C16H10NO+
233.0834	11	C16H11NO+
234.1276	6	C17H16N+
235.0753	23	C16H11O2+
235.1115	40	C17H15O+
250.0862	60	C16H12NO2+
263.1066	241	C18H15O2+
268.0966	2	C16H14NO3+
278.1177	3	C18H16NO2+
296.128	1	C18H18NO3+
