Mass spectrum: Fenofibrate; LC-ESI-ITFT; MS2; CE: 90%; R=30000; [M+H]+
Name: Fenofibrate
Name: isopropyl 2-[4-(4-chlorobenzoyl)phenoxy]-2-methylpropanoate
Name: 2-[4-(4-chlorobenzoyl)phenoxy]-2-methyl-propionic acid isopropyl ester
Formula: C20H21ClO4
Exact mass: 360.1128
SMILES: CC(C)OC(=O)C(C)(C)OC1=CC=C(C=C1)C(=O)C2=CC=C(C=C2)Cl
InChI: InChI=1S/C20H21ClO4/c1-13(2)24-19(23)20(3,4)25-17-11-7-15(8-12-17)18(22)14-5-9-16(21)10-6-14/h5-13H,1-4H3
Instrument: LTQ Orbitrap XL Thermo Scientific
Instrument type: LC-ESI-ITFT
Ms type: MS2
Ion mode: POSITIVE
Ionization: ESI
Fragmentation mode: HCD
Collision energy: 90 % (nominal)
Resolution: 30000
Column name: XBridge C18 3.5um, 2.1x50mm, Waters
Retention time: 15.7 min
Base peak: 361.1212
Precursor m/z: 361.1201
Precursor type: [M+H]+
m/z	relative intensity	assigned
50.0151	13	C4H2+
51.0229	16	C4H3+
59.0491	31	C3H7O+
65.0385	96	C5H5+
75.0229	34	C6H3+
86.9996	59	C4H4Cl+
93.0335	79	C6H5O+
110.9996	81	C6H4Cl+
111.0441	18	C6H7O2+
121.0284	556	C7H5O2+
121.0396	208	C6H5N2O+
129.0101	46	C6H6ClO+
138.9945	862	C7H4ClO+
139.0057	999	C6H4ClN2+
