Mass spectrum: 4,4`-Dichlorobenzophenone; LC-ESI-QFT; MS2; CE: 150%; R=17500; [M+H]+
Name: 4,4`-Dichlorobenzophenone
Name: bis(4-chlorophenyl)methanone
Formula: C13H8Cl2O
Exact mass: 249.9952
SMILES: C1=CC(=CC=C1C(=O)C2=CC=C(C=C2)Cl)Cl
InChI: InChI=1S/C13H8Cl2O/c14-11-5-1-9(2-6-11)13(16)10-3-7-12(15)8-4-10/h1-8H
Instrument: Exploris 240 Orbitrap Thermo Scientific
Instrument type: LC-ESI-QFT
Ms type: MS2
Ion mode: POSITIVE
Ionization: ESI
Fragmentation mode: HCD
Collision energy: 150 % (nominal)
Resolution: 17500
Column name: XBridge C18 3.5um, 2.1x50mm, Waters
Retention time: 12.103 min
Base peak: 299.1387
Precursor m/z: 251.0025
Precursor type: [M+H]+
m/z	relative intensity	assigned
50.0151	17	C4H2+
51.0228	44	C4H3+
53.0022	44	C3HO+
74.0151	114	C6H2+
75.0228	999	C6H3+
76.0309	25	C6H4+
84.9839	97	C4H2Cl+
110.9995	117	C6H4Cl+
129.01	54	C6H6ClO+
