Mass spectrum: Chlorpyrifos; LC-ESI-ITFT; MS2; CE: 45%; R=7500; [M+H]+
Name: Chlorpyrifos
Name: diethoxy-sulfanylidene-(3,5,6-trichloropyridin-2-yl)oxy-{5}-phosphane
Formula: C9H11Cl3NO3PS
Exact mass: 348.9263
SMILES: Clc1c(OP(=S)(OCC)OCC)nc(Cl)c(Cl)c1
InChI: InChI=1S/C9H11Cl3NO3PS/c1-3-14-17(18,15-4-2)16-9-7(11)5-6(10)8(12)13-9/h5H,3-4H2,1-2H3
Instrument: LTQ Orbitrap XL Thermo Scientific
Instrument type: LC-ESI-ITFT
Ms type: MS2
Ion mode: POSITIVE
Ionization: ESI
Fragmentation mode: HCD
Collision energy: 45 % (nominal)
Resolution: 7500
Column name: XBridge C18 3.5um, 2.1x50mm, Waters
Retention time: 16.0 min
Base peak: 349.9337
Precursor m/z: 349.9336
Precursor type: [M+H]+
m/z	relative intensity	assigned
78.9402	1	OPS+
96.9508	459	H2O2PS+
98.984	1	CH4ClO3+
109.0047	2	C2H6O3P+
110.9668	2	C2H4ClOS+
114.9613	766	H4O3PS+
116.9655	1	C4H3ClP+
124.9822	42	C3H6ClOS+
128.9772	1	C2H6ClO2S+
142.9928	8	C3H8ClO2S+
153.0134	2	C4H10O2PS+
161.9512	1	C5H2Cl2NO+
171.0241	4	C5H12ClO2S+
179.9612	6	C4H4ClNO3P+
197.9275	999	C5H3Cl3NO+
213.9047	202	C5H3Cl3NS+
275.8605	74	C5H2Cl3NO2PS+
293.871	72	C5H4Cl3NO3PS+
321.9208	14	C6H7Cl3N3O4S+
