Mass spectrum: Propetamphos; LC-ESI-QFT; MS2; CE: 30%; R=17500; [M+H]+
Name: Propetamphos
Name: 1-Methylethyl 3-[[(ethylamino)methoxyphosphinothioyl]oxy]-2-butenoate
Name: propan-2-yl 3-[ethylamino(methoxy)phosphinothioyl]oxybut-2-enoate
Formula: C10H20NO4PS
Exact mass: 281.0851
SMILES: CCNP(=S)(OC)OC(=CC(=O)OC(C)C)C
InChI: InChI=1S/C10H20NO4PS/c1-6-11-16(17,13-5)15-9(4)7-10(12)14-8(2)3/h7-8H,6H2,1-5H3,(H,11,17)
Instrument: Exploris 240 Orbitrap Thermo Scientific
Instrument type: LC-ESI-QFT
Ms type: MS2
Ion mode: POSITIVE
Ionization: ESI
Fragmentation mode: HCD
Collision energy: 30 % (nominal)
Resolution: 17500
Column name: XBridge C18 3.5um, 2.1x50mm, Waters
Retention time: 9.418 min
Base peak: 341.072
Precursor m/z: 282.0923
Precursor type: [M+H]+
m/z	relative intensity	assigned
67.0179	17	H6NOP+
82.9949	8	C4H3S+
85.0284	82	C4H5O2+
109.9825	15	CH5NOPS+
112.0758	10	C6H10NO+
122.0368	21	C3H9NO2P+
123.9981	27	C2H7NOPS+
130.0864	11	C6H12NO2+
138.0137	999	C3H9NOPS+
140.0471	54	C3H11NO3P+
146.0636	4	C6H12NOS+
156.0243	643	C3H11NO2PS+
170.0401	27	C4H13NO2PS+
172.134	7	C9H18NO2+
194.9877	199	C5H8O4PS+
198.0712	40	C6H17NO2PS+
222.035	158	C7H13NO3PS+
240.0459	15	C7H15NO4PS+
