Mass spectrum: Azoxystrobin (free acid); LC-ESI-ITFT; MS2; CE: 30%; R=15000; [M-H]-
Name: Azoxystrobin (free acid)
Formula: C21H15N3O5
Exact mass: 389.1012
SMILES: O=C(O)/C(=C\OC)c3ccccc3Oc2cc(Oc1ccccc1C#N)ncn2
InChI: InChI=1S/C21H15N3O5/c1-27-12-16(21(25)26)15-7-3-5-9-18(15)29-20-10-19(23-13-24-20)28-17-8-4-2-6-14(17)11-22/h2-10,12-13H,1H3,(H,25,26)/b16-12-
Instrument: LTQ Orbitrap XL Thermo Scientific
Instrument type: LC-ESI-ITFT
Ms type: MS2
Ion mode: NEGATIVE
Ionization: ESI
Fragmentation mode: HCD
Collision energy: 30 % (nominal)
Resolution: 15000
Column name: XBridge C18 3.5um, 2.1x50mm, Waters
Retention time: 8.9 min
Base peak: 388.0938
Precursor m/z: 388.0939
Precursor type: [M-H]-
m/z	relative intensity	assigned
142.0408	667	C8H4N3-
168.0561	699	C10H6N3-
212.0467	999	C11H6N3O2-
312.0776	527	C19H10N3O2-
