Mass spectrum: Fonofos; LC-ESI-QFT; MS2; CE: 45; R=35000; [M+H]+
Name: Fonofos
Name: ethoxy-ethyl-(phenylthio)-sulfanylidenephosphorane
Formula: C10H15OPS2
Exact mass: 246.03019
SMILES: S=P(Sc1ccccc1)(OCC)CC
InChI: InChI=1S/C10H15OPS2/c1-3-11-12(13,4-2)14-10-8-6-5-7-9-10/h5-9H,3-4H2,1-2H3
Instrument: Q Exactive Orbitrap Thermo Scientific
Instrument type: LC-ESI-QFT
Ms type: MS2
Ion mode: POSITIVE
Ionization: ESI
Fragmentation mode: HCD
Collision energy: 45 (nominal)
Resolution: 35000
Column name: XBridge C18 3.5um, 2.1x50mm, Waters
Retention time: 12.9 min
Base peak: 247.0377
Precursor m/z: 247.0375
Precursor type: [M+H]+
m/z	relative intensity	assigned
62.9453	54	PS+
64.9784	3	H2O2P+
80.9558	121	H2OPS+
90.9765	4	C2H4PS+
94.9173	10	PS2+
108.9871	793	C2H6OPS+
111.0262	26	C6H7S+
126.9977	999	C2H8O2PS+
137.0184	62	C4H10OPS+
140.9594	2	C2H6OPS2+
141.0134	7	C3H10O2PS+
145.0083	4	C8H4NP+
155.0289	8	C4H12O2PS+
170.9484	4	C6H4PS2+
172.9643	14	C6H6PS2+
185.0188	2	C8H10OPS+
200.9955	27	C8H10PS2+
203.0294	1	C8H12O2PS+
