Mass spectrum: Ranitidine; LC-ESI-ITFT; MS2; CE: 35%; R=30000; [M+H]+
Name: Ranitidine
Name: 1,1-Ethenediamine, N-(2-(((5-((dimethylamino)methyl)-2-furanyl)methyl)thio)ethyl)-N'-methyl-2-nitro-
Name: 1-N'-[2-[[5-(dimethylaminomethyl)furan-2-yl]methylsulfanyl]ethyl]-1-N-methyl-2-nitroethene-1,1-diamine
Formula: C13H22N4O3S
Exact mass: 314.1413
SMILES: CN\C(NCCSCC1=CC=C(CN(C)C)O1)=C/[N+]([O-])=O
InChI: InChI=1S/C13H22N4O3S/c1-14-13(9-17(18)19)15-6-7-21-10-12-5-4-11(20-12)8-16(2)3/h4-5,9,14-15H,6-8,10H2,1-3H3/b13-9+
Instrument: LTQ Orbitrap XL Thermo Scientific
Instrument type: LC-ESI-ITFT
Ms type: MS2
Ion mode: POSITIVE
Ionization: ESI
Fragmentation mode: CID
Collision energy: 35 % (nominal)
Resolution: 30000
Column name: XBridge C18 3.5um, 2.1x50mm, Waters
Retention time: 1.9 min
Base peak: 315.1494
Precursor m/z: 315.1485
Precursor type: [M+H]+
m/z	relative intensity	assigned
81.0338	2	C5H5O+
88.0215	23	C3H6NS+
95.0491	5	C6H7O+
97.0759	3	C5H9N2+
98.0838	23	C5H10N2+
102.0372	12	C4H8NS+
110.0964	8	C7H12N+
114.0786	4	C5H10N2O+
117.048	13	C4H9N2S+
118.032	2	C4H8NOS+
124.0757	561	C7H10NO+
125.0054	7	C6H5OS+
130.0558	32	C5H10N2S+
138.0912	50	C8H12NO+
140.1069	6	C8H14NO+
144.0767	135	C5H10N3O2+
145.0427	4	C5H9N2OS+
147.0222	8	C4H7N2O2S+
153.0368	3	C8H9OS+
160.0538	7	C5H10N3OS+
164.0943	8	C9H12N2O+
165.1019	11	C9H13N2O+
170.0633	39	C8H12NOS+
176.0488	753	C5H10N3O2S+
178.1099	3	C10H14N2O+
181.0795	4	C9H13N2S+
188.0487	19	C6H10N3O2S+
191.1177	15	C11H15N2O+
193.0555	6	C10H11NOS+
195.071	4	C10H13NOS+
196.0426	6	C9H10NO2S+
210.0872	7	C9H12N3O3+
215.1211	146	C10H19N2OS+
223.0902	3	C11H15N2OS+
224.0977	303	C11H16N2OS+
239.0487	2	C10H11N2O3S+
241.1003	60	C11H17N2O2S+
254.1313	2	C12H20N3OS+
270.0908	999	C11H16N3O3S+
284.1062	5	C12H18N3O3S+
