Mass spectrum: 8phiC8SPC; LC-ESI-QFT; MS2; CE: 75; R=35000; [M-H]-
Name: 8phiC8SPC
Name: Octacarboxy sulfophenyl carboxylic acid
Name: 8-(4-sulfophenyl)octanoic acid
Formula: C14H20O5S
Exact mass: 300.10314
SMILES: OS(=O)(=O)c1ccc(CCCCCCCC(=O)O)cc1
InChI: InChI=1S/C14H20O5S/c15-14(16)7-5-3-1-2-4-6-12-8-10-13(11-9-12)20(17,18)19/h8-11H,1-7H2,(H,15,16)(H,17,18,19)
Instrument: Q Exactive Plus Orbitrap Thermo Scientific
Instrument type: LC-ESI-QFT
Ms type: MS2
Ion mode: NEGATIVE
Ionization: ESI
Fragmentation mode: HCD
Collision energy: 75 (nominal)
Resolution: 35000
Column name: XBridge C18 3.5um, 2.1x50mm, Waters
Retention time: 8.0 min
Base peak: 299.0956
Precursor m/z: 299.0959
Precursor type: [M-H]-
m/z	relative intensity	assigned
63.9625	24	O2S-
79.9574	179	O3S-
80.9652	15	HO3S-
95.0139	1	C5H3O2-
106.0424	5	C7H6O-
119.0502	6	C8H7O-
155.9888	11	C6H4O3S-
158.9759	1	C5H3O4S-
170.0044	999	C7H6O3S-
171.0119	1	C7H7O3S-
183.0122	129	C8H7O3S-
184.02	4	C8H8O3S-
197.0278	12	C9H9O3S-
201.9942	20	C7H6O5S-
211.0435	3	C10H11O3S-
217.1233	1	C14H17O2-
225.0593	1	C11H13O3S-
239.0748	1	C12H15O3S-
281.0854	12	C14H17O4S-
299.0959	26	C14H19O5S-
