Mass spectrum: Torsemide; LC-ESI-QFT; MS2; CE: 45; R=35000; [M-H]-
Name: Torsemide
Name: SMR000466313
Name: 1-[4-(3-methylanilino)pyridin-3-yl]sulfonyl-3-propan-2-ylurea
Formula: C16H20N4O3S
Exact mass: 348.12561
SMILES: O=S(=O)(c2c(Nc1cc(ccc1)C)ccnc2)NC(=O)NC(C)C
InChI: InChI=1S/C16H20N4O3S/c1-11(2)18-16(21)20-24(22,23)15-10-17-8-7-14(15)19-13-6-4-5-12(3)9-13/h4-11H,1-3H3,(H,17,19)(H2,18,20,21)
Instrument: Q Exactive Orbitrap Thermo Scientific
Instrument type: LC-ESI-QFT
Ms type: MS2
Ion mode: NEGATIVE
Ionization: ESI
Fragmentation mode: HCD
Collision energy: 45 (nominal)
Resolution: 35000
Column name: XBridge C18 3.5um, 2.1x50mm, Waters
Retention time: 6.8 min
Base peak: 347.1184
Precursor m/z: 347.1183
Precursor type: [M-H]-
m/z	relative intensity	assigned
57.9757	2	CNS-
60.9753	24	CHOS-
63.9624	3	O2S-
77.9655	26	NO2S-
79.9574	2	O3S-
91.0302	1	C5H3N2-
92.038	27	C5H4N2-
93.0458	22	C5H5N2-
105.0584	9	C7H7N-
108.0329	59	C5H4N2O-
120.9993	1	C6H3NS-
123.0022	2	C5H3N2S-
135.0023	2	C6H3N2S-
150.9971	16	C6H3N2OS-
154.9922	3	C5H3N2O2S-
155.9999	51	C5H4N2O2S-
169.0202	6	C7H7NO2S-
170.0721	1	C10H8N3-
181.0647	17	C11H7N3-
181.077	17	C4H13N4O2S-
182.0725	6	C11H8N3-
183.0926	17	C4H15N4O2S-
192.0572	1	C6H12N2O3S-
194.0724	12	C12H8N3-
195.0801	138	C12H9N3-
196.088	180	C12H10N3-
198.1036	48	C12H12N3-
199.0332	3	C11H7N2S-
199.0878	1	C12H11N2O-
210.0672	14	C12H8N3O-
224.0287	2	C12H6N3S-
226.0444	26	C12H8N3S-
227.0523	5	C12H9N3S-
243.0469	6	C12H9N3OS-
244.0549	38	C12H10N3OS-
262.0655	999	C12H12N3O2S-
