Mass spectrum: Fluazifop; LC-ESI-ITFT; MS2; CE: 90%; R=30000; [M-H]-
Name: Fluazifop
Name: 2-[4-[5-(trifluoromethyl)pyridin-2-yl]oxyphenoxy]propanoic acid
Formula: C15H12F3NO4
Exact mass: 327.0724
SMILES: CC(C(=O)O)OC1=CC=C(C=C1)OC2=NC=C(C=C2)C(F)(F)F
InChI: InChI=1S/C15H12F3NO4/c1-9(14(20)21)22-11-3-5-12(6-4-11)23-13-7-2-10(8-19-13)15(16,17)18/h2-9H,1H3,(H,20,21)
Instrument: LTQ Orbitrap XL Thermo Scientific
Instrument type: LC-ESI-ITFT
Ms type: MS2
Ion mode: NEGATIVE
Ionization: ESI
Fragmentation mode: HCD
Collision energy: 90 % (nominal)
Resolution: 30000
Column name: XBridge C18 3.5um, 2.1x50mm, Waters
Retention time: 10.8 min
Base peak: 326.0639
Precursor m/z: 326.0646
Precursor type: [M-H]-
m/z	relative intensity	assigned
108.0215	999	C6H4O2-
138.0346	77	C10H4N-
142.0111	80	C6H2F2NO-
158.041	143	C10H5FN-
162.0171	343	C6H3F3NO-
164.0315	79	C9H4F2N-
166.0293	59	C11H4NO-
178.0469	86	C10H6F2N-
184.0376	34	C9H5F3N-
186.036	65	C11H5FNO-
206.0422	131	C11H6F2NO-
226.0474	46	C14H6F2N-
253.0354	54	C12H6F3NO2-
254.0292	78	C14H4F2N2O-
