Mass spectrum: Vinclozolin; LC-ESI-QFT; MS2; CE: 15; R=35000; [M+H]+
Name: Vinclozolin
Name: 3-(3,5-dichlorophenyl)-5-ethenyl-5-methyl-1,3-oxazolidine-2,4-dione
Formula: C12H9Cl2NO3
Exact mass: 284.99595
SMILES: O=C2OC(C(=O)N2c1cc(Cl)cc(Cl)c1)(\C=C)C
InChI: InChI=1S/C12H9Cl2NO3/c1-3-12(2)10(16)15(11(17)18-12)9-5-7(13)4-8(14)6-9/h3-6H,1H2,2H3
Instrument: Q Exactive Orbitrap Thermo Scientific
Instrument type: LC-ESI-QFT
Ms type: MS2
Ion mode: POSITIVE
Ionization: ESI
Fragmentation mode: HCD
Collision energy: 15 (nominal)
Resolution: 35000
Column name: XBridge C18 3.5um, 2.1x50mm, Waters
Retention time: 12.2 min
Base peak: 205.9771
Precursor m/z: 286.0032
Precursor type: [M+H]+
m/z	relative intensity	assigned
61.0285	1	C2H5O2+
81.0335	1	C5H5O+
164.0259	7	C9H7ClN+
178.0418	9	C10H9ClN+
179.0496	15	C10H10ClN+
196.9921	1	C10H7Cl2+
197.9871	1	C9H6Cl2N+
199.9662	1	C8H4Cl2NO+
204.0212	11	C11H7ClNO+
206.0366	4	C11H9ClNO+
207.0446	7	C11H10ClNO+
208.0162	1	C10H7ClNO2+
212.0028	25	C10H8Cl2N+
214.0184	243	C10H10Cl2N+
217.9769	114	C8H6Cl2NO2+
222.0316	6	C11H9ClNO2+
223.0393	26	C11H10ClNO2+
224.0026	13	C11H8Cl2N+
225.9823	1	C10H6Cl2NO+
229.977	1	C9H6Cl2NO2+
239.9976	62	C11H8Cl2NO+
242.0132	53	C11H10Cl2NO+
243.9925	3	C10H8Cl2NO2+
250.0266	9	C12H9ClNO3+
251.0346	4	C12H10ClNO3+
258.0083	41	C11H10Cl2NO2+
267.9925	65	C12H8Cl2NO2+
286.003	999	C12H10Cl2NO3+
