Mass spectrum: TCMTB (Busan); LC-ESI-QFT; MS2; CE: 90%; R=17500; [M+H]+
Name: TCMTB (Busan)
Name: 2-(Thiocyanomethylthio)benzothiazole
Name: 1,3-benzothiazol-2-ylsulfanylmethyl thiocyanate
Formula: C9H6N2S3
Exact mass: 237.9693
SMILES: C1=CC=C2C(=C1)N=C(S2)SCSC#N
InChI: InChI=1S/C9H6N2S3/c10-5-12-6-13-9-11-7-3-1-2-4-8(7)14-9/h1-4H,6H2
Instrument: Exploris 240 Orbitrap Thermo Scientific
Instrument type: LC-ESI-QFT
Ms type: MS2
Ion mode: POSITIVE
Ionization: ESI
Fragmentation mode: HCD
Collision energy: 90 % (nominal)
Resolution: 17500
Column name: XBridge C18 3.5um, 2.1x50mm, Waters
Retention time: 8.597 min
Base peak: 238.9763
Precursor m/z: 238.9766
Precursor type: [M+H]+
m/z	relative intensity	assigned
53.0386	8	C4H5+
65.0385	7	C5H5+
71.9902	73	C2H2NS+
77.0385	61	C6H5+
78.0464	8	C6H6+
89.0385	23	C7H5+
91.0414	12	C6H5N+
104.0494	11	C7H6N+
105.0449	21	C6H5N2+
109.0106	225	C6H5S+
116.0494	84	C8H6N+
121.0104	11	C7H5S+
122.0184	17	C7H6S+
123.0135	15	C6H5NS+
135.0138	6	C7H5NS+
136.0214	999	C7H6NS+
148.0219	10	C8H6NS+
152.9826	10	C7H5S2+
166.9856	78	C7H5NS2+
179.9936	53	C8H6NS2+
