Mass spectrum: Brodifacoum; LC-ESI-QFT; MS2; CE: 30%; R=17500; [M-H]-
Name: Brodifacoum
Name: 3-[3-[4-(4-bromophenyl)phenyl]-1,2,3,4-tetrahydronaphthalen-1-yl]-4-hydroxychromen-2-one
Formula: C31H23BrO3
Exact mass: 522.0831
SMILES: C1C(CC2=CC=CC=C2C1C3=C(C4=CC=CC=C4OC3=O)O)C5=CC=C(C=C5)C6=CC=C(C=C6)Br
InChI: InChI=1S/C31H23BrO3/c32-24-15-13-20(14-16-24)19-9-11-21(12-10-19)23-17-22-5-1-2-6-25(22)27(18-23)29-30(33)26-7-3-4-8-28(26)35-31(29)34/h1-16,23,27,33H,17-18H2
Instrument: Exploris 240 Orbitrap Thermo Scientific
Instrument type: LC-ESI-QFT
Ms type: MS2
Ion mode: NEGATIVE
Ionization: ESI
Fragmentation mode: HCD
Collision energy: 30 % (nominal)
Resolution: 17500
Column name: XBridge C18 3.5um, 2.1x50mm, Waters
Retention time: 16.514 min
Base peak: 521.0756
Precursor m/z: 521.0758
Precursor type: [M-H]-
m/z	relative intensity	assigned
78.9189	23	Br-
93.0347	2	C6H5O-
135.0451	9	C8H7O2-
187.0402	4	C11H7O3-
219.081	1	C16H11O-
371.045	3	C23H16Br-
521.0759	999	C31H22BrO3-
