Mass spectrum: Sulcotrione; LC-ESI-ITFT; MS2; CE: 60%; R=7500; [M+H]+
Name: Sulcotrione
Name: 2-(2-chloranyl-4-methylsulfonyl-phenyl)carbonylcyclohexane-1,3-dione
Formula: C14H13ClO5S
Exact mass: 328.0167
SMILES: O=C1CCCC(=O)C1C(=O)c1ccc(S(=O)(=O)C)cc1Cl
InChI: InChI=1S/C14H13ClO5S/c1-21(19,20)8-5-6-9(10(15)7-8)14(18)13-11(16)3-2-4-12(13)17/h5-7,13H,2-4H2,1H3
Instrument: LTQ Orbitrap XL Thermo Scientific
Instrument type: LC-ESI-ITFT
Ms type: MS2
Ion mode: POSITIVE
Ionization: ESI
Fragmentation mode: HCD
Collision energy: 60 % (nominal)
Resolution: 7500
Column name: XBridge C18 3.5um, 2.1x50mm, Waters
Retention time: 6.8 min
Base peak: 351.0066
Precursor m/z: 329.0245
Precursor type: [M+H]+
m/z	relative intensity	assigned
55.0179	13	C3H3O+
68.9971	687	C3HO2+
78.9852	9	CH3O2S+
97.0284	28	C5H5O2+
111.0441	999	C6H7O2+
139.039	467	C7H7O3+
157.0496	103	C7H9O4+
178.9896	11	C9H4ClO2+
202.0628	18	C12H10O3+
214.0625	68	C13H10O3+
240.9722	60	C10H6ClO3S+
246.052	35	C13H10O5+
249.0311	19	C13H10ClO3+
293.0486	31	C14H13O5S+
