Mass spectrum: Tributylphosphine oxide; LC-ESI-QFT; MS2; CE: 150; R=35000; [M+H]+
Name: Tributylphosphine oxide
Name: Tri-n-butylphosphine oxide
Formula: C12H27OP
Exact mass: 218.17995
SMILES: CCCCP(=O)(CCCC)CCCC
InChI: InChI=1S/C12H27OP/c1-4-7-10-14(13,11-8-5-2)12-9-6-3/h4-12H2,1-3H3
Instrument: Q Exactive Plus Orbitrap Thermo Scientific
Instrument type: LC-ESI-QFT
Ms type: MS2
Ion mode: POSITIVE
Ionization: ESI
Fragmentation mode: HCD
Collision energy: 150 (nominal)
Resolution: 35000
Column name: XBridge C18 3.5um, 2.1x50mm, Waters
Retention time: 11.0 min
Base peak: 219.1869
Precursor m/z: 219.1872
Precursor type: [M+H]+
m/z	relative intensity	assigned
50.9994	2	H4OP+
53.0022	10	C3HO+
53.9975	4	C2NO+
55.0543	11	C4H7+
56.9889	36	C2H2P+
57.0699	5	C4H9+
59.0045	26	C2H4P+
61.0202	15	C2H6P+
61.9916	2	CH3OP+
62.9994	999	CH4OP+
64.0073	69	CH5OP+
64.9786	3	H2O2P+
65.0151	3	CH6OP+
67.9893	3	C3O2+
71.0045	2	C3H4P+
72.0123	2	C3H5P+
73.0201	3	C3H6P+
74.9994	9	C2H4OP+
77.015	173	C2H6OP+
78.0229	116	C2H7OP+
78.9944	8	CH4O2P+
79.0307	2	C2H8OP+
81.01	6	CH6O2P+
91.0308	17	C3H8OP+
92.0386	32	C3H9OP+
93.01	23	C2H6O2P+
95.0257	194	C2H8O2P+
105.0464	9	C4H10OP+
109.0414	2	C3H10O2P+
133.0778	2	C6H14OP+
147.0934	1	C7H16OP+
