Mass spectrum: Thiacloprid; LC-ESI-ITFT; MS2; CE: 45%; R=7500; [M+H]+
Name: Thiacloprid
Name: (Z)-[3-[(6-Chloro-3-pyridinyl)methyl]-2-thiazolidinylidene]cyanamide
Name: Calypso
Formula: C10H9ClN4S
Exact mass: 252.0236
SMILES: C1CSC(=NC#N)N1CC2=CN=C(C=C2)Cl
InChI: InChI=1S/C10H9ClN4S/c11-9-2-1-8(5-13-9)6-15-3-4-16-10(15)14-7-12/h1-2,5H,3-4,6H2
Instrument: LTQ Orbitrap XL Thermo Scientific
Instrument type: LC-ESI-ITFT
Ms type: MS2
Ion mode: POSITIVE
Ionization: ESI
Fragmentation mode: HCD
Collision energy: 45 % (nominal)
Resolution: 7500
Column name: XBridge C18 3.5um, 2.1x50mm, Waters
Retention time: 5.8 min
Base peak: 253.0312
Precursor m/z: 253.0309
Precursor type: [M+H]+
m/z	relative intensity	assigned
90.0337	4	C6H4N+
99	1	C5H4Cl+
126.0105	999	C6H5ClN+
144.0212	2	C2H4N6S+
151.0057	4	C7H4ClN2+
157.0504	1	C8H5N4+
186.0137	12	C8H9ClNS+
190.0439	1	C9H8N3S+
194.0485	1	C9H9ClN3+
211.0094	3	C9H8ClN2S+
217.0543	3	C10H9N4S+
226.0202	5	C9H9ClN3S+
236.0041	3	C10H7ClN3S+
253.0307	60	C10H10ClN4S+
