Mass spectrum: Levamisole; LC-ESI-ITFT; MS2; CE: 90%; R=30000; [M+H]+
Name: Levamisole
Name: (6S)-6-phenyl-2,3,5,6-tetrahydroimidazo[2,1-b][1,3]thiazole
Formula: C11H12N2S
Exact mass: 204.0721
SMILES: c1([C@H]2CN3CCSC3=N2)ccccc1
InChI: InChI=1S/C11H12N2S/c1-2-4-9(5-3-1)10-8-13-6-7-14-11(13)12-10/h1-5,10H,6-8H2/t10-/m1/s1
Instrument: LTQ Orbitrap XL Thermo Scientific
Instrument type: LC-ESI-ITFT
Ms type: MS2
Ion mode: POSITIVE
Ionization: ESI
Fragmentation mode: HCD
Collision energy: 90 % (nominal)
Resolution: 30000
Column name: XBridge C18 3.5um, 2.1x50mm, Waters
Retention time: 2.9 min
Base peak: 205.0801
Precursor m/z: 205.0794
Precursor type: [M+H]+
m/z	relative intensity	assigned
58.995	13	C2H3S+
59.9902	7	CH2NS+
61.0106	52	C2H5S+
74.0059	18	C2H4NS+
77.0386	26	C6H5+
79.0543	60	C6H7+
86.0059	31	C3H4NS+
88.0216	46	C3H6NS+
91.0543	927	C7H7+
103.0324	11	C3H7N2S+
103.0542	170	C8H7+
104.0495	18	C7H6N+
104.062	40	C8H8+
105.0699	236	C8H9+
106.0651	16	C7H8N+
115.0542	99	C9H7+
117.0573	158	C8H7N+
117.0699	257	C9H9+
118.0652	281	C8H8N+
119.0729	17	C8H9N+
119.0855	32	C9H11+
120.0808	18	C8H10N+
123.0263	725	C7H7S+
127.0323	7	C5H7N2S+
128.0495	30	C9H6N+
128.0621	172	C10H8+
129.0699	227	C10H9+
130.0651	143	C9H8N+
131.073	118	C9H9N+
132.0808	88	C9H10N+
135.0263	72	C8H7S+
144.0808	95	C10H10N+
145.076	28	C9H9N2+
145.0887	6	C10H11N+
146.0601	15	C9H8NO+
146.0965	113	C10H12N+
148.0216	19	C8H6NS+
150.0372	75	C8H8NS+
155.0604	67	C10H7N2+
178.0686	999	C10H12NS+
188.0526	22	C11H10NS+
205.0793	236	C11H13N2S+
