Mass spectrum: Rosuvastatin; LC-ESI-ITFT; MS2; CE: 30%; R=7500; [M+H]+
Name: Rosuvastatin
Name: (E,3R,5S)-7-[4-(4-fluorophenyl)-2-[methyl(methylsulfonyl)amino]-6-propan-2-ylpyrimidin-5-yl]-3,5-dihydroxyhept-6-enoic acid
Formula: C22H28FN3O6S
Exact mass: 481.16828
SMILES: CC(C)C1=NC(=NC(=C1/C=C/[C@H](C[C@H](CC(=O)O)O)O)C2=CC=C(C=C2)F)N(C)S(=O)(=O)C
InChI: InChI=1S/C22H28FN3O6S/c1-13(2)20-18(10-9-16(27)11-17(28)12-19(29)30)21(14-5-7-15(23)8-6-14)25-22(24-20)26(3)33(4,31)32/h5-10,13,16-17,27-28H,11-12H2,1-4H3,(H,29,30)/b10-9+/t16-,17-/m1/s1
Instrument: LTQ Orbitrap XL Thermo Scientific
Instrument type: LC-ESI-ITFT
Ms type: MS2
Ion mode: POSITIVE
Ionization: ESI
Fragmentation mode: HCD
Collision energy: 30 % (nominal)
Resolution: 7500
Column name: XBridge C18 3.5um, 2.1x50mm, Waters
Retention time: 9.2 min
Base peak: 482.1762
Precursor m/z: 482.1756
Precursor type: [M+H]+
m/z	relative intensity	assigned
217.1	15	C12H12FN3+
257.1318	17	C12H21N2O2S+
258.1399	137	C12H22N2O2S+
270.14	58	C16H17FN3+
271.1465	17	C13H23N2O2S+
272.1556	63	C16H19FN3+
282.1388	12	C14H22N2O2S+
300.1504	44	C17H19FN3O+
376.1485	29	C19H23FN3O2S+
385.1788	14	C18H29N2O5S+
402.1638	9	C21H25FN3O2S+
404.1981	30	C21H27FN3O4+
422.1542	33	C20H25FN3O4S+
446.1544	30	C22H25FN3O4S+
482.1751	999	C22H29FN3O6S+
