Mass spectrum: Phenylbutazone; LC-ESI-QFT; MS2; CE: 75; R=35000; [M+H]+
Name: Phenylbutazone
Name: 4-butyl-1,2-diphenylpyrazolidine-3,5-dione
Formula: C19H20N2O2
Exact mass: 308.15248
SMILES: CCCCC1C(=O)N(N(C1=O)C2=CC=CC=C2)C3=CC=CC=C3
InChI: InChI=1S/C19H20N2O2/c1-2-3-14-17-18(22)20(15-10-6-4-7-11-15)21(19(17)23)16-12-8-5-9-13-16/h4-13,17H,2-3,14H2,1H3
Instrument: Q Exactive Plus Orbitrap Thermo Scientific
Instrument type: LC-ESI-QFT
Ms type: MS2
Ion mode: POSITIVE
Ionization: ESI
Fragmentation mode: HCD
Collision energy: 75 (nominal)
Resolution: 35000
Column name: XBridge C18 3.5um, 2.1x50mm, Waters
Retention time: 11.3 min
Base peak: 309.1591
Precursor m/z: 309.1598
Precursor type: [M+H]+
m/z	relative intensity	assigned
50.0151	11	C4H2+
51.0229	10	C4H3+
53.0022	16	C3HO+
53.0386	152	C4H5+
53.9975	3	C2NO+
54.0338	3	C3H4N+
55.0179	152	C3H3O+
55.0543	33	C4H7+
56.0495	6	C3H6N+
57.0699	36	C4H9+
63.0229	1	C5H3+
65.0386	824	C5H5+
66.0464	10	C5H6+
67.0542	35	C5H7+
67.9893	5	C3O2+
68.013	6	C3H2NO+
68.0496	1	C4H6N+
68.997	3	C3HO2+
69.0335	5	C4H5O+
69.0699	75	C5H9+
77.0386	338	C6H5+
78.0339	1	C5H4N+
78.0464	6	C6H6+
79.0542	47	C6H7+
80.0494	5	C5H6N+
80.062	1	C6H8+
81.0335	21	C5H5O+
81.0699	1	C6H9+
82.0651	5	C5H8N+
83.0491	6	C5H7O+
89.0386	1	C7H5+
90.0465	5	C7H6+
91.0417	3	C6H5N+
91.0543	32	C7H7+
92.0495	999	C6H6N+
93.0336	95	C6H5O+
93.0574	170	C6H7N+
94.0414	76	C6H6O+
94.0652	456	C6H8N+
95.0492	508	C6H7O+
96.0446	1	C5H6NO+
96.0808	7	C6H10N+
97.0649	10	C6H9O+
103.0543	9	C8H7+
104.0495	232	C7H6N+
105.0336	48	C7H5O+
105.0448	340	C6H5N2+
106.0288	15	C6H4NO+
106.0652	279	C7H8N+
107.0491	10	C7H7O+
108.0443	1	C6H6NO+
109.0649	1	C7H9O+
110.06	1	C6H8NO+
111.0441	30	C6H7O2+
115.0542	10	C9H7+
116.0494	8	C8H6N+
116.0622	1	C9H8+
117.0573	45	C8H7N+
117.0699	6	C9H9+
118.0652	75	C8H8N+
119.0366	3	C7H5NO+
119.0731	19	C8H9N+
120.0445	176	C7H6NO+
120.0808	18	C8H10N+
124.0757	1	C7H10NO+
125.0599	1	C7H9O2+
128.0495	28	C9H6N+
128.0619	5	C10H8+
129.0701	1	C10H9+
130.0652	89	C9H8N+
131.0605	8	C8H7N2+
131.073	15	C9H9N+
132.0445	189	C8H6NO+
132.0808	24	C9H10N+
133.0398	24	C7H5N2O+
133.0523	207	C8H7NO+
134.0475	7	C7H6N2O+
134.0601	25	C8H8NO+
134.0965	3	C9H12N+
135.0551	4	C7H7N2O+
135.0678	1	C8H9NO+
139.0542	1	C11H7+
140.0495	1	C10H6N+
141.0699	3	C11H9+
143.0731	12	C10H9N+
144.0447	9	C9H6NO+
144.0809	17	C10H10N+
145.0761	3	C9H9N2+
145.0886	13	C10H11N+
146.0601	118	C9H8NO+
147.068	3	C9H9NO+
148.0756	3	C9H10NO+
148.112	5	C10H14N+
154.0647	1	C11H8N+
155.0601	2	C10H7N2+
155.073	1	C11H9N+
156.0446	3	C10H6NO+
156.0808	6	C11H10N+
157.0649	1	C11H9O+
158.0601	6	C10H8NO+
158.0959	1	C11H12N+
159.068	9	C10H9NO+
160.0757	3	C10H10NO+
160.1122	54	C11H14N+
162.0551	13	C9H8NO2+
162.1278	5	C11H16N+
164.0706	1	C9H10NO2+
166.0652	48	C12H8N+
167.073	23	C12H9N+
168.0809	17	C12H10N+
169.0648	1	C12H9O+
169.0761	1	C11H9N2+
169.089	8	C12H11N+
170.0601	1	C11H8NO+
170.0963	1	C12H12N+
172.0759	1	C11H10NO+
172.1122	1	C12H14N+
173.0712	1	C10H9N2O+
173.0836	3	C11H11NO+
174.055	17	C10H8NO2+
180.0807	6	C13H10N+
181.0761	6	C12H9N2+
182.084	82	C12H10N2+
183.0679	3	C12H9NO+
183.0917	6	C12H11N2+
184.0754	5	C12H10NO+
188.1072	5	C12H14NO+
190.1225	3	C12H16NO+
192.0684	1	C13H8N2+
194.0603	14	C13H8NO+
195.0918	3	C13H11N2+
206.084	7	C14H10N2+
207.0919	27	C14H11N2+
208.0758	1	C14H10NO+
208.0998	7	C14H12N2+
210.0789	4	C13H10N2O+
211.0867	16	C13H11N2O+
219.0918	3	C15H11N2+
221.1075	3	C15H13N2+
233.1077	5	C16H13N2+
234.0788	1	C15H10N2O+
247.0861	1	C16H11N2O+
