Mass spectrum: Tenofovir; LC-ESI-QFT; MS2; CE: 90; R=35000; [M+H]+
Name: Tenofovir
Name: [(1R)-2-adenin-9-yl-1-methyl-ethoxy]methylphosphonic acid
Formula: C9H14N5O4P
Exact mass: 287.07834
SMILES: O=P(O)(O)CO[C@H](C)Cn1c2ncnc(c2nc1)N
InChI: InChI=1S/C9H14N5O4P/c1-6(18-5-19(15,16)17)2-14-4-13-7-8(10)11-3-12-9(7)14/h3-4,6H,2,5H2,1H3,(H2,10,11,12)(H2,15,16,17)/t6-/m1/s1
Instrument: Q Exactive Orbitrap Thermo Scientific
Instrument type: LC-ESI-QFT
Ms type: MS2
Ion mode: POSITIVE
Ionization: ESI
Fragmentation mode: HCD
Collision energy: 90 (nominal)
Resolution: 35000
Column name: XBridge C18 3.5um, 2.1x50mm, Waters
Retention time: 1.0 min
Base peak: 157.0352
Precursor m/z: 288.0856
Precursor type: [M+H]+
m/z	relative intensity	assigned
53.0023	14	C3HO+
55.0291	13	C2H3N2+
58.0652	10	C3H8N+
59.0492	301	C3H7O+
64.9787	445	H2O2P+
67.0291	21	C3H3N2+
68.0495	59	C4H6N+
71.0491	16	C4H7O+
78.0338	20	C5H4N+
80.0495	23	C5H6N+
82.04	96	C3H4N3+
82.9892	55	H4O3P+
87.044	3	C4H7O2+
92.0242	32	C4H2N3+
94.04	60	C4H4N3+
94.9891	3	CH4O3P+
95.0604	31	C5H7N2+
95.9972	12	CH5O3P+
96.0444	14	
97.0049	8	CH6O3P+
104.0244	19	C5H2N3+
105.01	19	C3H6O2P+
105.0448	158	C6H5N2+
106.04	10	C5H4N3+
107.0603	27	C6H7N2+
108.0431	88	C4H4N4+
108.0556	12	C5H6N3+
109.0509	82	C4H5N4+
112.0505	10	C4H6N3O+
112.9998	135	CH6O4P+
119.0353	238	C5H3N4+
121.0509	74	C5H5N4+
122.0712	59	C6H8N3+
125.0708	13	C6H9N2O+
131.0353	74	C6H3N4+
132.0557	313	C7H6N3+
133.0508	27	C6H5N4+
134.0587	38	C6H6N4+
134.0713	50	C7H8N3+
135.054	254	C5H5N5+
136.0618	933	C5H6N5+
137.0458	198	C5H5N4O+
148.0618	187	C6H6N5+
149.0459	312	C6H5N4O+
149.0695	17	C6H7N5+
149.0822	166	C7H9N4+
150.0663	34	C7H8N3O+
152.0818	40	C7H10N3O+
158.0585	2	C8H6N4+
159.0666	999	C8H7N4+
161.0696	48	C7H7N5+
162.0774	31	C7H8N5+
166.0726	3	C6H8N5O+
174.0776	11	C8H8N5+
176.0931	921	C8H10N5+
177.0771	399	C8H9N4O+
182.0227	8	C5H5N5OP+
188.0927	2	C9H10N5+
192.0879	19	C8H10N5O+
206.1036	3	C9H12N5O+
212.0336	3	C6H7N5O2P+
240.0644	16	C8H11N5O2P+
