Mass spectrum: Triclabendazole; LC-ESI-QFT; MS2; CE: 60; R=35000; [M+H]+
Name: Triclabendazole
Name: Triclabendazol
Name: 6-chloro-5-(2,3-dichlorophenoxy)-2-methylsulfanyl-1H-benzimidazole
Formula: C14H9Cl3N2OS
Exact mass: 357.95012
SMILES: CSc1[nH]c2cc(c(cc2n1)Oc3cccc(c3Cl)Cl)Cl
InChI: InChI=1S/C14H9Cl3N2OS/c1-21-14-18-9-5-8(16)12(6-10(9)19-14)20-11-4-2-3-7(15)13(11)17/h2-6H,1H3,(H,18,19)
Instrument: Q Exactive Plus Orbitrap Thermo Scientific
Instrument type: LC-ESI-QFT
Ms type: MS2
Ion mode: POSITIVE
Ionization: ESI
Fragmentation mode: HCD
Collision energy: 60 (nominal)
Resolution: 35000
Column name: XBridge C18 3.5um, 2.1x50mm, Waters
Retention time: 14.2 min
Base peak: 360.954
Precursor m/z: 358.9574
Precursor type: [M+H]+
m/z	relative intensity	assigned
139.0055	1	C6H4ClN2+
152.0137	1	C7H5ClN2+
153.0215	1	C7H6ClN2+
155.9668	1	C6H3ClNS+
163.0324	36	C8H7N2S+
165.0214	114	C8H6ClN2+
166.0291	1	C8H7ClN2+
167.0009	2	C7H4ClN2O+
170.9777	27	C9HNOS+
182.9778	10	C7H4ClN2S+
186.9725	1	C6H4ClN2OS+
196.9934	24	C8H6ClN2S+
198.0013	70	C8H7ClN2S+
198.9727	187	C7H4ClN2OS+
213.9957	3	C8H7ClN2OS+
222.9947	1	C14H4ClO+
229.9912	15	C8H7ClN2O2S+
239.027	2	C13H7N2OS+
242.024	61	C13H7ClN2O+
244.9933	2	C12H6ClN2S+
245.9772	1	C12H5ClNOS+
246.0019	3	C12H7ClN2S+
248.9974	2	C12H7Cl2N2+
249.9821	5	C12H6Cl2NO+
250.9899	117	C12H7Cl2NO+
255.0317	1	C14H8ClN2O+
256.0396	1	C14H9ClN2O+
257.9645	1	C11H7Cl3N+
272.9883	38	C13H6ClN2OS+
273.9961	999	C13H7ClN2OS+
275.9851	36	C13H6Cl2N2O+
276.9929	66	C13H7Cl2N2O+
280.97	26	C12H7Cl2N2S+
291.0086	10	C14H9Cl2N2O+
307.9572	31	C13H6Cl2N2OS+
308.965	124	C13H7Cl2N2OS+
311.9612	2	C13H7Cl3N2O+
343.9339	327	C13H7Cl3N2OS+
358.9573	15	C14H10Cl3N2OS+
