Mass spectrum: Methylprednisolone; LC-ESI-ITFT; MS2; CE: 30%; R=15000; [M+H]+
Name: Methylprednisolone
Name: (6alpha,11beta)-11,17,21-trihydroxy-6-methylpregna-1,4-diene-3,20-dione
Name: (6S,8S,9S,10R,11S,13S,14S,17R)-11,17-dihydroxy-17-(2-hydroxy-1-oxoethyl)-6,10,13-trimethyl-7,8,9,11,12,14,15,16-octahydro-6H-cyclopenta[a]phenanthren-3-one
Formula: C22H30O5
Exact mass: 374.2093
SMILES: [H][C@@]12CC[C@](O)(C(=O)CO)[C@@]1(C)C[C@H](O)[C@@]3([H])[C@@]2([H])C[C@]([H])(C)C4=CC(=O)C=C[C@]34C
InChI: InChI=1S/C22H30O5/c1-12-8-14-15-5-7-22(27,18(26)11-23)21(15,3)10-17(25)19(14)20(2)6-4-13(24)9-16(12)20/h4,6,9,12,14-15,17,19,23,25,27H,5,7-8,10-11H2,1-3H3/t12-,14-,15-,17-,19+,20-,21-,22-/m0/s1
Instrument: LTQ Orbitrap XL Thermo Scientific
Instrument type: LC-ESI-ITFT
Ms type: MS2
Ion mode: POSITIVE
Ionization: ESI
Fragmentation mode: HCD
Collision energy: 30 % (nominal)
Resolution: 15000
Column name: XBridge C18 3.5um, 2.1x50mm, Waters
Retention time: 9.2 min
Base peak: 375.2176
Precursor m/z: 375.2166
Precursor type: [M+H]+
m/z	relative intensity	assigned
121.0644	157	C8H9O+
135.0803	588	C9H11O+
147.0803	138	C10H11O+
159.0807	110	C11H11O+
161.096	999	C11H13O+
173.0957	158	C12H13O+
175.1113	100	C12H15O+
185.0961	487	C13H13O+
187.1119	500	C13H15O+
211.1119	216	C15H15O+
213.1269	94	C15H17O+
237.1277	191	C17H17O+
251.1431	320	C18H19O+
253.1583	822	C18H21O+
277.1586	152	C20H21O+
279.1742	369	C20H23O+
280.1814	298	C20H24O+
281.1891	138	C20H25O+
293.1891	150	C21H25O+
297.1484	95	C19H21O3+
303.1741	320	C22H23O+
321.185	463	C22H25O2+
339.1955	394	C22H27O3+
357.2058	572	C22H29O4+
