Mass spectrum: Cyprodinil-TP CGA 249287; LC-ESI-QFT; MS2; CE: 150%; R=17500; [M+H]+
Name: Cyprodinil-TP CGA 249287
Name: 4-Cyclopropyl-6-methyl-2-pyrimidinamine
Name: 4-cyclopropyl-6-methylpyrimidin-2-amine
Formula: C8H11N3
Exact mass: 149.0953
SMILES: CC1=NC(N)=NC(=C1)C1CC1
InChI: InChI=1S/C8H11N3/c1-5-4-7(6-2-3-6)11-8(9)10-5/h4,6H,2-3H2,1H3,(H2,9,10,11)
Instrument: Q Exactive Plus Orbitrap Thermo Scientific
Instrument type: LC-ESI-QFT
Ms type: MS2
Ion mode: POSITIVE
Ionization: ESI
Fragmentation mode: HCD
Collision energy: 150 % (nominal)
Resolution: 17500
Column name: XBridge C18 3.5um, 2.1x50mm, Waters
Retention time: 2.394 min
Base peak: 150.1026
Precursor m/z: 150.1026
Precursor type: [M+H]+
m/z	relative intensity	assigned
50.015	9	C4H2+
51.023	80	C4H3+
52.0182	17	C3H2N+
53.0023	30	
53.0386	120	C4H5+
54.0338	26	C3H4N+
54.0464	14	C4H6+
55.0291	31	C2H3N2+
56.0495	7	C3H6N+
63.0229	118	C5H3+
64.0182	25	C4H2N+
64.0308	66	C5H4+
65.0261	14	
65.0386	553	C5H5+
66.0338	49	C4H4N+
66.0464	158	C5H6+
67.0291	999	C3H3N2+
67.0416	140	C4H5N+
67.054	15	
67.9893	11	
68.0494	48	C4H6N+
69.0449	14	C3H5N2+
77.0386	88	C6H5+
78.0338	59	C5H4N+
79.0542	111	C6H7+
80.0495	100	C5H6N+
81.0573	31	C5H7N+
81.0698	13	C6H9+
82.0526	13	C4H6N2+
83.0602	12	C4H7N2+
89.0385	87	C7H5+
90.0339	27	C6H4N+
91.0417	263	C6H5N+
91.0542	97	C7H7+
92.037	17	C5H4N2+
92.0496	105	C6H6N+
93.0449	21	C5H5N2+
93.0574	403	C6H7N+
95.0492	175	
95.0601	49	C5H7N2+
96.0443	52	
96.0682	15	C5H8N2+
104.0495	57	C7H6N+
105.0447	94	C6H5N2+
106.0651	47	C7H8N+
108.0809	12	C7H10N+
109.0519	10	
117.0447	30	C7H5N2+
118.0525	213	C7H6N2+
131.0605	156	C8H7N2+
132.0684	18	C8H8N2+
134.0713	7	C7H8N3+
