Mass spectrum: Bromuconazole; LC-ESI-QFT; MS2; CE: 75; R=35000; [M+H]+
Name: Bromuconazole
Name: 1-[[4-bromo-2-(2,4-dichlorophenyl)oxolan-2-yl]methyl]-1,2,4-triazole
Formula: C13H12BrCl2N3O
Exact mass: 374.95408
SMILES: C1C(COC1(CN2C=NC=N2)C3=C(C=C(C=C3)Cl)Cl)Br
InChI: InChI=1S/C13H12BrCl2N3O/c14-9-4-13(20-5-9,6-19-8-17-7-18-19)11-2-1-10(15)3-12(11)16/h1-3,7-9H,4-6H2
Instrument: Q Exactive Plus Orbitrap Thermo Scientific
Instrument type: LC-ESI-QFT
Ms type: MS2
Ion mode: POSITIVE
Ionization: ESI
Fragmentation mode: HCD
Collision energy: 75 (nominal)
Resolution: 35000
Column name: XBridge C18 3.5um, 2.1x50mm, Waters
Retention time: 10.9 min
Base peak: 377.9586
Precursor m/z: 375.9614
Precursor type: [M+H]+
m/z	relative intensity	assigned
70.04	169	C2H4N3+
72.9838	1	C3H2Cl+
84.984	2	C4H2Cl+
86.9633	1	C3ClO+
89.0386	6	C7H5+
98.9997	9	C5H4Cl+
108.9839	2	C6H2Cl+
115.0545	1	C9H7+
118.9493	2	C3H4Br+
122.9997	59	C7H4Cl+
124.0076	15	C7H5Cl+
126.9945	1	C6H4ClO+
128.0024	2	C6H5ClO+
128.0623	3	C10H8+
129.07	16	C10H9+
132.9607	6	C5H3Cl2+
144.9606	2	C6H3Cl2+
149.0157	1	C9H6Cl+
150.023	2	C9H7Cl+
155.061	1	C10H7N2+
158.9764	999	C7H5Cl2+
162.0232	7	C10H7Cl+
162.971	2	C6H5Cl2O+
163.0304	1	C10H8Cl+
164.0386	3	C10H9Cl+
172.9558	60	C7H3Cl2O+
172.967	34	C6H3Cl2N2+
175.0312	1	C11H8Cl+
182.9758	1	C9H5Cl2+
