Mass spectrum: Dienogest; LC-ESI-QFT; MS2; CE: 15; R=35000; [M+H]+
Name: Dienogest
Name: 2-[(8S,13S,14S,17R)-17-hydroxy-13-methyl-3-oxo-1,2,6,7,8,11,12,14,15,16-decahydrocyclopenta[a]phenanthren-17-yl]acetonitrile
Formula: C20H25NO2
Exact mass: 311.18853
SMILES: C[C@]12CCC3=C4CCC(=O)C=C4CC[C@H]3[C@@H]1CC[C@]2(CC#N)O
InChI: InChI=1S/C20H25NO2/c1-19-8-6-16-15-5-3-14(22)12-13(15)2-4-17(16)18(19)7-9-20(19,23)10-11-21/h12,17-18,23H,2-10H2,1H3/t17-,18+,19+,20-/m1/s1
Instrument: Q Exactive Orbitrap Thermo Scientific
Instrument type: LC-ESI-QFT
Ms type: MS2
Ion mode: POSITIVE
Ionization: ESI
Fragmentation mode: HCD
Collision energy: 15 (nominal)
Resolution: 35000
Column name: XBridge C18 3.5um, 2.1x50mm, Waters
Retention time: 8.2 min
Base peak: 312.1959
Precursor m/z: 312.1958
Precursor type: [M+H]+
m/z	relative intensity	assigned
135.0802	1	C9H11O+
159.0803	1	C11H11O+
161.096	2	C11H13O+
294.1852	3	C20H24NO+
312.1958	999	C20H26NO2+
