Mass spectrum: S-Methoprene; LC-ESI-QFT; MS2; CE: 90%; R=17500; [M+H]+
Name: S-Methoprene
Name: (+)-Methoprene;(7S)-Methoprene;ZR 2458
Name: propan-2-yl 11-methoxy-3,7,11-trimethyldodeca-2,4-dienoate
Formula: C19H34O3
Exact mass: 310.2508
SMILES: CC(C)OC(=O)C=C(C)C=CCC(C)CCCC(C)(C)OC
InChI: InChI=1S/C19H34O3/c1-15(2)22-18(20)14-17(4)11-8-10-16(3)12-9-13-19(5,6)21-7/h8,11,14-16H,9-10,12-13H2,1-7H3
Instrument: Exploris 240 Orbitrap Thermo Scientific
Instrument type: LC-ESI-QFT
Ms type: MS2
Ion mode: POSITIVE
Ionization: ESI
Fragmentation mode: HCD
Collision energy: 90 % (nominal)
Resolution: 17500
Column name: XBridge C18 3.5um, 2.1x50mm, Waters
Retention time: 16.124 min
Base peak: 279.2317
Precursor m/z: 311.2581
Precursor type: [M+H]+
m/z	relative intensity	assigned
53.0387	118	C4H5+
55.0543	859	C4H7+
57.0699	75	C4H9+
65.0386	89	C5H5+
67.0543	694	C5H7+
69.0335	56	C4H5O+
69.07	485	C5H9+
77.0386	153	C6H5+
79.0542	855	C6H7+
81.0699	999	C6H9+
91.0542	426	C7H7+
93.0698	639	C7H9+
95.0856	450	C7H11+
97.0651	73	C6H9O+
105.0697	248	C8H9+
107.0856	353	C8H11+
109.1012	89	C8H13+
119.0858	57	C9H11+
121.0645	56	C8H9O+
121.1013	157	C9H13+
