Mass spectrum: Deferasirox; LC-ESI-QFT; MS2; CE: 15; R=35000; [M-H]-
Name: Deferasirox
Formula: C21H15N3O4
Exact mass: 373.10626
SMILES: OC(=O)c1ccc(cc1)n2nc(nc2c3ccccc3O)c4ccccc4O
InChI: InChI=1S/C21H15N3O4/c25-17-7-3-1-5-15(17)19-22-20(16-6-2-4-8-18(16)26)24(23-19)14-11-9-13(10-12-14)21(27)28/h1-12,25-26H,(H,27,28)
Instrument: Q Exactive Orbitrap Thermo Scientific
Instrument type: LC-ESI-QFT
Ms type: MS2
Ion mode: NEGATIVE
Ionization: ESI
Fragmentation mode: HCD
Collision energy: 15 (nominal)
Resolution: 35000
Column name: XBridge C18 3.5um, 2.1x50mm, Waters
Retention time: 13.0 min
Base peak: 372.0991
Precursor m/z: 372.099
Precursor type: [M-H]-
m/z	relative intensity	assigned
118.0295	7	C7H4NO-
133.0407	5	C7H5N2O-
209.0722	1	C13H9N2O-
252.0772	11	C14H10N3O2-
310.1001	2	C20H12N3O-
328.109	825	C20H14N3O2-
372.0988	999	C21H14N3O4-
