Mass spectrum: Mefenamic acid; LC-ESI-ITFT; MS2; CE: 15%; R=15000; [M+H]+
Name: Mefenamic acid
Name: 2-(2,3-dimethylanilino)benzoic acid
Formula: C15H15NO2
Exact mass: 241.1103
SMILES: c1(c(cccc1)C(O)=O)Nc1c(c(ccc1)C)C
InChI: InChI=1S/C15H15NO2/c1-10-6-5-9-13(11(10)2)16-14-8-4-3-7-12(14)15(17)18/h3-9,16H,1-2H3,(H,17,18)
Instrument: LTQ Orbitrap XL Thermo Scientific
Instrument type: LC-ESI-ITFT
Ms type: MS2
Ion mode: POSITIVE
Ionization: ESI
Fragmentation mode: HCD
Collision energy: 15 % (nominal)
Resolution: 15000
Column name: XBridge C18 3.5um, 2.1x50mm, Waters
Retention time: 14.5 min
Base peak: 242.1182
Precursor m/z: 242.1176
Precursor type: [M+H]+
m/z	relative intensity	assigned
179.0726	1	C13H9N+
191.0722	1	C14H9N+
208.0766	2	C14H10NO+
222.0919	1	C15H12NO+
223.1	3	C15H13NO+
224.107	656	C15H14NO+
241.1097	15	C15H15NO2+
242.1176	999	C15H16NO2+
