Mass spectrum: Cefadroxil; LC-ESI-QFT; MS2; CE: 150; R=35000; [M+H]+
Name: Cefadroxil
Name: 7-[[2-azaniumyl-2-(4-hydroxyphenyl)acetyl]amino]-3-methyl-8-oxo-5-thia-1-azabicyclo[4.2.0]oct-2-ene-2-carboxylate
Formula: C16H17N3O5S
Exact mass: 363.08889
SMILES: CC1=C(N2C(C(C2=O)NC(=O)C(C3=CC=C(C=C3)O)N)SC1)C(=O)O
InChI: InChI=1S/C16H17N3O5S/c1-7-6-25-15-11(14(22)19(15)12(7)16(23)24)18-13(21)10(17)8-2-4-9(20)5-3-8/h2-5,10-11,15,20H,6,17H2,1H3,(H,18,21)(H,23,24)
Instrument: Q Exactive Plus Orbitrap Thermo Scientific
Instrument type: LC-ESI-QFT
Ms type: MS2
Ion mode: POSITIVE
Ionization: ESI
Fragmentation mode: HCD
Collision energy: 150 (nominal)
Resolution: 35000
Column name: XBridge C18 3.5um, 2.1x50mm, Waters
Retention time: 2.4 min
Base peak: 364.0954
Precursor m/z: 364.0962
Precursor type: [M+H]+
m/z	relative intensity	assigned
50.0152	59	C4H2+
51.023	130	C4H3+
52.0182	1	C3H2N+
52.0308	30	C4H4+
53.0022	25	C3HO+
53.0386	131	C4H5+
53.9975	7	C2NO+
54.0339	6	C3H4N+
55.0179	29	C3H3O+
56.0132	7	C2H2NO+
56.0496	3	C3H6N+
56.9793	3	C2HS+
57.9872	158	C2H2S+
58.995	999	C2H3S+
59.9665	19	COS+
59.9903	4	CH2NS+
62.0151	6	C5H2+
63.023	47	C5H3+
65.0386	88	C5H5+
66.0464	6	C5H6+
67.0417	12	C4H5N+
67.0543	7	C5H7+
68.0495	48	C4H6N+
68.9794	98	C3HS+
69.0447	7	C3H5N2+
69.9924	20	C2NO2+
70.0289	3	C3H4NO+
75.023	8	C6H3+
76.0307	7	C6H4+
77.0386	146	C6H5+
78.0464	346	C6H6+
79.0179	8	C5H3O+
79.0416	8	C5H5N+
79.0542	50	C6H7+
80.0496	11	C5H6N+
81.0336	19	C5H5O+
85.0106	2	C4H5S+
86.0059	614	C3H4NS+
89.0386	93	C7H5+
90.0465	19	C7H6+
91.0543	46	C7H7+
92.0494	1	C6H6N+
94.0414	3	C6H6O+
95.0492	376	C6H7O+
96.0445	3	C5H6NO+
97.0109	2	C5H5S+
102.0465	9	C8H6+
103.0544	2	C8H7+
104.0495	42	C7H6N+
105.0336	190	C7H5O+
105.0448	265	C6H5N2+
105.0573	13	C7H7N+
106.0414	17	C7H6O+
106.0652	7	C7H8N+
107.0492	105	C7H7O+
109.0107	14	C6H5S+
114.001	15	C4H4NOS+
115.0543	13	C9H7+
116.0496	8	C8H6N+
117.0574	25	C8H7N+
119.049	2	C8H7O+
120.0445	8	C7H6NO+
128.0495	2	C9H6N+
128.062	7	C10H8+
132.0445	7	C8H6NO+
133.0523	18	C8H7NO+
134.0601	7	C8H8NO+
137.0057	17	C7H5OS+
144.0555	2	C8H6N3+
