Mass spectrum: Azoxystrobin (free acid); LC-ESI-ITFT; MS2; CE: 90%; R=7500; [M+H]+
Name: Azoxystrobin (free acid)
Formula: C21H15N3O5
Exact mass: 389.1012
SMILES: O=C(O)/C(=C\OC)c3ccccc3Oc2cc(Oc1ccccc1C#N)ncn2
InChI: InChI=1S/C21H15N3O5/c1-27-12-16(21(25)26)15-7-3-5-9-18(15)29-20-10-19(23-13-24-20)28-17-8-4-2-6-14(17)11-22/h2-10,12-13H,1H3,(H,25,26)/b16-12-
Instrument: LTQ Orbitrap XL Thermo Scientific
Instrument type: LC-ESI-ITFT
Ms type: MS2
Ion mode: POSITIVE
Ionization: ESI
Fragmentation mode: HCD
Collision energy: 90 % (nominal)
Resolution: 7500
Column name: XBridge C18 3.5um, 2.1x50mm, Waters
Retention time: 8.8 min
Base peak: 390.1088
Precursor m/z: 390.1084
Precursor type: [M+H]+
m/z	relative intensity	assigned
51.0228	5	C4H3+
53.0386	4	C4H5+
63.0227	2	C5H3+
65.0386	6	C5H5+
66.0467	4	C5H6+
68.9971	11	C3HO2+
77.0386	19	C6H5+
78.0338	11	C5H4N+
78.0464	11	C6H6+
79.0544	4	C6H7+
89.0386	96	C7H5+
90.0467	6	C7H6+
91.0416	18	C6H5N+
91.0544	13	C7H7+
92.0258	10	C6H4O+
92.0494	7	C6H6N+
95.0492	8	C6H7O+
102.0338	21	C7H4N+
102.0464	11	C8H6+
103.0417	13	C7H5N+
103.0542	12	C8H7+
104.0496	97	C7H6N+
105.0335	29	C7H5O+
105.0448	10	C6H5N2+
105.0568	6	C7H7N+
106.0417	3	C7H6O+
107.0492	7	C7H7O+
114.0339	60	C8H4N+
115.0417	15	C8H5N+
115.0546	9	C9H7+
116.0495	121	C8H6N+
117.0336	18	C8H5O+
117.0572	21	C8H7N+
118.0288	4	C7H4NO+
118.0414	23	C8H6O+
118.0646	2	C8H8N+
119.0366	26	C7H5NO+
119.0496	2	C8H7O+
120.0445	53	C7H6NO+
121.0647	4	C8H9O+
127.0417	48	C9H5N+
128.0496	79	C9H6N+
129.0333	17	C9H5O+
129.0448	132	C8H5N2+
130.0287	53	C8H4NO+
130.04	159	C7H4N3+
131.0369	4	C8H5NO+
131.049	8	C9H7O+
131.0602	5	C8H7N2+
132.0445	31	C8H6NO+
133.0284	29	C8H5O2+
133.0523	61	C8H7NO+
134.0361	17	C8H6O2+
134.0601	61	C8H8NO+
140.0495	14	C10H6N+
141.0447	26	C9H5N2+
142.0522	9	C9H6N2+
143.0367	20	C9H5NO+
143.0604	28	C9H7N2+
144.0444	151	C9H6NO+
145.0282	14	C9H5O2+
145.0522	28	C9H7NO+
146.0237	29	C8H4NO2+
146.0603	15	C9H8NO+
147.0435	2	C9H7O2+
147.0554	2	C8H7N2O+
153.0445	5	C10H5N2+
154.0287	9	C10H4NO+
154.0529	8	C10H6N2+
155.0362	5	C10H5NO+
155.0605	43	C10H7N2+
156.0444	506	C10H6NO+
157.0522	10	C10H7NO+
159.0316	6	C9H5NO2+
159.0554	8	C9H7N2O+
160.0389	6	C9H6NO2+
162.0309	7	C9H6O3+
162.0548	4	C9H8NO2+
168.044	2	C11H6NO+
169.0399	10	C10H5N2O+
170.023	4	C10H4NO2+
170.0475	42	C10H6N2O+
171.0553	91	C10H7N2O+
172.0393	999	C10H6NO2+
181.0398	26	C11H5N2O+
182.0478	27	C11H6N2O+
183.0554	45	C11H7N2O+
184.0394	6	C11H6NO2+
185.0262	2	C14H3N+
186.055	3	C11H8NO2+
187.0507	4	C10H7N2O2+
190.0656	10	C14H8N+
197.035	5	C11H5N2O2+
199.0502	45	C11H7N2O2+
200.0343	97	C11H6NO3+
204.0811	7	C15H10N+
205.0753	8	C14H9N2+
211.0506	10	C12H7N2O2+
217.0762	9	C15H9N2+
218.0838	8	C15H10N2+
220.0764	5	C15H10NO+
227.0456	3	C12H7N2O3+
229.0759	7	C16H9N2+
231.0911	2	C16H11N2+
233.0718	10	C15H9N2O+
242.0314	12	C12H6N2O4+
244.087	19	C16H10N3+
245.071	46	C16H9N2O+
246.0781	4	C16H10N2O+
247.0865	4	C16H11N2O+
256.089	2	C19H12O+
257.071	3	C17H9N2O+
258.0793	3	C17H10N2O+
260.0707	2	C17H10NO2+
272.0821	50	C17H10N3O+
273.0656	18	C17H9N2O2+
274.0738	5	C17H10N2O2+
275.081	5	C17H11N2O2+
300.0772	41	C18H10N3O2+
328.0717	28	C19H10N3O3+
329.0814	5	C21H13O4+
