Mass spectrum: Isoxaflutole; LC-ESI-QFT; MS2; CE: 45; R=35000; [M+H]+
Name: Isoxaflutole
Name: (5-cyclopropyl-1,2-oxazol-4-yl)-[2-methylsulfonyl-4-(trifluoromethyl)phenyl]methanone
Formula: C15H12F3NO4S
Exact mass: 359.04391
SMILES: O=C(c1c(onc1)C2CC2)c3ccc(cc3S(=O)(=O)C)C(F)(F)F
InChI: InChI=1S/C15H12F3NO4S/c1-24(21,22)12-6-9(15(16,17)18)4-5-10(12)13(20)11-7-19-23-14(11)8-2-3-8/h4-8H,2-3H2,1H3
Instrument: Q Exactive Plus Orbitrap Thermo Scientific
Instrument type: LC-ESI-QFT
Ms type: MS2
Ion mode: POSITIVE
Ionization: ESI
Fragmentation mode: HCD
Collision energy: 45 (nominal)
Resolution: 35000
Column name: XBridge C18 3.5um, 2.1x50mm, Waters
Retention time: 8.7 min
Base peak: 360.0506
Precursor m/z: 360.0512
Precursor type: [M+H]+
m/z	relative intensity	assigned
69.0335	8	C4H5O+
109.0447	1	C7H6F+
132.0182	1	C6H3F3+
141.0144	1	C7H3F2O+
144.0183	1	C7H3F3+
149.021	5	C6H4F3O+
156.9917	2	C7H3F2S+
159.0417	10	C8H6F3+
160.0131	2	C7H3F3O+
164.9982	4	C8H2FO3+
172.0128	4	C8H3F3O+
173.0208	1	C8H4F3O+
175.0366	1	C8H6F3O+
176.9982	10	C9H2FO3+
177.0159	7	C7H4F3O2+
179.0138	1	C7H6F3S+
188.0079	2	C8H3F3O2+
189.016	28	C8H4F3O2+
192.9932	12	C9H2FO4+
206.0188	7	C8H5F3O3+
219.9803	30	C8H3F3O2S+
220.9881	36	C8H4F3O2S+
250.9985	999	C9H6F3O3S+
283.0248	7	C10H10F3O4S+
