Mass spectrum: Atorvastatin; LC-ESI-ITFT; MS2; CE: 75%; R=7500; [M+H]+
Name: Atorvastatin
Name: (3R,5R)-7-[3-(anilinocarbonyl)-5-(4-fluorophenyl)-2-isopropyl-4-phenyl-1H-pyrrol-1-yl]-3,5-dihydroxyheptanoic acid
Name: (3R,5R)-7-[2-(4-fluorophenyl)-3-phenyl-4-(phenylcarbamoyl)-5-propan-2-yl-pyrrol-1-yl]-3,5-bis(oxidanyl)heptanoic acid
Formula: C33H35FN2O5
Exact mass: 558.2530
SMILES: c1(c(n(CC[C@H](C[C@H](CC(=O)O)O)O)c(c1C(Nc1ccccc1)=O)C(C)C)c1ccc(F)cc1)c1ccccc1
InChI: InChI=1S/C33H35FN2O5/c1-21(2)31-30(33(41)35-25-11-7-4-8-12-25)29(22-9-5-3-6-10-22)32(23-13-15-24(34)16-14-23)36(31)18-17-26(37)19-27(38)20-28(39)40/h3-16,21,26-27,37-38H,17-20H2,1-2H3,(H,35,41)(H,39,40)/t26-,27-/m1/s1
Instrument: LTQ Orbitrap XL Thermo Scientific
Instrument type: LC-ESI-ITFT
Ms type: MS2
Ion mode: POSITIVE
Ionization: ESI
Fragmentation mode: HCD
Collision energy: 75 % (nominal)
Resolution: 7500
Column name: XBridge C18 3.5um, 2.1x50mm, Waters
Retention time: 12.4 min
Base peak: 559.2616
Precursor m/z: 559.2603
Precursor type: [M+H]+
m/z	relative intensity	assigned
77.0386	55	C6H5+
79.0543	34	C6H7+
83.0491	44	C5H7O+
92.0495	66	C6H6N+
95.0487	17	C6H7O+
104.0499	37	C7H6N+
105.045	12	C6H5N2+
109.045	22	C7H6F+
115.0543	58	C9H7+
117.0577	14	C8H7N+
120.0444	28	C7H6NO+
122.0403	42	C7H5FN+
128.0627	21	C10H8+
129.0704	28	C10H9+
133.0448	41	C9H6F+
147.0598	18	C10H8F+
154.0651	62	C11H8N+
155.0608	41	C10H7N2+
172.0559	36	C11H7FN+
202.0785	36	C16H10+
203.0857	58	C16H11+
209.0767	97	C15H10F+
221.0763	38	C16H10F+
223.092	40	C16H12F+
230.0971	56	C17H12N+
233.0763	198	C17H10F+
234.0838	18	C17H11F+
235.0791	205	C16H10FN+
236.0875	24	C16H11FN+
237.0944	78	C16H12FN+
238.1027	90	C16H13FN+
248.087	291	C17H11FN+
249.0949	229	C17H12FN+
250.1027	999	C17H13FN+
260.0883	17	C18H11FN+
261.095	76	C18H12FN+
262.1024	140	C18H13FN+
263.1107	47	C18H14FN+
264.0821	70	C17H11FNO+
264.1189	48	C18H15FN+
274.1025	64	C19H13FN+
275.1112	27	C19H14FN+
276.0822	75	C18H11FNO+
276.1184	416	C19H15FN+
277.1264	18	C19H16FN+
288.1175	48	C20H15FN+
290.1343	29	C20H17FN+
302.1334	53	C21H17FN+
362.1533	24	C26H20NO+
