Mass spectrum: Losartan; LC-ESI-QFT; MS2; CE: 45; R=35000; [M+H]+
Name: Losartan
Name: [2-butyl-5-chloranyl-3-[[4-[2-(2H-1,2,3,4-tetrazol-5-yl)phenyl]phenyl]methyl]imidazol-4-yl]methanol
Formula: C22H23ClN6O
Exact mass: 421.15436
SMILES: Clc1nc(n(c1CO)Cc4ccc(c2ccccc2c3[nH]nnn3)cc4)CCCC
InChI: InChI=1S/C22H23ClN6O/c1-2-3-8-20-24-21(23)19(14-30)29(20)13-15-9-11-16(12-10-15)17-6-4-5-7-18(17)22-25-27-28-26-22/h4-7,9-12,30H,2-3,8,13-14H2,1H3,(H,25,26,27,28)
Instrument: Q Exactive Plus Orbitrap Thermo Scientific
Instrument type: LC-ESI-QFT
Ms type: MS2
Ion mode: POSITIVE
Ionization: ESI
Fragmentation mode: HCD
Collision energy: 45 (nominal)
Resolution: 35000
Column name: XBridge C18 3.5um, 2.1x50mm, Waters
Retention time: 8.9 min
Base peak: 423.1691
Precursor m/z: 423.1695
Precursor type: [M+H]+
m/z	relative intensity	assigned
79.0542	13	C6H7+
80.0494	13	C5H6N+
83.0855	1	C6H11+
95.049	2	C6H7O+
102.0104	2	C4H5ClN+
105.0447	1	C6H5N2+
108.0808	3	C7H10N+
115.0056	2	C4H4ClN2+
115.0542	1	C9H7+
129.0214	7	C5H6ClN2+
129.0446	5	C8H5N2+
135.0917	7	C8H11N2+
140.0494	6	C10H6N+
142.0292	27	C6H7ClN2+
144.0574	4	C7H11ClN+
151.0539	1	C12H7+
151.0865	1	C8H11N2O+
152.062	4	C12H8+
153.0698	23	C12H9+
163.0545	2	C13H7+
165.0697	6	C13H9+
166.0657	2	C12H8N+
166.0779	3	C13H10+
167.073	8	C12H9N+
168.0682	1	C11H8N2+
169.0648	1	C12H9O+
171.0683	144	C8H12ClN2+
177.0573	1	C13H7N+
178.0651	13	C13H8N+
178.0775	15	C14H10+
179.0602	1	C12H7N2+
179.0729	16	C13H9N+
179.0847	2	C14H11+
180.0807	265	C13H10N+
181.076	3	C12H9N2+
189.079	2	C8H14ClN2O+
190.065	68	C14H8N+
191.0728	8	C14H9N+
192.0682	51	C13H8N2+
192.0808	89	C14H10N+
194.0599	8	C13H8NO+
195.0917	6	C13H11N2+
196.0757	41	C13H10NO+
205.0761	54	C14H9N2+
206.0839	235	C14H10N2+
207.0916	999	C14H11N2+
208.0756	19	C14H10NO+
214.0649	8	C16H8N+
216.0808	4	C16H10N+
218.0839	4	C15H10N2+
219.092	3	C15H11N2+
229.0763	1	C16H9N2+
231.0917	8	C16H11N2+
232.099	3	C16H12N2+
233.1074	2	C16H13N2+
235.0978	10	C14H11N4+
241.076	25	C17H9N2+
242.0837	7	C17H10N2+
243.0916	14	C17H11N2+
252.057	1	C19H8O+
254.0606	4	C15H11ClN2+
257.0945	4	C17H11N3+
258.1026	42	C17H12N3+
259.0866	36	C17H11N2O+
259.1101	3	C17H13N3+
268.0865	1	C18H10N3+
277.0526	1	C17H10ClN2+
279.0681	1	C17H12ClN2+
281.0947	16	C19H11N3+
282.1024	14	C19H12N3+
294.0798	2	C17H13ClN3+
294.102	1	C20H12N3+
295.0632	4	C17H12ClN2O+
295.1101	3	C20H13N3+
297.1134	1	C19H13N4+
298.1212	12	C19H14N4+
299.1288	1	C19H15N4+
311.1292	2	C20H15N4+
324.1494	10	C22H18N3+
341.176	8	C22H21N4+
350.1418	1	C21H21ClN3+
362.1419	8	C22H21ClN3+
