Mass spectrum: Methamidophos; LC-ESI-QFT; MS2; CE: 150%; R=17500; [M+H]+
Name: Methamidophos
Name: [amino(methylsulfanyl)phosphoryl]oxymethane
Formula: C2H8NO2PS
Exact mass: 141.0013
SMILES: COP(=O)(N)SC
InChI: InChI=1S/C2H8NO2PS/c1-5-6(3,4)7-2/h1-2H3,(H2,3,4)
Instrument: Exploris 240 Orbitrap Thermo Scientific
Instrument type: LC-ESI-QFT
Ms type: MS2
Ion mode: POSITIVE
Ionization: ESI
Fragmentation mode: HCD
Collision energy: 150 % (nominal)
Resolution: 17500
Column name: XBridge C18 3.5um, 2.1x50mm, Waters
Retention time: 1.413 min
Base peak: 142.0086
Precursor m/z: 142.0086
Precursor type: [M+H]+
m/z	relative intensity	assigned
44.9793	480	CHS+
45.9841	87	HNP+
46.9681	379	OP+
46.995	999	CH3S+
62.0185	24	C2H6S+
63.9947	605	H3NOP+
64.9788	34	H2O2P+
78.9944	220	CH4O2P+
79.9895	43	H3NO2P+
94.0053	149	CH5NO2P+
