Mass spectrum: Dichlofenthion; LC-ESI-QFT; MS2; CE: 45%; R=17500; [M+H]+
Name: Dichlofenthion
Name: (2,4-dichlorophenoxy)-diethoxy-sulfanylidene-lambda5-phosphane
Formula: C10H13Cl2O3PS
Exact mass: 313.9700
SMILES: CCOP(=S)(OCC)OC1=C(C=C(C=C1)Cl)Cl
InChI: InChI=1S/C10H13Cl2O3PS/c1-3-13-16(17,14-4-2)15-10-6-5-8(11)7-9(10)12/h5-7H,3-4H2,1-2H3
Instrument: Exploris 240 Orbitrap Thermo Scientific
Instrument type: LC-ESI-QFT
Ms type: MS2
Ion mode: POSITIVE
Ionization: ESI
Fragmentation mode: HCD
Collision energy: 45 % (nominal)
Resolution: 17500
Column name: XBridge C18 3.5um, 2.1x50mm, Waters
Retention time: 13.510 min
Base peak: 314.9773
Precursor m/z: 314.9773
Precursor type: [M+H]+
m/z	relative intensity	assigned
59.049	6	C3H7O+
96.9508	156	H2O2PS+
110.9664	8	C2H4ClOS+
114.9613	188	H4O3PS+
158.9668	12	C6H4ClOS+
160.9557	7	C6H3Cl2O+
162.9712	209	C6H5Cl2O+
176.9328	111	C6H3Cl2S+
178.9484	326	C6H5Cl2S+
204.9277	8	C7H3Cl2OS+
224.9268	44	C6H4Cl2O3P+
240.9044	65	C6H4Cl2O2PS+
258.9147	999	C6H6Cl2O3PS+
272.9311	11	C7H8Cl2O3PS+
