Mass spectrum: Ioxitalamic acid; LC-ESI-ITFT; MS2; CE: 90%; R=15000; [M+H]+
Name: Ioxitalamic acid
Name: 3-acetamido-5-(2-hydroxyethylcarbamoyl)-2,4,6-triiodo-benzoic acid
Formula: C12H11I3N2O5
Exact mass: 643.7802
SMILES: CC(=O)NC1=C(I)C(C(O)=O)=C(I)C(C(=O)NCCO)=C1I
InChI: InChI=1S/C12H11I3N2O5/c1-4(19)17-10-8(14)5(11(20)16-2-3-18)7(13)6(9(10)15)12(21)22/h18H,2-3H2,1H3,(H,16,20)(H,17,19)(H,21,22)
Instrument: LTQ Orbitrap XL Thermo Scientific
Instrument type: LC-ESI-ITFT
Ms type: MS2
Ion mode: POSITIVE
Ionization: ESI
Fragmentation mode: HCD
Collision energy: 90 % (nominal)
Resolution: 15000
Column name: XBridge C18 3.5um, 2.1x50mm, Waters
Retention time: 1.3 min
Base peak: 132.958
Precursor m/z: 644.7875
Precursor type: [M+H]+
m/z	relative intensity	assigned
76.0181	130	C5H2N+
77.0022	233	C5HO+
91.0418	293	C6H5N+
92.0133	111	C5H2NO+
102.034	155	C7H4N+
105.021	999	C6H3NO+
130.0291	152	C8H4NO+
131.0366	483	C8H5NO+
147.0313	402	C8H5NO2+
148.0395	153	C8H6NO2+
163.0267	321	C8H5NO3+
174.0185	195	C9H4NO3+
175.9121	118	C4HI+
203.9308	347	C5H3IN+
231.9254	342	C6H3INO+
245.9414	251	C7H5INO+
257.941	541	C8H5INO+
273.9364	705	C8H5INO2+
301.9308	127	C9H5INO3+
