Mass spectrum: Fenamiphos; LC-ESI-QFT; MS2; CE: 120%; R=17500; [M+H]+
Name: Fenamiphos
Name: N-[ethoxy-(3-methyl-4-methylsulfanylphenoxy)phosphoryl]propan-2-amine
Formula: C13H22NO3PS
Exact mass: 303.1058
SMILES: CCOP(=O)(NC(C)C)OC1=CC(=C(C=C1)SC)C
InChI: InChI=1S/C13H22NO3PS/c1-6-16-18(15,14-10(2)3)17-12-7-8-13(19-5)11(4)9-12/h7-10H,6H2,1-5H3,(H,14,15)
Instrument: Exploris 240 Orbitrap Thermo Scientific
Instrument type: LC-ESI-QFT
Ms type: MS2
Ion mode: POSITIVE
Ionization: ESI
Fragmentation mode: HCD
Collision energy: 120 % (nominal)
Resolution: 17500
Column name: XBridge C18 3.5um, 2.1x50mm, Waters
Retention time: 10.489 min
Base peak: 304.1128
Precursor m/z: 304.1131
Precursor type: [M+H]+
m/z	relative intensity	assigned
53.0385	171	C4H5+
58.995	179	C2H3S+
62.9453	86	PS+
65.0384	161	C5H5+
66.0463	273	C5H6+
67.0541	59	C5H7+
77.0385	473	C6H5+
78.0463	576	C6H6+
79.0541	348	C6H7+
79.9895	51	C4O2+
84.0028	78	C4H4S+
89.0384	37	C7H5+
90.0463	70	C7H6+
91.0542	581	C7H7+
93.07	35	C7H9+
95.0491	141	C6H7O+
97.0107	424	C5H5S+
98.0003	57	H5NO3P+
103.054	124	C8H7+
104.0619	56	C8H8+
106.0411	51	C7H6O+
107.0491	461	C7H7O+
108.057	200	C7H8O+
109.0105	114	C6H5S+
109.0649	81	C7H9O+
110.0184	999	C6H6S+
121.0105	533	C7H5S+
122.0182	340	C7H6S+
137.0054	121	C7H5OS+
138.0132	327	C7H6OS+
139.0217	91	C7H7OS+
168.9868	102	C7H6OPS+
169.0052	194	C7H6O3P+
200.9766	232	C13NP+
