Mass spectrum: Fipronil-TP RPA 200761; LC-ESI-QFT; MS2; CE: 90%; R=17500; [M+H]+
Name: Fipronil-TP RPA 200761
Name: 5-amino-1-[2,6-dichloro-4-(trifluoromethyl)phenyl]-4-(trifluoromethylsulfinyl)pyrazole-3-carboxylic acid
Formula: C12H5Cl2F6N3O3S
Exact mass: 454.9333
SMILES: NC1=C(C(=NN1C1=C(Cl)C=C(C=C1Cl)C(F)(F)F)C(O)=O)S(=O)C(F)(F)F
InChI: InChI=1S/C12H5Cl2F6N3O3S/c13-4-1-3(11(15,16)17)2-5(14)7(4)23-9(21)8(6(22-23)10(24)25)27(26)12(18,19)20/h1-2H,21H2,(H,24,25)
Instrument: Q Exactive Plus Orbitrap Thermo Scientific
Instrument type: LC-ESI-QFT
Ms type: MS2
Ion mode: POSITIVE
Ionization: ESI
Fragmentation mode: HCD
Collision energy: 90 % (nominal)
Resolution: 17500
Column name: XBridge C18 3.5um, 2.1x50mm, Waters
Retention time: 8.085 min
Base peak: 455.9408
Precursor m/z: 455.9406
Precursor type: [M+H]+
m/z	relative intensity	assigned
59.9902	32	CH2NS+
61.9792	43	CHClN+
62.9701	12	CFS+
62.987	24	CH2ClN+
63.9852	42	H2NOS+
68.9947	192	CF3+
69.9746	172	C2NS+
69.9922	13	C2NO2+
121.9794	18	C6HClN+
123.9956	9	C6HFO2+
132.0181	30	C6H3F3+
143.0103	23	C7H2F3+
157.0134	736	C7H2F3N+
157.9935	17	C2HF3N2O3+
158.0211	21	C7H3F3N+
158.9637	37	C6H3Cl2N+
158.9802	21	C2HClF3N3+
164.0182	18	C8H2F2N2+
165.9792	499	C6H2ClF3+
166.9587	27	CH3Cl2F2N2O+
166.9871	51	C6H3ClF3+
167.9848	77	C7H3ClNO2+
170.0038	28	C10HFNO+
170.0203	19	C3H6F2N3OS+
171.9756	34	C4H6ClFO2S+
172.9838	236	C7H2ClF2N+
173.9909	16	C10F2O+
174.9824	74	C6H5Cl2N2+
176.9711	15	C2ClF4N3+
177.9639	12	C3H2ClF3O3+
177.979	29	C2HClF4N3+
178.9698	79	C2F5N2S+
178.9867	41	C2H2ClF4N3+
181.0135	26	C9H2F3N+
183.017	21	C8H2F3N2+
184.0242	16	C8H3F3N2+
185.0321	31	C8H4F3N2+
185.9749	112	C2F6O3+
187.991	39	C7H4ClFNO2+
189.9864	65	C7H3ClF2NO+
190.9527	14	C2HClF3N3S+
191.9822	628	C7H2ClF3N+
192.0262	58	C7H5F3NO2+
192.9901	230	C7H3ClF3N+
193.0186	12	C4H3F6N2+
193.9701	97	C2H2ClF3N2O3+
193.9976	20	C10HF3O+
195.0165	178	C9H2F3N2+
196.0245	16	C9H3F3N2+
198.9522	152	CH2Cl2F3N3O+
198.9858	19	C3H3F2N3O3S+
199.9824	102	C12H2ClF+
200.9479	641	C6H2Cl2F3+
200.9855	55	C7H5Cl2N3+
201.0018	22	
201.9929	19	C10H3ClN2O+
203.0283	10	C10H3F2N3+
203.9823	197	C8H2ClF3N+
206.981	18	C11H2ClF2+
207.9524	218	C7H2Cl2F2N+
208.0069	19	C12HFN2O+
208.9482	20	C6HCl2F2N2+
209.9509	20	C2HClF4N3S+
209.9688	76	C2HClF4N3O2+
209.9927	146	C7H4ClF3NO+
210.9862	92	C9H4FO3S+
212.9478	217	C2HCl2F4N3+
215.9488	25	C7H2Cl2N2O2+
215.9813	52	C4H3F3N2O3S+
218.9927	26	C11F3NO+
220.0009	293	C8H4ClF3N2+
221.0085	12	C8H5ClF3N2+
222.0279	73	C10H3F3N3+
223.0351	168	C10H4F3N3+
223.9773	16	C12HClN2O+
226.9884	578	C9H2F3N2S+
227.9589	999	C7H3Cl2F3N+
227.9962	63	C9H3F3N2S+
228.9672	21	C2HClF5N3O2+
230.993	344	C9H3ClF3N2+
234.9635	22	C9F5S+
235.9541	19	C10H2Cl2N2O+
236.9622	54	C2H2ClF6NO3+
237.9701	29	C10H2ClFNO3+
238.9677	17	C9H4ClN2O2S+
239.9589	21	C8H3Cl2F3N+
240.0377	73	C10H5F3N3O+
242.9591	257	C3HClF5N2O3+
245.9694	272	C11F2N2OS+
249.0037	239	C9H5ClF3N2O+
253.9649	20	C8H4ClF3NOS+
254.9698	306	C9HF6S+
258.004	588	C10H4ClF3N3+
262.9651	772	C9H3ClF3N2S+
264.9986	30	C9H5ClF3N2O2+
267.0145	27	C12H4F3NO3+
277.9624	77	C10HClF4NO2+
