Mass spectrum: Diatrizoate; LC-ESI-ITFT; MS2; CE: 45%; R=15000; [M+H]+
Name: Diatrizoate
Name: Diatrizoic acid
Name: 3,5-diacetamido-2,4,6-triiodo-benzoic acid
Formula: C11H9I3N2O4
Exact mass: 613.7697
SMILES: CC(=O)NC1=C(I)C(C(O)=O)=C(I)C(NC(C)=O)=C1I
InChI: InChI=1S/C11H9I3N2O4/c1-3(17)15-9-6(12)5(11(19)20)7(13)10(8(9)14)16-4(2)18/h1-2H3,(H,15,17)(H,16,18)(H,19,20)
Instrument: LTQ Orbitrap XL Thermo Scientific
Instrument type: LC-ESI-ITFT
Ms type: MS2
Ion mode: POSITIVE
Ionization: ESI
Fragmentation mode: HCD
Collision energy: 45 % (nominal)
Resolution: 15000
Column name: XBridge C18 3.5um, 2.1x50mm, Waters
Retention time: 1.6 min
Base peak: 631.8031
Precursor m/z: 614.7769
Precursor type: [M+H]+
m/z	relative intensity	assigned
148.0391	57	C8H6NO2+
148.0631	8	C8H8N2O+
180.0526	10	C8H8N2O3+
187.0498	6	C10H7N2O2+
189.0658	26	C10H9N2O2+
192.0527	161	C9H8N2O3+
215.0452	10	C11H7N2O3+
219.0396	27	C10H7N2O4+
233.0554	999	C11H9N2O4+
234.0633	5	C11H10N2O4+
318.957	50	C9H8IN2O3+
342.9567	6	C11H8IN2O3+
360.9677	79	C11H10IN2O4+
