Mass spectrum: Oxazepam; LC-ESI-ITFT; MS2; CE: 45%; R=7500; [M+H]+
Name: Oxazepam
Name: 7-chloranyl-3-oxidanyl-5-phenyl-1,3-dihydro-1,4-benzodiazepin-2-one
Formula: C15H11ClN2O2
Exact mass: 286.0509
SMILES: C1=CC=C(C=C1)C2=NC(C(=O)NC3=C2C=C(C=C3)Cl)O
InChI: InChI=1S/C15H11ClN2O2/c16-10-6-7-12-11(8-10)13(9-4-2-1-3-5-9)18-15(20)14(19)17-12/h1-8,15,20H,(H,17,19)
Instrument: LTQ Orbitrap XL Thermo Scientific
Instrument type: LC-ESI-ITFT
Ms type: MS2
Ion mode: POSITIVE
Ionization: ESI
Fragmentation mode: HCD
Collision energy: 45 % (nominal)
Resolution: 7500
Column name: XBridge C18 3.5um, 2.1x50mm, Waters
Retention time: 9.0 min
Base peak: 287.059
Precursor m/z: 287.0582
Precursor type: [M+H]+
m/z	relative intensity	assigned
93.057	2	C6H7N+
104.0494	65	C7H6N+
128.0261	46	C6H7ClN+
153.0215	17	C7H6ClN2+
156.0211	14	C7H7ClNO+
166.0055	32	C8H5ClNO+
207.068	5	C14H9NO+
216.057	7	C13H11ClN+
231.0683	342	C13H12ClN2+
241.0528	999	C14H10ClN2+
242.0357	16	C14H9ClNO+
257.0467	11	C14H10ClN2O+
269.0474	394	C15H10ClN2O+
287.0582	71	C15H12ClN2O2+
