Mass spectrum: Eprosartan; LC-ESI-ITFT; MS2; CE: 60%; R=15000; [M+H]+
Name: Eprosartan
Name: 4-[[2-butyl-5-[(E)-3-hydroxy-3-keto-2-(2-thenyl)prop-1-enyl]imidazol-1-yl]methyl]benzoic acid
Formula: C23H24N2O4S
Exact mass: 424.1457
SMILES: CCCCC1=NC=C(N1CC2=CC=C(C=C2)C(=O)O)/C=C(\CC3=CC=CS3)/C(=O)O
InChI: InChI=1S/C23H24N2O4S/c1-2-3-6-21-24-14-19(12-18(23(28)29)13-20-5-4-11-30-20)25(21)15-16-7-9-17(10-8-16)22(26)27/h4-5,7-12,14H,2-3,6,13,15H2,1H3,(H,26,27)(H,28,29)/b18-12+
Instrument: LTQ Orbitrap XL Thermo Scientific
Instrument type: LC-ESI-ITFT
Ms type: MS2
Ion mode: POSITIVE
Ionization: ESI
Fragmentation mode: HCD
Collision energy: 60 % (nominal)
Resolution: 15000
Column name: XBridge C18 3.5um, 2.1x50mm, Waters
Retention time: 6.3 min
Base peak: 425.154
Precursor m/z: 425.153
Precursor type: [M+H]+
m/z	relative intensity	assigned
78.0339	41	C5H4N+
80.0495	96	C5H6N+
84.0807	24	C5H10N+
97.0107	143	C5H5S+
106.0287	26	C6H4NO+
107.0491	540	C7H7O+
119.0603	17	C7H7N2+
120.0682	26	C7H8N2+
124.0393	34	C6H6NO2+
135.0441	999	C8H7O2+
153.1025	13	C8H13N2O+
161.0296	28	C9H7NS+
161.108	16	C10H13N2+
162.0373	23	C9H8NS+
163.123	251	C10H15N2+
164.058	23	C8H8N2O2+
169.0764	13	C11H9N2+
201.0481	108	C11H9N2S+
202.0558	92	C11H10N2S+
207.1126	158	C11H15N2O2+
215.0643	19	C12H11N2S+
244.103	67	C14H16N2S+
245.1105	34	C14H17N2S+
297.1587	21	C18H21N2O2+
