Mass spectrum: Venlafaxine N-Oxide; LC-ESI-QFT; MS2; CE: 120; R=35000; [M+H]+
Name: Venlafaxine N-Oxide
Name: 2-(1-hydroxycyclohexyl)-2-(4-methoxyphenyl)-N,N-dimethylethanamine oxide
Formula: C17H27NO3
Exact mass: 293.19909
SMILES: OC1(C(C2=CC=C(OC)C=C2)C[N+](C)(C)[O-])CCCCC1
InChI: InChI=1S/C17H27NO3/c1-18(2,20)13-16(17(19)11-5-4-6-12-17)14-7-9-15(21-3)10-8-14/h7-10,16,19H,4-6,11-13H2,1-3H3
Instrument: Q Exactive Plus Orbitrap Thermo Scientific
Instrument type: LC-ESI-QFT
Ms type: MS2
Ion mode: POSITIVE
Ionization: ESI
Fragmentation mode: HCD
Collision energy: 120 (nominal)
Resolution: 35000
Column name: XBridge C18 3.5um, 2.1x50mm, Waters
Retention time: 6.6 min
Base peak: 294.206
Precursor m/z: 294.2064
Precursor type: [M+H]+
m/z	relative intensity	assigned
50.0151	23	C4H2+
51.0229	17	C4H3+
52.0306	6	C4H4+
53.0022	5	C3HO+
53.0386	107	C4H5+
55.0178	21	C3H3O+
55.0542	34	C4H7+
57.0335	5	C3H5O+
58.0651	21	C3H8N+
62.06	4	C2H8NO+
63.0228	4	C5H3+
65.0385	154	C5H5+
66.0464	5	C5H6+
67.0542	11	C5H7+
69.0698	1	C5H9+
76.0307	3	C6H4+
77.0385	200	C6H5+
78.0463	999	C6H6+
79.0177	13	C5H3O+
79.0541	117	C6H7+
81.0334	15	C5H5O+
81.0698	100	C6H9+
89.0386	4	C7H5+
90.0464	5	C7H6+
91.0542	630	C7H7+
92.062	3	C7H8+
93.0699	23	C7H9+
94.0413	10	C6H6O+
94.0653	1	C6H8N+
95.0491	358	C6H7O+
99.0804	2	C6H11O+
102.0462	3	C8H6+
103.0542	31	C8H7+
104.062	6	C8H8+
105.0447	197	C6H5N2+
106.0413	126	C7H6O+
107.0491	28	C7H7O+
108.057	1	C7H8O+
109.0648	3	C7H9O+
115.0542	25	C9H7+
116.0618	4	C9H8+
118.0413	3	C8H6O+
119.049	5	C8H7O+
120.0569	4	C8H8O+
120.0806	4	C8H10N+
121.0647	811	C8H9O+
128.062	6	C10H8+
129.0698	4	C10H9+
131.0491	5	C9H7O+
132.0569	2	C9H8O+
134.0964	3	C9H12N+
141.0698	2	C11H9+
144.0566	2	C10H8O+
148.0756	8	C9H10NO+
155.06	1	C10H7N2+
158.0727	1	C11H10O+
