Mass spectrum: Triflusulfuron-methyl; LC-ESI-QFT; MS2; CE: 60; R=35000; [M+H]+
Name: Triflusulfuron-methyl
Name: 2-[[4-(dimethylamino)-6-(2,2,2-trifluoroethoxy)-s-triazin-2-yl]carbamoylsulfamoyl]-3-methyl-benzoic acid methyl ester
Formula: C17H19F3N6O6S
Exact mass: 492.10389
SMILES: O=C(OC)c1cccc(c1S(=O)(=O)NC(=O)Nc2nc(nc(OCC(F)(F)F)n2)N(C)C)C
InChI: InChI=1S/C17H19F3N6O6S/c1-9-6-5-7-10(12(27)31-4)11(9)33(29,30)25-15(28)22-13-21-14(26(2)3)24-16(23-13)32-8-17(18,19)20/h5-7H,8H2,1-4H3,(H2,21,22,23,24,25,28)
Instrument: Q Exactive Orbitrap Thermo Scientific
Instrument type: LC-ESI-QFT
Ms type: MS2
Ion mode: POSITIVE
Ionization: ESI
Fragmentation mode: HCD
Collision energy: 60 (nominal)
Resolution: 35000
Column name: XBridge C18 3.5um, 2.1x50mm, Waters
Retention time: 10.8 min
Base peak: 493.1108
Precursor m/z: 493.1112
Precursor type: [M+H]+
m/z	relative intensity	assigned
55.0293	2	C2H3N2+
65.0386	2	C5H5+
67.0291	1	C3H3N2+
69.0083	18	C2HN2O+
69.0448	4	C3H5N2+
71.0603	195	C3H7N2+
72.0443	3	C3H6NO+
80.0242	2	C3H2N3+
81.0321	6	C3H3N3+
91.0542	37	C7H7+
96.0556	999	C4H6N3+
104.0494	4	C7H6N+
106.0098	2	C3H2F2NO+
106.0413	3	C7H6O+
106.065	1	C7H8N+
108.0055	1	C3HF3N+
109.0646	2	C2H8FN3O+
114.0661	9	C4H8N3O+
119.049	3	C3H6FN3O+
119.0603	2	C7H7N2+
125.0321	1	C3H4F3N2+
126.0161	5	C3H3F3NO+
134.0362	4	C8H6O2+
134.0598	3	C3H7FN4O+
138.0773	19	C5H8N5+
139.0612	4	C5H7N4O+
140.0453	3	FH5N6O2+
149.0596	39	C9H9O2+
151.0113	65	C4H2F3N2O+
152.0329	4	C5H4N4O2+
152.0466	2	C3H7FN3O3+
153.0632	9	C4H11NO5+
160.0391	3	C4H5FN4O2+
166.0356	4	C5H4N5O2+
168.0377	3	C3H8N2O6+
176.0628	50	CH7F3N6O+
181.0592	1	C6H7N5O2+
182.0672	13	C6H8N5O2+
194.0736	3	C6H10F2N3O2+
213.0217	4	C9H9O4S+
221.0647	1	C12H9F2NO+
238.0908	21	C6H14N4O6+
239.0748	20	C9H16FO4S+
244.0641	26	C8H8F2N5O2+
264.0701	573	C10H15FNO4S+
