Mass spectrum: Danofloxacin; LC-ESI-QFT; MS2; CE: 45; R=35000; [M+H]+
Name: Danofloxacin
Name: 1-cyclopropyl-6-fluoro-7-(5-methyl-2-aza-5-azoniabicyclo[2.2.1]heptan-2-yl)-4-oxoquinoline-3-carboxylate
Formula: C19H20FN3O3
Exact mass: 357.14887
SMILES: CN1C[C@@H]2C[C@H]1CN2C3=C(C=C4C(=C3)N(C=C(C4=O)C(=O)O)C5CC5)F
InChI: InChI=1S/C19H20FN3O3/c1-21-7-12-4-11(21)8-22(12)17-6-16-13(5-15(17)20)18(24)14(19(25)26)9-23(16)10-2-3-10/h5-6,9-12H,2-4,7-8H2,1H3,(H,25,26)/t11-,12-/m0/s1
Instrument: Q Exactive Plus Orbitrap Thermo Scientific
Instrument type: LC-ESI-QFT
Ms type: MS2
Ion mode: POSITIVE
Ionization: ESI
Fragmentation mode: HCD
Collision energy: 45 (nominal)
Resolution: 35000
Column name: XBridge C18 3.5um, 2.1x50mm, Waters
Retention time: 4.4 min
Base peak: 164.9843
Precursor m/z: 358.1561
Precursor type: [M+H]+
m/z	relative intensity	assigned
58.0651	1	C3H8N+
67.0542	3	C5H7+
68.0495	10	C4H6N+
70.0651	23	C4H8N+
79.0542	8	C6H7+
80.0495	2	C5H6N+
81.0573	7	C5H7N+
82.0651	76	C5H8N+
83.0729	13	C5H9N+
84.0808	8	C5H10N+
94.0652	25	C6H8N+
96.0808	101	C6H10N+
97.076	1	C5H9N2+
97.0887	2	C6H11N+
178.0539	1	C9H7FN2O+
187.0667	1	C11H8FN2+
189.0825	1	C11H10FN2+
196.0633	1	C12H8N2O+
202.0663	3	C12H9FNO+
203.0618	3	C11H8FN2O+
204.0695	1	C11H9FN2O+
204.0819	1	C12H11FNO+
214.0901	1	C13H11FN2+
215.0617	9	C12H8FN2O+
215.0981	1	C13H12FN2+
216.0696	4	C12H9FN2O+
217.0773	2	C12H10FN2O+
218.0489	7	C11H7FN2O2+
218.0853	1	C12H11FN2O+
219.093	12	C12H12FN2O+
227.0985	2	C14H12FN2+
229.0774	14	C13H10FN2O+
229.1139	1	C14H14FN2+
231.093	16	C13H12FN2O+
233.1082	1	C13H14FN2O+
236.0591	2	C11H9FN2O3+
237.1025	7	C15H13N2O+
241.0772	2	C14H10FN2O+
242.0852	6	C14H11FN2O+
243.0931	1	C14H12FN2O+
245.1087	29	C14H14FN2O+
251.1181	1	C16H15N2O+
252.1136	1	C15H14N3O+
253.1212	4	C15H15N3O+
254.0487	2	C14H7FN2O2+
255.0565	23	C14H8FN2O2+
256.0641	1	C14H9FN2O2+
257.1085	29	C15H14FN2O+
263.0827	1	C13H12FN2O3+
263.1182	1	C17H15N2O+
269.1091	1	C16H14FN2O+
271.1242	28	C16H16FN2O+
273.0668	4	C14H10FN2O3+
273.1268	1	C15H16FN3O+
275.0826	1	C14H12FN2O3+
277.0984	2	C14H14FN2O3+
279.1004	1	C16H13N3O2+
281.1085	5	C17H14FN2O+
283.1243	92	C17H16FN2O+
285.1401	4	C17H18FN2O+
289.0978	1	C15H14FN2O3+
294.1601	13	C18H20N3O+
298.1348	2	C17H17FN3O+
301.0987	2	C16H14FN2O3+
312.1503	2	C18H19FN3O+
314.1665	19	C18H21FN3O+
315.1138	1	C17H16FN2O3+
338.1504	5	C19H20N3O3+
340.1454	60	C19H19FN3O2+
344.1409	4	C18H19FN3O3+
358.1562	999	C19H21FN3O3+
359.1596	1	C17H21N5O4+
360.1596	2	C18H21FN4O3+
