Mass spectrum: Lamotrigine; LC-ESI-ITFT; MS2; CE: 90%; R=7500; [M+H]+
Name: Lamotrigine
Name: 6-(2,3-dichlorophenyl)-1,2,4-triazine-3,5-diamine
Formula: C9H7Cl2N5
Exact mass: 255.0079
SMILES: Cl-c(ccc1)c(Cl)c1-c(nnc2N)c(n2)N
InChI: InChI=1S/C9H7Cl2N5/c10-5-3-1-2-4(6(5)11)7-8(12)14-9(13)16-15-7/h1-3H,(H4,12,13,14,16)
Instrument: LTQ Orbitrap XL Thermo Scientific
Instrument type: LC-ESI-ITFT
Ms type: MS2
Ion mode: POSITIVE
Ionization: ESI
Fragmentation mode: HCD
Collision energy: 90 % (nominal)
Resolution: 7500
Column name: XBridge C18 3.5um, 2.1x50mm, Waters
Retention time: 5.4 min
Base peak: 256.016
Precursor m/z: 256.0151
Precursor type: [M+H]+
m/z	relative intensity	assigned
58.04	207	CH4N3+
68.0245	55	C2H2N3+
108.9839	66	C6H2Cl+
115.0288	41	C7H3N2+
122.9998	165	C7H4Cl+
123.9949	148	C6H3ClN+
131.0605	101	C8H7N2+
132.9608	117	C5H3Cl2+
138.0104	93	C7H5ClN+
144.9604	57	C6H3Cl2+
147.9949	39	C8H3ClN+
150.0105	31	C8H5ClN+
151.0057	67	C7H4ClN2+
151.0184	349	C8H6ClN+
152.0136	342	C7H5ClN2+
156.9607	537	C7H3Cl2+
158.9763	497	C7H5Cl2+
159.9718	260	C6H4Cl2N+
164.001	124	C7H3ClN3+
165.0215	193	C8H6ClN2+
166.0293	322	C8H7ClN2+
170.9638	200	C7H3Cl2N+
171.9717	368	C7H4Cl2N+
172.9668	999	C6H3Cl2N2+
173.9872	56	C7H6Cl2N+
178.0171	47	C8H5ClN3+
179.0248	30	C8H6ClN3+
183.9718	278	C8H4Cl2N+
184.9794	50	C8H5Cl2N+
186.9824	290	C7H5Cl2N2+
194.9643	77	C9H3Cl2N+
210.9825	421	C9H5Cl2N2+
211.9779	91	C8H4Cl2N3+
229.0041	39	C8H7Cl2N4+
