Mass spectrum: Nystatin; LC-ESI-QFT; MS2; CE: 45; R=35000; [M-H]-
Name: Nystatin
Name: (1S,3R,4R,7R,9R,11R,15S,16R,17R,18S,19E,21E,25E,27E,29E,31E,33R,35S,36R,37S)-33-[(3-Amino-3,6-dideoxy-?-D-mannopyranosyl)oxy]-1,3,4,7,9,11,17,37-octahydroxy-15,16,18-trimethyl-13-oxo-14,39-dioxabic yclo[33.3.1]nonatriaconta-19,21,25,27,29,31-hexaene-36-carboxylic acid
Formula: C47H75NO17
Exact mass: 925.50350
SMILES: CC1C=CC=CCCC=CC=CC=CC=CC(CC2C(C(CC(O2)(CC(C(CCC(CC(CC(CC(=O)OC(C(C1O)C)C)O)O)O)O)O)O)O)C(=O)O)OC3C(C(C(C(O3)C)O)N)O
InChI: InChI=1S/C47H75NO17/c1-27-17-15-13-11-9-7-5-6-8-10-12-14-16-18-34(64-46-44(58)41(48)43(57)30(4)63-46)24-38-40(45(59)60)37(54)26-47(61,65-38)25-36(53)35(52)20-19-31(49)21-32(50)22-33(51)23-39(55)62-29(3)28(2)42(27)56/h5-6,8,10-18,27-38,40-44,46,49-54,56-58,61H,7,9,19-26,48H2,1-4H3,(H,59,60)/b6-5+,10-8+,13-11+,14-12+,17-15+,18-16+/t27-,28-,29-,30+,31+,32+,33+,34-,35+,36+,37-,38-,40+,41-,42+,43+,44-,46-,47+/m0/s1
Instrument: Q Exactive Orbitrap Thermo Scientific
Instrument type: LC-ESI-QFT
Ms type: MS2
Ion mode: NEGATIVE
Ionization: ESI
Fragmentation mode: HCD
Collision energy: 45 (nominal)
Resolution: 35000
Column name: XBridge C18 3.5um, 2.1x50mm, Waters
Retention time: 11.6 min
Base peak: 924.4966
Precursor m/z: 924.4962
Precursor type: [M-H]-
m/z	relative intensity	assigned
65.0396	36	C5H5-
67.0189	41	C4H3O-
67.0553	27	C5H7-
69.0346	453	C4H5O-
70.0298	21	C3H4NO-
71.0138	342	C3H3O2-
72.0091	8	C2H2NO2-
72.9931	21	C2HO3-
73.0295	61	C3H5O2-
74.0247	4	C2H4NO2-
75.0088	1	C2H3O3-
81.0346	37	C5H5O-
83.0502	241	C5H7O-
85.0295	154	C4H5O2-
86.0247	62	C3H4NO2-
87.0088	37	C3H3O3-
87.0452	8	C4H7O2-
88.0404	295	C3H6NO2-
91.0553	8	C7H7-
93.0346	148	C6H5O-
95.0139	5	C5H3O2-
95.0503	69	C6H7O-
96.0454	1	C5H6NO-
97.0295	45	C5H5O2-
97.0659	6	C6H9O-
99.0452	21	C5H7O2-
100.0405	9	C4H6NO2-
102.0562	1	C4H8NO2-
105.0346	27	C7H5O-
105.071	6	C8H9-
107.0503	20	C7H7O-
107.0866	11	C8H11-
109.0296	14	C6H5O2-
109.0659	30	C7H9O-
110.0373	5	C6H6O2-
111.0452	999	C6H7O2-
112.0486	7	CH8N2O4-
113.0609	11	C6H9O2-
115.0401	243	C5H7O3-
117.0711	7	C9H9-
119.0503	15	C8H7O-
119.0867	7	C9H11-
121.0294	10	C7H5O2-
121.066	34	C8H9O-
122.0612	5	C7H8NO-
123.0452	365	C7H7O2-
124.0485	4	C2H8N2O4-
125.0607	15	C7H9O2-
127.04	7	C6H7O3-
129.071	20	C10H9-
130.0423	4	C9H6O-
131.0502	64	C9H7O-
131.0714	4	C6H11O3-
132.0581	5	C9H8O-
133.066	14	C9H9O-
133.1023	5	C10H13-
134.0377	1	C8H6O2-
135.0453	8	C8H7O2-
135.0817	14	C9H11O-
137.0607	104	C8H9O2-
138.056	7	C7H8NO2-
139.0399	8	C7H7O3-
139.0765	23	C8H11O2-
141.0557	41	C7H9O3-
143.0501	2	C10H7O-
143.0865	4	C11H11-
145.0659	21	C10H9O-
145.1022	5	C11H13-
146.0612	1	C9H8NO-
146.0738	1	C10H10O-
147.0452	12	C9H7O2-
147.0815	46	C10H11O-
148.0531	6	C9H8O2-
149.0607	87	C9H9O2-
150.0687	8	C9H10O2-
151.0766	5	C9H11O2-
153.0922	5	C9H13O2-
155.0865	2	C12H11-
155.1077	1	C9H15O2-
156.0581	1	C11H8O-
157.0657	2	C11H9O-
157.0872	2	C8H13O3-
158.0734	1	C11H10O-
159.0457	1	C10H7O2-
159.0818	3	C11H11O-
159.118	4	C12H15-
160.0531	1	C10H8O2-
161.0608	4	C10H9O2-
161.0972	6	C11H13O-
162.0924	4	C10H12NO-
163.0765	86	C10H11O2-
165.0556	9	C9H9O3-
165.092	59	C10H13O2-
167.0711	14	C9H11O3-
169.066	2	C12H9O-
169.1022	1	C13H13-
171.0817	6	C12H11O-
171.118	14	C13H15-
173.0607	7	C11H9O2-
173.097	100	C12H13O-
175.0762	2	C11H11O2-
181.0872	6	C10H13O3-
181.1024	2	C14H13-
183.0817	1	C13H11O-
183.1026	9	C10H15O3-
184.0894	1	C13H12O-
185.1338	6	C14H17-
186.1056	1	C13H14O-
187.113	1	C13H15O-
189.092	13	C12H13O2-
191.0712	14	C11H11O3-
195.1178	1	C15H15-
197.097	5	C14H13O-
197.1341	8	C15H17-
198.1051	7	C14H14O-
199.0774	1	C13H11O2-
199.1128	37	C14H15O-
207.1019	1	C12H15O3-
209.0813	7	C11H13O4-
209.0978	1	C15H13O-
211.0765	1	C14H11O2-
213.0927	1	C14H13O2-
213.1285	6	C15H17O-
215.108	2	C14H15O2-
225.1653	3	C17H21-
227.0925	13	C11H15O5-
238.1368	1	C17H18O-
239.1441	31	C17H19O-
239.1807	2	C18H23-
245.1033	6	C11H17O6-
248.1063	1	C14H16O4-
257.1914	4	C18H25O-
265.1962	5	C20H25-
267.1753	13	C19H23O-
285.186	8	C19H25O2-
291.1752	1	C21H23O-
291.2124	6	C22H27-
293.191	24	C21H25O-
307.2069	6	C22H27O-
333.2217	9	C24H29O-
338.212	8	C22H28NO2-
351.2333	2	C24H31O2-
369.244	1	C24H33O3-
377.2495	7	C26H33O2-
395.2604	1	C26H35O3-
437.2711	2	C28H37O4-
463.2867	1	C30H39O4-
