Mass spectrum: Enrofloxacin; LC-ESI-QFT; MS2; CE: 60; R=35000; [M+H]+
Name: Enrofloxacin
Name: 1-cyclopropyl-7-(4-ethylpiperazin-4-ium-1-yl)-6-fluoro-4-oxoquinoline-3-carboxylate
Formula: C19H22FN3O3
Exact mass: 359.16452
SMILES: CCN1CCN(CC1)C2=C(C=C3C(=C2)N(C=C(C3=O)C(=O)O)C4CC4)F
InChI: InChI=1S/C19H22FN3O3/c1-2-21-5-7-22(8-6-21)17-10-16-13(9-15(17)20)18(24)14(19(25)26)11-23(16)12-3-4-12/h9-12H,2-8H2,1H3,(H,25,26)
Instrument: Q Exactive Plus Orbitrap Thermo Scientific
Instrument type: LC-ESI-QFT
Ms type: MS2
Ion mode: POSITIVE
Ionization: ESI
Fragmentation mode: HCD
Collision energy: 60 (nominal)
Resolution: 35000
Column name: XBridge C18 3.5um, 2.1x50mm, Waters
Retention time: 4.4 min
Base peak: 360.1712
Precursor m/z: 360.1718
Precursor type: [M+H]+
m/z	relative intensity	assigned
53.0022	4	C3HO+
56.0495	89	C3H6N+
57.0573	43	C3H7N+
58.0652	54	C3H8N+
65.0386	4	C5H5+
67.0418	1	C4H5N+
67.0543	8	C5H7+
67.9893	1	C3O2+
68.0495	12	C4H6N+
70.0652	207	C4H8N+
71.073	13	C4H9N+
72.0808	460	C4H10N+
80.0495	1	C5H6N+
82.0289	7	C4H4NO+
82.0651	5	C5H8N+
83.0493	7	C5H7O+
83.0603	1	C4H7N2+
84.0808	453	C5H10N+
85.0886	17	C5H11N+
86.0965	88	C5H12N+
96.0808	14	C6H10N+
97.0761	8	C5H9N2+
98.0839	1	C5H10N2+
98.0966	21	C6H12N+
99.0918	8	C5H11N2+
99.1043	5	C6H13N+
103.0546	1	C8H7+
109.0448	8	C7H6F+
111.0917	4	C6H11N2+
112.0997	4	C6H12N2+
113.1074	1	C6H13N2+
115.0542	1	C9H7+
116.0495	8	C8H6N+
117.0574	2	C8H7N+
118.065	1	C8H8N+
120.0449	1	C7H6NO+
122.0401	2	C7H5FN+
124.0558	2	C7H7FN+
128.0496	2	C9H6N+
128.0622	5	C10H8+
129.0699	8	C10H9+
130.0655	5	C9H8N+
131.0606	9	C8H7N2+
132.0681	1	C8H8N2+
133.045	1	C9H6F+
134.0401	2	C8H5FN+
134.0601	4	C8H8NO+
135.048	69	C8H6FN+
136.0558	78	C8H7FN+
137.0636	1	C8H8FN+
141.0576	1	C10H7N+
142.0655	4	C10H8N+
143.0606	6	C9H7N2+
144.0558	1	C8H6N3+
144.081	4	C10H10N+
146.0527	1	C10H7F+
147.0483	1	C9H6FN+
147.0606	4	C10H8F+
148.0559	21	C9H7FN+
149.0514	3	C8H6FN2+
149.064	2	C9H8FN+
150.0585	1	C8H7FN2+
150.0716	8	C9H9FN+
151.0423	1	C8H6FNO+
151.0667	5	C8H8FN2+
152.0508	6	C8H7FNO+
152.0745	8	C8H9FN2+
154.066	22	C8H9FNO+
155.0605	11	C10H7N2+
155.0732	5	C11H9N+
156.0683	13	C10H8N2+
156.0809	14	C11H10N+
157.0763	5	C10H9N2+
161.0511	17	C9H6FN2+
161.0639	7	C10H8FN+
162.0354	8	C9H5FNO+
162.0591	4	C9H7FN2+
162.0714	14	C10H9FN+
163.0428	13	C9H6FNO+
163.0667	33	C9H8FN2+
164.0508	6	C9H7FNO+
166.0658	1	C12H8N+
167.0732	4	C12H9N+
168.0686	4	C11H8N2+
168.0808	1	C12H10N+
169.0763	34	C11H9N2+
170.0604	6	C11H8NO+
170.0839	1	C11H10N2+
170.0968	1	C12H12N+
171.0921	7	C11H11N2+
172.0557	13	C11H7FN+
173.0637	3	C11H8FN+
174.0592	21	C10H7FN2+
174.0715	27	C11H9FN+
175.0669	37	C10H8FN2+
175.0792	28	C11H10FN+
176.0509	31	C10H7FNO+
176.0746	99	C10H9FN2+
177.0587	6	C10H8FNO+
177.0825	10	C10H10FN2+
178.0302	1	C9H5FNO2+
178.054	5	C9H7FN2O+
178.0667	1	C10H9FNO+
179.0617	6	C9H8FN2O+
180.0455	1	C9H7FNO2+
180.081	2	C13H10N+
181.076	2	C12H9N2+
182.0598	1	C12H8NO+
182.0841	19	C12H10N2+
183.0555	1	C11H7N2O+
183.0678	7	C12H9NO+
183.0919	12	C12H11N2+
184.0633	45	C11H8N2O+
184.0755	15	C12H10NO+
185.051	4	C11H6FN2+
185.0636	11	C12H8FN+
185.0713	11	C11H9N2O+
185.1078	1	C12H13N2+
186.0592	6	C11H7FN2+
186.0717	6	C12H9FN+
187.0429	1	C11H6FNO+
187.0668	18	C11H8FN2+
187.079	1	C12H10FN+
188.0508	27	C11H7FNO+
188.0748	10	C11H9FN2+
188.0871	9	C12H11FN+
189.046	196	C10H6FN2O+
189.0824	63	C11H10FN2+
190.054	19	C10H7FN2O+
190.0664	9	C11H9FNO+
190.09	2	C11H11FN2+
191.0616	30	C10H8FN2O+
191.0978	1	C11H12FN2+
192.0694	4	C10H9FN2O+
195.092	7	C13H11N2+
196.0639	1	C12H8N2O+
196.0996	4	C13H12N2+
197.0711	21	C12H9N2O+
197.1076	13	C13H13N2+
198.079	4	C12H10N2O+
198.0915	1	C13H12NO+
199.0667	2	C12H8FN2+
200.0506	4	C12H7FNO+
200.0747	3	C12H9FN2+
200.0871	4	C13H11FN+
201.0457	1	C11H6FN2O+
201.0584	16	C12H8FNO+
201.0658	1	C11H9N2O2+
201.0826	15	C12H10FN2+
202.03	6	C11H5FNO2+
202.0542	17	C11H7FN2O+
202.0665	71	C12H9FNO+
202.0902	20	C12H11FN2+
203.0617	578	C11H8FN2O+
204.0696	482	C11H9FN2O+
205.0774	95	C11H10FN2O+
206.0841	2	C14H10N2+
206.1212	1	C12H15FN2+
207.0921	2	C14H11N2+
208.0872	1	C13H10N3+
209.0712	8	C13H9N2O+
209.1076	5	C14H13N2+
210.0427	5	C12H6N2O2+
210.0793	4	C13H10N2O+
210.1034	1	C13H12N3+
210.1155	1	C14H14N2+
211.0511	2	C9H8FN2O3+
211.087	6	C13H11N2O+
211.1231	4	C14H15N2+
212.0825	1	C9H11FN3O2+
213.0831	2	C13H10FN2+
214.0663	1	C13H9FNO+
214.0909	1	C13H11FN2+
215.0251	17	C11H4FN2O2+
215.0618	45	C12H8FN2O+
215.0981	12	C13H12FN2+
216.0331	8	C11H5FN2O2+
216.0697	59	C12H9FN2O+
216.082	7	C13H11FNO+
217.0411	93	C11H6FN2O2+
217.0775	90	C12H10FN2O+
217.09	32	C13H12FNO+
217.1137	38	C13H14FN2+
218.0491	7	C11H7FN2O2+
218.0854	5	C12H11FN2O+
218.0979	5	C13H13FNO+
219.093	11	C12H12FN2O+
221.0487	5	C11H8FNO3+
221.0723	6	C11H10FN2O2+
222.1025	1	C14H12N3+
223.0864	7	C14H11N2O+
223.1226	2	C15H15N2+
224.0582	7	C10H9FN2O3+
224.0947	4	C14H12N2O+
225.0665	9	C10H10FN2O3+
225.1024	38	C14H13N2O+
227.0978	21	C14H12FN2+
228.0675	1	C16H8N2+
228.0824	5	C14H11FNO+
229.0413	7	C12H6FN2O2+
229.0774	136	C13H10FN2O+
230.0489	30	C12H7FN2O2+
230.0854	25	C13H11FN2O+
231.0567	24	C12H8FN2O2+
231.0931	156	C13H12FN2O+
232.0887	2	C17H12O+
232.1011	1	C13H13FN2O+
233.1086	4	C13H14FN2O+
234.0439	4	C11H7FN2O3+
235.0519	25	C11H8FN2O3+
235.0636	3	C12H10FNO3+
236.0582	3	C11H9FN2O3+
236.0815	1	C14H10N3O+
236.1184	4	C15H14N3+
237.1023	5	C15H13N2O+
237.1262	1	C15H15N3+
238.0979	11	C14H12N3O+
238.1342	5	C15H16N3+
239.0819	14	C14H11N2O2+
239.1186	3	C15H15N2O+
239.1542	1	C16H19N2+
240.1134	5	C14H14N3O+
242.0861	1	C14H11FN2O+
243.0567	113	C13H8FN2O2+
243.0926	30	C14H12FN2O+
244.0647	7	C13H9FN2O2+
245.1088	999	C14H14FN2O+
247.0517	4	C12H8FN2O3+
252.0772	2	C14H10N3O2+
252.1136	8	C15H14N3O+
253.1213	2	C15H15N3O+
254.1296	2	C12H17FN3O2+
255.057	1	C14H8FN2O2+
255.1366	1	C15H17N3O+
257.1087	70	C15H14FN2O+
258.0675	106	C18H10O2+
258.1041	6	C19H14O+
259.0884	12	C14H12FN2O2+
259.1245	12	C15H16FN2O+
260.1199	10	C19H16O+
261.0672	5	C13H10FN2O3+
264.1129	2	C16H14N3O+
265.1207	1	C16H15N3O+
266.0928	11	C15H12N3O2+
266.129	17	C16H16N3O+
266.1654	8	C17H20N3+
268.1441	7	C16H18N3O+
270.1042	3	C15H13FN3O+
271.0753	47	C19H11O2+
271.0879	3	C15H12FN2O2+
272.0833	4	C19H12O2+
273.1274	3	C15H16FN3O+
273.1406	2	C16H18FN2O+
274.1348	1	C15H17FN3O+
275.1429	6	C18H17N3+
281.1159	10	C16H15N3O2+
284.1194	4	C16H15FN3O+
285.1274	81	C16H16FN3O+
286.0989	689	C15H13FN3O2+
287.102	1	C10H14FN5O4+
288.1508	12	C16H19FN3O+
289.0995	1	C15H14FN2O3+
294.124	9	C17H16N3O2+
294.1603	6	C18H20N3O+
296.1751	2	C18H22N3O+
299.1068	6	C18H16FO3+
300.1146	63	C16H15FN3O2+
300.1503	12	C17H19FN3O+
301.1222	5	C16H16FN3O2+
312.1339	4	C17H18N3O3+
314.1299	12	C17H17FN3O2+
314.1665	27	C18H21FN3O+
316.1825	38	C18H23FN3O+
322.1555	9	C19H20N3O2+
340.1659	1	C19H22N3O3+
342.1616	137	C19H21FN3O2+
360.1721	192	C19H23FN3O3+
