Mass spectrum: Cycloxydim-TP BH 517-TSO E/Z-isomer; LC-ESI-QFT; MS2; CE: 30%; R=17500; [M-H]-
Name: Cycloxydim-TP BH 517-TSO E/Z-isomer
Name: Cycloxydim sulfoxide
Formula: C17H27NO4S
Exact mass: 341.1661
SMILES: CCC\C(=N/OCC)C1=C(O)CC(CC1=O)C1CCCS(=O)C1
InChI: InChI=1S/C17H27NO4S/c1-3-6-14(18-22-4-2)17-15(19)9-13(10-16(17)20)12-7-5-8-23(21)11-12/h12-13,19H,3-11H2,1-2H3/b18-14+
Instrument: Q Exactive Plus Orbitrap Thermo Scientific
Instrument type: LC-ESI-QFT
Ms type: MS2
Ion mode: NEGATIVE
Ionization: ESI
Fragmentation mode: HCD
Collision energy: 30 % (nominal)
Resolution: 17500
Column name: XBridge C18 3.5um, 2.1x50mm, Waters
Retention time: 7.752 min
Base peak: 340.1587
Precursor m/z: 340.1588
Precursor type: [M-H]-
m/z	relative intensity	assigned
58.9959	3	C2H3S-
65.9984	2	C3NO-
99.0273	25	C5H7S-
109.0297	2	C6H5O2-
134.0244	12	C7H4NO2-
175.0761	3	C11H11O2-
176.0711	6	C10H10NO2-
178.0875	13	C10H12NO2-
208.0443	1	C10H10NO2S-
209.0643	6	C11H13O2S-
210.0597	6	C10H12NO2S-
230.119	5	C14H16NO2-
244.1347	1	C15H18NO2-
252.0701	999	C12H14NO3S-
278.122	18	C15H20NO2S-
294.117	155	C15H20NO3S-
296.1325	84	C15H22NO3S-
340.1587	204	C17H26NO4S-
