Mass spectrum: Metsulfuron-methyl; LC-ESI-ITFT; MS2; CE: 75%; R=15000; [M-H]-
Name: Metsulfuron-methyl
Name: 2-[(4-methoxy-6-methyl-s-triazin-2-yl)carbamoylsulfamoyl]benzoic acid methyl ester
Formula: C14H15N5O6S
Exact mass: 381.0743
SMILES: c1(c(cccc1)C(OC)=O)S(NC(Nc1nc(nc(n1)C)OC)=O)(=O)=O
InChI: InChI=1S/C14H15N5O6S/c1-8-15-12(18-14(16-8)25-3)17-13(21)19-26(22,23)10-7-5-4-6-9(10)11(20)24-2/h4-7H,1-3H3,(H2,15,16,17,18,19,21)
Instrument: LTQ Orbitrap XL Thermo Scientific
Instrument type: LC-ESI-ITFT
Ms type: MS2
Ion mode: NEGATIVE
Ionization: ESI
Fragmentation mode: HCD
Collision energy: 75 % (nominal)
Resolution: 15000
Column name: XBridge C18 3.5um, 2.1x50mm, Waters
Retention time: 7.1 min
Base peak: 380.0664
Precursor m/z: 380.067
Precursor type: [M-H]-
m/z	relative intensity	assigned
65.0146	30	C3HN2-
66.0099	81	C2N3-
82.0409	36	C3H4N3-
107.0364	328	C4H3N4-
109.0516	25	C4H5N4-
124.0388	20	C4H4N4O-
125.0469	22	C4H5N4O-
139.0626	999	C5H7N4O-
181.9921	17	C7H4NO3S-
