Mass spectrum: Tiapride; LC-ESI-QFT; MS2; CE: 90; R=35000; [M+H]+
Name: Tiapride
Name: N-(2-diethylaminoethyl)-2-methoxy-5-methylsulfonyl-benzamide
Formula: C15H24N2O4S
Exact mass: 328.14568
SMILES: CCN(CC)CCNC(=O)C1=C(C=CC(=C1)S(=O)(=O)C)OC
InChI: InChI=1S/C15H24N2O4S/c1-5-17(6-2)10-9-16-15(18)13-11-12(22(4,19)20)7-8-14(13)21-3/h7-8,11H,5-6,9-10H2,1-4H3,(H,16,18)
Instrument: Q Exactive Orbitrap Thermo Scientific
Instrument type: LC-ESI-QFT
Ms type: MS2
Ion mode: POSITIVE
Ionization: ESI
Fragmentation mode: HCD
Collision energy: 90 (nominal)
Resolution: 35000
Column name: XBridge C18 3.5um, 2.1x50mm, Waters
Retention time: 2.6 min
Base peak: 329.1529
Precursor m/z: 329.153
Precursor type: [M+H]+
m/z	relative intensity	assigned
62.99	3	CH3OS+
65.0385	82	C5H5+
66.0464	15	C5H6+
67.0542	10	C5H7+
72.0807	46	C4H10N+
74.0963	26	C4H12N+
76.0306	40	C6H4+
77.0385	9	C6H5+
78.0464	205	C6H6+
78.9847	37	CH3O2S+
79.0179	11	C5H3O+
79.0417	10	C5H5N+
79.0541	43	C6H7+
81.0334	19	C5H5O+
86.0965	2	C5H12N+
91.0541	30	C7H7+
93.0333	6	C6H5O+
94.0413	33	C6H6O+
95.0491	43	C6H7O+
99.0263	10	C5H7S+
100.112	43	C6H14N+
104.0256	18	
104.0494	92	C7H6N+
105.0334	62	C7H5O+
105.0572	168	C7H7N+
106.0413	67	C7H6O+
106.0651	22	C7H8N+
107.0127	21	C6H3O2+
107.0491	55	C7H7O+
108.0206	7	C6H4O2+
109.0106	43	C6H5S+
109.0283	20	C6H5O2+
110.0184	11	C6H6S+
110.0363	1	C6H6O2+
120.0443	5	C7H6NO+
121.0648	5	C8H9O+
122.0235	19	C6H4NO2+
122.0362	28	C7H6O2+
123.0075	77	C6H3O3+
123.0439	17	C7H7O2+
124.0517	15	C7H8O2+
125.0055	6	C6H5OS+
132.0444	40	C8H6NO+
133.0522	520	C8H7NO+
134.0361	506	C8H6O2+
134.0599	97	C8H8NO+
135.0438	2	C8H7O2+
136.0392	12	C7H6NO2+
137.0233	26	C7H5O3+
141.0183	2	C6H5O4+
148.0392	2	C8H6NO2+
148.0757	19	C9H10NO+
149.0469	1	C8H7NO2+
150.031	11	C8H6O3+
153.0006	6	C7H5O2S+
153.0181	13	C7H5O4+
154.0082	7	C7H6O2S+
154.9796	26	C6H3O3S+
162.0548	215	C9H8NO2+
165.042	94	C8H7NO3+
166.026	380	C8H6O4+
170.0031	21	C7H6O3S+
173.0266	31	C7H9O3S+
177.0783	395	C10H11NO2+
178.0497	133	C9H8NO3+
180.0655	9	C9H10NO3+
181.9905	19	C7H4NO3S+
183.0222	68	C7H7N2O2S+
185.0266	63	C8H9O3S+
197.0146	1	C8H7NO3S+
209.0681	241	C10H11NO4+
212.0375	156	C9H10NO3S+
213.0214	999	C9H9O4S+
216.0087	13	C14H2NO2+
226.0168	37	C9H8NO4S+
230.0482	8	C9H12NO4S+
241.0403	31	C10H11NO4S+
256.0641	25	C11H14NO4S+
