Mass spectrum: Aspirin; LC-ESI-QFT; MS2; CE: 45; R=35000; [M+H]+
Name: Aspirin
Name: Acetyl salicilic acid
Name: 2-acetyloxybenzoic acid
Formula: C9H8O4
Exact mass: 180.04226
SMILES: CC(=O)OC1=CC=CC=C1C(=O)O
InChI: InChI=1S/C9H8O4/c1-6(10)13-8-5-3-2-4-7(8)9(11)12/h2-5H,1H3,(H,11,12)
Instrument: Q Exactive Plus Orbitrap Thermo Scientific
Instrument type: LC-ESI-QFT
Ms type: MS2
Ion mode: POSITIVE
Ionization: ESI
Fragmentation mode: HCD
Collision energy: 45 (nominal)
Resolution: 35000
Column name: XBridge C18 3.5um, 2.1x50mm, Waters
Retention time: 20.3 min
Base peak: 391.2827
Precursor m/z: 181.0495
Precursor type: [M+H]+
m/z	relative intensity	assigned
51.0228	1	C4H3+
65.0383	5	C5H5+
76.0304	1	C6H4+
79.054	4	C6H7+
92.0255	1	C6H4O+
93.0333	2	C6H5O+
95.049	3	C6H7O+
105.0334	1	C7H5O+
105.0447	2	C6H5N2+
107.049	1	C7H7O+
111.0438	1	C6H7O2+
121.0282	49	C7H5O2+
121.0394	6	C6H5N2O+
133.0282	46	C8H5O2+
135.0438	39	C8H7O2+
149.0231	999	C8H5O3+
163.0386	634	C9H7O3+
167.0337	2	C8H7O4+
181.0492	3	C9H9O4+
