Mass spectrum: Nordiazepam; LC-ESI-QFT; MS2; CE: 60; R=35000; [M+H]+
Name: Nordiazepam
Name: Nordazepam (1-Demethyldiazepam)
Name: 7-chloro-5-phenyl-1,3-dihydro-1,4-benzodiazepin-2-one
Formula: C15H11ClN2O
Exact mass: 270.05599
SMILES: C1C(=O)NC2=C(C=C(C=C2)Cl)C(=N1)C3=CC=CC=C3
InChI: InChI=1S/C15H11ClN2O/c16-11-6-7-13-12(8-11)15(17-9-14(19)18-13)10-4-2-1-3-5-10/h1-8H,9H2,(H,18,19)
Instrument: Q Exactive Plus Orbitrap Thermo Scientific
Instrument type: LC-ESI-QFT
Ms type: MS2
Ion mode: POSITIVE
Ionization: ESI
Fragmentation mode: HCD
Collision energy: 60 (nominal)
Resolution: 35000
Column name: XBridge C18 3.5um, 2.1x50mm, Waters
Retention time: 9.3 min
Base peak: 271.0623
Precursor m/z: 271.0633
Precursor type: [M+H]+
m/z	relative intensity	assigned
65.0385	5	C5H5+
77.0383	5	C6H5+
79.054	3	C6H7+
91.0541	285	C7H7+
95.0491	4	C6H7O+
104.0493	32	C7H6N+
105.0334	21	C7H5O+
105.0447	2	C6H5N2+
105.0572	10	C7H7N+
106.065	10	C7H8N+
113.0151	19	C6H6Cl+
116.0494	71	C8H6N+
117.0572	13	C8H7N+
118.065	13	C8H8N+
126.0104	3	C6H5ClN+
127.0182	40	C6H6ClN+
129.0445	4	C8H5N2+
130.0525	15	C8H6N2+
131.0603	1	C8H7N2+
132.0444	2	C8H6NO+
133.0521	17	C8H7NO+
134.0599	2	C8H8NO+
138.0104	33	C7H5ClN+
139.0056	1	C6H4ClN2+
140.026	999	C7H7ClN+
144.0442	15	C9H6NO+
148.0629	1	C8H8N2O+
150.0104	30	C8H5ClN+
157.0393	2	C9H5N2O+
158.0474	105	C9H6N2O+
162.0547	3	C6H11ClN2O+
163.0056	5	C8H4ClN2+
164.0134	8	C8H5ClN2+
165.0213	626	C8H6ClN2+
166.0053	61	C8H5ClNO+
168.0209	23	C8H7ClNO+
178.0649	2	C13H8N+
179.073	1	C13H9N+
180.0805	22	C13H10N+
181.0884	22	C13H11N+
190.0649	19	C14H8N+
191.0727	73	C14H9N+
192.0806	4	C14H10N+
193.0162	34	C9H6ClN2O+
193.0885	49	C14H11N+
199.0307	13	C13H8Cl+
201.0337	1	C15H5O+
206.0838	21	C14H10N2+
207.0679	21	C14H9NO+
207.0915	67	C14H11N2+
208.0994	585	C14H12N2+
209.0834	8	C14H11NO+
214.0416	72	C13H9ClN+
216.0573	20	C13H11ClN+
217.0758	6	C15H9N2+
218.0837	39	C15H10N2+
219.0677	20	C15H9NO+
226.0416	190	C14H9ClN+
227.0494	36	C14H10ClN+
228.0571	3	C14H11ClN+
235.0863	21	C15H11N2O+
236.0943	6	C15H12N2O+
241.0525	57	C14H10ClN2+
242.0365	5	C14H9ClNO+
242.0603	45	C14H11ClN2+
243.0682	142	C14H12ClN2+
252.0446	2	C15H9ClN2+
253.0523	12	C15H10ClN2+
254.0368	1	C15H9ClNO+
271.063	346	C15H12ClN2O+
