Mass spectrum: 3-[(4-chlorobenzoyl)amino]propanoic acid; LC-ESI-QFT; MS2; CE: 150; R=35000; [M+H]+
Name: 3-[(4-chlorobenzoyl)amino]propanoic acid
Name: N-(4-Chlorobenzoyl)-Beta-alanine
Formula: C10H10ClNO3
Exact mass: 227.03492
SMILES: C1=CC(=CC=C1C(=O)NCCC(=O)O)Cl
InChI: InChI=1S/C10H10ClNO3/c11-8-3-1-7(2-4-8)10(15)12-6-5-9(13)14/h1-4H,5-6H2,(H,12,15)(H,13,14)
Instrument: Q Exactive Plus Orbitrap Thermo Scientific
Instrument type: LC-ESI-QFT
Ms type: MS2
Ion mode: POSITIVE
Ionization: ESI
Fragmentation mode: HCD
Collision energy: 150 (nominal)
Resolution: 35000
Column name: XBridge C18 3.5um, 2.1x50mm, Waters
Retention time: 6.2 min
Base peak: 228.0421
Precursor m/z: 228.0422
Precursor type: [M+H]+
m/z	relative intensity	assigned
50.0151	15	C4H2+
51.0229	7	C4H3+
53.0022	35	C3HO+
55.0179	13	C3H3O+
60.9839	5	C2H2Cl+
65.0022	1	C4HO+
65.0386	9	C5H5+
73.0071	1	C6H+
74.0151	207	C6H2+
75.0229	999	C6H3+
76.0306	22	C6H4+
79.0178	3	C5H3O+
80.0257	2	C5H4O+
84.9839	104	C4H2Cl+
86.9996	31	C4H4Cl+
89.0023	1	C6HO+
93.0336	11	C6H5O+
94.0414	3	C6H6O+
110.9996	97	C6H4Cl+
111.044	6	C6H7O2+
114.9946	3	C5H4ClO+
121.0397	2	C6H5N2O+
129.0102	124	C6H6ClO+
139.0058	261	C9HNO+
140.0026	1	C7H5ClO+
