Mass spectrum: Sulfentrazon; LC-ESI-QFT; MS2; CE: 60; R=35000; [M-H]-
Name: Sulfentrazon
Name: N-(2,4-dichloro-5-(4-(difluoromethyl)-4,5-dihydro-3-methyl-5-oxo-1H-1,2,4-triazol-1-yl)phenyl)methanesulfonamide
Name: N-[2,4-dichloro-5-[4-(difluoromethyl)-3-methyl-5-oxo-1,2,4-triazol-1-yl]phenyl]methanesulfonamide
Formula: C11H10Cl2F2N4O3S
Exact mass: 385.98187
SMILES: O=S(=O)(Nc2c(Cl)cc(Cl)c(N1/N=C(\N(C1=O)C(F)F)C)c2)C
InChI: InChI=1S/C11H10Cl2F2N4O3S/c1-5-16-19(11(20)18(5)10(14)15)9-4-8(17-23(2,21)22)6(12)3-7(9)13/h3-4,10,17H,1-2H3
Instrument: Q Exactive Plus Orbitrap Thermo Scientific
Instrument type: LC-ESI-QFT
Ms type: MS2
Ion mode: NEGATIVE
Ionization: ESI
Fragmentation mode: HCD
Collision energy: 60 (nominal)
Resolution: 35000
Column name: XBridge C18 3.5um, 2.1x50mm, Waters
Retention time: 7.5 min
Base peak: 384.9745
Precursor m/z: 384.9746
Precursor type: [M-H]-
m/z	relative intensity	assigned
50.0036	2	C3N-
63.9625	45	O2S-
65.0084	4	CHF2N-
65.0146	3	C3HN2-
65.9986	1	C3NO-
70.9462	7	Cl2H-
71.0052	29	C2FN2-
74.0039	4	C5N-
76.9704	97	CHO2S-
78.986	10	CH3O2S-
80.0144	1	C4H2NO-
82.0411	14	C3H4N3-
87.0001	9	C2FN2O-
88.0068	2	C5N2-
89.9987	1	C5NO-
91.0114	31	C2HF2N2-
100.0067	39	C6N2-
101.0145	19	C6HN2-
105.0269	4	C3H3F2N2-
106.0349	1	C3H4F2N2-
112.007	1	C7N2-
114.0099	1	C6N3-
114.0225	2	C7H2N2-
115.0178	1	C6HN3-
120.0092	1	C6H2NO2-
121.9804	1	C6HClN-
123.9962	1	C6H3ClN-
126.0098	25	C7N3-
128.0266	42	C4H3FN3O-
136.9914	5	C6H2ClN2-
139.0178	5	C8HN3-
140.0256	21	C8H2N3-
142.0412	1	C8H4N3-
146.0162	20	CH9ClN3OS-
146.9757	1	C7ClN2-
148.0329	66	C9H5FO-
148.9912	7	C7H2ClN2-
153.0226	25	C7H6ClN2-
156.0447	3	C8H4N4-
157.9572	7	C6H2Cl2N-
161.9866	10	C7HClN3-
162.9943	5	C7H2ClN3-
163.9786	11	
164.9861	25	C7H2ClN2O-
165.0206	6	C9HN4-
166.9818	56	C7HClFN2-
168.0206	6	C9H2N3O-
168.9977	1	C7H3ClFN2-
171.024	5	C9H2FN3-
171.9602	118	C6H2Cl2N2-
173.9868	1	C8HClN3-
174.011	12	C2H9ClN3O2S-
174.0307	4	C8H4N3O2-
175.0188	5	C8H2FN3O-
176.0021	10	C8H3ClN3-
176.9863	4	C8H2ClN2O-
177.0102	12	C8H4ClN3-
177.9816	5	C7HClN3O-
178.0179	23	C8H5ClN3-
178.9893	7	C7H2ClN3O-
179.9427	7	C5HCl2FNO-
179.9972	21	C7H3ClN3O-
180.985	9	CH9Cl2N3OS-
181.993	1	C7H2ClFN3-
182.9521	15	C7HCl2N2-
184.0393	14	C9H4N4O-
185.0275	1	C9H2FN4-
185.9517	1	C2HCl2FN4O-
189.9815	124	C8HClN3O-
190.9897	2	C5H5Cl2N4-
192.9813	1	C5H5Cl2N3O-
195.0315	1	C10H3N4O-
195.9602	1	C8H2Cl2N2-
196.9554	19	C7HCl2N3-
198.9473	999	C7HCl2N2O-
199.955	204	C7H2Cl2N2O-
200.9629	63	C7H3Cl2N2O-
201.9507	6	C7HCl2FN2-
202.9816	11	
202.9898	1	C9FN2O3-
203.9971	34	C9H3ClN3O-
207.0007	3	C9H3ClFN3-
208.9798	21	C2H9Cl2N3O2S-
209.9878	14	C8H2ClFN3O-
211.9677	8	C9H4Cl2NO-
212.9629	46	C8H3Cl2N2O-
213.9947	22	C11HFNO3-
215.9748	4	C4H5Cl2FN3O2-
218.9534	9	C7H2Cl2FN2O-
219.9612	2	C7H3Cl2FN2O-
220.0161	5	C9H5ClN4O-
221.0237	69	C9H6ClN4O-
224.9503	7	C8HCl2N3O-
225.9582	289	C8H2Cl2N3O-
228.9924	2	C10H2ClN4O-
231	144	C8H8ClN2O2S-
239.9738	266	C9H4Cl2N3O-
240.9819	2	C9H3ClFN2O3-
244.9564	15	C8H2Cl2FN3O-
251.0136	1	C10H5ClFN4O-
255.9951	24	C8H9Cl2FNO3-
257.0004	8	C9H7Cl2N4O-
266.9846	11	C10H5Cl2N4O-
270.0124	14	C10H5ClF2N4O-
271.0203	10	C10H6ClF2N4O-
278.9784	11	C9H5Cl2F2N3O-
286.9908	5	C10H6Cl2FN4O-
299.0011	33	C10H8ClN4O3S-
304.9819	11	C10H5Cl2F2N4O-
305.9892	25	C10H6Cl2F2N4O-
306.9972	180	C10H7Cl2F2N4O-
334.9782	5	C10H9Cl2N4O3S-
384.9756	1	C11H9Cl2F2N4O3S-
