Mass spectrum: Venlafaxine N-Oxide; LC-ESI-QFT; MS2; CE: 150; R=35000; [M+H]+
Name: Venlafaxine N-Oxide
Name: 2-(1-hydroxycyclohexyl)-2-(4-methoxyphenyl)-N,N-dimethylethanamine oxide
Formula: C17H27NO3
Exact mass: 293.19909
SMILES: OC1(C(C2=CC=C(OC)C=C2)C[N+](C)(C)[O-])CCCCC1
InChI: InChI=1S/C17H27NO3/c1-18(2,20)13-16(17(19)11-5-4-6-12-17)14-7-9-15(21-3)10-8-14/h7-10,16,19H,4-6,11-13H2,1-3H3
Instrument: Q Exactive Plus Orbitrap Thermo Scientific
Instrument type: LC-ESI-QFT
Ms type: MS2
Ion mode: POSITIVE
Ionization: ESI
Fragmentation mode: HCD
Collision energy: 150 (nominal)
Resolution: 35000
Column name: XBridge C18 3.5um, 2.1x50mm, Waters
Retention time: 6.6 min
Base peak: 294.206
Precursor m/z: 294.2064
Precursor type: [M+H]+
m/z	relative intensity	assigned
50.0151	55	C4H2+
51.0229	31	C4H3+
52.0307	17	C4H4+
53.0022	6	C3HO+
53.0386	61	C4H5+
53.9975	1	C2NO+
55.0178	7	C3H3O+
55.0542	15	C4H7+
57.0335	5	C3H5O+
58.0651	8	C3H8N+
62.0151	2	C5H2+
63.0229	16	C5H3+
65.0386	143	C5H5+
66.0463	7	C5H6+
67.0542	4	C5H7+
67.9892	2	C3O2+
76.0307	11	C6H4+
77.0385	112	C6H5+
78.0463	999	C6H6+
79.0178	3	C5H3O+
79.0541	53	C6H7+
81.0335	6	C5H5O+
81.0698	20	C6H9+
89.0386	6	C7H5+
90.0464	2	C7H6+
91.0542	227	C7H7+
92.0257	1	C6H4O+
93.0698	3	C7H9+
94.0413	4	C6H6O+
95.0491	179	C6H7O+
102.0463	3	C8H6+
103.0541	11	C8H7+
104.0621	2	C8H8+
105.0447	104	C6H5N2+
106.0413	30	C7H6O+
107.0491	20	C7H7O+
115.0542	17	C9H7+
116.0619	2	C9H8+
118.0651	1	C8H8N+
119.0491	1	C8H7O+
121.0647	79	C8H9O+
128.0621	3	C10H8+
129.0698	1	C10H9+
131.0491	3	C9H7O+
