Mass spectrum: Thiamphenicol; LC-ESI-QFT; MS2; CE: 45; R=35000; [M-H]-
Name: Thiamphenicol
Name: 2,2-dichloro-N-[1,3-dihydroxy-1-(4-methylsulfonylphenyl)propan-2-yl]acetamide
Formula: C12H15Cl2NO5S
Exact mass: 355.00480
SMILES: CS(=O)(=O)C1=CC=C(C=C1)C(C(CO)NC(=O)C(Cl)Cl)O
InChI: InChI=1S/C12H15Cl2NO5S/c1-21(19,20)8-4-2-7(3-5-8)10(17)9(6-16)15-12(18)11(13)14/h2-5,9-11,16-17H,6H2,1H3,(H,15,18)
Instrument: Q Exactive Plus Orbitrap Thermo Scientific
Instrument type: LC-ESI-QFT
Ms type: MS2
Ion mode: NEGATIVE
Ionization: ESI
Fragmentation mode: HCD
Collision energy: 45 (nominal)
Resolution: 35000
Column name: XBridge C18 3.5um, 2.1x50mm, Waters
Retention time: 3.5 min
Base peak: 353.9974
Precursor m/z: 353.9975
Precursor type: [M-H]-
m/z	relative intensity	assigned
63.9625	191	O2S-
68.0143	1	C3H2NO-
70.0299	14	C3H4NO-
70.9462	9	Cl2H-
71.014	9	C3H3O2-
72.9933	2	C2HO3-
78.986	968	CH3O2S-
82.9461	114	CHCl2-
84.0091	78	C3H2NO2-
86.0248	47	C3H4NO2-
98.0248	13	C4H4NO2-
105.0344	1	C7H5O-
114.0198	4	C4H4NO3-
117.0711	48	C9H9-
119.0503	550	C8H7O-
121.0296	34	C7H5O2-
121.066	27	C8H9O-
125.952	4	C2H2Cl2NO-
126.9359	45	C2HCl2O2-
130.0422	1	C9H6O-
133.0537	1	C8H7NO-
135.0453	1	C8H7O2-
145.066	144	C10H9O-
146.0376	7	C9H6O2-
148.0404	2	C8H6NO2-
154.0095	4	C7H6O2S-
155.0174	108	C7H7O2S-
166.0092	1	C8H6O2S-
168.9966	249	C7H5O3S-
170.0044	50	C7H6O3S-
173.048	1	C10H7NO2-
181.033	111	C9H9O2S-
183.0123	65	C8H7O3S-
184.02	36	C8H8O3S-
185.0279	999	C8H9O3S-
192.0127	1	C9H6NO2S-
194.0044	24	C9H6O3S-
194.0281	15	C9H8NO2S-
195.0122	15	C9H7O3S-
196.0075	2	C8H6NO3S-
196.0441	4	C9H10NO2S-
197.0154	23	C8H7NO3S-
197.0272	6	C9H9O3S-
199.0071	11	C8H7O4S-
208.0437	3	C10H10NO2S-
209.028	53	C10H9O3S-
212.0388	187	C9H10NO3S-
213.0228	2	C9H9O4S-
222.0233	1	C10H8NO3S-
224.0385	3	C10H10NO3S-
227.0387	5	C7H14ClNO3S-
240.0339	13	C10H10NO4S-
252.034	7	C11H10NO4S-
282.0447	6	C12H12NO5S-
