Mass spectrum: Anabaenopeptin A; LC-ESI-QFT; MS2; CE: 75%; R=17500; [M+H]+
Name: Anabaenopeptin A
Name: 2-[[3-benzyl-9-[2-(4-hydroxyphenyl)ethyl]-6,7-dimethyl-2,5,8,11,14-pentaoxo-12-propan-2-yl-1,4,7,10,13-pentazacyclononadec-15-yl]carbamoylamino]-3-(4-hydroxyphenyl)propanoic acid
Formula: C44H57N7O10
Exact mass: 843.4167
SMILES: CC1C(=O)NC(C(=O)NCCCCC(C(=O)NC(C(=O)NC(C(=O)N1C)CCC2=CC=C(C=C2)O)C(C)C)NC(=O)NC(CC3=CC=C(C=C3)O)C(=O)O)CC4=CC=CC=C4
InChI: InChI=1S/C44H57N7O10/c1-26(2)37-41(57)46-34(22-17-28-13-18-31(52)19-14-28)42(58)51(4)27(3)38(54)47-35(24-29-10-6-5-7-11-29)39(55)45-23-9-8-12-33(40(56)50-37)48-44(61)49-36(43(59)60)25-30-15-20-32(53)21-16-30/h5-7,10-11,13-16,18-21,26-27,33-37,52-53H,8-9,12,17,22-25H2,1-4H3,(H,45,55)(H,46,57)(H,47,54)(H,50,56)(H,59,60)(H2,48,49,61)
Instrument: Q Exactive Plus Orbitrap Thermo Scientific
Instrument type: LC-ESI-QFT
Ms type: MS2
Ion mode: POSITIVE
Ionization: ESI
Fragmentation mode: HCD
Collision energy: 75 % (nominal)
Resolution: 17500
Column name: XBridge C18 3.5um, 2.1x50mm, Waters
Retention time: 7.249 min
Base peak: 164.9844
Precursor m/z: 844.424
Precursor type: [M+H]+
m/z	relative intensity	assigned
67.0543	23	C5H7+
68.0494	1	C4H6N+
69.0698	6	C5H9+
70.0651	8	C4H8N+
72.0807	76	C4H10N+
79.0542	4	C6H7+
82.065	14	C5H8N+
84.0808	999	C5H10N+
86.06	169	C4H8NO+
86.0964	3	
91.0542	47	C7H7+
93.0699	13	C7H9+
94.0651	7	C6H8N+
95.0491	16	C6H7O+
96.0808	3	C6H10N+
98.06	5	C5H8NO+
98.0963	3	C6H12N+
99.0189	4	C3H3N2O2+
100.0757	3	C5H10NO+
103.0542	59	C8H7+
105.0449	2	C6H5N2+
105.0699	31	C8H9+
107.0491	227	C7H7O+
110.0599	15	C6H8NO+
110.0963	4	C7H12N+
111.0914	11	C6H11N2+
112.0755	7	C6H10NO+
112.1121	5	C7H14N+
114.0548	10	C5H8NO2+
117.0699	6	C9H9+
118.0649	6	C8H8N+
119.0491	21	C8H7O+
120.0807	389	C8H10N+
121.0648	7	C8H9O+
123.0441	13	C7H7O2+
127.0866	10	C6H11N2O+
128.0704	10	C6H10NO2+
129.0693	8	C10H9+
129.102	21	C6H13N2O+
130.0651	4	C9H8N+
130.086	4	C6H12NO2+
133.0648	7	C9H9O+
134.0601	3	C8H8NO+
134.0965	3	C9H12N+
136.0755	39	C8H10NO+
138.1271	10	C9H16N+
139.0864	3	C7H11N2O+
140.0703	13	C7H10NO2+
144.08	2	C10H10N+
146.0597	14	C9H8NO+
146.0962	7	C10H12N+
147.0442	2	C9H7O2+
147.0681	2	C9H9NO+
150.091	8	C9H12NO+
153.0656	2	C7H9N2O2+
153.102	5	C8H13N2O+
155.081	17	C7H11N2O2+
162.0549	4	C9H8NO2+
165.1389	3	C10H17N2+
173.0916	4	C7H13N2O3+
174.128	10	C12H16N+
181.097	2	C9H13N2O2+
181.1342	2	C10H17N2O+
186.1276	5	C13H16N+
209.1288	7	C11H17N2O2+
226.1551	9	C11H20N3O2+
229.1341	2	H19N7O7+
