Mass spectrum: Droperidol; LC-ESI-QFT; MS2; CE: 120; R=35000; [M+H]+
Name: Droperidol
Name: 3-[1-[4-(4-fluorophenyl)-4-oxobutyl]-3,6-dihydro-2H-pyridin-4-yl]-1H-benzimidazol-2-one
Formula: C22H22FN3O2
Exact mass: 379.16961
SMILES: C1CN(CC=C1N2C3=CC=CC=C3NC2=O)CCCC(=O)C4=CC=C(C=C4)F
InChI: InChI=1S/C22H22FN3O2/c23-17-9-7-16(8-10-17)21(27)6-3-13-25-14-11-18(12-15-25)26-20-5-2-1-4-19(20)24-22(26)28/h1-2,4-5,7-11H,3,6,12-15H2,(H,24,28)
Instrument: Q Exactive Plus Orbitrap Thermo Scientific
Instrument type: LC-ESI-QFT
Ms type: MS2
Ion mode: POSITIVE
Ionization: ESI
Fragmentation mode: HCD
Collision energy: 120 (nominal)
Resolution: 35000
Column name: XBridge C18 3.5um, 2.1x50mm, Waters
Retention time: 5.9 min
Base peak: 380.176
Precursor m/z: 380.1769
Precursor type: [M+H]+
m/z	relative intensity	assigned
50.0151	16	C4H2+
51.023	14	C4H3+
53.0022	8	C3HO+
55.0178	2	C3H3O+
65.0386	5	C5H5+
69.0134	2	C4H2F+
69.0336	1	C4H5O+
71.0292	67	C4H4F+
73.0084	4	C3H2FO+
74.0151	22	C6H2+
75.0229	206	CH2FN3+
79.0178	22	C5H3O+
83.0291	3	C5H4F+
91.0543	1	C7H7+
92.0497	2	C6H6N+
93.0335	15	C6H5O+
95.0292	105	C6H4F+
99.0241	12	C5H4FO+
103.0542	1	C8H7+
105.0447	1	C6H5N2+
109.0448	15	C7H6F+
111.0442	4	C6H7O2+
112.0319	2	C6H5FO+
113.0397	353	C6H6FO+
115.0544	1	C9H7+
117.0572	1	C8H7N+
119.0607	1	C7H7N2+
123.0242	726	C7H4FO+
123.0352	999	C6H4FN2+
124.0324	8	C7H5FO+
127.0543	1	C10H7+
129.0446	1	C8H5N2+
130.0527	1	C8H6N2+
130.065	2	C9H8N+
143.0605	1	C9H7N2+
144.0808	2	C10H10N+
146.0526	5	C10H7F+
155.0605	1	C10H7N2+
171.0553	4	C10H7N2O+
