Mass spectrum: Cyanophos; LC-ESI-QFT; MS2; CE: 30%; R=17500; [M+H]+
Name: Cyanophos
Name: 4-dimethoxyphosphinothioyloxybenzonitrile
Formula: C9H10NO3PS
Exact mass: 243.0119
SMILES: COP(=S)(OC)OC1=CC=C(C=C1)C#N
InChI: InChI=1S/C9H10NO3PS/c1-11-14(15,12-2)13-9-5-3-8(7-10)4-6-9/h3-6H,1-2H3
Instrument: Exploris 240 Orbitrap Thermo Scientific
Instrument type: LC-ESI-QFT
Ms type: MS2
Ion mode: POSITIVE
Ionization: ESI
Fragmentation mode: HCD
Collision energy: 30 % (nominal)
Resolution: 17500
Column name: XBridge C18 3.5um, 2.1x50mm, Waters
Retention time: 6.931 min
Base peak: 244.0192
Precursor m/z: 244.0192
Precursor type: [M+H]+
m/z	relative intensity	assigned
109.0049	235	C2H6O3P+
124.982	403	C2H6O2PS+
134.006	40	C7H4NS+
142.9927	123	C2H8O3PS+
150.037	44	C8H8NS+
157.0081	24	C3H10O3PS+
179.9672	14	C7H3NOPS+
211.9931	214	C8H7NO2PS+
230.0035	334	C8H9NO3PS+
244.0192	999	C9H11NO3PS+
