Mass spectrum: 4-Acetamidoantipyrine; LC-ESI-ITFT; MS2; CE: 75%; R=7500; [M+H]+
Name: 4-Acetamidoantipyrine
Name: N-(1,5-dimethyl-3-oxidanylidene-2-phenyl-pyrazol-4-yl)ethanamide
Formula: C13H15N3O2
Exact mass: 245.1164
SMILES: CC(=O)NC=2C(=O)N(c1ccccc1)N(C)C=2C
InChI: InChI=1S/C13H15N3O2/c1-9-12(14-10(2)17)13(18)16(15(9)3)11-7-5-4-6-8-11/h4-8H,1-3H3,(H,14,17)
Instrument: LTQ Orbitrap XL Thermo Scientific
Instrument type: LC-ESI-ITFT
Ms type: MS2
Ion mode: POSITIVE
Ionization: ESI
Fragmentation mode: HCD
Collision energy: 75 % (nominal)
Resolution: 7500
Column name: XBridge C18 3.5um, 2.1x50mm, Waters
Retention time: 3.7 min
Base peak: 246.1244
Precursor m/z: 246.1237
Precursor type: [M+H]+
m/z	relative intensity	assigned
53.0384	6	C4H5+
56.0495	271	C3H6N+
68.0494	6	C4H6N+
77.0386	71	C6H5+
83.0604	999	C4H7N2+
85.0759	20	C4H9N2+
94.0651	98	C6H8N+
104.0495	572	C7H6N+
105.0446	31	C6H5N2+
118.0653	14	C8H8N+
119.0609	8	C7H7N2+
130.0654	13	C9H8N+
131.0604	16	C8H7N2+
132.0442	12	C8H6NO+
144.068	7	C9H8N2+
144.0812	9	C10H10N+
145.0758	16	C9H9N2+
145.0884	9	C10H11N+
146.06	36	C9H8NO+
159.0542	11	C7H5N5+
159.0918	98	C10H11N2+
171.0553	9	C10H7N2O+
172.0634	17	C10H8N2O+
185.0703	10	C11H9N2O+
187.0855	9	C9H9N5+
189.089	9	C10H11N3O+
