Mass spectrum: Oryzalin; LC-ESI-QFT; MS2; CE: 60; R=35000; [M+H]+
Name: Oryzalin
Name: 4-(dipropylamino)-3,5-dinitro-benzenesulfonamide
Formula: C12H18N4O6S
Exact mass: 346.09471
SMILES: [O-][N+](=O)c1cc(cc([N+]([O-])=O)c1N(CCC)CCC)S(=O)(=O)N
InChI: InChI=1S/C12H18N4O6S/c1-3-5-14(6-4-2)12-10(15(17)18)7-9(23(13,21)22)8-11(12)16(19)20/h7-8H,3-6H2,1-2H3,(H2,13,21,22)
Instrument: Q Exactive Orbitrap Thermo Scientific
Instrument type: LC-ESI-QFT
Ms type: MS2
Ion mode: POSITIVE
Ionization: ESI
Fragmentation mode: HCD
Collision energy: 60 (nominal)
Resolution: 35000
Column name: XBridge C18 3.5um, 2.1x50mm, Waters
Retention time: 12.1 min
Base peak: 347.1021
Precursor m/z: 347.102
Precursor type: [M+H]+
m/z	relative intensity	assigned
52.0182	29	C3H2N+
53.0023	42	C3HO+
53.9976	4	C2NO+
54.0339	12	C3H4N+
55.0179	4	C3H3O+
55.0292	3	C2H3N2+
56.0132	98	C2H2NO+
56.0496	5	C3H6N+
57.0335	23	C3H5O+
59.0492	6	C3H7O+
63.9852	40	H2NOS+
64.0182	21	C4H2N+
65.026	25	C4H3N+
65.0386	4	C5H5+
66.0212	12	C3H2N2+
66.0337	3	C4H4N+
67.0052	3	C3HNO+
67.0291	3	C3H3N2+
67.0417	15	C4H5N+
67.9893	5	C3O2+
68.013	23	C3H2NO+
68.9971	7	C3HO2+
69.0083	6	C2HN2O+
76.0182	5	C5H2N+
77.0134	7	C4HN2+
77.026	17	C5H3N+
78.0213	12	C4H2N2+
78.0338	140	C5H4N+
79.0291	52	C4H3N2+
79.0416	12	C5H5N+
79.0543	14	C6H7+
79.9802	3	H2NO2S+
80.0132	47	C4H2NO+
80.0369	6	C4H4N2+
80.0495	20	C5H6N+
81.0208	6	C4H3NO+
81.0573	3	C5H7N+
82.0288	12	C4H4NO+
84.0444	6	C4H6NO+
90.0213	6	C5H2N2+
90.0339	4	C6H4N+
91.0291	15	C5H3N2+
91.0417	4	C6H5N+
91.0542	29	C7H7+
92.013	16	C5H2NO+
92.0369	52	C5H4N2+
92.0495	6	C6H6N+
93.0209	25	C5H3NO+
93.0447	31	C5H5N2+
93.07	7	C7H9+
94.0161	6	C4H2N2O+
94.0287	15	C5H4NO+
94.0525	5	C5H6N2+
95.024	18	C4H3N2O+
95.0366	4	C5H5NO+
96.008	5	C4H2NO2+
96.0444	7	C5H6NO+
103.0291	4	C6H3N2+
103.0543	19	C8H7+
104.0495	36	C7H6N+
105.0085	5	C5HN2O+
105.0209	6	C6H3NO+
105.0448	69	C6H5N2+
105.0573	18	C7H7N+
105.0699	7	C8H9+
106.0161	4	C5H2N2O+
106.0525	15	C6H6N2+
106.0653	6	C7H8N+
107.0239	12	C5H3N2O+
108.0082	14	C5H2NO2+
108.0319	7	C5H4N2O+
108.0445	5	C6H6NO+
109.0158	5	C5H3NO2+
109.0397	4	C5H5N2O+
110.0236	4	C5H4NO2+
110.0474	3	C5H6N2O+
115.0542	11	C9H7+
116.0495	37	C8H6N+
117.0446	17	C7H5N2+
117.0572	200	C8H7N+
118.0162	5	C6H2N2O+
118.0399	13	C6H4N3+
118.0524	22	C7H6N2+
118.0651	28	C8H8N+
119.024	90	C6H3N2O+
120.0319	4	C6H4N2O+
120.0555	17	C6H6N3+
120.0807	47	C8H10N+
121.0396	52	C6H5N2O+
121.0634	14	C6H7N3+
122.0231	4	C6H4NO2+
122.0474	7	C6H6N2O+
123.0189	16	C5H3N2O2+
124.0267	11	C5H4N2O2+
130.0652	18	C9H8N+
131.0242	3	C7H3N2O+
131.0605	43	C8H7N2+
131.0731	17	C9H9N+
132.0318	44	C7H4N2O+
132.0682	13	C8H8N2+
132.0809	125	C9H10N+
133.0397	236	C7H5N2O+
134.0348	6	C6H4N3O+
134.0475	23	C7H6N2O+
134.0599	5	C8H8NO+
135.0189	25	C6H3N2O2+
135.0426	21	C6H5N3O+
135.0553	14	C7H7N2O+
136.0268	34	C6H4N2O2+
136.0756	13	C8H10NO+
137.0345	16	C6H5N2O2+
143.0605	18	C9H7N2+
144.0685	6	C9H8N2+
145.0397	143	C8H5N2O+
145.0761	59	C9H9N2+
146.0473	8	C8H6N2O+
148.0142	40	C6H2N3O2+
148.0268	5	C7H4N2O2+
148.0504	36	C7H6N3O+
148.0756	35	C9H10NO+
149.022	6	C6H3N3O2+
149.0347	94	C7H5N2O2+
149.0584	6	C7H7N3O+
150.0299	4	C6H4N3O2+
150.0424	12	C7H6N2O2+
151.0138	3	C6H3N2O3+
151.0378	5	C6H5N3O2+
151.0501	13	C7H7N2O2+
152.0217	40	C6H4N2O3+
159.0554	13	C9H7N2O+
160.0631	4	C9H8N2O+
161.046	3	C7H5N4O+
161.071	69	C9H9N2O+
163.0504	15	C8H7N2O2+
165.0169	17	C6H3N3O3+
166.0247	12	C6H4N3O3+
167.045	20	C7H7N2O3+
170.0145	77	C6H6N2O2S+
171.0223	77	C6H7N2O2S+
177.0659	44	C9H9N2O2+
178.0248	28	C7H4N3O3+
178.0734	6	C9H10N2O2+
179.0328	21	C7H5N3O3+
182.0197	46	C6H4N3O4+
184.0355	4	C6H6N3O4+
185.025	3	C6H7N3O2S+
190.0607	4	C9H8N3O2+
194.9859	19	C7H3N2O3S+
197.0013	4	C7H5N2O3S+
197.0254	87	C7H7N3O2S+
198.0146	999	C6H4N3O5+
200.0126	17	C6H6N3O3S+
200.0302	15	C6H6N3O5+
201.0205	17	C6H7N3O3S+
206.0309	3	CH10N4O6S+
211.0228	12	C7H5N3O5+
212.0127	67	C7H6N3O3S+
213.0203	169	C7H7N3O3S+
217.0154	41	C6H7N3O4S+
223.0414	17	C9H9N3O2S+
224.0489	24	C9H10N3O2S+
225.0568	44	C9H11N3O2S+
227.9707	14	C6H2N3O5S+
227.9949	29	C6H4N4O4S+
228.0076	132	C7H6N3O4S+
230.0121	3	C8H8NO5S+
230.0231	17	C7H8N3O4S+
232.0027	32	C6H6N3O5S+
238.0286	6	C9H8N3O3S+
240.0435	36	C9H10N3O3S+
240.0615	99	C9H10N3O5+
241.0519	6	C9H11N3O3S+
241.9868	6	C7H4N3O5S+
242.0107	30	C7H6N4O4S+
243.0184	143	C7H7N4O4S+
244.9973	24	C6H5N4O5S+
245.9818	173	C6H4N3O6S+
246.0051	61	C6H6N4O5S+
247.0135	14	C6H7N4O5S+
255.0189	11	C8H7N4O4S+
256.0389	5	C9H10N3O4S+
259.0134	129	C7H7N4O5S+
263.0083	22	C6H7N4O6S+
269.0342	46	C9H9N4O4S+
271.0498	42	C9H11N4O4S+
288.0289	4	C9H10N3O6S+
