Mass spectrum: Propanil; LC-ESI-QFT; MS2; CE: 30; R=35000; [M+H]+
Name: Propanil
Name: N-(3,4-dichlorophenyl)propanamide
Formula: C9H9Cl2NO
Exact mass: 217.00612
SMILES: Clc1ccc(NC(=O)CC)cc1Cl
InChI: InChI=1S/C9H9Cl2NO/c1-2-9(13)12-6-3-4-7(10)8(11)5-6/h3-5H,2H2,1H3,(H,12,13)
Instrument: Q Exactive Orbitrap Thermo Scientific
Instrument type: LC-ESI-QFT
Ms type: MS2
Ion mode: POSITIVE
Ionization: ESI
Fragmentation mode: HCD
Collision energy: 30 (nominal)
Resolution: 35000
Column name: XBridge C18 3.5um, 2.1x50mm, Waters
Retention time: 10.3 min
Base peak: 218.0138
Precursor m/z: 218.0134
Precursor type: [M+H]+
m/z	relative intensity	assigned
57.032	1	CH3N3+
57.0334	19	C3H5O+
127.0183	71	C6H6ClN+
161.9872	999	C6H6Cl2N+
200.0028	1	C9H8Cl2N+
218.0135	868	C9H10Cl2NO+
