Mass spectrum: Terbuthylazine-TP CSCD692760 (LM3); LC-ESI-QFT; MS2; CE: 45%; R=17500; [M+H]+
Name: Terbuthylazine-TP CSCD692760 (LM3)
Name: 6-Hydroxy-7,7-dimethyl-7,8-dihydroimidazo[1,2-a][1,3,5]triazine-2,4(3H,6H)-dione
Formula: C7H10N4O3
Exact mass: 198.0753
SMILES: CC1(C)NC2=NC(O)=NC(=O)N2C1O
InChI: InChI=1S/C7H10N4O3/c1-7(2)3(12)11-4(10-7)8-5(13)9-6(11)14/h3,12H,1-2H3,(H2,8,9,10,13,14)
Instrument: Q Exactive Plus Orbitrap Thermo Scientific
Instrument type: LC-ESI-QFT
Ms type: MS2
Ion mode: POSITIVE
Ionization: ESI
Fragmentation mode: HCD
Collision energy: 45 % (nominal)
Resolution: 17500
Column name: XBridge C18 3.5um, 2.1x50mm, Waters
Retention time: 1.307 min
Base peak: 199.0826
Precursor m/z: 199.0826
Precursor type: [M+H]+
m/z	relative intensity	assigned
53.0386	21	C4H5+
69.0082	4	C2HN2O+
70.0651	64	C4H8N+
71.0491	71	C4H7O+
86.0349	77	C2H4N3O+
87.019	58	C2H3N2O2+
88.0756	7	C4H10NO+
95.0604	3	C5H7N2+
96.0443	13	C5H6NO+
110.0712	79	C5H8N3+
112.0871	3	C5H10N3+
113.0709	97	C5H9N2O+
114.0545	4	
114.0662	230	C4H8N3O+
129.0407	618	C3H5N4O2+
138.0662	508	C6H8N3O+
139.0502	161	C6H7N2O2+
140.0453	6	C5H6N3O2+
156.0768	227	C6H10N3O2+
157.0608	7	C6H9N2O3+
157.0724	5	C5H9N4O2+
181.072	595	C7H9N4O2+
182.0561	12	C7H8N3O3+
199.0825	999	C7H11N4O3+
