Mass spectrum: Norfloxacin; LC-ESI-ITFT; MS2; CE: 45%; R=15000; [M+H]+
Name: Norfloxacin
Name: 1-ethyl-6-fluoro-4-oxo-7-piperazin-1-yl-1,4-dihydroquinoline-3-carboxylic acid
Formula: C16H18FN3O3
Exact mass: 319.1332
SMILES: CCN1C=C(C(O)=O)C(=O)C2=CC(F)=C(C=C12)N3CCNCC3
InChI: InChI=1S/C16H18FN3O3/c1-2-19-9-11(16(22)23)15(21)10-7-12(17)14(8-13(10)19)20-5-3-18-4-6-20/h7-9,18H,2-6H2,1H3,(H,22,23)
Instrument: LTQ Orbitrap XL Thermo Scientific
Instrument type: LC-ESI-ITFT
Ms type: MS2
Ion mode: POSITIVE
Ionization: ESI
Fragmentation mode: HCD
Collision energy: 45 % (nominal)
Resolution: 15000
Column name: XBridge C18 3.5um, 2.1x50mm, Waters
Retention time: 4.4 min
Base peak: 320.1415
Precursor m/z: 320.1405
Precursor type: [M+H]+
m/z	relative intensity	assigned
58.0651	1	C3H8N+
70.0652	4	C4H8N+
185.0713	1	C11H9N2O+
191.0615	1	C10H8FN2O+
192.0692	1	C10H9FN2O+
192.0824	2	C11H11FNO+
201.1026	2	C12H13N2O+
203.0616	6	C11H8FN2O+
204.0695	12	C11H9FN2O+
205.0773	27	C11H10FN2O+
206.0853	10	C11H11FN2O+
207.0929	6	C11H12FN2O+
212.0822	1	C12H10N3O+
213.1025	2	C13H13N2O+
215.098	3	C13H12FN2+
218.0853	1	C12H11FN2O+
219.093	53	C12H12FN2O+
220.1008	3	C12H13FN2O+
226.0978	3	C13H12N3O+
227.1055	11	C13H13N3O+
228.1133	10	C13H14N3O+
230.0847	1	C16H10N2+
231.0566	6	C12H8FN2O2+
231.0929	3	C13H12FN2O+
233.1088	338	C13H14FN2O+
241.1209	2	C14H15N3O+
245.1086	2	C14H14FN2O+
247.1118	2	C13H14FN3O+
248.1197	2	C13H15FN3O+
254.0925	1	C14H12N3O2+
254.1283	2	C15H16N3O+
256.1446	72	C12H19FN3O2+
259.0882	3	C14H12FN2O2+
259.1244	3	C15H16FN2O+
274.099	2	C14H13FN3O2+
274.135	16	C15H17FN3O+
276.1509	232	C15H19FN3O+
282.1237	41	C16H16N3O2+
300.1341	8	C16H18N3O3+
302.1298	999	C16H17FN3O2+
320.1407	343	C16H19FN3O3+
