Mass spectrum: Pethoxamide; LC-ESI-ITFT; MS2; CE: 60%; R=15000; [M+H]+
Name: Pethoxamide
Name: 2-chloro-N-(2-ethoxyethyl)-N-(2-methyl-1-phenylprop-1-enyl)acetamide
Formula: C16H22ClNO2
Exact mass: 295.1334
SMILES: ClCC(=O)N(CCOCC)\C(=C(\C)C)c1ccccc1
InChI: InChI=1S/C16H22ClNO2/c1-4-20-11-10-18(15(19)12-17)16(13(2)3)14-8-6-5-7-9-14/h5-9H,4,10-12H2,1-3H3
Instrument: LTQ Orbitrap XL Thermo Scientific
Instrument type: LC-ESI-ITFT
Ms type: MS2
Ion mode: POSITIVE
Ionization: ESI
Fragmentation mode: HCD
Collision energy: 60 % (nominal)
Resolution: 15000
Column name: XBridge C18 3.5um, 2.1x50mm, Waters
Retention time: 11.5 min
Base peak: 296.1418
Precursor m/z: 296.1412
Precursor type: [M+H]+
m/z	relative intensity	assigned
73.0648	8	C4H9O+
91.0543	384	C7H7+
103.0542	12	C8H7+
104.0494	7	C7H6N+
105.0699	32	C8H9+
115.0542	12	C9H7+
116.062	66	C9H8+
120.0209	3	C4H7ClNO+
128.0617	2	C10H8+
129.0699	118	C10H9+
130.0653	1	C9H8N+
131.0856	999	C10H11+
143.0605	4	C9H7N2+
146.0966	7	C10H12N+
147.104	4	C10H13N+
148.1122	7	C10H14N+
158.0962	3	C11H12N+
159.104	4	C11H13N+
160.112	71	C11H14N+
172.1121	3	C12H14N+
174.1276	16	C12H16N+
190.1225	7	C12H16NO+
220.1695	35	C14H22NO+
