Mass spectrum: Mesosulfuron-methyl; LC-ESI-QFT; MS2; CE: 60; R=35000; [M+H]+
Name: Mesosulfuron-methyl
Name: 2-[(4,6-dimethoxypyrimidin-2-yl)carbamoylsulfamoyl]-4-(methanesulfonamidomethyl)benzoic acid methyl ester
Formula: C17H21N5O9S2
Exact mass: 503.07807
SMILES: O=C(Nc1nc(cc(OC)n1)OC)NS(=O)(=O)c2cc(CNS(C)(=O)=O)ccc2C(=O)OC
InChI: InChI=1S/C17H21N5O9S2/c1-29-13-8-14(30-2)20-16(19-13)21-17(24)22-33(27,28)12-7-10(9-18-32(4,25)26)5-6-11(12)15(23)31-3/h5-8,18H,9H2,1-4H3,(H2,19,20,21,22,24)
Instrument: Q Exactive Orbitrap Thermo Scientific
Instrument type: LC-ESI-QFT
Ms type: MS2
Ion mode: POSITIVE
Ionization: ESI
Fragmentation mode: HCD
Collision energy: 60 (nominal)
Resolution: 35000
Column name: XBridge C18 3.5um, 2.1x50mm, Waters
Retention time: 8.9 min
Base peak: 504.0852
Precursor m/z: 504.0853
Precursor type: [M+H]+
m/z	relative intensity	assigned
56.0133	3	C2H2NO+
57.0449	13	C2H5N2+
58.0288	5	C2H4NO+
68.0131	11	C3H2NO+
68.9971	13	C3HO2+
69.008	1	C2HN2O+
71.0604	30	C3H7N2+
72.0444	5	C3H6NO+
77.0386	4	C6H5+
78.9848	3	CH3O2S+
79.0542	17	C6H7+
81.0447	8	C4H5N2+
82.0287	25	C4H4NO+
83.0239	808	C3H3N2O+
89.0385	1	C7H5+
91.054	2	C7H7+
92.0255	1	C6H4O+
93.0082	19	C4HN2O+
95.0492	3	C6H7O+
100.0393	101	C4H6NO2+
104.0494	42	C7H6N+
105.0334	4	C7H5O+
105.0447	3	C6H5N2+
106.0399	1	C5H4N3+
106.065	16	C7H8N+
107.024	6	C5H3N2O+
107.0491	6	C7H7O+
109.0396	6	C5H5N2O+
110.0237	1	C5H4NO2+
111.0426	1	C4H5N3O+
112.0505	1	C4H6N3O+
113.0584	1	C4H7N3O+
114.055	3	C5H8NO2+
117.0445	2	C7H5N2+
118.0286	3	C7H4NO+
119.0365	8	C7H5NO+
119.0604	2	C7H7N2+
124.0504	16	C5H6N3O+
125.0345	4	C5H5N2O2+
126.0186	8	C5H4NO3+
127.0501	4	C5H7N2O2+
132.0444	16	C8H6NO+
133.0523	1	C8H7NO+
134.0599	11	C8H8NO+
135.044	26	C8H7O2+
138.0299	1	C5H4N3O2+
138.0663	7	C6H8N3O+
139.0501	293	C6H7N2O2+
140.0454	3	C5H6N3O2+
141.0531	10	C5H7N3O2+
145.0396	1	C8H5N2O+
146.0234	2	C8H4NO2+
147.0308	1	C8H5NO2+
147.0552	16	C8H7N2O+
148.0391	6	C8H6NO2+
150.0297	10	C6H4N3O2+
156.0767	100	C6H10N3O2+
157.0607	572	C6H9N2O3+
162.0548	363	C9H8NO2+
166.0246	2	C6H4N3O3+
167.0322	9	C6H5N3O3+
173.0344	17	C9H5N2O2+
182.056	999	C7H8N3O3+
196.0058	2	H10N3O5S2+
196.9899	3	H9N2O6S2+
211.0175	3	C8H7N2O3S+
226.0169	4	C9H8NO4S+
242.0481	3	C2H16N3O6S2+
