Mass spectrum: Nitenpyram; LC-ESI-QFT; MS2; CE: 15%; R=17500; [M+H]+
Name: Nitenpyram
Name: N-((6-chloropyridin-3-yl)methyl)-N-ethyl-N`-methyl-2-nitroethene-1,1-diamine
Name: 1-N`-[(6-chloropyridin-3-yl)methyl]-1-N`-ethyl-1-N-methyl-2-nitroethene-1,1-diamine
Formula: C11H15ClN4O2
Exact mass: 270.0884
SMILES: CCN(CC1=CN=C(C=C1)Cl)C(=C[N+](=O)[O-])NC
InChI: InChI=1S/C11H15ClN4O2/c1-3-15(11(13-2)8-16(17)18)7-9-4-5-10(12)14-6-9/h4-6,8,13H,3,7H2,1-2H3
Instrument: Exploris 240 Orbitrap Thermo Scientific
Instrument type: LC-ESI-QFT
Ms type: MS2
Ion mode: POSITIVE
Ionization: ESI
Fragmentation mode: HCD
Collision energy: 15 % (nominal)
Resolution: 17500
Column name: XBridge C18 3.5um, 2.1x50mm, Waters
Retention time: 2.582 min
Base peak: 271.0955
Precursor m/z: 271.0956
Precursor type: [M+H]+
m/z	relative intensity	assigned
99.0917	27	C5H11N2+
115.0864	16	C5H11N2O+
129.0895	6	C5H11N3O+
130.0975	20	C5H12N3O+
189.1256	8	C11H15N3+
194.0606	7	C10H11ClN2+
224.0955	18	C11H15ClN3+
225.1029	424	C11H16ClN3+
271.0958	999	C11H16ClN4O2+
