Mass spectrum: Ranitidine; LC-ESI-ITFT; MS2; CE: 75%; R=15000; [M+H]+
Name: Ranitidine
Name: 1,1-Ethenediamine, N-(2-(((5-((dimethylamino)methyl)-2-furanyl)methyl)thio)ethyl)-N'-methyl-2-nitro-
Name: 1-N'-[2-[[5-(dimethylaminomethyl)furan-2-yl]methylsulfanyl]ethyl]-1-N-methyl-2-nitroethene-1,1-diamine
Formula: C13H22N4O3S
Exact mass: 314.1413
SMILES: CN\C(NCCSCC1=CC=C(CN(C)C)O1)=C/[N+]([O-])=O
InChI: InChI=1S/C13H22N4O3S/c1-14-13(9-17(18)19)15-6-7-21-10-12-5-4-11(20-12)8-16(2)3/h4-5,9,14-15H,6-8,10H2,1-3H3/b13-9+
Instrument: LTQ Orbitrap XL Thermo Scientific
Instrument type: LC-ESI-ITFT
Ms type: MS2
Ion mode: POSITIVE
Ionization: ESI
Fragmentation mode: HCD
Collision energy: 75 % (nominal)
Resolution: 15000
Column name: XBridge C18 3.5um, 2.1x50mm, Waters
Retention time: 1.9 min
Base peak: 315.1494
Precursor m/z: 315.1485
Precursor type: [M+H]+
m/z	relative intensity	assigned
54.0336	6	C3H4N+
55.0416	30	C3H5N+
56.0495	26	C3H6N+
57.0447	10	C2H5N2+
58.065	15	C3H8N+
60.0029	8	C2H4S+
60.9981	6	CH3NS+
61.0106	38	C2H5S+
68.0495	12	C4H6N+
71.0604	10	C3H7N2+
79.0542	13	C6H7+
80.0495	8	C5H6N+
81.0335	453	C5H5O+
82.0651	14	C5H8N+
83.0603	38	C4H7N2+
84.0682	13	C4H8N2+
88.0215	17	C3H6NS+
91.0542	14	C7H7+
94.0412	9	C6H6O+
94.0652	20	C6H8N+
95.0491	45	C6H7O+
95.0729	18	C6H9N+
97.076	381	C5H9N2+
98.0838	194	C5H10N2+
101.0294	10	C4H7NS+
102.0372	999	C4H8NS+
106.0648	8	C7H8N+
107.0491	119	C7H7O+
108.0568	14	C7H8O+
108.0807	24	C7H10N+
109.0283	7	C6H5O2+
109.0762	6	C6H9N2+
110.0601	29	C6H8NO+
110.0964	72	C7H12N+
115.0323	14	C4H7N2S+
117.0481	39	C4H9N2S+
118.0649	22	C8H8N+
120.0808	19	C8H10N+
121.076	87	C7H9N2+
123.0264	6	C7H7S+
124.0757	20	C7H10NO+
125.0056	709	C6H5OS+
129.048	31	C5H9N2S+
130.0559	156	C5H10N2S+
131.064	9	C5H11N2S+
132.0444	64	C8H6NO+
133.0522	60	C8H7NO+
133.0759	8	C8H9N2+
134.0602	14	C8H8NO+
134.0843	7	C8H10N2+
135.0263	14	C8H7S+
135.0916	132	C8H11N2+
136.0757	8	C8H10NO+
137.1072	7	C8H13N2+
147.0678	32	C9H9NO+
147.0919	15	C9H11N2+
148.0756	196	C9H10NO+
149.0709	53	C8H9N2O+
149.1075	7	C9H13N2+
150.0375	7	C8H8NS+
150.0921	6	C9H12NO+
151.0211	21	C8H7OS+
159.0459	16	C5H9N3OS+
163.0865	69	C9H11N2O+
165.1023	49	C9H13N2O+
167.0637	28	C8H11N2S+
176.0495	21	C13H6N+
177.1022	101	C10H13N2O+
178.032	41	C9H8NOS+
181.0793	14	C9H13N2S+
191.1179	25	C11H15N2O+
192.0477	24	C10H10NOS+
209.0745	10	C10H13N2OS+
223.0898	7	C11H15N2OS+
