Mass spectrum: Exemestane; LC-ESI-ITFT; MS2; CE: 60%; R=15000; [M+H]+
Name: Exemestane
Name: (8R,9S,10R,13S,14S)-10,13-dimethyl-6-methylene-7,8,9,11,12,14,15,16-octahydrocyclopenta[a]phenanthrene-3,17-dione
Formula: C20H24O2
Exact mass: 296.1776
SMILES: CC12CCC3C(C1CCC2=O)CC(=C)C4=CC(=O)C=CC34C
InChI: InChI=1S/C20H24O2/c1-12-10-14-15-4-5-18(22)20(15,3)9-7-16(14)19(2)8-6-13(21)11-17(12)19/h6,8,11,14-16H,1,4-5,7,9-10H2,2-3H3/t14-,15-,16-,19+,20-/m0/s1
Instrument: LTQ Orbitrap XL Thermo Scientific
Instrument type: LC-ESI-ITFT
Ms type: MS2
Ion mode: POSITIVE
Ionization: ESI
Fragmentation mode: HCD
Collision energy: 60 % (nominal)
Resolution: 15000
Column name: XBridge C18 3.5um, 2.1x50mm, Waters
Retention time: 10.1 min
Base peak: 297.1859
Precursor m/z: 297.1849
Precursor type: [M+H]+
m/z	relative intensity	assigned
67.0542	49	C5H7+
77.0386	35	C6H5+
79.0542	456	C6H7+
81.0699	83	C6H9+
91.0542	285	C7H7+
93.0699	999	C7H9+
95.0855	57	C7H11+
97.0649	146	C6H9O+
105.0699	536	C8H9+
107.0855	495	C8H11+
109.0648	58	C7H9O+
117.0701	78	C9H9+
119.0854	185	C9H11+
121.0648	867	C8H9O+
121.1011	645	C9H13+
129.0699	83	C10H9+
130.0775	36	C10H10+
131.0856	272	C10H11+
132.0567	54	C9H8O+
133.0648	61	C9H9O+
133.1013	80	C10H13+
135.0804	331	C9H11O+
135.1167	44	C10H15+
143.0855	77	C11H11+
145.0645	106	C10H9O+
145.1012	262	C11H13+
147.0804	302	C10H11O+
147.1168	45	C11H15+
149.0961	375	C10H13O+
157.1017	45	C12H13+
159.0804	150	C11H11O+
161.096	118	C11H13O+
171.0805	49	C12H11O+
171.1173	51	C13H15+
173.0959	111	C12H13O+
175.0752	42	C11H11O2+
175.1118	23	C12H15O+
185.0961	127	C13H13O+
197.096	63	C14H13O+
199.1118	41	C14H15O+
209.0966	73	C15H13O+
211.1115	54	C15H15O+
223.1126	43	C16H15O+
237.1272	54	C17H17O+
