Mass spectrum: Aspirin; LC-ESI-QFT; MS2; CE: 120; R=35000; [M+H]+
Name: Aspirin
Name: Acetyl salicilic acid
Name: 2-acetyloxybenzoic acid
Formula: C9H8O4
Exact mass: 180.04226
SMILES: CC(=O)OC1=CC=CC=C1C(=O)O
InChI: InChI=1S/C9H8O4/c1-6(10)13-8-5-3-2-4-7(8)9(11)12/h2-5H,1H3,(H,11,12)
Instrument: Q Exactive Plus Orbitrap Thermo Scientific
Instrument type: LC-ESI-QFT
Ms type: MS2
Ion mode: POSITIVE
Ionization: ESI
Fragmentation mode: HCD
Collision energy: 120 (nominal)
Resolution: 35000
Column name: XBridge C18 3.5um, 2.1x50mm, Waters
Retention time: 20.3 min
Base peak: 391.2827
Precursor m/z: 181.0495
Precursor type: [M+H]+
m/z	relative intensity	assigned
50.0151	44	C4H2+
51.0229	28	C4H3+
53.0021	19	C3HO+
53.0385	73	C4H5+
54.0463	6	C4H6+
55.0178	7	C3H3O+
62.0149	2	C5H2+
63.0228	43	C5H3+
64.0307	47	C5H4+
65.0385	999	C5H5+
67.0541	2	C5H7+
67.9891	4	C3O2+
68.997	2	C3HO2+
77.0384	210	C6H5+
79.0541	12	C6H7+
80.0255	2	C5H4O+
81.0333	14	C5H5O+
91.0541	4	C7H7+
92.0255	397	C6H4O+
93.0334	20	C6H5O+
94.0412	6	C6H6O+
95.049	261	C6H7O+
98.0361	1	C5H6O2+
105.0333	27	C7H5O+
105.0446	186	C6H5N2+
109.0646	2	C7H9O+
111.0439	30	C6H7O2+
120.0205	6	C7H4O2+
121.0282	34	C7H5O2+
121.0395	62	C6H5N2O+
133.0282	7	C8H5O2+
135.0438	8	C8H7O2+
138.0308	3	C7H6O3+
149.0232	8	C8H5O3+
