Mass spectrum: 4-Hydroxybenzotriazole; LC-ESI-QFT; MS2; CE: 120; R=35000; [M+H]+
Name: 4-Hydroxybenzotriazole
Name: 1,2-dihydrobenzotriazol-4-one
Name: 2H-benzotriazol-4-ol
Name: 4-Hydroxy-1H-benzotriazole
Formula: C6H5N3O
Exact mass: 135.04326178
SMILES: C1=CC2=NNN=C2C(=C1)O
InChI: InChI=1S/C6H5N3O/c10-5-3-1-2-4-6(5)8-9-7-4/h1-3,10H,(H,7,8,9)
Instrument: Q Exactive Plus Orbitrap Thermo Scientific
Instrument type: LC-ESI-QFT
Ms type: MS2
Ion mode: POSITIVE
Ionization: ESI
Fragmentation mode: HCD
Collision energy: 120 (nominal)
Resolution: 35000
Column name: XBridge C18 3.5um, 2.1x50mm, Waters
Retention time: 3.1 min
Base peak: 136.0505
Precursor m/z: 136.0505
Precursor type: [M+H]+
m/z	relative intensity	assigned
50.0151	22	C4H2+
51.023	51	C4H3+
52.0182	10	C3H2N+
52.0308	15	C4H4+
53.0386	999	C4H5+
54.0339	201	C3H4N+
55.0179	13	C3H3O+
56.0495	10	C3H6N+
61.0073	6	C5H+
62.0151	42	C5H2+
63.0229	644	C5H3+
64.0182	63	C4H2N+
65.0022	1	C4HO+
65.0261	1	C4H3N+
65.0386	3	C5H5+
66.0338	7	C4H4N+
67.0178	1	C4H3O+
67.9893	2	C3O2+
68.0131	30	C3H2NO+
78.0339	29	C5H4N+
79.0416	20	C5H5N+
80.0494	985	C5H6N+
81.0335	241	C5H5O+
82.0287	3	C4H4NO+
90.0339	48	C6H4N+
91.0292	1	C5H3N2+
93.021	5	C5H3NO+
94.0288	1	C5H4NO+
96.0445	11	C5H6NO+
106.0288	4	C6H4NO+
107.0367	10	C6H5NO+
108.0444	16	C6H6NO+
136.0506	81	C6H6N3O+
