Mass spectrum: Spinetoram J; LC-ESI-QFT; MS2; CE: 45%; R=17500; [M+H]+
Name: Spinetoram J
Name: 13-{[5-(Dimethylamino)-6-methyloxan-2-yl]oxy}-9-ethyl-14-methyl-7,15-dioxo-2,3,3a,4,5,5a,5b,6,7,9,10,11,12,13,14,15,16a,16b-octadecahydro-1H-as-indaceno[3,2-d]oxacyclododecin-2-yl 6-deoxy-3-O-ethyl-2,4-di-O-methylhexopyranoside
Name: 15-[5-(dimethylamino)-6-methyloxan-2-yl]oxy-7-(4-ethoxy-3,5-dimethoxy-6-methyloxan-2-yl)oxy-19-ethyl-14-methyl-20-oxatetracyclo[10.10.0.02,10.05,9]docos-11-ene-13,21-dione
Formula: C42H69NO10
Exact mass: 747.4921
SMILES: CCC1CCCC(C(C(=O)C2=CC3C(C2CC(=O)O1)CCC4C3CC(C4)OC5C(C(C(C(O5)C)OC)OCC)OC)C)OC6CCC(C(O6)C)N(C)C
InChI: InChI=1S/C42H69NO10/c1-10-27-13-12-14-35(53-37-18-17-34(43(6)7)24(4)49-37)23(3)38(45)33-21-31-29(32(33)22-36(44)51-27)16-15-26-19-28(20-30(26)31)52-42-41(47-9)40(48-11-2)39(46-8)25(5)50-42/h21,23-32,34-35,37,39-42H,10-20,22H2,1-9H3
Instrument: Exploris 240 Orbitrap Thermo Scientific
Instrument type: LC-ESI-QFT
Ms type: MS2
Ion mode: POSITIVE
Ionization: ESI
Fragmentation mode: HCD
Collision energy: 45 % (nominal)
Resolution: 17500
Column name: XBridge C18 3.5um, 2.1x50mm, Waters
Retention time: 12.060 min
Base peak: 748.4992
Precursor m/z: 748.4994
Precursor type: [M+H]+
m/z	relative intensity	assigned
79.0542	15	C6H7+
81.0696	7	C6H9+
83.0491	11	C5H7O+
83.0853	8	C6H11+
85.0647	13	C5H9O+
87.0441	12	C4H7O2+
95.0489	11	C6H7O+
95.0855	6	C7H11+
97.0647	129	C6H9O+
98.0963	314	C6H12N+
99.044	47	C5H7O2+
99.0803	91	C6H11O+
101.0596	9	C5H9O2+
103.0753	7	C5H11O2+
111.0439	8	C6H7O2+
113.0594	6	C6H9O2+
115.0752	49	C6H11O2+
124.1117	14	C8H14N+
125.0597	28	C7H9O2+
127.0753	24	C7H11O2+
129.0909	6	C7H13O2+
141.0909	4	C8H13O2+
142.1225	999	C8H16NO+
145.0856	3	C7H13O3+
157.0856	21	C8H13O3+
157.1013	17	C12H13+
159.1014	15	C8H15O3+
160.1333	21	C8H18NO2+
171.1015	6	C9H15O3+
199.1113	5	C14H15O+
203.1065	13	C13H15O2+
203.1281	5	C10H19O4+
217.1216	8	C14H17O2+
