Mass spectrum: Diphenyl-phthalate; LC-ESI-QFT; MS2; CE: 90; R=35000; [M+H]+
Name: Diphenyl-phthalate
Name: Diphenyl phthalate
Name: Diphenyl benzene-1,2-dicarboxylate
Formula: C20H14O4
Exact mass: 318.08921
SMILES: C1=CC=C(C=C1)OC(=O)C2=CC=CC=C2C(=O)OC3=CC=CC=C3
InChI: InChI=1S/C20H14O4/c21-19(23-15-9-3-1-4-10-15)17-13-7-8-14-18(17)20(22)24-16-11-5-2-6-12-16/h1-14H
Instrument: Q Exactive Plus Orbitrap Thermo Scientific
Instrument type: LC-ESI-QFT
Ms type: MS2
Ion mode: POSITIVE
Ionization: ESI
Fragmentation mode: HCD
Collision energy: 90 (nominal)
Resolution: 35000
Column name: XBridge C18 3.5um, 2.1x50mm, Waters
Retention time: 12.9 min
Base peak: 225.054
Precursor m/z: 319.0965
Precursor type: [M+H]+
m/z	relative intensity	assigned
50.0151	154	C4H2+
51.023	341	C4H3+
53.0386	363	C4H5+
55.0179	23	C3H3O+
65.0022	9	C4HO+
65.0386	4	C5H5+
67.0542	4	C5H7+
68.9971	1	C3HO2+
75.0228	2	C6H3+
77.0385	806	C6H5+
79.0541	1	C6H7+
80.0255	1	C5H4O+
81.0335	40	C5H5O+
91.0542	5	C7H7+
93.0698	1	C7H9+
94.0413	19	C6H6O+
95.0491	999	C6H7O+
105.0335	46	C7H5O+
105.0447	735	C6H5N2+
106.0417	6	C7H6O+
109.0648	4	C7H9O+
115.0542	151	C9H7+
119.0127	2	C7H3O2+
121.0285	12	C7H5O2+
121.0396	1	C6H5N2O+
127.0542	7	C10H7+
139.0539	1	C11H7+
141.0698	148	C11H9+
145.0648	6	C10H9O+
149.0233	1	C8H5O3+
150.0461	1	C12H6+
151.0542	25	C12H7+
152.0621	200	C12H8+
153.0699	25	C12H9+
155.0494	2	C11H7O+
155.0603	16	C10H7N2+
168.0569	8	C12H8O+
169.0648	29	C12H9O+
179.0602	12	C12H7N2+
183.044	9	C12H7O2+
197.0598	16	C13H9O2+
225.0543	2	C14H9O3+
