Mass spectrum: Pinoxaden; LC-ESI-ITFT; MS2; CE: 75%; R=7500; [M+H]+
Name: Pinoxaden
Name: 8-(2,6-diethyl-4-methylphenyl)-1,2,4,5-tetrahydro-7-oxo-7H-pyrazolo(1,2-d)(1,4,5)oxadiazepin-9-yl 2,2-dimethylpropanoate
Formula: C23H32N2O4
Exact mass: 400.2368
SMILES: CC(C)(C)C(=O)O/C2=C(/C(=O)N1CCOCCN12)c3c(CC)cc(C)cc3CC
InChI: InChI=1S/C23H32N2O4/c1-7-16-13-15(3)14-17(8-2)18(16)19-20(26)24-9-11-28-12-10-25(24)21(19)29-22(27)23(4,5)6/h13-14H,7-12H2,1-6H3
Instrument: LTQ Orbitrap XL Thermo Scientific
Instrument type: LC-ESI-ITFT
Ms type: MS2
Ion mode: POSITIVE
Ionization: ESI
Fragmentation mode: HCD
Collision energy: 75 % (nominal)
Resolution: 7500
Column name: XBridge C18 3.5um, 2.1x50mm, Waters
Retention time: 13.7 min
Base peak: 401.2442
Precursor m/z: 401.2435
Precursor type: [M+H]+
m/z	relative intensity	assigned
57.0699	999	C4H9+
71.0604	201	C3H7N2+
85.0396	29	C3H5N2O+
91.0542	72	C7H7+
101.0709	270	C4H9N2O+
102.0787	89	C4H10N2O+
105.0698	249	C8H9+
117.0702	89	C9H9+
118.0646	27	C8H8N+
119.0857	220	C9H11+
129.0701	123	C10H9+
130.0774	60	C10H10+
131.0728	65	C9H9N+
131.0856	801	C10H11+
132.0568	49	C9H8O+
133.1012	389	C10H13+
139.05	30	C6H7N2O2+
143.0855	87	C11H11+
144.0813	56	C10H10N+
145.0654	50	C10H9O+
145.0888	115	C10H11N+
145.1012	114	C11H13+
146.0597	146	C9H8NO+
146.0965	268	C10H12N+
147.0802	50	C10H11O+
147.1172	87	C11H15+
156.081	120	C11H10N+
157.0883	65	C11H11N+
157.1012	93	C12H13+
158.0593	26	C10H8NO+
158.073	113	C11H10O+
158.0961	67	C11H12N+
159.0805	185	C11H11O+
159.1168	327	C12H15+
160.0882	279	C11H12O+
160.1253	39	C12H16+
161.096	61	C11H13O+
161.1326	93	C12H17+
169.1016	53	C13H13+
170.0956	31	C12H12N+
172.0764	48	C11H10NO+
172.1121	99	C12H14N+
173.0841	73	C11H11NO+
174.0914	653	C11H12NO+
174.1279	194	C12H16N+
175.1112	57	C12H15O+
185.0716	47	C11H9N2O+
186.067	82	C12H10O2+
187.0753	164	C12H11O2+
187.1114	83	C13H15O+
188.1072	138	C12H14NO+
189.1385	193	C12H17N2+
198.091	74	C13H12NO+
202.0855	42	C12H12NO2+
202.1216	171	C13H16NO+
215.1056	61	C14H15O2+
216.0896	129	C12H12N2O2+
229.0972	178	C13H13N2O2+
230.105	41	C13H14N2O2+
233.1642	98	C14H21N2O+
244.1208	169	C14H16N2O2+
260.1154	67	C14H16N2O3+
261.1246	55	C14H17N2O3+
261.1957	31	C16H25N2O+
271.1437	324	C16H19N2O2+
273.1224	119	C15H17N2O3+
285.1584	39	C17H21N2O2+
287.1387	56	C16H19N2O3+
288.1474	183	C16H20N2O3+
289.1547	675	C16H21N2O3+
317.1853	357	C18H25N2O3+
