Mass spectrum: Uvinul-LR; LC-ESI-QFT; MS2; CE: 180%; R=17500; [M-H]-
Name: Uvinul-LR
Name: 2-ethoxyethyl 2-cyano-2-[3-(3-methoxypropylamino)cyclohex-2-en-1-ylidene]acetate
Formula: C17H26N2O4
Exact mass: 322.1893
SMILES: CCOCCOC(=O)C(=C1CCCC(=C1)NCCCOC)C#N
InChI: InChI=1S/C17H26N2O4/c1-3-22-10-11-23-17(20)16(13-18)14-6-4-7-15(12-14)19-8-5-9-21-2/h12,19H,3-11H2,1-2H3
Instrument: Exploris 240 Orbitrap Thermo Scientific
Instrument type: LC-ESI-QFT
Ms type: MS2
Ion mode: NEGATIVE
Ionization: ESI
Fragmentation mode: HCD
Collision energy: 180 % (nominal)
Resolution: 17500
Column name: XBridge C18 3.5um, 2.1x50mm, Waters
Retention time: 6.732 min
Base peak: 321.1817
Precursor m/z: 321.182
Precursor type: [M-H]-
m/z	relative intensity	assigned
50.0036	251	C3N-
59.014	64	C2H3O2-
62.0035	201	C4N-
63.0113	174	C4HN-
64.0194	165	C4H2N-
65.9985	999	C3NO-
89.0145	747	C5HN2-
