Mass spectrum: Salicylic acid; LC-ESI-QFT; MS2; CE: 75; R=35000; [M+H]+
Name: Salicylic acid
Name: 2-hydroxybenzoic acid
Formula: C7H6O3
Exact mass: 138.03169
SMILES: C1=CC=C(C(=C1)C(=O)O)O
InChI: InChI=1S/C7H6O3/c8-6-4-2-1-3-5(6)7(9)10/h1-4,8H,(H,9,10)
Instrument: Q Exactive Plus Orbitrap Thermo Scientific
Instrument type: LC-ESI-QFT
Ms type: MS2
Ion mode: POSITIVE
Ionization: ESI
Fragmentation mode: HCD
Collision energy: 75 (nominal)
Resolution: 35000
Column name: XBridge C18 3.5um, 2.1x50mm, Waters
Retention time: 6.4 min
Base peak: 391.2837
Precursor m/z: 139.039
Precursor type: [M+H]+
m/z	relative intensity	assigned
51.0229	1	C4H3+
53.0022	2	C3HO+
53.0386	4	C4H5+
55.0179	8	C3H3O+
55.0543	14	C4H7+
57.0335	1	C3H5O+
59.0491	1	C3H7O+
65.0386	379	C5H5+
67.0543	6	C5H7+
68.9972	1	C3HO2+
69.0335	17	C4H5O+
71.0492	1	C4H7O+
79.0542	10	C6H7+
83.0492	13	C5H7O+
91.0543	7	C7H7+
92.0495	1	C6H6N+
93.0336	74	C6H5O+
93.0448	10	C5H5N2+
95.0492	8	C6H7O+
95.0605	1	C5H7N2+
97.0286	1	C5H5O2+
98.0363	10	C5H6O2+
105.0448	4	C6H5N2+
111.0441	79	C6H7O2+
121.0285	999	C7H5O2+
121.0397	236	C6H5N2O+
122.0475	2	C6H6N2O+
139.0392	3	C7H7O3+
