Mass spectrum: Flunixine; LC-ESI-QFT; MS2; CE: 120; R=35000; [M+H]+
Name: Flunixine
Name: Banamine
Name: 2-[2-methyl-3-(trifluoromethyl)anilino]pyridine-3-carboxylic acid
Formula: C14H11F3N2O2
Exact mass: 296.07726
SMILES: CC1=C(C=CC=C1NC2=C(C=CC=N2)C(=O)O)C(F)(F)F
InChI: InChI=1S/C14H11F3N2O2/c1-8-10(14(15,16)17)5-2-6-11(8)19-12-9(13(20)21)4-3-7-18-12/h2-7H,1H3,(H,18,19)(H,20,21)
Instrument: Q Exactive Plus Orbitrap Thermo Scientific
Instrument type: LC-ESI-QFT
Ms type: MS2
Ion mode: POSITIVE
Ionization: ESI
Fragmentation mode: HCD
Collision energy: 120 (nominal)
Resolution: 35000
Column name: XBridge C18 3.5um, 2.1x50mm, Waters
Retention time: 10.9 min
Base peak: 297.0837
Precursor m/z: 297.0845
Precursor type: [M+H]+
m/z	relative intensity	assigned
50.0151	11	C4H2+
51.0229	5	C4H3+
53.0022	4	C3HO+
53.0386	1	C4H5+
57.0135	21	C3H2F+
59.0291	15	C3H4F+
62.0151	2	C5H2+
63.0229	27	C5H3+
64.0181	1	C4H2N+
65.026	5	C4H3N+
65.0386	7	C5H5+
66.0338	2	C4H4N+
67.0178	1	C4H3O+
67.0417	4	C4H5N+
68.0495	1	C4H6N+
74.015	3	C6H2+
75.004	4	C3HF2+
75.0229	23	C6H3+
76.0181	4	C5H2N+
77.0021	46	C5HO+
77.0385	3	C6H5+
78.0338	62	C5H4N+
79.0416	14	C5H5N+
79.0542	4	C6H7+
80.0494	1	C5H6N+
81.0135	3	C5H2F+
83.0291	329	C5H4F+
87.023	3	C7H3+
89.0385	94	C7H5+
90.0464	17	C7H6+
91.0417	1	C6H5N+
91.0542	1	C7H7+
92.0368	10	C5H4N2+
93.0135	20	C6H2F+
93.0448	11	C5H5N2+
95.0292	7	C6H4F+
95.0366	4	C5H5NO+
95.0491	4	C6H7O+
96.0444	55	C5H6NO+
98.0151	35	C8H2+
99.0229	246	C8H3+
102.0465	1	C8H6+
103.0291	3	C6H3N2+
103.0541	4	C8H7+
104.0496	1	C7H6N+
105.0446	4	C6H5N2+
106.0652	32	C7H8N+
107.0292	13	C7H4F+
108.0369	9	C7H5F+
109.0448	999	C7H6F+
110.0482	1	C2H7FN2O2+
113.0385	21	C9H5+
114.0275	2	C6H4F2+
114.0338	7	C8H4N+
115.0416	4	C8H5N+
115.0543	13	C9H7+
116.0494	4	C8H6N+
117.0573	6	C8H7N+
119.0292	70	C8H4F+
120.0371	2	C8H5F+
121.0396	6	C6H5N2O+
123.0231	1	C10H3+
123.0353	8	C6H4FN2+
124.0181	1	C9H2N+
125.0199	8	C7H3F2+
126.0464	3	C10H6+
127.0354	9	C7H5F2+
127.0541	12	C10H7+
128.0495	13	C9H6N+
128.062	7	C10H8+
129.0447	3	C8H5N2+
129.0572	5	C9H7N+
130.0652	4	C9H8N+
131.0296	3	C9H4F+
132.0181	8	C6H3F3+
132.037	13	C9H5F+
132.0444	1	C8H6NO+
133.026	5	C6H4F3+
133.0448	13	C9H6F+
134.04	10	C8H5FN+
135.0478	10	C8H6FN+
136.0318	3	C8H5FO+
136.0433	3	C7H5FN2+
137.0391	20	C11H5+
138.0276	16	C8H4F2+
138.0338	4	C10H4N+
138.0464	5	C11H6+
139.0354	16	C8H5F2+
139.0416	5	C10H5N+
139.0541	7	C11H7+
140.0495	407	C10H6N+
141.0259	14	C6H3F2N2+
141.0448	4	C9H5N2+
141.0573	5	C10H7N+
142.0526	15	C9H6N2+
143.0292	3	C10H4F+
144.0182	2	C7H3F3+
144.0241	1	C9H3FN+
144.0372	1	C10H5F+
145.026	40	C7H4F3+
145.0648	17	C10H9O+
146.0402	1	C9H5FN+
146.0601	8	C9H8NO+
147.0353	104	C8H4FN2+
148.0183	1	C11H2N+
150.0341	1	C11H4N+
151.0355	9	C9H5F2+
151.0413	1	C11H5N+
152.0497	4	C11H6N+
153.0573	28	C11H7N+
154.0651	122	C11H8N+
155.0603	59	C10H7N2+
156.0182	1	C8H3F3+
156.037	2	C11H5F+
156.0681	4	C10H8N2+
157.0449	88	C11H6F+
157.052	8	C10H7NO+
158.0338	14	C8H5F3+
158.04	100	C10H5FN+
159.0417	12	C8H6F3+
159.048	31	C10H6FN+
159.0551	4	C9H7N2O+
160.0366	3	C7H5F3N+
160.0433	7	C9H5FN2+
162.0277	16	C10H4F2+
163.023	1	C9H3F2N+
163.0355	2	C10H5F2+
163.0418	4	C12H5N+
164.0495	110	C12H6N+
165.0385	15	C9H5F2N+
165.0449	19	C11H5N2+
165.0571	9	C12H7N+
166.0462	3	C9H6F2N+
166.0526	38	C11H6N2+
166.0647	7	C12H8N+
167.0604	103	C11H7N2+
168.0245	1	C11H3FN+
168.0444	2	C11H6NO+
168.0683	6	C11H8N2+
169.026	3	C9H4F3+
169.0324	5	C11H4FN+
170.0212	9	C8H3F3N+
170.0403	5	C11H5FN+
170.0601	5	C11H8NO+
171.0479	6	C11H6FN+
171.0551	1	C10H7N2O+
172.0306	1	C14H4+
172.0373	2	C8H5F3N+
172.0558	2	C11H7FN+
174.034	4	C13H4N+
174.0523	7	C8H7F3N+
175.0353	2	C11H5F2+
176.0306	11	C10H4F2N+
177.0512	4	C11H7F2+
179.0604	62	C12H7N2+
180.0682	64	C12H8N2+
181.076	335	C12H9N2+
182.0337	41	C10H5F3+
182.0405	19	C12H5FN+
182.0598	5	C12H8NO+
182.0844	5	C12H10N2+
183.0289	5	C9H4F3N+
183.0479	19	C12H6FN+
183.0555	12	C11H7N2O+
183.0679	1	C12H9NO+
184.0558	95	C12H7FN+
184.063	5	C11H8N2O+
185.0442	13	C9H6F3N+
185.0512	6	C11H6FN2+
185.0634	4	C12H8FN+
185.071	8	C11H9N2O+
186.0588	204	C11H7FN2+
187.0355	2	C12H5F2+
187.0429	5	C11H6FNO+
188.0305	6	C11H4F2N+
188.0432	1	C12H6F2+
188.0507	8	C11H7FNO+
189.0384	87	C11H5F2N+
190.0333	3	C10H4F2N2+
190.0458	32	C11H6F2N+
190.053	7	C10H7FN2O+
191.0414	8	C10H5F2N2+
191.0604	25	C13H7N2+
192.0445	3	C13H6NO+
192.0683	15	C13H8N2+
193.0323	3	C13H4FN+
194.0407	4	C10H6F2NO+
195.035	1	C12H4FN2+
195.0481	1	C13H6FN+
195.0553	6	C12H7N2O+
196.0363	3	C10H5F3N+
197.051	41	C12H6FN2+
199.0664	7	C12H8FN2+
200.0442	5	C10H7F3O+
202.0462	16	C12H6F2N+
203.0538	10	C12H7F2N+
204.0492	1	C11H6F2N2+
205.046	5	C12H7F2O+
206.0334	2	C12H5F3+
206.0415	10	C11H6F2NO+
208.0368	36	C11H5F3N+
208.0633	13	C13H8N2O+
209.0447	27	C11H6F3N+
209.0519	15	
209.071	73	C13H9N2O+
210.0404	19	C10H5F3N2+
210.0589	78	C13H7FN2+
211.0667	22	C13H8FN2+
212.0504	4	C13H7FNO+
213.0377	11	C13H5F2N+
214.0452	6	C8H5F3N4+
214.0543	3	C9H8F2N2O2+
215.0416	74	C12H5F2N2+
216.0494	21	C12H6F2N2+
217.0573	154	C12H7F2N2+
221.051	3	C14H6FN2+
222.0529	5	C12H7F3N+
227.0617	3	C13H8FN2O+
228.0493	9	C13H6F2N2+
229.0574	14	C13H7F2N2+
230.0644	7	C13H8F2N2+
231.073	3	C13H9F2N2+
233.0527	7	C9H8F3N2O2+
235.0478	124	C12H6F3N2+
236.0556	142	C12H7F3N2+
237.0394	7	C12H6F3NO+
237.0634	2	C12H8F3N2+
238.0535	3	C14H7FN2O+
239.0615	6	C14H8FN2O+
241.0568	4	C14H7F2N2+
245.0523	5	C13H7F2N2O+
248.0553	3	C13H7F3N2+
249.0635	28	C13H8F3N2+
251.0426	2	C12H6F3N2O+
253.0582	3	C12H8F3N2O+
257.0523	6	C14H7F2N2O+
258.0599	1	C14H8F2N2O+
263.0426	16	C13H6F3N2O+
264.0505	18	C13H7F3N2O+
277.0587	1	C14H8F3N2O+
