Mass spectrum: Vinclozolin; LC-ESI-QFT; MS2; CE: 75; R=35000; [M+H]+
Name: Vinclozolin
Name: 3-(3,5-dichlorophenyl)-5-ethenyl-5-methyl-1,3-oxazolidine-2,4-dione
Formula: C12H9Cl2NO3
Exact mass: 284.99595
SMILES: O=C2OC(C(=O)N2c1cc(Cl)cc(Cl)c1)(\C=C)C
InChI: InChI=1S/C12H9Cl2NO3/c1-3-12(2)10(16)15(11(17)18-12)9-5-7(13)4-8(14)6-9/h3-6H,1H2,2H3
Instrument: Q Exactive Orbitrap Thermo Scientific
Instrument type: LC-ESI-QFT
Ms type: MS2
Ion mode: POSITIVE
Ionization: ESI
Fragmentation mode: HCD
Collision energy: 75 (nominal)
Resolution: 35000
Column name: XBridge C18 3.5um, 2.1x50mm, Waters
Retention time: 12.2 min
Base peak: 205.9771
Precursor m/z: 286.0032
Precursor type: [M+H]+
m/z	relative intensity	assigned
62.9996	4	C2H4Cl+
71.0491	3	C4H7O+
75.0228	1	C6H3+
81.0699	2	C6H9+
91.0542	3	C7H7+
93.0698	1	C7H9+
98.9841	4	CH4ClO3+
102.0465	4	C8H6+
104.0495	9	C7H6N+
108.0443	1	C6H6NO+
110.9996	2	C6H4Cl+
115.0542	16	C9H7+
116.062	7	C9H8+
117.0698	7	C9H9+
120.0443	3	C7H6NO+
129.0102	6	C6H6ClO+
130.0401	3	C7H4N3+
130.0651	5	C9H8N+
137.0151	1	C8H6Cl+
138.0104	15	C7H5ClN+
139.0183	26	C7H6ClN+
140.0495	10	C10H6N+
141.0572	11	C10H7N+
142.0651	22	C10H8N+
143.0729	67	C10H9N+
144.0807	238	C10H10N+
145.0648	11	C10H9O+
146.9761	8	C6H5Cl2+
149.0153	20	C9H6Cl+
150.0231	16	C9H7Cl+
151.0183	29	C8H6ClN+
151.0309	3	C9H8Cl+
154.0652	4	C11H8N+
155.0603	6	C10H7N2+
158.9763	1	C7H5Cl2+
161.0028	2	C9H4ClN+
162.0104	2	C9H5ClN+
162.023	12	C10H7Cl+
163.0183	1	C9H6ClN+
164.0261	225	C9H7ClN+
165.034	3	C9H8ClN+
169.0523	9	C11H7NO+
170.0601	24	C11H8NO+
170.9763	3	C8H5Cl2+
171.9717	4	C7H4Cl2N+
172.0759	2	C11H10NO+
172.9666	1	C9ClNO+
173.9872	999	C7H6Cl2N+
174.9712	7	C7H5Cl2O+
176.026	15	C10H7ClN+
177.0339	62	C10H8ClN+
178.0417	112	C10H9ClN+
179.0495	52	C10H10ClN+
180.0212	1	C9H7ClNO+
184.9797	11	C8H5Cl2N+
184.9919	20	C9H7Cl2+
185.9872	5	C8H6Cl2N+
187.0182	14	C11H6ClN+
187.9663	5	C7H4Cl2NO+
188.0707	32	C11H10NO2+
194.0365	3	C10H9ClNO+
195.9715	7	C9H4Cl2N+
196.9918	2	C10H7Cl2+
197.9872	34	C9H6Cl2N+
199.9664	39	C8H4Cl2NO+
204.021	14	C11H7ClNO+
205.0289	6	C11H8ClNO+
206.0369	4	C11H9ClNO+
207.0446	8	C11H10ClNO+
212.0028	42	C10H8Cl2N+
213.9821	8	C9H6Cl2NO+
214.0183	3	C10H10Cl2N+
217.9771	25	C8H6Cl2NO2+
221.9871	31	C11H6Cl2N+
223.0394	2	C11H10ClNO2+
224.0023	4	C11H8Cl2N+
226.9896	1	C10H7Cl2NO+
239.9971	3	C11H8Cl2NO+
