Mass spectrum: Perfluorodecanoic acid; LC-ESI-ITFT; MS2; CE: 15%; R=15000; [M-H]-
Name: Perfluorodecanoic acid
Name: Nonadecafluorodecanoic acid
Name: 2,2,3,3,4,4,5,5,6,6,7,7,8,8,9,9,10,10,10-nonadecafluorocapric acid
Formula: C10HF19O2
Exact mass: 513.9673
SMILES: O=C(O)C(F)(F)C(F)(F)C(F)(F)C(F)(F)C(F)(F)C(F)(F)C(F)(F)C(F)(F)C(F)(F)F
InChI: InChI=1S/C10HF19O2/c11-2(12,1(30)31)3(13,14)4(15,16)5(17,18)6(19,20)7(21,22)8(23,24)9(25,26)10(27,28)29/h(H,30,31)
Instrument: LTQ Orbitrap XL Thermo Scientific
Instrument type: LC-ESI-ITFT
Ms type: MS2
Ion mode: NEGATIVE
Ionization: ESI
Fragmentation mode: HCD
Collision energy: 15 % (nominal)
Resolution: 15000
Column name: XBridge C18 3.5um, 2.1x50mm, Waters
Retention time: 15.2 min
Base peak: 512.961
Precursor m/z: 512.96
Precursor type: [M-H]-
m/z	relative intensity	assigned
218.9858	831	C4F9-
268.9823	999	C5F11-
