Mass spectrum: Profoxydim; LC-ESI-QFT; MS2; CE: 15; R=35000; [M-H]-
Name: Profoxydim
Name: 2-[1-[2-(4-chlorophenoxy)propoxyamino]butylidene]-5-(thian-3-yl)cyclohexane-1,3-dione
Formula: C24H32ClNO4S
Exact mass: 465.17406
SMILES: CCCC(=C1C(=O)CC(CC1=O)C2CCCSC2)NOCC(C)OC3=CC=C(C=C3)Cl
InChI: InChI=1S/C24H32ClNO4S/c1-3-5-21(26-29-14-16(2)30-20-9-7-19(25)8-10-20)24-22(27)12-18(13-23(24)28)17-6-4-11-31-15-17/h7-10,16-18,26H,3-6,11-15H2,1-2H3
Instrument: Q Exactive Plus Orbitrap Thermo Scientific
Instrument type: LC-ESI-QFT
Ms type: MS2
Ion mode: NEGATIVE
Ionization: ESI
Fragmentation mode: HCD
Collision energy: 15 (nominal)
Resolution: 35000
Column name: XBridge C18 3.5um, 2.1x50mm, Waters
Retention time: 14.4 min
Base peak: 464.1659
Precursor m/z: 464.1668
Precursor type: [M-H]-
m/z	relative intensity	assigned
126.9953	7	C6H4ClO-
236.0739	9	C12H14NO2S-
280.1373	9	C15H22NO2S-
336.164	1	C18H26NO3S-
464.1662	999	C24H31ClNO4S-
