Mass spectrum: 5-Methoxy-2H-benzotriazole; LC-ESI-QFT; MS2; CE: 150%; R=15000; [M+H]+
Name: 5-Methoxy-2H-benzotriazole
Name: 5-methoxy-2H-benzo[d][1,2,3]triazole
Formula: C7H7N3O
Exact mass: 149.0589
SMILES: COC1=CC2=NNN=C2C=C1
InChI: InChI=1S/C7H7N3O/c1-11-5-2-3-6-7(4-5)9-10-8-6/h2-4H,1H3,(H,8,9,10)
Instrument: Orbitrap Exploris 240 Thermo Scientific
Instrument type: LC-ESI-QFT
Ms type: MS2
Ion mode: POSITIVE
Ionization: ESI
Fragmentation mode: HCD
Collision energy: 150 % (nominal)
Resolution: 15000
Column name: Atlantis C18 3um, 3.0x150mm, Waters
Retention time: 14.536 min
Base peak: 150.0662
Precursor m/z: 150.0662
Precursor type: [M+H]+
Precursor intensity: 805775616
m/z	relative intensity	assigned
41.0386	27	C3H5+
50.0151	61	C4H2+
51.023	111	C4H3+
52.0184	34	
52.0308	999	C4H4+
53.0261	53	C3H3N+
53.0387	20	C4H5+
54.0338	32	C3H4N+
63.023	93	C5H3+
64.0181	16	C4H2N+
65.0386	132	C5H5+
67.054	10	C5H7+
78.0339	144	C5H4N+
79.0417	190	C5H5N+
80.0258	27	C5H4O+
95.0491	37	C6H7O+
107.0378	10	
107.0479	114	C5H5N3+
135.043	17	C6H5N3O+
