Mass spectrum: Sulfadiazine; LC-ESI-ITFT; MS2; CE: 60%; R=15000; [M+H]+
Name: Sulfadiazine
Name: 4-amino-N-(2-pyrimidinyl)benzenesulfonamide
Formula: C10H10N4O2S
Exact mass: 250.0524
SMILES: NC1=CC=C(C=C1)S(=O)(=O)NC2=NC=CC=N2
InChI: InChI=1S/C10H10N4O2S/c11-8-2-4-9(5-3-8)17(15,16)14-10-12-6-1-7-13-10/h1-7H,11H2,(H,12,13,14)
Instrument: LTQ Orbitrap XL Thermo Scientific
Instrument type: LC-ESI-ITFT
Ms type: MS2
Ion mode: POSITIVE
Ionization: ESI
Fragmentation mode: HCD
Collision energy: 60 % (nominal)
Resolution: 15000
Column name: XBridge C18 3.5um, 2.1x50mm, Waters
Retention time: 2.2 min
Base peak: 251.0602
Precursor m/z: 251.0597
Precursor type: [M+H]+
m/z	relative intensity	assigned
65.0386	150	C5H5+
68.0495	88	C4H6N+
78.0338	12	C5H4N+
80.0493	14	C5H6N+
92.0494	686	C6H6N+
93.0573	17	C6H7N+
94.065	44	C6H8N+
96.0444	17	C5H6NO+
96.0556	276	C4H6N3+
108.0444	999	C6H6NO+
110.0601	36	C6H8NO+
112.0336	8	C6H8S+
156.0113	217	C6H6NO2S+
158.0018	50	C4H4N3O2S+
185.0823	60	C10H9N4+
251.0609	24	C10H11N4O2S+
