Mass spectrum: Dimethachlor OXA; LC-ESI-ITFT; MS2; CE: 45%; R=7500; [M+H]+
Name: Dimethachlor OXA
Name: 2-[(2,6-dimethylphenyl)(2-methoxyethyl)amino]-2-oxo-acetic acid
Formula: C13H17NO4
Exact mass: 251.1158
SMILES: Cc1cccc(C)c1N(CCOC)C(=O)C(O)=O
InChI: InChI=1S/C13H17NO4/c1-9-5-4-6-10(2)11(9)14(7-8-18-3)12(15)13(16)17/h4-6H,7-8H2,1-3H3,(H,16,17)
Instrument: LTQ Orbitrap XL Thermo Scientific
Instrument type: LC-ESI-ITFT
Ms type: MS2
Ion mode: POSITIVE
Ionization: ESI
Fragmentation mode: HCD
Collision energy: 45 % (nominal)
Resolution: 7500
Column name: XBridge C18 3.5um, 2.1x50mm, Waters
Retention time: 6.6 min
Base peak: 252.1226
Precursor m/z: 252.123
Precursor type: [M+H]+
m/z	relative intensity	assigned
91.054	2	C7H7+
105.0699	28	C8H9+
106.0777	4	C8H10+
107.0856	33	C8H11+
117.0574	5	C8H7N+
118.0651	11	C8H8N+
119.0857	2	C9H11+
120.0808	8	C8H10N+
121.065	1	C8H9O+
130.0651	3	C9H8N+
131.0731	21	C9H9N+
131.0858	4	C10H11+
132.0808	199	C9H10N+
133.0757	1	C8H9N2+
133.0886	25	C9H11N+
146.0965	90	C10H12N+
148.0757	21	C9H10NO+
148.1121	216	C10H14N+
158.0964	6	C11H12N+
164.1077	1	C10H14NO+
174.0911	5	C11H12NO+
176.107	56	C11H14NO+
178.1226	35	C11H16NO+
192.102	11	C11H14NO2+
196.0737	1	C10H12O4+
206.1177	7	C12H16NO2+
220.0968	999	C12H14NO3+
