Mass spectrum: Ethiprole; LC-ESI-QFT; MS2; CE: 120%; R=17500; [M+H]+
Name: Ethiprole
Name: 5-amino-1-[2,6-dichloro-4-(trifluoromethyl)phenyl]-4-ethylsulfinylpyrazole-3-carbonitrile
Formula: C13H9Cl2F3N4OS
Exact mass: 395.9826
SMILES: CCS(=O)C1=C(N(N=C1C#N)C2=C(C=C(C=C2Cl)C(F)(F)F)Cl)N
InChI: InChI=1S/C13H9Cl2F3N4OS/c1-2-24(23)11-9(5-19)21-22(12(11)20)10-7(14)3-6(4-8(10)15)13(16,17)18/h3-4H,2,20H2,1H3
Instrument: Exploris 240 Orbitrap Thermo Scientific
Instrument type: LC-ESI-QFT
Ms type: MS2
Ion mode: POSITIVE
Ionization: ESI
Fragmentation mode: HCD
Collision energy: 120 % (nominal)
Resolution: 17500
Column name: XBridge C18 3.5um, 2.1x50mm, Waters
Retention time: 8.795 min
Base peak: 396.9896
Precursor m/z: 396.9899
Precursor type: [M+H]+
m/z	relative intensity	assigned
61.9792	30	CHClN+
62.9869	62	CH2ClN+
68.9947	66	CF3+
84.9652	33	CClF2+
106.009	15	ClH9NOS+
108.9652	12	C3ClF2+
121.9793	57	C6HClN+
137.007	29	C2F3N4+
141.9855	30	Cl2H10NOS+
143.0101	312	C7H2F3+
157.0133	999	C7H2F3N+
158.0214	28	C7H3F3N+
158.9638	48	C6H3Cl2N+
165.9791	671	C6H2ClF3+
166.9869	33	C6H3ClF3+
172.9836	210	C2HClF3N4+
173.992	14	C7H3ClF2N+
176.9713	105	C7HClF3+
177.9788	260	C7H2ClF3+
183.0169	18	C2H10ClF2N2OS+
192.9901	180	C7H3ClF3N+
199.9817	94	C7HClF2N3+
200.9482	255	C6H2Cl2F3+
212.9477	243	C7H2Cl2F3+
220.0004	66	C11HF3NO+
227.9588	143	C7H3Cl2F3N+
