Mass spectrum: N-Nitrosopiperidine (NPIP); LC-ESI-QFT; MS2; CE: 30; R=70000; [M+H]+
Name: N-Nitrosopiperidine (NPIP)
Name: 1-nitrosopiperidine
Formula: C5H10N2O
Exact mass: 114.07931
SMILES: O=NN1CCCCC1
InChI: InChI=1S/C5H10N2O/c8-6-7-4-2-1-3-5-7/h1-5H2
Instrument: Q Exactive Plus Orbitrap Thermo Scientific
Instrument type: LC-ESI-QFT
Ms type: MS2
Ion mode: POSITIVE
Ionization: ESI
Fragmentation mode: HCD
Collision energy: 30 (nominal)
Resolution: 70000
Column name: XBridge C18 3.5um, 2.1x50mm, Waters
Retention time: 4.1 min
Base peak: 115.0866
Precursor m/z: 115.0866
Precursor type: [M+H]+
m/z	relative intensity	assigned
53.0022	3	C3HO+
59.024	1	CH3N2O+
67.0542	4	C5H7+
69.0699	311	C5H9+
70.0651	10	C4H8N+
84.0807	1	C5H10N+
115.0865	999	C5H11N2O+
