Mass spectrum: Diazepam; LC-ESI-ITFT; MS2; CE: 90%; R=30000; [M+H]+
Name: Diazepam
Name: 7-chloranyl-1-methyl-5-phenyl-3H-1,4-benzodiazepin-2-one
Formula: C16H13ClN2O
Exact mass: 284.0716
SMILES: CN1C2=C(C=C(Cl)C=C2)C(=NCC1=O)C3=CC=CC=C3
InChI: InChI=1S/C16H13ClN2O/c1-19-14-8-7-12(17)9-13(14)16(18-10-15(19)20)11-5-3-2-4-6-11/h2-9H,10H2,1H3
Instrument: LTQ Orbitrap XL Thermo Scientific
Instrument type: LC-ESI-ITFT
Ms type: MS2
Ion mode: POSITIVE
Ionization: ESI
Fragmentation mode: HCD
Collision energy: 90 % (nominal)
Resolution: 30000
Column name: XBridge C18 3.5um, 2.1x50mm, Waters
Retention time: 10.1 min
Base peak: 285.0798
Precursor m/z: 285.0789
Precursor type: [M+H]+
m/z	relative intensity	assigned
58.0288	17	C2H4NO+
65.0385	9	C5H5+
77.0385	28	C6H5+
89.0386	69	C7H5+
90.0464	35	C7H6+
91.0542	353	C7H7+
98.9996	7	C5H4Cl+
104.0495	70	C7H6N+
105.0335	12	C7H5O+
105.0447	9	C6H5N2+
113.0152	14	C6H6Cl+
114.0105	10	C5H5ClN+
116.0494	91	C8H6N+
117.0573	160	C8H7N+
118.0651	143	C8H8N+
119.073	96	C8H9N+
122.9995	12	C7H4Cl+
125.0153	282	C7H6Cl+
126.0231	18	C7H7Cl+
127.0309	12	C7H8Cl+
138.0105	56	C7H5ClN+
139.0059	20	C6H4ClN2+
139.0183	34	C7H6ClN+
140.0261	48	C7H7ClN+
141.0339	18	C7H8ClN+
143.0603	165	C9H7N2+
144.0682	49	C9H8N2+
145.076	16	C9H9N2+
147.0679	29	C9H9NO+
150.0104	87	C8H5ClN+
151.0183	20	C8H6ClN+
152.0262	25	C8H7ClN+
152.062	18	C12H8+
153.0337	18	C11H5O+
154.0418	519	C8H9ClN+
162.0104	8	C9H5ClN+
163.0058	65	C8H4ClN2+
165.0213	34	C8H6ClN2+
165.0699	162	C13H9+
166.0776	38	C13H10+
167.0133	25	C8H6ClNO+
172.0632	28	C10H8N2O+
177.0214	57	C9H6ClN2+
179.037	81	C9H8ClN2+
180.021	26	C9H7ClNO+
180.0808	108	C13H10N+
181.0887	18	C13H11N+
191.0729	55	C14H9N+
192.0808	125	C14H10N+
193.0886	999	C14H11N+
194.0964	86	C14H12N+
199.0309	20	C13H8Cl+
204.0808	118	C15H10N+
205.0761	37	C14H9N2+
205.0886	16	C15H11N+
206.0838	266	C14H10N2+
207.0917	152	C14H11N2+
208.0998	11	C14H12N2+
216.057	25	C16H8O+
220.0991	9	C15H12N2+
221.0833	17	C15H11NO+
221.1073	102	C15H13N2+
222.1151	138	C15H14N2+
226.0416	16	C14H9ClN+
227.0495	88	C14H10ClN+
228.0577	43	C14H11ClN+
230.073	8	C14H13ClN+
239.0369	21	C14H8ClN2+
240.045	22	C14H9ClN2+
241.0526	426	C14H10ClN2+
242.0602	15	C14H11ClN2+
255.0685	20	C15H12ClN2+
269.0477	10	C15H10ClN2O+
