Mass spectrum: N-Nitrosomethylaniline; LC-ESI-QFT; MS2; CE: 15; R=70000; [M+H]+
Name: N-Nitrosomethylaniline
Name: N-methyl-N-phenylnitrous amide
Formula: C7H8N2O
Exact mass: 136.06366
SMILES: O=NN(c1ccccc1)C
InChI: InChI=1S/C7H8N2O/c1-9(8-10)7-5-3-2-4-6-7/h2-6H,1H3
Instrument: Q Exactive Plus Orbitrap Thermo Scientific
Instrument type: LC-ESI-QFT
Ms type: MS2
Ion mode: POSITIVE
Ionization: ESI
Fragmentation mode: HCD
Collision energy: 15 (nominal)
Resolution: 70000
Column name: XBridge C18 3.5um, 2.1x50mm, Waters
Retention time: 6.4 min
Base peak: 137.071
Precursor m/z: 137.0709
Precursor type: [M+H]+
m/z	relative intensity	assigned
59.024	8	CH3N2O+
65.0385	2	C5H5+
66.0464	484	C5H6+
77.0382	5	C6H5+
80.062	16	C6H8+
93.0699	1	C7H9+
95.0491	6	C6H7O+
105.0447	3	C6H5N2+
106.0652	8	C7H8N+
107.073	999	C7H9N+
137.071	874	C7H9N2O+
