Mass spectrum: Octocrylene; LC-ESI-QFT; MS2; CE: 30; R=35000; [M+H]+
Name: Octocrylene
Name: [(2R)-2-ethylhexyl] 2-cyano-3,3-diphenylprop-2-enoate
Formula: C24H27NO2
Exact mass: 361.20418
SMILES: C(\c1ccccc1)(c1ccccc1)=C(/C(OC[C@@H](CCCC)CC)=O)C#N
InChI: InChI=1S/C24H27NO2/c1-3-5-12-19(4-2)18-27-24(26)22(17-25)23(20-13-8-6-9-14-20)21-15-10-7-11-16-21/h6-11,13-16,19H,3-5,12,18H2,1-2H3/t19-/m1/s1
Instrument: Q Exactive Plus Orbitrap Thermo Scientific
Instrument type: LC-ESI-QFT
Ms type: MS2
Ion mode: POSITIVE
Ionization: ESI
Fragmentation mode: HCD
Collision energy: 30 (nominal)
Resolution: 35000
Column name: XBridge C18 3.5um, 2.1x50mm, Waters
Retention time: 17.2 min
Base peak: 250.086
Precursor m/z: 362.2115
Precursor type: [M+H]+
m/z	relative intensity	assigned
57.0699	44	C4H9+
71.0855	47	C5H11+
77.0386	4	C6H5+
104.0494	4	C7H6N+
105.0335	35	C7H5O+
129.0335	3	C9H5O+
147.0441	9	C9H7O2+
157.0285	18	C10H5O2+
175.0389	3	C10H7O3+
182.0964	11	C13H12N+
183.0804	3	C13H11O+
203.0724	3	C15H9N+
204.0809	19	C15H10N+
206.0966	8	C15H12N+
207.0805	5	C15H11O+
222.0913	2	C15H12NO+
232.0757	999	C16H10NO+
250.0863	351	C16H12NO2+
264.1017	2	C17H14NO2+
