Mass spectrum: Cilastatin; LC-ESI-ITFT; MS2; CE: 35%; R=30000; [M-H]-
Name: Cilastatin
Formula: C16H26N2O5S
Exact mass: 358.1562
SMILES: [H][C@](N)(CSCCCC\C=C(/NC(=O)[C@@]1([H])CC1(C)C)C(O)=O)C(O)=O
InChI: InChI=1S/C16H26N2O5S/c1-16(2)8-10(16)13(19)18-12(15(22)23)6-4-3-5-7-24-9-11(17)14(20)21/h6,10-11H,3-5,7-9,17H2,1-2H3,(H,18,19)(H,20,21)(H,22,23)/b12-6-/t10-,11+/m1/s1
Instrument: LTQ Orbitrap XL Thermo Scientific
Instrument type: LC-ESI-ITFT
Ms type: MS2
Ion mode: NEGATIVE
Ionization: ESI
Fragmentation mode: CID
Collision energy: 35 % (nominal)
Resolution: 30000
Column name: XBridge C18 3.5um, 2.1x50mm, Waters
Retention time: 5.2 min
Base peak: 357.148
Precursor m/z: 357.149
Precursor type: [M-H]-
m/z	relative intensity	assigned
156.085	8	C8H14NS-
192.1392	6	C12H18NO-
200.0749	3	C9H14NO2S-
226.1269	813	C12H20NOS-
270.1167	43	C13H20NO3S-
295.1485	10	C15H23N2O2S-
313.1589	999	C15H25N2O3S-
339.1381	19	C16H23N2O4S-
