Mass spectrum: N-Nitrosopiperazine (NPAZ); LC-ESI-QFT; MS2; CE: 75; R=70000; [M+H]+
Name: N-Nitrosopiperazine (NPAZ)
Name: 1-nitrosopiperazine
Formula: C4H9N3O
Exact mass: 115.07456
SMILES: O=NN1CCNCC1
InChI: InChI=1S/C4H9N3O/c8-6-7-3-1-5-2-4-7/h5H,1-4H2
Instrument: Q Exactive Plus Orbitrap Thermo Scientific
Instrument type: LC-ESI-QFT
Ms type: MS2
Ion mode: POSITIVE
Ionization: ESI
Fragmentation mode: HCD
Collision energy: 75 (nominal)
Resolution: 70000
Column name: XBridge C18 3.5um, 2.1x50mm, Waters
Retention time: 0.8 min
Base peak: 85.0761
Precursor m/z: 116.0818
Precursor type: [M+H]+
m/z	relative intensity	assigned
56.0495	840	C3H6N+
57.0447	28	C2H5N2+
57.0573	88	C3H7N+
58.0652	136	C3H8N+
68.0495	6	C4H6N+
70.0651	49	C4H8N+
72.0444	4	C3H6NO+
85.0761	999	C4H9N2+
86.0839	91	C4H10N2+
88.0758	13	C4H10NO+
116.0819	3	C4H10N3O+
