Mass spectrum: Oxolinic acid; LC-ESI-QFT; MS2; CE: 90; R=35000; [M+H]+
Name: Oxolinic acid
Name: 5-ethyl-8-oxo-[1,3]dioxolo[4,5-g]quinoline-7-carboxylic acid
Formula: C13H11NO5
Exact mass: 261.06372
SMILES: CCN1C=C(C(=O)C2=CC3=C(C=C21)OCO3)C(=O)O
InChI: InChI=1S/C13H11NO5/c1-2-14-5-8(13(16)17)12(15)7-3-10-11(4-9(7)14)19-6-18-10/h3-5H,2,6H2,1H3,(H,16,17)
Instrument: Q Exactive Plus Orbitrap Thermo Scientific
Instrument type: LC-ESI-QFT
Ms type: MS2
Ion mode: POSITIVE
Ionization: ESI
Fragmentation mode: HCD
Collision energy: 90 (nominal)
Resolution: 35000
Column name: XBridge C18 3.5um, 2.1x50mm, Waters
Retention time: 0.9 min
Base peak: 262.0705
Precursor m/z: 262.071
Precursor type: [M+H]+
m/z	relative intensity	assigned
50.0149	4	C4H2+
51.0228	6	C4H3+
52.0181	4	C3H2N+
53.0021	6	C3HO+
53.0386	14	C4H5+
55.0179	12	C3H3O+
62.0149	1	C5H2+
63.0227	6	C5H3+
65.0386	117	C5H5+
68.013	7	C3H2NO+
68.9971	8	C3HO2+
74.0147	1	C6H2+
75.0228	15	C6H3+
76.0306	1	C6H4+
77.0385	35	C6H5+
78.0338	6	C5H4N+
79.0542	13	C6H7+
80.0129	2	C4H2NO+
80.0494	2	C5H6N+
81.0335	3	C5H5O+
87.0228	4	C7H3+
89.0385	14	C7H5+
90.0337	4	C6H4N+
91.0416	3	C6H5N+
91.0542	50	C7H7+
92.0257	1	C6H4O+
92.0494	4	C6H6N+
93.0335	1	C6H5O+
93.0699	1	C7H9+
95.0127	7	C5H3O2+
95.0491	41	C6H7O+
96.0444	20	C5H6NO+
101.0259	6	C7H3N+
102.0338	44	C7H4N+
102.0464	4	C8H6+
103.0178	7	C7H3O+
103.0416	9	C7H5N+
103.0542	119	C8H7+
104.0494	115	C7H6N+
105.0335	32	C7H5O+
105.0447	31	C6H5N2+
105.0697	4	C8H9+
106.0288	11	C6H4NO+
106.0651	7	C7H8N+
107.0127	2	C6H3O2+
107.0365	3	C6H5NO+
108.0445	1	C6H6NO+
109.0284	9	C6H5O2+
111.0439	1	C6H7O2+
114.0338	33	C8H4N+
115.0416	2	C8H5N+
115.0542	37	C9H7+
116.0495	12	C8H6N+
117.0336	3	C8H5O+
117.0573	47	C8H7N+
118.0651	175	C8H8N+
119.0365	3	C7H5NO+
119.0492	3	C8H7O+
120.0206	12	C7H4O2+
120.0444	8	C7H6NO+
121.0283	23	C7H5O2+
121.0395	1	C6H5N2O+
121.0521	3	C7H7NO+
125.0233	2	C6H5O3+
128.0495	10	C9H6N+
129.0211	6	C8H3NO+
129.0575	5	C9H7N+
130.0288	111	C8H4NO+
130.0652	462	C9H8N+
131.0365	11	C8H5NO+
131.0491	7	C9H7O+
131.073	20	C9H9N+
132.0207	4	C8H4O2+
132.0444	69	C8H6NO+
132.0808	24	C9H10N+
133.0284	190	C8H5O2+
134.0235	3	C7H4NO2+
134.0601	2	C8H8NO+
136.0394	10	C7H6NO2+
137.0233	8	C7H5O3+
139.039	11	C7H7O3+
140.0496	2	C10H6N+
141.0573	4	C10H7N+
142.0288	26	C9H4NO+
142.0652	45	C10H8N+
143.0366	3	C9H5NO+
143.0493	2	C10H7O+
143.0726	2	C10H9N+
144.0446	7	C9H6NO+
144.0807	1	C10H10N+
145.0285	2	C9H5O2+
145.0522	6	C9H7NO+
146.06	64	C9H8NO+
147.0317	5	C8H5NO2+
148.0393	226	C8H6NO2+
149.0234	2	C8H5O3+
149.0346	50	C7H5N2O2+
149.0472	2	C8H7NO2+
156.0079	1	C9H2NO2+
156.0444	2	C10H6NO+
157.0158	4	C9H3NO2+
157.052	4	C10H7NO+
158.0237	196	C9H4NO2+
158.0601	233	C10H8NO+
159.0315	14	C9H5NO2+
159.0679	10	C10H9NO+
160.0393	999	C9H6NO2+
161.0231	3	C9H5O3+
161.047	3	C9H7NO2+
161.0594	1	C10H9O2+
162.0187	2	C8H4NO3+
163.0264	13	C8H5NO3+
164.0342	4	C8H6NO3+
167.0702	1	C9H11O3+
170.06	19	C11H8NO+
171.0317	1	C10H5NO2+
172.0393	487	C10H6NO2+
173.0472	148	C10H7NO2+
174.0184	2	C9H4NO3+
174.0554	6	C10H8NO2+
176.0342	74	C9H6NO3+
176.0705	12	C10H10NO2+
177.0422	10	C9H7NO3+
177.0657	7	C9H9N2O2+
185.0473	2	C11H7NO2+
186.0186	134	C10H4NO3+
186.055	37	C11H8NO2+
187.0264	80	C10H5NO3+
187.0627	51	C11H9NO2+
188.0112	7	C10H4O4+
188.0342	155	C10H6NO3+
188.0706	28	C11H10NO2+
189.0419	1	C10H7NO3+
190.0135	3	C9H4NO4+
190.0498	3	C10H8NO3+
198.0548	3	C12H8NO2+
199.0266	1	C11H5NO3+
200.0339	4	C11H6NO3+
200.0706	38	C12H10NO2+
201.042	24	C11H7NO3+
203.0216	1	C10H5NO4+
204.0295	4	C10H6NO4+
204.0657	1	C11H10NO3+
205.037	5	C10H7NO4+
206.0444	1	C10H8NO4+
214.0135	230	C11H4NO4+
215.0213	152	C11H5NO4+
216.0292	73	C11H6NO4+
216.0655	36	C12H10NO3+
228.0294	6	C12H6NO4+
229.037	49	C12H7NO4+
232.024	31	C11H6NO5+
233.0319	93	C11H7NO5+
234.0397	215	C11H8NO5+
242.045	2	C13H8NO4+
244.0605	41	C13H10NO4+
247.0478	5	C12H9NO5+
262.071	55	C13H12NO5+
