Mass spectrum: 3,4-Methylenedioxy-N-methylamphetamine (MDMA); LC-ESI-QFT; MS2; CE: 150; R=35000; [M+H]+
Name: 3,4-Methylenedioxy-N-methylamphetamine (MDMA)
Name: N-Methyl-3,4-methylenedioxyamphetamine
Name: 1-(1,3-benzodioxol-5-yl)-N-methylpropan-2-amine
Formula: C11H15NO2
Exact mass: 193.11028
SMILES: CC(CC1=CC2=C(C=C1)OCO2)NC
InChI: InChI=1S/C11H15NO2/c1-8(12-2)5-9-3-4-10-11(6-9)14-7-13-10/h3-4,6,8,12H,5,7H2,1-2H3
Instrument: Q Exactive Plus Orbitrap Thermo Scientific
Instrument type: LC-ESI-QFT
Ms type: MS2
Ion mode: POSITIVE
Ionization: ESI
Fragmentation mode: HCD
Collision energy: 150 (nominal)
Resolution: 35000
Column name: XBridge C18 3.5um, 2.1x50mm, Waters
Retention time: 3.6 min
Base peak: 194.117
Precursor m/z: 194.1176
Precursor type: [M+H]+
m/z	relative intensity	assigned
50.0151	261	C4H2+
51.0229	339	C4H3+
53.0386	313	C4H5+
53.9974	1	C2NO+
55.0178	58	C3H3O+
56.0494	16	C3H6N+
58.0651	97	C3H8N+
63.0228	20	C5H3+
64.0307	1	C5H4+
65.0385	287	C5H5+
66.0099	1	C4H2O+
66.0463	14	C5H6+
67.0542	10	C5H7+
67.9892	2	C3O2+
68.997	1	C3HO2+
75.0227	4	C6H3+
77.0385	887	C6H5+
78.0463	27	C6H6+
79.0541	603	C6H7+
81.0334	35	C5H5O+
89.0385	66	C7H5+
90.0464	7	C7H6+
91.0542	63	C7H7+
92.0256	1	C6H4O+
93.0335	2	C6H5O+
94.0413	11	C6H6O+
95.0491	999	C6H7O+
102.0463	17	C8H6+
103.0542	322	C8H7+
104.062	8	C8H8+
105.0335	42	C7H5O+
105.0447	628	C6H5N2+
105.0698	62	C8H9+
106.0415	4	C7H6O+
107.0491	5	C7H7O+
109.0648	2	C7H9O+
111.0439	1	C6H7O2+
115.0542	16	C9H7+
118.0413	1	C8H6O+
121.0283	82	C7H5O2+
122.0362	3	C7H6O2+
131.0492	1	C9H7O+
135.044	44	C8H7O2+
147.0439	65	C9H7O2+
