Mass spectrum: Rufinamide; LC-ESI-QFT; MS2; CE: 15; R=35000; [M+H]+
Name: Rufinamide
Name: 1-(2,6-difluorobenzyl)triazole-4-carboxamide
Formula: C10H8F2N4O
Exact mass: 238.06662
SMILES: O=C(c1nnn(c1)Cc2c(F)cccc2F)N
InChI: InChI=1S/C10H8F2N4O/c11-7-2-1-3-8(12)6(7)4-16-5-9(10(13)17)14-15-16/h1-3,5H,4H2,(H2,13,17)
Instrument: Q Exactive Orbitrap Thermo Scientific
Instrument type: LC-ESI-QFT
Ms type: MS2
Ion mode: POSITIVE
Ionization: ESI
Fragmentation mode: HCD
Collision energy: 15 (nominal)
Resolution: 35000
Column name: XBridge C18 3.5um, 2.1x50mm, Waters
Retention time: 5.2 min
Base peak: 239.074
Precursor m/z: 239.0739
Precursor type: [M+H]+
m/z	relative intensity	assigned
68.0131	2	C3H2NO+
101.0197	1	C5H3F2+
127.0354	999	C7H5F2+
136.0556	4	C8H7FN+
141.0511	12	C8H7F2+
142.0464	10	C7H6F2N+
144.062	43	C7H8F2N+
148.0558	12	C9H7FN+
156.062	9	C8H8F2N+
163.0667	8	C9H8FN2+
166.0464	30	C9H6F2N+
167.0542	48	C9H7F2N+
168.062	59	C9H8F2N+
183.073	21	C9H9F2N2+
191.0616	8	C10H8FN2O+
194.0412	6	C10H6F2NO+
211.0679	38	C10H9F2N2O+
222.0475	45	C10H6F2N3O+
239.0741	197	C10H9F2N4O+
