Mass spectrum: Cimetidine; LC-ESI-QFT; MS2; CE: 45; R=35000; [M+H]+
Name: Cimetidine
Name: 1-cyano-2-methyl-3-[2-[(5-methyl-1H-imidazol-4-yl)methylsulfanyl]ethyl]guanidine
Formula: C10H16N6S
Exact mass: 252.11572
SMILES: CC1=C(N=CN1)CSCCNC(=NC)NC#N
InChI: InChI=1S/C10H16N6S/c1-8-9(16-7-15-8)5-17-4-3-13-10(12-2)14-6-11/h7H,3-5H2,1-2H3,(H,15,16)(H2,12,13,14)
Instrument: Q Exactive Plus Orbitrap Thermo Scientific
Instrument type: LC-ESI-QFT
Ms type: MS2
Ion mode: POSITIVE
Ionization: ESI
Fragmentation mode: HCD
Collision energy: 45 (nominal)
Resolution: 35000
Column name: XBridge C18 3.5um, 2.1x50mm, Waters
Retention time: 2.0 min
Base peak: 253.1222
Precursor m/z: 253.123
Precursor type: [M+H]+
m/z	relative intensity	assigned
54.0338	5	C3H4N+
57.0447	32	C2H5N2+
61.0105	17	C2H5S+
68.0242	2	C2H2N3+
78.0371	14	C2H8NS+
82.0399	26	C3H4N3+
83.0602	1	C4H7N2+
95.0603	999	C5H7N2+
99.0664	198	C3H7N4+
100.0868	2	C4H10N3+
103.0324	35	C3H7N2S+
116.0277	1	C3H6N3S+
117.048	591	C4H9N2S+
125.082	4	C5H9N4+
128.0276	26	C4H6N3S+
132.0588	7	C4H10N3S+
142.0432	1	C5H8N3S+
155.0636	4	C7H11N2S+
159.0698	614	C5H11N4S+
172.0901	6	C7H14N3S+
211.1012	1	C9H15N4S+
253.1228	1	C10H17N6S+
