Mass spectrum: Microcystin-LR; LC-ESI-ITFT; MS2; CE: 45%; R=15000; [M+H]+
Name: Microcystin-LR
Name: (5R,8R,11R,12S,15S,18S,19S,22R)-15-{3-[(Diaminomethylene)amino]propyl}-8-isobutyl-18-[(1E,3E,5S,6S)-6-methoxy-3,5-dimethyl-7-phenyl-1,3-heptadien-1-yl]-1,5,12,19-tetramethyl-2-methylene-3,6,9,13,16,20 ,25-heptaoxo-1,4,7,10,14,17,21-heptaazacyclopentacosane-11,22-dicarboxylic acid
Name: (5R,8S,11R,12S,15S,18S,19S,22R)-15-(3-guanidinopropyl)-8-isobutyl-3,6,9,13,16,20,25-heptaketo-18-[(1E,3E,5S,6S)-6-methoxy-3,5-dimethyl-7-phenyl-hepta-1,3-dienyl]-1,5,12,19-tetramethyl-2-methylene-1,4,7,10,14,17,21-heptazacyclopentacosane-11,22-dicarboxylic acid
Formula: C49H74N10O12
Exact mass: 994.5488
SMILES: CC1C(NC(=O)C(NC(=O)C(C(NC(=O)C(NC(=O)C(NC(=O)C(=C)N(C(=O)CCC(NC1=O)C(=O)O)C)C)CC(C)C)C(=O)O)C)CCCN=C(N)N)C=CC(=CC(C)C(CC2=CC=CC=C2)OC)C
InChI: InChI=1S/C49H74N10O12/c1-26(2)23-37-46(66)58-40(48(69)70)30(6)42(62)55-35(17-14-22-52-49(50)51)45(65)54-34(19-18-27(3)24-28(4)38(71-10)25-33-15-12-11-13-16-33)29(5)41(61)56-36(47(67)68)20-21-39(60)59(9)32(8)44(64)53-31(7)43(63)57-37/h11-13,15-16,18-19,24,26,28-31,34-38,40H,8,14,17,20-23,25H2,1-7,9-10H3,(H,53,64)(H,54,65)(H,55,62)(H,56,61)(H,57,63)(H,58,66)(H,67,68)(H,69,70)(H4,50,51,52)/b19-18+,27-24+/t28-,29-,30-,31+,34-,35-,36+,37-,38-,40+/m0/s1
Instrument: LTQ Orbitrap XL Thermo Scientific
Instrument type: LC-ESI-ITFT
Ms type: MS2
Ion mode: POSITIVE
Ionization: ESI
Fragmentation mode: HCD
Collision energy: 45 % (nominal)
Resolution: 15000
Column name: XBridge C18 3.5um, 2.1x50mm, Waters
Retention time: 10.2 min
Base peak: 498.2811
Precursor m/z: 995.556
Precursor type: [M+H]+
m/z	relative intensity	assigned
70.065	165	C4H8N+
84.0443	61	C4H6NO+
86.0963	164	C5H12N+
93.0697	34	C7H9+
103.0541	42	C8H7+
105.0697	103	C8H9+
107.0854	237	C8H11+
112.0868	114	C5H10N3+
113.071	19	C5H9N2O+
114.1024	20	C5H12N3+
115.0544	15	C9H7+
115.0865	94	C5H11N2O+
117.0697	47	C9H9+
127.0864	443	C6H11N2O+
130.0499	22	C5H8NO3+
135.0802	999	C9H11O+
135.1167	329	C10H15+
138.0549	20	C7H8NO2+
140.0814	59	C6H10N3O+
141.0655	32	C6H9N2O2+
155.0813	162	C7H11N2O2+
156.1242	31	C6H14N5+
157.1081	117	C6H13N4O+
157.1336	14	C8H17N2O+
163.1116	128	C11H15O+
167.0814	53	C8H11N2O2+
174.1346	132	C6H16N5O+
175.1195	19	C6H15N4O2+
182.1036	27	C7H12N5O+
183.0872	32	C7H11N4O2+
195.0761	47	C9H11N2O3+
196.0603	20	C9H10NO4+
196.0994	14	C13H12N2+
198.1233	16	C9H16N3O2+
200.1139	171	C7H14N5O2+
201.0978	38	C7H13N4O3+
213.0866	366	C9H13N2O4+
213.1341	44	C9H17N4O2+
218.1536	19	C12H18N4+
223.1187	38	C10H15N4O2+
225.1338	31	C10H17N4O2+
226.1182	67	C10H16N3O3+
237.1632	39	C2H21N8O5+
239.0656	71	C9H5N9+
241.129	13	C10H17N4O3+
244.1289	36	C10H18N3O4+
246.1471	21	C13H18N4O+
269.1235	46	C11H17N4O4+
285.1668	41	C11H21N6O3+
286.1504	28	C11H20N5O4+
303.1784	36	C11H23N6O4+
347.1982	23	C5H29N7O10+
375.1903	46	C18H25N5O4+
