Mass spectrum: Bistrifluron; LC-ESI-QFT; MS2; CE: 75%; R=17500; [M-H]-
Name: Bistrifluron
Name: N-[[2-chloro-3,5-bis(trifluoromethyl)phenyl]carbamoyl]-2,6-difluorobenzamide
Formula: C16H7ClF8N2O2
Exact mass: 446.0068
SMILES: C1=CC(=C(C(=C1)F)C(=O)NC(=O)NC2=CC(=CC(=C2Cl)C(F)(F)F)C(F)(F)F)F
InChI: InChI=1S/C16H7ClF8N2O2/c17-12-7(16(23,24)25)4-6(15(20,21)22)5-10(12)26-14(29)27-13(28)11-8(18)2-1-3-9(11)19/h1-5H,(H2,26,27,28,29)
Instrument: Exploris 240 Orbitrap Thermo Scientific
Instrument type: LC-ESI-QFT
Ms type: MS2
Ion mode: NEGATIVE
Ionization: ESI
Fragmentation mode: HCD
Collision energy: 75 % (nominal)
Resolution: 17500
Column name: XBridge C18 3.5um, 2.1x50mm, Waters
Retention time: 14.727 min
Base peak: 444.9993
Precursor m/z: 444.9996
Precursor type: [M-H]-
m/z	relative intensity	assigned
93.0146	130	C6H2F-
113.021	128	C6H3F2-
156.0068	20	C7HF3N-
185.9972	785	C8F4N-
198.9989	11	C4H2F7O-
206.0035	999	C8HF5N-
226.993	16	C8HF6O-
230.9991	50	C9F5N2-
251.0048	53	C9HF6N2-
305.0149	13	C12H3F6N2O-
