Mass spectrum: Naltrexone; LC-ESI-ITFT; MS2; CE: 90%; R=30000; [M+H]+
Name: Naltrexone
Name: (5alpha)-17-(Cyclopropylmethyl)-3,14-dihydroxy-4,5-epoxymorphinan-6-one
Formula: C20H23NO4
Exact mass: 341.1627
SMILES: c12[C@]34[C@@]5([C@H]([N@](CC6CC6)CC4)Cc2ccc(c1O[C@H]3C(=O)CC5)O)O
InChI: InChI=1S/C20H23NO4/c22-13-4-3-12-9-15-20(24)6-5-14(23)18-19(20,16(12)17(13)25-18)7-8-21(15)10-11-1-2-11/h3-4,11,15,18,22,24H,1-2,5-10H2/t15-,18+,19+,20-/m1/s1
Instrument: LTQ Orbitrap XL Thermo Scientific
Instrument type: LC-ESI-ITFT
Ms type: MS2
Ion mode: POSITIVE
Ionization: ESI
Fragmentation mode: HCD
Collision energy: 90 % (nominal)
Resolution: 30000
Column name: XBridge C18 3.5um, 2.1x50mm, Waters
Retention time: 3.1 min
Base peak: 342.1712
Precursor m/z: 342.17
Precursor type: [M+H]+
m/z	relative intensity	assigned
53.0385	18	C4H5+
55.0542	249	C4H7+
80.0495	19	C5H6N+
91.0542	26	C7H7+
115.0542	49	C9H7+
118.0651	55	C8H8N+
128.062	38	C10H8+
129.0698	60	C10H9+
141.0699	49	C11H9+
145.0647	43	C10H9O+
146.06	28	C9H8NO+
147.0441	27	C9H7O2+
147.0678	29	C9H9NO+
148.0756	13	C9H10NO+
152.0621	38	C12H8+
153.0698	82	C12H9+
155.0852	26	C12H11+
156.0807	17	C11H10N+
157.0647	68	C11H9O+
160.0757	30	C10H10NO+
161.0596	170	C10H9O2+
165.0698	64	C13H9+
167.0729	29	C12H9N+
167.0854	45	C13H11+
168.0806	22	C12H10N+
169.0648	36	C12H9O+
171.044	34	C11H7O2+
171.0806	30	C12H11O+
173.0596	51	C11H9O2+
174.0551	13	C10H8NO2+
179.0855	28	C14H11+
180.0807	16	C13H10N+
181.0648	78	C13H9O+
182.0965	48	C13H12N+
183.0802	27	C13H11O+
184.0519	18	C12H8O2+
184.0756	118	C12H10NO+
185.0596	103	C12H9O2+
185.0836	30	C12H11NO+
194.0967	13	C14H12N+
195.0802	22	C14H11O+
196.0755	49	C13H10NO+
197.0592	28	C13H9O2+
198.0673	22	C13H10O2+
198.0911	42	C13H12NO+
199.0753	71	C13H11O2+
200.0704	35	C12H10NO2+
200.1069	22	C13H14NO+
210.0912	53	C14H12NO+
211.0628	104	C13H9NO2+
211.0753	71	C14H11O2+
212.0705	999	C13H10NO2+
213.0784	116	C13H11NO2+
213.0906	17	C14H13O2+
214.0865	18	C13H12NO2+
226.0863	170	C14H12NO2+
227.0704	19	C14H11O3+
228.1019	67	C14H14NO2+
238.1224	22	C16H16NO+
240.1017	31	C15H14NO2+
252.1015	31	C16H14NO2+
266.1172	23	C17H16NO2+
267.125	53	C17H17NO2+
