Mass spectrum: 3-Hydroxycarbofuran; LC-ESI-QFT; MS2; CE: 90%; R=17500; [M+H]+
Name: 3-Hydroxycarbofuran
Name: (3-hydroxy-2,2-dimethyl-3H-1-benzofuran-7-yl) N-methylcarbamate
Formula: C12H15NO4
Exact mass: 237.1001
SMILES: CC1(C(C2=C(O1)C(=CC=C2)OC(=O)NC)O)C
InChI: InChI=1S/C12H15NO4/c1-12(2)10(14)7-5-4-6-8(9(7)17-12)16-11(15)13-3/h4-6,10,14H,1-3H3,(H,13,15)
Instrument: Exploris 240 Orbitrap Thermo Scientific
Instrument type: LC-ESI-QFT
Ms type: MS2
Ion mode: POSITIVE
Ionization: ESI
Fragmentation mode: HCD
Collision energy: 90 % (nominal)
Resolution: 17500
Column name: XBridge C18 3.5um, 2.1x50mm, Waters
Retention time: 4.051 min
Base peak: 220.0968
Precursor m/z: 238.1074
Precursor type: [M+H]+
m/z	relative intensity	assigned
53.0386	48	C4H5+
55.0179	15	C3H3O+
58.0287	454	C2H4NO+
65.0384	15	C5H5+
68.9969	9	C3HO2+
71.0493	10	C4H7O+
77.0388	47	C6H5+
79.0541	58	C6H7+
81.0335	10	C5H5O+
91.0542	223	C7H7+
93.0336	12	C6H5O+
93.0698	15	C7H9+
95.0491	179	C6H7O+
103.054	15	C8H7+
105.0697	9	C8H9+
107.0491	999	C7H7O+
109.0284	11	C6H5O2+
115.0542	355	C9H7+
116.0622	15	C9H8+
117.0698	465	C9H9+
120.0574	8	C8H8O+
121.0642	15	C8H9O+
123.044	46	C7H7O2+
127.0538	23	C10H7+
135.0804	156	C9H11O+
145.0648	116	C10H9O+
148.0521	14	C9H8O2+
163.0752	22	C10H11O2+
