Mass spectrum: N,O-Didesmethylvenlafaxine; LC-ESI-ITFT; MS2; CE: 90%; R=30000; [M+H]+
Name: N,O-Didesmethylvenlafaxine
Name: 4-[1-(1-Hydroxycyclohexyl)-2-(methylamino)ethyl]phenol
Formula: C15H23NO2
Exact mass: 249.1729
SMILES: OC2(C(c1ccc(O)cc1)CNC)CCCCC2
InChI: InChI=1S/C15H23NO2/c1-16-11-14(12-5-7-13(17)8-6-12)15(18)9-3-2-4-10-15/h5-8,14,16-18H,2-4,9-11H2,1H3
Instrument: LTQ Orbitrap XL Thermo Scientific
Instrument type: LC-ESI-ITFT
Ms type: MS2
Ion mode: POSITIVE
Ionization: ESI
Fragmentation mode: HCD
Collision energy: 90 % (nominal)
Resolution: 30000
Column name: XBridge C18 3.5um, 2.1x50mm, Waters
Retention time: 4.9 min
Base peak: 250.1809
Precursor m/z: 250.1802
Precursor type: [M+H]+
m/z	relative intensity	assigned
67.0543	13	C5H7+
69.0699	7	C5H9+
77.0386	26	C6H5+
79.0542	127	C6H7+
81.0699	115	C6H9+
91.0542	48	C7H7+
103.0542	24	C8H7+
105.0699	236	C8H9+
107.0492	999	C7H7O+
115.0542	22	C9H7+
117.0699	16	C9H9+
121.0648	24	C8H9O+
131.0491	20	C9H7O+
131.0856	21	C10H11+
133.0648	291	C9H9O+
135.0679	40	C8H9NO+
141.0698	23	C11H9+
144.057	46	C10H8O+
145.0648	62	C10H9O+
147.0805	15	C10H11O+
155.0605	21	C10H7N2+
159.0805	62	C11H11O+
169.076	12	C11H9N2+
