Mass spectrum: Noscapine; LC-ESI-QFT; MS2; CE: 75; R=35000; [M+H]+
Name: Noscapine
Name: (-)-Noscapine
Name: 6,7-dimethoxy-3-(4-methoxy-6-methyl-7,8-dihydro-5H-[1,3]dioxol[4,5-g]isoquinolin-5-yl)phthalide
Formula: C22H23NO7
Exact mass: 413.14745
SMILES: CN1CCC2=CC3=C(C(=C2[C@@H]1[C@@H]4C5=C(C(=C(C=C5)OC)OC)C(=O)O4)OC)OCO3
InChI: InChI=1S/C22H23NO7/c1-23-8-7-11-9-14-20(29-10-28-14)21(27-4)15(11)17(23)18-12-5-6-13(25-2)19(26-3)16(12)22(24)30-18/h5-6,9,17-18H,7-8,10H2,1-4H3/t17-,18+/m1/s1
Instrument: Q Exactive Orbitrap Thermo Scientific
Instrument type: LC-ESI-QFT
Ms type: MS2
Ion mode: POSITIVE
Ionization: ESI
Fragmentation mode: HCD
Collision energy: 75 (nominal)
Resolution: 35000
Column name: XBridge C18 3.5um, 2.1x50mm, Waters
Retention time: 5.4 min
Base peak: 414.1545
Precursor m/z: 414.1547
Precursor type: [M+H]+
m/z	relative intensity	assigned
65.0385	2	C5H5+
79.0542	4	C6H7+
91.0541	62	C7H7+
93.0697	4	C7H9+
94.0649	4	C6H8N+
95.049	21	C6H7O+
103.0541	16	C8H7+
105.0332	2	C7H5O+
105.0446	2	C6H5N2+
105.0696	2	C8H9+
106.0408	2	C7H6O+
106.065	3	C7H8N+
107.0489	4	C7H7O+
115.0541	3	C9H7+
118.0412	2	C8H6O+
118.0646	5	C8H8N+
119.0489	19	C8H7O+
120.0804	3	C8H10N+
121.0647	67	C8H9O+
121.0884	10	C8H11N+
122.036	10	C7H6O2+
130.0411	14	C9H6O+
131.0489	15	C9H7O+
133.0285	2	C8H5O2+
133.0521	2	C8H7NO+
133.0646	14	C9H9O+
134.036	9	C8H6O2+
134.0601	2	C8H8NO+
135.0438	8	C8H7O2+
135.0677	2	C8H9NO+
136.0518	8	C8H8O2+
137.0601	2	C8H9O2+
145.0645	2	C10H9O+
146.036	4	C9H6O2+
146.06	4	C9H8NO+
147.044	12	C9H7O2+
147.0677	28	C9H9NO+
148.0755	37	C9H10NO+
149.0595	15	C9H9O2+
149.0832	12	C9H11NO+
150.0308	3	C8H6O3+
151.0389	2	C8H7O3+
151.0754	4	C9H11O2+
152.0618	9	C12H8+
153.0697	5	C12H9+
158.0356	5	C10H6O2+
159.0678	11	C10H9NO+
160.0518	10	C10H8O2+
160.076	3	C10H10NO+
161.0597	3	C10H9O2+
162.0308	4	C9H6O3+
162.0543	3	C9H8NO2+
162.0912	9	C10H12NO+
163.0388	10	C9H7O3+
164.0467	15	C9H8O3+
165.0544	20	C9H9O3+
165.0697	20	C13H9+
166.0774	5	C13H10+
167.0852	3	C13H11+
174.0308	16	C10H6O3+
174.0548	21	C10H8NO2+
175.0387	3	C10H7O3+
175.0626	27	C10H9NO2+
176.0468	13	C10H8O3+
176.0618	12	C14H8+
176.0704	26	C10H10NO2+
177.0544	37	C10H9O3+
177.0698	13	C14H9+
177.0782	14	C10H11NO2+
178.0775	37	C14H10+
179.0492	3	C13H7O+
179.0701	35	C10H11O3+
179.085	10	C14H11+
181.0645	38	C13H9O+
182.0723	2	C13H10O+
183.0799	11	C13H11O+
188.0466	43	C11H8O3+
188.0704	12	C11H10NO2+
189.0542	10	C11H9O3+
189.0696	23	C15H9+
190.0496	4	C10H8NO3+
190.0774	12	C15H10+
190.0856	3	C11H12NO2+
191.0489	4	C14H7O+
191.0574	88	C10H9NO3+
191.0703	14	C11H11O3+
191.085	11	C15H11+
192.0566	15	C14H8O+
192.0648	5	C10H10NO3+
193.0493	14	C10H9O4+
193.0646	20	C14H9O+
193.0727	4	C10H11NO3+
194.0723	24	C14H10O+
195.0802	25	C14H11O+
196.0523	3	C13H8O2+
196.0879	4	C14H12O+
202.0772	3	C16H10+
203.0576	36	C11H9NO3+
203.0857	3	C16H11+
204.0567	14	C15H8O+
204.0654	62	C11H10NO3+
205.0653	52	C15H9O+
205.0732	999	C11H11NO3+
206.0723	26	C15H10O+
206.0809	179	C11H12NO3+
207.0438	6	C14H7O2+
207.0801	25	C15H11O+
208.0519	2	C14H8O2+
208.088	8	C15H12O+
209.0595	51	C14H9O2+
209.096	5	C15H13O+
210.0669	4	C14H10O2+
211.075	13	C14H11O2+
216.0568	10	C16H8O+
217.0643	9	C16H9O+
218.0722	23	C16H10O+
218.0816	29	C12H12NO3+
219.044	9	C15H7O2+
219.08	30	C16H11O+
219.0891	6	C12H13NO3+
220.0517	42	C15H8O2+
220.0966	580	C12H14NO3+
221.0594	67	C15H9O2+
222.0671	34	C15H10O2+
223.0751	54	C15H11O2+
224.0828	35	C15H12O2+
225.0908	3	C15H13O2+
226.0621	2	C14H10O3+
231.043	3	C16H7O2+
231.0801	2	C17H11O+
232.0514	24	C16H8O2+
233.0594	73	C16H9O2+
234.0673	74	C16H10O2+
235.0387	8	C15H7O3+
235.075	62	C16H11O2+
236.0471	22	C15H8O3+
236.0829	21	C16H12O2+
237.0543	142	C15H9O3+
237.091	12	C16H13O2+
238.0624	13	C15H10O3+
239.0701	27	C15H11O3+
239.1066	2	C16H15O2+
244.0524	4	C17H8O2+
245.0593	13	C17H9O2+
246.0311	2	C16H6O3+
246.0673	24	C17H10O2+
247.0387	16	C16H7O3+
247.0752	32	C17H11O2+
248.0461	23	C16H8O3+
248.0832	12	C17H12O2+
249.0544	128	C16H9O3+
249.0911	10	C17H13O2+
250.0622	41	C16H10O3+
251.07	105	C16H11O3+
252.0416	4	C15H8O4+
252.0778	51	C16H12O3+
253.0487	2	C15H9O4+
253.0859	15	C16H13O3+
254.0567	2	C15H10O4+
254.0935	8	C16H14O3+
255.065	14	C15H11O4+
259.0391	7	C17H7O3+
260.0465	11	C17H8O3+
261.0544	67	C17H9O3+
262.0623	82	C17H10O3+
263.07	91	C17H11O3+
264.0413	19	C16H8O4+
264.0645	3	C16H10NO3+
264.0777	49	C17H12O3+
265.0492	231	C16H9O4+
265.0858	34	C17H13O3+
266.0571	29	C16H10O4+
266.0806	3	C16H12NO3+
266.0934	3	C17H14O3+
267.0648	38	C16H11O4+
267.1018	8	C17H15O3+
269.0804	9	C16H13O4+
269.1169	2	C17H17O3+
273.0543	8	C18H9O3+
274.0621	17	C18H10O3+
275.0703	21	C18H11O3+
276.0414	11	C17H8O4+
276.0777	17	C18H12O3+
277.0494	73	C17H9O4+
277.0852	17	C18H13O3+
278.0569	27	C17H10O4+
279.0648	102	C17H11O4+
280.0367	19	C16H8O5+
280.0728	171	C17H12O4+
281.0806	53	C17H13O4+
282.0522	2	C16H10O5+
282.089	4	C17H14O4+
283.0596	24	C16H11O5+
285.0756	4	C16H13O5+
289.0494	37	C18H9O4+
290.0569	21	C18H10O4+
291.0648	49	C18H11O4+
292.0362	12	C17H8O5+
292.0727	20	C18H12O4+
293.0446	39	C17H9O5+
293.0807	31	C18H13O4+
294.0523	19	C17H10O5+
294.0749	3	C17H12NO4+
294.089	3	C18H14O4+
295.0598	102	C17H11O5+
295.0962	39	C18H15O4+
297.0754	9	C17H13O5+
298.0831	3	C17H14O5+
302.0572	11	C19H10O4+
303.066	4	C19H11O4+
304.0371	4	C18H8O5+
304.0733	3	C19H12O4+
305.0441	23	C18H9O5+
305.0814	20	C19H13O4+
306.0521	45	C18H10O5+
307.0598	143	C18H11O5+
308.0685	18	C18H12O5+
308.0915	3	C18H14NO4+
309.0754	50	C18H13O5+
310.0835	33	C18H14O5+
311.0556	3	C17H11O6+
312.0982	3	C18H16O5+
313.0713	3	C17H13O6+
317.0441	2	C19H9O5+
319.0599	37	C19H11O5+
320.0679	5	C19H12O5+
320.0908	3	C19H14NO4+
321.0762	18	C19H13O5+
322.0474	3	C18H10O6+
322.0833	13	C19H14O5+
323.0544	41	C18H11O6+
323.0916	14	C19H15O5+
325.07	4	C18H13O6+
325.1066	5	C19H17O5+
335.0555	12	C19H11O6+
336.0851	3	C19H14NO5+
337.0703	28	C19H13O6+
338.0792	3	C19H14O6+
338.102	8	C19H16NO5+
351.0734	3	C19H13NO6+
366.0967	13	C20H16NO6+
