Mass spectrum: Cadusafos; LC-ESI-QFT; MS2; CE: 150%; R=17500; [M+H]+
Name: Cadusafos
Name: 2-[butan-2-ylsulfanyl(ethoxy)phosphoryl]sulfanylbutane
Formula: C10H23O2PS2
Exact mass: 270.0877
SMILES: CCC(C)SP(=O)(OCC)SC(C)CC
InChI: InChI=1S/C10H23O2PS2/c1-6-9(4)14-13(11,12-8-3)15-10(5)7-2/h9-10H,6-8H2,1-5H3
Instrument: Exploris 240 Orbitrap Thermo Scientific
Instrument type: LC-ESI-QFT
Ms type: MS2
Ion mode: POSITIVE
Ionization: ESI
Fragmentation mode: HCD
Collision energy: 150 % (nominal)
Resolution: 17500
Column name: XBridge C18 3.5um, 2.1x50mm, Waters
Retention time: 12.037 min
Base peak: 271.0949
Precursor m/z: 271.095
Precursor type: [M+H]+
m/z	relative intensity	assigned
64.9787	878	H2O2P+
78.9402	625	OPS+
94.9174	393	PS2+
96.9508	999	H2O2PS+
110.9667	47	CH4O2PS+
112.9281	35	H2OPS2+
