Mass spectrum: Flusilazole; LC-ESI-ITFT; MS2; CE: 30%; R=7500; [M+H]+
Name: Flusilazole
Name: bis(4-fluorophenyl)-methyl-(1,2,4-triazol-1-ylmethyl)silane
Formula: C16H15F2N3Si
Exact mass: 315.0998
SMILES: n1(cncn1)C[Si](c1ccc(F)cc1)(C)c1ccc(cc1)F
InChI: InChI=1S/C16H15F2N3Si/c1-22(12-21-11-19-10-20-21,15-6-2-13(17)3-7-15)16-8-4-14(18)5-9-16/h2-11H,12H2,1H3
Instrument: LTQ Orbitrap XL Thermo Scientific
Instrument type: LC-ESI-ITFT
Ms type: MS2
Ion mode: POSITIVE
Ionization: ESI
Fragmentation mode: HCD
Collision energy: 30 % (nominal)
Resolution: 7500
Column name: XBridge C18 3.5um, 2.1x50mm, Waters
Retention time: 12.4 min
Base peak: 316.1073
Precursor m/z: 316.1076
Precursor type: [M+H]+
m/z	relative intensity	assigned
79.0008	4	CH4FOSi+
91.0543	15	C7H7+
105.0699	32	C8H9+
109.0451	2	C2H5F2N3+
141.0166	4	C6H6FOSi+
149.0419	3	C8H9OSi+
151.0375	12	C8H8FSi+
165.0699	68	C13H9+
166.0778	19	C13H10+
169.0479	412	C8H10FOSi+
171.0441	4	C8H9F2Si+
183.0638	4	C9H12FOSi+
185.0763	7	C13H10F+
199.0367	2	C7H7F2N3Si+
219.0442	7	C12H9F2Si+
220.0701	12	C10H11FN3Si+
227.069	3	C14H12FSi+
247.0747	251	C14H13F2Si+
316.1073	999	C16H16F2N3Si+
