Mass spectrum: Codeine; LC-ESI-ITFT; MS2; CE: 90%; R=7500; [M+H]+
Name: Codeine
Name: (5,6)-3-Methoxy-17-methyl-7,8-didehydro-4,5-epoxymorphinan-6-ol
Name: Methylmorphine
Formula: C18H21NO3
Exact mass: 299.1521
SMILES: CN1CC[C@]23[C@@H]4[C@H]1CC5=C2C(=C(C=C5)OC)O[C@H]3[C@H](C=C4)O
InChI: InChI=1S/C18H21NO3/c1-19-8-7-18-11-4-5-13(20)17(18)22-16-14(21-2)6-3-10(15(16)18)9-12(11)19/h3-6,11-13,17,20H,7-9H2,1-2H3/t11-,12+,13-,17-,18-/m0/s1
Instrument: LTQ Orbitrap XL Thermo Scientific
Instrument type: LC-ESI-ITFT
Ms type: MS2
Ion mode: POSITIVE
Ionization: ESI
Fragmentation mode: HCD
Collision energy: 90 % (nominal)
Resolution: 7500
Column name: XBridge C18 3.5um, 2.1x50mm, Waters
Retention time: 2.8 min
Base peak: 300.1595
Precursor m/z: 300.1594
Precursor type: [M+H]+
m/z	relative intensity	assigned
55.0177	13	C3H3O+
57.0335	17	C3H5O+
58.0651	64	C3H8N+
69.0335	15	C4H5O+
79.054	18	C6H7+
81.0337	17	C5H5O+
83.0489	16	C5H7O+
91.0541	66	C7H7+
93.0697	10	C7H9+
94.0412	8	C6H6O+
103.0542	54	C8H7+
105.0696	24	C8H9+
107.0493	22	C7H7O+
115.0541	183	C9H7+
116.0623	28	C9H8+
117.0697	26	C9H9+
121.0648	36	C8H9O+
122.0363	22	C7H6O2+
127.0547	11	C10H7+
128.062	271	C10H8+
129.0699	144	C10H9+
131.0491	50	C9H7O+
137.0595	83	C8H9O2+
139.0544	19	C11H7+
140.0621	16	C11H8+
141.0697	344	C11H9+
142.0777	61	C11H10+
143.0494	49	C10H7O+
144.0568	260	C10H8O+
145.0646	50	C10H9O+
146.036	41	C9H6O2+
146.0721	12	C10H10O+
151.0539	14	C12H7+
152.062	357	C12H8+
153.0698	903	C12H9+
154.0777	178	C12H10+
155.0492	119	C11H7O+
155.0601	68	C10H7N2+
155.0855	333	C12H11+
156.0569	202	C11H8O+
157.0649	98	C11H9O+
158.0727	135	C11H10O+
159.0439	65	C10H7O2+
159.0806	80	C11H11O+
160.0523	14	C10H8O2+
160.0755	10	C10H10NO+
161.0597	279	C10H9O2+
165.0698	999	C13H9+
166.0776	170	C13H10+
167.0856	65	C13H11+
168.0569	225	C12H8O+
169.0649	190	C12H9O+
170.0361	27	C11H6O2+
170.0726	108	C12H10O+
171.0443	88	C11H7O2+
171.0804	471	C12H11O+
172.0517	65	C11H8O2+
172.0884	79	C12H12O+
173.0599	30	C11H9O2+
173.0959	19	C12H13O+
174.0678	32	C11H10O2+
175.0755	30	C11H11O2+
177.0698	30	C14H9+
178.0778	91	C14H10+
179.0855	82	C14H11+
180.0569	60	C13H8O+
180.0935	17	C14H12+
181.0647	578	C13H9O+
182.0725	216	C13H10O+
183.0437	234	C12H7O2+
183.0805	174	C13H11O+
184.0517	105	C12H8O2+
184.0888	18	C13H12O+
185.0595	236	C12H9O2+
185.0961	44	C13H13O+
186.0672	52	C12H10O2+
187.0752	57	C12H11O2+
187.111	13	C13H15O+
189.0701	58	C15H9+
190.0775	73	C15H10+
191.0855	87	C15H11+
193.0651	137	C14H9O+
194.0725	164	C14H10O+
195.0804	88	C14H11O+
196.052	19	C13H8O2+
197.0597	239	C13H9O2+
197.0965	32	C14H13O+
198.0674	240	C13H10O2+
199.0753	290	C13H11O2+
200.083	59	C13H12O2+
202.0774	25	C16H10+
205.0645	40	C15H9O+
207.0801	48	C15H11O+
208.0518	53	C14H8O2+
208.088	28	C15H12O+
209.0596	119	C14H9O2+
209.0966	20	C15H13O+
210.0677	125	C14H10O2+
211.0753	73	C14H11O2+
212.0829	59	C14H12O2+
213.054	12	C13H9O3+
213.0905	60	C14H13O2+
218.0719	16	C16H10O+
219.0809	37	C16H11O+
220.1118	37	C16H14N+
221.0597	50	C15H9O2+
223.0754	106	C15H11O2+
224.0828	14	C15H12O2+
225.0909	74	C15H13O2+
235.0763	20	C16H11O2+
236.0839	18	C16H12O2+
241.0856	44	C15H13O3+
248.1068	21	C17H14NO+
266.1166	27	C17H16NO2+
