Mass spectrum: Cyprodinil-TP CGA 249287; LC-ESI-QFT; MS2; CE: 90%; R=17500; [M+H]+
Name: Cyprodinil-TP CGA 249287
Name: 4-Cyclopropyl-6-methyl-2-pyrimidinamine
Name: 4-cyclopropyl-6-methylpyrimidin-2-amine
Formula: C8H11N3
Exact mass: 149.0953
SMILES: CC1=NC(N)=NC(=C1)C1CC1
InChI: InChI=1S/C8H11N3/c1-5-4-7(6-2-3-6)11-8(9)10-5/h4,6H,2-3H2,1H3,(H2,9,10,11)
Instrument: Q Exactive Plus Orbitrap Thermo Scientific
Instrument type: LC-ESI-QFT
Ms type: MS2
Ion mode: POSITIVE
Ionization: ESI
Fragmentation mode: HCD
Collision energy: 90 % (nominal)
Resolution: 17500
Column name: XBridge C18 3.5um, 2.1x50mm, Waters
Retention time: 2.394 min
Base peak: 150.1026
Precursor m/z: 150.1026
Precursor type: [M+H]+
m/z	relative intensity	assigned
53.0022	8	
53.0386	27	C4H5+
54.0339	9	C3H4N+
55.0291	18	C2H3N2+
56.0495	13	C3H6N+
65.0386	585	C5H5+
66.0339	52	C4H4N+
66.0464	21	C5H6+
67.0291	597	C3H3N2+
67.0417	43	C4H5N+
67.0542	79	C5H7+
68.0494	77	C4H6N+
69.0449	12	C3H5N2+
77.0384	25	C6H5+
78.0338	14	C5H4N+
79.0542	301	C6H7+
80.0494	122	C5H6N+
81.0573	20	C5H7N+
81.0698	98	C6H9+
82.0651	64	C5H8N+
83.0604	146	C4H7N2+
89.0386	72	C7H5+
90.0341	12	C6H4N+
91.0417	37	C6H5N+
91.0543	199	C7H7+
92.0495	308	C6H6N+
93.0448	25	
93.0573	660	C6H7N+
94.0652	19	C6H8N+
95.0491	53	
95.0604	138	C5H7N2+
96.0444	51	
104.0494	20	C7H6N+
105.0447	56	C6H5N2+
106.0651	322	C7H8N+
107.0605	41	C6H7N2+
107.0729	14	C7H9N+
108.0556	113	C5H6N3+
108.0807	307	C7H10N+
109.076	54	C6H9N2+
109.0883	11	C7H11N+
110.0601	59	
116.0495	125	C8H6N+
117.0448	35	C7H5N2+
117.0572	28	C8H7N+
118.0525	999	C7H6N2+
122.0713	8	C6H8N3+
123.079	14	C6H9N3+
123.0916	11	C7H11N2+
124.0759	33	
131.0604	119	C8H7N2+
132.0682	314	C8H8N2+
133.076	488	C8H9N2+
134.0599	47	
134.0714	31	C7H8N3+
135.0553	25	
148.087	22	C8H10N3+
150.1026	657	C8H12N3+
151.0869	19	
