Mass spectrum: 7-amino-flunitrazepam; LC-ESI-QFT; MS2; CE: 60; R=35000; [M+H]+
Name: 7-amino-flunitrazepam
Name: 7-aminoflunitrazepam
Name: 7-amino-5-(2-fluorophenyl)-1-methyl-3H-1,4-benzodiazepin-2-one
Formula: C16H14FN3O
Exact mass: 283.11209
SMILES: CN1C(=O)CN=C(C2=C1C=CC(=C2)N)C3=CC=CC=C3F
InChI: InChI=1S/C16H14FN3O/c1-20-14-7-6-10(18)8-12(14)16(19-9-15(20)21)11-4-2-3-5-13(11)17/h2-8H,9,18H2,1H3
Instrument: Q Exactive Plus Orbitrap Thermo Scientific
Instrument type: LC-ESI-QFT
Ms type: MS2
Ion mode: POSITIVE
Ionization: ESI
Fragmentation mode: HCD
Collision energy: 60 (nominal)
Resolution: 35000
Column name: XBridge C18 3.5um, 2.1x50mm, Waters
Retention time: 4.9 min
Base peak: 284.1182
Precursor m/z: 284.1194
Precursor type: [M+H]+
m/z	relative intensity	assigned
58.0286	5	C2H4NO+
68.0493	2	C4H6N+
77.0382	1	CH4FN3+
79.054	5	CH6FN3+
80.0493	3	C5H6N+
92.0493	3	C6H6N+
93.0572	30	C6H7N+
94.065	43	C6H8N+
95.0602	2	C5H7N2+
96.0679	2	C5H8N2+
104.0492	13	C7H6N+
105.0446	1	C6H5N2+
105.0571	6	C7H7N+
106.0649	50	C7H8N+
107.0601	2	C6H7N2+
107.0727	53	C7H9N+
108.0806	42	C7H10N+
109.0447	20	C7H6F+
116.0494	4	C8H6N+
117.0572	6	C8H7N+
118.0649	10	C8H8N+
119.0601	9	C7H7N2+
119.0727	2	C8H9N+
120.0443	4	C7H6NO+
120.068	26	C7H8N2+
121.0758	25	C7H9N2+
122.0399	24	C7H5FN+
123.0238	53	C7H4FO+
124.0554	2	C7H7FN+
130.0399	4	C7H4N3+
131.0602	79	C8H7N2+
132.0442	15	C8H6NO+
132.068	22	C8H8N2+
133.0758	42	C8H9N2+
134.0398	11	C8H5FN+
134.0599	7	C8H8NO+
134.0835	4	C8H10N2+
135.0914	999	C8H11N2+
136.0556	7	C8H7FN+
143.0602	3	C9H7N2+
144.0555	2	C8H6N3+
145.0758	5	C9H9N2+
146.0598	27	C9H8NO+
146.071	24	C8H8N3+
146.0834	3	C9H10N2+
147.0676	2	C9H9NO+
147.0789	20	C8H9N3+
148.0628	185	C8H8N2O+
149.0707	11	C8H9N2O+
153.0697	2	C7H8FN3+
158.0711	10	C9H8N3+
160.0866	25	C9H10N3+
161.0635	8	C10H8FN+
161.0706	68	C9H9N2O+
161.0944	13	C9H11N3+
162.0349	3	C9H5FNO+
162.0784	3	C9H10N2O+
163.0863	49	C9H11N2O+
165.0696	2	C8H8FN3+
166.0649	2	C12H8N+
167.0726	3	C12H9N+
168.0805	4	C12H10N+
174.0711	4	C11H9FN+
178.0651	3	C13H8N+
180.0805	38	C13H10N+
181.0881	10	C13H11N+
183.0602	21	C13H8F+
185.0631	3	C12H8FN+
186.0706	1	C12H9FN+
187.0792	6	C12H10FN+
188.0866	3	C12H11FN+
190.0651	5	C14H8N+
192.0675	1	C13H8N2+
192.0804	3	C14H10N+
193.0753	3	C13H9N2+
194.0834	3	C13H10N2+
195.0914	43	C13H11N2+
198.071	20	C13H9FN+
199.0789	1	C13H10FN+
200.0867	22	C13H11FN+
205.0759	8	C14H9N2+
206.0836	32	C14H10N2+
207.0914	113	C14H11N2+
208.0992	73	C14H12N2+
209.0634	6	C14H8FN+
209.107	25	C14H13N2+
210.0711	70	C14H9FN+
211.0788	63	C14H10FN+
212.0739	3	C13H9FN2+
212.0866	6	C14H11FN+
213.0818	2	C13H10FN2+
214.066	3	C13H9FNO+
215.0977	68	C13H12FN2+
219.0914	25	C15H11N2+
220.0865	14	C14H10N3+
220.0989	6	C15H12N2+
221.0943	21	C14H11N3+
222.0709	2	C15H9FN+
222.102	1	C14H12N3+
223.066	1	C14H8FN2+
224.0741	7	C14H9FN2+
225.0819	36	C14H10FN2+
226.0898	335	C14H11FN2+
227.0976	358	C14H12FN2+
228.0817	8	C14H11FNO+
229.1132	29	C14H14FN2+
234.1021	12	C15H12N3+
235.11	3	C15H13N3+
236.1179	116	C15H14N3+
237.0822	1	C15H10FN2+
237.1019	2	C15H13N2O+
238.0769	7	C14H9FN3+
238.0895	2	C15H11FN2+
239.085	2	C14H10FN3+
239.0974	19	C15H12FN2+
240.0927	174	C14H11FN3+
240.1052	34	C15H13FN2+
241.1006	73	C14H12FN3+
242.0846	1	C14H11FN2O+
242.1079	4	C14H13FN3+
247.0861	3	C16H11N2O+
249.0894	8	C15H11N3O+
250.0972	1	C15H12N3O+
254.0846	6	C15H11FN2O+
254.1083	80	C15H13FN3+
255.0926	9	C15H12FN2O+
255.116	13	C15H14FN3+
256.124	108	C15H15FN3+
264.1127	33	C16H14N3O+
268.0877	7	C15H11FN3O+
269.0955	5	C15H12FN3O+
284.1189	135	C16H15FN3O+
