Mass spectrum: Fluazifop-butyl; LC-ESI-QFT; MS2; CE: 30; R=35000; [M+H]+
Name: Fluazifop-butyl
Name: 2-[4-[[5-(trifluoromethyl)-2-pyridinyl]oxy]phenoxy]propanoic acid butyl ester
Formula: C19H20F3NO4
Exact mass: 383.13444
SMILES: O=C(OCCCC)C(Oc2ccc(Oc1ncc(cc1)C(F)(F)F)cc2)C
InChI: InChI=1S/C19H20F3NO4/c1-3-4-11-25-18(24)13(2)26-15-6-8-16(9-7-15)27-17-10-5-14(12-23-17)19(20,21)22/h5-10,12-13H,3-4,11H2,1-2H3
Instrument: Q Exactive Orbitrap Thermo Scientific
Instrument type: LC-ESI-QFT
Ms type: MS2
Ion mode: POSITIVE
Ionization: ESI
Fragmentation mode: HCD
Collision energy: 30 (nominal)
Resolution: 35000
Column name: XBridge C18 3.5um, 2.1x50mm, Waters
Retention time: 15.1 min
Base peak: 384.1426
Precursor m/z: 384.1417
Precursor type: [M+H]+
m/z	relative intensity	assigned
57.07	9	C4H9+
73.0285	1	C3H5O2+
91.0544	52	C7H7+
119.0493	18	C8H7O+
121.0286	3	C7H5O2+
146.0213	1	C6H3F3N+
164.0319	3	C6H5F3NO+
226.0842	1	C12H11F3N+
238.0478	11	C12H7F3NO+
254.0431	6	C12H7F3NO2+
254.0793	91	C13H11F3NO+
255.0507	46	C12H8F3NO2+
256.0586	34	C12H9F3NO2+
264.0638	1	C14H9F3NO+
282.0742	999	C14H11F3NO2+
310.0694	5	C15H11F3NO3+
328.0797	418	C15H13F3NO4+
338.1369	2	C18H19F3NO2+
384.1424	31	C19H21F3NO4+
