Mass spectrum: Atenolol-desisopropyl; LC-ESI-QFT; MS2; CE: 30; R=35000; [M+H]+
Name: Atenolol-desisopropyl
Name: 4-(3-Amino-2-hydroxypropoxy)phenylacetamide
Formula: C11H16N2O3
Exact mass: 224.11609
SMILES: c1cc(ccc1CC(=O)N)OCC(CN)O
InChI: InChI=1S/C11H16N2O3/c12-6-9(14)7-16-10-3-1-8(2-4-10)5-11(13)15/h1-4,9,14H,5-7,12H2,(H2,13,15)
Instrument: Q Exactive Plus Orbitrap Thermo Scientific
Instrument type: LC-ESI-QFT
Ms type: MS2
Ion mode: POSITIVE
Ionization: ESI
Fragmentation mode: HCD
Collision energy: 30 (nominal)
Resolution: 35000
Column name: XBridge C18 3.5um, 2.1x50mm, Waters
Retention time: 1.0 min
Base peak: 225.1233
Precursor m/z: 225.1234
Precursor type: [M+H]+
m/z	relative intensity	assigned
56.0495	74	C3H6N+
74.06	427	C3H8NO+
107.0489	2	C7H7O+
121.0649	1	C8H9O+
133.0648	14	C9H9O+
145.0649	137	C10H9O+
147.0443	2	C9H7O2+
152.0706	9	C8H10NO2+
161.06	2	C10H9O2+
162.0914	76	C10H12NO+
163.0754	5	C10H11O2+
164.0706	27	C9H10NO2+
173.0598	38	C11H9O2+
178.0863	170	C10H12NO2+
180.1019	226	C10H14NO2+
182.0811	8	C9H12NO3+
190.0863	472	C11H12NO2+
207.1129	4	C11H15N2O2+
208.0969	387	C11H14NO3+
225.1234	999	C11H17N2O3+
