Mass spectrum: Lorazepam; LC-ESI-QFT; MS2; CE: 15; R=35000; [M+H]+
Name: Lorazepam
Name: 2H-1,4-Benzodiazepin-2-one, 7-chloro-5-(2-chlorophenyl)-1,3-dihydro-3-hydroxy-
Name: 7-chloranyl-5-(2-chlorophenyl)-3-oxidanyl-1,3-dihydro-1,4-benzodiazepin-2-one
Formula: C15H10Cl2N2O2
Exact mass: 320.01193
SMILES: Clc3ccccc3C/2=N/C(O)C(=O)Nc1c\2cc(Cl)cc1
InChI: InChI=1S/C15H10Cl2N2O2/c16-8-5-6-12-10(7-8)13(19-15(21)14(20)18-12)9-3-1-2-4-11(9)17/h1-7,15,21H,(H,18,20)
Instrument: Q Exactive Orbitrap Thermo Scientific
Instrument type: LC-ESI-QFT
Ms type: MS2
Ion mode: POSITIVE
Ionization: ESI
Fragmentation mode: HCD
Collision energy: 15 (nominal)
Resolution: 35000
Column name: XBridge C18 3.5um, 2.1x50mm, Waters
Retention time: 8.9 min
Base peak: 321.0195
Precursor m/z: 321.0192
Precursor type: [M+H]+
m/z	relative intensity	assigned
138.0103	1	C7H5ClN+
229.0527	3	C13H10ClN2+
263.0138	1	C13H9Cl2N2+
265.0296	1	C13H11Cl2N2+
275.0138	69	C14H9Cl2N2+
303.0087	248	C15H9Cl2N2O+
321.0192	999	C15H11Cl2N2O2+
