Mass spectrum: Lamotrigine; LC-ESI-ITFT; MS2; CE: 60%; R=7500; [M+H]+
Name: Lamotrigine
Name: 6-(2,3-dichlorophenyl)-1,2,4-triazine-3,5-diamine
Formula: C9H7Cl2N5
Exact mass: 255.0079
SMILES: Cl-c(ccc1)c(Cl)c1-c(nnc2N)c(n2)N
InChI: InChI=1S/C9H7Cl2N5/c10-5-3-1-2-4(6(5)11)7-8(12)14-9(13)16-15-7/h1-3H,(H4,12,13,14,16)
Instrument: LTQ Orbitrap XL Thermo Scientific
Instrument type: LC-ESI-ITFT
Ms type: MS2
Ion mode: POSITIVE
Ionization: ESI
Fragmentation mode: HCD
Collision energy: 60 % (nominal)
Resolution: 7500
Column name: XBridge C18 3.5um, 2.1x50mm, Waters
Retention time: 5.4 min
Base peak: 256.016
Precursor m/z: 256.0151
Precursor type: [M+H]+
m/z	relative intensity	assigned
58.0399	25	CH4N3+
122.9995	16	C7H4Cl+
138.0111	4	C7H5ClN+
150.0102	7	C8H5ClN+
151.0185	39	C8H6ClN+
152.0137	12	C7H5ClN2+
156.9607	41	C7H3Cl2+
158.9762	75	C7H5Cl2+
159.9718	5	C6H4Cl2N+
165.0214	50	C8H6ClN2+
166.0292	93	C8H7ClN2+
171.9715	101	C7H4Cl2N+
172.9669	10	C6H3Cl2N2+
173.9872	32	C7H6Cl2N+
178.0161	10	C8H5ClN3+
179.0248	9	C8H6ClN3+
183.9716	56	C8H4Cl2N+
185.9873	42	C8H6Cl2N+
186.9824	104	C7H5Cl2N2+
193.0393	8	C9H8ClN3+
194.0353	4	C8H7ClN4+
196.9667	14	C8H3Cl2N2+
210.9824	183	C9H5Cl2N2+
211.9775	31	C8H4Cl2N3+
213.9929	14	C8H6Cl2N3+
220.0384	40	C9H7ClN5+
221.0467	4	C9H8ClN5+
229.0042	42	C8H7Cl2N4+
256.0149	999	C9H8Cl2N5+
