Mass spectrum: Clobazam; LC-ESI-QFT; MS2; CE: 75; R=35000; [M+H]+
Name: Clobazam
Name: 7-chloro-1-methyl-5-phenyl-1,5-benzodiazepine-2,4-dione
Formula: C16H13ClN2O2
Exact mass: 300.06656
SMILES: CN1C(=O)CC(=O)N(C2=C1C=CC(=C2)Cl)C3=CC=CC=C3
InChI: InChI=1S/C16H13ClN2O2/c1-18-13-8-7-11(17)9-14(13)19(16(21)10-15(18)20)12-5-3-2-4-6-12/h2-9H,10H2,1H3
Instrument: Q Exactive Plus Orbitrap Thermo Scientific
Instrument type: LC-ESI-QFT
Ms type: MS2
Ion mode: POSITIVE
Ionization: ESI
Fragmentation mode: HCD
Collision energy: 75 (nominal)
Resolution: 35000
Column name: XBridge C18 3.5um, 2.1x50mm, Waters
Retention time: 8.4 min
Base peak: 301.073
Precursor m/z: 301.0738
Precursor type: [M+H]+
m/z	relative intensity	assigned
50.0151	2	C4H2+
51.0228	4	C4H3+
53.0386	17	C4H5+
65.0385	1	C5H5+
68.997	16	C3HO2+
77.0384	41	C6H5+
78.0463	1	C6H6+
81.0334	2	C5H5O+
90.0337	2	C6H4N+
91.0542	33	C7H7+
92.0492	3	C6H6N+
93.0572	2	C6H7N+
95.0491	51	C6H7O+
98.9995	1	C5H4Cl+
104.0493	3	C7H6N+
105.0334	380	C7H5O+
105.0447	36	C6H5N2+
112.0075	1	C6H5Cl+
117.0446	11	C7H5N2+
117.0572	1	C8H7N+
118.0524	41	C7H6N2+
119.0603	5	C7H7N2+
126.0104	6	C6H5ClN+
128.0261	2	C6H7ClN+
135.055	4	C7H7N2O+
140.0261	9	C7H7ClN+
141.034	3	C7H8ClN+
145.0508	28	C7H5N4+
146.0474	11	C8H6N2O+
147.0552	17	C8H7N2O+
148.0629	1	C8H8N2O+
153.0213	399	C7H6ClN2+
154.0646	2	C11H8N+
165.0213	2	C8H6ClN2+
166.0651	17	C12H8N+
167.0729	44	C12H9N+
168.0806	3	C12H10N+
179.0731	4	C13H9N+
180.0806	15	C13H10N+
181.0162	87	C8H6ClN2O+
181.0759	33	C12H9N2+
182.024	51	C8H7ClN2O+
182.0838	56	C12H10N2+
183.0319	16	C8H8ClN2O+
194.0837	1	C13H10N2+
195.0916	113	C13H11N2+
196.0755	10	C13H10NO+
196.0997	5	C13H12N2+
200.0259	6	C15H4O+
202.0416	18	C12H9ClN+
203.0369	19	C11H8ClN2+
207.0917	30	C14H11N2+
208.0628	4	C13H8N2O+
209.0709	36	C13H9N2O+
214.0417	14	C13H9ClN+
215.037	82	C12H8ClN2+
216.0449	246	C15H6NO+
217.0528	28	C12H10ClN2+
218.0603	12	C12H11ClN2+
223.0865	276	C14H11N2O+
224.0943	999	C14H12N2O+
228.0211	3	C13H7ClNO+
229.052	4	C16H7NO+
231.0687	4	C13H12ClN2+
241.0525	1	C14H10ClN2+
243.0317	5	C16H5NO2+
244.0397	118	C13H9ClN2O+
257.0471	3	C14H10ClN2O+
258.0553	7	C14H11ClN2O+
259.0632	300	C14H12ClN2O+
