Mass spectrum: Meptazinol; LC-ESI-QFT; MS2; CE: 30; R=35000; [M+H]+
Name: Meptazinol
Name: 3-(3-ethyl-1-methylazepan-3-yl)phenol
Formula: C15H23NO
Exact mass: 233.17796
SMILES: CCC1(CCCCN(C1)C)C2=CC(=CC=C2)O
InChI: InChI=1S/C15H23NO/c1-3-15(9-4-5-10-16(2)12-15)13-7-6-8-14(17)11-13/h6-8,11,17H,3-5,9-10,12H2,1-2H3
Instrument: Q Exactive Orbitrap Thermo Scientific
Instrument type: LC-ESI-QFT
Ms type: MS2
Ion mode: POSITIVE
Ionization: ESI
Fragmentation mode: HCD
Collision energy: 30 (nominal)
Resolution: 35000
Column name: XBridge C18 3.5um, 2.1x50mm, Waters
Retention time: 4.9 min
Base peak: 234.1853
Precursor m/z: 234.1852
Precursor type: [M+H]+
m/z	relative intensity	assigned
67.0541	1	C5H7+
83.0854	2	C6H11+
84.0806	1	C5H10N+
86.0963	1	C5H12N+
95.0854	4	C7H11+
98.0963	1	C6H12N+
107.049	50	C7H7O+
109.1011	5	C8H13+
121.0647	10	C8H9O+
126.1276	7	C8H16N+
133.0646	8	C9H9O+
135.0803	5	C9H11O+
140.1431	1	C9H18N+
147.0803	9	C10H11O+
161.096	8	C11H13O+
203.143	2	C14H19O+
234.1851	999	C15H24NO+
