Mass spectrum: Mirtazapine; LC-ESI-QFT; MS2; CE: 75; R=35000; [M+H]+
Name: Mirtazapine
Name: 2-Methyl-1,2,3,4,10,14b-hexahydropyrazino[2,1-a]pyrido[2,3-c][2]benzazepine
Formula: C17H19N3
Exact mass: 265.15790
SMILES: CN1CCN2C(C1)C3=CC=CC=C3CC4=C2N=CC=C4
InChI: InChI=1S/C17H19N3/c1-19-9-10-20-16(12-19)15-7-3-2-5-13(15)11-14-6-4-8-18-17(14)20/h2-8,16H,9-12H2,1H3
Instrument: Q Exactive Plus Orbitrap Thermo Scientific
Instrument type: LC-ESI-QFT
Ms type: MS2
Ion mode: POSITIVE
Ionization: ESI
Fragmentation mode: HCD
Collision energy: 75 (nominal)
Resolution: 35000
Column name: XBridge C18 3.5um, 2.1x50mm, Waters
Retention time: 4.7 min
Base peak: 266.1642
Precursor m/z: 266.1652
Precursor type: [M+H]+
m/z	relative intensity	assigned
56.0494	3	C3H6N+
57.0572	2	C3H7N+
58.065	15	C3H8N+
65.0385	9	C5H5+
70.065	19	C4H8N+
72.0807	234	C4H10N+
78.0337	1	C5H4N+
80.0493	3	C5H6N+
85.0759	1	C4H9N2+
91.0541	13	C7H7+
92.0494	15	C6H6N+
96.0443	3	C5H6NO+
103.0541	3	C8H7+
105.0698	11	C8H9+
106.0651	1	C7H8N+
107.0602	7	C6H7N2+
110.0599	49	C6H8NO+
115.0541	30	C9H7+
116.0493	4	C8H6N+
117.0445	5	C7H5N2+
117.0572	1	C8H7N+
117.0697	4	C9H9+
118.0525	1	C7H6N2+
119.0602	1	C7H7N2+
129.0697	2	C10H9+
130.065	5	C9H8N+
131.0602	6	C8H7N2+
131.0728	12	C9H9N+
133.0758	5	C8H9N2+
133.0885	1	C9H11N+
134.0599	2	C8H8NO+
135.055	3	C7H7N2O+
141.0697	3	C11H9+
144.0806	10	C10H10N+
146.0963	2	C10H12N+
153.0697	1	C12H9+
154.0651	1	C11H8N+
165.0699	4	C13H9+
166.0651	2	C12H8N+
167.0727	21	C12H9N+
168.0806	26	C12H10N+
169.0647	1	C12H9O+
170.0963	1	C12H12N+
178.065	21	C13H8N+
179.0727	12	C13H9N+
180.0805	33	C13H10N+
181.0756	4	C12H9N2+
181.0882	3	C13H11N+
182.0962	13	C13H12N+
191.0723	2	C14H9N+
192.0807	7	C14H10N+
193.0756	4	C13H9N2+
193.0885	1	C14H11N+
194.0837	215	C13H10N2+
195.0915	999	C13H11N2+
196.0754	4	C13H10NO+
204.0807	1	C15H10N+
205.0757	4	C14H9N2+
206.0838	4	C14H10N2+
206.0964	1	C15H12N+
207.0914	13	C14H11N2+
208.0992	4	C14H12N2+
209.1071	57	C14H13N2+
217.0883	4	C16H11N+
218.0836	1	C15H10N2+
218.0963	2	C16H12N+
219.0915	17	C15H11N2+
220.099	4	C15H12N2+
221.1069	4	C15H13N2+
223.1225	4	C15H15N2+
233.1071	4	C16H13N2+
235.1228	5	C16H15N2+
264.1493	2	C17H18N3+
