Mass spectrum: Dimethachlor OXA; LC-ESI-ITFT; MS2; CE: 45%; R=7500; [M-H]-
Name: Dimethachlor OXA
Name: 2-[(2,6-dimethylphenyl)(2-methoxyethyl)amino]-2-oxo-acetic acid
Formula: C13H17NO4
Exact mass: 251.1158
SMILES: Cc1cccc(C)c1N(CCOC)C(=O)C(O)=O
InChI: InChI=1S/C13H17NO4/c1-9-5-4-6-10(2)11(9)14(7-8-18-3)12(15)13(16)17/h4-6H,7-8H2,1-3H3,(H,16,17)
Instrument: LTQ Orbitrap XL Thermo Scientific
Instrument type: LC-ESI-ITFT
Ms type: MS2
Ion mode: NEGATIVE
Ionization: ESI
Fragmentation mode: HCD
Collision energy: 45 % (nominal)
Resolution: 7500
Column name: XBridge C18 3.5um, 2.1x50mm, Waters
Retention time: 6.3 min
Base peak: 250.1081
Precursor m/z: 250.1085
Precursor type: [M-H]-
m/z	relative intensity	assigned
120.0819	77	C8H10N-
130.0662	460	C9H8N-
132.0822	18	C9H10N-
142.0663	23	C10H8N-
144.0818	366	C10H10N-
146.0974	327	C10H12N-
161.0849	25	C10H11NO-
178.1237	999	C11H16NO-
