Mass spectrum: Mianserin-N-Oxide; LC-ESI-QFT; MS2; CE: 75; R=35000; [M+H]+
Name: Mianserin-N-Oxide
Name: 1,2,3,4,10,14b-Hexahydro-2-methyldibenzo(c,f)pyrazino(1,2-a)azepine 2-oxide
Formula: C18H20N2O
Exact mass: 280.15756
SMILES: C[N+]1(CCN2c3ccccc3Cc4ccccc4C2C1)[O-]
InChI: InChI=1S/C18H20N2O/c1-20(21)11-10-19-17-9-5-3-7-15(17)12-14-6-2-4-8-16(14)18(19)13-20/h2-9,18H,10-13H2,1H3
Instrument: Q Exactive Plus Orbitrap Thermo Scientific
Instrument type: LC-ESI-QFT
Ms type: MS2
Ion mode: POSITIVE
Ionization: ESI
Fragmentation mode: HCD
Collision energy: 75 (nominal)
Resolution: 35000
Column name: XBridge C18 3.5um, 2.1x50mm, Waters
Retention time: 7.0 min
Base peak: 281.1644
Precursor m/z: 281.1648
Precursor type: [M+H]+
m/z	relative intensity	assigned
56.0495	38	C3H6N+
57.0573	13	C3H7N+
58.0525	8	C2H6N2+
58.0651	35	C3H8N+
65.0385	1	C5H5+
66.0463	1	C5H6+
70.0651	224	C4H8N+
71.0603	37	C3H7N2+
71.0729	100	C4H9N+
72.0807	811	C4H10N+
74.06	27	C3H8NO+
79.0542	1	C6H7+
83.0604	1	C4H7N2+
85.076	27	C4H9N2+
88.0757	3	C4H10NO+
89.0386	3	C7H5+
90.0464	18	C7H6+
91.0542	31	C7H7+
92.0494	2	C6H6N+
95.049	1	C6H7O+
103.0541	7	C8H7+
104.0495	8	C7H6N+
104.0621	3	C8H8+
105.0699	4	C8H9+
106.0652	4	C7H8N+
115.0542	132	C9H7+
116.0494	10	C8H6N+
117.0572	6	C8H7N+
117.0698	80	C9H9+
118.0651	40	C8H8N+
120.0809	3	C8H10N+
128.0494	3	C9H6N+
128.0618	1	C10H8+
129.0698	7	C10H9+
130.0651	17	C9H8N+
131.0729	2	C9H9N+
132.0807	9	C9H10N+
142.0652	4	C10H8N+
143.073	18	C10H9N+
144.0807	56	C10H10N+
145.0759	1	C9H9N2+
145.0886	6	C10H11N+
146.0598	1	C9H8NO+
146.0965	3	C10H12N+
152.0619	5	C12H8+
153.0701	1	C12H9+
154.065	1	C11H8N+
155.0603	1	C10H7N2+
157.0884	2	C11H11N+
158.0964	99	C11H12N+
165.0698	61	C13H9+
166.0777	31	C13H10+
167.0729	10	C12H9N+
167.0854	4	C13H11+
170.0963	1	C12H12N+
171.0916	4	C11H11N2+
177.0573	1	C13H7N+
177.07	1	C14H9+
178.0776	191	C14H10+
179.0855	139	C14H11+
180.0807	1	C13H10N+
180.0934	1	C14H12+
185.1072	1	C12H13N2+
190.065	12	C14H8N+
190.0778	2	C15H10+
191.0855	219	C15H11+
192.0807	261	C14H10N+
193.0886	999	C14H11N+
194.0965	17	C14H12N+
202.0777	10	C16H10+
203.0854	41	C16H11+
204.0808	53	C15H10N+
204.0932	6	C16H12+
205.0886	41	C15H11N+
206.0965	43	C15H12N+
207.104	12	C15H13N+
208.112	34	C15H14N+
209.0833	1	C14H11NO+
215.0856	1	C17H11+
216.0807	1	C16H10N+
217.0886	31	C16H11N+
218.0964	56	C16H12N+
219.0917	20	C15H11N2+
219.1042	23	C16H13N+
220.1121	675	C16H14N+
221.1197	1	C16H15N+
222.1277	1	C16H16N+
230.0962	6	C17H12N+
231.1042	7	C17H13N+
232.1004	1	C16H12N2+
232.1118	17	C17H14N+
233.1073	57	C16H13N2+
234.1277	1	C17H16N+
235.1228	15	C16H15N2+
246.115	1	C17H14N2+
247.1229	59	C17H15N2+
248.1307	67	C17H16N2+
249.1385	60	C17H17N2+
261.1382	8	C18H17N2+
262.1465	4	C18H18N2+
263.1543	21	C18H19N2+
