Mass spectrum: Fenpiclonil; LC-ESI-QFT; MS2; CE: 60%; R=17500; [M+H]+
Name: Fenpiclonil
Name: 4-(2,3-dichlorophenyl)-1H-pyrrole-3-carbonitrile
Formula: C11H6Cl2N2
Exact mass: 235.9908
SMILES: C1=CC(=C(C(=C1)Cl)Cl)C2=CNC=C2C#N
InChI: InChI=1S/C11H6Cl2N2/c12-10-3-1-2-8(11(10)13)9-6-15-5-7(9)4-14/h1-3,5-6,15H
Instrument: Exploris 240 Orbitrap Thermo Scientific
Instrument type: LC-ESI-QFT
Ms type: MS2
Ion mode: POSITIVE
Ionization: ESI
Fragmentation mode: HCD
Collision energy: 60 % (nominal)
Resolution: 17500
Column name: XBridge C18 3.5um, 2.1x50mm, Waters
Retention time: 8.123 min
Base peak: 236.998
Precursor m/z: 236.9981
Precursor type: [M+H]+
m/z	relative intensity	assigned
140.0492	21	C10H6N+
165.0447	14	C11H5N2+
166.0523	153	C11H6N2+
167.0604	28	C11H7N2+
174.0103	107	C10H5ClN+
175.0177	21	C10H6ClN+
182.9764	12	C9H5Cl2+
201.0214	78	C11H6ClN2+
202.029	999	C11H7ClN2+
209.9871	9	C10H6Cl2N+
236.9979	81	C11H7Cl2N2+
