Mass spectrum: Dioxabenzofos; LC-ESI-QFT; MS2; CE: 90%; R=17500; [M+H]+
Name: Dioxabenzofos
Name: 2-methoxy-2-sulfanylidene-4H-1,3,2lambda5-benzodioxaphosphinine
Formula: C8H9O3PS
Exact mass: 216.0010
SMILES: COP1(=S)OCC2=CC=CC=C2O1
InChI: InChI=1S/C8H9O3PS/c1-9-12(13)10-6-7-4-2-3-5-8(7)11-12/h2-5H,6H2,1H3
Instrument: Exploris 240 Orbitrap Thermo Scientific
Instrument type: LC-ESI-QFT
Ms type: MS2
Ion mode: POSITIVE
Ionization: ESI
Fragmentation mode: HCD
Collision energy: 90 % (nominal)
Resolution: 17500
Column name: XBridge C18 3.5um, 2.1x50mm, Waters
Retention time: 7.127 min
Base peak: 217.0083
Precursor m/z: 217.0083
Precursor type: [M+H]+
m/z	relative intensity	assigned
53.0385	123	C4H5+
62.9453	67	PS+
64.9787	22	H2O2P+
77.0386	345	C6H5+
79.0542	675	C6H7+
81.0335	6	C5H5O+
91.054	21	C7H7+
95.0492	124	C6H7O+
107.0491	999	C7H7O+
109.011	56	C6H5S+
110.9665	88	CH4O2PS+
121.0106	59	C7H5S+
122.0183	25	C7H6S+
123.0263	146	C7H7S+
128.9769	47	CH6O3PS+
154.9715	70	C6H4OPS+
