Mass spectrum: Brodifacoum; LC-ESI-QFT; MS2; CE: 75%; R=17500; [M-H]-
Name: Brodifacoum
Name: 3-[3-[4-(4-bromophenyl)phenyl]-1,2,3,4-tetrahydronaphthalen-1-yl]-4-hydroxychromen-2-one
Formula: C31H23BrO3
Exact mass: 522.0831
SMILES: C1C(CC2=CC=CC=C2C1C3=C(C4=CC=CC=C4OC3=O)O)C5=CC=C(C=C5)C6=CC=C(C=C6)Br
InChI: InChI=1S/C31H23BrO3/c32-24-15-13-20(14-16-24)19-9-11-21(12-10-19)23-17-22-5-1-2-6-25(22)27(18-23)29-30(33)26-7-3-4-8-28(26)35-31(29)34/h1-16,23,27,33H,17-18H2
Instrument: Exploris 240 Orbitrap Thermo Scientific
Instrument type: LC-ESI-QFT
Ms type: MS2
Ion mode: NEGATIVE
Ionization: ESI
Fragmentation mode: HCD
Collision energy: 75 % (nominal)
Resolution: 17500
Column name: XBridge C18 3.5um, 2.1x50mm, Waters
Retention time: 16.514 min
Base peak: 521.0756
Precursor m/z: 521.0758
Precursor type: [M-H]-
m/z	relative intensity	assigned
59.0139	16	C2H3O2-
78.9189	999	Br-
92.0269	5	C6H4O-
93.0346	203	C6H5O-
115.0553	11	C9H7-
117.0346	28	C8H5O-
119.0499	8	C8H7O-
135.0452	68	C8H7O2-
143.0503	116	C10H7O-
161.0246	5	C9H5O3-
187.0397	14	C11H7O3-
217.0663	5	C16H9O-
219.0817	22	C16H11O-
