Mass spectrum: Ranitidine-S-oxide; LC-ESI-ITFT; MS2; CE: 35%; R=30000; [M+H]+
Name: Ranitidine-S-oxide
Name: 1,1-Ethenediamine, N-(2-(((5-((dimethylamino)methyl)-2-furanyl)methyl)sulfinyl)ethyl)-N'-methyl-2-nitro-
Formula: C13H22N4O4S
Exact mass: 330.1362
SMILES: [O-][N+](=O)\C=C(/NC)NCCS(=O)Cc1oc(cc1)CN(C)C
InChI: InChI=1S/C13H22N4O4S/c1-14-13(9-17(18)19)15-6-7-22(20)10-12-5-4-11(21-12)8-16(2)3/h4-5,9,14-15H,6-8,10H2,1-3H3/b13-9+
Instrument: LTQ Orbitrap XL Thermo Scientific
Instrument type: LC-ESI-ITFT
Ms type: MS2
Ion mode: POSITIVE
Ionization: ESI
Fragmentation mode: CID
Collision energy: 35 % (nominal)
Resolution: 30000
Column name: XBridge C18 3.5um, 2.1x50mm, Waters
Retention time: 0.8 min
Base peak: 331.1445
Precursor m/z: 331.1435
Precursor type: [M+H]+
m/z	relative intensity	assigned
94.0414	5	C6H6O+
95.0492	12	C6H7O+
102.0372	12	C4H8NS+
108.0808	20	C7H10N+
110.0965	226	C7H12N+
125.0056	31	C6H5OS+
130.0559	96	C5H10N2S+
138.0914	999	C8H12NO+
139.0991	5	C8H13NO+
140.1069	22	C8H14NO+
143.0162	317	C6H7O2S+
144.0766	4	C5H10N3O2+
146.051	4	C5H10N2OS+
156.102	361	C8H14NO2+
170.0634	7	C8H12NOS+
176.0488	270	C13H6N+
188.0742	917	C8H14NO2S+
192.0437	16	C11H4N4+
222.0822	46	C11H14N2OS+
231.1162	17	C10H19N2O2S+
267.1395	5	C13H21N3OS+
268.075	78	C11H14N3O3S+
286.0856	71	C11H16N3O4S+
313.1329	33	C13H21N4O3S+
