Mass spectrum: Diclobutrazol; LC-ESI-QFT; MS2; CE: 90%; R=17500; [M+H]+
Name: Diclobutrazol
Name: 1-(2,4-dichlorophenyl)-4,4-dimethyl-2-(1,2,4-triazol-1-yl)pentan-3-ol
Formula: C15H19Cl2N3O
Exact mass: 327.0905
SMILES: CC(C)(C)C(C(CC1=C(C=C(C=C1)Cl)Cl)N2C=NC=N2)O
InChI: InChI=1S/C15H19Cl2N3O/c1-15(2,3)14(21)13(20-9-18-8-19-20)6-10-4-5-11(16)7-12(10)17/h4-5,7-9,13-14,21H,6H2,1-3H3
Instrument: Exploris 240 Orbitrap Thermo Scientific
Instrument type: LC-ESI-QFT
Ms type: MS2
Ion mode: POSITIVE
Ionization: ESI
Fragmentation mode: HCD
Collision energy: 90 % (nominal)
Resolution: 17500
Column name: XBridge C18 3.5um, 2.1x50mm, Waters
Retention time: 10.847 min
Base peak: 328.0979
Precursor m/z: 328.0978
Precursor type: [M+H]+
m/z	relative intensity	assigned
57.0699	11	C4H9+
59.0492	29	C3H7O+
69.0699	11	C5H9+
70.04	999	C2H4N3+
102.0466	7	C8H6+
122.9997	10	C7H4Cl+
125.0153	7	C7H6Cl+
137.0153	7	C8H6Cl+
139.0059	4	C6H4ClN2+
158.9764	124	C7H5Cl2+
164.0388	3	C10H9Cl+
