Mass spectrum: Iohexol; LC-ESI-ITFT; MS2; CE: 35%; R=7500; [M+H]+
Name: Iohexol
Name: 5-[acetyl(2,3-dihydroxypropyl)amino]-1-N,3-N-bis(2,3-dihydroxypropyl)-2,4,6-triiodobenzene-1,3-dicarboxamide
Formula: C19H26I3N3O9
Exact mass: 820.8803
SMILES: OCC(O)CNC(=O)c1c(I)c(N(CC(O)CO)C(C)=O)c(I)c(c1I)C(=O)NCC(O)CO
InChI: InChI=1S/C19H26I3N3O9/c1-8(29)25(4-11(32)7-28)17-15(21)12(18(33)23-2-9(30)5-26)14(20)13(16(17)22)19(34)24-3-10(31)6-27/h9-11,26-28,30-32H,2-7H2,1H3,(H,23,33)(H,24,34)
Instrument: LTQ Orbitrap XL Thermo Scientific
Instrument type: LC-ESI-ITFT
Ms type: MS2
Ion mode: POSITIVE
Ionization: ESI
Fragmentation mode: CID
Collision energy: 35 % (nominal)
Resolution: 7500
Column name: XBridge C18 3.5um, 2.1x50mm, Waters
Retention time: 1.6 min
Base peak: 132.9578
Precursor m/z: 821.8876
Precursor type: [M+H]+
m/z	relative intensity	assigned
325.9487	1	C3H9IN3O7+
399.1632	1	C17H25N3O8+
466.043	1	C12H23IN2O9+
526.0667	12	C17H25IN3O8+
602.9109	26	C16H17I2N2O7+
652.9724	26	C17H25I2N3O8+
730.8223	10	C16H18I3N2O7+
743.8567	5	C19H23I3O7+
747.8488	7	C16H21I3N3O7+
785.8667	1	C19H23I3N3O7+
803.877	999	C19H25I3N3O8+
