Mass spectrum: Celiprolol; LC-ESI-QFT; MS2; CE: 30; R=35000; [M+H]+
Name: Celiprolol
Name: 3-[3-acetyl-4-[3-(tert-butylamino)-2-hydroxy-propoxy]phenyl]-1,1-diethyl-urea
Formula: C20H33N3O4
Exact mass: 379.24711
SMILES: CCN(CC)C(=O)NC1=CC(=C(C=C1)OCC(CNC(C)(C)C)O)C(=O)C
InChI: InChI=1S/C20H33N3O4/c1-7-23(8-2)19(26)22-15-9-10-18(17(11-15)14(3)24)27-13-16(25)12-21-20(4,5)6/h9-11,16,21,25H,7-8,12-13H2,1-6H3,(H,22,26)
Instrument: Q Exactive Orbitrap Thermo Scientific
Instrument type: LC-ESI-QFT
Ms type: MS2
Ion mode: POSITIVE
Ionization: ESI
Fragmentation mode: HCD
Collision energy: 30 (nominal)
Resolution: 35000
Column name: XBridge C18 3.5um, 2.1x50mm, Waters
Retention time: 5.6 min
Base peak: 380.2546
Precursor m/z: 380.2544
Precursor type: [M+H]+
m/z	relative intensity	assigned
56.0495	105	C3H6N+
57.07	9	C4H9+
72.0442	3	C3H6NO+
72.0807	2	C4H10N+
74.0601	478	C3H8NO+
74.0964	208	C4H12N+
86.0964	3	C5H12N+
100.0757	73	C5H10NO+
112.1121	9	C7H14N+
130.1227	90	C7H16NO+
178.0498	2	C9H8NO3+
186.0552	1	C11H8NO2+
189.0657	3	C10H9N2O2+
204.0657	87	C11H10NO3+
216.0657	85	C12H10NO3+
233.0922	327	C12H13N2O3+
234.0762	2	C12H12NO4+
247.1442	14	C14H19N2O2+
251.1029	999	C12H15N2O4+
251.139	723	C13H19N2O3+
262.1552	22	
263.1391	57	C14H19N2O3+
264.171	9	C14H22N3O2+
277.1548	125	C15H21N2O3+
282.1813	28	C14H24N3O3+
289.1548	159	C16H21N2O3+
306.1814	859	C16H24N3O3+
307.1653	989	C16H23N2O4+
324.1919	798	C16H26N3O4+
362.2432	25	C20H32N3O3+
380.2547	659	C20H34N3O4+
