Mass spectrum: Ethaboxam; LC-ESI-QFT; MS2; CE: 75%; R=17500; [M+H]+
Name: Ethaboxam
Name: N-[cyano(thiophen-2-yl)methyl]-4-ethyl-2-(ethylamino)-1,3-thiazole-5-carboxamide
Formula: C14H16N4OS2
Exact mass: 320.0766
SMILES: CCC1=C(SC(=N1)NCC)C(=O)NC(C#N)C2=CC=CS2
InChI: InChI=1S/C14H16N4OS2/c1-3-9-12(21-14(18-9)16-4-2)13(19)17-10(8-15)11-6-5-7-20-11/h5-7,10H,3-4H2,1-2H3,(H,16,18)(H,17,19)
Instrument: Exploris 240 Orbitrap Thermo Scientific
Instrument type: LC-ESI-QFT
Ms type: MS2
Ion mode: POSITIVE
Ionization: ESI
Fragmentation mode: HCD
Collision energy: 75 % (nominal)
Resolution: 17500
Column name: XBridge C18 3.5um, 2.1x50mm, Waters
Retention time: 6.055 min
Base peak: 321.0838
Precursor m/z: 321.0838
Precursor type: [M+H]+
m/z	relative intensity	assigned
56.0495	52	C3H6N+
68.0495	999	C4H6N+
71.0604	172	C3H7N2+
84.0028	146	C4H4S+
85.0106	480	C4H5S+
87.0262	22	C4H7S+
88.0214	63	C3H6NS+
95.0604	15	C5H7N2+
96.0445	105	C5H6NO+
99.0138	155	C4H5NS+
100.0214	101	C4H6NS+
102.0372	21	C4H8NS+
111.0556	27	C5H7N2O+
111.998	15	C5H4OS+
112.0217	64	C5H6NS+
113.0057	31	C5H5OS+
114.0372	48	C5H8NS+
122.0058	99	C6H4NS+
125.0171	31	C5H5N2S+
126.0246	166	C5H6N2S+
127.0325	156	C5H7N2S+
128.0164	63	C5H6NOS+
128.0403	70	C5H8N2S+
129.0481	134	C5H9N2S+
130.0321	163	C5H8NOS+
139.0326	79	C6H7N2S+
141.0479	68	C6H9N2S+
153.0112	126	C6H5N2OS+
153.048	34	C7H9N2S+
154.0198	84	C6H6N2OS+
154.056	49	C7H10N2S+
155.0279	118	C6H7N2OS+
155.0636	369	C7H11N2S+
157.0437	38	C6H9N2OS+
157.0794	112	C7H13N2S+
170.0377	71	C6H8N3OS+
172.054	158	C6H10N3OS+
181.043	168	C8H9N2OS+
183.0586	296	C8H11N2OS+
184.0539	127	C7H10N3OS+
198.0696	338	C8H12N3OS+
200.0853	472	C8H14N3OS+
