Mass spectrum: Doxepine; LC-ESI-QFT; MS2; CE: 60; R=35000; [M+H]+
Name: Doxepine
Name: Doxepin
Name: 3-(6H-benzo[c][1]benzoxepin-11-ylidene)-N,N-dimethylpropan-1-amine
Formula: C19H21NO
Exact mass: 279.16231
SMILES: CN(C)CCC=C1C2=CC=CC=C2COC3=CC=CC=C31
InChI: InChI=1S/C19H21NO/c1-20(2)13-7-11-17-16-9-4-3-8-15(16)14-21-19-12-6-5-10-18(17)19/h3-6,8-12H,7,13-14H2,1-2H3
Instrument: Q Exactive Plus Orbitrap Thermo Scientific
Instrument type: LC-ESI-QFT
Ms type: MS2
Ion mode: POSITIVE
Ionization: ESI
Fragmentation mode: HCD
Collision energy: 60 (nominal)
Resolution: 35000
Column name: XBridge C18 3.5um, 2.1x50mm, Waters
Retention time: 6.8 min
Base peak: 280.1689
Precursor m/z: 280.1696
Precursor type: [M+H]+
m/z	relative intensity	assigned
51.0228	1	C4H3+
53.0386	7	C4H5+
55.0542	2	C4H7+
56.0495	3	C3H6N+
58.0651	213	C3H8N+
65.0386	4	C5H5+
69.0335	2	C4H5O+
70.0651	59	C4H8N+
71.073	6	C4H9N+
72.0808	12	C4H10N+
77.0385	19	C6H5+
79.0542	120	C6H7+
81.0335	3	C5H5O+
82.0651	10	C5H8N+
84.0808	281	C5H10N+
85.0886	33	C5H11N+
91.0542	226	C7H7+
95.0491	21	C6H7O+
103.0543	6	C8H7+
104.0621	3	C8H8+
105.0336	4	C7H5O+
105.0448	16	C6H5N2+
105.0699	13	C8H9+
107.0491	999	C7H7O+
115.0542	176	C9H7+
116.062	1	C9H8+
117.0699	230	C9H9+
119.0492	23	C8H7O+
121.0647	3	C8H9O+
128.062	22	C10H8+
129.0699	125	C10H9+
131.0492	57	C9H7O+
133.0648	2	C9H9O+
141.0699	178	C11H9+
142.0778	73	C11H10+
143.0855	11	C11H11+
144.057	2	C10H8O+
145.0649	3	C10H9O+
150.0914	2	C9H12NO+
152.0619	4	C12H8+
153.0698	5	C12H9+
155.0603	3	C10H7N2+
157.0648	13	C11H9O+
158.0965	4	C11H12N+
165.0699	55	C13H9+
166.0777	52	C13H10+
167.0856	100	C13H11+
170.0963	2	C12H12N+
171.1043	3	C12H13N+
172.1122	4	C12H14N+
173.12	11	C12H15N+
177.0698	10	C14H9+
178.0777	68	C14H10+
179.0855	107	C14H11+
181.0649	6	C13H9O+
181.1012	23	C14H13+
186.1278	3	C13H16N+
189.0695	3	C15H9+
190.0776	6	C15H10+
191.0855	36	C15H11+
192.0933	83	C15H12+
193.0651	2	C14H9O+
193.1014	7	C15H13+
194.0727	133	C14H10O+
195.0805	45	C14H11O+
201.0697	2	C16H9+
202.0777	179	C16H10+
203.0855	15	C16H11+
204.0937	2	C16H12+
205.0648	10	C15H9O+
205.1011	5	C16H13+
206.0727	3	C15H10O+
207.0805	73	C15H11O+
207.1169	26	C16H15+
209.0962	10	C15H13O+
215.0857	28	C17H11+
216.0934	15	C17H12+
217.1013	49	C17H13+
218.0724	2	C16H10O+
218.1093	4	C17H14+
219.0805	48	C16H11O+
220.0884	185	C16H12O+
229.0759	2	C16H9N2+
233.0963	7	C17H13O+
234.1038	5	C17H14O+
235.1117	23	C17H15O+
250.1224	2	C17H16NO+
280.1696	6	C19H22NO+
