Mass spectrum: Citalopram; LC-ESI-ITFT; MS2; CE: 60%; R=15000; [M+H]+
Name: Citalopram
Name: 1-[3-(dimethylamino)propyl]-1-(4-fluorophenyl)-3H-2-benzofuran-5-carbonitrile
Formula: C20H21FN2O
Exact mass: 324.1638
SMILES: Fc1ccc(cc1)C3(OCc2cc(C#N)ccc23)CCCN(C)C
InChI: InChI=1S/C20H21FN2O/c1-23(2)11-3-10-20(17-5-7-18(21)8-6-17)19-9-4-15(13-22)12-16(19)14-24-20/h4-9,12H,3,10-11,14H2,1-2H3
Instrument: LTQ Orbitrap XL Thermo Scientific
Instrument type: LC-ESI-ITFT
Ms type: MS2
Ion mode: POSITIVE
Ionization: ESI
Fragmentation mode: HCD
Collision energy: 60 % (nominal)
Resolution: 15000
Column name: XBridge C18 3.5um, 2.1x50mm, Waters
Retention time: 6.6 min
Base peak: 325.1719
Precursor m/z: 325.1711
Precursor type: [M+H]+
m/z	relative intensity	assigned
58.0651	51	C3H8N+
72.0805	5	C4H10N+
84.0808	19	C5H10N+
97.0449	6	C6H6F+
103.0541	3	C8H7+
109.0448	999	C7H6F+
116.0494	156	C8H6N+
121.0449	10	C8H6F+
123.0242	14	C7H4FO+
123.0602	7	C8H8F+
125.0401	3	C7H6FO+
129.0698	16	C10H9+
130.065	11	C9H8N+
133.0447	8	C9H6F+
140.0493	22	C10H6N+
142.065	8	C10H8N+
144.0444	15	C9H6NO+
147.0606	5	C10H8F+
154.0651	13	C11H8N+
156.0807	44	C11H10N+
159.0606	5	C11H8F+
166.0651	119	C12H8N+
184.0758	3	C12H10NO+
190.0651	5	C14H8N+
215.0855	33	C17H11+
216.0805	4	C16H10N+
218.06	16	C15H8NO+
220.0555	4	C15H7FN+
220.0682	16	C16H9F+
221.0634	78	C15H8FN+
222.0712	53	C15H9FN+
227.0728	81	C17H9N+
233.076	19	C17H10F+
234.0712	250	C16H9FN+
235.0789	15	C16H10FN+
235.0916	24	C17H12F+
236.0867	18	C16H11FN+
238.0661	46	C15H9FNO+
240.0807	18	C18H10N+
241.0883	25	C18H11N+
242.0964	55	C18H12N+
245.0755	6	C18H10F+
246.071	29	C17H9FN+
247.079	233	C17H10FN+
250.1025	40	C17H13FN+
260.0872	19	C18H11FN+
261.0946	30	C18H12FN+
262.1024	151	C18H13FN+
307.1605	5	C20H20FN2+
