Mass spectrum: Phenylbutazone; LC-ESI-QFT; MS2; CE: 45; R=35000; [M+H]+
Name: Phenylbutazone
Name: 4-butyl-1,2-diphenylpyrazolidine-3,5-dione
Formula: C19H20N2O2
Exact mass: 308.15248
SMILES: CCCCC1C(=O)N(N(C1=O)C2=CC=CC=C2)C3=CC=CC=C3
InChI: InChI=1S/C19H20N2O2/c1-2-3-14-17-18(22)20(15-10-6-4-7-11-15)21(19(17)23)16-12-8-5-9-13-16/h4-13,17H,2-3,14H2,1H3
Instrument: Q Exactive Plus Orbitrap Thermo Scientific
Instrument type: LC-ESI-QFT
Ms type: MS2
Ion mode: POSITIVE
Ionization: ESI
Fragmentation mode: HCD
Collision energy: 45 (nominal)
Resolution: 35000
Column name: XBridge C18 3.5um, 2.1x50mm, Waters
Retention time: 11.3 min
Base peak: 309.1591
Precursor m/z: 309.1598
Precursor type: [M+H]+
m/z	relative intensity	assigned
50.015	2	C4H2+
51.0229	3	C4H3+
53.0022	3	C3HO+
53.0386	19	C4H5+
55.0179	64	C3H3O+
55.0543	11	C4H7+
56.0495	6	C3H6N+
57.0699	20	C4H9+
65.0386	229	C5H5+
67.0543	10	C5H7+
67.9893	1	C3O2+
69.0699	96	C5H9+
71.0855	32	C5H11+
77.0385	59	C6H5+
79.0542	14	C6H7+
80.062	2	C6H8+
81.0336	2	C5H5O+
81.0699	3	C6H9+
83.0492	2	C5H7O+
84.0808	3	C5H10N+
91.0543	13	C7H7+
92.0495	567	C6H6N+
93.0336	287	C6H5O+
93.0574	91	C6H7N+
94.0414	37	C6H6O+
94.0652	339	C6H8N+
95.0492	103	C6H7O+
96.0808	7	C6H10N+
97.0649	50	C6H9O+
97.0887	8	C6H11N+
104.0495	80	C7H6N+
105.0336	30	C7H5O+
105.0448	38	C6H5N2+
106.0652	150	C7H8N+
107.0492	14	C7H7O+
111.0441	79	C6H7O2+
116.0495	1	C8H6N+
117.0573	12	C8H7N+
117.0696	1	C9H9+
118.0652	33	C8H8N+
119.0368	3	C7H5NO+
119.073	6	C8H9N+
120.0445	999	C7H6NO+
123.0441	3	C7H7O2+
124.0756	1	C7H10NO+
125.0598	15	C7H9O2+
128.0494	2	C9H6N+
130.0652	49	C9H8N+
131.073	24	C9H9N+
132.0445	207	C8H6NO+
132.0808	26	C9H10N+
133.0397	16	C7H5N2O+
133.0523	87	C8H7NO+
134.0601	51	C8H8NO+
134.0964	7	C9H12N+
135.0677	1	C8H9NO+
143.0729	7	C10H9N+
143.0857	3	C11H11+
144.0444	3	C9H6NO+
144.0809	17	C10H10N+
145.0887	9	C10H11N+
145.1013	4	C11H13+
146.0601	192	C9H8NO+
146.0965	12	C10H12N+
147.0681	5	C9H9NO+
148.0758	16	C9H10NO+
148.1121	37	C10H14N+
157.0889	1	C11H11N+
158.0603	2	C10H8NO+
158.0966	1	C11H12N+
159.0677	4	C10H9NO+
160.0632	42	C9H8N2O+
160.1122	425	C11H14N+
162.0551	19	C9H8NO2+
162.1278	159	C11H16N+
164.0708	1	C9H10NO2+
166.0651	6	C12H8N+
168.0809	12	C12H10N+
169.0651	1	C12H9O+
169.0886	3	C12H11N+
170.0965	3	C12H12N+
172.1122	26	C12H14N+
173.071	1	C10H9N2O+
173.0836	4	C11H11NO+
174.0551	71	C10H8NO2+
180.0808	2	C13H10N+
182.084	19	C12H10N2+
182.0966	1	C13H12N+
183.068	1	C12H9NO+
183.0918	10	C12H11N2+
184.076	4	C12H10NO+
185.1073	2	C12H13N2+
186.0913	9	C12H12NO+
188.1071	256	C12H14NO+
190.1227	130	C12H16NO+
193.0759	2	C13H9N2+
194.0602	31	C13H8NO+
195.0922	2	C13H11N2+
198.0913	6	C13H12NO+
200.1072	13	C13H14NO+
207.0918	10	C14H11N2+
208.0763	2	C14H10NO+
208.0996	30	C14H12N2+
209.1073	4	C14H13N2+
211.0868	299	C13H11N2O+
212.0709	1	C13H10NO2+
216.1022	17	C13H14NO2+
219.0917	2	C15H11N2+
221.1075	5	C15H13N2+
224.0946	6	C14H12N2O+
233.1077	2	C16H13N2+
234.0789	2	C15H10N2O+
234.1153	4	C16H14N2+
235.0867	3	C15H11N2O+
249.1024	2	C16H13N2O+
253.0973	13	C15H13N2O2+
263.1544	12	C18H19N2+
266.1537	2	C18H20NO+
309.16	8	C19H21N2O2+
