Mass spectrum: Chlorthiazide; LC-ESI-QFT; MS2; CE: 30; R=35000; [M+H]+
Name: Chlorthiazide
Name: 6-chloro-1,1-dioxo-4H-1$l^{6},2,4-benzothiadiazine-7-sulfonamide
Formula: C7H6ClN3O4S2
Exact mass: 294.94883
SMILES: C1=C2C(=CC(=C1Cl)S(=O)(=O)N)S(=O)(=O)NC=N2
InChI: InChI=1S/C7H6ClN3O4S2/c8-4-1-5-7(2-6(4)16(9,12)13)17(14,15)11-3-10-5/h1-3H,(H,10,11)(H2,9,12,13)
Instrument: Q Exactive Plus Orbitrap Thermo Scientific
Instrument type: LC-ESI-QFT
Ms type: MS2
Ion mode: POSITIVE
Ionization: ESI
Fragmentation mode: HCD
Collision energy: 30 (nominal)
Resolution: 35000
Column name: XBridge C18 3.5um, 2.1x50mm, Waters
Retention time: 1.9 min
Base peak: 295.956
Precursor m/z: 295.9561
Precursor type: [M+H]+
m/z	relative intensity	assigned
96.984	1	C5H2Cl+
123.995	1	C6H3ClN+
131.9668	4	C4H3ClNS+
134.0474	2	C7H6N2O+
139.9897	1	C6H3ClNO+
141.0214	1	C6H6ClN2+
141.9506	3	C5HClNS+
142.0055	3	C6H5ClNO+
152.0136	1	C7H5ClN2+
155.9845	1	C6H3ClNO2+
157.0162	1	C6H6ClN2O+
158.0002	2	C6H5ClNO2+
159.9618	3	C5H3ClNOS+
169.0162	3	C7H6ClN2O+
169.946	3	C6HClNOS+
187.9567	15	C6H3ClNO2S+
203.9516	17	C6H3ClNO3S+
204.9834	155	C6H6ClN2O2S+
214.9677	22	C7H4ClN2O2S+
215.9747	2	C7H5ClN2O2S+
220.9782	61	C6H6ClN2O3S+
230.9626	126	C7H4ClN2O3S+
232.9783	6	C7H6ClN2O3S+
242.9738	72	C7H4ClN4O2S+
268.9451	4	C6H6ClN2O4S2+
278.9295	803	C7H4ClN2O4S2+
286.9558	84	C4H6ClN5O4S2+
295.956	999	C7H7ClN3O4S2+
310.9555	7	C6H6ClN5O4S2+
