Mass spectrum: D617; LC-ESI-ITFT; MS2; CE: 75%; R=15000; [M+H]+
Name: D617
Name: Verapamil metabolite D617
Name: 2-(3,4-dimethoxyphenyl)-2-isopropyl-5-(methylamino)valeronitrile
Formula: C17H26N2O2
Exact mass: 290.1994
SMILES: CC(C)C(CCCNC)(C#N)C1=CC(=C(C=C1)OC)OC
InChI: InChI=1S/C17H26N2O2/c1-13(2)17(12-18,9-6-10-19-3)14-7-8-15(20-4)16(11-14)21-5/h7-8,11,13,19H,6,9-10H2,1-5H3
Instrument: LTQ Orbitrap XL Thermo Scientific
Instrument type: LC-ESI-ITFT
Ms type: MS2
Ion mode: POSITIVE
Ionization: ESI
Fragmentation mode: HCD
Collision energy: 75 % (nominal)
Resolution: 15000
Column name: XBridge C18 3.5um, 2.1x50mm, Waters
Retention time: 6.3 min
Base peak: 291.2077
Precursor m/z: 291.2067
Precursor type: [M+H]+
m/z	relative intensity	assigned
67.0543	36	C5H7+
69.0699	14	C5H9+
70.0652	154	C4H8N+
72.0807	10	C4H10N+
77.0386	21	C6H5+
78.0465	15	C6H6+
79.0543	60	C6H7+
80.0495	29	C5H6N+
81.0572	11	C5H7N+
84.0808	12	C5H10N+
91.0543	89	C7H7+
93.07	21	C7H9+
94.0651	46	C6H8N+
95.0492	60	C6H7O+
95.0857	63	C7H11+
96.0808	45	C6H10N+
103.0544	44	C8H7+
105.0699	95	C8H9+
106.0413	9	C7H6O+
106.0656	8	C7H8N+
107.0492	79	C7H7O+
107.073	27	C7H9N+
108.057	34	C7H8O+
108.0807	13	C7H10N+
115.0545	17	C9H7+
116.0621	9	C9H8+
117.07	53	C9H9+
118.0412	10	C8H6O+
119.0491	29	C8H7O+
121.0649	101	C8H9O+
122.0964	24	C8H12N+
123.0442	49	C7H7O2+
124.052	80	C7H8O2+
126.1278	11	C8H16N+
129.0702	17	C10H9+
131.0492	44	C9H7O+
132.0568	12	C9H8O+
133.065	59	C9H9O+
134.0727	49	C9H10O+
135.0443	42	C8H7O2+
135.0806	31	C9H11O+
136.052	184	C8H8O2+
137.0597	161	C8H9O2+
138.0676	241	C8H10O2+
139.0753	53	C8H11O2+
144.0566	25	C10H8O+
145.065	45	C10H9O+
146.06	73	C9H8NO+
146.0727	238	C10H10O+
147.0805	47	C10H11O+
149.06	29	C9H9O2+
149.096	17	C10H13O+
150.0676	204	C9H10O2+
151.0755	999	C9H11O2+
158.0732	11	C11H10O+
158.0964	8	C11H12N+
159.0804	47	C11H11O+
160.0759	52	C10H10NO+
160.0882	90	C11H12O+
161.0599	18	C10H9O2+
161.0962	28	C11H13O+
162.0675	40	C10H10O2+
163.0755	28	C10H11O2+
164.0834	54	C10H12O2+
165.0911	402	C10H13O2+
172.0759	81	C11H10NO+
173.0965	9	C12H13O+
174.0549	12	C10H8NO2+
174.0915	118	C11H12NO+
175.062	13	C10H9NO2+
175.0756	18	C11H11O2+
176.0709	41	C10H10NO2+
176.0836	28	C11H12O2+
177.091	216	C11H13O2+
186.0914	37	C12H12NO+
187.0992	75	C12H13NO+
188.0705	63	C11H10NO2+
189.0783	23	C11H11NO2+
189.0907	14	C12H13O2+
190.0863	44	C11H12NO2+
191.1065	55	C12H15O2+
192.1144	55	C12H16O2+
197.0961	14	C14H13O+
199.0986	9	C13H13NO+
202.0864	196	C12H12NO2+
203.0943	63	C12H13NO2+
204.1024	19	C12H14NO2+
214.1226	48	C14H16NO+
216.1019	15	C13H14NO2+
218.1174	19	C13H16NO2+
230.1169	24	C14H16NO2+
233.1285	162	C13H17N2O2+
244.1334	32	C15H18NO2+
247.1447	43	C14H19N2O2+
