Mass spectrum: Dienogest; LC-ESI-QFT; MS2; CE: 30; R=35000; [M-H]-
Name: Dienogest
Name: 2-[(8S,13S,14S,17R)-17-hydroxy-13-methyl-3-oxo-1,2,6,7,8,11,12,14,15,16-decahydrocyclopenta[a]phenanthren-17-yl]acetonitrile
Formula: C20H25NO2
Exact mass: 311.18853
SMILES: C[C@]12CCC3=C4CCC(=O)C=C4CC[C@H]3[C@@H]1CC[C@]2(CC#N)O
InChI: InChI=1S/C20H25NO2/c1-19-8-6-16-15-5-3-14(22)12-13(15)2-4-17(16)18(19)7-9-20(19,23)10-11-21/h12,17-18,23H,2-10H2,1H3/t17-,18+,19+,20-/m1/s1
Instrument: Q Exactive Orbitrap Thermo Scientific
Instrument type: LC-ESI-QFT
Ms type: MS2
Ion mode: NEGATIVE
Ionization: ESI
Fragmentation mode: HCD
Collision energy: 30 (nominal)
Resolution: 35000
Column name: XBridge C18 3.5um, 2.1x50mm, Waters
Retention time: 8.2 min
Base peak: 356.1873
Precursor m/z: 310.1813
Precursor type: [M-H]-
m/z	relative intensity	assigned
66.035	2	C4H4N-
80.0506	6	C5H6N-
130.0173	2	C7H2N2O-
131.0136	2	C8H3O2-
132.082	12	C9H10N-
159.0815	5	C11H11O-
161.0971	2	C11H13O-
173.0971	61	C12H13O-
199.1126	4	C14H15O-
211.1129	1	C15H15O-
213.1284	1	C15H17O-
225.1283	6	C16H17O-
249.1284	2	C18H17O-
251.1443	8	C18H19O-
264.1396	2	C18H18NO-
267.139	1	C18H19O2-
269.155	50	C18H21O2-
276.1397	6	C19H18NO-
290.1553	8	C20H20NO-
292.1708	999	C20H22NO-
310.1815	424	C20H24NO2-
