Mass spectrum: 1H-1,2,3-triazole-5-OH; LC-ESI-QFT; MS2; CE: 75; R=35000; [M+H]+
Name: 1H-1,2,3-triazole-5-OH
Name: 1H-1,2,3-Triazol-4-ol
Formula: C2H3N3O
Exact mass: 85.02761
SMILES: Oc1cnn[nH]1
InChI: InChI=1S/C2H3N3O/c6-2-1-3-5-4-2/h1H,(H2,3,4,5,6)
Instrument: Q Exactive Orbitrap Thermo Scientific
Instrument type: LC-ESI-QFT
Ms type: MS2
Ion mode: POSITIVE
Ionization: ESI
Fragmentation mode: HCD
Collision energy: 75 (nominal)
Resolution: 35000
Column name: XBridge C18 3.5um, 2.1x50mm, Waters
Retention time: 1.0 min
Base peak: 86.0353
Precursor m/z: 86.0349
Precursor type: [M+H]+
m/z	relative intensity	assigned
57.0211	23	C2H3NO+
58.0402	7	CH4N3+
86.0348	999	C2H4N3O+
