Mass spectrum: Iprodione; LC-ESI-QFT; MS2; CE: 75; R=35000; [M+H]+
Name: Iprodione
Name: 3-(3,5-dichlorophenyl)-2,4-dioxo-N-propan-2-yl-1-imidazolidinecarboxamide
Formula: C13H13Cl2N3O3
Exact mass: 329.03340
SMILES: O=C2N(c1cc(Cl)cc(Cl)c1)C(=O)CN2C(=O)NC(C)C
InChI: InChI=1S/C13H13Cl2N3O3/c1-7(2)16-12(20)17-6-11(19)18(13(17)21)10-4-8(14)3-9(15)5-10/h3-5,7H,6H2,1-2H3,(H,16,20)
Instrument: Q Exactive Orbitrap Thermo Scientific
Instrument type: LC-ESI-QFT
Ms type: MS2
Ion mode: POSITIVE
Ionization: ESI
Fragmentation mode: HCD
Collision energy: 75 (nominal)
Resolution: 35000
Column name: XBridge C18 3.5um, 2.1x50mm, Waters
Retention time: 12.3 min
Base peak: 330.0406
Precursor m/z: 330.0407
Precursor type: [M+H]+
m/z	relative intensity	assigned
53.0023	2	C3HO+
56.0132	977	C2H2NO+
58.0288	4	C2H4NO+
61.9792	2	CHClN+
74.0236	55	C2H4NO2+
84.9839	4	C4H2Cl+
98.9842	377	CH4ClO3+
104.0492	2	C7H6N+
108.9838	3	C6H2Cl+
120.0442	9	C7H6NO+
123.9948	10	C6H3ClN+
125.0024	3	C9HO+
126.9943	10	C6H4ClO+
127.0183	128	C6H6ClN+
128.0022	11	C6H5ClO+
129.0101	14	C6H6ClO+
130.04	10	C7H4N3+
132.9606	5	C5H3Cl2+
138.0105	81	C7H5ClN+
139.006	20	C6H4ClN2+
139.0183	100	C7H6ClN+
144.9602	3	C6H3Cl2+
145.9685	17	C6H4Cl2+
146.9764	27	C6H5Cl2+
152.9975	175	C7H4ClNO+
157.0291	3	C7H8ClNO+
158.9761	3	C7H5Cl2+
159.9716	63	C6H4Cl2N+
160.9793	76	C6H5Cl2N+
161.9872	612	C6H6Cl2N+
162.9712	35	C6H5Cl2O+
166.0293	49	C8H7ClN2+
167.0132	177	C8H6ClNO+
171.9715	254	C10HClO+
172.9668	79	C6H3Cl2N2+
173.9872	999	C7H6Cl2N+
177.982	5	C6H6Cl2NO+
179.9963	19	C7H3ClN3O+
181.0164	14	C8H6ClN2O+
187.9664	495	C7H4Cl2NO+
191.9978	11	C7H8Cl2NO+
199.9664	47	C8H4Cl2NO+
201.982	13	C8H6Cl2NO+
213.9458	3	C8H2Cl2NO2+
216.9932	16	C8H7Cl2N2O+
226.9774	20	C9H5Cl2N2O+
244.9879	30	C9H7Cl2N2O2+
