Mass spectrum: Aliskiren; LC-ESI-QFT; MS2; CE: 30; R=35000; [M-H]-
Name: Aliskiren
Name: (2S,4S,5S,7S)-5-amino-N-(3-amino-2,2-dimethyl-3-oxopropyl)-4-hydroxy-7-[[4-methoxy-3-(3-methoxypropoxy)phenyl]methyl]-8-methyl-2-propan-2-ylnonanamide
Formula: C30H53N3O6
Exact mass: 551.39344
SMILES: COCCCOC1=C(OC)C=CC(C[C@@H](C[C@H](N)[C@@H](O)C[C@@H](C(C)C)C(=O)NCC(C)(C)C(N)=O)C(C)C)=C1
InChI: InChI=1S/C30H53N3O6/c1-19(2)22(14-21-10-11-26(38-8)27(15-21)39-13-9-12-37-7)16-24(31)25(34)17-23(20(3)4)28(35)33-18-30(5,6)29(32)36/h10-11,15,19-20,22-25,34H,9,12-14,16-18,31H2,1-8H3,(H2,32,36)(H,33,35)/t22-,23-,24-,25-/m0/s1
Instrument: Q Exactive Orbitrap Thermo Scientific
Instrument type: LC-ESI-QFT
Ms type: MS2
Ion mode: NEGATIVE
Ionization: ESI
Fragmentation mode: HCD
Collision energy: 30 (nominal)
Resolution: 35000
Column name: XBridge C18 3.5um, 2.1x50mm, Waters
Retention time: 9.6 min
Base peak: 596.3925
Precursor m/z: 550.3862
Precursor type: [M-H]-
m/z	relative intensity	assigned
57.0346	76	C3H5O-
84.0455	28	C4H6NO-
86.0612	350	C4H8NO-
94.0298	1	C5H4NO-
114.0927	6	C6H12NO-
115.0878	999	C5H11N2O-
121.0296	4	C7H5O2-
122.0373	1	C7H6O2-
124.077	3	C7H10NO-
137.0608	12	C8H9O2-
141.0671	20	C6H9N2O2-
168.1395	2	C10H18NO-
177.0922	5	C11H13O2-
181.135	9	C10H17N2O-
193.1347	1	C11H17N2O-
194.095	27	C11H14O3-
195.1504	93	C11H19N2O-
207.1504	19	C12H19N2O-
213.161	28	C11H21N2O2-
226.0852	7	C11H14O5-
301.2182	4	C20H29O2-
304.1557	1	C17H22NO4-
318.2444	3	C20H32NO2-
329.2006	4	C20H27NO3-
332.2236	1	C20H30NO3-
344.2231	25	C21H30NO3-
347.2105	8	C20H29NO4-
348.2191	5	C20H30NO4-
362.2337	114	C21H32NO4-
416.2803	41	C25H38NO4-
434.2913	44	C25H40NO5-
442.3075	25	C26H40N3O3-
460.3182	60	C26H42N3O4-
478.3287	26	C26H44N3O5-
514.3649	22	C30H48N3O4-
532.3754	44	C30H50N3O5-
550.3866	13	C30H52N3O6-
