Mass spectrum: Proquinazid; LC-ESI-QFT; MS2; CE: 15; R=35000; [M+H]+
Name: Proquinazid
Name: 6-Iodo-2-propoxy-3-propylquinazolin-4-one
Formula: C14H17IN2O2
Exact mass: 372.03348
SMILES: CCCN1C(=O)C2=C(C=CC(=C2)I)N=C1OCCC
InChI: InChI=1S/C14H17IN2O2/c1-3-7-17-13(18)11-9-10(15)5-6-12(11)16-14(17)19-8-4-2/h5-6,9H,3-4,7-8H2,1-2H3
Instrument: Q Exactive Plus Orbitrap Thermo Scientific
Instrument type: LC-ESI-QFT
Ms type: MS2
Ion mode: POSITIVE
Ionization: ESI
Fragmentation mode: HCD
Collision energy: 15 (nominal)
Resolution: 35000
Column name: XBridge C18 3.5um, 2.1x50mm, Waters
Retention time: 16.6 min
Base peak: 373.0401
Precursor m/z: 373.0408
Precursor type: [M+H]+
m/z	relative intensity	assigned
288.9464	23	C8H6IN2O2+
330.9939	999	C11H12IN2O2+
373.0409	602	C14H18IN2O2+
