Mass spectrum: Metazachlor OXA; LC-ESI-ITFT; MS2; CE: 75%; R=7500; [M+H]+
Name: Metazachlor OXA
Name: 2-[2,6-dimethyl-N-(pyrazol-1-ylmethyl)anilino]-2-oxo-acetic acid
Formula: C14H15N3O3
Exact mass: 273.1113
SMILES: Cc1cccc(c1N(Cn2cccn2)C(=O)C(=O)O)C
InChI: InChI=1S/C14H15N3O3/c1-10-5-3-6-11(2)12(10)17(13(18)14(19)20)9-16-8-4-7-15-16/h3-8H,9H2,1-2H3,(H,19,20)
Instrument: LTQ Orbitrap XL Thermo Scientific
Instrument type: LC-ESI-ITFT
Ms type: MS2
Ion mode: POSITIVE
Ionization: ESI
Fragmentation mode: HCD
Collision energy: 75 % (nominal)
Resolution: 7500
Column name: XBridge C18 3.5um, 2.1x50mm, Waters
Retention time: 5.5 min
Base peak: 274.1193
Precursor m/z: 274.1186
Precursor type: [M+H]+
m/z	relative intensity	assigned
69.0448	487	C3H5N2+
77.0385	17	C6H5+
79.0543	63	C6H7+
91.0544	116	C7H7+
103.0545	23	C8H7+
105.07	534	C8H9+
106.0779	178	C8H10+
107.0857	152	C8H11+
118.0646	30	C8H8N+
119.0731	145	C8H9N+
132.0808	43	C9H10N+
133.0761	17	C8H9N2+
134.0966	999	C9H12N+
