Mass spectrum: Chinomethionat; LC-ESI-QFT; MS2; CE: 90%; R=17500; [M+H]+
Name: Chinomethionat
Name: 6-methyl-[1,3]dithiolo[4,5-b]quinoxalin-2-one
Formula: C10H6N2OS2
Exact mass: 233.9922
SMILES: CC1=CC2=C(C=C1)N=C3C(=N2)SC(=O)S3
InChI: InChI=1S/C10H6N2OS2/c1-5-2-3-6-7(4-5)12-9-8(11-6)14-10(13)15-9/h2-4H,1H3
Instrument: Exploris 240 Orbitrap Thermo Scientific
Instrument type: LC-ESI-QFT
Ms type: MS2
Ion mode: POSITIVE
Ionization: ESI
Fragmentation mode: HCD
Collision energy: 90 % (nominal)
Resolution: 17500
Column name: XBridge C18 3.5um, 2.1x50mm, Waters
Retention time: 12.419 min
Base peak: 234.9995
Precursor m/z: 234.9994
Precursor type: [M+H]+
m/z	relative intensity	assigned
53.0386	6	C4H5+
77.0386	49	C6H5+
78.0465	13	C6H6+
89.0387	15	C7H5+
90.0465	8	C7H6+
91.054	13	C7H7+
95.0492	15	C6H7O+
104.0495	190	C7H6N+
105.0447	29	C6H5N2+
105.0577	6	C7H7N+
109.0111	8	C6H5S+
116.0494	38	C8H6N+
117.0576	10	C8H7N+
119.0601	8	C7H7N2+
121.0108	69	C7H5S+
122.0181	5	C7H6S+
129.0452	7	C8H5N2+
131.0603	36	C8H7N2+
136.0216	318	C7H6NS+
143.0605	15	C9H7N2+
148.0216	80	C8H6NS+
149.0294	151	C8H7NS+
163.0325	999	C8H7N2S+
174.0249	18	C9H6N2S+
175.0325	8	C9H7N2S+
207.0047	154	C9H7N2S2+
