Mass spectrum: 4`-Hydroxy Diclofenac; LC-ESI-QFT; MS2; CE: 90; R=35000; [M+H]+
Name: 4`-Hydroxy Diclofenac
Name: 4`-hydroxydiclofenac
Name: 2-[2-(2,6-dichloro-4-hydroxyanilino)phenyl]acetic acid
Formula: C14H11Cl2NO3
Exact mass: 311.01160
SMILES: C1=CC=C(C(=C1)CC(=O)O)NC2=C(C=C(C=C2Cl)O)Cl
InChI: InChI=1S/C14H11Cl2NO3/c15-10-6-9(18)7-11(16)14(10)17-12-4-2-1-3-8(12)5-13(19)20/h1-4,6-7,17-18H,5H2,(H,19,20)
Instrument: Q Exactive Plus Orbitrap Thermo Scientific
Instrument type: LC-ESI-QFT
Ms type: MS2
Ion mode: POSITIVE
Ionization: ESI
Fragmentation mode: HCD
Collision energy: 90 (nominal)
Resolution: 35000
Column name: XBridge C18 3.5um, 2.1x50mm, Waters
Retention time: 10.0 min
Base peak: 312.0187
Precursor m/z: 312.0189
Precursor type: [M+H]+
m/z	relative intensity	assigned
115.0541	2	C9H7+
139.0542	12	C11H7+
140.0494	12	C10H6N+
142.0651	1	C10H8N+
148.9556	1	C5H3Cl2O+
165.0574	1	C12H7N+
166.0651	89	C12H8N+
167.0729	124	C12H9N+
168.0808	6	C12H10N+
175.9665	1	C6H4Cl2NO+
176.9741	1	C6H5Cl2NO+
177.0571	1	C13H7N+
178.0654	1	C13H8N+
183.0682	1	C12H9NO+
184.0756	3	C12H10NO+
194.0601	9	C13H8NO+
195.0679	132	C13H9NO+
196.0757	23	C13H10NO+
201.034	7	C12H8ClN+
202.0417	20	C12H9ClN+
212.0263	6	C13H7ClN+
214.0419	6	C13H9ClN+
224.0709	1	C14H10NO2+
229.0286	2	C13H8ClNO+
230.0366	999	C13H9ClNO+
