Mass spectrum: Microcystin-LR; LC-ESI-ITFT; MS2; CE: 45%; R=7500; [M+H]+
Name: Microcystin-LR
Name: (5R,8R,11R,12S,15S,18S,19S,22R)-15-{3-[(Diaminomethylene)amino]propyl}-8-isobutyl-18-[(1E,3E,5S,6S)-6-methoxy-3,5-dimethyl-7-phenyl-1,3-heptadien-1-yl]-1,5,12,19-tetramethyl-2-methylene-3,6,9,13,16,20 ,25-heptaoxo-1,4,7,10,14,17,21-heptaazacyclopentacosane-11,22-dicarboxylic acid
Name: (5R,8S,11R,12S,15S,18S,19S,22R)-15-(3-guanidinopropyl)-8-isobutyl-3,6,9,13,16,20,25-heptaketo-18-[(1E,3E,5S,6S)-6-methoxy-3,5-dimethyl-7-phenyl-hepta-1,3-dienyl]-1,5,12,19-tetramethyl-2-methylene-1,4,7,10,14,17,21-heptazacyclopentacosane-11,22-dicarboxylic acid
Formula: C49H74N10O12
Exact mass: 994.5488
SMILES: CC1C(NC(=O)C(NC(=O)C(C(NC(=O)C(NC(=O)C(NC(=O)C(=C)N(C(=O)CCC(NC1=O)C(=O)O)C)C)CC(C)C)C(=O)O)C)CCCN=C(N)N)C=CC(=CC(C)C(CC2=CC=CC=C2)OC)C
InChI: InChI=1S/C49H74N10O12/c1-26(2)23-37-46(66)58-40(48(69)70)30(6)42(62)55-35(17-14-22-52-49(50)51)45(65)54-34(19-18-27(3)24-28(4)38(71-10)25-33-15-12-11-13-16-33)29(5)41(61)56-36(47(67)68)20-21-39(60)59(9)32(8)44(64)53-31(7)43(63)57-37/h11-13,15-16,18-19,24,26,28-31,34-38,40H,8,14,17,20-23,25H2,1-7,9-10H3,(H,53,64)(H,54,65)(H,55,62)(H,56,61)(H,57,63)(H,58,66)(H,67,68)(H,69,70)(H4,50,51,52)/b19-18+,27-24+/t28-,29-,30-,31+,34-,35-,36+,37-,38-,40+/m0/s1
Instrument: LTQ Orbitrap XL Thermo Scientific
Instrument type: LC-ESI-ITFT
Ms type: MS2
Ion mode: POSITIVE
Ionization: ESI
Fragmentation mode: HCD
Collision energy: 45 % (nominal)
Resolution: 7500
Column name: XBridge C18 3.5um, 2.1x50mm, Waters
Retention time: 10.2 min
Base peak: 498.2811
Precursor m/z: 995.556
Precursor type: [M+H]+
m/z	relative intensity	assigned
70.0651	187	C4H8N+
84.0443	70	C4H6NO+
86.0963	169	C5H12N+
91.0541	24	C7H7+
93.0699	42	C7H9+
97.0757	9	C5H9N2+
98.0605	11	C5H8NO+
103.0541	32	C8H7+
105.0697	104	C8H9+
107.0854	304	C8H11+
112.0868	127	C5H10N3+
113.0709	26	C5H9N2O+
114.103	14	C5H12N3+
115.0865	76	C5H11N2O+
117.0697	65	C9H9+
120.0808	10	C8H10N+
127.0865	439	C6H11N2O+
130.0495	26	C5H8NO3+
130.0973	12	C5H12N3O+
131.0855	13	C10H11+
135.0803	999	C9H11O+
135.1166	378	C10H15+
138.0544	44	C7H8NO2+
140.082	42	C6H10N3O+
141.0662	20	C6H9N2O2+
153.102	10	C8H13N2O+
155.0814	202	C7H11N2O2+
156.1246	32	C6H14N5+
157.1082	114	C6H13N4O+
157.1342	15	C8H17N2O+
163.1116	159	C11H15O+
167.0813	47	C8H11N2O2+
174.1349	121	C6H16N5O+
175.1189	19	C6H15N4O2+
182.1027	21	C7H12N5O+
183.0875	28	C7H11N4O2+
195.0763	53	C9H11N2O3+
196.0608	11	C9H10NO4+
198.1236	19	C9H16N3O2+
200.1143	157	C7H14N5O2+
201.0978	45	C7H13N4O3+
213.0867	339	C9H13N2O4+
213.1348	27	C9H17N4O2+
218.1531	20	C12H18N4+
223.1188	26	C10H15N4O2+
225.1352	23	C10H17N4O2+
226.1182	60	C10H16N3O3+
237.1631	19	C2H21N8O5+
239.0657	67	C9H5N9+
240.1442	17	C8H16N8O+
241.1291	21	C10H17N4O3+
244.129	41	C10H18N3O4+
246.1495	26	C15H20NO2+
268.1653	8	C13H22N3O3+
269.1255	67	C11H17N4O4+
285.167	55	C11H21N6O3+
286.1512	33	C11H20N5O4+
303.1774	34	C11H23N6O4+
347.1988	10	C5H29N7O10+
