Mass spectrum: Glycyrrhetinic Acid; LC-ESI-QFT; MS2; CE: 45; R=35000; [M+H]+
Name: Glycyrrhetinic Acid
Name: 18-beta-Glycyrrhetin acid
Name: (2S,4aS,6aR,6aS,6bR,8aR,10S,12aS,14bR)-10-hydroxy-2,4a,6a,6b,9,9,12a-heptamethyl-13-oxo-3,4,5,6,6a,7,8,8a,10,11,12,14b-dodecahydro-1H-picene-2-carboxylic acid
Formula: C30H46O4
Exact mass: 470.33961
SMILES: C[C@]1([C@H](CC[C@]2([C@H]1CC[C@@]3([C@@H]2C(=O)C=C4[C@]3(CC[C@@]5([C@H]4C[C@](CC5)(C(=O)O)C)C)C)C)C)O)C
InChI: InChI=1S/C30H46O4/c1-25(2)21-8-11-30(7)23(28(21,5)10-9-22(25)32)20(31)16-18-19-17-27(4,24(33)34)13-12-26(19,3)14-15-29(18,30)6/h16,19,21-23,32H,8-15,17H2,1-7H3,(H,33,34)/t19-,21-,22-,23+,26+,27-,28-,29+,30+/m0/s1
Instrument: Q Exactive Plus Orbitrap Thermo Scientific
Instrument type: LC-ESI-QFT
Ms type: MS2
Ion mode: POSITIVE
Ionization: ESI
Fragmentation mode: HCD
Collision energy: 45 (nominal)
Resolution: 35000
Column name: XBridge C18 3.5um, 2.1x50mm, Waters
Retention time: 16.9 min
Base peak: 471.3465
Precursor m/z: 471.3469
Precursor type: [M+H]+
m/z	relative intensity	assigned
51.0228	1	C4H3+
53.0385	6	C4H5+
55.0542	45	C4H7+
57.0335	14	C3H5O+
57.0699	33	C4H9+
59.0491	13	C3H7O+
65.0384	1	C5H5+
67.0542	70	C5H7+
69.0335	35	C4H5O+
69.0698	100	C5H9+
71.0491	17	C4H7O+
71.0854	8	C5H11+
73.0646	5	C4H9O+
77.0384	9	C6H5+
79.0541	41	C6H7+
81.0699	326	C6H9+
83.0491	139	C5H7O+
83.0855	77	C6H11+
85.0647	35	C5H9O+
91.0542	37	C7H7+
93.0699	230	C7H9+
95.0491	68	C6H7O+
95.0855	750	C7H11+
97.0648	74	C6H9O+
97.1012	52	C7H13+
99.0804	15	C6H11O+
105.0699	139	C8H9+
107.0855	584	C8H11+
109.0648	73	C7H9O+
109.1012	429	C8H13+
111.0804	65	C7H11O+
111.1168	20	C8H15+
113.0595	2	C6H9O2+
113.0961	12	C7H13O+
117.0697	8	C9H9+
119.0855	469	C9H11+
120.0931	2	C9H12+
121.0648	69	C8H9O+
121.1012	658	C9H13+
123.0804	89	C8H11O+
123.1168	321	C9H15+
125.0598	10	C7H9O2+
125.0961	56	C8H13O+
127.0753	2	C7H11O2+
127.1119	6	C8H15O+
129.0695	1	C10H9+
131.0856	53	C10H11+
133.1012	355	C10H13+
135.0804	180	C9H11O+
135.1168	861	C10H15+
137.0961	52	C9H13O+
137.1325	98	C10H17+
139.0753	25	C8H11O2+
139.1117	113	C9H15O+
141.091	19	C8H13O2+
141.1271	2	C9H17O+
143.0856	27	C11H11+
145.1012	122	C11H13+
146.1085	2	C11H14+
147.0805	21	C10H11O+
147.1168	246	C11H15+
149.0961	751	C10H13O+
149.1325	204	C11H17+
151.0752	6	C9H11O2+
151.1118	54	C10H15O+
151.1481	11	C11H19+
153.0908	9	C9H13O2+
153.1274	47	C10H17O+
155.0856	3	C12H11+
156.0932	1	C12H12+
157.1012	94	C12H13+
159.0808	11	C11H11O+
159.1168	169	C12H15+
161.0961	94	C11H13O+
161.1325	302	C12H17+
163.1117	76	C11H15O+
163.1481	128	C12H19+
165.0913	10	C10H13O2+
165.1274	32	C11H17O+
165.164	6	C12H21+
167.1068	36	C10H15O2+
169.1012	17	C13H13+
171.1168	98	C13H15+
173.0959	15	C12H13O+
173.1325	287	C13H17+
175.1118	73	C12H15O+
175.1481	557	C13H19+
177.1274	48	C12H17O+
177.1638	262	C13H21+
179.1066	39	C11H15O2+
179.1429	50	C12H19O+
181.1221	11	C11H17O2+
183.1169	24	C14H15+
184.1248	2	C14H16+
185.1325	52	C14H17+
187.1119	15	C13H15O+
187.1481	140	C14H19+
189.1274	65	C13H17O+
189.1638	999	C14H21+
191.1429	34	C13H19O+
191.1794	106	C14H23+
193.1224	22	C12H17O2+
193.1589	29	C13H21O+
195.1166	2	C15H15+
197.1324	68	C15H17+
199.1481	191	C15H19+
201.1273	26	C14H17O+
201.1637	103	C15H21+
203.1066	3	C13H15O2+
203.143	39	C14H19O+
203.1795	28	C15H23+
205.1222	19	C13H17O2+
205.1588	20	C14H21O+
207.1379	12	C13H19O2+
207.1744	48	C14H23O+
209.1324	7	C16H17+
209.1895	2	C14H25O+
211.1482	51	C16H19+
213.1638	127	C16H21+
215.1431	176	C15H19O+
215.1795	72	C16H23+
217.1587	362	C15H21O+
217.1946	20	C16H25+
219.1381	44	C14H19O2+
219.1743	18	C15H23O+
221.1536	63	C14H21O2+
223.148	3	C17H19+
225.1637	33	C17H21+
227.1433	9	C16H19O+
227.1794	101	C17H23+
228.187	2	C17H24+
229.1587	53	C16H21O+
229.1951	55	C17H25+
231.1745	55	C16H23O+
231.2111	5	C17H27+
233.1537	19	C15H21O2+
233.1903	8	C16H25O+
235.1693	491	C15H23O2+
237.1636	9	C18H21+
237.1844	2	C15H25O2+
239.1795	28	C18H23+
241.195	68	C18H25+
243.1382	10	C16H19O2+
243.1746	18	C17H23O+
243.2107	56	C18H27+
245.1536	85	C16H21O2+
245.19	107	C17H25O+
247.1693	7	C16H23O2+
249.1497	13	C15H21O3+
249.1849	2	C16H25O2+
251.1798	6	C19H23+
252.1875	1	C19H24+
253.195	153	C19H25+
255.1742	7	C18H23O+
255.2106	38	C19H27+
257.1539	12	C17H21O2+
257.1898	79	C18H25O+
257.2264	7	C19H29+
259.1691	29	C17H23O2+
259.2058	20	C18H27O+
261.1485	128	C16H21O3+
261.185	11	C17H25O2+
263.1642	110	C16H23O3+
265.1948	15	C20H25+
267.2106	72	C20H27+
269.1901	9	C19H25O+
269.2257	17	C20H29+
271.2056	358	C19H27O+
273.1849	41	C18H25O2+
273.2211	15	C19H29O+
275.1641	23	C17H23O3+
275.2004	26	C18H27O2+
277.1801	35	C17H25O3+
277.2163	3	C18H29O2+
279.2114	10	C21H27+
281.2267	13	C21H29+
283.2054	16	C20H27O+
285.1855	19	C19H25O2+
285.2209	50	C20H29O+
287.1644	2	C18H23O3+
287.2004	24	C19H27O2+
287.2363	2	C20H31O+
289.18	19	C18H25O3+
289.2163	41	C19H29O2+
291.1955	57	C18H27O3+
293.2264	10	C22H29+
297.2219	10	C21H29O+
299.2005	102	C20H27O2+
299.2369	9	C21H31O+
301.1799	3	C19H25O3+
301.2163	29	C20H29O2+
303.1954	39	C19H27O3+
303.232	15	C20H31O2+
311.2007	8	C21H27O2+
311.2375	17	C22H31O+
313.2162	43	C21H29O2+
313.2528	2	C22H33O+
315.1955	3	C20H27O3+
315.2323	15	C21H31O2+
317.2112	689	C20H29O3+
319.2421	5	C24H31+
323.236	2	C23H31O+
325.2165	8	C22H29O2+
327.2325	15	C22H31O2+
327.2676	7	C23H35O+
329.2112	34	C21H29O3+
329.2468	3	C22H33O2+
331.2267	39	C21H31O3+
337.2528	3	C24H33O+
339.232	8	C23H31O2+
341.2474	9	C23H33O2+
343.227	7	C22H31O3+
345.2422	3	C22H33O3+
351.2677	9	C25H35O+
355.2636	6	C24H35O2+
357.2423	7	C23H33O3+
359.2571	2	C23H35O3+
365.2479	7	C25H33O2+
368.2706	2	C25H36O2+
379.263	8	C26H35O2+
379.3361	2	C28H43+
383.2576	2	C25H35O3+
389.3202	46	C29H41+
407.331	161	C29H43O+
425.3414	118	C29H45O2+
435.3259	49	C30H43O2+
453.3366	48	C30H45O3+
471.347	438	C30H47O4+
