Mass spectrum: Difloxacin; LC-ESI-QFT; MS2; CE: 75; R=35000; [M+H]+
Name: Difloxacin
Name: 6-fluoro-1-(4-fluorophenyl)-7-(4-methylpiperazin-1-yl)-4-oxoquinoline-3-carboxylic acid
Name: 6-fluoro-1-(4-fluorophenyl)-7-(4-methylpiperazin-4-ium-1-yl)-4-oxoquinoline-3-carboxylate
Formula: C21H19F2N3O3
Exact mass: 399.1394479
SMILES: CN1CCN(CC1)C2=C(C=C3C(=C2)N(C=C(C3=O)C(=O)O)C4=CC=C(C=C4)F)F
InChI: InChI=1S/C21H19F2N3O3/c1-24-6-8-25(9-7-24)19-11-18-15(10-17(19)23)20(27)16(21(28)29)12-26(18)14-4-2-13(22)3-5-14/h2-5,10-12H,6-9H2,1H3,(H,28,29)
Instrument: Q Exactive Plus Orbitrap Thermo Scientific
Instrument type: LC-ESI-QFT
Ms type: MS2
Ion mode: POSITIVE
Ionization: ESI
Fragmentation mode: HCD
Collision energy: 75 (nominal)
Resolution: 35000
Column name: XBridge C18 3.5um, 2.1x50mm, Waters
Retention time: 4.5 min
Base peak: 400.1461
Precursor m/z: 400.1467
Precursor type: [M+H]+
m/z	relative intensity	assigned
53.0022	6	C3HO+
53.0386	2	C4H5+
54.0339	11	C3H4N+
55.0417	3	C3H5N+
55.0543	3	C4H7+
56.0495	213	C3H6N+
57.0574	42	C3H7N+
58.0652	999	C3H8N+
63.023	3	C5H3+
65.0386	6	C5H5+
67.0417	30	C4H5N+
68.0131	12	C3H2NO+
68.0494	20	C4H6N+
69.0448	3	C3H5N2+
69.0574	3	C4H7N+
70.0652	785	C4H8N+
71.073	45	C4H9N+
72.0808	153	C4H10N+
75.0229	7	C6H3+
80.0496	6	C5H6N+
81.0574	3	C5H7N+
82.0652	313	C5H8N+
83.0292	25	C5H4F+
83.0604	66	C4H7N2+
83.073	14	C5H9N+
84.0808	32	C5H10N+
85.076	27	C4H9N2+
85.0887	5	C5H11N+
89.0386	84	C7H5+
91.0544	5	C7H7+
92.0497	6	C6H6N+
95.0605	5	C5H7N2+
96.0684	4	C5H8N2+
97.0761	127	C5H9N2+
98.0839	44	C5H10N2+
99.0919	15	C5H11N2+
101.0387	4	C8H5+
103.0543	33	C8H7+
104.0496	13	C7H6N+
105.045	4	C6H5N2+
107.0292	77	C7H4F+
108.0371	16	C7H5F+
109.0449	185	C7H6F+
110.0401	44	C6H5FN+
113.0398	6	CH5F2N3O+
114.0341	4	C8H4N+
115.0543	61	C9H7+
116.0495	104	C8H6N+
117.0573	46	C8H7N+
117.0699	5	C9H9+
118.0652	15	C8H8N+
119.0493	6	C8H7O+
120.0371	4	C8H5F+
121.0449	71	C8H6F+
122.0402	62	C7H5FN+
123.0241	27	C7H4FO+
123.0354	34	C6H4FN2+
123.0609	4	C8H8F+
124.0559	19	C7H7FN+
128.0496	243	C9H6N+
129.0448	47	C8H5N2+
129.0575	22	C9H7N+
130.0653	92	C9H8N+
131.0605	23	C8H7N2+
132.0447	2	C8H6NO+
133.0449	66	C9H6F+
134.0402	181	C8H5FN+
134.0602	73	C8H8NO+
135.0479	101	C8H6FN+
136.0558	111	C8H7FN+
137.051	3	C7H6FN2+
137.0637	11	C8H8FN+
138.0349	22	C7H5FNO+
140.0498	14	C10H6N+
141.0576	13	C10H7N+
142.0653	35	C10H8N+
143.0606	4	C9H7N2+
143.0731	25	C10H9N+
144.0447	14	C9H6NO+
144.0557	46	C8H6N3+
144.0809	87	C10H10N+
145.0762	4	C9H9N2+
146.0402	46	C9H5FN+
146.0602	5	C9H8NO+
147.024	24	C9H4FO+
147.048	16	C9H6FN+
148.0558	443	C9H7FN+
149.0396	6	C4H5F2N3O+
149.0512	21	C8H6FN2+
149.0638	19	C9H8FN+
150.0352	13	C8H5FNO+
150.0589	6	C8H7FN2+
150.0715	24	C9H9FN+
151.0671	7	C8H8FN2+
152.0508	57	C8H7FNO+
153.0446	3	C10H5N2+
154.04	4	C9H4N3+
154.0654	38	C11H8N+
155.0605	252	C10H7N2+
156.0446	41	C10H6NO+
156.0683	30	C10H8N2+
156.0809	44	C11H10N+
157.0453	4	C11H6F+
157.0761	42	C10H9N2+
157.0888	18	C11H11N+
158.0401	49	C10H5FN+
158.0968	5	C11H12N+
159.0557	3	C9H7N2O+
159.0919	10	C10H11N2+
160.0434	38	C9H5FN2+
160.056	18	C10H7FN+
161.0511	33	C9H6FN2+
161.0638	14	C10H8FN+
162.0351	45	C9H5FNO+
162.0463	14	C13H6+
162.0714	47	C10H9FN+
163.0426	3	C9H6FNO+
164.0506	51	C9H7FNO+
165.0828	13	C9H10FN2+
166.0656	4	C9H9FNO+
167.0606	11	C11H7N2+
167.0732	6	C12H9N+
167.0982	4	C9H12FN2+
168.0808	4	C12H10N+
169.0762	37	C11H9N2+
170.0839	42	C11H10N2+
171.0613	3	C9H9F2O+
171.0921	3	C11H11N2+
172.0557	3	C11H7FN+
172.0993	10	C11H12N2+
173.051	38	C10H6FN2+
173.1078	6	C11H13N2+
174.0349	4	C10H5FNO+
174.0593	33	C10H7FN2+
175.0668	118	C10H8FN2+
176.0507	50	C10H7FNO+
176.0747	4	C10H9FN2+
176.0872	17	C11H11FN+
177.046	6	C9H6FN2O+
177.0702	11	C14H9+
177.0828	14	C10H10FN2+
178.0661	3	C10H9FNO+
179.0612	11	C12H7N2+
180.0457	159	C9H7FNO2+
181.0448	14	C13H6F+
181.0762	27	C12H9N2+
182.0711	3	C11H8N3+
183.061	134	C13H8F+
183.092	12	C12H11N2+
184.0559	41	C12H7FN+
184.0635	14	C11H8N2O+
185.0513	38	C11H6FN2+
185.1075	423	C12H13N2+
186.0589	53	C11H7FN2+
186.0717	16	C12H9FN+
187.0556	3	C12H8FO+
187.0666	11	C11H8FN2+
188.0507	13	C11H7FNO+
189.0461	6	C10H6FN2O+
189.0826	13	C11H10FN2+
190.0653	47	C14H8N+
191.0982	18	C11H12FN2+
192.1063	5	C11H13FN2+
194.0613	25	C10H9FNO2+
195.048	13	C13H6FN+
195.0609	6	C14H8F+
195.0917	22	C13H11N2+
196.0561	24	C13H7FN+
196.0997	93	C13H12N2+
197.0639	4	C13H8FN+
198.0717	44	C13H9FN+
200.0427	5	C13H6F2+
201.0513	158	C13H7F2+
201.0657	70	C11H9N2O2+
202.046	20	C12H6F2N+
202.0664	3	C12H9FNO+
203.0616	168	C11H8FN2O+
204.0812	30	C15H10N+
205.077	6	C11H10FN2O+
205.1134	10	C12H14FN2+
207.0584	18	
208.0559	162	C14H7FN+
209.0638	400	C14H8FN+
210.0716	117	C14H9FN+
211.0794	43	C14H10FN+
212.0514	5	C13H7FNO+
214.0464	20	C13H6F2N+
214.0588	13	C14H8F2+
214.0675	4	C10H10F2NO2+
215.0542	14	C13H7F2N+
215.067	16	C14H9F2+
216.0619	59	C13H8F2N+
219.0568	21	C11H8FN2O2+
220.0564	14	C15H7FN+
221.0531	4	C11H7F2N2O+
221.0631	30	C15H8FN+
221.073	23	C8H11F2N2O3+
222.0599	13	C11H8F2N2O+
222.0715	259	C15H9FN+
223.067	139	C14H8FN2+
223.0795	72	C15H10FN+
224.0748	32	C14H9FN2+
224.0874	99	C15H11FN+
225.0824	55	C14H10FN2+
226.0464	54	C14H6F2N+
227.0543	439	C14H7F2N+
228.0622	248	C14H8F2N+
229.0698	380	C14H9F2N+
230.0413	11	C13H6F2NO+
230.0656	7	C13H8F2N2+
230.0766	4	C14H10F2N+
231.0492	11	C13H7F2NO+
231.0734	3	C13H9F2N2+
231.0921	17	C16H11N2+
233.0634	7	C16H8FN+
234.059	15	C15H7FN2+
234.0718	62	C16H9FN+
235.0671	48	C15H8FN2+
235.0796	81	C16H10FN+
236.0508	44	C15H7FNO+
236.0621	12	C19H8+
236.0748	96	C15H9FN2+
236.0872	55	C16H11FN+
237.0589	47	C15H8FNO+
237.0825	136	C15H10FN2+
237.0948	14	C16H12FN+
238.047	10	C15H6F2N+
238.0666	116	C15H9FNO+
238.0901	10	C15H11FN2+
239.0541	56	C15H7F2N+
239.0744	19	C15H10FNO+
240.0621	238	C15H8F2N+
241.0577	17	C14H7F2N2+
241.0697	263	C15H9F2N+
242.0655	26	C14H8F2N2+
242.0774	253	C15H10F2N+
243.073	52	C14H9F2N2+
243.0921	18	C17H11N2+
244.0567	15	C14H8F2NO+
244.0811	45	C14H10F2N2+
244.1006	3	C17H12N2+
245.0646	44	C14H9F2NO+
246.0723	14	C17H9FN+
247.067	33	C16H8FN2+
247.0782	4	C17H10FN+
248.0623	14	C20H8+
248.0748	81	C16H9FN2+
248.0874	22	C17H11FN+
249.07	18	C20H9+
249.0823	215	C16H10FN2+
250.0781	28	C20H10+
250.0902	204	C16H11FN2+
251.0745	29	C16H10FNO+
251.0858	14	C20H11+
251.0977	98	C16H12FN2+
252.0822	36	C16H11FNO+
252.1062	4	C16H13FN2+
253.0574	6	C15H7F2N2+
253.069	43	C16H9F2N+
254.0413	6	C15H6F2NO+
254.065	55	C15H8F2N2+
254.0781	42	C16H10F2N+
255.0496	115	C15H7F2NO+
255.0731	206	C15H9F2N2+
255.0859	35	C16H11F2N+
256.0571	676	C15H8F2NO+
256.0806	61	C15H10F2N2+
257.0648	186	C15H9F2NO+
257.087	53	
258.0724	81	C15H10F2NO+
259.0443	5	C14H7F2NO2+
259.087	14	C17H11N2O+
260.0747	58	C17H9FN2+
261.0824	144	C17H10FN2+
262.0778	103	C21H10+
262.0906	62	C17H11FN2+
263.0618	17	C13H9F2N2O2+
263.0855	168	C21H11+
263.0985	203	C17H12FN2+
264.0459	24	C16H7FNO2+
264.0694	11	C16H9FN2O+
264.0933	45	C21H12+
264.1063	61	C17H13FN2+
265.0776	51	C16H10FN2O+
265.1012	55	
265.1139	21	C17H14FN2+
267.0728	48	C16H9F2N2+
268.0573	19	C16H8F2NO+
268.0808	61	C16H10F2N2+
269.0663	31	
269.0887	170	C16H11F2N2+
270.0597	12	C15H8F2N2O+
270.0728	110	C16H10F2NO+
270.0958	55	C16H12F2N2+
271.0673	37	C15H9F2N2O+
271.0805	160	C16H11F2NO+
272.0754	23	C15H10F2N2O+
272.0886	56	C16H12F2NO+
273.0832	46	C15H11F2N2O+
274.0777	4	C17H9FN3+
274.0904	6	C18H11FN2+
275.086	20	C17H10FN3+
275.0979	27	C18H12FN2+
276.0697	17	C17H9FN2O+
276.0931	75	C17H11FN3+
277.0647	7	C19H7N3+
277.0776	51	C17H10FN2O+
277.1013	74	C17H12FN3+
277.1143	23	C15H15F2N2O+
278.0724	18	C16H9FN3O+
278.0854	49	C17H11FN2O+
278.1087	76	C17H13FN3+
279.0931	341	C17H12FN2O+
280.0808	14	C17H10F2N2+
280.124	29	C17H15FN3+
281.0887	148	C17H11F2N2+
282.0363	6	C16H6F2NO2+
282.0566	40	C16H9FNO3+
282.0729	46	C17H10F2NO+
282.0959	6	C17H12F2N2+
283.0679	190	C16H9F2N2O+
283.104	30	C17H13F2N2+
284.0523	32	C16H8F2NO2+
284.0755	66	C16H10F2N2O+
285.0836	196	C16H11F2N2O+
287.039	19	C15H7F2NO3+
288.0942	5	C18H11FN3+
289.0547	59	C15H9F2NO3+
289.0776	19	C18H10FN2O+
289.1014	19	C18H12FN3+
290.073	77	C17H9FN3O+
290.1088	167	C18H13FN3+
291.0804	88	C17H10FN3O+
291.0937	23	C15H13F2N2O2+
291.1166	61	C18H14FN3+
292.0886	41	C17H11FN3O+
292.1245	13	C18H15FN3+
293.0724	16	C17H10FN2O2+
293.0949	4	C20H11N3+
293.1094	6	C15H15F2N2O2+
296.0764	5	C17H10F2N2O+
297.0612	23	
297.0835	181	C17H11F2N2O+
299.0993	506	C17H13F2N2O+
302.0625	25	C16H10F2NO3+
303.0934	4	C19H12FN2O+
304.0877	22	C18H11FN3O+
304.1243	36	C19H15FN3+
305.0722	46	C18H10FN2O2+
305.1323	39	C19H16FN3+
306.0675	24	C17H9FN3O2+
306.1038	32	C18H13FN3O+
306.1402	46	C19H17FN3+
309.0837	4	C18H11F2N2O+
310.0786	26	C17H10F2N3O+
311.063	82	C17H9F2N2O2+
311.0857	49	C20H10FN3+
311.123	11	C18H15F2N3+
313.0797	4	C17H11F2N2O2+
315.0703	12	C17H11F2NO3+
317.0722	17	
318.0675	74	C18H9FN3O2+
318.1036	24	C19H13FN3O+
319.0745	12	C21H9N3O+
320.1197	11	C19H15FN3O+
323.0832	18	C18H12FN2O3+
324.0938	12	C18H12F2N3O+
325.0796	39	C18H11F2N2O2+
325.0975	7	C18H14FN2O3+
329.0732	52	C17H11F2N2O3+
332.0841	4	C16H12F2N3O3+
332.12	6	C17H16F2N3O2+
334.0985	20	C19H13FN3O2+
335.0837	4	C19H12FN2O3+
336.0782	50	C18H11FN3O3+
338.0739	18	C21H9FN3O+
338.1091	5	C19H14F2N3O+
338.1469	12	C20H18F2N3+
339.0814	20	C18H11F2N3O2+
339.119	4	C19H15F2N3O+
343.0892	16	C18H13F2N2O3+
346.0982	6	C20H13FN3O2+
352.0899	11	C19H12F2N3O2+
400.1454	6	C21H20F2N3O3+
