Mass spectrum: Florfenicol; LC-ESI-QFT; MS2; CE: 120; R=35000; [M+H]+
Name: Florfenicol
Name: 2,2-dichloro-N-{3-fluoro-1-hydroxy-1-[4-(methylsulfonyl)phenyl]propan-2-yl}acetamide
Name: 2,2-dichloro-N-[3-fluoro-1-hydroxy-1-(4-methylsulfonylphenyl)propan-2-yl]acetamide
Formula: C12H14Cl2FNO4S
Exact mass: 357.00046
SMILES: CS(=O)(=O)C1=CC=C(C=C1)C(C(CF)NC(=O)C(Cl)Cl)O
InChI: InChI=1S/C12H14Cl2FNO4S/c1-21(19,20)8-4-2-7(3-5-8)10(17)9(6-15)16-12(18)11(13)14/h2-5,9-11,17H,6H2,1H3,(H,16,18)
Instrument: Q Exactive Plus Orbitrap Thermo Scientific
Instrument type: LC-ESI-QFT
Ms type: MS2
Ion mode: POSITIVE
Ionization: ESI
Fragmentation mode: HCD
Collision energy: 120 (nominal)
Resolution: 35000
Column name: XBridge C18 3.5um, 2.1x50mm, Waters
Retention time: 4.6 min
Base peak: 390.0331
Precursor m/z: 358.0077
Precursor type: [M+H]+
m/z	relative intensity	assigned
50.015	6	C4H2+
51.0228	5	C4H3+
53.0386	54	C4H5+
55.0178	5	C3H3O+
60.0244	4	C2H3FN+
63.0228	8	C5H3+
65.0386	16	C5H5+
66.0464	2	C5H6+
75.0228	5	C6H3+
76.0306	3	C6H4+
77.0385	46	C6H5+
78.0464	56	C6H6+
79.0542	10	C6H7+
81.0335	8	C5H5O+
82.9449	508	CHCl2+
88.0307	3	C7H4+
89.0386	39	C7H5+
90.0464	8	C7H6+
91.0542	59	C7H7+
92.062	1	C7H8+
94.0413	2	C6H6O+
95.0491	188	C6H7O+
99.0228	1	C8H3+
101.0385	2	C8H5+
102.0464	59	C8H6+
103.0542	999	C8H7+
104.0494	13	C7H6N+
104.062	20	C8H8+
105.0447	138	C6H5N2+
106.065	2	C7H8N+
107.0292	2	C7H4F+
107.0491	10	C7H7O+
113.0385	6	C9H5+
114.0464	11	C9H6+
115.0542	386	C9H7+
116.0494	27	C8H6N+
116.0619	4	C9H8+
117.0573	23	C8H7N+
118.0412	3	C8H6O+
118.065	11	C8H8N+
119.0493	3	C8H7O+
119.0731	1	C8H9N+
125.0386	8	C10H5+
126.0464	31	C10H6+
127.0542	45	C10H7+
128.0496	12	C9H6N+
128.062	228	C10H8+
129.0447	11	C8H5N2+
129.0573	6	C9H7N+
130.0651	657	C9H8N+
131.0491	156	C9H7O+
131.0729	11	C9H9N+
132.057	14	C9H8O+
133.0448	76	C9H6F+
134.0525	1	C9H7F+
134.06	7	C8H8NO+
140.0494	29	C10H6N+
141.0574	4	C10H7N+
142.0652	21	C10H8N+
143.049	3	C10H7O+
143.0729	6	C10H9N+
145.0648	20	C10H9O+
146.0599	4	C9H8NO+
149.0153	2	CH8FNO4S+
152.0495	7	C11H6N+
153.0573	12	C11H7N+
155.0603	53	C4H13NO3S+
162.0229	2	C10H7Cl+
170.06	37	C11H8NO+
180.0559	1	C11H6N3+
