Mass spectrum: Thiabendazole; LC-ESI-QFT; MS2; CE: 75; R=35000; [M+H]+
Name: Thiabendazole
Name: 2-(4-Thiazolyl)benzimidazole
Name: 4-(1H-benzimidazol-2-yl)-1,3-thiazole
Formula: C10H7N3S
Exact mass: 201.03607
SMILES: c1(c2cscn2)[nH]c2ccccc2n1
InChI: InChI=1S/C10H7N3S/c1-2-4-8-7(3-1)12-10(13-8)9-5-14-6-11-9/h1-6H,(H,12,13)
Instrument: Q Exactive Orbitrap Thermo Scientific
Instrument type: LC-ESI-QFT
Ms type: MS2
Ion mode: POSITIVE
Ionization: ESI
Fragmentation mode: HCD
Collision energy: 75 (nominal)
Resolution: 35000
Column name: XBridge C18 3.5um, 2.1x50mm, Waters
Retention time: 4.2 min
Base peak: 202.0433
Precursor m/z: 202.0433
Precursor type: [M+H]+
m/z	relative intensity	assigned
65.0387	43	C5H5+
92.0495	79	C6H6N+
104.0495	7	C7H6N+
118.0524	3	C7H6N2+
119.0604	2	C7H7N2+
129.0448	1	C8H5N2+
131.0604	321	C8H7N2+
134.0056	3	C7H4NS+
143.0604	34	C9H7N2+
148.0214	1	C8H6NS+
152.0164	1	C7H6NOS+
157.0634	5	C9H7N3+
158.0713	30	C9H8N3+
161.0168	2	C8H5N2S+
168.0558	2	C10H6N3+
169.0635	5	C10H7N3+
170.0713	12	C10H8N3+
174.0246	2	C9H6N2S+
175.0325	999	C9H7N2S+
202.0433	512	C10H8N3S+
