Mass spectrum: Pyridaphenthion; LC-ESI-QFT; MS2; CE: 60%; R=17500; [M+H]+
Name: Pyridaphenthion
Name: 6-diethoxyphosphinothioyloxy-2-phenylpyridazin-3-one
Formula: C14H17N2O4PS
Exact mass: 340.0647
SMILES: CCOP(=S)(OCC)OC1=NN(C(=O)C=C1)C2=CC=CC=C2
InChI: InChI=1S/C14H17N2O4PS/c1-3-18-21(22,19-4-2)20-13-10-11-14(17)16(15-13)12-8-6-5-7-9-12/h5-11H,3-4H2,1-2H3
Instrument: Exploris 240 Orbitrap Thermo Scientific
Instrument type: LC-ESI-QFT
Ms type: MS2
Ion mode: POSITIVE
Ionization: ESI
Fragmentation mode: HCD
Collision energy: 60 % (nominal)
Resolution: 17500
Column name: XBridge C18 3.5um, 2.1x50mm, Waters
Retention time: 9.373 min
Base peak: 341.0719
Precursor m/z: 341.0719
Precursor type: [M+H]+
m/z	relative intensity	assigned
92.0495	526	C6H6N+
93.0572	19	C6H7N+
96.9508	178	H2O2PS+
109.011	12	C2H8NPS+
110.9665	10	CH4O2PS+
111.9851	6	C4H2NOS+
114.9614	66	H4O3PS+
116.0497	7	C4H9N2P+
119.0607	12	C7H7N2+
124.9821	9	C2H6O2PS+
143.0603	110	C9H7N2+
144.0445	27	C9H6NO+
147.055	9	C8H7N2O+
159.0677	13	C10H9NO+
160.052	6	C10H8O2+
161.0708	6	C9H9N2O+
171.0554	85	C10H7N2O+
172.0392	56	C10H6NO2+
177.0486	13	C9H9N2S+
188.0162	16	C10H6NOS+
189.0659	999	C10H9N2O2+
205.0431	325	C10H9N2OS+
266.9988	12	C10H8N2O3PS+
