Mass spectrum: Cefalexin; LC-ESI-QFT; MS2; CE: 60; R=35000; [M-H]-
Name: Cefalexin
Name: 7-[(2-amino-1-oxo-2-phenylethyl)amino]-3-methyl-8-oxo-5-thia-1-azabicyclo[4.2.0]oct-2-ene-2-carboxylic acid
Formula: C16H17N3O4S
Exact mass: 347.09398
SMILES: CC1=C(N2C(C(C2=O)NC(=O)C(C3=CC=CC=C3)N)SC1)C(=O)O
InChI: InChI=1S/C16H17N3O4S/c1-8-7-24-15-11(14(21)19(15)12(8)16(22)23)18-13(20)10(17)9-5-3-2-4-6-9/h2-6,10-11,15H,7,17H2,1H3,(H,18,20)(H,22,23)
Instrument: Q Exactive Orbitrap Thermo Scientific
Instrument type: LC-ESI-QFT
Ms type: MS2
Ion mode: NEGATIVE
Ionization: ESI
Fragmentation mode: HCD
Collision energy: 60 (nominal)
Resolution: 35000
Column name: XBridge C18 3.5um, 2.1x50mm, Waters
Retention time: 4.4 min
Base peak: 346.0868
Precursor m/z: 346.0867
Precursor type: [M-H]-
m/z	relative intensity	assigned
55.0189	8	C3H3O-
56.9804	31	C2HS-
57.9756	45	CNS-
58.9961	35	C2H3S-
59.9914	3	CH2NS-
60.9753	21	CHOS-
63.9625	3	O2S-
65.0146	20	C3HN2-
65.9985	42	C3NO-
66.0349	10	C4H4N-
67.0302	21	C3H3N2-
68.0142	60	C3H2NO-
70.9835	39	C2HNS-
71.9913	43	C2H2NS-
72.0092	20	C2H2NO2-
72.9992	9	C2H3NS-
73.0118	54	C3H5S-
74.007	222	C2H4NS-
78.0351	2	C5H4N-
80.0506	20	C5H6N-
81.046	2	C4H5N2-
81.9757	9	C3NS-
82.0298	4	C4H4NO-
83.9913	25	C3H2NS-
84.9991	6	C3H3NS-
85.0116	3	C4H5S-
85.0296	14	C4H5O2-
87.0274	15	C4H7S-
92.0506	28	C6H6N-
93.0459	52	C5H5N2-
96.0456	34	C5H6NO-
96.9992	5	C4H3NS-
97.9946	3	C3H2N2S-
98.0069	4	C4H4NS-
99.9863	71	C3H2NOS-
100.0227	22	C4H6NS-
100.0405	3	C4H6NO2-
101.0069	3	C4H5OS-
101.0397	16	C8H5-
102.0019	2	C3H4NOS-
102.035	32	C7H4N-
104.0507	9	C7H6N-
105.0459	37	C6H5N2-
106.0536	9	C6H6N2-
107.0615	615	C6H7N2-
108.0455	101	C6H6NO-
109.0772	253	C6H9N2-
110.061	5	C6H8NO-
111.02	9	C4H3N2O2-
112.0405	149	C5H6NO2-
114.0383	38	C5H8NS-
115.0223	18	C5H7OS-
116.0507	104	C8H6N-
117.0347	24	C8H5O-
118.0299	4	C7H4NO-
118.0665	3	C8H8N-
119.0251	4	C6H3N2O-
119.0615	13	C7H7N2-
121.0772	89	C7H9N2-
122.0486	26	C6H6N2O-
122.0614	12	C7H8NO-
123.0565	51	C6H7N2O-
124.0227	44	C6H6NS-
124.0404	41	C6H6NO2-
126.0383	21	C6H8NS-
127.9815	3	C4H2NO2S-
128.0507	3	C9H6N-
131.0616	5	C8H7N2-
132.0569	5	C7H6N3-
133.0407	11	C7H5N2O-
134.0611	29	C8H8NO-
134.0722	2	C7H8N3-
135.0565	207	C7H7N2O-
136.0401	3	C7H6NO2-
137.0721	26	C7H9N2O-
140.0179	2	C6H6NOS-
140.0504	5	C10H6N-
141.0255	11	C6H7NOS-
142.0332	163	C6H8NOS-
143.0612	10	C9H7N2-
144.0453	3	C9H6NO-
146.0613	4	C9H8NO-
147.0565	5	C8H7N2O-
149.043	4	C9H9S-
151.0515	5	C7H7N2O2-
152.0176	17	C7H6NOS-
155.0616	13	C10H7N2-
156.0694	57	C10H8N2-
157.077	10	C10H9N2-
158.028	21	C6H8NO2S-
158.061	9	C10H8NO-
159.0562	5	C9H7N2O-
161.036	3	C8H5N2O2-
162.0435	31	C8H6N2O2-
168.0567	5	C10H6N3-
169.0443	10	C7H9N2OS-
171.0563	22	C10H7N2O-
172.0404	21	C10H6NO2-
173.0482	125	C10H7NO2-
173.0719	999	C10H9N2O-
181.0647	21	C11H7N3-
182.0974	2	C13H12N-
183.0926	4	C12H11N2-
187.0514	20	C10H7N2O2-
189.0492	26	C10H9N2S-
189.0669	41	C10H9N2O2-
190.0332	12	C10H8NOS-
191.0614	4	C13H7N2-
197.1091	3	C13H13N2-
199.0513	25	C11H7N2O2-
200.0592	84	C11H8N2O2-
207.0928	220	C14H11N2-
208.0879	18	C13H10N3-
213.103	4	C13H13N2O-
216.0778	21	C11H10N3O2-
223.1119	3	C14H13N3-
224.1199	2	C14H14N3-
225.103	2	C14H13N2O-
229.0985	2	C13H13N2O2-
233.0391	89	C11H9N2O2S-
240.1142	3	C14H14N3O-
251.0829	14	C15H11N2O2-
