Mass spectrum: Minocycline; LC-ESI-QFT; MS2; CE: 30; R=35000; [M-H]-
Name: Minocycline
Name: Minocin
Name: (4S,4aS,5aR,12aS)-4,7-Bis(dimethylamino)-3,10,12,12a-tetrahydroxy-1,11-dioxo-1,4,4a,5,5a,6,11,12a-octahydro-2-tetracenecarboxamide
Formula: C23H27N3O7
Exact mass: 457.18490
SMILES: [H][C@@]12CC3=C(C(O)=CC=C3N(C)C)C(=O)C1=C(O)[C@]1(O)C(=O)C(C(N)=O)=C(O)[C@@H](N(C)C)[C@]1([H])C2
InChI: InChI=1S/C23H27N3O7/c1-25(2)12-5-6-13(27)15-10(12)7-9-8-11-17(26(3)4)19(29)16(22(24)32)21(31)23(11,33)20(30)14(9)18(15)28/h5-6,9,11,17,27,29-30,33H,7-8H2,1-4H3,(H2,24,32)/t9-,11-,17-,23-/m0/s1
Instrument: Q Exactive Plus Orbitrap Thermo Scientific
Instrument type: LC-ESI-QFT
Ms type: MS2
Ion mode: NEGATIVE
Ionization: ESI
Fragmentation mode: HCD
Collision energy: 30 (nominal)
Resolution: 35000
Column name: XBridge C18 3.5um, 2.1x50mm, Waters
Retention time: 3.6 min
Base peak: 456.1772
Precursor m/z: 456.1776
Precursor type: [M-H]-
m/z	relative intensity	assigned
84.009	8	C3H2NO2-
86.0247	4	C3H4NO2-
99.0087	7	C4H3O3-
100.0767	2	C5H10NO-
121.0294	1	C7H5O2-
124.0038	2	C5H2NO3-
125.0719	38	C6H9N2O-
126.0195	3	C5H4NO3-
126.056	17	C6H8NO2-
136.0403	8	C7H6NO2-
137.0243	3	C7H5O3-
142.0144	45	C5H4NO4-
142.9985	7	C5H3O5-
152.0353	4	C7H6NO3-
154.0383	9	C6H6N2O3-
162.0195	5	C8H4NO3-
163.0037	8	C8H3O4-
164.0714	1	C9H10NO2-
166.0874	3	C9H12NO2-
169.0254	13	C6H5N2O4-
169.0617	101	C7H9N2O3-
180.0301	138	C8H6NO4-
181.038	5	C8H7NO4-
191.0828	4	C10H11N2O2-
192.0668	2	C10H10NO3-
202.0872	16	C12H12NO2-
207.0776	2	C10H11N2O3-
209.093	13	C10H13N2O3-
216.1027	4	C13H14NO2-
225.0878	3	C10H13N2O4-
230.0821	20	C13H12NO3-
242.1185	5	C15H16NO2-
244.0977	2	C14H14NO3-
246.0769	5	C13H12NO4-
252.1026	1	C16H14NO2-
254.1183	7	C16H16NO2-
258.0773	4	C14H12NO4-
258.1132	3	C15H16NO3-
265.1111	2	C17H15NO2-
266.1187	5	C17H16NO2-
268.0981	8	C16H14NO3-
270.1134	9	C16H16NO3-
278.1183	8	C18H16NO2-
279.1268	1	C18H17NO2-
280.0979	5	C17H14NO3-
282.1133	31	C17H16NO3-
284.0926	12	C16H14NO4-
284.1285	4	C17H18NO3-
286.1084	638	C16H16NO4-
291.0898	3	C18H13NO3-
294.113	3	C18H16NO3-
296.1292	11	C18H18NO3-
298.1082	38	C17H16NO4-
299.1158	1	C17H17NO4-
300.1241	10	C17H18NO4-
306.1133	33	C19H16NO3-
307.0845	6	C18H13NO4-
307.1216	2	C19H17NO3-
308.0928	28	C18H14NO4-
309.1011	3	C18H15NO4-
310.108	2	C18H16NO4-
312.147	3	C18H20N2O3-
313.1548	4	C18H21N2O3-
321.1243	1	C19H17N2O3-
322.1083	82	C19H16NO4-
323.1758	5	C20H23N2O2-
324.0883	7	C18H14NO5-
324.1239	25	C19H18NO4-
325.1554	2	C19H21N2O3-
326.1032	11	C18H16NO5-
327.1713	41	C19H23N2O3-
332.0932	3	C20H14NO4-
335.0796	11	C19H13NO5-
336.0873	2	C19H14NO5-
336.1481	2	C20H20N2O3-
338.1034	2	C19H16NO5-
339.1353	7	C19H19N2O4-
339.1717	2	C20H23N2O3-
340.1187	10	C19H18NO5-
341.1273	2	C19H19NO5-
341.1867	16	C20H25N2O3-
343.1662	36	C19H23N2O4-
348.0871	5	C20H14NO5-
349.1185	5	C20H17N2O4-
350.1032	157	C20H16NO5-
351.1712	37	C21H23N2O3-
352.0827	2	C19H14NO6-
353.1505	2	C20H21N2O4-
365.1143	10	C20H17N2O5-
366.098	21	C20H16NO6-
367.1661	49	C21H23N2O4-
368.1138	34	C20H18NO6-
368.1605	7	C20H22N3O4-
369.1449	1	C20H21N2O5-
369.1817	32	C21H25N2O4-
371.1612	999	C20H23N2O5-
376.0824	10	C21H14NO6-
379.0698	1	C20H13NO7-
380.1387	1	C21H20N2O5-
383.1242	4	C20H19N2O6-
385.1764	13	C21H25N2O5-
393.109	10	C21H17N2O6-
394.0929	145	C21H16NO7-
394.1765	8	C22H24N3O4-
395.1609	61	C22H23N2O5-
411.119	7	C21H19N2O7-
413.1716	226	C22H25N2O6-
421.1402	12	C23H21N2O6-
428.182	4	C22H26N3O6-
438.1671	5	C23H24N3O6-
439.151	33	C23H23N2O7-
456.1772	11	C23H26N3O7-
457.162	8	C23H25N2O8-
