Mass spectrum: Fluxapyroxad (BAS 700 F)-TP CSCD465008; LC-ESI-QFT; MS2; CE: 120%; R=17500; [M+H]+
Name: Fluxapyroxad (BAS 700 F)-TP CSCD465008
Name: 3-(Difluoromethyl)-1H-pyrazole-4-carboxylic acid
Name: 5-(difluoromethyl)-1H-pyrazole-4-carboxylic acid
Formula: C5H4F2N2O2
Exact mass: 162.0241
SMILES: OC(=O)C1=CNN=C1C(F)F
InChI: InChI=1S/C5H4F2N2O2/c6-4(7)3-2(5(10)11)1-8-9-3/h1,4H,(H,8,9)(H,10,11)
Instrument: Q Exactive Plus Orbitrap Thermo Scientific
Instrument type: LC-ESI-QFT
Ms type: MS2
Ion mode: POSITIVE
Ionization: ESI
Fragmentation mode: HCD
Collision energy: 120 % (nominal)
Resolution: 17500
Column name: XBridge C18 3.5um, 2.1x50mm, Waters
Retention time: 2.043 min
Base peak: 163.0315
Precursor m/z: 163.0314
Precursor type: [M+H]+
m/z	relative intensity	assigned
50.0152	3	C4H2+
51.0229	7	C4H3+
52.0182	24	C3H2N+
53.0022	32	C3HO+
53.9975	7	C2NO+
54.9469	13	
67.029	10	C3H3N2+
68.0131	999	C3H2NO+
95.024	129	C4H3N2O+
95.0349	34	
99.0354	8	C4H4FN2+
123.0188	28	C5H3N2O2+
141.0295	6	
