Mass spectrum: MCYR; LC-ESI-QFT; MS2; CE: 120%; R=17500; [M+H]+
Name: MCYR
Name: Microcystin YR
Name: (5R,8S,11R,12S,15S,18S,19S,22R)-15-[3-(diaminomethylideneamino)propyl]-8-[(4-hydroxyphenyl)methyl]-18-[(1E,3E,5S,6S)-6-methoxy-3,5-dimethyl-7-phenylhepta-1,3-dienyl]-1,5,12,19-tetramethyl-2-methylidene-3,6,9,13,16,20,25-heptaoxo-1,4,7,10,14,17,21-heptazacyclopentacosane-11,22-dicarboxylic acid
Class: NA
Formula: C52H72N10O13
Exact mass: 1044.5280
SMILES: CO[C@@H](Cc1ccccc1)[C@@H](C)\C=C(C)\C=C\[C@@H]2NC(=O)[C@H](CCCNC(N)=N)NC(=O)[C@@H](C)[C@@H](NC(=O)[C@H](Cc3ccc(O)cc3)NC(=O)[C@@H](C)NC(=O)C(=C)N(C)C(=O)CC[C@@H](NC(=O)[C@H]2C)C(O)=O)C(O)=O
InChI: InChI=1S/C52H72N10O13/c1-28(25-29(2)41(75-8)27-34-13-10-9-11-14-34)16-21-37-30(3)44(65)59-39(50(71)72)22-23-42(64)62(7)33(6)47(68)56-32(5)46(67)60-40(26-35-17-19-36(63)20-18-35)49(70)61-43(51(73)74)31(4)45(66)58-38(48(69)57-37)15-12-24-55-52(53)54/h9-11,13-14,16-21,25,29-32,37-41,43,63H,6,12,15,22-24,26-27H2,1-5,7-8H3,(H,56,68)(H,57,69)(H,58,66)(H,59,65)(H,60,67)(H,61,70)(H,71,72)(H,73,74)(H4,53,54,55)/b21-16+,28-25+/t29-,30-,31-,32+,37-,38-,39+,40-,41-,43+/m0/s1
Instrument: Q Exactive Plus Orbitrap Thermo Scientific
Instrument type: LC-ESI-QFT
Ms type: MS2
Ion mode: POSITIVE
Ionization: ESI
Fragmentation mode: HCD
Collision energy: 120 % (nominal)
Resolution: 17500
Column name: XBridge C18 3.5um, 2.1x50mm, Waters
Retention time: 8.039 min
Base peak: 523.2719
Precursor m/z: 1045.5353
Precursor type: [M+H]+
m/z	relative intensity	assigned
74.0236	6	C2H4NO2+
77.0385	69	C6H5+
79.0542	159	C6H7+
80.0495	49	C5H6N+
81.0336	12	C5H5O+
81.0699	10	C6H9+
82.0289	23	C4H4NO+
82.0652	53	C5H8N+
84.0445	106	C4H6NO+
85.0284	19	C4H5O2+
85.076	11	C4H9N2+
86.06	10	C4H8NO+
89.0383	10	C7H5+
91.0543	846	C7H7+
92.0622	7	C7H8+
93.0575	6	C6H7N+
93.0699	53	C7H9+
94.0413	3	C6H6O+
94.0651	20	C6H8N+
95.0492	556	C6H7O+
95.0603	32	C5H7N2+
95.0856	8	
96.0444	14	C5H6NO+
97.0761	40	C5H9N2+
98.0601	57	C5H8NO+
99.0188	12	C3H3N2O2+
99.0917	24	C5H11N2+
102.0464	39	C8H6+
103.0543	999	C8H7+
105.0448	181	C6H5N2+
105.0699	269	C8H9+
106.0521	3	C6H6N2+
107.0491	38	C7H7O+
107.0855	114	C8H11+
109.065	36	C7H9O+
110.06	5	C6H8NO+
112.087	26	C5H10N3+
113.0234	22	C5H5O3+
113.0707	7	C5H9N2O+
114.0549	5	C5H8NO2+
115.0543	154	C9H7+
115.0865	7	
116.0619	10	C9H8+
117.0699	44	C9H9+
118.0648	18	C8H8N+
119.0492	66	C8H7O+
119.0601	18	C7H7N2+
120.057	18	C8H8O+
121.076	36	C7H9N2+
122.0599	5	C7H8NO+
127.0866	75	C6H11N2O+
128.062	18	C10H8+
129.07	13	C10H9+
130.0501	4	C5H8NO3+
130.0652	7	C9H8N+
131.0854	13	C10H11+
135.0804	17	C9H11O+
135.1165	3	C10H15+
136.0759	47	C8H10NO+
144.0806	5	C10H10N+
146.0596	4	C9H8NO+
149.071	14	C8H9N2O+
165.0697	12	C13H9+
167.0817	15	C8H11N2O2+
170.096	5	C12H12N+
