Mass spectrum: Metoprolol; LC-ESI-ITFT; MS2; CE: 30%; R=7500; [M+H]+
Name: Metoprolol
Name: 1-(isopropylamino)-3-[4-(2-methoxyethyl)phenoxy]propan-2-ol
Formula: C15H25NO3
Exact mass: 267.1834
SMILES: COCCC1=CC=C(OCC(O)CNC(C)C)C=C1
InChI: InChI=1S/C15H25NO3/c1-12(2)16-10-14(17)11-19-15-6-4-13(5-7-15)8-9-18-3/h4-7,12,14,16-17H,8-11H2,1-3H3
Instrument: LTQ Orbitrap XL Thermo Scientific
Instrument type: LC-ESI-ITFT
Ms type: MS2
Ion mode: POSITIVE
Ionization: ESI
Fragmentation mode: HCD
Collision energy: 30 % (nominal)
Resolution: 7500
Column name: XBridge C18 3.5um, 2.1x50mm, Waters
Retention time: 5.1 min
Base peak: 268.1916
Precursor m/z: 268.1907
Precursor type: [M+H]+
m/z	relative intensity	assigned
72.0808	13	C4H10N+
74.0601	15	C3H8NO+
98.0965	18	C6H12N+
116.107	52	C6H14NO+
121.0647	13	C8H9O+
133.0652	4	C9H9O+
159.0806	9	C11H11O+
176.1069	9	C11H14NO+
177.0908	5	C11H13O2+
191.1069	37	C12H15O2+
194.1181	5	C11H16NO2+
218.1543	15	C14H20NO+
226.1432	25	C12H20NO3+
250.1806	13	C15H24NO2+
268.1904	999	C15H26NO3+
