Mass spectrum: Warfarin; LC-ESI-QFT; MS2; CE: 60; R=35000; [M-H]-
Name: Warfarin
Name: 2-hydroxy-3-(3-oxo-1-phenylbutyl)chromen-4-one
Name: Coumafen
Formula: C19H16O4
Exact mass: 308.10486
SMILES: O=C\1c3c(OC(/O)=C/1C(c2ccccc2)CC(=O)C)cccc3
InChI: InChI=1S/C19H16O4/c1-12(20)11-15(13-7-3-2-4-8-13)17-18(21)14-9-5-6-10-16(14)23-19(17)22/h2-10,15,22H,11H2,1H3
Instrument: Q Exactive Orbitrap Thermo Scientific
Instrument type: LC-ESI-QFT
Ms type: MS2
Ion mode: NEGATIVE
Ionization: ESI
Fragmentation mode: HCD
Collision energy: 60 (nominal)
Resolution: 35000
Column name: XBridge C18 3.5um, 2.1x50mm, Waters
Retention time: 10.6 min
Base peak: 307.0978
Precursor m/z: 307.0976
Precursor type: [M-H]-
m/z	relative intensity	assigned
57.0346	404	C3H5O-
83.0139	27	C4H3O2-
91.0555	3	C7H7-
92.0269	2	C6H4O-
93.0346	48	C6H5O-
101.0397	7	C8H5-
108.0217	2	C6H4O2-
115.0555	2	C9H7-
117.0348	751	C8H5O-
119.0502	7	C8H7O-
129.071	1	C10H9-
130.0424	22	C9H6O-
133.066	15	C9H9O-
135.0454	6	C8H7O2-
141.0711	2	C11H9-
143.0502	2	C10H7O-
145.066	7	C10H9O-
157.066	18	C11H9O-
161.0245	999	C9H5O3-
187.0764	3	C12H11O2-
193.066	8	C14H9O-
195.0816	32	C14H11O-
205.0661	9	C15H9O-
206.0738	98	C15H10O-
219.0816	10	C16H11O-
221.0608	20	C15H9O2-
221.0973	15	C16H13O-
222.0687	23	C15H10O2-
223.0765	43	C15H11O2-
233.0975	2	C17H13O-
245.098	3	C18H13O-
248.0851	1	C17H12O2-
249.0558	10	C16H9O3-
250.0637	908	C16H10O3-
261.092	12	C18H13O2-
282.0534	2	C16H10O5-
307.098	3	C19H15O4-
