Mass spectrum: Dexamethasone acetate; LC-ESI-QFT; MS2; CE: 150; R=35000; [M+H]+
Name: Dexamethasone acetate
Name: Dexamethason-21-acetate
Name: [2-(9-fluoro-11,17-dihydroxy-10,13,16-trimethyl-3-oxo-6,7,8,11,12,14,15,16-octahydrocyclopenta[a]phenanthren-17-yl)-2-oxoethyl] acetate
Formula: C24H31FO6
Exact mass: 434.21047
SMILES: CC1CC2C3CCC4=CC(=O)C=CC4(C3(C(CC2(C1(C(=O)COC(=O)C)O)C)O)F)C
InChI: InChI=1S/C24H31FO6/c1-13-9-18-17-6-5-15-10-16(27)7-8-21(15,3)23(17,25)19(28)11-22(18,4)24(13,30)20(29)12-31-14(2)26/h7-8,10,13,17-19,28,30H,5-6,9,11-12H2,1-4H3
Instrument: Q Exactive Plus Orbitrap Thermo Scientific
Instrument type: LC-ESI-QFT
Ms type: MS2
Ion mode: POSITIVE
Ionization: ESI
Fragmentation mode: HCD
Collision energy: 150 (nominal)
Resolution: 35000
Column name: XBridge C18 3.5um, 2.1x50mm, Waters
Retention time: 10.2 min
Base peak: 435.2176
Precursor m/z: 435.2177
Precursor type: [M+H]+
m/z	relative intensity	assigned
50.0151	96	C4H2+
51.023	151	C4H3+
53.0022	29	C3HO+
53.0386	177	C4H5+
53.9975	2	C2NO+
55.0179	42	C3H3O+
55.0542	36	C4H7+
57.0335	4	C3H5O+
59.0292	2	C3H4F+
61.0285	2	C2H5O2+
62.0151	11	C5H2+
63.0229	52	C5H3+
65.0386	472	C5H5+
66.0464	16	C5H6+
67.0543	44	C5H7+
69.0335	8	C4H5O+
71.0127	5	C3H3O2+
74.015	4	C6H2+
75.0229	24	C6H3+
76.0308	11	C6H4+
77.0386	212	C6H5+
78.0464	144	C6H6+
79.0542	148	C6H7+
81.0336	27	C5H5O+
81.0698	3	C6H9+
83.0292	5	C5H4F+
87.0229	4	C7H3+
88.0306	2	C7H4+
89.0386	90	C7H5+
91.0543	862	C7H7+
93.0699	17	C7H9+
94.0414	17	C6H6O+
95.0492	532	C6H7O+
101.0385	4	C8H5+
102.0465	118	C8H6+
103.0543	239	C8H7+
104.0621	36	C8H8+
105.0448	287	C6H5N2+
105.07	47	C8H9+
107.0492	45	C7H7O+
109.0449	14	C7H6F+
109.0647	4	C7H9O+
113.0387	2	C9H5+
114.0467	4	C9H6+
115.0543	999	C9H7+
116.0621	69	C9H8+
117.0699	47	C9H9+
118.0414	2	C8H6O+
119.0493	4	C8H7O+
119.0858	2	C9H11+
121.0649	16	C8H9O+
125.0393	9	C7H6FO+
126.0465	53	C10H6+
127.0543	83	C10H7+
128.0621	703	C10H8+
129.0446	11	C8H5N2+
129.0699	79	C10H9+
130.0778	9	C10H10+
131.0492	163	C9H7O+
132.0571	22	C9H8O+
133.0449	18	C9H6F+
139.0543	103	C11H7+
140.0621	16	C11H8+
141.0699	185	C11H9+
142.0778	12	C11H10+
144.057	21	C10H8O+
145.0649	83	C10H9O+
146.0526	10	C10H7F+
150.0461	22	C12H6+
151.0541	19	C12H7+
152.0622	543	C12H8+
153.07	135	C12H9+
154.0779	13	C12H10+
155.0493	10	C11H7O+
155.0604	117	C10H7N2+
157.0651	26	C11H9O+
158.0723	3	C11H10O+
159.0606	3	C11H8F+
163.0543	56	C13H7+
164.062	49	C13H8+
165.07	528	C13H9+
166.0779	27	C13H10+
167.0856	14	C13H11+
168.0571	45	C12H8O+
169.0649	110	C12H9O+
176.0622	170	C14H8+
177.07	121	C14H9+
178.0778	452	C14H10+
179.0605	32	C12H7N2+
179.0856	53	C14H11+
180.0932	2	C14H12+
181.0648	79	C13H9O+
182.0728	9	C13H10O+
183.0606	4	C13H8F+
183.0806	3	C13H11O+
187.0545	22	C15H7+
188.0619	20	C15H8+
189.07	468	C15H9+
190.0777	71	C15H10+
191.0856	61	C15H11+
192.0571	13	C14H8O+
192.0934	2	C15H12+
193.0656	3	C14H9O+
194.073	19	C14H10O+
195.0805	8	C14H11O+
196.0518	9	C13H8O2+
200.0621	32	C16H8+
201.0698	32	C16H9+
202.0778	373	C16H10+
203.0856	65	C16H11+
204.0938	4	C16H12+
205.065	50	C15H9O+
206.0731	7	C15H10O+
207.0805	14	C15H11O+
213.0702	51	C17H9+
214.0776	12	C17H10+
215.0857	138	C17H11+
216.0939	3	C17H12+
217.1012	3	C17H13+
218.073	26	C16H10O+
219.0805	33	C16H11O+
220.0882	2	C16H12O+
221.0967	3	C16H13O+
225.0695	2	C18H9+
226.0778	122	C18H10+
227.086	30	C18H11+
228.0935	35	C18H12+
229.0648	4	C17H9O+
229.1015	9	C18H13+
231.0807	33	C17H11O+
232.0884	2	C17H12O+
239.0855	39	C19H11+
240.0932	2	C19H12+
242.0721	4	C18H10O+
243.0811	4	C18H11O+
250.0775	9	C20H10+
252.0932	4	C20H12+
269.0955	2	C20H13O+
