Mass spectrum: Difenacoum; LC-ESI-QFT; MS2; CE: 75%; R=17500; [M+H]+
Name: Difenacoum
Name: 4-hydroxy-3-[3-(4-phenylphenyl)-1,2,3,4-tetrahydronaphthalen-1-yl]chromen-2-one
Formula: C31H24O3
Exact mass: 444.1725
SMILES: C1C(CC2=CC=CC=C2C1C3=C(C4=CC=CC=C4OC3=O)O)C5=CC=C(C=C5)C6=CC=CC=C6
InChI: InChI=1S/C31H24O3/c32-30-26-12-6-7-13-28(26)34-31(33)29(30)27-19-24(18-23-10-4-5-11-25(23)27)22-16-14-21(15-17-22)20-8-2-1-3-9-20/h1-17,24,27,32H,18-19H2
Instrument: Exploris 240 Orbitrap Thermo Scientific
Instrument type: LC-ESI-QFT
Ms type: MS2
Ion mode: POSITIVE
Ionization: ESI
Fragmentation mode: HCD
Collision energy: 75 % (nominal)
Resolution: 17500
Column name: XBridge C18 3.5um, 2.1x50mm, Waters
Retention time: 15.423 min
Base peak: 445.1795
Precursor m/z: 445.1798
Precursor type: [M+H]+
m/z	relative intensity	assigned
69.0334	5	C4H5O+
77.0384	29	C6H5+
79.0542	92	C6H7+
91.0542	422	C7H7+
95.0491	43	C6H7O+
103.0541	150	C8H7+
105.0698	13	C8H9+
107.0491	189	C7H7O+
115.0541	43	C9H7+
117.0699	16	C9H9+
121.0283	128	C7H5O2+
128.0619	40	C10H8+
129.0697	64	C10H9+
141.0698	19	C11H9+
143.085	8	C11H11+
152.0622	9	C12H8+
163.0383	9	C9H7O3+
165.0698	635	C13H9+
166.078	50	C13H10+
167.0856	48	C13H11+
171.0803	10	C12H11O+
175.0389	143	C10H7O3+
177.0694	21	C14H9+
178.0776	807	C14H10+
179.0854	999	C14H11+
189.0553	8	C11H9O3+
228.0938	10	C18H12+
239.0854	8	C19H11+
240.0924	5	C19H12+
241.1009	58	C19H13+
242.109	57	C19H14+
255.1158	16	C20H15+
