Mass spectrum: Acifluorfen; LC-ESI-QFT; MS2; CE: 15; R=35000; [M+H]+
Name: Acifluorfen
Name: 5-[2-chloranyl-4-(trifluoromethyl)phenoxy]-2-nitro-benzoic acid
Formula: C14H7ClF3NO5
Exact mass: 360.99648
SMILES: Clc2cc(ccc2Oc1cc(C(=O)O)c([N+]([O-])=O)cc1)C(F)(F)F
InChI: InChI=1S/C14H7ClF3NO5/c15-10-5-7(14(16,17)18)1-4-12(10)24-8-2-3-11(19(22)23)9(6-8)13(20)21/h1-6H,(H,20,21)
Instrument: Q Exactive Orbitrap Thermo Scientific
Instrument type: LC-ESI-QFT
Ms type: MS2
Ion mode: POSITIVE
Ionization: ESI
Fragmentation mode: HCD
Collision energy: 15 (nominal)
Resolution: 35000
Column name: XBridge C18 3.5um, 2.1x50mm, Waters
Retention time: 12.3 min
Base peak: 379.0305
Precursor m/z: 362.0038
Precursor type: [M+H]+
m/z	relative intensity	assigned
178.9865	3	C7H3ClF3+
222.9769	24	C8H3ClF3O2+
300.0036	54	C13H6ClF3NO2+
343.9934	999	C14H6ClF3NO4+
