Mass spectrum: Chloralose; LC-ESI-QFT; MS2; CE: 60%; R=17500; [M+H]+
Name: Chloralose
Name: Glucochloralose
Name: 1-[6-hydroxy-2-(trichloromethyl)-3a,5,6,6a-tetrahydrofuro[2,3-d][1,3]dioxol-5-yl]ethane-1,2-diol
Formula: C8H11Cl3O6
Exact mass: 307.9621
SMILES: C(C(C1C(C2C(O1)OC(O2)C(Cl)(Cl)Cl)O)O)O
InChI: InChI=1S/C8H11Cl3O6/c9-8(10,11)7-16-5-3(14)4(2(13)1-12)15-6(5)17-7/h2-7,12-14H,1H2
Instrument: Exploris 240 Orbitrap Thermo Scientific
Instrument type: LC-ESI-QFT
Ms type: MS2
Ion mode: POSITIVE
Ionization: ESI
Fragmentation mode: HCD
Collision energy: 60 % (nominal)
Resolution: 17500
Column name: XBridge C18 3.5um, 2.1x50mm, Waters
Retention time: 4.863 min
Base peak: 308.9692
Precursor m/z: 308.9694
Precursor type: [M+H]+
m/z	relative intensity	assigned
53.0385	271	C4H5+
55.0178	159	C3H3O+
55.0543	33	C4H7+
57.0335	409	C3H5O+
61.0284	137	C2H5O2+
69.0335	999	C4H5O+
71.0128	121	C3H3O2+
71.0491	153	C4H7O+
73.0283	179	C3H5O2+
74.9997	81	C3H4Cl+
81.0335	942	C5H5O+
82.945	192	CHCl2+
83.0129	66	C4H3O2+
83.0492	65	C5H7O+
84.0207	83	C4H4O2+
85.0284	791	C4H5O2+
89.0153	45	C4H6Cl+
97.0284	344	C5H5O2+
98.9998	39	C5H4Cl+
99.0442	144	C5H7O2+
101.0234	55	C4H5O3+
103.039	81	C4H7O3+
108.9606	198	C3H3Cl2+
109.028	159	C6H5O2+
124.9559	41	C3H3Cl2O+
127.039	138	C6H7O3+
142.9217	42	C3H2Cl3+
