Mass spectrum: Flecainide; LC-ESI-QFT; MS2; CE: 90; R=35000; [M-H]-
Name: Flecainide
Name: N-(2-piperidinylmethyl)-2,5-bis(2,2,2-trifluoroethoxy)benzamide
Formula: C17H20F6N2O3
Exact mass: 414.13781
SMILES: C1CCNC(C1)CNC(=O)C2=C(C=CC(=C2)OCC(F)(F)F)OCC(F)(F)F
InChI: InChI=1S/C17H20F6N2O3/c18-16(19,20)9-27-12-4-5-14(28-10-17(21,22)23)13(7-12)15(26)25-8-11-3-1-2-6-24-11/h4-5,7,11,24H,1-3,6,8-10H2,(H,25,26)
Instrument: Q Exactive Orbitrap Thermo Scientific
Instrument type: LC-ESI-QFT
Ms type: MS2
Ion mode: NEGATIVE
Ionization: ESI
Fragmentation mode: HCD
Collision energy: 90 (nominal)
Resolution: 35000
Column name: XBridge C18 3.5um, 2.1x50mm, Waters
Retention time: 6.6 min
Base peak: 459.1364
Precursor m/z: 413.1305
Precursor type: [M-H]-
m/z	relative intensity	assigned
58.0098	45	C2HFN-
58.9938	20	C2FO-
65.0032	22	C4HO-
65.9985	74	C3NO-
69.0346	447	C4H5O-
75.0241	5	C6H3-
79.0001	39	C2HF2O-
79.0189	5	C5H3O-
81.0347	12	C5H5O-
88.0193	79	C6H2N-
89.0034	16	C6HO-
91.019	12	C6H3O-
93.0346	13	C6H5O-
95.0139	37	C5H3O2-
97.0295	333	C5H5O2-
98.0172	5	C5H3FO-
99.024	2	C8H3-
100.0193	19	C7H2N-
102.035	14	C7H4N-
103.019	33	C7H3O-
103.0427	9	C7H5N-
105.0221	16	C6H3NO-
106.0062	21	C6H2O2-
107.0139	24	C6H3O2-
107.0616	2	C6H7N2-
108.0217	161	C6H4O2-
109.0294	19	C6H5O2-
110.0175	5	C6H3FO-
114.035	20	C8H4N-
115.0191	4	C8H3O-
116.0143	287	C7H2NO-
117.0148	28	C8H2F-
117.022	26	C7H3NO-
117.0347	11	C8H5O-
118.03	221	C7H4NO-
120.0092	11	C6H2NO2-
120.0456	19	C7H6NO-
121.0096	9	C7H2FO-
121.0295	38	C7H5O2-
122.0174	4	C7H3FO-
123.0088	11	C6H3O3-
123.0452	10	C7H7O2-
125.0244	178	C6H5O3-
126.0123	18	C6H3FO2-
126.035	14	C9H4N-
130.0298	44	C8H4NO-
131.0137	23	C8H3O2-
131.0377	98	C8H5NO-
132.0217	53	C8H4O2-
132.0457	4	C8H6NO-
133.017	167	C7H3NO2-
134.0249	12	C7H4NO2-
135.0089	33	C7H3O3-
136.016	5	C7H4O3-
138.012	3	C7H3FO2-
139.0202	5	C7H4FO2-
142.0298	82	C9H4NO-
143.05	7	C10H7O-
144.0092	18	C8H2NO2-
144.0455	30	C9H6NO-
145.0095	68	C9H2FO-
145.0168	15	C8H3NO2-
145.0294	5	C9H5O2-
146.0248	607	C8H4NO2-
147.0087	5	C8H3O3-
147.0452	4	C9H7O2-
148.0404	10	C8H6NO2-
149.0044	11	C8H2FO2-
150.012	24	C8H3FO2-
151.0197	3	C8H4FO2-
151.0275	5	C7H5NO3-
154.007	17	C7H3FO3-
154.0299	19	C10H4NO-
158.0248	41	C9H4NO2-
158.0613	4	C10H8NO-
159.0325	398	C9H5NO2-
160.0159	26	C9H4O3-
160.0404	71	C9H6NO2-
161.0051	4	C6H3F2O3-
161.0119	18	C8H3NO3-
161.0243	24	C9H5O3-
162.0198	10	C8H4NO3-
162.0361	14	C9H5FNO-
163.0277	17	C8H5NO3-
164.0154	574	C8H3FNO2-
170.0247	14	C10H4NO2-
170.0611	15	C11H8NO-
171.0324	4	C10H5NO2-
171.0565	12	C10H7N2O-
172.0406	81	C10H6NO2-
173.0048	4	C10H2FO2-
173.0115	24	C9H3NO3-
173.048	11	C10H7NO2-
174.0195	66	C9H4NO3-
175.0205	3	C10H4FO2-
175.0275	17	C9H5NO3-
176.0148	2	C9H3FNO2-
176.0349	14	C9H6NO3-
176.9994	5	C9H2FO3-
178.0072	9	C9H3FO3-
178.0309	4	C9H5FNO2-
179.0825	47	C9H11N2O2-
184.0404	55	C11H6NO2-
185.0356	160	C10H5N2O2-
186.0197	52	C10H4NO3-
186.0436	13	C10H6N2O2-
186.056	64	C11H8NO2-
187.0149	9	C9H3N2O3-
187.0272	10	C10H5NO3-
187.0513	4	C10H7N2O2-
188.0156	5	C10H3FNO2-
188.0352	17	C10H6NO3-
192.0104	999	C9H3FNO3-
195.056	5	C4H8F5N2O-
196.0406	4	C12H6NO2-
197.0481	23	C4H8F5NO2-
197.0722	3	C12H9N2O-
198.0435	82	C11H6N2O2-
198.0562	13	C12H8NO2-
198.0925	4	C13H12NO-
199.0513	26	C11H7N2O2-
199.063	6	C12H9NO2-
200.0357	4	C11H6NO3-
200.0716	49	C12H10NO2-
202.0073	13	C11H3FO3-
202.0509	11	C11H8NO3-
204.0107	2	C10H3FNO3-
206.0256	14	C10H5FNO3-
210.0557	10	C5H9F5NO2-
211.0511	4	C4H8F5N2O2-
212.0599	4	C9H9FN2O3-
212.0714	18	C5H11F5NO2-
213.0306	89	C11H5N2O3-
213.0666	12	C4H10F5N2O2-
214.0384	13	C11H6N2O3-
214.0506	3	C4H9F5NO3-
214.0872	4	C13H12NO2-
215.0455	2	C3H8F5N2O3-
216.0102	3	C11H3FNO3-
216.0667	2	C12H10NO3-
218.0819	10	C12H12NO3-
223.0873	4	C6H12F5N2O-
224.0594	11	C13H8N2O2-
226.0385	96	C12H6N2O3-
226.0874	5	C14H12NO2-
227.0464	27	C12H7N2O3-
228.0664	4	C5H11F5NO3-
233.9966	2	C12F4N-
239.0456	18	C5H8F5N2O3-
240.0543	5	C13H8N2O3-
241.0615	13	C5H10F5N2O3-
251.0827	3	C15H11N2O2-
253.098	2	C7H14F5N2O2-
269.0934	44	C15H13N2O3-
270.102	4	C15H14N2O3-
