Mass spectrum: Triphenylphosphine oxide; LC-ESI-QFT; MS2; CE: 45; R=35000; [M+H]+
Name: Triphenylphosphine oxide
Name: Triphenylphosphineoxide
Name: (diphenylphosphoroso)benzene
Formula: C18H15OP
Exact mass: 278.08605
SMILES: C1=CC=C(C=C1)P(=O)(C2=CC=CC=C2)C3=CC=CC=C3
InChI: InChI=1S/C18H15OP/c19-20(16-10-4-1-5-11-16,17-12-6-2-7-13-17)18-14-8-3-9-15-18/h1-15H
Instrument: Q Exactive Plus Orbitrap Thermo Scientific
Instrument type: LC-ESI-QFT
Ms type: MS2
Ion mode: POSITIVE
Ionization: ESI
Fragmentation mode: HCD
Collision energy: 45 (nominal)
Resolution: 35000
Column name: XBridge C18 3.5um, 2.1x50mm, Waters
Retention time: 9.4 min
Base peak: 391.2839
Precursor m/z: 279.0933
Precursor type: [M+H]+
m/z	relative intensity	assigned
50.0149	3	C4H2+
51.0228	6	C4H3+
53.0022	13	C3HO+
53.9974	2	C2NO+
55.0542	3	C4H7+
57.0699	999	C4H9+
59.0491	62	C3H7O+
62.9996	5	CH4OP+
65.0383	33	C5H5+
67.0543	4	C5H7+
69.0699	10	C5H9+
71.0855	55	C5H11+
74.0965	4	C4H12N+
76.0306	3	C6H4+
77.0385	2	C6H5+
79.0542	40	C6H7+
81.0699	3	C6H9+
87.0441	45	C4H7O2+
91.0541	2	C7H7+
93.0337	4	C6H5O+
95.0856	11	C7H11+
97.0649	3	C6H9O+
101.0598	23	C5H9O2+
105.0336	4	C7H5O+
107.0853	3	C8H11+
109.1013	3	C8H13+
119.0858	4	C9H11+
121.0284	100	C7H5O2+
121.0396	15	C6H5N2O+
123.0439	3	C7H7O2+
123.0801	5	C8H11O+
123.1167	3	C9H15+
141.0098	2	C6H6O2P+
159.1165	3	C12H15+
173.0519	4	C11H10P+
201.0461	52	C12H10OP+
219.057	719	C12H12O2P+
233.0723	16	C13H14O2P+
279.0934	595	C18H16OP+
