Mass spectrum: Aliskiren; LC-ESI-QFT; MS2; CE: 60; R=35000; [M-H]-
Name: Aliskiren
Name: (2S,4S,5S,7S)-5-amino-N-(3-amino-2,2-dimethyl-3-oxopropyl)-4-hydroxy-7-[[4-methoxy-3-(3-methoxypropoxy)phenyl]methyl]-8-methyl-2-propan-2-ylnonanamide
Formula: C30H53N3O6
Exact mass: 551.39344
SMILES: COCCCOC1=C(OC)C=CC(C[C@@H](C[C@H](N)[C@@H](O)C[C@@H](C(C)C)C(=O)NCC(C)(C)C(N)=O)C(C)C)=C1
InChI: InChI=1S/C30H53N3O6/c1-19(2)22(14-21-10-11-26(38-8)27(15-21)39-13-9-12-37-7)16-24(31)25(34)17-23(20(3)4)28(35)33-18-30(5,6)29(32)36/h10-11,15,19-20,22-25,34H,9,12-14,16-18,31H2,1-8H3,(H2,32,36)(H,33,35)/t22-,23-,24-,25-/m0/s1
Instrument: Q Exactive Orbitrap Thermo Scientific
Instrument type: LC-ESI-QFT
Ms type: MS2
Ion mode: NEGATIVE
Ionization: ESI
Fragmentation mode: HCD
Collision energy: 60 (nominal)
Resolution: 35000
Column name: XBridge C18 3.5um, 2.1x50mm, Waters
Retention time: 9.6 min
Base peak: 596.3925
Precursor m/z: 550.3862
Precursor type: [M-H]-
m/z	relative intensity	assigned
84.0455	100	C4H6NO-
86.0612	999	C4H8NO-
93.0347	23	C6H5O-
94.0299	6	C5H4NO-
107.0504	6	C7H7O-
114.0925	44	C6H12NO-
115.0878	328	C5H11N2O-
121.0296	629	C7H5O2-
122.0375	136	C7H6O2-
124.0769	35	C7H10NO-
126.0922	4	C7H12NO-
128.1084	7	C7H14NO-
135.0454	44	C8H7O2-
138.0925	10	C8H12NO-
140.0717	17	C7H10NO2-
141.0669	6	C6H9N2O2-
147.0452	4	C9H7O2-
148.0531	37	C9H8O2-
152.1079	10	C9H14NO-
154.0268	9	C7H6O4-
161.0603	7	C10H9O2-
162.0689	5	C10H10O2-
168.139	6	C10H18NO-
176.0842	6	C11H12O2-
177.092	199	C11H13O2-
178.0869	9	C10H12NO2-
181.1348	10	C10H17N2O-
194.0949	152	C11H14O3-
195.1504	126	C11H19N2O-
206.0826	6	C11H12NO3-
207.1504	17	C12H19N2O-
223.1453	6	C12H19N2O2-
226.0846	67	C11H14O5-
243.1389	23	C16H19O2-
249.1372	7	C14H19NO3-
260.1651	63	C16H22NO2-
271.2071	25	C19H27O-
286.1445	29	C17H20NO3-
286.1935	25	C19H26O2-
299.202	8	C20H27O2-
303.2204	18	C19H29NO2-
304.1553	62	C17H22NO4-
329.1996	5	C20H27NO3-
332.2232	5	C20H30NO3-
344.2231	8	C21H30NO3-
347.2105	30	C20H29NO4-
362.2352	6	C21H32NO4-
402.24	9	C22H32N3O4-
