Mass spectrum: Terbinafine; LC-ESI-QFT; MS2; CE: 180; R=35000; [M+H]+
Name: Terbinafine
Name: Terbinex
Name: N,6,6-trimethyl-N-(naphthalen-1-ylmethyl)hept-2-en-4-yn-1-amine
Formula: C21H25N
Exact mass: 291.19870
SMILES: CC(C)(C)C#CC=CCN(C)CC1=CC=CC2=CC=CC=C21
InChI: InChI=1S/C21H25N/c1-21(2,3)15-8-5-9-16-22(4)17-19-13-10-12-18-11-6-7-14-20(18)19/h5-7,9-14H,16-17H2,1-4H3
Instrument: Q Exactive Plus Orbitrap Thermo Scientific
Instrument type: LC-ESI-QFT
Ms type: MS2
Ion mode: POSITIVE
Ionization: ESI
Fragmentation mode: HCD
Collision energy: 180 (nominal)
Resolution: 35000
Column name: XBridge C18 3.5um, 2.1x50mm, Waters
Retention time: 8.8 min
Base peak: 292.2054
Precursor m/z: 292.206
Precursor type: [M+H]+
m/z	relative intensity	assigned
50.0151	69	C4H2+
51.023	71	C4H3+
53.0022	16	C3HO+
53.0386	15	C4H5+
53.9974	4	C2NO+
55.0543	1	C4H7+
61.0073	17	C5H+
62.0151	85	C5H2+
63.0229	327	C5H3+
65.0386	373	C5H5+
66.0464	2	C5H6+
74.0151	22	C6H2+
75.0229	31	C6H3+
76.0307	21	C6H4+
77.0385	30	C6H5+
78.0464	10	C6H6+
79.0178	2	C5H3O+
79.0542	6	C6H7+
86.0151	7	C7H2+
87.023	27	C7H3+
88.0308	6	C7H4+
89.0386	524	C7H5+
90.0465	3	C7H6+
91.0543	149	C7H7+
94.0414	1	C6H6O+
95.0491	33	C6H7O+
102.0464	29	C8H6+
103.0541	1	C8H7+
105.0447	29	C6H5N2+
113.0386	20	C9H5+
114.0464	13	C9H6+
115.0542	999	C9H7+
118.0414	1	C8H6O+
126.0465	7	C10H6+
132.057	4	C9H8O+
139.0543	87	C11H7+
140.0621	1	C11H8+
141.0697	6	C11H9+
176.0618	1	C14H8+
