Mass spectrum: Aminopyrine; LC-ESI-ITFT; MS2; CE: 35%; R=7500; [M+H]+
Name: Aminopyrine
Name: 4-(dimethylamino)-1,5-dimethyl-2-phenyl-3-pyrazolin-3-one
Formula: C13H17N3O
Exact mass: 231.1372
SMILES: c(ccc1N(N(C=2C)C)C(=O)C2N(C)C)cc1
InChI: InChI=1S/C13H17N3O/c1-10-12(14(2)3)13(17)16(15(10)4)11-8-6-5-7-9-11/h5-9H,1-4H3
Instrument: LTQ Orbitrap XL Thermo Scientific
Instrument type: LC-ESI-ITFT
Ms type: MS2
Ion mode: POSITIVE
Ionization: ESI
Fragmentation mode: CID
Collision energy: 35 % (nominal)
Resolution: 7500
Column name: XBridge C18 3.5um, 2.1x50mm, Waters
Retention time: 2.6 min
Base peak: 232.1453
Precursor m/z: 232.1444
Precursor type: [M+H]+
m/z	relative intensity	assigned
56.0493	5	C3H6N+
70.0652	67	C4H8N+
72.0808	31	C4H10N+
82.0648	6	C5H8N+
84.0807	21	C5H10N+
87.0918	25	C4H11N2+
97.076	112	C5H9N2+
98.0839	155	C5H10N2+
99.0918	29	C5H11N2+
100.0995	7	C5H12N2+
106.0653	4	C7H8N+
111.0918	564	C6H11N2+
113.1075	999	C6H13N2+
118.0652	18	C8H8N+
127.0863	7	C6H11N2O+
139.0866	128	C7H11N2O+
146.0601	63	C9H8NO+
147.0916	21	C9H11N2+
149.1074	112	C9H13N2+
159.0918	140	C10H11N2+
161.1077	9	C10H13N2+
175.0867	73	C10H11N2O+
177.1025	20	C10H13N2O+
187.0868	540	C11H11N2O+
188.0945	118	C11H12N2O+
189.1023	18	C11H13N2O+
201.1024	15	C12H13N2O+
204.1495	46	C12H18N3+
217.1208	24	C12H15N3O+
