Mass spectrum: Pencycuron; LC-ESI-QFT; MS2; CE: 30; R=35000; [M+H]+
Name: Pencycuron
Name: 1-(4-chlorobenzyl)-1-cyclopentyl-3-phenyl-urea
Formula: C19H21ClN2O
Exact mass: 328.13424
SMILES: Clc1ccc(cc1)CN(C(=O)Nc2ccccc2)C3CCCC3
InChI: InChI=1S/C19H21ClN2O/c20-16-12-10-15(11-13-16)14-22(18-8-4-5-9-18)19(23)21-17-6-2-1-3-7-17/h1-3,6-7,10-13,18H,4-5,8-9,14H2,(H,21,23)
Instrument: Q Exactive Orbitrap Thermo Scientific
Instrument type: LC-ESI-QFT
Ms type: MS2
Ion mode: POSITIVE
Ionization: ESI
Fragmentation mode: HCD
Collision energy: 30 (nominal)
Resolution: 35000
Column name: XBridge C18 3.5um, 2.1x50mm, Waters
Retention time: 13.9 min
Base peak: 329.1417
Precursor m/z: 329.1415
Precursor type: [M+H]+
m/z	relative intensity	assigned
69.0698	6	C5H9+
84.0807	11	C5H10N+
86.0964	6	C5H12N+
94.065	20	C6H8N+
98.0964	25	C6H12N+
106.0651	31	C7H8N+
119.0602	1	C7H7N2+
120.0442	2	C7H6NO+
125.0152	999	C7H6Cl+
142.0417	2	C7H9ClN+
149.0709	6	C8H9N2O+
210.1044	28	C12H17ClN+
217.1334	1	C13H17N2O+
218.0731	94	C13H13ClN+
261.0788	64	C14H14ClN2O+
329.1414	204	C19H22ClN2O+
