Mass spectrum: Enrofloxacin; LC-ESI-QFT; MS2; CE: 45; R=35000; [M+H]+
Name: Enrofloxacin
Name: 1-cyclopropyl-7-(4-ethylpiperazin-4-ium-1-yl)-6-fluoro-4-oxoquinoline-3-carboxylate
Formula: C19H22FN3O3
Exact mass: 359.16452
SMILES: CCN1CCN(CC1)C2=C(C=C3C(=C2)N(C=C(C3=O)C(=O)O)C4CC4)F
InChI: InChI=1S/C19H22FN3O3/c1-2-21-5-7-22(8-6-21)17-10-16-13(9-15(17)20)18(24)14(19(25)26)11-23(16)12-3-4-12/h9-12H,2-8H2,1H3,(H,25,26)
Instrument: Q Exactive Plus Orbitrap Thermo Scientific
Instrument type: LC-ESI-QFT
Ms type: MS2
Ion mode: POSITIVE
Ionization: ESI
Fragmentation mode: HCD
Collision energy: 45 (nominal)
Resolution: 35000
Column name: XBridge C18 3.5um, 2.1x50mm, Waters
Retention time: 4.4 min
Base peak: 360.1712
Precursor m/z: 360.1718
Precursor type: [M+H]+
m/z	relative intensity	assigned
56.0495	11	C3H6N+
57.0573	4	C3H7N+
58.0651	5	C3H8N+
67.0543	1	C5H7+
70.0652	19	C4H8N+
71.073	3	C4H9N+
72.0808	220	C4H10N+
84.0808	129	C5H10N+
85.0886	4	C5H11N+
86.0964	40	C5H12N+
96.0808	3	C6H10N+
98.0965	20	C6H12N+
99.0918	3	C5H11N2+
99.1043	7	C6H13N+
113.1073	1	C6H13N2+
135.048	8	C8H6FN+
136.0558	7	C8H7FN+
150.0716	1	C9H9FN+
151.0668	1	C8H8FN2+
152.0746	1	C8H9FN2+
154.0664	2	C8H9FNO+
156.0811	2	C11H10N+
161.0511	1	C9H6FN2+
162.0716	2	C10H9FN+
163.0429	2	C9H6FNO+
163.0667	11	C9H8FN2+
169.0763	2	C11H9N2+
174.0594	1	C10H7FN2+
174.0717	1	C11H9FN+
175.067	4	C10H8FN2+
175.0794	1	C11H10FN+
176.0507	2	C10H7FNO+
176.0745	6	C10H9FN2+
178.0538	1	C9H7FN2O+
179.0617	2	C9H8FN2O+
182.084	2	C12H10N2+
183.0918	3	C12H11N2+
184.0634	5	C11H8N2O+
184.0757	4	C12H10NO+
187.0665	1	C11H8FN2+
188.0507	2	C11H7FNO+
189.046	10	C10H6FN2O+
189.0823	11	C11H10FN2+
191.0618	6	C10H8FN2O+
197.0713	2	C12H9N2O+
197.1074	3	C13H13N2+
201.0821	1	C12H10FN2+
202.0542	1	C11H7FN2O+
202.0666	4	C12H9FNO+
202.0907	1	C12H11FN2+
203.0617	110	C11H8FN2O+
203.0979	7	C12H12FN2+
204.0696	170	C11H9FN2O+
205.0775	15	C11H10FN2O+
206.1212	3	C12H15FN2+
215.0622	5	C12H8FN2O+
215.0984	2	C13H12FN2+
216.0698	11	C12H9FN2O+
216.0812	1	C13H11FNO+
217.0408	4	C11H6FN2O2+
217.0774	23	C12H10FN2O+
217.0899	12	C13H12FNO+
217.1137	13	C13H14FN2+
218.0854	2	C12H11FN2O+
218.0979	1	C13H13FNO+
219.093	9	C12H12FN2O+
225.0663	1	C13H9N2O2+
225.1024	10	C14H13N2O+
227.0981	9	C14H12FN2+
229.0774	16	C13H10FN2O+
230.0492	6	C12H7FN2O2+
230.0852	7	C13H11FN2O+
231.0931	106	C13H12FN2O+
232.1009	3	C13H13FN2O+
233.1086	1	C13H14FN2O+
235.0516	1	C11H8FN2O3+
238.0977	1	C14H12N3O+
238.1342	1	C15H16N3+
239.0816	4	C14H11N2O2+
239.1181	4	C15H15N2O+
239.1546	1	C16H19N2+
240.1133	2	C14H14N3O+
243.0568	3	C13H8FN2O2+
243.0932	5	C14H12FN2O+
244.0646	2	C13H9FN2O2+
245.1087	999	C14H14FN2O+
252.1134	2	C15H14N3O+
255.137	2	C15H17N3O+
257.1085	55	C15H14FN2O+
258.0675	16	C18H10O2+
259.088	1	C14H12FN2O2+
259.124	9	C15H16FN2O+
260.1196	13	C19H16O+
266.1288	7	C16H16N3O+
266.1653	2	C17H20N3+
267.1368	3	C16H17N3O+
268.1447	13	C16H18N3O+
271.0753	1	C19H11O2+
271.0881	1	C15H12FN2O2+
273.1271	1	C15H16FN3O+
273.14	9	C16H18FN2O+
275.1429	9	C18H17N3+
281.1159	5	C16H15N3O2+
285.1274	36	C16H16FN3O+
286.0988	116	C15H13FN3O2+
287.1433	6	C16H18FN3O+
288.1509	39	C16H19FN3O+
289.0983	1	C15H14FN2O3+
294.1236	5	C17H16N3O2+
294.16	9	C18H20N3O+
296.1759	16	C18H22N3O+
299.108	1	C18H16FO3+
300.1145	10	C16H15FN3O2+
300.1506	5	C17H19FN3O+
301.1223	6	C16H16FN3O2+
312.1341	1	C17H18N3O3+
314.1302	12	C17H17FN3O2+
314.1665	102	C18H21FN3O+
316.1823	489	C18H23FN3O+
317.1846	2	C16H23N5O2+
322.1555	8	C19H20N3O2+
340.1656	4	C19H22N3O3+
342.1615	456	C19H21FN3O2+
360.172	554	C19H23FN3O3+
361.1744	2	C17H23N5O4+
