Mass spectrum: Hydrochlorothiazide; LC-ESI-ITFT; MS2; CE: 60%; R=15000; [M+H]+
Name: Hydrochlorothiazide
Name: 6-Chloro-3,4-dihydro-2H-1,2,4-benzothiadiazine-7-sulfonamide 1,1-dioxide
Name: 6-chloranyl-1,1-bis(oxidanylidene)-3,4-dihydro-2H-1$l^{6},2,4-benzothiadiazine-7-sulfonamide
Formula: C7H8ClN3O4S2
Exact mass: 296.9645
SMILES: NS(=O)(=O)C1=CC2=C(NCNS2(=O)=O)C=C1Cl
InChI: InChI=1S/C7H8ClN3O4S2/c8-4-1-5-7(2-6(4)16(9,12)13)17(14,15)11-3-10-5/h1-2,10-11H,3H2,(H2,9,12,13)
Instrument: LTQ Orbitrap XL Thermo Scientific
Instrument type: LC-ESI-ITFT
Ms type: MS2
Ion mode: POSITIVE
Ionization: ESI
Fragmentation mode: HCD
Collision energy: 60 % (nominal)
Resolution: 15000
Column name: XBridge C18 3.5um, 2.1x50mm, Waters
Retention time: 2.2 min
Base peak: 163.1326
Precursor m/z: 297.9718
Precursor type: [M+H]+
m/z	relative intensity	assigned
90.0338	70	C6H4N+
91.0181	15	C6H3O+
91.0417	22	C6H5N+
97.9793	26	C4HClN+
98.9997	45	C5H4Cl+
104.9561	36	C3H2ClS+
107.9903	305	C5H2NS+
108.9838	38	C6H2Cl+
111.9948	25	C5H3ClN+
113.9747	14	C4HClNO+
114.0105	33	C5H5ClN+
117.0448	190	C7H5N2+
118.0525	125	C7H6N2+
123.9949	102	C6H3ClN+
125.0026	136	C6H4ClN+
126.0105	53	C6H5ClN+
130.0058	21	C5H5ClNO+
131.9669	42	C7OS+
139.9898	999	C6H3ClNO+
141.9512	106	C5HClNS+
142.0055	130	C6H5ClNO+
142.959	295	C5H2ClNS+
143.9669	69	C5H3ClNS+
152.0134	45	C7H5ClN2+
152.9977	40	C7H4ClNO+
153.0213	37	C7H6ClN2+
155.9845	53	C6H3ClNO2+
157.0162	78	C6H6ClN2O+
158.0004	51	C6H5ClNO2+
169.0166	57	C7H6ClN2O+
169.9463	77	C6HClNOS+
170.9542	69	C6H2ClNOS+
171.962	175	C6H3ClNOS+
187.9566	38	C6H3ClNO2S+
188.9647	90	C6H4ClNO2S+
203.9516	535	C6H3ClNO3S+
204.9832	80	C6H6ClN2O2S+
205.9673	30	C6H5ClNO3S+
216.9832	59	C7H6ClN2O2S+
220.9781	58	C6H6ClN2O3S+
232.9784	210	C7H6ClN2O3S+
234.9941	26	C7H8ClN2O3S+
