Mass spectrum: Quinalphos; LC-ESI-QFT; MS2; CE: 90%; R=17500; [M+H]+
Name: Quinalphos
Name: diethoxy-quinoxalin-2-yloxy-sulfanylidene-lambda5-phosphane
Formula: C12H15N2O3PS
Exact mass: 298.0541
SMILES: CCOP(=S)(OCC)OC1=NC2=CC=CC=C2N=C1
InChI: InChI=1S/C12H15N2O3PS/c1-3-15-18(19,16-4-2)17-12-9-13-10-7-5-6-8-11(10)14-12/h5-9H,3-4H2,1-2H3
Instrument: Exploris 240 Orbitrap Thermo Scientific
Instrument type: LC-ESI-QFT
Ms type: MS2
Ion mode: POSITIVE
Ionization: ESI
Fragmentation mode: HCD
Collision energy: 90 % (nominal)
Resolution: 17500
Column name: XBridge C18 3.5um, 2.1x50mm, Waters
Retention time: 10.502 min
Base peak: 299.061
Precursor m/z: 299.0614
Precursor type: [M+H]+
m/z	relative intensity	assigned
64.9788	51	H2O2P+
65.0386	11	C5H5+
78.9402	63	OPS+
80.9737	29	H2O3P+
92.0494	81	C6H6N+
96.9508	999	H2O2PS+
102.0339	11	C7H4N+
109.0052	22	C2H6O3P+
110.9666	31	CH4O2PS+
114.9613	322	H4O3PS+
119.0604	902	C7H7N2+
129.0448	449	C8H5N2+
147.0553	541	C8H7N2O+
163.0326	257	C8H7N2S+
