Mass spectrum: 8-Hydroxy Mirtazapine; LC-ESI-QFT; MS2; CE: 90; R=35000; [M+H]+
Name: 8-Hydroxy Mirtazapine
Name: 2-Methyl-1,2,3,4,10,14b-hexahydropyrazino[2,1-a]pyrido[2,3-c][2]benzazepin-8-ol
Formula: C17H19N3O
Exact mass: 281.15281
SMILES: CN1CCN2C(C1)C3=CC=CC=C3CC4=CC(=CN=C42)O
InChI: InChI=1S/C17H19N3O/c1-19-6-7-20-16(11-19)15-5-3-2-4-12(15)8-13-9-14(21)10-18-17(13)20/h2-5,9-10,16,21H,6-8,11H2,1H3
Instrument: Q Exactive Plus Orbitrap Thermo Scientific
Instrument type: LC-ESI-QFT
Ms type: MS2
Ion mode: POSITIVE
Ionization: ESI
Fragmentation mode: HCD
Collision energy: 90 (nominal)
Resolution: 35000
Column name: XBridge C18 3.5um, 2.1x50mm, Waters
Retention time: 4.2 min
Base peak: 282.1591
Precursor m/z: 282.1601
Precursor type: [M+H]+
m/z	relative intensity	assigned
50.0151	1	C4H2+
51.0228	1	C4H3+
53.0385	61	C4H5+
54.0338	1	C3H4N+
55.0178	8	C3H3O+
56.0494	23	C3H6N+
57.0572	12	C3H7N+
58.0651	111	C3H8N+
63.0228	8	C5H3+
65.0384	7	C5H5+
66.0337	1	C4H4N+
67.0416	5	C4H5N+
67.0542	1	C5H7+
68.013	151	C3H2NO+
70.065	69	C4H8N+
72.0807	402	C4H10N+
77.0383	1	C6H5+
78.0337	19	C5H4N+
79.0178	3	C5H3O+
79.0415	1	C5H5N+
79.0542	5	C6H7+
80.0494	68	C5H6N+
81.0334	4	C5H5O+
82.0287	8	C4H4NO+
82.0525	8	C4H6N2+
82.0651	3	C5H8N+
83.0603	1	C4H7N2+
85.0759	4	C4H9N2+
89.0384	5	C7H5+
90.0337	1	C6H4N+
91.0541	75	C7H7+
92.0494	3	C6H6N+
94.0287	6	C5H4NO+
94.065	18	C6H8N+
95.0365	1	C5H5NO+
95.049	4	C6H7O+
95.0603	4	C5H7N2+
96.0443	12	C5H6NO+
98.0837	4	C5H10N2+
103.0541	27	C8H7+
104.0493	8	C7H6N+
104.0618	5	C8H8+
105.0446	40	C6H5N2+
105.0698	42	C8H9+
106.0286	4	C6H4NO+
106.0525	1	C6H6N2+
107.0366	1	C6H5NO+
107.0603	1	C6H7N2+
108.0443	32	C6H6NO+
109.0396	8	C5H5N2O+
110.0236	1	C5H4NO2+
110.0473	8	C5H6N2O+
111.0552	2	C5H7N2O+
112.0391	21	C5H6NO2+
115.0541	140	C9H7+
116.0494	125	C8H6N+
116.062	8	C9H8+
117.0571	18	C8H7N+
117.0697	27	C9H9+
118.065	7	C8H8N+
119.0603	12	C7H7N2+
120.0442	1	C7H6NO+
121.076	6	C7H9N2+
122.0598	5	C7H8NO+
123.0551	9	C6H7N2O+
124.0631	1	C6H8N2O+
126.0548	118	C6H8NO2+
127.054	1	C10H7+
128.0619	35	C10H8+
129.0697	62	C10H9+
130.065	46	C9H8N+
131.0603	4	C8H7N2+
131.0728	41	C9H9N+
132.0441	4	C8H6NO+
132.0807	12	C9H10N+
133.0395	13	C7H5N2O+
133.0884	8	C9H11N+
134.0473	13	C7H6N2O+
134.0599	4	C8H8NO+
135.0552	12	C7H7N2O+
137.0709	3	C7H9N2O+
139.0541	69	C11H7+
140.0493	13	C10H6N+
140.0618	1	C11H8+
141.0574	3	C10H7N+
141.0697	61	C11H9+
142.0649	20	C10H8N+
143.0728	15	C10H9N+
143.0852	4	C11H11+
144.0806	50	C10H10N+
145.0647	5	C10H9O+
145.0886	1	C10H11N+
146.0599	3	C9H8NO+
146.0962	5	C10H12N+
147.0551	31	C8H7N2O+
148.0629	3	C8H8N2O+
149.0709	13	C8H9N2O+
150.0546	1	C8H8NO2+
151.0499	29	C7H7N2O2+
152.062	13	C12H8+
153.0697	25	C12H9+
154.065	48	C11H8N+
155.0602	12	C10H7N2+
155.0727	16	C11H9N+
155.0854	3	C12H11+
156.0807	85	C11H10N+
157.0886	4	C11H11N+
158.0964	7	C11H12N+
160.0625	1	C9H8N2O+
161.0707	1	C9H9N2O+
165.0571	1	C12H7N+
165.0699	6	C13H9+
166.065	533	C12H8N+
167.0728	130	C12H9N+
168.0682	26	C11H8N2+
168.0805	29	C12H10N+
169.0649	9	C12H9O+
169.0758	45	C11H9N2+
170.0599	4	C11H8NO+
170.096	11	C12H12N+
171.0552	1	C10H7N2O+
171.0915	1	C11H11N2+
176.0818	1	C9H10N3O+
177.0575	1	C13H7N+
178.0652	8	C13H8N+
178.0778	4	C14H10+
179.0602	1	C12H7N2+
179.0729	3	C13H9N+
179.0849	1	C14H11+
180.0805	27	C13H10N+
181.0758	78	C12H9N2+
181.0887	3	C13H11N+
182.0601	14	C12H8NO+
182.0837	134	C12H10N2+
183.0678	83	C12H9NO+
183.0915	66	C12H11N2+
184.0628	4	C11H8N2O+
184.0755	57	C12H10NO+
185.0712	1	C11H9N2O+
190.0648	5	C14H8N+
191.0729	4	C14H9N+
192.0679	18	C13H8N2+
193.0759	27	C13H9N2+
194.06	15	C13H8NO+
194.0837	71	C13H10N2+
195.0677	107	C13H9NO+
195.0916	12	C13H11N2+
196.063	7	C12H8N2O+
196.0755	84	C13H10NO+
197.0709	10	C12H9N2O+
197.0833	11	C13H11NO+
197.1076	1	C13H13N2+
198.0913	16	C13H12NO+
204.0808	5	C15H10N+
205.0758	6	C14H9N2+
205.0884	1	C15H11N+
206.0835	6	C14H10N2+
206.0961	1	C15H12N+
207.0674	6	C14H9NO+
207.0916	11	C14H11N2+
208.0753	11	C14H10NO+
208.0995	4	C14H12N2+
209.0708	47	C13H9N2O+
209.0826	4	C14H11NO+
210.0786	999	C13H10N2O+
211.0864	799	C13H11N2O+
217.0755	1	C15H9N2+
218.0843	1	C15H10N2+
219.0682	1	C15H9NO+
219.0912	3	C15H11N2+
220.0755	4	C15H10NO+
221.0707	25	C14H9N2O+
221.107	1	C15H13N2+
222.0787	16	C14H10N2O+
222.0911	5	C15H12NO+
223.0864	50	C14H11N2O+
224.0942	11	C14H12N2O+
225.102	40	C14H13N2O+
232.0758	1	C16H10NO+
233.0835	5	C16H11NO+
234.0785	14	C15H10N2O+
234.0905	2	C16H12NO+
235.0864	88	C15H11N2O+
236.0932	7	C15H12N2O+
237.1022	9	C15H13N2O+
239.1182	3	C15H15N2O+
247.0857	1	C16H11N2O+
249.102	11	C16H13N2O+
250.0972	10	C15H12N3O+
251.1176	3	C16H15N2O+
264.1127	1	C16H14N3O+
280.1434	1	C17H18N3O+
