Mass spectrum: Fluconazole; LC-ESI-ITFT; MS2; CE: 45%; R=15000; [M+H]+
Name: Fluconazole
Name: 2-(2,4-difluorophenyl)-1,3-bis(1,2,4-triazol-1-yl)-2-propanol
Formula: C13H12F2N6O
Exact mass: 306.1041
SMILES: OC(CN1C=NC=N1)(CN2C=NC=N2)C3=C(F)C=C(F)C=C3
InChI: InChI=1S/C13H12F2N6O/c14-10-1-2-11(12(15)3-10)13(22,4-20-8-16-6-18-20)5-21-9-17-7-19-21/h1-3,6-9,22H,4-5H2
Instrument: LTQ Orbitrap XL Thermo Scientific
Instrument type: LC-ESI-ITFT
Ms type: MS2
Ion mode: POSITIVE
Ionization: ESI
Fragmentation mode: HCD
Collision energy: 45 % (nominal)
Resolution: 15000
Column name: XBridge C18 3.5um, 2.1x50mm, Waters
Retention time: 5.3 min
Base peak: 307.1126
Precursor m/z: 307.1113
Precursor type: [M+H]+
m/z	relative intensity	assigned
70.04	194	C2H4N3+
121.0447	16	C8H6F+
127.0354	87	C7H5F2+
139.0353	71	C8H5F2+
141.0147	12	C7H3F2O+
141.051	112	C8H7F2+
151.0353	48	C9H5F2+
166.0465	7	C9H6F2N+
169.046	756	C9H7F2O+
173.0507	10	C5H5F2N5+
193.057	13	C10H7F2N2+
200.0617	41	C6H6F2N6+
220.0681	999	C11H8F2N3+
238.0786	691	C11H10F2N3O+
289.1012	3	C13H11F2N6+
307.1123	12	C13H13F2N6O+
