Mass spectrum: Chloridazon; LC-ESI-ITFT; MS2; CE: 30%; R=7500; [M+H]+
Name: Chloridazon
Name: 5-amino-4-chloro-2-phenyl-3-pyridazinone
Formula: C10H8ClN3O
Exact mass: 221.0350
SMILES: ClC(=C(N)C=N1)C(=O)N1-c(ccc2)cc2
InChI: InChI=1S/C10H8ClN3O/c11-9-8(12)6-13-14(10(9)15)7-4-2-1-3-5-7/h1-6H,12H2
Instrument: LTQ Orbitrap XL Thermo Scientific
Instrument type: LC-ESI-ITFT
Ms type: MS2
Ion mode: POSITIVE
Ionization: ESI
Fragmentation mode: HCD
Collision energy: 30 % (nominal)
Resolution: 7500
Column name: XBridge C18 3.5um, 2.1x50mm, Waters
Retention time: 5.2 min
Base peak: 222.0432
Precursor m/z: 222.0429
Precursor type: [M+H]+
m/z	relative intensity	assigned
77.0383	1	C6H5+
104.0496	2	C7H6N+
222.0431	999	C10H9ClN3O+
