Mass spectrum: Ranitidine-S-oxide; LC-ESI-ITFT; MS2; CE: 75%; R=7500; [M+H]+
Name: Ranitidine-S-oxide
Name: 1,1-Ethenediamine, N-(2-(((5-((dimethylamino)methyl)-2-furanyl)methyl)sulfinyl)ethyl)-N'-methyl-2-nitro-
Formula: C13H22N4O4S
Exact mass: 330.1362
SMILES: [O-][N+](=O)\C=C(/NC)NCCS(=O)Cc1oc(cc1)CN(C)C
InChI: InChI=1S/C13H22N4O4S/c1-14-13(9-17(18)19)15-6-7-22(20)10-12-5-4-11(21-12)8-16(2)3/h4-5,9,14-15H,6-8,10H2,1-3H3/b13-9+
Instrument: LTQ Orbitrap XL Thermo Scientific
Instrument type: LC-ESI-ITFT
Ms type: MS2
Ion mode: POSITIVE
Ionization: ESI
Fragmentation mode: HCD
Collision energy: 75 % (nominal)
Resolution: 7500
Column name: XBridge C18 3.5um, 2.1x50mm, Waters
Retention time: 0.8 min
Base peak: 331.1445
Precursor m/z: 331.1435
Precursor type: [M+H]+
m/z	relative intensity	assigned
55.0416	11	C3H5N+
56.0495	25	C3H6N+
58.0652	195	C3H8N+
65.0387	7	C5H5+
66.0465	26	C5H6+
67.0543	52	C5H7+
68.0495	77	C4H6N+
79.0543	27	C6H7+
80.0498	7	C5H6N+
81.0334	13	C5H5O+
81.0574	27	C5H7N+
81.0699	60	C6H9+
82.0652	188	C5H8N+
83.0608	9	C4H7N2+
88.9928	12	C2H3NOS+
91.0546	14	C7H7+
93.0699	35	C7H9+
94.0414	711	C6H6O+
94.0653	96	C6H8N+
95.0492	81	C6H7O+
95.0731	151	C6H9N+
97.0761	99	C5H9N2+
98.0839	55	C5H10N2+
99.0553	18	C4H7N2O+
102.0374	9	C4H8NS+
108.0809	180	C7H10N+
110.0966	999	C7H12N+
123.0674	9	C7H9NO+
130.0561	18	C5H10N2S+
138.0916	51	C8H12NO+
