Mass spectrum: Oseltamivir; LC-ESI-ITFT; MS2; CE: 15%; R=15000; [M+H]+
Name: Oseltamivir
Name: (3R,4R,5S)-4-acetamido-5-amino-3-(1-ethylpropoxy)cyclohexene-1-carboxylic acid ethyl ester
Formula: C16H28N2O4
Exact mass: 312.2049
SMILES: CCC(CC)OC1C=C(CC(C1NC(=O)C)N)C(=O)OCC
InChI: InChI=1S/C16H28N2O4/c1-5-12(6-2)22-14-9-11(16(20)21-7-3)8-13(17)15(14)18-10(4)19/h9,12-15H,5-8,17H2,1-4H3,(H,18,19)/t13-,14+,15+/m0/s1
Instrument: LTQ Orbitrap XL Thermo Scientific
Instrument type: LC-ESI-ITFT
Ms type: MS2
Ion mode: POSITIVE
Ionization: ESI
Fragmentation mode: HCD
Collision energy: 15 % (nominal)
Resolution: 15000
Column name: XBridge C18 3.5um, 2.1x50mm, Waters
Retention time: 7.0 min
Base peak: 313.2132
Precursor m/z: 313.2122
Precursor type: [M+H]+
m/z	relative intensity	assigned
87.0551	3	C3H7N2O+
94.0653	11	C6H8N+
120.0443	28	C7H6NO+
136.0757	22	C8H10NO+
137.0707	10	C7H9N2O+
138.0549	5	C7H8NO2+
140.0706	6	C7H10NO2+
162.0551	18	C9H8NO2+
166.0864	614	C9H12NO2+
167.07	4	C9H11O3+
179.0815	29	C9H11N2O2+
180.0657	9	C9H10NO3+
208.097	582	C11H14NO3+
225.1236	999	C11H17N2O3+
226.1074	38	C11H16NO4+
243.134	162	C11H19N2O4+
296.1857	114	C16H26NO4+
313.2123	643	C16H29N2O4+
