Mass spectrum: Doxazosin; LC-ESI-QFT; MS2; CE: 30; R=35000; [M-H]-
Name: Doxazosin
Name: [4-(4-amino-6,7-dimethoxyquinazolin-2-yl)piperazin-1-yl]-(2,3-dihydro-1,4-benzodioxin-3-yl)methanone
Formula: C23H25N5O5
Exact mass: 451.18557
SMILES: COC1=C(C=C2C(=C1)C(=NC(=N2)N3CCN(CC3)C(=O)C4COC5=CC=CC=C5O4)N)OC
InChI: InChI=1S/C23H25N5O5/c1-30-18-11-14-15(12-19(18)31-2)25-23(26-21(14)24)28-9-7-27(8-10-28)22(29)20-13-32-16-5-3-4-6-17(16)33-20/h3-6,11-12,20H,7-10,13H2,1-2H3,(H2,24,25,26)
Instrument: Q Exactive Orbitrap Thermo Scientific
Instrument type: LC-ESI-QFT
Ms type: MS2
Ion mode: NEGATIVE
Ionization: ESI
Fragmentation mode: HCD
Collision energy: 30 (nominal)
Resolution: 35000
Column name: XBridge C18 3.5um, 2.1x50mm, Waters
Retention time: 7.2 min
Base peak: 496.1842
Precursor m/z: 450.1783
Precursor type: [M-H]-
m/z	relative intensity	assigned
59.0138	27	C2H3O2-
65.9984	1	C3NO-
67.0301	14	C3H3N2-
68.0142	2	C3H2NO-
85.0295	13	C4H5O2-
92.0508	5	C6H6N-
106.0426	3	C7H6O-
107.0379	1	C6H5NO-
108.0455	392	C6H6NO-
109.0295	560	C6H5O2-
110.0723	12	C5H8N3-
112.0403	2	C5H6NO2-
118.0299	253	C7H4NO-
120.0455	57	C7H6NO-
121.0295	9	C7H5O2-
122.0612	1	C7H8NO-
132.0454	1	C8H6NO-
133.0295	3	C8H5O2-
134.0248	42	C7H4NO2-
134.0611	199	C8H8NO-
135.0452	213	C8H7O2-
144.0197	1	C7H2N3O-
147.0198	1	C7H3N2O2-
148.0404	98	C8H6NO2-
148.0767	6	C9H10NO-
149.0244	2	C8H5O3-
150.056	291	C8H8NO2-
160.0404	21	C9H6NO2-
160.0768	28	C10H10NO-
162.0433	16	C8H6N2O2-
172.015	5	C8H2N3O2-
176.0717	9	C10H10NO2-
177.0672	15	C9H9N2O2-
177.1033	42	C10H13N2O-
178.0509	999	C9H8NO3-
187.0388	120	C9H5N3O2-
189.042	1	C8H5N4O2-
192.0666	38	C10H10NO3-
202.0622	283	C10H8N3O2-
202.0987	23	C11H12N3O-
203.0697	14	C10H9N3O2-
204.0653	87	C9H8N4O2-
205.0493	11	C9H7N3O3-
214.0497	7	C10H6N4O2-
215.0575	38	C10H7N4O2-
216.0652	8	C10H8N4O2-
216.0773	2	C11H10N3O2-
217.0735	19	C10H9N4O2-
218.0934	16	C11H12N3O2-
219.0887	161	C10H11N4O2-
219.1134	23	C12H15N2O2-
228.0656	12	C11H8N4O2-
229.0732	71	C11H9N4O2-
229.0855	8	C12H11N3O2-
230.0809	352	C11H10N4O2-
231.0887	88	C11H11N4O2-
241.0736	13	C12H9N4O2-
242.0812	21	C12H10N4O2-
243.0886	22	C12H11N4O2-
244.0966	53	C12H12N4O2-
244.1092	18	C13H14N3O2-
245.1043	380	C12H13N4O2-
246.0756	7	C11H10N4O3-
247.1086	31	C13H15N2O3-
256.0965	72	C13H12N4O2-
257.092	3	C12H11N5O2-
257.1043	44	C13H13N4O2-
258.0995	52	C12H12N5O2-
271.0844	5	C13H11N4O3-
271.1201	55	C14H15N4O2-
272.1154	113	C13H14N5O2-
273.1232	353	C13H15N5O2-
288.1465	735	C14H18N5O2-
289.0943	1	C13H13N4O4-
295.0963	3	C16H13N3O3-
296.0906	1	C15H12N4O3-
300.1099	12	C14H14N5O3-
310.1202	15	C17H16N3O3-
311.1152	33	C16H15N4O3-
315.1094	2	C15H15N4O4-
325.1177	1	C16H15N5O3-
337.1312	6	C18H17N4O3-
340.1415	13	C17H18N5O3-
365.1493	12	C19H19N5O3-
379.1779	34	C21H23N4O3-
380.1728	446	C20H22N5O3-
392.1369	23	C20H18N5O4-
420.1314	156	C21H18N5O5-
422.1847	1	C22H24N5O4-
434.1472	2	C22H20N5O5-
435.1549	262	C22H21N5O5-
438.1409	1	C21H20N5O6-
450.1784	255	C23H24N5O5-
