Mass spectrum: Diaveridine; LC-ESI-QFT; MS2; CE: 180; R=35000; [M+H]+
Name: Diaveridine
Name: 5-[(3,4-dimethoxyphenyl)methyl]pyrimidine-2,4-diamine
Formula: C13H16N4O2
Exact mass: 260.12733
SMILES: COC1=C(C=C(C=C1)CC2=CN=C(N=C2N)N)OC
InChI: InChI=1S/C13H16N4O2/c1-18-10-4-3-8(6-11(10)19-2)5-9-7-16-13(15)17-12(9)14/h3-4,6-7H,5H2,1-2H3,(H4,14,15,16,17)
Instrument: Q Exactive Plus Orbitrap Thermo Scientific
Instrument type: LC-ESI-QFT
Ms type: MS2
Ion mode: POSITIVE
Ionization: ESI
Fragmentation mode: HCD
Collision energy: 180 (nominal)
Resolution: 35000
Column name: XBridge C18 3.5um, 2.1x50mm, Waters
Retention time: 3.4 min
Base peak: 261.1339
Precursor m/z: 261.1346
Precursor type: [M+H]+
m/z	relative intensity	assigned
50.0151	158	C4H2+
51.023	235	C4H3+
52.0182	252	C3H2N+
53.0134	25	C2HN2+
53.0386	194	C4H5+
54.0339	999	C3H4N+
55.0179	48	C3H3O+
55.0291	30	C2H3N2+
55.0416	54	C3H5N+
56.0369	25	C2H4N2+
56.0495	2	C3H6N+
61.0072	4	C5H+
62.0151	29	C5H2+
63.0229	228	C5H3+
64.0182	25	C4H2N+
64.0307	12	C5H4+
65.0022	10	
65.0386	191	C5H5+
66.0212	19	C3H2N2+
66.0338	10	C4H4N+
66.0464	17	C5H6+
67.0291	50	C3H3N2+
67.0416	23	C4H5N+
67.0542	12	C5H7+
68.0242	37	C2H2N3+
68.0369	90	C3H4N2+
69.0322	2	C2H3N3+
69.0447	49	C3H5N2+
70.04	16	C2H4N3+
70.0525	2	C3H6N2+
74.015	19	
75.0229	188	C6H3+
76.0181	25	
76.0307	26	C6H4+
77.0385	384	C6H5+
78.0338	42	C5H4N+
78.0464	61	C6H6+
79.029	134	C4H3N2+
79.0416	13	
79.0542	101	C6H7+
80.0369	18	C4H4N2+
80.0494	31	C5H6N+
81.0335	36	
81.0447	463	C4H5N2+
82.04	18	C3H4N3+
82.0525	11	C4H6N2+
83.0477	42	C3H5N3+
87.023	22	C7H3+
88.0183	18	C6H2N+
88.0307	11	C7H4+
89.0386	489	C7H5+
90.0339	60	C6H4N+
90.0464	41	C7H6+
91.0417	32	C6H5N+
91.0542	180	C7H7+
92.0495	23	C6H6N+
93.0448	12	C5H5N2+
93.0574	14	C6H7N+
95.0491	515	C6H7O+
96.0443	27	C5H6NO+
96.0556	46	C4H6N3+
97.0636	4	C4H7N3+
98.0348	2	C3H4N3O+
100.0181	15	
101.0386	34	C8H5+
102.0338	35	C7H4N+
102.0464	90	C8H6+
103.0417	20	
103.0542	170	C8H7+
104.0494	88	C7H6N+
105.0335	100	C7H5O+
105.0447	435	C6H5N2+
106.0398	26	C5H4N3+
106.0526	9	C6H6N2+
106.0651	18	C7H8N+
107.0492	98	C7H7O+
108.0558	2	C5H6N3+
109.0509	59	C4H5N4+
110.0587	7	C4H6N4+
111.0664	2	C4H7N4+
113.0386	62	C9H5+
114.0338	67	C8H4N+
114.0463	7	C9H6+
115.0417	26	C8H5N+
115.0542	30	C9H7+
116.0495	115	C8H6N+
117.0447	20	C7H5N2+
117.0573	71	C8H7N+
118.04	3	C6H4N3+
118.0525	27	C7H6N2+
118.0651	26	C8H8N+
119.0491	27	C8H7O+
119.0604	12	C7H7N2+
120.0444	12	C7H6NO+
120.0556	12	C6H6N3+
121.0396	11	C6H5N2O+
123.0665	33	C5H7N4+
124.0743	9	C5H8N4+
126.0339	10	C9H4N+
127.0417	39	C9H5N+
128.0494	85	C9H6N+
129.0447	143	C8H5N2+
129.0573	8	C9H7N+
130.0401	40	C7H4N3+
130.0526	3	C8H6N2+
130.0651	42	C9H8N+
131.0493	24	C9H7O+
131.0604	34	C8H7N2+
132.0442	8	C8H6NO+
132.0563	4	C9H8O+
132.0679	3	C8H8N2+
133.0285	9	C8H5O2+
133.052	4	C8H7NO+
134.0599	15	C8H8NO+
135.044	7	C8H7O2+
135.0552	7	C7H7N2O+
135.0667	2	C6H7N4+
136.0506	11	C6H6N3O+
140.0496	28	C10H6N+
141.0445	13	C9H5N2+
142.0526	40	C9H6N2+
143.0604	24	C9H7N2+
144.0443	4	C9H6NO+
144.0556	17	C8H6N3+
145.0759	1	C9H9N2+
146.0601	27	C9H8NO+
147.0665	16	C7H7N4+
148.0744	2	C7H8N4+
151.039	24	C8H7O3+
153.0447	15	C10H5N2+
154.0398	14	C9H4N3+
154.0525	2	C10H6N2+
155.0473	2	C9H5N3+
155.0606	14	C10H7N2+
156.0444	13	C10H6NO+
156.0556	4	C9H6N3+
157.0637	2	C9H7N3+
158.071	2	C9H8N3+
159.0553	2	C9H7N2O+
159.0663	1	C8H7N4+
161.0822	9	C8H9N4+
168.0558	2	C10H6N3+
170.0711	4	C10H8N3+
171.0555	4	C10H7N2O+
171.0664	3	C9H7N4+
172.0741	3	C9H8N4+
173.0822	7	C9H9N4+
182.0721	1	C11H8N3+
184.0747	2	C10H8N4+
185.0823	11	C10H9N4+
186.0662	2	C10H8N3O+
