Mass spectrum: Morphine; LC-ESI-ITFT; MS2; CE: 75%; R=7500; [M+H]+
Name: Morphine
Name: (4R,4aR,7S,7aR,12bS)-3-methyl-2,4,4a,7,7a,13-hexahydro-1H-4,12-methanobenzofuro[3,2-e]isoquinoline-7,9-diol
Formula: C17H19NO3
Exact mass: 285.1364935
SMILES: CN1CC[C@]23[C@@H]4[C@H]1CC5=C2C(=C(C=C5)O)O[C@H]3[C@H](C=C4)O
InChI: InChI=1S/C17H19NO3/c1-18-7-6-17-10-3-5-13(20)16(17)21-15-12(19)4-2-9(14(15)17)8-11(10)18/h2-5,10-11,13,16,19-20H,6-8H2,1H3/t10-,11+,13-,16-,17-/m0/s1
Instrument: LTQ Orbitrap XL Thermo Scientific
Instrument type: LC-ESI-ITFT
Ms type: MS2
Ion mode: POSITIVE
Ionization: ESI
Fragmentation mode: HCD
Collision energy: 75 % (nominal)
Resolution: 7500
Column name: XBridge C18 3.5um, 2.1x50mm, Waters
Retention time: 1.1 min
Base peak: 286.1448
Precursor m/z: 286.1438
Precursor type: [M+H]+
m/z	relative intensity	assigned
55.018	41	C3H3O+
58.0652	224	C3H8N+
91.0543	81	C7H7+
105.0702	27	C8H9+
107.0491	50	C7H7O+
115.0542	79	C9H7+
117.0694	94	C9H9+
121.0648	46	C8H9O+
123.0441	197	C7H7O2+
128.0618	55	C10H8+
129.0699	117	C10H9+
131.0491	47	C9H7O+
131.0857	34	C10H11+
141.0701	134	C11H9+
143.0488	33	C10H7O+
143.0858	32	C11H11+
145.0647	313	C10H9O+
147.044	357	C9H7O2+
152.0615	68	C12H8+
153.0699	806	C12H9+
155.0603	95	C10H7N2+
155.0856	755	C12H11+
157.0648	755	C11H9O+
159.0808	39	C11H11O+
160.0515	102	C10H8O2+
161.0599	87	C10H9O2+
162.0908	35	C10H12NO+
165.0699	850	C13H9+
166.078	119	C13H10+
167.0863	42	C13H11+
168.0569	81	C12H8O+
169.0648	65	C12H9O+
171.0446	145	C11H7O2+
171.0805	163	C12H11O+
173.0598	309	C11H9O2+
173.0965	123	C12H13O+
178.0785	53	C14H10+
179.0855	74	C14H11+
181.0648	999	C13H9O+
182.0724	59	C13H10O+
183.0806	616	C13H11O+
184.0518	164	C12H8O2+
185.0598	795	C12H9O2+
186.0677	110	C12H10O2+
187.0752	67	C12H11O2+
190.0778	93	C15H10+
191.0855	288	C15H11+
193.065	135	C14H9O+
193.1014	45	C15H13+
194.073	117	C14H10O+
195.0805	36	C14H11O+
197.0594	47	C13H9O2+
198.0674	139	C13H10O2+
199.0756	231	C13H11O2+
201.0912	673	C13H13O2+
209.0599	436	C14H9O2+
209.0966	92	C15H13O+
211.0752	424	C14H11O2+
219.0801	61	C16H11O+
222.0674	41	C15H10O2+
227.0702	297	C14H11O3+
229.0865	190	C14H13O3+
252.1018	39	C16H14NO2+
268.1328	53	C17H18NO2+
286.1434	489	C17H20NO3+
