Mass spectrum: 2,6-Di-tert-butylpyridine; LC-ESI-QFT; MS2; CE: 75; R=35000; [M+H]+
Name: 2,6-Di-tert-butylpyridine
Name: 2,6-ditert-butylpyridine
Name: 2,6-Bis(2-methyl-2-propanyl)pyridine
Formula: C13H21N
Exact mass: 191.16740
SMILES: CC(C)(C)C1=NC(=CC=C1)C(C)(C)C
InChI: InChI=1S/C13H21N/c1-12(2,3)10-8-7-9-11(14-10)13(4,5)6/h7-9H,1-6H3
Instrument: Q Exactive Plus Orbitrap Thermo Scientific
Instrument type: LC-ESI-QFT
Ms type: MS2
Ion mode: POSITIVE
Ionization: ESI
Fragmentation mode: HCD
Collision energy: 75 (nominal)
Resolution: 35000
Column name: XBridge C18 3.5um, 2.1x50mm, Waters
Retention time: 5.5 min
Base peak: 164.9844
Precursor m/z: 192.1747
Precursor type: [M+H]+
m/z	relative intensity	assigned
55.0178	2	C3H3O+
55.0542	28	C4H7+
57.0698	2	C4H9+
59.0491	3	C3H7O+
69.0698	14	C5H9+
79.0542	3	C6H7+
82.0651	3	C5H8N+
83.0855	20	C6H11+
91.0542	4	C7H7+
93.0574	1	C6H7N+
93.07	2	C7H9+
105.0699	17	C8H9+
106.0651	4	C7H8N+
107.0729	7	C7H9N+
108.0808	1	C7H10N+
109.0647	2	C7H9O+
110.0599	2	C6H8NO+
114.0914	1	C6H12NO+
119.0491	3	C8H7O+
120.0807	2	C8H10N+
121.0886	130	C8H11N+
122.06	14	C7H8NO+
123.0679	3	C7H9NO+
132.0803	4	C9H10N+
133.0648	2	C9H9O+
133.0887	6	C9H11N+
134.0962	5	C9H12N+
135.1042	9	C9H13N+
136.1121	5	C9H14N+
146.096	10	C10H12N+
147.1043	18	C10H13N+
148.1121	197	C10H14N+
149.1199	141	C10H15N+
150.0914	16	C9H12NO+
162.1277	999	C11H16N+
163.1355	504	C11H17N+
164.1433	3	C11H18N+
176.1434	586	C12H18N+
177.1512	806	C12H19N+
192.1747	655	C13H22N+
