Mass spectrum: 4-chloro-N,N-dimethylaniline; LC-ESI-QFT; MS2; CE: 90; R=35000; [M+H]+
Name: 4-chloro-N,N-dimethylaniline
Name: 4-Chloro-N,N-dimethylaniline
Formula: C8H10ClN
Exact mass: 155.05018
SMILES: CN(C)c1ccc(cc1)Cl
InChI: InChI=1S/C8H10ClN/c1-10(2)8-5-3-7(9)4-6-8/h3-6H,1-2H3
Instrument: Q Exactive Plus Orbitrap Thermo Scientific
Instrument type: LC-ESI-QFT
Ms type: MS2
Ion mode: POSITIVE
Ionization: ESI
Fragmentation mode: HCD
Collision energy: 90 (nominal)
Resolution: 35000
Column name: XBridge C18 3.5um, 2.1x50mm, Waters
Retention time: 7.1 min
Base peak: 156.0573
Precursor m/z: 156.0575
Precursor type: [M+H]+
m/z	relative intensity	assigned
75.0226	1	C6H3+
77.0383	2	C6H5+
79.0541	1	C6H7+
95.049	1	C6H7O+
98.9994	1	C5H4Cl+
104.0493	5	C7H6N+
105.0447	1	C6H5N2+
105.0572	9	C7H7N+
106.065	23	C7H8N+
110.9994	1	C6H4Cl+
112.0073	7	C6H5Cl+
113.015	2	C6H6Cl+
120.0806	9	C8H10N+
121.0884	8	C8H11N+
126.0104	5	C6H5ClN+
139.0057	1	C6H4ClN2+
140.026	999	C7H7ClN+
141.0338	849	C7H8ClN+
156.0573	7	C8H11ClN+
