Mass spectrum: Epinephrine; LC-ESI-QFT; MS2; CE: 75; R=35000; [M+H]+
Name: Epinephrine
Name: 4-[(1R)-1-hydroxy-2-(methylamino)ethyl]benzene-1,2-diol
Formula: C9H13NO3
Exact mass: 183.08954
SMILES: CNC[C@@H](C1=CC(=C(C=C1)O)O)O
InChI: InChI=1S/C9H13NO3/c1-10-5-9(13)6-2-3-7(11)8(12)4-6/h2-4,9-13H,5H2,1H3/t9-/m0/s1
Instrument: Q Exactive Orbitrap Thermo Scientific
Instrument type: LC-ESI-QFT
Ms type: MS2
Ion mode: POSITIVE
Ionization: ESI
Fragmentation mode: HCD
Collision energy: 75 (nominal)
Resolution: 35000
Column name: XBridge C18 3.5um, 2.1x50mm, Waters
Retention time: 0.8 min
Base peak: 166.0863
Precursor m/z: 184.0968
Precursor type: [M+H]+
m/z	relative intensity	assigned
50.0151	1	C4H2+
56.0496	24	C3H6N+
57.0574	175	C3H7N+
58.0652	86	C3H8N+
63.0229	1	C5H3+
65.0386	12	C5H5+
67.0417	7	C4H5N+
67.0543	6	C5H7+
68.0495	12	C4H6N+
70.0288	7	C3H4NO+
72.0443	1	C3H6NO+
77.0386	41	C6H5+
78.0464	21	C6H6+
79.0542	279	C6H7+
80.0495	65	C5H6N+
81.0335	87	C5H5O+
81.0699	6	C6H9+
82.0651	1	C5H8N+
89.0387	15	C7H5+
91.0542	194	C7H7+
92.0259	1	C6H4O+
92.0495	2	C6H6N+
93.0572	5	C6H7N+
93.0699	24	C7H9+
94.0288	10	C5H4NO+
94.0651	34	C6H8N+
95.0491	114	C6H7O+
95.0729	18	C6H9N+
96.0443	2	C5H6NO+
96.0809	1	C6H10N+
97.0649	6	C6H9O+
103.0543	42	C8H7+
104.0495	15	C7H6N+
105.0336	15	C7H5O+
105.0448	46	C6H5N2+
105.0573	48	C7H7N+
106.0414	21	C7H6O+
106.0653	11	C7H8N+
107.0492	999	C7H7O+
108.0444	21	C6H6NO+
108.0569	1	C7H8O+
109.0284	104	C6H5O2+
109.0648	6	C7H9O+
110.0363	38	C6H6O2+
110.06	5	C6H8NO+
111.0439	1	C6H7O2+
117.0335	5	C8H5O+
118.0652	17	C8H8N+
119.0492	50	C8H7O+
119.0729	6	C8H9N+
120.0808	330	C8H10N+
121.0648	15	C8H9O+
122.0601	28	C7H8NO+
123.0441	402	C7H7O2+
123.0678	36	C7H9NO+
124.0519	43	C7H8O2+
125.0598	11	C7H9O2+
130.0653	15	C9H8N+
131.0492	15	C9H7O+
131.0729	8	C9H9N+
132.0445	18	C8H6NO+
132.0807	2	C9H10N+
133.0522	133	C8H7NO+
134.0364	23	C8H6O2+
134.0601	77	C8H8NO+
135.044	89	C8H7O2+
136.0393	9	C7H6NO2+
136.052	5	C8H8O2+
137.0597	34	C8H9O2+
138.0912	4	C8H12NO+
146.0601	39	C9H8NO+
147.0677	9	C9H9NO+
148.0758	213	C9H10NO+
149.0836	37	C9H11NO+
150.055	43	C8H8NO2+
151.0628	413	C8H9NO2+
165.0784	10	C9H11NO2+
166.0864	69	C9H12NO2+
