Mass spectrum: Thifensulfuron-methyl; LC-ESI-ITFT; MS2; CE: 60%; R=15000; [M+H]+
Name: Thifensulfuron-methyl
Name: 3-[(4-methoxy-6-methyl-s-triazin-2-yl)carbamoylsulfamoyl]thiophene-2-carboxylic acid methyl ester
Formula: C12H13N5O6S2
Exact mass: 387.0307
SMILES: COC(=O)C1=C(C=CS1)S(=O)(=O)NC(=O)NC1=NC(C)=NC(OC)=N1
InChI: InChI=1S/C12H13N5O6S2/c1-6-13-10(16-12(14-6)23-3)15-11(19)17-25(20,21)7-4-5-24-8(7)9(18)22-2/h4-5H,1-3H3,(H2,13,14,15,16,17,19)
Instrument: LTQ Orbitrap XL Thermo Scientific
Instrument type: LC-ESI-ITFT
Ms type: MS2
Ion mode: POSITIVE
Ionization: ESI
Fragmentation mode: HCD
Collision energy: 60 % (nominal)
Resolution: 15000
Column name: XBridge C18 3.5um, 2.1x50mm, Waters
Retention time: 7.2 min
Base peak: 388.0375
Precursor m/z: 388.038
Precursor type: [M+H]+
m/z	relative intensity	assigned
69.0083	21	C2HN2O+
69.9869	2	C3H2S+
73.0103	1	C3H5S+
78.9848	27	CH3O2S+
83.0239	87	C3H3N2O+
85.0107	6	C4H5S+
85.0397	7	C3H5N2O+
86.9898	3	C3H3OS+
97.982	14	C4H2OS+
100.0505	16	C3H6N3O+
113.0056	3	C5H5OS+
125.977	228	C5H2O2S+
126.9845	4	C5H3O2S+
141.0005	118	C6H5O2S+
141.0771	293	C5H9N4O+
143.9875	8	C5H4O3S+
151.9799	2	C6H2NO2S+
167.0563	999	C6H7N4O2+
171.952	3	C5H2NO2S2+
174.9517	72	C5H3O3S2+
189.9627	29	C5H4NO3S2+
204.9623	488	C6H5O4S2+
215.9417	26	C6H2NO4S2+
222.9728	4	C6H7O5S2+
