Mass spectrum: Betamethasone; LC-ESI-QFT; MS2; CE: 15; R=35000; [M+H]+
Name: Betamethasone
Name: (8S,9R,10S,11S,13S,14S,16S,17R)-9-fluoro-11,17-dihydroxy-17-(2-hydroxyacetyl)-10,13,16-trimethyl-6,7,8,11,12,14,15,16-octahydrocyclopenta[a]phenanthren-3-one
Formula: C22H29FO5
Exact mass: 392.19990
SMILES: O=C(CO)[C@]3(O)[C@]2(C[C@H](O)[C@]4(F)[C@@]/1(\C(=C/C(=O)\C=C\1)CC[C@H]4[C@@H]2C[C@@H]3C)C)C
InChI: InChI=1S/C22H29FO5/c1-12-8-16-15-5-4-13-9-14(25)6-7-19(13,2)21(15,23)17(26)10-20(16,3)22(12,28)18(27)11-24/h6-7,9,12,15-17,24,26,28H,4-5,8,10-11H2,1-3H3/t12-,15-,16-,17-,19-,20-,21-,22-/m0/s1
Instrument: Q Exactive Orbitrap Thermo Scientific
Instrument type: LC-ESI-QFT
Ms type: MS2
Ion mode: POSITIVE
Ionization: ESI
Fragmentation mode: HCD
Collision energy: 15 (nominal)
Resolution: 35000
Column name: XBridge C18 3.5um, 2.1x50mm, Waters
Retention time: 9.2 min
Base peak: 393.207
Precursor m/z: 393.2072
Precursor type: [M+H]+
m/z	relative intensity	assigned
77.0233	1	C2H5O3+
91.0065	5	C2H2FNO2+
95.049	10	C6H7O+
95.0853	9	C7H11+
97.0647	5	C6H9O+
107.0854	17	C8H11+
109.0648	4	C7H9O+
109.1011	10	C8H13+
111.0804	3	C7H11O+
113.0596	1	C6H9O2+
115.0753	17	C6H11O2+
119.0854	7	C9H11+
121.0646	9	C8H9O+
121.1011	7	C9H13+
123.0803	15	C8H11O+
123.1166	1	C9H15+
125.0598	8	C7H9O2+
125.096	5	C8H13O+
131.0856	5	C10H11+
133.0645	1	C9H9O+
133.101	6	C10H13+
135.0802	26	C9H11O+
137.0596	2	C8H9O2+
137.0959	16	C9H13O+
139.0754	1	C8H11O2+
145.0646	1	C10H9O+
145.1008	1	C11H13+
147.0803	99	C10H11O+
149.096	21	C10H13O+
151.0753	4	C9H11O2+
151.1115	5	C10H15O+
153.0908	50	C9H13O2+
155.0701	6	C8H11O3+
159.0803	14	C11H11O+
161.0959	30	C11H13O+
163.0749	3	C10H11O2+
165.0908	7	C10H13O2+
167.1065	20	C10H15O2+
169.0646	4	C12H9O+
169.0857	10	C9H13O3+
171.0801	48	C12H11O+
173.0958	43	C12H13O+
175.1116	4	C12H15O+
177.0907	32	C11H13O2+
179.1064	4	C11H15O2+
183.0802	1	C13H11O+
185.0959	42	C13H13O+
187.0751	22	C12H11O2+
187.1114	12	C13H15O+
189.0909	3	C12H13O2+
191.1066	2	C12H15O2+
193.0855	1	C11H13O3+
195.1012	21	C11H15O3+
197.0956	18	C14H13O+
199.1112	21	C14H15O+
201.0904	2	C13H13O2+
201.1269	2	C14H17O+
203.1064	14	C13H15O2+
209.0957	3	C15H13O+
211.1115	28	C15H15O+
213.0904	4	C14H13O2+
213.1113	1	C11H17O4+
213.127	19	C15H17O+
215.1064	53	C14H15O2+
221.0957	9	C16H13O+
223.1115	16	C16H15O+
225.1271	22	C16H17O+
227.106	2	C15H15O2+
227.1427	6	C16H19O+
235.1116	21	C17H15O+
237.1271	78	C17H17O+
239.1063	10	C16H15O2+
239.1427	21	C17H19O+
241.1219	7	C16H17O2+
241.1581	4	C17H21O+
249.0933	1	C14H14FO3+
249.1272	6	C18H17O+
251.1428	7	C18H19O+
253.1219	21	C17H17O2+
253.1584	17	C18H21O+
255.1375	15	C17H19O2+
257.1329	1	C20H17+
261.1265	9	C19H17O+
262.1347	1	C19H18O+
263.1427	24	C19H19O+
265.1223	2	C18H17O2+
265.1582	8	C19H21O+
267.1377	20	C18H19O2+
267.1742	9	C19H23O+
269.1899	10	C19H25O+
273.1264	1	C20H17O+
275.1428	34	C20H19O+
277.1218	4	C19H17O2+
277.1584	72	C20H21O+
278.1663	11	C20H22O+
279.174	286	C20H23O+
281.1534	6	C19H21O2+
281.1892	13	C20H25O+
283.1683	1	C19H23O2+
289.1584	27	C21H21O+
291.1741	106	C21H23O+
293.153	11	C20H21O2+
295.1333	12	C19H19O3+
295.1688	68	C20H23O2+
296.1773	1	C20H24O2+
297.1658	3	C20H22FO+
297.1845	47	C20H25O2+
301.1584	54	C22H21O+
307.1689	62	C21H23O2+
309.1845	147	C21H25O2+
311.1637	106	C20H23O3+
319.169	218	C22H23O2+
325.1794	65	C21H25O3+
327.1758	3	C21H24FO2+
327.1949	44	C21H27O3+
337.1795	380	C22H25O3+
339.1752	5	C22H24FO2+
343.1903	7	C21H27O4+
355.1901	999	C22H27O4+
357.1854	6	C22H26FO3+
373.2007	874	C22H29O5+
375.1968	8	C22H28FO4+
393.2069	137	C22H30FO5+
