Mass spectrum: Trinexapac-ethyl; LC-ESI-ITFT; MS2; CE: 75%; R=15000; [M+H]+
Name: Trinexapac-ethyl
Name: 4-[cyclopropyl(hydroxy)methylene]-3,5-diketo-cyclohexanecarboxylic acid ethyl ester
Formula: C13H16O5
Exact mass: 252.0992
SMILES: CCOC(=O)C1CC(=O)C(=C(C2CC2)O)C(=O)C1
InChI: InChI=1S/C13H16O5/c1-2-18-13(17)8-5-9(14)11(10(15)6-8)12(16)7-3-4-7/h7-8,16H,2-6H2,1H3/b12-11-
Instrument: LTQ Orbitrap XL Thermo Scientific
Instrument type: LC-ESI-ITFT
Ms type: MS2
Ion mode: POSITIVE
Ionization: ESI
Fragmentation mode: HCD
Collision energy: 75 % (nominal)
Resolution: 15000
Column name: XBridge C18 3.5um, 2.1x50mm, Waters
Retention time: 8.9 min
Base peak: 253.1073
Precursor m/z: 253.1071
Precursor type: [M+H]+
m/z	relative intensity	assigned
65.0387	12	C5H5+
68.9971	288	C3HO2+
69.0335	999	C4H5O+
71.0127	19	C3H3O2+
81.0336	47	C5H5O+
83.049	34	C5H7O+
85.0284	104	C4H5O2+
95.0127	53	C5H3O2+
97.0285	14	C5H5O2+
99.0077	29	C4H3O3+
105.0697	16	C8H9+
107.0491	11	C7H7O+
109.0285	40	C6H5O2+
111.044	224	C6H7O2+
113.0234	32	C5H5O3+
123.0076	109	C6H3O3+
123.0441	19	C7H7O2+
133.0649	14	C9H9O+
137.0232	205	C7H5O3+
137.0597	20	C8H9O2+
139.039	95	C7H7O3+
151.0758	16	C9H11O2+
155.034	36	C7H7O4+
165.0182	55	C8H5O4+
179.07	23	C10H11O3+
