Mass spectrum: Sulfotep; LC-ESI-QFT; MS2; CE: 45%; R=17500; [M+H]+
Name: Sulfotep
Name: diethoxyphosphinothioyloxy-diethoxy-sulfanylidene-lambda5-phosphane
Formula: C8H20O5P2S2
Exact mass: 322.0227
SMILES: CCOP(=S)(OCC)OP(=S)(OCC)OCC
InChI: InChI=1S/C8H20O5P2S2/c1-5-9-14(16,10-6-2)13-15(17,11-7-3)12-8-4/h5-8H2,1-4H3
Instrument: Exploris 240 Orbitrap Thermo Scientific
Instrument type: LC-ESI-QFT
Ms type: MS2
Ion mode: POSITIVE
Ionization: ESI
Fragmentation mode: HCD
Collision energy: 45 % (nominal)
Resolution: 17500
Column name: XBridge C18 3.5um, 2.1x50mm, Waters
Retention time: 10.996 min
Base peak: 284.0713
Precursor m/z: 323.03
Precursor type: [M+H]+
m/z	relative intensity	assigned
96.9508	781	H2O2PS+
98.9842	33	H4O4P+
110.9662	30	CH4O2PS+
114.9614	999	H4O3PS+
124.9821	212	C2H6O2PS+
127.0157	13	C2H8O4P+
128.9767	32	CH6O3PS+
142.9927	601	C2H8O3PS+
153.0133	25	C4H10O2PS+
171.0239	185	C4H12O3PS+
192.8939	45	H3O4P2S2+
210.9051	18	H5O5P2S2+
220.9255	8	C2H7O4P2S2+
