Mass spectrum: 4-Trifluoromethylphenol; LC-ESI-ITFT; MS2; CE: 30%; R=7500; [M-H]-
Name: 4-Trifluoromethylphenol
Name: 4-(trifluoromethyl)phenol
Formula: C7H5F3O
Exact mass: 162.0292
SMILES: Oc1ccc(C(F)(F)F)cc1
InChI: InChI=1S/C7H5F3O/c8-7(9,10)5-1-3-6(11)4-2-5/h1-4,11H
Instrument: LTQ Orbitrap XL Thermo Scientific
Instrument type: LC-ESI-ITFT
Ms type: MS2
Ion mode: NEGATIVE
Ionization: ESI
Fragmentation mode: HCD
Collision energy: 30 % (nominal)
Resolution: 7500
Column name: XBridge C18 3.5um, 2.1x50mm, Waters
Retention time: 8.9 min
Base peak: 161.0225
Precursor m/z: 161.022
Precursor type: [M-H]-
m/z	relative intensity	assigned
161.0217	999	C7H4F3O-
