Mass spectrum: 4-Formylaminoantipyrine; LC-ESI-ITFT; MS2; CE: 45%; R=7500; [M+H]+
Name: 4-Formylaminoantipyrine
Name: N-(1,5-dimethyl-3-oxidanylidene-2-phenyl-pyrazol-4-yl)methanamide
Formula: C12H13N3O2
Exact mass: 231.1008
SMILES: O=C2C(\NC=O)=C(\C)N(C)N2c1ccccc1
InChI: InChI=1S/C12H13N3O2/c1-9-11(13-8-16)12(17)15(14(9)2)10-6-4-3-5-7-10/h3-8H,1-2H3,(H,13,16)
Instrument: LTQ Orbitrap XL Thermo Scientific
Instrument type: LC-ESI-ITFT
Ms type: MS2
Ion mode: POSITIVE
Ionization: ESI
Fragmentation mode: HCD
Collision energy: 45 % (nominal)
Resolution: 7500
Column name: XBridge C18 3.5um, 2.1x50mm, Waters
Retention time: 3.7 min
Base peak: 232.1088
Precursor m/z: 232.1081
Precursor type: [M+H]+
m/z	relative intensity	assigned
53.0385	8	C4H5+
56.0495	534	C3H6N+
58.0651	13	C3H8N+
77.0387	82	C6H5+
83.0605	998	C4H7N2+
85.0761	111	C4H9N2+
94.0652	170	C6H8N+
104.0496	999	C7H6N+
105.0445	12	C6H5N2+
111.0554	21	C5H7N2O+
118.0653	9	C8H8N+
145.0761	35	C9H9N2+
146.06	67	C9H8NO+
158.0604	22	C10H8NO+
159.0917	200	C10H11N2+
169.0762	7	C11H9N2+
171.0915	13	C11H11N2+
173.0709	62	C10H9N2O+
185.0714	8	C11H9N2O+
186.1029	9	C11H12N3+
187.0867	194	C11H11N2O+
189.0898	46	C10H11N3O+
199.0739	18	C11H9N3O+
204.1132	488	C11H14N3O+
214.0976	773	C12H12N3O+
232.1085	309	C12H14N3O2+
