Mass spectrum: Oxytetracycline; LC-ESI-QFT; MS2; CE: 150; R=35000; [M+H]+
Name: Oxytetracycline
Name: (4S,4aR,5S,5aR,6S,12aS)-4-(Dimethylamino)-3,5,6,10,12,12a-hexahydroxy-6-methyl-1,11-dioxo-1,4,4a,5,5a,6,11,12a-octahydro-2-tetracenecarboxamide
Name: 2-carbamoyl-4-(dimethylazaniumyl)-5,6,10,11,12a-pentahydroxy-6-methyl-3,12-dioxo-4,4a,5,5a-tetrahydrotetracen-1-olate
Formula: C22H24N2O9
Exact mass: 460.14818
SMILES: CC1(C2C(C3C(C(=O)C(=C(C3(C(=O)C2=C(C4=C1C=CC=C4O)O)O)O)C(=O)N)N(C)C)O)O
InChI: InChI=1S/C22H24N2O9/c1-21(32)7-5-4-6-8(25)9(7)15(26)10-12(21)17(28)13-14(24(2)3)16(27)11(20(23)31)19(30)22(13,33)18(10)29/h4-6,12-14,17,25-26,28,30,32-33H,1-3H3,(H2,23,31)
Instrument: Q Exactive Plus Orbitrap Thermo Scientific
Instrument type: LC-ESI-QFT
Ms type: MS2
Ion mode: POSITIVE
Ionization: ESI
Fragmentation mode: HCD
Collision energy: 150 (nominal)
Resolution: 35000
Column name: XBridge C18 3.5um, 2.1x50mm, Waters
Retention time: 4.3 min
Base peak: 461.1547
Precursor m/z: 461.1555
Precursor type: [M+H]+
m/z	relative intensity	assigned
50.0151	42	C4H2+
51.0229	31	C4H3+
52.0307	1	C4H4+
53.0022	32	C3HO+
53.0386	105	C4H5+
54.0339	15	C3H4N+
55.0179	65	C3H3O+
55.0417	27	C3H5N+
56.0495	16	C3H6N+
57.0573	1	C3H7N+
58.0652	107	C3H8N+
61.0072	2	C5H+
62.0151	9	C5H2+
63.0229	61	C5H3+
64.0308	3	C5H4+
65.0386	79	C5H5+
66.01	4	C4H2O+
66.0464	1	C5H6+
67.0179	9	C4H3O+
67.0416	9	C4H5N+
68.0258	1	C4H4O+
68.0495	10	C4H6N+
68.9971	119	C3HO2+
70.0651	29	C4H8N+
71.0127	7	C3H3O2+
71.0366	2	C3H5NO+
72.0443	7	C3H6NO+
74.0151	14	C6H2+
75.0229	92	C6H3+
76.0307	20	C6H4+
77.0385	109	C6H5+
78.0464	116	C6H6+
79.0179	15	C5H3O+
79.0543	5	C6H7+
80.0495	7	C5H6N+
81.0335	18	C5H5O+
82.0288	1	C4H4NO+
82.0651	5	C5H8N+
83.0129	2	C4H3O2+
83.0366	14	C4H5NO+
86.0151	4	C7H2+
87.0229	15	C7H3+
88.0308	9	C7H4+
89.0386	77	C7H5+
90.0465	9	C7H6+
91.0543	205	C7H7+
92.0257	12	C6H4O+
94.0413	1	C6H6O+
94.0651	1	C6H8N+
95.0492	261	C6H7O+
96.0446	1	C5H6NO+
97.0287	1	C5H5O2+
98.0153	3	C8H2+
98.0601	15	C5H8NO+
99.023	7	C8H3+
100.0308	1	C8H4+
101.0386	30	C8H5+
102.0464	329	C8H6+
103.0543	79	C8H7+
105.0448	191	C6H5N2+
107.0492	7	C7H7O+
113.0386	88	C9H5+
114.0464	23	C9H6+
115.0543	563	C9H7+
116.062	34	C9H8+
117.0337	1	C8H5O+
117.07	13	C9H9+
118.0413	9	C8H6O+
119.0493	25	C8H7O+
120.0207	1	C7H4O2+
125.0387	13	C10H5+
126.0465	290	C10H6+
127.0543	361	C10H7+
128.0621	999	C10H8+
129.0338	4	C9H5O+
129.0447	79	C8H5N2+
129.0698	20	C10H9+
130.0415	4	C9H6O+
131.0492	52	C9H7O+
132.057	16	C9H8O+
137.0386	9	C11H5+
138.0464	20	C11H6+
139.0543	424	C11H7+
140.0621	46	C11H8+
141.0336	3	C10H5O+
141.0699	36	C11H9+
142.0414	11	C10H6O+
143.049	7	C10H7O+
144.0572	18	C10H8O+
145.0649	102	C10H9O+
149.0388	1	C12H5+
150.0465	56	C12H6+
151.0544	23	C12H7+
152.0621	307	C12H8+
153.0699	47	C12H9+
154.078	1	C12H10+
155.0494	126	C11H7O+
155.0604	260	C10H7N2+
156.057	25	C11H8O+
157.065	12	C11H9O+
158.0365	1	C10H6O2+
160.0522	4	C10H8O2+
161.0387	4	C13H5+
161.0598	8	C10H9O2+
162.0463	8	C13H6+
163.0542	119	C13H7+
164.062	44	C13H8+
165.07	124	C13H9+
166.0417	2	C12H6O+
167.049	7	C12H7O+
167.086	1	C13H11+
168.057	89	C12H8O+
169.0648	95	C12H9O+
170.0361	1	C11H6O2+
171.0441	3	C11H7O2+
171.0555	1	C10H7N2O+
173.0601	4	C11H9O2+
174.0467	4	C14H6+
175.0543	1	C14H7+
176.0621	60	C14H8+
177.0698	9	C14H9+
178.0778	15	C14H10+
179.049	6	C13H7O+
179.0605	30	C12H7N2+
180.0568	2	C13H8O+
181.0648	21	C13H9O+
182.0726	1	C13H10O+
183.0442	31	C12H7O2+
184.052	36	C12H8O2+
185.0599	2	C12H9O2+
187.0392	4	C11H7O3+
187.0542	19	C15H7+
188.0622	1	C15H8+
189.07	16	C15H9+
192.0569	4	C14H8O+
193.0653	7	C14H9O+
194.036	2	C13H6O2+
196.0518	9	C13H8O2+
197.0598	5	C13H9O2+
205.065	4	C15H9O+
213.0549	1	C13H9O3+
221.0603	1	C15H9O2+
