Mass spectrum: Verapamil; LC-ESI-ITFT; MS2; CE: 90%; R=7500; [M+H]+
Name: Verapamil
Name: 2-(3,4-dimethoxyphenyl)-5-[2-(3,4-dimethoxyphenyl)ethyl-methyl-amino]-2-propan-2-yl-pentanenitrile
Formula: C27H38N2O4
Exact mass: 454.2832
SMILES: COC1=C(OC)C=CC(C(C(C)C)(C#N)CCCN(CCC2=CC(OC)=C(OC)C=C2)C)=C1
InChI: InChI=1S/C27H38N2O4/c1-20(2)27(19-28,22-10-12-24(31-5)26(18-22)33-7)14-8-15-29(3)16-13-21-9-11-23(30-4)25(17-21)32-6/h9-12,17-18,20H,8,13-16H2,1-7H3
Instrument: LTQ Orbitrap XL Thermo Scientific
Instrument type: LC-ESI-ITFT
Ms type: MS2
Ion mode: POSITIVE
Ionization: ESI
Fragmentation mode: HCD
Collision energy: 90 % (nominal)
Resolution: 7500
Column name: XBridge C18 3.5um, 2.1x50mm, Waters
Retention time: 7.3 min
Base peak: 455.292
Precursor m/z: 455.2904
Precursor type: [M+H]+
m/z	relative intensity	assigned
58.0652	149	C3H8N+
66.0463	21	C5H6+
77.0387	199	C6H5+
78.0464	74	C6H6+
79.0543	743	C6H7+
84.0809	116	C5H10N+
90.0464	72	C7H6+
91.0543	546	C7H7+
92.0623	85	C7H8+
93.0699	92	C7H9+
95.0491	46	C6H7O+
102.0465	27	C8H6+
103.0543	591	C8H7+
104.0621	189	C8H8+
105.0337	69	C7H5O+
105.0444	58	C6H5N2+
105.0699	565	C8H9+
107.0492	672	C7H7O+
108.0575	27	C7H8O+
109.0647	69	C7H9O+
118.0415	229	C8H6O+
119.0493	391	C8H7O+
120.057	222	C8H8O+
121.0649	668	C8H9O+
122.0728	122	C8H10O+
124.0523	29	C7H8O2+
131.0493	144	C9H7O+
132.0571	27	C9H8O+
133.0649	264	C9H9O+
134.0727	779	C9H10O+
135.0442	939	C8H7O2+
135.0809	71	C9H11O+
136.0518	61	C8H8O2+
137.0594	88	C8H9O2+
138.068	74	C8H10O2+
146.0729	56	C10H10O+
149.0599	182	C9H9O2+
150.0676	999	C9H10O2+
151.0753	179	C9H11O2+
152.0833	29	C9H12O2+
164.0837	31	C10H12O2+
165.0912	275	C10H13O2+
174.0917	34	C11H12NO+
176.0709	36	C10H10NO2+
202.0871	32	C12H12NO2+
