Mass spectrum: Pyrifluquinazon; LC-ESI-QFT; MS2; CE: 30%; R=17500; [M+H]+
Name: Pyrifluquinazon
Name: 1-acetyl-6-(1,1,1,2,3,3,3-heptafluoropropan-2-yl)-3-(pyridin-3-ylmethylamino)-4H-quinazolin-2-one
Formula: C19H15F7N4O2
Exact mass: 464.1083
SMILES: CC(=O)N1C2=C(CN(C1=O)NCC3=CN=CC=C3)C=C(C=C2)C(C(F)(F)F)(C(F)(F)F)F
InChI: InChI=1S/C19H15F7N4O2/c1-11(31)30-15-5-4-14(17(20,18(21,22)23)19(24,25)26)7-13(15)10-29(16(30)32)28-9-12-3-2-6-27-8-12/h2-8,28H,9-10H2,1H3
Instrument: Exploris 240 Orbitrap Thermo Scientific
Instrument type: LC-ESI-QFT
Ms type: MS2
Ion mode: POSITIVE
Ionization: ESI
Fragmentation mode: HCD
Collision energy: 30 % (nominal)
Resolution: 17500
Column name: XBridge C18 3.5um, 2.1x50mm, Waters
Retention time: 8.322 min
Base peak: 465.1151
Precursor m/z: 465.1156
Precursor type: [M+H]+
m/z	relative intensity	assigned
92.0495	133	C6H6N+
93.0573	46	C6H7N+
94.0652	20	C6H8N+
107.0604	144	C6H7N2+
109.0765	6	C6H9N2+
403.0991	30	C17H13F6N4O+
423.1054	999	C17H14F7N4O+
465.1159	332	C19H16F7N4O2+
