Mass spectrum: Rivastigmine; LC-ESI-QFT; MS2; CE: 15; R=35000; [M+H]+
Name: Rivastigmine
Name: N-ethyl-N-methyl-carbamic acid [3-[(1S)-1-(dimethylamino)ethyl]phenyl] ester
Formula: C14H22N2O2
Exact mass: 250.16813
SMILES: O=C(Oc1cc(ccc1)[C@@H](N(C)C)C)N(CC)C
InChI: InChI=1S/C14H22N2O2/c1-6-16(5)14(17)18-13-9-7-8-12(10-13)11(2)15(3)4/h7-11H,6H2,1-5H3/t11-/m0/s1
Instrument: Q Exactive Orbitrap Thermo Scientific
Instrument type: LC-ESI-QFT
Ms type: MS2
Ion mode: POSITIVE
Ionization: ESI
Fragmentation mode: HCD
Collision energy: 15 (nominal)
Resolution: 35000
Column name: XBridge C18 3.5um, 2.1x50mm, Waters
Retention time: 5.0 min
Base peak: 251.1756
Precursor m/z: 251.1754
Precursor type: [M+H]+
m/z	relative intensity	assigned
58.0288	6	C2H4NO+
86.0598	26	C4H8NO+
206.1176	999	C12H16NO2+
208.1329	5	C12H18NO2+
224.128	6	C12H18NO3+
251.1754	311	C14H23N2O2+
