Mass spectrum: Pheniramine; LC-ESI-QFT; MS2; CE: 60; R=35000; [M+H]+
Name: Pheniramine
Name: N,N-dimethyl-3-phenyl-3-pyridin-2-ylpropan-1-amine
Formula: C16H20N2
Exact mass: 240.16265
SMILES: CN(C)CCC(C1=CC=CC=C1)C2=CC=CC=N2
InChI: InChI=1S/C16H20N2/c1-18(2)13-11-15(14-8-4-3-5-9-14)16-10-6-7-12-17-16/h3-10,12,15H,11,13H2,1-2H3
Instrument: Q Exactive Plus Orbitrap Thermo Scientific
Instrument type: LC-ESI-QFT
Ms type: MS2
Ion mode: POSITIVE
Ionization: ESI
Fragmentation mode: HCD
Collision energy: 60 (nominal)
Resolution: 35000
Column name: XBridge C18 3.5um, 2.1x50mm, Waters
Retention time: 3.7 min
Base peak: 241.1697
Precursor m/z: 241.1699
Precursor type: [M+H]+
m/z	relative intensity	assigned
91.0542	23	C7H7+
110.0601	1	C6H8NO+
117.0572	2	C8H7N+
118.065	21	C8H8N+
119.073	3	C8H9N+
167.073	107	C12H9N+
168.0808	232	C12H10N+
180.0806	1	C13H10N+
181.0886	3	C13H11N+
194.0965	6	C14H12N+
195.1045	4	C14H13N+
196.1121	999	C14H14N+
