Mass spectrum: Timolol; LC-ESI-QFT; MS2; CE: 150; R=35000; [M+H]+
Name: Timolol
Name: 1-(tert-butylamino)-3-[(4-morpholin-4-yl-1,2,5-thiadiazol-3-yl)oxy]propan-2-ol
Formula: C13H24N4O3S
Exact mass: 316.15691
SMILES: CC(C)(C)NCC(O)COC1=NSN=C1N1CCOCC1
InChI: InChI=1S/C13H24N4O3S/c1-13(2,3)14-8-10(18)9-20-12-11(15-21-16-12)17-4-6-19-7-5-17/h10,14,18H,4-9H2,1-3H3
Instrument: Q Exactive Plus Orbitrap Thermo Scientific
Instrument type: LC-ESI-QFT
Ms type: MS2
Ion mode: POSITIVE
Ionization: ESI
Fragmentation mode: HCD
Collision energy: 150 (nominal)
Resolution: 35000
Column name: XBridge C18 3.5um, 2.1x50mm, Waters
Retention time: 4.9 min
Base peak: 317.164
Precursor m/z: 317.1642
Precursor type: [M+H]+
m/z	relative intensity	assigned
53.0022	97	C3HO+
53.0134	16	C2HN2+
53.9974	22	C2NO+
54.0338	37	C3H4N+
55.029	42	C2H3N2+
55.0542	6	C4H7+
56.0495	999	C3H6N+
57.0335	32	C3H5O+
57.0699	202	C4H9+
57.9746	53	CNS+
57.9871	20	C2H2S+
58.0652	46	C3H8N+
58.995	79	C2H3S+
59.9903	267	CH2NS+
62.0058	23	CH4NS+
67.0291	9	C3H3N2+
67.0416	7	C4H5N+
67.9892	20	C3O2+
68.0131	7	C3H2NO+
68.0369	8	C3H4N2+
68.0495	21	C4H6N+
69.0447	713	C3H5N2+
70.0287	7	C3H4NO+
70.0525	25	C3H6N2+
71.9902	56	C2H2NS+
73.9695	57	CNOS+
74.0059	386	C2H4NS+
74.06	251	C3H8NO+
75.0012	6	CH3N2S+
75.9852	8	CH2NOS+
78.0088	6	C3N3+
81.0447	5	C4H5N2+
83.0604	4	C4H7N2+
84.9855	32	C2HN2S+
85.0396	6	C3H5N2O+
85.9695	120	C2NOS+
86.0058	18	C3H4NS+
86.0601	10	C4H8NO+
87.0011	5	C2H3N2S+
87.9851	4	C2H2NOS+
99.0011	9	C3H3N2S+
101.0167	16	C3H5N2S+
113.0346	18	C4H5N2O2+
113.0709	54	C5H9N2O+
127.9913	19	C3H2N3OS+
130.0071	6	C3H4N3OS+
144.0226	7	C4H6N3OS+
