Mass spectrum: Triethyl phosphate; LC-ESI-QFT; MS2; CE: 45; R=35000; [M+H]+
Name: Triethyl phosphate
Name: TEP
Name: Phosphoric acid triethyl ester
Formula: C6H15O4P
Exact mass: 182.07080
SMILES: O=P(OCC)(OCC)OCC
InChI: InChI=1S/C6H15O4P/c1-4-8-11(7,9-5-2)10-6-3/h4-6H2,1-3H3
Instrument: Q Exactive Orbitrap Thermo Scientific
Instrument type: LC-ESI-QFT
Ms type: MS2
Ion mode: POSITIVE
Ionization: ESI
Fragmentation mode: HCD
Collision energy: 45 (nominal)
Resolution: 35000
Column name: XBridge C18 3.5um, 2.1x50mm, Waters
Retention time: 6.2 min
Base peak: 183.0782
Precursor m/z: 183.0781
Precursor type: [M+H]+
m/z	relative intensity	assigned
80.9734	2	H2O3P+
98.9843	999	H4O4P+
116.9947	9	H6O5P+
127.0155	106	C2H8O4P+
155.0469	11	C4H12O4P+
