Mass spectrum: Metoprolol; LC-ESI-ITFT; MS2; CE: 60%; R=15000; [M+H]+
Name: Metoprolol
Name: 1-(isopropylamino)-3-[4-(2-methoxyethyl)phenoxy]propan-2-ol
Formula: C15H25NO3
Exact mass: 267.1834
SMILES: COCCC1=CC=C(OCC(O)CNC(C)C)C=C1
InChI: InChI=1S/C15H25NO3/c1-12(2)16-10-14(17)11-19-15-6-4-13(5-7-15)8-9-18-3/h4-7,12,14,16-17H,8-11H2,1-3H3
Instrument: LTQ Orbitrap XL Thermo Scientific
Instrument type: LC-ESI-ITFT
Ms type: MS2
Ion mode: POSITIVE
Ionization: ESI
Fragmentation mode: HCD
Collision energy: 60 % (nominal)
Resolution: 15000
Column name: XBridge C18 3.5um, 2.1x50mm, Waters
Retention time: 5.1 min
Base peak: 268.1916
Precursor m/z: 268.1907
Precursor type: [M+H]+
m/z	relative intensity	assigned
56.0495	303	C3H6N+
58.0652	66	C3H8N+
70.0652	10	C4H8N+
72.0808	438	C4H10N+
74.0601	703	C3H8NO+
79.0542	26	C6H7+
84.0808	30	C5H10N+
91.0542	87	C7H7+
93.0698	23	C7H9+
98.0964	354	C6H12N+
100.1121	34	C6H14N+
103.0542	63	C8H7+
105.0699	203	C8H9+
107.0491	17	C7H7O+
107.0857	14	C8H11+
115.0542	13	C9H7+
116.107	557	C6H14NO+
117.07	25	C9H9+
119.0857	29	C9H11+
121.0648	624	C8H9O+
129.07	42	C10H9+
131.0492	23	C9H7O+
131.0856	156	C10H11+
133.0648	999	C9H9O+
135.0804	70	C9H11O+
141.0699	29	C11H9+
144.0569	46	C10H8O+
147.0805	102	C10H11O+
148.0757	208	C9H10NO+
151.0753	16	C9H11O2+
159.0804	466	C11H11O+
161.0959	16	C11H13O+
163.0866	178	C9H11N2O+
163.1116	18	C11H15O+
165.091	75	C10H13O2+
169.0752	17	C11H9N2+
176.107	53	C11H14NO+
177.0911	53	C11H13O2+
191.1066	142	C12H15O2+
