Mass spectrum: Bromuconazole; LC-ESI-QFT; MS2; CE: 90%; R=15000; [M+H]+
Name: Bromuconazole
Name: 1-[[4-bromo-2-(2,4-dichlorophenyl)oxolan-2-yl]methyl]-1,2,4-triazole
Formula: C13H12BrCl2N3O
Exact mass: 374.9540795
SMILES: ClC1=CC(Cl)=C(C=C1)C1(CN2C=NC=N2)CC(Br)CO1
InChI: InChI=1S/C13H12BrCl2N3O/c14-9-4-13(20-5-9,6-19-8-17-7-18-19)11-2-1-10(15)3-12(11)16/h1-3,7-9H,4-6H2
Instrument: Q Exactive Plus
Instrument type: LC-ESI-QFT
Ms type: MS2
Ion mode: POSITIVE
Ionization: ESI
Fragmentation mode: HCD
Collision energy: 90 % (nominal)
Resolution: 15000
Column name: XBridge C18 3.5um, 2.1x50mm, Waters
Retention time: 11.235 min
Base peak: 377.9593
Precursor m/z: 375.9614
Precursor type: [M+H]+
Precursor intensity: 139651018.12
m/z	relative intensity	assigned
70.04	178	C2H4N3+
72.9838	11	C3H2Cl+
89.0386	71	C7H5+
98.9996	59	C5H4Cl+
108.984	14	C6H2Cl+
122.9996	259	C7H4Cl+
124.0075	84	C7H5Cl+
129.0698	17	C10H9+
132.9607	34	C5H3Cl2+
158.9763	999	C7H5Cl2+
172.955	12	C7H3Cl2O+
172.9671	27	C6H3Cl2N2+
