Mass spectrum: Cyclophosphamide; LC-ESI-ITFT; MS2; CE: 45%; R=7500; [M+H]+
Name: Cyclophosphamide
Name: N,N-bis(2-chloroethyl)-2-oxidanylidene-1,3,2$l^{5}-oxazaphosphinan-2-amine
Formula: C7H15Cl2N2O2P
Exact mass: 260.0248
SMILES: ClCCN(CCCl)P1(=O)NCCCO1
InChI: InChI=1S/C7H15Cl2N2O2P/c8-2-5-11(6-3-9)14(12)10-4-1-7-13-14/h1-7H2,(H,10,12)
Instrument: LTQ Orbitrap XL Thermo Scientific
Instrument type: LC-ESI-ITFT
Ms type: MS2
Ion mode: POSITIVE
Ionization: ESI
Fragmentation mode: HCD
Collision energy: 45 % (nominal)
Resolution: 7500
Column name: XBridge C18 3.5um, 2.1x50mm, Waters
Retention time: 6.3 min
Base peak: 261.0328
Precursor m/z: 261.0321
Precursor type: [M+H]+
m/z	relative intensity	assigned
56.0495	28	C3H6N+
58.0651	31	C3H8N+
62.9995	11	CH4OP+
70.0651	8	C4H8N+
78.0105	9	C2H5ClN+
91.9898	2	C2H3ClNO+
94.0054	3	C5H2O2+
104.0264	1	C4H7ClN+
106.0419	358	C4H9ClN+
110.0002	40	C2H5ClNO2+
112.0158	4	C2H7ClNO2+
120.0209	155	C3H7NO2P+
122.0365	2	C3H9NO2P+
138.0315	140	C4H9ClNO2+
140.003	999	C4H8Cl2N+
142.0185	334	C4H10Cl2N+
154.019	3	C5H10Cl2N+
155.9973	5	C3H8ClNO2P+
171.0084	5	C3H9ClN2O2P+
174.0082	2	C4H10Cl2NO2+
185.0242	18	C4H11ClN2O2P+
197.0245	2	C6H11Cl2N2O+
199.0396	12	C5H13ClN2O2P+
203.9739	3	C4H9Cl2NO2P+
221.0004	1	C4H12Cl2N2O2P+
225.0546	2	C7H15ClN2O2P+
233.0008	290	C5H12Cl2N2O2P+
261.0321	595	C7H16Cl2N2O2P+
