Mass spectrum: 10phiC10SPC; LC-ESI-QFT; MS2; CE: 60; R=35000; [M+H]+
Name: 10phiC10SPC
Name: Decacarboxy sulfophenyl carboxylic acid
Name: 10-(4-sulfophenyl)octanoic acid
Formula: C16H24O5S
Exact mass: 328.13444
SMILES: OS(=O)(=O)c1ccc(CCCCCCCCCC(=O)O)cc1
InChI: InChI=1S/C16H24O5S/c17-16(18)9-7-5-3-1-2-4-6-8-14-10-12-15(13-11-14)22(19,20)21/h10-13H,1-9H2,(H,17,18)(H,19,20,21)
Instrument: Q Exactive Plus Orbitrap Thermo Scientific
Instrument type: LC-ESI-QFT
Ms type: MS2
Ion mode: POSITIVE
Ionization: ESI
Fragmentation mode: HCD
Collision energy: 60 (nominal)
Resolution: 35000
Column name: XBridge C18 3.5um, 2.1x50mm, Waters
Retention time: 10.8 min
Base peak: 343.1573
Precursor m/z: 329.1417
Precursor type: [M+H]+
m/z	relative intensity	assigned
50.015	1	C4H2+
51.0228	1	C4H3+
53.0023	7	C3HO+
53.0386	6	C4H5+
55.0179	2	C3H3O+
55.0543	37	C4H7+
57.0699	309	C4H9+
58.995	2	C2H3S+
63.0227	1	C5H3+
65.0386	4	C5H5+
67.0542	32	C5H7+
67.9894	1	C3O2+
69.0335	6	C4H5O+
69.0699	20	C5H9+
71.0855	36	C5H11+
77.0384	12	C6H5+
78.0464	7	C6H6+
79.0542	44	C6H7+
81.0334	1	C5H5O+
81.0699	21	C6H9+
83.0856	2	C6H11+
85.1012	6	C6H13+
90.0463	1	C7H6+
91.0543	124	C7H7+
93.07	16	C7H9+
95.0492	22	C6H7O+
95.0855	18	C7H11+
103.0543	172	C8H7+
104.0621	483	C8H8+
105.0447	12	C6H5N2+
105.0699	63	C8H9+
107.0492	388	C7H7O+
109.0107	47	C6H5S+
109.1012	8	C8H13+
111.0263	52	C6H7S+
115.0543	22	C9H7+
116.0621	49	C9H8+
117.0699	204	C9H9+
118.0416	5	C8H6O+
118.0777	70	C9H10+
119.0493	5	C8H7O+
119.0857	7	C9H11+
120.057	2	C8H8O+
121.0648	63	C8H9O+
123.0263	16	C7H7S+
125.0057	19	C6H5OS+
128.062	10	C10H8+
129.0699	82	C10H9+
130.0778	85	C10H10+
131.0604	55	C8H7N2+
131.0856	123	C10H11+
132.057	11	C9H8O+
132.0934	18	C10H12+
133.0649	11	C9H9O+
134.0185	41	C8H6S+
135.0263	62	C8H7S+
135.0805	7	C9H11O+
137.0057	30	C7H5OS+
139.0212	34	C7H7OS+
141.07	7	C11H9+
142.0778	14	C11H10+
143.0604	1	C9H7N2+
143.0856	25	C11H11+
144.0934	38	C11H12+
145.0761	16	C9H9N2+
145.1013	71	C11H13+
146.0728	6	C10H10O+
146.109	4	C11H14+
147.0263	18	C9H7S+
147.0805	10	C10H11O+
148.0342	24	C9H8S+
149.0056	9	C8H5OS+
149.042	35	C9H9S+
149.096	10	C10H13O+
150.0134	6	C8H6OS+
151.0213	53	C8H7OS+
153.0005	28	C7H5O2S+
154.0776	5	C12H10+
155.0855	2	C12H11+
156.0935	9	C12H12+
158.1091	1	C12H14+
159.0917	28	C10H11N2+
159.1169	7	C12H15+
161.042	9	C10H9S+
163.0213	7	C9H7OS+
163.0575	9	C10H11S+
163.112	5	C11H15O+
165.037	16	C9H9OS+
167.0162	117	C8H7O2S+
169.0316	1	C8H9O2S+
169.1013	1	C13H13+
171.0111	999	C7H7O3S+
172.034	9	C11H8S+
173.0422	6	C11H9S+
173.1076	10	C11H13N2+
177.0369	6	C10H9OS+
179.0527	2	C10H11OS+
181.032	8	C9H9O2S+
185.0268	349	C8H9O3S+
187.0579	1	C12H11S+
187.1231	2	C12H15N2+
191.0528	6	C11H11OS+
195.0475	5	C10H11O2S+
199.0424	10	C9H11O3S+
203.037	2	C8H11O4S+
213.0582	2	C10H13O3S+
227.0737	1	C11H15O3S+
