Mass spectrum: Rosuvastatin; LC-ESI-ITFT; MS2; CE: 35%; R=30000; [M-H]-
Name: Rosuvastatin
Name: (E,3R,5S)-7-[4-(4-fluorophenyl)-2-[methyl(methylsulfonyl)amino]-6-propan-2-ylpyrimidin-5-yl]-3,5-dihydroxyhept-6-enoic acid
Formula: C22H28FN3O6S
Exact mass: 481.16828
SMILES: CC(C)C1=NC(=NC(=C1/C=C/[C@H](C[C@H](CC(=O)O)O)O)C2=CC=C(C=C2)F)N(C)S(=O)(=O)C
InChI: InChI=1S/C22H28FN3O6S/c1-13(2)20-18(10-9-16(27)11-17(28)12-19(29)30)21(14-5-7-15(23)8-6-14)25-22(24-20)26(3)33(4,31)32/h5-10,13,16-17,27-28H,11-12H2,1-4H3,(H,29,30)/b10-9+/t16-,17-/m1/s1
Instrument: LTQ Orbitrap XL Thermo Scientific
Instrument type: LC-ESI-ITFT
Ms type: MS2
Ion mode: NEGATIVE
Ionization: ESI
Fragmentation mode: CID
Collision energy: 35 % (nominal)
Resolution: 30000
Column name: XBridge C18 3.5um, 2.1x50mm, Waters
Retention time: 9.2 min
Base peak: 480.1602
Precursor m/z: 480.161
Precursor type: [M-H]-
m/z	relative intensity	assigned
296.1197	5	C14H20N2O3S-
297.128	2	C20H15N3-
298.136	5	C17H17FN3O-
312.1515	21	C15H24N2O3S-
314.1674	1	C18H21FN3O-
320.1766	5	C20H22N3O-
322.1028	6	C15H17FN3O2S-
338.1672	20	
340.1827	26	C20H23FN3O-
348.1189	1	C20H18N3OS-
374.1344	2	C19H21FN3O2S-
376.1131	32	C21H18N3O2S-
392.1444	72	
398.1536	85	C21H24N3O3S-
400.1493	3	C21H23FN3O2S-
402.1289	9	C20H21FN3O3S-
418.16	999	C21H25FN3O3S-
462.1504	6	C22H25FN3O5S-
