Mass spectrum: Flecainide; LC-ESI-QFT; MS2; CE: 15; R=35000; [M-H]-
Name: Flecainide
Name: N-(2-piperidinylmethyl)-2,5-bis(2,2,2-trifluoroethoxy)benzamide
Formula: C17H20F6N2O3
Exact mass: 414.13781
SMILES: C1CCNC(C1)CNC(=O)C2=C(C=CC(=C2)OCC(F)(F)F)OCC(F)(F)F
InChI: InChI=1S/C17H20F6N2O3/c18-16(19,20)9-27-12-4-5-14(28-10-17(21,22)23)13(7-12)15(26)25-8-11-3-1-2-6-24-11/h4-5,7,11,24H,1-3,6,8-10H2,(H,25,26)
Instrument: Q Exactive Orbitrap Thermo Scientific
Instrument type: LC-ESI-QFT
Ms type: MS2
Ion mode: NEGATIVE
Ionization: ESI
Fragmentation mode: HCD
Collision energy: 15 (nominal)
Resolution: 35000
Column name: XBridge C18 3.5um, 2.1x50mm, Waters
Retention time: 6.6 min
Base peak: 459.1364
Precursor m/z: 413.1305
Precursor type: [M-H]-
m/z	relative intensity	assigned
123.0089	3	C6H3O3-
135.0088	1	C7H3O3-
139.0877	26	C7H11N2O-
146.0244	3	C8H4NO2-
151.0201	4	C8H4FO2-
159.0322	2	C9H5NO2-
161.0722	1	C9H9N2O-
164.0152	2	C8H3FNO2-
171.0262	2	C8H5F2O2-
179.0827	1	C9H11N2O2-
190.0248	2	C8H5F3O2-
192.0095	13	C9H3FNO3-
197.0056	2	C9H3F2O3-
199.0889	39	C9H12FN2O2-
200.0719	6	C12H10NO2-
214.0488	1	C7H8F4NO2-
225.1037	1	C14H13N2O-
230.0436	3	C10H7F3NO2-
231.0272	2	C10H6F3O3-
241.0983	4	C14H13N2O2-
242.0438	3	C11H7F3NO2-
242.1062	3	C14H14N2O2-
243.0273	1	C11H6F3O3-
243.09	4	C14H13NO3-
246.1012	1	C13H14N2O3-
249.0182	14	C10H5F4O3-
257.0305	4	C11H6F3NO3-
269.0933	27	C15H13N2O3-
270.1011	909	C15H14N2O3-
275.0207	8	C11H5F4NO3-
277.1159	2	C15H15F2N2O-
285.1046	1	C16H14FN2O2-
290.1073	999	C15H15FN2O3-
293.0931	12	C9H14F5N2O3-
302.0905	1	C16H11F3N3-
305.1108	8	C16H15F2N2O2-
310.1138	9	C15H16F2N2O3-
313.0995	51	C17H14FN2O3-
333.1057	48	C17H15F2N2O3-
353.1119	619	C17H16F3N2O3-
373.118	467	C17H17F4N2O3-
393.1244	88	C17H18F5N2O3-
