Mass spectrum: Lenacil; LC-ESI-ITFT; MS2; CE: 90%; R=30000; [M+H]+
Name: Lenacil
Name: 3-cyclohexyl-1,5,6,7-tetrahydrocyclopenta[d]pyrimidine-2,4-dione
Formula: C13H18N2O2
Exact mass: 234.1368
SMILES: O=C1\C3=C(/NC(=O)N1C2CCCCC2)CCC3
InChI: InChI=1S/C13H18N2O2/c16-12-10-7-4-8-11(10)14-13(17)15(12)9-5-2-1-3-6-9/h9H,1-8H2,(H,14,17)
Instrument: LTQ Orbitrap XL Thermo Scientific
Instrument type: LC-ESI-ITFT
Ms type: MS2
Ion mode: POSITIVE
Ionization: ESI
Fragmentation mode: HCD
Collision energy: 90 % (nominal)
Resolution: 30000
Column name: XBridge C18 3.5um, 2.1x50mm, Waters
Retention time: 8.6 min
Base peak: 235.1446
Precursor m/z: 235.1441
Precursor type: [M+H]+
m/z	relative intensity	assigned
53.0386	3	C4H5+
55.0542	17	C4H7+
65.0386	11	C5H5+
67.0417	12	C4H5N+
80.0495	41	C5H6N+
82.0652	207	C5H8N+
83.0855	13	C6H11+
92.0494	3	C6H6N+
107.0604	2	C6H7N2+
108.0443	14	C6H6NO+
109.076	23	C6H9N2+
110.0601	320	C6H8NO+
125.0707	4	C6H9N2O+
126.0547	2	C6H8NO2+
135.0553	396	C7H7N2O+
136.0392	637	C7H6NO2+
151.0501	3	C7H7N2O2+
153.0657	999	C7H9N2O2+
