Mass spectrum: Metolachlor OXA; LC-ESI-ITFT; MS2; CE: 45%; R=7500; [M+H]+
Name: Metolachlor OXA
Name: 2-(2-ethyl-N-(2-methoxy-1-methyl-ethyl)-6-methyl-anilino)-2-keto-acetic acid
Formula: C15H21NO4
Exact mass: 279.1471
SMILES: CC1=CC=CC(CC)=C1N(C(C)COC)C(C(O)=O)=O
InChI: InChI=1S/C15H21NO4/c1-5-12-8-6-7-10(2)13(12)16(11(3)9-20-4)14(17)15(18)19/h6-8,11H,5,9H2,1-4H3,(H,18,19)
Instrument: LTQ Orbitrap XL Thermo Scientific
Instrument type: LC-ESI-ITFT
Ms type: MS2
Ion mode: POSITIVE
Ionization: ESI
Fragmentation mode: HCD
Collision energy: 45 % (nominal)
Resolution: 7500
Column name: XBridge C18 3.5um, 2.1x50mm, Waters
Retention time: 9.3 min
Base peak: 280.1539
Precursor m/z: 280.1543
Precursor type: [M+H]+
m/z	relative intensity	assigned
73.0648	67	C4H9O+
91.0539	2	C7H7+
93.0699	4	C7H9+
117.0698	2	C9H9+
118.0648	8	C8H8N+
119.0856	10	C9H11+
120.0812	2	C8H10N+
129.07	3	C10H9+
131.073	24	C9H9N+
132.0807	16	C9H10N+
133.0888	7	C9H11N+
134.0604	6	C8H8NO+
134.0965	35	C9H12N+
135.0802	1	C9H11O+
136.1118	1	C9H14N+
142.0648	1	C10H8N+
144.0808	39	C10H10N+
145.0886	9	C10H11N+
146.0964	189	C10H12N+
147.1041	6	C10H13N+
148.1121	125	C10H14N+
149.0231	2	C8H5O3+
159.1038	4	C11H13N+
160.0757	15	C10H10NO+
160.1121	27	C11H14N+
162.0913	52	C10H12NO+
174.0912	5	C11H12NO+
174.1277	36	C12H16N+
175.1348	2	C12H17N+
176.1433	113	C12H18N+
184.1122	4	C13H14N+
202.1225	30	C13H16NO+
204.1381	18	C13H18NO+
206.1546	2	C13H20NO+
220.1331	47	C13H18NO2+
248.1279	999	C14H18NO3+
