Mass spectrum: Pheniramine-N-oxide; LC-ESI-QFT; MS2; CE: 120; R=35000; [M+H]+
Name: Pheniramine-N-oxide
Name: N,N-dimethyl-3-phenyl-3-pyridin-2-ylpropan-1-amine oxide
Formula: C16H20N2O
Exact mass: 256.15756
SMILES: C[N+](C)(CCC(c1ccccc1)c2ccccn2)[O-]
InChI: InChI=1S/C16H20N2O/c1-18(2,19)13-11-15(14-8-4-3-5-9-14)16-10-6-7-12-17-16/h3-10,12,15H,11,13H2,1-2H3
Instrument: Q Exactive Plus Orbitrap Thermo Scientific
Instrument type: LC-ESI-QFT
Ms type: MS2
Ion mode: POSITIVE
Ionization: ESI
Fragmentation mode: HCD
Collision energy: 120 (nominal)
Resolution: 35000
Column name: XBridge C18 3.5um, 2.1x50mm, Waters
Retention time: 4.2 min
Base peak: 257.1646
Precursor m/z: 257.1648
Precursor type: [M+H]+
m/z	relative intensity	assigned
50.0151	1	C4H2+
51.0228	1	C4H3+
53.0386	1	C4H5+
63.0228	1	C5H3+
65.0386	53	C5H5+
66.0464	1	C5H6+
77.0386	2	C6H5+
78.0338	8	C5H4N+
79.0416	1	C5H5N+
80.0494	2	C5H6N+
89.0386	3	C7H5+
90.0465	6	C7H6+
91.0542	175	C7H7+
92.0495	9	C6H6N+
93.0573	14	C6H7N+
94.0651	2	C6H8N+
95.0492	4	C6H7O+
96.0444	9	C5H6NO+
103.0542	5	C8H7+
104.0494	5	C7H6N+
105.0448	1	C6H5N2+
110.0601	8	C6H8NO+
115.0543	26	C9H7+
116.0494	2	C8H6N+
116.0621	1	C9H8+
117.0573	96	C8H7N+
118.0651	240	C8H8N+
119.073	10	C8H9N+
128.0494	7	C9H6N+
128.0622	3	C10H8+
129.0448	1	C8H5N2+
130.0652	1	C9H8N+
139.0542	26	C11H7+
140.0499	4	C10H6N+
140.0621	19	C11H8+
141.0575	1	C10H7N+
141.0699	9	C11H9+
146.0599	2	C9H8NO+
152.0621	3	C12H8+
154.0654	1	C11H8N+
165.0701	1	C13H9+
166.0652	101	C12H8N+
167.073	999	C12H9N+
168.0808	111	C12H10N+
179.0729	2	C13H9N+
180.0808	24	C13H10N+
181.0883	1	C13H11N+
192.0808	4	C14H10N+
193.0886	9	C14H11N+
194.0965	32	C14H12N+
196.1119	3	C14H14N+
