Mass spectrum: Chlorophacinone; LC-ESI-QFT; MS2; CE: 45%; R=17500; [M+H]+
Name: Chlorophacinone
Name: 2-[2-(4-chlorophenyl)-2-phenylacetyl]indene-1,3-dione
Formula: C23H15ClO3
Exact mass: 374.0710
SMILES: C1=CC=C(C=C1)C(C2=CC=C(C=C2)Cl)C(=O)C3C(=O)C4=CC=CC=C4C3=O
InChI: InChI=1S/C23H15ClO3/c24-16-12-10-15(11-13-16)19(14-6-2-1-3-7-14)23(27)20-21(25)17-8-4-5-9-18(17)22(20)26/h1-13,19-20H
Instrument: Exploris 240 Orbitrap Thermo Scientific
Instrument type: LC-ESI-QFT
Ms type: MS2
Ion mode: POSITIVE
Ionization: ESI
Fragmentation mode: HCD
Collision energy: 45 % (nominal)
Resolution: 17500
Column name: XBridge C18 3.5um, 2.1x50mm, Waters
Retention time: 14.480 min
Base peak: 375.0783
Precursor m/z: 375.0782
Precursor type: [M+H]+
m/z	relative intensity	assigned
105.0334	49	C7H5O+
138.9944	46	C7H4ClO+
165.0695	10	C13H9+
178.0776	22	C14H10+
179.0854	69	C14H11+
191.0855	20	C15H11+
201.0463	74	C13H10Cl+
206.0722	9	C15H10O+
207.0803	355	C15H11O+
213.0464	13	C14H10Cl+
217.0647	255	C16H9O+
219.081	9	C16H11O+
233.0596	151	C16H9O2+
234.067	55	C16H10O2+
235.0752	999	C16H11O2+
241.0414	148	C15H10ClO+
251.0257	90	C16H8ClO+
262.0617	51	C17H10O3+
263.07	101	C17H11O3+
269.0365	477	C16H10ClO2+
278.109	51	C22H14+
294.1041	53	C22H14O+
297.0318	17	C17H10ClO3+
321.0904	99	C23H13O2+
322.0989	153	C23H14O2+
339.0579	27	C23H12ClO+
357.0679	121	C23H14ClO2+
