Mass spectrum: Captan; LC-ESI-QFT; MS2; CE: 45; R=35000; [M+H]+
Name: Captan
Name: 1,2,3,6-tetrahydro-N-(trichloromethylthio)phthalimide
Name: (3aS,7aR)-2-(trichloromethylsulfanyl)-3a,4,7,7a-tetrahydroisoindole-1,3-dione
Formula: C9H8Cl3NO2S
Exact mass: 298.93413
SMILES: N1(C([C@@H]2CC=CC[C@@H]2C1=O)=O)SC(Cl)(Cl)Cl
InChI: InChI=1S/C9H8Cl3NO2S/c10-9(11,12)16-13-7(14)5-3-1-2-4-6(5)8(13)15/h1-2,5-6H,3-4H2/t5-,6+
Instrument: Q Exactive Orbitrap Thermo Scientific
Instrument type: LC-ESI-QFT
Ms type: MS2
Ion mode: POSITIVE
Ionization: ESI
Fragmentation mode: HCD
Collision energy: 45 (nominal)
Resolution: 35000
Column name: XBridge C18 3.5um, 2.1x50mm, Waters
Retention time: 9.4 min
Base peak: 149.0234
Precursor m/z: 299.9414
Precursor type: [M+H]+
m/z	relative intensity	assigned
53.0387	1	C4H5+
57.07	6	C4H9+
59.9903	2	CH2NS+
61.9793	2	CHClN+
63.9948	1	CH3ClN+
66.9404	81	ClS+
69.0699	2	C5H9+
77.0383	9	C6H5+
78.0462	2	C6H6+
79.0542	999	C6H7+
80.9561	4	CH2ClS+
81.0698	6	C6H9+
86.0059	1	C3H4NS+
88.9789	1	C3H2ClO+
89.0597	5	C4H9O2+
89.9743	1	C2HClNO+
91.0542	19	C7H7+
93.9513	41	CHClNS+
94.9353	286	CClOS+
95.0492	48	C6H7O+
95.967	18	CH3ClNS+
96.0444	41	C5H6NO+
97.9559	33	CH2Cl2N+
98.9665	5	CH4ClOS+
101.0153	2	C5H6Cl+
104.0495	30	C7H6N+
105.0334	2	C7H5O+
105.0448	11	C6H5N2+
105.0573	14	C7H7N+
106.0652	379	C7H8N+
107.0491	23	C7H7O+
109.0107	28	C6H5S+
111.0263	35	C6H7S+
113.0026	6	C5H4ClN+
113.0153	28	C6H6Cl+
114.0106	10	C5H5ClN+
114.9171	9	CHCl2S+
115.0309	10	C6H8Cl+
116.906	16	CCl3+
119.9669	2	C3H3ClNS+
121.0107	6	C7H5S+
121.9462	2	C2HClNOS+
122.0185	2	C7H6S+
125.0153	108	C7H6Cl+
127.0308	16	C7H8Cl+
127.9122	1	CCl2NS+
128.0265	1	C6H7ClN+
129.928	106	CH2Cl2NS+
130.972	10	C5H4ClS+
131.9669	37	C4H3ClNS+
134.06	6	C8H8NO+
136.0216	181	C7H6NS+
137.0295	16	C7H7NS+
140.0262	21	C7H7ClN+
141.0339	6	C7H8ClN+
143.9673	2	C5H3ClNS+
144.9748	6	C5H4ClNS+
144.9874	10	C6H6ClS+
145.9827	31	C5H5ClNS+
147.0031	1	C6H8ClS+
147.9619	12	C4H3ClNOS+
147.9716	241	C5H4Cl2N+
148.8782	5	CCl3S+
155.9072	175	C2Cl2NOS+
156.9875	12	C7H6ClS+
158.9763	4	C7H5Cl2+
171.9982	133	C7H7ClNS+
176.003	5	C7H8Cl2N+
179.9436	309	C5H4Cl2NS+
181.923	14	C4H2Cl2NOS+
203.998	12	C8H8Cl2NO+
207.9751	17	C7H8Cl2NS+
235.9699	43	C8H8Cl2NOS+
263.9648	1	C9H8Cl2NO2S+
