Mass spectrum: Climbazol; LC-ESI-ITFT; MS2; CE: 30%; R=7500; [M+H]+
Name: Climbazol
Name: Climbazole
Name: 1-(4-chloranylphenoxy)-1-imidazol-1-yl-3,3-dimethyl-butan-2-one
Formula: C15H17ClN2O2
Exact mass: 292.0979
SMILES: CC(C)(C)C(=O)C(N1C=CN=C1)OC2=CC=C(C=C2)Cl
InChI: InChI=1S/C15H17ClN2O2/c1-15(2,3)13(19)14(18-9-8-17-10-18)20-12-6-4-11(16)5-7-12/h4-10,14H,1-3H3
Instrument: LTQ Orbitrap XL Thermo Scientific
Instrument type: LC-ESI-ITFT
Ms type: MS2
Ion mode: POSITIVE
Ionization: ESI
Fragmentation mode: HCD
Collision energy: 30 % (nominal)
Resolution: 7500
Column name: XBridge C18 3.5um, 2.1x50mm, Waters
Retention time: 8.1 min
Base peak: 293.1064
Precursor m/z: 293.1051
Precursor type: [M+H]+
m/z	relative intensity	assigned
57.0698	26	C4H9+
69.0699	185	C5H9+
82.0525	33	C4H6N2+
109.0396	23	C5H5N2O+
113.0153	5	C6H6Cl+
115.0752	17	C6H11O2+
129.01	44	C6H6ClO+
137.1072	34	C8H13N2+
141.01	71	C7H6ClO+
155.0256	36	C8H8ClO+
165.1022	3	C9H13N2O+
166.1099	51	C9H14N2O+
169.0045	3	C8H6ClO2+
197.0727	999	C11H14ClO+
225.0675	48	C12H14ClO2+
293.1051	647	C15H18ClN2O2+
