Mass spectrum: Tritosulfuron; LC-ESI-ITFT; MS2; CE: 60%; R=7500; [M+H]+
Name: Tritosulfuron
Name: N-{[4-methoxy-6-(trifluoromethyl)-1,3,5-triazin-2-yl]carbamoyl}-2-(trifluoromethyl)benzenesulfonamide
Formula: C13H9F6N5O4S
Exact mass: 445.0279
SMILES: c1c(S(=O)(=O)NC(Nc2nc(nc(n2)C(F)(F)F)OC)=O)c(C(F)(F)F)ccc1
InChI: InChI=1S/C13H9F6N5O4S/c1-28-11-21-8(13(17,18)19)20-9(23-11)22-10(25)24-29(26,27)7-5-3-2-4-6(7)12(14,15)16/h2-5H,1H3,(H2,20,21,22,23,24,25)
Instrument: LTQ Orbitrap XL Thermo Scientific
Instrument type: LC-ESI-ITFT
Ms type: MS2
Ion mode: POSITIVE
Ionization: ESI
Fragmentation mode: HCD
Collision energy: 60 % (nominal)
Resolution: 7500
Column name: XBridge C18 3.5um, 2.1x50mm, Waters
Retention time: 10.8 min
Base peak: 446.0345
Precursor m/z: 446.0352
Precursor type: [M+H]+
m/z	relative intensity	assigned
58.0288	4	C2H4NO+
68.9947	6	CF3+
69.0083	27	C2HN2O+
75.9991	3	C2F2N+
83.024	45	C3H3N2O+
91.9941	10	C2F2NO+
110.0212	529	C3H3F3N+
114.0278	3	C6H4F2+
120.0207	4	C7H4O2+
125.0459	3	C4H5N4O+
127.0478	240	C3H6F3N2+
130.04	48	C7H4N3+
133.021	2	C4H3F2N2O+
137.026	2	C4H9O3S+
138.0274	13	C3H3F3N3+
142.0221	4	C2H3F3N3O+
144.0005	14	C9HFO+
145.026	999	C7H4F3+
148.0192	3	C3H2F2N4O+
148.0315	11	CH9FN2O3S+
153.0277	2	C4H4F3N2O+
153.0403	3	C5H5N4O2+
165.9957	5	C2H3FN4O2S+
168.0255	72	C8H4F2NO+
173.0469	9	C5H6FN4O2+
175.0427	15	C2H10FN3O3S+
184.0062	8	C7H6NO3S+
186.0023	7	C2H4F2N4O2S+
193.0529	15	C5H7F2N4O2+
195.0488	334	C5H6F3N4O+
196.0748	1	C8H9FN4O+
200.0173	4	C3H6F2N4O2S+
201.0219	6	C6H3F2N4O2+
219.032	11	C4H7F4N4S+
221.0282	145	C6H4F3N4O2+
231.9875	8	C8H4F2NO3S+
