Mass spectrum: Desmethyl-Pirimicarb; LC-ESI-QFT; MS2; CE: 120%; R=17500; [M+H]+
Name: Desmethyl-Pirimicarb
Name: 5,6-Dimethyl-2-(methylamino)-4-pyrimidinyl dimethylcarbamate
Name: [5,6-dimethyl-2-(methylamino)pyrimidin-4-yl] N,N-dimethylcarbamate
Formula: C10H16N4O2
Exact mass: 224.1273
SMILES: CC1=C(N=C(N=C1OC(=O)N(C)C)NC)C
InChI: InChI=1S/C10H16N4O2/c1-6-7(2)12-9(11-3)13-8(6)16-10(15)14(4)5/h1-5H3,(H,11,12,13)
Instrument: Exploris 240 Orbitrap Thermo Scientific
Instrument type: LC-ESI-QFT
Ms type: MS2
Ion mode: POSITIVE
Ionization: ESI
Fragmentation mode: HCD
Collision energy: 120 % (nominal)
Resolution: 17500
Column name: XBridge C18 3.5um, 2.1x50mm, Waters
Retention time: 2.964 min
Base peak: 225.1343
Precursor m/z: 225.1346
Precursor type: [M+H]+
m/z	relative intensity	assigned
53.0386	9	C4H5+
54.034	11	C3H4N+
56.0131	71	C2H2NO+
57.0447	11	C2H5N2+
69.0082	8	C2HN2O+
69.0573	9	C4H7N+
70.0649	12	C4H8N+
71.0604	56	C3H7N2+
72.0444	999	C3H6NO+
83.0238	38	C3H3N2O+
95.0605	32	C5H7N2+
124.0632	12	C6H8N2O+
