Mass spectrum: Fipronil-TP RPA 200761; LC-ESI-QFT; MS2; CE: 60%; R=17500; [M+H]+
Name: Fipronil-TP RPA 200761
Name: 5-amino-1-[2,6-dichloro-4-(trifluoromethyl)phenyl]-4-(trifluoromethylsulfinyl)pyrazole-3-carboxylic acid
Formula: C12H5Cl2F6N3O3S
Exact mass: 454.9333
SMILES: NC1=C(C(=NN1C1=C(Cl)C=C(C=C1Cl)C(F)(F)F)C(O)=O)S(=O)C(F)(F)F
InChI: InChI=1S/C12H5Cl2F6N3O3S/c13-4-1-3(11(15,16)17)2-5(14)7(4)23-9(21)8(6(22-23)10(24)25)27(26)12(18,19)20/h1-2H,21H2,(H,24,25)
Instrument: Q Exactive Plus Orbitrap Thermo Scientific
Instrument type: LC-ESI-QFT
Ms type: MS2
Ion mode: POSITIVE
Ionization: ESI
Fragmentation mode: HCD
Collision energy: 60 % (nominal)
Resolution: 17500
Column name: XBridge C18 3.5um, 2.1x50mm, Waters
Retention time: 8.085 min
Base peak: 455.9408
Precursor m/z: 455.9406
Precursor type: [M+H]+
m/z	relative intensity	assigned
59.9902	9	CH2NS+
63.9853	2	H2NOS+
68.9947	9	CF3+
69.9747	7	C2NS+
69.9926	3	C2NO2+
88.9929	2	C2H3NOS+
127.9779	2	CH4Cl2N3+
157.014	3	C4H3F4NO+
167.9847	5	C7H3ClNO2+
185.9743	3	C3F4N3S+
187.9907	4	C7H4ClFNO2+
189.9863	3	C7H3ClF2NO+
191.9825	9	C7H2ClF3N+
200.9477	8	CHCl2F4N3+
203.9817	3	ClF3H6N3O2S+
207.9524	6	C7H2Cl2F2N+
209.9928	4	C7H4ClF3NO+
212.9477	16	C2HCl2F4N3+
218.9932	5	C8H3ClF3N2+
220.0007	29	C11HF3NO+
221.0088	11	C8H5ClF3N2+
223.978	9	CH3ClF6N2O2+
226.9892	6	C8H3ClFN3O2+
227.9587	212	C7H3Cl2F3N+
228.9659	11	C5ClF4N3O+
230.9927	5	C12F3NO+
234.9634	6	C9F5S+
236.9622	2	C2H2ClF6NO3+
237.9699	11	C8H4ClF3NS+
239.959	7	C8H3Cl2F3N+
242.9583	6	C3H3Cl2F4N3O+
244.9194	4	C4Cl2F5O2+
245.969	5	C10H2ClF3O2+
249.0035	8	C9H5ClF3N2O+
249.9698	12	C9H4ClF3NS+
254.9696	999	C9HF6S+
258.0038	366	C10H4ClF3N3+
262.965	620	C8H5Cl2F4O+
263.9733	3	C11H2ClFN2O3+
264.9779	10	C12HClF3N2+
269.9712	4	C12H5ClF2OS+
277.962	31	C11F6S+
280.9755	11	C11H5Cl2N3O2+
284.9382	3	C7ClF4N3OS+
289.9758	312	C9H6Cl2F4NO+
290.984	13	C10H5ClF3N3S+
292.9727	14	C11HF6NS+
305.9708	11	C9H6Cl2F4NO2+
