Mass spectrum: Albuterol; LC-ESI-ITFT; MS2; CE: 45%; R=7500; [M-H]-
Name: Albuterol
Name: Salbutamol
Name: 4-[2-(tert-butylamino)-1-hydroxy-ethyl]-2-methylol-phenol
Formula: C13H21NO3
Exact mass: 239.1521
SMILES: OCc1cc(ccc1O)C(O)CNC(C)(C)C
InChI: InChI=1S/C13H21NO3/c1-13(2,3)14-7-12(17)9-4-5-11(16)10(6-9)8-15/h4-6,12,14-17H,7-8H2,1-3H3
Instrument: LTQ Orbitrap XL Thermo Scientific
Instrument type: LC-ESI-ITFT
Ms type: MS2
Ion mode: NEGATIVE
Ionization: ESI
Fragmentation mode: HCD
Collision energy: 45 % (nominal)
Resolution: 7500
Column name: XBridge C18 3.5um, 2.1x50mm, Waters
Retention time: 2.1 min
Base peak: 174.9562
Precursor m/z: 238.1449
Precursor type: [M-H]-
m/z	relative intensity	assigned
163.0646	115	C9H9NO2-
190.1232	234	C12H16NO-
218.1186	999	C13H16NO2-
220.1343	393	C13H18NO2-
