Mass spectrum: Bromuconazole; LC-ESI-QFT; MS2; CE: 120; R=35000; [M+H]+
Name: Bromuconazole
Name: 1-[[4-bromo-2-(2,4-dichlorophenyl)oxolan-2-yl]methyl]-1,2,4-triazole
Formula: C13H12BrCl2N3O
Exact mass: 374.95408
SMILES: C1C(COC1(CN2C=NC=N2)C3=C(C=C(C=C3)Cl)Cl)Br
InChI: InChI=1S/C13H12BrCl2N3O/c14-9-4-13(20-5-9,6-19-8-17-7-18-19)11-2-1-10(15)3-12(11)16/h1-3,7-9H,4-6H2
Instrument: Q Exactive Plus Orbitrap Thermo Scientific
Instrument type: LC-ESI-QFT
Ms type: MS2
Ion mode: POSITIVE
Ionization: ESI
Fragmentation mode: HCD
Collision energy: 120 (nominal)
Resolution: 35000
Column name: XBridge C18 3.5um, 2.1x50mm, Waters
Retention time: 10.9 min
Base peak: 377.9586
Precursor m/z: 375.9614
Precursor type: [M+H]+
m/z	relative intensity	assigned
53.0387	1	C4H5+
61.0073	2	C5H+
62.0151	12	C5H2+
63.023	68	C5H3+
64.0308	2	C5H4+
65.0387	10	C5H5+
68.0258	5	C4H4O+
70.04	370	C2H4N3+
72.984	230	C3H2Cl+
74.0151	68	C6H2+
74.9997	13	C3H4Cl+
75.0229	9	C6H3+
76.0309	1	C6H4+
82.04	4	C3H4N3+
82.945	11	CHCl2+
84.9841	7	C4H2Cl+
86.9634	45	C3ClO+
87.0231	9	C7H3+
88.0308	21	C7H4+
89.0386	912	C7H5+
92.0258	3	C6H4O+
92.9336	8	CH2Br+
93.0336	5	C6H5O+
95.0493	2	C6H7O+
96.9841	94	C5H2Cl+
98.9997	411	C5H4Cl+
100.0075	10	C5H5Cl+
102.0465	4	C8H6+
103.0543	1	C8H7+
106.9451	6	C3HCl2+
106.9488	1	C2H4Br+
108.9841	189	C6H2Cl+
109.9918	7	C6H3Cl+
112.9791	1	C5H2ClO+
113.0155	2	C6H6Cl+
115.0544	17	C9H7+
118.9494	4	C3H4Br+
120.0208	11	C4H7ClNO+
120.9607	2	C4H3Cl2+
121.0286	3	C4H8ClNO+
122.9997	999	C7H4Cl+
124.0076	341	C7H5Cl+
126.0466	7	C10H6+
126.9947	4	C6H4ClO+
127.0543	8	C10H7+
128.0025	5	C6H5ClO+
128.0622	73	C10H8+
129.07	24	C10H9+
132.9608	189	C5H3Cl2+
139.0544	6	C11H7+
144.9608	25	C6H3Cl2+
145.065	8	C10H9O+
149.0155	11	C9H6Cl+
152.0024	1	C8H5ClO+
155.0606	18	C10H7N2+
155.9973	9	C4H8Cl2NO+
158.9765	827	C7H5Cl2+
162.0233	9	C10H7Cl+
162.9713	8	C6H5Cl2O+
172.9562	6	C7H3Cl2O+
172.967	74	C6H3Cl2N2+
182.9764	2	C9H5Cl2+
