Mass spectrum: Oxadiazon; LC-ESI-QFT; MS2; CE: 150; R=35000; [M+H]+
Name: Oxadiazon
Name: 5-tert-butyl-3-(2,4-dichloro-5-propan-2-yloxyphenyl)-1,3,4-oxadiazol-2-one
Formula: C15H18Cl2N2O3
Exact mass: 344.06945
SMILES: CC(C)OC1=C(C=C(C(=C1)N2C(=O)OC(=N2)C(C)(C)C)Cl)Cl
InChI: InChI=1S/C15H18Cl2N2O3/c1-8(2)21-12-7-11(9(16)6-10(12)17)19-14(20)22-13(18-19)15(3,4)5/h6-8H,1-5H3
Instrument: Q Exactive Plus Orbitrap Thermo Scientific
Instrument type: LC-ESI-QFT
Ms type: MS2
Ion mode: POSITIVE
Ionization: ESI
Fragmentation mode: HCD
Collision energy: 150 (nominal)
Resolution: 35000
Column name: XBridge C18 3.5um, 2.1x50mm, Waters
Retention time: 15.4 min
Base peak: 273.2055
Precursor m/z: 345.0767
Precursor type: [M+H]+
m/z	relative intensity	assigned
50.0151	107	C4H2+
51.023	15	C4H3+
52.0182	26	C3H2N+
53.0022	634	C3HO+
53.9974	6	C2NO+
55.0179	10	C3H3O+
56.0495	8	C3H6N+
57.0699	8	C4H9+
59.9762	4	C2HCl+
60.984	74	C2H2Cl+
61.9792	41	CHClN+
62.9632	565	CClO+
64.0182	39	C4H2N+
65.0022	20	C4HO+
65.026	68	C4H3N+
66.01	18	C4H2O+
66.0338	161	C4H4N+
67.0178	41	C4H3O+
68.0131	62	C3H2NO+
68.997	5	C3HO2+
69.9924	31	C2NO2+
72.9839	143	C3H2Cl+
73.9917	8	C3H3Cl+
74.0964	1	C4H12N+
75.0103	139	C5HN+
76.0181	363	C5H2N+
77.0021	51	C5HO+
77.0259	9	C5H3N+
78.0102	7	C5H2O+
78.0338	43	C5H4N+
79.0178	13	C5H3O+
82.945	3	CHCl2+
83.9762	15	C4HCl+
84.9839	999	C4H2Cl+
85.9792	14	C3HClN+
85.9918	20	C4H3Cl+
86.9632	201	C3ClO+
88.9789	137	C3H2ClO+
90.0105	1	C3H5ClN+
91.0541	3	C7H7+
92.0132	1	C5H2NO+
93.021	7	C5H3NO+
94.0288	336	C5H4NO+
95.0128	37	C5H3O2+
96.984	3	C5H2Cl+
99.9949	5	C4H3ClN+
101.0027	48	C4H4ClN+
101.9867	69	C4H3ClO+
104.013	1	C6H2NO+
106.0288	1	C6H4NO+
106.945	11	C3HCl2+
109.9792	109	C5HClN+
110.9871	14	C5H2ClN+
111.9949	24	C5H3ClN+
112.0393	8	C5H6NO2+
112.9789	129	C5H2ClO+
114.0104	1	C5H5ClN+
118.9449	3	C4HCl2+
119.953	1	C4H2Cl2+
120.9607	30	C4H3Cl2+
122.0237	10	C6H4NO2+
127.9898	8	C5H3ClNO+
128.9976	15	C5H4ClNO+
129.9817	9	C5H3ClO2+
130.0056	4	C5H5ClNO+
140.9737	3	C6H2ClO2+
148.9557	18	C5H3Cl2O+
160.9872	1	C5H4ClNO3+
