Mass spectrum: Dimethenamide ESA; LC-ESI-ITFT; MS2; CE: 35%; R=30000; [M-H]-
Name: Dimethenamide ESA
Name: 2-[(2,4-Dimethyl-3-thienyl)(1-methoxy-2-propanyl)amino]-2-oxoethanesulfonic acid
Formula: C12H19NO5S2
Exact mass: 321.0705
SMILES: S(C=C1C)C(C)=C1N(C(=O)CS(=O)(=O)O)C(COC)C
InChI: InChI=1S/C12H19NO5S2/c1-8-6-19-10(3)12(8)13(9(2)5-18-4)11(14)7-20(15,16)17/h6,9H,5,7H2,1-4H3,(H,15,16,17)
Instrument: LTQ Orbitrap XL Thermo Scientific
Instrument type: LC-ESI-ITFT
Ms type: MS2
Ion mode: NEGATIVE
Ionization: ESI
Fragmentation mode: CID
Collision energy: 35 % (nominal)
Resolution: 30000
Column name: XBridge C18 3.5um, 2.1x50mm, Waters
Retention time: 6.6 min
Base peak: 320.0627
Precursor m/z: 320.0632
Precursor type: [M-H]-
m/z	relative intensity	assigned
76.9702	4	CHO2S-
120.9601	999	C2HO4S-
127.0223	1	C6H7OS-
166.0694	37	C9H12NS-
192.0337	5	C6H10NO4S-
198.0955	13	C10H16NOS-
224.0747	23	C11H14NO2S-
229.9954	2	C8H8NO3S2-
246.9983	3	C8H9NO4S2-
248.0055	31	C8H10NO4S2-
256.1007	7	C12H18NO3S-
288.0367	77	C11H14NO4S2-
