Mass spectrum: Iobitridol; LC-ESI-ITFT; MS2; CE: 45%; R=15000; [M+H]+
Name: Iobitridol
Name: 1,3-Benzenedicarboxamide, N,N'-bis(2,3-dihydroxypropyl)-5-((5-hydroxy-2-(hydroxymethyl)-1-oxopropyl)amino)-2,4,6-triiodo-N,N'-dimethyl-
Name: 1-N,3-N-bis(2,3-dihydroxypropyl)-5-[[3-hydroxy-2-(hydroxymethyl)propanoyl]amino]-2,4,6-triiodo-1-N,3-N-dimethylbenzene-1,3-dicarboxamide
Formula: C20H28I3N3O9
Exact mass: 834.8960
SMILES: Ic1c(c(I)c(c(I)c1NC(=O)C(CO)CO)C(=O)N(CC(O)CO)C)C(=O)N(CC(O)CO)C
InChI: InChI=1S/C20H28I3N3O9/c1-25(3-10(31)7-29)19(34)12-14(21)13(20(35)26(2)4-11(32)8-30)16(23)17(15(12)22)24-18(33)9(5-27)6-28/h9-11,27-32H,3-8H2,1-2H3,(H,24,33)
Instrument: LTQ Orbitrap XL Thermo Scientific
Instrument type: LC-ESI-ITFT
Ms type: MS2
Ion mode: POSITIVE
Ionization: ESI
Fragmentation mode: HCD
Collision energy: 45 % (nominal)
Resolution: 15000
Column name: XBridge C18 3.5um, 2.1x50mm, Waters
Retention time: 1.6 min
Base peak: 149.0023
Precursor m/z: 835.9032
Precursor type: [M+H]+
m/z	relative intensity	assigned
88.0758	122	C4H10NO+
170.0236	95	C10H4NO2+
200.0334	78	C11H6NO3+
201.0416	63	C11H7NO3+
218.045	129	C11H8NO4+
243.0776	73	C13H11N2O3+
245.0921	75	C13H13N2O3+
273.0866	276	C14H13N2O4+
275.1034	137	C14H15N2O4+
293.9028	183	C7H3IO5+
297.9352	76	C10H5INO2+
313.9304	100	C10H5INO3+
317.9626	208	C11N3O9+
321.1078	161	C15H17N2O6+
328.9176	161	C10H4INO4+
339.9102	194	C11H3INO4+
343.9417	362	C11H7INO4+
358.9278	64	C11H6INO5+
361.9522	120	C11H9INO5+
369.9197	97	C12H5INO5+
387.9325	200	C12H7INO6+
400.9991	999	C14H14IN2O4+
405.9424	145	C12H9INO7+
423.833	126	C10H4I2NO2+
426.9786	206	C15H12IN2O5+
431.0097	243	C15H16IN2O5+
439.791	274	C9I2NO4+
449.0208	82	C15H18IN2O6+
451.8251	54	C6H4I2N3O5+
456.9937	67	C19H12IN3O3+
457.7987	71	C6H4I2O8+
497.8327	461	C12H6I2NO5+
554.8906	398	C15H13I2N2O5+
