Mass spectrum: 4-Formylaminoantipyrine; LC-ESI-ITFT; MS2; CE: 90%; R=30000; [M+H]+
Name: 4-Formylaminoantipyrine
Name: N-(1,5-dimethyl-3-oxidanylidene-2-phenyl-pyrazol-4-yl)methanamide
Formula: C12H13N3O2
Exact mass: 231.1008
SMILES: O=C2C(\NC=O)=C(\C)N(C)N2c1ccccc1
InChI: InChI=1S/C12H13N3O2/c1-9-11(13-8-16)12(17)15(14(9)2)10-6-4-3-5-7-10/h3-8H,1-2H3,(H,13,16)
Instrument: LTQ Orbitrap XL Thermo Scientific
Instrument type: LC-ESI-ITFT
Ms type: MS2
Ion mode: POSITIVE
Ionization: ESI
Fragmentation mode: HCD
Collision energy: 90 % (nominal)
Resolution: 30000
Column name: XBridge C18 3.5um, 2.1x50mm, Waters
Retention time: 3.7 min
Base peak: 232.1088
Precursor m/z: 232.1081
Precursor type: [M+H]+
m/z	relative intensity	assigned
53.0386	75	C4H5+
56.0495	999	C3H6N+
58.0651	18	C3H8N+
68.0494	12	C4H6N+
77.0386	637	C6H5+
81.0335	18	C5H5O+
81.0447	9	C4H5N2+
83.0604	869	C4H7N2+
85.0761	11	C4H9N2+
91.0542	14	C7H7+
92.0495	7	C6H6N+
94.0651	237	C6H8N+
95.0492	84	C6H7O+
104.0495	442	C7H6N+
105.0447	237	C6H5N2+
118.0651	20	C8H8N+
128.0494	32	C9H6N+
130.065	18	C9H8N+
131.0603	5	C8H7N2+
132.0808	22	C9H10N+
145.0761	11	C9H9N2+
146.0599	24	C9H8NO+
159.0917	26	C10H11N2+
171.0546	7	C10H7N2O+
172.0635	5	C10H8N2O+
