Mass spectrum: Aspirin; LC-ESI-QFT; MS2; CE: 90; R=35000; [M+H]+
Name: Aspirin
Name: Acetyl salicilic acid
Name: 2-acetyloxybenzoic acid
Formula: C9H8O4
Exact mass: 180.04226
SMILES: CC(=O)OC1=CC=CC=C1C(=O)O
InChI: InChI=1S/C9H8O4/c1-6(10)13-8-5-3-2-4-7(8)9(11)12/h2-5H,1H3,(H,11,12)
Instrument: Q Exactive Plus Orbitrap Thermo Scientific
Instrument type: LC-ESI-QFT
Ms type: MS2
Ion mode: POSITIVE
Ionization: ESI
Fragmentation mode: HCD
Collision energy: 90 (nominal)
Resolution: 35000
Column name: XBridge C18 3.5um, 2.1x50mm, Waters
Retention time: 20.3 min
Base peak: 391.2827
Precursor m/z: 181.0495
Precursor type: [M+H]+
m/z	relative intensity	assigned
50.015	12	C4H2+
51.0228	6	C4H3+
53.0021	7	C3HO+
53.0385	103	C4H5+
55.0178	14	C3H3O+
63.0228	6	C5H3+
64.0306	5	C5H4+
65.0384	999	C5H5+
67.0541	2	C5H7+
68.9969	3	C3HO2+
77.0384	218	C6H5+
79.0541	75	C6H7+
80.0255	9	C5H4O+
81.0333	13	C5H5O+
91.054	5	C7H7+
92.0255	246	C6H4O+
93.0334	122	C6H5O+
94.0412	7	C6H6O+
95.049	371	C6H7O+
98.0361	6	C5H6O2+
105.0333	110	C7H5O+
105.0446	251	C6H5N2+
106.0415	2	C7H6O+
107.049	8	C7H7O+
108.0204	1	C6H4O2+
109.0646	1	C7H9O+
110.036	2	C6H6O2+
111.0439	117	C6H7O2+
120.0204	30	C7H4O2+
121.0282	376	C7H5O2+
121.0394	310	C6H5N2O+
122.0365	2	C7H6O2+
133.0282	116	C8H5O2+
135.0438	152	C8H7O2+
138.0309	13	C7H6O3+
149.0231	251	C8H5O3+
163.0387	72	C9H7O3+
