Mass spectrum: Diaveridine; LC-ESI-QFT; MS2; CE: 75; R=35000; [M+H]+
Name: Diaveridine
Name: 5-[(3,4-dimethoxyphenyl)methyl]pyrimidine-2,4-diamine
Formula: C13H16N4O2
Exact mass: 260.12733
SMILES: COC1=C(C=C(C=C1)CC2=CN=C(N=C2N)N)OC
InChI: InChI=1S/C13H16N4O2/c1-18-10-4-3-8(6-11(10)19-2)5-9-7-16-13(15)17-12(9)14/h3-4,6-7H,5H2,1-2H3,(H4,14,15,16,17)
Instrument: Q Exactive Plus Orbitrap Thermo Scientific
Instrument type: LC-ESI-QFT
Ms type: MS2
Ion mode: POSITIVE
Ionization: ESI
Fragmentation mode: HCD
Collision energy: 75 (nominal)
Resolution: 35000
Column name: XBridge C18 3.5um, 2.1x50mm, Waters
Retention time: 3.4 min
Base peak: 261.1339
Precursor m/z: 261.1346
Precursor type: [M+H]+
m/z	relative intensity	assigned
52.0182	1	C3H2N+
54.0338	17	C3H4N+
60.0556	4	CH6N3+
68.0369	4	C3H4N2+
72.0318	3	C2H4N2O+
79.029	2	C4H3N2+
79.0542	1	C6H7+
81.0447	342	C4H5N2+
83.0478	1	C3H5N3+
86.0587	1	C2H6N4+
91.0542	2	C7H7+
95.0492	2	C6H7O+
96.0556	1	C4H6N3+
103.0542	1	C8H7+
106.0399	14	C5H4N3+
107.0491	65	C7H7O+
108.0569	2	C7H8O+
109.0509	3	C4H5N4+
110.0587	56	C4H6N4+
111.0665	27	C4H7N4+
123.0665	787	C5H7N4+
124.0519	1	C7H8O2+
124.0744	8	C5H8N4+
128.0494	1	C9H6N+
130.0651	3	C9H8N+
131.0493	6	C9H7O+
135.044	41	C8H7O2+
136.0519	1	C8H8O2+
144.0445	1	C9H6NO+
145.0761	1	C9H9N2+
146.0601	1	C9H8NO+
150.0548	1	C8H8NO2+
151.0754	15	C9H11O2+
155.0606	1	C10H7N2+
156.0444	3	C10H6NO+
158.0601	22	C10H8NO+
159.0679	1	C10H9NO+
161.0823	4	C8H9N4+
170.0601	1	C11H8NO+
170.0714	2	C10H8N3+
171.0678	9	C11H9NO+
171.0791	1	C10H9N3+
172.087	9	C10H10N3+
173.0711	8	C10H9N2O+
173.0822	11	C9H9N4+
175.0865	2	C10H11N2O+
175.0979	2	C9H11N4+
182.0713	5	C11H8N3+
184.0394	1	C11H6NO2+
185.0821	3	C10H9N4+
186.0547	3	C11H8NO2+
186.0659	1	C10H8N3O+
187.0978	54	C10H11N4+
188.1057	16	C10H12N4+
198.0662	2	C11H8N3O+
199.0738	2	C11H9N3O+
199.0979	8	C11H11N4+
200.0819	21	C11H10N3O+
200.1057	11	C11H12N4+
201.066	4	C11H9N2O2+
201.1131	3	C11H13N4+
202.086	1	C12H12NO2+
203.082	2	C11H11N2O2+
203.0927	37	C10H11N4O+
214.0848	2	C11H10N4O+
215.0929	50	C11H11N4O+
216.1006	28	C11H12N4O+
217.1085	136	C11H13N4O+
226.0608	2	C12H8N3O2+
227.0928	2	C12H11N4O+
228.0768	9	C12H10N3O2+
229.1084	13	C12H13N4O+
230.0798	2	C11H10N4O2+
231.0878	9	C11H11N4O2+
232.0961	3	C11H12N4O2+
243.0878	72	C12H11N4O2+
245.1033	999	C12H13N4O2+
246.1114	3	C12H14N4O2+
261.135	2	C13H17N4O2+
