Mass spectrum: Oseltamivir carboxylate; LC-ESI-ITFT; MS2; CE: 75%; R=7500; [M+H]+
Name: Oseltamivir carboxylate
Name: (3R,4R,5S)-4-acetamido-5-amino-3-pentan-3-yloxycyclohexene-1-carboxylic acid
Formula: C14H24N2O4
Exact mass: 284.1736
SMILES: CCC(CC)O[C@@H]1C=C(C[C@@H]([C@H]1NC(=O)C)N)C(=O)O
InChI: InChI=1S/C14H24N2O4/c1-4-10(5-2)20-12-7-9(14(18)19)6-11(15)13(12)16-8(3)17/h7,10-13H,4-6,15H2,1-3H3,(H,16,17)(H,18,19)/t11-,12+,13+/m0/s1
Instrument: LTQ Orbitrap XL Thermo Scientific
Instrument type: LC-ESI-ITFT
Ms type: MS2
Ion mode: POSITIVE
Ionization: ESI
Fragmentation mode: HCD
Collision energy: 75 % (nominal)
Resolution: 7500
Column name: XBridge C18 3.5um, 2.1x50mm, Waters
Retention time: 5.1 min
Base peak: 285.1822
Precursor m/z: 285.1809
Precursor type: [M+H]+
m/z	relative intensity	assigned
53.0387	8	C4H5+
60.0444	24	C2H6NO+
65.0386	133	C5H5+
67.0543	151	C5H7+
68.0495	27	C4H6N+
77.0386	73	C6H5+
80.0495	38	C5H6N+
82.0651	41	C5H8N+
83.0493	23	C5H7O+
92.0495	157	C6H6N+
93.0336	179	C6H5O+
93.0573	46	C6H7N+
94.0652	999	C6H8N+
95.049	37	C6H7O+
105.0446	19	C6H5N2+
108.0444	10	C6H6NO+
109.052	11	C6H7NO+
109.0761	100	C6H9N2+
110.06	133	C6H8NO+
111.0443	13	C6H7O2+
119.0605	41	C7H7N2+
120.0444	752	C7H6NO+
121.028	12	C7H5O2+
133.0762	8	C8H9N2+
134.0597	12	C8H8NO+
137.071	201	C7H9N2O+
138.055	553	C7H8NO2+
156.0662	7	C7H10NO3+
161.0711	8	C9H9N2O+
162.055	20	C9H8NO2+
