Mass spectrum: 5-Chloro-2-methyl-4-isothiazolin-3-one (CMI); LC-ESI-ITFT; MS2; CE: 45%; R=7500; [M+H]+
Name: 5-Chloro-2-methyl-4-isothiazolin-3-one (CMI)
Name: 3(2H)-Isothiazolone, 5-chloro-2-methyl-
Name: 5-chloranyl-2-methyl-1,2-thiazol-3-one
Formula: C4H4ClNOS
Exact mass: 148.9702
SMILES: c1(n(sc(c1)Cl)C)=O
InChI: InChI=1S/C4H4ClNOS/c1-6-4(7)2-3(5)8-6/h2H,1H3
Instrument: LTQ Orbitrap XL Thermo Scientific
Instrument type: LC-ESI-ITFT
Ms type: MS2
Ion mode: POSITIVE
Ionization: ESI
Fragmentation mode: HCD
Collision energy: 45 % (nominal)
Resolution: 7500
Column name: XBridge C18 3.5um, 2.1x50mm, Waters
Retention time: 3.7 min
Base peak: 149.9773
Precursor m/z: 149.9775
Precursor type: [M+H]+
m/z	relative intensity	assigned
58.0287	1	C2H4NO+
70.9951	1	C3H3S+
78.0107	1	C2H5ClN+
78.9403	1	CClS+
86.006	1	C3H4NS+
94.9719	1	C2H4ClS+
95.9904	3	C4H2NS+
102.9947	1	C4H4ClO+
104.9562	2	C3H2ClS+
106.0055	1	C3H5ClNO+
106.9718	3	C3H4ClS+
115.0088	11	C4H5NOS+
116.9977	1	C4H4ClNO+
118.9355	4	C3ClOS+
120.9513	3	C3H2ClOS+
132.9511	2	C4H2ClOS+
134.954	3	C3H2ClNOS+
149.9777	999	C4H5ClNOS+
