Mass spectrum: Chlorpyrifos; LC-ESI-ITFT; MS2; CE: 45%; R=15000; [M+H]+
Name: Chlorpyrifos
Name: diethoxy-sulfanylidene-(3,5,6-trichloropyridin-2-yl)oxy-{5}-phosphane
Formula: C9H11Cl3NO3PS
Exact mass: 348.9263
SMILES: Clc1c(OP(=S)(OCC)OCC)nc(Cl)c(Cl)c1
InChI: InChI=1S/C9H11Cl3NO3PS/c1-3-14-17(18,15-4-2)16-9-7(11)5-6(10)8(12)13-9/h5H,3-4H2,1-2H3
Instrument: LTQ Orbitrap XL Thermo Scientific
Instrument type: LC-ESI-ITFT
Ms type: MS2
Ion mode: POSITIVE
Ionization: ESI
Fragmentation mode: HCD
Collision energy: 45 % (nominal)
Resolution: 15000
Column name: XBridge C18 3.5um, 2.1x50mm, Waters
Retention time: 16.0 min
Base peak: 349.9337
Precursor m/z: 349.9336
Precursor type: [M+H]+
m/z	relative intensity	assigned
78.9403	1	OPS+
96.9508	453	H2O2PS+
98.9843	1	CH4ClO3+
106.945	1	C3HCl2+
109.0047	2	C2H6O3P+
110.9664	2	CH4O2PS+
114.9613	781	H4O3PS+
116.9654	1	C4H3ClP+
124.9821	42	C2H6O2PS+
128.977	2	CH6O3PS+
133.9559	1	C4H2Cl2N+
142.9926	9	C2H8O3PS+
153.0134	1	C4H10O2PS+
171.024	3	C5H12ClO2S+
179.9613	6	C5H4Cl2NO2+
197.9275	999	C5H3Cl3NO+
213.9046	167	C5H3Cl3NS+
225.9583	1	C6H7Cl2NO2P+
275.8604	55	C5H2Cl3NO2PS+
277.8938	4	C5H4Cl3NO4P+
293.871	54	C5H4Cl3NO3PS+
321.9192	5	C9H3Cl3N3O4+
325.9228	1	C9H8Cl3N3PS+
