Mass spectrum: Uniconazole; LC-ESI-QFT; MS2; CE: 60; R=35000; [M+H]+
Name: Uniconazole
Name: 1-(4-chlorophenyl)-4,4-dimethyl-2-(1,2,4-triazol-1-yl)pent-1-en-3-ol
Formula: C15H18ClN3O
Exact mass: 291.11384
SMILES: CC(C)(C)C(C(=CC1=CC=C(C=C1)Cl)N2C=NC=N2)O
InChI: InChI=1S/C15H18ClN3O/c1-15(2,3)14(20)13(19-10-17-9-18-19)8-11-4-6-12(16)7-5-11/h4-10,14,20H,1-3H3
Instrument: Q Exactive Plus Orbitrap Thermo Scientific
Instrument type: LC-ESI-QFT
Ms type: MS2
Ion mode: POSITIVE
Ionization: ESI
Fragmentation mode: HCD
Collision energy: 60 (nominal)
Resolution: 35000
Column name: XBridge C18 3.5um, 2.1x50mm, Waters
Retention time: 11.8 min
Base peak: 292.1207
Precursor m/z: 292.1211
Precursor type: [M+H]+
m/z	relative intensity	assigned
55.0543	1	C4H7+
57.0699	18	C4H9+
59.0492	2	C3H7O+
69.0699	14	C5H9+
70.04	999	C2H4N3+
87.0805	10	C5H11O+
91.0542	2	C7H7+
93.0699	2	C7H9+
97.0648	1	C6H9O+
102.0464	2	C8H6+
103.0542	4	C8H7+
115.0542	1	C9H7+
125.0153	97	C7H6Cl+
128.062	7	C10H8+
129.01	1	C6H6ClO+
129.0698	2	C10H9+
130.0777	2	C10H10+
131.0491	2	C9H7O+
132.0568	1	C9H8O+
137.0153	13	C8H6Cl+
138.9946	29	C7H4ClO+
139.0057	5	C6H4ClN2+
139.0309	7	C8H8Cl+
141.0698	5	C11H9+
142.0778	16	C11H10+
144.0936	1	C11H12+
145.0648	3	C10H9O+
146.0727	1	C10H10O+
149.0153	3	C9H6Cl+
151.0308	2	C9H8Cl+
155.0605	4	C10H7N2+
155.0855	16	C12H11+
156.0682	2	C10H8N2+
156.0934	1	C12H12+
157.0633	2	C9H7N3+
159.0806	2	C11H11O+
163.0309	7	C10H8Cl+
169.0761	3	C11H9N2+
169.1012	2	C13H13+
170.109	21	C13H14+
173.0962	1	C12H13O+
176.0389	3	C11H9Cl+
177.0467	3	C11H10Cl+
182.0713	6	C11H8N3+
183.0792	8	C11H9N3+
190.0544	6	C12H11Cl+
191.0371	1	C10H8ClN2+
192.0324	1	C9H7ClN3+
196.0872	2	C12H10N3+
197.0948	1	C12H11N3+
205.0778	1	C13H14Cl+
218.0481	4	C11H9ClN3+
230.0483	1	C12H9ClN3+
231.0558	1	C12H10ClN3+
232.0636	1	C12H11ClN3+
244.0637	2	C13H11ClN3+
258.0793	1	C14H13ClN3+
