Mass spectrum: Nordeprenyl; LC-ESI-QFT; MS2; CE: 120; R=35000; [M+H]+
Name: Nordeprenyl
Name: Desmethylselegiline
Name: 1-phenyl-N-prop-2-ynylpropan-2-amine
Formula: C12H15N
Exact mass: 173.12045
SMILES: CC(Cc1ccccc1)NCC#C
InChI: InChI=1S/C12H15N/c1-3-9-13-11(2)10-12-7-5-4-6-8-12/h1,4-8,11,13H,9-10H2,2H3
Instrument: Q Exactive Plus Orbitrap Thermo Scientific
Instrument type: LC-ESI-QFT
Ms type: MS2
Ion mode: POSITIVE
Ionization: ESI
Fragmentation mode: HCD
Collision energy: 120 (nominal)
Resolution: 35000
Column name: XBridge C18 3.5um, 2.1x50mm, Waters
Retention time: 4.2 min
Base peak: 174.1275
Precursor m/z: 174.1277
Precursor type: [M+H]+
m/z	relative intensity	assigned
50.015	1	C4H2+
51.0228	1	C4H3+
53.0022	2	C3HO+
56.0495	2	C3H6N+
63.0229	6	C5H3+
65.0385	234	C5H5+
77.0386	1	C6H5+
79.0542	1	C6H7+
91.0542	999	C7H7+
95.0492	2	C6H7O+
103.0543	1	C8H7+
104.0621	1	C8H8+
105.0447	1	C6H5N2+
115.0542	1	C9H7+
