Mass spectrum: Fenson; LC-ESI-QFT; MS2; CE: 180%; R=17500; [M+H]+
Name: Fenson
Name: (4-chlorophenyl) benzenesulfonate
Formula: C12H9ClO3S
Exact mass: 267.9961
SMILES: C1=CC=C(C=C1)S(=O)(=O)OC2=CC=C(C=C2)Cl
InChI: InChI=1S/C12H9ClO3S/c13-10-6-8-11(9-7-10)16-17(14,15)12-4-2-1-3-5-12/h1-9H
Instrument: Exploris 240 Orbitrap Thermo Scientific
Instrument type: LC-ESI-QFT
Ms type: MS2
Ion mode: POSITIVE
Ionization: ESI
Fragmentation mode: HCD
Collision energy: 180 % (nominal)
Resolution: 17500
Column name: XBridge C18 3.5um, 2.1x50mm, Waters
Retention time: 9.705 min
Base peak: 170.0965
Precursor m/z: 269.0034
Precursor type: [M+H]+
m/z	relative intensity	assigned
50.0151	260	C4H2+
51.023	999	C4H3+
53.0387	51	C4H5+
63.023	127	C5H3+
65.0385	78	C5H5+
72.984	589	C3H2Cl+
74.0152	114	C6H2+
75.0231	109	C6H3+
77.0387	140	C6H5+
95.0494	47	C6H7O+
98.9994	73	C5H4Cl+
