Mass spectrum: Fenamiphos-sulfone; LC-ESI-QFT; MS2; CE: 90; R=35000; [M+H]+
Name: Fenamiphos-sulfone
Name: Fenamiphos sulphone
Name: Ethyl 3-methyl-4-(methylsulfonyl)phenyl isopropylphosphoramidate
Formula: C13H22NO5PS
Exact mass: 335.09563
SMILES: CCOP(=O)(NC(C)C)OC1=CC(=C(C=C1)S(=O)(=O)C)C
InChI: InChI=1S/C13H22NO5PS/c1-6-18-20(15,14-10(2)3)19-12-7-8-13(11(4)9-12)21(5,16)17/h7-10H,6H2,1-5H3,(H,14,15)
Instrument: Q Exactive Plus Orbitrap Thermo Scientific
Instrument type: LC-ESI-QFT
Ms type: MS2
Ion mode: POSITIVE
Ionization: ESI
Fragmentation mode: HCD
Collision energy: 90 (nominal)
Resolution: 35000
Column name: XBridge C18 3.5um, 2.1x50mm, Waters
Retention time: 7.5 min
Base peak: 336.1023
Precursor m/z: 336.1029
Precursor type: [M+H]+
m/z	relative intensity	assigned
50.0151	2	C4H2+
51.0229	3	C4H3+
53.0022	4	C3HO+
53.0386	12	C4H5+
55.0178	5	C3H3O+
58.0652	6	C3H8N+
63.0229	4	C5H3+
65.0386	158	C5H5+
66.0464	21	C5H6+
67.0542	41	C5H7+
68.0257	1	C4H4O+
77.0385	21	C6H5+
78.0464	21	C6H6+
78.9848	66	CH3O2S+
79.0542	134	C6H7+
80.062	114	C6H8+
81.0336	2	C5H5O+
81.0699	32	C6H9+
85.0106	2	C4H5S+
89.0386	24	C7H5+
90.0465	72	C7H6+
91.0543	668	C7H7+
92.062	2	C7H8+
93.0336	10	C6H5O+
93.0574	6	C6H7N+
93.07	5	C7H9+
94.0414	36	C6H6O+
95.0492	62	C6H7O+
97.0107	8	C5H5S+
98.0002	99	H5NO3P+
98.9843	1	H4O4P+
99.0265	1	CH10NPS+
103.0543	7	C8H7+
105.0336	10	C7H5O+
105.0448	26	C6H5N2+
105.0699	6	C8H9+
106.0415	8	C3H9NOP+
106.0652	29	C7H8N+
107.0492	468	C7H7O+
107.073	31	C7H9N+
108.057	999	C7H8O+
109.0648	328	C7H9O+
111.0263	56	C6H7S+
112.0158	29	CH7NO3P+
113.0151	2	C5H6OP+
115.0543	8	C9H7+
117.0699	14	C9H9+
119.0605	86	C7H7N2+
120.0571	1	C8H8O+
121.0107	4	C7H5S+
121.0285	8	C7H5O2+
121.0396	1	C6H5N2O+
121.0648	19	C8H9O+
122.0363	3	C7H6O2+
122.06	1	C7H8NO+
123.0263	2	C7H7S+
123.0441	22	C7H7O2+
124.052	5	C3H11NO2P+
125.0057	2	C6H5OS+
126.0134	1	C6H6OS+
127.0306	2	C6H8OP+
133.0203	1	C8H6P+
134.0965	2	C9H12N+
135.0804	2	C9H11O+
137.0057	8	C7H5OS+
139.0213	31	C7H7OS+
141.0101	2	C6H6O2P+
143.0258	2	C6H8O2P+
152.0022	2	C7H5O2P+
152.0261	12	C7H7NOP+
153.01	28	C7H6O2P+
154.0085	1	C3H9NO2PS+
159.0205	3	C6H8O3P+
170.0128	8	C7H7O3P+
170.0366	26	C7H9NO2P+
171.0205	10	C7H8O3P+
184.9998	4	C7H6O4P+
185.0267	2	C8H9O3S+
186.0077	2	C7H7O4P+
187.0158	4	C7H8O4P+
187.0395	2	C7H10NO3P+
188.0472	53	C11H8O3+
188.977	2	C6H6O3PS+
197.0365	8	C9H10O3P+
