Mass spectrum: Mycophenolic acid; LC-ESI-ITFT; MS2; CE: 35%; R=30000; [M-H]-
Name: Mycophenolic acid
Name: (E)-6-(4-hydroxy-3-keto-6-methoxy-7-methyl-phthalan-5-yl)-4-methyl-hex-4-enoic acid
Formula: C17H20O6
Exact mass: 320.1260
SMILES: c12c(c(c(C\C=C(\CCC(O)=O)C)c(c1C)OC)O)C(=O)OC2
InChI: InChI=1S/C17H20O6/c1-9(5-7-13(18)19)4-6-11-15(20)14-12(8-23-17(14)21)10(2)16(11)22-3/h4,20H,5-8H2,1-3H3,(H,18,19)/b9-4+
Instrument: LTQ Orbitrap XL Thermo Scientific
Instrument type: LC-ESI-ITFT
Ms type: MS2
Ion mode: NEGATIVE
Ionization: ESI
Fragmentation mode: CID
Collision energy: 35 % (nominal)
Resolution: 30000
Column name: XBridge C18 3.5um, 2.1x50mm, Waters
Retention time: 9.6 min
Base peak: 319.1183
Precursor m/z: 319.1187
Precursor type: [M-H]-
m/z	relative intensity	assigned
135.0457	2	C8H7O2-
179.0349	467	C9H7O4-
191.0349	372	C10H7O4-
192.0426	7	C10H8O4-
199.1127	9	C14H15O-
207.0656	4	C11H11O4-
215.1084	1	C14H15O2-
225.0921	1	C15H13O2-
228.0785	1	C14H12O3-
229.0512	1	C13H9O4-
233.0813	6	C13H13O4-
243.0666	6	C14H11O4-
243.1025	67	C15H15O3-
245.082	5	C14H13O4-
259.0978	2	C15H15O4-
269.0817	42	C16H13O4-
275.1287	398	C16H19O4-
285.077	8	C16H13O5-
287.0924	999	C16H15O5-
301.108	6	C17H17O5-
