Mass spectrum: Pramoxine; LC-ESI-QFT; MS2; CE: 120; R=35000; [M+H]+
Name: Pramoxine
Name: 4-[3-(4-butoxyphenoxy)propyl]morpholine
Formula: C17H27NO3
Exact mass: 293.19909
SMILES: CCCCOC1=CC=C(C=C1)OCCCN2CCOCC2
InChI: InChI=1S/C17H27NO3/c1-2-3-12-20-16-5-7-17(8-6-16)21-13-4-9-18-10-14-19-15-11-18/h5-8H,2-4,9-15H2,1H3
Instrument: Q Exactive Plus Orbitrap Thermo Scientific
Instrument type: LC-ESI-QFT
Ms type: MS2
Ion mode: POSITIVE
Ionization: ESI
Fragmentation mode: HCD
Collision energy: 120 (nominal)
Resolution: 35000
Column name: XBridge C18 3.5um, 2.1x50mm, Waters
Retention time: 7.3 min
Base peak: 294.206
Precursor m/z: 294.2064
Precursor type: [M+H]+
m/z	relative intensity	assigned
50.0151	2	C4H2+
51.0229	3	C4H3+
53.0022	15	C3HO+
53.0386	20	C4H5+
53.9974	3	C2NO+
54.0338	10	C3H4N+
55.0179	51	C3H3O+
55.0417	4	C3H5N+
55.0543	6	C4H7+
56.0495	722	C3H6N+
57.0573	18	C3H7N+
57.0698	6	C4H9+
58.0651	84	C3H8N+
65.0386	263	C5H5+
67.0542	109	C5H7+
67.9893	1	C3O2+
68.0495	11	C4H6N+
68.9971	18	C3HO2+
69.0335	2	C4H5O+
69.0573	1	C4H7N+
69.0698	8	C5H9+
70.0651	567	C4H8N+
71.0729	5	C4H9N+
72.0443	12	C3H6NO+
72.0807	204	C4H10N+
77.0385	21	C6H5+
79.0542	18	C6H7+
81.0335	44	C5H5O+
82.0413	4	C5H6O+
82.0651	13	C5H8N+
84.0807	12	C5H10N+
85.0522	8	C4H7NO+
86.06	115	C4H8NO+
88.0757	1	C4H10NO+
91.0543	3	C7H7+
93.0335	5	C6H5O+
94.0413	1	C6H6O+
95.0491	76	C6H7O+
96.0809	1	C6H10N+
98.0601	4	C5H8NO+
98.0964	5	C6H12N+
100.0756	999	C5H10NO+
103.0542	5	C8H7+
105.0447	21	C6H5N2+
105.0699	2	C8H9+
107.0491	3	C7H7O+
109.0285	6	C6H5O2+
110.0362	15	C6H6O2+
111.0441	30	C6H7O2+
121.0396	34	C6H5N2O+
123.044	42	C7H7O2+
