Mass spectrum: Sulfamethoxazole; LC-ESI-ITFT; MS2; CE: 35%; R=7500; [M+H]+
Name: Sulfamethoxazole
Name: 4-Amino-N-(5-methyl-3-isoxazolyl)benzenesulfonamide
Name: 4-amino-N-(5-methyl-1,2-oxazol-3-yl)benzenesulfonamide
Formula: C10H11N3O3S
Exact mass: 253.0521
SMILES: c1(S(Nc2cc(C)on2)(=O)=O)ccc(N)cc1
InChI: InChI=1S/C10H11N3O3S/c1-7-6-10(12-16-7)13-17(14,15)9-4-2-8(11)3-5-9/h2-6H,11H2,1H3,(H,12,13)
Instrument: LTQ Orbitrap XL Thermo Scientific
Instrument type: LC-ESI-ITFT
Ms type: MS2
Ion mode: POSITIVE
Ionization: ESI
Fragmentation mode: CID
Collision energy: 35 % (nominal)
Resolution: 7500
Column name: XBridge C18 3.5um, 2.1x50mm, Waters
Retention time: 4.6 min
Base peak: 254.0603
Precursor m/z: 254.0594
Precursor type: [M+H]+
m/z	relative intensity	assigned
92.0495	54	C6H6N+
93.0573	25	C6H7N+
94.065	36	C6H8N+
99.0553	18	C4H7N2O+
107.0604	27	C6H7N2+
108.0444	122	C6H6NO+
131.0606	7	C8H7N2+
146.0713	121	C8H8N3+
147.0791	524	C8H9N3+
148.0868	125	C8H10N3+
156.0115	999	C6H6NO2S+
160.0869	171	C9H10N3+
161.0017	4	C4H5N2O3S+
161.0708	10	C9H9N2O+
172.0873	13	C10H10N3+
176.0276	25	C8H6N3S+
188.082	993	C10H10N3O+
190.0975	375	C10H12N3O+
194.0383	333	C8H8N3OS+
236.0488	129	C10H10N3O2S+
254.0593	37	C10H12N3O3S+
