Mass spectrum: Tenofovir; LC-ESI-QFT; MS2; CE: 75; R=35000; [M+H]+
Name: Tenofovir
Name: [(1R)-2-adenin-9-yl-1-methyl-ethoxy]methylphosphonic acid
Formula: C9H14N5O4P
Exact mass: 287.07834
SMILES: O=P(O)(O)CO[C@H](C)Cn1c2ncnc(c2nc1)N
InChI: InChI=1S/C9H14N5O4P/c1-6(18-5-19(15,16)17)2-14-4-13-7-8(10)11-3-12-9(7)14/h3-4,6H,2,5H2,1H3,(H2,10,11,12)(H2,15,16,17)/t6-/m1/s1
Instrument: Q Exactive Orbitrap Thermo Scientific
Instrument type: LC-ESI-QFT
Ms type: MS2
Ion mode: POSITIVE
Ionization: ESI
Fragmentation mode: HCD
Collision energy: 75 (nominal)
Resolution: 35000
Column name: XBridge C18 3.5um, 2.1x50mm, Waters
Retention time: 1.0 min
Base peak: 157.0352
Precursor m/z: 288.0856
Precursor type: [M+H]+
m/z	relative intensity	assigned
53.0023	3	C3HO+
58.0653	2	C3H8N+
59.0492	123	C3H7O+
64.9787	116	H2O2P+
67.0291	3	C3H3N2+
68.0494	9	C4H6N+
71.0491	9	C4H7O+
78.0338	1	C5H4N+
80.0495	3	C5H6N+
82.04	21	C3H4N3+
82.9892	20	H4O3P+
92.0242	1	C4H2N3+
94.0399	11	C4H4N3+
94.9892	2	CH4O3P+
95.0603	4	C5H7N2+
95.9971	2	CH5O3P+
97.0049	2	CH6O3P+
104.0244	1	C5H2N3+
105.0101	11	C3H6O2P+
105.0447	22	C6H5N2+
106.04	1	C5H4N3+
107.0604	7	C6H7N2+
108.043	8	C4H4N4+
108.0557	1	C5H6N3+
109.0509	13	C4H5N4+
112.0506	1	C4H6N3O+
112.9998	92	CH6O4P+
119.0352	43	C5H3N4+
121.0508	11	C5H5N4+
122.0712	21	C6H8N3+
125.0709	2	C6H9N2O+
131.0103	1	H2N7P+
131.0352	12	C6H3N4+
132.0556	72	C7H6N3+
133.0508	4	C6H5N4+
134.0588	6	C6H6N4+
134.0713	20	C7H8N3+
135.0539	51	C5H5N5+
136.0618	447	C5H6N5+
137.0458	33	C5H5N4O+
148.0618	84	C6H6N5+
149.0458	59	C6H5N4O+
149.0696	4	C6H7N5+
149.0822	79	C7H9N4+
150.0661	9	C7H8N3O+
152.0819	21	C7H10N3O+
159.0665	491	C8H7N4+
161.0695	15	C7H7N5+
162.0773	8	C7H8N5+
166.0723	4	C6H8N5O+
174.0779	1	C8H8N5+
176.0931	999	C8H10N5+
177.077	217	C8H9N4O+
182.0228	2	C5H5N5OP+
192.0879	12	C8H10N5O+
194.1036	3	C8H12N5O+
206.1036	34	C9H12N5O+
212.0335	6	C6H7N5O2P+
222.0981	4	C9H12N5O2+
240.0644	48	C8H11N5O2P+
252.0646	7	C9H11N5O2P+
270.0749	5	C9H13N5O3P+
288.086	3	C9H15N5O4P+
