Mass spectrum: Dropropizine; LC-ESI-QFT; MS2; CE: 15; R=35000; [M+H]+
Name: Dropropizine
Name: 3-(4-phenylpiperazin-1-yl)propane-1,2-diol
Formula: C13H20N2O2
Exact mass: 236.15248
SMILES: C1CN(CCN1CC(CO)O)C2=CC=CC=C2
InChI: InChI=1S/C13H20N2O2/c16-11-13(17)10-14-6-8-15(9-7-14)12-4-2-1-3-5-12/h1-5,13,16-17H,6-11H2
Instrument: Q Exactive Orbitrap Thermo Scientific
Instrument type: LC-ESI-QFT
Ms type: MS2
Ion mode: POSITIVE
Ionization: ESI
Fragmentation mode: HCD
Collision energy: 15 (nominal)
Resolution: 35000
Column name: XBridge C18 3.5um, 2.1x50mm, Waters
Retention time: 2.9 min
Base peak: 237.1598
Precursor m/z: 237.1598
Precursor type: [M+H]+
m/z	relative intensity	assigned
70.065	1	C4H8N+
118.0862	3	C5H12NO2+
132.0807	1	C9H10N+
160.0994	2	C10H12N2+
175.1228	2	C11H15N2+
189.1385	2	C12H17N2+
219.149	3	C13H19N2O+
237.1597	999	C13H21N2O2+
