Mass spectrum: Fentanyl; LC-ESI-QFT; MS2; CE: 120; R=35000; [M+H]+
Name: Fentanyl
Name: N-phenyl-N-[1-(2-phenylethyl)piperidin-4-yl]propanamide
Formula: C22H28N2O
Exact mass: 336.22016
SMILES: CCC(=O)N(C1CCN(CC1)CCC2=CC=CC=C2)C3=CC=CC=C3
InChI: InChI=1S/C22H28N2O/c1-2-22(25)24(20-11-7-4-8-12-20)21-14-17-23(18-15-21)16-13-19-9-5-3-6-10-19/h3-12,21H,2,13-18H2,1H3
Instrument: Q Exactive Plus Orbitrap Thermo Scientific
Instrument type: LC-ESI-QFT
Ms type: MS2
Ion mode: POSITIVE
Ionization: ESI
Fragmentation mode: HCD
Collision energy: 120 (nominal)
Resolution: 35000
Column name: XBridge C18 3.5um, 2.1x50mm, Waters
Retention time: 6.0 min
Base peak: 337.2264
Precursor m/z: 337.2274
Precursor type: [M+H]+
m/z	relative intensity	assigned
50.0151	30	C4H2+
51.0229	28	C4H3+
53.0386	152	C4H5+
54.0338	1	C3H4N+
55.0179	10	C3H3O+
55.0542	33	C4H7+
56.0494	11	C3H6N+
57.0335	7	C3H5O+
63.0228	1	C5H3+
65.0022	1	C4HO+
65.0385	10	C5H5+
67.0542	7	C5H7+
68.0494	1	C4H6N+
68.9971	2	C3HO2+
70.0651	1	C4H8N+
77.0385	287	C6H5+
78.0463	4	C6H6+
79.0542	916	C6H7+
81.0334	18	C5H5O+
82.065	1	C5H8N+
84.0807	5	C5H10N+
89.0386	1	C7H5+
90.0464	3	C7H6+
91.0542	43	C7H7+
93.0697	1	C7H9+
94.0413	5	C6H6O+
94.0651	22	C6H8N+
95.0491	481	C6H7O+
102.0463	11	C8H6+
103.0542	702	C8H7+
104.0493	1	C7H6N+
104.0619	8	C8H8+
105.0447	338	C6H5N2+
105.0698	999	C8H9+
106.0416	1	C7H6O+
109.0646	1	C7H9O+
115.0542	30	C9H7+
116.0618	1	C9H8+
117.0572	43	C8H7N+
117.0697	8	C9H9+
118.065	5	C8H8N+
119.0731	1	C8H9N+
120.0808	1	C8H10N+
128.062	3	C10H8+
130.0651	17	C9H8N+
131.0729	7	C9H9N+
132.0807	8	C9H10N+
143.0729	1	C10H9N+
144.0807	4	C10H10N+
146.0962	1	C10H12N+
