Mass spectrum: Triallate; LC-ESI-QFT; MS2; CE: 75; R=35000; [M+H]+
Name: Triallate
Name: S-(2,3,3-trichloroprop-2-enyl) N,N-di(propan-2-yl)carbamothioate
Formula: C10H16Cl3NOS
Exact mass: 303.00182
SMILES: CC(C)N(C(C)C)C(=O)SCC(=C(Cl)Cl)Cl
InChI: InChI=1S/C10H16Cl3NOS/c1-6(2)14(7(3)4)10(15)16-5-8(11)9(12)13/h6-7H,5H2,1-4H3
Instrument: Q Exactive Plus Orbitrap Thermo Scientific
Instrument type: LC-ESI-QFT
Ms type: MS2
Ion mode: POSITIVE
Ionization: ESI
Fragmentation mode: HCD
Collision energy: 75 (nominal)
Resolution: 35000
Column name: XBridge C18 3.5um, 2.1x50mm, Waters
Retention time: 15.9 min
Base peak: 279.1584
Precursor m/z: 304.0091
Precursor type: [M+H]+
m/z	relative intensity	assigned
53.0022	14	C3HO+
53.9975	2	C2NO+
55.0542	5	C4H7+
57.0699	2	C4H9+
58.0651	81	C3H8N+
59.9664	1	COS+
60.9839	1	C2H2Cl+
67.0541	1	C5H7+
69.0698	15	C5H9+
72.9838	2	C3H2Cl+
78.9403	16	CClS+
80.0494	1	C5H6N+
80.9561	5	CH2ClS+
82.9449	937	CHCl2+
86.06	18	C4H8NO+
86.0963	3	C5H12N+
88.0755	1	C4H10NO+
91.0542	12	C7H7+
96.9606	60	C2H3Cl2+
104.956	22	C3H2ClS+
106.9449	3	C3HCl2+
118.0321	11	C4H8NOS+
140.9327	46	C3H3Cl2S+
142.9217	999	C3H2Cl3+
160.0791	4	C7H14NOS+
