Mass spectrum: Chlorpyrifos; LC-ESI-ITFT; MS2; CE: 30%; R=7500; [M+H]+
Name: Chlorpyrifos
Name: diethoxy-sulfanylidene-(3,5,6-trichloropyridin-2-yl)oxy-{5}-phosphane
Formula: C9H11Cl3NO3PS
Exact mass: 348.9263
SMILES: Clc1c(OP(=S)(OCC)OCC)nc(Cl)c(Cl)c1
InChI: InChI=1S/C9H11Cl3NO3PS/c1-3-14-17(18,15-4-2)16-9-7(11)5-6(10)8(12)13-9/h5H,3-4H2,1-2H3
Instrument: LTQ Orbitrap XL Thermo Scientific
Instrument type: LC-ESI-ITFT
Ms type: MS2
Ion mode: POSITIVE
Ionization: ESI
Fragmentation mode: HCD
Collision energy: 30 % (nominal)
Resolution: 7500
Column name: XBridge C18 3.5um, 2.1x50mm, Waters
Retention time: 16.0 min
Base peak: 349.9337
Precursor m/z: 349.9336
Precursor type: [M+H]+
m/z	relative intensity	assigned
96.9507	354	H2O2PS+
98.9842	1	CH4ClO3+
109.0049	1	C2H6O3P+
114.9613	573	H4O3PS+
124.9821	151	C2H6O2PS+
128.9767	2	CH6O3PS+
142.9927	40	C2H8O3PS+
153.0134	35	C4H10O2PS+
171.024	54	C4H12O3PS+
197.9274	999	C5H3Cl3NO+
213.9046	54	C5H3Cl3NS+
225.9589	9	C7H7Cl3NO+
241.9362	1	C7H7Cl3NS+
275.8604	33	C5H2Cl3NO2PS+
277.8937	3	C5H4Cl3NO4P+
293.871	316	C5H4Cl3NO3PS+
303.8914	4	C7H6Cl3NO2PS+
321.9022	75	C7H8Cl3NO3PS+
325.9169	1	C9H6Cl3N2O3P+
349.9332	15	C9H12Cl3NO3PS+
