Mass spectrum: Oxypurinol; LC-ESI-QFT; MS2; CE: 60%; R=15000; [M+H]+
Name: Oxypurinol
Name: 1,2-dihydropyrazolo[3,4-d]pyrimidine-4,6-dione
Formula: C5H4N4O2
Exact mass: 152.0334
SMILES: C1=C2C(=NC(=O)NC2=O)NN1
InChI: InChI=1S/C5H4N4O2/c10-4-2-1-6-9-3(2)7-5(11)8-4/h1H,(H3,6,7,8,9,10,11)
Instrument: Orbitrap Exploris 240 Thermo Scientific
Instrument type: LC-ESI-QFT
Ms type: MS2
Ion mode: POSITIVE
Ionization: ESI
Fragmentation mode: HCD
Collision energy: 60 % (nominal)
Resolution: 15000
Column name: Atlantis C18 3um, 3.0x150mm, Waters
Retention time: 8.015 min
Base peak: 132.9583
Precursor m/z: 153.0407
Precursor type: [M+H]+
Precursor intensity: 21820776
m/z	relative intensity	assigned
52.0182	2	C3H2N+
54.0338	2	C3H4N+
80.0131	5	C4H2NO+
110.035	35	C4H4N3O+
128.0457	18	
135.0301	65	C5H3N4O+
136.0142	999	C5H2N3O2+
153.0408	209	C5H5N4O2+
154.025	5	
168.0401	3	
