Mass spectrum: Methamidophos; LC-ESI-QFT; MS2; CE: 45%; R=17500; [M+H]+
Name: Methamidophos
Name: [amino(methylsulfanyl)phosphoryl]oxymethane
Formula: C2H8NO2PS
Exact mass: 141.0013
SMILES: COP(=O)(N)SC
InChI: InChI=1S/C2H8NO2PS/c1-5-6(3,4)7-2/h1-2H3,(H2,3,4)
Instrument: Exploris 240 Orbitrap Thermo Scientific
Instrument type: LC-ESI-QFT
Ms type: MS2
Ion mode: POSITIVE
Ionization: ESI
Fragmentation mode: HCD
Collision energy: 45 % (nominal)
Resolution: 17500
Column name: XBridge C18 3.5um, 2.1x50mm, Waters
Retention time: 1.413 min
Base peak: 142.0086
Precursor m/z: 142.0086
Precursor type: [M+H]+
m/z	relative intensity	assigned
46.9949	6	CH3S+
62.0186	5	C2H6S+
78.9943	18	CH4O2P+
94.0052	999	CH5NO2P+
109.9824	100	CH5NOPS+
124.982	641	C2H6O2PS+
142.0086	393	C2H9NO2PS+
