Mass spectrum: Dimethenamid OXA; LC-ESI-ITFT; MS2; CE: 60%; R=7500; [M+H]+
Name: Dimethenamid OXA
Name: [(2,4-dimethylthiophen-3-yl)(1-methoxypropan-2-yl)amino](oxo)acetic acid
Formula: C12H17NO4S
Exact mass: 271.0878
SMILES: S(C=C1C)C(C)=C1N(C(=O)C(=O)O)C(COC)C
InChI: InChI=1S/C12H17NO4S/c1-7-6-18-9(3)10(7)13(8(2)5-17-4)11(14)12(15)16/h6,8H,5H2,1-4H3,(H,15,16)
Instrument: LTQ Orbitrap XL Thermo Scientific
Instrument type: LC-ESI-ITFT
Ms type: MS2
Ion mode: POSITIVE
Ionization: ESI
Fragmentation mode: HCD
Collision energy: 60 % (nominal)
Resolution: 7500
Column name: XBridge C18 3.5um, 2.1x50mm, Waters
Retention time: 7.5 min
Base peak: 272.0948
Precursor m/z: 272.0951
Precursor type: [M+H]+
m/z	relative intensity	assigned
67.0542	9	C5H7+
73.0648	152	C4H9O+
77.0387	15	C6H5+
79.0542	29	C6H7+
85.0106	12	C4H5S+
91.0541	13	C7H7+
92.0495	7	C6H6N+
93.0573	7	C6H7N+
93.0701	20	C7H9+
94.0652	75	C6H8N+
95.073	40	C6H9N+
97.0108	15	C5H5S+
99.0265	30	C5H7S+
101.0421	11	C5H9S+
104.0495	37	C7H6N+
105.0574	76	C7H7N+
108.0806	19	C7H10N+
111.0263	669	C6H7S+
112.0342	82	C6H8S+
113.0293	29	C5H7NS+
113.042	130	C6H9S+
114.0371	13	C5H8NS+
117.0699	10	C9H9+
119.0734	7	C8H9N+
120.0444	43	C7H6NO+
120.0807	45	C8H10N+
121.052	7	C7H7NO+
122.0964	11	C8H12N+
123.0136	13	C6H5NS+
124.0216	8	C6H6NS+
124.0337	15	C7H8S+
125.0421	72	C7H9S+
126.0372	999	C6H8NS+
127.0212	39	C6H7OS+
127.0451	38	C6H9NS+
127.0576	16	C7H11S+
128.0529	43	C6H10NS+
129.0368	33	C6H9OS+
132.0809	40	C9H10N+
133.0886	72	C9H11N+
134.0966	30	C9H12N+
135.1043	105	C9H13N+
136.0213	22	C7H6NS+
137.0299	11	C7H7NS+
138.0373	544	C7H8NS+
139.0213	25	C7H7OS+
139.0582	10	C8H11S+
140.0527	29	C7H10NS+
149.0417	14	C9H9S+
150.0367	11	C8H8NS+
151.0447	19	C8H9NS+
151.0576	47	C9H11S+
152.0168	40	C7H6NOS+
152.0528	142	C8H10NS+
153.0243	38	C7H7NOS+
153.0607	72	C8H11NS+
154.0321	444	C7H8NOS+
155.0396	11	C7H9NOS+
156.048	17	C7H10NOS+
160.0756	6	C10H10NO+
166.0686	156	C9H12NS+
167.0765	69	C9H13NS+
168.0841	422	C9H14NS+
178.0689	11	C10H12NS+
179.0395	8	C9H9NOS+
194.0636	38	C10H12NOS+
196.0793	55	C10H14NOS+
212.0738	22	C10H14NO2S+
240.069	349	C11H14NO3S+
