Mass spectrum: Imazamox; LC-ESI-ITFT; MS2; CE: 45%; R=15000; [M+H]+
Name: Imazamox
Name: 2-(4-isopropyl-5-keto-4-methyl-2-imidazolin-2-yl)-5-(methoxymethyl)nicotinic acid
Formula: C15H19N3O4
Exact mass: 305.1376
SMILES: O=C(O)c1c(ncc(c1)COC)/C2=N/C(C(=O)N2)(C(C)C)C
InChI: InChI=1S/C15H19N3O4/c1-8(2)15(3)14(21)17-12(18-15)11-10(13(19)20)5-9(6-16-11)7-22-4/h5-6,8H,7H2,1-4H3,(H,19,20)(H,17,18,21)
Instrument: LTQ Orbitrap XL Thermo Scientific
Instrument type: LC-ESI-ITFT
Ms type: MS2
Ion mode: POSITIVE
Ionization: ESI
Fragmentation mode: HCD
Collision energy: 45 % (nominal)
Resolution: 15000
Column name: XBridge C18 3.5um, 2.1x50mm, Waters
Retention time: 5.7 min
Base peak: 306.1456
Precursor m/z: 306.1448
Precursor type: [M+H]+
m/z	relative intensity	assigned
58.0651	5	C3H8N+
67.0543	3	C5H7+
69.0699	95	C5H9+
86.0965	401	C5H12N+
97.0649	17	C6H9O+
114.0913	4	C6H12NO+
149.071	73	C8H9N2O+
163.0503	46	C8H7N2O2+
175.0503	15	C9H7N2O2+
176.1073	3	C11H14NO+
177.0664	2	C9H9N2O2+
177.1027	2	C10H13N2O+
187.0868	4	C11H11N2O+
191.0816	41	C10H11N2O2+
192.0768	150	C9H10N3O2+
193.0609	562	C9H9N2O3+
210.0871	8	C9H12N3O3+
217.1336	135	C13H17N2O+
218.0925	132	C11H12N3O2+
219.1128	36	C12H15N2O2+
220.0962	7	C12H14NO3+
220.1081	27	C11H14N3O2+
221.092	7	C11H13N2O3+
234.1598	8	C13H20N3O+
235.0951	30	C11H13N3O3+
236.1026	3	C11H14N3O3+
243.1128	100	C14H15N2O2+
245.0795	19	C12H11N3O3+
246.0875	604	C12H12N3O3+
260.1394	229	C14H18N3O2+
261.1235	999	C14H17N2O3+
262.1553	6	C14H20N3O2+
263.0899	41	C12H13N3O4+
264.0979	454	C12H14N3O4+
278.1498	208	C14H20N3O3+
288.1343	25	C15H18N3O3+
306.145	497	C15H20N3O4+
