Mass spectrum: Pyribencarb; LC-ESI-QFT; MS2; CE: 45%; R=17500; [M+H]+
Name: Pyribencarb
Name: methyl {2-chloro-5-[(1E)-1-(6-methyl-2-pyridylmethoxyimino)ethyl]benzyl}carbamate
Name: methyl N-[[2-chloro-5-[C-methyl-N-[(6-methylpyridin-2-yl)methoxy]carbonimidoyl]phenyl]methyl]carbamate
Formula: C18H20ClN3O3
Exact mass: 361.1193
SMILES: CC1=NC(=CC=C1)CON=C(C)C2=CC(=C(C=C2)Cl)CNC(=O)OC
InChI: InChI=1S/C18H20ClN3O3/c1-12-5-4-6-16(21-12)11-25-22-13(2)14-7-8-17(19)15(9-14)10-20-18(23)24-3/h4-9H,10-11H2,1-3H3,(H,20,23)
Instrument: Exploris 240 Orbitrap Thermo Scientific
Instrument type: LC-ESI-QFT
Ms type: MS2
Ion mode: POSITIVE
Ionization: ESI
Fragmentation mode: HCD
Collision energy: 45 % (nominal)
Resolution: 17500
Column name: XBridge C18 3.5um, 2.1x50mm, Waters
Retention time: 5.920 min
Base peak: 362.1261
Precursor m/z: 362.1266
Precursor type: [M+H]+
m/z	relative intensity	assigned
88.0393	106	C3H6NO2+
91.0545	15	C7H7+
107.0729	21	C7H9N+
122.06	174	C7H8NO+
122.9996	48	C7H4Cl+
123.0677	7	C7H9NO+
124.0757	20	C7H10NO+
141.01	112	C7H6ClO+
146.0598	156	C9H8NO+
148.0754	15	C9H10NO+
152.026	34	C8H7ClN+
155.0257	33	C8H8ClO+
164.0261	300	C9H7ClN+
166.0054	56	C8H5ClNO+
166.0421	16	C9H9ClN+
168.0205	27	C8H7ClNO+
203.0815	162	C11H11N2O2+
205.0967	7	C11H13N2O2+
207.032	900	C10H8ClN2O+
209.0477	14	C13H7NO2+
239.0581	999	C11H12ClN2O2+
