Mass spectrum: 2-Aminoheptane; LC-ESI-QFT; MS2; CE: 90; R=35000; [M+H]+
Name: 2-Aminoheptane
Name: 1-methylhexylamine
Name: 1-Methylhexylamine
Formula: C7H17N
Exact mass: 115.13610
SMILES: NC(C)CCCCC
InChI: InChI=1S/C7H17N/c1-3-4-5-6-7(2)8/h7H,3-6,8H2,1-2H3
Instrument: Q Exactive Orbitrap Thermo Scientific
Instrument type: LC-ESI-QFT
Ms type: MS2
Ion mode: POSITIVE
Ionization: ESI
Fragmentation mode: HCD
Collision energy: 90 (nominal)
Resolution: 35000
Column name: XBridge C18 3.5um, 2.1x50mm, Waters
Retention time: 4.8 min
Base peak: 116.1434
Precursor m/z: 116.1434
Precursor type: [M+H]+
m/z	relative intensity	assigned
53.0023	31	C3HO+
53.9976	3	C2NO+
55.0544	6	C4H7+
57.0699	999	C4H9+
