Mass spectrum: Fenamiphos-sulfone; LC-ESI-QFT; MS2; CE: 75; R=35000; [M+H]+
Name: Fenamiphos-sulfone
Name: Fenamiphos sulphone
Name: Ethyl 3-methyl-4-(methylsulfonyl)phenyl isopropylphosphoramidate
Formula: C13H22NO5PS
Exact mass: 335.09563
SMILES: CCOP(=O)(NC(C)C)OC1=CC(=C(C=C1)S(=O)(=O)C)C
InChI: InChI=1S/C13H22NO5PS/c1-6-18-20(15,14-10(2)3)19-12-7-8-13(11(4)9-12)21(5,16)17/h7-10H,6H2,1-5H3,(H,14,15)
Instrument: Q Exactive Plus Orbitrap Thermo Scientific
Instrument type: LC-ESI-QFT
Ms type: MS2
Ion mode: POSITIVE
Ionization: ESI
Fragmentation mode: HCD
Collision energy: 75 (nominal)
Resolution: 35000
Column name: XBridge C18 3.5um, 2.1x50mm, Waters
Retention time: 7.5 min
Base peak: 336.1023
Precursor m/z: 336.1029
Precursor type: [M+H]+
m/z	relative intensity	assigned
51.0228	1	C4H3+
53.0022	1	C3HO+
53.0386	3	C4H5+
55.0178	3	C3H3O+
58.0651	5	C3H8N+
63.0228	1	C5H3+
65.0386	52	C5H5+
66.0464	6	C5H6+
67.0542	19	C5H7+
77.0384	7	C6H5+
78.0464	6	C6H6+
78.9848	75	CH3O2S+
79.0542	43	C6H7+
80.062	37	C6H8+
81.0699	12	C6H9+
85.0108	1	C4H5S+
89.0386	4	C7H5+
90.0465	17	C7H6+
91.0543	336	C7H7+
92.062	2	C7H8+
93.0336	8	C6H5O+
93.0573	1	C6H7N+
93.0699	3	C7H9+
94.0414	13	C6H6O+
95.0492	22	C6H7O+
97.0108	3	C5H5S+
98.0002	60	H5NO3P+
103.0542	4	C8H7+
105.0336	5	C7H5O+
105.0448	7	C6H5N2+
105.07	8	C8H9+
106.0416	3	C3H9NOP+
106.0652	15	C7H8N+
107.0492	138	C7H7O+
107.073	27	C7H9N+
108.057	999	C7H8O+
109.0648	399	C7H9O+
111.0263	47	C6H7S+
112.0158	27	CH7NO3P+
115.0543	3	C9H7+
117.0699	11	C9H9+
118.0778	1	C9H10+
119.0605	91	C7H7N2+
121.0108	5	C7H5S+
121.0284	5	C7H5O2+
121.0648	20	C8H9O+
122.0362	6	C7H6O2+
123.0262	2	C7H7S+
123.044	21	C7H7O2+
123.0803	3	C8H11O+
124.0521	5	C3H11NO2P+
126.0468	2	C6H9NP+
127.0214	2	C2H10NOPS+
127.0308	4	C6H8OP+
134.0964	3	C9H12N+
135.0804	6	C9H11O+
137.0057	4	C7H5OS+
139.0213	86	C7H7OS+
141.0102	1	C6H6O2P+
151.0219	2	C4H10NOPS+
152.002	1	C7H5O2P+
153.01	22	C7H6O2P+
154.0085	2	C3H9NO2PS+
155.0162	2	C7H7O2S+
159.0206	2	C6H8O3P+
169.0284	2	C11H5O2+
170.0129	11	C7H7O3P+
170.0366	69	C7H9NO2P+
171.0206	20	C7H8O3P+
173.0364	2	C7H10O3P+
175.0155	3	C6H8O4P+
185.0001	2	C7H6O4P+
185.0267	3	C8H9O3S+
185.0361	1	C8H10O3P+
186.0077	8	C7H7O4P+
187.0157	5	C7H8O4P+
187.0394	11	C7H10NO3P+
188.0472	282	C11H8O3+
188.977	5	C6H6O3PS+
189.031	1	C7H10O4P+
190.9928	1	C6H8O3PS+
196.0522	1	C9H11NO2P+
197.0365	16	C9H10O3P+
200.9769	1	C7H6O3PS+
214.0629	7	C9H13NO3P+
218.9877	7	C7H8O4PS+
248.9981	1	C8H10O5PS+
267.0086	8	C8H12O6PS+
