Mass spectrum: Flusilazole; LC-ESI-ITFT; MS2; CE: 15%; R=15000; [M+H]+
Name: Flusilazole
Name: bis(4-fluorophenyl)-methyl-(1,2,4-triazol-1-ylmethyl)silane
Formula: C16H15F2N3Si
Exact mass: 315.0998
SMILES: n1(cncn1)C[Si](c1ccc(F)cc1)(C)c1ccc(cc1)F
InChI: InChI=1S/C16H15F2N3Si/c1-22(12-21-11-19-10-20-21,15-6-2-13(17)3-7-15)16-8-4-14(18)5-9-16/h2-11H,12H2,1H3
Instrument: LTQ Orbitrap XL Thermo Scientific
Instrument type: LC-ESI-ITFT
Ms type: MS2
Ion mode: POSITIVE
Ionization: ESI
Fragmentation mode: HCD
Collision energy: 15 % (nominal)
Resolution: 15000
Column name: XBridge C18 3.5um, 2.1x50mm, Waters
Retention time: 12.4 min
Base peak: 316.1073
Precursor m/z: 316.1076
Precursor type: [M+H]+
m/z	relative intensity	assigned
169.0477	1	C3H9F2N3OSi+
187.0579	1	C11H11OSi+
247.0761	1	C14H13F2Si+
316.1072	999	C16H16F2N3Si+
