Mass spectrum: Isoproturon; LC-ESI-ITFT; MS2; CE: 90%; R=7500; [M+H]+
Name: Isoproturon
Name: 1,1-dimethyl-3-(4-propan-2-ylphenyl)urea
Formula: C12H18N2O
Exact mass: 206.1414
SMILES: c1(ccc(C(C)C)cc1)NC(N(C)C)=O
InChI: InChI=1S/C12H18N2O/c1-9(2)10-5-7-11(8-6-10)13-12(15)14(3)4/h5-9H,1-4H3,(H,13,15)
Instrument: LTQ Orbitrap XL Thermo Scientific
Instrument type: LC-ESI-ITFT
Ms type: MS2
Ion mode: POSITIVE
Ionization: ESI
Fragmentation mode: HCD
Collision energy: 90 % (nominal)
Resolution: 7500
Column name: XBridge C18 3.5um, 2.1x50mm, Waters
Retention time: 8.7 min
Base peak: 207.1493
Precursor m/z: 207.1492
Precursor type: [M+H]+
m/z	relative intensity	assigned
56.0129	3	C2H2NO+
72.0444	999	C3H6NO+
77.0385	7	C6H5+
91.0542	51	C7H7+
92.0494	8	C6H6N+
93.0696	3	C7H9+
103.0539	3	C8H7+
105.0696	5	C8H9+
107.0854	28	C8H11+
117.0694	13	C9H9+
118.0653	4	C8H8N+
119.073	23	C8H9N+
120.0443	6	C7H6NO+
134.0964	55	C9H12N+
147.0917	5	C9H11N2+
