Mass spectrum: Ketamine; LC-ESI-ITFT; MS2; CE: 30%; R=7500; [M+H]+
Name: Ketamine
Name: 2-(2-chlorophenyl)-2-(methylamino)-1-cyclohexanone
Formula: C13H16ClNO
Exact mass: 237.0920
SMILES: CNC1(CCCCC1=O)C2=CC=CC=C2Cl
InChI: InChI=1S/C13H16ClNO/c1-15-13(9-5-4-8-12(13)16)10-6-2-3-7-11(10)14/h2-3,6-7,15H,4-5,8-9H2,1H3
Instrument: LTQ Orbitrap XL Thermo Scientific
Instrument type: LC-ESI-ITFT
Ms type: MS2
Ion mode: POSITIVE
Ionization: ESI
Fragmentation mode: HCD
Collision energy: 30 % (nominal)
Resolution: 7500
Column name: XBridge C18 3.5um, 2.1x50mm, Waters
Retention time: 4.6 min
Base peak: 238.0997
Precursor m/z: 238.0993
Precursor type: [M+H]+
m/z	relative intensity	assigned
67.0542	13	C5H7+
125.0152	171	C7H6Cl+
152.026	24	C8H7ClN+
163.0309	19	C10H8Cl+
165.01	3	C9H6ClO+
179.0622	220	C11H12Cl+
189.0466	18	C12H10Cl+
207.0572	393	C12H12ClO+
220.0887	299	C13H15ClN+
238.0996	999	C13H17ClNO+
