Mass spectrum: Fenthion Oxon; LC-ESI-QFT; MS2; CE: 90%; R=17500; [M+H]+
Name: Fenthion Oxon
Name: dimethyl (3-methyl-4-methylsulfanylphenyl) phosphate
Formula: C10H15O4PS
Exact mass: 262.0429
SMILES: CC1=C(C=CC(=C1)OP(=O)(OC)OC)SC
InChI: InChI=1S/C10H15O4PS/c1-8-7-9(5-6-10(8)16-4)14-15(11,12-2)13-3/h5-7H,1-4H3
Instrument: Exploris 240 Orbitrap Thermo Scientific
Instrument type: LC-ESI-QFT
Ms type: MS2
Ion mode: POSITIVE
Ionization: ESI
Fragmentation mode: HCD
Collision energy: 90 % (nominal)
Resolution: 17500
Column name: XBridge C18 3.5um, 2.1x50mm, Waters
Retention time: 7.813 min
Base peak: 263.0501
Precursor m/z: 263.0501
Precursor type: [M+H]+
m/z	relative intensity	assigned
53.0385	180	C4H5+
58.995	364	C2H3S+
65.0387	140	C5H5+
70.995	52	C3H3S+
77.0386	354	C6H5+
78.0464	440	C6H6+
78.9945	55	CH4O2P+
79.0543	66	C6H7+
89.0386	68	C7H5+
91.0542	999	C7H7+
93.0699	188	C7H9+
95.0491	109	C6H7O+
97.0106	913	C5H5S+
103.0543	297	C8H7+
104.0621	293	C8H8+
105.0701	69	C8H9+
107.0495	65	C7H7O+
109.0651	47	C7H9O+
110.0184	171	C6H6S+
121.0105	397	C7H5S+
121.0648	53	C8H9O+
122.0185	539	C7H6S+
127.0156	159	C2H8O4P+
135.026	137	C8H7S+
138.0136	70	C7H6OS+
139.0211	150	C7H7OS+
153.0371	41	C8H9OS+
154.045	99	C8H10OS+
168.9873	83	C7H6OPS+
183.0212	24	C8H8O3P+
185.9898	410	C7H7O2PS+
200.9777	89	C7H6O3PS+
216.0001	262	C8H9O3PS+
