Mass spectrum: Lorazepam; LC-ESI-QFT; MS2; CE: 45; R=35000; [M+H]+
Name: Lorazepam
Name: 2H-1,4-Benzodiazepin-2-one, 7-chloro-5-(2-chlorophenyl)-1,3-dihydro-3-hydroxy-
Name: 7-chloranyl-5-(2-chlorophenyl)-3-oxidanyl-1,3-dihydro-1,4-benzodiazepin-2-one
Formula: C15H10Cl2N2O2
Exact mass: 320.01193
SMILES: Clc3ccccc3C/2=N/C(O)C(=O)Nc1c\2cc(Cl)cc1
InChI: InChI=1S/C15H10Cl2N2O2/c16-8-5-6-12-10(7-8)13(19-15(21)14(20)18-12)9-3-1-2-4-11(9)17/h1-7,15,21H,(H,18,20)
Instrument: Q Exactive Orbitrap Thermo Scientific
Instrument type: LC-ESI-QFT
Ms type: MS2
Ion mode: POSITIVE
Ionization: ESI
Fragmentation mode: HCD
Collision energy: 45 (nominal)
Resolution: 35000
Column name: XBridge C18 3.5um, 2.1x50mm, Waters
Retention time: 8.9 min
Base peak: 321.0195
Precursor m/z: 321.0192
Precursor type: [M+H]+
m/z	relative intensity	assigned
93.0572	7	C6H7N+
128.026	26	C6H7ClN+
130.04	1	C7H4N3+
138.0105	48	C7H5ClN+
153.0214	6	C7H6ClN2+
156.0211	4	C7H7ClNO+
163.0057	41	C8H4ClN2+
166.0054	11	C8H5ClNO+
177.0567	1	C13H7N+
181.0161	2	C8H6ClN2O+
194.0839	7	C13H10N2+
205.076	3	C14H9N2+
213.0345	1	C13H8ClN+
214.042	3	C13H9ClN+
229.0528	344	C13H10ClN2+
239.0371	8	C14H8ClN2+
241.0289	5	C14H8ClNO+
248.003	1	C13H8Cl2N+
250.0186	4	C13H10Cl2N+
257.0475	6	C14H10ClN2O+
263.014	3	C13H9Cl2N2+
265.0295	33	C13H11Cl2N2+
275.0137	999	C14H9Cl2N2+
275.9977	3	C14H8Cl2NO+
285.043	1	C15H10ClN2O2+
291.0087	8	C14H9Cl2N2O+
292.0164	5	C14H10Cl2N2O+
303.0086	86	C15H9Cl2N2O+
321.0199	2	C15H11Cl2N2O2+
