Mass spectrum: 5-Chloro-2-methyl-4-isothiazolin-3-one (CMI); LC-ESI-ITFT; MS2; CE: 45%; R=15000; [M+H]+
Name: 5-Chloro-2-methyl-4-isothiazolin-3-one (CMI)
Name: 3(2H)-Isothiazolone, 5-chloro-2-methyl-
Name: 5-chloranyl-2-methyl-1,2-thiazol-3-one
Formula: C4H4ClNOS
Exact mass: 148.9702
SMILES: c1(n(sc(c1)Cl)C)=O
InChI: InChI=1S/C4H4ClNOS/c1-6-4(7)2-3(5)8-6/h2H,1H3
Instrument: LTQ Orbitrap XL Thermo Scientific
Instrument type: LC-ESI-ITFT
Ms type: MS2
Ion mode: POSITIVE
Ionization: ESI
Fragmentation mode: HCD
Collision energy: 45 % (nominal)
Resolution: 15000
Column name: XBridge C18 3.5um, 2.1x50mm, Waters
Retention time: 3.7 min
Base peak: 149.9773
Precursor m/z: 149.9775
Precursor type: [M+H]+
m/z	relative intensity	assigned
70.9951	1	C3H3S+
86.0059	1	C3H4NS+
94.9718	2	C2H4ClS+
95.9903	3	C4H2NS+
102.9946	1	C4H4ClO+
104.9561	2	C3H2ClS+
106.0054	1	C3H5ClNO+
106.9718	2	C3H4ClS+
115.0088	9	C4H5NOS+
116.9977	1	C4H4ClNO+
118.9354	4	C3ClOS+
120.9511	3	C3H2ClOS+
132.9511	2	C4H2ClOS+
134.9541	2	C3H2ClNOS+
149.9777	999	C4H5ClNOS+
