Mass spectrum: Propachlor ESA; LC-ESI-ITFT; MS2; CE: 90%; R=7500; [M+H]+
Name: Propachlor ESA
Name: 2-[Isopropyl(phenyl)amino]-2-oxoethanesulfonic acid
Formula: C11H15NO4S
Exact mass: 257.0722
SMILES: O=S(=O)(O)CC(=O)N(c1ccccc1)C(C)C
InChI: InChI=1S/C11H15NO4S/c1-9(2)12(10-6-4-3-5-7-10)11(13)8-17(14,15)16/h3-7,9H,8H2,1-2H3,(H,14,15,16)
Instrument: LTQ Orbitrap XL Thermo Scientific
Instrument type: LC-ESI-ITFT
Ms type: MS2
Ion mode: POSITIVE
Ionization: ESI
Fragmentation mode: HCD
Collision energy: 90 % (nominal)
Resolution: 7500
Column name: XBridge C18 3.5um, 2.1x50mm, Waters
Retention time: 5.9 min
Base peak: 258.0802
Precursor m/z: 258.0795
Precursor type: [M+H]+
m/z	relative intensity	assigned
53.0386	12	C4H5+
59.0127	6	C2H3O2+
77.0386	134	C6H5+
79.0542	82	C6H7+
91.0542	60	C7H7+
92.0494	20	C6H6N+
92.0619	18	C7H8+
93.0572	23	C6H7N+
94.0651	999	C6H8N+
105.0447	69	C6H5N2+
106.0651	477	C7H8N+
116.0484	5	H10N3O2S+
117.0573	340	C8H7N+
118.0652	45	C8H8N+
120.0444	59	C7H6NO+
134.0601	26	C8H8NO+
