Mass spectrum: N-Nitrosofenfluramine; LC-ESI-QFT; MS2; CE: 180; R=35000; [M+H]+
Name: N-Nitrosofenfluramine
Name: N-Ethyl-N-nitroso-1-[3-(trifluoromethyl)phenyl]-2-propanamine
Formula: C12H15F3N2O
Exact mass: 260.11365
SMILES: CCN(C(C)Cc1cccc(c1)C(F)(F)F)N=O
InChI: InChI=1S/C12H15F3N2O/c1-3-17(16-18)9(2)7-10-5-4-6-11(8-10)12(13,14)15/h4-6,8-9H,3,7H2,1-2H3
Instrument: Q Exactive Plus Orbitrap Thermo Scientific
Instrument type: LC-ESI-QFT
Ms type: MS2
Ion mode: POSITIVE
Ionization: ESI
Fragmentation mode: HCD
Collision energy: 180 (nominal)
Resolution: 35000
Column name: XBridge C18 3.5um, 2.1x50mm, Waters
Retention time: 10.0 min
Base peak: 261.1206
Precursor m/z: 261.1209
Precursor type: [M+H]+
m/z	relative intensity	assigned
50.0151	18	C4H2+
51.0041	3	CHF2+
51.0229	9	C4H3+
53.0022	13	C3HO+
53.0386	3	C4H5+
53.9974	1	C2NO+
57.0135	399	C3H2F+
59.0291	110	C3H4F+
61.0072	18	C5H+
62.0151	77	C5H2+
63.0229	448	C5H3+
64.0307	33	C5H4+
65.0022	4	C4HO+
65.0385	18	C5H5+
66.0463	1	C5H6+
67.9892	1	C3O2+
68.9946	18	CF3+
69.0135	9	C4H2F+
71.029	1	C4H4F+
74.015	86	C6H2+
75.004	28	C3HF2+
75.0229	81	C6H3+
77.0021	25	C5HO+
77.0385	5	C6H5+
78.0463	1	C6H6+
81.0135	37	C5H2F+
83.0291	999	C5H4F+
87.0229	13	C7H3+
88.0118	6	C4H2F2+
89.0385	471	C7H5+
90.0464	43	C7H6+
91.0542	9	C7H7+
93.0135	95	C6H2F+
95.0292	3	C6H4F+
95.0491	9	C6H7O+
96.0369	3	C6H5F+
98.0151	359	C8H2+
99.0229	316	C8H3+
101.0197	4	C5H3F2+
102.0463	2	C8H6+
105.0448	5	C6H5N2+
107.0291	44	C7H4F+
108.0369	10	C7H5F+
109.0448	398	C7H6F+
111.0239	3	C6H4FO+
112.0118	3	C6H2F2+
113.0195	10	C6H3F2+
114.0275	5	C6H4F2+
115.0542	19	C9H7+
117.057	1	C8H7N+
118.0212	3	C8H3F+
119.0291	14	C8H4F+
120.0369	10	C8H5F+
123.0351	1	C6H4FN2+
125.0197	6	C7H3F2+
125.0391	1	C10H5+
126.0464	1	C10H6+
127.0354	4	C7H5F2+
129.0447	1	C8H5N2+
131.0298	1	C6H5F2O+
132.0181	10	C6H3F3+
133.0258	1	C6H4F3+
138.0275	16	C8H4F2+
139.0351	1	C8H5F2+
141.0258	18	C6H3F2N2+
146.0526	5	C10H7F+
147.0352	15	C8H4FN2+
151.0353	3	C9H5F2+
157.0257	1	C8H4F3+
158.0335	1	C8H5F3+
