Mass spectrum: Ofloxacin; LC-ESI-QFT; MS2; CE: 90; R=35000; [M+H]+
Name: Ofloxacin
Name: DL-8280
Formula: C18H20FN3O4
Exact mass: 361.14378
SMILES: Fc4cc1c2N(/C=C(\C1=O)C(=O)O)C(COc2c4N3CCN(C)CC3)C
InChI: InChI=1S/C18H20FN3O4/c1-10-9-26-17-14-11(16(23)12(18(24)25)8-22(10)14)7-13(19)15(17)21-5-3-20(2)4-6-21/h7-8,10H,3-6,9H2,1-2H3,(H,24,25)
Instrument: Q Exactive Orbitrap Thermo Scientific
Instrument type: LC-ESI-QFT
Ms type: MS2
Ion mode: POSITIVE
Ionization: ESI
Fragmentation mode: HCD
Collision energy: 90 (nominal)
Resolution: 35000
Column name: XBridge C18 3.5um, 2.1x50mm, Waters
Retention time: 4.1 min
Base peak: 362.151
Precursor m/z: 362.1511
Precursor type: [M+H]+
m/z	relative intensity	assigned
56.0495	49	C3H6N+
58.0652	572	C3H8N+
67.0541	10	C5H7+
68.0494	7	C4H6N+
69.0698	4	C5H9+
70.0651	343	C4H8N+
72.0807	237	C4H10N+
75.0228	12	
82.065	83	C5H8N+
83.0602	11	C4H7N2+
84.0807	22	C5H10N+
98.0837	10	C5H10N2+
104.0495	69	C7H6N+
109.0448	19	
115.0541	11	
116.0493	28	
117.0571	11	
118.0649	22	
120.0443	30	C7H6NO+
122.04	535	C7H5FN+
123.0477	40	
124.0558	11	C7H7FN+
128.0495	10	
129.0445	40	C8H5N2+
130.0289	38	C8H4NO+
130.065	25	C9H8N+
132.0444	62	C8H6NO+
133.0447	29	
134.0399	8	C8H5FN+
134.0602	20	
135.0479	31	C8H6FN+
136.0555	39	
137.0509	28	C7H6FN2+
138.0351	59	C7H5FNO+
143.0603	39	C9H7N2+
144.0443	30	C9H6NO+
144.0806	11	C10H10N+
145.0396	26	C8H5N2O+
145.076	20	C9H9N2+
146.0601	65	C9H8NO+
147.0352	11	
147.0478	11	
147.0553	8	C8H7N2O+
148.0393	62	C8H6NO2+
148.0556	83	C9H7FN+
149.051	42	C8H6FN2+
150.035	485	C8H5FNO+
151.0428	252	C8H6FNO+
152.038	12	
152.0508	44	C8H7FNO+
155.0602	30	C10H7N2+
156.0445	12	
156.0679	37	C10H8N2+
157.0395	64	C9H5N2O+
157.0761	33	C10H9N2+
158.0237	188	C9H4NO2+
158.0474	11	
158.0601	25	C10H8NO+
159.0551	11	C9H7N2O+
160.0393	33	C9H6NO2+
160.0558	156	C10H7FN+
161.0507	21	C9H6FN2+
162.0348	32	C9H5FNO+
162.0593	47	C9H7FN2+
162.0714	19	C10H9FN+
163.0303	36	C8H4FN2O+
163.0429	48	C9H6FNO+
163.0663	8	C9H8FN2+
164.0505	85	C9H7FNO+
165.0221	37	C8H4FNO2+
165.0459	196	C8H6FN2O+
166.0299	32	C8H5FNO2+
168.0455	12	
170.06	24	C11H8NO+
171.0552	236	C10H7N2O+
172.0555	19	C11H7FN+
172.0631	21	C10H8N2O+
172.0755	8	C11H10NO+
173.071	40	C10H9N2O+
174.0714	11	C11H9FN+
175.0302	33	C9H4FN2O+
175.0424	18	
175.0499	5	C9H7N2O2+
175.0667	35	C10H8FN2+
176.0339	10	C9H6NO3+
176.0506	61	C10H7FNO+
176.0743	25	C10H9FN2+
177.0462	43	C9H6FN2O+
177.0586	43	C10H8FNO+
177.0824	6	C10H10FN2+
178.0298	393	C9H5FNO2+
178.0536	64	
179.0377	640	C9H6FNO2+
179.0613	85	C9H8FN2O+
180.0454	173	C9H7FNO2+
183.0549	12	
184.0629	27	C11H8N2O+
185.0346	44	C10H5N2O2+
185.0709	42	C11H9N2O+
188.0506	229	C11H7FNO+
189.0456	46	C10H6FN2O+
189.0584	10	
190.0299	12	C10H5FNO2+
190.0537	64	C10H7FN2O+
190.0665	26	C11H9FNO+
191.038	48	C10H6FNO2+
191.0616	57	C10H8FN2O+
192.0456	260	C10H7FNO2+
193.0408	413	C9H6FN2O2+
194.0248	204	C9H5FNO3+
194.0485	431	C9H7FN2O2+
194.0612	145	C10H9FNO2+
195.0563	83	C9H8FN2O2+
196.0403	11	C9H7FNO3+
196.0759	5	C13H10NO+
197.0704	20	C12H9N2O+
198.0788	24	C12H10N2O+
199.0501	174	C11H7N2O2+
200.0508	10	C12H7FNO+
200.0582	87	C11H8N2O2+
201.0579	16	
201.0659	68	C11H9N2O2+
202.0537	21	C11H7FN2O+
202.0661	33	C12H9FNO+
203.0255	33	C10H4FN2O2+
203.0374	70	C11H6FNO2+
203.0614	214	C11H8FN2O+
204.0335	33	C10H5FN2O2+
204.0456	216	C11H7FNO2+
204.0694	27	C11H9FN2O+
204.082	10	C12H11FNO+
205.0408	999	C10H6FN2O2+
205.0771	199	C11H10FN2O+
206.0486	76	C10H7FN2O2+
206.0612	24	C11H9FNO2+
207.0564	114	C10H8FN2O2+
211.051	6	C12H7N2O2+
211.0867	11	C13H11N2O+
212.0579	21	
213.0653	11	C12H9N2O2+
215.0611	41	C12H8FN2O+
216.0455	9	C12H7FNO2+
216.0691	19	C12H9FN2O+
217.0408	70	C11H6FN2O2+
217.0768	10	C12H10FN2O+
218.0487	98	C11H7FN2O2+
218.061	49	C12H9FNO2+
219.0565	627	C11H8FN2O2+
220.0643	40	C11H9FN2O2+
220.0763	8	C12H11FNO2+
221.072	711	C11H10FN2O2+
225.0648	5	C13H9N2O2+
225.1017	4	C14H13N2O+
226.0972	10	C13H12N3O+
229.0771	9	C13H10FN2O+
231.0564	134	C12H8FN2O2+
232.0642	28	C12H9FN2O2+
232.077	22	C13H11FNO2+
233.072	47	C12H10FN2O2+
233.0833	7	C16H11NO+
234.08	25	C12H11FN2O2+
234.0922	5	C13H13FNO2+
238.0612	10	C13H8N3O2+
238.0975	21	C14H12N3O+
240.0767	11	C13H10N3O2+
241.0971	12	C14H13N2O2+
243.0933	6	C14H12FN2O+
244.0777	6	C14H11FNO2+
245.0719	66	C13H10FN2O2+
246.0798	7	C13H11FN2O2+
247.0879	56	C13H12FN2O2+
249.0308	21	C11H6FN2O4+
253.0849	12	C14H11N3O2+
253.097	9	C15H13N2O2+
253.1207	39	C15H15N3O+
254.0926	19	C14H12N3O2+
258.0668	9	C13H9FN3O2+
261.1034	217	C14H14FN2O2+
268.1078	7	C15H14N3O2+
286.0626	19	C14H9FN3O3+
286.0984	7	C15H13FN3O2+
301.1222	10	C16H16FN3O2+
