Mass spectrum: Phenylephrine; LC-ESI-QFT; MS2; CE: 75; R=35000; [M+H]+
Name: Phenylephrine
Name: 3-[(1R)-1-hydroxy-2-(methylamino)ethyl]phenol
Formula: C9H13NO2
Exact mass: 167.09463
SMILES: CNC[C@@H](C1=CC(=CC=C1)O)O
InChI: InChI=1S/C9H13NO2/c1-10-6-9(12)7-3-2-4-8(11)5-7/h2-5,9-12H,6H2,1H3/t9-/m0/s1
Instrument: Q Exactive Orbitrap Thermo Scientific
Instrument type: LC-ESI-QFT
Ms type: MS2
Ion mode: POSITIVE
Ionization: ESI
Fragmentation mode: HCD
Collision energy: 75 (nominal)
Resolution: 35000
Column name: XBridge C18 3.5um, 2.1x50mm, Waters
Retention time: 0.9 min
Base peak: 150.0914
Precursor m/z: 168.1019
Precursor type: [M+H]+
m/z	relative intensity	assigned
53.0387	1	C4H5+
56.0496	12	C3H6N+
57.0574	40	C3H7N+
65.0386	38	C5H5+
66.0464	2	C5H6+
67.0417	1	C4H5N+
67.0543	1	C5H7+
77.0385	14	C6H5+
79.0542	66	C6H7+
80.0495	11	C5H6N+
81.0699	148	C6H9+
82.0652	2	C5H8N+
84.0444	1	C4H6NO+
89.0386	2	C7H5+
90.0465	9	C7H6+
91.0542	999	C7H7+
92.0494	2	C6H6N+
93.0698	50	C7H9+
94.0413	69	C6H6O+
94.0651	7	C6H8N+
95.0491	44	C6H7O+
103.0543	57	C8H7+
105.0448	14	C6H5N2+
105.0698	16	C8H9+
106.0652	28	C7H8N+
107.0492	367	C7H7O+
107.073	26	C7H9N+
108.057	69	C7H8O+
108.0808	7	C7H10N+
109.0648	466	C7H9O+
110.06	1	C6H8NO+
111.044	3	C6H7O2+
115.0544	1	C9H7+
117.0573	95	C8H7N+
118.0413	30	C8H6O+
118.0651	96	C8H8N+
119.0491	93	C8H7O+
119.0603	10	C7H7N2+
120.0444	63	C7H6NO+
120.057	4	C8H8O+
120.0809	5	C8H10N+
121.0396	5	C6H5N2O+
121.0648	92	C8H9O+
122.0963	15	C8H12N+
130.0653	6	C9H8N+
131.0732	2	C9H9N+
132.0808	29	C9H10N+
133.0523	2	C8H7NO+
133.0886	10	C9H11N+
134.06	241	C8H8NO+
135.0678	709	C8H9NO+
148.0755	10	C9H10NO+
149.0837	15	C9H11NO+
150.0914	243	C9H12NO+
