Mass spectrum: Alfuzosin; LC-ESI-QFT; MS2; CE: 90; R=35000; [M+H]+
Name: Alfuzosin
Name: N-{3-[(4-Amino-6,7-dimethoxy-2-quinazolinyl)(methyl)amino]propyl}tetrahydro-2-furancarboxamide
Name: N-[3-[(4-amino-6,7-dimethoxyquinazolin-2-yl)-methylamino]propyl]oxolane-2-carboxamide
Formula: C19H27N5O4
Exact mass: 389.20630
SMILES: CN(CCCNC(=O)C1CCCO1)C2=NC3=CC(=C(C=C3C(=N2)N)OC)OC
InChI: InChI=1S/C19H27N5O4/c1-24(8-5-7-21-18(25)14-6-4-9-28-14)19-22-13-11-16(27-3)15(26-2)10-12(13)17(20)23-19/h10-11,14H,4-9H2,1-3H3,(H,21,25)(H2,20,22,23)
Instrument: Q Exactive Plus Orbitrap Thermo Scientific
Instrument type: LC-ESI-QFT
Ms type: MS2
Ion mode: POSITIVE
Ionization: ESI
Fragmentation mode: HCD
Collision energy: 90 (nominal)
Resolution: 35000
Column name: XBridge C18 3.5um, 2.1x50mm, Waters
Retention time: 5.3 min
Base peak: 390.2132
Precursor m/z: 390.2136
Precursor type: [M+H]+
m/z	relative intensity	assigned
53.0022	11	C3HO+
53.0386	1	C4H5+
53.9975	2	C2NO+
55.0179	2	C3H3O+
55.0542	1	C4H7+
56.0495	1	C3H6N+
57.0447	20	C2H5N2+
58.0288	6	C2H4NO+
58.0651	18	C3H8N+
59.0491	13	C3H7O+
67.9892	2	C3O2+
69.0334	2	C4H5O+
70.0651	1	C4H8N+
71.0491	999	C4H7O+
80.0494	1	C5H6N+
81.0334	2	C5H5O+
82.065	2	C5H8N+
86.06	21	C4H8NO+
100.0757	3	C5H10NO+
105.0447	4	C6H5N2+
106.0525	3	C6H6N2+
107.0603	1	C6H7N2+
118.0525	3	C7H6N2+
119.0606	3	C7H7N2+
120.0445	3	C7H6NO+
128.0705	1	C6H10NO2+
130.0525	2	C8H6N2+
131.0605	1	C8H7N2+
133.0396	16	C7H5N2O+
133.0635	1	C7H7N3+
134.0475	3	C7H6N2O+
135.0553	11	C7H7N2O+
144.0559	1	C8H6N3+
145.0396	2	C8H5N2O+
145.0634	2	C8H7N3+
145.0761	1	C9H9N2+
146.0712	2	C8H8N3+
147.0318	2	C8H5NO2+
147.0553	45	C8H7N2O+
147.0664	7	C7H7N4+
148.0393	1	C8H6NO2+
148.063	2	C8H8N2O+
149.071	17	C8H9N2O+
150.055	7	C8H8NO2+
156.102	7	C8H14NO2+
159.0551	1	C9H7N2O+
160.0504	4	C8H6N3O+
161.0345	2	C8H5N2O2+
161.0585	3	C8H7N3O+
161.0713	2	C9H9N2O+
161.0822	5	C8H9N4+
162.0424	3	C8H6N2O2+
162.0662	6	C8H8N3O+
162.09	20	C8H10N4+
163.0502	8	C8H7N2O2+
163.0977	3	C8H11N4+
172.0504	1	C9H6N3O+
173.0344	1	C9H5N2O2+
173.0584	1	C9H7N3O+
173.0824	4	C9H9N4+
174.0662	12	C9H8N3O+
174.09	18	C9H10N4+
175.0502	29	C9H7N2O2+
175.0742	2	C9H9N3O+
175.0979	2	C9H11N4+
176.058	7	C9H8N2O2+
176.0691	4	C8H8N4O+
177.0659	27	C9H9N2O2+
177.0776	1	C8H9N4O+
179.0814	1	C9H11N2O2+
186.0901	2	C10H10N4+
187.0975	1	C10H11N4+
188.0454	5	C9H6N3O2+
189.0531	1	C9H7N3O2+
189.066	4	C10H9N2O2+
189.077	25	C9H9N4O+
190.061	15	C9H8N3O2+
190.0848	12	C9H10N4O+
191.0816	15	C10H11N2O2+
191.0927	55	C9H11N4O+
201.0771	2	C10H9N4O+
201.113	1	C11H13N4+
202.0611	29	C10H8N3O2+
202.0849	2	C10H10N4O+
202.1216	3	C11H14N4+
203.0927	22	C10H11N4O+
204.0643	3	C9H8N4O2+
204.0768	17	C10H10N3O2+
205.072	8	C9H9N4O2+
205.0844	2	C10H11N3O2+
206.056	2	C9H8N3O3+
206.0799	3	C9H10N4O2+
206.0925	5	C10H12N3O2+
214.0612	1	C11H8N3O2+
217.0721	17	C10H9N4O2+
217.1083	1	C11H13N4O+
218.08	6	C10H10N4O2+
218.0923	1	C11H12N3O2+
219.0877	318	C10H11N4O2+
220.0955	6	C10H12N4O2+
229.072	4	C11H9N4O2+
229.1084	1	C12H13N4O+
231.0877	94	C11H11N4O2+
232.0954	4	C11H12N4O2+
233.1033	4	C11H13N4O2+
235.0824	1	C10H11N4O3+
235.1189	4	C11H15N4O2+
245.1031	4	C12H13N4O2+
247.1188	5	C12H15N4O2+
257.1032	2	C13H13N4O2+
259.119	21	C13H15N4O2+
286.1295	3	C14H16N5O2+
