Mass spectrum: Iodocarb; LC-ESI-ITFT; MS2; CE: 15%; R=15000; [M+H]+
Name: Iodocarb
Name: Iodopropynyl butylcarbamate (IPBC)
Name: 3-iodanylprop-2-ynyl N-butylcarbamate
Formula: C8H12INO2
Exact mass: 280.9913
SMILES: N(C(OCC#CI)=O)CCCC
InChI: InChI=1S/C8H12INO2/c1-2-3-6-10-8(11)12-7-4-5-9/h2-3,6-7H2,1H3,(H,10,11)
Instrument: LTQ Orbitrap XL Thermo Scientific
Instrument type: LC-ESI-ITFT
Ms type: MS2
Ion mode: POSITIVE
Ionization: ESI
Fragmentation mode: HCD
Collision energy: 15 % (nominal)
Resolution: 15000
Column name: XBridge C18 3.5um, 2.1x50mm, Waters
Retention time: 8.4 min
Base peak: 281.9991
Precursor m/z: 281.9986
Precursor type: [M+H]+
m/z	relative intensity	assigned
55.0179	18	C3H3O+
57.0699	188	C4H9+
68.0495	5	C4H6N+
74.0237	8	C2H4NO2+
82.0653	1	C5H8N+
86.0965	9	C5H12N+
96.0809	5	C6H10N+
100.0757	24	C5H10NO+
110.0965	3	C7H12N+
111.1046	2	C7H13N+
116.0707	12	C5H10NO2+
155.0941	41	C8H13NO2+
164.9196	999	C3H2I+
181.9462	8	C3H5IN+
182.9302	22	C3H4IO+
195.9617	4	C4H7IN+
238.0088	29	C7H13IN+
281.9986	334	C8H13INO2+
