Mass spectrum: Imatinib; LC-ESI-QFT; MS2; CE: 120; R=35000; [M-H]-
Name: Imatinib
Name: 4-[(4-methylpiperazin-1-yl)methyl]-N-[4-methyl-3-[(4-pyridin-3-ylpyrimidin-2-yl)amino]phenyl]benzamide
Formula: C29H31N7O
Exact mass: 493.25901
SMILES: CC1=C(C=C(C=C1)NC(=O)C2=CC=C(C=C2)CN3CCN(CC3)C)NC4=NC=CC(=N4)C5=CN=CC=C5
InChI: InChI=1S/C29H31N7O/c1-21-5-10-25(18-27(21)34-29-31-13-11-26(33-29)24-4-3-12-30-19-24)32-28(37)23-8-6-22(7-9-23)20-36-16-14-35(2)15-17-36/h3-13,18-19H,14-17,20H2,1-2H3,(H,32,37)(H,31,33,34)
Instrument: Q Exactive Plus Orbitrap Thermo Scientific
Instrument type: LC-ESI-QFT
Ms type: MS2
Ion mode: NEGATIVE
Ionization: ESI
Fragmentation mode: HCD
Collision energy: 120 (nominal)
Resolution: 35000
Column name: XBridge C18 3.5um, 2.1x50mm, Waters
Retention time: 5.8 min
Base peak: 171.0666
Precursor m/z: 492.2517
Precursor type: [M-H]-
m/z	relative intensity	assigned
50.0035	97	C3N-
65.0145	999	C3HN2-
79.0302	96	C4H3N2-
103.0302	67	C6H3N2-
117.0457	123	C7H5N2-
128.0379	76	C8H4N2-
129.0456	291	C8H5N2-
142.041	92	C8H4N3-
144.0567	388	C8H6N3-
155.0488	63	C9H5N3-
158.0361	530	C8H4N3O-
172.0516	431	C9H6N3O-
182.0357	259	C10H4N3O-
182.0721	92	C11H8N3-
232.0751	392	C14H8N4-
272.0937	72	C16H10N5-
