Mass spectrum: 8phiC8SPC; LC-ESI-QFT; MS2; CE: 15; R=35000; [M+H]+
Name: 8phiC8SPC
Name: Octacarboxy sulfophenyl carboxylic acid
Name: 8-(4-sulfophenyl)octanoic acid
Formula: C14H20O5S
Exact mass: 300.10314
SMILES: OS(=O)(=O)c1ccc(CCCCCCCC(=O)O)cc1
InChI: InChI=1S/C14H20O5S/c15-14(16)7-5-3-1-2-4-6-12-8-10-13(11-9-12)20(17,18)19/h8-11H,1-7H2,(H,15,16)(H,17,18,19)
Instrument: Q Exactive Plus Orbitrap Thermo Scientific
Instrument type: LC-ESI-QFT
Ms type: MS2
Ion mode: POSITIVE
Ionization: ESI
Fragmentation mode: HCD
Collision energy: 15 (nominal)
Resolution: 35000
Column name: XBridge C18 3.5um, 2.1x50mm, Waters
Retention time: 7.9 min
Base peak: 315.1259
Precursor m/z: 301.1104
Precursor type: [M+H]+
m/z	relative intensity	assigned
57.0699	3	C4H9+
59.0491	1	C3H7O+
69.0698	1	C5H9+
71.0855	21	C5H11+
107.0493	3	C7H7O+
117.0698	6	C9H9+
131.0855	4	C10H11+
151.0211	1	C8H7OS+
153.0004	1	C7H5O2S+
165.0369	1	C9H9OS+
171.0103	4	C7H7O3S+
172.1249	2	C13H16+
173.1326	22	C13H17+
179.0526	1	C10H11OS+
181.0318	1	C9H9O2S+
185.0267	79	C8H9O3S+
195.0472	3	C10H11O2S+
199.0424	73	C9H11O3S+
201.0732	2	C13H13S+
213.058	26	C10H13O3S+
217.053	1	C9H13O4S+
219.0839	6	C13H15OS+
231.0687	2	C10H15O4S+
237.0944	18	C13H17O2S+
247.0789	1	C14H15O2S+
255.105	27	C13H19O3S+
265.0893	4	C14H17O3S+
269.1212	1	C14H21O3S+
273.1155	2	C13H21O4S+
283.0998	166	C14H19O4S+
301.1105	999	C14H21O5S+
