Mass spectrum: Losartan; LC-ESI-QFT; MS2; CE: 150; R=35000; [M+H]+
Name: Losartan
Name: [2-butyl-5-chloranyl-3-[[4-[2-(2H-1,2,3,4-tetrazol-5-yl)phenyl]phenyl]methyl]imidazol-4-yl]methanol
Formula: C22H23ClN6O
Exact mass: 421.15436
SMILES: Clc1nc(n(c1CO)Cc4ccc(c2ccccc2c3[nH]nnn3)cc4)CCCC
InChI: InChI=1S/C22H23ClN6O/c1-2-3-8-20-24-21(23)19(14-30)29(20)13-15-9-11-16(12-10-15)17-6-4-5-7-18(17)22-25-27-28-26-22/h4-7,9-12,30H,2-3,8,13-14H2,1H3,(H,25,26,27,28)
Instrument: Q Exactive Plus Orbitrap Thermo Scientific
Instrument type: LC-ESI-QFT
Ms type: MS2
Ion mode: POSITIVE
Ionization: ESI
Fragmentation mode: HCD
Collision energy: 150 (nominal)
Resolution: 35000
Column name: XBridge C18 3.5um, 2.1x50mm, Waters
Retention time: 8.9 min
Base peak: 423.1691
Precursor m/z: 423.1695
Precursor type: [M+H]+
m/z	relative intensity	assigned
50.0151	97	C4H2+
51.0229	77	C4H3+
52.0182	10	C3H2N+
53.0022	16	C3HO+
53.0386	113	C4H5+
53.9974	2	C2NO+
54.0338	49	C3H4N+
55.0177	3	C3H3O+
55.0542	22	C4H7+
57.0699	2	C4H9+
60.9839	42	C2H2Cl+
61.0072	12	C5H+
61.9792	20	CHClN+
62.0151	47	C5H2+
63.0229	230	C5H3+
64.0181	9	C4H2N+
64.0307	3	C5H4+
65.0022	6	C4HO+
65.0385	82	C5H5+
66.0464	9	C5H6+
67.0416	3	C4H5N+
67.0542	6	C5H7+
74.015	52	C6H2+
75.0229	232	C6H3+
76.0181	29	C5H2N+
76.0306	35	C6H4+
77.0385	148	C6H5+
78.0338	23	C5H4N+
78.0464	49	C6H6+
79.0541	2	C6H7+
80.0494	41	C5H6N+
81.0335	10	C5H5O+
86.015	27	C7H2+
87.0229	109	C7H3+
87.9949	3	C3H3ClN+
88.0182	26	C6H2N+
88.0307	41	C7H4+
89.0385	276	C7H5+
90.0339	18	C6H4N+
90.0464	29	C7H6+
91.0542	40	C7H7+
92.0496	2	C6H6N+
93.0573	2	C6H7N+
94.0413	6	C6H6O+
95.0491	270	C6H7O+
96.0443	21	C5H6NO+
98.015	36	C8H2+
99.0229	80	C8H3+
100.0181	7	C7H2N+
100.0307	15	C8H4+
101.0261	2	C7H3N+
101.0386	32	C8H5+
102.0338	26	C7H4N+
102.0464	103	C8H6+
103.0416	2	C7H5N+
103.0541	15	C8H7+
104.0493	3	C7H6N+
105.0447	148	C6H5N2+
107.0602	3	C6H7N2+
108.0803	1	C7H10N+
110.0151	8	C9H2+
111.023	32	C9H3+
112.0182	11	C8H2N+
112.0307	6	C9H4+
113.0385	286	C9H5+
114.0338	66	C8H4N+
114.0464	34	C9H6+
115.0542	384	C9H7+
116.0495	21	C8H6N+
117.0572	15	C8H7N+
118.0413	6	C8H6O+
119.0492	27	C8H7O+
120.0208	2	C4H7ClNO+
120.0443	8	C7H6NO+
122.015	2	C10H2+
123.023	13	C10H3+
124.0182	2	C9H2N+
124.0307	9	C10H4+
125.0386	139	C10H5+
126.0464	327	C10H6+
127.0416	31	C9H5N+
127.0542	116	C10H7+
128.0494	60	C9H6N+
128.062	60	C10H8+
129.0446	99	C8H5N2+
129.0574	9	C9H7N+
130.0399	32	C7H4N3+
130.0649	2	C9H8N+
132.0443	8	C8H6NO+
132.0569	14	C9H8O+
136.0308	1	C11H4+
137.0385	177	C11H5+
138.0339	41	C10H4N+
138.0463	62	C11H6+
139.0542	440	C11H7+
140.0494	351	C10H6N+
141.0213	10	C6H6ClN2+
141.0574	6	C10H7N+
142.0289	2	C6H7ClN2+
142.0413	1	C10H6O+
143.049	25	C10H7O+
145.0648	63	C10H9O+
146.0599	13	C9H8NO+
149.0386	39	C12H5+
150.0464	930	C12H6+
151.0417	40	C11H5N+
151.0542	264	C12H7+
152.0495	55	C11H6N+
152.062	999	C12H8+
153.0445	21	C10H5N2+
153.0572	88	C11H7N+
153.0697	9	C12H9+
154.04	8	C9H4N3+
154.0652	16	C11H8N+
155.0499	20	C8H10ClN+
155.0603	109	C10H7N2+
156.0441	1	C10H6NO+
156.057	9	C11H8O+
157.0522	9	C10H7NO+
161.0385	68	C13H5+
162.0339	10	C12H4N+
162.0463	86	C13H6+
163.0542	567	C13H7+
164.0494	401	C12H6N+
164.0618	175	C13H8+
165.0446	27	C11H5N2+
165.0698	355	C13H9+
166.0411	3	C12H6O+
166.0529	2	C11H6N2+
166.0651	30	C12H8N+
167.049	15	C12H7O+
167.073	2	C12H9N+
168.0569	78	C12H8O+
169.0647	980	C12H9O+
170.06	105	C11H8NO+
174.0464	3	C14H6+
175.0417	30	C13H5N+
176.0494	10	C13H6N+
176.0619	53	C14H8+
177.0573	493	C13H7N+
178.0651	319	C13H8N+
179.0603	351	C12H7N2+
180.0558	17	C11H6N3+
180.0805	8	C13H10N+
183.0553	7	C11H7N2O+
183.0683	2	C9H12ClN2+
183.0804	7	C13H11O+
185.0474	13	C8H10ClN2O+
185.0595	15	C7H10ClN4+
186.0331	1	C14H4N+
186.0465	2	C15H6+
187.0415	8	C14H5N+
187.0543	11	C15H7+
188.0494	191	C14H6N+
189.0574	22	C14H7N+
189.0699	3	C15H9+
190.065	100	C14H8N+
191.0603	20	C13H7N2+
192.068	3	C13H8N2+
193.0522	9	C13H7NO+
194.0361	18	C10H9ClNO+
194.0601	49	C13H8NO+
196.0519	39	C10H11ClNO+
196.0756	53	C13H10NO+
201.0575	2	C15H7N+
203.0604	23	C14H7N2+
204.0557	37	C13H6N3+
204.0673	15	C14H8N2+
205.076	100	C14H9N2+
212.0495	26	C16H6N+
214.0651	20	C16H8N+
221.0472	1	C11H10ClN2O+
239.0603	2	C17H7N2+
