Mass spectrum: Fluacrypyrim; LC-ESI-QFT; MS2; CE: 150%; R=17500; [M+H]+
Name: Fluacrypyrim
Name: Methyl 3-methoxy-2-[2-(2-isopropoxy-6-trifluoromethylpyrimidin-4-yloxymethyl) phenyl]acrylate
Name: methyl 3-methoxy-2-[2-[[2-propan-2-yloxy-6-(trifluoromethyl)pyrimidin-4-yl]oxymethyl]phenyl]prop-2-enoate
Formula: C20H21F3N2O5
Exact mass: 426.1403
SMILES: CC(C)OC1=NC(=CC(=N1)OCC2=CC=CC=C2C(=COC)C(=O)OC)C(F)(F)F
InChI: InChI=1S/C20H21F3N2O5/c1-12(2)30-19-24-16(20(21,22)23)9-17(25-19)29-10-13-7-5-6-8-14(13)15(11-27-3)18(26)28-4/h5-9,11-12H,10H2,1-4H3
Instrument: Exploris 240 Orbitrap Thermo Scientific
Instrument type: LC-ESI-QFT
Ms type: MS2
Ion mode: POSITIVE
Ionization: ESI
Fragmentation mode: HCD
Collision energy: 150 % (nominal)
Resolution: 17500
Column name: XBridge C18 3.5um, 2.1x50mm, Waters
Retention time: 12.205 min
Base peak: 326.0822
Precursor m/z: 427.1475
Precursor type: [M+H]+
m/z	relative intensity	assigned
50.0151	44	C4H2+
51.0229	74	C4H3+
52.0308	10	C4H4+
53.0385	32	C4H5+
63.0229	45	C5H3+
65.0386	86	C5H5+
74.0151	42	C6H2+
75.023	8	C6H3+
76.0307	194	C6H4+
77.0386	150	C6H5+
78.0466	17	C6H6+
89.0387	72	C7H5+
91.0542	154	C7H7+
95.0488	33	C6H7O+
102.0464	999	C8H6+
103.0543	224	C8H7+
105.0446	45	C6H5N2+
115.0542	218	C9H7+
116.0619	8	C9H8+
128.0622	18	C10H8+
