Mass spectrum: Mefenpyr-diethyl; LC-ESI-QFT; MS2; CE: 30; R=35000; [M+H]+
Name: Mefenpyr-diethyl
Name: 1-(2,4-Dichlorophenyl)-4,5-dihydro-5-methyl-1H-pyrazole-3,5-dicarboxylic acid diethyl ester
Name: 1-(2,4-dichlorophenyl)-5-methyl-2-pyrazoline-3,5-dicarboxylic acid diethyl ester
Formula: C16H18Cl2N2O4
Exact mass: 372.06436
SMILES: Clc1cc(Cl)c(cc1)N2/N=C(/C(=O)OCC)CC2(C(=O)OCC)C
InChI: InChI=1S/C16H18Cl2N2O4/c1-4-23-14(21)12-9-16(3,15(22)24-5-2)20(19-12)13-7-6-10(17)8-11(13)18/h6-8H,4-5,9H2,1-3H3
Instrument: Q Exactive Orbitrap Thermo Scientific
Instrument type: LC-ESI-QFT
Ms type: MS2
Ion mode: POSITIVE
Ionization: ESI
Fragmentation mode: HCD
Collision energy: 30 (nominal)
Resolution: 35000
Column name: XBridge C18 3.5um, 2.1x50mm, Waters
Retention time: 13.5 min
Base peak: 373.0724
Precursor m/z: 373.0716
Precursor type: [M+H]+
m/z	relative intensity	assigned
132.9601	3	C5H3Cl2+
144.9606	2	C6H3Cl2+
159.9717	71	C6H4Cl2N+
160.9795	5	C6H5Cl2N+
172.9669	18	C6H3Cl2N2+
185.987	18	C11H3ClO+
224.9984	2	C10H7Cl2N2+
226.0061	4	C10H8Cl2N2+
227.0139	7	C10H9Cl2N2+
252.9933	19	C11H7Cl2N2O+
254.0015	1	C11H8Cl2N2O+
271.0039	25	C11H9Cl2N2O2+
280.9886	2	C12H7Cl2N2O2+
298.9989	107	C12H9Cl2N2O3+
327.0301	999	C14H13Cl2N2O3+
359.0561	4	C15H17Cl2N2O4+
