Mass spectrum: Penconazole; LC-ESI-QFT; MS2; CE: 120; R=35000; [M+H]+
Name: Penconazole
Name: 1-[2-(2,4-dichlorophenyl)pentyl]-1,2,4-triazole
Formula: C13H15Cl2N3
Exact mass: 283.06430
SMILES: Clc1ccc(c(Cl)c1)C(CCC)Cn2ncnc2
InChI: InChI=1S/C13H15Cl2N3/c1-2-3-10(7-18-9-16-8-17-18)12-5-4-11(14)6-13(12)15/h4-6,8-10H,2-3,7H2,1H3
Instrument: Q Exactive Plus Orbitrap Thermo Scientific
Instrument type: LC-ESI-QFT
Ms type: MS2
Ion mode: POSITIVE
Ionization: ESI
Fragmentation mode: HCD
Collision energy: 120 (nominal)
Resolution: 35000
Column name: XBridge C18 3.5um, 2.1x50mm, Waters
Retention time: 12.7 min
Base peak: 284.0713
Precursor m/z: 284.0716
Precursor type: [M+H]+
m/z	relative intensity	assigned
50.015	2	C4H2+
62.015	7	C5H2+
63.0229	36	C5H3+
65.0385	3	C5H5+
70.0399	999	C2H4N3+
72.9839	131	C3H2Cl+
74.015	2	C6H2+
74.9995	8	C3H4Cl+
75.0229	49	C6H3+
76.0307	3	C6H4+
77.0384	5	C6H5+
82.9449	6	CHCl2+
87.0228	4	C7H3+
88.0307	20	C7H4+
89.0385	523	C7H5+
91.0541	3	C7H7+
95.0492	1	C3H10ClN+
96.9839	54	C5H2Cl+
98.9996	240	C5H4Cl+
100.0074	2	C5H5Cl+
101.0385	15	C8H5+
102.0464	107	C8H6+
103.0542	12	C8H7+
105.0447	1	C6H5N2+
106.9449	3	C3HCl2+
108.9607	3	C3H3Cl2+
119.0492	13	C5H10ClN+
120.0207	2	C4H7ClNO+
122.9995	582	C7H4Cl+
124.0074	215	C7H5Cl+
129.0446	38	C8H5N2+
132.9606	117	C5H3Cl2+
137.0152	5	C8H6Cl+
138.0229	4	C8H7Cl+
139.0056	3	C6H4ClN2+
158.9762	409	C7H5Cl2+
