Mass spectrum: Eseroline; LC-ESI-QFT; MS2; CE: 30; R=35000; [M+H]+
Name: Eseroline
Name: 1,3a,8-Trimethyl-1,2,3,3a,8,8a-hexahydropyrrolo[2,3-b]indol-5-ol
Name: 3,4,8b-trimethyl-2,3a-dihydro-1H-pyrrolo[2,3-b]indol-7-ol
Formula: C13H18N2O
Exact mass: 218.14191
SMILES: CC12CCN(C1N(C3=C2C=C(C=C3)O)C)C
InChI: InChI=1S/C13H18N2O/c1-13-6-7-14(2)12(13)15(3)11-5-4-9(16)8-10(11)13/h4-5,8,12,16H,6-7H2,1-3H3
Instrument: Q Exactive Plus Orbitrap Thermo Scientific
Instrument type: LC-ESI-QFT
Ms type: MS2
Ion mode: POSITIVE
Ionization: ESI
Fragmentation mode: HCD
Collision energy: 30 (nominal)
Resolution: 35000
Column name: XBridge C18 3.5um, 2.1x50mm, Waters
Retention time: 2.4 min
Base peak: 164.9844
Precursor m/z: 219.1492
Precursor type: [M+H]+
m/z	relative intensity	assigned
55.0542	9	C4H7+
57.0699	9	C4H9+
58.0652	13	C3H8N+
59.0492	11	C3H7O+
60.0444	13	C2H6NO+
69.0699	3	C5H9+
71.0492	3	C4H7O+
71.0855	7	C5H11+
74.0966	1	C4H12N+
81.0698	6	C6H9+
83.0491	3	C5H7O+
83.0854	2	C6H11+
85.0647	3	C5H9O+
87.0441	8	C4H7O2+
89.0598	14	C4H9O2+
93.07	7	C7H9+
95.0491	6	C6H7O+
95.0855	7	C7H11+
97.0649	2	C6H9O+
99.0804	2	C6H11O+
101.0597	14	C5H9O2+
105.0447	2	C6H5N2+
105.07	7	C8H9+
107.0856	6	C8H11+
109.065	2	C7H9O+
109.1013	10	C8H13+
111.044	15	C6H7O2+
111.0805	1	C7H11O+
113.0597	6	C6H9O2+
119.0857	12	C9H11+
121.0648	3	C8H9O+
121.1013	13	C9H13+
123.0809	2	C8H11O+
123.1168	3	C9H15+
132.102	10	C6H14NO2+
134.0601	2	C8H8NO+
135.0805	3	C9H11O+
135.1169	6	C10H15+
139.0182	3	C10H3O+
145.1013	12	C11H13+
149.0963	1	C10H13O+
151.0053	1	C10HNO+
159.01	11	C12HN+
159.0802	2	C11H11O+
159.1171	11	C12H15+
160.1242	1	C12H16+
161.0259	20	C12H3N+
161.0961	2	C11H13O+
161.1326	26	C12H17+
162.055	142	C9H8NO2+
162.0914	999	C10H12NO+
163.0753	2	C10H11O2+
163.112	3	C11H15O+
173.0964	3	C12H13O+
175.0055	6	C12HNO+
175.0418	2	C13H5N+
175.148	2	C13H19+
176.0707	15	C10H10NO2+
176.107	129	C11H14NO+
177.0212	7	C12H3NO+
179.0493	3	C13H7O+
186.0789	2	C11H10N2O+
187.0056	11	C13HNO+
188.0707	9	C11H10NO2+
188.107	48	C12H14NO+
189.0209	2	C13H3NO+
190.0865	3	C11H12NO2+
191.0005	10	C12HNO2+
191.0367	8	C13H5NO+
191.1431	6	C13H19O+
201.0918	2	C13H13O2+
201.1019	9	C12H13N2O+
