Mass spectrum: Pendimethalin; LC-ESI-QFT; MS2; CE: 60; R=35000; [M+H]+
Name: Pendimethalin
Name: (3,4-dimethyl-2,6-dinitro-phenyl)-(1-ethylpropyl)amine
Formula: C13H19N3O4
Exact mass: 281.13756
SMILES: [O-][N+](=O)c1c(c(cc([N+]([O-])=O)c1NC(CC)CC)C)C
InChI: InChI=1S/C13H19N3O4/c1-5-10(6-2)14-12-11(15(17)18)7-8(3)9(4)13(12)16(19)20/h7,10,14H,5-6H2,1-4H3
Instrument: Q Exactive Orbitrap Thermo Scientific
Instrument type: LC-ESI-QFT
Ms type: MS2
Ion mode: POSITIVE
Ionization: ESI
Fragmentation mode: HCD
Collision energy: 60 (nominal)
Resolution: 35000
Column name: XBridge C18 3.5um, 2.1x50mm, Waters
Retention time: 16.0 min
Base peak: 212.0667
Precursor m/z: 282.1448
Precursor type: [M+H]+
m/z	relative intensity	assigned
50.0153	5	C4H2+
51.023	3	C4H3+
52.0183	8	C3H2N+
53.0023	28	C3HO+
53.0387	19	C4H5+
54.0339	4	C3H4N+
56.0497	5	C3H6N+
63.023	18	C5H3+
64.0182	5	C4H2N+
64.0308	34	C5H4+
65.0261	26	C4H3N+
65.0386	150	C5H5+
66.0339	155	C4H4N+
66.0464	114	C5H6+
67.0179	7	C4H3O+
67.0292	20	C3H3N2+
67.0417	119	C4H5N+
67.0542	6	C5H7+
68.0131	21	C3H2NO+
68.0495	73	C4H6N+
69.0083	15	C2HN2O+
69.0335	10	C4H5O+
69.9923	27	C2NO2+
71.0856	154	C5H11+
76.0182	31	C5H2N+
76.0308	5	C6H4+
77.026	51	C5H3N+
77.0385	4	C6H5+
78.0339	283	C5H4N+
78.0464	29	C6H6+
79.0291	38	C4H3N2+
79.0417	44	C5H5N+
79.0543	69	C6H7+
80.0495	368	C5H6N+
81.0335	32	C5H5O+
81.0574	78	C5H7N+
82.0288	7	C4H4NO+
82.0415	11	C5H6O+
82.0652	4	C5H8N+
83.0365	3	C4H5NO+
83.0492	5	C5H7O+
90.0339	42	C6H4N+
90.0464	4	C7H6+
91.0417	999	C6H5N+
92.0369	63	C5H4N2+
92.0495	403	C6H6N+
93.0083	14	C4HN2O+
93.0447	74	C5H5N2+
93.0573	83	C6H7N+
94.0287	44	C5H4NO+
94.0414	24	C6H6O+
94.0526	61	C5H6N2+
94.0652	5	C6H8N+
95.0365	5	C5H5NO+
95.0493	41	C6H7O+
95.0605	19	C5H7N2+
96.0444	157	C5H6NO+
96.057	55	C6H8O+
97.0523	6	C5H7NO+
98.0601	26	C5H8NO+
103.0292	52	C6H3N2+
103.0417	197	C7H5N+
104.037	49	C6H4N2+
104.0495	86	C7H6N+
105.0448	227	C6H5N2+
106.0288	56	C6H4NO+
106.0413	6	C7H6O+
106.0527	45	C6H6N2+
106.0651	102	C7H8N+
107.0241	21	C5H3N2O+
107.0366	25	C6H5NO+
107.0604	107	C6H7N2+
108.0444	141	C6H6NO+
108.0682	18	C6H8N2+
109.0397	43	C5H5N2O+
109.0522	105	C6H7NO+
110.0601	86	C6H8NO+
112.0392	5	C5H6NO2+
116.0494	9	C8H6N+
117.0448	173	C7H5N2+
117.0572	33	C8H7N+
118.0525	584	C7H6N2+
118.0649	54	C8H8N+
119.0604	841	C7H7N2+
120.0192	42	C5H2N3O+
120.0444	186	C7H6NO+
120.0555	43	C6H6N3+
120.0683	57	C7H8N2+
121.0033	44	C5HN2O2+
121.0397	117	C6H5N2O+
121.0522	19	C7H7NO+
122.0475	94	C6H6N2O+
122.06	15	C7H8NO+
123.0552	20	C6H7N2O+
124.0395	28	C6H6NO2+
126.055	123	C6H8NO2+
129.0448	102	C8H5N2+
130.0401	56	C7H4N3+
130.0527	195	C8H6N2+
131.0241	23	C7H3N2O+
131.0479	76	C7H5N3+
131.0605	227	C8H7N2+
132.0319	17	C7H4N2O+
132.0556	92	C7H6N3+
133.0397	85	C7H5N2O+
133.0639	7	C7H7N3+
134.0351	5	C6H4N3O+
134.0475	20	C7H6N2O+
134.06	59	C8H8NO+
134.0714	5	C7H8N3+
135.0553	186	C7H7N2O+
136.0268	5	C6H4N2O2+
136.0396	18	C7H6NO2+
136.0632	54	C7H8N2O+
137.071	25	C7H9N2O+
138.0297	42	C5H4N3O2+
138.055	5	C7H8NO2+
139.0503	6	C6H7N2O2+
145.0398	51	C8H5N2O+
146.0475	17	C8H6N2O+
147.0554	515	C8H7N2O+
148.0509	48	C7H6N3O+
148.0632	843	C8H8N2O+
149.0585	390	C7H7N3O+
149.071	34	C8H9N2O+
150.0424	23	C7H6N2O2+
150.0661	48	C7H8N3O+
151.0504	35	C7H7N2O2+
159.0428	5	C8H5N3O+
160.0506	177	C8H6N3O+
162.03	8	C7H4N3O2+
163.0503	229	C8H7N2O2+
164.0581	101	C8H8N2O2+
165.066	130	C8H9N2O2+
166.0612	37	C7H8N3O2+
166.0735	41	C8H10N2O2+
176.0456	92	C8H6N3O2+
177.0534	502	C8H7N3O2+
178.0612	555	C8H8N3O2+
179.0453	99	C8H7N2O3+
181.0606	15	C8H9N2O3+
194.0561	750	C8H8N3O3+
195.064	476	C8H9N3O3+
212.0668	263	C8H10N3O4+
