Mass spectrum: Napropamid; LC-ESI-ITFT; MS2; CE: 60%; R=15000; [M+H]+
Name: Napropamid
Name: N,N-diethyl-2-(1-naphthalenyloxy)propanamide
Formula: C17H21NO2
Exact mass: 271.1567
SMILES: CCN(CC)C(=O)C(C)OC1=CC=CC2=CC=CC=C21
InChI: InChI=1S/C17H21NO2/c1-4-18(5-2)17(19)13(3)20-16-12-8-10-14-9-6-7-11-15(14)16/h6-13H,4-5H2,1-3H3
Instrument: LTQ Orbitrap XL Thermo Scientific
Instrument type: LC-ESI-ITFT
Ms type: MS2
Ion mode: POSITIVE
Ionization: ESI
Fragmentation mode: HCD
Collision energy: 60 % (nominal)
Resolution: 15000
Column name: XBridge C18 3.5um, 2.1x50mm, Waters
Retention time: 11.7 min
Base peak: 272.1651
Precursor m/z: 272.1645
Precursor type: [M+H]+
m/z	relative intensity	assigned
57.0334	25	C3H5O+
58.0651	765	C3H8N+
72.0444	82	C3H6NO+
72.0808	463	C4H10N+
74.0964	162	C4H12N+
86.0601	33	C4H8NO+
100.0757	168	C5H10NO+
100.1121	175	C6H14N+
101.0835	149	C5H11NO+
114.0914	133	C6H12NO+
115.0545	5	C9H7+
128.0621	73	C10H8+
128.107	95	C7H14NO+
129.0698	21	C10H9+
129.1148	287	C7H15NO+
143.0855	279	C11H11+
144.057	30	C10H8O+
145.0649	10	C10H9O+
152.0616	6	C12H8+
153.0699	122	C12H9+
155.0605	32	C10H7N2+
171.0805	999	C12H11O+
181.0759	28	C12H9N2+
