Mass spectrum: Lansoprazole; LC-ESI-QFT; MS2; CE: 45; R=35000; [M-H]-
Name: Lansoprazole
Name: 2-[[3-methyl-4-(2,2,2-trifluoroethoxy)pyridin-2-yl]methylsulfinyl]-1H-benzimidazole
Formula: C16H14F3N3O2S
Exact mass: 369.07588
SMILES: Cc1c(ccnc1CS(=O)c2[nH]c3ccccc3n2)OCC(F)(F)F
InChI: InChI=1S/C16H14F3N3O2S/c1-10-13(20-7-6-14(10)24-9-16(17,18)19)8-25(23)15-21-11-4-2-3-5-12(11)22-15/h2-7H,8-9H2,1H3,(H,21,22)
Instrument: Q Exactive Plus Orbitrap Thermo Scientific
Instrument type: LC-ESI-QFT
Ms type: MS2
Ion mode: NEGATIVE
Ionization: ESI
Fragmentation mode: HCD
Collision energy: 45 (nominal)
Resolution: 35000
Column name: XBridge C18 3.5um, 2.1x50mm, Waters
Retention time: 7.4 min
Base peak: 368.068
Precursor m/z: 368.0686
Precursor type: [M-H]-
m/z	relative intensity	assigned
106.0172	2	C5H2N2O-
116.038	10	C7H4N2-
120.9991	2	C6H3NS-
132.0329	10	C7H4N2O-
149.0179	7	C7H5N2S-
162.9972	5	C7H3N2OS-
164.005	999	C7H4N2OS-
165.0131	1	C7H5N2OS-
