Mass spectrum: Lidocaine-N-Oxide; LC-ESI-QFT; MS2; CE: 45; R=35000; [M+H]+
Name: Lidocaine-N-Oxide
Name: Lignocaine N-oxide
Name: 2-(2,6-dimethylanilino)-N,N-diethyl-2-oxoethanamine oxide
Formula: C14H22N2O2
Exact mass: 250.16813
SMILES: CC[N+](CC)(CC(=O)NC1=C(C=CC=C1C)C)[O-]
InChI: InChI=1S/C14H22N2O2/c1-5-16(18,6-2)10-13(17)15-14-11(3)8-7-9-12(14)4/h7-9H,5-6,10H2,1-4H3,(H,15,17)
Instrument: Q Exactive Plus Orbitrap Thermo Scientific
Instrument type: LC-ESI-QFT
Ms type: MS2
Ion mode: POSITIVE
Ionization: ESI
Fragmentation mode: HCD
Collision energy: 45 (nominal)
Resolution: 35000
Column name: XBridge C18 3.5um, 2.1x50mm, Waters
Retention time: 4.8 min
Base peak: 251.1752
Precursor m/z: 251.1754
Precursor type: [M+H]+
m/z	relative intensity	assigned
56.0494	2	C3H6N+
58.0651	60	C3H8N+
60.0444	27	C2H6NO+
72.0807	30	C4H10N+
73.0885	3	C4H11N+
74.06	42	C3H8NO+
74.0964	13	C4H12N+
84.0807	8	C5H10N+
86.0964	999	C5H12N+
88.0756	259	C4H10NO+
90.0915	2	C4H12NO+
105.0699	17	C8H9+
112.0755	3	C6H10NO+
120.0808	90	C8H10N+
121.0648	2	C8H9O+
121.0885	5	C8H11N+
122.0964	32	C8H12N+
123.0804	8	C8H11O+
130.0863	41	C6H12NO2+
132.0808	1	C9H10N+
133.0759	4	C8H9N2+
134.0964	6	C9H12N+
146.0964	1	C10H12N+
147.0678	1	C9H9NO+
148.0756	61	C9H10NO+
150.0914	1	C9H12NO+
162.0913	3	C10H12NO+
163.0629	3	C9H9NO2+
163.0991	8	C10H13NO+
164.107	53	C10H14NO+
178.0862	3	C10H12NO2+
205.133	1	C12H17N2O+
223.144	2	C12H19N2O2+
233.1649	6	C14H21N2O+
251.1753	29	C14H23N2O2+
