Mass spectrum: Ofurace; LC-ESI-QFT; MS2; CE: 180%; R=17500; [M+H]+
Name: Ofurace
Name: 2-chloro-N-(2,6-dimethylphenyl)-N-(2-oxooxolan-3-yl)acetamide
Formula: C14H16ClNO3
Exact mass: 281.0819
SMILES: CC1=C(C(=CC=C1)C)N(C2CCOC2=O)C(=O)CCl
InChI: InChI=1S/C14H16ClNO3/c1-9-4-3-5-10(2)13(9)16(12(17)8-15)11-6-7-19-14(11)18/h3-5,11H,6-8H2,1-2H3
Instrument: Exploris 240 Orbitrap Thermo Scientific
Instrument type: LC-ESI-QFT
Ms type: MS2
Ion mode: POSITIVE
Ionization: ESI
Fragmentation mode: HCD
Collision energy: 180 % (nominal)
Resolution: 17500
Column name: XBridge C18 3.5um, 2.1x50mm, Waters
Retention time: 5.728 min
Base peak: 312.1342
Precursor m/z: 282.0891
Precursor type: [M+H]+
m/z	relative intensity	assigned
51.0229	385	C4H3+
53.0386	327	C4H5+
65.0386	230	C5H5+
77.0386	999	C6H5+
78.0465	119	C6H6+
79.0542	527	C6H7+
90.0463	191	C7H6+
91.0542	438	C7H7+
95.049	296	C6H7O+
103.0541	504	C8H7+
106.0656	299	C7H8N+
115.0543	177	C9H7+
117.0573	725	C8H7N+
117.068	44	C3H14ClO2+
120.081	118	C8H10N+
128.0619	64	C10H8+
130.0652	605	C9H8N+
132.0807	45	C9H10N+
144.081	390	C10H10N+
