Mass spectrum: Imidacloprid-urea; LC-ESI-ITFT; MS2; CE: 45%; R=15000; [M+H]+
Name: Imidacloprid-urea
Name: 1-[(6-Chloropyridin-3-yl)methyl]imidazolidin-2-one
Formula: C9H10ClN3O
Exact mass: 211.0512
SMILES: Clc2ncc(CN1CCNC1=O)cc2
InChI: InChI=1S/C9H10ClN3O/c10-8-2-1-7(5-12-8)6-13-4-3-11-9(13)14/h1-2,5H,3-4,6H2,(H,11,14)
Instrument: LTQ Orbitrap XL Thermo Scientific
Instrument type: LC-ESI-ITFT
Ms type: MS2
Ion mode: POSITIVE
Ionization: ESI
Fragmentation mode: HCD
Collision energy: 45 % (nominal)
Resolution: 15000
Column name: XBridge C18 3.5um, 2.1x50mm, Waters
Retention time: 4.6 min
Base peak: 212.0588
Precursor m/z: 212.0585
Precursor type: [M+H]+
m/z	relative intensity	assigned
56.0494	3	C3H6N+
70.0287	1	C3H4NO+
71.0603	2	C3H7N2+
85.0396	5	C3H5N2O+
92.0494	2	C6H6N+
93.0574	2	C6H7N+
99.0553	213	C4H7N2O+
107.0603	1	C6H7N2+
114.0105	6	C5H5ClN+
126.0105	168	C6H5ClN+
127.0184	2	C6H6ClN+
128.0262	999	C6H7ClN+
133.076	3	C8H9N2+
142.0053	2	C6H5ClNO+
169.016	2	C7H6ClN2O+
169.0527	14	C8H10ClN2+
176.0818	33	C9H10N3O+
194.0481	8	C9H9ClN3+
195.032	37	C9H8ClN2O+
212.0585	866	C9H11ClN3O+
