Mass spectrum: Cefadroxil; LC-ESI-QFT; MS2; CE: 180; R=35000; [M+H]+
Name: Cefadroxil
Name: 7-[[2-azaniumyl-2-(4-hydroxyphenyl)acetyl]amino]-3-methyl-8-oxo-5-thia-1-azabicyclo[4.2.0]oct-2-ene-2-carboxylate
Formula: C16H17N3O5S
Exact mass: 363.08889
SMILES: CC1=C(N2C(C(C2=O)NC(=O)C(C3=CC=C(C=C3)O)N)SC1)C(=O)O
InChI: InChI=1S/C16H17N3O5S/c1-7-6-25-15-11(14(22)19(15)12(7)16(23)24)18-13(21)10(17)8-2-4-9(20)5-3-8/h2-5,10-11,15,20H,6,17H2,1H3,(H,18,21)(H,23,24)
Instrument: Q Exactive Plus Orbitrap Thermo Scientific
Instrument type: LC-ESI-QFT
Ms type: MS2
Ion mode: POSITIVE
Ionization: ESI
Fragmentation mode: HCD
Collision energy: 180 (nominal)
Resolution: 35000
Column name: XBridge C18 3.5um, 2.1x50mm, Waters
Retention time: 2.4 min
Base peak: 364.0954
Precursor m/z: 364.0962
Precursor type: [M+H]+
m/z	relative intensity	assigned
50.0152	193	C4H2+
51.023	455	C4H3+
52.0183	12	C3H2N+
52.0308	81	C4H4+
53.0022	48	C3HO+
53.0386	177	C4H5+
53.9975	14	C2NO+
54.0339	4	C3H4N+
55.0179	52	C3H3O+
56.0131	3	C2H2NO+
56.0495	4	C3H6N+
56.9793	14	C2HS+
57.9872	339	C2H2S+
58.995	999	C2H3S+
59.9664	40	COS+
59.9903	4	CH2NS+
62.0151	19	C5H2+
63.0229	113	C5H3+
65.0386	119	C5H5+
66.0465	11	C5H6+
67.0416	9	C4H5N+
68.0495	16	C4H6N+
68.9794	141	C3HS+
69.9923	24	C2NO2+
75.0229	19	C6H3+
76.0308	17	C6H4+
77.0385	234	C6H5+
78.0464	246	C6H6+
79.0179	10	C5H3O+
79.0417	4	C5H5N+
79.0542	20	C6H7+
80.0496	10	C5H6N+
81.0335	28	C5H5O+
86.0059	285	C3H4NS+
89.0386	119	C7H5+
90.0465	19	C7H6+
91.0542	39	C7H7+
94.0414	3	C6H6O+
95.0492	449	C6H7O+
96.0445	9	C5H6NO+
102.0466	11	C8H6+
104.0495	49	C7H6N+
105.0336	72	C7H5O+
105.0448	311	C6H5N2+
106.0416	4	C7H6O+
107.0491	37	C7H7O+
109.0108	4	C6H5S+
115.0546	12	C9H7+
117.0576	19	C8H7N+
119.0495	3	C8H7O+
128.0626	2	C10H8+
132.0445	4	C8H6NO+
133.0523	5	C8H7NO+
