Mass spectrum: Trimipramine N-Oxide; LC-ESI-QFT; MS2; CE: 45; R=35000; [M+H]+
Name: Trimipramine N-Oxide
Name: Trimipramine N-oxide, (+/-)-
Name: 3-(5,6-dihydrobenzo[b][1]benzazepin-11-yl)-N,N,2-trimethylpropan-1-amine oxide
Formula: C20H26N2O
Exact mass: 310.20451
SMILES: CC(CN1C2=CC=CC=C2CCC3=CC=CC=C31)C[N+](C)(C)[O-]
InChI: InChI=1S/C20H26N2O/c1-16(15-22(2,3)23)14-21-19-10-6-4-8-17(19)12-13-18-9-5-7-11-20(18)21/h4-11,16H,12-15H2,1-3H3
Instrument: Q Exactive Plus Orbitrap Thermo Scientific
Instrument type: LC-ESI-QFT
Ms type: MS2
Ion mode: POSITIVE
Ionization: ESI
Fragmentation mode: HCD
Collision energy: 45 (nominal)
Resolution: 35000
Column name: XBridge C18 3.5um, 2.1x50mm, Waters
Retention time: 8.9 min
Base peak: 311.2114
Precursor m/z: 311.2118
Precursor type: [M+H]+
m/z	relative intensity	assigned
55.0542	8	C4H7+
56.0494	9	C3H6N+
58.0651	119	C3H8N+
60.0444	16	C2H6NO+
70.0651	5	C4H8N+
71.0729	82	C4H9N+
84.0808	27	C5H10N+
85.0886	13	C5H11N+
86.0964	785	C5H12N+
91.054	3	C7H7+
98.0964	12	C6H12N+
99.1042	8	C6H13N+
100.112	10	C6H14N+
105.0699	7	C8H9+
116.1069	834	C6H14NO+
130.0652	2	C9H8N+
132.0807	4	C9H10N+
144.0811	2	C10H10N+
158.0964	1	C11H12N+
159.1041	1	C11H13N+
172.1122	5	C12H14N+
180.0805	2	C13H10N+
193.0885	115	C14H11N+
194.0964	5	C14H12N+
195.1043	106	C14H13N+
206.0961	4	C15H12N+
207.1044	3	C15H13N+
208.112	999	C15H14N+
220.1118	1	C16H14N+
221.1198	2	C16H15N+
222.1275	2	C16H16N+
224.1065	1	C15H14NO+
226.1227	1	C15H16NO+
234.1278	16	C17H16N+
235.1354	4	C17H17N+
248.1434	11	C18H18N+
249.1511	30	C18H19N+
250.159	147	C18H20N+
