Mass spectrum: Quinalphos; LC-ESI-QFT; MS2; CE: 150%; R=17500; [M+H]+
Name: Quinalphos
Name: diethoxy-quinoxalin-2-yloxy-sulfanylidene-lambda5-phosphane
Formula: C12H15N2O3PS
Exact mass: 298.0541
SMILES: CCOP(=S)(OCC)OC1=NC2=CC=CC=C2N=C1
InChI: InChI=1S/C12H15N2O3PS/c1-3-15-18(19,16-4-2)17-12-9-13-10-7-5-6-8-11(10)14-12/h5-9H,3-4H2,1-2H3
Instrument: Exploris 240 Orbitrap Thermo Scientific
Instrument type: LC-ESI-QFT
Ms type: MS2
Ion mode: POSITIVE
Ionization: ESI
Fragmentation mode: HCD
Collision energy: 150 % (nominal)
Resolution: 17500
Column name: XBridge C18 3.5um, 2.1x50mm, Waters
Retention time: 10.502 min
Base peak: 299.061
Precursor m/z: 299.0614
Precursor type: [M+H]+
m/z	relative intensity	assigned
51.0228	151	C4H3+
62.963	38	O2P+
64.9786	845	H2O2P+
65.0385	999	C5H5+
75.023	270	C6H3+
76.0183	54	C5H2N+
78.0339	23	C5H4N+
78.9401	525	OPS+
80.9737	69	H2O3P+
92.0494	641	C6H6N+
96.9507	606	H2O2PS+
102.0338	260	C7H4N+
114.9613	228	H4O3PS+
118.0527	36	C7H6N2+
119.0603	536	C7H7N2+
120.0448	20	C3H9N2OP+
129.0447	83	C8H5N2+
