Mass spectrum: Reserpine; LC-ESI-ITFT; MS2; CE: 90%; R=30000; [M+H]+
Name: Reserpine
Name: (1S,2R,3R,4aS,13bR,14aS)-2,11-dimethoxy-3-(3,4,5-trimethoxybenzoyl)oxy-1,2,3,4,4a,5,7,8,13,13b,14,14a-dodecahydroisoquinolino[3,2-a]$b-carboline-1-carboxylic acid methyl ester
Formula: C33H40N2O9
Exact mass: 608.2734
SMILES: CO[C@H]1[C@@H](C[C@@H]2CN3CCC4=C([C@H]3C[C@@H]2[C@@H]1C(=O)OC)NC5=C4C=CC(=C5)OC)OC(=O)C6=CC(=C(C(=C6)OC)OC)OC
InChI: InChI=1S/C33H40N2O9/c1-38-19-7-8-20-21-9-10-35-16-18-13-27(44-32(36)17-11-25(39-2)30(41-4)26(12-17)40-3)31(42-5)28(33(37)43-6)22(18)15-24(35)29(21)34-23(20)14-19/h7-8,11-12,14,18,22,24,27-28,31,34H,9-10,13,15-16H2,1-6H3/t18-,22+,24-,27-,28+,31+/m1/s1
Instrument: LTQ Orbitrap XL Thermo Scientific
Instrument type: LC-ESI-ITFT
Ms type: MS2
Ion mode: POSITIVE
Ionization: ESI
Fragmentation mode: HCD
Collision energy: 90 % (nominal)
Resolution: 30000
Column name: XBridge C18 3.5um, 2.1x50mm, Waters
Retention time: 8.3 min
Base peak: 609.2812
Precursor m/z: 609.2807
Precursor type: [M+H]+
m/z	relative intensity	assigned
53.0385	89	C4H5+
65.0386	39	C5H5+
66.0463	34	C5H6+
67.0542	31	C5H7+
71.0492	7	C4H7O+
75.0442	6	C3H7O2+
77.0386	138	C6H5+
78.0464	31	C6H6+
79.0542	108	C6H7+
80.0493	16	C5H6N+
81.0335	177	C5H5O+
81.0699	41	C6H9+
82.0649	8	C5H8N+
83.049	6	C5H7O+
85.0283	6	C4H5O2+
91.0542	127	C7H7+
92.0257	32	C6H4O+
93.0335	6	C6H5O+
93.0572	19	C6H7N+
93.0701	5	C7H9+
94.0413	51	C6H6O+
94.0651	44	C6H8N+
95.0491	62	C6H7O+
96.057	90	C6H8O+
97.0645	7	C6H9O+
99.0443	8	C5H7O2+
101.0597	7	C5H9O2+
103.0542	43	C8H7+
104.0622	15	C8H8+
105.0334	17	C7H5O+
105.0447	74	C6H5N2+
105.0571	14	C7H7N+
105.0699	32	C8H9+
106.0413	8	C7H6O+
106.0651	23	C7H8N+
107.0127	49	C6H3O2+
107.0492	28	C7H7O+
107.0728	10	C7H9N+
108.057	62	C7H8O+
108.0806	11	C7H10N+
109.0284	84	C6H5O2+
109.0648	87	C7H9O+
111.0441	21	C6H7O2+
111.0806	11	C7H11O+
113.0598	16	C6H9O2+
115.0542	147	C9H7+
116.0494	10	C8H6N+
116.0621	32	C9H8+
117.0573	96	C8H7N+
117.0698	43	C9H9+
118.0651	46	C8H8N+
119.049	13	C8H7O+
119.0732	6	C8H9N+
120.0806	16	C8H10N+
121.0284	72	C7H5O2+
121.0648	31	C8H9O+
122.0362	161	C7H6O2+
122.0729	9	C8H10O+
123.0439	23	C7H7O2+
124.0519	87	C7H8O2+
128.0621	23	C10H8+
129.0699	25	C10H9+
130.0651	377	C9H8N+
131.0729	999	C9H9N+
132.0444	42	C8H6NO+
132.0571	27	C9H8O+
132.0807	56	C9H10N+
133.0522	14	C8H7NO+
133.0647	10	C9H9O+
134.0362	17	C8H6O2+
134.0602	11	C8H8NO+
135.0438	9	C8H7O2+
135.0804	9	C9H11O+
136.0755	11	C8H10NO+
137.0233	214	C7H5O3+
139.0753	112	C8H11O2+
142.0651	83	C10H8N+
143.0729	525	C10H9N+
144.0568	19	C10H8O+
144.0807	119	C10H10N+
145.0522	57	C9H7NO+
145.0648	13	C10H9O+
145.0886	37	C10H11N+
146.06	128	C9H8NO+
146.0961	7	C10H12N+
147.0679	42	C9H9NO+
147.0805	36	C10H11O+
148.0756	26	C9H10NO+
149.0593	5	C9H9O2+
151.0389	161	C8H7O3+
152.0467	294	C8H8O3+
154.0651	50	C11H8N+
155.0603	19	C10H7N2+
155.073	35	C11H9N+
156.0807	36	C11H10N+
157.0886	33	C11H11N+
158.06	126	C10H8NO+
159.0678	771	C10H9NO+
160.0755	126	C10H10NO+
161.0835	23	C10H11NO+
162.0913	13	C10H12NO+
167.0735	36	C12H9N+
168.0807	49	C12H10N+
169.0523	6	C11H7NO+
169.0887	9	C12H11N+
170.06	99	C11H8NO+
171.0679	26	C11H9NO+
172.0756	82	C11H10NO+
173.0835	95	C11H11NO+
174.0912	461	C11H12NO+
180.0806	38	C13H10N+
181.0886	29	C13H11N+
182.0599	30	C12H8NO+
182.0963	9	C13H12N+
183.0678	37	C12H9NO+
184.0368	8	C8H8O5+
184.063	5	C11H8N2O+
184.0756	64	C12H10NO+
184.0996	9	C12H12N2+
185.0836	29	C12H11NO+
186.0911	35	C12H12NO+
187.0992	7	C12H13NO+
188.1067	8	C12H14NO+
191.0727	10	C14H9N+
192.0807	29	C14H10N+
193.0883	25	C14H11N+
194.0963	22	C14H12N+
195.065	60	C10H11O4+
195.9593	7	C2N2O9+
196.0757	41	C13H10NO+
197.0714	7	C12H9N2O+
197.0834	23	C13H11NO+
198.0912	34	C13H12NO+
199.0866	36	C12H11N2O+
204.0808	44	C15H10N+
205.0883	37	C15H11N+
206.0962	19	C15H12N+
207.1039	11	C15H13N+
208.0757	42	C14H10NO+
208.0993	16	C14H12N2+
209.0834	15	C14H11NO+
210.0912	42	C14H12NO+
211.0863	11	C13H11N2O+
211.0986	8	C14H13NO+
212.0942	15	C13H12N2O+
213.1022	13	C13H13N2O+
217.0885	40	C16H11N+
218.0963	63	C16H12N+
219.0681	6	C15H9NO+
219.1046	21	C16H13N+
220.0755	38	C15H10NO+
220.1119	8	C16H14N+
221.0836	24	C15H11NO+
221.1075	16	C15H13N2+
222.0914	49	C15H12NO+
222.1158	6	C15H14N2+
223.0861	18	C14H11N2O+
223.0994	22	C15H13NO+
224.1067	33	C15H14NO+
225.1027	7	C14H13N2O+
230.0962	37	C17H12N+
231.1038	15	C17H13N+
232.0755	29	C16H10NO+
233.0837	21	C16H11NO+
233.1202	9	C17H15N+
234.0912	39	C16H12NO+
235.0862	13	C15H11N2O+
235.0995	17	C16H13NO+
236.0944	50	C15H12N2O+
236.1071	31	C16H14NO+
237.1028	13	C15H13N2O+
237.114	8	C16H15NO+
238.1104	10	C15H14N2O+
239.1179	14	C15H15N2O+
242.0967	11	C18H12N+
243.105	7	C18H13N+
244.1115	14	C18H14N+
245.0839	9	C17H11NO+
245.1192	10	C18H15N+
246.0913	54	C17H12NO+
247.0992	31	C17H13NO+
248.1069	30	C17H14NO+
249.0787	9	C16H11NO2+
249.1019	29	C16H13N2O+
249.1149	4	C17H15NO+
250.1101	21	C16H14N2O+
250.1222	6	C17H16NO+
251.1177	41	C16H15N2O+
258.0913	18	C18H12NO+
259.1001	8	C18H13NO+
260.1068	37	C18H14NO+
261.1139	14	C18H15NO+
262.1223	29	C18H16NO+
264.1012	8	C17H14NO2+
273.1144	6	C19H15NO+
274.1222	7	C19H16NO+
275.1185	5	C18H15N2O+
278.1175	7	C18H16NO2+
289.1333	8	C19H17N2O+
291.1489	5	C19H19N2O+
397.2235	12	C24H31NO4+
