Mass spectrum: Thiazafluron; LC-ESI-QFT; MS2; CE: 30%; R=17500; [M+H]+
Name: Thiazafluron
Name: 1,3-dimethyl-1-[5-(trifluoromethyl)-1,3,4-thiadiazol-2-yl]urea
Formula: C6H7F3N4OS
Exact mass: 240.0293
SMILES: CNC(=O)N(C)C1=NN=C(S1)C(F)(F)F
InChI: InChI=1S/C6H7F3N4OS/c1-10-4(14)13(2)5-12-11-3(15-5)6(7,8)9/h1-2H3,(H,10,14)
Instrument: Exploris 240 Orbitrap Thermo Scientific
Instrument type: LC-ESI-QFT
Ms type: MS2
Ion mode: POSITIVE
Ionization: ESI
Fragmentation mode: HCD
Collision energy: 30 % (nominal)
Resolution: 17500
Column name: XBridge C18 3.5um, 2.1x50mm, Waters
Retention time: 5.836 min
Base peak: 241.0364
Precursor m/z: 241.0365
Precursor type: [M+H]+
m/z	relative intensity	assigned
164.0086	5	C4H4F2N3S+
184.0149	999	C4H5F3N3S+
241.0363	193	C6H8F3N4OS+
