Mass spectrum: Pyraclostrobin; LC-ESI-ITFT; MS2; CE: 90%; R=7500; [M+H]+
Name: Pyraclostrobin
Name: methyl [2-({[1-(4-chlorophenyl)-1H-pyrazol-3-yl]oxy}methyl)phenyl]methoxycarbamate
Formula: C19H18ClN3O4
Exact mass: 387.0986
SMILES: c1(ccc(n2ccc(OCc3c(cccc3)N(OC)C(OC)=O)n2)cc1)Cl
InChI: InChI=1S/C19H18ClN3O4/c1-25-19(24)23(26-2)17-6-4-3-5-14(17)13-27-18-11-12-22(21-18)16-9-7-15(20)8-10-16/h3-12H,13H2,1-2H3
Instrument: LTQ Orbitrap XL Thermo Scientific
Instrument type: LC-ESI-ITFT
Ms type: MS2
Ion mode: POSITIVE
Ionization: ESI
Fragmentation mode: HCD
Collision energy: 90 % (nominal)
Resolution: 7500
Column name: XBridge C18 3.5um, 2.1x50mm, Waters
Retention time: 13.4 min
Base peak: 388.1064
Precursor m/z: 388.1059
Precursor type: [M+H]+
m/z	relative intensity	assigned
53.0386	10	C4H5+
65.0386	41	C5H5+
77.0385	132	C6H5+
78.0339	29	C5H4N+
78.0464	106	C6H6+
79.0544	31	C6H7+
91.0416	68	C6H5N+
91.0542	132	C7H7+
92.0257	23	C6H4O+
92.0495	59	C6H6N+
93.0572	13	C6H7N+
94.041	16	C6H6O+
95.0487	21	C6H7O+
104.0494	999	C7H6N+
105.0572	620	C7H7N+
106.0287	105	C6H4NO+
106.0651	148	C7H8N+
107.073	19	C7H9N+
108.0444	31	C6H6NO+
116.0494	23	C8H6N+
117.0571	45	C8H7N+
118.065	99	C8H8N+
119.0365	358	C7H5NO+
120.0443	672	C7H6NO+
121.0646	178	C8H9O+
123.0675	17	C7H9NO+
128.0499	27	C9H6N+
130.0286	94	C8H4NO+
130.0405	43	C7H4N3+
132.0443	666	C8H6NO+
133.0522	226	C8H7NO+
134.0236	201	C7H4NO2+
134.0598	49	C8H8NO+
139.0058	59	C6H4ClN2+
148.0392	116	C8H6NO2+
149.0469	176	C8H7NO2+
162.0549	343	C9H8NO2+
163.0628	63	C9H9NO2+
253.052	20	C18H7NO+
