Mass spectrum: N-Desmethyltramadol; LC-ESI-QFT; MS2; CE: 75; R=35000; [M+H]+
Name: N-Desmethyltramadol
Name: N-demethyltramadol
Name: 1-(3-methoxyphenyl)-2-(methylaminomethyl)cyclohexan-1-ol
Formula: C15H23NO2
Exact mass: 249.17288
SMILES: CNCC1CCCCC1(c2cccc(c2)OC)O
InChI: InChI=1S/C15H23NO2/c1-16-11-13-6-3-4-9-15(13,17)12-7-5-8-14(10-12)18-2/h5,7-8,10,13,16-17H,3-4,6,9,11H2,1-2H3
Instrument: Q Exactive Plus Orbitrap Thermo Scientific
Instrument type: LC-ESI-QFT
Ms type: MS2
Ion mode: POSITIVE
Ionization: ESI
Fragmentation mode: HCD
Collision energy: 75 (nominal)
Resolution: 35000
Column name: XBridge C18 3.5um, 2.1x50mm, Waters
Retention time: 5.2 min
Base peak: 250.1799
Precursor m/z: 250.1802
Precursor type: [M+H]+
m/z	relative intensity	assigned
70.0651	65	C4H8N+
91.0543	193	C7H7+
93.07	73	
119.0605	45	
121.0649	999	C8H9O+
145.0647	55	
159.0805	79	C11H11O+
160.0878	39	C11H12O+
