Mass spectrum: Dimethoate; LC-ESI-ITFT; MS2; CE: 60%; R=15000; [M+H]+
Name: Dimethoate
Name: 2-(dimethoxyphosphinothioylthio)-N-methylacetamide
Formula: C5H12NO3PS2
Exact mass: 228.9996
SMILES: P(SCC(NC)=O)(OC)(OC)=S
InChI: InChI=1S/C5H12NO3PS2/c1-6-5(7)4-12-10(11,8-2)9-3/h4H2,1-3H3,(H,6,7)
Instrument: LTQ Orbitrap XL Thermo Scientific
Instrument type: LC-ESI-ITFT
Ms type: MS2
Ion mode: POSITIVE
Ionization: ESI
Fragmentation mode: HCD
Collision energy: 60 % (nominal)
Resolution: 15000
Column name: XBridge C18 3.5um, 2.1x50mm, Waters
Retention time: 5.2 min
Base peak: 230.007
Precursor m/z: 230.0069
Precursor type: [M+H]+
m/z	relative intensity	assigned
58.9949	1	C2H3S+
61.0106	9	C2H5S+
62.0185	6	C2H6S+
62.9995	1	CH4OP+
72.0442	1	C3H6NO+
76.0216	3	C2H6NS+
78.9943	100	CH4O2P+
86.0058	1	C3H4NS+
88.0215	86	C3H6NS+
92.026	1	C2H7NOP+
93.01	40	C2H6O2P+
94.9719	1	CH4OPS+
104.0165	9	C3H6NOS+
109.005	7	C2H6O3P+
110.9664	25	CH4O2PS+
119.9937	10	C3H6NS2+
123.9981	33	C2H7NOPS+
124.9821	999	C2H6O2PS+
127.0154	16	C2H8O4P+
128.977	26	CH6O3PS+
140.9593	2	C2H6OPS2+
142.9926	832	C2H8O3PS+
144.997	1	H7N3O2S2+
155.9701	16	C2H7NOPS2+
156.9541	126	C2H6O2PS2+
170.9698	77	C3H8O2PS2+
197.9802	1	C4H9NO2PS2+
230.0063	1	C5H13NO3PS2+
