Mass spectrum: N,N-Didesmethylvenlafaxine; LC-ESI-ITFT; MS2; CE: 45%; R=15000; [M+H]+
Name: N,N-Didesmethylvenlafaxine
Name: 1-[2-Amino-1-(4-methoxyphenyl)ethyl]cyclohexanol
Formula: C15H23NO2
Exact mass: 249.1729
SMILES: OC2(C(c1ccc(OC)cc1)CN)CCCCC2
InChI: InChI=1S/C15H23NO2/c1-18-13-7-5-12(6-8-13)14(11-16)15(17)9-3-2-4-10-15/h5-8,14,17H,2-4,9-11,16H2,1H3
Instrument: LTQ Orbitrap XL Thermo Scientific
Instrument type: LC-ESI-ITFT
Ms type: MS2
Ion mode: POSITIVE
Ionization: ESI
Fragmentation mode: HCD
Collision energy: 45 % (nominal)
Resolution: 15000
Column name: XBridge C18 3.5um, 2.1x50mm, Waters
Retention time: 6.3 min
Base peak: 250.1814
Precursor m/z: 250.1802
Precursor type: [M+H]+
m/z	relative intensity	assigned
67.0542	4	C5H7+
69.07	12	C5H9+
79.0543	56	C6H7+
81.0699	37	C6H9+
91.0542	40	C7H7+
93.0699	47	C7H9+
107.0492	5	C7H7O+
107.0856	53	C8H11+
119.0604	8	C7H7N2+
121.0649	999	C8H9O+
124.1121	20	C8H14N+
132.0571	26	C9H8O+
133.0644	7	C9H9O+
135.0806	59	C9H11O+
145.0646	7	C10H9O+
147.0806	676	C10H11O+
150.0913	7	C9H12NO+
158.0723	5	C11H10O+
159.0805	162	C11H11O+
161.0962	18	C11H13O+
173.0962	225	C12H13O+
183.1167	26	C14H15+
187.1112	11	C13H15O+
201.1276	15	C14H17O+
203.143	24	C14H19O+
215.1432	720	C15H19O+
232.1704	42	C15H22NO+
