Mass spectrum: Spirotetramat BYI08330-monohydroxy; LC-ESI-QFT; MS2; CE: 180%; R=17500; [M+H]+
Name: Spirotetramat BYI08330-monohydroxy
Name: 1-Azaspiro(4.5)decan-2-one, 3-(2,5-dimethylphenyl)-4-hydroxy-8-methoxy-
Name: 3-(2,5-dimethylphenyl)-4-hydroxy-8-methoxy-1-azaspiro[4.5]decan-2-one
Formula: C18H25NO3
Exact mass: 303.1834
SMILES: CC1=CC(=C(C=C1)C)C2C(C3(CCC(CC3)OC)NC2=O)O
InChI: InChI=1S/C18H25NO3/c1-11-4-5-12(2)14(10-11)15-16(20)18(19-17(15)21)8-6-13(22-3)7-9-18/h4-5,10,13,15-16,20H,6-9H2,1-3H3,(H,19,21)
Instrument: Exploris 240 Orbitrap Thermo Scientific
Instrument type: LC-ESI-QFT
Ms type: MS2
Ion mode: POSITIVE
Ionization: ESI
Fragmentation mode: HCD
Collision energy: 180 % (nominal)
Resolution: 17500
Column name: XBridge C18 3.5um, 2.1x50mm, Waters
Retention time: 5.434 min
Base peak: 304.1905
Precursor m/z: 304.1907
Precursor type: [M+H]+
m/z	relative intensity	assigned
50.0152	59	C4H2+
51.0229	425	C4H3+
53.0386	259	C4H5+
55.0542	44	C4H7+
63.023	58	C5H3+
65.0386	678	C5H5+
67.0543	44	C5H7+
77.0386	554	C6H5+
78.0464	162	C6H6+
79.0541	211	C6H7+
81.0697	27	C6H9+
89.0386	98	C7H5+
91.0542	835	C7H7+
95.0493	192	C6H7O+
102.0466	68	C8H6+
103.0544	196	C8H7+
104.0621	54	C8H8+
105.07	55	C8H9+
115.0543	999	C9H7+
117.0701	29	C9H9+
127.0547	52	C10H7+
128.062	429	C10H8+
129.0698	64	C10H9+
130.0651	31	C9H8N+
141.0698	170	C11H9+
152.0619	158	C12H8+
153.07	67	C12H9+
165.0698	176	C13H9+
178.0779	72	C14H10+
