Mass spectrum: Propachlor ESA; LC-ESI-ITFT; MS2; CE: 60%; R=15000; [M-H]-
Name: Propachlor ESA
Name: 2-[Isopropyl(phenyl)amino]-2-oxoethanesulfonic acid
Formula: C11H15NO4S
Exact mass: 257.0722
SMILES: O=S(=O)(O)CC(=O)N(c1ccccc1)C(C)C
InChI: InChI=1S/C11H15NO4S/c1-9(2)12(10-6-4-3-5-7-10)11(13)8-17(14,15)16/h3-7,9H,8H2,1-2H3,(H,14,15,16)
Instrument: LTQ Orbitrap XL Thermo Scientific
Instrument type: LC-ESI-ITFT
Ms type: MS2
Ion mode: NEGATIVE
Ionization: ESI
Fragmentation mode: HCD
Collision energy: 60 % (nominal)
Resolution: 15000
Column name: XBridge C18 3.5um, 2.1x50mm, Waters
Retention time: 5.7 min
Base peak: 256.0648
Precursor m/z: 256.0649
Precursor type: [M-H]-
m/z	relative intensity	assigned
76.9704	201	CHO2S-
79.9574	999	O3S-
120.9602	282	C2HO4S-
256.065	46	C11H14NO4S-
