Mass spectrum: Prometon; LC-ESI-ITFT; MS2; CE: 35%; R=30000; [M+H]+
Name: Prometon
Name: 6-methoxy-2-N,4-N-di(propan-2-yl)-1,3,5-triazine-2,4-diamine
Formula: C10H19N5O
Exact mass: 225.1584
SMILES: c1(nc(NC(C)C)nc(n1)OC)NC(C)C
InChI: InChI=1S/C10H19N5O/c1-6(2)11-8-13-9(12-7(3)4)15-10(14-8)16-5/h6-7H,1-5H3,(H2,11,12,13,14,15)
Instrument: LTQ Orbitrap XL Thermo Scientific
Instrument type: LC-ESI-ITFT
Ms type: MS2
Ion mode: POSITIVE
Ionization: ESI
Fragmentation mode: CID
Collision energy: 35 % (nominal)
Resolution: 30000
Column name: XBridge C18 3.5um, 2.1x50mm, Waters
Retention time: 6.7 min
Base peak: 226.1662
Precursor m/z: 226.1662
Precursor type: [M+H]+
m/z	relative intensity	assigned
86.035	2	C2H4N3O+
100.0506	1	C3H6N3O+
110.0713	1	C5H8N3+
128.0818	1	C5H10N3O+
142.0724	190	C4H8N5O+
152.1182	6	C8H14N3+
184.1193	999	C7H14N5O+
226.1661	17	C10H20N5O+
