Mass spectrum: Benodanil; LC-ESI-QFT; MS2; CE: 180%; R=17500; [M+H]+
Name: Benodanil
Name: 2-iodo-N-phenylbenzamide
Formula: C13H10INO
Exact mass: 322.9807
SMILES: C1=CC=C(C=C1)NC(=O)C2=CC=CC=C2I
InChI: InChI=1S/C13H10INO/c14-12-9-5-4-8-11(12)13(16)15-10-6-2-1-3-7-10/h1-9H,(H,15,16)
Instrument: Exploris 240 Orbitrap Thermo Scientific
Instrument type: LC-ESI-QFT
Ms type: MS2
Ion mode: POSITIVE
Ionization: ESI
Fragmentation mode: HCD
Collision energy: 180 % (nominal)
Resolution: 17500
Column name: XBridge C18 3.5um, 2.1x50mm, Waters
Retention time: 6.793 min
Base peak: 216.1009
Precursor m/z: 323.988
Precursor type: [M+H]+
m/z	relative intensity	assigned
50.0151	999	C4H2+
51.0229	154	C4H3+
52.0307	40	C4H4+
53.0385	33	C4H5+
65.0021	25	C4HO+
66.0464	46	C5H6+
74.0152	37	C6H2+
75.0228	55	C6H3+
76.0307	708	C6H4+
77.0385	61	C6H5+
94.0411	18	C6H6O+
95.0492	22	C6H7O+
