Mass spectrum: Furosemide; LC-ESI-ITFT; MS2; CE: 35%; R=7500; [M+H]+
Name: Furosemide
Name: Frusemide
Name: 4-chloranyl-2-(furan-2-ylmethylamino)-5-sulfamoyl-benzoic acid
Formula: C12H11ClN2O5S
Exact mass: 330.0077
SMILES: NS(=O)(=O)c2cc(c(NCc1ccco1)cc2Cl)C(=O)O
InChI: InChI=1S/C12H11ClN2O5S/c13-9-5-10(15-6-7-2-1-3-20-7)8(12(16)17)4-11(9)21(14,18)19/h1-5,15H,6H2,(H,16,17)(H2,14,18,19)
Instrument: LTQ Orbitrap XL Thermo Scientific
Instrument type: LC-ESI-ITFT
Ms type: MS2
Ion mode: POSITIVE
Ionization: ESI
Fragmentation mode: CID
Collision energy: 35 % (nominal)
Resolution: 7500
Column name: XBridge C18 3.5um, 2.1x50mm, Waters
Retention time: 6.8 min
Base peak: 352.9975
Precursor m/z: 331.015
Precursor type: [M+H]+
m/z	relative intensity	assigned
174.9916	138	C3H3N4O3S+
176.9887	308	C5H6ClN2OS+
252.9968	999	C11H8ClNO2S+
254.9935	522	C10H6ClNO5+
262.9892	138	C8H8ClN2O4S+
