Mass spectrum: Dicloxacillin; LC-ESI-QFT; MS2; CE: 75; R=35000; [M-H]-
Name: Dicloxacillin
Name: 6-[[3-(2,6-dichlorophenyl)-5-methyl-1,2-oxazole-4-carbonyl]amino]-3,3-dimethyl-7-oxo-4-thia-1-azabicyclo[3.2.0]heptane-2-carboxylic acid
Formula: C19H17Cl2N3O5S
Exact mass: 469.02660
SMILES: CC1=C(C(=NO1)C2=C(C=CC=C2Cl)Cl)C(=O)NC3C4N(C3=O)C(C(S4)(C)C)C(=O)O
InChI: InChI=1S/C19H17Cl2N3O5S/c1-7-10(12(23-29-7)11-8(20)5-4-6-9(11)21)15(25)22-13-16(26)24-14(18(27)28)19(2,3)30-17(13)24/h4-6,13-14,17H,1-3H3,(H,22,25)(H,27,28)
Instrument: Q Exactive Plus Orbitrap Thermo Scientific
Instrument type: LC-ESI-QFT
Ms type: MS2
Ion mode: NEGATIVE
Ionization: ESI
Fragmentation mode: HCD
Collision energy: 75 (nominal)
Resolution: 35000
Column name: XBridge C18 3.5um, 2.1x50mm, Waters
Retention time: 9.5 min
Base peak: 468.0196
Precursor m/z: 468.0193
Precursor type: [M-H]-
m/z	relative intensity	assigned
50.0036	14	C3N-
56.9804	36	C2HS-
57.9757	219	CNS-
58.9962	51	C2H3S-
59.9914	11	CH2NS-
64.0193	10	C4H2N-
65.9986	471	C3NO-
66.9415	7	ClS-
67.019	15	C4H3O-
70.9837	224	C2HNS-
71.9914	40	C2H2NS-
72.9993	453	C2H3NS-
74.0071	8	C2H4NS-
74.9911	461	C2H3OS-
81.9758	29	C3NS-
82.0299	238	C4H4NO-
83.0139	999	C4H3O2-
83.9911	7	C3H2NS-
90.0351	8	C6H4N-
99.9862	35	C3H2NOS-
110.9915	6	C2H6ClNS-
112.9941	11	C4H3NOS-
113.027	7	C8H3N-
115.0302	29	C7H3N2-
116.0144	8	C7H2NO-
123.9959	36	C6H3ClN-
139.0302	9	C9H3N2-
140.0507	16	C10H6N-
141.0457	12	C9H5N2-
151.9912	71	C4H6Cl2N2-
158.0069	15	C9H4NS-
159.9728	56	C6H4Cl2N-
165.046	57	C11H5N2-
166.0298	9	C11H4NO-
168.0456	49	C11H6NO-
169.0407	36	C10H5N2O-
174.9958	28	C10H4ClO-
175.0069	26	C9H4ClN2-
179.0375	12	C12H5NO-
183.9725	28	C8H4Cl2N-
184.0229	11	C11H6NS-
189.9941	11	C6H6O5S-
190.0066	10	C10H5ClNO-
191.0019	518	C6H7O5S-
193.0402	13	C12H5N2O-
193.9837	7	C9H5ClNS-
203.0019	6	C7H7O5S-
216.0099	13	C8H8O5S-
218.9792	16	C10H4ClN2S-
225.9835	29	C10H6Cl2NO-
232.9706	13	C11H4ClNOS-
233.013	64	C11H6ClN2O2-
240.0011	9	C9H7ClN3OS-
242.9966	13	C12H4ClN2O2-
271.9905	13	C9H7ClN3O3S-
