Mass spectrum: Chlorothalonil TP SYN548008; LC-ESI-QFT; MS2; CE: 150%; R=15000; [M-H]-
Name: Chlorothalonil TP SYN548008
Name: 4,6-dicarbamoyl-2,5-dichlorobenzene-1,3-disulfonic acid
Formula: C8H6Cl2N2O8S2
Exact mass: 391.8943
SMILES: O=S(C1=C(C(N)=O)C(Cl)=C(C(N)=O)C(S(=O)(O)=O)=C1Cl)(O)=O
InChI: InChI=1S/C8H6Cl2N2O8S2/c9-3-1(7(11)13)5(21(15,16)17)4(10)6(22(18,19)20)2(3)8(12)14/h(H2,11,13)(H2,12,14)(H,15,16,17)(H,18,19,20)
Instrument: Orbitrap Exploris 240 Thermo Scientific
Instrument type: LC-ESI-QFT
Ms type: MS2
Ion mode: NEGATIVE
Ionization: ESI
Fragmentation mode: HCD
Collision energy: 150 % (nominal)
Resolution: 15000
Column name: Atlantis C18 3um, 3.0x150mm, Waters
Retention time: 4.150 min
Base peak: 194.9398
Precursor m/z: 390.887
Precursor type: [M-H]-
Precursor intensity: 463237.78125
m/z	relative intensity	assigned
94.9696	999	C5Cl-
