Mass spectrum: Tetracycline; LC-ESI-QFT; MS2; CE: 15; R=35000; [M+H]+
Name: Tetracycline
Name: (4S,4aS,5aS,6S,12aS)-4-(Dimethylamino)-3,6,10,12,12a-pentahydroxy-6-methyl-1,11-dioxo-1,4,4a,5,5a,6,11,12a-octahydro-2-tetracenecarboxamide
Name: tetrex
Formula: C22H24N2O8
Exact mass: 444.15327
SMILES: C[C@]1(c2cccc(c2C(=O)C3=C([C@]4([C@@H](C[C@@H]31)[C@@H](C(=C(C4=O)C(=O)N)O)N(C)C)O)O)O)O
InChI: InChI=1S/C22H24N2O8/c1-21(31)8-5-4-6-11(25)12(8)16(26)13-9(21)7-10-15(24(2)3)17(27)14(20(23)30)19(29)22(10,32)18(13)28/h4-6,9-10,15,25,27-28,31-32H,7H2,1-3H3,(H2,23,30)/t9-,10-,15-,21+,22-/m0/s1
Instrument: Q Exactive Orbitrap Thermo Scientific
Instrument type: LC-ESI-QFT
Ms type: MS2
Ion mode: POSITIVE
Ionization: ESI
Fragmentation mode: HCD
Collision energy: 15 (nominal)
Resolution: 35000
Column name: XBridge C18 3.5um, 2.1x50mm, Waters
Retention time: 4.8 min
Base peak: 445.1606
Precursor m/z: 445.1605
Precursor type: [M+H]+
m/z	relative intensity	assigned
109.0029	1	C4HN2O2+
154.0497	27	C7H8NO3+
171.0763	12	C7H11N2O3+
337.0704	3	C19H13O6+
365.0673	2	C20H13O7+
382.0926	3	C20H16NO7+
392.1126	8	C22H18NO6+
410.1235	932	C22H20NO7+
427.1501	999	C22H23N2O7+
428.1341	372	C22H22NO8+
445.1607	832	C22H25N2O8+
