Mass spectrum: Naptalam; LC-ESI-QFT; MS2; CE: 60; R=35000; [M+H]+
Name: Naptalam
Name: 2-(1-naphthylcarbamoyl)benzoic acid
Formula: C18H13NO3
Exact mass: 291.08954
SMILES: O=C(O)c1ccccc1C(=O)Nc3cccc2ccccc23
InChI: InChI=1S/C18H13NO3/c20-17(14-9-3-4-10-15(14)18(21)22)19-16-11-5-7-12-6-1-2-8-13(12)16/h1-11H,(H,19,20)(H,21,22)
Instrument: Q Exactive Orbitrap Thermo Scientific
Instrument type: LC-ESI-QFT
Ms type: MS2
Ion mode: POSITIVE
Ionization: ESI
Fragmentation mode: HCD
Collision energy: 60 (nominal)
Resolution: 35000
Column name: XBridge C18 3.5um, 2.1x50mm, Waters
Retention time: 7.2 min
Base peak: 292.0968
Precursor m/z: 292.0968
Precursor type: [M+H]+
m/z	relative intensity	assigned
65.0385	28	C5H5+
93.0334	16	C6H5O+
95.0492	2	C6H7O+
103.0542	5	C8H7+
105.0334	9	C7H5O+
111.044	12	C6H7O2+
115.0541	2	C9H7+
117.0698	26	C9H9+
121.0283	146	C7H5O2+
121.0395	20	C6H5N2O+
127.0541	11	C10H7+
128.0622	2	C10H8+
130.0287	20	C8H4NO+
143.073	35	C10H9N+
144.0807	811	C10H10N+
145.0647	89	C10H9O+
149.0233	999	C8H5O3+
155.0603	52	C10H7N2+
167.0338	7	C8H7O4+
196.0391	1	C12H6NO2+
201.0693	2	C16H9+
219.0807	3	C16H11O+
227.0728	8	C17H9N+
228.0807	12	C17H10N+
246.0913	17	C17H12NO+
256.0756	375	C18H10NO+
274.0861	29	C18H12NO2+
