Mass spectrum: N-(2,4-dimethylphenyl)formamide; LC-ESI-QFT; MS2; CE: 90; R=35000; [M+H]+
Name: N-(2,4-dimethylphenyl)formamide
Formula: C9H11NO
Exact mass: 149.08406
SMILES: CC1=C(NC([H])=O)C=CC(C)=C1
InChI: InChI=1S/C9H11NO/c1-7-3-4-9(10-6-11)8(2)5-7/h3-6H,1-2H3,(H,10,11)
Instrument: Q Exactive Plus Orbitrap Thermo Scientific
Instrument type: LC-ESI-QFT
Ms type: MS2
Ion mode: POSITIVE
Ionization: ESI
Fragmentation mode: HCD
Collision energy: 90 (nominal)
Resolution: 35000
Column name: XBridge C18 3.5um, 2.1x50mm, Waters
Retention time: 6.6 min
Base peak: 150.0913
Precursor m/z: 150.0913
Precursor type: [M+H]+
m/z	relative intensity	assigned
50.0151	1	C4H2+
51.0229	1	C4H3+
53.0386	13	C4H5+
55.0543	3	C4H7+
65.0385	3	C5H5+
66.0464	1	C5H6+
67.0542	16	C5H7+
77.0385	41	C6H5+
79.0542	197	C6H7+
80.0494	1	C5H6N+
80.0621	3	C6H8+
81.0335	1	C5H5O+
81.0699	1	C6H9+
89.0385	2	C7H5+
90.0464	6	C7H6+
91.0543	10	C7H7+
93.0574	1	C6H7N+
93.07	4	C7H9+
94.0652	2	C6H8N+
95.0492	65	C6H7O+
95.0855	20	C7H11+
103.0543	107	C8H7+
104.062	1	C8H8+
105.0448	31	C6H5N2+
105.07	256	C8H9+
106.0652	417	C7H8N+
107.0729	999	C7H9N+
108.0569	31	C7H8O+
115.0542	1	C9H7+
117.0573	109	C8H7N+
120.0808	7	C8H10N+
121.0648	6	C8H9O+
121.0887	3	C8H11N+
122.0965	25	C8H12N+
123.0805	38	C8H11O+
130.0655	2	C9H8N+
131.0731	2	C9H9N+
132.0809	16	C9H10N+
133.0761	8	C8H9N2+
135.068	1	C8H9NO+
150.0914	4	C9H12NO+
