Mass spectrum: Chloridazon; LC-ESI-ITFT; MS2; CE: 90%; R=30000; [M+H]+
Name: Chloridazon
Name: 5-amino-4-chloro-2-phenyl-3-pyridazinone
Formula: C10H8ClN3O
Exact mass: 221.0350
SMILES: ClC(=C(N)C=N1)C(=O)N1-c(ccc2)cc2
InChI: InChI=1S/C10H8ClN3O/c11-9-8(12)6-13-14(10(9)15)7-4-2-1-3-5-7/h1-6H,12H2
Instrument: LTQ Orbitrap XL Thermo Scientific
Instrument type: LC-ESI-ITFT
Ms type: MS2
Ion mode: POSITIVE
Ionization: ESI
Fragmentation mode: HCD
Collision energy: 90 % (nominal)
Resolution: 30000
Column name: XBridge C18 3.5um, 2.1x50mm, Waters
Retention time: 5.2 min
Base peak: 222.0432
Precursor m/z: 222.0429
Precursor type: [M+H]+
m/z	relative intensity	assigned
53.0385	38	C4H5+
55.029	30	C2H3N2+
63.9948	41	CH3ClN+
65.0386	557	C5H5+
66.0212	22	C3H2N2+
73.9792	20	C2HClN+
75.9949	36	C2H3ClN+
77.0386	772	C6H5+
81.0335	9	C5H5O+
87.9949	180	C3H3ClN+
92.0495	999	C6H6N+
93.0573	132	C6H7N+
94.0651	196	C6H8N+
95.0491	91	C6H7O+
100.9901	255	C3H2ClN2+
101.9741	25	C3HClNO+
104.0495	501	C7H6N+
105.0447	260	C6H5N2+
114.0337	14	C8H4N+
116.9976	40	C4H4ClNO+
119.0604	27	C7H7N2+
122.9995	12	C7H4Cl+
125.0152	15	C7H6Cl+
128.985	252	C4H2ClN2O+
130.0651	113	C9H8N+
131.0604	43	C8H7N2+
132.0444	32	C8H6NO+
132.0684	15	C8H8N2+
142.0525	15	C9H6N2+
146.0115	300	C4H5ClN3O+
149.0154	20	C9H6Cl+
150.0105	83	C8H5ClN+
158.0607	8	C10H8NO+
159.0553	26	C9H7N2O+
160.063	9	C9H8N2O+
186.0658	12	C10H8N3O+
193.029	50	C10H8ClNO+
222.0421	41	C10H9ClN3O+
