Mass spectrum: Chlortetracycline; LC-ESI-QFT; MS2; CE: 60; R=35000; [M-H]-
Name: Chlortetracycline
Name: 2-carbamoyl-7-chloro-4-(dimethylazaniumyl)-6,10,11,12a-tetrahydroxy-6-methyl-3,12-dioxo-4,4a,5,5a-tetrahydrotetracen-1-olate
Formula: C22H23ClN2O8
Exact mass: 478.11429
SMILES: CC1(C2CC3C(C(=O)C(=C(C3(C(=O)C2=C(C4=C(C=CC(=C41)Cl)O)O)O)O)C(=O)N)N(C)C)O
InChI: InChI=1S/C22H23ClN2O8/c1-21(32)7-6-8-15(25(2)3)17(28)13(20(24)31)19(30)22(8,33)18(29)11(7)16(27)12-10(26)5-4-9(23)14(12)21/h4-5,7-8,15,26-27,30,32-33H,6H2,1-3H3,(H2,24,31)
Instrument: Q Exactive Plus Orbitrap Thermo Scientific
Instrument type: LC-ESI-QFT
Ms type: MS2
Ion mode: NEGATIVE
Ionization: ESI
Fragmentation mode: HCD
Collision energy: 60 (nominal)
Resolution: 35000
Column name: XBridge C18 3.5um, 2.1x50mm, Waters
Retention time: 5.4 min
Base peak: 477.1067
Precursor m/z: 477.107
Precursor type: [M-H]-
m/z	relative intensity	assigned
57.0346	2	C3H5O-
59.0138	35	C2H3O2-
63.0241	18	C5H3-
65.0033	6	C4HO-
65.0397	15	C5H5-
65.9985	22	C3NO-
67.0188	1	C4H3O-
68.9983	22	C3HO2-
71.0137	2	C3H3O2-
79.0553	7	C6H7-
81.0345	7	C5H5O-
83.0138	5	C4H3O2-
83.0503	6	C5H7O-
84.009	64	C3H2NO2-
86.0248	7	C3H4NO2-
87.0087	11	C3H3O3-
90.0347	1	C6H4N-
91.019	8	C6H3O-
93.0345	24	C6H5O-
95.0137	18	C5H3O2-
95.0503	3	C6H7O-
96.009	8	C4H2NO2-
96.9931	20	C4HO3-
97.0294	6	C5H5O2-
99.0087	9	C4H3O3-
100.0767	6	C5H10NO-
102.0561	3	C4H8NO2-
103.0553	3	C8H7-
104.0269	1	C7H4O-
105.0346	18	C7H5O-
107.0139	8	C6H3O2-
107.0502	33	C7H7O-
108.0216	21	C6H4O2-
109.0295	54	C6H5O2-
111.0088	11	C5H3O3-
111.0452	43	C6H7O2-
117.0346	40	C8H5O-
118.0298	5	C7H4NO-
119.0139	22	C7H3O2-
119.0503	12	C8H7O-
120.0217	6	C7H4O2-
120.0454	1	C7H6NO-
121.0297	17	C7H5O2-
121.0658	33	C8H9O-
122.001	2	C6H2O3-
122.0376	2	C7H6O2-
123.0088	6	C6H3O3-
123.0451	31	C7H7O2-
124.004	8	C5H2NO3-
124.0166	3	C6H4O3-
124.0767	7	C7H10NO-
124.9798	2	C6H2ClO-
124.988	2	C5HO4-
125.0242	3	C6H5O3-
125.072	28	C6H9N2O-
125.9878	12	C6H3ClO-
126.0196	5	C5H4NO3-
126.056	53	C6H8NO2-
126.9956	306	C6H4ClO-
131.0139	11	C8H3O2-
131.0502	11	C9H7O-
132.0215	9	C8H4O2-
133.0295	51	C8H5O2-
134.0247	26	C7H4NO2-
134.0373	2	C8H6O2-
135.0088	119	C7H3O3-
135.0451	56	C8H7O2-
136.0164	13	C7H4O3-
136.0403	26	C7H6NO2-
137.0243	18	C7H5O3-
137.0606	7	C8H9O2-
137.9957	2	C6H2O4-
138.0321	2	C7H6O3-
139.0149	43	C5H3N2O3-
139.0401	2	C7H7O3-
140.0034	3	C7H5ClO-
141.9827	19	C6H3ClO2-
142.0147	6	C5H4NO4-
142.9985	23	C5H3O5-
143.0503	1	C10H7O-
145.0295	25	C9H5O2-
146.0372	11	C9H6O2-
147.0452	55	C9H7O2-
148.0167	5	C8H4O3-
148.0769	1	C9H10NO-
149.0244	35	C8H5O3-
149.0608	76	C9H9O2-
149.996	2	C7H2O4-
150.0194	12	C7H4NO3-
150.9955	30	C8H4ClO-
151.0401	7	C8H7O3-
152.0354	18	C7H6NO3-
152.0715	1	C8H10NO2-
153.0113	35	C8H6ClO-
153.0176	2	C5H3N3O3-
153.0557	5	C8H9O3-
154.0385	6	C6H6N2O3-
154.9907	8	C7H4ClO2-
157.0294	2	C10H5O2-
158.0373	2	C10H6O2-
159.045	3	C10H7O2-
160.0166	37	C9H4O3-
161.0244	61	C9H5O3-
162.0197	83	C8H4NO3-
163.0038	117	C8H3O4-
163.0401	22	C9H7O3-
164.0116	10	C8H4O4-
164.0353	12	C8H6NO3-
164.0715	2	C9H10NO2-
165.0112	2	C9H6ClO-
165.043	11	C8H7NO3-
165.056	1	C9H9O3-
165.067	7	C8H9N2O2-
166.0873	10	C9H12NO2-
166.9905	9	C8H4ClO2-
167.0223	1	C7H5NO4-
168.0669	1	C5H13ClN2O2-
169.0062	999	C8H6ClO2-
170.0374	1	C11H6O2-
170.9855	38	C7H4ClO3-
171.0452	9	C11H7O2-
172.0164	1	C10H4O3-
172.0528	7	C11H8O2-
173.0244	11	C10H5O3-
174.0322	5	C10H6O3-
175.0038	5	C9H3O4-
175.0326	2	C11H8Cl-
175.04	34	C10H7O3-
177.0112	7	C10H6ClO-
177.0308	3	C8H5N2O3-
178.9905	55	C9H4ClO2-
179.9983	18	C9H5ClO2-
180.0301	28	C8H6NO4-
181.0062	9	C9H6ClO2-
181.0142	2	C8H5O5-
181.0503	2	C9H9O4-
182.0142	10	C9H7ClO2-
182.0369	1	C12H6O2-
183.0453	2	C12H7O2-
185.0607	8	C12H9O2-
186.0325	1	C11H6O3-
187.04	11	C11H7O3-
188.048	3	C11H8O3-
189.0193	7	C10H5O4-
189.0556	3	C11H9O3-
190.0272	3	C10H6O4-
191.0267	8	C11H8ClO-
191.0351	10	C10H7O4-
191.9983	6	C10H5ClO2-
192.1026	2	C11H14NO2-
193.0062	28	C10H6ClO2-
193.0505	11	C10H9O4-
193.0657	1	C14H9O-
194.0139	3	C10H7ClO2-
194.9854	901	C9H4ClO3-
195.9932	13	C9H5ClO3-
196.0532	7	C13H8O2-
197.001	99	C9H6ClO3-
197.0608	8	C13H9O2-
198.0325	12	C12H6O3-
199.0395	4	C12H7O3-
199.0764	33	C13H11O2-
201.0197	6	C8H8ClNO3-
203.027	18	C12H8ClO-
205.0064	15	C11H6ClO2-
206.0139	112	C11H7ClO2-
207.0217	172	C11H8ClO2-
207.9932	41	C10H5ClO3-
208.0526	2	C14H8O2-
209.0609	28	C14H9O2-
209.0932	9	C10H13N2O3-
211.04	12	C13H7O3-
211.0766	5	C14H11O2-
212.048	25	C13H8O3-
213.0557	1	C13H9O3-
214.0269	6	C12H6O4-
215.026	3	C13H8ClO-
215.0356	5	C9H10ClNO3-
217.0059	5	C12H6ClO2-
217.0424	47	C13H10ClO-
219.0218	43	C12H8ClO2-
220.0296	94	C12H9ClO2-
221.001	42	C11H6ClO3-
221.0375	64	C12H10ClO2-
221.0608	8	C15H9O2-
222.0086	6	C11H7ClO3-
222.0322	3	C14H6O3-
223.0168	9	C11H8ClO3-
223.0406	2	C11H10ClNO2-
223.0764	3	C15H11O2-
224.0478	11	C14H8O3-
225.0556	8	C14H9O3-
226.0275	11	C10H9ClNO3-
227.0714	10	C14H11O3-
229.0056	19	C13H6ClO2-
229.0419	3	C14H10ClO-
230.0134	12	C13H7ClO2-
231.0216	39	C13H8ClO2-
231.993	2	C12H5ClO3-
233.0015	6	C12H6ClO3-
233.0376	14	C13H10ClO2-
233.0602	2	C16H9O2-
235.0169	34	C12H8ClO3-
235.0401	17	C15H7O3-
235.0528	111	C13H12ClO2-
235.988	7	C11H5ClO4-
236.0479	8	C15H8O3-
237.0323	6	C12H10ClO3-
237.0557	13	C15H9O3-
238.0038	34	C11H7ClO4-
238.0271	11	C14H6O4-
239.0716	2	C15H11O3-
240.0429	21	C14H8O4-
243.0215	46	C14H8ClO2-
244.0294	3	C14H9ClO2-
245.0012	7	C13H6ClO3-
245.0374	137	C14H10ClO2-
246.0084	3	C13H7ClO3-
247.0167	67	C13H8ClO3-
247.0395	6	C16H7O3-
247.0531	6	C14H12ClO2-
248.0245	188	C13H9ClO3-
248.0478	12	C16H8O3-
248.9967	2	C12H6ClO4-
249.0323	8	C13H10ClO3-
249.0559	8	C16H9O3-
250.0041	5	C12H7ClO4-
250.0271	7	C15H6O4-
251.0116	5	C12H8ClO4-
251.0348	8	C15H7O4-
252.0426	12	C15H8O4-
253.0049	3	C16HN2O2-
253.016	1	C17H3NO2-
254.0221	17	C14H6O5-
255.0206	6	C16H3N2O2-
257.0374	53	C15H10ClO2-
258.0183	23	C10H9ClNO5-
259.0168	19	C14H8ClO3-
259.0527	6	C15H12ClO2-
259.9884	3	C13H5ClO4-
260.0246	15	C14H9ClO3-
260.9957	2	C13H6ClO4-
261.0322	42	C14H10ClO3-
263.0479	104	C14H12ClO3-
263.983	9	C12H5ClO5-
264.0199	2	C13H9ClO4-
264.0425	12	C16H8O4-
265.0273	21	C13H10ClO4-
265.0507	5	C16H9O4-
266.0219	8	C15H6O5-
267.0218	6	C16H8ClO2-
267.0659	2	C16H11O4-
268.0376	8	C15H8O5-
270.009	2	C15H7ClO3-
271.0167	155	C15H8ClO3-
273.0323	46	C15H10ClO3-
273.0559	2	C18H9O3-
274.0035	17	C14H7ClO4-
275.0115	3	C14H8ClO4-
275.0351	2	C17H7O4-
275.0483	9	C15H12ClO3-
276.043	11	C14H11ClNO3-
276.9909	2	C13H6ClO5-
277.0506	2	C17H9O4-
277.9982	2	C13H7ClO5-
278.022	15	C16H6O5-
279.0433	2	C14H12ClO4-
281.0371	6	C17H10ClO2-
283.0166	28	C16H8ClO3-
284.033	2	C12H11ClNO5-
284.9964	5	C15H6ClO4-
285.0324	64	C16H10ClO3-
286.0038	9	C15H7ClO4-
286.0411	2	C16H11ClO3-
287.0113	31	C15H8ClO4-
288.0192	8	C15H9ClO4-
289.0273	80	C15H10ClO4-
291.0426	2	C15H12ClO4-
292.0142	3	C14H9ClO5-
292.0381	6	C14H11ClNO4-
292.1114	2	C16H19ClNO2-
293.046	8	C14H12ClNO4-
296.0329	22	C13H11ClNO5-
297.0321	6	C17H10ClO3-
299.0117	6	C16H8ClO4-
299.0478	8	C17H12ClO3-
300.027	21	C15H8O7-
300.0436	10	C16H11ClNO3-
301.0271	35	C16H10ClO4-
301.9984	9	C15H7ClO5-
302.0355	4	C16H11ClO4-
307.0378	17	C15H12ClO5-
308.9951	2	C17H6ClO4-
309.032	2	C18H10ClO3-
310.0035	2	C17H7ClO4-
311.011	13	C17H8ClO4-
312.0202	8	C17H9ClO4-
313.0269	2	C17H10ClO4-
313.9987	3	C16H7ClO5-
319.0383	3	C16H12ClO5-
320.0319	7	C18H8O6-
322.0113	7	C17H6O7-
324.0271	3	C17H8O7-
325.0274	7	C18H10ClO4-
327.0064	6	C17H8ClO5-
327.0426	1	C18H12ClO4-
328.023	33	C13H11ClNO7-
328.0746	13	C18H15ClNO3-
329.0218	17	C17H10ClO5-
329.993	1	C16H7ClO6-
330.0909	2	C18H17ClNO3-
331.0363	1	C17H12ClO5-
338.001	1	C21H5ClNO2-
338.0432	6	C18H10O7-
341.9929	2	C17H7ClO6-
347.0327	2	C17H12ClO6-
351.0062	1	C19H8ClO5-
352.0213	10	C18H8O8-
354.0538	3	C19H13ClNO4-
356.0697	2	C19H15ClNO4-
357.989	2	C17H7ClO7-
368.0167	2	C15H11ClNO8-
370.0335	12	C15H13ClNO8-
