Mass spectrum: Propachlor; LC-ESI-ITFT; MS2; CE: 90%; R=30000; [M+H]+
Name: Propachlor
Name: 2-chloranyl-N-phenyl-N-propan-2-yl-ethanamide
Formula: C11H14ClNO
Exact mass: 211.0758
SMILES: CC(C)N(C(=O)CCl)c1ccccc1
InChI: InChI=1S/C11H14ClNO/c1-9(2)13(11(14)8-12)10-6-4-3-5-7-10/h3-7,9H,8H2,1-2H3
Instrument: LTQ Orbitrap XL Thermo Scientific
Instrument type: LC-ESI-ITFT
Ms type: MS2
Ion mode: POSITIVE
Ionization: ESI
Fragmentation mode: HCD
Collision energy: 90 % (nominal)
Resolution: 30000
Column name: XBridge C18 3.5um, 2.1x50mm, Waters
Retention time: 8.6 min
Base peak: 212.0841
Precursor m/z: 212.0837
Precursor type: [M+H]+
m/z	relative intensity	assigned
53.0385	6	C4H5+
75.9948	4	C2H3ClN+
76.9789	31	C2H2ClO+
77.0386	180	C6H5+
79.0543	67	C6H7+
91.0542	26	C7H7+
92.0621	4	C7H8+
93.0573	15	C6H7N+
94.0652	999	C6H8N+
95.0492	89	C6H7O+
105.0447	48	C6H5N2+
106.0652	451	C7H8N+
112.0074	5	C6H5Cl+
117.0573	7	C8H7N+
125.0152	10	C7H6Cl+
134.06	17	C8H8NO+
152.0262	77	C11H4O+
170.0367	96	C8H9ClNO+
