Mass spectrum: Lorazepam; LC-ESI-QFT; MS2; CE: 60; R=35000; [M+H]+
Name: Lorazepam
Name: 2H-1,4-Benzodiazepin-2-one, 7-chloro-5-(2-chlorophenyl)-1,3-dihydro-3-hydroxy-
Name: 7-chloranyl-5-(2-chlorophenyl)-3-oxidanyl-1,3-dihydro-1,4-benzodiazepin-2-one
Formula: C15H10Cl2N2O2
Exact mass: 320.01193
SMILES: Clc3ccccc3C/2=N/C(O)C(=O)Nc1c\2cc(Cl)cc1
InChI: InChI=1S/C15H10Cl2N2O2/c16-8-5-6-12-10(7-8)13(19-15(21)14(20)18-12)9-3-1-2-4-11(9)17/h1-7,15,21H,(H,18,20)
Instrument: Q Exactive Orbitrap Thermo Scientific
Instrument type: LC-ESI-QFT
Ms type: MS2
Ion mode: POSITIVE
Ionization: ESI
Fragmentation mode: HCD
Collision energy: 60 (nominal)
Resolution: 35000
Column name: XBridge C18 3.5um, 2.1x50mm, Waters
Retention time: 8.9 min
Base peak: 321.0195
Precursor m/z: 321.0192
Precursor type: [M+H]+
m/z	relative intensity	assigned
93.0572	23	C6H7N+
118.0525	2	C7H6N2+
120.0443	1	C7H6NO+
128.026	41	C6H7ClN+
129.01	1	C6H6ClO+
130.0399	6	C7H4N3+
138.0104	129	C7H5ClN+
153.0214	15	C7H6ClN2+
156.0211	3	C7H7ClNO+
163.0057	137	C8H4ClN2+
164.0008	4	C10N2O+
166.0053	14	C8H5ClNO+
177.0567	3	C13H7N+
181.0163	9	C8H6ClN2O+
193.0758	1	C13H9N2+
194.0839	43	C13H10N2+
204.0678	3	C14H8N2+
205.0761	15	C14H9N2+
206.0601	1	C14H8NO+
213.034	2	C13H8ClN+
214.0417	4	C13H9ClN+
221.0708	1	C14H9N2O+
229.0527	580	C13H10ClN2+
230.0367	1	C13H9ClNO+
239.0369	43	C14H8ClN2+
240.0448	2	C14H9ClN2+
241.0288	7	C14H8ClNO+
248.0025	4	C13H8Cl2N+
250.0185	4	C13H10Cl2N+
255.0326	1	C14H8ClN2O+
257.0476	10	C14H10ClN2O+
263.0137	8	C13H9Cl2N2+
265.0295	13	C13H11Cl2N2+
272.9984	1	C14H7Cl2N2+
275.0137	999	C14H9Cl2N2+
275.9977	2	C14H8Cl2NO+
291.0087	13	C14H9Cl2N2O+
292.017	1	C14H10Cl2N2O+
303.0086	25	C15H9Cl2N2O+
