Mass spectrum: Thiazopyr; LC-ESI-QFT; MS2; CE: 45; R=35000; [M+H]+
Name: Thiazopyr
Name: 2-(difluoromethyl)-4-isobutyl-5-(2-thiazolin-2-yl)-6-(trifluoromethyl)nicotinic acid methyl ester
Formula: C16H17F5N2O2S
Exact mass: 396.09309
SMILES: FC(F)c2nc(c(C/1=N/CCS\1)c(c2C(=O)OC)CC(C)C)C(F)(F)F
InChI: InChI=1S/C16H17F5N2O2S/c1-7(2)6-8-9(15(24)25-3)11(13(17)18)23-12(16(19,20)21)10(8)14-22-4-5-26-14/h7,13H,4-6H2,1-3H3
Instrument: Q Exactive Orbitrap Thermo Scientific
Instrument type: LC-ESI-QFT
Ms type: MS2
Ion mode: POSITIVE
Ionization: ESI
Fragmentation mode: HCD
Collision energy: 45 (nominal)
Resolution: 35000
Column name: XBridge C18 3.5um, 2.1x50mm, Waters
Retention time: 12.9 min
Base peak: 397.0997
Precursor m/z: 397.1004
Precursor type: [M+H]+
m/z	relative intensity	assigned
58.9949	4	C2H3S+
60.0028	3	C2H4S+
61.0106	453	C2H5S+
73.0646	7	C4H9O+
75.0262	56	C3H7S+
76.0214	19	C2H6NS+
174.071	4	C8H14O2S+
192.0816	4	C11H11FNO+
201.0818	10	C9H15NO2S+
202.0656	11	C15H8N+
204.0608	2	C9H13FO2S+
206.0642	3	C8H13FNO2S+
208.0567	3	C11H8F2NO+
209.0704	2	C8H9F4N2+
217.0574	8	C12H7F2N2+
219.0384	2	C8H6F3N2O2+
221.0879	9	C9H16FNO2S+
222.072	158	C12H10F2NO+
224.0675	20	C9H14F2O2S+
229.0767	40	C13H10FN2O+
230.0106	2	C14H2N2O2+
231.0685	7	C13H10FNO2+
233.0525	3	C12H7F2N2O+
234.0593	8	C15H7FN2+
235.0328	4	C14H7N2S+
235.0673	11	C12H9F2N2O+
237.0625	18	C9H13F2NO2S+
238.0467	11	C15H6F2N+
238.0708	2	C9H14F2NO2S+
239.044	3	C8H7F4N2O2+
239.0784	13	C9H15F2NO2S+
239.0982	2	C12H13F2N2O+
242.0481	2	C16H6N2O+
242.0782	8	C12H11F3NO+
245.0518	3	C13H7F2N2O+
247.0332	10	C15H7N2S+
247.0477	3	C13H6F3N2+
247.0687	2	C10H10F3N2O2+
249.083	120	C13H11F2N2O+
250.0671	171	C13H10F2NO2+
251.0625	8	C12H9F2N2O2+
252.0156	7	C11H6F2N2OS+
252.0618	5	C16H8F2N+
253.0238	4	C11H7F2N2OS+
253.0577	10	C15H7F2N2+
253.0942	13	C10H17F2NO2S+
255.0191	8	C16H3N2O2+
255.0493	3	C15H7F2NO+
256.0034	2	C11H5F3NOS+
256.0572	9	C15H8F2NO+
257.0342	2	C8H6F5N2O2+
257.0554	2	C11H11F2N2OS+
257.0711	44	C9H10F5N2O+
258.0061	2	C13H4F2N2S+
261.0847	4	C14H11F2N2O+
262.0546	10	C16H7FN2O+
263.0623	21	C16H8FN2O+
263.0983	3	C14H13F2N2O+
265.0578	139	C13H8F3N2O+
267.0387	9	C15H8FN2S+
267.0733	3	C13H10F3N2O+
269.0891	121	C13H12F3N2O+
271.0139	9	C14H5F2N2S+
271.0686	30	C12H10F3N2O2+
272.0221	28	C11H7F3N2OS+
272.0687	59	C16H9F3N+
273.0287	3	C11H5F4N2O2+
274.0558	2	C9H11F5N2S+
275.0257	86	C11H7F4N2S+
275.0429	14	
276.0333	147	C16H5FN2O2+
277.0601	12	C14H11F2N2S+
277.0777	101	C14H11F2N2O2+
279.0735	4	C14H10F3N2O+
280.0105	20	C15H5FN2OS+
281.0545	4	C16H10FN2S+
282.0448	2	C10H10F4N2OS+
282.0599	3	C16H8F2N2O+
283.0145	21	C12H6F3N2OS+
283.0494	2	C10H8F5N2O2+
283.0683	8	C16H9F2N2O+
283.1049	8	C14H14F3N2O+
285.0494	18	C15H10FN2OS+
285.0639	228	C16H8F3N2+
287.0452	16	C15H9F2N2S+
288.0294	38	C15H8F2NOS+
290.984	7	C13H2F3N2OS+
291.0203	9	C14H6F3N2S+
293.054	3	C14H8F3N2O2+
295.0338	10	C16H8FN2OS+
297.0665	29	C14H12F3N2S+
297.0839	322	C14H12F3N2O2+
299.0092	38	C12H6F3N2O2S+
300.0168	185	C15H6F2N2OS+
300.0634	56	C14H10F4NO2+
302.0126	3	C15H5F3N2S+
303.0204	360	C15H6F3N2S+
305.0379	4	C12H9F4N2OS+
305.0546	14	C15H11F2N2OS+
306.0076	34	C11H6F4N2O2S+
307.015	10	C14H6F3N2OS+
307.0322	2	C12H8F5N2S+
309.0859	18	C15H15F2N2OS+
311.0995	20	C15H14F3N2O2+
314.0322	27	C16H8F2N2OS+
315.0404	172	C13H10F3N2O2S+
315.0945	10	C12H16F5N2S+
317.0903	266	C14H13F4N2O2+
319.0153	200	C12H7F4N2O2S+
322.0574	40	C15H12F2N2O2S+
324.0175	8	C14H7F3N2O2S+
325.061	86	C15H12F3N2OS+
327.039	6	C14H7F4N2O3+
327.0565	36	C15H11F4N2S+
333.0503	2	C16H11F2N2O2S+
334.0385	40	C16H9F3N2OS+
335.0465	999	C16H10F3N2OS+
337.0805	74	C16H15F2N2O2S+
337.0957	6	C14H14F5N2O2+
345.0676	19	C15H13F4N2OS+
357.0873	72	C16H16F3N2O2S+
377.0936	577	C16H17F4N2O2S+
397.0997	247	C16H18F5N2O2S+
