Mass spectrum: Spirotetramat BYI08330-monohydroxy; LC-ESI-QFT; MS2; CE: 120%; R=17500; [M+H]+
Name: Spirotetramat BYI08330-monohydroxy
Name: 1-Azaspiro(4.5)decan-2-one, 3-(2,5-dimethylphenyl)-4-hydroxy-8-methoxy-
Name: 3-(2,5-dimethylphenyl)-4-hydroxy-8-methoxy-1-azaspiro[4.5]decan-2-one
Formula: C18H25NO3
Exact mass: 303.1834
SMILES: CC1=CC(=C(C=C1)C)C2C(C3(CCC(CC3)OC)NC2=O)O
InChI: InChI=1S/C18H25NO3/c1-11-4-5-12(2)14(10-11)15-16(20)18(19-17(15)21)8-6-13(22-3)7-9-18/h4-5,10,13,15-16,20H,6-9H2,1-3H3,(H,19,21)
Instrument: Exploris 240 Orbitrap Thermo Scientific
Instrument type: LC-ESI-QFT
Ms type: MS2
Ion mode: POSITIVE
Ionization: ESI
Fragmentation mode: HCD
Collision energy: 120 % (nominal)
Resolution: 17500
Column name: XBridge C18 3.5um, 2.1x50mm, Waters
Retention time: 5.434 min
Base peak: 304.1905
Precursor m/z: 304.1907
Precursor type: [M+H]+
m/z	relative intensity	assigned
51.0229	35	C4H3+
53.0385	121	C4H5+
55.0543	32	C4H7+
65.0386	109	C5H5+
67.0542	173	C5H7+
77.0386	268	C6H5+
78.0465	14	C6H6+
79.0542	351	C6H7+
80.0494	29	C5H6N+
81.0699	214	C6H9+
91.0542	999	C7H7+
93.0698	38	C7H9+
95.0492	59	C6H7O+
103.0542	122	C8H7+
104.0623	51	C8H8+
105.0698	176	C8H9+
107.0855	40	C8H11+
115.0543	291	C9H7+
116.062	178	C9H8+
117.0696	139	C9H9+
119.0856	289	C9H11+
128.0621	194	C10H8+
129.07	140	C10H9+
130.0779	84	C10H10+
131.0858	32	C10H11+
141.0702	150	C11H9+
142.0775	138	C11H10+
143.0853	19	C11H11+
145.1009	20	C11H13+
152.062	46	C12H8+
153.0699	109	C12H9+
154.0777	48	C12H10+
155.0855	68	C12H11+
165.0696	81	C13H9+
166.0782	39	C13H10+
167.0857	49	C13H11+
169.1014	26	C13H13+
178.0776	54	C14H10+
179.0852	88	C14H11+
