Mass spectrum: DEET; LC-ESI-ITFT; MS2; CE: 75%; R=7500; [M+H]+
Name: DEET
Name: N,N-Diethyl-m-toluamide
Name: N,N-diethyl-3-methyl-benzamide
Formula: C12H17NO
Exact mass: 191.1305
SMILES: c1(C(N(CC)CC)=O)cc(C)ccc1
InChI: InChI=1S/C12H17NO/c1-4-13(5-2)12(14)11-8-6-7-10(3)9-11/h6-9H,4-5H2,1-3H3
Instrument: LTQ Orbitrap XL Thermo Scientific
Instrument type: LC-ESI-ITFT
Ms type: MS2
Ion mode: POSITIVE
Ionization: ESI
Fragmentation mode: HCD
Collision energy: 75 % (nominal)
Resolution: 7500
Column name: XBridge C18 3.5um, 2.1x50mm, Waters
Retention time: 8.6 min
Base peak: 192.1386
Precursor m/z: 192.1383
Precursor type: [M+H]+
m/z	relative intensity	assigned
65.0385	19	C5H5+
67.0544	8	C5H7+
72.0444	42	C3H6NO+
91.0543	419	C7H7+
93.0696	4	C7H9+
100.0757	16	C5H10NO+
109.0647	49	C7H9O+
118.0654	12	C8H8N+
119.0492	999	C8H7O+
119.0605	153	C7H7N2+
