Mass spectrum: N,N-Didesmethylvenlafaxine; LC-ESI-ITFT; MS2; CE: 75%; R=15000; [M+H]+
Name: N,N-Didesmethylvenlafaxine
Name: 1-[2-Amino-1-(4-methoxyphenyl)ethyl]cyclohexanol
Formula: C15H23NO2
Exact mass: 249.1729
SMILES: OC2(C(c1ccc(OC)cc1)CN)CCCCC2
InChI: InChI=1S/C15H23NO2/c1-18-13-7-5-12(6-8-13)14(11-16)15(17)9-3-2-4-10-15/h5-8,14,17H,2-4,9-11,16H2,1H3
Instrument: LTQ Orbitrap XL Thermo Scientific
Instrument type: LC-ESI-ITFT
Ms type: MS2
Ion mode: POSITIVE
Ionization: ESI
Fragmentation mode: HCD
Collision energy: 75 % (nominal)
Resolution: 15000
Column name: XBridge C18 3.5um, 2.1x50mm, Waters
Retention time: 6.3 min
Base peak: 250.1814
Precursor m/z: 250.1802
Precursor type: [M+H]+
m/z	relative intensity	assigned
67.0542	12	C5H7+
69.0699	13	C5H9+
77.0386	11	C6H5+
79.0543	73	C6H7+
81.07	83	C6H9+
91.0543	221	C7H7+
93.07	20	C7H9+
105.0699	13	C8H9+
107.0494	28	C7H7O+
107.0857	18	C8H11+
115.0544	18	C9H7+
117.07	26	C9H9+
119.0607	16	C7H7N2+
119.0857	19	C9H11+
121.0649	999	C8H9O+
129.0702	14	C10H9+
131.0494	12	C9H7O+
132.0571	59	C9H8O+
133.0651	14	C9H9O+
135.0805	47	C9H11O+
141.0699	13	C11H9+
144.0572	31	C10H8O+
145.0651	16	C10H9O+
147.0806	393	C10H11O+
158.0728	69	C11H10O+
159.0806	82	C11H11O+
160.0885	6	C11H12O+
161.0963	20	C11H13O+
173.0962	95	C12H13O+
