Mass spectrum: Azinphos-methyl; LC-ESI-QFT; MS2; CE: 120; R=35000; [M+H]+
Name: Azinphos-methyl
Name: Azinphosmethyl
Name: 3-(dimethoxyphosphinothioylsulfanylmethyl)-1,2,3-benzotriazin-4-one
Formula: C10H12N3O3PS2
Exact mass: 317.00577
SMILES: COP(=S)(OC)SCN1C(=O)C2=CC=CC=C2N=N1
InChI: InChI=1S/C10H12N3O3PS2/c1-15-17(18,16-2)19-7-13-10(14)8-5-3-4-6-9(8)11-12-13/h3-6H,7H2,1-2H3
Instrument: Q Exactive Plus Orbitrap Thermo Scientific
Instrument type: LC-ESI-QFT
Ms type: MS2
Ion mode: POSITIVE
Ionization: ESI
Fragmentation mode: HCD
Collision energy: 120 (nominal)
Resolution: 35000
Column name: XBridge C18 3.5um, 2.1x50mm, Waters
Retention time: 9.2 min
Base peak: 318.0126
Precursor m/z: 318.013
Precursor type: [M+H]+
m/z	relative intensity	assigned
50.0152	266	C4H2+
51.023	999	C4H3+
52.0183	3	C3H2N+
53.0023	11	C3HO+
53.0387	114	C4H5+
55.0179	8	C3H3O+
59.9665	22	COS+
62.0185	29	C2H6S+
62.9453	3	PS+
62.9995	24	CH4OP+
63.023	20	C5H3+
64.0308	8	C5H4+
64.9788	3	H2O2P+
65.0023	15	C4HO+
65.0386	19	C5H5+
66.0464	10	C5H6+
67.0543	10	C5H7+
68.9794	4	C3HS+
69.9872	3	C3H2S+
74.0151	14	C6H2+
75.023	107	C6H3+
76.0182	46	C5H2N+
76.0307	9	C6H4+
77.0386	307	C6H5+
78.0339	16	C5H4N+
78.0464	9	C6H6+
78.9944	179	CH4O2P+
81.0101	3	CH6O2P+
81.0336	11	C5H5O+
81.9872	2	C4H2S+
92.0258	14	C6H4O+
92.037	3	C5H4N2+
93.0101	27	C2H6O2P+
94.0413	4	C6H6O+
95.0493	383	C6H7O+
96.0029	25	C5H4S+
96.0446	9	CH9N2OP+
97.005	10	CH6O3P+
102.034	38	C7H4N+
104.0496	50	C7H6N+
105.0449	232	C6H5N2+
108.0029	12	C6H4S+
109.0108	12	C6H5S+
120.0445	8	C7H6NO+
127.9928	3	C5H4O2S+
130.0402	20	C7H4N3+
142.9929	18	C2H8O3PS+
151.9929	15	C3H7NO2PS+
