Mass spectrum: Difenacoum; LC-ESI-QFT; MS2; CE: 60%; R=17500; [M+H]+
Name: Difenacoum
Name: 4-hydroxy-3-[3-(4-phenylphenyl)-1,2,3,4-tetrahydronaphthalen-1-yl]chromen-2-one
Formula: C31H24O3
Exact mass: 444.1725
SMILES: C1C(CC2=CC=CC=C2C1C3=C(C4=CC=CC=C4OC3=O)O)C5=CC=C(C=C5)C6=CC=CC=C6
InChI: InChI=1S/C31H24O3/c32-30-26-12-6-7-13-28(26)34-31(33)29(30)27-19-24(18-23-10-4-5-11-25(23)27)22-16-14-21(15-17-22)20-8-2-1-3-9-20/h1-17,24,27,32H,18-19H2
Instrument: Exploris 240 Orbitrap Thermo Scientific
Instrument type: LC-ESI-QFT
Ms type: MS2
Ion mode: POSITIVE
Ionization: ESI
Fragmentation mode: HCD
Collision energy: 60 % (nominal)
Resolution: 17500
Column name: XBridge C18 3.5um, 2.1x50mm, Waters
Retention time: 15.423 min
Base peak: 445.1795
Precursor m/z: 445.1798
Precursor type: [M+H]+
m/z	relative intensity	assigned
79.0542	11	C6H7+
91.0542	165	C7H7+
95.0492	10	C6H7O+
103.0543	36	C8H7+
105.0699	6	C8H9+
107.0492	66	C7H7O+
115.0539	14	C9H7+
117.07	11	C9H9+
121.0286	36	C7H5O2+
128.0623	4	C10H8+
129.07	38	C10H9+
141.0702	4	C11H9+
143.0485	4	C10H7O+
143.0856	5	C11H11+
163.0391	16	C9H7O3+
165.0699	301	C13H9+
166.078	26	C13H10+
167.0858	26	C13H11+
171.0809	13	C12H11O+
175.039	207	C10H7O3+
178.0778	144	C14H10+
179.0855	999	C14H11+
189.0548	27	C11H9O3+
229.1016	5	C18H13+
241.1013	9	C19H13+
242.1088	29	C19H14+
255.1167	4	C20H15+
257.1322	16	C20H17+
