Mass spectrum: Phorate Sulfone; LC-ESI-QFT; MS2; CE: 180%; R=17500; [M+H]+
Name: Phorate Sulfone
Name: diethoxy-(ethylsulfonylmethylsulfanyl)-sulfanylidene-lambda5-phosphane
Formula: C7H17O4PS3
Exact mass: 292.0027
SMILES: CCOP(=S)(OCC)SCS(=O)(=O)CC
InChI: InChI=1S/C7H17O4PS3/c1-4-10-12(13,11-5-2)14-7-15(8,9)6-3/h4-7H2,1-3H3
Instrument: Exploris 240 Orbitrap Thermo Scientific
Instrument type: LC-ESI-QFT
Ms type: MS2
Ion mode: POSITIVE
Ionization: ESI
Fragmentation mode: HCD
Collision energy: 180 % (nominal)
Resolution: 17500
Column name: XBridge C18 3.5um, 2.1x50mm, Waters
Retention time: 6.950 min
Base peak: 194.1175
Precursor m/z: 293.0099
Precursor type: [M+H]+
m/z	relative intensity	assigned
62.9631	81	O2P+
64.9787	999	H2O2P+
78.9402	446	OPS+
80.9738	57	H2O3P+
96.9508	271	H2O2PS+
98.9842	129	H4O4P+
114.9614	143	H4O3PS+
