Mass spectrum: Chlorothalonil-TP R471811; LC-ESI-QFT; MS2; CE: 75%; R=17500; [M+H]+
Name: Chlorothalonil-TP R471811
Name: 2,4-dicarbamoyl-3,5,6-trichlorobenzenesulfonic acid
Formula: C8H5Cl3N2O5S
Exact mass: 345.8985
SMILES: NC(=O)C1=C(Cl)C(C(N)=O)=C(C(Cl)=C1Cl)S(O)(=O)=O
InChI: InChI=1S/C8H5Cl3N2O5S/c9-3-1(7(12)14)4(10)5(11)6(19(16,17)18)2(3)8(13)15/h(H2,12,14)(H2,13,15)(H,16,17,18)
Instrument: Q Exactive Plus Orbitrap Thermo Scientific
Instrument type: LC-ESI-QFT
Ms type: MS2
Ion mode: POSITIVE
Ionization: ESI
Fragmentation mode: HCD
Collision energy: 75 % (nominal)
Resolution: 17500
Column name: XBridge C18 3.5um, 2.1x50mm, Waters
Retention time: 1.062 min
Base peak: 346.906
Precursor m/z: 346.9058
Precursor type: [M+H]+
m/z	relative intensity	assigned
62.9632	10	CClO+
72.9839	54	C3H2Cl+
82.945	65	CHCl2+
83.9762	7	C4HCl+
86.9633	22	C3ClO+
92.9972	5	C5HO2+
101.9742	30	C3HClNO+
106.945	350	C3HCl2+
109.9789	9	C5HClN+
112.9788	5	C5H2ClO+
113.0234	11	C5H5O3+
118.945	34	C4HCl2+
122.9871	17	C6H2ClN+
123.0079	5	C3H6ClNO2+
123.971	21	C6HClO+
128.9736	43	C5H2ClO2+
130.945	255	C5HCl2+
133.956	5	C4H2Cl2N+
137.9739	11	C6HClNO+
140.9059	13	C3Cl3+
140.9737	15	C6H2ClO2+
141.0179	6	C6H5O4+
141.937	14	C6Cl2+
145.9556	42	C5H2Cl2N+
146.9401	43	C5HCl2O+
157.9559	21	C6H2Cl2N+
158.9399	46	C6HCl2O+
159.0287	10	
159.9476	21	C6H2Cl2O+
164.9061	25	C5Cl3+
166.9217	999	C5H2Cl3+
168.9795	9	C6H2ClN2O2+
173.9509	34	C6H2Cl2NO+
174.9351	15	C3H4Cl3NO+
181.932	8	C8Cl2O+
185.951	6	C7H2Cl2NO+
186.9343	124	C7HCl2O2+
192.9006	20	C6Cl3O+
194.9171	10	C6H2Cl3O+
204.9007	190	C7Cl3O+
221.9273	32	C7H3Cl3NO+
222.9117	126	C7H2Cl3O2+
266.9019	15	C8H2Cl3O4+
