Mass spectrum: Acetamiprid; LC-ESI-ITFT; MS2; CE: 35%; R=7500; [M-H]-
Name: Acetamiprid
Name: (1E)-N-[(6-Chloro-3-pyridinyl)methyl]-N'-cyano-N-methylethanimidamide
Formula: C10H11ClN4
Exact mass: 222.0672
SMILES: Clc1ncc(cc1)CN(\C(=N\C#N)C)C
InChI: InChI=1S/C10H11ClN4/c1-8(14-7-12)15(2)6-9-3-4-10(11)13-5-9/h3-5H,6H2,1-2H3
Instrument: LTQ Orbitrap XL Thermo Scientific
Instrument type: LC-ESI-ITFT
Ms type: MS2
Ion mode: NEGATIVE
Ionization: ESI
Fragmentation mode: CID
Collision energy: 35 % (nominal)
Resolution: 7500
Column name: XBridge C18 3.5um, 2.1x50mm, Waters
Retention time: 5.3 min
Base peak: 186.1139
Precursor m/z: 221.0599
Precursor type: [M-H]-
m/z	relative intensity	assigned
140.0271	999	C7H7ClN-
