Mass spectrum: Chlorthiazide; LC-ESI-QFT; MS2; CE: 180; R=35000; [M-H]-
Name: Chlorthiazide
Name: 6-chloro-1,1-dioxo-4H-1$l^{6},2,4-benzothiadiazine-7-sulfonamide
Formula: C7H6ClN3O4S2
Exact mass: 294.94883
SMILES: C1=C2C(=CC(=C1Cl)S(=O)(=O)N)S(=O)(=O)NC=N2
InChI: InChI=1S/C7H6ClN3O4S2/c8-4-1-5-7(2-6(4)16(9,12)13)17(14,15)11-3-10-5/h1-3H,(H,10,11)(H2,9,12,13)
Instrument: Q Exactive Plus Orbitrap Thermo Scientific
Instrument type: LC-ESI-QFT
Ms type: MS2
Ion mode: NEGATIVE
Ionization: ESI
Fragmentation mode: HCD
Collision energy: 180 (nominal)
Resolution: 35000
Column name: XBridge C18 3.5um, 2.1x50mm, Waters
Retention time: 1.9 min
Base peak: 293.9414
Precursor m/z: 293.9415
Precursor type: [M-H]-
m/z	relative intensity	assigned
50.0036	759	C3N-
56.9805	123	C2HS-
57.9757	93	CNS-
60.0006	178	C5-
61.0084	59	C5H-
61.9707	120	NOS-
62.0037	86	C4N-
63.0114	30	C4HN-
63.9625	106	O2S-
64.0067	183	C3N2-
64.0193	350	C4H2N-
65.0146	999	C3HN2-
65.9986	101	C3NO-
71.9676	5	C2OS-
73.0084	28	C6H-
74.0037	130	C5N-
76.0194	9	C5H2N-
77.0035	12	C5HO-
77.9655	66	NO2S-
80.9804	23	C4HS-
81.9759	20	C3NS-
86.0037	351	C6N-
87.0114	321	C6HN-
88.0067	109	C5N2-
88.0193	407	C6H2N-
89.0145	206	C5HN2-
101.9656	44	C2NO2S-
105.9758	13	C5NS-
107.9909	6	C5H2NS-
108.9865	6	C4HN2S-
112.0069	63	C7N2-
113.0146	276	C7HN2-
114.0222	49	C7H2N2-
115.0303	452	C7H3N2-
178.9923	73	C7H3N2O2S-
