Mass spectrum: Iminostilbene; LC-ESI-ITFT; MS2; CE: 75%; R=15000; [M+H]+
Name: Iminostilbene
Name: 11H-benzo[b][1]benzazepine
Formula: C14H11N
Exact mass: 193.0891
SMILES: c1cc2Nc3ccccc3\C=C/c2cc1
InChI: InChI=1S/C14H11N/c1-3-7-13-11(5-1)9-10-12-6-2-4-8-14(12)15-13/h1-10,15H
Instrument: LTQ Orbitrap XL Thermo Scientific
Instrument type: LC-ESI-ITFT
Ms type: MS2
Ion mode: POSITIVE
Ionization: ESI
Fragmentation mode: HCD
Collision energy: 75 % (nominal)
Resolution: 15000
Column name: XBridge C18 3.5um, 2.1x50mm, Waters
Retention time: 11.0 min
Base peak: 194.0971
Precursor m/z: 194.0964
Precursor type: [M+H]+
m/z	relative intensity	assigned
89.0382	1	C7H5+
91.0544	5	C7H7+
116.0496	6	C8H6N+
117.0574	4	C8H7N+
152.0622	16	C12H8+
165.0703	14	C13H9+
166.0654	3	C12H8N+
166.0779	6	C13H10+
167.0731	24	C12H9N+
167.0858	28	C13H11+
176.0625	5	C14H8+
177.0701	18	C14H9+
178.0656	7	C13H8N+
178.0782	7	C14H10+
179.0732	193	C13H9N+
191.0724	3	C14H9N+
192.0813	34	C14H10N+
193.0892	370	C14H11N+
194.0969	999	C14H12N+
