Mass spectrum: Xipamide; LC-ESI-QFT; MS2; CE: 75%; R=15000; [M-H]-
Name: Xipamide
Name: 4-chloro-N-(2,6-dimethylphenyl)-2-hydroxy-5-sulfamoylbenzamide
Formula: C15H15ClN2O4S
Exact mass: 354.0441
SMILES: CC1=C(C(=CC=C1)C)NC(=O)C2=CC(=C(C=C2O)Cl)S(=O)(=O)N
InChI: InChI=1S/C15H15ClN2O4S/c1-8-4-3-5-9(2)14(8)18-15(20)10-6-13(23(17,21)22)11(16)7-12(10)19/h3-7,19H,1-2H3,(H,18,20)(H2,17,21,22)
Instrument: Orbitrap Exploris 240 Thermo Scientific
Instrument type: LC-ESI-QFT
Ms type: MS2
Ion mode: NEGATIVE
Ionization: ESI
Fragmentation mode: HCD
Collision energy: 75 % (nominal)
Resolution: 15000
Column name: Atlantis C18 3um, 3.0x150mm, Waters
Retention time: 17.859 min
Base peak: 353.0365
Precursor m/z: 353.0368
Precursor type: [M-H]-
Precursor intensity: 133348944
m/z	relative intensity	assigned
50.0036	11	C3N-
63.9624	7	O2S-
76.0194	14	C5H2N-
77.9655	999	NO2S-
78.0349	115	C5H4N-
91.019	30	C6H3O-
94.0298	94	C5H4NO-
95.0139	29	C5H3O2-
104.0143	35	C6H2NO-
104.0379	11	C6H4N2-
105.0221	82	C6H3NO-
120.0093	7	C6H2NO2-
120.0818	73	C8H10N-
122.0247	196	C6H4NO2-
125.9879	64	C6H3ClO-
126.9954	533	C6H4ClO-
132.0093	25	C7H2NO2-
141.9828	43	C6H3ClO2-
169.9913	85	C6H4NO3S-
176.9659	21	C5H4ClNO2S-
256.0529	25	C15H11ClNO-
273.0562	71	C15H12ClNO2-
274.0647	29	C15H13ClNO2-
