Mass spectrum: Methoprotryne; LC-ESI-QFT; MS2; CE: 90%; R=17500; [M+H]+
Name: Methoprotryne
Name: 4-N-(3-methoxypropyl)-6-methylsulfanyl-2-N-propan-2-yl-1,3,5-triazine-2,4-diamine
Formula: C11H21N5OS
Exact mass: 271.1467
SMILES: CC(C)NC1=NC(=NC(=N1)NCCCOC)SC
InChI: InChI=1S/C11H21N5OS/c1-8(2)13-10-14-9(12-6-5-7-17-3)15-11(16-10)18-4/h8H,5-7H2,1-4H3,(H2,12,13,14,15,16)
Instrument: Exploris 240 Orbitrap Thermo Scientific
Instrument type: LC-ESI-QFT
Ms type: MS2
Ion mode: POSITIVE
Ionization: ESI
Fragmentation mode: HCD
Collision energy: 90 % (nominal)
Resolution: 17500
Column name: XBridge C18 3.5um, 2.1x50mm, Waters
Retention time: 6.075 min
Base peak: 272.1537
Precursor m/z: 272.154
Precursor type: [M+H]+
m/z	relative intensity	assigned
55.0291	300	C2H3N2+
56.0495	171	C3H6N+
57.0447	128	C2H5N2+
59.0492	44	C3H7O+
61.0108	146	C2H5S+
68.0243	431	C2H2N3+
73.0648	242	C4H9O+
74.0059	393	C2H4NS+
82.0401	84	C3H4N3+
83.0604	364	C4H7N2+
91.0325	171	C2H7N2S+
97.0509	39	C3H5N4+
103.0324	53	C3H7N2S+
108.0558	134	C5H6N3+
116.0276	270	C3H6N3S+
125.0822	435	C5H9N4+
158.0495	30	C4H8N5S+
170.0496	999	C5H8N5S+
198.0808	109	C7H12N5S+
