Mass spectrum: Nortriptyline; LC-ESI-QFT; MS2; CE: 180; R=35000; [M+H]+
Name: Nortriptyline
Name: 3-(5,6-dihydrodibenzo[2,1-b:2`,1`-f][7]annulen-11-ylidene)-N-methylpropan-1-amine
Formula: C19H21N
Exact mass: 263.16740
SMILES: CNCCC=C1C2=CC=CC=C2CCC3=CC=CC=C31
InChI: InChI=1S/C19H21N/c1-20-14-6-11-19-17-9-4-2-7-15(17)12-13-16-8-3-5-10-18(16)19/h2-5,7-11,20H,6,12-14H2,1H3
Instrument: Q Exactive Plus Orbitrap Thermo Scientific
Instrument type: LC-ESI-QFT
Ms type: MS2
Ion mode: POSITIVE
Ionization: ESI
Fragmentation mode: HCD
Collision energy: 180 (nominal)
Resolution: 35000
Column name: XBridge C18 3.5um, 2.1x50mm, Waters
Retention time: 8.5 min
Base peak: 264.1741
Precursor m/z: 264.1747
Precursor type: [M+H]+
m/z	relative intensity	assigned
50.0151	145	C4H2+
51.0229	167	C4H3+
53.0022	42	C3HO+
53.0386	84	C4H5+
53.9975	8	C2NO+
54.0339	30	C3H4N+
55.0179	2	C3H3O+
55.0416	14	C3H5N+
56.0495	7	C3H6N+
61.0073	15	C5H+
62.0151	50	C5H2+
63.0229	255	C5H3+
65.0386	999	C5H5+
70.0651	23	C4H8N+
74.015	33	C6H2+
75.0229	79	C6H3+
76.0307	36	C6H4+
77.0385	207	C6H5+
78.0464	115	C6H6+
79.0542	46	C6H7+
81.0335	13	C5H5O+
86.0151	10	
87.0229	33	C7H3+
88.0307	9	C7H4+
89.0386	297	C7H5+
91.0542	569	C7H7+
94.0413	2	C6H6O+
95.0491	287	C6H7O+
98.0151	11	
101.0386	7	C8H5+
102.0464	211	C8H6+
103.0542	32	C8H7+
105.0447	184	C6H5N2+
113.0386	29	C9H5+
114.0464	10	C9H6+
115.0542	809	C9H7+
116.0622	10	C9H8+
119.0491	6	C8H7O+
125.0386	11	C10H5+
126.0464	136	C10H6+
127.0542	85	C10H7+
128.062	380	C10H8+
129.0447	19	C8H5N2+
139.0542	183	C11H7+
140.062	2	C11H8+
141.0696	15	C11H9+
145.0648	36	C10H9O+
149.0385	11	
150.0464	160	C12H6+
151.0542	95	C12H7+
152.0621	513	C12H8+
153.07	11	C12H9+
155.0604	76	C10H7N2+
162.0465	16	C13H6+
163.0542	296	C13H7+
164.062	116	C13H8+
165.0699	235	C13H9+
168.0571	37	C12H8O+
169.0648	196	C12H9O+
174.0463	25	C14H6+
175.0541	20	C14H7+
176.0621	404	C14H8+
177.0699	77	C14H9+
178.0777	74	C14H10+
179.0603	77	C12H7N2+
187.0542	180	C15H7+
188.062	116	C15H8+
189.0699	766	C15H9+
190.0778	13	C15H10+
191.086	2	C15H11+
192.0571	38	C14H8O+
193.065	31	C14H9O+
196.0518	13	
199.054	15	
200.0621	633	C16H8+
201.0699	263	C16H9+
202.0777	608	C16H10+
205.0649	73	C15H9O+
213.0699	220	C17H9+
214.0778	34	C17H10+
215.0856	238	C17H11+
219.0805	105	C16H11O+
220.0518	11	
226.0777	3	C18H10+
229.0758	16	C16H9N2+
