Mass spectrum: Pyrimethanil; LC-ESI-ITFT; MS2; CE: 60%; R=7500; [M+H]+
Name: Pyrimethanil
Name: (4,6-dimethylpyrimidin-2-yl)-phenyl-amine
Formula: C12H13N3
Exact mass: 199.1109
SMILES: c(ccc1N-c(nc(c2)C)nc2C)cc1
InChI: InChI=1S/C12H13N3/c1-9-8-10(2)14-12(13-9)15-11-6-4-3-5-7-11/h3-8H,1-2H3,(H,13,14,15)
Instrument: LTQ Orbitrap XL Thermo Scientific
Instrument type: LC-ESI-ITFT
Ms type: MS2
Ion mode: POSITIVE
Ionization: ESI
Fragmentation mode: HCD
Collision energy: 60 % (nominal)
Resolution: 7500
Column name: XBridge C18 3.5um, 2.1x50mm, Waters
Retention time: 7.6 min
Base peak: 200.1185
Precursor m/z: 200.1182
Precursor type: [M+H]+
m/z	relative intensity	assigned
65.0387	1	C5H5+
66.0339	2	C4H4N+
80.0494	9	C5H6N+
82.0651	41	C5H8N+
83.0602	2	C4H7N2+
93.0576	1	C6H7N+
107.0603	63	C6H7N2+
118.0651	6	C8H8N+
119.0605	5	C7H7N2+
125.0709	24	C6H9N2O+
142.065	5	C10H8N+
143.0604	14	C9H7N2+
156.081	3	C11H10N+
158.0958	1	C11H12N+
159.0915	9	C10H11N2+
166.0644	2	C12H8N+
168.0683	5	C11H8N2+
173.1069	1	C11H13N2+
182.0841	8	C12H10N2+
183.0916	77	C12H11N2+
184.0868	1	C11H10N3+
185.094	3	C11H11N3+
200.1182	999	C12H14N3+
