Mass spectrum: Foramsulfuron; LC-ESI-ITFT; MS2; CE: 75%; R=15000; [M+H]+
Name: Foramsulfuron
Name: 2-[(4,6-dimethoxypyrimidin-2-yl)carbamoylsulfamoyl]-4-formamido-N,N-dimethyl-benzamide
Formula: C17H20N6O7S
Exact mass: 452.1114
SMILES: O=C(Nc1nc(OC)cc(OC)n1)NS(=O)(=O)c2cc(NC=O)ccc2C(=O)N(C)C
InChI: InChI=1S/C17H20N6O7S/c1-23(2)15(25)11-6-5-10(18-9-24)7-12(11)31(27,28)22-17(26)21-16-19-13(29-3)8-14(20-16)30-4/h5-9H,1-4H3,(H,18,24)(H2,19,20,21,22,26)
Instrument: LTQ Orbitrap XL Thermo Scientific
Instrument type: LC-ESI-ITFT
Ms type: MS2
Ion mode: POSITIVE
Ionization: ESI
Fragmentation mode: HCD
Collision energy: 75 % (nominal)
Resolution: 15000
Column name: XBridge C18 3.5um, 2.1x50mm, Waters
Retention time: 7.8 min
Base peak: 475.1014
Precursor m/z: 453.1187
Precursor type: [M+H]+
m/z	relative intensity	assigned
71.0603	76	C3H7N2+
81.0447	34	C4H5N2+
82.0286	33	C4H4NO+
83.024	999	C3H3N2O+
92.0493	48	C6H6N+
100.0392	95	C4H6NO2+
105.0447	79	C6H5N2+
120.0444	132	C7H6NO+
121.0283	86	C7H5O2+
135.0554	73	C7H7N2O+
136.0391	67	C7H6NO2+
139.0502	785	C6H7N2O2+
148.039	109	C8H6NO2+
156.0768	82	C6H10N3O2+
157.0607	619	C6H9N2O3+
161.0352	50	C8H5N2O2+
162.0191	39	C8H4NO3+
182.0559	612	C7H8N3O3+
212.0002	45	C14N2O+
255.0436	31	C10H11N2O4S+
