Mass spectrum: 5-Chloro-2-methyl-4-isothiazolin-3-one (CMI); LC-ESI-ITFT; MS2; CE: 90%; R=7500; [M+H]+
Name: 5-Chloro-2-methyl-4-isothiazolin-3-one (CMI)
Name: 3(2H)-Isothiazolone, 5-chloro-2-methyl-
Name: 5-chloranyl-2-methyl-1,2-thiazol-3-one
Formula: C4H4ClNOS
Exact mass: 148.9702
SMILES: c1(n(sc(c1)Cl)C)=O
InChI: InChI=1S/C4H4ClNOS/c1-6-4(7)2-3(5)8-6/h2H,1H3
Instrument: LTQ Orbitrap XL Thermo Scientific
Instrument type: LC-ESI-ITFT
Ms type: MS2
Ion mode: POSITIVE
Ionization: ESI
Fragmentation mode: HCD
Collision energy: 90 % (nominal)
Resolution: 7500
Column name: XBridge C18 3.5um, 2.1x50mm, Waters
Retention time: 3.7 min
Base peak: 149.9773
Precursor m/z: 149.9775
Precursor type: [M+H]+
m/z	relative intensity	assigned
57.9873	5	C2H2S+
58.0288	58	C2H4NO+
58.995	22	C2H3S+
59.9903	12	CH2NS+
60.0027	5	C2H4S+
60.984	3	C2H2Cl+
61.9793	2	CHClN+
62.006	9	CH4NS+
62.9998	7	C2H4Cl+
63.9949	5	CH3ClN+
66.0107	4	CH5ClN+
67.0179	46	C4H3O+
68.9796	6	C3HS+
69.9748	5	C2NS+
69.9873	4	C3H2S+
70.0289	2	C3H4NO+
70.9952	62	C3H3S+
71.9904	3	C2H2NS+
72.003	11	C3H4S+
72.9841	14	C3H2Cl+
74.006	29	C2H4NS+
74.9997	17	C3H4Cl+
75.9951	3	C2H3ClN+
78.0106	34	C2H5ClN+
78.9404	28	CClS+
79.9482	8	CHClS+
80.9562	6	CH2ClS+
82.9825	17	C3HNS+
83.9665	36	C3OS+
84.9743	21	C3HOS+
86.006	35	C3H4NS+
86.9634	103	C3ClO+
87.0138	28	C3H5NS+
87.995	19	C3H3ClN+
88.979	3	C3H2ClO+
90.0008	6	C2H4NOS+
90.9406	13	C2ClS+
92.9561	39	C2H2ClS+
94.9719	30	C2H4ClS+
95.9904	165	C4H2NS+
102.0011	2	C3H4NOS+
102.9406	22	C3ClS+
102.9946	76	C4H4ClO+
104.9562	64	C3H2ClS+
106.0055	21	C3H5ClNO+
106.9592	48	C2H2ClNS+
106.9718	27	C3H4ClS+
114.0009	12	C4H4NOS+
115.0088	257	C4H5NOS+
115.9901	3	C4H3ClNO+
116.9978	17	C4H4ClNO+
117.9514	9	C3HClNS+
118.9355	212	C3ClOS+
119.9668	6	C3H3ClNS+
120.951	59	C3H2ClOS+
121.9828	4	C3H5ClNS+
131.967	8	C4H3ClNS+
132.9507	17	C4H2ClOS+
134.9541	425	C3H2ClNOS+
147.962	10	C4H3ClNOS+
149.9776	999	C4H5ClNOS+
