Mass spectrum: Flusilazole; LC-ESI-ITFT; MS2; CE: 90%; R=7500; [M+H]+
Name: Flusilazole
Name: bis(4-fluorophenyl)-methyl-(1,2,4-triazol-1-ylmethyl)silane
Formula: C16H15F2N3Si
Exact mass: 315.0998
SMILES: n1(cncn1)C[Si](c1ccc(F)cc1)(C)c1ccc(cc1)F
InChI: InChI=1S/C16H15F2N3Si/c1-22(12-21-11-19-10-20-21,15-6-2-13(17)3-7-15)16-8-4-14(18)5-9-16/h2-11H,12H2,1H3
Instrument: LTQ Orbitrap XL Thermo Scientific
Instrument type: LC-ESI-ITFT
Ms type: MS2
Ion mode: POSITIVE
Ionization: ESI
Fragmentation mode: HCD
Collision energy: 90 % (nominal)
Resolution: 7500
Column name: XBridge C18 3.5um, 2.1x50mm, Waters
Retention time: 12.4 min
Base peak: 316.1073
Precursor m/z: 316.1076
Precursor type: [M+H]+
m/z	relative intensity	assigned
53.0385	9	C4H5+
61.0104	16	CH5OSi+
64.9853	22	FH2OSi+
65.0386	30	C5H5+
77.0386	277	C6H5+
79.001	41	CH4FOSi+
79.0543	65	C6H7+
80.997	8	CH3F2Si+
83.0292	10	C5H4F+
91.0543	258	C7H7+
95.0493	26	C6H7O+
99.007	9	CH5F2OSi+
103.0542	59	C8H7+
105.0447	80	C6H5N2+
105.0699	75	C8H9+
109.0448	312	C2H5F2N3+
115.0543	74	C9H7+
123.006	67	C6H4FSi+
125.0217	37	C6H6FSi+
128.062	15	C10H8+
139.0543	53	C11H7+
141.0167	43	C6H6FOSi+
141.0698	14	C11H9+
149.0217	24	C8H6FSi+
151.038	17	C8H8FSi+
151.0543	58	C12H7+
152.0621	252	C12H8+
153.0698	46	C12H9+
155.0603	24	C10H7N2+
157.0278	33	C7H7F2Si+
159.0609	32	C11H8F+
164.0621	96	C13H8+
165.07	999	C13H9+
167.0324	59	C8H8FOSi+
168.0569	31	C7H7FN3O+
169.048	31	C8H10FOSi+
169.0647	12	C7H8FN3O+
170.0526	78	C7H6F2N3+
171.044	6	C8H9F2Si+
175.0201	7	C7H5N3OSi+
178.0779	49	C14H10+
179.0601	24	C12H7N2+
179.0851	11	C9H10FN3+
183.0605	264	C13H8F+
184.0683	36	C13H9F+
185.0229	10	C8H7F2OSi+
185.076	52	C8H9F2N3+
217.0278	14	C12H7F2Si+
217.0474	24	C15H9Si+
219.0434	78	C12H9F2Si+
235.0386	59	C12H9F2OSi+
