Mass spectrum: Dexamethasone; LC-ESI-ITFT; MS2; CE: 30%; R=7500; [M+H]+
Name: Dexamethasone
Name: (8S,9R,10S,11S,13S,14S,16R,17R)-9-fluoranyl-10,13,16-trimethyl-11,17-bis(oxidanyl)-17-(2-oxidanylethanoyl)-6,7,8,11,12,14,15,16-octahydrocyclopenta[a]phenanthren-3-one
Formula: C22H29FO5
Exact mass: 392.1999
SMILES: [H][C@@]12C[C@@H](C)[C@](O)(C(=O)CO)[C@@]1(C)C[C@H](O)[C@@]3(F)[C@@]2([H])CCC4=CC(=O)C=C[C@]34C
InChI: InChI=1S/C22H29FO5/c1-12-8-16-15-5-4-13-9-14(25)6-7-19(13,2)21(15,23)17(26)10-20(16,3)22(12,28)18(27)11-24/h6-7,9,12,15-17,24,26,28H,4-5,8,10-11H2,1-3H3/t12-,15+,16+,17+,19+,20+,21+,22+/m1/s1
Instrument: LTQ Orbitrap XL Thermo Scientific
Instrument type: LC-ESI-ITFT
Ms type: MS2
Ion mode: POSITIVE
Ionization: ESI
Fragmentation mode: HCD
Collision energy: 30 % (nominal)
Resolution: 7500
Column name: XBridge C18 3.5um, 2.1x50mm, Waters
Retention time: 9.5 min
Base peak: 393.2068
Precursor m/z: 393.2072
Precursor type: [M+H]+
m/z	relative intensity	assigned
95.0857	91	C7H11+
97.0648	48	C6H9O+
107.0856	157	C8H11+
109.0645	27	C7H9O+
119.0854	77	C9H11+
121.0647	129	C8H9O+
121.1013	94	C9H13+
123.0804	53	C8H11O+
125.0594	85	C7H9O2+
131.0856	37	C10H11+
133.1016	41	C10H13+
135.0802	166	C9H11O+
137.0962	99	C9H13O+
147.0804	716	C10H11O+
149.096	234	C10H13O+
153.0906	130	C9H13O2+
159.0801	135	C11H11O+
161.0959	166	C11H13O+
167.1067	66	C10H15O2+
171.0804	332	C12H11O+
173.0961	318	C12H13O+
177.0908	154	C11H13O2+
185.0962	248	C13H13O+
187.0745	118	C12H11O2+
187.1117	102	C13H15O+
197.0954	75	C14H13O+
199.1125	53	C14H15O+
209.0965	56	C15H13O+
211.1122	188	C15H15O+
213.127	152	C15H17O+
215.107	51	C14H15O2+
223.1122	154	C16H15O+
225.1271	154	C16H17O+
227.1427	99	C16H19O+
235.1112	150	C17H15O+
237.1274	999	C17H17O+
239.1065	48	C16H15O2+
239.1429	377	C17H19O+
241.1214	144	C16H17O2+
249.1277	83	C18H17O+
251.1428	80	C18H19O+
253.1225	187	C17H17O2+
253.1582	58	C18H21O+
255.137	195	C17H19O2+
261.1251	63	C11H18FN2O4+
263.1438	169	C19H19O+
265.1582	70	C19H21O+
267.1375	185	C18H19O2+
267.175	76	C19H23O+
275.1427	152	C20H19O+
277.1586	433	C20H21O+
278.1666	106	C20H22O+
279.1743	746	C20H23O+
281.1535	54	C19H21O2+
281.1893	39	C20H25O+
286.1348	42	C21H18O+
289.1599	150	C21H21O+
291.1748	489	C21H23O+
295.1696	216	C20H23O2+
297.185	123	C20H25O2+
301.1589	222	C22H21O+
307.1685	226	C21H23O2+
309.1843	305	C21H25O2+
319.1698	520	
325.1791	95	C21H25O3+
327.194	74	C21H27O3+
337.1801	683	C22H25O3+
355.1903	788	C22H27O4+
