Mass spectrum: Haloxyfop; LC-ESI-QFT; MS2; CE: 45; R=35000; [M+H]+
Name: Haloxyfop
Name: 2-[4-[3-chloro-5-(trifluoromethyl)pyridin-2-yl]oxyphenoxy]propanoic acid
Formula: C15H11ClF3NO4
Exact mass: 361.03287
SMILES: CC(C(=O)O)OC1=CC=C(C=C1)OC2=C(C=C(C=N2)C(F)(F)F)Cl
InChI: InChI=1S/C15H11ClF3NO4/c1-8(14(21)22)23-10-2-4-11(5-3-10)24-13-12(16)6-9(7-20-13)15(17,18)19/h2-8H,1H3,(H,21,22)
Instrument: Q Exactive Plus Orbitrap Thermo Scientific
Instrument type: LC-ESI-QFT
Ms type: MS2
Ion mode: POSITIVE
Ionization: ESI
Fragmentation mode: HCD
Collision energy: 45 (nominal)
Resolution: 35000
Column name: XBridge C18 3.5um, 2.1x50mm, Waters
Retention time: 13.6 min
Base peak: 391.2839
Precursor m/z: 362.0401
Precursor type: [M+H]+
m/z	relative intensity	assigned
51.0229	2	C4H3+
55.0179	5	C3H3O+
60.0807	1	C3H10N+
65.0386	50	C5H5+
67.0543	3	C5H7+
73.0284	5	C3H5O2+
91.0543	999	C7H7+
92.0258	3	C6H4O+
92.062	2	C7H8+
93.0336	11	C6H5O+
93.07	1	C7H9+
94.0415	5	C6H6O+
95.0493	2	C6H7O+
98.9843	5	CH4ClO3+
101.0598	2	C5H9O2+
109.0283	3	C6H5O2+
109.0649	15	C7H9O+
111.0442	29	C6H7O2+
119.0493	142	C8H7O+
119.0605	17	C7H7N2+
120.0571	16	C8H8O+
121.0285	124	C7H5O2+
121.0648	7	C8H9O+
125.0599	1	C7H9O2+
135.0441	2	C8H7O2+
137.0599	2	C8H9O2+
177.9869	1	C6HF3O3+
181.9982	3	C6H4ClF3N+
192.0213	2	C10H7ClNO+
196.0137	1	C7H6ClF3N+
197.993	28	C6H4ClF3NO+
209.9934	3	C7H4ClF3NO+
212.009	2	C7H6ClF3NO+
219.0056	3	C9H5ClF3N+
219.0449	7	C12H8FO3+
220.0137	9	C9H6ClF3N+
224.068	2	C12H9F3N+
225.0762	2	C12H10F3N+
226.0478	12	C11H7F3NO+
232.0142	16	C10H6ClF3N+
235.0605	6	C13H8F3N+
238.0471	1	C12H7F3NO+
245.0217	4	C11H7ClF3N+
247.0397	48	C13H10ClNO2+
248.0086	4	C10H6ClF3NO+
248.0277	8	C13H6F2O3+
252.0029	2	C12H3F3O3+
252.0634	16	C13H9F3NO+
253.071	4	C13H10F3NO+
254.0426	7	C12H7F3NO2+
260.0087	2	C11H6ClF3NO+
260.0451	47	C12H10ClF3N+
261.0166	27	C11H7ClF3NO+
268.0334	3	C13H9ClF2NO+
270.0294	16	C13H8ClF3N+
272.0087	342	C15H3F3O2+
273.0163	4	C12H7ClF3NO+
274.0242	4	C12H8ClF3NO+
280.058	6	C14H9F3NO2+
286.996	1	C12H5ClF3NO2+
288.0038	258	C12H6ClF3NO2+
288.0399	399	C13H10ClF3NO+
289.0114	179	C12H7ClF3NO2+
290.0192	47	C12H8ClF3NO2+
298.0243	17	C14H8ClF3NO+
301.012	4	C13H7ClF3NO2+
302.0197	1	C13H8ClF3NO2+
316.0351	320	C14H10ClF3NO2+
