Mass spectrum: Carbofuran; LC-ESI-QFT; MS2; CE: 90; R=35000; [M+H]+
Name: Carbofuran
Name: (2,2-dimethyl-3H-1-benzofuran-7-yl) N-methylcarbamate
Formula: C12H15NO3
Exact mass: 221.10519
SMILES: CC2(C)CC1=C(C(=CC=C1)OC(NC)=O)O2
InChI: InChI=1S/C12H15NO3/c1-12(2)7-8-5-4-6-9(10(8)16-12)15-11(14)13-3/h4-6H,7H2,1-3H3,(H,13,14)
Instrument: Q Exactive Orbitrap Thermo Scientific
Instrument type: LC-ESI-QFT
Ms type: MS2
Ion mode: POSITIVE
Ionization: ESI
Fragmentation mode: HCD
Collision energy: 90 (nominal)
Resolution: 35000
Column name: XBridge C18 3.5um, 2.1x50mm, Waters
Retention time: 7.2 min
Base peak: 222.1124
Precursor m/z: 222.1125
Precursor type: [M+H]+
m/z	relative intensity	assigned
50.0152	1	C4H2+
51.0229	3	C4H3+
53.0387	2	C4H5+
55.0543	4	C4H7+
58.0288	34	C2H4NO+
65.0386	23	C5H5+
67.0542	71	C5H7+
77.0385	28	C6H5+
79.0542	7	C6H7+
81.0335	7	C5H5O+
81.0698	1	C6H9+
91.0542	155	C7H7+
93.0334	4	C6H5O+
93.0698	1	C7H9+
95.0491	168	C6H7O+
103.0542	6	C8H7+
104.0619	4	C8H8+
105.0334	42	C7H5O+
105.0447	16	C6H5N2+
107.0491	10	C7H7O+
109.0284	7	C6H5O2+
109.0646	3	C7H9O+
110.0362	5	C6H6O2+
111.0439	14	C6H7O2+
115.0541	1	C9H7+
117.0698	8	C9H9+
119.0491	18	C8H7O+
119.0855	19	C9H11+
123.0439	999	C7H7O2+
128.0619	2	C10H8+
131.0492	3	C9H7O+
132.0568	5	C9H8O+
137.0596	30	C8H9O2+
147.0804	7	C10H11O+
165.0907	3	C10H13O2+
