Mass spectrum: Mycophenolic acid; LC-ESI-ITFT; MS2; CE: 90%; R=7500; [M+H]+
Name: Mycophenolic acid
Name: (E)-6-(4-hydroxy-3-keto-6-methoxy-7-methyl-phthalan-5-yl)-4-methyl-hex-4-enoic acid
Formula: C17H20O6
Exact mass: 320.1260
SMILES: c12c(c(c(C\C=C(\CCC(O)=O)C)c(c1C)OC)O)C(=O)OC2
InChI: InChI=1S/C17H20O6/c1-9(5-7-13(18)19)4-6-11-15(20)14-12(8-23-17(14)21)10(2)16(11)22-3/h4,20H,5-8H2,1-3H3,(H,18,19)/b9-4+
Instrument: LTQ Orbitrap XL Thermo Scientific
Instrument type: LC-ESI-ITFT
Ms type: MS2
Ion mode: POSITIVE
Ionization: ESI
Fragmentation mode: HCD
Collision energy: 90 % (nominal)
Resolution: 7500
Column name: XBridge C18 3.5um, 2.1x50mm, Waters
Retention time: 9.9 min
Base peak: 321.1329
Precursor m/z: 321.1333
Precursor type: [M+H]+
m/z	relative intensity	assigned
53.0384	3	C4H5+
65.0385	10	C5H5+
67.0542	3	C5H7+
77.0386	215	C6H5+
79.0543	13	C6H7+
81.0699	13	C6H9+
89.0389	4	C7H5+
91.0542	536	C7H7+
93.0698	8	C7H9+
95.0492	24	C6H7O+
102.0464	19	C8H6+
103.0543	611	C8H7+
105.0333	5	C7H5O+
105.0448	64	C6H5N2+
105.0699	13	C8H9+
107.0491	4	C7H7O+
108.057	3	C7H8O+
115.054	5	C9H7+
117.0336	35	C8H5O+
117.0704	3	C9H9+
121.0648	14	C8H9O+
128.0618	3	C10H8+
131.0492	147	C9H7O+
133.0647	4	C9H9O+
135.0806	18	C9H11O+
136.0519	9	C8H8O2+
139.0755	2	C8H11O2+
142.0783	2	C11H10+
145.0649	14	C10H9O+
149.0597	27	C9H9O2+
159.044	999	C10H7O2+
161.06	7	C10H9O2+
163.0394	7	C9H7O3+
165.0549	6	C9H9O3+
171.08	2	C12H11O+
175.0759	6	C11H11O2+
177.0546	127	C10H9O3+
179.0703	39	C10H11O3+
195.0649	6	C10H11O4+
207.0652	37	C11H11O4+
