Mass spectrum: 2,6-Di-tert-butylpyridine; LC-ESI-QFT; MS2; CE: 180; R=35000; [M+H]+
Name: 2,6-Di-tert-butylpyridine
Name: 2,6-ditert-butylpyridine
Name: 2,6-Bis(2-methyl-2-propanyl)pyridine
Formula: C13H21N
Exact mass: 191.16740
SMILES: CC(C)(C)C1=NC(=CC=C1)C(C)(C)C
InChI: InChI=1S/C13H21N/c1-12(2,3)10-8-7-9-11(14-10)13(4,5)6/h7-9H,1-6H3
Instrument: Q Exactive Plus Orbitrap Thermo Scientific
Instrument type: LC-ESI-QFT
Ms type: MS2
Ion mode: POSITIVE
Ionization: ESI
Fragmentation mode: HCD
Collision energy: 180 (nominal)
Resolution: 35000
Column name: XBridge C18 3.5um, 2.1x50mm, Waters
Retention time: 5.5 min
Base peak: 164.9844
Precursor m/z: 192.1747
Precursor type: [M+H]+
m/z	relative intensity	assigned
50.0151	25	C4H2+
51.0229	26	C4H3+
53.0023	7	C3HO+
53.0386	57	C4H5+
54.0338	12	C3H4N+
55.0179	4	C3H3O+
55.0543	1	C4H7+
57.0699	6	C4H9+
65.0386	75	C5H5+
66.0464	28	C5H6+
67.0417	6	C4H5N+
67.0542	5	C5H7+
68.0494	9	C4H6N+
69.0573	1	C4H7N+
74.0964	1	C4H12N+
77.0385	42	C6H5+
78.0338	65	C5H4N+
78.0464	38	C6H6+
79.0416	9	C5H5N+
79.0542	80	C6H7+
80.0494	41	C5H6N+
80.0621	4	C6H8+
81.0336	9	C5H5O+
81.0573	6	C5H7N+
82.0287	1	C4H4NO+
89.0386	13	C7H5+
90.0464	8	C7H6+
91.0543	333	C7H7+
92.0495	17	C6H6N+
92.062	1	C7H8+
93.0573	30	C6H7N+
93.07	16	C7H9+
94.0416	1	C6H6O+
94.0651	15	C6H8N+
95.0366	13	C5H5NO+
95.0492	168	C6H7O+
96.0444	233	C5H6NO+
103.0543	20	C8H7+
104.0495	433	C7H6N+
105.0448	116	C6H5N2+
105.0573	22	C7H7N+
105.0699	8	C8H9+
106.0651	146	C7H8N+
107.0729	11	C7H9N+
108.0445	1	C6H6NO+
109.0523	8	C6H7NO+
109.0649	1	C7H9O+
110.06	21	C6H8NO+
115.0543	13	C9H7+
116.0495	13	C8H6N+
117.0573	212	C8H7N+
118.0651	213	C8H8N+
119.073	77	C8H9N+
120.0444	2	C7H6NO+
120.0808	28	C8H10N+
121.0523	6	C7H7NO+
121.0888	10	C8H11N+
122.0601	29	C7H8NO+
128.0621	8	C10H8+
129.0699	4	C10H9+
130.0652	69	C9H8N+
131.073	59	C9H9N+
132.0808	671	C9H10N+
133.0886	30	C9H11N+
134.06	12	C8H8NO+
134.0965	1	C9H12N+
136.0757	69	C8H10NO+
144.0809	42	C10H10N+
145.0887	8	C10H11N+
146.0965	999	C10H12N+
147.1043	33	C10H13N+
148.1119	3	C10H14N+
150.0916	1	C9H12NO+
160.1121	33	C11H14N+
162.1275	3	C11H16N+
