Mass spectrum: Chloridazone-methyl-desphenyl; LC-ESI-ITFT; MS2; CE: 90%; R=7500; [M+H]+
Name: Chloridazone-methyl-desphenyl
Name: 1-Methyl-4-amino-5-chloro-6-oxo-(1H)-pyridazine
Name: 5-amino-4-chloro-2-methyl-3-pyridazinone
Formula: C5H6ClN3O
Exact mass: 159.0199
SMILES: ClC(=C(C=N1)N)C(=O)N1C
InChI: InChI=1S/C5H6ClN3O/c1-9-5(10)4(6)3(7)2-8-9/h2H,7H2,1H3
Instrument: LTQ Orbitrap XL Thermo Scientific
Instrument type: LC-ESI-ITFT
Ms type: MS2
Ion mode: POSITIVE
Ionization: ESI
Fragmentation mode: HCD
Collision energy: 90 % (nominal)
Resolution: 7500
Column name: XBridge C18 3.5um, 2.1x50mm, Waters
Retention time: 2.2 min
Base peak: 160.0271
Precursor m/z: 160.0272
Precursor type: [M+H]+
m/z	relative intensity	assigned
54.0339	3	C3H4N+
55.0179	1	C3H3O+
55.029	7	C2H3N2+
57.0446	3	C2H5N2+
58.0287	5	C2H4NO+
60.9839	2	C2H2Cl+
62.9632	1	CClO+
63.9949	5	CH3ClN+
66.0213	1	C3H2N2+
67.029	9	C3H3N2+
68.0132	4	C3H2NO+
68.0495	20	C4H6N+
69.0448	28	C3H5N2+
73.9794	2	C2HClN+
75.9949	55	C2H3ClN+
78.0105	6	C2H5ClN+
81.0449	3	C4H5N2+
82.0287	5	C4H4NO+
83.0603	2	C4H7N2+
84.0556	2	C3H6N3+
85.0398	2	C3H5N2O+
85.9793	5	C3HClN+
85.9918	6	C4H3Cl+
86.9995	12	C4H4Cl+
87.9949	386	C3H3ClN+
90.0104	9	C3H5ClN+
96.0445	9	C5H6NO+
96.0554	2	C4H6N3+
97.0397	6	C4H5N2O+
97.0527	2	C5H7NO+
97.0635	8	C4H7N3+
99.9711	5	C4HClO+
100.9901	24	C3H2ClN2+
101.9741	16	C3HClNO+
102.0105	3	C4H5ClN+
103.0056	5	C3H4ClN2+
103.0185	6	C4H6ClN+
103.9898	31	C3H3ClNO+
105.0219	1	C3H6ClN2+
110.0344	1	C4H4N3O+
115.0058	8	C4H4ClN2+
115.9898	29	C4H3ClNO+
116.9976	344	C4H4ClNO+
124.0507	41	C5H6N3O+
125.0583	5	C5H7N3O+
128.9851	16	C4H2ClN2O+
130.0054	221	C5H5ClNO+
131.0007	23	C4H4ClN2O+
131.0134	40	C5H6ClNO+
132.0086	14	C4H5ClN2O+
133.0166	5	C4H6ClN2O+
143.0011	1	C5H4ClN2O+
145.0038	117	C4H4ClN3O+
146.0114	1	C4H5ClN3O+
158.0115	10	C5H5ClN3O+
160.0271	999	C5H7ClN3O+
