Mass spectrum: Olanzapine; LC-ESI-QFT; MS2; CE: 60; R=35000; [M+H]+
Name: Olanzapine
Name: 2-methyl-4-(4-methylpiperazin-1-yl)-5H-thieno[3,2-c][1,5]benzodiazepine
Formula: C17H20N4S
Exact mass: 312.14087
SMILES: CC1=CC2=C(NC3=CC=CC=C3N=C2S1)N4CCN(CC4)C
InChI: InChI=1S/C17H20N4S/c1-12-11-13-16(21-9-7-20(2)8-10-21)18-14-5-3-4-6-15(14)19-17(13)22-12/h3-6,11,18H,7-10H2,1-2H3
Instrument: Q Exactive Plus Orbitrap Thermo Scientific
Instrument type: LC-ESI-QFT
Ms type: MS2
Ion mode: POSITIVE
Ionization: ESI
Fragmentation mode: HCD
Collision energy: 60 (nominal)
Resolution: 35000
Column name: XBridge C18 3.5um, 2.1x50mm, Waters
Retention time: 3.1 min
Base peak: 313.1474
Precursor m/z: 313.1481
Precursor type: [M+H]+
m/z	relative intensity	assigned
55.0542	1	C4H7+
56.0495	5	C3H6N+
58.0651	37	C3H8N+
58.995	1	C2H3S+
68.0494	1	C4H6N+
69.0572	2	C4H7N+
70.0651	2	C4H8N+
70.9949	2	C3H3S+
72.0807	4	C4H10N+
82.0651	8	C5H8N+
83.0605	1	C4H7N2+
84.0808	347	C5H10N+
85.076	23	C4H9N2+
92.0494	6	C6H6N+
94.0651	2	C6H8N+
99.0916	1	C5H11N2+
101.1074	3	C5H13N2+
104.0494	3	C7H6N+
106.0651	6	C7H8N+
110.0058	2	C5H4NS+
116.0495	1	C8H6N+
117.0572	2	C8H7N+
119.0605	5	C7H7N2+
120.0809	2	C8H10N+
132.0683	2	C8H8N2+
133.076	8	C8H9N2+
134.0601	1	C8H8NO+
142.0652	1	C10H8N+
154.0653	1	C11H8N+
155.0604	5	C10H7N2+
155.073	1	C11H9N+
158.0838	1	C10H10N2+
167.0605	1	C11H7N2+
168.0684	1	C11H8N2+
169.076	127	C11H9N2+
170.0842	1	C11H10N2+
173.0169	13	C9H5N2S+
173.0289	4	C10H7NS+
179.0604	17	C12H7N2+
180.0682	118	C12H8N2+
181.076	3	C12H9N2+
182.0713	2	C11H8N3+
182.084	4	C12H10N2+
183.079	1	C11H9N3+
183.0918	1	C12H11N2+
184.0869	3	C11H10N3+
185.0711	3	C11H9N2O+
186.0372	54	C11H8NS+
187.0324	1	C10H7N2S+
187.0452	2	C11H9NS+
193.0761	1	C13H9N2+
194.0712	2	C12H8N3+
194.084	1	C13H10N2+
195.0792	38	C12H9N3+
195.092	1	C13H11N2+
196.0871	5	C12H10N3+
196.0996	6	C13H12N2+
197.0952	1	C12H11N3+
198.0247	341	C11H6N2S+
200.0528	9	C12H10NS+
201.0482	6	C11H9N2S+
206.0838	2	C14H10N2+
207.0796	2	C13H9N3+
208.087	8	C13H10N3+
209.0951	2	C13H11N3+
211.0327	4	C12H7N2S+
212.0404	71	C12H8N2S+
212.0522	3	C13H10NS+
213.0482	386	C12H9N2S+
214.0558	12	C12H10N2S+
215.0637	19	C12H11N2S+
220.0869	2	C14H10N3+
221.0948	3	C14H11N3+
222.1027	79	C14H12N3+
223.1105	55	C14H13N3+
224.0397	3	C13H8N2S+
224.1183	30	C14H14N3+
225.0481	6	C13H9N2S+
226.0434	2	C12H8N3S+
226.056	10	C13H10N2S+
227.0638	47	C13H11N2S+
228.0591	28	C12H10N3S+
228.0712	3	C13H12N2S+
229.0669	3	C12H11N3S+
229.0795	6	C13H13N2S+
230.0746	9	C12H12N3S+
234.1024	1	C15H12N3+
238.056	2	C14H10N2S+
239.0637	31	C14H11N2S+
240.059	11	C13H10N3S+
240.0717	3	C14H12N2S+
241.0669	31	C13H11N3S+
241.0791	2	C14H13N2S+
242.0748	8	C13H12N3S+
248.1181	8	C16H14N3+
249.1262	2	C16H15N3+
250.1336	6	C16H16N3+
252.0587	1	C14H10N3S+
253.0795	1	C15H13N2S+
254.0745	10	C14H12N3S+
255.0827	7	C14H13N3S+
256.0903	999	C14H14N3S+
266.075	2	C15H12N3S+
267.0825	1	C15H13N3S+
270.1061	2	C15H16N3S+
280.0903	1	C16H14N3S+
282.106	160	C16H16N3S+
313.1486	2	C17H21N4S+
