Mass spectrum: Imidacloprid; LC-ESI-ITFT; MS2; CE: 60%; R=7500; [M+H]+
Name: Imidacloprid
Name: N-[1-[(6-chloranylpyridin-3-yl)methyl]-4,5-dihydroimidazol-2-yl]nitramide
Formula: C9H10ClN5O2
Exact mass: 255.0523
SMILES: Cl-c(ncc1CN(CC2)C(N2)=NN(=O)=O)cc1
InChI: InChI=1S/C9H10ClN5O2/c10-8-2-1-7(5-12-8)6-14-4-3-11-9(14)13-15(16)17/h1-2,5H,3-4,6H2,(H,11,13)
Instrument: LTQ Orbitrap XL Thermo Scientific
Instrument type: LC-ESI-ITFT
Ms type: MS2
Ion mode: POSITIVE
Ionization: ESI
Fragmentation mode: HCD
Collision energy: 60 % (nominal)
Resolution: 7500
Column name: XBridge C18 3.5um, 2.1x50mm, Waters
Retention time: 4.8 min
Base peak: 256.0596
Precursor m/z: 256.0596
Precursor type: [M+H]+
m/z	relative intensity	assigned
56.0494	7	C3H6N+
71.0603	4	C3H7N2+
72.0683	1	C3H8N2+
84.0556	109	C3H6N3+
90.0337	1	C6H4N+
92.0492	2	C6H6N+
93.0574	1	C6H7N+
97.0634	8	C4H7N3+
98.0712	10	C4H8N3+
99.0552	22	C4H7N2O+
99.0664	1	C3H7N4+
105.045	1	C6H5N2+
106.0651	3	C7H8N+
107.0604	4	C6H7N2+
110.0604	1	C6H8NO+
113.0031	1	C5H4ClN+
114.0105	5	C5H5ClN+
119.0604	3	C7H7N2+
120.0551	1	C6H6N3+
126.0105	76	C6H5ClN+
127.0184	5	C6H6ClN+
128.0261	103	C6H7ClN+
131.0603	3	C8H7N2+
132.0559	2	C7H6N3+
132.0684	1	C8H8N2+
133.0634	8	C7H7N3+
133.076	19	C8H9N2+
134.071	7	C7H8N3+
139.0056	4	C6H4ClN2+
141.0214	19	C6H6ClN2+
144.0206	1	C9H4O2+
144.9923	1	C5H4ClNO2+
146.0586	14	C7H6N4+
146.0712	46	C8H8N3+
147.0665	40	C7H7N4+
147.0796	2	C8H9N3+
148.0868	14	C8H10N3+
151.0182	10	C8H6ClN+
152.0135	2	C7H5ClN2+
153.0214	3	C7H6ClN2+
155.0376	2	C7H8ClN2+
158.0712	17	C9H8N3+
159.0661	5	C8H7N4+
159.0789	14	C9H9N3+
160.0866	1	C9H10N3+
166.0292	2	C8H7ClN2+
167.0238	4	C7H6ClN3+
167.037	22	C8H8ClN2+
168.0317	2	C7H7ClN3+
173.0822	57	C9H9N4+
174.0899	119	C9H10N4+
175.0977	999	C9H11N4+
176.0821	4	C9H10N3O+
180.0326	5	C8H7ClN3+
181.0275	23	C7H6ClN4+
191.0925	3	C9H11N4O+
192.0325	1	C9H7ClN3+
193.04	8	C9H8ClN3+
194.0478	15	C9H9ClN3+
209.0587	781	C9H10ClN4+
210.0671	10	C9H11ClN4+
212.0584	10	C9H11ClN3O+
