Mass spectrum: Lorazepam; LC-ESI-QFT; MS2; CE: 45; R=35000; [M-H]-
Name: Lorazepam
Name: 2H-1,4-Benzodiazepin-2-one, 7-chloro-5-(2-chlorophenyl)-1,3-dihydro-3-hydroxy-
Name: 7-chloranyl-5-(2-chlorophenyl)-3-oxidanyl-1,3-dihydro-1,4-benzodiazepin-2-one
Formula: C15H10Cl2N2O2
Exact mass: 320.01193
SMILES: Clc3ccccc3C/2=N/C(O)C(=O)Nc1c\2cc(Cl)cc1
InChI: InChI=1S/C15H10Cl2N2O2/c16-8-5-6-12-10(7-8)13(19-15(21)14(20)18-12)9-3-1-2-4-11(9)17/h1-7,15,21H,(H,18,20)
Instrument: Q Exactive Orbitrap Thermo Scientific
Instrument type: LC-ESI-QFT
Ms type: MS2
Ion mode: NEGATIVE
Ionization: ESI
Fragmentation mode: HCD
Collision energy: 45 (nominal)
Resolution: 35000
Column name: XBridge C18 3.5um, 2.1x50mm, Waters
Retention time: 9.0 min
Base peak: 319.005
Precursor m/z: 319.0047
Precursor type: [M-H]-
m/z	relative intensity	assigned
65.9986	1	C3NO-
102.035	999	C7H4N-
116.0144	35	C7H2NO-
126.0117	9	C6H5ClN-
143.0249	2	C8H3N2O-
144.0093	8	C8H2NO2-
145.0408	2	C8H5N2O-
146.0247	9	C8H4NO2-
151.0068	22	C7H4ClN2-
151.9909	282	C7H3ClNO-
160.9909	2	C8H2ClN2-
173.0356	15	C9H5N2O2-
176.9858	2	C8H2ClN2O-
179.0019	124	C8H4ClN2O-
179.9859	77	C8H3ClNO2-
191.0619	1	C13H7N2-
192.0456	6	C13H6NO-
200.0275	24	C12H7ClN-
218.0484	5	C14H6N2O-
219.0564	34	C14H7N2O-
227.0383	50	C13H8ClN2-
228.0223	71	C13H7ClNO-
237.0672	1	C14H9N2O2-
246.0437	3	C15H6N2O2-
247.0512	17	C15H7N2O2-
253.0175	11	C14H6ClN2O-
254.0254	16	C14H7ClN2O-
255.0332	96	C14H8ClN2O-
256.0175	2	C14H7ClNO2-
266.0251	9	C15H7ClN2O-
282.0204	7	C15H7ClN2O2-
283.0279	184	C15H8ClN2O2-
