Mass spectrum: Alachlor; LC-ESI-ITFT; MS2; CE: 15%; R=7500; [M+H]+
Name: Alachlor
Name: 2-chloranyl-N-(2,6-diethylphenyl)-N-(methoxymethyl)ethanamide
Formula: C14H20ClNO2
Exact mass: 269.1177
SMILES: CCC1=CC=CC(CC)=C1N(COC)C(=O)CCl
InChI: InChI=1S/C14H20ClNO2/c1-4-11-7-6-8-12(5-2)14(11)16(10-18-3)13(17)9-15/h6-8H,4-5,9-10H2,1-3H3
Instrument: LTQ Orbitrap XL Thermo Scientific
Instrument type: LC-ESI-ITFT
Ms type: MS2
Ion mode: POSITIVE
Ionization: ESI
Fragmentation mode: HCD
Collision energy: 15 % (nominal)
Resolution: 7500
Column name: XBridge C18 3.5um, 2.1x50mm, Waters
Retention time: 11.7 min
Base peak: 292.1079
Precursor m/z: 270.1255
Precursor type: [M+H]+
m/z	relative intensity	assigned
90.0107	4	C3H5ClN+
162.1275	64	C11H16N+
208.0888	23	C12H15ClN+
220.0883	15	C13H15ClN+
224.0835	29	C12H15ClNO+
238.0992	999	C13H17ClNO+
270.1254	950	C14H21ClNO2+
