Mass spectrum: Trospium; LC-ESI-QFT; MS2; CE: 60; R=35000; [M]+
Name: Trospium
Name: spiro[8-azoniabicyclo[3.2.1]octane-8,1`-azolidin-1-ium]-3-yl 2-hydroxy-2,2-diphenylacetate
Formula: [C25H30NO3]+
Exact mass: 392.22257
SMILES: OC(C(=O)OC1CC2CCC(C1)[N+]21CCCC1)(C1=CC=CC=C1)C1=CC=CC=C1
InChI: InChI=1S/C25H30NO3/c27-24(25(28,19-9-3-1-4-10-19)20-11-5-2-6-12-20)29-23-17-21-13-14-22(18-23)26(21)15-7-8-16-26/h1-6,9-12,21-23,28H,7-8,13-18H2/q+1
Instrument: Q Exactive Orbitrap Thermo Scientific
Instrument type: LC-ESI-QFT
Ms type: MS2
Ion mode: POSITIVE
Ionization: ESI
Fragmentation mode: HCD
Collision energy: 60 (nominal)
Resolution: 35000
Column name: XBridge C18 3.5um, 2.1x50mm, Waters
Retention time: 6.1 min
Base peak: 392.2208
Precursor m/z: 392.222
Precursor type: [M]+
m/z	relative intensity	assigned
84.0804	6	C5H10N+
91.0539	23	C7H7+
93.0695	103	C7H9+
95.0488	8	C6H7O+
95.0852	47	C7H11+
97.0882	18	C6H11N+
98.0961	6	C6H12N+
105.0331	4	C7H5O+
105.0443	2	C6H5N2+
108.0804	2	C7H10N+
110.0961	7	C7H12N+
120.0803	1	C8H10N+
122.0959	13	C8H12N+
123.1038	17	C8H13N+
136.1117	11	C9H14N+
138.1272	18	C9H16N+
150.1272	4	C10H16N+
164.1428	797	C11H18N+
165.1505	10	C11H19N+
182.1533	999	C11H20NO+
183.0798	3	C13H11O+
392.2207	37	C25H30NO3+
