Mass spectrum: Oxybutynin; LC-ESI-QFT; MS2; CE: 45; R=35000; [M+H]+
Name: Oxybutynin
Name: 2-cyclohexyl-2-hydroxy-2-phenyl-acetic acid 4-(diethylamino)but-2-ynyl ester
Formula: C22H31NO3
Exact mass: 357.23039
SMILES: CCN(CC)CC#CCOC(=O)C(C1CCCCC1)(C2=CC=CC=C2)O
InChI: InChI=1S/C22H31NO3/c1-3-23(4-2)17-11-12-18-26-21(24)22(25,19-13-7-5-8-14-19)20-15-9-6-10-16-20/h5,7-8,13-14,20,25H,3-4,6,9-10,15-18H2,1-2H3
Instrument: Q Exactive Orbitrap Thermo Scientific
Instrument type: LC-ESI-QFT
Ms type: MS2
Ion mode: POSITIVE
Ionization: ESI
Fragmentation mode: HCD
Collision energy: 45 (nominal)
Resolution: 35000
Column name: XBridge C18 3.5um, 2.1x50mm, Waters
Retention time: 8.9 min
Base peak: 358.2382
Precursor m/z: 358.2377
Precursor type: [M+H]+
m/z	relative intensity	assigned
51.023	2	C4H3+
53.0387	3	C4H5+
54.034	94	C3H4N+
55.0544	4	C4H7+
56.0496	8	C3H6N+
58.0652	275	C3H8N+
59.0492	2	C3H7O+
63.0078	4	CH3O3+
65.0387	11	C5H5+
67.0418	3	C4H5N+
67.0543	44	C5H7+
68.0495	214	C4H6N+
69.0335	211	C4H5O+
69.07	42	C5H9+
70.0652	41	C4H8N+
71.0492	3	C4H7O+
72.0808	777	C4H10N+
73.0886	26	C4H11N+
74.0965	12	C4H12N+
77.0386	11	C6H5+
79.0543	176	C6H7+
80.0495	51	C5H6N+
81.0574	62	C5H7N+
81.07	92	C6H9+
82.0652	188	C5H8N+
83.073	10	C5H9N+
83.0856	61	C6H11+
84.0809	39	C5H10N+
86.0965	40	C5H12N+
91.0543	144	C7H7+
93.0572	1	C6H7N+
93.07	13	C7H9+
94.0652	219	C6H8N+
95.0492	34	C6H7O+
95.073	65	C6H9N+
95.0857	12	C7H11+
96.0809	227	C6H10N+
97.0285	507	C5H5O2+
98.0965	8	C6H12N+
99.0805	5	C6H11O+
103.0544	3	C8H7+
105.0336	580	C7H5O+
107.0493	258	C7H7O+
108.0809	99	C7H10N+
109.0649	8	C7H9O+
109.0887	83	C7H11N+
110.0965	2	C7H12N+
111.0804	3	C7H11O+
113.0232	15	C5H5O3+
114.0916	3	C6H12NO+
115.0543	7	C9H7+
117.0699	13	C9H9+
119.0604	3	C7H7N2+
121.0649	11	C8H9O+
122.0965	53	C8H12N+
124.1122	231	C8H14N+
125.12	27	C8H15N+
128.0622	13	C10H8+
129.07	165	C10H9+
131.0857	3	C10H11+
141.07	10	C11H9+
142.1229	999	C8H16NO+
143.0856	29	C11H11+
145.0651	3	C10H9O+
155.0487	2	C11H7O+
155.0855	3	C12H11+
157.0651	21	C11H9O+
165.0704	2	C13H9+
166.0779	2	C13H10+
169.1015	4	C13H13+
171.117	133	C13H15+
173.06	19	C11H9O2+
181.1014	17	C14H13+
183.1039	2	C13H13N+
185.0604	9	C12H9O2+
187.0759	8	C12H11O2+
189.1276	191	C13H17O+
199.1119	67	C14H15O+
203.0706	3	C12H11O3+
267.1389	3	C18H19O2+
340.2285	13	C22H30NO2+
358.2382	44	C22H32NO3+
