Mass spectrum: Metribuzin; LC-ESI-ITFT; MS2; CE: 60%; R=7500; [M+H]+
Name: Metribuzin
Name: 1,2,4-Triazin-5(4H)-one, 4-amino-6-(1,1-dimethylethyl)-3-(methylthio)-
Name: 4-amino-6-tert-butyl-3-(methylthio)-1,2,4-triazin-5-one
Formula: C8H14N4OS
Exact mass: 214.0883
SMILES: S(C)C(=NN=C1C(C)(C)C)N(N)C1=O
InChI: InChI=1S/C8H14N4OS/c1-8(2,3)5-6(13)12(9)7(14-4)11-10-5/h9H2,1-4H3
Instrument: LTQ Orbitrap XL Thermo Scientific
Instrument type: LC-ESI-ITFT
Ms type: MS2
Ion mode: POSITIVE
Ionization: ESI
Fragmentation mode: HCD
Collision energy: 60 % (nominal)
Resolution: 7500
Column name: XBridge C18 3.5um, 2.1x50mm, Waters
Retention time: 6.9 min
Base peak: 215.0964
Precursor m/z: 215.0961
Precursor type: [M+H]+
m/z	relative intensity	assigned
57.0698	36	C4H9+
58.0399	88	CH4N3+
59.9903	29	CH2NS+
62.0059	34	CH4NS+
69.0083	10	C2HN2O+
69.0699	16	C5H9+
74.0059	83	C2H4NS+
76.0215	24	C2H6NS+
79.0544	3	C6H7+
82.0651	26	C5H8N+
84.0808	129	C5H10N+
87.0011	15	C2H3N2S+
88.0091	5	C2H4N2S+
89.0168	45	C2H5N2S+
97.0648	19	C6H9O+
99.0915	9	C5H11N2+
104.0276	10	C2H6N3S+
108.068	3	C6H8N2+
110.06	8	C6H8NO+
114.9961	25	C3H3N2OS+
130.0689	4	C6H12NS+
131.0275	9	C4H7N2OS+
131.0386	152	C3H7N4S+
139.0864	7	C7H11N2O+
140.1058	5	C6H12N4+
143.0635	7	C6H11N2S+
145.0541	44	C4H9N4S+
153.0773	7	C6H9N4O+
155.0635	8	C7H11N2S+
156.0591	14	C6H10N3S+
157.0432	9	C6H9N2OS+
171.0587	79	C7H11N2OS+
172.0777	20	C6H12N4S+
183.0465	11	C7H9N3OS+
184.0539	30	C7H10N3OS+
186.0822	43	C8H14N2OS+
187.1012	999	C7H15N4S+
215.0954	354	C8H15N4OS+
