Mass spectrum: Bromazepam; LC-ESI-QFT; MS2; CE: 45; R=35000; [M+H]+
Name: Bromazepam
Name: 7-bromo-5-pyridin-2-yl-1,3-dihydro-1,4-benzodiazepin-2-one
Formula: C14H10BrN3O
Exact mass: 315.00072
SMILES: C1C(=O)NC2=C(C=C(C=C2)Br)C(=N1)C3=CC=CC=N3
InChI: InChI=1S/C14H10BrN3O/c15-9-4-5-11-10(7-9)14(17-8-13(19)18-11)12-3-1-2-6-16-12/h1-7H,8H2,(H,18,19)
Instrument: Q Exactive Plus Orbitrap Thermo Scientific
Instrument type: LC-ESI-QFT
Ms type: MS2
Ion mode: POSITIVE
Ionization: ESI
Fragmentation mode: HCD
Collision energy: 45 (nominal)
Resolution: 35000
Column name: XBridge C18 3.5um, 2.1x50mm, Waters
Retention time: 7.0 min
Base peak: 316.0073
Precursor m/z: 316.008
Precursor type: [M+H]+
m/z	relative intensity	assigned
78.0337	13	C5H4N+
80.0494	192	C5H6N+
96.0443	48	C5H6NO+
104.0495	1	C7H6N+
105.0447	12	C6H5N2+
105.0573	4	C7H7N+
106.0287	9	C6H4NO+
107.0603	16	C6H7N2+
110.0601	4	C6H8NO+
119.0604	5	C7H7N2+
124.0393	32	C6H6NO2+
131.0603	6	C8H7N2+
133.0522	32	C8H7NO+
135.0551	6	C7H7N2O+
181.0759	22	C12H9N2+
182.0838	865	C12H10N2+
183.9756	277	C7H7BrN+
192.0679	7	C13H8N2+
193.0761	5	C13H9N2+
193.96	2	C8H5BrN+
194.0837	5	C13H10N2+
197.9551	1	C7H5BrNO+
207.0793	2	C13H9N3+
208.0869	143	C13H10N3+
208.9709	55	C8H6BrN2+
209.0947	999	C13H11N3+
209.9786	2	C8H7BrN2+
210.0787	19	C13H10N2O+
211.9705	35	C8H7BrNO+
236.0817	10	C14H10N3O+
237.0896	19	C14H11N3O+
243.9761	1	C12H7BrN+
244.9835	5	C12H8BrN+
258.9865	61	C12H8BrN2+
259.9944	185	C12H9BrN2+
261.0021	620	C12H10BrN2+
270.9864	17	C13H8BrN2+
285.9971	4	C13H9BrN3+
286.9813	11	C13H8BrN2O+
287.005	18	C13H10BrN3+
288.013	538	C13H11BrN3+
288.9972	2	C13H10BrN2O+
297.9969	8	C14H9BrN3+
298.9811	1	C14H8BrN2O+
316.0079	722	C14H11BrN3O+
