Mass spectrum: Profoxydim; LC-ESI-QFT; MS2; CE: 120; R=35000; [M-H]-
Name: Profoxydim
Name: 2-[1-[2-(4-chlorophenoxy)propoxyamino]butylidene]-5-(thian-3-yl)cyclohexane-1,3-dione
Formula: C24H32ClNO4S
Exact mass: 465.17406
SMILES: CCCC(=C1C(=O)CC(CC1=O)C2CCCSC2)NOCC(C)OC3=CC=C(C=C3)Cl
InChI: InChI=1S/C24H32ClNO4S/c1-3-5-21(26-29-14-16(2)30-20-9-7-19(25)8-10-20)24-22(27)12-18(13-23(24)28)17-6-4-11-31-15-17/h7-10,16-18,26H,3-6,11-15H2,1-2H3
Instrument: Q Exactive Plus Orbitrap Thermo Scientific
Instrument type: LC-ESI-QFT
Ms type: MS2
Ion mode: NEGATIVE
Ionization: ESI
Fragmentation mode: HCD
Collision energy: 120 (nominal)
Resolution: 35000
Column name: XBridge C18 3.5um, 2.1x50mm, Waters
Retention time: 14.4 min
Base peak: 464.1659
Precursor m/z: 464.1668
Precursor type: [M-H]-
m/z	relative intensity	assigned
50.0035	18	C3N-
57.0345	3	C3H5O-
58.996	15	C2H3S-
64.0192	15	C4H2N-
65.0396	3	C5H5-
65.9985	999	C3NO-
67.0189	14	C4H3O-
68.0141	7	C3H2NO-
69.0346	36	C4H5O-
82.0298	9	C4H4NO-
90.0349	10	C6H4N-
91.0189	5	C6H3O-
92.0141	5	C5H2NO-
92.0506	3	C6H6N-
93.0345	3	C6H5O-
94.0298	5	C5H4NO-
95.0138	5	C5H3O2-
95.0501	1	C6H7O-
101.0429	4	C5H9S-
106.0299	1	C6H4NO-
107.0503	2	C7H7O-
108.0216	3	C6H4O2-
109.0296	1	C6H5O2-
118.0299	3	C7H4NO-
120.0091	334	C6H2NO2-
121.0658	1	C8H9O-
126.9955	32	C6H4ClO-
131.0374	6	C8H5NO-
133.0168	4	C7H3NO2-
134.0247	612	C7H4NO2-
135.0326	2	C7H5NO2-
136.0404	1	C7H6NO2-
146.0247	2	C8H4NO2-
156.0458	1	C10H6NO-
160.0402	7	C9H6NO2-
162.0559	19	C9H8NO2-
174.0558	5	C10H8NO2-
192.0486	2	C10H10NOS-
194.0642	1	C10H12NOS-
236.0751	2	C12H14NO2S-
