Mass spectrum: Anabaenopeptin A; LC-ESI-QFT; MS2; CE: 120%; R=17500; [M+H]+
Name: Anabaenopeptin A
Name: 2-[[3-benzyl-9-[2-(4-hydroxyphenyl)ethyl]-6,7-dimethyl-2,5,8,11,14-pentaoxo-12-propan-2-yl-1,4,7,10,13-pentazacyclononadec-15-yl]carbamoylamino]-3-(4-hydroxyphenyl)propanoic acid
Formula: C44H57N7O10
Exact mass: 843.4167
SMILES: CC1C(=O)NC(C(=O)NCCCCC(C(=O)NC(C(=O)NC(C(=O)N1C)CCC2=CC=C(C=C2)O)C(C)C)NC(=O)NC(CC3=CC=C(C=C3)O)C(=O)O)CC4=CC=CC=C4
InChI: InChI=1S/C44H57N7O10/c1-26(2)37-41(57)46-34(22-17-28-13-18-31(52)19-14-28)42(58)51(4)27(3)38(54)47-35(24-29-10-6-5-7-11-29)39(55)45-23-9-8-12-33(40(56)50-37)48-44(61)49-36(43(59)60)25-30-15-20-32(53)21-16-30/h5-7,10-11,13-16,18-21,26-27,33-37,52-53H,8-9,12,17,22-25H2,1-4H3,(H,45,55)(H,46,57)(H,47,54)(H,50,56)(H,59,60)(H2,48,49,61)
Instrument: Q Exactive Plus Orbitrap Thermo Scientific
Instrument type: LC-ESI-QFT
Ms type: MS2
Ion mode: POSITIVE
Ionization: ESI
Fragmentation mode: HCD
Collision energy: 120 % (nominal)
Resolution: 17500
Column name: XBridge C18 3.5um, 2.1x50mm, Waters
Retention time: 7.249 min
Base peak: 164.9844
Precursor m/z: 844.424
Precursor type: [M+H]+
m/z	relative intensity	assigned
65.0386	31	C5H5+
67.0417	11	C4H5N+
67.0542	69	C5H7+
68.0494	10	C4H6N+
69.0572	12	C4H7N+
70.0649	3	C4H8N+
72.0808	42	C4H10N+
77.0385	17	C6H5+
79.0542	40	C6H7+
80.0494	10	C5H6N+
81.0334	6	C5H5O+
82.0289	7	C4H4NO+
82.0651	33	C5H8N+
84.0808	999	C5H10N+
86.0601	24	C4H8NO+
89.0383	8	C7H5+
91.0542	235	C7H7+
93.0699	37	C7H9+
94.0652	6	C6H8N+
95.0491	213	C6H7O+
102.0464	6	C8H6+
103.0542	361	C8H7+
105.0447	60	C6H5N2+
105.0699	22	C8H9+
107.0491	319	C7H7O+
110.0601	4	C6H8NO+
115.0541	10	C9H7+
116.0495	4	C8H6N+
118.065	12	C8H8N+
119.0489	15	C8H7O+
119.0728	8	C8H9N+
120.0807	167	C8H10N+
123.0439	4	C7H7O2+
128.062	7	C10H8+
130.0649	6	C9H8N+
136.0756	5	C8H10NO+
146.0595	12	C9H8NO+
