Mass spectrum: Ranitidine; LC-ESI-ITFT; MS2; CE: 60%; R=15000; [M+H]+
Name: Ranitidine
Name: 1,1-Ethenediamine, N-(2-(((5-((dimethylamino)methyl)-2-furanyl)methyl)thio)ethyl)-N'-methyl-2-nitro-
Name: 1-N'-[2-[[5-(dimethylaminomethyl)furan-2-yl]methylsulfanyl]ethyl]-1-N-methyl-2-nitroethene-1,1-diamine
Formula: C13H22N4O3S
Exact mass: 314.1413
SMILES: CN\C(NCCSCC1=CC=C(CN(C)C)O1)=C/[N+]([O-])=O
InChI: InChI=1S/C13H22N4O3S/c1-14-13(9-17(18)19)15-6-7-21-10-12-5-4-11(20-12)8-16(2)3/h4-5,9,14-15H,6-8,10H2,1-3H3/b13-9+
Instrument: LTQ Orbitrap XL Thermo Scientific
Instrument type: LC-ESI-ITFT
Ms type: MS2
Ion mode: POSITIVE
Ionization: ESI
Fragmentation mode: HCD
Collision energy: 60 % (nominal)
Resolution: 15000
Column name: XBridge C18 3.5um, 2.1x50mm, Waters
Retention time: 1.9 min
Base peak: 315.1494
Precursor m/z: 315.1485
Precursor type: [M+H]+
m/z	relative intensity	assigned
55.0416	19	C3H5N+
56.0494	14	C3H6N+
61.0105	10	C2H5S+
71.0603	9	C3H7N2+
81.0335	223	C5H5O+
83.0604	28	C4H7N2+
84.0682	36	C4H8N2+
88.0214	17	C3H6NS+
95.0491	48	C6H7O+
97.076	241	C5H9N2+
98.0838	248	C5H10N2+
101.0168	6	C3H5N2S+
101.0293	17	C4H7NS+
102.0372	999	C4H8NS+
107.0491	56	C7H7O+
108.0572	6	C7H8O+
108.0807	8	C7H10N+
110.0601	17	C6H8NO+
110.0964	98	C7H12N+
115.0324	8	C4H7N2S+
117.0481	26	C4H9N2S+
118.0321	14	C4H8NOS+
121.076	40	C7H9N2+
124.0757	60	C7H10NO+
125.0056	837	C6H5OS+
129.0482	39	C5H9N2S+
130.0558	318	C5H10N2S+
131.0636	11	C5H11N2S+
132.0442	13	C8H6NO+
133.0519	23	C8H7NO+
134.084	8	C8H10N2+
135.0258	9	C8H7S+
135.0916	96	C8H11N2+
138.0911	14	C8H12NO+
145.0427	11	C5H9N2OS+
147.068	14	C9H9NO+
147.0915	7	C9H11N2+
148.0756	146	C9H10NO+
149.071	42	C8H9N2O+
151.0212	16	C8H7OS+
153.0366	16	C8H9OS+
159.0459	10	C5H9N3OS+
160.0755	6	C10H10NO+
163.0865	57	C9H11N2O+
164.0942	32	C9H12N2O+
165.1022	117	C9H13N2O+
167.0638	33	C8H11N2S+
170.0634	14	C8H12NOS+
176.0487	113	C5H10N3O2S+
177.1021	121	C10H13N2O+
178.0322	35	C9H8NOS+
178.1103	10	C10H14N2O+
181.0793	65	C9H13N2S+
191.1178	118	C11H15N2O+
192.0476	35	C10H10NOS+
193.0559	15	C10H11NOS+
194.0628	13	C10H12NOS+
209.074	9	C10H13N2OS+
223.09	17	C11H15N2OS+
224.0987	9	C11H16N2OS+
