Mass spectrum: Epinephrine; LC-ESI-QFT; MS2; CE: 60; R=35000; [M+H]+
Name: Epinephrine
Name: 4-[(1R)-1-hydroxy-2-(methylamino)ethyl]benzene-1,2-diol
Formula: C9H13NO3
Exact mass: 183.08954
SMILES: CNC[C@@H](C1=CC(=C(C=C1)O)O)O
InChI: InChI=1S/C9H13NO3/c1-10-5-9(13)6-2-3-7(11)8(12)4-6/h2-4,9-13H,5H2,1H3/t9-/m0/s1
Instrument: Q Exactive Orbitrap Thermo Scientific
Instrument type: LC-ESI-QFT
Ms type: MS2
Ion mode: POSITIVE
Ionization: ESI
Fragmentation mode: HCD
Collision energy: 60 (nominal)
Resolution: 35000
Column name: XBridge C18 3.5um, 2.1x50mm, Waters
Retention time: 0.8 min
Base peak: 166.0863
Precursor m/z: 184.0968
Precursor type: [M+H]+
m/z	relative intensity	assigned
56.0496	24	C3H6N+
57.0574	190	C3H7N+
58.0652	128	C3H8N+
65.0386	1	C5H5+
67.0417	1	C4H5N+
67.0542	1	C5H7+
68.0496	2	C4H6N+
70.0287	5	C3H4NO+
72.0445	5	C3H6NO+
77.0385	15	C6H5+
78.0465	4	C6H6+
79.0543	116	C6H7+
80.0495	22	C5H6N+
81.0335	39	C5H5O+
81.0699	6	C6H9+
84.0445	4	C4H6NO+
89.0386	1	C7H5+
91.0542	101	C7H7+
93.07	10	C7H9+
94.0287	2	C5H4NO+
94.0651	8	C6H8N+
95.0491	24	C6H7O+
95.0731	6	C6H9N+
96.0808	2	C6H10N+
97.0649	7	C6H9O+
103.0542	21	C8H7+
104.0495	2	C7H6N+
105.0334	1	C7H5O+
105.0448	12	C6H5N2+
105.0574	18	C7H7N+
106.0414	7	C7H6O+
106.0652	5	C7H8N+
107.0492	999	C7H7O+
108.0444	6	C6H6NO+
108.0808	1	C7H10N+
109.0284	118	C6H5O2+
109.0649	7	C7H9O+
110.0363	13	C6H6O2+
110.0603	2	C6H8NO+
111.0441	1	C6H7O2+
117.0336	3	C8H5O+
118.0652	6	C8H8N+
119.0492	60	C8H7O+
120.0808	429	C8H10N+
121.0648	13	C8H9O+
122.0601	10	C7H8NO+
123.0441	169	C7H7O2+
123.0678	18	C7H9NO+
124.0519	19	C7H8O2+
125.0597	22	C7H9O2+
130.0651	11	C9H8N+
131.049	8	C9H7O+
131.073	5	C9H9N+
132.0443	4	C8H6NO+
133.0523	118	C8H7NO+
134.0362	11	C8H6O2+
134.0601	37	C8H8NO+
135.0441	269	C8H7O2+
136.0391	1	C7H6NO2+
136.0522	1	C8H8O2+
137.0597	95	C8H9O2+
138.0912	7	C8H12NO+
146.0602	27	C9H8NO+
147.0679	4	C9H9NO+
148.0758	340	C9H10NO+
149.0836	30	C9H11NO+
150.0551	17	C8H8NO2+
151.0629	532	C8H9NO2+
158.0713	1	C9H8N3+
165.0786	8	C9H11NO2+
166.0864	523	C9H12NO2+
