Mass spectrum: CGA62826 (2-[2,6-dimethylphenyl)-methoxyacetylamino]propionic acid; LC-ESI-QFT; MS2; CE: 150; R=35000; [M-H]-
Name: CGA62826 (2-[2,6-dimethylphenyl)-methoxyacetylamino]propionic acid
Name: N-(2,6-Dimethylphenyl)-N-(methoxyacetyl)-L-alanine
Name: (2S)-2-(N-(2-methoxyacetyl)-2,6-dimethylanilino)propanoic acid
Formula: C14H19NO4
Exact mass: 265.13141
SMILES: Cc1cccc(c1N([C@@H](C)C(=O)O)C(=O)COC)C
InChI: InChI=1S/C14H19NO4/c1-9-6-5-7-10(2)13(9)15(11(3)14(17)18)12(16)8-19-4/h5-7,11H,8H2,1-4H3,(H,17,18)/t11-/m0/s1
Instrument: Q Exactive Plus Orbitrap Thermo Scientific
Instrument type: LC-ESI-QFT
Ms type: MS2
Ion mode: NEGATIVE
Ionization: ESI
Fragmentation mode: HCD
Collision energy: 150 (nominal)
Resolution: 35000
Column name: XBridge C18 3.5um, 2.1x50mm, Waters
Retention time: 7.8 min
Base peak: 264.1239
Precursor m/z: 264.1241
Precursor type: [M-H]-
m/z	relative intensity	assigned
55.0189	262	C3H3O-
57.0346	37	C3H5O-
90.035	9	C6H4N-
114.035	381	C8H4N-
115.0427	46	C8H5N-
116.0506	53	C8H6N-
121.0658	12	C8H9O-
128.0505	58	C9H6N-
129.0585	260	C9H7N-
130.0662	999	C9H8N-
131.0376	102	C8H5NO-
143.0739	47	C10H9N-
144.0818	83	C10H10N-
145.0533	34	C9H7NO-
146.0611	35	C9H8NO-
158.0612	35	C10H8NO-
161.0482	17	C9H7NO2-
