Mass spectrum: Cymoxanil; LC-ESI-ITFT; MS2; CE: 35%; R=30000; [M+H]+
Name: Cymoxanil
Name: 2-(ethylcarbamoylamino)-N-methoxy-2-oxoethanimidoyl cyanide
Formula: C7H10N4O3
Exact mass: 198.0753
SMILES: CCNC(=O)NC(=O)/C(=N/OC)/C#N
InChI: InChI=1S/C7H10N4O3/c1-3-9-7(13)10-6(12)5(4-8)11-14-2/h3H2,1-2H3,(H2,9,10,12,13)/b11-5+
Instrument: LTQ Orbitrap XL Thermo Scientific
Instrument type: LC-ESI-ITFT
Ms type: MS2
Ion mode: POSITIVE
Ionization: ESI
Fragmentation mode: CID
Collision energy: 35 % (nominal)
Resolution: 30000
Column name: XBridge C18 3.5um, 2.1x50mm, Waters
Retention time: 5.6 min
Base peak: 221.0649
Precursor m/z: 199.0826
Precursor type: [M+H]+
m/z	relative intensity	assigned
58.0287	2	C2H4NO+
111.019	13	C4H3N2O2+
128.0454	999	C4H6N3O2+
167.0675	5	C5H7N6O+
