Mass spectrum: Dithiopyr; LC-ESI-QFT; MS2; CE: 60%; R=17500; [M+H]+
Name: Dithiopyr
Name: 3-S,5-S-dimethyl 2-(difluoromethyl)-4-(2-methylpropyl)-6-(trifluoromethyl)pyridine-3,5-dicarbothioate
Formula: C15H16F5NO2S2
Exact mass: 401.0543
SMILES: CC(C)CC1=C(C(=NC(=C1C(=O)SC)C(F)(F)F)C(F)F)C(=O)SC
InChI: InChI=1S/C15H16F5NO2S2/c1-6(2)5-7-8(13(22)24-3)10(12(16)17)21-11(15(18,19)20)9(7)14(23)25-4/h6,12H,5H2,1-4H3
Instrument: Exploris 240 Orbitrap Thermo Scientific
Instrument type: LC-ESI-QFT
Ms type: MS2
Ion mode: POSITIVE
Ionization: ESI
Fragmentation mode: HCD
Collision energy: 60 % (nominal)
Resolution: 17500
Column name: XBridge C18 3.5um, 2.1x50mm, Waters
Retention time: 12.694 min
Base peak: 334.1679
Precursor m/z: 402.0615
Precursor type: [M+H]+
m/z	relative intensity	assigned
61.0108	54	C2H5S+
74.9898	76	C2H3OS+
190.0469	105	C3H14F4S2+
196.0026	125	C9H4F2NS+
197.0107	74	C9H5F2NS+
198.0175	40	C6H4F4NO2+
199.045	54	C12H9NS+
210.0526	313	C11H7F3N+
216.0086	497	C6H10F2O2S2+
218.0211	68	C12H3F3N+
218.0436	130	C12H9FNS+
223.9977	999	C10H4F2NOS+
237.979	358	C10H5FNOS2+
240.0269	99	C11H5F3NO2+
244.004	855	C10H5F3NOS+
244.0354	47	C14H9FOS+
245.0117	291	C10H6F3NOS+
248.0339	948	C13H8F2NS+
251.9926	163	C11H4F2NO2S+
252.0281	96	C15H7FNS+
257.9853	40	C10H6F2NOS2+
264.0089	221	C13H5F3NS+
265.017	354	C13H6F3NS+
266.0449	354	C13H10F2NOS+
271.9992	963	C11H5F3NO2S+
273.0076	37	C11H6F3NO2S+
276.0294	167	C14H8F2NOS+
286.049	109	C13H15FO2S2+
288.0464	108	C13H10F4NS+
292.0048	232	C11H6F4NO2S+
296.0347	321	C14H9F3NOS+
312.0121	96	C11H7F5NO2S+
