Mass spectrum: Nateglinide; LC-ESI-QFT; MS2; CE: 30; R=35000; [M+H]+
Name: Nateglinide
Formula: C19H27NO3
Exact mass: 317.19909
SMILES: CC([C@H]1CC[C@@H](CC1)C(=O)N[C@@H](C(=O)O)CC2=CC=CC=C2)C
InChI: InChI=1S/C19H27NO3/c1-13(2)15-8-10-16(11-9-15)18(21)20-17(19(22)23)12-14-6-4-3-5-7-14/h3-7,13,15-17H,8-12H2,1-2H3,(H,20,21)(H,22,23)/t15-,16-,17-/m1/s1
Instrument: Q Exactive Orbitrap Thermo Scientific
Instrument type: LC-ESI-QFT
Ms type: MS2
Ion mode: POSITIVE
Ionization: ESI
Fragmentation mode: HCD
Collision energy: 30 (nominal)
Resolution: 35000
Column name: XBridge C18 3.5um, 2.1x50mm, Waters
Retention time: 13.7 min
Base peak: 318.2065
Precursor m/z: 318.2064
Precursor type: [M+H]+
m/z	relative intensity	assigned
57.0699	93	C4H9+
67.0542	52	C5H7+
69.0699	830	C5H9+
83.0855	389	C6H11+
103.0541	4	C8H7+
107.0491	1	C7H7O+
120.0808	964	C8H10N+
125.1325	999	C9H17+
131.0493	8	C9H7O+
149.0599	17	C9H9O2+
153.1274	13	C10H17O+
166.0863	821	C9H12NO2+
272.2012	14	C18H26NO+
300.1961	1	C19H26NO2+
318.2071	8	C19H28NO3+
