Mass spectrum: N-Nitrosodiphenylamine; LC-ESI-QFT; MS2; CE: 15; R=70000; [M+H]+
Name: N-Nitrosodiphenylamine
Name: N,N-diphenylnitrous amide
Formula: C12H10N2O
Exact mass: 198.07931
SMILES: O=NN(c1ccccc1)c2ccccc2
InChI: InChI=1S/C12H10N2O/c15-13-14(11-7-3-1-4-8-11)12-9-5-2-6-10-12/h1-10H
Instrument: Q Exactive Plus Orbitrap Thermo Scientific
Instrument type: LC-ESI-QFT
Ms type: MS2
Ion mode: POSITIVE
Ionization: ESI
Fragmentation mode: HCD
Collision energy: 15 (nominal)
Resolution: 70000
Column name: XBridge C18 3.5um, 2.1x50mm, Waters
Retention time: 10.1 min
Base peak: 199.0865
Precursor m/z: 199.0866
Precursor type: [M+H]+
m/z	relative intensity	assigned
66.0464	14	C5H6+
104.0494	12	C7H6N+
168.0809	22	C12H10N+
169.0886	999	C12H11N+
199.0867	35	C12H11N2O+
