Mass spectrum: Amisulpride N-Oxide; LC-ESI-QFT; MS2; CE: 45; R=35000; [M-H]-
Name: Amisulpride N-Oxide
Name: 4-amino-N-[(1-ethyl-1-oxidopyrrolidin-1-ium-2-yl)methyl]-5-ethylsulfonyl-2-methoxybenzamide
Formula: C17H27N3O5S
Exact mass: 385.16714
SMILES: CC[N+]1(CCCC1CNC(=O)C2=CC(=C(C=C2OC)N)S(=O)(=O)CC)[O-]
InChI: InChI=1S/C17H27N3O5S/c1-4-20(22)8-6-7-12(20)11-19-17(21)13-9-16(26(23,24)5-2)14(18)10-15(13)25-3/h9-10,12H,4-8,11,18H2,1-3H3,(H,19,21)
Instrument: Q Exactive Plus Orbitrap Thermo Scientific
Instrument type: LC-ESI-QFT
Ms type: MS2
Ion mode: NEGATIVE
Ionization: ESI
Fragmentation mode: HCD
Collision energy: 45 (nominal)
Resolution: 35000
Column name: XBridge C18 3.5um, 2.1x50mm, Waters
Retention time: 4.2 min
Base peak: 430.1652
Precursor m/z: 384.1599
Precursor type: [M-H]-
m/z	relative intensity	assigned
63.9625	188	O2S-
64.9703	4	HO2S-
66.035	2	C4H4N-
70.0663	9	C4H8N-
72.0092	27	C2H2NO2-
79.9574	21	O3S-
80.9652	3	HO3S-
81.022	4	C4H3NO-
82.0298	1	C4H4NO-
90.0349	1	C6H4N-
90.986	1	C2H3O2S-
92.0506	31	C6H6N-
93.0016	147	C2H5O2S-
94.0299	6	C5H4NO-
107.0376	54	C6H5NO-
108.0455	4	C6H6NO-
110.0248	5	C5H4NO2-
120.0455	14	C7H6NO-
122.0248	21	C6H4NO2-
122.0612	198	C7H8NO-
123.0327	1	C6H5NO2-
123.0564	2	C6H7N2O-
134.0248	7	C7H4NO2-
134.0613	2	C8H8NO-
135.0324	3	C7H5NO2-
136.0406	1	C7H6NO2-
137.0482	3	C7H7NO2-
138.0197	3	C6H4NO3-
139.0095	1	C6H5NOS-
141.0018	1	C6H5O2S-
143.0615	8	C9H7N2-
145.041	1	C8H5N2O-
147.0565	2	C8H7N2O-
148.0404	13	C8H6NO2-
148.077	4	C9H10NO-
150.0434	4	C7H6N2O2-
151.0513	19	C7H7N2O2-
151.0877	1	C8H11N2O-
152.0354	17	C7H6NO3-
155.0048	24	C6H5NO2S-
156.0127	356	C6H6NO2S-
158.028	1	C6H8NO2S-
159.0565	2	C9H7N2O-
161.0357	1	C8H5N2O2-
162.056	2	C9H8NO2-
163.0512	2	C8H7N2O2-
164.0353	4	C8H6NO3-
164.0591	5	C8H8N2O2-
165.067	19	C8H9N2O2-
166.0508	5	C8H8NO3-
170.9996	13	C6H5NO3S-
171.0566	3	C10H7N2O-
172.0643	3	C10H8N2O-
173.0719	1	C10H9N2O-
175.0514	2	C9H7N2O2-
177.0672	6	C9H9N2O2-
179.0462	3	C8H7N2O3-
180.0666	4	C9H10NO3-
184.0438	999	C8H10NO2S-
185.0153	4	C7H7NO3S-
185.072	4	C11H9N2O-
186.0231	885	C7H8NO3S-
189.0668	7	C10H9N2O2-
190.0748	36	C10H10N2O2-
191.0826	18	C10H11N2O2-
193.0621	3	C9H9N2O3-
197.9866	2	C7H4NO4S-
198.0231	8	C8H8NO3S-
199.0874	1	C12H11N2O-
200.0022	3	C7H6NO4S-
200.0387	3	C8H10NO3S-
202.075	1	C11H10N2O2-
203.0827	28	C11H11N2O2-
204.0904	15	C11H12N2O2-
205.0983	1	C11H13N2O2-
210.0106	3	C8H6N2O3S-
211.0181	2	C8H7N2O3S-
212.0024	9	C8H6NO4S-
212.0388	33	C9H10NO3S-
214.0544	107	C9H12NO3S-
216.0905	1	C12H12N2O2-
217.0622	2	C11H9N2O3-
217.0982	11	C12H13N2O2-
218.1065	3	C12H14N2O2-
219.0777	2	C11H11N2O3-
224.0262	1	C9H8N2O3S-
226.018	2	C9H8NO4S-
226.0544	15	C10H12NO3S-
227.0622	6	C10H13NO3S-
228.0335	9	C9H10NO4S-
229.029	4	C8H9N2O4S-
229.0405	1	C15H5N2O-
230.0937	7	C12H12N3O2-
231.0773	2	C12H11N2O3-
231.1013	6	C12H13N3O2-
231.114	7	C13H15N2O2-
232.1095	1	C12H14N3O2-
233.0934	4	C12H13N2O3-
235.0184	4	C10H7N2O3S-
236.0264	2	C10H8N2O3S-
236.0804	3	C11H12N2O4-
237.034	2	C10H9N2O3S-
239.0495	7	C10H11N2O3S-
240.0336	33	C10H10NO4S-
240.07	15	C11H14NO3S-
241.0291	6	C9H9N2O4S-
241.0416	8	C16H5N2O-
242.13	2	C14H16N3O-
243.0447	2	C9H11N2O4S-
244.0285	4	C9H10NO5S-
246.0884	3	C12H12N3O3-
246.1248	10	C13H16N3O2-
248.1041	17	C12H14N3O3-
249.0336	3	C11H9N2O3S-
251.0497	13	C11H11N2O3S-
253.0284	3	C16H3N3O-
253.0653	2	C11H13N2O3S-
254.0857	3	C12H16NO3S-
255.0445	15	C10H11N2O4S-
257.0604	1	C10H13N2O4S-
259.052	3	C10H13NO5S-
259.1325	7	C14H17N3O2-
260.1403	6	C14H18N3O2-
262.1196	5	C13H16N3O3-
264.0576	2	C12H12N2O3S-
264.0992	1	C12H14N3O4-
264.1358	4	C13H18N3O3-
265.0653	4	C12H13N2O3S-
267.0443	4	C11H11N2O4S-
268.052	4	C11H12N2O4S-
269.0603	18	C11H13N2O4S-
274.1198	2	C14H16N3O3-
274.1561	12	C15H20N3O2-
276.135	2	C14H18N3O3-
277.0653	5	C13H13N2O3S-
277.1433	18	C14H19N3O3-
278.0605	2	C12H12N3O3S-
281.0602	10	C12H13N2O4S-
281.0954	1	C13H17N2O3S-
282.068	28	C12H14N2O4S-
283.076	1	C12H15N2O4S-
287.0832	2	C12H17NO5S-
288.0419	4	C16H6N3O3-
291.159	1	C15H21N3O3-
292.1306	1	C14H18N3O4-
292.1659	3	C15H22N3O3-
293.1379	2	C14H19N3O4-
295.0759	21	C13H15N2O4S-
296.0835	10	C13H16N2O4S-
309.0915	27	C14H17N2O4S-
310.0867	5	C13H16N3O4S-
322.0872	3	C14H16N3O4S-
323.0931	1	C14H17N3O4S-
324.1024	5	C14H18N3O4S-
327.0901	1	C13H17N3O5S-
328.0974	42	C13H18N3O5S-
338.1183	8	C17H22O5S-
340.0976	6	C14H18N3O5S-
352.1341	7	C16H22N3O4S-
355.1204	1	C15H21N3O5S-
356.1286	30	C15H22N3O5S-
384.1599	2	C17H26N3O5S-
