Mass spectrum: Sarafloxacin; LC-ESI-QFT; MS2; CE: 75; R=35000; [M+H]+
Name: Sarafloxacin
Name: 6-fluoro-1-(4-fluorophenyl)-4-oxo-7-piperazin-1-ylquinoline-3-carboxylic acid
Formula: C20H17F2N3O3
Exact mass: 385.12380
SMILES: C1CN(CCN1)C2=C(C=C3C(=C2)N(C=C(C3=O)C(=O)O)C4=CC=C(C=C4)F)F
InChI: InChI=1S/C20H17F2N3O3/c21-12-1-3-13(4-2-12)25-11-15(20(27)28)19(26)14-9-16(22)18(10-17(14)25)24-7-5-23-6-8-24/h1-4,9-11,23H,5-8H2,(H,27,28)
Instrument: Q Exactive Plus Orbitrap Thermo Scientific
Instrument type: LC-ESI-QFT
Ms type: MS2
Ion mode: POSITIVE
Ionization: ESI
Fragmentation mode: HCD
Collision energy: 75 (nominal)
Resolution: 35000
Column name: XBridge C18 3.5um, 2.1x50mm, Waters
Retention time: 4.7 min
Base peak: 386.1304
Precursor m/z: 386.1311
Precursor type: [M+H]+
m/z	relative intensity	assigned
53.0022	2	C3HO+
53.0386	4	C4H5+
54.0338	2	C3H4N+
55.0179	2	C3H3O+
56.0495	179	C3H6N+
57.0573	5	C3H7N+
58.0651	58	C3H8N+
63.0229	4	C5H3+
65.0386	3	C5H5+
68.013	12	C3H2NO+
68.0494	50	C4H6N+
69.0448	3	C3H5N2+
70.0651	114	C4H8N+
71.0603	2	C3H7N2+
77.0385	4	C6H5+
80.0494	4	C5H6N+
83.0291	34	C5H4F+
83.0603	18	C4H7N2+
84.0682	5	C4H8N2+
85.0759	3	C4H9N2+
89.0385	88	C7H5+
90.0338	2	C6H4N+
90.0463	3	C7H6+
91.0543	12	C7H7+
92.0496	2	C6H6N+
94.0651	5	C6H8N+
95.0492	10	C6H7O+
97.0447	4	C6H6F+
98.04	2	C5H5FN+
102.0464	2	C8H6+
103.0542	51	C8H7+
104.0495	24	C7H6N+
105.0448	5	C6H5N2+
107.0292	94	C7H4F+
108.0244	3	C6H3FN+
108.037	23	C7H5F+
109.0448	217	C7H6F+
110.04	69	C6H5FN+
111.0476	3	C6H6FN+
113.0397	10	C6H6FO+
114.0339	5	C8H4N+
115.0416	2	C8H5N+
115.0542	32	C9H7+
116.0495	119	C8H6N+
117.0573	60	C8H7N+
118.0287	3	C7H4NO+
118.065	14	C8H8N+
119.0493	3	C8H7O+
120.037	12	C8H5F+
121.0448	84	C8H6F+
122.0401	101	C7H5FN+
123.0241	39	C7H4FO+
123.0353	38	C6H4FN2+
123.0479	14	C7H6FN+
123.0606	5	C8H8F+
124.0556	19	C7H7FN+
127.0543	2	C10H7+
128.0495	244	C9H6N+
129.0448	53	C8H5N2+
129.0573	13	C9H7N+
130.0651	128	C9H8N+
131.0604	50	C8H7N2+
132.0241	3	C8H3FN+
132.0442	3	C8H6NO+
133.0448	67	C9H6F+
134.0401	237	C8H5FN+
134.06	79	C8H8NO+
135.0479	137	C8H6FN+
136.0558	127	C8H7FN+
137.051	9	C7H6FN2+
137.0636	11	C8H8FN+
138.035	36	C7H5FNO+
138.0714	4	C8H9FN+
140.0496	17	C10H6N+
141.0448	4	C9H5N2+
141.0575	3	C10H7N+
142.0526	4	C9H6N2+
142.0651	26	C10H8N+
143.0604	26	C9H7N2+
143.073	17	C10H9N+
144.0443	16	C9H6NO+
144.0556	52	C8H6N3+
144.0682	3	C9H8N2+
144.0808	16	C10H10N+
145.0763	3	C9H9N2+
146.0401	75	C9H5FN+
146.0602	10	C9H8NO+
147.0241	30	C9H4FO+
147.0479	23	C9H6FN+
148.0557	632	C9H7FN+
149.0397	3	C4H5F2N3O+
149.0511	32	C8H6FN2+
149.0635	14	C9H8FN+
150.0351	29	C8H5FNO+
150.0589	4	C8H7FN2+
150.0713	19	C9H9FN+
151.0426	3	C8H6FNO+
151.0667	13	C8H8FN2+
152.0507	102	C8H7FNO+
153.0447	4	C10H5N2+
154.0655	16	C11H8N+
155.0604	262	C10H7N2+
156.0444	57	C10H6NO+
156.0551	4	C9H6N3+
156.0683	46	C10H8N2+
157.045	2	C11H6F+
157.0762	14	C10H9N2+
158.0402	55	C10H5FN+
158.0597	4	C10H8NO+
158.0839	12	C10H10N2+
159.0486	3	C10H6FN+
159.0553	11	C9H7N2O+
159.0918	8	C10H11N2+
160.0433	28	C9H5FN2+
160.0557	23	C10H7FN+
161.0511	58	C9H6FN2+
161.0635	11	C10H8FN+
162.0351	62	C9H5FNO+
162.0461	24	C8H5FN3+
162.0714	36	C10H9FN+
163.0427	5	C9H6FNO+
163.0667	5	C9H8FN2+
164.0506	67	C9H7FNO+
165.0709	2	C5H9F2N3O+
166.0659	3	C9H9FNO+
167.0606	4	C11H7N2+
168.0445	3	C11H6NO+
168.0558	5	C10H6N3+
168.0685	4	C11H8N2+
169.076	64	C11H9N2+
170.0716	17	C10H8N3+
170.0841	3	C11H10N2+
171.0917	251	C11H11N2+
172.0557	5	C11H7FN+
173.051	78	C10H6FN2+
174.0589	400	C10H7FN2+
175.0667	138	C10H8FN2+
176.0506	53	C10H7FNO+
176.0745	15	C10H9FN2+
177.0462	9	C9H6FN2O+
177.0699	11	C14H9+
177.0822	3	C10H10FN2+
178.0535	2	C9H7FN2O+
178.0658	8	C13H8N+
179.0614	13	C9H8FN2O+
180.0456	166	C9H7FNO2+
181.0449	2	C13H6F+
182.0526	3	C13H7F+
182.0713	3	C11H8N3+
182.0839	16	C12H10N2+
183.0608	149	C13H8F+
184.0557	36	C12H7FN+
184.0634	28	C11H8N2O+
185.0511	42	C11H6FN2+
185.0637	14	C12H8FN+
185.071	2	C11H9N2O+
186.0475	4	C12H7FO+
186.0588	71	C11H7FN2+
186.0717	11	C12H9FN+
187.0668	13	C11H8FN2+
188.0431	8	C12H6F2+
188.0506	13	C11H7FNO+
188.0742	35	C11H9FN2+
189.0455	16	C10H6FN2O+
189.0823	321	C11H10FN2+
190.0652	57	C14H8N+
191.0613	18	C10H8FN2O+
191.0734	4	C14H9N+
191.098	16	C11H12FN2+
192.0455	3	C10H7FNO2+
194.061	22	C10H9FNO2+
195.048	6	C13H6FN+
195.0568	13	C9H8FN2O2+
196.0558	23	C13H7FN+
196.0685	11	C14H9F+
196.0866	4	C12H10N3+
197.0512	3	C12H6FN2+
197.0633	5	C13H8FN+
197.0761	13	C14H10F+
198.0726	28	C10H10F2NO+
200.0427	3	C13H6F2+
201.0511	168	C13H7F2+
201.0654	67	C11H9N2O2+
202.046	22	C12H6F2N+
202.0541	9	C11H7FN2O+
203.0616	226	C11H8FN2O+
204.0375	3	C12H6F2O+
204.0457	11	C11H7FNO2+
204.0616	3	C12H8F2N+
204.0709	2	C8H10F2N2O2+
204.0808	26	C15H10N+
205.0769	10	C11H10FN2O+
207.0474	4	C14H6FN+
207.0574	25	C7H9F2N2O3+
208.0558	168	C14H7FN+
209.0637	403	C14H8FN+
210.0715	141	C14H9FN+
211.0792	57	C14H10FN+
212.0505	11	C13H7FNO+
214.046	8	C13H6F2N+
214.0574	2	C6H8N5O4+
214.066	11	C13H9FNO+
215.0531	15	C13H7F2N+
216.0619	55	C13H8F2N+
217.0775	4	C12H10FN2O+
219.0565	14	C11H8FN2O2+
220.0561	11	C15H7FN+
221.0631	17	C15H8FN+
221.0724	40	C11H10FN2O2+
222.0714	142	C15H9FN+
223.0668	115	C14H8FN2+
223.0793	41	C15H10FN+
224.0513	8	C11H8F2NO2+
224.0746	29	C14H9FN2+
224.0872	99	C15H11FN+
225.0822	36	C14H10FN2+
226.0464	51	C14H6F2N+
226.0662	17	C14H9FNO+
226.0894	19	C14H11FN2+
227.0542	419	C14H7F2N+
228.062	223	C14H8F2N+
229.0698	514	C14H9F2N+
230.0403	4	C13H6F2NO+
230.0652	29	C13H8F2N2+
230.0777	19	C14H10F2N+
231.0487	12	C13H7F2NO+
231.0732	15	C13H9F2N2+
231.0914	18	C16H11N2+
232.0566	12	C16H7FN+
233.0636	11	C16H8FN+
234.0587	15	C15H7FN2+
234.0716	56	C16H9FN+
235.0667	41	C15H8FN2+
235.0795	37	C16H10FN+
236.0517	24	C12H8F2NO2+
236.0623	11	C19H8+
236.0746	77	C15H9FN2+
236.087	18	C16H11FN+
237.0589	49	C15H8FNO+
237.0823	263	C15H10FN2+
238.0464	10	C15H6F2N+
238.0665	145	C15H9FNO+
239.0539	60	C15H7F2N+
239.0729	21	
239.0973	7	C15H12FN2+
240.062	170	C15H8F2N+
240.0821	11	C15H11FNO+
241.0571	21	C14H7F2N2+
241.07	47	C15H9F2N+
242.0651	32	C14H8F2N2+
242.0777	136	C15H10F2N+
243.0725	50	C14H9F2N2+
244.0566	19	C14H8F2NO+
244.0806	320	C14H10F2N2+
245.0648	138	C14H9F2NO+
246.0601	3	C13H8F2N2O+
246.0727	9	C14H10F2NO+
246.0964	20	C14H12F2N2+
247.0667	28	C16H8FN2+
248.0745	36	C16H9FN2+
248.0871	9	C17H11FN+
249.0698	22	C20H9+
249.0822	148	C16H10FN2+
250.0668	17	C16H9FNO+
250.0901	218	C16H11FN2+
251.0619	12	C12H9F2N2O2+
251.0741	28	C16H10FNO+
251.0856	34	C20H11+
251.0981	71	C16H12FN2+
252.0693	16	C15H9FN2O+
252.0821	53	C16H11FNO+
252.0934	10	C20H12+
253.0561	5	C15H7F2N2+
253.0699	43	C16H9F2N+
254.0411	10	C15H6F2NO+
254.065	60	C15H8F2N2+
254.0778	29	C16H10F2N+
255.0494	115	C15H7F2NO+
255.0729	999	C15H9F2N2+
256.057	721	C15H8F2NO+
256.0782	89	C12H12F2NO3+
257.0647	284	C15H9F2NO+
257.0869	75	C12H13F2NO3+
258.0724	119	C15H10F2NO+
259.0441	20	C14H7F2NO2+
259.0675	25	C14H9F2N2O+
259.0864	9	C17H11N2O+
260.0747	68	C17H9FN2+
261.0697	5	C16H8FN3+
261.0822	98	C17H10FN2+
262.0656	4	C20H8N+
262.0774	53	C16H9FN3+
262.0905	25	C17H11FN2+
263.0617	19	C16H8FN2O+
263.0854	180	C16H10FN3+
263.0982	63	C17H12FN2+
264.072	22	
264.0933	202	C16H11FN3+
264.1058	28	C17H13FN2+
265.0565	5	C16H7F2N2+
265.0775	64	C16H10FN2O+
265.101	24	C16H12FN3+
265.1138	19	C17H14FN2+
266.1092	17	C16H13FN3+
267.0731	78	C16H9F2N2+
267.0931	34	C16H12FN2O+
268.0576	17	C16H8F2NO+
268.0804	52	C16H10F2N2+
269.0885	238	C16H11F2N2+
270.0595	39	C15H8F2N2O+
270.0727	107	C16H10F2NO+
270.0963	612	C16H12F2N2+
271.0437	10	C15H7F2NO2+
271.0673	149	C15H9F2N2O+
271.0806	168	C16H11F2NO+
271.1046	16	C16H13F2N2+
272.0754	56	C15H10F2N2O+
272.0884	57	C16H12F2NO+
272.1173	7	C18H14N3+
273.0834	234	C15H11F2N2O+
274.0773	12	C17H9FN3+
274.09	7	C18H11FN2+
275.0852	19	C17H10FN3+
275.0983	14	C18H12FN2+
276.0932	97	C17H11FN3+
277.0775	33	C14H11F2N2O2+
277.101	76	C17H12FN3+
278.0716	5	C16H9FN3O+
278.0851	44	C17H11FN2O+
278.109	11	C17H13FN3+
279.0736	19	C17H9F2N2+
279.0929	331	C17H12FN2O+
280.0778	2	C14H12F2NO3+
280.0883	14	C16H11FN3O+
281.0519	11	C16H7F2N2O+
281.0886	167	C17H11F2N2+
282.0364	9	C16H6F2NO2+
282.0593	11	C19H7FN2+
282.0725	58	C17H10F2NO+
282.0962	4	C17H12F2N2+
283.0677	177	C16H9F2N2O+
283.1031	9	C17H13F2N2+
284.0529	17	C16H8F2NO2+
284.0755	77	C16H10F2N2O+
285.0834	408	C16H11F2N2O+
286.0912	4	C16H12F2N2O+
287.039	23	C15H7F2NO3+
289.0545	112	C15H9F2NO3+
290.0724	18	C17H9FN3O+
290.1088	36	C18H13FN3+
291.0933	32	C18H12FN2O+
291.1165	59	C18H14FN3+
292.0881	196	C14H12F2N3O2+
292.1241	56	C18H15FN3+
293.0725	9	C17H10FN2O2+
294.1037	26	C17H13FN3O+
296.0755	3	C17H10F2N2O+
297.0835	200	C17H11F2N2O+
298.0553	16	C16H8F2N2O2+
299.0992	536	C20H12FN2+
302.0621	4	C16H10F2NO3+
302.1096	10	C19H13FN3+
304.0877	28	C18H11FN3O+
304.1242	15	C19H15FN3+
305.0731	16	C15H11F2N2O3+
305.0952	5	C18H12FN3O+
306.1041	34	C18H13FN3O+
309.0835	10	C18H11F2N2O+
310.1154	4	C18H14F2N3+
311.0626	96	C20H8FN2O+
312.1306	3	C18H16F2N3+
316.0656	12	C16H10F2N2O3+
318.067	13	C18H9FN3O2+
318.1029	23	C19H13FN3O+
319.1125	4	C19H14FN3O+
320.083	146	C18H11FN3O2+
320.1197	41	C19H15FN3O+
323.0836	8	C18H12FN2O3+
324.1305	20	C19H16F2N3+
325.0784	32	C18H11F2N2O2+
329.0734	74	C17H11F2N2O3+
338.0936	115	C18H13FN3O3+
340.1261	2	C19H16F2N3O+
343.0885	4	C18H13F2N2O3+
348.1145	30	C20H15FN3O2+
352.1083	2	C19H15FN3O3+
366.125	32	C20H17FN3O3+
368.1202	18	C20H16F2N3O2+
386.1313	32	C20H18F2N3O3+
