Mass spectrum: Lauroyl Lysine; LC-ESI-QFT; MS2; CE: 120%; R=17500; [M+H]+
Name: Lauroyl Lysine
Name: N6-Dodecanoyllysine
Name: 2-amino-6-(dodecanoylamino)hexanoic acid
Formula: C18H36N2O3
Exact mass: 328.2726
SMILES: CCCCCCCCCCCC(=O)NCCCCC(C(=O)O)N
InChI: InChI=1S/C18H36N2O3/c1-2-3-4-5-6-7-8-9-10-14-17(21)20-15-12-11-13-16(19)18(22)23/h16H,2-15,19H2,1H3,(H,20,21)(H,22,23)
Instrument: Exploris 240 Orbitrap Thermo Scientific
Instrument type: LC-ESI-QFT
Ms type: MS2
Ion mode: POSITIVE
Ionization: ESI
Fragmentation mode: HCD
Collision energy: 120 % (nominal)
Resolution: 17500
Column name: XBridge C18 3.5um, 2.1x50mm, Waters
Retention time: 12.161 min
Base peak: 329.2798
Precursor m/z: 329.2799
Precursor type: [M+H]+
m/z	relative intensity	assigned
55.0542	63	C4H7+
56.0495	324	C3H6N+
57.0699	80	C4H9+
65.0385	8	C5H5+
67.0543	88	C5H7+
69.0573	9	C4H7N+
79.0542	7	C6H7+
81.0699	12	C6H9+
82.0651	7	C5H8N+
84.0808	999	C5H10N+
95.0855	4	C7H11+
