Mass spectrum: Fipronil-TP RPA 200761; LC-ESI-QFT; MS2; CE: 120%; R=17500; [M+H]+
Name: Fipronil-TP RPA 200761
Name: 5-amino-1-[2,6-dichloro-4-(trifluoromethyl)phenyl]-4-(trifluoromethylsulfinyl)pyrazole-3-carboxylic acid
Formula: C12H5Cl2F6N3O3S
Exact mass: 454.9333
SMILES: NC1=C(C(=NN1C1=C(Cl)C=C(C=C1Cl)C(F)(F)F)C(O)=O)S(=O)C(F)(F)F
InChI: InChI=1S/C12H5Cl2F6N3O3S/c13-4-1-3(11(15,16)17)2-5(14)7(4)23-9(21)8(6(22-23)10(24)25)27(26)12(18,19)20/h1-2H,21H2,(H,24,25)
Instrument: Q Exactive Plus Orbitrap Thermo Scientific
Instrument type: LC-ESI-QFT
Ms type: MS2
Ion mode: POSITIVE
Ionization: ESI
Fragmentation mode: HCD
Collision energy: 120 % (nominal)
Resolution: 17500
Column name: XBridge C18 3.5um, 2.1x50mm, Waters
Retention time: 8.085 min
Base peak: 455.9408
Precursor m/z: 455.9406
Precursor type: [M+H]+
m/z	relative intensity	assigned
59.9902	8	CH2NS+
61.9792	62	CHClN+
62.97	18	CFS+
62.9871	22	CH2ClN+
63.9851	25	H2NOS+
66.9746	5	CHClF+
68.9794	11	C3HS+
68.9947	167	CF3+
69.9746	153	C2NS+
75.0041	23	C3HF2+
78.9403	5	CClS+
81.0135	26	C5H2F+
82.0088	11	C4HFN+
84.9652	28	CClF2+
86.9698	14	C3FS+
87.0103	9	C6HN+
88.0181	55	C6H2N+
90.9745	26	C3HClF+
92.9948	10	C3F3+
96.9839	15	C5H2Cl+
97.979	8	C4HClN+
99.0045	6	C5HF2+
99.9994	10	C4F2N+
100.018	7	C7H2N+
105.9871	38	C6H2S+
106.0089	42	C6HFN+
108.9652	12	C3ClF2+
110.9701	10	C5FS+
113.0133	9	C7HN2+
114.9744	13	ClF2N3+
121.9793	85	C6HClN+
123.9947	49	C6H3ClN+
125.0035	5	C6H2FO2+
125.0133	15	F5H2N2+
131.0102	43	C6H2F3+
132.0182	57	C6H3F3+
133.9791	10	C7HClN+
134.9806	5	ClF3HN3+
137.0071	54	C7HF2N+
138.0144	13	C7H2F2N+
139.0225	11	C7H3F2N+
141.964	13	ClF3H2O3+
141.9855	45	C6H2ClFN+
142.9452	7	
142.9941	22	C6HF2O2+
143.0104	158	C7H2F3+
144.9651	11	C6ClF2+
145.9727	12	CClF3N3+
150.0152	15	C8H2F2N+
150.9509	11	Cl2F2HN3+
154.9759	13	C2F3N3S+
156.0059	9	C7HF3N+
157.0134	999	C7H2F3N+
157.9933	17	C8H2N2S+
158.0214	40	C7H3F3N+
158.9643	44	C6HClFO2+
158.9806	60	C2HClF3N3+
161.9975	5	C11NO+
164.018	12	C8H2F2N2+
165.0254	11	C8H3F2N2+
165.9791	710	C6H2ClF3+
166.0215	14	
166.9592	25	CHClF3NO3+
166.987	13	C6H3ClF3+
168.0054	37	C8HF3N+
169.0132	20	C8H2F3N+
170.0039	22	C10HFNO+
170.0212	18	C8H3F3N+
171.9757	33	C4H6ClFO2S+
172.9838	175	C7H2ClF2N+
173.9919	23	C2F4N3O2+
174.9825	137	CHF6O3+
175.0098	9	C6H6FNO2S+
175.9902	6	C7H3F3S+
176.0186	5	C9H2F2N2+
176.9717	43	C7HClF3+
176.9869	7	ClF4H6N2S+
177.9622	15	C6H3Cl2FN+
177.9791	31	C7H2ClF3+
178.9699	26	C6H4Cl2FN+
178.9868	40	C2H2ClF4N3+
181.0133	37	C9H2F3N+
183.9759	16	C8HClF2N+
184.0113	12	C4H6F2N2O2S+
185.0315	13	C8H4F3N2+
185.9744	20	C3F4N3S+
186.0158	17	C8H3F3NO+
187.0238	13	C8H4F3NO+
191.982	79	C7H2ClF3N+
192.0265	8	C7H5F3NO2+
192.9902	119	C7H3ClF3N+
193.9698	20	ClF5H4N2S+
194.9812	11	C10H2ClF2+
195.0165	140	C9H2F3N2+
196.0234	15	C9H3F3N2+
199.9823	57	C12H2ClF+
200.948	76	C6H2Cl2F3+
200.9856	19	C10FNO3+
201.0023	31	C11HF2NO+
201.9885	6	C11H3FOS+
203.9823	152	C8H2ClF3N+
206.9821	11	C9HF2N2S+
207.952	19	C2H3ClF2N2O3S+
208.9477	17	C3H6Cl2FNO2S+
209.9683	47	C7H4Cl2F2N+
209.9897	7	C5H6ClFN3OS+
210.9867	35	C9H2ClF2N2+
212.9481	55	C7H2Cl2F3+
215.9482	16	C2ClF5NO3+
215.9821	14	C9H2ClF3N+
220.0007	23	C11HF3NO+
222.0276	9	C10H3F3N3+
223.0345	20	C10H4F3N3+
226.9885	100	C9H2F3N2S+
227.9586	16	C10ClF3O+
230.9931	33	C9H3ClF3N2+
236.961	10	C5HClF5NO2+
242.9585	29	C8H4Cl2F3O+
245.9695	11	C7H5Cl2F3NO+
249.0029	20	C12H4ClF2N2+
258.0039	6	C10H4ClF3N3+
262.9649	7	C8H5Cl2F4O+
