Mass spectrum: Niclosamide; LC-ESI-QFT; MS2; CE: 60; R=35000; [M+H]+
Name: Niclosamide
Name: 5-chloro-N-(2-chloro-4-nitrophenyl)-2-hydroxybenzamide
Formula: C13H8Cl2N2O4
Exact mass: 325.98611
SMILES: C1=CC(=C(C=C1[N+](=O)[O-])Cl)NC(=O)C2=C(C=CC(=C2)Cl)O
InChI: InChI=1S/C13H8Cl2N2O4/c14-7-1-4-12(18)9(5-7)13(19)16-11-3-2-8(17(20)21)6-10(11)15/h1-6,18H,(H,16,19)
Instrument: Q Exactive Orbitrap Thermo Scientific
Instrument type: LC-ESI-QFT
Ms type: MS2
Ion mode: POSITIVE
Ionization: ESI
Fragmentation mode: HCD
Collision energy: 60 (nominal)
Resolution: 35000
Column name: XBridge C18 3.5um, 2.1x50mm, Waters
Retention time: 15.6 min
Base peak: 149.0234
Precursor m/z: 326.9934
Precursor type: [M+H]+
m/z	relative intensity	assigned
67.0542	1	C5H7+
72.9839	1	C3H2Cl+
77.0152	4	C3H6Cl+
80.9735	1	CH2ClO2+
81.0698	1	C6H9+
93.07	1	C7H9+
95.0491	2	C6H7O+
97.0649	1	C6H9O+
98.9842	999	CH4ClO3+
126.9944	7	C6H4ClO+
127.0182	13	C6H6ClN+
131.9973	1	C5H5ClO2+
145.0051	7	C6H6ClO2+
152.0621	3	C12H8+
153.07	1	C12H9+
154.9894	105	C7H4ClO2+
155.0004	5	C9HNO2+
156.0084	1	C6H5ClN2O+
233.036	1	C11H8ClN3O+
