Mass spectrum: Cefazolin; LC-ESI-QFT; MS2; CE: 30; R=35000; [M+H]+
Name: Cefazolin
Name: 3-[(5-methyl-1,3,4-thiadiazol-2-yl)sulfanylmethyl]-8-oxo-7-[[2-(tetrazol-1-yl)acetyl]amino]-5-thia-1-azabicyclo[4.2.0]oct-2-ene-2-carboxylic acid
Formula: C14H14N8O4S3
Exact mass: 454.03001
SMILES: CC1=NN=C(S1)SCC2=C(N3C(C(C3=O)NC(=O)CN4C=NN=N4)SC2)C(=O)O
InChI: InChI=1S/C14H14N8O4S3/c1-6-17-18-14(29-6)28-4-7-3-27-12-9(11(24)22(12)10(7)13(25)26)16-8(23)2-21-5-15-19-20-21/h5,9,12H,2-4H2,1H3,(H,16,23)(H,25,26)
Instrument: Q Exactive Plus Orbitrap Thermo Scientific
Instrument type: LC-ESI-QFT
Ms type: MS2
Ion mode: POSITIVE
Ionization: ESI
Fragmentation mode: HCD
Collision energy: 30 (nominal)
Resolution: 35000
Column name: XBridge C18 3.5um, 2.1x50mm, Waters
Retention time: 4.5 min
Base peak: 455.0367
Precursor m/z: 455.0373
Precursor type: [M+H]+
m/z	relative intensity	assigned
53.0385	1	C4H5+
54.0338	1	C3H4N+
55.0291	10	C2H3N2+
56.0494	1	C3H6N+
57.0448	32	C2H5N2+
58.995	1	C2H3S+
59.9903	1	CH2NS+
62.0059	1	CH4NS+
65.0387	1	C5H5+
66.0338	1	C4H4N+
68.0495	24	C4H6N+
69.0448	35	C3H5N2+
70.065	1	C4H8N+
71.0353	36	CH3N4+
72.0556	14	C2H6N3+
73.0396	4	C2H5N2O+
74.0059	6	C2H4NS+
80.0495	27	C5H6N+
81.0448	6	C4H5N2+
81.0573	1	C5H7N+
82.0288	1	C4H4NO+
82.0651	3	C5H8N+
83.024	3	C3H3N2O+
84.0557	47	C3H6N3+
84.9743	4	C3HOS+
85.0107	66	C4H5S+
85.0397	54	C3H5N2O+
86.0059	9	C3H4NS+
87.0263	1	C4H7S+
89.0169	1	C2H5N2S+
92.0495	3	C6H6N+
93.0449	1	C5H5N2+
93.0576	1	C6H7N+
94.0401	4	C4H4N3+
94.0652	1	C6H8N+
95.0605	15	C5H7N2+
96.0557	111	C4H6N3+
97.0107	29	C5H5S+
97.0397	16	C4H5N2O+
98.006	4	C4H4NS+
98.0237	8	C4H4NO2+
98.035	7	C3H4N3O+
98.0476	6	C4H6N2O+
99.0015	1	C3H3N2S+
99.0138	3	C4H5NS+
99.0263	4	C5H7S+
100.0216	69	C4H6NS+
100.0506	225	C3H6N3O+
101.0169	7	C3H5N2S+
102.0009	3	C3H4NOS+
102.0372	1	C4H8NS+
105.0447	1	C6H5N2+
106.0527	7	C6H6N2+
107.0605	66	C6H7N2+
108.0444	4	C6H6NO+
108.0557	3	C5H6N3+
108.0683	28	C6H8N2+
109.0509	1	C4H5N4+
109.0762	8	C6H9N2+
110.0059	1	C5H4NS+
110.035	11	C4H4N3O+
110.0602	1	C6H8NO+
111.0013	3	C4H3N2S+
111.0427	4	C4H5N3O+
111.0554	14	C5H7N2O+
111.0667	1	C4H7N4+
112.0216	143	C5H6NS+
112.0394	67	C5H6NO2+
112.0506	40	C4H6N3O+
113.0056	1	C5H5OS+
113.0169	15	C4H5N2S+
113.0295	15	C5H7NS+
113.0585	5	C4H7N3O+
114.0008	1	C4H4NOS+
114.0122	1	C3H4N3S+
114.0247	6	C4H6N2S+
114.0373	18	C5H8NS+
116.0278	3	C3H6N3S+
117.0117	1	C3H5N2OS+
118.0526	1	C7H6N2+
119.0605	25	C7H7N2+
120.0683	81	C7H8N2+
121.0762	6	C7H9N2+
122.0059	9	C6H4NS+
122.035	3	C5H4N3O+
122.0714	5	C6H8N3+
123.0137	1	C6H5NS+
124.0217	248	C6H6NS+
124.0507	81	C5H6N3O+
125.0057	4	C6H5OS+
125.017	3	C5H5N2S+
126.001	18	C5H4NOS+
126.0121	12	C4H4N3S+
126.0373	49	C6H8NS+
126.9962	1	C4H3N2OS+
127.02	18	C4H5N3S+
127.0326	4	C5H7N2S+
128.0167	4	C5H6NOS+
128.0278	86	C4H6N3S+
129.0006	11	C5H5O2S+
129.0117	20	C4H5N2OS+
129.0354	5	C4H7N3S+
130.0196	8	C4H6N2OS+
132.0558	6	C7H6N3+
132.989	325	C3H5N2S2+
134.0713	22	C7H8N3+
135.0553	4	C7H7N2O+
135.0793	1	C7H9N3+
136.0218	10	CH12O3S2+
136.0393	1	C7H6NO2+
136.0507	4	C6H6N3O+
136.087	7	C7H10N3+
137.0171	5	C6H5N2S+
137.0347	1	C6H5N2O2+
138.0374	3	C7H8NS+
138.0663	4	C6H8N3O+
139.0326	175	C6H7N2S+
140.0166	23	C6H6NOS+
140.028	9	C5H6N3S+
140.0403	4	C6H8N2S+
140.0454	27	C5H6N3O2+
141.0118	4	C5H5N2OS+
141.0482	72	C6H9N2S+
142.0319	1	C6H8NOS+
144.0115	32	C5H6NO2S+
145.0635	4	C8H7N3+
146.0716	7	C8H8N3+
147.0555	1	C8H7N2O+
147.0667	3	C7H7N4+
147.0793	22	C8H9N3+
148.0505	1	C7H6N3O+
148.0632	1	C8H8N2O+
148.0744	4	C7H8N4+
149.0824	15	C7H9N4+
150.001	1	C7H4NOS+
150.0245	3	C7H6N2S+
150.0662	5	C7H8N3O+
151.0326	112	C7H7N2S+
151.0502	7	C7H7N2O2+
152.0166	88	C7H6NOS+
152.0456	5	C6H6N3O2+
153.0483	402	C7H9N2S+
154.0071	14	C5H4N3OS+
154.032	1	C7H8NOS+
154.0433	5	C6H8N3S+
155.0149	4	C5H5N3OS+
155.0275	1	C6H7N2OS+
156.0115	999	C6H6NO2S+
156.0224	58	
157.0194	47	C6H7NO2S+
157.0304	37	C5H7N3OS+
158.0272	54	C6H8NO2S+
159.0224	1	C5H7N2O2S+
160.0507	1	C8H6N3O+
161.0823	52	C8H9N4+
162.0664	36	C8H8N3O+
162.0902	31	C8H10N4+
163.0326	35	C8H7N2S+
164.0167	1	C8H6NOS+
164.0282	3	CH12N2O3S2+
164.0821	7	C8H10N3O+
165.0356	1	C7H7N3S+
166.0436	253	C7H8N3S+
167.0276	28	C7H7N2OS+
168.0116	39	C7H6NO2S+
168.0225	12	C6H6N3OS+
168.0517	2	C5H6N5O2+
168.0591	15	C7H10N3S+
169.0433	8	C7H9N2OS+
170.0273	5	C7H8NO2S+
173.0584	4	C9H7N3O+
175.0617	1	C8H7N4O+
176.0456	1	C8H6N3O2+
177.0774	8	C8H9N4O+
178.0435	203	C8H8N3S+
179.0276	63	C8H7N2OS+
180.0592	57	C8H10N3S+
181.0431	24	C2H15NO4S2+
182.0384	6	C7H8N3OS+
183.0225	7	C7H7N2O2S+
184.018	11	C14H2N+
185.038	15	C7H9N2O2S+
189.0773	15	C9H9N4O+
190.0612	1	C9H8N3O2+
190.085	28	C9H10N4O+
192.0227	17	C8H6N3OS+
193.0066	8	C8H5N2O2S+
193.0545	39	C8H9N4S+
193.0722	5	C8H9N4O2+
194.0385	16	C8H8N3OS+
195.0224	49	C8H7N2O2S+
195.0701	30	C8H11N4S+
196.0541	16	C8H10N3OS+
197.0382	28	C8H9N2O2S+
205.0724	10	C9H9N4O2+
206.0385	80	C9H8N3OS+
207.0225	34	C9H7N2O2S+
208.0541	45	C9H10N3OS+
209.0379	1	C9H9N2O2S+
210.0334	35	C8H8N3O2S+
221.0494	32	C9H9N4OS+
222.0332	7	C9H8N3O2S+
223.065	46	C9H11N4OS+
224.049	7	C9H10N3O2S+
225.033	14	C2H9N8OS2+
233.0671	8	C10H9N4O3+
234.0341	1	C12H10O3S+
234.0745	1	C10H10N4O3+
239.0597	5	C9H11N4O2S+
249.0443	11	C10H9N4O2S+
250.0286	2	C10H8N3O3S+
251.0708	2	C9H11N6OS+
252.044	245	C10H10N3O3S+
267.0551	17	C10H11N4O3S+
270.0001	3	C9H8N3O3S2+
295.0611	150	C10H11N6O3S+
323.0561	16	C11H11N6O4S+
