Mass spectrum: Fludioxonil; LC-ESI-ITFT; MS2; CE: 60%; R=7500; [M-H]-
Name: Fludioxonil
Name: 4-(2,2-difluoro-1,3-benzodioxol-4-yl)-1H-pyrrole-3-carbonitrile
Formula: C12H6F2N2O2
Exact mass: 248.0397
SMILES: C1(Oc2c(cccc2O1)c1c(c[nH]c1)C#N)(F)F
InChI: InChI=1S/C12H6F2N2O2/c13-12(14)17-10-3-1-2-8(11(10)18-12)9-6-16-5-7(9)4-15/h1-3,5-6,16H
Instrument: LTQ Orbitrap XL Thermo Scientific
Instrument type: LC-ESI-ITFT
Ms type: MS2
Ion mode: NEGATIVE
Ionization: ESI
Fragmentation mode: HCD
Collision energy: 60 % (nominal)
Resolution: 7500
Column name: XBridge C18 3.5um, 2.1x50mm, Waters
Retention time: 10.7 min
Base peak: 247.0324
Precursor m/z: 247.0325
Precursor type: [M-H]-
m/z	relative intensity	assigned
126.0348	182	C9H4N-
151.0304	56	C10H3N2-
153.0451	43	C10H5N2-
169.0411	49	C10H5N2O-
180.0331	217	C11H4N2O-
181.0407	226	C11H5N2O-
197.0358	67	C11H5N2O2-
199.032	27	C11H4FN2O-
247.0325	999	C12H5F2N2O2-
