Mass spectrum: Citalopram; LC-ESI-ITFT; MS2; CE: 35%; R=30000; [M+H]+
Name: Citalopram
Name: 1-[3-(dimethylamino)propyl]-1-(4-fluorophenyl)-3H-2-benzofuran-5-carbonitrile
Formula: C20H21FN2O
Exact mass: 324.1638
SMILES: Fc1ccc(cc1)C3(OCc2cc(C#N)ccc23)CCCN(C)C
InChI: InChI=1S/C20H21FN2O/c1-23(2)11-3-10-20(17-5-7-18(21)8-6-17)19-9-4-15(13-22)12-16(19)14-24-20/h4-9,12H,3,10-11,14H2,1-2H3
Instrument: LTQ Orbitrap XL Thermo Scientific
Instrument type: LC-ESI-ITFT
Ms type: MS2
Ion mode: POSITIVE
Ionization: ESI
Fragmentation mode: CID
Collision energy: 35 % (nominal)
Resolution: 30000
Column name: XBridge C18 3.5um, 2.1x50mm, Waters
Retention time: 6.6 min
Base peak: 325.1719
Precursor m/z: 325.1711
Precursor type: [M+H]+
m/z	relative intensity	assigned
109.0448	300	C7H6F+
116.0494	71	C8H6N+
123.024	8	C7H4FO+
125.0395	1	C7H6FO+
130.0653	1	C9H8N+
144.0443	4	C9H6NO+
156.0807	24	C11H10N+
159.0604	5	C11H8F+
166.065	39	C12H8N+
168.0809	2	C12H10N+
184.0755	10	C12H10NO+
221.0633	7	C15H8FN+
222.0713	3	C15H9FN+
224.0868	7	C15H11FN+
234.0711	41	C16H9FN+
235.0914	8	C17H12F+
236.0868	8	C16H11FN+
238.066	7	C15H9FNO+
242.0962	7	C18H12N+
247.0791	6	C17H10FN+
250.1024	12	C17H13FN+
260.0865	2	C18H11FN+
262.1026	999	C18H13FN+
280.113	233	C18H15FNO+
307.1602	152	C20H20FN2+
