Mass spectrum: Bromacil; LC-ESI-ITFT; MS2; CE: 60%; R=15000; [M+H]+
Name: Bromacil
Name: Bromazil
Name: 5-bromanyl-3-butan-2-yl-6-methyl-1H-pyrimidine-2,4-dione
Formula: C9H13BrN2O2
Exact mass: 260.0155
SMILES: O=C1C(\Br)=C(/NC(=O)N1C(CC)C)C
InChI: InChI=1S/C9H13BrN2O2/c1-4-5(2)12-8(13)7(10)6(3)11-9(12)14/h5H,4H2,1-3H3,(H,11,14)
Instrument: LTQ Orbitrap XL Thermo Scientific
Instrument type: LC-ESI-ITFT
Ms type: MS2
Ion mode: POSITIVE
Ionization: ESI
Fragmentation mode: HCD
Collision energy: 60 % (nominal)
Resolution: 15000
Column name: XBridge C18 3.5um, 2.1x50mm, Waters
Retention time: 7.0 min
Base peak: 283.0057
Precursor m/z: 261.0233
Precursor type: [M+H]+
m/z	relative intensity	assigned
54.0337	4	C3H4N+
98.0475	3	C4H6N2O+
131.9444	42	C3H3BrN+
133.96	17	C3H5BrN+
161.955	207	C4H5BrNO+
186.9502	70	C5H4BrN2O+
187.9343	297	C5H3BrNO2+
204.9609	999	C5H6BrN2O2+
261.0229	2	C9H14BrN2O2+
