Mass spectrum: Butachlor; LC-ESI-QFT; MS2; CE: 15%; R=15000; [M+H]+
Name: Butachlor
Name: N-(butoxymethyl)-2-chloro-N-(2,6-diethylphenyl)acetamide
Formula: C17H26ClNO2
Exact mass: 311.1652068
SMILES: CCCCOCN(C1=C(C=CC=C1CC)CC)C(=O)CCl
InChI: InChI=1S/C17H26ClNO2/c1-4-7-11-21-13-19(16(20)12-18)17-14(5-2)9-8-10-15(17)6-3/h8-10H,4-7,11-13H2,1-3H3
Instrument: Exploris 240 Thermo Scientific
Instrument type: LC-ESI-QFT
Ms type: MS2
Ion mode: POSITIVE
Ionization: ESI
Fragmentation mode: HCD
Collision energy: 15 % (nominal)
Resolution: 15000
Column name: XBridge C18 3.5um, 2.1x50mm, Waters
Retention time: 13.643 min
Base peak: 238.0989
Precursor m/z: 312.1725
Precursor type: [M+H]+
m/z	relative intensity	assigned
57.0698	235	C4H9+
87.0803	160	C5H11O+
162.1271	32	C11H16N+
238.0988	999	C16H14O2+
