Mass spectrum: Chlorfluazuron; LC-ESI-QFT; MS2; CE: 90%; R=17500; [M+H]+
Name: Chlorfluazuron
Name: N-[[3,5-dichloro-4-[3-chloro-5-(trifluoromethyl)pyridin-2-yl]oxyphenyl]carbamoyl]-2,6-difluorobenzamide
Formula: C20H9Cl3F5N3O3
Exact mass: 538.9630
SMILES: C1=CC(=C(C(=C1)F)C(=O)NC(=O)NC2=CC(=C(C(=C2)Cl)OC3=C(C=C(C=N3)C(F)(F)F)Cl)Cl)F
InChI: InChI=1S/C20H9Cl3F5N3O3/c21-10-5-9(30-19(33)31-17(32)15-13(24)2-1-3-14(15)25)6-11(22)16(10)34-18-12(23)4-8(7-29-18)20(26,27)28/h1-7H,(H2,30,31,32,33)
Instrument: Exploris 240 Orbitrap Thermo Scientific
Instrument type: LC-ESI-QFT
Ms type: MS2
Ion mode: POSITIVE
Ionization: ESI
Fragmentation mode: HCD
Collision energy: 90 % (nominal)
Resolution: 17500
Column name: XBridge C18 3.5um, 2.1x50mm, Waters
Retention time: 15.243 min
Base peak: 539.9705
Precursor m/z: 539.9702
Precursor type: [M+H]+
m/z	relative intensity	assigned
63.0229	72	C5H3+
66.9745	62	CHClF+
68.9946	62	CF3+
72.9839	31	C3H2Cl+
75.0041	51	C3HF2+
76.0182	20	C5H2N+
84.9652	92	CClF2+
90.9744	56	C3HClF+
97.9794	24	C4HClN+
106.9449	47	C3HCl2+
107.0099	26	C4H2F3+
108.9651	126	C3ClF2+
109.9791	74	C5HClN+
110.9872	31	C5H2ClN+
111.9947	47	C5H3ClN+
113.0197	61	C6H3F2+
114.0149	43	C5H2F2N+
123.9949	969	C6H3ClN+
129.9855	34	C5H2ClFN+
137.9739	56	C6HClNO+
139.9898	56	C6H3ClNO+
140.0302	74	C7H4F2N+
141.0262	489	C6H3F2N2+
149.9918	38	C5H3ClF2N+
152.9716	52	C5HClF3+
157.9803	134	C6H2ClFNO+
158.0405	36	C7H6F2NO+
158.9638	834	C6H3Cl2N+
159.9764	366	C6HClF2N+
167.9828	36	C5F4O2+
168.9898	21	C5H3ClF3N+
174.9587	126	C6H3Cl2NO+
176.9741	31	C6H5Cl2NO+
179.9824	397	C6H2ClF3N+
186.9588	999	C7H3Cl2NO+
197.9929	227	C6H4ClF3NO+
202.9538	116	C7H3Cl2NO2+
221.0317	43	C11H4F3N2+
249.0271	60	C12H4F3N2O+
256.0009	52	C2H10Cl2F4N2O3+
271.9722	46	C8H3ClF4NO3+
283.9969	74	C14H8Cl2F2+
313.0002	112	C7H9Cl2F4N3O2+
346.96	270	C10H7Cl3F3N3O+
