Mass spectrum: Iopromide; LC-ESI-ITFT; MS2; CE: 30%; R=7500; [M+H]+
Name: Iopromide
Name: 1-N,3-N-bis(2,3-dihydroxypropyl)-2,4,6-triiodo-5-[(2-methoxyacetyl)amino]-3-N-methylbenzene-1,3-dicarboxamide
Formula: C18H24I3N3O8
Exact mass: 790.8698
SMILES: CN(CC(CO)O)C(=O)C1=C(C(=C(C(=C1I)C(=O)NCC(CO)O)I)NC(=O)COC)I
InChI: InChI=1S/C18H24I3N3O8/c1-24(4-9(28)6-26)18(31)12-13(19)11(17(30)22-3-8(27)5-25)14(20)16(15(12)21)23-10(29)7-32-2/h8-9,25-28H,3-7H2,1-2H3,(H,22,30)(H,23,29)
Instrument: LTQ Orbitrap XL Thermo Scientific
Instrument type: LC-ESI-ITFT
Ms type: MS2
Ion mode: POSITIVE
Ionization: ESI
Fragmentation mode: HCD
Collision energy: 30 % (nominal)
Resolution: 7500
Column name: XBridge C18 3.5um, 2.1x50mm, Waters
Retention time: 2.7 min
Base peak: 132.9579
Precursor m/z: 791.877
Precursor type: [M+H]+
m/z	relative intensity	assigned
70.0653	42	C4H8N+
88.0755	59	C4H10NO+
291.097	79	C14H15N2O5+
299.9154	277	C9H3INO3+
315.9479	31	C10H7INO3+
317.9263	237	C9H5INO4+
330.9577	74	C10H8IN2O3+
357.9212	150	C11H5INO5+
372.9682	999	C12H10IN2O4+
386.9835	526	C13H12IN2O4+
399.9552	69	C13H9IN2O5+
400.9961	50	C11H16INO7+
404.9948	159	C13H14IN2O5+
413.9712	545	C14H11IN2O5+
419.0117	153	C14H16IN2O5+
425.8123	105	C9H2I2NO3+
430.9729	47	C13H21I2+
444.9891	446	C15H14IN2O6+
485.8302	136	C8H8I2O8+
527.8677	490	C13H10I2N2O5+
558.8861	687	C14H13I2N2O6+
572.9009	429	C14H24I3+
