Mass spectrum: Clobazam; LC-ESI-QFT; MS2; CE: 60; R=35000; [M+H]+
Name: Clobazam
Name: 7-chloro-1-methyl-5-phenyl-1,5-benzodiazepine-2,4-dione
Formula: C16H13ClN2O2
Exact mass: 300.06656
SMILES: CN1C(=O)CC(=O)N(C2=C1C=CC(=C2)Cl)C3=CC=CC=C3
InChI: InChI=1S/C16H13ClN2O2/c1-18-13-8-7-11(17)9-14(13)19(16(21)10-15(18)20)12-5-3-2-4-6-12/h2-9H,10H2,1H3
Instrument: Q Exactive Plus Orbitrap Thermo Scientific
Instrument type: LC-ESI-QFT
Ms type: MS2
Ion mode: POSITIVE
Ionization: ESI
Fragmentation mode: HCD
Collision energy: 60 (nominal)
Resolution: 35000
Column name: XBridge C18 3.5um, 2.1x50mm, Waters
Retention time: 8.4 min
Base peak: 301.073
Precursor m/z: 301.0738
Precursor type: [M+H]+
m/z	relative intensity	assigned
53.0385	2	C4H5+
68.9971	6	C3HO2+
77.0382	6	C6H5+
91.0542	3	C7H7+
92.0494	1	C6H6N+
95.0491	6	C6H7O+
105.0334	163	C7H5O+
118.0524	2	C7H6N2+
140.0261	4	C7H7ClN+
141.0339	3	C7H8ClN+
145.0506	1	C7H5N4+
146.0474	1	C8H6N2O+
147.0552	2	C8H7N2O+
153.0213	105	C7H6ClN2+
166.0648	1	C12H8N+
167.0728	5	C12H9N+
179.0371	1	C9H8ClN2+
180.0803	2	C13H10N+
181.0162	77	C8H6ClN2O+
182.024	15	C8H7ClN2O+
182.0838	17	C12H10N2+
183.0318	4	C8H8ClN2O+
195.0916	11	C13H11N2+
196.0756	4	C13H10NO+
196.0994	4	C13H12N2+
200.0263	1	C12H7ClN+
202.0419	3	C12H9ClN+
203.037	3	C11H8ClN2+
207.0919	3	C14H11N2+
209.0708	5	C13H9N2O+
214.0417	4	C13H9ClN+
215.0369	4	C12H8ClN2+
216.0449	81	C15H6NO+
217.0528	19	C12H10ClN2+
218.0606	16	C12H11ClN2+
223.0866	44	C14H11N2O+
224.0943	691	C14H12N2O+
228.0212	4	C13H7ClNO+
230.0605	3	C13H11ClN2+
231.0685	4	C13H12ClN2+
241.0523	1	C14H10ClN2+
244.0398	66	C13H9ClN2O+
257.0477	1	C14H10ClN2O+
258.0547	2	C14H11ClN2O+
259.0631	999	C14H12ClN2O+
