Mass spectrum: Metolachlor OXA; LC-ESI-ITFT; MS2; CE: 90%; R=30000; [M+H]+
Name: Metolachlor OXA
Name: 2-(2-ethyl-N-(2-methoxy-1-methyl-ethyl)-6-methyl-anilino)-2-keto-acetic acid
Formula: C15H21NO4
Exact mass: 279.1471
SMILES: CC1=CC=CC(CC)=C1N(C(C)COC)C(C(O)=O)=O
InChI: InChI=1S/C15H21NO4/c1-5-12-8-6-7-10(2)13(12)16(11(3)9-20-4)14(17)15(18)19/h6-8,11H,5,9H2,1-4H3,(H,18,19)
Instrument: LTQ Orbitrap XL Thermo Scientific
Instrument type: LC-ESI-ITFT
Ms type: MS2
Ion mode: POSITIVE
Ionization: ESI
Fragmentation mode: HCD
Collision energy: 90 % (nominal)
Resolution: 30000
Column name: XBridge C18 3.5um, 2.1x50mm, Waters
Retention time: 9.3 min
Base peak: 280.1539
Precursor m/z: 280.1543
Precursor type: [M+H]+
m/z	relative intensity	assigned
73.0648	92	C4H9O+
77.0386	45	C6H5+
79.0541	48	C6H7+
91.0541	678	C7H7+
92.0621	14	C7H8+
93.0572	13	C6H7N+
93.0698	90	C7H9+
103.0542	119	C8H7+
104.062	93	C8H8+
105.0447	29	C6H5N2+
105.0698	95	C8H9+
106.0651	87	C7H8N+
107.073	28	C7H9N+
107.0856	18	C8H11+
108.0806	37	C7H10N+
109.0648	8	C7H9O+
115.0542	143	C9H7+
116.0497	8	C8H6N+
116.0619	20	C9H8+
117.0573	95	C8H7N+
117.0698	284	C9H9+
118.0651	275	C8H8N+
119.0602	26	C7H7N2+
119.0729	316	C8H9N+
119.0854	172	C9H11+
120.0806	92	C8H10N+
128.062	35	C10H8+
129.0698	51	C10H9+
130.0651	425	C9H8N+
131.0729	999	C9H9N+
132.0807	498	C9H10N+
133.0885	247	C9H11N+
134.06	28	C8H8NO+
134.0963	231	C9H12N+
136.0754	7	C8H10NO+
142.0651	39	C10H8N+
143.0732	18	C10H9N+
144.0807	580	C10H10N+
145.0885	162	C10H11N+
146.0963	391	C10H12N+
147.068	9	C9H9NO+
147.0918	5	C9H11N2+
147.1039	9	C10H13N+
148.1119	165	C10H14N+
155.0602	14	C10H7N2+
156.081	7	C11H10N+
158.0964	38	C11H12N+
159.1037	11	C11H13N+
160.0752	12	C10H10NO+
160.1119	109	C11H14N+
161.1196	6	C11H15N+
162.0912	12	C10H12NO+
174.128	5	C12H16N+
176.1432	12	C12H18N+
