Mass spectrum: Thiophanate; LC-ESI-QFT; MS2; CE: 75%; R=17500; [M+H]+
Name: Thiophanate
Name: CID 31991
Name: N`-ethoxycarbonyl-N-[2-[(N-ethoxycarbonyl-C-sulfanylcarbonimidoyl)amino]phenyl]carbamimidothioic acid
Formula: C14H18N4O4S2
Exact mass: 370.0769
SMILES: CCOC(=O)NC(=S)NC1=CC=CC=C1NC(=S)NC(=O)OCC
InChI: InChI=1S/C14H18N4O4S2/c1-3-21-13(19)17-11(23)15-9-7-5-6-8-10(9)16-12(24)18-14(20)22-4-2/h5-8H,3-4H2,1-2H3,(H2,15,17,19,23)(H2,16,18,20,24)
Instrument: Exploris 240 Orbitrap Thermo Scientific
Instrument type: LC-ESI-QFT
Ms type: MS2
Ion mode: POSITIVE
Ionization: ESI
Fragmentation mode: HCD
Collision energy: 75 % (nominal)
Resolution: 17500
Column name: XBridge C18 3.5um, 2.1x50mm, Waters
Retention time: 7.280 min
Base peak: 295.0398
Precursor m/z: 371.0842
Precursor type: [M+H]+
m/z	relative intensity	assigned
59.9903	274	CH2NS+
62.0236	113	CH4NO2+
65.0386	8	C5H5+
85.9695	152	C2NOS+
92.0495	71	C6H6N+
93.0573	241	C6H7N+
103.9801	65	C2H2NO2S+
107.0604	23	C6H7N2+
109.076	67	C6H9N2+
118.0527	102	C7H6N2+
119.0604	38	C7H7N2+
134.0712	70	C7H8N3+
149.0169	72	C7H5N2S+
151.0324	999	C7H7N2S+
160.0507	48	C8H6N3O+
176.0276	6	C8H6N3S+
192.9886	7	C8H5N2S2+
