Mass spectrum: Coumaphos; LC-ESI-QFT; MS2; CE: 45%; R=17500; [M+H]+
Name: Coumaphos
Name: 3-chloro-7-diethoxyphosphinothioyloxy-4-methylchromen-2-one
Formula: C14H16ClO5PS
Exact mass: 362.0145
SMILES: CCOP(=S)(OCC)OC1=CC2=C(C=C1)C(=C(C(=O)O2)Cl)C
InChI: InChI=1S/C14H16ClO5PS/c1-4-17-21(22,18-5-2)20-10-6-7-11-9(3)13(15)14(16)19-12(11)8-10/h6-8H,4-5H2,1-3H3
Instrument: Exploris 240 Orbitrap Thermo Scientific
Instrument type: LC-ESI-QFT
Ms type: MS2
Ion mode: POSITIVE
Ionization: ESI
Fragmentation mode: HCD
Collision energy: 45 % (nominal)
Resolution: 17500
Column name: XBridge C18 3.5um, 2.1x50mm, Waters
Retention time: 10.877 min
Base peak: 363.0214
Precursor m/z: 363.0217
Precursor type: [M+H]+
m/z	relative intensity	assigned
96.9506	17	H2O2PS+
114.9612	8	H4O3PS+
191.0162	5	C10H7O2S+
194.0139	5	C10H7ClO2+
211.0156	159	C10H8ClO3+
224.9768	13	C9H6O3PS+
226.9928	999	C10H8ClO2S+
272.9706	14	C10H7ClO5P+
288.9485	224	C10H7ClO4PS+
306.9591	117	C10H9ClO5PS+
320.9752	5	C11H11ClO5PS+
334.9896	34	C12H13ClO5PS+
