Mass spectrum: Metolachlor-TP SYN542490; LC-ESI-QFT; MS2; CE: 120%; R=17500; [M+H]+
Name: Metolachlor-TP SYN542490
Formula: C15H21NO6S
Exact mass: 343.1090
SMILES: O=S(=O)(O)CC(=O)N(C(C)COC)c1c(C)cccc1C(C)=O
InChI: InChI=1S/C15H21NO6S/c1-10-6-5-7-13(12(3)17)15(10)16(11(2)8-22-4)14(18)9-23(19,20)21/h5-7,11H,8-9H2,1-4H3,(H,19,20,21)
Instrument: Exploris 240 Orbitrap Thermo Scientific
Instrument type: LC-ESI-QFT
Ms type: MS2
Ion mode: POSITIVE
Ionization: ESI
Fragmentation mode: HCD
Collision energy: 120 % (nominal)
Resolution: 17500
Column name: XBridge C18 3.5um, 2.1x50mm, Waters
Retention time: 4.668 min
Base peak: 344.1159
Precursor m/z: 344.1162
Precursor type: [M+H]+
m/z	relative intensity	assigned
53.0387	53	C4H5+
65.0387	74	C5H5+
73.0648	69	C4H9O+
77.0387	260	C6H5+
79.0543	464	C6H7+
91.0543	799	C7H7+
93.0573	79	C6H7N+
95.0493	149	C6H7O+
103.0541	394	C8H7+
104.0497	43	C7H6N+
105.0698	546	C8H9+
106.0652	198	C7H8N+
108.0807	117	C7H10N+
115.0542	455	C9H7+
116.0497	286	C8H6N+
116.0622	115	C9H8+
117.0574	771	C8H7N+
118.065	295	C8H8N+
119.0496	103	C8H7O+
120.0807	200	C8H10N+
127.0541	50	C10H7+
128.0506	80	C3H12O3S+
128.0619	490	C10H8+
129.0697	369	C10H9+
130.0651	999	C9H8N+
131.0729	584	C9H9N+
132.0807	436	C9H10N+
134.0603	59	C8H8NO+
140.0496	45	C10H6N+
141.0575	128	C10H7N+
142.0658	218	C4H14O3S+
143.0733	53	C10H9N+
144.0807	584	C10H10N+
145.0885	332	C10H11N+
154.0651	251	C11H8N+
155.0736	93	C5H15O3S+
156.0809	481	C11H10N+
157.0886	543	C11H11N+
158.0605	67	C4H14O4S+
158.0962	65	C11H12N+
160.0756	291	C10H10NO+
170.0967	344	C12H12N+
171.1048	140	C12H13N+
172.1122	343	C12H14N+
174.0915	84	C11H12NO+
