Mass spectrum: PFPrA; LC-ESI-QFT; MS2; CE: 30%; R=17500; [M-H]-
Name: PFPrA
Name: Pentafluoropropionic acid
Name: 2,2,3,3,3-pentafluoropropanoic acid
Formula: C3HF5O2
Exact mass: 163.989670372
SMILES: C(=O)(C(C(F)(F)F)(F)F)O
InChI: InChI=1S/C3HF5O2/c4-2(5,1(9)10)3(6,7)8/h(H,9,10)
Instrument: Exploris 240 Orbitrap Thermo Scientific
Instrument type: LC-ESI-QFT
Ms type: MS2
Ion mode: NEGATIVE
Ionization: ESI
Fragmentation mode: HCD
Collision energy: 30 % (nominal)
Resolution: 17500
Column name: XBridge C18 3.5um, 2.1x50mm, Waters
Retention time: 2.108 min
Base peak: 146.9386
Precursor m/z: 162.9824
Precursor type: [M-H]-
m/z	relative intensity	assigned
118.9927	999	C2F5-
162.9825	22	C3F5O2-
