Mass spectrum: Ofloxacin; LC-ESI-QFT; MS2; CE: 45; R=35000; [M+H]+
Name: Ofloxacin
Name: DL-8280
Formula: C18H20FN3O4
Exact mass: 361.14378
SMILES: Fc4cc1c2N(/C=C(\C1=O)C(=O)O)C(COc2c4N3CCN(C)CC3)C
InChI: InChI=1S/C18H20FN3O4/c1-10-9-26-17-14-11(16(23)12(18(24)25)8-22(10)14)7-13(19)15(17)21-5-3-20(2)4-6-21/h7-8,10H,3-6,9H2,1-2H3,(H,24,25)
Instrument: Q Exactive Orbitrap Thermo Scientific
Instrument type: LC-ESI-QFT
Ms type: MS2
Ion mode: POSITIVE
Ionization: ESI
Fragmentation mode: HCD
Collision energy: 45 (nominal)
Resolution: 35000
Column name: XBridge C18 3.5um, 2.1x50mm, Waters
Retention time: 4.1 min
Base peak: 362.151
Precursor m/z: 362.1511
Precursor type: [M+H]+
m/z	relative intensity	assigned
56.0495	1	C3H6N+
58.0651	61	C3H8N+
70.0651	46	C4H8N+
72.0807	16	C4H10N+
82.0651	5	C5H8N+
84.0807	17	C5H10N+
85.0884	5	C5H11N+
99.0917	3	C5H11N2+
171.0552	1	C10H7N2O+
178.0297	2	C9H5FNO2+
179.0376	4	C9H6FNO2+
180.0454	1	C9H7FNO2+
192.0456	2	C10H7FNO2+
193.0407	5	C9H6FN2O2+
194.0247	3	C9H5FNO3+
194.0612	1	C10H9FNO2+
199.0499	6	C11H7N2O2+
200.058	1	C11H8N2O2+
202.0662	3	C12H9FNO+
203.0613	1	C11H8FN2O+
204.0453	1	C11H7FNO2+
205.0407	15	C10H6FN2O2+
205.0771	15	C11H10FN2O+
213.0654	1	C12H9N2O2+
217.0407	4	C11H6FN2O2+
218.0481	1	C11H7FN2O2+
218.0613	2	C12H9FNO2+
219.0565	37	C11H8FN2O2+
219.0683	3	C15H9NO+
220.0643	5	C11H9FN2O2+
220.0769	3	C12H11FNO2+
221.072	56	C11H10FN2O2+
231.0563	1	C12H8FN2O2+
231.0932	3	C13H12FN2O+
232.0768	1	C13H11FNO2+
233.0721	31	C12H10FN2O2+
233.0845	6	C16H11NO+
234.0924	2	C13H13FNO2+
235.0874	3	C12H12FN2O2+
241.097	15	C14H13N2O2+
243.0932	1	C14H12FN2O+
244.077	3	C14H11FNO2+
245.0717	7	C13H10FN2O2+
247.0877	30	C13H12FN2O2+
253.1211	1	C15H15N3O+
255.1	5	C14H13N3O2+
255.1132	3	C15H15N2O2+
256.1082	2	C14H14N3O2+
259.0885	3	C14H12FN2O2+
261.1033	999	C14H14FN2O2+
268.1078	3	C15H14N3O2+
268.1444	3	C16H18N3O+
269.1162	3	C15H15N3O2+
270.1235	15	C15H16N3O2+
273.1033	18	C15H14FN2O2+
275.1189	5	C15H16FN2O2+
286.1187	3	C15H16N3O3+
296.1028	2	C16H14N3O3+
296.1388	4	C17H18N3O2+
298.1547	11	C17H20N3O2+
301.0855	7	C15H12FN3O3+
301.1219	19	C16H16FN3O2+
314.1139	2	C16H16N3O4+
314.1503	3	C17H20N3O3+
316.1091	11	C16H15FN3O3+
316.1456	51	C17H19FN3O2+
318.1611	249	C17H21FN3O2+
324.135	3	C15H19FN3O4+
342.1451	2	C18H20N3O4+
344.1399	9	C18H19FN3O3+
362.1509	98	C18H21FN3O4+
