Mass spectrum: Kresoxim-methyl acid; LC-ESI-QFT; MS2; CE: 150; R=35000; [M+H]+
Name: Kresoxim-methyl acid
Name: (2E)-2-methoxyimino-2-[2-[(2-methylphenoxy)methyl]phenyl]acetic acid
Formula: C17H17NO4
Exact mass: 299.11576
SMILES: O=C(O)\C(=N\OC)c2ccccc2COc1ccccc1C
InChI: InChI=1S/C17H17NO4/c1-12-7-3-6-10-15(12)22-11-13-8-4-5-9-14(13)16(17(19)20)18-21-2/h3-10H,11H2,1-2H3,(H,19,20)/b18-16+
Instrument: Q Exactive Plus Orbitrap Thermo Scientific
Instrument type: LC-ESI-QFT
Ms type: MS2
Ion mode: POSITIVE
Ionization: ESI
Fragmentation mode: HCD
Collision energy: 150 (nominal)
Resolution: 35000
Column name: XBridge C18 3.5um, 2.1x50mm, Waters
Retention time: 10.9 min
Base peak: 300.1227
Precursor m/z: 300.123
Precursor type: [M+H]+
m/z	relative intensity	assigned
50.0151	51	C4H2+
51.0229	82	C4H3+
52.0182	2	C3H2N+
52.0308	1	C4H4+
53.0022	31	C3HO+
53.0386	37	C4H5+
53.9975	8	C2NO+
55.0179	7	C3H3O+
61.0073	33	C5H+
62.0151	134	C5H2+
63.0229	942	C5H3+
64.0182	90	C4H2N+
64.0307	12	C5H4+
65.0386	203	C5H5+
66.0464	5	C5H6+
67.9892	4	C3O2+
74.015	12	C6H2+
75.0229	27	C6H3+
76.0181	3	C5H2N+
76.0306	9	C6H4+
77.0385	64	C6H5+
78.0464	19	C6H6+
79.0179	3	C5H3O+
79.0543	8	C6H7+
81.0335	6	C5H5O+
86.015	3	C7H2+
87.0229	11	C7H3+
88.0182	27	C6H2N+
88.0307	22	C7H4+
89.0386	999	C7H5+
90.0339	73	C6H4N+
90.0464	42	C7H6+
91.0542	59	C7H7+
94.0414	2	C6H6O+
95.0491	129	C6H7O+
98.0152	1	C8H2+
99.0229	6	C8H3+
101.0386	1	C8H5+
102.0337	2	C7H4N+
102.0464	31	C8H6+
103.0543	10	C8H7+
104.0494	16	C7H6N+
105.0447	65	C6H5N2+
107.0492	3	C7H7O+
108.0443	1	C6H6NO+
113.0386	25	C9H5+
114.0339	27	C8H4N+
114.0464	2	C9H6+
115.0416	6	C8H5N+
115.0542	103	C9H7+
116.0495	51	C8H6N+
117.0573	13	C8H7N+
119.0494	5	C8H7O+
125.0386	18	C10H5+
126.0464	48	C10H6+
127.0417	2	C9H5N+
127.0542	27	C10H7+
128.0494	6	C9H6N+
128.062	40	C10H8+
129.0446	11	C8H5N2+
132.0439	1	C8H6NO+
137.0387	6	C11H5+
138.0465	2	C11H6+
139.0542	101	C11H7+
140.0495	40	C10H6N+
140.0621	7	C11H8+
141.07	3	C11H9+
143.049	2	C10H7O+
145.0647	15	C10H9O+
146.0602	2	C9H8NO+
149.0385	9	C12H5+
150.0464	156	C12H6+
151.0542	59	C12H7+
152.0621	380	C12H8+
153.0575	11	C11H7N+
153.0697	15	C12H9+
154.0653	8	C11H8N+
155.0604	33	C10H7N2+
161.0379	2	C13H5+
162.0464	7	C13H6+
163.0542	116	C13H7+
164.0501	14	C12H6N+
164.062	62	C13H8+
165.0699	241	C13H9+
166.0651	21	C12H8N+
167.0491	2	C12H7O+
167.0728	16	C12H9N+
168.057	23	C12H8O+
169.0648	213	C12H9O+
170.0602	10	C11H8NO+
174.0465	9	C14H6+
175.0421	1	C13H5N+
175.0543	3	C14H7+
176.062	136	C14H8+
177.0574	97	C13H7N+
177.0695	41	C14H9+
178.0655	31	C13H8N+
178.0776	92	C14H10+
179.0604	74	C12H7N2+
179.0729	6	C13H9N+
180.0806	23	C13H10N+
181.0646	2	C13H9O+
185.0597	2	C12H9O2+
187.054	9	C15H7+
188.0494	24	C14H6N+
188.0624	2	C15H8+
189.0572	2	C14H7N+
189.0699	21	C15H9+
190.0651	47	C14H8N+
191.0729	32	C14H9N+
192.0569	1	C14H8O+
192.0806	12	C14H10N+
193.065	11	C14H9O+
193.0884	5	C14H11N+
194.0359	1	C13H6O2+
194.06	7	C13H8NO+
196.0522	7	C13H8O2+
201.0574	16	C15H7N+
202.0653	2	C15H8N+
203.0605	2	C14H7N2+
203.0731	3	C15H9N+
204.0555	2	C13H6N3+
204.0809	5	C15H10N+
206.0602	6	C14H8NO+
220.0758	2	C15H10NO+
