Mass spectrum: Metalaxyl-M-TP CGA108906; LC-ESI-QFT; MS2; CE: 75%; R=17500; [M+H]+
Name: Metalaxyl-M-TP CGA108906
Name: 2-[1-carboxyethyl-(2-methoxyacetyl)amino]-3-methylbenzoic acid
Formula: C14H17NO6
Exact mass: 295.1056
SMILES: COCC(=O)N(C(C)C(O)=O)C1=C(C=CC=C1C)C(O)=O
InChI: InChI=1S/C14H17NO6/c1-8-5-4-6-10(14(19)20)12(8)15(9(2)13(17)18)11(16)7-21-3/h4-6,9H,7H2,1-3H3,(H,17,18)(H,19,20)
Instrument: Q Exactive Plus Orbitrap Thermo Scientific
Instrument type: LC-ESI-QFT
Ms type: MS2
Ion mode: POSITIVE
Ionization: ESI
Fragmentation mode: HCD
Collision energy: 75 % (nominal)
Resolution: 17500
Column name: XBridge C18 3.5um, 2.1x50mm, Waters
Retention time: 5.723 min
Base peak: 296.1129
Precursor m/z: 296.1129
Precursor type: [M+H]+
m/z	relative intensity	assigned
55.0178	2	C3H3O+
65.0386	20	C5H5+
91.0543	413	C7H7+
103.0538	2	C8H7+
105.07	16	C8H9+
109.0646	5	C7H9O+
115.0543	18	C9H7+
116.0496	6	C8H6N+
117.0573	148	C8H7N+
118.0651	57	C8H8N+
119.0492	77	C8H7O+
120.0808	4	C8H10N+
130.0652	14	C9H8N+
131.0729	10	C9H9N+
132.0808	133	C9H10N+
134.0596	4	C8H8NO+
142.0652	37	C10H8N+
144.0447	4	C9H6NO+
144.0809	39	C10H10N+
145.0524	26	C9H7NO+
146.0601	64	C9H8NO+
148.0755	4	C9H10NO+
158.0601	23	C10H8NO+
159.0677	20	C10H9NO+
160.0758	999	C10H10NO+
162.0551	4	C9H8NO2+
172.0759	8	C11H10NO+
174.0919	4	C11H12NO+
176.0709	2	C10H10NO2+
