Mass spectrum: 2-Naphthalenesulfonic acid; LC-ESI-ITFT; MS2; CE: 15%; R=15000; [M+H]+
Name: 2-Naphthalenesulfonic acid
Name: 2-naphthalenesulfonic acid
Formula: C10H8O3S
Exact mass: 208.0194
SMILES: OS(C1=CC2=C(C=CC=C2)C=C1)(=O)=O
InChI: InChI=1S/C10H8O3S/c11-14(12,13)10-6-5-8-3-1-2-4-9(8)7-10/h1-7H,(H,11,12,13)
Instrument: LTQ Orbitrap XL Thermo Scientific
Instrument type: LC-ESI-ITFT
Ms type: MS2
Ion mode: POSITIVE
Ionization: ESI
Fragmentation mode: HCD
Collision energy: 15 % (nominal)
Resolution: 15000
Column name: XBridge C18 3.5um, 2.1x50mm, Waters
Retention time: 5.2 min
Base peak: 149.0023
Precursor m/z: 209.0267
Precursor type: [M+H]+
m/z	relative intensity	assigned
128.062	593	C10H8+
155.0599	33	C10H7N2+
191.0159	26	C10H7O2S+
195.9909	17	C10N2O3+
209.0265	999	C10H9O3S+
