Mass spectrum: Thiabendazole; LC-ESI-QFT; MS2; CE: 30; R=35000; [M+H]+
Name: Thiabendazole
Name: 2-(4-Thiazolyl)benzimidazole
Name: 4-(1H-benzimidazol-2-yl)-1,3-thiazole
Formula: C10H7N3S
Exact mass: 201.03607
SMILES: c1(c2cscn2)[nH]c2ccccc2n1
InChI: InChI=1S/C10H7N3S/c1-2-4-8-7(3-1)12-10(13-8)9-5-14-6-11-9/h1-6H,(H,12,13)
Instrument: Q Exactive Orbitrap Thermo Scientific
Instrument type: LC-ESI-QFT
Ms type: MS2
Ion mode: POSITIVE
Ionization: ESI
Fragmentation mode: HCD
Collision energy: 30 (nominal)
Resolution: 35000
Column name: XBridge C18 3.5um, 2.1x50mm, Waters
Retention time: 4.2 min
Base peak: 202.0433
Precursor m/z: 202.0433
Precursor type: [M+H]+
m/z	relative intensity	assigned
65.0385	1	C5H5+
92.0494	1	C6H6N+
175.0327	8	C9H7N2S+
202.0433	999	C10H8N3S+
