Mass spectrum: Isopropalin; LC-ESI-QFT; MS2; CE: 180%; R=17500; [M+H]+
Name: Isopropalin
Name: 2,6-dinitro-4-propan-2-yl-N,N-dipropylaniline
Formula: C15H23N3O4
Exact mass: 309.1689
SMILES: CCCN(CCC)C1=C(C=C(C=C1[N+](=O)[O-])C(C)C)[N+](=O)[O-]
InChI: InChI=1S/C15H23N3O4/c1-5-7-16(8-6-2)15-13(17(19)20)9-12(11(3)4)10-14(15)18(21)22/h9-11H,5-8H2,1-4H3
Instrument: Exploris 240 Orbitrap Thermo Scientific
Instrument type: LC-ESI-QFT
Ms type: MS2
Ion mode: POSITIVE
Ionization: ESI
Fragmentation mode: HCD
Collision energy: 180 % (nominal)
Resolution: 17500
Column name: XBridge C18 3.5um, 2.1x50mm, Waters
Retention time: 15.043 min
Base peak: 310.1757
Precursor m/z: 310.1761
Precursor type: [M+H]+
m/z	relative intensity	assigned
51.0229	538	C4H3+
52.0184	141	C3H2N+
53.0387	227	C4H5+
63.0229	452	C5H3+
65.0385	999	C5H5+
77.0385	659	C6H5+
78.0339	147	C5H4N+
78.0464	171	C6H6+
79.0542	157	C6H7+
89.0385	891	C7H5+
90.0339	79	C6H4N+
90.0465	225	C7H6+
91.0541	780	C7H7+
95.0491	148	C6H7O+
103.0543	178	C8H7+
104.0497	188	C7H6N+
105.0446	352	C6H5N2+
116.0498	220	C8H6N+
117.0574	341	C8H7N+
118.0649	126	C8H8N+
130.0652	118	C9H8N+
131.0604	150	C8H7N2+
