Mass spectrum: Thiamethoxam; LC-ESI-ITFT; MS2; CE: 45%; R=15000; [M+H]+
Name: Thiamethoxam
Name: 3-((2-Chloro-5-thiazolyl)methyl)tetrahydro-5-methyl-N-nitro-4H-1,3,5-oxadiazin-4-imine
Formula: C8H10ClN5O3S
Exact mass: 291.0193
SMILES: Clc1ncc(s1)CN2\C(=N\[N+]([O-])=O)N(C)COC2
InChI: InChI=1S/C8H10ClN5O3S/c1-12-4-17-5-13(8(12)11-14(15)16)3-6-2-10-7(9)18-6/h2H,3-5H2,1H3/b11-8+
Instrument: LTQ Orbitrap XL Thermo Scientific
Instrument type: LC-ESI-ITFT
Ms type: MS2
Ion mode: POSITIVE
Ionization: ESI
Fragmentation mode: HCD
Collision energy: 45 % (nominal)
Resolution: 15000
Column name: XBridge C18 3.5um, 2.1x50mm, Waters
Retention time: 4.1 min
Base peak: 292.0274
Precursor m/z: 292.0266
Precursor type: [M+H]+
m/z	relative intensity	assigned
57.0446	3	C2H5N2+
67.0415	2	C4H5N+
69.0447	116	C3H5N2+
70.0527	1	C3H6N2+
70.995	2	C3H3S+
81.0445	1	C4H5N2+
95.0603	1	C5H7N2+
96.0555	2	C4H6N3+
97.0393	1	C4H5N2O+
98.0058	3	C4H4NS+
99.0011	62	C3H3N2S+
100.063	3	C4H8N2O+
108.0555	19	C5H6N3+
110.0712	1	C5H8N3+
112.0215	9	C5H6NS+
113.0168	4	C4H5N2S+
116.0705	2	C5H10NO2+
118.9592	1	C3H2ClNS+
121.0636	1	C6H7N3+
122.0712	212	C6H8N3+
123.079	4	C6H9N3+
124.0869	2	C6H10N3+
125.0167	35	C5H5N2S+
126.0248	2	C5H6N2S+
131.9668	999	C4H3ClNS+
138.0119	25	C5H4N3S+
139.0197	2	C5H5N3S+
139.0323	22	C6H7N2S+
140.0274	2	C5H6N3S+
144.9747	6	C5H4ClNS+
145.97	3	C4H3ClN2S+
146.9777	3	C4H4ClN2S+
147.0664	8	C7H7N4+
151.0198	51	C6H5N3S+
152.0276	119	C6H6N3S+
154.0432	8	C6H8N3S+
155.051	6	C6H9N3S+
160.9934	13	C5H6ClN2S+
165.023	2	C6H5N4S+
172.9807	8	C8HN2OS+
174.9726	48	C5H4ClN2OS+
179.0385	12	C7H7N4S+
180.0463	120	C7H8N4S+
181.0542	810	C7H9N4S+
185.0614	3	C7H11N3OS+
185.989	3	C6H5ClN3S+
186.9963	10	C6H6ClN3S+
199.0646	5	C7H11N4OS+
210.0569	42	C8H10N4OS+
211.0648	733	C8H11N4OS+
215.0151	16	C7H8ClN4S+
245.0253	3	C8H10ClN4OS+
246.0346	1	C8H11ClN4OS+
