Mass spectrum: Niclosamide; LC-ESI-QFT; MS2; CE: 30; R=35000; [M+H]+
Name: Niclosamide
Name: 5-chloro-N-(2-chloro-4-nitrophenyl)-2-hydroxybenzamide
Formula: C13H8Cl2N2O4
Exact mass: 325.98611
SMILES: C1=CC(=C(C=C1[N+](=O)[O-])Cl)NC(=O)C2=C(C=CC(=C2)Cl)O
InChI: InChI=1S/C13H8Cl2N2O4/c14-7-1-4-12(18)9(5-7)13(19)16-11-3-2-8(17(20)21)6-10(11)15/h1-6,18H,(H,16,19)
Instrument: Q Exactive Orbitrap Thermo Scientific
Instrument type: LC-ESI-QFT
Ms type: MS2
Ion mode: POSITIVE
Ionization: ESI
Fragmentation mode: HCD
Collision energy: 30 (nominal)
Resolution: 35000
Column name: XBridge C18 3.5um, 2.1x50mm, Waters
Retention time: 15.6 min
Base peak: 149.0234
Precursor m/z: 326.9934
Precursor type: [M+H]+
m/z	relative intensity	assigned
77.0152	3	C3H6Cl+
97.0649	1	C6H9O+
98.9842	999	CH4ClO3+
127.0182	3	C6H6ClN+
129.0101	3	C6H6ClO+
139.0155	2	C4H8ClO3+
153.0698	1	C12H9+
154.9894	133	C7H4ClO2+
173.0115	1	C6H6ClN2O2+
174.9921	122	C4H9Cl2O3+
198.9904	3	C7H4ClN2O3+
251.0001	5	C11H7Cl2N3+
326.9934	31	C13H9Cl2N2O4+
