Mass spectrum: Propaquizafop; LC-ESI-ITFT; MS2; CE: 60%; R=7500; [M+H]+
Name: Propaquizafop
Name: 2-(propan-2-ylideneamino)oxyethyl 2-[4-(6-chloranylquinoxalin-2-yl)oxyphenoxy]propanoate
Formula: C22H22ClN3O5
Exact mass: 443.1242
SMILES: CC(C(=O)OCCON=C(C)C)OC1=CC=C(C=C1)OC2=CN=C3C=C(C=CC3=N2)Cl
InChI: InChI=1S/C22H22ClN3O5/c1-14(2)26-29-11-10-28-22(27)15(3)30-17-5-7-18(8-6-17)31-21-13-24-20-12-16(23)4-9-19(20)25-21/h4-9,12-13,15H,10-11H2,1-3H3
Instrument: LTQ Orbitrap XL Thermo Scientific
Instrument type: LC-ESI-ITFT
Ms type: MS2
Ion mode: POSITIVE
Ionization: ESI
Fragmentation mode: HCD
Collision energy: 60 % (nominal)
Resolution: 7500
Column name: XBridge C18 3.5um, 2.1x50mm, Waters
Retention time: 15.0 min
Base peak: 466.114
Precursor m/z: 444.1321
Precursor type: [M+H]+
m/z	relative intensity	assigned
56.0494	952	C3H6N+
65.0384	20	C5H5+
70.0651	999	C4H8N+
91.0542	544	C7H7+
99.044	177	C5H7O2+
100.0518	420	C5H8O2+
100.0757	987	C5H10NO+
119.049	113	C8H7O+
120.0568	58	C8H8O+
133.0646	55	C9H9O+
147.0445	49	C9H7O2+
163.0058	357	C8H4ClN2+
165.0215	31	C8H6ClN2+
179.0012	33	C8H4ClN2O+
181.0161	226	C8H6ClN2O+
192.0684	82	C13H8N2+
193.0755	31	C13H9N2+
207.0918	67	C14H11N2+
208.0632	46	C13H8N2O+
208.0992	59	C14H12N2+
215.0367	63	C15H5NO+
227.0356	37	C16H5NO+
228.0442	85	C16H6NO+
229.052	32	C16H7NO+
236.0938	24	C15H12N2O+
243.0321	172	C13H8ClN2O+
243.0682	289	C14H12ClN2+
253.0528	128	C18H7NO+
255.0318	905	C14H8ClN2O+
256.0397	84	C14H9ClN2O+
271.0631	176	C15H12ClN2O+
285.0421	335	C18H7NO3+
299.0572	150	C19H9NO3+
