Mass spectrum: Methomyl; LC-ESI-ITFT; MS2; CE: 15%; R=15000; [M+H]+
Name: Methomyl
Name: (1E)-N-(methylcarbamoyloxy)ethanimidothioic acid methyl ester
Formula: C5H10N2O2S
Exact mass: 162.0463
SMILES: C/C(=N\OC(=O)NC)SC
InChI: InChI=1S/C5H10N2O2S/c1-4(10-3)7-9-5(8)6-2/h1-3H3,(H,6,8)/b7-4+
Instrument: LTQ Orbitrap XL Thermo Scientific
Instrument type: LC-ESI-ITFT
Ms type: MS2
Ion mode: POSITIVE
Ionization: ESI
Fragmentation mode: HCD
Collision energy: 15 % (nominal)
Resolution: 15000
Column name: XBridge C18 3.5um, 2.1x50mm, Waters
Retention time: 3.6 min
Base peak: 163.0536
Precursor m/z: 163.0536
Precursor type: [M+H]+
m/z	relative intensity	assigned
56.0495	3	C3H6N+
57.0699	4	C4H9+
58.0287	30	C2H4NO+
65.0056	194	CH5OS+
88.0216	999	C3H6NS+
89.0596	28	C4H9O2+
106.0322	748	C3H8NOS+
107.0702	30	C4H11O3+
122.0271	52	C3H8NO2S+
163.0537	22	C5H11N2O2S+
