Mass spectrum: Cefadroxil; LC-ESI-QFT; MS2; CE: 75; R=35000; [M+H]+
Name: Cefadroxil
Name: 7-[[2-azaniumyl-2-(4-hydroxyphenyl)acetyl]amino]-3-methyl-8-oxo-5-thia-1-azabicyclo[4.2.0]oct-2-ene-2-carboxylate
Formula: C16H17N3O5S
Exact mass: 363.08889
SMILES: CC1=C(N2C(C(C2=O)NC(=O)C(C3=CC=C(C=C3)O)N)SC1)C(=O)O
InChI: InChI=1S/C16H17N3O5S/c1-7-6-25-15-11(14(22)19(15)12(7)16(23)24)18-13(21)10(17)8-2-4-9(20)5-3-8/h2-5,10-11,15,20H,6,17H2,1H3,(H,18,21)(H,23,24)
Instrument: Q Exactive Plus Orbitrap Thermo Scientific
Instrument type: LC-ESI-QFT
Ms type: MS2
Ion mode: POSITIVE
Ionization: ESI
Fragmentation mode: HCD
Collision energy: 75 (nominal)
Resolution: 35000
Column name: XBridge C18 3.5um, 2.1x50mm, Waters
Retention time: 2.4 min
Base peak: 364.0954
Precursor m/z: 364.0962
Precursor type: [M+H]+
m/z	relative intensity	assigned
53.0022	4	C3HO+
53.0386	2	C4H5+
54.0465	2	C4H6+
56.0494	1	C3H6N+
57.9872	3	C2H2S+
58.995	103	C2H3S+
65.0386	2	C5H5+
66.0339	2	C4H4N+
68.0495	281	C4H6N+
68.9793	4	C3HS+
68.9972	1	C3HO2+
69.0335	6	C4H5O+
69.0447	1	C3H5N2+
69.9923	1	C2NO2+
70.0288	1	C3H4NO+
70.0651	7	C4H8N+
74.0059	4	C2H4NS+
77.0385	3	C6H5+
78.0464	22	C6H6+
79.0542	10	C6H7+
80.0495	2	C5H6N+
81.0335	3	C5H5O+
82.0414	11	C5H6O+
82.0652	3	C5H8N+
84.0444	2	C4H6NO+
85.0107	1	C4H5S+
86.0059	719	C3H4NS+
86.9899	3	C3H3OS+
89.0386	2	C7H5+
91.0543	11	C7H7+
92.0496	3	C6H6N+
94.0652	6	C6H8N+
95.0492	21	C6H7O+
96.0444	1	C5H6NO+
97.0107	2	C5H5S+
97.0285	4	C5H5O2+
99.9853	1	C3H2NOS+
102.0009	8	C3H4NOS+
105.0336	19	C7H5O+
105.0448	4	C6H5N2+
106.0414	86	C7H6O+
106.0652	30	C7H8N+
107.0492	74	C7H7O+
108.0444	1	C6H6NO+
109.0106	1	C6H5S+
109.0285	2	C6H5O2+
109.0763	4	C6H9N2+
110.0364	1	C6H6O2+
110.0601	2	C6H8NO+
112.0216	8	C5H6NS+
114.0009	999	C4H4NOS+
116.0494	7	C8H6N+
117.0574	4	C8H7N+
119.0492	12	C8H7O+
120.0444	1	C7H6NO+
120.0572	4	C8H8O+
121.0285	2	C7H5O2+
122.0601	19	C7H8NO+
126.0372	2	C6H8NS+
129.0701	1	C10H9+
131.0492	1	C9H7O+
133.0285	7	C8H5O2+
133.0523	37	C8H7NO+
134.0363	135	C8H6O2+
134.0601	102	C8H8NO+
135.044	3	C8H7O2+
135.0553	2	C7H7N2O+
137.0057	15	C7H5OS+
137.0234	1	C7H5O3+
138.0314	11	C7H6O3+
138.0548	1	C7H8NO2+
139.0213	51	C7H7OS+
144.0559	11	C8H6N3+
146.0603	8	C9H8NO+
147.0678	1	C9H9NO+
152.0166	1	C7H6NOS+
158.0272	16	C6H8NO2S+
162.055	3	C9H8NO2+
163.0214	8	C9H7OS+
173.0297	1	C10H7NS+
178.0322	9	C9H8NOS+
190.032	1	C10H8NOS+
214.0629	1	C13H10O3+
