Mass spectrum: Cyclopentolate; LC-ESI-QFT; MS2; CE: 50%; R=15000; [M+H]+
Name: Cyclopentolate
Name: 2-(dimethylamino)ethyl 2-(1-oxidanylcyclopentyl)-2-phenyl-ethanoate
Formula: C17H25NO3
Exact mass: 291.1834437
SMILES: CN(C)CCOC(=O)C(C1=CC=CC=C1)C2(CCCC2)O
InChI: InChI=1S/C17H25NO3/c1-18(2)12-13-21-16(19)15(14-8-4-3-5-9-14)17(20)10-6-7-11-17/h3-5,8-9,15,20H,6-7,10-13H2,1-2H3
Instrument: Exploris 240 Thermo Scientific
Instrument type: LC-ESI-QFT
Ms type: MS2
Ion mode: POSITIVE
Ionization: ESI
Fragmentation mode: HCD
Collision energy: 50 % (nominal)
Resolution: 15000
Column name: XBridge C18 3.5um, 2.1x50mm, Waters
Retention time: 4.922 min
Base peak: 292.1903
Precursor m/z: 292.1907
Precursor type: [M+H]+
m/z	relative intensity	assigned
56.0495	15	C3H6N+
57.0573	30	C3H7N+
57.0699	19	C4H9+
67.0542	134	C5H7+
70.0651	88	C4H8N+
72.0808	999	C4H10N+
79.0544	61	C6H7+
85.0647	66	C5H9O+
90.0914	61	C4H12NO+
91.0542	627	C7H7+
107.0494	21	C7H7O+
115.054	75	C9H7+
116.0622	16	C9H8+
129.0699	305	C10H9+
142.0779	38	C11H10+
202.0777	250	C16H10+
