Mass spectrum: N-Nitrosodipropylamine (NDPA); LC-ESI-QFT; MS2; CE: 60; R=70000; [M+H]+
Name: N-Nitrosodipropylamine (NDPA)
Name: N,N-dipropylnitrous amide
Formula: C6H14N2O
Exact mass: 130.11061
SMILES: O=NN(CCC)CCC
InChI: InChI=1S/C6H14N2O/c1-3-5-8(7-9)6-4-2/h3-6H2,1-2H3
Instrument: Q Exactive Plus Orbitrap Thermo Scientific
Instrument type: LC-ESI-QFT
Ms type: MS2
Ion mode: POSITIVE
Ionization: ESI
Fragmentation mode: HCD
Collision energy: 60 (nominal)
Resolution: 70000
Column name: XBridge C18 3.5um, 2.1x50mm, Waters
Retention time: 6.4 min
Base peak: 131.118
Precursor m/z: 131.1179
Precursor type: [M+H]+
m/z	relative intensity	assigned
52.0182	6	C3H2N+
53.0022	356	C3HO+
53.9974	52	C2NO+
54.01	26	C3H2O+
58.0652	10	C3H8N+
59.0491	10	C3H7O+
67.9893	53	C3O2+
89.0709	999	C3H9N2O+
131.1179	120	C6H15N2O+
