Mass spectrum: Flurtamone; LC-ESI-QFT; MS2; CE: 45; R=35000; [M+H]+
Name: Flurtamone
Name: 5-(methylamino)-2-phenyl-4-[3-(trifluoromethyl)phenyl]furan-3-one
Formula: C18H14F3NO2
Exact mass: 333.09766
SMILES: CNC1=C(C(=O)C(O1)C2=CC=CC=C2)C3=CC(=CC=C3)C(F)(F)F
InChI: InChI=1S/C18H14F3NO2/c1-22-17-14(12-8-5-9-13(10-12)18(19,20)21)15(23)16(24-17)11-6-3-2-4-7-11/h2-10,16,22H,1H3
Instrument: Q Exactive Plus Orbitrap Thermo Scientific
Instrument type: LC-ESI-QFT
Ms type: MS2
Ion mode: POSITIVE
Ionization: ESI
Fragmentation mode: HCD
Collision energy: 45 (nominal)
Resolution: 35000
Column name: XBridge C18 3.5um, 2.1x50mm, Waters
Retention time: 10.1 min
Base peak: 334.1042
Precursor m/z: 334.1049
Precursor type: [M+H]+
m/z	relative intensity	assigned
53.0385	1	C4H5+
58.0288	90	C2H4NO+
77.0383	5	C6H5+
91.0541	3	C7H7+
95.0492	5	C6H7O+
103.0542	42	C8H7+
105.0335	370	C7H5O+
118.0651	2	C8H8N+
120.0808	86	C8H10N+
131.0492	25	C9H7O+
159.0418	3	C8H6F3+
165.0699	1	C13H9+
167.0304	1	C9H5F2O+
171.0416	34	C9H6F3+
173.021	3	C8H4F3O+
178.0777	53	C14H10+
179.0857	1	C14H11+
180.0935	1	C14H12+
188.068	2	C9H9F3N+
189.0698	1	C15H9+
191.086	1	C15H11+
196.0686	2	C14H9F+
197.0208	7	C10H4F3O+
199.0366	13	C10H6F3O+
200.068	3	C10H9F3N+
206.0726	1	C15H10O+
207.0604	11	C15H8F+
209.0762	19	C15H10F+
210.0521	2	C11H7F3N+
214.059	1	C14H8F2+
219.1046	1	C16H13N+
225.0159	42	C11H4F3O2+
227.0667	55	C15H9F2+
228.0632	12	C11H9F3NO+
229.0824	16	C15H11F2+
233.0594	2	C16H9O2+
234.0659	1	C14H9F3+
237.0712	12	C16H10FO+
238.0475	7	C12H7F3NO+
243.0265	8	C11H6F3O3+
246.0652	1	C15H9F3+
247.073	999	C15H10F3+
249.0886	13	C15H12F3+
255.0617	5	C16H9F2O+
255.0811	1	C16H12FO2+
256.058	14	C12H9F3NO2+
257.0772	42	C16H11F2O+
258.1089	1	C16H14F2N+
259.0731	5	C16H10F3+
262.0596	3	C15H9F3O+
265.0837	2	C15H12F3O+
268.0934	1	C17H12F2N+
275.0679	144	C16H10F3O+
275.0874	13	C16H13F2O2+
277.0834	15	C16H12F3O+
278.1154	6	C16H15F3N+
279.0989	1	C16H14F3O+
283.0565	2	C17H9F2O2+
286.1038	16	C17H14F2NO+
288.0995	21	C17H13F3N+
303.0629	107	C17H10F3O2+
306.1101	75	C17H15F3NO+
314.0983	4	C18H14F2NO2+
316.0943	7	C18H13F3NO+
334.105	47	C18H15F3NO2+
