Mass spectrum: Promecarb; LC-ESI-QFT; MS2; CE: 150%; R=17500; [M+H]+
Name: Promecarb
Name: (3-methyl-5-propan-2-ylphenyl) N-methylcarbamate
Formula: C12H17NO2
Exact mass: 207.1259
SMILES: CC1=CC(=CC(=C1)OC(=O)NC)C(C)C
InChI: InChI=1S/C12H17NO2/c1-8(2)10-5-9(3)6-11(7-10)15-12(14)13-4/h5-8H,1-4H3,(H,13,14)
Instrument: Exploris 240 Orbitrap Thermo Scientific
Instrument type: LC-ESI-QFT
Ms type: MS2
Ion mode: POSITIVE
Ionization: ESI
Fragmentation mode: HCD
Collision energy: 150 % (nominal)
Resolution: 17500
Column name: XBridge C18 3.5um, 2.1x50mm, Waters
Retention time: 8.894 min
Base peak: 208.1331
Precursor m/z: 208.1332
Precursor type: [M+H]+
m/z	relative intensity	assigned
51.0228	29	C4H3+
53.0385	68	C4H5+
55.0179	41	C3H3O+
58.0287	64	C2H4NO+
65.0386	999	C5H5+
66.0464	192	C5H6+
77.0386	70	C6H5+
79.0542	122	C6H7+
81.0699	64	C6H9+
91.0542	592	C7H7+
93.0339	18	C6H5O+
94.0413	927	C6H6O+
107.0491	98	C7H7O+
109.065	52	C7H9O+
