Mass spectrum: 2-Hydroxybenzothiazole; LC-ESI-QFT; MS2; CE: 150; R=35000; [M+H]+
Name: 2-Hydroxybenzothiazole
Name: 2-Benzothiazolol
Name: 3H-1,3-benzothiazol-2-one
Formula: C7H5NOS
Exact mass: 151.00918
SMILES: C1=CC=C2C(=C1)NC(=O)S2
InChI: InChI=1S/C7H5NOS/c9-7-8-5-3-1-2-4-6(5)10-7/h1-4H,(H,8,9)
Instrument: Q Exactive Plus Orbitrap Thermo Scientific
Instrument type: LC-ESI-QFT
Ms type: MS2
Ion mode: POSITIVE
Ionization: ESI
Fragmentation mode: HCD
Collision energy: 150 (nominal)
Resolution: 35000
Column name: XBridge C18 3.5um, 2.1x50mm, Waters
Retention time: 6.4 min
Base peak: 152.0164
Precursor m/z: 152.0165
Precursor type: [M+H]+
m/z	relative intensity	assigned
50.0151	7	C4H2+
51.023	6	C4H3+
52.0182	7	C3H2N+
53.0022	23	C3HO+
53.0386	213	C4H5+
53.9975	6	C2NO+
54.01	1	C3H2O+
54.0338	3	C3H4N+
54.0464	21	C4H6+
55.0179	3	C3H3O+
56.0495	5	C3H6N+
57.9872	4	C2H2S+
58.995	1	C2H3S+
59.9665	1	COS+
61.0073	4	C5H+
62.0151	17	C5H2+
63.023	394	C5H3+
64.0182	127	C4H2N+
64.0308	144	C5H4+
65.0386	999	C5H5+
66.0464	3	C5H6+
67.0417	14	C4H5N+
67.9893	7	C3O2+
68.9793	230	C3HS+
69.9871	3	C3H2S+
70.995	7	C3H3S+
74.0151	1	C6H2+
75.0229	1	C6H3+
76.0181	1	C5H2N+
76.0307	1	C6H4+
77.0385	8	C6H5+
78.0338	3	C5H4N+
78.0464	3	C6H6+
79.0416	1	C5H5N+
80.0494	979	C5H6N+
80.9794	1	C4HS+
81.0335	19	C5H5O+
81.9872	14	C4H2S+
82.995	12	C4H3S+
90.0339	333	C6H4N+
91.0417	398	C6H5N+
92.037	3	C5H4N2+
92.0495	32	C6H6N+
92.9794	13	C5HS+
93.9747	1	C4NS+
94.9951	4	C5H3S+
96.0028	17	C5H4S+
96.0444	12	C5H6NO+
97.0107	109	C5H5S+
105.0447	4	C6H5N2+
106.0287	1	C6H4NO+
106.995	32	C6H3S+
108.0028	49	C6H4S+
108.0444	4	C6H6NO+
109.0107	128	C6H5S+
119.0366	89	C7H5NO+
122.0058	3	C6H4NS+
123.0137	4	C6H5NS+
124.0216	31	C6H6NS+
132.9981	14	C7H3NS+
134.006	22	C7H4NS+
152.0165	6	C7H6NOS+
