Mass spectrum: Metaxalone; LC-ESI-QFT; MS2; CE: 90; R=35000; [M+H]+
Name: Metaxalone
Name: Methaxalonum
Name: 5-[(3,5-dimethylphenoxy)methyl]-1,3-oxazolidin-2-one
Formula: C12H15NO3
Exact mass: 221.10519
SMILES: CC1=CC(OCC2CNC(=O)O2)=CC(C)=C1
InChI: InChI=1S/C12H15NO3/c1-8-3-9(2)5-10(4-8)15-7-11-6-13-12(14)16-11/h3-5,11H,6-7H2,1-2H3,(H,13,14)
Instrument: Q Exactive Orbitrap Thermo Scientific
Instrument type: LC-ESI-QFT
Ms type: MS2
Ion mode: POSITIVE
Ionization: ESI
Fragmentation mode: HCD
Collision energy: 90 (nominal)
Resolution: 35000
Column name: XBridge C18 3.5um, 2.1x50mm, Waters
Retention time: 8.1 min
Base peak: 222.1126
Precursor m/z: 222.1125
Precursor type: [M+H]+
m/z	relative intensity	assigned
53.0387	131	C4H5+
55.018	156	C3H3O+
56.0496	942	C3H6N+
65.0386	50	
67.0542	157	C5H7+
74.0237	37	C2H4NO2+
77.0386	39	
79.0543	959	C6H7+
91.0542	584	C7H7+
93.07	51	C7H9+
95.0491	276	C6H7O+
103.0542	159	C8H7+
105.07	999	C8H9+
115.0542	163	C9H7+
117.0698	69	C9H9+
119.0857	46	C9H11+
128.0622	41	C10H8+
131.0491	149	C9H7O+
131.0853	94	C10H11+
133.1013	56	C10H13+
135.0804	33	C9H11O+
145.0649	41	
146.0729	163	C10H10O+
