Mass spectrum: Norfloxacin; LC-ESI-ITFT; MS2; CE: 90%; R=30000; [M+H]+
Name: Norfloxacin
Name: 1-ethyl-6-fluoro-4-oxo-7-piperazin-1-yl-1,4-dihydroquinoline-3-carboxylic acid
Formula: C16H18FN3O3
Exact mass: 319.1332
SMILES: CCN1C=C(C(O)=O)C(=O)C2=CC(F)=C(C=C12)N3CCNCC3
InChI: InChI=1S/C16H18FN3O3/c1-2-19-9-11(16(22)23)15(21)10-7-12(17)14(8-13(10)19)20-5-3-18-4-6-20/h7-9,18H,2-6H2,1H3,(H,22,23)
Instrument: LTQ Orbitrap XL Thermo Scientific
Instrument type: LC-ESI-ITFT
Ms type: MS2
Ion mode: POSITIVE
Ionization: ESI
Fragmentation mode: HCD
Collision energy: 90 % (nominal)
Resolution: 30000
Column name: XBridge C18 3.5um, 2.1x50mm, Waters
Retention time: 4.4 min
Base peak: 320.1415
Precursor m/z: 320.1405
Precursor type: [M+H]+
m/z	relative intensity	assigned
56.0495	4	C3H6N+
58.065	2	C3H8N+
70.0652	8	C4H8N+
89.0387	5	C7H5+
92.0493	3	C6H6N+
103.0542	3	C8H7+
107.0292	2	C7H4F+
109.0448	13	C7H6F+
110.0402	3	C6H5FN+
115.0543	7	C9H7+
116.0495	28	C8H6N+
117.0573	7	C8H7N+
122.04	12	C7H5FN+
128.0496	11	C9H6N+
129.0574	4	C9H7N+
130.0652	27	C9H8N+
131.0604	8	C8H7N2+
132.0244	3	C8H3FN+
133.0448	7	C9H6F+
134.0401	21	C8H5FN+
134.06	7	C8H8NO+
135.0479	43	C8H6FN+
136.0558	49	C8H7FN+
137.0272	7	C7H4FNO+
137.0512	6	C7H6FN2+
137.0636	6	C8H8FN+
140.0494	6	C10H6N+
142.0651	5	C10H8N+
143.0604	15	C9H7N2+
143.073	5	C10H9N+
144.0445	9	C9H6NO+
144.0556	8	C8H6N3+
144.0806	3	C10H10N+
146.0402	9	C9H5FN+
147.0483	3	C9H6FN+
148.0558	110	C9H7FN+
149.051	13	C8H6FN2+
149.0635	13	C9H8FN+
150.0354	4	C8H5FNO+
150.0586	5	C8H7FN2+
150.0714	11	C9H9FN+
151.0427	14	C8H6FNO+
151.0665	7	C8H8FN2+
152.0507	7	C8H7FNO+
152.0745	80	C8H9FN2+
155.0605	34	C10H7N2+
156.0683	44	C10H8N2+
157.0761	22	C10H9N2+
158.0603	7	C10H8NO+
159.0919	2	C10H11N2+
160.0434	3	C9H5FN2+
160.0558	9	C10H7FN+
161.0273	11	C9H4FNO+
161.051	25	C9H6FN2+
161.0636	28	C10H8FN+
162.0351	47	C9H5FNO+
162.0588	18	C9H7FN2+
162.0716	13	C10H9FN+
163.0428	30	C9H6FNO+
163.0667	49	C9H8FN2+
163.0788	3	C10H10FN+
164.0507	30	C9H7FNO+
164.0747	2	C9H9FN2+
165.046	13	C8H6FN2O+
165.0582	3	C9H8FNO+
165.0824	45	C9H10FN2+
167.0606	8	C11H7N2+
169.0169	2	C7H4FNO3+
169.076	17	C11H9N2+
170.0712	11	C10H8N3+
170.0838	5	C11H10N2+
171.0552	7	C10H7N2O+
171.0918	28	C11H11N2+
172.0556	3	C11H7FN+
172.0755	4	C11H10NO+
173.0509	8	C10H6FN2+
174.0351	5	C10H5FNO+
174.0589	28	C10H7FN2+
175.0303	5	C9H4FN2O+
175.0667	79	C10H8FN2+
176.0509	26	C10H7FNO+
176.0745	177	C10H9FN2+
177.0457	2	C9H6FN2O+
177.0585	24	C10H8FNO+
177.0823	15	C10H10FN2+
178.0537	17	C9H7FN2O+
178.0663	18	C10H9FNO+
179.0615	39	C9H8FN2O+
179.0745	5	C10H10FNO+
179.0981	28	C10H12FN2+
180.0453	2	C9H7FNO2+
181.0759	4	C12H9N2+
182.0713	5	C11H8N3+
182.0842	2	C9H11FN2O+
183.0553	6	C11H7N2O+
183.0792	5	C11H9N3+
183.0919	8	C12H11N2+
184.0632	18	C11H8N2O+
184.0867	1	C11H10N3+
185.071	53	C11H9N2O+
186.0588	5	C11H7FN2+
187.0667	45	C11H8FN2+
188.0381	34	C10H5FN2O+
188.0507	12	C11H7FNO+
188.0747	8	C11H9FN2+
189.0457	30	C10H6FN2O+
189.0824	400	C11H10FN2+
190.0299	2	C10H5FNO2+
190.0537	12	C10H7FN2O+
190.0664	27	C11H9FNO+
190.09	6	C11H11FN2+
191.0616	60	C10H8FN2O+
191.0742	6	C11H10FNO+
191.0984	8	C11H12FN2+
192.0696	8	C10H9FN2O+
192.0818	2	C11H11FNO+
193.0536	6	C10H8FNO2+
193.077	9	C10H10FN2O+
195.0327	10	C9H6FNO3+
196.0872	14	C12H10N3+
197.0486	3	C9H8FNO3+
197.0711	6	C12H9N2O+
197.0948	9	C12H11N3+
197.1081	2	C13H13N2+
198.0664	13	C11H8N3O+
198.0789	11	C12H10N2O+
198.1027	15	C12H12N3+
199.0494	1	C11H7N2O2+
199.075	1	C8H10FN3O2+
199.0871	4	C12H11N2O+
201.0824	5	C12H10FN2+
202.0294	2	C11H5FNO2+
202.0536	5	C11H7FN2O+
202.09	3	C12H11FN2+
203.0616	319	C11H8FN2O+
203.0982	46	C12H12FN2+
204.0694	37	C11H9FN2O+
204.1059	53	C12H13FN2+
205.0772	149	C11H10FN2O+
206.085	2	C11H11FN2O+
207.0561	3	C10H8FN2O2+
207.0928	13	C11H12FN2O+
210.0659	3	C12H8N3O+
210.1025	11	C13H12N3+
211.0871	2	C13H11N2O+
211.1106	27	C13H13N3+
212.0822	5	C12H10N3O+
213.102	3	C13H13N2O+
215.0254	9	C11H4FN2O2+
215.0615	3	C12H8FN2O+
215.0978	7	C13H12FN2+
216.0329	10	C11H5FN2O2+
216.07	4	C12H9FN2O+
217.0409	25	C11H6FN2O2+
217.0773	31	C12H10FN2O+
218.0485	7	C11H7FN2O2+
218.062	2	C12H9FNO2+
218.0852	24	C12H11FN2O+
219.0565	5	C11H8FN2O2+
219.0927	22	C12H12FN2O+
221.0722	3	C11H10FN2O2+
223.0639	9	C11H10FNO3+
224.0455	8	C12H6N3O2+
224.0822	7	C13H10N3O+
224.1189	2	C14H14N3+
225.0532	6	C12H7N3O2+
225.0899	5	C10H12FN3O2+
225.1264	2	C14H15N3+
226.061	12	C12H8N3O2+
226.0975	25	C13H12N3O+
226.1335	2	C14H16N3+
227.0823	3	C13H11N2O2+
230.0487	2	C12H7FN2O2+
230.1086	7	C13H13FN3+
231.0567	999	C12H8FN2O2+
232.0644	4	C12H9FN2O2+
233.1079	15	C13H14FN2O+
235.0517	4	C11H8FN2O3+
238.0614	6	C13H8N3O2+
238.1341	2	C15H16N3+
243.0567	1	C13H8FN2O2+
245.0723	32	C13H10FN2O2+
249.0671	14	C12H10FN2O3+
252.0766	6	C14H10N3O2+
253.0848	4	C14H11N3O2+
254.0925	42	C14H12N3O2+
254.1288	4	C15H16N3O+
258.1396	6	C15H17FN3+
259.0876	6	C14H12FN2O2+
263.0824	2	C16H11N2O2+
272.0825	1	C14H11FN3O2+
272.1032	8	C14H14N3O3+
274.0987	9	C14H13FN3O2+
282.1241	10	C16H16N3O2+
292.1098	3	C14H15FN3O3+
302.1289	12	C16H17FN3O2+
