Mass spectrum: Ethyl 3-(N-butylacetamido)propanoate; LC-ESI-QFT; MS2; CE: 30%; R=17500; [M+H]+
Name: Ethyl 3-(N-butylacetamido)propanoate
Name: Ethyl butylacetylaminopropionate
Name: ethyl 3-[acetyl(butyl)amino]propanoate
Formula: C11H21NO3
Exact mass: 215.1521
SMILES: CCCCN(CCC(=O)OCC)C(=O)C
InChI: InChI=1S/C11H21NO3/c1-4-6-8-12(10(3)13)9-7-11(14)15-5-2/h4-9H2,1-3H3
Instrument: Exploris 240 Orbitrap Thermo Scientific
Instrument type: LC-ESI-QFT
Ms type: MS2
Ion mode: POSITIVE
Ionization: ESI
Fragmentation mode: HCD
Collision energy: 30 % (nominal)
Resolution: 17500
Column name: XBridge C18 3.5um, 2.1x50mm, Waters
Retention time: 6.563 min
Base peak: 216.1592
Precursor m/z: 216.1594
Precursor type: [M+H]+
m/z	relative intensity	assigned
86.0964	209	C5H12N+
128.1069	448	C7H14NO+
170.1174	999	C9H16NO2+
174.1489	102	C9H20NO2+
216.1595	53	C11H22NO3+
