Mass spectrum: Iobitridol; LC-ESI-ITFT; MS2; CE: 15%; R=15000; [M+H]+
Name: Iobitridol
Name: 1,3-Benzenedicarboxamide, N,N'-bis(2,3-dihydroxypropyl)-5-((5-hydroxy-2-(hydroxymethyl)-1-oxopropyl)amino)-2,4,6-triiodo-N,N'-dimethyl-
Name: 1-N,3-N-bis(2,3-dihydroxypropyl)-5-[[3-hydroxy-2-(hydroxymethyl)propanoyl]amino]-2,4,6-triiodo-1-N,3-N-dimethylbenzene-1,3-dicarboxamide
Formula: C20H28I3N3O9
Exact mass: 834.8960
SMILES: Ic1c(c(I)c(c(I)c1NC(=O)C(CO)CO)C(=O)N(CC(O)CO)C)C(=O)N(CC(O)CO)C
InChI: InChI=1S/C20H28I3N3O9/c1-25(3-10(31)7-29)19(34)12-14(21)13(20(35)26(2)4-11(32)8-30)16(23)17(15(12)22)24-18(33)9(5-27)6-28/h9-11,27-32H,3-8H2,1-2H3,(H,24,33)
Instrument: LTQ Orbitrap XL Thermo Scientific
Instrument type: LC-ESI-ITFT
Ms type: MS2
Ion mode: POSITIVE
Ionization: ESI
Fragmentation mode: HCD
Collision energy: 15 % (nominal)
Resolution: 15000
Column name: XBridge C18 3.5um, 2.1x50mm, Waters
Retention time: 1.6 min
Base peak: 149.0023
Precursor m/z: 835.9032
Precursor type: [M+H]+
m/z	relative intensity	assigned
149.002	55	C11HO+
293.896	220	HIN5O6+
474.9984	77	C15H25I2O+
522.0758	67	C20H27IO8+
602.9129	481	C16H17I2N2O7+
733.8662	139	C13H25I3N2O9+
817.8916	139	C20H27I3N3O8+
835.9044	999	C20H29I3N3O9+
