Mass spectrum: 4-Amino-6-chloro-1,3-benzenedisulfonamide; LC-ESI-QFT; MS2; CE: 60; R=35000; [M+H]+
Name: 4-Amino-6-chloro-1,3-benzenedisulfonamide
Name: 4-amino-6-chlorobenzene-1,3-disulfonamide
Formula: C6H8ClN3O4S2
Exact mass: 284.96448
SMILES: C1=C(C(=CC(=C1Cl)S(=O)(=O)N)S(=O)(=O)N)N
InChI: InChI=1S/C6H8ClN3O4S2/c7-3-1-4(8)6(16(10,13)14)2-5(3)15(9,11)12/h1-2H,8H2,(H2,9,11,12)(H2,10,13,14)
Instrument: Q Exactive Orbitrap Thermo Scientific
Instrument type: LC-ESI-QFT
Ms type: MS2
Ion mode: POSITIVE
Ionization: ESI
Fragmentation mode: HCD
Collision energy: 60 (nominal)
Resolution: 35000
Column name: XBridge C18 3.5um, 2.1x50mm, Waters
Retention time: 1.7 min
Base peak: 285.9718
Precursor m/z: 285.9718
Precursor type: [M+H]+
m/z	relative intensity	assigned
62.0151	2	C5H2+
62.9996	2	C2H4Cl+
63.0229	2	C5H3+
63.9852	65	H2NOS+
64.0182	3	C4H2N+
65.0259	3	C4H3N+
66.0338	20	C4H4N+
67.0416	8	C4H5N+
68.013	4	C3H2NO+
68.0495	4	C4H6N+
69.0447	13	C3H5N2+
70.0525	18	C3H6N2+
71.0364	2	C3H5NO+
72.9839	20	C3H2Cl+
76.0182	8	C5H2N+
77.0024	2	C5HO+
78.0338	87	C5H4N+
78.9404	3	CClS+
79.0416	3	C5H5N+
80.0131	10	C4H2NO+
82.0526	4	C4H6N2+
84.9839	1	C4H2Cl+
85.9793	3	C3HClN+
86.9633	4	C3ClO+
86.9996	72	C4H4Cl+
87.9948	20	C3H3ClN+
88.0181	2	C6H2N+
89.026	84	C6H3N+
90.0102	3	C3H5ClN+
91.0291	1	C5H3N2+
92.0131	3	C5H2NO+
93.0447	145	C5H5N2+
94.0288	39	C5H4NO+
94.0525	30	C5H6N2+
95.9902	4	C4H2NS+
96.0445	29	C5H6NO+
96.984	51	C5H2Cl+
97.0397	25	C4H5N2O+
97.9793	51	C4HClN+
98.9997	4	C5H4Cl+
99.9949	28	C4H3ClN+
101.0027	68	C4H4ClN+
102.0105	60	C4H5ClN+
102.9404	12	C3ClS+
104.9561	126	C3H2ClS+
105.0448	93	C6H5N2+
106.0288	28	C6H4NO+
106.0526	109	C6H6N2+
106.9824	21	C5HNS+
107.0367	9	C6H5NO+
107.9903	19	C5H2NS+
108.9982	4	C5H3NS+
109.0397	21	C5H5N2O+
110.0475	14	C5H6N2O+
111.0554	9	C5H7N2O+
111.9949	49	C5H3ClN+
112.979	9	C5H2ClO+
112.99	2	C4H2ClN2+
113.0029	2	C5H4ClN+
114.0105	470	C5H5ClN+
114.9945	39	C5H4ClO+
115.9897	29	C4H3ClNO+
116.9558	3	C4H2ClS+
117.0215	3	C4H6ClN2+
121.0396	147	C6H5N2O+
122.0475	63	C6H6N2O+
123.9948	83	C6H3ClN+
124.009	16	C5H4N2S+
124.0393	169	C6H6NO2+
125.0026	39	C6H4ClN+
125.0347	16	C5H5N2O2+
125.9979	4	C5H3ClN2+
127.0057	12	C5H4ClN2+
127.9898	15	C5H3ClNO+
128.9976	88	C5H4ClNO+
129.0214	604	C5H6ClN2+
130.0055	459	C5H5ClNO+
131.967	154	C4H3ClNS+
131.9847	35	C4H3ClNO2+
132.9512	3	C4H2ClOS+
138.0425	3	C6H6N2O2+
139.0059	20	C3H7O4S+
139.9898	439	C6H3ClNO+
140.9976	47	C6H4ClNO+
141.0214	44	C6H6ClN2+
141.9514	151	C5HClNS+
142.0055	641	C6H5ClNO+
143.9671	9	C5H3ClNS+
143.9846	9	C5H3ClNO2+
145.0164	24	C5H6ClN2O+
152.001	16	C6H3ClN3+
153.9926	4	C6H3ClN2O+
155.0006	56	C6H4ClN2O+
155.9847	412	C6H3ClNO2+
157.0164	999	C6H6ClN2O+
158.0003	590	C6H5ClNO2+
158.9779	12	C5H4ClN2S+
159.0322	20	C6H8ClN2O+
159.9616	17	C5H3ClNOS+
160.016	204	C6H7ClNO2+
169.9461	74	C6HClNOS+
173.0113	665	C6H6ClN2O2+
173.9952	904	C6H5ClNO3+
185.0015	50	C6H5N2O3S+
187.9568	332	C6H3ClNO2S+
188.9644	25	C6H4ClNO2S+
192.9837	14	C5H6ClN2O2S+
203.9518	131	C6H3ClNO3S+
204.9834	403	C6H6ClN2O2S+
205.9675	3	C6H5ClNO3S+
220.9782	524	C6H6ClN2O3S+
