Mass spectrum: Perfluorooctanoic acid; LC-ESI-ITFT; MS2; CE: 30%; R=7500; [M-H]-
Name: Perfluorooctanoic acid
Name: PFOA
Name: 2,2,3,3,4,4,5,5,6,6,7,7,8,8,8-pentadecafluorocaprylic acid
Formula: C8HF15O2
Exact mass: 413.9737
SMILES: O=C(O)C(F)(F)C(F)(F)C(F)(F)C(F)(F)C(F)(F)C(F)(F)C(F)(F)F
InChI: InChI=1S/C8HF15O2/c9-2(10,1(24)25)3(11,12)4(13,14)5(15,16)6(17,18)7(19,20)8(21,22)23/h(H,24,25)
Instrument: LTQ Orbitrap XL Thermo Scientific
Instrument type: LC-ESI-ITFT
Ms type: MS2
Ion mode: NEGATIVE
Ionization: ESI
Fragmentation mode: HCD
Collision energy: 30 % (nominal)
Resolution: 7500
Column name: XBridge C18 3.5um, 2.1x50mm, Waters
Retention time: 12.6 min
Base peak: 412.9664
Precursor m/z: 412.9664
Precursor type: [M-H]-
m/z	relative intensity	assigned
168.9893	999	C3F7-
