Mass spectrum: Fosinopril; LC-ESI-QFT; MS2; CE: 90; R=35000; [M-H]-
Name: Fosinopril
Name: (2S,4S)-4-cyclohexyl-1-[2-[(2-methyl-1-propanoyloxypropoxy)-(4-phenylbutyl)phosphoryl]acetyl]pyrrolidine-2-carboxylic acid
Formula: C30H46NO7P
Exact mass: 563.30119
SMILES: O=C(CP(=O)(CCCCc1ccccc1)OC(OC(=O)CC)C(C)C)N2C[C@@H](C[C@H]2C(O)=O)C3CCCCC3
InChI: InChI=1S/C30H46NO7P/c1-4-28(33)37-30(22(2)3)38-39(36,18-12-11-15-23-13-7-5-8-14-23)21-27(32)31-20-25(19-26(31)29(34)35)24-16-9-6-10-17-24/h5,7-8,13-14,22,24-26,30H,4,6,9-12,15-21H2,1-3H3,(H,34,35)/t25-,26+,30?,39?/m1/s1
Instrument: Q Exactive Orbitrap Thermo Scientific
Instrument type: LC-ESI-QFT
Ms type: MS2
Ion mode: NEGATIVE
Ionization: ESI
Fragmentation mode: HCD
Collision energy: 90 (nominal)
Resolution: 35000
Column name: XBridge C18 3.5um, 2.1x50mm, Waters
Retention time: 16.6 min
Base peak: 562.2942
Precursor m/z: 562.2939
Precursor type: [M-H]-
m/z	relative intensity	assigned
60.9849	1	CH2OP-
62.9641	124	O2P-
64.0193	2	C4H2N-
64.9798	8	H2O2P-
66.0349	33	C4H4N-
68.0141	8	C3H2NO-
68.9982	16	C3HO2-
73.0295	375	C3H5O2-
76.9797	1	CH2O2P-
78.9591	120	O3P-
82.0299	233	C4H4NO-
83.0138	1	C4H3O2-
86.0248	1	C3H4NO2-
86.9642	5	C2O2P-
87.0004	2	C3H4OP-
87.9959	1	C2H3NOP-
88.9797	1	C2H2O2P-
93.9826	2	CH3O3P-
96.0092	98	C4H2NO2-
97.0295	133	C5H5O2-
102.9591	5	C2O3P-
108.0456	1	C6H6NO-
109.0169	1	C5H3NO2-
110.0248	999	C5H4NO2-
126.0197	2	C5H4NO3-
148.1132	2	C10H14N-
166.1236	2	C10H16NO-
195.0582	6	C10H12O2P-
196.1343	11	C11H18NO2-
213.0692	2	C10H14O3P-
218.1192	1	C13H16NO2-
220.1343	307	C13H18NO2-
