Mass spectrum: Aspartame; LC-ESI-ITFT; MS2; CE: 45%; R=7500; [M+H]+
Name: Aspartame
Name: 3-amino-4-[(1-benzyl-2-keto-2-methoxy-ethyl)amino]-4-keto-butyric acid
Formula: C14H18N2O5
Exact mass: 294.1216
SMILES: COC(=O)C(CC1=CC=CC=C1)NC(=O)C(CC(=O)O)N
InChI: InChI=1S/C14H18N2O5/c1-21-14(20)11(7-9-5-3-2-4-6-9)16-13(19)10(15)8-12(17)18/h2-6,10-11H,7-8,15H2,1H3,(H,16,19)(H,17,18)/t10-,11-/m0/s1
Instrument: LTQ Orbitrap XL Thermo Scientific
Instrument type: LC-ESI-ITFT
Ms type: MS2
Ion mode: POSITIVE
Ionization: ESI
Fragmentation mode: HCD
Collision energy: 45 % (nominal)
Resolution: 7500
Column name: XBridge C18 3.5um, 2.1x50mm, Waters
Retention time: 4.8 min
Base peak: 295.1297
Precursor m/z: 295.1288
Precursor type: [M+H]+
m/z	relative intensity	assigned
70.0288	54	C3H4NO+
88.0394	102	C3H6NO2+
91.0543	82	C7H7+
93.0695	3	C7H9+
103.0543	30	C8H7+
120.081	999	C8H10N+
121.0648	89	C8H9O+
129.0697	4	C10H9+
130.0652	71	C9H8N+
131.0492	31	C9H7O+
135.0803	5	C9H11O+
144.0809	11	C10H10N+
157.0648	17	C11H9O+
163.0755	23	C10H11O2+
172.0758	53	C11H10NO+
175.0867	226	C10H11N2O+
180.1021	243	C10H14NO2+
182.0599	38	C12H8NO+
189.1021	9	C11H13N2O+
190.0865	40	C11H12NO2+
200.0707	163	C12H10NO2+
217.097	13	C12H13N2O2+
218.0814	9	C12H12NO3+
235.1081	54	C12H15N2O3+
