Mass spectrum: Lincomycin; LC-ESI-QFT; MS2; CE: 60; R=35000; [M+H]+
Name: Lincomycin
Name: N-[2-hydroxy-1-(3,4,5-trihydroxy-6-methylsulfanyloxan-2-yl)propyl]-1-methyl-4-propylpyrrolidine-2-carboxamide
Formula: C18H34N2O6S
Exact mass: 406.21376
SMILES: CCCC1CC(N(C1)C)C(=O)NC(C2C(C(C(C(O2)SC)O)O)O)C(C)O
InChI: InChI=1S/C18H34N2O6S/c1-5-6-10-7-11(20(3)8-10)17(25)19-12(9(2)21)16-14(23)13(22)15(24)18(26-16)27-4/h9-16,18,21-24H,5-8H2,1-4H3,(H,19,25)
Instrument: Q Exactive Plus Orbitrap Thermo Scientific
Instrument type: LC-ESI-QFT
Ms type: MS2
Ion mode: POSITIVE
Ionization: ESI
Fragmentation mode: HCD
Collision energy: 60 (nominal)
Resolution: 35000
Column name: XBridge C18 3.5um, 2.1x50mm, Waters
Retention time: 3.6 min
Base peak: 407.2201
Precursor m/z: 407.221
Precursor type: [M+H]+
m/z	relative intensity	assigned
55.0542	4	C4H7+
58.0651	6	C3H8N+
67.0542	2	C5H7+
68.0494	1	C4H6N+
69.0699	11	C5H9+
70.0651	14	C4H8N+
82.0651	8	C5H8N+
83.0729	11	C5H9N+
83.0855	2	C6H11+
84.0808	6	C5H10N+
95.0856	5	C7H11+
96.0808	1	C6H10N+
97.0886	1	C6H11N+
98.0964	1	C6H12N+
124.1123	6	C8H14N+
126.1277	999	C8H16N+
