Mass spectrum: 8phiC8SPC; LC-ESI-QFT; MS2; CE: 30; R=35000; [M+H]+
Name: 8phiC8SPC
Name: Octacarboxy sulfophenyl carboxylic acid
Name: 8-(4-sulfophenyl)octanoic acid
Formula: C14H20O5S
Exact mass: 300.10314
SMILES: OS(=O)(=O)c1ccc(CCCCCCCC(=O)O)cc1
InChI: InChI=1S/C14H20O5S/c15-14(16)7-5-3-1-2-4-6-12-8-10-13(11-9-12)20(17,18)19/h8-11H,1-7H2,(H,15,16)(H,17,18,19)
Instrument: Q Exactive Plus Orbitrap Thermo Scientific
Instrument type: LC-ESI-QFT
Ms type: MS2
Ion mode: POSITIVE
Ionization: ESI
Fragmentation mode: HCD
Collision energy: 30 (nominal)
Resolution: 35000
Column name: XBridge C18 3.5um, 2.1x50mm, Waters
Retention time: 7.9 min
Base peak: 315.1259
Precursor m/z: 301.1104
Precursor type: [M+H]+
m/z	relative intensity	assigned
55.0542	3	C4H7+
57.0334	2	C3H5O+
57.0699	29	C4H9+
58.995	3	C2H3S+
59.0492	5	C3H7O+
67.0542	2	C5H7+
69.0699	15	C5H9+
71.0855	127	C5H11+
77.0384	3	C6H5+
79.0542	1	C6H7+
81.0699	11	C6H9+
83.0855	5	C6H11+
91.0542	10	C7H7+
95.0856	1	C7H11+
97.0648	7	C6H9O+
97.1012	1	C7H13+
99.0805	1	C6H11O+
103.0542	4	C8H7+
104.0618	9	C8H8+
105.0698	6	C8H9+
107.0491	21	C7H7O+
115.0542	1	C9H7+
116.062	4	C9H8+
117.0699	83	C9H9+
118.0776	5	C9H10+
119.0857	1	C9H11+
121.0648	1	C8H9O+
123.0262	8	C7H7S+
129.0696	1	C10H9+
130.0778	7	C10H10+
131.0856	84	C10H11+
132.0569	5	C9H8O+
132.0934	1	C10H12+
133.0649	3	C9H9O+
135.0263	18	C8H7S+
137.0056	7	C7H5OS+
139.0213	19	C7H7OS+
141.07	1	C11H9+
143.0858	3	C11H11+
145.1011	1	C11H13+
147.0261	5	C9H7S+
149.042	18	C9H9S+
151.0212	38	C8H7OS+
153.0005	18	C7H5O2S+
155.0163	4	C7H7O2S+
157.1012	1	C12H13+
159.0805	2	C11H11O+
159.0916	1	C10H11N2+
161.042	4	C10H9S+
163.0212	10	C9H7OS+
163.0576	4	C10H11S+
165.0369	14	C9H9OS+
167.0161	20	C8H7O2S+
167.0852	1	C13H11+
168.0935	14	C13H12+
169.0319	1	C8H9O2S+
169.1015	1	C13H13+
170.1089	5	C13H14+
171.0111	262	C7H7O3S+
172.0345	2	C11H8S+
172.1247	20	C13H16+
173.1325	86	C13H17+
174.1405	3	C13H18+
175.0579	1	C11H11S+
177.0372	4	C10H9OS+
177.0733	9	C11H13S+
179.0525	10	C10H11OS+
181.0317	35	C9H9O2S+
183.1168	4	C14H15+
184.1247	8	C14H16+
185.0267	999	C8H9O3S+
186.0498	5	C12H10S+
187.0576	4	C12H11S+
191.144	1	C13H19O+
193.0677	4	C11H13OS+
195.0475	91	C10H11O2S+
197.0267	9	C9H9O3S+
199.0424	535	C9H11O3S+
201.0732	29	C13H13S+
201.1387	7	C13H17N2+
203.0373	18	C8H11O4S+
211.0576	2	C14H11S+
213.058	187	C10H13O3S+
217.0529	13	C9H13O4S+
219.0839	38	C13H15OS+
229.0683	1	C14H13OS+
231.0686	19	C10H15O4S+
237.0944	39	C13H17O2S+
247.0788	12	C14H15O2S+
255.105	57	C13H19O3S+
265.089	13	C14H17O3S+
273.1153	6	C13H21O4S+
283.0999	71	C14H19O4S+
301.1105	193	C14H21O5S+
