Mass spectrum: Isoxaben; LC-ESI-QFT; MS2; CE: 150; R=35000; [M+H]+
Name: Isoxaben
Name: 2,6-dimethoxy-N-[3-(3-methylpentan-3-yl)-1,2-oxazol-5-yl]benzamide
Formula: C18H24N2O4
Exact mass: 332.17361
SMILES: CCC(C)(CC)C1=NOC(=C1)NC(=O)C2=C(C=CC=C2OC)OC
InChI: InChI=1S/C18H24N2O4/c1-6-18(3,7-2)14-11-15(24-20-14)19-17(21)16-12(22-4)9-8-10-13(16)23-5/h8-11H,6-7H2,1-5H3,(H,19,21)
Instrument: Q Exactive Plus Orbitrap Thermo Scientific
Instrument type: LC-ESI-QFT
Ms type: MS2
Ion mode: POSITIVE
Ionization: ESI
Fragmentation mode: HCD
Collision energy: 150 (nominal)
Resolution: 35000
Column name: XBridge C18 3.5um, 2.1x50mm, Waters
Retention time: 10.5 min
Base peak: 333.1799
Precursor m/z: 333.1809
Precursor type: [M+H]+
m/z	relative intensity	assigned
50.0151	70	C4H2+
51.0229	49	C4H3+
53.0022	61	C3HO+
53.0386	15	C4H5+
54.0464	10	C4H6+
55.0178	306	C3H3O+
61.0072	2	C5H+
62.015	7	C5H2+
63.0229	113	C5H3+
64.0307	64	C5H4+
65.0021	4	C4HO+
65.0385	22	C5H5+
66.01	2	C4H2O+
66.0463	19	C5H6+
68.9971	14	C3HO2+
74.015	10	C6H2+
75.0228	93	C6H3+
77.0385	33	C6H5+
78.0463	1	C6H6+
79.0178	233	C5H3O+
81.0335	6	C5H5O+
90.01	2	C6H2O+
91.0179	4	C6H3O+
92.0256	82	C6H4O+
92.0368	6	C5H4N2+
94.0413	3	C6H6O+
95.0491	32	C6H7O+
105.0447	21	C6H5N2+
107.0127	999	C6H3O2+
119.0127	10	C7H3O2+
120.0205	2	C7H4O2+
121.0282	2	C7H5O2+
122.0361	27	C7H6O2+
125.0233	13	C6H5O3+
139.0388	4	C7H7O3+
150.031	2	C8H6O3+
