Mass spectrum: 1-[(4-Chlorophenyl)phenylmethyl]piperazine; LC-ESI-QFT; MS2; CE: 180; R=35000; [M+H]+
Name: 1-[(4-Chlorophenyl)phenylmethyl]piperazine
Name: Norchlorcyclizine
Name: 1-(4-Chlorobenzhydryl) piperazine
Formula: C17H19ClN2
Exact mass: 286.12368
SMILES: C1CN(CCN1)C(C2=CC=CC=C2)C3=CC=C(C=C3)Cl
InChI: InChI=1S/C17H19ClN2/c18-16-8-6-15(7-9-16)17(14-4-2-1-3-5-14)20-12-10-19-11-13-20/h1-9,17,19H,10-13H2
Instrument: Q Exactive Plus Orbitrap Thermo Scientific
Instrument type: LC-ESI-QFT
Ms type: MS2
Ion mode: POSITIVE
Ionization: ESI
Fragmentation mode: HCD
Collision energy: 180 (nominal)
Resolution: 35000
Column name: XBridge C18 3.5um, 2.1x50mm, Waters
Retention time: 9.0 min
Base peak: 287.1308
Precursor m/z: 287.131
Precursor type: [M+H]+
m/z	relative intensity	assigned
50.0151	6	C4H2+
51.023	4	C4H3+
53.0022	7	C3HO+
61.0073	15	C5H+
62.0151	59	C5H2+
63.023	219	C5H3+
65.0386	106	C5H5+
72.984	105	C3H2Cl+
74.0151	23	C6H2+
75.0229	34	C6H3+
76.0307	12	C6H4+
77.0386	4	C6H5+
78.0465	1	C6H6+
85.0073	1	C7H+
86.0151	36	C7H2+
87.023	68	C7H3+
88.0308	23	C7H4+
89.0386	261	C7H5+
90.0465	7	C7H6+
91.0543	53	C7H7+
95.0493	8	C3H10ClN+
96.9839	3	C5H2Cl+
98.0152	14	C8H2+
98.9997	40	C5H4Cl+
101.0386	4	C8H5+
102.0464	13	C8H6+
105.0449	4	C6H5N2+
113.0387	101	C9H5+
114.0465	23	C9H6+
115.0543	804	C9H7+
118.0413	1	C5H9ClN+
119.0493	1	C5H10ClN+
122.9996	7	C7H4Cl+
125.0155	1	C7H6Cl+
125.0384	2	C10H5+
126.0465	48	C10H6+
127.0543	4	C10H7+
128.0624	1	C10H8+
129.0446	6	C8H5N2+
132.0572	11	C6H11ClN+
136.0076	1	C8H5Cl+
137.0387	27	C11H5+
138.0465	30	C11H6+
139.0543	667	C11H7+
140.0621	11	C11H8+
145.0653	1	C7H12ClN+
149.0155	11	C9H6Cl+
150.0466	23	C12H6+
151.0545	1	C12H7+
152.0623	1	C12H8+
155.0605	3	C10H7N2+
162.0465	45	C13H6+
163.0544	998	C13H7+
164.0622	501	C13H8+
165.07	999	C13H9+
168.0571	195	C9H11ClN+
169.0649	7	C9H12ClN+
196.0521	75	C10H11ClNO+
