Mass spectrum: Azoxystrobin (free acid); LC-ESI-ITFT; MS2; CE: 60%; R=15000; [M+H]+
Name: Azoxystrobin (free acid)
Formula: C21H15N3O5
Exact mass: 389.1012
SMILES: O=C(O)/C(=C\OC)c3ccccc3Oc2cc(Oc1ccccc1C#N)ncn2
InChI: InChI=1S/C21H15N3O5/c1-27-12-16(21(25)26)15-7-3-5-9-18(15)29-20-10-19(23-13-24-20)28-17-8-4-2-6-14(17)11-22/h2-10,12-13H,1H3,(H,25,26)/b16-12-
Instrument: LTQ Orbitrap XL Thermo Scientific
Instrument type: LC-ESI-ITFT
Ms type: MS2
Ion mode: POSITIVE
Ionization: ESI
Fragmentation mode: HCD
Collision energy: 60 % (nominal)
Resolution: 15000
Column name: XBridge C18 3.5um, 2.1x50mm, Waters
Retention time: 8.8 min
Base peak: 390.1088
Precursor m/z: 390.1084
Precursor type: [M+H]+
m/z	relative intensity	assigned
68.0133	3	C3H2NO+
78.0338	3	C5H4N+
79.0545	6	C6H7+
82.0288	6	C4H4NO+
83.0128	4	C4H3O2+
89.0386	16	C7H5+
91.0543	12	C7H7+
102.0461	3	C8H6+
103.0417	4	C7H5N+
103.0543	14	C8H7+
104.0495	7	C7H6N+
105.0336	8	C7H5O+
106.0653	11	C7H8N+
107.0492	19	C7H7O+
114.0338	17	C8H4N+
116.0497	16	C8H6N+
117.0574	7	C8H7N+
118.0415	16	C8H6O+
119.0367	7	C7H5NO+
119.049	4	C8H7O+
120.0445	68	C7H6NO+
121.0525	3	C7H7NO+
121.0648	11	C8H9O+
127.0417	13	C9H5N+
128.0494	5	C9H6N+
129.0337	23	C9H5O+
129.0448	114	C8H5N2+
130.029	12	C8H4NO+
130.04	67	C7H4N3+
130.0527	9	C8H6N2+
130.065	7	C9H8N+
131.0366	7	C8H5NO+
131.0491	12	C9H7O+
131.0604	8	C8H7N2+
132.0446	22	C8H6NO+
133.0283	11	C8H5O2+
133.0523	90	C8H7NO+
134.0601	214	C8H8NO+
141.0448	56	C9H5N2+
142.0527	4	C9H6N2+
143.0364	22	C9H5NO+
143.0604	112	C9H7N2+
144.0445	18	C9H6NO+
145.0285	43	C9H5O2+
145.0524	74	C9H7NO+
146.0239	9	C8H4NO2+
146.0603	8	C9H8NO+
147.0439	9	C9H7O2+
148.0522	4	C9H8O2+
155.0603	33	C10H7N2+
156.0444	286	C10H6NO+
157.0284	27	C10H5O2+
157.0517	7	C10H7NO+
158.0366	3	C10H6O2+
158.0606	3	C10H8NO+
159.0316	8	C9H5NO2+
159.0555	17	C9H7N2O+
160.0395	10	C9H6NO2+
160.0753	5	C10H10NO+
160.0875	4	C9H10N3+
161.0471	6	C9H7NO2+
161.071	13	C9H9N2O+
162.0314	11	C9H6O3+
162.0548	4	C9H8NO2+
169.0397	96	C10H5N2O+
170.0231	5	C10H4NO2+
170.0477	27	C10H6N2O+
170.0602	7	C11H8NO+
171.0317	12	C10H5NO2+
171.0554	71	C10H7N2O+
172.0394	401	C10H6NO2+
173.0471	40	C10H7NO2+
174.0553	6	C10H8NO2+
175.039	4	C10H7O3+
176.0705	3	C10H10NO2+
177.0547	32	C10H9O3+
182.0475	40	C11H6N2O+
182.0714	27	C11H8N3+
183.0553	669	C11H7N2O+
184.0395	19	C11H6NO2+
185.0241	4	C11H5O3+
186.0551	21	C11H8NO2+
187.0503	33	C10H7N2O2+
195.0546	5	C12H7N2O+
197.0345	6	C11H5N2O2+
197.0713	9	C12H9N2O+
198.0423	7	C11H6N2O2+
198.0784	4	C12H10N2O+
199.0502	169	C11H7N2O2+
200.0343	264	C11H6NO3+
201.0421	213	C11H7NO3+
201.0658	41	C11H9N2O2+
207.055	7	C13H7N2O+
210.0425	72	C12H6N2O2+
210.0662	24	C12H8N3O+
211.0503	52	C12H7N2O2+
216.0656	67	C12H10NO3+
218.0844	6	C15H10N2+
227.0451	9	C12H7N2O3+
229.0759	6	C16H9N2+
231.0917	12	C16H11N2+
232.0753	7	C16H10NO+
232.0877	3	C17H12O+
233.071	8	C15H9N2O+
235.0628	4	C15H9NO2+
242.0324	130	C12H6N2O4+
244.0871	24	C16H10N3+
245.0709	27	C16H9N2O+
246.0792	27	C16H10N2O+
247.0868	13	C16H11N2O+
257.0714	8	C17H9N2O+
258.0788	12	C17H10N2O+
259.0866	11	C17H11N2O+
260.0715	8	C17H10NO2+
261.0783	16	C17H11NO2+
261.1024	6	C17H13N2O+
262.0867	7	C17H12NO2+
271.0859	7	C18H11N2O+
272.0819	170	C17H10N3O+
273.0661	123	C17H9N2O2+
273.0898	116	C17H11N3O+
274.074	44	C17H10N2O2+
275.0816	40	C17H11N2O2+
283.0741	4	C18H9N3O+
284.0813	17	C18H10N3O+
285.0893	8	C18H11N3O+
286.0723	7	C18H10N2O2+
287.0812	29	C18H11N2O2+
288.0665	12	C18H10NO3+
288.0892	5	C18H12N2O2+
288.1128	5	C18H14N3O+
289.0971	6	C18H13N2O2+
300.0768	187	C18H10N3O2+
301.0848	336	C18H11N3O2+
312.0771	12	C19H10N3O2+
314.0922	12	C19H12N3O2+
315.1005	9	C19H13N3O2+
316.1074	6	C19H14N3O2+
328.0718	492	C19H10N3O3+
329.0797	999	C21H13O4+
344.1033	74	C20H14N3O3+
372.1091	24	C20H14N5O3+
