Mass spectrum: MCLW; LC-ESI-QFT; MS2; CE: 45%; R=17500; [M-H]-
Name: MCLW
Name: Microcystin LW
Name: (5R,8S,11R,12S,15S,18S,19S,22R)-15-(1H-indol-3-ylmethyl)-18-[(1E,3E,5S,6S)-6-methoxy-3,5-dimethyl-7-phenylhepta-1,3-dienyl]-1,5,12,19-tetramethyl-2-methylidene-8-(2-methylpropyl)-3,6,9,13,16,20,25-heptaoxo-1,4,7,10,14,17,21-heptazacyclopentacosane-11,22-dicarboxylic acid
Class: NA
Formula: C54H72N8O12
Exact mass: 1024.5270
SMILES: CO[C@@H](Cc1ccccc1)[C@@H](C)/C=C(C)/C=C/[C@@H]2NC(=O)[C@H](Cc3c[nH]c4ccccc34)NC(=O)[C@@H](C)[C@@H](NC(=O)[C@H](CC(C)C)NC(=O)[C@@H](C)NC(=O)C(=C)N(C)C(=O)CC[C@@H](NC(=O)[C@H]2C)C(O)=O)C(O)=O
InChI: InChI=1S/C54H72N8O12/c1-29(2)24-42-52(69)61-46(54(72)73)33(6)48(65)59-43(27-37-28-55-40-19-15-14-18-38(37)40)51(68)57-39(21-20-30(3)25-31(4)44(74-10)26-36-16-12-11-13-17-36)32(5)47(64)58-41(53(70)71)22-23-45(63)62(9)35(8)50(67)56-34(7)49(66)60-42/h11-21,25,28-29,31-34,39,41-44,46,55H,8,22-24,26-27H2,1-7,9-10H3,(H,56,67)(H,57,68)(H,58,64)(H,59,65)(H,60,66)(H,61,69)(H,70,71)(H,72,73)/b21-20+,30-25+/t31-,32-,33-,34+,39-,41+,42-,43-,44-,46+/m0/s1
Instrument: Q Exactive Plus Orbitrap Thermo Scientific
Instrument type: LC-ESI-QFT
Ms type: MS2
Ion mode: NEGATIVE
Ionization: ESI
Fragmentation mode: HCD
Collision energy: 45 % (nominal)
Resolution: 17500
Column name: XBridge C18 3.5um, 2.1x50mm, Waters
Retention time: 11.783 min
Base peak: 1023.5204
Precursor m/z: 1023.5197
Precursor type: [M-H]-
m/z	relative intensity	assigned
72.0456	22	C3H6NO-
73.0296	13	C3H5O2-
73.0409	5	C2H5N2O-
74.0248	47	C2H4NO2-
80.0505	7	C5H6N-
82.0298	26	C4H4NO-
82.0662	13	C5H8N-
83.0251	10	C3H3N2O-
84.0456	40	C4H6NO-
85.0406	4	C3H5N2O-
86.025	5	C3H4NO2-
86.0611	4	C4H8NO-
87.0565	26	C3H7N2O-
88.0406	6	C3H6NO2-
91.0556	5	C7H7-
95.0251	9	C4H3N2O-
96.0455	14	C5H6NO-
96.0821	4	C6H10N-
97.0407	25	C4H5N2O-
98.0248	10	C4H4NO2-
98.0612	12	C5H8NO-
99.0202	15	C3H3N2O2-
99.0564	102	C4H7N2O-
100.0039	11	C3H2NO3-
100.0405	17	C4H6NO2-
102.056	5	C4H8NO2-
108.0454	14	C6H6NO-
109.017	11	C5H3NO2-
109.0772	8	C6H9N2-
110.0248	258	C5H4NO2-
110.0611	11	
111.0202	13	C4H3N2O2-
111.0564	20	C5H7N2O-
112.0405	58	C5H6NO2-
112.0767	15	C6H10NO-
113.0356	32	C4H5N2O2-
116.0506	26	C8H6N-
122.0247	4	C6H4NO2-
122.0484	4	C6H6N2O-
122.0613	10	C7H8NO-
122.0974	7	C8H12N-
123.0327	10	C6H5NO2-
123.0564	64	C6H7N2O-
124.0404	269	C6H6NO2-
125.0357	12	C5H5N2O2-
125.0719	24	C6H9N2O-
126.0561	8	C6H8NO2-
127.0512	74	C5H7N2O2-
127.0877	15	C6H11N2O-
128.0353	999	C5H6NO3-
129.0672	12	C5H9N2O2-
129.1033	154	C6H13N2O-
130.0508	18	C5H8NO3-
130.0661	2	C9H8N-
130.087	23	C6H12NO2-
131.0864	52	C10H11-
135.0565	12	C7H7N2O-
136.0406	6	C7H6NO2-
136.0764	7	C8H10NO-
136.1129	6	C9H14N-
137.0718	8	C7H9N2O-
138.0434	18	C6H6N2O2-
138.0559	10	C7H8NO2-
139.0511	8	C6H7N2O2-
139.0876	120	C7H11N2O-
140.0715	10	C7H10NO2-
141.0668	69	C6H9N2O2-
142.051	10	C6H8NO3-
142.066	48	C10H8N-
145.0616	5	C5H9N2O3-
148.0761	4	C7H8N4-
149.0354	21	C7H5N2O2-
149.0717	11	C8H9N2O-
150.0195	8	C7H4NO3-
150.0559	42	C8H8NO2-
150.067	5	C7H8N3O-
150.0918	3	C9H12NO-
151.051	8	C7H7N2O2-
151.0875	8	C8H11N2O-
152.0825	9	C7H10N3O-
153.0667	150	C7H9N2O2-
153.1028	19	C8H13N2O-
154.0982	4	C7H12N3O-
155.0825	94	C7H11N2O2-
157.0768	7	C10H9N2-
157.0977	3	C7H13N2O2-
157.1344	5	C8H17N2O-
158.093	8	C6H12N3O2-
162.0918	4	C8H10N4-
164.0589	4	C8H8N2O2-
164.0716	3	C9H10NO2-
165.0667	16	C8H9N2O2-
165.1028	242	C9H13N2O-
166.0863	7	C7H10N4O-
166.0984	7	C8H12N3O-
167.046	29	C7H7N2O3-
167.0823	58	C8H11N2O2-
167.1184	5	C9H15N2O-
169.0977	5	C8H13N2O2-
169.1342	8	C9H17N2O-
170.0604	4	C9H6N4-
170.093	40	C7H12N3O2-
171.0775	8	C7H11N2O3-
177.1026	7	C8H11N5-
179.1184	10	C10H15N2O-
180.077	10	C6H8N6O-
180.1139	111	C9H14N3O-
181.0612	20	C8H9N2O3-
181.0978	16	C9H13N2O2-
182.1291	203	C7H14N6-
183.1131	43	C7H13N5O-
184.0607	4	C6H8N4O3-
185.0714	16	C11H9N2O-
185.1297	6	C9H17N2O2-
194.1289	11	C8H14N6-
195.1134	11	C10H15N2O2-
196.1456	6	C10H18N3O-
198.0885	3	C8H12N3O3-
198.1236	45	C7H14N6O-
200.1395	192	C7H16N6O-
201.1234	6	C7H15N5O2-
202.0982	14	C11H12N3O-
205.0976	5	C11H13N2O2-
208.1086	35	C10H14N3O2-
210.0874	9	C7H10N6O2-
210.1244	7	C10H16N3O2-
211.0711	30	C7H9N5O3-
212.1395	21	C8H16N6O-
220.1088	5	C11H14N3O2-
222.1242	26	C11H16N3O2-
222.1592	14	C10H18N6-
223.1087	10	C11H15N2O3-
224.1413	6	C13H20O3-
226.1187	45	C8H14N6O2-
228.0773	9	C12H10N3O2-
236.1395	3	C10H16N6O-
237.1637	12	C2H21N8O5-
238.1561	16	C12H20N3O2-
240.1344	13	C9H16N6O2-
240.1708	11	C10H20N6O-
253.1657	6	C11H25O6-
264.1372	4	CH22N5O10-
265.1657	466	C12H25O6-
273.1233	5	C13H15N5O2-
280.1687	10	C2H26N5O10-
281.1644	53	C16H19N5-
283.1761	123	C11H21N7O2-
291.1476	5	C16H21NO4-
293.1609	27	C13H25O7-
296.1019	5	C13H16N2O6-
307.1772	5	C15H23N4O3-
311.1727	13	C14H23N4O4-
312.1963	12	C5H32N2O12-
313.1844	34	C9H25N6O6-
325.1871	3	C14H29O8-
337.1888	5	C17H21N8-
352.1896	4	C5H30N5O12-
411.2642	7	C23H33N5O2-
423.2457	5	C17H35N4O8-
437.2441	15	C26H33N2O4-
455.2694	13	C15H41N3O12-
