Mass spectrum: 3-Hydroxycarbofuran; LC-ESI-QFT; MS2; CE: 180%; R=17500; [M+H]+
Name: 3-Hydroxycarbofuran
Name: (3-hydroxy-2,2-dimethyl-3H-1-benzofuran-7-yl) N-methylcarbamate
Formula: C12H15NO4
Exact mass: 237.1001
SMILES: CC1(C(C2=C(O1)C(=CC=C2)OC(=O)NC)O)C
InChI: InChI=1S/C12H15NO4/c1-12(2)10(14)7-5-4-6-8(9(7)17-12)16-11(15)13-3/h4-6,10,14H,1-3H3,(H,13,15)
Instrument: Exploris 240 Orbitrap Thermo Scientific
Instrument type: LC-ESI-QFT
Ms type: MS2
Ion mode: POSITIVE
Ionization: ESI
Fragmentation mode: HCD
Collision energy: 180 % (nominal)
Resolution: 17500
Column name: XBridge C18 3.5um, 2.1x50mm, Waters
Retention time: 4.051 min
Base peak: 220.0968
Precursor m/z: 238.1074
Precursor type: [M+H]+
m/z	relative intensity	assigned
51.0229	656	C4H3+
53.0385	292	C4H5+
55.0179	156	C3H3O+
58.0287	631	C2H4NO+
63.0229	202	C5H3+
65.0385	999	C5H5+
77.0385	637	C6H5+
79.0543	90	C6H7+
81.0332	68	C5H5O+
89.0385	186	C7H5+
91.0542	998	C7H7+
95.0489	186	C6H7O+
102.0463	169	C8H6+
107.0493	82	C7H7O+
115.0542	646	C9H7+
