Mass spectrum: Pretilachlor; LC-ESI-QFT; MS2; CE: 90; R=35000; [M+H]+
Name: Pretilachlor
Name: 2-chloranyl-N-(2,6-diethylphenyl)-N-(2-propoxyethyl)ethanamide
Formula: C17H26ClNO2
Exact mass: 311.16521
SMILES: ClCC(=O)N(c1c(cccc1CC)CC)CCOCCC
InChI: InChI=1S/C17H26ClNO2/c1-4-11-21-12-10-19(16(20)13-18)17-14(5-2)8-7-9-15(17)6-3/h7-9H,4-6,10-13H2,1-3H3
Instrument: Q Exactive Orbitrap Thermo Scientific
Instrument type: LC-ESI-QFT
Ms type: MS2
Ion mode: POSITIVE
Ionization: ESI
Fragmentation mode: HCD
Collision energy: 90 (nominal)
Resolution: 35000
Column name: XBridge C18 3.5um, 2.1x50mm, Waters
Retention time: 14.4 min
Base peak: 312.173
Precursor m/z: 312.1725
Precursor type: [M+H]+
m/z	relative intensity	assigned
62.9997	2	C2H4Cl+
65.0386	10	C5H5+
75.9949	12	C2H3ClN+
76.9789	88	C2H2ClO+
77.0384	10	C6H5+
79.0543	191	C6H7+
90.0104	2	C3H5ClN+
90.0463	1	C7H6+
91.0543	225	C7H7+
93.0699	26	C7H9+
94.0651	17	C6H8N+
95.0492	96	C6H7O+
103.0543	152	C8H7+
104.0621	9	C8H8+
105.07	571	C8H9+
106.0651	28	C7H8N+
115.0543	17	C9H7+
116.0621	9	C9H8+
117.0574	123	C8H7N+
117.0699	28	C9H9+
118.0652	275	C8H8N+
119.073	113	C8H9N+
119.0855	11	C9H11+
120.0808	221	C8H10N+
121.0648	15	C8H9O+
122.0964	2	C8H12N+
128.062	6	C10H8+
129.0698	13	C10H9+
130.0653	154	C9H8N+
131.0731	151	C9H9N+
131.0857	18	C10H11+
132.0808	999	C9H10N+
133.0887	8	C9H11N+
133.1012	5	C10H13+
134.0965	28	C9H12N+
143.0732	13	C10H9N+
144.0809	109	C10H10N+
145.0887	76	C10H11N+
146.06	11	C9H8NO+
146.0965	111	C10H12N+
147.1044	754	C10H13N+
148.1121	136	C10H14N+
149.0963	1	C10H13O+
153.0469	2	C9H10Cl+
156.0806	6	C11H10N+
157.0887	16	C11H11N+
158.0966	38	C11H12N+
159.1048	6	C11H13N+
160.1122	246	C11H14N+
161.0835	6	C10H11NO+
170.0367	15	C8H9ClNO+
171.104	1	C12H13N+
172.1122	14	C12H14N+
173.1203	1	C12H15N+
174.0913	9	C11H12NO+
174.1278	22	C12H16N+
176.1435	155	C12H18N+
178.0416	2	C10H9ClN+
180.0576	1	C10H11ClN+
182.0734	1	C10H13ClN+
188.1072	39	C12H14NO+
196.0525	6	C10H11ClNO+
198.0682	2	C10H13ClNO+
202.1231	14	C13H16NO+
252.1155	16	C14H19ClNO+
