Mass spectrum: Nitenpyram; LC-ESI-QFT; MS2; CE: 45%; R=17500; [M+H]+
Name: Nitenpyram
Name: N-((6-chloropyridin-3-yl)methyl)-N-ethyl-N`-methyl-2-nitroethene-1,1-diamine
Name: 1-N`-[(6-chloropyridin-3-yl)methyl]-1-N`-ethyl-1-N-methyl-2-nitroethene-1,1-diamine
Formula: C11H15ClN4O2
Exact mass: 270.0884
SMILES: CCN(CC1=CN=C(C=C1)Cl)C(=C[N+](=O)[O-])NC
InChI: InChI=1S/C11H15ClN4O2/c1-3-15(11(13-2)8-16(17)18)7-9-4-5-10(12)14-6-9/h4-6,8,13H,3,7H2,1-2H3
Instrument: Exploris 240 Orbitrap Thermo Scientific
Instrument type: LC-ESI-QFT
Ms type: MS2
Ion mode: POSITIVE
Ionization: ESI
Fragmentation mode: HCD
Collision energy: 45 % (nominal)
Resolution: 17500
Column name: XBridge C18 3.5um, 2.1x50mm, Waters
Retention time: 2.582 min
Base peak: 271.0955
Precursor m/z: 271.0956
Precursor type: [M+H]+
m/z	relative intensity	assigned
56.0495	999	C3H6N+
58.0651	116	C3H8N+
70.0528	29	C3H6N2+
85.0398	34	C3H5N2O+
85.076	38	C4H9N2+
85.0886	51	C5H11N+
86.0838	205	C4H10N2+
98.0713	34	C4H8N3+
99.0917	644	C5H11N2+
112.087	39	C5H10N3+
114.103	19	C5H12N3+
115.0866	29	C5H11N2O+
126.0106	181	C6H5ClN+
128.0266	17	C6H7ClN+
130.0977	16	C5H12N3O+
139.0058	25	C6H4ClN2+
160.0867	23	C9H10N3+
167.0375	29	C8H8ClN2+
169.053	146	C8H10ClN2+
181.0535	22	C9H10ClN2+
188.1183	33	C11H14N3+
189.1259	39	C11H15N3+
190.1339	113	C11H16N3+
194.0612	81	C10H11ClN2+
195.068	55	C10H12ClN2+
196.0637	578	C9H11ClN3+
210.0794	176	C10H13ClN3+
224.0952	263	C11H15ClN3+
225.1022	71	C11H16ClN3+
237.0903	99	C11H14ClN4+
