Mass spectrum: Pyribencarb; LC-ESI-QFT; MS2; CE: 180%; R=17500; [M+H]+
Name: Pyribencarb
Name: methyl {2-chloro-5-[(1E)-1-(6-methyl-2-pyridylmethoxyimino)ethyl]benzyl}carbamate
Name: methyl N-[[2-chloro-5-[C-methyl-N-[(6-methylpyridin-2-yl)methoxy]carbonimidoyl]phenyl]methyl]carbamate
Formula: C18H20ClN3O3
Exact mass: 361.1193
SMILES: CC1=NC(=CC=C1)CON=C(C)C2=CC(=C(C=C2)Cl)CNC(=O)OC
InChI: InChI=1S/C18H20ClN3O3/c1-12-5-4-6-16(21-12)11-25-22-13(2)14-7-8-17(19)15(9-14)10-20-18(23)24-3/h4-9H,10-11H2,1-3H3,(H,20,23)
Instrument: Exploris 240 Orbitrap Thermo Scientific
Instrument type: LC-ESI-QFT
Ms type: MS2
Ion mode: POSITIVE
Ionization: ESI
Fragmentation mode: HCD
Collision energy: 180 % (nominal)
Resolution: 17500
Column name: XBridge C18 3.5um, 2.1x50mm, Waters
Retention time: 5.920 min
Base peak: 362.1261
Precursor m/z: 362.1266
Precursor type: [M+H]+
m/z	relative intensity	assigned
50.015	153	C4H2+
51.0229	740	C4H3+
53.0385	175	C4H5+
61.0073	41	C5H+
62.0151	741	C5H2+
63.0229	921	C5H3+
65.0385	400	C5H5+
66.0464	80	C5H6+
72.9839	999	C3H2Cl+
74.015	216	C6H2+
75.0228	513	C6H3+
76.0183	83	C5H2N+
76.0306	64	C6H4+
77.0385	301	C6H5+
78.0338	105	C5H4N+
78.0464	82	C6H6+
87.0229	129	C7H3+
88.0307	61	C7H4+
89.0385	721	C7H5+
93.0572	62	C6H7N+
94.0653	87	C6H8N+
96.9839	990	C5H2Cl+
105.0449	83	C6H5N2+
106.065	37	C7H8N+
122.9997	82	C7H4Cl+
