Mass spectrum: Phosmet; LC-ESI-QFT; MS2; CE: 75; R=35000; [M+H]+
Name: Phosmet
Name: Fosmet
Name: 2-(dimethoxyphosphinothioylsulfanylmethyl)isoindole-1,3-dione
Formula: C11H12NO4PS2
Exact mass: 316.99454
SMILES: COP(=S)(OC)SCN1C(=O)C2=CC=CC=C2C1=O
InChI: InChI=1S/C11H12NO4PS2/c1-15-17(18,16-2)19-7-12-10(13)8-5-3-4-6-9(8)11(12)14/h3-6H,7H2,1-2H3
Instrument: Q Exactive Orbitrap Thermo Scientific
Instrument type: LC-ESI-QFT
Ms type: MS2
Ion mode: POSITIVE
Ionization: ESI
Fragmentation mode: HCD
Collision energy: 75 (nominal)
Resolution: 35000
Column name: XBridge C18 3.5um, 2.1x50mm, Waters
Retention time: 9.5 min
Base peak: 149.0234
Precursor m/z: 318.0018
Precursor type: [M+H]+
m/z	relative intensity	assigned
50.0152	2	C4H2+
51.0229	3	C4H3+
53.0387	5	C4H5+
67.0543	6	C5H7+
69.0699	2	C5H9+
77.0385	32	C6H5+
81.0335	5	C5H5O+
92.0255	4	C6H4O+
92.0369	3	C5H4N2+
95.0492	192	C6H7O+
104.0257	3	C7H4O+
104.0496	50	C7H6N+
105.0336	262	C7H5O+
105.0448	38	C6H5N2+
120.0447	10	C7H6NO+
130.0289	88	C8H4NO+
130.0401	23	C7H4N3+
132.0443	34	C8H6NO+
133.0285	633	C8H5O2+
160.0394	999	C9H6NO2+
178.0502	2	C9H8NO3+
