Mass spectrum: Phenylbutazone; LC-ESI-QFT; MS2; CE: 45; R=35000; [M-H]-
Name: Phenylbutazone
Name: 4-butyl-1,2-diphenylpyrazolidine-3,5-dione
Formula: C19H20N2O2
Exact mass: 308.15248
SMILES: CCCCC1C(=O)N(N(C1=O)C2=CC=CC=C2)C3=CC=CC=C3
InChI: InChI=1S/C19H20N2O2/c1-2-3-14-17-18(22)20(15-10-6-4-7-11-15)21(19(17)23)16-12-8-5-9-13-16/h4-13,17H,2-3,14H2,1H3
Instrument: Q Exactive Plus Orbitrap Thermo Scientific
Instrument type: LC-ESI-QFT
Ms type: MS2
Ion mode: NEGATIVE
Ionization: ESI
Fragmentation mode: HCD
Collision energy: 45 (nominal)
Resolution: 35000
Column name: XBridge C18 3.5um, 2.1x50mm, Waters
Retention time: 11.2 min
Base peak: 307.1448
Precursor m/z: 307.1452
Precursor type: [M-H]-
m/z	relative intensity	assigned
77.0397	6	C6H5-
80.0506	22	C5H6N-
82.0662	101	C5H8N-
92.0506	436	C6H6N-
93.0345	2	C6H5O-
95.0502	74	C6H7O-
101.0607	2	C5H9O2-
102.0349	1	C7H4N-
116.0506	5	C8H6N-
118.0299	5	C7H4NO-
118.0663	13	C8H8N-
120.0455	7	C7H6NO-
121.0297	4	C7H5O2-
131.0376	999	C8H5NO-
132.0454	25	C8H6NO-
132.0818	31	C9H10N-
142.0663	4	C10H8N-
144.0455	35	C9H6NO-
155.0742	33	C11H9N-
156.0816	1	C11H10N-
157.0533	119	C10H7NO-
158.0975	79	C11H12N-
160.1132	297	C11H14N-
161.0972	4	C11H13O-
168.0819	146	C12H10N-
170.0975	247	C12H12N-
171.069	1	C11H9NO-
176.108	19	C11H14NO-
186.0924	66	C12H12NO-
187.0513	30	C10H7N2O2-
187.1003	3	C12H13NO-
188.1081	148	C12H14NO-
193.0773	2	C13H9N2-
204.1028	13	C12H14NO2-
206.0849	28	C14H10N2-
209.0723	5	C13H9N2O-
214.0875	7	C13H12NO2-
230.106	6	C13H14N2O2-
250.0748	8	C15H10N2O2-
251.1553	4	C17H19N2-
264.1397	3	C18H18NO-
279.1503	383	C18H19N2O-
307.1452	117	C19H19N2O2-
