Mass spectrum: Emtricitabine; LC-ESI-QFT; MS2; CE: 75; R=35000; [M-H]-
Name: Emtricitabine
Name: 4-amino-5-fluoro-1-[(2R,5S)-2-(hydroxymethyl)-1,3-oxathiolan-5-yl]-2-pyrimidinone
Formula: C8H10FN3O3S
Exact mass: 247.04269
SMILES: FC=1\C(=N/C(=O)N(C=1)[C@H]2O[C@H](SC2)CO)\N
InChI: InChI=1S/C8H10FN3O3S/c9-4-1-12(8(14)11-7(4)10)5-3-16-6(2-13)15-5/h1,5-6,13H,2-3H2,(H2,10,11,14)/t5-,6+/m0/s1
Instrument: Q Exactive Orbitrap Thermo Scientific
Instrument type: LC-ESI-QFT
Ms type: MS2
Ion mode: NEGATIVE
Ionization: ESI
Fragmentation mode: HCD
Collision energy: 75 (nominal)
Resolution: 35000
Column name: XBridge C18 3.5um, 2.1x50mm, Waters
Retention time: 2.1 min
Base peak: 235.9261
Precursor m/z: 246.0354
Precursor type: [M-H]-
m/z	relative intensity	assigned
50.0035	4	C3N-
57.9757	57	CNS-
65.0145	72	C3HN2-
71.9915	3	C2H2NS-
74.0069	3	C2H4NS-
77.0145	28	C4HN2-
83.0052	22	C3FN2-
85.0208	44	C3H2FN2-
91.0302	14	C5H3N2-
95.9788	13	C3N2S-
95.9914	36	C4H2NS-
97.0207	4	C4H2FN2-
104.0254	999	C5H2N3-
105.0333	78	C5H3N3-
110.0159	51	C4HFN3-
111.0023	46	C4H3N2S-
112.0318	14	C4H3FN3-
121.9946	7	C5H2N2S-
123.0023	7	C5H3N2S-
128.0267	67	C4H3FN3O-
132.0203	344	C6H2N3O-
138.013	16	C5H4N3S-
143.0084	14	C5H4FN2S-
152.0265	733	C6H3FN3O-
158.0192	3	C5H5FN3S-
166.0079	3	C6H4N3OS-
