Mass spectrum: Mecarbam; LC-ESI-QFT; MS2; CE: 90%; R=17500; [M+H]+
Name: Mecarbam
Name: ethyl N-(2-diethoxyphosphinothioylsulfanylacetyl)-N-methylcarbamate
Formula: C10H20NO5PS2
Exact mass: 329.0521
SMILES: CCOC(=O)N(C)C(=O)CSP(=S)(OCC)OCC
InChI: InChI=1S/C10H20NO5PS2/c1-5-14-10(13)11(4)9(12)8-19-17(18,15-6-2)16-7-3/h5-8H2,1-4H3
Instrument: Exploris 240 Orbitrap Thermo Scientific
Instrument type: LC-ESI-QFT
Ms type: MS2
Ion mode: POSITIVE
Ionization: ESI
Fragmentation mode: HCD
Collision energy: 90 % (nominal)
Resolution: 17500
Column name: XBridge C18 3.5um, 2.1x50mm, Waters
Retention time: 9.793 min
Base peak: 243.0634
Precursor m/z: 330.0593
Precursor type: [M+H]+
m/z	relative intensity	assigned
58.0287	292	C2H4NO+
64.9786	84	H2O2P+
74.9898	12	C2H3OS+
78.9402	46	OPS+
96.9507	999	H2O2PS+
110.9661	37	CH4O2PS+
114.9612	338	H4O3PS+
116.0342	103	C4H6NO3+
128.9227	128	H2O2PS2+
128.977	11	CH6O3PS+
142.9383	86	CH4O2PS2+
