Mass spectrum: Doxycycline; LC-ESI-QFT; MS2; CE: 30; R=35000; [M+H]+
Name: Doxycycline
Name: 8-carbamoyl-10-(dimethylazaniumyl)-4,6a,7,11-tetrahydroxy-12-methyl-6,9-dioxo-10a,11,11a,12-tetrahydro-10H-tetracen-5-olate
Formula: C22H24N2O8
Exact mass: 444.15327
SMILES: CC1C2C(C3C(C(=O)C(=C(C3(C(=O)C2=C(C4=C1C=CC=C4O)O)O)O)C(=O)N)N(C)C)O
InChI: InChI=1S/C22H24N2O8/c1-7-8-5-4-6-9(25)11(8)16(26)12-10(7)17(27)14-15(24(2)3)18(28)13(21(23)31)20(30)22(14,32)19(12)29/h4-7,10,14-15,17,25-27,30,32H,1-3H3,(H2,23,31)
Instrument: Q Exactive Plus Orbitrap Thermo Scientific
Instrument type: LC-ESI-QFT
Ms type: MS2
Ion mode: POSITIVE
Ionization: ESI
Fragmentation mode: HCD
Collision energy: 30 (nominal)
Resolution: 35000
Column name: XBridge C18 3.5um, 2.1x50mm, Waters
Retention time: 6.4 min
Base peak: 445.1595
Precursor m/z: 445.1605
Precursor type: [M+H]+
m/z	relative intensity	assigned
58.0651	3	C3H8N+
72.0443	1	C3H6NO+
84.0443	2	C4H6NO+
98.06	5	C5H8NO+
100.0756	1	C5H10NO+
126.055	12	C6H8NO2+
144.0655	1	C6H10NO3+
154.0498	51	C7H8NO3+
175.0755	1	C11H11O2+
182.0446	2	C8H8NO4+
192.0654	2	C10H10NO3+
201.0543	3	C12H9O3+
210.0762	3	C10H12NO4+
241.086	2	C15H13O3+
253.0856	1	C16H13O3+
257.081	1	C15H13O4+
267.0651	12	C16H11O4+
269.0808	11	C16H13O4+
279.065	1	C17H11O4+
281.0806	1	C17H13O4+
283.0603	2	C16H11O5+
285.0758	2	C16H13O5+
287.0913	1	C16H15O5+
293.0808	11	C18H13O4+
295.0962	2	C18H15O4+
296.1278	3	C18H18NO3+
297.0758	2	C17H13O5+
303.0649	1	C19H11O4+
309.0756	1	C18H13O5+
311.0918	1	C18H15O5+
314.1376	1	C18H20NO4+
319.0603	2	C19H11O5+
321.0757	36	C19H13O5+
336.1232	1	C20H18NO4+
337.0704	7	C19H13O6+
339.0863	47	C19H15O6+
347.0552	2	C20H11O6+
348.1219	1	C21H18NO4+
349.0708	11	C20H13O6+
355.0822	1	C19H15O7+
359.0279	1	C16H9NO9+
364.1177	4	C21H18NO5+
365.0656	6	C20H13O7+
366.1338	2	C21H20NO5+
367.0814	6	C20H15O7+
382.1285	7	C21H20NO6+
383.0763	4	C20H15O8+
384.1445	1	C21H22NO6+
392.1127	20	C22H18NO6+
400.1395	3	C21H22NO7+
410.1234	138	C22H20NO7+
428.1337	999	C22H22NO8+
445.1609	3	C22H25N2O8+
460.16	5	C21H24N4O8+
