Mass spectrum: Fexofenadine; LC-ESI-QFT; MS2; CE: 60; R=35000; [M+H]+
Name: Fexofenadine
Name: 2-[4-[1-hydroxy-4-[4-[hydroxy(diphenyl)methyl]-1-piperidinyl]butyl]phenyl]-2-methylpropanoic acid
Formula: C32H39NO4
Exact mass: 501.28791
SMILES: CC(C)(C1=CC=C(C=C1)C(CCCN2CCC(CC2)C(C3=CC=CC=C3)(C4=CC=CC=C4)O)O)C(=O)O
InChI: InChI=1S/C32H39NO4/c1-31(2,30(35)36)25-17-15-24(16-18-25)29(34)14-9-21-33-22-19-28(20-23-33)32(37,26-10-5-3-6-11-26)27-12-7-4-8-13-27/h3-8,10-13,15-18,28-29,34,37H,9,14,19-23H2,1-2H3,(H,35,36)
Instrument: Q Exactive Orbitrap Thermo Scientific
Instrument type: LC-ESI-QFT
Ms type: MS2
Ion mode: POSITIVE
Ionization: ESI
Fragmentation mode: HCD
Collision energy: 60 (nominal)
Resolution: 35000
Column name: XBridge C18 3.5um, 2.1x50mm, Waters
Retention time: 8.2 min
Base peak: 502.2954
Precursor m/z: 502.2952
Precursor type: [M+H]+
m/z	relative intensity	assigned
70.0651	11	C4H8N+
79.0543	2	C6H7+
80.0495	21	C5H6N+
81.0699	1	C6H9+
82.0651	48	C5H8N+
83.073	18	C5H9N+
84.0807	5	C5H10N+
87.0441	34	C4H7O2+
89.0384	1	C7H5+
91.0542	255	C7H7+
94.0651	13	C6H8N+
95.0492	1	C6H7O+
95.073	4	C6H9N+
96.0808	40	C6H10N+
98.0964	21	C6H12N+
103.0543	9	C8H7+
105.0699	45	C8H9+
107.0491	28	C7H7O+
108.0808	6	C7H10N+
109.0887	1	C7H11N+
110.0963	4	C7H12N+
111.1042	10	C7H13N+
115.0542	26	C9H7+
116.0619	20	C9H8+
117.0698	55	C9H9+
119.0855	4	C9H11+
120.0807	9	C8H10N+
121.0648	2	C8H9O+
121.0885	4	C8H11N+
122.0965	27	C8H12N+
124.1121	37	C8H14N+
128.0621	41	C10H8+
129.0699	249	C10H9+
130.0777	16	C10H10+
131.0856	480	C10H11+
132.0808	6	C9H10N+
132.0936	1	C10H12+
133.1011	16	C10H13+
141.0699	22	C11H9+
142.0778	12	C11H10+
143.0856	212	C11H11+
144.0809	1	C10H10N+
145.0648	4	C10H9O+
145.1012	43	C11H13+
146.1093	1	C11H14+
147.0805	4	C10H11O+
152.0627	1	C12H8+
153.0698	5	C12H9+
154.0777	1	C12H10+
155.0604	4	C10H7N2+
155.0856	20	C12H11+
156.0934	18	C12H12+
157.1013	13	C12H13+
158.0965	1	C11H12N+
159.117	7	C12H15+
165.0701	5	C13H9+
166.0777	4	C13H10+
167.0856	30	C13H11+
169.1012	23	C13H13+
170.0964	9	C12H12N+
171.1168	999	C13H15+
172.112	7	C12H14N+
173.1325	24	C13H17+
174.1279	1	C12H16N+
177.091	34	C11H13O2+
178.0778	5	C14H10+
179.0856	3	C14H11+
181.1011	8	C14H13+
183.1168	5	C14H15+
184.0886	2	C13H12O+
184.112	1	C13H14N+
188.1197	1	C13H16O+
189.1276	17	C13H17O+
191.0703	74	C11H11O3+
199.1118	7	C14H15O+
200.1432	5	C14H18N+
202.1589	2	C14H20N+
203.0854	6	C16H11+
204.0934	13	C16H12+
205.1013	18	C16H13+
212.1435	1	C15H18N+
215.0854	6	C17H11+
216.0935	14	C17H12+
217.1017	2	C17H13+
217.1222	6	C14H17O2+
218.1091	13	C17H14+
219.1166	11	C17H15+
229.1015	1	C18H13+
231.1166	8	C18H15+
233.1173	46	C14H17O3+
246.1279	1	C18H16N+
246.1489	6	C15H20NO2+
247.1357	4	C18H17N+
248.1434	4	C18H18N+
250.1592	13	C18H20N+
258.1488	6	C16H20NO2+
260.1432	5	C19H18N+
260.1646	18	C16H22NO2+
262.1591	77	C19H20N+
272.1642	1	C17H22NO2+
274.1586	1	C20H20N+
276.1746	4	C20H22N+
288.1748	19	C21H22N+
298.1801	35	C19H24NO2+
300.1959	6	C19H26NO2+
450.2433	2	C31H32NO2+
466.274	94	C32H36NO2+
484.2853	4	C32H38NO3+
