Mass spectrum: Fluvastatin; LC-ESI-QFT; MS2; CE: 45; R=35000; [M+H]+
Name: Fluvastatin
Name: (3R,5S)-7-[3-(4-fluorophenyl)-1-isopropyl-2-indolyl]-3,5-dihydroxy-6-heptenoic acid
Formula: C24H26FNO4
Exact mass: 411.18459
SMILES: O=C(O)C[C@H](O)C[C@H](O)/C=C/c2c(c1ccccc1n2C(C)C)c3ccc(F)cc3
InChI: InChI=1S/C24H26FNO4/c1-15(2)26-21-6-4-3-5-20(21)24(16-7-9-17(25)10-8-16)22(26)12-11-18(27)13-19(28)14-23(29)30/h3-12,15,18-19,27-28H,13-14H2,1-2H3,(H,29,30)/b12-11+/t18-,19-/m1/s1
Instrument: Q Exactive Orbitrap Thermo Scientific
Instrument type: LC-ESI-QFT
Ms type: MS2
Ion mode: POSITIVE
Ionization: ESI
Fragmentation mode: HCD
Collision energy: 45 (nominal)
Resolution: 35000
Column name: XBridge C18 3.5um, 2.1x50mm, Waters
Retention time: 13.5 min
Base peak: 412.1916
Precursor m/z: 412.1919
Precursor type: [M+H]+
m/z	relative intensity	assigned
55.0179	4	C3H3O+
67.0542	6	C5H7+
69.0334	2	C4H5O+
71.0127	2	C3H3O2+
71.0491	3	C4H7O+
81.0335	4	C5H5O+
89.0233	2	C3H5O3+
95.0491	24	C6H7O+
97.0284	8	C5H5O2+
122.0398	1	C7H5FN+
123.0439	31	C7H7O2+
141.0545	4	C7H9O3+
168.0807	1	C12H10N+
177.0698	3	C14H9+
196.0682	13	C14H9F+
197.076	77	C14H10F+
204.0808	11	C15H10N+
209.0761	2	C15H10F+
211.0793	7	C14H10FN+
212.087	15	C14H11FN+
222.0712	15	C15H9FN+
223.0793	73	C15H10FN+
224.0869	999	C15H11FN+
235.0788	2	C16H10FN+
236.0872	4	C16H11FN+
238.1026	47	C16H13FN+
239.1055	1	C16H15O2+
248.0868	3	C17H11FN+
249.095	2	C17H12FN+
250.1029	3	C17H13FN+
251.1111	2	C17H14FN+
253.1261	5	C17H16FN+
262.1025	2	C18H13FN+
264.1184	17	C18H15FN+
266.1339	134	C18H17FN+
274.1026	7	C19H13FN+
275.1112	1	C19H14FN+
280.149	3	C19H19FN+
288.118	5	C20H15FN+
290.1335	2	C20H17FN+
306.1651	2	C21H21FN+
334.1236	2	C21H17FNO2+
351.1265	1	C21H18FNO3+
