Mass spectrum: Capecitabine; LC-ESI-QFT; MS2; CE: 45; R=35000; [M-H]-
Name: Capecitabine
Name: (1-(5-Deoxy-beta-D-ribofuranosyl)-5-fluoro-1,2-dihydro-2-oxo-4-pyrimidinyl)-carbamic acid pentyl ester
Name: N-[1-[(2R,3R,4S,5R)-3,4-dihydroxy-5-methyl-2-oxolanyl]-5-fluoro-2-oxo-4-pyrimidinyl]carbamic acid pentyl ester
Formula: C15H22FN3O6
Exact mass: 359.14926
SMILES: FC=1\C(=N/C(=O)N(C=1)[C@@H]2O[C@@H]([C@@H](O)[C@H]2O)C)\NC(=O)OCCCCC
InChI: InChI=1S/C15H22FN3O6/c1-3-4-5-6-24-15(23)18-12-9(16)7-19(14(22)17-12)13-11(21)10(20)8(2)25-13/h7-8,10-11,13,20-21H,3-6H2,1-2H3,(H,17,18,22,23)/t8-,10-,11-,13-/m1/s1
Instrument: Q Exactive Orbitrap Thermo Scientific
Instrument type: LC-ESI-QFT
Ms type: MS2
Ion mode: NEGATIVE
Ionization: ESI
Fragmentation mode: HCD
Collision energy: 45 (nominal)
Resolution: 35000
Column name: XBridge C18 3.5um, 2.1x50mm, Waters
Retention time: 7.8 min
Base peak: 358.1422
Precursor m/z: 358.142
Precursor type: [M-H]-
m/z	relative intensity	assigned
65.0146	7	C3HN2-
65.9986	9	C3NO-
77.0146	3	C4HN2-
80.0017	3	C3N2O-
80.0142	3	C4H2NO-
83.0051	13	C3FN2-
84.0255	15	C4H3FN-
85.0208	3	C3H2FN2-
85.0659	3	C5H9O-
87.0817	3	C5H11O-
89.0145	8	C5HN2-
95.0252	1	C4H3N2O-
97.0207	11	C4H2FN2-
99.0364	2	C4H4FN2-
105.0095	4	C5HN2O-
106.0173	23	C5H2N2O-
107.0251	57	C5H3N2O-
111.0003	3	C4FN2O-
113.0158	24	C4H2FN2O-
113.9996	2	C4HFNO2-
122.0121	4	C5H2N2O2-
125.0157	121	C5H2FN2O-
127.0314	7	C5H4FN2O-
129.0107	24	C4H2FN2O2-
133.0044	9	C6HN2O2-
135.02	9	C6H3N2O2-
136.0152	12	C5H2N3O2-
141.0105	8	C5H2FN2O2-
148.0154	14	C6H2N3O2-
150.0072	17	C6H2N2O3-
151.0151	8	C6H3N2O3-
153.0106	420	C6H2FN2O2-
154.0058	999	C5HFN3O2-
155.0827	67	C7H11N2O2-
163.0149	2	C7H3N2O3-
164.0102	9	C6H2N3O3-
168.0217	8	C11H4O2-
170.0135	3	C6H3FN2O3-
176.0099	11	C7H2N3O3-
179.0827	13	C9H11N2O2-
196.0164	7	C7H3FN3O3-
199.0889	32	C9H12FN2O2-
201.1045	2	C9H14FN2O2-
209.0931	3	C10H13N2O3-
221.0931	39	C11H13N2O3-
284.1049	3	C12H15FN3O4-
