Mass spectrum: Ethiofencarb; LC-ESI-QFT; MS2; CE: 120%; R=17500; [M+H]+
Name: Ethiofencarb
Name: [2-(ethylsulfanylmethyl)phenyl] N-methylcarbamate
Formula: C11H15NO2S
Exact mass: 225.0823
SMILES: CCSCC1=CC=CC=C1OC(=O)NC
InChI: InChI=1S/C11H15NO2S/c1-3-15-8-9-6-4-5-7-10(9)14-11(13)12-2/h4-7H,3,8H2,1-2H3,(H,12,13)
Instrument: Exploris 240 Orbitrap Thermo Scientific
Instrument type: LC-ESI-QFT
Ms type: MS2
Ion mode: POSITIVE
Ionization: ESI
Fragmentation mode: HCD
Collision energy: 120 % (nominal)
Resolution: 17500
Column name: XBridge C18 3.5um, 2.1x50mm, Waters
Retention time: 6.393 min
Base peak: 107.049
Precursor m/z: 226.0896
Precursor type: [M+H]+
m/z	relative intensity	assigned
50.015	11	C4H2+
51.0229	161	C4H3+
53.0386	257	C4H5+
55.0178	11	C3H3O+
58.0287	72	C2H4NO+
77.0386	999	C6H5+
78.0467	6	C6H6+
79.0542	597	C6H7+
81.0334	18	C5H5O+
94.0411	27	C6H6O+
95.0491	264	C6H7O+
107.0491	423	C7H7O+
109.0646	7	C7H9O+
