Mass spectrum: N4-Acetylsulfamethoxazole; LC-ESI-ITFT; MS2; CE: 90%; R=30000; [M+H]+
Name: N4-Acetylsulfamethoxazole
Name: N-[4-[(5-methyl-1,2-oxazol-3-yl)sulfamoyl]phenyl]acetamide
Formula: C12H13N3O4S
Exact mass: 295.0627
SMILES: c1(ccc(cc1)NC(C)=O)S(Nc1cc(C)on1)(=O)=O
InChI: InChI=1S/C12H13N3O4S/c1-8-7-12(14-19-8)15-20(17,18)11-5-3-10(4-6-11)13-9(2)16/h3-7H,1-2H3,(H,13,16)(H,14,15)
Instrument: LTQ Orbitrap XL Thermo Scientific
Instrument type: LC-ESI-ITFT
Ms type: MS2
Ion mode: POSITIVE
Ionization: ESI
Fragmentation mode: HCD
Collision energy: 90 % (nominal)
Resolution: 30000
Column name: XBridge C18 3.5um, 2.1x50mm, Waters
Retention time: 5.5 min
Base peak: 318.0528
Precursor m/z: 296.07
Precursor type: [M+H]+
m/z	relative intensity	assigned
65.0386	999	C5H5+
77.0386	22	C6H5+
79.0542	51	C6H7+
80.0495	67	C5H6N+
92.0494	311	C6H6N+
93.0336	23	C6H5O+
93.0573	222	C6H7N+
94.0651	75	C6H8N+
99.0553	30	C4H7N2O+
106.0651	80	C7H8N+
107.0604	33	C6H7N2+
108.0444	394	C6H6NO+
110.06	28	C6H8NO+
132.0681	13	C8H8N2+
134.06	128	C8H8NO+
143.0604	18	C9H7N2+
146.0713	58	C8H8N3+
147.079	36	C8H9N3+
160.0868	34	C9H10N3+
