Mass spectrum: Azinphos-methyl; LC-ESI-QFT; MS2; CE: 75; R=35000; [M+H]+
Name: Azinphos-methyl
Name: Azinphosmethyl
Name: 3-(dimethoxyphosphinothioylsulfanylmethyl)-1,2,3-benzotriazin-4-one
Formula: C10H12N3O3PS2
Exact mass: 317.00577
SMILES: COP(=S)(OC)SCN1C(=O)C2=CC=CC=C2N=N1
InChI: InChI=1S/C10H12N3O3PS2/c1-15-17(18,16-2)19-7-13-10(14)8-5-3-4-6-9(8)11-12-13/h3-6H,7H2,1-2H3
Instrument: Q Exactive Plus Orbitrap Thermo Scientific
Instrument type: LC-ESI-QFT
Ms type: MS2
Ion mode: POSITIVE
Ionization: ESI
Fragmentation mode: HCD
Collision energy: 75 (nominal)
Resolution: 35000
Column name: XBridge C18 3.5um, 2.1x50mm, Waters
Retention time: 9.2 min
Base peak: 318.0126
Precursor m/z: 318.013
Precursor type: [M+H]+
m/z	relative intensity	assigned
50.0152	59	C4H2+
51.023	231	C4H3+
53.0387	282	C4H5+
55.0179	19	C3H3O+
59.9665	15	COS+
62.0185	71	C2H6S+
62.9995	12	CH4OP+
65.0386	3	C5H5+
67.0543	21	C5H7+
68.9972	2	C3HO2+
75.0229	26	C6H3+
76.0181	3	C5H2N+
77.0386	419	C6H5+
78.0339	13	C5H4N+
78.0465	2	C6H6+
78.9944	600	CH4O2P+
81.0336	32	C5H5O+
81.0699	3	C6H9+
92.0257	11	C6H4O+
92.0496	4	C6H6N+
93.0101	37	C2H6O2P+
94.0414	12	C6H6O+
95.0493	999	C6H7O+
96.0445	18	C5H6NO+
97.005	9	CH6O3P+
99.0439	1	C5H7O2+
102.034	57	C7H4N+
104.0495	194	C7H6N+
105.0336	239	C7H5O+
105.0449	643	C6H5N2+
106.0418	2	C3H9NOP+
109.0108	25	C6H5S+
109.0649	3	C7H9O+
120.0446	28	C3H9N2OP+
121.0109	2	C3H8NPS+
124.9823	54	C2H6O2PS+
127.0153	2	C2H8O4P+
130.0401	158	C7H4N3+
132.0445	41	C8H6NO+
135.044	7	C8H7O2+
135.9979	7	C7H4OS+
137.0058	42	C3H8NOPS+
142.9928	568	C2H8O3PS+
150.0551	2	C8H8NO2+
151.9928	91	C3H7NO2PS+
157.0086	10	C3H10O3PS+
167.0162	25	C8H7O2S+
167.97	30	C3H7NOPS2+
