Mass spectrum: Efavirenz; LC-ESI-QFT; MS2; CE: 90; R=35000; [M-H]-
Name: Efavirenz
Name: (4S)-6-chloro-4-(2-cyclopropylethynyl)-4-(trifluoromethyl)-1H-3,1-benzoxazin-2-one
Formula: C14H9ClF3NO2
Exact mass: 315.02739
SMILES: C1CC1C#C[C@]2(C3=C(C=CC(=C3)Cl)NC(=O)O2)C(F)(F)F
InChI: InChI=1S/C14H9ClF3NO2/c15-9-3-4-11-10(7-9)13(14(16,17)18,21-12(20)19-11)6-5-8-1-2-8/h3-4,7-8H,1-2H2,(H,19,20)/t13-/m0/s1
Instrument: Q Exactive Orbitrap Thermo Scientific
Instrument type: LC-ESI-QFT
Ms type: MS2
Ion mode: NEGATIVE
Ionization: ESI
Fragmentation mode: HCD
Collision energy: 90 (nominal)
Resolution: 35000
Column name: XBridge C18 3.5um, 2.1x50mm, Waters
Retention time: 12.9 min
Base peak: 314.0206
Precursor m/z: 314.0201
Precursor type: [M-H]-
m/z	relative intensity	assigned
65.0033	4	C4HO-
65.0397	23	C5H5-
65.9986	5	C3NO-
68.9958	999	CF3-
74.0037	1	C5N-
76.0194	3	C5H2N-
87.0114	1	C6HN-
88.0193	1	C6H2N-
90.0351	1	C6H4N-
91.019	1	C6H3O-
98.0037	3	C7N-
116.0142	1	C7H2NO-
120.9908	1	C4F3O-
138.0349	4	C10H4N-
146.0033	1	C11N-
147.9966	1	C8H3ClN-
151.9906	1	C7H3ClNO-
152.0508	1	C11H6N-
162.0351	5	C12H4N-
164.0506	1	C12H6N-
166.0293	1	C11H4NO-
170.061	1	C11H8NO-
180.0457	1	C12H6NO-
186.016	1	C11H2F2N-
198.0115	4	C12H5ClN-
206.0225	4	C11H3F3N-
208.0402	1	C13H6NO2-
215.0133	1	C12H6ClNO-
221.9927	1	C11H3ClF2N-
