Mass spectrum: Dibucaine; LC-ESI-QFT; MS2; CE: 30; R=35000; [M+H]+
Name: Dibucaine
Name: 2-butoxy-N-[2-(diethylamino)ethyl]quinoline-4-carboxamide
Formula: C20H29N3O2
Exact mass: 343.22598
SMILES: CCCCOC1=NC2=CC=CC=C2C(=C1)C(=O)NCCN(CC)CC
InChI: InChI=1S/C20H29N3O2/c1-4-7-14-25-19-15-17(16-10-8-9-11-18(16)22-19)20(24)21-12-13-23(5-2)6-3/h8-11,15H,4-7,12-14H2,1-3H3,(H,21,24)
Instrument: Q Exactive Orbitrap Thermo Scientific
Instrument type: LC-ESI-QFT
Ms type: MS2
Ion mode: POSITIVE
Ionization: ESI
Fragmentation mode: HCD
Collision energy: 30 (nominal)
Resolution: 35000
Column name: XBridge C18 3.5um, 2.1x50mm, Waters
Retention time: 8.6 min
Base peak: 344.2337
Precursor m/z: 344.2333
Precursor type: [M+H]+
m/z	relative intensity	assigned
74.0965	47	C4H12N+
100.1121	24	C6H14N+
116.0491	2	C8H6N+
144.0445	1	C9H6NO+
172.0394	2	C10H6NO2+
215.0818	90	C12H11N2O2+
227.118	1	C14H15N2O+
228.1019	8	C14H14NO2+
271.1442	999	C16H19N2O2+
288.1713	3	C16H22N3O2+
344.2335	235	C20H30N3O2+
