Mass spectrum: Phenylbutazone; LC-ESI-QFT; MS2; CE: 180; R=35000; [M-H]-
Name: Phenylbutazone
Name: 4-butyl-1,2-diphenylpyrazolidine-3,5-dione
Formula: C19H20N2O2
Exact mass: 308.15248
SMILES: CCCCC1C(=O)N(N(C1=O)C2=CC=CC=C2)C3=CC=CC=C3
InChI: InChI=1S/C19H20N2O2/c1-2-3-14-17-18(22)20(15-10-6-4-7-11-15)21(19(17)23)16-12-8-5-9-13-16/h4-13,17H,2-3,14H2,1H3
Instrument: Q Exactive Plus Orbitrap Thermo Scientific
Instrument type: LC-ESI-QFT
Ms type: MS2
Ion mode: NEGATIVE
Ionization: ESI
Fragmentation mode: HCD
Collision energy: 180 (nominal)
Resolution: 35000
Column name: XBridge C18 3.5um, 2.1x50mm, Waters
Retention time: 11.2 min
Base peak: 307.1448
Precursor m/z: 307.1452
Precursor type: [M-H]-
m/z	relative intensity	assigned
50.0035	124	C3N-
65.0397	605	C5H5-
66.035	20	C4H4N-
75.024	12	C6H3-
90.0349	49	C6H4N-
92.0506	999	C6H6N-
116.0507	14	C8H6N-
