Mass spectrum: Lacosamide; LC-ESI-QFT; MS2; CE: 30; R=35000; [M+H]+
Name: Lacosamide
Name: N2-Acetyl-N-benzyl-O-methyl-D-serinamide
Name: 2-acetamido-N-benzyl-3-methoxypropanamide
Formula: C13H18N2O3
Exact mass: 250.13174
SMILES: CC(=O)NC(COC)C(=O)NCC1=CC=CC=C1
InChI: InChI=1S/C13H18N2O3/c1-10(16)15-12(9-18-2)13(17)14-8-11-6-4-3-5-7-11/h3-7,12H,8-9H2,1-2H3,(H,14,17)(H,15,16)
Instrument: Q Exactive Plus Orbitrap Thermo Scientific
Instrument type: LC-ESI-QFT
Ms type: MS2
Ion mode: POSITIVE
Ionization: ESI
Fragmentation mode: HCD
Collision energy: 30 (nominal)
Resolution: 35000
Column name: XBridge C18 3.5um, 2.1x50mm, Waters
Retention time: 5.1 min
Base peak: 251.138
Precursor m/z: 251.139
Precursor type: [M+H]+
m/z	relative intensity	assigned
59.0491	3	C3H7O+
74.0599	262	C3H8NO+
91.0541	999	C7H7+
108.0806	779	C7H10N+
112.0391	45	C5H6NO2+
116.0704	874	C5H10NO2+
117.0696	2	C9H9+
120.0808	1	C8H10N+
132.0807	5	C9H10N+
144.0653	161	C6H10NO3+
148.0755	2	C9H10NO+
160.0753	10	C10H10NO+
164.1068	24	C10H14NO+
177.102	112	C10H13N2O+
206.1173	1	C12H16NO2+
209.1282	91	C11H17N2O2+
219.1125	29	C12H15N2O2+
233.1282	4	C13H17N2O2+
251.1388	1	C13H19N2O3+
