Mass spectrum: Florfenicol; LC-ESI-QFT; MS2; CE: 60; R=35000; [M+H]+
Name: Florfenicol
Name: 2,2-dichloro-N-{3-fluoro-1-hydroxy-1-[4-(methylsulfonyl)phenyl]propan-2-yl}acetamide
Name: 2,2-dichloro-N-[3-fluoro-1-hydroxy-1-(4-methylsulfonylphenyl)propan-2-yl]acetamide
Formula: C12H14Cl2FNO4S
Exact mass: 357.00046
SMILES: CS(=O)(=O)C1=CC=C(C=C1)C(C(CF)NC(=O)C(Cl)Cl)O
InChI: InChI=1S/C12H14Cl2FNO4S/c1-21(19,20)8-4-2-7(3-5-8)10(17)9(6-15)16-12(18)11(13)14/h2-5,9-11,17H,6H2,1H3,(H,16,18)
Instrument: Q Exactive Plus Orbitrap Thermo Scientific
Instrument type: LC-ESI-QFT
Ms type: MS2
Ion mode: POSITIVE
Ionization: ESI
Fragmentation mode: HCD
Collision energy: 60 (nominal)
Resolution: 35000
Column name: XBridge C18 3.5um, 2.1x50mm, Waters
Retention time: 4.6 min
Base peak: 390.0331
Precursor m/z: 358.0077
Precursor type: [M+H]+
m/z	relative intensity	assigned
51.0228	2	C4H3+
63.0227	2	C5H3+
74.04	1	C3H5FN+
77.0381	4	CH4FN3+
78.0464	2	C6H6+
78.9848	7	CH3O2S+
82.9449	204	CHCl2+
91.0541	4	C7H7+
102.0463	5	C8H6+
103.0542	137	C8H7+
104.062	47	C8H8+
105.0334	2	C7H5O+
105.0699	2	C8H9+
107.0491	10	C7H7O+
109.9559	34	C2H2Cl2N+
115.0542	87	C9H7+
116.0495	9	C8H6N+
116.062	2	C9H8+
117.0572	3	C8H7N+
117.0699	2	C9H9+
118.0651	3	C8H8N+
119.0493	3	C8H7O+
121.0648	6	C8H9O+
125.0399	1	C7H6FO+
127.0541	22	C10H7+
128.0621	347	C10H8+
129.0573	41	C9H7N+
130.0651	821	C9H8N+
131.0492	206	C9H7O+
131.0729	558	C9H9N+
132.0569	999	C9H8O+
133.0447	12	C9H6F+
133.0646	5	C9H9O+
134.0525	47	C9H7F+
135.0605	1	C9H8F+
140.0491	1	C10H6N+
141.0572	7	C10H7N+
142.0652	210	C10H8N+
143.049	6	C10H7O+
143.0606	1	C3H13NO3S+
143.073	3	C10H9N+
144.0443	2	C9H6NO+
145.0648	83	C10H9O+
146.06	1	C9H8NO+
150.0231	59	C9H7Cl+
150.0714	3	C9H9FN+
151.0792	9	C9H10FN+
152.0494	3	C11H6N+
152.087	6	C9H11FN+
155.0603	208	C4H13NO3S+
156.0574	1	C8H11ClN+
157.0522	3	C10H7NO+
158.06	26	C10H8NO+
160.0757	8	C10H10NO+
162.0231	15	C10H7Cl+
162.0914	3	C10H12NO+
163.0309	341	C10H8Cl+
166.042	4	C9H9ClN+
169.0521	5	C11H7NO+
170.06	975	C11H8NO+
171.0678	37	C11H9NO+
176.0259	3	C10H7ClN+
177.034	61	C10H8ClN+
178.0178	5	C10H7ClO+
178.0418	24	C10H9ClN+
183.0472	3	C9H11O2S+
183.0688	2	C9H10FNO2+
188.0261	25	C11H7ClN+
189.0103	7	C11H6ClO+
189.0211	5	C7H9O4S+
193.0316	2	C10H9O2S+
196.9919	6	C10H7Cl2+
197.0505	9	C9H11NO2S+
205.0288	12	C11H8ClNO+
206.0368	584	C11H9ClNO+
208.0427	1	C10H10NO2S+
210.0584	75	C10H12NO2S+
213.0377	1	C10H10FO2S+
230.0646	32	C10H13FNO2S+
241.0056	94	C11H9Cl2NO+
285.0218	4	C12H12ClNO3S+
