Mass spectrum: Resmethrin; LC-ESI-QFT; MS2; CE: 15%; R=17500; [M+H]+
Name: Resmethrin
Name: (5-benzylfuran-3-yl)methyl 2,2-dimethyl-3-(2-methylprop-1-enyl)cyclopropane-1-carboxylate
Formula: C22H26O3
Exact mass: 338.1882
SMILES: CC(=CC1C(C1(C)C)C(=O)OCC2=COC(=C2)CC3=CC=CC=C3)C
InChI: InChI=1S/C22H26O3/c1-15(2)10-19-20(22(19,3)4)21(23)25-14-17-12-18(24-13-17)11-16-8-6-5-7-9-16/h5-10,12-13,19-20H,11,14H2,1-4H3
Instrument: Exploris 240 Orbitrap Thermo Scientific
Instrument type: LC-ESI-QFT
Ms type: MS2
Ion mode: POSITIVE
Ionization: ESI
Fragmentation mode: HCD
Collision energy: 15 % (nominal)
Resolution: 17500
Column name: XBridge C18 3.5um, 2.1x50mm, Waters
Retention time: 15.698 min
Base peak: 339.1952
Precursor m/z: 339.1955
Precursor type: [M+H]+
m/z	relative intensity	assigned
91.0542	7	C7H7+
121.1013	8	C9H13+
123.1166	6	C9H15+
141.091	6	C8H13O2+
159.1168	4	C12H15+
167.107	27	C10H15O2+
171.0804	380	C12H11O+
173.0964	3	C12H13O+
175.1474	10	C13H19+
181.122	16	C11H17O2+
185.0962	7	C13H13O+
199.1115	12	C14H15O+
225.1276	22	C16H17O+
293.1898	62	C21H25O+
321.1851	64	C22H25O2+
339.1955	999	C22H27O3+
