Mass spectrum: Triflusulfuron-methyl; LC-ESI-QFT; MS2; CE: 75; R=35000; [M-H]-
Name: Triflusulfuron-methyl
Name: 2-[[4-(dimethylamino)-6-(2,2,2-trifluoroethoxy)-s-triazin-2-yl]carbamoylsulfamoyl]-3-methyl-benzoic acid methyl ester
Formula: C17H19F3N6O6S
Exact mass: 492.10389
SMILES: O=C(OC)c1cccc(c1S(=O)(=O)NC(=O)Nc2nc(nc(OCC(F)(F)F)n2)N(C)C)C
InChI: InChI=1S/C17H19F3N6O6S/c1-9-6-5-7-10(12(27)31-4)11(9)33(29,30)25-15(28)22-13-21-14(26(2)3)24-16(23-13)32-8-17(18,19)20/h5-7H,8H2,1-4H3,(H2,21,22,23,24,25,28)
Instrument: Q Exactive Orbitrap Thermo Scientific
Instrument type: LC-ESI-QFT
Ms type: MS2
Ion mode: NEGATIVE
Ionization: ESI
Fragmentation mode: HCD
Collision energy: 75 (nominal)
Resolution: 35000
Column name: XBridge C18 3.5um, 2.1x50mm, Waters
Retention time: 10.8 min
Base peak: 491.0971
Precursor m/z: 491.0966
Precursor type: [M-H]-
m/z	relative intensity	assigned
58.0097	2	C2HFN-
58.9937	31	C2FO-
61.9705	13	NOS-
66.0097	117	C2N3-
68.9957	151	CF3-
71.005	22	C2FN2-
78.0098	10	C3N3-
79.0001	205	C2HF2O-
90.0097	28	C4N3-
99.0064	8	C2H2F3O-
100.0077	25	C3HFN2O-
104.0129	12	C4N4-
105.9605	14	CNO3S-
106.0047	19	C4N3O-
106.0284	25	C4H2N4-
107.0363	10	C4H3N4-
111.0112	20	C3FN4-
111.0675	19	C4H7N4-
113.0394	7	C4H4FN3-
118.0159	15	C4N5-
118.0284	3	C5H2N4-
121.052	14	C5H5N4-
123.0113	6	C4FN4-
124.019	14	C4HFN4-
126.0108	15	C4HFN3O-
128.063	10	C5H7FN3-
132.0316	22	C5H2N5-
133.0156	7	C5HN4O-
133.0394	54	C5H3N5-
134.0236	8	C5H2N4O-
135.0312	8	C5H3N4O-
136.0628	82	C5H6N5-
138.0221	23	C4HFN5-
138.0784	112	C5H8N5-
139.0061	6	C4FN4O-
147.0316	2	C6H3N4O-
148.0392	13	C6H4N4O-
148.0628	29	C6H6N5-
149.047	9	C6H5N4O-
151.0061	46	C5FN4O-
152.0139	77	C5HFN4O-
152.0378	78	C5H3FN5-
153.0217	2	C5H2FN4O-
154.0296	10	
160.0265	388	C6H2N5O-
161.0342	999	C6H3N5O-
166.0169	11	CH6F2NO6-
166.0733	180	C6H8N5O-
167.0614	27	C6H6FN5-
169.0529	12	C6H6FN4O-
176.0576	290	C3H11FNO6-
181.0407	12	
196.0073	70	C8H6NO3S-
196.064	53	C7H7FN5O-
