Mass spectrum: Reserpine; LC-ESI-ITFT; MS2; CE: 35%; R=7500; [M+H]+
Name: Reserpine
Name: (1S,2R,3R,4aS,13bR,14aS)-2,11-dimethoxy-3-(3,4,5-trimethoxybenzoyl)oxy-1,2,3,4,4a,5,7,8,13,13b,14,14a-dodecahydroisoquinolino[3,2-a]$b-carboline-1-carboxylic acid methyl ester
Formula: C33H40N2O9
Exact mass: 608.2734
SMILES: CO[C@H]1[C@@H](C[C@@H]2CN3CCC4=C([C@H]3C[C@@H]2[C@@H]1C(=O)OC)NC5=C4C=CC(=C5)OC)OC(=O)C6=CC(=C(C(=C6)OC)OC)OC
InChI: InChI=1S/C33H40N2O9/c1-38-19-7-8-20-21-9-10-35-16-18-13-27(44-32(36)17-11-25(39-2)30(41-4)26(12-17)40-3)31(42-5)28(33(37)43-6)22(18)15-24(35)29(21)34-23(20)14-19/h7-8,11-12,14,18,22,24,27-28,31,34H,9-10,13,15-16H2,1-6H3/t18-,22+,24-,27-,28+,31+/m1/s1
Instrument: LTQ Orbitrap XL Thermo Scientific
Instrument type: LC-ESI-ITFT
Ms type: MS2
Ion mode: POSITIVE
Ionization: ESI
Fragmentation mode: CID
Collision energy: 35 % (nominal)
Resolution: 7500
Column name: XBridge C18 3.5um, 2.1x50mm, Waters
Retention time: 8.3 min
Base peak: 609.2812
Precursor m/z: 609.2807
Precursor type: [M+H]+
m/z	relative intensity	assigned
174.0914	16	C11H12NO+
176.1065	1	C11H14NO+
178.0859	1	C10H12NO2+
188.1066	1	C12H14NO+
190.0861	1	C11H12NO2+
192.1019	13	C11H14NO2+
195.0652	119	C10H11O4+
200.1076	2	C13H14NO+
204.1019	5	C12H14NO2+
214.1097	1	C13H14N2O+
215.1183	6	C13H15N2O+
222.1127	2	C12H16NO3+
224.1281	18	C12H18NO3+
227.1181	1	C14H15N2O+
229.1341	1	C14H17N2O+
236.128	51	C13H18NO3+
242.1383	6	C12H20NO4+
248.1071	1	C17H14NO+
254.1379	3	C13H20NO4+
262.1234	1	C18H16NO+
265.1324	1	C17H17N2O+
288.1379	5	C20H18NO+
290.1173	3	C19H16NO2+
304.1332	2	C20H18NO2+
305.1649	2	C20H21N2O+
316.1334	3	C21H18NO2+
322.1435	7	C20H20NO3+
333.159	8	C21H21N2O2+
334.1436	5	C21H20NO3+
336.159	19	C21H22NO3+
337.1308	6	C20H19NO4+
338.1031	2	C19H16NO5+
348.1589	18	C22H22NO3+
353.1254	7	C20H19NO5+
354.1706	6	C21H24NO4+
365.1856	125	C22H25N2O3+
366.1691	11	C22H24NO4+
368.1491	72	C21H22NO5+
380.1855	17	C23H26NO4+
395.1976	5	C23H27N2O4+
397.2121	848	C23H29N2O4+
402.1531	3	C21H24NO7+
404.1703	16	C21H26NO7+
413.2068	14	C23H29N2O5+
416.1693	3	C22H26NO7+
422.1812	2	C21H28NO8+
434.1807	27	C22H28NO8+
436.1965	183	C22H30NO8+
437.2017	1	C32H25N2+
448.1966	999	C23H30NO8+
449.2007	11	C33H25N2+
548.2269	4	C31H34NO8+
559.2444	3	C32H35N2O7+
560.2281	13	C32H34NO8+
577.2543	251	C32H37N2O8+
580.2548	9	C32H38NO9+
581.248	2	C31H37N2O9+
591.2696	22	C33H39N2O8+
592.2533	22	C33H38NO9+
593.2506	2	C32H37N2O9+
