Mass spectrum: Cycloxydim-TP BH 517-TSO E/Z-isomer; LC-ESI-QFT; MS2; CE: 75%; R=17500; [M+H]+
Name: Cycloxydim-TP BH 517-TSO E/Z-isomer
Name: Cycloxydim sulfoxide
Formula: C17H27NO4S
Exact mass: 341.1661
SMILES: CCC\C(=N/OCC)C1=C(O)CC(CC1=O)C1CCCS(=O)C1
InChI: InChI=1S/C17H27NO4S/c1-3-6-14(18-22-4-2)17-15(19)9-13(10-16(17)20)12-7-5-8-23(21)11-12/h12-13,19H,3-11H2,1-2H3/b18-14+
Instrument: Q Exactive Plus Orbitrap Thermo Scientific
Instrument type: LC-ESI-QFT
Ms type: MS2
Ion mode: POSITIVE
Ionization: ESI
Fragmentation mode: HCD
Collision energy: 75 % (nominal)
Resolution: 17500
Column name: XBridge C18 3.5um, 2.1x50mm, Waters
Retention time: 7.731 min
Base peak: 342.1734
Precursor m/z: 342.1734
Precursor type: [M+H]+
m/z	relative intensity	assigned
53.0385	113	C4H5+
55.0179	183	C3H3O+
55.0542	156	C4H7+
56.0494	111	C3H6N+
57.0334	118	C3H5O+
58.995	373	C2H3S+
61.0106	68	C2H5S+
62.9899	331	CH3OS+
65.0386	279	C5H5+
67.0176	29	
67.0542	695	C5H7+
68.0131	38	C3H2NO+
68.0494	250	C4H6N+
69.0335	224	C4H5O+
69.0697	51	C5H9+
70.0652	244	C4H8N+
73.0105	104	C3H5S+
77.0053	35	C2H5OS+
77.0384	99	C6H5+
79.0542	552	C6H7+
80.0494	129	C5H6N+
81.0334	220	C5H5O+
81.0698	157	C6H9+
82.0651	369	C5H8N+
83.0491	58	C5H7O+
85.0107	51	C4H5S+
87.0263	999	C4H7S+
91.0543	731	C7H7+
93.0333	89	C6H5O+
93.0572	76	C6H7N+
93.0699	282	C7H9+
94.065	168	C6H8N+
95.0126	75	C5H3O2+
95.0491	352	C6H7O+
95.0852	62	C7H11+
96.0444	51	C5H6NO+
96.0808	58	C6H10N+
97.0106	94	C5H5S+
99.0262	86	C5H7S+
101.0419	822	C5H9S+
103.0543	229	C8H7+
105.0446	80	H11NO3S+
105.0699	863	C8H9+
106.0651	79	C7H8N+
107.0492	864	C7H7O+
107.0728	55	C7H9N+
107.0854	81	C8H11+
108.0444	160	C6H6NO+
108.0807	74	C7H10N+
109.0283	38	C6H5O2+
109.0648	183	C7H9O+
110.0601	545	C6H8NO+
111.0262	56	C6H7S+
111.044	161	C6H7O2+
112.0757	790	C6H10NO+
113.0417	75	C6H9S+
115.0542	491	C9H7+
116.0619	102	C9H8+
117.0572	54	C8H7N+
117.0697	289	C9H9+
118.0647	36	C8H8N+
119.049	71	C8H7O+
119.0854	70	C9H11+
120.0807	82	C8H10N+
121.0396	30	H11NO4S+
121.0647	193	C8H9O+
122.0359	61	C7H6O2+
122.0597	89	C7H8NO+
122.0964	297	C8H12N+
123.044	233	C7H7O2+
123.0803	35	C8H11O+
124.0754	113	C7H10NO+
125.0417	29	C7H9S+
127.0571	69	C7H11S+
128.0621	149	C10H8+
129.037	195	C6H9OS+
129.07	179	C10H9+
131.0494	69	C9H7O+
131.0853	126	C10H11+
132.0443	146	C8H6NO+
132.0806	99	C9H10N+
133.0648	369	C9H9O+
134.06	65	C8H8NO+
134.0965	61	C9H12N+
135.0262	28	C8H7S+
135.0439	68	C8H7O2+
135.0803	129	C9H11O+
136.0391	214	C7H6NO2+
136.0757	114	C8H10NO+
137.0597	57	C8H9O2+
138.0912	76	C8H12NO+
141.0697	74	C11H9+
142.0769	58	C11H10+
143.0852	60	C11H11+
144.0566	46	C10H8O+
144.081	66	C10H10N+
145.0644	150	C10H9O+
146.06	212	C9H8NO+
146.0961	80	C10H12N+
147.0438	30	C9H7O2+
147.0801	89	C10H11O+
148.0756	30	C9H10NO+
149.0474	593	C8H7NO2+
149.0591	72	C9H9O2+
150.0913	344	C9H12NO+
152.1066	31	C9H14NO+
153.0363	59	C8H9OS+
155.0855	59	C12H11+
157.0652	73	C11H9O+
158.0964	46	C11H12N+
159.0679	111	C10H9NO+
159.0806	91	C11H11O+
160.0521	130	C10H8O2+
161.0596	422	C10H9O2+
162.0909	105	C10H12NO+
163.0749	112	C10H11O2+
164.0701	41	C9H10NO2+
173.0963	66	C12H13O+
174.0911	94	C11H12NO+
175.0757	244	C11H11O2+
176.1071	48	C11H14NO+
178.0864	476	C10H12NO2+
180.1023	115	C10H14NO2+
190.0862	53	C11H12NO2+
202.1222	30	C13H16NO+
204.1024	129	C12H14NO2+
252.1416	29	C14H22NOS+
280.1362	190	C15H22NO2S+
