Mass spectrum: Eprosartan; LC-ESI-ITFT; MS2; CE: 30%; R=15000; [M+H]+
Name: Eprosartan
Name: 4-[[2-butyl-5-[(E)-3-hydroxy-3-keto-2-(2-thenyl)prop-1-enyl]imidazol-1-yl]methyl]benzoic acid
Formula: C23H24N2O4S
Exact mass: 424.1457
SMILES: CCCCC1=NC=C(N1CC2=CC=C(C=C2)C(=O)O)/C=C(\CC3=CC=CS3)/C(=O)O
InChI: InChI=1S/C23H24N2O4S/c1-2-3-6-21-24-14-19(12-18(23(28)29)13-20-5-4-11-30-20)25(21)15-16-7-9-17(10-8-16)22(26)27/h4-5,7-12,14H,2-3,6,13,15H2,1H3,(H,26,27)(H,28,29)/b18-12+
Instrument: LTQ Orbitrap XL Thermo Scientific
Instrument type: LC-ESI-ITFT
Ms type: MS2
Ion mode: POSITIVE
Ionization: ESI
Fragmentation mode: HCD
Collision energy: 30 % (nominal)
Resolution: 15000
Column name: XBridge C18 3.5um, 2.1x50mm, Waters
Retention time: 6.3 min
Base peak: 425.154
Precursor m/z: 425.153
Precursor type: [M+H]+
m/z	relative intensity	assigned
78.0339	9	C5H4N+
97.0106	116	C5H5S+
124.0393	11	C6H6NO2+
135.044	130	C8H7O2+
163.1226	28	C10H15N2+
207.1127	712	C11H15N2O2+
244.1033	8	C14H16N2S+
245.1107	29	C14H17N2S+
272.0975	58	C15H16N2OS+
273.1052	51	C15H17N2OS+
290.1082	23	C15H18N2O2S+
291.1163	23	C15H19N2O2S+
297.1591	10	C18H21N2O2+
341.1494	210	C19H21N2O4+
353.1036	10	C23H15NO3+
379.1474	32	C22H23N2O2S+
407.142	78	C23H23N2O3S+
425.1525	999	C23H25N2O4S+
