Mass spectrum: Atenolol acid; LC-ESI-ITFT; MS2; CE: 90%; R=30000; [M+H]+
Name: Atenolol acid
Name: Metoprolol acid
Name: 4-(2-Hydroxy-3-((1-methylethyl)amino)propoxy)benzeneacetic acid
Formula: C14H21NO4
Exact mass: 267.1471
SMILES: CC(C)NCC(O)COc1ccc(cc1)CC(=O)O
InChI: InChI=1S/C14H21NO4/c1-10(2)15-8-12(16)9-19-13-5-3-11(4-6-13)7-14(17)18/h3-6,10,12,15-16H,7-9H2,1-2H3,(H,17,18)
Instrument: LTQ Orbitrap XL Thermo Scientific
Instrument type: LC-ESI-ITFT
Ms type: MS2
Ion mode: POSITIVE
Ionization: ESI
Fragmentation mode: HCD
Collision energy: 90 % (nominal)
Resolution: 30000
Column name: XBridge C18 3.5um, 2.1x50mm, Waters
Retention time: 3.8 min
Base peak: 268.1553
Precursor m/z: 268.1543
Precursor type: [M+H]+
m/z	relative intensity	assigned
56.0495	326	C3H6N+
58.0651	43	C3H8N+
67.0542	25	C5H7+
72.0808	102	C4H10N+
74.06	154	C3H8NO+
77.0385	111	C6H5+
79.0542	790	C6H7+
81.0699	55	C6H9+
84.0808	22	C5H10N+
89.0386	307	C7H5+
91.0542	476	C7H7+
93.0698	13	C7H9+
95.0491	133	C6H7O+
98.0964	26	C6H12N+
100.112	22	C6H14N+
105.0447	23	C6H5N2+
105.0699	38	C8H9+
107.0491	340	C7H7O+
109.0648	71	C7H9O+
115.0542	229	C9H7+
116.107	16	C6H14NO+
117.0699	254	C9H9+
119.0491	109	C8H7O+
121.0648	15	C8H9O+
123.044	54	C7H7O2+
133.0648	33	C9H9O+
135.044	67	C8H7O2+
137.0597	42	C8H9O2+
145.0648	999	C10H9O+
155.0603	29	C10H7N2+
163.0502	239	C8H7N2O2+
165.0546	19	C9H9O3+
226.1082	13	C11H16NO4+
