Mass spectrum: Valsartan; LC-ESI-ITFT; MS2; CE: 30%; R=15000; [M+H]+
Name: Valsartan
Name: (2S)-3-methyl-2-[1-oxopentyl-[[4-[2-(2H-tetrazol-5-yl)phenyl]phenyl]methyl]amino]butanoic acid
Formula: C24H29N5O3
Exact mass: 435.2270
SMILES: CCCCC(=O)N(CC1=CC=C(C=C1)C2=C(C=CC=C2)C3=NN=NN3)[C@@H](C(C)C)C(O)=O
InChI: InChI=1S/C24H29N5O3/c1-4-5-10-21(30)29(22(16(2)3)24(31)32)15-17-11-13-18(14-12-17)19-8-6-7-9-20(19)23-25-27-28-26-23/h6-9,11-14,16,22H,4-5,10,15H2,1-3H3,(H,31,32)(H,25,26,27,28)/t22-/m0/s1
Instrument: LTQ Orbitrap XL Thermo Scientific
Instrument type: LC-ESI-ITFT
Ms type: MS2
Ion mode: POSITIVE
Ionization: ESI
Fragmentation mode: HCD
Collision energy: 30 % (nominal)
Resolution: 15000
Column name: XBridge C18 3.5um, 2.1x50mm, Waters
Retention time: 11.2 min
Base peak: 436.2337
Precursor m/z: 436.2343
Precursor type: [M+H]+
m/z	relative intensity	assigned
84.0807	2	C5H10N+
98.0599	1	C5H8NO+
153.0701	4	C12H9+
178.065	1	C13H8N+
178.0778	11	C14H10+
179.0854	6	C14H11+
180.0809	60	C13H10N+
190.0652	55	C14H8N+
191.0727	6	C14H9N+
192.0687	3	C13H8N2+
192.0808	11	C14H10N+
194.0965	28	C14H12N+
206.0839	23	C14H10N2+
207.0917	999	C14H11N2+
208.0757	2	C14H10NO+
209.1071	11	C14H13N2+
210.0912	16	C14H12NO+
235.0977	985	C14H11N4+
263.1544	2	C18H19N2+
273.1389	2	C19H17N2+
278.1643	2	C18H20N3+
291.1493	886	C19H19N2O+
293.166	2	C19H21N2O+
306.1714	278	C18H20N5+
352.1771	37	C19H22N5O2+
362.2224	40	C23H28N3O+
