Mass spectrum: Rivastigmine; LC-ESI-QFT; MS2; CE: 75; R=35000; [M+H]+
Name: Rivastigmine
Name: N-ethyl-N-methyl-carbamic acid [3-[(1S)-1-(dimethylamino)ethyl]phenyl] ester
Formula: C14H22N2O2
Exact mass: 250.16813
SMILES: O=C(Oc1cc(ccc1)[C@@H](N(C)C)C)N(CC)C
InChI: InChI=1S/C14H22N2O2/c1-6-16(5)14(17)18-13-9-7-8-12(10-13)11(2)15(3)4/h7-11H,6H2,1-5H3/t11-/m0/s1
Instrument: Q Exactive Orbitrap Thermo Scientific
Instrument type: LC-ESI-QFT
Ms type: MS2
Ion mode: POSITIVE
Ionization: ESI
Fragmentation mode: HCD
Collision energy: 75 (nominal)
Resolution: 35000
Column name: XBridge C18 3.5um, 2.1x50mm, Waters
Retention time: 5.0 min
Base peak: 251.1756
Precursor m/z: 251.1754
Precursor type: [M+H]+
m/z	relative intensity	assigned
58.0288	862	C2H4NO+
77.0386	1	C6H5+
79.0542	21	C6H7+
86.0601	999	C4H8NO+
91.0542	12	C7H7+
93.0699	26	C7H9+
95.0492	10	C6H7O+
103.0543	18	C8H7+
105.0699	29	C8H9+
107.0857	1	C8H11+
120.057	1	C8H8O+
121.0648	32	C8H9O+
121.1011	5	C9H13+
131.0859	1	C10H11+
135.0805	4	C9H11O+
206.1175	20	C12H16NO2+
