Mass spectrum: Oxadixyl; LC-ESI-QFT; MS2; CE: 30; R=35000; [M+H]+
Name: Oxadixyl
Name: N-(2,6-dimethylphenyl)-2-methoxy-N-(2-oxidanylidene-1,3-oxazolidin-3-yl)ethanamide
Formula: C14H18N2O4
Exact mass: 278.12666
SMILES: O=C2OCCN2N(C(=O)COC)c1c(cccc1C)C
InChI: InChI=1S/C14H18N2O4/c1-10-5-4-6-11(2)13(10)16(12(17)9-19-3)15-7-8-20-14(15)18/h4-6H,7-9H2,1-3H3
Instrument: Q Exactive Orbitrap Thermo Scientific
Instrument type: LC-ESI-QFT
Ms type: MS2
Ion mode: POSITIVE
Ionization: ESI
Fragmentation mode: HCD
Collision energy: 30 (nominal)
Resolution: 35000
Column name: XBridge C18 3.5um, 2.1x50mm, Waters
Retention time: 6.4 min
Base peak: 279.1343
Precursor m/z: 279.1339
Precursor type: [M+H]+
m/z	relative intensity	assigned
58.0652	6	C3H8N+
77.0383	1	C6H5+
88.0394	78	C3H6NO2+
91.0542	2	C7H7+
93.0699	2	C7H9+
100.0394	4	C4H6NO2+
102.055	243	C4H8NO2+
105.0699	7	C8H9+
107.0855	2	C8H11+
113.0345	5	C4H5N2O2+
117.0573	31	C8H7N+
118.0653	5	C8H8N+
119.0856	107	C9H11+
120.0808	30	C8H10N+
121.0648	47	C8H9O+
130.0651	1	C9H8N+
132.0809	326	C9H10N+
133.0887	452	C9H11N+
134.0965	32	C9H12N+
146.0967	2	C10H12N+
147.0919	6	C9H11N2+
147.1043	2	C10H13N+
148.1124	1	C10H14N+
149.0236	11	C8H5O3+
160.0758	23	C10H10NO+
160.0996	11	C10H12N2+
164.1071	27	C10H14NO+
165.1149	4	C10H15NO+
175.0869	1	C10H11N2O+
175.1229	8	C11H15N2+
176.0942	4	C10H12N2O+
189.1029	4	C11H13N2O+
191.0942	53	C11H13NO2+
192.1021	17	C11H14NO2+
204.0894	1	C11H12N2O2+
207.113	1	C11H15N2O2+
219.113	999	C12H15N2O2+
