Mass spectrum: Methiocarb-TP methiocarb sulfone phenol (M05); LC-ESI-QFT; MS2; CE: 15%; R=17500; [M-H]-
Name: Methiocarb-TP methiocarb sulfone phenol (M05)
Name: 3,5-dimethyl-4-methylsulfonylphenol
Name: methiocarb sulfone phenol
Formula: C9H12O3S
Exact mass: 200.0507
SMILES: CC1=CC(O)=CC(C)=C1S(C)(=O)=O
InChI: InChI=1S/C9H12O3S/c1-6-4-8(10)5-7(2)9(6)13(3,11)12/h4-5,10H,1-3H3
Instrument: Q Exactive Orbitrap Thermo Scientific
Instrument type: LC-ESI-QFT
Ms type: MS2
Ion mode: NEGATIVE
Ionization: ESI
Fragmentation mode: HCD
Collision energy: 15 % (nominal)
Resolution: 17500
Column name: XBridge C18 3.5um, 2.1x50mm, Waters
Retention time: 4.028 min
Base peak: 199.0434
Precursor m/z: 199.0434
Precursor type: [M-H]-
m/z	relative intensity	assigned
63.9621	1	O2S-
78.9855	2	CH3O2S-
79.9573	26	O3S-
106.0424	3	C7H6O-
109.0292	3	C6H5O2-
120.0578	29	C8H8O-
135.0451	10	C8H7O2-
135.0815	1	C9H11O-
136.0529	39	C8H8O2-
184.0198	148	C8H8O3S-
199.0434	999	C9H11O3S-
200.0461	5	
