Mass spectrum: Albendazole sulfone; LC-ESI-QFT; MS2; CE: 30; R=35000; [M-H]-
Name: Albendazole sulfone
Name: methyl N-(6-propylsulfonyl-1H-benzimidazol-2-yl)carbamate
Formula: C12H15N3O4S
Exact mass: 297.07833
SMILES: CCCS(=O)(=O)C1=CC2=C(C=C1)N=C(N2)NC(=O)OC
InChI: InChI=1S/C12H15N3O4S/c1-3-6-20(17,18)8-4-5-9-10(7-8)14-11(13-9)15-12(16)19-2/h4-5,7H,3,6H2,1-2H3,(H2,13,14,15,16)
Instrument: Q Exactive Plus Orbitrap Thermo Scientific
Instrument type: LC-ESI-QFT
Ms type: MS2
Ion mode: NEGATIVE
Ionization: ESI
Fragmentation mode: HCD
Collision energy: 30 (nominal)
Resolution: 35000
Column name: XBridge C18 3.5um, 2.1x50mm, Waters
Retention time: 5.7 min
Base peak: 264.0444
Precursor m/z: 296.0711
Precursor type: [M-H]-
m/z	relative intensity	assigned
106.0171	1	C5H2N2O-
133.0282	6	C6H3N3O-
157.0275	25	C8H3N3O-
158.0359	1	C8H4N3O-
160.0152	2	C7H2N3O2-
161.0229	1	C7H3N3O2-
173.0229	1	C8H3N3O2-
189.054	2	C9H7N3O2-
220.99	38	C8H3N3O3S-
221.9977	5	C8H4N3O3S-
253.0157	1	C9H7N3O4S-
264.0447	999	C11H10N3O3S-
296.071	196	C12H14N3O4S-
