Mass spectrum: Sulfamethoxazole; LC-ESI-ITFT; MS2; CE: 75%; R=7500; [M+H]+
Name: Sulfamethoxazole
Name: 4-Amino-N-(5-methyl-3-isoxazolyl)benzenesulfonamide
Name: 4-amino-N-(5-methyl-1,2-oxazol-3-yl)benzenesulfonamide
Formula: C10H11N3O3S
Exact mass: 253.0521
SMILES: c1(S(Nc2cc(C)on2)(=O)=O)ccc(N)cc1
InChI: InChI=1S/C10H11N3O3S/c1-7-6-10(12-16-7)13-17(14,15)9-4-2-8(11)3-5-9/h2-6H,11H2,1H3,(H,12,13)
Instrument: LTQ Orbitrap XL Thermo Scientific
Instrument type: LC-ESI-ITFT
Ms type: MS2
Ion mode: POSITIVE
Ionization: ESI
Fragmentation mode: HCD
Collision energy: 75 % (nominal)
Resolution: 7500
Column name: XBridge C18 3.5um, 2.1x50mm, Waters
Retention time: 4.6 min
Base peak: 254.0603
Precursor m/z: 254.0594
Precursor type: [M+H]+
m/z	relative intensity	assigned
65.0386	393	C5H5+
68.0495	82	C4H6N+
72.0443	10	C3H6NO+
78.0339	9	C5H4N+
79.0178	15	C5H3O+
80.0495	65	C5H6N+
92.0495	984	C6H6N+
93.0573	252	C6H7N+
94.065	12	C6H8N+
96.0444	21	C5H6NO+
99.0553	175	C4H7N2O+
107.0605	30	C6H7N2+
108.0444	999	C6H6NO+
110.0601	95	C6H8NO+
119.0601	6	C7H7N2+
120.0553	9	C6H6N3+
131.0607	5	C8H7N2+
143.0605	4	C9H7N2+
146.0714	44	C8H8N3+
147.0791	46	C8H9N3+
156.0117	45	C6H6NO2S+
160.0868	44	C9H10N3+
