Mass spectrum: Dimethachlor OXA; LC-ESI-ITFT; MS2; CE: 30%; R=7500; [M+H]+
Name: Dimethachlor OXA
Name: 2-[(2,6-dimethylphenyl)(2-methoxyethyl)amino]-2-oxo-acetic acid
Formula: C13H17NO4
Exact mass: 251.1158
SMILES: Cc1cccc(C)c1N(CCOC)C(=O)C(O)=O
InChI: InChI=1S/C13H17NO4/c1-9-5-4-6-10(2)11(9)14(7-8-18-3)12(15)13(16)17/h4-6H,7-8H2,1-3H3,(H,16,17)
Instrument: LTQ Orbitrap XL Thermo Scientific
Instrument type: LC-ESI-ITFT
Ms type: MS2
Ion mode: POSITIVE
Ionization: ESI
Fragmentation mode: HCD
Collision energy: 30 % (nominal)
Resolution: 7500
Column name: XBridge C18 3.5um, 2.1x50mm, Waters
Retention time: 6.6 min
Base peak: 252.1226
Precursor m/z: 252.123
Precursor type: [M+H]+
m/z	relative intensity	assigned
132.0808	9	C9H10N+
146.0965	8	C10H12N+
148.0755	1	C9H10NO+
148.1121	10	C10H14N+
176.107	9	C11H14NO+
178.1227	25	C11H16NO+
206.1177	42	C12H16NO2+
220.0968	999	C12H14NO3+
252.1231	7	C13H18NO4+
