Mass spectrum: MCLF; LC-ESI-QFT; MS2; CE: 150%; R=17500; [M+H]+
Name: MCLF
Name: Microcystin LF
Name: 15-benzyl-18-[(1E,3E)-6-methoxy-3,5-dimethyl-7-phenylhepta-1,3-dienyl]-1,5,12,19-tetramethyl-2-methylidene-8-(2-methylpropyl)-3,6,9,13,16,20,25-heptaoxo-1,4,7,10,14,17,21-heptazacyclopentacosane-11,22-dicarboxylic acid
Class: NA
Formula: C52H71N7O12
Exact mass: 985.5161
SMILES: COC(Cc1ccccc1)C(C)/C=C(C)/C=C/C2NC(=O)C(Cc3ccccc3)NC(=O)C(C)C(NC(=O)C(CC(C)C)NC(=O)C(C)NC(=O)C(=C)N(C)C(=O)CCC(NC(=O)C2C)C(O)=O)C(O)=O
InChI: InChI=1S/C52H71N7O12/c1-29(2)25-40-50(66)58-44(52(69)70)33(6)46(62)56-41(27-36-17-13-11-14-18-36)49(65)54-38(22-21-30(3)26-31(4)42(71-10)28-37-19-15-12-16-20-37)32(5)45(61)55-39(51(67)68)23-24-43(60)59(9)35(8)48(64)53-34(7)47(63)57-40/h11-22,26,29,31-34,38-42,44H,8,23-25,27-28H2,1-7,9-10H3,(H,53,64)(H,54,65)(H,55,61)(H,56,62)(H,57,63)(H,58,66)(H,67,68)(H,69,70)/b22-21+,30-26+
Instrument: Q Exactive Plus Orbitrap Thermo Scientific
Instrument type: LC-ESI-QFT
Ms type: MS2
Ion mode: POSITIVE
Ionization: ESI
Fragmentation mode: HCD
Collision energy: 150 % (nominal)
Resolution: 17500
Column name: XBridge C18 3.5um, 2.1x50mm, Waters
Retention time: 12.318 min
Base peak: 164.9846
Precursor m/z: 986.5233
Precursor type: [M+H]+
m/z	relative intensity	assigned
69.0335	22	C4H5O+
69.0699	13	C5H9+
74.0238	15	C2H4NO2+
77.0385	50	C6H5+
78.0464	9	C6H6+
79.0542	261	C6H7+
80.0494	73	C5H6N+
81.0337	10	C5H5O+
81.0446	7	C4H5N2+
81.0573	8	C5H7N+
81.07	18	C6H9+
82.0288	23	C4H4NO+
82.0651	101	C5H8N+
84.0444	124	C4H6NO+
85.0284	13	C4H5O2+
86.0601	11	C4H8NO+
86.0964	46	C5H12N+
91.0543	918	C7H7+
92.0619	20	C7H8+
93.0575	9	C6H7N+
93.07	136	C7H9+
94.0415	4	C6H6O+
94.0651	39	C6H8N+
95.0492	488	C6H7O+
95.0856	6	
96.0445	8	C5H6NO+
96.0684	9	C5H8N2+
96.0807	7	C6H10N+
99.0917	38	C5H11N2+
102.0464	36	C8H6+
103.0542	999	C8H7+
104.0621	6	C8H8+
105.0448	174	C6H5N2+
105.0699	353	C8H9+
106.0527	12	C6H6N2+
107.0855	233	C8H11+
108.0683	12	C6H8N2+
108.0808	8	C7H10N+
109.0649	70	C7H9O+
110.0603	13	C6H8NO+
113.0234	22	C5H5O3+
115.0542	116	C9H7+
116.0625	19	C9H8+
117.0575	8	C8H7N+
117.0699	50	C9H9+
118.0651	14	C8H8N+
119.0605	40	C7H7N2+
119.0855	29	C9H11+
120.057	12	
120.0808	323	C8H10N+
121.076	71	C7H9N2+
127.0866	108	C6H11N2O+
128.062	63	C10H8+
129.0699	39	C10H9+
130.0652	37	C9H8N+
130.078	7	C10H10+
131.0734	5	C9H9N+
131.0856	24	C10H11+
135.0807	9	C9H11O+
135.1167	7	C10H15+
141.0697	10	C11H9+
143.0856	6	C11H11+
144.0811	6	C10H10N+
145.0647	9	C10H9O+
145.101	7	C11H13+
146.0963	8	C10H12N+
149.0712	14	C8H9N2O+
155.0601	7	C10H7N2+
160.1126	3	C11H14N+
165.0698	37	C13H9+
166.0775	8	C13H10+
167.0823	17	C8H11N2O2+
178.078	14	C14H10+
179.0858	13	H13N5O6+
