Mass spectrum: Thiazafluron; LC-ESI-QFT; MS2; CE: 90%; R=17500; [M+H]+
Name: Thiazafluron
Name: 1,3-dimethyl-1-[5-(trifluoromethyl)-1,3,4-thiadiazol-2-yl]urea
Formula: C6H7F3N4OS
Exact mass: 240.0293
SMILES: CNC(=O)N(C)C1=NN=C(S1)C(F)(F)F
InChI: InChI=1S/C6H7F3N4OS/c1-10-4(14)13(2)5-12-11-3(15-5)6(7,8)9/h1-2H3,(H,10,14)
Instrument: Exploris 240 Orbitrap Thermo Scientific
Instrument type: LC-ESI-QFT
Ms type: MS2
Ion mode: POSITIVE
Ionization: ESI
Fragmentation mode: HCD
Collision energy: 90 % (nominal)
Resolution: 17500
Column name: XBridge C18 3.5um, 2.1x50mm, Waters
Retention time: 5.836 min
Base peak: 241.0364
Precursor m/z: 241.0365
Precursor type: [M+H]+
m/z	relative intensity	assigned
56.0368	9	C2H4N2+
57.0447	75	C2H5N2+
57.9745	9	CNS+
58.0288	20	C2H4NO+
59.9903	21	CH2NS+
62.0058	27	CH4NS+
68.9947	27	CF3+
74.0059	999	C2H4NS+
86.0062	11	C3H4NS+
91.0101	147	C2HF2N2+
106.9763	8	C3HF2S+
111.0164	99	C2H2F3N2+
112.9666	38	C2F3S+
142.9888	17	C2H2F3N2S+
164.0088	49	C4H4F2N3S+
184.0152	103	C4H5F3N3S+
