Mass spectrum: Pyrazophos; LC-ESI-QFT; MS2; CE: 150%; R=17500; [M+H]+
Name: Pyrazophos
Name: ethyl 2-diethoxyphosphinothioyloxy-5-methylpyrazolo[1,5-a]pyrimidine-6-carboxylate
Formula: C14H20N3O5PS
Exact mass: 373.0861
SMILES: CCOC(=O)C1=CN2C(=CC(=N2)OP(=S)(OCC)OCC)N=C1C
InChI: InChI=1S/C14H20N3O5PS/c1-5-19-14(18)11-9-17-12(15-10(11)4)8-13(16-17)22-23(24,20-6-2)21-7-3/h8-9H,5-7H2,1-4H3
Instrument: Exploris 240 Orbitrap Thermo Scientific
Instrument type: LC-ESI-QFT
Ms type: MS2
Ion mode: POSITIVE
Ionization: ESI
Fragmentation mode: HCD
Collision energy: 150 % (nominal)
Resolution: 17500
Column name: XBridge C18 3.5um, 2.1x50mm, Waters
Retention time: 11.575 min
Base peak: 374.0932
Precursor m/z: 374.0934
Precursor type: [M+H]+
m/z	relative intensity	assigned
51.0228	232	C4H3+
52.0181	170	C3H2N+
53.0022	129	C3HO+
54.0338	271	C3H4N+
55.018	63	C3H3O+
56.0495	88	C3H6N+
62.9633	35	O2P+
64.0184	79	H5N2P+
64.9787	949	H2O2P+
65.0386	188	C5H5+
66.0338	999	C4H4N+
67.0178	157	C4H3O+
67.0293	40	C3H3N2+
67.0418	108	C4H5N+
68.0131	513	C3H2NO+
68.0495	110	C4H6N+
70.0287	79	C3H4NO+
76.0182	111	C5H2N+
77.0261	45	C5H3N+
78.0337	233	C5H4N+
78.9402	461	OPS+
79.0291	57	C4H3N2+
79.0418	61	C5H5N+
80.0132	88	H5N2OP+
80.9735	207	H2O3P+
81.0446	35	C4H5N2+
82.0286	49	C4H4NO+
92.0497	72	C6H6N+
93.0447	676	C5H5N2+
94.0288	311	C5H4NO+
95.0604	105	C5H7N2+
96.9508	803	H2O2PS+
98.9841	265	H4O4P+
110.0351	67	C4H4N3O+
114.9613	262	H4O3PS+
120.0554	46	C6H6N3+
121.0396	133	C6H5N2O+
148.0505	97	C7H6N3O+
