Mass spectrum: Bromazepam; LC-ESI-QFT; MS2; CE: 45; R=35000; [M-H]-
Name: Bromazepam
Name: 7-bromo-5-pyridin-2-yl-1,3-dihydro-1,4-benzodiazepin-2-one
Formula: C14H10BrN3O
Exact mass: 315.00072
SMILES: C1C(=O)NC2=C(C=C(C=C2)Br)C(=N1)C3=CC=CC=N3
InChI: InChI=1S/C14H10BrN3O/c15-9-4-5-11-10(7-9)14(17-8-13(19)18-11)12-3-1-2-6-16-12/h1-7H,8H2,(H,18,19)
Instrument: Q Exactive Plus Orbitrap Thermo Scientific
Instrument type: LC-ESI-QFT
Ms type: MS2
Ion mode: NEGATIVE
Ionization: ESI
Fragmentation mode: HCD
Collision energy: 45 (nominal)
Resolution: 35000
Column name: XBridge C18 3.5um, 2.1x50mm, Waters
Retention time: 7.0 min
Base peak: 178.9775
Precursor m/z: 313.9934
Precursor type: [M-H]-
m/z	relative intensity	assigned
78.9189	753	Br-
92.0505	2	C6H6N-
270.9876	5	C13H8BrN2-
285.9749	999	C13H7BrN2O-
286.9825	41	C13H8BrN2O-
311.9777	4	C14H7BrN3O-
313.9928	5	C14H9BrN3O-
