Mass spectrum: Anabaenopeptin NZ857; LC-ESI-QFT; MS2; CE: 45%; R=17500; [M-H]-
Name: Anabaenopeptin NZ857
Name: 2-[[12-butan-2-yl-3,9-bis[2-(4-hydroxyphenyl)ethyl]-7-methyl-2,5,8,11,14-pentaoxo-1,4,7,10,13-pentazacyclononadec-15-yl]carbamoylamino]-3-phenylpropanoic acid
Formula: C45H59N7O10
Exact mass: 857.4323
SMILES: CCC(C)C1C(=O)NC(C(=O)N(CC(=O)NC(C(=O)NCCCCC(C(=O)N1)NC(=O)NC(CC2=CC=CC=C2)C(=O)O)CCC3=CC=C(C=C3)O)C)CCC4=CC=C(C=C4)O
InChI: InChI=1S/C45H59N7O10/c1-4-28(2)39-42(58)48-36(24-18-30-15-21-33(54)22-16-30)43(59)52(3)27-38(55)47-35(23-17-29-13-19-32(53)20-14-29)40(56)46-25-9-8-12-34(41(57)51-39)49-45(62)50-37(44(60)61)26-31-10-6-5-7-11-31/h5-7,10-11,13-16,19-22,28,34-37,39,53-54H,4,8-9,12,17-18,23-27H2,1-3H3,(H,46,56)(H,47,55)(H,48,58)(H,51,57)(H,60,61)(H2,49,50,62)
Instrument: Q Exactive Plus Orbitrap Thermo Scientific
Instrument type: LC-ESI-QFT
Ms type: MS2
Ion mode: NEGATIVE
Ionization: ESI
Fragmentation mode: HCD
Collision energy: 45 % (nominal)
Resolution: 17500
Column name: XBridge C18 3.5um, 2.1x50mm, Waters
Retention time: 7.928 min
Base peak: 190.928
Precursor m/z: 856.4251
Precursor type: [M-H]-
m/z	relative intensity	assigned
72.0092	147	C2H2NO2-
93.0345	252	C6H5O-
97.0046	54	C3HN2O2-
99.0199	199	C3H3N2O2-
101.0721	347	C4H9N2O-
102.0559	52	C4H8NO2-
107.0503	133	C7H7O-
119.0503	558	C8H7O-
127.0514	147	C5H7N2O2-
139.0877	121	C7H11N2O-
141.0666	170	C6H9N2O2-
146.0611	227	C9H8NO-
153.0672	88	C7H9N2O2-
155.0825	100	C7H11N2O2-
160.0767	206	C10H10NO-
163.0397	473	C9H7O3-
166.0866	72	C7H10N4O-
170.0932	100	C7H12N3O2-
180.0661	999	C9H10NO3-
181.0982	37	C9H13N2O2-
189.0665	168	C10H9N2O2-
204.0655	54	C9H8N4O2-
227.1188	184	C14H15N2O-
229.1345	810	C14H17N2O-
231.1137	106	C13H15N2O2-
243.1145	37	H17N7O8-
261.1247	102	C14H17N2O3-
278.1525	69	C16H22O4-
300.136	218	C16H18N3O3-
314.1526	137	C19H22O4-
331.2163	232	C6H31N6O9-
380.2371	108	C13H36N2O10-
