Mass spectrum: Iopromide; LC-ESI-ITFT; MS2; CE: 75%; R=15000; [M+H]+
Name: Iopromide
Name: 1-N,3-N-bis(2,3-dihydroxypropyl)-2,4,6-triiodo-5-[(2-methoxyacetyl)amino]-3-N-methylbenzene-1,3-dicarboxamide
Formula: C18H24I3N3O8
Exact mass: 790.8698
SMILES: CN(CC(CO)O)C(=O)C1=C(C(=C(C(=C1I)C(=O)NCC(CO)O)I)NC(=O)COC)I
InChI: InChI=1S/C18H24I3N3O8/c1-24(4-9(28)6-26)18(31)12-13(19)11(17(30)22-3-8(27)5-25)14(20)16(15(12)21)23-10(29)7-32-2/h8-9,25-28H,3-7H2,1-2H3,(H,22,30)(H,23,29)
Instrument: LTQ Orbitrap XL Thermo Scientific
Instrument type: LC-ESI-ITFT
Ms type: MS2
Ion mode: POSITIVE
Ionization: ESI
Fragmentation mode: HCD
Collision energy: 75 % (nominal)
Resolution: 15000
Column name: XBridge C18 3.5um, 2.1x50mm, Waters
Retention time: 2.7 min
Base peak: 132.9579
Precursor m/z: 791.877
Precursor type: [M+H]+
m/z	relative intensity	assigned
88.0181	213	C6H2N+
89.0259	437	C6H3N+
100.0179	129	C7H2N+
101.0259	397	C7H3N+
116.0129	254	C7H2NO+
117.0207	697	C7H3NO+
128.0133	272	C8H2NO+
141.9923	464	C8NO2+
145.0156	185	C8H3NO2+
152.9196	169	C2H2I+
172.0028	232	C9H2NO3+
172.0268	144	C9H4N2O2+
173.0104	294	C9H3NO3+
177.9147	290	C3HIN+
203.9308	209	C5H3IN+
227.9304	351	C7H3IN+
243.925	434	C7H3INO+
247.9193	213	C6H3INO2+
255.9252	454	C8H3INO+
271.9204	743	C8H3INO2+
282.9118	193	C9H2INO2+
293.8988	400	C2H3IN2O7+
299.915	856	C9H3INO3+
317.9257	999	C9H5INO4+
572.899	157	C14H24I3+
