Mass spectrum: Mirtazapine; LC-ESI-QFT; MS2; CE: 180; R=35000; [M+H]+
Name: Mirtazapine
Name: 2-Methyl-1,2,3,4,10,14b-hexahydropyrazino[2,1-a]pyrido[2,3-c][2]benzazepine
Formula: C17H19N3
Exact mass: 265.15790
SMILES: CN1CCN2C(C1)C3=CC=CC=C3CC4=C2N=CC=C4
InChI: InChI=1S/C17H19N3/c1-19-9-10-20-16(12-19)15-7-3-2-5-13(15)11-14-6-4-8-18-17(14)20/h2-8,16H,9-12H2,1H3
Instrument: Q Exactive Plus Orbitrap Thermo Scientific
Instrument type: LC-ESI-QFT
Ms type: MS2
Ion mode: POSITIVE
Ionization: ESI
Fragmentation mode: HCD
Collision energy: 180 (nominal)
Resolution: 35000
Column name: XBridge C18 3.5um, 2.1x50mm, Waters
Retention time: 4.7 min
Base peak: 266.1642
Precursor m/z: 266.1652
Precursor type: [M+H]+
m/z	relative intensity	assigned
50.0151	79	C4H2+
51.0229	130	C4H3+
52.0181	18	C3H2N+
52.0307	19	C4H4+
53.0022	45	C3HO+
53.0385	72	C4H5+
54.0338	9	C3H4N+
55.0415	2	C3H5N+
56.0494	64	C3H6N+
57.0572	10	C3H7N+
58.0651	28	C3H8N+
62.015	28	C5H2+
63.0228	246	C5H3+
64.0181	29	C4H2N+
64.0307	36	C5H4+
65.0385	573	C5H5+
66.0338	17	C4H4N+
66.0464	19	C5H6+
67.0416	38	C4H5N+
70.065	13	C4H8N+
72.0807	23	C4H10N+
74.015	28	C6H2+
75.0228	92	C6H3+
76.0181	10	
76.0306	42	C6H4+
77.0384	100	C6H5+
78.0337	83	C5H4N+
78.0463	63	C6H6+
79.0415	20	C5H5N+
79.0541	13	C6H7+
80.0493	26	C5H6N+
81.0334	3	C5H5O+
87.0228	27	C7H3+
88.0306	26	C7H4+
89.0385	366	C7H5+
90.0338	24	C6H4N+
90.0464	58	C7H6+
91.0415	39	C6H5N+
91.0541	149	C7H7+
92.0494	40	C6H6N+
93.0573	14	C6H7N+
95.049	176	C6H7O+
96.0443	49	C5H6NO+
98.015	14	
99.0228	40	C8H3+
101.0384	12	C8H5+
102.0463	112	C8H6+
103.0415	10	
103.0541	98	C8H7+
104.0493	29	C7H6N+
105.0446	122	C6H5N2+
108.0442	2	C6H6NO+
110.06	19	C6H8NO+
113.0384	99	C9H5+
114.0337	16	C8H4N+
114.0463	47	C9H6+
115.0541	505	C9H7+
116.0493	48	C8H6N+
116.062	11	C9H8+
117.0447	8	C7H5N2+
117.0571	41	C8H7N+
117.0698	2	C9H9+
118.0411	10	C8H6O+
118.0523	15	C7H6N2+
119.0489	12	C8H7O+
119.0602	7	C7H7N2+
122.0604	2	C7H8NO+
125.0385	63	C10H5+
126.0463	175	C10H6+
127.0415	35	C9H5N+
127.0541	57	C10H7+
128.0493	32	C9H6N+
128.0618	70	C10H8+
129.0446	49	C8H5N2+
129.0572	18	C9H7N+
130.065	86	C9H8N+
131.0605	19	C8H7N2+
131.0728	2	C9H9N+
132.0569	20	C9H8O+
134.06	4	C8H8NO+
137.0387	17	
138.0463	33	C11H6+
139.0541	999	C11H7+
140.0493	374	C10H6N+
140.0616	86	C11H8+
141.0571	35	C10H7N+
141.0696	23	C11H9+
142.0525	3	C9H6N2+
142.0649	8	C10H8N+
143.049	4	C10H7O+
143.0602	2	C9H7N2+
143.0726	7	C10H9N+
144.0807	3	C10H10N+
145.0648	23	C10H9O+
146.0598	17	C9H8NO+
149.0383	17	C12H5+
150.0463	293	C12H6+
151.0417	21	
151.054	64	C12H7+
152.0497	26	C11H6N+
152.0619	407	C12H8+
153.0446	14	C10H5N2+
153.0572	65	C11H7N+
153.0697	20	C12H9+
154.0651	17	C11H8N+
155.0602	71	C10H7N2+
156.057	3	C11H8O+
163.0541	132	C13H7+
164.0493	134	C12H6N+
164.0612	28	
165.0572	69	C12H7N+
165.0695	30	C13H9+
166.065	564	C12H8N+
167.0605	11	
167.0728	186	C12H9N+
168.0567	12	C12H8O+
168.0681	37	C11H8N2+
168.0802	20	C12H10N+
169.0646	181	C12H9O+
170.0598	40	C11H8NO+
175.0413	3	C13H5N+
176.049	3	C13H6N+
176.0619	13	C14H8+
177.0571	81	C13H7N+
178.0649	57	C13H8N+
179.0602	126	C12H7N2+
179.0723	24	C13H9N+
180.0554	9	C11H6N3+
180.0804	31	C13H10N+
183.0678	19	C12H9NO+
184.0753	14	C12H10NO+
188.0493	11	
189.0573	4	C14H7N+
189.0696	8	C15H9+
190.0649	82	C14H8N+
191.0602	62	C13H7N2+
191.0727	30	C14H9N+
192.068	468	C13H8N2+
193.0759	194	C13H9N2+
194.0599	11	
194.0837	34	C13H10N2+
203.0723	3	C15H9N+
204.0555	9	C13H6N3+
204.0812	2	C15H10N+
205.0759	42	C14H9N2+
206.084	2	C14H10N2+
214.0648	5	C16H8N+
216.0677	9	C15H8N2+
217.0759	13	C15H9N2+
218.0837	15	C15H10N2+
