Mass spectrum: Hydrocortisone; LC-ESI-QFT; MS2; CE: 45; R=35000; [M+H]+
Name: (8S,9S,10R,11S,13S,14S,17R)-11,17-dihydroxy-17-(2-hydroxyacetyl)-10,13-dimethyl-2,6,7,8,9,11,12,14,15,16-decahydro-1H-cyclopenta[a]phenanthren-3-one
Name: Cortisol
Name: Hydrocortisone
Formula: C21H30O5
Exact mass: 362.20932
SMILES: C[C@]12CCC(=O)C=C1CC[C@@H]3[C@@H]2[C@H](C[C@]4([C@H]3CC[C@@]4(C(=O)CO)O)C)O
InChI: InChI=1S/C21H30O5/c1-19-7-5-13(23)9-12(19)3-4-14-15-6-8-21(26,17(25)11-22)20(15,2)10-16(24)18(14)19/h9,14-16,18,22,24,26H,3-8,10-11H2,1-2H3/t14-,15-,16-,18+,19-,20-,21-/m0/s1
Instrument: Q Exactive Plus Orbitrap Thermo Scientific
Instrument type: LC-ESI-QFT
Ms type: MS2
Ion mode: POSITIVE
Ionization: ESI
Fragmentation mode: HCD
Collision energy: 45 (nominal)
Resolution: 35000
Column name: XBridge C18 3.5um, 2.1x50mm, Waters
Retention time: 7.7 min
Base peak: 363.2164
Precursor m/z: 363.2166
Precursor type: [M+H]+
m/z	relative intensity	assigned
53.0386	5	C4H5+
55.0178	14	C3H3O+
55.0542	14	C4H7+
57.0335	8	C3H5O+
57.0699	1	C4H9+
59.0492	1	C3H7O+
61.0285	1	C2H5O2+
63.0228	1	C5H3+
65.0384	1	C5H5+
67.0542	25	C5H7+
69.0334	13	C4H5O+
69.0699	21	C5H9+
71.0491	11	C4H7O+
75.044	6	C3H7O2+
77.0232	1	C2H5O3+
77.0383	6	C6H5+
79.0542	40	C6H7+
81.0335	3	C5H5O+
81.0699	72	C6H9+
83.0491	68	C5H7O+
83.0856	4	C6H11+
85.0284	5	C4H5O2+
85.0647	8	C5H9O+
87.0441	3	C4H7O2+
91.0542	56	C7H7+
93.0699	110	C7H9+
95.0492	16	C6H7O+
95.0856	70	C7H11+
97.0648	300	C6H9O+
99.0441	35	C5H7O2+
101.0598	7	C5H9O2+
103.039	4	C4H7O3+
103.0542	1	C8H7+
105.0699	120	C8H9+
107.0491	19	C7H7O+
107.0855	85	C8H11+
109.0649	179	C7H9O+
109.1012	18	C8H13+
111.0441	9	C6H7O2+
111.0805	17	C7H11O+
113.0597	4	C6H9O2+
115.0542	4	C9H7+
117.0699	46	C9H9+
119.0856	144	C9H11+
121.0648	999	C8H9O+
123.0804	217	C8H11O+
125.0598	15	C7H9O2+
125.0963	3	C8H13O+
127.0753	1	C7H11O2+
128.0619	10	C10H8+
129.0699	58	C10H9+
130.0776	3	C10H10+
131.0856	126	C10H11+
133.0648	31	C9H9O+
133.1012	95	C10H13+
135.0805	111	C9H11O+
135.1168	36	C10H15+
137.0596	11	C8H9O2+
137.0961	30	C9H13O+
139.0754	6	C8H11O2+
141.0699	46	C11H9+
142.0777	14	C11H10+
143.0856	157	C11H11+
144.0933	6	C11H12+
145.0649	29	C10H9O+
145.1012	219	C11H13+
146.109	8	C11H14+
147.0805	93	C10H11O+
147.1169	195	C11H15+
148.0881	1	C10H12O+
149.0962	50	C10H13O+
149.1325	23	C11H17+
151.0754	14	C9H11O2+
151.1119	4	C10H15O+
153.0698	6	C12H9+
153.0909	4	C9H13O2+
154.0778	9	C12H10+
155.0856	66	C12H11+
156.0933	4	C12H12+
157.0648	11	C11H9O+
157.1012	156	C12H13+
158.0726	1	C11H10O+
158.109	3	C12H14+
159.0805	75	C11H11O+
159.1169	154	C12H15+
160.0883	1	C11H12O+
161.0961	78	C11H13O+
161.1325	40	C12H17+
162.1041	1	C11H14O+
163.1118	141	C11H15O+
165.0698	6	C13H9+
165.091	6	C10H13O2+
165.1276	3	C11H17O+
166.0778	3	C13H10+
167.0856	24	C13H11+
168.0935	8	C13H12+
169.1012	128	C13H13+
170.1091	3	C13H14+
171.0805	34	C12H11O+
171.1168	98	C13H15+
172.0882	4	C12H12O+
172.1248	17	C13H16+
173.0962	105	C12H13O+
173.1326	59	C13H17+
174.1039	3	C12H14O+
175.1118	97	C12H15O+
176.1197	3	C12H16O+
177.0911	5	C11H13O2+
177.1275	20	C12H17O+
178.0773	1	C14H10+
179.0856	12	C14H11+
179.1067	6	C11H15O2+
180.0931	6	C14H12+
181.1012	54	C14H13+
182.1092	7	C14H14+
183.0806	7	C13H11O+
183.1169	98	C14H15+
184.0883	3	C13H12O+
184.1245	3	C14H16+
185.0961	57	C13H13O+
185.1325	90	C14H17+
186.1041	1	C13H14O+
186.1403	3	C14H18+
187.1118	107	C13H15O+
187.1482	16	C14H19+
188.12	2	C13H16O+
189.0912	5	C12H13O2+
189.1274	48	C13H17O+
191.0856	1	C15H11+
191.1069	7	C12H15O2+
191.1431	4	C13H19O+
192.0931	5	C15H12+
193.1013	29	C15H13+
193.1226	3	C12H17O2+
194.1092	9	C15H14+
195.1169	69	C15H15+
196.0885	1	C14H12O+
196.125	6	C15H16+
197.0961	26	C14H13O+
197.1326	66	C15H17+
198.1038	4	C14H14O+
198.1396	1	C15H18+
199.1118	44	C14H15O+
199.1481	35	C15H19+
200.1196	4	C14H16O+
201.1273	41	C14H17O+
203.0849	1	C16H11+
203.1065	8	C13H15O2+
203.1431	9	C14H19O+
205.1016	10	C16H13+
205.1224	14	C13H17O2+
206.1092	4	C16H14+
207.117	49	C16H15+
208.1247	10	C16H16+
209.0959	7	C15H13O+
209.1326	90	C16H17+
210.104	3	C15H14O+
210.1405	6	C16H18+
211.1119	32	C15H15O+
211.1482	48	C16H19+
212.1196	1	C15H16O+
212.1559	3	C16H20+
213.1275	58	C15H17O+
213.1636	11	C16H21+
214.1359	1	C15H18O+
215.1431	33	C15H19O+
217.1013	3	C17H13+
217.1227	9	C14H17O2+
217.159	3	C15H21O+
218.109	4	C17H14+
219.117	11	C17H15+
219.1382	5	C14H19O2+
220.1249	5	C17H16+
221.0962	4	C16H13O+
221.1326	43	C17H17+
222.1399	2	C17H18+
223.1121	15	C16H15O+
223.1482	67	C17H19+
224.1189	1	C16H16O+
224.1559	1	C17H20+
225.1275	91	C16H17O+
225.1638	33	C17H21+
226.1359	6	C16H18O+
226.1713	1	C17H22+
227.1432	39	C16H19O+
227.1792	13	C17H23+
228.1507	7	C16H20O+
229.1226	4	C15H17O2+
229.1589	14	C16H21O+
231.117	3	C18H15+
231.1383	11	C15H19O2+
232.1249	3	C18H16+
233.1326	15	C18H17+
233.1535	1	C15H21O2+
234.1038	3	C17H14O+
234.1401	6	C18H18+
235.1118	6	C17H15O+
235.1482	18	C18H19+
236.1196	1	C17H16O+
236.1561	5	C18H20+
237.1274	15	C17H17O+
237.1639	14	C18H21+
238.1351	4	C17H18O+
239.1431	77	C17H19O+
239.1794	14	C18H23+
240.1507	3	C17H20O+
241.1588	114	C17H21O+
242.1667	9	C17H22O+
243.1167	2	C19H15+
243.138	10	C16H19O2+
243.1744	39	C17H23O+
244.1241	1	C19H16+
245.1327	3	C19H17+
245.1537	4	C16H21O2+
247.1481	12	C19H19+
248.1196	4	C18H16O+
248.1559	5	C19H20+
249.1275	9	C18H17O+
249.1639	47	C19H21+
250.1352	1	C18H18O+
250.1716	4	C19H22+
251.1432	48	C18H19O+
251.1795	32	C19H23+
252.151	5	C18H20O+
253.1221	3	C17H17O2+
253.1587	43	C18H21O+
253.195	4	C19H25+
254.1669	4	C18H22O+
255.1381	3	C17H19O2+
255.1745	7	C18H23O+
257.1535	4	C17H21O2+
258.1405	4	C20H18+
259.1694	1	C17H23O2+
261.1274	1	C19H17O+
261.1496	1	C16H21O3+
261.1639	7	C20H21+
263.1431	14	C19H19O+
263.1796	15	C20H23+
264.1506	1	C19H20O+
265.1588	17	C19H21O+
266.1666	12	C19H22O+
267.1376	7	C18H19O2+
267.1744	104	C19H23O+
268.1822	53	C19H24O+
269.1535	20	C18H21O2+
269.19	70	C19H25O+
271.1327	1	C17H19O3+
271.1696	8	C18H23O2+
273.1638	9	C21H21+
276.1511	5	C20H20O+
279.1743	19	C20H23O+
281.1543	13	C19H21O2+
281.19	42	C20H25O+
283.1696	7	C19H23O2+
284.1771	1	C19H24O2+
285.1849	11	C19H25O2+
286.1927	11	C19H26O2+
287.2002	6	C19H27O2+
291.1745	35	C21H23O+
294.1618	7	C20H22O2+
296.1771	5	C20H24O2+
297.1851	55	C20H25O2+
299.164	1	C19H23O3+
299.2003	8	C20H27O2+
301.1802	3	C19H25O3+
309.185	55	C21H25O2+
312.172	9	C20H24O3+
315.1953	4	C20H27O3+
327.1956	32	C21H27O3+
345.2061	7	C21H29O4+
363.2155	4	C21H31O5+
