Mass spectrum: Epoxiconazole; LC-ESI-ITFT; MS2; CE: 90%; R=30000; [M+H]+
Name: Epoxiconazole
Name: 1-[[(2S,3R)-3-(2-chlorophenyl)-2-(4-fluorophenyl)-2-oxiranyl]methyl]-1,2,4-triazole
Formula: C17H13ClFN3O
Exact mass: 329.0726
SMILES: C1=CC=C(C(=C1)C2C(O2)(CN3C=NC=N3)C4=CC=C(C=C4)F)Cl
InChI: InChI=1S/C17H13ClFN3O/c18-15-4-2-1-3-14(15)16-17(23-16,9-22-11-20-10-21-22)12-5-7-13(19)8-6-12/h1-8,10-11,16H,9H2/t16-,17-/m1/s1
Instrument: LTQ Orbitrap XL Thermo Scientific
Instrument type: LC-ESI-ITFT
Ms type: MS2
Ion mode: POSITIVE
Ionization: ESI
Fragmentation mode: HCD
Collision energy: 90 % (nominal)
Resolution: 30000
Column name: XBridge C18 3.5um, 2.1x50mm, Waters
Retention time: 11.7 min
Base peak: 330.0812
Precursor m/z: 330.0804
Precursor type: [M+H]+
m/z	relative intensity	assigned
70.04	157	C2H4N3+
71.0292	7	C4H4F+
75.0229	73	C6H3+
77.0386	79	C6H5+
79.0178	4	C5H3O+
91.0542	25	C7H7+
95.0292	26	C6H4F+
95.049	3	C6H7O+
101.0386	120	C3H4FN3+
105.0335	4	C7H5O+
105.0447	12	C6H5N2+
109.0448	7	C7H6F+
113.0152	14	C6H6Cl+
113.0397	21	C6H6FO+
119.0491	52	C8H7O+
121.0448	810	C8H6F+
123.0241	135	C7H4FO+
123.0353	274	C6H4FN2+
129.0447	999	C8H5N2+
130.0418	4	C6H9ClN+
138.9944	6	C7H4ClO+
139.0057	16	C6H4ClN2+
141.0102	5	C7H6ClO+
183.0606	6	C13H8F+
196.0683	15	C14H9F+
197.0764	2	C14H10F+
