Mass spectrum: Cefazolin; LC-ESI-QFT; MS2; CE: 180; R=35000; [M+H]+
Name: Cefazolin
Name: 3-[(5-methyl-1,3,4-thiadiazol-2-yl)sulfanylmethyl]-8-oxo-7-[[2-(tetrazol-1-yl)acetyl]amino]-5-thia-1-azabicyclo[4.2.0]oct-2-ene-2-carboxylic acid
Formula: C14H14N8O4S3
Exact mass: 454.03001
SMILES: CC1=NN=C(S1)SCC2=C(N3C(C(C3=O)NC(=O)CN4C=NN=N4)SC2)C(=O)O
InChI: InChI=1S/C14H14N8O4S3/c1-6-17-18-14(29-6)28-4-7-3-27-12-9(11(24)22(12)10(7)13(25)26)16-8(23)2-21-5-15-19-20-21/h5,9,12H,2-4H2,1H3,(H,16,23)(H,25,26)
Instrument: Q Exactive Plus Orbitrap Thermo Scientific
Instrument type: LC-ESI-QFT
Ms type: MS2
Ion mode: POSITIVE
Ionization: ESI
Fragmentation mode: HCD
Collision energy: 180 (nominal)
Resolution: 35000
Column name: XBridge C18 3.5um, 2.1x50mm, Waters
Retention time: 4.5 min
Base peak: 455.0367
Precursor m/z: 455.0373
Precursor type: [M+H]+
m/z	relative intensity	assigned
50.0152	334	C4H2+
51.023	599	C4H3+
52.0183	271	C3H2N+
52.0308	104	C4H4+
53.0023	202	C3HO+
53.0387	798	C4H5+
53.9976	85	C2NO+
54.0339	328	C3H4N+
55.0292	879	C2H3N2+
56.0132	38	C2H2NO+
56.0369	12	C2H4N2+
56.0495	66	C3H6N+
56.9794	354	C2HS+
57.0448	136	C2H5N2+
57.9747	334	CNS+
57.9872	972	C2H2S+
58.9825	253	CHNS+
58.9951	999	C2H3S+
59.9665	404	COS+
59.9903	427	CH2NS+
62.0152	44	C5H2+
63.023	191	C5H3+
63.9437	125	S2+
64.0182	155	C4H2N+
64.0308	15	C5H4+
65.0261	44	C4H3N+
65.0386	210	C5H5+
66.0339	407	C4H4N+
66.0465	22	C5H6+
67.0291	162	C3H3N2+
67.0417	133	C4H5N+
68.037	90	C3H4N2+
68.0496	111	C4H6N+
68.9794	548	C3HS+
69.0448	438	C3H5N2+
69.9746	371	C2NS+
69.9872	55	C3H2S+
70.9825	143	C2HNS+
70.9951	399	C3H3S+
71.9903	146	C2H2NS+
72.0029	53	C3H4S+
72.9981	280	C2H3NS+
74.0059	18	C2H4NS+
76.0182	44	C5H2N+
78.0339	300	C5H4N+
79.0417	83	C5H5N+
80.0495	679	C5H6N+
81.0448	263	C4H5N2+
81.9873	35	C4H2S+
82.0526	131	C4H6N2+
82.995	49	C4H3S+
83.024	59	C3H3N2O+
83.9904	71	C3H2NS+
84.0029	41	C4H4S+
84.0319	208	C3H4N2O+
84.0444	14	C4H6NO+
84.0557	14	C3H6N3+
84.9856	35	C2HN2S+
85.0107	93	C4H5S+
86.0059	134	C3H4NS+
90.0339	10	C6H4N+
91.0417	16	C6H5N+
92.0369	22	C5H4N2+
92.0496	35	C6H6N+
93.0449	215	C5H5N2+
94.9951	53	C5H3S+
95.0367	16	C5H5NO+
95.0605	52	C5H7N2+
95.9904	13	C4H2NS+
96.0445	255	C5H6NO+
97.0108	124	C5H5S+
97.0398	11	C4H5N2O+
105.0448	126	C6H5N2+
106.0527	145	C6H6N2+
107.0605	339	C6H7N2+
110.0059	68	C5H4NS+
111.0317	14	C5H5NO2+
112.0218	18	C5H6NS+
118.0524	10	C7H6N2+
119.0605	141	C7H7N2+
122.0063	17	C6H4NS+
