Mass spectrum: Iprodione; LC-ESI-QFT; MS2; CE: 90; R=35000; [M+H]+
Name: Iprodione
Name: 3-(3,5-dichlorophenyl)-2,4-dioxo-N-propan-2-yl-1-imidazolidinecarboxamide
Formula: C13H13Cl2N3O3
Exact mass: 329.03340
SMILES: O=C2N(c1cc(Cl)cc(Cl)c1)C(=O)CN2C(=O)NC(C)C
InChI: InChI=1S/C13H13Cl2N3O3/c1-7(2)16-12(20)17-6-11(19)18(13(17)21)10-4-8(14)3-9(15)5-10/h3-5,7H,6H2,1-2H3,(H,16,20)
Instrument: Q Exactive Orbitrap Thermo Scientific
Instrument type: LC-ESI-QFT
Ms type: MS2
Ion mode: POSITIVE
Ionization: ESI
Fragmentation mode: HCD
Collision energy: 90 (nominal)
Resolution: 35000
Column name: XBridge C18 3.5um, 2.1x50mm, Waters
Retention time: 12.3 min
Base peak: 330.0406
Precursor m/z: 330.0407
Precursor type: [M+H]+
m/z	relative intensity	assigned
53.0023	4	C3HO+
56.0131	999	C2H2NO+
58.0288	3	C2H4NO+
61.9792	11	CHClN+
74.0237	30	C2H4NO2+
84.9839	18	C4H2Cl+
98.9842	438	CH4ClO3+
104.0495	19	C7H6N+
108.9839	16	C6H2Cl+
120.0445	22	C7H6NO+
123.9948	50	C6H3ClN+
125.0026	13	C9HO+
126.9945	23	C6H4ClO+
127.0183	314	C6H6ClN+
128.0024	28	C6H5ClO+
129.0101	60	C6H6ClO+
130.0399	32	C7H4N3+
132.9606	42	C5H3Cl2+
138.0105	237	C7H5ClN+
139.006	61	C6H4ClN2+
139.0183	258	C7H6ClN+
144.9607	18	C6H3Cl2+
145.9685	65	C6H4Cl2+
146.9763	63	C6H5Cl2+
152.9976	378	C7H4ClNO+
157.029	13	C7H8ClNO+
158.9763	7	C7H5Cl2+
159.9715	101	C6H4Cl2N+
160.9794	109	C6H5Cl2N+
161.9872	349	C6H6Cl2N+
162.9711	68	C6H5Cl2O+
166.0292	29	C8H7ClN2+
167.0132	109	C8H6ClNO+
171.9715	107	C10HClO+
172.9668	195	C6H3Cl2N2+
173.9872	831	C7H6Cl2N+
177.9819	4	C6H6Cl2NO+
179.9959	18	C7H3ClN3O+
181.0163	6	C8H6ClN2O+
187.9665	273	C7H4Cl2NO+
198.9828	4	C8H5Cl2N2+
199.9665	35	C8H4Cl2NO+
