Mass spectrum: Pyridaphenthion; LC-ESI-QFT; MS2; CE: 45%; R=17500; [M+H]+
Name: Pyridaphenthion
Name: 6-diethoxyphosphinothioyloxy-2-phenylpyridazin-3-one
Formula: C14H17N2O4PS
Exact mass: 340.0647
SMILES: CCOP(=S)(OCC)OC1=NN(C(=O)C=C1)C2=CC=CC=C2
InChI: InChI=1S/C14H17N2O4PS/c1-3-18-21(22,19-4-2)20-13-10-11-14(17)16(15-13)12-8-6-5-7-9-12/h5-11H,3-4H2,1-2H3
Instrument: Exploris 240 Orbitrap Thermo Scientific
Instrument type: LC-ESI-QFT
Ms type: MS2
Ion mode: POSITIVE
Ionization: ESI
Fragmentation mode: HCD
Collision energy: 45 % (nominal)
Resolution: 17500
Column name: XBridge C18 3.5um, 2.1x50mm, Waters
Retention time: 9.373 min
Base peak: 341.0719
Precursor m/z: 341.0719
Precursor type: [M+H]+
m/z	relative intensity	assigned
92.0495	51	C6H6N+
96.9508	54	H2O2PS+
114.9615	27	H4O3PS+
124.9821	19	C2H6O2PS+
171.0555	21	C10H7N2O+
187.0323	8	C10H7N2S+
188.0167	7	C6H9N2OPS+
189.066	999	C10H9N2O2+
205.0432	459	C10H9N2OS+
217.0975	8	C12H13N2O2+
233.0753	7	C12H13N2OS+
266.9988	19	C10H8N2O3PS+
285.009	15	C10H10N2O4PS+
313.0406	7	C12H14N2O4PS+
