Mass spectrum: Uniconazole; LC-ESI-QFT; MS2; CE: 45; R=35000; [M+H]+
Name: Uniconazole
Name: 1-(4-chlorophenyl)-4,4-dimethyl-2-(1,2,4-triazol-1-yl)pent-1-en-3-ol
Formula: C15H18ClN3O
Exact mass: 291.11384
SMILES: CC(C)(C)C(C(=CC1=CC=C(C=C1)Cl)N2C=NC=N2)O
InChI: InChI=1S/C15H18ClN3O/c1-15(2,3)14(20)13(19-10-17-9-18-19)8-11-4-6-12(16)7-5-11/h4-10,14,20H,1-3H3
Instrument: Q Exactive Plus Orbitrap Thermo Scientific
Instrument type: LC-ESI-QFT
Ms type: MS2
Ion mode: POSITIVE
Ionization: ESI
Fragmentation mode: HCD
Collision energy: 45 (nominal)
Resolution: 35000
Column name: XBridge C18 3.5um, 2.1x50mm, Waters
Retention time: 11.8 min
Base peak: 292.1207
Precursor m/z: 292.1211
Precursor type: [M+H]+
m/z	relative intensity	assigned
55.0542	1	C4H7+
57.0699	14	C4H9+
59.0492	2	C3H7O+
69.0699	6	C5H9+
70.04	999	C2H4N3+
85.0648	1	C5H9O+
87.0805	11	C5H11O+
93.07	4	C7H9+
96.0555	1	C4H6N3+
97.0649	2	C6H9O+
110.0713	1	C5H8N3+
125.0153	73	C7H6Cl+
128.0619	2	C10H8+
131.0488	1	C9H7O+
137.0153	11	C8H6Cl+
138.9946	31	C7H4ClO+
139.0309	6	C8H8Cl+
141.07	1	C11H9+
142.0778	8	C11H10+
145.0648	1	C10H9O+
149.0154	1	C9H6Cl+
151.0311	2	C9H8Cl+
153.0104	1	C8H6ClO+
153.0466	1	C9H10Cl+
155.0602	1	C10H7N2+
155.0855	2	C12H11+
156.0682	1	C10H8N2+
156.0933	1	C12H12+
159.0802	1	C11H11O+
163.0309	8	C10H8Cl+
165.0466	2	C10H10Cl+
167.0259	3	C9H8ClO+
169.0761	1	C11H9N2+
169.1013	2	C13H13+
170.109	29	C13H14+
173.0961	1	C12H13O+
176.0384	1	C11H9Cl+
177.0466	13	C11H10Cl+
179.0622	2	C11H12Cl+
181.0415	2	C10H10ClO+
182.0713	5	C11H8N3+
183.0791	3	C11H9N3+
188.1197	2	C13H16O+
190.0543	5	C12H11Cl+
191.037	2	C10H8ClN2+
191.0621	3	C12H12Cl+
192.0323	3	C9H7ClN3+
196.087	2	C12H10N3+
205.0779	11	C13H14Cl+
206.0484	1	C10H9ClN3+
218.0481	22	C11H9ClN3+
231.0558	3	C12H10ClN3+
232.0638	6	C12H11ClN3+
234.0427	1	C11H9ClN3O+
235.0508	7	C11H10ClN3O+
236.0584	3	C11H11ClN3O+
244.0637	2	C13H11ClN3+
274.1107	5	C15H17ClN3+
292.1212	84	C15H19ClN3O+
