Mass spectrum: Microcystin-RR; LC-ESI-QFT; MS2; CE: 90; R=35000; [M-H]-
Name: Microcystin-RR
Name: (5R,8R,11R,12S,15S,18S,19S,22R)-8,15-bis[3-(diaminomethylideneamino)propyl]-18-[(1E,3E,5S,6S)-6-methoxy-3,5-dimethyl-7-phenylhepta-1,3-dienyl]-1,5,12,19-tetramethyl-2-methylidene-3,6,9,13,16,20,25-heptaoxo-1,4,7,10,14,17,21-heptazacyclopentacosane-11,22-dicarboxylic acid
Formula: C49H75N13O12
Exact mass: 1037.56581
SMILES: O=C2N[C@@H](\C=C\C(=C\[C@H](C)[C@@H](OC)Cc1ccccc1)C)[C@@H](C(=O)N[C@@H](C(=O)O)CCC(=O)N(/C(=C)C(=O)N[C@@H](C(=O)N[C@@H](C(=O)N[C@@H](C(=O)O)[C@@H](C(=O)N[C@H]2CCC/N=C(\N)N)C)CCC/N=C(\N)N)C)C)C
InChI: InChI=1S/C49H75N13O12/c1-26(24-27(2)37(74-8)25-32-14-10-9-11-15-32)18-19-33-28(3)40(64)60-36(46(70)71)20-21-38(63)62(7)31(6)43(67)56-30(5)42(66)59-35(17-13-23-55-49(52)53)45(69)61-39(47(72)73)29(4)41(65)58-34(44(68)57-33)16-12-22-54-48(50)51/h9-11,14-15,18-19,24,27-30,33-37,39H,6,12-13,16-17,20-23,25H2,1-5,7-8H3,(H,56,67)(H,57,68)(H,58,65)(H,59,66)(H,60,64)(H,61,69)(H,70,71)(H,72,73)(H4,50,51,54)(H4,52,53,55)/b19-18+,26-24+/t27-,28-,29-,30+,33-,34-,35+,36+,37-,39+/m0/s1
Instrument: Q Exactive Orbitrap Thermo Scientific
Instrument type: LC-ESI-QFT
Ms type: MS2
Ion mode: NEGATIVE
Ionization: ESI
Fragmentation mode: HCD
Collision energy: 90 (nominal)
Resolution: 35000
Column name: XBridge C18 3.5um, 2.1x50mm, Waters
Retention time: 9.1 min
Base peak: 1036.5585
Precursor m/z: 1036.5585
Precursor type: [M-H]-
m/z	relative intensity	assigned
72.0092	61	C2H2NO2-
72.0455	202	C3H6NO-
73.0296	62	C3H5O2-
74.0248	183	C2H4NO2-
80.0506	26	C5H6N-
81.0459	67	C4H5N2-
82.0173	85	C3H2N2O-
82.0299	295	C4H4NO-
83.0252	57	C3H3N2O-
83.0614	189	C4H7N2-
84.0455	469	C4H6NO-
85.0408	51	C3H5N2O-
85.0773	20	C4H9N2-
86.0248	19	C3H4NO2-
86.0611	12	C4H8NO-
87.0564	413	C3H7N2O-
88.0404	28	C3H6NO2-
92.0507	12	C6H6N-
93.0459	25	C5H5N2-
94.03	67	C5H4NO-
95.0252	145	C4H3N2O-
95.0614	17	C5H7N2-
96.033	30	C4H4N2O-
96.0455	102	C5H6NO-
97.0407	115	C4H5N2O-
98.0123	23	C3H2N2O2-
98.025	30	C4H4NO2-
98.0612	16	C5H8NO-
99.0564	221	C4H7N2O-
101.072	19	C4H9N2O-
102.0559	20	C4H8NO2-
106.0661	16	C7H8N-
107.0617	20	C6H7N2-
108.0214	57	C6H4O2-
108.0329	241	C5H4N2O-
108.0455	77	C6H6NO-
109.017	60	C5H3NO2-
109.0408	342	C5H5N2O-
109.0771	24	C6H9N2-
110.0248	999	C5H4NO2-
110.0486	81	C5H6N2O-
111.0202	124	C4H3N2O2-
111.0565	88	C5H7N2O-
112.0405	233	C5H6NO2-
112.0768	16	C6H10NO-
112.0882	29	C5H10N3-
113.0357	235	C4H5N2O2-
113.0721	304	C5H9N2O-
120.0456	13	C7H6NO-
121.0408	65	C6H5N2O-
121.0533	15	C7H7NO-
122.0245	22	C6H4NO2-
122.0486	74	C6H6N2O-
122.0975	24	C8H12N-
123.0201	57	C5H3N2O2-
123.0328	86	C6H5NO2-
123.0439	69	C5H5N3O-
123.0565	84	C6H7N2O-
124.0404	268	C6H6NO2-
124.0517	25	C5H6N3O-
124.0768	21	C7H10NO-
125.0357	58	C5H5N2O2-
125.0594	231	C5H7N3O-
125.0719	19	C6H9N2O-
127.0513	127	C5H7N2O2-
127.0878	31	C6H11N2O-
128.0354	446	C5H6NO3-
130.0986	379	C5H12N3O-
131.0827	67	C5H11N2O2-
133.0408	15	C7H5N2O-
135.0326	97	C7H5NO2-
135.0566	81	C7H7N2O-
136.0407	22	C7H6NO2-
136.0641	36	C7H8N2O-
137.0721	212	C7H9N2O-
138.0434	120	C6H6N2O2-
138.056	27	C7H8NO2-
139.0752	15	C6H9N3O-
139.0876	63	C7H11N2O-
140.083	276	C6H10N3O-
141.0675	13	C6H9N2O2-
141.1034	23	C7H13N2O-
148.0881	12	C8H10N3-
149.0718	69	C8H9N2O-
150.0558	104	C8H8NO2-
151.051	17	C7H7N2O2-
152.0829	18	C7H10N3O-
153.0672	18	C7H9N2O2-
154.0986	67	C7H12N3O-
156.0779	57	C6H10N3O2-
156.1143	53	C7H14N3O-
158.1299	25	C7H16N3O-
163.0875	18	C9H11N2O-
165.0786	15	C7H9N4O-
166.0985	549	C8H12N3O-
167.0828	20	C8H11N2O2-
168.1141	19	C8H14N3O-
170.1299	18	C8H16N3O-
180.1139	21	C9H14N3O-
181.098	37	C9H13N2O2-
181.1096	70	C8H13N4O-
182.0939	14	C8H12N3O2-
183.125	310	C8H15N4O-
184.1091	19	C8H14N3O2-
201.1361	17	C8H17N4O2-
