Mass spectrum: MCLA; LC-ESI-QFT; MS2; CE: 90%; R=17500; [M-H]-
Name: MCLA
Name: Microcystin LA
Name: (5R,8S,11R,12S,15S,18S,19S,22R)-18-[(1E,3E,5S,6S)-6-methoxy-3,5-dimethyl-7-phenylhepta-1,3-dienyl]-1,5,12,15,19-pentamethyl-2-methylidene-8-(2-methylpropyl)-3,6,9,13,16,20,25-heptaoxo-1,4,7,10,14,17,21-heptazacyclopentacosane-11,22-dicarboxylic acid
Class: NA
Formula: C46H67N7O12
Exact mass: 909.4848
SMILES: CO[C@@H](Cc1ccccc1)[C@@H](C)\C=C(C)\C=C\[C@@H]2NC(=O)[C@H](C)NC(=O)[C@@H](C)[C@@H](NC(=O)[C@H](CC(C)C)NC(=O)[C@@H](C)NC(=O)C(=C)N(C)C(=O)CC[C@@H](NC(=O)[C@H]2C)C(O)=O)C(O)=O
InChI: InChI=1S/C46H67N7O12/c1-24(2)21-35-44(60)52-38(46(63)64)28(6)40(56)47-29(7)41(57)49-33(18-17-25(3)22-26(4)36(65-11)23-32-15-13-12-14-16-32)27(5)39(55)50-34(45(61)62)19-20-37(54)53(10)31(9)43(59)48-30(8)42(58)51-35/h12-18,22,24,26-30,33-36,38H,9,19-21,23H2,1-8,10-11H3,(H,47,56)(H,48,59)(H,49,57)(H,50,55)(H,51,58)(H,52,60)(H,61,62)(H,63,64)/b18-17+,25-22+/t26-,27-,28-,29-,30+,33-,34+,35-,36-,38+/m0/s1
Instrument: Q Exactive Plus Orbitrap Thermo Scientific
Instrument type: LC-ESI-QFT
Ms type: MS2
Ion mode: NEGATIVE
Ionization: ESI
Fragmentation mode: HCD
Collision energy: 90 % (nominal)
Resolution: 17500
Column name: XBridge C18 3.5um, 2.1x50mm, Waters
Retention time: 10.539 min
Base peak: 190.9277
Precursor m/z: 908.4775
Precursor type: [M-H]-
m/z	relative intensity	assigned
66.0348	362	C4H4N-
72.0454	270	C3H6NO-
74.0248	370	C2H4NO2-
80.0505	170	C5H6N-
82.0297	167	C4H4NO-
82.0663	281	C5H8N-
84.0455	505	C4H6NO-
87.0565	413	C3H7N2O-
97.0407	122	C4H5N2O-
99.0562	108	C4H7N2O-
108.0215	134	C6H4O2-
108.033	182	C5H4N2O-
109.0405	495	C5H5N2O-
110.0248	999	C5H4NO2-
112.0403	242	C5H6NO2-
112.0767	137	C6H10NO-
113.0356	152	C4H5N2O2-
123.0325	282	C6H5NO2-
123.0567	161	C6H7N2O-
124.0404	232	C6H6NO2-
125.0591	245	C5H7N3O-
128.0354	409	C5H6NO3-
129.1033	235	C6H13N2O-
139.0876	123	C7H11N2O-
182.1287	190	C7H14N6-
