Mass spectrum: 10phiC10SPC; LC-ESI-QFT; MS2; CE: 120; R=35000; [M+H]+
Name: 10phiC10SPC
Name: Decacarboxy sulfophenyl carboxylic acid
Name: 10-(4-sulfophenyl)octanoic acid
Formula: C16H24O5S
Exact mass: 328.13444
SMILES: OS(=O)(=O)c1ccc(CCCCCCCCCC(=O)O)cc1
InChI: InChI=1S/C16H24O5S/c17-16(18)9-7-5-3-1-2-4-6-8-14-10-12-15(13-11-14)22(19,20)21/h10-13H,1-9H2,(H,17,18)(H,19,20,21)
Instrument: Q Exactive Plus Orbitrap Thermo Scientific
Instrument type: LC-ESI-QFT
Ms type: MS2
Ion mode: POSITIVE
Ionization: ESI
Fragmentation mode: HCD
Collision energy: 120 (nominal)
Resolution: 35000
Column name: XBridge C18 3.5um, 2.1x50mm, Waters
Retention time: 10.8 min
Base peak: 343.1573
Precursor m/z: 329.1417
Precursor type: [M+H]+
m/z	relative intensity	assigned
50.0151	58	C4H2+
51.023	126	C4H3+
52.0307	3	C4H4+
53.0022	29	C3HO+
53.0386	284	C4H5+
53.9975	9	C2NO+
55.0179	62	C3H3O+
55.0543	34	C4H7+
57.0699	57	C4H9+
63.0229	23	C5H3+
64.0306	2	C5H4+
65.0386	137	C5H5+
66.0464	13	C5H6+
67.0543	31	C5H7+
68.9793	4	C3HS+
69.0335	2	C4H5O+
75.0228	3	C6H3+
77.0386	285	C6H5+
78.0464	498	C6H6+
79.0542	206	C6H7+
81.0335	48	C5H5O+
81.0699	5	C6H9+
89.0386	138	C7H5+
90.0465	62	C7H6+
91.0543	625	C7H7+
93.07	3	C7H9+
94.0414	17	C6H6O+
95.0492	999	C6H7O+
97.0107	15	C5H5S+
102.0464	30	C8H6+
103.0543	427	C8H7+
104.0621	318	C8H8+
105.0448	528	C6H5N2+
105.07	40	C8H9+
107.0492	334	C7H7O+
108.0028	4	C6H4S+
109.0107	34	C6H5S+
115.0543	443	C9H7+
116.0621	80	C9H8+
117.0699	239	C9H9+
121.0107	13	C7H5S+
122.0186	4	C7H6S+
125.0059	2	C6H5OS+
127.0541	4	C10H7+
128.0621	140	C10H8+
129.0699	125	C10H9+
130.0778	13	C10H10+
131.0492	5	C9H7O+
131.0856	10	C10H11+
134.0185	60	C8H6S+
135.0263	2	C8H7S+
141.0699	30	C11H9+
145.0649	15	C10H9O+
147.0262	35	C9H7S+
148.034	3	C9H8S+
152.0621	2	C12H8+
153.0703	2	C12H9+
154.0779	2	C12H10+
155.0602	20	C10H7N2+
171.0111	3	C7H7O3S+
171.0261	8	C11H7S+
