Mass spectrum: Amidosulfuron; LC-ESI-QFT; MS2; CE: 75; R=35000; [M-H]-
Name: Amidosulfuron
Name: 1-(4,6-dimethoxy-2-pyrimidinyl)-3-[methyl(methylsulfonyl)sulfamoyl]urea
Formula: C9H15N5O7S2
Exact mass: 369.04129
SMILES: O=C(Nc1nc(OC)cc(OC)n1)NS(=O)(=O)N(C)S(=O)(=O)C
InChI: InChI=1S/C9H15N5O7S2/c1-14(22(4,16)17)23(18,19)13-9(15)12-8-10-6(20-2)5-7(11-8)21-3/h5H,1-4H3,(H2,10,11,12,13,15)
Instrument: Q Exactive Orbitrap Thermo Scientific
Instrument type: LC-ESI-QFT
Ms type: MS2
Ion mode: NEGATIVE
Ionization: ESI
Fragmentation mode: HCD
Collision energy: 75 (nominal)
Resolution: 35000
Column name: XBridge C18 3.5um, 2.1x50mm, Waters
Retention time: 8.3 min
Base peak: 368.034
Precursor m/z: 368.034
Precursor type: [M-H]-
m/z	relative intensity	assigned
61.9705	9	NOS-
63.9624	42	O2S-
64.0067	4	C3N2-
65.0144	66	C3HN2-
65.9985	106	C3NO-
77.9655	999	NO2S-
78.9733	113	HNO2S-
79.9811	42	H2NO2S-
82.0173	6	C3H2N2O-
90.0097	10	C4N3-
92.989	2	CH3NO2S-
93.9605	5	NO3S-
97.0406	1	C4H5N2O-
98.0245	1	C4H4NO2-
107.0125	70	C4HN3O-
108.0124	4	C2H6NO2S-
108.0202	4	C4H2N3O-
109.0077	149	CH5N2O2S-
122.036	73	C5H4N3O-
124.0516	6	C5H6N3O-
139.0387	40	C5H5N3O2-
154.0621	45	C6H8N3O2-
164.0337	2	C6H12OS2-
