Mass spectrum: Olopatadine; LC-ESI-QFT; MS2; CE: 45; R=35000; [M-H]-
Name: Olopatadine
Name: 2-[(11Z)-11-[3-(dimethylazaniumyl)propylidene]-6H-benzo[c][1]benzoxepin-2-yl]acetate
Formula: C21H23NO3
Exact mass: 337.16779
SMILES: CN(C)CC/C=C\1/C2=CC=CC=C2COC3=C1C=C(C=C3)CC(=O)O
InChI: InChI=1S/C21H23NO3/c1-22(2)11-5-8-18-17-7-4-3-6-16(17)14-25-20-10-9-15(12-19(18)20)13-21(23)24/h3-4,6-10,12H,5,11,13-14H2,1-2H3,(H,23,24)/b18-8-
Instrument: Q Exactive Orbitrap Thermo Scientific
Instrument type: LC-ESI-QFT
Ms type: MS2
Ion mode: NEGATIVE
Ionization: ESI
Fragmentation mode: HCD
Collision energy: 45 (nominal)
Resolution: 35000
Column name: XBridge C18 3.5um, 2.1x50mm, Waters
Retention time: 7.0 min
Base peak: 336.1606
Precursor m/z: 336.1605
Precursor type: [M-H]-
m/z	relative intensity	assigned
81.0346	21	C5H5O-
93.0346	142	C6H5O-
95.0504	5	C6H7O-
106.0424	16	C7H6O-
107.0502	123	C7H7O-
115.0555	22	C9H7-
119.0502	3	C8H7O-
121.066	6	C8H9O-
132.0581	26	C9H8O-
141.071	15	C11H9-
153.0715	3	C12H9-
155.0865	5	C12H11-
165.0708	66	C13H9-
167.0864	6	C13H11-
177.0708	4	C14H9-
178.0785	16	C14H10-
179.0862	22	C14H11-
180.0577	6	C13H8O-
186.1286	3	C13H16N-
191.0867	273	C15H11-
192.0946	6	C15H12-
193.0658	80	C14H9O-
193.102	6	C15H13-
194.0737	5	C14H10O-
198.1288	21	C14H16N-
202.0787	19	C16H10-
203.0864	18	C16H11-
204.094	6	C16H12-
205.1023	57	C16H13-
206.0736	143	C15H10O-
206.1102	21	C16H14-
207.0813	171	C15H11O-
208.0893	20	C15H12O-
209.0966	6	C15H13O-
210.1051	5	C15H14O-
215.0867	7	C17H11-
216.0943	39	C17H12-
217.0659	51	C16H9O-
217.1028	3	C17H13-
218.0737	21	C16H10O-
219.0814	526	C16H11O-
220.0892	76	C16H12O-
221.0971	54	C16H13O-
229.1021	301	C18H13-
230.0737	5	C17H10O-
230.11	7	C18H14-
231.0812	41	C17H11O-
231.1176	24	C18H15-
232.0891	133	C17H12O-
233.097	93	C17H13O-
234.1049	42	C17H14O-
245.0971	39	C18H13O-
246.1046	14	C18H14O-
247.1127	999	C18H15O-
248.1207	41	C18H16O-
250.16	5	C18H20N-
264.1756	146	C19H22N-
274.1602	61	C20H20N-
280.1105	19	C18H16O3-
290.1553	27	C20H20NO-
292.1705	360	C20H22NO-
