Mass spectrum: Naptalam; LC-ESI-QFT; MS2; CE: 15; R=35000; [M+H]+
Name: Naptalam
Name: 2-(1-naphthylcarbamoyl)benzoic acid
Formula: C18H13NO3
Exact mass: 291.08954
SMILES: O=C(O)c1ccccc1C(=O)Nc3cccc2ccccc23
InChI: InChI=1S/C18H13NO3/c20-17(14-9-3-4-10-15(14)18(21)22)19-16-11-5-7-12-6-1-2-8-13(12)16/h1-11H,(H,19,20)(H,21,22)
Instrument: Q Exactive Orbitrap Thermo Scientific
Instrument type: LC-ESI-QFT
Ms type: MS2
Ion mode: POSITIVE
Ionization: ESI
Fragmentation mode: HCD
Collision energy: 15 (nominal)
Resolution: 35000
Column name: XBridge C18 3.5um, 2.1x50mm, Waters
Retention time: 7.2 min
Base peak: 292.0968
Precursor m/z: 292.0968
Precursor type: [M+H]+
m/z	relative intensity	assigned
127.0538	3	C10H7+
143.0727	1	C10H9N+
144.0809	999	C10H10N+
149.0233	375	C8H5O3+
167.0337	2	C8H7O4+
256.0756	2	C18H10NO+
274.0861	110	C18H12NO2+
