Mass spectrum: Chlorthiazide; LC-ESI-QFT; MS2; CE: 120; R=35000; [M-H]-
Name: Chlorthiazide
Name: 6-chloro-1,1-dioxo-4H-1$l^{6},2,4-benzothiadiazine-7-sulfonamide
Formula: C7H6ClN3O4S2
Exact mass: 294.94883
SMILES: C1=C2C(=CC(=C1Cl)S(=O)(=O)N)S(=O)(=O)NC=N2
InChI: InChI=1S/C7H6ClN3O4S2/c8-4-1-5-7(2-6(4)16(9,12)13)17(14,15)11-3-10-5/h1-3H,(H,10,11)(H2,9,12,13)
Instrument: Q Exactive Plus Orbitrap Thermo Scientific
Instrument type: LC-ESI-QFT
Ms type: MS2
Ion mode: NEGATIVE
Ionization: ESI
Fragmentation mode: HCD
Collision energy: 120 (nominal)
Resolution: 35000
Column name: XBridge C18 3.5um, 2.1x50mm, Waters
Retention time: 1.9 min
Base peak: 293.9414
Precursor m/z: 293.9415
Precursor type: [M-H]-
m/z	relative intensity	assigned
50.0036	13	C3N-
56.9804	11	C2HS-
57.9757	8	CNS-
60.0005	3	C5-
61.9707	2	NOS-
63.0115	5	C4HN-
63.9625	4	O2S-
64.0067	6	C3N2-
64.0193	42	C4H2N-
65.0146	53	C3HN2-
65.9985	14	C3NO-
74.0037	3	C5N-
76.0193	3	C5H2N-
77.9656	14	NO2S-
80.9804	2	C4HS-
81.9758	3	C3NS-
86.0037	14	C6N-
87.0114	62	C6HN-
88.0193	75	C6H2N-
89.0145	10	C5HN2-
89.9985	3	C5NO-
91.0062	2	C5HNO-
101.9655	8	C2NO2S-
105.9757	1	C5NS-
107.9913	2	C5H2NS-
108.9867	9	C4HN2S-
113.0146	176	C7HN2-
114.0224	43	C7H2N2-
115.0303	287	C7H3N2-
119.0252	3	C6H3N2O-
120.009	1	C6H2NO2-
122.9882	8	C6H2ClN-
129.0333	2	C7H3N3-
130.0173	5	C7H2N2O-
138.9833	3	C6H2ClNO-
148.9912	25	C7H2ClN2-
151.0069	7	C7H4ClN2-
177.9843	18	C7H2N2O2S-
178.9922	999	C7H3N2O2S-
213.9609	6	C7H3ClN2O2S-
