Mass spectrum: Chloridazone-methyl-desphenyl; LC-ESI-ITFT; MS2; CE: 90%; R=15000; [M+H]+
Name: Chloridazone-methyl-desphenyl
Name: 1-Methyl-4-amino-5-chloro-6-oxo-(1H)-pyridazine
Name: 5-amino-4-chloro-2-methyl-3-pyridazinone
Formula: C5H6ClN3O
Exact mass: 159.0199
SMILES: ClC(=C(C=N1)N)C(=O)N1C
InChI: InChI=1S/C5H6ClN3O/c1-9-5(10)4(6)3(7)2-8-9/h2H,7H2,1H3
Instrument: LTQ Orbitrap XL Thermo Scientific
Instrument type: LC-ESI-ITFT
Ms type: MS2
Ion mode: POSITIVE
Ionization: ESI
Fragmentation mode: HCD
Collision energy: 90 % (nominal)
Resolution: 15000
Column name: XBridge C18 3.5um, 2.1x50mm, Waters
Retention time: 2.2 min
Base peak: 160.0271
Precursor m/z: 160.0272
Precursor type: [M+H]+
m/z	relative intensity	assigned
54.0338	2	C3H4N+
55.0291	7	C2H3N2+
57.0447	2	C2H5N2+
58.0288	3	C2H4NO+
62.9633	1	CClO+
63.9948	4	CH3ClN+
66.0213	1	C3H2N2+
67.0291	9	C3H3N2+
68.0132	3	C3H2NO+
68.0495	19	C4H6N+
69.0447	25	C3H5N2+
73.9793	2	C2HClN+
75.9949	47	C2H3ClN+
78.0106	6	C2H5ClN+
81.0447	4	C4H5N2+
82.0287	5	C4H4NO+
83.0365	1	C4H5NO+
83.0603	2	C4H7N2+
84.0556	2	C3H6N3+
85.9792	3	C3HClN+
85.9918	8	C4H3Cl+
86.9996	12	C4H4Cl+
87.9949	382	C3H3ClN+
90.0105	8	C3H5ClN+
96.0445	8	C5H6NO+
96.056	1	C4H6N3+
97.0396	6	C4H5N2O+
97.0522	3	C5H7NO+
97.0635	7	C4H7N3+
99.9711	4	C4HClO+
100.9901	20	C3H2ClN2+
101.9741	13	C3HClNO+
102.0105	3	C4H5ClN+
103.0057	4	C3H4ClN2+
103.0183	6	C4H6ClN+
103.9898	27	C3H3ClNO+
105.0214	1	C3H6ClN2+
110.035	2	C4H4N3O+
115.0058	7	C4H4ClN2+
115.9898	26	C4H3ClNO+
116.9976	358	C4H4ClNO+
118.0057	1	C4H5ClNO+
124.0506	38	C5H6N3O+
125.0585	4	C5H7N3O+
128.9851	17	C4H2ClN2O+
130.0054	226	C5H5ClNO+
131.0007	26	C4H4ClN2O+
131.0133	41	C5H6ClNO+
132.0085	13	C4H5ClN2O+
133.0164	6	C4H6ClN2O+
140.0457	2	C5H6N3O2+
143.0007	2	C5H4ClN2O+
145.0038	119	C4H4ClN3O+
146.0114	2	C4H5ClN3O+
158.0116	9	C5H5ClN3O+
160.0272	999	C5H7ClN3O+
