Mass spectrum: Nordiazepam; LC-ESI-QFT; MS2; CE: 120; R=35000; [M+H]+
Name: Nordiazepam
Name: Nordazepam (1-Demethyldiazepam)
Name: 7-chloro-5-phenyl-1,3-dihydro-1,4-benzodiazepin-2-one
Formula: C15H11ClN2O
Exact mass: 270.05599
SMILES: C1C(=O)NC2=C(C=C(C=C2)Cl)C(=N1)C3=CC=CC=C3
InChI: InChI=1S/C15H11ClN2O/c16-11-6-7-13-12(8-11)15(17-9-14(19)18-13)10-4-2-1-3-5-10/h1-8H,9H2,(H,18,19)
Instrument: Q Exactive Plus Orbitrap Thermo Scientific
Instrument type: LC-ESI-QFT
Ms type: MS2
Ion mode: POSITIVE
Ionization: ESI
Fragmentation mode: HCD
Collision energy: 120 (nominal)
Resolution: 35000
Column name: XBridge C18 3.5um, 2.1x50mm, Waters
Retention time: 9.3 min
Base peak: 271.0623
Precursor m/z: 271.0633
Precursor type: [M+H]+
m/z	relative intensity	assigned
50.0151	36	C4H2+
51.0229	29	C4H3+
52.018	2	C3H2N+
52.0307	4	C4H4+
53.0021	12	C3HO+
53.0385	99	C4H5+
54.0338	2	C3H4N+
55.0177	8	C3H3O+
61.9791	7	CHClN+
62.015	6	C5H2+
63.0228	48	C5H3+
63.9947	1	CH3ClN+
64.0181	2	C4H2N+
64.0307	12	C5H4+
65.0385	349	C5H5+
66.0463	14	C5H6+
67.0416	1	C4H5N+
67.0542	1	C5H7+
72.9838	27	C3H2Cl+
74.0149	10	C6H2+
75.0228	141	C6H3+
76.018	18	C5H2N+
76.0306	34	C6H4+
77.0384	216	C6H5+
78.0337	30	C5H4N+
78.0463	186	C6H6+
79.0415	49	C5H5N+
79.0541	8	C6H7+
80.0493	14	C5H6N+
81.0334	12	C5H5O+
84.9838	6	C4H2Cl+
86.9995	26	C4H4Cl+
87.0228	2	C7H3+
87.9947	1	C3H3ClN+
88.0181	2	C6H2N+
88.0306	2	C7H4+
89.0385	310	C7H5+
90.0338	8	C6H4N+
90.0463	56	C7H6+
91.0541	539	C7H7+
92.0255	5	C6H4O+
92.0494	29	C6H6N+
93.0334	5	C6H5O+
94.0412	6	C6H6O+
95.049	325	C6H7O+
96.0442	29	C5H6NO+
96.9839	7	C5H2Cl+
97.9791	1	C4HClN+
98.9995	24	C5H4Cl+
100.0073	30	C5H5Cl+
100.0181	16	C7H2N+
101.0026	6	C4H4ClN+
102.0337	97	C7H4N+
103.0415	207	C7H5N+
104.0493	999	C7H6N+
105.0446	218	C6H5N2+
105.0572	277	C7H7N+
106.065	6	C7H8N+
109.0646	1	C7H9O+
110.0596	1	C6H8NO+
110.9994	29	C6H4Cl+
111.044	4	C6H7O2+
111.9947	11	C5H3ClN+
112.0071	7	C6H5Cl+
113.0151	94	C6H6Cl+
114.0104	27	C5H5ClN+
114.0337	11	C8H4N+
115.0289	1	C7H3N2+
115.0414	8	C8H5N+
115.0542	15	C9H7+
116.0366	3	C7H4N2+
116.0493	78	C8H6N+
117.0571	33	C8H7N+
118.0286	6	C7H4NO+
120.0443	37	C7H6NO+
121.0397	1	C6H5N2O+
122.9994	74	C7H4Cl+
123.9948	44	C6H3ClN+
125.0025	6	C6H4ClN+
126.0102	2	C9H2O+
126.0462	4	C10H6+
127.0182	81	C6H6ClN+
128.0495	2	C9H6N+
128.0621	9	C10H8+
129.01	71	C6H6ClO+
129.0445	169	C8H5N2+
130.0053	18	C5H5ClNO+
130.0399	158	C7H4N3+
130.0524	46	C8H6N2+
131.0603	37	C8H7N2+
132.0441	1	C8H6NO+
132.0681	1	C8H8N2+
133.052	5	C8H7NO+
134.0599	2	C8H8NO+
135.0313	11	C4H8ClN2O+
135.9948	8	C7H3ClN+
137.0024	13	C10HO+
137.0385	1	C11H5+
138.0104	203	C7H5ClN+
139.0056	188	C6H4ClN2+
139.0542	14	C11H7+
140.026	223	C7H7ClN+
140.0493	26	C10H6N+
145.0644	4	C10H9O+
146.0597	1	C9H8NO+
147.0551	6	C8H7N2O+
150.0104	15	C8H5ClN+
150.0463	13	C12H6+
151.0541	29	C12H7+
152.0619	179	C12H8+
153.0572	10	C11H7N+
153.0698	61	C12H9+
154.0053	1	C7H5ClNO+
154.0651	10	C11H8N+
155.0601	10	C10H7N2+
155.0727	2	C11H9N+
156.0806	7	C11H10N+
158.0472	4	C9H6N2O+
162.0416	2	C8H6N2O2+
163.0056	39	C8H4ClN2+
163.054	142	C13H7+
164.0008	25	C10N2O+
164.0497	22	C12H6N+
164.0618	78	C13H8+
165.0213	73	C8H6ClN2+
165.0697	162	C13H9+
166.0053	7	C8H5ClNO+
166.0649	29	C12H8N+
166.0774	1	C13H10+
167.0726	10	C12H9N+
168.0567	23	C12H8O+
168.0805	1	C12H10N+
169.0646	43	C12H9O+
170.0597	4	C11H8NO+
173.0154	1	C11H6Cl+
174.0104	1	C10H5ClN+
177.057	30	C13H7N+
178.0649	89	C13H8N+
179.0609	25	C12H7N2+
179.0727	159	C13H9N+
180.0806	397	C13H10N+
181.0758	7	C12H9N2+
181.0886	3	C13H11N+
182.0597	5	C12H8NO+
183.0678	2	C12H9NO+
188.0492	9	C14H6N+
189.0572	16	C14H7N+
190.0649	400	C14H8N+
191.0727	56	C14H9N+
192.0678	24	C13H8N2+
192.0806	15	C14H10N+
193.052	4	C13H7NO+
193.0761	13	C13H9N2+
193.0887	1	C14H11N+
196.0517	6	C10H11ClNO+
196.0756	2	C13H10NO+
199.0306	29	C13H8Cl+
200.026	2	C12H7ClN+
201.0336	5	C15H5O+
205.0759	79	C14H9N2+
206.0605	12	
206.0837	197	C14H10N2+
207.0674	4	C14H9NO+
207.0915	84	C14H11N2+
208.0995	14	C14H12N2+
211.0624	10	C10H12ClN2O+
213.0339	2	C13H8ClN+
214.0417	25	C13H9ClN+
216.0678	5	C15H8N2+
217.0759	11	C15H9N2+
218.0838	4	C15H10N2+
219.068	1	C15H9NO+
221.0473	1	C11H10ClN2O+
224.0261	6	C14H7ClN+
225.0329	1	C14H8ClN+
226.0414	2	C14H9ClN+
227.0495	1	C14H10ClN+
239.0366	1	C14H8ClN2+
240.0448	7	C14H9ClN2+
241.0525	21	C14H10ClN2+
