Mass spectrum: 2-Phenylpiperidine-2-acetamide; LC-ESI-QFT; MS2; CE: 180; R=35000; [M+H]+
Name: 2-Phenylpiperidine-2-acetamide
Name: 2-phenyl-2-piperidin-2-ylacetamide
Name: 2-Phenyl-2-(2-piperidinyl)acetamide
Formula: C13H18N2O
Exact mass: 218.14191
SMILES: C1CCNC(C1)C(C2=CC=CC=C2)C(=O)N
InChI: InChI=1S/C13H18N2O/c14-13(16)12(10-6-2-1-3-7-10)11-8-4-5-9-15-11/h1-3,6-7,11-12,15H,4-5,8-9H2,(H2,14,16)
Instrument: Q Exactive Plus Orbitrap Thermo Scientific
Instrument type: LC-ESI-QFT
Ms type: MS2
Ion mode: POSITIVE
Ionization: ESI
Fragmentation mode: HCD
Collision energy: 180 (nominal)
Resolution: 35000
Column name: XBridge C18 3.5um, 2.1x50mm, Waters
Retention time: 4.0 min
Base peak: 219.149
Precursor m/z: 219.1492
Precursor type: [M+H]+
m/z	relative intensity	assigned
53.0022	8	C3HO+
53.0386	11	C4H5+
54.0339	41	C3H4N+
55.0543	144	C4H7+
56.0495	999	C3H6N+
57.0699	6	C4H9+
63.0229	2	C5H3+
65.0386	73	C5H5+
67.0416	10	
67.0542	54	C5H7+
68.0495	69	C4H6N+
69.0573	71	C4H7N+
80.0494	4	C5H6N+
82.0651	21	C5H8N+
84.0808	275	C5H10N+
91.0542	31	C7H7+
115.0543	15	C9H7+
128.062	8	C10H8+
