Mass spectrum: Sulfamethazine; LC-ESI-ITFT; MS2; CE: 45%; R=7500; [M+H]+
Name: Sulfamethazine
Name: 4-amino-N-(4,6-dimethylpyrimidin-2-yl)benzenesulfonamide
Name: 4-amino-N-(4,6-dimethyl-2-pyrimidinyl)benzenesulfonamide
Formula: C12H14N4O2S
Exact mass: 278.0837
SMILES: c1(S(Nc2nc(cc(n2)C)C)(=O)=O)ccc(N)cc1
InChI: InChI=1S/C12H14N4O2S/c1-8-7-9(2)15-12(14-8)16-19(17,18)11-5-3-10(13)4-6-11/h3-7H,13H2,1-2H3,(H,14,15,16)
Instrument: LTQ Orbitrap XL Thermo Scientific
Instrument type: LC-ESI-ITFT
Ms type: MS2
Ion mode: POSITIVE
Ionization: ESI
Fragmentation mode: HCD
Collision energy: 45 % (nominal)
Resolution: 7500
Column name: XBridge C18 3.5um, 2.1x50mm, Waters
Retention time: 3.9 min
Base peak: 279.0918
Precursor m/z: 279.091
Precursor type: [M+H]+
m/z	relative intensity	assigned
65.0387	39	C5H5+
68.0495	55	C4H6N+
92.0495	314	C6H6N+
93.0574	17	C6H7N+
95.0602	21	C5H7N2+
108.0443	656	C6H6NO+
122.0714	34	C6H8N3+
123.0789	23	C6H9N3+
124.0869	999	C6H10N3+
149.0234	40	C8H5O3+
156.0113	693	C6H6NO2S+
186.033	823	C6H8N3O2S+
204.0436	346	C12H4N4+
213.1137	162	C12H13N4+
279.091	166	C12H15N4O2S+
