Mass spectrum: Epinephrine; LC-ESI-QFT; MS2; CE: 30; R=35000; [M+H]+
Name: Epinephrine
Name: 4-[(1R)-1-hydroxy-2-(methylamino)ethyl]benzene-1,2-diol
Formula: C9H13NO3
Exact mass: 183.08954
SMILES: CNC[C@@H](C1=CC(=C(C=C1)O)O)O
InChI: InChI=1S/C9H13NO3/c1-10-5-9(13)6-2-3-7(11)8(12)4-6/h2-4,9-13H,5H2,1H3/t9-/m0/s1
Instrument: Q Exactive Orbitrap Thermo Scientific
Instrument type: LC-ESI-QFT
Ms type: MS2
Ion mode: POSITIVE
Ionization: ESI
Fragmentation mode: HCD
Collision energy: 30 (nominal)
Resolution: 35000
Column name: XBridge C18 3.5um, 2.1x50mm, Waters
Retention time: 0.8 min
Base peak: 166.0863
Precursor m/z: 184.0968
Precursor type: [M+H]+
m/z	relative intensity	assigned
57.0573	6	C3H7N+
58.0652	8	C3H8N+
91.0543	1	C7H7+
107.0492	21	C7H7O+
109.0285	2	C6H5O2+
119.0491	1	C8H7O+
120.0808	13	C8H10N+
123.0436	2	C7H7O2+
125.0598	2	C7H9O2+
133.0522	2	C8H7NO+
135.0441	48	C8H7O2+
137.0597	9	C8H9O2+
148.0757	19	C9H10NO+
151.0628	15	C8H9NO2+
166.0864	999	C9H12NO2+
184.097	1	C9H14NO3+
