Mass spectrum: Di-n-butyl phthalate; LC-ESI-QFT; MS2; CE: 15; R=35000; [M-H]-
Name: Di-n-butyl phthalate
Name: Dibutyl phthalate
Name: dibutyl benzene-1,2-dicarboxylate
Formula: C16H22O4
Exact mass: 278.15181
SMILES: CCCCOC(=O)C1=CC=CC=C1C(=O)OCCCC
InChI: InChI=1S/C16H22O4/c1-3-5-11-19-15(17)13-9-7-8-10-14(13)16(18)20-12-6-4-2/h7-10H,3-6,11-12H2,1-2H3
Instrument: Q Exactive Plus Orbitrap Thermo Scientific
Instrument type: LC-ESI-QFT
Ms type: MS2
Ion mode: NEGATIVE
Ionization: ESI
Fragmentation mode: HCD
Collision energy: 15 (nominal)
Resolution: 35000
Column name: XBridge C18 3.5um, 2.1x50mm, Waters
Retention time: 13.8 min
Base peak: 277.1444
Precursor m/z: 277.1445
Precursor type: [M-H]-
m/z	relative intensity	assigned
77.0397	6	C6H5-
105.0346	3	C7H5O-
107.0504	31	C7H7O-
121.0297	109	C7H5O2-
125.0974	3	C8H13O-
127.113	142	C8H15O-
129.1286	15	C8H17O-
134.0375	357	C8H6O2-
135.0453	16	C8H7O2-
147.009	39	C8H3O3-
149.0244	2	C8H5O3-
165.0196	2	C8H5O4-
173.1184	1	C9H17O3-
179.0352	1	C9H7O4-
190.9988	1	C9H3O5-
203.1442	1	C14H19O-
205.16	48	C14H21O-
231.1388	1	C15H19O2-
233.155	126	C15H21O2-
249.1499	1	C15H21O3-
277.1448	999	C16H21O4-
