Mass spectrum: LSD; LC-ESI-QFT; MS2; CE: 15; R=35000; [M+H]+
Name: LSD
Name: D-Lysergic acid N,N-diethylamide
Name: N,N-diethyl-7-methyl-6,6a,8,9-tetrahydro-4H-indolo[4,3-fg]quinoline-9-carboxamide
Formula: C20H25N3O
Exact mass: 323.19976
SMILES: CCN(CC)C(=O)C1CN(C2CC3=CNC4=CC=CC(=C34)C2=C1)C
InChI: InChI=1S/C20H25N3O/c1-4-23(5-2)20(24)14-9-16-15-7-6-8-17-19(15)13(11-21-17)10-18(16)22(3)12-14/h6-9,11,14,18,21H,4-5,10,12H2,1-3H3
Instrument: Q Exactive Plus Orbitrap Thermo Scientific
Instrument type: LC-ESI-QFT
Ms type: MS2
Ion mode: POSITIVE
Ionization: ESI
Fragmentation mode: HCD
Collision energy: 15 (nominal)
Resolution: 35000
Column name: XBridge C18 3.5um, 2.1x50mm, Waters
Retention time: 5.6 min
Base peak: 324.2062
Precursor m/z: 324.207
Precursor type: [M+H]+
m/z	relative intensity	assigned
197.1072	1	C13H13N2+
208.0758	1	C14H10NO+
223.1227	4	C15H15N2+
251.118	1	C16H15N2O+
281.1648	62	C18H21N2O+
293.1645	1	C19H21N2O+
324.2068	999	C20H26N3O+
