Mass spectrum: Atorvastatin; LC-ESI-ITFT; MS2; CE: 45%; R=15000; [M+H]+
Name: Atorvastatin
Name: (3R,5R)-7-[3-(anilinocarbonyl)-5-(4-fluorophenyl)-2-isopropyl-4-phenyl-1H-pyrrol-1-yl]-3,5-dihydroxyheptanoic acid
Name: (3R,5R)-7-[2-(4-fluorophenyl)-3-phenyl-4-(phenylcarbamoyl)-5-propan-2-yl-pyrrol-1-yl]-3,5-bis(oxidanyl)heptanoic acid
Formula: C33H35FN2O5
Exact mass: 558.2530
SMILES: c1(c(n(CC[C@H](C[C@H](CC(=O)O)O)O)c(c1C(Nc1ccccc1)=O)C(C)C)c1ccc(F)cc1)c1ccccc1
InChI: InChI=1S/C33H35FN2O5/c1-21(2)31-30(33(41)35-25-11-7-4-8-12-25)29(22-9-5-3-6-10-22)32(23-13-15-24(34)16-14-23)36(31)18-17-26(37)19-27(38)20-28(39)40/h3-16,21,26-27,37-38H,17-20H2,1-2H3,(H,35,41)(H,39,40)/t26-,27-/m1/s1
Instrument: LTQ Orbitrap XL Thermo Scientific
Instrument type: LC-ESI-ITFT
Ms type: MS2
Ion mode: POSITIVE
Ionization: ESI
Fragmentation mode: HCD
Collision energy: 45 % (nominal)
Resolution: 15000
Column name: XBridge C18 3.5um, 2.1x50mm, Waters
Retention time: 12.4 min
Base peak: 559.2616
Precursor m/z: 559.2603
Precursor type: [M+H]+
m/z	relative intensity	assigned
79.0545	8	C6H7+
83.0493	9	C5H7O+
92.0495	19	C6H6N+
120.0443	27	C7H6NO+
238.1028	63	C16H13FN+
249.0951	60	C17H12FN+
250.1027	999	C17H13FN+
252.118	27	C17H15FN+
262.1028	48	C18H13FN+
264.118	23	C18H15FN+
276.0825	27	C18H11FNO+
276.1183	385	C19H15FN+
277.1258	13	C19H16FN+
278.1334	9	C19H17FN+
279.1425	14	C19H18FN+
280.1497	36	C19H19FN+
290.1325	13	C20H17FN+
292.1496	359	C20H19FN+
294.1297	15	C19H17FNO+
294.1648	28	C20H21FN+
302.134	44	C21H17FN+
303.1427	9	C21H18FN+
306.1294	45	C20H17FNO+
316.15	18	C22H19FN+
318.1286	22	C21H17FNO+
318.1653	47	C22H21FN+
320.1442	48	C24H18N+
336.1766	17	C22H23FNO+
344.1452	16	C23H19FNO+
353.2689	7	C16H36FN3O4+
362.1551	113	C26H20NO+
380.1657	106	C23H23FNO3+
380.2022	14	C24H27FNO2+
398.176	13	C23H25FNO4+
406.1829	22	C25H25FNO3+
422.2136	26	C26H29FNO3+
440.2236	38	C26H31FNO4+
466.2022	65	C27H29FNO5+
