Mass spectrum: Dexamethasone acetate; LC-ESI-QFT; MS2; CE: 15; R=35000; [M+H]+
Name: Dexamethasone acetate
Name: Dexamethason-21-acetate
Name: [2-(9-fluoro-11,17-dihydroxy-10,13,16-trimethyl-3-oxo-6,7,8,11,12,14,15,16-octahydrocyclopenta[a]phenanthren-17-yl)-2-oxoethyl] acetate
Formula: C24H31FO6
Exact mass: 434.21047
SMILES: CC1CC2C3CCC4=CC(=O)C=CC4(C3(C(CC2(C1(C(=O)COC(=O)C)O)C)O)F)C
InChI: InChI=1S/C24H31FO6/c1-13-9-18-17-6-5-15-10-16(27)7-8-21(15,3)23(17,25)19(28)11-22(18,4)24(13,30)20(29)12-31-14(2)26/h7-8,10,13,17-19,28,30H,5-6,9,11-12H2,1-4H3
Instrument: Q Exactive Plus Orbitrap Thermo Scientific
Instrument type: LC-ESI-QFT
Ms type: MS2
Ion mode: POSITIVE
Ionization: ESI
Fragmentation mode: HCD
Collision energy: 15 (nominal)
Resolution: 35000
Column name: XBridge C18 3.5um, 2.1x50mm, Waters
Retention time: 10.2 min
Base peak: 435.2176
Precursor m/z: 435.2177
Precursor type: [M+H]+
m/z	relative intensity	assigned
61.0284	9	C2H5O2+
69.0696	1	C5H9+
85.0645	1	C5H9O+
93.0699	1	C7H9+
95.0491	2	C6H7O+
95.0856	7	C7H11+
97.0648	7	C6H9O+
99.0805	1	C6H11O+
101.0234	37	C4H5O3+
103.0387	1	C4H7O3+
107.0855	24	C8H11+
109.0648	7	C7H9O+
109.1013	8	C8H13+
111.0804	4	C7H11O+
113.0596	2	C6H9O2+
115.0754	10	C6H11O2+
117.0543	1	C5H9O3+
119.0854	5	C9H11+
121.0645	7	C8H9O+
121.1012	11	C9H13+
123.0804	7	C8H11O+
123.1169	12	C9H15+
125.0597	1	C7H9O2+
125.096	3	C8H13O+
131.0855	1	C10H11+
133.1013	15	C10H13+
135.0804	29	C9H11O+
137.0599	1	C8H9O2+
137.0962	13	C9H13O+
139.0754	1	C8H11O2+
141.0541	1	C7H9O3+
145.1013	1	C11H13+
147.0805	159	C10H11O+
149.0962	61	C10H13O+
151.0753	6	C9H11O2+
151.1118	35	C10H15O+
153.0911	19	C9H13O2+
155.0703	1	C8H11O3+
157.0856	1	C8H13O3+
157.1016	1	C12H13+
159.0804	22	C11H11O+
161.0596	12	C10H9O2+
161.0961	68	C11H13O+
163.0754	10	C10H11O2+
163.1118	19	C11H15O+
165.091	1	C10H13O2+
167.0705	7	C9H11O3+
167.1068	12	C10H15O2+
169.0645	7	C12H9O+
169.0858	2	C9H13O3+
171.0804	38	C12H11O+
173.0962	44	C12H13O+
175.1119	4	C12H15O+
177.0911	53	C11H13O2+
179.1065	5	C11H15O2+
183.0805	12	C13H11O+
183.1169	1	C14H15+
185.0961	62	C13H13O+
187.0754	42	C12H11O2+
187.1118	11	C13H15O+
189.0908	9	C12H13O2+
191.1068	6	C12H15O2+
195.1017	43	C11H15O3+
197.0963	9	C14H13O+
199.0754	1	C13H11O2+
199.1118	16	C14H15O+
201.0908	5	C13H13O2+
201.1273	8	C14H17O+
203.1067	14	C13H15O2+
209.0963	6	C15H13O+
209.1173	8	C12H17O3+
211.1119	44	C15H15O+
213.091	5	C14H13O2+
213.1275	31	C15H17O+
215.1072	9	C14H15O2+
215.1429	4	C15H19O+
219.1015	2	C13H15O3+
221.0961	13	C16H13O+
221.1329	1	C17H17+
222.1036	1	C16H14O+
223.1119	27	C16H15O+
224.1194	1	C16H16O+
225.091	4	C15H13O2+
225.1276	37	C16H17O+
227.1064	8	C15H15O2+
227.1432	135	C16H19O+
229.1226	1	C15H17O2+
235.1118	33	C17H15O+
237.1275	231	C17H17O+
239.1069	14	C16H15O2+
239.1431	26	C17H19O+
241.1225	26	C16H17O2+
241.1582	1	C17H21O+
247.1116	1	C18H15O+
249.1279	17	C18H17O+
251.1069	6	C17H15O2+
251.1432	42	C18H19O+
253.1224	45	C17H17O2+
253.1588	27	C18H21O+
255.1381	29	C17H19O2+
257.1337	4	C20H17+
261.1274	23	C19H17O+
263.143	26	C19H19O+
263.1799	1	C20H23+
265.1226	2	C18H17O2+
265.1587	22	C19H21O+
267.1381	41	C18H19O2+
267.1746	33	C19H23O+
273.128	1	C20H17O+
273.1639	2	C21H21+
275.1432	51	C20H19O+
276.1513	2	C20H20O+
277.1237	9	C16H18FO3+
277.1588	89	C20H21O+
278.1658	1	C20H22O+
279.1385	18	C19H19O2+
279.1745	101	C20H23O+
281.1559	8	C16H22FO3+
281.1901	112	C20H25O+
289.159	12	C21H21O+
291.1744	277	C21H23O+
293.1541	24	C20H21O2+
295.1335	28	C16H20FO4+
295.1695	59	C20H23O2+
297.1485	1	C19H21O3+
297.1848	24	C20H25O2+
301.1588	147	C22H21O+
307.1694	35	C21H23O2+
309.1851	805	C21H25O2+
311.1647	4	C20H23O3+
311.1811	5	C21H24FO+
315.1754	1	C23H23O+
319.1695	609	C22H23O2+
321.1647	4	C22H22FO+
325.18	45	C21H25O3+
327.1956	263	C21H27O3+
337.18	766	C22H25O3+
339.176	21	C22H24FO2+
351.1958	40	C23H27O3+
353.1752	4	C22H25O4+
355.1907	537	C22H27O4+
357.1862	16	C22H26FO3+
361.18	41	
369.2061	17	
373.2012	65	C22H29O5+
379.1907	188	C24H27O4+
397.2014	999	C24H29O5+
399.1972	11	
415.2119	433	
435.2181	141	C24H32FO6+
