Mass spectrum: DDAO; LC-ESI-ITFT; MS2; CE: 90%; R=15000; [M+H]+
Name: DDAO
Name: N,N-dimethyl-1-decanamine oxide
Name: NN-Dimethyldicylamine N-oxide
Formula: C12H27NO
Exact mass: 201.2093
SMILES: N(C)(CCCCCCCCCC)(C)=O
InChI: InChI=1S/C12H27NO/c1-4-5-6-7-8-9-10-11-12-13(2,3)14/h4-12H2,1-3H3
Instrument: LTQ Orbitrap XL Thermo Scientific
Instrument type: LC-ESI-ITFT
Ms type: MS2
Ion mode: POSITIVE
Ionization: ESI
Fragmentation mode: HCD
Collision energy: 90 % (nominal)
Resolution: 15000
Column name: XBridge C18 3.5um, 2.1x50mm, Waters
Retention time: 10.4 min
Base peak: 202.2163
Precursor m/z: 202.2165
Precursor type: [M+H]+
m/z	relative intensity	assigned
57.0698	51	C4H9+
58.0651	999	C3H8N+
62.06	53	C2H8NO+
72.0808	2	C4H10N+
184.2061	16	C12H26N+
