Mass spectrum: Simazine-2-hydroxy; LC-ESI-ITFT; MS2; CE: 75%; R=7500; [M+H]+
Name: Simazine-2-hydroxy
Name: 2-Hydroxysimazine
Name: 2,6-bis(ethylamino)-1H-1,3,5-triazin-4-one
Formula: C7H13N5O
Exact mass: 183.1120
SMILES: Oc1nc(NCC)nc(NCC)n1
InChI: InChI=1S/C7H13N5O/c1-3-8-5-10-6(9-4-2)12-7(13)11-5/h3-4H2,1-2H3,(H3,8,9,10,11,12,13)
Instrument: LTQ Orbitrap XL Thermo Scientific
Instrument type: LC-ESI-ITFT
Ms type: MS2
Ion mode: POSITIVE
Ionization: ESI
Fragmentation mode: HCD
Collision energy: 75 % (nominal)
Resolution: 7500
Column name: XBridge C18 3.5um, 2.1x50mm, Waters
Retention time: 3.5 min
Base peak: 184.1194
Precursor m/z: 184.1193
Precursor type: [M+H]+
m/z	relative intensity	assigned
68.0243	13	C2H2N3+
69.0084	446	C2HN2O+
71.0604	75	C3H7N2+
86.0349	49	C2H4N3O+
96.0557	18	C4H6N3+
97.0397	165	C4H5N2O+
113.0821	14	C4H9N4+
114.0662	999	C4H8N3O+
124.087	14	C6H10N3+
139.0613	5	C5H7N4O+
141.1135	4	C6H13N4+
142.0977	3	C6H12N3O+
156.088	28	C5H10N5O+
184.1193	115	C7H14N5O+
