Mass spectrum: Minocycline; LC-ESI-QFT; MS2; CE: 90; R=35000; [M+H]+
Name: Minocycline
Name: Minocin
Name: (4S,4aS,5aR,12aS)-4,7-Bis(dimethylamino)-3,10,12,12a-tetrahydroxy-1,11-dioxo-1,4,4a,5,5a,6,11,12a-octahydro-2-tetracenecarboxamide
Formula: C23H27N3O7
Exact mass: 457.18490
SMILES: [H][C@@]12CC3=C(C(O)=CC=C3N(C)C)C(=O)C1=C(O)[C@]1(O)C(=O)C(C(N)=O)=C(O)[C@@H](N(C)C)[C@]1([H])C2
InChI: InChI=1S/C23H27N3O7/c1-25(2)12-5-6-13(27)15-10(12)7-9-8-11-17(26(3)4)19(29)16(22(24)32)21(31)23(11,33)20(30)14(9)18(15)28/h5-6,9,11,17,27,29-30,33H,7-8H2,1-4H3,(H2,24,32)/t9-,11-,17-,23-/m0/s1
Instrument: Q Exactive Plus Orbitrap Thermo Scientific
Instrument type: LC-ESI-QFT
Ms type: MS2
Ion mode: POSITIVE
Ionization: ESI
Fragmentation mode: HCD
Collision energy: 90 (nominal)
Resolution: 35000
Column name: XBridge C18 3.5um, 2.1x50mm, Waters
Retention time: 3.7 min
Base peak: 229.5995
Precursor m/z: 458.1922
Precursor type: [M+H]+
m/z	relative intensity	assigned
53.0022	12	C3HO+
53.0386	10	C4H5+
54.0338	1	C3H4N+
55.0178	21	C3H3O+
55.0416	6	C3H5N+
55.0541	1	C4H7+
56.0494	18	C3H6N+
58.0651	124	C3H8N+
65.0385	25	C5H5+
66.0337	1	C4H4N+
67.0416	1	C4H5N+
67.0541	5	C5H7+
68.0494	23	C4H6N+
68.997	21	C3HO2+
69.0333	6	C4H5O+
70.065	69	C4H8N+
71.0126	4	C3H3O2+
72.0443	19	C3H6NO+
74.0599	2	C3H8NO+
77.0021	4	C5HO+
77.0384	5	C6H5+
78.0463	1	C6H6+
79.0178	2	C5H3O+
79.0541	10	C6H7+
80.013	30	C4H2NO+
80.0494	7	C5H6N+
81.0334	6	C5H5O+
81.0572	6	C5H7N+
81.0698	1	C6H9+
82.0284	1	C4H4NO+
82.065	15	C5H8N+
83.0127	3	C4H3O2+
83.0365	2	C4H5NO+
84.0443	11	C4H6NO+
84.0807	46	C5H10N+
86.0599	7	C4H8NO+
89.0383	1	C7H5+
91.0179	4	C6H3O+
91.0542	16	C7H7+
93.0335	9	C6H5O+
93.0571	2	C6H7N+
94.0414	1	C6H6O+
94.0651	10	C6H8N+
95.0127	24	C5H3O2+
95.049	12	C6H7O+
96.0443	6	C5H6NO+
96.0806	9	C6H10N+
98.06	203	C5H8NO+
102.0463	25	C8H6+
103.0541	11	C8H7+
104.0493	4	C7H6N+
104.0619	16	C8H8+
105.0334	2	C7H5O+
105.0446	5	C6H5N2+
105.0571	9	C7H7N+
105.0697	4	C8H9+
106.065	11	C7H8N+
107.0125	1	C6H3O2+
107.0491	11	C7H7O+
107.0729	4	C7H9N+
108.0442	8	C6H6NO+
108.0806	31	C7H10N+
110.0601	8	C6H8NO+
115.0541	16	C9H7+
116.0492	2	C8H6N+
116.0617	1	C9H8+
117.0572	12	C8H7N+
117.0696	4	C9H9+
118.041	1	C8H6O+
118.065	19	C8H8N+
119.0126	5	C7H3O2+
119.0491	2	C8H7O+
120.0444	2	C7H6NO+
120.0807	12	C8H10N+
121.0283	17	C7H5O2+
122.0598	6	C7H8NO+
123.044	2	C7H7O2+
123.0679	1	C7H9NO+
124.0391	7	C6H6NO2+
124.0755	2	C7H10NO+
126.0549	11	C6H8NO2+
127.0541	1	C10H7+
128.062	6	C10H8+
129.0698	10	C10H9+
130.0651	265	C9H8N+
131.0729	581	C9H9N+
132.0443	4	C8H6NO+
132.057	9	C9H8O+
132.0806	9	C9H10N+
133.0282	5	C8H5O2+
133.0521	15	C8H7NO+
133.0647	6	C9H9O+
134.06	25	C8H8NO+
135.0438	1	C8H7O2+
135.0677	21	C8H9NO+
136.0756	27	C8H10NO+
137.0233	1	C7H5O3+
137.0834	12	C8H11NO+
138.0549	1	C7H8NO2+
139.0387	1	C7H7O3+
139.0543	5	C11H7+
140.0618	2	C11H8+
141.0698	19	C11H9+
142.065	7	C10H8N+
143.049	2	C10H7O+
143.0726	2	C10H9N+
143.0854	4	C11H11+
144.0442	4	C9H6NO+
144.057	8	C10H8O+
144.0806	21	C10H10N+
145.0281	1	C9H5O2+
145.0522	1	C9H7NO+
145.0647	11	C10H9O+
145.0886	5	C10H11N+
146.0599	32	C9H8NO+
147.0437	9	C9H7O2+
147.0678	4	C9H9NO+
148.0756	28	C9H10NO+
149.0234	8	C8H5O3+
149.0834	6	C9H11NO+
150.0548	8	C8H8NO2+
150.0913	16	C9H12NO+
151.0388	1	C8H7O3+
152.0339	1	C7H6NO3+
152.0618	19	C12H8+
153.018	2	C7H5O4+
153.0698	29	C12H9+
154.0651	8	C11H8N+
154.0773	1	C12H10+
155.0492	4	C11H7O+
155.0601	2	C10H7N2+
155.0727	1	C11H9N+
155.0855	6	C12H11+
156.0567	1	C11H8O+
156.0809	14	C11H10N+
157.0648	11	C11H9O+
157.0884	1	C11H11N+
158.0599	69	C10H8NO+
158.0721	6	C11H10O+
159.0677	173	C10H9NO+
160.0391	20	C9H6NO2+
160.0516	9	C10H8O2+
160.0755	54	C10H10NO+
161.0596	6	C10H9O2+
162.0548	1	C9H8NO2+
163.0625	2	C9H9NO2+
164.0702	11	C9H10NO2+
165.0181	7	C8H5O4+
165.0699	34	C13H9+
165.078	4	C9H11NO2+
166.0494	2	C8H8NO3+
166.0651	9	C12H8N+
166.0777	2	C13H10+
166.086	5	C9H12NO2+
167.0335	9	C8H7O4+
167.049	5	C12H7O+
167.0728	13	C12H9N+
167.0854	5	C13H11+
168.0568	14	C12H8O+
168.0806	21	C12H10N+
169.0647	24	C12H9O+
170.0599	22	C11H8NO+
170.0721	1	C12H10O+
170.0962	5	C12H12N+
171.0437	2	C11H7O2+
171.0678	6	C11H9NO+
171.0803	6	C12H11O+
172.0392	31	C10H6NO2+
172.0755	23	C11H10NO+
173.0468	7	C10H7NO2+
173.0591	1	C11H9O2+
173.0834	24	C11H11NO+
174.0548	163	C10H8NO2+
174.0914	14	C11H12NO+
175.0386	1	C10H7O3+
175.0625	7	C10H9NO2+
176.0628	2	C14H8+
176.0706	6	C10H10NO2+
177.0182	6	C9H5O4+
177.0696	5	C14H9+
178.065	2	C13H8N+
178.0776	5	C14H10+
178.0857	4	C10H12NO2+
179.0488	5	C13H7O+
179.0852	2	C14H11+
180.0571	4	C13H8O+
180.0806	26	C13H10N+
181.0647	46	C13H9O+
181.0883	22	C13H11N+
182.0601	8	C12H8NO+
182.0726	7	C13H10O+
182.0963	28	C13H12N+
183.0437	1	C12H7O2+
183.0676	15	C12H9NO+
183.0803	2	C13H11O+
183.1034	1	C13H13N+
184.0519	5	C12H8O2+
184.0756	87	C12H10NO+
185.0469	1	C11H7NO2+
185.0595	11	C12H9O2+
185.0833	5	C12H11NO+
186.0312	4	C11H6O3+
186.0548	36	C11H8NO2+
186.0912	17	C12H12NO+
187.0626	999	C11H9NO2+
188.0704	118	C11H10NO2+
189.07	3	C15H9+
189.0782	57	C11H11NO2+
190.065	2	C14H8N+
190.0862	1	C11H12NO2+
191.0727	5	C14H9N+
192.0568	4	C14H8O+
192.0805	14	C14H10N+
193.0649	9	C14H9O+
193.0884	6	C14H11N+
194.0599	14	C13H8NO+
194.0724	5	C14H10O+
194.0963	23	C14H12N+
195.0437	2	C13H7O2+
195.0676	11	C13H9NO+
195.0806	5	C14H11O+
195.1043	2	C14H13N+
196.0518	4	C13H8O2+
196.0756	82	C13H10NO+
196.112	6	C14H14N+
197.0596	37	C13H9O2+
197.0834	15	C13H11NO+
198.0551	13	C12H8NO2+
198.0673	8	C13H10O2+
198.0911	80	C13H12NO+
199.0626	11	C12H9NO2+
199.0754	5	C13H11O2+
199.0989	20	C13H13NO+
200.0341	24	C11H6NO3+
200.0704	36	C12H10NO2+
200.1065	8	C13H14NO+
201.0416	4	C11H7NO3+
201.0783	64	C12H11NO2+
202.0497	149	C11H8NO3+
202.0861	24	C12H12NO2+
203.0336	1	C11H7O4+
203.0575	6	C11H9NO3+
203.094	5	C12H13NO2+
204.0808	7	C15H10N+
204.1014	1	C12H14NO2+
205.0648	9	C15H9O+
205.0886	6	C15H11N+
206.06	5	C14H8NO+
206.0965	8	C15H12N+
207.0444	2	C14H7O2+
207.0679	10	C14H9NO+
207.0805	4	C15H11O+
207.1041	4	C15H13N+
208.0756	50	C14H10NO+
208.1116	4	C15H14N+
209.0596	21	C14H9O2+
209.0834	43	C14H11NO+
210.055	15	C13H8NO2+
210.067	8	C14H10O2+
210.0912	93	C14H12NO+
211.0626	19	C13H9NO2+
211.0749	7	C14H11O2+
211.099	35	C14H13NO+
212.0705	284	C13H10NO2+
213.0543	6	C13H9O3+
213.0783	40	C13H11NO2+
214.0499	7	C12H8NO3+
214.086	27	C13H12NO2+
214.1221	1	C14H16NO+
215.0575	335	C12H9NO3+
216.0653	8	C12H10NO3+
216.0808	1	C16H10N+
216.1019	2	C13H14NO2+
217.0732	36	C12H11NO3+
218.0446	5	C11H8NO4+
218.0596	2	C15H8NO+
218.096	2	C16H12N+
219.0677	4	C15H9NO+
220.0755	39	C15H10NO+
221.0598	18	C15H9O2+
221.0831	11	C15H11NO+
222.0549	10	C14H8NO2+
222.0673	4	C15H10O2+
222.0912	36	C15H12NO+
223.0626	10	C14H9NO2+
223.075	5	C15H11O2+
223.0988	12	C15H13NO+
224.0705	147	C14H10NO2+
224.1067	15	C15H14NO+
225.0546	7	C14H9O3+
225.0781	42	C14H11NO2+
226.0503	8	C13H8NO3+
226.0861	162	C14H12NO2+
227.0574	8	C13H9NO3+
227.0701	7	C14H11O3+
227.0939	103	C14H13NO2+
228.065	15	C13H10NO3+
228.1019	13	C14H14NO2+
229.0732	4	C13H11NO3+
229.1095	11	C14H15NO2+
230.081	4	C13H12NO3+
232.0753	6	C16H10NO+
233.0681	14	C12H11NO4+
233.0833	10	C16H11NO+
234.0554	2	C15H8NO2+
234.067	2	C16H10O2+
234.0911	20	C16H12NO+
235.0627	7	C15H9NO2+
235.0746	2	C16H11O2+
235.0989	5	C16H13NO+
236.0704	94	C15H10NO2+
237.0543	8	C15H9O3+
237.0782	27	C15H11NO2+
238.086	120	C15H12NO2+
239.0575	6	C14H9NO3+
239.0939	65	C15H13NO2+
240.0652	133	C14H10NO3+
240.1011	17	C15H14NO2+
241.049	1	C14H9O4+
241.0728	14	C14H11NO3+
241.1096	2	C15H15NO2+
242.081	59	C14H12NO3+
243.0893	5	C14H13NO3+
244.0759	1	C17H10NO+
246.0549	1	C16H8NO2+
246.0908	2	C17H12NO+
247.0995	1	C17H13NO+
248.0704	46	C16H10NO2+
249.0542	5	C16H9O3+
249.0779	14	C16H11NO2+
250.0496	6	C15H8NO3+
250.086	37	C16H12NO2+
251.0572	4	C15H9NO3+
251.0706	2	C16H11O3+
251.0937	20	C16H13NO2+
252.0653	70	C15H10NO3+
252.1015	15	C16H14NO2+
253.0733	15	C15H11NO3+
253.11	6	C16H15NO2+
254.0576	1	C15H10O4+
254.081	32	C15H12NO3+
255.0883	16	C15H13NO3+
256.0605	2	C14H10NO4+
256.0962	6	C15H14NO3+
257.1047	7	C15H15NO3+
260.0702	7	C17H10NO2+
261.0783	4	C17H11NO2+
262.086	21	C17H12NO2+
263.0697	1	C17H11O3+
263.0938	5	C17H13NO2+
264.0654	66	C16H10NO3+
264.1018	6	C17H14NO2+
265.0728	14	C16H11NO3+
266.081	41	C16H12NO3+
267.0885	24	C16H13NO3+
268.0602	714	C15H10NO4+
269.0678	2	C15H11NO4+
269.1045	2	C16H15NO3+
270.0762	10	C15H12NO4+
270.112	4	C16H16NO3+
272.1277	6	C16H18NO3+
274.0857	1	C18H12NO2+
276.0653	38	C17H10NO3+
276.1019	2	C18H14NO2+
277.0731	10	C17H11NO3+
277.0963	1	C17H13N2O2+
278.0578	1	C17H10O4+
278.0809	21	C17H12NO3+
279.0885	11	C17H13NO3+
280.0601	6	C16H10NO4+
280.0967	10	C17H14NO3+
281.1042	7	C17H15NO3+
282.0757	7	C16H12NO4+
283.0837	149	C16H13NO4+
285.0996	2	C16H15NO4+
286.0701	2	C15H12NO5+
288.0656	1	C18H10NO3+
290.0814	7	C18H12NO3+
291.0894	1	C18H13NO3+
292.06	16	C17H10NO4+
292.0963	4	C18H14NO3+
293.0679	4	C17H11NO4+
294.0757	58	C17H12NO4+
296.0913	1	C17H14NO4+
304.0598	5	C18H10NO4+
305.0678	1	C18H11NO4+
306.076	2	C18H12NO4+
308.0916	1	C18H14NO4+
319.1079	2	C19H15N2O3+
321.0633	1	C18H11NO5+
322.0711	17	C18H12NO5+
332.055	5	C19H10NO5+
