Mass spectrum: Furathiocarb; LC-ESI-QFT; MS2; CE: 150%; R=17500; [M+H]+
Name: Furathiocarb
Name: (2,2-dimethyl-3H-1-benzofuran-7-yl) N-[butoxycarbonyl(methyl)amino]sulfanyl-N-methylcarbamate
Formula: C18H26N2O5S
Exact mass: 382.1562
SMILES: CCCCOC(=O)N(C)SN(C)C(=O)OC1=CC=CC2=C1OC(C2)(C)C
InChI: InChI=1S/C18H26N2O5S/c1-6-7-11-23-16(21)19(4)26-20(5)17(22)24-14-10-8-9-13-12-18(2,3)25-15(13)14/h8-10H,6-7,11-12H2,1-5H3
Instrument: Exploris 240 Orbitrap Thermo Scientific
Instrument type: LC-ESI-QFT
Ms type: MS2
Ion mode: POSITIVE
Ionization: ESI
Fragmentation mode: HCD
Collision energy: 150 % (nominal)
Resolution: 17500
Column name: XBridge C18 3.5um, 2.1x50mm, Waters
Retention time: 13.069 min
Base peak: 383.1633
Precursor m/z: 383.1635
Precursor type: [M+H]+
m/z	relative intensity	assigned
51.0229	288	C4H3+
53.0386	975	C4H5+
55.0178	130	C3H3O+
55.0542	91	C4H7+
56.9796	83	C2HS+
58.0288	83	C2H4NO+
58.995	159	C2H3S+
63.023	64	C5H3+
65.0387	552	C5H5+
66.0463	246	C5H6+
67.0541	113	C5H7+
68.9794	155	C3HS+
70.9951	50	C3H3S+
77.0386	999	C6H5+
79.0544	290	C6H7+
81.0335	217	C5H5O+
84.9743	183	C3HOS+
89.0386	131	C7H5+
91.0542	724	C7H7+
94.0414	101	C6H6O+
95.0489	245	C6H7O+
97.0107	710	C5H5S+
102.0464	49	C8H6+
103.0543	891	C8H7+
105.0444	257	C6H5N2+
105.0698	104	C8H9+
107.0492	55	C7H7O+
115.0542	852	C9H7+
116.062	71	C9H8+
117.0701	83	C9H9+
123.0439	43	C7H7O2+
131.0494	79	C9H7O+
134.0188	82	C8H6S+
147.044	66	C9H7O2+
