Mass spectrum: Cycloxaprid; LC-ESI-QFT; MS2; CE: 90%; R=17500; [M+H]+
Name: Cycloxaprid
Name: 1-((6-chloropyridin-3-yl)methyl)-9-nitro-2,3,5,6,7,8-hexahydro-1H-5,8-epoxyimidazo[1,2-a]azepine
Name: 5-[(6-chloropyridin-3-yl)methyl]-7-nitro-11-oxa-2,5-diazatricyclo[6.2.1.02,6]undec-6-ene
Formula: C14H15ClN4O3
Exact mass: 322.0833
SMILES: C1CC2N3CCN(C3=C(C1O2)[N+](=O)[O-])CC4=CN=C(C=C4)Cl
InChI: InChI=1S/C14H15ClN4O3/c15-11-3-1-9(7-16-11)8-17-5-6-18-12-4-2-10(22-12)13(14(17)18)19(20)21/h1,3,7,10,12H,2,4-6,8H2
Instrument: Exploris 240 Orbitrap Thermo Scientific
Instrument type: LC-ESI-QFT
Ms type: MS2
Ion mode: POSITIVE
Ionization: ESI
Fragmentation mode: HCD
Collision energy: 90 % (nominal)
Resolution: 17500
Column name: XBridge C18 3.5um, 2.1x50mm, Waters
Retention time: 2.935 min
Base peak: 323.0906
Precursor m/z: 323.0905
Precursor type: [M+H]+
m/z	relative intensity	assigned
54.0338	14	C3H4N+
55.0543	14	C4H7+
56.0497	10	C3H6N+
65.0386	11	C5H5+
67.0416	26	C4H5N+
67.0542	24	C5H7+
69.0335	19	C4H5O+
79.0545	11	C6H7+
80.0495	55	C5H6N+
80.062	6	C6H8+
81.0446	26	C4H5N2+
81.0574	33	C5H7N+
82.0524	14	C4H6N2+
82.0651	42	C5H8N+
83.0604	21	C4H7N2+
84.0682	15	C4H8N2+
90.034	93	C6H4N+
94.0652	87	C6H8N+
95.0607	41	C5H7N2+
95.0729	53	C6H9N+
98.9997	50	C5H4Cl+
104.0492	12	C7H6N+
106.0652	38	C7H8N+
107.0604	28	C6H7N2+
107.0728	15	C7H9N+
108.0681	46	C6H8N2+
108.0805	37	C7H10N+
109.0759	22	C6H9N2+
109.0886	17	C7H11N+
121.0761	219	C7H9N2+
122.0838	44	C7H10N2+
123.0552	20	C6H7N2O+
123.0918	257	C7H11N2+
126.0106	999	C6H5ClN+
133.0761	24	C8H9N2+
136.087	12	C7H10N3+
138.0661	11	C6H8N3O+
140.0263	17	C7H7ClN+
144.0206	11	C6H7ClNO+
151.0866	132	C8H11N2O+
152.0261	15	C8H7ClN+
165.0212	13	C8H6ClN2+
167.0369	12	C8H8ClN2+
184.0868	14	C11H10N3+
185.0943	36	C11H11N3+
191.0372	11	C10H8ClN2+
194.0481	18	C9H9ClN3+
206.0477	19	C10H9ClN3+
208.0639	53	C10H11ClN3+
220.0636	130	C11H11ClN3+
234.08	22	C12H13ClN3+
248.0949	65	C13H15ClN3+
276.09	23	C14H15ClN3O+
