Mass spectrum: Cyclopentolate; LC-ESI-QFT; MS2; CE: 30%; R=15000; [M+H]+
Name: Cyclopentolate
Name: 2-(dimethylamino)ethyl 2-(1-oxidanylcyclopentyl)-2-phenyl-ethanoate
Formula: C17H25NO3
Exact mass: 291.1834437
SMILES: CN(C)CCOC(=O)C(C1=CC=CC=C1)C2(CCCC2)O
InChI: InChI=1S/C17H25NO3/c1-18(2)12-13-21-16(19)15(14-8-4-3-5-9-14)17(20)10-6-7-11-17/h3-5,8-9,15,20H,6-7,10-13H2,1-2H3
Instrument: Exploris 240 Thermo Scientific
Instrument type: LC-ESI-QFT
Ms type: MS2
Ion mode: POSITIVE
Ionization: ESI
Fragmentation mode: HCD
Collision energy: 30 % (nominal)
Resolution: 15000
Column name: XBridge C18 3.5um, 2.1x50mm, Waters
Retention time: 4.922 min
Base peak: 292.1903
Precursor m/z: 292.1907
Precursor type: [M+H]+
m/z	relative intensity	assigned
67.0542	33	C5H7+
70.0651	23	C4H8N+
72.0807	999	C4H10N+
79.0542	13	C6H7+
85.0647	64	C5H9O+
90.0913	125	C4H12NO+
91.0542	238	C7H7+
107.0494	11	C7H7O+
115.0541	26	C9H7+
129.0698	276	C10H9+
157.1011	190	C12H13+
163.0751	53	C10H11O2+
202.0776	121	C16H10+
