Mass spectrum: Thiamphenicol; LC-ESI-QFT; MS2; CE: 90; R=35000; [M+H]+
Name: Thiamphenicol
Name: 2,2-dichloro-N-[1,3-dihydroxy-1-(4-methylsulfonylphenyl)propan-2-yl]acetamide
Formula: C12H15Cl2NO5S
Exact mass: 355.00480
SMILES: CS(=O)(=O)C1=CC=C(C=C1)C(C(CO)NC(=O)C(Cl)Cl)O
InChI: InChI=1S/C12H15Cl2NO5S/c1-21(19,20)8-4-2-7(3-5-8)10(17)9(6-16)15-12(18)11(13)14/h2-5,9-11,16-17H,6H2,1H3,(H,15,18)
Instrument: Q Exactive Plus Orbitrap Thermo Scientific
Instrument type: LC-ESI-QFT
Ms type: MS2
Ion mode: POSITIVE
Ionization: ESI
Fragmentation mode: HCD
Collision energy: 90 (nominal)
Resolution: 35000
Column name: XBridge C18 3.5um, 2.1x50mm, Waters
Retention time: 3.7 min
Base peak: 373.0381
Precursor m/z: 356.0121
Precursor type: [M+H]+
m/z	relative intensity	assigned
50.015	2	C4H2+
51.0229	2	C4H3+
53.0386	9	C4H5+
55.0179	2	C3H3O+
62.9898	1	CH3OS+
63.9949	20	CH3ClN+
65.0386	21	C5H5+
66.0464	2	C5H6+
67.0416	1	C4H5N+
67.0542	1	C5H7+
76.0307	3	C6H4+
77.0385	12	C6H5+
78.0464	15	C6H6+
78.9848	61	CH3O2S+
79.0542	21	C6H7+
80.013	1	C4H2NO+
80.0494	2	C5H6N+
81.0335	1	C5H5O+
82.945	999	CHCl2+
89.0386	6	C7H5+
90.0464	7	C7H6+
91.0543	620	C7H7+
92.0621	80	C7H8+
93.0572	6	C6H7N+
93.0699	13	C7H9+
94.0652	1	C6H8N+
95.0492	34	C6H7O+
101.0385	1	C8H5+
102.0464	101	C8H6+
103.0542	399	C8H7+
104.0495	59	C7H6N+
104.062	18	C8H8+
105.0335	8	C7H5O+
105.0448	21	C6H5N2+
105.0699	11	C8H9+
106.0652	11	C7H8N+
107.0492	51	C7H7O+
108.0569	1	C7H8O+
109.0107	2	C6H5S+
109.9558	6	C2H2Cl2N+
115.0543	199	C9H7+
116.0495	7	C8H6N+
116.0621	3	C9H8+
117.0573	69	C8H7N+
118.0651	940	C8H8N+
119.0493	33	C8H7O+
119.073	630	C8H9N+
120.057	60	C8H8O+
120.0808	95	C8H10N+
127.0542	8	C10H7+
128.0495	129	C9H6N+
128.0621	60	C10H8+
129.0447	7	C8H5N2+
129.0573	17	C9H7N+
130.0652	206	C9H8N+
131.0492	100	C9H7O+
131.073	28	C9H9N+
132.057	41	C9H8O+
134.0601	37	C8H8NO+
134.0964	2	C9H12N+
135.0681	1	C8H9NO+
137.0153	5	C8H6Cl+
138.0231	13	C8H7Cl+
140.0495	6	C10H6N+
141.0573	3	C10H7N+
142.0652	28	C10H8N+
143.0731	1	C10H9N+
145.0648	11	C10H9O+
146.0601	77	C9H8NO+
149.0155	3	C9H6Cl+
150.0232	4	C9H7Cl+
151.0211	2	C8H7OS+
151.0629	35	C8H9NO2+
155.0604	30	C4H13NO3S+
158.0602	8	C10H8NO+
159.0677	1	C10H9NO+
161.0474	5	C9H7NO2+
162.023	1	C10H7Cl+
163.031	2	C10H8Cl+
164.0261	4	C9H7ClN+
165.0104	3	C9H6ClO+
166.032	4	C8H8NOS+
170.0601	32	C11H8NO+
176.0262	3	C10H7ClN+
188.0263	1	C11H7ClN+
197.0503	1	C9H11NO2S+
198.0583	20	C9H12NO2S+
