Mass spectrum: Imazamox; LC-ESI-ITFT; MS2; CE: 75%; R=15000; [M+H]+
Name: Imazamox
Name: 2-(4-isopropyl-5-keto-4-methyl-2-imidazolin-2-yl)-5-(methoxymethyl)nicotinic acid
Formula: C15H19N3O4
Exact mass: 305.1376
SMILES: O=C(O)c1c(ncc(c1)COC)/C2=N/C(C(=O)N2)(C(C)C)C
InChI: InChI=1S/C15H19N3O4/c1-8(2)15(3)14(21)17-12(18-15)11-10(13(19)20)5-9(6-16-11)7-22-4/h5-6,8H,7H2,1-4H3,(H,19,20)(H,17,18,21)
Instrument: LTQ Orbitrap XL Thermo Scientific
Instrument type: LC-ESI-ITFT
Ms type: MS2
Ion mode: POSITIVE
Ionization: ESI
Fragmentation mode: HCD
Collision energy: 75 % (nominal)
Resolution: 15000
Column name: XBridge C18 3.5um, 2.1x50mm, Waters
Retention time: 5.7 min
Base peak: 306.1456
Precursor m/z: 306.1448
Precursor type: [M+H]+
m/z	relative intensity	assigned
58.0649	4	C3H8N+
63.0228	4	C5H3+
65.0388	7	C5H5+
67.0415	4	C4H5N+
67.0543	13	C5H7+
69.0699	355	C5H9+
70.0652	4	C4H8N+
71.0729	15	C4H9N+
79.0416	7	C5H5N+
79.0542	6	C6H7+
86.0965	887	C5H12N+
88.0181	9	C6H2N+
92.0495	43	C6H6N+
94.0527	10	C5H6N2+
97.0646	5	C6H9O+
105.0447	9	C6H5N2+
106.0291	4	C6H4NO+
107.0604	28	C6H7N2+
108.0442	9	C6H6NO+
109.0649	10	C7H9O+
111.044	5	C6H7O2+
115.0291	8	C7H3N2+
117.0447	31	C7H5N2+
118.0526	36	C7H6N2+
119.0603	53	C7H7N2+
120.0443	25	C7H6NO+
121.0395	14	C6H5N2O+
122.06	125	C7H8NO+
123.0678	18	C7H9NO+
131.0604	8	C8H7N2+
134.0473	9	C7H6N2O+
135.0553	20	C7H7N2O+
140.0706	54	C7H10NO2+
144.032	7	C8H4N2O+
144.0804	5	C10H10N+
145.0396	216	C8H5N2O+
146.0235	8	C8H4NO2+
146.0481	6	C8H6N2O+
147.0552	56	C8H7N2O+
148.0631	95	C8H8N2O+
149.0344	13	C7H5N2O2+
149.0709	146	C8H9N2O+
150.0424	7	C7H6N2O2+
150.0548	15	C8H8NO2+
151.0866	13	C8H11N2O+
155.0576	13	C7H9NO3+
159.0552	19	C9H7N2O+
159.0795	8	C9H9N3+
160.0505	24	C8H6N3O+
160.0631	41	C9H8N2O+
161.0583	77	C8H7N3O+
161.0709	130	C9H9N2O+
162.0424	98	C8H6N2O2+
162.0661	23	C8H8N3O+
163.0502	999	C8H7N2O2+
165.066	18	C8H9N2O2+
168.0654	35	C8H10NO3+
175.0502	416	C9H7N2O2+
175.0613	22	C8H7N4O+
176.0581	10	C9H8N2O2+
177.0658	94	C9H9N2O2+
179.0447	5	C8H7N2O3+
186.066	9	C10H8N3O+
187.074	51	C10H9N3O+
188.0817	20	C10H10N3O+
188.0945	12	C11H12N2O+
189.1019	11	C11H13N2O+
191.0815	438	C10H11N2O2+
192.0767	194	C9H10N3O2+
193.0607	443	C9H9N2O3+
197.0713	4	C12H9N2O+
203.0693	7	C10H9N3O2+
212.0945	11	C13H12N2O+
213.1025	6	C13H13N2O+
215.069	84	C11H9N3O2+
216.0768	29	C11H10N3O2+
217.0849	11	C11H11N3O2+
217.1345	9	C13H17N2O+
218.0923	363	C11H12N3O2+
219.1125	16	C12H15N2O2+
230.0933	4	C14H14O3+
235.0956	16	C11H13N3O3+
236.1034	4	C11H14N3O3+
243.1137	16	C14H15N2O2+
245.0789	8	C12H11N3O3+
246.0873	195	C12H12N3O3+
264.1013	6	C15H12N4O+
