Mass spectrum: Spirotetramat BYI08330-ketohydroxy; LC-ESI-QFT; MS2; CE: 45%; R=17500; [M+H]+
Name: Spirotetramat BYI08330-ketohydroxy
Name: 3-(2,5-Dimethylphenyl)-3-hydroxy-8-methoxy-1-azaspiro(4.5)decane-2,4-dione
Name: 3-(2,5-dimethylphenyl)-3-hydroxy-8-methoxy-1-azaspiro[4.5]decane-2,4-dione
Formula: C18H23NO4
Exact mass: 317.1627
SMILES: CC1=CC(=C(C=C1)C)C2(C(=O)C3(CCC(CC3)OC)NC2=O)O
InChI: InChI=1S/C18H23NO4/c1-11-4-5-12(2)14(10-11)18(22)15(20)17(19-16(18)21)8-6-13(23-3)7-9-17/h4-5,10,13,22H,6-9H2,1-3H3,(H,19,21)
Instrument: Exploris 240 Orbitrap Thermo Scientific
Instrument type: LC-ESI-QFT
Ms type: MS2
Ion mode: POSITIVE
Ionization: ESI
Fragmentation mode: HCD
Collision energy: 45 % (nominal)
Resolution: 17500
Column name: XBridge C18 3.5um, 2.1x50mm, Waters
Retention time: 7.435 min
Base peak: 318.1698
Precursor m/z: 318.17
Precursor type: [M+H]+
m/z	relative intensity	assigned
67.0542	15	C5H7+
94.0649	8	C6H8N+
109.0643	21	C7H9O+
117.0697	61	C9H9+
122.0602	66	C7H8NO+
140.0706	18	C7H10NO2+
143.0855	12	C11H11+
145.0645	30	C10H9O+
155.0852	32	C12H11+
171.0802	23	C12H11O+
173.0601	95	C11H9O2+
212.1439	35	C15H18N+
214.0863	999	C13H12NO2+
222.127	19	C16H16N+
223.1114	19	C16H15O+
225.1275	14	C16H17O+
226.0861	42	C14H12NO2+
235.0997	9	C16H13NO+
240.1382	96	C16H18NO+
268.1332	981	C17H18NO2+
300.1596	455	C18H22NO3+
