Mass spectrum: Zonisamide; LC-ESI-QFT; MS2; CE: 30; R=35000; [M+H]+
Name: Zonisamide
Name: AD-810
Name: 1,2-benzoxazol-3-ylmethanesulfonamide
Formula: C8H8N2O3S
Exact mass: 212.02556
SMILES: O=S(=O)(N)Cc2noc1ccccc12
InChI: InChI=1S/C8H8N2O3S/c9-14(11,12)5-7-6-3-1-2-4-8(6)13-10-7/h1-4H,5H2,(H2,9,11,12)
Instrument: Q Exactive Orbitrap Thermo Scientific
Instrument type: LC-ESI-QFT
Ms type: MS2
Ion mode: POSITIVE
Ionization: ESI
Fragmentation mode: HCD
Collision energy: 30 (nominal)
Resolution: 35000
Column name: XBridge C18 3.5um, 2.1x50mm, Waters
Retention time: 4.4 min
Base peak: 213.0329
Precursor m/z: 213.0328
Precursor type: [M+H]+
m/z	relative intensity	assigned
77.0384	16	C6H5+
104.0494	35	C7H6N+
105.0335	9	C7H5O+
120.0444	20	C7H6NO+
132.0445	14	C8H6NO+
149.0712	61	C8H9N2O+
150.0551	999	C8H8NO2+
213.033	105	C8H9N2O3S+
