Mass spectrum: Sulfotep; LC-ESI-QFT; MS2; CE: 15%; R=17500; [M+H]+
Name: Sulfotep
Name: diethoxyphosphinothioyloxy-diethoxy-sulfanylidene-lambda5-phosphane
Formula: C8H20O5P2S2
Exact mass: 322.0227
SMILES: CCOP(=S)(OCC)OP(=S)(OCC)OCC
InChI: InChI=1S/C8H20O5P2S2/c1-5-9-14(16,10-6-2)13-15(17,11-7-3)12-8-4/h5-8H2,1-4H3
Instrument: Exploris 240 Orbitrap Thermo Scientific
Instrument type: LC-ESI-QFT
Ms type: MS2
Ion mode: POSITIVE
Ionization: ESI
Fragmentation mode: HCD
Collision energy: 15 % (nominal)
Resolution: 17500
Column name: XBridge C18 3.5um, 2.1x50mm, Waters
Retention time: 10.996 min
Base peak: 284.0713
Precursor m/z: 323.03
Precursor type: [M+H]+
m/z	relative intensity	assigned
124.9818	50	C2H6O2PS+
142.9925	48	C2H8O3PS+
153.0134	176	C4H10O2PS+
155.0468	50	C4H12O4P+
171.0239	847	C4H12O3PS+
199.0552	88	C6H16O3PS+
238.937	18	C2H9O5P2S2+
266.9677	262	C4H13O5P2S2+
276.9875	104	C6H15O4P2S2+
294.9988	999	C6H17O5P2S2+
