Mass spectrum: N4-Acetylsulfamethoxazole; LC-ESI-ITFT; MS2; CE: 15%; R=15000; [M-H]-
Name: N4-Acetylsulfamethoxazole
Name: N-[4-[(5-methyl-1,2-oxazol-3-yl)sulfamoyl]phenyl]acetamide
Formula: C12H13N3O4S
Exact mass: 295.0627
SMILES: c1(ccc(cc1)NC(C)=O)S(Nc1cc(C)on1)(=O)=O
InChI: InChI=1S/C12H13N3O4S/c1-8-7-12(14-19-8)15-20(17,18)11-5-3-10(4-6-11)13-9(2)16/h3-7H,1-2H3,(H,13,16)(H,14,15)
Instrument: LTQ Orbitrap XL Thermo Scientific
Instrument type: LC-ESI-ITFT
Ms type: MS2
Ion mode: NEGATIVE
Ionization: ESI
Fragmentation mode: HCD
Collision energy: 15 % (nominal)
Resolution: 15000
Column name: XBridge C18 3.5um, 2.1x50mm, Waters
Retention time: 5.7 min
Base peak: 294.0561
Precursor m/z: 294.0554
Precursor type: [M-H]-
m/z	relative intensity	assigned
198.0232	248	C8H8NO3S-
294.0551	999	C12H12N3O4S-
