Mass spectrum: 4-chloro-N,N-dimethylaniline; LC-ESI-QFT; MS2; CE: 150; R=35000; [M+H]+
Name: 4-chloro-N,N-dimethylaniline
Name: 4-Chloro-N,N-dimethylaniline
Formula: C8H10ClN
Exact mass: 155.05018
SMILES: CN(C)c1ccc(cc1)Cl
InChI: InChI=1S/C8H10ClN/c1-10(2)8-5-3-7(9)4-6-8/h3-6H,1-2H3
Instrument: Q Exactive Plus Orbitrap Thermo Scientific
Instrument type: LC-ESI-QFT
Ms type: MS2
Ion mode: POSITIVE
Ionization: ESI
Fragmentation mode: HCD
Collision energy: 150 (nominal)
Resolution: 35000
Column name: XBridge C18 3.5um, 2.1x50mm, Waters
Retention time: 7.1 min
Base peak: 156.0573
Precursor m/z: 156.0575
Precursor type: [M+H]+
m/z	relative intensity	assigned
50.015	9	C4H2+
51.0228	10	C4H3+
53.0022	12	C3HO+
53.0386	32	C4H5+
55.0178	2	C3H3O+
61.9792	2	CHClN+
63.0228	3	C5H3+
65.0385	8	C5H5+
72.9839	17	C3H2Cl+
74.015	17	C6H2+
75.0228	187	C6H3+
76.0306	2	C6H4+
77.0384	73	C6H5+
78.0338	2	C5H4N+
78.0463	9	C6H6+
79.0177	3	C5H3O+
79.0541	9	C6H7+
80.0255	2	C5H4O+
81.0334	4	C5H5O+
84.9839	10	C4H2Cl+
86.9995	31	C4H4Cl+
90.0339	3	C6H4N+
91.0416	5	C6H5N+
91.0542	5	C7H7+
93.0334	11	C6H5O+
94.0413	5	C6H6O+
95.0491	143	C6H7O+
96.0443	9	C5H6NO+
98.9995	112	C5H4Cl+
104.0494	259	C7H6N+
105.0447	76	C6H5N2+
105.0572	308	C7H7N+
106.0651	13	C7H8N+
110.9995	56	C6H4Cl+
112.0073	251	C6H5Cl+
113.0151	50	C6H6Cl+
114.9945	2	C5H4ClO+
120.0807	3	C8H10N+
121.0397	3	C6H5N2O+
125.0026	1	C6H4ClN+
126.0104	21	C6H5ClN+
129.0101	125	C6H6ClO+
138.0105	8	C7H5ClN+
139.0057	263	C6H4ClN2+
140.026	999	C7H7ClN+
141.0338	25	C7H8ClN+
