Mass spectrum: Norfloxacin; LC-ESI-ITFT; MS2; CE: 45%; R=7500; [M+H]+
Name: Norfloxacin
Name: 1-ethyl-6-fluoro-4-oxo-7-piperazin-1-yl-1,4-dihydroquinoline-3-carboxylic acid
Formula: C16H18FN3O3
Exact mass: 319.1332
SMILES: CCN1C=C(C(O)=O)C(=O)C2=CC(F)=C(C=C12)N3CCNCC3
InChI: InChI=1S/C16H18FN3O3/c1-2-19-9-11(16(22)23)15(21)10-7-12(17)14(8-13(10)19)20-5-3-18-4-6-20/h7-9,18H,2-6H2,1H3,(H,22,23)
Instrument: LTQ Orbitrap XL Thermo Scientific
Instrument type: LC-ESI-ITFT
Ms type: MS2
Ion mode: POSITIVE
Ionization: ESI
Fragmentation mode: HCD
Collision energy: 45 % (nominal)
Resolution: 7500
Column name: XBridge C18 3.5um, 2.1x50mm, Waters
Retention time: 4.4 min
Base peak: 320.1415
Precursor m/z: 320.1405
Precursor type: [M+H]+
m/z	relative intensity	assigned
58.0652	1	C3H8N+
70.0652	5	C4H8N+
177.0827	1	C10H10FN2+
192.0817	3	C11H11FNO+
201.1028	2	C12H13N2O+
203.0619	6	C11H8FN2O+
204.0696	15	C11H9FN2O+
205.0775	30	C11H10FN2O+
206.0852	9	C11H11FN2O+
207.093	8	C11H12FN2O+
213.102	2	C13H13N2O+
215.0984	4	C13H12FN2+
219.0929	57	C12H12FN2O+
220.1005	3	C12H13FN2O+
223.0625	1	C14H9NO2+
226.0979	1	C13H12N3O+
227.1058	11	C13H13N3O+
228.1135	9	C13H14N3O+
231.0561	6	C12H8FN2O2+
231.0925	2	C13H12FN2O+
233.1087	392	C13H14FN2O+
241.1209	2	C14H15N3O+
247.1118	2	C13H14FN3O+
248.1201	2	C13H15FN3O+
254.1287	2	C15H16N3O+
256.1446	81	C12H19FN3O2+
259.0881	4	C14H12FN2O2+
259.1238	2	C15H16FN2O+
274.0983	3	C14H13FN3O2+
274.1353	19	C15H17FN3O+
276.1506	249	C15H19FN3O+
277.0975	1	C14H14FN2O3+
282.1236	39	C16H16N3O2+
300.1357	7	C16H18N3O3+
302.1302	999	C16H17FN3O2+
320.1405	330	C16H19FN3O3+
