Mass spectrum: Dimethyl-phthalate; LC-ESI-QFT; MS2; CE: 60; R=35000; [M+H]+
Name: Dimethyl-phthalate
Name: Dimethyl phthalate
Name: Dimethyl benzene-1,2-dicarboxylate
Formula: C10H10O4
Exact mass: 194.05791
SMILES: COC(=O)C1=CC=CC=C1C(=O)OC
InChI: InChI=1S/C10H10O4/c1-13-9(11)7-5-3-4-6-8(7)10(12)14-2/h3-6H,1-2H3
Instrument: Q Exactive Plus Orbitrap Thermo Scientific
Instrument type: LC-ESI-QFT
Ms type: MS2
Ion mode: POSITIVE
Ionization: ESI
Fragmentation mode: HCD
Collision energy: 60 (nominal)
Resolution: 35000
Column name: XBridge C18 3.5um, 2.1x50mm, Waters
Retention time: 6.5 min
Base peak: 163.0386
Precursor m/z: 195.0652
Precursor type: [M+H]+
m/z	relative intensity	assigned
51.0227	2	C4H3+
53.0386	16	C4H5+
76.0306	1	C6H4+
77.0385	43	C6H5+
79.0542	45	C6H7+
81.0335	1	C5H5O+
91.0542	1	C7H7+
92.0256	11	C6H4O+
95.0491	47	C6H7O+
105.0335	22	C7H5O+
105.0447	34	C6H5N2+
107.0491	8	C7H7O+
120.0205	7	C7H4O2+
133.0284	252	C8H5O2+
135.044	270	C8H7O2+
138.0313	2	C7H6O3+
163.0389	999	C9H7O3+
