Mass spectrum: Dimethomorph; LC-ESI-ITFT; MS2; CE: 90%; R=7500; [M+H]+
Name: Dimethomorph
Name: (Z)-3-(4-chlorophenyl)-3-(3,4-dimethoxyphenyl)-1-(4-morpholinyl)-2-propen-1-one
Formula: C21H22ClNO4
Exact mass: 387.1237
SMILES: COC1=C(C=C(C=C1)/C(=C/C(=O)N2CCOCC2)/C3=CC=C(C=C3)Cl)OC
InChI: InChI=1S/C21H22ClNO4/c1-25-19-8-5-16(13-20(19)26-2)18(15-3-6-17(22)7-4-15)14-21(24)23-9-11-27-12-10-23/h3-8,13-14H,9-12H2,1-2H3/b18-14+
Instrument: LTQ Orbitrap XL Thermo Scientific
Instrument type: LC-ESI-ITFT
Ms type: MS2
Ion mode: POSITIVE
Ionization: ESI
Fragmentation mode: HCD
Collision energy: 90 % (nominal)
Resolution: 7500
Column name: XBridge C18 3.5um, 2.1x50mm, Waters
Retention time: 10.8 min
Base peak: 388.1318
Precursor m/z: 388.131
Precursor type: [M+H]+
m/z	relative intensity	assigned
53.0386	16	C4H5+
65.0387	24	C5H5+
66.0465	120	C5H6+
69.0335	6	C4H5O+
70.0288	328	C3H4NO+
77.0386	225	C6H5+
79.0543	167	C6H7+
81.07	44	C6H9+
86.9997	40	C4H4Cl+
89.0388	40	C7H5+
90.0467	12	C7H6+
91.0543	16	C7H7+
92.0257	57	C6H4O+
94.0413	103	C6H6O+
95.0492	19	C6H7O+
98.9997	18	C5H4Cl+
102.0465	25	C8H6+
105.0334	32	C7H5O+
105.0448	116	C6H5N2+
107.0128	34	C6H3O2+
107.0491	25	C4H10ClN+
109.0284	51	C6H5O2+
109.0648	160	C7H9O+
110.9996	86	C6H4Cl+
114.0553	16	C5H8NO2+
117.0333	9	C8H5O+
118.0419	11	C5H9ClN+
121.0284	122	C7H5O2+
122.0363	357	C7H6O2+
125.0153	585	C7H6Cl+
129.0104	17	C6H6ClO+
131.0494	28	C9H7O+
133.0278	11	C8H5O2+
137.0151	38	C8H6Cl+
137.0597	192	C8H9O2+
138.9946	574	C7H4ClO+
139.0059	460	C9HNO+
146.0365	11	C6H9ClNO+
150.031	18	C8H6O3+
151.0541	45	C12H7+
152.0621	886	C12H8+
153.0695	15	C12H9+
154.0266	9	C4H9ClNO3+
155.0698	14	C8H11O3+
162.9945	53	C9H4ClO+
163.0543	22	C13H7+
164.062	40	C13H8+
165.0548	649	C9H9O3+
165.0706	518	C13H9+
166.0778	247	C13H10+
167.0856	393	C13H11+
176.0621	169	C14H8+
177.07	262	C14H9+
178.0778	335	C14H10+
179.0598	24	C12H7N2+
179.0857	65	C14H11+
180.0569	172	C13H8O+
181.0647	35	C13H9O+
187.0309	267	C12H8Cl+
192.0567	78	C14H8O+
193.0655	68	C11H12ClN+
194.0728	192	C14H10O+
195.0805	328	C14H11O+
198.0223	8	C13H7Cl+
199.0309	880	C13H8Cl+
200.0391	12	C13H9Cl+
201.0467	64	C13H10Cl+
206.0727	18	C15H10O+
207.0802	46	C15H11O+
208.0516	34	C11H11ClNO+
208.0885	17	C15H12O+
211.0313	16	C14H8Cl+
212.0389	247	C14H9Cl+
213.047	37	C14H10Cl+
215.0259	603	C13H8ClO+
220.0509	13	C15H8O2+
221.0604	18	C12H12ClNO+
222.0683	20	C15H10O2+
223.0754	207	C15H11O2+
226.0182	24	C14H7ClO+
227.0259	999	C14H8ClO+
228.0337	130	C14H9ClO+
229.0414	85	C14H10ClO+
230.0504	9	C14H11ClO+
235.0757	52	C13H14ClNO+
238.0985	48	C16H14O2+
239.0258	37	C15H8ClO+
240.0333	11	C15H9ClO+
241.0416	128	C15H10ClO+
242.0494	461	C15H11ClO+
243.0207	423	C14H8ClO2+
255.0204	12	C15H8ClO2+
256.0283	10	C15H9ClO2+
257.0365	117	C15H10ClO2+
258.0444	68	C15H11ClO2+
269.0375	13	C16H10ClO2+
283.0155	12	C16H8ClO3+
