Mass spectrum: Pyrimidifen; LC-ESI-QFT; MS2; CE: 60%; R=17500; [M+H]+
Name: Pyrimidifen
Name: 5-chloro-N-[2-[4-(2-ethoxyethyl)-2,3-dimethylphenoxy]ethyl]-6-ethylpyrimidin-4-amine
Formula: C20H28ClN3O2
Exact mass: 377.1870
SMILES: CCC1=C(C(=NC=N1)NCCOC2=C(C(=C(C=C2)CCOCC)C)C)Cl
InChI: InChI=1S/C20H28ClN3O2/c1-5-17-19(21)20(24-13-23-17)22-10-12-26-18-8-7-16(9-11-25-6-2)14(3)15(18)4/h7-8,13H,5-6,9-12H2,1-4H3,(H,22,23,24)
Instrument: Exploris 240 Orbitrap Thermo Scientific
Instrument type: LC-ESI-QFT
Ms type: MS2
Ion mode: POSITIVE
Ionization: ESI
Fragmentation mode: HCD
Collision energy: 60 % (nominal)
Resolution: 17500
Column name: XBridge C18 3.5um, 2.1x50mm, Waters
Retention time: 11.376 min
Base peak: 378.1939
Precursor m/z: 378.1943
Precursor type: [M+H]+
m/z	relative intensity	assigned
130.0295	39	C5H7ClN2+
148.0872	25	C8H10N3+
149.096	27	C10H13O+
150.1026	552	C8H12N3+
157.0398	399	C9H5N2O+
157.0534	47	C7H10ClN2+
169.0403	37	C7H8ClN3+
175.1109	9	C12H15O+
184.0636	999	C8H11ClN3+
