Mass spectrum: Fenthion Oxon; LC-ESI-QFT; MS2; CE: 60%; R=17500; [M+H]+
Name: Fenthion Oxon
Name: dimethyl (3-methyl-4-methylsulfanylphenyl) phosphate
Formula: C10H15O4PS
Exact mass: 262.0429
SMILES: CC1=C(C=CC(=C1)OP(=O)(OC)OC)SC
InChI: InChI=1S/C10H15O4PS/c1-8-7-9(5-6-10(8)16-4)14-15(11,12-2)13-3/h5-7H,1-4H3
Instrument: Exploris 240 Orbitrap Thermo Scientific
Instrument type: LC-ESI-QFT
Ms type: MS2
Ion mode: POSITIVE
Ionization: ESI
Fragmentation mode: HCD
Collision energy: 60 % (nominal)
Resolution: 17500
Column name: XBridge C18 3.5um, 2.1x50mm, Waters
Retention time: 7.813 min
Base peak: 263.0501
Precursor m/z: 263.0501
Precursor type: [M+H]+
m/z	relative intensity	assigned
53.0386	18	C4H5+
58.995	119	C2H3S+
70.9948	12	C3H3S+
77.0386	21	C6H5+
78.0463	12	C6H6+
79.0542	9	C6H7+
91.0542	245	C7H7+
93.0699	151	C7H9+
97.0106	316	C5H5S+
103.0542	145	C8H7+
104.062	153	C8H8+
105.0701	17	C8H9+
109.0646	23	C7H9O+
121.0646	17	C8H9O+
122.0186	160	C7H6S+
125.0416	13	C7H9S+
127.0154	77	C2H8O4P+
135.0265	47	C8H7S+
136.0339	20	C8H8S+
137.0419	160	C8H9S+
153.0367	75	C8H9OS+
154.0442	63	C8H10OS+
168.9868	64	C7H6OPS+
185.99	76	C7H7O2PS+
198.9975	25	C8H8O2PS+
215.0468	19	C9H12O4P+
216.0005	999	C8H9O3PS+
231.0241	355	C9H12O3PS+
248.0265	17	C9H13O4PS+
