Mass spectrum: Clarithromycin N-Oxide; LC-ESI-QFT; MS2; CE: 15; R=35000; [M+H]+
Name: Clarithromycin N-Oxide
Name: (2S,3R,4S,6R)-2-[[(3R,4S,5S,6R,7R,9R,11R,12R,13S,14R)-14-ethyl-12,13-dihydroxy-4-[(2R,4R,5S,6S)-5-hydroxy-4-methoxy-4,6-dimethyloxan-2-yl]oxy-7-methoxy-3,5,7,9,11,13-hexamethyl-2,10-dioxo-oxacyclotetradec-6-yl]oxy]-3-hydroxy-N,N,6-trimethyloxan-4-amine oxide
Formula: C38H69NO14
Exact mass: 763.47181
SMILES: [O-][N+](C)(C)[C@H]3C[C@@H](C)O[C@@H](O[C@@H]2[C@@H](C)[C@H](O[C@H]1C[C@@](C)(OC)[C@@H](O)[C@H](C)O1)[C@@H](C)C(=O)O[C@H](CC)[C@@](C)(O)[C@H](O)[C@@H](C)C(=O)[C@H](C)C[C@@]2(C)OC)[C@@H]3O
InChI: InChI=1S/C38H69NO14/c1-15-26-38(10,45)31(42)21(4)28(40)19(2)17-37(9,48-14)33(53-35-29(41)25(39(11,12)46)16-20(3)49-35)22(5)30(23(6)34(44)51-26)52-27-18-36(8,47-13)32(43)24(7)50-27/h19-27,29-33,35,41-43,45H,15-18H2,1-14H3/t19-,20-,21+,22+,23-,24+,25+,26-,27+,29-,30+,31-,32+,33-,35+,36-,37-,38-/m1/s1
Instrument: Q Exactive Plus Orbitrap Thermo Scientific
Instrument type: LC-ESI-QFT
Ms type: MS2
Ion mode: POSITIVE
Ionization: ESI
Fragmentation mode: HCD
Collision energy: 15 (nominal)
Resolution: 35000
Column name: XBridge C18 3.5um, 2.1x50mm, Waters
Retention time: 9.7 min
Base peak: 764.4783
Precursor m/z: 764.4791
Precursor type: [M+H]+
m/z	relative intensity	assigned
113.0594	1	C6H9O2+
114.0913	8	C6H12NO+
116.1069	5	C6H14NO+
123.0801	1	C8H11O+
128.1069	1	C7H14NO+
156.1019	6	C8H14NO2+
174.1124	7	C8H16NO3+
307.1904	1	C18H27O4+
365.2322	4	C21H33O5+
379.248	4	C22H35O5+
383.2436	1	C21H35O6+
393.2284	1	C22H33O6+
397.2569	1	C22H37O6+
556.347	3	C29H50NO9+
574.3603	2	C29H52NO10+
588.3746	24	C30H54NO10+
606.3845	999	C30H56NO11+
