Mass spectrum: Ethofumesate-2-keto; LC-ESI-ITFT; MS2; CE: 35%; R=7500; [M+H]+
Name: Ethofumesate-2-keto
Name: 3,3-Dimethyl-2-oxo-2,3-dihydrobenzofurane-5-yl methane sulfonate
Formula: C11H12O5S
Exact mass: 256.0405
SMILES: CS(=O)(=O)Oc1cc2c(cc1)OC(=O)C2(C)C
InChI: InChI=1S/C11H12O5S/c1-11(2)8-6-7(16-17(3,13)14)4-5-9(8)15-10(11)12/h4-6H,1-3H3
Instrument: LTQ Orbitrap XL Thermo Scientific
Instrument type: LC-ESI-ITFT
Ms type: MS2
Ion mode: POSITIVE
Ionization: ESI
Fragmentation mode: CID
Collision energy: 35 % (nominal)
Resolution: 7500
Column name: XBridge C18 3.5um, 2.1x50mm, Waters
Retention time: 6.0 min
Base peak: 297.0411
Precursor m/z: 257.0478
Precursor type: [M+H]+
m/z	relative intensity	assigned
105.0703	2	C8H9+
133.0648	6	C9H9O+
149.0599	25	C9H9O2+
159.0443	18	C10H7O2+
160.0522	5	C10H8O2+
161.0599	41	C10H9O2+
177.0549	999	C10H9O3+
178.0626	142	C10H10O3+
179.0704	11	C10H11O3+
201.0217	4	C8H9O4S+
229.053	173	C10H13O4S+
239.0372	42	C11H11O4S+
