Mass spectrum: Etodolac; LC-ESI-QFT; MS2; CE: 45; R=35000; [M+H]+
Name: Etodolac
Name: 2-(1,8-diethyl-4,9-dihydro-3H-pyrano[3,4-b]indol-1-yl)acetic acid
Formula: C17H21NO3
Exact mass: 287.15214
SMILES: CCC1=C2C(=CC=C1)C3=C(N2)C(OCC3)(CC)CC(=O)O
InChI: InChI=1S/C17H21NO3/c1-3-11-6-5-7-12-13-8-9-21-17(4-2,10-14(19)20)16(13)18-15(11)12/h5-7,18H,3-4,8-10H2,1-2H3,(H,19,20)
Instrument: Q Exactive Orbitrap Thermo Scientific
Instrument type: LC-ESI-QFT
Ms type: MS2
Ion mode: POSITIVE
Ionization: ESI
Fragmentation mode: HCD
Collision energy: 45 (nominal)
Resolution: 35000
Column name: XBridge C18 3.5um, 2.1x50mm, Waters
Retention time: 12.5 min
Base peak: 288.1594
Precursor m/z: 288.1594
Precursor type: [M+H]+
m/z	relative intensity	assigned
79.0543	1	C6H7+
115.054	1	C9H7+
117.0571	1	C8H7N+
117.0699	4	C9H9+
130.0651	4	C9H8N+
143.073	107	C10H9N+
144.0808	134	C10H10N+
145.0887	1	C10H11N+
145.1013	1	C11H13+
146.0965	1	C10H12N+
155.0856	1	C12H11+
156.0808	2	C11H10N+
157.0886	12	C11H11N+
158.0963	4	C11H12N+
160.0757	1	C10H10NO+
167.0728	2	C12H9N+
168.0809	10	C12H10N+
170.0962	2	C12H12N+
171.1045	1	C12H13N+
172.1121	999	C12H14N+
180.081	4	C13H10N+
181.0886	17	C13H11N+
182.0965	29	C13H12N+
183.1044	1	C13H13N+
184.1116	2	C13H14N+
185.1199	1	C13H15N+
186.1278	1	C13H16N+
194.0967	4	C14H12N+
195.1042	31	C14H13N+
196.112	27	C14H14N+
197.1197	7	C14H15N+
198.0914	1	C13H12NO+
198.1276	4	C14H16N+
200.1434	5	C14H18N+
208.0758	1	C14H10NO+
208.1126	4	C15H14N+
209.12	14	C15H15N+
210.1277	78	C15H16N+
211.0993	1	C14H13NO+
211.1357	16	C15H17N+
215.1267	1	C9H17N3O3+
222.1278	1	C16H16N+
223.0991	8	C15H13NO+
224.1434	74	C16H18N+
225.1511	1	C16H19N+
226.086	1	C14H12NO2+
226.1228	3	C15H16NO+
226.159	5	C16H20N+
228.1383	19	C15H18NO+
229.1418	8	C10H19N3O3+
237.1146	2	C16H15NO+
239.1302	1	C16H17NO+
241.1098	2	C15H15NO2+
242.1543	1	C16H20NO+
252.1383	16	C17H18NO+
255.1249	2	C16H17NO2+
270.1488	11	C17H20NO2+
