Mass spectrum: Cyflumetofen; LC-ESI-QFT; MS2; CE: 150%; R=17500; [M+H]+
Name: Cyflumetofen
Name: 2-methoxyethyl 2-(4-tert-butylphenyl)-2-cyano-3-oxo-3-[2-(trifluoromethyl)phenyl]propanoate
Formula: C24H24F3NO4
Exact mass: 447.1657
SMILES: CC(C)(C)C1=CC=C(C=C1)C(C#N)(C(=O)C2=CC=CC=C2C(F)(F)F)C(=O)OCCOC
InChI: InChI=1S/C24H24F3NO4/c1-22(2,3)16-9-11-17(12-10-16)23(15-28,21(30)32-14-13-31-4)20(29)18-7-5-6-8-19(18)24(25,26)27/h5-12H,13-14H2,1-4H3
Instrument: Exploris 240 Orbitrap Thermo Scientific
Instrument type: LC-ESI-QFT
Ms type: MS2
Ion mode: POSITIVE
Ionization: ESI
Fragmentation mode: HCD
Collision energy: 150 % (nominal)
Resolution: 17500
Column name: XBridge C18 3.5um, 2.1x50mm, Waters
Retention time: 12.979 min
Base peak: 448.1729
Precursor m/z: 448.173
Precursor type: [M+H]+
m/z	relative intensity	assigned
50.0152	31	C4H2+
51.004	89	CHF2+
51.023	39	C4H3+
53.0023	14	C3HO+
57.0134	82	C3H2F+
63.023	12	C5H3+
68.9946	141	CF3+
69.0136	32	C4H2F+
71.0293	23	C4H4F+
74.0151	366	C6H2+
75.0041	255	C3HF2+
75.0229	999	C6H3+
81.0136	32	C5H2F+
95.0103	35	C3H2F3+
95.0291	216	C6H4F+
99.0038	67	C5HF2+
113.0396	77	C6H6FO+
119.0104	43	C5H2F3+
125.0196	185	C7H3F2+
145.0259	287	C7H4F3+
