Mass spectrum: MCLW; LC-ESI-QFT; MS2; CE: 90%; R=17500; [M-H]-
Name: MCLW
Name: Microcystin LW
Name: (5R,8S,11R,12S,15S,18S,19S,22R)-15-(1H-indol-3-ylmethyl)-18-[(1E,3E,5S,6S)-6-methoxy-3,5-dimethyl-7-phenylhepta-1,3-dienyl]-1,5,12,19-tetramethyl-2-methylidene-8-(2-methylpropyl)-3,6,9,13,16,20,25-heptaoxo-1,4,7,10,14,17,21-heptazacyclopentacosane-11,22-dicarboxylic acid
Class: NA
Formula: C54H72N8O12
Exact mass: 1024.5270
SMILES: CO[C@@H](Cc1ccccc1)[C@@H](C)/C=C(C)/C=C/[C@@H]2NC(=O)[C@H](Cc3c[nH]c4ccccc34)NC(=O)[C@@H](C)[C@@H](NC(=O)[C@H](CC(C)C)NC(=O)[C@@H](C)NC(=O)C(=C)N(C)C(=O)CC[C@@H](NC(=O)[C@H]2C)C(O)=O)C(O)=O
InChI: InChI=1S/C54H72N8O12/c1-29(2)24-42-52(69)61-46(54(72)73)33(6)48(65)59-43(27-37-28-55-40-19-15-14-18-38(37)40)51(68)57-39(21-20-30(3)25-31(4)44(74-10)26-36-16-12-11-13-17-36)32(5)47(64)58-41(53(70)71)22-23-45(63)62(9)35(8)50(67)56-34(7)49(66)60-42/h11-21,25,28-29,31-34,39,41-44,46,55H,8,22-24,26-27H2,1-7,9-10H3,(H,56,67)(H,57,68)(H,58,64)(H,59,65)(H,60,66)(H,61,69)(H,70,71)(H,72,73)/b21-20+,30-25+/t31-,32-,33-,34+,39-,41+,42-,43-,44-,46+/m0/s1
Instrument: Q Exactive Plus Orbitrap Thermo Scientific
Instrument type: LC-ESI-QFT
Ms type: MS2
Ion mode: NEGATIVE
Ionization: ESI
Fragmentation mode: HCD
Collision energy: 90 % (nominal)
Resolution: 17500
Column name: XBridge C18 3.5um, 2.1x50mm, Waters
Retention time: 11.783 min
Base peak: 1023.5204
Precursor m/z: 1023.5197
Precursor type: [M-H]-
m/z	relative intensity	assigned
71.0248	45	C2H3N2O-
72.009	87	C2H2NO2-
72.0455	194	C3H6NO-
73.0407	151	C2H5N2O-
74.0248	279	C2H4NO2-
80.0505	171	C5H6N-
81.022	107	C4H3NO-
81.0455	83	C4H5N2-
82.0172	90	C3H2N2O-
82.0299	258	C4H4NO-
82.0662	373	C5H8N-
83.0251	133	C3H3N2O-
84.0455	434	C4H6NO-
87.0564	246	C3H7N2O-
92.0508	44	C6H6N-
94.0296	90	C5H4NO-
94.0663	55	C6H8N-
95.0251	270	C4H3N2O-
96.033	50	C4H4N2O-
96.0456	203	C5H6NO-
96.0818	123	C6H10N-
97.0408	292	C4H5N2O-
98.0122	51	C3H2N2O2-
99.0204	37	C3H3N2O2-
99.0562	156	C4H7N2O-
108.021	118	C6H4O2-
108.0332	199	C5H4N2O-
108.0454	78	C6H6NO-
109.0168	358	C5H3NO2-
109.0408	611	C5H5N2O-
110.0248	999	C5H4NO2-
110.036	82	C4H4N3O-
110.0487	50	C5H6N2O-
111.0199	152	C4H3N2O2-
111.0564	76	C5H7N2O-
112.0404	146	C5H6NO2-
112.0769	219	C6H10NO-
113.0356	138	C4H5N2O2-
116.0506	449	C8H6N-
121.041	61	C6H5N2O-
122.0246	51	C6H4NO2-
122.0489	43	C6H6N2O-
123.0199	90	C5H3N2O2-
123.0326	102	C6H5NO2-
123.0437	65	C5H5N3O-
123.0564	130	C6H7N2O-
124.0402	497	C6H6NO2-
124.0502	85	C3H4N6-
125.0356	58	C5H5N2O2-
125.0592	329	C5H7N3O-
127.0512	257	C5H7N2O2-
128.0353	435	C5H6NO3-
129.1032	276	C6H13N2O-
130.0659	138	C9H8N-
135.0326	86	C7H5NO2-
138.0431	201	C6H6N2O2-
139.0874	162	C7H11N2O-
140.0505	213	C10H6N-
142.0659	485	C10H8N-
150.0556	145	C8H8NO2-
157.0767	45	C10H9N2-
165.1029	161	C9H13N2O-
167.0608	67	C11H7N2-
168.0451	59	C11H6NO-
180.1138	57	C9H14N3O-
182.1292	341	C7H14N6-
