Mass spectrum: Amisulpride N-Oxide; LC-ESI-QFT; MS2; CE: 90; R=35000; [M+H]+
Name: Amisulpride N-Oxide
Name: 4-amino-N-[(1-ethyl-1-oxidopyrrolidin-1-ium-2-yl)methyl]-5-ethylsulfonyl-2-methoxybenzamide
Formula: C17H27N3O5S
Exact mass: 385.16714
SMILES: CC[N+]1(CCCC1CNC(=O)C2=CC(=C(C=C2OC)N)S(=O)(=O)CC)[O-]
InChI: InChI=1S/C17H27N3O5S/c1-4-20(22)8-6-7-12(20)11-19-17(21)13-9-16(26(23,24)5-2)14(18)10-15(13)25-3/h9-10,12H,4-8,11,18H2,1-3H3,(H,19,21)
Instrument: Q Exactive Plus Orbitrap Thermo Scientific
Instrument type: LC-ESI-QFT
Ms type: MS2
Ion mode: POSITIVE
Ionization: ESI
Fragmentation mode: HCD
Collision energy: 90 (nominal)
Resolution: 35000
Column name: XBridge C18 3.5um, 2.1x50mm, Waters
Retention time: 4.2 min
Base peak: 386.1742
Precursor m/z: 386.1744
Precursor type: [M+H]+
m/z	relative intensity	assigned
50.015	2	C4H2+
51.0229	4	C4H3+
52.0181	7	C3H2N+
53.0022	19	C3HO+
53.0386	16	C4H5+
54.0338	44	C3H4N+
55.0178	9	C3H3O+
55.0542	5	C4H7+
56.0495	21	C3H6N+
57.0336	2	C3H5O+
57.0699	1	C4H9+
57.9872	3	C2H2S+
58.0288	3	C2H4NO+
58.0652	9	C3H8N+
58.995	28	C2H3S+
63.0229	4	C5H3+
64.0182	11	C4H2N+
64.0307	3	C5H4+
65.026	8	C4H3N+
65.0386	40	C5H5+
66.0338	35	C4H4N+
66.0464	265	C5H6+
67.0178	4	C4H3O+
67.0417	25	C4H5N+
67.0542	20	C5H7+
68.013	16	C3H2NO+
68.0495	33	C4H6N+
68.9793	26	C3HS+
68.997	1	C3HO2+
69.0335	3	C4H5O+
69.0573	14	C4H7N+
69.9871	6	C3H2S+
70.0287	4	C3H4NO+
70.0651	64	C4H8N+
70.995	21	C3H3S+
71.0492	1	C4H7O+
71.9902	3	C2H2NS+
72.0808	1	C4H10N+
73.0106	4	C3H5S+
74.06	99	C3H8NO+
74.9899	4	C2H3OS+
76.0182	5	C5H2N+
77.026	1	C5H3N+
77.0385	1	C6H5+
78.0338	32	C5H4N+
79.0178	7	C5H3O+
79.0416	19	C5H5N+
80.013	12	C4H2NO+
80.0494	35	C5H6N+
81.0335	29	C5H5O+
81.0572	2	C5H7N+
82.0287	7	C4H4NO+
82.0414	3	C5H6O+
82.0651	14	C5H8N+
82.995	44	C4H3S+
83.0127	5	C4H3O2+
83.0366	3	C4H5NO+
83.9903	4	C3H2NS+
84.0029	3	C4H4S+
84.0808	10	C5H10N+
84.9742	9	C3HOS+
85.0106	54	C4H5S+
85.982	1	C3H2OS+
86.0058	9	C3H4NS+
86.99	16	C3H3OS+
89.026	1	C6H3N+
90.0339	6	C6H4N+
91.0417	54	C6H5N+
92.0495	80	C6H6N+
93.021	8	C5H3NO+
93.0573	89	C6H7N+
94.0288	30	C5H4NO+
94.0413	44	C6H6O+
94.0651	13	C6H8N+
94.9951	12	C5H3S+
95.0366	28	C5H5NO+
95.0491	8	C6H7O+
96.0444	93	C5H6NO+
96.0807	18	C6H10N+
96.9981	15	C4H3NS+
97.0107	10	C5H5S+
97.0522	9	C5H7NO+
97.9821	14	C4H2OS+
98.0059	18	C4H4NS+
98.0964	205	C6H12N+
98.9899	19	C4H3OS+
101.0056	1	C4H5OS+
103.0416	1	C7H5N+
104.0131	4	C6H2NO+
104.0495	3	C7H6N+
105.0334	1	C7H5O+
105.0448	1	C6H5N2+
106.0288	52	C6H4NO+
107.0127	83	C6H3O2+
107.0366	62	C6H5NO+
107.9902	124	C5H2NS+
108.0444	150	C6H6NO+
108.9743	4	C5HOS+
108.9983	3	C5H3NS+
109.0284	8	C6H5O2+
109.0523	6	C6H7NO+
110.0059	162	C5H4NS+
110.0964	12	C7H12N+
110.99	9	C5H3OS+
111.0011	5	C4H3N2S+
111.0137	5	C5H5NS+
111.9851	15	C4H2NOS+
112.0215	34	C5H6NS+
112.0393	4	C5H6NO2+
113.0056	41	C5H5OS+
114.0914	12	C6H12NO+
117.0208	1	C7H3NO+
119.0365	9	C7H5NO+
119.9904	13	C6H2NS+
120.0444	96	C7H6NO+
121.0522	376	C7H7NO+
122.0059	29	C6H4NS+
122.024	17	C6H4NO2+
122.0362	290	C7H6O2+
122.9899	5	C6H3OS+
123.0316	4	C6H5NO2+
123.068	1	C7H9NO+
124.0394	58	C6H6NO2+
124.993	62	C5H3NOS+
125.0055	10	C6H5OS+
125.0472	5	C6H7NO2+
125.9771	1	C5H2O2S+
127.0264	4	C5H5NO3+
128.0166	5	C5H6NOS+
129.9959	4	C4H4NO2S+
132.008	255	C7H2NO2+
133.0157	1	C7H3NO2+
133.0285	3	C8H5O2+
134.0238	2	C7H4NO2+
135.0315	16	C7H5NO2+
135.9853	28	C6H2NOS+
136.0395	9	C7H6NO2+
137.0234	5	C7H5O3+
138.0009	69	C6H4NOS+
138.0186	61	C6H4NO3+
138.985	1	C6H3O2S+
139.0087	11	C6H5NOS+
140.0165	270	C6H6NOS+
141.0004	18	C6H5O2S+
143.0037	1	C5H5NO2S+
147.0315	428	C8H5NO2+
148.0028	15	C7H2NO3+
148.0393	12	C8H6NO2+
149.0472	544	H11N3O4S+
150.0008	71	C7H4NOS+
150.0185	28	C7H4NO3+
150.055	34	C8H8NO2+
151.0264	1	C7H5NO3+
152.0166	2	C7H6NOS+
152.0342	26	C7H6NO3+
152.9878	20	C6H3NO2S+
153.0002	2	C7H5O2S+
153.0421	5	C7H7NO3+
158.0273	11	C6H8NO2S+
163.0264	26	C8H5NO3+
163.9802	3	C7H2NO2S+
164.0342	18	C8H6NO3+
165.0423	3	C8H7NO3+
165.9959	12	C7H4NO2S+
166.0134	10	C7H4NO4+
168.0114	574	C7H6NO2S+
170.9984	6	C6H5NO3S+
171.0349	1	C7H9NO2S+
177.9957	183	C8H4NO2S+
180.0114	4	C8H6NO2S+
180.9827	1	C7H3NO3S+
196.0063	999	C14N2+
197.0145	5	C8H7NO3S+
198.9932	1	C7H5NO4S+
199.0296	6	C8H9NO3S+
214.0169	35	C8H8NO4S+
242.0481	37	C10H12NO4S+
