Mass spectrum: Metolachlor OXA; LC-ESI-ITFT; MS2; CE: 60%; R=15000; [M+H]+
Name: Metolachlor OXA
Name: 2-(2-ethyl-N-(2-methoxy-1-methyl-ethyl)-6-methyl-anilino)-2-keto-acetic acid
Formula: C15H21NO4
Exact mass: 279.1471
SMILES: CC1=CC=CC(CC)=C1N(C(C)COC)C(C(O)=O)=O
InChI: InChI=1S/C15H21NO4/c1-5-12-8-6-7-10(2)13(12)16(11(3)9-20-4)14(17)15(18)19/h6-8,11H,5,9H2,1-4H3,(H,18,19)
Instrument: LTQ Orbitrap XL Thermo Scientific
Instrument type: LC-ESI-ITFT
Ms type: MS2
Ion mode: POSITIVE
Ionization: ESI
Fragmentation mode: HCD
Collision energy: 60 % (nominal)
Resolution: 15000
Column name: XBridge C18 3.5um, 2.1x50mm, Waters
Retention time: 9.3 min
Base peak: 280.1539
Precursor m/z: 280.1543
Precursor type: [M+H]+
m/z	relative intensity	assigned
73.0648	226	C4H9O+
91.0542	90	C7H7+
93.0698	61	C7H9+
103.0542	8	C8H7+
105.0698	19	C8H9+
106.0652	19	C7H8N+
107.0729	5	C7H9N+
107.0856	7	C8H11+
108.0808	15	C7H10N+
117.0574	8	C8H7N+
117.0699	79	C9H9+
118.0651	98	C8H8N+
119.0729	44	C8H9N+
119.0855	188	C9H11+
120.0807	43	C8H10N+
129.0699	48	C10H9+
130.065	29	C9H8N+
130.0776	6	C10H10+
131.0729	481	C9H9N+
132.0808	201	C9H10N+
133.0885	163	C9H11N+
134.06	61	C8H8NO+
134.0964	423	C9H12N+
135.0806	16	C9H11O+
135.1045	7	C9H13N+
136.0756	8	C8H10NO+
142.0651	12	C10H8N+
144.0808	341	C10H10N+
145.0886	118	C10H11N+
146.0964	999	C10H12N+
147.0914	9	C9H11N2+
147.1041	49	C10H13N+
148.112	732	C10H14N+
149.0226	5	C8H5O3+
150.0268	7	C3H6N2O5+
158.0965	18	C11H12N+
159.1043	39	C11H13N+
160.0756	61	C10H10NO+
160.112	164	C11H14N+
161.1202	12	C11H15N+
162.0913	165	C10H12NO+
163.0757	5	C10H11O2+
172.1128	6	C12H14N+
174.0912	24	C11H12NO+
174.1276	81	C12H16N+
176.1433	388	C12H18N+
184.1121	11	C13H14N+
187.0994	6	C12H13NO+
202.1226	74	C13H16NO+
204.138	30	C13H18NO+
220.1331	83	C13H18NO2+
248.128	502	C14H18NO3+
