Mass spectrum: Celiprolol; LC-ESI-QFT; MS2; CE: 75; R=35000; [M-H]-
Name: Celiprolol
Name: 3-[3-acetyl-4-[3-(tert-butylamino)-2-hydroxy-propoxy]phenyl]-1,1-diethyl-urea
Formula: C20H33N3O4
Exact mass: 379.24711
SMILES: CCN(CC)C(=O)NC1=CC(=C(C=C1)OCC(CNC(C)(C)C)O)C(=O)C
InChI: InChI=1S/C20H33N3O4/c1-7-23(8-2)19(26)22-15-9-10-18(17(11-15)14(3)24)27-13-16(25)12-21-20(4,5)6/h9-11,16,21,25H,7-8,12-13H2,1-6H3,(H,22,26)
Instrument: Q Exactive Orbitrap Thermo Scientific
Instrument type: LC-ESI-QFT
Ms type: MS2
Ion mode: NEGATIVE
Ionization: ESI
Fragmentation mode: HCD
Collision energy: 75 (nominal)
Resolution: 35000
Column name: XBridge C18 3.5um, 2.1x50mm, Waters
Retention time: 5.5 min
Base peak: 378.2399
Precursor m/z: 378.2398
Precursor type: [M-H]-
m/z	relative intensity	assigned
59.0138	9	C2H3O2-
78.0349	15	C5H4N-
92.0506	3	C6H6N-
93.0346	9	C6H5O-
106.0299	42	C6H4NO-
107.0376	2	C6H5NO-
108.0455	1	C6H6NO-
118.0298	10	C7H4NO-
119.0503	9	C8H7O-
120.0455	4	C7H6NO-
133.0533	1	C8H7NO-
134.0248	182	C7H4NO2-
134.0611	136	C8H8NO-
135.0452	14	C8H7O2-
148.0404	6	C8H6NO2-
148.0769	10	C9H10NO-
149.0482	55	C8H7NO2-
150.056	13	C8H8NO2-
160.0404	88	C9H6NO2-
161.0608	47	C10H9O2-
162.0562	5	C9H8NO2-
162.0924	3	C10H12NO-
163.0765	3	C10H11O2-
174.0561	8	C10H8NO2-
175.0643	6	C10H9NO2-
176.036	445	C9H6NO3-
176.0712	999	C10H10NO2-
188.0718	6	C11H10NO2-
190.0874	297	C11H12NO2-
204.1029	66	C12H14NO2-
219.0774	16	C11H11N2O3-
247.1091	3	C13H15N2O3-
