Mass spectrum: Mianserin-N-Oxide; LC-ESI-QFT; MS2; CE: 15; R=35000; [M-H]-
Name: Mianserin-N-Oxide
Name: 1,2,3,4,10,14b-Hexahydro-2-methyldibenzo(c,f)pyrazino(1,2-a)azepine 2-oxide
Formula: C18H20N2O
Exact mass: 280.15756
SMILES: C[N+]1(CCN2c3ccccc3Cc4ccccc4C2C1)[O-]
InChI: InChI=1S/C18H20N2O/c1-20(21)11-10-19-17-9-5-3-7-15(17)12-14-6-2-4-8-16(14)18(19)13-20/h2-9,18H,10-13H2,1H3
Instrument: Q Exactive Plus Orbitrap Thermo Scientific
Instrument type: LC-ESI-QFT
Ms type: MS2
Ion mode: NEGATIVE
Ionization: ESI
Fragmentation mode: HCD
Collision energy: 15 (nominal)
Resolution: 35000
Column name: XBridge C18 3.5um, 2.1x50mm, Waters
Retention time: 14.1 min
Base peak: 277.1441
Precursor m/z: 279.1503
Precursor type: [M-H]-
m/z	relative intensity	assigned
107.0502	11	C7H7O-
121.0295	51	C7H5O2-
127.1128	60	C8H15O-
134.0373	116	C8H6O2-
167.0246	1	C10H3N2O-
251.1562	4	C17H19N2-
279.1504	999	C18H19N2O-
