Mass spectrum: Eseroline; LC-ESI-QFT; MS2; CE: 90; R=35000; [M+H]+
Name: Eseroline
Name: 1,3a,8-Trimethyl-1,2,3,3a,8,8a-hexahydropyrrolo[2,3-b]indol-5-ol
Name: 3,4,8b-trimethyl-2,3a-dihydro-1H-pyrrolo[2,3-b]indol-7-ol
Formula: C13H18N2O
Exact mass: 218.14191
SMILES: CC12CCN(C1N(C3=C2C=C(C=C3)O)C)C
InChI: InChI=1S/C13H18N2O/c1-13-6-7-14(2)12(13)15(3)11-5-4-9(16)8-10(11)13/h4-5,8,12,16H,6-7H2,1-3H3
Instrument: Q Exactive Plus Orbitrap Thermo Scientific
Instrument type: LC-ESI-QFT
Ms type: MS2
Ion mode: POSITIVE
Ionization: ESI
Fragmentation mode: HCD
Collision energy: 90 (nominal)
Resolution: 35000
Column name: XBridge C18 3.5um, 2.1x50mm, Waters
Retention time: 2.4 min
Base peak: 164.9844
Precursor m/z: 219.1492
Precursor type: [M+H]+
m/z	relative intensity	assigned
51.0228	9	C4H3+
53.0021	20	C3HO+
53.0386	55	C4H5+
55.0178	26	C3H3O+
55.0543	211	C4H7+
56.0494	8	C3H6N+
57.0699	28	C4H9+
58.065	26	C3H8N+
59.0491	32	C3H7O+
60.0445	34	C2H6NO+
63.0229	5	C5H3+
65.0386	79	C5H5+
67.0542	94	C5H7+
69.0334	28	C4H5O+
69.0698	31	C5H9+
77.0385	38	C6H5+
79.0542	220	C6H7+
81.0337	5	C5H5O+
81.0573	5	C5H7N+
81.0699	70	C6H9+
83.0491	57	C5H7O+
86.0963	9	C5H12N+
91.0543	313	C7H7+
93.07	141	C7H9+
94.0651	5	C6H8N+
95.0492	113	C6H7O+
95.0855	30	C7H11+
97.0077	56	C8H+
103.0542	70	C8H7+
104.0495	7	C7H6N+
105.0448	86	C6H5N2+
105.0699	255	C8H9+
106.0652	114	C7H8N+
107.0493	44	C7H7O+
107.073	35	C7H9N+
107.0856	51	C8H11+
109.065	8	C7H9O+
111.044	6	C6H7O2+
115.0542	47	C9H7+
116.0621	17	C9H8+
117.0572	11	C8H7N+
117.0699	87	C9H9+
118.0651	31	C8H8N+
119.0731	18	C8H9N+
119.0856	152	C9H11+
120.0807	10	C8H10N+
121.0286	6	C7H5O2+
121.0649	70	C8H9O+
121.1011	38	C9H13+
123.0806	5	C8H11O+
128.062	30	C10H8+
129.0701	52	C10H9+
130.0653	9	C9H8N+
130.0778	25	C10H10+
131.049	21	C9H7O+
131.0727	9	C9H9N+
131.0855	48	C10H11+
132.0808	18	C9H10N+
133.0523	25	C8H7NO+
133.0648	8	C9H9O+
133.1013	115	C10H13+
134.0601	443	C8H8NO+
134.0967	55	C9H12N+
135.0679	4	C8H9NO+
135.0804	20	C9H11O+
135.1167	8	C10H15+
141.0699	20	C11H9+
142.0778	19	C11H10+
143.0857	21	C11H11+
144.0808	28	C10H10N+
145.0649	25	C10H9O+
145.0886	19	C10H11N+
145.1012	85	C11H13+
146.0601	427	C9H8NO+
147.0679	999	C9H9NO+
148.0756	33	C9H10NO+
155.0606	7	C10H7N2+
155.0855	18	C12H11+
157.1012	5	C12H13+
158.0602	7	C10H8NO+
159.0683	7	C10H9NO+
159.0807	8	C11H11O+
159.1173	5	C12H15+
160.0758	233	C10H10NO+
161.0837	227	C10H11NO+
162.0551	77	C9H8NO2+
162.0914	166	C10H12NO+
170.109	4	C13H14+
172.0758	79	C11H10NO+
173.0837	107	C11H11NO+
173.096	22	C12H13O+
176.1068	9	C11H14NO+
187.112	6	C13H15O+
188.1069	7	C12H14NO+
203.1426	5	C12H17N3+
