Mass spectrum: Dibucaine; LC-ESI-QFT; MS2; CE: 75; R=35000; [M+H]+
Name: Dibucaine
Name: 2-butoxy-N-[2-(diethylamino)ethyl]quinoline-4-carboxamide
Formula: C20H29N3O2
Exact mass: 343.22598
SMILES: CCCCOC1=NC2=CC=CC=C2C(=C1)C(=O)NCCN(CC)CC
InChI: InChI=1S/C20H29N3O2/c1-4-7-14-25-19-15-17(16-10-8-9-11-18(16)22-19)20(24)21-12-13-23(5-2)6-3/h8-11,15H,4-7,12-14H2,1-3H3,(H,21,24)
Instrument: Q Exactive Orbitrap Thermo Scientific
Instrument type: LC-ESI-QFT
Ms type: MS2
Ion mode: POSITIVE
Ionization: ESI
Fragmentation mode: HCD
Collision energy: 75 (nominal)
Resolution: 35000
Column name: XBridge C18 3.5um, 2.1x50mm, Waters
Retention time: 8.6 min
Base peak: 344.2337
Precursor m/z: 344.2333
Precursor type: [M+H]+
m/z	relative intensity	assigned
57.0699	22	C4H9+
63.0229	2	C5H3+
70.0287	4	C3H4NO+
72.0808	22	C4H10N+
74.0964	21	C4H12N+
86.0965	1	C5H12N+
89.0385	15	C7H5+
100.1121	31	C6H14N+
115.0414	1	C8H5N+
115.0544	2	C9H7+
116.0495	999	C8H6N+
117.0571	2	C8H7N+
118.0652	4	C8H8N+
128.0496	12	C9H6N+
130.0652	17	C9H8N+
131.0729	1	C9H9N+
132.0445	5	C8H6NO+
132.0809	2	C9H10N+
134.0601	5	C8H8NO+
142.0652	5	C10H8N+
143.0607	6	C9H7N2+
143.0729	5	C10H9N+
144.0445	507	C9H6NO+
145.0522	10	C9H7NO+
146.0601	30	C9H8NO+
149.0473	2	C8H7NO2+
153.0448	7	C10H5N2+
154.0651	1	C11H8N+
155.0603	1	C10H7N2+
156.0445	2	C10H6NO+
157.0888	5	C11H11N+
158.0601	15	C10H8NO+
158.0965	1	C11H12N+
159.068	4	C10H9NO+
159.0918	1	C10H11N2+
160.0758	12	C10H10NO+
162.055	8	C9H8NO2+
167.073	5	C12H9N+
169.076	4	C11H9N2+
170.0601	15	C11H8NO+
171.0554	120	C10H7N2O+
172.0393	259	C10H6NO2+
177.0422	2	C9H7NO3+
182.0964	3	C13H12N+
183.1044	2	C13H13N+
184.0756	1	C12H10NO+
185.071	2	C11H9N2O+
186.0793	3	C11H10N2O+
187.0867	20	C11H11N2O+
189.066	1	C10H9N2O2+
197.0712	2	C12H9N2O+
198.1275	2	C14H16N+
199.1231	3	C13H15N2+
200.107	9	C13H14NO+
215.0817	189	C12H11N2O2+
225.1387	1	C15H17N2+
227.1182	4	C14H15N2O+
228.1023	5	C14H14NO2+
243.1494	2	C15H19N2O+
271.1445	6	C16H19N2O2+
