Mass spectrum: Flufenacet; LC-ESI-ITFT; MS2; CE: 60%; R=7500; [M+H]+
Name: Flufenacet
Name: N-(4-fluorophenyl)-N-isopropyl-2-[[5-(trifluoromethyl)-1,3,4-thiadiazol-2-yl]oxy]acetamide
Formula: C14H13F4N3O2S
Exact mass: 363.0670
SMILES: O=C(COc1nnc(s1)C(F)(F)F)N(c2ccc(F)cc2)C(C)C
InChI: InChI=1S/C14H13F4N3O2S/c1-8(2)21(10-5-3-9(15)4-6-10)11(22)7-23-13-20-19-12(24-13)14(16,17)18/h3-6,8H,7H2,1-2H3
Instrument: LTQ Orbitrap XL Thermo Scientific
Instrument type: LC-ESI-ITFT
Ms type: MS2
Ion mode: POSITIVE
Ionization: ESI
Fragmentation mode: HCD
Collision energy: 60 % (nominal)
Resolution: 7500
Column name: XBridge C18 3.5um, 2.1x50mm, Waters
Retention time: 11.7 min
Base peak: 386.0556
Precursor m/z: 364.0737
Precursor type: [M+H]+
m/z	relative intensity	assigned
96.0371	2	C6H5F+
97.0447	84	CH5F2N3+
104.0494	4	C7H6N+
109.0447	262	C7H6F+
110.0399	10	C3H10O2S+
112.056	4	C6H7FN+
123.0239	22	C2H3F2N3O+
124.0556	999	C7H7FN+
125.0394	7	C2H5F2N3O+
132.0443	9	C8H6NO+
134.04	5	C8H5FN+
152.0506	674	C8H7FNO+
152.0869	186	C9H11FN+
160.0499	3	C8H7F3+
166.1024	6	C10H13FN+
