Mass spectrum: Amisulpride N-Oxide; LC-ESI-QFT; MS2; CE: 60; R=35000; [M-H]-
Name: Amisulpride N-Oxide
Name: 4-amino-N-[(1-ethyl-1-oxidopyrrolidin-1-ium-2-yl)methyl]-5-ethylsulfonyl-2-methoxybenzamide
Formula: C17H27N3O5S
Exact mass: 385.16714
SMILES: CC[N+]1(CCCC1CNC(=O)C2=CC(=C(C=C2OC)N)S(=O)(=O)CC)[O-]
InChI: InChI=1S/C17H27N3O5S/c1-4-20(22)8-6-7-12(20)11-19-17(21)13-9-16(26(23,24)5-2)14(18)10-15(13)25-3/h9-10,12H,4-8,11,18H2,1-3H3,(H,19,21)
Instrument: Q Exactive Plus Orbitrap Thermo Scientific
Instrument type: LC-ESI-QFT
Ms type: MS2
Ion mode: NEGATIVE
Ionization: ESI
Fragmentation mode: HCD
Collision energy: 60 (nominal)
Resolution: 35000
Column name: XBridge C18 3.5um, 2.1x50mm, Waters
Retention time: 4.2 min
Base peak: 430.1652
Precursor m/z: 384.1599
Precursor type: [M-H]-
m/z	relative intensity	assigned
56.9805	1	C2HS-
63.9625	999	O2S-
64.9703	21	HO2S-
65.9986	29	C3NO-
66.035	16	C4H4N-
67.0191	2	C4H3O-
68.0143	1	C3H2NO-
68.0507	7	C4H6N-
70.0663	9	C4H8N-
72.0092	29	C2H2NO2-
78.035	1	C5H4N-
79.9574	56	O3S-
80.9652	2	HO3S-
81.0221	7	C4H3NO-
82.0297	1	C4H4NO-
90.0349	20	C6H4N-
90.986	5	C2H3O2S-
91.0427	47	C6H5N-
92.0506	324	C6H6N-
93.0016	904	C2H5O2S-
94.0298	36	C5H4NO-
95.0143	1	C5H3O2-
96.9993	1	C4H3NS-
104.0508	1	C7H6N-
105.022	2	C6H3NO-
106.0299	2	C6H4NO-
106.0663	4	C7H8N-
107.0377	713	C6H5NO-
108.0455	22	C6H6NO-
110.0248	23	C5H4NO2-
118.0301	2	C7H4NO-
120.0455	101	C7H6NO-
121.0297	5	C7H5O2-
121.0532	1	C7H7NO-
122.0248	141	C6H4NO2-
122.0612	892	C7H8NO-
123.0325	20	C6H5NO2-
130.0663	1	C9H8N-
132.033	8	C7H4N2O-
133.017	2	C7H3NO2-
133.0406	12	C7H5N2O-
133.0536	2	C8H7NO-
134.0248	89	C7H4NO2-
134.0613	18	C8H8NO-
135.0327	53	C7H5NO2-
136.0405	14	C7H6NO2-
137.0482	19	C7H7NO2-
138.0196	10	C6H4NO3-
139.0098	4	C6H5NOS-
141.0017	5	C6H5O2S-
143.0615	20	C9H7N2-
145.0408	11	C8H5N2O-
146.0246	2	C8H4NO2-
146.0487	2	C8H6N2O-
146.061	5	C9H8NO-
147.0326	6	C2H11O5S-
147.0566	13	C8H7N2O-
148.0405	178	C8H6NO2-
148.0769	40	C9H10NO-
150.0199	1	C7H4NO3-
150.0434	18	C7H6N2O2-
151.0513	52	C7H7N2O2-
152.0354	115	C7H6NO3-
152.0718	10	C8H10NO2-
155.0048	124	C6H5NO2S-
156.0126	750	C6H6NO2S-
157.9919	4	C5H4NO3S-
158.0488	4	C9H6N2O-
159.0564	18	C9H7N2O-
160.028	1	C8H4N2O2-
161.0358	16	C8H5N2O2-
162.0438	7	C8H6N2O2-
162.0562	7	C9H8NO2-
162.0924	19	C10H12NO-
163.0514	11	C8H7N2O2-
164.0354	52	C8H6NO3-
164.0591	41	C8H8N2O2-
165.0671	11	C8H9N2O2-
166.0511	27	C8H8NO3-
167.0043	2	C7H5NO2S-
169.9914	2	C6H4NO3S-
170.9996	66	C6H5NO3S-
171.0362	5	C7H9NO2S-
172.0641	11	C10H8N2O-
173.0357	4	C9H5N2O2-
173.0721	11	C10H9N2O-
173.9863	2	C5H4NO4S-
174.0434	6	C9H6N2O2-
175.0514	14	C9H7N2O2-
176.0592	7	C9H8N2O2-
176.0715	1	C10H10NO2-
177.0305	7	C8H5N2O3-
177.0671	41	C9H9N2O2-
179.0462	7	C8H7N2O3-
180.0667	4	C9H10NO3-
182.0279	1	C8H8NO2S-
183.0565	7	C11H7N2O-
184.0074	82	C7H6NO3S-
184.0438	860	C8H10NO2S-
185.0152	1	C7H7NO3S-
185.0722	12	C11H9N2O-
186.0231	804	C7H8NO3S-
187.0515	2	C10H7N2O2-
187.0875	6	C11H11N2O-
189.0669	24	C10H9N2O2-
189.1037	4	C11H13N2O-
190.0748	81	C10H10N2O2-
191.0825	9	C10H11N2O2-
193.062	6	C9H9N2O3-
197.9866	11	C7H4NO4S-
198.0231	44	C8H8NO3S-
199.0308	2	C8H9NO3S-
199.0882	5	C12H11N2O-
200.0022	1	C7H6NO4S-
200.0388	2	C8H10NO3S-
201.0672	6	C11H9N2O2-
202.0749	21	C11H10N2O2-
203.0827	77	C11H11N2O2-
204.0904	42	C11H12N2O2-
205.0622	6	C10H9N2O3-
205.0981	9	C11H13N2O2-
209.0025	4	C8H5N2O3S-
210.0105	5	C8H6N2O3S-
210.9945	1	C8H5NO4S-
211.0184	19	C8H7N2O3S-
212.0025	46	C8H6NO4S-
212.0388	98	C9H10NO3S-
214.0543	10	C9H12NO3S-
214.0761	1	C6H16NO5S-
216.0904	15	C12H12N2O2-
217.062	18	C11H9N2O3-
217.0983	45	C12H13N2O2-
218.1062	13	C12H14N2O2-
219.0777	6	C11H11N2O3-
221.0382	1	C10H9N2O2S-
224.026	2	C9H8N2O3S-
226.0545	46	C10H12NO3S-
227.0625	5	C10H13NO3S-
229.0287	1	C8H9N2O4S-
229.0971	2	C13H13N2O2-
230.0934	9	C12H12N3O2-
231.0775	1	C12H11N2O3-
231.1015	13	C12H13N3O2-
231.1141	7	C13H15N2O2-
232.1089	1	C12H14N3O2-
233.0933	8	C12H13N2O3-
235.0186	1	C10H7N2O3S-
236.0263	1	C10H8N2O3S-
236.08	8	C11H12N2O4-
237.0339	9	C10H9N2O3S-
239.0497	6	C10H11N2O3S-
240.0337	135	C10H10NO4S-
240.0698	27	C11H14NO3S-
241.0293	34	C17H5O2-
241.0414	6	C16H5N2O-
244.0295	2	C9H10NO5S-
244.1088	2	C13H14N3O2-
245.117	5	C13H15N3O2-
246.1248	5	C13H16N3O2-
248.1038	8	C12H14N3O3-
249.0347	1	C11H9N2O3S-
253.0288	13	C10H9N2O4S-
253.0658	6	C11H13N2O3S-
255.0449	5	C10H11N2O4S-
259.0524	4	C10H13NO5S-
259.1327	4	C14H17N3O2-
260.1042	5	C13H14N3O3-
260.1404	11	C14H18N3O2-
262.1198	2	C13H16N3O3-
264.0992	2	C12H14N3O4-
265.066	2	C12H13N2O3S-
266.0371	1	C11H10N2O4S-
267.0446	6	C11H11N2O4S-
268.0523	1	C11H12N2O4S-
269.0603	29	C11H13N2O4S-
274.1555	2	C15H20N3O2-
275.1284	1	C14H17N3O3-
276.1361	2	C14H18N3O3-
277.066	4	C13H13N2O3S-
281.0602	14	C12H13N2O4S-
281.0978	1	C13H17N2O3S-
282.0679	28	C12H14N2O4S-
295.0757	21	C13H15N2O4S-
309.0911	15	C14H17N2O4S-
324.1026	1	C14H18N3O4S-
328.0978	5	C13H18N3O5S-
338.1202	1	C17H22O5S-
