Mass spectrum: 5-Chloro-2-methyl-4-isothiazolin-3-one (CMI); LC-ESI-ITFT; MS2; CE: 60%; R=15000; [M+H]+
Name: 5-Chloro-2-methyl-4-isothiazolin-3-one (CMI)
Name: 3(2H)-Isothiazolone, 5-chloro-2-methyl-
Name: 5-chloranyl-2-methyl-1,2-thiazol-3-one
Formula: C4H4ClNOS
Exact mass: 148.9702
SMILES: c1(n(sc(c1)Cl)C)=O
InChI: InChI=1S/C4H4ClNOS/c1-6-4(7)2-3(5)8-6/h2H,1H3
Instrument: LTQ Orbitrap XL Thermo Scientific
Instrument type: LC-ESI-ITFT
Ms type: MS2
Ion mode: POSITIVE
Ionization: ESI
Fragmentation mode: HCD
Collision energy: 60 % (nominal)
Resolution: 15000
Column name: XBridge C18 3.5um, 2.1x50mm, Waters
Retention time: 3.7 min
Base peak: 149.9773
Precursor m/z: 149.9775
Precursor type: [M+H]+
m/z	relative intensity	assigned
58.0288	4	C2H4NO+
58.995	3	C2H3S+
59.9903	1	CH2NS+
66.0106	1	CH5ClN+
67.0179	1	C4H3O+
70.9951	7	C3H3S+
72.984	1	C3H2Cl+
74.0061	1	C2H4NS+
78.0106	5	C2H5ClN+
78.9405	3	CClS+
83.9664	1	C3OS+
84.9744	1	C3HOS+
86.006	5	C3H4NS+
87.0138	2	C3H5NS+
92.9561	4	C2H2ClS+
94.9718	6	C2H4ClS+
95.9903	20	C4H2NS+
102.9406	2	C3ClS+
102.9946	6	C4H4ClO+
104.9561	11	C3H2ClS+
106.0056	4	C3H5ClNO+
106.9718	9	C3H4ClS+
114.001	2	C4H4NOS+
115.0088	47	C4H5NOS+
116.9978	3	C4H4ClNO+
118.9354	26	C3ClOS+
120.9511	10	C3H2ClOS+
121.9828	2	C3H5ClNS+
131.9671	1	C4H3ClNS+
132.951	5	C4H2ClOS+
134.9542	24	C3H2ClNOS+
147.9622	1	C4H3ClNOS+
149.9777	999	C4H5ClNOS+
