Mass spectrum: Bupivacaine; LC-ESI-QFT; MS2; CE: 75; R=35000; [M+H]+
Name: Bupivacaine
Name: 1-butyl-N-(2,6-dimethylphenyl)piperidine-2-carboxamide
Formula: C18H28N2O
Exact mass: 288.22016
SMILES: CCCCN1CCCCC1/C(=N/C2=C(C=CC=C2C)C)/O
InChI: InChI=1S/C18H28N2O/c1-4-5-12-20-13-7-6-11-16(20)18(21)19-17-14(2)9-8-10-15(17)3/h8-10,16H,4-7,11-13H2,1-3H3,(H,19,21)
Instrument: Q Exactive Orbitrap Thermo Scientific
Instrument type: LC-ESI-QFT
Ms type: MS2
Ion mode: POSITIVE
Ionization: ESI
Fragmentation mode: HCD
Collision energy: 75 (nominal)
Resolution: 35000
Column name: XBridge C18 3.5um, 2.1x50mm, Waters
Retention time: 6.2 min
Base peak: 289.2276
Precursor m/z: 289.2274
Precursor type: [M+H]+
m/z	relative intensity	assigned
56.0495	4	C3H6N+
57.0699	15	C4H9+
67.0543	8	C5H7+
70.0651	29	C4H8N+
82.0651	3	C5H8N+
83.0729	1	C5H9N+
84.0808	453	C5H10N+
96.0807	1	C6H10N+
98.0964	317	C6H12N+
105.0699	1	C8H9+
107.073	3	C7H9N+
112.1121	30	C7H14N+
132.0807	1	C9H10N+
138.1279	2	C9H16N+
140.1434	999	C9H18N+
150.0915	1	C9H12NO+
