Mass spectrum: Iobitridol; LC-ESI-ITFT; MS2; CE: 35%; R=7500; [M+H]+
Name: Iobitridol
Name: 1,3-Benzenedicarboxamide, N,N'-bis(2,3-dihydroxypropyl)-5-((5-hydroxy-2-(hydroxymethyl)-1-oxopropyl)amino)-2,4,6-triiodo-N,N'-dimethyl-
Name: 1-N,3-N-bis(2,3-dihydroxypropyl)-5-[[3-hydroxy-2-(hydroxymethyl)propanoyl]amino]-2,4,6-triiodo-1-N,3-N-dimethylbenzene-1,3-dicarboxamide
Formula: C20H28I3N3O9
Exact mass: 834.8960
SMILES: Ic1c(c(I)c(c(I)c1NC(=O)C(CO)CO)C(=O)N(CC(O)CO)C)C(=O)N(CC(O)CO)C
InChI: InChI=1S/C20H28I3N3O9/c1-25(3-10(31)7-29)19(34)12-14(21)13(20(35)26(2)4-11(32)8-30)16(23)17(15(12)22)24-18(33)9(5-27)6-28/h9-11,27-32H,3-8H2,1-2H3,(H,24,33)
Instrument: LTQ Orbitrap XL Thermo Scientific
Instrument type: LC-ESI-ITFT
Ms type: MS2
Ion mode: POSITIVE
Ionization: ESI
Fragmentation mode: CID
Collision energy: 35 % (nominal)
Resolution: 7500
Column name: XBridge C18 3.5um, 2.1x50mm, Waters
Retention time: 1.6 min
Base peak: 149.0023
Precursor m/z: 835.9032
Precursor type: [M+H]+
m/z	relative intensity	assigned
293.8964	6	HIN5O6+
314.9599	2	C7H10INO5+
402.0331	4	C16H19IO4+
474.9994	46	C16H16IN2O7+
522.0726	17	C20H27IO8+
546.9449	15	C14H19I2N3O4+
584.9047	5	C19H13I2N3O3+
602.9117	210	C16H17I2N2O7+
628.7916	44	C12H12I3N2O4+
647.9699	5	C18H24I2N3O7+
659.83	3	C10H19I3N2O7+
689.9815	15	C20H26I2N3O8+
712.8135	12	C16H16I3N2O6+
715.861	290	C16H21I3N3O5+
730.8279	25	C19H16I3N3O4+
733.8714	999	C13H25I3N2O9+
769.8682	5	C19H23I3N3O6+
787.8793	8	C19H25I3N3O7+
799.8823	27	C20H25I3N3O7+
817.8926	540	C20H27I3N3O8+
