Mass spectrum: Chlorpyrifos; LC-ESI-ITFT; MS2; CE: 60%; R=15000; [M+H]+
Name: Chlorpyrifos
Name: diethoxy-sulfanylidene-(3,5,6-trichloropyridin-2-yl)oxy-{5}-phosphane
Formula: C9H11Cl3NO3PS
Exact mass: 348.9263
SMILES: Clc1c(OP(=S)(OCC)OCC)nc(Cl)c(Cl)c1
InChI: InChI=1S/C9H11Cl3NO3PS/c1-3-14-17(18,15-4-2)16-9-7(11)5-6(10)8(12)13-9/h5H,3-4H2,1-2H3
Instrument: LTQ Orbitrap XL Thermo Scientific
Instrument type: LC-ESI-ITFT
Ms type: MS2
Ion mode: POSITIVE
Ionization: ESI
Fragmentation mode: HCD
Collision energy: 60 % (nominal)
Resolution: 15000
Column name: XBridge C18 3.5um, 2.1x50mm, Waters
Retention time: 16.0 min
Base peak: 349.9337
Precursor m/z: 349.9336
Precursor type: [M+H]+
m/z	relative intensity	assigned
64.9785	1	H2O2P+
78.9402	2	OPS+
80.9737	1	CH2ClO2+
96.9507	535	H2O2PS+
98.9843	2	CH4ClO3+
106.9449	31	C3HCl2+
109.0047	1	C2H6O3P+
110.9663	4	CH4O2PS+
114.9613	951	H4O3PS+
124.982	8	C2H6O2PS+
128.977	1	CH6O3PS+
133.9558	40	C4H2Cl2N+
142.9928	2	C3H8ClO2S+
149.9504	1	C4H2Cl2NO+
150.9169	7	C3HClOPS+
161.9508	6	C5H2Cl2NO+
177.928	14	C5H2Cl2NS+
179.9613	114	C5H4Cl2NO2+
195.9384	3	C4H4ClNO2PS+
196.9199	1	C4H2Cl2NO2P+
197.9275	999	C5H3Cl3NO+
211.8893	3	C5HCl3NS+
212.8968	8	C5H2Cl3NS+
213.9045	183	C4H3Cl2NOPS+
275.8603	39	C5H2Cl3NO2PS+
277.8941	2	C5H4Cl3NO4P+
293.851	1	C8Cl3NOPS+
