Mass spectrum: Fluazifop; LC-ESI-ITFT; MS2; CE: 90%; R=30000; [M+H]+
Name: Fluazifop
Name: 2-[4-[5-(trifluoromethyl)pyridin-2-yl]oxyphenoxy]propanoic acid
Formula: C15H12F3NO4
Exact mass: 327.0724
SMILES: CC(C(=O)O)OC1=CC=C(C=C1)OC2=NC=C(C=C2)C(F)(F)F
InChI: InChI=1S/C15H12F3NO4/c1-9(14(20)21)22-11-3-5-12(6-4-11)23-13-7-2-10(8-19-13)15(16,17)18/h2-9H,1H3,(H,20,21)
Instrument: LTQ Orbitrap XL Thermo Scientific
Instrument type: LC-ESI-ITFT
Ms type: MS2
Ion mode: POSITIVE
Ionization: ESI
Fragmentation mode: HCD
Collision energy: 90 % (nominal)
Resolution: 30000
Column name: XBridge C18 3.5um, 2.1x50mm, Waters
Retention time: 10.9 min
Base peak: 328.0794
Precursor m/z: 328.0791
Precursor type: [M+H]+
m/z	relative intensity	assigned
63.0229	47	C5H3+
64.0308	56	C5H4+
65.0386	837	C5H5+
75.0229	55	C6H3+
77.0385	37	C6H5+
78.0338	16	C5H4N+
81.0335	44	C5H5O+
91.0542	952	C7H7+
92.0256	117	C6H4O+
93.0335	44	C6H5O+
94.0413	113	C6H6O+
103.0542	36	C8H7+
104.013	39	C6H2NO+
109.0284	46	C6H5O2+
110.0363	51	C6H6O2+
120.0442	22	C7H6NO+
121.0396	55	C6H5N2O+
126.0149	66	C6H2F2N+
127.0227	129	C6H3F2N+
130.0651	116	C9H8N+
131.0491	322	C9H7O+
133.0448	31	C9H6F+
140.0494	50	C10H6N+
141.0573	525	C10H7N+
144.0253	19	C6H4F2NO+
145.0333	40	C6H5F2NO+
146.0212	321	C6H3F3N+
147.029	406	C6H4F3N+
151.0351	19	C9H5F2+
152.0431	42	C9H6F2+
158.06	306	C10H8NO+
159.0479	25	C10H6FN+
163.0239	75	C6H4F3NO+
164.0318	907	C6H5F3NO+
167.0727	26	C12H9N+
168.0444	157	C11H6NO+
169.052	72	C11H7NO+
177.0585	19	C10H8FNO+
178.0461	16	C10H6F2N+
179.0188	663	C6H4F3NO2+
180.0381	138	C10H6F2O+
185.0447	38	C9H6F3N+
186.052	21	C9H7F3N+
187.0431	26	C11H6FNO+
188.0506	101	C11H7FNO+
190.0462	213	C11H6F2N+
191.0419	28	C10H5F2N2+
198.0524	280	C10H7F3N+
199.0365	33	C10H6F3O+
206.0409	27	C14H5FN+
207.049	62	C11H7F2NO+
208.0569	52	C11H8F2NO+
209.0446	81	C11H6F3N+
210.0523	88	C11H7F3N+
211.0602	58	C11H8F3N+
218.0411	272	C12H6F2NO+
226.0474	155	C11H7F3NO+
227.0552	498	C11H8F3NO+
235.0599	30	C13H8F3N+
238.0472	647	C12H7F3NO+
254.0422	999	C12H7F3NO2+
256.0572	20	C12H9F3NO2+
