Mass spectrum: Chlordiazepoxide; LC-ESI-QFT; MS2; CE: 180; R=35000; [M+H]+
Name: Chlordiazepoxide
Name: Zetran
Name: 7-chloro-4-hydroxy-N-methyl-5-phenyl-3H-1,4-benzodiazepin-2-imine
Formula: C16H14ClN3O
Exact mass: 299.08254
SMILES: CN=C1CN(C(=C2C=C(C=CC2=N1)Cl)C3=CC=CC=C3)O
InChI: InChI=1S/C16H14ClN3O/c1-18-15-10-20(21)16(11-5-3-2-4-6-11)13-9-12(17)7-8-14(13)19-15/h2-9,21H,10H2,1H3
Instrument: Q Exactive Plus Orbitrap Thermo Scientific
Instrument type: LC-ESI-QFT
Ms type: MS2
Ion mode: POSITIVE
Ionization: ESI
Fragmentation mode: HCD
Collision energy: 180 (nominal)
Resolution: 35000
Column name: XBridge C18 3.5um, 2.1x50mm, Waters
Retention time: 6.2 min
Base peak: 300.0888
Precursor m/z: 300.0898
Precursor type: [M+H]+
m/z	relative intensity	assigned
50.0151	79	C4H2+
51.0229	70	C4H3+
52.0182	2	C3H2N+
53.0021	11	C3HO+
53.0386	17	C4H5+
53.9974	1	C2NO+
55.0178	1	C3H3O+
55.029	15	C2H3N2+
57.0447	296	C2H5N2+
60.9839	1	C2H2Cl+
61.0072	22	C5H+
61.9791	12	CHClN+
62.015	97	C5H2+
63.0229	579	C5H3+
64.018	8	C4H2N+
64.0307	11	C5H4+
65.0021	5	C4HO+
65.0385	61	C5H5+
66.0464	8	C5H6+
72.9838	37	C3H2Cl+
74.015	119	C6H2+
75.0228	244	C6H3+
76.018	23	C5H2N+
76.0306	32	C6H4+
77.0384	47	C6H5+
78.0337	5	C5H4N+
78.0463	10	C6H6+
81.0334	5	C5H5O+
84.9839	25	C4H2Cl+
86.0149	17	C7H2+
86.9995	2	C4H4Cl+
87.0228	46	C7H3+
88.018	16	C6H2N+
88.0306	22	C7H4+
89.0385	999	C7H5+
90.0338	11	C6H4N+
90.0464	24	C7H6+
91.0415	5	C6H5N+
91.0542	21	C7H7+
92.0493	1	C6H6N+
94.0412	1	C6H6O+
95.049	61	C6H7O+
96.0443	1	C5H6NO+
96.9838	12	C5H2Cl+
98.015	24	C8H2+
98.9995	9	C5H4Cl+
99.0102	67	C7HN+
99.0228	35	C8H3+
100.0181	154	C7H2N+
100.0306	10	
101.0257	1	C7H3N+
102.0337	25	C7H4N+
102.0463	28	C8H6+
103.0415	14	C7H5N+
104.0494	15	C7H6N+
105.0446	40	C6H5N2+
108.9837	8	C6H2Cl+
110.9995	9	C6H4Cl+
111.0228	12	
113.0384	63	C9H5+
114.0337	33	C8H4N+
114.0464	6	C9H6+
115.0541	222	C9H7+
116.0493	14	C8H6N+
117.0571	12	C8H7N+
118.0286	19	C7H4NO+
119.0491	1	C8H7O+
120.0442	3	C7H6NO+
122.9994	28	C7H4Cl+
123.9949	1	C6H3ClN+
124.0076	1	C7H5Cl+
125.0385	28	C10H5+
126.0463	59	C10H6+
127.0415	21	C9H5N+
127.054	9	C10H7+
128.0494	11	C9H6N+
128.062	9	C10H8+
129.0102	9	C6H6ClO+
129.0445	19	C8H5N2+
129.0572	2	C9H7N+
130.0398	22	C7H4N3+
135.9949	1	C7H3ClN+
137.0385	43	C11H5+
138.0104	10	C7H5ClN+
138.0337	13	
138.0462	22	C11H6+
139.0056	31	C6H4ClN2+
139.0541	190	C11H7+
140.0493	83	C10H6N+
143.049	7	C10H7O+
145.0647	6	C10H9O+
146.0598	4	C9H8NO+
148.0304	1	C12H4+
149.0151	2	C9H6Cl+
149.0385	31	C12H5+
150.0463	232	C12H6+
151.0416	16	C11H5N+
151.0541	51	C12H7+
152.0494	15	C11H6N+
152.0619	80	C12H8+
153.0444	5	C10H5N2+
153.0571	13	C11H7N+
153.0699	1	C12H9+
154.04	2	C9H4N3+
155.0602	12	C10H7N2+
161.0384	41	C13H5+
162.0344	9	C12H4N+
162.0463	64	C13H6+
163.0541	745	C13H7+
164.0494	83	C12H6N+
164.0618	136	C13H8+
165.0697	117	C13H9+
166.065	5	C12H8N+
167.049	9	C12H7O+
167.0728	1	C12H9N+
168.0568	56	C12H8O+
169.0646	132	C12H9O+
170.06	15	C11H8NO+
174.0463	40	C14H6+
175.0416	35	C13H5N+
175.0537	12	C14H7+
176.0499	9	C13H6N+
176.0619	44	C14H8+
177.0571	141	C13H7N+
178.065	57	C13H8N+
179.0602	61	C12H7N2+
179.0728	8	C13H9N+
180.0558	4	C11H6N3+
188.0493	215	C14H6N+
189.0444	5	C13H5N2+
189.0572	38	C14H7N+
190.0649	218	C14H8N+
191.073	12	C14H9N+
192.0681	1	C13H8N2+
193.0522	14	C13H7NO+
193.065	12	C14H9O+
194.036	10	C10H9ClNO+
194.0599	32	C13H8NO+
196.0517	18	C10H11ClNO+
196.0753	1	C13H10NO+
199.0308	7	C13H8Cl+
201.0571	40	C15H7N+
202.0523	12	C14H6N2+
202.0646	10	C15H8N+
203.0601	32	C14H7N2+
203.0726	7	C15H9N+
204.0555	25	C13H6N3+
204.0677	12	C14H8N2+
204.0804	1	C15H10N+
205.076	13	C14H9N2+
207.0682	1	C14H9NO+
212.0262	2	C13H7ClN+
215.0603	29	C15H7N2+
216.0678	14	C15H8N2+
217.0759	13	C15H9N2+
218.0837	7	C15H10N2+
220.0753	4	C15H10NO+
221.0473	4	C11H10ClN2O+
230.071	7	C15H8N3+
