Mass spectrum: Lincomycin; LC-ESI-QFT; MS2; CE: 150; R=35000; [M-H]-
Name: Lincomycin
Name: N-[2-hydroxy-1-(3,4,5-trihydroxy-6-methylsulfanyloxan-2-yl)propyl]-1-methyl-4-propylpyrrolidine-2-carboxamide
Formula: C18H34N2O6S
Exact mass: 406.21376
SMILES: CCCC1CC(N(C1)C)C(=O)NC(C2C(C(C(C(O2)SC)O)O)O)C(C)O
InChI: InChI=1S/C18H34N2O6S/c1-5-6-10-7-11(20(3)8-10)17(25)19-12(9(2)21)16-14(23)13(22)15(24)18(26-16)27-4/h9-16,18,21-24H,5-8H2,1-4H3,(H,19,25)
Instrument: Q Exactive Plus Orbitrap Thermo Scientific
Instrument type: LC-ESI-QFT
Ms type: MS2
Ion mode: NEGATIVE
Ionization: ESI
Fragmentation mode: HCD
Collision energy: 150 (nominal)
Resolution: 35000
Column name: XBridge C18 3.5um, 2.1x50mm, Waters
Retention time: 3.7 min
Base peak: 451.2115
Precursor m/z: 405.2065
Precursor type: [M-H]-
m/z	relative intensity	assigned
50.0036	460	C3N-
51.0239	126	C4H3-
52.0193	220	C3H2N-
53.0032	315	C3HO-
55.0189	999	C3H3O-
56.9804	258	C2HS-
57.0346	192	C3H5O-
58.006	34	C2H2O2-
59.0138	445	C2H3O2-
60.9754	309	CHOS-
63.9625	50	O2S-
64.0193	80	C4H2N-
65.0033	106	C4HO-
65.0397	131	C5H5-
65.9985	161	C3NO-
66.0349	480	C4H4N-
67.019	694	C4H3O-
68.0142	520	C3H2NO-
68.9982	918	C3HO2-
69.0346	497	C4H5O-
70.0299	111	C3H4NO-
71.0139	507	C3H3O2-
71.9675	24	C2OS-
72.9754	238	C2HOS-
72.9933	112	C2HO3-
73.9832	335	C2H2OS-
76.0193	132	C5H2N-
77.0033	32	C5HO-
80.014	32	C4H2NO-
80.0506	113	C5H6N-
80.9804	53	C4HS-
81.022	270	C4H3NO-
81.0346	95	C5H5O-
82.0298	135	C4H4NO-
82.9962	103	C4H3S-
84.9754	26	C3HOS-
85.0295	35	C4H5O2-
87.0087	41	C3H3O3-
90.0349	43	C6H4N-
94.0298	888	C5H4NO-
95.0138	30	C5H3O2-
97.0295	89	C5H5O2-
98.0248	48	C4H4NO2-
105.022	92	C6H3NO-
106.0298	24	C6H4NO-
108.0216	153	C6H4O2-
109.017	42	C5H3NO2-
118.03	37	C7H4NO-
122.0248	153	C6H4NO2-
