Mass spectrum: Chlorothalonil TP SYN548581; LC-ESI-QFT; MS2; CE: 90%; R=15000; [M+H]+
Name: Chlorothalonil TP SYN548581
Name: 4-carbamoyl-2,3,5-trichloro-6-cyanobenzenesulfonic acid
Formula: C8H3Cl3N2O4S
Exact mass: 327.8879
SMILES: NC(=O)C1=C(Cl)C(Cl)=C(C(C#N)=C1Cl)S(O)(=O)=O
InChI: InChI=1S/C8H3Cl3N2O4S/c9-4-2(1-12)7(18(15,16)17)6(11)5(10)3(4)8(13)14/h(H2,13,14)(H,15,16,17)
Instrument: Orbitrap Exploris 240 Thermo Scientific
Instrument type: LC-ESI-QFT
Ms type: MS2
Ion mode: POSITIVE
Ionization: ESI
Fragmentation mode: HCD
Collision energy: 90 % (nominal)
Resolution: 15000
Column name: Atlantis C18 3um, 3.0x150mm, Waters
Retention time: 10.461 min
Base peak: 132.9582
Precursor m/z: 328.8952
Precursor type: [M+H]+
Precursor intensity: 4062616.5
m/z	relative intensity	assigned
61.9791	73	CHClN+
62.9632	62	CClO+
63.9851	73	H2NOS+
72.9839	167	C3H2Cl+
82.945	345	CHCl2+
97.9793	116	C4HClN+
101.0134	49	C6HN2+
106.9449	495	C3HCl2+
107.9402	105	C2Cl2N+
109.9789	191	C5HClN+
121.9792	66	C6HClN+
122.9869	220	C6H2ClN+
123.9947	101	C6H3ClN+
130.945	657	C5HCl2+
131.9404	225	C4Cl2N+
136.9899	83	C6H2ClN2+
139.0056	94	C6H4ClN2+
140.9059	145	C3Cl3+
145.9557	183	C5H2Cl2N+
146.9395	70	C5HCl2O+
155.9407	194	C6Cl2N+
156.9481	115	C6HCl2N+
157.9558	999	C6H2Cl2N+
158.9637	691	C6H3Cl2N+
164.906	473	C5Cl3+
166.9216	671	C5H2Cl3+
172.9667	205	C6H3Cl2N2+
182.9508	70	C7HCl2N2+
183.9592	62	C7H2Cl2N2+
185.9507	153	C7H2Cl2NO+
191.9168	979	C6HCl3N+
203.9168	48	C7HCl3N+
204.9005	70	C7Cl3O+
222.912	64	C7H2Cl3O2+
247.9068	84	C8HCl3NO2+
