Mass spectrum: Enoxacin; LC-ESI-QFT; MS2; CE: 15; R=35000; [M+H]+
Name: Enoxacin
Name: 1-Ethyl-6-fluoro-1,4-dihydro-4-oxo-7-(1-piperazinyl)-1,8-naphthyridine-3-carboxylic acid
Name: 1-ethyl-6-fluoranyl-4-oxidanylidene-7-piperazin-1-yl-1,8-naphthyridine-3-carboxylic acid
Formula: C15H17FN4O3
Exact mass: 320.12847
SMILES: Fc1c(nc2c(c1)C(=O)C(\C(=O)O)=C/N2CC)N3CCNCC3
InChI: InChI=1S/C15H17FN4O3/c1-2-19-8-10(15(22)23)12(21)9-7-11(16)14(18-13(9)19)20-5-3-17-4-6-20/h7-8,17H,2-6H2,1H3,(H,22,23)
Instrument: Q Exactive Orbitrap Thermo Scientific
Instrument type: LC-ESI-QFT
Ms type: MS2
Ion mode: POSITIVE
Ionization: ESI
Fragmentation mode: HCD
Collision energy: 15 (nominal)
Resolution: 35000
Column name: XBridge C18 3.5um, 2.1x50mm, Waters
Retention time: 4.2 min
Base peak: 321.136
Precursor m/z: 321.1357
Precursor type: [M+H]+
m/z	relative intensity	assigned
234.104	5	C12H13FN3O+
257.1398	8	C14H17N4O+
277.146	34	C14H18FN4O+
303.1241	13	C15H16FN4O2+
321.1358	999	C15H18FN4O3+
