Mass spectrum: Lacosamide; LC-ESI-QFT; MS2; CE: 30; R=35000; [M-H]-
Name: Lacosamide
Name: N2-Acetyl-N-benzyl-O-methyl-D-serinamide
Name: 2-acetamido-N-benzyl-3-methoxypropanamide
Formula: C13H18N2O3
Exact mass: 250.13174
SMILES: CC(=O)NC(COC)C(=O)NCC1=CC=CC=C1
InChI: InChI=1S/C13H18N2O3/c1-10(16)15-12(9-18-2)13(17)14-8-11-6-4-3-5-7-11/h3-7,12H,8-9H2,1-2H3,(H,14,17)(H,15,16)
Instrument: Q Exactive Plus Orbitrap Thermo Scientific
Instrument type: LC-ESI-QFT
Ms type: MS2
Ion mode: NEGATIVE
Ionization: ESI
Fragmentation mode: HCD
Collision energy: 30 (nominal)
Resolution: 35000
Column name: XBridge C18 3.5um, 2.1x50mm, Waters
Retention time: 5.0 min
Base peak: 295.1293
Precursor m/z: 249.1245
Precursor type: [M-H]-
m/z	relative intensity	assigned
57.0345	13	C3H5O-
57.9933	2	CNO2-
58.0298	6	C2H4NO-
59.0138	6	C2H3O2-
68.0506	1	C4H6N-
70.03	1	C3H4NO-
77.0395	3	C6H5-
82.0298	4	C4H4NO-
84.0454	79	C4H6NO-
86.0611	2	C4H8NO-
98.0247	2	C4H4NO2-
102.0348	5	C7H4N-
104.0504	13	C7H6N-
110.0246	7	C5H4NO2-
111.0199	5	C4H3N2O2-
112.0403	17	C5H6NO2-
114.056	4	C5H8NO2-
116.0503	1	C8H6N-
118.0297	4	C7H4NO-
120.0453	2	C7H6NO-
130.0658	3	C9H8N-
131.0377	1	C8H5NO-
132.0454	18	C8H6NO-
134.0611	12	C8H8NO-
142.0511	2	C6H8NO3-
146.0612	6	C9H8NO-
148.0768	691	C9H10NO-
158.0613	2	C10H8NO-
159.0563	23	C9H7N2O-
162.056	1	C9H8NO2-
171.0927	6	C11H11N2-
174.0922	15	C11H12NO-
175.0876	938	C10H11N2O-
184.064	7	C11H8N2O-
187.0872	5	C11H11N2O-
199.0876	213	C12H11N2O-
201.0668	17	C11H9N2O2-
202.0747	80	C11H10N2O2-
207.1138	999	C11H15N2O2-
217.0981	957	C12H13N2O2-
231.1137	2	C13H15N2O2-
234.0647	2	C11H10N2O4-
249.1243	74	C13H17N2O3-
