Mass spectrum: Albendazole; LC-ESI-QFT; MS2; CE: 90; R=35000; [M-H]-
Name: Albendazole
Name: Methyl N-(6-propylsulfanyl-1H-benzimidazol-2-yl)carbamate
Formula: C12H15N3O2S
Exact mass: 265.08850
SMILES: CCCSC1=CC2=C(C=C1)N=C(N2)NC(=O)OC
InChI: InChI=1S/C12H15N3O2S/c1-3-6-18-8-4-5-9-10(7-8)14-11(13-9)15-12(16)17-2/h4-5,7H,3,6H2,1-2H3,(H2,13,14,15,16)
Instrument: Q Exactive Plus Orbitrap Thermo Scientific
Instrument type: LC-ESI-QFT
Ms type: MS2
Ion mode: NEGATIVE
Ionization: ESI
Fragmentation mode: HCD
Collision energy: 90 (nominal)
Resolution: 35000
Column name: XBridge C18 3.5um, 2.1x50mm, Waters
Retention time: 7.8 min
Base peak: 232.0549
Precursor m/z: 264.0812
Precursor type: [M-H]-
m/z	relative intensity	assigned
57.9758	472	CNS-
64.0068	1	C3N2-
65.0146	33	C3HN2-
65.9986	9	C3NO-
71.9677	2	C2OS-
74.0039	1	C5N-
77.0148	2	C4HN2-
79.0066	1	C4HNO-
81.9758	49	C3NS-
89.0147	4	C5HN2-
90.0224	50	C5H2N2-
91.0303	7	C5H3N2-
94.9836	16	C4HNS-
101.0146	10	C6HN2-
102.0224	8	C6H2N2-
106.0174	6	C5H2N2O-
106.9839	1	C5HNS-
107.9789	1	C4N2S-
108.9867	27	C4HN2S-
116.0257	8	C6H2N3-
117.0097	6	C6HN2O-
118.0177	1	C6H2N2O-
121.9947	1	C5H2N2S-
128.0257	5	C7H2N3-
129.0334	5	C7H3N3-
132.9867	20	C6HN2S-
133.9946	58	C6H2N2S-
135.0025	15	C6H3N2S-
158.0362	4	C8H4N3O-
159.9978	494	C7H2N3S-
161.0056	450	C7H3N3S-
162.0135	2	C7H4N3S-
189.0006	999	C8H3N3OS-
