Mass spectrum: Cimetidine; LC-ESI-QFT; MS2; CE: 15; R=35000; [M+H]+
Name: Cimetidine
Name: 1-cyano-2-methyl-3-[2-[(5-methyl-1H-imidazol-4-yl)methylsulfanyl]ethyl]guanidine
Formula: C10H16N6S
Exact mass: 252.11572
SMILES: CC1=C(N=CN1)CSCCNC(=NC)NC#N
InChI: InChI=1S/C10H16N6S/c1-8-9(16-7-15-8)5-17-4-3-13-10(12-2)14-6-11/h7H,3-5H2,1-2H3,(H,15,16)(H2,12,13,14)
Instrument: Q Exactive Plus Orbitrap Thermo Scientific
Instrument type: LC-ESI-QFT
Ms type: MS2
Ion mode: POSITIVE
Ionization: ESI
Fragmentation mode: HCD
Collision energy: 15 (nominal)
Resolution: 35000
Column name: XBridge C18 3.5um, 2.1x50mm, Waters
Retention time: 2.0 min
Base peak: 253.1222
Precursor m/z: 253.123
Precursor type: [M+H]+
m/z	relative intensity	assigned
57.0446	1	C2H5N2+
61.0105	4	C2H5S+
95.0602	142	C5H7N2+
99.0664	7	C3H7N4+
103.0323	10	C3H7N2S+
117.048	397	C4H9N2S+
128.0275	4	C4H6N3S+
132.0588	1	C4H10N3S+
155.0635	5	C7H11N2S+
159.0697	711	C5H11N4S+
172.0901	48	C7H14N3S+
193.1195	6	C8H13N6+
197.0852	4	C8H13N4S+
211.1011	92	C9H15N4S+
222.0805	9	C9H12N5S+
253.1227	999	C10H17N6S+
