Mass spectrum: Indapamide; LC-ESI-QFT; MS2; CE: 90; R=35000; [M-H]-
Name: Indapamide
Name: 4-chloro-N-(2-methyl-2,3-dihydroindol-1-yl)-3-sulfamoylbenzamide
Formula: C16H16ClN3O3S
Exact mass: 365.06009
SMILES: CC1CC2=CC=CC=C2N1NC(=O)C3=CC(=C(C=C3)Cl)S(=O)(=O)N
InChI: InChI=1S/C16H16ClN3O3S/c1-10-8-11-4-2-3-5-14(11)20(10)19-16(21)12-6-7-13(17)15(9-12)24(18,22)23/h2-7,9-10H,8H2,1H3,(H,19,21)(H2,18,22,23)
Instrument: Q Exactive Plus Orbitrap Thermo Scientific
Instrument type: LC-ESI-QFT
Ms type: MS2
Ion mode: NEGATIVE
Ionization: ESI
Fragmentation mode: HCD
Collision energy: 90 (nominal)
Resolution: 35000
Column name: XBridge C18 3.5um, 2.1x50mm, Waters
Retention time: 6.7 min
Base peak: 364.0524
Precursor m/z: 364.0528
Precursor type: [M-H]-
m/z	relative intensity	assigned
50.0035	2	C3N-
56.9804	6	C2HS-
57.9757	4	CNS-
61.9706	185	NOS-
63.0115	8	C4HN-
63.9625	174	O2S-
65.0272	2	C4H3N-
65.9985	6	C3NO-
68.0142	2	C3H2NO-
76.0193	1	C5H2N-
77.9655	999	NO2S-
78.9733	574	HNO2S-
79.9812	101	H2NO2S-
80.9651	5	HO3S-
81.9757	3	C3NS-
88.0192	66	C6H2N-
89.0271	55	C6H3N-
90.0349	23	C6H4N-
91.0302	26	C5H3N2-
92.0142	8	C5H2NO-
92.9981	1	C5HO2-
93.9604	51	NO3S-
103.0301	7	C6H3N2-
105.022	51	C6H3NO-
106.006	1	C6H2O2-
107.9913	11	C5H2NS-
108.985	7	C6H2Cl-
115.0302	68	C7H3N2-
116.0506	38	C8H6N-
119.025	2	C6H3N2O-
120.0091	4	C6H2NO2-
120.0329	6	C6H4N2O-
120.993	2	C6HO3-
123.9959	15	C6H3ClN-
125.0037	8	C6H4ClN-
126.0116	1	C6H5ClN-
130.0661	21	C9H8N-
131.0251	44	C7H3N2O-
132.0327	2	C7H4N2O-
140.9987	2	C6H4ClNO-
151.0069	19	C7H4ClN2-
153.9968	2	C6H4NO2S-
178.9921	15	C7H3N2O2S-
188.9657	31	C9HO3S-
214.9685	3	C7H4ClN2O2S-
