Mass spectrum: 3-[(4-chlorobenzoyl)amino]propanoic acid; LC-ESI-QFT; MS2; CE: 60; R=35000; [M+H]+
Name: 3-[(4-chlorobenzoyl)amino]propanoic acid
Name: N-(4-Chlorobenzoyl)-Beta-alanine
Formula: C10H10ClNO3
Exact mass: 227.03492
SMILES: C1=CC(=CC=C1C(=O)NCCC(=O)O)Cl
InChI: InChI=1S/C10H10ClNO3/c11-8-3-1-7(2-4-8)10(15)12-6-5-9(13)14/h1-4H,5-6H2,(H,12,15)(H,13,14)
Instrument: Q Exactive Plus Orbitrap Thermo Scientific
Instrument type: LC-ESI-QFT
Ms type: MS2
Ion mode: POSITIVE
Ionization: ESI
Fragmentation mode: HCD
Collision energy: 60 (nominal)
Resolution: 35000
Column name: XBridge C18 3.5um, 2.1x50mm, Waters
Retention time: 6.2 min
Base peak: 228.0421
Precursor m/z: 228.0422
Precursor type: [M+H]+
m/z	relative intensity	assigned
50.0149	2	C4H2+
51.0229	1	C4H3+
55.0179	6	C3H3O+
72.0444	11	C3H6NO+
73.0284	1	C3H5O2+
75.0226	2	C6H3+
79.0179	1	C5H3O+
86.9996	9	C4H4Cl+
93.0335	3	C6H5O+
110.9995	6	C6H4Cl+
111.044	1	C6H7O2+
129.0102	31	C6H6ClO+
138.9945	999	C7H4ClO+
139.0054	106	C9HNO+
156.021	7	C7H7ClNO+
168.021	1	C8H7ClNO+
182.037	1	C9H9ClNO+
