Mass spectrum: Eicosatrienoic acid; LC-ESI-QFT; MS2; CE: 60%; R=17500; [M+H]+
Name: Eicosatrienoic acid
Name: Eicosa-11,14,17-trienoic acid
Name: icosa-11,14,17-trienoic acid
Formula: C20H34O2
Exact mass: 306.2559
SMILES: CCC=CCC=CCC=CCCCCCCCCCC(=O)O
InChI: InChI=1S/C20H34O2/c1-2-3-4-5-6-7-8-9-10-11-12-13-14-15-16-17-18-19-20(21)22/h3-4,6-7,9-10H,2,5,8,11-19H2,1H3,(H,21,22)
Instrument: Exploris 240 Orbitrap Thermo Scientific
Instrument type: LC-ESI-QFT
Ms type: MS2
Ion mode: POSITIVE
Ionization: ESI
Fragmentation mode: HCD
Collision energy: 60 % (nominal)
Resolution: 17500
Column name: XBridge C18 3.5um, 2.1x50mm, Waters
Retention time: 17.864 min
Base peak: 329.2449
Precursor m/z: 307.2632
Precursor type: [M+H]+
m/z	relative intensity	assigned
55.0542	131	C4H7+
57.0698	19	C4H9+
65.0384	12	C5H5+
67.0542	999	C5H7+
69.0698	96	C5H9+
71.0492	7	C4H7O+
79.0542	65	C6H7+
81.0699	840	C6H9+
83.0854	47	C6H11+
85.0648	6	C5H9O+
91.0542	27	C7H7+
93.0697	62	C7H9+
95.0854	596	C7H11+
97.1011	15	C7H13+
105.0698	19	C8H9+
107.0854	38	C8H11+
109.1011	246	C8H13+
119.0857	14	C9H11+
121.1009	19	C9H13+
123.1166	56	C9H15+
131.0852	9	C10H11+
137.1327	14	C10H17+
