Mass spectrum: Galaxolidone; LC-ESI-ITFT; MS2; CE: 60%; R=7500; [M+H]+
Name: Galaxolidone
Name: 1,3,4,6,7,8-Hexahydro-4,6,6,7,8,8-hexamethylcyclopenta[g]-2-benzopyran-1-on
Formula: C18H24O2
Exact mass: 272.1776
SMILES: CC2(C)c1cc3C(=O)OCC(C)c3cc1C(C)(C)C2C
InChI: InChI=1S/C18H24O2/c1-10-9-20-16(19)13-8-15-14(7-12(10)13)17(3,4)11(2)18(15,5)6/h7-8,10-11H,9H2,1-6H3
Instrument: LTQ Orbitrap XL Thermo Scientific
Instrument type: LC-ESI-ITFT
Ms type: MS2
Ion mode: POSITIVE
Ionization: ESI
Fragmentation mode: HCD
Collision energy: 60 % (nominal)
Resolution: 7500
Column name: XBridge C18 3.5um, 2.1x50mm, Waters
Retention time: 14.7 min
Base peak: 295.1677
Precursor m/z: 273.1849
Precursor type: [M+H]+
m/z	relative intensity	assigned
129.0697	23	C10H9+
131.0858	4	C10H11+
133.1013	7	C10H13+
142.0776	6	C11H10+
143.0859	8	C11H11+
157.1012	187	C12H13+
171.117	9	C13H15+
175.1119	38	C12H15O+
185.0961	127	C13H13O+
197.1322	26	C15H17+
198.1397	7	C15H18+
203.1067	18	C13H15O2+
211.1122	9	C15H15O+
212.1558	192	C16H20+
213.1634	7	C16H21+
225.1273	247	C16H17O+
226.1348	21	C16H18O+
227.1794	128	C17H23+
240.1509	488	C17H20O+
245.1529	12	C16H21O2+
255.1742	999	C18H23O+
273.185	39	C18H25O2+
