Mass spectrum: Cloethocarb; LC-ESI-QFT; MS2; CE: 150%; R=17500; [M+H]+
Name: Cloethocarb
Name: [2-(2-chloro-1-methoxyethoxy)phenyl] N-methylcarbamate
Formula: C11H14ClNO4
Exact mass: 259.0611
SMILES: CNC(=O)OC1=CC=CC=C1OC(CCl)OC
InChI: InChI=1S/C11H14ClNO4/c1-13-11(14)17-9-6-4-3-5-8(9)16-10(7-12)15-2/h3-6,10H,7H2,1-2H3,(H,13,14)
Instrument: Exploris 240 Orbitrap Thermo Scientific
Instrument type: LC-ESI-QFT
Ms type: MS2
Ion mode: POSITIVE
Ionization: ESI
Fragmentation mode: HCD
Collision energy: 150 % (nominal)
Resolution: 17500
Column name: XBridge C18 3.5um, 2.1x50mm, Waters
Retention time: 4.885 min
Base peak: 116.0528
Precursor m/z: 260.0684
Precursor type: [M+H]+
m/z	relative intensity	assigned
50.0152	61	C4H2+
51.0229	191	C4H3+
52.0182	570	C3H2N+
53.0022	321	C3HO+
53.0386	68	C4H5+
60.984	41	C2H2Cl+
63.023	292	C5H3+
64.0183	63	C4H2N+
65.0386	132	C5H5+
66.0101	57	C4H2O+
66.0338	55	C4H4N+
72.984	604	C3H2Cl+
76.0182	300	C5H2N+
77.0022	40	C5HO+
77.0261	46	C5H3N+
77.0386	45	C6H5+
78.01	45	C5H2O+
78.0341	105	C5H4N+
78.0462	21	C6H6+
79.0179	53	C5H3O+
80.0496	208	C5H6N+
84.984	215	C4H2Cl+
85.9792	29	C3HClN+
86.9996	42	C4H4Cl+
88.9793	29	C3H2ClO+
89.0387	31	C7H5+
90.0099	27	C6H2O+
90.0337	29	C6H4N+
91.9895	25	C5O2+
96.9841	37	C5H2Cl+
97.992	17	C5H3Cl+
98.9994	96	C5H4Cl+
104.0495	25	C7H6N+
106.0286	17	C6H4NO+
107.0129	33	C6H3O2+
111.995	205	C5H3ClN+
112.9789	999	C5H2ClO+
114.0101	80	C5H5ClN+
114.9947	59	C5H4ClO+
116.9977	22	C4H4ClNO+
124.9789	30	C6H2ClO+
125.987	35	C6H3ClO+
126.011	46	C6H5ClN+
140.9739	375	C6H2ClO2+
170.0003	33	C7H5ClNO2+
