Mass spectrum: Ethofumesate; LC-ESI-ITFT; MS2; CE: 30%; R=7500; [M+H]+
Name: Ethofumesate
Name: (2-ethoxy-3,3-dimethyl-2H-1-benzofuran-5-yl) methanesulfonate
Formula: C13H18O5S
Exact mass: 286.0869
SMILES: S(=O)(=O)(C)O-c(ccc1O2)cc1C(C2OCC)(C)C
InChI: InChI=1S/C13H18O5S/c1-5-16-12-13(2,3)10-8-9(18-19(4,14)15)6-7-11(10)17-12/h6-8,12H,5H2,1-4H3
Instrument: LTQ Orbitrap XL Thermo Scientific
Instrument type: LC-ESI-ITFT
Ms type: MS2
Ion mode: POSITIVE
Ionization: ESI
Fragmentation mode: HCD
Collision energy: 30 % (nominal)
Resolution: 7500
Column name: XBridge C18 3.5um, 2.1x50mm, Waters
Retention time: 10.0 min
Base peak: 309.0774
Precursor m/z: 287.0948
Precursor type: [M+H]+
m/z	relative intensity	assigned
71.0493	3	C4H7O+
77.0384	3	C6H5+
81.0006	3	CH5O2S+
91.0542	6	C7H7+
93.07	19	C7H9+
103.0546	6	C8H7+
121.065	999	C8H9O+
133.065	17	C9H9O+
135.0808	3	C9H11O+
137.06	28	C8H9O2+
145.0651	11	C10H9O+
147.0443	3	C9H7O2+
149.0963	49	C10H13O+
161.0599	263	C10H9O2+
162.0677	50	C10H10O2+
163.0756	56	C10H11O2+
179.0704	86	C10H11O3+
180.0787	12	C10H12O3+
189.0908	4	C12H13O2+
213.0581	8	C10H13O3S+
241.0532	188	C11H13O4S+
259.0637	294	C11H15O5S+
287.0942	6	C13H19O5S+
