Mass spectrum: Cocaine; LC-ESI-ITFT; MS2; CE: 90%; R=7500; [M+H]+
Name: Cocaine
Name: (1S,3S,4R,5R)-3-benzoyloxy-8-methyl-8-azabicyclo[3.2.1]octane-4-carboxylic acid methyl ester
Formula: C17H21NO4
Exact mass: 303.1471
SMILES: CN1C2CCC1C(C(C2)OC(=O)C3=CC=CC=C3)C(=O)OC
InChI: InChI=1S/C17H21NO4/c1-18-12-8-9-13(18)15(17(20)21-2)14(10-12)22-16(19)11-6-4-3-5-7-11/h3-7,12-15H,8-10H2,1-2H3/t12-,13+,14-,15+/m0/s1
Instrument: LTQ Orbitrap XL Thermo Scientific
Instrument type: LC-ESI-ITFT
Ms type: MS2
Ion mode: POSITIVE
Ionization: ESI
Fragmentation mode: HCD
Collision energy: 90 % (nominal)
Resolution: 7500
Column name: XBridge C18 3.5um, 2.1x50mm, Waters
Retention time: 5.0 min
Base peak: 304.1557
Precursor m/z: 304.1543
Precursor type: [M+H]+
m/z	relative intensity	assigned
57.0573	14	C3H7N+
65.0386	168	C5H5+
67.0418	23	C4H5N+
67.0542	45	C5H7+
68.0495	183	C4H6N+
70.0652	50	C4H8N+
77.0386	531	C6H5+
79.0542	112	C6H7+
81.0572	13	C5H7N+
81.0699	56	C6H9+
82.0652	883	C5H8N+
83.073	193	C5H9N+
91.0542	441	C7H7+
93.0334	130	C6H5O+
93.0697	42	C7H9+
94.0651	173	C6H8N+
95.0492	65	C6H7O+
96.0807	79	C6H10N+
97.0647	79	C6H9O+
105.0335	999	C7H5O+
105.0447	166	C6H5N2+
106.0654	13	C7H8N+
107.0731	31	C7H9N+
108.0807	125	C7H10N+
109.065	16	C7H9O+
117.0573	15	C8H7N+
118.0409	28	C8H6O+
119.0491	160	C8H7O+
122.0604	15	C7H8NO+
122.0963	112	C8H12N+
123.0805	14	C8H11O+
125.0603	15	C7H9O2+
132.0809	12	C9H10N+
135.0681	37	C8H9NO+
150.0914	47	C9H12NO+
154.0863	19	C8H12NO2+
182.1178	48	C10H16NO2+
