Mass spectrum: Hydrocodone; LC-ESI-QFT; MS2; CE: 90; R=35000; [M+H]+
Name: Hydrocodone
Name: (4R,4aR,7aR,12bS)-9-methoxy-3-methyl-1,2,4,4a,5,6,7a,13-octahydro-4,12-methanobenzofuro[3,2-e]isoquinoline-7-one
Formula: C18H21NO3
Exact mass: 299.15214
SMILES: CN1CC[C@]23[C@@H]4[C@H]1CC5=C2C(=C(C=C5)OC)O[C@H]3C(=O)CC4
InChI: InChI=1S/C18H21NO3/c1-19-8-7-18-11-4-5-13(20)17(18)22-16-14(21-2)6-3-10(15(16)18)9-12(11)19/h3,6,11-12,17H,4-5,7-9H2,1-2H3/t11-,12+,17-,18-/m0/s1
Instrument: Q Exactive Orbitrap Thermo Scientific
Instrument type: LC-ESI-QFT
Ms type: MS2
Ion mode: POSITIVE
Ionization: ESI
Fragmentation mode: HCD
Collision energy: 90 (nominal)
Resolution: 35000
Column name: XBridge C18 3.5um, 2.1x50mm, Waters
Retention time: 3.2 min
Base peak: 300.1595
Precursor m/z: 300.1594
Precursor type: [M+H]+
m/z	relative intensity	assigned
55.0179	2	C3H3O+
58.0288	1	C2H4NO+
58.0652	25	C3H8N+
65.0385	4	C5H5+
67.0542	6	C5H7+
68.0496	1	C4H6N+
70.0651	4	C4H8N+
77.0384	3	C6H5+
79.0542	9	C6H7+
80.0495	2	C5H6N+
82.0651	9	C5H8N+
83.049	2	C5H7O+
84.0807	12	C5H10N+
86.06	2	C4H8NO+
91.0541	25	C7H7+
94.0411	2	C6H6O+
94.0651	10	C6H8N+
95.0491	8	C6H7O+
96.0808	3	C6H10N+
100.0758	2	C5H10NO+
102.0463	3	C8H6+
103.0542	23	C8H7+
104.0623	1	C8H8+
105.0699	6	C8H9+
106.0649	3	C7H8N+
110.06	15	C6H8NO+
114.046	2	C9H6+
115.0542	325	C9H7+
116.0619	17	C9H8+
117.0697	11	C9H9+
118.065	2	C8H8N+
120.0809	4	C8H10N+
121.0648	1	C8H9O+
122.0362	3	C7H6O2+
124.0754	2	C7H10NO+
126.046	2	C10H6+
127.054	20	C10H7+
128.062	830	C10H8+
129.0697	106	C10H9+
130.0777	3	C10H10+
131.0492	22	C9H7O+
131.0856	4	C10H11+
132.057	7	C9H8O+
133.0648	2	C9H9O+
133.0886	2	C9H11N+
134.0963	10	C9H12N+
137.0597	22	C8H9O2+
139.0543	16	C11H7+
140.0619	16	C11H8+
141.0698	718	C11H9+
142.0412	10	C10H6O+
142.0777	58	C11H10+
143.0491	21	C10H7O+
143.0856	41	C11H11+
144.057	90	C10H8O+
145.0648	56	C10H9O+
146.0363	2	C9H6O2+
146.0601	2	C9H8NO+
146.0728	3	C10H10O+
148.0757	6	C9H10NO+
151.0541	3	C12H7+
152.062	269	C12H8+
153.0698	669	C12H9+
154.0776	113	C12H10+
155.0491	103	C11H7O+
155.06	49	C10H7N2+
155.0855	108	C12H11+
156.0569	323	C11H8O+
157.0648	41	C11H9O+
157.1013	2	C12H13+
158.0726	49	C11H10O+
159.0438	13	C10H7O2+
159.0804	68	C11H11O+
160.0518	2	C10H8O2+
161.0598	22	C10H9O2+
162.0914	10	C10H12NO+
164.0621	3	C13H8+
165.0698	295	C13H9+
166.0777	33	C13H10+
167.0856	25	C13H11+
168.0569	91	C12H8O+
169.0648	151	C12H9O+
169.0754	26	C11H9N2+
170.0362	103	C11H6O2+
170.0725	171	C12H10O+
171.0803	999	C12H11O+
172.0519	24	C11H8O2+
172.0881	11	C12H12O+
173.0594	3	C11H9O2+
173.0961	7	C12H13O+
174.0672	3	C11H10O2+
175.0753	7	C11H11O2+
176.0618	3	C14H8+
177.07	8	C14H9+
178.0778	15	C14H10+
179.0602	7	C12H7N2+
179.0854	10	C14H11+
180.0567	18	C13H8O+
181.0647	221	C13H9O+
182.0726	92	C13H10O+
183.044	315	C12H7O2+
183.0804	43	C13H11O+
184.0519	144	C12H8O2+
184.0884	11	C13H12O+
185.0597	317	C12H9O2+
185.096	57	C13H13O+
186.0676	23	C12H10O2+
187.0755	23	C12H11O2+
188.0828	2	C12H12O2+
189.07	8	C15H9+
189.0906	2	C12H13O2+
190.0776	3	C15H10+
191.0853	8	C15H11+
193.0647	26	C14H9O+
193.0754	4	C13H9N2+
194.0726	29	C14H10O+
195.0804	27	C14H11O+
196.0515	7	C13H8O2+
196.0762	2	C13H10NO+
196.0881	3	C14H12O+
197.0597	62	C13H9O2+
197.0959	10	C14H13O+
198.0674	234	C13H10O2+
199.0752	625	C13H11O2+
200.0832	10	C13H12O2+
201.0789	2	C12H11NO2+
201.0907	3	C13H13O2+
202.0861	2	C12H12NO2+
207.0805	3	C15H11O+
208.052	9	C14H8O2+
208.0882	3	C15H12O+
209.0597	10	C14H9O2+
209.0958	2	C15H13O+
210.0677	20	C14H10O2+
210.0907	2	C14H12NO+
211.0754	13	C14H11O2+
212.0832	9	C14H12O2+
213.0909	67	C14H13O2+
214.0862	2	C13H12NO2+
223.0753	7	C15H11O2+
225.0912	12	C15H13O2+
226.0618	3	C14H10O3+
226.0857	2	C14H12NO2+
227.0704	2	C14H11O3+
228.0782	3	C14H12O3+
228.1017	10	C14H14NO2+
240.1018	3	C15H14NO2+
241.0855	16	C15H13O3+
256.133	1	C16H18NO2+
