Mass spectrum: Ranitidine; LC-ESI-ITFT; MS2; CE: 75%; R=7500; [M+H]+
Name: Ranitidine
Name: 1,1-Ethenediamine, N-(2-(((5-((dimethylamino)methyl)-2-furanyl)methyl)thio)ethyl)-N'-methyl-2-nitro-
Name: 1-N'-[2-[[5-(dimethylaminomethyl)furan-2-yl]methylsulfanyl]ethyl]-1-N-methyl-2-nitroethene-1,1-diamine
Formula: C13H22N4O3S
Exact mass: 314.1413
SMILES: CN\C(NCCSCC1=CC=C(CN(C)C)O1)=C/[N+]([O-])=O
InChI: InChI=1S/C13H22N4O3S/c1-14-13(9-17(18)19)15-6-7-21-10-12-5-4-11(20-12)8-16(2)3/h4-5,9,14-15H,6-8,10H2,1-3H3/b13-9+
Instrument: LTQ Orbitrap XL Thermo Scientific
Instrument type: LC-ESI-ITFT
Ms type: MS2
Ion mode: POSITIVE
Ionization: ESI
Fragmentation mode: HCD
Collision energy: 75 % (nominal)
Resolution: 7500
Column name: XBridge C18 3.5um, 2.1x50mm, Waters
Retention time: 1.9 min
Base peak: 315.1494
Precursor m/z: 315.1485
Precursor type: [M+H]+
m/z	relative intensity	assigned
55.0416	24	C3H5N+
56.0493	29	C3H6N+
57.0447	10	C2H5N2+
58.0651	15	C3H8N+
60.003	8	C2H4S+
61.0106	29	C2H5S+
68.0494	16	C4H6N+
71.0605	11	C3H7N2+
79.0544	12	C6H7+
81.0335	448	C5H5O+
82.0649	20	C5H8N+
83.0604	42	C4H7N2+
84.0681	27	C4H8N2+
88.0215	19	C3H6NS+
91.0539	14	C7H7+
94.0413	10	C6H6O+
94.0653	29	C6H8N+
95.0492	43	C6H7O+
95.0727	10	C6H9N+
97.076	379	C5H9N2+
98.0838	173	C5H10N2+
101.0292	15	C4H7NS+
102.0372	999	C4H8NS+
106.0653	15	C7H8N+
107.0491	142	C7H7O+
108.0573	10	C7H8O+
108.0808	19	C7H10N+
109.0761	9	C6H9N2+
110.0598	28	C6H8NO+
110.0964	91	C7H12N+
115.0322	10	C4H7N2S+
117.0482	40	C4H9N2S+
118.0651	18	C8H8N+
120.0812	12	C8H10N+
121.076	112	C7H9N2+
122.0601	14	C7H8NO+
124.0756	28	C7H10NO+
125.0055	714	C6H5OS+
129.0482	44	C5H9N2S+
130.0558	182	C5H10N2S+
133.0521	53	C8H7NO+
134.0592	12	H12N3O3S+
135.0262	19	C8H7S+
135.0917	130	C8H11N2+
136.0757	9	C8H10NO+
147.0682	21	C9H9NO+
147.091	14	C9H11N2+
148.0756	215	C9H10NO+
149.0707	48	C8H9N2O+
151.0215	23	C8H7OS+
159.0453	15	C5H9N3OS+
163.0864	61	C9H11N2O+
165.1023	42	C9H13N2O+
167.063	22	C8H11N2S+
177.1021	96	C10H13N2O+
178.0322	36	C9H8NOS+
181.08	21	C9H13N2S+
191.1178	30	C11H15N2O+
192.0475	27	C10H10NOS+
252.0823	6	C13H16O3S+
