Mass spectrum: Lincomycin; LC-ESI-QFT; MS2; CE: 30; R=35000; [M-H]-
Name: Lincomycin
Name: N-[2-hydroxy-1-(3,4,5-trihydroxy-6-methylsulfanyloxan-2-yl)propyl]-1-methyl-4-propylpyrrolidine-2-carboxamide
Formula: C18H34N2O6S
Exact mass: 406.21376
SMILES: CCCC1CC(N(C1)C)C(=O)NC(C2C(C(C(C(O2)SC)O)O)O)C(C)O
InChI: InChI=1S/C18H34N2O6S/c1-5-6-10-7-11(20(3)8-10)17(25)19-12(9(2)21)16-14(23)13(22)15(24)18(26-16)27-4/h9-16,18,21-24H,5-8H2,1-4H3,(H,19,25)
Instrument: Q Exactive Plus Orbitrap Thermo Scientific
Instrument type: LC-ESI-QFT
Ms type: MS2
Ion mode: NEGATIVE
Ionization: ESI
Fragmentation mode: HCD
Collision energy: 30 (nominal)
Resolution: 35000
Column name: XBridge C18 3.5um, 2.1x50mm, Waters
Retention time: 3.7 min
Base peak: 451.2115
Precursor m/z: 405.2065
Precursor type: [M-H]-
m/z	relative intensity	assigned
55.0188	4	C3H3O-
57.0345	7	C3H5O-
58.006	1	C2H2O2-
59.0138	111	C2H3O2-
67.0189	3	C4H3O-
68.9982	14	C3HO2-
69.0346	16	C4H5O-
71.0139	743	C3H3O2-
72.9932	11	C2HO3-
73.0296	11	C3H5O2-
75.0088	5	C2H3O3-
79.0189	2	C5H3O-
80.0506	11	C5H6N-
81.0345	97	C5H5O-
83.0138	18	C4H3O2-
83.0502	174	C5H7O-
85.0295	256	C4H5O2-
87.0087	40	C3H3O3-
89.0244	135	C3H5O3-
94.0298	1	C5H4NO-
95.0138	21	C5H3O2-
95.0502	3	C6H7O-
96.0216	6	C5H4O2-
97.0294	100	C5H5O2-
99.0451	161	C5H7O2-
100.0403	1	C4H6NO2-
101.0243	11	C4H5O3-
101.978	8	C3H2O2S-
107.0139	2	C6H3O2-
107.0375	1	C6H5NO-
107.0502	7	C7H7O-
108.0216	11	C6H4O2-
108.0454	1	C6H6NO-
109.017	11	C5H3NO2-
109.0294	232	C6H5O2-
110.0248	4	C5H4NO2-
111.0086	4	C5H3O3-
111.0451	84	C6H7O2-
113.0244	35	C5H5O3-
115.0401	175	C5H7O3-
117.0015	64	C4H5O2S-
123.0452	7	C7H7O2-
124.0403	34	C6H6NO2-
125.0243	39	C6H5O3-
126.056	3	C6H8NO2-
127.04	809	C6H7O3-
129.0556	18	C6H9O3-
134.0247	1	C7H4NO2-
137.0067	2	C7H5OS-
139.0401	2	C7H7O3-
143.0347	1	C6H7O4-
151.0274	6	C7H5NO3-
151.04	24	C8H7O3-
153.0431	7	C7H7NO3-
154.0334	1	C7H8NOS-
169.1346	999	C9H17N2O-
170.1186	305	C9H16NO2-
195.1501	6	C11H19N2O-
197.1294	21	C10H17N2O2-
207.1501	8	C12H19N2O-
209.1295	3	C11H17N2O2-
209.1659	42	C12H21N2O-
211.1452	24	C11H19N2O2-
212.129	3	C11H18NO3-
223.1452	70	C12H19N2O2-
223.1814	7	C13H23N2O-
225.1245	16	C11H17N2O3-
225.1608	61	C12H21N2O2-
233.1658	27	C14H21N2O-
235.1452	53	C13H19N2O2-
237.1608	120	C13H21N2O2-
239.1404	3	C12H19N2O3-
239.1765	23	C13H23N2O2-
241.1557	107	C12H21N2O3-
249.1608	19	C14H21N2O2-
251.1765	7	C14H23N2O2-
253.1557	242	C13H21N2O3-
259.145	143	C15H19N2O2-
260.1529	2	C15H20N2O2-
261.1606	17	C15H21N2O2-
263.176	10	C15H23N2O2-
264.1478	2	C14H20N2O3-
265.1556	46	C14H21N2O3-
267.1713	90	C14H23N2O3-
273.161	2	C16H21N2O2-
277.1556	292	C15H21N2O3-
279.1712	15	C15H23N2O3-
281.1871	8	C15H25N2O3-
292.125	19	C15H20N2O2S-
295.1661	12	C15H23N2O4-
297.1817	43	C15H25N2O4-
307.1485	32	C16H23N2O2S-
310.1358	13	C15H22N2O3S-
321.1821	2	C17H25N2O4-
325.159	156	C16H25N2O3S-
339.1922	2	C17H27N2O5-
343.1696	15	C16H27N2O4S-
357.2027	3	C17H29N2O6-
361.1805	1	C16H29N2O5S-
405.2064	302	C18H33N2O6S-
