Mass spectrum: Atenolol-desisopropyl; LC-ESI-ITFT; MS2; CE: 45%; R=15000; [M+H]+
Name: Atenolol-desisopropyl
Name: 4-(3-Amino-2-hydroxypropoxy)phenylacetamide
Formula: C11H16N2O3
Exact mass: 224.1161
SMILES: c1cc(ccc1CC(=O)N)OCC(CN)O
InChI: InChI=1S/C11H16N2O3/c12-6-9(14)7-16-10-3-1-8(2-4-10)5-11(13)15/h1-4,9,14H,5-7,12H2,(H2,13,15)
Instrument: LTQ Orbitrap XL Thermo Scientific
Instrument type: LC-ESI-ITFT
Ms type: MS2
Ion mode: POSITIVE
Ionization: ESI
Fragmentation mode: HCD
Collision energy: 45 % (nominal)
Resolution: 15000
Column name: XBridge C18 3.5um, 2.1x50mm, Waters
Retention time: 1.0 min
Base peak: 225.124
Precursor m/z: 225.1234
Precursor type: [M+H]+
m/z	relative intensity	assigned
56.0495	179	C3H6N+
74.0601	946	C3H8NO+
91.0542	20	C7H7+
93.07	17	C7H9+
105.0699	18	C8H9+
107.0492	35	C7H7O+
117.0697	12	C9H9+
119.0492	36	C8H7O+
121.0649	81	C8H9O+
122.0601	17	C7H8NO+
133.0648	272	C9H9O+
134.0599	7	C8H8NO+
145.0649	999	C10H9O+
147.0442	69	C9H7O2+
147.0809	6	C10H11O+
152.0707	47	C8H10NO2+
161.0597	21	C10H9O2+
162.0664	17	C8H8N3O+
162.0914	186	C10H12NO+
163.0753	29	C10H11O2+
164.0707	190	C9H10NO2+
173.0598	176	C11H9O2+
178.0864	699	C10H12NO2+
180.1022	22	C10H14NO2+
182.0814	18	C9H12NO3+
190.0864	979	C11H12NO2+
208.0969	467	C11H14NO3+
225.1234	540	C11H17N2O3+
