Mass spectrum: Terbuthylazine-TP CSAA036479 (LM2); LC-ESI-QFT; MS2; CE: 30%; R=17500; [M-H]-
Name: Terbuthylazine-TP CSAA036479 (LM2)
Name: 2-[(6-amino-4-oxo-1H-1,3,5-triazin-2-yl)amino]-2-methylpropanoic acid
Formula: C7H11N5O3
Exact mass: 213.0862
SMILES: CC(C)(NC1=NC(N)=NC(O)=N1)C(O)=O
InChI: InChI=1S/C7H11N5O3/c1-7(2,3(13)14)12-5-9-4(8)10-6(15)11-5/h1-2H3,(H,13,14)(H4,8,9,10,11,12,15)
Instrument: Q Exactive Plus Orbitrap Thermo Scientific
Instrument type: LC-ESI-QFT
Ms type: MS2
Ion mode: NEGATIVE
Ionization: ESI
Fragmentation mode: HCD
Collision energy: 30 % (nominal)
Resolution: 17500
Column name: XBridge C18 3.5um, 2.1x50mm, Waters
Retention time: 1.332 min
Base peak: 212.0789
Precursor m/z: 212.0789
Precursor type: [M-H]-
m/z	relative intensity	assigned
66.0098	4	C2N3-
83.0364	28	C2H3N4-
83.0615	96	C4H7N2-
84.0203	38	C2H2N3O-
125.0833	493	C5H9N4-
126.0421	135	C3H4N5O-
126.0672	3	
127.0514	17	C5H7N2O2-
152.0465	4	C6H6N3O2-
168.0891	999	C6H10N5O-
169.073	12	C6H9N4O2-
169.0927	4	
194.0683	6	C7H8N5O2-
212.079	188	C7H10N5O3-
