Mass spectrum: Chloralose; LC-ESI-QFT; MS2; CE: 90%; R=17500; [M+H]+
Name: Chloralose
Name: Glucochloralose
Name: 1-[6-hydroxy-2-(trichloromethyl)-3a,5,6,6a-tetrahydrofuro[2,3-d][1,3]dioxol-5-yl]ethane-1,2-diol
Formula: C8H11Cl3O6
Exact mass: 307.9621
SMILES: C(C(C1C(C2C(O1)OC(O2)C(Cl)(Cl)Cl)O)O)O
InChI: InChI=1S/C8H11Cl3O6/c9-8(10,11)7-16-5-3(14)4(2(13)1-12)15-6(5)17-7/h2-7,12-14H,1H2
Instrument: Exploris 240 Orbitrap Thermo Scientific
Instrument type: LC-ESI-QFT
Ms type: MS2
Ion mode: POSITIVE
Ionization: ESI
Fragmentation mode: HCD
Collision energy: 90 % (nominal)
Resolution: 17500
Column name: XBridge C18 3.5um, 2.1x50mm, Waters
Retention time: 4.863 min
Base peak: 308.9692
Precursor m/z: 308.9694
Precursor type: [M+H]+
m/z	relative intensity	assigned
53.0386	678	C4H5+
55.0178	183	C3H3O+
57.0335	438	C3H5O+
61.0283	132	C2H5O2+
69.0334	999	C4H5O+
71.0127	194	C3H3O2+
71.0491	45	C4H7O+
72.9839	64	C3H2Cl+
73.0283	159	C3H5O2+
74.9996	102	C3H4Cl+
81.0335	633	C5H5O+
82.9449	429	CHCl2+
84.021	43	C4H4O2+
85.0283	372	C4H5O2+
97.0283	180	C5H5O2+
116.9059	30	CCl3+
