Mass spectrum: D617; LC-ESI-ITFT; MS2; CE: 45%; R=15000; [M+H]+
Name: D617
Name: Verapamil metabolite D617
Name: 2-(3,4-dimethoxyphenyl)-2-isopropyl-5-(methylamino)valeronitrile
Formula: C17H26N2O2
Exact mass: 290.1994
SMILES: CC(C)C(CCCNC)(C#N)C1=CC(=C(C=C1)OC)OC
InChI: InChI=1S/C17H26N2O2/c1-13(2)17(12-18,9-6-10-19-3)14-7-8-15(20-4)16(11-14)21-5/h7-8,11,13,19H,6,9-10H2,1-5H3
Instrument: LTQ Orbitrap XL Thermo Scientific
Instrument type: LC-ESI-ITFT
Ms type: MS2
Ion mode: POSITIVE
Ionization: ESI
Fragmentation mode: HCD
Collision energy: 45 % (nominal)
Resolution: 15000
Column name: XBridge C18 3.5um, 2.1x50mm, Waters
Retention time: 6.3 min
Base peak: 291.2077
Precursor m/z: 291.2067
Precursor type: [M+H]+
m/z	relative intensity	assigned
57.0574	13	C3H7N+
70.0652	151	C4H8N+
72.0808	14	C4H10N+
79.0542	11	C6H7+
80.0496	13	C5H6N+
81.0701	13	C6H9+
84.0807	13	C5H10N+
94.0651	24	C6H8N+
95.0856	59	C7H11+
96.0808	139	C6H10N+
105.0699	37	C8H9+
108.0807	13	C7H10N+
110.0965	46	C7H12N+
121.0646	18	C8H9O+
122.0965	248	C8H12N+
124.0519	48	C7H8O2+
126.1277	22	C8H16N+
136.0519	137	C8H8O2+
137.0596	76	C8H9O2+
138.0675	133	C8H10O2+
139.0754	96	C8H11O2+
146.0726	20	C10H10O+
150.0677	60	C9H10O2+
151.0754	831	C9H11O2+
153.1387	65	C9H17N2+
159.0805	19	C11H11O+
162.0674	11	C10H10O2+
163.0753	29	C10H11O2+
164.0831	35	C10H12O2+
165.091	492	C10H13O2+
176.0711	16	C10H10NO2+
176.0838	10	C11H12O2+
177.091	676	C11H13O2+
178.0997	11	C11H14O2+
179.1066	55	C11H15O2+
186.0916	20	C12H12NO+
187.0991	61	C12H13NO+
190.0862	29	C11H12NO2+
191.1067	70	C12H15O2+
192.1145	20	C12H16O2+
193.1223	36	C12H17O2+
201.0906	16	C13H13O2+
202.0865	63	C12H12NO2+
203.0943	59	C12H13NO2+
203.1066	18	C13H15O2+
204.1028	22	C12H14NO2+
212.1196	32	C15H16O+
214.1233	18	C14H16NO+
215.1077	10	C14H15O2+
216.1021	15	C13H14NO2+
217.1097	132	C13H15NO2+
217.1233	15	C14H17O2+
218.1176	253	C13H16NO2+
220.1331	21	C13H18NO2+
228.1147	26	C15H16O2+
229.1464	16	C15H19NO+
230.117	12	C14H16NO2+
232.1334	15	C14H18NO2+
233.1287	135	C13H17N2O2+
233.1536	126	C15H21O2+
243.138	134	C16H19O2+
244.1326	11	C15H18NO2+
245.1412	114	C15H19NO2+
247.1442	46	C14H19N2O2+
248.1519	645	C14H20N2O2+
249.1592	23	C14H21N2O2+
260.1644	946	C16H22NO2+
264.196	94	C16H26NO2+
291.2068	999	C17H27N2O2+
