Mass spectrum: Ciprofloxacin; LC-ESI-ITFT; MS2; CE: 90%; R=7500; [M+H]+
Name: Ciprofloxacin
Name: 1-cyclopropyl-6-fluoro-4-keto-7-piperazin-4-ium-1-yl-quinoline-3-carboxylate
Formula: C17H18FN3O3
Exact mass: 331.1332
SMILES: C(C1)C1N(C=C(C-2=O)C(=O)O)-c(cc(c3F)N(CCN4)CC4)c2c3
InChI: InChI=1S/C17H18FN3O3/c18-13-7-11-14(8-15(13)20-5-3-19-4-6-20)21(10-1-2-10)9-12(16(11)22)17(23)24/h7-10,19H,1-6H2,(H,23,24)
Instrument: LTQ Orbitrap XL Thermo Scientific
Instrument type: LC-ESI-ITFT
Ms type: MS2
Ion mode: POSITIVE
Ionization: ESI
Fragmentation mode: HCD
Collision energy: 90 % (nominal)
Resolution: 7500
Column name: XBridge C18 3.5um, 2.1x50mm, Waters
Retention time: 4.5 min
Base peak: 332.1415
Precursor m/z: 332.1405
Precursor type: [M+H]+
m/z	relative intensity	assigned
56.0495	2	C3H6N+
58.0652	1	C3H8N+
65.0387	1	C5H5+
70.0653	5	C4H8N+
89.0387	4	C7H5+
109.0449	14	C7H6F+
110.0403	1	C6H5FN+
115.0543	6	C9H7+
116.0496	21	C8H6N+
117.0572	4	C8H7N+
121.0449	2	C8H6F+
122.0401	4	C7H5FN+
124.0558	3	C7H7FN+
128.0496	9	C9H6N+
128.0625	5	C10H8+
129.0568	1	C9H7N+
130.0652	7	C9H8N+
131.0602	3	C8H7N2+
132.0243	3	C8H3FN+
133.0449	4	C9H6F+
134.0401	15	C8H5FN+
134.0597	4	C8H8NO+
135.0479	31	C8H6FN+
136.0558	34	C8H7FN+
137.0641	3	C8H8FN+
141.0572	4	C10H7N+
142.0658	5	C10H8N+
143.0602	6	C9H7N2+
144.0446	2	C9H6NO+
144.0557	5	C8H6N3+
146.0401	4	C9H5FN+
146.0533	1	C10H7F+
147.0484	5	C9H6FN+
147.061	2	C10H8F+
148.0558	95	C9H7FN+
149.0513	4	C8H6FN2+
150.035	2	C8H5FNO+
150.0595	1	C8H7FN2+
151.0434	2	C8H6FNO+
151.0673	3	C8H8FN2+
152.0504	5	C8H7FNO+
154.0653	18	C11H8N+
155.0605	38	C10H7N2+
156.0445	2	C10H6NO+
156.0683	17	C10H8N2+
156.0802	3	C11H10N+
157.0757	3	C10H9N2+
158.06	1	C10H8NO+
160.0562	4	C10H7FN+
161.0273	11	C9H4FNO+
161.0512	10	C9H6FN2+
162.0352	34	C9H5FNO+
162.0587	6	C9H7FN2+
162.0718	6	C10H9FN+
163.0429	6	C9H6FNO+
163.0667	19	C9H8FN2+
164.051	7	C9H7FNO+
167.0607	2	C11H7N2+
167.0734	1	C12H9N+
168.0681	4	C11H8N2+
169.0533	3	C8H8FNO2+
169.0763	16	C11H9N2+
170.0601	2	C11H8NO+
172.0558	14	C11H7FN+
173.0501	4	C10H6FN2+
173.0636	10	C11H8FN+
174.0347	7	C10H5FNO+
174.0587	25	C10H7FN2+
174.0716	23	C11H9FN+
175.03	7	C9H4FN2O+
175.0436	3	C10H6FNO+
175.0668	49	C10H8FN2+
176.0508	11	C10H7FNO+
176.0745	40	C10H9FN2+
177.0459	2	C9H6FN2O+
178.0543	6	C9H7FN2O+
179.0613	9	C9H8FN2O+
180.0454	10	C9H7FNO2+
181.0762	5	C12H9N2+
182.0838	7	C12H10N2+
183.0555	4	C11H7N2O+
184.0634	7	C11H8N2O+
185.0717	10	C11H9N2O+
186.0352	2	C11H5FNO+
187.0301	6	C10H4FN2O+
187.0667	26	C11H8FN2+
188.0146	5	C10H3FNO2+
188.0382	59	C10H5FN2O+
188.0744	4	C11H9FN2+
189.046	79	C10H6FN2O+
189.0825	13	C11H10FN2+
191.0616	24	C10H8FN2O+
195.0321	2	C9H6FNO3+
195.0916	3	C13H11N2+
197.0703	3	C12H9N2O+
198.0653	1	C11H8N3O+
199.0661	2	C12H8FN2+
200.0512	4	C12H7FNO+
200.0745	3	C12H9FN2+
201.0824	18	C12H10FN2+
202.0295	3	C11H5FNO2+
202.0657	14	C12H9FNO+
202.0909	3	C12H11FN2+
203.0617	209	C11H8FN2O+
204.0697	12	C11H9FN2O+
205.0773	36	C11H10FN2O+
209.0706	3	C13H9N2O+
215.0254	11	C11H4FN2O2+
215.0616	12	C12H8FN2O+
215.0977	9	C13H12FN2+
216.0331	18	C11H5FN2O2+
216.0701	5	C12H9FN2O+
217.0412	6	C11H6FN2O2+
218.0484	6	C11H7FN2O2+
224.0464	6	C9H7FN3O3+
224.0828	1	C10H11FN3O2+
226.0996	1	C10H13FN3O2+
229.0402	3	C15H5N2O+
229.0774	15	C13H10FN2O+
231.0567	999	C12H8FN2O2+
238.0977	2	C14H12N3O+
249.0673	12	C12H10FN2O3+
252.0765	1	C14H10N3O2+
257.0718	3	C14H10FN2O2+
