Mass spectrum: Mesosulfuron-methyl; LC-ESI-QFT; MS2; CE: 45; R=35000; [M-H]-
Name: Mesosulfuron-methyl
Name: 2-[(4,6-dimethoxypyrimidin-2-yl)carbamoylsulfamoyl]-4-(methanesulfonamidomethyl)benzoic acid methyl ester
Formula: C17H21N5O9S2
Exact mass: 503.07807
SMILES: O=C(Nc1nc(cc(OC)n1)OC)NS(=O)(=O)c2cc(CNS(C)(=O)=O)ccc2C(=O)OC
InChI: InChI=1S/C17H21N5O9S2/c1-29-13-8-14(30-2)20-16(19-13)21-17(24)22-33(27,28)12-7-10(9-18-32(4,25)26)5-6-11(12)15(23)31-3/h5-8,18H,9H2,1-4H3,(H2,19,20,21,22,24)
Instrument: Q Exactive Orbitrap Thermo Scientific
Instrument type: LC-ESI-QFT
Ms type: MS2
Ion mode: NEGATIVE
Ionization: ESI
Fragmentation mode: HCD
Collision energy: 45 (nominal)
Resolution: 35000
Column name: XBridge C18 3.5um, 2.1x50mm, Waters
Retention time: 8.9 min
Base peak: 502.0713
Precursor m/z: 502.0708
Precursor type: [M-H]-
m/z	relative intensity	assigned
61.9705	46	NOS-
63.9624	108	O2S-
65.0144	29	C3HN2-
65.9985	15	C3NO-
78.9859	286	CH3O2S-
82.0173	1	C3H2N2O-
90.0097	4	C4N3-
92.0504	3	C6H6N-
93.9968	24	CH4NO2S-
97.0408	4	C4H5N2O-
102.0348	3	C7H4N-
105.9604	105	CNO3S-
107.0125	15	C4HN3O-
120.0456	1	C7H6NO-
122.036	40	C5H4N3O-
124.0515	9	C5H6N3O-
132.0453	1	C8H6NO-
139.0387	27	C5H5N3O2-
145.0408	12	C8H5N2O-
148.0405	1	C8H6NO2-
154.0622	270	C6H8N3O2-
159.0324	5	C9H5NO2-
160.0405	3	C9H6NO2-
176.0352	7	C9H6NO3-
180.9838	4	C7H3NO3S-
181.9919	1	C7H4NO3S-
182.0282	8	C8H8NO2S-
204.0303	14	C10H6NO4-
209.0027	54	C8H5N2O3S-
210.0104	13	C8H6N2O3S-
211.0183	10	C8H7N2O3S-
236.9974	5	C9H5N2O4S-
239.9973	678	C9H6NO5S-
264.9927	69	C10H5N2O5S-
267.0082	999	C10H7N2O5S-
269.0236	23	C10H9N2O5S-
288.9959	403	C9H9N2O5S2-
