Mass spectrum: Imazamox; LC-ESI-ITFT; MS2; CE: 60%; R=7500; [M+H]+
Name: Imazamox
Name: 2-(4-isopropyl-5-keto-4-methyl-2-imidazolin-2-yl)-5-(methoxymethyl)nicotinic acid
Formula: C15H19N3O4
Exact mass: 305.1376
SMILES: O=C(O)c1c(ncc(c1)COC)/C2=N/C(C(=O)N2)(C(C)C)C
InChI: InChI=1S/C15H19N3O4/c1-8(2)15(3)14(21)17-12(18-15)11-10(13(19)20)5-9(6-16-11)7-22-4/h5-6,8H,7H2,1-4H3,(H,19,20)(H,17,18,21)
Instrument: LTQ Orbitrap XL Thermo Scientific
Instrument type: LC-ESI-ITFT
Ms type: MS2
Ion mode: POSITIVE
Ionization: ESI
Fragmentation mode: HCD
Collision energy: 60 % (nominal)
Resolution: 7500
Column name: XBridge C18 3.5um, 2.1x50mm, Waters
Retention time: 5.7 min
Base peak: 306.1456
Precursor m/z: 306.1448
Precursor type: [M+H]+
m/z	relative intensity	assigned
58.0653	7	C3H8N+
67.0542	12	C5H7+
69.0699	317	C5H9+
84.0806	4	C5H10N+
86.0965	890	C5H12N+
94.0652	3	C6H8N+
97.0647	22	C6H9O+
109.0649	6	C7H9O+
119.0608	7	C7H7N2+
120.0448	5	C7H6NO+
122.0601	17	C7H8NO+
140.0702	4	C7H10NO2+
145.0398	25	C8H5N2O+
147.0547	7	C8H7N2O+
148.0632	28	C8H8N2O+
149.0709	133	C8H9N2O+
150.055	5	C8H8NO2+
159.0548	9	C9H7N2O+
160.0506	7	C8H6N3O+
161.0581	13	C8H7N3O+
161.0709	26	C9H9N2O+
162.0427	14	C8H6N2O2+
162.066	7	C8H8N3O+
163.0502	472	C8H7N2O2+
168.065	6	C8H10NO3+
175.0503	133	C9H7N2O2+
177.0658	51	C9H9N2O2+
177.1023	9	C10H13N2O+
180.0655	6	C9H10NO3+
187.0736	12	C10H9N3O+
191.0815	279	C10H11N2O2+
192.0768	345	C9H10N3O2+
193.0608	999	C9H9N2O3+
212.0942	7	C13H12N2O+
213.1016	6	C13H13N2O+
215.069	25	C11H9N3O2+
216.0771	23	C11H10N3O2+
217.0845	28	C11H11N3O2+
217.1334	43	C13H17N2O+
218.0924	642	C11H12N3O2+
219.1125	52	C12H15N2O2+
220.1071	21	C11H14N3O2+
221.0919	11	C11H13N2O3+
228.0896	3	C13H12N2O2+
235.0951	56	C11H13N3O3+
243.1127	121	C14H15N2O2+
245.0794	48	C12H11N3O3+
246.0874	678	C12H12N3O3+
260.1394	57	C14H18N3O2+
261.1235	204	C14H17N2O3+
263.09	21	C12H13N3O4+
264.0977	65	C12H14N3O4+
