Mass spectrum: Resveratrol; LC-ESI-QFT; MS2; CE: 90; R=35000; [M+H]+
Name: Resveratrol
Name: 5-[(E)-2-(4-hydroxyphenyl)ethenyl]benzene-1,3-diol
Formula: C14H12O3
Exact mass: 228.07864
SMILES: Oc2cc(\C=C\c1ccc(O)cc1)cc(O)c2
InChI: InChI=1S/C14H12O3/c15-12-5-3-10(4-6-12)1-2-11-7-13(16)9-14(17)8-11/h1-9,15-17H/b2-1+
Instrument: Q Exactive Orbitrap Thermo Scientific
Instrument type: LC-ESI-QFT
Ms type: MS2
Ion mode: POSITIVE
Ionization: ESI
Fragmentation mode: HCD
Collision energy: 90 (nominal)
Resolution: 35000
Column name: XBridge C18 3.5um, 2.1x50mm, Waters
Retention time: 6.1 min
Base peak: 229.086
Precursor m/z: 229.0859
Precursor type: [M+H]+
m/z	relative intensity	assigned
50.0153	2	C4H2+
51.0229	2	C4H3+
53.0387	5	C4H5+
55.0179	2	C3H3O+
63.023	7	C5H3+
65.0386	197	C5H5+
66.0464	3	C5H6+
67.0178	1	C4H3O+
67.0542	23	C5H7+
68.9971	124	C3HO2+
71.0127	3	C3H3O2+
77.0385	47	C6H5+
78.0463	6	C6H6+
79.0542	211	C6H7+
80.062	3	C6H8+
81.0335	83	C5H5O+
83.0492	1	C5H7O+
89.0386	28	C7H5+
90.0465	2	C7H6+
91.0542	689	C7H7+
92.062	17	C7H8+
93.0333	1	C6H5O+
93.0699	1	C7H9+
94.0412	22	C6H6O+
95.0491	506	C6H7O+
103.0542	27	C8H7+
104.0617	1	C8H8+
105.0336	10	C7H5O+
105.0447	74	C6H5N2+
105.0699	17	C8H9+
107.0491	999	C7H7O+
109.0284	17	C6H5O2+
110.0361	11	C6H6O2+
111.0441	30	C6H7O2+
115.0542	190	C9H7+
116.062	22	C9H8+
117.0331	1	C8H5O+
117.0698	17	C9H9+
118.0412	20	C8H6O+
119.0491	99	C8H7O+
120.057	147	C8H8O+
121.0284	79	C7H5O2+
121.0396	10	C6H5N2O+
123.044	26	C7H7O2+
126.0461	1	C10H6+
127.0541	16	C10H7+
128.062	80	C10H8+
129.0699	55	C10H9+
131.0492	43	C9H7O+
131.0855	2	C10H11+
132.0572	2	C9H8O+
133.0648	3	C9H9O+
135.0442	18	C8H7O2+
136.0518	17	C8H8O2+
139.0541	46	C11H7+
140.0618	24	C11H8+
141.0697	61	C11H9+
144.0571	34	C10H8O+
145.0648	61	C10H9O+
147.044	3	C9H7O2+
152.062	95	C12H8+
153.0699	173	C12H9+
154.0777	49	C12H10+
155.0491	2	C11H7O+
155.0603	28	C10H7N2+
155.0854	29	C12H11+
157.0647	24	C11H9O+
158.0727	6	C11H10O+
159.0804	1	C11H11O+
160.0518	1	C10H8O2+
161.0595	1	C10H9O2+
163.054	16	C13H7+
164.0619	48	C13H8+
165.0698	580	C13H9+
166.0776	8	C13H10+
168.0569	93	C12H8O+
169.0646	23	C12H9O+
171.0437	2	C11H7O2+
171.0552	2	C10H7N2O+
171.0798	2	C12H11O+
173.0597	2	C11H9O2+
176.0618	1	C14H8+
179.06	2	C12H7N2+
181.0647	149	C13H9O+
182.0729	34	C13H10O+
183.0805	17	C13H11O+
185.0599	7	C12H9O2+
192.057	6	C14H8O+
193.0646	5	C14H9O+
193.0761	2	C13H9N2+
194.0725	18	C14H10O+
196.0519	14	C13H8O2+
197.0593	14	C13H9O2+
199.0754	2	C13H11O2+
210.0676	27	C14H10O2+
211.0752	8	C14H11O2+
213.0545	3	C13H9O3+
