Mass spectrum: Difloxacin; LC-ESI-QFT; MS2; CE: 30; R=35000; [M+H]+
Name: Difloxacin
Name: 6-fluoro-1-(4-fluorophenyl)-7-(4-methylpiperazin-1-yl)-4-oxoquinoline-3-carboxylic acid
Name: 6-fluoro-1-(4-fluorophenyl)-7-(4-methylpiperazin-4-ium-1-yl)-4-oxoquinoline-3-carboxylate
Formula: C21H19F2N3O3
Exact mass: 399.1394479
SMILES: CN1CCN(CC1)C2=C(C=C3C(=C2)N(C=C(C3=O)C(=O)O)C4=CC=C(C=C4)F)F
InChI: InChI=1S/C21H19F2N3O3/c1-24-6-8-25(9-7-24)19-11-18-15(10-17(19)23)20(27)16(21(28)29)12-26(18)14-4-2-13(22)3-5-14/h2-5,10-12H,6-9H2,1H3,(H,28,29)
Instrument: Q Exactive Plus Orbitrap Thermo Scientific
Instrument type: LC-ESI-QFT
Ms type: MS2
Ion mode: POSITIVE
Ionization: ESI
Fragmentation mode: HCD
Collision energy: 30 (nominal)
Resolution: 35000
Column name: XBridge C18 3.5um, 2.1x50mm, Waters
Retention time: 4.5 min
Base peak: 400.1461
Precursor m/z: 400.1467
Precursor type: [M+H]+
m/z	relative intensity	assigned
58.0652	24	C3H8N+
70.0651	6	C4H8N+
72.0808	6	C4H10N+
84.0808	5	C5H10N+
85.0885	1	C5H11N+
258.0723	2	C15H10F2NO+
273.083	2	C15H11F2N2O+
281.0888	1	C17H11F2N2+
285.0835	22	C16H11F2N2O+
293.1083	1	C15H15F2N2O2+
299.0993	287	C17H13F2N2O+
306.1399	1	C19H17FN3+
308.1198	3	C18H15FN3O+
311.0984	3	C18H13F2N2O+
313.1149	4	C18H15F2N2O+
325.1152	1	C19H15F2N2O+
327.1178	1	C18H15F2N3O+
336.1509	13	C20H19FN3O+
339.1185	1	C19H15F2N3O+
354.1414	40	C20H18F2N3O+
356.1571	999	C20H20F2N3O+
362.1298	2	C21H17FN3O2+
380.1408	1	C21H19FN3O3+
382.1364	571	C21H18F2N3O2+
400.1469	979	C21H20F2N3O3+
401.1501	1	C19H20FN5O4+
402.1501	1	C20H20F2N4O3+
