Mass spectrum: 2-Toluenesulfonamide; LC-ESI-QFT; MS2; CE: 60; R=35000; [M-H]-
Name: 2-Toluenesulfonamide
Name: o-Toluenesulfonamide
Name: 2-methylbenzenesulfonamide
Formula: C7H9NO2S
Exact mass: 171.03540
SMILES: CC1=CC=CC=C1S(=O)(=O)N
InChI: InChI=1S/C7H9NO2S/c1-6-4-2-3-5-7(6)11(8,9)10/h2-5H,1H3,(H2,8,9,10)
Instrument: Q Exactive Plus Orbitrap Thermo Scientific
Instrument type: LC-ESI-QFT
Ms type: MS2
Ion mode: NEGATIVE
Ionization: ESI
Fragmentation mode: HCD
Collision energy: 60 (nominal)
Resolution: 35000
Column name: XBridge C18 3.5um, 2.1x50mm, Waters
Retention time: 4.6 min
Base peak: 235.9258
Precursor m/z: 170.0281
Precursor type: [M-H]-
m/z	relative intensity	assigned
61.9706	168	NOS-
63.9624	98	O2S-
77.9655	132	NO2S-
78.9734	895	HNO2S-
79.9812	745	H2NO2S-
80.9651	85	HO3S-
93.9604	575	NO3S-
106.0662	570	C7H8N-
107.0502	87	C7H7O-
137.0066	9	C7H5OS-
170.0282	999	C7H8NO2S-
171.0123	17	C7H7O3S-
