Mass spectrum: Norfentanyl; LC-ESI-QFT; MS2; CE: 30; R=35000; [M+H]+
Name: Norfentanyl
Name: N-phenyl-N-piperidin-4-ylpropanamide
Formula: C14H20N2O
Exact mass: 232.15756
SMILES: CCC(=O)N(C1CCNCC1)C2=CC=CC=C2
InChI: InChI=1S/C14H20N2O/c1-2-14(17)16(12-6-4-3-5-7-12)13-8-10-15-11-9-13/h3-7,13,15H,2,8-11H2,1H3
Instrument: Q Exactive Plus Orbitrap Thermo Scientific
Instrument type: LC-ESI-QFT
Ms type: MS2
Ion mode: POSITIVE
Ionization: ESI
Fragmentation mode: HCD
Collision energy: 30 (nominal)
Resolution: 35000
Column name: XBridge C18 3.5um, 2.1x50mm, Waters
Retention time: 4.7 min
Base peak: 233.1641
Precursor m/z: 233.1648
Precursor type: [M+H]+
m/z	relative intensity	assigned
55.0541	14	C4H7+
56.0494	38	C3H6N+
57.0333	11	C3H5O+
67.0541	4	C5H7+
82.065	2	C5H8N+
84.0807	999	C5H10N+
132.0805	1	C9H10N+
140.1068	2	C8H14NO+
150.0912	66	C9H12NO+
177.1384	119	C11H17N2+
216.1381	11	C14H18NO+
233.1645	925	C14H21N2O+
