Mass spectrum: Sulfamethoxazole; LC-ESI-ITFT; MS2; CE: 90%; R=7500; [M+H]+
Name: Sulfamethoxazole
Name: 4-Amino-N-(5-methyl-3-isoxazolyl)benzenesulfonamide
Name: 4-amino-N-(5-methyl-1,2-oxazol-3-yl)benzenesulfonamide
Formula: C10H11N3O3S
Exact mass: 253.0521
SMILES: c1(S(Nc2cc(C)on2)(=O)=O)ccc(N)cc1
InChI: InChI=1S/C10H11N3O3S/c1-7-6-10(12-16-7)13-17(14,15)9-4-2-8(11)3-5-9/h2-6H,11H2,1H3,(H,12,13)
Instrument: LTQ Orbitrap XL Thermo Scientific
Instrument type: LC-ESI-ITFT
Ms type: MS2
Ion mode: POSITIVE
Ionization: ESI
Fragmentation mode: HCD
Collision energy: 90 % (nominal)
Resolution: 7500
Column name: XBridge C18 3.5um, 2.1x50mm, Waters
Retention time: 4.6 min
Base peak: 254.0603
Precursor m/z: 254.0594
Precursor type: [M+H]+
m/z	relative intensity	assigned
65.0386	721	C5H5+
68.0494	43	C4H6N+
72.0443	15	C3H6NO+
80.0494	211	C5H6N+
92.0495	999	C6H6N+
93.0573	279	C6H7N+
94.0648	9	C6H8N+
99.0553	114	C4H7N2O+
106.0525	6	C6H6N2+
107.0603	24	C6H7N2+
108.0444	851	C6H6NO+
110.06	97	C6H8NO+
119.0604	7	C7H7N2+
131.0608	5	C8H7N2+
143.0608	5	C9H7N2+
146.071	49	C8H8N3+
147.0789	19	C8H9N3+
156.0121	9	C6H6NO2S+
160.0869	15	C9H10N3+
