Mass spectrum: Fipronil; LC-ESI-ITFT; MS2; CE: 75%; R=15000; [M-H]-
Name: Fipronil
Name: 5-amino-1-[2,6-dichloro-4-(trifluoromethyl)phenyl]-4-(trifluoromethylsulfinyl)-3-pyrazolecarbonitrile
Formula: C12H4Cl2F6N4OS
Exact mass: 435.9387
SMILES: C1=C(C=C(C(=C1Cl)N2C(=C(C(=N2)C#N)S(=O)C(F)(F)F)N)Cl)C(F)(F)F
InChI: InChI=1S/C12H4Cl2F6N4OS/c13-5-1-4(11(15,16)17)2-6(14)8(5)24-10(22)9(7(3-21)23-24)26(25)12(18,19)20/h1-2H,22H2
Instrument: LTQ Orbitrap XL Thermo Scientific
Instrument type: LC-ESI-ITFT
Ms type: MS2
Ion mode: NEGATIVE
Ionization: ESI
Fragmentation mode: HCD
Collision energy: 75 % (nominal)
Resolution: 15000
Column name: XBridge C18 3.5um, 2.1x50mm, Waters
Retention time: 12.7 min
Base peak: 434.9307
Precursor m/z: 434.9314
Precursor type: [M-H]-
m/z	relative intensity	assigned
113.0146	154	C7HN2-
143.0048	517	F6HN2-
163.0112	567	C8HF2N2-
182.01	105	C8HF3N2-
183.0175	999	C8H2F3N2-
267.9903	206	C11H2ClF3N3-
