Mass spectrum: Nuarimol; LC-ESI-QFT; MS2; CE: 15%; R=17500; [M+H]+
Name: Nuarimol
Name: (2-chlorophenyl)-(4-fluorophenyl)-pyrimidin-5-ylmethanol
Formula: C17H12ClFN2O
Exact mass: 314.0622
SMILES: C1=CC=C(C(=C1)C(C2=CC=C(C=C2)F)(C3=CN=CN=C3)O)Cl
InChI: InChI=1S/C17H12ClFN2O/c18-16-4-2-1-3-15(16)17(22,13-9-20-11-21-10-13)12-5-7-14(19)8-6-12/h1-11,22H
Instrument: Exploris 240 Orbitrap Thermo Scientific
Instrument type: LC-ESI-QFT
Ms type: MS2
Ion mode: POSITIVE
Ionization: ESI
Fragmentation mode: HCD
Collision energy: 15 % (nominal)
Resolution: 17500
Column name: XBridge C18 3.5um, 2.1x50mm, Waters
Retention time: 8.405 min
Base peak: 315.0692
Precursor m/z: 315.0695
Precursor type: [M+H]+
m/z	relative intensity	assigned
315.0694	999	C17H13ClFN2O+
