Mass spectrum: Trinexapac; LC-ESI-ITFT; MS2; CE: 35%; R=7500; [M-H]-
Name: Trinexapac
Name: 4-[Cyclopropyl(hydroxy)methylene]-3,5-dioxocyclohexanecarboxylic acid
Formula: C11H12O5
Exact mass: 224.0685
SMILES: C(C1)C1C(O)=C(C(=O)CC2C(=O)O)C(=O)C2
InChI: InChI=1S/C11H12O5/c12-7-3-6(11(15)16)4-8(13)9(7)10(14)5-1-2-5/h5-6,14H,1-4H2,(H,15,16)/b10-9-
Instrument: LTQ Orbitrap XL Thermo Scientific
Instrument type: LC-ESI-ITFT
Ms type: MS2
Ion mode: NEGATIVE
Ionization: ESI
Fragmentation mode: CID
Collision energy: 35 % (nominal)
Resolution: 7500
Column name: XBridge C18 3.5um, 2.1x50mm, Waters
Retention time: 6.9 min
Base peak: 223.0619
Precursor m/z: 223.0612
Precursor type: [M-H]-
m/z	relative intensity	assigned
83.0505	15	C5H7O-
85.0297	17	
93.0348	7	C6H5O-
95.014	60	C5H3O2-
106.0425	29	
107.0504	174	C7H7O-
109.0296	12	C6H5O2-
120.0583	26	
125.061	32	C7H9O2-
133.066	20	C9H9O-
135.0821	999	C9H11O-
137.0246	195	C7H5O3-
161.0613	12	C10H9O2-
179.0717	405	C10H11O3-
205.0508	204	C11H9O4-
