Mass spectrum: Norsertraline; LC-ESI-QFT; MS2; CE: 75; R=35000; [M+H]+
Name: Norsertraline
Name: 1-Naphthalenamine, 4-(3,4-dichlorophenyl)-1,2,3,4-tetrahydro-
Name: 4-(3,4-dichlorophenyl)-1,2,3,4-tetrahydronaphthalen-1-amine
Formula: C16H15Cl2N
Exact mass: 291.05815
SMILES: C1CC(C2=CC=CC=C2C1C3=CC(=C(C=C3)Cl)Cl)N
InChI: InChI=1S/C16H15Cl2N/c17-14-7-5-10(9-15(14)18)11-6-8-16(19)13-4-2-1-3-12(11)13/h1-5,7,9,11,16H,6,8,19H2
Instrument: Q Exactive Plus Orbitrap Thermo Scientific
Instrument type: LC-ESI-QFT
Ms type: MS2
Ion mode: POSITIVE
Ionization: ESI
Fragmentation mode: HCD
Collision energy: 75 (nominal)
Resolution: 35000
Column name: XBridge C18 3.5um, 2.1x50mm, Waters
Retention time: 9.6 min
Base peak: 275.0379
Precursor m/z: 292.0654
Precursor type: [M+H]+
m/z	relative intensity	assigned
63.0227	1	C5H3+
65.0385	1	C5H5+
72.9837	2	C3H2Cl+
89.0384	6	C7H5+
91.0541	33	C7H7+
98.9995	12	C5H4Cl+
115.0541	5	C9H7+
122.9994	91	C7H4Cl+
124.0074	21	C7H5Cl+
125.0151	5	C7H6Cl+
127.054	2	C10H7+
128.0619	62	C10H8+
129.0697	115	C10H9+
132.9605	9	C5H3Cl2+
145.0646	6	C7H12ClN+
155.0603	11	C10H7N2+
158.9761	999	C7H5Cl2+
162.0229	14	C10H7Cl+
190.0776	2	C15H10+
203.0852	3	C16H11+
204.0931	4	C16H12+
205.1011	11	C16H13+
212.0387	3	C14H9Cl+
225.0466	7	C15H10Cl+
245.9994	1	C14H8Cl2+
