Mass spectrum: Octocrylene; LC-ESI-QFT; MS2; CE: 75; R=35000; [M+H]+
Name: Octocrylene
Name: [(2R)-2-ethylhexyl] 2-cyano-3,3-diphenylprop-2-enoate
Formula: C24H27NO2
Exact mass: 361.20418
SMILES: C(\c1ccccc1)(c1ccccc1)=C(/C(OC[C@@H](CCCC)CC)=O)C#N
InChI: InChI=1S/C24H27NO2/c1-3-5-12-19(4-2)18-27-24(26)22(17-25)23(20-13-8-6-9-14-20)21-15-10-7-11-16-21/h6-11,13-16,19H,3-5,12,18H2,1-2H3/t19-/m1/s1
Instrument: Q Exactive Plus Orbitrap Thermo Scientific
Instrument type: LC-ESI-QFT
Ms type: MS2
Ion mode: POSITIVE
Ionization: ESI
Fragmentation mode: HCD
Collision energy: 75 (nominal)
Resolution: 35000
Column name: XBridge C18 3.5um, 2.1x50mm, Waters
Retention time: 17.2 min
Base peak: 250.086
Precursor m/z: 362.2115
Precursor type: [M+H]+
m/z	relative intensity	assigned
50.0151	2	C4H2+
53.0022	7	C3HO+
53.0386	63	C4H5+
53.9975	1	C2NO+
55.0179	2	C3H3O+
55.0542	2	C4H7+
57.0699	135	C4H9+
67.9893	2	C3O2+
68.9971	21	C3HO2+
71.0855	38	C5H11+
75.0229	6	C6H3+
77.0385	78	C6H5+
81.0335	2	C5H5O+
91.0543	4	C7H7+
94.0414	2	C6H6O+
95.0492	182	C6H7O+
101.0386	4	C8H5+
103.0542	7	C8H7+
104.0495	149	C7H6N+
105.0335	740	C7H5O+
105.0447	109	C6H5N2+
116.0496	2	C8H6N+
119.0492	5	C8H7O+
128.0495	37	C9H6N+
129.0335	65	C9H5O+
129.0446	21	C8H5N2+
130.0288	5	C8H4NO+
146.06	4	C9H8NO+
147.0442	2	C9H7O2+
151.0543	36	C12H7+
152.0622	6	C12H8+
153.0699	21	C12H9+
154.0289	16	C10H4NO+
154.0397	8	C9H4N3+
157.0285	15	C10H5O2+
164.0619	5	C13H8+
165.0698	20	C13H9+
169.0649	84	C12H9O+
174.0468	1	C14H6+
175.0392	2	C10H7O3+
175.0545	7	C14H7+
176.0621	627	C14H8+
177.0699	707	C14H9+
178.0777	175	C14H10+
179.0602	24	C12H7N2+
179.0856	9	C14H11+
181.0651	11	C13H9O+
182.0966	8	C13H12N+
189.0691	2	C15H9+
193.0651	6	C14H9O+
195.0806	41	C14H11O+
196.0758	11	C13H10NO+
201.0573	13	C15H7N+
202.0653	34	C15H8N+
203.073	999	C15H9N+
204.0809	856	C15H10N+
205.0656	7	C15H9O+
205.0761	108	C14H9N2+
206.0966	20	C15H12N+
220.0756	29	C15H10NO+
222.0912	2	C15H12NO+
232.0758	189	C16H10NO+
250.086	2	C16H12NO2+
