Mass spectrum: Maprotiline; LC-ESI-QFT; MS2; CE: 15; R=35000; [M+H]+
Name: Maprotiline
Formula: C20H23N
Exact mass: 277.18305
SMILES: CNCCCC12CCC(C3=CC=CC=C31)C4=CC=CC=C24
InChI: InChI=1S/C20H23N/c1-21-14-6-12-20-13-11-15(16-7-2-4-9-18(16)20)17-8-3-5-10-19(17)20/h2-5,7-10,15,21H,6,11-14H2,1H3
Instrument: Q Exactive Orbitrap Thermo Scientific
Instrument type: LC-ESI-QFT
Ms type: MS2
Ion mode: POSITIVE
Ionization: ESI
Fragmentation mode: HCD
Collision energy: 15 (nominal)
Resolution: 35000
Column name: XBridge C18 3.5um, 2.1x50mm, Waters
Retention time: 8.5 min
Base peak: 278.1906
Precursor m/z: 278.1903
Precursor type: [M+H]+
m/z	relative intensity	assigned
91.0539	1	C7H7+
117.0698	7	C9H9+
131.0853	1	C10H11+
143.0857	1	C11H11+
169.1012	4	C13H13+
191.085	2	C15H11+
219.1166	3	C17H15+
247.1486	5	C19H19+
250.1591	50	C18H20N+
278.1904	999	C20H24N+
