Mass spectrum: Paroxetine; LC-ESI-QFT; MS2; CE: 75; R=35000; [M+H]+
Name: Paroxetine
Name: 3-[(1,3-Benzodioxol-5-yloxy)methyl]-4-(4-fluorophenyl)piperidine
Name: 3-(1,3-benzodioxol-5-yloxymethyl)-4-(4-fluorophenyl)piperidine
Formula: C19H20FNO3
Exact mass: 329.14272
SMILES: C1CNCC(C1C2=CC=C(C=C2)F)COC3=CC4=C(C=C3)OCO4
InChI: InChI=1S/C19H20FNO3/c20-15-3-1-13(2-4-15)17-7-8-21-10-14(17)11-22-16-5-6-18-19(9-16)24-12-23-18/h1-6,9,14,17,21H,7-8,10-12H2
Instrument: Q Exactive Plus Orbitrap Thermo Scientific
Instrument type: LC-ESI-QFT
Ms type: MS2
Ion mode: POSITIVE
Ionization: ESI
Fragmentation mode: HCD
Collision energy: 75 (nominal)
Resolution: 35000
Column name: XBridge C18 3.5um, 2.1x50mm, Waters
Retention time: 7.8 min
Base peak: 330.1493
Precursor m/z: 330.15
Precursor type: [M+H]+
m/z	relative intensity	assigned
53.0022	12	C3HO+
53.0386	2	C4H5+
53.9975	3	C2NO+
55.0179	3	C3H3O+
56.0495	87	C3H6N+
57.0573	13	C3H7N+
58.0652	8	C3H8N+
65.0386	23	C5H5+
67.0542	16	C5H7+
67.9893	5	C3O2+
68.0495	61	C4H6N+
68.9972	2	C3HO2+
69.0573	2	C4H7N+
70.0651	999	C4H8N+
71.0729	8	C4H9N+
77.0385	2	C6H5+
79.0542	2	C6H7+
80.0495	2	C5H6N+
81.0335	7	C5H5O+
81.0573	1	C5H7N+
82.0651	46	C5H8N+
83.0291	3	C5H4F+
83.0729	7	C5H9N+
84.0808	12	C5H10N+
86.06	2	C4H8NO+
91.0543	3	C7H7+
93.0336	36	C6H5O+
95.0492	3	C6H7O+
96.0808	12	C6H10N+
97.0886	6	C6H11N+
103.0542	76	C8H7+
109.0285	31	C6H5O2+
109.0449	226	C7H6F+
111.0441	10	C6H7O2+
115.0543	37	C9H7+
116.062	5	C9H8+
117.0699	3	C9H9+
119.0491	2	C8H7O+
121.0285	10	C7H5O2+
121.0449	14	C8H6F+
122.0527	2	C8H7F+
123.0441	12	C7H7O2+
123.0605	127	C8H8F+
128.0621	10	C10H8+
129.07	3	C10H9+
130.0651	2	C9H8N+
133.0448	29	C9H6F+
134.0527	9	C9H7F+
135.0605	273	C9H8F+
136.0684	29	C9H9F+
138.0313	4	C7H6O3+
138.0716	1	C8H9FN+
139.039	1	C7H7O3+
141.0699	3	C11H9+
143.0856	5	C11H11+
145.0649	2	C10H9O+
146.0527	28	C10H7F+
147.0605	44	C10H8F+
148.056	6	C9H7FN+
148.0683	36	C10H9F+
149.0762	12	C10H10F+
150.0714	21	C9H9FN+
151.0391	61	C8H7O3+
155.0605	4	C10H7N2+
159.0603	1	C11H8F+
160.0683	3	C11H9F+
161.0762	54	C11H10F+
162.0714	1	C10H9FN+
163.0918	34	C11H12F+
164.0871	10	C10H11FN+
175.0391	1	C10H7O3+
175.0917	3	C12H12F+
178.1027	6	C11H13FN+
192.1183	28	C12H15FN+
