Mass spectrum: Linoleic acid; LC-ESI-QFT; MS2; CE: 75; R=35000; [M+H]+
Name: Linoleic acid
Name: (9Z,12Z)-octadeca-9,12-dienoic acid
Formula: C18H32O2
Exact mass: 280.24023
SMILES: CCCCC/C=C\C/C=C\CCCCCCCC(=O)O
InChI: InChI=1S/C18H32O2/c1-2-3-4-5-6-7-8-9-10-11-12-13-14-15-16-17-18(19)20/h6-7,9-10H,2-5,8,11-17H2,1H3,(H,19,20)/b7-6-,10-9-
Instrument: Q Exactive Orbitrap Thermo Scientific
Instrument type: LC-ESI-QFT
Ms type: MS2
Ion mode: POSITIVE
Ionization: ESI
Fragmentation mode: HCD
Collision energy: 75 (nominal)
Resolution: 35000
Column name: XBridge C18 3.5um, 2.1x50mm, Waters
Retention time: 19.4 min
Base peak: 298.274
Precursor m/z: 281.2475
Precursor type: [M+H]+
m/z	relative intensity	assigned
53.0023	25	C3HO+
53.0387	28	C4H5+
55.0543	190	C4H7+
57.0336	8	C3H5O+
57.0699	108	C4H9+
59.0492	39	C3H7O+
65.0386	132	C5H5+
67.0542	929	C5H7+
69.0699	876	C5H9+
71.0491	64	C4H7O+
71.0855	27	C5H11+
73.0648	18	C4H9O+
74.0964	4	C4H12N+
77.0385	9	C6H5+
79.0542	494	C6H7+
81.0699	999	C6H9+
83.0491	88	C5H7O+
83.0855	289	C6H11+
85.0284	5	C4H5O2+
85.0648	70	C5H9O+
91.0542	550	C7H7+
93.0335	24	C6H5O+
93.0699	400	C7H9+
95.0491	117	C6H7O+
95.0855	667	C7H11+
97.0648	80	C6H9O+
97.1012	69	C7H13+
99.0441	5	C5H7O2+
99.0805	20	C6H11O+
101.0601	4	C5H9O2+
103.0543	22	C8H7+
105.0449	38	C6H5N2+
105.0699	410	C8H9+
107.0855	192	C8H11+
109.0648	54	C7H9O+
109.1012	172	C8H13+
111.0441	18	C6H7O2+
111.0803	24	C7H11O+
115.0547	12	C9H7+
117.0698	47	C9H9+
119.0855	201	C9H11+
121.0283	87	C7H5O2+
121.0398	37	C6H5N2O+
121.0649	8	C8H9O+
121.1012	64	C9H13+
123.044	6	C7H7O2+
123.0804	70	C8H11O+
123.1168	31	C9H15+
127.0386	4	C6H7O3+
129.07	7	C10H9+
131.0855	40	C10H11+
133.1012	103	C10H13+
135.1168	19	C10H15+
137.0596	5	C8H9O2+
137.096	14	C9H13O+
142.0781	19	C11H10+
143.0857	7	C11H11+
145.0649	6	C10H9O+
145.1011	8	C11H13+
147.044	5	C9H7O2+
147.1169	31	C11H15+
149.0234	109	C8H5O3+
155.0855	6	C12H11+
156.0934	6	C12H12+
157.1012	5	C12H13+
159.1173	5	C12H15+
161.096	4	C11H13O+
