Mass spectrum: Xipamide; LC-ESI-QFT; MS2; CE: 60%; R=15000; [M-H]-
Name: Xipamide
Name: 4-chloro-N-(2,6-dimethylphenyl)-2-hydroxy-5-sulfamoylbenzamide
Formula: C15H15ClN2O4S
Exact mass: 354.0441
SMILES: CC1=C(C(=CC=C1)C)NC(=O)C2=CC(=C(C=C2O)Cl)S(=O)(=O)N
InChI: InChI=1S/C15H15ClN2O4S/c1-8-4-3-5-9(2)14(8)18-15(20)10-6-13(23(17,21)22)11(16)7-12(10)19/h3-7,19H,1-2H3,(H,18,20)(H2,17,21,22)
Instrument: Orbitrap Exploris 240 Thermo Scientific
Instrument type: LC-ESI-QFT
Ms type: MS2
Ion mode: NEGATIVE
Ionization: ESI
Fragmentation mode: HCD
Collision energy: 60 % (nominal)
Resolution: 15000
Column name: Atlantis C18 3um, 3.0x150mm, Waters
Retention time: 17.859 min
Base peak: 353.0365
Precursor m/z: 353.0368
Precursor type: [M-H]-
Precursor intensity: 133348944
m/z	relative intensity	assigned
77.9654	999	NO2S-
78.0348	69	C5H4N-
91.019	10	C6H3O-
94.0301	29	C2H7ClN2-
95.0139	9	C5H3O2-
104.0148	13	H8O4S-
104.0378	9	C6H4N2-
105.0219	55	C6H3NO-
106.0298	21	C6H4NO-
120.082	35	C8H10N-
122.0245	181	C6H4NO2-
125.9878	31	C6H3ClO-
126.9955	770	C6H4ClO-
132.0087	8	C7H2NO2-
141.983	28	C6H3ClO2-
169.9915	245	C6H4NO3S-
195.9708	73	C7H2NO4S-
205.9681	71	C9H2O4S-
252.0901	13	C15H12N2O2-
256.0537	53	C15H11ClNO-
273.0561	288	C15H12ClNO2-
274.0639	356	C15H13ClNO2-
353.0369	82	C15H14ClN2O4S-
