Mass spectrum: Amisulpride; LC-ESI-ITFT; MS2; CE: 90%; R=7500; [M+H]+
Name: Amisulpride
Name: 4-amino-5-esyl-N-[(1-ethylpyrrolidin-2-yl)methyl]-2-methoxy-benzamide
Formula: C17H27N3O4S
Exact mass: 369.1722
SMILES: CCN1CCCC1CNC(=O)C2=CC(=C(C=C2OC)N)S(=O)(=O)CC
InChI: InChI=1S/C17H27N3O4S/c1-4-20-8-6-7-12(20)11-19-17(21)13-9-16(25(22,23)5-2)14(18)10-15(13)24-3/h9-10,12H,4-8,11,18H2,1-3H3,(H,19,21)
Instrument: LTQ Orbitrap XL Thermo Scientific
Instrument type: LC-ESI-ITFT
Ms type: MS2
Ion mode: POSITIVE
Ionization: ESI
Fragmentation mode: HCD
Collision energy: 90 % (nominal)
Resolution: 7500
Column name: XBridge C18 3.5um, 2.1x50mm, Waters
Retention time: 3.8 min
Base peak: 370.1806
Precursor m/z: 370.1795
Precursor type: [M+H]+
m/z	relative intensity	assigned
54.0339	13	C3H4N+
58.0651	17	C3H8N+
66.0338	13	C4H4N+
66.0464	144	C5H6+
67.0418	12	C4H5N+
78.0336	12	C5H4N+
82.995	20	C4H3S+
84.0808	132	C5H10N+
85.0106	23	C4H5S+
91.0416	17	C6H5N+
92.0495	31	C6H6N+
93.0572	52	C6H7N+
94.0289	15	C5H4NO+
94.0413	21	C6H6O+
95.0362	21	C5H5NO+
96.0446	38	C5H6NO+
97.0523	13	C5H7NO+
98.0965	27	C6H12N+
107.0127	37	C6H3O2+
107.0366	23	C6H5NO+
107.9903	33	C5H2NS+
108.0444	53	C6H6NO+
110.0058	72	C5H4NS+
112.0212	12	C5H6NS+
112.1121	246	C7H14N+
113.0054	19	C5H5OS+
120.0443	46	C7H6NO+
121.0523	80	C7H7NO+
122.006	14	C6H4NS+
122.0362	111	C7H6O2+
124.0392	40	C6H6NO2+
124.9932	20	C5H3NOS+
132.008	133	C7H2NO2+
136.0386	23	C7H6NO2+
138.0007	22	C6H4NOS+
138.0187	53	C6H4NO3+
140.0166	125	C6H6NOS+
147.0314	251	C8H5NO2+
149.0471	494	H11N3O4S+
150.001	29	C7H4NOS+
150.0553	44	C8H8NO2+
152.0335	28	C7H6NO3+
163.0269	14	C8H5NO3+
168.0114	384	C7H6NO2S+
177.9957	146	C8H4NO2S+
196.0063	999	C8H6NO3S+
199.0296	12	C8H9NO3S+
242.0486	76	C10H12NO4S+
