Mass spectrum: Nuarimol; LC-ESI-QFT; MS2; CE: 120%; R=17500; [M+H]+
Name: Nuarimol
Name: (2-chlorophenyl)-(4-fluorophenyl)-pyrimidin-5-ylmethanol
Formula: C17H12ClFN2O
Exact mass: 314.0622
SMILES: C1=CC=C(C(=C1)C(C2=CC=C(C=C2)F)(C3=CN=CN=C3)O)Cl
InChI: InChI=1S/C17H12ClFN2O/c18-16-4-2-1-3-15(16)17(22,13-9-20-11-21-10-13)12-5-7-14(19)8-6-12/h1-11,22H
Instrument: Exploris 240 Orbitrap Thermo Scientific
Instrument type: LC-ESI-QFT
Ms type: MS2
Ion mode: POSITIVE
Ionization: ESI
Fragmentation mode: HCD
Collision energy: 120 % (nominal)
Resolution: 17500
Column name: XBridge C18 3.5um, 2.1x50mm, Waters
Retention time: 8.405 min
Base peak: 315.0692
Precursor m/z: 315.0695
Precursor type: [M+H]+
m/z	relative intensity	assigned
51.0228	89	C4H3+
52.0182	47	C3H2N+
54.0338	999	C3H4N+
71.0292	30	C4H4F+
75.0229	338	C6H3+
81.0447	870	C4H5N2+
86.9998	60	C4H4Cl+
95.0291	124	C6H4F+
110.9997	206	C6H4Cl+
113.0396	81	C6H6FO+
123.0242	180	C7H4FO+
123.0355	491	C6H4FN2+
129.0106	94	C6H6ClO+
138.9942	226	C7H4ClO+
139.006	675	C6H4ClN2+
170.0527	52	C12H7F+
176.0623	70	C14H8+
181.0449	69	C13H6F+
182.0523	35	C13H7F+
183.061	78	C13H8F+
194.0536	25	C14H7F+
206.0531	52	C15H7F+
207.0605	922	C15H8F+
217.0215	66	C13H7ClF+
222.0707	88	C15H9FN+
234.0709	99	C16H9FN+
