Mass spectrum: Salicylic acid; LC-ESI-QFT; MS2; CE: 180; R=35000; [M+H]+
Name: Salicylic acid
Name: 2-hydroxybenzoic acid
Formula: C7H6O3
Exact mass: 138.03169
SMILES: C1=CC=C(C(=C1)C(=O)O)O
InChI: InChI=1S/C7H6O3/c8-6-4-2-1-3-5(6)7(9)10/h1-4,8H,(H,9,10)
Instrument: Q Exactive Plus Orbitrap Thermo Scientific
Instrument type: LC-ESI-QFT
Ms type: MS2
Ion mode: POSITIVE
Ionization: ESI
Fragmentation mode: HCD
Collision energy: 180 (nominal)
Resolution: 35000
Column name: XBridge C18 3.5um, 2.1x50mm, Waters
Retention time: 6.4 min
Base peak: 391.2837
Precursor m/z: 139.039
Precursor type: [M+H]+
m/z	relative intensity	assigned
50.0151	30	C4H2+
51.023	105	C4H3+
53.0022	341	C3HO+
53.0386	28	C4H5+
53.9975	54	C2NO+
55.0179	11	C3H3O+
63.023	44	C5H3+
64.0307	10	C5H4+
65.0386	999	C5H5+
67.0542	21	C5H7+
74.0152	24	C6H2+
75.023	21	C6H3+
77.0386	20	C6H5+
79.0543	7	C6H7+
91.0543	24	C7H7+
92.0256	9	C6H4O+
95.0492	36	C6H7O+
105.0449	22	C6H5N2+
