Mass spectrum: Desmethyl-Pirimicarb; LC-ESI-QFT; MS2; CE: 60%; R=17500; [M+H]+
Name: Desmethyl-Pirimicarb
Name: 5,6-Dimethyl-2-(methylamino)-4-pyrimidinyl dimethylcarbamate
Name: [5,6-dimethyl-2-(methylamino)pyrimidin-4-yl] N,N-dimethylcarbamate
Formula: C10H16N4O2
Exact mass: 224.1273
SMILES: CC1=C(N=C(N=C1OC(=O)N(C)C)NC)C
InChI: InChI=1S/C10H16N4O2/c1-6-7(2)12-9(11-3)13-8(6)16-10(15)14(4)5/h1-5H3,(H,11,12,13)
Instrument: Exploris 240 Orbitrap Thermo Scientific
Instrument type: LC-ESI-QFT
Ms type: MS2
Ion mode: POSITIVE
Ionization: ESI
Fragmentation mode: HCD
Collision energy: 60 % (nominal)
Resolution: 17500
Column name: XBridge C18 3.5um, 2.1x50mm, Waters
Retention time: 2.964 min
Base peak: 225.1343
Precursor m/z: 225.1346
Precursor type: [M+H]+
m/z	relative intensity	assigned
71.0604	17	C3H7N2+
72.0444	999	C3H6NO+
83.0239	8	C3H3N2O+
98.06	55	C5H8NO+
109.0759	8	C6H9N2+
123.0554	5	C6H7N2O+
124.0394	13	C6H6NO2+
137.071	40	C7H9N2O+
153.0901	8	C7H11N3O+
168.1132	165	C8H14N3O+
180.0768	17	C8H10N3O2+
