Mass spectrum: MCYR; LC-ESI-QFT; MS2; CE: 45%; R=17500; [M-H]-
Name: MCYR
Name: Microcystin YR
Name: (5R,8S,11R,12S,15S,18S,19S,22R)-15-[3-(diaminomethylideneamino)propyl]-8-[(4-hydroxyphenyl)methyl]-18-[(1E,3E,5S,6S)-6-methoxy-3,5-dimethyl-7-phenylhepta-1,3-dienyl]-1,5,12,19-tetramethyl-2-methylidene-3,6,9,13,16,20,25-heptaoxo-1,4,7,10,14,17,21-heptazacyclopentacosane-11,22-dicarboxylic acid
Class: NA
Formula: C52H72N10O13
Exact mass: 1044.5280
SMILES: CO[C@@H](Cc1ccccc1)[C@@H](C)\C=C(C)\C=C\[C@@H]2NC(=O)[C@H](CCCNC(N)=N)NC(=O)[C@@H](C)[C@@H](NC(=O)[C@H](Cc3ccc(O)cc3)NC(=O)[C@@H](C)NC(=O)C(=C)N(C)C(=O)CC[C@@H](NC(=O)[C@H]2C)C(O)=O)C(O)=O
InChI: InChI=1S/C52H72N10O13/c1-28(25-29(2)41(75-8)27-34-13-10-9-11-14-34)16-21-37-30(3)44(65)59-39(50(71)72)22-23-42(64)62(7)33(6)47(68)56-32(5)46(67)60-40(26-35-17-19-36(63)20-18-35)49(70)61-43(51(73)74)31(4)45(66)58-38(48(69)57-37)15-12-24-55-52(53)54/h9-11,13-14,16-21,25,29-32,37-41,43,63H,6,12,15,22-24,26-27H2,1-5,7-8H3,(H,56,68)(H,57,69)(H,58,66)(H,59,65)(H,60,67)(H,61,70)(H,71,72)(H,73,74)(H4,53,54,55)/b21-16+,28-25+/t29-,30-,31-,32+,37-,38-,39+,40-,41-,43+/m0/s1
Instrument: Q Exactive Plus Orbitrap Thermo Scientific
Instrument type: LC-ESI-QFT
Ms type: MS2
Ion mode: NEGATIVE
Ionization: ESI
Fragmentation mode: HCD
Collision energy: 45 % (nominal)
Resolution: 17500
Column name: XBridge C18 3.5um, 2.1x50mm, Waters
Retention time: 8.062 min
Base peak: 190.9277
Precursor m/z: 1043.5208
Precursor type: [M-H]-
m/z	relative intensity	assigned
72.0456	17	C3H6NO-
73.0294	18	C3H5O2-
73.0406	41	C2H5N2O-
74.0248	34	C2H4NO2-
82.0299	22	C4H4NO-
83.0251	34	C3H3N2O-
84.0454	38	C4H6NO-
87.0565	37	C3H7N2O-
93.0349	24	C6H5O-
97.0409	10	C4H5N2O-
99.0202	45	C3H3N2O2-
99.0565	89	C4H7N2O-
100.0405	13	C4H6NO2-
107.0504	16	C7H7O-
109.0408	493	C5H5N2O-
110.0248	172	C5H4NO2-
110.0609	10	C6H8NO-
111.0207	9	C4H3N2O2-
112.0405	54	C5H6NO2-
113.0358	80	C4H5N2O2-
119.0503	93	C8H7O-
123.0564	53	C6H7N2O-
124.0404	106	C6H6NO2-
124.0513	23	C5H6N3O-
125.0722	23	C6H9N2O-
126.0674	36	C5H8N3O-
127.0514	72	C5H7N2O2-
128.0354	999	C5H6NO3-
130.0987	9	C5H12N3O-
131.0867	44	C10H11-
135.0564	17	C7H7N2O-
138.0431	11	C6H6N2O2-
139.0514	20	C6H7N2O2-
140.0822	14	C4H8N6-
141.0676	13	C6H9N2O2-
142.0621	37	C5H8N3O2-
144.0453	13	C9H6NO-
144.0775	136	C5H10N3O2-
149.072	11	C8H9N2O-
150.056	32	C8H8NO2-
151.0878	10	C8H11N2O-
152.0719	13	C8H10NO2-
152.0829	16	C7H10N3O-
153.0669	144	C7H9N2O2-
154.0979	13	C5H10N6-
156.0778	43	C6H10N3O2-
162.0557	307	C9H8NO2-
163.0872	18	C9H11N2O-
165.067	12	C8H9N2O2-
167.0826	37	C8H11N2O2-
168.1135	16	C6H12N6-
169.0493	22	C6H7N3O3-
170.0565	41	C6H8N3O3-
170.0932	98	C7H12N3O2-
171.1176	17	C13H15-
172.0766	10	C11H10NO-
179.0821	41	C9H11N2O2-
180.0649	10	C7H8N4O2-
180.079	9	C10H12O3-
180.1141	38	C9H14N3O-
181.0975	75	C7H11N5O-
184.1092	11	C8H14N3O2-
198.1244	34	C9H16N3O2-
205.0602	24	C8H7N5O2-
205.0972	17	C9H11N5O-
206.0919	45	C8H10N6O-
207.0771	19	C10H11N2O3-
209.1035	204	C8H17O6-
210.0874	12	C7H10N6O2-
211.0719	23	C9H11N2O4-
223.1192	10	C9H19O6-
227.1139	226	C8H19O7-
250.1183	55	C10H14N6O2-
280.1697	13	C3H22N9O6-
313.182	30	C6H27N5O9-
315.1449	45	C14H17N7O2-
333.1563	111	C16H21N4O4-
338.224	39	C21H28N3O-
370.2514	24	C24H34O3-
