Mass spectrum: Pyrazophos; LC-ESI-QFT; MS2; CE: 120%; R=17500; [M+H]+
Name: Pyrazophos
Name: ethyl 2-diethoxyphosphinothioyloxy-5-methylpyrazolo[1,5-a]pyrimidine-6-carboxylate
Formula: C14H20N3O5PS
Exact mass: 373.0861
SMILES: CCOC(=O)C1=CN2C(=CC(=N2)OP(=S)(OCC)OCC)N=C1C
InChI: InChI=1S/C14H20N3O5PS/c1-5-19-14(18)11-9-17-12(15-10(11)4)8-13(16-17)22-23(24,20-6-2)21-7-3/h8-9H,5-7H2,1-4H3
Instrument: Exploris 240 Orbitrap Thermo Scientific
Instrument type: LC-ESI-QFT
Ms type: MS2
Ion mode: POSITIVE
Ionization: ESI
Fragmentation mode: HCD
Collision energy: 120 % (nominal)
Resolution: 17500
Column name: XBridge C18 3.5um, 2.1x50mm, Waters
Retention time: 11.575 min
Base peak: 374.0932
Precursor m/z: 374.0934
Precursor type: [M+H]+
m/z	relative intensity	assigned
51.023	73	C4H3+
52.0183	59	C3H2N+
53.0021	63	C3HO+
54.0338	194	C3H4N+
55.0176	40	C3H3O+
56.0494	101	C3H6N+
64.9787	496	H2O2P+
65.0387	87	C5H5+
66.0338	588	C4H4N+
67.018	87	C4H3O+
67.029	31	C3H3N2+
67.0416	51	C4H5N+
68.0131	321	C3H2NO+
68.0496	92	C4H6N+
70.0286	46	C3H4NO+
76.0181	45	C5H2N+
78.0337	188	C5H4N+
78.9402	213	OPS+
79.0289	26	C4H3N2+
79.0418	36	C5H5N+
80.013	178	C4H2NO+
80.9735	130	H2O3P+
81.0447	96	C4H5N2+
82.0288	42	C4H4NO+
92.0494	113	C6H6N+
93.0447	905	C5H5N2+
94.0288	462	C5H4NO+
95.0604	161	C5H7N2+
96.9508	999	H2O2PS+
98.9842	173	H4O4P+
105.0448	78	C6H5N2+
110.035	74	C4H4N3O+
110.9669	34	CH4O2PS+
111.0553	57	C5H7N2O+
113.9538	36	H3O3PS+
114.9613	436	H4O3PS+
120.0556	370	C6H6N3+
121.0397	312	C6H5N2O+
130.0406	54	CH10N2O3S+
131.0241	60	C7H3N2O+
134.0483	30	C3H9N3OP+
137.0473	26	C7H7NO2+
139.0505	165	C2H10N3O2P+
148.0507	587	C7H6N3O+
159.0428	72	C8H5N3O+
165.0117	45	C7H5N2OS+
166.0609	85	C7H8N3O2+
176.0457	163	C8H6N3O2+
177.0535	66	C8H7N3O2+
194.0558	51	C8H8N3O3+
