Mass spectrum: Minocycline; LC-ESI-QFT; MS2; CE: 150; R=35000; [M+H]+
Name: Minocycline
Name: Minocin
Name: (4S,4aS,5aR,12aS)-4,7-Bis(dimethylamino)-3,10,12,12a-tetrahydroxy-1,11-dioxo-1,4,4a,5,5a,6,11,12a-octahydro-2-tetracenecarboxamide
Formula: C23H27N3O7
Exact mass: 457.18490
SMILES: [H][C@@]12CC3=C(C(O)=CC=C3N(C)C)C(=O)C1=C(O)[C@]1(O)C(=O)C(C(N)=O)=C(O)[C@@H](N(C)C)[C@]1([H])C2
InChI: InChI=1S/C23H27N3O7/c1-25(2)12-5-6-13(27)15-10(12)7-9-8-11-17(26(3)4)19(29)16(22(24)32)21(31)23(11,33)20(30)14(9)18(15)28/h5-6,9,11,17,27,29-30,33H,7-8H2,1-4H3,(H2,24,32)/t9-,11-,17-,23-/m0/s1
Instrument: Q Exactive Plus Orbitrap Thermo Scientific
Instrument type: LC-ESI-QFT
Ms type: MS2
Ion mode: POSITIVE
Ionization: ESI
Fragmentation mode: HCD
Collision energy: 150 (nominal)
Resolution: 35000
Column name: XBridge C18 3.5um, 2.1x50mm, Waters
Retention time: 3.7 min
Base peak: 229.5995
Precursor m/z: 458.1922
Precursor type: [M+H]+
m/z	relative intensity	assigned
50.015	21	C4H2+
51.0228	14	C4H3+
52.0181	39	C3H2N+
52.0306	4	C4H4+
53.0022	38	C3HO+
53.0385	50	C4H5+
54.0338	11	C3H4N+
55.0178	34	C3H3O+
55.0416	20	C3H5N+
56.0494	7	C3H6N+
58.0651	56	C3H8N+
62.015	4	C5H2+
63.0228	48	C5H3+
64.0307	1	C5H4+
65.0385	89	C5H5+
66.0338	8	C4H4N+
66.0463	9	C5H6+
67.0178	2	C4H3O+
67.0416	11	C4H5N+
67.0542	5	C5H7+
68.0131	1	C3H2NO+
68.0494	21	C4H6N+
68.997	53	C3HO2+
70.0651	14	C4H8N+
71.0127	1	C3H3O2+
72.0443	2	C3H6NO+
74.015	6	C6H2+
75.0228	22	C6H3+
76.0306	40	C6H4+
77.0021	6	C5HO+
77.0384	47	C6H5+
78.0338	9	C5H4N+
78.0463	119	C6H6+
79.0177	6	C5H3O+
79.0416	5	C5H5N+
79.0541	25	C6H7+
80.013	92	C4H2NO+
80.0494	17	C5H6N+
81.0335	11	C5H5O+
81.0571	2	C5H7N+
82.065	8	C5H8N+
83.0365	6	C4H5NO+
84.0443	1	C4H6NO+
84.0807	4	C5H10N+
87.0228	6	C7H3+
88.0307	5	C7H4+
89.0385	249	C7H5+
90.0338	6	C6H4N+
90.0464	26	C7H6+
91.0542	115	C7H7+
92.0257	2	C6H4O+
92.0494	15	C6H6N+
93.0335	1	C6H5O+
93.0572	7	C6H7N+
94.0412	7	C6H6O+
94.065	8	C6H8N+
95.0491	153	C6H7O+
96.0443	19	C5H6NO+
98.0599	9	C5H8NO+
101.0384	10	C8H5+
102.0463	700	C8H6+
103.0541	402	C8H7+
104.0494	86	C7H6N+
104.0619	70	C8H8+
105.0334	12	C7H5O+
105.0447	85	C6H5N2+
105.0572	83	C7H7N+
105.0697	9	C8H9+
106.0413	2	C7H6O+
106.065	16	C7H8N+
107.0491	22	C7H7O+
108.0442	1	C6H6NO+
108.0806	1	C7H10N+
110.0598	2	C6H8NO+
113.0385	29	C9H5+
114.0338	1	C8H4N+
114.0463	14	C9H6+
115.0542	456	C9H7+
116.0494	106	C8H6N+
116.0619	27	C9H8+
117.0572	79	C8H7N+
117.0697	11	C9H9+
118.0286	7	C7H4NO+
118.0411	11	C8H6O+
118.065	29	C8H8N+
119.0366	1	C7H5NO+
119.049	12	C8H7O+
120.0443	9	C7H6NO+
120.0807	2	C8H10N+
121.0285	2	C7H5O2+
121.052	2	C7H7NO+
122.0599	1	C7H8NO+
125.0385	5	C10H5+
126.0463	34	C10H6+
127.0541	56	C10H7+
128.0494	56	C9H6N+
128.0619	234	C10H8+
129.0333	8	C9H5O+
129.0445	17	C8H5N2+
129.0571	15	C9H7N+
129.0697	62	C10H9+
130.0651	999	C9H8N+
131.0491	90	C9H7O+
131.0728	233	C9H9N+
132.0442	10	C8H6NO+
132.0569	24	C9H8O+
132.0806	6	C9H10N+
133.0521	24	C8H7NO+
133.0646	2	C9H9O+
134.0599	48	C8H8NO+
136.0756	4	C8H10NO+
137.0384	2	C11H5+
138.0462	12	C11H6+
139.0541	368	C11H7+
140.0493	109	C10H6N+
140.0618	33	C11H8+
141.0573	30	C10H7N+
141.0697	104	C11H9+
142.0413	5	C10H6O+
142.065	31	C10H8N+
143.049	11	C10H7O+
143.0728	15	C10H9N+
144.0443	14	C9H6NO+
144.0564	19	C10H8O+
144.0806	16	C10H10N+
145.0525	4	C9H7NO+
145.0647	52	C10H9O+
146.0599	40	C9H8NO+
147.0439	24	C9H7O2+
147.068	1	C9H9NO+
148.0393	1	C8H6NO2+
148.0753	2	C9H10NO+
149.0383	2	C12H5+
150.0462	37	C12H6+
151.0541	20	C12H7+
152.0619	309	C12H8+
153.0573	32	C11H7N+
153.0697	72	C12H9+
154.065	132	C11H8N+
155.0494	28	C11H7O+
155.0602	83	C10H7N2+
155.0728	28	C11H9N+
156.0441	7	C10H6NO+
156.0567	9	C11H8O+
156.0806	28	C11H10N+
157.0523	9	C10H7NO+
157.0647	38	C11H9O+
158.0361	2	C10H6O2+
158.0599	28	C10H8NO+
159.0443	1	C10H7O2+
159.0677	6	C10H9NO+
160.0387	1	C9H6NO2+
160.0517	5	C10H8O2+
160.0757	12	C10H10NO+
161.0381	1	C13H5+
161.0595	1	C10H9O2+
162.0464	1	C13H6+
162.0548	1	C9H8NO2+
163.054	60	C13H7+
164.0493	17	C12H6N+
164.0617	24	C13H8+
165.0573	10	C12H7N+
165.0697	112	C13H9+
166.065	91	C12H8N+
167.0491	10	C12H7O+
167.0728	124	C12H9N+
168.0568	44	C12H8O+
168.0807	34	C12H10N+
169.0522	10	C11H7NO+
169.0646	99	C12H9O+
170.0599	38	C11H8NO+
170.0962	2	C12H12N+
171.0439	7	C11H7O2+
171.0678	4	C11H9NO+
172.039	7	C10H6NO2+
172.0755	5	C11H10NO+
173.0466	1	C10H7NO2+
174.0548	14	C10H8NO2+
176.0619	40	C14H8+
177.0572	22	C13H7N+
177.0696	6	C14H9+
178.0651	38	C13H8N+
178.0772	13	C14H10+
179.0488	5	C13H7O+
179.0603	30	C12H7N2+
179.0724	15	C13H9N+
180.0564	5	C13H8O+
180.0806	46	C13H10N+
181.0521	1	C12H7NO+
181.0646	30	C13H9O+
181.0881	11	C13H11N+
182.0599	23	C12H8NO+
182.0962	7	C13H12N+
183.0443	2	C12H7O2+
183.0677	48	C12H9NO+
184.0517	11	C12H8O2+
184.0756	36	C12H10NO+
185.0469	5	C11H7NO2+
185.0592	11	C12H9O2+
186.0547	17	C11H8NO2+
187.0542	4	C15H7+
188.0494	2	C14H6N+
189.0565	1	C14H7N+
189.0695	11	C15H9+
190.0649	35	C14H8N+
191.0728	27	C14H9N+
192.0568	4	C14H8O+
192.0804	13	C14H10N+
193.0523	8	C13H7NO+
193.0651	7	C14H9O+
193.0887	2	C14H11N+
194.0598	17	C13H8NO+
194.0967	3	C14H12N+
195.0555	1	C12H7N2O+
195.0676	8	C13H9NO+
196.0517	5	C13H8O2+
196.0755	24	C13H10NO+
197.0596	8	C13H9O2+
197.0831	5	C13H11NO+
198.0549	5	C12H8NO2+
198.0913	8	C13H12NO+
199.0627	6	C12H9NO2+
200.0342	7	C11H6NO3+
200.0706	1	C12H10NO2+
201.0571	4	C15H7N+
202.0506	1	C11H8NO3+
202.0649	1	C15H8N+
203.0726	6	C15H9N+
204.0559	1	C13H6N3+
204.081	9	C15H10N+
205.0646	4	C15H9O+
205.0883	1	C15H11N+
206.0601	8	C14H8NO+
207.0674	10	C14H9NO+
208.0756	8	C14H10NO+
209.0596	4	C14H9O2+
209.0833	1	C14H11NO+
210.055	1	C13H8NO2+
210.0915	1	C14H12NO+
211.0628	6	C13H9NO2+
212.0707	13	C13H10NO2+
214.065	2	C16H8N+
216.0811	1	C16H10N+
218.0448	1	C11H8NO4+
220.0753	9	C15H10NO+
222.0549	2	C14H8NO2+
222.0915	1	C15H12NO+
224.0706	2	C14H10NO2+
236.0706	2	C15H10NO2+
246.0539	1	C16H8NO2+
248.0697	1	C16H10NO2+
268.0595	1	C15H10NO4+
