Mass spectrum: 1-Chlorobenzotriazole; LC-ESI-QFT; MS2; CE: 120; R=35000; [M+H]+
Name: 1-Chlorobenzotriazole
Name: 1-chloro-benzotriazole
Name: Chlorobenzotriazole
Formula: C6H4ClN3
Exact mass: 153.00937
SMILES: C1=CC=C2C(=C1)N=NN2Cl
InChI: InChI=1S/C6H4ClN3/c7-10-6-4-2-1-3-5(6)8-9-10/h1-4H
Instrument: Q Exactive Plus Orbitrap Thermo Scientific
Instrument type: LC-ESI-QFT
Ms type: MS2
Ion mode: POSITIVE
Ionization: ESI
Fragmentation mode: HCD
Collision energy: 120 (nominal)
Resolution: 35000
Column name: XBridge C18 3.5um, 2.1x50mm, Waters
Retention time: 6.4 min
Base peak: 154.0164
Precursor m/z: 154.0167
Precursor type: [M+H]+
m/z	relative intensity	assigned
50.015	1	C4H2+
52.0182	4	C3H2N+
53.0022	5	C3HO+
55.0179	3	C3H3O+
61.0073	3	C5H+
61.9792	20	CHClN+
62.0151	25	C5H2+
63.0229	452	C5H3+
64.0182	102	C4H2N+
64.0307	44	C5H4+
65.026	7	C4H3N+
65.0386	1	C5H5+
66.0338	4	C4H4N+
72.9839	999	C3H2Cl+
74.9995	4	C3H4Cl+
75.9948	2	C2H3ClN+
76.0181	6	C5H2N+
81.0335	10	C5H5O+
90.0339	211	C6H4N+
91.0417	176	C6H5N+
92.0369	2	C5H4N2+
97.9917	1	C5H3Cl+
98.9996	875	C5H4Cl+
99.9948	2	C4H3ClN+
119.0478	27	C6H5N3+
125.0027	15	C6H4ClN+
126.0105	16	C6H5ClN+
154.0166	28	C6H5ClN3+
