Mass spectrum: Dinoseb; LC-ESI-ITFT; MS2; CE: 15%; R=7500; [M-H]-
Name: Dinoseb
Name: 2,4-dinitro-6-sec-butyl-phenol
Formula: C10H12N2O5
Exact mass: 240.0746
SMILES: OC1=C([N+]([O-])=O)C=C([N+]([O-])=O)C=C1C(C)CC
InChI: InChI=1S/C10H12N2O5/c1-3-6(2)8-4-7(11(14)15)5-9(10(8)13)12(16)17/h4-6,13H,3H2,1-2H3
Instrument: LTQ Orbitrap XL Thermo Scientific
Instrument type: LC-ESI-ITFT
Ms type: MS2
Ion mode: NEGATIVE
Ionization: ESI
Fragmentation mode: HCD
Collision energy: 15 % (nominal)
Resolution: 7500
Column name: XBridge C18 3.5um, 2.1x50mm, Waters
Retention time: 13.0 min
Base peak: 239.0673
Precursor m/z: 239.0673
Precursor type: [M-H]-
m/z	relative intensity	assigned
239.0674	999	C10H11N2O5-
