Mass spectrum: Coumatetralyl; LC-ESI-QFT; MS2; CE: 90%; R=17500; [M+H]+
Name: Coumatetralyl
Name: 4-hydroxy-3-(1,2,3,4-tetrahydronaphthalen-1-yl)chromen-2-one
Formula: C19H16O3
Exact mass: 292.1099
SMILES: C1CC(C2=CC=CC=C2C1)C3=C(C4=CC=CC=C4OC3=O)O
InChI: InChI=1S/C19H16O3/c20-18-15-9-3-4-11-16(15)22-19(21)17(18)14-10-5-7-12-6-1-2-8-13(12)14/h1-4,6,8-9,11,14,20H,5,7,10H2
Instrument: Exploris 240 Orbitrap Thermo Scientific
Instrument type: LC-ESI-QFT
Ms type: MS2
Ion mode: POSITIVE
Ionization: ESI
Fragmentation mode: HCD
Collision energy: 90 % (nominal)
Resolution: 17500
Column name: XBridge C18 3.5um, 2.1x50mm, Waters
Retention time: 10.203 min
Base peak: 293.1169
Precursor m/z: 293.1172
Precursor type: [M+H]+
m/z	relative intensity	assigned
53.0386	24	C4H5+
65.0386	61	C5H5+
69.0335	16	C4H5O+
77.0386	137	C6H5+
79.0542	378	C6H7+
91.0542	999	C7H7+
93.0334	20	C6H5O+
95.0492	130	C6H7O+
103.0542	58	C8H7+
105.0699	48	C8H9+
107.0492	498	C7H7O+
115.0547	16	C9H7+
116.0621	19	C9H8+
121.0285	308	C7H5O2+
128.062	25	C10H8+
129.0698	15	C10H9+
131.0856	19	C10H11+
147.0444	11	C9H7O2+
163.0393	6	C9H7O3+
175.0389	165	C10H7O3+
