Mass spectrum: Sulfentrazon; LC-ESI-QFT; MS2; CE: 45; R=35000; [M+H]+
Name: Sulfentrazon
Name: N-(2,4-dichloro-5-(4-(difluoromethyl)-4,5-dihydro-3-methyl-5-oxo-1H-1,2,4-triazol-1-yl)phenyl)methanesulfonamide
Name: N-[2,4-dichloro-5-[4-(difluoromethyl)-3-methyl-5-oxo-1,2,4-triazol-1-yl]phenyl]methanesulfonamide
Formula: C11H10Cl2F2N4O3S
Exact mass: 385.98187
SMILES: O=S(=O)(Nc2c(Cl)cc(Cl)c(N1/N=C(\N(C1=O)C(F)F)C)c2)C
InChI: InChI=1S/C11H10Cl2F2N4O3S/c1-5-16-19(11(20)18(5)10(14)15)9-4-8(17-23(2,21)22)6(12)3-7(9)13/h3-4,10,17H,1-2H3
Instrument: Q Exactive Plus Orbitrap Thermo Scientific
Instrument type: LC-ESI-QFT
Ms type: MS2
Ion mode: POSITIVE
Ionization: ESI
Fragmentation mode: HCD
Collision energy: 45 (nominal)
Resolution: 35000
Column name: XBridge C18 3.5um, 2.1x50mm, Waters
Retention time: 7.4 min
Base peak: 386.989
Precursor m/z: 386.9891
Precursor type: [M+H]+
m/z	relative intensity	assigned
61.9791	2	CHClN+
73.0195	3	C2H2FN2+
74.0036	56	C2HFNO+
83.0239	1	C3H3N2O+
89.0509	11	C3H6FN2+
92.0306	75	C3H4F2N+
99.0427	3	C3H5N3O+
101.0132	2	C6HN2+
102.0106	3	C4H5ClN+
108.0009	2	C3H4ClFN+
111.9948	2	C5H3ClN+
119.0239	1	C6H3N2O+
127.0057	6	C5H4ClN2+
127.9898	8	C5H3ClNO+
133.9557	1	C4H2Cl2N+
136.99	22	C6H2ClN2+
139.0057	17	C6H4ClN2+
145.0164	1	C5H6ClN2O+
145.9558	37	
146.0003	13	C5H5ClNO2+
149.0395	48	C4H5F2N3O+
155.0006	186	C6H4ClN2O+
157.9559	107	C6H2Cl2N+
160.9669	8	C5H3Cl2N2+
163.9664	118	C5H4Cl2NO+
170.9954	1	C6H4ClN2O2+
172.9668	170	C6H3Cl2N2+
173.9508	13	C6H2Cl2NO+
173.9746	98	C6H4Cl2N2+
175.9665	16	C6H4Cl2NO+
178.0166	587	C8H5ClN3+
179.0244	2	C8H6ClN3+
180.0324	4	C8H7ClN3+
182.0111	10	
186.9824	457	C7H5Cl2N2+
188.9619	3	C6H3Cl2N2O+
190.9772	15	C6H5Cl2N2O+
198.9461	283	C7HCl2N2O+
200.9616	11	C7H3Cl2N2O+
201.9697	2	C7H4Cl2N2O+
202.957	2	C4H7Cl2NO2S+
204.9566	2	C6H3Cl2N2O2+
209.9864	5	C8H2ClFN3O+
212.0021	9	C8H4ClFN3O+
213.9933	225	C8H6Cl2N3+
215.0011	10	C6HF2N4O3+
215.9729	3	C7H4Cl2N3O+
216.9391	5	C7H3Cl2N2S+
216.9566	1	C7H3Cl2N2O2+
217.9683	1	C7H3Cl2FN3+
218.9524	6	C7H2Cl2FN2O+
221.0225	5	C9H6ClN4O+
222.0297	4	C9H7ClN4O+
223.0381	33	C9H8ClN4O+
226.9647	5	C8H3Cl2N3O+
230.9958	2	C8H7Cl2N3O+
232.0084	59	C8H5ClF2N3O+
239.9728	6	C9H4Cl2N3O+
240.9805	6	C9H5Cl2N3O+
241.9884	6	C9H6Cl2N3O+
242.9595	2	C8H3Cl2N3O2+
245.9632	142	C8HClF2N2O3+
246.971	33	C8H4Cl2FN3O+
252.0204	2	C7H11ClN3O3S+
253.0287	2	C10H7ClFN4O+
256.9992	34	C9H7Cl2N4O+
258.007	96	C9H8Cl2N4O+
259.0194	7	C9H6ClF2N4O+
267.9916	7	C10H6Cl2N4O+
271.0193	179	C10H6ClF2N4O+
272.0271	67	C10H7ClF2N4O+
273.0349	999	C10H8ClF2N4O+
274.0425	6	C10H9ClF2N4O+
274.9892	3	C6H11Cl2N3O3S+
279.985	456	C9H6Cl2F2N3O+
286.9896	152	C10H6Cl2FN4O+
287.9973	26	C10H7Cl2FN4O+
289.0299	32	C10H8ClF2N4O2+
294.9961	3	C9H7Cl2F2N4O+
302.9845	2	C10H6Cl2FN4O2+
303.0458	6	C11H10ClF2N4O2+
303.9926	1	C10H7Cl2FN4O2+
305.0068	2	C10H8ClF2N4OS+
306.9959	401	C10H7Cl2F2N4O+
308.0037	199	C10H8Cl2F2N4O+
309.0117	3	C10H9Cl2F2N4O+
318.986	5	C10H6ClF2N4O2S+
321.0115	3	C11H9Cl2F2N4O+
322.9907	9	C10H7Cl2F2N4O2+
325.0061	10	C10H9Cl2F2N4O2+
336.9924	53	C10H11Cl2N4O3S+
340.9841	7	C10H9Cl2F2N4OS+
352.0205	4	C11H11ClF2N4O3S+
366.983	13	C11H10Cl2FN4O3S+
386.9894	9	C11H11Cl2F2N4O3S+
