Mass spectrum: Methamidophos; LC-ESI-QFT; MS2; CE: 60%; R=17500; [M+H]+
Name: Methamidophos
Name: [amino(methylsulfanyl)phosphoryl]oxymethane
Formula: C2H8NO2PS
Exact mass: 141.0013
SMILES: COP(=O)(N)SC
InChI: InChI=1S/C2H8NO2PS/c1-5-6(3,4)7-2/h1-2H3,(H2,3,4)
Instrument: Exploris 240 Orbitrap Thermo Scientific
Instrument type: LC-ESI-QFT
Ms type: MS2
Ion mode: POSITIVE
Ionization: ESI
Fragmentation mode: HCD
Collision energy: 60 % (nominal)
Resolution: 17500
Column name: XBridge C18 3.5um, 2.1x50mm, Waters
Retention time: 1.413 min
Base peak: 142.0086
Precursor m/z: 142.0086
Precursor type: [M+H]+
m/z	relative intensity	assigned
46.9949	56	CH3S+
62.0185	11	C2H6S+
63.9945	28	H3NOP+
78.9943	92	CH4O2P+
94.0052	999	CH5NO2P+
109.9822	110	CH5NOPS+
124.982	580	C2H6O2PS+
142.0087	70	C2H9NO2PS+
