Mass spectrum: Fluazifop; LC-ESI-ITFT; MS2; CE: 75%; R=7500; [M+H]+
Name: Fluazifop
Name: 2-[4-[5-(trifluoromethyl)pyridin-2-yl]oxyphenoxy]propanoic acid
Formula: C15H12F3NO4
Exact mass: 327.0724
SMILES: CC(C(=O)O)OC1=CC=C(C=C1)OC2=NC=C(C=C2)C(F)(F)F
InChI: InChI=1S/C15H12F3NO4/c1-9(14(20)21)22-11-3-5-12(6-4-11)23-13-7-2-10(8-19-13)15(16,17)18/h2-9H,1H3,(H,20,21)
Instrument: LTQ Orbitrap XL Thermo Scientific
Instrument type: LC-ESI-ITFT
Ms type: MS2
Ion mode: POSITIVE
Ionization: ESI
Fragmentation mode: HCD
Collision energy: 75 % (nominal)
Resolution: 7500
Column name: XBridge C18 3.5um, 2.1x50mm, Waters
Retention time: 10.9 min
Base peak: 328.0794
Precursor m/z: 328.0791
Precursor type: [M+H]+
m/z	relative intensity	assigned
63.0227	14	C5H3+
64.0307	21	C5H4+
65.0386	347	C5H5+
75.0226	12	C6H3+
81.0335	13	C5H5O+
91.0543	773	C7H7+
92.0256	42	C6H4O+
93.0335	95	C6H5O+
94.0413	34	C6H6O+
109.0285	14	C6H5O2+
110.0363	28	C6H6O2+
111.0439	31	C6H7O2+
119.0493	32	C8H7O+
121.0283	21	C7H5O2+
121.0396	37	C6H5N2O+
130.065	29	C9H8N+
131.049	54	C9H7O+
141.0574	124	C10H7N+
146.0209	57	C6H3F3N+
147.029	160	C6H4F3N+
158.0599	101	C10H8NO+
163.024	65	C6H4F3NO+
164.0318	366	C6H5F3NO+
169.0526	31	C11H7NO+
179.0188	319	C6H4F3NO2+
180.0384	38	C10H6F2O+
185.045	21	C9H6F3N+
186.0524	24	C9H7F3N+
190.0463	59	C11H6F2N+
198.0525	110	C10H7F3N+
199.06	11	C10H8F3N+
207.0488	41	C11H7F2NO+
208.057	21	C11H8F2NO+
209.045	25	C11H6F3N+
211.0597	29	C11H8F3N+
218.0412	144	C12H6F2NO+
226.0474	65	C11H7F3NO+
226.0844	11	C12H11F3N+
227.0551	720	C11H8F3NO+
235.0627	16	C15H9NO2+
236.0671	16	C13H9F3N+
238.0473	999	C12H7F3NO+
254.0424	760	C12H7F3NO2+
256.0577	109	C12H9F3NO2+
264.0591	9	C11H11F3O4+
