Mass spectrum: Profoxydim; LC-ESI-QFT; MS2; CE: 30; R=35000; [M-H]-
Name: Profoxydim
Name: 2-[1-[2-(4-chlorophenoxy)propoxyamino]butylidene]-5-(thian-3-yl)cyclohexane-1,3-dione
Formula: C24H32ClNO4S
Exact mass: 465.17406
SMILES: CCCC(=C1C(=O)CC(CC1=O)C2CCCSC2)NOCC(C)OC3=CC=C(C=C3)Cl
InChI: InChI=1S/C24H32ClNO4S/c1-3-5-21(26-29-14-16(2)30-20-9-7-19(25)8-10-20)24-22(27)12-18(13-23(24)28)17-6-4-11-31-15-17/h7-10,16-18,26H,3-6,11-15H2,1-2H3
Instrument: Q Exactive Plus Orbitrap Thermo Scientific
Instrument type: LC-ESI-QFT
Ms type: MS2
Ion mode: NEGATIVE
Ionization: ESI
Fragmentation mode: HCD
Collision energy: 30 (nominal)
Resolution: 35000
Column name: XBridge C18 3.5um, 2.1x50mm, Waters
Retention time: 14.4 min
Base peak: 464.1659
Precursor m/z: 464.1668
Precursor type: [M-H]-
m/z	relative intensity	assigned
65.9983	2	C3NO-
67.0515	2	H7N2O2-
69.0345	2	C4H5O-
101.0429	6	C5H9S-
126.0922	1	C7H12NO-
126.9955	617	C6H4ClO-
134.0246	19	C7H4NO2-
167.0531	2	C9H11OS-
169.0692	27	C9H13OS-
176.0717	1	C10H10NO2-
177.0793	1	C10H11NO2-
178.0873	2	C10H12NO2-
194.0821	1	C10H12NO3-
211.0797	12	C11H15O2S-
236.075	999	C12H14NO2S-
237.0702	1	C19H9-
238.127	6	C13H20NOS-
252.1059	4	C13H18NO2S-
278.1218	30	C15H20NO2S-
280.1376	666	C15H22NO2S-
294.1529	8	C16H24NO2S-
306.1532	9	C17H24NO2S-
336.1638	24	C18H26NO3S-
464.1665	429	C24H31ClNO4S-
