Mass spectrum: Iopamidol; LC-ESI-ITFT; MS2; CE: 35%; R=15000; [M+H]+
Name: Iopamidol
Name: 1,3-Benzenedicarboxamide, N,N'-bis(2-hydroxy-1-(hydroxymethyl)ethyl)-5-((2-hydroxy-1-oxopropyl)amino)-2,4,6-triiodo-
Name: 1-N,3-N-bis(1,3-dihydroxypropan-2-yl)-5-(2-hydroxypropanoylamino)-2,4,6-triiodobenzene-1,3-dicarboxamide
Formula: C17H22I3N3O8
Exact mass: 776.8541
SMILES: CC(O)C(=O)NC1=C(I)C(C(=O)NC(CO)CO)=C(I)C(C(=O)NC(CO)CO)=C1I
InChI: InChI=1S/C17H22I3N3O8/c1-6(28)15(29)23-14-12(19)9(16(30)21-7(2-24)3-25)11(18)10(13(14)20)17(31)22-8(4-26)5-27/h6-8,24-28H,2-5H2,1H3,(H,21,30)(H,22,31)(H,23,29)
Instrument: LTQ Orbitrap XL Thermo Scientific
Instrument type: LC-ESI-ITFT
Ms type: MS2
Ion mode: POSITIVE
Ionization: ESI
Fragmentation mode: CID
Collision energy: 35 % (nominal)
Resolution: 15000
Column name: XBridge C18 3.5um, 2.1x50mm, Waters
Retention time: 1.2 min
Base peak: 132.9578
Precursor m/z: 777.8614
Precursor type: [M+H]+
m/z	relative intensity	assigned
293.9012	7	C5HIN3O4+
325.9629	5	C7H9IN3O4+
413.9712	21	C14H11IN2O5+
430.9738	20	C14H12IN2O6+
524.05	17	C17H23IN3O8+
541.8816	9	C14H12I2N2O5+
558.885	999	C13H22I3+
631.9375	171	C17H20I2N3O7+
649.9484	12	C17H22I2N3O8+
668.7876	6	C17H10I3N3O2+
686.7975	199	C14H14I3N2O6+
704.8081	238	C14H16I3N2O7+
759.8504	905	C17H21I3N3O7+
