Mass spectrum: Pyridate; LC-ESI-QFT; MS2; CE: 90; R=35000; [M+H]+
Name: Pyridate
Name: Pyridat
Name: (6-chloro-3-phenylpyridazin-4-yl) octylsulfanylformate
Formula: C19H23ClN2O2S
Exact mass: 378.11688
SMILES: O=C(SCCCCCCCC)Oc2cc(Cl)nnc2c1ccccc1
InChI: InChI=1S/C19H23ClN2O2S/c1-2-3-4-5-6-10-13-25-19(23)24-16-14-17(20)21-22-18(16)15-11-8-7-9-12-15/h7-9,11-12,14H,2-6,10,13H2,1H3
Instrument: Q Exactive Plus Orbitrap Thermo Scientific
Instrument type: LC-ESI-QFT
Ms type: MS2
Ion mode: POSITIVE
Ionization: ESI
Fragmentation mode: HCD
Collision energy: 90 (nominal)
Resolution: 35000
Column name: XBridge C18 3.5um, 2.1x50mm, Waters
Retention time: 18.1 min
Base peak: 379.1241
Precursor m/z: 379.1242
Precursor type: [M+H]+
m/z	relative intensity	assigned
50.0151	13	C4H2+
51.023	26	C4H3+
53.0022	22	C3HO+
53.0386	139	C4H5+
53.9975	5	C2NO+
55.0179	11	C3H3O+
55.0543	26	C4H7+
57.0699	151	C4H9+
60.984	1	C2H2Cl+
61.0106	1	C2H5S+
61.9792	107	CHClN+
62.9632	1	CClO+
65.0022	1	C4HO+
65.0386	1	C5H5+
67.0543	1	C5H7+
68.0131	999	C3H2NO+
68.9972	1	C3HO2+
69.0699	28	C5H9+
71.0855	15	C5H11+
75.9949	6	C2H3ClN+
77.0386	211	C6H5+
81.0335	15	C5H5O+
89.0386	5	C7H5+
91.0544	6	C7H7+
94.0413	9	C6H6O+
95.0492	532	C6H7O+
103.9898	87	C3H3ClNO+
104.0495	445	C7H6N+
105.0448	296	C6H5N2+
106.0419	1	C4H9ClN+
109.0647	1	C7H9O+
115.0543	36	C9H7+
116.0495	25	C8H6N+
116.062	6	C9H8+
117.0573	11	C8H7N+
118.065	4	C8H8N+
125.0153	5	C7H6Cl+
125.0386	1	C10H5+
126.0465	209	C10H6+
138.0106	41	C7H5ClN+
140.0263	10	C7H7ClN+
143.0604	24	C9H7N2+
144.0444	4	C9H6NO+
144.057	1	C10H8O+
144.0682	13	C9H8N2+
152.0262	1	C8H7ClN+
161.0154	17	C10H6Cl+
171.0554	5	C10H7N2O+
179.0371	39	C9H8ClN2+
205.0168	6	C10H6ClN2O+
207.0321	133	C10H8ClN2O+
