Mass spectrum: Nitrazepam; LC-ESI-QFT; MS2; CE: 150; R=35000; [M-H]-
Name: Nitrazepam
Name: 7-nitro-5-phenyl-1,3-dihydro-1,4-benzodiazepin-2-one
Formula: C15H11N3O3
Exact mass: 281.08004
SMILES: C1C(=O)NC2=C(C=C(C=C2)[N+](=O)[O-])C(=N1)C3=CC=CC=C3
InChI: InChI=1S/C15H11N3O3/c19-14-9-16-15(10-4-2-1-3-5-10)12-8-11(18(20)21)6-7-13(12)17-14/h1-8H,9H2,(H,17,19)
Instrument: Q Exactive Plus Orbitrap Thermo Scientific
Instrument type: LC-ESI-QFT
Ms type: MS2
Ion mode: NEGATIVE
Ionization: ESI
Fragmentation mode: HCD
Collision energy: 150 (nominal)
Resolution: 35000
Column name: XBridge C18 3.5um, 2.1x50mm, Waters
Retention time: 7.7 min
Base peak: 280.0723
Precursor m/z: 280.0728
Precursor type: [M-H]-
m/z	relative intensity	assigned
50.0036	219	C3N-
52.0192	9	C3H2N-
64.0193	132	C4H2N-
65.0033	27	C4HO-
65.0145	26	C3HN2-
65.9985	98	C3NO-
74.0037	12	C5N-
76.0193	36	C5H2N-
90.0349	510	C6H4N-
101.0396	999	C8H5-
113.0397	247	C9H5-
115.0554	713	C9H7-
117.0347	34	C8H5O-
125.0396	125	C10H5-
129.0346	59	C9H5O-
140.0507	41	C10H6N-
141.0347	174	C10H5O-
164.0506	115	C12H6N-
166.0662	337	C12H8N-
177.0587	8	C13H7N-
192.0459	8	C13H6NO-
