Mass spectrum: Trifloxystrobin; LC-ESI-QFT; MS2; CE: 45; R=35000; [M+H]+
Name: Trifloxystrobin
Name: Benzeneacetic acid, alpha-(methoxyimino)-2-((((1-(3-(trifluoromethyl)phenyl)ethylidene)amino)oxy)methyl)-, methyl ester, (E,E)-
Name: (2Z)-2-methoxyimino-2-[2-[[(E)-1-[3-(trifluoromethyl)phenyl]ethylideneamino]oxymethyl]phenyl]acetic acid methyl ester
Formula: C20H19F3N2O4
Exact mass: 408.12969
SMILES: c1(C(F)(F)F)cc(ccc1)\C(=N\OCc1c(cccc1)\C(C(=O)OC)=N\OC)C
InChI: InChI=1S/C20H19F3N2O4/c1-13(14-8-6-9-16(11-14)20(21,22)23)24-29-12-15-7-4-5-10-17(15)18(25-28-3)19(26)27-2/h4-11H,12H2,1-3H3/b24-13+,25-18-
Instrument: Q Exactive Orbitrap Thermo Scientific
Instrument type: LC-ESI-QFT
Ms type: MS2
Ion mode: POSITIVE
Ionization: ESI
Fragmentation mode: HCD
Collision energy: 45 (nominal)
Resolution: 35000
Column name: XBridge C18 3.5um, 2.1x50mm, Waters
Retention time: 14.7 min
Base peak: 409.1362
Precursor m/z: 409.137
Precursor type: [M+H]+
m/z	relative intensity	assigned
79.054	4	C6H7+
89.0383	18	C7H5+
90.0461	2	C7H6+
91.054	31	C7H7+
101.0195	4	C5H3F2+
103.0539	4	C8H7+
104.0618	1	C8H8+
105.0696	27	C8H9+
109.0646	1	C7H9O+
115.0541	5	C9H7+
116.0492	269	C8H6N+
117.057	44	C8H7N+
118.0648	51	C8H8N+
119.0489	12	C8H7O+
119.06	2	C7H7N2+
119.0726	4	C8H9N+
130.0649	26	C9H8N+
131.0727	234	C9H9N+
132.0439	19	C8H6NO+
132.0804	105	C9H10N+
134.0596	14	C8H8NO+
143.0299	3	C7H5F2O+
143.0364	2	C9H5NO+
145.0256	238	C7H4F3+
146.0597	84	C9H8NO+
147.0674	16	C9H9NO+
148.0753	6	C9H10NO+
159.0409	3	C8H6F3+
161.0467	15	C9H7NO2+
162.0909	2	C10H12NO+
163.0361	14	C7H6F3O+
173.0317	130	C7H4F3N2+
174.0545	2	C10H8NO2+
175.0624	6	C10H9NO2+
178.0861	5	C10H12NO2+
186.0521	999	C9H7F3N+
206.0807	30	C11H12NO3+
