Mass spectrum: Methadone; LC-ESI-ITFT; MS2; CE: 60%; R=15000; [M+H]+
Name: Methadone
Name: 6-(dimethylamino)-4,4-diphenyl-3-heptanone
Formula: C21H27NO
Exact mass: 309.2093
SMILES: CCC(=O)C(CC(C)N(C)C)(c1ccccc1)c2ccccc2
InChI: InChI=1S/C21H27NO/c1-5-20(23)21(16-17(2)22(3)4,18-12-8-6-9-13-18)19-14-10-7-11-15-19/h6-15,17H,5,16H2,1-4H3
Instrument: LTQ Orbitrap XL Thermo Scientific
Instrument type: LC-ESI-ITFT
Ms type: MS2
Ion mode: POSITIVE
Ionization: ESI
Fragmentation mode: HCD
Collision energy: 60 % (nominal)
Resolution: 15000
Column name: XBridge C18 3.5um, 2.1x50mm, Waters
Retention time: 8.4 min
Base peak: 310.2177
Precursor m/z: 310.2165
Precursor type: [M+H]+
m/z	relative intensity	assigned
57.0335	21	C3H5O+
77.0386	52	C6H5+
91.0543	229	C7H7+
95.0493	4	C6H7O+
105.0336	999	C7H5O+
105.0699	109	C8H9+
107.049	4	C7H7O+
115.0542	8	C9H7+
117.07	172	C9H9+
129.0699	57	C10H9+
131.0855	17	C10H11+
135.0806	9	C9H11O+
141.0701	4	C11H9+
143.0855	16	C11H11+
145.0648	25	C10H9O+
145.101	5	C11H13+
147.0802	13	C10H11O+
159.0804	17	C11H11O+
159.1168	42	C12H15+
167.0855	52	C13H11+
169.1009	11	C13H13+
178.0779	8	C14H10+
179.0857	10	C14H11+
187.1118	8	C13H15O+
191.0854	12	C15H11+
194.0728	21	C14H10O+
195.0808	14	C14H11O+
195.1168	95	C15H15+
203.0859	13	C16H11+
204.0934	82	C16H12+
205.1013	43	C16H13+
207.1164	6	C16H15+
217.1009	10	C17H13+
218.109	88	C17H14+
219.1169	159	C17H15+
223.1118	69	C16H15O+
224.1196	9	C16H16O+
232.1247	20	C18H16+
236.12	25	C17H16O+
247.1475	10	C19H19+
