Mass spectrum: 3,5-Dichloroaniline; LC-ESI-QFT; MS2; CE: 60%; R=17500; [M+H]+
Name: 3,5-Dichloroaniline
Formula: C6H5Cl2N
Exact mass: 160.9799
SMILES: C1=C(C=C(C=C1Cl)Cl)N
InChI: InChI=1S/C6H5Cl2N/c7-4-1-5(8)3-6(9)2-4/h1-3H,9H2
Instrument: Exploris 240 Orbitrap Thermo Scientific
Instrument type: LC-ESI-QFT
Ms type: MS2
Ion mode: POSITIVE
Ionization: ESI
Fragmentation mode: HCD
Collision energy: 60 % (nominal)
Resolution: 17500
Column name: XBridge C18 3.5um, 2.1x50mm, Waters
Retention time: 7.585 min
Base peak: 240.0785
Precursor m/z: 161.9872
Precursor type: [M+H]+
m/z	relative intensity	assigned
127.0184	999	C6H6ClN+
161.9872	559	C6H6Cl2N+
