Mass spectrum: Letrozole; LC-ESI-QFT; MS2; CE: 90; R=35000; [M+H]+
Name: Letrozole
Name: 4-[(4-cyanophenyl)-(1,2,4-triazol-1-yl)methyl]benzonitrile
Formula: C17H11N5
Exact mass: 285.10145
SMILES: C1=CC(=CC=C1C#N)C(C2=CC=C(C=C2)C#N)N3C=NC=N3
InChI: InChI=1S/C17H11N5/c18-9-13-1-5-15(6-2-13)17(22-12-20-11-21-22)16-7-3-14(10-19)4-8-16/h1-8,11-12,17H
Instrument: Q Exactive Plus Orbitrap Thermo Scientific
Instrument type: LC-ESI-QFT
Ms type: MS2
Ion mode: POSITIVE
Ionization: ESI
Fragmentation mode: HCD
Collision energy: 90 (nominal)
Resolution: 35000
Column name: XBridge C18 3.5um, 2.1x50mm, Waters
Retention time: 6.6 min
Base peak: 286.1083
Precursor m/z: 286.1087
Precursor type: [M+H]+
m/z	relative intensity	assigned
63.0228	3	C5H3+
90.0338	5	C6H4N+
113.0384	1	C9H5+
115.0543	3	C9H7+
127.0417	1	C9H5N+
139.0541	3	C11H7+
140.0494	44	C10H6N+
150.0464	6	C12H6+
153.0572	12	C11H7N+
162.0466	1	C13H6+
163.0542	118	C13H7+
164.0494	43	C12H6N+
164.0619	3	C13H8+
165.0446	4	C11H5N2+
165.0567	2	C12H7N+
166.0651	6	C12H8N+
168.0571	1	C12H8O+
175.0414	1	C13H5N+
177.0573	93	C13H7N+
188.0495	34	C14H6N+
189.0573	68	C14H7N+
190.065	999	C14H8N+
191.0602	4	C13H7N2+
191.073	1	C14H9N+
193.0522	22	C13H7NO+
202.0525	17	C14H6N2+
207.068	10	C14H9NO+
208.0756	8	C14H10NO+
214.0527	1	C15H6N2+
215.0603	330	C15H7N2+
216.0682	44	C15H8N2+
217.0765	2	C15H9N2+
221.0471	11	
232.0631	1	C15H8N2O+
