Mass spectrum: Fenamiphos-sulfone; LC-ESI-QFT; MS2; CE: 120; R=35000; [M+H]+
Name: Fenamiphos-sulfone
Name: Fenamiphos sulphone
Name: Ethyl 3-methyl-4-(methylsulfonyl)phenyl isopropylphosphoramidate
Formula: C13H22NO5PS
Exact mass: 335.09563
SMILES: CCOP(=O)(NC(C)C)OC1=CC(=C(C=C1)S(=O)(=O)C)C
InChI: InChI=1S/C13H22NO5PS/c1-6-18-20(15,14-10(2)3)19-12-7-8-13(11(4)9-12)21(5,16)17/h7-10H,6H2,1-5H3,(H,14,15)
Instrument: Q Exactive Plus Orbitrap Thermo Scientific
Instrument type: LC-ESI-QFT
Ms type: MS2
Ion mode: POSITIVE
Ionization: ESI
Fragmentation mode: HCD
Collision energy: 120 (nominal)
Resolution: 35000
Column name: XBridge C18 3.5um, 2.1x50mm, Waters
Retention time: 7.5 min
Base peak: 336.1023
Precursor m/z: 336.1029
Precursor type: [M+H]+
m/z	relative intensity	assigned
50.0151	13	C4H2+
51.0229	8	C4H3+
53.0022	9	C3HO+
53.0386	37	C4H5+
53.9975	1	C2NO+
55.0179	16	C3H3O+
55.0543	1	C4H7+
57.9872	1	C2H2S+
58.0652	4	C3H8N+
58.995	2	C2H3S+
62.0151	2	C5H2+
63.0229	26	C5H3+
63.9947	1	H3NOP+
64.0307	4	C5H4+
65.0386	451	C5H5+
66.0464	38	C5H6+
67.0542	46	C5H7+
68.0257	2	C4H4O+
68.9794	4	C3HS+
70.9951	2	C3H3S+
77.0386	53	C6H5+
78.0464	51	C6H6+
79.0542	363	C6H7+
80.062	104	C6H8+
81.0335	7	C5H5O+
81.0699	25	C6H9+
84.0029	2	C4H4S+
85.0107	2	C4H5S+
89.0386	121	C7H5+
90.0465	136	C7H6+
91.0543	502	C7H7+
93.0335	6	C6H5O+
93.0574	9	C6H7N+
93.07	2	C7H9+
94.0414	71	C6H6O+
95.0492	140	C6H7O+
97.0107	15	C5H5S+
98.0002	114	H5NO3P+
98.9842	2	H4O4P+
103.0543	4	C8H7+
104.0495	3	C7H6N+
105.0336	14	C7H5O+
105.0448	77	C6H5N2+
106.0415	8	C3H9NOP+
106.0652	33	C7H8N+
107.0492	999	C7H7O+
108.057	236	C7H8O+
109.0107	13	C6H5S+
109.0648	48	C7H9O+
110.9898	1	C5H3OS+
111.0264	10	C6H7S+
112.0158	10	CH7NO3P+
115.0543	13	C9H7+
117.0698	4	C9H9+
119.0605	11	C7H7N2+
121.0108	2	C3H8NPS+
121.0283	5	C7H5O2+
121.0397	4	C6H5N2O+
123.044	7	C7H7O2+
125.0057	1	C6H5OS+
133.0203	2	C8H6P+
137.0057	6	C7H5OS+
150.0103	2	C7H5NOP+
152.0261	2	C7H7NOP+
153.01	8	C7H6O2P+
184.9997	2	C7H6O4P+
