Mass spectrum: Ecgonine-methyl-ester (EME); LC-ESI-QFT; MS2; CE: 180; R=35000; [M+H]+
Name: Ecgonine-methyl-ester (EME)
Name: Ecgonine methyl ester
Name: Methyl 3-hydroxy-8-methyl-8-azabicyclo[3.2.1]octane-4-carboxylate
Formula: C10H17NO3
Exact mass: 199.12084
SMILES: CN1C2CCC1C(C(C2)O)C(=O)OC
InChI: InChI=1S/C10H17NO3/c1-11-6-3-4-7(11)9(8(12)5-6)10(13)14-2/h6-9,12H,3-5H2,1-2H3
Instrument: Q Exactive Plus Orbitrap Thermo Scientific
Instrument type: LC-ESI-QFT
Ms type: MS2
Ion mode: POSITIVE
Ionization: ESI
Fragmentation mode: HCD
Collision energy: 180 (nominal)
Resolution: 35000
Column name: XBridge C18 3.5um, 2.1x50mm, Waters
Retention time: 0.8 min
Base peak: 200.1275
Precursor m/z: 200.1281
Precursor type: [M+H]+
m/z	relative intensity	assigned
50.0151	36	C4H2+
51.0229	99	C4H3+
52.0307	4	C4H4+
53.0022	72	C3HO+
53.0386	142	C4H5+
53.9974	20	C2NO+
54.0099	4	C3H2O+
54.0338	34	C3H4N+
54.0464	14	C4H6+
55.0178	9	C3H3O+
55.0416	19	C3H5N+
55.0542	89	C4H7+
56.0494	162	C3H6N+
57.0573	55	C3H7N+
58.0287	4	C2H4NO+
58.065	2	C3H8N+
63.0229	22	C5H3+
64.0307	2	C5H4+
65.0385	659	C5H5+
66.0463	49	C5H6+
67.0416	931	C4H5N+
67.0542	86	C5H7+
68.0494	639	C4H6N+
69.0334	32	C4H5O+
70.0651	30	C4H8N+
71.0127	59	C3H3O2+
71.0491	3	C4H7O+
77.0384	73	C6H5+
78.0338	31	C5H4N+
78.0464	7	C6H6+
79.0416	79	C5H5N+
79.0542	66	C6H7+
80.0494	266	C5H6N+
81.0335	17	C5H5O+
81.0572	61	C5H7N+
81.0697	9	C6H9+
82.065	999	C5H8N+
83.0729	20	C5H9N+
84.0807	23	C5H10N+
89.0385	48	C7H5+
90.0464	25	C7H6+
91.0542	147	C7H7+
92.0494	16	C6H6N+
93.0572	62	C6H7N+
94.0651	625	C6H8N+
95.049	106	C6H7O+
96.0443	64	C5H6NO+
96.0806	8	C6H10N+
105.0447	60	C6H5N2+
106.0651	42	C7H8N+
107.0491	4	C7H7O+
107.0729	4	C7H9N+
108.0808	2	C7H10N+
110.0599	3	C6H8NO+
117.0572	4	C8H7N+
120.0808	3	C8H10N+
134.06	2	C8H8NO+
