Mass spectrum: Capecitabine; LC-ESI-QFT; MS2; CE: 90; R=35000; [M-H]-
Name: Capecitabine
Name: (1-(5-Deoxy-beta-D-ribofuranosyl)-5-fluoro-1,2-dihydro-2-oxo-4-pyrimidinyl)-carbamic acid pentyl ester
Name: N-[1-[(2R,3R,4S,5R)-3,4-dihydroxy-5-methyl-2-oxolanyl]-5-fluoro-2-oxo-4-pyrimidinyl]carbamic acid pentyl ester
Formula: C15H22FN3O6
Exact mass: 359.14926
SMILES: FC=1\C(=N/C(=O)N(C=1)[C@@H]2O[C@@H]([C@@H](O)[C@H]2O)C)\NC(=O)OCCCCC
InChI: InChI=1S/C15H22FN3O6/c1-3-4-5-6-24-15(23)18-12-9(16)7-19(14(22)17-12)13-11(21)10(20)8(2)25-13/h7-8,10-11,13,20-21H,3-6H2,1-2H3,(H,17,18,22,23)/t8-,10-,11-,13-/m1/s1
Instrument: Q Exactive Orbitrap Thermo Scientific
Instrument type: LC-ESI-QFT
Ms type: MS2
Ion mode: NEGATIVE
Ionization: ESI
Fragmentation mode: HCD
Collision energy: 90 (nominal)
Resolution: 35000
Column name: XBridge C18 3.5um, 2.1x50mm, Waters
Retention time: 7.8 min
Base peak: 358.1422
Precursor m/z: 358.142
Precursor type: [M-H]-
m/z	relative intensity	assigned
64.0067	101	C3N2-
65.0145	277	C3HN2-
65.9985	243	C3NO-
70.0099	91	C3HFN-
77.0145	131	C4HN2-
80.0016	48	C3N2O-
80.0144	25	C4H2NO-
83.0051	244	C3FN2-
84.0254	100	C4H3FN-
85.0208	102	C3H2FN2-
85.0659	277	C5H9O-
89.0145	31	C5HN2-
93.0095	51	C4HN2O-
95.0248	27	C4H3N2O-
97.0208	410	C4H2FN2-
99.0366	26	C4H4FN2-
105.0095	43	C5HN2O-
106.0173	478	C5H2N2O-
107.025	291	C5H3N2O-
109.0206	25	C5H2FN2-
113.0158	94	C4H2FN2O-
125.0157	999	C5H2FN2O-
136.0153	28	C5H2N3O2-
153.0106	830	C6H2FN2O2-
155.0825	30	C7H11N2O2-
179.0822	39	C9H11N2O2-
