Mass spectrum: Metolachlor morpholinone; LC-ESI-ITFT; MS2; CE: 45%; R=7500; [M+H]+
Name: Metolachlor morpholinone
Name: 4-(2-ethyl-6-methylphenyl)-5-methylmorpholin-3-one
Formula: C14H19NO2
Exact mass: 233.1416
SMILES: O=C2N(c1c(cccc1C)CC)C(C)COC2
InChI: InChI=1S/C14H19NO2/c1-4-12-7-5-6-10(2)14(12)15-11(3)8-17-9-13(15)16/h5-7,11H,4,8-9H2,1-3H3
Instrument: LTQ Orbitrap XL Thermo Scientific
Instrument type: LC-ESI-ITFT
Ms type: MS2
Ion mode: POSITIVE
Ionization: ESI
Fragmentation mode: HCD
Collision energy: 45 % (nominal)
Resolution: 7500
Column name: XBridge C18 3.5um, 2.1x50mm, Waters
Retention time: 8.2 min
Base peak: 234.1493
Precursor m/z: 234.1489
Precursor type: [M+H]+
m/z	relative intensity	assigned
70.0649	1	C4H8N+
99.0679	10	C5H9NO+
105.0696	2	C8H9+
118.0648	2	C8H8N+
119.0854	16	C9H11+
120.0807	26	C8H10N+
134.0964	4	C9H12N+
135.1045	2	C9H13N+
146.0964	43	C10H12N+
147.0678	10	C9H9NO+
147.1048	3	C10H13N+
148.0756	61	C9H10NO+
148.112	47	C10H14N+
158.0962	5	C11H12N+
160.112	35	C11H14N+
162.0911	2	C10H12NO+
174.1273	1	C12H16N+
175.1355	20	C12H17N+
176.1067	18	C11H14NO+
176.1434	18	C12H18N+
188.1429	11	C13H18N+
193.11	2	C11H15NO2+
205.1094	2	C12H15NO2+
206.1174	67	C12H16NO2+
216.1392	2	C14H18NO+
234.1488	999	C14H20NO2+
