Mass spectrum: 1H-Benzotriazole-5-carboxylic acid; LC-ESI-QFT; MS2; CE: 180; R=35000; [M+H]+
Name: 1H-Benzotriazole-5-carboxylic acid
Name: 1H-benzotriazole-5-carboxylic acid
Name: 2H-benzotriazole-5-carboxylic acid
Formula: C7H5N3O2
Exact mass: 163.03818
SMILES: c1cc2c(cc1C(=O)O)nn[nH]2
InChI: InChI=1S/C7H5N3O2/c11-7(12)4-1-2-5-6(3-4)9-10-8-5/h1-3H,(H,11,12)(H,8,9,10)
Instrument: Q Exactive Plus Orbitrap Thermo Scientific
Instrument type: LC-ESI-QFT
Ms type: MS2
Ion mode: POSITIVE
Ionization: ESI
Fragmentation mode: HCD
Collision energy: 180 (nominal)
Resolution: 35000
Column name: XBridge C18 3.5um, 2.1x50mm, Waters
Retention time: 3.7 min
Base peak: 164.0453
Precursor m/z: 164.0455
Precursor type: [M+H]+
m/z	relative intensity	assigned
50.0151	80	C4H2+
51.023	112	C4H3+
52.0182	220	C3H2N+
52.0308	19	C4H4+
53.0022	95	C3HO+
53.0386	313	C4H5+
53.9974	19	C2NO+
54.0338	43	C3H4N+
54.0464	12	C4H6+
55.0178	38	C3H3O+
61.0073	41	C5H+
62.0151	302	C5H2+
63.0229	999	C5H3+
64.0182	222	C4H2N+
64.0307	67	C5H4+
65.026	77	C4H3N+
65.0386	172	C5H5+
66.0338	15	C4H4N+
67.0178	1	C4H3O+
67.0291	1	C3H3N2+
67.9892	22	C3O2+
68.0131	89	C3H2NO+
68.9972	10	C3HO2+
74.015	3	C6H2+
75.0104	17	C5HN+
76.0181	56	C5H2N+
78.0338	23	C5H4N+
79.0177	2	C5H3O+
79.0416	6	C5H5N+
80.0494	62	C5H6N+
81.0335	67	C5H5O+
82.0288	3	C4H4NO+
89.026	31	C6H3N+
90.0339	64	C6H4N+
91.029	3	C5H3N2+
91.0417	24	C6H5N+
92.0368	2	C5H4N2+
96.0445	1	C5H6NO+
103.0289	5	C6H3N2+
108.0444	15	C6H6NO+
118.0285	9	C7H4NO+
118.04	30	C6H4N3+
119.0478	26	C6H5N3+
151.0376	11	C6H5N3O2+
