Mass spectrum: 4-chloro-N-methylaniline; LC-ESI-QFT; MS2; CE: 120; R=35000; [M+H]+
Name: 4-chloro-N-methylaniline
Formula: C7H8ClN
Exact mass: 141.03453
SMILES: CNC1=CC=C(C=C1)Cl
InChI: InChI=1S/C7H8ClN/c1-9-7-4-2-6(8)3-5-7/h2-5,9H,1H3
Instrument: Q Exactive Plus Orbitrap Thermo Scientific
Instrument type: LC-ESI-QFT
Ms type: MS2
Ion mode: POSITIVE
Ionization: ESI
Fragmentation mode: HCD
Collision energy: 120 (nominal)
Resolution: 35000
Column name: XBridge C18 3.5um, 2.1x50mm, Waters
Retention time: 5.0 min
Base peak: 142.0417
Precursor m/z: 142.0418
Precursor type: [M+H]+
m/z	relative intensity	assigned
63.0228	3	C5H3+
64.0307	5	C5H4+
65.0385	173	C5H5+
66.0339	1	C4H4N+
67.0416	3	C4H5N+
75.0228	2	C6H3+
87.9948	1	C3H3ClN+
90.0338	1	C6H4N+
91.0416	29	C6H5N+
92.0494	215	C6H6N+
98.9996	8	C5H4Cl+
100.0074	203	C5H5Cl+
101.0026	1	C4H4ClN+
106.0651	14	C7H8N+
107.0728	2	C7H9N+
110.06	14	C6H8NO+
126.0105	9	C6H5ClN+
127.0183	999	C6H6ClN+
