Mass spectrum: Metominostrobin; LC-ESI-QFT; MS2; CE: 60%; R=17500; [M+H]+
Name: Metominostrobin
Name: N-methyl-2-(2-phenoxyphenyl)-2-methoxyiminoacetamide
Name: 2-methoxyimino-N-methyl-2-(2-phenoxyphenyl)acetamide
Formula: C16H16N2O3
Exact mass: 284.1161
SMILES: CNC(=O)C(=NOC)C1=CC=CC=C1OC2=CC=CC=C2
InChI: InChI=1S/C16H16N2O3/c1-17-16(19)15(18-20-2)13-10-6-7-11-14(13)21-12-8-4-3-5-9-12/h3-11H,1-2H3,(H,17,19)
Instrument: Exploris 240 Orbitrap Thermo Scientific
Instrument type: LC-ESI-QFT
Ms type: MS2
Ion mode: POSITIVE
Ionization: ESI
Fragmentation mode: HCD
Collision energy: 60 % (nominal)
Resolution: 17500
Column name: XBridge C18 3.5um, 2.1x50mm, Waters
Retention time: 7.515 min
Base peak: 285.1232
Precursor m/z: 285.1234
Precursor type: [M+H]+
m/z	relative intensity	assigned
58.0287	152	C2H4NO+
65.0386	38	C5H5+
77.0385	72	C6H5+
95.0491	12	C6H7O+
105.0445	29	C6H5N2+
139.0543	153	C11H7+
140.0494	53	C10H6N+
166.0651	951	C12H8N+
167.0495	9	C12H7O+
193.0526	51	C13H7NO+
194.0601	999	C13H8NO+
196.0757	704	C13H10NO+
210.0915	126	C14H12NO+
