Mass spectrum: Fenuron; LC-ESI-QFT; MS2; CE: 45; R=35000; [M+H]+
Name: Fenuron
Name: 1,1-dimethyl-3-phenyl-urea
Formula: C9H12N2O
Exact mass: 164.09496
SMILES: O=C(Nc1ccccc1)N(C)C
InChI: InChI=1S/C9H12N2O/c1-11(2)9(12)10-8-6-4-3-5-7-8/h3-7H,1-2H3,(H,10,12)
Instrument: Q Exactive Orbitrap Thermo Scientific
Instrument type: LC-ESI-QFT
Ms type: MS2
Ion mode: POSITIVE
Ionization: ESI
Fragmentation mode: HCD
Collision energy: 45 (nominal)
Resolution: 35000
Column name: XBridge C18 3.5um, 2.1x50mm, Waters
Retention time: 4.9 min
Base peak: 165.1021
Precursor m/z: 165.1022
Precursor type: [M+H]+
m/z	relative intensity	assigned
72.0443	999	C3H6NO+
92.0493	18	C6H6N+
95.049	4	C6H7O+
120.0442	53	C7H6NO+
165.102	121	C9H13N2O+
