Mass spectrum: Metribuzin-desamino; LC-ESI-QFT; MS2; CE: 75; R=35000; [M+H]+
Name: Metribuzin-desamino
Name: Deaminometribuzin
Name: 6-tert-butyl-3-(methylthio)-2H-1,2,4-triazin-5-one
Formula: C8H13N3OS
Exact mass: 199.27332
SMILES: CC(C)(C)C1=NNC(=NC1=O)SC
InChI: InChI=1S/C8H13N3OS/c1-8(2,3)5-6(12)9-7(13-4)11-10-5/h1-4H3,(H,9,11,12)
Instrument: Q Exactive Plus Orbitrap Thermo Scientific
Instrument type: LC-ESI-QFT
Ms type: MS2
Ion mode: POSITIVE
Ionization: ESI
Fragmentation mode: HCD
Collision energy: 75 (nominal)
Resolution: 35000
Column name: XBridge C18 3.5um, 2.1x50mm, Waters
Retention time: 7.3 min
Base peak: 200.085
Precursor m/z: 200.0852
Precursor type: [M+H]+
m/z	relative intensity	assigned
53.0022	5	C3HO+
53.9974	1	C2NO+
55.0542	1	C4H7+
57.0699	798	C4H9+
58.0651	1	C3H8N+
61.0106	6	C2H5S+
62.0059	81	CH4NS+
67.0542	3	C5H7+
67.9892	3	C3O2+
68.0243	10	C2H2N3+
68.0494	9	C4H6N+
69.0083	3	C2HN2O+
69.0699	13	C5H9+
70.04	11	C2H4N3+
70.0652	3	C4H8N+
71.024	1	C2H3N2O+
74.0059	170	C2H4NS+
74.9898	3	C2H3OS+
82.0651	1	C5H8N+
83.0603	4	C4H7N2+
84.0808	66	C5H10N+
89.0168	999	C2H5N2S+
97.0649	6	C6H9O+
101.0042	61	C2H3N3S+
109.076	1	C6H9N2+
110.0712	4	C5H8N3+
114.996	4	C3H3N2OS+
115.0199	10	C3H5N3S+
116.0277	970	C3H6N3S+
124.087	6	C6H10N3+
126.1025	9	C6H12N3+
129.0356	4	C4H7N3S+
130.0434	19	C4H8N3S+
138.0663	1	C6H8N3O+
141.0354	3	C5H7N3S+
142.0434	323	C5H8N3S+
144.0227	3	C4H6N3OS+
155.0639	1	C7H11N2S+
156.059	310	C6H10N3S+
157.0669	591	C6H11N3S+
170.0384	16	C6H8N3OS+
172.0903	545	C7H14N3S+
185.0616	6	C7H11N3OS+
200.0852	44	C8H14N3OS+
