Mass spectrum: Glycyrrhetinic Acid; LC-ESI-QFT; MS2; CE: 180; R=35000; [M+H]+
Name: Glycyrrhetinic Acid
Name: 18-beta-Glycyrrhetin acid
Name: (2S,4aS,6aR,6aS,6bR,8aR,10S,12aS,14bR)-10-hydroxy-2,4a,6a,6b,9,9,12a-heptamethyl-13-oxo-3,4,5,6,6a,7,8,8a,10,11,12,14b-dodecahydro-1H-picene-2-carboxylic acid
Formula: C30H46O4
Exact mass: 470.33961
SMILES: C[C@]1([C@H](CC[C@]2([C@H]1CC[C@@]3([C@@H]2C(=O)C=C4[C@]3(CC[C@@]5([C@H]4C[C@](CC5)(C(=O)O)C)C)C)C)C)O)C
InChI: InChI=1S/C30H46O4/c1-25(2)21-8-11-30(7)23(28(21,5)10-9-22(25)32)20(31)16-18-19-17-27(4,24(33)34)13-12-26(19,3)14-15-29(18,30)6/h16,19,21-23,32H,8-15,17H2,1-7H3,(H,33,34)/t19-,21-,22-,23+,26+,27-,28-,29+,30+/m0/s1
Instrument: Q Exactive Plus Orbitrap Thermo Scientific
Instrument type: LC-ESI-QFT
Ms type: MS2
Ion mode: POSITIVE
Ionization: ESI
Fragmentation mode: HCD
Collision energy: 180 (nominal)
Resolution: 35000
Column name: XBridge C18 3.5um, 2.1x50mm, Waters
Retention time: 16.9 min
Base peak: 471.3465
Precursor m/z: 471.3469
Precursor type: [M+H]+
m/z	relative intensity	assigned
50.0151	136	C4H2+
51.023	230	C4H3+
52.0308	3	C4H4+
53.0022	87	C3HO+
53.0386	271	C4H5+
53.9975	19	C2NO+
55.0179	27	C3H3O+
55.0543	142	C4H7+
57.0335	2	C3H5O+
57.0698	1	C4H9+
59.0492	2	C3H7O+
62.0151	9	C5H2+
63.0229	67	C5H3+
65.0386	774	C5H5+
66.0464	30	C5H6+
67.0542	128	C5H7+
67.9893	5	C3O2+
68.9971	1	C3HO2+
69.0336	3	C4H5O+
69.0699	3	C5H9+
75.0229	12	C6H3+
76.0307	3	C6H4+
77.0386	227	C6H5+
78.0464	123	C6H6+
79.0542	348	C6H7+
80.0621	6	C6H8+
81.0335	22	C5H5O+
81.0699	29	C6H9+
83.0492	1	C5H7O+
89.0386	64	C7H5+
90.0464	1	C7H6+
91.0543	999	C7H7+
92.062	7	C7H8+
93.0699	15	C7H9+
94.0414	21	C6H6O+
95.0492	647	C6H7O+
102.0464	60	C8H6+
103.0543	165	C8H7+
104.0621	25	C8H8+
105.0448	328	C6H5N2+
105.0699	95	C8H9+
106.0416	2	C7H6O+
107.0492	19	C7H7O+
109.0647	3	C7H9O+
115.0543	569	C9H7+
116.0621	43	C9H8+
117.0699	42	C9H9+
119.0493	7	C8H7O+
119.0858	7	C9H11+
126.0465	18	C10H6+
127.0542	39	C10H7+
128.0621	339	C10H8+
129.0699	75	C10H9+
130.0778	3	C10H10+
131.0492	9	C9H7O+
131.0859	1	C10H11+
133.0649	1	C9H9O+
139.0542	15	C11H7+
141.0699	124	C11H9+
142.0777	13	C11H10+
143.0853	5	C11H11+
145.0649	29	C10H9O+
152.0621	102	C12H8+
153.07	46	C12H9+
154.0778	6	C12H10+
155.0604	52	C10H7N2+
155.0856	3	C12H11+
157.0648	2	C11H9O+
165.07	100	C13H9+
166.0777	6	C13H10+
167.0855	6	C13H11+
169.065	16	C12H9O+
178.0778	23	C14H10+
179.0858	2	C14H11+
189.0696	5	C15H9+
191.0856	1	C15H11+
