Mass spectrum: Fluoxastrobin; LC-ESI-QFT; MS2; CE: 30; R=35000; [M+H]+
Name: Fluoxastrobin
Name: (E)-[[2-[6-(2-chlorophenoxy)-5-fluoro-pyrimidin-4-yl]oxyphenyl]-(5,6-dihydro-1,4,2-dioxazin-3-yl)methylene]-methoxy-amine
Formula: C21H16ClFN4O5
Exact mass: 458.07933
SMILES: Clc4ccccc4Oc3ncnc(Oc2ccccc2C(=N\OC)/C=1OCCON=1)c3F
InChI: InChI=1S/C21H16ClFN4O5/c1-28-26-18(21-27-30-11-10-29-21)13-6-2-4-8-15(13)31-19-17(23)20(25-12-24-19)32-16-9-5-3-7-14(16)22/h2-9,12H,10-11H2,1H3/b26-18+
Instrument: Q Exactive Orbitrap Thermo Scientific
Instrument type: LC-ESI-QFT
Ms type: MS2
Ion mode: POSITIVE
Ionization: ESI
Fragmentation mode: HCD
Collision energy: 30 (nominal)
Resolution: 35000
Column name: XBridge C18 3.5um, 2.1x50mm, Waters
Retention time: 11.5 min
Base peak: 459.0867
Precursor m/z: 459.0866
Precursor type: [M+H]+
m/z	relative intensity	assigned
65.0387	6	C5H5+
69.9924	1	C2NO2+
73.0285	4	C3H5O2+
78.0339	1	C5H4N+
79.0545	1	C6H7+
81.0335	1	C5H5O+
86.0238	1	C3H4NO2+
90.0338	16	C6H4N+
91.0541	10	C7H7+
93.0336	6	C6H5O+
95.0491	8	C6H7O+
104.0494	12	C7H6N+
106.0288	13	C6H4NO+
108.0444	1	C6H6NO+
111.044	13	C6H7O2+
119.0366	10	C7H5NO+
120.0443	79	C7H6NO+
126.9946	2	C6H4ClO+
129.0102	6	C6H6ClO+
129.0445	1	C8H5N2+
130.0293	7	C5H7ClN2+
130.0401	4	C7H4N3+
131.0604	1	C8H7N2+
132.0293	1	C4H6NO4+
132.0444	25	C8H6NO+
134.0238	5	C7H4NO2+
134.06	19	
136.0392	9	C2H5FN4O2+
138.0105	86	C7H5ClN+
139.0059	4	C6H4ClN2+
144.0318	8	C8H4N2O+
144.0556	1	C8H6N3+
145.0396	81	C8H5N2O+
147.0555	1	C8H7N2O+
150.0348	11	C8H5FNO+
154.0401	1	C9H4N3+
154.9898	1	C7H4ClO2+
160.0508	5	C8H6N3O+
161.0346	11	C8H5N2O2+
162.0351	6	C9H5FNO+
162.0418	2	C8H6N2O2+
163.0059	5	C8H4ClN2+
163.0504	6	C8H7N2O2+
164.0341	51	
166.0055	4	C8H5ClNO+
168.001	3	C8H4ClFN+
170.0347	13	C9H4N3O+
175.0304	10	C9H4FN2O+
176.038	27	C9H5FN2O+
178.0298	21	C9H5FNO2+
179.0006	44	C8H4ClN2O+
183.012	9	C8H5ClFN2+
183.996	16	C8H4ClFNO+
188.0382	227	C10H5FN2O+
188.0571	17	
190.0496	17	C5H7FN4O3+
191.0251	6	C9H4FN2O2+
195.0124	2	C9H5ClFN2+
195.996	1	C9H4ClFNO+
202.0065	2	C8H6ClFNO2+
202.041	2	C10H5FN3O+
203.025	2	C10H4FN2O2+
204.0332	1	C7H8ClFN3O+
204.0555	1	C13H6N3+
204.0767	13	C10H10N3O2+
205.0408	26	C10H6FN2O2+
205.0607	23	C10H9N2O3+
211.0069	9	C9H5ClFN2O+
211.9911	15	
214.0064	15	C9H6ClFNO2+
214.0411	2	C11H5FN3O+
214.061	12	C11H8N3O2+
216.0566	1	C11H7FN3O+
218.0361	12	C10H5FN3O2+
221.0357	4	C10H6FN2O3+
223.0064	13	
223.0257	1	C8H4FN4O3+
223.9911	3	C10H4ClFNO2+
228.045	8	C13H9ClN2+
228.0555	1	C15H6N3+
229.028	3	C11H4FN3O2+
230.0361	43	C11H5FN3O2+
231.0199	40	C11H4FN2O3+
232.0522	9	C8H10ClFN4O+
232.0622	1	C6H14ClFN2O4+
240.0442	11	C12H5FN4O+
241.0514	8	C12H6FN4O+
242.0594	13	
244.0522	4	C9H10ClFN4O+
246.0309	82	C11H5FN3O3+
250.0181	2	C16H7ClO+
255.0313	12	C12H4FN4O2+
257.0469	17	C12H6FN4O2+
262.0538	1	C16H7FN2O+
266.0126	29	C14H5ClN3O+
267.033	12	C12H9ClFN2O2+
274.0622	22	
278.0722	1	C16H9FN3O+
300.0654	11	
304.0519	4	C17H7FN3O2+
304.0761	2	C17H9FN4O+
306.0671	75	C17H9FN3O2+
308.023	12	C16H5FN2O4+
313.0413	3	C16H9ClFN3O+
315.033	63	C16H9ClFN2O2+
320.0223	5	C17H7ClN3O2+
331.0628	5	C18H8FN4O2+
340.0285	51	C17H8ClFN3O2+
342.0441	45	C17H10ClFN3O2+
355.0391	12	C17H9ClFN4O2+
367.0393	126	C18H9ClFN4O2+
369.0543	10	
383.0342	131	C18H9ClFN4O3+
385.05	43	
397.0497	11	C19H11ClFN4O3+
427.0603	999	C20H13ClFN4O4+
459.0873	1	C21H17ClFN4O5+
