Mass spectrum: Captan; LC-ESI-QFT; MS2; CE: 60; R=35000; [M+H]+
Name: Captan
Name: 1,2,3,6-tetrahydro-N-(trichloromethylthio)phthalimide
Name: (3aS,7aR)-2-(trichloromethylsulfanyl)-3a,4,7,7a-tetrahydroisoindole-1,3-dione
Formula: C9H8Cl3NO2S
Exact mass: 298.93413
SMILES: N1(C([C@@H]2CC=CC[C@@H]2C1=O)=O)SC(Cl)(Cl)Cl
InChI: InChI=1S/C9H8Cl3NO2S/c10-9(11,12)16-13-7(14)5-3-1-2-4-6(5)8(13)15/h1-2,5-6H,3-4H2/t5-,6+
Instrument: Q Exactive Orbitrap Thermo Scientific
Instrument type: LC-ESI-QFT
Ms type: MS2
Ion mode: POSITIVE
Ionization: ESI
Fragmentation mode: HCD
Collision energy: 60 (nominal)
Resolution: 35000
Column name: XBridge C18 3.5um, 2.1x50mm, Waters
Retention time: 9.4 min
Base peak: 149.0234
Precursor m/z: 299.9414
Precursor type: [M+H]+
m/z	relative intensity	assigned
57.0699	1	C4H9+
58.0652	1	C3H8N+
59.0491	1	C3H7O+
59.9903	1	CH2NS+
61.9793	5	CHClN+
62.9633	1	CClO+
63.9949	2	CH3ClN+
65.0386	1	C5H5+
66.0464	1	C5H6+
66.9403	134	ClS+
69.0699	2	C5H9+
71.0492	1	C4H7O+
77.0385	12	C6H5+
78.0337	2	C5H4N+
78.0464	5	C6H6+
79.0542	999	C6H7+
80.956	2	CH2ClS+
81.0699	7	C6H9+
85.9696	1	C2NOS+
86.0056	1	C3H4NS+
88.9789	2	C3H2ClO+
89.0597	5	C4H9O2+
89.974	1	C2HClNO+
91.0542	14	C7H7+
93.9512	54	CHClNS+
94.9352	243	CClOS+
95.0491	90	C6H7O+
95.9669	13	CH3ClNS+
96.0443	76	C5H6NO+
97.9558	42	CH2Cl2N+
98.9666	2	CH4ClOS+
101.0152	5	C5H6Cl+
104.0494	36	C7H6N+
105.0334	1	C7H5O+
105.0447	18	C6H5N2+
105.0572	24	C7H7N+
106.0651	251	C7H8N+
107.0491	23	C7H7O+
109.0106	29	C6H5S+
110.0058	4	C5H4NS+
110.0182	2	C6H6S+
111.0262	30	C6H7S+
113.0026	20	C5H4ClN+
113.0152	26	C6H6Cl+
113.9091	13	CCl2S+
114.0105	12	C5H5ClN+
114.917	9	CHCl2S+
115.0309	8	C6H8Cl+
116.906	27	CCl3+
119.9667	5	C3H3ClNS+
120.9381	1	C2ClNOS+
121.0105	4	C7H5S+
122.0183	2	C7H6S+
125.0152	121	C7H6Cl+
127.0308	6	C7H8Cl+
127.9121	2	CCl2NS+
128.0262	2	C6H7ClN+
129.9279	95	CH2Cl2NS+
130.0052	6	C5H5ClNO+
130.9716	11	C5H4ClS+
131.9669	30	C4H3ClNS+
134.0601	1	C8H8NO+
136.0215	161	C7H6NS+
137.0293	16	C7H7NS+
138.0371	2	C7H8NS+
140.0259	14	C7H7ClN+
141.0339	5	C7H8ClN+
143.9669	2	C5H3ClNS+
144.9748	12	C5H4ClNS+
144.9873	8	C6H6ClS+
145.9825	16	C5H5ClNS+
147.9618	11	C4H3ClNOS+
147.9715	177	C5H4Cl2N+
148.878	7	CCl3S+
155.9071	262	C2Cl2NOS+
156.9873	6	C7H6ClS+
158.976	2	C7H5Cl2+
171.9981	64	C7H7ClNS+
179.9434	172	C5H4Cl2NS+
181.9227	8	C4H2Cl2NOS+
203.9983	2	C8H8Cl2NO+
207.9751	2	C7H8Cl2NS+
235.97	2	C8H8Cl2NOS+
