Mass spectrum: Atenolol-desisopropyl; LC-ESI-QFT; MS2; CE: 180; R=35000; [M+H]+
Name: Atenolol-desisopropyl
Name: 4-(3-Amino-2-hydroxypropoxy)phenylacetamide
Formula: C11H16N2O3
Exact mass: 224.11609
SMILES: c1cc(ccc1CC(=O)N)OCC(CN)O
InChI: InChI=1S/C11H16N2O3/c12-6-9(14)7-16-10-3-1-8(2-4-10)5-11(13)15/h1-4,9,14H,5-7,12H2,(H2,13,15)
Instrument: Q Exactive Plus Orbitrap Thermo Scientific
Instrument type: LC-ESI-QFT
Ms type: MS2
Ion mode: POSITIVE
Ionization: ESI
Fragmentation mode: HCD
Collision energy: 180 (nominal)
Resolution: 35000
Column name: XBridge C18 3.5um, 2.1x50mm, Waters
Retention time: 1.0 min
Base peak: 225.1233
Precursor m/z: 225.1234
Precursor type: [M+H]+
m/z	relative intensity	assigned
50.0151	140	C4H2+
51.023	395	C4H3+
52.0308	3	C4H4+
53.0022	25	C3HO+
53.0386	166	C4H5+
54.0339	3	C3H4N+
55.0179	55	C3H3O+
56.0495	85	C3H6N+
61.0072	17	C5H+
62.0151	106	C5H2+
63.0229	999	C5H3+
65.0386	473	C5H5+
66.0464	15	C5H6+
67.0417	16	C4H5N+
67.0541	4	C5H7+
67.9892	3	C3O2+
74.06	9	C3H8NO+
75.0229	16	C6H3+
76.0308	4	C6H4+
77.0385	292	C6H5+
78.0339	9	C5H4N+
78.0464	39	C6H6+
79.0542	87	C6H7+
80.0494	12	C5H6N+
81.0335	31	C5H5O+
89.0386	614	C7H5+
90.034	4	C6H4N+
90.0464	22	C7H6+
91.0543	278	C7H7+
93.0574	2	C6H7N+
95.0492	484	C6H7O+
96.0444	4	C5H6NO+
102.0464	11	C8H6+
103.0542	14	C8H7+
104.0495	10	C7H6N+
105.0448	269	C6H5N2+
107.0491	138	C7H7O+
114.0465	1	C9H6+
115.0543	228	C9H7+
116.0621	2	C9H8+
117.0572	9	C8H7N+
126.0464	2	C10H6+
135.0552	7	C7H7N2O+
144.0572	2	C10H8O+
