Mass spectrum: Darunavir; LC-ESI-QFT; MS2; CE: 30; R=35000; [M+H]+
Name: Darunavir
Name: N-[(1S,2R)-1-benzyl-2-hydroxy-3-[isobutyl(sulfanilyl)amino]propyl]carbamic acid [(3aS,4R,6aR)-2,3,3a,4,5,6a-hexahydrofuro[2,3-b]furan-4-yl] ester
Formula: C27H37N3O7S
Exact mass: 547.23522
SMILES: CC(C)CN(CC(C(CC1=CC=CC=C1)NC(=O)OC2COC3C2CCO3)O)S(=O)(=O)C4=CC=C(C=C4)N
InChI: InChI=1S/C27H37N3O7S/c1-18(2)15-30(38(33,34)21-10-8-20(28)9-11-21)16-24(31)23(14-19-6-4-3-5-7-19)29-27(32)37-25-17-36-26-22(25)12-13-35-26/h3-11,18,22-26,31H,12-17,28H2,1-2H3,(H,29,32)/t22-,23-,24+,25-,26+/m0/s1
Instrument: Q Exactive Orbitrap Thermo Scientific
Instrument type: LC-ESI-QFT
Ms type: MS2
Ion mode: POSITIVE
Ionization: ESI
Fragmentation mode: HCD
Collision energy: 30 (nominal)
Resolution: 35000
Column name: XBridge C18 3.5um, 2.1x50mm, Waters
Retention time: 8.7 min
Base peak: 548.2426
Precursor m/z: 548.2425
Precursor type: [M+H]+
m/z	relative intensity	assigned
55.0544	1	C4H7+
57.0699	4	C4H9+
65.0385	3	C5H5+
67.0542	58	C5H7+
69.0335	999	C4H5O+
85.0284	1	C4H5O2+
85.0647	6	C5H9O+
86.0964	12	C5H12N+
91.0541	1	C7H7+
92.0492	9	C6H6N+
95.0491	10	C6H7O+
100.1121	4	C6H14N+
108.0445	13	C6H6NO+
110.0601	1	C6H8NO+
113.0597	292	C6H9O2+
113.1073	21	C6H13N2+
114.1151	5	C6H14N2+
120.0807	28	C8H10N+
127.1229	2	C7H15N2+
129.0698	12	C10H9+
131.0851	1	C10H11+
134.0964	1	C9H12N+
146.0965	19	C10H12N+
156.0114	420	C6H6NO2S+
158.0961	1	C11H12N+
164.1071	24	C10H14NO+
189.1021	2	C11H13N2O+
200.1433	16	C14H18N+
202.159	42	C14H20N+
218.1538	8	C14H20NO+
220.1696	7	C14H22NO+
237.1961	14	C14H25N2O+
241.1005	166	C11H17N2O2S+
245.165	14	C15H21N2O+
263.1755	5	C15H23N2O2+
357.1635	9	C20H25N2O2S+
375.1735	5	C20H27N2O3S+
392.2004	122	C20H30N3O3S+
