Mass spectrum: Letrozole; LC-ESI-QFT; MS2; CE: 180; R=35000; [M-H]-
Name: Letrozole
Name: 4-[(4-cyanophenyl)-(1,2,4-triazol-1-yl)methyl]benzonitrile
Formula: C17H11N5
Exact mass: 285.10145
SMILES: C1=CC(=CC=C1C#N)C(C2=CC=C(C=C2)C#N)N3C=NC=N3
InChI: InChI=1S/C17H11N5/c18-9-13-1-5-15(6-2-13)17(22-12-20-11-21-22)16-7-3-14(10-19)4-8-16/h1-8,11-12,17H
Instrument: Q Exactive Plus Orbitrap Thermo Scientific
Instrument type: LC-ESI-QFT
Ms type: MS2
Ion mode: NEGATIVE
Ionization: ESI
Fragmentation mode: HCD
Collision energy: 180 (nominal)
Resolution: 35000
Column name: XBridge C18 3.5um, 2.1x50mm, Waters
Retention time: 6.6 min
Base peak: 284.0946
Precursor m/z: 284.0942
Precursor type: [M-H]-
m/z	relative intensity	assigned
50.0036	244	C3N-
64.0193	147	C4H2N-
66.0098	999	C2N3-
68.0255	336	C2H2N3-
74.0038	34	C5N-
88.0192	25	C6H2N-
89.0145	20	C5HN2-
90.035	60	C6H4N-
102.0349	18	C7H4N-
113.0273	30	C8H3N-
114.0349	22	C8H4N-
115.0301	69	C7H3N2-
139.0303	108	C9H3N2-
141.0454	22	C9H5N2-
238.0412	28	C16H4N3-
