Mass spectrum: Climbazol; LC-ESI-ITFT; MS2; CE: 35%; R=7500; [M-H]-
Name: Climbazol
Name: Climbazole
Name: 1-(4-chloranylphenoxy)-1-imidazol-1-yl-3,3-dimethyl-butan-2-one
Formula: C15H17ClN2O2
Exact mass: 292.0979
SMILES: CC(C)(C)C(=O)C(N1C=CN=C1)OC2=CC=C(C=C2)Cl
InChI: InChI=1S/C15H17ClN2O2/c1-15(2,3)13(19)14(18-9-8-17-10-18)20-12-6-4-11(16)5-7-12/h4-10,14H,1-3H3
Instrument: LTQ Orbitrap XL Thermo Scientific
Instrument type: LC-ESI-ITFT
Ms type: MS2
Ion mode: NEGATIVE
Ionization: ESI
Fragmentation mode: CID
Collision energy: 35 % (nominal)
Resolution: 7500
Column name: XBridge C18 3.5um, 2.1x50mm, Waters
Retention time: 8.0 min
Base peak: 174.9562
Precursor m/z: 291.0906
Precursor type: [M-H]-
m/z	relative intensity	assigned
221.0125	181	C10H6ClN2O2-
223.053	164	C12H12ClO2-
233.0117	177	C11H6ClN2O2-
234.02	999	C11H7ClN2O2-
263.0957	169	C14H16ClN2O-
