Mass spectrum: Metribuzin; LC-ESI-ITFT; MS2; CE: 45%; R=7500; [M+H]+
Name: Metribuzin
Name: 1,2,4-Triazin-5(4H)-one, 4-amino-6-(1,1-dimethylethyl)-3-(methylthio)-
Name: 4-amino-6-tert-butyl-3-(methylthio)-1,2,4-triazin-5-one
Formula: C8H14N4OS
Exact mass: 214.0883
SMILES: S(C)C(=NN=C1C(C)(C)C)N(N)C1=O
InChI: InChI=1S/C8H14N4OS/c1-8(2,3)5-6(13)12(9)7(14-4)11-10-5/h9H2,1-4H3
Instrument: LTQ Orbitrap XL Thermo Scientific
Instrument type: LC-ESI-ITFT
Ms type: MS2
Ion mode: POSITIVE
Ionization: ESI
Fragmentation mode: HCD
Collision energy: 45 % (nominal)
Resolution: 7500
Column name: XBridge C18 3.5um, 2.1x50mm, Waters
Retention time: 6.9 min
Base peak: 215.0964
Precursor m/z: 215.0961
Precursor type: [M+H]+
m/z	relative intensity	assigned
57.0698	11	C4H9+
58.04	12	CH4N3+
59.9903	1	CH2NS+
62.0059	5	CH4NS+
69.0082	2	C2HN2O+
69.0699	7	C5H9+
74.0059	11	C2H4NS+
76.0216	5	C2H6NS+
82.0652	7	C5H8N+
84.0189	1	C2H2N3O+
84.0808	32	C5H10N+
87.0012	3	C2H3N2S+
89.0168	16	C2H5N2S+
89.0415	2	C4H9S+
97.0649	8	C6H9O+
99.0917	2	C5H11N2+
104.0276	3	C2H6N3S+
114.996	14	C3H3N2OS+
127.0868	2	C6H11N2O+
130.068	5	C6H12NS+
131.0275	12	C4H7N2OS+
131.0386	18	C3H7N4S+
132.0228	1	C3H6N3OS+
139.0867	2	C7H11N2O+
140.1053	2	C6H12N4+
145.0542	14	C4H9N4S+
155.0635	3	C7H11N2S+
159.0333	1	C4H7N4OS+
167.0933	2	C7H11N4O+
171.0589	23	C7H11N2OS+
183.0461	2	C7H9N3OS+
184.0544	4	C7H10N3OS+
186.0823	35	C8H14N2OS+
187.1014	532	C7H15N4S+
200.072	3	C7H12N4OS+
215.0964	999	C8H15N4OS+
