Mass spectrum: 8phiC8SPC; LC-ESI-QFT; MS2; CE: 120; R=35000; [M+H]+
Name: 8phiC8SPC
Name: Octacarboxy sulfophenyl carboxylic acid
Name: 8-(4-sulfophenyl)octanoic acid
Formula: C14H20O5S
Exact mass: 300.10314
SMILES: OS(=O)(=O)c1ccc(CCCCCCCC(=O)O)cc1
InChI: InChI=1S/C14H20O5S/c15-14(16)7-5-3-1-2-4-6-12-8-10-13(11-9-12)20(17,18)19/h8-11H,1-7H2,(H,15,16)(H,17,18,19)
Instrument: Q Exactive Plus Orbitrap Thermo Scientific
Instrument type: LC-ESI-QFT
Ms type: MS2
Ion mode: POSITIVE
Ionization: ESI
Fragmentation mode: HCD
Collision energy: 120 (nominal)
Resolution: 35000
Column name: XBridge C18 3.5um, 2.1x50mm, Waters
Retention time: 7.9 min
Base peak: 315.1259
Precursor m/z: 301.1104
Precursor type: [M+H]+
m/z	relative intensity	assigned
50.0151	55	C4H2+
51.023	138	C4H3+
53.0386	267	C4H5+
53.9974	2	C2NO+
55.0178	76	C3H3O+
55.0542	31	C4H7+
57.0699	1	C4H9+
63.0229	18	C5H3+
64.0307	1	C5H4+
65.0386	88	C5H5+
66.0464	10	C5H6+
67.0178	2	C4H3O+
67.0542	10	C5H7+
68.9793	2	C3HS+
75.0229	2	C6H3+
77.0385	286	C6H5+
78.0464	488	C6H6+
79.0542	194	C6H7+
81.0335	48	C5H5O+
81.0699	3	C6H9+
89.0386	108	C7H5+
90.0465	62	C7H6+
91.0543	471	C7H7+
94.0413	14	C6H6O+
95.0492	999	C6H7O+
97.0107	8	C5H5S+
102.0464	31	C8H6+
103.0542	393	C8H7+
104.062	257	C8H8+
105.0448	554	C6H5N2+
107.0491	340	C7H7O+
109.0106	13	C6H5S+
115.0543	350	C9H7+
116.0621	56	C9H8+
117.0699	189	C9H9+
119.0492	6	C8H7O+
121.0105	3	C7H5S+
128.0621	59	C10H8+
129.0699	38	C10H9+
130.0776	1	C10H10+
131.0492	11	C9H7O+
131.0855	10	C10H11+
133.0648	2	C9H9O+
134.0185	30	C8H6S+
141.0699	15	C11H9+
145.065	2	C10H9O+
147.0262	16	C9H7S+
152.0623	2	C12H8+
153.0698	3	C12H9+
155.0605	7	C10H7N2+
165.0699	2	C13H9+
171.011	6	C7H7O3S+
171.0261	3	C11H7S+
185.042	2	C12H9S+
