Mass spectrum: MCYR; LC-ESI-QFT; MS2; CE: 180%; R=17500; [M+H]+
Name: MCYR
Name: Microcystin YR
Name: (5R,8S,11R,12S,15S,18S,19S,22R)-15-[3-(diaminomethylideneamino)propyl]-8-[(4-hydroxyphenyl)methyl]-18-[(1E,3E,5S,6S)-6-methoxy-3,5-dimethyl-7-phenylhepta-1,3-dienyl]-1,5,12,19-tetramethyl-2-methylidene-3,6,9,13,16,20,25-heptaoxo-1,4,7,10,14,17,21-heptazacyclopentacosane-11,22-dicarboxylic acid
Class: NA
Formula: C52H72N10O13
Exact mass: 1044.5280
SMILES: CO[C@@H](Cc1ccccc1)[C@@H](C)\C=C(C)\C=C\[C@@H]2NC(=O)[C@H](CCCNC(N)=N)NC(=O)[C@@H](C)[C@@H](NC(=O)[C@H](Cc3ccc(O)cc3)NC(=O)[C@@H](C)NC(=O)C(=C)N(C)C(=O)CC[C@@H](NC(=O)[C@H]2C)C(O)=O)C(O)=O
InChI: InChI=1S/C52H72N10O13/c1-28(25-29(2)41(75-8)27-34-13-10-9-11-14-34)16-21-37-30(3)44(65)59-39(50(71)72)22-23-42(64)62(7)33(6)47(68)56-32(5)46(67)60-40(26-35-17-19-36(63)20-18-35)49(70)61-43(51(73)74)31(4)45(66)58-38(48(69)57-37)15-12-24-55-52(53)54/h9-11,13-14,16-21,25,29-32,37-41,43,63H,6,12,15,22-24,26-27H2,1-5,7-8H3,(H,56,68)(H,57,69)(H,58,66)(H,59,65)(H,60,67)(H,61,70)(H,71,72)(H,73,74)(H4,53,54,55)/b21-16+,28-25+/t29-,30-,31-,32+,37-,38-,39+,40-,41-,43+/m0/s1
Instrument: Q Exactive Plus Orbitrap Thermo Scientific
Instrument type: LC-ESI-QFT
Ms type: MS2
Ion mode: POSITIVE
Ionization: ESI
Fragmentation mode: HCD
Collision energy: 180 % (nominal)
Resolution: 17500
Column name: XBridge C18 3.5um, 2.1x50mm, Waters
Retention time: 8.039 min
Base peak: 523.2719
Precursor m/z: 1045.5353
Precursor type: [M+H]+
m/z	relative intensity	assigned
77.0385	65	C6H5+
79.0542	149	C6H7+
80.0495	41	C5H6N+
81.0334	10	C5H5O+
81.0448	5	C4H5N2+
81.07	7	C6H9+
82.0289	28	C4H4NO+
82.0652	50	C5H8N+
84.0444	104	C4H6NO+
85.0285	15	C4H5O2+
85.0761	12	C4H9N2+
89.0384	10	C7H5+
91.0543	803	C7H7+
92.062	8	C7H8+
93.0572	6	C6H7N+
93.07	62	C7H9+
94.0412	3	C6H6O+
94.0652	24	C6H8N+
95.0492	553	C6H7O+
95.0602	27	
95.0855	5	
96.0443	16	C5H6NO+
97.076	40	C5H9N2+
98.0601	58	C5H8NO+
99.0187	18	C3H3N2O2+
99.0917	30	C5H11N2+
102.0465	49	C8H6+
103.0543	999	C8H7+
105.0448	186	C6H5N2+
105.0699	272	C8H9+
106.0527	9	C6H6N2+
106.0651	6	C7H8N+
107.0492	44	C7H7O+
107.0855	117	C8H11+
108.0807	10	C7H10N+
109.0648	35	C7H9O+
110.0596	5	C6H8NO+
112.087	27	C5H10N3+
113.0232	19	C5H5O3+
113.0708	10	C5H9N2O+
115.0543	125	C9H7+
116.0621	13	C9H8+
117.0575	7	C8H7N+
117.07	44	C9H9+
118.0651	13	C8H8N+
119.0493	70	C8H7O+
119.0602	19	C7H7N2+
119.0857	12	C9H11+
120.0571	24	C8H8O+
120.0806	12	C8H10N+
121.076	36	C7H9N2+
122.0841	5	C7H10N2+
122.0968	4	C8H12N+
127.0867	76	C6H11N2O+
128.0619	21	C10H8+
129.0697	10	C10H9+
131.0853	10	C10H11+
135.0807	13	C9H11O+
136.0758	45	C8H10NO+
146.0602	8	C9H8NO+
149.0711	13	C8H9N2O+
165.0698	12	C13H9+
167.0819	14	C8H11N2O2+
170.0965	3	C12H12N+
