Mass spectrum: Uniconazole; LC-ESI-QFT; MS2; CE: 15; R=35000; [M+H]+
Name: Uniconazole
Name: 1-(4-chlorophenyl)-4,4-dimethyl-2-(1,2,4-triazol-1-yl)pent-1-en-3-ol
Formula: C15H18ClN3O
Exact mass: 291.11384
SMILES: CC(C)(C)C(C(=CC1=CC=C(C=C1)Cl)N2C=NC=N2)O
InChI: InChI=1S/C15H18ClN3O/c1-15(2,3)14(20)13(19-10-17-9-18-19)8-11-4-6-12(16)7-5-11/h4-10,14,20H,1-3H3
Instrument: Q Exactive Plus Orbitrap Thermo Scientific
Instrument type: LC-ESI-QFT
Ms type: MS2
Ion mode: POSITIVE
Ionization: ESI
Fragmentation mode: HCD
Collision energy: 15 (nominal)
Resolution: 35000
Column name: XBridge C18 3.5um, 2.1x50mm, Waters
Retention time: 11.8 min
Base peak: 292.1207
Precursor m/z: 292.1211
Precursor type: [M+H]+
m/z	relative intensity	assigned
70.0399	13	C2H4N3+
274.1111	1	C15H17ClN3+
292.121	999	C15H19ClN3O+
