Mass spectrum: Benfuracarb; LC-ESI-QFT; MS2; CE: 30%; R=17500; [M+H]+
Name: Benfuracarb
Name: ethyl 3-[[(2,2-dimethyl-3H-1-benzofuran-7-yl)oxycarbonyl-methylamino]sulfanyl-propan-2-ylamino]propanoate
Formula: C20H30N2O5S
Exact mass: 410.1875
SMILES: CCOC(=O)CCN(C(C)C)SN(C)C(=O)OC1=CC=CC2=C1OC(C2)(C)C
InChI: InChI=1S/C20H30N2O5S/c1-7-25-17(23)11-12-22(14(2)3)28-21(6)19(24)26-16-10-8-9-15-13-20(4,5)27-18(15)16/h8-10,14H,7,11-13H2,1-6H3
Instrument: Exploris 240 Orbitrap Thermo Scientific
Instrument type: LC-ESI-QFT
Ms type: MS2
Ion mode: POSITIVE
Ionization: ESI
Fragmentation mode: HCD
Collision energy: 30 % (nominal)
Resolution: 17500
Column name: XBridge C18 3.5um, 2.1x50mm, Waters
Retention time: 12.809 min
Base peak: 411.1952
Precursor m/z: 411.1948
Precursor type: [M+H]+
m/z	relative intensity	assigned
73.0285	11	C3H5O2+
90.0372	109	C3H8NS+
101.0598	28	C5H9O2+
102.0008	45	C3H4NOS+
130.086	4	C6H12NO2+
131.0166	7	C5H7O2S+
144.0478	82	C6H10NOS+
148.0428	43	C5H10NO2S+
158.1176	189	C8H16NO2+
190.0897	129	C8H16NO2S+
195.0475	999	C10H11O2S+
252.0692	288	C18H8N2+
