Mass spectrum: Olopatadine; LC-ESI-QFT; MS2; CE: 90; R=35000; [M-H]-
Name: Olopatadine
Name: 2-[(11Z)-11-[3-(dimethylazaniumyl)propylidene]-6H-benzo[c][1]benzoxepin-2-yl]acetate
Formula: C21H23NO3
Exact mass: 337.16779
SMILES: CN(C)CC/C=C\1/C2=CC=CC=C2COC3=C1C=C(C=C3)CC(=O)O
InChI: InChI=1S/C21H23NO3/c1-22(2)11-5-8-18-17-7-4-3-6-16(17)14-25-20-10-9-15(12-19(18)20)13-21(23)24/h3-4,6-10,12H,5,11,13-14H2,1-2H3,(H,23,24)/b18-8-
Instrument: Q Exactive Orbitrap Thermo Scientific
Instrument type: LC-ESI-QFT
Ms type: MS2
Ion mode: NEGATIVE
Ionization: ESI
Fragmentation mode: HCD
Collision energy: 90 (nominal)
Resolution: 35000
Column name: XBridge C18 3.5um, 2.1x50mm, Waters
Retention time: 7.0 min
Base peak: 336.1606
Precursor m/z: 336.1605
Precursor type: [M-H]-
m/z	relative intensity	assigned
93.0345	171	C6H5O-
106.0425	30	C7H6O-
107.0504	170	C7H7O-
115.0554	129	C9H7-
139.0552	108	C11H7-
141.0708	39	C11H9-
165.0709	571	C13H9-
177.071	34	C14H9-
178.0785	30	C14H10-
179.0862	32	C14H11-
189.0711	50	C15H9-
191.0867	999	C15H11-
193.0658	121	C14H9O-
202.0789	24	C16H10-
203.0868	134	C16H11-
205.1019	185	C16H13-
206.0736	58	C15H10O-
207.0812	186	C15H11O-
215.087	46	C17H11-
217.0659	334	C16H9O-
218.0739	263	C16H10O-
219.0815	423	C16H11O-
221.0968	28	C16H13O-
229.1018	31	C18H13-
230.0734	105	C17H10O-
231.0814	125	C17H11O-
233.0966	58	C17H13O-
