Mass spectrum: Nafcillin; LC-ESI-QFT; MS2; CE: 45; R=35000; [M-H]-
Name: Nafcillin
Name: (2S,5R,6R)-6-[(2-ethoxynaphthalene-1-carbonyl)amino]-3,3-dimethyl-7-oxo-4-thia-1-azabicyclo[3.2.0]heptane-2-carboxylic acid
Formula: C21H22N2O5S
Exact mass: 414.12494
SMILES: CCOC1=C(C(=O)N[C@H]2[C@H]3SC(C)(C)[C@@H](N3C2=O)C(O)=O)C2=CC=CC=C2C=C1
InChI: InChI=1S/C21H22N2O5S/c1-4-28-13-10-9-11-7-5-6-8-12(11)14(13)17(24)22-15-18(25)23-16(20(26)27)21(2,3)29-19(15)23/h5-10,15-16,19H,4H2,1-3H3,(H,22,24)(H,26,27)/t15-,16+,19-/m1/s1
Instrument: Q Exactive Plus Orbitrap Thermo Scientific
Instrument type: LC-ESI-QFT
Ms type: MS2
Ion mode: NEGATIVE
Ionization: ESI
Fragmentation mode: HCD
Collision energy: 45 (nominal)
Resolution: 35000
Column name: XBridge C18 3.5um, 2.1x50mm, Waters
Retention time: 9.7 min
Base peak: 413.1172
Precursor m/z: 413.1177
Precursor type: [M-H]-
m/z	relative intensity	assigned
57.9757	8	CNS-
60.9754	3	CHOS-
61.0117	3	C2H5S-
70.9835	3	C2HNS-
71.9914	2	C2H2NS-
72.9992	999	C2H3NS-
73.9831	3	C2H2OS-
74.0071	22	C2H4NS-
99.9862	97	C3H2NOS-
102.0382	1	C4H8NS-
143.0502	123	C2H11N2O3S-
166.0662	8	C12H8N-
168.0455	17	C11H6NO-
170.0378	1	C11H6O2-
170.0519	2	C7H10N2OS-
182.061	173	C12H8NO-
183.0688	5	C12H9NO-
186.0559	72	C11H8NO2-
192.0453	3	C13H6NO-
194.0611	7	C13H8NO-
198.0381	5	C12H8NS-
198.0564	1	C12H8NO2-
199.0223	6	C12H7OS-
200.0302	3	C12H8OS-
209.048	4	C13H7NO2-
210.056	47	C13H8NO2-
214.0333	1	C12H8NOS-
215.041	10	C12H9NOS-
225.0253	7	C13H7NOS-
226.0332	294	C13H8NOS-
243.0359	841	C13H9NO2S-
244.0436	7	C13H10NO2S-
272.075	40	C15H14NO2S-
