Mass spectrum: Dropropizine; LC-ESI-QFT; MS2; CE: 60; R=35000; [M+H]+
Name: Dropropizine
Name: 3-(4-phenylpiperazin-1-yl)propane-1,2-diol
Formula: C13H20N2O2
Exact mass: 236.15248
SMILES: C1CN(CCN1CC(CO)O)C2=CC=CC=C2
InChI: InChI=1S/C13H20N2O2/c16-11-13(17)10-14-6-8-15(9-7-14)12-4-2-1-3-5-12/h1-5,13,16-17H,6-11H2
Instrument: Q Exactive Orbitrap Thermo Scientific
Instrument type: LC-ESI-QFT
Ms type: MS2
Ion mode: POSITIVE
Ionization: ESI
Fragmentation mode: HCD
Collision energy: 60 (nominal)
Resolution: 35000
Column name: XBridge C18 3.5um, 2.1x50mm, Waters
Retention time: 2.9 min
Base peak: 237.1598
Precursor m/z: 237.1598
Precursor type: [M+H]+
m/z	relative intensity	assigned
56.0495	46	C3H6N+
57.0335	13	C3H5O+
57.0573	1	C3H7N+
58.0652	29	C3H8N+
68.0495	8	C4H6N+
70.0651	551	C4H8N+
71.0492	1	C4H7O+
72.0807	24	C4H10N+
74.06	53	C3H8NO+
75.0441	7	C3H7O2+
77.0383	18	C6H5+
79.0542	4	C6H7+
80.0494	10	C5H6N+
82.0651	32	C5H8N+
84.0807	247	C5H10N+
88.0757	15	C4H10NO+
91.0542	16	C7H7+
92.0494	7	C6H6N+
93.0572	10	C6H7N+
93.0698	13	C7H9+
94.0651	12	C6H8N+
95.0491	16	C6H7O+
96.0807	17	C6H10N+
100.0757	142	C5H10NO+
103.0542	34	C8H7+
104.0495	225	C7H6N+
105.0447	3	C6H5N2+
105.07	2	C8H9+
106.0651	44	C7H8N+
114.0913	26	C6H12NO+
116.0494	1	C8H6N+
116.0618	1	C9H8+
117.0572	11	C8H7N+
118.0651	152	C8H8N+
118.0862	497	C5H12NO2+
119.0728	17	C8H9N+
120.0807	999	C8H10N+
130.0653	6	C9H8N+
130.0863	12	C6H12NO2+
131.0729	14	C9H9N+
132.0807	606	C9H10N+
134.0964	19	C9H12N+
144.0808	38	C10H10N+
145.0759	22	C9H9N2+
146.0964	36	C10H12N+
147.0919	7	C9H11N2+
148.1116	2	C10H14N+
158.0965	2	C11H12N+
159.0916	82	C10H11N2+
160.0995	750	C10H12N2+
161.1073	21	C10H13N2+
162.115	23	C10H14N2+
163.1229	54	C10H15N2+
173.1073	22	C11H13N2+
174.115	34	C11H14N2+
175.123	160	C11H15N2+
186.1151	21	C12H14N2+
187.1228	2	C12H15N2+
188.131	17	C12H16N2+
189.1386	61	C12H17N2+
190.11	7	C11H14N2O+
201.1386	32	C13H17N2+
219.1492	33	C13H19N2O+
235.144	35	C13H19N2O2+
237.1597	363	C13H21N2O2+
