Mass spectrum: Cimetidine; LC-ESI-QFT; MS2; CE: 120; R=35000; [M+H]+
Name: Cimetidine
Name: 1-cyano-2-methyl-3-[2-[(5-methyl-1H-imidazol-4-yl)methylsulfanyl]ethyl]guanidine
Formula: C10H16N6S
Exact mass: 252.11572
SMILES: CC1=C(N=CN1)CSCCNC(=NC)NC#N
InChI: InChI=1S/C10H16N6S/c1-8-9(16-7-15-8)5-17-4-3-13-10(12-2)14-6-11/h7H,3-5H2,1-2H3,(H,15,16)(H2,12,13,14)
Instrument: Q Exactive Plus Orbitrap Thermo Scientific
Instrument type: LC-ESI-QFT
Ms type: MS2
Ion mode: POSITIVE
Ionization: ESI
Fragmentation mode: HCD
Collision energy: 120 (nominal)
Resolution: 35000
Column name: XBridge C18 3.5um, 2.1x50mm, Waters
Retention time: 2.0 min
Base peak: 253.1222
Precursor m/z: 253.123
Precursor type: [M+H]+
m/z	relative intensity	assigned
52.0182	1	C3H2N+
53.0022	14	C3HO+
53.0386	3	C4H5+
54.0338	410	C3H4N+
55.029	28	C2H3N2+
57.0447	218	C2H5N2+
58.995	5	C2H3S+
59.9902	4	CH2NS+
61.0106	277	C2H5S+
66.0338	3	C4H4N+
68.0243	78	C2H2N3+
68.0494	99	C4H6N+
69.0447	5	C3H5N2+
74.0058	49	C2H4NS+
76.0213	3	C2H6NS+
81.0446	2	C4H5N2+
82.0399	224	C3H4N3+
83.0602	4	C4H7N2+
84.9853	1	C2HN2S+
86.0058	4	C3H4NS+
95.0603	999	C5H7N2+
96.068	1	C5H8N2+
99.0665	14	C3H7N4+
103.0324	6	C3H7N2S+
117.048	75	C4H9N2S+
