Mass spectrum: Triallate; LC-ESI-QFT; MS2; CE: 120; R=35000; [M+H]+
Name: Triallate
Name: S-(2,3,3-trichloroprop-2-enyl) N,N-di(propan-2-yl)carbamothioate
Formula: C10H16Cl3NOS
Exact mass: 303.00182
SMILES: CC(C)N(C(C)C)C(=O)SCC(=C(Cl)Cl)Cl
InChI: InChI=1S/C10H16Cl3NOS/c1-6(2)14(7(3)4)10(15)16-5-8(11)9(12)13/h6-7H,5H2,1-4H3
Instrument: Q Exactive Plus Orbitrap Thermo Scientific
Instrument type: LC-ESI-QFT
Ms type: MS2
Ion mode: POSITIVE
Ionization: ESI
Fragmentation mode: HCD
Collision energy: 120 (nominal)
Resolution: 35000
Column name: XBridge C18 3.5um, 2.1x50mm, Waters
Retention time: 15.9 min
Base peak: 279.1584
Precursor m/z: 304.0091
Precursor type: [M+H]+
m/z	relative intensity	assigned
53.0022	5	C3HO+
53.9974	1	C2NO+
55.0541	1	C4H7+
58.0651	28	C3H8N+
60.984	9	C2H2Cl+
62.9632	1	CClO+
65.0386	1	C5H5+
68.9793	6	C3HS+
72.9839	1	C3H2Cl+
78.9403	11	CClS+
78.9945	1	C2H4ClO+
80.956	1	CH2ClS+
82.9449	999	CHCl2+
91.0543	4	C7H7+
96.9607	25	C2H3Cl2+
104.956	9	C3H2ClS+
106.945	14	C3HCl2+
116.9062	2	CCl3+
118.0323	1	C4H8NOS+
142.9217	36	C3H2Cl3+
