Mass spectrum: Thiofanox; LC-ESI-QFT; MS2; CE: 30%; R=17500; [M+H]+
Name: Thiofanox
Name: [(3,3-dimethyl-1-methylsulfanylbutan-2-ylidene)amino] N-methylcarbamate
Formula: C9H18N2O2S
Exact mass: 218.1089
SMILES: CC(C)(C)C(=NOC(=O)NC)CSC
InChI: InChI=1S/C9H18N2O2S/c1-9(2,3)7(6-14-5)11-13-8(12)10-4/h6H2,1-5H3,(H,10,12)
Instrument: Exploris 240 Orbitrap Thermo Scientific
Instrument type: LC-ESI-QFT
Ms type: MS2
Ion mode: POSITIVE
Ionization: ESI
Fragmentation mode: HCD
Collision energy: 30 % (nominal)
Resolution: 17500
Column name: XBridge C18 3.5um, 2.1x50mm, Waters
Retention time: 6.484 min
Base peak: 302.1748
Precursor m/z: 219.1162
Precursor type: [M+H]+
m/z	relative intensity	assigned
57.0698	999	C4H9+
61.0106	310	C2H5S+
76.0392	203	C2H6NO2+
144.0841	331	C7H14NS+
