Mass spectrum: Diatrizoate; LC-ESI-ITFT; MS2; CE: 75%; R=7500; [M+H]+
Name: Diatrizoate
Name: Diatrizoic acid
Name: 3,5-diacetamido-2,4,6-triiodo-benzoic acid
Formula: C11H9I3N2O4
Exact mass: 613.7697
SMILES: CC(=O)NC1=C(I)C(C(O)=O)=C(I)C(NC(C)=O)=C1I
InChI: InChI=1S/C11H9I3N2O4/c1-3(17)15-9-6(12)5(11(19)20)7(13)10(8(9)14)16-4(2)18/h1-2H3,(H,15,17)(H,16,18)(H,19,20)
Instrument: LTQ Orbitrap XL Thermo Scientific
Instrument type: LC-ESI-ITFT
Ms type: MS2
Ion mode: POSITIVE
Ionization: ESI
Fragmentation mode: HCD
Collision energy: 75 % (nominal)
Resolution: 7500
Column name: XBridge C18 3.5um, 2.1x50mm, Waters
Retention time: 1.6 min
Base peak: 631.8031
Precursor m/z: 614.7769
Precursor type: [M+H]+
m/z	relative intensity	assigned
78.0339	48	C5H4N+
79.0414	73	C5H5N+
106.0286	54	C6H4NO+
107.0368	97	C6H5NO+
118.0525	148	C7H6N2+
120.044	143	C7H6NO+
120.0686	52	C7H8N2+
146.0472	209	C8H6N2O+
148.0392	999	C8H6NO2+
148.063	203	C8H8N2O+
159.0552	174	C9H7N2O+
164.0582	36	C8H8N2O2+
165.0418	111	C8H7NO3+
174.0419	75	C9H6N2O2+
180.0528	193	C8H8N2O3+
187.0497	134	C10H7N2O2+
189.066	118	C10H9N2O2+
192.0527	541	C9H8N2O3+
203.9306	49	C5H3IN+
205.0607	151	C10H9N2O3+
215.0444	63	C11H7N2O3+
219.0396	145	C10H7N2O4+
233.0553	743	C11H9N2O4+
325.9416	32	C10H5IN3O2+
