Mass spectrum: Dexamethasone acetate; LC-ESI-QFT; MS2; CE: 180; R=35000; [M-H]-
Name: Dexamethasone acetate
Name: Dexamethason-21-acetate
Name: [2-(9-fluoro-11,17-dihydroxy-10,13,16-trimethyl-3-oxo-6,7,8,11,12,14,15,16-octahydrocyclopenta[a]phenanthren-17-yl)-2-oxoethyl] acetate
Formula: C24H31FO6
Exact mass: 434.21047
SMILES: CC1CC2C3CCC4=CC(=O)C=CC4(C3(C(CC2(C1(C(=O)COC(=O)C)O)C)O)F)C
InChI: InChI=1S/C24H31FO6/c1-13-9-18-17-6-5-15-10-16(27)7-8-21(15,3)23(17,25)19(28)11-22(18,4)24(13,30)20(29)12-31-14(2)26/h7-8,10,13,17-19,28,30H,5-6,9,11-12H2,1-4H3
Instrument: Q Exactive Plus Orbitrap Thermo Scientific
Instrument type: LC-ESI-QFT
Ms type: MS2
Ion mode: NEGATIVE
Ionization: ESI
Fragmentation mode: HCD
Collision energy: 180 (nominal)
Resolution: 35000
Column name: XBridge C18 3.5um, 2.1x50mm, Waters
Retention time: 10.3 min
Base peak: 479.2081
Precursor m/z: 433.2032
Precursor type: [M-H]-
m/z	relative intensity	assigned
55.0189	23	C3H3O-
59.0139	999	C2H3O2-
65.0035	2	C4HO-
65.0397	18	C5H5-
67.0189	3	C4H3O-
68.9983	6	C3HO2-
89.0397	13	C7H5-
91.0553	4	C7H7-
93.0345	22	C6H5O-
102.0476	15	C8H6-
103.0554	16	C8H7-
107.0505	3	C7H7O-
115.0553	105	C9H7-
117.0346	31	C8H5O-
119.0502	12	C8H7O-
130.0424	41	C9H6O-
131.0502	21	C9H7O-
139.0554	5	C11H7-
141.0712	5	C11H9-
143.0502	65	C10H7O-
145.0292	32	C9H5O2-
147.045	4	C9H7O2-
158.0374	12	C10H6O2-
165.071	25	C13H9-
167.0505	18	C12H7O-
169.0657	5	C12H9O-
173.0243	10	C10H5O3-
180.0582	17	C13H8O-
182.0374	3	C12H6O2-
189.0708	22	C15H9-
191.0511	3	C14H7O-
193.0658	31	C14H9O-
202.0785	22	C16H10-
204.0584	5	C15H8O-
205.0659	3	C15H9O-
206.0742	5	C15H10O-
217.0656	29	C16H9O-
219.0816	10	C16H11O-
230.0733	31	C17H10O-
231.0813	4	C17H11O-
243.0824	2	C18H11O-
245.0614	12	C17H9O2-
275.1082	3	C19H15O2-
