Mass spectrum: Chlorfenvinphos; LC-ESI-QFT; MS2; CE: 30; R=35000; [M+H]+
Name: Chlorfenvinphos
Name: 2,4-Dichloro-alpha-(chloromethylene)benzyl alcohol diethyl phosphate
Name: [(Z)-2-chloranyl-1-(2,4-dichlorophenyl)ethenyl] diethyl phosphate
Formula: C12H14Cl3O4P
Exact mass: 357.96953
SMILES: CCOP(=O)(OCC)O/C(=C\Cl)/C1=C(C=C(C=C1)Cl)Cl
InChI: InChI=1S/C12H14Cl3O4P/c1-3-17-20(16,18-4-2)19-12(8-13)10-6-5-9(14)7-11(10)15/h5-8H,3-4H2,1-2H3/b12-8-
Instrument: Q Exactive Orbitrap Thermo Scientific
Instrument type: LC-ESI-QFT
Ms type: MS2
Ion mode: POSITIVE
Ionization: ESI
Fragmentation mode: HCD
Collision energy: 30 (nominal)
Resolution: 35000
Column name: XBridge C18 3.5um, 2.1x50mm, Waters
Retention time: 13.3 min
Base peak: 358.9778
Precursor m/z: 358.9768
Precursor type: [M+H]+
m/z	relative intensity	assigned
81.9813	1	H3O3P+
98.9844	927	CH4ClO3+
109.0051	10	C3H6ClO2+
116.9949	17	H6O5P+
127.0157	999	C3H8ClO3+
145.0264	12	C2H10O5P+
155.047	595	C5H12ClO3+
169.9686	107	C8H4Cl2+
204.9377	919	C8H4Cl3+
