Mass spectrum: Climbazol; LC-ESI-ITFT; MS2; CE: 60%; R=7500; [M+H]+
Name: Climbazol
Name: Climbazole
Name: 1-(4-chloranylphenoxy)-1-imidazol-1-yl-3,3-dimethyl-butan-2-one
Formula: C15H17ClN2O2
Exact mass: 292.0979
SMILES: CC(C)(C)C(=O)C(N1C=CN=C1)OC2=CC=C(C=C2)Cl
InChI: InChI=1S/C15H17ClN2O2/c1-15(2,3)13(19)14(18-9-8-17-10-18)20-12-6-4-11(16)5-7-12/h4-10,14H,1-3H3
Instrument: LTQ Orbitrap XL Thermo Scientific
Instrument type: LC-ESI-ITFT
Ms type: MS2
Ion mode: POSITIVE
Ionization: ESI
Fragmentation mode: HCD
Collision energy: 60 % (nominal)
Resolution: 7500
Column name: XBridge C18 3.5um, 2.1x50mm, Waters
Retention time: 8.1 min
Base peak: 293.1064
Precursor m/z: 293.1051
Precursor type: [M+H]+
m/z	relative intensity	assigned
55.0542	73	C4H7+
57.0698	272	C4H9+
67.0541	44	C5H7+
69.0699	999	C5H9+
70.0777	133	C5H10+
77.0384	46	C6H5+
81.0451	24	C4H5N2+
82.0526	58	C4H6N2+
98.9996	165	C5H4Cl+
109.0395	145	C5H5N2O+
113.0152	141	C6H6Cl+
126.9945	513	C6H4ClO+
129.0101	380	C6H6ClO+
137.1076	27	C8H13N2+
139.0056	108	C6H4ClN2+
141.0101	599	C7H6ClO+
155.0258	272	C8H8ClO+
