Mass spectrum: Albendazole; LC-ESI-QFT; MS2; CE: 150; R=35000; [M-H]-
Name: Albendazole
Name: Methyl N-(6-propylsulfanyl-1H-benzimidazol-2-yl)carbamate
Formula: C12H15N3O2S
Exact mass: 265.08850
SMILES: CCCSC1=CC2=C(C=C1)N=C(N2)NC(=O)OC
InChI: InChI=1S/C12H15N3O2S/c1-3-6-18-8-4-5-9-10(7-8)14-11(13-9)15-12(16)17-2/h4-5,7H,3,6H2,1-2H3,(H2,13,14,15,16)
Instrument: Q Exactive Plus Orbitrap Thermo Scientific
Instrument type: LC-ESI-QFT
Ms type: MS2
Ion mode: NEGATIVE
Ionization: ESI
Fragmentation mode: HCD
Collision energy: 150 (nominal)
Resolution: 35000
Column name: XBridge C18 3.5um, 2.1x50mm, Waters
Retention time: 7.8 min
Base peak: 232.0549
Precursor m/z: 264.0812
Precursor type: [M-H]-
m/z	relative intensity	assigned
50.0036	17	C3N-
56.9805	31	C2HS-
57.9758	999	CNS-
64.0068	4	C3N2-
64.0193	2	C4H2N-
65.0146	160	C3HN2-
71.9678	2	C2OS-
74.0038	75	C5N-
76.0194	28	C5H2N-
77.0147	1	C4HN2-
79.9728	12	C4S-
80.9806	6	C4HS-
81.9758	225	C3NS-
83.9789	1	C2N2S-
83.9914	1	C3H2NS-
89.0147	44	C5HN2-
90.0099	15	C4N3-
90.0223	2	C5H2N2-
91.0302	4	C5H3N2-
94.9836	5	C4HNS-
101.0146	25	C6HN2-
102.0225	2	C6H2N2-
105.9758	50	C5NS-
106.9836	2	C5HNS-
107.9791	1	C4N2S-
107.9915	6	C5H2NS-
108.9867	24	C4HN2S-
116.0255	5	C6H2N3-
120.9994	1	C6H3NS-
126.0101	1	C7N3-
127.0177	7	C7HN3-
129.0334	8	C7H3N3-
132.9867	42	C6HN2S-
135.0025	23	C6H3N2S-
156.0206	14	C8H2N3O-
159.9977	197	C7H2N3S-
161.0057	1	C7H3N3S-
189	1	C8H3N3OS-
