Mass spectrum: Imidaclothiz; LC-ESI-QFT; MS2; CE: 45%; R=17500; [M+H]+
Name: Imidaclothiz
Name: N-[1-[(2-chloro-1,3-thiazol-5-yl)methyl]-4,5-dihydroimidazol-2-yl]nitramide
Formula: C7H8ClN5O2S
Exact mass: 261.0087
SMILES: C1CN(C(=N1)N[N+](=O)[O-])CC2=CN=C(S2)Cl
InChI: InChI=1S/C7H8ClN5O2S/c8-6-10-3-5(16-6)4-12-2-1-9-7(12)11-13(14)15/h3H,1-2,4H2,(H,9,11)
Instrument: Exploris 240 Orbitrap Thermo Scientific
Instrument type: LC-ESI-QFT
Ms type: MS2
Ion mode: POSITIVE
Ionization: ESI
Fragmentation mode: HCD
Collision energy: 45 % (nominal)
Resolution: 17500
Column name: XBridge C18 3.5um, 2.1x50mm, Waters
Retention time: 3.937 min
Base peak: 239.15
Precursor m/z: 262.016
Precursor type: [M+H]+
m/z	relative intensity	assigned
56.0494	27	C3H6N+
99.0553	8	C4H7N2O+
121.0633	21	C6H7N3+
122.0712	118	C6H8N3+
123.0792	14	C6H9N3+
131.9669	162	C4H3ClNS+
139.0327	24	C6H7N2S+
152.0146	9	C5H4N4S+
154.0437	9	C6H8N3S+
155.0511	40	C6H9N3S+
156.0325	9	C6H7ClN3+
179.038	16	C7H7N4S+
180.0465	124	C7H8N4S+
181.0542	999	C7H9N4S+
215.0157	14	C7H8ClN4S+
