Mass spectrum: Oxytetracycline; LC-ESI-QFT; MS2; CE: 75; R=35000; [M+H]+
Name: Oxytetracycline
Name: (4S,4aR,5S,5aR,6S,12aS)-4-(Dimethylamino)-3,5,6,10,12,12a-hexahydroxy-6-methyl-1,11-dioxo-1,4,4a,5,5a,6,11,12a-octahydro-2-tetracenecarboxamide
Name: 2-carbamoyl-4-(dimethylazaniumyl)-5,6,10,11,12a-pentahydroxy-6-methyl-3,12-dioxo-4,4a,5,5a-tetrahydrotetracen-1-olate
Formula: C22H24N2O9
Exact mass: 460.14818
SMILES: CC1(C2C(C3C(C(=O)C(=C(C3(C(=O)C2=C(C4=C1C=CC=C4O)O)O)O)C(=O)N)N(C)C)O)O
InChI: InChI=1S/C22H24N2O9/c1-21(32)7-5-4-6-8(25)9(7)15(26)10-12(21)17(28)13-14(24(2)3)16(27)11(20(23)31)19(30)22(13,33)18(10)29/h4-6,12-14,17,25-26,28,30,32-33H,1-3H3,(H2,23,31)
Instrument: Q Exactive Plus Orbitrap Thermo Scientific
Instrument type: LC-ESI-QFT
Ms type: MS2
Ion mode: POSITIVE
Ionization: ESI
Fragmentation mode: HCD
Collision energy: 75 (nominal)
Resolution: 35000
Column name: XBridge C18 3.5um, 2.1x50mm, Waters
Retention time: 4.3 min
Base peak: 461.1547
Precursor m/z: 461.1555
Precursor type: [M+H]+
m/z	relative intensity	assigned
50.0151	1	C4H2+
51.0229	2	C4H3+
53.0022	16	C3HO+
53.0386	12	C4H5+
55.0179	92	C3H3O+
55.0543	5	C4H7+
56.0495	25	C3H6N+
57.0335	2	C3H5O+
57.0572	1	C3H7N+
58.0652	429	C3H8N+
63.0227	1	C5H3+
65.0386	6	C5H5+
67.0178	11	C4H3O+
68.0495	30	C4H6N+
68.9971	56	C3HO2+
69.0335	17	C4H5O+
70.0652	164	C4H8N+
71.0128	29	C3H3O2+
71.0366	25	C3H5NO+
72.0444	22	C3H6NO+
72.0808	3	C4H10N+
73.0283	1	C3H5O2+
74.06	5	C3H8NO+
77.0383	2	C6H5+
79.0178	32	C5H3O+
79.0542	1	C6H7+
80.0494	10	C5H6N+
81.0336	18	C5H5O+
81.0575	1	C5H7N+
82.0651	29	C5H8N+
83.0128	112	C4H3O2+
83.0365	6	C4H5NO+
84.0444	30	C4H6NO+
84.0808	6	C5H10N+
85.0284	1	C4H5O2+
86.0601	103	C4H8NO+
91.0543	10	C7H7+
94.0652	9	C6H8N+
95.0128	35	C5H3O2+
96.0445	5	C5H6NO+
96.0807	6	C6H10N+
97.0285	24	C5H5O2+
97.0522	6	C5H7NO+
98.0601	667	C5H8NO+
99.0077	10	C4H3O3+
100.0757	11	C5H10NO+
101.0235	1	C4H5O3+
102.046	2	C8H6+
103.0543	15	C8H7+
105.0336	1	C7H5O+
106.0652	5	C7H8N+
107.0128	36	C6H3O2+
107.0493	5	C7H7O+
108.0443	5	C6H6NO+
109.0285	54	C6H5O2+
110.0601	8	C6H8NO+
111.0077	7	C5H3O3+
112.0757	1	C6H10NO+
114.0551	1	C5H8NO2+
115.0543	136	C9H7+
116.0619	2	C9H8+
117.0699	95	C9H9+
119.0492	6	C8H7O+
121.0284	10	C7H5O2+
121.0648	2	C8H9O+
122.06	6	C7H8NO+
123.0077	57	C6H3O3+
124.0394	5	C6H6NO2+
124.0758	14	C7H10NO+
125.0234	22	C6H5O3+
126.0463	1	C10H6+
126.055	30	C6H8NO2+
127.0543	240	C10H7+
128.0621	44	C10H8+
128.0706	15	C6H10NO2+
129.0699	175	C10H9+
131.0494	10	C9H7O+
131.0856	13	C10H11+
134.0601	2	C8H8NO+
135.0077	14	C7H3O3+
137.0235	59	C7H5O3+
138.0553	2	C7H8NO2+
139.0263	7	C6H5NO3+
139.0541	6	C11H7+
140.0708	1	C7H10NO2+
141.0182	9	C6H5O4+
141.0699	29	C11H9+
143.0492	2	C10H7O+
143.0856	7	C11H11+
144.057	16	C10H8O+
145.0649	677	C10H9O+
147.0442	5	C9H7O2+
147.0805	13	C10H11O+
150.0548	6	C8H8NO2+
151.0027	11	C7H3O4+
151.0624	1	C8H9NO2+
152.0344	2	C7H6NO3+
152.0621	27	C12H8+
152.0707	15	C8H10NO2+
153.0184	50	C7H5O4+
153.0699	33	C12H9+
154.0498	26	C7H8NO3+
154.0776	4	C12H10+
155.0494	84	C11H7O+
155.0604	124	C10H7N2+
155.0856	21	C12H11+
156.0572	13	C11H8O+
156.0657	2	C7H10NO3+
157.065	117	C11H9O+
158.0726	2	C11H10O+
159.0805	45	C11H11O+
160.052	21	C10H8O2+
161.0597	1	C10H9O2+
162.0548	3	C9H8NO2+
163.0026	2	C8H3O4+
163.0391	11	C9H7O3+
165.0182	10	C8H5O4+
165.07	82	C13H9+
166.0499	1	C8H8NO3+
166.0778	7	C13H10+
167.0491	5	C12H7O+
167.0855	27	C13H11+
168.0572	28	C12H8O+
169.0131	11	C7H5O5+
169.0649	42	C12H9O+
169.0764	6	C11H9N2+
170.0356	1	C11H6O2+
170.0725	1	C12H10O+
171.044	12	C11H7O2+
171.0805	40	C12H11O+
172.0526	1	C11H8O2+
172.0605	11	C7H10NO4+
173.0598	58	C11H9O2+
174.0676	40	C11H10O2+
175.0755	21	C11H11O2+
176.0623	10	C14H8+
177.07	23	C14H9+
178.0499	3	C9H8NO3+
178.0777	32	C14H10+
179.0857	38	C14H11+
180.057	6	C13H8O+
180.0655	9	C9H10NO3+
181.0132	14	C8H5O5+
181.0649	55	C13H9O+
182.0728	17	C13H10O+
183.0436	2	C12H7O2+
183.0555	49	C11H7N2O+
183.0806	50	C13H11O+
184.052	220	C12H8O2+
185.0599	124	C12H9O2+
186.0312	19	C11H6O3+
186.0678	11	C12H10O2+
187.0391	39	C11H7O3+
187.0755	70	C12H11O2+
188.0468	2	C11H8O3+
189.0547	2	C11H9O3+
189.07	23	C15H9+
190.0779	8	C15H10+
191.0856	2	C15H11+
192.0571	16	C14H8O+
193.0649	31	C14H9O+
194.0727	14	C14H10O+
195.0806	88	C14H11O+
196.052	52	C13H8O2+
197.0599	62	C13H9O2+
198.0677	27	C13H10O2+
199.0388	6	C12H7O3+
199.0755	35	C13H11O2+
200.047	17	C12H8O3+
201.0548	999	C12H9O3+
203.071	1	C12H11O3+
204.0414	3	C11H8O4+
205.0651	34	C15H9O+
206.0726	7	C15H10O+
207.0806	39	C15H11O+
208.0523	18	C14H8O2+
208.0608	2	C10H10NO4+
209.0598	30	C14H9O2+
210.0676	31	C14H10O2+
211.0391	17	C13H7O3+
211.0755	241	C14H11O2+
212.047	673	C13H8O3+
213.0548	262	C13H9O3+
214.0625	18	C13H10O3+
217.0134	1	C11H5O5+
217.0502	2	C12H9O4+
217.0651	11	C16H9O+
218.0575	5	C12H10O4+
218.0726	5	C16H10O+
219.0648	2	C12H11O4+
219.0805	8	C16H11O+
220.0524	11	C15H8O2+
221.0599	50	C15H9O2+
222.068	11	C15H10O2+
223.0754	78	C15H11O2+
224.047	43	C14H8O3+
225.0546	24	C14H9O3+
226.0626	68	C14H10O3+
227.0341	51	C13H7O4+
227.0704	54	C14H11O3+
228.0418	9	C13H8O4+
229.0499	20	C13H9O4+
231.0652	2	C13H11O4+
233.06	23	C16H9O2+
234.0674	13	C16H10O2+
235.0754	70	C16H11O2+
236.047	44	C15H8O3+
237.0548	68	C15H9O3+
238.0625	38	C15H10O3+
239.034	11	C14H7O4+
239.0704	101	C15H11O3+
240.0419	310	C14H8O4+
241.0498	23	C14H9O4+
241.0854	1	C15H13O3+
242.0575	178	C14H10O4+
243.0652	2	C14H11O4+
245.0595	6	C17H9O2+
247.0752	7	C17H11O2+
248.0463	5	C16H8O3+
249.0548	22	C16H9O3+
250.0626	20	C16H10O3+
251.0704	82	C16H11O3+
252.0418	73	C15H8O4+
253.0495	14	C15H9O4+
254.0575	236	C15H10O4+
255.0289	70	C14H7O5+
255.0653	29	C15H11O4+
256.0366	12	C14H8O5+
256.0734	1	C15H12O4+
257.0442	8	C14H9O5+
257.081	10	C15H13O4+
258.0524	136	C14H10O5+
259.0601	5	C14H11O5+
261.0548	22	C17H9O3+
262.062	6	C17H10O3+
263.0704	36	C17H11O3+
264.0417	28	C16H8O4+
264.0781	1	C17H12O3+
265.0497	45	C16H9O4+
266.0575	68	C16H10O4+
267.0292	6	C15H7O5+
267.0651	18	C16H11O4+
268.0368	761	C15H8O5+
269.0446	1	C15H9O5+
269.0807	1	C16H13O4+
270.0524	47	C15H10O5+
271.0595	5	C15H11O5+
275.0701	1	C18H11O3+
276.0414	7	C17H8O4+
277.05	10	C17H9O4+
278.0578	13	C17H10O4+
279.0652	50	C17H11O4+
280.0372	2	C16H8O5+
281.0442	2	C16H9O5+
282.0518	4	C16H10O5+
282.0768	1	C16H12NO4+
283.0602	149	C16H11O5+
285.0757	2	C16H13O5+
286.0469	11	C15H10O6+
289.0496	11	C18H9O4+
290.058	2	C18H10O4+
291.0655	10	C18H11O4+
292.0366	21	C17H8O5+
293.0444	7	C17H9O5+
294.0523	72	C17H10O5+
295.06	2	C17H11O5+
296.092	1	C17H14NO4+
297.0996	15	C17H15NO4+
300.0628	2	C16H12O6+
301.0704	8	C16H13O6+
303.0293	2	C18H7O5+
305.0446	2	C18H9O5+
307.0599	7	C18H11O5+
308.0684	1	C18H12O5+
309.0753	1	C18H13O5+
317.0444	2	C19H9O5+
319.0605	2	C19H11O5+
320.0305	6	C18H8O6+
321.0394	16	C18H9O6+
322.0474	78	C18H10O6+
335.0553	3	C19H11O6+
348.0853	2	C20H14NO5+
350.0423	122	C19H10O7+
361.0585	7	C20H11NO6+
376.0806	1	C21H14NO6+
