Mass spectrum: O-Des[2-aminoethyl]-O-carboxymethyl dehydroamlodipine; LC-ESI-QFT; MS2; CE: 150%; R=15000; [M+H]+
Name: O-Des[2-aminoethyl]-O-carboxymethyl dehydroamlodipine
Name: 2-((4-(2-Chlorophenyl)-3-ethoxycarbonyl-5-methoxycarbonyl-6-methyl-2-pyridyl)methoxy)acetic acid
Name: 2-[[4-(2-chlorophenyl)-3-ethoxycarbonyl-5-methoxycarbonyl-6-methylpyridin-2-yl]methoxy]acetic acid
Formula: C20H20ClNO7
Exact mass: 421.0928
SMILES: CCOC(=O)C1=C(C(=C(N=C1COCC(=O)O)C)C(=O)OC)C2=CC=CC=C2Cl
InChI: InChI=1S/C20H20ClNO7/c1-4-29-20(26)18-14(9-28-10-15(23)24)22-11(2)16(19(25)27-3)17(18)12-7-5-6-8-13(12)21/h5-8H,4,9-10H2,1-3H3,(H,23,24)
Instrument: Orbitrap Exploris 240 Thermo Scientific
Instrument type: LC-ESI-QFT
Ms type: MS2
Ion mode: POSITIVE
Ionization: ESI
Fragmentation mode: HCD
Collision energy: 150 % (nominal)
Resolution: 15000
Column name: Atlantis C18 3um, 3.0x150mm, Waters
Retention time: 18.434 min
Base peak: 422.0997
Precursor m/z: 422.1001
Precursor type: [M+H]+
Precursor intensity: 667762176
m/z	relative intensity	assigned
63.023	22	C5H3+
74.0153	8	C6H2+
75.0229	56	C6H3+
76.0307	21	C6H4+
77.0386	18	C6H5+
87.0229	11	C7H3+
88.0309	19	C7H4+
89.0386	56	C7H5+
98.0151	10	C8H2+
99.0229	91	C8H3+
102.0463	11	C8H6+
113.0386	85	C9H5+
114.0466	52	C9H6+
115.0541	79	C9H7+
123.0231	17	C10H3+
124.0185	7	C9H2N+
125.0384	77	C10H5+
126.0464	435	C10H6+
127.0541	28	C10H7+
128.0622	17	C10H8+
137.0386	42	C11H5+
138.0462	118	C11H6+
139.0542	999	C11H7+
140.0494	179	C10H6N+
140.0621	118	C11H8+
149.0153	148	C9H6Cl+
149.0386	12	C12H5+
150.0322	14	C5H9ClNO2+
150.0464	160	C12H6+
151.0413	54	C11H5N+
152.0492	9	C11H6N+
152.0624	81	C12H8+
155.0612	16	C9H12Cl+
160.0075	16	C10H5Cl+
164.0493	64	C12H6N+
165.0568	21	C12H7N+
166.0651	180	C12H8N+
167.0493	11	C12H7O+
167.0728	51	C12H9N+
168.0576	7	C9H11ClN+
173.0153	59	C11H6Cl+
174.0107	12	C10H5ClN+
177.0576	23	C13H7N+
179.06	12	
194.0595	11	C13H8NO+
