Mass spectrum: Atropine; LC-ESI-QFT; MS2; CE: 45; R=35000; [M+H]+
Name: Atropine
Name: (1R,5S)-8-Methyl-8-azabicyclo[3.2.1]oct-3-yl tropate
Formula: C17H23NO3
Exact mass: 289.16779
SMILES: CN1[C@@H]2CC[C@H]1C[C@H](C2)OC(=O)C(CO)C3=CC=CC=C3
InChI: InChI=1S/C17H23NO3/c1-18-13-7-8-14(18)10-15(9-13)21-17(20)16(11-19)12-5-3-2-4-6-12/h2-6,13-16,19H,7-11H2,1H3/t13-,14+,15+,16?
Instrument: Q Exactive Orbitrap Thermo Scientific
Instrument type: LC-ESI-QFT
Ms type: MS2
Ion mode: POSITIVE
Ionization: ESI
Fragmentation mode: HCD
Collision energy: 45 (nominal)
Resolution: 35000
Column name: XBridge C18 3.5um, 2.1x50mm, Waters
Retention time: 4.3 min
Base peak: 290.1752
Precursor m/z: 290.1751
Precursor type: [M+H]+
m/z	relative intensity	assigned
58.0652	1	C3H8N+
67.0542	14	C5H7+
68.0493	3	C4H6N+
70.0651	6	C4H8N+
77.0385	3	C6H5+
79.0542	1	C6H7+
82.0651	12	C5H8N+
83.073	6	C5H9N+
91.0542	36	C7H7+
93.0698	309	C7H9+
95.0492	6	C6H7O+
95.0729	1	C6H9N+
95.0855	15	C7H11+
96.0807	9	C6H10N+
98.0964	4	C6H12N+
103.0541	3	C8H7+
105.0448	3	C6H5N2+
107.0856	1	C8H11+
121.0648	14	C8H9O+
122.0962	1	C8H12N+
124.1121	999	C8H14N+
125.1197	18	C8H15N+
140.1068	2	C8H14NO+
142.1227	16	C8H16NO+
214.1588	4	C15H20N+
260.1645	16	C16H22NO2+
290.175	510	C17H24NO3+
