Mass spectrum: Dicloxacillin; LC-ESI-QFT; MS2; CE: 30; R=35000; [M+H]+
Name: Dicloxacillin
Name: 6-[[3-(2,6-dichlorophenyl)-5-methyl-1,2-oxazole-4-carbonyl]amino]-3,3-dimethyl-7-oxo-4-thia-1-azabicyclo[3.2.0]heptane-2-carboxylic acid
Formula: C19H17Cl2N3O5S
Exact mass: 469.02660
SMILES: CC1=C(C(=NO1)C2=C(C=CC=C2Cl)Cl)C(=O)NC3C4N(C3=O)C(C(S4)(C)C)C(=O)O
InChI: InChI=1S/C19H17Cl2N3O5S/c1-7-10(12(23-29-7)11-8(20)5-4-6-9(11)21)15(25)22-13-16(26)24-14(18(27)28)19(2,3)30-17(13)24/h4-6,13-14,17H,1-3H3,(H,22,25)(H,27,28)
Instrument: Q Exactive Plus Orbitrap Thermo Scientific
Instrument type: LC-ESI-QFT
Ms type: MS2
Ion mode: POSITIVE
Ionization: ESI
Fragmentation mode: HCD
Collision energy: 30 (nominal)
Resolution: 35000
Column name: XBridge C18 3.5um, 2.1x50mm, Waters
Retention time: 9.6 min
Base peak: 470.0332
Precursor m/z: 470.0339
Precursor type: [M+H]+
m/z	relative intensity	assigned
56.0495	1	C3H6N+
69.0447	3	C3H5N2+
70.065	1	C4H8N+
72.0444	5	C3H6NO+
87.0263	4	C4H7S+
100.0215	1	C4H6NS+
100.0393	26	C4H6NO2+
114.0373	156	C5H8NS+
126.0372	4	C6H8NS+
128.0528	1	C6H10NS+
142.0322	7	C6H8NOS+
160.0427	999	C6H10NO2S+
185.9876	2	C8H6Cl2N+
195.9716	18	C9H4Cl2N+
197.9873	62	C12H3ClO+
211.9666	190	C9H4Cl2NO+
213.9826	2	C9H6Cl2NO+
224.9979	5	C10H7Cl2N2+
237.9819	2	C11H6Cl2NO+
239.9979	204	C11H8Cl2NO+
253.9771	55	C11H6Cl2NO2+
255.9928	51	C6H9ClN2O5S+
264.9929	4	C12H7Cl2N2O+
267.0088	27	C9H12ClO5S+
268.9882	6	C11H7Cl2N2O2+
283.0038	7	C12H9Cl2N2O2+
292.9882	3	C13H7Cl2N2O2+
310.9986	478	C13H9Cl2N2O3+
442.0391	4	C18H18Cl2N3O4S+
