Mass spectrum: Myclobutanil; LC-ESI-ITFT; MS2; CE: 90%; R=7500; [M+H]+
Name: Myclobutanil
Name: MYC
Name: 2-(4-chlorophenyl)-2-(1,2,4-triazol-1-ylmethyl)hexanenitrile
Formula: C15H17ClN4
Exact mass: 288.1142
SMILES: Clc1ccc(cc1)C(C#N)(CCCC)Cn2ncnc2
InChI: InChI=1S/C15H17ClN4/c1-2-3-8-15(9-17,10-20-12-18-11-19-20)13-4-6-14(16)7-5-13/h4-7,11-12H,2-3,8,10H2,1H3
Instrument: LTQ Orbitrap XL Thermo Scientific
Instrument type: LC-ESI-ITFT
Ms type: MS2
Ion mode: POSITIVE
Ionization: ESI
Fragmentation mode: HCD
Collision energy: 90 % (nominal)
Resolution: 7500
Column name: XBridge C18 3.5um, 2.1x50mm, Waters
Retention time: 11.2 min
Base peak: 289.1218
Precursor m/z: 289.1215
Precursor type: [M+H]+
m/z	relative intensity	assigned
55.0541	2	C4H7+
57.0699	2	C4H9+
70.04	615	C2H4N3+
79.0541	1	C6H7+
81.0699	4	C6H9+
82.0401	19	C3H4N3+
83.0481	4	C3H5N3+
89.0387	51	C7H5+
90.0464	9	C7H6+
91.0539	2	C7H7+
94.0653	3	C6H8N+
95.0732	2	C6H9N+
98.9996	24	C5H4Cl+
102.0465	6	C8H6+
103.0542	4	C8H7+
115.0543	37	C9H7+
116.0622	70	C9H8+
122.9997	4	C7H4Cl+
125.0153	999	C7H6Cl+
128.0496	27	C9H6N+
129.0449	10	C8H5N2+
129.057	1	C9H7N+
129.0701	5	C10H9+
130.0653	20	C9H8N+
130.0778	2	C10H10+
131.073	5	C9H9N+
137.0154	22	C8H6Cl+
139.0313	4	C8H8Cl+
142.0781	2	C11H10+
143.0604	6	C9H7N2+
143.0728	8	C10H9N+
143.0858	4	C11H11+
146.0596	3	C9H8NO+
149.0156	12	C9H6Cl+
150.0105	31	C8H5ClN+
151.031	47	C9H8Cl+
152.062	2	C12H8+
153.0693	6	C12H9+
156.081	3	C11H10N+
163.019	2	C9H6ClN+
164.0262	26	C9H7ClN+
167.0857	4	C13H11+
175.0301	2	C11H8Cl+
178.0424	4	C10H9ClN+
190.0417	1	C11H9ClN+
