Mass spectrum: Morphothion; LC-ESI-QFT; MS2; CE: 90%; R=17500; [M+H]+
Name: Morphothion
Name: 2-dimethoxyphosphinothioylsulfanyl-1-morpholin-4-ylethanone
Formula: C8H16NO4PS2
Exact mass: 285.0258
SMILES: COP(=S)(OC)SCC(=O)N1CCOCC1
InChI: InChI=1S/C8H16NO4PS2/c1-11-14(15,12-2)16-7-8(10)9-3-5-13-6-4-9/h3-7H2,1-2H3
Instrument: Exploris 240 Orbitrap Thermo Scientific
Instrument type: LC-ESI-QFT
Ms type: MS2
Ion mode: POSITIVE
Ionization: ESI
Fragmentation mode: HCD
Collision energy: 90 % (nominal)
Resolution: 17500
Column name: XBridge C18 3.5um, 2.1x50mm, Waters
Retention time: 4.868 min
Base peak: 286.033
Precursor m/z: 286.0331
Precursor type: [M+H]+
m/z	relative intensity	assigned
56.0495	13	C3H6N+
58.0651	16	C3H8N+
58.9951	30	C2H3S+
62.0184	77	C2H6S+
62.9994	23	CH4OP+
70.0651	32	C4H8N+
72.0445	12	C3H6NO+
78.9943	488	CH4O2P+
82.065	27	C5H8N+
86.0598	55	C4H8NO+
88.0756	80	C4H10NO+
93.01	188	C2H6O2P+
100.0758	20	C5H10NO+
124.9821	999	C2H6O2PS+
132.0481	33	C5H10NOS+
142.032	9	C6H8NOS+
142.9927	250	C2H8O3PS+
156.9543	39	C2H6O2PS2+
157.0085	36	C3H10O3PS+
