Mass spectrum: Sulcotrione; LC-ESI-ITFT; MS2; CE: 90%; R=7500; [M+H]+
Name: Sulcotrione
Name: 2-(2-chloranyl-4-methylsulfonyl-phenyl)carbonylcyclohexane-1,3-dione
Formula: C14H13ClO5S
Exact mass: 328.0167
SMILES: O=C1CCCC(=O)C1C(=O)c1ccc(S(=O)(=O)C)cc1Cl
InChI: InChI=1S/C14H13ClO5S/c1-21(19,20)8-5-6-9(10(15)7-8)14(18)13-11(16)3-2-4-12(13)17/h5-7,13H,2-4H2,1H3
Instrument: LTQ Orbitrap XL Thermo Scientific
Instrument type: LC-ESI-ITFT
Ms type: MS2
Ion mode: POSITIVE
Ionization: ESI
Fragmentation mode: HCD
Collision energy: 90 % (nominal)
Resolution: 7500
Column name: XBridge C18 3.5um, 2.1x50mm, Waters
Retention time: 6.8 min
Base peak: 351.0066
Precursor m/z: 329.0245
Precursor type: [M+H]+
m/z	relative intensity	assigned
55.0177	15	C3H3O+
68.9971	999	C3HO2+
97.0282	20	C5H5O2+
98.9839	12	CH4ClO3+
111.044	213	C6H7O2+
121.0279	6	C7H5O2+
139.039	19	C7H7O3+
149.9868	26	C8H3ClO+
177.9821	15	C9H3ClO2+
178.9896	52	C9H4ClO2+
202.0615	7	C12H10O3+
214.0624	42	C13H10O3+
246.0534	21	C13H10O5+
