Mass spectrum: Benzoximate; LC-ESI-QFT; MS2; CE: 120%; R=17500; [M+H]+
Name: Benzoximate
Name: [C-(3-chloro-2,6-dimethoxyphenyl)-N-ethoxycarbonimidoyl] benzoate
Formula: C18H18ClNO5
Exact mass: 363.0874
SMILES: CCON=C(C1=C(C=CC(=C1OC)Cl)OC)OC(=O)C2=CC=CC=C2
InChI: InChI=1S/C18H18ClNO5/c1-4-24-20-17(25-18(21)12-8-6-5-7-9-12)15-14(22-2)11-10-13(19)16(15)23-3/h5-11H,4H2,1-3H3
Instrument: Exploris 240 Orbitrap Thermo Scientific
Instrument type: LC-ESI-QFT
Ms type: MS2
Ion mode: POSITIVE
Ionization: ESI
Fragmentation mode: HCD
Collision energy: 120 % (nominal)
Resolution: 17500
Column name: XBridge C18 3.5um, 2.1x50mm, Waters
Retention time: 11.695 min
Base peak: 276.2181
Precursor m/z: 364.0946
Precursor type: [M+H]+
m/z	relative intensity	assigned
50.0151	89	C4H2+
51.0229	544	C4H3+
53.0022	82	C3HO+
53.0385	246	C4H5+
55.018	7	C3H3O+
63.023	60	C5H3+
65.0386	17	C5H5+
66.01	16	C4H2O+
72.9839	6	C3H2Cl+
75.0232	7	C6H3+
77.0385	999	C6H5+
78.0101	17	C5H2O+
81.0334	24	C5H5O+
84.9839	25	C4H2Cl+
94.0414	40	C6H6O+
95.0491	289	C6H7O+
105.0336	83	C7H5O+
109.0651	7	C7H9O+
112.9788	281	C5H2ClO+
125.9866	15	C6H3ClO+
140.9737	289	C6H2ClO2+
149.0232	8	C8H5O3+
