Mass spectrum: Paraoxon-ethyl; LC-ESI-QFT; MS2; CE: 45%; R=17500; [M+H]+
Name: Paraoxon-ethyl
Name: Paraoxon
Name: diethyl (4-nitrophenyl) phosphate
Formula: C10H14NO6P
Exact mass: 275.0559
SMILES: CCOP(=O)(OCC)OC1=CC=C(C=C1)[N+](=O)[O-]
InChI: InChI=1S/C10H14NO6P/c1-3-15-18(14,16-4-2)17-10-7-5-9(6-8-10)11(12)13/h5-8H,3-4H2,1-2H3
Instrument: Exploris 240 Orbitrap Thermo Scientific
Instrument type: LC-ESI-QFT
Ms type: MS2
Ion mode: POSITIVE
Ionization: ESI
Fragmentation mode: HCD
Collision energy: 45 % (nominal)
Resolution: 17500
Column name: XBridge C18 3.5um, 2.1x50mm, Waters
Retention time: 6.797 min
Base peak: 276.0629
Precursor m/z: 276.0632
Precursor type: [M+H]+
m/z	relative intensity	assigned
94.0413	47	C6H6O+
140.034	18	C6H6NO3+
174.0078	473	C6H7O4P+
202.9979	148	C6H6NO5P+
220.0007	999	C6H7NO6P+
