Mass spectrum: Flufenacet; LC-ESI-ITFT; MS2; CE: 90%; R=7500; [M+H]+
Name: Flufenacet
Name: N-(4-fluorophenyl)-N-isopropyl-2-[[5-(trifluoromethyl)-1,3,4-thiadiazol-2-yl]oxy]acetamide
Formula: C14H13F4N3O2S
Exact mass: 363.0670
SMILES: O=C(COc1nnc(s1)C(F)(F)F)N(c2ccc(F)cc2)C(C)C
InChI: InChI=1S/C14H13F4N3O2S/c1-8(2)21(10-5-3-9(15)4-6-10)11(22)7-23-13-20-19-12(24-13)14(16,17)18/h3-6,8H,7H2,1-2H3
Instrument: LTQ Orbitrap XL Thermo Scientific
Instrument type: LC-ESI-ITFT
Ms type: MS2
Ion mode: POSITIVE
Ionization: ESI
Fragmentation mode: HCD
Collision energy: 90 % (nominal)
Resolution: 7500
Column name: XBridge C18 3.5um, 2.1x50mm, Waters
Retention time: 11.7 min
Base peak: 386.0556
Precursor m/z: 364.0737
Precursor type: [M+H]+
m/z	relative intensity	assigned
71.029	4	C4H4F+
77.0386	64	C6H5+
83.0291	35	C5H4F+
96.0369	42	C6H5F+
97.0447	425	C6H6F+
104.0494	50	C7H6N+
105.0445	19	C6H5N2+
107.029	28	C2H3F2N3+
109.0448	357	C7H6F+
110.04	35	C3H10O2S+
111.048	6	C6H6FN+
112.0557	16	C6H7FN+
114.0345	3	C5H5FNO+
115.0542	15	C9H7+
123.024	110	C7H4FO+
123.0352	60	C6H4FN2+
124.0556	999	C7H7FN+
125.0394	8	C2H5F2N3O+
132.0446	7	C8H6NO+
133.0453	4	C9H6F+
134.04	25	C8H5FN+
135.0479	11	C8H6FN+
136.0556	32	C8H7FN+
137.0633	21	C8H8FN+
151.0421	12	C8H6FNO+
152.0505	87	C8H7FNO+
152.0869	61	C9H11FN+
