Mass spectrum: Microcystin-LR; LC-ESI-ITFT; MS2; CE: 60%; R=15000; [M+H]+
Name: Microcystin-LR
Name: (5R,8R,11R,12S,15S,18S,19S,22R)-15-{3-[(Diaminomethylene)amino]propyl}-8-isobutyl-18-[(1E,3E,5S,6S)-6-methoxy-3,5-dimethyl-7-phenyl-1,3-heptadien-1-yl]-1,5,12,19-tetramethyl-2-methylene-3,6,9,13,16,20 ,25-heptaoxo-1,4,7,10,14,17,21-heptaazacyclopentacosane-11,22-dicarboxylic acid
Name: (5R,8S,11R,12S,15S,18S,19S,22R)-15-(3-guanidinopropyl)-8-isobutyl-3,6,9,13,16,20,25-heptaketo-18-[(1E,3E,5S,6S)-6-methoxy-3,5-dimethyl-7-phenyl-hepta-1,3-dienyl]-1,5,12,19-tetramethyl-2-methylene-1,4,7,10,14,17,21-heptazacyclopentacosane-11,22-dicarboxylic acid
Formula: C49H74N10O12
Exact mass: 994.5488
SMILES: CC1C(NC(=O)C(NC(=O)C(C(NC(=O)C(NC(=O)C(NC(=O)C(=C)N(C(=O)CCC(NC1=O)C(=O)O)C)C)CC(C)C)C(=O)O)C)CCCN=C(N)N)C=CC(=CC(C)C(CC2=CC=CC=C2)OC)C
InChI: InChI=1S/C49H74N10O12/c1-26(2)23-37-46(66)58-40(48(69)70)30(6)42(62)55-35(17-14-22-52-49(50)51)45(65)54-34(19-18-27(3)24-28(4)38(71-10)25-33-15-12-11-13-16-33)29(5)41(61)56-36(47(67)68)20-21-39(60)59(9)32(8)44(64)53-31(7)43(63)57-37/h11-13,15-16,18-19,24,26,28-31,34-38,40H,8,14,17,20-23,25H2,1-7,9-10H3,(H,53,64)(H,54,65)(H,55,62)(H,56,61)(H,57,63)(H,58,66)(H,67,68)(H,69,70)(H4,50,51,52)/b19-18+,27-24+/t28-,29-,30-,31+,34-,35-,36+,37-,38-,40+/m0/s1
Instrument: LTQ Orbitrap XL Thermo Scientific
Instrument type: LC-ESI-ITFT
Ms type: MS2
Ion mode: POSITIVE
Ionization: ESI
Fragmentation mode: HCD
Collision energy: 60 % (nominal)
Resolution: 15000
Column name: XBridge C18 3.5um, 2.1x50mm, Waters
Retention time: 10.2 min
Base peak: 498.2811
Precursor m/z: 995.556
Precursor type: [M+H]+
m/z	relative intensity	assigned
70.065	255	C4H8N+
84.0443	93	C4H6NO+
86.0962	128	C5H12N+
91.0538	67	C7H7+
93.0698	105	C7H9+
95.0599	34	C5H7N2+
103.0541	298	C8H7+
105.0697	363	C8H9+
107.0854	474	C8H11+
112.0868	217	C5H10N3+
114.1025	40	C5H12N3+
115.0866	104	C5H11N2O+
117.0698	201	C9H9+
120.0804	30	C8H10N+
127.0864	806	C6H11N2O+
130.0493	48	C5H8NO3+
131.0857	35	C10H11+
133.101	34	C10H13+
135.0802	999	C9H11O+
135.1166	287	C10H15+
138.0548	34	C7H8NO2+
140.0817	45	C6H10N3O+
141.0658	76	C6H9N2O2+
155.0814	118	C7H11N2O2+
157.1082	54	C6H13N4O+
163.1121	53	C11H15O+
167.0812	119	C8H11N2O2+
174.1341	59	C6H16N5O+
195.0757	61	C9H11N2O3+
196.0996	51	C13H12N2+
200.1132	65	C7H14N5O2+
213.0867	130	C9H13N2O4+
223.1191	31	C10H15N4O2+
239.0664	36	C10H11N2O5+
