Mass spectrum: Propaquizafop; LC-ESI-ITFT; MS2; CE: 60%; R=15000; [M+H]+
Name: Propaquizafop
Name: 2-(propan-2-ylideneamino)oxyethyl 2-[4-(6-chloranylquinoxalin-2-yl)oxyphenoxy]propanoate
Formula: C22H22ClN3O5
Exact mass: 443.1242
SMILES: CC(C(=O)OCCON=C(C)C)OC1=CC=C(C=C1)OC2=CN=C3C=C(C=CC3=N2)Cl
InChI: InChI=1S/C22H22ClN3O5/c1-14(2)26-29-11-10-28-22(27)15(3)30-17-5-7-18(8-6-17)31-21-13-24-20-12-16(23)4-9-19(20)25-21/h4-9,12-13,15H,10-11H2,1-3H3
Instrument: LTQ Orbitrap XL Thermo Scientific
Instrument type: LC-ESI-ITFT
Ms type: MS2
Ion mode: POSITIVE
Ionization: ESI
Fragmentation mode: HCD
Collision energy: 60 % (nominal)
Resolution: 15000
Column name: XBridge C18 3.5um, 2.1x50mm, Waters
Retention time: 15.0 min
Base peak: 466.114
Precursor m/z: 444.1321
Precursor type: [M+H]+
m/z	relative intensity	assigned
56.0494	899	C3H6N+
65.0386	30	C5H5+
70.0651	997	C4H8N+
91.0542	571	C7H7+
99.044	196	C5H7O2+
100.0518	430	C5H8O2+
100.0757	999	C5H10NO+
119.0491	105	C8H7O+
120.0567	37	C8H8O+
133.0647	39	C9H9O+
147.044	51	C9H7O2+
163.0057	374	C8H4ClN2+
164.0128	18	C11H2NO+
165.0218	20	C8H6ClN2+
179.0007	34	C8H4ClN2O+
181.0163	236	C8H6ClN2O+
191.0702	25	C11H11O3+
192.068	95	C13H8N2+
192.0787	33	C11H12O3+
193.0763	54	C13H9N2+
207.0914	74	C14H11N2+
208.0632	39	C13H8N2O+
208.0994	60	C14H12N2+
215.0372	66	C12H8ClN2+
218.0841	46	C15H10N2+
227.0376	39	C16H5NO+
228.0445	49	C16H6NO+
229.0525	33	C13H10ClN2+
235.086	34	C15H11N2O+
243.0316	187	C16H5NO2+
243.0682	273	C14H12ClN2+
253.0524	103	C18H7NO+
255.0317	935	C14H8ClN2O+
256.0394	51	C17H6NO2+
257.0471	128	C17H7NO2+
271.063	208	C18H9NO2+
285.0422	309	C18H7NO3+
299.058	148	C16H12ClN2O2+
