Mass spectrum: Simeton; LC-ESI-ITFT; MS2; CE: 60%; R=7500; [M+H]+
Name: Simeton
Name: 2-N,4-N-diethyl-6-methoxy-1,3,5-triazine-2,4-diamine
Formula: C8H15N5O
Exact mass: 197.1271
SMILES: c1(nc(nc(n1)OC)NCC)NCC
InChI: InChI=1S/C8H15N5O/c1-4-9-6-11-7(10-5-2)13-8(12-6)14-3/h4-5H2,1-3H3,(H2,9,10,11,12,13)
Instrument: LTQ Orbitrap XL Thermo Scientific
Instrument type: LC-ESI-ITFT
Ms type: MS2
Ion mode: POSITIVE
Ionization: ESI
Fragmentation mode: HCD
Collision energy: 60 % (nominal)
Resolution: 7500
Column name: XBridge C18 3.5um, 2.1x50mm, Waters
Retention time: 4.9 min
Base peak: 198.1352
Precursor m/z: 198.1349
Precursor type: [M+H]+
m/z	relative intensity	assigned
57.0446	47	C2H5N2+
58.0287	5	C2H4NO+
68.0243	118	C2H2N3+
69.0083	103	C2HN2O+
71.0604	114	C3H7N2+
75.0551	4	C2H7N2O+
82.0399	5	C3H4N3+
83.024	9	C3H3N2O+
85.076	79	C4H9N2+
86.0347	5	C2H4N3O+
96.0556	199	C4H6N3+
97.0396	43	C4H5N2O+
100.0506	234	C3H6N3O+
103.0868	6	C4H11N2O+
110.0714	9	C5H8N3+
114.0662	178	C4H8N3O+
124.0869	428	C6H10N3+
128.0819	512	C5H10N3O+
141.1139	3	C6H13N4+
142.0725	19	C4H8N5O+
142.0975	10	C6H12N3O+
153.077	7	C6H9N4O+
166.1088	45	C7H12N5+
170.1036	208	C6H12N5O+
196.1196	8	C8H14N5O+
198.1349	999	C8H16N5O+
