Mass spectrum: 4-Toluenesulfonamide; LC-ESI-QFT; MS2; CE: 120; R=35000; [M-H]-
Name: 4-Toluenesulfonamide
Name: p-Toluenesulfonamide
Name: 4-methylbenzenesulfonimidic acid
Formula: C7H9NO2S
Exact mass: 171.03540
SMILES: CC1=CC=C(C=C1)S(=O)(=O)N
InChI: InChI=1S/C7H9NO2S/c1-6-2-4-7(5-3-6)11(8,9)10/h2-5H,1H3,(H2,8,9,10)
Instrument: Q Exactive Plus Orbitrap Thermo Scientific
Instrument type: LC-ESI-QFT
Ms type: MS2
Ion mode: NEGATIVE
Ionization: ESI
Fragmentation mode: HCD
Collision energy: 120 (nominal)
Resolution: 35000
Column name: XBridge C18 3.5um, 2.1x50mm, Waters
Retention time: 4.6 min
Base peak: 235.9258
Precursor m/z: 170.0281
Precursor type: [M-H]-
m/z	relative intensity	assigned
61.9706	999	NOS-
63.9624	906	O2S-
77.9655	158	NO2S-
78.9733	469	HNO2S-
79.9574	71	O3S-
79.9812	190	H2NO2S-
80.9651	30	HO3S-
93.9604	282	NO3S-
104.0502	5	C7H6N-
106.0663	37	C7H8N-
107.0503	9	C7H7O-
122.0609	29	C7H8NO-
