Mass spectrum: Uvinul-LR; LC-ESI-QFT; MS2; CE: 120%; R=17500; [M+H]+
Name: Uvinul-LR
Name: 2-ethoxyethyl 2-cyano-2-[3-(3-methoxypropylamino)cyclohex-2-en-1-ylidene]acetate
Formula: C17H26N2O4
Exact mass: 322.1893
SMILES: CCOCCOC(=O)C(=C1CCCC(=C1)NCCCOC)C#N
InChI: InChI=1S/C17H26N2O4/c1-3-22-10-11-23-17(20)16(13-18)14-6-4-7-15(12-14)19-8-5-9-21-2/h12,19H,3-11H2,1-2H3
Instrument: Exploris 240 Orbitrap Thermo Scientific
Instrument type: LC-ESI-QFT
Ms type: MS2
Ion mode: POSITIVE
Ionization: ESI
Fragmentation mode: HCD
Collision energy: 120 % (nominal)
Resolution: 17500
Column name: XBridge C18 3.5um, 2.1x50mm, Waters
Retention time: 6.721 min
Base peak: 233.1283
Precursor m/z: 323.1965
Precursor type: [M+H]+
m/z	relative intensity	assigned
53.0386	50	C4H5+
63.0229	108	C5H3+
65.0386	241	C5H5+
77.0386	243	C6H5+
78.0341	57	C5H4N+
78.0464	89	C6H6+
79.0543	307	C6H7+
80.0496	81	C5H6N+
89.0385	878	C7H5+
90.0339	128	C6H4N+
90.0464	69	C7H6+
91.0543	999	C7H7+
93.0574	46	C6H7N+
95.0492	148	C6H7O+
104.0496	155	C7H6N+
105.045	272	C6H5N2+
106.0654	154	C7H8N+
116.0495	974	C8H6N+
117.0452	90	C7H5N2+
117.0574	312	C8H7N+
118.0528	93	C7H6N2+
118.0654	199	C8H8N+
131.0607	84	C8H7N2+
143.0605	135	C9H7N2+
145.076	107	C9H9N2+
157.0761	40	C10H9N2+
