Mass spectrum: Amidosulfuron; LC-ESI-QFT; MS2; CE: 30; R=35000; [M+H]+
Name: Amidosulfuron
Name: 1-(4,6-dimethoxy-2-pyrimidinyl)-3-[methyl(methylsulfonyl)sulfamoyl]urea
Formula: C9H15N5O7S2
Exact mass: 369.04129
SMILES: O=C(Nc1nc(OC)cc(OC)n1)NS(=O)(=O)N(C)S(=O)(=O)C
InChI: InChI=1S/C9H15N5O7S2/c1-14(22(4,16)17)23(18,19)13-9(15)12-8-10-6(20-2)5-7(11-8)21-3/h5H,1-4H3,(H2,10,11,12,13,15)
Instrument: Q Exactive Orbitrap Thermo Scientific
Instrument type: LC-ESI-QFT
Ms type: MS2
Ion mode: POSITIVE
Ionization: ESI
Fragmentation mode: HCD
Collision energy: 30 (nominal)
Resolution: 35000
Column name: XBridge C18 3.5um, 2.1x50mm, Waters
Retention time: 8.4 min
Base peak: 370.0493
Precursor m/z: 370.0486
Precursor type: [M+H]+
m/z	relative intensity	assigned
69.0083	5	C2HN2O+
69.0449	1	C3H5N2+
83.024	5	C3H3N2O+
97.0398	6	C4H5N2O+
124.0507	29	C5H6N3O+
126.0663	8	C5H8N3O+
127.0379	3	C4H5N3O2+
127.0503	23	C5H7N2O2+
139.0378	32	C5H5N3O2+
142.0614	33	C5H8N3O2+
154.0613	115	C6H8N3O2+
155.0685	4	C6H9N3O2+
156.0768	9	C6H10N3O2+
157.0613	1	C6H9N2O3+
181.0722	11	C7H9N4O2+
182.0563	59	C7H8N3O3+
199.0828	70	C7H11N4O3+
202.9992	1	C5H5N3O4S+
218.0233	586	C6H8N3O4S+
236.034	940	C6H10N3O5S+
238.0381	1	C7H12NO6S+
250.0497	1	C7H12N3O5S+
261.0292	999	C7H9N4O5S+
279.0398	380	C7H11N4O6S+
