Mass spectrum: Cefadroxil; LC-ESI-QFT; MS2; CE: 90; R=35000; [M+H]+
Name: Cefadroxil
Name: 7-[[2-azaniumyl-2-(4-hydroxyphenyl)acetyl]amino]-3-methyl-8-oxo-5-thia-1-azabicyclo[4.2.0]oct-2-ene-2-carboxylate
Formula: C16H17N3O5S
Exact mass: 363.08889
SMILES: CC1=C(N2C(C(C2=O)NC(=O)C(C3=CC=C(C=C3)O)N)SC1)C(=O)O
InChI: InChI=1S/C16H17N3O5S/c1-7-6-25-15-11(14(22)19(15)12(7)16(23)24)18-13(21)10(17)8-2-4-9(20)5-3-8/h2-5,10-11,15,20H,6,17H2,1H3,(H,18,21)(H,23,24)
Instrument: Q Exactive Plus Orbitrap Thermo Scientific
Instrument type: LC-ESI-QFT
Ms type: MS2
Ion mode: POSITIVE
Ionization: ESI
Fragmentation mode: HCD
Collision energy: 90 (nominal)
Resolution: 35000
Column name: XBridge C18 3.5um, 2.1x50mm, Waters
Retention time: 2.4 min
Base peak: 364.0954
Precursor m/z: 364.0962
Precursor type: [M+H]+
m/z	relative intensity	assigned
50.0151	1	C4H2+
51.0229	1	C4H3+
53.0022	5	C3HO+
53.0386	9	C4H5+
53.9975	1	C2NO+
54.0338	1	C3H4N+
54.0465	1	C4H6+
55.0179	1	C3H3O+
56.0132	1	C2H2NO+
56.0495	3	C3H6N+
57.9872	7	C2H2S+
58.995	239	C2H3S+
65.0386	10	C5H5+
66.0339	3	C4H4N+
68.0495	203	C4H6N+
68.9794	15	C3HS+
68.9971	1	C3HO2+
69.0335	3	C4H5O+
69.0447	2	C3H5N2+
69.9924	4	C2NO2+
70.0288	4	C3H4NO+
70.0651	5	C4H8N+
74.0059	4	C2H4NS+
77.0385	8	C6H5+
78.0464	83	C6H6+
79.0542	24	C6H7+
80.0494	5	C5H6N+
81.0335	6	C5H5O+
82.0414	16	C5H6O+
82.0652	2	C5H8N+
84.0445	2	C4H6NO+
85.0107	3	C4H5S+
86.0059	999	C3H4NS+
86.9901	5	C3H3OS+
89.0387	8	C7H5+
91.0543	22	C7H7+
92.0494	4	C6H6N+
93.0575	1	C6H7N+
94.0651	4	C6H8N+
95.0492	48	C6H7O+
96.0444	1	C5H6NO+
97.0107	2	C5H5S+
97.0285	4	C5H5O2+
102.0009	3	C3H4NOS+
102.0464	1	C8H6+
104.0494	1	C7H6N+
105.0336	65	C7H5O+
105.0448	15	C6H5N2+
106.0414	115	C7H6O+
106.0652	34	C7H8N+
107.0492	115	C7H7O+
109.0107	4	C6H5S+
109.0285	3	C6H5O2+
109.0762	1	C6H9N2+
110.0363	3	C6H6O2+
110.0602	1	C6H8NO+
112.0217	2	C5H6NS+
114.0009	517	C4H4NOS+
116.0495	12	C8H6N+
117.0574	7	C8H7N+
118.0653	2	C8H8N+
119.0491	11	C8H7O+
120.0445	2	C7H6NO+
120.057	7	C8H8O+
122.0601	14	C7H8NO+
126.0373	1	C6H8NS+
130.065	1	C9H8N+
132.0444	1	C8H6NO+
133.0284	4	C8H5O2+
133.0523	42	C8H7NO+
134.0363	55	C8H6O2+
134.0601	66	C8H8NO+
135.0553	1	C7H7N2O+
136.0216	1	C7H6NS+
137.0057	22	C7H5OS+
137.0236	2	C7H5O3+
138.0313	23	C7H6O3+
139.0213	31	C7H7OS+
144.0446	1	C9H6NO+
144.0558	14	C8H6N3+
145.065	1	C10H9O+
146.0602	7	C9H8NO+
151.0214	1	C8H7OS+
158.0272	3	C6H8NO2S+
162.055	1	C9H8NO2+
163.0212	3	C9H7OS+
170.0602	1	C11H8NO+
173.0297	1	C10H7NS+
178.0325	7	C9H8NOS+
189.0244	2	C10H7NOS+
212.0342	3	C12H6NO3+
