Mass spectrum: 1-Hydroxybenzotriazole; LC-ESI-QFT; MS2; CE: 120; R=35000; [M+H]+
Name: 1-Hydroxybenzotriazole
Formula: C6H5N3O
Exact mass: 135.04326
SMILES: C1=CC=C2C(=C1)N=NN2O
InChI: InChI=1S/C6H5N3O/c10-9-6-4-2-1-3-5(6)7-8-9/h1-4,10H
Instrument: Q Exactive Plus Orbitrap Thermo Scientific
Instrument type: LC-ESI-QFT
Ms type: MS2
Ion mode: POSITIVE
Ionization: ESI
Fragmentation mode: HCD
Collision energy: 120 (nominal)
Resolution: 35000
Column name: XBridge C18 3.5um, 2.1x50mm, Waters
Retention time: 3.0 min
Base peak: 136.0506
Precursor m/z: 136.0505
Precursor type: [M+H]+
m/z	relative intensity	assigned
50.0151	15	C4H2+
51.0104	2	C3HN+
51.023	15	C4H3+
52.0182	138	C3H2N+
53.0022	4	C3HO+
53.0386	47	C4H5+
54.0465	92	C4H6+
55.0179	1	C3H3O+
61.0074	3	C5H+
62.0151	19	C5H2+
63.023	638	C5H3+
64.0308	694	C5H4+
65.026	267	C4H3N+
67.9893	1	C3O2+
76.0182	31	C5H2N+
77.0386	30	C6H5+
78.0464	72	C6H6+
79.0416	4	C5H5N+
80.0258	1	C5H4O+
80.0495	10	C5H6N+
81.0336	22	C5H5O+
82.0414	4	C5H6O+
90.0339	15	C6H4N+
91.0417	999	C6H5N+
92.0369	28	C5H4N2+
95.0492	44	
105.0448	31	C6H5N2+
119.0479	81	C6H5N3+
136.0507	13	C6H6N3O+
