Mass spectrum: N-(2,4-dimethylphenyl)formamide; LC-ESI-QFT; MS2; CE: 150; R=35000; [M+H]+
Name: N-(2,4-dimethylphenyl)formamide
Formula: C9H11NO
Exact mass: 149.08406
SMILES: CC1=C(NC([H])=O)C=CC(C)=C1
InChI: InChI=1S/C9H11NO/c1-7-3-4-9(10-6-11)8(2)5-7/h3-6H,1-2H3,(H,10,11)
Instrument: Q Exactive Plus Orbitrap Thermo Scientific
Instrument type: LC-ESI-QFT
Ms type: MS2
Ion mode: POSITIVE
Ionization: ESI
Fragmentation mode: HCD
Collision energy: 150 (nominal)
Resolution: 35000
Column name: XBridge C18 3.5um, 2.1x50mm, Waters
Retention time: 6.6 min
Base peak: 150.0913
Precursor m/z: 150.0913
Precursor type: [M+H]+
m/z	relative intensity	assigned
50.0151	28	C4H2+
51.023	30	C4H3+
53.0386	57	C4H5+
54.0338	2	C3H4N+
55.0179	4	C3H3O+
55.0543	3	C4H7+
63.0229	6	C5H3+
64.0308	3	C5H4+
65.0386	27	C5H5+
66.0464	8	C5H6+
67.0416	6	C4H5N+
67.0543	6	C5H7+
77.0386	138	C6H5+
78.0338	5	C5H4N+
78.0464	8	C6H6+
79.0542	207	C6H7+
80.0494	24	C5H6N+
80.062	4	C6H8+
81.0335	5	C5H5O+
89.0386	67	C7H5+
90.0465	37	C7H6+
91.0543	20	C7H7+
92.0495	5	C6H6N+
94.0414	3	C6H6O+
95.0492	212	C6H7O+
96.0444	7	C5H6NO+
102.0465	3	C8H6+
103.0542	32	C8H7+
104.0494	2	C7H6N+
104.0621	2	C8H8+
105.0448	107	C6H5N2+
105.0699	7	C8H9+
106.0652	999	C7H8N+
107.0491	18	C7H7O+
107.073	81	C7H9N+
108.057	4	C7H8O+
117.0574	17	C8H7N+
120.0808	4	C8H10N+
130.0652	1	C9H8N+
