Mass spectrum: Albendazole; LC-ESI-QFT; MS2; CE: 60; R=35000; [M+H]+
Name: Albendazole
Name: Methyl N-(6-propylsulfanyl-1H-benzimidazol-2-yl)carbamate
Formula: C12H15N3O2S
Exact mass: 265.08850
SMILES: CCCSC1=CC2=C(C=C1)N=C(N2)NC(=O)OC
InChI: InChI=1S/C12H15N3O2S/c1-3-6-18-8-4-5-9-10(7-8)14-11(13-9)15-12(16)17-2/h4-5,7H,3,6H2,1-2H3,(H2,13,14,15,16)
Instrument: Q Exactive Plus Orbitrap Thermo Scientific
Instrument type: LC-ESI-QFT
Ms type: MS2
Ion mode: POSITIVE
Ionization: ESI
Fragmentation mode: HCD
Collision energy: 60 (nominal)
Resolution: 35000
Column name: XBridge C18 3.5um, 2.1x50mm, Waters
Retention time: 7.8 min
Base peak: 266.0953
Precursor m/z: 266.0958
Precursor type: [M+H]+
m/z	relative intensity	assigned
147.0791	1	C8H9N3+
158.0349	1	C8H4N3O+
159.0428	190	C8H5N3O+
160.0506	9	C8H6N3O+
163.0199	5	C7H5N3S+
164.0278	11	C7H6N3S+
165.0357	3	C7H7N3S+
177.0358	1	C8H7N3S+
179.0514	5	C8H9N3S+
190.0071	9	C8H4N3OS+
191.0149	778	C8H5N3OS+
192.0226	577	C8H6N3OS+
204.0226	2	C9H6N3OS+
205.0306	5	C9H7N3OS+
206.0747	3	C10H12N3S+
223.0412	7	C9H9N3O2S+
234.0697	999	C11H12N3OS+
266.0971	1	C12H16N3O2S+
