Mass spectrum: N-Nitrosomethylaniline; LC-ESI-QFT; MS2; CE: 30; R=70000; [M+H]+
Name: N-Nitrosomethylaniline
Name: N-methyl-N-phenylnitrous amide
Formula: C7H8N2O
Exact mass: 136.06366
SMILES: O=NN(c1ccccc1)C
InChI: InChI=1S/C7H8N2O/c1-9(8-10)7-5-3-2-4-6-7/h2-6H,1H3
Instrument: Q Exactive Plus Orbitrap Thermo Scientific
Instrument type: LC-ESI-QFT
Ms type: MS2
Ion mode: POSITIVE
Ionization: ESI
Fragmentation mode: HCD
Collision energy: 30 (nominal)
Resolution: 70000
Column name: XBridge C18 3.5um, 2.1x50mm, Waters
Retention time: 6.4 min
Base peak: 137.071
Precursor m/z: 137.0709
Precursor type: [M+H]+
m/z	relative intensity	assigned
59.024	8	CH3N2O+
65.0386	2	C5H5+
66.0464	479	C5H6+
77.0383	4	C6H5+
80.062	18	C6H8+
93.07	1	C7H9+
95.0491	7	C6H7O+
105.0448	3	C6H5N2+
106.0651	6	C7H8N+
107.073	999	C7H9N+
137.071	878	C7H9N2O+
