Mass spectrum: Oxytetracycline; LC-ESI-QFT; MS2; CE: 60; R=35000; [M-H]-
Name: Oxytetracycline
Name: (4S,4aR,5S,5aR,6S,12aS)-4-(Dimethylamino)-3,5,6,10,12,12a-hexahydroxy-6-methyl-1,11-dioxo-1,4,4a,5,5a,6,11,12a-octahydro-2-tetracenecarboxamide
Name: 2-carbamoyl-4-(dimethylazaniumyl)-5,6,10,11,12a-pentahydroxy-6-methyl-3,12-dioxo-4,4a,5,5a-tetrahydrotetracen-1-olate
Formula: C22H24N2O9
Exact mass: 460.14818
SMILES: CC1(C2C(C3C(C(=O)C(=C(C3(C(=O)C2=C(C4=C1C=CC=C4O)O)O)O)C(=O)N)N(C)C)O)O
InChI: InChI=1S/C22H24N2O9/c1-21(32)7-5-4-6-8(25)9(7)15(26)10-12(21)17(28)13-14(24(2)3)16(27)11(20(23)31)19(30)22(13,33)18(10)29/h4-6,12-14,17,25-26,28,30,32-33H,1-3H3,(H2,23,31)
Instrument: Q Exactive Plus Orbitrap Thermo Scientific
Instrument type: LC-ESI-QFT
Ms type: MS2
Ion mode: NEGATIVE
Ionization: ESI
Fragmentation mode: HCD
Collision energy: 60 (nominal)
Resolution: 35000
Column name: XBridge C18 3.5um, 2.1x50mm, Waters
Retention time: 4.3 min
Base peak: 459.1405
Precursor m/z: 459.1409
Precursor type: [M-H]-
m/z	relative intensity	assigned
55.0189	26	C3H3O-
57.0346	2	C3H5O-
58.0298	2	C2H4NO-
59.0138	13	C2H3O2-
63.0239	23	C5H3-
65.0033	16	C4HO-
65.0397	24	C5H5-
65.9986	51	C3NO-
67.0189	16	C4H3O-
67.0514	2	H7N2O2-
68.0143	4	C3H2NO-
68.9982	89	C3HO2-
69.0346	47	C4H5O-
71.014	22	C3H3O2-
72.9932	10	C2HO3-
73.0295	4	C3H5O2-
78.0349	3	C5H4N-
79.0189	25	C5H3O-
80.0267	12	C5H4O-
81.0345	39	C5H5O-
83.0139	150	C4H3O2-
84.009	162	C3H2NO2-
85.0295	17	C4H5O2-
86.0247	5	C3H4NO2-
87.0087	172	C3H3O3-
90.0347	3	C6H4N-
91.0189	83	C6H3O-
92.0265	3	C6H4O-
93.0345	65	C6H5O-
94.0299	2	C5H4NO-
95.0138	103	C5H3O2-
95.0501	6	C6H7O-
96.0091	35	C4H2NO2-
96.0454	2	C5H6NO-
96.993	165	C4HO3-
97.0294	103	C5H5O2-
98.0247	3	C4H4NO2-
99.0087	48	C4H3O3-
99.0453	5	C5H7O2-
100.0768	23	C5H10NO-
105.0345	6	C7H5O-
106.0296	3	C6H4NO-
107.0139	43	C6H3O2-
107.0501	11	C7H7O-
107.0614	4	C6H7N2-
108.0217	97	C6H4O2-
109.0295	145	C6H5O2-
110.0247	5	C5H4NO2-
110.0608	4	C6H8NO-
111.0088	345	C5H3O3-
112.0765	4	C6H10NO-
117.0346	30	C8H5O-
119.0138	24	C7H3O2-
119.0502	35	C8H7O-
121.0295	64	C7H5O2-
121.0533	6	C7H7NO-
122.0248	12	C6H4NO2-
122.0374	5	C7H6O2-
122.061	5	C7H8NO-
123.0088	123	C6H3O3-
123.0325	6	C6H5NO2-
123.0454	18	C7H7O2-
124.0038	6	C5H2NO3-
124.0165	93	C6H4O3-
124.0402	10	C6H6NO2-
124.988	84	C5HO4-
125.0244	122	C6H5O3-
125.072	61	C6H9N2O-
126.0196	19	C5H4NO3-
126.0322	15	C6H6O3-
126.056	125	C6H8NO2-
127.04	4	C6H7O3-
129.0348	3	C9H5O-
129.0707	4	C10H9-
130.0423	4	C9H6O-
131.0139	4	C8H3O2-
131.0501	10	C9H7O-
133.017	2	C7H3NO2-
133.0294	15	C8H5O2-
134.0247	118	C7H4NO2-
134.0373	30	C8H6O2-
135.0088	109	C7H3O3-
135.0452	999	C8H7O2-
136.0165	15	C7H4O3-
136.0406	3	C7H6NO2-
136.0766	12	C8H10NO-
136.988	13	C6HO4-
137.0243	59	C7H5O3-
137.0483	24	C7H7NO2-
137.0608	11	C8H9O2-
138.0195	10	C6H4NO3-
138.0323	27	C7H6O3-
138.0563	17	C7H8NO2-
139.0037	4	C6H3O4-
139.0149	84	C5H3N2O3-
140.0353	2	C6H6NO3-
140.0717	27	C7H10NO2-
141.0193	26	C6H5O4-
141.0669	3	C6H9N2O2-
142.0145	62	C5H4NO4-
142.9985	186	C5H3O5-
143.0502	12	C10H7O-
144.0579	31	C10H8O-
144.0667	3	C6H10NO3-
145.0295	77	C9H5O2-
145.0659	15	C10H9O-
146.0248	3	C8H4NO2-
146.0373	21	C9H6O2-
147.0453	45	C9H7O2-
148.0043	3	C7H2NO3-
148.0167	5	C8H4O3-
148.0405	3	C8H6NO2-
149.0117	24	C7H3NO3-
149.0243	38	C8H5O3-
149.0481	5	C8H7NO2-
149.9958	27	C7H2O4-
150.0196	105	C7H4NO3-
151.0037	55	C7H3O4-
151.0275	93	C7H5NO3-
152.0115	12	C7H4O4-
152.0354	13	C7H6NO3-
152.0718	24	C8H10NO2-
153.0193	23	C7H5O4-
154.0384	16	C6H6N2O3-
155.0501	10	C11H7O-
157.0659	60	C11H9O-
158.0374	31	C10H6O2-
159.0451	166	C10H7O2-
160.0166	5	C9H4O3-
160.0404	9	C9H6NO2-
161.0244	414	C9H5O3-
162.0197	78	C8H4NO3-
162.0322	39	C9H6O3-
163.0038	52	C8H3O4-
163.0276	200	C8H5NO3-
163.04	189	C9H7O3-
164.0116	202	C8H4O4-
164.0353	37	C8H6NO3-
164.0718	17	C9H10NO2-
165.0191	10	C8H5O4-
165.0431	20	C8H7NO3-
165.0552	4	C9H9O3-
166.0144	4	C7H4NO4-
166.0509	4	C8H8NO3-
166.0873	3	C9H12NO2-
167.0222	25	C7H5NO4-
168.03	28	C7H6NO4-
168.0665	28	C8H10NO3-
169.0254	24	C6H5N2O4-
171.0451	79	C11H7O2-
172.053	238	C11H8O2-
173.0242	65	C10H5O3-
173.0607	702	C11H9O2-
174.0322	271	C10H6O3-
175.04	72	C10H7O3-
175.0764	10	C11H11O2-
176.035	4	C9H6NO3-
177.0304	80	C8H5N2O3-
177.0557	14	C10H9O3-
178.0146	71	C8H4NO4-
178.0507	5	C9H8NO3-
178.9989	11	C8H3O5-
179.0228	3	C8H5NO4-
180.0302	17	C8H6NO4-
180.0582	10	C13H8O-
180.0659	6	C9H10NO3-
181.0381	40	C8H7NO4-
181.0662	23	C13H9O-
182.082	3	C9H12NO3-
183.0447	14	C12H7O2-
183.0814	83	C13H11O-
184.0534	10	C12H8O2-
185.0241	22	C11H5O3-
185.0608	106	C12H9O2-
186.0323	20	C11H6O3-
186.0683	26	C12H10O2-
187.04	326	C11H7O3-
187.0765	18	C12H11O2-
188.0478	128	C11H8O3-
189.0193	44	C10H5O4-
189.0556	120	C11H9O3-
190.0271	4	C10H6O4-
190.0508	5	C10H8NO3-
191.0351	37	C10H7O4-
191.0712	19	C11H11O3-
192.0541	10	C9H8N2O3-
193.0665	20	C14H9O-
194.0221	9	C9H6O5-
195.0415	33	C8H7N2O4-
195.0816	42	C14H11O-
196.0528	102	C13H8O2-
196.0615	6	C9H10NO4-
197.0608	167	C13H9O2-
198.0325	3	C12H6O3-
198.0688	4	C13H10O2-
199.0399	28	C12H7O3-
199.0765	194	C13H11O2-
200.0477	32	C12H8O3-
201.0557	481	C12H9O3-
202.0273	37	C11H6O4-
202.0634	10	C12H10O3-
203.035	101	C11H7O4-
203.0714	61	C12H11O3-
204.043	3	C11H8O4-
205.0651	3	C15H9O-
206.0223	3	C10H6O5-
207.0446	4	C14H7O2-
208.0529	29	C14H8O2-
208.0616	3	C10H10NO4-
209.0608	223	C14H9O2-
210.0686	88	C14H10O2-
211.0401	86	C13H7O3-
211.0764	259	C14H11O2-
212.0478	54	C13H8O3-
212.0847	4	C14H12O2-
213.0556	54	C13H9O3-
213.0917	6	C14H13O2-
214.027	19	C12H6O4-
214.0636	6	C13H10O3-
214.9984	3	C11H3O5-
215.0352	25	C12H7O4-
215.0712	30	C13H11O3-
216.0308	4	C11H6NO4-
216.0426	17	C12H8O4-
217.0137	3	C11H5O5-
217.0506	26	C12H9O4-
217.0656	5	C16H9O-
217.0871	2	C13H13O3-
218.022	24	C11H6O5-
218.0588	5	C12H10O4-
219.0662	3	C12H11O4-
219.0816	3	C16H11O-
220.0532	17	C15H8O2-
221.0608	45	C15H9O2-
222.0684	24	C15H10O2-
223.0399	18	C14H7O3-
223.0764	123	C15H11O2-
224.0478	126	C14H8O3-
224.0718	12	C14H10NO2-
225.0558	253	C14H9O3-
225.0921	80	C15H13O2-
226.0639	18	C14H10O3-
226.0872	2	C14H12NO2-
227.035	71	C13H7O4-
227.0714	125	C14H11O3-
228.0429	24	C13H8O4-
229.05	33	C13H9O4-
229.0872	15	C14H13O3-
230.0224	22	C12H6O5-
230.0584	18	C13H10O4-
231.0301	35	C12H7O5-
231.0663	11	C13H11O4-
232.0528	3	C16H8O2-
233.0607	41	C16H9O2-
234.0678	4	C16H10O2-
235.0401	236	C15H7O3-
235.0764	48	C16H11O2-
236.0481	16	C15H8O3-
236.0721	5	C15H10NO2-
236.0837	5	C16H12O2-
237.0556	85	C15H9O3-
237.0923	16	C16H13O2-
238.0266	6	C14H6O4-
238.0634	68	C15H10O3-
238.0873	16	C15H12NO2-
239.0351	30	C14H7O4-
239.0713	204	C15H11O3-
240.0429	39	C14H8O4-
241.0506	37	C14H9O4-
241.087	14	C15H13O3-
242.0583	6	C14H10O4-
243.0661	110	C14H11O4-
245.0455	46	C13H9O5-
245.0606	21	C17H9O2-
246.0689	11	C17H10O2-
247.0761	15	C17H11O2-
248.0477	44	C16H8O3-
249.0556	112	C16H9O3-
250.0263	3	C15H6O4-
250.0632	27	C16H10O3-
250.087	6	C16H12NO2-
251.0347	26	C15H7O4-
251.0713	60	C16H11O3-
252.0428	139	C15H8O4-
252.1028	40	C16H14NO2-
253.0506	826	C15H9O4-
254.0583	74	C15H10O4-
255.0301	46	C14H7O5-
255.0663	97	C15H11O4-
256.0378	93	C14H8O5-
257.0459	5	C14H9O5-
257.0826	3	C15H13O4-
258.0535	27	C14H10O5-
259.0617	6	C14H11O5-
261.0557	46	C17H9O3-
262.0638	11	C17H10O3-
263.0711	67	C17H11O3-
264.0421	19	C16H8O4-
264.0663	4	C16H10NO3-
264.0789	11	C17H12O3-
265.0503	56	C16H9O4-
265.0871	14	C17H13O3-
266.0587	35	C16H10O4-
267.0662	231	C16H11O4-
268.0384	6	C15H8O5-
268.0614	6	C15H10NO4-
268.0971	10	C16H14NO3-
268.1347	3	C17H18NO2-
269.0451	4	C15H9O5-
269.0816	19	C16H13O4-
270.0534	30	C15H10O5-
271.0612	113	C15H11O5-
271.0971	5	C16H15O4-
273.0551	6	C18H9O3-
273.0781	5	C15H13O5-
274.0482	33	C14H10O6-
274.0629	6	C18H10O3-
275.0718	9	C18H11O3-
276.0428	21	C17H8O4-
277.0506	58	C17H9O4-
278.0584	4	C17H10O4-
278.0826	10	C17H12NO3-
279.0304	4	C16H7O5-
279.0664	37	C17H11O4-
279.0904	4	C17H13NO3-
280.0377	5	C16H8O5-
280.0741	4	C17H12O4-
280.098	6	C17H14NO3-
281.0456	5	C16H9O5-
281.0819	13	C17H13O4-
282.0529	5	C16H10O5-
282.0775	6	C16H12NO4-
283.0609	14	C16H11O5-
284.1293	10	C17H18NO3-
289.0519	31	C18H9O4-
289.0713	35	C15H13O6-
290.0593	13	C18H10O4-
291.0664	48	C18H11O4-
292.0374	29	C17H8O5-
292.0742	4	C18H12O4-
293.0456	43	C17H9O5-
294.0521	9	C17H10O5-
294.1138	6	C18H16NO3-
295.0611	17	C17H11O5-
296.0928	15	C17H14NO4-
297.0773	3	C17H13O5-
303.0296	11	C18H7O5-
304.0616	13	C18H10NO4-
305.0456	11	C18H9O5-
306.0777	6	C18H12NO4-
306.1125	3	C19H16NO3-
307.0613	22	C18H11O5-
308.0685	3	C18H12O5-
308.0931	3	C18H14NO4-
309.0409	3	C17H9O6-
311.0564	10	C17H11O6-
312.1243	43	C18H18NO4-
314.1031	5	C17H16NO5-
316.0611	4	C19H10NO4-
317.0455	14	C19H9O5-
318.0774	11	C19H12NO4-
319.0614	5	C19H11O5-
321.041	5	C18H9O6-
326.0797	3	C18H14O6-
333.0414	5	C19H9O6-
335.0565	5	C19H11O6-
374.1243	5	C19H20NO7-
