Mass spectrum: Fenpiclonil; LC-ESI-QFT; MS2; CE: 45%; R=17500; [M-H]-
Name: Fenpiclonil
Name: 4-(2,3-dichlorophenyl)-1H-pyrrole-3-carbonitrile
Formula: C11H6Cl2N2
Exact mass: 235.9908
SMILES: C1=CC(=C(C(=C1)Cl)Cl)C2=CNC=C2C#N
InChI: InChI=1S/C11H6Cl2N2/c12-10-3-1-2-8(11(10)13)9-6-15-5-7(9)4-14/h1-3,5-6,15H
Instrument: Exploris 240 Orbitrap Thermo Scientific
Instrument type: LC-ESI-QFT
Ms type: MS2
Ion mode: NEGATIVE
Ionization: ESI
Fragmentation mode: HCD
Collision energy: 45 % (nominal)
Resolution: 17500
Column name: XBridge C18 3.5um, 2.1x50mm, Waters
Retention time: 8.134 min
Base peak: 234.9835
Precursor m/z: 234.9835
Precursor type: [M-H]-
m/z	relative intensity	assigned
163.0303	8	C11H3N2-
199.0068	86	C11H4ClN2-
207.9728	3	C10H4Cl2N-
234.9835	999	C11H5Cl2N2-
