Mass spectrum: Dapsone; LC-ESI-QFT; MS2; CE: 120; R=35000; [M+H]+
Name: Dapsone
Name: 4-(4-aminophenyl)sulfonylaniline
Formula: C12H12N2O2S
Exact mass: 248.06195
SMILES: C1=CC(=CC=C1N)S(=O)(=O)C2=CC=C(C=C2)N
InChI: InChI=1S/C12H12N2O2S/c13-9-1-5-11(6-2-9)17(15,16)12-7-3-10(14)4-8-12/h1-8H,13-14H2
Instrument: Q Exactive Plus Orbitrap Thermo Scientific
Instrument type: LC-ESI-QFT
Ms type: MS2
Ion mode: POSITIVE
Ionization: ESI
Fragmentation mode: HCD
Collision energy: 120 (nominal)
Resolution: 35000
Column name: XBridge C18 3.5um, 2.1x50mm, Waters
Retention time: 3.8 min
Base peak: 249.0685
Precursor m/z: 249.0692
Precursor type: [M+H]+
m/z	relative intensity	assigned
50.0151	1	C4H2+
53.0022	12	C3HO+
53.0386	39	C4H5+
53.9974	3	C2NO+
54.0338	4	C3H4N+
56.0495	3	C3H6N+
63.0228	3	C5H3+
64.0181	1	C4H2N+
64.0306	1	C5H4+
65.0386	999	C5H5+
66.0338	18	C4H4N+
66.0464	107	C5H6+
67.0417	4	C4H5N+
67.9892	3	C3O2+
78.0338	4	C5H4N+
80.0494	442	C5H6N+
90.0338	3	C6H4N+
92.0495	146	C6H6N+
93.0573	170	C6H7N+
96.0443	1	C5H6NO+
108.0443	126	C6H6NO+
110.06	10	C6H8NO+
123.0136	1	C6H5NS+
124.0216	7	C6H6NS+
167.0725	1	C12H9N+
