Mass spectrum: Flunitrazepam; LC-ESI-QFT; MS2; CE: 180; R=35000; [M+H]+
Name: Flunitrazepam
Name: 5-(2-fluorophenyl)-1-methyl-7-nitro-3H-1,4-benzodiazepin-2-one
Formula: C16H12FN3O3
Exact mass: 313.08627
SMILES: CN1C(=O)CN=C(C2=C1C=CC(=C2)[N+](=O)[O-])C3=CC=CC=C3F
InChI: InChI=1S/C16H12FN3O3/c1-19-14-7-6-10(20(22)23)8-12(14)16(18-9-15(19)21)11-4-2-3-5-13(11)17/h2-8H,9H2,1H3
Instrument: Q Exactive Plus Orbitrap Thermo Scientific
Instrument type: LC-ESI-QFT
Ms type: MS2
Ion mode: POSITIVE
Ionization: ESI
Fragmentation mode: HCD
Collision energy: 180 (nominal)
Resolution: 35000
Column name: XBridge C18 3.5um, 2.1x50mm, Waters
Retention time: 7.9 min
Base peak: 314.0927
Precursor m/z: 314.0935
Precursor type: [M+H]+
m/z	relative intensity	assigned
50.0151	128	C4H2+
51.0229	73	C4H3+
52.0181	16	C3H2N+
52.0307	5	C4H4+
53.0022	29	C3HO+
53.0386	59	C4H5+
54.0338	3	C3H4N+
54.0464	3	C4H6+
55.0178	4	C3H3O+
57.0135	137	C3H2F+
58.0287	12	C2H4NO+
59.0292	20	C3H4F+
61.0072	38	C5H+
62.0151	155	C5H2+
63.0229	630	C5H3+
64.0182	27	C4H2N+
64.0307	53	C5H4+
65.0022	18	
65.0386	292	C5H5+
66.0339	4	C4H4N+
66.0464	12	C5H6+
67.0416	9	C4H5N+
69.0134	2	C4H2F+
70.0213	25	C4H3F+
74.0151	226	C6H2+
75.0229	481	C6H3+
76.0181	73	C5H2N+
76.0307	75	C6H4+
77.0022	10	
77.0385	126	C6H5+
78.0338	43	C5H4N+
78.0464	37	CH5FN3+
79.0542	2	C6H7+
80.0495	14	C5H6N+
81.0135	82	C5H2F+
81.0335	5	C5H5O+
83.0291	260	C5H4F+
85.0071	17	
86.0151	61	C7H2+
87.0229	121	C7H3+
88.0182	32	C6H2N+
88.0308	33	C7H4+
89.0386	790	C7H5+
90.0339	22	C6H4N+
90.0464	89	C7H6+
91.0416	14	C6H5N+
91.0542	240	C7H7+
92.0257	3	C6H4O+
92.0495	12	C6H6N+
94.0213	63	C6H3F+
94.0412	3	C6H6O+
95.0291	8	C6H4F+
95.0491	128	C6H7O+
96.037	69	C6H5F+
96.0443	19	C5H6NO+
98.0151	145	C8H2+
99.0229	329	C8H3+
100.018	29	C7H2N+
100.0307	43	C8H4+
101.0259	3	C7H3N+
101.0387	24	C8H5+
102.0338	45	C7H4N+
102.0464	46	C8H6+
103.0416	10	C7H5N+
104.0494	19	C7H6N+
105.0134	25	
105.0447	96	C6H5N2+
106.0213	9	C7H3F+
106.0652	3	C7H8N+
107.0291	282	C7H4F+
108.0245	2	C6H3FN+
108.0369	11	C7H5F+
109.0448	46	C7H6F+
110.015	23	
111.023	43	C9H3+
112.018	11	C8H2N+
112.0312	13	
113.0385	150	C9H5+
114.0339	50	C8H4N+
114.0464	15	C9H6+
115.0415	20	C8H5N+
115.0542	199	C9H7+
116.0364	2	C7H4N2+
116.0495	34	C8H6N+
117.0573	98	C8H7N+
118.0214	20	
118.0653	17	C8H8N+
119.0491	13	C8H7O+
120.037	161	C8H5F+
121.0322	5	C7H4FN+
122.0151	61	
122.0401	4	C7H5FN+
123.0229	252	
123.0353	15	C6H4FN2+
124.0181	26	C9H2N+
124.0307	41	C10H4+
125.0386	205	C10H5+
126.0464	130	C10H6+
127.0416	24	C9H5N+
127.0543	22	C10H7+
128.0494	14	C9H6N+
128.062	16	C10H8+
129.0447	39	C8H5N2+
130.04	32	C7H4N3+
131.0292	131	C9H4F+
132.0246	4	C8H3FN+
132.0368	16	C9H5F+
133.0448	574	C9H6F+
134.0401	14	C8H5FN+
137.0386	157	C11H5+
138.0337	21	C10H4N+
138.0464	54	C11H6+
139.0542	239	C11H7+
140.0495	90	C10H6N+
142.0418	2	C10H6O+
142.0523	8	C9H6N2+
143.029	16	C10H4F+
143.0493	34	
144.037	287	C10H5F+
145.0323	13	C9H4FN+
145.045	21	C10H6F+
145.0647	5	C10H9O+
146.0404	8	C9H5FN+
146.0527	94	C10H7F+
147.0352	4	C8H4FN2+
148.0308	20	
149.0386	348	C12H5+
150.0464	883	C12H6+
151.0416	68	C11H5N+
151.0542	90	C12H7+
152.0494	25	C11H6N+
152.062	115	C12H8+
153.0337	16	C11H5O+
153.0447	31	C10H5N2+
153.0572	21	C11H7N+
154.0401	11	C9H4N3+
154.0653	2	C11H8N+
155.0291	43	C11H4F+
155.0603	23	C10H7N2+
156.037	33	C11H5F+
156.057	3	C11H8O+
157.0449	498	C11H6F+
158.0401	85	C10H5FN+
158.0526	10	C11H7F+
161.0386	112	C13H5+
162.0342	11	C9H5FNO+
162.0464	169	C13H6+
163.0542	999	C13H7+
164.0496	188	C12H6N+
164.0619	130	C8H7FN3+
165.0578	10	
165.0699	161	C13H9+
166.0414	15	
166.0651	26	C12H8N+
167.0491	95	C12H7O+
168.037	305	C12H5F+
168.0441	19	C11H6NO+
168.0568	52	C7H7FN3O+
169.0448	80	C12H6F+
169.0648	207	C12H9O+
170.0527	440	C12H7F+
170.0598	29	C11H8NO+
171.0479	31	C11H6FN+
172.0556	5	C11H7FN+
173.0389	14	C11H6FO+
173.0508	29	C10H6FN2+
174.0464	137	C14H6+
175.0417	279	C13H5N+
175.0542	20	C14H7+
176.0496	81	C13H6N+
176.0618	36	C9H7FN3+
177.0455	44	C12H5N2+
177.0573	219	C13H7N+
178.0528	4	C12H6N2+
178.0651	34	C13H8N+
179.0294	19	
179.0603	83	C12H7N2+
179.0726	4	C13H9N+
180.037	54	C13H5F+
180.0446	12	C12H6NO+
180.0555	3	C11H6N3+
181.0448	795	C13H6F+
182.0404	47	C12H5FN+
182.0526	157	C13H7F+
183.0605	391	C13H8F+
184.0557	28	C12H7FN+
185.0589	44	
186.0475	65	C12H7FO+
187.0554	230	C12H8FO+
188.0496	109	C14H6N+
189.0447	4	C13H5N2+
189.0572	45	C14H7N+
190.0651	194	C14H8N+
191.0603	8	C13H7N2+
191.0729	33	C14H9N+
192.0369	5	C14H5F+
192.0447	9	C13H6NO+
192.0675	3	C13H8N2+
192.0804	2	C14H10N+
193.0445	3	C14H6F+
193.0522	15	C13H7NO+
193.0647	24	C14H9O+
194.0364	34	
194.0524	77	C14H7F+
194.0602	162	C13H8NO+
195.0478	162	C13H6FN+
195.0554	15	
196.0551	41	C13H7FN+
196.0679	2	C14H9F+
197.051	162	C12H6FN2+
198.0717	2	C13H9FN+
199.0416	11	C15H5N+
201.0572	56	C15H7N+
202.0525	49	C14H6N2+
202.0654	4	C15H8N+
203.0602	42	C14H7N2+
203.0721	3	C15H9N+
204.0557	143	C13H6N3+
205.0757	4	C14H9N2+
206.04	25	C14H5FN+
207.0477	9	C14H6FN+
208.0557	67	C14H7FN+
209.0635	39	C14H8FN+
214.0424	31	C13H7FO2+
216.0685	20	C15H8N2+
217.0755	3	C15H9N2+
218.0599	4	C15H8NO+
219.0476	10	C15H6FN+
221.0477	5	C11H8FNO3+
221.063	3	C15H8FN+
222.0463	5	C13H5FN3+
223.0665	20	C14H8FN2+
228.0558	2	C15H6N3+
229.0512	2	C16H7NO+
