Mass spectrum: Epinephrine; LC-ESI-QFT; MS2; CE: 90; R=35000; [M-H]-
Name: Epinephrine
Name: 4-[(1R)-1-hydroxy-2-(methylamino)ethyl]benzene-1,2-diol
Formula: C9H13NO3
Exact mass: 183.08954
SMILES: CNC[C@@H](C1=CC(=C(C=C1)O)O)O
InChI: InChI=1S/C9H13NO3/c1-10-5-9(13)6-2-3-7(11)8(12)4-6/h2-4,9-13H,5H2,1H3/t9-/m0/s1
Instrument: Q Exactive Orbitrap Thermo Scientific
Instrument type: LC-ESI-QFT
Ms type: MS2
Ion mode: NEGATIVE
Ionization: ESI
Fragmentation mode: HCD
Collision energy: 90 (nominal)
Resolution: 35000
Column name: XBridge C18 3.5um, 2.1x50mm, Waters
Retention time: 0.8 min
Base peak: 182.0824
Precursor m/z: 182.0823
Precursor type: [M-H]-
m/z	relative intensity	assigned
65.0397	3	C5H5-
67.0191	4	C4H3O-
81.0346	5	C5H5O-
92.0506	39	C6H6N-
93.0346	40	C6H5O-
95.0503	3	C6H7O-
102.035	26	C7H4N-
107.0503	4	C7H7O-
108.0218	43	C6H4O2-
109.0295	57	C6H5O2-
120.0455	20	C7H6NO-
121.0296	86	C7H5O2-
122.0374	999	C7H6O2-
123.0452	50	C7H7O2-
124.0168	23	C6H4O3-
130.0298	42	C8H4NO-
131.0377	27	C8H5NO-
133.0296	11	C8H5O2-
134.0377	28	C8H6O2-
135.0452	75	C8H7O2-
136.0164	6	C7H4O3-
137.0244	94	C7H5O3-
144.0456	5	C9H6NO-
147.0327	75	C8H5NO2-
148.0404	604	C8H6NO2-
149.0481	297	C8H7NO2-
154.0271	44	C7H6O4-
160.0404	12	C9H6NO2-
161.0484	39	C9H7NO2-
162.0561	22	C9H8NO2-
163.0641	4	C9H9NO2-
164.0718	25	C9H10NO2-
