Mass spectrum: Amoxicillin; LC-ESI-QFT; MS2; CE: 45; R=35000; [M-H]-
Name: Amoxicillin
Name: Amoxicillin anhydrous
Name: (2S,5R,6R)-6-[[(2R)-2-amino-2-(4-hydroxyphenyl)-1-oxoethyl]amino]-3,3-dimethyl-7-oxo-4-thia-1-azabicyclo[3.2.0]heptane-2-carboxylic acid
Formula: C16H19N3O5S
Exact mass: 365.10454
SMILES: CC1(C)S[C@@H]2[C@H](NC(=O)[C@H](N)C3=CC=C(O)C=C3)C(=O)N2[C@H]1C(O)=O
InChI: InChI=1S/C16H19N3O5S/c1-16(2)11(15(23)24)19-13(22)10(14(19)25-16)18-12(21)9(17)7-3-5-8(20)6-4-7/h3-6,9-11,14,20H,17H2,1-2H3,(H,18,21)(H,23,24)/t9-,10-,11+,14-/m1/s1
Instrument: Q Exactive Orbitrap Thermo Scientific
Instrument type: LC-ESI-QFT
Ms type: MS2
Ion mode: NEGATIVE
Ionization: ESI
Fragmentation mode: HCD
Collision energy: 45 (nominal)
Resolution: 35000
Column name: XBridge C18 3.5um, 2.1x50mm, Waters
Retention time: 2.2 min
Base peak: 364.0974
Precursor m/z: 364.0973
Precursor type: [M-H]-
m/z	relative intensity	assigned
56.9805	1	C2HS-
57.9757	2	CNS-
58.9961	1	C2H3S-
65.0397	1	C5H5-
70.9835	1	C2HNS-
71.9913	20	C2H2NS-
72.9754	7	C2HOS-
72.9991	60	C2H3NS-
74.007	127	C2H4NS-
74.991	5	C2H3OS-
83.0251	188	C3H3N2O-
83.9913	45	C3H2NS-
86.007	80	C3H4NS-
89.0178	6	C2H5N2S-
93.0346	999	C6H5O-
95.0251	21	C4H3N2O-
95.0502	5	C6H7O-
99.9863	128	C3H2NOS-
102.0019	24	C3H4NOS-
111.0023	11	C4H3N2S-
111.9863	27	C4H2NOS-
117.0346	1	C8H5O-
118.0299	11	C7H4NO-
119.0503	24	C8H7O-
120.0455	78	C7H6NO-
121.0295	1	C7H5O2-
123.0452	113	C7H7O2-
123.9988	1	C6H4OS-
125.0067	7	C6H5OS-
129.0129	669	C4H5N2OS-
132.0216	105	C8H4O2-
133.0295	338	C8H5O2-
134.0609	1	C8H8NO-
137.0066	41	C7H5OS-
144.0454	17	C9H6NO-
145.0294	5	C9H5O2-
146.0611	63	C9H8NO-
147.0324	3	C8H5NO2-
148.0404	5	C8H6NO2-
150.0144	1	C8H6OS-
150.0559	3	C8H8NO2-
151.0222	32	C8H7OS-
160.0402	4	C9H6NO2-
162.0019	7	C8H4NOS-
162.056	10	C9H8NO2-
163.0223	50	C9H7OS-
163.9938	1	C8H4O2S-
171.0602	1	C7H11N2OS-
172.0404	141	C10H6NO2-
173.0479	3	C10H7NO2-
178.0329	13	C9H8NOS-
188.0177	15	C10H6NOS-
189.067	16	C10H9N2O2-
206.028	165	C10H8NO2S-
223.0544	6	C10H11N2O2S-
254.0702	1	C14H10N2O3-
