Mass spectrum: Chlortetracycline; LC-ESI-QFT; MS2; CE: 75; R=35000; [M-H]-
Name: Chlortetracycline
Name: 2-carbamoyl-7-chloro-4-(dimethylazaniumyl)-6,10,11,12a-tetrahydroxy-6-methyl-3,12-dioxo-4,4a,5,5a-tetrahydrotetracen-1-olate
Formula: C22H23ClN2O8
Exact mass: 478.11429
SMILES: CC1(C2CC3C(C(=O)C(=C(C3(C(=O)C2=C(C4=C(C=CC(=C41)Cl)O)O)O)O)C(=O)N)N(C)C)O
InChI: InChI=1S/C22H23ClN2O8/c1-21(32)7-6-8-15(25(2)3)17(28)13(20(24)31)19(30)22(8,33)18(29)11(7)16(27)12-10(26)5-4-9(23)14(12)21/h4-5,7-8,15,26-27,30,32-33H,6H2,1-3H3,(H2,24,31)
Instrument: Q Exactive Plus Orbitrap Thermo Scientific
Instrument type: LC-ESI-QFT
Ms type: MS2
Ion mode: NEGATIVE
Ionization: ESI
Fragmentation mode: HCD
Collision energy: 75 (nominal)
Resolution: 35000
Column name: XBridge C18 3.5um, 2.1x50mm, Waters
Retention time: 5.4 min
Base peak: 477.1067
Precursor m/z: 477.107
Precursor type: [M-H]-
m/z	relative intensity	assigned
50.0035	2	C3N-
57.0346	3	C3H5O-
59.0138	28	C2H3O2-
63.024	70	C5H3-
65.0033	24	C4HO-
65.0397	46	C5H5-
65.9985	42	C3NO-
67.019	8	C4H3O-
68.0142	2	C3H2NO-
68.9982	48	C3HO2-
69.0347	2	C4H5O-
71.0138	3	C3H3O2-
75.0241	7	C6H3-
77.0396	2	C6H5-
78.0349	1	C5H4N-
79.0189	7	C5H3O-
79.0553	22	C6H7-
81.0219	2	C4H3NO-
81.0345	18	C5H5O-
83.0139	3	C4H3O2-
83.0502	24	C5H7O-
84.0091	98	C3H2NO2-
86.0247	8	C3H4NO2-
87.0087	2	C3H3O3-
89.0396	13	C7H5-
90.035	3	C6H4N-
91.0189	26	C6H3O-
91.0553	8	C7H7-
93.0346	61	C6H5O-
95.0139	24	C5H3O2-
95.0503	20	C6H7O-
96.0091	21	C4H2NO2-
96.9931	22	C4HO3-
97.0295	7	C5H5O2-
99.0087	7	C4H3O3-
100.077	2	C5H10NO-
103.0553	9	C8H7-
104.0268	2	C7H4O-
105.0345	38	C7H5O-
107.0138	20	C6H3O2-
107.0502	62	C7H7O-
108.0216	28	C6H4O2-
109.0295	85	C6H5O2-
111.0087	3	C5H3O3-
111.0452	56	C6H7O2-
115.0189	2	C8H3O-
117.0346	83	C8H5O-
118.03	9	C7H4NO-
119.0139	52	C7H3O2-
119.0503	18	C8H7O-
120.009	2	C6H2NO2-
120.0218	3	C7H4O2-
120.0457	2	C7H6NO-
121.0295	37	C7H5O2-
121.0659	31	C8H9O-
122.0008	2	C6H2O3-
122.0249	3	C6H4NO2-
122.0372	7	C7H6O2-
123.0088	10	C6H3O3-
123.0452	73	C7H7O2-
124.004	9	C5H2NO3-
124.0165	8	C6H4O3-
124.0768	2	C7H10NO-
124.98	30	C6H2ClO-
124.9879	3	C5HO4-
125.0243	3	C6H5O3-
125.072	6	C6H9N2O-
125.9877	9	C6H3ClO-
126.0197	3	C5H4NO3-
126.0561	40	C6H8NO2-
126.9956	449	C6H4ClO-
129.0347	6	C9H5O-
130.0422	4	C9H6O-
131.0138	19	C8H3O2-
131.0504	14	C9H7O-
132.0217	17	C8H4O2-
133.0295	101	C8H5O2-
134.0248	56	C7H4NO2-
134.0371	6	C8H6O2-
135.0088	155	C7H3O3-
135.0452	82	C8H7O2-
136.0165	11	C7H4O3-
136.0403	11	C7H6NO2-
137.0242	19	C7H5O3-
137.0607	3	C8H9O2-
137.996	2	C6H2O4-
138.0323	3	C7H6O3-
139.0149	77	C5H3N2O3-
140.0037	2	C7H5ClO-
141.9828	22	C6H3ClO2-
142.9987	8	C5H3O5-
143.0135	2	C9H3O2-
143.0502	8	C10H7O-
145.0294	37	C9H5O2-
146.0373	7	C9H6O2-
147.0452	38	C9H7O2-
148.0165	3	C8H4O3-
149.0243	35	C8H5O3-
149.0608	38	C9H9O2-
149.9958	9	C7H2O4-
150.0198	10	C7H4NO3-
150.9957	109	C8H4ClO-
152.0353	8	C7H6NO3-
153.0113	33	C8H6ClO-
153.0556	2	C8H9O3-
154.9908	7	C7H4ClO2-
157.0292	2	C10H5O2-
158.0374	9	C10H6O2-
159.0088	9	C9H3O3-
159.0451	12	C10H7O2-
160.0166	45	C9H4O3-
161.0245	57	C9H5O3-
162.0197	52	C8H4NO3-
163.0038	64	C8H3O4-
163.0272	4	C8H5NO3-
163.0401	12	C9H7O3-
164.0115	11	C8H4O4-
164.0354	8	C8H6NO3-
165.0114	1	C9H6ClO-
165.0429	3	C8H7NO3-
166.9904	3	C8H4ClO2-
167.0502	11	C12H7O-
169.0062	999	C8H6ClO2-
170.0374	3	C11H6O2-
170.9855	8	C7H4ClO3-
171.0451	29	C11H7O2-
172.0165	2	C10H4O3-
172.0531	3	C11H8O2-
173.0242	11	C10H5O3-
174.0321	9	C10H6O3-
175.0325	3	C11H8Cl-
175.0401	18	C10H7O3-
176.0115	3	C9H4O4-
177.0112	10	C10H6ClO-
177.0306	7	C8H5N2O3-
178.9905	57	C9H4ClO2-
179.9983	18	C9H5ClO2-
180.0301	2	C8H6NO4-
180.0579	10	C13H8O-
181.006	8	C9H6ClO2-
181.066	15	C13H9O-
182.0375	10	C12H6O2-
183.0454	12	C12H7O2-
184.0527	3	C12H8O2-
185.0245	4	C11H5O3-
185.0607	4	C12H9O2-
186.0322	2	C11H6O3-
187.0401	18	C11H7O3-
188.0479	3	C11H8O3-
189.0194	3	C10H5O4-
190.0274	6	C10H6O4-
191.0266	17	C11H8ClO-
191.0341	1	C10H7O4-
191.05	3	C14H7O-
191.9985	12	C10H5ClO2-
193.006	23	C10H6ClO2-
193.0656	9	C14H9O-
194.037	9	C13H6O2-
194.9854	725	C9H4ClO3-
195.9934	3	C9H5ClO3-
196.0528	13	C13H8O2-
197.0012	12	C9H6ClO3-
197.0245	4	C12H5O3-
197.0608	13	C13H9O2-
198.0321	50	C12H6O3-
199.0401	8	C12H7O3-
199.0766	13	C13H11O2-
201.0111	3	C12H6ClO-
201.0198	4	C8H8ClNO3-
203.027	25	C12H8ClO-
205.0061	14	C11H6ClO2-
206.014	108	C11H7ClO2-
207.0218	95	C11H8ClO2-
207.0451	9	C14H7O2-
207.9935	19	C10H5ClO3-
208.0532	12	C14H8O2-
209.024	2	C13H5O3-
209.0609	31	C14H9O2-
210.032	15	C13H6O3-
211.0402	39	C13H7O3-
211.0764	2	C14H11O2-
212.0479	27	C13H8O3-
213.0556	2	C13H9O3-
214.0272	2	C12H6O4-
215.0267	7	C13H8ClO-
215.036	3	C9H10ClNO3-
217.0056	7	C12H6ClO2-
217.0426	26	C13H10ClO-
219.0218	40	C12H8ClO2-
219.0451	10	C15H7O2-
220.0297	42	C12H9ClO2-
220.0531	9	C15H8O2-
221.0011	42	C11H6ClO3-
221.0373	12	C12H10ClO2-
221.0608	11	C15H9O2-
222.0323	30	C14H6O3-
223.0763	2	C15H11O2-
224.0482	13	C11H11ClNO2-
225.0556	7	C14H9O3-
226.0271	12	C13H6O4-
227.0352	9	C13H7O4-
229.0061	35	C13H6ClO2-
229.0417	2	C14H10ClO-
230.0134	14	C13H7ClO2-
231.0215	16	C13H8ClO2-
231.9936	2	C12H5ClO3-
233.0014	2	C12H6ClO3-
233.0373	3	C13H10ClO2-
233.0607	6	C16H9O2-
235.017	24	C12H8ClO3-
235.04	28	C15H7O3-
235.0529	12	C13H12ClO2-
235.9877	7	C11H5ClO4-
236.0476	8	C15H8O3-
238.004	37	C11H7ClO4-
238.0269	14	C14H6O4-
240.043	55	C14H8O4-
243.0215	49	C14H8ClO2-
245.0013	16	C13H6ClO3-
245.0373	38	C14H10ClO2-
246.0087	3	C13H7ClO3-
247.0167	43	C13H8ClO3-
247.0402	8	C16H7O3-
248.0244	39	C13H9ClO3-
248.0478	10	C16H8O3-
248.9964	2	C12H6ClO4-
249.0552	9	C16H9O3-
250.0266	7	C15H6O4-
251.0349	12	C15H7O4-
253.0049	2	C16HN2O2-
253.0161	2	C17H3NO2-
253.0506	11	C15H9O4-
255.0206	6	C16H3N2O2-
257.0375	29	C15H10ClO2-
258.0072	8	C15H2N2O3-
258.0172	12	C10H9ClNO5-
259.0162	21	C14H8ClO3-
259.9875	3	C13H5ClO4-
260.0251	4	C14H9ClO3-
260.0493	2	C14H11ClNO2-
260.996	2	C13H6ClO4-
261.0322	12	C14H10ClO3-
263.0351	6	C16H7O4-
263.0481	3	C14H12ClO3-
264.043	4	C16H8O4-
265.0273	2	C13H10ClO4-
265.05	4	C16H9O4-
266.0215	11	C15H6O5-
268.0377	10	C15H8O5-
269.0007	8	C15H6ClO3-
271.0168	108	C15H8ClO3-
272.9961	4	C14H6ClO4-
273.0325	15	C15H10ClO3-
274.0038	9	C14H7ClO4-
275.012	3	C14H8ClO4-
275.0349	2	C17H7O4-
276.0434	1	C14H11ClNO3-
278.0218	10	C16H6O5-
283.0161	18	C16H8ClO3-
284.033	2	C12H11ClNO5-
284.9959	9	C15H6ClO4-
285.0322	25	C16H10ClO3-
286.0036	9	C15H7ClO4-
287.0109	10	C15H8ClO4-
289.0268	12	C15H10ClO4-
296.0331	6	C13H11ClNO5-
300.0274	7	C15H8O7-
301.0272	14	C16H10ClO4-
301.9987	2	C15H7ClO5-
308.996	2	C17H6ClO4-
311.0113	3	C17H8ClO4-
328.023	12	C13H11ClNO7-
329.0221	2	C17H10ClO5-
