Mass spectrum: Pirimicarb-desamido; LC-ESI-QFT; MS2; CE: 120%; R=17500; [M+H]+
Name: Pirimicarb-desamido
Name: 2-(dimethylamino)-5,6-dimethyl-1H-pyrimidin-4-one
Formula: C8H13N3O
Exact mass: 167.1059
SMILES: CC1=C(N=C(N=C1C)N(C)C)O
InChI: InChI=1S/C8H13N3O/c1-5-6(2)9-8(11(3)4)10-7(5)12/h1-4H3,(H,9,10,12)
Instrument: Q Exactive Plus Orbitrap Thermo Scientific
Instrument type: LC-ESI-QFT
Ms type: MS2
Ion mode: POSITIVE
Ionization: ESI
Fragmentation mode: HCD
Collision energy: 120 % (nominal)
Resolution: 17500
Column name: XBridge C18 3.5um, 2.1x50mm, Waters
Retention time: 1.434 min
Base peak: 168.1132
Precursor m/z: 168.1131
Precursor type: [M+H]+
m/z	relative intensity	assigned
53.0022	4	C3HO+
53.0387	16	C4H5+
54.0338	7	C3H4N+
55.0291	83	C2H3N2+
55.0542	24	C4H7+
56.0369	79	C2H4N2+
56.0494	5	C3H6N+
67.0417	3	C4H5N+
68.0495	34	C4H6N+
69.0084	108	C2HN2O+
69.0574	21	C4H7N+
70.0651	42	C4H8N+
71.0604	999	C3H7N2+
72.0445	4	C3H6NO+
93.0448	8	C5H5N2+
94.0526	7	C5H6N2+
95.0605	7	C5H7N2+
98.0601	37	C5H8NO+
109.076	22	C6H9N2+
123.0554	12	C6H7N2O+
124.0632	5	C6H8N2O+
125.0708	4	C6H9N2O+
