Mass spectrum: Lansoprazole; LC-ESI-QFT; MS2; CE: 150; R=35000; [M+H]+
Name: Lansoprazole
Name: 2-[[3-methyl-4-(2,2,2-trifluoroethoxy)pyridin-2-yl]methylsulfinyl]-1H-benzimidazole
Formula: C16H14F3N3O2S
Exact mass: 369.07588
SMILES: Cc1c(ccnc1CS(=O)c2[nH]c3ccccc3n2)OCC(F)(F)F
InChI: InChI=1S/C16H14F3N3O2S/c1-10-13(20-7-6-14(10)24-9-16(17,18)19)8-25(23)15-21-11-4-2-3-5-12(11)22-15/h2-7H,8-9H2,1H3,(H,21,22)
Instrument: Q Exactive Plus Orbitrap Thermo Scientific
Instrument type: LC-ESI-QFT
Ms type: MS2
Ion mode: POSITIVE
Ionization: ESI
Fragmentation mode: HCD
Collision energy: 150 (nominal)
Resolution: 35000
Column name: XBridge C18 3.5um, 2.1x50mm, Waters
Retention time: 7.4 min
Base peak: 370.0829
Precursor m/z: 370.0832
Precursor type: [M+H]+
m/z	relative intensity	assigned
50.0151	50	C4H2+
51.0229	56	C4H3+
52.0182	7	C3H2N+
52.0307	15	C4H4+
53.0022	38	C3HO+
53.0386	137	C4H5+
53.9974	2	C2NO+
54.0338	19	C3H4N+
54.0463	1	C4H6+
55.0179	11	C3H3O+
55.0416	3	C3H5N+
55.0543	2	C4H7+
56.0495	6	C3H6N+
57.0135	4	C3H2F+
57.9872	6	C2H2S+
58.9949	1	C2H3S+
62.0151	2	C5H2+
63.0229	54	C5H3+
64.0182	4	C4H2N+
64.0307	15	C5H4+
65.0386	839	C5H5+
66.0338	8	C4H4N+
66.0464	139	C5H6+
67.0416	89	C4H5N+
67.0542	91	C5H7+
67.9892	4	C3O2+
68.0131	4	C3H2NO+
68.0494	21	C4H6N+
68.9793	32	C3HS+
69.0135	2	C4H2F+
69.9871	101	C3H2S+
70.0287	7	C3H4NO+
70.0651	10	C4H8N+
70.9949	9	C3H3S+
71.9901	6	C2H2NS+
72.0027	5	C3H4S+
75.0229	8	C6H3+
76.0182	1	C5H2N+
77.0385	73	CH4FN3+
78.0338	113	C5H4N+
78.0463	7	C6H6+
79.0416	100	C5H5N+
79.0542	360	C6H7+
80.0494	320	C5H6N+
81.0335	8	C5H5O+
81.0573	4	C5H7N+
81.0698	8	C6H9+
81.9872	7	C4H2S+
82.995	14	C4H3S+
83.9903	1	C3H2NS+
84.0026	1	C4H4S+
89.0385	9	C7H5+
90.0339	14	C6H4N+
91.0416	73	C6H5N+
91.0543	12	C7H7+
92.0495	444	C6H6N+
93.0573	136	C6H7N+
94.0288	6	C5H4NO+
94.0652	59	C6H8N+
94.995	80	C5H3S+
95.0366	21	C5H5NO+
95.0491	216	C6H7O+
95.9902	11	C4H2NS+
96.0028	167	C5H4S+
96.0444	196	C5H6NO+
97.0107	69	C5H5S+
98.006	2	C4H4NS+
99.0137	7	C4H5NS+
100.0214	2	C4H6NS+
102.0337	1	C7H4N+
104.0496	10	C7H6N+
105.0447	101	C6H5N2+
106.0651	999	C7H8N+
107.0729	196	C7H9N+
108.0807	279	C7H10N+
109.0523	1	C6H7NO+
110.0059	35	C5H4NS+
110.06	96	C6H8NO+
111.0011	5	C4H3N2S+
111.0315	12	C5H5NO2+
112.0393	5	C5H6NO2+
117.0447	1	C7H5N2+
117.0574	2	C8H7N+
118.0524	20	C7H6N2+
118.0651	1	C8H8N+
119.0604	90	C7H7N2+
120.0444	30	C7H6NO+
122.0058	59	C6H4NS+
122.06	19	C7H8NO+
123.0137	120	C6H5NS+
124.0215	9	C6H6NS+
125.0471	5	C6H7NO2+
127.0265	5	C3H7F2NS+
127.9926	12	C5H4O2S+
134.006	13	C7H4NS+
136.0214	7	C7H6NS+
136.0556	1	C8H7FN+
136.0756	8	C8H10NO+
150.0007	7	C7H4NOS+
151.0086	48	C7H5NOS+
152.0164	18	C7H6NOS+
168.0685	1	C11H8N2+
179.0605	1	C12H7N2+
181.0756	2	C12H9N2+
