Mass spectrum: 2-Aminobenzothiazole; LC-ESI-QFT; MS2; CE: 180; R=35000; [M+H]+
Name: 2-Aminobenzothiazole
Name: benzo(d)thiazol-2-amine
Name: 1,3-benzothiazol-2-amine
Formula: C7H6N2S
Exact mass: 150.02517
SMILES: c1ccc2c(c1)nc(s2)N
InChI: InChI=1S/C7H6N2S/c8-7-9-5-3-1-2-4-6(5)10-7/h1-4H,(H2,8,9)
Instrument: Q Exactive Plus Orbitrap Thermo Scientific
Instrument type: LC-ESI-QFT
Ms type: MS2
Ion mode: POSITIVE
Ionization: ESI
Fragmentation mode: HCD
Collision energy: 180 (nominal)
Resolution: 35000
Column name: XBridge C18 3.5um, 2.1x50mm, Waters
Retention time: 3.1 min
Base peak: 151.0325
Precursor m/z: 151.0324
Precursor type: [M+H]+
m/z	relative intensity	assigned
50.0152	25	C4H2+
51.023	29	C4H3+
52.0183	4	C3H2N+
53.0023	38	C3HO+
53.0386	84	C4H5+
53.9975	10	C2NO+
54.0339	2	C3H4N+
54.0464	4	C4H6+
55.0179	4	C3H3O+
57.9872	7	C2H2S+
58.995	3	C2H3S+
59.9903	38	CH2NS+
62.0151	14	C5H2+
63.023	141	C5H3+
64.0182	76	C4H2N+
64.0308	22	C5H4+
65.0386	999	C5H5+
66.0464	9	C5H6+
67.0417	5	C4H5N+
67.9893	10	
68.9794	476	C3HS+
69.9872	7	C3H2S+
70.9951	5	C3H3S+
75.023	3	C6H3+
77.0386	42	C6H5+
78.0337	2	C5H4N+
78.0465	1	C6H6+
80.0495	265	C5H6N+
80.9794	5	C4HS+
81.0335	4	C5H5O+
81.9872	28	C4H2S+
82.995	13	C4H3S+
90.0339	60	C6H4N+
91.0417	52	C6H5N+
92.0495	8	C6H6N+
92.9795	12	C5HS+
93.0575	4	C6H7N+
94.9951	5	C5H3S+
95.0492	50	C6H7O+
96.0029	18	C5H4S+
96.0445	2	C5H6NO+
97.0108	21	C5H5S+
105.0448	26	C6H5N2+
106.9949	6	C6H3S+
108.0029	72	C6H4S+
109.0108	139	C6H5S+
118.0526	16	C7H6N2+
122.0059	3	C6H4NS+
123.0137	1	C6H5NS+
124.0218	9	C6H6NS+
132.9981	3	C7H3NS+
