Mass spectrum: N-Nitrosodiphenylamine; LC-ESI-QFT; MS2; CE: 60; R=70000; [M+H]+
Name: N-Nitrosodiphenylamine
Name: N,N-diphenylnitrous amide
Formula: C12H10N2O
Exact mass: 198.07931
SMILES: O=NN(c1ccccc1)c2ccccc2
InChI: InChI=1S/C12H10N2O/c15-13-14(11-7-3-1-4-8-11)12-9-5-2-6-10-12/h1-10H
Instrument: Q Exactive Plus Orbitrap Thermo Scientific
Instrument type: LC-ESI-QFT
Ms type: MS2
Ion mode: POSITIVE
Ionization: ESI
Fragmentation mode: HCD
Collision energy: 60 (nominal)
Resolution: 70000
Column name: XBridge C18 3.5um, 2.1x50mm, Waters
Retention time: 10.1 min
Base peak: 199.0865
Precursor m/z: 199.0866
Precursor type: [M+H]+
m/z	relative intensity	assigned
53.0385	1	C4H5+
65.0386	21	C5H5+
66.0464	999	C5H6+
77.0384	3	C6H5+
91.0416	2	C6H5N+
95.0491	13	C6H7O+
104.0494	232	C7H6N+
105.0447	4	C6H5N2+
142.0777	3	C11H10+
143.073	5	C10H9N+
154.0651	4	C11H8N+
167.0729	5	C12H9N+
168.0808	336	C12H10N+
169.0886	183	C12H11N+
