Mass spectrum: Uvinul-LR; LC-ESI-QFT; MS2; CE: 180%; R=17500; [M+H]+
Name: Uvinul-LR
Name: 2-ethoxyethyl 2-cyano-2-[3-(3-methoxypropylamino)cyclohex-2-en-1-ylidene]acetate
Formula: C17H26N2O4
Exact mass: 322.1893
SMILES: CCOCCOC(=O)C(=C1CCCC(=C1)NCCCOC)C#N
InChI: InChI=1S/C17H26N2O4/c1-3-22-10-11-23-17(20)16(13-18)14-6-4-7-15(12-14)19-8-5-9-21-2/h12,19H,3-11H2,1-2H3
Instrument: Exploris 240 Orbitrap Thermo Scientific
Instrument type: LC-ESI-QFT
Ms type: MS2
Ion mode: POSITIVE
Ionization: ESI
Fragmentation mode: HCD
Collision energy: 180 % (nominal)
Resolution: 17500
Column name: XBridge C18 3.5um, 2.1x50mm, Waters
Retention time: 6.721 min
Base peak: 233.1283
Precursor m/z: 323.1965
Precursor type: [M+H]+
m/z	relative intensity	assigned
51.023	404	C4H3+
53.0387	122	C4H5+
63.0229	758	C5H3+
64.0183	151	C4H2N+
65.0386	677	C5H5+
77.0384	328	C6H5+
78.0337	87	C5H4N+
78.0466	148	C6H6+
79.0541	69	C6H7+
89.0387	999	C7H5+
90.0339	87	C6H4N+
90.0468	148	C7H6+
91.0544	372	C7H7+
95.0493	269	C6H7O+
105.0449	139	C6H5N2+
116.0497	146	C8H6N+
117.0574	144	C8H7N+
