Mass spectrum: Flocoumafen; LC-ESI-QFT; MS2; CE: 60%; R=17500; [M+H]+
Name: Flocoumafen
Name: 4-hydroxy-3-[3-[4-[[4-(trifluoromethyl)phenyl]methoxy]phenyl]-1,2,3,4-tetrahydronaphthalen-1-yl]chromen-2-one
Formula: C33H25F3O4
Exact mass: 542.1705
SMILES: C1C(CC2=CC=CC=C2C1C3=C(C4=CC=CC=C4OC3=O)O)C5=CC=C(C=C5)OCC6=CC=C(C=C6)C(F)(F)F
InChI: InChI=1S/C33H25F3O4/c34-33(35,36)24-13-9-20(10-14-24)19-39-25-15-11-21(12-16-25)23-17-22-5-1-2-6-26(22)28(18-23)30-31(37)27-7-3-4-8-29(27)40-32(30)38/h1-16,23,28,37H,17-19H2
Instrument: Exploris 240 Orbitrap Thermo Scientific
Instrument type: LC-ESI-QFT
Ms type: MS2
Ion mode: POSITIVE
Ionization: ESI
Fragmentation mode: HCD
Collision energy: 60 % (nominal)
Resolution: 17500
Column name: XBridge C18 3.5um, 2.1x50mm, Waters
Retention time: 15.796 min
Base peak: 543.1776
Precursor m/z: 543.1778
Precursor type: [M+H]+
m/z	relative intensity	assigned
79.0543	11	C6H7+
91.0542	83	C7H7+
95.049	9	C6H7O+
105.0698	2	C8H9+
107.0492	67	C7H7O+
109.0449	25	C7H6F+
115.0543	3	C9H7+
117.0698	11	C9H9+
119.049	10	C8H7O+
121.0285	29	C7H5O2+
128.0623	5	C10H8+
129.0699	27	C10H9+
141.0702	5	C11H9+
143.0858	6	C11H11+
159.0416	999	C8H6F3+
163.0386	13	C9H7O3+
165.0703	4	C13H9+
167.086	13	C13H11+
171.0801	12	C12H11O+
175.039	168	C10H7O3+
189.0544	5	C11H9O3+
