Mass spectrum: Flonicamid; LC-ESI-ITFT; MS2; CE: 75%; R=7500; [M+H]+
Name: Flonicamid
Name: N-(cyanomethyl)-4-(trifluoromethyl)-3-pyridinecarboxamide
Formula: C9H6F3N3O
Exact mass: 229.0463
SMILES: O=C(NCC#N)c1cnccc1C(F)(F)F
InChI: InChI=1S/C9H6F3N3O/c10-9(11,12)7-1-3-14-5-6(7)8(16)15-4-2-13/h1,3,5H,4H2,(H,15,16)
Instrument: LTQ Orbitrap XL Thermo Scientific
Instrument type: LC-ESI-ITFT
Ms type: MS2
Ion mode: POSITIVE
Ionization: ESI
Fragmentation mode: HCD
Collision energy: 75 % (nominal)
Resolution: 7500
Column name: XBridge C18 3.5um, 2.1x50mm, Waters
Retention time: 3.9 min
Base peak: 230.0537
Precursor m/z: 230.0536
Precursor type: [M+H]+
m/z	relative intensity	assigned
68.9944	2	CF3+
75.004	1	C3HF2+
79.0416	28	C5H5N+
98.04	237	C5H5FN+
101.0197	27	C5H3F2+
103.0288	1	C6H3N2+
104.0131	2	C6H2NO+
105.0446	6	C6H5N2+
106.0529	2	C6H6N2+
108.024	2	C6H3FN+
110.0402	2	C6H5FN+
111.0318	5	C5H5NO2+
115.0229	5	C5H3F2N+
117.045	2	C7H5N2+
119.0105	2	C5H2F3+
121.0261	6	C5H4F3+
126.0152	4	C6H2F2N+
126.0349	33	C6H5FNO+
128.0306	165	C6H4F2N+
129.0385	112	C6H5F2N+
131.0239	10	C7H3N2O+
134.0474	34	C7H6N2O+
135.0352	23	C7H4FN2+
136.043	13	C7H5FN2+
140.0308	7	C7H4F2N+
144.0255	52	C6H4F2NO+
146.0212	304	C6H3F3N+
147.029	72	C6H4F3N+
148.0368	999	C6H5F3N+
153.0458	11	C7H6FN2O+
155.0415	91	C7H5F2N2+
156.0253	10	C7H4F2NO+
160.0365	3	C7H5F3N+
161.0447	4	C7H6F3N+
162.046	4	C8H5FN3+
163.0299	9	C8H4FN2O+
164.0317	32	C6H5F3NO+
165.0266	3	C8H3F2N2+
170.0284	2	C7H4F2N2O+
173.0322	8	C7H4F3N2+
174.0159	223	C7H3F3NO+
175.0478	26	C7H6F3N2+
176.0317	313	C7H5F3NO+
179.0189	49	C6H4F3NO2+
183.0363	152	C8H5F2N2O+
185.0322	11	C8H4F3N2+
203.0428	160	C8H6F3N2O+
230.0537	4	C9H7F3N3O+
