Mass spectrum: Nimesulide; LC-ESI-QFT; MS2; CE: 75%; R=17500; [M-H]-
Name: Nimesulide
Name: N-(4-nitro-2-phenoxyphenyl)methanesulfonamide
Formula: C13H12N2O5S
Exact mass: 308.046692484
SMILES: CS(=O)(=O)NC1=C(C=C(C=C1)[N+](=O)[O-])OC2=CC=CC=C2
InChI: InChI=1S/C13H12N2O5S/c1-21(18,19)14-12-8-7-10(15(16)17)9-13(12)20-11-5-3-2-4-6-11/h2-9,14H,1H3
Instrument: Exploris 240 Orbitrap Thermo Scientific
Instrument type: LC-ESI-QFT
Ms type: MS2
Ion mode: NEGATIVE
Ionization: ESI
Fragmentation mode: HCD
Collision energy: 75 % (nominal)
Resolution: 17500
Column name: XBridge C18 3.5um, 2.1x50mm, Waters
Retention time: 7.689 min
Base peak: 307.0393
Precursor m/z: 307.0394
Precursor type: [M-H]-
m/z	relative intensity	assigned
63.9624	892	O2S-
76.0193	46	C5H2N-
78.9859	830	CH3O2S-
79.0189	122	C5H3O-
91.0192	16	C6H3O-
93.0349	25	C6H5O-
94.0298	14	C5H4NO-
95.014	22	C5H3O2-
116.0507	12	C8H6N-
118.0297	14	C7H4NO-
122.0247	999	C6H4NO2-
128.0503	23	C9H6N-
142.0662	583	C10H8N-
152.0226	47	C6H4N2O3-
170.0611	332	C11H8NO-
182.061	16	C12H8NO-
183.0691	41	C12H9NO-
197.0483	72	C12H7NO2-
198.0561	361	C12H8NO2-
199.0639	69	C12H9NO2-
227.0462	203	C12H7N2O3-
228.0541	27	C12H8N2O3-
229.0619	253	C12H9N2O3-
