Mass spectrum: Methyldiphenylphosphine oxide; LC-ESI-QFT; MS2; CE: 60%; R=15000; [M+H]+
Name: Methyldiphenylphosphine oxide
Name: [methyl(phenyl)phosphoryl]benzene
Formula: C13H13OP
Exact mass: 216.0704
SMILES: CP(=O)(C1=CC=CC=C1)C2=CC=CC=C2
InChI: InChI=1S/C13H13OP/c1-15(14,12-8-4-2-5-9-12)13-10-6-3-7-11-13/h2-11H,1H3
Instrument: Orbitrap Exploris 240 Thermo Scientific
Instrument type: LC-ESI-QFT
Ms type: MS2
Ion mode: POSITIVE
Ionization: ESI
Fragmentation mode: HCD
Collision energy: 60 % (nominal)
Resolution: 15000
Column name: Atlantis C18 3um, 3.0x150mm, Waters
Retention time: 16.297 min
Base peak: 217.0773
Precursor m/z: 217.0777
Precursor type: [M+H]+
Precursor intensity: 1198465536
m/z	relative intensity	assigned
77.0389	5	C6H5+
91.0541	5	C7H7+
95.049	14	C6H7O+
109.0205	4	C6H6P+
111.0359	5	C6H8P+
121.0198	7	C7H6P+
139.0306	999	C7H8OP+
157.0412	799	
171.0569	78	
217.0775	748	C13H14OP+
