Mass spectrum: Chloridazon; LC-ESI-ITFT; MS2; CE: 45%; R=15000; [M-H]-
Name: Chloridazon
Name: 5-amino-4-chloro-2-phenyl-3-pyridazinone
Formula: C10H8ClN3O
Exact mass: 221.0350
SMILES: ClC(=C(N)C=N1)C(=O)N1-c(ccc2)cc2
InChI: InChI=1S/C10H8ClN3O/c11-9-8(12)6-13-14(10(9)15)7-4-2-1-3-5-7/h1-6H,12H2
Instrument: LTQ Orbitrap XL Thermo Scientific
Instrument type: LC-ESI-ITFT
Ms type: MS2
Ion mode: NEGATIVE
Ionization: ESI
Fragmentation mode: HCD
Collision energy: 45 % (nominal)
Resolution: 15000
Column name: XBridge C18 3.5um, 2.1x50mm, Waters
Retention time: 5.2 min
Base peak: 220.0281
Precursor m/z: 220.0283
Precursor type: [M-H]-
m/z	relative intensity	assigned
65.0145	54	C3HN2-
65.9985	21	C3NO-
73.9803	108	C2HClN-
74.9643	172	C2ClO-
117.046	99	C7H5N2-
150.0116	140	C8H5ClN-
184.0524	18	C10H6N3O-
220.0283	999	C10H7ClN3O-
