Mass spectrum: Valganciclovir; LC-ESI-QFT; MS2; CE: 60; R=35000; [M-H]-
Name: Valganciclovir
Name: (2S)-2-amino-3-methyl-butyric acid [2-[(2-amino-6-keto-3H-purin-9-yl)methoxy]-3-hydroxy-propyl] ester
Formula: C14H22N6O5
Exact mass: 354.16517
SMILES: O=C(OCC(OCn1c2N\C(=N/C(=O)c2nc1)N)CO)[C@@H](N)C(C)C
InChI: InChI=1S/C14H22N6O5/c1-7(2)9(15)13(23)24-4-8(3-21)25-6-20-5-17-10-11(20)18-14(16)19-12(10)22/h5,7-9,21H,3-4,6,15H2,1-2H3,(H3,16,18,19,22)/t8?,9-/m0/s1
Instrument: Q Exactive Orbitrap Thermo Scientific
Instrument type: LC-ESI-QFT
Ms type: MS2
Ion mode: NEGATIVE
Ionization: ESI
Fragmentation mode: HCD
Collision energy: 60 (nominal)
Resolution: 35000
Column name: XBridge C18 3.5um, 2.1x50mm, Waters
Retention time: 1.2 min
Base peak: 353.158
Precursor m/z: 353.1579
Precursor type: [M-H]-
m/z	relative intensity	assigned
65.0145	27	C3HN2-
65.9985	6	C3NO-
66.0097	34	C2N3-
67.0302	12	C3H3N2-
78.0098	2	C3N3-
82.0411	25	C3H4N3-
90.0098	2	C4N3-
92.0254	81	C4H2N3-
94.0411	7	C4H4N3-
106.0285	1	C4H2N4-
107.0364	81	C4H3N4-
108.0204	52	C4H2N3O-
116.0718	999	C5H10NO2-
118.0412	1	C6H4N3-
119.0363	294	C5H3N4-
120.0203	18	C5H2N3O-
120.0568	10	C6H6N3-
126.0309	253	C4H4N3O2-
133.0156	463	C5HN4O-
134.036	226	C6H4N3O-
135.0313	14	C5H3N4O-
136.0516	1	C6H6N3O-
144.0315	11	C6H2N5-
145.0519	4	C7H5N4-
149.0345	2	C5H3N5O-
150.0421	419	C5H4N5O-
151.0261	50	C5H3N4O2-
162.0421	271	C6H4N5O-
164.0577	1	C6H6N5O-
176.0576	41	C7H6N5O-
188.0579	7	C8H6N5O-
206.0683	14	C8H8N5O2-
236.0788	5	C9H10N5O3-
254.089	10	C9H12N5O4-
