Mass spectrum: Ioxitalamic acid; LC-ESI-ITFT; MS2; CE: 90%; R=7500; [M+H]+
Name: Ioxitalamic acid
Name: 3-acetamido-5-(2-hydroxyethylcarbamoyl)-2,4,6-triiodo-benzoic acid
Formula: C12H11I3N2O5
Exact mass: 643.7802
SMILES: CC(=O)NC1=C(I)C(C(O)=O)=C(I)C(C(=O)NCCO)=C1I
InChI: InChI=1S/C12H11I3N2O5/c1-4(19)17-10-8(14)5(11(20)16-2-3-18)7(13)6(9(10)15)12(21)22/h18H,2-3H2,1H3,(H,16,20)(H,17,19)(H,21,22)
Instrument: LTQ Orbitrap XL Thermo Scientific
Instrument type: LC-ESI-ITFT
Ms type: MS2
Ion mode: POSITIVE
Ionization: ESI
Fragmentation mode: HCD
Collision energy: 90 % (nominal)
Resolution: 7500
Column name: XBridge C18 3.5um, 2.1x50mm, Waters
Retention time: 1.3 min
Base peak: 132.958
Precursor m/z: 644.7875
Precursor type: [M+H]+
m/z	relative intensity	assigned
65.0259	182	C4H3N+
76.0185	154	C5H2N+
77.0022	273	C5HO+
91.0418	207	C6H5N+
92.0127	189	C5H2NO+
102.0337	161	C7H4N+
105.0209	999	C6H3NO+
130.0283	244	C8H4NO+
131.0368	514	C8H5NO+
147.0316	499	C8H5NO2+
148.0394	124	C8H6NO2+
163.0269	409	C8H5NO3+
174.0183	140	C9H4NO3+
175.0269	113	C9H5NO3+
175.911	145	C4HI+
204.9154	198	C5H2IO+
231.9252	436	C6H3INO+
245.9417	183	C7H5INO+
257.941	295	C8H5INO+
273.9369	562	C8H5INO2+
301.9316	197	C9H5INO3+
