Mass spectrum: Mexiletine; LC-ESI-QFT; MS2; CE: 75; R=35000; [M+H]+
Name: Mexiletine
Name: 1-(2,6-dimethylphenoxy)-2-propanamine
Formula: C11H17NO
Exact mass: 179.13101
SMILES: O(c1c(cccc1C)C)CC(N)C
InChI: InChI=1S/C11H17NO/c1-8-5-4-6-9(2)11(8)13-7-10(3)12/h4-6,10H,7,12H2,1-3H3
Instrument: Q Exactive Orbitrap Thermo Scientific
Instrument type: LC-ESI-QFT
Ms type: MS2
Ion mode: POSITIVE
Ionization: ESI
Fragmentation mode: HCD
Collision energy: 75 (nominal)
Resolution: 35000
Column name: XBridge C18 3.5um, 2.1x50mm, Waters
Retention time: 5.7 min
Base peak: 180.1382
Precursor m/z: 180.1383
Precursor type: [M+H]+
m/z	relative intensity	assigned
53.0023	16	C3HO+
53.0387	1	C4H5+
53.9975	1	C2NO+
58.0652	999	C3H8N+
65.0385	1	C5H5+
67.9892	1	C3O2+
77.0386	14	C6H5+
79.0542	151	C6H7+
91.0542	44	C7H7+
93.0699	26	C7H9+
95.0491	73	C6H7O+
103.0542	88	C8H7+
105.0699	464	C8H9+
107.049	1	C7H7O+
107.0855	18	C8H11+
109.0648	3	C7H9O+
119.0856	3	C9H11+
121.0648	164	C8H9O+
122.0725	4	C8H10O+
123.0803	21	C8H11O+
130.0781	2	C10H10+
133.0762	4	C8H9N2+
135.0805	33	C9H11O+
148.0877	1	C10H12O+
163.1119	1	C11H15O+
