Mass spectrum: Bensulfuron-Methyl; LC-ESI-QFT; MS2; CE: 45%; R=17500; [M-H]-
Name: Bensulfuron-Methyl
Name: methyl 2-[(4,6-dimethoxypyrimidin-2-yl)carbamoylsulfamoylmethyl]benzoate
Formula: C16H18N4O7S
Exact mass: 410.0896
SMILES: COC1=CC(=NC(=N1)NC(=O)NS(=O)(=O)CC2=CC=CC=C2C(=O)OC)OC
InChI: InChI=1S/C16H18N4O7S/c1-25-12-8-13(26-2)18-15(17-12)19-16(22)20-28(23,24)9-10-6-4-5-7-11(10)14(21)27-3/h4-8H,9H2,1-3H3,(H2,17,18,19,20,22)
Instrument: Exploris 240 Orbitrap Thermo Scientific
Instrument type: LC-ESI-QFT
Ms type: MS2
Ion mode: NEGATIVE
Ionization: ESI
Fragmentation mode: HCD
Collision energy: 45 % (nominal)
Resolution: 17500
Column name: XBridge C18 3.5um, 2.1x50mm, Waters
Retention time: 7.818 min
Base peak: 409.0823
Precursor m/z: 409.0823
Precursor type: [M-H]-
m/z	relative intensity	assigned
65.0145	50	C3HN2-
65.9986	13	C3NO-
90.0097	6	C4N3-
97.0406	8	C4H5N2O-
102.0349	58	C7H4N-
107.0126	11	C4HN3O-
120.0455	15	C7H6NO-
122.036	62	C5H4N3O-
124.0517	14	C5H6N3O-
130.0297	13	C8H4NO-
132.0453	73	C8H6NO-
139.0388	43	C5H5N3O2-
154.062	999	C6H8N3O2-
196.0074	173	C8H6NO3S-
