Mass spectrum: Amiodarone; LC-ESI-QFT; MS2; CE: 60; R=35000; [M+H]+
Name: Amiodarone
Name: (2-butyl-1-benzofuran-3-yl)-[4-(2-diethylaminoethyloxy)-3,5-bis(iodanyl)phenyl]methanone
Formula: C25H29I2NO3
Exact mass: 645.02369
SMILES: Ic1cc(cc(I)c1OCCN(CC)CC)C(=O)c2c3ccccc3oc2CCCC
InChI: InChI=1S/C25H29I2NO3/c1-4-7-11-22-23(18-10-8-9-12-21(18)31-22)24(29)17-15-19(26)25(20(27)16-17)30-14-13-28(5-2)6-3/h8-10,12,15-16H,4-7,11,13-14H2,1-3H3
Instrument: Q Exactive Orbitrap Thermo Scientific
Instrument type: LC-ESI-QFT
Ms type: MS2
Ion mode: POSITIVE
Ionization: ESI
Fragmentation mode: HCD
Collision energy: 60 (nominal)
Resolution: 35000
Column name: XBridge C18 3.5um, 2.1x50mm, Waters
Retention time: 14.4 min
Base peak: 646.0309
Precursor m/z: 646.031
Precursor type: [M+H]+
m/z	relative intensity	assigned
100.1121	999	C6H14N+
115.054	16	C9H7+
128.0623	16	C10H8+
131.0492	226	C9H7O+
157.0645	22	
159.044	641	C10H7O2+
165.0694	26	C13H9+
171.0439	82	C11H7O2+
183.0805	16	C13H11O+
192.0568	98	C14H8O+
193.0649	36	C14H9O+
201.0909	435	C13H13O2+
205.065	107	C15H9O+
206.0725	31	C15H10O+
217.9222	21	C6H3IO+
218.0729	20	C16H10O+
219.0803	26	C16H11O+
220.0519	64	C15H8O2+
221.0596	261	C15H9O2+
231.0808	33	C17H11O+
233.0598	129	C16H9O2+
234.0674	128	C16H10O2+
235.0753	79	C16H11O2+
243.0806	19	C18H11O+
245.9531	22	
247.075	205	C17H11O2+
248.0831	152	C17H12O2+
249.0545	75	C16H9O3+
249.0909	20	C17H13O2+
259.0754	31	C18H11O2+
261.0907	20	
262.0995	18	
263.0708	21	C17H11O3+
272.9404	52	C9H6IO2+
275.07	278	C18H11O3+
276.0779	215	C18H12O3+
289.0857	31	C19H13O3+
290.0939	74	C19H14O3+
333.9482	37	C14H7IO2+
346.9566	133	C15H8IO2+
347.9637	31	C15H9IO2+
358.9565	35	C16H8IO2+
372.8209	109	C7H3I2O2+
460.853	62	C14H7I2O2+
