Mass spectrum: Metoprolol; LC-ESI-ITFT; MS2; CE: 75%; R=7500; [M+H]+
Name: Metoprolol
Name: 1-(isopropylamino)-3-[4-(2-methoxyethyl)phenoxy]propan-2-ol
Formula: C15H25NO3
Exact mass: 267.1834
SMILES: COCCC1=CC=C(OCC(O)CNC(C)C)C=C1
InChI: InChI=1S/C15H25NO3/c1-12(2)16-10-14(17)11-19-15-6-4-13(5-7-15)8-9-18-3/h4-7,12,14,16-17H,8-11H2,1-3H3
Instrument: LTQ Orbitrap XL Thermo Scientific
Instrument type: LC-ESI-ITFT
Ms type: MS2
Ion mode: POSITIVE
Ionization: ESI
Fragmentation mode: HCD
Collision energy: 75 % (nominal)
Resolution: 7500
Column name: XBridge C18 3.5um, 2.1x50mm, Waters
Retention time: 5.1 min
Base peak: 268.1916
Precursor m/z: 268.1907
Precursor type: [M+H]+
m/z	relative intensity	assigned
56.0495	421	C3H6N+
58.065	106	C3H8N+
72.0807	360	C4H10N+
74.06	833	C3H8NO+
77.0383	73	C6H5+
79.0541	145	C6H7+
91.0541	369	C7H7+
98.0963	160	C6H12N+
103.0542	725	C8H7+
105.07	602	C8H9+
115.0547	124	C9H7+
116.1068	221	C6H14NO+
121.0648	841	C8H9O+
131.0857	213	C10H11+
133.0649	999	C9H9O+
135.0804	177	C9H11O+
148.0759	235	C9H10NO+
159.0806	232	C11H11O+
163.0863	334	C9H11N2O+
