Mass spectrum: Fipronil-sulfide; LC-ESI-ITFT; MS2; CE: 15%; R=7500; [M+H]+
Name: Fipronil-sulfide
Name: 5-Amino-1-[2,6-dichloro-4-(trifluoromethyl)phenyl]-4-[(trifluoromethyl)sulfanyl]-1H-pyrazole-3-carbonitrile
Formula: C12H4Cl2F6N4S
Exact mass: 419.9438
SMILES: FC(F)(F)c2cc(Cl)c(n1nc(C#N)c(SC(F)(F)F)c1N)c(Cl)c2
InChI: InChI=1S/C12H4Cl2F6N4S/c13-5-1-4(11(15,16)17)2-6(14)8(5)24-10(22)9(7(3-21)23-24)25-12(18,19)20/h1-2H,22H2
Instrument: LTQ Orbitrap XL Thermo Scientific
Instrument type: LC-ESI-ITFT
Ms type: MS2
Ion mode: POSITIVE
Ionization: ESI
Fragmentation mode: HCD
Collision energy: 15 % (nominal)
Resolution: 7500
Column name: XBridge C18 3.5um, 2.1x50mm, Waters
Retention time: 13.0 min
Base peak: 442.9332
Precursor m/z: 420.9511
Precursor type: [M+H]+
m/z	relative intensity	assigned
319.9832	1	C12H2F6N2S+
420.9506	999	C12H5Cl2F6N4S+
421.9546	7	C10H5Cl2F5N6OS+
