Mass spectrum: Cefadroxil; LC-ESI-QFT; MS2; CE: 75; R=35000; [M-H]-
Name: Cefadroxil
Name: 7-[[2-azaniumyl-2-(4-hydroxyphenyl)acetyl]amino]-3-methyl-8-oxo-5-thia-1-azabicyclo[4.2.0]oct-2-ene-2-carboxylate
Formula: C16H17N3O5S
Exact mass: 363.08889
SMILES: CC1=C(N2C(C(C2=O)NC(=O)C(C3=CC=C(C=C3)O)N)SC1)C(=O)O
InChI: InChI=1S/C16H17N3O5S/c1-7-6-25-15-11(14(22)19(15)12(7)16(23)24)18-13(21)10(17)8-2-4-9(20)5-3-8/h2-5,10-11,15,20H,6,17H2,1H3,(H,18,21)(H,23,24)
Instrument: Q Exactive Plus Orbitrap Thermo Scientific
Instrument type: LC-ESI-QFT
Ms type: MS2
Ion mode: NEGATIVE
Ionization: ESI
Fragmentation mode: HCD
Collision energy: 75 (nominal)
Resolution: 35000
Column name: XBridge C18 3.5um, 2.1x50mm, Waters
Retention time: 2.3 min
Base peak: 362.0818
Precursor m/z: 362.0816
Precursor type: [M-H]-
m/z	relative intensity	assigned
50.0036	31	C3N-
55.0189	14	C3H3O-
56.9805	93	C2HS-
57.9758	134	CNS-
58.996	2	C2H3S-
59.9914	9	CH2NS-
60.9754	136	CHOS-
63.9625	3	O2S-
64.0193	2	C4H2N-
65.0146	20	C3HN2-
65.0398	4	C5H5-
65.9986	20	C3NO-
66.035	4	C4H4N-
67.0302	35	C3H3N2-
70.9837	56	C2HNS-
70.9962	4	C3H3S-
71.0252	3	C2H3N2O-
71.9915	37	C2H2NS-
72.0093	20	C2H2NO2-
72.9755	5	C2HOS-
72.9994	61	C2H3NS-
73.0119	5	C3H5S-
74.0072	57	C2H4NS-
74.9912	13	C2H3OS-
77.0397	4	C6H5-
78.0351	4	C5H4N-
80.0507	13	C5H6N-
81.9758	9	C3NS-
82.0173	2	C3H2N2O-
83.0252	83	C3H3N2O-
83.9914	24	C3H2NS-
84.0092	39	C3H2NO2-
86.0071	11	C3H4NS-
87.0025	3	C2H3N2S-
87.9864	4	C2H2NOS-
90.0351	10	C6H4N-
92.0507	23	C6H6N-
93.0347	541	C6H5O-
94.0298	3	C5H4NO-
95.0252	39	C4H3N2O-
95.0504	59	C6H7O-
96.9993	74	C4H3NS-
98.0071	4	C4H4NS-
99.9864	75	C3H2NOS-
104.0382	3	C6H4N2-
105.0348	3	C7H5O-
105.0458	17	C6H5N2-
106.0426	3	C7H6O-
107.0616	233	C6H7N2-
108.0457	22	C6H6NO-
109.0772	27	C6H9N2-
111.0025	12	C4H3N2S-
111.0201	40	C4H3N2O2-
111.9865	2	C4H2NOS-
112.0227	3	C5H6NS-
116.051	5	C8H6N-
117.0348	321	C8H5O-
117.046	29	C7H5N2-
118.0301	247	C7H4NO-
119.0504	318	C8H7O-
120.0457	999	C7H6NO-
121.0296	13	C7H5O2-
121.0409	2	C6H5N2O-
121.0774	2	C7H9N2-
122.0489	5	C6H6N2O-
123.0453	224	C7H7O2-
123.9988	3	C6H4OS-
124.0227	20	C6H6NS-
125.0066	3	C6H5OS-
126.0385	9	C6H8NS-
126.9973	8	C4H3N2OS-
129.0132	13	C4H5N2OS-
129.0348	13	C9H5O-
131.0378	152	C8H5NO-
132.0219	43	C8H4O2-
132.0458	30	C8H6NO-
132.0569	10	C7H6N3-
133.0297	47	C8H5O2-
133.041	8	C7H5N2O-
134.0613	65	C8H8NO-
135.0566	293	C7H7N2O-
137.0068	44	C7H5OS-
140.0178	5	C6H6NOS-
142.0334	12	C6H8NOS-
144.0457	155	C9H6NO-
146.0378	4	C9H6O2-
146.0615	9	C9H8NO-
147.0455	15	C9H7O2-
147.9991	14	C8H4OS-
148.0407	10	C8H6NO2-
149.007	4	C8H5OS-
149.0247	5	C8H5O3-
151.0226	4	C8H7OS-
154.0209	2	C6H6N2OS-
154.9925	3	C5H3N2O2S-
155.0379	16	C4H11O4S-
159.0566	2	C9H7N2O-
160.0412	3	C3H12O5S-
161.0068	33	C9H5OS-
162.0024	5	C8H4NOS-
167.0288	3	C7H7N2OS-
171.0567	27	C10H7N2O-
172.0406	13	C10H6NO2-
176.0174	3	C9H6NOS-
181.0536	4	C12H7NO-
184.0519	9	C10H6N3O-
188.0355	19	C10H6NO3-
189.0435	30	C10H7NO3-
195.0565	3	C12H7N2O-
197.0723	18	C12H9N2O-
211.0881	42	C13H11N2O-
222.08	26	C14H10N2O-
223.0877	22	C14H11N2O-
224.0828	3	C13H10N3O-
