Mass spectrum: Butylisopropylamine; LC-ESI-QFT; MS2; CE: 75; R=35000; [M+H]+
Name: Butylisopropylamine
Name: N-propan-2-ylbutan-1-amine
Name: N-Isopropyl-1-butanamine
Formula: C7H17N
Exact mass: 115.13610
SMILES: CCCCNC(C)C
InChI: InChI=1S/C7H17N/c1-4-5-6-8-7(2)3/h7-8H,4-6H2,1-3H3
Instrument: Q Exactive Plus Orbitrap Thermo Scientific
Instrument type: LC-ESI-QFT
Ms type: MS2
Ion mode: POSITIVE
Ionization: ESI
Fragmentation mode: HCD
Collision energy: 75 (nominal)
Resolution: 35000
Column name: XBridge C18 3.5um, 2.1x50mm, Waters
Retention time: 1.4 min
Base peak: 116.1432
Precursor m/z: 116.1434
Precursor type: [M+H]+
m/z	relative intensity	assigned
53.0022	54	C3HO+
53.9975	12	C2NO+
57.0699	999	C4H9+
60.0808	10	C3H10N+
72.0808	5	C4H10N+
74.0964	617	C4H12N+
78.0086	2	C3N3+
116.1434	162	C7H18N+
