Mass spectrum: Deferasirox; LC-ESI-QFT; MS2; CE: 60; R=35000; [M-H]-
Name: Deferasirox
Formula: C21H15N3O4
Exact mass: 373.10626
SMILES: OC(=O)c1ccc(cc1)n2nc(nc2c3ccccc3O)c4ccccc4O
InChI: InChI=1S/C21H15N3O4/c25-17-7-3-1-5-15(17)19-22-20(16-6-2-4-8-18(16)26)24(23-19)14-11-9-13(10-12-14)21(27)28/h1-12,25-26H,(H,27,28)
Instrument: Q Exactive Orbitrap Thermo Scientific
Instrument type: LC-ESI-QFT
Ms type: MS2
Ion mode: NEGATIVE
Ionization: ESI
Fragmentation mode: HCD
Collision energy: 60 (nominal)
Resolution: 35000
Column name: XBridge C18 3.5um, 2.1x50mm, Waters
Retention time: 13.0 min
Base peak: 372.0991
Precursor m/z: 372.099
Precursor type: [M-H]-
m/z	relative intensity	assigned
90.0349	10	C6H4N-
93.0346	49	C6H5O-
102.0349	11	C7H4N-
115.0302	4	C7H3N2-
117.046	15	C7H5N2-
118.0299	999	C7H4NO-
121.0296	19	C7H5O2-
131.0376	3	C8H5NO-
132.033	38	C7H4N2O-
133.0408	373	C7H5N2O-
153.0709	4	C12H9-
160.0516	11	C8H6N3O-
166.0661	6	C12H8N-
168.0454	2	C11H6NO-
169.0658	15	C12H9O-
180.0581	13	C13H8O-
181.054	1	C12H7NO-
181.0655	2	C13H9O-
181.0773	1	C12H9N2-
182.0616	1	C12H8NO-
191.0617	6	C13H7N2-
194.0611	36	C13H8NO-
197.0609	2	C13H9O2-
206.0486	1	C13H6N2O-
206.0607	1	C14H8NO-
207.0565	2	C13H7N2O-
208.0646	1	C13H8N2O-
209.0719	60	C13H9N2O-
210.0559	2	C13H8NO2-
217.0647	4	C14H7N3-
218.0721	10	C14H8N3-
222.0555	2	C14H8NO2-
223.0639	15	C14H9NO2-
223.0745	1	C13H9N3O-
224.0714	1	C14H10NO2-
233.0595	2	C14H7N3O-
234.0671	10	C14H8N3O-
251.0702	12	C14H9N3O2-
252.0777	740	C14H10N3O2-
308.0831	7	C20H10N3O-
309.0914	1	C20H11N3O-
310.0987	14	C20H12N3O-
326.0941	9	C20H12N3O2-
328.1091	66	C20H14N3O2-
