Mass spectrum: Penconazole; LC-ESI-QFT; MS2; CE: 75; R=35000; [M+H]+
Name: Penconazole
Name: 1-[2-(2,4-dichlorophenyl)pentyl]-1,2,4-triazole
Formula: C13H15Cl2N3
Exact mass: 283.06430
SMILES: Clc1ccc(c(Cl)c1)C(CCC)Cn2ncnc2
InChI: InChI=1S/C13H15Cl2N3/c1-2-3-10(7-18-9-16-8-17-18)12-5-4-11(14)6-13(12)15/h4-6,8-10H,2-3,7H2,1H3
Instrument: Q Exactive Plus Orbitrap Thermo Scientific
Instrument type: LC-ESI-QFT
Ms type: MS2
Ion mode: POSITIVE
Ionization: ESI
Fragmentation mode: HCD
Collision energy: 75 (nominal)
Resolution: 35000
Column name: XBridge C18 3.5um, 2.1x50mm, Waters
Retention time: 12.7 min
Base peak: 284.0713
Precursor m/z: 284.0716
Precursor type: [M+H]+
m/z	relative intensity	assigned
69.0698	1	C5H9+
70.0399	949	C2H4N3+
72.9837	2	C3H2Cl+
89.0384	5	C7H5+
91.0542	1	C7H7+
98.9995	8	C5H4Cl+
101.0386	1	C8H5+
102.0464	32	C8H6+
119.0491	1	C5H10ClN+
122.9995	67	C7H4Cl+
124.0074	17	C7H5Cl+
129.0446	8	C8H5N2+
132.9605	6	C5H3Cl2+
137.0152	56	C8H6Cl+
138.0231	6	C8H7Cl+
158.9762	999	C7H5Cl2+
172.9919	26	C8H7Cl2+
