Mass spectrum: Cyanofenphos; LC-ESI-QFT; MS2; CE: 45%; R=17500; [M+H]+
Name: Cyanofenphos
Name: 4-[ethoxy(phenyl)phosphinothioyl]oxybenzonitrile
Formula: C15H14NO2PS
Exact mass: 303.0483
SMILES: CCOP(=S)(C1=CC=CC=C1)OC2=CC=C(C=C2)C#N
InChI: InChI=1S/C15H14NO2PS/c1-2-17-19(20,15-6-4-3-5-7-15)18-14-10-8-13(12-16)9-11-14/h3-11H,2H2,1H3
Instrument: Exploris 240 Orbitrap Thermo Scientific
Instrument type: LC-ESI-QFT
Ms type: MS2
Ion mode: POSITIVE
Ionization: ESI
Fragmentation mode: HCD
Collision energy: 45 % (nominal)
Resolution: 17500
Column name: XBridge C18 3.5um, 2.1x50mm, Waters
Retention time: 10.835 min
Base peak: 363.0217
Precursor m/z: 304.0556
Precursor type: [M+H]+
m/z	relative intensity	assigned
62.9452	29	PS+
79.0542	21	C6H7+
92.0494	22	C6H6N+
120.0444	275	C7H6NO+
134.0059	10	C7H4NS+
136.0216	70	C7H6NS+
138.9767	26	C6H4PS+
141.0099	42	C6H6O2P+
156.9871	999	C6H6OPS+
179.9671	35	C7H3NOPS+
189.0135	51	C7H10O2PS+
197.9777	22	C7H5NO2PS+
242.0367	66	C13H9NO2P+
258.0138	153	C13H9NOPS+
276.0243	61	C13H11NO2PS+
290.0399	11	C14H13NO2PS+
