Mass spectrum: Flufenamic acid; LC-ESI-QFT; MS2; CE: 30; R=35000; [M-H]-
Name: Flufenamic acid
Name: Arlef
Name: 2-[3-(trifluoromethyl)anilino]benzoic acid
Formula: C14H10F3NO2
Exact mass: 281.06636
SMILES: C1=CC=C(C(=C1)C(=O)O)NC2=CC=CC(=C2)C(F)(F)F
InChI: InChI=1S/C14H10F3NO2/c15-14(16,17)9-4-3-5-10(8-9)18-12-7-2-1-6-11(12)13(19)20/h1-8,18H,(H,19,20)
Instrument: Q Exactive Orbitrap Thermo Scientific
Instrument type: LC-ESI-QFT
Ms type: MS2
Ion mode: NEGATIVE
Ionization: ESI
Fragmentation mode: HCD
Collision energy: 30 (nominal)
Resolution: 35000
Column name: XBridge C18 3.5um, 2.1x50mm, Waters
Retention time: 14.5 min
Base peak: 280.0593
Precursor m/z: 280.0591
Precursor type: [M-H]-
m/z	relative intensity	assigned
68.9958	1	CF3-
166.0663	1	C12H8N-
176.0505	15	C13H6N-
196.0569	9	C13H7FN-
199.0441	1	C12H6FNO-
207.0328	1	C13H5NO2-
215.0553	7	C13H7F2N-
216.0631	55	C13H8F2N-
227.0392	3	C13H6FNO2-
234.0538	19	C13H7F3N-
236.0693	999	C13H9F3N-
248.0529	5	C13H8F2NO2-
280.0591	105	C14H9F3NO2-
