Mass spectrum: Dexamethasone acetate; LC-ESI-QFT; MS2; CE: 120; R=35000; [M+H]+
Name: Dexamethasone acetate
Name: Dexamethason-21-acetate
Name: [2-(9-fluoro-11,17-dihydroxy-10,13,16-trimethyl-3-oxo-6,7,8,11,12,14,15,16-octahydrocyclopenta[a]phenanthren-17-yl)-2-oxoethyl] acetate
Formula: C24H31FO6
Exact mass: 434.21047
SMILES: CC1CC2C3CCC4=CC(=O)C=CC4(C3(C(CC2(C1(C(=O)COC(=O)C)O)C)O)F)C
InChI: InChI=1S/C24H31FO6/c1-13-9-18-17-6-5-15-10-16(27)7-8-21(15,3)23(17,25)19(28)11-22(18,4)24(13,30)20(29)12-31-14(2)26/h7-8,10,13,17-19,28,30H,5-6,9,11-12H2,1-4H3
Instrument: Q Exactive Plus Orbitrap Thermo Scientific
Instrument type: LC-ESI-QFT
Ms type: MS2
Ion mode: POSITIVE
Ionization: ESI
Fragmentation mode: HCD
Collision energy: 120 (nominal)
Resolution: 35000
Column name: XBridge C18 3.5um, 2.1x50mm, Waters
Retention time: 10.2 min
Base peak: 435.2176
Precursor m/z: 435.2177
Precursor type: [M+H]+
m/z	relative intensity	assigned
50.0151	27	C4H2+
51.023	50	C4H3+
53.0022	15	C3HO+
53.0386	140	C4H5+
55.0179	47	C3H3O+
55.0543	49	C4H7+
57.0335	9	C3H5O+
61.0284	8	C2H5O2+
62.0149	2	C5H2+
63.0229	9	C5H3+
65.0386	215	C5H5+
66.0464	2	C5H6+
67.0542	73	C5H7+
69.0335	19	C4H5O+
69.0699	4	C5H9+
71.0128	10	C3H3O2+
71.049	2	C4H7O+
75.0229	4	C6H3+
77.0386	128	C6H5+
78.0464	55	C6H6+
79.0542	211	C6H7+
80.062	7	C6H8+
81.0335	16	C5H5O+
81.0699	28	C6H9+
83.0292	3	C5H4F+
83.0493	2	C5H7O+
89.0386	17	C7H5+
90.0464	2	C7H6+
91.0543	999	C7H7+
92.0622	12	C7H8+
93.0699	49	C7H9+
94.0415	11	C6H6O+
95.0492	406	C6H7O+
102.0464	29	C8H6+
103.0543	166	C8H7+
104.0621	50	C8H8+
105.0448	193	C6H5N2+
105.07	151	C8H9+
107.0492	79	C7H7O+
107.0856	9	C8H11+
108.0569	3	C7H8O+
109.045	12	C7H6F+
109.065	14	C7H9O+
115.0543	632	C9H7+
116.0621	114	C9H8+
117.0699	99	C9H9+
119.0491	3	C8H7O+
119.0607	7	C7H7N2+
119.0857	39	C9H11+
120.0571	3	C8H8O+
121.0649	78	C8H9O+
125.0395	2	C7H6FO+
126.0465	15	C10H6+
127.0543	44	C10H7+
128.0621	586	C10H8+
129.0699	159	C10H9+
130.0779	21	C10H10+
131.0492	180	C9H7O+
131.0857	10	C10H11+
132.057	96	C9H8O+
133.045	8	C9H6F+
133.0648	4	C9H9O+
134.0729	1	C9H10O+
135.0805	1	C9H11O+
139.0542	28	C11H7+
140.0622	17	C11H8+
141.0699	216	C11H9+
142.0779	44	C11H10+
143.0857	16	C11H11+
144.0571	55	C10H8O+
145.0649	95	C10H9O+
146.0526	9	C10H7F+
146.0727	14	C10H10O+
147.0804	8	C10H11O+
151.0545	7	C12H7+
152.0622	239	C12H8+
153.0699	152	C12H9+
154.0778	26	C12H10+
155.0494	27	C11H7O+
155.0604	96	C10H7N2+
155.0855	32	C12H11+
157.0649	58	C11H9O+
158.0726	18	C11H10O+
159.0609	3	C11H8F+
159.0805	8	C11H11O+
163.0541	3	C13H7+
164.0621	11	C13H8+
165.07	422	C13H9+
166.0778	59	C13H10+
167.0856	42	C13H11+
168.0571	37	C12H8O+
169.0648	63	C12H9O+
170.0728	11	C12H10O+
171.0807	14	C12H11O+
176.0621	47	C14H8+
177.0699	59	C14H9+
178.0778	455	C14H10+
179.0608	10	C12H7N2+
179.0856	187	C14H11+
180.0933	4	C14H12+
181.0648	140	C13H9O+
182.0728	37	C13H10O+
183.0607	3	C13H8F+
183.0805	8	C13H11O+
185.0963	2	C13H13O+
188.0622	2	C15H8+
189.07	304	C15H9+
190.0777	102	C15H10+
191.0856	109	C15H11+
192.0571	3	C14H8O+
192.0934	28	C15H12+
193.0644	4	C14H9O+
193.1011	21	C15H13+
194.0727	50	C14H10O+
195.0806	53	C14H11O+
196.0884	8	C14H12O+
197.0961	7	C14H13O+
200.0618	3	C16H8+
201.0699	10	C16H9+
202.0778	248	C16H10+
203.0857	120	C16H11+
204.0936	19	C16H12+
205.065	54	C15H9O+
205.1014	26	C16H13+
206.0726	19	C15H10O+
207.0807	52	C15H11O+
208.0885	18	C15H12O+
209.0961	11	C15H13O+
213.0699	18	C17H9+
214.0778	9	C17H10+
215.0857	143	C17H11+
216.0936	22	C17H12+
217.1015	21	C17H13+
218.0729	48	C16H10O+
218.1086	4	C17H14+
219.0806	50	C16H11O+
220.0886	7	C16H12O+
221.0964	30	C16H13O+
223.1117	3	C16H15O+
226.0778	46	C18H10+
227.0857	44	C18H11+
228.0934	71	C18H12+
229.1015	35	C18H13+
231.0806	75	C17H11O+
232.0882	21	C17H12O+
233.0965	19	C17H13O+
235.1117	2	C17H15O+
239.0853	20	C19H11+
240.0935	1	C19H12+
241.1015	15	C19H13+
242.0731	3	C18H10O+
242.1088	8	C19H14+
243.0803	4	C18H11O+
243.1171	2	C19H15+
244.0884	8	C18H12O+
245.096	22	C18H13O+
246.1042	3	C18H14O+
247.1119	8	C18H15O+
250.0777	2	C20H10+
252.093	13	C20H12+
255.0804	12	C19H11O+
256.0882	2	C19H12O+
258.1049	2	C19H14O+
259.1121	2	C19H15O+
269.0962	2	C20H13O+
