Mass spectrum: Dicrotophos; LC-ESI-QFT; MS2; CE: 15%; R=17500; [M+H]+
Name: Dicrotophos
Name: 3-Hydroxy-N,N-dimethylcrotonamide dimethyl phosphate
Name: [4-(dimethylamino)-4-oxobut-2-en-2-yl] dimethyl phosphate
Formula: C8H16NO5P
Exact mass: 237.0766
SMILES: CC(=CC(=O)N(C)C)OP(=O)(OC)OC
InChI: InChI=1S/C8H16NO5P/c1-7(6-8(10)9(2)3)14-15(11,12-4)13-5/h6H,1-5H3
Instrument: Exploris 240 Orbitrap Thermo Scientific
Instrument type: LC-ESI-QFT
Ms type: MS2
Ion mode: POSITIVE
Ionization: ESI
Fragmentation mode: HCD
Collision energy: 15 % (nominal)
Resolution: 17500
Column name: XBridge C18 3.5um, 2.1x50mm, Waters
Retention time: 3.436 min
Base peak: 238.0837
Precursor m/z: 238.0839
Precursor type: [M+H]+
m/z	relative intensity	assigned
72.0443	39	C3H6NO+
112.0757	999	C6H10NO+
127.0155	91	C2H8O4P+
193.0261	886	C6H10O5P+
238.084	854	C8H17NO5P+
