Mass spectrum: Phorate Sulfone; LC-ESI-QFT; MS2; CE: 30%; R=17500; [M+H]+
Name: Phorate Sulfone
Name: diethoxy-(ethylsulfonylmethylsulfanyl)-sulfanylidene-lambda5-phosphane
Formula: C7H17O4PS3
Exact mass: 292.0027
SMILES: CCOP(=S)(OCC)SCS(=O)(=O)CC
InChI: InChI=1S/C7H17O4PS3/c1-4-10-12(13,11-5-2)14-7-15(8,9)6-3/h4-7H2,1-3H3
Instrument: Exploris 240 Orbitrap Thermo Scientific
Instrument type: LC-ESI-QFT
Ms type: MS2
Ion mode: POSITIVE
Ionization: ESI
Fragmentation mode: HCD
Collision energy: 30 % (nominal)
Resolution: 17500
Column name: XBridge C18 3.5um, 2.1x50mm, Waters
Retention time: 6.950 min
Base peak: 194.1175
Precursor m/z: 293.0099
Precursor type: [M+H]+
m/z	relative intensity	assigned
92.9827	5	C2H5S2+
96.9507	335	H2O2PS+
98.9842	11	H4O4P+
110.9661	9	CH4O2PS+
114.9613	595	H4O3PS+
124.982	435	C2H6O2PS+
128.9769	25	CH6O3PS+
142.9386	188	CH4O2PS2+
142.9926	732	C2H8O3PS+
153.0133	279	C4H10O2PS+
170.9699	202	C3H8O2PS2+
171.0238	999	C4H12O3PS+
199.001	50	C5H12O2PS2+
