Mass spectrum: Nystatin; LC-ESI-QFT; MS2; CE: 60; R=35000; [M+H]+
Name: Nystatin
Name: (1S,3R,4R,7R,9R,11R,15S,16R,17R,18S,19E,21E,25E,27E,29E,31E,33R,35S,36R,37S)-33-[(3-Amino-3,6-dideoxy-?-D-mannopyranosyl)oxy]-1,3,4,7,9,11,17,37-octahydroxy-15,16,18-trimethyl-13-oxo-14,39-dioxabic yclo[33.3.1]nonatriaconta-19,21,25,27,29,31-hexaene-36-carboxylic acid
Formula: C47H75NO17
Exact mass: 925.50350
SMILES: CC1C=CC=CCCC=CC=CC=CC=CC(CC2C(C(CC(O2)(CC(C(CCC(CC(CC(CC(=O)OC(C(C1O)C)C)O)O)O)O)O)O)O)C(=O)O)OC3C(C(C(C(O3)C)O)N)O
InChI: InChI=1S/C47H75NO17/c1-27-17-15-13-11-9-7-5-6-8-10-12-14-16-18-34(64-46-44(58)41(48)43(57)30(4)63-46)24-38-40(45(59)60)37(54)26-47(61,65-38)25-36(53)35(52)20-19-31(49)21-32(50)22-33(51)23-39(55)62-29(3)28(2)42(27)56/h5-6,8,10-18,27-38,40-44,46,49-54,56-58,61H,7,9,19-26,48H2,1-4H3,(H,59,60)/b6-5+,10-8+,13-11+,14-12+,17-15+,18-16+/t27-,28-,29-,30+,31+,32+,33+,34-,35+,36+,37-,38-,40+,41-,42+,43+,44-,46-,47+/m0/s1
Instrument: Q Exactive Orbitrap Thermo Scientific
Instrument type: LC-ESI-QFT
Ms type: MS2
Ion mode: POSITIVE
Ionization: ESI
Fragmentation mode: HCD
Collision energy: 60 (nominal)
Resolution: 35000
Column name: XBridge C18 3.5um, 2.1x50mm, Waters
Retention time: 11.6 min
Base peak: 926.5109
Precursor m/z: 926.5108
Precursor type: [M+H]+
m/z	relative intensity	assigned
128.0621	588	C10H8+
129.0699	999	C10H9+
130.0732	42	C5H10N2O2+
130.0778	90	C10H10+
131.0492	220	C9H7O+
131.0856	666	C10H11+
132.057	17	C9H8O+
132.0889	23	C5H12N2O2+
133.0283	27	C8H5O2+
133.0648	423	C9H9O+
133.1012	248	C10H13+
134.068	8	C4H10N2O3+
134.0726	5	C9H10O+
134.1045	8	C5H14N2O2+
135.0441	144	C8H7O2+
135.0805	144	C9H11O+
135.1169	78	C10H15+
137.0598	159	C8H9O2+
137.0962	35	C9H13O+
139.039	73	C7H7O3+
139.0754	49	C8H11O2+
141.0548	41	C7H9O3+
141.0699	503	C11H9+
142.0733	19	C6H10N2O2+
142.0779	178	C11H10+
143.0493	32	C10H7O+
143.0857	570	C11H11+
144.0571	39	C10H8O+
144.0889	14	C6H12N2O2+
144.0935	45	C11H12+
145.0649	327	C10H9O+
145.1013	365	C11H13+
146.0679	11	C5H10N2O3+
146.0731	8	C10H10O+
146.1044	9	C6H14N2O2+
146.1093	5	C11H14+
147.0442	200	C9H7O2+
147.0805	348	C10H11O+
147.117	59	C11H15+
148.0473	8	C4H8N2O4+
148.0837	20	C5H12N2O3+
149.0234	22	C8H5O3+
149.0598	168	C9H9O2+
149.0965	51	C10H13O+
151.0391	200	C8H7O3+
151.0755	133	C9H11O2+
151.1117	20	C10H15O+
152.0621	124	C12H8+
153.0548	32	C8H9O3+
153.07	312	C12H9+
154.0779	188	C12H10+
155.0605	67	C10H7N2+
155.0856	611	C12H11+
156.0571	5	C11H8O+
156.0886	21	C7H12N2O2+
156.0941	60	C12H12+
157.0649	229	C11H9O+
157.1013	286	C12H13+
158.0725	24	C11H10O+
158.1096	11	C12H14+
159.0442	62	C10H7O2+
159.0805	165	C11H11O+
159.1169	138	C12H15+
161.0598	117	C10H9O2+
161.0962	80	C11H13O+
161.1326	63	C12H17+
162.0628	6	C5H10N2O4+
163.0391	51	C9H7O3+
163.0753	102	C10H11O2+
163.1116	22	C11H15O+
165.0549	80	C9H9O3+
165.0699	375	C13H9+
165.0911	65	C10H13O2+
166.078	212	C13H10+
167.0705	78	C9H11O3+
167.0857	456	C13H11+
168.0568	18	C12H8O+
168.094	96	C13H12+
169.0649	98	C12H9O+
169.1012	368	C13H13+
170.0726	20	C12H10O+
170.109	24	C13H14+
171.0442	17	C11H7O2+
171.0805	247	C12H11O+
171.1169	151	C13H15+
173.0598	108	C11H9O2+
173.0962	145	C12H13O+
173.1326	43	C13H17+
175.0391	74	C10H7O3+
175.0754	189	C11H11O2+
176.0614	6	C14H8+
176.0785	6	C6H12N2O4+
177.0547	53	C10H9O3+
177.0699	18	C14H9+
177.091	22	C11H13O2+
177.1274	4	C12H17O+
178.0777	223	C14H10+
179.0701	31	C10H11O3+
179.0857	402	C14H11+
180.0941	85	C14H12+
181.0649	116	C13H9O+
181.1013	395	C14H13+
182.0729	53	C13H10O+
183.0807	155	C13H11O+
183.117	196	C14H15+
184.0889	12	C13H12O+
184.1244	20	C14H16+
185.0599	80	C12H9O2+
185.0962	97	C13H13O+
185.1326	72	C14H17+
187.0756	74	C12H11O2+
187.1119	43	C13H15O+
187.1483	7	C14H19+
189.055	34	C11H9O3+
189.0698	41	C15H9+
189.0912	108	C12H13O2+
190.0777	67	C15H10+
190.0945	5	C7H14N2O4+
191.0709	60	C11H11O3+
191.0857	183	C15H11+
191.1065	48	C12H15O2+
192.0938	118	C15H12+
193.1013	277	C15H13+
194.073	34	C14H10O+
194.0902	3	C6H14N2O5+
194.1098	50	C15H14+
195.0806	157	C14H11O+
195.117	191	C15H15+
196.088	26	C14H12O+
196.125	17	C15H16+
197.0597	49	C13H9O2+
197.0962	168	C14H13O+
197.1325	103	C15H17+
199.0755	117	C13H11O2+
199.1117	40	C14H15O+
199.1479	30	C15H19+
201.0547	37	C12H9O3+
201.0911	74	C13H13O2+
201.1273	5	C14H17O+
202.0779	99	C16H10+
203.0711	36	C12H11O3+
203.0856	168	C16H11+
203.1064	10	C13H15O2+
204.0937	123	C16H12+
205.1015	255	C16H13+
206.0724	23	C15H10O+
206.1097	72	C16H14+
207.0807	85	C15H11O+
207.1014	26	C12H15O3+
207.117	176	C16H15+
208.0877	24	C15H12O+
208.124	26	C16H16+
209.0594	23	C14H9O2+
209.0805	17	C11H13O4+
209.0963	120	C15H13O+
209.1326	91	C16H17+
211.0754	58	C14H11O2+
211.0966	4	C11H15O4+
211.1118	69	C15H15O+
211.1484	43	C16H19+
212.0827	3	C14H12O2+
213.0549	5	C13H9O3+
213.091	48	C14H13O2+
213.1274	11	C15H17O+
213.164	4	C16H21+
215.0701	29	C13H11O3+
215.0856	102	C17H11+
215.1068	54	C14H15O2+
216.0937	78	C17H12+
217.0861	38	C13H13O3+
217.1014	186	C17H13+
218.0725	22	C16H10O+
218.1095	50	C17H14+
219.0653	11	C12H11O4+
219.0807	60	C16H11O+
219.1016	25	C13H15O3+
219.117	190	C17H15+
220.0877	32	C16H12O+
220.1241	32	C17H16+
221.0963	125	C16H13O+
221.1327	130	C17H17+
223.0757	55	C15H11O2+
223.1119	78	C16H15O+
223.1484	67	C17H19+
224.1525	4	C12H20N2O2+
225.0911	83	C15H13O2+
225.1272	21	C16H17O+
225.1635	19	C17H21+
226.0775	8	C18H10+
227.0702	11	C14H11O3+
227.0852	23	C18H11+
227.1065	31	C15H15O2+
228.0934	46	C18H12+
229.0859	18	C14H13O3+
229.101	114	C18H13+
230.1096	53	C18H14+
231.0807	37	C17H11O+
231.1171	129	C18H15+
232.0882	20	C17H12O+
232.1254	40	C18H16+
233.0962	70	C17H13O+
233.1172	21	C14H17O3+
233.1323	107	C18H17+
234.0678	7	C16H10O2+
234.1034	20	C17H14O+
235.0752	29	C16H11O2+
235.112	92	C17H15O+
235.1484	49	C18H19+
236.1553	5	C18H20+
237.0912	56	C16H13O2+
237.1271	31	C17H17O+
237.1635	11	C18H21+
238.096	4	C11H14N2O4+
239.07	5	C15H11O3+
239.0853	29	C19H11+
239.1069	49	C16H15O2+
239.1428	6	C17H19O+
239.1789	6	C18H23+
240.0932	25	C19H12+
241.0857	30	C15H13O3+
241.1009	74	C19H13+
241.1219	10	C16H17O2+
242.1095	57	C19H14+
243.0806	10	C18H11O+
243.1014	44	C15H15O3+
243.1168	105	C19H15+
244.088	18	C18H12O+
244.1061	4	C10H16N2O5+
244.1239	32	C19H16+
245.0964	57	C18H13O+
245.1199	4	C18H15N+
245.1326	84	C19H17+
246.1039	26	C18H14O+
246.1408	32	C19H18+
247.0757	21	C17H11O2+
247.1118	66	C18H15O+
247.1482	53	C19H19+
248.1186	10	C18H16O+
248.1564	6	C19H20+
249.0913	38	C17H13O2+
249.1276	53	C18H17O+
249.1634	20	C19H21+
250.1342	6	C18H18O+
251.1063	30	C17H15O2+
251.1423	18	C18H19O+
251.1793	10	C19H23+
252.0931	22	C20H12+
253.101	34	C20H13+
253.122	24	C17H17O2+
254.1093	33	C20H14+
255.1027	13	C16H15O3+
255.1166	64	C20H15+
255.1374	5	C17H19O2+
256.1246	41	C20H16+
257.0958	26	C19H13O+
257.1327	81	C20H17+
258.1033	7	C19H14O+
258.1395	28	C20H18+
259.112	55	C19H15O+
259.148	46	C20H19+
260.1189	11	C19H16O+
260.1552	6	C20H20+
261.0913	13	C18H13O2+
261.1123	21	C15H17O4+
261.1273	45	C19H17O+
261.1638	19	C20H21+
263.1064	28	C18H15O2+
263.1428	26	C19H19O+
263.1797	8	C20H23+
264.1132	4	C18H16O2+
265.0865	5	C17H13O3+
265.1006	9	C21H13+
265.1222	21	C18H17O2+
266.1093	10	C21H14+
267.1014	19	C17H15O3+
267.1168	46	C21H15+
267.1387	4	C18H19O2+
268.1243	24	C21H16+
269.0953	10	C20H13O+
269.1184	8	C17H17O3+
269.1325	46	C21H17+
270.1034	10	C20H14O+
270.1406	20	C21H18+
271.0966	9	C16H15O4+
271.1114	30	C20H15O+
271.1486	44	C21H19+
272.1191	11	C20H16O+
273.0911	7	C19H13O2+
273.1272	42	C20H17O+
273.1634	28	C21H21+
274.1352	8	C20H18O+
275.1065	17	C19H15O2+
275.1427	9	C20H19O+
275.1797	6	C21H23+
277.1223	30	C19H17O2+
278.1081	5	C7H20NO10+
279.1021	7	C18H15O3+
279.1174	25	C22H15+
279.1376	11	C19H19O2+
280.1243	9	C22H16+
281.1183	8	C18H17O3+
281.1323	43	C22H17+
282.1399	10	C22H18+
283.1117	7	C21H15O+
283.1483	36	C22H19+
284.1187	4	C21H16O+
285.1273	23	C21H17O+
285.1629	24	C22H21+
287.1066	9	C20H15O2+
287.1427	27	C21H19O+
289.1222	18	C20H17O2+
289.1586	21	C21H21O+
291.1375	10	C20H19O2+
293.1327	22	C23H17+
293.1526	4	C20H21O2+
294.1401	18	C23H18+
295.1118	9	C22H15O+
295.1483	19	C23H19+
297.1634	5	C23H21+
298.1346	4	C22H18O+
299.1426	18	C22H19O+
299.1791	5	C23H23+
301.1225	10	C21H17O2+
301.1581	11	C22H21O+
303.1374	10	C21H19O2+
305.1335	9	C24H17+
305.1524	6	C21H21O2+
307.1322	6	C20H19O3+
307.148	6	C24H19+
309.1268	6	C23H17O+
309.1641	6	C24H21+
311.143	11	C23H19O+
311.1784	8	C24H23+
313.1588	8	C23H21O+
315.1385	5	C22H19O2+
315.175	6	C23H23O+
317.1534	5	C22H21O2+
319.1326	5	C21H19O3+
321.1479	7	C21H21O3+
321.1648	6	C25H21+
325.1594	6	C24H21O+
327.1383	8	C23H19O2+
329.1538	10	C23H21O2+
339.1737	4	C25H23O+
341.1547	5	C24H21O2+
349.1267	6	C18H21O7+
