Mass spectrum: Deferasirox; LC-ESI-QFT; MS2; CE: 30; R=35000; [M+H]+
Name: Deferasirox
Formula: C21H15N3O4
Exact mass: 373.10626
SMILES: OC(=O)c1ccc(cc1)n2nc(nc2c3ccccc3O)c4ccccc4O
InChI: InChI=1S/C21H15N3O4/c25-17-7-3-1-5-15(17)19-22-20(16-6-2-4-8-18(16)26)24(23-19)14-11-9-13(10-12-14)21(27)28/h1-12,25-26H,(H,27,28)
Instrument: Q Exactive Orbitrap Thermo Scientific
Instrument type: LC-ESI-QFT
Ms type: MS2
Ion mode: POSITIVE
Ionization: ESI
Fragmentation mode: HCD
Collision energy: 30 (nominal)
Resolution: 35000
Column name: XBridge C18 3.5um, 2.1x50mm, Waters
Retention time: 13.1 min
Base peak: 374.1137
Precursor m/z: 374.1135
Precursor type: [M+H]+
m/z	relative intensity	assigned
136.0393	1	C7H6NO2+
211.0866	1	C13H11N2O+
255.0766	1	C14H11N2O3+
346.1187	1	C20H16N3O3+
373.1043	1	C21H15N3O4+
374.1136	999	C21H16N3O4+
