Mass spectrum: Phenylphosphonic Acid; LC-ESI-QFT; MS2; CE: 150%; R=15000; [M+H]+
Name: Phenylphosphonic Acid
Name: Benzenephosphonic acid
Formula: C6H7O3P
Exact mass: 158.0133
SMILES: C1=CC=C(C=C1)P(=O)(O)O
InChI: InChI=1S/C6H7O3P/c7-10(8,9)6-4-2-1-3-5-6/h1-5H,(H2,7,8,9)
Instrument: Orbitrap Exploris 240 Thermo Scientific
Instrument type: LC-ESI-QFT
Ms type: MS2
Ion mode: POSITIVE
Ionization: ESI
Fragmentation mode: HCD
Collision energy: 150 % (nominal)
Resolution: 15000
Column name: Atlantis C18 3um, 3.0x150mm, Waters
Retention time: 9.024 min
Base peak: 159.0205
Precursor m/z: 159.0206
Precursor type: [M+H]+
Precursor intensity: 40454812
m/z	relative intensity	assigned
46.9681	9	OP+
50.0152	23	C4H2+
51.0229	820	C4H3+
53.0386	126	C4H5+
62.963	157	O2P+
77.0386	999	C6H5+
78.0463	15	C6H6+
79.0542	90	C6H7+
80.9736	114	H2O3P+
81.0333	7	C5H5O+
94.0413	17	C6H6O+
95.0491	356	C6H7O+
98.9842	317	
105.0447	417	
