Mass spectrum: Picolinafen; LC-ESI-QFT; MS2; CE: 60; R=35000; [M+H]+
Name: Picolinafen
Name: N-(4-fluorophenyl)-6-[3-(trifluoromethyl)phenoxy]pyridine-2-carboxamide
Formula: C19H12F4N2O2
Exact mass: 376.08349
SMILES: C1=CC(=CC(=C1)OC2=CC=CC(=N2)C(=O)NC3=CC=C(C=C3)F)C(F)(F)F
InChI: InChI=1S/C19H12F4N2O2/c20-13-7-9-14(10-8-13)24-18(26)16-5-2-6-17(25-16)27-15-4-1-3-12(11-15)19(21,22)23/h1-11H,(H,24,26)
Instrument: Q Exactive Plus Orbitrap Thermo Scientific
Instrument type: LC-ESI-QFT
Ms type: MS2
Ion mode: POSITIVE
Ionization: ESI
Fragmentation mode: HCD
Collision energy: 60 (nominal)
Resolution: 35000
Column name: XBridge C18 3.5um, 2.1x50mm, Waters
Retention time: 15.4 min
Base peak: 279.1583
Precursor m/z: 377.0908
Precursor type: [M+H]+
m/z	relative intensity	assigned
53.0022	12	C3HO+
53.9974	2	C2NO+
57.0698	1	C4H9+
67.9892	1	C3O2+
71.029	1	C4H4F+
73.0083	8	C3H2FO+
75.0228	3	C6H3+
94.0287	2	C5H4NO+
95.0289	2	C6H4F+
101.0197	2	C5H3F2+
113.0396	7	C6H6FO+
123.0352	16	C6H4FN2+
141.0572	6	C10H7N+
143.0303	2	C7H5F2O+
145.0259	108	C7H4F3+
149.0234	3	C8H5O3+
163.0364	10	C7H6F3O+
166.0465	1	C9H6F2N+
169.0518	1	C11H7NO+
171.048	1	C11H6FN+
173.0321	81	C7H4F3N2+
183.0416	42	C10H6F3+
188.0505	13	C11H7FNO+
190.0462	78	C11H6F2N+
191.041	1	C10H5F2N2+
196.0373	2	C10H5F3N+
197.0509	2	C12H6FN2+
210.0525	104	C11H7F3N+
212.0309	1	C10H5F3NO+
215.0615	2	C12H8FN2O+
218.0412	20	C12H6F2NO+
219.0418	1	C13H6F3+
223.05	1	C13H7N2O2+
236.0519	7	C12H8F2NO2+
238.0473	999	C15H6F2N+
243.0571	1	C13H8FN2O2+
256.0579	185	C12H9F3NO2+
261.082	2	C17H10FN2+
262.0663	1	C17H9FNO+
265.0576	2	C16H7F2N2+
269.0712	1	C18H9N2O+
270.0731	1	C13H11F3NO2+
289.0771	8	C18H10FN2O+
291.0727	3	C18H9F2N2+
309.0827	1	C18H11F2N2O+
339.0732	1	C19H10F3N2O+
359.08	68	C19H11F4N2O+
