Mass spectrum: Trinexapac; LC-ESI-ITFT; MS2; CE: 75%; R=15000; [M+H]+
Name: Trinexapac
Name: 4-[Cyclopropyl(hydroxy)methylene]-3,5-dioxocyclohexanecarboxylic acid
Formula: C11H12O5
Exact mass: 224.0685
SMILES: C(C1)C1C(O)=C(C(=O)CC2C(=O)O)C(=O)C2
InChI: InChI=1S/C11H12O5/c12-7-3-6(11(15)16)4-8(13)9(7)10(14)5-1-2-5/h5-6,14H,1-4H2,(H,15,16)/b10-9-
Instrument: LTQ Orbitrap XL Thermo Scientific
Instrument type: LC-ESI-ITFT
Ms type: MS2
Ion mode: POSITIVE
Ionization: ESI
Fragmentation mode: HCD
Collision energy: 75 % (nominal)
Resolution: 15000
Column name: XBridge C18 3.5um, 2.1x50mm, Waters
Retention time: 6.9 min
Base peak: 225.0758
Precursor m/z: 225.0757
Precursor type: [M+H]+
m/z	relative intensity	assigned
53.0021	7	C3HO+
53.0385	4	C4H5+
57.0336	4	C3H5O+
65.0386	11	C5H5+
67.0178	12	C4H3O+
67.0543	7	C5H7+
68.9971	281	C3HO2+
69.0335	835	C4H5O+
71.0128	136	C3H3O2+
79.0542	13	C6H7+
81.0335	83	C5H5O+
81.0698	4	C6H9+
83.0491	40	C5H7O+
85.0284	999	C4H5O2+
91.0542	16	C7H7+
93.0335	14	C6H5O+
93.0698	4	C7H9+
95.0128	193	C5H3O2+
97.0284	46	C5H5O2+
99.0077	384	C4H3O3+
103.0542	5	C8H7+
105.07	33	C8H9+
107.0491	120	C7H7O+
109.0284	58	C6H5O2+
109.0648	7	C7H9O+
111.044	751	C6H7O2+
113.0233	376	C5H5O3+
115.0542	6	C9H7+
119.0491	7	C8H7O+
121.0284	9	C7H5O2+
121.0396	19	C6H5N2O+
123.0077	340	C6H3O3+
123.044	17	C7H7O2+
127.039	12	C6H7O3+
133.0647	27	C9H9O+
137.0233	155	C7H5O3+
139.0389	13	C7H7O3+
141.0182	47	C6H5O4+
151.0391	5	C8H7O3+
155.034	41	C7H7O4+
157.0501	5	C7H9O4+
159.0288	10	C6H7O5+
161.0597	15	C10H9O2+
165.0183	66	C8H5O4+
179.0701	9	C10H11O3+
183.0288	26	C8H7O5+
