Mass spectrum: Nicosulfuron-TP UCSN; LC-ESI-QFT; MS2; CE: 75%; R=17500; [M+H]+
Name: Nicosulfuron-TP UCSN
Name: 2-[(Carbamoylcarbamoyl)sulfamoyl]-N,N-dimethylnicotinamide
Formula: C10H13N5O5S
Exact mass: 315.0637
SMILES: CN(C)C(=O)C1=CC=CN=C1S(=O)(=O)NC(=O)NC(N)=O
InChI: InChI=1S/C10H13N5O5S/c1-15(2)8(16)6-4-3-5-12-7(6)21(19,20)14-10(18)13-9(11)17/h3-5H,1-2H3,(H4,11,13,14,17,18)
Instrument: Q Exactive Plus Orbitrap Thermo Scientific
Instrument type: LC-ESI-QFT
Ms type: MS2
Ion mode: POSITIVE
Ionization: ESI
Fragmentation mode: HCD
Collision energy: 75 % (nominal)
Resolution: 17500
Column name: XBridge C18 3.5um, 2.1x50mm, Waters
Retention time: 1.505 min
Base peak: 316.0711
Precursor m/z: 316.071
Precursor type: [M+H]+
m/z	relative intensity	assigned
50.015	12	C4H2+
51.0229	34	C4H3+
61.0396	3	CH5N2O+
65.0387	8	C5H5+
69.9923	2	C2NO2+
78.0338	999	C5H4N+
80.0492	3	C5H6N+
81.0446	6	C4H5N2+
82.0287	11	C4H4NO+
87.0188	2	C2H3N2O2+
92.0496	7	C6H6N+
93.0446	2	C5H5N2+
94.0652	1	C6H8N+
96.0444	97	C5H6NO+
106.0287	820	C6H4NO+
110.06	24	C6H8NO+
137.0346	16	C6H5N2O2+
