Mass spectrum: Metribuzin-desamino; LC-ESI-QFT; MS2; CE: 60; R=35000; [M-H]-
Name: Metribuzin-desamino
Name: Deaminometribuzin
Name: 6-tert-butyl-3-(methylthio)-2H-1,2,4-triazin-5-one
Formula: C8H13N3OS
Exact mass: 199.27332
SMILES: CC(C)(C)C1=NNC(=NC1=O)SC
InChI: InChI=1S/C8H13N3OS/c1-8(2,3)5-6(12)9-7(13-4)11-10-5/h1-4H3,(H,9,11,12)
Instrument: Q Exactive Plus Orbitrap Thermo Scientific
Instrument type: LC-ESI-QFT
Ms type: MS2
Ion mode: NEGATIVE
Ionization: ESI
Fragmentation mode: HCD
Collision energy: 60 (nominal)
Resolution: 35000
Column name: XBridge C18 3.5um, 2.1x50mm, Waters
Retention time: 7.3 min
Base peak: 198.0703
Precursor m/z: 198.0707
Precursor type: [M-H]-
m/z	relative intensity	assigned
56.0016	9	CN2O-
57.9757	206	CNS-
59.9914	6	CH2NS-
68.0016	136	C2N2O-
69.0095	2	C2HN2O-
70.9836	8	C2HNS-
71.9788	16	CN2S-
71.9914	7	C2H2NS-
87.0022	14	C2H3N2S-
94.0046	104	C3N3O-
97.0658	67	C6H9O-
113.0053	1	C3H3N3S-
125.9768	2	C3N3OS-
127.0875	3	C6H11N2O-
136.0515	57	C6H6N3O-
152.083	10	C7H10N3O-
156.0487	2	C7H10NOS-
165.0908	2	C8H11N3O-
168.0237	19	C6H6N3OS-
182.0393	3	C7H8N3OS-
183.0471	61	C7H9N3OS-
198.0707	999	C8H12N3OS-
