Mass spectrum: Fluconazole; LC-ESI-ITFT; MS2; CE: 75%; R=15000; [M+H]+
Name: Fluconazole
Name: 2-(2,4-difluorophenyl)-1,3-bis(1,2,4-triazol-1-yl)-2-propanol
Formula: C13H12F2N6O
Exact mass: 306.1041
SMILES: OC(CN1C=NC=N1)(CN2C=NC=N2)C3=C(F)C=C(F)C=C3
InChI: InChI=1S/C13H12F2N6O/c14-10-1-2-11(12(15)3-10)13(22,4-20-8-16-6-18-20)5-21-9-17-7-19-21/h1-3,6-9,22H,4-5H2
Instrument: LTQ Orbitrap XL Thermo Scientific
Instrument type: LC-ESI-ITFT
Ms type: MS2
Ion mode: POSITIVE
Ionization: ESI
Fragmentation mode: HCD
Collision energy: 75 % (nominal)
Resolution: 15000
Column name: XBridge C18 3.5um, 2.1x50mm, Waters
Retention time: 5.3 min
Base peak: 307.1126
Precursor m/z: 307.1113
Precursor type: [M+H]+
m/z	relative intensity	assigned
70.04	651	C2H4N3+
75.0229	13	C6H3+
82.04	39	C3H4N3+
83.0479	14	C3H5N3+
91.0544	16	C7H7+
101.0386	24	C8H5+
119.0493	14	C8H7O+
121.0449	751	C8H6F+
127.0354	818	C7H5F2+
129.0448	355	C8H5N2+
139.0354	999	C8H5F2+
141.0147	142	C7H3F2O+
141.0511	476	C8H7F2+
146.04	31	C9H5FN+
147.0353	81	C8H4FN2+
151.0354	738	C9H5F2+
166.0463	76	C9H6F2N+
169.046	394	C9H7F2O+
173.0512	141	C10H6FN2+
177.046	29	C9H6FN2O+
193.0572	19	C10H7F2N2+
200.0619	76	C11H7FN3+
220.0672	65	C11H8F2N3+
