Mass spectrum: Doxylamine; LC-ESI-QFT; MS2; CE: 90; R=35000; [M+H]+
Name: Doxylamine
Name: N,N-dimethyl-2-(1-phenyl-1-pyridin-2-yl-ethoxy)ethanamine
Formula: C17H22N2O
Exact mass: 270.17321
SMILES: CC(C1=CC=CC=C1)(C2=CC=CC=N2)OCCN(C)C
InChI: InChI=1S/C17H22N2O/c1-17(20-14-13-19(2)3,15-9-5-4-6-10-15)16-11-7-8-12-18-16/h4-12H,13-14H2,1-3H3
Instrument: Q Exactive Orbitrap Thermo Scientific
Instrument type: LC-ESI-QFT
Ms type: MS2
Ion mode: POSITIVE
Ionization: ESI
Fragmentation mode: HCD
Collision energy: 90 (nominal)
Resolution: 35000
Column name: XBridge C18 3.5um, 2.1x50mm, Waters
Retention time: 3.7 min
Base peak: 271.1806
Precursor m/z: 271.1805
Precursor type: [M+H]+
m/z	relative intensity	assigned
70.065	2	C4H8N+
72.0807	22	C4H10N+
90.0913	7	C4H12NO+
96.0443	2	C5H6NO+
104.0494	2	C7H6N+
134.0599	1	C8H8NO+
139.0539	2	C11H7+
166.0652	12	C12H8N+
167.073	999	C12H9N+
180.0806	9	C13H10N+
181.0883	6	C13H11N+
182.0963	25	C13H12N+
