Mass spectrum: Myclobutanil; LC-ESI-ITFT; MS2; CE: 90%; R=15000; [M+H]+
Name: Myclobutanil
Name: MYC
Name: 2-(4-chlorophenyl)-2-(1,2,4-triazol-1-ylmethyl)hexanenitrile
Formula: C15H17ClN4
Exact mass: 288.1142
SMILES: Clc1ccc(cc1)C(C#N)(CCCC)Cn2ncnc2
InChI: InChI=1S/C15H17ClN4/c1-2-3-8-15(9-17,10-20-12-18-11-19-20)13-4-6-14(16)7-5-13/h4-7,11-12H,2-3,8,10H2,1H3
Instrument: LTQ Orbitrap XL Thermo Scientific
Instrument type: LC-ESI-ITFT
Ms type: MS2
Ion mode: POSITIVE
Ionization: ESI
Fragmentation mode: HCD
Collision energy: 90 % (nominal)
Resolution: 15000
Column name: XBridge C18 3.5um, 2.1x50mm, Waters
Retention time: 11.2 min
Base peak: 289.1218
Precursor m/z: 289.1215
Precursor type: [M+H]+
m/z	relative intensity	assigned
55.0542	2	C4H7+
57.0699	1	C4H9+
70.04	601	C2H4N3+
79.0541	1	C6H7+
80.0493	2	C5H6N+
81.0697	3	C6H9+
82.04	15	C3H4N3+
83.0478	4	C3H5N3+
89.0386	46	C7H5+
90.0464	10	C7H6+
98.9996	22	C5H4Cl+
102.0464	8	C8H6+
103.0543	3	C8H7+
115.0543	36	C9H7+
116.0621	69	C9H8+
122.9998	2	C7H4Cl+
125.0153	999	C7H6Cl+
128.0495	31	C9H6N+
128.062	3	C10H8+
129.0447	11	C8H5N2+
129.0572	2	C9H7N+
129.0701	3	C10H9+
130.0651	18	C9H8N+
130.0777	2	C10H10+
131.0727	2	C9H9N+
137.0152	19	C8H6Cl+
139.0307	2	C8H8Cl+
142.0775	2	C11H10+
143.0605	5	C9H7N2+
143.0729	8	C10H9N+
143.0855	3	C11H11+
146.0602	3	C6H11ClN2+
149.0154	9	C9H6Cl+
150.0105	27	C8H5ClN+
151.0309	38	C9H8Cl+
152.0621	2	C12H8+
153.0697	7	C12H9+
156.0805	6	C11H10N+
163.019	3	C9H6ClN+
164.0262	25	C9H7ClN+
167.0856	1	C13H11+
170.0963	2	C12H12N+
175.0301	2	C11H8Cl+
178.0418	4	C10H9ClN+
289.1203	2	C15H18ClN4+
