Mass spectrum: Rosuvastatin; LC-ESI-ITFT; MS2; CE: 35%; R=30000; [M+H]+
Name: Rosuvastatin
Name: (E,3R,5S)-7-[4-(4-fluorophenyl)-2-[methyl(methylsulfonyl)amino]-6-propan-2-ylpyrimidin-5-yl]-3,5-dihydroxyhept-6-enoic acid
Formula: C22H28FN3O6S
Exact mass: 481.16828
SMILES: CC(C)C1=NC(=NC(=C1/C=C/[C@H](C[C@H](CC(=O)O)O)O)C2=CC=C(C=C2)F)N(C)S(=O)(=O)C
InChI: InChI=1S/C22H28FN3O6S/c1-13(2)20-18(10-9-16(27)11-17(28)12-19(29)30)21(14-5-7-15(23)8-6-14)25-22(24-20)26(3)33(4,31)32/h5-10,13,16-17,27-28H,11-12H2,1-4H3,(H,29,30)/b10-9+/t16-,17-/m1/s1
Instrument: LTQ Orbitrap XL Thermo Scientific
Instrument type: LC-ESI-ITFT
Ms type: MS2
Ion mode: POSITIVE
Ionization: ESI
Fragmentation mode: CID
Collision energy: 35 % (nominal)
Resolution: 30000
Column name: XBridge C18 3.5um, 2.1x50mm, Waters
Retention time: 9.2 min
Base peak: 482.1762
Precursor m/z: 482.1756
Precursor type: [M+H]+
m/z	relative intensity	assigned
175.0819	7	C8H14FNS+
189.9759	7	C9HFNOS+
217.1005	16	C12H12FN3+
243.1161	6	C11H19N2O2S+
246.1396	11	C11H22N2O2S+
256.1241	44	C12H20N2O2S+
257.132	39	C12H21N2O2S+
258.1399	122	C12H22N2O2S+
268.1244	12	C16H15FN3+
270.1399	170	C16H17FN3+
271.147	13	C13H23N2O2S+
272.1555	81	C13H24N2O2S+
282.1397	44	C14H22N2O2S+
296.1558	8	C18H19FN3+
300.1506	20	C17H19FN3O+
308.1555	36	C19H19FN3+
314.1659	35	C15H26N2O3S+
322.171	11	C11H29FNO6S+
334.1017	19	C16H17FN3O2S+
350.1333	40	C17H21FN3O2S+
367.1685	57	C18H27N2O4S+
368.1768	46	C21H23FN3O2+
376.1486	357	C19H23FN3O2S+
378.1283	33	C18H21FN3O3S+
385.1793	33	C18H29N2O5S+
386.187	15	C21H25FN3O3+
400.1483	51	C21H23FN3O2S+
402.1641	242	C21H25FN3O2S+
404.1432	12	C20H23FN3O3S+
404.1977	134	C21H27FN3O4+
420.1749	122	C21H27FN3O3S+
422.1542	189	C20H25FN3O4S+
428.1429	8	C22H23FN3O3S+
446.154	999	C22H25FN3O4S+
464.1645	683	C22H27FN3O5S+
