Mass spectrum: Tebuconazole; LC-ESI-ITFT; MS2; CE: 60%; R=15000; [M+H]+
Name: Tebuconazole
Name: 1-(4-chlorophenyl)-4,4-dimethyl-3-(1,2,4-triazol-1-ylmethyl)-3-pentanol
Formula: C16H22ClN3O
Exact mass: 307.1446
SMILES: CC(C)(C)C(CCC1=CC=C(C=C1)Cl)(CN2C=NC=N2)O
InChI: InChI=1S/C16H22ClN3O/c1-15(2,3)16(21,10-20-12-18-11-19-20)9-8-13-4-6-14(17)7-5-13/h4-7,11-12,21H,8-10H2,1-3H3
Instrument: LTQ Orbitrap XL Thermo Scientific
Instrument type: LC-ESI-ITFT
Ms type: MS2
Ion mode: POSITIVE
Ionization: ESI
Fragmentation mode: HCD
Collision energy: 60 % (nominal)
Resolution: 15000
Column name: XBridge C18 3.5um, 2.1x50mm, Waters
Retention time: 12.8 min
Base peak: 308.1531
Precursor m/z: 308.1524
Precursor type: [M+H]+
m/z	relative intensity	assigned
55.0542	4	C4H7+
57.0699	8	C4H9+
59.0491	25	C3H7O+
70.04	999	C2H4N3+
83.0856	9	C6H11+
103.0542	2	C8H7+
115.0542	13	C9H7+
116.0621	12	C9H8+
125.0153	194	C7H6Cl+
129.0695	2	C10H9+
130.0778	4	C10H10+
139.0309	19	C8H8Cl+
143.0607	2	C9H7N2+
151.0309	90	C9H8Cl+
165.0465	17	C10H10Cl+
179.062	3	C11H12Cl+
