Mass spectrum: Cilastatin; LC-ESI-ITFT; MS2; CE: 35%; R=30000; [M+H]+
Name: Cilastatin
Formula: C16H26N2O5S
Exact mass: 358.1562
SMILES: [H][C@](N)(CSCCCC\C=C(/NC(=O)[C@@]1([H])CC1(C)C)C(O)=O)C(O)=O
InChI: InChI=1S/C16H26N2O5S/c1-16(2)8-10(16)13(19)18-12(15(22)23)6-4-3-5-7-24-9-11(17)14(20)21/h6,10-11H,3-5,7-9,17H2,1-2H3,(H,18,19)(H,20,21)(H,22,23)/b12-6-/t10-,11+/m1/s1
Instrument: LTQ Orbitrap XL Thermo Scientific
Instrument type: LC-ESI-ITFT
Ms type: MS2
Ion mode: POSITIVE
Ionization: ESI
Fragmentation mode: CID
Collision energy: 35 % (nominal)
Resolution: 30000
Column name: XBridge C18 3.5um, 2.1x50mm, Waters
Retention time: 5.2 min
Base peak: 359.1645
Precursor m/z: 359.1635
Precursor type: [M+H]+
m/z	relative intensity	assigned
115.0575	50	C6H11S+
122.0963	7	C8H12N+
130.0684	19	C6H12NS+
142.0861	16	C7H12NO2+
156.0839	34	C8H14NS+
159.0473	14	C7H11O2S+
166.0861	35	C9H12NO2+
174.058	18	C7H12NO2S+
182.0632	13	C9H12NOS+
184.0966	44	C9H14NO3+
194.1536	5	C12H20NO+
200.0735	31	C9H14NO2S+
202.0895	999	C9H16NO2S+
217.1001	40	C9H17N2O2S+
219.1158	74	C9H19N2O2S+
226.126	14	C12H20NOS+
227.0845	8	C10H15N2O2S+
238.1434	48	C13H20NO3+
245.0954	10	C10H17N2O3S+
246.0791	92	C10H16NO4S+
263.1055	88	C10H19N2O4S+
270.115	15	C13H20NO3S+
272.1312	6	C13H22NO3S+
297.1628	11	C15H25N2O2S+
298.1466	15	C15H24NO3S+
313.1576	49	C15H25N2O3S+
315.1732	417	C15H27N2O3S+
323.1417	21	C16H23N2O3S+
324.126	11	C16H22NO4S+
341.1525	208	C16H25N2O4S+
342.1364	546	C16H24NO5S+
