Mass spectrum: Phenobarbital; LC-ESI-QFT; MS2; CE: 150; R=35000; [M+H]+
Name: Phenobarbital
Name: 5-ethyl-5-phenyl-1,3-diazinane-2,4,6-trione
Formula: C12H12N2O3
Exact mass: 232.08479
SMILES: CCC1(C(=O)NC(=O)NC1=O)C2=CC=CC=C2
InChI: InChI=1S/C12H12N2O3/c1-2-12(8-6-4-3-5-7-8)9(15)13-11(17)14-10(12)16/h3-7H,2H2,1H3,(H2,13,14,15,16,17)
Instrument: Q Exactive Plus Orbitrap Thermo Scientific
Instrument type: LC-ESI-QFT
Ms type: MS2
Ion mode: POSITIVE
Ionization: ESI
Fragmentation mode: HCD
Collision energy: 150 (nominal)
Resolution: 35000
Column name: XBridge C18 3.5um, 2.1x50mm, Waters
Retention time: 6.0 min
Base peak: 251.1845
Precursor m/z: 233.0921
Precursor type: [M+H]+
m/z	relative intensity	assigned
50.0151	50	C4H2+
51.0229	183	C4H3+
52.0307	5	C4H4+
53.0021	35	C3HO+
53.0385	174	C4H5+
53.9973	6	C2NO+
55.0177	36	C3H3O+
55.0541	45	C4H7+
56.0494	14	C3H6N+
62.015	12	C5H2+
63.0228	156	C5H3+
65.0385	368	C5H5+
66.0463	9	C5H6+
67.0542	15	C5H7+
69.9922	12	C2NO2+
75.0228	15	C6H3+
77.0384	116	C6H5+
78.0463	200	C6H6+
79.0541	122	C6H7+
81.0335	10	C5H5O+
88.0306	9	C7H4+
89.0385	545	C7H5+
90.0463	32	C7H6+
91.0541	622	C7H7+
93.0572	8	C6H7N+
95.049	414	C6H7O+
97.0076	60	C8H+
102.0463	35	C8H6+
103.0541	13	C8H7+
104.0494	999	C7H6N+
105.0333	44	C7H5O+
105.0446	244	C6H5N2+
105.0572	29	C7H7N+
106.0649	12	C7H8N+
114.0338	11	C8H4N+
115.0541	257	C9H7+
116.0493	9	C8H6N+
116.0618	9	C9H8+
117.0572	30	C8H7N+
117.0695	6	C9H9+
118.0649	14	C8H8N+
126.0462	10	C10H6+
128.0619	71	C10H8+
129.0701	7	C10H9+
132.0443	14	C8H6NO+
133.052	44	C8H7NO+
145.0648	7	C10H9O+
155.0601	9	C10H7N2+
