Mass spectrum: Difethialone; LC-ESI-QFT; MS2; CE: 60%; R=17500; [M-H]-
Name: Difethialone
Name: 3-[3-[4-(4-bromophenyl)phenyl]-1,2,3,4-tetrahydronaphthalen-1-yl]-2-hydroxythiochromen-4-one
Formula: C31H23BrO2S
Exact mass: 538.0602
SMILES: C1C(CC2=CC=CC=C2C1C3=C(SC4=CC=CC=C4C3=O)O)C5=CC=C(C=C5)C6=CC=C(C=C6)Br
InChI: InChI=1S/C31H23BrO2S/c32-24-15-13-20(14-16-24)19-9-11-21(12-10-19)23-17-22-5-1-2-6-25(22)27(18-23)29-30(33)26-7-3-4-8-28(26)35-31(29)34/h1-16,23,27,34H,17-18H2
Instrument: Exploris 240 Orbitrap Thermo Scientific
Instrument type: LC-ESI-QFT
Ms type: MS2
Ion mode: NEGATIVE
Ionization: ESI
Fragmentation mode: HCD
Collision energy: 60 % (nominal)
Resolution: 17500
Column name: XBridge C18 3.5um, 2.1x50mm, Waters
Retention time: 17.379 min
Base peak: 539.0508
Precursor m/z: 537.0529
Precursor type: [M-H]-
m/z	relative intensity	assigned
78.9189	999	Br-
108.0042	7	C6H4S-
109.0118	68	C6H5S-
115.0552	3	C9H7-
122.0197	6	C7H6S-
133.0119	54	C8H5S-
143.0502	46	C10H7O-
147.999	3	C8H4OS-
149.0067	27	C8H5OS-
151.0223	79	C8H7OS-
159.0273	23	C10H7S-
203.0168	23	C11H7O2S-
