Mass spectrum: Paraoxon-ethyl; LC-ESI-QFT; MS2; CE: 120%; R=17500; [M+H]+
Name: Paraoxon-ethyl
Name: Paraoxon
Name: diethyl (4-nitrophenyl) phosphate
Formula: C10H14NO6P
Exact mass: 275.0559
SMILES: CCOP(=O)(OCC)OC1=CC=C(C=C1)[N+](=O)[O-]
InChI: InChI=1S/C10H14NO6P/c1-3-15-18(14,16-4-2)17-10-7-5-9(6-8-10)11(12)13/h5-8H,3-4H2,1-2H3
Instrument: Exploris 240 Orbitrap Thermo Scientific
Instrument type: LC-ESI-QFT
Ms type: MS2
Ion mode: POSITIVE
Ionization: ESI
Fragmentation mode: HCD
Collision energy: 120 % (nominal)
Resolution: 17500
Column name: XBridge C18 3.5um, 2.1x50mm, Waters
Retention time: 6.797 min
Base peak: 276.0629
Precursor m/z: 276.0632
Precursor type: [M+H]+
m/z	relative intensity	assigned
50.0151	24	C4H2+
53.0385	8	C4H5+
55.0179	10	C3H3O+
63.023	52	C5H3+
64.0307	29	C5H4+
65.0386	70	C5H5+
66.0464	252	C5H6+
75.0229	185	C6H3+
76.0308	51	C6H4+
80.9736	19	H2O3P+
81.0335	75	C5H5O+
82.0415	7	CH9NOP+
92.0256	15	C6H4O+
93.0336	12	C6H5O+
94.0413	999	C6H6O+
98.9842	48	H4O4P+
98.9993	9	C4H4OP+
109.0284	42	C6H5O2+
110.0365	15	C2H9NO2P+
123.0316	15	C6H5NO2+
172.9999	7	C6H6O4P+
