Mass spectrum: Clothianidin; LC-ESI-ITFT; MS2; CE: 45%; R=15000; [M+H]+
Name: Clothianidin
Name: 1-[(2-chloranyl-1,3-thiazol-5-yl)methyl]-2-methyl-3-nitro-guanidine
Name: 1-[(2-chloro-1,3-thiazol-5-yl)methyl]-2-methyl-3-nitroguanidine
Formula: C6H8ClN5O2S
Exact mass: 249.0087
SMILES: Clc1ncc(s1)CN/C(=N/C)N[N+]([O-])=O
InChI: InChI=1S/C6H8ClN5O2S/c1-8-6(11-12(13)14)10-3-4-2-9-5(7)15-4/h2H,3H2,1H3,(H2,8,10,11)
Instrument: LTQ Orbitrap XL Thermo Scientific
Instrument type: LC-ESI-ITFT
Ms type: MS2
Ion mode: POSITIVE
Ionization: ESI
Fragmentation mode: HCD
Collision energy: 45 % (nominal)
Resolution: 15000
Column name: XBridge C18 3.5um, 2.1x50mm, Waters
Retention time: 4.9 min
Base peak: 250.0165
Precursor m/z: 250.016
Precursor type: [M+H]+
m/z	relative intensity	assigned
54.0338	1	C3H4N+
57.0447	4	C2H5N2+
63.9949	1	CH3ClN+
69.0446	1	C3H5N2+
70.9949	2	C3H3S+
86.0059	22	C3H4NS+
109.0636	4	C5H7N3+
110.0713	116	C5H8N3+
111.0791	14	C5H9N3+
112.0091	1	C4H4N2S+
113.0168	309	C4H5N2S+
119.9668	10	C3H3ClNS+
121.9824	3	C3H5ClNS+
127.0198	5	C4H5N3S+
131.9668	999	C4H3ClNS+
132.9746	5	C4H4ClNS+
141.0356	2	C5H7N3S+
142.0433	9	C5H8N3S+
143.0511	9	C5H9N3S+
146.9778	31	C4H4ClN2S+
147.9856	44	C4H5ClN2S+
148.9933	2	C4H6ClN2S+
152.0276	3	C6H6N3S+
153.0228	9	C5H5N4S+
167.0386	15	C6H7N4S+
168.0464	139	C6H8N4S+
169.0542	715	C6H9N4S+
172.9808	20	C5H4ClN3S+
174.9726	50	C5H4ClN2OS+
188.0043	1	C6H7ClN3S+
203.0153	3	C6H8ClN4S+
204.0228	11	C6H9ClN4S+
206.0148	6	C6H9ClN3OS+
