Mass spectrum: Metamitron; LC-ESI-ITFT; MS2; CE: 90%; R=7500; [M+H]+
Name: Metamitron
Name: 4-Amino-4,5-dihydro-3-methyl-6-phenyl-1,2,4-triazin-5-one
Name: 4-amino-3-methyl-6-phenyl-1,2,4-triazin-5-one
Formula: C10H10N4O
Exact mass: 202.0860
SMILES: c(ccc1C(=NN=C2C)C(=O)N2N)cc1
InChI: InChI=1S/C10H10N4O/c1-7-12-13-9(10(15)14(7)11)8-5-3-2-4-6-8/h2-6H,11H2,1H3
Instrument: LTQ Orbitrap XL Thermo Scientific
Instrument type: LC-ESI-ITFT
Ms type: MS2
Ion mode: POSITIVE
Ionization: ESI
Fragmentation mode: HCD
Collision energy: 90 % (nominal)
Resolution: 7500
Column name: XBridge C18 3.5um, 2.1x50mm, Waters
Retention time: 4.9 min
Base peak: 203.093
Precursor m/z: 203.0927
Precursor type: [M+H]+
m/z	relative intensity	assigned
53.0385	12	C4H5+
56.013	19	C2H2NO+
57.0447	51	C2H5N2+
65.0386	21	C5H5+
77.0386	166	C6H5+
79.0542	99	C6H7+
80.0495	13	C5H6N+
83.024	32	C3H3N2O+
89.0387	44	C7H5+
92.0496	46	C6H6N+
93.0576	9	C6H7N+
94.0415	9	C6H6O+
95.0492	24	C6H7O+
104.0495	999	C7H6N+
105.0446	59	C6H5N2+
105.0575	24	C7H7N+
106.0651	35	C7H8N+
107.0608	16	C6H7N2+
118.0524	68	C7H6N2+
159.0789	34	C9H9N3+
174.079	17	C10H10N2O+
175.0979	126	C9H11N4+
