Mass spectrum: Ifosfamide; LC-ESI-ITFT; MS2; CE: 75%; R=15000; [M+H]+
Name: Ifosfamide
Name: Isophosphamide
Name: N,3-Bis(2-chloroethyl)-1,3,2-oxazaphosphinan-2-amine 2-oxide
Formula: C7H15Cl2N2O2P
Exact mass: 260.0248
SMILES: ClCCN(P(OC1)(=O)NCCCl)CC1
InChI: InChI=1S/C7H15Cl2N2O2P/c8-2-4-10-14(12)11(6-3-9)5-1-7-13-14/h1-7H2,(H,10,12)
Instrument: LTQ Orbitrap XL Thermo Scientific
Instrument type: LC-ESI-ITFT
Ms type: MS2
Ion mode: POSITIVE
Ionization: ESI
Fragmentation mode: HCD
Collision energy: 75 % (nominal)
Resolution: 15000
Column name: XBridge C18 3.5um, 2.1x50mm, Waters
Retention time: 6.3 min
Base peak: 261.0321
Precursor m/z: 261.0321
Precursor type: [M+H]+
m/z	relative intensity	assigned
56.0495	10	C3H6N+
62.9996	49	C2H4Cl+
63.9949	2	CH3ClN+
67.0543	4	C5H7+
72.0445	4	C3H6NO+
78.0105	107	C2H5ClN+
79.9898	3	CH3ClNO+
80.0262	7	C2H7ClN+
82.0652	8	C5H8N+
84.0807	5	C5H10N+
92.0262	999	C3H7ClN+
98.0004	3	CH5ClNO2+
99.9943	2	C3H3NOP+
106.0053	16	C2H5NO2P+
109.0051	2	C3H6ClO2+
115.9663	6	ClH4NO2P+
116.9503	45	CH3Cl2O2+
118.0052	9	C3H5NO2P+
118.0419	14	CH12ClN2P+
120.021	11	C7H4O2+
120.0575	88	C5H11ClN+
123.9714	8	C2H4ClNOP+
124.0158	7	C3H7ClNO2+
125.9506	27	C2H2Cl2NO+
126.9712	5	C2H5ClO2P+
127.9663	20	CH4ClNO2P+
128.026	19	C5H7NOP+
136.0158	21	C4H7ClNO2+
141.9819	31	C2H6ClNO2P+
143.9611	4	C2H4Cl2NO2+
153.9819	419	C3H6ClNO2P+
155.9973	2	C7H5ClO2+
171.9924	3	C4H8Cl2NO2+
182.0129	5	C5H10ClNO2P+
