Mass spectrum: Trimipramine N-Oxide; LC-ESI-QFT; MS2; CE: 150; R=35000; [M+H]+
Name: Trimipramine N-Oxide
Name: Trimipramine N-oxide, (+/-)-
Name: 3-(5,6-dihydrobenzo[b][1]benzazepin-11-yl)-N,N,2-trimethylpropan-1-amine oxide
Formula: C20H26N2O
Exact mass: 310.20451
SMILES: CC(CN1C2=CC=CC=C2CCC3=CC=CC=C31)C[N+](C)(C)[O-]
InChI: InChI=1S/C20H26N2O/c1-16(15-22(2,3)23)14-21-19-10-6-4-8-17(19)12-13-18-9-5-7-11-20(18)21/h4-11,16H,12-15H2,1-3H3
Instrument: Q Exactive Plus Orbitrap Thermo Scientific
Instrument type: LC-ESI-QFT
Ms type: MS2
Ion mode: POSITIVE
Ionization: ESI
Fragmentation mode: HCD
Collision energy: 150 (nominal)
Resolution: 35000
Column name: XBridge C18 3.5um, 2.1x50mm, Waters
Retention time: 8.9 min
Base peak: 311.2114
Precursor m/z: 311.2118
Precursor type: [M+H]+
m/z	relative intensity	assigned
50.0151	9	C4H2+
51.0229	10	C4H3+
53.0022	3	C3HO+
53.0386	19	C4H5+
55.0417	1	C3H5N+
55.0542	5	C4H7+
56.0495	349	C3H6N+
58.0651	109	C3H8N+
60.0444	11	C2H6NO+
62.015	4	C5H2+
63.0229	45	C5H3+
64.0307	12	C5H4+
65.0386	126	C5H5+
66.0464	7	C5H6+
68.0494	1	C4H6N+
70.0651	47	C4H8N+
71.0729	117	C4H9N+
74.015	1	C6H2+
75.0229	13	C6H3+
77.0385	29	C6H5+
78.0464	4	C6H6+
79.0542	14	C6H7+
80.0494	1	C5H6N+
81.0335	1	C5H5O+
84.0807	15	C5H10N+
86.0963	7	C5H12N+
88.0307	1	C7H4+
89.0385	338	C7H5+
90.0464	95	C7H6+
91.0542	130	C7H7+
94.0413	1	C6H6O+
95.0491	56	C6H7O+
101.0385	3	C8H5+
102.0464	13	C8H6+
103.0542	28	C8H7+
104.0493	1	C7H6N+
105.0447	34	C6H5N2+
106.0651	11	C7H8N+
113.0387	4	C9H5+
114.0337	1	C8H4N+
114.0464	4	C9H6+
115.0542	125	C9H7+
116.0494	16	C8H6N+
116.062	4	C9H8+
117.0573	42	C8H7N+
118.0652	5	C8H8N+
119.0491	5	C8H7O+
125.0387	1	C10H5+
126.0463	8	C10H6+
127.0415	1	C9H5N+
127.0542	8	C10H7+
128.0494	52	C9H6N+
128.062	26	C10H8+
129.0447	20	C8H5N2+
129.0574	4	C9H7N+
129.0697	1	C10H9+
130.0652	25	C9H8N+
132.0571	3	C9H8O+
134.0597	1	C8H8NO+
137.0385	1	C11H5+
138.0463	1	C11H6+
139.0542	176	C11H7+
140.0495	48	C10H6N+
140.062	47	C11H8+
141.0575	1	C10H7N+
141.0698	8	C11H9+
142.0652	7	C10H8N+
143.073	10	C10H9N+
144.0807	4	C10H10N+
145.0649	4	C10H9O+
146.06	17	C9H8NO+
150.0464	12	C12H6+
151.0542	10	C12H7+
152.062	121	C12H8+
153.0573	9	C11H7N+
153.0698	7	C12H9+
154.0652	14	C11H8N+
155.0605	10	C10H7N2+
156.0807	3	C11H10N+
163.0542	53	C13H7+
164.0497	8	C12H6N+
164.062	102	C13H8+
165.0699	880	C13H9+
166.0651	204	C12H8N+
166.0776	15	C13H10+
167.0729	251	C12H9N+
168.057	37	C12H8O+
168.081	3	C12H10N+
169.0648	36	C12H9O+
170.0601	5	C11H8NO+
176.062	29	C14H8+
177.0573	51	C13H7N+
177.0694	16	C14H9+
178.0653	40	C13H8N+
178.0776	74	C14H10+
179.0605	16	C12H7N2+
179.0729	31	C13H9N+
179.0856	5	C14H11+
180.0808	32	C13H10N+
183.0679	2	C12H9NO+
184.0757	5	C12H10NO+
189.0571	3	C14H7N+
189.0699	19	C15H9+
190.0651	228	C14H8N+
191.0729	999	C14H9N+
192.0807	569	C14H10N+
193.0886	106	C14H11N+
194.0599	3	C13H8NO+
194.0964	9	C14H12N+
196.052	10	C13H8O2+
196.0751	1	C13H10NO+
202.0775	1	C16H10+
203.0729	9	C15H9N+
204.0808	116	C15H10N+
205.0886	9	C15H11N+
206.0964	25	C15H12N+
207.1044	1	C15H13N+
216.0807	20	C16H10N+
217.0887	78	C16H11N+
218.0964	22	C16H12N+
230.0965	5	C17H12N+
232.1117	1	C17H14N+
