Mass spectrum: Nystatin; LC-ESI-QFT; MS2; CE: 15; R=35000; [M-H]-
Name: Nystatin
Name: (1S,3R,4R,7R,9R,11R,15S,16R,17R,18S,19E,21E,25E,27E,29E,31E,33R,35S,36R,37S)-33-[(3-Amino-3,6-dideoxy-?-D-mannopyranosyl)oxy]-1,3,4,7,9,11,17,37-octahydroxy-15,16,18-trimethyl-13-oxo-14,39-dioxabic yclo[33.3.1]nonatriaconta-19,21,25,27,29,31-hexaene-36-carboxylic acid
Formula: C47H75NO17
Exact mass: 925.50350
SMILES: CC1C=CC=CCCC=CC=CC=CC=CC(CC2C(C(CC(O2)(CC(C(CCC(CC(CC(CC(=O)OC(C(C1O)C)C)O)O)O)O)O)O)O)C(=O)O)OC3C(C(C(C(O3)C)O)N)O
InChI: InChI=1S/C47H75NO17/c1-27-17-15-13-11-9-7-5-6-8-10-12-14-16-18-34(64-46-44(58)41(48)43(57)30(4)63-46)24-38-40(45(59)60)37(54)26-47(61,65-38)25-36(53)35(52)20-19-31(49)21-32(50)22-33(51)23-39(55)62-29(3)28(2)42(27)56/h5-6,8,10-18,27-38,40-44,46,49-54,56-58,61H,7,9,19-26,48H2,1-4H3,(H,59,60)/b6-5+,10-8+,13-11+,14-12+,17-15+,18-16+/t27-,28-,29-,30+,31+,32+,33+,34-,35+,36+,37-,38-,40+,41-,42+,43+,44-,46-,47+/m0/s1
Instrument: Q Exactive Orbitrap Thermo Scientific
Instrument type: LC-ESI-QFT
Ms type: MS2
Ion mode: NEGATIVE
Ionization: ESI
Fragmentation mode: HCD
Collision energy: 15 (nominal)
Resolution: 35000
Column name: XBridge C18 3.5um, 2.1x50mm, Waters
Retention time: 11.6 min
Base peak: 924.4966
Precursor m/z: 924.4962
Precursor type: [M-H]-
m/z	relative intensity	assigned
67.0554	2	C5H7-
69.0345	20	C4H5O-
71.0138	10	C3H3O2-
73.0295	6	C3H5O2-
83.0501	13	C5H7O-
85.0295	35	C4H5O2-
86.0248	19	C3H4NO2-
87.0087	7	C3H3O3-
88.0404	135	C3H6NO2-
93.0345	11	C6H5O-
100.0403	5	C4H6NO2-
111.0451	107	C6H7O2-
115.0401	92	C5H7O3-
118.0511	7	C4H8NO3-
123.0452	52	C7H7O2-
129.0711	1	C10H9-
131.0499	1	C9H7O-
135.0816	1	C9H11O-
137.0609	10	C8H9O2-
139.0764	7	C8H11O2-
141.0558	35	C7H9O3-
144.0664	9	C6H10NO3-
145.0507	2	C6H9O4-
147.0814	9	C10H11O-
149.0607	34	C9H9O2-
150.0685	4	C9H10O2-
155.0712	2	C8H11O3-
159.0661	4	C7H11O4-
162.0772	287	C6H12NO4-
163.0761	19	C10H11O2-
165.092	32	C10H13O2-
167.0712	77	C9H11O3-
181.087	18	C10H13O3-
183.1026	27	C10H15O3-
185.0816	7	C9H13O4-
189.0918	2	C12H13O2-
191.0716	5	C11H11O3-
199.0977	9	C10H15O4-
203.0927	12	C9H15O5-
205.1235	1	C13H17O2-
207.1026	19	C12H15O3-
209.0815	14	C11H13O4-
223.1337	4	C13H19O3-
225.1133	16	C12H17O4-
227.0924	898	C11H15O5-
228.096	12	C6H16N2O7-
233.1185	8	C14H17O3-
245.1029	999	C11H17O6-
249.1126	5	C14H17O4-
249.149	7	C15H21O3-
257.1911	1	C18H25O-
263.1135	5	C11H19O7-
267.1236	37	C14H19O5-
267.1753	21	C19H23O-
275.1292	6	C16H19O4-
279.2117	1	C21H27-
285.1342	49	C14H21O6-
293.1393	70	C16H21O5-
293.1909	8	C21H25O-
303.1446	73	
311.1498	206	C16H23O6-
329.1604	196	C16H25O7-
333.2221	23	C24H29O-
338.2124	16	C22H28NO2-
351.2334	9	C24H31O2-
369.2431	68	C24H33O3-
387.2536	37	C24H35O4-
395.2583	16	C26H35O3-
404.2593	5	C27H34NO2-
409.2754	1	C27H37O3-
422.2686	2	C27H36NO3-
435.2901	70	C29H39O3-
437.2698	10	C28H37O4-
440.2801	44	C27H38NO4-
453.3006	48	C29H41O4-
455.2799	1	C28H39O5-
458.2915	1	C27H40NO5-
463.2855	16	C30H39O4-
477.3	4	C31H41O4-
489.3004	4	C32H41O4-
496.3075	7	C30H42NO5-
503.3163	11	C33H43O4-
506.3283	5	C32H44NO4-
514.3168	55	C30H44NO6-
515.3183	6	C37H41NO-
521.3272	6	C33H45O5-
529.3307	11	C35H45O4-
532.3273	75	
547.3407	2	C35H47O5-
557.3295	4	C36H45O5-
561.322	6	C35H45O6-
575.3388	6	C36H47O6-
592.3509	2	C32H50NO9-
601.3528	4	C38H49O6-
616.3853	42	
619.3629	5	C38H51O7-
627.3673	22	C40H51O6-
645.379	126	C40H53O7-
663.3896	122	C40H55O8-
681.4004	33	
790.4532	10	C46H64NO10-
808.4629	39	
826.4739	147	C46H68NO12-
838.4608	4	C43H68NO15-
844.4842	83	
906.484	41	
