Mass spectrum: Asulam-TP Sulfanilamide; LC-ESI-QFT; MS2; CE: 60%; R=17500; [M+H]+
Name: Asulam-TP Sulfanilamide
Name: Sulfanilamide
Name: 4-aminobenzenesulfonamide
Formula: C6H8N2O2S
Exact mass: 172.0306
SMILES: C1=C(C=CC(=C1)S(=O)(=O)N)N
InChI: InChI=1S/C6H8N2O2S/c7-5-1-3-6(4-2-5)11(8,9)10/h1-4H,7H2,(H2,8,9,10)
Instrument: Q Exactive Plus Orbitrap Thermo Scientific
Instrument type: LC-ESI-QFT
Ms type: MS2
Ion mode: POSITIVE
Ionization: ESI
Fragmentation mode: HCD
Collision energy: 60 % (nominal)
Resolution: 17500
Column name: XBridge C18 3.5um, 2.1x50mm, Waters
Retention time: 1.130 min
Base peak: 156.0115
Precursor m/z: 173.0379
Precursor type: [M+H]+
m/z	relative intensity	assigned
53.0385	3	C4H5+
65.0386	175	C5H5+
66.0464	20	C5H6+
68.0495	20	C4H6N+
75.0229	14	C6H3+
76.0308	7	C6H4+
78.0336	2	C5H4N+
79.0177	3	C5H3O+
80.0494	23	C5H6N+
92.0495	392	C6H6N+
93.0574	999	C6H7N+
94.0651	7	C6H8N+
96.0445	4	C5H6NO+
108.0444	267	C6H6NO+
109.0284	4	C6H5O2+
110.0601	88	C6H8NO+
111.044	4	C6H7O2+
120.0555	4	
125.0472	126	C6H7NO2+
138.9851	13	C6H3O2S+
156.0114	12	C6H6NO2S+
157.0147	2	
173.038	448	C6H9N2O2S+
184.0176	8	
