Mass spectrum: Metalaxyl; LC-ESI-ITFT; MS2; CE: 60%; R=15000; [M+H]+
Name: Metalaxyl
Name: 2-(N-(2-methoxy-1-oxoethyl)-2,6-dimethylanilino)propanoic acid methyl ester
Formula: C15H21NO4
Exact mass: 279.1465
SMILES: CC1=C(C(=CC=C1)C)N(C(C)C(=O)OC)C(=O)COC
InChI: InChI=1S/C15H21NO4/c1-10-7-6-8-11(2)14(10)16(13(17)9-19-4)12(3)15(18)20-5/h6-8,12H,9H2,1-5H3
Instrument: LTQ Orbitrap XL Thermo Scientific
Instrument type: LC-ESI-ITFT
Ms type: MS2
Ion mode: POSITIVE
Ionization: ESI
Fragmentation mode: HCD
Collision energy: 60 % (nominal)
Resolution: 15000
Column name: XBridge C18 3.5um, 2.1x50mm, Waters
Retention time: 8.7 min
Base peak: 302.1365
Precursor m/z: 280.1543
Precursor type: [M+H]+
m/z	relative intensity	assigned
105.0698	20	C8H9+
107.0856	7	C8H11+
118.0649	6	C8H8N+
119.0856	10	C9H11+
121.0885	15	C8H11N+
130.0651	11	C9H8N+
131.0728	14	C9H9N+
132.0807	64	C9H10N+
133.0886	109	C9H11N+
134.0964	193	C9H12N+
135.1047	5	C9H13N+
144.0809	7	C10H10N+
145.0886	93	C10H11N+
146.0964	97	C10H12N+
147.1041	5	C10H13N+
148.112	216	C10H14N+
150.0913	19	C9H12NO+
158.0966	4	C11H12N+
160.1121	999	C11H14N+
162.1277	194	C11H16N+
164.1068	12	C10H14NO+
165.1147	18	C10H15NO+
192.1381	247	C12H18NO+
220.1332	52	C13H18NO2+
