Mass spectrum: MCLR; LC-ESI-QFT; MS2; CE: 45%; R=17500; [M+H]+
Name: MCLR
Name: Microcystin LR
Name: (5R,8S,11R,12S,15S,18S,19S,22R)-15-[3-(diaminomethylideneamino)propyl]-18-[(1E,3E,5S,6S)-6-methoxy-3,5-dimethyl-7-phenylhepta-1,3-dienyl]-1,5,12,19-tetramethyl-2-methylidene-8-(2-methylpropyl)-3,6,9,13,16,20,25-heptaoxo-1,4,7,10,14,17,21-heptazacyclopentacosane-11,22-dicarboxylic acid
Class: NA
Formula: C49H74N10O12
Exact mass: 994.5488
SMILES: CO[C@@H](Cc1ccccc1)[C@@H](C)/C=C(C)/C=C/[C@@H]2NC(=O)[C@H](CCCNC(N)=N)NC(=O)[C@@H](C)[C@@H](NC(=O)[C@H](CC(C)C)NC(=O)[C@@H](C)NC(=O)C(=C)N(C)C(=O)CC[C@@H](NC(=O)[C@H]2C)C(O)=O)C(O)=O
InChI: InChI=1S/C49H74N10O12/c1-26(2)23-37-46(66)58-40(48(69)70)30(6)42(62)55-35(17-14-22-52-49(50)51)45(65)54-34(19-18-27(3)24-28(4)38(71-10)25-33-15-12-11-13-16-33)29(5)41(61)56-36(47(67)68)20-21-39(60)59(9)32(8)44(64)53-31(7)43(63)57-37/h11-13,15-16,18-19,24,26,28-31,34-38,40H,8,14,17,20-23,25H2,1-7,9-10H3,(H,53,64)(H,54,65)(H,55,62)(H,56,61)(H,57,63)(H,58,66)(H,67,68)(H,69,70)(H4,50,51,52)/b19-18+,27-24+/t28-,29-,30-,31+,34-,35-,36+,37-,38-,40+/m0/s1
Instrument: Q Exactive Plus Orbitrap Thermo Scientific
Instrument type: LC-ESI-QFT
Ms type: MS2
Ion mode: POSITIVE
Ionization: ESI
Fragmentation mode: HCD
Collision energy: 45 % (nominal)
Resolution: 17500
Column name: XBridge C18 3.5um, 2.1x50mm, Waters
Retention time: 8.590 min
Base peak: 498.282
Precursor m/z: 995.556
Precursor type: [M+H]+
m/z	relative intensity	assigned
69.0334	13	C4H5O+
70.0651	497	C4H8N+
77.0385	7	C6H5+
79.0541	38	C6H7+
82.0287	4	C4H4NO+
82.0652	14	C5H8N+
84.0444	166	C4H6NO+
86.0964	347	C5H12N+
87.0792	9	C3H9N3+
91.0542	113	C7H7+
93.0699	91	C7H9+
94.065	6	C6H8N+
95.049	33	C6H7O+
95.0603	21	C5H7N2+
95.0853	10	C7H11+
96.081	5	C6H10N+
97.0761	31	C5H9N2+
98.0601	29	C5H8NO+
99.0916	21	C5H11N2+
102.055	19	C4H8NO2+
103.0542	227	C8H7+
105.045	9	
105.0698	231	C8H9+
107.0855	466	C8H11+
109.0648	11	C7H9O+
110.06	8	C6H8NO+
112.0393	11	
112.0869	268	C5H10N3+
113.0709	60	C5H9N2O+
114.1026	40	C5H12N3+
115.0543	36	C9H7+
115.0866	148	C5H11N2O+
116.0705	5	C5H10NO2+
117.0698	113	C9H9+
119.0854	22	C9H11+
120.0809	27	C8H10N+
121.1011	8	C9H13+
124.0756	14	C7H10NO+
124.112	31	C8H14N+
127.0865	435	C6H11N2O+
128.0705	9	C6H10NO2+
129.0695	7	C10H9+
130.0498	29	C5H8NO3+
130.0973	20	C5H12N3O+
131.0855	30	C10H11+
133.101	12	C10H13+
135.0804	999	C9H11O+
135.1167	350	C10H15+
138.0549	57	C7H8NO2+
139.0877	7	C7H11N2O+
139.0977	20	C6H11N4+
140.0707	10	C7H10NO2+
140.0817	81	C6H10N3O+
141.0658	64	C6H9N2O2+
143.085	13	C11H11+
145.1011	22	C11H13+
146.0965	10	C10H12N+
147.0771	13	C5H11N2O3+
149.071	15	C8H9N2O+
151.0863	9	C8H11N2O+
152.1186	9	C8H14N3+
153.1024	13	C8H13N2O+
155.0814	311	C7H11N2O2+
156.1243	32	C6H14N5+
157.1084	164	C6H13N4O+
157.1331	23	C8H17N2O+
158.0923	51	C6H12N3O2+
161.0962	20	C11H13O+
162.1277	15	C11H16N+
163.1117	185	C11H15O+
167.0816	93	C8H11N2O2+
172.0721	9	C6H10N3O3+
172.1121	20	C12H14N+
174.135	107	C6H16N5O+
175.1192	37	C6H15N4O2+
181.1333	10	C10H17N2O+
182.1038	33	C7H12N5O+
183.088	53	C7H11N4O2+
183.1133	6	C9H15N2O2+
195.0767	88	C9H11N2O3+
196.0611	13	C10H6N5+
196.1085	16	C9H14N3O2+
197.1281	9	C10H17N2O2+
198.1241	22	C9H16N3O2+
200.1144	183	C7H14N5O2+
201.0984	62	C7H13N4O3+
206.0927	11	C10H12N3O2+
208.1088	21	C12H16O3+
209.0921	15	C10H13N2O3+
209.1305	38	CH23NO10+
211.071	15	C9H11N2O4+
212.1505	11	C9H18N5O+
213.0873	374	C9H13N2O4+
213.1332	34	C7H15N7O+
218.154	34	C14H20NO+
223.1204	41	C12H17NO3+
224.1038	24	C12H16O4+
225.135	28	C10H17N4O2+
226.119	82	C10H16N3O3+
227.1022	7	C10H15N2O4+
237.1247	11	H21N4O10+
237.1639	30	C18H21+
239.0665	77	C10H11N2O5+
240.145	17	C10H18N5O2+
241.1304	19	C12H19NO4+
244.1291	28	C10H18N3O4+
246.1488	29	C15H20NO2+
251.1139	14	C11H15N4O3+
258.1565	15	C10H20N5O3+
259.1811	6	C3H31O12+
263.1874	21	CH31N2O12+
267.1567	8	C11H19N6O2+
269.1253	66	C12H13N8+
280.2136	23	H28N10O7+
282.1866	13	C6H22N10O3+
285.1675	42	C11H21N6O3+
286.1514	24	C11H20N5O4+
303.1783	25	C12H19N10+
306.1911	9	C13H22N8O+
347.1958	15	C3H27N10O9+
375.1921	29	C6H29N7O11+
469.3282	9	C26H41N6O2+
