Mass spectrum: Norephedrine; LC-ESI-QFT; MS2; CE: 45; R=35000; [M+H]+
Name: Norephedrine
Name: Phenylpropanolamine
Name: 2-amino-1-phenylpropan-1-ol
Formula: C9H13NO
Exact mass: 151.09971
SMILES: CC(C(C1=CC=CC=C1)O)N
InChI: InChI=1S/C9H13NO/c1-7(10)9(11)8-5-3-2-4-6-8/h2-7,9,11H,10H2,1H3
Instrument: Q Exactive Plus Orbitrap Thermo Scientific
Instrument type: LC-ESI-QFT
Ms type: MS2
Ion mode: POSITIVE
Ionization: ESI
Fragmentation mode: HCD
Collision energy: 45 (nominal)
Resolution: 35000
Column name: XBridge C18 3.5um, 2.1x50mm, Waters
Retention time: 2.4 min
Base peak: 152.1067
Precursor m/z: 152.107
Precursor type: [M+H]+
m/z	relative intensity	assigned
56.0495	43	C3H6N+
57.0335	7	C3H5O+
79.0543	1	C6H7+
91.0542	10	C7H7+
93.07	7	C7H9+
106.0652	3	C7H8N+
115.0543	45	C9H7+
117.0699	479	C9H9+
119.0729	9	C8H9N+
134.0964	999	C9H12N+
135.0804	7	C9H11O+
152.1072	2	C9H14NO+
