Mass spectrum: Dialifos; LC-ESI-QFT; MS2; CE: 75%; R=17500; [M+H]+
Name: Dialifos
Name: Dialifor
Name: 2-(2-chloro-1-diethoxyphosphinothioylsulfanylethyl)isoindole-1,3-dione
Formula: C14H17ClNO4PS2
Exact mass: 393.0025
SMILES: CCOP(=S)(OCC)SC(CCl)N1C(=O)C2=CC=CC=C2C1=O
InChI: InChI=1S/C14H17ClNO4PS2/c1-3-19-21(22,20-4-2)23-12(9-15)16-13(17)10-7-5-6-8-11(10)14(16)18/h5-8,12H,3-4,9H2,1-2H3
Instrument: Exploris 240 Orbitrap Thermo Scientific
Instrument type: LC-ESI-QFT
Ms type: MS2
Ion mode: POSITIVE
Ionization: ESI
Fragmentation mode: HCD
Collision energy: 75 % (nominal)
Resolution: 17500
Column name: XBridge C18 3.5um, 2.1x50mm, Waters
Retention time: 11.982 min
Base peak: 439.042
Precursor m/z: 394.0098
Precursor type: [M+H]+
m/z	relative intensity	assigned
60.9839	265	C2H2Cl+
64.0307	67	C5H4+
64.9788	43	H2O2P+
78.9402	37	OPS+
89.0386	666	C7H5+
94.9175	26	PS2+
96.9507	999	H2O2PS+
102.0337	24	C7H4N+
104.0256	258	C7H4O+
105.0335	210	C7H5O+
114.9613	546	H4O3PS+
116.0495	298	C8H6N+
117.0336	183	C8H5O+
117.0576	28	C8H7N+
125.0151	387	C6H6OP+
128.9767	29	CH6O3PS+
130.0288	544	C8H4NO+
130.9385	389	H4O2PS2+
137.0151	67	C7H6OP+
138.9944	69	C7H4ClO+
139.0062	87	C3H7O4S+
144.0444	232	C9H6NO+
145.0289	102	C9H5O2+
145.0518	89	C9H7NO+
153.0102	210	C4H9ClNOP+
166.9892	192	C7H4O3P+
172.0393	210	C10H6NO2+
181.0051	610	C9H6ClO2+
208.016	156	C10H7ClNO2+
