Mass spectrum: N-Nitrosomethylaniline; LC-ESI-QFT; MS2; CE: 75; R=70000; [M+H]+
Name: N-Nitrosomethylaniline
Name: N-methyl-N-phenylnitrous amide
Formula: C7H8N2O
Exact mass: 136.06366
SMILES: O=NN(c1ccccc1)C
InChI: InChI=1S/C7H8N2O/c1-9(8-10)7-5-3-2-4-6-7/h2-6H,1H3
Instrument: Q Exactive Plus Orbitrap Thermo Scientific
Instrument type: LC-ESI-QFT
Ms type: MS2
Ion mode: POSITIVE
Ionization: ESI
Fragmentation mode: HCD
Collision energy: 75 (nominal)
Resolution: 70000
Column name: XBridge C18 3.5um, 2.1x50mm, Waters
Retention time: 6.4 min
Base peak: 137.071
Precursor m/z: 137.0709
Precursor type: [M+H]+
m/z	relative intensity	assigned
50.0151	2	C4H2+
51.0229	2	C4H3+
53.0386	13	C4H5+
55.0178	1	C3H3O+
59.024	2	CH3N2O+
65.0386	23	C5H5+
66.0464	999	C5H6+
77.0385	22	C6H5+
79.0542	1	C6H7+
80.062	2	C6H8+
81.0335	2	C5H5O+
91.0542	1	C7H7+
92.0495	6	C6H6N+
95.0491	112	C6H7O+
105.0448	32	C6H5N2+
106.0651	10	C7H8N+
107.073	77	C7H9N+
137.071	12	C7H9N2O+
