Mass spectrum: Imicyafos; LC-ESI-QFT; MS2; CE: 150%; R=17500; [M+H]+
Name: Imicyafos
Name: [1-[ethoxy(propylsulfanyl)phosphoryl]-3-ethylimidazolidin-2-ylidene]cyanamide
Formula: C11H21N4O2PS
Exact mass: 304.1123
SMILES: CCCSP(=O)(N1CCN(C1=NC#N)CC)OCC
InChI: InChI=1S/C11H21N4O2PS/c1-4-9-19-18(16,17-6-3)15-8-7-14(5-2)11(15)13-10-12/h4-9H2,1-3H3
Instrument: Exploris 240 Orbitrap Thermo Scientific
Instrument type: LC-ESI-QFT
Ms type: MS2
Ion mode: POSITIVE
Ionization: ESI
Fragmentation mode: HCD
Collision energy: 150 % (nominal)
Resolution: 17500
Column name: XBridge C18 3.5um, 2.1x50mm, Waters
Retention time: 5.301 min
Base peak: 305.1193
Precursor m/z: 305.1196
Precursor type: [M+H]+
m/z	relative intensity	assigned
55.0291	123	C2H3N2+
56.0494	156	C3H6N+
60.9837	56	CH2OP+
64.9787	173	H2O2P+
68.0243	999	C2H2N3+
69.0086	47	C2HN2O+
69.0447	777	C3H5N2+
70.0652	129	C4H8N+
71.0603	40	C3H7N2+
78.9401	113	OPS+
78.9944	116	CH4O2P+
79.9894	71	H3NO2P+
81.0322	82	C3H3N3+
82.0399	87	C3H4N3+
84.0558	102	C3H6N3+
87.9949	37	C2H3NOP+
96.9507	154	H2O2PS+
104.9849	35	CH2N2O2P+
109.051	239	C4H5N4+
111.0666	105	C4H7N4+
137.0823	40	C6H9N4+
