Mass spectrum: Sarafloxacin; LC-ESI-QFT; MS2; CE: 60; R=35000; [M+H]+
Name: Sarafloxacin
Name: 6-fluoro-1-(4-fluorophenyl)-4-oxo-7-piperazin-1-ylquinoline-3-carboxylic acid
Formula: C20H17F2N3O3
Exact mass: 385.12380
SMILES: C1CN(CCN1)C2=C(C=C3C(=C2)N(C=C(C3=O)C(=O)O)C4=CC=C(C=C4)F)F
InChI: InChI=1S/C20H17F2N3O3/c21-12-1-3-13(4-2-12)25-11-15(20(27)28)19(26)14-9-16(22)18(10-17(14)25)24-7-5-23-6-8-24/h1-4,9-11,23H,5-8H2,(H,27,28)
Instrument: Q Exactive Plus Orbitrap Thermo Scientific
Instrument type: LC-ESI-QFT
Ms type: MS2
Ion mode: POSITIVE
Ionization: ESI
Fragmentation mode: HCD
Collision energy: 60 (nominal)
Resolution: 35000
Column name: XBridge C18 3.5um, 2.1x50mm, Waters
Retention time: 4.7 min
Base peak: 386.1304
Precursor m/z: 386.1311
Precursor type: [M+H]+
m/z	relative intensity	assigned
56.0495	42	C3H6N+
58.0651	17	C3H8N+
68.0495	8	C4H6N+
70.0651	50	C4H8N+
71.0728	3	C4H9N+
83.0603	5	C4H7N2+
84.0682	1	C4H8N2+
85.0759	2	C4H9N2+
103.0541	2	C8H7+
109.0449	18	C7H6F+
110.0401	7	C6H5FN+
115.0543	4	C9H7+
116.0495	8	C8H6N+
117.0573	8	C8H7N+
121.0449	11	C8H6F+
122.0401	6	C7H5FN+
123.024	4	C7H4FO+
124.0558	1	C7H7FN+
128.0496	15	C9H6N+
129.0447	1	C8H5N2+
130.0651	12	C9H8N+
131.0606	4	C8H7N2+
133.0448	9	C9H6F+
134.0401	15	C8H5FN+
134.06	9	C8H8NO+
135.0478	11	C8H6FN+
136.0557	26	C8H7FN+
137.0635	2	C8H8FN+
138.0349	6	C7H5FNO+
138.0713	1	C8H9FN+
142.0651	2	C10H8N+
143.0601	3	C9H7N2+
144.0444	1	C9H6NO+
144.0556	4	C8H6N3+
144.0807	1	C10H10N+
146.0401	4	C9H5FN+
147.0239	2	C4H3F2N3O+
148.0557	60	C9H7FN+
149.051	3	C8H6FN2+
150.0349	4	C8H5FNO+
150.0716	4	C9H9FN+
151.0664	2	C8H8FN2+
152.0507	7	C8H7FNO+
154.0659	2	C11H8N+
155.0604	34	C10H7N2+
156.0444	11	C10H6NO+
156.0682	2	C10H8N2+
157.0758	4	C10H9N2+
158.0401	5	C10H5FN+
158.0599	1	C10H8NO+
158.0838	4	C10H10N2+
159.0551	1	C9H7N2O+
159.0917	4	C10H11N2+
160.0432	3	C9H5FN2+
160.0556	4	C10H7FN+
161.0512	8	C9H6FN2+
161.0638	1	C10H8FN+
162.0351	13	C9H5FNO+
162.0456	1	C8H5FN3+
162.0717	4	C10H9FN+
163.0665	2	C9H8FN2+
164.0507	10	C9H7FNO+
169.0761	10	C11H9N2+
170.0714	4	C10H8N3+
171.0917	64	C11H11N2+
173.0509	6	C10H6FN2+
174.0349	1	C10H5FNO+
174.0589	26	C10H7FN2+
175.0667	27	C10H8FN2+
176.0507	12	C10H7FNO+
177.046	2	C9H6FN2O+
178.0659	1	C13H8N+
179.0618	4	C9H8FN2O+
180.0455	31	C9H7FNO2+
181.0762	1	C12H9N2+
182.0837	3	C12H10N2+
183.0544	4	C11H7N2O+
183.0618	10	
184.0557	2	C12H7FN+
184.0631	4	C11H8N2O+
185.051	8	C11H6FN2+
186.0351	1	C11H5FNO+
186.0589	5	C11H7FN2+
186.0714	2	C12H9FN+
188.0507	2	C11H7FNO+
188.0746	1	C11H9FN2+
189.0823	105	C11H10FN2+
190.0652	5	C14H8N+
191.0616	5	C10H8FN2O+
191.0978	6	C11H12FN2+
194.0611	3	C10H9FNO2+
195.0563	2	C9H8FN2O2+
196.0871	1	C12H10N3+
198.0724	1	C10H10F2NO+
201.0514	8	C13H7F2+
201.0659	22	C11H9N2O2+
203.0615	45	C11H8FN2O+
204.0455	2	C11H7FNO2+
204.0696	2	C8H10F2N2O2+
204.0808	4	C15H10N+
205.0769	2	C11H10FN2O+
207.0568	1	C7H9F2N2O3+
208.0556	5	C14H7FN+
209.0636	29	C14H8FN+
210.0715	24	C14H9FN+
211.0792	5	C14H10FN+
216.0621	2	C13H8F2N+
219.0566	3	C11H8FN2O2+
221.0722	18	C11H10FN2O2+
222.0714	12	C15H9FN+
223.0666	6	C14H8FN2+
224.0747	2	C14H9FN2+
224.087	18	C15H11FN+
225.0821	11	C14H10FN2+
226.0461	2	C14H6F2N+
226.0659	2	C14H9FNO+
227.054	14	C14H7F2N+
228.0621	17	C14H8F2N+
229.0698	52	C14H9F2N+
230.0775	3	C14H10F2N+
231.0491	3	C13H7F2NO+
231.0728	3	C13H9F2N2+
231.0921	4	C16H11N2+
234.0715	8	C16H9FN+
235.0668	3	C15H8FN2+
235.0794	5	C16H10FN+
236.0509	2	C15H7FNO+
236.0744	7	C15H9FN2+
236.0869	2	C16H11FN+
237.0586	5	C15H8FNO+
237.0824	33	C15H10FN2+
238.0664	42	C15H9FNO+
239.0536	4	C15H7F2N+
239.0741	8	C15H10FNO+
239.0977	1	C15H12FN2+
240.0619	12	C15H8F2N+
240.0815	1	C15H11FNO+
241.0568	2	C14H7F2N2+
241.0698	4	C15H9F2N+
242.0652	2	C14H8F2N2+
242.0773	21	C15H10F2N+
243.0731	15	C14H9F2N2+
244.0805	29	C14H10F2N2+
245.0648	18	C14H9F2NO+
246.0965	5	C14H12F2N2+
248.0739	3	C16H9FN2+
248.0866	1	C17H11FN+
249.07	2	C20H9+
249.0821	16	C16H10FN2+
250.0901	28	C16H11FN2+
251.0738	2	C16H10FNO+
251.0859	3	C20H11+
251.0979	30	C16H12FN2+
252.0693	3	C15H9FN2O+
252.0819	13	C16H11FNO+
252.0936	2	C20H12+
252.1058	3	C16H13FN2+
253.0688	3	C16H9F2N+
253.0792	1	C12H11F2N2O2+
253.0894	1	C16H12FNO+
254.0645	2	C15H8F2N2+
254.0779	3	C16H10F2N+
255.0507	10	
255.0729	57	C15H9F2N2+
256.057	108	C15H8F2NO+
256.079	19	C12H12F2NO3+
257.0648	87	C15H9F2NO+
257.0876	30	
258.0725	46	C15H10F2NO+
259.0436	2	C14H7F2NO2+
259.0675	3	C14H9F2N2O+
259.0867	3	C17H11N2O+
260.0744	4	C17H9FN2+
261.0825	21	C17H10FN2+
262.0656	1	C20H8N+
262.0775	4	C16H9FN3+
262.0905	4	C17H11FN2+
263.0616	2	C16H8FN2O+
263.0853	25	C16H10FN3+
263.0981	15	C17H12FN2+
264.0933	41	C16H11FN3+
264.1058	7	C17H13FN2+
265.0771	14	C16H10FN2O+
265.1007	9	C16H12FN3+
265.114	7	C17H14FN2+
266.1092	9	C16H13FN3+
267.0726	8	C16H9F2N2+
267.0929	25	C16H12FN2O+
268.0572	2	C16H8F2NO+
268.0805	9	C16H10F2N2+
269.0656	5	C16H9F2NO+
269.0885	33	C16H11F2N2+
270.0725	12	C16H10F2NO+
270.0964	191	C16H12F2N2+
271.0671	22	C15H9F2N2O+
271.0804	59	C16H11F2NO+
271.1026	12	
272.0754	41	C15H10F2N2O+
272.0883	26	C16H12F2NO+
272.1173	4	C18H14N3+
273.0835	86	C15H11F2N2O+
274.0901	1	C18H11FN2+
275.0846	2	C17H10FN3+
275.0983	3	C18H12FN2+
276.0933	15	C17H11FN3+
277.0786	6	C14H11F2N2O2+
277.1011	36	C17H12FN3+
278.0727	1	C16H9FN3O+
278.0855	9	C17H11FN2O+
278.1082	7	C17H13FN3+
279.0929	208	C17H12FN2O+
280.0892	10	
280.1241	2	C17H15FN3+
281.0885	91	C17H11F2N2+
282.0723	19	C17H10F2NO+
282.0968	4	C17H12F2N2+
283.0678	33	C16H9F2N2O+
283.104	3	C17H13F2N2+
284.0525	4	C16H8F2NO2+
284.0755	31	C16H10F2N2O+
285.0835	266	C16H11F2N2O+
286.091	6	C16H12F2N2O+
287.0388	2	C15H7F2NO3+
289.0545	29	C15H9F2NO3+
290.072	1	C17H9FN3O+
290.109	6	C18H13FN3+
291.0798	8	C17H10FN3O+
291.0929	10	C18H12FN2O+
291.1168	24	C18H14FN3+
292.0881	96	C14H12F2N3O2+
292.1244	81	C18H15FN3+
293.0725	4	C17H10FN2O2+
293.0957	25	C17H12FN3O+
293.109	10	C18H14FN2O+
294.1037	40	C17H13FN3O+
296.076	1	C17H10F2N2O+
297.0836	65	C17H11F2N2O+
298.0548	2	C16H8F2N2O2+
298.0913	1	C17H12F2N2O+
299.0991	999	C20H12FN2+
302.0629	5	C16H10F2NO3+
302.1088	4	C19H13FN3+
304.0876	7	C18H11FN3O+
304.1246	9	C19H15FN3+
305.0732	4	C15H11F2N2O3+
305.0947	8	C18H12FN3O+
305.1105	1	C16H15F2N2O2+
306.1038	18	C18H13FN3O+
307.1112	4	C18H14FN3O+
309.0837	3	C18H11F2N2O+
310.1154	2	C18H14F2N3+
311.063	18	C20H8FN2O+
311.099	7	C18H13F2N2O+
312.0934	2	C17H12F2N3O+
312.1306	23	C18H16F2N3+
316.0662	2	C16H10F2N2O3+
318.0674	3	C18H9FN3O2+
318.1042	6	C19H13FN3O+
319.1117	7	C19H14FN3O+
320.0831	122	C18H11FN3O2+
320.1193	66	C19H15FN3O+
322.1351	25	C19H17FN3O+
323.0821	2	C18H12FN2O3+
324.1307	21	C19H16F2N3+
325.0789	28	C18H11F2N2O2+
329.0734	17	C17H11F2N2O3+
338.0935	101	C18H13FN3O3+
340.09	2	C20H14F2O3+
340.1259	12	C19H16F2N3O+
342.1413	9	C19H18F2N3O+
343.0892	11	C18H13F2N2O3+
348.1143	123	C20H15FN3O2+
352.1089	2	C19H15FN3O3+
366.125	131	C20H17FN3O3+
368.1206	152	C20H16F2N3O2+
386.1311	245	C20H18F2N3O3+
