Mass spectrum: Tolfenpyrad; LC-ESI-QFT; MS2; CE: 60%; R=17500; [M+H]+
Name: Tolfenpyrad
Name: 4-chloro-5-ethyl-2-methyl-N-[[4-(4-methylphenoxy)phenyl]methyl]pyrazole-3-carboxamide
Formula: C21H22ClN3O2
Exact mass: 383.1401
SMILES: CCC1=NN(C(=C1Cl)C(=O)NCC2=CC=C(C=C2)OC3=CC=C(C=C3)C)C
InChI: InChI=1S/C21H22ClN3O2/c1-4-18-19(22)20(25(3)24-18)21(26)23-13-15-7-11-17(12-8-15)27-16-9-5-14(2)6-10-16/h5-12H,4,13H2,1-3H3,(H,23,26)
Instrument: Exploris 240 Orbitrap Thermo Scientific
Instrument type: LC-ESI-QFT
Ms type: MS2
Ion mode: POSITIVE
Ionization: ESI
Fragmentation mode: HCD
Collision energy: 60 % (nominal)
Resolution: 17500
Column name: XBridge C18 3.5um, 2.1x50mm, Waters
Retention time: 13.456 min
Base peak: 308.0038
Precursor m/z: 384.1473
Precursor type: [M+H]+
m/z	relative intensity	assigned
56.013	8	C2H2NO+
75.995	25	C2H3ClN+
91.0542	61	C7H7+
106.0654	23	C7H8N+
107.049	14	C7H7O+
117.0214	376	C4H6ClN2+
119.0602	14	C7H7N2+
128.0619	10	C10H8+
129.0701	15	C10H9+
141.0698	74	C11H9+
143.0374	6	C6H8ClN2+
145.0527	291	C6H10ClN2+
153.0702	14	C12H9+
154.0778	281	C12H10+
167.0856	15	C13H11+
169.1012	328	C13H13+
171.032	122	C7H8ClN2O+
179.086	14	C14H11+
182.0732	15	C10H13ClN+
197.0961	999	C14H13O+
200.0584	19	C8H11ClN3O+
