Mass spectrum: Memantine; LC-ESI-QFT; MS2; CE: 180; R=35000; [M+H]+
Name: Memantine
Name: 3,5-dimethyladamantan-1-amine
Formula: C12H21N
Exact mass: 179.16740
SMILES: CC12CC3CC(C1)(CC(C3)(C2)N)C
InChI: InChI=1S/C12H21N/c1-10-3-9-4-11(2,6-10)8-12(13,5-9)7-10/h9H,3-8,13H2,1-2H3
Instrument: Q Exactive Plus Orbitrap Thermo Scientific
Instrument type: LC-ESI-QFT
Ms type: MS2
Ion mode: POSITIVE
Ionization: ESI
Fragmentation mode: HCD
Collision energy: 180 (nominal)
Resolution: 35000
Column name: XBridge C18 3.5um, 2.1x50mm, Waters
Retention time: 6.7 min
Base peak: 180.1746
Precursor m/z: 180.1747
Precursor type: [M+H]+
m/z	relative intensity	assigned
50.0151	43	C4H2+
51.023	78	C4H3+
53.0022	29	C3HO+
53.0386	75	C4H5+
53.9975	9	C2NO+
55.0543	57	C4H7+
62.0151	7	C5H2+
63.023	57	C5H3+
65.0386	976	C5H5+
66.0464	6	C5H6+
67.0542	62	C5H7+
69.0697	1	C5H9+
77.0386	119	C6H5+
78.0086	1	C3N3+
78.0464	16	C6H6+
79.0542	140	C6H7+
80.0621	1	C6H8+
81.0335	6	C5H5O+
81.0699	14	C6H9+
91.0543	999	C7H7+
92.0621	23	C7H8+
93.07	17	C7H9+
94.0414	3	C6H6O+
95.0492	205	C6H7O+
103.0543	38	C8H7+
104.0621	1	C8H8+
105.0448	110	C6H5N2+
105.07	91	C8H9+
107.0856	12	C8H11+
109.0649	12	C7H9O+
117.0697	1	C9H9+
119.0604	11	C7H7N2+
119.0857	2	C9H11+
