Mass spectrum: 2-Aminosulfonyl-benzoic acid methyl ester; LC-ESI-ITFT; MS2; CE: 60%; R=15000; [M+H]+
Name: 2-Aminosulfonyl-benzoic acid methyl ester
Name: Methyl 2-(aminosulfonyl)benzoate
Name: 2-sulfamoylbenzoic acid methyl ester
Formula: C8H9NO4S
Exact mass: 215.0252
SMILES: COC(C1=C(S(=O)(N)=O)C=CC=C1)=O
InChI: InChI=1S/C8H9NO4S/c1-13-8(10)6-4-2-3-5-7(6)14(9,11)12/h2-5H,1H3,(H2,9,11,12)
Instrument: LTQ Orbitrap XL Thermo Scientific
Instrument type: LC-ESI-ITFT
Ms type: MS2
Ion mode: POSITIVE
Ionization: ESI
Fragmentation mode: HCD
Collision energy: 60 % (nominal)
Resolution: 15000
Column name: XBridge C18 3.5um, 2.1x50mm, Waters
Retention time: 4.5 min
Base peak: 199.0063
Precursor m/z: 216.0325
Precursor type: [M+H]+
m/z	relative intensity	assigned
53.0385	60	C4H5+
77.0385	239	C6H5+
79.0542	85	C6H7+
92.0256	47	C6H4O+
92.0495	36	C6H6N+
95.0493	20	C6H7O+
105.0333	41	C7H5O+
105.0446	141	C6H5N2+
120.0204	39	C7H4O2+
120.0443	110	C7H6NO+
121.0288	18	C7H5O2+
130.0399	245	C7H4N3+
135.0439	999	C8H7O2+
165.9952	41	C7H4NO2S+
184.006	106	C7H6NO3S+
199.0052	78	C8H7O4S+
