Mass spectrum: Paroxetine; LC-ESI-QFT; MS2; CE: 180; R=35000; [M+H]+
Name: Paroxetine
Name: 3-[(1,3-Benzodioxol-5-yloxy)methyl]-4-(4-fluorophenyl)piperidine
Name: 3-(1,3-benzodioxol-5-yloxymethyl)-4-(4-fluorophenyl)piperidine
Formula: C19H20FNO3
Exact mass: 329.14272
SMILES: C1CNCC(C1C2=CC=C(C=C2)F)COC3=CC4=C(C=C3)OCO4
InChI: InChI=1S/C19H20FNO3/c20-15-3-1-13(2-4-15)17-7-8-21-10-14(17)11-22-16-5-6-18-19(9-16)24-12-23-18/h1-6,9,14,17,21H,7-8,10-12H2
Instrument: Q Exactive Plus Orbitrap Thermo Scientific
Instrument type: LC-ESI-QFT
Ms type: MS2
Ion mode: POSITIVE
Ionization: ESI
Fragmentation mode: HCD
Collision energy: 180 (nominal)
Resolution: 35000
Column name: XBridge C18 3.5um, 2.1x50mm, Waters
Retention time: 7.8 min
Base peak: 330.1493
Precursor m/z: 330.15
Precursor type: [M+H]+
m/z	relative intensity	assigned
50.0152	47	C4H2+
51.023	119	C4H3+
53.0022	190	C3HO+
53.0386	53	C4H5+
53.9975	47	C2NO+
54.01	3	C3H2O+
54.0339	44	C3H4N+
55.0179	3	C3H3O+
55.0417	11	C3H5N+
55.0543	2	C4H7+
56.0495	50	C3H6N+
57.0136	344	C3H2F+
59.0292	115	C3H4F+
61.0073	11	C5H+
62.0151	40	C5H2+
63.023	237	C5H3+
65.0386	135	C5H5+
67.0417	23	C4H5N+
67.9893	24	C3O2+
68.0495	50	C4H6N+
68.9971	17	C3HO2+
70.0214	10	
70.0652	32	C4H8N+
74.0151	70	C6H2+
75.0229	244	C6H3+
77.0386	65	C6H5+
78.0087	4	C3N3+
78.0464	13	C6H6+
80.0494	10	C5H6N+
81.0136	29	C5H2F+
81.0335	27	C5H5O+
82.0652	13	C5H8N+
83.0292	999	C5H4F+
87.023	18	
89.0386	235	C7H5+
91.0542	19	C7H7+
94.0216	3	C6H3F+
95.0293	12	
95.0492	82	C6H7O+
96.037	50	C6H5F+
99.023	19	C8H3+
101.0386	10	C8H5+
102.0464	37	C8H6+
103.0543	4	C8H7+
105.0448	57	C6H5N2+
107.0292	109	C7H4F+
108.037	4	C7H5F+
109.0449	627	C7H6F+
113.0388	21	
115.0543	372	C9H7+
119.0493	10	C8H7O+
120.0371	64	C8H5F+
123.0353	28	C6H4FN2+
125.0386	14	C10H5+
126.0465	33	C10H6+
127.0543	19	C10H7+
128.0621	26	C10H8+
129.0447	23	C8H5N2+
133.0449	409	C9H6F+
134.0526	6	C9H7F+
135.0605	12	C9H8F+
145.0451	11	C10H6F+
145.0651	5	C10H9O+
146.0527	142	C10H7F+
147.0607	3	C10H8F+
155.0604	31	C10H7N2+
173.051	3	C10H6FN2+
