Mass spectrum: Isofenphos-Methyl; LC-ESI-QFT; MS2; CE: 90%; R=17500; [M+H]+
Name: Isofenphos-Methyl
Name: propan-2-yl 2-[methoxy-(propan-2-ylamino)phosphinothioyl]oxybenzoate
Formula: C14H22NO4PS
Exact mass: 331.1007
SMILES: CC(C)NP(=S)(OC)OC1=CC=CC=C1C(=O)OC(C)C
InChI: InChI=1S/C14H22NO4PS/c1-10(2)15-20(21,17-5)19-13-9-7-6-8-12(13)14(16)18-11(3)4/h6-11H,1-5H3,(H,15,21)
Instrument: Exploris 240 Orbitrap Thermo Scientific
Instrument type: LC-ESI-QFT
Ms type: MS2
Ion mode: POSITIVE
Ionization: ESI
Fragmentation mode: HCD
Collision energy: 90 % (nominal)
Resolution: 17500
Column name: XBridge C18 3.5um, 2.1x50mm, Waters
Retention time: 10.780 min
Base peak: 230.9875
Precursor m/z: 332.108
Precursor type: [M+H]+
m/z	relative intensity	assigned
63.9947	71	H3NOP+
65.0386	282	CH8NP+
92.0259	29	C2H7NOP+
93.0335	73	C6H5O+
109.0106	107	C6H5S+
109.9823	94	CH5NOPS+
110.9664	15	CH4O2PS+
120.0208	12	C3H7NO2P+
121.0288	999	C3H8NO2P+
121.0398	195	H11NO4S+
135.9978	17	C7H4OS+
137.0053	73	C7H5OS+
138.9942	35	C6H4O2P+
154.9712	67	C6H4OPS+
157.0054	29	C6H6O3P+
