Mass spectrum: Dioxoaminopyrine; LC-ESI-ITFT; MS2; CE: 90%; R=7500; [M+H]+
Name: Dioxoaminopyrine
Name: AMDOPH
Name: 2-(N-[acetyl(methyl)amino]anilino)-2-keto-N,N-dimethyl-acetamide
Formula: C13H17N3O3
Exact mass: 263.1270
SMILES: c1ccccc1N(C(=O)C(=O)N(C)C)N(C)C(=O)C
InChI: InChI=1S/C13H17N3O3/c1-10(17)15(4)16(11-8-6-5-7-9-11)13(19)12(18)14(2)3/h5-9H,1-4H3
Instrument: LTQ Orbitrap XL Thermo Scientific
Instrument type: LC-ESI-ITFT
Ms type: MS2
Ion mode: POSITIVE
Ionization: ESI
Fragmentation mode: HCD
Collision energy: 90 % (nominal)
Resolution: 7500
Column name: XBridge C18 3.5um, 2.1x50mm, Waters
Retention time: 5.2 min
Base peak: 286.1173
Precursor m/z: 264.1343
Precursor type: [M+H]+
m/z	relative intensity	assigned
56.013	6	C2H2NO+
56.0495	24	C3H6N+
65.0386	87	C5H5+
72.0444	999	C3H6NO+
80.0492	5	C5H6N+
91.0421	5	C6H5N+
92.0495	87	C6H6N+
93.0332	11	C6H5O+
106.0653	10	C7H8N+
107.0728	7	C7H9N+
111.0443	6	C6H7O2+
119.0365	30	C7H5NO+
120.0442	8	C7H6NO+
121.0761	10	C7H9N2+
134.0474	72	C7H6N2O+
147.0554	8	C8H7N2O+
148.0634	24	C8H8N2O+
149.071	82	C8H9N2O+
163.0861	8	C9H11N2O+
