Mass spectrum: Cymiazole; LC-ESI-QFT; MS2; CE: 75%; R=17500; [M+H]+
Name: Cymiazole
Name: N-(2,4-dimethylphenyl)-3-methyl-1,3-thiazol-2-imine
Formula: C12H14N2S
Exact mass: 218.0878
SMILES: CC1=CC(=C(C=C1)N=C2N(C=CS2)C)C
InChI: InChI=1S/C12H14N2S/c1-9-4-5-11(10(2)8-9)13-12-14(3)6-7-15-12/h4-8H,1-3H3
Instrument: Exploris 240 Orbitrap Thermo Scientific
Instrument type: LC-ESI-QFT
Ms type: MS2
Ion mode: POSITIVE
Ionization: ESI
Fragmentation mode: HCD
Collision energy: 75 % (nominal)
Resolution: 17500
Column name: XBridge C18 3.5um, 2.1x50mm, Waters
Retention time: 4.141 min
Base peak: 219.095
Precursor m/z: 219.095
Precursor type: [M+H]+
m/z	relative intensity	assigned
56.0495	54	C3H6N+
58.9949	43	C2H3S+
61.0106	41	C2H5S+
72.9979	35	C2H3NS+
73.0105	23	C3H5S+
79.0541	42	C6H7+
88.0216	228	C3H6NS+
91.0543	37	C7H7+
93.07	30	C7H9+
100.0216	349	C4H6NS+
103.0545	31	C8H7+
105.0699	442	C8H9+
117.0576	45	C8H7N+
119.0853	17	C9H11+
120.0808	424	C8H10N+
130.065	94	C9H8N+
131.0729	256	C9H9N+
132.0805	67	C9H10N+
143.0729	236	C10H9N+
144.0808	509	C10H10N+
146.0966	18	C10H12N+
156.0685	41	C10H8N2+
163.0454	104	C9H9NS+
164.0527	53	C9H10NS+
171.0917	665	C11H11N2+
176.0525	29	C10H10NS+
177.061	133	C10H11NS+
186.1153	33	C12H14N2+
187.0455	88	C11H9NS+
188.053	103	C11H10NS+
189.0479	139	C10H9N2S+
203.0638	193	C11H11N2S+
204.0719	206	C11H12N2S+
219.0952	999	C12H15N2S+
