Mass spectrum: Cyanazine; LC-ESI-ITFT; MS2; CE: 90%; R=7500; [M+H]+
Name: Cyanazine
Name: 2-[[4-chloranyl-6-(ethylamino)-1,3,5-triazin-2-yl]amino]-2-methyl-propanenitrile
Formula: C9H13ClN6
Exact mass: 240.0890
SMILES: CCNC1=NC(=NC(=N1)Cl)NC(C)(C)C#N
InChI: InChI=1S/C9H13ClN6/c1-4-12-7-13-6(10)14-8(15-7)16-9(2,3)5-11/h4H2,1-3H3,(H2,12,13,14,15,16)
Instrument: LTQ Orbitrap XL Thermo Scientific
Instrument type: LC-ESI-ITFT
Ms type: MS2
Ion mode: POSITIVE
Ionization: ESI
Fragmentation mode: HCD
Collision energy: 90 % (nominal)
Resolution: 7500
Column name: XBridge C18 3.5um, 2.1x50mm, Waters
Retention time: 6.6 min
Base peak: 241.0971
Precursor m/z: 241.0963
Precursor type: [M+H]+
m/z	relative intensity	assigned
58.0652	33	C3H8N+
61.9792	108	CHClN+
67.0291	14	C3H3N2+
68.0244	955	C2H2N3+
71.0604	372	C3H7N2+
79.0058	199	CH4ClN2+
83.0604	274	C4H7N2+
90.0106	14	C3H5ClN+
96.0556	279	C4H6N3+
104.001	999	C2H3ClN3+
108.0557	23	C5H6N3+
110.0462	27	C3H4N5+
110.0713	50	C5H8N3+
119.0372	47	C4H8ClN2+
132.0323	172	C4H7ClN3+
136.0868	51	C7H10N3+
138.0775	27	C5H8N5+
144.0322	11	C5H7ClN3+
146.0227	84	C3H5ClN5+
174.0538	42	C5H9ClN5+
214.0857	55	C8H13ClN5+
