Mass spectrum: Lincomycin; LC-ESI-QFT; MS2; CE: 90; R=35000; [M-H]-
Name: Lincomycin
Name: N-[2-hydroxy-1-(3,4,5-trihydroxy-6-methylsulfanyloxan-2-yl)propyl]-1-methyl-4-propylpyrrolidine-2-carboxamide
Formula: C18H34N2O6S
Exact mass: 406.21376
SMILES: CCCC1CC(N(C1)C)C(=O)NC(C2C(C(C(C(O2)SC)O)O)O)C(C)O
InChI: InChI=1S/C18H34N2O6S/c1-5-6-10-7-11(20(3)8-10)17(25)19-12(9(2)21)16-14(23)13(22)15(24)18(26-16)27-4/h9-16,18,21-24H,5-8H2,1-4H3,(H,19,25)
Instrument: Q Exactive Plus Orbitrap Thermo Scientific
Instrument type: LC-ESI-QFT
Ms type: MS2
Ion mode: NEGATIVE
Ionization: ESI
Fragmentation mode: HCD
Collision energy: 90 (nominal)
Resolution: 35000
Column name: XBridge C18 3.5um, 2.1x50mm, Waters
Retention time: 3.7 min
Base peak: 451.2115
Precursor m/z: 405.2065
Precursor type: [M-H]-
m/z	relative intensity	assigned
50.0036	3	C3N-
51.0239	3	C4H3-
52.0192	3	C3H2N-
53.0033	9	C3HO-
55.0189	160	C3H3O-
57.0346	281	C3H5O-
58.0061	21	C2H2O2-
58.0298	36	C2H4NO-
59.0138	331	C2H3O2-
60.9754	17	CHOS-
63.024	2	C5H3-
63.9624	3	O2S-
64.0193	1	C4H2N-
65.0032	7	C4HO-
65.0397	37	C5H5-
65.9985	21	C3NO-
66.0349	54	C4H4N-
67.019	51	C4H3O-
68.0142	52	C3H2NO-
68.0505	4	C4H6N-
68.9982	186	C3HO2-
69.0346	540	C4H5O-
70.0299	111	C3H4NO-
71.0139	999	C3H3O2-
71.9677	3	C2OS-
72.9754	11	C2HOS-
72.9932	35	C2HO3-
73.0296	61	C3H5O2-
73.9833	61	C2H2OS-
75.0088	13	C2H3O3-
78.035	26	C5H4N-
79.019	26	C5H3O-
80.0506	94	C5H6N-
81.022	273	C4H3NO-
81.0346	310	C5H5O-
82.0298	122	C4H4NO-
82.9962	17	C4H3S-
83.0139	40	C4H3O2-
83.0503	100	C5H7O-
84.0091	20	C3H2NO2-
84.0216	66	C4H4O2-
84.0454	37	C4H6NO-
85.0295	498	C4H5O2-
85.0407	29	C3H5N2O-
86.0247	2	C3H4NO2-
86.991	8	C3H3OS-
87.0087	137	C3H3O3-
88.9703	25	C2HO2S-
89.0033	16	C6HO-
90.0349	22	C6H4N-
92.0503	3	C6H6N-
93.0346	13	C6H5O-
94.0298	239	C5H4NO-
95.0138	43	C5H3O2-
95.0503	4	C6H7O-
96.0089	1	C4H2NO2-
96.0455	37	C5H6NO-
97.0294	200	C5H5O2-
98.0247	40	C4H4NO2-
98.0611	4	C5H8NO-
98.0973	2	C6H12N-
98.9909	10	C4H3OS-
99.0086	4	C4H3O3-
99.0452	18	C5H7O2-
99.9987	17	C4H4OS-
100.0406	2	C4H6NO2-
101.9781	59	C3H2O2S-
103.9937	3	C3H4O2S-
104.0144	2	C6H2NO-
105.022	146	C6H3NO-
106.0298	33	C6H4NO-
107.0139	2	C6H3O2-
107.0376	30	C6H5NO-
107.0502	2	C7H7O-
108.0217	224	C6H4O2-
108.0456	32	C6H6NO-
109.0169	132	C5H3NO2-
109.0294	37	C6H5O2-
109.0658	41	C7H9O-
110.007	3	C5H4NS-
110.0248	23	C5H4NO2-
110.0611	15	C6H8NO-
110.991	10	C5H3OS-
111.0086	2	C5H3O3-
111.0325	3	C5H5NO2-
111.0451	10	C6H7O2-
112.0405	3	C5H6NO2-
113.0245	2	C5H5O3-
114.9859	3	C4H3O2S-
118.03	7	C7H4NO-
119.0374	2	C7H5NO-
120.0456	9	C7H6NO-
122.0248	157	C6H4NO2-
123.009	3	C6H3O3-
123.0326	30	C6H5NO2-
123.0817	2	C8H11O-
124.0403	68	C6H6NO2-
125.0241	4	C6H5O3-
125.072	3	C6H9N2O-
125.097	10	C8H13O-
126.0561	8	C6H8NO2-
126.0926	21	C7H12NO-
126.9859	20	C5H3O2S-
133.0169	4	C7H3NO2-
134.0248	13	C7H4NO2-
135.0323	1	C7H5NO2-
136.0408	2	C7H6NO2-
137.0972	3	C9H13O-
138.0019	71	C6H4NOS-
138.0195	7	C6H4NO3-
139.0095	3	C6H5NOS-
139.1129	2	C9H15O-
139.9938	2	C6H4O2S-
145.0403	2	C8H5N2O-
147.0325	8	C8H5NO2-
149.0355	1	C7H5N2O2-
150.0196	2	C7H4NO3-
152.108	3	C9H14NO-
165.9965	8	C7H4NO2S-
166.1237	2	C10H16NO-
168.1394	12	C10H18NO-
169.1346	100	C9H17N2O-
170.1188	28	C9H16NO2-
182.1549	2	C11H20NO-
186.0554	2	C11H8NO2-
193.1349	19	C11H17N2O-
195.1502	24	C11H19N2O-
197.1293	8	C10H17N2O2-
209.1656	12	C12H21N2O-
221.1655	2	C13H21N2O-
223.1454	3	C12H19N2O2-
