Mass spectrum: Aspartame; LC-ESI-ITFT; MS2; CE: 35%; R=7500; [M+H]+
Name: Aspartame
Name: 3-amino-4-[(1-benzyl-2-keto-2-methoxy-ethyl)amino]-4-keto-butyric acid
Formula: C14H18N2O5
Exact mass: 294.1216
SMILES: COC(=O)C(CC1=CC=CC=C1)NC(=O)C(CC(=O)O)N
InChI: InChI=1S/C14H18N2O5/c1-21-14(20)11(7-9-5-3-2-4-6-9)16-13(19)10(15)8-12(17)18/h2-6,10-11H,7-8,15H2,1H3,(H,16,19)(H,17,18)/t10-,11-/m0/s1
Instrument: LTQ Orbitrap XL Thermo Scientific
Instrument type: LC-ESI-ITFT
Ms type: MS2
Ion mode: POSITIVE
Ionization: ESI
Fragmentation mode: CID
Collision energy: 35 % (nominal)
Resolution: 7500
Column name: XBridge C18 3.5um, 2.1x50mm, Waters
Retention time: 4.8 min
Base peak: 295.1297
Precursor m/z: 295.1288
Precursor type: [M+H]+
m/z	relative intensity	assigned
120.0804	13	C8H10N+
180.102	137	C10H14NO2+
200.0713	3	C12H10NO2+
203.0818	2	C11H11N2O2+
217.0968	13	C12H13N2O2+
235.1079	389	C12H15N2O3+
245.0921	273	C13H13N2O3+
260.0917	131	C14H14NO4+
263.1026	285	C13H15N2O4+
277.1186	999	C14H17N2O4+
278.1022	27	C14H16NO5+
