Mass spectrum: Tepraloxydim; LC-ESI-QFT; MS2; CE: 15; R=35000; [M+H]+
Name: Tepraloxydim
Name: E-Tepraloxydim
Formula: C17H24ClNO4
Exact mass: 341.13939
SMILES: CC/C(=N\OC\C=C\Cl)/C=1C(=O)CC(CC=1O)C2CCOCC2
InChI: InChI=1S/C17H24ClNO4/c1-2-14(19-23-7-3-6-18)17-15(20)10-13(11-16(17)21)12-4-8-22-9-5-12/h3,6,12-13,20H,2,4-5,7-11H2,1H3/b6-3+,19-14+
Instrument: Q Exactive Orbitrap Thermo Scientific
Instrument type: LC-ESI-QFT
Ms type: MS2
Ion mode: POSITIVE
Ionization: ESI
Fragmentation mode: HCD
Collision energy: 15 (nominal)
Resolution: 35000
Column name: XBridge C18 3.5um, 2.1x50mm, Waters
Retention time: 11.5 min
Base peak: 342.1471
Precursor m/z: 342.1467
Precursor type: [M+H]+
m/z	relative intensity	assigned
67.0542	1	C5H7+
74.9995	5	C3H4Cl+
83.0491	4	C5H7O+
85.0647	5	C5H9O+
93.0699	2	C7H9+
95.0491	2	C6H7O+
96.0442	4	C5H6NO+
98.0599	6	C5H8NO+
107.0856	2	C8H11+
109.0648	1	C7H9O+
110.06	4	C6H8NO+
117.0697	1	C9H9+
119.0855	2	C9H11+
121.0647	5	C8H9O+
123.044	1	C7H7O2+
123.0804	1	C8H11O+
126.055	2	C6H8NO2+
131.0855	1	C10H11+
135.0803	2	C9H11O+
137.0597	1	C8H9O2+
138.0549	1	C7H8NO2+
140.0706	2	C7H10NO2+
143.0854	1	C11H11+
145.1014	1	C11H13+
148.0758	2	C9H10NO+
149.0597	4	C9H9O2+
159.0804	2	C11H11O+
161.0598	2	C10H9O2+
161.0961	2	C11H13O+
163.1117	1	C11H15O+
164.0704	9	C9H10NO2+
166.0862	61	C9H12NO2+
173.096	2	C12H13O+
187.0753	2	C12H11O2+
187.1118	5	C13H15O+
188.1071	3	C12H14NO+
189.0911	4	C12H13O2+
190.1228	2	C12H16NO+
191.1069	2	C12H15O2+
194.1178	1	C11H16NO2+
202.1229	2	C13H16NO+
204.1386	6	C13H18NO+
206.1179	1	C12H16NO2+
208.1333	7	C12H18NO2+
210.1489	2	C12H20NO2+
214.1227	3	C14H16NO+
215.1067	9	C14H15O2+
222.1489	47	C13H20NO2+
224.1281	2	C12H18NO3+
224.1646	2	C13H22NO2+
232.1333	15	C14H18NO2+
233.1173	13	C14H17O3+
234.1488	1	C14H20NO2+
250.1438	947	C14H20NO3+
251.1516	169	C14H21NO3+
252.1593	156	C14H22NO3+
288.1596	5	C17H22NO3+
306.1703	7	C17H24NO4+
342.1467	999	C17H25ClNO4+
