Mass spectrum: Ethoxyquin; LC-ESI-QFT; MS2; CE: 75; R=35000; [M+H]+
Name: Ethoxyquin
Name: 6-ethoxy-2,2,4-trimethyl-1H-quinoline
Formula: C14H19NO
Exact mass: 217.14666
SMILES: CCOC1=CC2=C(C=C1)NC(C=C2C)(C)C
InChI: InChI=1S/C14H19NO/c1-5-16-11-6-7-13-12(8-11)10(2)9-14(3,4)15-13/h6-9,15H,5H2,1-4H3
Instrument: Q Exactive Plus Orbitrap Thermo Scientific
Instrument type: LC-ESI-QFT
Ms type: MS2
Ion mode: POSITIVE
Ionization: ESI
Fragmentation mode: HCD
Collision energy: 75 (nominal)
Resolution: 35000
Column name: XBridge C18 3.5um, 2.1x50mm, Waters
Retention time: 7.0 min
Base peak: 218.1537
Precursor m/z: 218.1539
Precursor type: [M+H]+
m/z	relative intensity	assigned
51.0228	1	C4H3+
53.0022	1	C3HO+
53.0386	10	C4H5+
54.0339	1	C3H4N+
55.0179	5	C3H3O+
55.0543	32	C4H7+
56.0495	2	C3H6N+
57.0699	36	C4H9+
59.0491	1	C3H7O+
65.0386	25	C5H5+
67.0542	7	C5H7+
68.0131	1	C3H2NO+
68.0494	1	C4H6N+
69.0336	1	C4H5O+
69.0699	4	C5H9+
70.0288	2	C3H4NO+
77.0385	5	C6H5+
79.0542	82	C6H7+
80.0495	8	C5H6N+
81.0336	1	C5H5O+
81.0573	5	C5H7N+
81.0699	22	C6H9+
82.0287	8	C4H4NO+
82.0652	1	C5H8N+
83.0492	8	C5H7O+
83.0856	5	C6H11+
89.0386	1	C7H5+
91.0543	40	C7H7+
92.0495	6	C6H6N+
93.0336	4	C6H5O+
93.0573	9	C6H7N+
93.0699	17	C7H9+
94.0412	1	C6H6O+
94.0652	20	C6H8N+
95.0492	15	C6H7O+
96.0444	5	C5H6NO+
96.0808	1	C6H10N+
97.1014	1	C7H13+
103.0543	41	C8H7+
104.0495	1	C7H6N+
105.0448	9	C6H5N2+
105.0575	13	C7H7N+
105.0699	34	C8H9+
106.0652	192	C7H8N+
107.0492	109	C7H7O+
107.0855	8	C8H11+
108.0444	25	C6H6NO+
108.0807	7	C7H10N+
109.0523	32	C6H7NO+
109.1012	2	C8H13+
110.0601	14	C6H8NO+
111.0441	20	C6H7O2+
115.0542	17	C9H7+
116.0495	16	C8H6N+
116.0624	6	C9H8+
117.0573	25	C8H7N+
117.0699	27	C9H9+
118.0652	64	C8H8N+
119.0492	4	C8H7O+
119.073	32	C8H9N+
119.0857	11	C9H11+
120.0444	13	C7H6NO+
120.0809	225	C8H10N+
121.0398	24	C6H5N2O+
121.0649	20	C8H9O+
121.1013	8	C9H13+
122.0601	166	C7H8NO+
128.0496	1	C9H6N+
128.0621	5	C10H8+
129.0699	24	C10H9+
130.0652	54	C9H8N+
130.0778	17	C10H10+
131.0492	23	C9H7O+
131.073	37	C9H9N+
131.0855	7	C10H11+
132.0809	54	C9H10N+
133.0523	308	C8H7NO+
134.0601	513	C8H8NO+
135.0679	14	C8H9NO+
135.0803	4	C9H11O+
136.0758	17	C8H10NO+
137.0836	11	C8H11NO+
138.0913	5	C8H12NO+
139.0755	4	C8H11O2+
141.0699	1	C11H9+
142.0781	1	C11H10+
143.0494	1	C10H7O+
143.073	18	C10H9N+
143.0855	5	C11H11+
144.0559	55	C8H6N3+
144.0809	55	C10H10N+
145.0523	4	C9H7NO+
145.0649	19	C10H9O+
145.089	12	C10H11N+
145.1012	54	C11H13+
146.0601	439	C9H8NO+
146.0965	165	C10H12N+
147.0679	313	C9H9NO+
148.0757	650	C9H10NO+
149.071	2	C8H9N2O+
149.0836	6	C9H11NO+
149.0964	1	C10H13O+
150.0914	20	C9H12NO+
153.07	2	C12H9+
155.0605	6	C10H7N2+
155.0856	12	C12H11+
156.0809	9	C11H10N+
157.0649	10	C11H9O+
157.0887	54	C11H11N+
158.0725	76	C11H10O+
158.0966	198	C11H12N+
159.0679	50	C10H9NO+
159.0808	4	C11H11O+
159.1043	7	C11H13N+
160.0758	797	C10H10NO+
161.0836	164	C10H11NO+
161.12	33	C11H15N+
162.0914	117	C10H12NO+
162.1278	28	C11H16N+
163.0994	5	C10H13NO+
164.1073	1	C10H14NO+
172.1122	41	C12H14N+
173.0839	11	C11H11NO+
173.0962	23	C12H13O+
173.12	20	C12H15N+
174.0915	999	C11H12NO+
175.0995	130	C11H13NO+
176.1071	48	C11H14NO+
177.1152	1	C11H15NO+
188.1071	543	C12H14NO+
189.1149	83	C12H15NO+
190.1227	160	C12H16NO+
202.1227	476	C13H16NO+
203.1307	16	C13H17NO+
216.1383	1	C14H18NO+
218.1541	45	C14H20NO+
