Mass spectrum: 1-(Methoxymethyl)-1H-benzotriazole; LC-ESI-QFT; MS2; CE: 150; R=35000; [M+H]+
Name: 1-(Methoxymethyl)-1H-benzotriazole
Name: 1-(methoxymethyl)benzotriazole
Formula: C8H9N3O
Exact mass: 163.07456
SMILES: n1nn(c2ccccc12)COC
InChI: InChI=1S/C8H9N3O/c1-12-6-11-8-5-3-2-4-7(8)9-10-11/h2-5H,6H2,1H3
Instrument: Q Exactive Plus Orbitrap Thermo Scientific
Instrument type: LC-ESI-QFT
Ms type: MS2
Ion mode: POSITIVE
Ionization: ESI
Fragmentation mode: HCD
Collision energy: 150 (nominal)
Resolution: 35000
Column name: XBridge C18 3.5um, 2.1x50mm, Waters
Retention time: 5.4 min
Base peak: 164.0818
Precursor m/z: 164.0818
Precursor type: [M+H]+
m/z	relative intensity	assigned
50.0152	229	C4H2+
51.023	999	C4H3+
52.0183	66	C3H2N+
52.0308	11	C4H4+
53.0386	99	C4H5+
54.0464	20	C4H6+
62.0151	6	C5H2+
63.023	189	C5H3+
64.0308	133	C5H4+
65.026	58	C4H3N+
65.0386	111	C5H5+
66.0464	13	C5H6+
75.0229	12	
76.0184	5	C5H2N+
77.0386	384	C6H5+
78.0339	62	C5H4N+
78.0465	97	C6H6+
79.0543	21	C6H7+
80.0494	5	C5H6N+
91.0418	193	C6H5N+
92.0495	25	C6H6N+
93.0336	6	C6H5O+
95.0492	336	C6H7O+
96.0447	6	C5H6NO+
105.0448	167	C6H5N2+
120.0445	31	C7H6NO+
