Mass spectrum: Ametryn; LC-ESI-QFT; MS2; CE: 15; R=35000; [M+H]+
Name: Ametryn
Name: 4-N-ethyl-6-methylsulfanyl-2-N-propan-2-yl-1,3,5-triazine-2,4-diamine
Formula: C9H17N5S
Exact mass: 227.12047
SMILES: S(c1nc(nc(n1)NC(C)C)NCC)C
InChI: InChI=1S/C9H17N5S/c1-5-10-7-12-8(11-6(2)3)14-9(13-7)15-4/h6H,5H2,1-4H3,(H2,10,11,12,13,14)
Instrument: Q Exactive Orbitrap Thermo Scientific
Instrument type: LC-ESI-QFT
Ms type: MS2
Ion mode: POSITIVE
Ionization: ESI
Fragmentation mode: HCD
Collision energy: 15 (nominal)
Resolution: 35000
Column name: XBridge C18 3.5um, 2.1x50mm, Waters
Retention time: 7.2 min
Base peak: 228.128
Precursor m/z: 228.1277
Precursor type: [M+H]+
m/z	relative intensity	assigned
68.0243	1	C2H2N3+
71.0603	1	C3H7N2+
91.0325	1	C2H7N2S+
96.0555	2	C4H6N3+
138.1026	1	C7H12N3+
186.0809	78	C6H12N5S+
213.1035	2	C8H15N5S+
228.1279	999	C9H18N5S+
