Mass spectrum: Olopatadine; LC-ESI-QFT; MS2; CE: 30; R=35000; [M+H]+
Name: Olopatadine
Name: 2-[(11Z)-11-[3-(dimethylazaniumyl)propylidene]-6H-benzo[c][1]benzoxepin-2-yl]acetate
Formula: C21H23NO3
Exact mass: 337.16779
SMILES: CN(C)CC/C=C\1/C2=CC=CC=C2COC3=C1C=C(C=C3)CC(=O)O
InChI: InChI=1S/C21H23NO3/c1-22(2)11-5-8-18-17-7-4-3-6-16(17)14-25-20-10-9-15(12-19(18)20)13-21(23)24/h3-4,6-10,12H,5,11,13-14H2,1-2H3,(H,23,24)/b18-8-
Instrument: Q Exactive Orbitrap Thermo Scientific
Instrument type: LC-ESI-QFT
Ms type: MS2
Ion mode: POSITIVE
Ionization: ESI
Fragmentation mode: HCD
Collision energy: 30 (nominal)
Resolution: 35000
Column name: XBridge C18 3.5um, 2.1x50mm, Waters
Retention time: 7.1 min
Base peak: 338.1752
Precursor m/z: 338.1751
Precursor type: [M+H]+
m/z	relative intensity	assigned
58.0652	68	C3H8N+
70.0651	2	C4H8N+
72.0807	1	C4H10N+
84.0807	53	C5H10N+
85.0885	3	C5H11N+
91.0542	16	C7H7+
115.0541	10	C9H7+
117.0698	33	C9H9+
123.044	2	C7H7O2+
129.0697	9	C10H9+
131.0491	1	C9H7O+
137.0596	11	C8H9O2+
141.0698	28	C11H9+
142.0777	1	C11H10+
143.0856	2	C11H11+
165.0546	173	C9H9O3+
173.1199	1	C12H15N+
177.0545	1	C10H9O3+
179.0854	1	C14H11+
186.1277	3	C13H16N+
189.0548	2	C11H9O3+
205.1012	2	C16H13+
207.0804	1	C15H11O+
208.097	2	C11H14NO3+
215.0701	1	C13H11O3+
219.0807	3	C16H11O+
219.1168	7	C17H15+
221.096	15	C16H13O+
229.1013	6	C18H13+
232.0882	5	C17H12O+
233.096	5	C17H13O+
234.1038	13	C17H14O+
247.1118	218	C18H15O+
249.0912	1	C17H13O2+
249.1273	5	C18H17O+
252.0778	2	C16H12O3+
253.0859	11	C16H13O3+
257.0962	1	C19H13O+
265.0861	2	C17H13O3+
265.1218	2	C18H17O2+
275.1071	2	C19H15O2+
293.1171	75	C19H17O3+
294.1852	1	C20H24NO+
338.1749	999	C21H24NO3+
