Mass spectrum: Cefadroxil; LC-ESI-QFT; MS2; CE: 150; R=35000; [M-H]-
Name: Cefadroxil
Name: 7-[[2-azaniumyl-2-(4-hydroxyphenyl)acetyl]amino]-3-methyl-8-oxo-5-thia-1-azabicyclo[4.2.0]oct-2-ene-2-carboxylate
Formula: C16H17N3O5S
Exact mass: 363.08889
SMILES: CC1=C(N2C(C(C2=O)NC(=O)C(C3=CC=C(C=C3)O)N)SC1)C(=O)O
InChI: InChI=1S/C16H17N3O5S/c1-7-6-25-15-11(14(22)19(15)12(7)16(23)24)18-13(21)10(17)8-2-4-9(20)5-3-8/h2-5,10-11,15,20H,6,17H2,1H3,(H,18,21)(H,23,24)
Instrument: Q Exactive Plus Orbitrap Thermo Scientific
Instrument type: LC-ESI-QFT
Ms type: MS2
Ion mode: NEGATIVE
Ionization: ESI
Fragmentation mode: HCD
Collision energy: 150 (nominal)
Resolution: 35000
Column name: XBridge C18 3.5um, 2.1x50mm, Waters
Retention time: 2.3 min
Base peak: 362.0818
Precursor m/z: 362.0816
Precursor type: [M-H]-
m/z	relative intensity	assigned
50.0037	127	C3N-
55.0189	9	C3H3O-
56.9805	239	C2HS-
57.9758	291	CNS-
58.9961	12	C2H3S-
60.9755	143	CHOS-
64.0067	12	C3N2-
64.0194	9	C4H2N-
65.0146	94	C3HN2-
65.0397	164	C5H5-
65.9986	49	C3NO-
67.0303	11	C3H3N2-
70.9837	201	C2HNS-
71.9915	14	C2H2NS-
72.9993	27	C2H3NS-
75.0241	26	C6H3-
81.9758	9	C3NS-
89.0398	27	C7H5-
90.035	164	C6H4N-
91.019	8	C6H3O-
91.0302	41	C5H3N2-
93.0347	999	C6H5O-
95.0503	35	C6H7O-
96.9992	8	C4H3NS-
107.0617	10	C6H7N2-
116.0269	41	C8H4O-
117.0348	96	C8H5O-
118.0301	816	C7H4NO-
119.0504	26	C8H7O-
120.0457	86	C7H6NO-
