Mass spectrum: Fluvastatin; LC-ESI-QFT; MS2; CE: 30; R=35000; [M-H]-
Name: Fluvastatin
Name: (3R,5S)-7-[3-(4-fluorophenyl)-1-isopropyl-2-indolyl]-3,5-dihydroxy-6-heptenoic acid
Formula: C24H26FNO4
Exact mass: 411.18459
SMILES: O=C(O)C[C@H](O)C[C@H](O)/C=C/c2c(c1ccccc1n2C(C)C)c3ccc(F)cc3
InChI: InChI=1S/C24H26FNO4/c1-15(2)26-21-6-4-3-5-20(21)24(16-7-9-17(25)10-8-16)22(26)12-11-18(27)13-19(28)14-23(29)30/h3-12,15,18-19,27-28H,13-14H2,1-2H3,(H,29,30)/b12-11+/t18-,19-/m1/s1
Instrument: Q Exactive Orbitrap Thermo Scientific
Instrument type: LC-ESI-QFT
Ms type: MS2
Ion mode: NEGATIVE
Ionization: ESI
Fragmentation mode: HCD
Collision energy: 30 (nominal)
Resolution: 35000
Column name: XBridge C18 3.5um, 2.1x50mm, Waters
Retention time: 13.5 min
Base peak: 410.1777
Precursor m/z: 410.1773
Precursor type: [M-H]-
m/z	relative intensity	assigned
57.0346	2	C3H5O-
59.0138	387	C2H3O2-
85.0295	342	C4H5O2-
87.0088	286	C3H3O3-
91.0552	1	C7H7-
95.0501	4	C6H7O-
99.0451	2	C5H7O2-
208.0573	1	C14H7FN-
210.0724	999	C14H9FN-
223.0805	1	C15H10FN-
224.0882	29	C15H11FN-
234.0723	6	C16H9FN-
236.0882	17	C16H11FN-
238.1036	7	C16H13FN-
248.0879	4	C17H11FN-
250.1036	5	C17H13FN-
252.1193	36	C17H15FN-
261.0959	1	C18H12FN-
262.1036	2	C18H13FN-
263.0753	10	C17H10FNO-
264.0831	123	C17H11FNO-
266.135	8	C18H17FN-
276.0827	4	C18H11FNO-
276.1192	2	C19H15FN-
278.1345	14	C19H17FN-
280.1142	38	C18H15FNO-
286.1237	14	C20H16NO-
289.0907	8	C19H12FNO-
290.0987	14	C19H13FNO-
290.1349	20	C20H17FN-
304.1506	6	C21H19FN-
305.1221	14	C20H16FNO-
306.13	242	C20H17FNO-
307.1376	13	C20H18FNO-
308.1452	1	C20H19FNO-
322.1611	41	C21H21FNO-
328.1706	22	
330.1663	31	C23H21FN-
332.1459	29	C22H19FNO-
348.1767	798	C23H23FNO-
350.1562	22	C22H21FNO2-
410.1773	1	C24H25FNO4-
