Mass spectrum: Acetamiprid; LC-ESI-ITFT; MS2; CE: 60%; R=15000; [M+H]+
Name: Acetamiprid
Name: (1E)-N-[(6-Chloro-3-pyridinyl)methyl]-N'-cyano-N-methylethanimidamide
Formula: C10H11ClN4
Exact mass: 222.0672
SMILES: CN(CC1=CN=C(Cl)C=C1)C(\C)=N\C#N
InChI: InChI=1S/C10H11ClN4/c1-8(14-7-12)15(2)6-9-3-4-10(11)13-5-9/h3-5H,6H2,1-2H3/b14-8+
Instrument: LTQ Orbitrap XL Thermo Scientific
Instrument type: LC-ESI-ITFT
Ms type: MS2
Ion mode: POSITIVE
Ionization: ESI
Fragmentation mode: HCD
Collision energy: 60 % (nominal)
Resolution: 15000
Column name: XBridge C18 3.5um, 2.1x50mm, Waters
Retention time: 5.3 min
Base peak: 223.0746
Precursor m/z: 223.0745
Precursor type: [M+H]+
m/z	relative intensity	assigned
56.0494	44	C3H6N+
63.0229	1	C5H3+
72.9837	1	C3H2Cl+
90.0338	24	C6H4N+
91.0416	2	C6H5N+
98.9996	11	C5H4Cl+
108.0443	1	C3H9ClN2+
126.0105	999	C6H5ClN+
144.021	12	C6H7ClNO+
146.0715	1	C8H8N3+
155.0368	1	C7H8ClN2+
181.0526	2	C9H10ClN2+
187.0976	2	C10H11N4+
223.0754	4	C10H12ClN4+
