Mass spectrum: Reserpine; LC-ESI-ITFT; MS2; CE: 45%; R=15000; [M+H]+
Name: Reserpine
Name: (1S,2R,3R,4aS,13bR,14aS)-2,11-dimethoxy-3-(3,4,5-trimethoxybenzoyl)oxy-1,2,3,4,4a,5,7,8,13,13b,14,14a-dodecahydroisoquinolino[3,2-a]$b-carboline-1-carboxylic acid methyl ester
Formula: C33H40N2O9
Exact mass: 608.2734
SMILES: CO[C@H]1[C@@H](C[C@@H]2CN3CCC4=C([C@H]3C[C@@H]2[C@@H]1C(=O)OC)NC5=C4C=CC(=C5)OC)OC(=O)C6=CC(=C(C(=C6)OC)OC)OC
InChI: InChI=1S/C33H40N2O9/c1-38-19-7-8-20-21-9-10-35-16-18-13-27(44-32(36)17-11-25(39-2)30(41-4)26(12-17)40-3)31(42-5)28(33(37)43-6)22(18)15-24(35)29(21)34-23(20)14-19/h7-8,11-12,14,18,22,24,27-28,31,34H,9-10,13,15-16H2,1-6H3/t18-,22+,24-,27-,28+,31+/m1/s1
Instrument: LTQ Orbitrap XL Thermo Scientific
Instrument type: LC-ESI-ITFT
Ms type: MS2
Ion mode: POSITIVE
Ionization: ESI
Fragmentation mode: HCD
Collision energy: 45 % (nominal)
Resolution: 15000
Column name: XBridge C18 3.5um, 2.1x50mm, Waters
Retention time: 8.3 min
Base peak: 609.2812
Precursor m/z: 609.2807
Precursor type: [M+H]+
m/z	relative intensity	assigned
71.0491	2	C4H7O+
75.0439	1	C3H7O2+
79.0542	2	C6H7+
80.0494	2	C5H6N+
91.0542	4	C7H7+
93.0576	1	C6H7N+
94.0652	7	C6H8N+
97.0647	2	C6H9O+
101.0597	2	C5H9O2+
106.065	4	C7H8N+
107.0487	1	C7H7O+
107.0725	1	C7H9N+
108.0572	1	C7H8O+
108.0807	2	C7H10N+
109.0648	6	C7H9O+
111.0441	12	C6H7O2+
113.0233	1	C5H5O3+
115.0542	3	C9H7+
117.0699	4	C9H9+
118.0652	2	C8H8N+
120.0807	5	C8H10N+
121.0648	3	C8H9O+
122.0364	2	C7H6O2+
123.0805	5	C8H11O+
124.0518	3	C7H8O2+
129.07	1	C10H9+
130.0649	3	C9H8N+
131.0491	1	C9H7O+
131.0728	3	C9H9N+
131.0856	4	C10H11+
132.0808	10	C9H10N+
135.044	1	C8H7O2+
135.0802	2	C9H11O+
136.0756	3	C8H10NO+
137.0599	2	C8H9O2+
137.096	2	C9H13O+
139.0753	16	C8H11O2+
142.0652	1	C10H8N+
143.0495	1	C10H7O+
143.0732	5	C10H9N+
144.0808	10	C10H10N+
145.065	2	C10H9O+
145.0886	2	C10H11N+
146.0602	1	C9H8NO+
146.0962	1	C10H12N+
147.0678	2	C9H9NO+
147.0803	8	C10H11O+
148.0756	22	C9H10NO+
149.0594	6	C9H9O2+
150.0914	1	C9H12NO+
152.0467	15	C8H8O3+
154.0621	1	C8H10O3+
156.0415	2	C7H8O4+
156.0802	1	C11H10N+
158.0598	2	C10H8NO+
159.0679	17	C10H9NO+
160.0756	35	C10H10NO+
161.0594	1	C10H9O2+
161.0836	11	C10H11NO+
162.0912	11	C10H12NO+
164.1071	4	C10H14NO+
166.0863	2	C9H12NO2+
167.0702	10	C9H11O3+
172.0758	7	C11H10NO+
173.0836	4	C11H11NO+
174.0913	791	C11H12NO+
175.0752	8	C11H11O2+
175.0947	3	C6H13N3O3+
176.1068	9	C11H14NO+
178.0862	7	C10H12NO2+
179.0697	1	C10H11O3+
181.0856	4	C10H13O3+
185.0834	2	C12H11NO+
186.0912	19	C12H12NO+
187.0992	8	C12H13NO+
188.1069	32	C12H14NO+
189.1022	2	C11H13N2O+
190.0862	10	C11H12NO2+
192.1019	67	C11H14NO2+
195.0651	999	C10H11O4+
196.0681	4	C5H12N2O6+
197.0834	2	C13H11NO+
198.0911	6	C13H12NO+
199.0991	7	C13H13NO+
200.1069	37	C13H14NO+
201.102	6	C12H13N2O+
204.1018	29	C12H14NO2+
206.1174	2	C12H16NO2+
207.1014	2	C12H15O3+
210.0915	4	C14H12NO+
211.0988	4	C14H13NO+
212.107	8	C14H14NO+
214.1101	10	C13H14N2O+
215.1178	12	C13H15N2O+
216.1019	1	C13H14NO2+
222.1124	5	C12H16NO3+
223.0981	1	C15H13NO+
224.107	10	C15H14NO+
224.128	32	C12H18NO3+
225.1147	1	C15H15NO+
226.1226	7	C15H16NO+
227.1177	10	C14H15N2O+
228.1259	5	C14H16N2O+
229.1336	3	C14H17N2O+
234.0916	1	C16H12NO+
235.0992	1	C16H13NO+
236.1073	5	C16H14NO+
236.1281	95	C13H18NO3+
237.1144	5	C16H15NO+
238.1227	14	C16H16NO+
239.1309	2	C16H17NO+
247.099	2	C17H13NO+
248.1071	5	C17H14NO+
249.1146	3	C17H15NO+
250.122	7	C17H16NO+
251.1181	6	C16H15N2O+
252.125	3	C16H16N2O+
252.1381	4	C17H18NO+
253.1336	10	C16H17N2O+
254.1389	2	C13H20NO4+
261.1149	3	C18H15NO+
262.1225	8	C18H16NO+
263.1307	2	C18H17NO+
264.1022	2	C17H14NO2+
264.1382	3	C18H18NO+
265.1335	10	C17H17N2O+
266.1408	5	C17H18N2O+
267.149	2	C17H19N2O+
274.1223	4	C19H16NO+
275.1296	3	C19H17NO+
276.1381	24	C19H18NO+
277.146	4	C19H19NO+
279.1483	2	C18H19N2O+
281.1652	2	C18H21N2O+
288.1382	13	C20H18NO+
289.1451	4	C20H19NO+
290.1171	6	C19H16NO2+
291.1491	3	C19H19N2O+
294.1482	1	C19H20NO2+
296.1282	2	C18H18NO3+
304.1328	13	C20H18NO2+
305.1644	6	C20H21N2O+
308.1282	2	C19H18NO3+
308.1649	2	C20H22NO2+
316.1328	4	C21H18NO2+
322.1436	7	C20H20NO3+
333.1592	9	C21H21N2O2+
334.1433	2	C21H20NO3+
336.1591	36	C21H22NO3+
337.1908	5	C21H25N2O2+
348.1587	10	C22H22NO3+
350.1619	3	C21H22N2O3+
354.171	1	C21H24NO4+
363.1674	1	C19H25NO6+
364.1723	1	C16H28O9+
365.1856	85	C22H25N2O3+
368.1491	4	C21H22NO5+
368.1853	8	C22H26NO4+
380.1856	2	C23H26NO4+
381.1796	2	C22H25N2O4+
382.1885	5	C22H26N2O4+
395.1957	4	C23H27N2O4+
396.1981	1	C15H30N3O9+
397.2122	72	C23H29N2O4+
402.1549	3	C21H24NO7+
413.2069	2	C23H29N2O5+
434.1788	2	C22H28NO8+
436.197	3	C22H30NO8+
448.1961	21	C23H30NO8+
609.2807	1	C33H41N2O9+
