Mass spectrum: MCLR; LC-ESI-QFT; MS2; CE: 75%; R=17500; [M+H]+
Name: MCLR
Name: Microcystin LR
Name: (5R,8S,11R,12S,15S,18S,19S,22R)-15-[3-(diaminomethylideneamino)propyl]-18-[(1E,3E,5S,6S)-6-methoxy-3,5-dimethyl-7-phenylhepta-1,3-dienyl]-1,5,12,19-tetramethyl-2-methylidene-8-(2-methylpropyl)-3,6,9,13,16,20,25-heptaoxo-1,4,7,10,14,17,21-heptazacyclopentacosane-11,22-dicarboxylic acid
Class: NA
Formula: C49H74N10O12
Exact mass: 994.5488
SMILES: CO[C@@H](Cc1ccccc1)[C@@H](C)/C=C(C)/C=C/[C@@H]2NC(=O)[C@H](CCCNC(N)=N)NC(=O)[C@@H](C)[C@@H](NC(=O)[C@H](CC(C)C)NC(=O)[C@@H](C)NC(=O)C(=C)N(C)C(=O)CC[C@@H](NC(=O)[C@H]2C)C(O)=O)C(O)=O
InChI: InChI=1S/C49H74N10O12/c1-26(2)23-37-46(66)58-40(48(69)70)30(6)42(62)55-35(17-14-22-52-49(50)51)45(65)54-34(19-18-27(3)24-28(4)38(71-10)25-33-15-12-11-13-16-33)29(5)41(61)56-36(47(67)68)20-21-39(60)59(9)32(8)44(64)53-31(7)43(63)57-37/h11-13,15-16,18-19,24,26,28-31,34-38,40H,8,14,17,20-23,25H2,1-7,9-10H3,(H,53,64)(H,54,65)(H,55,62)(H,56,61)(H,57,63)(H,58,66)(H,67,68)(H,69,70)(H4,50,51,52)/b19-18+,27-24+/t28-,29-,30-,31+,34-,35-,36+,37-,38-,40+/m0/s1
Instrument: Q Exactive Plus Orbitrap Thermo Scientific
Instrument type: LC-ESI-QFT
Ms type: MS2
Ion mode: POSITIVE
Ionization: ESI
Fragmentation mode: HCD
Collision energy: 75 % (nominal)
Resolution: 17500
Column name: XBridge C18 3.5um, 2.1x50mm, Waters
Retention time: 8.590 min
Base peak: 498.282
Precursor m/z: 995.556
Precursor type: [M+H]+
m/z	relative intensity	assigned
69.0335	18	C4H5O+
69.0698	7	C5H9+
70.0651	721	C4H8N+
71.0492	12	C4H7O+
72.0807	16	C4H10N+
77.0385	42	C6H5+
79.0542	130	C6H7+
80.0494	27	C5H6N+
81.07	9	C6H9+
82.0288	30	C4H4NO+
82.0651	60	C5H8N+
84.0444	163	C4H6NO+
85.0283	13	C4H5O2+
85.076	16	C4H9N2+
86.0601	16	C4H8NO+
86.0964	107	C5H12N+
91.0542	387	C7H7+
92.0621	6	C7H8+
93.0699	115	C7H9+
94.0651	21	C6H8N+
95.0491	280	C6H7O+
95.0597	44	C5H7N2+
95.0857	9	
96.0444	15	C5H6NO+
97.076	66	C5H9N2+
98.06	86	C5H8NO+
99.0187	34	C3H3N2O2+
99.0916	59	C5H11N2+
102.0462	20	C8H6+
103.0542	999	C8H7+
105.0448	94	C6H5N2+
105.0699	398	C8H9+
107.0855	311	C8H11+
108.0806	7	C7H10N+
109.0648	29	C7H9O+
110.06	20	C6H8NO+
112.0394	8	C5H6NO2+
112.0869	90	C5H10N3+
113.0232	26	C5H5O3+
113.0706	24	C5H9N2O+
114.1025	16	C5H12N3+
115.0542	135	C9H7+
115.0866	45	C5H11N2O+
116.062	13	C9H8+
117.0698	106	C9H9+
119.0603	21	C7H7N2+
119.0854	26	C9H11+
120.0569	21	C8H8O+
120.0805	24	C8H10N+
121.0759	35	C7H9N2+
122.0961	4	C8H12N+
123.0917	10	C7H11N2+
125.0706	7	C6H9N2O+
127.0865	317	C6H11N2O+
128.0619	15	C10H8+
129.0697	15	C10H9+
130.05	12	C5H8NO3+
130.0972	8	C5H12N3O+
131.0851	19	C10H11+
135.0803	127	C9H11O+
135.1168	39	C10H15+
138.055	15	C7H8NO2+
140.0819	20	C6H10N3O+
141.0656	44	C6H9N2O2+
145.1013	6	C11H13+
146.0963	6	C10H12N+
149.0709	36	C8H9N2O+
153.1027	7	C8H13N2O+
155.0818	15	C7H11N2O2+
167.0816	70	C8H11N2O2+
195.0767	22	C9H11N2O3+
213.0874	17	C9H13N2O4+
