Mass spectrum: Prednisone; LC-ESI-QFT; MS2; CE: 75; R=35000; [M+H]+
Name: Prednisone
Name: (8S,9S,10R,13S,14S,17R)-17-hydroxy-17-(2-hydroxyacetyl)-10,13-dimethyl-6,7,8,9,12,14,15,16-octahydrocyclopenta[a]phenanthrene-3,11-dione
Formula: C21H26O5
Exact mass: 358.17802
SMILES: O=C(CO)[C@@]3(O)CC[C@H]2[C@@H]4CC\C1=C\C(=O)\C=C/[C@]1(C)[C@H]4C(=O)C[C@@]23C
InChI: InChI=1S/C21H26O5/c1-19-7-5-13(23)9-12(19)3-4-14-15-6-8-21(26,17(25)11-22)20(15,2)10-16(24)18(14)19/h5,7,9,14-15,18,22,26H,3-4,6,8,10-11H2,1-2H3/t14-,15-,18+,19-,20-,21-/m0/s1
Instrument: Q Exactive Orbitrap Thermo Scientific
Instrument type: LC-ESI-QFT
Ms type: MS2
Ion mode: POSITIVE
Ionization: ESI
Fragmentation mode: HCD
Collision energy: 75 (nominal)
Resolution: 35000
Column name: XBridge C18 3.5um, 2.1x50mm, Waters
Retention time: 7.5 min
Base peak: 359.1857
Precursor m/z: 359.1853
Precursor type: [M+H]+
m/z	relative intensity	assigned
53.0387	12	C4H5+
55.0543	4	C4H7+
65.0387	65	C5H5+
67.0543	248	C5H7+
69.0335	90	C4H5O+
69.0699	25	C5H9+
71.0492	35	C4H7O+
77.0385	12	C6H5+
79.0543	493	C6H7+
81.0335	34	C5H5O+
81.07	293	C6H9+
83.0493	42	C5H7O+
91.0543	999	C7H7+
92.062	7	C7H8+
93.0699	325	C7H9+
95.0492	481	C6H7O+
95.0856	248	C7H11+
97.0649	40	C6H9O+
99.0441	12	C5H7O2+
103.0544	111	C8H7+
104.0622	22	C8H8+
105.0449	57	C6H5N2+
105.07	442	C8H9+
107.0492	133	C7H7O+
107.0857	155	C8H11+
109.0649	153	C7H9O+
109.101	8	C8H13+
111.0442	25	C6H7O2+
111.0805	33	C7H11O+
115.0543	263	C9H7+
116.0621	61	C9H8+
117.07	244	C9H9+
119.0857	476	C9H11+
121.0649	643	C8H9O+
123.0805	33	C8H11O+
128.0622	296	C10H8+
129.0701	221	C10H9+
130.0778	78	C10H10+
131.0493	99	C9H7O+
131.0856	233	C10H11+
132.0571	263	C9H8O+
133.0647	38	C9H9O+
133.1013	57	C10H13+
134.0733	5	C9H10O+
135.0805	139	C9H11O+
137.0596	13	C8H9O2+
141.0698	342	C11H9+
142.0779	82	C11H10+
143.0857	110	C11H11+
144.0572	235	C10H8O+
145.065	512	C10H9O+
145.1016	53	C11H13+
146.0728	271	C10H10O+
147.0806	975	C10H11O+
152.062	81	C12H8+
153.0701	145	C12H9+
154.0779	83	C12H10+
155.0604	12	C10H7N2+
155.0856	123	C12H11+
156.0938	5	C12H12+
157.0648	116	C11H9O+
157.1012	23	C12H13+
158.0728	452	C11H10O+
159.0806	494	C11H11O+
160.0883	37	C11H12O+
161.0962	101	C11H13O+
163.0753	31	C10H11O2+
165.07	204	C13H9+
166.0778	99	C13H10+
167.0856	120	C13H11+
168.057	58	C12H8O+
168.0934	19	C13H12+
169.0648	227	C12H9O+
169.076	19	C11H9N2+
169.1013	55	C13H13+
170.0727	110	C12H10O+
171.0805	971	C12H11O+
172.0883	74	C12H12O+
173.0961	215	C12H13O+
177.07	12	C14H9+
178.0777	159	C14H10+
179.0856	369	C14H11+
180.0933	56	C14H12+
181.0649	281	C13H9O+
181.1014	50	C14H13+
182.0728	202	C13H10O+
183.0805	200	C13H11O+
184.0884	80	C13H12O+
185.0962	113	C13H13O+
186.1038	24	C13H14O+
187.0754	11	C12H11O2+
187.1119	32	C13H15O+
189.0697	64	C15H9+
189.091	8	C12H13O2+
190.0776	100	C15H10+
191.0857	131	C15H11+
192.0933	88	C15H12+
193.1011	141	C15H13+
194.0726	173	C14H10O+
194.109	55	C15H14+
195.0804	364	C14H11O+
196.0882	204	C14H12O+
197.096	207	C14H13O+
198.1039	37	C14H14O+
199.1117	38	C14H15O+
202.0777	84	C16H10+
203.0853	103	C16H11+
204.0935	71	C16H12+
205.0647	48	C15H9O+
205.1013	95	C16H13+
206.0727	68	C15H10O+
206.1093	11	C16H14+
207.0806	325	C15H11O+
207.1171	37	C16H15+
208.0885	319	C15H12O+
209.0963	281	C15H13O+
210.1041	107	C15H14O+
211.0761	10	C14H11O2+
211.1119	68	C15H15O+
212.1198	43	C15H16O+
215.0858	89	C17H11+
216.0939	54	C17H12+
217.1015	63	C17H13+
218.073	60	C16H10O+
218.1094	12	C17H14+
219.0806	151	C16H11O+
219.1171	36	C17H15+
220.0883	91	C16H12O+
221.0962	334	C16H13O+
222.1039	361	C16H14O+
223.1119	134	C16H15O+
224.0838	27	C15H12O2+
224.1195	44	C16H16O+
225.0911	21	C15H13O2+
225.1277	25	C16H17O+
227.0855	22	C18H11+
227.1424	8	C16H19O+
228.0934	29	C18H12+
229.1013	88	C18H13+
230.1091	32	C18H14+
231.0806	94	C17H11O+
231.1172	43	C18H15+
232.0885	96	C17H12O+
232.1248	10	C18H16+
233.0962	173	C17H13O+
234.104	140	C17H14O+
235.1118	131	C17H15O+
236.1197	40	C17H16O+
237.1276	57	C17H17O+
238.0987	25	C16H14O2+
238.1348	22	C17H18O+
239.1067	11	C16H15O2+
239.1431	8	C17H19O+
242.1092	9	C19H14+
243.1168	8	C19H15+
244.0884	24	C18H12O+
245.0961	105	C18H13O+
246.1039	48	C18H14O+
247.1119	103	C18H15O+
248.1194	80	C18H16O+
249.1274	112	C18H17O+
257.0963	27	C19H13O+
258.1046	12	C19H14O+
259.1115	29	C19H15O+
260.1202	9	C19H16O+
261.091	7	C18H13O2+
261.1271	24	C19H17O+
263.143	29	C19H19O+
265.1585	9	C19H21O+
272.1193	12	C20H16O+
