Mass spectrum: Topiramate; LC-ESI-QFT; MS2; CE: 90; R=35000; [M+H]+
Name: Topiramate
Name: Topamax
Name: (2,2,7,7-tetramethyl-5,5a,8a,8b-tetrahydrodi[1,3]dioxolo[4,5-a:5`,3`-d]pyran-3a-yl)methyl sulfamate
Formula: C12H21NO8S
Exact mass: 339.09879
SMILES: CC1(OC2COC3(C(C2O1)OC(O3)(C)C)COS(=O)(=O)N)C
InChI: InChI=1S/C12H21NO8S/c1-10(2)18-7-5-16-12(6-17-22(13,14)15)9(8(7)19-10)20-11(3,4)21-12/h7-9H,5-6H2,1-4H3,(H2,13,14,15)
Instrument: Q Exactive Plus Orbitrap Thermo Scientific
Instrument type: LC-ESI-QFT
Ms type: MS2
Ion mode: POSITIVE
Ionization: ESI
Fragmentation mode: HCD
Collision energy: 90 (nominal)
Resolution: 35000
Column name: XBridge C18 3.5um, 2.1x50mm, Waters
Retention time: 6.1 min
Base peak: 357.132
Precursor m/z: 340.1061
Precursor type: [M+H]+
m/z	relative intensity	assigned
51.023	12	C4H3+
53.0022	22	C3HO+
53.0386	199	C4H5+
53.9975	4	C2NO+
54.0339	17	C3H4N+
55.0179	195	C3H3O+
55.0543	15	C4H7+
56.0495	70	C3H6N+
57.0335	156	C3H5O+
58.0289	1	C2H4NO+
58.0652	3	C3H8N+
59.0492	999	C3H7O+
60.0444	11	C2H6NO+
61.0285	38	C2H5O2+
65.0386	18	C5H5+
67.0543	43	C5H7+
67.9893	7	C3O2+
68.0495	28	C4H6N+
69.0335	236	C4H5O+
70.0287	9	C3H4NO+
70.0651	15	C4H8N+
71.0128	57	C3H3O2+
71.0492	22	C4H7O+
72.0444	8	C3H6NO+
73.0284	55	C3H5O2+
77.0386	9	C6H5+
79.0543	33	C6H7+
79.9801	246	H2NO2S+
80.0495	29	C5H6N+
81.0336	363	C5H5O+
82.0289	4	C4H4NO+
82.0652	14	C5H8N+
83.0128	12	C4H3O2+
83.0491	9	C5H7O+
84.0445	16	C4H6NO+
85.0285	89	C4H5O2+
87.0441	11	C4H7O2+
91.0543	12	C7H7+
93.07	7	C7H9+
94.0652	12	C6H8N+
95.0492	157	C6H7O+
96.0444	20	C5H6NO+
96.057	7	C6H8O+
96.0809	2	C6H10N+
97.0285	61	C5H5O2+
98.0238	3	C4H4NO2+
98.0363	2	C5H6O2+
98.0601	7	C5H8NO+
99.0077	9	C4H3O3+
99.0441	21	C5H7O2+
101.0233	3	C4H5O3+
105.0447	16	C6H5N2+
108.0445	3	C6H6NO+
108.0573	2	C7H8O+
109.0284	17	C6H5O2+
109.0648	2	C7H9O+
112.0757	2	C6H10NO+
114.0552	3	C5H8NO2+
123.0442	7	C7H7O2+
124.0521	3	C7H8O2+
124.0758	2	C7H10NO+
125.0597	2	C7H9O2+
127.0391	7	C6H7O3+
149.0601	2	C9H9O2+
