Mass spectrum: Ofloxacin; LC-ESI-QFT; MS2; CE: 60; R=35000; [M+H]+
Name: Ofloxacin
Name: DL-8280
Formula: C18H20FN3O4
Exact mass: 361.14378
SMILES: Fc4cc1c2N(/C=C(\C1=O)C(=O)O)C(COc2c4N3CCN(C)CC3)C
InChI: InChI=1S/C18H20FN3O4/c1-10-9-26-17-14-11(16(23)12(18(24)25)8-22(10)14)7-13(19)15(17)21-5-3-20(2)4-6-21/h7-8,10H,3-6,9H2,1-2H3,(H,24,25)
Instrument: Q Exactive Orbitrap Thermo Scientific
Instrument type: LC-ESI-QFT
Ms type: MS2
Ion mode: POSITIVE
Ionization: ESI
Fragmentation mode: HCD
Collision energy: 60 (nominal)
Resolution: 35000
Column name: XBridge C18 3.5um, 2.1x50mm, Waters
Retention time: 4.1 min
Base peak: 362.151
Precursor m/z: 362.1511
Precursor type: [M+H]+
m/z	relative intensity	assigned
56.0496	3	C3H6N+
58.0652	96	C3H8N+
67.0542	1	C5H7+
69.0698	1	C5H9+
70.0651	77	C4H8N+
72.0807	36	C4H10N+
82.0652	8	C5H8N+
84.0807	16	C5H10N+
85.0886	8	C5H11N+
97.0759	1	C5H9N2+
99.0917	1	C5H11N2+
122.0399	3	C7H5FN+
150.0349	4	C8H5FNO+
164.0507	1	C9H7FNO+
165.0458	2	C8H6FN2O+
171.0551	6	C10H7N2O+
173.071	1	C10H9N2O+
175.0668	1	C10H8FN2+
176.034	1	C9H6NO3+
176.0507	1	C10H7FNO+
178.0299	16	C9H5FNO2+
179.0377	26	C9H6FNO2+
180.0454	10	C9H7FNO2+
185.0713	1	C11H9N2O+
188.051	7	C11H7FNO+
190.0666	2	C11H9FNO+
191.0374	1	C10H6FNO2+
191.0616	4	C10H8FN2O+
192.0454	13	C10H7FNO2+
193.0407	28	C9H6FN2O2+
194.0249	21	C9H5FNO3+
194.0487	8	C9H7FN2O2+
194.0609	9	C10H9FNO2+
195.0563	5	C9H8FN2O2+
199.05	21	C11H7N2O2+
200.058	7	C11H8N2O2+
201.0578	1	C15H7N+
201.066	6	C11H9N2O2+
202.0664	13	C12H9FNO+
203.0374	3	C11H6FNO2+
203.0617	8	C11H8FN2O+
204.0454	10	C11H7FNO2+
204.0693	1	C11H9FN2O+
205.0408	66	C10H6FN2O2+
205.0771	56	C11H10FN2O+
206.0487	1	C10H7FN2O2+
206.0612	3	C11H9FNO2+
207.0563	1	C10H8FN2O2+
213.066	1	C12H9N2O2+
215.0617	3	C12H8FN2O+
216.046	1	C12H7FNO2+
217.0407	7	C11H6FN2O2+
217.0774	1	C12H10FN2O+
218.0607	7	C12H9FNO2+
219.0565	128	C11H8FN2O2+
219.0683	9	C15H9NO+
220.0643	20	C11H9FN2O2+
220.0767	6	C12H11FNO2+
221.072	185	C11H10FN2O2+
231.0561	3	C12H8FN2O2+
231.0929	5	C13H12FN2O+
232.0642	3	C12H9FN2O2+
232.0768	5	C13H11FNO2+
233.0721	35	C12H10FN2O2+
233.0846	10	C16H11NO+
233.1081	2	C13H14FN2O+
234.0797	7	C12H11FN2O2+
234.0926	3	C13H13FNO2+
235.0876	2	C12H12FN2O2+
239.1044	1	C14H13N3O+
241.097	24	C14H13N2O2+
243.0929	3	C14H12FN2O+
244.0767	9	C14H11FNO2+
245.0719	20	C13H10FN2O2+
246.0806	6	C13H11FN2O2+
247.0878	52	C13H12FN2O2+
253.0971	2	C15H13N2O2+
253.1207	8	C15H15N3O+
254.0921	4	C14H12N3O2+
255.1001	10	C14H13N3O2+
255.1131	3	C15H15N2O2+
259.0883	2	C14H12FN2O2+
261.1033	999	C14H14FN2O2+
268.071	1	C14H10N3O3+
268.1084	8	C15H14N3O2+
268.1446	5	C16H18N3O+
269.1153	1	C15H15N3O2+
270.1237	9	C15H16N3O2+
273.0899	1	C17H11N3O+
273.1033	23	C15H14FN2O2+
275.1187	7	C15H16FN2O2+
285.0876	1	C15H13N2O4+
286.0622	3	C14H9FN3O3+
286.0817	4	C14H12N3O4+
286.1186	10	C15H16N3O3+
288.1141	2	C15H15FN3O2+
296.103	3	C16H14N3O3+
296.1398	5	C17H18N3O2+
298.1544	5	C17H20N3O2+
301.0856	16	C15H12FN3O3+
301.122	26	C16H16FN3O2+
305.0921	1	C15H14FN2O4+
314.1134	4	C16H16N3O4+
314.1498	5	C17H20N3O3+
316.1086	9	C16H15FN3O3+
316.1454	20	C17H19FN3O2+
318.1611	44	C17H21FN3O2+
324.1352	1	C15H19FN3O4+
342.1446	4	C18H20N3O4+
344.14	3	C18H19FN3O3+
362.1509	54	C18H21FN3O4+
