Mass spectrum: Fenamiphos; LC-ESI-QFT; MS2; CE: 90%; R=17500; [M+H]+
Name: Fenamiphos
Name: N-[ethoxy-(3-methyl-4-methylsulfanylphenoxy)phosphoryl]propan-2-amine
Formula: C13H22NO3PS
Exact mass: 303.1058
SMILES: CCOP(=O)(NC(C)C)OC1=CC(=C(C=C1)SC)C
InChI: InChI=1S/C13H22NO3PS/c1-6-16-18(15,14-10(2)3)17-12-7-8-13(19-5)11(4)9-12/h7-10H,6H2,1-5H3,(H,14,15)
Instrument: Exploris 240 Orbitrap Thermo Scientific
Instrument type: LC-ESI-QFT
Ms type: MS2
Ion mode: POSITIVE
Ionization: ESI
Fragmentation mode: HCD
Collision energy: 90 % (nominal)
Resolution: 17500
Column name: XBridge C18 3.5um, 2.1x50mm, Waters
Retention time: 10.489 min
Base peak: 304.1128
Precursor m/z: 304.1131
Precursor type: [M+H]+
m/z	relative intensity	assigned
53.0385	17	C4H5+
58.995	54	C2H3S+
60.0806	9	C3H10N+
77.0383	42	C6H5+
78.0464	38	C6H6+
79.0541	83	C6H7+
79.9897	18	C4O2+
91.0541	132	C7H7+
93.0695	41	C7H9+
95.0493	11	C6H7O+
97.0106	162	C5H5S+
103.0542	44	C8H7+
104.0618	52	C8H8+
107.049	150	C7H7O+
108.0568	115	C7H8O+
109.0108	17	C6H5S+
110.0184	73	C6H6S+
111.0266	32	C6H7S+
122.0185	149	C7H6S+
125.0419	22	C7H9S+
135.0259	30	C8H7S+
137.0056	10	C7H5OS+
137.042	22	C8H9S+
138.0133	147	C7H6OS+
139.0211	39	C7H7OS+
153.0366	84	C8H9OS+
168.9872	67	C7H6OPS+
169.0049	100	C7H6O3P+
184.9821	48	C7H6O2PS+
198.9982	18	C8H8O2PS+
201.9847	999	C7H7O3PS+
202.9925	31	C7H8O3PS+
214.9928	21	C8H8O3PS+
217.0086	62	C8H10O3PS+
