Mass spectrum: Aspirin; LC-ESI-QFT; MS2; CE: 180; R=35000; [M+H]+
Name: Aspirin
Name: Acetyl salicilic acid
Name: 2-acetyloxybenzoic acid
Formula: C9H8O4
Exact mass: 180.04226
SMILES: CC(=O)OC1=CC=CC=C1C(=O)O
InChI: InChI=1S/C9H8O4/c1-6(10)13-8-5-3-2-4-7(8)9(11)12/h2-5H,1H3,(H,11,12)
Instrument: Q Exactive Plus Orbitrap Thermo Scientific
Instrument type: LC-ESI-QFT
Ms type: MS2
Ion mode: POSITIVE
Ionization: ESI
Fragmentation mode: HCD
Collision energy: 180 (nominal)
Resolution: 35000
Column name: XBridge C18 3.5um, 2.1x50mm, Waters
Retention time: 20.3 min
Base peak: 391.2827
Precursor m/z: 181.0495
Precursor type: [M+H]+
m/z	relative intensity	assigned
50.0151	273	C4H2+
51.0229	453	C4H3+
53.0021	135	C3HO+
53.0385	29	C4H5+
54.01	4	C3H2O+
54.0463	42	C4H6+
55.0177	4	C3H3O+
61.0072	12	C5H+
62.015	68	C5H2+
63.0228	999	C5H3+
64.0306	336	C5H4+
65.0385	357	C5H5+
66.0099	5	C4H2O+
66.0462	2	C5H6+
67.0542	1	C5H7+
67.9891	17	C3O2+
68.997	1	C3HO2+
74.015	21	C6H2+
75.0228	19	C6H3+
76.0306	4	C6H4+
77.0384	127	C6H5+
79.0176	1	C5H3O+
81.0333	17	C5H5O+
82.0413	1	C5H6O+
92.0255	261	C6H4O+
92.0367	33	C5H4N2+
94.0412	2	C6H6O+
95.049	87	C6H7O+
98.036	1	C5H6O2+
105.0446	67	C6H5N2+
119.0122	1	C7H3O2+
