Mass spectrum: Flumioxazin; LC-ESI-QFT; MS2; CE: 45; R=35000; [M+H]+
Name: Flumioxazin
Name: 2-(7-fluoranyl-3-oxidanylidene-4-prop-2-ynyl-1,4-benzoxazin-6-yl)-4,5,6,7-tetrahydroisoindole-1,3-dione
Formula: C19H15FN2O4
Exact mass: 354.10159
SMILES: O=C3\C4=C(/C(=O)N3c2c(F)cc1OCC(=O)N(c1c2)CC#C)CCCC4
InChI: InChI=1S/C19H15FN2O4/c1-2-7-21-15-9-14(13(20)8-16(15)26-10-17(21)23)22-18(24)11-5-3-4-6-12(11)19(22)25/h1,8-9H,3-7,10H2
Instrument: Q Exactive Orbitrap Thermo Scientific
Instrument type: LC-ESI-QFT
Ms type: MS2
Ion mode: POSITIVE
Ionization: ESI
Fragmentation mode: HCD
Collision energy: 45 (nominal)
Resolution: 35000
Column name: XBridge C18 3.5um, 2.1x50mm, Waters
Retention time: 9.7 min
Base peak: 355.1088
Precursor m/z: 355.1089
Precursor type: [M+H]+
m/z	relative intensity	assigned
67.0417	2	C4H5N+
67.0542	8	C5H7+
68.0495	8	C4H6N+
69.0335	1	C4H5O+
77.0385	15	C6H5+
79.0542	148	C6H7+
80.0496	2	C5H6N+
80.062	7	C6H8+
81.0334	16	C5H5O+
81.0699	58	C6H9+
82.0287	2	C4H4NO+
91.0542	9	C7H7+
93.0698	2	C7H9+
95.049	22	C6H7O+
96.0445	2	C5H6NO+
97.0648	8	C6H9O+
105.0335	3	C7H5O+
105.0447	10	C6H5N2+
107.0491	343	C7H7O+
108.0569	8	C7H8O+
109.0649	13	C7H9O+
115.0543	1	C9H7+
121.0447	77	C8H6F+
124.0558	1	C7H7FN+
127.0551	2	C7H8FO+
128.0492	10	C9H6N+
129.0449	3	C8H5N2+
130.065	1	C9H8N+
132.0445	2	C8H6NO+
134.04	10	C8H5FN+
134.06	20	C8H8NO+
135.0439	77	C8H7O2+
135.0482	4	C8H6FN+
136.0318	1	C8H5FO+
138.0349	3	C7H5FNO+
140.0139	1	C6H3FNO2+
144.044	1	C9H6NO+
145.0758	2	C9H9N2+
146.0603	13	C9H8NO+
148.0556	232	C9H7FN+
149.0397	136	C9H6FO+
149.0636	12	C9H8FN+
150.0349	23	C8H5FNO+
151.0298	1	C7H4FN2O+
152.014	3	C7H3FNO2+
152.0505	2	C8H7FNO+
152.0705	3	C8H10NO2+
155.06	2	C10H7N2+
156.0444	11	C10H6NO+
161.0511	3	C9H6FN2+
162.0351	12	C9H5FNO+
162.0588	3	C9H7FN2+
163.03	2	C8H4FN2O+
163.0428	7	C9H6FNO+
163.0665	8	C9H8FN2+
164.0506	11	C9H7FNO+
164.0707	10	C9H10NO2+
165.046	9	C8H6FN2O+
166.0297	3	C8H5FNO2+
166.0661	15	C9H9FNO+
167.0735	1	C12H9N+
171.055	9	C10H7N2O+
172.0559	1	C11H7FN+
173.0508	2	C10H6FN2+
173.0708	2	C10H9N2O+
174.055	5	C10H8NO2+
175.0431	3	C10H6FNO+
175.0666	2	C10H8FN2+
176.0505	421	C10H7FNO+
177.0467	10	C9H6FN2O+
177.0583	66	C10H8FNO+
178.03	3	C9H5FNO2+
179.0251	6	C8H4FN2O2+
179.0614	4	C9H8FN2O+
180.0455	2	C9H7FNO2+
180.0806	2	C13H10N+
181.0757	2	C12H9N2+
182.0605	1	C12H8NO+
184.0754	3	C12H10NO+
188.0509	6	C11H7FNO+
189.0458	22	C10H6FN2O+
190.0537	102	C10H7FN2O+
191.0614	26	C10H8FN2O+
192.0689	3	C10H9FN2O+
193.0404	2	C9H6FN2O2+
193.0769	8	C10H10FN2O+
194.0609	2	C10H9FNO2+
194.0969	1	C14H12N+
195.0914	6	C13H11N2+
196.0758	1	C13H10NO+
198.0711	9	C13H9FN+
199.0498	2	C11H7N2O2+
201.0461	11	C11H6FN2O+
201.0662	2	C11H9N2O2+
202.1028	6	C13H13FN+
203.0615	23	C11H8FN2O+
204.0456	165	C11H7FNO2+
204.082	22	C12H11FNO+
205.0412	14	C10H6FN2O2+
205.0533	8	C11H8FNO2+
206.0965	2	C15H12N+
208.0999	1	C14H12N2+
209.0707	2	C13H9N2O+
209.1074	2	C14H13N2+
210.059	2	C13H7FN2+
210.0713	1	C14H9FN+
210.091	2	C14H12NO+
211.0672	1	C13H8FN2+
212.0865	13	C14H11FN+
213.0827	1	C13H10FN2+
214.0662	3	C13H9FNO+
215.0615	15	C12H8FN2O+
216.0455	2	C12H7FNO2+
216.0693	20	C12H9FN2O+
216.0817	8	C13H11FNO+
217.0408	2	C11H6FN2O2+
218.0482	1	C11H7FN2O2+
218.0837	1	C15H10N2+
218.0977	1	C13H13FNO+
219.0565	58	C11H8FN2O2+
219.0919	3	C15H11N2+
220.076	2	C15H10NO+
221.0718	3	C14H9N2O+
221.1078	2	C15H13N2+
222.0791	1	C14H10N2O+
223.0665	26	C14H8FN2+
223.0866	20	C14H11N2O+
223.1229	3	C15H15N2+
224.0713	3	C11H11FNO3+
224.1069	2	C15H14NO+
225.0828	1	C14H10FN2+
226.0534	7	C13H7FN2O+
226.0662	5	C14H9FNO+
226.1027	10	C15H13FN+
227.0612	3	C13H8FN2O+
228.0695	2	C13H9FN2O+
228.0815	2	C14H11FNO+
229.0767	20	C13H10FN2O+
229.1138	6	C14H14FN2+
230.0609	20	C13H9FNO2+
230.0973	8	C14H13FNO+
231.0569	12	C12H8FN2O2+
232.0402	39	C12H7FNO3+
232.0767	22	C16H10NO+
233.0711	2	C15H9N2O+
233.1075	6	C16H13N2+
234.0906	2	C16H12NO+
235.0871	3	C15H11N2O+
236.0729	7	C12H11FNO3+
236.0948	3	C15H12N2O+
237.0659	8	C14H9N2O2+
237.1024	22	C15H13N2O+
238.0867	8	C15H12NO2+
239.0616	23	C14H8FN2O+
239.0971	2	C15H12FN2+
240.0693	25	C14H9FN2O+
240.0821	8	C15H11FNO+
241.0772	24	C14H10FN2O+
241.0895	5	C15H12FNO+
242.0614	3	C14H9FNO2+
243.0566	15	C13H8FN2O2+
243.0925	12	C14H12FN2O+
244.0767	32	C14H11FNO2+
246.0561	1	C13H9FNO3+
246.0924	3	C14H13FNO2+
249.0657	5	C15H9N2O2+
249.0821	2	C16H10FN2+
249.1021	10	C16H13N2O+
250.0504	1	C15H8NO3+
250.0732	1	C15H10N2O2+
251.0615	3	C15H8FN2O+
251.0817	48	C15H11N2O2+
251.0974	32	C16H12FN2+
251.1176	19	C16H15N2O+
252.0684	10	C15H9FN2O+
252.1021	3	C16H14NO2+
253.0772	91	C15H10FN2O+
254.0836	5	C18H10N2+
254.0975	5	C16H13FNO+
255.0559	2	C14H8FN2O2+
255.0932	12	C15H12FN2O+
256.0642	2	C14H9FN2O2+
256.0769	2	C15H11FNO2+
257.0721	73	C14H10FN2O2+
257.1083	18	C15H14FN2O+
258.0563	19	C14H9FNO3+
258.0924	68	C15H13FNO2+
259.0513	125	C13H8FN2O3+
260.0718	115	C14H11FNO3+
261.1026	6	C17H13N2O+
264.0891	2	C16H12N2O2+
265.0614	3	C12H10FN2O4+
265.077	8	C16H10FN2O+
265.097	19	C16H13N2O2+
266.0851	32	C16H11FN2O+
267.0564	2	C15H8FN2O2+
267.0928	25	C16H12FN2O+
269.0719	37	C15H10FN2O2+
269.1089	8	C16H14FN2O+
270.0563	14	C15H9FNO3+
270.0919	11	C16H13FNO2+
271.0515	32	C14H8FN2O3+
271.0876	86	C15H12FN2O2+
271.1243	8	C16H16FN2O+
272.0714	23	C15H11FNO3+
273.0672	6	C14H10FN2O3+
274.0874	55	C15H13FNO3+
275.0826	3	C14H12FN2O3+
279.0766	161	C16H11N2O3+
279.0925	16	C17H12FN2O+
279.1123	46	C17H15N2O2+
280.0983	6	C14H15FNO4+
281.0724	30	C16H10FN2O2+
281.1083	47	C17H14FN2O+
282.092	3	C17H13FNO2+
283.1241	1	C17H16FN2O+
285.0669	143	C15H10FN2O3+
285.0798	84	C16H12FNO3+
285.1035	114	C16H14FN2O2+
286.0875	49	C16H13FNO3+
287.0825	261	C15H12FN2O3+
295.0872	8	C17H12FN2O2+
297.0678	14	C16H10FN2O3+
297.1031	42	C17H14FN2O2+
298.0877	42	C17H13FNO3+
299.0825	999	C16H12FN2O3+
300.0663	10	C16H11FNO4+
300.1037	3	C17H15FNO3+
301.0981	67	C19H13N2O2+
307.1076	89	C18H15N2O3+
309.1032	5	C18H14FN2O2+
313.0981	189	C17H14FN2O3+
316.0853	69	C16H13FN2O4+
325.0984	16	C18H14FN2O3+
327.0778	160	C17H12FN2O4+
327.1137	425	C18H16FN2O3+
328.0975	14	C18H15FNO4+
335.1015	2	C19H15N2O4+
353.0925	2	C19H14FN2O4+
355.1088	225	C19H16FN2O4+
