Mass spectrum: Oxazepam; LC-ESI-ITFT; MS2; CE: 75%; R=7500; [M+H]+
Name: Oxazepam
Name: 7-chloranyl-3-oxidanyl-5-phenyl-1,3-dihydro-1,4-benzodiazepin-2-one
Formula: C15H11ClN2O2
Exact mass: 286.0509
SMILES: C1=CC=C(C=C1)C2=NC(C(=O)NC3=C2C=C(C=C3)Cl)O
InChI: InChI=1S/C15H11ClN2O2/c16-10-6-7-12-11(8-10)13(9-4-2-1-3-5-9)18-15(20)14(19)17-12/h1-8,15,20H,(H,17,19)
Instrument: LTQ Orbitrap XL Thermo Scientific
Instrument type: LC-ESI-ITFT
Ms type: MS2
Ion mode: POSITIVE
Ionization: ESI
Fragmentation mode: HCD
Collision energy: 75 % (nominal)
Resolution: 7500
Column name: XBridge C18 3.5um, 2.1x50mm, Waters
Retention time: 9.0 min
Base peak: 287.059
Precursor m/z: 287.0582
Precursor type: [M+H]+
m/z	relative intensity	assigned
77.0385	15	C6H5+
79.0544	10	C6H7+
93.0573	138	C6H7N+
104.0495	765	C7H6N+
105.0448	5	C6H5N2+
118.0527	42	C7H6N2+
126.0103	23	C6H5ClN+
128.0262	157	C6H7ClN+
129.0444	5	C8H5N2+
138.0104	56	C7H5ClN+
139.0057	23	C6H4ClN2+
145.0509	11	C7H5N4+
153.0213	228	C7H6ClN2+
156.0218	5	C7H7ClNO+
163.0057	322	C8H4ClN2+
164.0007	23	C10N2O+
166.0052	29	C8H5ClNO+
178.0652	15	C13H8N+
179.073	8	C13H9N+
181.0168	7	C8H6ClN2O+
195.0918	46	C13H11N2+
205.0757	32	C14H9N2+
206.0835	13	C14H10N2+
207.0677	20	C14H9NO+
214.0417	36	C13H9ClN+
229.0523	71	C13H10ClN2+
231.0684	79	C13H12ClN2+
239.0373	8	C14H8ClN2+
241.0527	999	C14H10ClN2+
257.0476	58	C14H10ClN2O+
