Mass spectrum: Venlafaxine; LC-ESI-ITFT; MS2; CE: 35%; R=30000; [M+H]+
Name: Venlafaxine
Name: 1-[2-(dimethylamino)-1-(4-methoxyphenyl)ethyl]-1-cyclohexanol
Formula: C17H27NO2
Exact mass: 277.2042
SMILES: CN(C)CC(C1=CC=C(C=C1)OC)C2(CCCCC2)O
InChI: InChI=1S/C17H27NO2/c1-18(2)13-16(17(19)11-5-4-6-12-17)14-7-9-15(20-3)10-8-14/h7-10,16,19H,4-6,11-13H2,1-3H3
Instrument: LTQ Orbitrap XL Thermo Scientific
Instrument type: LC-ESI-ITFT
Ms type: MS2
Ion mode: POSITIVE
Ionization: ESI
Fragmentation mode: CID
Collision energy: 35 % (nominal)
Resolution: 30000
Column name: XBridge C18 3.5um, 2.1x50mm, Waters
Retention time: 6.2 min
Base peak: 278.2126
Precursor m/z: 278.2115
Precursor type: [M+H]+
m/z	relative intensity	assigned
121.0647	2	C8H9O+
215.1431	9	C15H19O+
260.2011	999	C17H26NO+
