Mass spectrum: Metolachlor OXA; LC-ESI-ITFT; MS2; CE: 75%; R=15000; [M+H]+
Name: Metolachlor OXA
Name: 2-(2-ethyl-N-(2-methoxy-1-methyl-ethyl)-6-methyl-anilino)-2-keto-acetic acid
Formula: C15H21NO4
Exact mass: 279.1471
SMILES: CC1=CC=CC(CC)=C1N(C(C)COC)C(C(O)=O)=O
InChI: InChI=1S/C15H21NO4/c1-5-12-8-6-7-10(2)13(12)16(11(3)9-20-4)14(17)15(18)19/h6-8,11H,5,9H2,1-4H3,(H,18,19)
Instrument: LTQ Orbitrap XL Thermo Scientific
Instrument type: LC-ESI-ITFT
Ms type: MS2
Ion mode: POSITIVE
Ionization: ESI
Fragmentation mode: HCD
Collision energy: 75 % (nominal)
Resolution: 15000
Column name: XBridge C18 3.5um, 2.1x50mm, Waters
Retention time: 9.3 min
Base peak: 280.1539
Precursor m/z: 280.1543
Precursor type: [M+H]+
m/z	relative intensity	assigned
73.0647	162	C4H9O+
77.0386	10	C6H5+
79.0541	19	C6H7+
91.0542	353	C7H7+
93.0698	88	C7H9+
103.0542	53	C8H7+
104.0621	36	C8H8+
105.0698	66	C8H9+
106.0651	69	C7H8N+
107.0729	19	C7H9N+
107.0854	17	C8H11+
108.0807	40	C7H10N+
109.0645	10	C7H9O+
115.0543	50	C9H7+
116.0624	12	C9H8+
117.0573	54	C8H7N+
117.0699	247	C9H9+
118.0651	208	C8H8N+
119.0729	166	C8H9N+
119.0855	260	C9H11+
120.0808	83	C8H10N+
128.0619	13	C10H8+
129.0699	64	C10H9+
130.0651	140	C9H8N+
130.0776	13	C10H10+
131.0729	999	C9H9N+
132.0807	410	C9H10N+
133.0885	335	C9H11N+
134.0599	59	C8H8NO+
134.0964	516	C9H12N+
135.0807	14	C9H11O+
135.1043	7	C9H13N+
136.0756	16	C8H10NO+
142.0651	38	C10H8N+
144.0807	586	C10H10N+
145.0885	170	C10H11N+
146.0964	812	C10H12N+
147.0675	9	C9H9NO+
147.0915	12	C9H11N2+
147.1041	27	C10H13N+
148.112	522	C10H14N+
158.0965	28	C11H12N+
159.104	41	C11H13N+
160.0755	29	C10H10NO+
160.1121	195	C11H14N+
161.1198	15	C11H15N+
162.0913	82	C10H12NO+
172.1123	5	C12H14N+
174.0913	17	C11H12NO+
174.1276	28	C12H16N+
176.1433	121	C12H18N+
184.1114	6	C13H14N+
187.0992	9	C12H13NO+
202.1225	24	C13H16NO+
220.1332	12	C13H18NO2+
248.1283	27	C14H18NO3+
