Mass spectrum: ortho-Chlorophenylpiperazine; LC-ESI-QFT; MS2; CE: 120; R=35000; [M+H]+
Name: ortho-Chlorophenylpiperazine
Name: 1-(2-Chlorophenyl)piperazine
Name: 1-(2-chlorophenyl)piperazine
Formula: C10H13ClN2
Exact mass: 196.07673
SMILES: c1ccc(c(c1)N2CCNCC2)Cl
InChI: InChI=1S/C10H13ClN2/c11-9-3-1-2-4-10(9)13-7-5-12-6-8-13/h1-4,12H,5-8H2
Instrument: Q Exactive Plus Orbitrap Thermo Scientific
Instrument type: LC-ESI-QFT
Ms type: MS2
Ion mode: POSITIVE
Ionization: ESI
Fragmentation mode: HCD
Collision energy: 120 (nominal)
Resolution: 35000
Column name: XBridge C18 3.5um, 2.1x50mm, Waters
Retention time: 4.9 min
Base peak: 197.0839
Precursor m/z: 197.084
Precursor type: [M+H]+
m/z	relative intensity	assigned
50.0151	12	C4H2+
51.0229	13	C4H3+
53.0022	1	C3HO+
53.0386	16	C4H5+
56.0495	11	C3H6N+
58.0651	5	C3H8N+
63.0228	5	C5H3+
65.0386	75	C5H5+
66.0464	2	C5H6+
68.0494	1	C4H6N+
70.0651	7	C4H8N+
72.9839	3	C3H2Cl+
74.015	1	C6H2+
75.0229	17	C6H3+
77.0385	59	C6H5+
78.0464	3	C6H6+
81.0335	3	C5H5O+
85.076	1	C4H9N2+
86.9996	2	C4H4Cl+
89.0386	11	C7H5+
90.0338	6	C6H4N+
90.0464	17	C7H6+
91.0542	344	C7H7+
92.0494	10	C6H6N+
92.062	52	C7H8+
93.0573	16	C6H7N+
95.0491	73	C6H7O+
98.9996	38	C5H4Cl+
100.0074	2	C5H5Cl+
102.0464	3	C8H6+
104.0494	41	C7H6N+
105.0447	37	C6H5N2+
105.0572	7	C7H7N+
106.0654	1	C7H8N+
110.9997	3	C6H4Cl+
112.0074	13	C6H5Cl+
113.0153	1	C6H6Cl+
116.0493	2	C8H6N+
117.0573	97	C8H7N+
118.065	999	C8H8N+
119.0729	97	C8H9N+
120.0807	14	C8H10N+
125.0154	2	C7H6Cl+
126.0105	7	C6H5ClN+
127.0183	51	C6H6ClN+
128.026	2	C6H7ClN+
129.0102	7	C6H6ClO+
130.065	3	C9H8N+
132.0684	1	C8H8N2+
138.0104	13	C7H5ClN+
139.0057	21	C6H4ClN2+
140.0261	29	C7H7ClN+
152.0262	2	C8H7ClN+
154.0417	18	C8H9ClN+
