Mass spectrum: Isoxaflutole; LC-ESI-QFT; MS2; CE: 60; R=35000; [M+H]+
Name: Isoxaflutole
Name: (5-cyclopropyl-1,2-oxazol-4-yl)-[2-methylsulfonyl-4-(trifluoromethyl)phenyl]methanone
Formula: C15H12F3NO4S
Exact mass: 359.04391
SMILES: O=C(c1c(onc1)C2CC2)c3ccc(cc3S(=O)(=O)C)C(F)(F)F
InChI: InChI=1S/C15H12F3NO4S/c1-24(21,22)12-6-9(15(16,17)18)4-5-10(12)13(20)11-7-19-23-14(11)8-2-3-8/h4-8H,2-3H2,1H3
Instrument: Q Exactive Plus Orbitrap Thermo Scientific
Instrument type: LC-ESI-QFT
Ms type: MS2
Ion mode: POSITIVE
Ionization: ESI
Fragmentation mode: HCD
Collision energy: 60 (nominal)
Resolution: 35000
Column name: XBridge C18 3.5um, 2.1x50mm, Waters
Retention time: 8.7 min
Base peak: 360.0506
Precursor m/z: 360.0512
Precursor type: [M+H]+
m/z	relative intensity	assigned
53.0022	1	C3HO+
62.9899	14	CH3OS+
69.0335	24	C4H5O+
78.9848	3	CH3O2S+
83.0292	1	C5H4F+
97.0106	1	C5H5S+
101.0198	10	C5H3F2+
108.0028	4	C6H4S+
109.0449	44	C7H6F+
110.0161	5	C6H3FO+
112.0319	1	C6H5FO+
115.0013	10	C5H4FS+
115.0354	1	C6H5F2+
120.0182	10	C5H3F3+
121.026	4	C5H4F3+
127.0355	16	C7H5F2+
129.0146	12	C6H3F2O+
132.0182	58	C6H3F3+
133.026	17	C6H4F3+
139.0013	1	C7H4FS+
139.0355	5	C8H5F2+
141.0147	27	C7H3F2O+
143.0304	1	C7H5F2O+
144.0179	3	C7H3F3+
144.9919	10	C8HO3+
145.026	4	C7H4F3+
146.0174	2	C6H4F2O2+
147.0075	5	C6H5F2S+
147.0353	3	C2H10FNO3S+
147.0417	1	C7H6F3+
148.013	2	C6H3F3O+
149.021	81	C6H4F3O+
156.992	38	C9HO3+
159.0418	70	C8H6F3+
160.0132	81	C7H3F3O+
161.021	42	C7H4F3O+
162.0287	3	C7H5F3O+
163.9903	12	C6H3F3S+
164.9982	86	C8H2FO3+
166.0237	17	C6H5F3O2+
167.0314	6	C6H6F3O2+
172.0131	44	C8H3F3O+
173.021	15	C8H4F3O+
174.0289	1	C8H5F3O+
175.0367	24	C8H6F3O+
175.9904	1	C9HFO3+
176.0082	1	C7H3F3O2+
176.9982	79	C9H2FO3+
177.0158	46	C7H4F3O2+
178.0238	14	C7H5F3O2+
179.0138	21	C7H6F3S+
188.008	12	C8H3F3O2+
189.0159	198	C8H4F3O2+
192.9932	107	C9H2FO4+
195.0086	2	C7H6F3OS+
195.9804	1	C6H3F3O2S+
203.0319	1	C9H6F3O2+
203.9853	3	C10HFO4+
204.9932	3	C10H2FO4+
206.0187	55	C8H5F3O3+
219.0087	1	C11H4FO4+
219.9803	351	C8H3F3O2S+
220.988	185	C8H4F3O2S+
250.9985	999	C9H6F3O3S+
283.0249	7	C10H10F3O4S+
