Mass spectrum: Ethofumesate; LC-ESI-ITFT; MS2; CE: 60%; R=7500; [M+H]+
Name: Ethofumesate
Name: (2-ethoxy-3,3-dimethyl-2H-1-benzofuran-5-yl) methanesulfonate
Formula: C13H18O5S
Exact mass: 286.0869
SMILES: S(=O)(=O)(C)O-c(ccc1O2)cc1C(C2OCC)(C)C
InChI: InChI=1S/C13H18O5S/c1-5-16-12-13(2,3)10-8-9(18-19(4,14)15)6-7-11(10)17-12/h6-8,12H,5H2,1-4H3
Instrument: LTQ Orbitrap XL Thermo Scientific
Instrument type: LC-ESI-ITFT
Ms type: MS2
Ion mode: POSITIVE
Ionization: ESI
Fragmentation mode: HCD
Collision energy: 60 % (nominal)
Resolution: 7500
Column name: XBridge C18 3.5um, 2.1x50mm, Waters
Retention time: 10.0 min
Base peak: 309.0774
Precursor m/z: 287.0948
Precursor type: [M+H]+
m/z	relative intensity	assigned
53.0384	5	C4H5+
77.0384	16	C6H5+
79.0543	15	C6H7+
81.0006	12	CH5O2S+
81.07	18	C6H9+
91.0542	72	C7H7+
93.07	83	C7H9+
95.0494	10	C6H7O+
103.0542	64	C8H7+
105.0699	221	C8H9+
107.0493	28	C7H7O+
107.0852	4	C8H11+
109.0284	19	C6H5O2+
109.0647	25	C7H9O+
115.0542	79	C9H7+
117.0699	43	C9H9+
119.0493	15	C8H7O+
121.0648	999	C8H9O+
123.044	11	C7H7O2+
133.0648	388	C9H9O+
134.0726	108	C9H10O+
135.0805	52	C9H11O+
137.0597	274	C8H9O2+
143.049	25	C10H7O+
145.0648	77	C10H9O+
147.0442	20	C9H7O2+
149.0962	27	C10H13O+
155.0606	7	C10H7N2+
161.0597	568	C10H9O2+
162.0675	227	C10H10O2+
163.0753	67	C10H11O2+
173.0709	141	C10H9N2O+
179.0703	40	C10H11O3+
185.0268	11	C8H9O3S+
213.057	5	C10H13O3S+
