Mass spectrum: Triphenyl phosphate (TPP); LC-ESI-QFT; MS2; CE: 30; R=35000; [M+H]+
Name: Triphenyl phosphate (TPP)
Name: Triphenyl phosphate
Name: Triphenoxyphosphine oxide
Formula: C18H15O4P
Exact mass: 326.07080
SMILES: C1=CC=C(C=C1)OP(=O)(OC2=CC=CC=C2)OC3=CC=CC=C3
InChI: InChI=1S/C18H15O4P/c19-23(20-16-10-4-1-5-11-16,21-17-12-6-2-7-13-17)22-18-14-8-3-9-15-18/h1-15H
Instrument: Q Exactive Plus Orbitrap Thermo Scientific
Instrument type: LC-ESI-QFT
Ms type: MS2
Ion mode: POSITIVE
Ionization: ESI
Fragmentation mode: HCD
Collision energy: 30 (nominal)
Resolution: 35000
Column name: XBridge C18 3.5um, 2.1x50mm, Waters
Retention time: 13.1 min
Base peak: 327.0775
Precursor m/z: 327.0781
Precursor type: [M+H]+
m/z	relative intensity	assigned
77.0387	5	C6H5+
95.0492	4	C6H7O+
98.9842	2	H4O4P+
105.0448	1	C6H5N2+
152.0619	7	C12H8+
153.07	41	C12H9+
171.0805	11	C12H11O+
175.0156	3	C6H8O4P+
215.0258	11	C12H8O2P+
227.0852	1	C18H11+
228.0935	12	C18H12+
229.1014	22	C18H13+
233.0364	80	C12H10O3P+
251.0469	32	C12H12O4P+
291.0572	1	C18H12O2P+
309.0678	7	C18H14O3P+
326.0708	1	C18H15O4P+
327.0781	999	C18H16O4P+
