Mass spectrum: Amisulpride N-Oxide; LC-ESI-QFT; MS2; CE: 180; R=35000; [M-H]-
Name: Amisulpride N-Oxide
Name: 4-amino-N-[(1-ethyl-1-oxidopyrrolidin-1-ium-2-yl)methyl]-5-ethylsulfonyl-2-methoxybenzamide
Formula: C17H27N3O5S
Exact mass: 385.16714
SMILES: CC[N+]1(CCCC1CNC(=O)C2=CC(=C(C=C2OC)N)S(=O)(=O)CC)[O-]
InChI: InChI=1S/C17H27N3O5S/c1-4-20(22)8-6-7-12(20)11-19-17(21)13-9-16(26(23,24)5-2)14(18)10-15(13)25-3/h9-10,12H,4-8,11,18H2,1-3H3,(H,19,21)
Instrument: Q Exactive Plus Orbitrap Thermo Scientific
Instrument type: LC-ESI-QFT
Ms type: MS2
Ion mode: NEGATIVE
Ionization: ESI
Fragmentation mode: HCD
Collision energy: 180 (nominal)
Resolution: 35000
Column name: XBridge C18 3.5um, 2.1x50mm, Waters
Retention time: 4.2 min
Base peak: 430.1652
Precursor m/z: 384.1599
Precursor type: [M-H]-
m/z	relative intensity	assigned
50.0036	120	C3N-
56.9804	1	C2HS-
63.9625	999	O2S-
64.9703	10	HO2S-
65.0033	11	C4HO-
65.0397	16	C5H5-
65.9986	68	C3NO-
66.0349	12	C4H4N-
67.019	1	C4H3O-
68.0143	2	C3H2NO-
74.0039	1	C5N-
76.0194	12	C5H2N-
78.0351	4	C5H4N-
80.027	4	C5H4O-
88.0193	38	C6H2N-
89.0272	2	C6H3N-
90.0349	51	C6H4N-
91.019	2	C6H3O-
92.0142	19	C5H2NO-
92.0506	30	C6H6N-
93.0346	5	C6H5O-
94.03	2	C5H4NO-
104.0143	7	C6H2NO-
105.0221	14	C6H3NO-
106.0299	2	C6H4NO-
107.0378	9	C6H5NO-
115.0302	2	C7H3N2-
117.046	1	C7H5N2-
118.0299	33	C7H4NO-
120.0455	17	C7H6NO-
122.0249	1	C6H4NO2-
133.0409	2	C7H5N2O-
144.0452	1	C9H6NO-
146.0247	2	C8H4NO2-
