Mass spectrum: Aminopyrine; LC-ESI-ITFT; MS2; CE: 90%; R=7500; [M+H]+
Name: Aminopyrine
Name: 4-(dimethylamino)-1,5-dimethyl-2-phenyl-3-pyrazolin-3-one
Formula: C13H17N3O
Exact mass: 231.1372
SMILES: c(ccc1N(N(C=2C)C)C(=O)C2N(C)C)cc1
InChI: InChI=1S/C13H17N3O/c1-10-12(14(2)3)13(17)16(15(10)4)11-8-6-5-7-9-11/h5-9H,1-4H3
Instrument: LTQ Orbitrap XL Thermo Scientific
Instrument type: LC-ESI-ITFT
Ms type: MS2
Ion mode: POSITIVE
Ionization: ESI
Fragmentation mode: HCD
Collision energy: 90 % (nominal)
Resolution: 7500
Column name: XBridge C18 3.5um, 2.1x50mm, Waters
Retention time: 2.6 min
Base peak: 232.1453
Precursor m/z: 232.1444
Precursor type: [M+H]+
m/z	relative intensity	assigned
56.0495	463	C3H6N+
58.0652	480	C3H8N+
68.0493	11	C4H6N+
70.0652	228	C4H8N+
72.0808	201	C4H10N+
77.0386	28	C6H5+
82.065	31	C5H8N+
83.0606	42	C4H7N2+
84.0683	8	C4H8N2+
84.081	27	C5H10N+
97.0761	999	C5H9N2+
98.0838	63	C5H10N2+
104.0497	16	C7H6N+
106.0652	140	C7H8N+
111.0917	93	C6H11N2+
113.1072	11	C6H13N2+
118.0653	27	C8H8N+
132.081	10	C9H10N+
146.0595	9	C9H8NO+
