Mass spectrum: Flufenamic acid; LC-ESI-QFT; MS2; CE: 45; R=35000; [M-H]-
Name: Flufenamic acid
Name: Arlef
Name: 2-[3-(trifluoromethyl)anilino]benzoic acid
Formula: C14H10F3NO2
Exact mass: 281.06636
SMILES: C1=CC=C(C(=C1)C(=O)O)NC2=CC=CC(=C2)C(F)(F)F
InChI: InChI=1S/C14H10F3NO2/c15-14(16,17)9-4-3-5-10(8-9)18-12-7-2-1-6-11(12)13(19)20/h1-8,18H,(H,19,20)
Instrument: Q Exactive Orbitrap Thermo Scientific
Instrument type: LC-ESI-QFT
Ms type: MS2
Ion mode: NEGATIVE
Ionization: ESI
Fragmentation mode: HCD
Collision energy: 45 (nominal)
Resolution: 35000
Column name: XBridge C18 3.5um, 2.1x50mm, Waters
Retention time: 14.5 min
Base peak: 280.0593
Precursor m/z: 280.0591
Precursor type: [M-H]-
m/z	relative intensity	assigned
62.9888	4	CFO2-
68.9957	6	CF3-
160.038	6	C7H5F3N-
166.0662	12	C12H8N-
176.0505	171	C13H6N-
179.0376	7	C12H5NO-
181.0535	11	C12H7NO-
194.041	1	C13H5FN-
196.0568	55	C13H7FN-
199.044	16	C12H6FNO-
200.0519	4	C12H7FNO-
207.0326	10	C13H5NO2-
215.0553	64	C13H7F2N-
216.063	91	C13H8F2N-
227.0389	31	C13H6FNO2-
234.0538	133	C13H7F3N-
236.0693	999	C13H9F3N-
248.0527	4	C13H8F2NO2-
280.0596	2	C14H9F3NO2-
