Mass spectrum: Cefaclor; LC-ESI-QFT; MS2; CE: 15; R=35000; [M-H]-
Name: Cefaclor
Name: CEFACLOR
Name: (6R,7R)-7-[[(2R)-2-amino-1-oxo-2-phenylethyl]amino]-3-chloro-8-oxo-5-thia-1-azabicyclo[4.2.0]oct-2-ene-2-carboxylic acid
Formula: C15H14ClN3O4S
Exact mass: 367.03935
SMILES: O=C2N1/C(=C(/Cl)CS[C@@H]1[C@@H]2NC(=O)[C@@H](c3ccccc3)N)C(=O)O
InChI: InChI=1S/C15H14ClN3O4S/c16-8-6-24-14-10(13(21)19(14)11(8)15(22)23)18-12(20)9(17)7-4-2-1-3-5-7/h1-5,9-10,14H,6,17H2,(H,18,20)(H,22,23)/t9-,10-,14-/m1/s1
Instrument: Q Exactive Orbitrap Thermo Scientific
Instrument type: LC-ESI-QFT
Ms type: MS2
Ion mode: NEGATIVE
Ionization: ESI
Fragmentation mode: HCD
Collision energy: 15 (nominal)
Resolution: 35000
Column name: XBridge C18 3.5um, 2.1x50mm, Waters
Retention time: 4.1 min
Base peak: 286.0657
Precursor m/z: 366.0321
Precursor type: [M-H]-
m/z	relative intensity	assigned
57.9756	30	CNS-
83.9913	13	C3H2NS-
86.007	2	C3H4NS-
86.9911	1	C3H3OS-
91.0301	5	C5H3N2-
93.0457	29	C5H5N2-
96.9991	1	C4H3NS-
98.007	1	C4H4NS-
105.0458	9	C6H5N2-
110.007	17	C5H4NS-
119.025	1	C6H3N2O-
120.0568	36	C6H6N3-
121.0409	1	C6H5N2O-
124.01	10	C5H4N2S-
124.9943	1	C5H3NOS-
125.0178	8	C5H5N2S-
126.002	4	C5H4NOS-
131.968	12	C4H3ClNS-
131.9858	1	C4H3ClNO2-
136.994	4	C6H3NOS-
137.0179	4	C6H5N2S-
137.0357	4	C6H5N2O2-
138.0016	1	C6H4NOS-
139.0335	109	C6H7N2S-
141.9969	1	C5H4NO2S-
146.0122	1	C7H2N2O2-
149.0357	8	C7H5N2O2-
150.9971	5	C6H3N2OS-
152.0049	17	C6H4N2OS-
153.0128	57	C6H5N2OS-
153.9969	14	C6H4NO2S-
155.0018	11	C6H4ClN2O-
159.0563	5	C9H7N2O-
166.0332	21	C8H8NOS-
174.956	44	C4ClN2O4-
175.0514	10	C9H7N2O2-
175.9578	145	
178.9917	1	C7H3N2O2S-
179.9999	247	C7H4N2O2S-
181.0078	7	C7H5N2O2S-
181.0774	1	C12H9N2-
185.0719	4	C11H9N2O-
187.0513	74	C10H7N2O2-
189.067	40	C10H9N2O2-
196.088	6	C12H10N3-
198.067	1	C11H8N3O-
207.0596	5	C10H11N2OS-
208.088	49	C13H10N3-
209.072	6	C13H9N2O-
211.9894	5	C7H4N2O4S-
214.0622	20	C11H8N3O2-
215.0649	30	C12H11N2S-
216.0777	50	C11H10N3O2-
224.0831	14	C13H10N3O-
225.0492	2	C13H9N2S-
225.0669	5	C13H9N2O2-
226.0987	5	C13H12N3O-
233.039	64	C11H9N2O2S-
240.078	9	C13H10N3O2-
242.0758	39	C13H12N3S-
243.0598	18	C13H11N2OS-
252.0778	128	C14H10N3O2-
258.0706	116	C13H12N3OS-
259.0544	6	C13H11N2O2S-
270.0467	9	C14H10N2O2S-
276.0546	8	C13H11ClN3O2-
284.0506	1	C14H10N3O2S-
286.0656	999	C14H12N3O2S-
302.0605	123	C14H12N3O3S-
