Mass spectrum: Iopamidol; LC-ESI-ITFT; MS2; CE: 60%; R=15000; [M+H]+
Name: Iopamidol
Name: 1,3-Benzenedicarboxamide, N,N'-bis(2-hydroxy-1-(hydroxymethyl)ethyl)-5-((2-hydroxy-1-oxopropyl)amino)-2,4,6-triiodo-
Name: 1-N,3-N-bis(1,3-dihydroxypropan-2-yl)-5-(2-hydroxypropanoylamino)-2,4,6-triiodobenzene-1,3-dicarboxamide
Formula: C17H22I3N3O8
Exact mass: 776.8541
SMILES: CC(O)C(=O)NC1=C(I)C(C(=O)NC(CO)CO)=C(I)C(C(=O)NC(CO)CO)=C1I
InChI: InChI=1S/C17H22I3N3O8/c1-6(28)15(29)23-14-12(19)9(16(30)21-7(2-24)3-25)11(18)10(13(14)20)17(31)22-8(4-26)5-27/h6-8,24-28H,2-5H2,1H3,(H,21,30)(H,22,31)(H,23,29)
Instrument: LTQ Orbitrap XL Thermo Scientific
Instrument type: LC-ESI-ITFT
Ms type: MS2
Ion mode: POSITIVE
Ionization: ESI
Fragmentation mode: HCD
Collision energy: 60 % (nominal)
Resolution: 15000
Column name: XBridge C18 3.5um, 2.1x50mm, Waters
Retention time: 1.2 min
Base peak: 132.9578
Precursor m/z: 777.8614
Precursor type: [M+H]+
m/z	relative intensity	assigned
74.06	67	C3H8NO+
91.0419	31	C6H5N+
102.0336	38	C7H4N+
103.0417	68	C7H5N+
113.013	39	C7HN2+
130.0285	44	C8H4NO+
134.0233	35	C7H4NO2+
141.9924	140	C8NO2+
144.0074	106	C8H2NO2+
159.0183	57	C8H3N2O2+
159.0314	153	C9H5NO2+
176.0212	40	C8H4N2O3+
185.035	72	C10H5N2O2+
186.0183	83	C10H4NO3+
187.0503	52	C10H7N2O2+
201.0289	45	C10H5N2O3+
204.9145	71	C5H2IO+
229.9456	45	C7H5IN+
241.946	63	C8H5IN+
257.9409	255	C8H5INO+
259.0711	153	C13H11N2O4+
260.0785	52	C13H12N2O4+
269.9407	408	C9H5INO+
285.9356	999	C9H5INO2+
293.9288	186	C10H3IN2O+
295.9196	241	C10H3INO2+
313.9305	495	C10H5INO3+
325.9689	59	C13N3O8+
331.9413	510	C10H7INO4+
339.8106	41	C6I2N+
341.8271	79	C6H2I2N+
368.9715	58	C13H10IN2O3+
397.8159	57	C5H4I2O5+
422.8104	165	C9HI2N2O2+
438.8433	176	C10H5I2N2O2+
441.8051	46	C9H2I2NO4+
