Mass spectrum: Prometon; LC-ESI-ITFT; MS2; CE: 75%; R=7500; [M+H]+
Name: Prometon
Name: 6-methoxy-2-N,4-N-di(propan-2-yl)-1,3,5-triazine-2,4-diamine
Formula: C10H19N5O
Exact mass: 225.1584
SMILES: c1(nc(NC(C)C)nc(n1)OC)NC(C)C
InChI: InChI=1S/C10H19N5O/c1-6(2)11-8-13-9(12-7(3)4)15-10(14-8)16-5/h6-7H,1-5H3,(H2,11,12,13,14,15)
Instrument: LTQ Orbitrap XL Thermo Scientific
Instrument type: LC-ESI-ITFT
Ms type: MS2
Ion mode: POSITIVE
Ionization: ESI
Fragmentation mode: HCD
Collision energy: 75 % (nominal)
Resolution: 7500
Column name: XBridge C18 3.5um, 2.1x50mm, Waters
Retention time: 6.7 min
Base peak: 226.1662
Precursor m/z: 226.1662
Precursor type: [M+H]+
m/z	relative intensity	assigned
57.0447	72	C2H5N2+
58.0287	8	C2H4NO+
68.0243	97	C2H2N3+
69.0084	11	C2HN2O+
75.0553	49	C2H7N2O+
82.04	21	C3H4N3+
83.0241	11	C3H3N2O+
85.0509	11	C2H5N4+
86.0349	274	C2H4N3O+
99.0665	45	C3H7N4+
100.0506	279	C3H6N3O+
110.0461	10	C3H4N5+
110.0716	3	C5H8N3+
142.0725	999	C4H8N5O+
184.1189	185	C7H14N5O+
