Mass spectrum: N,N-Dimethyl-N'-phenylsulfamide; LC-ESI-ITFT; MS2; CE: 90%; R=7500; [M+H]+
Name: N,N-Dimethyl-N'-phenylsulfamide
Name: DMSA
Formula: C8H12N2O2S
Exact mass: 200.0619
SMILES: S(Nc1ccccc1)(N(C)C)(=O)=O
InChI: InChI=1S/C8H12N2O2S/c1-10(2)13(11,12)9-8-6-4-3-5-7-8/h3-7,9H,1-2H3
Instrument: LTQ Orbitrap XL Thermo Scientific
Instrument type: LC-ESI-ITFT
Ms type: MS2
Ion mode: POSITIVE
Ionization: ESI
Fragmentation mode: HCD
Collision energy: 90 % (nominal)
Resolution: 7500
Column name: XBridge C18 3.5um, 2.1x50mm, Waters
Retention time: 6.3 min
Base peak: 223.0517
Precursor m/z: 201.0692
Precursor type: [M+H]+
m/z	relative intensity	assigned
65.0386	756	C5H5+
66.0466	4	C5H6+
77.0384	12	C6H5+
92.0495	999	C6H6N+
93.0573	327	C6H7N+
94.0652	29	C6H8N+
107.0606	8	C6H7N2+
120.0807	10	C8H10N+
121.0762	9	C7H9N2+
121.0887	5	C8H11N+
122.0838	14	C7H10N2+
135.0913	4	C8H11N2+
