Mass spectrum: Chlorthiazide; LC-ESI-QFT; MS2; CE: 120; R=35000; [M+H]+
Name: Chlorthiazide
Name: 6-chloro-1,1-dioxo-4H-1$l^{6},2,4-benzothiadiazine-7-sulfonamide
Formula: C7H6ClN3O4S2
Exact mass: 294.94883
SMILES: C1=C2C(=CC(=C1Cl)S(=O)(=O)N)S(=O)(=O)NC=N2
InChI: InChI=1S/C7H6ClN3O4S2/c8-4-1-5-7(2-6(4)16(9,12)13)17(14,15)11-3-10-5/h1-3H,(H,10,11)(H2,9,12,13)
Instrument: Q Exactive Plus Orbitrap Thermo Scientific
Instrument type: LC-ESI-QFT
Ms type: MS2
Ion mode: POSITIVE
Ionization: ESI
Fragmentation mode: HCD
Collision energy: 120 (nominal)
Resolution: 35000
Column name: XBridge C18 3.5um, 2.1x50mm, Waters
Retention time: 1.9 min
Base peak: 295.956
Precursor m/z: 295.9561
Precursor type: [M+H]+
m/z	relative intensity	assigned
50.0151	51	C4H2+
51.0103	7	C3HN+
51.023	25	C4H3+
52.0182	175	C3H2N+
53.0022	31	C3HO+
53.9975	2	C2NO+
54.0338	20	C3H4N+
55.0179	24	C3H3O+
55.029	3	C2H3N2+
56.0495	17	C3H6N+
57.9872	3	C2H2S+
58.9825	2	CHNS+
59.9665	2	COS+
59.9903	3	CH2NS+
60.984	23	C2H2Cl+
61.0072	40	C5H+
61.9792	125	CHClN+
62.0151	280	C5H2+
62.9632	23	CClO+
63.0229	477	C5H3+
63.9852	128	H2NOS+
63.9948	17	CH3ClN+
64.0182	145	C4H2N+
65.0022	7	C4HO+
65.026	106	C4H3N+
66.0338	162	C4H4N+
67.0178	3	C4H3O+
67.0291	7	C3H3N2+
67.0416	63	C4H5N+
68.0131	68	C3H2NO+
68.9793	125	C3HS+
69.9746	14	C2NS+
69.9871	22	C3H2S+
70.995	8	C3H3S+
71.9902	21	C2H2NS+
72.9839	527	C3H2Cl+
73.9792	34	C2HClN+
74.015	22	C6H2+
74.987	7	C2H2ClN+
74.9995	48	C3H4Cl+
75.0103	18	C5HN+
75.0229	3	C6H3+
76.0181	366	C5H2N+
77.0021	132	C5HO+
77.026	10	C5H3N+
78.0338	282	C5H4N+
78.9403	68	CClS+
79.0178	20	C5H3O+
79.029	16	C4H3N2+
79.0416	35	C5H5N+
79.98	18	H2NO2S+
80.0131	25	C4H2NO+
80.0494	12	C5H6N+
80.9793	15	C4HS+
81.0335	40	C5H5O+
81.9872	12	C4H2S+
82.0288	18	C4H4NO+
82.0526	7	C4H6N2+
82.9824	2	C3HNS+
83.9903	8	C3H2NS+
84.9742	6	C3HOS+
84.9839	108	C4H2Cl+
85.9792	241	C3HClN+
86.9633	15	C3ClO+
86.9996	89	C4H4Cl+
87.9949	60	C3H3ClN+
88.0182	74	C6H2N+
89.026	966	C6H3N+
90.0105	37	C3H5ClN+
90.0339	676	C6H4N+
91.0178	15	C6H3O+
91.0291	29	C5H3N2+
91.0418	6	C6H5N+
91.9481	3	C2HClS+
92.0131	38	C5H2NO+
92.0369	19	C5H4N2+
92.9793	13	C5HS+
93.0447	110	C5H5N2+
94.0288	35	C5H4NO+
94.0526	6	C5H6N2+
95.0366	2	C5H5NO+
95.9664	18	C4OS+
95.9759	1	C5HCl+
95.9902	33	C4H2NS+
96.0444	10	C5H6NO+
96.984	910	C5H2Cl+
97.9792	544	C4HClN+
97.9917	38	C5H3Cl+
98.9871	3	C4H2ClN+
98.9995	21	C5H4Cl+
99.9948	250	C4H3ClN+
101.0027	38	C4H4ClN+
102.0105	114	C4H5ClN+
102.9404	55	C3ClS+
103.0291	9	C6H3N2+
104.9561	196	C3H2ClS+
105.0447	45	C6H5N2+
105.9746	17	C5NS+
106.0288	19	C6H4NO+
106.0524	16	C6H6N2+
106.9824	681	C5HNS+
107.9775	2	C4N2S+
107.9902	43	C5H2NS+
108.0443	36	C6H6NO+
108.9745	2	C5HOS+
108.984	6	C6H2Cl+
108.9981	7	C5H3NS+
109.9794	1	C5HClN+
110.9632	50	C5ClO+
111.0314	2	C5H5NO2+
111.9948	157	C5H3ClN+
112.9789	22	C5H2ClO+
112.9901	62	C4H2ClN2+
113.0029	7	C5H4ClN+
113.9741	53	C4HClNO+
114.0105	70	C5H5ClN+
114.9946	10	C5H4ClO+
115.0057	2	C4H4ClN2+
115.9899	3	C4H3ClNO+
116.0368	27	C7H4N2+
117.0447	999	C7H5N2+
117.9747	2	C6NS+
118.0054	7	C4H5ClNO+
118.0287	35	C7H4NO+
118.0525	7	C7H6N2+
119.0241	2	C6H3N2O+
120.0081	6	C6H2NO2+
121.0393	2	C6H5N2O+
123.9949	174	C6H3ClN+
124.0089	18	C5H4N2S+
124.0392	8	C6H6NO2+
125.0027	156	C6H4ClN+
125.9979	3	C5H3ClN2+
126.9823	1	C5H2ClNO+
127.0057	27	C5H4ClN2+
127.9897	39	C5H3ClNO+
129.0214	104	C5H6ClN2+
130.0054	67	C5H5ClNO+
131.0009	1	C4H4ClN2O+
131.9668	10	C4H3ClNS+
131.9847	33	C4H3ClNO2+
133.0394	1	C7H5N2O+
134.0474	2	C7H6N2O+
139.0056	18	C6H4ClN2+
139.9898	30	C6H3ClNO+
141.9512	10	C5HClNS+
142.0055	59	C6H5ClNO+
142.9591	2	C5H2ClNS+
143.9671	3	C5H3ClNS+
144.9922	1	C5H4ClNO2+
145.0163	17	C5H6ClN2O+
151.0058	9	C7H4ClN2+
152.001	2	C6H3ClN3+
152.0137	12	C7H5ClN2+
155.0007	35	C6H4ClN2O+
155.9847	94	C6H3ClNO2+
157.0167	1	C6H6ClN2O+
173.0113	45	C6H6ClN2O2+
173.9953	26	C6H5ClNO3+
184.004	1	C7H5ClN2O2+
