Mass spectrum: Triamterene; LC-ESI-QFT; MS2; CE: 90; R=35000; [M+H]+
Name: Triamterene
Name: 6-phenylpteridine-2,4,7-triamine
Formula: C12H11N7
Exact mass: 253.10759
SMILES: C1=CC=C(C=C1)C2=NC3=C(N=C2N)N=C(N=C3N)N
InChI: InChI=1S/C12H11N7/c13-9-7(6-4-2-1-3-5-6)16-8-10(14)18-12(15)19-11(8)17-9/h1-5H,(H6,13,14,15,17,18,19)
Instrument: Q Exactive Plus Orbitrap Thermo Scientific
Instrument type: LC-ESI-QFT
Ms type: MS2
Ion mode: POSITIVE
Ionization: ESI
Fragmentation mode: HCD
Collision energy: 90 (nominal)
Resolution: 35000
Column name: XBridge C18 3.5um, 2.1x50mm, Waters
Retention time: 4.5 min
Base peak: 254.1144
Precursor m/z: 254.1149
Precursor type: [M+H]+
m/z	relative intensity	assigned
50.015	1	C4H2+
51.0229	2	C4H3+
53.0386	7	C4H5+
55.0291	15	C2H3N2+
63.0227	1	C5H3+
65.0134	5	C3HN2+
67.0291	11	C3H3N2+
68.0243	3	C2H2N3+
77.0385	19	C6H5+
79.0541	4	C6H7+
80.0243	22	C3H2N3+
82.04	26	C3H4N3+
89.0386	21	C7H5+
91.0543	2	C7H7+
92.0244	120	C4H2N3+
95.0492	22	C6H7O+
103.0417	14	C7H5N+
104.0495	999	C7H6N+
105.0448	15	C6H5N2+
106.0651	2	C7H8N+
107.0353	24	C4H3N4+
109.0511	2	C4H5N4+
114.0339	4	C8H4N+
116.0495	315	C8H6N+
117.0199	1	C5HN4+
117.0573	8	C8H7N+
122.0603	1	C7H8NO+
128.037	12	C8H4N2+
129.0448	23	C8H5N2+
130.0401	2	C7H4N3+
131.0605	47	C8H7N2+
132.0446	3	C8H6NO+
133.0761	2	C8H9N2+
134.0462	12	C5H4N5+
134.0601	20	C8H8NO+
139.0292	1	C9H3N2+
141.0448	345	C9H5N2+
142.0527	55	C9H6N2+
143.0605	262	C9H7N2+
144.0558	3	C8H6N3+
153.0448	12	C10H5N2+
156.0556	5	C9H6N3+
157.0394	1	C9H5N2O+
158.0714	9	C9H8N3+
159.0554	6	C9H7N2O+
161.0712	5	C9H9N2O+
166.0401	12	C10H4N3+
167.048	2	C10H5N3+
168.0557	446	C10H6N3+
169.0511	2	C9H5N4+
169.0636	11	C10H7N3+
170.0714	4	C10H8N3+
171.0553	4	C10H7N2O+
183.0667	88	C10H7N4+
184.0505	4	C10H6N3O+
184.0746	4	C10H8N4+
185.0823	45	C10H9N4+
186.0663	17	C10H8N3O+
193.051	52	C11H5N4+
194.0464	2	C10H4N5+
194.0587	2	C11H6N4+
195.0667	270	C11H7N4+
196.0507	1	C11H6N3O+
210.0776	118	C11H8N5+
212.0933	38	C11H10N5+
213.0774	10	C11H9N4O+
220.062	42	C12H6N5+
227.1042	9	C11H11N6+
235.0726	1	C12H7N6+
237.0885	215	C12H9N6+
238.0726	5	C12H8N5O+
252.0992	3	C12H10N7+
254.1151	17	C12H12N7+
