Mass spectrum: Paichongding; LC-ESI-QFT; MS2; CE: 180%; R=17500; [M+H]+
Name: Paichongding
Name: 1-[(6-chloropyridin-3-yl)methyl]-7-methyl-8-nitro-5-propoxy-3,5,6,7-tetrahydro-2H-imidazo[1,2-a]pyridine
Formula: C17H23ClN4O3
Exact mass: 366.1459
SMILES: CCCOC1CC(C(=C2N1CCN2CC3=CN=C(C=C3)Cl)[N+](=O)[O-])C
InChI: InChI=1S/C17H23ClN4O3/c1-3-8-25-15-9-12(2)16(22(23)24)17-20(6-7-21(15)17)11-13-4-5-14(18)19-10-13/h4-5,10,12,15H,3,6-9,11H2,1-2H3
Instrument: Exploris 240 Orbitrap Thermo Scientific
Instrument type: LC-ESI-QFT
Ms type: MS2
Ion mode: POSITIVE
Ionization: ESI
Fragmentation mode: HCD
Collision energy: 180 % (nominal)
Resolution: 17500
Column name: XBridge C18 3.5um, 2.1x50mm, Waters
Retention time: 5.460 min
Base peak: 367.1531
Precursor m/z: 367.1531
Precursor type: [M+H]+
m/z	relative intensity	assigned
51.023	38	C4H3+
53.0386	30	C4H5+
54.0339	30	C3H4N+
55.0417	17	C3H5N+
56.0496	47	C3H6N+
63.0229	266	C5H3+
64.0181	70	C4H2N+
64.0309	34	C5H4+
65.0386	39	C5H5+
67.0416	39	C4H5N+
68.0496	44	C4H6N+
72.9839	999	C3H2Cl+
78.0338	125	C5H4N+
80.0494	59	C5H6N+
81.0447	17	C4H5N2+
82.0525	18	C4H6N2+
89.0387	31	C7H5+
90.0338	238	C6H4N+
91.0416	129	C6H5N+
94.0653	12	C6H8N+
96.0444	60	C5H6NO+
98.9995	365	C5H4Cl+
107.0603	26	C6H7N2+
109.0765	22	C6H9N2+
119.0606	52	C7H7N2+
121.0764	29	C7H9N2+
126.0104	52	C6H5ClN+
