Mass spectrum: Dienogest; LC-ESI-QFT; MS2; CE: 75; R=35000; [M-H]-
Name: Dienogest
Name: 2-[(8S,13S,14S,17R)-17-hydroxy-13-methyl-3-oxo-1,2,6,7,8,11,12,14,15,16-decahydrocyclopenta[a]phenanthren-17-yl]acetonitrile
Formula: C20H25NO2
Exact mass: 311.18853
SMILES: C[C@]12CCC3=C4CCC(=O)C=C4CC[C@H]3[C@@H]1CC[C@]2(CC#N)O
InChI: InChI=1S/C20H25NO2/c1-19-8-6-16-15-5-3-14(22)12-13(15)2-4-17(16)18(19)7-9-20(19,23)10-11-21/h12,17-18,23H,2-10H2,1H3/t17-,18+,19+,20-/m1/s1
Instrument: Q Exactive Orbitrap Thermo Scientific
Instrument type: LC-ESI-QFT
Ms type: MS2
Ion mode: NEGATIVE
Ionization: ESI
Fragmentation mode: HCD
Collision energy: 75 (nominal)
Resolution: 35000
Column name: XBridge C18 3.5um, 2.1x50mm, Waters
Retention time: 8.2 min
Base peak: 356.1873
Precursor m/z: 310.1813
Precursor type: [M-H]-
m/z	relative intensity	assigned
57.0347	5	C3H5O-
64.0193	9	C4H2N-
66.035	90	C4H4N-
69.0348	6	C4H5O-
80.0507	47	C5H6N-
91.0554	10	C7H7-
92.0506	6	C6H6N-
93.0348	19	C6H5O-
95.0502	4	C6H7O-
103.0555	4	C8H7-
106.0664	24	C7H8N-
107.0504	6	C7H7O-
109.066	33	C7H9O-
115.0556	4	C9H7-
117.0711	31	C9H9-
118.0663	7	C8H8N-
119.0504	34	C8H7O-
129.071	17	C10H9-
130.0425	21	C9H6O-
130.0663	57	C9H8N-
131.0501	6	C9H7O-
131.0867	119	C10H11-
132.082	214	C9H10N-
141.0711	6	C11H9-
143.0502	58	C10H7O-
143.0867	9	C11H11-
145.0659	96	C10H9O-
147.0815	40	C10H11O-
155.0866	45	C12H11-
156.0581	18	C11H8O-
157.066	80	C11H9O-
158.0738	45	C11H10O-
159.0816	152	C11H11O-
161.0974	57	C11H13O-
169.066	22	C12H9O-
171.0817	266	C12H11O-
172.0896	10	C12H12O-
173.0972	999	C12H13O-
183.0822	6	C13H11O-
184.0896	25	C13H12O-
195.0819	18	C14H11O-
197.0973	46	C14H13O-
199.1128	7	C14H15O-
209.0975	21	C15H13O-
211.1129	52	C15H15O-
213.1288	23	C15H17O-
221.0977	6	C16H13O-
223.113	33	C16H15O-
225.1288	28	C16H17O-
227.1444	7	C16H19O-
235.1134	17	C17H15O-
249.1286	18	C18H17O-
253.123	5	C17H17O2-
260.1088	6	C18H14NO-
262.1237	36	C18H16NO-
263.1322	4	C18H17NO-
267.1381	5	C18H19O2-
269.155	9	C18H21O2-
272.1091	6	C19H14NO-
274.124	89	C19H16NO-
275.131	7	C19H17NO-
276.1395	50	C19H18NO-
290.155	35	C20H20NO-
292.1711	74	C20H22NO-
