Mass spectrum: Diphenyl-phthalate; LC-ESI-QFT; MS2; CE: 150; R=35000; [M+H]+
Name: Diphenyl-phthalate
Name: Diphenyl phthalate
Name: Diphenyl benzene-1,2-dicarboxylate
Formula: C20H14O4
Exact mass: 318.08921
SMILES: C1=CC=C(C=C1)OC(=O)C2=CC=CC=C2C(=O)OC3=CC=CC=C3
InChI: InChI=1S/C20H14O4/c21-19(23-15-9-3-1-4-10-15)17-13-7-8-14-18(17)20(22)24-16-11-5-2-6-12-16/h1-14H
Instrument: Q Exactive Plus Orbitrap Thermo Scientific
Instrument type: LC-ESI-QFT
Ms type: MS2
Ion mode: POSITIVE
Ionization: ESI
Fragmentation mode: HCD
Collision energy: 150 (nominal)
Resolution: 35000
Column name: XBridge C18 3.5um, 2.1x50mm, Waters
Retention time: 12.9 min
Base peak: 225.054
Precursor m/z: 319.0965
Precursor type: [M+H]+
m/z	relative intensity	assigned
50.0151	422	C4H2+
51.023	999	C4H3+
52.0182	1	C3H2N+
52.0307	3	C4H4+
53.0022	9	C3HO+
53.0386	55	C4H5+
55.0178	1	C3H3O+
62.0151	1	C5H2+
63.0229	11	C5H3+
65.0022	34	C4HO+
65.0386	25	C5H5+
66.01	6	C4H2O+
66.0463	4	C5H6+
74.0151	8	C6H2+
75.0229	15	C6H3+
76.0307	6	C6H4+
77.0385	214	C6H5+
78.0463	3	C6H6+
81.0334	7	C5H5O+
89.0386	29	C7H5+
91.0542	10	C7H7+
94.0412	3	C6H6O+
95.0491	152	C6H7O+
99.0227	2	C8H3+
102.0463	6	C8H6+
105.0447	126	C6H5N2+
115.0542	131	C9H7+
125.0384	2	C10H5+
126.0464	15	C10H6+
127.0542	3	C10H7+
139.0542	20	C11H7+
141.0698	1	C11H9+
145.0643	1	C10H9O+
150.0464	26	C12H6+
151.054	6	C12H7+
152.0621	42	C12H8+
155.0602	2	C10H7N2+
169.0648	19	C12H9O+
179.0603	6	C12H7N2+
