Mass spectrum: Alachlor; LC-ESI-ITFT; MS2; CE: 30%; R=15000; [M+H]+
Name: Alachlor
Name: 2-chloranyl-N-(2,6-diethylphenyl)-N-(methoxymethyl)ethanamide
Formula: C14H20ClNO2
Exact mass: 269.1177
SMILES: CCC1=CC=CC(CC)=C1N(COC)C(=O)CCl
InChI: InChI=1S/C14H20ClNO2/c1-4-11-7-6-8-12(5-2)14(11)16(10-18-3)13(17)9-15/h6-8H,4-5,9-10H2,1-3H3
Instrument: LTQ Orbitrap XL Thermo Scientific
Instrument type: LC-ESI-ITFT
Ms type: MS2
Ion mode: POSITIVE
Ionization: ESI
Fragmentation mode: HCD
Collision energy: 30 % (nominal)
Resolution: 15000
Column name: XBridge C18 3.5um, 2.1x50mm, Waters
Retention time: 11.7 min
Base peak: 292.1079
Precursor m/z: 270.1255
Precursor type: [M+H]+
m/z	relative intensity	assigned
90.0105	18	C3H5ClN+
145.1013	18	C11H13+
146.0962	5	C10H12N+
160.1122	6	C11H14N+
161.1199	6	C11H15N+
162.1278	341	C11H16N+
163.1116	21	C11H15O+
172.1121	7	C12H14N+
206.0728	8	C12H13ClN+
208.0888	57	C12H15ClN+
220.0889	48	C13H15ClN+
224.0836	66	C12H15ClNO+
238.0993	999	C13H17ClNO+
240.1155	7	C13H19ClNO+
270.1254	38	C14H21ClNO2+
