Mass spectrum: Cyanazine; LC-ESI-ITFT; MS2; CE: 75%; R=7500; [M+H]+
Name: Cyanazine
Name: 2-[[4-chloranyl-6-(ethylamino)-1,3,5-triazin-2-yl]amino]-2-methyl-propanenitrile
Formula: C9H13ClN6
Exact mass: 240.0890
SMILES: CCNC1=NC(=NC(=N1)Cl)NC(C)(C)C#N
InChI: InChI=1S/C9H13ClN6/c1-4-12-7-13-6(10)14-8(15-7)16-9(2,3)5-11/h4H2,1-3H3,(H2,12,13,14,15,16)
Instrument: LTQ Orbitrap XL Thermo Scientific
Instrument type: LC-ESI-ITFT
Ms type: MS2
Ion mode: POSITIVE
Ionization: ESI
Fragmentation mode: HCD
Collision energy: 75 % (nominal)
Resolution: 7500
Column name: XBridge C18 3.5um, 2.1x50mm, Waters
Retention time: 6.6 min
Base peak: 241.0971
Precursor m/z: 241.0963
Precursor type: [M+H]+
m/z	relative intensity	assigned
58.0652	21	C3H8N+
61.9793	84	CHClN+
67.0291	19	C3H3N2+
68.0244	785	C2H2N3+
71.0604	388	C3H7N2+
79.0058	192	CH4ClN2+
83.0604	278	C4H7N2+
85.0761	11	C4H9N2+
90.0105	41	C3H5ClN+
96.0557	491	C4H6N3+
104.0011	999	C2H3ClN3+
108.0557	36	C5H6N3+
110.046	31	C3H4N5+
110.0713	70	C5H8N3+
111.0796	17	C5H9N3+
119.037	137	C4H8ClN2+
132.0323	480	C4H7ClN3+
136.087	161	C7H10N3+
138.0772	44	C5H8N5+
144.0325	47	C5H7ClN3+
146.0228	129	C3H5ClN5+
150.0774	9	C6H8N5+
173.0587	57	C6H10ClN4+
174.0541	161	C5H9ClN5+
178.1089	29	C8H12N5+
186.0539	34	C6H9ClN5+
197.0594	8	C8H10ClN4+
214.0853	455	C8H13ClN5+
