Mass spectrum: Buflomedil; LC-ESI-QFT; MS2; CE: 30; R=35000; [M+H]+
Name: Buflomedil
Name: 4-(1-pyrrolidinyl)-1-(2,4,6-trimethoxyphenyl)-1-butanone
Formula: C17H25NO4
Exact mass: 307.17836
SMILES: O=C(c1c(OC)cc(OC)cc1OC)CCCN2CCCC2
InChI: InChI=1S/C17H25NO4/c1-20-13-11-15(21-2)17(16(12-13)22-3)14(19)7-6-10-18-8-4-5-9-18/h11-12H,4-10H2,1-3H3
Instrument: Q Exactive Orbitrap Thermo Scientific
Instrument type: LC-ESI-QFT
Ms type: MS2
Ion mode: POSITIVE
Ionization: ESI
Fragmentation mode: HCD
Collision energy: 30 (nominal)
Resolution: 35000
Column name: XBridge C18 3.5um, 2.1x50mm, Waters
Retention time: 4.8 min
Base peak: 308.1855
Precursor m/z: 308.1856
Precursor type: [M+H]+
m/z	relative intensity	assigned
69.0333	4	C4H5O+
70.065	21	C4H8N+
71.049	7	C4H7O+
72.0806	4	C4H10N+
98.0599	33	C5H8NO+
140.1069	702	C8H14NO+
177.0907	5	C11H13O2+
181.0857	8	C10H13O3+
195.0651	34	C10H11O4+
195.1014	5	C11H15O3+
209.117	2	C12H17O3+
221.1173	6	C13H17O3+
222.0881	2	C12H14O4+
237.1119	999	C13H17O4+
290.1747	23	C17H24NO3+
308.1853	85	C17H26NO4+
