Mass spectrum: Atorvastatin; LC-ESI-ITFT; MS2; CE: 30%; R=15000; [M+H]+
Name: Atorvastatin
Name: (3R,5R)-7-[3-(anilinocarbonyl)-5-(4-fluorophenyl)-2-isopropyl-4-phenyl-1H-pyrrol-1-yl]-3,5-dihydroxyheptanoic acid
Name: (3R,5R)-7-[2-(4-fluorophenyl)-3-phenyl-4-(phenylcarbamoyl)-5-propan-2-yl-pyrrol-1-yl]-3,5-bis(oxidanyl)heptanoic acid
Formula: C33H35FN2O5
Exact mass: 558.2530
SMILES: c1(c(n(CC[C@H](C[C@H](CC(=O)O)O)O)c(c1C(Nc1ccccc1)=O)C(C)C)c1ccc(F)cc1)c1ccccc1
InChI: InChI=1S/C33H35FN2O5/c1-21(2)31-30(33(41)35-25-11-7-4-8-12-25)29(22-9-5-3-6-10-22)32(23-13-15-24(34)16-14-23)36(31)18-17-26(37)19-27(38)20-28(39)40/h3-16,21,26-27,37-38H,17-20H2,1-2H3,(H,35,41)(H,39,40)/t26-,27-/m1/s1
Instrument: LTQ Orbitrap XL Thermo Scientific
Instrument type: LC-ESI-ITFT
Ms type: MS2
Ion mode: POSITIVE
Ionization: ESI
Fragmentation mode: HCD
Collision energy: 30 % (nominal)
Resolution: 15000
Column name: XBridge C18 3.5um, 2.1x50mm, Waters
Retention time: 12.4 min
Base peak: 559.2616
Precursor m/z: 559.2603
Precursor type: [M+H]+
m/z	relative intensity	assigned
250.1025	53	C17H13FN+
252.1181	5	C17H15FN+
276.1191	17	C19H15FN+
292.1496	170	C20H19FN+
294.165	20	C20H21FN+
318.1657	10	C22H21FN+
353.2683	4	C16H36FN3O4+
362.1545	23	C26H20NO+
380.1659	74	C23H23FNO3+
380.202	10	C24H27FNO2+
398.1758	31	C23H25FNO4+
404.2021	23	C26H27FNO2+
422.2127	114	C26H29FNO3+
424.1551	9	C30H20N2O+
430.18	10	C30H24NO2+
440.2231	999	C26H31FNO4+
448.1916	7	C27H27FNO4+
466.203	67	C27H29FNO5+
