Mass spectrum: Medazepam; LC-ESI-QFT; MS2; CE: 30; R=35000; [M+H]+
Name: Medazepam
Name: 7-chloranyl-1-methyl-5-phenyl-2,3-dihydro-1,4-benzodiazepine
Formula: C16H15ClN2
Exact mass: 270.09238
SMILES: CN1CCN=C(C2=C1C=CC(=C2)Cl)C3=CC=CC=C3
InChI: InChI=1S/C16H15ClN2/c1-19-10-9-18-16(12-5-3-2-4-6-12)14-11-13(17)7-8-15(14)19/h2-8,11H,9-10H2,1H3
Instrument: Q Exactive Orbitrap Thermo Scientific
Instrument type: LC-ESI-QFT
Ms type: MS2
Ion mode: POSITIVE
Ionization: ESI
Fragmentation mode: HCD
Collision energy: 30 (nominal)
Resolution: 35000
Column name: XBridge C18 3.5um, 2.1x50mm, Waters
Retention time: 6.5 min
Base peak: 271.0999
Precursor m/z: 271.0997
Precursor type: [M+H]+
m/z	relative intensity	assigned
91.0541	31	C7H7+
106.0652	4	C7H8N+
117.0572	1	C8H7N+
120.0807	1	C8H10N+
152.026	2	C8H7ClN+
165.0214	3	C8H6ClN2+
166.0419	4	C9H9ClN+
179.037	2	C9H8ClN2+
180.0448	66	C9H9ClN2+
206.0959	1	C15H12N+
207.1044	16	C15H13N+
218.0966	1	C16H12N+
219.1043	7	C16H13N+
228.0575	8	C14H11ClN+
230.0732	3	C14H13ClN+
235.123	1	C16H15N2+
236.1312	2	C16H16N2+
242.0731	94	C15H13ClN+
243.081	1	C15H14ClN+
244.0889	1	C15H15ClN+
254.0732	17	C16H13ClN+
256.0764	1	C15H13ClN2+
271.0996	999	C16H16ClN2+
