Mass spectrum: Atazanavir; LC-ESI-QFT; MS2; CE: 45; R=35000; [M-H]-
Name: Atazanavir
Name: N-[(1S)-1-[[(1S,2S)-1-benzyl-3-[[[(2S)-2-(carbomethoxyamino)-3,3-dimethyl-butanoyl]amino]-[4-(2-pyridyl)benzyl]amino]-2-hydroxy-propyl]carbamoyl]-2,2-dimethyl-propyl]carbamic acid methyl ester
Formula: C38H52N6O7
Exact mass: 704.38975
SMILES: CC(C)(C)C(C(=O)NC(CC1=CC=CC=C1)C(CN(CC2=CC=C(C=C2)C3=CC=CC=N3)NC(=O)C(C(C)(C)C)NC(=O)OC)O)NC(=O)OC
InChI: InChI=1S/C38H52N6O7/c1-37(2,3)31(41-35(48)50-7)33(46)40-29(22-25-14-10-9-11-15-25)30(45)24-44(43-34(47)32(38(4,5)6)42-36(49)51-8)23-26-17-19-27(20-18-26)28-16-12-13-21-39-28/h9-21,29-32,45H,22-24H2,1-8H3,(H,40,46)(H,41,48)(H,42,49)(H,43,47)/t29-,30-,31+,32+/m0/s1
Instrument: Q Exactive Orbitrap Thermo Scientific
Instrument type: LC-ESI-QFT
Ms type: MS2
Ion mode: NEGATIVE
Ionization: ESI
Fragmentation mode: HCD
Collision energy: 45 (nominal)
Resolution: 35000
Column name: XBridge C18 3.5um, 2.1x50mm, Waters
Retention time: 11.8 min
Base peak: 703.3829
Precursor m/z: 703.3825
Precursor type: [M-H]-
m/z	relative intensity	assigned
97.0044	21	C3HN2O2-
98.0122	258	C3H2N2O2-
99.02	5	C3H3N2O2-
116.0507	1	C8H6N-
126.0309	1	C4H4N3O2-
139.0512	3	C6H7N2O2-
153.0672	4	C7H9N2O2-
154.0752	1	C7H10N2O2-
155.0826	999	C7H11N2O2-
168.0817	3	C12H10N-
182.0936	1	C8H12N3O2-
193.077	3	C13H9N2-
195.0927	45	C13H11N2-
230.0698	3	C12H10N2O3-
287.1403	5	C16H19N2O3-
