Mass spectrum: 4-Isopropylaniline; LC-ESI-ITFT; MS2; CE: 45%; R=7500; [M+H]+
Name: 4-Isopropylaniline
Name: 4-propan-2-ylaniline
Formula: C9H13N
Exact mass: 135.1048
SMILES: c1(C(C)C)ccc(N)cc1
InChI: InChI=1S/C9H13N/c1-7(2)8-3-5-9(10)6-4-8/h3-7H,10H2,1-2H3
Instrument: LTQ Orbitrap XL Thermo Scientific
Instrument type: LC-ESI-ITFT
Ms type: MS2
Ion mode: POSITIVE
Ionization: ESI
Fragmentation mode: HCD
Collision energy: 45 % (nominal)
Resolution: 7500
Column name: XBridge C18 3.5um, 2.1x50mm, Waters
Retention time: 5.2 min
Base peak: 136.112
Precursor m/z: 136.1121
Precursor type: [M+H]+
m/z	relative intensity	assigned
91.0539	2	C7H7+
94.065	81	C6H8N+
104.0624	2	C8H8+
121.0883	1	C8H11N+
136.1119	999	C9H14N+
147.092	4	C9H11N2+
