Mass spectrum: Midazolam; LC-ESI-QFT; MS2; CE: 45; R=35000; [M+H]+
Name: Midazolam
Name: 8-chloranyl-6-(2-fluorophenyl)-1-methyl-4H-imidazo[1,5-a][1,4]benzodiazepine
Formula: C18H13ClFN3
Exact mass: 325.07820
SMILES: CC1=NC=C2N1C3=C(C=C(C=C3)Cl)C(=NC2)C4=CC=CC=C4F
InChI: InChI=1S/C18H13ClFN3/c1-11-21-9-13-10-22-18(14-4-2-3-5-16(14)20)15-8-12(19)6-7-17(15)23(11)13/h2-9H,10H2,1H3
Instrument: Q Exactive Orbitrap Thermo Scientific
Instrument type: LC-ESI-QFT
Ms type: MS2
Ion mode: POSITIVE
Ionization: ESI
Fragmentation mode: HCD
Collision energy: 45 (nominal)
Resolution: 35000
Column name: XBridge C18 3.5um, 2.1x50mm, Waters
Retention time: 6.5 min
Base peak: 326.086
Precursor m/z: 326.0855
Precursor type: [M+H]+
m/z	relative intensity	assigned
95.0604	3	C5H7N2+
128.0495	1	C9H6N+
129.0573	6	C9H7N+
137.0152	1	C8H6Cl+
148.0557	1	C9H7FN+
152.0262	3	C8H7ClN+
164.0261	11	C9H7ClN+
169.0761	3	C11H9N2+
170.0839	9	C11H10N2+
173.0514	1	C10H6FN2+
183.0606	3	C13H8F+
184.0682	5	C13H9F+
189.0215	10	C10H6ClN2+
189.0823	9	C11H10FN2+
195.0796	1	C12H9N3+
196.0682	7	C14H9F+
203.0737	1	C15H9N+
205.0529	17	C11H10ClN2+
208.056	24	C14H7FN+
209.0637	85	C14H8FN+
214.0774	7	C12H9FN3+
215.0855	5	C17H11+
217.0216	3	C13H7ClF+
222.0712	9	C15H9FN+
223.0794	18	C15H10FN+
224.0265	2	C14H7ClN+
227.0742	1	C11H13ClFN2+
229.0765	1	C16H9N2+
230.0481	28	C12H9ClN3+
231.0373	7	C14H9ClF+
231.0555	7	C12H10ClN3+
232.0325	3	C13H8ClFN+
236.0868	1	C16H11FN+
243.0923	3	C17H11N2+
244.0326	265	C14H8ClFN+
245.0405	9	C14H9ClFN+
249.0824	111	C16H10FN2+
250.0902	68	C16H11FN2+
255.0692	2	C15H12ClN2+
257.0399	9	C15H9ClFN+
258.0482	48	C15H10ClFN+
263.098	5	C17H12FN2+
264.106	2	C17H13FN2+
265.0529	20	C16H10ClN2+
268.0331	3	C16H8ClFN+
270.1027	14	C18H12N3+
271.1103	5	C18H13N3+
272.0509	1	C15H10ClFN2+
273.0593	1	C15H11ClFN2+
273.0827	1	C18H10FN2+
274.0906	4	C18H11FN2+
276.0927	1	C17H11FN3+
282.049	1	C17H10ClFN+
283.0431	1	C16H9ClFN2+
284.0512	13	C16H10ClFN2+
285.0591	142	C16H11ClFN2+
289.0531	6	C18H10ClN2+
289.101	4	C18H12FN3+
290.109	176	C18H13FN3+
291.1167	999	C18H14FN3+
297.0595	7	C17H11ClFN2+
298.0665	1	C17H12ClFN2+
299.0747	13	C17H13ClFN2+
306.0795	18	C18H13ClN3+
309.0591	55	C18H11ClFN2+
311.0618	10	C17H11ClFN3+
325.0779	22	C18H13ClFN3+
326.0857	779	C18H14ClFN3+
