Mass spectrum: NOA407475; LC-ESI-QFT; MS2; CE: 120; R=35000; [M+H]+
Name: NOA407475
Name: 3-[(2-chloro-1,3-thiazol-5-yl)methyl]-5-methyl-1,3,5-oxadiazinan-4-imine
Name: 3-(2-chloro-thiazol-5-ylmethyl)-5-methyl-[1,3,5]oxadiazinan-4-ylideneamine
Formula: C8H11ClN4OS
Exact mass: 246.03421
SMILES: Clc2ncc(CN1COCN(C)C1=N)s2
InChI: InChI=1S/C8H11ClN4OS/c1-12-4-14-5-13(8(12)10)3-6-2-11-7(9)15-6/h2,10H,3-5H2,1H3
Instrument: Q Exactive Plus Orbitrap Thermo Scientific
Instrument type: LC-ESI-QFT
Ms type: MS2
Ion mode: POSITIVE
Ionization: ESI
Fragmentation mode: HCD
Collision energy: 120 (nominal)
Resolution: 35000
Column name: XBridge C18 3.5um, 2.1x50mm, Waters
Retention time: 2.3 min
Base peak: 247.0413
Precursor m/z: 247.0415
Precursor type: [M+H]+
m/z	relative intensity	assigned
54.0339	8	C3H4N+
55.0291	4	C2H3N2+
57.0448	218	C2H5N2+
58.995	10	C2H3S+
59.9665	25	COS+
60.984	1	C2H2Cl+
61.9792	50	CHClN+
67.0417	1	C4H5N+
68.9793	9	C3HS+
69.0447	3	C3H5N2+
69.9872	6	C3H2S+
70.995	999	C3H3S+
71.9903	1	C2H2NS+
72.0028	22	C3H4S+
78.9404	81	CClS+
86.0059	1	C3H4NS+
87.9949	109	C3H3ClN+
95.9903	6	C4H2NS+
96.9981	3	C4H3NS+
98.006	147	C4H4NS+
104.9561	3	C3H2ClS+
119.967	53	C3H3ClNS+
131.967	902	C4H3ClNS+
132.9748	231	C4H4ClNS+
133.9826	1	C4H5ClNS+
149.9776	3	C4H5ClNOS+
