Mass spectrum: Florfenicol; LC-ESI-QFT; MS2; CE: 90; R=35000; [M+H]+
Name: Florfenicol
Name: 2,2-dichloro-N-{3-fluoro-1-hydroxy-1-[4-(methylsulfonyl)phenyl]propan-2-yl}acetamide
Name: 2,2-dichloro-N-[3-fluoro-1-hydroxy-1-(4-methylsulfonylphenyl)propan-2-yl]acetamide
Formula: C12H14Cl2FNO4S
Exact mass: 357.00046
SMILES: CS(=O)(=O)C1=CC=C(C=C1)C(C(CF)NC(=O)C(Cl)Cl)O
InChI: InChI=1S/C12H14Cl2FNO4S/c1-21(19,20)8-4-2-7(3-5-8)10(17)9(6-15)16-12(18)11(13)14/h2-5,9-11,17H,6H2,1H3,(H,16,18)
Instrument: Q Exactive Plus Orbitrap Thermo Scientific
Instrument type: LC-ESI-QFT
Ms type: MS2
Ion mode: POSITIVE
Ionization: ESI
Fragmentation mode: HCD
Collision energy: 90 (nominal)
Resolution: 35000
Column name: XBridge C18 3.5um, 2.1x50mm, Waters
Retention time: 4.6 min
Base peak: 390.0331
Precursor m/z: 358.0077
Precursor type: [M+H]+
m/z	relative intensity	assigned
50.015	2	C4H2+
51.0229	3	C4H3+
53.0386	6	C4H5+
55.0178	1	C3H3O+
60.0244	1	C2H3FN+
62.0149	1	C5H2+
65.0385	2	C5H5+
77.0383	9	C6H5+
78.0464	25	C6H6+
78.9848	9	CH3O2S+
79.0541	2	C6H7+
82.945	428	CHCl2+
89.0385	4	C7H5+
90.0464	5	C7H6+
91.0543	24	C7H7+
92.0621	3	C7H8+
95.0491	24	C6H7O+
102.0464	25	C8H6+
103.0542	829	C8H7+
104.0496	4	C7H6N+
104.062	67	C8H8+
105.0334	8	C7H5O+
105.0447	17	C6H5N2+
105.07	3	C8H9+
107.049	15	C7H7O+
109.9559	8	C2H2Cl2N+
114.0462	4	C9H6+
115.0542	380	C9H7+
116.0494	24	C8H6N+
116.0618	3	C9H8+
117.0573	15	C8H7N+
117.0699	3	C9H9+
118.0413	2	C8H6O+
118.0651	17	C8H8N+
119.0493	1	C8H7O+
121.0649	3	C8H9O+
125.0393	2	C7H6FO+
126.0464	8	C10H6+
127.0542	47	C10H7+
128.0621	372	C10H8+
129.0573	22	C9H7N+
130.0651	999	C9H8N+
131.0491	367	C9H7O+
131.0729	153	C9H9N+
132.0569	150	C9H8O+
133.0447	61	C9H6F+
134.0525	19	C9H7F+
134.06	12	C8H8NO+
135.0605	1	C9H8F+
140.0494	18	C10H6N+
141.0101	1	C7H6ClO+
141.0573	11	C10H7N+
142.0652	166	C10H8N+
143.049	5	C10H7O+
143.0605	4	C3H13NO3S+
143.0729	14	C10H9N+
144.0443	2	C9H6NO+
145.0648	64	C10H9O+
146.0599	3	C9H8NO+
149.0154	2	CH8FNO4S+
150.0231	6	C9H7Cl+
150.0712	2	C9H9FN+
151.0793	5	C9H10FN+
152.0496	7	C11H6N+
153.0574	13	C11H7N+
155.0604	180	C4H13NO3S+
158.06	3	C10H8NO+
160.0757	2	C10H10NO+
161.047	2	C9H7NO2+
162.023	9	C10H7Cl+
163.0309	14	C10H8Cl+
163.0628	5	C9H9NO2+
170.0601	187	C11H8NO+
171.0677	7	C11H9NO+
177.0338	3	C10H8ClN+
178.0419	4	C10H9ClN+
179.0254	1	C10H8ClO+
180.0558	3	C11H6N3+
183.0688	3	C9H10FNO2+
188.0261	15	C11H7ClN+
189.0213	7	C7H9O4S+
197.0505	2	C9H11NO2S+
206.0366	4	C11H9ClNO+
