Mass spectrum: Thiabendazole; LC-ESI-QFT; MS2; CE: 90; R=35000; [M+H]+
Name: Thiabendazole
Name: 2-(4-Thiazolyl)benzimidazole
Name: 4-(1H-benzimidazol-2-yl)-1,3-thiazole
Formula: C10H7N3S
Exact mass: 201.03607
SMILES: c1(c2cscn2)[nH]c2ccccc2n1
InChI: InChI=1S/C10H7N3S/c1-2-4-8-7(3-1)12-10(13-8)9-5-14-6-11-9/h1-6H,(H,12,13)
Instrument: Q Exactive Orbitrap Thermo Scientific
Instrument type: LC-ESI-QFT
Ms type: MS2
Ion mode: POSITIVE
Ionization: ESI
Fragmentation mode: HCD
Collision energy: 90 (nominal)
Resolution: 35000
Column name: XBridge C18 3.5um, 2.1x50mm, Waters
Retention time: 4.2 min
Base peak: 202.0433
Precursor m/z: 202.0433
Precursor type: [M+H]+
m/z	relative intensity	assigned
65.0387	195	C5H5+
83.9901	1	C3H2NS+
92.0494	190	C6H6N+
104.0495	48	C7H6N+
110.06	3	C6H8NO+
111.001	2	C4H3N2S+
117.0574	2	C8H7N+
118.0525	13	C7H6N2+
119.0604	3	C7H7N2+
129.045	5	C8H5N2+
131.0604	898	C8H7N2+
134.0058	24	C7H4NS+
142.0526	4	C9H6N2+
143.0604	77	C9H7N2+
148.0214	4	C8H6NS+
152.0163	6	C7H6NOS+
157.0634	13	C9H7N3+
158.0712	28	C9H8N3+
161.017	4	C8H5N2S+
162.0244	1	C8H6N2S+
168.0554	4	C10H6N3+
169.0635	5	C10H7N3+
170.0712	19	C10H8N3+
174.0248	5	C9H6N2S+
175.0324	999	C9H7N2S+
202.0433	200	C10H8N3S+
