Mass spectrum: Butocarboxim Sulfoxide; LC-ESI-QFT; MS2; CE: 30%; R=17500; [M+H]+
Name: Butocarboxim Sulfoxide
Name: 2-Butanone, 3-(methylsulfinyl)-, O-[(methylamino)carbonyl]oxime
Name: (3-methylsulfinylbutan-2-ylideneamino) N-methylcarbamate
Formula: C7H14N2O3S
Exact mass: 206.0725
SMILES: CC(C(=NOC(=O)NC)C)S(=O)C
InChI: InChI=1S/C7H14N2O3S/c1-5(6(2)13(4)11)9-12-7(10)8-3/h6H,1-4H3,(H,8,10)
Instrument: Exploris 240 Orbitrap Thermo Scientific
Instrument type: LC-ESI-QFT
Ms type: MS2
Ion mode: POSITIVE
Ionization: ESI
Fragmentation mode: HCD
Collision energy: 30 % (nominal)
Resolution: 17500
Column name: XBridge C18 3.5um, 2.1x50mm, Waters
Retention time: 1.992 min
Base peak: 207.0798
Precursor m/z: 207.0798
Precursor type: [M+H]+
m/z	relative intensity	assigned
46.995	43	CH3S+
62.9901	7	CH3OS+
69.0573	149	C4H7N+
70.0651	29	C4H8N+
73.0107	234	C3H5S+
75.0263	999	C3H7S+
86.06	42	C4H8NO+
87.0679	31	C4H9NO+
88.0215	455	C3H6NS+
90.0372	425	C3H8NS+
91.0212	126	C3H7OS+
132.0477	155	C5H10NOS+
150.0582	34	C5H12NO2S+
