Mass spectrum: Nitenpyram; LC-ESI-QFT; MS2; CE: 60%; R=17500; [M+H]+
Name: Nitenpyram
Name: N-((6-chloropyridin-3-yl)methyl)-N-ethyl-N`-methyl-2-nitroethene-1,1-diamine
Name: 1-N`-[(6-chloropyridin-3-yl)methyl]-1-N`-ethyl-1-N-methyl-2-nitroethene-1,1-diamine
Formula: C11H15ClN4O2
Exact mass: 270.0884
SMILES: CCN(CC1=CN=C(C=C1)Cl)C(=C[N+](=O)[O-])NC
InChI: InChI=1S/C11H15ClN4O2/c1-3-15(11(13-2)8-16(17)18)7-9-4-5-10(12)14-6-9/h4-6,8,13H,3,7H2,1-2H3
Instrument: Exploris 240 Orbitrap Thermo Scientific
Instrument type: LC-ESI-QFT
Ms type: MS2
Ion mode: POSITIVE
Ionization: ESI
Fragmentation mode: HCD
Collision energy: 60 % (nominal)
Resolution: 17500
Column name: XBridge C18 3.5um, 2.1x50mm, Waters
Retention time: 2.582 min
Base peak: 271.0955
Precursor m/z: 271.0956
Precursor type: [M+H]+
m/z	relative intensity	assigned
56.0495	999	C3H6N+
57.0447	9	C2H5N2+
57.0573	19	C3H7N+
58.0288	12	C2H4NO+
58.0652	71	C3H8N+
70.0525	18	C3H6N2+
70.0651	13	C4H8N+
71.024	10	C2H3N2O+
85.0396	16	C3H5N2O+
85.0762	12	C4H9N2+
85.0887	6	C5H11N+
86.0839	51	C4H10N2+
98.0714	22	C4H8N3+
99.0917	123	C5H11N2+
112.0869	20	C5H10N3+
126.0105	131	C6H5ClN+
128.0261	9	C6H7ClN+
160.0871	17	C9H10N3+
169.0531	71	C8H10ClN2+
179.0372	26	C9H8ClN2+
181.0526	15	C9H10ClN2+
190.1336	32	C11H16N3+
193.0536	10	C10H10ClN2+
195.0682	23	C10H12ClN2+
196.0638	95	C9H11ClN3+
210.079	27	C10H13ClN3+
224.0951	86	C11H15ClN3+
237.0902	25	C11H14ClN4+
