Mass spectrum: Nicosulfuron-TP AUSN; LC-ESI-QFT; MS2; CE: 60%; R=17500; [M-H]-
Name: Nicosulfuron-TP AUSN
Name: 2-(diaminomethylidenecarbamoylsulfamoyl)-N,N-dimethylpyridine-3-carboxamide
Formula: C10H14N6O4S
Exact mass: 314.0797
SMILES: CN(C)C(=O)C1=CC=CN=C1S(=O)(=O)NC(=O)NC(N)=N
InChI: InChI=1S/C10H14N6O4S/c1-16(2)8(17)6-4-3-5-13-7(6)21(19,20)15-10(18)14-9(11)12/h3-5H,1-2H3,(H5,11,12,14,15,18)
Instrument: Q Exactive Plus Orbitrap Thermo Scientific
Instrument type: LC-ESI-QFT
Ms type: MS2
Ion mode: NEGATIVE
Ionization: ESI
Fragmentation mode: HCD
Collision energy: 60 % (nominal)
Resolution: 17500
Column name: XBridge C18 3.5um, 2.1x50mm, Waters
Retention time: 1.351 min
Base peak: 313.0724
Precursor m/z: 313.0724
Precursor type: [M-H]-
m/z	relative intensity	assigned
55.0301	7	C2H3N2-
58.0298	140	C2H4NO-
58.041	33	CH4N3-
61.9706	128	NOS-
63.9625	89	O2S-
70.0296	22	C3H4NO-
76.0192	18	C5H2N-
77.9656	90	NO2S-
78.9734	55	HNO2S-
79.9811	94	H2NO2S-
93.0458	685	C5H5N2-
94.0298	999	C5H4NO-
103.0301	159	C6H3N2-
107.0617	10	C6H7N2-
117.0457	45	C7H5N2-
119.0251	288	C6H3N2O-
119.0614	18	C7H7N2-
121.0407	176	C6H5N2O-
122.0239	10	C4H2N4O-
131.0489	94	C7H5N3-
132.033	62	C7H4N2O-
133.0404	17	C7H5N2O-
134.0721	20	C7H8N3-
136.0878	36	C7H10N3-
141.9968	26	C5H4NO2S-
144.0562	30	H10N5O2S-
146.0726	55	C8H8N3-
147.0436	204	C7H5N3O-
147.056	57	H11N4O3S-
149.0593	399	C7H7N3O-
150.0432	51	C7H6N2O2-
162.0673	338	C8H8N3O-
164.083	236	C8H10N3O-
165.0669	203	C8H9N2O2-
181.0076	197	C7H5N2O2S-
182.9868	631	C6H3N2O3S-
210.0344	119	C8H8N3O2S-
228.0449	35	C8H10N3O3S-
