Mass spectrum: Propranolol; LC-ESI-ITFT; MS2; CE: 45%; R=15000; [M+H]+
Name: Propranolol
Name: 1-(1-naphthalenyloxy)-3-(propan-2-ylamino)-2-propanol
Formula: C16H21NO2
Exact mass: 259.1572
SMILES: CC(C)NCC(COC1=CC=CC2=CC=CC=C21)O
InChI: InChI=1S/C16H21NO2/c1-12(2)17-10-14(18)11-19-16-9-5-7-13-6-3-4-8-15(13)16/h3-9,12,14,17-18H,10-11H2,1-2H3
Instrument: LTQ Orbitrap XL Thermo Scientific
Instrument type: LC-ESI-ITFT
Ms type: MS2
Ion mode: POSITIVE
Ionization: ESI
Fragmentation mode: HCD
Collision energy: 45 % (nominal)
Resolution: 15000
Column name: XBridge C18 3.5um, 2.1x50mm, Waters
Retention time: 6.6 min
Base peak: 260.165
Precursor m/z: 260.1645
Precursor type: [M+H]+
m/z	relative intensity	assigned
56.0494	158	C3H6N+
58.0651	183	C3H8N+
72.0807	233	C4H10N+
74.06	380	C3H8NO+
84.0807	7	C5H10N+
86.0964	51	C5H12N+
98.0964	358	C6H12N+
100.112	62	C6H14N+
116.1069	999	C6H14NO+
129.0698	42	C10H9+
141.0697	47	C11H9+
143.049	25	C10H7O+
145.0647	62	C10H9O+
153.07	25	C12H9+
155.0854	224	C12H11+
157.0647	427	C11H9O+
165.0696	67	C13H9+
168.0566	14	C12H8O+
171.0805	19	C12H11O+
183.0803	906	C13H11O+
218.1174	125	C13H16NO2+
260.1639	748	C16H22NO2+
