Mass spectrum: Paichongding; LC-ESI-QFT; MS2; CE: 90%; R=17500; [M+H]+
Name: Paichongding
Name: 1-[(6-chloropyridin-3-yl)methyl]-7-methyl-8-nitro-5-propoxy-3,5,6,7-tetrahydro-2H-imidazo[1,2-a]pyridine
Formula: C17H23ClN4O3
Exact mass: 366.1459
SMILES: CCCOC1CC(C(=C2N1CCN2CC3=CN=C(C=C3)Cl)[N+](=O)[O-])C
InChI: InChI=1S/C17H23ClN4O3/c1-3-8-25-15-9-12(2)16(22(23)24)17-20(6-7-21(15)17)11-13-4-5-14(18)19-10-13/h4-5,10,12,15H,3,6-9,11H2,1-2H3
Instrument: Exploris 240 Orbitrap Thermo Scientific
Instrument type: LC-ESI-QFT
Ms type: MS2
Ion mode: POSITIVE
Ionization: ESI
Fragmentation mode: HCD
Collision energy: 90 % (nominal)
Resolution: 17500
Column name: XBridge C18 3.5um, 2.1x50mm, Waters
Retention time: 5.460 min
Base peak: 367.1531
Precursor m/z: 367.1531
Precursor type: [M+H]+
m/z	relative intensity	assigned
56.0495	91	C3H6N+
68.0494	8	C4H6N+
70.0649	7	C4H8N+
71.0491	112	C4H7O+
80.0493	15	C5H6N+
83.0604	12	C4H7N2+
84.0683	16	C4H8N2+
90.0338	75	C6H4N+
95.0601	18	C5H7N2+
96.0684	10	C5H8N2+
98.9995	37	C5H4Cl+
107.06	32	C6H7N2+
108.0681	11	C6H8N2+
109.076	107	C6H9N2+
110.0837	28	C6H10N2+
119.0604	62	C7H7N2+
120.0682	70	C7H8N2+
121.076	162	C7H9N2+
123.092	8	C7H11N2+
126.0105	999	C6H5ClN+
133.0759	26	C8H9N2+
135.0916	24	C8H11N2+
137.1073	390	C8H13N2+
169.0525	17	C8H10ClN2+
220.0641	40	C11H11ClN3+
234.0795	81	C12H13ClN3+
236.0945	26	C15H12N2O+
246.0794	53	C13H13ClN3+
264.0898	41	C13H15ClN3O+
