Mass spectrum: Carbetamide; LC-ESI-ITFT; MS2; CE: 45%; R=7500; [M+H]+
Name: Carbetamide
Name: N-phenylcarbamic acid [1-(ethylamino)-1-oxopropan-2-yl] ester
Formula: C12H16N2O3
Exact mass: 236.1155
SMILES: CCNC(=O)C(C)OC(=O)NC1=CC=CC=C1
InChI: InChI=1S/C12H16N2O3/c1-3-13-11(15)9(2)17-12(16)14-10-7-5-4-6-8-10/h4-9H,3H2,1-2H3,(H,13,15)(H,14,16)
Instrument: LTQ Orbitrap XL Thermo Scientific
Instrument type: LC-ESI-ITFT
Ms type: MS2
Ion mode: POSITIVE
Ionization: ESI
Fragmentation mode: HCD
Collision energy: 45 % (nominal)
Resolution: 7500
Column name: XBridge C18 3.5um, 2.1x50mm, Waters
Retention time: 6.6 min
Base peak: 259.1057
Precursor m/z: 237.1234
Precursor type: [M+H]+
m/z	relative intensity	assigned
72.0443	65	C3H6NO+
72.0808	624	C4H10N+
77.0386	33	C6H5+
92.0495	163	C6H6N+
100.0757	222	C5H10NO+
118.0863	999	C5H12NO2+
120.0444	806	C7H6NO+
192.0649	9	C10H10NO3+
