Mass spectrum: Iobitridol; LC-ESI-ITFT; MS2; CE: 30%; R=15000; [M+H]+
Name: Iobitridol
Name: 1,3-Benzenedicarboxamide, N,N'-bis(2,3-dihydroxypropyl)-5-((5-hydroxy-2-(hydroxymethyl)-1-oxopropyl)amino)-2,4,6-triiodo-N,N'-dimethyl-
Name: 1-N,3-N-bis(2,3-dihydroxypropyl)-5-[[3-hydroxy-2-(hydroxymethyl)propanoyl]amino]-2,4,6-triiodo-1-N,3-N-dimethylbenzene-1,3-dicarboxamide
Formula: C20H28I3N3O9
Exact mass: 834.8960
SMILES: Ic1c(c(I)c(c(I)c1NC(=O)C(CO)CO)C(=O)N(CC(O)CO)C)C(=O)N(CC(O)CO)C
InChI: InChI=1S/C20H28I3N3O9/c1-25(3-10(31)7-29)19(34)12-14(21)13(20(35)26(2)4-11(32)8-30)16(23)17(15(12)22)24-18(33)9(5-27)6-28/h9-11,27-32H,3-8H2,1-2H3,(H,24,33)
Instrument: LTQ Orbitrap XL Thermo Scientific
Instrument type: LC-ESI-ITFT
Ms type: MS2
Ion mode: POSITIVE
Ionization: ESI
Fragmentation mode: HCD
Collision energy: 30 % (nominal)
Resolution: 15000
Column name: XBridge C18 3.5um, 2.1x50mm, Waters
Retention time: 1.6 min
Base peak: 149.0023
Precursor m/z: 835.9032
Precursor type: [M+H]+
m/z	relative intensity	assigned
88.0759	74	C4H10NO+
196.1676	49	C10H20N4+
293.8855	97	C3H3IO8+
321.1083	83	C15H17N2O6+
325.9293	33	C11H5INO3+
369.9199	28	C12H5INO5+
400.9993	450	C14H14IN2O4+
405.9435	36	C12H9INO7+
416.9975	46	C17H12IN3O2+
426.9779	32	C15H12IN2O5+
431.0103	93	C15H16IN2O5+
449.0201	335	C15H18IN2O6+
456.9907	55	C19H12IN3O3+
474.9996	502	C16H16IN2O7+
497.8318	37	C12H6I2NO5+
554.8892	83	C15H13I2N2O5+
584.9022	75	C19H13I2N3O3+
602.9118	999	C16H17I2N2O7+
625.7443	48	C12H7I3NO5+
628.7913	91	C12H12I3N2O4+
689.982	57	C20H26I2N3O8+
