Mass spectrum: Mandestrobin; LC-ESI-QFT; MS2; CE: 150%; R=17500; [M+H]+
Name: Mandestrobin
Name: 2-[2-[(2,5-dimethylphenoxy)methyl]phenyl]-2-methoxy-N-methylacetamide
Formula: C19H23NO3
Exact mass: 313.1678
SMILES: CC1=CC(=C(C=C1)C)OCC2=CC=CC=C2C(C(=O)NC)OC
InChI: InChI=1S/C19H23NO3/c1-13-9-10-14(2)17(11-13)23-12-15-7-5-6-8-16(15)18(22-4)19(21)20-3/h5-11,18H,12H2,1-4H3,(H,20,21)
Instrument: Exploris 240 Orbitrap Thermo Scientific
Instrument type: LC-ESI-QFT
Ms type: MS2
Ion mode: POSITIVE
Ionization: ESI
Fragmentation mode: HCD
Collision energy: 150 % (nominal)
Resolution: 17500
Column name: XBridge C18 3.5um, 2.1x50mm, Waters
Retention time: 11.127 min
Base peak: 314.1748
Precursor m/z: 314.1751
Precursor type: [M+H]+
m/z	relative intensity	assigned
51.0229	43	C4H3+
53.0386	29	C4H5+
58.0288	20	C2H4NO+
63.0229	24	C5H3+
65.0385	715	C5H5+
77.0385	118	C6H5+
78.0462	38	C6H6+
79.0543	30	C6H7+
89.0384	119	C7H5+
90.0463	204	C7H6+
91.0542	999	C7H7+
95.0492	24	C6H7O+
103.0542	76	C8H7+
105.0701	22	C8H9+
115.0545	32	C9H7+
116.0496	75	C8H6N+
117.0573	239	C8H7N+
118.065	49	C8H8N+
119.0489	22	C8H7O+
130.0651	75	C9H8N+
131.073	102	C9H9N+
132.081	33	C9H10N+
165.07	72	C13H9+
178.078	27	C14H10+
