Mass spectrum: Normianserin; LC-ESI-QFT; MS2; CE: 30; R=35000; [M+H]+
Name: Normianserin
Name: N-desmethylmianserin
Name: 1,2,3,4,10,14b-Hexahydrodibenzo[c,f]pyrazino[1,2-a]azepine
Formula: C17H18N2
Exact mass: 250.14700
SMILES: C3c1ccccc1C2CNCCN2c4ccccc34
InChI: InChI=1S/C17H18N2/c1-3-7-15-13(5-1)11-14-6-2-4-8-16(14)19-10-9-18-12-17(15)19/h1-8,17-18H,9-12H2
Instrument: Q Exactive Plus Orbitrap Thermo Scientific
Instrument type: LC-ESI-QFT
Ms type: MS2
Ion mode: POSITIVE
Ionization: ESI
Fragmentation mode: HCD
Collision energy: 30 (nominal)
Resolution: 35000
Column name: XBridge C18 3.5um, 2.1x50mm, Waters
Retention time: 6.7 min
Base peak: 251.1539
Precursor m/z: 251.1543
Precursor type: [M+H]+
m/z	relative intensity	assigned
71.0603	4	C3H7N2+
105.0698	1	C8H9+
106.0649	1	C7H8N+
117.0697	1	C9H9+
118.065	39	C8H8N+
120.0807	26	C8H10N+
130.0647	1	C9H8N+
132.0807	37	C9H10N+
134.0963	14	C9H12N+
144.0807	12	C10H10N+
146.0965	1	C10H12N+
147.0916	19	C9H11N2+
158.0963	10	C11H12N+
160.0994	1	C10H12N2+
179.0856	4	C14H11+
194.0959	1	C14H12N+
196.1119	5	C14H14N+
205.0882	1	C15H11N+
206.0962	1	C15H12N+
208.112	199	C15H14N+
220.1123	1	C16H14N+
222.1275	2	C16H16N+
223.1231	1	C15H15N2+
234.1276	29	C17H16N+
249.1386	14	C17H17N2+
251.1541	999	C17H19N2+
