Mass spectrum: Metolachlor; LC-ESI-ITFT; MS2; CE: 90%; R=7500; [M+H]+
Name: Metolachlor
Name: 2-chloranyl-N-(2-ethyl-6-methyl-phenyl)-N-(1-methoxypropan-2-yl)ethanamide
Formula: C15H22ClNO2
Exact mass: 283.1334
SMILES: CCC1=CC=CC(=C1N(C(C)COC)C(=O)CCl)C
InChI: InChI=1S/C15H22ClNO2/c1-5-13-8-6-7-11(2)15(13)17(14(18)9-16)12(3)10-19-4/h6-8,12H,5,9-10H2,1-4H3
Instrument: LTQ Orbitrap XL Thermo Scientific
Instrument type: LC-ESI-ITFT
Ms type: MS2
Ion mode: POSITIVE
Ionization: ESI
Fragmentation mode: HCD
Collision energy: 90 % (nominal)
Resolution: 7500
Column name: XBridge C18 3.5um, 2.1x50mm, Waters
Retention time: 11.8 min
Base peak: 306.1236
Precursor m/z: 284.1412
Precursor type: [M+H]+
m/z	relative intensity	assigned
73.0647	109	C4H9O+
76.9791	50	C2H2ClO+
79.0545	77	C6H7+
91.0543	722	C7H7+
93.0573	53	C6H7N+
93.07	111	C7H9+
103.0541	85	C8H7+
104.0624	48	C8H8+
105.0699	90	C8H9+
106.0654	46	C7H8N+
107.0732	67	C7H9N+
107.086	44	C8H11+
108.0808	389	C7H10N+
109.0649	106	C7H9O+
115.0542	160	C9H7+
117.07	388	C9H9+
118.0653	168	C8H8N+
119.073	340	C8H9N+
119.0856	242	C9H11+
120.0809	332	C8H10N+
130.0652	143	C9H8N+
131.073	303	C9H9N+
132.0808	432	C9H10N+
133.0887	946	C9H11N+
134.0965	999	C9H12N+
136.1119	45	C9H14N+
143.073	243	C10H9N+
144.0809	347	C10H10N+
145.0887	300	C10H11N+
146.0965	673	C10H12N+
147.1042	51	C10H13N+
148.1119	129	C10H14N+
158.0964	240	C11H12N+
159.1042	160	C11H13N+
160.1122	448	C11H14N+
162.0917	81	C10H12NO+
176.1435	483	C12H18N+
184.0526	133	C9H11ClNO+
