Mass spectrum: 5-methyl-1-phenyl-2(1H)-Pyridone; LC-ESI-QFT; MS2; CE: 45%; R=15000; [M+H]+
Name: 5-methyl-1-phenyl-2(1H)-Pyridone
Name: Pirfenidone
Name: 5-methyl-1-phenylpyridin-2-one
Formula: C12H11NO
Exact mass: 185.084064
SMILES: CC1=CN(C(=O)C=C1)C2=CC=CC=C2
InChI: InChI=1S/C12H11NO/c1-10-7-8-12(14)13(9-10)11-5-3-2-4-6-11/h2-9H,1H3
Instrument: Exploris 240 Thermo Scientific
Instrument type: LC-ESI-QFT
Ms type: MS2
Ion mode: POSITIVE
Ionization: ESI
Fragmentation mode: HCD
Collision energy: 45 % (nominal)
Resolution: 15000
Column name: XBridge C18 3.5um, 2.1x50mm, Waters
Retention time: 5.057 min
Base peak: 186.0908
Precursor m/z: 186.0913
Precursor type: [M+H]+
m/z	relative intensity	assigned
110.0601	15	C6H8NO+
186.0908	999	C12H12NO+
