Mass spectrum: Cefazolin; LC-ESI-QFT; MS2; CE: 60; R=35000; [M-H]-
Name: Cefazolin
Name: 3-[(5-methyl-1,3,4-thiadiazol-2-yl)sulfanylmethyl]-8-oxo-7-[[2-(tetrazol-1-yl)acetyl]amino]-5-thia-1-azabicyclo[4.2.0]oct-2-ene-2-carboxylic acid
Formula: C14H14N8O4S3
Exact mass: 454.03001
SMILES: CC1=NN=C(S1)SCC2=C(N3C(C(C3=O)NC(=O)CN4C=NN=N4)SC2)C(=O)O
InChI: InChI=1S/C14H14N8O4S3/c1-6-17-18-14(29-6)28-4-7-3-27-12-9(11(24)22(12)10(7)13(25)26)16-8(23)2-21-5-15-19-20-21/h5,9,12H,2-4H2,1H3,(H,16,23)(H,25,26)
Instrument: Q Exactive Plus Orbitrap Thermo Scientific
Instrument type: LC-ESI-QFT
Ms type: MS2
Ion mode: NEGATIVE
Ionization: ESI
Fragmentation mode: HCD
Collision energy: 60 (nominal)
Resolution: 35000
Column name: XBridge C18 3.5um, 2.1x50mm, Waters
Retention time: 4.4 min
Base peak: 321.0411
Precursor m/z: 453.0227
Precursor type: [M-H]-
m/z	relative intensity	assigned
56.9804	9	C2HS-
57.9758	738	CNS-
60.9755	50	CHOS-
65.0146	4	C3HN2-
67.0303	4	C3H3N2-
69.0208	999	CHN4-
80.0256	8	C3H2N3-
83.9914	4	C3H2NS-
89.948	25	CNS2-
96.9992	23	C4H3NS-
97.0118	43	C5H5S-
98.0072	9	C4H4NS-
98.0361	17	C3H4N3O-
104.0381	72	C6H4N2-
105.0458	7	C6H5N2-
109.0045	38	C4HN2O2-
110.0073	16	C5H4NS-
110.0123	6	C4H2N2O2-
112.0229	5	C5H6NS-
117.0462	19	C7H5N2-
122.0073	26	C6H4NS-
123.0151	16	C6H5NS-
124.0228	33	C6H6NS-
130.9745	180	C3H3N2S2-
133.0409	104	C7H5N2O-
136.0102	18	C6H4N2S-
137.0181	69	C6H5N2S-
140.0179	7	C6H6NOS-
140.9892	4	C5H3NO2S-
148.0104	7	C7H4N2S-
165.0129	6	C7H5N2OS-
167.0286	24	C7H7N2OS-
174.0433	16	C9H6N2O2-
