Mass spectrum: TCMTB (Busan); LC-ESI-QFT; MS2; CE: 180%; R=17500; [M+H]+
Name: TCMTB (Busan)
Name: 2-(Thiocyanomethylthio)benzothiazole
Name: 1,3-benzothiazol-2-ylsulfanylmethyl thiocyanate
Formula: C9H6N2S3
Exact mass: 237.9693
SMILES: C1=CC=C2C(=C1)N=C(S2)SCSC#N
InChI: InChI=1S/C9H6N2S3/c10-5-12-6-13-9-11-7-3-1-2-4-8(7)14-9/h1-4H,6H2
Instrument: Exploris 240 Orbitrap Thermo Scientific
Instrument type: LC-ESI-QFT
Ms type: MS2
Ion mode: POSITIVE
Ionization: ESI
Fragmentation mode: HCD
Collision energy: 180 % (nominal)
Resolution: 17500
Column name: XBridge C18 3.5um, 2.1x50mm, Waters
Retention time: 8.597 min
Base peak: 238.9763
Precursor m/z: 238.9766
Precursor type: [M+H]+
m/z	relative intensity	assigned
50.015	97	C4H2+
51.0229	511	C4H3+
53.0386	19	C4H5+
63.0229	178	C5H3+
63.9435	26	S2+
64.0309	38	C5H4+
65.0386	999	C5H5+
68.9793	383	C3HS+
71.9903	85	C2H2NS+
75.0231	13	C6H3+
77.0386	156	C6H5+
78.0466	27	C6H6+
81.9873	58	C4H2S+
89.0384	70	C7H5+
90.0338	21	C6H4N+
91.0419	15	C6H5N+
94.995	48	C5H3S+
96.0026	64	C5H4S+
105.0449	57	C6H5N2+
108.0029	99	C6H4S+
109.0106	270	C6H5S+
121.011	37	C7H5S+
