Mass spectrum: Exemestane; LC-ESI-ITFT; MS2; CE: 35%; R=7500; [M+H]+
Name: Exemestane
Name: (8R,9S,10R,13S,14S)-10,13-dimethyl-6-methylene-7,8,9,11,12,14,15,16-octahydrocyclopenta[a]phenanthrene-3,17-dione
Formula: C20H24O2
Exact mass: 296.1776
SMILES: CC12CCC3C(C1CCC2=O)CC(=C)C4=CC(=O)C=CC34C
InChI: InChI=1S/C20H24O2/c1-12-10-14-15-4-5-18(22)20(15,3)9-7-16(14)19(2)8-6-13(21)11-17(12)19/h6,8,11,14-16H,1,4-5,7,9-10H2,2-3H3/t14-,15-,16-,19+,20-/m0/s1
Instrument: LTQ Orbitrap XL Thermo Scientific
Instrument type: LC-ESI-ITFT
Ms type: MS2
Ion mode: POSITIVE
Ionization: ESI
Fragmentation mode: CID
Collision energy: 35 % (nominal)
Resolution: 7500
Column name: XBridge C18 3.5um, 2.1x50mm, Waters
Retention time: 10.1 min
Base peak: 297.1859
Precursor m/z: 297.1849
Precursor type: [M+H]+
m/z	relative intensity	assigned
91.0539	13	C7H7+
93.0698	20	C7H9+
97.0646	12	C6H9O+
105.0698	29	C8H9+
107.0856	19	C8H11+
117.0695	2	C9H9+
119.0854	11	C9H11+
121.0648	50	C8H9O+
121.1011	80	C9H13+
123.0807	7	C8H11O+
123.117	4	C9H15+
129.07	5	C10H9+
131.0854	39	C10H11+
133.0651	4	C9H9O+
133.1013	27	C10H13+
135.0804	74	C9H11O+
135.1167	8	C10H15+
137.0966	6	C9H13O+
145.1012	125	C11H13+
147.0804	28	C10H11O+
147.1169	24	C11H15+
149.0961	357	C10H13O+
159.0804	27	C11H11O+
161.0961	39	C11H13O+
161.1327	7	C12H17+
163.1116	52	C11H15O+
171.0796	8	C12H11O+
171.1168	63	C13H15+
173.096	31	C12H13O+
175.0749	5	C11H11O2+
175.1122	10	C12H15O+
177.1269	10	C12H17O+
185.096	134	C13H13O+
187.1116	42	C13H15O+
189.1273	54	C13H17O+
197.0958	14	C14H13O+
199.1111	15	C14H15O+
201.1273	115	C14H17O+
209.0967	8	C15H13O+
211.1121	11	C15H15O+
215.1073	13	C14H15O2+
223.1118	35	C16H15O+
227.1429	12	C16H19O+
237.1273	44	C17H17O+
239.1427	53	C17H19O+
251.143	24	C18H19O+
253.1584	39	C18H21O+
255.1379	22	C17H19O2+
255.1739	14	C18H23O+
261.1641	17	C20H21+
264.1499	3	C19H20O+
279.1744	999	C20H23O+
297.185	4	C20H25O2+
