Mass spectrum: Dimethoate; LC-ESI-ITFT; MS2; CE: 45%; R=7500; [M+H]+
Name: Dimethoate
Name: 2-(dimethoxyphosphinothioylthio)-N-methylacetamide
Formula: C5H12NO3PS2
Exact mass: 228.9996
SMILES: P(SCC(NC)=O)(OC)(OC)=S
InChI: InChI=1S/C5H12NO3PS2/c1-6-5(7)4-12-10(11,8-2)9-3/h4H2,1-3H3,(H,6,7)
Instrument: LTQ Orbitrap XL Thermo Scientific
Instrument type: LC-ESI-ITFT
Ms type: MS2
Ion mode: POSITIVE
Ionization: ESI
Fragmentation mode: HCD
Collision energy: 45 % (nominal)
Resolution: 7500
Column name: XBridge C18 3.5um, 2.1x50mm, Waters
Retention time: 5.2 min
Base peak: 230.007
Precursor m/z: 230.0069
Precursor type: [M+H]+
m/z	relative intensity	assigned
58.9951	1	C2H3S+
61.0106	15	C2H5S+
62.0184	3	C2H6S+
76.0215	2	C2H6NS+
78.9944	36	CH4O2P+
86.006	3	C3H4NS+
88.0216	182	C3H6NS+
93.0099	13	C2H6O2P+
104.0165	8	C3H6NOS+
109.005	5	C2H6O3P+
110.9665	20	CH4O2PS+
119.9937	18	C3H6NS2+
123.9982	26	C2H7NOPS+
124.9821	999	C2H6O2PS+
127.0156	13	C2H8O4P+
128.977	11	CH6O3PS+
140.9591	5	C2H6OPS2+
142.9926	819	C2H8O3PS+
155.9702	21	C2H7NOPS2+
156.9541	144	C2H6O2PS2+
158.9692	1	C2H8O2PS2+
169.9881	1	C5H3N2O3P+
170.9698	477	C3H8O2PS2+
197.9809	17	C4H9NO2PS2+
198.9647	76	C4H8O3PS2+
