Mass spectrum: Fenamiphos-sulfone; LC-ESI-QFT; MS2; CE: 60; R=35000; [M+H]+
Name: Fenamiphos-sulfone
Name: Fenamiphos sulphone
Name: Ethyl 3-methyl-4-(methylsulfonyl)phenyl isopropylphosphoramidate
Formula: C13H22NO5PS
Exact mass: 335.09563
SMILES: CCOP(=O)(NC(C)C)OC1=CC(=C(C=C1)S(=O)(=O)C)C
InChI: InChI=1S/C13H22NO5PS/c1-6-18-20(15,14-10(2)3)19-12-7-8-13(11(4)9-12)21(5,16)17/h7-10H,6H2,1-5H3,(H,14,15)
Instrument: Q Exactive Plus Orbitrap Thermo Scientific
Instrument type: LC-ESI-QFT
Ms type: MS2
Ion mode: POSITIVE
Ionization: ESI
Fragmentation mode: HCD
Collision energy: 60 (nominal)
Resolution: 35000
Column name: XBridge C18 3.5um, 2.1x50mm, Waters
Retention time: 7.5 min
Base peak: 336.1023
Precursor m/z: 336.1029
Precursor type: [M+H]+
m/z	relative intensity	assigned
53.0021	1	C3HO+
55.0179	2	C3H3O+
58.0652	5	C3H8N+
65.0386	14	C5H5+
67.0542	5	C5H7+
77.0385	2	C6H5+
78.0463	1	C6H6+
78.9848	65	CH3O2S+
79.0542	12	C6H7+
79.9895	1	H3NO2P+
80.0621	6	C6H8+
81.0699	1	C6H9+
90.0464	2	C7H6+
91.0542	96	C7H7+
92.062	1	C7H8+
93.0335	4	C6H5O+
94.0413	3	C6H6O+
95.0491	6	C6H7O+
98.0002	35	H5NO3P+
103.0542	1	C8H7+
105.0335	1	C7H5O+
105.0448	1	C6H5N2+
105.07	8	C8H9+
106.0413	1	C3H9NOP+
106.0652	7	C7H8N+
107.0492	37	C7H7O+
107.073	21	C7H9N+
108.057	791	C7H8O+
109.0648	289	C7H9O+
111.0263	18	C6H7S+
112.0158	29	CH7NO3P+
117.0699	8	C9H9+
118.0778	4	C9H10+
119.0605	44	C7H7N2+
120.0571	1	C8H8O+
121.0108	3	C3H8NPS+
121.0648	14	C8H9O+
122.0362	5	C7H6O2+
123.0264	3	C7H7S+
123.0441	17	C7H7O2+
123.0805	5	C8H11O+
124.0521	3	C3H11NO2P+
127.0307	1	C6H8OP+
134.0966	2	C9H12N+
135.0805	7	C9H11O+
136.0885	1	C5H15NOP+
137.0056	1	C7H5OS+
139.0213	177	C7H7OS+
151.0215	5	C4H10NOPS+
152.0261	1	C7H7NOP+
153.0101	15	C7H6O2P+
155.0162	1	C7H7O2S+
155.0258	1	C7H8O2P+
157.0412	1	C7H10O2P+
169.0282	4	C11H5O2+
170.0128	13	C7H7O3P+
170.0366	78	C7H9NO2P+
171.0206	27	C7H8O3P+
173.0365	3	C7H10O3P+
175.0154	5	C6H8O4P+
184.9999	6	C7H6O4P+
185.0265	4	C8H9O3S+
185.0363	4	C8H10O3P+
186.0079	9	C7H7O4P+
186.0318	2	C7H9NO3P+
187.0159	4	C7H8O4P+
187.0398	63	C7H10NO3P+
188.0472	999	C11H8O3+
188.9769	9	C6H6O3PS+
189.0306	2	C7H10O4P+
190.9925	1	C6H8O3PS+
196.0524	2	C9H11NO2P+
197.0371	22	C9H10O3P+
200.9768	2	C7H6O3PS+
201.0311	4	C8H10O4P+
202.0628	18	C8H13NO3P+
203.0468	1	C8H12O4P+
214.0629	30	C9H13NO3P+
218.9877	70	C7H8O4PS+
230.9877	1	C8H8O4PS+
248.014	2	C8H11NO4PS+
248.9982	25	C8H10O5PS+
266.0248	49	C8H13NO5PS+
267.0088	51	C8H12O6PS+
285.0192	2	C13H7N3O3S+
