Mass spectrum: Carbamazepine-10,11-epoxide; LC-ESI-ITFT; MS2; CE: 35%; R=7500; [M+H]+
Name: Carbamazepine-10,11-epoxide
Name: 1a,10b-Dihydro-6H-dibenz(b,f)oxiren(d)azepine-6-carboxamide
Formula: C15H12N2O2
Exact mass: 252.0899
SMILES: NC(=O)N2c1ccccc1C4OC4c3ccccc23
InChI: InChI=1S/C15H12N2O2/c16-15(18)17-11-7-3-1-5-9(11)13-14(19-13)10-6-2-4-8-12(10)17/h1-8,13-14H,(H2,16,18)
Instrument: LTQ Orbitrap XL Thermo Scientific
Instrument type: LC-ESI-ITFT
Ms type: MS2
Ion mode: POSITIVE
Ionization: ESI
Fragmentation mode: CID
Collision energy: 35 % (nominal)
Resolution: 7500
Column name: XBridge C18 3.5um, 2.1x50mm, Waters
Retention time: 6.3 min
Base peak: 275.08
Precursor m/z: 253.0972
Precursor type: [M+H]+
m/z	relative intensity	assigned
179.0727	3	C13H9N+
180.0807	35	C13H10N+
182.0964	4	C13H12N+
208.0758	9	C14H10NO+
210.0916	518	C14H12NO+
236.0709	999	C15H10NO2+
