Mass spectrum: Pramoxine; LC-ESI-QFT; MS2; CE: 180; R=35000; [M+H]+
Name: Pramoxine
Name: 4-[3-(4-butoxyphenoxy)propyl]morpholine
Formula: C17H27NO3
Exact mass: 293.19909
SMILES: CCCCOC1=CC=C(C=C1)OCCCN2CCOCC2
InChI: InChI=1S/C17H27NO3/c1-2-3-12-20-16-5-7-17(8-6-16)21-13-4-9-18-10-14-19-15-11-18/h5-8H,2-4,9-15H2,1H3
Instrument: Q Exactive Plus Orbitrap Thermo Scientific
Instrument type: LC-ESI-QFT
Ms type: MS2
Ion mode: POSITIVE
Ionization: ESI
Fragmentation mode: HCD
Collision energy: 180 (nominal)
Resolution: 35000
Column name: XBridge C18 3.5um, 2.1x50mm, Waters
Retention time: 7.3 min
Base peak: 294.206
Precursor m/z: 294.2064
Precursor type: [M+H]+
m/z	relative intensity	assigned
50.0152	42	C4H2+
51.023	181	C4H3+
53.0022	128	C3HO+
53.0386	72	C4H5+
53.9974	30	C2NO+
54.0338	67	C3H4N+
55.0179	79	C3H3O+
55.0417	26	C3H5N+
55.0543	5	C4H7+
56.0495	999	C3H6N+
57.0573	38	C3H7N+
58.0651	78	C3H8N+
65.0386	416	C5H5+
66.0464	13	
67.0417	13	C4H5N+
67.0543	35	C5H7+
67.9892	7	C3O2+
68.0495	38	C4H6N+
68.9971	39	C3HO2+
70.0651	391	C4H8N+
71.073	3	C4H9N+
72.0444	17	C3H6NO+
72.0807	56	C4H10N+
77.0385	42	C6H5+
79.0542	14	C6H7+
81.0335	53	C5H5O+
82.0413	4	C5H6O+
82.0651	7	C5H8N+
84.0808	5	C5H10N+
85.0522	3	C4H7NO+
86.0601	19	C4H8NO+
91.0542	3	C7H7+
95.0492	79	C6H7O+
100.0757	113	C5H10NO+
103.0544	4	C8H7+
105.0447	39	C6H5N2+
