Mass spectrum: 7-amino-flunitrazepam; LC-ESI-QFT; MS2; CE: 150; R=35000; [M+H]+
Name: 7-amino-flunitrazepam
Name: 7-aminoflunitrazepam
Name: 7-amino-5-(2-fluorophenyl)-1-methyl-3H-1,4-benzodiazepin-2-one
Formula: C16H14FN3O
Exact mass: 283.11209
SMILES: CN1C(=O)CN=C(C2=C1C=CC(=C2)N)C3=CC=CC=C3F
InChI: InChI=1S/C16H14FN3O/c1-20-14-7-6-10(18)8-12(14)16(19-9-15(20)21)11-4-2-3-5-13(11)17/h2-8H,9,18H2,1H3
Instrument: Q Exactive Plus Orbitrap Thermo Scientific
Instrument type: LC-ESI-QFT
Ms type: MS2
Ion mode: POSITIVE
Ionization: ESI
Fragmentation mode: HCD
Collision energy: 150 (nominal)
Resolution: 35000
Column name: XBridge C18 3.5um, 2.1x50mm, Waters
Retention time: 4.9 min
Base peak: 284.1182
Precursor m/z: 284.1194
Precursor type: [M+H]+
m/z	relative intensity	assigned
50.015	126	C4H2+
51.0228	120	C4H3+
52.0181	23	C3H2N+
52.0307	6	C4H4+
53.0021	28	C3HO+
53.0385	213	C4H5+
54.0337	71	C3H4N+
55.0177	10	C3H3O+
56.0494	12	C3H6N+
57.0134	56	C3H2F+
58.0286	17	C2H4NO+
59.0291	17	C3H4F+
61.0072	4	FN3+
62.0149	39	FHN3+
63.0228	408	FH2N3+
64.018	22	C4H2N+
64.0306	23	FH3N3+
65.0385	587	FH4N3+
66.0337	27	C4H4N+
66.0463	387	FH5N3+
67.0415	100	C4H5N+
67.0541	44	FH6N3+
68.0494	50	C4H6N+
74.0149	54	CHFN3+
75.0227	311	CH2FN3+
76.018	61	C5H2N+
76.0306	18	CH3FN3+
77.0384	369	CH4FN3+
78.0337	133	C5H4N+
78.0463	131	CH5FN3+
79.0289	13	C4H3N2+
79.0415	31	C5H5N+
79.0541	192	CH6FN3+
80.0493	164	C5H6N+
81.0134	15	C5H2F+
81.0333	23	FH4N3O+
81.0446	68	C4H5N2+
81.0698	3	CH8FN3+
82.0524	6	C4H6N2+
83.029	183	C5H4F+
86.015	3	C2HFN3+
87.0228	16	C2H2FN3+
88.0181	13	C6H2N+
88.0306	4	C2H3FN3+
89.0384	362	C2H4FN3+
90.0337	331	C6H4N+
90.0463	74	C2H5FN3+
91.0415	79	C6H5N+
91.0541	102	C2H6FN3+
92.0493	352	C6H6N+
93.0572	999	C6H7N+
94.065	55	C6H8N+
95.049	584	CH6FN3O+
96.0369	5	C6H5F+
96.0442	77	C5H6NO+
96.068	32	C5H8N2+
99.0228	27	C3H2FN3+
100.0179	2	C7H2N+
101.0383	4	C3H4FN3+
102.0337	121	C7H4N+
102.0463	13	C3H5FN3+
103.0414	14	C7H5N+
104.0493	734	C7H6N+
105.0446	510	C6H5N2+
105.0571	44	C7H7N+
106.0649	411	C7H8N+
107.029	103	C7H4F+
107.0727	47	C7H9N+
108.0367	10	C7H5F+
108.0442	27	C6H6NO+
108.0678	4	C6H8N2+
108.0806	22	C7H10N+
109.0446	102	C7H6F+
110.0599	34	C6H8NO+
111.0227	3	C4H2FN3+
113.0384	44	C4H4FN3+
114.0337	31	C8H4N+
114.0462	11	C4H5FN3+
115.0415	19	C8H5N+
115.054	107	C4H6FN3+
116.0368	3	C7H4N2+
116.0493	50	C8H6N+
117.0445	125	C7H5N2+
117.0571	62	C8H7N+
118.0523	36	C7H6N2+
118.0648	22	C8H8N+
119.0602	279	C7H7N2+
120.0369	12	C8H5F+
120.0442	34	C7H6NO+
120.0679	18	C7H8N2+
121.0321	6	C7H4FN+
122.0398	26	C7H5FN+
123.0227	17	C5H2FN3+
123.035	33	C6H4FN2+
125.0384	53	C5H4FN3+
126.0337	4	C9H4N+
126.0463	47	C5H5FN3+
127.0412	5	C9H5N+
127.0539	28	C5H6FN3+
128.0493	21	C9H6N+
128.0619	21	C5H7FN3+
129.0444	50	C8H5N2+
130.0398	142	C7H4N3+
131.029	6	C9H4F+
131.0602	89	C8H7N2+
132.0558	4	C7H6N3+
132.068	43	C8H8N2+
133.0446	258	C9H6F+
133.0759	23	C8H9N2+
134.0397	5	C8H5FN+
134.0523	3	C9H7F+
134.06	10	C8H8NO+
134.0833	2	C8H10N2+
135.0477	11	C8H6FN+
135.0551	39	C7H7N2O+
137.0382	24	C6H4FN3+
138.0338	10	C10H4N+
138.0462	29	C6H5FN3+
139.054	272	C6H6FN3+
140.0492	192	C10H6N+
140.0618	15	C6H7FN3+
141.0571	4	C10H7N+
141.0697	4	C6H8FN3+
142.0524	3	C9H6N2+
143.0488	11	C5H6FN3O+
144.0368	15	C10H5F+
144.0554	51	C8H6N3+
145.0447	5	C10H6F+
145.0645	26	C5H8FN3O+
146.0525	64	C10H7F+
146.0587	4	C7H6N4+
146.071	28	C8H8N3+
147.055	4	C8H7N2O+
148.0301	3	C7H3FN3+
149.0382	46	C7H4FN3+
150.0462	160	C7H5FN3+
151.0416	10	C11H5N+
151.054	97	C7H6FN3+
152.0494	26	C11H6N+
152.0618	288	C7H7FN3+
153.0446	15	C10H5N2+
153.0571	27	C11H7N+
153.0696	21	C7H8FN3+
154.0397	4	C9H4N3+
154.0648	16	C11H8N+
155.0601	45	C10H7N2+
156.0364	2	C11H5F+
156.0562	3	C6H7FN3O+
157.0446	156	C11H6F+
158.0398	33	C10H5FN+
158.0525	9	C11H7F+
159.0602	22	C11H8F+
161.0385	11	
161.0635	9	C10H8FN+
162.0462	19	C8H5FN3+
163.042	10	C12H5N+
163.054	195	C8H6FN3+
164.0492	187	C12H6N+
165.0448	21	C11H5N2+
165.0572	34	C12H7N+
165.0695	37	C8H8FN3+
166.0649	161	C12H8N+
167.0489	11	C7H6FN3O+
167.0727	79	C12H9N+
168.037	33	C12H5F+
168.0439	4	C11H6NO+
168.0803	3	C12H10N+
169.0445	15	C12H6F+
169.0645	198	C7H8FN3O+
170.0524	279	C12H7F+
170.0597	31	C11H8NO+
171.0477	10	C11H6FN+
171.0601	43	C12H8F+
172.0555	29	C11H7FN+
173.0506	28	C10H6FN2+
174.046	12	C9H5FN3+
174.0712	11	C11H9FN+
175.0414	43	C13H5N+
176.0492	29	C13H6N+
176.0615	3	C9H7FN3+
177.0444	12	C12H5N2+
177.057	144	C13H7N+
178.0649	122	C13H8N+
179.0601	113	C12H7N2+
179.0721	30	C13H9N+
180.0553	10	C11H6N3+
180.0805	39	C13H10N+
181.0445	174	C13H6F+
182.0395	12	C12H5FN+
182.0526	55	C13H7F+
183.0602	184	C13H8F+
184.0554	66	C12H7FN+
185.0634	68	C12H8FN+
186.0471	17	C12H7FO+
186.0713	4	C12H9FN+
187.0551	50	C12H8FO+
188.0492	45	C14H6N+
189.0449	5	C13H5N2+
189.0571	20	C14H7N+
190.0647	86	C14H8N+
191.0601	44	C13H7N2+
191.0725	17	C14H9N+
192.0678	108	C13H8N2+
193.076	39	C13H9N2+
194.0522	10	C14H7F+
194.0599	62	C13H8NO+
194.0837	3	C13H10N2+
195.0476	50	C13H6FN+
196.0556	36	C13H7FN+
196.0756	3	C13H10NO+
197.0507	40	C12H6FN2+
197.0632	35	C13H8FN+
198.071	86	C13H9FN+
199.0667	3	C12H8FN2+
201.0572	11	C15H7N+
202.0522	20	C14H6N2+
203.06	35	C14H7N2+
204.0553	62	C13H6N3+
205.0757	72	C14H9N2+
206.0835	5	C14H10N2+
207.0483	2	C14H6FN+
208.0553	80	C14H7FN+
209.063	40	C14H8FN+
210.0585	19	C13H7FN2+
210.0709	5	C14H9FN+
212.0502	10	C13H7FNO+
212.0743	13	C13H9FN2+
214.0421	5	C16H6O+
216.0677	3	C15H8N2+
217.0634	17	C14H7N3+
218.071	5	C14H8N3+
219.0796	3	C14H9N3+
220.0866	4	C14H10N3+
221.0502	3	C14H6FN2+
221.0708	3	C14H9N2O+
222.046	13	C13H5FN3+
223.0662	39	C14H8FN2+
224.0741	9	C14H9FN2+
225.082	10	C14H10FN2+
229.0527	4	C16H7NO+
238.0773	13	C14H9FN3+
240.0923	2	C14H11FN3+
