Mass spectrum: Dichlofenthion; LC-ESI-QFT; MS2; CE: 90%; R=17500; [M+H]+
Name: Dichlofenthion
Name: (2,4-dichlorophenoxy)-diethoxy-sulfanylidene-lambda5-phosphane
Formula: C10H13Cl2O3PS
Exact mass: 313.9700
SMILES: CCOP(=S)(OCC)OC1=C(C=C(C=C1)Cl)Cl
InChI: InChI=1S/C10H13Cl2O3PS/c1-3-13-16(17,14-4-2)15-10-6-5-8(11)7-9(10)12/h5-7H,3-4H2,1-2H3
Instrument: Exploris 240 Orbitrap Thermo Scientific
Instrument type: LC-ESI-QFT
Ms type: MS2
Ion mode: POSITIVE
Ionization: ESI
Fragmentation mode: HCD
Collision energy: 90 % (nominal)
Resolution: 17500
Column name: XBridge C18 3.5um, 2.1x50mm, Waters
Retention time: 13.510 min
Base peak: 314.9773
Precursor m/z: 314.9773
Precursor type: [M+H]+
m/z	relative intensity	assigned
62.9453	68	PS+
64.9786	169	H2O2P+
72.9841	27	C3H2Cl+
78.9402	128	OPS+
96.9508	900	H2O2PS+
98.9844	85	CH4ClO3+
98.9996	563	C5H4Cl+
108.0026	137	C6H4S+
108.9837	44	C5H2OP+
110.9666	53	C2H4ClOS+
114.9613	867	H4O3PS+
114.9945	798	C5H4ClO+
126.9946	285	C6H4ClO+
128.0024	999	C6H5ClO+
130.9715	133	C4H4OPS+
132.9606	373	C5H3Cl2+
141.9638	243	C5H3OPS+
142.9719	129	C6H4ClS+
142.9896	524	C6H4ClO2+
143.9795	508	C6H5ClS+
145.9684	259	C6H4Cl2+
158.9666	49	C6H4ClOS+
160.9556	285	C6H3Cl2O+
161.9634	180	C6H4Cl2O+
162.9712	174	C6H5Cl2O+
176.9327	216	C6H3Cl2S+
178.9485	75	C6H5Cl2S+
206.9607	25	C7H5Cl2O3+
222.8936	53	C6H2Cl2OPS+
222.9381	44	C7H5Cl2O2S+
