Mass spectrum: Iopromide; LC-ESI-ITFT; MS2; CE: 90%; R=7500; [M+H]+
Name: Iopromide
Name: 1-N,3-N-bis(2,3-dihydroxypropyl)-2,4,6-triiodo-5-[(2-methoxyacetyl)amino]-3-N-methylbenzene-1,3-dicarboxamide
Formula: C18H24I3N3O8
Exact mass: 790.8698
SMILES: CN(CC(CO)O)C(=O)C1=C(C(=C(C(=C1I)C(=O)NCC(CO)O)I)NC(=O)COC)I
InChI: InChI=1S/C18H24I3N3O8/c1-24(4-9(28)6-26)18(31)12-13(19)11(17(30)22-3-8(27)5-25)14(20)16(15(12)21)23-10(29)7-32-2/h8-9,25-28H,3-7H2,1-2H3,(H,22,30)(H,23,29)
Instrument: LTQ Orbitrap XL Thermo Scientific
Instrument type: LC-ESI-ITFT
Ms type: MS2
Ion mode: POSITIVE
Ionization: ESI
Fragmentation mode: HCD
Collision energy: 90 % (nominal)
Resolution: 7500
Column name: XBridge C18 3.5um, 2.1x50mm, Waters
Retention time: 2.7 min
Base peak: 132.9579
Precursor m/z: 791.877
Precursor type: [M+H]+
m/z	relative intensity	assigned
67.0178	95	C4H3O+
77.0023	340	C5HO+
88.0184	181	C6H2N+
89.026	999	C6H3N+
100.0181	225	C7H2N+
101.0262	402	C7H3N+
113.9973	264	C7NO+
116.0135	251	C7H2NO+
117.021	529	C7H3NO+
128.0131	288	C8H2NO+
141.993	175	C8NO2+
152.9197	399	C2H2I+
177.9152	333	C3HIN+
203.9305	124	C5H3IN+
227.9307	246	C7H3IN+
243.9251	250	C7H3INO+
255.9242	140	C8H3INO+
271.9208	297	C8H3INO2+
299.916	90	C9H3INO3+
317.9251	112	C9H5INO4+
325.9526	95	C8H9INO5+
