Mass spectrum: Nilotinib; LC-ESI-QFT; MS2; CE: 60; R=35000; [M-H]-
Name: Nilotinib
Name: 4-methyl-N-(3-(4-methylimidazol-1-yl)-5-(trifluoromethyl)phenyl)-3-((4-pyridin-3-ylpyrimidin-2-yl)amino)benzamide
Formula: C28H22F3N7O
Exact mass: 529.18379
SMILES: CC1=C(C=C(C=C1)C(=O)NC2=CC(=CC(=C2)N3C=C(N=C3)C)C(F)(F)F)NC4=NC=CC(=N4)C5=CN=CC=C5
InChI: InChI=1S/C28H22F3N7O/c1-17-5-6-19(10-25(17)37-27-33-9-7-24(36-27)20-4-3-8-32-14-20)26(39)35-22-11-21(28(29,30)31)12-23(13-22)38-15-18(2)34-16-38/h3-16H,1-2H3,(H,35,39)(H,33,36,37)
Instrument: Q Exactive Plus Orbitrap Thermo Scientific
Instrument type: LC-ESI-QFT
Ms type: MS2
Ion mode: NEGATIVE
Ionization: ESI
Fragmentation mode: HCD
Collision energy: 60 (nominal)
Resolution: 35000
Column name: XBridge C18 3.5um, 2.1x50mm, Waters
Retention time: 8.5 min
Base peak: 528.1775
Precursor m/z: 528.1765
Precursor type: [M-H]-
m/z	relative intensity	assigned
52.0192	5	C3H2N-
65.0145	1	C3HN2-
68.9957	6	CF3-
79.0303	1	C4H3N2-
81.0458	36	C4H5N2-
103.0302	1	C6H3N2-
116.0506	11	C8H6N-
144.0567	5	C8H6N3-
153.046	1	C10H5N2-
155.049	6	C9H5N3-
157.0771	46	C10H9N2-
158.0224	1	C7H3F3N-
160.0378	12	C5H2N7-
169.0521	1	C9H5N4-
170.0722	2	C5H7FN6-
171.0676	143	C9H7N4-
173.0519	9	C5H5F2N5-
178.0411	9	C11H4N3-
179.0494	1	C11H5N3-
180.0568	12	C11H6N3-
185.0332	9	C8H4F3N2-
187.0488	12	C8H6F3N2-
191.0064	3	C9HF2N2O-
191.0428	1	C10H5F2N2-
193.0582	48	C10H7F2N2-
193.077	18	C8H8FN5-
196.038	4	C10H5F3N-
196.0515	9	C6H5FN6O-
198.0403	14	C9H5F3N2-
198.0481	3	C16H6-
199.0314	13	C11H4FN2O-
199.049	3	C9H6F3N2-
200.0201	1	C8H3F3N2O-
203.0434	10	C8H6F3N2O-
206.036	9	C12H4N3O-
211.0127	10	C9H2F3N2O-
211.0489	22	C10H6F3N2-
212.0332	3	C10H5F3NO-
213.0646	132	C10H8F3N2-
218.0536	22	C11H6F2N3-
219.0376	29	C11H5F2N2O-
222.0411	1	C11H5F3N2-
223.0364	9	C15H5F2-
223.0489	23	C11H6F3N2-
224.0203	10	C10H3F3N2O-
224.0446	1	C15H6F2-
225.0273	1	C10H4F3N2O-
226.0427	14	C17H6O-
234.1036	15	C15H12N3-
236.0445	6	C16H6F2-
237.0282	3	C11H4F3N2O-
237.0486	1	C11H7F2N2O2-
238.0598	3	C11H7F3N3-
239.0438	94	C11H6F3N2O-
240.0755	999	C16H10F2-
241.0594	23	C11H8F3N2O-
244.0878	7	C11H9FN6-
251.031	22	C11H4F3N3O-
259.099	2	C16H11N4-
265.0463	2	C20H6F-
266.0546	201	C12H7F3N3O-
300.0752	1	C16H9F3N3-
315.0757	1	C17H10F3N2O-
328.1063	3	C18H13F3N3-
354.1227	1	C25H16F2-
