Mass spectrum: Tritosulfuron; LC-ESI-ITFT; MS2; CE: 15%; R=15000; [M+H]+
Name: Tritosulfuron
Name: N-{[4-methoxy-6-(trifluoromethyl)-1,3,5-triazin-2-yl]carbamoyl}-2-(trifluoromethyl)benzenesulfonamide
Formula: C13H9F6N5O4S
Exact mass: 445.0279
SMILES: c1c(S(=O)(=O)NC(Nc2nc(nc(n2)C(F)(F)F)OC)=O)c(C(F)(F)F)ccc1
InChI: InChI=1S/C13H9F6N5O4S/c1-28-11-21-8(13(17,18)19)20-9(23-11)22-10(25)24-29(26,27)7-5-3-2-4-6(7)12(14,15)16/h2-5H,1H3,(H2,20,21,22,23,24,25)
Instrument: LTQ Orbitrap XL Thermo Scientific
Instrument type: LC-ESI-ITFT
Ms type: MS2
Ion mode: POSITIVE
Ionization: ESI
Fragmentation mode: HCD
Collision energy: 15 % (nominal)
Resolution: 15000
Column name: XBridge C18 3.5um, 2.1x50mm, Waters
Retention time: 10.8 min
Base peak: 446.0345
Precursor m/z: 446.0352
Precursor type: [M+H]+
m/z	relative intensity	assigned
127.0479	1	C3H6F3N2+
145.0261	1	C7H4F3+
195.0489	424	C5H6F3N4O+
208.9879	26	C7H4F3O2S+
220.0439	3	C11H6F2N2O+
221.0281	240	C6H4F3N4O2+
403.0298	8	C12H9F6N4O3S+
426.0276	1	C13H9F5N5O4S+
446.0351	999	C13H10F6N5O4S+
