Mass spectrum: Picolinafen; LC-ESI-QFT; MS2; CE: 150; R=35000; [M+H]+
Name: Picolinafen
Name: N-(4-fluorophenyl)-6-[3-(trifluoromethyl)phenoxy]pyridine-2-carboxamide
Formula: C19H12F4N2O2
Exact mass: 376.08349
SMILES: C1=CC(=CC(=C1)OC2=CC=CC(=N2)C(=O)NC3=CC=C(C=C3)F)C(F)(F)F
InChI: InChI=1S/C19H12F4N2O2/c20-13-7-9-14(10-8-13)24-18(26)16-5-2-6-17(25-16)27-15-4-1-3-12(11-15)19(21,22)23/h1-11H,(H,24,26)
Instrument: Q Exactive Plus Orbitrap Thermo Scientific
Instrument type: LC-ESI-QFT
Ms type: MS2
Ion mode: POSITIVE
Ionization: ESI
Fragmentation mode: HCD
Collision energy: 150 (nominal)
Resolution: 35000
Column name: XBridge C18 3.5um, 2.1x50mm, Waters
Retention time: 15.4 min
Base peak: 279.1583
Precursor m/z: 377.0908
Precursor type: [M+H]+
m/z	relative intensity	assigned
50.0151	15	C4H2+
51.0041	31	CHF2+
51.0229	9	C4H3+
53.0022	57	C3HO+
53.9974	8	C2NO+
55.0179	1	C3H3O+
57.0135	57	C3H2F+
61.0073	4	C5H+
62.0151	3	C5H2+
63.0229	13	C5H3+
64.0182	3	C4H2N+
65.026	7	C4H3N+
65.0385	13	C5H5+
66.0338	3	C4H4N+
67.9892	2	C3O2+
68.9946	89	CF3+
69.0134	18	C4H2F+
71.0291	28	C4H4F+
74.0151	237	C6H2+
75.004	227	C3HF2+
75.0228	999	C6H3+
76.0306	5	C6H4+
77.0197	3	C3H3F2+
78.0087	1	C3N3+
79.0178	9	C5H3O+
81.0135	36	C5H2F+
83.029	10	C5H4F+
85.0072	1	C7H+
87.0228	5	C7H3+
88.0307	7	C7H4+
89.0022	2	C6HO+
89.0385	5	C7H5+
90.0465	2	C7H6+
92.9947	5	C3F3+
93.0136	3	C6H2F+
93.0335	4	C6H5O+
94.0215	1	C6H3F+
95.0103	44	C3H2F3+
95.0291	156	C6H4F+
98.0151	2	C8H2+
99.004	67	C5HF2+
99.023	8	C8H3+
101.0022	3	C7HO+
101.0197	8	C5H3F2+
105.0134	9	C7H2F+
107.0291	12	C7H4F+
111.044	3	C6H7O2+
113.0396	190	C6H6FO+
114.0277	5	C6H4F2+
114.0337	4	C8H4N+
114.0465	5	C9H6+
115.0353	3	C6H5F2+
115.0545	1	C9H7+
117.0135	7	C8H2F+
118.0414	1	C8H6O+
119.0103	50	C5H2F3+
122.015	11	C10H2+
123.023	34	C10H3+
123.0352	373	C6H4FN2+
124.0182	9	C9H2N+
124.0324	3	C7H5FO+
125.0197	205	C7H3F2+
131.0293	1	C9H4F+
132.037	2	C9H5F+
132.057	2	C9H8O+
133.0447	35	C9H6F+
134.04	2	C8H5FN+
140.0494	30	C10H6N+
143.0293	19	C10H4F+
144.037	3	C10H5F+
145.0259	218	C7H4F3+
151.0355	2	C9H5F2+
158.04	2	C10H5FN+
161.0397	4	C10H6FO+
162.0275	12	C10H4F2+
164.043	1	C10H6F2+
171.0365	4	C7H5F2N2O+
182.0336	10	C10H5F3+
188.0508	1	C11H7FNO+
189.0384	5	C11H5F2N+
190.0467	1	C11H6F2N+
191.0411	3	C10H5F2N2+
