Mass spectrum: Oxyfluorfen; LC-ESI-QFT; MS2; CE: 60; R=35000; [M+H]+
Name: Oxyfluorfen
Name: 2-chloranyl-1-(3-ethoxy-4-nitro-phenoxy)-4-(trifluoromethyl)benzene
Formula: C15H11ClF3NO4
Exact mass: 361.03287
SMILES: Clc2cc(ccc2Oc1ccc([N+]([O-])=O)c(OCC)c1)C(F)(F)F
InChI: InChI=1S/C15H11ClF3NO4/c1-2-23-14-8-10(4-5-12(14)20(21)22)24-13-6-3-9(7-11(13)16)15(17,18)19/h3-8H,2H2,1H3
Instrument: Q Exactive Orbitrap Thermo Scientific
Instrument type: LC-ESI-QFT
Ms type: MS2
Ion mode: POSITIVE
Ionization: ESI
Fragmentation mode: HCD
Collision energy: 60 (nominal)
Resolution: 35000
Column name: XBridge C18 3.5um, 2.1x50mm, Waters
Retention time: 15.5 min
Base peak: 362.0402
Precursor m/z: 362.0401
Precursor type: [M+H]+
m/z	relative intensity	assigned
53.0024	20	C3HO+
64.0183	4	C4H2N+
65.0261	55	C4H3N+
65.0386	9	C5H5+
67.0178	3	C4H3O+
67.0417	3	C4H5N+
68.0132	3	C3H2NO+
68.9947	13	CF3+
68.9971	15	C3HO2+
75.0104	2	C5HN+
76.0182	131	C5H2N+
77.0261	4	C5H3N+
78.0339	10	C5H4N+
78.0464	16	C6H6+
79.0178	24	C5H3O+
80.0128	2	C4H2NO+
88.9788	2	C3H2ClO+
89.0385	2	C7H5+
93.0209	160	C5H3NO+
93.9924	5	C4NO2+
94.0288	3	C5H4NO+
95.0366	10	C5H5NO+
96.008	14	C4H2NO2+
96.0445	3	C5H6NO+
104.013	3	C6H2NO+
107.0129	30	C6H3O2+
113.0386	3	C9H5+
120.0079	5	C6H2NO2+
124.0393	26	C6H6NO2+
128.0494	10	C9H6N+
131.0103	2	C6H2F3+
132.0181	121	C6H3F3+
136.0317	4	C8H5FO+
140.0494	659	C10H6N+
144.0181	13	C7H3F3+
144.037	15	C10H5F+
146.9809	2	C6H2ClF2+
148.0073	15	C9H5Cl+
149.0152	12	C9H6Cl+
151.0358	3	C9H5F2+
152.0024	17	C8H5ClO+
156.0181	15	C8H3F3+
156.0442	12	C10H6NO+
156.9964	4	C9FNO+
157.0256	5	C8H4F3+
157.0519	3	C10H7NO+
158.0338	14	C8H5F3+
158.0399	121	C10H5FN+
158.9808	3	C7H2ClF2+
159.0478	5	C10H6FN+
160.0132	4	C7H3F3O+
160.0319	2	C10H5FO+
161.0201	5	C10H3F2+
162.0275	33	C10H4F2+
162.9944	3	C9H4ClO+
163.0232	3	C9H3F2N+
164.0434	2	C10H6F2+
164.9915	25	C6H4ClF2O+
166.987	188	C6H3ClF3+
167.0057	24	C9H5ClF+
168.001	18	C8H4ClFN+
168.0242	3	C11H3FN+
168.0444	50	C11H6NO+
169.0257	16	C9H4F3+
169.0322	25	C11H4FN+
170.0337	56	C9H5F3+
172.0317	50	C11H5FO+
174.0104	67	C10H5ClN+
174.9756	2	C7H2ClF2O+
174.9869	57	C6F3NO2+
175.0184	30	C10H6ClN+
176.0022	120	C10H5ClO+
176.0306	21	C10H4F2N+
176.9912	69	C7H4ClF2O+
176.9988	4	C6H5ClFNO2+
177.0384	13	C10H5F2N+
177.051	14	C11H7F2+
178.9869	309	C7H3ClF3+
180.0131	4	C10H6ClF+
181.026	19	C10H4F3+
182.022	24	C5H9ClNO4+
182.0337	252	C10H5F3+
183.0416	15	C10H6F3+
184.052	118	C12H8O2+
184.9964	14	C9H4ClF2+
186.0286	57	C9H5F3O+
186.0355	4	C11H5FNO+
186.0551	23	C11H8NO2+
187.0428	305	C11H6FNO+
188.0306	24	C11H4F2N+
189.0384	493	C11H5F2N+
190.0465	17	C11H6F2N+
190.9868	24	C8H3ClF3+
191.013	5	C13H3O2+
191.0301	3	C11H5F2O+
192.0012	38	C10H4ClFN+
193.003	18	C8H5ClF3+
193.9987	2	C7H4ClF3N+
194.9822	24	C7H3ClF3O+
195.0418	32	
195.9897	4	C7H4ClF3O+
196.9965	4	C10H4ClF2+
197.0207	10	C10H4F3O+
197.0447	35	C10H6F3N+
197.0591	14	C13H9O2+
197.9916	10	C9H3ClF2N+
198.0041	5	C10H5ClF2+
198.0351	73	C12H5FNO+
199.0365	3	C10H6F3O+
200.0443	12	C10H7F3O+
200.9978	52	C11H4ClNO+
201.9859	3	C11F2O2+
203.0132	391	C11H6ClNO+
203.9829	17	C8H2ClF3N+
203.994	28	C9H4ClF3+
204.0216	49	C11H5FO3+
205.0025	13	C9H5ClF3+
205.0336	21	C11H5F2NO+
205.9983	4	C8H4ClF3N+
206.0208	13	C11H3F3N+
206.0415	31	C11H6F2NO+
207.0124	15	C10H3F2NO2+
207.0291	159	C11H4F3N+
208.0369	73	C11H5F3N+
209.0447	76	C11H6F3N+
209.0572	12	C12H8F3+
210.0168	39	C10H3F3NO+
210.0287	536	C11H5F3O+
211.0121	4	C11H6ClF2+
211.024	14	C10H4F3NO+
211.0603	15	C11H8F3N+
212.0324	3	C10H5F3NO+
212.9924	18	C7H5ClF3O2+
214.9873	3	C10H3ClF3+
216.0256	43	C12H4F2NO+
216.0371	12	C13H6F2O+
217.0028	119	C10H5ClF3+
217.0334	37	C12H5F2NO+
217.9983	36	C9H4ClF3N+
218.0413	331	C12H6F2NO+
219.0081	4	C11H6ClNO2+
220.9813	14	C8H4ClF2O3+
221.9927	10	C8H4ClF3NO+
222.0118	18	C11H6ClFNO+
222.9769	290	C8H3ClF3O2+
223.0365	172	C12H6F3O+
224.0076	35	C11H5ClF2N+
224.0317	23	C11H5F3NO+
224.9913	91	C11H4ClF2O+
225.0285	5	C9H9ClF3O+
225.0396	82	C11H6F3NO+
225.0521	35	C12H8F3O+
229.0028	10	C11H5ClF3+
229.035	4	C10H6F3NO2+
230.0107	44	C11H6ClF3+
231.9961	17	C12H4ClFNO+
232.998	27	C10H5ClF3O+
233.0408	101	C13H7F2O2+
234.0162	4	C12H3F3NO+
235.024	116	C12H4F3NO+
236.0318	134	C12H5F3NO+
237.0396	999	C12H6F3NO+
238.0473	116	C12H7F3NO+
238.0598	22	C13H9F3O+
239.0548	3	C12H8F3NO+
239.9799	3	C8H4ClF3O3+
240.002	9	C11H5ClF2NO+
240.0265	2	C11H5F3NO2+
241.9977	51	C11H4ClF3N+
245.9929	184	C10H4ClF3NO+
249.0235	11	C12H5F2NO3+
249.0521	15	C14H8F3O+
249.9867	43	C12H3ClF2NO+
251.0312	24	C13H6F3O2+
252.0023	152	C12H5ClF2NO+
252.0272	22	C12H5F3NO2+
252.039	9	C13H7F3O2+
253.0345	25	C12H6F3NO2+
253.0469	186	C13H8F3O2+
254.0421	23	C12H7F3NO2+
256.9973	3	C12H5ClF3O+
258.0051	4	C12H6ClF3O+
260.0084	4	C11H6ClF3NO+
263.0428	25	C15H10ClF2+
265.0471	44	C14H8F3O2+
266.055	11	C14H9F3O2+
267.997	4	C12H5ClF2NO2+
269.9931	33	C12H4ClF3NO+
271.0006	22	C12H5ClF3NO+
272.0086	11	C12H6ClF3NO+
272.9922	13	C12H5ClF3O2+
274.024	53	C12H8ClF3NO+
279.997	9	C13H5ClF2NO2+
282.0375	16	C13H7F3NO3+
284.9925	22	C13H5ClF3O2+
286.0003	46	C13H6ClF3O2+
288.0029	3	C15H3F3O3+
297.9879	33	C13H4ClF3NO2+
300.0034	179	C13H6ClF3NO2+
301.0238	173	C14H9ClF3O2+
