Mass spectrum: Iobitridol; LC-ESI-ITFT; MS2; CE: 60%; R=7500; [M+H]+
Name: Iobitridol
Name: 1,3-Benzenedicarboxamide, N,N'-bis(2,3-dihydroxypropyl)-5-((5-hydroxy-2-(hydroxymethyl)-1-oxopropyl)amino)-2,4,6-triiodo-N,N'-dimethyl-
Name: 1-N,3-N-bis(2,3-dihydroxypropyl)-5-[[3-hydroxy-2-(hydroxymethyl)propanoyl]amino]-2,4,6-triiodo-1-N,3-N-dimethylbenzene-1,3-dicarboxamide
Formula: C20H28I3N3O9
Exact mass: 834.8960
SMILES: Ic1c(c(I)c(c(I)c1NC(=O)C(CO)CO)C(=O)N(CC(O)CO)C)C(=O)N(CC(O)CO)C
InChI: InChI=1S/C20H28I3N3O9/c1-25(3-10(31)7-29)19(34)12-14(21)13(20(35)26(2)4-11(32)8-30)16(23)17(15(12)22)24-18(33)9(5-27)6-28/h9-11,27-32H,3-8H2,1-2H3,(H,24,33)
Instrument: LTQ Orbitrap XL Thermo Scientific
Instrument type: LC-ESI-ITFT
Ms type: MS2
Ion mode: POSITIVE
Ionization: ESI
Fragmentation mode: HCD
Collision energy: 60 % (nominal)
Resolution: 7500
Column name: XBridge C18 3.5um, 2.1x50mm, Waters
Retention time: 1.6 min
Base peak: 149.0023
Precursor m/z: 835.9032
Precursor type: [M+H]+
m/z	relative intensity	assigned
70.0648	147	C4H8N+
101.9975	164	C6NO+
160.0391	115	C9H6NO2+
170.0237	999	C10H4NO2+
185.0709	263	C11H9N2O+
186.0183	186	C10H4NO3+
187.0264	227	C10H5NO3+
188.0337	315	C10H6NO3+
196.1665	95	C7H22N3O3+
200.034	416	C11H6NO3+
201.0417	303	C11H7NO3+
202.0496	151	C11H8NO3+
205.0372	91	C10H7NO4+
213.0652	161	C12H9N2O2+
215.0815	111	C12H11N2O2+
218.0442	303	C11H8NO4+
243.0756	112	C13H11N2O3+
269.941	273	C9H5INO+
285.9359	582	C9H5INO2+
293.897	345	C2H3IN2O7+
295.9194	248	C10H3INO2+
299.953	97	C10H7INO2+
313.9306	534	C10H5INO3+
317.9627	310	C11N3O9+
339.9103	132	C11H3INO4+
343.9403	365	C11H7INO4+
355.8033	122	C3H2I2O4+
357.9217	129	C11H5INO5+
383.8002	391	C7I2NO2+
385.8164	123	C7H2I2NO2+
400.9977	166	C14H14IN2O4+
423.8332	160	C10H4I2NO2+
