Mass spectrum: Triclopyr; LC-ESI-ITFT; MS2; CE: 75%; R=7500; [M+H]+
Name: Triclopyr
Name: 2-(3,5,6-trichloropyridin-2-yl)oxyacetic acid
Formula: C7H4Cl3NO3
Exact mass: 254.9257
SMILES: ClC1=C(OCC(O)=O)N=C(Cl)C(Cl)=C1
InChI: InChI=1S/C7H4Cl3NO3/c8-3-1-4(9)7(11-6(3)10)14-2-5(12)13/h1H,2H2,(H,12,13)
Instrument: LTQ Orbitrap XL Thermo Scientific
Instrument type: LC-ESI-ITFT
Ms type: MS2
Ion mode: POSITIVE
Ionization: ESI
Fragmentation mode: HCD
Collision energy: 75 % (nominal)
Resolution: 7500
Column name: XBridge C18 3.5um, 2.1x50mm, Waters
Retention time: 10.3 min
Base peak: 255.9336
Precursor m/z: 255.933
Precursor type: [M+H]+
m/z	relative intensity	assigned
61.9794	7	CHClN+
62.9632	60	CClO+
84.984	9	C4H2Cl+
106.945	147	C3HCl2+
108.9714	5	C5ClN+
109.9792	277	C5HClN+
118.9448	49	C4HCl2+
127.9897	45	C5H3ClNO+
133.9558	73	C4H2Cl2N+
143.9401	119	C5Cl2N+
145.9559	999	C5H2Cl2N+
146.9637	18	C5H3Cl2N+
152.9061	6	C4Cl3+
161.9509	110	C5H2Cl2NO+
163.9664	729	C5H4Cl2NO+
168.9239	10	C4H2Cl3N+
179.917	936	C5HCl3N+
181.9325	205	C5H3Cl3N+
197.9274	580	C5H3Cl3NO+
209.9281	34	C6H3Cl3NO+
237.9326	6	C6H3Cl3N3O+
