Mass spectrum: Flubendiamide; LC-ESI-QFT; MS2; CE: 150%; R=17500; [M-H]-
Name: Flubendiamide
Name: 1-N-[4-(1,1,1,2,3,3,3-heptafluoropropan-2-yl)-2-methylphenyl]-3-iodo-2-N-(2-methyl-1-methylsulfonylpropan-2-yl)benzene-1,2-dicarboxamide
Formula: C23H22F7IN2O4S
Exact mass: 682.0233
SMILES: CC1=C(C=CC(=C1)C(C(F)(F)F)(C(F)(F)F)F)NC(=O)C2=C(C(=CC=C2)I)C(=O)NC(C)(C)CS(=O)(=O)C
InChI: InChI=1S/C23H22F7IN2O4S/c1-12-10-13(21(24,22(25,26)27)23(28,29)30)8-9-16(12)32-18(34)14-6-5-7-15(31)17(14)19(35)33-20(2,3)11-38(4,36)37/h5-10H,11H2,1-4H3,(H,32,34)(H,33,35)
Instrument: Exploris 240 Orbitrap Thermo Scientific
Instrument type: LC-ESI-QFT
Ms type: MS2
Ion mode: NEGATIVE
Ionization: ESI
Fragmentation mode: HCD
Collision energy: 150 % (nominal)
Resolution: 17500
Column name: XBridge C18 3.5um, 2.1x50mm, Waters
Retention time: 10.966 min
Base peak: 681.0162
Precursor m/z: 681.016
Precursor type: [M-H]-
m/z	relative intensity	assigned
73.0083	99	C6H-
74.0036	67	C5N-
76.019	80	C5H2N-
92.9958	117	C3F3-
97.0085	62	C8H-
98.0036	321	C7N-
116.9959	107	C5F3-
124.0197	28	C9H2N-
126.905	999	I-
134.0036	474	C10N-
174.0164	24	C10H2F2N-
