Mass spectrum: Pyribencarb; LC-ESI-QFT; MS2; CE: 150%; R=17500; [M+H]+
Name: Pyribencarb
Name: methyl {2-chloro-5-[(1E)-1-(6-methyl-2-pyridylmethoxyimino)ethyl]benzyl}carbamate
Name: methyl N-[[2-chloro-5-[C-methyl-N-[(6-methylpyridin-2-yl)methoxy]carbonimidoyl]phenyl]methyl]carbamate
Formula: C18H20ClN3O3
Exact mass: 361.1193
SMILES: CC1=NC(=CC=C1)CON=C(C)C2=CC(=C(C=C2)Cl)CNC(=O)OC
InChI: InChI=1S/C18H20ClN3O3/c1-12-5-4-6-16(21-12)11-25-22-13(2)14-7-8-17(19)15(9-14)10-20-18(23)24-3/h4-9H,10-11H2,1-3H3,(H,20,23)
Instrument: Exploris 240 Orbitrap Thermo Scientific
Instrument type: LC-ESI-QFT
Ms type: MS2
Ion mode: POSITIVE
Ionization: ESI
Fragmentation mode: HCD
Collision energy: 150 % (nominal)
Resolution: 17500
Column name: XBridge C18 3.5um, 2.1x50mm, Waters
Retention time: 5.920 min
Base peak: 362.1261
Precursor m/z: 362.1266
Precursor type: [M+H]+
m/z	relative intensity	assigned
50.0151	61	C4H2+
51.0229	411	C4H3+
53.0386	123	C4H5+
62.0151	199	C5H2+
63.0229	658	C5H3+
65.0385	336	C5H5+
66.0464	53	C5H6+
67.0542	25	C5H7+
72.9839	881	C3H2Cl+
74.0152	30	C6H2+
75.0228	330	C6H3+
76.0182	42	C5H2N+
76.0309	22	C6H4+
77.0386	368	C6H5+
78.0339	98	C5H4N+
78.0465	87	C6H6+
79.0542	23	C6H7+
84.984	30	C4H2Cl+
87.023	114	C7H3+
88.0306	89	C7H4+
89.0385	800	C7H5+
90.0464	21	C7H6+
91.0542	76	C7H7+
92.0495	193	C6H6N+
93.0571	46	C6H7N+
94.0652	147	C6H8N+
95.0494	53	C6H7O+
96.0445	18	C5H6NO+
96.9839	999	C5H2Cl+
98.9997	26	C5H4Cl+
102.0335	24	C7H4N+
102.0465	31	C8H6+
103.0412	16	C7H5N+
104.0495	63	C7H6N+
105.0448	83	C6H5N2+
106.0651	55	C7H8N+
110.0603	51	C6H8NO+
110.9993	22	C6H4Cl+
117.0572	33	C8H7N+
122.0598	55	C7H8NO+
122.9995	434	C7H4Cl+
139.006	31	C6H4ClN2+
