Mass spectrum: 1H-Benzotriazole-5-carboxylic acid; LC-ESI-QFT; MS2; CE: 45; R=35000; [M+H]+
Name: 1H-Benzotriazole-5-carboxylic acid
Name: 1H-benzotriazole-5-carboxylic acid
Name: 2H-benzotriazole-5-carboxylic acid
Formula: C7H5N3O2
Exact mass: 163.03818
SMILES: c1cc2c(cc1C(=O)O)nn[nH]2
InChI: InChI=1S/C7H5N3O2/c11-7(12)4-1-2-5-6(3-4)9-10-8-5/h1-3H,(H,11,12)(H,8,9,10)
Instrument: Q Exactive Plus Orbitrap Thermo Scientific
Instrument type: LC-ESI-QFT
Ms type: MS2
Ion mode: POSITIVE
Ionization: ESI
Fragmentation mode: HCD
Collision energy: 45 (nominal)
Resolution: 35000
Column name: XBridge C18 3.5um, 2.1x50mm, Waters
Retention time: 3.7 min
Base peak: 164.0453
Precursor m/z: 164.0455
Precursor type: [M+H]+
m/z	relative intensity	assigned
53.0385	1	C4H5+
65.0386	16	C5H5+
80.0494	35	C5H6N+
81.0335	1	C5H5O+
90.0339	7	C6H4N+
92.0495	5	C6H6N+
106.0288	3	C6H4NO+
108.0444	58	C6H6NO+
118.0288	4	C7H4NO+
118.04	5	C6H4N3+
120.0556	4	C6H6N3+
124.0393	2	C6H6NO2+
136.0394	10	C7H6NO2+
146.0351	1	C7H4N3O+
164.0454	999	C7H6N3O2+
