Mass spectrum: 4-Chlorobenzophenone; LC-ESI-QFT; MS2; CE: 150; R=35000; [M+H]+
Name: 4-Chlorobenzophenone
Name: 4-Chlorobenzophenon
Name: (4-chlorophenyl)-phenylmethanone
Formula: C13H9ClO
Exact mass: 216.03419
SMILES: C1=CC=C(C=C1)C(=O)C2=CC=C(C=C2)Cl
InChI: InChI=1S/C13H9ClO/c14-12-8-6-11(7-9-12)13(15)10-4-2-1-3-5-10/h1-9H
Instrument: Q Exactive Plus Orbitrap Thermo Scientific
Instrument type: LC-ESI-QFT
Ms type: MS2
Ion mode: POSITIVE
Ionization: ESI
Fragmentation mode: HCD
Collision energy: 150 (nominal)
Resolution: 35000
Column name: XBridge C18 3.5um, 2.1x50mm, Waters
Retention time: 12.2 min
Base peak: 217.0415
Precursor m/z: 217.0415
Precursor type: [M+H]+
m/z	relative intensity	assigned
50.0151	73	C4H2+
51.023	41	C4H3+
53.0022	30	C3HO+
53.0386	35	C4H5+
55.0178	3	C3H3O+
55.0542	2	C4H7+
60.984	4	C2H2Cl+
61.0072	1	C5H+
65.0022	5	C4HO+
65.0386	10	C5H5+
73.0071	1	C6H+
74.0151	244	C6H2+
75.0229	999	C6H3+
76.0307	23	C6H4+
77.0385	109	C6H5+
79.0178	2	C5H3O+
80.0256	2	C5H4O+
81.0335	3	C5H5O+
84.9839	110	C4H2Cl+
86.9996	22	C4H4Cl+
89.0021	2	C6HO+
93.0335	7	C6H5O+
94.0414	5	C6H6O+
95.0492	151	C6H7O+
105.0448	81	C6H5N2+
110.9996	71	C6H4Cl+
111.0441	4	C6H7O2+
114.9946	1	C5H4ClO+
121.0396	1	C6H5N2O+
129.0102	81	C6H6ClO+
139.0058	169	C6H4ClN2+
140.0028	1	C7H5ClO+
