Mass spectrum: Bromadiolone; LC-ESI-QFT; MS2; CE: 30; R=35000; [M-H]-
Name: Bromadiolone
Name: 3-[3-[4-(4-bromophenyl)phenyl]-3-hydroxy-1-phenylpropyl]-4-hydroxychromen-2-one
Formula: C30H23BrO4
Exact mass: 526.07797
SMILES: C1=CC=C(C=C1)C(CC(C2=CC=C(C=C2)C3=CC=C(C=C3)Br)O)C4=C(C5=CC=CC=C5OC4=O)O
InChI: InChI=1S/C30H23BrO4/c31-23-16-14-20(15-17-23)19-10-12-22(13-11-19)26(32)18-25(21-6-2-1-3-7-21)28-29(33)24-8-4-5-9-27(24)35-30(28)34/h1-17,25-26,32-33H,18H2
Instrument: Q Exactive Plus Orbitrap Thermo Scientific
Instrument type: LC-ESI-QFT
Ms type: MS2
Ion mode: NEGATIVE
Ionization: ESI
Fragmentation mode: HCD
Collision energy: 30 (nominal)
Resolution: 35000
Column name: XBridge C18 3.5um, 2.1x50mm, Waters
Retention time: 15.3 min
Base peak: 525.0704
Precursor m/z: 525.0707
Precursor type: [M-H]-
m/z	relative intensity	assigned
60.9931	1	CHO3-
78.9189	74	Br-
93.0346	46	C6H5O-
117.0346	2	C8H5O-
121.0294	2	C7H5O2-
135.0451	5	C8H7O2-
137.0244	44	C7H5O3-
145.0296	1	C9H5O2-
153.0711	1	C12H9-
161.0245	17	C9H5O3-
169.066	1	C12H9O-
181.0661	4	C13H9O-
187.04	1	C11H7O3-
197.0608	2	C13H9O2-
199.0765	4	C13H11O2-
207.0817	2	C15H11O-
219.0816	1	C16H11O-
221.0971	8	C16H13O-
223.0764	14	C15H11O2-
225.056	1	C14H9O3-
237.0921	8	C16H13O2-
247.0763	1	C17H11O2-
249.0919	3	C17H13O2-
250.0636	96	C16H10O3-
251.0713	9	C16H11O3-
260.992	8	C13H10BrO-
263.0715	5	C17H11O3-
265.087	8	C17H13O3-
272.9922	12	C14H10BrO-
274.9713	1	C13H8BrO2-
275.0714	7	C18H11O3-
349.0232	1	C20H14BrO-
361.0599	7	C22H18Br-
363.0024	1	C20H12BrO2-
375.0384	1	C22H16BrO-
387.0392	7	C23H16BrO-
405.0491	1	C23H18BrO2-
463.0703	13	C29H20BrO-
479.0651	1	C29H20BrO2-
489.0503	3	C30H18BrO2-
507.0599	11	C30H20BrO3-
525.0708	999	C30H22BrO4-
