Mass spectrum: Haloxyfop; LC-ESI-QFT; MS2; CE: 75; R=35000; [M-H]-
Name: Haloxyfop
Name: 2-[4-[3-chloro-5-(trifluoromethyl)pyridin-2-yl]oxyphenoxy]propanoic acid
Formula: C15H11ClF3NO4
Exact mass: 361.03287
SMILES: CC(C(=O)O)OC1=CC=C(C=C1)OC2=C(C=C(C=N2)C(F)(F)F)Cl
InChI: InChI=1S/C15H11ClF3NO4/c1-8(14(21)22)23-10-2-4-11(5-3-10)24-13-12(16)6-9(7-20-13)15(17,18)19/h2-8H,1H3,(H,21,22)
Instrument: Q Exactive Plus Orbitrap Thermo Scientific
Instrument type: LC-ESI-QFT
Ms type: MS2
Ion mode: NEGATIVE
Ionization: ESI
Fragmentation mode: HCD
Collision energy: 75 (nominal)
Resolution: 35000
Column name: XBridge C18 3.5um, 2.1x50mm, Waters
Retention time: 13.6 min
Base peak: 277.1447
Precursor m/z: 360.0256
Precursor type: [M-H]-
m/z	relative intensity	assigned
61.9884	7	NO3-
69.0347	35	C4H5O-
71.014	202	C3H3O2-
97.0294	6	C5H5O2-
108.0219	447	C6H4O2-
136.019	6	C10H2N-
156.0258	43	C10H3FN-
162.0177	10	C6H3F3NO-
170.0226	188	C4H9ClNO4-
175.9722	34	C6HClF2NO-
176.0314	24	C10H4F2N-
179.9836	11	C6H2ClF3N-
184.0208	69	C11H3FNO-
195.9785	999	C6H2ClF3NO-
197.0223	24	C7H7ClF3N-
204.0268	72	C11H4F2NO-
212.0157	12	C12H3FNO2-
224.0333	12	C11H5F3NO-
232.0216	35	C12H4F2NO2-
252.0283	48	C12H5F3NO2-
