Mass spectrum: Methamphetamine; LC-ESI-QFT; MS2; CE: 30; R=35000; [M+H]+
Name: Methamphetamine
Name: (2S)-N-methyl-1-phenylpropan-2-amine
Formula: C10H15N
Exact mass: 149.12045
SMILES: c1cccc(c1)C[C@H](C)NC
InChI: InChI=1S/C10H15N/c1-9(11-2)8-10-6-4-3-5-7-10/h3-7,9,11H,8H2,1-2H3/t9-/m0/s1
Instrument: Q Exactive Orbitrap Thermo Scientific
Instrument type: LC-ESI-QFT
Ms type: MS2
Ion mode: POSITIVE
Ionization: ESI
Fragmentation mode: HCD
Collision energy: 30 (nominal)
Resolution: 35000
Column name: XBridge C18 3.5um, 2.1x50mm, Waters
Retention time: 3.8 min
Base peak: 150.1277
Precursor m/z: 150.1277
Precursor type: [M+H]+
m/z	relative intensity	assigned
51.023	1	C4H3+
58.0652	3	C3H8N+
65.0385	3	C5H5+
89.0383	1	C7H5+
90.0463	1	C7H6+
91.0542	999	C7H7+
119.0855	662	C9H11+
150.1276	329	C10H16N+
