Mass spectrum: Niclosamide; LC-ESI-QFT; MS2; CE: 90; R=35000; [M+H]+
Name: Niclosamide
Name: 5-chloro-N-(2-chloro-4-nitrophenyl)-2-hydroxybenzamide
Formula: C13H8Cl2N2O4
Exact mass: 325.98611
SMILES: C1=CC(=C(C=C1[N+](=O)[O-])Cl)NC(=O)C2=C(C=CC(=C2)Cl)O
InChI: InChI=1S/C13H8Cl2N2O4/c14-7-1-4-12(18)9(5-7)13(19)16-11-3-2-8(17(20)21)6-10(11)15/h1-6,18H,(H,16,19)
Instrument: Q Exactive Orbitrap Thermo Scientific
Instrument type: LC-ESI-QFT
Ms type: MS2
Ion mode: POSITIVE
Ionization: ESI
Fragmentation mode: HCD
Collision energy: 90 (nominal)
Resolution: 35000
Column name: XBridge C18 3.5um, 2.1x50mm, Waters
Retention time: 15.6 min
Base peak: 149.0234
Precursor m/z: 326.9934
Precursor type: [M+H]+
m/z	relative intensity	assigned
63.0229	2	C5H3+
65.0386	1	C5H5+
67.0542	2	C5H7+
72.9839	20	C3H2Cl+
77.0152	1	C3H6Cl+
77.0385	1	C6H5+
79.0541	1	C6H7+
80.9735	2	CH2ClO2+
81.0698	1	C6H9+
91.0543	1	C7H7+
92.0495	1	C6H6N+
95.0491	3	C6H7O+
98.9843	999	CH4ClO3+
100.0072	1	C5H5Cl+
110.0362	1	C6H6O2+
126.9944	4	C6H4ClO+
127.0183	12	C6H6ClN+
131.9973	1	C5H5ClO2+
145.0051	8	C6H6ClO2+
152.0621	3	C12H8+
154.9895	22	C7H4ClO2+
155.0002	6	C9HNO2+
168.0569	1	C12H8O+
