Mass spectrum: N4-Acetylsulfamethoxazole; LC-ESI-ITFT; MS2; CE: 35%; R=30000; [M+H]+
Name: N4-Acetylsulfamethoxazole
Name: N-[4-[(5-methyl-1,2-oxazol-3-yl)sulfamoyl]phenyl]acetamide
Formula: C12H13N3O4S
Exact mass: 295.0627
SMILES: c1(ccc(cc1)NC(C)=O)S(Nc1cc(C)on1)(=O)=O
InChI: InChI=1S/C12H13N3O4S/c1-8-7-12(14-19-8)15-20(17,18)11-5-3-10(4-6-11)13-9(2)16/h3-7H,1-2H3,(H,13,16)(H,14,15)
Instrument: LTQ Orbitrap XL Thermo Scientific
Instrument type: LC-ESI-ITFT
Ms type: MS2
Ion mode: POSITIVE
Ionization: ESI
Fragmentation mode: CID
Collision energy: 35 % (nominal)
Resolution: 30000
Column name: XBridge C18 3.5um, 2.1x50mm, Waters
Retention time: 5.5 min
Base peak: 318.0528
Precursor m/z: 296.07
Precursor type: [M+H]+
m/z	relative intensity	assigned
94.0651	89	C6H8N+
99.0552	11	C4H7N2O+
108.0444	47	C6H6NO+
134.06	102	C8H8NO+
136.0757	999	C8H10NO+
146.0711	58	C8H8N3+
147.0791	21	C8H9N3+
148.0871	16	C8H10N3+
149.071	21	C8H9N2O+
150.0548	19	C8H8NO2+
151.0324	16	C7H7N2S+
156.0113	29	C6H6NO2S+
160.0867	54	C9H10N3+
162.0656	14	C8H8N3O+
172.087	19	C10H10N3+
176.0275	34	C8H6N3S+
177.0114	15	C8H5N2OS+
188.0818	932	C10H10N3O+
189.0896	154	C10H11N3O+
190.0974	423	C10H12N3O+
191.0816	25	C10H11N2O2+
193.043	25	C9H9N2OS+
194.0382	480	C8H8N3OS+
195.0221	39	C8H7N2O2S+
198.0218	699	C8H8NO3S+
202.0974	98	C11H12N3O+
203.082	15	C11H11N2O2+
214.0975	126	C12H12N3O+
216.0325	16	C8H10NO4S+
218.0382	73	C10H8N3OS+
219.0223	23	C10H7N2O2S+
230.0923	280	C12H12N3O2+
232.1079	163	C12H14N3O2+
236.0487	924	C10H10N3O2S+
254.0593	126	C10H12N3O3S+
278.0593	69	C12H12N3O3S+
