Mass spectrum: FK-506; LC-ESI-QFT; MS2; CE: 150; R=35000; [M+H]+
Name: FK-506
Name: Tacrolimus
Name: (1R,9S,12S,13R,14S,17R,21S,23S,24R,25S,27R)-17-Allyl-1,14-dihydroxy-12-{(1E)-1-[(1R,3R,4R)-4-hydroxy-3-methoxycyclohexyl]-1-propen-2-yl}-23,25-dimethoxy-13,19,21,27-tetramethyl-11,28-dioxa-4-azatricyc lo[22.3.1.0 4,9]octacos-18-ene-2,3,10,16-tetrone
Formula: C44H69NO12
Exact mass: 803.48198
SMILES: CC1CC(C2C(CC(C(O2)(C(=O)C(=O)N3CCCCC3C(=O)OC(C(C(CC(=O)C(C=C(C1)C)CC=C)O)C)C(=CC4CCC(C(C4)OC)O)C)O)C)OC)OC
InChI: InChI=1S/C44H69NO12/c1-10-13-31-19-25(2)18-26(3)20-37(54-8)40-38(55-9)22-28(5)44(52,57-40)41(49)42(50)45-17-12-11-14-32(45)43(51)56-39(29(6)34(47)24-35(31)48)27(4)21-30-15-16-33(46)36(23-30)53-7/h10,19,21,26,28-34,36-40,46-47,52H,1,11-18,20,22-24H2,2-9H3/b25-19-,27-21+/t26-,28+,29+,30-,31+,32-,33+,34-,36+,37-,38-,39+,40+,44+/m0/s1
Instrument: Q Exactive Plus Orbitrap Thermo Scientific
Instrument type: LC-ESI-QFT
Ms type: MS2
Ion mode: POSITIVE
Ionization: ESI
Fragmentation mode: HCD
Collision energy: 150 (nominal)
Resolution: 35000
Column name: XBridge C18 3.5um, 2.1x50mm, Waters
Retention time: 15.3 min
Base peak: 279.159
Precursor m/z: 804.4893
Precursor type: [M+H]+
m/z	relative intensity	assigned
56.0495	252	C3H6N+
57.0336	6	C3H5O+
57.0699	2	C4H9+
59.0492	3	C3H7O+
63.0228	12	C5H3+
65.0386	331	C5H5+
66.0464	33	C5H6+
67.0179	12	C4H3O+
67.0542	241	C5H7+
68.0257	3	C4H4O+
68.0494	2	C4H6N+
68.9971	9	C3HO2+
69.0335	27	C4H5O+
69.0573	8	C4H7N+
69.0699	17	C5H9+
71.0128	27	C3H3O2+
71.0491	10	C4H7O+
74.0965	3	C4H12N+
77.0386	85	C6H5+
78.0464	50	C6H6+
79.0542	417	C6H7+
80.0495	2	C5H6N+
80.0621	9	C6H8+
81.0335	71	C5H5O+
81.0699	60	C6H9+
82.0289	1	C4H4NO+
82.0414	9	C5H6O+
82.0651	16	C5H8N+
83.0491	11	C5H7O+
84.0808	408	C5H10N+
85.0285	2	C4H5O2+
85.0649	11	C5H9O+
89.0386	11	C7H5+
91.0543	999	C7H7+
92.062	9	C7H8+
93.07	64	C7H9+
94.0415	17	C6H6O+
94.0652	6	C6H8N+
94.0777	2	C7H10+
95.0492	450	C6H7O+
96.0571	2	C6H8O+
97.0285	2	C5H5O2+
97.0649	2	C6H9O+
102.0465	19	C8H6+
103.0543	140	C8H7+
104.0621	32	C8H8+
105.0448	233	C6H5N2+
105.07	240	C8H9+
106.0417	3	C7H6O+
107.0493	29	C7H7O+
107.0854	12	C8H11+
108.0571	7	C7H8O+
108.0809	2	C7H10N+
109.0285	221	C6H5O2+
109.0649	32	C7H9O+
111.0807	2	C7H11O+
115.0543	387	C9H7+
116.0621	70	C9H8+
117.0699	122	C9H9+
118.0779	6	C9H10+
119.0493	6	C8H7O+
119.0605	9	C7H7N2+
119.0856	50	C9H11+
121.0649	11	C8H9O+
123.0444	2	C7H7O2+
123.0804	2	C8H11O+
126.0466	6	C10H6+
127.0543	25	C10H7+
128.0621	470	C10H8+
129.07	190	C10H9+
130.0779	26	C10H10+
131.0492	22	C9H7O+
131.0856	26	C10H11+
132.0571	3	C9H8O+
133.0649	7	C9H9O+
133.1013	2	C10H13+
135.0441	1	C8H7O2+
135.0805	3	C9H11O+
136.1125	1	C9H14N+
139.0542	7	C11H7+
140.0623	2	C11H8+
141.0699	285	C11H9+
142.0779	58	C11H10+
143.0857	27	C11H11+
144.0569	11	C10H8O+
144.0936	6	C11H12+
145.0649	46	C10H9O+
145.1014	2	C11H13+
152.0622	102	C12H8+
153.07	121	C12H9+
154.0778	25	C12H10+
155.0604	53	C10H7N2+
155.0856	60	C12H11+
156.0934	7	C12H12+
157.0648	12	C11H9O+
157.1017	3	C12H13+
158.0732	5	C11H10O+
159.0805	3	C11H11O+
165.07	155	C13H9+
166.0779	25	C13H10+
167.0856	31	C13H11+
168.0569	6	C12H8O+
168.0936	2	C13H12+
169.0649	15	C12H9O+
169.1014	6	C13H13+
171.0806	7	C12H11O+
176.0621	6	C14H8+
177.0701	8	C14H9+
178.0779	61	C14H10+
179.0856	33	C14H11+
181.0653	15	C13H9O+
181.1016	1	C14H13+
183.0805	2	C13H11O+
185.0958	1	C13H13O+
189.0699	24	C15H9+
190.0776	10	C15H10+
191.0856	23	C15H11+
192.0932	7	C15H12+
193.1016	7	C15H13+
194.0728	1	C14H10O+
195.0807	6	C14H11O+
202.0778	25	C16H10+
203.0855	9	C16H11+
204.0932	2	C16H12+
205.0648	2	C15H9O+
205.1012	2	C16H13+
207.0805	1	C15H11O+
215.0854	8	C17H11+
217.101	1	C17H13+
229.1022	2	C18H13+
