Mass spectrum: Meclofenamic Acid; LC-ESI-QFT; MS2; CE: 90; R=35000; [M+H]+
Name: Meclofenamic Acid
Name: 2-(2,6-dichloro-3-methylanilino)benzoic acid
Formula: C14H11Cl2NO2
Exact mass: 295.01668
SMILES: CC1=C(C(=C(C=C1)Cl)NC2=CC=CC=C2C(=O)O)Cl
InChI: InChI=1S/C14H11Cl2NO2/c1-8-6-7-10(15)13(12(8)16)17-11-5-3-2-4-9(11)14(18)19/h2-7,17H,1H3,(H,18,19)
Instrument: Q Exactive Plus Orbitrap Thermo Scientific
Instrument type: LC-ESI-QFT
Ms type: MS2
Ion mode: POSITIVE
Ionization: ESI
Fragmentation mode: HCD
Collision energy: 90 (nominal)
Resolution: 35000
Column name: XBridge C18 3.5um, 2.1x50mm, Waters
Retention time: 14.0 min
Base peak: 296.0233
Precursor m/z: 296.024
Precursor type: [M+H]+
m/z	relative intensity	assigned
53.0385	2	C4H5+
75.0228	2	C6H3+
76.0306	3	C6H4+
77.0384	8	C6H5+
89.0385	2	C7H5+
92.0255	2	C6H4O+
95.0491	7	C6H7O+
104.0494	1	C7H6N+
105.0334	4	C7H5O+
105.0448	5	C6H5N2+
128.0493	3	C9H6N+
128.062	2	C10H8+
129.0573	2	C9H7N+
130.0288	2	C8H4NO+
140.0495	1	C10H6N+
146.06	1	C9H8NO+
150.0466	3	C12H6+
151.0542	25	C12H7+
152.062	117	C12H8+
153.0573	28	C11H7N+
153.0699	30	C12H9+
154.0651	6	C11H8N+
155.0604	3	C10H7N2+
155.0729	12	C11H9N+
164.0495	7	C12H6N+
166.0653	1	C12H8N+
167.0729	2	C12H9N+
169.0648	39	C12H9O+
170.0601	2	C11H8NO+
177.0574	32	C13H7N+
178.0652	462	C13H8N+
179.0616	25	C11H12Cl+
179.073	347	C13H9N+
180.0807	999	C13H10N+
182.06	22	C12H8NO+
183.0679	14	C12H9NO+
185.0473	5	C11H7NO2+
188.0262	2	C11H7ClN+
190.0652	2	C14H8N+
194.0604	5	C13H8NO+
195.0678	2	C13H9NO+
196.0757	21	C13H10NO+
200.0262	18	C12H7ClN+
206.0601	49	C14H8NO+
207.068	153	C14H9NO+
208.0758	471	C14H10NO+
211.0629	19	C13H9NO2+
212.0261	2	C13H7ClN+
213.034	75	C13H8ClN+
214.0419	435	C13H9ClN+
215.0497	91	C13H10ClN+
216.0211	15	C12H7ClNO+
217.0289	13	C12H8ClNO+
224.0266	3	C14H7ClN+
227.0131	1	C13H6ClNO+
228.021	5	C13H7ClNO+
229.029	1	C13H8ClNO+
234.995	11	C12H7Cl2N+
241.029	22	C14H8ClNO+
242.0368	479	C14H9ClNO+
243.0446	317	C14H10ClNO+
245.0238	7	C13H8ClNO2+
262.9901	8	C13H7Cl2NO+
