Mass spectrum: Venlafaxine; LC-ESI-ITFT; MS2; CE: 90%; R=7500; [M+H]+
Name: Venlafaxine
Name: 1-[2-(dimethylamino)-1-(4-methoxyphenyl)ethyl]-1-cyclohexanol
Formula: C17H27NO2
Exact mass: 277.2042
SMILES: CN(C)CC(C1=CC=C(C=C1)OC)C2(CCCCC2)O
InChI: InChI=1S/C17H27NO2/c1-18(2)13-16(17(19)11-5-4-6-12-17)14-7-9-15(20-3)10-8-14/h7-10,16,19H,4-6,11-13H2,1-3H3
Instrument: LTQ Orbitrap XL Thermo Scientific
Instrument type: LC-ESI-ITFT
Ms type: MS2
Ion mode: POSITIVE
Ionization: ESI
Fragmentation mode: HCD
Collision energy: 90 % (nominal)
Resolution: 7500
Column name: XBridge C18 3.5um, 2.1x50mm, Waters
Retention time: 6.2 min
Base peak: 278.2126
Precursor m/z: 278.2115
Precursor type: [M+H]+
m/z	relative intensity	assigned
58.0652	999	C3H8N+
77.0387	24	C6H5+
78.0465	12	C6H6+
79.0543	47	C6H7+
81.07	56	C6H9+
91.0544	229	C7H7+
93.0703	10	C7H9+
105.0703	15	C8H9+
106.0414	8	C7H6O+
107.0494	21	C7H7O+
115.0543	35	C9H7+
117.0699	20	C9H9+
119.0859	12	C9H11+
121.065	679	C8H9O+
128.062	11	C10H8+
129.0705	9	C10H9+
132.0571	38	C9H8O+
135.0804	20	C9H11O+
141.0703	10	C11H9+
144.0575	20	C10H8O+
146.0725	6	C10H10O+
147.0807	88	C10H11O+
158.0728	31	C11H10O+
159.0807	31	C11H11O+
162.0916	28	C10H12NO+
173.096	29	C12H13O+
