Mass spectrum: Dienogest; LC-ESI-QFT; MS2; CE: 90; R=35000; [M-H]-
Name: Dienogest
Name: 2-[(8S,13S,14S,17R)-17-hydroxy-13-methyl-3-oxo-1,2,6,7,8,11,12,14,15,16-decahydrocyclopenta[a]phenanthren-17-yl]acetonitrile
Formula: C20H25NO2
Exact mass: 311.18853
SMILES: C[C@]12CCC3=C4CCC(=O)C=C4CC[C@H]3[C@@H]1CC[C@]2(CC#N)O
InChI: InChI=1S/C20H25NO2/c1-19-8-6-16-15-5-3-14(22)12-13(15)2-4-17(16)18(19)7-9-20(19,23)10-11-21/h12,17-18,23H,2-10H2,1H3/t17-,18+,19+,20-/m1/s1
Instrument: Q Exactive Orbitrap Thermo Scientific
Instrument type: LC-ESI-QFT
Ms type: MS2
Ion mode: NEGATIVE
Ionization: ESI
Fragmentation mode: HCD
Collision energy: 90 (nominal)
Resolution: 35000
Column name: XBridge C18 3.5um, 2.1x50mm, Waters
Retention time: 8.2 min
Base peak: 356.1873
Precursor m/z: 310.1813
Precursor type: [M-H]-
m/z	relative intensity	assigned
64.0193	66	C4H2N-
66.035	239	C4H4N-
69.0347	23	C4H5O-
78.0351	25	C5H4N-
80.0507	75	C5H6N-
91.0555	31	C7H7-
92.0506	29	C6H6N-
93.0347	76	C6H5O-
95.0503	23	C6H7O-
106.0663	57	C7H8N-
107.0504	26	C7H7O-
109.066	63	C7H9O-
115.0553	25	C9H7-
116.0508	27	C8H6N-
117.0712	61	C9H9-
119.0504	116	C8H7O-
121.0294	23	C7H5O2-
129.0712	76	C10H9-
130.0424	72	C9H6O-
130.0663	155	C9H8N-
131.0501	15	C9H7O-
131.0867	229	C10H11-
132.0583	18	C9H8O-
132.082	285	C9H10N-
143.0503	341	C10H7O-
143.0868	23	C11H11-
145.066	311	C10H9O-
145.1024	61	C11H13-
155.0867	108	C12H11-
156.0582	94	C11H8O-
157.0659	418	C11H9O-
158.0736	80	C11H10O-
159.0816	276	C11H11O-
161.0972	73	C11H13O-
169.0659	195	C12H9O-
171.0817	660	C12H11O-
172.0891	16	C12H12O-
173.0972	999	C12H13O-
183.0819	19	C13H11O-
195.0818	67	C14H11O-
197.097	98	C14H13O-
209.0972	62	C15H13O-
211.1127	59	C15H15O-
223.1133	75	C16H15O-
225.1288	64	C16H17O-
235.1128	19	C17H15O-
237.1292	17	C17H17O-
253.1238	23	C17H17O2-
272.1072	17	C19H14NO-
274.124	254	C19H16NO-
276.1392	73	C19H18NO-
