Mass spectrum: Amisulpride; LC-ESI-ITFT; MS2; CE: 45%; R=7500; [M-H]-
Name: Amisulpride
Name: 4-amino-5-esyl-N-[(1-ethylpyrrolidin-2-yl)methyl]-2-methoxy-benzamide
Formula: C17H27N3O4S
Exact mass: 369.1722
SMILES: CCN1CCCC1CNC(=O)C2=CC(=C(C=C2OC)N)S(=O)(=O)CC
InChI: InChI=1S/C17H27N3O4S/c1-4-20-8-6-7-12(20)11-19-17(21)13-9-16(25(22,23)5-2)14(18)10-15(13)24-3/h9-10,12H,4-8,11,18H2,1-3H3,(H,19,21)
Instrument: LTQ Orbitrap XL Thermo Scientific
Instrument type: LC-ESI-ITFT
Ms type: MS2
Ion mode: NEGATIVE
Ionization: ESI
Fragmentation mode: HCD
Collision energy: 45 % (nominal)
Resolution: 7500
Column name: XBridge C18 3.5um, 2.1x50mm, Waters
Retention time: 3.8 min
Base peak: 414.1692
Precursor m/z: 368.165
Precursor type: [M-H]-
m/z	relative intensity	assigned
156.0126	352	C6H6NO2S-
163.0521	338	C8H7N2O2-
184.0438	477	C8H10NO2S-
276.1733	999	C17H24O3-
340.1332	614	C15H22N3O4S-
