Mass spectrum: Sulfadimethoxine; LC-ESI-ITFT; MS2; CE: 90%; R=7500; [M+H]+
Name: Sulfadimethoxine
Name: 4-amino-N-(2,6-dimethoxy-4-pyrimidinyl)benzenesulfonamide
Formula: C12H14N4O4S
Exact mass: 310.0736
SMILES: c1(NS(c2ccc(N)cc2)(=O)=O)cc(nc(n1)OC)OC
InChI: InChI=1S/C12H14N4O4S/c1-19-11-7-10(14-12(15-11)20-2)16-21(17,18)9-5-3-8(13)4-6-9/h3-7H,13H2,1-2H3,(H,14,15,16)
Instrument: LTQ Orbitrap XL Thermo Scientific
Instrument type: LC-ESI-ITFT
Ms type: MS2
Ion mode: POSITIVE
Ionization: ESI
Fragmentation mode: HCD
Collision energy: 90 % (nominal)
Resolution: 7500
Column name: XBridge C18 3.5um, 2.1x50mm, Waters
Retention time: 5.7 min
Base peak: 311.0817
Precursor m/z: 311.0809
Precursor type: [M+H]+
m/z	relative intensity	assigned
65.0386	693	C5H5+
67.0291	105	C3H3N2+
68.013	44	C3H2NO+
68.0497	53	C4H6N+
80.0495	202	C5H6N+
82.0287	78	C4H4NO+
92.0495	990	C6H6N+
93.0575	48	C6H7N+
108.0444	999	C6H6NO+
110.0352	67	C4H4N3O+
110.0601	98	C6H8NO+
113.0589	41	C4H7N3O+
124.0505	47	C5H6N3O+
126.0661	23	C5H8N3O+
141.0534	180	C5H7N3O2+
154.061	148	C6H8N3O2+
156.0767	247	C6H10N3O2+
157.0472	21	C3H5N6O2+
173.0576	117	C9H7N3O+
311.0815	40	C12H15N4O4S+
