Mass spectrum: Thiometon; LC-ESI-QFT; MS2; CE: 45%; R=17500; [M+H]+
Name: Thiometon
Name: 2-ethylsulfanylethylsulfanyl-dimethoxy-sulfanylidene-lambda5-phosphane
Formula: C6H15O2PS3
Exact mass: 245.9972
SMILES: CCSCCSP(=S)(OC)OC
InChI: InChI=1S/C6H15O2PS3/c1-4-11-5-6-12-9(10,7-2)8-3/h4-6H2,1-3H3
Instrument: Exploris 240 Orbitrap Thermo Scientific
Instrument type: LC-ESI-QFT
Ms type: MS2
Ion mode: POSITIVE
Ionization: ESI
Fragmentation mode: HCD
Collision energy: 45 % (nominal)
Resolution: 17500
Column name: XBridge C18 3.5um, 2.1x50mm, Waters
Retention time: 6.724 min
Base peak: 200.1182
Precursor m/z: 247.0045
Precursor type: [M+H]+
m/z	relative intensity	assigned
55.0543	11	C4H7+
61.0106	155	C2H5S+
89.0419	999	C4H9S+
