Mass spectrum: Metoxuron; LC-ESI-QFT; MS2; CE: 150; R=35000; [M-H]-
Name: Metoxuron
Name: 3-(3-chloro-4-methoxyphenyl)-1,1-dimethylurea
Formula: C10H13ClN2O2
Exact mass: 228.06656
SMILES: Clc1cc(ccc1OC)NC(=O)N(C)C
InChI: InChI=1S/C10H13ClN2O2/c1-13(2)10(14)12-7-4-5-9(15-3)8(11)6-7/h4-6H,1-3H3,(H,12,14)
Instrument: Q Exactive Plus Orbitrap Thermo Scientific
Instrument type: LC-ESI-QFT
Ms type: MS2
Ion mode: NEGATIVE
Ionization: ESI
Fragmentation mode: HCD
Collision energy: 150 (nominal)
Resolution: 35000
Column name: XBridge C18 3.5um, 2.1x50mm, Waters
Retention time: 6.0 min
Base peak: 182.9883
Precursor m/z: 227.0593
Precursor type: [M-H]-
m/z	relative intensity	assigned
50.0036	73	C3N-
61.0083	64	C5H-
63.024	51	C5H3-
65.0033	71	C4HO-
65.9986	99	C3NO-
76.0193	96	C5H2N-
77.0033	119	C5HO-
89.0033	999	C6HO-
91.0189	63	C6H3O-
116.0142	177	C7H2NO-
118.0298	21	C7H4NO-
132.0091	68	C7H2NO2-
151.9908	793	C10O2-
167.9851	13	C7H3ClNO2-
