Mass spectrum: Isoxaflutole; LC-ESI-QFT; MS2; CE: 15; R=35000; [M-H]-
Name: Isoxaflutole
Name: (5-cyclopropyl-1,2-oxazol-4-yl)-[2-methylsulfonyl-4-(trifluoromethyl)phenyl]methanone
Formula: C15H12F3NO4S
Exact mass: 359.04391
SMILES: O=C(c1c(onc1)C2CC2)c3ccc(cc3S(=O)(=O)C)C(F)(F)F
InChI: InChI=1S/C15H12F3NO4S/c1-24(21,22)12-6-9(15(16,17)18)4-5-10(12)13(20)11-7-19-23-14(11)8-2-3-8/h4-8H,2-3H2,1H3
Instrument: Q Exactive Plus Orbitrap Thermo Scientific
Instrument type: LC-ESI-QFT
Ms type: MS2
Ion mode: NEGATIVE
Ionization: ESI
Fragmentation mode: HCD
Collision energy: 15 (nominal)
Resolution: 35000
Column name: XBridge C18 3.5um, 2.1x50mm, Waters
Retention time: 8.6 min
Base peak: 358.0367
Precursor m/z: 358.0366
Precursor type: [M-H]-
m/z	relative intensity	assigned
63.9625	53	O2S-
78.986	999	CH3O2S-
108.0454	1	C6H6NO-
208.9891	1	C7H4F3O2S-
248.9841	2	C9H4F3O3S-
276.0645	1	C15H9F3NO-
278.0436	41	C14H7F3NO2-
294.0747	1	C15H11F3NO2-
340.0264	9	C15H9F3NO3S-
358.0372	712	C15H11F3NO4S-
