Mass spectrum: Propham; LC-ESI-QFT; MS2; CE: 180%; R=17500; [M+H]+
Name: Propham
Name: propan-2-yl N-phenylcarbamate
Formula: C10H13NO2
Exact mass: 179.0946
SMILES: CC(C)OC(=O)NC1=CC=CC=C1
InChI: InChI=1S/C10H13NO2/c1-8(2)13-10(12)11-9-6-4-3-5-7-9/h3-8H,1-2H3,(H,11,12)
Instrument: Exploris 240 Orbitrap Thermo Scientific
Instrument type: LC-ESI-QFT
Ms type: MS2
Ion mode: POSITIVE
Ionization: ESI
Fragmentation mode: HCD
Collision energy: 180 % (nominal)
Resolution: 17500
Column name: XBridge C18 3.5um, 2.1x50mm, Waters
Retention time: 6.825 min
Base peak: 138.0549
Precursor m/z: 180.1019
Precursor type: [M+H]+
m/z	relative intensity	assigned
50.0151	53	C4H2+
51.0229	999	C4H3+
53.0386	106	C4H5+
65.0386	149	C5H5+
66.0464	28	C5H6+
77.0386	269	C6H5+
92.0498	26	C6H6N+
93.0576	35	C6H7N+
94.0416	14	C6H6O+
95.0493	96	C6H7O+
