Mass spectrum: Sulfamethazine; LC-ESI-ITFT; MS2; CE: 75%; R=7500; [M+H]+
Name: Sulfamethazine
Name: 4-amino-N-(4,6-dimethylpyrimidin-2-yl)benzenesulfonamide
Name: 4-amino-N-(4,6-dimethyl-2-pyrimidinyl)benzenesulfonamide
Formula: C12H14N4O2S
Exact mass: 278.0837
SMILES: c1(S(Nc2nc(cc(n2)C)C)(=O)=O)ccc(N)cc1
InChI: InChI=1S/C12H14N4O2S/c1-8-7-9(2)15-12(14-8)16-19(17,18)11-5-3-10(13)4-6-11/h3-7H,13H2,1-2H3,(H,14,15,16)
Instrument: LTQ Orbitrap XL Thermo Scientific
Instrument type: LC-ESI-ITFT
Ms type: MS2
Ion mode: POSITIVE
Ionization: ESI
Fragmentation mode: HCD
Collision energy: 75 % (nominal)
Resolution: 7500
Column name: XBridge C18 3.5um, 2.1x50mm, Waters
Retention time: 3.9 min
Base peak: 279.0918
Precursor m/z: 279.091
Precursor type: [M+H]+
m/z	relative intensity	assigned
65.0386	288	C5H5+
68.0495	87	C4H6N+
78.0337	12	C5H4N+
80.0495	43	C5H6N+
81.0447	41	C4H5N2+
92.0495	754	C6H6N+
93.0573	42	C6H7N+
95.0604	128	C5H7N2+
96.068	25	C5H8N2+
107.0601	24	C6H7N2+
108.0444	843	C6H6NO+
110.0602	66	C6H8NO+
122.071	47	C6H8N3+
123.0787	27	C6H9N3+
124.0869	999	C6H10N3+
125.0709	53	C6H9N2O+
149.0239	25	CH5N6OS+
156.0111	32	C6H6NO2S+
186.0336	68	C6H8N3O2S+
213.1133	58	C12H13N4+
279.0924	26	C12H15N4O2S+
