Mass spectrum: N-ethyl-4-methoxybenzamide; LC-ESI-QFT; MS2; CE: 45; R=35000; [M+H]+
Name: N-ethyl-4-methoxybenzamide
Formula: C10H13NO2
Exact mass: 179.09463
SMILES: O=C(c1ccc(OC)cc1)NCC
InChI: InChI=1S/C10H13NO2/c1-3-11-10(12)8-4-6-9(13-2)7-5-8/h4-7H,3H2,1-2H3,(H,11,12)
Instrument: Q Exactive Orbitrap Thermo Scientific
Instrument type: LC-ESI-QFT
Ms type: MS2
Ion mode: POSITIVE
Ionization: ESI
Fragmentation mode: HCD
Collision energy: 45 (nominal)
Resolution: 35000
Column name: XBridge C18 3.5um, 2.1x50mm, Waters
Retention time: 5.6 min
Base peak: 180.1017
Precursor m/z: 180.1019
Precursor type: [M+H]+
m/z	relative intensity	assigned
72.0443	55	C3H6NO+
77.0383	4	C6H5+
79.0541	1	C6H7+
81.0698	2	C6H9+
92.0253	5	C6H4O+
94.0412	29	C6H6O+
95.049	6	C6H7O+
105.0446	3	C6H5N2+
107.0491	2	C7H7O+
109.0647	127	C7H9O+
125.0596	12	C7H9O2+
134.0601	4	C8H8NO+
135.044	999	C8H7O2+
180.1017	123	C10H14NO2+
