Mass spectrum: 2,6-Di-tert-butylpyridine; LC-ESI-QFT; MS2; CE: 45; R=35000; [M+H]+
Name: 2,6-Di-tert-butylpyridine
Name: 2,6-ditert-butylpyridine
Name: 2,6-Bis(2-methyl-2-propanyl)pyridine
Formula: C13H21N
Exact mass: 191.16740
SMILES: CC(C)(C)C1=NC(=CC=C1)C(C)(C)C
InChI: InChI=1S/C13H21N/c1-12(2,3)10-8-7-9-11(14-10)13(4,5)6/h7-9H,1-6H3
Instrument: Q Exactive Plus Orbitrap Thermo Scientific
Instrument type: LC-ESI-QFT
Ms type: MS2
Ion mode: POSITIVE
Ionization: ESI
Fragmentation mode: HCD
Collision energy: 45 (nominal)
Resolution: 35000
Column name: XBridge C18 3.5um, 2.1x50mm, Waters
Retention time: 5.5 min
Base peak: 164.9844
Precursor m/z: 192.1747
Precursor type: [M+H]+
m/z	relative intensity	assigned
55.0542	2	C4H7+
59.0491	1	C3H7O+
69.0698	2	C5H9+
83.0855	17	C6H11+
111.0804	8	C7H11O+
114.0914	2	C6H12NO+
119.0491	2	C8H7O+
121.0885	1	C8H11N+
133.0648	2	C9H9O+
162.1273	6	C11H16N+
163.1355	26	C11H17N+
176.143	3	C12H18N+
177.1512	54	C12H19N+
192.1747	999	C13H22N+
