Mass spectrum: Propaquizafop; LC-ESI-ITFT; MS2; CE: 90%; R=7500; [M+H]+
Name: Propaquizafop
Name: 2-(propan-2-ylideneamino)oxyethyl 2-[4-(6-chloranylquinoxalin-2-yl)oxyphenoxy]propanoate
Formula: C22H22ClN3O5
Exact mass: 443.1242
SMILES: CC(C(=O)OCCON=C(C)C)OC1=CC=C(C=C1)OC2=CN=C3C=C(C=CC3=N2)Cl
InChI: InChI=1S/C22H22ClN3O5/c1-14(2)26-29-11-10-28-22(27)15(3)30-17-5-7-18(8-6-17)31-21-13-24-20-12-16(23)4-9-19(20)25-21/h4-9,12-13,15H,10-11H2,1-3H3
Instrument: LTQ Orbitrap XL Thermo Scientific
Instrument type: LC-ESI-ITFT
Ms type: MS2
Ion mode: POSITIVE
Ionization: ESI
Fragmentation mode: HCD
Collision energy: 90 % (nominal)
Resolution: 7500
Column name: XBridge C18 3.5um, 2.1x50mm, Waters
Retention time: 15.0 min
Base peak: 466.114
Precursor m/z: 444.1321
Precursor type: [M+H]+
m/z	relative intensity	assigned
56.0494	722	C3H6N+
65.0385	123	C5H5+
70.065	999	C4H8N+
77.0386	78	C6H5+
91.0541	378	C7H7+
99.0439	280	C5H7O2+
100.018	40	C7H2N+
100.0518	179	C5H8O2+
100.0757	112	C5H10NO+
119.0489	34	C8H7O+
123.9948	24	C6H3ClN+
126.0102	42	C6H5ClN+
163.0056	910	C8H4ClN2+
164.0008	451	C7H3ClN3+
164.0492	105	C12H6N+
165.0219	27	C8H6ClN2+
165.0572	169	C12H7N+
179.0596	52	C12H7N2+
180.0689	36	C12H8N2+
181.0157	172	C11H3NO2+
191.0599	103	C13H7N2+
192.068	959	C13H8N2+
194.0846	31	C13H10N2+
207.0913	84	C14H11N2+
208.063	52	C13H8N2O+
215.0373	94	C12H8ClN2+
226.0294	96	C13H7ClN2+
227.0366	81	C16H5NO+
228.0445	42	C16H6NO+
229.0533	59	C13H10ClN2+
255.0315	201	C17H5NO2+
257.0469	131	C17H7NO2+
