Mass spectrum: Ifosfamide; LC-ESI-ITFT; MS2; CE: 90%; R=7500; [M+H]+
Name: Ifosfamide
Name: Isophosphamide
Name: N,3-Bis(2-chloroethyl)-1,3,2-oxazaphosphinan-2-amine 2-oxide
Formula: C7H15Cl2N2O2P
Exact mass: 260.0248
SMILES: ClCCN(P(OC1)(=O)NCCCl)CC1
InChI: InChI=1S/C7H15Cl2N2O2P/c8-2-4-10-14(12)11(6-3-9)5-1-7-13-14/h1-7H2,(H,10,12)
Instrument: LTQ Orbitrap XL Thermo Scientific
Instrument type: LC-ESI-ITFT
Ms type: MS2
Ion mode: POSITIVE
Ionization: ESI
Fragmentation mode: HCD
Collision energy: 90 % (nominal)
Resolution: 7500
Column name: XBridge C18 3.5um, 2.1x50mm, Waters
Retention time: 6.3 min
Base peak: 261.0321
Precursor m/z: 261.0321
Precursor type: [M+H]+
m/z	relative intensity	assigned
56.0495	10	C3H6N+
62.9996	83	C2H4Cl+
72.0444	5	C3H6NO+
78.0105	102	C2H5ClN+
80.0265	7	C2H7ClN+
82.0653	9	C5H8N+
84.0807	5	C5H10N+
92.0262	999	C3H7ClN+
97.9558	6	CH2Cl2N+
98.0005	8	CH5ClNO2+
98.9844	10	CH4ClO3+
106.0053	26	C2H5NO2P+
109.0046	9	C3H6ClO2+
115.9658	7	C4HClO2+
116.9503	36	CH3Cl2O2+
118.0055	11	C4H5ClNO+
118.0426	8	CH12ClN2P+
120.0203	9	C7H4O2+
120.0575	54	C5H11ClN+
123.9713	10	C2H4ClNOP+
124.0155	12	C3H7ClNO2+
125.9506	19	C2H2Cl2NO+
127.9664	18	C2H4Cl2NO+
128.0262	17	C6H7ClN+
136.0159	21	C4H7ClNO2+
141.9818	24	C2H6ClNO2P+
153.9819	158	C3H6ClNO2P+
