Mass spectrum: Benproperine; LC-ESI-QFT; MS2; CE: 90; R=35000; [M+H]+
Name: Benproperine
Name: 1-[1-(2-benzylphenoxy)propan-2-yl]piperidine
Formula: C21H27NO
Exact mass: 309.20926
SMILES: CC(COC1=CC=CC=C1CC2=CC=CC=C2)N3CCCCC3
InChI: InChI=1S/C21H27NO/c1-18(22-14-8-3-9-15-22)17-23-21-13-7-6-12-20(21)16-19-10-4-2-5-11-19/h2,4-7,10-13,18H,3,8-9,14-17H2,1H3
Instrument: Q Exactive Orbitrap Thermo Scientific
Instrument type: LC-ESI-QFT
Ms type: MS2
Ion mode: POSITIVE
Ionization: ESI
Fragmentation mode: HCD
Collision energy: 90 (nominal)
Resolution: 35000
Column name: XBridge C18 3.5um, 2.1x50mm, Waters
Retention time: 8.8 min
Base peak: 310.2167
Precursor m/z: 310.2165
Precursor type: [M+H]+
m/z	relative intensity	assigned
53.0024	8	C3HO+
55.0543	1	C4H7+
56.0495	11	C3H6N+
57.0574	4	C3H7N+
58.0652	47	C3H8N+
65.0386	38	C5H5+
67.0542	13	C5H7+
67.9893	1	C3O2+
68.0495	1	C4H6N+
69.0699	85	C5H9+
70.0651	120	C4H8N+
72.0808	16	C4H10N+
77.0386	13	C6H5+
79.0542	40	C6H7+
82.0652	5	C5H8N+
83.073	1	C5H9N+
84.0808	600	C5H10N+
85.0886	32	C5H11N+
86.0964	133	C5H12N+
91.0542	999	C7H7+
94.0651	1	C6H8N+
95.0492	44	C6H7O+
96.0808	45	C6H10N+
98.0965	19	C6H12N+
103.0542	2	C8H7+
105.0448	21	C6H5N2+
105.0699	1	C8H9+
107.0492	74	C7H7O+
110.0965	2	C7H12N+
111.1044	9	C7H13N+
112.1121	8	C7H14N+
115.0542	37	C9H7+
116.0621	6	C9H8+
117.0699	7	C9H9+
119.0493	1	C8H7O+
119.0854	6	C9H11+
124.1121	24	C8H14N+
126.1278	93	C8H16N+
127.0545	2	C10H7+
128.062	22	C10H8+
129.0699	22	C10H9+
131.0488	3	C9H7O+
131.0857	3	C10H11+
132.0571	5	C9H8O+
139.0542	2	C11H7+
141.0699	20	C11H9+
145.0649	7	C10H9O+
152.0621	74	C12H8+
153.07	68	C12H9+
154.0778	29	C12H10+
155.0606	8	C10H7N2+
155.0855	43	C12H11+
163.0545	1	C13H7+
164.0621	5	C13H8+
165.07	261	C13H9+
166.0778	9	C13H10+
168.0569	20	C12H8O+
169.0649	4	C12H9O+
176.1069	2	C11H14NO+
181.0649	36	C13H9O+
182.0727	10	C13H10O+
183.0804	10	C13H11O+
193.0762	4	C13H9N2+
