Mass spectrum: MCLY; LC-ESI-QFT; MS2; CE: 45%; R=17500; [M+H]+
Name: MCLY
Name: Microcystin LY
Name: (5R,8S,11R,12S,15S,18S,19S,22R)-15-[(4-hydroxyphenyl)methyl]-18-[(1E,3E,5S,6S)-6-methoxy-3,5-dimethyl-7-phenylhepta-1,3-dienyl]-1,5,12,19-tetramethyl-2-methylidene-8-(2-methylpropyl)-3,6,9,13,16,20,25-heptaoxo-1,4,7,10,14,17,21-heptazacyclopentacosane-11,22-dicarboxylic acid
Class: NA
Formula: C52H71N7O13
Exact mass: 1001.5110
SMILES: COC(Cc1ccccc1)C(C)\C=C(C)\C=C/C2NC(=O)C(Cc3ccc(O)cc3)NC(=O)C(C)C(NC(=O)C(CC(C)C)NC(=O)C(C)NC(=O)C(=C)N(C)C(=O)CCC(NC(=O)C2C)C(O)=O)C(O)=O
InChI: InChI=1S/C52H71N7O13/c1-28(2)24-40-50(67)58-44(52(70)71)32(6)46(63)56-41(26-36-17-19-37(60)20-18-36)49(66)54-38(21-16-29(3)25-30(4)42(72-10)27-35-14-12-11-13-15-35)31(5)45(62)55-39(51(68)69)22-23-43(61)59(9)34(8)48(65)53-33(7)47(64)57-40/h11-21,25,28,30-33,38-42,44,60H,8,22-24,26-27H2,1-7,9-10H3,(H,53,65)(H,54,66)(H,55,62)(H,56,63)(H,57,64)(H,58,67)(H,68,69)(H,70,71)/b21-16-,29-25+
Instrument: Q Exactive Plus Orbitrap Thermo Scientific
Instrument type: LC-ESI-QFT
Ms type: MS2
Ion mode: POSITIVE
Ionization: ESI
Fragmentation mode: HCD
Collision energy: 45 % (nominal)
Resolution: 17500
Column name: XBridge C18 3.5um, 2.1x50mm, Waters
Retention time: 10.738 min
Base peak: 164.9846
Precursor m/z: 1002.5183
Precursor type: [M+H]+
m/z	relative intensity	assigned
74.0237	5	C2H4NO2+
77.0384	5	C6H5+
79.0542	81	C6H7+
81.0698	7	C6H9+
82.0651	50	C5H8N+
84.0444	199	C4H6NO+
86.0964	719	C5H12N+
91.0542	329	C7H7+
93.0699	137	C7H9+
95.0491	53	C6H7O+
95.0855	41	C7H11+
96.0809	13	C6H10N+
99.0917	47	C5H11N2+
102.0548	32	C4H8NO2+
103.0542	240	C8H7+
105.0448	14	C6H5N2+
105.0699	260	C8H9+
107.0492	17	
107.0855	999	C8H11+
108.0808	10	C7H10N+
109.0647	22	C7H9O+
110.0601	43	C6H8NO+
112.0756	8	C6H10NO+
113.0237	6	C5H5O3+
113.0709	16	C5H9N2O+
115.0541	34	C9H7+
117.0698	100	C9H9+
119.0491	31	C8H7O+
119.0855	43	C9H11+
121.0646	14	C8H9O+
121.0757	9	C7H9N2+
121.1014	23	C9H13+
122.0964	16	C8H12N+
123.0803	5	C8H11O+
123.0916	9	C7H11N2+
124.0756	49	C7H10NO+
124.1121	83	C8H14N+
127.0865	844	C6H11N2O+
128.0707	28	C6H10NO2+
129.07	21	C10H9+
130.0498	55	C5H8NO3+
131.0854	80	C10H11+
132.0809	12	C9H10N+
133.1012	42	C10H13+
135.0804	858	C9H11O+
135.1167	708	C10H15+
136.0757	807	C8H10NO+
138.0549	197	C7H8NO2+
139.0866	9	C7H11N2O+
140.0705	17	C7H10NO2+
143.0855	56	C11H11+
145.1012	59	C11H13+
146.0601	28	C9H8NO+
146.0964	42	C10H12N+
147.0804	7	C10H11O+
147.117	9	C11H15+
149.071	39	C8H9N2O+
151.0862	10	C8H11N2O+
152.0708	17	C8H10NO2+
152.1068	5	C9H14NO+
155.0814	502	C7H11N2O2+
157.1016	14	C12H13+
157.1336	73	C8H17N2O+
159.0803	17	C11H11O+
159.1165	33	C12H15+
161.0961	58	C11H13O+
162.0914	44	C10H12NO+
162.1275	38	C11H16N+
163.1117	419	C11H15O+
164.0704	12	C9H10NO2+
167.0815	237	C8H11N2O2+
168.0656	21	C8H10NO3+
169.1005	21	C13H13+
170.0811	6	C8H12NO3+
171.0805	19	C12H11O+
171.1167	27	C13H15+
174.0912	8	C11H12NO+
176.1073	25	C11H14NO+
178.1228	5	C11H16NO+
181.1336	28	C10H17N2O+
182.0811	14	C9H12NO3+
183.116	6	C14H15+
185.1289	15	C9H17N2O2+
187.1123	21	C13H15O+
188.1066	20	C12H14NO+
188.1437	13	C13H18N+
190.1228	17	C12H16NO+
190.159	5	C13H20N+
192.0656	13	C10H10NO3+
193.0985	20	C10H13N2O2+
195.0769	170	C9H11N2O3+
195.1162	47	H21NO10+
196.0608	43	C9H10NO4+
202.0863	22	C12H12NO2+
207.1154	11	CH21NO10+
209.1304	82	CH23NO10+
213.0873	663	C9H13N2O4+
218.1544	73	H22N6O7+
219.1133	64	C12H15N2O2+
221.0927	11	C11H13N2O3+
222.1609	11	C14H22O2+
223.1085	17	C11H15N2O3+
226.1592	81	C16H20N+
228.139	14	CH20N6O7+
237.1239	19	C12H17N2O3+
237.1642	60	C4H23N5O6+
239.0668	59	C10H11N2O5+
239.1032	14	C11H15N2O4+
243.1337	37	C11H19N2O4+
246.1488	64	C15H20NO2+
247.1079	42	C13H15N2O3+
247.148	9	C19H19+
248.091	59	C11H12N4O3+
258.1855	19	C17H24NO+
259.1813	15	C3H31O12+
265.1186	332	C13H17N2O4+
266.1135	10	C12H16N3O4+
268.1656	15	C13H22N3O3+
269.1131	14	C12H17N2O5+
275.1757	22	C2H25N7O8+
282.1857	14	C5H26N6O7+
293.113	31	C14H17N2O5+
319.2031	11	C6H31N4O10+
329.1865	14	C5H27N7O9+
343.165	10	C19H23N2O4+
347.1961	15	C19H27N2O4+
384.2291	13	C24H32O4+
