Mass spectrum: Simazine-2-hydroxy; LC-ESI-ITFT; MS2; CE: 35%; R=7500; [M-H]-
Name: Simazine-2-hydroxy
Name: 2-Hydroxysimazine
Name: 2,6-bis(ethylamino)-1H-1,3,5-triazin-4-one
Formula: C7H13N5O
Exact mass: 183.1120
SMILES: Oc1nc(NCC)nc(NCC)n1
InChI: InChI=1S/C7H13N5O/c1-3-8-5-10-6(9-4-2)12-7(13)11-5/h3-4H2,1-2H3,(H3,8,9,10,11,12,13)
Instrument: LTQ Orbitrap XL Thermo Scientific
Instrument type: LC-ESI-ITFT
Ms type: MS2
Ion mode: NEGATIVE
Ionization: ESI
Fragmentation mode: CID
Collision energy: 35 % (nominal)
Resolution: 7500
Column name: XBridge C18 3.5um, 2.1x50mm, Waters
Retention time: 3.3 min
Base peak: 182.1055
Precursor m/z: 182.1047
Precursor type: [M-H]-
m/z	relative intensity	assigned
69.0458	268	C3H5N2-
111.0679	999	C4H7N4-
154.0735	667	C5H8N5O-
182.1048	601	C7H12N5O-
