Mass spectrum: 3-Hydroxycarbofuran; LC-ESI-QFT; MS2; CE: 150%; R=17500; [M+H]+
Name: 3-Hydroxycarbofuran
Name: (3-hydroxy-2,2-dimethyl-3H-1-benzofuran-7-yl) N-methylcarbamate
Formula: C12H15NO4
Exact mass: 237.1001
SMILES: CC1(C(C2=C(O1)C(=CC=C2)OC(=O)NC)O)C
InChI: InChI=1S/C12H15NO4/c1-12(2)10(14)7-5-4-6-8(9(7)17-12)16-11(15)13-3/h4-6,10,14H,1-3H3,(H,13,15)
Instrument: Exploris 240 Orbitrap Thermo Scientific
Instrument type: LC-ESI-QFT
Ms type: MS2
Ion mode: POSITIVE
Ionization: ESI
Fragmentation mode: HCD
Collision energy: 150 % (nominal)
Resolution: 17500
Column name: XBridge C18 3.5um, 2.1x50mm, Waters
Retention time: 4.051 min
Base peak: 220.0968
Precursor m/z: 238.1074
Precursor type: [M+H]+
m/z	relative intensity	assigned
51.0229	184	C4H3+
53.0386	228	C4H5+
55.0178	101	C3H3O+
58.0287	652	C2H4NO+
63.0229	42	C5H3+
65.0385	460	C5H5+
77.0385	537	C6H5+
79.0542	147	C6H7+
81.0335	42	C5H5O+
89.0385	63	C7H5+
91.0542	999	C7H7+
95.0493	199	C6H7O+
102.0462	124	C8H6+
107.0491	373	C7H7O+
115.0542	672	C9H7+
116.0619	47	C9H8+
117.0698	47	C9H9+
123.0444	41	C7H7O2+
