Mass spectrum: Crotamiton; LC-ESI-QFT; MS2; CE: 90; R=35000; [M+H]+
Name: Crotamiton
Name: N-ethyl-N-(2-methylphenyl)but-2-enamide
Formula: C13H17NO
Exact mass: 203.13101
SMILES: O=C(N(c1ccccc1C)CC)C=CC
InChI: InChI=1S/C13H17NO/c1-4-8-13(15)14(5-2)12-10-7-6-9-11(12)3/h4,6-10H,5H2,1-3H3
Instrument: Q Exactive Plus Orbitrap Thermo Scientific
Instrument type: LC-ESI-QFT
Ms type: MS2
Ion mode: POSITIVE
Ionization: ESI
Fragmentation mode: HCD
Collision energy: 90 (nominal)
Resolution: 35000
Column name: XBridge C18 3.5um, 2.1x50mm, Waters
Retention time: 9.8 min
Base peak: 204.1383
Precursor m/z: 204.1383
Precursor type: [M+H]+
m/z	relative intensity	assigned
53.0022	30	C3HO+
53.9975	5	C2NO+
54.01	1	C3H2O+
65.0386	21	C5H5+
67.0543	2	C5H7+
67.9893	11	C3O2+
68.0495	143	C4H6N+
69.0335	999	C4H5O+
77.0385	3	C6H5+
78.0464	1	C6H6+
79.0542	19	C6H7+
89.0386	2	C7H5+
91.0543	229	C7H7+
92.062	2	C7H8+
93.0574	79	C6H7N+
93.0699	5	C7H9+
95.0493	4	C6H7O+
96.0808	2	C6H10N+
103.0542	2	C8H7+
104.0495	3	C7H6N+
105.0447	2	C6H5N2+
105.07	7	C8H9+
106.0652	282	C7H8N+
107.073	92	C7H9N+
108.0808	92	C7H10N+
109.0648	11	C7H9O+
115.0543	5	C9H7+
116.0495	16	C8H6N+
117.0574	12	C8H7N+
117.07	5	C9H9+
118.0652	15	C8H8N+
119.0366	4	C7H5NO+
119.0605	8	C7H7N2+
119.073	14	C8H9N+
119.0857	1	C9H11+
120.0808	8	C8H10N+
121.0887	88	C8H11N+
129.0698	2	C10H9+
130.0652	10	C9H8N+
132.0444	10	C8H6NO+
132.0808	6	C9H10N+
133.0886	1	C9H11N+
134.06	36	C8H8NO+
134.0965	49	C9H12N+
136.1122	46	C9H14N+
142.0652	2	C10H8N+
143.073	15	C10H9N+
146.0601	7	C9H8NO+
146.0963	3	C10H12N+
156.0809	3	C11H10N+
158.0965	8	C11H12N+
160.0758	4	C10H10NO+
174.0916	2	C11H12NO+
