Mass spectrum: Trimipramine N-Oxide; LC-ESI-QFT; MS2; CE: 60; R=35000; [M+H]+
Name: Trimipramine N-Oxide
Name: Trimipramine N-oxide, (+/-)-
Name: 3-(5,6-dihydrobenzo[b][1]benzazepin-11-yl)-N,N,2-trimethylpropan-1-amine oxide
Formula: C20H26N2O
Exact mass: 310.20451
SMILES: CC(CN1C2=CC=CC=C2CCC3=CC=CC=C31)C[N+](C)(C)[O-]
InChI: InChI=1S/C20H26N2O/c1-16(15-22(2,3)23)14-21-19-10-6-4-8-17(19)12-13-18-9-5-7-11-20(18)21/h4-11,16H,12-15H2,1-3H3
Instrument: Q Exactive Plus Orbitrap Thermo Scientific
Instrument type: LC-ESI-QFT
Ms type: MS2
Ion mode: POSITIVE
Ionization: ESI
Fragmentation mode: HCD
Collision energy: 60 (nominal)
Resolution: 35000
Column name: XBridge C18 3.5um, 2.1x50mm, Waters
Retention time: 8.9 min
Base peak: 311.2114
Precursor m/z: 311.2118
Precursor type: [M+H]+
m/z	relative intensity	assigned
55.0542	15	C4H7+
56.0495	23	C3H6N+
58.0651	164	C3H8N+
60.0444	21	C2H6NO+
70.0651	12	C4H8N+
71.0729	203	C4H9N+
84.0808	49	C5H10N+
85.0886	20	C5H11N+
86.0964	794	C5H12N+
91.0542	15	C7H7+
98.0964	13	C6H12N+
99.1042	9	C6H13N+
100.112	6	C6H14N+
105.0699	11	C8H9+
106.0652	2	C7H8N+
115.0543	2	C9H7+
116.107	274	C6H14NO+
118.0651	2	C8H8N+
120.0808	1	C8H10N+
130.0651	8	C9H8N+
132.0808	3	C9H10N+
144.0809	5	C10H10N+
146.0965	1	C10H12N+
158.0964	4	C11H12N+
159.1043	3	C11H13N+
165.0691	1	C13H9+
167.0729	1	C12H9N+
172.1121	5	C12H14N+
178.0774	3	C14H10+
179.0855	2	C14H11+
180.0807	19	C13H10N+
191.0856	2	C15H11+
192.0806	3	C14H10N+
193.0886	732	C14H11N+
194.0964	20	C14H12N+
195.1042	95	C14H13N+
206.0965	21	C15H12N+
207.1043	8	C15H13N+
208.112	999	C15H14N+
218.0963	1	C16H12N+
219.1047	1	C16H13N+
220.1121	15	C16H14N+
221.1199	4	C16H15N+
222.1277	2	C16H16N+
233.1198	1	C17H15N+
234.1277	57	C17H16N+
235.1351	4	C17H17N+
248.1434	24	C18H18N+
249.151	11	C18H19N+
250.159	34	C18H20N+
