Mass spectrum: MCLF; LC-ESI-QFT; MS2; CE: 180%; R=17500; [M+H]+
Name: MCLF
Name: Microcystin LF
Name: 15-benzyl-18-[(1E,3E)-6-methoxy-3,5-dimethyl-7-phenylhepta-1,3-dienyl]-1,5,12,19-tetramethyl-2-methylidene-8-(2-methylpropyl)-3,6,9,13,16,20,25-heptaoxo-1,4,7,10,14,17,21-heptazacyclopentacosane-11,22-dicarboxylic acid
Class: NA
Formula: C52H71N7O12
Exact mass: 985.5161
SMILES: COC(Cc1ccccc1)C(C)/C=C(C)/C=C/C2NC(=O)C(Cc3ccccc3)NC(=O)C(C)C(NC(=O)C(CC(C)C)NC(=O)C(C)NC(=O)C(=C)N(C)C(=O)CCC(NC(=O)C2C)C(O)=O)C(O)=O
InChI: InChI=1S/C52H71N7O12/c1-29(2)25-40-50(66)58-44(52(69)70)33(6)46(62)56-41(27-36-17-13-11-14-18-36)49(65)54-38(22-21-30(3)26-31(4)42(71-10)28-37-19-15-12-16-20-37)32(5)45(61)55-39(51(67)68)23-24-43(60)59(9)35(8)48(64)53-34(7)47(63)57-40/h11-22,26,29,31-34,38-42,44H,8,23-25,27-28H2,1-7,9-10H3,(H,53,64)(H,54,65)(H,55,61)(H,56,62)(H,57,63)(H,58,66)(H,67,68)(H,69,70)/b22-21+,30-26+
Instrument: Q Exactive Plus Orbitrap Thermo Scientific
Instrument type: LC-ESI-QFT
Ms type: MS2
Ion mode: POSITIVE
Ionization: ESI
Fragmentation mode: HCD
Collision energy: 180 % (nominal)
Resolution: 17500
Column name: XBridge C18 3.5um, 2.1x50mm, Waters
Retention time: 12.318 min
Base peak: 164.9846
Precursor m/z: 986.5233
Precursor type: [M+H]+
m/z	relative intensity	assigned
69.0335	20	C4H5O+
69.0698	7	C5H9+
74.0236	13	C2H4NO2+
77.0385	51	C6H5+
78.0464	7	C6H6+
79.0542	259	C6H7+
80.0495	66	C5H6N+
81.0334	7	C5H5O+
81.0445	8	C4H5N2+
81.0572	5	C5H7N+
81.07	21	C6H9+
82.0288	23	C4H4NO+
82.0651	92	C5H8N+
84.0444	115	C4H6NO+
85.0286	15	C4H5O2+
86.0601	9	C4H8NO+
86.0964	45	C5H12N+
91.0543	906	C7H7+
92.062	18	C7H8+
93.0699	120	C7H9+
94.0651	39	C6H8N+
95.0492	479	C6H7O+
95.0855	12	
96.0683	6	C5H8N2+
96.0808	7	C6H10N+
99.0916	32	C5H11N2+
102.0464	31	C8H6+
103.0542	999	C8H7+
104.062	7	C8H8+
105.0448	172	C6H5N2+
105.0699	353	C8H9+
106.0524	14	C6H6N2+
106.0653	7	C7H8N+
106.0779	5	C8H10+
107.0489	4	
107.0604	8	
107.0855	226	C8H11+
108.0681	8	C6H8N2+
108.0807	7	C7H10N+
109.0649	65	C7H9O+
110.0602	13	C6H8NO+
113.0233	27	C5H5O3+
115.0542	102	C9H7+
116.062	20	C9H8+
117.0574	5	C8H7N+
117.0699	44	C9H9+
118.0649	12	C8H8N+
119.0603	37	C7H7N2+
119.0731	5	C8H9N+
119.0857	24	C9H11+
120.0567	10	
120.0808	292	C8H10N+
121.076	77	C7H9N2+
122.0836	9	C7H10N2+
127.0866	95	C6H11N2O+
128.0498	6	C9H6N+
128.0621	55	C10H8+
129.0698	36	C10H9+
130.065	42	C9H8N+
131.0734	6	C9H9N+
131.0855	23	C10H11+
135.0802	11	C9H11O+
135.1165	3	C10H15+
141.0697	11	C11H9+
143.0729	11	C10H9N+
144.0804	7	C10H10N+
145.0649	8	C10H9O+
146.0962	9	C10H12N+
149.0704	12	C8H9N2O+
155.06	10	C10H7N2+
165.0699	40	C13H9+
167.0832	15	C8H11N2O2+
178.078	15	C14H10+
179.0856	14	C14H11+
