Mass spectrum: Acetazolamide; LC-ESI-QFT; MS2; CE: 60; R=35000; [M+H]+
Name: Acetazolamide
Name: AZM
Name: N-(5-sulfamoyl-1,3,4-thiadiazol-2-yl)acetamide
Formula: C4H6N4O3S2
Exact mass: 221.98813
SMILES: O=S(=O)(c1nnc(s1)NC(=O)C)N
InChI: InChI=1S/C4H6N4O3S2/c1-2(9)6-3-7-8-4(12-3)13(5,10)11/h1H3,(H2,5,10,11)(H,6,7,9)
Instrument: Q Exactive Orbitrap Thermo Scientific
Instrument type: LC-ESI-QFT
Ms type: MS2
Ion mode: POSITIVE
Ionization: ESI
Fragmentation mode: HCD
Collision energy: 60 (nominal)
Resolution: 35000
Column name: XBridge C18 3.5um, 2.1x50mm, Waters
Retention time: 2.5 min
Base peak: 222.9955
Precursor m/z: 222.9954
Precursor type: [M+H]+
m/z	relative intensity	assigned
58.9823	11	CHNS+
59.9903	20	CH2NS+
63.9851	9	H2NOS+
71.9902	4	C2H2NS+
72.9855	155	CHN2S+
79.9799	4	H2NO2S+
99.9964	60	C2H2N3S+
101.0039	2	C2H3N3S+
102.0121	4	C2H4N3S+
142.0069	2	C4H4N3OS+
149.0234	9	CH5N6OS+
163.9574	2	N6OS2+
180.985	603	C2H5N4O2S2+
181.9688	999	C2H4N3O3S2+
183.9729	2	C3H6NO4S2+
199.9796	5	C2H6N3O4S2+
222.996	4	C4H7N4O3S2+
