Mass spectrum: Methoprotryne; LC-ESI-QFT; MS2; CE: 60%; R=17500; [M+H]+
Name: Methoprotryne
Name: 4-N-(3-methoxypropyl)-6-methylsulfanyl-2-N-propan-2-yl-1,3,5-triazine-2,4-diamine
Formula: C11H21N5OS
Exact mass: 271.1467
SMILES: CC(C)NC1=NC(=NC(=N1)NCCCOC)SC
InChI: InChI=1S/C11H21N5OS/c1-8(2)13-10-14-9(12-6-5-7-17-3)15-11(16-10)18-4/h8H,5-7H2,1-4H3,(H2,12,13,14,15,16)
Instrument: Exploris 240 Orbitrap Thermo Scientific
Instrument type: LC-ESI-QFT
Ms type: MS2
Ion mode: POSITIVE
Ionization: ESI
Fragmentation mode: HCD
Collision energy: 60 % (nominal)
Resolution: 17500
Column name: XBridge C18 3.5um, 2.1x50mm, Waters
Retention time: 6.075 min
Base peak: 272.1537
Precursor m/z: 272.154
Precursor type: [M+H]+
m/z	relative intensity	assigned
55.0291	16	C2H3N2+
56.0495	11	C3H6N+
57.0447	23	C2H5N2+
59.0492	21	C3H7O+
61.0106	16	C2H5S+
73.0648	99	C4H9O+
74.006	19	C2H4NS+
82.04	44	C3H4N3+
83.0604	50	C4H7N2+
91.0324	72	C2H7N2S+
103.0324	21	C3H7N2S+
108.0558	46	C5H6N3+
116.0277	92	C3H6N3S+
125.0822	300	C5H9N4+
140.0815	36	C6H10N3O+
150.0774	24	C6H8N5+
156.0339	17	C4H6N5S+
156.0587	17	C6H10N3S+
158.0498	17	C4H8N5S+
170.0496	968	C5H8N5S+
198.0809	999	C7H12N5S+
212.0967	167	C8H14N5S+
230.1073	100	C8H16N5OS+
240.1279	283	C10H18N5S+
272.154	62	C11H22N5OS+
