Mass spectrum: Dithiopyr; LC-ESI-QFT; MS2; CE: 75%; R=17500; [M+H]+
Name: Dithiopyr
Name: 3-S,5-S-dimethyl 2-(difluoromethyl)-4-(2-methylpropyl)-6-(trifluoromethyl)pyridine-3,5-dicarbothioate
Formula: C15H16F5NO2S2
Exact mass: 401.0543
SMILES: CC(C)CC1=C(C(=NC(=C1C(=O)SC)C(F)(F)F)C(F)F)C(=O)SC
InChI: InChI=1S/C15H16F5NO2S2/c1-6(2)5-7-8(13(22)24-3)10(12(16)17)21-11(15(18,19)20)9(7)14(23)25-4/h6,12H,5H2,1-4H3
Instrument: Exploris 240 Orbitrap Thermo Scientific
Instrument type: LC-ESI-QFT
Ms type: MS2
Ion mode: POSITIVE
Ionization: ESI
Fragmentation mode: HCD
Collision energy: 75 % (nominal)
Resolution: 17500
Column name: XBridge C18 3.5um, 2.1x50mm, Waters
Retention time: 12.694 min
Base peak: 334.1679
Precursor m/z: 402.0615
Precursor type: [M+H]+
m/z	relative intensity	assigned
61.0108	36	C2H5S+
74.9898	108	C2H3OS+
121.0107	36	C7H5S+
133.0444	35	C9H6F+
146.0063	49	C8H4NS+
147.014	61	C8H5NS+
152.0307	140	C8H4F2N+
154.0651	224	C11H8N+
160.0215	42	C9H6NS+
170.0401	46	C11H5FN+
172.0368	85	C8H5F3N+
180.0261	30	CH12F4OS2+
184.0557	36	C12H7FN+
188.0512	52	C3H15F3OS2+
188.9981	52	C8H4F3S+
192.0256	35	C2H12F4OS2+
196.0026	412	C9H4F2NS+
197.0106	239	C9H5F2NS+
198.017	58	C6H4F4NO2+
199.0458	50	C12H9NS+
201.9932	39	C8H3F3NS+
204.0274	36	C11H7FNS+
204.0625	95	C9H9F3NO+
210.0527	254	C11H7F3N+
216.0087	642	C6H10F2O2S2+
216.048	107	C12H10NOS+
217.0163	212	C6H11F2O2S2+
218.0222	68	C12H3F3N+
218.0434	87	C12H9FNS+
223.9978	999	C10H4F2NOS+
228.0283	179	C13H7FNS+
229.9887	105	C9H3F3NOS+
236.0151	166	C9H6F4NS+
237.9798	302	C10H5FNOS2+
240.0268	60	C11H5F3NO2+
244.0039	378	C10H5F3NOS+
244.0361	29	C14H9FOS+
245.0121	77	C10H6F3NOS+
248.0343	503	C13H8F2NS+
251.993	101	C11H4F2NO2S+
264.0092	60	C13H5F3NS+
271.9989	183	C11H5F3NO2S+
