Mass spectrum: Diltiazem; LC-ESI-QFT; MS2; CE: 75; R=35000; [M+H]+
Name: Diltiazem
Name: 1,5-Benzothiazepin-4(5H)-one, 3-(acetyloxy)-5-[2-(dimethylamino)ethyl]-2,3-dihydro-2-(4-methoxyphenyl)-, (2S-cis)-
Name: [5-(2-dimethylaminoethyl)-2-(4-methoxyphenyl)-4-oxidanylidene-2,3-dihydro-1,5-benzothiazepin-3-yl] ethanoate
Formula: C22H26N2O4S
Exact mass: 414.16133
SMILES: CC(=O)OC1C(SC2=CC=CC=C2N(C1=O)CCN(C)C)C3=CC=C(C=C3)OC
InChI: InChI=1S/C22H26N2O4S/c1-15(25)28-20-21(16-9-11-17(27-4)12-10-16)29-19-8-6-5-7-18(19)24(22(20)26)14-13-23(2)3/h5-12,20-21H,13-14H2,1-4H3
Instrument: Q Exactive Orbitrap Thermo Scientific
Instrument type: LC-ESI-QFT
Ms type: MS2
Ion mode: POSITIVE
Ionization: ESI
Fragmentation mode: HCD
Collision energy: 75 (nominal)
Resolution: 35000
Column name: XBridge C18 3.5um, 2.1x50mm, Waters
Retention time: 7.3 min
Base peak: 415.1692
Precursor m/z: 415.1686
Precursor type: [M+H]+
m/z	relative intensity	assigned
58.0652	13	C3H8N+
65.0386	11	C5H5+
68.9791	2	C3HS+
70.0651	7	C4H8N+
72.0808	74	C4H10N+
91.0543	5	C7H7+
94.0414	4	C6H6O+
95.0492	4	C6H7O+
109.0108	507	C6H5S+
111.0264	1	C6H7S+
117.0574	18	C8H7N+
118.0651	12	C8H8N+
121.0649	27	C8H9O+
130.0652	2	C9H8N+
131.0728	1	C9H9N+
133.065	1	C9H9O+
135.014	6	C7H5NS+
135.0806	1	C9H11O+
136.0218	7	C7H6NS+
137.0599	47	C8H9O2+
146.0603	2	C9H8NO+
148.0218	3	C8H6NS+
149.0295	5	C8H7NS+
149.0598	5	C9H9O2+
150.0374	999	C8H8NS+
152.053	1	C8H10NS+
162.0375	1	C9H8NS+
163.0451	3	C9H9NS+
164.0163	3	C8H6NOS+
173.0297	1	C10H7NS+
174.0373	12	C10H8NS+
178.0323	442	C9H8NOS+
191.0402	19	C10H9NOS+
192.0476	7	C10H10NOS+
223.0452	1	C14H9NS+
295.0672	1	C17H13NO2S+
310.0906	1	C18H16NO2S+
