Mass spectrum: Cyprodinil; LC-ESI-ITFT; MS2; CE: 90%; R=7500; [M+H]+
Name: Cyprodinil
Name: (4-cyclopropyl-6-methyl-pyrimidin-2-yl)-phenyl-amine
Formula: C14H15N3
Exact mass: 225.1260
SMILES: c1ccccc1Nc1nc(C2CC2)cc(C)n1
InChI: InChI=1S/C14H15N3/c1-10-9-13(11-7-8-11)17-14(15-10)16-12-5-3-2-4-6-12/h2-6,9,11H,7-8H2,1H3,(H,15,16,17)
Instrument: LTQ Orbitrap XL Thermo Scientific
Instrument type: LC-ESI-ITFT
Ms type: MS2
Ion mode: POSITIVE
Ionization: ESI
Fragmentation mode: HCD
Collision energy: 90 % (nominal)
Resolution: 7500
Column name: XBridge C18 3.5um, 2.1x50mm, Waters
Retention time: 9.4 min
Base peak: 226.1338
Precursor m/z: 226.1339
Precursor type: [M+H]+
m/z	relative intensity	assigned
53.0385	11	C4H5+
65.0386	166	C5H5+
67.029	9	C3H3N2+
67.0416	10	C4H5N+
67.0542	66	C5H7+
68.0495	59	C4H6N+
77.0386	218	C6H5+
79.0542	194	C6H7+
80.0495	87	C5H6N+
81.0699	93	C6H9+
82.0651	60	C5H8N+
84.0809	18	C5H10N+
89.0385	25	C7H5+
91.0542	415	C7H7+
92.0495	230	C6H6N+
92.062	46	C7H8+
93.0573	999	C6H7N+
94.0651	73	C6H8N+
95.0492	37	C6H7O+
96.0441	11	C5H6NO+
104.0495	77	C7H6N+
105.0448	66	C6H5N2+
106.0651	347	C7H8N+
107.073	29	C7H9N+
108.0684	82	C6H8N2+
108.0808	495	C7H10N+
109.076	39	C6H9N2+
110.0602	22	C6H8NO+
115.0546	17	C9H7+
116.0494	107	C8H6N+
117.0452	14	C7H5N2+
117.0573	84	C8H7N+
118.0525	326	C7H6N2+
118.065	94	C8H8N+
119.0604	306	C7H7N2+
124.0754	25	C7H10NO+
130.0406	11	C7H4N3+
130.0654	16	C9H8N+
131.0604	121	C8H7N2+
132.0682	168	C8H8N2+
133.076	196	C8H9N2+
140.0488	14	C10H6N+
142.0651	41	C10H8N+
143.0604	136	C9H7N2+
144.0551	13	C8H6N3+
144.0807	90	C10H10N+
145.076	71	C9H9N2+
148.0866	15	C8H10N3+
154.065	16	C11H8N+
157.0756	17	C10H9N2+
159.0916	52	C10H11N2+
165.0699	12	C13H9+
166.065	12	C12H8N+
167.073	79	C12H9N+
168.068	44	C11H8N2+
168.0816	45	C12H10N+
169.064	14	C10H7N3+
169.0763	42	C11H9N2+
170.0834	15	C11H10N2+
171.0917	13	C11H11N2+
180.0806	11	C13H10N+
181.0764	31	C12H9N2+
182.0841	43	C12H10N2+
183.0812	40	C13H11O+
184.0867	79	C11H10N3+
185.1076	41	C12H13N2+
191.0732	18	C14H9N+
192.0815	11	C14H10N+
193.0763	123	C13H9N2+
194.0838	141	C13H10N2+
198.1019	16	C12H12N3+
199.1097	11	C12H13N3+
207.0916	110	C14H11N2+
208.0997	46	C14H12N2+
209.1071	59	C14H13N2+
210.1025	207	C13H12N3+
211.11	26	C13H13N3+
224.1181	55	C14H14N3+
226.1348	496	C14H16N3+
