Mass spectrum: Valsartan acid; LC-ESI-QFT; MS2; CE: 15; R=35000; [M+H]+
Name: Valsartan acid
Name: 4-[2-(2H-1,2,3,4-tetrazol-5-yl)phenyl]benzoic acid
Formula: C14H10N4O2
Exact mass: 266.08038
SMILES: C1=CC=C(C(=C1)C2=CC=C(C=C2)C(=O)O)C3=NNN=N3
InChI: InChI=1S/C14H10N4O2/c19-14(20)10-7-5-9(6-8-10)11-3-1-2-4-12(11)13-15-17-18-16-13/h1-8H,(H,19,20)(H,15,16,17,18)
Instrument: Q Exactive Plus Orbitrap Thermo Scientific
Instrument type: LC-ESI-QFT
Ms type: MS2
Ion mode: POSITIVE
Ionization: ESI
Fragmentation mode: HCD
Collision energy: 15 (nominal)
Resolution: 35000
Column name: XBridge C18 3.5um, 2.1x50mm, Waters
Retention time: 6.8 min
Base peak: 267.0873
Precursor m/z: 267.0877
Precursor type: [M+H]+
m/z	relative intensity	assigned
152.0617	1	C12H8+
178.0645	1	C13H8N+
180.0807	2	C13H10N+
192.0679	1	C13H8N2+
193.0761	12	C13H9N2+
206.0599	988	C14H8NO+
221.0708	31	C14H9N2O+
223.0977	1	C13H11N4+
224.0705	43	C14H10NO2+
239.0811	1	C14H11N2O2+
240.0652	1	C12H8N4O2+
249.077	549	C14H9N4O+
267.0874	999	C14H11N4O2+
