Mass spectrum: Hydrocortisone; LC-ESI-QFT; MS2; CE: 15; R=35000; [M+H]+
Name: (8S,9S,10R,11S,13S,14S,17R)-11,17-dihydroxy-17-(2-hydroxyacetyl)-10,13-dimethyl-2,6,7,8,9,11,12,14,15,16-decahydro-1H-cyclopenta[a]phenanthren-3-one
Name: Cortisol
Name: Hydrocortisone
Formula: C21H30O5
Exact mass: 362.20932
SMILES: C[C@]12CCC(=O)C=C1CC[C@@H]3[C@@H]2[C@H](C[C@]4([C@H]3CC[C@@]4(C(=O)CO)O)C)O
InChI: InChI=1S/C21H30O5/c1-19-7-5-13(23)9-12(19)3-4-14-15-6-8-21(26,17(25)11-22)20(15,2)10-16(24)18(14)19/h9,14-16,18,22,24,26H,3-8,10-11H2,1-2H3/t14-,15-,16-,18+,19-,20-,21-/m0/s1
Instrument: Q Exactive Plus Orbitrap Thermo Scientific
Instrument type: LC-ESI-QFT
Ms type: MS2
Ion mode: POSITIVE
Ionization: ESI
Fragmentation mode: HCD
Collision energy: 15 (nominal)
Resolution: 35000
Column name: XBridge C18 3.5um, 2.1x50mm, Waters
Retention time: 7.7 min
Base peak: 363.2164
Precursor m/z: 363.2166
Precursor type: [M+H]+
m/z	relative intensity	assigned
97.0646	3	C6H9O+
109.0643	1	C7H9O+
121.0648	16	C8H9O+
123.0801	1	C8H11O+
135.0801	1	C9H11O+
147.0803	1	C10H11O+
147.1166	1	C11H15+
149.096	1	C10H13O+
175.112	1	C12H15O+
187.1118	1	C13H15O+
201.1275	1	C14H17O+
231.1378	1	C15H19O2+
239.1433	1	C17H19O+
241.1585	2	C17H21O+
243.174	1	C17H23O+
249.1638	1	C19H21+
251.1429	1	C18H19O+
265.1592	1	C19H21O+
267.1743	12	C19H23O+
269.1899	6	C19H25O+
279.1747	2	C20H23O+
281.1535	2	C19H21O2+
281.1899	3	C20H25O+
285.1848	2	C19H25O2+
287.2005	1	C19H27O2+
291.1746	5	C21H23O+
297.1849	8	C20H25O2+
299.2013	2	C20H27O2+
309.185	22	C21H25O2+
315.1953	3	C20H27O3+
327.1956	45	C21H27O3+
345.2063	29	C21H29O4+
363.2166	999	C21H31O5+
