Mass spectrum: Fluazifop-butyl; LC-ESI-QFT; MS2; CE: 45; R=35000; [M+H]+
Name: Fluazifop-butyl
Name: 2-[4-[[5-(trifluoromethyl)-2-pyridinyl]oxy]phenoxy]propanoic acid butyl ester
Formula: C19H20F3NO4
Exact mass: 383.13444
SMILES: O=C(OCCCC)C(Oc2ccc(Oc1ncc(cc1)C(F)(F)F)cc2)C
InChI: InChI=1S/C19H20F3NO4/c1-3-4-11-25-18(24)13(2)26-15-6-8-16(9-7-15)27-17-10-5-14(12-23-17)19(20,21)22/h5-10,12-13H,3-4,11H2,1-2H3
Instrument: Q Exactive Orbitrap Thermo Scientific
Instrument type: LC-ESI-QFT
Ms type: MS2
Ion mode: POSITIVE
Ionization: ESI
Fragmentation mode: HCD
Collision energy: 45 (nominal)
Resolution: 35000
Column name: XBridge C18 3.5um, 2.1x50mm, Waters
Retention time: 15.1 min
Base peak: 384.1426
Precursor m/z: 384.1417
Precursor type: [M+H]+
m/z	relative intensity	assigned
57.07	35	C4H9+
65.0386	25	C5H5+
73.0286	6	C3H5O2+
91.0544	791	C7H7+
93.0336	5	C6H5O+
95.0494	1	C6H7O+
107.0493	1	C7H7O+
109.0649	9	C7H9O+
111.0443	12	C6H7O2+
118.0652	1	C8H8N+
119.0494	152	C8H7O+
120.0573	2	C8H8O+
121.0286	37	C7H5O2+
121.065	5	C8H9O+
137.0602	1	C8H9O2+
146.0213	4	C6H3F3N+
147.0294	5	C6H4F3N+
164.032	43	C6H5F3NO+
167.0731	1	C12H9N+
179.0193	7	C6H4F3NO2+
185.0839	1	C12H11NO+
186.0532	7	C9H7F3N+
198.0529	6	C10H7F3N+
200.0319	1	C9H5F3NO+
211.0606	3	C11H8F3N+
213.0791	18	C10H12FNO3+
214.0476	5	C10H7F3NO+
214.0661	1	C13H9FNO+
226.0473	4	C11H7F3NO+
226.0842	23	C12H11F3N+
227.0557	74	C11H8F3NO+
228.0635	1	C11H9F3NO+
235.0614	2	C13H8F3N+
236.0687	19	C13H9F3N+
238.0479	287	C12H7F3NO+
239.056	8	C12H8F3NO+
240.063	9	C12H9F3NO+
253.0349	1	C12H6F3NO2+
253.0721	2	C13H10F3NO+
254.0431	165	C12H7F3NO2+
254.0792	560	C13H11F3NO+
255.0507	214	C12H8F3NO2+
256.0585	153	C12H9F3NO2+
262.069	1	C11H11F3NO3+
264.0637	20	C14H9F3NO+
267.0509	5	C13H8F3NO2+
268.0587	2	C13H9F3NO2+
282.0742	999	C14H11F3NO2+
310.0683	1	C15H11F3NO3+
328.0796	43	C15H13F3NO4+
