Mass spectrum: Difloxacin; LC-ESI-QFT; MS2; CE: 150; R=35000; [M+H]+
Name: Difloxacin
Name: 6-fluoro-1-(4-fluorophenyl)-7-(4-methylpiperazin-1-yl)-4-oxoquinoline-3-carboxylic acid
Name: 6-fluoro-1-(4-fluorophenyl)-7-(4-methylpiperazin-4-ium-1-yl)-4-oxoquinoline-3-carboxylate
Formula: C21H19F2N3O3
Exact mass: 399.1394479
SMILES: CN1CCN(CC1)C2=C(C=C3C(=C2)N(C=C(C3=O)C(=O)O)C4=CC=C(C=C4)F)F
InChI: InChI=1S/C21H19F2N3O3/c1-24-6-8-25(9-7-24)19-11-18-15(10-17(19)23)20(27)16(21(28)29)12-26(18)14-4-2-13(22)3-5-14/h2-5,10-12H,6-9H2,1H3,(H,28,29)
Instrument: Q Exactive Plus Orbitrap Thermo Scientific
Instrument type: LC-ESI-QFT
Ms type: MS2
Ion mode: POSITIVE
Ionization: ESI
Fragmentation mode: HCD
Collision energy: 150 (nominal)
Resolution: 35000
Column name: XBridge C18 3.5um, 2.1x50mm, Waters
Retention time: 4.5 min
Base peak: 400.1461
Precursor m/z: 400.1467
Precursor type: [M+H]+
m/z	relative intensity	assigned
50.0152	67	C4H2+
51.023	105	C4H3+
52.0182	8	C3H2N+
53.0023	62	C3HO+
53.0386	63	C4H5+
53.9975	4	C2NO+
54.0339	15	C3H4N+
55.0178	4	C3H3O+
56.0495	194	C3H6N+
57.0136	319	C3H2F+
57.0574	22	C3H7N+
58.0652	206	C3H8N+
59.0292	23	C3H4F+
61.0073	20	C5H+
62.0151	84	C5H2+
63.023	345	C5H3+
64.0182	8	C4H2N+
65.026	5	C4H3N+
65.0386	50	C5H5+
67.0417	65	C4H5N+
68.0057	6	C4HF+
68.0496	9	C4H6N+
69.0134	5	C4H2F+
70.0214	35	C4H3F+
70.0652	69	C4H8N+
71.0292	5	C4H4F+
72.0809	15	C4H10N+
74.0151	263	C6H2+
75.0229	949	C6H3+
76.0182	40	C5H2N+
76.0307	34	C6H4+
77.0022	26	C5HO+
77.0386	115	C6H5+
78.0339	35	C5H4N+
78.0464	24	C6H6+
80.0494	7	C5H6N+
81.0136	165	C5H2F+
82.0088	23	C4HFN+
82.0213	22	C5H3F+
82.0652	57	C5H8N+
83.0292	367	C5H4F+
84.0371	19	C5H5F+
85.0073	6	C7H+
86.0152	32	C7H2+
87.0103	4	C6HN+
87.023	68	C7H3+
88.0183	31	C6H2N+
88.0308	48	C7H4+
89.0386	403	C7H5+
90.0339	27	C6H4N+
90.0465	41	C7H6+
91.0419	4	C6H5N+
91.0543	44	C7H7+
92.0259	6	C6H4O+
93.0135	10	C6H2F+
94.0215	78	C6H3F+
95.0292	67	C6H4F+
95.0492	155	C6H7O+
96.037	37	C6H5F+
96.0446	34	C5H6NO+
97.0448	7	C6H6F+
98.0152	43	C8H2+
98.04	4	C5H5FN+
99.0105	7	C7HN+
99.0229	116	C8H3+
100.0183	72	C7H2N+
100.0309	34	C8H4+
101.0387	79	C8H5+
102.0339	46	C7H4N+
102.0465	120	C8H6+
103.0417	19	C7H5N+
103.0542	34	C8H7+
104.0497	39	C7H6N+
105.0135	48	C7H2F+
105.0448	102	C6H5N2+
106.0088	6	C6HFN+
106.0214	42	C7H3F+
107.0292	999	C7H4F+
108.0244	42	C6H3FN+
108.037	109	C7H5F+
109.0449	120	C7H6F+
110.0401	14	C6H5FN+
111.0233	6	C9H3+
112.0183	8	C8H2N+
113.0261	6	C8H3N+
113.0395	92	CH5F2N3O+
114.0339	96	C8H4N+
114.0465	24	C9H6+
115.0418	40	C8H5N+
115.0543	139	C9H7+
116.0496	37	C8H6N+
117.0574	29	C8H7N+
118.0215	8	C8H3F+
118.0289	8	C7H4NO+
119.0294	19	C8H4F+
119.0492	42	C8H7O+
120.0371	123	C8H5F+
120.0443	6	C7H6NO+
121.0323	26	C7H4FN+
121.045	23	C8H6F+
122.0401	65	C7H5FN+
123.0231	47	C10H3+
123.0354	143	C6H4FN2+
124.0183	19	C9H2N+
125.0198	5	C7H3F2+
125.0387	41	C10H5+
126.034	46	C9H4N+
126.0466	17	C10H6+
127.0417	27	C9H5N+
127.0542	6	C10H7+
128.0496	213	C9H6N+
129.0448	202	C8H5N2+
129.0573	23	C9H7N+
130.0401	26	C7H4N3+
130.0652	20	C9H8N+
131.0293	137	C9H4F+
132.0246	86	C8H3FN+
132.0371	18	C9H5F+
133.0323	30	C8H4FN+
133.0449	187	C9H6F+
134.0402	96	C8H5FN+
134.06	6	C8H8NO+
135.048	60	C8H6FN+
136.0559	6	C8H7FN+
137.0389	28	C11H5+
138.0342	8	C10H4N+
139.0418	7	C10H5N+
139.0544	19	C11H7+
140.0496	87	C10H6N+
141.0448	6	C9H5N2+
141.0574	48	C10H7N+
142.0531	15	C9H6N2+
142.0653	29	C10H8N+
143.0293	17	C10H4F+
144.0372	37	C10H5F+
144.0446	9	C9H6NO+
145.0324	15	C9H4FN+
145.0449	5	C10H6F+
146.0403	109	C9H5FN+
146.0526	21	C10H7F+
146.0602	18	C9H8NO+
147.0234	30	C9H4FO+
147.0354	25	C8H4FN2+
147.0481	16	C9H6FN+
148.0184	8	C11H2N+
148.0308	7	C12H4+
148.0558	94	C9H7FN+
149.0199	17	C9H3F2+
149.0388	58	C4H5F2N3O+
149.0511	9	C8H6FN2+
150.0347	20	C8H5FNO+
150.0466	49	C12H6+
151.0356	62	C9H5F2+
151.0414	9	C11H5N+
152.0504	23	C8H7FNO+
153.0446	18	C10H5N2+
154.0402	51	C9H4N3+
154.0653	16	C11H8N+
155.0293	73	C11H4F+
155.0607	55	C10H7N2+
156.0245	7	C10H3FN+
156.0369	33	C11H5F+
156.0682	5	C10H8N2+
156.081	5	C11H10N+
157.045	146	C11H6F+
158.0402	195	C10H5FN+
159.0482	8	C10H6FN+
160.0559	6	C10H7FN+
161.0387	117	C13H5+
162.0278	5	C10H4F2+
162.0465	40	C13H6+
163.0421	6	C9H6FNO+
163.0542	101	C13H7+
164.05	37	C9H7FNO+
165.0449	6	C11H5N2+
166.0526	6	C11H6N2+
166.0659	5	C9H9FNO+
167.0295	16	C12H4F+
167.0491	15	C12H7O+
167.0609	4	C11H7N2+
168.0372	165	C12H5F+
169.0323	7	C11H4FN+
169.0448	21	C12H6F+
169.0648	19	C12H9O+
169.0759	6	C11H9N2+
170.0402	26	C11H5FN+
170.0528	97	C12H7F+
170.0598	7	C11H8NO+
171.0358	4	C10H4FN2+
171.0477	19	C11H6FN+
172.0559	10	C11H7FN+
173.0199	7	C11H3F2+
173.0388	23	C14H5+
173.0511	42	C10H6FN2+
174.0274	9	C11H4F2+
174.0468	60	C14H6+
174.0589	7	C10H7FN2+
175.0356	98	C11H5F2+
175.0421	31	C13H5N+
175.0544	23	C14H7+
176.0308	63	C10H4F2N+
176.0498	23	C10H7FNO+
176.0623	24	C14H8+
177.0455	5	C9H6FN2O+
177.0575	28	C13H7N+
179.0294	134	C13H4F+
179.0605	27	C12H7N2+
180.037	110	C13H5F+
181.0449	965	C13H6F+
182.0402	257	C12H5FN+
182.0524	54	
183.0486	36	C12H6FN+
183.0606	86	C13H8F+
184.0322	6	C12H5FO+
184.0558	33	C12H7FN+
185.0397	21	
185.0637	7	C12H8FN+
186.0274	16	C12H4F2+
186.0342	22	C11H5FNO+
186.0476	19	C12H7FO+
187.0425	7	C11H6FNO+
187.0552	96	
188.043	60	C12H6F2+
188.0497	220	C11H7FNO+
189.0575	39	C14H7N+
190.0652	38	C14H8N+
192.0372	53	C14H5F+
192.0445	11	C13H6NO+
193.0325	20	C13H4FN+
193.0452	33	C14H6F+
193.0525	4	C13H7NO+
193.065	50	C14H9O+
194.04	24	C13H5FN+
194.0527	129	C14H7F+
194.0606	26	C10H9FNO2+
195.0481	136	C13H6FN+
196.0558	88	C13H7FN+
196.0685	7	C14H9F+
197.0204	4	C13H3F2+
197.0514	58	C12H6FN2+
197.0635	4	C13H8FN+
198.0279	22	C13H4F2+
199.0355	685	C13H5F2+
200.0307	108	C12H4F2N+
200.0433	95	C13H6F2+
200.0504	16	C12H7FNO+
201.0507	276	C13H7F2+
201.0575	38	
202.0465	88	C12H6F2N+
202.0654	45	C12H9FNO+
203.0536	26	C12H7F2N+
203.0626	28	
204.0381	46	C12H6F2O+
204.0555	15	C13H6N3+
205.0327	8	C14H4FN+
205.0454	40	
206.0404	525	C14H5FN+
207.0481	129	C14H6FN+
207.0605	75	C15H8F+
208.056	504	C14H7FN+
209.0637	84	C14H8FN+
210.0273	4	C14H4F2+
210.0721	5	C11H10F2NO+
211.043	24	C10H7F2NO2+
211.055	17	C9H7F2N3O+
212.0276	29	C10H6F2O3+
212.0419	44	C6H6N5O4+
212.0508	27	C13H7FNO+
213.0389	27	C13H5F2N+
214.0458	29	C13H6F2N+
215.042	15	C12H5F2N2+
215.0531	8	C13H7F2N+
218.0407	4	C15H5FN+
218.0603	17	C15H8NO+
219.0482	118	C15H6FN+
220.0561	153	C15H7FN+
221.0512	52	C11H7F2N2O+
221.0637	112	C15H8FN+
222.0471	32	C10H6F2N3O+
222.0608	7	C11H8F2N2O+
222.0714	72	C15H9FN+
223.0668	25	C14H8FN2+
224.031	48	C14H4F2N+
225.0386	54	C14H5F2N+
225.0496	10	C7H7N5O4+
225.0587	22	C14H8FNO+
226.0465	673	C14H6F2N+
227.0541	172	C14H7F2N+
228.056	22	C15H6N3+
230.0405	8	C13H6F2NO+
232.0331	22	C13H6F2O2+
232.0558	77	C16H7FN+
233.051	38	C15H6FN2+
233.0636	27	C16H8FN+
234.059	53	C15H7FN2+
234.0716	35	C16H9FN+
235.0665	18	C15H8FN2+
235.0782	4	C16H10FN+
236.0502	4	C15H7FNO+
236.0747	6	C15H9FN2+
237.0385	19	C15H5F2N+
238.046	24	C15H6F2N+
238.0667	30	C15H9FNO+
239.0384	19	C11H7F2NO3+
239.0543	63	C15H7F2N+
240.0617	60	C15H8F2N+
243.0489	8	C14H7F2NO+
247.0669	54	C16H8FN2+
251.0541	9	C16H7F2N+
252.0501	4	C15H6F2N2+
252.0623	25	C16H8F2N+
255.0494	5	C15H7F2NO+
256.0562	7	C15H8F2NO+
257.0281	18	C14H5F2NO2+
259.067	27	C17H8FN2+
260.0744	22	C17H9FN2+
261.0826	7	C17H10FN2+
