Mass spectrum: Sulfentrazon; LC-ESI-QFT; MS2; CE: 15; R=35000; [M+H]+
Name: Sulfentrazon
Name: N-(2,4-dichloro-5-(4-(difluoromethyl)-4,5-dihydro-3-methyl-5-oxo-1H-1,2,4-triazol-1-yl)phenyl)methanesulfonamide
Name: N-[2,4-dichloro-5-[4-(difluoromethyl)-3-methyl-5-oxo-1,2,4-triazol-1-yl]phenyl]methanesulfonamide
Formula: C11H10Cl2F2N4O3S
Exact mass: 385.98187
SMILES: O=S(=O)(Nc2c(Cl)cc(Cl)c(N1/N=C(\N(C1=O)C(F)F)C)c2)C
InChI: InChI=1S/C11H10Cl2F2N4O3S/c1-5-16-19(11(20)18(5)10(14)15)9-4-8(17-23(2,21)22)6(12)3-7(9)13/h3-4,10,17H,1-2H3
Instrument: Q Exactive Plus Orbitrap Thermo Scientific
Instrument type: LC-ESI-QFT
Ms type: MS2
Ion mode: POSITIVE
Ionization: ESI
Fragmentation mode: HCD
Collision energy: 15 (nominal)
Resolution: 35000
Column name: XBridge C18 3.5um, 2.1x50mm, Waters
Retention time: 7.4 min
Base peak: 386.989
Precursor m/z: 386.9891
Precursor type: [M+H]+
m/z	relative intensity	assigned
289.0306	1	C10H8ClF2N4O2+
306.9958	17	C10H7Cl2F2N4O+
308.0032	8	C10H8Cl2F2N4O+
322.9906	3	C10H7Cl2F2N4O2+
324.0003	1	C10H8Cl2F2N4O2+
336.9921	1	C10H11Cl2N4O3S+
340.9833	1	C10H9Cl2F2N4OS+
366.9833	6	C11H10Cl2FN4O3S+
386.989	999	C11H11Cl2F2N4O3S+
404.9996	19	
