Mass spectrum: Simvastatin; LC-ESI-QFT; MS2; CE: 75; R=35000; [M+H]+
Name: Simvastatin
Name: (1S,3R,7S,8S,8aR)-8-{2-[(2R,4R)-4-hydroxy-6-oxotetrahydro-2H-pyran-2-yl]ethyl}-3,7-dimethyl-1,2,3,7,8,8a-hexahydronaphthalen-1-yl 2,2-dimethylbutanoate
Name: 2,2-dimethylbutanoic acid [(1S,3R,7S,8S,8aR)-8-[2-[(2R,4R)-4-hydroxy-6-oxo-2-oxanyl]ethyl]-3,7-dimethyl-1,2,3,7,8,8a-hexahydronaphthalen-1-yl] ester
Formula: C25H38O5
Exact mass: 418.27192
SMILES: O=C(O[C@@H]1[C@H]3C(=C/[C@H](C)C1)\C=C/[C@@H]([C@@H]3CC[C@H]2OC(=O)C[C@H](O)C2)C)C(C)(C)CC
InChI: InChI=1S/C25H38O5/c1-6-25(4,5)24(28)30-21-12-15(2)11-17-8-7-16(3)20(23(17)21)10-9-19-13-18(26)14-22(27)29-19/h7-8,11,15-16,18-21,23,26H,6,9-10,12-14H2,1-5H3/t15-,16-,18+,19+,20-,21-,23-/m0/s1
Instrument: Q Exactive Orbitrap Thermo Scientific
Instrument type: LC-ESI-QFT
Ms type: MS2
Ion mode: POSITIVE
Ionization: ESI
Fragmentation mode: HCD
Collision energy: 75 (nominal)
Resolution: 35000
Column name: XBridge C18 3.5um, 2.1x50mm, Waters
Retention time: 16.0 min
Base peak: 436.3049
Precursor m/z: 419.2792
Precursor type: [M+H]+
m/z	relative intensity	assigned
65.0384	19	C5H5+
67.0541	96	C5H7+
68.997	17	C3HO2+
69.0333	5	C4H5O+
69.0698	48	C5H9+
71.0127	20	C3H3O2+
71.049	12	C4H7O+
71.0854	10	C5H11+
77.0384	14	C6H5+
79.0541	328	C6H7+
81.0697	275	C6H9+
83.049	64	C5H7O+
85.0646	18	C5H9O+
89.0232	4	C3H5O3+
91.0541	220	C7H7+
93.0697	148	C7H9+
95.049	52	C6H7O+
95.0854	52	C7H11+
97.0647	29	C6H9O+
103.054	18	C8H7+
105.0445	20	C6H5N2+
105.0697	414	C8H9+
107.0854	105	C8H11+
109.0646	23	C7H9O+
109.1009	10	C8H13+
115.0541	45	C9H7+
116.0618	23	C9H8+
117.0696	132	C9H9+
118.0777	2	C9H10+
119.0853	203	C9H11+
121.0645	4	C8H9O+
121.1009	23	C9H13+
123.0802	4	C8H11O+
128.0618	242	C10H8+
129.0696	183	C10H9+
130.0776	71	C10H10+
131.0853	424	C10H11+
133.0646	4	C9H9O+
133.101	41	C10H13+
135.0799	3	C9H11O+
141.0696	108	C11H9+
142.0776	248	C11H10+
143.0854	999	C11H11+
144.0932	120	C11H12+
145.0646	15	C10H9O+
145.101	307	C11H13+
147.0801	9	C10H11O+
147.1167	11	C11H15+
149.0961	10	C10H13O+
153.0697	37	C12H9+
154.0776	66	C12H10+
155.0603	22	C10H7N2+
155.0853	232	C12H11+
156.0932	152	C12H12+
157.101	236	C12H13+
158.1088	175	C12H14+
159.1166	186	C12H15+
160.1246	3	C12H16+
161.0957	3	C11H13O+
165.0698	19	C13H9+
166.0777	12	C13H10+
167.0852	33	C13H11+
168.0931	87	C13H12+
169.1009	312	C13H13+
170.1086	22	C13H14+
171.1166	158	C13H15+
173.1322	199	C13H17+
178.0774	15	C14H10+
179.0853	30	C14H11+
180.0932	10	C14H12+
181.1009	82	C14H13+
182.1089	38	C14H14+
183.1167	164	C14H15+
184.1246	22	C14H16+
185.1323	17	C14H17+
191.0858	3	C15H11+
192.093	25	C15H12+
193.1011	41	C15H13+
194.1088	12	C15H14+
195.1167	34	C15H15+
196.1245	24	C15H16+
197.1321	54	C15H17+
198.1401	3	C15H18+
199.1479	126	C15H19+
201.1636	4	C15H21+
205.1012	17	C16H13+
206.1089	4	C16H14+
207.1166	21	C16H15+
208.1245	14	C16H16+
209.1324	9	C16H17+
210.1402	26	C16H18+
211.111	5	C15H15O+
211.148	13	C16H19+
219.116	21	C17H15+
221.1321	4	C17H17+
223.1479	32	C17H19+
225.1636	57	C17H21+
234.1403	3	C18H18+
