Mass spectrum: Fenamidone; LC-ESI-QFT; MS2; CE: 75; R=35000; [M+H]+
Name: Fenamidone
Name: (5S)-3-anilino-5-methyl-2-(methylthio)-5-phenyl-2-imidazolin-4-one
Formula: C17H17N3OS
Exact mass: 311.10923
SMILES: O=C2N(Nc1ccccc1)C(\SC)=N/[C@]2(c3ccccc3)C
InChI: InChI=1S/C17H17N3OS/c1-17(13-9-5-3-6-10-13)15(21)20(16(18-17)22-2)19-14-11-7-4-8-12-14/h3-12,19H,1-2H3/t17-/m0/s1
Instrument: Q Exactive Orbitrap Thermo Scientific
Instrument type: LC-ESI-QFT
Ms type: MS2
Ion mode: POSITIVE
Ionization: ESI
Fragmentation mode: HCD
Collision energy: 75 (nominal)
Resolution: 35000
Column name: XBridge C18 3.5um, 2.1x50mm, Waters
Retention time: 10.3 min
Base peak: 312.1166
Precursor m/z: 312.1165
Precursor type: [M+H]+
m/z	relative intensity	assigned
65.0386	676	C5H5+
74.0058	18	C2H4NS+
74.9898	5	C2H3OS+
77.0385	1	C6H5+
79.0543	2	C6H7+
85.9694	7	C2NOS+
91.0542	2	C7H7+
92.0494	999	C6H6N+
93.0571	10	C6H7N+
95.0491	15	C6H7O+
102.0466	1	C8H6+
103.0542	222	C8H7+
104.0494	19	C7H6N+
105.0447	3	C6H5N2+
107.0604	1	C6H7N2+
109.076	4	C6H9N2+
110.0597	4	C6H8NO+
116.0495	2	C8H6N+
118.0524	6	C7H6N2+
119.0604	3	C7H7N2+
120.0807	87	C8H10N+
121.0106	2	C7H5S+
123.0137	5	C6H5NS+
130.0651	3	C9H8N+
131.0605	2	C8H7N2+
133.0634	3	C7H7N3+
133.076	28	C8H9N2+
134.0712	171	C7H8N3+
138.0373	3	C7H8NS+
145.0762	1	C9H9N2+
146.06	5	C9H8NO+
150.0246	63	C7H6N2S+
151.0578	1	C9H11S+
158.0712	19	C9H8N3+
161.0708	4	C9H9N2O+
162.0372	1	C9H8NS+
165.0481	19	C8H9N2S+
170.0964	4	C12H12N+
174.0247	1	C9H6N2S+
176.0403	1	C9H8N2S+
179.0731	3	C13H9N+
180.0808	2	C13H10N+
193.0889	4	C14H11N+
194.0963	18	C14H12N+
195.0915	6	C13H11N2+
205.0761	1	C14H9N2+
206.0834	5	C14H10N2+
207.0678	6	C14H9NO+
211.1234	1	C14H15N2+
219.0917	10	C15H11N2+
220.0867	6	C14H10N3+
221.0948	9	C14H11N3+
221.1062	1	C15H13N2+
222.0913	1	C15H12NO+
236.1182	32	C15H14N3+
237.048	6	C14H9N2S+
251.0638	2	C15H11N2S+
