Mass spectrum: Metalaxyl-M-TP CGA108906; LC-ESI-QFT; MS2; CE: 45%; R=17500; [M+H]+
Name: Metalaxyl-M-TP CGA108906
Name: 2-[1-carboxyethyl-(2-methoxyacetyl)amino]-3-methylbenzoic acid
Formula: C14H17NO6
Exact mass: 295.1056
SMILES: COCC(=O)N(C(C)C(O)=O)C1=C(C=CC=C1C)C(O)=O
InChI: InChI=1S/C14H17NO6/c1-8-5-4-6-10(14(19)20)12(8)15(9(2)13(17)18)11(16)7-21-3/h4-6,9H,7H2,1-3H3,(H,17,18)(H,19,20)
Instrument: Q Exactive Plus Orbitrap Thermo Scientific
Instrument type: LC-ESI-QFT
Ms type: MS2
Ion mode: POSITIVE
Ionization: ESI
Fragmentation mode: HCD
Collision energy: 45 % (nominal)
Resolution: 17500
Column name: XBridge C18 3.5um, 2.1x50mm, Waters
Retention time: 5.723 min
Base peak: 296.1129
Precursor m/z: 296.1129
Precursor type: [M+H]+
m/z	relative intensity	assigned
65.0386	1	C5H5+
91.0539	5	C7H7+
117.0572	3	C8H7N+
118.0653	6	C8H8N+
119.0494	1	C8H7O+
132.0809	8	C9H10N+
144.0806	7	C10H10N+
146.06	39	C9H8NO+
148.0756	2	C9H10NO+
160.0757	999	C10H10NO+
162.0917	5	C10H12NO+
164.07	1	C9H10NO2+
172.0756	11	C11H10NO+
174.0912	2	C11H12NO+
178.0863	90	C10H12NO2+
188.0704	4	C11H10NO2+
190.0862	58	C11H12NO2+
192.1021	1	C11H14NO2+
204.102	1	C12H14NO2+
206.0817	5	C11H12NO3+
236.0915	8	C12H14NO4+
