Mass spectrum: Terbutylazine-2-hydroxy; LC-ESI-ITFT; MS2; CE: 75%; R=7500; [M+H]+
Name: Terbutylazine-2-hydroxy
Name: 4-(Ethylamino)-6-[(2-methyl-2-propanyl)amino]-1,3,5-triazin-2(5H)-one
Formula: C9H17N5O
Exact mass: 211.1433
SMILES: CCNC1=NC(O)=NC(NC(C)(C)C)=N1
InChI: InChI=1S/C9H17N5O/c1-5-10-6-11-7(13-8(15)12-6)14-9(2,3)4/h5H2,1-4H3,(H3,10,11,12,13,14,15)
Instrument: LTQ Orbitrap XL Thermo Scientific
Instrument type: LC-ESI-ITFT
Ms type: MS2
Ion mode: POSITIVE
Ionization: ESI
Fragmentation mode: HCD
Collision energy: 75 % (nominal)
Resolution: 7500
Column name: XBridge C18 3.5um, 2.1x50mm, Waters
Retention time: 5.6 min
Base peak: 212.1507
Precursor m/z: 212.1506
Precursor type: [M+H]+
m/z	relative intensity	assigned
57.0699	22	C4H9+
68.0244	10	C2H2N3+
69.0084	425	C2HN2O+
71.0604	44	C3H7N2+
85.0509	21	C2H5N4+
86.0349	595	C2H4N3O+
96.0557	13	C4H6N3+
97.0397	225	C4H5N2O+
113.0823	29	C4H9N4+
114.0662	595	C4H8N3O+
128.0567	68	C3H6N5O+
138.0777	13	C5H8N5+
139.0616	7	C5H7N4O+
156.0879	999	C5H10N5O+
