Mass spectrum: Fenthion-sulfoxide; LC-ESI-QFT; MS2; CE: 75; R=35000; [M+H]+
Name: Fenthion-sulfoxide
Name: Mesulfenos
Name: O,O-Dimethyl O-[3-methyl-4-(methylsulfinyl)phenyl] phosphorothioate
Formula: C10H15O4PS2
Exact mass: 294.01494
SMILES: CC1=C(C=CC(=C1)OP(=S)(OC)OC)S(=O)C
InChI: InChI=1S/C10H15O4PS2/c1-8-7-9(5-6-10(8)17(4)11)14-15(16,12-2)13-3/h5-7H,1-4H3
Instrument: Q Exactive Plus Orbitrap Thermo Scientific
Instrument type: LC-ESI-QFT
Ms type: MS2
Ion mode: POSITIVE
Ionization: ESI
Fragmentation mode: HCD
Collision energy: 75 (nominal)
Resolution: 35000
Column name: XBridge C18 3.5um, 2.1x50mm, Waters
Retention time: 7.4 min
Base peak: 295.0216
Precursor m/z: 295.0222
Precursor type: [M+H]+
m/z	relative intensity	assigned
53.0386	9	C4H5+
58.995	2	C2H3S+
59.9665	1	COS+
62.0185	12	C2H6S+
62.9453	2	PS+
62.9995	10	CH4OP+
63.9436	4	S2+
64.9787	8	H2O2P+
65.0386	4	C5H5+
66.0464	10	C5H6+
67.0543	2	C5H7+
68.9793	1	C3HS+
69.9871	2	C3H2S+
77.0385	12	C6H5+
78.0464	120	C6H6+
78.9943	328	CH4O2P+
80.0021	4	CH5O2P+
81.01	2	CH6O2P+
84.0029	3	C4H4S+
89.0387	8	C7H5+
90.0465	10	C7H6+
91.0543	55	C7H7+
92.0621	13	C7H8+
93.0101	56	C2H6O2P+
93.0336	4	C6H5O+
93.0699	4	C7H9+
94.0414	10	C6H6O+
94.9892	2	CH4O3P+
95.0492	40	C6H7O+
96.0029	3	C5H4S+
97.005	13	CH6O3P+
97.0107	13	C5H5S+
98.0186	9	C5H6S+
98.9842	3	H4O4P+
103.0543	14	C8H7+
104.0257	1	C7H4O+
104.0621	29	C8H8+
105.0335	4	C7H5O+
105.0448	22	C6H5N2+
105.07	92	C8H9+
107.0492	7	C7H7O+
108.0028	9	C6H4S+
108.0569	3	C7H8O+
109.0053	6	C2H6O3P+
109.0107	84	C6H5S+
110.0185	77	C6H6S+
111.0204	2	C2H8O3P+
111.0264	50	C6H7S+
111.0441	2	C6H7O2+
112.9999	14	CH6O4P+
121.0107	45	C7H5S+
121.0649	11	C8H9O+
122.0186	35	C7H6S+
122.0726	5	C8H10O+
123.0263	32	C7H7S+
124.0343	16	C7H8S+
124.9822	111	C2H6O2PS+
125.0421	9	C7H9S+
126.0135	8	C6H6OS+
127.0155	999	C2H8O4P+
128.9769	2	CH6O3PS+
134.0186	8	C8H6S+
135.0263	31	C8H7S+
135.9979	5	C7H4OS+
136.0343	16	C8H8S+
137.0056	38	C7H5OS+
137.042	15	C8H9S+
138.0135	13	C7H6OS+
138.0498	9	C8H10S+
139.0213	22	C7H7OS+
139.9751	1	C6H4S2+
140.9828	17	C6H5S2+
141.0313	4	C3H10O4P+
141.9852	1	C2H7O3PS+
141.9906	20	C6H6S2+
142.9928	237	C2H8O3PS+
151.0577	11	C9H11S+
151.975	3	C7H4S2+
151.9846	1	C7H5PS+
152.9828	162	C7H5S2+
153.0369	10	C8H9OS+
153.9906	35	C7H6S2+
154.0446	6	C8H10OS+
154.9717	4	C6H4OPS+
154.9984	13	C7H7S2+
155.0162	4	C7H7O2S+
157.0085	3	C3H10O3PS+
165.9908	2	C8H6S2+
166.9984	8	C8H7S2+
167.9699	2	C7H4OS2+
167.9795	5	C7H5OPS+
168.0062	4	C8H8S2+
168.0603	2	C9H12OS+
168.9778	20	C7H5OS2+
168.9872	79	C7H6OPS+
169.0141	76	C8H9S2+
169.9856	23	C7H6OS2+
169.995	13	C7H7OPS+
170.0219	11	C8H10S2+
170.9934	8	C7H7OS2+
184.0376	1	C9H12S2+
184.982	2	C7H6O2PS+
185.0362	1	C8H10O3P+
186.9438	2	C6H4OPS2+
186.9981	1	C7H8O2PS+
198.9439	6	C7H4OPS2+
198.9979	1	C8H8O2PS+
199.0521	6	C9H12O3P+
200.0057	36	C8H9O2PS+
200.9594	5	C7H6OPS2+
202.9928	7	C7H8O3PS+
213.0135	2	C9H10O2PS+
214.9391	1	C7H4O2PS2+
214.9927	2	C8H8O3PS+
215.9465	4	C7H5O2PS2+
216.9543	2	C7H6O2PS2+
217.0085	4	C8H10O3PS+
218.016	1	C8H11O3PS+
230.9701	9	C8H8O2PS2+
231.024	4	C9H12O3PS+
232.0318	3	C9H13O3PS+
245.9932	2	C9H11O2PS2+
246.9646	1	C8H8O3PS2+
248.9803	2	C8H10O3PS2+
262.996	7	C9H12O3PS2+
