Mass spectrum: Nateglinide; LC-ESI-QFT; MS2; CE: 60; R=35000; [M-H]-
Name: Nateglinide
Formula: C19H27NO3
Exact mass: 317.19909
SMILES: CC([C@H]1CC[C@@H](CC1)C(=O)N[C@@H](C(=O)O)CC2=CC=CC=C2)C
InChI: InChI=1S/C19H27NO3/c1-13(2)15-8-10-16(11-9-15)18(21)20-17(19(22)23)12-14-6-4-3-5-7-14/h3-7,13,15-17H,8-12H2,1-2H3,(H,20,21)(H,22,23)/t15-,16-,17-/m1/s1
Instrument: Q Exactive Orbitrap Thermo Scientific
Instrument type: LC-ESI-QFT
Ms type: MS2
Ion mode: NEGATIVE
Ionization: ESI
Fragmentation mode: HCD
Collision energy: 60 (nominal)
Resolution: 35000
Column name: XBridge C18 3.5um, 2.1x50mm, Waters
Retention time: 13.6 min
Base peak: 316.1918
Precursor m/z: 316.1918
Precursor type: [M-H]-
m/z	relative intensity	assigned
72.0091	188	C2H2NO2-
91.0553	999	C7H7-
103.0553	107	C8H7-
118.0664	40	C8H8N-
119.0502	5	C8H7O-
131.0501	11	C9H7O-
135.0449	4	C8H7O2-
146.0611	4	C9H8NO-
147.0451	596	C9H7O2-
148.1131	16	C10H14N-
150.1287	3	C10H16N-
164.0717	308	C9H10NO2-
166.1235	47	C10H16NO-
167.1441	7	C11H19O-
168.1393	560	C10H18NO-
169.1232	5	C10H17O2-
180.1395	7	C11H18NO-
194.1553	22	C12H20NO-
243.1758	12	C17H23O-
270.1863	45	C18H24NO-
