Mass spectrum: Sulfentrazon; LC-ESI-QFT; MS2; CE: 60; R=35000; [M+H]+
Name: Sulfentrazon
Name: N-(2,4-dichloro-5-(4-(difluoromethyl)-4,5-dihydro-3-methyl-5-oxo-1H-1,2,4-triazol-1-yl)phenyl)methanesulfonamide
Name: N-[2,4-dichloro-5-[4-(difluoromethyl)-3-methyl-5-oxo-1,2,4-triazol-1-yl]phenyl]methanesulfonamide
Formula: C11H10Cl2F2N4O3S
Exact mass: 385.98187
SMILES: O=S(=O)(Nc2c(Cl)cc(Cl)c(N1/N=C(\N(C1=O)C(F)F)C)c2)C
InChI: InChI=1S/C11H10Cl2F2N4O3S/c1-5-16-19(11(20)18(5)10(14)15)9-4-8(17-23(2,21)22)6(12)3-7(9)13/h3-4,10,17H,1-2H3
Instrument: Q Exactive Plus Orbitrap Thermo Scientific
Instrument type: LC-ESI-QFT
Ms type: MS2
Ion mode: POSITIVE
Ionization: ESI
Fragmentation mode: HCD
Collision energy: 60 (nominal)
Resolution: 35000
Column name: XBridge C18 3.5um, 2.1x50mm, Waters
Retention time: 7.4 min
Base peak: 386.989
Precursor m/z: 386.9891
Precursor type: [M+H]+
m/z	relative intensity	assigned
52.0181	2	C3H2N+
61.9791	16	CHClN+
62.9632	1	CClO+
66.9745	2	CHClF+
67.029	1	C3H3N2+
68.013	3	C3H2NO+
72.9838	5	C3H2Cl+
73.0197	6	C2H2FN2+
73.0322	1	C3H4FN+
74.0036	93	C2HFNO+
75.0102	2	FN4+
76.0179	7	FHN4+
78.9847	3	CH3O2S+
82.9448	2	CHCl2+
84.9839	7	C4H2Cl+
85.0396	2	C3H5N2O+
85.9791	2	C3HClN+
87.9947	3	C3H3ClN+
88.9789	4	C3H2ClO+
89.0509	5	C3H6FN2+
92.0306	84	C3H4F2N+
97.979	4	C4HClN+
99.0427	31	C3H5N3O+
99.9948	9	C4H3ClN+
101.0134	25	C6HN2+
102.0105	19	C4H5ClN+
103.029	4	C6H3N2+
109.9792	95	C5HClN+
111.9948	33	C5H3ClN+
112.99	1	C4H2ClN2+
115.0057	4	C4H4ClN2+
115.9899	1	C4H3ClNO+
118.9449	1	C4HCl2+
119.024	11	C6H3N2O+
121.0395	1	C6H5N2O+
125.9979	3	C5H3ClN2+
127.0058	23	C5H4ClN2+
127.9897	53	C5H3ClNO+
128.9974	2	ClFH3N4O+
130.0054	5	C5H5ClNO+
133.9558	11	C4H2Cl2N+
135.9715	4	C4H4Cl2N+
136.9901	189	C6H2ClN2+
137.9979	19	C6H3ClN2+
139.0058	288	C6H4ClN2+
140.0135	7	C6H5ClN2+
143.0008	3	C5H4ClN2O+
143.0477	5	C8H5N3+
144.0556	3	C8H6N3+
145.0164	5	C5H6ClN2O+
145.9559	353	C5H2Cl2N+
146.0003	133	C5H5ClNO2+
146.9638	20	C5H3Cl2N+
147.9715	13	C5H4Cl2N+
149.0395	61	C4H5F2N3O+
149.9506	1	C4H2Cl2NO+
151.0056	4	C7H4ClN2+
151.0182	5	C3H5ClFN4+
152.0134	4	C7H5ClN2+
152.0263	5	C8H7ClN+
153.0214	4	C7H6ClN2+
153.9929	1	C6H3ClN2O+
154.0164	2	C6H5ClN3+
155.0006	720	C6H4ClN2O+
156.008	1	C9H2NO2+
157.9559	272	C6H2Cl2N+
158.9511	3	C5HCl2N2+
159.9715	2	C6H4Cl2N+
160.9668	10	C5H3Cl2N2+
163.9664	999	C5H4Cl2NO+
164.985	9	C7H2ClN2O+
166.0167	1	C7H5ClN3+
169.0162	7	C7H6ClN2O+
170.951	20	C6HCl2N2+
170.9957	5	C6H4ClN2O2+
171.9587	6	C6H2Cl2N2+
172.9668	348	C6H3Cl2N2+
173.9508	40	C6H2Cl2NO+
173.9746	231	C6H4Cl2N2+
174.9824	6	C6H5Cl2N2+
175.9664	32	C6H4Cl2NO+
178.0166	295	C8H5ClN3+
178.9536	2	C5H3Cl2NO2+
179.0246	4	C8H6ClN3+
179.9959	9	C7H3ClN3O+
180.0323	25	C8H7ClN3+
180.9623	2	C7H2ClN2S+
181.0037	13	C7H4ClN3O+
181.0401	16	C8H8ClN3+
182.0115	268	C7H5ClN3O+
184.0074	1	C7H4ClFN3+
184.9914	2	CH11Cl2N2O2S+
185.9874	2	C8H6Cl2N+
186.9824	601	C7H5Cl2N2+
187.9777	4	C6H4Cl2N3+
188.0692	9	C9H8N4O+
188.9616	17	C6H3Cl2N2O+
190.9773	26	C6H5Cl2N2O+
191.9613	3	C6H4Cl2NO2+
194.0113	1	C11H2N2O2+
197.9622	3	C7H2Cl2N3+
198.9461	334	C7HCl2N2O+
199.9539	3	C7H2Cl2N2O+
200.9617	27	C7H3Cl2N2O+
201.9695	6	C7H4Cl2N2O+
202.9569	4	C4H7Cl2NO2S+
204.9568	1	C6H3Cl2N2O2+
204.9932	2	C7H7Cl2N2O+
206.0008	3	C7H8Cl2N2O+
209.0225	1	C8H6ClN4O+
209.9864	6	C8H2ClFN3O+
212.0021	37	C8H4ClFN3O+
212.9855	1	C11H2ClN2O+
213.9933	50	C8H6Cl2N3+
215.001	7	C6HF2N4O3+
215.9728	3	C7H4Cl2N3O+
216.009	11	
216.939	3	C7H3Cl2N2S+
216.9567	3	C7H3Cl2N2O2+
216.9805	2	C7H5Cl2N3O+
217.9681	3	C7H3Cl2FN3+
218.9523	38	C7H2Cl2FN2O+
221.0225	14	C9H6ClN4O+
222.0303	20	C9H7ClN4O+
223.0382	175	C9H8ClN4O+
225.9572	4	C8H2Cl2N3O+
226.9647	13	C8H3Cl2N3O+
231.0005	14	
232.0084	438	C8H5ClF2N3O+
237.0581	6	C10H7F2N4O+
239.9726	1	C9H4Cl2N3O+
240.98	2	C9H5Cl2N3O+
241.988	5	C9H6Cl2N3O+
245.9632	74	C8HClF2N2O3+
246.024	9	C9H7ClF2N3O+
246.971	23	C8H4Cl2FN3O+
252.0205	1	C7H11ClN3O3S+
253.0285	3	C10H7ClFN4O+
256.9991	31	C9H7Cl2N4O+
258.007	72	C9H8Cl2N4O+
259.0195	10	C9H6ClF2N4O+
267.9913	2	C10H6Cl2N4O+
271.019	17	
272.0271	72	C10H7ClF2N4O+
273.0349	615	C10H8ClF2N4O+
274.0426	7	C10H9ClF2N4O+
279.9851	88	C9H6Cl2F2N3O+
286.9896	13	C10H6Cl2FN4O+
287.9978	6	C10H7Cl2FN4O+
306.9961	12	C10H7Cl2F2N4O+
308.0037	10	C10H8Cl2F2N4O+
318.9862	6	C10H6ClF2N4O2S+
321.0125	1	C11H9Cl2F2N4O+
336.9913	2	C10H11Cl2N4O3S+
