Mass spectrum: N,N-Didesmethylvenlafaxine; LC-ESI-ITFT; MS2; CE: 90%; R=30000; [M+H]+
Name: N,N-Didesmethylvenlafaxine
Name: 1-[2-Amino-1-(4-methoxyphenyl)ethyl]cyclohexanol
Formula: C15H23NO2
Exact mass: 249.1729
SMILES: OC2(C(c1ccc(OC)cc1)CN)CCCCC2
InChI: InChI=1S/C15H23NO2/c1-18-13-7-5-12(6-8-13)14(11-16)15(17)9-3-2-4-10-15/h5-8,14,17H,2-4,9-11,16H2,1H3
Instrument: LTQ Orbitrap XL Thermo Scientific
Instrument type: LC-ESI-ITFT
Ms type: MS2
Ion mode: POSITIVE
Ionization: ESI
Fragmentation mode: HCD
Collision energy: 90 % (nominal)
Resolution: 30000
Column name: XBridge C18 3.5um, 2.1x50mm, Waters
Retention time: 6.3 min
Base peak: 250.1814
Precursor m/z: 250.1802
Precursor type: [M+H]+
m/z	relative intensity	assigned
67.0543	7	C5H7+
69.07	6	C5H9+
77.0386	29	C6H5+
78.0464	19	C6H6+
79.0542	82	C6H7+
81.0699	79	C6H9+
91.0543	457	C7H7+
93.0699	25	C7H9+
103.0543	9	C8H7+
104.0622	18	C8H8+
105.0447	20	C6H5N2+
105.0699	23	C8H9+
106.0411	11	C7H6O+
107.0492	33	C7H7O+
115.0543	68	C9H7+
116.0621	14	C9H8+
117.0699	49	C9H9+
119.0604	8	C7H7N2+
119.0855	30	C9H11+
121.0649	999	C8H9O+
128.0622	25	C10H8+
129.0699	25	C10H9+
131.0491	27	C9H7O+
132.057	66	C9H8O+
133.0648	13	C9H9O+
135.0805	26	C9H11O+
141.0699	21	C11H9+
144.057	53	C10H8O+
145.0648	21	C10H9O+
146.0728	14	C10H10O+
147.0805	177	C10H11O+
155.0607	8	C10H7N2+
158.0726	74	C11H10O+
159.0805	62	C11H11O+
161.096	8	C11H13O+
173.0961	31	C12H13O+
232.1787	7	C11H24N2O3+
