Mass spectrum: Rifaximin; LC-ESI-QFT; MS2; CE: 150; R=35000; [M-H]-
Name: Rifaximin
Name: (7S,9E,11S,12R,13S,14R,15R,16R,17S,18S,19E,21Z)-2,15,17,36-Tetrahydroxy-11-methoxy-3,7,12,14,16,18,22,30-octamethyl-6,23-dioxo-8,37-dioxa-24,27,33-triazahexacyclo[23.10.1.14,7.05,35.026,34.027, 32]heptatriaconta-1(35),2,4,9,19,21,25(36),26(34),28,30,32-undecaen-13-yl acetate
Formula: C43H51N3O11
Exact mass: 785.35236
SMILES: CC1C=CC=C(C(=O)NC2=C(C3=C(C4=C(C(=C3O)C)OC(C4=O)(OC=CC(C(C(C(C(C(C1O)C)O)C)OC(=O)C)C)OC)C)C5=C2N6C=CC(=CC6=N5)C)O)C
InChI: InChI=1S/C43H51N3O11/c1-19-14-16-46-28(18-19)44-32-29-30-37(50)25(7)40-31(29)41(52)43(9,57-40)55-17-15-27(54-10)22(4)39(56-26(8)47)24(6)36(49)23(5)35(48)20(2)12-11-13-21(3)42(53)45-33(34(32)46)38(30)51/h11-18,20,22-24,27,35-36,39,48-51H,1-10H3,(H,45,53)
Instrument: Q Exactive Plus Orbitrap Thermo Scientific
Instrument type: LC-ESI-QFT
Ms type: MS2
Ion mode: NEGATIVE
Ionization: ESI
Fragmentation mode: HCD
Collision energy: 150 (nominal)
Resolution: 35000
Column name: XBridge C18 3.5um, 2.1x50mm, Waters
Retention time: 10.9 min
Base peak: 784.3448
Precursor m/z: 784.3451
Precursor type: [M-H]-
m/z	relative intensity	assigned
55.0189	67	C3H3O-
59.0138	999	C2H3O2-
63.0239	28	C5H3-
64.0067	451	C3N2-
65.0032	29	C4HO-
65.0145	163	C3HN2-
65.0397	40	C5H5-
65.9985	922	C3NO-
71.0138	136	C3H3O2-
74.0037	73	C5N-
89.0144	42	C5HN2-
90.0348	68	C6H4N-
93.0345	39	C6H5O-
104.0506	133	C7H6N-
105.0455	30	C6H5N2-
108.0453	200	C6H6NO-
114.0349	144	C8H4N-
115.0299	35	C7H3N2-
128.0504	60	C9H6N-
129.0458	58	C8H5N2-
139.0302	69	C9H3N2-
140.0507	44	C10H6N-
141.0456	166	C9H5N2-
144.0457	63	C9H6NO-
155.0379	43	C10H5NO-
155.0615	132	C10H7N2-
156.0457	53	C10H6NO-
156.0566	172	C9H6N3-
168.0456	58	C11H6NO-
169.0404	134	C10H5N2O-
170.0244	38	C10H4NO2-
180.0565	132	C11H6N3-
183.0322	68	C11H5NO2-
191.0617	35	C13H7N2-
193.0405	58	C12H5N2O-
196.0399	69	C12H6NO2-
200.0355	48	C11H6NO3-
205.0766	140	C14H9N2-
207.0563	53	C13H7N2O-
209.0349	64	C12H5N2O2-
216.0573	55	C14H6N3-
218.0723	65	C14H8N3-
219.0559	46	C14H7N2O-
219.0802	44	C14H9N3-
220.0641	49	C14H8N2O-
220.0876	46	C14H10N3-
229.0644	41	C15H7N3-
230.0719	45	C15H8N3-
231.0553	41	C15H7N2O-
231.0799	38	C15H9N3-
232.0636	50	C15H8N2O-
232.088	56	C15H10N3-
233.0712	116	C15H9N2O-
237.0294	30	C13H5N2O3-
246.0669	58	C15H8N3O-
246.0793	58	C16H10N2O-
247.0873	131	C16H11N2O-
249.0669	35	C15H9N2O2-
251.0458	44	C14H7N2O3-
257.072	114	C17H9N2O-
258.067	70	C16H8N3O-
259.0749	51	C16H9N3O-
261.0907	35	C16H11N3O-
272.084	48	C17H10N3O-
275.0828	39	C17H11N2O2-
287.0698	38	C17H9N3O2-
