Mass spectrum: Pyrimidinol; LC-ESI-ITFT; MS2; CE: 35%; R=30000; [M+H]+
Name: Pyrimidinol
Name: 2-isopropyl-6-methyl-1H-pyrimidin-4-one
Formula: C8H12N2O
Exact mass: 152.0950
SMILES: O=C/1/N=C(\N\C(=C\1)C)C(C)C
InChI: InChI=1S/C8H12N2O/c1-5(2)8-9-6(3)4-7(11)10-8/h4-5H,1-3H3,(H,9,10,11)
Instrument: LTQ Orbitrap XL Thermo Scientific
Instrument type: LC-ESI-ITFT
Ms type: MS2
Ion mode: POSITIVE
Ionization: ESI
Fragmentation mode: CID
Collision energy: 35 % (nominal)
Resolution: 30000
Column name: XBridge C18 3.5um, 2.1x50mm, Waters
Retention time: 3.4 min
Base peak: 153.1023
Precursor m/z: 153.1022
Precursor type: [M+H]+
m/z	relative intensity	assigned
70.0651	3	C4H8N+
84.0444	144	C4H6NO+
136.0756	1	C8H10NO+
137.0706	1	C7H9N2O+
138.0788	1	C7H10N2O+
153.1022	999	C8H13N2O+
