Mass spectrum: Phenytoin; LC-ESI-QFT; MS2; CE: 30; R=35000; [M-H]-
Name: Phenytoin
Name: 5,5-diphenylimidazolidine-2,4-dione
Formula: C15H12N2O2
Exact mass: 252.08988
SMILES: C1=CC=C(C=C1)C2(C(=O)NC(=O)N2)C3=CC=CC=C3
InChI: InChI=1S/C15H12N2O2/c18-13-15(17-14(19)16-13,11-7-3-1-4-8-11)12-9-5-2-6-10-12/h1-10H,(H2,16,17,18,19)
Instrument: Q Exactive Orbitrap Thermo Scientific
Instrument type: LC-ESI-QFT
Ms type: MS2
Ion mode: NEGATIVE
Ionization: ESI
Fragmentation mode: HCD
Collision energy: 30 (nominal)
Resolution: 35000
Column name: XBridge C18 3.5um, 2.1x50mm, Waters
Retention time: 7.6 min
Base peak: 251.0827
Precursor m/z: 251.0826
Precursor type: [M-H]-
m/z	relative intensity	assigned
77.0396	3	C6H5-
102.0349	524	C7H4N-
146.0247	9	C8H4NO2-
150.0321	2	C8H6O3-
180.0819	69	C13H10N-
207.0694	1	C14H9NO-
208.0767	409	C14H10NO-
224.0715	1	C14H10NO2-
251.0825	999	C15H11N2O2-
