Mass spectrum: Propaquizafop; LC-ESI-ITFT; MS2; CE: 45%; R=7500; [M+H]+
Name: Propaquizafop
Name: 2-(propan-2-ylideneamino)oxyethyl 2-[4-(6-chloranylquinoxalin-2-yl)oxyphenoxy]propanoate
Formula: C22H22ClN3O5
Exact mass: 443.1242
SMILES: CC(C(=O)OCCON=C(C)C)OC1=CC=C(C=C1)OC2=CN=C3C=C(C=CC3=N2)Cl
InChI: InChI=1S/C22H22ClN3O5/c1-14(2)26-29-11-10-28-22(27)15(3)30-17-5-7-18(8-6-17)31-21-13-24-20-12-16(23)4-9-19(20)25-21/h4-9,12-13,15H,10-11H2,1-3H3
Instrument: LTQ Orbitrap XL Thermo Scientific
Instrument type: LC-ESI-ITFT
Ms type: MS2
Ion mode: POSITIVE
Ionization: ESI
Fragmentation mode: HCD
Collision energy: 45 % (nominal)
Resolution: 7500
Column name: XBridge C18 3.5um, 2.1x50mm, Waters
Retention time: 15.0 min
Base peak: 466.114
Precursor m/z: 444.1321
Precursor type: [M+H]+
m/z	relative intensity	assigned
56.0494	413	C3H6N+
70.0651	371	C4H8N+
91.0542	222	C7H7+
99.044	78	C5H7O2+
100.0518	249	C5H8O2+
100.0757	999	C5H10NO+
119.0489	35	C8H7O+
120.0574	12	C8H8O+
147.0438	23	C9H7O2+
163.0061	23	C8H4ClN2+
181.0159	54	C11H3NO2+
192.0779	76	C11H12O3+
236.0941	55	C15H12N2O+
243.0315	113	C16H5NO2+
243.0682	157	C14H12ClN2+
253.0528	47	C18H7NO+
255.0319	142	C14H8ClN2O+
256.0387	16	C17H6NO2+
271.0629	328	C18H9NO2+
285.0423	73	C15H10ClN2O2+
299.0577	479	C19H9NO3+
327.0531	78	C17H12ClN2O3+
