Mass spectrum: Azoxystrobin; LC-ESI-ITFT; MS2; CE: 90%; R=7500; [M+H]+
Name: Azoxystrobin
Name: Methyl (E)-2-[2-[6-(2-cyanophenoxy)pyrimidin-4-YL]oxyphenyl]-3-methoxy-prop-2-enoate
Formula: C22H17N3O5
Exact mass: 403.1168206
SMILES: CO/C=C(\C1=CC=CC=C1OC2=NC=NC(=C2)OC3=CC=CC=C3C#N)/C(=O)OC
InChI: InChI=1S/C22H17N3O5/c1-27-13-17(22(26)28-2)16-8-4-6-10-19(16)30-21-11-20(24-14-25-21)29-18-9-5-3-7-15(18)12-23/h3-11,13-14H,1-2H3/b17-13+
Instrument: LTQ Orbitrap XL Thermo Scientific
Instrument type: LC-ESI-ITFT
Ms type: MS2
Ion mode: POSITIVE
Ionization: ESI
Fragmentation mode: HCD
Collision energy: 90 % (nominal)
Resolution: 7500
Column name: XBridge C18 3.5um, 2.1x50mm, Waters
Retention time: 9.9 min
Base peak: 404.1245
Precursor m/z: 404.1241
Precursor type: [M+H]+
m/z	relative intensity	assigned
65.0385	9	C5H5+
68.997	12	C3HO2+
77.0385	39	C6H5+
78.0461	12	C6H6+
79.0542	5	C6H7+
89.0386	111	C7H5+
91.0416	17	C6H5N+
91.0541	12	C7H7+
102.0339	16	C7H4N+
102.0461	11	C8H6+
103.0417	22	C7H5N+
103.0541	8	C8H7+
104.0495	97	C7H6N+
105.0336	30	C7H5O+
105.0449	8	C6H5N2+
105.0571	10	C7H7N+
107.0487	9	C7H7O+
114.0338	54	C8H4N+
115.0419	16	C8H5N+
115.0538	5	C9H7+
116.0494	124	C8H6N+
117.0336	12	C8H5O+
117.0576	15	C8H7N+
118.0416	13	C8H6O+
119.0367	23	C7H5NO+
120.0443	31	C7H6NO+
127.0418	53	C9H5N+
128.0495	70	C9H6N+
129.0335	19	C9H5O+
129.0447	146	C8H5N2+
130.0287	44	C8H4NO+
130.04	161	C7H4N3+
132.0444	25	C8H6NO+
133.028	24	C8H5O2+
133.0522	66	C8H7NO+
134.036	16	C8H6O2+
134.0599	58	C8H8NO+
140.0495	7	C10H6N+
141.0446	26	C9H5N2+
142.0527	15	C9H6N2+
143.0366	24	C9H5NO+
143.0606	23	C9H7N2+
144.0444	153	C9H6NO+
145.028	8	C9H5O2+
145.0522	35	C9H7NO+
146.0237	22	C8H4NO2+
146.0594	8	C9H8NO+
154.0289	12	C10H4NO+
155.036	8	C10H5NO+
155.0603	42	C10H7N2+
156.0444	521	C10H6NO+
157.0522	11	C10H7NO+
159.0312	7	C9H5NO2+
159.0548	6	C9H7N2O+
170.0474	30	C10H6N2O+
171.0554	96	C10H7N2O+
172.0393	999	C10H6NO2+
181.0397	28	C11H5N2O+
182.0474	42	C11H6N2O+
183.0553	60	C11H7N2O+
184.0395	5	C11H6NO2+
199.0499	61	C11H7N2O2+
200.0342	124	C11H6NO3+
204.0809	6	C15H10N+
205.0758	14	C14H9N2+
211.0498	15	C12H7N2O2+
218.0844	11	C15H10N2+
245.0709	41	C16H9N2O+
272.0821	54	C17H10N3O+
273.0655	18	C17H9N2O2+
274.0729	9	C17H10N2O2+
300.0773	50	C18H10N3O2+
328.0716	42	C19H10N3O3+
