Mass spectrum: Albuterol; LC-ESI-ITFT; MS2; CE: 90%; R=30000; [M+H]+
Name: Albuterol
Name: Salbutamol
Name: 4-[2-(tert-butylamino)-1-hydroxy-ethyl]-2-methylol-phenol
Formula: C13H21NO3
Exact mass: 239.1521
SMILES: OCc1cc(ccc1O)C(O)CNC(C)(C)C
InChI: InChI=1S/C13H21NO3/c1-13(2,3)14-7-12(17)9-4-5-11(16)10(6-9)8-15/h4-6,12,14-17H,7-8H2,1-3H3
Instrument: LTQ Orbitrap XL Thermo Scientific
Instrument type: LC-ESI-ITFT
Ms type: MS2
Ion mode: POSITIVE
Ionization: ESI
Fragmentation mode: HCD
Collision energy: 90 % (nominal)
Resolution: 30000
Column name: XBridge C18 3.5um, 2.1x50mm, Waters
Retention time: 2.0 min
Base peak: 240.1602
Precursor m/z: 240.1594
Precursor type: [M+H]+
m/z	relative intensity	assigned
55.0178	34	C3H3O+
57.0699	123	C4H9+
68.0495	24	C4H6N+
77.0386	199	C6H5+
79.0542	331	C6H7+
80.0495	126	C5H6N+
81.0335	40	C5H5O+
91.0542	757	C7H7+
92.0495	15	C6H6N+
93.0699	444	C7H9+
94.0652	53	C6H8N+
95.0491	17	C6H7O+
103.0542	442	C8H7+
105.0447	46	C6H5N2+
105.0573	59	C7H7N+
105.0699	26	C8H9+
106.0651	75	C7H8N+
107.0491	45	C7H7O+
117.0572	87	C8H7N+
118.0651	144	C8H8N+
119.0491	53	C8H7O+
119.073	16	C8H9N+
120.0808	444	C8H10N+
121.0648	999	C8H9O+
130.0651	700	C9H8N+
131.0491	130	C9H7O+
131.0729	19	C9H9N+
133.0522	631	C8H7NO+
135.0678	57	C8H9NO+
136.0757	37	C8H10NO+
146.0601	53	C9H8NO+
147.0678	43	C9H9NO+
148.0757	709	C9H10NO+
