Mass spectrum: Metolachlor-TP SYN547977; LC-ESI-QFT; MS2; CE: 180%; R=17500; [M+H]+
Name: Metolachlor-TP SYN547977
Formula: C15H20ClNO3
Exact mass: 297.1132
SMILES: ClCC(=O)N(C(C)COC)c1c(C)cccc1C(C)=O
InChI: InChI=1S/C15H20ClNO3/c1-10-6-5-7-13(12(3)18)15(10)17(14(19)8-16)11(2)9-20-4/h5-7,11H,8-9H2,1-4H3
Instrument: Exploris 240 Orbitrap Thermo Scientific
Instrument type: LC-ESI-QFT
Ms type: MS2
Ion mode: POSITIVE
Ionization: ESI
Fragmentation mode: HCD
Collision energy: 180 % (nominal)
Resolution: 17500
Column name: XBridge C18 3.5um, 2.1x50mm, Waters
Retention time: 6.762 min
Base peak: 298.1202
Precursor m/z: 298.1204
Precursor type: [M+H]+
m/z	relative intensity	assigned
51.0229	691	C4H3+
53.0386	221	C4H5+
65.0386	819	C5H5+
77.0386	999	C6H5+
79.0541	368	C6H7+
89.0387	469	C7H5+
90.0464	307	C7H6+
91.0542	754	C7H7+
93.0574	138	C6H7N+
95.0492	687	C6H7O+
103.0543	296	C8H7+
106.0651	122	C7H8N+
115.0543	860	C9H7+
117.0574	309	C8H7N+
118.0651	62	C8H8N+
128.062	338	C10H8+
130.0653	398	C9H8N+
142.0648	87	C10H8N+
154.0652	162	C11H8N+
156.081	231	C11H10N+
