Mass spectrum: Paraoxon-ethyl; LC-ESI-QFT; MS2; CE: 150%; R=17500; [M+H]+
Name: Paraoxon-ethyl
Name: Paraoxon
Name: diethyl (4-nitrophenyl) phosphate
Formula: C10H14NO6P
Exact mass: 275.0559
SMILES: CCOP(=O)(OCC)OC1=CC=C(C=C1)[N+](=O)[O-]
InChI: InChI=1S/C10H14NO6P/c1-3-15-18(14,16-4-2)17-10-7-5-9(6-8-10)11(12)13/h5-8H,3-4H2,1-2H3
Instrument: Exploris 240 Orbitrap Thermo Scientific
Instrument type: LC-ESI-QFT
Ms type: MS2
Ion mode: POSITIVE
Ionization: ESI
Fragmentation mode: HCD
Collision energy: 150 % (nominal)
Resolution: 17500
Column name: XBridge C18 3.5um, 2.1x50mm, Waters
Retention time: 6.797 min
Base peak: 276.0629
Precursor m/z: 276.0632
Precursor type: [M+H]+
m/z	relative intensity	assigned
50.0151	177	C4H2+
51.023	31	C4H3+
53.0386	44	C4H5+
55.0178	88	C3H3O+
63.0229	219	C5H3+
64.0308	42	C5H4+
65.0386	491	C5H5+
66.0464	928	C5H6+
74.0151	59	C6H2+
75.023	558	C6H3+
76.0308	123	C6H4+
79.0179	24	C5H3O+
80.9739	70	H2O3P+
81.0336	114	C5H5O+
93.0335	46	C6H5O+
94.0413	999	C6H6O+
98.9842	121	H4O4P+
