Mass spectrum: Glycyrrhetinic Acid; LC-ESI-QFT; MS2; CE: 75; R=35000; [M-H]-
Name: Glycyrrhetinic Acid
Name: 18-beta-Glycyrrhetin acid
Name: (2S,4aS,6aR,6aS,6bR,8aR,10S,12aS,14bR)-10-hydroxy-2,4a,6a,6b,9,9,12a-heptamethyl-13-oxo-3,4,5,6,6a,7,8,8a,10,11,12,14b-dodecahydro-1H-picene-2-carboxylic acid
Formula: C30H46O4
Exact mass: 470.33961
SMILES: C[C@]1([C@H](CC[C@]2([C@H]1CC[C@@]3([C@@H]2C(=O)C=C4[C@]3(CC[C@@]5([C@H]4C[C@](CC5)(C(=O)O)C)C)C)C)C)O)C
InChI: InChI=1S/C30H46O4/c1-25(2)21-8-11-30(7)23(28(21,5)10-9-22(25)32)20(31)16-18-19-17-27(4,24(33)34)13-12-26(19,3)14-15-29(18,30)6/h16,19,21-23,32H,8-15,17H2,1-7H3,(H,33,34)/t19-,21-,22-,23+,26+,27-,28-,29+,30+/m0/s1
Instrument: Q Exactive Plus Orbitrap Thermo Scientific
Instrument type: LC-ESI-QFT
Ms type: MS2
Ion mode: NEGATIVE
Ionization: ESI
Fragmentation mode: HCD
Collision energy: 75 (nominal)
Resolution: 35000
Column name: XBridge C18 3.5um, 2.1x50mm, Waters
Retention time: 16.9 min
Base peak: 515.3377
Precursor m/z: 469.3323
Precursor type: [M-H]-
m/z	relative intensity	assigned
71.0503	12	C4H7O-
81.0345	2	C5H5O-
99.0452	6	C5H7O2-
137.0972	4	C9H13O-
147.0815	24	C10H11O-
171.0811	5	C12H11O-
185.0975	5	C13H13O-
198.1044	2	C14H14O-
199.113	12	C14H15O-
201.128	5	C14H17O-
217.1597	9	C15H21O-
233.1543	10	C15H21O2-
239.1442	12	C17H19O-
253.1594	21	C18H21O-
287.2013	10	C19H27O2-
289.2174	5	C19H29O2-
307.2062	11	C22H27O-
321.2219	3	C23H29O-
323.2017	24	C22H27O2-
323.2379	5	C23H31O-
324.2094	25	C22H28O2-
325.2175	171	C22H29O2-
337.2175	5	C23H29O2-
338.2256	14	C23H30O2-
339.233	142	C23H31O2-
341.248	16	C23H33O2-
353.2492	27	C24H33O2-
355.2644	999	C24H35O2-
377.2487	14	C26H33O2-
377.285	11	C27H37O-
379.2643	120	C26H35O2-
391.2633	6	C27H35O2-
393.2801	113	C27H37O2-
395.2967	4	C27H39O2-
407.2955	35	C28H39O2-
409.3114	371	C28H41O2-
423.3268	53	C29H43O2-
425.343	51	C29H45O2-
