Mass spectrum: Glycyrrhetinic Acid; LC-ESI-QFT; MS2; CE: 120; R=35000; [M+H]+
Name: Glycyrrhetinic Acid
Name: 18-beta-Glycyrrhetin acid
Name: (2S,4aS,6aR,6aS,6bR,8aR,10S,12aS,14bR)-10-hydroxy-2,4a,6a,6b,9,9,12a-heptamethyl-13-oxo-3,4,5,6,6a,7,8,8a,10,11,12,14b-dodecahydro-1H-picene-2-carboxylic acid
Formula: C30H46O4
Exact mass: 470.33961
SMILES: C[C@]1([C@H](CC[C@]2([C@H]1CC[C@@]3([C@@H]2C(=O)C=C4[C@]3(CC[C@@]5([C@H]4C[C@](CC5)(C(=O)O)C)C)C)C)C)O)C
InChI: InChI=1S/C30H46O4/c1-25(2)21-8-11-30(7)23(28(21,5)10-9-22(25)32)20(31)16-18-19-17-27(4,24(33)34)13-12-26(19,3)14-15-29(18,30)6/h16,19,21-23,32H,8-15,17H2,1-7H3,(H,33,34)/t19-,21-,22-,23+,26+,27-,28-,29+,30+/m0/s1
Instrument: Q Exactive Plus Orbitrap Thermo Scientific
Instrument type: LC-ESI-QFT
Ms type: MS2
Ion mode: POSITIVE
Ionization: ESI
Fragmentation mode: HCD
Collision energy: 120 (nominal)
Resolution: 35000
Column name: XBridge C18 3.5um, 2.1x50mm, Waters
Retention time: 16.9 min
Base peak: 471.3465
Precursor m/z: 471.3469
Precursor type: [M+H]+
m/z	relative intensity	assigned
50.0151	12	C4H2+
51.0229	13	C4H3+
53.0022	21	C3HO+
53.0386	110	C4H5+
53.9975	5	C2NO+
55.0179	23	C3H3O+
55.0543	247	C4H7+
57.0335	6	C3H5O+
57.0699	9	C4H9+
59.0492	10	C3H7O+
63.0228	6	C5H3+
65.0386	195	C5H5+
66.0463	8	C5H6+
67.0542	311	C5H7+
67.9893	2	C3O2+
69.0335	24	C4H5O+
69.0699	33	C5H9+
71.0492	3	C4H7O+
77.0386	91	C6H5+
78.0464	23	C6H6+
79.0542	519	C6H7+
80.062	10	C6H8+
81.0335	11	C5H5O+
81.0699	202	C6H9+
83.0491	20	C5H7O+
83.0855	1	C6H11+
89.0384	3	C7H5+
91.0543	999	C7H7+
92.0621	18	C7H8+
93.0699	177	C7H9+
94.0413	9	C6H6O+
94.0778	2	C7H10+
95.0492	310	C6H7O+
95.0856	96	C7H11+
97.0648	9	C6H9O+
102.0466	6	C8H6+
103.0542	123	C8H7+
104.0621	32	C8H8+
105.0448	155	C6H5N2+
105.0699	445	C8H9+
106.0416	1	C7H6O+
106.0777	12	C8H10+
107.0491	24	C7H7O+
107.0855	66	C8H11+
108.057	6	C7H8O+
109.0649	41	C7H9O+
109.1012	7	C8H13+
111.0804	2	C7H11O+
115.0543	153	C9H7+
116.0621	52	C9H8+
117.0699	117	C9H9+
118.0777	11	C9H10+
119.0492	7	C8H7O+
119.0605	24	C7H7N2+
119.0856	143	C9H11+
120.0573	3	C8H8O+
120.0933	1	C9H12+
121.0648	31	C8H9O+
121.1012	19	C9H13+
122.0726	3	C8H10O+
123.0804	7	C8H11O+
127.0541	5	C10H7+
128.0621	139	C10H8+
129.0699	122	C10H9+
130.0778	33	C10H10+
131.0491	5	C9H7O+
131.0856	65	C10H11+
132.0571	4	C9H8O+
132.0935	1	C10H12+
133.0647	8	C9H9O+
133.076	3	C8H9N2+
133.1012	22	C10H13+
135.0805	41	C9H11O+
141.0699	103	C11H9+
142.0778	66	C11H10+
143.0856	62	C11H11+
144.0572	6	C10H8O+
144.0934	11	C11H12+
145.0648	20	C10H9O+
145.1013	26	C11H13+
146.0726	1	C10H10O+
147.0804	4	C10H11O+
149.0963	8	C10H13O+
152.0621	15	C12H8+
153.0699	37	C12H9+
154.0778	18	C12H10+
155.0605	15	C10H7N2+
155.0855	37	C12H11+
156.0933	17	C12H12+
157.0649	4	C11H9O+
157.1012	16	C12H13+
158.0727	1	C11H10O+
158.1092	1	C12H14+
159.0806	7	C11H11O+
159.1168	6	C12H15+
160.0884	1	C11H12O+
165.0699	27	C13H9+
166.0778	12	C13H10+
167.0856	29	C13H11+
168.0935	7	C13H12+
169.0644	1	C12H9O+
169.1012	16	C13H13+
170.109	3	C13H14+
171.0804	5	C12H11O+
171.1167	3	C13H15+
178.0774	6	C14H10+
179.0856	11	C14H11+
180.0933	4	C14H12+
181.1013	12	C14H13+
182.109	3	C14H14+
183.1169	6	C14H15+
184.1245	1	C14H16+
185.0964	1	C13H13O+
185.1324	1	C14H17+
191.0853	1	C15H11+
192.0932	4	C15H12+
193.1009	4	C15H13+
194.1086	1	C15H14+
195.1168	3	C15H15+
