Mass spectrum: Phenthoate; LC-ESI-QFT; MS2; CE: 180%; R=17500; [M+H]+
Name: Phenthoate
Name: ethyl 2-dimethoxyphosphinothioylsulfanyl-2-phenylacetate
Formula: C12H17O4PS2
Exact mass: 320.0306
SMILES: CCOC(=O)C(C1=CC=CC=C1)SP(=S)(OC)OC
InChI: InChI=1S/C12H17O4PS2/c1-4-16-12(13)11(10-8-6-5-7-9-10)19-17(18,14-2)15-3/h5-9,11H,4H2,1-3H3
Instrument: Exploris 240 Orbitrap Thermo Scientific
Instrument type: LC-ESI-QFT
Ms type: MS2
Ion mode: POSITIVE
Ionization: ESI
Fragmentation mode: HCD
Collision energy: 180 % (nominal)
Resolution: 17500
Column name: XBridge C18 3.5um, 2.1x50mm, Waters
Retention time: 10.719 min
Base peak: 275.0712
Precursor m/z: 321.0379
Precursor type: [M+H]+
m/z	relative intensity	assigned
50.0151	206	C4H2+
51.0229	823	C4H3+
53.0386	331	C4H5+
63.0229	58	C5H3+
65.0385	276	C5H5+
77.0385	999	C6H5+
79.0542	340	C6H7+
91.0541	146	C7H7+
94.0411	69	C6H6O+
95.0491	376	C6H7O+
