Mass spectrum: Metamitron; LC-ESI-ITFT; MS2; CE: 30%; R=15000; [M+H]+
Name: Metamitron
Name: 4-Amino-4,5-dihydro-3-methyl-6-phenyl-1,2,4-triazin-5-one
Name: 4-amino-3-methyl-6-phenyl-1,2,4-triazin-5-one
Formula: C10H10N4O
Exact mass: 202.0860
SMILES: c(ccc1C(=NN=C2C)C(=O)N2N)cc1
InChI: InChI=1S/C10H10N4O/c1-7-12-13-9(10(15)14(7)11)8-5-3-2-4-6-8/h2-6H,11H2,1H3
Instrument: LTQ Orbitrap XL Thermo Scientific
Instrument type: LC-ESI-ITFT
Ms type: MS2
Ion mode: POSITIVE
Ionization: ESI
Fragmentation mode: HCD
Collision energy: 30 % (nominal)
Resolution: 15000
Column name: XBridge C18 3.5um, 2.1x50mm, Waters
Retention time: 4.9 min
Base peak: 203.093
Precursor m/z: 203.0927
Precursor type: [M+H]+
m/z	relative intensity	assigned
72.0444	1	C3H6NO+
79.0543	3	C6H7+
83.024	1	C3H3N2O+
89.0386	1	C7H5+
104.0494	7	C7H6N+
106.0652	8	C7H8N+
130.0651	3	C9H8N+
145.04	4	C8H5N2O+
174.0789	18	C10H10N2O+
175.0868	5	C10H11N2O+
175.098	71	C9H11N4+
186.0655	1	C10H8N3O+
203.093	999	C10H11N4O+
