Mass spectrum: Losartan; LC-ESI-QFT; MS2; CE: 45; R=35000; [M-H]-
Name: Losartan
Name: [2-butyl-5-chloranyl-3-[[4-[2-(2H-1,2,3,4-tetrazol-5-yl)phenyl]phenyl]methyl]imidazol-4-yl]methanol
Formula: C22H23ClN6O
Exact mass: 421.15436
SMILES: Clc1nc(n(c1CO)Cc4ccc(c2ccccc2c3[nH]nnn3)cc4)CCCC
InChI: InChI=1S/C22H23ClN6O/c1-2-3-8-20-24-21(23)19(14-30)29(20)13-15-9-11-16(12-10-15)17-6-4-5-7-18(17)22-25-27-28-26-22/h4-7,9-12,30H,2-3,8,13-14H2,1H3,(H,25,26,27,28)
Instrument: Q Exactive Plus Orbitrap Thermo Scientific
Instrument type: LC-ESI-QFT
Ms type: MS2
Ion mode: NEGATIVE
Ionization: ESI
Fragmentation mode: HCD
Collision energy: 45 (nominal)
Resolution: 35000
Column name: XBridge C18 3.5um, 2.1x50mm, Waters
Retention time: 9.0 min
Base peak: 421.1545
Precursor m/z: 421.1549
Precursor type: [M-H]-
m/z	relative intensity	assigned
100.9912	2	C3H2ClN2-
113.999	34	C4H3ClN2-
121.0771	2	C7H9N2-
127.0068	999	C5H4ClN2-
140.0146	5	C6H5ClN2-
141.9938	1	C5H3ClN2O-
155.0018	7	C6H4ClN2O-
155.0382	50	C7H8ClN2-
156.046	22	C7H9ClN2-
157.0538	520	C7H10ClN2-
164.063	1	C13H8-
165.0708	12	C13H9-
169.0538	8	C8H10ClN2-
177.0713	7	C14H9-
178.0788	9	C14H10-
179.0866	494	C14H11-
180.0581	9	C13H8O-
185.0486	17	C8H10ClN2O-
187.0643	246	C8H12ClN2O-
188.0358	3	C7H9ClN2O2-
193.0657	42	C14H9O-
195.0814	79	C14H11O-
207.0926	3	C14H11N2-
216.082	6	C16H10N-
229.0769	3	C16H9N2-
229.0897	2	C17H11N-
230.0978	2	C17H12N-
241.0769	5	C17H9N2-
242.0849	4	C17H10N2-
255.0926	3	C18H11N2-
256.1008	3	C18H12N2-
269.1085	1	C19H13N2-
270.116	4	C19H14N2-
272.1444	29	C20H18N-
277.0538	7	C17H10ClN2-
284.1323	2	C20H16N2-
291.0695	33	C18H12ClN2-
292.0772	4	C18H13ClN2-
297.1393	2	C21H17N2-
299.1552	5	C21H19N2-
320.1084	15	C20H17ClN2-
333.1168	3	C21H18ClN2-
334.1241	1	C21H19ClN2-
335.1321	7	C21H20ClN2-
