Mass spectrum: Oscillamide Y; LC-ESI-QFT; MS2; CE: 45%; R=17500; [M+H]+
Name: Oscillamide Y
Name: (2S)-2-[[(3S,6S,9S,12S,15R)-3-benzyl-12-[(2R)-butan-2-yl]-9-[2-(4-hydroxyphenyl)ethyl]-6,7-dimethyl-2,5,8,11,14-pentaoxo-1,4,7,10,13-pentazacyclononadec-15-yl]carbamoylamino]-3-(4-hydroxyphenyl)propanoic acid
Class: NA
Formula: C45H59N7O10
Exact mass: 857.4323
SMILES: CC[C@@H](C)[C@@H]1NC(=O)[C@@H](CCCCNC(=O)[C@H](Cc2ccccc2)NC(=O)[C@H](C)N(C)C(=O)[C@H](CCc3ccc(O)cc3)NC1=O)NC(=O)N[C@@H](Cc4ccc(O)cc4)C(O)=O
InChI: InChI=1S/C45H59N7O10/c1-5-27(2)38-42(58)47-35(23-18-29-14-19-32(53)20-15-29)43(59)52(4)28(3)39(55)48-36(25-30-11-7-6-8-12-30)40(56)46-24-10-9-13-34(41(57)51-38)49-45(62)50-37(44(60)61)26-31-16-21-33(54)22-17-31/h6-8,11-12,14-17,19-22,27-28,34-38,53-54H,5,9-10,13,18,23-26H2,1-4H3,(H,46,56)(H,47,58)(H,48,55)(H,51,57)(H,60,61)(H2,49,50,62)/t27-,28+,34-,35+,36+,37+,38+/m1/s1
Instrument: Q Exactive Plus Orbitrap Thermo Scientific
Instrument type: LC-ESI-QFT
Ms type: MS2
Ion mode: POSITIVE
Ionization: ESI
Fragmentation mode: HCD
Collision energy: 45 % (nominal)
Resolution: 17500
Column name: XBridge C18 3.5um, 2.1x50mm, Waters
Retention time: 7.897 min
Base peak: 164.9846
Precursor m/z: 858.4396
Precursor type: [M+H]+
m/z	relative intensity	assigned
84.0808	999	C5H10N+
86.06	210	C4H8NO+
86.0964	60	C5H12N+
107.0494	66	C7H7O+
114.055	137	C5H8NO2+
120.0806	217	C8H10N+
129.1027	76	C6H13N2O+
136.0759	68	C8H10NO+
150.0915	79	C9H12NO+
173.0919	34	C7H13N2O3+
188.1432	19	C13H18N+
205.1342	70	C12H17N2O+
231.1493	80	C14H19N2O+
250.1559	24	C15H22O3+
274.1564	15	C17H22O3+
320.1612	117	C17H18N7+
387.2391	61	C21H31N4O3+
