Mass spectrum: Venlafaxine; LC-ESI-ITFT; MS2; CE: 60%; R=15000; [M+H]+
Name: Venlafaxine
Name: 1-[2-(dimethylamino)-1-(4-methoxyphenyl)ethyl]-1-cyclohexanol
Formula: C17H27NO2
Exact mass: 277.2042
SMILES: CN(C)CC(C1=CC=C(C=C1)OC)C2(CCCCC2)O
InChI: InChI=1S/C17H27NO2/c1-18(2)13-16(17(19)11-5-4-6-12-17)14-7-9-15(20-3)10-8-14/h7-10,16,19H,4-6,11-13H2,1-3H3
Instrument: LTQ Orbitrap XL Thermo Scientific
Instrument type: LC-ESI-ITFT
Ms type: MS2
Ion mode: POSITIVE
Ionization: ESI
Fragmentation mode: HCD
Collision energy: 60 % (nominal)
Resolution: 15000
Column name: XBridge C18 3.5um, 2.1x50mm, Waters
Retention time: 6.2 min
Base peak: 278.2126
Precursor m/z: 278.2115
Precursor type: [M+H]+
m/z	relative intensity	assigned
58.0652	999	C3H8N+
69.0698	7	C5H9+
77.0384	3	C6H5+
79.0542	27	C6H7+
81.0699	29	C6H9+
91.0543	39	C7H7+
93.07	17	C7H9+
107.0492	5	C7H7O+
107.0856	19	C8H11+
119.0607	4	C7H7N2+
121.0649	546	C8H9O+
132.0573	16	C9H8O+
135.0806	38	C9H11O+
144.057	5	C10H8O+
145.0645	5	C10H9O+
147.0806	269	C10H11O+
152.1438	11	C10H18N+
158.0725	9	C11H10O+
159.0805	64	C11H11O+
161.0964	9	C11H13O+
163.099	11	C10H13NO+
173.0963	98	C12H13O+
177.1149	12	C11H15NO+
178.1227	8	C11H16NO+
215.1434	40	C15H19O+
278.2108	3	C17H28NO2+
