Mass spectrum: Metosulam; LC-ESI-QFT; MS2; CE: 75; R=35000; [M+H]+
Name: Metosulam
Name: N-(2,6-dichloro-3-methyl-phenyl)-5,7-dimethoxy-[1,2,4]triazolo[1,5-a]pyrimidine-2-sulfonamide
Formula: C14H13Cl2N5O4S
Exact mass: 417.00653
SMILES: Clc1c(ccc(Cl)c1NS(=O)(=O)c2nc3nc(OC)cc(OC)n3n2)C
InChI: InChI=1S/C14H13Cl2N5O4S/c1-7-4-5-8(15)12(11(7)16)20-26(22,23)14-18-13-17-9(24-2)6-10(25-3)21(13)19-14/h4-6,20H,1-3H3
Instrument: Q Exactive Orbitrap Thermo Scientific
Instrument type: LC-ESI-QFT
Ms type: MS2
Ion mode: POSITIVE
Ionization: ESI
Fragmentation mode: HCD
Collision energy: 75 (nominal)
Resolution: 35000
Column name: XBridge C18 3.5um, 2.1x50mm, Waters
Retention time: 7.6 min
Base peak: 418.0141
Precursor m/z: 418.0138
Precursor type: [M+H]+
m/z	relative intensity	assigned
61.9793	2	CHClN+
67.0291	4	C3H3N2+
68.0131	2	C3H2NO+
68.0244	3	C2H2N3+
68.9971	2	C3HO2+
69.0447	2	C3H5N2+
70.0288	4	C3H4NO+
75.0228	3	C6H3+
77.0385	7	C6H5+
78.0337	1	C5H4N+
79.0542	2	C6H7+
81.0447	5	C4H5N2+
82.0287	1	C4H4NO+
82.04	12	C3H4N3+
83.024	4	C3H3N2O+
90.0338	2	C6H4N+
94.0036	12	C3N3O+
95.0239	3	C4H3N2O+
95.0492	9	C6H7O+
96.0556	6	C4H6N3+
98.0236	1	C4H4NO2+
98.9995	2	C5H4Cl+
100.0394	1	C4H6NO2+
102.0339	3	C7H4N+
103.0417	1	C7H5N+
104.0495	46	C7H6N+
105.0447	5	C6H5N2+
105.0573	13	C7H7N+
109.0397	11	C5H5N2O+
110.9995	2	C6H4Cl+
112.0073	6	C6H5Cl+
113.0153	39	C6H6Cl+
119.0365	1	C7H5NO+
120.0443	2	C7H6NO+
122.9996	3	C7H4Cl+
123.0189	3	C5H3N2O2+
124.0505	1	C5H6N3O+
126.0104	5	C6H5ClN+
127.0183	7	C6H6ClN+
127.0503	1	C5H7N2O2+
129.0102	4	C6H6ClO+
130.04	7	C7H4N3+
137.0345	5	C6H5N2O2+
138.0105	20	C7H5ClN+
139.0059	13	C3H7O4S+
139.0183	13	C7H6ClN+
139.0503	2	C6H7N2O2+
140.0261	999	C7H7ClN+
146.9763	15	C6H5Cl2+
151.0615	2	C6H7N4O+
152.0453	2	C6H6N3O2+
155.0449	2	C6H7N2O3+
156.0209	3	C7H7ClNO+
161.9874	4	C6H6Cl2N+
165.0405	4	C6H5N4O2+
166.0293	2	C8H7ClN2+
173.9872	109	C7H6Cl2N+
174.995	501	C7H7Cl2N+
179.0564	14	C7H7N4O2+
180.0323	6	C8H7ClN3+
180.0402	1	C7H6N3O3+
189.9822	12	C7H6Cl2NO+
192.0325	2	C6H10NO4S+
198.9824	4	C8H5Cl2N2+
199.9903	1	C8H6Cl2N2+
205.0274	3	C6H9N2O4S+
207.0436	2	C6H11N2O4S+
304.0601	1	C13H11ClN5O2+
