Mass spectrum: N,N-Didesmethylvenlafaxine; LC-ESI-ITFT; MS2; CE: 60%; R=7500; [M+H]+
Name: N,N-Didesmethylvenlafaxine
Name: 1-[2-Amino-1-(4-methoxyphenyl)ethyl]cyclohexanol
Formula: C15H23NO2
Exact mass: 249.1729
SMILES: OC2(C(c1ccc(OC)cc1)CN)CCCCC2
InChI: InChI=1S/C15H23NO2/c1-18-13-7-5-12(6-8-13)14(11-16)15(17)9-3-2-4-10-15/h5-8,14,17H,2-4,9-11,16H2,1H3
Instrument: LTQ Orbitrap XL Thermo Scientific
Instrument type: LC-ESI-ITFT
Ms type: MS2
Ion mode: POSITIVE
Ionization: ESI
Fragmentation mode: HCD
Collision energy: 60 % (nominal)
Resolution: 7500
Column name: XBridge C18 3.5um, 2.1x50mm, Waters
Retention time: 6.3 min
Base peak: 250.1814
Precursor m/z: 250.1802
Precursor type: [M+H]+
m/z	relative intensity	assigned
67.0545	7	C5H7+
69.07	19	C5H9+
79.0543	46	C6H7+
81.0699	87	C6H9+
91.0543	123	C7H7+
93.07	40	C7H9+
105.0702	7	C8H9+
107.0487	9	C7H7O+
107.0857	42	C8H11+
117.0701	8	C9H9+
119.0605	12	C7H7N2+
119.085	9	C9H11+
121.065	999	C8H9O+
124.1122	8	C8H14N+
132.0572	42	C9H8O+
133.0652	6	C9H9O+
135.0805	69	C9H11O+
144.0574	10	C10H8O+
145.0651	8	C10H9O+
147.0806	618	C10H11O+
150.0917	11	C9H12NO+
158.0728	24	C11H10O+
159.0807	151	C11H11O+
160.0875	6	C11H12O+
161.0966	16	C11H13O+
173.0963	183	C12H13O+
174.1038	7	C12H14O+
183.1167	13	C14H15+
215.1434	66	C15H19O+
