Mass spectrum: Microcystin-LR; LC-ESI-ITFT; MS2; CE: 35%; R=7500; [M+H]+
Name: Microcystin-LR
Name: (5R,8R,11R,12S,15S,18S,19S,22R)-15-{3-[(Diaminomethylene)amino]propyl}-8-isobutyl-18-[(1E,3E,5S,6S)-6-methoxy-3,5-dimethyl-7-phenyl-1,3-heptadien-1-yl]-1,5,12,19-tetramethyl-2-methylene-3,6,9,13,16,20 ,25-heptaoxo-1,4,7,10,14,17,21-heptaazacyclopentacosane-11,22-dicarboxylic acid
Name: (5R,8S,11R,12S,15S,18S,19S,22R)-15-(3-guanidinopropyl)-8-isobutyl-3,6,9,13,16,20,25-heptaketo-18-[(1E,3E,5S,6S)-6-methoxy-3,5-dimethyl-7-phenyl-hepta-1,3-dienyl]-1,5,12,19-tetramethyl-2-methylene-1,4,7,10,14,17,21-heptazacyclopentacosane-11,22-dicarboxylic acid
Formula: C49H74N10O12
Exact mass: 994.5488
SMILES: CC1C(NC(=O)C(NC(=O)C(C(NC(=O)C(NC(=O)C(NC(=O)C(=C)N(C(=O)CCC(NC1=O)C(=O)O)C)C)CC(C)C)C(=O)O)C)CCCN=C(N)N)C=CC(=CC(C)C(CC2=CC=CC=C2)OC)C
InChI: InChI=1S/C49H74N10O12/c1-26(2)23-37-46(66)58-40(48(69)70)30(6)42(62)55-35(17-14-22-52-49(50)51)45(65)54-34(19-18-27(3)24-28(4)38(71-10)25-33-15-12-11-13-16-33)29(5)41(61)56-36(47(67)68)20-21-39(60)59(9)32(8)44(64)53-31(7)43(63)57-37/h11-13,15-16,18-19,24,26,28-31,34-38,40H,8,14,17,20-23,25H2,1-7,9-10H3,(H,53,64)(H,54,65)(H,55,62)(H,56,61)(H,57,63)(H,58,66)(H,67,68)(H,69,70)(H4,50,51,52)/b19-18+,27-24+/t28-,29-,30-,31+,34-,35-,36+,37-,38-,40+/m0/s1
Instrument: LTQ Orbitrap XL Thermo Scientific
Instrument type: LC-ESI-ITFT
Ms type: MS2
Ion mode: POSITIVE
Ionization: ESI
Fragmentation mode: CID
Collision energy: 35 % (nominal)
Resolution: 7500
Column name: XBridge C18 3.5um, 2.1x50mm, Waters
Retention time: 10.2 min
Base peak: 498.2811
Precursor m/z: 995.556
Precursor type: [M+H]+
m/z	relative intensity	assigned
285.167	26	C11H21N6O3+
286.1504	8	C11H20N5O4+
382.2085	34	C16H32NO9+
397.2087	40	C4H31N9O12+
399.235	14	C17H31N6O5+
446.2277	41	C21H30N6O5+
525.3141	65	C20H43N7O9+
570.3356	243	C23H48N5O11+
571.3597	220	C30H47N6O5+
599.3548	880	C28H49N5O9+
625.335	40	C32H45N6O7+
783.4787	71	C43H61N9O5+
844.4569	193	C40H62N9O11+
866.5129	345	C44H68N9O9+
884.5223	25	C46H72N6O11+
910.5033	174	C45H68N9O11+
915.5481	61	C48H71N10O8+
916.527	18	C48H70N9O9+
923.5717	287	C47H75N10O9+
933.5551	132	C48H73N10O9+
946.504	173	C48H68N9O11+
949.5511	68	C48H73N10O10+
950.534	132	C48H72N9O11+
951.566	139	C48H75N10O10+
963.5292	44	C48H71N10O11+
964.5118	53	C48H70N9O12+
967.5611	999	C48H75N10O11+
977.5454	920	C49H73N10O11+
978.5302	715	C49H72N9O12+
