Mass spectrum: Fluxapyroxad (BAS 700 F)-TP CSCD465008; LC-ESI-QFT; MS2; CE: 150%; R=17500; [M-H]-
Name: Fluxapyroxad (BAS 700 F)-TP CSCD465008
Name: 3-(Difluoromethyl)-1H-pyrazole-4-carboxylic acid
Name: 5-(difluoromethyl)-1H-pyrazole-4-carboxylic acid
Formula: C5H4F2N2O2
Exact mass: 162.0241
SMILES: OC(=O)C1=CNN=C1C(F)F
InChI: InChI=1S/C5H4F2N2O2/c6-4(7)3-2(5(10)11)1-8-9-3/h1,4H,(H,8,9)(H,10,11)
Instrument: Q Exactive Plus Orbitrap Thermo Scientific
Instrument type: LC-ESI-QFT
Ms type: MS2
Ion mode: NEGATIVE
Ionization: ESI
Fragmentation mode: HCD
Collision energy: 150 % (nominal)
Resolution: 17500
Column name: XBridge C18 3.5um, 2.1x50mm, Waters
Retention time: 2.063 min
Base peak: 141.0106
Precursor m/z: 161.0168
Precursor type: [M-H]-
m/z	relative intensity	assigned
50.0036	362	C3N-
50.0115	10	
63.9956	14	C4O-
65.0034	39	C4HO-
65.9986	999	C3NO-
66.9989	8	C4F-
67.0021	7	
70.01	8	C3HFN-
