Mass spectrum: Rotenone; LC-ESI-QFT; MS2; CE: 75%; R=17500; [M+H]+
Name: Rotenone
Name: 5`beta-Rotenone
Name: 16,17-dimethoxy-6-prop-1-en-2-yl-2,7,20-trioxapentacyclo[11.8.0.03,11.04,8.014,19]henicosa-3(11),4(8),9,14,16,18-hexaen-12-one
Formula: C23H22O6
Exact mass: 394.1416
SMILES: CC(=C)C1CC2=C(O1)C=CC3=C2OC4COC5=CC(=C(C=C5C4C3=O)OC)OC
InChI: InChI=1S/C23H22O6/c1-11(2)16-8-14-15(28-16)6-5-12-22(24)21-13-7-18(25-3)19(26-4)9-17(13)27-10-20(21)29-23(12)14/h5-7,9,16,20-21H,1,8,10H2,2-4H3
Instrument: Exploris 240 Orbitrap Thermo Scientific
Instrument type: LC-ESI-QFT
Ms type: MS2
Ion mode: POSITIVE
Ionization: ESI
Fragmentation mode: HCD
Collision energy: 75 % (nominal)
Resolution: 17500
Column name: XBridge C18 3.5um, 2.1x50mm, Waters
Retention time: 10.235 min
Base peak: 372.0284
Precursor m/z: 395.1489
Precursor type: [M+H]+
m/z	relative intensity	assigned
53.0386	78	C4H5+
55.0178	40	C3H3O+
65.0386	30	C5H5+
66.0464	70	C5H6+
77.0386	169	C6H5+
79.0543	233	C6H7+
81.0699	83	C6H9+
91.0542	286	C7H7+
93.0701	69	C7H9+
94.0412	120	C6H6O+
95.0488	52	C6H7O+
96.0569	75	C6H8O+
103.0541	105	C8H7+
105.0337	71	C7H5O+
105.0695	138	C8H9+
107.0491	180	C7H7O+
108.0567	150	C7H8O+
109.0286	33	C6H5O2+
109.0646	118	C7H9O+
115.0543	66	C9H7+
117.0696	29	C9H9+
118.0412	92	C8H6O+
119.0489	51	C8H7O+
119.0857	41	C9H11+
121.0646	283	C8H9O+
122.0359	58	C7H6O2+
124.0518	235	C7H8O2+
128.0621	86	C10H8+
129.0698	120	C10H9+
131.0492	90	C9H7O+
132.0568	48	C9H8O+
133.0283	82	C8H5O2+
133.0646	205	C9H9O+
135.0436	115	C8H7O2+
135.0806	35	C9H11O+
136.052	110	C8H8O2+
137.0597	83	C8H9O2+
139.0754	218	C8H11O2+
141.0705	49	C11H9+
142.0775	92	C11H10+
147.0441	278	C9H7O2+
147.0802	153	C10H11O+
148.0516	134	C9H8O2+
149.0231	155	C8H5O3+
149.0594	129	C9H9O2+
150.0678	66	C9H10O2+
151.0753	649	C9H11O2+
152.0621	70	C12H8+
157.0644	34	C11H9O+
159.0438	221	C10H7O2+
160.0521	66	C10H8O2+
161.0233	163	C9H5O3+
161.0596	294	C10H9O2+
162.0671	120	C10H10O2+
163.0391	89	C9H7O3+
165.0692	64	C13H9+
165.0911	82	C10H13O2+
167.0697	42	C9H11O3+
169.0644	201	C12H9O+
170.0723	269	C12H10O+
171.0801	34	C12H11O+
173.06	35	C11H9O2+
175.0389	42	C10H7O3+
176.0469	50	C10H8O3+
177.0545	509	C10H9O3+
179.0698	77	C10H11O3+
185.06	70	C12H9O2+
185.0959	30	C13H13O+
191.0701	999	C11H11O3+
192.0783	175	C11H12O3+
195.0803	551	C14H11O+
198.0673	507	C13H10O2+
203.0704	97	C12H11O3+
213.0908	225	C14H13O2+
