Mass spectrum: 4-Chlorophenol; LC-ESI-QFT; MS2; CE: 15; R=35000; [M+H]+
Name: 4-Chlorophenol
Name: 4-chloranylphenol
Formula: C6H5ClO
Exact mass: 128.00289
SMILES: Oc1ccc(Cl)cc1
InChI: InChI=1S/C6H5ClO/c7-5-1-3-6(8)4-2-5/h1-4,8H
Instrument: Q Exactive Orbitrap Thermo Scientific
Instrument type: LC-ESI-QFT
Ms type: MS2
Ion mode: POSITIVE
Ionization: ESI
Fragmentation mode: HCD
Collision energy: 15 (nominal)
Resolution: 35000
Column name: XBridge C18 3.5um, 2.1x50mm, Waters
Retention time: 7.3 min
Base peak: 116.9859
Precursor m/z: 129.0102
Precursor type: [M+H]+
m/z	relative intensity	assigned
53.0024	37	C3HO+
53.0386	52	C4H5+
55.0179	237	C3H3O+
57.0335	193	C3H5O+
58.0287	35	C2H4NO+
61.0396	58	CH5N2O+
65.0385	80	C5H5+
84.0443	87	C4H6NO+
85.0283	259	C4H5O2+
94.0413	95	C6H6O+
97.0284	329	C5H5O2+
121.0394	54	C6H5N2O+
129.0102	999	C6H6ClO+
