Mass spectrum: Paichongding; LC-ESI-QFT; MS2; CE: 75%; R=17500; [M+H]+
Name: Paichongding
Name: 1-[(6-chloropyridin-3-yl)methyl]-7-methyl-8-nitro-5-propoxy-3,5,6,7-tetrahydro-2H-imidazo[1,2-a]pyridine
Formula: C17H23ClN4O3
Exact mass: 366.1459
SMILES: CCCOC1CC(C(=C2N1CCN2CC3=CN=C(C=C3)Cl)[N+](=O)[O-])C
InChI: InChI=1S/C17H23ClN4O3/c1-3-8-25-15-9-12(2)16(22(23)24)17-20(6-7-21(15)17)11-13-4-5-14(18)19-10-13/h4-5,10,12,15H,3,6-9,11H2,1-2H3
Instrument: Exploris 240 Orbitrap Thermo Scientific
Instrument type: LC-ESI-QFT
Ms type: MS2
Ion mode: POSITIVE
Ionization: ESI
Fragmentation mode: HCD
Collision energy: 75 % (nominal)
Resolution: 17500
Column name: XBridge C18 3.5um, 2.1x50mm, Waters
Retention time: 5.460 min
Base peak: 367.1531
Precursor m/z: 367.1531
Precursor type: [M+H]+
m/z	relative intensity	assigned
55.0417	10	C3H5N+
56.0495	67	C3H6N+
71.0491	227	C4H7O+
84.0681	14	C4H8N2+
90.0336	13	C6H4N+
96.0683	22	C5H8N2+
107.0606	44	C6H7N2+
109.0761	107	C6H9N2+
110.0836	51	C6H10N2+
119.0605	46	C7H7N2+
120.0682	86	C7H8N2+
121.076	256	C7H9N2+
123.0915	18	C7H11N2+
126.0104	958	C6H5ClN+
133.0761	36	C8H9N2+
135.0921	29	C8H11N2+
137.1073	999	C8H13N2+
150.1026	28	C8H12N3+
167.0367	15	C11H5NO+
169.0534	56	C8H10ClN2+
194.0483	17	C9H9ClN3+
200.1181	16	C12H14N3+
206.0476	16	C13H6N2O+
220.0645	54	C11H11ClN3+
234.0792	128	C12H13ClN3+
247.0748	24	C12H12ClN4+
248.0954	27	C13H15ClN3+
264.0897	284	C13H15ClN3O+
278.105	22	C17H14N2O2+
306.137	299	C16H21ClN3O+
