Mass spectrum: 2-Clpfpeca-1-1; LC-ESI-QFT; MS2; CE: 45%; R=17500; [M-H]-
Name: 2-Clpfpeca-1-1
Name: Chloro-perfluoro dimethyl triether undecanoic acid
Name: 2-[1-[1-(2-chloro-1,1,2,3,3,3-hexafluoropropoxy)-1,2,2,2-tetrafluoroethoxy]-1,1,2,3,3,3-hexafluoropropan-2-yl]oxy-2,2-difluoroacetic acid
Formula: C10HClF18O5
Exact mass: 577.922508772
SMILES: C(=O)(C(OC(C(OC(C(F)(F)F)(OC(C(C(F)(F)F)(F)Cl)(F)F)F)(F)F)(C(F)(F)F)F)(F)F)O
InChI: InChI=1S/C10HClF18O5/c11-3(14,5(16,17)18)8(25,26)33-10(29,7(22,23)24)34-9(27,28)4(15,6(19,20)21)32-2(12,13)1(30)31/h(H,30,31)
Instrument: Exploris 240 Orbitrap Thermo Scientific
Instrument type: LC-ESI-QFT
Ms type: MS2
Ion mode: NEGATIVE
Ionization: ESI
Fragmentation mode: HCD
Collision energy: 45 % (nominal)
Resolution: 17500
Column name: XBridge C18 3.5um, 2.1x50mm, Waters
Retention time: 12.312 min
Base peak: 482.9283
Precursor m/z: 576.9152
Precursor type: [M-H]-
m/z	relative intensity	assigned
134.963	17	C2ClF4-
134.9874	39	C2F5O-
200.9546	999	C3ClF6O-
