Mass spectrum: Amidosulfuron; LC-ESI-QFT; MS2; CE: 15; R=35000; [M-H]-
Name: Amidosulfuron
Name: 1-(4,6-dimethoxy-2-pyrimidinyl)-3-[methyl(methylsulfonyl)sulfamoyl]urea
Formula: C9H15N5O7S2
Exact mass: 369.04129
SMILES: O=C(Nc1nc(OC)cc(OC)n1)NS(=O)(=O)N(C)S(=O)(=O)C
InChI: InChI=1S/C9H15N5O7S2/c1-14(22(4,16)17)23(18,19)13-9(15)12-8-10-6(20-2)5-7(11-8)21-3/h5H,1-4H3,(H2,10,11,12,13,15)
Instrument: Q Exactive Orbitrap Thermo Scientific
Instrument type: LC-ESI-QFT
Ms type: MS2
Ion mode: NEGATIVE
Ionization: ESI
Fragmentation mode: HCD
Collision energy: 15 (nominal)
Resolution: 35000
Column name: XBridge C18 3.5um, 2.1x50mm, Waters
Retention time: 8.3 min
Base peak: 368.034
Precursor m/z: 368.034
Precursor type: [M-H]-
m/z	relative intensity	assigned
63.9623	1	O2S-
77.9655	999	NO2S-
79.9811	1	H2NO2S-
109.0077	249	CH5N2O2S-
134.987	68	C2H3N2O3S-
154.062	28	C6H8N3O2-
179.0574	35	C7H7N4O2-
186.9853	138	C2H7N2O4S2-
212.9647	12	
259.0142	611	C7H7N4O5S-
290.0566	38	
