Mass spectrum: Theophyline; LC-ESI-QFT; MS2; CE: 60; R=35000; [M+H]+
Name: Theophyline
Name: Theophylline
Name: 1,3-dimethyl-7H-purine-2,6-dione
Formula: C7H8N4O2
Exact mass: 180.06473
SMILES: CN1C2=C(C(=O)N(C1=O)C)NC=N2
InChI: InChI=1S/C7H8N4O2/c1-10-5-4(8-3-9-5)6(12)11(2)7(10)13/h3H,1-2H3,(H,8,9)
Instrument: Q Exactive Plus Orbitrap Thermo Scientific
Instrument type: LC-ESI-QFT
Ms type: MS2
Ion mode: POSITIVE
Ionization: ESI
Fragmentation mode: HCD
Collision energy: 60 (nominal)
Resolution: 35000
Column name: XBridge C18 3.5um, 2.1x50mm, Waters
Retention time: 3.2 min
Base peak: 181.0717
Precursor m/z: 181.072
Precursor type: [M+H]+
m/z	relative intensity	assigned
68.0369	1	C3H4N2+
69.0448	92	C3H5N2+
81.0448	1	C4H5N2+
83.024	10	C3H3N2O+
93.0449	2	C5H5N2+
94.0401	2	C4H4N3+
95.0241	2	C4H3N2O+
96.0557	223	C4H6N3+
97.0397	10	C4H5N2O+
108.0556	5	C5H6N3+
109.0271	3	C4H3N3O+
110.0714	3	C5H8N3+
120.0559	3	C6H6N3+
122.0349	1	C5H4N3O+
122.0589	1	C5H6N4+
124.0507	999	C5H6N3O+
137.0823	10	C6H9N4+
140.0454	1	C5H6N3O2+
142.0613	27	C5H8N3O2+
149.0459	2	C6H5N4O+
166.0486	1	C6H6N4O2+
167.0565	1	C6H7N4O2+
181.0721	279	C7H9N4O2+
