Mass spectrum: Risperidone; LC-ESI-QFT; MS2; CE: 30; R=35000; [M+H]+
Name: Risperidone
Name: Pargyline N-oxide
Name: N-benzyl-N-methylprop-2-yn-1-amine oxide
Formula: C11H13NO
Exact mass: 175.09971
SMILES: C[N+](CC#C)(CC1=CC=CC=C1)[O-]
InChI: InChI=1S/C11H13NO/c1-3-9-12(2,13)10-11-7-5-4-6-8-11/h1,4-8H,9-10H2,2H3
Instrument: Q Exactive Plus Orbitrap Thermo Scientific
Instrument type: LC-ESI-QFT
Ms type: MS2
Ion mode: POSITIVE
Ionization: ESI
Fragmentation mode: HCD
Collision energy: 30 (nominal)
Resolution: 35000
Column name: XBridge C18 3.5um, 2.1x50mm, Waters
Retention time: 5.7 min
Base peak: 164.9844
Precursor m/z: 176.107
Precursor type: [M+H]+
m/z	relative intensity	assigned
51.0228	1	C4H3+
60.0444	3	C2H6NO+
65.0385	1	C5H5+
68.0495	1	C4H6N+
70.0651	13	C4H8N+
84.0444	198	C4H6NO+
91.0542	999	C7H7+
94.0652	1	C6H8N+
107.0492	1	C7H7O+
111.044	1	C6H7O2+
115.0754	1	C6H11O2+
117.0699	5	C9H9+
141.091	1	C8H13O2+
146.0964	1	C10H12N+
148.1121	26	C10H14N+
158.0966	1	C11H12N+
159.1046	2	C11H13N+
176.107	615	C11H14NO+
