Mass spectrum: Dimethenamid OXA; LC-ESI-ITFT; MS2; CE: 90%; R=30000; [M+H]+
Name: Dimethenamid OXA
Name: [(2,4-dimethylthiophen-3-yl)(1-methoxypropan-2-yl)amino](oxo)acetic acid
Formula: C12H17NO4S
Exact mass: 271.0878
SMILES: S(C=C1C)C(C)=C1N(C(=O)C(=O)O)C(COC)C
InChI: InChI=1S/C12H17NO4S/c1-7-6-18-9(3)10(7)13(8(2)5-17-4)11(14)12(15)16/h6,8H,5H2,1-4H3,(H,15,16)
Instrument: LTQ Orbitrap XL Thermo Scientific
Instrument type: LC-ESI-ITFT
Ms type: MS2
Ion mode: POSITIVE
Ionization: ESI
Fragmentation mode: HCD
Collision energy: 90 % (nominal)
Resolution: 30000
Column name: XBridge C18 3.5um, 2.1x50mm, Waters
Retention time: 7.5 min
Base peak: 272.0948
Precursor m/z: 272.0951
Precursor type: [M+H]+
m/z	relative intensity	assigned
65.0386	14	C5H5+
67.0542	29	C5H7+
70.9949	12	C3H3S+
73.0648	41	C4H9O+
77.0386	53	C6H5+
78.0464	14	C6H6+
79.0542	35	C6H7+
80.0494	11	C5H6N+
82.0651	27	C5H8N+
85.0107	19	C4H5S+
91.0542	16	C7H7+
92.0494	21	C6H6N+
93.0573	96	C6H7N+
93.0701	7	C7H9+
94.0651	174	C6H8N+
95.0491	5	C6H7O+
95.0729	55	C6H9N+
97.0107	71	C5H5S+
98.0185	11	C5H6S+
99.0263	69	C5H7S+
101.0421	9	C5H9S+
104.0495	38	C7H6N+
105.0448	26	C6H5N2+
105.0573	115	C7H7N+
105.0701	7	C8H9+
106.0651	8	C7H8N+
107.0728	4	C7H9N+
108.0807	16	C7H10N+
109.0106	24	C6H5S+
110.0185	8	C6H6S+
110.0601	16	C6H8NO+
111.0263	516	C6H7S+
112.0216	13	C5H6NS+
112.0342	52	C6H8S+
113.0294	19	C5H7NS+
113.0421	32	C6H9S+
115.0544	5	C9H7+
117.0573	6	C8H7N+
118.0651	17	C8H8N+
119.073	19	C8H9N+
120.0444	31	C7H6NO+
120.0807	67	C8H10N+
121.0107	5	C7H5S+
121.0522	22	C7H7NO+
122.0963	6	C8H12N+
123.0137	43	C6H5NS+
124.0215	18	C6H6NS+
124.034	9	C7H8S+
125.0295	12	C6H7NS+
125.0419	37	C7H9S+
126.0372	999	C6H8NS+
127.0212	14	C6H7OS+
127.045	23	C6H9NS+
127.058	3	C7H11S+
128.053	7	C6H10NS+
129.0365	3	C6H9OS+
132.0809	31	C9H10N+
133.0885	27	C9H11N+
134.0964	39	C9H12N+
135.1043	24	C9H13N+
136.0215	47	C7H6NS+
137.0295	14	C7H7NS+
138.001	17	C6H4NOS+
138.0372	308	C7H8NS+
139.0086	21	C6H5NOS+
139.0208	5	C7H7OS+
139.0448	4	C7H9NS+
139.0574	5	C8H11S+
140.0526	13	C7H10NS+
149.0425	4	C9H9S+
150.0371	27	C8H8NS+
151.0448	17	C8H9NS+
151.058	3	C9H11S+
152.0165	54	C7H6NOS+
152.0528	114	C8H10NS+
153.0242	16	C7H7NOS+
153.0606	23	C8H11NS+
154.0321	57	C7H8NOS+
166.068	9	C9H12NS+
168.084	13	C9H14NS+
