Mass spectrum: Dicrotophos; LC-ESI-QFT; MS2; CE: 150%; R=17500; [M+H]+
Name: Dicrotophos
Name: 3-Hydroxy-N,N-dimethylcrotonamide dimethyl phosphate
Name: [4-(dimethylamino)-4-oxobut-2-en-2-yl] dimethyl phosphate
Formula: C8H16NO5P
Exact mass: 237.0766
SMILES: CC(=CC(=O)N(C)C)OP(=O)(OC)OC
InChI: InChI=1S/C8H16NO5P/c1-7(6-8(10)9(2)3)14-15(11,12-4)13-5/h6H,1-5H3
Instrument: Exploris 240 Orbitrap Thermo Scientific
Instrument type: LC-ESI-QFT
Ms type: MS2
Ion mode: POSITIVE
Ionization: ESI
Fragmentation mode: HCD
Collision energy: 150 % (nominal)
Resolution: 17500
Column name: XBridge C18 3.5um, 2.1x50mm, Waters
Retention time: 3.436 min
Base peak: 238.0837
Precursor m/z: 238.0839
Precursor type: [M+H]+
m/z	relative intensity	assigned
54.0338	42	C3H4N+
55.0417	166	C3H5N+
56.0131	144	C2H2NO+
58.0287	11	C2H4NO+
67.0178	284	C4H3O+
68.0493	19	C4H6N+
70.0651	23	C4H8N+
72.0444	999	C3H6NO+
78.9944	48	CH4O2P+
94.9893	22	CH4O3P+
109.0052	16	C2H6O3P+
127.0157	51	C2H8O4P+
