Mass spectrum: Indomethacin; LC-ESI-ITFT; MS2; CE: 75%; R=15000; [M+H]+
Name: Indomethacin
Name: 2-[1-(4-chlorobenzoyl)-5-methoxy-2-methyl-indol-3-yl]acetic acid
Formula: C19H16ClNO4
Exact mass: 357.0768
SMILES: COC1=CC2=C(C=C1)N(C(=O)C3=CC=C(Cl)C=C3)C(C)=C2CC(O)=O
InChI: InChI=1S/C19H16ClNO4/c1-11-15(10-18(22)23)16-9-14(25-2)7-8-17(16)21(11)19(24)12-3-5-13(20)6-4-12/h3-9H,10H2,1-2H3,(H,22,23)
Instrument: LTQ Orbitrap XL Thermo Scientific
Instrument type: LC-ESI-ITFT
Ms type: MS2
Ion mode: POSITIVE
Ionization: ESI
Fragmentation mode: HCD
Collision energy: 75 % (nominal)
Resolution: 15000
Column name: XBridge C18 3.5um, 2.1x50mm, Waters
Retention time: 12.9 min
Base peak: 358.0852
Precursor m/z: 358.0841
Precursor type: [M+H]+
m/z	relative intensity	assigned
50.0151	3	C4H2+
51.0229	19	C4H3+
55.0179	1	C3H3O+
75.0229	5	C6H3+
79.0178	8	C5H3O+
80.0257	4	C5H4O+
86.9996	72	C4H4Cl+
93.0336	4	C6H5O+
108.0203	1	C6H4O2+
110.9996	36	C6H4Cl+
114.9946	8	C5H4ClO+
129.0102	18	C6H6ClO+
131.073	14	C9H9N+
138.9946	999	C7H4ClO+
139.0055	538	C9HNO+
140.0029	4	C7H5ClO+
159.0679	5	C10H9NO+
174.0916	5	C11H12NO+
