Mass spectrum: Alfuzosin; LC-ESI-QFT; MS2; CE: 60; R=35000; [M+H]+
Name: Alfuzosin
Name: N-{3-[(4-Amino-6,7-dimethoxy-2-quinazolinyl)(methyl)amino]propyl}tetrahydro-2-furancarboxamide
Name: N-[3-[(4-amino-6,7-dimethoxyquinazolin-2-yl)-methylamino]propyl]oxolane-2-carboxamide
Formula: C19H27N5O4
Exact mass: 389.20630
SMILES: CN(CCCNC(=O)C1CCCO1)C2=NC3=CC(=C(C=C3C(=N2)N)OC)OC
InChI: InChI=1S/C19H27N5O4/c1-24(8-5-7-21-18(25)14-6-4-9-28-14)19-22-13-11-16(27-3)15(26-2)10-12(13)17(20)23-19/h10-11,14H,4-9H2,1-3H3,(H,21,25)(H2,20,22,23)
Instrument: Q Exactive Plus Orbitrap Thermo Scientific
Instrument type: LC-ESI-QFT
Ms type: MS2
Ion mode: POSITIVE
Ionization: ESI
Fragmentation mode: HCD
Collision energy: 60 (nominal)
Resolution: 35000
Column name: XBridge C18 3.5um, 2.1x50mm, Waters
Retention time: 5.3 min
Base peak: 390.2132
Precursor m/z: 390.2136
Precursor type: [M+H]+
m/z	relative intensity	assigned
53.0022	2	C3HO+
57.0446	1	C2H5N2+
58.0287	1	C2H4NO+
58.0651	14	C3H8N+
59.0491	14	C3H7O+
69.0335	1	C4H5O+
71.0491	999	C4H7O+
81.0334	1	C5H5O+
82.0652	1	C5H8N+
86.06	27	C4H8NO+
99.044	1	C5H7O2+
100.0756	37	C5H10NO+
128.0705	21	C6H10NO2+
156.1019	208	C8H14NO2+
174.0899	1	C9H10N4+
179.0815	1	C9H11N2O2+
187.0739	2	C10H9N3O+
189.0768	1	C9H9N4O+
190.0847	4	C9H10N4O+
191.0815	13	C10H11N2O2+
191.0926	22	C9H11N4O+
202.061	1	C10H8N3O2+
202.0846	3	C10H10N4O+
203.0686	1	C10H9N3O2+
203.0927	4	C10H11N4O+
204.0768	4	C10H10N3O2+
205.0721	2	C9H9N4O2+
205.084	2	C10H11N3O2+
206.0924	3	C10H12N3O2+
216.1006	6	C11H12N4O+
217.1085	1	C11H13N4O+
218.0924	5	C11H12N3O2+
219.0876	176	C10H11N4O2+
220.0954	85	C10H12N4O2+
222.0874	1	C10H12N3O3+
229.1083	2	C12H13N4O+
230.1163	1	C12H14N4O+
231.0877	15	C11H11N4O2+
231.1239	6	C12H15N4O+
232.0954	10	C11H12N4O2+
233.1035	4	C11H13N4O2+
234.1111	11	C11H14N4O2+
235.1189	258	C11H15N4O2+
245.1033	2	C12H13N4O2+
246.1109	1	C12H14N4O2+
247.1189	70	C12H15N4O2+
259.1188	40	C13H15N4O2+
260.1266	8	C13H16N4O2+
261.1345	4	C13H17N4O2+
273.1343	1	C14H17N4O2+
275.1501	28	C14H19N4O2+
286.1297	5	C14H16N5O2+
287.1375	1	C14H17N5O2+
302.1611	5	C15H20N5O2+
374.1831	2	C18H24N5O4+
390.213	1	C19H28N5O4+
