Mass spectrum: Pyrazophos; LC-ESI-QFT; MS2; CE: 45%; R=17500; [M+H]+
Name: Pyrazophos
Name: ethyl 2-diethoxyphosphinothioyloxy-5-methylpyrazolo[1,5-a]pyrimidine-6-carboxylate
Formula: C14H20N3O5PS
Exact mass: 373.0861
SMILES: CCOC(=O)C1=CN2C(=CC(=N2)OP(=S)(OCC)OCC)N=C1C
InChI: InChI=1S/C14H20N3O5PS/c1-5-19-14(18)11-9-17-12(15-10(11)4)8-13(16-17)22-23(24,20-6-2)21-7-3/h8-9H,5-7H2,1-4H3
Instrument: Exploris 240 Orbitrap Thermo Scientific
Instrument type: LC-ESI-QFT
Ms type: MS2
Ion mode: POSITIVE
Ionization: ESI
Fragmentation mode: HCD
Collision energy: 45 % (nominal)
Resolution: 17500
Column name: XBridge C18 3.5um, 2.1x50mm, Waters
Retention time: 11.575 min
Base peak: 374.0932
Precursor m/z: 374.0934
Precursor type: [M+H]+
m/z	relative intensity	assigned
64.9788	12	H2O2P+
93.01	31	C2H6O2P+
96.9507	39	H2O2PS+
113.9534	58	H3O3PS+
114.9612	37	H4O3PS+
124.9821	9	C2H6O2PS+
125.9901	24	C2H7O2PS+
142.9924	19	C2H8O3PS+
170.0162	21	C4H11O3PS+
176.0454	88	C8H6N3O2+
177.0533	50	C8H7N3O2+
192.0221	18	C8H6N3OS+
194.056	585	C8H8N3O3+
205.0847	81	C10H11N3O2+
210.033	137	C8H8N3O2S+
211.0536	85	C9H11N2O2S+
222.0872	999	C10H12N3O3+
236.0482	53	C10H10N3O2S+
238.0645	195	C10H12N3O2S+
271.9888	21	C8H7N3O4PS+
300.0205	33	C10H11N3O4PS+
318.031	9	C10H13N3O5PS+
328.0507	8	C12H15N3O4PS+
346.0627	17	C12H17N3O5PS+
374.0922	6	C14H21N3O5PS+
