Mass spectrum: Butocarboxim Sulfoxide; LC-ESI-QFT; MS2; CE: 60%; R=17500; [M+H]+
Name: Butocarboxim Sulfoxide
Name: 2-Butanone, 3-(methylsulfinyl)-, O-[(methylamino)carbonyl]oxime
Name: (3-methylsulfinylbutan-2-ylideneamino) N-methylcarbamate
Formula: C7H14N2O3S
Exact mass: 206.0725
SMILES: CC(C(=NOC(=O)NC)C)S(=O)C
InChI: InChI=1S/C7H14N2O3S/c1-5(6(2)13(4)11)9-12-7(10)8-3/h6H,1-4H3,(H,8,10)
Instrument: Exploris 240 Orbitrap Thermo Scientific
Instrument type: LC-ESI-QFT
Ms type: MS2
Ion mode: POSITIVE
Ionization: ESI
Fragmentation mode: HCD
Collision energy: 60 % (nominal)
Resolution: 17500
Column name: XBridge C18 3.5um, 2.1x50mm, Waters
Retention time: 1.992 min
Base peak: 207.0798
Precursor m/z: 207.0798
Precursor type: [M+H]+
m/z	relative intensity	assigned
46.995	200	CH3S+
49.0107	20	CH5S+
56.0495	13	C3H6N+
62.99	17	CH3OS+
68.0495	128	C4H6N+
69.0573	220	C4H7N+
70.0651	34	C4H8N+
72.9982	12	C2H3NS+
73.0106	71	C3H5S+
75.0263	999	C3H7S+
86.0601	53	C4H8NO+
87.0678	87	C4H9NO+
88.0216	158	C3H6NS+
90.0372	279	C3H8NS+
91.0213	30	C3H7OS+
