Mass spectrum: Varenicline; LC-ESI-QFT; MS2; CE: 90; R=35000; [M+H]+
Name: Varenicline
Name: 7,8,9,10-tetrahydro-6h-6,10-methanoazepino[4,5-g]quinoxaline
Name: 7,8,9,10-tetrahydro-6,10-Methano-6H-pyrazino[2,3-h][3]benzazepine
Formula: C13H13N3
Exact mass: 211.11095
SMILES: C1C2CNCC1C3=CC4=NC=CN=C4C=C23
InChI: InChI=1S/C13H13N3/c1-2-16-13-5-11-9-3-8(6-14-7-9)10(11)4-12(13)15-1/h1-2,4-5,8-9,14H,3,6-7H2
Instrument: Q Exactive Plus Orbitrap Thermo Scientific
Instrument type: LC-ESI-QFT
Ms type: MS2
Ion mode: POSITIVE
Ionization: ESI
Fragmentation mode: HCD
Collision energy: 90 (nominal)
Resolution: 35000
Column name: XBridge C18 3.5um, 2.1x50mm, Waters
Retention time: 2.7 min
Base peak: 212.118
Precursor m/z: 212.1182
Precursor type: [M+H]+
m/z	relative intensity	assigned
63.0227	1	C5H3+
65.0385	1	C5H5+
68.0495	1	C4H6N+
90.0465	3	C7H6+
91.0543	4	C7H7+
103.0543	1	C8H7+
114.0462	10	C9H6+
115.0542	121	C9H7+
116.0495	8	C8H6N+
117.0699	4	C9H9+
118.0525	3	C7H6N2+
118.065	1	C8H8N+
126.0464	40	C10H6+
127.0541	3	C10H7+
128.0495	10	C9H6N+
128.062	21	C10H8+
129.0572	4	C9H7N+
129.0699	23	C10H9+
130.0653	5	C9H8N+
132.0569	1	C9H8O+
133.0648	5	C9H9O+
139.0541	1	C11H7+
140.0496	12	C10H6N+
140.062	3	C11H8+
141.0576	23	C10H7N+
141.0699	160	C11H9+
142.0652	33	C10H8N+
143.0604	65	C9H7N2+
145.0649	9	C10H9O+
145.076	1	C9H9N2+
146.06	5	C9H8NO+
147.0805	7	C10H11O+
152.0496	1	C11H6N+
153.0574	35	C11H7N+
154.0652	27	C11H8N+
155.0604	29	C10H7N2+
155.073	9	C11H9N+
156.0684	6	C10H8N2+
156.0808	31	C11H10N+
157.0761	21	C10H9N2+
159.0805	46	C11H11O+
160.0756	3	C10H10NO+
161.071	10	C9H9N2O+
166.0651	17	C12H8N+
167.0606	22	C11H7N2+
167.0729	34	C12H9N+
168.0683	999	C11H8N2+
168.0807	109	C12H10N+
169.076	779	C11H9N2+
170.0602	4	C11H8NO+
170.0838	15	C11H10N2+
171.0916	59	C11H11N2+
179.0604	18	C12H7N2+
180.0682	253	C12H8N2+
181.076	110	C12H9N2+
182.0839	91	C12H10N2+
183.0917	405	C12H11N2+
185.0708	1	C11H9N2O+
192.0681	1	C13H8N2+
193.0761	38	C13H9N2+
194.0839	42	C13H10N2+
195.0918	180	C13H11N2+
196.0874	1	C12H10N3+
212.1183	45	C13H14N3+
