Mass spectrum: Simazine; LC-ESI-ITFT; MS2; CE: 75%; R=7500; [M+H]+
Name: Simazine
Name: 6-chloranyl-N2,N4-diethyl-1,3,5-triazine-2,4-diamine
Formula: C7H12ClN5
Exact mass: 201.0776
SMILES: c1(nc(nc(n1)Cl)NCC)NCC
InChI: InChI=1S/C7H12ClN5/c1-3-9-6-11-5(8)12-7(13-6)10-4-2/h3-4H2,1-2H3,(H2,9,10,11,12,13)
Instrument: LTQ Orbitrap XL Thermo Scientific
Instrument type: LC-ESI-ITFT
Ms type: MS2
Ion mode: POSITIVE
Ionization: ESI
Fragmentation mode: HCD
Collision energy: 75 % (nominal)
Resolution: 7500
Column name: XBridge C18 3.5um, 2.1x50mm, Waters
Retention time: 6.9 min
Base peak: 202.0857
Precursor m/z: 202.0854
Precursor type: [M+H]+
m/z	relative intensity	assigned
61.9792	69	CHClN+
68.0243	755	C2H2N3+
71.0604	374	C3H7N2+
79.0058	53	CH4ClN2+
90.0103	28	C3H5ClN+
96.0556	581	C4H6N3+
104.001	999	C2H3ClN3+
124.0869	404	C6H10N3+
132.0324	609	C4H7ClN3+
138.0774	45	C5H8N5+
146.0229	41	C3H5ClN5+
166.1088	96	C7H12N5+
174.0542	127	C5H9ClN5+
