Mass spectrum: Theophyline; LC-ESI-QFT; MS2; CE: 120; R=35000; [M+H]+
Name: Theophyline
Name: Theophylline
Name: 1,3-dimethyl-7H-purine-2,6-dione
Formula: C7H8N4O2
Exact mass: 180.06473
SMILES: CN1C2=C(C(=O)N(C1=O)C)NC=N2
InChI: InChI=1S/C7H8N4O2/c1-10-5-4(8-3-9-5)6(12)11(2)7(10)13/h3H,1-2H3,(H,8,9)
Instrument: Q Exactive Plus Orbitrap Thermo Scientific
Instrument type: LC-ESI-QFT
Ms type: MS2
Ion mode: POSITIVE
Ionization: ESI
Fragmentation mode: HCD
Collision energy: 120 (nominal)
Resolution: 35000
Column name: XBridge C18 3.5um, 2.1x50mm, Waters
Retention time: 3.2 min
Base peak: 181.0717
Precursor m/z: 181.072
Precursor type: [M+H]+
m/z	relative intensity	assigned
52.0182	3	C3H2N+
53.0135	4	C2HN2+
54.0213	69	C2H2N2+
54.0339	16	C3H4N+
55.0291	34	C2H3N2+
56.0369	1	C2H4N2+
56.0495	4	C3H6N+
57.0448	9	C2H5N2+
58.0288	3	C2H4NO+
66.0213	4	C3H2N2+
67.0291	65	C3H3N2+
68.0131	6	C3H2NO+
68.037	44	C3H4N2+
69.0448	999	C3H5N2+
70.0288	3	C3H4NO+
79.0291	7	C4H3N2+
80.0131	6	C4H2NO+
81.0322	1	C3H3N3+
81.0448	31	C4H5N2+
82.0162	20	C3H2N2O+
83.0241	33	C3H3N2O+
93.0448	5	C5H5N2+
94.0401	46	C4H4N3+
95.0241	21	C4H3N2O+
96.0557	195	C4H6N3+
97.0397	13	C4H5N2O+
106.0401	4	C5H4N3+
108.0556	2	C5H6N3+
109.0272	189	C4H3N3O+
113.0347	2	C4H5N2O2+
121.0511	9	C5H5N4+
122.0351	6	C5H4N3O+
122.0591	1	C5H6N4+
124.0507	84	C5H6N3O+
140.0455	4	C5H6N3O2+
142.0613	2	C5H8N3O2+
