Mass spectrum: 8phiC8SPC; LC-ESI-QFT; MS2; CE: 90; R=35000; [M+H]+
Name: 8phiC8SPC
Name: Octacarboxy sulfophenyl carboxylic acid
Name: 8-(4-sulfophenyl)octanoic acid
Formula: C14H20O5S
Exact mass: 300.10314
SMILES: OS(=O)(=O)c1ccc(CCCCCCCC(=O)O)cc1
InChI: InChI=1S/C14H20O5S/c15-14(16)7-5-3-1-2-4-6-12-8-10-13(11-9-12)20(17,18)19/h8-11H,1-7H2,(H,15,16)(H,17,18,19)
Instrument: Q Exactive Plus Orbitrap Thermo Scientific
Instrument type: LC-ESI-QFT
Ms type: MS2
Ion mode: POSITIVE
Ionization: ESI
Fragmentation mode: HCD
Collision energy: 90 (nominal)
Resolution: 35000
Column name: XBridge C18 3.5um, 2.1x50mm, Waters
Retention time: 7.9 min
Base peak: 315.1259
Precursor m/z: 301.1104
Precursor type: [M+H]+
m/z	relative intensity	assigned
50.0151	9	C4H2+
51.0229	18	C4H3+
53.0022	9	C3HO+
53.0386	132	C4H5+
53.9976	1	C2NO+
55.0179	29	C3H3O+
55.0543	38	C4H7+
57.0699	15	C4H9+
58.995	1	C2H3S+
59.0492	2	C3H7O+
63.0229	1	C5H3+
65.0386	19	C5H5+
66.0464	5	C5H6+
67.0543	14	C5H7+
68.9793	1	C3HS+
69.0698	6	C5H9+
71.0855	2	C5H11+
77.0385	94	C6H5+
78.0464	203	C6H6+
79.0542	311	C6H7+
81.0335	25	C5H5O+
81.0699	10	C6H9+
83.0491	1	C5H7O+
89.0386	16	C7H5+
90.0464	22	C7H6+
91.0543	331	C7H7+
93.0699	12	C7H9+
94.0413	8	C6H6O+
95.0492	542	C6H7O+
97.0108	10	C5H5S+
102.0464	14	C8H6+
103.0542	381	C8H7+
104.0621	799	C8H8+
105.0448	303	C6H5N2+
105.0699	49	C8H9+
107.0491	999	C7H7O+
109.0107	29	C6H5S+
109.0648	1	C7H9O+
111.0263	16	C6H7S+
115.0543	172	C9H7+
116.0621	96	C9H8+
117.0699	279	C9H9+
118.0413	2	C8H6O+
118.0777	28	C9H10+
119.0491	2	C8H7O+
119.0851	1	C9H11+
120.057	6	C8H8O+
121.0106	2	C7H5S+
121.0649	21	C8H9O+
123.0265	1	C7H7S+
125.0056	6	C6H5OS+
128.0621	30	C10H8+
129.0699	69	C10H9+
130.0778	14	C10H10+
131.0494	11	C9H7O+
131.0604	20	C8H7N2+
131.0856	60	C10H11+
132.057	5	C9H8O+
133.0647	6	C9H9O+
134.0185	41	C8H6S+
135.0263	8	C8H7S+
137.0055	5	C7H5OS+
139.0212	1	C7H7OS+
141.0699	16	C11H9+
142.078	6	C11H10+
143.0606	1	C9H7N2+
143.0857	11	C11H11+
144.0939	1	C11H12+
145.0647	2	C10H9O+
145.101	1	C11H13+
147.0262	14	C9H7S+
148.0342	1	C9H8S+
151.0213	2	C8H7OS+
151.9927	1	C7H4O2S+
152.0617	1	C12H8+
153.0699	8	C12H9+
154.0779	2	C12H10+
155.0604	1	C10H7N2+
155.0855	6	C12H11+
159.0914	4	C10H11N2+
165.0695	2	C13H9+
167.0159	2	C8H7O2S+
167.0855	5	C13H11+
171.0111	192	C7H7O3S+
171.026	11	C11H7S+
184.0345	2	C12H8S+
185.042	5	C12H9S+
