Mass spectrum: Tepraloxydim; LC-ESI-QFT; MS2; CE: 30; R=35000; [M+H]+
Name: Tepraloxydim
Name: E-Tepraloxydim
Formula: C17H24ClNO4
Exact mass: 341.13939
SMILES: CC/C(=N\OC\C=C\Cl)/C=1C(=O)CC(CC=1O)C2CCOCC2
InChI: InChI=1S/C17H24ClNO4/c1-2-14(19-23-7-3-6-18)17-15(20)10-13(11-16(17)21)12-4-8-22-9-5-12/h3,6,12-13,20H,2,4-5,7-11H2,1H3/b6-3+,19-14+
Instrument: Q Exactive Orbitrap Thermo Scientific
Instrument type: LC-ESI-QFT
Ms type: MS2
Ion mode: POSITIVE
Ionization: ESI
Fragmentation mode: HCD
Collision energy: 30 (nominal)
Resolution: 35000
Column name: XBridge C18 3.5um, 2.1x50mm, Waters
Retention time: 11.5 min
Base peak: 342.1471
Precursor m/z: 342.1467
Precursor type: [M+H]+
m/z	relative intensity	assigned
56.0495	1	C3H6N+
57.0337	1	C3H5O+
58.0653	7	C3H8N+
67.0543	29	C5H7+
68.0495	2	C4H6N+
69.0334	2	C4H5O+
69.07	3	C5H9+
70.0652	15	C4H8N+
71.0492	1	C4H7O+
71.073	2	C4H9N+
72.0444	16	C3H6NO+
72.0807	11	C4H10N+
74.9996	45	C3H4Cl+
77.0384	2	C6H5+
79.0543	18	C6H7+
80.0494	2	C5H6N+
81.0335	2	C5H5O+
81.0699	17	C6H9+
82.0651	11	C5H8N+
83.0491	78	C5H7O+
84.0444	6	C4H6NO+
84.0807	2	C5H10N+
85.0648	16	C5H9O+
86.0601	1	C4H8NO+
91.0542	21	C7H7+
93.0699	63	C7H9+
94.0651	24	C6H8N+
95.0491	28	C6H7O+
95.0855	14	C7H11+
96.0444	111	C5H6NO+
96.0808	10	C6H10N+
97.0648	14	C6H9O+
98.06	107	C5H8NO+
99.044	1	C5H7O2+
100.0756	1	C5H10NO+
103.0541	2	C8H7+
105.0699	27	C8H9+
106.0651	2	C7H8N+
107.0491	9	C7H7O+
107.0856	42	C8H11+
108.0444	2	C6H6NO+
108.0807	13	C7H10N+
109.0648	24	C7H9O+
109.1011	5	C8H13+
110.0601	89	C6H8NO+
111.0439	9	C6H7O2+
111.068	10	C6H9NO+
111.0805	8	C7H11O+
112.0757	19	C6H10NO+
113.0836	18	C6H11NO+
114.0914	6	C6H12NO+
115.0538	1	C9H7+
117.0699	23	C9H9+
118.0655	1	C8H8N+
119.0491	5	C8H7O+
119.0856	27	C9H11+
120.0807	9	C8H10N+
121.0648	63	C8H9O+
121.101	7	C9H13+
122.06	23	C7H8NO+
122.0964	5	C8H12N+
123.0439	7	C7H7O2+
123.0805	16	C8H11O+
124.0393	16	C6H6NO2+
124.0758	9	C7H10NO+
126.0549	23	C6H8NO2+
129.0698	10	C10H9+
131.0855	28	C10H11+
132.0808	10	C9H10N+
133.0648	14	C9H9O+
133.1012	19	C10H13+
134.06	6	C8H8NO+
134.0963	5	C9H12N+
135.0804	32	C9H11O+
135.1168	2	C10H15+
136.0757	64	C8H10NO+
137.0597	20	C8H9O2+
137.0834	5	C8H11NO+
137.0962	2	C9H13O+
138.055	29	C7H8NO2+
138.0674	4	C8H10O2+
138.0913	74	C8H12NO+
139.0628	19	C7H9NO2+
139.0753	27	C8H11O2+
140.0706	31	C7H10NO2+
141.0698	4	C11H9+
142.0501	2	C6H8NO3+
143.0855	19	C11H11+
144.0809	6	C10H10N+
145.0648	8	C10H9O+
145.1012	38	C11H13+
146.0599	8	C9H8NO+
146.0965	10	C10H12N+
147.0442	8	C9H7O2+
147.0679	5	C9H9NO+
147.0805	28	C10H11O+
147.1169	8	C11H15+
148.0756	41	C9H10NO+
148.1121	6	C10H14N+
149.0597	25	C9H9O2+
149.0833	1	C9H11NO+
149.0963	11	C10H13O+
150.0547	1	C8H8NO2+
150.0913	13	C9H12NO+
151.0752	4	C9H11O2+
152.0707	20	C8H10NO2+
153.0784	2	C8H11NO2+
154.0776	1	C12H10+
155.0858	2	C12H11+
156.0656	2	C7H10NO3+
157.101	5	C12H13+
158.0729	1	C11H10O+
158.0963	9	C11H12N+
159.0805	15	C11H11O+
159.1169	26	C12H15+
160.0758	13	C10H10NO+
160.1121	26	C11H14N+
161.0598	11	C10H9O2+
161.0961	35	C11H13O+
162.0551	4	C9H8NO2+
162.0913	16	C10H12NO+
162.1276	8	C11H16N+
163.0627	2	C9H9NO2+
163.0754	8	C10H11O2+
163.1117	16	C11H15O+
164.0706	182	C9H10NO2+
164.107	9	C10H14NO+
165.0785	7	C9H11NO2+
165.091	20	C10H13O2+
166.0862	919	C9H12NO2+
167.0938	9	C9H13NO2+
169.101	14	C13H13+
170.0965	2	C12H12N+
171.0804	7	C12H11O+
171.1045	1	C12H13N+
171.1166	1	C13H15+
172.0756	1	C11H10NO+
172.1119	10	C12H14N+
173.0838	1	C11H11NO+
173.096	22	C12H13O+
174.0913	7	C11H12NO+
174.1277	5	C12H16N+
175.0752	5	C11H11O2+
175.099	1	C11H13NO+
175.1117	9	C12H15O+
176.071	2	C10H10NO2+
176.107	19	C11H14NO+
176.1433	2	C12H18N+
177.0911	8	C11H13O2+
177.1273	12	C12H17O+
178.0863	4	C10H12NO2+
178.1226	15	C11H16NO+
179.1066	5	C11H15O2+
180.1384	11	C11H18NO+
181.0863	6	C10H13O3+
186.0913	8	C12H12NO+
186.1278	11	C13H16N+
187.0755	5	C12H11O2+
187.1117	39	C13H15O+
188.107	39	C12H14NO+
189.0912	13	C12H13O2+
189.115	4	C12H15NO+
190.0864	1	C11H12NO2+
190.1228	32	C12H16NO+
191.1067	19	C12H15O2+
192.102	4	C11H14NO2+
192.1381	11	C12H18NO+
194.118	11	C11H16NO2+
194.1537	4	C12H20NO+
202.1228	11	C13H16NO+
204.1023	17	C12H14NO2+
204.1385	70	C13H18NO+
205.086	5	C12H13O3+
205.1225	57	C13H17O2+
206.1177	14	C12H16NO2+
206.1543	2	C13H20NO+
208.1334	74	C12H18NO2+
210.1488	22	C12H20NO2+
214.1227	19	C14H16NO+
215.1067	18	C14H15O2+
220.1331	6	C13H18NO2+
222.1489	374	C13H20NO2+
223.1569	12	C13H21NO2+
224.1279	8	C12H18NO3+
224.1646	21	C13H22NO2+
232.1333	56	C14H18NO2+
233.1173	14	C14H17O3+
234.1489	26	C14H20NO2+
235.1329	18	
250.1439	999	C14H20NO3+
251.1517	132	C14H21NO3+
252.1594	131	C14H22NO3+
288.1594	11	C17H22NO3+
306.1701	4	C17H24NO4+
342.1469	30	C17H25ClNO4+
