Mass spectrum: Diprogulic Acid; LC-ESI-QFT; MS2; CE: 15%; R=17500; [M+H]+
Name: Diprogulic Acid
Name: (-)-Diacetone-2-keto-L-gulonic acid monohydrate
Name: 4,4,11,11-tetramethyl-3,5,7,10,12-pentaoxatricyclo[6.4.0.02,6]dodecane-6-carboxylic acid
Formula: C12H18O7
Exact mass: 274.1053
SMILES: CC1(OCC2C(O1)C3C(O2)(OC(O3)(C)C)C(=O)O)C
InChI: InChI=1S/C12H18O7/c1-10(2)15-5-6-7(17-10)8-12(16-6,9(13)14)19-11(3,4)18-8/h6-8H,5H2,1-4H3,(H,13,14)
Instrument: Exploris 240 Orbitrap Thermo Scientific
Instrument type: LC-ESI-QFT
Ms type: MS2
Ion mode: POSITIVE
Ionization: ESI
Fragmentation mode: HCD
Collision energy: 15 % (nominal)
Resolution: 17500
Column name: XBridge C18 3.5um, 2.1x50mm, Waters
Retention time: 4.742 min
Base peak: 275.1123
Precursor m/z: 275.1125
Precursor type: [M+H]+
m/z	relative intensity	assigned
57.0334	8	C3H5O+
59.0491	226	C3H7O+
69.0334	6	C4H5O+
85.0283	20	C4H5O2+
97.0283	20	C5H5O2+
103.0387	6	C4H7O3+
129.0179	26	C5H5O4+
131.0338	14	C5H7O4+
131.07	10	C6H11O3+
141.0181	40	C6H5O4+
145.0489	4	C6H9O4+
159.0287	225	C6H7O5+
171.065	16	C8H11O4+
217.0705	999	C9H13O6+
