Mass spectrum: Irbesartan; LC-ESI-ITFT; MS2; CE: 35%; R=7500; [M+H]+
Name: Irbesartan
Name: 8-butyl-7-[4-[2-(2H-tetrazol-5-yl)phenyl]benzyl]-7,9-diazaspiro[4.4]non-8-en-6-one
Formula: C25H28N6O
Exact mass: 428.2325
SMILES: C12(C(N(Cc3ccc(c4c(c5[nH]nnn5)cccc4)cc3)C(=N1)CCCC)=O)CCCC2
InChI: InChI=1S/C25H28N6O/c1-2-3-10-22-26-25(15-6-7-16-25)24(32)31(22)17-18-11-13-19(14-12-18)20-8-4-5-9-21(20)23-27-29-30-28-23/h4-5,8-9,11-14H,2-3,6-7,10,15-17H2,1H3,(H,27,28,29,30)
Instrument: LTQ Orbitrap XL Thermo Scientific
Instrument type: LC-ESI-ITFT
Ms type: MS2
Ion mode: POSITIVE
Ionization: ESI
Fragmentation mode: CID
Collision energy: 35 % (nominal)
Resolution: 7500
Column name: XBridge C18 3.5um, 2.1x50mm, Waters
Retention time: 9.2 min
Base peak: 429.2411
Precursor m/z: 429.2397
Precursor type: [M+H]+
m/z	relative intensity	assigned
152.0619	2	C12H8+
153.07	1	C12H9+
167.1541	7	C10H19N2+
178.0652	7	C13H8N+
179.0732	3	C13H9N+
180.0808	28	C13H10N+
190.0654	6	C14H8N+
191.072	2	C14H9N+
192.069	4	C13H8N2+
195.1492	194	C11H19N2O+
205.0759	8	C14H9N2+
206.084	28	C14H10N2+
207.0917	999	C14H11N2+
386.2225	94	C25H28N3O+
401.2334	219	C25H29N4O+
