Mass spectrum: Thiazafluron; LC-ESI-QFT; MS2; CE: 150%; R=17500; [M+H]+
Name: Thiazafluron
Name: 1,3-dimethyl-1-[5-(trifluoromethyl)-1,3,4-thiadiazol-2-yl]urea
Formula: C6H7F3N4OS
Exact mass: 240.0293
SMILES: CNC(=O)N(C)C1=NN=C(S1)C(F)(F)F
InChI: InChI=1S/C6H7F3N4OS/c1-10-4(14)13(2)5-12-11-3(15-5)6(7,8)9/h1-2H3,(H,10,14)
Instrument: Exploris 240 Orbitrap Thermo Scientific
Instrument type: LC-ESI-QFT
Ms type: MS2
Ion mode: POSITIVE
Ionization: ESI
Fragmentation mode: HCD
Collision energy: 150 % (nominal)
Resolution: 17500
Column name: XBridge C18 3.5um, 2.1x50mm, Waters
Retention time: 5.836 min
Base peak: 241.0364
Precursor m/z: 241.0365
Precursor type: [M+H]+
m/z	relative intensity	assigned
55.0291	37	C2H3N2+
57.0447	213	C2H5N2+
57.9745	34	CNS+
58.0288	55	C2H4NO+
58.9824	45	CHNS+
59.9901	48	CH2NS+
62.0059	22	CH4NS+
62.97	16	CFS+
68.9946	261	CF3+
74.0058	999	C2H4NS+
91.0102	17	C2HF2N2+
111.0163	12	C2H2F3N2+
112.9666	42	C2F3S+
