Mass spectrum: MCLW; LC-ESI-QFT; MS2; CE: 75%; R=17500; [M+H]+
Name: MCLW
Name: Microcystin LW
Name: (5R,8S,11R,12S,15S,18S,19S,22R)-15-(1H-indol-3-ylmethyl)-18-[(1E,3E,5S,6S)-6-methoxy-3,5-dimethyl-7-phenylhepta-1,3-dienyl]-1,5,12,19-tetramethyl-2-methylidene-8-(2-methylpropyl)-3,6,9,13,16,20,25-heptaoxo-1,4,7,10,14,17,21-heptazacyclopentacosane-11,22-dicarboxylic acid
Class: NA
Formula: C54H72N8O12
Exact mass: 1024.5270
SMILES: CO[C@@H](Cc1ccccc1)[C@@H](C)/C=C(C)/C=C/[C@@H]2NC(=O)[C@H](Cc3c[nH]c4ccccc34)NC(=O)[C@@H](C)[C@@H](NC(=O)[C@H](CC(C)C)NC(=O)[C@@H](C)NC(=O)C(=C)N(C)C(=O)CC[C@@H](NC(=O)[C@H]2C)C(O)=O)C(O)=O
InChI: InChI=1S/C54H72N8O12/c1-29(2)24-42-52(69)61-46(54(72)73)33(6)48(65)59-43(27-37-28-55-40-19-15-14-18-38(37)40)51(68)57-39(21-20-30(3)25-31(4)44(74-10)26-36-16-12-11-13-17-36)32(5)47(64)58-41(53(70)71)22-23-45(63)62(9)35(8)50(67)56-34(7)49(66)60-42/h11-21,25,28-29,31-34,39,41-44,46,55H,8,22-24,26-27H2,1-7,9-10H3,(H,56,67)(H,57,68)(H,58,64)(H,59,65)(H,60,66)(H,61,69)(H,70,71)(H,72,73)/b21-20+,30-25+/t31-,32-,33-,34+,39-,41+,42-,43-,44-,46+/m0/s1
Instrument: Q Exactive Plus Orbitrap Thermo Scientific
Instrument type: LC-ESI-QFT
Ms type: MS2
Ion mode: POSITIVE
Ionization: ESI
Fragmentation mode: HCD
Collision energy: 75 % (nominal)
Resolution: 17500
Column name: XBridge C18 3.5um, 2.1x50mm, Waters
Retention time: 11.761 min
Base peak: 164.9846
Precursor m/z: 1025.5342
Precursor type: [M+H]+
m/z	relative intensity	assigned
74.0236	21	C2H4NO2+
77.0384	33	C6H5+
78.0461	2	C6H6+
79.0542	297	C6H7+
80.0495	61	C5H6N+
81.0571	3	C5H7N+
81.0698	20	C6H9+
82.0287	25	C4H4NO+
82.0651	197	C5H8N+
84.0444	247	C4H6NO+
84.0807	10	
85.0285	23	C4H5O2+
86.06	22	C4H8NO+
86.0964	258	C5H12N+
91.0543	825	C7H7+
92.0622	16	C7H8+
93.0699	259	C7H9+
94.0651	50	C6H8N+
95.0492	280	C6H7O+
95.073	6	
95.0853	26	C7H11+
96.0444	11	C5H6NO+
96.0806	24	C6H10N+
97.0759	9	C5H9N2+
98.06	6	C5H8NO+
99.0917	144	C5H11N2+
102.0463	16	C8H6+
102.0549	12	C4H8NO2+
103.0542	999	C8H7+
105.0448	100	C6H5N2+
105.0699	648	C8H9+
106.0527	6	C6H6N2+
106.0655	6	C7H8N+
106.0774	6	C8H10+
107.0855	996	C8H11+
108.0682	21	C6H8N2+
108.0808	13	C7H10N+
109.0648	95	C7H9O+
109.0761	7	C6H9N2+
110.06	70	C6H8NO+
110.0964	12	C7H12N+
111.0553	62	C5H7N2O+
112.039	7	C5H6NO2+
112.075	4	C4H8N4+
113.0233	70	C5H5O3+
113.0708	9	C5H9N2O+
115.0542	214	C9H7+
116.0618	17	C9H8+
117.0572	79	C8H7N+
117.0699	164	C9H9+
118.065	44	C8H8N+
118.0777	5	C9H10+
119.0604	60	C7H7N2+
119.0854	74	C9H11+
120.0567	20	C8H8O+
120.0809	25	C8H10N+
120.0935	13	C9H12+
121.0654	8	C8H9O+
121.076	105	C7H9N2+
121.101	8	C9H13+
122.0603	16	C7H8NO+
122.0839	12	C7H10N2+
122.0965	12	C8H12N+
123.0916	28	C7H11N2+
124.0759	19	C7H10NO+
124.1119	9	C8H14N+
125.0711	11	C6H9N2O+
127.0866	730	C6H11N2O+
128.0619	64	C10H8+
128.0707	6	C6H10NO2+
129.0699	52	C10H9+
130.0495	15	C5H8NO3+
130.0651	274	C9H8N+
130.0774	16	C10H10+
131.0854	83	C10H11+
132.0808	397	C9H10N+
133.1012	28	C10H13+
134.0603	3	C8H8NO+
134.0961	9	C9H12N+
135.0804	175	C9H11O+
135.106	8	
135.1167	144	C10H15+
136.0754	8	C8H10NO+
137.0707	4	C7H9N2O+
138.055	41	C7H8NO2+
139.0865	16	C7H11N2O+
140.0706	7	C7H10NO2+
142.0652	94	C10H8N+
142.0771	9	C11H10+
143.0728	18	C10H9N+
143.0855	23	C11H11+
144.0809	81	C10H10N+
145.076	26	C9H9N2+
145.1011	42	C11H13+
146.0603	26	C9H8NO+
146.0963	32	C10H12N+
146.1079	6	C11H14+
147.1037	4	C10H13N+
148.112	6	C10H14N+
149.0709	88	C8H9N2O+
151.0866	10	C8H11N2O+
153.0698	10	C12H9+
154.0653	18	C11H8N+
155.0602	10	C10H7N2+
156.0809	5	C11H10N+
157.0609	44	C6H9N2O3+
157.0758	18	C10H9N2+
158.0601	9	C10H8NO+
158.0842	83	C10H10N2+
158.0967	14	C11H12N+
159.0917	355	C10H11N2+
160.0758	51	C10H10NO+
161.0961	5	C11H13O+
162.1277	8	C11H16N+
163.1114	24	C11H15O+
165.0701	38	C13H9+
166.0773	15	C13H10+
167.0818	195	C8H11N2O2+
168.0659	16	C8H10NO3+
168.0808	36	C12H10N+
169.0761	160	C11H9N2+
170.0599	52	C11H8NO+
170.0962	11	C12H12N+
171.0917	9	C11H11N2+
173.0963	7	C12H13O+
178.0764	6	H12N5O6+
179.0856	23	C14H11+
180.0933	14	C14H12+
181.1008	10	C14H13+
181.1341	3	C10H17N2O+
182.0975	5	CH16N3O7+
185.0712	55	C11H9N2O+
185.1073	5	C12H13N2+
187.0873	5	C11H11N2O+
188.0706	4	C11H10NO2+
192.0934	9	C15H12+
193.1009	9	C15H13+
195.0765	46	C9H11N2O3+
195.092	4	H19O11+
195.1166	4	C15H15+
196.0606	7	C9H10NO4+
197.1076	41	C13H13N2+
206.0837	13	C14H10N2+
207.0917	20	C14H11N2+
209.1074	16	C14H13N2+
213.0872	26	C9H13N2O4+
225.1032	11	CH21O12+
235.0871	38	C2H19O12+
244.1132	8	C4H16N6O6+
