Mass spectrum: Exemestane; LC-ESI-ITFT; MS2; CE: 30%; R=7500; [M+H]+
Name: Exemestane
Name: (8R,9S,10R,13S,14S)-10,13-dimethyl-6-methylene-7,8,9,11,12,14,15,16-octahydrocyclopenta[a]phenanthrene-3,17-dione
Formula: C20H24O2
Exact mass: 296.1776
SMILES: CC12CCC3C(C1CCC2=O)CC(=C)C4=CC(=O)C=CC34C
InChI: InChI=1S/C20H24O2/c1-12-10-14-15-4-5-18(22)20(15,3)9-7-16(14)19(2)8-6-13(21)11-17(12)19/h6,8,11,14-16H,1,4-5,7,9-10H2,2-3H3/t14-,15-,16-,19+,20-/m0/s1
Instrument: LTQ Orbitrap XL Thermo Scientific
Instrument type: LC-ESI-ITFT
Ms type: MS2
Ion mode: POSITIVE
Ionization: ESI
Fragmentation mode: HCD
Collision energy: 30 % (nominal)
Resolution: 7500
Column name: XBridge C18 3.5um, 2.1x50mm, Waters
Retention time: 10.1 min
Base peak: 297.1859
Precursor m/z: 297.1849
Precursor type: [M+H]+
m/z	relative intensity	assigned
67.0544	6	C5H7+
79.0543	55	C6H7+
81.07	14	C6H9+
91.0538	19	C7H7+
93.0699	188	C7H9+
95.0851	8	C7H11+
97.0647	29	C6H9O+
105.0699	79	C8H9+
107.0855	45	C8H11+
119.0852	14	C9H11+
121.0649	131	C8H9O+
121.1012	323	C9H13+
129.0705	8	C10H9+
131.0855	76	C10H11+
133.0646	10	C9H9O+
133.1008	28	C10H13+
135.0805	127	C9H11O+
135.1173	17	C10H15+
137.0959	9	C9H13O+
145.1011	139	C11H13+
147.0804	87	C10H11O+
147.117	43	C11H15+
149.0961	603	C10H13O+
159.0805	25	C11H11O+
161.0959	42	C11H13O+
163.1117	66	C11H15O+
171.0807	10	C12H11O+
171.1166	70	C13H15+
173.0959	35	C12H13O+
175.0746	13	C11H11O2+
177.1269	12	C12H17O+
185.096	82	C13H13O+
187.1112	34	C13H15O+
189.1276	70	C13H17O+
199.1116	20	C14H15O+
201.1279	30	C14H17O+
209.0961	9	C15H13O+
237.1269	34	C17H17O+
239.1431	69	C17H19O+
253.1583	62	C18H21O+
255.1743	19	C18H23O+
279.1743	448	C20H23O+
297.1848	999	C20H25O2+
