Mass spectrum: Forchlorfenuron; LC-ESI-QFT; MS2; CE: 15; R=35000; [M+H]+
Name: Forchlorfenuron
Name: N-(2-chloro-4-pyridyl)-N`-phenylurea
Name: 1-(2-chloropyridin-4-yl)-3-phenylurea
Formula: C12H10ClN3O
Exact mass: 247.05124
SMILES: C1=CC=C(C=C1)NC(=O)NC2=CC(=NC=C2)Cl
InChI: InChI=1S/C12H10ClN3O/c13-11-8-10(6-7-14-11)16-12(17)15-9-4-2-1-3-5-9/h1-8H,(H2,14,15,16,17)
Instrument: Q Exactive Plus Orbitrap Thermo Scientific
Instrument type: LC-ESI-QFT
Ms type: MS2
Ion mode: POSITIVE
Ionization: ESI
Fragmentation mode: HCD
Collision energy: 15 (nominal)
Resolution: 35000
Column name: XBridge C18 3.5um, 2.1x50mm, Waters
Retention time: 8.8 min
Base peak: 248.0579
Precursor m/z: 248.0585
Precursor type: [M+H]+
m/z	relative intensity	assigned
77.0386	1	C6H5+
93.0446	1	C5H5N2+
94.0651	18	C6H8N+
129.0213	752	C5H6ClN2+
130.0054	8	C5H5ClNO+
155.0006	183	C6H4ClN2O+
248.0584	999	C12H11ClN3O+
