Mass spectrum: Phenylbutazone; LC-ESI-QFT; MS2; CE: 180; R=35000; [M+H]+
Name: Phenylbutazone
Name: 4-butyl-1,2-diphenylpyrazolidine-3,5-dione
Formula: C19H20N2O2
Exact mass: 308.15248
SMILES: CCCCC1C(=O)N(N(C1=O)C2=CC=CC=C2)C3=CC=CC=C3
InChI: InChI=1S/C19H20N2O2/c1-2-3-14-17-18(22)20(15-10-6-4-7-11-15)21(19(17)23)16-12-8-5-9-13-16/h4-13,17H,2-3,14H2,1H3
Instrument: Q Exactive Plus Orbitrap Thermo Scientific
Instrument type: LC-ESI-QFT
Ms type: MS2
Ion mode: POSITIVE
Ionization: ESI
Fragmentation mode: HCD
Collision energy: 180 (nominal)
Resolution: 35000
Column name: XBridge C18 3.5um, 2.1x50mm, Waters
Retention time: 11.3 min
Base peak: 309.1591
Precursor m/z: 309.1598
Precursor type: [M+H]+
m/z	relative intensity	assigned
50.0152	516	C4H2+
51.023	999	C4H3+
52.0182	11	C3H2N+
52.0308	8	C4H4+
53.0022	77	C3HO+
53.0386	127	C4H5+
53.9975	24	C2NO+
54.0101	1	C3H2O+
54.0339	12	C3H4N+
55.0179	44	C3H3O+
55.0543	5	C4H7+
62.0151	13	C5H2+
63.023	107	C5H3+
64.0307	21	C5H4+
65.0022	44	
65.0386	554	C5H5+
66.0464	85	C5H6+
67.0417	12	C4H5N+
67.0542	8	C5H7+
67.9893	15	C3O2+
68.0131	7	C3H2NO+
68.0495	2	C4H6N+
68.9971	3	C3HO2+
74.0151	15	C6H2+
75.0229	48	C6H3+
76.0182	6	C5H2N+
76.0307	7	C6H4+
77.0386	373	C6H5+
78.0086	6	C3N3+
78.0338	21	C5H4N+
78.0464	33	C6H6+
79.0417	2	C5H5N+
79.0542	14	C6H7+
80.0495	11	C5H6N+
81.0335	13	C5H5O+
89.0386	68	C7H5+
90.0465	12	C7H6+
91.0417	6	C6H5N+
91.0543	112	C7H7+
92.0257	2	C6H4O+
92.0495	34	C6H6N+
93.0574	50	C6H7N+
94.0415	10	C6H6O+
94.0652	7	C6H8N+
95.0492	345	C6H7O+
96.0444	11	C5H6NO+
101.0386	2	C8H5+
102.0338	5	C7H4N+
102.0464	9	C8H6+
103.0543	13	C8H7+
104.0495	31	C7H6N+
105.0448	247	C6H5N2+
106.0289	1	C6H4NO+
113.0385	8	C9H5+
115.0544	26	C9H7+
116.0495	1	C8H6N+
116.0622	1	C9H8+
117.0573	22	C8H7N+
118.0652	19	C8H8N+
119.0491	1	C8H7O+
127.0542	2	C10H7+
128.0494	3	C9H6N+
128.0618	5	C10H8+
129.0446	6	C8H5N2+
130.0399	5	C7H4N3+
130.0654	13	C9H8N+
139.0543	17	C11H7+
140.0496	19	C10H6N+
145.0651	2	C10H9O+
152.062	2	C12H8+
154.0649	2	C11H8N+
155.0605	5	C10H7N2+
164.0494	2	C12H6N+
166.0651	8	C12H8N+
167.0729	2	C12H9N+
169.065	1	C12H9O+
179.0601	1	C12H7N2+
181.0759	5	C12H9N2+
205.0761	1	C14H9N2+
