Mass spectrum: Cymiazole; LC-ESI-QFT; MS2; CE: 180%; R=17500; [M+H]+
Name: Cymiazole
Name: N-(2,4-dimethylphenyl)-3-methyl-1,3-thiazol-2-imine
Formula: C12H14N2S
Exact mass: 218.0878
SMILES: CC1=CC(=C(C=C1)N=C2N(C=CS2)C)C
InChI: InChI=1S/C12H14N2S/c1-9-4-5-11(10(2)8-9)13-12-14(3)6-7-15-12/h4-8H,1-3H3
Instrument: Exploris 240 Orbitrap Thermo Scientific
Instrument type: LC-ESI-QFT
Ms type: MS2
Ion mode: POSITIVE
Ionization: ESI
Fragmentation mode: HCD
Collision energy: 180 % (nominal)
Resolution: 17500
Column name: XBridge C18 3.5um, 2.1x50mm, Waters
Retention time: 4.141 min
Base peak: 219.095
Precursor m/z: 219.095
Precursor type: [M+H]+
m/z	relative intensity	assigned
51.0229	781	C4H3+
53.0386	370	C4H5+
57.9872	184	C2H2S+
58.995	337	C2H3S+
65.0385	358	C5H5+
70.9951	165	C3H3S+
72.0031	81	C3H4S+
77.0386	999	C6H5+
78.0466	142	C6H6+
79.0545	184	C6H7+
80.0496	51	C5H6N+
86.0059	219	C3H4NS+
89.0387	176	C7H5+
90.0467	76	C7H6+
91.0542	552	C7H7+
102.0466	138	C8H6+
103.0542	365	C8H7+
104.0492	83	C7H6N+
105.0447	334	C6H5N2+
115.0545	257	C9H7+
116.05	104	C8H6N+
117.0575	157	C8H7N+
118.0653	106	C8H8N+
129.0576	87	C9H7N+
130.0651	441	C9H8N+
142.0654	93	C10H8N+
143.0729	189	C10H9N+
144.0813	85	C10H10N+
155.0607	95	C10H7N2+
