Mass spectrum: Chloridazone-desphenyl; LC-ESI-ITFT; MS2; CE: 75%; R=15000; [M+H]+
Name: Chloridazone-desphenyl
Name: 3(2H)-Pyridazinone, 5-amino-4-chloro-
Name: 4-amino-5-chloro-1H-pyridazin-6-one
Formula: C4H4ClN3O
Exact mass: 145.0043
SMILES: c1(c(nncc1N)O)Cl
InChI: InChI=1S/C4H4ClN3O/c5-3-2(6)1-7-8-4(3)9/h1H,(H3,6,8,9)
Instrument: LTQ Orbitrap XL Thermo Scientific
Instrument type: LC-ESI-ITFT
Ms type: MS2
Ion mode: POSITIVE
Ionization: ESI
Fragmentation mode: HCD
Collision energy: 75 % (nominal)
Resolution: 15000
Column name: XBridge C18 3.5um, 2.1x50mm, Waters
Retention time: 1.3 min
Base peak: 146.0113
Precursor m/z: 146.0116
Precursor type: [M+H]+
m/z	relative intensity	assigned
54.0338	11	C3H4N+
55.0291	1	C2H3N2+
62.9996	1	C2H4Cl+
63.9949	3	CH3ClN+
66.0213	1	C3H2N2+
67.0291	1	C3H3N2+
70.04	1	C2H4N3+
72.984	9	C3H2Cl+
73.9792	3	C2HClN+
73.9919	1	C3H3Cl+
74.9996	1	C3H4Cl+
75.9711	1	C2HClO+
75.9949	14	C2H3ClN+
82.0288	3	C4H4NO+
83.0366	2	C4H5NO+
83.0479	2	C3H5N3+
87.9949	14	C3H3ClN+
89.0027	6	C3H4ClN+
90.0105	9	C3H5ClN+
91.0058	2	C2H4ClN2+
100.9901	69	C3H2ClN2+
101.9742	4	C3HClNO+
103.0058	3	C3H4ClN2+
110.0349	3	C4H4N3O+
116.9976	170	C4H4ClNO+
119.0008	1	C3H4ClN2O+
128.9851	4	C4H2ClN2O+
146.0116	999	C4H5ClN3O+
