Mass spectrum: Atenolol; LC-ESI-ITFT; MS2; CE: 60%; R=15000; [M+H]+
Name: Atenolol
Name: 2-[4-[2-hydroxy-3-(isopropylamino)propoxy]phenyl]acetamide
Formula: C14H22N2O3
Exact mass: 266.1630
SMILES: CC(C)NCC(O)COc1ccc(cc1)CC(N)=O
InChI: InChI=1S/C14H22N2O3/c1-10(2)16-8-12(17)9-19-13-5-3-11(4-6-13)7-14(15)18/h3-6,10,12,16-17H,7-9H2,1-2H3,(H2,15,18)
Instrument: LTQ Orbitrap XL Thermo Scientific
Instrument type: LC-ESI-ITFT
Ms type: MS2
Ion mode: POSITIVE
Ionization: ESI
Fragmentation mode: HCD
Collision energy: 60 % (nominal)
Resolution: 15000
Column name: XBridge C18 3.5um, 2.1x50mm, Waters
Retention time: 2.0 min
Base peak: 267.171
Precursor m/z: 267.1703
Precursor type: [M+H]+
m/z	relative intensity	assigned
56.0494	169	C3H6N+
58.0651	20	C3H8N+
72.0808	174	C4H10N+
74.06	380	C3H8NO+
84.0807	10	C5H10N+
91.0542	40	C7H7+
93.0698	29	C7H9+
98.0964	154	C6H12N+
100.112	17	C6H14N+
105.0698	20	C8H9+
106.0651	13	C7H8N+
107.0491	62	C7H7O+
116.1069	181	C6H14NO+
117.0698	30	C9H9+
119.0491	56	C8H7O+
121.0647	132	C8H9O+
122.06	21	C7H8NO+
131.0492	10	C9H7O+
133.0647	292	C9H9O+
134.06	29	C8H8NO+
136.0753	10	C8H10NO+
144.0808	4	C10H10N+
145.0648	999	C10H9O+
147.0439	69	C9H7O2+
147.0805	10	C10H11O+
152.0705	30	C8H10NO2+
161.0594	13	C10H9O2+
162.0662	50	C8H8N3O+
162.0913	71	C10H12NO+
163.0753	28	C10H11O2+
164.0705	139	C9H10NO2+
173.0596	71	C11H9O2+
178.0861	201	C10H12NO2+
190.0862	296	C11H12NO2+
204.1377	5	C13H18NO+
208.0967	44	C11H14NO3+
225.1239	24	C11H17N2O3+
267.1699	43	C14H23N2O3+
