Mass spectrum: Cyclophosphamide; LC-ESI-ITFT; MS2; CE: 90%; R=30000; [M+H]+
Name: Cyclophosphamide
Name: N,N-bis(2-chloroethyl)-2-oxidanylidene-1,3,2$l^{5}-oxazaphosphinan-2-amine
Formula: C7H15Cl2N2O2P
Exact mass: 260.0248
SMILES: ClCCN(CCCl)P1(=O)NCCCO1
InChI: InChI=1S/C7H15Cl2N2O2P/c8-2-5-11(6-3-9)14(12)10-4-1-7-13-14/h1-7H2,(H,10,12)
Instrument: LTQ Orbitrap XL Thermo Scientific
Instrument type: LC-ESI-ITFT
Ms type: MS2
Ion mode: POSITIVE
Ionization: ESI
Fragmentation mode: HCD
Collision energy: 90 % (nominal)
Resolution: 30000
Column name: XBridge C18 3.5um, 2.1x50mm, Waters
Retention time: 6.3 min
Base peak: 261.0328
Precursor m/z: 261.0321
Precursor type: [M+H]+
m/z	relative intensity	assigned
54.0337	7	C3H4N+
56.0494	257	C3H6N+
57.0573	11	C3H7N+
58.0651	116	C3H8N+
62.9996	671	C2H4Cl+
64.9787	27	H2O2P+
66.9944	6	H4O2P+
68.0495	13	C4H6N+
70.0651	48	C4H8N+
78.0105	134	C2H5ClN+
79.9896	22	H3NO2P+
87.9948	7	C3H3ClN+
91.9896	107	CH3NO2P+
94.0052	53	C5H2O2+
98.0002	9	CH5ClNO2+
102.0103	71	C3H5NOP+
104.0261	107	C4H7ClN+
106.0052	48	C2H5NO2P+
106.0417	167	C3H9NOP+
110.0001	41	C2H5ClNO2+
112.0158	79	C2H7ClNO2+
113.9872	14	C2H6Cl2N+
120.0209	208	C3H7NO2P+
123.9712	21	C6HClO+
124.0157	29	C3H7ClNO2+
127.9664	8	C2H4Cl2NO+
138.0313	58	C4H9ClNO2+
140.0028	999	C4H8Cl2N+
141.9819	98	C2H6ClNO2P+
142.0184	214	C3H10ClNOP+
