Mass spectrum: Nortriptyline; LC-ESI-QFT; MS2; CE: 75; R=35000; [M+H]+
Name: Nortriptyline
Name: 3-(5,6-dihydrodibenzo[2,1-b:2`,1`-f][7]annulen-11-ylidene)-N-methylpropan-1-amine
Formula: C19H21N
Exact mass: 263.16740
SMILES: CNCCC=C1C2=CC=CC=C2CCC3=CC=CC=C31
InChI: InChI=1S/C19H21N/c1-20-14-6-11-19-17-9-4-2-7-15(17)12-13-16-8-3-5-10-18(16)19/h2-5,7-11,20H,6,12-14H2,1H3
Instrument: Q Exactive Plus Orbitrap Thermo Scientific
Instrument type: LC-ESI-QFT
Ms type: MS2
Ion mode: POSITIVE
Ionization: ESI
Fragmentation mode: HCD
Collision energy: 75 (nominal)
Resolution: 35000
Column name: XBridge C18 3.5um, 2.1x50mm, Waters
Retention time: 8.5 min
Base peak: 264.1741
Precursor m/z: 264.1747
Precursor type: [M+H]+
m/z	relative intensity	assigned
50.0149	1	C4H2+
53.0386	6	C4H5+
54.0338	2	C3H4N+
55.0542	5	C4H7+
56.0495	4	C3H6N+
58.0651	1	C3H8N+
63.0227	1	C5H3+
65.0385	34	C5H5+
67.0542	1	C5H7+
70.0651	147	C4H8N+
71.0729	2	C4H9N+
77.0385	19	C6H5+
79.0542	96	C6H7+
82.0652	1	C5H8N+
91.0542	999	C7H7+
95.0491	22	C6H7O+
103.0542	98	C8H7+
105.0699	539	C8H9+
115.0542	239	C9H7+
116.0622	5	C9H8+
117.0699	490	C9H9+
127.0542	5	C10H7+
128.062	51	C10H8+
129.0699	164	C10H9+
131.0855	3	C10H11+
141.0699	66	C11H9+
142.0777	9	C11H10+
144.0806	3	C10H10N+
145.0648	10	C10H9O+
152.0619	5	C12H8+
153.0699	63	C12H9+
154.0777	28	C12H10+
155.0604	31	C10H7N2+
155.0855	105	C12H11+
158.0964	4	C11H12N+
165.0699	38	C13H9+
167.0856	5	C13H11+
172.1122	2	C12H14N+
176.0616	1	C14H8+
177.0701	3	C14H9+
178.0777	246	C14H10+
179.0855	111	C14H11+
189.0698	37	C15H9+
190.0777	124	C15H10+
191.0855	422	C15H11+
192.0933	60	C15H12+
193.1012	18	C15H13+
202.0776	62	C16H10+
203.0855	391	C16H11+
204.0934	167	C16H12+
205.1013	101	C16H13+
215.0856	21	C17H11+
216.0934	20	C17H12+
217.1013	180	C17H13+
218.1091	134	C17H14+
231.1168	6	C18H15+
233.1322	3	C18H17+
