Mass spectrum: Spirotetramat BYI08330-ketohydroxy; LC-ESI-QFT; MS2; CE: 60%; R=17500; [M+H]+
Name: Spirotetramat BYI08330-ketohydroxy
Name: 3-(2,5-Dimethylphenyl)-3-hydroxy-8-methoxy-1-azaspiro(4.5)decane-2,4-dione
Name: 3-(2,5-dimethylphenyl)-3-hydroxy-8-methoxy-1-azaspiro[4.5]decane-2,4-dione
Formula: C18H23NO4
Exact mass: 317.1627
SMILES: CC1=CC(=C(C=C1)C)C2(C(=O)C3(CCC(CC3)OC)NC2=O)O
InChI: InChI=1S/C18H23NO4/c1-11-4-5-12(2)14(10-11)18(22)15(20)17(19-16(18)21)8-6-13(23-3)7-9-17/h4-5,10,13,22H,6-9H2,1-3H3,(H,19,21)
Instrument: Exploris 240 Orbitrap Thermo Scientific
Instrument type: LC-ESI-QFT
Ms type: MS2
Ion mode: POSITIVE
Ionization: ESI
Fragmentation mode: HCD
Collision energy: 60 % (nominal)
Resolution: 17500
Column name: XBridge C18 3.5um, 2.1x50mm, Waters
Retention time: 7.435 min
Base peak: 318.1698
Precursor m/z: 318.17
Precursor type: [M+H]+
m/z	relative intensity	assigned
67.0541	29	C5H7+
79.0545	17	C6H7+
81.0697	14	C6H9+
91.054	9	C7H7+
94.065	20	C6H8N+
96.0808	29	C6H10N+
107.0494	11	C7H7O+
115.0545	16	C9H7+
117.0699	252	C9H9+
122.0599	59	C7H8NO+
129.0698	21	C10H9+
131.0854	20	C10H11+
133.0647	19	C9H9O+
140.0705	16	C7H10NO2+
143.0857	75	C11H11+
145.0645	69	C10H9O+
155.0853	52	C12H11+
159.0802	21	C11H11O+
160.0752	8	C10H10NO+
165.0702	11	C13H9+
169.1011	14	C13H13+
171.0805	141	C12H11O+
173.0599	65	C11H9O2+
186.0913	31	C12H12NO+
195.1161	39	C15H15+
212.143	31	C15H18N+
214.0863	999	C13H12NO2+
222.1274	22	C16H16N+
223.112	16	C16H15O+
226.0863	32	C14H12NO2+
235.0992	30	C16H13NO+
240.1383	32	C16H18NO+
250.1226	32	C17H16NO+
268.1333	180	C17H18NO2+
300.1599	14	C18H22NO3+
