Mass spectrum: Sulfentrazon; LC-ESI-QFT; MS2; CE: 90; R=35000; [M+H]+
Name: Sulfentrazon
Name: N-(2,4-dichloro-5-(4-(difluoromethyl)-4,5-dihydro-3-methyl-5-oxo-1H-1,2,4-triazol-1-yl)phenyl)methanesulfonamide
Name: N-[2,4-dichloro-5-[4-(difluoromethyl)-3-methyl-5-oxo-1,2,4-triazol-1-yl]phenyl]methanesulfonamide
Formula: C11H10Cl2F2N4O3S
Exact mass: 385.98187
SMILES: O=S(=O)(Nc2c(Cl)cc(Cl)c(N1/N=C(\N(C1=O)C(F)F)C)c2)C
InChI: InChI=1S/C11H10Cl2F2N4O3S/c1-5-16-19(11(20)18(5)10(14)15)9-4-8(17-23(2,21)22)6(12)3-7(9)13/h3-4,10,17H,1-2H3
Instrument: Q Exactive Plus Orbitrap Thermo Scientific
Instrument type: LC-ESI-QFT
Ms type: MS2
Ion mode: POSITIVE
Ionization: ESI
Fragmentation mode: HCD
Collision energy: 90 (nominal)
Resolution: 35000
Column name: XBridge C18 3.5um, 2.1x50mm, Waters
Retention time: 7.4 min
Base peak: 386.989
Precursor m/z: 386.9891
Precursor type: [M+H]+
m/z	relative intensity	assigned
52.018	5	C3H2N+
53.0022	1	C3HO+
56.0369	2	C2H4N2+
58.0087	2	C2HFN+
58.0162	1	CH2N2O+
60.9839	1	C2H2Cl+
61.9792	134	CHClN+
62.9632	4	CClO+
64.0182	7	C4H2N+
66.0338	1	C4H4N+
66.9745	2	CHClF+
67.0178	1	C4H3O+
67.029	8	C3H3N2+
68.0131	15	C3H2NO+
72.9839	48	C3H2Cl+
73.0195	2	C2H2FN2+
74.0036	40	C2HFNO+
75.0102	38	FN4+
76.0181	72	C5H2N+
77.0133	2	C4HN2+
77.0259	1	FH2N4+
78.0338	3	C5H4N+
78.9848	2	CH3O2S+
80.0131	1	C4H2NO+
82.0287	4	C4H4NO+
82.9449	30	CHCl2+
83.9761	3	C4HCl+
84.9839	92	C4H2Cl+
85.9792	17	C3HClN+
86.9632	8	C3ClO+
86.987	2	C3H2ClN+
87.9949	6	C3H3ClN+
89.0385	1	C7H5+
90.0105	5	C3H5ClN+
90.0338	1	C6H4N+
91.0291	4	C5H3N2+
92.0131	25	C5H2NO+
92.0306	42	C3H4F2N+
92.0368	2	C5H4N2+
96.9841	1	C5H2Cl+
97.9792	43	C4HClN+
99.0427	20	C3H5N3O+
99.9948	38	C4H3ClN+
100.0054	7	C6N2+
101.0134	162	C6HN2+
101.9742	2	C3HClNO+
102.0105	3	C4H5ClN+
103.029	55	C6H3N2+
105.0447	6	C6H5N2+
106.945	15	C3HCl2+
108.9712	2	C5ClN+
109.9792	999	C5HClN+
110.987	8	C5H2ClN+
111.9948	165	C5H3ClN+
112.9901	8	C4H2ClN2+
113.9741	4	C4HClNO+
114.982	2	C4H2ClNO+
115.9898	3	C4H3ClNO+
117.0081	3	C6HN2O+
117.0447	2	C7H5N2+
117.0573	8	C8H7N+
118.0398	3	C6H4N3+
118.945	19	C4HCl2+
119.0239	17	C6H3N2O+
120.9606	2	C4H3Cl2+
121.0396	16	C6H5N2O+
123.9948	8	C6H3ClN+
124.9901	3	C5H2ClN2+
125.0151	1	C2H5ClFN3+
125.998	4	C5H3ClN2+
126.0104	2	CH4ClFN4+
126.9819	1	C5H2ClNO+
127.0057	8	C5H4ClN2+
127.9897	165	C5H3ClNO+
128.9976	2	C5H4ClNO+
130.0054	45	C5H5ClNO+
130.9451	5	C5HCl2+
132.9481	2	C4HCl2N+
132.9606	4	C5H3Cl2+
133.9558	7	C4H2Cl2N+
135.9715	1	C4H4Cl2N+
136.9901	204	C6H2ClN2+
137.9978	15	C6H3ClN2+
139.0057	507	C6H4ClN2+
140.0134	6	C6H5ClN2+
142.0054	2	C6H5ClNO+
143.0476	1	C8H5N3+
143.9401	3	C5Cl2N+
144.0211	2	C6H7ClNO+
144.0555	3	C8H6N3+
145.0637	1	C8H7N3+
145.9558	373	C5H2Cl2N+
146.0003	42	C5H5ClNO2+
146.9637	26	C5H3Cl2N+
147.9715	49	C5H4Cl2N+
149.9508	2	C4H2Cl2NO+
151.0183	6	C8H6ClN+
152.0135	2	C7H5ClN2+
152.0262	6	C8H7ClN+
152.9849	7	C6H2ClN2O+
153.0088	12	C6H4ClN3+
153.0213	4	C7H6ClN2+
153.9928	12	C6H3ClN2O+
154.0166	125	C6H5ClN3+
155.0006	143	C6H4ClN2O+
156.9623	1	C5H2ClN2S+
156.9962	2	C6H3ClFN2+
157.9558	139	C6H2Cl2N+
158.951	2	C5HCl2N2+
158.9636	4	CH2Cl2FN4+
159.0665	2	C8H7N4+
160.9793	2	C6H5Cl2N+
161.9505	4	Cl2FHN4O+
162.9586	2	C5H3Cl2NO+
163.9664	321	C5H4Cl2NO+
164.9849	10	C7H2ClN2O+
169.0164	2	C7H6ClN2O+
170.951	26	C6HCl2N2+
171.9588	6	C6H2Cl2N2+
172.9668	77	C6H3Cl2N2+
173.9508	35	C6H2Cl2NO+
173.9745	13	C6H4Cl2N2+
174.9822	1	C6H5Cl2N2+
175.9664	5	C6H4Cl2NO+
176.0254	2	C8H3FN3O+
178.0166	5	C8H5ClN3+
178.9535	5	C5H3Cl2NO2+
179.9958	2	C7H3ClN3O+
180.0322	12	C8H7ClN3+
181.0037	20	C7H4ClN3O+
181.0401	16	C8H8ClN3+
182.0115	493	C7H5ClN3O+
184.0073	4	C7H4ClFN3+
184.9913	8	C7H3ClFN2O+
186.9824	6	C7H5Cl2N2+
187.0617	5	C9H7N4O+
188.0692	4	C9H8N4O+
188.9616	11	C6H3Cl2N2O+
190.9572	1	C6H2Cl2FN2+
198.946	27	C7HCl2N2O+
200.9614	1	C10ClNO2+
201.9694	3	C7H4Cl2N2O+
209.0224	3	C8H6ClN4O+
212.0022	6	C8H4ClFN3O+
213.0098	2	C8H5ClFN3O+
213.9932	2	C6F2N4O3+
218.9521	8	C7H2Cl2FN2O+
221.0223	3	C9H6ClN4O+
222.0305	4	C9H7ClN4O+
223.0381	15	C9H8ClN4O+
232.0084	23	C8H5ClF2N3O+
273.035	1	C10H8ClF2N4O+
