Mass spectrum: Neotame; LC-ESI-ITFT; MS2; CE: 30%; R=7500; [M+H]+
Name: Neotame
Name: (3S)-3-(3,3-dimethylbutylamino)-4-[[(2S)-1-methoxy-1-oxidanylidene-3-phenyl-propan-2-yl]amino]-4-oxidanylidene-butanoic acid
Formula: C20H30N2O5
Exact mass: 378.2155
SMILES: CC(C)(C)CCN[C@@H](CC(=O)O)C(=O)N[C@@H](CC1=CC=CC=C1)C(=O)OC
InChI: InChI=1S/C20H30N2O5/c1-20(2,3)10-11-21-15(13-17(23)24)18(25)22-16(19(26)27-4)12-14-8-6-5-7-9-14/h5-9,15-16,21H,10-13H2,1-4H3,(H,22,25)(H,23,24)/t15-,16-/m0/s1
Instrument: LTQ Orbitrap XL Thermo Scientific
Instrument type: LC-ESI-ITFT
Ms type: MS2
Ion mode: POSITIVE
Ionization: ESI
Fragmentation mode: HCD
Collision energy: 30 % (nominal)
Resolution: 7500
Column name: XBridge C18 3.5um, 2.1x50mm, Waters
Retention time: 9.0 min
Base peak: 379.2243
Precursor m/z: 379.2227
Precursor type: [M+H]+
m/z	relative intensity	assigned
85.1015	3	C6H13+
102.1279	2	C6H16N+
120.0808	55	C8H10N+
121.0644	4	C8H9O+
128.1435	36	C8H18N+
154.1229	7	C9H16NO+
163.0761	5	C10H11O2+
172.1334	999	C9H18NO2+
180.102	147	C10H14NO2+
200.0701	3	C12H10NO2+
228.0653	2	C13H10NO3+
259.1806	39	C16H23N2O+
319.2017	313	C18H27N2O3+
333.2186	4	C19H29N2O3+
361.2121	11	C20H29N2O4+
379.223	291	C20H31N2O5+
