Mass spectrum: Oxacillin; LC-ESI-QFT; MS2; CE: 45; R=35000; [M+H]+
Name: Oxacillin
Name: (2S,5R,6R)-3,3-dimethyl-6-[(5-methyl-3-phenyl-1,2-oxazole-4-carbonyl)amino]-7-oxo-4-thia-1-azabicyclo[3.2.0]heptane-2-carboxylic acid
Formula: C19H19N3O5S
Exact mass: 401.10454
SMILES: CC1=C(C(=O)N[C@H]2[C@H]3SC(C)(C)[C@@H](N3C2=O)C(O)=O)C(=NO1)C1=CC=CC=C1
InChI: InChI=1S/C19H19N3O5S/c1-9-11(12(21-27-9)10-7-5-4-6-8-10)15(23)20-13-16(24)22-14(18(25)26)19(2,3)28-17(13)22/h4-8,13-14,17H,1-3H3,(H,20,23)(H,25,26)/t13-,14+,17-/m1/s1
Instrument: Q Exactive Plus Orbitrap Thermo Scientific
Instrument type: LC-ESI-QFT
Ms type: MS2
Ion mode: POSITIVE
Ionization: ESI
Fragmentation mode: HCD
Collision energy: 45 (nominal)
Resolution: 35000
Column name: XBridge C18 3.5um, 2.1x50mm, Waters
Retention time: 8.5 min
Base peak: 402.1116
Precursor m/z: 402.1118
Precursor type: [M+H]+
m/z	relative intensity	assigned
51.0229	2	C4H3+
53.0385	5	C4H5+
56.0494	2	C3H6N+
58.9949	2	C2H3S+
69.0447	5	C3H5N2+
70.0651	7	C4H8N+
72.0444	14	C3H6NO+
77.0382	16	C6H5+
81.0447	1	C4H5N2+
87.0263	43	C4H7S+
95.0493	6	C6H7O+
96.0444	1	C5H6NO+
98.0601	6	C5H8NO+
99.0441	1	C5H7O2+
100.0215	2	C4H6NS+
100.0393	27	C4H6NO2+
102.0371	1	C4H8NS+
103.0542	10	C8H7+
104.0495	3	C7H6N+
105.0336	1	C7H5O+
105.0447	6	C6H5N2+
109.0397	1	C5H5N2O+
114.0372	999	C5H8NS+
115.021	2	C5H7OS+
116.0494	12	C8H6N+
118.0651	23	C8H8N+
126.0372	2	C6H8NS+
126.0548	5	C6H8NO2+
128.0494	109	C9H6N+
130.0652	348	C9H8N+
142.0322	46	C6H8NOS+
142.0651	15	C10H8N+
144.0444	847	C9H6NO+
146.0599	36	C9H8NO+
154.0653	1	C11H8N+
155.0607	1	C10H7N2+
156.0683	2	C10H8N2+
157.0761	30	C10H9N2+
160.0427	942	C6H10NO2S+
169.0765	1	C11H9N2+
170.06	16	C11H8NO+
171.0919	4	C11H11N2+
172.0757	410	C11H10NO+
173.0711	2	C10H9N2O+
181.0761	2	C12H9N2+
184.0871	6	C11H10N3+
186.055	26	C11H8NO2+
187.0861	4	C11H11N2O+
188.0706	160	C11H10NO2+
197.071	21	C12H9N2O+
198.0552	4	C12H8NO2+
199.0866	44	C12H11N2O+
201.0659	22	C11H9N2O2+
215.0814	1	C12H11N2O2+
225.0662	5	C13H9N2O2+
226.0976	11	C13H12N3O+
228.0766	2	C12H10N3O2+
243.0765	80	C13H11N2O3+
