Mass spectrum: Iopamidol; LC-ESI-ITFT; MS2; CE: 30%; R=7500; [M+H]+
Name: Iopamidol
Name: 1,3-Benzenedicarboxamide, N,N'-bis(2-hydroxy-1-(hydroxymethyl)ethyl)-5-((2-hydroxy-1-oxopropyl)amino)-2,4,6-triiodo-
Name: 1-N,3-N-bis(1,3-dihydroxypropan-2-yl)-5-(2-hydroxypropanoylamino)-2,4,6-triiodobenzene-1,3-dicarboxamide
Formula: C17H22I3N3O8
Exact mass: 776.8541
SMILES: CC(O)C(=O)NC1=C(I)C(C(=O)NC(CO)CO)=C(I)C(C(=O)NC(CO)CO)=C1I
InChI: InChI=1S/C17H22I3N3O8/c1-6(28)15(29)23-14-12(19)9(16(30)21-7(2-24)3-25)11(18)10(13(14)20)17(31)22-8(4-26)5-27/h6-8,24-28H,2-5H2,1H3,(H,21,30)(H,22,31)(H,23,29)
Instrument: LTQ Orbitrap XL Thermo Scientific
Instrument type: LC-ESI-ITFT
Ms type: MS2
Ion mode: POSITIVE
Ionization: ESI
Fragmentation mode: HCD
Collision energy: 30 % (nominal)
Resolution: 7500
Column name: XBridge C18 3.5um, 2.1x50mm, Waters
Retention time: 1.2 min
Base peak: 132.9578
Precursor m/z: 777.8614
Precursor type: [M+H]+
m/z	relative intensity	assigned
74.06	96	C3H8NO+
277.0812	45	C13H13N2O5+
293.9456	41	C4H9INO6+
313.9299	30	C10H5INO3+
331.9418	61	C10H7INO4+
332.9735	17	C10H10IN2O3+
386.9829	999	C13H12IN2O4+
404.9939	98	C13H14IN2O5+
413.9704	166	C14H11IN2O5+
430.9737	124	C14H12IN2O6+
441.8081	26	C9H2I2NO4+
485.8332	40	C11H6I2NO5+
496.8486	89	C12H7I2N2O4+
514.8555	55	C9H11I2NO8+
531.9009	67	C13H14I2N2O5+
540.8739	35	C14H11I2N2O5+
541.8833	325	C14H12I2N2O5+
558.885	338	C13H22I3+
