Mass spectrum: Nordeprenyl; LC-ESI-QFT; MS2; CE: 180; R=35000; [M+H]+
Name: Nordeprenyl
Name: Desmethylselegiline
Name: 1-phenyl-N-prop-2-ynylpropan-2-amine
Formula: C12H15N
Exact mass: 173.12045
SMILES: CC(Cc1ccccc1)NCC#C
InChI: InChI=1S/C12H15N/c1-3-9-13-11(2)10-12-7-5-4-6-8-12/h1,4-8,11,13H,9-10H2,2H3
Instrument: Q Exactive Plus Orbitrap Thermo Scientific
Instrument type: LC-ESI-QFT
Ms type: MS2
Ion mode: POSITIVE
Ionization: ESI
Fragmentation mode: HCD
Collision energy: 180 (nominal)
Resolution: 35000
Column name: XBridge C18 3.5um, 2.1x50mm, Waters
Retention time: 4.2 min
Base peak: 174.1275
Precursor m/z: 174.1277
Precursor type: [M+H]+
m/z	relative intensity	assigned
50.0151	25	C4H2+
51.0229	52	C4H3+
53.0022	35	C3HO+
53.0386	6	C4H5+
53.9974	6	C2NO+
61.0073	4	C5H+
62.0151	21	C5H2+
63.0229	106	C5H3+
65.0386	999	C5H5+
77.0385	11	C6H5+
78.0086	1	C3N3+
78.0464	12	C6H6+
89.0385	6	C7H5+
91.0542	468	C7H7+
95.0491	14	C6H7O+
103.0542	6	C8H7+
105.0447	7	C6H5N2+
115.0542	2	C9H7+
