Mass spectrum: Isoxaben; LC-ESI-QFT; MS2; CE: 90; R=35000; [M+H]+
Name: Isoxaben
Name: 2,6-dimethoxy-N-[3-(3-methylpentan-3-yl)-1,2-oxazol-5-yl]benzamide
Formula: C18H24N2O4
Exact mass: 332.17361
SMILES: CCC(C)(CC)C1=NOC(=C1)NC(=O)C2=C(C=CC=C2OC)OC
InChI: InChI=1S/C18H24N2O4/c1-6-18(3,7-2)14-11-15(24-20-14)19-17(21)16-12(22-4)9-8-10-13(16)23-5/h8-11H,6-7H2,1-5H3,(H,19,21)
Instrument: Q Exactive Plus Orbitrap Thermo Scientific
Instrument type: LC-ESI-QFT
Ms type: MS2
Ion mode: POSITIVE
Ionization: ESI
Fragmentation mode: HCD
Collision energy: 90 (nominal)
Resolution: 35000
Column name: XBridge C18 3.5um, 2.1x50mm, Waters
Retention time: 10.5 min
Base peak: 333.1799
Precursor m/z: 333.1809
Precursor type: [M+H]+
m/z	relative intensity	assigned
50.0149	5	C4H2+
51.0227	8	C4H3+
53.002	5	C3HO+
53.0386	29	C4H5+
55.0178	12	C3H3O+
63.0228	4	C5H3+
64.0306	3	C5H4+
65.0385	7	C5H5+
66.0464	12	C5H6+
67.0542	2	C5H7+
68.9971	2	C3HO2+
75.0228	43	C6H3+
77.0385	89	C6H5+
78.0463	2	C6H6+
79.0178	17	C5H3O+
79.0542	69	C6H7+
81.0335	8	C5H5O+
81.0698	6	C6H9+
82.0412	2	C5H6O+
91.0542	3	C7H7+
92.0256	89	C6H4O+
93.0334	2	C6H5O+
94.0413	22	C6H6O+
95.0491	97	C6H7O+
103.0178	2	C7H3O+
105.0335	19	C7H5O+
105.0447	58	C6H5N2+
107.0127	953	C6H3O2+
109.0647	25	C7H9O+
119.0127	3	C7H3O2+
120.0206	33	C7H4O2+
121.0284	14	C7H5O2+
122.0362	999	C7H6O2+
125.0233	12	C6H5O3+
125.0597	15	C7H9O2+
135.044	49	C8H7O2+
135.055	8	C7H7N2O+
137.0595	3	C8H9O2+
138.0313	1	C7H6O3+
139.0389	2	C7H7O3+
150.0311	629	C8H6O3+
165.0546	277	C9H9O3+
168.0417	145	C8H8O4+
182.0573	6	C9H10O4+
