Mass spectrum: Propachlor; LC-ESI-ITFT; MS2; CE: 90%; R=7500; [M+H]+
Name: Propachlor
Name: 2-chloranyl-N-phenyl-N-propan-2-yl-ethanamide
Formula: C11H14ClNO
Exact mass: 211.0758
SMILES: CC(C)N(C(=O)CCl)c1ccccc1
InChI: InChI=1S/C11H14ClNO/c1-9(2)13(11(14)8-12)10-6-4-3-5-7-10/h3-7,9H,8H2,1-2H3
Instrument: LTQ Orbitrap XL Thermo Scientific
Instrument type: LC-ESI-ITFT
Ms type: MS2
Ion mode: POSITIVE
Ionization: ESI
Fragmentation mode: HCD
Collision energy: 90 % (nominal)
Resolution: 7500
Column name: XBridge C18 3.5um, 2.1x50mm, Waters
Retention time: 8.6 min
Base peak: 212.0841
Precursor m/z: 212.0837
Precursor type: [M+H]+
m/z	relative intensity	assigned
53.0386	8	C4H5+
75.9948	4	C2H3ClN+
76.9788	34	C2H2ClO+
77.0385	190	C6H5+
79.0542	67	C6H7+
91.0542	34	C7H7+
92.0618	3	C7H8+
93.0573	18	C6H7N+
94.0651	999	C6H8N+
95.0491	100	C6H7O+
105.0447	55	C6H5N2+
106.0651	459	C7H8N+
112.0072	5	C6H5Cl+
117.0575	10	C8H7N+
125.0151	15	C7H6Cl+
134.0601	13	C8H8NO+
152.026	88	C11H4O+
170.037	116	C8H9ClNO+
