Mass spectrum: 2-Naphthoxyacetic acid; LC-ESI-QFT; MS2; CE: 180; R=35000; [M+H]+
Name: 2-Naphthoxyacetic acid
Name: beta-Naphthoxyacetic acid
Name: (2-Naphthyloxy)acetic acid
Formula: C12H10O3
Exact mass: 202.06299
SMILES: C1=CC=C2C=C(C=CC2=C1)OCC(=O)O
InChI: InChI=1S/C12H10O3/c13-12(14)8-15-11-6-5-9-3-1-2-4-10(9)7-11/h1-7H,8H2,(H,13,14)
Instrument: Q Exactive Plus Orbitrap Thermo Scientific
Instrument type: LC-ESI-QFT
Ms type: MS2
Ion mode: POSITIVE
Ionization: ESI
Fragmentation mode: HCD
Collision energy: 180 (nominal)
Resolution: 35000
Column name: XBridge C18 3.5um, 2.1x50mm, Waters
Retention time: 8.5 min
Base peak: 230.1747
Precursor m/z: 203.0703
Precursor type: [M+H]+
m/z	relative intensity	assigned
50.0152	368	C4H2+
51.023	442	C4H3+
52.0308	15	C4H4+
53.0022	38	C3HO+
53.0386	243	C4H5+
53.9975	2	C2NO+
55.0179	29	C3H3O+
55.0543	24	C4H7+
57.0699	1	C4H9+
59.0491	3	C3H7O+
61.0073	9	C5H+
62.0151	27	C5H2+
63.023	165	C5H3+
65.0022	18	C4HO+
65.0386	206	C5H5+
66.0464	3	C5H6+
67.0542	22	C5H7+
68.9971	3	C3HO2+
71.0494	1	C4H7O+
74.0151	215	C6H2+
75.0229	999	C6H3+
76.0307	88	C6H4+
77.0385	507	C6H5+
78.0464	170	C6H6+
79.0179	9	C5H3O+
79.0543	9	C6H7+
81.0335	49	C5H5O+
86.0151	47	C7H2+
87.023	72	C7H3+
88.0308	3	C7H4+
89.0386	286	C7H5+
91.0543	103	C7H7+
94.0413	14	C6H6O+
95.0492	952	C6H7O+
97.0077	21	C8H+
98.0152	51	C8H2+
99.023	43	C8H3+
100.0308	30	C8H4+
101.0386	80	C8H5+
102.0464	303	C8H6+
103.0543	20	C8H7+
105.0448	609	C6H5N2+
106.0417	2	C7H6O+
109.0649	2	C7H9O+
111.0232	8	C9H3+
113.0386	8	C9H5+
115.0543	801	C9H7+
116.0582	2	C4H8N2O2+
116.0621	11	C9H8+
117.07	2	C9H9+
119.0493	56	C8H7O+
125.0388	12	C10H5+
126.0465	655	C10H6+
127.0543	160	C10H7+
128.0621	337	C10H8+
129.0447	147	C8H5N2+
141.0699	2	C11H9+
145.0648	63	C10H9O+
153.0447	3	C10H5N2+
155.0604	120	C10H7N2+
