Mass spectrum: Fensulfothion; LC-ESI-QFT; MS2; CE: 45%; R=17500; [M+H]+
Name: Fensulfothion
Name: diethoxy-(4-methylsulfinylphenoxy)-sulfanylidene-lambda5-phosphane
Formula: C11H17O4PS2
Exact mass: 308.0306
SMILES: CCOP(=S)(OCC)OC1=CC=C(C=C1)S(=O)C
InChI: InChI=1S/C11H17O4PS2/c1-4-13-16(17,14-5-2)15-10-6-8-11(9-7-10)18(3)12/h6-9H,4-5H2,1-3H3
Instrument: Exploris 240 Orbitrap Thermo Scientific
Instrument type: LC-ESI-QFT
Ms type: MS2
Ion mode: POSITIVE
Ionization: ESI
Fragmentation mode: HCD
Collision energy: 45 % (nominal)
Resolution: 17500
Column name: XBridge C18 3.5um, 2.1x50mm, Waters
Retention time: 7.188 min
Base peak: 309.0377
Precursor m/z: 309.0379
Precursor type: [M+H]+
m/z	relative intensity	assigned
94.0413	23	C6H6O+
109.0048	18	C2H6O3P+
110.0188	15	C6H6S+
140.0287	68	C7H8OS+
142.0085	18	C6H6O2S+
156.0062	80	C7H8S2+
157.0317	999	C7H9O2S+
157.9854	22	C6H6OS2+
173.0089	797	C7H9OS2+
185.063	19	C9H13O2S+
201.041	25	C9H13OS2+
218.9874	203	C7H8O4PS+
234.9647	811	C7H8O3PS2+
235.9722	61	C7H9O3PS2+
237.9518	110	C6H7O4PS2+
252.9753	650	C7H10O4PS2+
264.0037	26	C9H13O3PS2+
265.9835	19	C8H11O4PS2+
281.0063	150	C9H14O4PS2+
