Mass spectrum: Microcystin-RR; LC-ESI-QFT; MS2; CE: 60; R=35000; [M+H]+
Name: Microcystin-RR
Name: (5R,8R,11R,12S,15S,18S,19S,22R)-8,15-bis[3-(diaminomethylideneamino)propyl]-18-[(1E,3E,5S,6S)-6-methoxy-3,5-dimethyl-7-phenylhepta-1,3-dienyl]-1,5,12,19-tetramethyl-2-methylidene-3,6,9,13,16,20,25-heptaoxo-1,4,7,10,14,17,21-heptazacyclopentacosane-11,22-dicarboxylic acid
Formula: C49H75N13O12
Exact mass: 1037.56581
SMILES: O=C2N[C@@H](\C=C\C(=C\[C@H](C)[C@@H](OC)Cc1ccccc1)C)[C@@H](C(=O)N[C@@H](C(=O)O)CCC(=O)N(/C(=C)C(=O)N[C@@H](C(=O)N[C@@H](C(=O)N[C@@H](C(=O)O)[C@@H](C(=O)N[C@H]2CCC/N=C(\N)N)C)CCC/N=C(\N)N)C)C)C
InChI: InChI=1S/C49H75N13O12/c1-26(24-27(2)37(74-8)25-32-14-10-9-11-15-32)18-19-33-28(3)40(64)60-36(46(70)71)20-21-38(63)62(7)31(6)43(67)56-30(5)42(66)59-35(17-13-23-55-49(52)53)45(69)61-39(47(72)73)29(4)41(65)58-34(44(68)57-33)16-12-22-54-48(50)51/h9-11,14-15,18-19,24,27-30,33-37,39H,6,12-13,16-17,20-23,25H2,1-5,7-8H3,(H,56,67)(H,57,68)(H,58,65)(H,59,66)(H,60,64)(H,61,69)(H,70,71)(H,72,73)(H4,50,51,54)(H4,52,53,55)/b19-18+,26-24+/t27-,28-,29-,30+,33-,34-,35+,36+,37-,39+/m0/s1
Instrument: Q Exactive Orbitrap Thermo Scientific
Instrument type: LC-ESI-QFT
Ms type: MS2
Ion mode: POSITIVE
Ionization: ESI
Fragmentation mode: HCD
Collision energy: 60 (nominal)
Resolution: 35000
Column name: XBridge C18 3.5um, 2.1x50mm, Waters
Retention time: 9.1 min
Base peak: 519.7909
Precursor m/z: 1038.5731
Precursor type: [M+H]+
m/z	relative intensity	assigned
72.0808	13	C4H10N+
74.06	5	C3H8NO+
77.0385	28	C6H5+
79.0543	94	C6H7+
80.0496	18	C5H6N+
81.0337	3	C5H5O+
81.0699	3	C6H9+
82.0289	25	C4H4NO+
82.0653	65	C5H8N+
84.0445	191	C4H6NO+
85.0285	11	C4H5O2+
85.0762	25	C4H9N2+
86.0601	19	C4H8NO+
86.0713	4	C3H8N3+
87.0792	12	C3H9N3+
88.0758	12	C4H10NO+
91.0543	294	C7H7+
93.07	124	C7H9+
94.0652	18	C6H8N+
95.0492	186	C6H7O+
95.0604	65	C5H7N2+
95.0856	12	C7H11+
96.0446	20	C5H6NO+
96.0808	14	C6H10N+
97.0761	109	C5H9N2+
98.0601	93	C5H8NO+
99.019	19	C3H3N2O2+
99.0918	101	C5H11N2+
100.0871	3	C4H10N3+
101.0709	4	C4H9N2O+
102.0465	14	C8H6+
102.055	20	C4H8NO2+
103.0543	763	C8H7+
104.0577	6	C3H8N2O2+
105.0449	29	C6H5N2+
105.07	519	C8H9+
106.0653	3	C7H8N+
106.0733	2	C3H10N2O2+
107.0857	532	C8H11+
108.081	13	C7H10N+
108.0889	4	C3H12N2O2+
109.0649	34	C7H9O+
109.0761	3	C6H9N2+
110.0602	30	C6H8NO+
110.0966	11	C7H12N+
111.092	13	C6H11N2+
112.0394	32	C5H6NO2+
112.087	367	C5H10N3+
113.0234	6	C5H5O3+
113.0711	59	C5H9N2O+
114.0551	14	C5H8NO2+
114.0664	3	C4H8N3O+
114.1027	58	C5H12N3+
115.0543	125	C9H7+
115.0867	205	C5H11N2O+
116.0621	12	C9H8+
116.0707	37	C5H10NO2+
117.07	201	C9H9+
119.0603	4	C7H7N2+
119.0689	3	C3H9N3O2+
119.0856	27	C9H11+
120.0572	28	C8H8O+
120.0809	53	C8H10N+
121.0649	3	C8H9O+
121.0761	25	C7H9N2+
121.1013	5	C9H13+
122.0601	12	C7H8NO+
122.0714	5	C6H8N3+
122.0965	13	C8H12N+
123.0554	5	C6H7N2O+
123.0918	32	C7H11N2+
124.0759	15	C7H10NO+
124.0872	11	C6H10N3+
124.1122	16	C8H14N+
125.0711	36	C6H9N2O+
125.1073	6	C7H13N2+
126.0553	3	C6H8NO2+
126.0663	4	C5H8N3O+
127.0867	999	C6H11N2O+
128.0342	4	C5H6NO3+
128.0622	6	C10H8+
128.0707	15	C6H10NO2+
128.0899	4	CH12N4O3+
129.0702	12	C10H9+
130.0501	35	C5H8NO3+
130.0651	10	C9H8N+
130.0781	2	C10H10+
130.0976	34	C5H12N3O+
131.0857	33	C10H11+
132.0807	4	C9H10N+
133.1013	16	C10H13+
135.0805	674	C9H11O+
135.1169	196	C10H15+
136.0757	15	C8H10NO+
136.0839	5	C4H12N2O3+
137.071	4	C7H9N2O+
137.1074	11	C8H13N2+
138.055	53	C7H8NO2+
138.0662	16	C6H8N3O+
138.0914	4	C8H12NO+
138.1029	2	C7H12N3+
139.0867	50	C7H11N2O+
139.0979	16	C6H11N4+
139.1228	6	C8H15N2+
140.0707	13	C7H10NO2+
140.0818	76	C6H10N3O+
141.0658	110	C6H9N2O2+
141.1023	5	C7H13N2O+
143.0859	10	C11H11+
144.0811	3	C10H10N+
145.1015	24	C11H13+
146.0967	3	C10H12N+
147.0805	5	C10H11O+
149.0711	56	C8H9N2O+
150.1029	21	C8H12N3+
151.0868	24	C8H11N2O+
152.071	20	C8H10NO2+
152.0821	5	C7H10N3O+
152.1185	4	C8H14N3+
153.1025	31	C8H13N2O+
155.0815	109	C7H11N2O2+
155.1182	13	C8H15N2O+
156.1247	3	C6H14N5+
157.1085	65	C6H13N4O+
158.0924	47	C6H12N3O2+
159.1168	6	C12H15+
161.0962	6	C11H13O+
162.1029	20	C9H12N3+
163.0868	20	C9H11N2O+
163.1118	59	C11H15O+
164.0709	22	C9H10NO2+
164.0819	15	C8H10N3O+
164.1184	4	C9H14N3+
165.1022	25	C9H13N2O+
166.086	3	C9H12NO2+
166.0976	12	C8H12N3O+
167.0815	176	C8H11N2O2+
168.0656	31	C8H10NO3+
169.0973	18	C8H13N2O2+
170.0967	5	C12H12N+
171.1125	5	C8H15N2O2+
172.1125	33	C12H14N+
173.0964	4	C12H13O+
174.1352	15	C6H16N5O+
175.1193	41	C6H15N4O2+
177.1023	11	C10H13N2O+
178.0975	22	C9H12N3O+
179.0814	4	C9H11N2O2+
180.1132	17	C9H14N3O+
181.0977	16	C9H13N2O2+
182.1038	21	C7H12N5O+
182.1289	5	C9H16N3O+
183.088	41	C7H11N4O2+
190.0982	7	C10H12N3O+
191.082	13	C10H11N2O2+
192.1131	4	C10H14N3O+
193.0973	18	C10H13N2O2+
194.0926	4	C9H12N3O2+
194.129	3	C10H16N3O+
195.0764	87	C9H11N2O3+
195.1165	5	C15H15+
196.0605	22	C9H10NO4+
196.1082	15	C9H14N3O2+
197.1395	42	C9H17N4O+
199.1071	4	C9H15N2O3+
200.1141	42	C7H14N5O2+
201.0983	32	C7H13N4O3+
205.0974	3	C11H13N2O2+
205.1082	3	C10H13N4O+
206.0926	6	C10H12N3O2+
207.1245	4	C10H15N4O+
208.1082	24	C10H14N3O2+
209.0923	27	C10H13N2O3+
210.1241	4	C10H16N3O2+
211.0713	21	C9H11N2O4+
211.1189	34	C9H15N4O2+
212.1033	7	C9H14N3O3+
213.0871	144	C9H13N2O4+
214.167	4	C9H20N5O+
217.1339	3	C13H17N2O+
218.1544	4	C14H20NO+
220.108	3	C11H14N3O2+
221.0921	10	C11H13N2O3+
222.1239	5	C11H16N3O2+
223.1186	19	C10H15N4O2+
224.1031	10	C10H14N3O3+
225.1345	11	C10H17N4O2+
226.1188	36	C10H16N3O3+
226.1589	11	C16H20N+
227.1029	11	C10H15N2O4+
234.1242	6	C12H16N3O2+
235.1194	4	C11H15N4O2+
239.0665	40	C10H11N2O5+
241.1296	5	C10H17N4O3+
251.1503	4	C12H19N4O2+
252.0975	3	C11H14N3O4+
252.1345	5	C12H18N3O3+
263.1869	4	C14H23N4O+
269.1246	14	C11H17N4O4+
272.1358	5	C10H18N5O4+
278.15	3	C14H20N3O3+
280.2135	3	H28N10O7+
