Mass spectrum: Dicloxacillin; LC-ESI-QFT; MS2; CE: 30; R=35000; [M-H]-
Name: Dicloxacillin
Name: 6-[[3-(2,6-dichlorophenyl)-5-methyl-1,2-oxazole-4-carbonyl]amino]-3,3-dimethyl-7-oxo-4-thia-1-azabicyclo[3.2.0]heptane-2-carboxylic acid
Formula: C19H17Cl2N3O5S
Exact mass: 469.02660
SMILES: CC1=C(C(=NO1)C2=C(C=CC=C2Cl)Cl)C(=O)NC3C4N(C3=O)C(C(S4)(C)C)C(=O)O
InChI: InChI=1S/C19H17Cl2N3O5S/c1-7-10(12(23-29-7)11-8(20)5-4-6-9(11)21)15(25)22-13-16(26)24-14(18(27)28)19(2,3)30-17(13)24/h4-6,13-14,17H,1-3H3,(H,22,25)(H,27,28)
Instrument: Q Exactive Plus Orbitrap Thermo Scientific
Instrument type: LC-ESI-QFT
Ms type: MS2
Ion mode: NEGATIVE
Ionization: ESI
Fragmentation mode: HCD
Collision energy: 30 (nominal)
Resolution: 35000
Column name: XBridge C18 3.5um, 2.1x50mm, Waters
Retention time: 9.5 min
Base peak: 468.0196
Precursor m/z: 468.0193
Precursor type: [M-H]-
m/z	relative intensity	assigned
56.9804	1	C2HS-
57.9757	71	CNS-
58.9961	13	C2H3S-
59.9914	5	CH2NS-
65.9985	6	C3NO-
67.0191	1	C4H3O-
70.9836	9	C2HNS-
71.9915	15	C2H2NS-
74.9911	196	C2H3OS-
82.0299	12	C4H4NO-
83.0139	244	C4H3O2-
85.0117	2	C4H5S-
90.035	7	C6H4N-
99.9863	6	C3H2NOS-
107.0251	7	C5H3N2O-
110.991	2	C5H3OS-
113.0068	17	C5H5OS-
114.0019	7	C4H4NOS-
123.9863	16	C5H2NOS-
126.0019	1	C5H4NOS-
150.0117	20	C8H5ClN-
151.0071	9	C4H7O4S-
151.991	6	C7H3ClNO-
153.9967	1	C6H4NO2S-
156.0128	29	C3H9ClN2OS-
159.9728	53	C6H4Cl2N-
167.9683	7	C7H3ClNS-
168.0457	13	C11H6NO-
175.0068	3	C9H4ClN2-
181.9838	3	C8H5ClNS-
182.0158	52	C7H6N2O2S-
188.9985	6	C10H4ClNO-
189.0227	25	C7H9O4S-
190.0067	56	C10H5ClNO-
191.0019	6	C6H7O5S-
193.984	2	C9H5ClNS-
204.9757	11	C10H4ClNS-
205.9839	15	C10H5ClNS-
206.9793	14	C9H4ClN2S-
211.0342	2	C12H7N2S-
213.0134	11	C8H8ClN3S-
215.0038	2	C2H13Cl2N2O3S-
216.0099	19	C8H8Cl2N3-
217.0173	6	C11H6ClN2O-
219.9993	2	C11H7ClNS-
221.0358	3	C13H5N2O2-
221.9789	5	C7H8Cl2N2S-
225.0308	3	C9H8ClN3O2-
225.9834	5	C10H6Cl2NO-
227.0289	9	C9H10ClN3S-
230.9966	1	C11H4ClN2O2-
232.0049	28	C8H8Cl2N3O-
232.9709	14	C11H4ClNOS-
233.0126	202	C11H6ClN2O2-
235.0104	9	C11H8ClN2S-
247.9819	76	
247.9945	250	C9H10Cl2N2S-
248.9897	150	C8H9Cl2N3S-
254.0161	2	C10H9ClN3OS-
255.0236	85	C10H10ClN3OS-
257.0127	75	C10H9Cl2N3O-
258.0203	220	C13H7ClN2O2-
263.0053	70	C12H8ClN2OS-
275.9768	109	C9H8Cl2N3OS-
289.9937	1	C12H12Cl2O2S-
290.0105	2	C10H10Cl2N3O3-
291.0005	999	C10H11Cl2N3OS-
326.9771	279	C13H9Cl2N2O2S-
388.0533	49	C18H15ClN3O3S-
