Mass spectrum: Penciclovir; LC-ESI-QFT; MS2; CE: 15; R=35000; [M-H]-
Name: Penciclovir
Name: 2-amino-9-[4-hydroxy-3-(hydroxymethyl)butyl]-3H-purin-6-one
Formula: C10H15N5O3
Exact mass: 253.11749
SMILES: C1=NC2=C(N1CCC(CO)CO)N=C(NC2=O)N
InChI: InChI=1S/C10H15N5O3/c11-10-13-8-7(9(18)14-10)12-5-15(8)2-1-6(3-16)4-17/h5-6,16-17H,1-4H2,(H3,11,13,14,18)
Instrument: Q Exactive Orbitrap Thermo Scientific
Instrument type: LC-ESI-QFT
Ms type: MS2
Ion mode: NEGATIVE
Ionization: ESI
Fragmentation mode: HCD
Collision energy: 15 (nominal)
Resolution: 35000
Column name: XBridge C18 3.5um, 2.1x50mm, Waters
Retention time: 1.1 min
Base peak: 252.1103
Precursor m/z: 252.1102
Precursor type: [M-H]-
m/z	relative intensity	assigned
107.0364	1	C4H3N4-
108.0203	1	C4H2N3O-
133.0156	6	C5HN4O-
149.0339	1	C5H3N5O-
150.042	143	C5H4N5O-
232.0843	1	C10H10N5O2-
234.0992	2	C10H12N5O2-
252.1102	999	C10H14N5O3-
