Mass spectrum: Aspartame; LC-ESI-ITFT; MS2; CE: 45%; R=15000; [M+H]+
Name: Aspartame
Name: 3-amino-4-[(1-benzyl-2-keto-2-methoxy-ethyl)amino]-4-keto-butyric acid
Formula: C14H18N2O5
Exact mass: 294.1216
SMILES: COC(=O)C(CC1=CC=CC=C1)NC(=O)C(CC(=O)O)N
InChI: InChI=1S/C14H18N2O5/c1-21-14(20)11(7-9-5-3-2-4-6-9)16-13(19)10(15)8-12(17)18/h2-6,10-11H,7-8,15H2,1H3,(H,16,19)(H,17,18)/t10-,11-/m0/s1
Instrument: LTQ Orbitrap XL Thermo Scientific
Instrument type: LC-ESI-ITFT
Ms type: MS2
Ion mode: POSITIVE
Ionization: ESI
Fragmentation mode: HCD
Collision energy: 45 % (nominal)
Resolution: 15000
Column name: XBridge C18 3.5um, 2.1x50mm, Waters
Retention time: 4.8 min
Base peak: 295.1297
Precursor m/z: 295.1288
Precursor type: [M+H]+
m/z	relative intensity	assigned
70.0288	53	C3H4NO+
88.0393	103	C3H6NO2+
91.0542	81	C7H7+
98.0237	4	C4H4NO2+
99.0079	3	C4H3O3+
103.0542	31	C8H7+
119.0729	5	C8H9N+
120.0808	999	C8H10N+
121.0648	88	C8H9O+
130.0651	76	C9H8N+
131.0491	35	C9H7O+
135.0805	5	C9H11O+
144.0806	8	C10H10N+
147.0916	14	C9H11N2+
157.0648	18	C11H9O+
163.0754	18	C10H11O2+
172.0757	55	C11H10NO+
175.0866	229	C10H11N2O+
180.1019	226	C10H14NO2+
182.06	42	C12H8NO+
189.1024	7	C11H13N2O+
190.0862	36	C11H12NO2+
200.0706	161	C12H10NO2+
217.097	13	C12H13N2O2+
218.0809	10	C12H12NO3+
228.066	3	C13H10NO3+
235.1077	49	C12H15N2O3+
260.091	3	C14H14NO4+
