Mass spectrum: Chlorcyclizine; LC-ESI-QFT; MS2; CE: 180; R=35000; [M+H]+
Name: Chlorcyclizine
Name: 1-[(4-chlorophenyl)-phenylmethyl]-4-methylpiperazine
Formula: C18H21ClN2
Exact mass: 300.13933
SMILES: CN1CCN(CC1)C(C2=CC=CC=C2)C3=CC=C(C=C3)Cl
InChI: InChI=1S/C18H21ClN2/c1-20-11-13-21(14-12-20)18(15-5-3-2-4-6-15)16-7-9-17(19)10-8-16/h2-10,18H,11-14H2,1H3
Instrument: Q Exactive Plus Orbitrap Thermo Scientific
Instrument type: LC-ESI-QFT
Ms type: MS2
Ion mode: POSITIVE
Ionization: ESI
Fragmentation mode: HCD
Collision energy: 180 (nominal)
Resolution: 35000
Column name: XBridge C18 3.5um, 2.1x50mm, Waters
Retention time: 8.2 min
Base peak: 301.1464
Precursor m/z: 301.1466
Precursor type: [M+H]+
m/z	relative intensity	assigned
50.0151	4	C4H2+
51.0229	5	C4H3+
53.0022	7	C3HO+
61.0073	16	C5H+
62.0151	65	C5H2+
63.0229	228	C5H3+
64.0307	1	C5H4+
65.0386	114	C5H5+
72.9839	112	C3H2Cl+
74.0151	24	C6H2+
75.0229	30	C6H3+
76.0307	15	C6H4+
77.0385	4	C6H5+
86.0151	36	C7H2+
87.0229	71	C7H3+
88.0308	28	C7H4+
89.0386	256	C7H5+
90.0465	7	C7H6+
91.0542	56	C7H7+
98.0152	18	C8H2+
98.9996	38	C5H4Cl+
99.0229	11	C8H3+
100.0307	5	C8H4+
101.0387	1	C8H5+
102.0464	14	C8H6+
105.0449	3	C6H5N2+
111.0228	7	C9H3+
113.0386	110	C9H5+
114.0464	24	C9H6+
115.0542	804	C9H7+
122.9994	6	C7H4Cl+
125.0154	3	C7H6Cl+
125.0387	4	C10H5+
126.0464	50	C10H6+
127.0543	4	C10H7+
128.062	1	C10H8+
129.0448	3	C8H5N2+
132.057	11	C6H11ClN+
136.0075	3	C8H5Cl+
137.0386	31	C11H5+
138.0464	30	C11H6+
139.0542	679	C11H7+
140.062	11	C11H8+
145.065	1	C7H12ClN+
149.0154	11	C9H6Cl+
150.0464	22	C12H6+
151.054	1	C12H7+
152.0624	1	C12H8+
155.0604	5	C10H7N2+
161.0386	8	C13H5+
162.0464	40	C13H6+
163.0542	999	C13H7+
164.062	494	C13H8+
165.0699	986	C13H9+
168.057	204	C9H11ClN+
169.0648	4	C9H12ClN+
179.0606	1	C12H7N2+
194.0362	9	C10H9ClNO+
196.0519	82	C10H11ClNO+
