Mass spectrum: 5-Methyl-1H-benzotriazole; LC-ESI-ITFT; MS2; CE: 60%; R=15000; [M+H]+
Name: 5-Methyl-1H-benzotriazole
Formula: C7H7N3
Exact mass: 133.0640
SMILES: c12c(cc(C)cc2)nn[nH]1
InChI: InChI=1S/C7H7N3/c1-5-2-3-6-7(4-5)9-10-8-6/h2-4H,1H3,(H,8,9,10)
Instrument: LTQ Orbitrap XL Thermo Scientific
Instrument type: LC-ESI-ITFT
Ms type: MS2
Ion mode: POSITIVE
Ionization: ESI
Fragmentation mode: HCD
Collision energy: 60 % (nominal)
Resolution: 15000
Column name: XBridge C18 3.5um, 2.1x50mm, Waters
Retention time: 5.8 min
Base peak: 134.0712
Precursor m/z: 134.0713
Precursor type: [M+H]+
m/z	relative intensity	assigned
77.0386	48	C6H5+
78.0337	1	C5H4N+
78.0463	1	C6H6+
79.0543	92	C6H7+
80.0495	2	C5H6N+
89.0385	2	C7H5+
95.0491	2	C6H7O+
105.0447	10	C6H5N2+
106.0652	85	C7H8N+
134.0713	999	C7H8N3+
