Mass spectrum: Oryzalin; LC-ESI-QFT; MS2; CE: 15; R=35000; [M+H]+
Name: Oryzalin
Name: 4-(dipropylamino)-3,5-dinitro-benzenesulfonamide
Formula: C12H18N4O6S
Exact mass: 346.09471
SMILES: [O-][N+](=O)c1cc(cc([N+]([O-])=O)c1N(CCC)CCC)S(=O)(=O)N
InChI: InChI=1S/C12H18N4O6S/c1-3-5-14(6-4-2)12-10(15(17)18)7-9(23(13,21)22)8-11(12)16(19)20/h7-8H,3-6H2,1-2H3,(H2,13,21,22)
Instrument: Q Exactive Orbitrap Thermo Scientific
Instrument type: LC-ESI-QFT
Ms type: MS2
Ion mode: POSITIVE
Ionization: ESI
Fragmentation mode: HCD
Collision energy: 15 (nominal)
Resolution: 35000
Column name: XBridge C18 3.5um, 2.1x50mm, Waters
Retention time: 12.1 min
Base peak: 347.1021
Precursor m/z: 347.102
Precursor type: [M+H]+
m/z	relative intensity	assigned
57.0336	1	C3H5O+
231.0182	8	C6H7N4O4S+
240.0616	1	C9H10N3O5+
241.0514	3	C9H11N3O3S+
241.9866	1	C7H4N3O5S+
243.0183	37	C7H7N4O4S+
245.9818	5	C6H4N3O6S+
247.0131	85	C6H7N4O5S+
256.0385	2	C9H10N3O4S+
259.0132	20	C7H7N4O5S+
263.008	30	C6H7N4O6S+
270.0418	1	C9H10N4O4S+
271.0496	6	C9H11N4O4S+
287.0444	59	C9H11N4O5S+
288.0283	63	C9H10N3O6S+
301.0603	14	C10H13N4O5S+
305.0549	180	C9H13N4O6S+
313.0966	5	C12H17N4O4S+
347.1019	999	C12H19N4O6S+
