Mass spectrum: Pyrimidifen; LC-ESI-QFT; MS2; CE: 150%; R=17500; [M+H]+
Name: Pyrimidifen
Name: 5-chloro-N-[2-[4-(2-ethoxyethyl)-2,3-dimethylphenoxy]ethyl]-6-ethylpyrimidin-4-amine
Formula: C20H28ClN3O2
Exact mass: 377.1870
SMILES: CCC1=C(C(=NC=N1)NCCOC2=C(C(=C(C=C2)CCOCC)C)C)Cl
InChI: InChI=1S/C20H28ClN3O2/c1-5-17-19(21)20(24-13-23-17)22-10-12-26-18-8-7-16(9-11-25-6-2)14(3)15(18)4/h7-8,13H,5-6,9-12H2,1-4H3,(H,22,23,24)
Instrument: Exploris 240 Orbitrap Thermo Scientific
Instrument type: LC-ESI-QFT
Ms type: MS2
Ion mode: POSITIVE
Ionization: ESI
Fragmentation mode: HCD
Collision energy: 150 % (nominal)
Resolution: 17500
Column name: XBridge C18 3.5um, 2.1x50mm, Waters
Retention time: 11.376 min
Base peak: 378.1939
Precursor m/z: 378.1943
Precursor type: [M+H]+
m/z	relative intensity	assigned
51.023	59	C4H3+
52.0182	17	C3H2N+
53.0387	33	C4H5+
54.0338	70	C3H4N+
56.0495	109	C3H6N+
62.9996	7	C2H4Cl+
66.0339	17	C4H4N+
67.0292	18	C3H3N2+
67.0417	27	C4H5N+
68.0495	57	C4H6N+
74.987	48	C2H2ClN+
77.0387	23	C6H5+
78.0341	51	C5H4N+
79.0542	11	C6H7+
80.0368	15	C4H4N2+
80.0495	88	C5H6N+
81.0448	49	C4H5N2+
85.9792	23	C3HClN+
86.9993	40	C4H4Cl+
87.995	14	C3H3ClN+
90.0106	27	C3H5ClN+
91.0541	17	C7H7+
93.045	33	C5H5N2+
94.0402	7	C4H4N3+
94.0652	12	C6H8N+
95.0605	82	C5H7N2+
98.987	16	C4H2ClN+
102.0108	8	C4H5ClN+
105.0447	22	C6H5N2+
106.0526	27	C6H6N2+
107.0478	15	C5H5N3+
107.06	44	C6H7N2+
114.0106	14	C5H5ClN+
115.0058	999	C4H4ClN2+
116.0135	11	C4H5ClN2+
121.076	14	C7H9N2+
129.0214	24	C5H6ClN2+
130.0293	19	C5H7ClN2+
133.0635	21	C7H7N3+
134.0714	319	C7H8N3+
135.079	129	C7H9N3+
141.0218	53	C6H6ClN2+
142.0295	24	C6H7ClN2+
143.0244	10	C5H6ClN3+
150.1026	20	C8H12N3+
169.0404	28	C7H8ClN3+
