Mass spectrum: Quinmerac; LC-ESI-QFT; MS2; CE: 180; R=35000; [M+H]+
Name: Quinmerac
Name: 7-chloro-3-methyl-quinoline-8-carboxylic acid
Name: 7-chloro-3-methylquinoline-8-carboxylic acid
Formula: C11H8ClNO2
Exact mass: 221.02436
SMILES: CC1=CN=C2C(=C1)C=CC(=C2C(=O)O)Cl
InChI: InChI=1S/C11H8ClNO2/c1-6-4-7-2-3-8(12)9(11(14)15)10(7)13-5-6/h2-5H,1H3,(H,14,15)
Instrument: Q Exactive Plus Orbitrap Thermo Scientific
Instrument type: LC-ESI-QFT
Ms type: MS2
Ion mode: POSITIVE
Ionization: ESI
Fragmentation mode: HCD
Collision energy: 180 (nominal)
Resolution: 35000
Column name: XBridge C18 3.5um, 2.1x50mm, Waters
Retention time: 5.2 min
Base peak: 222.0312
Precursor m/z: 222.0316
Precursor type: [M+H]+
m/z	relative intensity	assigned
50.0151	13	C4H2+
51.023	3	C4H3+
53.0022	8	C3HO+
53.9975	1	C2NO+
54.0464	1	C4H6+
61.0073	48	C5H+
62.0151	206	C5H2+
63.0229	455	C5H3+
64.0182	30	C4H2N+
64.0307	30	C5H4+
65.0386	67	C5H5+
66.0464	9	C5H6+
67.9893	1	C3O2+
72.9839	112	C3H2Cl+
74.0151	112	C6H2+
75.0229	37	C6H3+
76.0181	4	C5H2N+
76.0307	41	C6H4+
77.0385	4	C6H5+
78.0464	5	C6H6+
79.0179	5	C5H3O+
81.0335	4	C5H5O+
85.0072	8	C7H+
86.0151	82	C7H2+
87.023	235	C7H3+
88.0182	89	C6H2N+
88.0307	518	C7H4+
89.0386	96	C7H5+
90.0339	34	C6H4N+
90.0464	51	C7H6+
91.0416	1	C6H5N+
92.0256	5	C6H4O+
94.0413	1	C6H6O+
95.0492	4	C6H7O+
96.984	34	C5H2Cl+
97.9793	7	C4HClN+
98.0151	12	C8H2+
98.9996	37	C5H4Cl+
99.0102	8	C7HN+
99.0229	15	C8H3+
100.0181	12	C7H2N+
100.0308	1	C8H4+
102.0464	22	C8H6+
105.0448	3	C6H5N2+
107.9761	3	C6HCl+
108.9839	1	C6H2Cl+
111.0103	4	C8HN+
112.0182	8	C8H2N+
112.0307	5	C9H4+
113.0386	999	C9H5+
114.0339	148	C8H4N+
114.0464	239	C9H6+
115.0416	17	C8H5N+
115.0542	19	C9H7+
117.0335	6	C8H5O+
118.0413	38	C8H6O+
120.0206	43	C7H4O2+
120.9839	1	C7H2Cl+
122.9996	54	C7H4Cl+
123.9948	4	C6H3ClN+
131.0491	4	C9H7O+
132.057	95	C9H8O+
138.0338	6	C10H4N+
139.0416	4	C10H5N+
140.0495	491	C10H6N+
141.0573	10	C10H7N+
146.036	1	C9H6O2+
146.9994	1	C9H4Cl+
149.0154	30	C9H6Cl+
157.052	3	C10H7NO+
161.003	1	C9H4ClN+
