Mass spectrum: 3,4-Methylenedioxy-N-ethylamphetamine (MDEA); LC-ESI-QFT; MS2; CE: 180; R=35000; [M+H]+
Name: 3,4-Methylenedioxy-N-ethylamphetamine (MDEA)
Name: 3,4-methylenedioxyethamphetamine
Name: 1-(1,3-benzodioxol-5-yl)-N-ethylpropan-2-amine
Formula: C12H17NO2
Exact mass: 207.12593
SMILES: CCNC(C)CC1=CC2=C(C=C1)OCO2
InChI: InChI=1S/C12H17NO2/c1-3-13-9(2)6-10-4-5-11-12(7-10)15-8-14-11/h4-5,7,9,13H,3,6,8H2,1-2H3
Instrument: Q Exactive Plus Orbitrap Thermo Scientific
Instrument type: LC-ESI-QFT
Ms type: MS2
Ion mode: POSITIVE
Ionization: ESI
Fragmentation mode: HCD
Collision energy: 180 (nominal)
Resolution: 35000
Column name: XBridge C18 3.5um, 2.1x50mm, Waters
Retention time: 4.0 min
Base peak: 208.1326
Precursor m/z: 208.1332
Precursor type: [M+H]+
m/z	relative intensity	assigned
50.0151	490	C4H2+
51.0229	999	C4H3+
53.0022	33	C3HO+
53.0385	267	C4H5+
53.9974	2	C2NO+
55.0178	30	C3H3O+
62.015	9	C5H2+
63.0229	67	C5H3+
64.0306	14	C5H4+
65.0021	29	
65.0385	262	C5H5+
66.0463	20	C5H6+
67.0542	7	C5H7+
68.9971	1	C3HO2+
72.0807	1	C4H10N+
74.015	5	C6H2+
75.0227	10	C6H3+
76.0305	1	C6H4+
77.0384	624	C6H5+
78.0463	33	C6H6+
79.0541	205	C6H7+
81.0334	25	C5H5O+
89.0385	125	C7H5+
90.0463	6	C7H6+
91.0541	56	C7H7+
93.0339	1	C6H5O+
94.0412	2	C6H6O+
95.049	738	C6H7O+
102.0463	16	C8H6+
103.0541	94	C8H7+
104.0619	2	C8H8+
105.0446	473	C6H5N2+
106.0415	2	C7H6O+
109.0648	1	C7H9O+
115.0541	7	C9H7+
118.0411	1	C8H6O+
121.0283	40	C7H5O2+
135.0439	2	C8H7O2+
147.0439	20	C9H7O2+
