Mass spectrum: Theophyline; LC-ESI-QFT; MS2; CE: 150; R=35000; [M-H]-
Name: Theophyline
Name: Theophylline
Name: 1,3-dimethyl-7H-purine-2,6-dione
Formula: C7H8N4O2
Exact mass: 180.06473
SMILES: CN1C2=C(C(=O)N(C1=O)C)NC=N2
InChI: InChI=1S/C7H8N4O2/c1-10-5-4(8-3-9-5)6(12)11(2)7(10)13/h3H,1-2H3,(H,8,9)
Instrument: Q Exactive Plus Orbitrap Thermo Scientific
Instrument type: LC-ESI-QFT
Ms type: MS2
Ion mode: NEGATIVE
Ionization: ESI
Fragmentation mode: HCD
Collision energy: 150 (nominal)
Resolution: 35000
Column name: XBridge C18 3.5um, 2.1x50mm, Waters
Retention time: 3.1 min
Base peak: 179.0573
Precursor m/z: 179.0574
Precursor type: [M-H]-
m/z	relative intensity	assigned
50.0036	11	C3N-
55.0302	107	C2H3N2-
64.0067	19	C3N2-
65.0146	116	C3HN2-
65.9986	999	C3NO-
67.0302	114	C3H3N2-
68.0142	2	C3H2NO-
69.0095	68	C2HN2O-
79.0177	314	C3HN3-
81.0333	2	C3H3N3-
92.0255	177	C4H2N3-
93.0094	4	C4HN2O-
94.0411	101	C4H4N3-
95.0252	2	C4H3N2O-
107.0126	25	C4HN3O-
108.0204	38	C4H2N3O-
109.0283	1	C4H3N3O-
120.0206	9	C5H2N3O-
122.0361	13	C5H4N3O-
123.0076	9	C4HN3O2-
126.0311	10	C4H4N3O2-
135.0076	16	C5HN3O2-
135.0314	109	C5H3N4O-
164.0342	2	C6H4N4O2-
