Mass spectrum: Acamprosate; LC-ESI-ITFT; MS2; CE: 60%; R=15000; [M-H]-
Name: Acamprosate
Name: 3-acetamido-1-propanesulfonic acid
Formula: C5H11NO4S
Exact mass: 181.0409
SMILES: O=S(=O)(O)CCCNC(=O)C
InChI: InChI=1S/C5H11NO4S/c1-5(7)6-3-2-4-11(8,9)10/h2-4H2,1H3,(H,6,7)(H,8,9,10)
Instrument: LTQ Orbitrap XL Thermo Scientific
Instrument type: LC-ESI-ITFT
Ms type: MS2
Ion mode: NEGATIVE
Ionization: ESI
Fragmentation mode: HCD
Collision energy: 60 % (nominal)
Resolution: 15000
Column name: XBridge C18 3.5um, 2.1x50mm, Waters
Retention time: 1.0 min
Base peak: 180.0341
Precursor m/z: 180.0336
Precursor type: [M-H]-
m/z	relative intensity	assigned
58.0298	7	C2H4NO-
79.9574	999	O3S-
80.9652	133	HO3S-
116.0717	20	C5H10NO2-
120.9969	9	C3H5O3S-
138.0231	38	C3H8NO3S-
180.0337	608	C5H10NO4S-
