Mass spectrum: Isoxaben; LC-ESI-QFT; MS2; CE: 45; R=35000; [M-H]-
Name: Isoxaben
Name: 2,6-dimethoxy-N-[3-(3-methylpentan-3-yl)-1,2-oxazol-5-yl]benzamide
Formula: C18H24N2O4
Exact mass: 332.17361
SMILES: CCC(C)(CC)C1=NOC(=C1)NC(=O)C2=C(C=CC=C2OC)OC
InChI: InChI=1S/C18H24N2O4/c1-6-18(3,7-2)14-11-15(24-20-14)19-17(21)16-12(22-4)9-8-10-13(16)23-5/h8-11H,6-7H2,1-5H3,(H,19,21)
Instrument: Q Exactive Plus Orbitrap Thermo Scientific
Instrument type: LC-ESI-QFT
Ms type: MS2
Ion mode: NEGATIVE
Ionization: ESI
Fragmentation mode: HCD
Collision energy: 45 (nominal)
Resolution: 35000
Column name: XBridge C18 3.5um, 2.1x50mm, Waters
Retention time: 10.6 min
Base peak: 331.1659
Precursor m/z: 331.1663
Precursor type: [M-H]-
m/z	relative intensity	assigned
59.9853	8	CO3-
64.0067	27	C3N2-
65.0145	47	C3HN2-
65.9985	256	C3NO-
72.9932	999	C2HO3-
77.0397	22	C6H5-
81.0093	7	C3HN2O-
81.0346	6	C5H5O-
82.0059	4	C4H2O2-
83.0502	34	C5H7O-
92.0268	10	C6H4O-
93.0345	523	C6H5O-
95.0139	22	C5H3O2-
102.0349	282	C7H4N-
105.0345	182	C7H5O-
107.0502	247	C7H7O-
108.0216	23	C6H4O2-
108.0819	5	C7H10N-
117.022	28	C7H3NO-
118.0299	104	C7H4NO-
120.009	19	C6H2NO2-
121.0295	469	C7H5O2-
122.0373	110	C7H6O2-
123.0085	5	C6H3O3-
123.0452	48	C7H7O2-
132.0454	511	C8H6NO-
133.0169	25	C7H3NO2-
133.0295	271	C8H5O2-
134.0248	43	C7H4NO2-
134.0373	173	C8H6O2-
135.0088	20	C7H3O3-
135.0451	235	C8H7O2-
136.0403	29	C7H6NO2-
137.0608	824	C8H9O2-
146.0248	73	C8H4NO2-
147.0325	57	C8H5NO2-
147.0453	22	C9H7O2-
148.0404	432	C8H6NO2-
149.0243	32	C8H5O3-
149.0609	26	C9H9O2-
151.0401	162	C8H7O3-
160.0404	39	C9H6NO2-
161.0244	325	C9H5O3-
162.0201	73	C8H4NO3-
162.0323	270	C9H6O3-
162.0561	234	C9H8NO2-
164.0354	71	C8H6NO3-
164.0716	94	C9H10NO2-
166.1111	98	C9H14N2O-
167.1185	8	C9H15N2O-
172.0402	10	C10H6NO2-
173.0118	40	C9H3NO3-
174.02	6	C9H4NO3-
176.0353	103	C9H6NO3-
179.035	4	C9H7O4-
181.0505	62	C9H9O4-
188.0352	83	C10H6NO3-
190.0145	108	C9H4NO4-
202.0514	18	C11H8NO3-
205.0379	123	C10H7NO4-
206.046	50	C10H8NO4-
215.0461	7	C11H7N2O3-
220.0615	678	C11H10NO4-
273.0879	27	C14H13N2O4-
287.1034	28	C15H15N2O4-
331.1664	736	C18H23N2O4-
