Mass spectrum: Difenacoum; LC-ESI-QFT; MS2; CE: 120%; R=17500; [M-H]-
Name: Difenacoum
Name: 4-hydroxy-3-[3-(4-phenylphenyl)-1,2,3,4-tetrahydronaphthalen-1-yl]chromen-2-one
Formula: C31H24O3
Exact mass: 444.1725
SMILES: C1C(CC2=CC=CC=C2C1C3=C(C4=CC=CC=C4OC3=O)O)C5=CC=C(C=C5)C6=CC=CC=C6
InChI: InChI=1S/C31H24O3/c32-30-26-12-6-7-13-28(26)34-31(33)29(30)27-19-24(18-23-10-4-5-11-25(23)27)22-16-14-21(15-17-22)20-8-2-1-3-9-20/h1-17,24,27,32H,18-19H2
Instrument: Exploris 240 Orbitrap Thermo Scientific
Instrument type: LC-ESI-QFT
Ms type: MS2
Ion mode: NEGATIVE
Ionization: ESI
Fragmentation mode: HCD
Collision energy: 120 % (nominal)
Resolution: 17500
Column name: XBridge C18 3.5um, 2.1x50mm, Waters
Retention time: 15.439 min
Base peak: 443.1649
Precursor m/z: 443.1653
Precursor type: [M-H]-
m/z	relative intensity	assigned
59.014	52	C2H3O2-
65.0397	110	C5H5-
67.0189	66	C4H3O-
92.0271	27	C6H4O-
93.0346	999	C6H5O-
115.0553	335	C9H7-
117.0345	123	C8H5O-
119.0505	18	C8H7O-
143.0502	373	C10H7O-
