Mass spectrum: Risperidone; LC-ESI-QFT; MS2; CE: 120; R=35000; [M+H]+
Name: Risperidone
Name: 3-[2-[4-(6-fluoro-1,2-benzoxazol-3-yl)piperidin-1-yl]ethyl]-2-methyl-6,7,8,9-tetrahydropyrido[1,2-a]pyrimidin-4-one
Formula: C23H27FN4O2
Exact mass: 410.21180
SMILES: CC1=C(C(=O)N2CCCCC2=N1)CCN3CCC(CC3)C4=NOC5=C4C=CC(=C5)F
InChI: InChI=1S/C23H27FN4O2/c1-15-18(23(29)28-10-3-2-4-21(28)25-15)9-13-27-11-7-16(8-12-27)22-19-6-5-17(24)14-20(19)30-26-22/h5-6,14,16H,2-4,7-13H2,1H3
Instrument: Q Exactive Plus Orbitrap Thermo Scientific
Instrument type: LC-ESI-QFT
Ms type: MS2
Ion mode: POSITIVE
Ionization: ESI
Fragmentation mode: HCD
Collision energy: 120 (nominal)
Resolution: 35000
Column name: XBridge C18 3.5um, 2.1x50mm, Waters
Retention time: 5.4 min
Base peak: 411.2187
Precursor m/z: 411.2191
Precursor type: [M+H]+
m/z	relative intensity	assigned
50.0151	2	C4H2+
51.0229	1	C4H3+
52.0182	1	C3H2N+
53.0022	51	C3HO+
53.0386	48	C4H5+
53.9975	15	C2NO+
54.0339	73	C3H4N+
55.0542	999	C4H7+
56.0129	1	C2H2NO+
56.0494	7	C3H6N+
58.0652	1	C3H8N+
63.0229	1	C5H3+
64.0308	2	C5H4+
65.0386	259	FH4N3+
66.0338	5	C4H4N+
66.0464	22	C5H6+
67.0178	84	C4H3O+
67.0417	147	C4H5N+
67.0542	154	C5H7+
68.0495	691	C4H6N+
69.0335	683	C4H5O+
70.0287	1	C3H4NO+
70.0651	2	C4H8N+
77.0385	2	CH4FN3+
78.0338	9	C5H4N+
78.0463	4	C6H6+
79.0416	2	C5H5N+
79.0542	32	C6H7+
80.0494	148	C5H6N+
81.0335	7	C5H5O+
81.0447	4	C4H5N2+
81.0573	28	C5H7N+
82.0651	753	C5H8N+
83.0729	1	C5H9N+
91.0417	36	C6H5N+
91.0542	7	C7H7+
92.0495	17	C6H6N+
93.0334	1	C6H5O+
93.0573	8	C6H7N+
94.0288	6	C5H4NO+
94.0652	66	C6H8N+
95.049	13	C6H7O+
95.0604	8	C5H7N2+
95.073	23	C6H9N+
96.0444	7	C5H6NO+
96.0809	1	C6H10N+
97.0397	3	C4H5N2O+
97.0761	2	C5H9N2+
98.0964	4	C6H12N+
99.0917	17	C5H11N2+
100.0757	1	C5H10NO+
103.0542	2	C8H7+
104.0495	14	C7H6N+
105.0448	18	C6H5N2+
106.0526	7	C6H6N2+
106.0651	32	C7H8N+
107.0604	28	C6H7N2+
107.073	78	C7H9N+
108.0443	21	C6H6NO+
108.0808	9	C7H10N+
109.0522	1	C6H7NO+
109.076	2	C6H9N2+
110.0601	205	C6H8NO+
115.0542	1	C9H7+
118.065	4	C3H7FN4+
119.0604	12	C7H7N2+
120.068	2	C7H8N2+
120.0807	9	C8H10N+
121.076	47	C7H9N2+
122.0598	4	C2H7FN4O+
122.0839	17	C7H10N2+
122.0967	1	C8H12N+
123.0679	12	C7H9NO+
123.0917	5	C7H11N2+
124.0757	6	C7H10NO+
125.071	53	C6H9N2O+
130.0651	6	C9H8N+
131.0604	10	C8H7N2+
131.0729	2	C9H9N+
132.0681	8	C8H8N2+
132.0808	27	C9H10N+
133.0448	2	C9H6F+
133.0762	7	C8H9N2+
134.0601	1	C8H8NO+
135.0553	36	C7H7N2O+
135.0915	4	C8H11N2+
147.0917	8	C9H11N2+
148.0995	3	C9H12N2+
148.1121	7	C10H14N+
149.071	36	C8H9N2O+
150.0788	119	C8H10N2O+
161.071	27	C9H9N2O+
162.0475	2	C10H7FO+
163.0865	28	C9H11N2O+
163.1231	17	C10H15N2+
167.0816	1	C8H11N2O2+
175.0864	11	C10H11N2O+
176.0946	1	C10H12N2O+
189.102	1	C11H13N2O+
191.1179	120	C11H15N2O+
