Mass spectrum: Sulfathiazole; LC-ESI-ITFT; MS2; CE: 35%; R=30000; [M+H]+
Name: Sulfathiazole
Name: 4-Amino-N-2-thiazolylbenzenesulfonamide
Name: 4-amino-N-(1,3-thiazol-2-yl)benzenesulfonamide
Formula: C9H9N3O2S2
Exact mass: 255.0136
SMILES: c1(S(Nc2nccs2)(=O)=O)ccc(N)cc1
InChI: InChI=1S/C9H9N3O2S2/c10-7-1-3-8(4-2-7)16(13,14)12-9-11-5-6-15-9/h1-6H,10H2,(H,11,12)
Instrument: LTQ Orbitrap XL Thermo Scientific
Instrument type: LC-ESI-ITFT
Ms type: MS2
Ion mode: POSITIVE
Ionization: ESI
Fragmentation mode: CID
Collision energy: 35 % (nominal)
Resolution: 30000
Column name: XBridge C18 3.5um, 2.1x50mm, Waters
Retention time: 2.8 min
Base peak: 256.0215
Precursor m/z: 256.0209
Precursor type: [M+H]+
m/z	relative intensity	assigned
92.0494	39	C6H6N+
94.0651	2	C6H8N+
101.0166	5	C3H5N2S+
108.0444	82	C6H6NO+
156.0114	999	C6H6NO2S+
162.9629	12	C3H3N2O2S2+
172.9722	3	C6H5O2S2+
190.0433	18	C9H8N3S+
