Mass spectrum: Norclozapine; LC-ESI-QFT; MS2; CE: 150; R=35000; [M+H]+
Name: Norclozapine
Name: 3-chloro-6-piperazin-1-yl-5H-benzo[b][1,4]benzodiazepine
Formula: C17H17ClN4
Exact mass: 312.11417
SMILES: C1CN(CCN1)C2=NC3=C(C=CC(=C3)Cl)NC4=CC=CC=C42
InChI: InChI=1S/C17H17ClN4/c18-12-5-6-15-16(11-12)21-17(22-9-7-19-8-10-22)13-3-1-2-4-14(13)20-15/h1-6,11,19-20H,7-10H2
Instrument: Q Exactive Plus Orbitrap Thermo Scientific
Instrument type: LC-ESI-QFT
Ms type: MS2
Ion mode: POSITIVE
Ionization: ESI
Fragmentation mode: HCD
Collision energy: 150 (nominal)
Resolution: 35000
Column name: XBridge C18 3.5um, 2.1x50mm, Waters
Retention time: 5.9 min
Base peak: 313.1204
Precursor m/z: 313.1215
Precursor type: [M+H]+
m/z	relative intensity	assigned
50.015	1	C4H2+
51.0228	2	C4H3+
52.0181	1	C3H2N+
53.0022	1	C3HO+
55.0416	1	C3H5N+
56.0494	3	C3H6N+
61.0072	3	C5H+
62.015	11	C5H2+
63.0228	39	C5H3+
64.0181	25	C4H2N+
64.0306	2	C5H4+
65.0385	11	C5H5+
66.0463	3	C5H6+
70.065	1	C4H8N+
71.0602	3	C3H7N2+
72.9839	52	C3H2Cl+
73.9791	4	C2HClN+
74.0148	2	C6H2+
75.0228	11	C6H3+
76.018	2	C5H2N+
76.0305	1	C6H4+
77.0384	3	C6H5+
78.0337	1	C5H4N+
80.0494	1	C5H6N+
86.0149	6	C7H2+
87.0102	1	C6HN+
87.0228	10	C7H3+
88.0181	7	C6H2N+
88.0306	26	C7H4+
89.0385	23	C7H5+
90.0337	15	C6H4N+
90.0463	15	C7H6+
91.0416	1	C6H5N+
95.049	5	C6H7O+
96.9839	7	C5H2Cl+
97.9791	5	C4HClN+
98.015	3	C8H2+
98.9995	14	C5H4Cl+
99.0228	2	C8H3+
100.018	2	C7H2N+
102.0337	2	C7H4N+
102.0461	1	C8H6+
104.0493	1	C7H6N+
105.0446	3	C6H5N2+
110.0149	1	C9H2+
111.0228	4	C9H3+
112.018	2	C8H2N+
112.0306	7	C9H4+
113.0384	27	C9H5+
114.0337	27	C8H4N+
114.0463	42	C9H6+
115.0415	11	C8H5N+
115.0541	8	C9H7+
116.0494	6	C8H6N+
117.0572	5	C8H7N+
118.0412	4	C5H9ClN+
123.9948	10	C6H3ClN+
125.0385	2	C10H5+
126.0336	2	C9H4N+
126.0464	4	C10H6+
127.0416	2	C9H5N+
128.0493	7	C9H6N+
128.062	3	C10H8+
129.0445	4	C8H5N2+
130.0399	5	C7H4N3+
132.057	9	C6H11ClN+
137.0385	136	C11H5+
138.0338	47	C10H4N+
138.0463	137	C11H6+
139.0416	14	C10H5N+
139.054	44	C11H7+
140.0493	93	C10H6N+
141.0333	2	C7H8ClN+
141.0445	6	C9H5N2+
141.0572	3	C10H7N+
142.0412	9	C7H9ClN+
142.0525	6	C9H6N2+
143.0365	2	C6H8ClN2+
146.0599	2	C6H11ClN2+
146.9995	1	C9H4Cl+
149.0153	1	C9H6Cl+
150.0465	2	C12H6+
151.0416	3	C11H5N+
152.0496	3	C11H6N+
153.0446	4	C10H5N2+
153.0572	2	C11H7N+
154.0401	4	C9H4N3+
154.065	1	C11H8N+
155.0491	4	C8H10ClN+
156.0568	24	C8H11ClN+
157.0521	16	C7H10ClN2+
159.0553	6	C6H10ClN3+
162.034	3	C12H4N+
163.0415	11	C12H5N+
163.054	2	C13H7+
164.0493	999	C12H6N+
165.0447	122	C11H5N2+
165.057	64	C12H7N+
166.0526	10	C11H6N2+
166.0649	16	C12H8N+
167.0725	1	C12H9N+
169.052	3	C8H10ClN2+
170.036	11	C6H7ClN4+
173.0151	4	C11H6Cl+
174.0106	5	C10H5ClN+
177.0571	4	C13H7N+
178.065	6	C13H8N+
179.0603	5	C12H7N2+
179.0727	1	C13H9N+
180.0805	1	C13H10N+
181.0757	1	C12H9N2+
182.0598	3	C9H11ClN2+
183.0552	17	C8H10ClN3+
183.0676	12	C9H12ClN2+
189.0446	10	C13H5N2+
190.0523	17	C13H6N2+
190.065	3	C14H8N+
191.0602	198	C13H7N2+
192.0679	58	C13H8N2+
193.076	1	C13H9N2+
198.0101	1	C12H5ClN+
203.0603	1	C14H7N2+
204.0682	1	C14H8N2+
205.0756	5	C14H9N2+
209.0708	4	C10H12ClN3+
216.0681	3	C15H8N2+
217.0754	2	C15H9N2+
226.0295	2	C13H7ClN2+
