Mass spectrum: Lovastatin; LC-ESI-QFT; MS2; CE: 90; R=35000; [M+H]+
Name: Lovastatin
Name: (1S,3R,7S,8S,8aR)-8-{2-[(2R,4R)-4-hydroxy-6-oxotetrahydro-2H-pyran-2-yl]ethyl}-3,7-dimethyl-1,2,3,7,8,8a-hexahydronaphthalen-1-yl (2S)-2-methylbutanoate
Name: (2S)-2-methylbutanoic acid [(1S,3R,7S,8S,8aR)-8-[2-[(2R,4R)-4-hydroxy-6-oxo-2-oxanyl]ethyl]-3,7-dimethyl-1,2,3,7,8,8a-hexahydronaphthalen-1-yl] ester
Formula: C24H36O5
Exact mass: 404.25627
SMILES: O=C(O[C@@H]1[C@H]3C(=C/[C@H](C)C1)\C=C/[C@@H]([C@@H]3CC[C@H]2OC(=O)C[C@H](O)C2)C)[C@@H](C)CC
InChI: InChI=1S/C24H36O5/c1-5-15(3)24(27)29-21-11-14(2)10-17-7-6-16(4)20(23(17)21)9-8-19-12-18(25)13-22(26)28-19/h6-7,10,14-16,18-21,23,25H,5,8-9,11-13H2,1-4H3/t14-,15-,16-,18+,19+,20-,21-,23-/m0/s1
Instrument: Q Exactive Orbitrap Thermo Scientific
Instrument type: LC-ESI-QFT
Ms type: MS2
Ion mode: POSITIVE
Ionization: ESI
Fragmentation mode: HCD
Collision energy: 90 (nominal)
Resolution: 35000
Column name: XBridge C18 3.5um, 2.1x50mm, Waters
Retention time: 15.3 min
Base peak: 405.2632
Precursor m/z: 405.2636
Precursor type: [M+H]+
m/z	relative intensity	assigned
57.0698	3	C4H9+
65.0385	37	C5H5+
67.0542	146	C5H7+
68.9971	22	C3HO2+
69.0335	14	C4H5O+
69.0698	42	C5H9+
71.0127	21	C3H3O2+
71.0492	20	C4H7O+
77.0385	43	C6H5+
79.0542	476	C6H7+
81.0698	299	C6H9+
83.0491	79	C5H7O+
85.0648	13	C5H9O+
91.0542	584	C7H7+
93.0698	132	C7H9+
95.0491	148	C6H7O+
95.0854	39	C7H11+
97.0649	17	C6H9O+
103.0542	48	C8H7+
105.0447	47	C6H5N2+
105.0699	673	C8H9+
107.049	3	C7H7O+
107.0855	60	C8H11+
109.0648	32	C7H9O+
115.0541	146	C9H7+
116.0619	76	C9H8+
117.0697	207	C9H9+
119.0854	285	C9H11+
121.0648	4	C8H9O+
121.101	6	C9H13+
127.054	15	C10H7+
128.062	678	C10H8+
129.0698	446	C10H9+
130.0777	147	C10H10+
131.0855	420	C10H11+
133.0649	4	C9H9O+
133.1011	36	C10H13+
141.0698	309	C11H9+
142.0778	409	C11H10+
143.0856	999	C11H11+
144.0934	174	C11H12+
145.1012	233	C11H13+
147.1168	5	C11H15+
152.0621	20	
153.0698	118	C12H9+
154.0777	141	C12H10+
155.0604	54	C10H7N2+
155.0855	325	C12H11+
156.0933	210	C12H12+
157.1011	189	C12H13+
158.109	147	C12H14+
159.1168	88	C12H15+
165.0697	54	C13H9+
166.0776	46	C13H10+
167.0855	103	C13H11+
168.0933	115	C13H12+
169.1011	290	C13H13+
170.1088	30	C13H14+
171.1167	82	C13H15+
173.1324	52	C13H17+
178.0776	33	C14H10+
179.0852	40	C14H11+
180.0932	15	C14H12+
181.1011	113	C14H13+
182.1091	40	C14H14+
183.1168	89	C14H15+
184.1246	19	C14H16+
185.1323	4	C14H17+
191.0857	21	C15H11+
192.0931	37	C15H12+
193.1011	47	C15H13+
194.109	4	C15H14+
195.1169	55	C15H15+
196.1251	5	C15H16+
197.1324	34	C15H17+
199.1481	18	C15H19+
204.0934	13	
205.1013	17	C16H13+
206.1092	3	C16H14+
207.1165	7	C16H15+
209.1322	3	C16H17+
210.1404	16	C16H18+
219.1169	21	C17H15+
223.1482	5	C17H19+
225.1636	16	C17H21+
