Mass spectrum: Azoxystrobin (free acid); LC-ESI-ITFT; MS2; CE: 45%; R=15000; [M+H]+
Name: Azoxystrobin (free acid)
Formula: C21H15N3O5
Exact mass: 389.1012
SMILES: O=C(O)/C(=C\OC)c3ccccc3Oc2cc(Oc1ccccc1C#N)ncn2
InChI: InChI=1S/C21H15N3O5/c1-27-12-16(21(25)26)15-7-3-5-9-18(15)29-20-10-19(23-13-24-20)28-17-8-4-2-6-14(17)11-22/h2-10,12-13H,1H3,(H,25,26)/b16-12-
Instrument: LTQ Orbitrap XL Thermo Scientific
Instrument type: LC-ESI-ITFT
Ms type: MS2
Ion mode: POSITIVE
Ionization: ESI
Fragmentation mode: HCD
Collision energy: 45 % (nominal)
Resolution: 15000
Column name: XBridge C18 3.5um, 2.1x50mm, Waters
Retention time: 8.8 min
Base peak: 390.1088
Precursor m/z: 390.1084
Precursor type: [M+H]+
m/z	relative intensity	assigned
82.0287	2	C4H4NO+
83.0128	2	C4H3O2+
89.0385	1	C7H5+
91.0544	2	C7H7+
106.0652	3	C7H8N+
107.0491	4	C7H7O+
118.0414	2	C8H6O+
120.0445	5	C7H6NO+
121.0648	1	C8H9O+
129.0449	11	C8H5N2+
130.0402	2	C7H4N3+
130.0652	1	C9H8N+
131.049	2	C9H7O+
132.0442	2	C8H6NO+
133.0525	2	C8H7NO+
134.0602	65	C8H8NO+
141.0449	5	C9H5N2+
143.0605	36	C9H7N2+
144.0447	1	C9H6NO+
145.0285	20	C9H5O2+
145.0525	2	C9H7NO+
146.0605	1	C9H8NO+
147.0442	1	C9H7O2+
155.0607	2	C10H7N2+
156.0445	11	C10H6NO+
157.0283	1	C10H5O2+
158.0602	2	C10H8NO+
159.0551	1	C9H7N2O+
160.0394	3	C9H6NO2+
160.0759	2	C10H10NO+
161.0711	2	C9H9N2O+
162.0551	13	C9H8NO2+
168.0447	1	C11H6NO+
169.0397	27	C10H5N2O+
170.047	1	C10H6N2O+
170.0604	1	C11H8NO+
171.0318	1	C10H5NO2+
171.0555	17	C10H7N2O+
172.0395	33	C10H6NO2+
173.0476	2	C10H7NO2+
174.055	2	C10H8NO2+
175.0394	2	C10H7O3+
176.0709	1	C10H10NO2+
177.0548	17	C10H9O3+
182.0475	1	C11H6N2O+
182.0714	10	C11H8N3+
183.0554	46	C11H7N2O+
184.0395	3	C11H6NO2+
185.0235	3	C11H5O3+
186.0551	8	C11H8NO2+
187.0503	13	C10H7N2O2+
196.0507	3	C11H6N3O+
197.071	4	C12H9N2O+
198.079	2	C12H10N2O+
199.0504	7	C11H7N2O2+
200.0342	7	C11H6NO3+
201.0422	33	C11H7NO3+
201.066	39	C11H9N2O2+
202.0501	5	C11H8NO3+
203.0817	1	C11H11N2O2+
207.0557	1	C13H7N2O+
210.0428	14	C12H6N2O2+
210.0663	28	C12H8N3O+
211.0503	7	C12H7N2O2+
212.0342	4	C12H6NO3+
216.0657	88	C12H10NO3+
227.0449	1	C12H7N2O3+
231.0919	2	C16H11N2+
233.0704	1	C15H9N2O+
242.0324	18	C12H6N2O4+
245.0713	1	C16H9N2O+
246.0798	1	C16H10N2O+
247.0871	1	C16H11N2O+
257.0697	1	C17H9N2O+
258.0797	1	C17H10N2O+
259.0875	2	C17H11N2O+
260.0711	2	C17H10NO2+
261.0773	2	C17H11NO2+
261.1029	2	C17H13N2O+
262.0867	4	C17H12NO2+
271.0863	2	C18H11N2O+
272.0818	11	C17H10N3O+
273.0666	10	C17H9N2O2+
273.0898	16	C17H11N3O+
274.0748	3	C17H10N2O2+
275.0818	5	C17H11N2O2+
284.0825	4	C18H10N3O+
285.0899	2	C18H11N3O+
286.0746	1	C18H10N2O2+
286.0976	1	C18H12N3O+
287.0817	21	C18H11N2O2+
288.0659	7	C18H10NO3+
288.0892	4	C18H12N2O2+
288.1133	8	C18H14N3O+
289.0973	14	C18H13N2O2+
300.0768	15	C18H10N3O2+
300.1134	1	C19H14N3O+
301.085	96	C18H11N3O2+
303.0765	11	C18H11N2O3+
312.0763	9	C19H10N3O2+
313.0602	1	C19H9N2O3+
314.0926	12	C19H12N3O2+
315.0774	4	C19H11N2O3+
315.1006	15	C19H13N3O2+
316.1083	50	C19H14N3O2+
317.0926	11	C19H13N2O3+
326.0919	1	C20H12N3O2+
328.0721	43	C19H10N3O3+
328.1066	4	C17H16N2O5+
329.0798	999	C21H13O4+
340.0726	4	C20H10N3O3+
344.1031	677	C20H14N3O3+
345.0857	2	C20H13N2O4+
346.1185	4	C20H16N3O3+
372.0971	101	C21H14N3O4+
390.1098	1	C21H16N3O5+
