Mass spectrum: N-Desmethylvenlafaxine; LC-ESI-ITFT; MS2; CE: 90%; R=30000; [M+H]+
Name: N-Desmethylvenlafaxine
Name: 1-[1-(4-methoxyphenyl)-2-(methylamino)ethyl]-1-cyclohexanol
Formula: C16H25NO2
Exact mass: 263.1885
SMILES: CNCC(C1=CC=C(C=C1)OC)C2(CCCCC2)O
InChI: InChI=1S/C16H25NO2/c1-17-12-15(16(18)10-4-3-5-11-16)13-6-8-14(19-2)9-7-13/h6-9,15,17-18H,3-5,10-12H2,1-2H3
Instrument: LTQ Orbitrap XL Thermo Scientific
Instrument type: LC-ESI-ITFT
Ms type: MS2
Ion mode: POSITIVE
Ionization: ESI
Fragmentation mode: HCD
Collision energy: 90 % (nominal)
Resolution: 30000
Column name: XBridge C18 3.5um, 2.1x50mm, Waters
Retention time: 6.3 min
Base peak: 264.1967
Precursor m/z: 264.1958
Precursor type: [M+H]+
m/z	relative intensity	assigned
67.0543	13	C5H7+
69.0699	9	C5H9+
77.0386	41	C6H5+
78.0465	15	C6H6+
79.0542	77	C6H7+
81.0699	106	C6H9+
91.0542	397	C7H7+
93.0699	15	C7H9+
105.0448	10	C6H5N2+
105.0698	26	C8H9+
107.0491	34	C7H7O+
107.0855	8	C8H11+
115.0542	60	C9H7+
117.0699	48	C9H9+
119.0604	11	C7H7N2+
119.0855	20	C9H11+
121.0648	999	C8H9O+
128.062	25	C10H8+
129.0698	17	C10H9+
130.0775	5	C10H10+
131.0491	22	C9H7O+
132.057	66	C9H8O+
135.0804	42	C9H11O+
141.0698	17	C11H9+
144.0569	39	C10H8O+
145.0647	24	C10H9O+
146.0724	12	C10H10O+
147.0804	181	C10H11O+
148.0756	33	C9H10NO+
149.0835	31	C9H11NO+
155.0861	6	C12H11+
158.0726	80	C11H10O+
159.0804	61	C11H11O+
163.0994	7	C10H13NO+
173.0959	35	C12H13O+
