Mass spectrum: Nafcillin; LC-ESI-QFT; MS2; CE: 120; R=35000; [M+H]+
Name: Nafcillin
Name: (2S,5R,6R)-6-[(2-ethoxynaphthalene-1-carbonyl)amino]-3,3-dimethyl-7-oxo-4-thia-1-azabicyclo[3.2.0]heptane-2-carboxylic acid
Formula: C21H22N2O5S
Exact mass: 414.12494
SMILES: CCOC1=C(C(=O)N[C@H]2[C@H]3SC(C)(C)[C@@H](N3C2=O)C(O)=O)C2=CC=CC=C2C=C1
InChI: InChI=1S/C21H22N2O5S/c1-4-28-13-10-9-11-7-5-6-8-12(11)14(13)17(24)22-15-18(25)23-16(20(26)27)21(2,3)29-19(15)23/h5-10,15-16,19H,4H2,1-3H3,(H,22,24)(H,26,27)/t15-,16+,19-/m1/s1
Instrument: Q Exactive Plus Orbitrap Thermo Scientific
Instrument type: LC-ESI-QFT
Ms type: MS2
Ion mode: POSITIVE
Ionization: ESI
Fragmentation mode: HCD
Collision energy: 120 (nominal)
Resolution: 35000
Column name: XBridge C18 3.5um, 2.1x50mm, Waters
Retention time: 9.4 min
Base peak: 415.1318
Precursor m/z: 415.1322
Precursor type: [M+H]+
m/z	relative intensity	assigned
50.015	1	C4H2+
53.0386	2	C4H5+
58.995	2	C2H3S+
62.0149	1	C5H2+
63.0229	15	C5H3+
65.0386	48	C5H5+
70.0651	1	C4H8N+
75.0228	2	C6H3+
77.0384	1	C6H5+
87.023	2	C7H3+
87.0262	2	C4H7S+
89.0386	140	C7H5+
90.0464	4	C7H6+
91.0543	1	C7H7+
95.0491	4	C6H7O+
103.0542	2	C8H7+
105.0448	2	C6H5N2+
113.0386	2	C9H5+
114.0464	7	C9H6+
115.0542	999	C9H7+
117.0699	1	C9H9+
118.0415	1	C8H6O+
126.0464	9	C2H10N2O2S+
127.0542	16	C10H7+
128.062	14	C10H8+
129.0447	1	C8H5N2+
129.0702	1	C10H9+
132.0569	5	C9H8O+
139.0541	5	C11H7+
140.0494	6	C10H6N+
140.0618	1	C11H8+
141.0573	5	C10H7N+
141.0696	2	C11H9+
142.0412	4	C10H6O+
143.0492	64	C10H7O+
145.0648	16	C10H9O+
152.062	19	C12H8+
153.0573	3	C11H7N+
153.0697	4	C12H9+
154.0651	14	C11H8N+
155.0493	1	C11H7O+
155.0603	31	C10H7N2+
165.0699	1	C13H9+
166.0651	2	C12H8N+
167.0731	1	C12H9N+
169.0522	3	C11H7NO+
169.0645	2	C4H13N2O3S+
170.06	3	C11H8NO+
171.044	8	C3H11N2O4S+
179.0602	1	C12H7N2+
181.0646	1	C13H9O+
181.076	4	C12H9N2+
182.0601	17	C12H8NO+
182.0837	2	C12H10N2+
193.076	2	C13H9N2+
209.071	6	C13H9N2O+
221.071	2	C14H9N2O+
