Mass spectrum: Picolinafen; LC-ESI-QFT; MS2; CE: 75; R=35000; [M+H]+
Name: Picolinafen
Name: N-(4-fluorophenyl)-6-[3-(trifluoromethyl)phenoxy]pyridine-2-carboxamide
Formula: C19H12F4N2O2
Exact mass: 376.08349
SMILES: C1=CC(=CC(=C1)OC2=CC=CC(=N2)C(=O)NC3=CC=C(C=C3)F)C(F)(F)F
InChI: InChI=1S/C19H12F4N2O2/c20-13-7-9-14(10-8-13)24-18(26)16-5-2-6-17(25-16)27-15-4-1-3-12(11-15)19(21,22)23/h1-11H,(H,24,26)
Instrument: Q Exactive Plus Orbitrap Thermo Scientific
Instrument type: LC-ESI-QFT
Ms type: MS2
Ion mode: POSITIVE
Ionization: ESI
Fragmentation mode: HCD
Collision energy: 75 (nominal)
Resolution: 35000
Column name: XBridge C18 3.5um, 2.1x50mm, Waters
Retention time: 15.4 min
Base peak: 279.1583
Precursor m/z: 377.0908
Precursor type: [M+H]+
m/z	relative intensity	assigned
51.0228	2	C4H3+
52.0182	1	C3H2N+
53.0022	44	C3HO+
53.9974	10	C2NO+
57.0697	1	C4H9+
66.0337	2	C4H4N+
67.9893	4	C3O2+
71.0291	4	C4H4F+
73.0083	10	C3H2FO+
74.015	2	C6H2+
75.0228	23	C6H3+
78.0087	3	C3N3+
79.0177	1	C5H3O+
93.0209	2	C5H3NO+
94.0287	14	C5H4NO+
95.029	10	C6H4F+
101.0196	7	C5H3F2+
113.0396	22	C6H6FO+
114.0349	2	C5H5FNO+
121.0285	1	C7H5O2+
121.0396	1	C6H5N2O+
123.0352	50	C6H4FN2+
125.0196	7	C7H3F2+
126.0274	1	C7H4F2+
133.0447	12	C9H6F+
140.0493	7	C10H6N+
141.0572	41	C10H7N+
143.03	6	C7H5F2O+
145.0259	999	C7H4F3+
149.0232	4	C8H5O3+
160.0556	2	C10H7FN+
163.0363	27	C7H6F3O+
164.0433	1	C10H6F2+
166.0466	1	C9H6F2N+
168.0442	1	C11H6NO+
169.052	4	C11H7NO+
170.0399	4	C11H5FN+
170.0525	1	C12H7F+
171.0479	2	C11H6FN+
172.0556	2	C11H7FN+
173.0321	187	C7H4F3N2+
181.0459	4	C10H7F2O+
182.034	4	C10H5F3+
183.0416	126	C10H6F3+
184.0368	2	C9H5F3N+
188.0505	39	C11H7FNO+
189.0383	1	C11H5F2N+
190.0462	203	C11H6F2N+
191.0414	18	C10H5F2N2+
196.0369	6	C10H5F3N+
197.0509	7	C12H6FN2+
198.0348	2	C12H5FNO+
198.046	3	C16H6+
208.0572	3	C11H8F2NO+
209.0448	1	C11H6F3N+
210.0525	181	C11H7F3N+
212.0314	5	C10H5F3NO+
215.0614	1	C12H8FN2O+
218.0412	28	C12H6F2NO+
219.0411	1	C13H6F3+
238.0473	529	C15H6F2N+
243.056	2	C13H8FN2O2+
256.058	16	C12H9F3NO2+
260.0744	3	C17H9FN2+
261.0821	2	C17H10FN2+
289.0769	7	C18H10FN2O+
291.073	1	C18H9F2N2+
359.0795	4	C19H11F4N2O+
