Mass spectrum: Flubendazole; LC-ESI-QFT; MS2; CE: 120; R=35000; [M+H]+
Name: Flubendazole
Name: Methyl N-[6-(4-fluorobenzoyl)-1H-benzimidazol-2-yl]carbamate
Formula: C16H12FN3O3
Exact mass: 313.08627
SMILES: COC(=O)NC1=NC2=C(N1)C=C(C=C2)C(=O)C3=CC=C(C=C3)F
InChI: InChI=1S/C16H12FN3O3/c1-23-16(22)20-15-18-12-7-4-10(8-13(12)19-15)14(21)9-2-5-11(17)6-3-9/h2-8H,1H3,(H2,18,19,20,22)
Instrument: Q Exactive Plus Orbitrap Thermo Scientific
Instrument type: LC-ESI-QFT
Ms type: MS2
Ion mode: POSITIVE
Ionization: ESI
Fragmentation mode: HCD
Collision energy: 120 (nominal)
Resolution: 35000
Column name: XBridge C18 3.5um, 2.1x50mm, Waters
Retention time: 8.1 min
Base peak: 314.093
Precursor m/z: 314.0935
Precursor type: [M+H]+
m/z	relative intensity	assigned
50.0151	15	C4H2+
51.0229	8	C4H3+
52.0182	1	C3H2N+
53.0022	22	C3HO+
53.026	1	C3H3N+
55.0179	2	C3H3O+
63.023	3	C5H3+
64.0181	2	C4H2N+
64.0307	1	C5H4+
65.0386	7	C5H5+
66.0464	1	C5H6+
67.0417	2	C4H5N+
69.0135	6	C4H2F+
71.0292	67	C4H4F+
73.0085	4	C3H2FO+
74.0151	81	C6H2+
75.0229	587	C6H3+
76.0181	18	C5H2N+
77.026	88	C5H3N+
78.0338	18	C5H4N+
79.0178	23	C5H3O+
79.0417	11	C5H5N+
80.0369	1	C4H4N2+
89.026	1	C6H3N+
90.034	4	C6H4N+
91.0417	3	C6H5N+
93.0336	16	C6H5O+
95.0292	189	C6H4F+
96.0444	2	C5H6NO+
97.0523	1	C5H7NO+
98.0163	1	C5H3FO+
99.0241	11	C5H4FO+
102.034	1	C7H4N+
103.0291	21	C6H3N2+
103.0417	6	C7H5N+
104.0369	135	C6H4N2+
105.0448	98	C6H5N2+
109.045	1	C7H6F+
111.0441	3	C6H7O2+
112.032	3	C6H5FO+
113.0398	375	C6H6FO+
116.037	7	C7H4N2+
117.0447	1	C7H5N2+
118.0525	1	C7H6N2+
120.0319	1	C6H4N2O+
121.0399	7	C6H5N2O+
122.0475	1	C6H6N2O+
123.0243	127	C7H4FO+
123.0353	999	C6H4FN2+
124.0325	7	C7H5FO+
125.0387	2	C10H5+
130.0401	66	C7H4N3+
131.0241	10	C7H3N2O+
131.0479	89	C7H5N3+
132.0557	10	C7H6N3+
133.0448	12	C9H6F+
136.027	7	C6H4N2O2+
139.0541	2	C11H7+
140.0496	2	C10H6N+
145.045	1	C10H6F+
145.0511	1	C7H5N4+
146.0404	1	C9H5FN+
146.0525	2	C10H7F+
150.0663	7	C7H8N3O+
155.0605	2	C10H7N2+
157.045	23	C11H6F+
158.035	1	C8H4N3O+
158.0402	22	C10H5FN+
159.0428	40	C8H5N3O+
160.0505	3	C8H6N3O+
160.0618	1	C7H6N5+
163.0556	1	C10H8FO+
164.0496	5	C12H6N+
170.0527	1	C12H7F+
170.0601	1	C11H8NO+
171.048	1	C11H6FN+
172.0557	4	C11H7FN+
173.0512	8	C10H6FN2+
174.0299	2	C8H4N3O2+
174.0714	2	C11H9FN+
179.0607	1	C12H7N2+
182.0404	5	C12H5FN+
184.0559	20	C12H7FN+
185.0635	5	C12H8FN+
186.0409	3	C8H4N5O+
191.0326	16	C8H5N3O3+
195.0481	2	C13H6FN+
197.0511	1	C12H6FN2+
199.0669	5	C12H8FN2+
209.0511	2	C13H6FN2+
210.0591	2	C13H7FN2+
