Mass spectrum: Fluazifop-butyl; LC-ESI-QFT; MS2; CE: 90; R=35000; [M+H]+
Name: Fluazifop-butyl
Name: 2-[4-[[5-(trifluoromethyl)-2-pyridinyl]oxy]phenoxy]propanoic acid butyl ester
Formula: C19H20F3NO4
Exact mass: 383.13444
SMILES: O=C(OCCCC)C(Oc2ccc(Oc1ncc(cc1)C(F)(F)F)cc2)C
InChI: InChI=1S/C19H20F3NO4/c1-3-4-11-25-18(24)13(2)26-15-6-8-16(9-7-15)27-17-10-5-14(12-23-17)19(20,21)22/h5-10,12-13H,3-4,11H2,1-2H3
Instrument: Q Exactive Orbitrap Thermo Scientific
Instrument type: LC-ESI-QFT
Ms type: MS2
Ion mode: POSITIVE
Ionization: ESI
Fragmentation mode: HCD
Collision energy: 90 (nominal)
Resolution: 35000
Column name: XBridge C18 3.5um, 2.1x50mm, Waters
Retention time: 15.1 min
Base peak: 384.1426
Precursor m/z: 384.1417
Precursor type: [M+H]+
m/z	relative intensity	assigned
53.9977	1	C2NO+
55.0179	1	C3H3O+
57.07	14	C4H9+
63.023	10	C5H3+
64.0309	3	C5H4+
65.0387	463	C5H5+
73.0285	2	C3H5O2+
75.023	37	C6H3+
79.0544	6	C6H7+
81.0336	10	C5H5O+
91.0544	999	C7H7+
92.0258	22	C6H4O+
92.0622	7	C7H8+
93.0336	9	C6H5O+
93.07	3	C7H9+
94.0414	18	C6H6O+
95.0493	30	C6H7O+
103.0544	8	C8H7+
104.0134	23	C6H2NO+
107.0493	3	C7H7O+
109.0286	7	C6H5O2+
109.0649	6	C7H9O+
110.0364	6	C6H6O2+
111.0443	28	C6H7O2+
117.0573	7	C8H7N+
118.0651	2	C8H8N+
119.0493	23	C8H7O+
120.0445	7	C7H6NO+
120.0571	8	C8H8O+
121.0286	18	C7H5O2+
121.0397	2	C6H5N2O+
121.065	2	C8H9O+
130.0654	25	C9H8N+
131.0494	63	C9H7O+
133.045	13	
140.0497	18	C10H6N+
141.0575	212	C10H7N+
144.0259	2	C6H4F2NO+
145.0336	13	C6H5F2NO+
146.0215	44	C6H3F3N+
147.0293	50	C6H4F3N+
148.037	10	C6H5F3N+
152.0435	10	C9H6F2+
157.0887	6	C11H11N+
158.0604	64	C10H8NO+
159.0481	9	C10H6FN+
161.0453	5	C7H6F3N+
163.0244	10	C6H4F3NO+
164.032	335	C6H5F3NO+
167.0733	22	C12H9N+
168.0446	46	C11H6NO+
169.0525	37	C11H7NO+
170.0604	3	C11H8NO+
172.037	7	C8H5F3N+
176.0322	2	C7H5F3NO+
178.0471	6	C7H7F3NO+
179.0192	91	C6H4F3NO2+
180.0384	22	C10H6F2O+
181.0463	11	C10H7F2O+
183.0422	11	C10H6F3+
185.0453	25	C9H6F3N+
186.0541	12	
186.0715	2	C12H9FN+
188.0431	2	C12H6F2+
188.0511	38	C11H7FNO+
190.0466	96	C11H6F2N+
196.0565	5	C10H8F2NO+
198.053	70	C10H7F3N+
199.0605	3	C10H8F3N+
200.0318	6	C9H5F3NO+
200.0446	8	C10H7F3O+
201.0418	12	C11H7NO3+
202.0475	10	C9H7F3NO+
207.0494	23	C11H7F2NO+
208.0574	12	C8H9F3NO2+
209.0451	39	C11H6F3N+
210.053	40	C11H7F3N+
211.0607	40	C11H8F3N+
212.0702	13	C13H10NO2+
214.0669	3	C13H9FNO+
216.0622	5	C13H8F2N+
218.0417	174	C12H6F2NO+
222.053	2	C12H7F3N+
226.0479	35	C11H7F3NO+
226.0842	5	C12H11F3N+
227.0557	186	C11H8F3NO+
234.0365	8	C12H6F2NO2+
235.0609	23	C13H8F3N+
236.0682	7	C13H9F3N+
237.0398	5	C12H6F3NO+
238.0479	502	C12H7F3NO+
239.0563	3	C12H8F3NO+
254.0428	342	C12H7F3NO2+
255.0509	1	C12H8F3NO2+
256.0584	12	C12H9F3NO2+
282.0745	2	C14H11F3NO2+
