Mass spectrum: Norephedrine; LC-ESI-QFT; MS2; CE: 90; R=35000; [M+H]+
Name: Norephedrine
Name: Phenylpropanolamine
Name: 2-amino-1-phenylpropan-1-ol
Formula: C9H13NO
Exact mass: 151.09971
SMILES: CC(C(C1=CC=CC=C1)O)N
InChI: InChI=1S/C9H13NO/c1-7(10)9(11)8-5-3-2-4-6-8/h2-7,9,11H,10H2,1H3
Instrument: Q Exactive Plus Orbitrap Thermo Scientific
Instrument type: LC-ESI-QFT
Ms type: MS2
Ion mode: POSITIVE
Ionization: ESI
Fragmentation mode: HCD
Collision energy: 90 (nominal)
Resolution: 35000
Column name: XBridge C18 3.5um, 2.1x50mm, Waters
Retention time: 2.4 min
Base peak: 152.1067
Precursor m/z: 152.107
Precursor type: [M+H]+
m/z	relative intensity	assigned
53.0386	2	C4H5+
56.0495	82	C3H6N+
57.0335	7	C3H5O+
57.0573	2	C3H7N+
65.0386	8	C5H5+
77.0385	6	C6H5+
79.0542	8	C6H7+
89.0385	1	C7H5+
91.0542	638	C7H7+
92.0621	2	C7H8+
93.0573	2	C6H7N+
93.0699	9	C7H9+
95.0491	7	C6H7O+
102.0465	1	C8H6+
104.0494	16	C7H6N+
105.0449	5	C6H5N2+
105.0698	5	C8H9+
106.0652	10	C7H8N+
115.0543	999	C9H7+
116.062	38	C9H8+
117.0699	453	C9H9+
118.0651	64	C8H8N+
119.073	90	C8H9N+
133.0649	2	C9H9O+
134.0964	51	C9H12N+
143.0605	2	C9H7N2+
