Mass spectrum: Losartan; LC-ESI-QFT; MS2; CE: 90; R=35000; [M-H]-
Name: Losartan
Name: [2-butyl-5-chloranyl-3-[[4-[2-(2H-1,2,3,4-tetrazol-5-yl)phenyl]phenyl]methyl]imidazol-4-yl]methanol
Formula: C22H23ClN6O
Exact mass: 421.15436
SMILES: Clc1nc(n(c1CO)Cc4ccc(c2ccccc2c3[nH]nnn3)cc4)CCCC
InChI: InChI=1S/C22H23ClN6O/c1-2-3-8-20-24-21(23)19(14-30)29(20)13-15-9-11-16(12-10-15)17-6-4-5-7-18(17)22-25-27-28-26-22/h4-7,9-12,30H,2-3,8,13-14H2,1H3,(H,25,26,27,28)
Instrument: Q Exactive Plus Orbitrap Thermo Scientific
Instrument type: LC-ESI-QFT
Ms type: MS2
Ion mode: NEGATIVE
Ionization: ESI
Fragmentation mode: HCD
Collision energy: 90 (nominal)
Resolution: 35000
Column name: XBridge C18 3.5um, 2.1x50mm, Waters
Retention time: 9.0 min
Base peak: 421.1545
Precursor m/z: 421.1549
Precursor type: [M-H]-
m/z	relative intensity	assigned
50.0035	3	C3N-
64.0193	1	C4H2N-
65.0145	5	C3HN2-
65.9985	1	C3NO-
91.0301	8	C5H3N2-
93.0345	5	C6H5O-
100.9912	2	C3H2ClN2-
113.999	294	C4H3ClN2-
115.0067	2	C4H4ClN2-
117.0461	1	C7H5N2-
127.0069	999	C5H4ClN2-
140.0145	7	C6H5ClN2-
141.0225	1	C6H6ClN2-
141.0707	1	C11H9-
141.9938	14	C5H3ClN2O-
145.9887	10	C4H3ClN2O2-
155.0017	10	C6H4ClN2O-
155.0384	1	C7H8ClN2-
157.0538	132	C7H10ClN2-
164.063	1	C13H8-
165.071	16	C13H9-
178.0787	10	C14H10-
179.0865	23	C14H11-
185.0491	4	C8H10ClN2O-
187.0644	8	C8H12ClN2O-
192.0582	1	C14H8O-
193.0657	14	C14H9O-
204.0819	1	C15H10N-
215.0614	7	C15H7N2-
216.0819	4	C16H10N-
228.0696	4	C16H8N2-
229.0776	3	C16H9N2-
230.0977	1	C17H12N-
242.0724	1	C16H8N3-
254.0851	1	C18H10N2-
255.0929	1	C18H11N2-
