Mass spectrum: Difenoconazole; LC-ESI-ITFT; MS2; CE: 75%; R=7500; [M+H]+
Name: Difenoconazole
Name: 1-[[2-[2-chloranyl-4-(4-chloranylphenoxy)phenyl]-4-methyl-1,3-dioxolan-2-yl]methyl]-1,2,4-triazole
Formula: C19H17Cl2N3O3
Exact mass: 405.0647
SMILES: Clc4ccc(Oc1ccc(c(Cl)c1)C2(OCC(O2)C)Cn3ncnc3)cc4
InChI: InChI=1S/C19H17Cl2N3O3/c1-13-9-25-19(27-13,10-24-12-22-11-23-24)17-7-6-16(8-18(17)21)26-15-4-2-14(20)3-5-15/h2-8,11-13H,9-10H2,1H3
Instrument: LTQ Orbitrap XL Thermo Scientific
Instrument type: LC-ESI-ITFT
Ms type: MS2
Ion mode: POSITIVE
Ionization: ESI
Fragmentation mode: HCD
Collision energy: 75 % (nominal)
Resolution: 7500
Column name: XBridge C18 3.5um, 2.1x50mm, Waters
Retention time: 14.1 min
Base peak: 406.0724
Precursor m/z: 406.072
Precursor type: [M+H]+
m/z	relative intensity	assigned
51.0228	11	C4H3+
70.0402	5	C2H4N3+
75.0229	13	C6H3+
77.0387	6	C6H5+
79.0178	7	C5H3O+
86.9995	40	C4H4Cl+
93.0338	4	C6H5O+
98.9995	9	C5H4Cl+
105.0335	3	C7H5O+
110.9995	102	C6H4Cl+
114.9947	5	C5H4ClO+
115.0542	4	C9H7+
128.062	5	C10H8+
129.01	25	C6H6ClO+
129.0699	51	C10H9+
139.0057	683	C6H4ClN2+
140.0024	5	C4H8Cl2N+
141.0102	356	C7H6ClO+
149.0151	14	C9H6Cl+
151.0542	11	C12H7+
152.062	409	C12H8+
153.0698	321	C12H9+
162.023	5	C10H7Cl+
173.0151	11	C11H6Cl+
174.0225	6	C11H7Cl+
179.0602	16	C12H7N2+
180.0567	5	C13H8O+
181.0648	238	C13H9O+
182.9759	16	C9H5Cl2+
187.0308	156	C12H8Cl+
188.0387	967	C12H9Cl+
202.018	73	C12H7ClO+
208.9917	36	C11H7Cl2+
215.0258	149	C13H8ClO+
216.0335	59	C13H9ClO+
223.0075	323	C12H9Cl2+
251.0028	999	C13H9Cl2O+
261.9953	5	C14H8Cl2O+
264.9816	223	C13H7Cl2O2+
273.0319	3	C15H10ClO3+
