Mass spectrum: Carbaryl; LC-ESI-QFT; MS2; CE: 15; R=35000; [M-H]-
Name: Carbaryl
Name: Carbaril
Name: N-methylcarbamic acid 1-naphthalenyl ester
Formula: C12H11NO2
Exact mass: 201.07898
SMILES: c12c(OC(NC)=O)cccc1cccc2
InChI: InChI=1S/C12H11NO2/c1-13-12(14)15-11-8-4-6-9-5-2-3-7-10(9)11/h2-8H,1H3,(H,13,14)
Instrument: Q Exactive Orbitrap Thermo Scientific
Instrument type: LC-ESI-QFT
Ms type: MS2
Ion mode: NEGATIVE
Ionization: ESI
Fragmentation mode: HCD
Collision energy: 15 (nominal)
Resolution: 35000
Column name: XBridge C18 3.5um, 2.1x50mm, Waters
Retention time: 5.4 min
Base peak: 218.0311
Precursor m/z: 200.0717
Precursor type: [M-H]-
m/z	relative intensity	assigned
143.0501	893	C10H7O-
182.0614	2	C12H8NO-
200.0717	999	C12H10NO2-
