Mass spectrum: Nigericin; LC-ESI-QFT; MS2; CE: 45; R=35000; [M-H]-
Name: Nigericin
Name: 2-{6-[(2-{5`-[6-hydroxy-6-(hydroxymethyl)-3,5-dimethyltetrahydro-2h-pyran-2-yl]-2,3`-dimethyloctahydro-2,2`-bifuran-5-yl}-9-methoxy-2,4,10-trimethyl-1,6-dioxaspiro[4.5]dec-7-yl)methyl]-3-methyltetrahydro-2h-pyran-2-yl}propanoic acid
Name: 2-[6-[[2-[5-[5-[6-hydroxy-6-(hydroxymethyl)-3,5-dimethyloxan-2-yl]-3-methyloxolan-2-yl]-5-methyloxolan-2-yl]-7-methoxy-2,4,6-trimethyl-1,10-dioxaspiro[4.5]decan-9-yl]methyl]-3-methyloxan-2-yl]propanoic acid
Formula: C40H68O11
Exact mass: 724.47616
SMILES: CC1CCC(OC1C(C)C(=O)O)CC2CC(C(C3(O2)C(CC(O3)(C)C4CCC(O4)(C)C5C(CC(O5)C6C(CC(C(O6)(CO)O)C)C)C)C)C)OC
InChI: InChI=1S/C40H68O11/c1-21-11-12-28(46-33(21)26(6)36(42)43)17-29-18-30(45-10)27(7)40(48-29)25(5)19-38(9,51-40)32-13-14-37(8,49-32)35-23(3)16-31(47-35)34-22(2)15-24(4)39(44,20-41)50-34/h21-35,41,44H,11-20H2,1-10H3,(H,42,43)
Instrument: Q Exactive Plus Orbitrap Thermo Scientific
Instrument type: LC-ESI-QFT
Ms type: MS2
Ion mode: NEGATIVE
Ionization: ESI
Fragmentation mode: HCD
Collision energy: 45 (nominal)
Resolution: 35000
Column name: XBridge C18 3.5um, 2.1x50mm, Waters
Retention time: 19.7 min
Base peak: 115.9207
Precursor m/z: 723.4689
Precursor type: [M-H]-
m/z	relative intensity	assigned
55.0189	7	C3H3O-
57.0346	180	C3H5O-
58.006	33	C2H2O2-
59.0138	17	C2H3O2-
59.0502	1	C3H7O-
69.0347	13	C4H5O-
71.0139	25	C3H3O2-
71.0503	41	C4H7O-
72.0217	2	C3H4O2-
73.0296	87	C3H5O2-
81.0346	17	C5H5O-
83.0502	19	C5H7O-
84.0217	2	C4H4O2-
85.0295	68	C4H5O2-
85.0659	21	C5H9O-
86.0374	4	C4H6O2-
87.0451	999	C4H7O2-
93.0344	1	C6H5O-
93.071	1	C7H9-
95.0502	12	C6H7O-
97.0294	1	C5H5O2-
97.0658	24	C6H9O-
98.0374	4	C5H6O2-
99.0451	135	C5H7O2-
99.0816	12	C6H11O-
101.0608	868	C5H9O2-
107.0502	8	C7H7O-
107.0866	1	C8H11-
109.0658	26	C7H9O-
111.0452	13	C6H7O2-
111.0815	112	C7H11O-
113.0609	39	C6H9O2-
113.0972	11	C7H13O-
115.0765	7	C6H11O2-
121.0658	13	C8H9O-
123.0453	3	C7H7O2-
123.0816	36	C8H11O-
125.0609	8	C7H9O2-
125.0972	27	C8H13O-
127.0764	40	C7H11O2-
129.0558	3	C6H9O3-
129.0922	12	C7H13O2-
133.066	1	C9H9O-
133.1025	2	C10H13-
135.0816	27	C9H11O-
136.0528	1	C8H8O2-
137.0608	4	C8H9O2-
137.0972	19	C9H13O-
139.0765	39	C8H11O2-
139.1128	8	C9H15O-
141.0922	81	C8H13O2-
143.1077	8	C8H15O2-
147.0816	5	C10H11O-
149.0972	15	C10H13O-
151.0765	17	C9H11O2-
151.1129	89	C10H15O-
153.0922	133	C9H13O2-
155.1079	6	C9H15O2-
157.0868	7	C8H13O3-
159.1028	6	C8H15O3-
159.1177	3	C12H15-
161.0973	4	C11H13O-
161.1336	4	C12H17-
163.1129	10	C11H15O-
164.0842	1	C10H12O2-
165.0921	25	C10H13O2-
165.1284	13	C11H17O-
167.1075	7	C10H15O2-
171.1023	7	C9H15O3-
173.1186	7	C9H17O3-
175.1126	9	C12H15O-
177.1285	39	C12H17O-
179.1079	3	C11H15O2-
179.144	10	C12H19O-
183.1029	1	C10H15O3-
183.1392	4	C11H19O2-
188.1054	13	C9H16O4-
189.1285	4	C13H17O-
189.1649	11	C14H21-
191.1441	30	C13H19O-
193.1238	6	C12H17O2-
195.1389	13	C12H19O2-
197.1546	15	C12H21O2-
201.1131	4	C10H17O4-
213.15	14	C12H21O3-
217.1596	8	C15H21O-
219.1755	8	C15H23O-
267.1604	4	C15H23O4-
267.1964	1	C16H27O3-
279.1971	4	C17H27O3-
297.2072	2	C17H29O4-
339.2181	6	C19H31O5-
359.2596	1	C23H35O3-
377.2705	1	C23H37O4-
395.28	1	C23H39O5-
439.2701	30	C24H39O7-
723.4686	34	C40H67O11-
