Mass spectrum: N4-Acetylsulfamethazine; LC-ESI-ITFT; MS2; CE: 90%; R=30000; [M+H]+
Name: N4-Acetylsulfamethazine
Name: N-[4-[(4,6-dimethyl-2-pyrimidinyl)sulfamoyl]phenyl]acetamide
Formula: C14H16N4O3S
Exact mass: 320.0943
SMILES: O=S(=O)(c1ccc(cc1)NC(=O)C)Nc1nc(cc(n1)C)C
InChI: InChI=1S/C14H16N4O3S/c1-9-8-10(2)16-14(15-9)18-22(20,21)13-6-4-12(5-7-13)17-11(3)19/h4-8H,1-3H3,(H,17,19)(H,15,16,18)
Instrument: LTQ Orbitrap XL Thermo Scientific
Instrument type: LC-ESI-ITFT
Ms type: MS2
Ion mode: POSITIVE
Ionization: ESI
Fragmentation mode: HCD
Collision energy: 90 % (nominal)
Resolution: 30000
Column name: XBridge C18 3.5um, 2.1x50mm, Waters
Retention time: 4.5 min
Base peak: 321.1027
Precursor m/z: 321.1016
Precursor type: [M+H]+
m/z	relative intensity	assigned
54.0338	10	C3H4N+
65.0386	999	C5H5+
66.0338	17	C4H4N+
68.0495	16	C4H6N+
77.0386	26	C6H5+
78.0339	27	C5H4N+
79.0542	47	C6H7+
80.0495	54	C5H6N+
81.0447	14	C4H5N2+
82.0651	29	C5H8N+
83.0603	29	C4H7N2+
92.0495	253	C6H6N+
93.0335	31	C6H5O+
93.0573	45	C6H7N+
94.0651	41	C6H8N+
95.0604	238	C5H7N2+
96.0682	375	C5H8N2+
105.0447	16	C6H5N2+
106.0651	73	C7H8N+
107.0604	61	C6H7N2+
108.0444	438	C6H6NO+
110.06	35	C6H8NO+
122.0713	21	C6H8N3+
123.0791	135	C6H9N3+
124.0869	430	C6H10N3+
125.0709	67	C6H9N2O+
134.06	132	C8H8NO+
196.0868	36	C12H10N3+
198.0898	20	C11H10N4+
211.098	9	C12H11N4+
212.1057	56	C12H12N4+
213.1134	46	C12H13N4+
