Mass spectrum: Mepanipyrim; LC-ESI-QFT; MS2; CE: 45; R=35000; [M+H]+
Name: Mepanipyrim
Name: (4-methyl-6-prop-1-ynyl-pyrimidin-2-yl)-phenyl-amine
Formula: C14H13N3
Exact mass: 223.11095
SMILES: n1c(C#CC)cc(nc1Nc2ccccc2)C
InChI: InChI=1S/C14H13N3/c1-3-7-13-10-11(2)15-14(17-13)16-12-8-5-4-6-9-12/h4-6,8-10H,1-2H3,(H,15,16,17)
Instrument: Q Exactive Orbitrap Thermo Scientific
Instrument type: LC-ESI-QFT
Ms type: MS2
Ion mode: POSITIVE
Ionization: ESI
Fragmentation mode: HCD
Collision energy: 45 (nominal)
Resolution: 35000
Column name: XBridge C18 3.5um, 2.1x50mm, Waters
Retention time: 11.1 min
Base peak: 224.1188
Precursor m/z: 224.1182
Precursor type: [M+H]+
m/z	relative intensity	assigned
65.0388	4	C5H5+
66.0339	1	C4H4N+
77.0387	1	C6H5+
79.0544	11	C6H7+
80.0497	3	C5H6N+
82.0653	2	C5H8N+
90.034	2	C6H4N+
93.0576	2	C6H7N+
94.0653	8	C6H8N+
95.0493	4	C6H7O+
104.0497	14	C7H6N+
105.0449	1	C6H5N2+
106.0654	54	C7H8N+
107.0607	3	C6H7N2+
107.0733	3	C7H9N+
115.0545	2	C9H7+
118.0653	2	C8H8N+
119.0606	6	C7H7N2+
121.0763	19	C7H9N2+
122.0601	1	C7H8NO+
124.076	7	C7H10NO+
131.0607	32	C8H7N2+
132.0685	7	C8H8N2+
139.0869	7	C7H11N2O+
142.0656	9	C10H8N+
143.0608	6	C9H7N2+
143.0733	1	C10H9N+
146.0718	1	C8H8N3+
147.0795	4	C8H9N3+
149.0712	2	C8H9N2O+
156.0812	2	C11H10N+
159.0923	2	C10H11N2+
160.0761	15	C10H10NO+
166.0654	4	C12H8N+
167.0735	2	C12H9N+
168.0686	6	C11H8N2+
174.0917	1	C11H12NO+
180.0812	8	C13H10N+
181.0764	1	C12H9N2+
182.0843	10	C12H10N2+
183.0922	24	C12H11N2+
184.0759	1	C12H10NO+
184.0873	9	C11H10N3+
184.1001	1	C12H12N2+
192.0687	4	C13H8N2+
195.0919	2	C13H11N2+
196.0999	1	C13H12N2+
197.1079	5	C13H13N2+
205.077	1	C14H9N2+
206.0843	9	C14H10N2+
207.0923	25	C14H11N2+
208.0873	8	C13H10N3+
208.0998	4	C14H12N2+
209.0953	35	C13H11N3+
222.1031	8	C14H12N3+
223.111	8	C14H13N3+
224.1187	999	C14H14N3+
