Mass spectrum: Dimethachlor; LC-ESI-ITFT; MS2; CE: 60%; R=7500; [M+H]+
Name: Dimethachlor
Name: 2-chloranyl-N-(2,6-dimethylphenyl)-N-(2-methoxyethyl)ethanamide
Formula: C13H18ClNO2
Exact mass: 255.1021
SMILES: Cc1cccc(C)c1N(CCOC)C(=O)CCl
InChI: InChI=1S/C13H18ClNO2/c1-10-5-4-6-11(2)13(10)15(7-8-17-3)12(16)9-14/h4-6H,7-9H2,1-3H3
Instrument: LTQ Orbitrap XL Thermo Scientific
Instrument type: LC-ESI-ITFT
Ms type: MS2
Ion mode: POSITIVE
Ionization: ESI
Fragmentation mode: HCD
Collision energy: 60 % (nominal)
Resolution: 7500
Column name: XBridge C18 3.5um, 2.1x50mm, Waters
Retention time: 9.1 min
Base peak: 256.1106
Precursor m/z: 256.1099
Precursor type: [M+H]+
m/z	relative intensity	assigned
75.9946	1	C2H3ClN+
76.9789	19	C2H2ClO+
77.0382	2	C6H5+
79.0541	4	C6H7+
103.054	2	C8H7+
105.0699	56	C8H9+
107.0852	1	C8H11+
118.0656	6	C8H8N+
119.0855	4	C9H11+
121.0647	13	C8H9O+
131.073	15	C9H9N+
131.0855	8	C10H11+
132.0808	75	C9H10N+
133.0886	20	C9H11N+
134.0965	3	C9H12N+
144.0806	6	C10H10N+
145.0887	3	C10H11N+
146.0966	20	C10H12N+
147.1042	17	C10H13N+
148.1122	999	C10H14N+
153.0465	2	C9H10Cl+
174.0917	17	C11H12NO+
198.0679	7	C10H13ClNO+
224.0836	684	C12H15ClNO+
