Mass spectrum: 4-Acetamidoantipyrine; LC-ESI-ITFT; MS2; CE: 45%; R=7500; [M+H]+
Name: 4-Acetamidoantipyrine
Name: N-(1,5-dimethyl-3-oxidanylidene-2-phenyl-pyrazol-4-yl)ethanamide
Formula: C13H15N3O2
Exact mass: 245.1164
SMILES: CC(=O)NC=2C(=O)N(c1ccccc1)N(C)C=2C
InChI: InChI=1S/C13H15N3O2/c1-9-12(14-10(2)17)13(18)16(15(9)3)11-7-5-4-6-8-11/h4-8H,1-3H3,(H,14,17)
Instrument: LTQ Orbitrap XL Thermo Scientific
Instrument type: LC-ESI-ITFT
Ms type: MS2
Ion mode: POSITIVE
Ionization: ESI
Fragmentation mode: HCD
Collision energy: 45 % (nominal)
Resolution: 7500
Column name: XBridge C18 3.5um, 2.1x50mm, Waters
Retention time: 3.7 min
Base peak: 246.1244
Precursor m/z: 246.1237
Precursor type: [M+H]+
m/z	relative intensity	assigned
56.0495	140	C3H6N+
77.0386	37	C6H5+
83.0605	672	C4H7N2+
85.0762	32	C4H9N2+
94.0652	63	C6H8N+
96.0807	8	C6H10N+
104.0496	618	C7H6N+
105.0447	5	C6H5N2+
111.0557	14	C5H7N2O+
145.0762	23	C9H9N2+
146.06	19	C9H8NO+
147.0557	9	C8H7N2O+
159.0539	9	C7H5N5+
159.0918	156	C10H11N2+
171.0561	8	C10H7N2O+
171.0919	6	C11H11N2+
172.0637	18	C10H8N2O+
173.071	62	C10H9N2O+
185.0712	14	C11H9N2O+
186.0788	13	C11H10N2O+
186.1039	8	C13H14O+
187.0867	128	C11H11N2O+
189.0892	21	C10H11N3O+
200.0824	6	C11H10N3O+
200.1185	10	C12H14N3+
204.1133	595	C11H14N3O+
213.0899	36	C12H11N3O+
226.0974	17	C13H12N3O+
228.1133	999	C13H14N3O+
