Mass spectrum: Haloperidol; LC-ESI-QFT; MS2; CE: 150; R=35000; [M+H]+
Name: Haloperidol
Name: 4-[4-(4-chlorophenyl)-4-hydroxypiperidin-1-yl]-1-(4-fluorophenyl)butan-1-one
Formula: C21H23ClFNO2
Exact mass: 375.14013
SMILES: C1CN(CCC1(C2=CC=C(C=C2)Cl)O)CCCC(=O)C3=CC=C(C=C3)F
InChI: InChI=1S/C21H23ClFNO2/c22-18-7-5-17(6-8-18)21(26)11-14-24(15-12-21)13-1-2-20(25)16-3-9-19(23)10-4-16/h3-10,26H,1-2,11-15H2
Instrument: Q Exactive Plus Orbitrap Thermo Scientific
Instrument type: LC-ESI-QFT
Ms type: MS2
Ion mode: POSITIVE
Ionization: ESI
Fragmentation mode: HCD
Collision energy: 150 (nominal)
Resolution: 35000
Column name: XBridge C18 3.5um, 2.1x50mm, Waters
Retention time: 6.8 min
Base peak: 376.1475
Precursor m/z: 376.1474
Precursor type: [M+H]+
m/z	relative intensity	assigned
50.0151	12	C4H2+
51.023	5	C4H3+
53.0022	32	C3HO+
55.0179	1	C3H3O+
57.0135	2	C3H2F+
59.0292	1	C3H4F+
61.0072	1	C5H+
63.0229	2	C5H3+
65.0386	7	C5H5+
69.0135	14	C4H2F+
71.0292	51	C4H4F+
73.0086	3	C3H2FO+
74.0151	200	C6H2+
75.0229	999	C6H3+
79.0178	15	C5H3O+
83.0291	9	C5H4F+
89.0022	2	C6HO+
89.0386	3	C7H5+
93.0336	11	C6H5O+
95.0292	189	C6H4F+
99.0241	8	C5H4FO+
102.0462	2	C8H6+
109.0449	8	C7H6F+
111.0441	8	C6H7O2+
112.0319	1	C6H5FO+
113.0397	347	C6H6FO+
115.0543	6	C9H7+
123.0242	69	C7H4FO+
123.0353	634	C6H4FN2+
124.0324	4	C4H8ClFN+
125.0154	1	C7H6Cl+
128.062	2	C10H8+
129.0447	1	C8H5N2+
133.0448	1	C9H6F+
146.0527	3	C10H7F+
