Mass spectrum: Phenylbutazone; LC-ESI-QFT; MS2; CE: 30; R=35000; [M+H]+
Name: Phenylbutazone
Name: 4-butyl-1,2-diphenylpyrazolidine-3,5-dione
Formula: C19H20N2O2
Exact mass: 308.15248
SMILES: CCCCC1C(=O)N(N(C1=O)C2=CC=CC=C2)C3=CC=CC=C3
InChI: InChI=1S/C19H20N2O2/c1-2-3-14-17-18(22)20(15-10-6-4-7-11-15)21(19(17)23)16-12-8-5-9-13-16/h4-13,17H,2-3,14H2,1H3
Instrument: Q Exactive Plus Orbitrap Thermo Scientific
Instrument type: LC-ESI-QFT
Ms type: MS2
Ion mode: POSITIVE
Ionization: ESI
Fragmentation mode: HCD
Collision energy: 30 (nominal)
Resolution: 35000
Column name: XBridge C18 3.5um, 2.1x50mm, Waters
Retention time: 11.3 min
Base peak: 309.1591
Precursor m/z: 309.1598
Precursor type: [M+H]+
m/z	relative intensity	assigned
53.0386	1	C4H5+
55.0179	21	C3H3O+
55.0542	2	C4H7+
56.0495	3	C3H6N+
57.0699	6	C4H9+
65.0386	32	C5H5+
67.0542	1	C5H7+
69.0699	55	C5H9+
71.0855	95	C5H11+
77.0383	15	C6H5+
79.0542	3	C6H7+
81.0699	2	C6H9+
91.0543	10	C7H7+
92.0495	93	C6H6N+
93.0336	150	C6H5O+
93.0574	57	C6H7N+
94.0414	10	C6H6O+
94.0652	192	C6H8N+
95.0492	22	C6H7O+
96.0808	6	C6H10N+
97.0649	51	C6H9O+
97.0887	5	C6H11N+
98.0727	1	C6H10O+
99.0806	6	C6H11O+
104.0495	25	C7H6N+
105.0335	8	C7H5O+
105.0447	4	C6H5N2+
106.0652	37	C7H8N+
107.0492	8	C7H7O+
111.0441	42	C6H7O2+
118.0652	14	C8H8N+
120.0444	999	C7H6NO+
123.0441	4	C7H7O2+
125.0597	19	C7H9O2+
130.0652	18	C9H8N+
131.0731	9	C9H9N+
132.0445	99	C8H6NO+
132.0809	10	C9H10N+
133.052	11	C8H7NO+
134.0601	18	C8H8NO+
134.0965	4	C9H12N+
143.0732	2	C10H9N+
144.081	5	C10H10N+
145.1011	3	C11H13+
146.0601	107	C9H8NO+
146.0965	10	C10H12N+
147.0679	1	C9H9NO+
148.0758	11	C9H10NO+
148.1121	37	C10H14N+
150.0551	2	C8H8NO2+
160.0632	27	C9H8N2O+
160.1122	342	C11H14N+
162.055	14	C9H8NO2+
162.1278	216	C11H16N+
168.081	2	C12H10N+
170.0964	2	C12H12N+
172.1122	49	C12H14N+
173.12	3	C12H15N+
174.0551	36	C10H8NO2+
183.092	3	C12H11N2+
186.0914	12	C12H12NO+
188.1071	629	C12H14NO+
190.1227	497	C12H16NO+
194.0603	5	C13H8NO+
198.0916	3	C13H12NO+
199.1229	1	C13H15N2+
200.1071	19	C13H14NO+
206.1177	11	C12H16NO2+
207.0919	4	C14H11N2+
208.0998	15	C14H12N2+
209.1076	5	C14H13N2+
211.0868	478	C13H11N2O+
212.0704	1	C13H10NO2+
216.1021	99	C13H14NO2+
221.1077	2	C15H13N2+
224.095	6	C14H12N2O+
231.1127	2	C13H15N2O2+
249.1027	1	C16H13N2O+
253.0973	44	C15H13N2O2+
263.1544	39	C18H19N2+
265.1699	20	C18H21N2+
266.1541	5	C18H20NO+
281.1651	22	C18H21N2O+
291.1491	8	C19H19N2O+
309.1599	517	C19H21N2O2+
