Mass spectrum: Pirimiphos-Ethyl; LC-ESI-QFT; MS2; CE: 120%; R=17500; [M+H]+
Name: Pirimiphos-Ethyl
Name: 4-diethoxyphosphinothioyloxy-N,N-diethyl-6-methylpyrimidin-2-amine
Formula: C13H24N3O3PS
Exact mass: 333.1276
SMILES: CCN(CC)C1=NC(=CC(=N1)OP(=S)(OCC)OCC)C
InChI: InChI=1S/C13H24N3O3PS/c1-6-16(7-2)13-14-11(5)10-12(15-13)19-20(21,17-8-3)18-9-4/h10H,6-9H2,1-5H3
Instrument: Exploris 240 Orbitrap Thermo Scientific
Instrument type: LC-ESI-QFT
Ms type: MS2
Ion mode: POSITIVE
Ionization: ESI
Fragmentation mode: HCD
Collision energy: 120 % (nominal)
Resolution: 17500
Column name: XBridge C18 3.5um, 2.1x50mm, Waters
Retention time: 12.748 min
Base peak: 334.1347
Precursor m/z: 334.1349
Precursor type: [M+H]+
m/z	relative intensity	assigned
54.034	24	C3H4N+
58.9951	118	C2H3S+
59.9902	35	CH2NS+
64.9787	245	H2O2P+
66.0339	76	C4H4N+
67.0291	999	C3H3N2+
67.0416	77	C4H5N+
68.013	34	C3H2NO+
69.0083	196	C2HN2O+
71.0605	438	C3H7N2+
78.9402	199	OPS+
80.9736	60	H2O3P+
82.9951	128	C4H3S+
83.9903	201	C3H2NS+
84.0444	456	C4H6NO+
84.9853	143	C2HN2S+
96.9509	805	H2O2PS+
99.0917	220	C5H11N2+
100.0216	736	C4H6NS+
108.0556	282	C5H6N3+
109.0399	207	CH8N3OP+
114.9615	222	H4O3PS+
115.0326	68	C4H7N2S+
137.0714	25	C3H12N3OP+
142.0435	78	C5H8N3S+
153.0486	30	C3H12N3PS+
154.0438	44	C6H8N3S+
