Mass spectrum: Rufinamide; LC-ESI-QFT; MS2; CE: 60; R=35000; [M+H]+
Name: Rufinamide
Name: 1-(2,6-difluorobenzyl)triazole-4-carboxamide
Formula: C10H8F2N4O
Exact mass: 238.06662
SMILES: O=C(c1nnn(c1)Cc2c(F)cccc2F)N
InChI: InChI=1S/C10H8F2N4O/c11-7-2-1-3-8(12)6(7)4-16-5-9(10(13)17)14-15-16/h1-3,5H,4H2,(H2,13,17)
Instrument: Q Exactive Orbitrap Thermo Scientific
Instrument type: LC-ESI-QFT
Ms type: MS2
Ion mode: POSITIVE
Ionization: ESI
Fragmentation mode: HCD
Collision energy: 60 (nominal)
Resolution: 35000
Column name: XBridge C18 3.5um, 2.1x50mm, Waters
Retention time: 5.2 min
Base peak: 239.074
Precursor m/z: 239.0739
Precursor type: [M+H]+
m/z	relative intensity	assigned
57.0135	1	C3H2F+
68.0131	1	C3H2NO+
101.0198	4	C5H3F2+
107.0292	4	C7H4F+
109.0448	3	C7H6F+
121.0449	1	C8H6F+
127.0355	999	C7H5F2+
136.0557	7	C8H7FN+
139.0355	7	C8H5F2+
140.0307	2	C7H4F2N+
141.0512	2	C8H7F2+
142.0464	9	C7H6F2N+
146.0403	2	C9H5FN+
147.0352	1	C8H4FN2+
148.0557	8	C9H7FN+
156.0621	3	C8H8F2N+
163.0669	2	C9H8FN2+
164.0508	1	C9H7FNO+
166.0464	17	C9H6F2N+
167.0542	4	C9H7F2N+
168.062	1	C9H8F2N+
