Mass spectrum: Captan; LC-ESI-QFT; MS2; CE: 90; R=35000; [M+H]+
Name: Captan
Name: 1,2,3,6-tetrahydro-N-(trichloromethylthio)phthalimide
Name: (3aS,7aR)-2-(trichloromethylsulfanyl)-3a,4,7,7a-tetrahydroisoindole-1,3-dione
Formula: C9H8Cl3NO2S
Exact mass: 298.93413
SMILES: N1(C([C@@H]2CC=CC[C@@H]2C1=O)=O)SC(Cl)(Cl)Cl
InChI: InChI=1S/C9H8Cl3NO2S/c10-9(11,12)16-13-7(14)5-3-1-2-4-6(5)8(13)15/h1-2,5-6H,3-4H2/t5-,6+
Instrument: Q Exactive Orbitrap Thermo Scientific
Instrument type: LC-ESI-QFT
Ms type: MS2
Ion mode: POSITIVE
Ionization: ESI
Fragmentation mode: HCD
Collision energy: 90 (nominal)
Resolution: 35000
Column name: XBridge C18 3.5um, 2.1x50mm, Waters
Retention time: 9.4 min
Base peak: 149.0234
Precursor m/z: 299.9414
Precursor type: [M+H]+
m/z	relative intensity	assigned
50.0152	5	C4H2+
53.0387	5	C4H5+
57.0699	1	C4H9+
58.0651	1	C3H8N+
59.0491	1	C3H7O+
59.9903	13	CH2NS+
61.9792	17	CHClN+
62.9633	8	CClO+
63.995	1	CH3ClN+
65.0386	14	C5H5+
66.0464	9	C5H6+
66.9404	362	ClS+
69.0699	2	C5H9+
70.9951	1	C3H3S+
71.0491	1	C4H7O+
77.0385	40	C6H5+
78.0338	19	C5H4N+
78.0464	15	C6H6+
79.0542	999	C6H7+
79.9483	1	CHClS+
80.9561	2	CH2ClS+
81.0699	2	C6H9+
85.9695	21	C2NOS+
88.9789	10	C3H2ClO+
89.0385	3	C7H5+
91.0542	20	C7H7+
93.9513	37	CHClNS+
94.9353	111	CClOS+
95.0491	361	C6H7O+
96.0444	124	C5H6NO+
97.9559	74	CH2Cl2N+
98.9666	2	CH4ClOS+
101.0153	5	C5H6Cl+
104.0495	50	C7H6N+
105.0447	69	C6H5N2+
105.0573	18	C7H7N+
106.0651	54	C7H8N+
107.0493	6	C7H7O+
109.0107	47	C6H5S+
110.006	2	C5H4NS+
110.0185	2	C6H6S+
111.0263	10	C6H7S+
111.9947	5	C5H3ClN+
113.0027	61	C5H4ClN+
113.0153	10	C6H6Cl+
113.9092	200	CCl2S+
114.0106	11	C5H5ClN+
114.9171	13	CHCl2S+
115.0308	1	C6H8Cl+
116.906	88	CCl3+
119.9671	14	C3H3ClNS+
120.9384	12	C2ClNOS+
121.0106	9	C7H5S+
122.0184	2	C7H6S+
123.9352	7	C2Cl2NO+
125.0152	93	C7H6Cl+
127.9123	15	CCl2NS+
129.928	38	CH2Cl2NS+
130.0055	18	C5H5ClNO+
130.9718	9	C5H4ClS+
131.9669	10	C4H3ClNS+
136.0216	67	C7H6NS+
137.0293	5	C7H7NS+
140.0263	6	C7H7ClN+
143.9672	2	C5H3ClNS+
144.9748	15	C5H4ClNS+
147.9716	50	C5H4Cl2N+
148.8779	13	CCl3S+
155.9072	247	C2Cl2NOS+
158.9762	1	C7H5Cl2+
171.9985	2	C7H7ClNS+
179.9435	15	C5H4Cl2NS+
