Mass spectrum: Dexamethasone; LC-ESI-ITFT; MS2; CE: 60%; R=15000; [M+H]+
Name: Dexamethasone
Name: (8S,9R,10S,11S,13S,14S,16R,17R)-9-fluoranyl-10,13,16-trimethyl-11,17-bis(oxidanyl)-17-(2-oxidanylethanoyl)-6,7,8,11,12,14,15,16-octahydrocyclopenta[a]phenanthren-3-one
Formula: C22H29FO5
Exact mass: 392.1999
SMILES: [H][C@@]12C[C@@H](C)[C@](O)(C(=O)CO)[C@@]1(C)C[C@H](O)[C@@]3(F)[C@@]2([H])CCC4=CC(=O)C=C[C@]34C
InChI: InChI=1S/C22H29FO5/c1-12-8-16-15-5-4-13-9-14(25)6-7-19(13,2)21(15,23)17(26)10-20(16,3)22(12,28)18(27)11-24/h6-7,9,12,15-17,24,26,28H,4-5,8,10-11H2,1-3H3/t12-,15+,16+,17+,19+,20+,21+,22+/m1/s1
Instrument: LTQ Orbitrap XL Thermo Scientific
Instrument type: LC-ESI-ITFT
Ms type: MS2
Ion mode: POSITIVE
Ionization: ESI
Fragmentation mode: HCD
Collision energy: 60 % (nominal)
Resolution: 15000
Column name: XBridge C18 3.5um, 2.1x50mm, Waters
Retention time: 9.5 min
Base peak: 393.2068
Precursor m/z: 393.2072
Precursor type: [M+H]+
m/z	relative intensity	assigned
79.0542	45	C6H7+
91.0542	57	C7H7+
93.0697	119	C7H9+
95.0856	122	C7H11+
97.0648	49	C6H9O+
105.0699	167	C8H9+
107.0855	197	C8H11+
109.1011	64	C8H13+
117.0701	40	C9H9+
119.0857	222	C9H11+
121.0648	485	C8H9O+
123.0802	45	C8H11O+
125.06	51	C7H9O2+
128.0624	35	C10H8+
129.0696	32	C10H9+
131.0854	155	C10H11+
133.0649	61	C9H9O+
133.101	58	C10H13+
135.0804	193	C9H11O+
143.0855	202	C11H11+
145.0647	94	C10H9O+
145.1012	64	C11H13+
147.0804	999	C10H11O+
149.0961	51	C10H13O+
155.0856	91	C12H11+
157.1013	38	C12H13+
158.0727	59	C11H10O+
159.0805	280	C11H11O+
161.096	144	C11H13O+
171.0805	384	C12H11O+
173.096	191	C12H13O+
175.1116	31	C12H15O+
179.0856	44	C14H11+
181.1007	32	C14H13+
183.08	48	C13H11O+
185.0958	167	C13H13O+
187.0759	56	C12H11O2+
187.1117	62	C13H15O+
191.0854	33	C15H11+
193.1013	45	C15H13+
194.1088	38	C15H14+
195.0804	67	C14H11O+
196.0881	81	C14H12O+
197.096	124	C14H13O+
199.112	60	C14H15O+
204.0934	63	C16H12+
206.1099	31	C16H14+
207.1171	51	C16H15+
208.0881	85	C15H12O+
209.0962	141	C15H13O+
209.1322	36	C16H17+
210.1037	107	C15H14O+
211.1117	103	C15H15O+
212.1201	51	C15H16O+
213.127	48	C15H17O+
219.1168	97	C17H15+
221.0961	69	C16H13O+
221.1327	33	C17H17+
222.1038	331	C16H14O+
223.1118	147	C16H15O+
224.1196	86	C16H16O+
233.0956	48	C17H13O+
234.1033	51	C17H14O+
235.1116	135	C17H15O+
237.1273	183	C17H17O+
239.1428	78	C17H19O+
245.0959	38	C18H13O+
246.1032	36	C18H14O+
247.1124	52	C18H15O+
248.1194	110	C18H16O+
249.1276	55	C18H17O+
261.127	64	C19H17O+
262.135	72	C19H18O+
263.1429	166	C19H19O+
279.1732	57	C20H23O+
