Mass spectrum: Triflumuron; LC-ESI-QFT; MS2; CE: 90; R=35000; [M+H]+
Name: Triflumuron
Name: 2-chloranyl-N-[[4-(trifluoromethyloxy)phenyl]carbamoyl]benzamide
Formula: C15H10ClF3N2O3
Exact mass: 358.03320
SMILES: O=C(c1ccccc1Cl)NC(=O)Nc2ccc(OC(F)(F)F)cc2
InChI: InChI=1S/C15H10ClF3N2O3/c16-12-4-2-1-3-11(12)13(22)21-14(23)20-9-5-7-10(8-6-9)24-15(17,18)19/h1-8H,(H2,20,21,22,23)
Instrument: Q Exactive Orbitrap Thermo Scientific
Instrument type: LC-ESI-QFT
Ms type: MS2
Ion mode: POSITIVE
Ionization: ESI
Fragmentation mode: HCD
Collision energy: 90 (nominal)
Resolution: 35000
Column name: XBridge C18 3.5um, 2.1x50mm, Waters
Retention time: 13.8 min
Base peak: 359.0407
Precursor m/z: 359.0405
Precursor type: [M+H]+
m/z	relative intensity	assigned
50.0152	5	C4H2+
51.023	2	C4H3+
53.0023	1	C3HO+
65.0386	12	C5H5+
68.9946	3	CF3+
74.015	6	C6H2+
75.0229	62	C6H3+
76.0307	1	C6H4+
77.0386	8	C6H5+
79.0179	4	C5H3O+
84.9839	4	C4H2Cl+
86.9996	37	C4H4Cl+
92.0494	8	C6H6N+
93.0334	36	C6H5O+
93.0573	8	C6H7N+
94.0413	26	C6H6O+
95.0491	69	C6H7O+
98.0362	1	C5H6O2+
102.0338	2	C7H4N+
105.0447	14	C6H5N2+
110.06	2	C6H8NO+
110.9995	35	C6H4Cl+
111.044	67	C6H7O2+
113.0152	41	C6H6Cl+
114.9944	2	C5H4ClO+
120.0444	9	C7H6NO+
121.0395	17	C6H5N2O+
129.0101	233	C6H6ClO+
130.04	10	C7H4N3+
138.0106	21	C7H5ClN+
138.9949	999	C2HF2N2O3+
139.0048	372	
149.0213	1	C3H7ClF3N+
156.021	26	C7H7ClNO+
176.0319	4	C7H5F3NO+
178.0473	4	C7H7F3NO+
