Mass spectrum: Sacubitril; LC-ESI-QFT; MS2; CE: 30%; R=15000; [M+H]+
Name: Sacubitril
Name: AHU-377(Sacubitril)
Name: 4-[[(2S,4R)-5-ethoxy-4-methyl-5-oxidanylidene-1-(4-phenylphenyl)pentan-2-yl]amino]-4-oxidanylidene-butanoic acid
Formula: C24H29NO5
Exact mass: 411.204573
SMILES: CCOC(=O)C(C)CC(CC1=CC=C(C=C1)C2=CC=CC=C2)NC(=O)CCC(=O)O
InChI: InChI=1S/C24H29NO5/c1-3-30-24(29)17(2)15-21(25-22(26)13-14-23(27)28)16-18-9-11-20(12-10-18)19-7-5-4-6-8-19/h4-12,17,21H,3,13-16H2,1-2H3,(H,25,26)(H,27,28)
Instrument: Q Exactive
Instrument type: LC-ESI-QFT
Ms type: MS2
Ion mode: POSITIVE
Ionization: ESI
Fragmentation mode: HCD
Collision energy: 30 % (nominal)
Resolution: 15000
Column name: XBridge C18 3.5um, 2.1x50mm, Waters
Retention time: 10.997 min
Base peak: 412.212
Precursor m/z: 412.2118
Precursor type: [M+H]+
Precursor intensity: 327880907.7
m/z	relative intensity	assigned
100.0393	15	C4H6NO2+
101.0234	13	C4H5O3+
165.07	36	C13H9+
167.0857	32	C13H11+
179.0852	16	C14H11+
193.1012	206	C15H13+
205.1015	17	C16H13+
221.1325	104	C17H17+
231.1167	25	C18H15+
249.1274	45	C18H17O+
266.1539	999	C18H20NO+
320.1645	55	C21H22NO2+
348.1596	23	C22H22NO3+
