Mass spectrum: Cortisone; LC-ESI-QFT; MS2; CE: 180; R=35000; [M+H]+
Name: Cortisone
Name: 17,21-Dihydroxypregn-4-ene-3,11,20-trione
Name: (8S,9S,10R,13S,14S,17R)-17-hydroxy-17-(2-hydroxyacetyl)-10,13-dimethyl-1,2,6,7,8,9,12,14,15,16-decahydrocyclopenta[a]phenanthrene-3,11-dione
Formula: C21H28O5
Exact mass: 360.19367
SMILES: O=C(CO)[C@@]3(O)CC[C@H]2[C@@H]4CC\C1=C\C(=O)CC[C@]1(C)[C@H]4C(=O)C[C@@]23C
InChI: InChI=1S/C21H28O5/c1-19-7-5-13(23)9-12(19)3-4-14-15-6-8-21(26,17(25)11-22)20(15,2)10-16(24)18(14)19/h9,14-15,18,22,26H,3-8,10-11H2,1-2H3/t14-,15-,18+,19-,20-,21-/m0/s1
Instrument: Q Exactive Plus Orbitrap Thermo Scientific
Instrument type: LC-ESI-QFT
Ms type: MS2
Ion mode: POSITIVE
Ionization: ESI
Fragmentation mode: HCD
Collision energy: 180 (nominal)
Resolution: 35000
Column name: XBridge C18 3.5um, 2.1x50mm, Waters
Retention time: 7.3 min
Base peak: 361.2008
Precursor m/z: 361.201
Precursor type: [M+H]+
m/z	relative intensity	assigned
50.0151	205	C4H2+
51.023	297	C4H3+
52.0307	9	C4H4+
53.0022	61	C3HO+
53.0386	260	C4H5+
53.9975	12	C2NO+
55.0179	108	C3H3O+
55.0543	77	C4H7+
57.0335	9	C3H5O+
62.015	18	C5H2+
63.0229	95	C5H3+
65.0386	780	C5H5+
66.0464	33	C5H6+
67.0542	77	C5H7+
67.9893	8	C3O2+
69.0336	2	C4H5O+
74.0151	12	
75.0229	29	C6H3+
76.0307	14	C6H4+
77.0386	339	C6H5+
78.0464	190	C6H6+
79.0542	324	C6H7+
81.0335	51	C5H5O+
81.0698	14	C6H9+
82.0413	9	C5H6O+
83.0491	33	C5H7O+
89.0386	138	C7H5+
90.0463	4	C7H6+
91.0543	999	C7H7+
92.0623	2	C7H8+
93.0699	10	C7H9+
94.0414	39	C6H6O+
95.0492	756	C6H7O+
96.0571	2	C6H8O+
97.0649	6	C6H9O+
102.0464	128	C8H6+
103.0543	193	C8H7+
104.062	22	C8H8+
105.0448	424	C6H5N2+
105.07	87	C8H9+
106.0414	2	C7H6O+
107.0491	63	C7H7O+
109.0647	3	C7H9O+
115.0543	888	C9H7+
116.0621	34	C9H8+
117.0699	48	C9H9+
118.0415	2	C8H6O+
119.0494	12	C8H7O+
119.0857	6	C9H11+
121.0649	3	C8H9O+
126.0465	47	C10H6+
127.0543	74	C10H7+
128.0621	562	C10H8+
129.0447	11	
129.0699	71	C10H9+
130.0779	6	C10H10+
131.0492	36	C9H7O+
132.0571	18	C9H8O+
133.0649	11	C9H9O+
139.0542	52	C11H7+
141.0699	133	C11H9+
142.0778	7	C11H10+
143.0855	2	C11H11+
144.0568	1	C10H8O+
145.0649	53	C10H9O+
147.0805	27	C10H11O+
150.0463	17	C12H6+
151.0544	9	C12H7+
152.0621	247	C12H8+
153.07	69	C12H9+
154.0778	7	C12H10+
155.0604	85	C10H7N2+
157.0652	2	C11H9O+
163.0542	31	C13H7+
164.062	26	C13H8+
165.07	207	C13H9+
166.0776	4	C13H10+
167.0856	7	C13H11+
168.057	12	C12H8O+
169.0649	43	C12H9O+
176.0622	37	C14H8+
177.0699	18	C14H9+
178.0778	59	C14H10+
179.0604	15	C12H7N2+
179.0853	3	C14H11+
181.0649	3	C13H9O+
189.07	56	C15H9+
190.0778	8	C15H10+
191.0856	8	C15H11+
196.0521	2	C13H8O2+
200.0624	4	C16H8+
201.0699	1	C16H9+
202.0777	21	C16H10+
203.086	2	C16H11+
215.0864	3	C17H11+
