Mass spectrum: Praziquantel; LC-ESI-QFT; MS2; CE: 60; R=35000; [M+H]+
Name: Praziquantel
Name: 2-(cyclohexanecarbonyl)-3,6,7,11b-tetrahydro-1H-pyrazino[2,1-a]isoquinolin-4-one
Formula: C19H24N2O2
Exact mass: 312.18378
SMILES: C1CCC(CC1)C(=O)N2CC3C4=CC=CC=C4CCN3C(=O)C2
InChI: InChI=1S/C19H24N2O2/c22-18-13-20(19(23)15-7-2-1-3-8-15)12-17-16-9-5-4-6-14(16)10-11-21(17)18/h4-6,9,15,17H,1-3,7-8,10-13H2
Instrument: Q Exactive Orbitrap Thermo Scientific
Instrument type: LC-ESI-QFT
Ms type: MS2
Ion mode: POSITIVE
Ionization: ESI
Fragmentation mode: HCD
Collision energy: 60 (nominal)
Resolution: 35000
Column name: XBridge C18 3.5um, 2.1x50mm, Waters
Retention time: 10.1 min
Base peak: 313.191
Precursor m/z: 313.1911
Precursor type: [M+H]+
m/z	relative intensity	assigned
53.0386	5	C4H5+
55.0543	23	C4H7+
72.0443	43	C3H6NO+
83.0855	999	C6H11+
105.0699	12	C8H9+
111.0804	1	C7H11O+
115.0541	5	C9H7+
117.057	4	C8H7N+
117.0698	27	C9H9+
118.0651	1	C8H8N+
119.0855	1	C9H11+
128.062	10	C10H8+
129.0698	111	C10H9+
130.0651	21	C9H8N+
131.073	18	C9H9N+
131.0855	1	C10H11+
132.0807	478	C9H10N+
143.0731	1	C10H9N+
144.0808	34	C10H10N+
145.0886	12	C10H11N+
146.0964	194	C10H12N+
155.0602	1	C10H7N2+
156.0805	2	C11H10N+
158.0964	51	C11H12N+
171.0913	1	C11H11N2+
173.1073	6	C11H13N2+
174.0913	627	C11H12NO+
175.1229	28	C11H15N2+
176.1066	1	C11H14NO+
185.1072	12	C12H13N2+
186.0913	5	C12H12NO+
203.1177	200	C12H15N2O+
256.1696	16	C17H22NO+
285.196	1	C18H25N2O+
