Mass spectrum: Oseltamivir; LC-ESI-ITFT; MS2; CE: 35%; R=7500; [M+H]+
Name: Oseltamivir
Name: (3R,4R,5S)-4-acetamido-5-amino-3-(1-ethylpropoxy)cyclohexene-1-carboxylic acid ethyl ester
Formula: C16H28N2O4
Exact mass: 312.2049
SMILES: CCC(CC)OC1C=C(CC(C1NC(=O)C)N)C(=O)OCC
InChI: InChI=1S/C16H28N2O4/c1-5-12(6-2)22-14-9-11(16(20)21-7-3)8-13(17)15(14)18-10(4)19/h9,12-15H,5-8,17H2,1-4H3,(H,18,19)/t13-,14+,15+/m0/s1
Instrument: LTQ Orbitrap XL Thermo Scientific
Instrument type: LC-ESI-ITFT
Ms type: MS2
Ion mode: POSITIVE
Ionization: ESI
Fragmentation mode: CID
Collision energy: 35 % (nominal)
Resolution: 7500
Column name: XBridge C18 3.5um, 2.1x50mm, Waters
Retention time: 7.0 min
Base peak: 313.2132
Precursor m/z: 313.2122
Precursor type: [M+H]+
m/z	relative intensity	assigned
120.0444	3	C7H6NO+
136.076	4	C8H10NO+
137.0707	2	C7H9N2O+
140.071	1	C7H10NO2+
162.055	5	C9H8NO2+
166.0864	106	C9H12NO2+
179.0815	15	C9H11N2O2+
208.097	246	C11H14NO3+
225.1236	999	C11H17N2O3+
243.134	77	C11H19N2O4+
296.1857	112	C16H26NO4+
