Mass spectrum: Niflumic acid; LC-ESI-QFT; MS2; CE: 60; R=35000; [M+H]+
Name: Niflumic acid
Name: 2-[3-(trifluoromethyl)anilino]pyridine-3-carboxylic acid
Formula: C13H9F3N2O2
Exact mass: 282.06161
SMILES: C1=CC(=CC(=C1)NC2=C(C=CC=N2)C(=O)O)C(F)(F)F
InChI: InChI=1S/C13H9F3N2O2/c14-13(15,16)8-3-1-4-9(7-8)18-11-10(12(19)20)5-2-6-17-11/h1-7H,(H,17,18)(H,19,20)
Instrument: Q Exactive Plus Orbitrap Thermo Scientific
Instrument type: LC-ESI-QFT
Ms type: MS2
Ion mode: POSITIVE
Ionization: ESI
Fragmentation mode: HCD
Collision energy: 60 (nominal)
Resolution: 35000
Column name: XBridge C18 3.5um, 2.1x50mm, Waters
Retention time: 12.7 min
Base peak: 283.0682
Precursor m/z: 283.0689
Precursor type: [M+H]+
m/z	relative intensity	assigned
78.0338	10	C5H4N+
96.0444	18	C5H6NO+
121.0396	2	C6H5N2O+
145.026	39	C7H4F3+
168.0682	31	C11H8N2+
173.0322	2	C7H4F3N2+
179.0604	2	C12H7N2+
183.041	1	C10H6F3+
190.0463	3	C11H6F2N+
195.0551	1	C12H7N2O+
196.0632	66	C12H8N2O+
197.051	15	C12H6FN2+
198.0162	1	C9H3F3NO+
210.053	1	C11H7F3N+
215.0616	3	C12H8FN2O+
217.0573	68	C12H7F2N2+
218.0414	11	C12H6F2NO+
225.046	2	C13H6FN2O+
236.0555	1	C12H7F3N2+
237.0635	21	C12H8F3N2+
238.0475	12	C12H7F3NO+
245.0522	319	C13H7F2N2O+
263.0628	10	C13H9F2N2O2+
264.0505	7	C13H7F3N2O+
265.0583	999	C13H8F3N2O+
266.0614	2	C11H8F2N4O2+
283.0689	4	C13H10F3N2O2+
