Mass spectrum: Tricyclazole; LC-ESI-QFT; MS2; CE: 180%; R=17500; [M+H]+
Name: Tricyclazole
Name: 8-methyl-[1,2,4]triazolo[3,4-b][1,3]benzothiazole
Formula: C9H7N3S
Exact mass: 189.0361
SMILES: CC1=C2C(=CC=C1)SC3=NN=CN23
InChI: InChI=1S/C9H7N3S/c1-6-3-2-4-7-8(6)12-5-10-11-9(12)13-7/h2-5H,1H3
Instrument: Exploris 240 Orbitrap Thermo Scientific
Instrument type: LC-ESI-QFT
Ms type: MS2
Ion mode: POSITIVE
Ionization: ESI
Fragmentation mode: HCD
Collision energy: 180 % (nominal)
Resolution: 17500
Column name: XBridge C18 3.5um, 2.1x50mm, Waters
Retention time: 4.550 min
Base peak: 190.0431
Precursor m/z: 190.0433
Precursor type: [M+H]+
m/z	relative intensity	assigned
44.9793	84	CHS+
51.0229	158	C4H3+
65.0386	999	C5H5+
68.9793	176	C3HS+
75.0232	55	C6H3+
76.0185	16	C5H2N+
76.0308	32	C6H4+
77.0384	85	C6H5+
78.0339	15	C5H4N+
78.0464	61	C6H6+
92.0494	138	C6H6N+
102.034	31	C7H4N+
103.0418	48	C7H5N+
104.0493	67	C7H6N+
105.0448	39	C6H5N2+
108.003	31	C6H4S+
109.0106	224	C6H5S+
121.0104	76	C7H5S+
130.04	23	C7H4N3+
136.022	16	C7H6NS+
