Mass spectrum: Chlorpyrifos-methyl; LC-ESI-ITFT; MS2; CE: 75%; R=7500; [M+H]+
Name: Chlorpyrifos-methyl
Name: dimethoxy-sulfanylidene-(3,5,6-trichloropyridin-2-yl)oxy-{5}-phosphane
Formula: C7H7Cl3NO3PS
Exact mass: 320.8950
SMILES: Clc1c(OP(=S)(OC)OC)nc(Cl)c(Cl)c1
InChI: InChI=1S/C7H7Cl3NO3PS/c1-12-15(16,13-2)14-7-5(9)3-4(8)6(10)11-7/h3H,1-2H3
Instrument: LTQ Orbitrap XL Thermo Scientific
Instrument type: LC-ESI-ITFT
Ms type: MS2
Ion mode: POSITIVE
Ionization: ESI
Fragmentation mode: HCD
Collision energy: 75 % (nominal)
Resolution: 7500
Column name: XBridge C18 3.5um, 2.1x50mm, Waters
Retention time: 14.0 min
Base peak: 321.9026
Precursor m/z: 321.9023
Precursor type: [M+H]+
m/z	relative intensity	assigned
62.0184	58	C2H6S+
78.9943	863	CH4O2P+
93.0099	47	C2H6O2P+
97.0051	14	CH6O3P+
106.9449	27	C3HCl2+
109.0053	23	C2H6O3P+
124.982	904	C2H6O2PS+
127.0155	296	C3H8ClO3+
142.9926	999	C2H8O3PS+
150.9167	32	Cl2H4NPS+
161.9504	16	C4H2ClNO2P+
167.9167	41	C3HCl2NOP+
176.92	129	C4HClNOPS+
179.9169	49	C5HCl3N+
197.9273	40	C4H3Cl2NO2P+
211.8888	155	C4HCl2NOPS+
229.9004	39	C5H3Cl3NOS+
