Mass spectrum: Anabaenopeptin NZ857; LC-ESI-QFT; MS2; CE: 45%; R=17500; [M+H]+
Name: Anabaenopeptin NZ857
Name: 2-[[12-butan-2-yl-3,9-bis[2-(4-hydroxyphenyl)ethyl]-7-methyl-2,5,8,11,14-pentaoxo-1,4,7,10,13-pentazacyclononadec-15-yl]carbamoylamino]-3-phenylpropanoic acid
Formula: C45H59N7O10
Exact mass: 857.4323
SMILES: CCC(C)C1C(=O)NC(C(=O)N(CC(=O)NC(C(=O)NCCCCC(C(=O)N1)NC(=O)NC(CC2=CC=CC=C2)C(=O)O)CCC3=CC=C(C=C3)O)C)CCC4=CC=C(C=C4)O
InChI: InChI=1S/C45H59N7O10/c1-4-28(2)39-42(58)48-36(24-18-30-15-21-33(54)22-16-30)43(59)52(3)27-38(55)47-35(23-17-29-13-19-32(53)20-14-29)40(56)46-25-9-8-12-34(41(57)51-39)49-45(62)50-37(44(60)61)26-31-10-6-5-7-11-31/h5-7,10-11,13-16,19-22,28,34-37,39,53-54H,4,8-9,12,17-18,23-27H2,1-3H3,(H,46,56)(H,47,55)(H,48,58)(H,51,57)(H,60,61)(H2,49,50,62)
Instrument: Q Exactive Plus Orbitrap Thermo Scientific
Instrument type: LC-ESI-QFT
Ms type: MS2
Ion mode: POSITIVE
Ionization: ESI
Fragmentation mode: HCD
Collision energy: 45 % (nominal)
Resolution: 17500
Column name: XBridge C18 3.5um, 2.1x50mm, Waters
Retention time: 7.905 min
Base peak: 164.9845
Precursor m/z: 858.4396
Precursor type: [M+H]+
m/z	relative intensity	assigned
67.0542	3	C5H7+
69.0702	4	C5H9+
70.065	3	C4H8N+
84.0808	999	C5H10N+
86.06	216	C4H8NO+
86.0964	65	C5H12N+
101.1075	3	C5H13N2+
103.0542	3	C8H7+
105.0697	4	C8H9+
107.0492	66	C7H7O+
111.0915	2	C6H11N2+
112.0758	5	C6H10NO+
114.055	139	C5H8NO2+
120.0808	217	C8H10N+
121.065	4	C8H9O+
126.1278	16	C8H16N+
127.0866	5	C6H11N2O+
129.0924	4	
129.1022	83	C6H13N2O+
130.0862	4	C6H12NO2+
133.0646	7	C9H9O+
136.0755	52	C8H10NO+
139.0864	5	C7H11N2O+
140.0707	11	C7H10NO2+
146.0599	3	C9H8NO+
146.0961	13	C10H12N+
147.1124	7	C6H15N2O2+
148.0759	5	C9H10NO+
150.0912	69	C9H12NO+
154.0967	2	C5H10N6+
155.0813	27	C7H11N2O2+
162.0554	3	C9H8NO2+
165.0545	10	C9H9O3+
169.1334	8	C9H17N2O+
173.0921	38	C7H13N2O3+
176.1065	14	C11H14NO+
181.0969	4	C9H13N2O2+
182.0811	8	C9H12NO3+
188.1433	28	C13H18N+
190.1226	14	C12H16NO+
197.1649	17	C11H21N2O+
204.1389	13	C13H18NO+
205.1341	64	C12H17N2O+
214.1921	7	C13H26O2+
218.1543	4	H22N6O7+
222.1613	4	C14H22O2+
223.145	13	C12H19N2O2+
224.1764	6	C12H22N3O+
229.1335	3	C14H17N2O+
231.15	52	H21N7O7+
233.1289	19	C13H17N2O2+
238.1235	17	C2H18N6O7+
240.1716	118	C14H24O3+
243.114	8	H17N7O8+
249.1617	3	C2H25N4O9+
250.1563	13	C15H22O3+
252.1408	6	C5H22N3O8+
257.1298	11	C3H21N4O9+
258.1443	11	C11H20N3O4+
263.1769	21	C3H27N4O9+
265.157	6	C17H19N3+
266.1877	24	C16H26O3+
267.1826	5	C15H25NO3+
268.167	12	C15H24O4+
274.1565	13	C17H22O3+
275.1425	3	C20H19O+
283.1459	10	C5H23N4O9+
284.1412	4	C4H22N5O9+
286.1781	7	C15H26O5+
290.1523	7	C18H18N4+
294.1845	13	C18H22N4+
311.2109	28	C18H25N5+
318.1482	7	C19H18N4O+
320.1633	113	C19H20N4O+
325.2265	14	C19H27N5+
336.1589	6	C21H22NO3+
342.2215	16	C25H28N+
346.1813	2	C9H26N6O8+
349.1947	9	C27H25+
359.2039	2	C14H27N6O5+
361.2645	12	C11H35N7O6+
372.233	8	C12H32N6O7+
384.2343	4	C15H34N3O8+
387.2443	43	C14H35N4O8+
401.2593	6	C13H35N7O7+
403.2425	4	C17H33N5O6+
405.22	9	C28H27N3+
412.2289	11	C16H34N3O9+
413.262	8	C18H39NO9+
417.2559	8	C15H37N4O9+
438.2084	11	C17H32N3O10+
455.2365	7	C34H31O+
