Mass spectrum: Thiacloprid-amide; LC-ESI-ITFT; MS2; CE: 30%; R=7500; [M+H]+
Name: Thiacloprid-amide
Name: [3-(6-Chloro-3-pyridylmethyl)thiazolidin-2-ylidene]urea
Formula: C10H11ClN4OS
Exact mass: 270.0342
SMILES: Clc1ncc(cc1)CN2C(=N/C(=O)N)/SCC2
InChI: InChI=1S/C10H11ClN4OS/c11-8-2-1-7(5-13-8)6-15-3-4-17-10(15)14-9(12)16/h1-2,5H,3-4,6H2,(H2,12,16)/b14-10-
Instrument: LTQ Orbitrap XL Thermo Scientific
Instrument type: LC-ESI-ITFT
Ms type: MS2
Ion mode: POSITIVE
Ionization: ESI
Fragmentation mode: HCD
Collision energy: 30 % (nominal)
Resolution: 7500
Column name: XBridge C18 3.5um, 2.1x50mm, Waters
Retention time: 4.6 min
Base peak: 271.0418
Precursor m/z: 271.0415
Precursor type: [M+H]+
m/z	relative intensity	assigned
90.0341	1	C6H4N+
101.0168	5	C3H5N2S+
103.0325	11	C3H7N2S+
126.0105	437	C6H5ClN+
129.0118	6	C4H5N2OS+
143.0373	2	C6H8ClN2+
168.0325	6	C7H7ClN3+
186.014	27	C8H9ClNS+
192.0591	23	C9H10N3S+
211.0094	3	C9H8ClN2S+
228.0359	999	C9H11ClN3S+
229.0195	3	C9H10ClN2OS+
254.0151	535	C10H9ClN3OS+
271.0409	101	C10H12ClN4OS+
