Mass spectrum: Metoxuron; LC-ESI-QFT; MS2; CE: 150; R=35000; [M+H]+
Name: Metoxuron
Name: 3-(3-chloro-4-methoxyphenyl)-1,1-dimethylurea
Formula: C10H13ClN2O2
Exact mass: 228.06656
SMILES: Clc1cc(ccc1OC)NC(=O)N(C)C
InChI: InChI=1S/C10H13ClN2O2/c1-13(2)10(14)12-7-4-5-9(15-3)8(11)6-7/h4-6H,1-3H3,(H,12,14)
Instrument: Q Exactive Plus Orbitrap Thermo Scientific
Instrument type: LC-ESI-QFT
Ms type: MS2
Ion mode: POSITIVE
Ionization: ESI
Fragmentation mode: HCD
Collision energy: 150 (nominal)
Resolution: 35000
Column name: XBridge C18 3.5um, 2.1x50mm, Waters
Retention time: 6.1 min
Base peak: 229.0737
Precursor m/z: 229.0738
Precursor type: [M+H]+
m/z	relative intensity	assigned
50.0151	27	C4H2+
51.023	96	C4H3+
52.0182	153	C3H2N+
53.0022	4	C3HO+
56.0131	236	C2H2NO+
62.0151	1	C5H2+
63.0229	16	C5H3+
65.0022	1	C4HO+
65.0385	7	C5H5+
72.0444	999	C3H6NO+
72.984	1	C3H2Cl+
74.0151	2	C6H2+
75.0229	10	C6H3+
77.0384	1	C6H5+
78.0338	62	C5H4N+
79.0178	26	C5H3O+
80.0131	138	C4H2NO+
84.9838	1	C4H2Cl+
85.9917	5	C4H3Cl+
91.0417	1	C6H5N+
95.0491	4	C6H7O+
105.0447	1	C6H5N2+
106.0287	23	C6H4NO+
113.9867	2	C5H3ClO+
114.0105	4	C5H5ClN+
125.9865	4	C6H3ClO+
