Mass spectrum: Linezolid; LC-ESI-QFT; MS2; CE: 75; R=35000; [M+H]+
Name: Linezolid
Name: N-[[(5S)-3-(3-fluoro-4-morpholin-4-ylphenyl)-2-oxo-1,3-oxazolidin-5-yl]methyl]acetamide
Formula: C16H20FN3O4
Exact mass: 337.14378
SMILES: CC(=O)NC[C@H]1CN(C(=O)O1)C2=CC(=C(C=C2)N3CCOCC3)F
InChI: InChI=1S/C16H20FN3O4/c1-11(21)18-9-13-10-20(16(22)24-13)12-2-3-15(14(17)8-12)19-4-6-23-7-5-19/h2-3,8,13H,4-7,9-10H2,1H3,(H,18,21)/t13-/m0/s1
Instrument: Q Exactive Orbitrap Thermo Scientific
Instrument type: LC-ESI-QFT
Ms type: MS2
Ion mode: POSITIVE
Ionization: ESI
Fragmentation mode: HCD
Collision energy: 75 (nominal)
Resolution: 35000
Column name: XBridge C18 3.5um, 2.1x50mm, Waters
Retention time: 5.6 min
Base peak: 338.1509
Precursor m/z: 338.1511
Precursor type: [M+H]+
m/z	relative intensity	assigned
56.0495	230	C3H6N+
60.0444	18	C2H6NO+
65.0385	2	C5H5+
68.0493	2	C4H6N+
72.0443	7	C3H6NO+
74.0599	3	C3H8NO+
80.0493	2	C5H6N+
83.029	4	C5H4F+
84.0443	28	C4H6NO+
85.0521	10	C4H7NO+
86.0599	2	C4H8NO+
89.0385	8	C7H5+
90.0338	2	C6H4N+
91.0541	15	C7H7+
92.0494	9	C6H6N+
96.0371	2	C6H5F+
96.0444	4	C5H6NO+
97.0448	13	C6H6F+
98.04	7	C5H5FN+
98.06	4	C5H8NO+
103.0542	13	C8H7+
104.0495	33	C7H6N+
105.0446	7	C6H5N2+
106.0652	10	C7H8N+
107.0292	7	C7H4F+
108.037	3	C7H5F+
109.032	3	C6H4FN+
109.0447	53	C7H6F+
110.04	12	C6H5FN+
110.0525	23	C7H7F+
111.0478	65	C6H6FN+
112.0557	9	C6H7FN+
113.0398	2	C6H6FO+
115.0541	69	C9H7+
116.0494	47	C8H6N+
117.0572	59	C8H7N+
118.065	49	C8H8N+
121.0449	4	C8H6F+
122.04	55	C7H5FN+
122.0525	2	C8H7F+
123.0352	9	C6H4FN2+
123.0477	79	C7H6FN+
123.0603	11	C8H8F+
124.0556	114	C7H7FN+
125.0509	44	C6H6FN2+
125.0635	11	C7H8FN+
126.0589	7	C6H7FN2+
126.0713	12	C7H9FN+
128.0493	12	C9H6N+
129.0447	8	C8H5N2+
129.0572	13	C9H7N+
130.0651	70	C9H8N+
131.0603	59	C8H7N2+
131.0729	9	C9H9N+
132.0681	13	C8H8N2+
132.0808	4	C9H10N+
133.0447	2	C9H6F+
133.0759	26	C8H9N2+
134.0399	10	C8H5FN+
134.0599	57	C8H8NO+
135.0478	504	C8H6FN+
136.0556	290	C8H7FN+
137.0509	119	C7H6FN2+
137.0634	220	C8H8FN+
138.0587	37	C7H7FN2+
138.0713	56	C8H9FN+
139.0665	64	C7H8FN2+
140.0495	3	C10H6N+
140.0744	2	C7H9FN2+
141.0571	12	C10H7N+
142.0526	14	C9H6N2+
142.0651	70	C10H8N+
143.0604	51	C9H7N2+
143.0727	18	C10H9N+
144.0557	11	C8H6N3+
144.0683	7	C9H8N2+
144.0807	30	C10H10N+
145.0646	3	C5H8FN3O+
145.076	12	C9H9N2+
146.0401	39	C9H5FN+
146.0836	3	C9H10N2+
147.0478	29	C9H6FN+
147.0918	4	C9H11N2+
148.0556	999	C9H7FN+
149.0509	159	C8H6FN2+
149.0635	140	C9H8FN+
150.0587	65	C8H7FN2+
150.0713	132	C9H9FN+
151.0665	264	C8H8FN2+
151.0791	13	C9H10FN+
152.0505	19	C8H7FNO+
152.0743	92	C8H9FN2+
153.0821	119	C8H10FN2+
154.04	2	C9H4N3+
154.0651	28	C11H8N+
154.0899	2	C8H11FN2+
155.0602	16	C10H7N2+
156.068	46	C10H8N2+
156.0806	3	C11H10N+
157.076	40	C10H9N2+
158.0839	8	C10H10N2+
159.0916	15	C10H11N2+
160.0429	2	C9H5FN2+
160.0558	9	C10H7FN+
160.0758	4	C10H10NO+
161.0511	12	C9H6FN2+
161.0634	68	C10H8FN+
162.0466	16	C13H6+
162.0595	26	C9H7FN2+
162.0712	205	C10H9FN+
163.0665	283	C9H8FN2+
163.0791	28	C10H10FN+
164.0506	14	C9H7FNO+
164.0744	44	C9H9FN2+
164.0864	13	C10H11FN+
165.0822	286	C9H10FN2+
166.0899	12	C9H11FN2+
167.0979	20	C9H12FN2+
168.0681	15	C11H8N2+
169.0759	198	C11H9N2+
170.0839	26	C11H10N2+
170.0958	2	C12H12N+
171.0915	46	C11H11N2+
172.0555	66	C11H7FN+
173.0509	9	C10H6FN2+
173.0635	4	C11H8FN+
174.0587	264	C10H7FN2+
174.0712	15	C11H9FN+
175.0665	45	C10H8FN2+
176.0745	40	C10H9FN2+
176.0871	7	C11H11FN+
177.0821	135	C10H10FN2+
178.09	19	C10H11FN2+
179.0378	4	C9H6FNO2+
179.0614	42	C9H8FN2O+
179.0977	46	C10H12FN2+
180.0816	16	C10H11FNO+
181.0774	23	C9H10FN2O+
181.0895	35	C10H12FNO+
182.0839	7	C12H10N2+
183.0916	8	C12H11N2+
185.1075	13	C12H13N2+
187.0665	69	C11H8FN2+
188.0743	17	C11H9FN2+
189.0822	131	C11H10FN2+
190.09	21	C11H11FN2+
191.0978	149	C11H12FN2+
192.082	2	C11H11FNO+
192.1052	3	C11H13FN2+
194.0841	2	C10H11FN2O+
195.0926	92	C10H12FN2O+
196.0642	2	C9H9FN2O2+
196.1004	39	C10H13FN2O+
197.0719	11	C9H10FN2O2+
197.1076	12	C10H14FN2O+
201.0822	11	C12H10FN2+
203.098	3	C12H12FN2+
205.0771	10	C11H10FN2O+
205.1144	2	C12H14FN2+
207.0925	3	C11H12FN2O+
208.1127	2	C12H15FNO+
209.1086	27	C11H14FN2O+
210.1121	2	C11H16NO3+
215.1181	22	C13H15N2O+
221.1082	3	C12H14FN2O+
223.124	3	C12H16FN2O+
235.1242	4	C13H16FN2O+
238.0985	4	C11H13FN3O2+
251.1065	2	C12H14FN3O2+
252.1146	3	C12H15FN3O2+
