Mass spectrum: Dimefuron; LC-ESI-QFT; MS2; CE: 90; R=35000; [M+H]+
Name: Dimefuron
Name: 3-[4-(5-tert-butyl-2-keto-1,3,4-oxadiazol-3-yl)-3-chloro-phenyl]-1,1-dimethyl-urea
Formula: C15H19ClN4O3
Exact mass: 338.11457
SMILES: O=C2O\C(=N/N2c1c(Cl)cc(NC(=O)N(C)C)cc1)C(C)(C)C
InChI: InChI=1S/C15H19ClN4O3/c1-15(2,3)12-18-20(14(22)23-12)11-7-6-9(8-10(11)16)17-13(21)19(4)5/h6-8H,1-5H3,(H,17,21)
Instrument: Q Exactive Orbitrap Thermo Scientific
Instrument type: LC-ESI-QFT
Ms type: MS2
Ion mode: POSITIVE
Ionization: ESI
Fragmentation mode: HCD
Collision energy: 90 (nominal)
Resolution: 35000
Column name: XBridge C18 3.5um, 2.1x50mm, Waters
Retention time: 9.8 min
Base peak: 339.122
Precursor m/z: 339.1218
Precursor type: [M+H]+
m/z	relative intensity	assigned
56.0133	9	C2H2NO+
61.9793	1	CHClN+
71.0604	5	C3H7N2+
72.0444	999	C3H6NO+
76.0181	25	C5H2N+
78.0338	3	C5H4N+
79.029	2	C4H3N2+
84.9839	4	C4H2Cl+
103.0291	4	C6H3N2+
104.0369	6	C6H4N2+
105.0447	4	C6H5N2+
111.9948	48	C5H3ClN+
112.99	2	C4H2ClN2+
114.0104	1	C5H5ClN+
120.032	1	C6H4N2O+
123.9948	3	C6H3ClN+
130.0053	7	C5H5ClNO+
131.0237	3	C7H3N2O+
132.0317	7	C7H4N2O+
139.0057	23	C6H4ClN2+
139.9897	128	C6H3ClNO+
167.0006	20	C7H4ClN2O+
