Mass spectrum: Sotalol; LC-ESI-ITFT; MS2; CE: 45%; R=15000; [M+H]+
Name: Sotalol
Name: N-[4-[1-hydroxy-2-(isopropylamino)ethyl]phenyl]methanesulfonamide
Formula: C12H20N2O3S
Exact mass: 272.1195
SMILES: CC(C)NCC(C1=CC=C(C=C1)NS(=O)(=O)C)O
InChI: InChI=1S/C12H20N2O3S/c1-9(2)13-8-12(15)10-4-6-11(7-5-10)14-18(3,16)17/h4-7,9,12-15H,8H2,1-3H3
Instrument: LTQ Orbitrap XL Thermo Scientific
Instrument type: LC-ESI-ITFT
Ms type: MS2
Ion mode: POSITIVE
Ionization: ESI
Fragmentation mode: HCD
Collision energy: 45 % (nominal)
Resolution: 15000
Column name: XBridge C18 3.5um, 2.1x50mm, Waters
Retention time: 1.6 min
Base peak: 273.1277
Precursor m/z: 273.1267
Precursor type: [M+H]+
m/z	relative intensity	assigned
106.065	30	C7H8N+
107.0729	14	C7H9N+
116.0496	2	C8H6N+
117.0572	8	C8H7N+
118.0651	10	C8H8N+
119.0602	3	C7H7N2+
132.0676	1	C8H8N2+
133.076	505	C8H9N2+
134.0838	152	C8H10N2+
161.964	1	C7NO2S+
175.1229	6	C11H15N2+
176.1308	239	C11H16N2+
198.0584	5	C9H12NO2S+
213.0693	999	C9H13N2O2S+
255.1162	341	C12H19N2O2S+
