Mass spectrum: 5-Hydroxy Diclofenac; LC-ESI-QFT; MS2; CE: 45; R=35000; [M-H]-
Name: 5-Hydroxy Diclofenac
Name: 5-hydroxydiclofenac
Name: 2-[2-(2,6-dichloroanilino)-5-hydroxyphenyl]acetic acid
Formula: C14H11Cl2NO3
Exact mass: 311.01160
SMILES: C1=CC(=C(C(=C1)Cl)NC2=C(C=C(C=C2)O)CC(=O)O)Cl
InChI: InChI=1S/C14H11Cl2NO3/c15-10-2-1-3-11(16)14(10)17-12-5-4-9(18)6-8(12)7-13(19)20/h1-6,17-18H,7H2,(H,19,20)
Instrument: Q Exactive Plus Orbitrap Thermo Scientific
Instrument type: LC-ESI-QFT
Ms type: MS2
Ion mode: NEGATIVE
Ionization: ESI
Fragmentation mode: HCD
Collision energy: 45 (nominal)
Resolution: 35000
Column name: XBridge C18 3.5um, 2.1x50mm, Waters
Retention time: 10.4 min
Base peak: 310.0042
Precursor m/z: 310.0043
Precursor type: [M-H]-
m/z	relative intensity	assigned
166.0662	145	C12H8N-
167.0502	152	C12H7O-
187.0195	34	C11H6ClN-
188.0274	3	C11H7ClN-
192.0452	22	C13H6NO-
193.0534	36	C13H7NO-
194.0611	653	C13H8NO-
198.0558	16	C12H8NO2-
200.0278	4	C12H7ClN-
202.0436	9	C12H9ClN-
215.0145	366	C12H6ClNO-
228.0224	39	C13H7ClNO-
229.03	551	C13H8ClNO-
230.0378	999	C13H9ClNO-
230.9518	5	C11HCl2N2-
266.0145	650	C13H10Cl2NO-
