Mass spectrum: N,N-Didodecyl-1-dodecanamine; LC-ESI-QFT; MS2; CE: 90%; R=15000; [M+H]+
Name: N,N-Didodecyl-1-dodecanamine
Name: Tridodecylamine
Name: N,N-didodecyldodecan-1-amine
Formula: C36H75N
Exact mass: 521.5899514
SMILES: CCCCCCCCCCCCN(CCCCCCCCCCCC)CCCCCCCCCCCC
InChI: InChI=1S/C36H75N/c1-4-7-10-13-16-19-22-25-28-31-34-37(35-32-29-26-23-20-17-14-11-8-5-2)36-33-30-27-24-21-18-15-12-9-6-3/h4-36H2,1-3H3
Instrument: Exploris 240 Thermo Scientific
Instrument type: LC-ESI-QFT
Ms type: MS2
Ion mode: POSITIVE
Ionization: ESI
Fragmentation mode: HCD
Collision energy: 90 % (nominal)
Resolution: 15000
Column name: XBridge C18 3.5um, 2.1x50mm, Waters
Retention time: 17.857 min
Base peak: 522.597
Precursor m/z: 522.5972
Precursor type: [M+H]+
m/z	relative intensity	assigned
57.0698	817	C4H9+
71.0857	80	C5H11+
202.0776	999	C16H10+
