Mass spectrum: Fenamiphos-sulfone; LC-ESI-QFT; MS2; CE: 15; R=35000; [M+H]+
Name: Fenamiphos-sulfone
Name: Fenamiphos sulphone
Name: Ethyl 3-methyl-4-(methylsulfonyl)phenyl isopropylphosphoramidate
Formula: C13H22NO5PS
Exact mass: 335.09563
SMILES: CCOP(=O)(NC(C)C)OC1=CC(=C(C=C1)S(=O)(=O)C)C
InChI: InChI=1S/C13H22NO5PS/c1-6-18-20(15,14-10(2)3)19-12-7-8-13(11(4)9-12)21(5,16)17/h7-10H,6H2,1-5H3,(H,14,15)
Instrument: Q Exactive Plus Orbitrap Thermo Scientific
Instrument type: LC-ESI-QFT
Ms type: MS2
Ion mode: POSITIVE
Ionization: ESI
Fragmentation mode: HCD
Collision energy: 15 (nominal)
Resolution: 35000
Column name: XBridge C18 3.5um, 2.1x50mm, Waters
Retention time: 7.5 min
Base peak: 336.1023
Precursor m/z: 336.1029
Precursor type: [M+H]+
m/z	relative intensity	assigned
188.046	1	C11H8O3+
257.1166	2	C12H20NO3P+
266.0248	44	C8H13NO5PS+
277.0298	1	C10H14O5PS+
294.056	50	C10H17NO5PS+
308.0716	383	C11H19NO5PS+
336.1028	999	C13H23NO5PS+
