Mass spectrum: Omethoate; LC-ESI-QFT; MS2; CE: 120%; R=17500; [M+H]+
Name: Omethoate
Name: 2-dimethoxyphosphorylsulfanyl-N-methylacetamide
Formula: C5H12NO4PS
Exact mass: 213.0225
SMILES: CNC(=O)CSP(=O)(OC)OC
InChI: InChI=1S/C5H12NO4PS/c1-6-5(7)4-12-11(8,9-2)10-3/h4H2,1-3H3,(H,6,7)
Instrument: Exploris 240 Orbitrap Thermo Scientific
Instrument type: LC-ESI-QFT
Ms type: MS2
Ion mode: POSITIVE
Ionization: ESI
Fragmentation mode: HCD
Collision energy: 120 % (nominal)
Resolution: 17500
Column name: XBridge C18 3.5um, 2.1x50mm, Waters
Retention time: 1.956 min
Base peak: 214.0296
Precursor m/z: 214.0297
Precursor type: [M+H]+
m/z	relative intensity	assigned
61.0106	47	C2H5S+
62.0186	34	C2H6S+
76.0215	91	C2H6NS+
78.9943	999	CH4O2P+
97.0049	35	CH6O3P+
109.0049	409	C2H6O3P+
124.9821	296	C2H6O2PS+
127.0155	800	C2H8O4P+
142.9924	91	C2H8O3PS+
