Mass spectrum: Thiamethoxam; LC-ESI-ITFT; MS2; CE: 35%; R=30000; [M+H]+
Name: Thiamethoxam
Name: 3-((2-Chloro-5-thiazolyl)methyl)tetrahydro-5-methyl-N-nitro-4H-1,3,5-oxadiazin-4-imine
Formula: C8H10ClN5O3S
Exact mass: 291.0193
SMILES: Clc1ncc(s1)CN2\C(=N\[N+]([O-])=O)N(C)COC2
InChI: InChI=1S/C8H10ClN5O3S/c1-12-4-17-5-13(8(12)11-14(15)16)3-6-2-10-7(9)18-6/h2H,3-5H2,1H3/b11-8+
Instrument: LTQ Orbitrap XL Thermo Scientific
Instrument type: LC-ESI-ITFT
Ms type: MS2
Ion mode: POSITIVE
Ionization: ESI
Fragmentation mode: CID
Collision energy: 35 % (nominal)
Resolution: 30000
Column name: XBridge C18 3.5um, 2.1x50mm, Waters
Retention time: 4.1 min
Base peak: 292.0274
Precursor m/z: 292.0266
Precursor type: [M+H]+
m/z	relative intensity	assigned
131.9669	17	C4H3ClNS+
168.0764	1	C7H10N3O2+
174.9726	2	C5H4ClN2OS+
179.0381	1	C7H7N4S+
180.0463	4	C7H8N4S+
181.0541	3	C7H9N4S+
182.0621	1	C7H10N4S+
210.057	307	C8H10N4OS+
211.0646	999	C8H11N4OS+
227.0595	4	C8H11N4O2S+
245.0256	43	C8H10ClN4OS+
246.0335	117	C8H11ClN4OS+
248.0253	30	C8H11ClN3O2S+
262.0283	5	C8H11ClN4O2S+
