Mass spectrum: Antipyrine; LC-ESI-ITFT; MS2; CE: 75%; R=15000; [M+H]+
Name: Antipyrine
Name: Phenazone
Name: 1,5-dimethyl-2-phenyl-3-pyrazolone
Formula: C11H12N2O
Exact mass: 188.0950
SMILES: CN1N(C(=O)C=C1C)C2=CC=CC=C2
InChI: InChI=1S/C11H12N2O/c1-9-8-11(14)13(12(9)2)10-6-4-3-5-7-10/h3-8H,1-2H3
Instrument: LTQ Orbitrap XL Thermo Scientific
Instrument type: LC-ESI-ITFT
Ms type: MS2
Ion mode: POSITIVE
Ionization: ESI
Fragmentation mode: HCD
Collision energy: 75 % (nominal)
Resolution: 15000
Column name: XBridge C18 3.5um, 2.1x50mm, Waters
Retention time: 4.6 min
Base peak: 189.1027
Precursor m/z: 189.1022
Precursor type: [M+H]+
m/z	relative intensity	assigned
53.0384	7	C4H5+
56.0495	405	C3H6N+
58.0651	277	C3H8N+
65.0386	76	C5H5+
68.0495	17	C4H6N+
69.0573	14	C4H7N+
70.0651	14	C4H8N+
77.0385	122	C6H5+
79.0542	18	C6H7+
81.0447	57	C4H5N2+
91.0542	106	C7H7+
92.0495	28	C6H6N+
94.0651	23	C6H8N+
95.0491	10	C6H7O+
95.0604	61	C5H7N2+
96.0445	20	C5H6NO+
96.0682	158	C5H8N2+
98.06	101	C5H8NO+
103.0542	54	C8H7+
104.0495	540	C7H6N+
105.0335	29	C7H5O+
105.0447	36	C6H5N2+
105.0573	13	C7H7N+
105.0698	43	C8H9+
106.0651	426	C7H8N+
111.055	9	C5H7N2O+
115.0542	37	C9H7+
117.0572	66	C8H7N+
117.0699	173	C9H9+
118.0651	218	C8H8N+
120.0445	12	C7H6NO+
120.0808	202	C8H10N+
129.0573	17	C9H7N+
130.0651	257	C9H8N+
131.0603	56	C8H7N2+
131.0729	283	C9H9N+
132.0682	53	C8H8N2+
132.0807	126	C9H10N+
133.0523	49	C8H7NO+
133.076	26	C8H9N2+
134.0963	39	C9H12N+
143.0729	13	C10H9N+
144.0807	242	C10H10N+
145.0647	81	C10H9O+
145.076	99	C9H9N2+
145.0884	10	C10H11N+
146.0838	251	C9H10N2+
146.0963	48	C10H12N+
147.0917	449	C9H11N2+
148.0755	21	C9H10NO+
149.0709	36	C8H9N2O+
157.0522	55	C10H7NO+
158.0603	12	C10H8NO+
159.0917	14	C10H11N2+
160.0998	13	C10H12N2+
161.1073	162	C10H13N2+
172.0755	51	C11H10NO+
173.0708	18	C10H9N2O+
174.0787	241	C10H10N2O+
189.1022	999	C11H13N2O+
