Mass spectrum: Florfenicol; LC-ESI-QFT; MS2; CE: 90; R=35000; [M-H]-
Name: Florfenicol
Name: 2,2-dichloro-N-{3-fluoro-1-hydroxy-1-[4-(methylsulfonyl)phenyl]propan-2-yl}acetamide
Name: 2,2-dichloro-N-[3-fluoro-1-hydroxy-1-(4-methylsulfonylphenyl)propan-2-yl]acetamide
Formula: C12H14Cl2FNO4S
Exact mass: 357.00046
SMILES: CS(=O)(=O)C1=CC=C(C=C1)C(C(CF)NC(=O)C(Cl)Cl)O
InChI: InChI=1S/C12H14Cl2FNO4S/c1-21(19,20)8-4-2-7(3-5-8)10(17)9(6-15)16-12(18)11(13)14/h2-5,9-11,17H,6H2,1H3,(H,16,18)
Instrument: Q Exactive Plus Orbitrap Thermo Scientific
Instrument type: LC-ESI-QFT
Ms type: MS2
Ion mode: NEGATIVE
Ionization: ESI
Fragmentation mode: HCD
Collision energy: 90 (nominal)
Resolution: 35000
Column name: XBridge C18 3.5um, 2.1x50mm, Waters
Retention time: 4.6 min
Base peak: 355.9929
Precursor m/z: 355.9932
Precursor type: [M-H]-
m/z	relative intensity	assigned
63.9625	999	O2S-
78.9859	875	CH3O2S-
82.9461	257	CHCl2-
91.0192	3	C6H3O-
93.0349	2	C6H5O-
105.0345	129	C7H5O-
107.9414	2	C2Cl2N-
119.0502	793	C8H7O-
121.0295	667	C7H5O2-
123.0453	9	C7H7O2-
123.9988	3	C6H4OS-
130.0421	3	C9H6O-
139.9939	28	C6H4O2S-
141.0014	2	C6H5O2S-
144.0455	9	C9H6NO-
145.0294	2	C9H5O2-
146.0248	3	C8H4NO2-
149.0245	14	C8H5O3-
155.0172	32	C7H7O2S-
168.9965	197	C7H5O3S-
170.0044	2	C7H6O3S-
