Mass spectrum: 3,4,5-Trimethacarb; LC-ESI-QFT; MS2; CE: 120%; R=17500; [M+H]+
Name: 3,4,5-Trimethacarb
Name: 3,4,5-Trimethylphenyl methylcarbamate
Name: (3,4,5-trimethylphenyl) N-methylcarbamate
Formula: C11H15NO2
Exact mass: 193.1103
SMILES: CC1=CC(=CC(=C1C)C)OC(=O)NC
InChI: InChI=1S/C11H15NO2/c1-7-5-10(14-11(13)12-4)6-8(2)9(7)3/h5-6H,1-4H3,(H,12,13)
Instrument: Exploris 240 Orbitrap Thermo Scientific
Instrument type: LC-ESI-QFT
Ms type: MS2
Ion mode: POSITIVE
Ionization: ESI
Fragmentation mode: HCD
Collision energy: 120 % (nominal)
Resolution: 17500
Column name: XBridge C18 3.5um, 2.1x50mm, Waters
Retention time: 7.147 min
Base peak: 137.096
Precursor m/z: 194.1176
Precursor type: [M+H]+
m/z	relative intensity	assigned
51.0229	25	C4H3+
53.0386	37	C4H5+
55.0178	11	C3H3O+
55.0543	35	C4H7+
58.0287	25	C2H4NO+
65.0385	32	C5H5+
67.0542	119	C5H7+
77.0386	182	C6H5+
78.0464	42	C6H6+
79.0542	170	C6H7+
81.0699	32	C6H9+
91.0542	171	C7H7+
93.0698	35	C7H9+
94.0776	27	C7H10+
95.049	40	C6H7O+
103.0539	50	C8H7+
104.062	50	C8H8+
107.0491	999	C7H7O+
109.101	31	C8H13+
119.0852	17	C9H11+
121.0648	184	C8H9O+
122.0726	415	C8H10O+
135.0803	21	C9H11O+
137.0961	16	C9H13O+
