Mass spectrum: Clothianidin; LC-ESI-ITFT; MS2; CE: 45%; R=15000; [M-H]-
Name: Clothianidin
Name: 1-[(2-chloranyl-1,3-thiazol-5-yl)methyl]-2-methyl-3-nitro-guanidine
Name: 1-[(2-chloro-1,3-thiazol-5-yl)methyl]-2-methyl-3-nitroguanidine
Formula: C6H8ClN5O2S
Exact mass: 249.0087
SMILES: Clc1ncc(s1)CN/C(=N/C)N[N+]([O-])=O
InChI: InChI=1S/C6H8ClN5O2S/c1-8-6(11-12(13)14)10-3-4-2-9-5(7)15-4/h2H,3H2,1H3,(H2,8,10,11)
Instrument: LTQ Orbitrap XL Thermo Scientific
Instrument type: LC-ESI-ITFT
Ms type: MS2
Ion mode: NEGATIVE
Ionization: ESI
Fragmentation mode: HCD
Collision energy: 45 % (nominal)
Resolution: 15000
Column name: XBridge C18 3.5um, 2.1x50mm, Waters
Retention time: 4.9 min
Base peak: 248.0024
Precursor m/z: 248.0014
Precursor type: [M-H]-
m/z	relative intensity	assigned
57.9757	999	CNS-
122.0361	162	C5H4N3O-
150.0006	395	C5H2N4S-
165.0243	812	C6H5N4S-
166.0321	216	C6H6N4S-
195.9466	192	C2HClN4O3S-
