Mass spectrum: S-Methoprene; LC-ESI-QFT; MS2; CE: 60%; R=17500; [M+H]+
Name: S-Methoprene
Name: (+)-Methoprene;(7S)-Methoprene;ZR 2458
Name: propan-2-yl 11-methoxy-3,7,11-trimethyldodeca-2,4-dienoate
Formula: C19H34O3
Exact mass: 310.2508
SMILES: CC(C)OC(=O)C=C(C)C=CCC(C)CCCC(C)(C)OC
InChI: InChI=1S/C19H34O3/c1-15(2)22-18(20)14-17(4)11-8-10-16(3)12-9-13-19(5,6)21-7/h8,11,14-16H,9-10,12-13H2,1-7H3
Instrument: Exploris 240 Orbitrap Thermo Scientific
Instrument type: LC-ESI-QFT
Ms type: MS2
Ion mode: POSITIVE
Ionization: ESI
Fragmentation mode: HCD
Collision energy: 60 % (nominal)
Resolution: 17500
Column name: XBridge C18 3.5um, 2.1x50mm, Waters
Retention time: 16.124 min
Base peak: 279.2317
Precursor m/z: 311.2581
Precursor type: [M+H]+
m/z	relative intensity	assigned
55.0542	355	C4H7+
57.0699	161	C4H9+
67.0542	292	C5H7+
69.0699	795	C5H9+
79.0541	447	C6H7+
81.0699	999	C6H9+
83.0856	154	C6H11+
85.0648	47	C5H9O+
91.0543	45	C7H7+
93.0698	599	C7H9+
95.0491	98	C6H7O+
95.0855	780	C7H11+
97.065	106	C6H9O+
97.101	93	C7H13+
105.0701	62	C8H9+
107.0854	621	C8H11+
109.0652	59	C7H9O+
109.1011	449	C8H13+
111.0442	62	C6H7O2+
111.0804	99	C7H11O+
121.0648	99	C8H9O+
121.1012	462	C9H13+
123.08	42	C8H11O+
123.1168	113	C9H15+
125.0598	61	C7H9O2+
125.096	40	C8H13O+
135.0805	56	C9H11O+
135.117	363	C10H15+
137.1325	83	C10H17+
145.1015	68	C11H13+
163.1115	33	C11H15O+
