Mass spectrum: Rifaximin; LC-ESI-QFT; MS2; CE: 45; R=35000; [M-H]-
Name: Rifaximin
Name: (7S,9E,11S,12R,13S,14R,15R,16R,17S,18S,19E,21Z)-2,15,17,36-Tetrahydroxy-11-methoxy-3,7,12,14,16,18,22,30-octamethyl-6,23-dioxo-8,37-dioxa-24,27,33-triazahexacyclo[23.10.1.14,7.05,35.026,34.027, 32]heptatriaconta-1(35),2,4,9,19,21,25(36),26(34),28,30,32-undecaen-13-yl acetate
Formula: C43H51N3O11
Exact mass: 785.35236
SMILES: CC1C=CC=C(C(=O)NC2=C(C3=C(C4=C(C(=C3O)C)OC(C4=O)(OC=CC(C(C(C(C(C(C1O)C)O)C)OC(=O)C)C)OC)C)C5=C2N6C=CC(=CC6=N5)C)O)C
InChI: InChI=1S/C43H51N3O11/c1-19-14-16-46-28(18-19)44-32-29-30-37(50)25(7)40-31(29)41(52)43(9,57-40)55-17-15-27(54-10)22(4)39(56-26(8)47)24(6)36(49)23(5)35(48)20(2)12-11-13-21(3)42(53)45-33(34(32)46)38(30)51/h11-18,20,22-24,27,35-36,39,48-51H,1-10H3,(H,45,53)
Instrument: Q Exactive Plus Orbitrap Thermo Scientific
Instrument type: LC-ESI-QFT
Ms type: MS2
Ion mode: NEGATIVE
Ionization: ESI
Fragmentation mode: HCD
Collision energy: 45 (nominal)
Resolution: 35000
Column name: XBridge C18 3.5um, 2.1x50mm, Waters
Retention time: 10.9 min
Base peak: 784.3448
Precursor m/z: 784.3451
Precursor type: [M-H]-
m/z	relative intensity	assigned
57.0346	4	C3H5O-
59.0138	95	C2H3O2-
83.0502	11	C5H7O-
85.0294	3	C4H5O2-
97.0659	2	C6H9O-
105.071	4	C8H9-
107.0503	3	C7H7O-
108.0454	2	C6H6NO-
111.0452	1	C6H7O2-
121.0534	1	C7H7NO-
121.0659	16	C8H9O-
123.0816	76	C8H11O-
125.0607	13	C7H9O2-
136.0767	28	C8H10NO-
151.0764	12	C9H11O2-
164.0717	9	C9H10NO2-
277.0855	11	C16H11N3O2-
277.0987	1	C17H13N2O2-
279.0787	1	C16H11N2O3-
290.0936	4	C17H12N3O2-
291.1013	19	C17H13N3O2-
292.0854	1	C17H12N2O3-
292.1102	4	C17H14N3O2-
293.0793	4	C16H11N3O3-
293.0933	2	C17H13N2O3-
294.089	4	C16H12N3O3-
304.1091	9	C18H14N3O2-
305.0798	16	C17H11N3O3-
306.0884	43	C17H12N3O3-
307.0963	14	C17H13N3O3-
308.1041	43	C17H14N3O3-
309.076	3	C16H11N3O4-
317.0939	2	C19H13N2O3-
318.0864	5	C15H14N2O6-
319.1091	3	C19H15N2O3-
320.0675	4	C17H10N3O4-
320.104	5	C18H14N3O3-
330.0883	5	C19H12N3O3-
331.0966	3	C19H13N3O3-
332.104	44	C19H14N3O3-
333.0753	19	C18H11N3O4-
333.0897	13	C19H13N2O4-
333.1122	38	C19H15N3O3-
334.0835	23	C18H12N3O4-
334.1193	8	C19H16N3O3-
342.0874	1	C20H12N3O3-
343.0732	1	C20H11N2O4-
343.0966	4	C20H13N3O3-
344.082	14	C23H10N3O-
344.1043	3	C20H14N3O3-
345.0888	17	C20H13N2O4-
345.1095	1	C17H17N2O6-
346.096	6	C20H14N2O4-
346.1197	5	C20H16N3O3-
347.1038	547	C20H15N2O4-
348.0984	2	C19H14N3O4-
356.1027	1	C21H14N3O3-
358.0828	12	C20H12N3O4-
358.1187	7	C18H18N2O6-
359.0912	198	C20H13N3O4-
360.0991	999	C20H14N3O4-
361.1068	262	C20H15N3O4-
362.1146	146	C20H16N3O4-
370.1189	7	C22H16N3O3-
371.1037	12	C22H15N2O4-
372.0986	5	C21H14N3O4-
373.1057	21	C21H15N3O4-
374.1145	16	C21H16N3O4-
376.071	1	C20H12N2O6-
382.1554	1	C24H20N3O2-
384.1345	1	C23H18N3O3-
386.0781	46	C21H12N3O5-
386.1135	6	C22H16N3O4-
387.0857	37	C21H13N3O5-
388.0937	60	C21H14N3O5-
393.0971	16	C20H15N3O6-
396.1359	4	C24H18N3O3-
398.1508	2	C24H20N3O3-
400.0928	3	C22H14N3O5-
402.1093	21	C22H16N3O5-
403.1173	7	C22H17N3O5-
404.1252	5	C22H18N3O5-
410.15	6	C25H20N3O3-
412.1318	1	C24H18N3O4-
424.1286	1	C25H18N3O4-
426.1107	1	C26H18O6-
426.146	5	C25H20N3O4-
438.11	3	C25H16N3O5-
439.1652	4	C27H23N2O4-
440.125	2	C25H18N3O5-
440.1979	8	C27H26N3O3-
441.1332	12	C25H19N3O5-
442.1434	1	C27H22O6-
452.1252	5	C26H18N3O5-
454.1407	89	C26H20N3O5-
458.1708	2	C26H24N3O5-
464.1609	6	C28H22N3O4-
466.1408	2	C27H20N3O5-
468.1925	6	C28H26N3O4-
482.172	37	C28H24N3O5-
483.18	2	C28H25N3O5-
484.1878	6	C28H26N3O5-
510.1668	3	C29H24N3O6-
512.1827	11	C29H26N3O6-
692.2935	1	C37H44N2O11-
