Mass spectrum: 2-(Methylsulfanyl)-1,3-benzothiazole; LC-ESI-QFT; MS2; CE: 180; R=35000; [M+H]+
Name: 2-(Methylsulfanyl)-1,3-benzothiazole
Name: 2-(Methylthio)benzothiazole (2-Me-S-Benzothiazole)
Name: 2-Methylmercaptobenzothiazole
Formula: C8H7NS2
Exact mass: 181.00199
SMILES: CSC1=NC2=CC=CC=C2S1
InChI: InChI=1S/C8H7NS2/c1-10-8-9-6-4-2-3-5-7(6)11-8/h2-5H,1H3
Instrument: Q Exactive Plus Orbitrap Thermo Scientific
Instrument type: LC-ESI-QFT
Ms type: MS2
Ion mode: POSITIVE
Ionization: ESI
Fragmentation mode: HCD
Collision energy: 180 (nominal)
Resolution: 35000
Column name: XBridge C18 3.5um, 2.1x50mm, Waters
Retention time: 10.0 min
Base peak: 182.0086
Precursor m/z: 182.0093
Precursor type: [M+H]+
m/z	relative intensity	assigned
50.0151	39	C4H2+
51.0229	19	C4H3+
52.0181	13	C3H2N+
52.0307	4	C4H4+
53.0022	22	C3HO+
53.0385	23	C4H5+
53.9974	6	C2NO+
54.0464	11	C4H6+
57.9871	68	C2H2S+
58.995	1	C2H3S+
59.9663	3	COS+
61.0072	3	C5H+
62.015	15	C5H2+
63.0229	224	C5H3+
63.9435	125	S2+
64.0181	10	
64.0307	88	C5H4+
65.0385	999	C5H5+
66.0463	21	C5H6+
68.9792	630	C3HS+
69.9871	164	C3H2S+
70.9949	41	C3H3S+
71.9901	9	C2H2NS+
75.0228	5	C6H3+
76.018	5	C5H2N+
76.0306	47	C6H4+
77.0384	53	C6H5+
78.0337	9	C5H4N+
79.0415	18	C5H5N+
80.9793	10	
81.0333	3	C5H5O+
81.9871	197	C4H2S+
82.9948	17	C4H3S+
84.0027	24	C4H4S+
90.0338	25	C6H4N+
91.0416	61	C6H5N+
92.9793	47	C5HS+
94.0412	5	C6H6O+
94.9949	163	C5H3S+
95.049	75	C6H7O+
96.0027	281	C5H4S+
97.0105	8	C5H5S+
99.9435	5	C3S2+
101.9466	16	C2NS2+
103.0415	19	C7H5N+
105.0446	48	C6H5N2+
106.9949	22	C6H3S+
108.0027	174	C6H4S+
109.0105	245	C6H5S+
122.0057	57	C6H4NS+
123.0135	121	C6H5NS+
127.9925	18	
132.998	3	C7H3NS+
134.0057	10	C7H4NS+
135.0135	69	C7H5NS+
138.967	5	C6H3S2+
139.9747	13	C6H4S2+
140.97	8	C5H3NS2+
165.9779	6	C7H4NS2+
166.9855	8	C7H5NS2+
