Mass spectrum: Paroxetine; LC-ESI-QFT; MS2; CE: 60; R=35000; [M+H]+
Name: Paroxetine
Name: 3-[(1,3-Benzodioxol-5-yloxy)methyl]-4-(4-fluorophenyl)piperidine
Name: 3-(1,3-benzodioxol-5-yloxymethyl)-4-(4-fluorophenyl)piperidine
Formula: C19H20FNO3
Exact mass: 329.14272
SMILES: C1CNCC(C1C2=CC=C(C=C2)F)COC3=CC4=C(C=C3)OCO4
InChI: InChI=1S/C19H20FNO3/c20-15-3-1-13(2-4-15)17-7-8-21-10-14(17)11-22-16-5-6-18-19(9-16)24-12-23-18/h1-6,9,14,17,21H,7-8,10-12H2
Instrument: Q Exactive Plus Orbitrap Thermo Scientific
Instrument type: LC-ESI-QFT
Ms type: MS2
Ion mode: POSITIVE
Ionization: ESI
Fragmentation mode: HCD
Collision energy: 60 (nominal)
Resolution: 35000
Column name: XBridge C18 3.5um, 2.1x50mm, Waters
Retention time: 7.8 min
Base peak: 330.1493
Precursor m/z: 330.15
Precursor type: [M+H]+
m/z	relative intensity	assigned
53.0022	6	C3HO+
53.9974	1	C2NO+
56.0495	75	C3H6N+
57.0573	14	C3H7N+
58.0652	11	C3H8N+
65.0386	9	C5H5+
67.0542	7	C5H7+
68.0495	45	C4H6N+
68.9971	1	C3HO2+
69.0573	1	C4H7N+
70.0651	999	C4H8N+
71.0729	11	C4H9N+
79.0542	1	C6H7+
81.0335	1	C5H5O+
82.0651	42	C5H8N+
83.0729	8	C5H9N+
84.0808	16	C5H10N+
86.06	6	C4H8NO+
93.0335	24	C6H5O+
95.0492	1	C6H7O+
96.0808	10	C6H10N+
97.0886	13	C6H11N+
103.0542	23	C8H7+
109.0285	22	C6H5O2+
109.0449	127	C7H6F+
111.0441	6	C6H7O2+
115.0542	5	C9H7+
116.062	1	C9H8+
119.0492	1	C8H7O+
121.0284	4	C7H5O2+
121.0448	5	C8H6F+
122.0526	2	C8H7F+
123.0441	27	C7H7O2+
123.0605	129	C8H8F+
128.0621	4	C10H8+
133.0448	8	C9H6F+
134.0529	3	C9H7F+
135.0605	153	C9H8F+
136.0684	38	C9H9F+
137.0761	2	C9H10F+
138.0312	1	C7H6O3+
138.0714	5	C8H9FN+
139.039	6	C7H7O3+
143.0856	5	C11H11+
146.0527	7	C10H7F+
147.0441	2	C9H7O2+
147.0605	33	C10H8F+
148.0559	3	C9H7FN+
148.0683	26	C10H9F+
149.0762	15	C10H10F+
150.0715	22	C9H9FN+
150.084	2	C10H11F+
151.0391	97	C8H7O3+
160.0683	3	C11H9F+
161.0762	68	C11H10F+
163.0918	82	C11H12F+
164.0871	20	C10H11FN+
175.0389	1	C10H7O3+
175.092	4	C12H12F+
176.0468	1	C10H8O3+
176.0994	3	C12H13F+
178.1027	37	C11H13FN+
190.1027	2	C12H13FN+
192.1183	118	C12H15FN+
330.1492	2	C19H21FNO3+
