Mass spectrum: Nystatin; LC-ESI-QFT; MS2; CE: 30; R=35000; [M-H]-
Name: Nystatin
Name: (1S,3R,4R,7R,9R,11R,15S,16R,17R,18S,19E,21E,25E,27E,29E,31E,33R,35S,36R,37S)-33-[(3-Amino-3,6-dideoxy-?-D-mannopyranosyl)oxy]-1,3,4,7,9,11,17,37-octahydroxy-15,16,18-trimethyl-13-oxo-14,39-dioxabic yclo[33.3.1]nonatriaconta-19,21,25,27,29,31-hexaene-36-carboxylic acid
Formula: C47H75NO17
Exact mass: 925.50350
SMILES: CC1C=CC=CCCC=CC=CC=CC=CC(CC2C(C(CC(O2)(CC(C(CCC(CC(CC(CC(=O)OC(C(C1O)C)C)O)O)O)O)O)O)O)C(=O)O)OC3C(C(C(C(O3)C)O)N)O
InChI: InChI=1S/C47H75NO17/c1-27-17-15-13-11-9-7-5-6-8-10-12-14-16-18-34(64-46-44(58)41(48)43(57)30(4)63-46)24-38-40(45(59)60)37(54)26-47(61,65-38)25-36(53)35(52)20-19-31(49)21-32(50)22-33(51)23-39(55)62-29(3)28(2)42(27)56/h5-6,8,10-18,27-38,40-44,46,49-54,56-58,61H,7,9,19-26,48H2,1-4H3,(H,59,60)/b6-5+,10-8+,13-11+,14-12+,17-15+,18-16+/t27-,28-,29-,30+,31+,32+,33+,34-,35+,36+,37-,38-,40+,41-,42+,43+,44-,46-,47+/m0/s1
Instrument: Q Exactive Orbitrap Thermo Scientific
Instrument type: LC-ESI-QFT
Ms type: MS2
Ion mode: NEGATIVE
Ionization: ESI
Fragmentation mode: HCD
Collision energy: 30 (nominal)
Resolution: 35000
Column name: XBridge C18 3.5um, 2.1x50mm, Waters
Retention time: 11.6 min
Base peak: 924.4966
Precursor m/z: 924.4962
Precursor type: [M-H]-
m/z	relative intensity	assigned
65.0396	8	C5H5-
67.0189	12	C4H3O-
67.0553	12	C5H7-
69.0346	224	C4H5O-
70.0298	8	C3H4NO-
71.0138	137	C3H3O2-
72.0091	6	C2H2NO2-
72.9931	7	C2HO3-
73.0295	40	C3H5O2-
74.0248	1	C2H4NO2-
81.0346	9	C5H5O-
83.0502	128	C5H7O-
85.0295	113	C4H5O2-
86.0247	60	C3H4NO2-
87.0088	29	C3H3O3-
87.0452	6	C4H7O2-
88.0404	345	C3H6NO2-
93.0346	94	C6H5O-
95.0139	1	C5H3O2-
95.0503	20	C6H7O-
96.0454	1	C5H6NO-
97.0295	20	C5H5O2-
97.0658	1	C6H9O-
99.0451	6	C5H7O2-
100.0404	11	C4H6NO2-
102.056	1	C4H8NO2-
105.0346	8	C7H5O-
105.071	3	C8H9-
107.0502	7	C7H7O-
107.0867	7	C8H11-
109.0294	3	C6H5O2-
109.0659	9	C7H9O-
110.0374	4	C6H6O2-
111.0452	999	C6H7O2-
112.0485	8	CH8N2O4-
113.0608	6	C6H9O2-
115.0401	401	C5H7O3-
118.051	3	C4H8NO3-
119.0503	4	C8H7O-
119.0867	1	C9H11-
121.0297	1	C7H5O2-
121.0659	12	C8H9O-
122.0611	1	C7H8NO-
123.0452	278	C7H7O2-
124.0484	1	C2H8N2O4-
125.0608	14	C7H9O2-
127.04	10	C6H7O3-
129.071	21	C10H9-
131.0502	22	C9H7O-
131.0713	3	C6H11O3-
133.0659	4	C9H9O-
133.1022	1	C10H13-
135.0452	2	C8H7O2-
135.0815	11	C9H11O-
137.0607	91	C8H9O2-
138.0562	8	C7H8NO2-
139.0399	3	C7H7O3-
139.0764	39	C8H11O2-
141.0557	98	C7H9O3-
143.0502	1	C10H7O-
144.0666	4	C6H10NO3-
145.0505	5	C6H9O4-
145.0659	16	C10H9O-
145.1022	1	C11H13-
147.0816	59	C10H11O-
148.0529	1	C9H8O2-
149.0607	143	C9H9O2-
150.0688	10	C9H10O2-
151.0763	3	C9H11O2-
153.0921	4	C9H13O2-
155.0715	9	C8H11O3-
155.1075	7	C9H15O2-
157.0868	4	C8H13O3-
159.0664	1	C7H11O4-
159.0814	1	C11H11O-
159.1177	1	C12H15-
161.0609	1	C10H9O2-
161.0971	1	C11H13O-
162.0772	42	C6H12NO4-
163.0765	110	C10H11O2-
165.092	169	C10H13O2-
167.0712	93	C9H11O3-
171.0815	1	C12H11O-
171.1179	3	C13H15-
173.0607	6	C11H9O2-
173.097	45	C12H13O-
175.0762	3	C11H11O2-
181.087	25	C10H13O3-
183.1026	67	C10H15O3-
185.0818	1	C9H13O4-
185.1333	5	C14H17-
187.0762	1	C12H11O2-
187.1128	3	C13H15O-
189.092	16	C12H13O2-
191.0714	24	C11H11O3-
197.1336	1	C15H17-
199.0973	2	C10H15O4-
199.1127	17	C14H15O-
205.1235	4	C13H17O2-
207.1026	20	C12H15O3-
209.0819	42	C11H13O4-
213.1284	6	C15H17O-
215.1077	4	C14H15O2-
223.1344	2	C13H19O3-
225.1137	4	C12H17O4-
225.1647	3	C17H21-
227.0924	430	C11H15O5-
228.0958	6	C6H16N2O7-
233.118	11	C14H17O3-
238.1363	1	C17H18O-
239.1441	24	C17H19O-
239.1805	5	C18H23-
245.1029	79	C11H17O6-
248.1052	3	C14H16O4-
249.1133	5	C14H17O4-
249.1496	2	C15H21O3-
257.1909	5	C18H25O-
263.1135	11	C11H19O7-
265.1962	4	C20H25-
267.1236	17	C14H19O5-
267.1754	67	C19H23O-
275.129	3	C16H19O4-
279.2121	1	C21H27-
285.1343	4	C14H21O6-
285.1854	6	C19H25O2-
291.1756	1	C21H23O-
291.2122	6	C22H27-
293.1393	24	C16H21O5-
293.1908	40	C21H25O-
307.2069	8	C22H27O-
311.1499	7	C16H23O6-
329.1605	1	C16H25O7-
333.2223	51	C24H29O-
338.2125	45	C22H28NO2-
351.2327	15	C24H31O2-
369.2428	16	C24H33O3-
377.2483	3	C26H33O2-
387.2539	19	C24H35O4-
395.2591	17	C26H35O3-
404.2584	7	C27H34NO2-
409.276	1	C27H37O3-
413.2481	16	
422.2698	4	C27H36NO3-
435.29	16	C29H39O3-
437.2695	20	C28H37O4-
440.2809	6	C27H38NO4-
453.301	8	C29H41O4-
455.2802	7	C28H39O5-
458.2913	1	C27H40NO5-
463.2851	22	C30H39O4-
477.3009	5	C31H41O4-
489.3019	4	C32H41O4-
496.3064	3	C30H42NO5-
503.3173	10	C33H43O4-
514.3191	2	C30H44NO6-
515.319	3	C37H41NO-
521.3257	5	C33H45O5-
529.3336	4	C35H45O4-
547.3454	1	C35H47O5-
557.3269	1	C36H45O5-
575.3379	6	C36H47O6-
592.3489	7	C32H50NO9-
601.3549	4	C38H49O6-
619.3657	3	C38H51O7-
627.3713	2	C40H51O6-
645.3786	9	C40H53O7-
663.3895	3	C40H55O8-
838.4608	1	C43H68NO15-
