Mass spectrum: Atenolol; LC-ESI-ITFT; MS2; CE: 75%; R=15000; [M+H]+
Name: Atenolol
Name: 2-[4-[2-hydroxy-3-(isopropylamino)propoxy]phenyl]acetamide
Formula: C14H22N2O3
Exact mass: 266.1630
SMILES: CC(C)NCC(O)COc1ccc(cc1)CC(N)=O
InChI: InChI=1S/C14H22N2O3/c1-10(2)16-8-12(17)9-19-13-5-3-11(4-6-13)7-14(15)18/h3-6,10,12,16-17H,7-9H2,1-2H3,(H2,15,18)
Instrument: LTQ Orbitrap XL Thermo Scientific
Instrument type: LC-ESI-ITFT
Ms type: MS2
Ion mode: POSITIVE
Ionization: ESI
Fragmentation mode: HCD
Collision energy: 75 % (nominal)
Resolution: 15000
Column name: XBridge C18 3.5um, 2.1x50mm, Waters
Retention time: 2.0 min
Base peak: 267.171
Precursor m/z: 267.1703
Precursor type: [M+H]+
m/z	relative intensity	assigned
56.0494	181	C3H6N+
58.0651	25	C3H8N+
72.0807	108	C4H10N+
74.06	283	C3H8NO+
77.0385	17	C6H5+
79.0541	32	C6H7+
84.0807	13	C5H10N+
89.0384	32	C7H5+
91.0542	115	C7H7+
93.0698	81	C7H9+
98.0963	54	C6H12N+
100.1121	28	C6H14N+
103.0543	9	C8H7+
105.0698	68	C8H9+
106.065	68	C7H8N+
107.049	130	C7H7O+
115.0541	27	C9H7+
116.0494	21	C8H6N+
116.1069	74	C6H14NO+
117.0333	18	C8H5O+
117.0697	88	C9H9+
119.049	105	C8H7O+
121.0647	142	C8H9O+
122.0599	21	C7H8NO+
131.0491	9	C9H7O+
133.0647	434	C9H9O+
134.0599	117	C8H8NO+
144.0808	6	C10H10N+
145.0647	999	C10H9O+
147.0439	69	C9H7O2+
147.0802	11	C10H11O+
152.0706	16	C8H10NO2+
155.0602	11	C10H7N2+
162.066	86	C8H8N3O+
162.0909	23	C10H12NO+
163.0754	16	C10H11O2+
164.0705	42	C9H10NO2+
173.0593	21	C11H9O2+
178.0859	36	C10H12NO2+
190.0861	36	C11H12NO2+
