Mass spectrum: Pretilachlor; LC-ESI-QFT; MS2; CE: 60; R=35000; [M+H]+
Name: Pretilachlor
Name: 2-chloranyl-N-(2,6-diethylphenyl)-N-(2-propoxyethyl)ethanamide
Formula: C17H26ClNO2
Exact mass: 311.16521
SMILES: ClCC(=O)N(c1c(cccc1CC)CC)CCOCCC
InChI: InChI=1S/C17H26ClNO2/c1-4-11-21-12-10-19(16(20)13-18)17-14(5-2)8-7-9-15(17)6-3/h7-9H,4-6,10-13H2,1-3H3
Instrument: Q Exactive Orbitrap Thermo Scientific
Instrument type: LC-ESI-QFT
Ms type: MS2
Ion mode: POSITIVE
Ionization: ESI
Fragmentation mode: HCD
Collision energy: 60 (nominal)
Resolution: 35000
Column name: XBridge C18 3.5um, 2.1x50mm, Waters
Retention time: 14.4 min
Base peak: 312.173
Precursor m/z: 312.1725
Precursor type: [M+H]+
m/z	relative intensity	assigned
62.9997	1	C2H4Cl+
75.9949	4	C2H3ClN+
76.9789	63	C2H2ClO+
79.0542	9	C6H7+
91.0542	26	C7H7+
93.0699	4	C7H9+
95.0491	4	C6H7O+
103.0541	8	C8H7+
104.0262	4	C4H7ClN+
105.0699	159	C8H9+
106.0653	3	C7H8N+
117.0573	16	C8H7N+
117.0698	4	C9H9+
118.0651	170	C8H8N+
119.0729	9	C8H9N+
119.0855	3	C9H11+
120.0808	54	C8H10N+
121.0648	8	C8H9O+
129.0699	3	C10H9+
130.0652	18	C9H8N+
131.0732	8	C9H9N+
131.0857	10	C10H11+
132.0809	43	C9H10N+
133.1013	10	C10H13+
134.0965	11	C9H12N+
143.0729	3	C10H9N+
144.0809	24	C10H10N+
145.0887	51	C10H11N+
146.0965	139	C10H12N+
147.1043	294	C10H13N+
148.1121	142	C10H14N+
157.0884	1	C11H11N+
158.0966	9	C11H12N+
159.1044	8	C11H13N+
160.1122	137	C11H14N+
161.12	4	C11H15N+
170.0367	1	C8H9ClNO+
170.0966	1	C12H12N+
171.1039	1	C12H13N+
172.1121	17	C12H14N+
173.1201	3	C12H15N+
174.0913	5	C11H12NO+
174.1279	28	C12H16N+
175.1354	6	C12H17N+
176.1435	999	C12H18N+
180.0574	3	C10H11ClN+
182.0735	6	C10H13ClN+
188.1071	37	C12H14NO+
188.1431	1	C13H18N+
196.0526	4	C10H11ClNO+
198.0678	7	C10H13ClNO+
202.1227	14	C13H16NO+
206.0733	3	C12H13ClN+
208.089	3	C12H15ClN+
210.1047	1	C12H17ClN+
216.1386	4	C14H18NO+
224.0839	8	C12H15ClNO+
224.1203	19	C13H19ClN+
234.105	1	C14H17ClN+
252.1151	918	C14H19ClNO+
