Mass spectrum: Cefalexin; LC-ESI-QFT; MS2; CE: 75; R=35000; [M-H]-
Name: Cefalexin
Name: 7-[(2-amino-1-oxo-2-phenylethyl)amino]-3-methyl-8-oxo-5-thia-1-azabicyclo[4.2.0]oct-2-ene-2-carboxylic acid
Formula: C16H17N3O4S
Exact mass: 347.09398
SMILES: CC1=C(N2C(C(C2=O)NC(=O)C(C3=CC=CC=C3)N)SC1)C(=O)O
InChI: InChI=1S/C16H17N3O4S/c1-8-7-24-15-11(14(21)19(15)12(8)16(22)23)18-13(20)10(17)9-5-3-2-4-6-9/h2-6,10-11,15H,7,17H2,1H3,(H,18,20)(H,22,23)
Instrument: Q Exactive Orbitrap Thermo Scientific
Instrument type: LC-ESI-QFT
Ms type: MS2
Ion mode: NEGATIVE
Ionization: ESI
Fragmentation mode: HCD
Collision energy: 75 (nominal)
Resolution: 35000
Column name: XBridge C18 3.5um, 2.1x50mm, Waters
Retention time: 4.4 min
Base peak: 346.0868
Precursor m/z: 346.0867
Precursor type: [M-H]-
m/z	relative intensity	assigned
55.019	30	C3H3O-
56.9804	81	C2HS-
57.9757	87	CNS-
58.996	111	C2H3S-
59.9914	9	CH2NS-
60.9754	24	CHOS-
65.0145	82	C3HN2-
65.9986	70	C3NO-
66.035	19	C4H4N-
67.0303	26	C3H3N2-
68.0142	131	C3H2NO-
70.9835	130	C2HNS-
71.9913	106	C2H2NS-
72.0092	21	C2H2NO2-
72.9753	8	C2HOS-
72.9992	38	C2H3NS-
73.0118	53	C3H5S-
74.007	355	C2H4NS-
80.0507	48	C5H6N-
81.0459	6	C4H5N2-
81.9758	8	C3NS-
82.0172	9	C3H2N2O-
83.9913	26	C3H2NS-
84.9992	24	C3H3NS-
85.0296	9	C4H5O2-
86.007	7	C3H4NS-
87.0274	11	C4H7S-
92.0506	26	C6H6N-
93.0458	93	C5H5N2-
94.0662	5	C6H8N-
96.0455	51	C5H6NO-
96.9992	24	C4H3NS-
97.9943	5	C3H2N2S-
98.007	13	C4H4NS-
99.9863	145	C3H2NOS-
100.0227	31	C4H6NS-
101.0067	6	C4H5OS-
101.0398	27	C8H5-
102.0349	33	C7H4N-
104.0379	4	C6H4N2-
105.0459	81	C6H5N2-
106.0537	9	C6H6N2-
107.0615	999	C6H7N2-
108.0456	123	C6H6NO-
109.0772	210	C6H9N2-
110.0071	7	C5H4NS-
110.0612	5	C6H8NO-
112.0405	150	C5H6NO2-
114.0383	33	C5H8NS-
115.0225	18	C5H7OS-
116.0507	218	C8H6N-
117.0346	37	C8H5O-
118.0298	5	C7H4NO-
119.0252	6	C6H3N2O-
119.0616	8	C7H7N2-
121.041	10	C6H5N2O-
121.0771	60	C7H9N2-
122.0487	34	C6H6N2O-
122.0612	5	C7H8NO-
123.0564	65	C6H7N2O-
124.0227	72	C6H6NS-
124.0405	24	C6H6NO2-
125.0067	6	C6H5OS-
126.0384	6	C6H8NS-
128.0507	5	C9H6N-
131.0612	5	C8H7N2-
132.0568	11	C7H6N3-
133.0408	10	C7H5N2O-
134.0613	28	C8H8NO-
134.0725	8	C7H8N3-
135.0565	218	C7H7N2O-
137.072	26	C7H9N2O-
140.0177	6	C6H6NOS-
140.0506	10	C10H6N-
141.0254	22	C6H7NOS-
142.0331	99	C6H8NOS-
143.0615	9	C9H7N2-
144.0455	8	C9H6NO-
149.0431	6	C9H9S-
152.0177	6	C7H6NOS-
155.0614	23	C10H7N2-
156.0695	74	C10H8N2-
158.028	5	C6H8NO2S-
161.0355	4	C8H5N2O2-
167.0286	5	C7H7N2OS-
168.0566	9	C10H6N3-
171.0565	21	C10H7N2O-
172.0404	26	C10H6NO2-
173.0482	89	C10H7NO2-
173.0719	610	C10H9N2O-
181.0644	6	C11H7N3-
189.0668	5	C10H9N2O2-
190.0338	6	C10H8NOS-
191.0617	49	C13H7N2-
199.0516	10	C11H7N2O2-
200.0592	41	C11H8N2O2-
207.0927	250	C14H11N2-
208.0881	18	C13H10N3-
233.0394	21	C11H9N2O2S-
