Mass spectrum: Isocarbophos; LC-ESI-QFT; MS2; CE: 75%; R=17500; [M+H]+
Name: Isocarbophos
Name: propan-2-yl 2-[amino(methoxy)phosphinothioyl]oxybenzoate
Formula: C11H16NO4PS
Exact mass: 289.0538
SMILES: CC(C)OC(=O)C1=CC=CC=C1OP(=S)(N)OC
InChI: InChI=1S/C11H16NO4PS/c1-8(2)15-11(13)9-6-4-5-7-10(9)16-17(12,18)14-3/h4-8H,1-3H3,(H2,12,18)
Instrument: Exploris 240 Orbitrap Thermo Scientific
Instrument type: LC-ESI-QFT
Ms type: MS2
Ion mode: POSITIVE
Ionization: ESI
Fragmentation mode: HCD
Collision energy: 75 % (nominal)
Resolution: 17500
Column name: XBridge C18 3.5um, 2.1x50mm, Waters
Retention time: 7.355 min
Base peak: 230.9875
Precursor m/z: 290.061
Precursor type: [M+H]+
m/z	relative intensity	assigned
65.0386	87	C5H5+
92.0257	241	C6H4O+
121.0284	999	C7H5O2+
137.0056	94	C7H5OS+
165.9718	103	C7H2O3S+
