Mass spectrum: Cilastatin; LC-ESI-ITFT; MS2; CE: 15%; R=15000; [M+H]+
Name: Cilastatin
Formula: C16H26N2O5S
Exact mass: 358.1562
SMILES: [H][C@](N)(CSCCCC\C=C(/NC(=O)[C@@]1([H])CC1(C)C)C(O)=O)C(O)=O
InChI: InChI=1S/C16H26N2O5S/c1-16(2)8-10(16)13(19)18-12(15(22)23)6-4-3-5-7-24-9-11(17)14(20)21/h6,10-11H,3-5,7-9,17H2,1-2H3,(H,18,19)(H,20,21)(H,22,23)/b12-6-/t10-,11+/m1/s1
Instrument: LTQ Orbitrap XL Thermo Scientific
Instrument type: LC-ESI-ITFT
Ms type: MS2
Ion mode: POSITIVE
Ionization: ESI
Fragmentation mode: HCD
Collision energy: 15 % (nominal)
Resolution: 15000
Column name: XBridge C18 3.5um, 2.1x50mm, Waters
Retention time: 5.2 min
Base peak: 359.1645
Precursor m/z: 359.1635
Precursor type: [M+H]+
m/z	relative intensity	assigned
69.0697	3	C5H9+
97.0645	32	C6H9O+
98.0966	5	C6H12N+
115.0573	6	C6H11S+
130.0684	9	C6H12NS+
142.0863	2	C7H12NO2+
156.0841	5	C8H14NS+
174.058	4	C7H12NO2S+
184.0968	2	C9H14NO3+
200.074	4	C9H14NO2S+
202.0893	63	C9H16NO2S+
217.1008	4	C9H17N2O2S+
219.116	17	C9H19N2O2S+
238.1438	5	C13H20NO3+
245.0958	3	C10H17N2O3S+
246.0787	4	C16H10N2O+
263.1058	9	C10H19N2O4S+
313.1576	4	C15H25N2O3S+
315.1733	74	C15H27N2O3S+
341.153	15	C16H25N2O4S+
342.1365	29	C16H24NO5S+
359.1635	999	C16H27N2O5S+
