Mass spectrum: Ethaboxam; LC-ESI-QFT; MS2; CE: 120%; R=17500; [M+H]+
Name: Ethaboxam
Name: N-[cyano(thiophen-2-yl)methyl]-4-ethyl-2-(ethylamino)-1,3-thiazole-5-carboxamide
Formula: C14H16N4OS2
Exact mass: 320.0766
SMILES: CCC1=C(SC(=N1)NCC)C(=O)NC(C#N)C2=CC=CS2
InChI: InChI=1S/C14H16N4OS2/c1-3-9-12(21-14(18-9)16-4-2)13(19)17-10(8-15)11-6-5-7-20-11/h5-7,10H,3-4H2,1-2H3,(H,16,18)(H,17,19)
Instrument: Exploris 240 Orbitrap Thermo Scientific
Instrument type: LC-ESI-QFT
Ms type: MS2
Ion mode: POSITIVE
Ionization: ESI
Fragmentation mode: HCD
Collision energy: 120 % (nominal)
Resolution: 17500
Column name: XBridge C18 3.5um, 2.1x50mm, Waters
Retention time: 6.055 min
Base peak: 321.0838
Precursor m/z: 321.0838
Precursor type: [M+H]+
m/z	relative intensity	assigned
53.0387	42	C4H5+
54.0338	91	C3H4N+
56.0494	136	C3H6N+
57.9871	118	C2H2S+
58.9951	56	C2H3S+
59.9902	108	CH2NS+
67.0416	142	C4H5N+
68.0494	532	C4H6N+
68.9794	40	C3HS+
70.9822	18	C2HNS+
70.9951	73	C3H3S+
71.0602	99	C3H7N2+
71.9902	23	C2H2NS+
72.0029	86	C3H4S+
73.0108	28	C3H5S+
81.0448	142	C4H5N2+
82.0522	29	C4H6N2+
82.9951	36	C4H3S+
84.0028	208	C4H4S+
85.0106	999	C4H5S+
86.0061	40	C3H4NS+
87.0139	50	C3H5NS+
87.0264	39	C4H7S+
88.0217	32	C3H6NS+
96.0447	43	C5H6NO+
98.0057	86	C4H4NS+
99.0137	133	C4H5NS+
100.0216	168	C4H6NS+
102.0371	40	C4H8NS+
110.0059	39	C5H4NS+
112.0216	48	C5H6NS+
113.0169	65	C4H5N2S+
114.0248	120	C4H6N2S+
114.0371	63	C5H8NS+
122.0057	87	C6H4NS+
125.0169	89	C5H5N2S+
126.0008	37	C5H4NOS+
126.0245	221	C5H6N2S+
127.0324	265	C5H7N2S+
128.0407	31	C5H8N2S+
129.0487	50	C5H9N2S+
153.0116	108	C6H5N2OS+
155.0281	26	C6H7N2OS+
155.0643	64	C7H11N2S+
