Mass spectrum: 1H-Benzotriazole-5-carboxylic acid; LC-ESI-QFT; MS2; CE: 180; R=35000; [M-H]-
Name: 1H-Benzotriazole-5-carboxylic acid
Name: 1H-benzotriazole-5-carboxylic acid
Name: 2H-benzotriazole-5-carboxylic acid
Formula: C7H5N3O2
Exact mass: 163.03818
SMILES: c1cc2c(cc1C(=O)O)nn[nH]2
InChI: InChI=1S/C7H5N3O2/c11-7(12)4-1-2-5-6(3-4)9-10-8-5/h1-3H,(H,11,12)(H,8,9,10)
Instrument: Q Exactive Plus Orbitrap Thermo Scientific
Instrument type: LC-ESI-QFT
Ms type: MS2
Ion mode: NEGATIVE
Ionization: ESI
Fragmentation mode: HCD
Collision energy: 180 (nominal)
Resolution: 35000
Column name: XBridge C18 3.5um, 2.1x50mm, Waters
Retention time: 3.8 min
Base peak: 162.0307
Precursor m/z: 162.0309
Precursor type: [M-H]-
m/z	relative intensity	assigned
50.0036	999	C3N-
61.0083	3	C5H-
62.0037	2	C4N-
64.0193	54	C4H2N-
65.0032	6	C4HO-
65.9985	3	C3NO-
88.0193	15	C6H2N-
90.0349	57	C6H4N-
118.041	7	C6H4N3-
