Mass spectrum: Dexamethasone acetate; LC-ESI-QFT; MS2; CE: 90; R=35000; [M-H]-
Name: Dexamethasone acetate
Name: Dexamethason-21-acetate
Name: [2-(9-fluoro-11,17-dihydroxy-10,13,16-trimethyl-3-oxo-6,7,8,11,12,14,15,16-octahydrocyclopenta[a]phenanthren-17-yl)-2-oxoethyl] acetate
Formula: C24H31FO6
Exact mass: 434.21047
SMILES: CC1CC2C3CCC4=CC(=O)C=CC4(C3(C(CC2(C1(C(=O)COC(=O)C)O)C)O)F)C
InChI: InChI=1S/C24H31FO6/c1-13-9-18-17-6-5-15-10-16(27)7-8-21(15,3)23(17,25)19(28)11-22(18,4)24(13,30)20(29)12-31-14(2)26/h7-8,10,13,17-19,28,30H,5-6,9,11-12H2,1-4H3
Instrument: Q Exactive Plus Orbitrap Thermo Scientific
Instrument type: LC-ESI-QFT
Ms type: MS2
Ion mode: NEGATIVE
Ionization: ESI
Fragmentation mode: HCD
Collision energy: 90 (nominal)
Resolution: 35000
Column name: XBridge C18 3.5um, 2.1x50mm, Waters
Retention time: 10.3 min
Base peak: 479.2081
Precursor m/z: 433.2032
Precursor type: [M-H]-
m/z	relative intensity	assigned
55.0189	1	C3H3O-
59.0138	999	C2H3O2-
68.9982	1	C3HO2-
71.0139	1	C3H3O2-
73.0296	2	C3H5O2-
79.0552	1	C6H7-
83.0502	2	C5H7O-
93.0346	2	C6H5O-
95.0501	1	C6H7O-
105.071	1	C8H9-
106.0424	1	C7H6O-
107.0502	4	C7H7O-
108.0217	1	C6H4O2-
119.0502	4	C8H7O-
121.0295	4	C7H5O2-
121.0659	11	C8H9O-
122.0372	2	C7H6O2-
123.0452	2	C7H7O2-
123.0815	1	C8H11O-
130.0423	5	C9H6O-
131.0502	7	C9H7O-
133.0658	14	C9H9O-
134.037	1	C8H6O2-
135.0451	2	C8H7O2-
136.0527	1	C8H8O2-
137.0606	3	C8H9O2-
143.0501	12	C10H7O-
144.058	2	C10H8O-
145.0294	2	C9H5O2-
145.0659	7	C10H9O-
147.0451	4	C9H7O2-
147.0815	5	C10H11O-
148.053	1	C9H8O2-
149.0608	5	C9H9O2-
151.0766	1	C9H11O2-
156.058	2	C11H8O-
157.0292	1	C10H5O2-
157.0658	9	C11H9O-
158.0373	4	C10H6O2-
159.0452	4	C10H7O2-
159.0815	2	C11H11O-
160.0531	1	C10H8O2-
161.0608	5	C10H9O2-
167.0503	1	C12H7O-
167.0863	1	C13H11-
169.0659	5	C12H9O-
171.0452	6	C11H7O2-
171.0815	4	C12H11O-
172.0529	3	C11H8O2-
173.0607	2	C11H9O2-
174.0321	1	C10H6O3-
174.0685	1	C11H10O2-
175.04	10	C10H7O3-
175.0762	2	C11H11O2-
180.058	1	C13H8O-
181.0659	1	C13H9O-
183.0813	2	C13H11O-
185.0607	7	C12H9O2-
186.0688	1	C12H10O2-
187.0763	1	C12H11O2-
188.0479	1	C11H8O3-
189.0557	3	C11H9O3-
193.0657	6	C14H9O-
194.0735	2	C14H10O-
195.045	1	C13H7O2-
195.0814	4	C14H11O-
197.0607	8	C13H9O2-
197.0969	1	C14H13O-
203.0712	1	C12H11O3-
206.0737	3	C15H10O-
207.0815	6	C15H11O-
208.0894	1	C15H12O-
209.0604	1	C14H9O2-
209.0971	3	C15H13O-
211.0765	2	C14H11O2-
219.0812	2	C16H11O-
220.0891	1	C16H12O-
221.0612	1	C15H9O2-
221.0972	3	C16H13O-
222.0685	1	C15H10O2-
223.0762	3	C15H11O2-
224.0844	1	C15H12O2-
225.0918	1	C15H13O2-
230.0733	1	C17H10O-
231.0814	3	C17H11O-
232.0891	3	C17H12O-
233.0972	4	C17H13O-
234.0679	1	C16H10O2-
235.0764	2	C16H11O2-
235.1129	2	C17H15O-
237.0921	1	C16H13O2-
245.0971	3	C18H13O-
246.105	1	C18H14O-
247.0763	3	C17H11O2-
247.1127	4	C18H15O-
248.084	2	C17H12O2-
249.0919	7	C17H13O2-
249.1279	1	C18H17O-
250.0995	1	C17H14O2-
258.0685	1	C18H10O2-
259.0762	3	C18H11O2-
260.084	12	C18H12O2-
261.0918	5	C18H13O2-
262.1001	1	C18H14O2-
263.1077	8	C18H15O2-
265.1231	1	C18H17O2-
273.0917	2	C19H13O2-
274.0997	2	C19H14O2-
275.0713	3	C18H11O3-
275.1074	3	C19H15O2-
276.0789	7	C18H12O3-
276.1145	1	C19H16O2-
277.0869	23	C18H13O3-
277.1221	2	C19H17O2-
289.087	2	C19H13O3-
290.0952	1	C19H14O3-
291.1026	12	C19H15O3-
292.1107	1	C19H16O3-
293.1181	1	C19H17O3-
295.1336	1	C19H19O3-
