Mass spectrum: Phenylphosphonic Acid; LC-ESI-QFT; MS2; CE: 180%; R=15000; [M+H]+
Name: Phenylphosphonic Acid
Name: Benzenephosphonic acid
Formula: C6H7O3P
Exact mass: 158.0133
SMILES: C1=CC=C(C=C1)P(=O)(O)O
InChI: InChI=1S/C6H7O3P/c7-10(8,9)6-4-2-1-3-5-6/h1-5H,(H2,7,8,9)
Instrument: Orbitrap Exploris 240 Thermo Scientific
Instrument type: LC-ESI-QFT
Ms type: MS2
Ion mode: POSITIVE
Ionization: ESI
Fragmentation mode: HCD
Collision energy: 180 % (nominal)
Resolution: 15000
Column name: Atlantis C18 3um, 3.0x150mm, Waters
Retention time: 9.024 min
Base peak: 159.0205
Precursor m/z: 159.0206
Precursor type: [M+H]+
Precursor intensity: 40454812
m/z	relative intensity	assigned
46.968	13	OP+
50.015	32	C4H2+
51.0229	999	C4H3+
53.0386	58	C4H5+
59.0492	11	C3H7O+
62.9631	169	O2P+
77.0386	337	C6H5+
78.0466	5	C6H6+
79.0543	15	C6H7+
80.9736	47	H2O3P+
94.0413	17	C6H6O+
95.0492	132	C6H7O+
98.9842	168	
105.0447	143	
