Mass spectrum: Fipronil-sulfide; LC-ESI-ITFT; MS2; CE: 90%; R=7500; [M+H]+
Name: Fipronil-sulfide
Name: 5-Amino-1-[2,6-dichloro-4-(trifluoromethyl)phenyl]-4-[(trifluoromethyl)sulfanyl]-1H-pyrazole-3-carbonitrile
Formula: C12H4Cl2F6N4S
Exact mass: 419.9438
SMILES: FC(F)(F)c2cc(Cl)c(n1nc(C#N)c(SC(F)(F)F)c1N)c(Cl)c2
InChI: InChI=1S/C12H4Cl2F6N4S/c13-5-1-4(11(15,16)17)2-6(14)8(5)24-10(22)9(7(3-21)23-24)25-12(18,19)20/h1-2H,22H2
Instrument: LTQ Orbitrap XL Thermo Scientific
Instrument type: LC-ESI-ITFT
Ms type: MS2
Ion mode: POSITIVE
Ionization: ESI
Fragmentation mode: HCD
Collision energy: 90 % (nominal)
Resolution: 7500
Column name: XBridge C18 3.5um, 2.1x50mm, Waters
Retention time: 13.0 min
Base peak: 442.9332
Precursor m/z: 420.9511
Precursor type: [M+H]+
m/z	relative intensity	assigned
87.0008	16	C2H3N2S+
97.9932	236	C3H2N2S+
165.9792	68	C6H2ClF3+
191.9823	136	C7H2ClF3N+
200.9477	96	CHCl2F4N3+
201.993	243	C3H2F4N4S+
207.952	41	C2HCl2F3N4+
212.9479	67	C7H2Cl2F3+
217.9636	73	C3H2ClF3N4S+
220.001	60	C8H4ClF3N2+
221.0091	71	C8H5ClF3N2+
226.9884	159	C9H2F3N2S+
227.9587	215	C2H2Cl2F4N4+
228.9666	30	C7H4Cl2F3N+
230.9928	70	C9H3ClF3N2+
233.0088	33	C9H5ClF3N2+
236.9631	25	C8H3ClF3NS+
237.9696	999	C3H3ClF4N4S+
238.9505	65	C3HCl2F4N4+
239.9598	52	C8H3Cl2F3N+
242.959	75	C9H2ClF2N2S+
246.0042	63	C9H4ClF3N3+
247.9538	244	C4HClF4N4S+
254.9696	101	C9HF6S+
256.92	106	C3HCl2F4N3S+
258.0043	22	C10H4ClF3N3+
262.9649	685	C9H3ClF3N2S+
264.9802	222	C9H5ClF3N2S+
274.9649	58	C10H3ClF3N2S+
325.917	22	C9HCl2F3N3OS+
