Mass spectrum: Fenpiclonil; LC-ESI-QFT; MS2; CE: 120%; R=17500; [M+H]+
Name: Fenpiclonil
Name: 4-(2,3-dichlorophenyl)-1H-pyrrole-3-carbonitrile
Formula: C11H6Cl2N2
Exact mass: 235.9908
SMILES: C1=CC(=C(C(=C1)Cl)Cl)C2=CNC=C2C#N
InChI: InChI=1S/C11H6Cl2N2/c12-10-3-1-2-8(11(10)13)9-6-15-5-7(9)4-14/h1-3,5-6,15H
Instrument: Exploris 240 Orbitrap Thermo Scientific
Instrument type: LC-ESI-QFT
Ms type: MS2
Ion mode: POSITIVE
Ionization: ESI
Fragmentation mode: HCD
Collision energy: 120 % (nominal)
Resolution: 17500
Column name: XBridge C18 3.5um, 2.1x50mm, Waters
Retention time: 8.123 min
Base peak: 236.998
Precursor m/z: 236.9981
Precursor type: [M+H]+
m/z	relative intensity	assigned
63.023	13	C5H3+
64.018	16	C4H2N+
65.0258	6	C4H3N+
88.0186	6	C6H2N+
88.0307	75	C7H4+
89.0386	44	C7H5+
90.0465	14	C7H6+
112.0307	28	C9H4+
113.0385	127	C9H5+
114.0337	24	C8H4N+
114.0462	17	C9H6+
115.0416	53	C8H5N+
115.0542	59	C9H7+
122.9995	12	C7H4Cl+
124.0073	12	C7H5Cl+
137.0026	20	C7H4ClN+
138.011	14	C7H5ClN+
138.0337	98	C10H4N+
139.0416	277	C10H5N+
140.0494	999	C10H6N+
146.9996	63	C9H4Cl+
148.0072	40	C9H5Cl+
149.0149	29	C9H6Cl+
151.018	36	C8H6ClN+
165.0446	67	C11H5N2+
166.0525	150	C11H6N2+
167.0606	63	C11H7N2+
174.0103	106	C10H5ClN+
175.0184	20	C10H6ClN+
176.0141	8	C9H5ClN2+
182.9766	12	C9H5Cl2+
202.0291	20	C11H7ClN2+
