Mass spectrum: Phenylbutazone; LC-ESI-QFT; MS2; CE: 90; R=35000; [M+H]+
Name: Phenylbutazone
Name: 4-butyl-1,2-diphenylpyrazolidine-3,5-dione
Formula: C19H20N2O2
Exact mass: 308.15248
SMILES: CCCCC1C(=O)N(N(C1=O)C2=CC=CC=C2)C3=CC=CC=C3
InChI: InChI=1S/C19H20N2O2/c1-2-3-14-17-18(22)20(15-10-6-4-7-11-15)21(19(17)23)16-12-8-5-9-13-16/h4-13,17H,2-3,14H2,1H3
Instrument: Q Exactive Plus Orbitrap Thermo Scientific
Instrument type: LC-ESI-QFT
Ms type: MS2
Ion mode: POSITIVE
Ionization: ESI
Fragmentation mode: HCD
Collision energy: 90 (nominal)
Resolution: 35000
Column name: XBridge C18 3.5um, 2.1x50mm, Waters
Retention time: 11.3 min
Base peak: 309.1591
Precursor m/z: 309.1598
Precursor type: [M+H]+
m/z	relative intensity	assigned
50.0151	31	C4H2+
51.0229	19	C4H3+
53.0022	17	C3HO+
53.0386	222	C4H5+
53.9975	4	C2NO+
54.0101	1	C3H2O+
54.0338	4	C3H4N+
55.0179	156	C3H3O+
55.0543	30	C4H7+
56.0495	5	C3H6N+
57.0699	21	C4H9+
63.0229	2	C5H3+
64.0307	1	C5H4+
65.0386	999	C5H5+
66.0464	32	C5H6+
67.0542	40	C5H7+
67.9893	5	C3O2+
68.0131	13	C3H2NO+
68.0495	3	C4H6N+
69.0336	4	C4H5O+
69.0699	40	C5H9+
77.0386	467	C6H5+
78.0339	7	C5H4N+
78.0464	19	C6H6+
79.0542	67	C6H7+
80.0495	9	C5H6N+
81.0335	33	C5H5O+
81.07	3	C6H9+
82.0652	6	C5H8N+
83.0492	8	C5H7O+
89.0386	8	C7H5+
90.034	1	C6H4N+
90.0465	8	C7H6+
91.0417	7	C6H5N+
91.0543	50	C7H7+
92.0495	757	C6H6N+
93.0336	43	C6H5O+
93.0574	178	C6H7N+
94.0414	82	C6H6O+
94.0652	370	C6H8N+
95.0492	708	C6H7O+
96.0445	8	C5H6NO+
96.0808	4	C6H10N+
97.0647	1	C6H9O+
103.0543	15	C8H7+
104.0495	182	C7H6N+
105.0336	36	C7H5O+
105.0448	516	C6H5N2+
105.0573	32	
106.0288	29	C6H4NO+
106.0652	220	C7H8N+
107.0492	6	C7H7O+
109.0649	5	C7H9O+
111.0441	16	C6H7O2+
115.0543	24	C9H7+
116.0495	13	C8H6N+
116.0622	1	C9H8+
117.0574	48	C8H7N+
117.0699	6	C9H9+
118.0651	106	C8H8N+
119.0366	5	C7H5NO+
119.073	14	C8H9N+
120.0444	53	C7H6NO+
120.0808	10	C8H10N+
124.0756	3	C7H10NO+
128.0495	34	C9H6N+
128.0621	8	C10H8+
129.0446	4	C8H5N2+
129.0698	4	C10H9+
130.0401	5	C7H4N3+
130.0652	90	C9H8N+
131.0604	10	C8H7N2+
131.0729	7	C9H9N+
132.0445	110	C8H6NO+
132.0809	16	C9H10N+
133.0399	15	C7H5N2O+
133.0523	159	C8H7NO+
134.0477	10	C7H6N2O+
134.06	11	C8H8NO+
139.054	6	C11H7+
140.0495	6	C10H6N+
141.0697	1	C11H9+
142.0653	1	C10H8N+
143.073	11	C10H9N+
144.0444	5	C9H6NO+
144.081	21	C10H10N+
145.0764	1	C9H9N2+
145.0885	5	C10H11N+
146.0601	60	C9H8NO+
147.0678	1	C9H9NO+
150.0555	1	C8H8NO2+
154.0651	3	C11H8N+
155.0604	1	C10H7N2+
156.0442	1	C10H6NO+
156.0811	7	C11H10N+
157.0648	1	C11H9O+
158.06	6	C10H8NO+
159.068	3	C10H9NO+
160.076	1	C10H10NO+
160.112	8	C11H14N+
162.0549	5	C9H8NO2+
166.0652	33	C12H8N+
167.0731	29	C12H9N+
168.0809	14	C12H10N+
169.0759	1	C11H9N2+
169.0887	3	C12H11N+
172.0756	5	C11H10NO+
174.055	5	C10H8NO2+
180.0808	11	C13H10N+
181.0761	31	C12H9N2+
182.084	76	C12H10N2+
183.0676	1	C12H9NO+
183.0912	1	C12H11N2+
184.0754	1	C12H10NO+
190.0649	1	C14H8N+
192.0683	1	C13H8N2+
194.0597	1	C13H8NO+
195.0914	2	C13H11N2+
205.076	1	C14H9N2+
206.084	11	C14H10N2+
207.0918	17	C14H11N2+
208.0993	1	C14H12N2+
211.0866	1	C13H11N2O+
219.0915	2	C15H11N2+
221.1073	1	C15H13N2+
233.1075	2	C16H13N2+
