Mass spectrum: 2-Naphthoxyacetic acid; LC-ESI-QFT; MS2; CE: 45; R=35000; [M+H]+
Name: 2-Naphthoxyacetic acid
Name: beta-Naphthoxyacetic acid
Name: (2-Naphthyloxy)acetic acid
Formula: C12H10O3
Exact mass: 202.06299
SMILES: C1=CC=C2C=C(C=CC2=C1)OCC(=O)O
InChI: InChI=1S/C12H10O3/c13-12(14)8-15-11-6-5-9-3-1-2-4-10(9)7-11/h1-7H,8H2,(H,13,14)
Instrument: Q Exactive Plus Orbitrap Thermo Scientific
Instrument type: LC-ESI-QFT
Ms type: MS2
Ion mode: POSITIVE
Ionization: ESI
Fragmentation mode: HCD
Collision energy: 45 (nominal)
Resolution: 35000
Column name: XBridge C18 3.5um, 2.1x50mm, Waters
Retention time: 8.5 min
Base peak: 230.1747
Precursor m/z: 203.0703
Precursor type: [M+H]+
m/z	relative intensity	assigned
51.0229	2	C4H3+
55.0179	2	C3H3O+
55.0542	18	C4H7+
57.0699	1	C4H9+
59.0491	1	C3H7O+
67.0542	3	C5H7+
69.0335	2	C4H5O+
69.0699	11	C5H9+
77.0384	2	C6H5+
79.0542	3	C6H7+
81.0699	3	C6H9+
83.0855	53	C6H11+
87.0441	1	C4H7O2+
91.0543	2	C7H7+
93.07	4	C7H9+
95.0855	2	C7H11+
97.0648	2	C6H9O+
101.0599	2	C5H9O2+
103.0542	34	C8H7+
105.0335	1	C7H5O+
105.0699	3	C8H9+
107.0855	6	C8H11+
111.0441	2	C6H7O2+
111.0805	16	C7H11O+
115.0543	23	C9H7+
115.0754	1	C6H11O2+
117.07	4	C9H9+
119.0856	2	C9H11+
121.0648	2	C8H9O+
127.0542	31	C10H7+
128.0621	35	C10H8+
129.0699	886	C10H9+
131.0491	1	C9H7O+
135.0805	1	C9H11O+
139.0754	3	C8H11O2+
143.0856	2	C11H11+
144.0571	11	C10H8O+
145.0649	151	C10H9O+
146.0726	1	C10H10O+
155.0605	361	C10H7N2+
156.0574	3	C11H8O+
157.0648	999	C11H9O+
159.0806	1	C11H11O+
175.0753	2	C11H11O2+
