Mass spectrum: Penciclovir; LC-ESI-QFT; MS2; CE: 45; R=35000; [M-H]-
Name: Penciclovir
Name: 2-amino-9-[4-hydroxy-3-(hydroxymethyl)butyl]-3H-purin-6-one
Formula: C10H15N5O3
Exact mass: 253.11749
SMILES: C1=NC2=C(N1CCC(CO)CO)N=C(NC2=O)N
InChI: InChI=1S/C10H15N5O3/c11-10-13-8-7(9(18)14-10)12-5-15(8)2-1-6(3-16)4-17/h5-6,16-17H,1-4H2,(H3,11,13,14,18)
Instrument: Q Exactive Orbitrap Thermo Scientific
Instrument type: LC-ESI-QFT
Ms type: MS2
Ion mode: NEGATIVE
Ionization: ESI
Fragmentation mode: HCD
Collision energy: 45 (nominal)
Resolution: 35000
Column name: XBridge C18 3.5um, 2.1x50mm, Waters
Retention time: 1.1 min
Base peak: 252.1103
Precursor m/z: 252.1102
Precursor type: [M-H]-
m/z	relative intensity	assigned
65.0145	25	C3HN2-
65.9984	4	C3NO-
66.0096	4	C2N3-
82.0411	11	C3H4N3-
96.0455	2	C5H6NO-
106.0285	11	C4H2N4-
107.0124	4	C4HN3O-
107.0363	56	C4H3N4-
108.0203	70	C4H2N3O-
110.0361	1	C4H4N3O-
119.0613	3	C7H7N2-
125.0468	37	C4H5N4O-
126.0309	37	C4H4N3O2-
133.0156	310	C5HN4O-
137.072	5	C7H9N2O-
149.0344	40	C5H3N5O-
150.042	999	C5H4N5O-
151.0258	2	C5H3N4O2-
152.0577	4	C5H6N5O-
162.042	1	C6H4N5O-
167.0827	2	C8H11N2O2-
204.0889	3	C9H10N5O-
209.1045	10	C9H13N4O2-
210.0884	25	C9H12N3O3-
220.0839	5	C9H10N5O2-
222.0997	2	C9H12N5O2-
232.0836	3	C10H10N5O2-
234.0995	1	C10H12N5O2-
252.1101	207	C10H14N5O3-
