Mass spectrum: Chlorpyrifos; LC-ESI-ITFT; MS2; CE: 60%; R=7500; [M+H]+
Name: Chlorpyrifos
Name: diethoxy-sulfanylidene-(3,5,6-trichloropyridin-2-yl)oxy-{5}-phosphane
Formula: C9H11Cl3NO3PS
Exact mass: 348.9263
SMILES: Clc1c(OP(=S)(OCC)OCC)nc(Cl)c(Cl)c1
InChI: InChI=1S/C9H11Cl3NO3PS/c1-3-14-17(18,15-4-2)16-9-7(11)5-6(10)8(12)13-9/h5H,3-4H2,1-2H3
Instrument: LTQ Orbitrap XL Thermo Scientific
Instrument type: LC-ESI-ITFT
Ms type: MS2
Ion mode: POSITIVE
Ionization: ESI
Fragmentation mode: HCD
Collision energy: 60 % (nominal)
Resolution: 7500
Column name: XBridge C18 3.5um, 2.1x50mm, Waters
Retention time: 16.0 min
Base peak: 349.9337
Precursor m/z: 349.9336
Precursor type: [M+H]+
m/z	relative intensity	assigned
64.9789	2	H2O2P+
96.9508	563	H2O2PS+
98.9842	3	CH4ClO3+
106.945	32	C3HCl2+
109.005	1	C2H6O3P+
110.9662	2	CH4O2PS+
114.9614	946	H4O3PS+
116.9658	2	C4H3ClP+
124.9822	12	C3H6ClOS+
128.9766	3	CH6O3PS+
133.956	42	C4H2Cl2N+
150.9169	7	C3HClOPS+
161.9509	8	C5H2Cl2NO+
177.9279	17	C5H2Cl2NS+
179.9615	111	C5H4Cl2NO2+
195.939	4	C5H4Cl2NOS+
196.9186	2	C4H2Cl2NO2P+
197.9275	999	C5H3Cl3NO+
211.8894	5	C5HCl3NS+
212.8971	9	C5H2Cl3NS+
213.9047	214	C5H3Cl3NS+
229.8995	12	C5H3Cl3NOS+
275.8606	41	C5H2Cl3NO2PS+
321.9199	18	C9H3Cl3N3O4+
