Mass spectrum: Chloramphenicol; LC-ESI-QFT; MS2; CE: 90; R=35000; [M-H]-
Name: Chloramphenicol
Name: CLM
Name: 2,2-bis(chloranyl)-N-[(1R,2R)-1-(4-nitrophenyl)-1,3-bis(oxidanyl)propan-2-yl]ethanamide
Formula: C11H12Cl2N2O5
Exact mass: 322.01233
SMILES: c1cc(ccc1[C@H]([C@@H](CO)NC(=O)C(Cl)Cl)O)[N+](=O)[O-]
InChI: InChI=1S/C11H12Cl2N2O5/c12-10(13)11(18)14-8(5-16)9(17)6-1-3-7(4-2-6)15(19)20/h1-4,8-10,16-17H,5H2,(H,14,18)/t8-,9-/m1/s1
Instrument: Q Exactive Orbitrap Thermo Scientific
Instrument type: LC-ESI-QFT
Ms type: MS2
Ion mode: NEGATIVE
Ionization: ESI
Fragmentation mode: HCD
Collision energy: 90 (nominal)
Resolution: 35000
Column name: XBridge C18 3.5um, 2.1x50mm, Waters
Retention time: 5.8 min
Base peak: 321.0054
Precursor m/z: 321.0051
Precursor type: [M-H]-
m/z	relative intensity	assigned
78.0349	47	C5H4N-
79.0191	6	C5H3O-
82.9461	103	CHCl2-
84.0092	6	C3H2NO2-
90.0351	3	C6H4N-
91.0189	14	
92.0267	17	C6H4O-
93.0347	20	C6H5O-
105.0346	4	C7H5O-
106.03	13	C6H4NO-
108.0219	22	C6H4O2-
117.0348	16	C8H5O-
120.0218	11	
121.0296	999	C7H5O2-
122.025	21	C6H4NO2-
124.0404	6	C6H6NO2-
135.0327	12	C7H5NO2-
147.0453	8	C9H7O2-
148.0407	4	C5H9ClN2O-
151.0274	98	C7H5NO3-
152.0356	6	C7H6NO3-
159.0326	4	C9H5NO2-
161.0356	3	C8H5N2O2-
162.0198	4	C8H4NO3-
