Mass spectrum: Florfenicol; LC-ESI-QFT; MS2; CE: 15; R=35000; [M-H]-
Name: Florfenicol
Name: 2,2-dichloro-N-{3-fluoro-1-hydroxy-1-[4-(methylsulfonyl)phenyl]propan-2-yl}acetamide
Name: 2,2-dichloro-N-[3-fluoro-1-hydroxy-1-(4-methylsulfonylphenyl)propan-2-yl]acetamide
Formula: C12H14Cl2FNO4S
Exact mass: 357.00046
SMILES: CS(=O)(=O)C1=CC=C(C=C1)C(C(CF)NC(=O)C(Cl)Cl)O
InChI: InChI=1S/C12H14Cl2FNO4S/c1-21(19,20)8-4-2-7(3-5-8)10(17)9(6-15)16-12(18)11(13)14/h2-5,9-11,17H,6H2,1H3,(H,16,18)
Instrument: Q Exactive Plus Orbitrap Thermo Scientific
Instrument type: LC-ESI-QFT
Ms type: MS2
Ion mode: NEGATIVE
Ionization: ESI
Fragmentation mode: HCD
Collision energy: 15 (nominal)
Resolution: 35000
Column name: XBridge C18 3.5um, 2.1x50mm, Waters
Retention time: 4.6 min
Base peak: 355.9929
Precursor m/z: 355.9932
Precursor type: [M-H]-
m/z	relative intensity	assigned
78.9858	3	CH3O2S-
82.9458	1	CHCl2-
115.9908	2	C4H3ClNO-
119.0502	124	C8H7O-
121.0294	1	C7H5O2-
125.9518	7	C2H2Cl2NO-
151.9676	60	C4H4Cl2NO-
153.0112	4	C8H6ClO-
170.0035	1	C7H6O3S-
183.012	82	C8H7O3S-
184.0199	7	C8H8O3S-
185.0276	189	C8H9O3S-
200.0716	2	C12H10NO2-
216.9731	15	C8H6ClO3S-
218.9888	111	C8H8ClO3S-
224.0389	3	C10H10NO3S-
227.0384	28	C10H11O4S-
252.0339	4	C11H10NO4S-
264.0336	20	C12H10NO4S-
272.0399	21	C11H11FNO4S-
300.0104	8	C12H11ClNO4S-
335.9872	999	C12H12Cl2NO4S-
