Mass spectrum: Cefazolin; LC-ESI-QFT; MS2; CE: 75; R=35000; [M+H]+
Name: Cefazolin
Name: 3-[(5-methyl-1,3,4-thiadiazol-2-yl)sulfanylmethyl]-8-oxo-7-[[2-(tetrazol-1-yl)acetyl]amino]-5-thia-1-azabicyclo[4.2.0]oct-2-ene-2-carboxylic acid
Formula: C14H14N8O4S3
Exact mass: 454.03001
SMILES: CC1=NN=C(S1)SCC2=C(N3C(C(C3=O)NC(=O)CN4C=NN=N4)SC2)C(=O)O
InChI: InChI=1S/C14H14N8O4S3/c1-6-17-18-14(29-6)28-4-7-3-27-12-9(11(24)22(12)10(7)13(25)26)16-8(23)2-21-5-15-19-20-21/h5,9,12H,2-4H2,1H3,(H,16,23)(H,25,26)
Instrument: Q Exactive Plus Orbitrap Thermo Scientific
Instrument type: LC-ESI-QFT
Ms type: MS2
Ion mode: POSITIVE
Ionization: ESI
Fragmentation mode: HCD
Collision energy: 75 (nominal)
Resolution: 35000
Column name: XBridge C18 3.5um, 2.1x50mm, Waters
Retention time: 4.5 min
Base peak: 455.0367
Precursor m/z: 455.0373
Precursor type: [M+H]+
m/z	relative intensity	assigned
51.0229	6	C4H3+
52.0181	4	C3H2N+
53.0386	163	C4H5+
54.0339	72	C3H4N+
55.0291	418	C2H3N2+
56.0131	5	C2H2NO+
56.0495	43	C3H6N+
56.9793	28	C2HS+
57.0448	225	C2H5N2+
57.9746	16	CNS+
57.9872	54	C2H2S+
58.0287	13	C2H4NO+
58.995	90	C2H3S+
59.9665	16	COS+
59.9903	71	CH2NS+
62.0059	23	CH4NS+
63.023	12	C5H3+
65.0386	145	C5H5+
66.0339	277	C4H4N+
66.0464	18	C5H6+
67.0291	22	C3H3N2+
67.0417	56	C4H5N+
67.0543	5	C5H7+
68.0495	410	C4H6N+
68.9794	41	C3HS+
69.0448	329	C3H5N2+
69.9746	38	C2NS+
70.0288	14	C3H4NO+
70.04	3	C2H4N3+
70.0651	6	C4H8N+
70.995	130	C3H3S+
71.0353	31	CH3N4+
71.9903	72	C2H2NS+
72.0029	4	C3H4S+
72.0556	49	C2H6N3+
72.9981	177	C2H3NS+
73.0107	40	C3H5S+
74.0059	147	C2H4NS+
75.0137	36	C2H5NS+
78.0339	87	C5H4N+
79.0291	3	C4H3N2+
79.0416	18	C5H5N+
80.0495	840	C5H6N+
81.0448	90	C4H5N2+
81.0574	69	C5H7N+
82.0288	28	C4H4NO+
82.04	25	C3H4N3+
82.0526	136	C4H6N2+
82.0652	31	C5H8N+
82.995	39	C4H3S+
83.024	12	C3H3N2O+
83.0367	4	C4H5NO+
83.0478	39	C3H5N3+
83.0602	6	C4H7N2+
83.9903	38	C3H2NS+
84.0029	69	C4H4S+
84.0319	19	C3H4N2O+
84.0444	88	C4H6NO+
84.0557	231	C3H6N3+
85.0107	562	C4H5S+
85.0397	84	C3H5N2O+
86.0059	128	C3H4NS+
87.0138	19	C3H5NS+
87.0264	5	C4H7S+
89.017	2	C2H5N2S+
90.0339	73	C6H4N+
91.0417	31	C6H5N+
91.9624	63	CH2NS2+
92.0369	6	C5H4N2+
92.0496	55	C6H6N+
93.0448	144	C5H5N2+
93.0574	49	C6H7N+
94.0288	5	C5H4NO+
94.0401	14	C4H4N3+
94.0527	11	C5H6N2+
94.0652	15	C6H8N+
94.9951	27	C5H3S+
95.0605	256	C5H7N2+
96.0445	126	C5H6NO+
96.0557	430	C4H6N3+
97.0108	999	C5H5S+
97.9934	23	C3H2N2S+
98.006	78	C4H4NS+
98.0186	19	C5H6S+
98.0475	22	C4H6N2O+
99.0012	364	C3H3N2S+
99.0138	263	C4H5NS+
99.0264	61	C5H7S+
100.009	104	C3H4N2S+
100.0216	149	C4H6NS+
100.0506	120	C3H6N3O+
101.0057	34	C4H5OS+
101.0169	87	C3H5N2S+
102.0009	6	C3H4NOS+
102.0247	3	C3H6N2S+
105.0448	106	C6H5N2+
106.0526	214	C6H6N2+
107.0605	580	C6H7N2+
108.0558	34	C5H6N3+
108.0683	413	C6H8N2+
108.9984	3	C5H3NS+
109.0107	32	C6H5S+
109.0513	3	C4H5N4+
109.0761	63	C6H9N2+
110.006	140	C5H4NS+
110.035	10	C4H4N3O+
110.0602	26	C6H8NO+
110.9899	3	C5H3OS+
111.0012	38	C4H3N2S+
111.0138	18	C5H5NS+
111.0429	11	C4H5N3O+
111.0553	19	C5H7N2O+
111.0668	6	C4H7N4+
112.0216	569	C5H6NS+
112.0394	724	C5H6NO2+
112.0504	39	C4H6N3O+
113.0056	13	C5H5OS+
113.0168	65	C4H5N2S+
113.0294	20	C5H7NS+
114.001	5	C4H4NOS+
114.0247	5	C4H6N2S+
114.0373	26	C5H8NS+
115.0326	3	C4H7N2S+
116.0277	3	C3H6N3S+
117.0447	13	C7H5N2+
118.0526	94	C7H6N2+
119.0605	627	C7H7N2+
120.0559	39	H12N2O3S+
120.0683	321	C7H8N2+
121.0397	11	C6H5N2O+
121.0637	12	C6H7N3+
121.0761	26	C7H9N2+
122.006	250	C6H4NS+
122.0714	20	C6H8N3+
123.0138	78	C6H5NS+
123.0553	5	C6H7N2O+
124.0217	459	C6H6NS+
124.0395	32	C6H6NO2+
125.0056	3	C6H5OS+
125.017	30	C5H5N2S+
125.0294	3	C6H7NS+
126.0011	27	C5H4NOS+
126.0122	31	C4H4N3S+
126.0247	21	C5H6N2S+
126.0373	55	C6H8NS+
126.996	4	C4H3N2OS+
127.0199	93	C4H5N3S+
127.0327	10	C5H7N2S+
128.0166	57	C5H6NOS+
128.0278	149	C4H6N3S+
129.0006	13	C5H5O2S+
129.0117	5	C4H5N2OS+
130.0197	19	C4H6N2OS+
132.0558	45	C7H6N3+
132.989	803	C3H5N2S2+
133.0636	82	C7H7N3+
134.0475	13	C7H6N2O+
134.0714	81	C7H8N3+
135.0554	18	C7H7N2O+
135.0794	12	C7H9N3+
136.0217	49	CH12O3S2+
136.0394	11	C7H6NO2+
137.0169	84	C6H5N2S+
137.0344	6	C6H5N2O2+
138.0123	5	C5H4N3S+
138.0245	15	C6H6N2S+
139.0326	314	C6H7N2S+
140.0166	27	C6H6NOS+
140.0277	17	C5H6N3S+
140.0456	2	C5H6N3O2+
141.0116	5	C5H5N2OS+
141.0481	33	C6H9N2S+
142.0323	14	C6H8NOS+
144.0116	44	C5H6NO2S+
144.0559	12	C8H6N3+
145.0635	21	C8H7N3+
146.0714	32	C8H8N3+
147.0668	22	C7H7N4+
147.0794	10	C8H9N3+
148.0505	5	C7H6N3O+
149.017	33	C7H5N2S+
149.0821	3	C7H9N4+
150.0249	20	C7H6N2S+
150.0658	4	C7H8N3O+
151.0326	144	C7H7N2S+
151.0503	16	C7H7N2O2+
152.0166	39	C7H6NOS+
153.0482	62	C7H9N2S+
154.043	3	C6H8N3S+
155.0149	4	C5H5N3OS+
156.0115	401	C6H6NO2S+
157.0196	23	C6H7NO2S+
161.0824	57	C8H9N4+
162.0665	12	C8H8N3O+
162.0902	3	C8H10N4+
163.0325	13	C8H7N2S+
164.0279	19	C7H6N3S+
164.0582	4	C8H8N2O2+
165.0121	10	CH11NO4S2+
165.0357	6	C7H7N3S+
166.0437	32	C7H8N3S+
167.0275	54	C7H7N2OS+
168.0115	17	C7H6NO2S+
178.0435	29	C8H8N3S+
195.0226	13	CH7N8S2+
