Mass spectrum: Isoprocarb; LC-ESI-QFT; MS2; CE: 15%; R=17500; [M+H]+
Name: Isoprocarb
Name: (2-propan-2-ylphenyl) N-methylcarbamate
Formula: C11H15NO2
Exact mass: 193.1103
SMILES: CC(C)C1=CC=CC=C1OC(=O)NC
InChI: InChI=1S/C11H15NO2/c1-8(2)9-6-4-5-7-10(9)14-11(13)12-3/h4-8H,1-3H3,(H,12,13)
Instrument: Exploris 240 Orbitrap Thermo Scientific
Instrument type: LC-ESI-QFT
Ms type: MS2
Ion mode: POSITIVE
Ionization: ESI
Fragmentation mode: HCD
Collision energy: 15 % (nominal)
Resolution: 17500
Column name: XBridge C18 3.5um, 2.1x50mm, Waters
Retention time: 6.960 min
Base peak: 194.1175
Precursor m/z: 194.1176
Precursor type: [M+H]+
m/z	relative intensity	assigned
95.0492	507	C6H7O+
137.0961	999	C9H13O+
152.0706	636	C8H10NO2+
194.1176	692	C11H16NO2+
