Mass spectrum: Sulfentrazon; LC-ESI-QFT; MS2; CE: 120; R=35000; [M+H]+
Name: Sulfentrazon
Name: N-(2,4-dichloro-5-(4-(difluoromethyl)-4,5-dihydro-3-methyl-5-oxo-1H-1,2,4-triazol-1-yl)phenyl)methanesulfonamide
Name: N-[2,4-dichloro-5-[4-(difluoromethyl)-3-methyl-5-oxo-1,2,4-triazol-1-yl]phenyl]methanesulfonamide
Formula: C11H10Cl2F2N4O3S
Exact mass: 385.98187
SMILES: O=S(=O)(Nc2c(Cl)cc(Cl)c(N1/N=C(\N(C1=O)C(F)F)C)c2)C
InChI: InChI=1S/C11H10Cl2F2N4O3S/c1-5-16-19(11(20)18(5)10(14)15)9-4-8(17-23(2,21)22)6(12)3-7(9)13/h3-4,10,17H,1-2H3
Instrument: Q Exactive Plus Orbitrap Thermo Scientific
Instrument type: LC-ESI-QFT
Ms type: MS2
Ion mode: POSITIVE
Ionization: ESI
Fragmentation mode: HCD
Collision energy: 120 (nominal)
Resolution: 35000
Column name: XBridge C18 3.5um, 2.1x50mm, Waters
Retention time: 7.4 min
Base peak: 386.989
Precursor m/z: 386.9891
Precursor type: [M+H]+
m/z	relative intensity	assigned
50.015	2	C4H2+
51.0041	1	CHF2+
51.0103	1	C3HN+
52.0181	8	C3H2N+
53.0022	4	C3HO+
55.0179	1	C3H3O+
56.0369	3	C2H4N2+
58.0087	3	C2HFN+
58.0161	1	CH2N2O+
59.9761	1	C2HCl+
60.984	5	C2H2Cl+
61.9792	233	CHClN+
62.9632	5	CClO+
63.0229	3	C5H3+
64.0181	11	C4H2N+
65.0022	2	C4HO+
66.0338	9	C4H4N+
66.9745	1	CHClF+
67.0178	1	C4H3O+
67.029	8	C3H3N2+
68.0131	6	C3H2NO+
68.0243	1	C2H2N3+
72.9839	53	C3H2Cl+
73.9792	3	C2HClN+
74.0037	16	C2HFNO+
75.0103	286	C5HN+
76.0181	233	C5H2N+
77.0133	4	C4HN2+
77.026	6	C5H3N+
78.0338	10	C5H4N+
79.029	1	C4H3N2+
82.0287	4	C4H4NO+
82.9449	47	CHCl2+
83.9761	19	C4HCl+
84.9839	110	C4H2Cl+
85.9791	23	C3HClN+
86.9632	3	C3ClO+
86.9996	1	C4H4Cl+
87.9949	5	C3H3ClN+
88.0182	4	C6H2N+
89.0385	4	C7H5+
89.9974	2	C5NO+
90.0105	5	C3H5ClN+
90.0339	5	C6H4N+
90.0463	1	C7H6+
91.0291	7	C5H3N2+
92.0131	12	C5H2NO+
92.0306	5	C3H4F2N+
92.0368	4	C5H4N2+
94.0288	6	C5H4NO+
96.984	4	C5H2Cl+
97.9792	83	C4HClN+
98.987	1	C4H2ClN+
98.9995	2	C5H4Cl+
99.0427	4	C3H5N3O+
99.9948	33	C4H3ClN+
100.0055	29	C6N2+
101.0134	161	C6HN2+
101.9742	1	C3HClNO+
102.0105	3	C4H5ClN+
103.029	65	C6H3N2+
105.0447	9	C6H5N2+
105.9371	2	C3Cl2+
106.945	21	C3HCl2+
107.9402	1	C2Cl2N+
108.9714	10	C5ClN+
109.9792	999	C5HClN+
110.987	10	C5H2ClN+
111.9948	280	C5H3ClN+
112.99	10	C4H2ClN2+
113.9744	3	C4HClNO+
115.9898	1	C4H3ClNO+
116.0367	1	C7H4N2+
117.0447	2	C7H5N2+
117.0572	9	C8H7N+
118.0399	8	C6H4N3+
118.0525	1	C7H6N2+
118.945	28	C4HCl2+
119.0239	14	C6H3N2O+
119.0604	1	C7H7N2+
119.9529	2	C4H2Cl2+
120.9607	5	C4H3Cl2+
121.0396	7	C6H5N2O+
121.9791	1	C6HClN+
123.9949	6	C6H3ClN+
124.9902	1	C5H2ClN2+
125.0026	1	C6H4ClN+
125.9979	5	C5H3ClN2+
126.9819	2	C5H2ClNO+
127.0057	10	C5H4ClN2+
127.9897	107	C5H3ClNO+
128.9976	2	C5H4ClNO+
130.0054	43	C5H5ClNO+
130.945	5	C5HCl2+
131.9405	1	C4Cl2N+
132.9607	3	C5H3Cl2+
133.9559	2	C4H2Cl2N+
136.9901	37	C6H2ClN2+
137.9979	2	C6H3ClN2+
139.0057	163	C6H4ClN2+
139.9896	1	CH2ClFN4O+
142.0052	2	CH4ClFN4O+
143.9402	1	C5Cl2N+
144.0557	1	C8H6N3+
145.0164	1	C5H6ClN2O+
145.9558	47	C5H2Cl2N+
146.0712	4	C8H8N3+
146.9638	5	C5H3Cl2N+
147.9715	28	C5H4Cl2N+
151.0182	3	C3H5ClFN4+
152.9849	1	C6H2ClN2O+
153.0089	3	C6H4ClN3+
153.0213	2	C7H6ClN2+
154.0166	134	C6H5ClN3+
155.0006	15	C6H4ClN2O+
157.9559	24	C6H2Cl2N+
159.0667	1	C8H7N4+
161.9506	3	Cl2FHN4O+
163.9664	18	C5H4Cl2NO+
164.985	2	C7H2ClN2O+
170.951	1	C6HCl2N2+
172.9668	15	C6H3Cl2N2+
173.9508	7	C6H2Cl2NO+
180.0322	1	C8H7ClN3+
181.04	2	C8H8ClN3+
182.0115	51	C7H5ClN3O+
