Mass spectrum: Kresoxim-methyl; LC-ESI-ITFT; MS2; CE: 90%; R=30000; [M+H]+
Name: Kresoxim-methyl
Name: Methyl (E)-alpha-(methoxyimino)-2-((2-methylphenoxy)methyl)benzeneacetic acid
Formula: C18H19NO4
Exact mass: 313.1309
SMILES: Cc1ccccc1OCc1ccccc1\C(=N/OC)C(=O)OC
InChI: InChI=1S/C18H19NO4/c1-13-8-4-7-11-16(13)23-12-14-9-5-6-10-15(14)17(19-22-3)18(20)21-2/h4-11H,12H2,1-3H3/b19-17+
Instrument: LTQ Orbitrap XL Thermo Scientific
Instrument type: LC-ESI-ITFT
Ms type: MS2
Ion mode: POSITIVE
Ionization: ESI
Fragmentation mode: HCD
Collision energy: 90 % (nominal)
Resolution: 30000
Column name: XBridge C18 3.5um, 2.1x50mm, Waters
Retention time: 12.5 min
Base peak: 336.1208
Precursor m/z: 314.1387
Precursor type: [M+H]+
m/z	relative intensity	assigned
89.0385	916	C7H5+
91.0542	390	C7H7+
116.0493	999	C8H6N+
117.0572	378	C8H7N+
118.065	519	C8H8N+
130.065	640	C9H8N+
131.0728	415	C9H9N+
165.0696	282	C13H9+
178.0773	356	C14H10+
