Mass spectrum: Metconazole; LC-ESI-QFT; MS2; CE: 90; R=35000; [M+H]+
Name: Metconazole
Name: 5-(4-chlorobenzyl)-2,2-dimethyl-1-(1,2,4-triazol-1-ylmethyl)cyclopentanol
Formula: C17H22ClN3O
Exact mass: 319.14514
SMILES: Clc1ccc(cc1)CC2C(O)(C(CC2)(C)C)Cn3ncnc3
InChI: InChI=1S/C17H22ClN3O/c1-16(2)8-7-14(9-13-3-5-15(18)6-4-13)17(16,22)10-21-12-19-11-20-21/h3-6,11-12,14,22H,7-10H2,1-2H3
Instrument: Q Exactive Orbitrap Thermo Scientific
Instrument type: LC-ESI-QFT
Ms type: MS2
Ion mode: POSITIVE
Ionization: ESI
Fragmentation mode: HCD
Collision energy: 90 (nominal)
Resolution: 35000
Column name: XBridge C18 3.5um, 2.1x50mm, Waters
Retention time: 13.8 min
Base peak: 320.1528
Precursor m/z: 320.1524
Precursor type: [M+H]+
m/z	relative intensity	assigned
59.0493	6	C3H7O+
63.023	1	C5H3+
67.0543	6	C5H7+
70.04	999	C2H4N3+
79.0542	2	C6H7+
89.0386	24	C7H5+
90.0464	5	C7H6+
91.0542	4	C7H7+
93.0698	2	C7H9+
95.0855	5	C7H11+
98.9996	11	C5H4Cl+
103.0541	4	C8H7+
115.0543	7	C9H7+
116.062	6	C9H8+
125.0153	190	C7H6Cl+
128.0621	6	C10H8+
129.0698	2	C10H9+
130.0778	1	C10H10+
139.0309	1	C8H8Cl+
141.0698	6	C11H9+
142.0778	8	C11H10+
149.0154	1	C9H6Cl+
151.0311	1	C9H8Cl+
155.0604	2	C10H7N2+
162.023	1	C10H7Cl+
