Mass spectrum: Oxytetracycline; LC-ESI-QFT; MS2; CE: 15; R=35000; [M-H]-
Name: Oxytetracycline
Name: (4S,4aR,5S,5aR,6S,12aS)-4-(Dimethylamino)-3,5,6,10,12,12a-hexahydroxy-6-methyl-1,11-dioxo-1,4,4a,5,5a,6,11,12a-octahydro-2-tetracenecarboxamide
Name: 2-carbamoyl-4-(dimethylazaniumyl)-5,6,10,11,12a-pentahydroxy-6-methyl-3,12-dioxo-4,4a,5,5a-tetrahydrotetracen-1-olate
Formula: C22H24N2O9
Exact mass: 460.14818
SMILES: CC1(C2C(C3C(C(=O)C(=C(C3(C(=O)C2=C(C4=C1C=CC=C4O)O)O)O)C(=O)N)N(C)C)O)O
InChI: InChI=1S/C22H24N2O9/c1-21(32)7-5-4-6-8(25)9(7)15(26)10-12(21)17(28)13-14(24(2)3)16(27)11(20(23)31)19(30)22(13,33)18(10)29/h4-6,12-14,17,25-26,28,30,32-33H,1-3H3,(H2,23,31)
Instrument: Q Exactive Plus Orbitrap Thermo Scientific
Instrument type: LC-ESI-QFT
Ms type: MS2
Ion mode: NEGATIVE
Ionization: ESI
Fragmentation mode: HCD
Collision energy: 15 (nominal)
Resolution: 35000
Column name: XBridge C18 3.5um, 2.1x50mm, Waters
Retention time: 4.3 min
Base peak: 459.1405
Precursor m/z: 459.1409
Precursor type: [M-H]-
m/z	relative intensity	assigned
142.0145	21	C5H4NO4-
151.0273	4	C7H5NO3-
163.0402	1	C9H7O3-
168.0302	7	C7H6NO4-
169.0619	1	C7H9N2O3-
180.03	3	C8H6NO4-
181.0379	2	C8H7NO4-
182.0823	1	C9H12NO3-
195.0773	6	C9H11N2O3-
196.025	6	C8H6NO5-
201.0556	17	C12H9O3-
203.0715	4	C12H11O3-
207.0774	4	C10H11N2O3-
211.0726	2	C9H11N2O4-
213.0879	5	C9H13N2O4-
225.0881	9	C10H13N2O4-
227.071	2	C14H11O3-
245.0453	9	C13H9O5-
247.061	6	C13H11O5-
271.0612	4	C15H11O5-
285.076	1	C16H13O5-
289.0716	25	C15H13O6-
295.0932	1	C13H15N2O6-
309.0769	3	C18H13O5-
310.1446	1	C19H20NO3-
314.1033	3	C17H16NO5-
327.0876	2	C18H15O6-
334.0722	1	C19H12NO5-
335.0564	1	C19H11O6-
336.1246	1	C20H18NO4-
352.0828	5	C19H14NO6-
353.0668	3	C19H13O7-
353.0905	13	C19H15NO6-
354.1346	8	C20H20NO5-
356.1138	2	C19H18NO6-
370.0932	17	C19H16NO7-
371.1007	27	C19H17NO7-
372.1448	8	C20H22NO6-
374.1244	117	C19H20NO7-
378.062	1	C20H12NO7-
379.1293	4	C21H19N2O5-
380.1136	4	C21H18NO6-
387.1565	1	C20H23N2O6-
396.0725	4	C20H14NO8-
397.0549	1	C20H13O9-
397.1405	17	C21H21N2O6-
398.1242	14	C21H20NO7-
413.1347	1	C21H21N2O7-
414.0824	3	C20H16NO9-
415.1508	66	C21H23N2O7-
416.1349	121	C21H22NO8-
423.1201	1	C22H19N2O7-
424.1029	1	C22H18NO8-
441.1304	11	C22H21N2O8-
442.1143	246	C22H20NO9-
459.1409	999	C22H23N2O9-
460.1245	16	C22H22NO10-
