Mass spectrum: Oxybutynin; LC-ESI-QFT; MS2; CE: 30; R=35000; [M+H]+
Name: Oxybutynin
Name: 2-cyclohexyl-2-hydroxy-2-phenyl-acetic acid 4-(diethylamino)but-2-ynyl ester
Formula: C22H31NO3
Exact mass: 357.23039
SMILES: CCN(CC)CC#CCOC(=O)C(C1CCCCC1)(C2=CC=CC=C2)O
InChI: InChI=1S/C22H31NO3/c1-3-23(4-2)17-11-12-18-26-21(24)22(25,19-13-7-5-8-14-19)20-15-9-6-10-16-20/h5,7-8,13-14,20,25H,3-4,6,9-10,15-18H2,1-2H3
Instrument: Q Exactive Orbitrap Thermo Scientific
Instrument type: LC-ESI-QFT
Ms type: MS2
Ion mode: POSITIVE
Ionization: ESI
Fragmentation mode: HCD
Collision energy: 30 (nominal)
Resolution: 35000
Column name: XBridge C18 3.5um, 2.1x50mm, Waters
Retention time: 8.9 min
Base peak: 358.2382
Precursor m/z: 358.2377
Precursor type: [M+H]+
m/z	relative intensity	assigned
54.034	29	C3H4N+
55.0544	3	C4H7+
56.0496	2	C3H6N+
58.0652	19	C3H8N+
59.0493	1	C3H7O+
67.0543	6	C5H7+
68.0495	37	C4H6N+
69.0336	20	C4H5O+
69.0698	9	C5H9+
70.0652	16	C4H8N+
71.0491	1	C4H7O+
72.0808	92	C4H10N+
73.0886	2	C4H11N+
74.0965	1	C4H12N+
77.0385	1	C6H5+
79.0543	36	C6H7+
80.0496	6	C5H6N+
81.0574	5	C5H7N+
81.07	30	C6H9+
82.0652	105	C5H8N+
83.073	2	C5H9N+
83.0856	18	C6H11+
84.0809	11	C5H10N+
86.0965	9	C5H12N+
91.0542	17	C7H7+
94.0652	36	C6H8N+
95.0491	1	C6H7O+
95.073	24	C6H9N+
95.0856	5	C7H11+
96.0809	85	C6H10N+
97.0285	139	C5H5O2+
98.0965	1	C6H12N+
105.0336	96	C7H5O+
107.0492	16	C7H7O+
107.0856	8	C8H11+
108.0809	12	C7H10N+
109.0648	1	C7H9O+
109.0887	30	C7H11N+
113.0234	1	C5H5O3+
117.0698	1	C9H9+
122.0965	33	C8H12N+
124.1122	430	C8H14N+
125.1198	9	C8H15N+
129.07	15	C10H9+
142.1228	304	C8H16NO+
143.0856	3	C11H11+
157.0649	4	C11H9O+
169.1013	1	C13H13+
171.1169	41	C13H15+
173.0599	5	C11H9O2+
181.1014	3	C14H13+
185.0598	7	C12H9O2+
187.0759	9	C12H11O2+
189.1276	62	C13H17O+
199.1119	25	C14H15O+
203.0703	9	C12H11O3+
257.1422	1	C16H19NO2+
258.1491	24	C16H20NO2+
267.1384	15	C18H19O2+
340.2275	153	C22H30NO2+
358.2381	999	C22H32NO3+
