Mass spectrum: Norclozapine; LC-ESI-QFT; MS2; CE: 75; R=35000; [M+H]+
Name: Norclozapine
Name: 3-chloro-6-piperazin-1-yl-5H-benzo[b][1,4]benzodiazepine
Formula: C17H17ClN4
Exact mass: 312.11417
SMILES: C1CN(CCN1)C2=NC3=C(C=CC(=C3)Cl)NC4=CC=CC=C42
InChI: InChI=1S/C17H17ClN4/c18-12-5-6-15-16(11-12)21-17(22-9-7-19-8-10-22)13-3-1-2-4-14(13)20-15/h1-6,11,19-20H,7-10H2
Instrument: Q Exactive Plus Orbitrap Thermo Scientific
Instrument type: LC-ESI-QFT
Ms type: MS2
Ion mode: POSITIVE
Ionization: ESI
Fragmentation mode: HCD
Collision energy: 75 (nominal)
Resolution: 35000
Column name: XBridge C18 3.5um, 2.1x50mm, Waters
Retention time: 5.9 min
Base peak: 313.1204
Precursor m/z: 313.1215
Precursor type: [M+H]+
m/z	relative intensity	assigned
56.0494	4	C3H6N+
63.0228	1	C5H3+
68.0494	2	C4H6N+
70.065	68	C4H8N+
71.0603	10	C3H7N2+
81.0334	1	C5H5O+
85.076	1	C4H9N2+
87.0916	1	C4H11N2+
90.0337	18	C6H4N+
98.9994	3	C5H4Cl+
123.9948	24	C6H3ClN+
132.068	2	C8H8N2+
164.0493	11	C12H6N+
165.057	4	C12H7N+
167.073	1	C12H9N+
181.0758	1	C12H9N2+
183.0676	1	C9H12ClN2+
191.0602	16	C13H7N2+
192.0679	999	C13H8N2+
193.0764	1	C13H9N2+
194.0837	6	C13H10N2+
195.0549	1	C9H10ClN3+
200.0259	19	C12H7ClN+
201.0345	1	C12H8ClN+
205.0759	2	C14H9N2+
206.0836	4	C14H10N2+
207.0916	2	C14H11N2+
208.0868	1	C13H10N3+
208.0993	3	C14H12N2+
209.0708	13	C10H12ClN3+
209.0943	1	C13H11N3+
213.0336	1	C13H8ClN+
214.0418	1	C13H9ClN+
215.0366	3	C12H8ClN2+
217.076	2	C15H9N2+
218.0836	16	C15H10N2+
219.0665	6	C13H7N4+
219.0917	2	C15H11N2+
220.0868	7	C14H10N3+
226.0291	53	C13H7ClN2+
227.0369	87	C13H8ClN2+
228.0446	8	C13H9ClN2+
229.0526	6	C13H10ClN2+
233.0944	1	C15H11N3+
234.1024	11	C15H12N3+
235.1102	5	C15H13N3+
239.0368	2	C14H8ClN2+
240.0444	4	C14H9ClN2+
241.0402	1	C13H8ClN3+
241.0525	2	C14H10ClN2+
243.0558	1	C13H10ClN3+
243.0682	1	C14H12ClN2+
244.0636	3	C13H11ClN3+
246.1025	3	C16H12N3+
252.0451	1	C15H9ClN2+
253.0397	4	C14H8ClN3+
253.0525	18	C15H10ClN2+
254.0476	4	C14H9ClN3+
254.0604	2	C15H11ClN2+
255.0554	6	C14H10ClN3+
255.0683	1	C15H12ClN2+
260.1179	1	C17H14N3+
266.0474	1	C15H9ClN3+
268.0638	2	C15H11ClN3+
269.0704	1	C15H12ClN3+
270.079	83	C15H13ClN3+
280.0632	5	C16H11ClN3+
281.0704	1	C16H12ClN3+
294.0795	2	C17H13ClN3+
296.0946	10	C17H15ClN3+
