Mass spectrum: Verapamil; LC-ESI-ITFT; MS2; CE: 45%; R=7500; [M+H]+
Name: Verapamil
Name: 2-(3,4-dimethoxyphenyl)-5-[2-(3,4-dimethoxyphenyl)ethyl-methyl-amino]-2-propan-2-yl-pentanenitrile
Formula: C27H38N2O4
Exact mass: 454.2832
SMILES: COC1=C(OC)C=CC(C(C(C)C)(C#N)CCCN(CCC2=CC(OC)=C(OC)C=C2)C)=C1
InChI: InChI=1S/C27H38N2O4/c1-20(2)27(19-28,22-10-12-24(31-5)26(18-22)33-7)14-8-15-29(3)16-13-21-9-11-23(30-4)25(17-21)32-6/h9-12,17-18,20H,8,13-16H2,1-7H3
Instrument: LTQ Orbitrap XL Thermo Scientific
Instrument type: LC-ESI-ITFT
Ms type: MS2
Ion mode: POSITIVE
Ionization: ESI
Fragmentation mode: HCD
Collision energy: 45 % (nominal)
Resolution: 7500
Column name: XBridge C18 3.5um, 2.1x50mm, Waters
Retention time: 7.3 min
Base peak: 455.292
Precursor m/z: 455.2904
Precursor type: [M+H]+
m/z	relative intensity	assigned
58.0651	11	C3H8N+
86.0966	3	C5H12N+
105.0698	14	C8H9+
122.0967	9	C8H12N+
133.065	12	C9H9O+
134.0729	9	C9H10O+
135.0438	7	C8H7O2+
135.0806	11	C9H11O+
136.0513	2	C8H8O2+
139.075	2	C8H11O2+
150.0676	132	C9H10O2+
151.0754	21	C9H11O2+
165.0913	999	C10H13O2+
177.091	18	C11H13O2+
218.1179	10	C13H16NO2+
243.1383	6	C16H19O2+
245.1415	5	C15H19NO2+
260.1646	77	C16H22NO2+
261.1599	29	C15H21N2O2+
303.2068	150	C18H27N2O2+
