Mass spectrum: Methoxyfenozide; LC-ESI-ITFT; MS2; CE: 35%; R=7500; [M+H]+
Name: Methoxyfenozide
Name: N'-tert-butyl-N'-(3,5-dimethylbenzoyl)-3-methoxy-2-methyl-benzohydrazide
Formula: C22H28N2O3
Exact mass: 368.2100
SMILES: O=C(c1cc(cc(c1)C)C)N(NC(=O)c2cccc(OC)c2C)C(C)(C)C
InChI: InChI=1S/C22H28N2O3/c1-14-11-15(2)13-17(12-14)21(26)24(22(4,5)6)23-20(25)18-9-8-10-19(27-7)16(18)3/h8-13H,1-7H3,(H,23,25)
Instrument: LTQ Orbitrap XL Thermo Scientific
Instrument type: LC-ESI-ITFT
Ms type: MS2
Ion mode: POSITIVE
Ionization: ESI
Fragmentation mode: CID
Collision energy: 35 % (nominal)
Resolution: 7500
Column name: XBridge C18 3.5um, 2.1x50mm, Waters
Retention time: 10.9 min
Base peak: 369.2178
Precursor m/z: 369.2173
Precursor type: [M+H]+
m/z	relative intensity	assigned
313.1539	999	C18H21N2O3+
