Mass spectrum: Chlorpyrifos-methyl; LC-ESI-ITFT; MS2; CE: 45%; R=7500; [M+H]+
Name: Chlorpyrifos-methyl
Name: dimethoxy-sulfanylidene-(3,5,6-trichloropyridin-2-yl)oxy-{5}-phosphane
Formula: C7H7Cl3NO3PS
Exact mass: 320.8950
SMILES: Clc1c(OP(=S)(OC)OC)nc(Cl)c(Cl)c1
InChI: InChI=1S/C7H7Cl3NO3PS/c1-12-15(16,13-2)14-7-5(9)3-4(8)6(10)11-7/h3H,1-2H3
Instrument: LTQ Orbitrap XL Thermo Scientific
Instrument type: LC-ESI-ITFT
Ms type: MS2
Ion mode: POSITIVE
Ionization: ESI
Fragmentation mode: HCD
Collision energy: 45 % (nominal)
Resolution: 7500
Column name: XBridge C18 3.5um, 2.1x50mm, Waters
Retention time: 14.0 min
Base peak: 321.9026
Precursor m/z: 321.9023
Precursor type: [M+H]+
m/z	relative intensity	assigned
62.0186	7	C2H6S+
78.9944	70	CH4O2P+
109.0049	19	C2H6O3P+
110.9663	14	CH4O2PS+
124.9821	999	C2H6O2PS+
127.0155	217	C3H8ClO3+
128.9771	3	CH6O3PS+
142.9927	832	C2H8O3PS+
197.9273	11	C4H3Cl2NO2P+
211.8889	22	C5HCl3NS+
211.9442	5	C6H5Cl3NO+
229.8998	44	C5H3Cl3NOS+
289.8757	233	C6H4Cl3NO2PS+
