Mass spectrum: Spirotetramat Metabolite BYI08330 Enol-Glucoside; LC-ESI-QFT; MS2; CE: 180%; R=17500; [M+H]+
Name: Spirotetramat Metabolite BYI08330 Enol-Glucoside
Name: 3-(2,5-dimethylphenyl)-8-methoxy-4-[3,4,5-trihydroxy-6-(hydroxymethyl)oxan-2-yl]oxy-1-azaspiro[4.5]dec-3-en-2-one
Formula: C24H33NO8
Exact mass: 463.2206
SMILES: CC1=CC(=C(C=C1)C)C2=C(C3(CCC(CC3)OC)NC2=O)OC4C(C(C(C(O4)CO)O)O)O
InChI: InChI=1S/C24H33NO8/c1-12-4-5-13(2)15(10-12)17-21(24(25-22(17)30)8-6-14(31-3)7-9-24)33-23-20(29)19(28)18(27)16(11-26)32-23/h4-5,10,14,16,18-20,23,26-29H,6-9,11H2,1-3H3,(H,25,30)
Instrument: Exploris 240 Orbitrap Thermo Scientific
Instrument type: LC-ESI-QFT
Ms type: MS2
Ion mode: POSITIVE
Ionization: ESI
Fragmentation mode: HCD
Collision energy: 180 % (nominal)
Resolution: 17500
Column name: XBridge C18 3.5um, 2.1x50mm, Waters
Retention time: 3.587 min
Base peak: 464.2275
Precursor m/z: 464.2279
Precursor type: [M+H]+
m/z	relative intensity	assigned
51.0228	149	C4H3+
53.0385	118	C4H5+
63.023	76	C5H3+
65.0386	428	C5H5+
77.0386	344	C6H5+
78.0465	160	C6H6+
79.0543	106	C6H7+
89.0384	144	C7H5+
91.0542	687	C7H7+
95.0493	138	C6H7O+
102.0463	146	C8H6+
103.0544	212	C8H7+
104.0623	32	C8H8+
105.0699	55	C8H9+
115.0542	999	C9H7+
116.0622	54	C9H8+
117.07	57	C9H9+
128.062	564	C10H8+
129.07	156	C10H9+
130.0651	92	C9H8N+
131.0493	32	C9H7O+
139.0545	55	C11H7+
144.0811	76	C10H10N+
145.0647	42	C10H9O+
152.0618	122	C12H8+
165.0701	76	C13H9+
