Mass spectrum: Diphenyl-phthalate; LC-ESI-QFT; MS2; CE: 60; R=35000; [M+H]+
Name: Diphenyl-phthalate
Name: Diphenyl phthalate
Name: Diphenyl benzene-1,2-dicarboxylate
Formula: C20H14O4
Exact mass: 318.08921
SMILES: C1=CC=C(C=C1)OC(=O)C2=CC=CC=C2C(=O)OC3=CC=CC=C3
InChI: InChI=1S/C20H14O4/c21-19(23-15-9-3-1-4-10-15)17-13-7-8-14-18(17)20(22)24-16-11-5-2-6-12-16/h1-14H
Instrument: Q Exactive Plus Orbitrap Thermo Scientific
Instrument type: LC-ESI-QFT
Ms type: MS2
Ion mode: POSITIVE
Ionization: ESI
Fragmentation mode: HCD
Collision energy: 60 (nominal)
Resolution: 35000
Column name: XBridge C18 3.5um, 2.1x50mm, Waters
Retention time: 12.9 min
Base peak: 225.054
Precursor m/z: 319.0965
Precursor type: [M+H]+
m/z	relative intensity	assigned
50.0151	29	C4H2+
51.0229	72	C4H3+
53.0386	335	C4H5+
55.0178	23	C3H3O+
65.0022	1	C4HO+
67.0542	1	C5H7+
68.9971	1	C3HO2+
77.0385	635	C6H5+
81.0335	39	C5H5O+
81.0699	3	C6H9+
93.0699	1	C7H9+
94.0413	20	C6H6O+
95.0491	999	C6H7O+
105.0335	112	C7H5O+
105.0447	742	C6H5N2+
106.0418	7	C7H6O+
109.0648	3	C7H9O+
115.0542	10	C9H7+
119.0129	4	C7H3O2+
121.0285	3	C7H5O2+
127.0543	4	C10H7+
141.0698	126	C11H9+
145.0645	1	C10H9O+
151.0542	16	C12H7+
152.062	120	C12H8+
153.0699	261	C12H9+
155.0493	2	C11H7O+
155.0604	3	C10H7N2+
168.0569	2	C12H8O+
169.0647	87	C12H9O+
179.0494	9	C13H7O+
179.0606	7	C12H7N2+
181.0648	20	C13H9O+
183.044	36	C12H7O2+
197.0597	163	C13H9O2+
207.0441	11	C14H7O2+
225.0546	441	C14H9O3+
