Mass spectrum: Genistein; LC-ESI-QFT; MS2; CE: 45; R=35000; [M-H]-
Name: Genistein
Name: 5,7-dihydroxy-3-(4-hydroxyphenyl)chromen-4-one
Formula: C15H10O5
Exact mass: 270.05282
SMILES: C1=CC(=CC=C1C2=COC3=CC(=CC(=C3C2=O)O)O)O
InChI: InChI=1S/C15H10O5/c16-9-3-1-8(2-4-9)11-7-20-13-6-10(17)5-12(18)14(13)15(11)19/h1-7,16-18H
Instrument: Q Exactive Plus Orbitrap Thermo Scientific
Instrument type: LC-ESI-QFT
Ms type: MS2
Ion mode: NEGATIVE
Ionization: ESI
Fragmentation mode: HCD
Collision energy: 45 (nominal)
Resolution: 35000
Column name: XBridge C18 3.5um, 2.1x50mm, Waters
Retention time: 7.7 min
Base peak: 269.0453
Precursor m/z: 269.0455
Precursor type: [M-H]-
m/z	relative intensity	assigned
63.024	9	C5H3-
65.0033	6	C4HO-
83.0139	2	C4H3O2-
89.0033	2	C6HO-
91.0189	5	C6H3O-
107.0139	16	C6H3O2-
117.0345	1	C8H5O-
132.0215	2	C8H4O2-
133.0295	36	C8H5O2-
135.0088	7	C7H3O3-
135.0451	5	C8H7O2-
151.0037	4	C7H3O4-
155.0503	3	C11H7O-
157.0294	6	C10H5O2-
157.0658	3	C11H9O-
159.0451	19	C10H7O2-
161.0245	3	C9H5O3-
169.0659	9	C12H9O-
171.0452	2	C11H7O2-
173.0609	2	C11H9O2-
176.0112	1	C9H4O4-
180.0581	10	C13H8O-
181.0659	31	C13H9O-
182.0374	1	C12H6O2-
183.0451	17	C12H7O2-
195.0449	2	C13H7O2-
196.0529	8	C13H8O2-
197.0608	15	C13H9O2-
199.04	8	C12H7O3-
201.0557	28	C12H9O3-
208.0534	1	C14H8O2-
213.0557	9	C13H9O3-
223.0398	2	C14H7O3-
224.0479	22	C14H8O3-
225.0558	28	C14H9O3-
227.0351	9	C13H7O4-
240.0426	4	C14H8O4-
241.0506	10	C14H9O4-
268.0373	2	C15H8O5-
269.0455	999	C15H9O5-
