Mass spectrum: delta9-Tetrahydrocannabinol; LC-ESI-QFT; MS2; CE: 120; R=35000; [M+H]+
Name: delta9-Tetrahydrocannabinol
Name: delta9-THC
Name: 6,6,9-trimethyl-3-pentyl-6a,7,8,10a-tetrahydrobenzo[c]chromen-1-ol
Formula: C21H30O2
Exact mass: 314.22458
SMILES: CCCCCC1=CC2=C(C3C=C(CCC3C(O2)(C)C)C)C(=C1)O
InChI: InChI=1S/C21H30O2/c1-5-6-7-8-15-12-18(22)20-16-11-14(2)9-10-17(16)21(3,4)23-19(20)13-15/h11-13,16-17,22H,5-10H2,1-4H3
Instrument: Q Exactive Plus Orbitrap Thermo Scientific
Instrument type: LC-ESI-QFT
Ms type: MS2
Ion mode: POSITIVE
Ionization: ESI
Fragmentation mode: HCD
Collision energy: 120 (nominal)
Resolution: 35000
Column name: XBridge C18 3.5um, 2.1x50mm, Waters
Retention time: 17.8 min
Base peak: 391.2837
Precursor m/z: 315.2319
Precursor type: [M+H]+
m/z	relative intensity	assigned
50.0151	43	C4H2+
51.023	83	C4H3+
53.0023	113	C3HO+
53.0386	293	C4H5+
53.9975	25	C2NO+
55.0179	281	C3H3O+
55.0543	294	C4H7+
57.07	18	C4H9+
59.0491	3	C3H7O+
63.0229	2	C5H3+
65.0386	446	C5H5+
66.0464	24	C5H6+
67.0543	629	C5H7+
67.9893	21	C3O2+
68.9972	28	C3HO2+
69.0336	45	C4H5O+
69.0699	136	C5H9+
77.0386	197	C6H5+
78.0465	44	C6H6+
79.0543	677	C6H7+
80.0621	26	C6H8+
81.0336	67	C5H5O+
81.0699	225	C6H9+
83.0128	28	C4H3O2+
83.0491	14	C5H7O+
89.0386	13	C7H5+
90.0466	14	C7H6+
91.0543	999	C7H7+
92.0621	13	C7H8+
93.07	139	C7H9+
94.0415	35	C6H6O+
94.0778	1	C7H10+
95.0492	711	C6H7O+
97.0648	8	C6H9O+
102.0465	11	C8H6+
103.0543	113	C8H7+
104.0622	18	C8H8+
105.0448	388	C6H5N2+
105.07	218	C8H9+
106.0416	3	C7H6O+
106.0776	3	C8H10+
107.0492	192	C7H7O+
107.0854	15	C8H11+
108.057	63	C7H8O+
109.0289	2	C6H5O2+
109.0649	35	C7H9O+
109.1012	2	C8H13+
111.0442	14	C6H7O2+
115.0543	163	C9H7+
116.0621	42	C9H8+
117.0699	53	C9H9+
119.0494	9	C8H7O+
119.0604	19	C7H7N2+
119.0856	19	C9H11+
120.0572	2	C8H8O+
121.0398	2	C6H5N2O+
121.0649	26	C8H9O+
121.1015	2	C9H13+
123.0441	175	C7H7O2+
124.0524	2	C7H8O2+
127.0545	10	C10H7+
128.0621	90	C10H8+
129.0699	47	C10H9+
130.078	3	C10H10+
131.0493	71	C9H7O+
131.0857	14	C10H11+
132.057	8	C9H8O+
133.0649	13	C9H9O+
135.0443	3	C8H7O2+
136.0519	28	C8H8O2+
137.0598	7	C8H9O2+
139.0542	2	C11H7+
141.07	63	C11H9+
142.0778	21	C11H10+
143.0859	3	C11H11+
144.057	25	C10H8O+
145.0649	50	C10H9O+
146.0729	3	C10H10O+
147.0441	44	C9H7O2+
147.0805	2	C10H11O+
152.062	13	C12H8+
153.0702	17	C12H9+
154.0778	9	C12H10+
155.0605	24	C10H7N2+
155.0857	9	C12H11+
157.065	15	C11H9O+
158.0726	3	C11H10O+
159.0443	8	C10H7O2+
159.0807	4	C11H11O+
160.0521	37	C10H8O2+
161.0598	42	C10H9O2+
165.0701	19	C13H9+
168.0576	3	C12H8O+
169.0651	8	C12H9O+
171.0804	2	C12H11O+
173.0599	43	C11H9O2+
174.0678	29	C11H10O2+
175.0756	7	C11H11O2+
178.0779	3	C14H10+
181.0649	9	C13H9O+
186.0678	12	C12H10O2+
187.0755	34	C12H11O2+
