Mass spectrum: Sulfamethoxazole; LC-ESI-ITFT; MS2; CE: 60%; R=15000; [M+H]+
Name: Sulfamethoxazole
Name: 4-Amino-N-(5-methyl-3-isoxazolyl)benzenesulfonamide
Name: 4-amino-N-(5-methyl-1,2-oxazol-3-yl)benzenesulfonamide
Formula: C10H11N3O3S
Exact mass: 253.0521
SMILES: c1(S(Nc2cc(C)on2)(=O)=O)ccc(N)cc1
InChI: InChI=1S/C10H11N3O3S/c1-7-6-10(12-16-7)13-17(14,15)9-4-2-8(11)3-5-9/h2-6H,11H2,1H3,(H,12,13)
Instrument: LTQ Orbitrap XL Thermo Scientific
Instrument type: LC-ESI-ITFT
Ms type: MS2
Ion mode: POSITIVE
Ionization: ESI
Fragmentation mode: HCD
Collision energy: 60 % (nominal)
Resolution: 15000
Column name: XBridge C18 3.5um, 2.1x50mm, Waters
Retention time: 4.6 min
Base peak: 254.0603
Precursor m/z: 254.0594
Precursor type: [M+H]+
m/z	relative intensity	assigned
65.0386	174	C5H5+
68.0495	95	C4H6N+
69.0335	6	C4H5O+
78.0338	16	C5H4N+
79.0178	8	C5H3O+
80.0495	21	C5H6N+
92.0495	675	C6H6N+
93.0573	201	C6H7N+
94.0652	8	C6H8N+
96.0444	25	C5H6NO+
99.0553	199	C4H7N2O+
107.0604	25	C6H7N2+
108.0444	999	C6H6NO+
110.06	48	C6H8NO+
120.0559	11	C6H6N3+
121.076	4	C7H9N2+
131.0603	7	C8H7N2+
132.068	6	C8H8N2+
143.0604	4	C9H7N2+
146.0713	34	C8H8N3+
147.079	89	C8H9N3+
148.087	7	C8H10N3+
156.0114	248	C6H6NO2S+
160.0869	114	C9H10N3+
161.0016	8	C4H5N2O3S+
173.058	5	C9H7N3O+
