Mass spectrum: Bupropion; LC-ESI-ITFT; MS2; CE: 90%; R=7500; [M+H]+
Name: Bupropion
Name: 2-(tert-butylamino)-1-(3-chlorophenyl)-1-propanone
Formula: C13H18ClNO
Exact mass: 239.1077
SMILES: c1(C(=O)C(NC(C)(C)C)C)cc(ccc1)Cl
InChI: InChI=1S/C13H18ClNO/c1-9(15-13(2,3)4)12(16)10-6-5-7-11(14)8-10/h5-9,15H,1-4H3
Instrument: LTQ Orbitrap XL Thermo Scientific
Instrument type: LC-ESI-ITFT
Ms type: MS2
Ion mode: POSITIVE
Ionization: ESI
Fragmentation mode: HCD
Collision energy: 90 % (nominal)
Resolution: 7500
Column name: XBridge C18 3.5um, 2.1x50mm, Waters
Retention time: 5.8 min
Base peak: 240.1157
Precursor m/z: 240.115
Precursor type: [M+H]+
m/z	relative intensity	assigned
57.0699	60	C4H9+
77.0387	16	C6H5+
103.0544	334	C8H7+
104.0622	15	C8H8+
130.0653	588	C9H8N+
131.0731	999	C9H9N+
132.0571	15	C9H8O+
138.9948	34	C7H4ClO+
139.005	12	C9HNO+
139.0311	238	C8H8Cl+
151.0186	51	C8H6ClN+
166.0419	24	C9H9ClN+
167.0257	7	C9H8ClO+
