Mass spectrum: 4`-Hydroxy Diclofenac; LC-ESI-QFT; MS2; CE: 90; R=35000; [M-H]-
Name: 4`-Hydroxy Diclofenac
Name: 4`-hydroxydiclofenac
Name: 2-[2-(2,6-dichloro-4-hydroxyanilino)phenyl]acetic acid
Formula: C14H11Cl2NO3
Exact mass: 311.01160
SMILES: C1=CC=C(C(=C1)CC(=O)O)NC2=C(C=C(C=C2Cl)O)Cl
InChI: InChI=1S/C14H11Cl2NO3/c15-10-6-9(18)7-11(16)14(10)17-12-4-2-1-3-8(12)5-13(19)20/h1-4,6-7,17-18H,5H2,(H,19,20)
Instrument: Q Exactive Plus Orbitrap Thermo Scientific
Instrument type: LC-ESI-QFT
Ms type: MS2
Ion mode: NEGATIVE
Ionization: ESI
Fragmentation mode: HCD
Collision energy: 90 (nominal)
Resolution: 35000
Column name: XBridge C18 3.5um, 2.1x50mm, Waters
Retention time: 10.1 min
Base peak: 310.0043
Precursor m/z: 310.0043
Precursor type: [M-H]-
m/z	relative intensity	assigned
50.0035	16	C3N-
74.0036	22	C5N-
89.0034	33	C6HO-
115.0553	186	C9H7-
124.98	69	C6H2ClO-
140.0507	282	C10H6N-
160.9569	17	C6H3Cl2O-
164.0507	414	C12H6N-
165.058	25	C12H7N-
166.0663	999	C12H8N-
179.0376	39	C12H5NO-
192.0455	68	C13H6NO-
193.0531	100	C13H7NO-
194.0606	118	C13H8NO-
228.0227	17	C13H7ClNO-
