Mass spectrum: Imidaclothiz; LC-ESI-QFT; MS2; CE: 75%; R=17500; [M+H]+
Name: Imidaclothiz
Name: N-[1-[(2-chloro-1,3-thiazol-5-yl)methyl]-4,5-dihydroimidazol-2-yl]nitramide
Formula: C7H8ClN5O2S
Exact mass: 261.0087
SMILES: C1CN(C(=N1)N[N+](=O)[O-])CC2=CN=C(S2)Cl
InChI: InChI=1S/C7H8ClN5O2S/c8-6-10-3-5(16-6)4-12-2-1-9-7(12)11-13(14)15/h3H,1-2,4H2,(H,9,11)
Instrument: Exploris 240 Orbitrap Thermo Scientific
Instrument type: LC-ESI-QFT
Ms type: MS2
Ion mode: POSITIVE
Ionization: ESI
Fragmentation mode: HCD
Collision energy: 75 % (nominal)
Resolution: 17500
Column name: XBridge C18 3.5um, 2.1x50mm, Waters
Retention time: 3.937 min
Base peak: 239.15
Precursor m/z: 262.016
Precursor type: [M+H]+
m/z	relative intensity	assigned
56.0495	55	C3H6N+
70.995	54	C3H3S+
80.0496	15	C5H6N+
81.0574	29	C5H7N+
95.048	82	C4H5N3+
95.0604	50	C5H7N2+
99.0554	18	C4H7N2O+
110.0061	29	C5H4NS+
110.0716	14	C5H8N3+
120.0557	18	C6H6N3+
121.0634	61	C6H7N3+
122.0713	999	C6H8N3+
123.0791	665	C6H9N3+
126.0122	10	C4H4N3S+
127.0202	26	C4H5N3S+
131.967	436	C4H3ClNS+
139.0327	102	C6H7N2S+
140.0281	33	C5H6N3S+
152.0154	76	C5H4N4S+
153.0232	41	C5H5N4S+
154.0432	83	C6H8N3S+
155.051	30	C6H9N3S+
179.0384	39	C7H7N4S+
180.0467	30	C7H8N4S+
181.0542	577	C7H9N4S+
