Mass spectrum: Triisopropanolamine borate; LC-ESI-QFT; MS2; CE: 180%; R=15000; [M+H]+
Name: Triisopropanolamine borate
Name: 3,7,10-trimethyl-2,8,9-trioxa-5-aza-1-borabicyclo[3.3.3]undecane
Formula: C9H18BNO3
Exact mass: 199.1380
SMILES: B12OC(CN(CC(O1)C)CC(O2)C)C
InChI: InChI=1S/C9H18BNO3/c1-7-4-11-5-8(2)13-10(12-7)14-9(3)6-11/h7-9H,4-6H2,1-3H3
Instrument: Orbitrap Exploris 240 Thermo Scientific
Instrument type: LC-ESI-QFT
Ms type: MS2
Ion mode: POSITIVE
Ionization: ESI
Fragmentation mode: HCD
Collision energy: 180 % (nominal)
Resolution: 15000
Column name: Atlantis C18 3um, 3.0x150mm, Waters
Retention time: 8.524 min
Base peak: 200.145
Precursor m/z: 200.1453
Precursor type: [M+H]+
Precursor intensity: 514897152
m/z	relative intensity	assigned
54.0338	573	C3H4N+
56.0494	999	C3H6N+
58.0651	296	C3H8N+
59.0492	678	C3H7O+
68.0493	948	C4H6N+
82.0652	284	C5H8N+
