Mass spectrum: Ranitidine-S-oxide; LC-ESI-ITFT; MS2; CE: 30%; R=15000; [M+H]+
Name: Ranitidine-S-oxide
Name: 1,1-Ethenediamine, N-(2-(((5-((dimethylamino)methyl)-2-furanyl)methyl)sulfinyl)ethyl)-N'-methyl-2-nitro-
Formula: C13H22N4O4S
Exact mass: 330.1362
SMILES: [O-][N+](=O)\C=C(/NC)NCCS(=O)Cc1oc(cc1)CN(C)C
InChI: InChI=1S/C13H22N4O4S/c1-14-13(9-17(18)19)15-6-7-22(20)10-12-5-4-11(21-12)8-16(2)3/h4-5,9,14-15H,6-8,10H2,1-3H3/b13-9+
Instrument: LTQ Orbitrap XL Thermo Scientific
Instrument type: LC-ESI-ITFT
Ms type: MS2
Ion mode: POSITIVE
Ionization: ESI
Fragmentation mode: HCD
Collision energy: 30 % (nominal)
Resolution: 15000
Column name: XBridge C18 3.5um, 2.1x50mm, Waters
Retention time: 0.8 min
Base peak: 331.1445
Precursor m/z: 331.1435
Precursor type: [M+H]+
m/z	relative intensity	assigned
58.0652	13	C3H8N+
67.0543	2	C5H7+
68.0495	13	C4H6N+
79.0541	2	C6H7+
81.0334	2	C5H5O+
81.0699	5	C6H9+
82.0651	12	C5H8N+
84.0684	3	C4H8N2+
93.07	8	C7H9+
94.0414	174	C6H6O+
95.0492	44	C6H7O+
95.0729	5	C6H9N+
96.057	18	C6H8O+
97.0758	2	C5H9N2+
98.084	8	C5H10N2+
108.0807	14	C7H10N+
110.0965	542	C7H12N+
125.0056	7	C6H5OS+
130.0559	37	C5H10N2S+
130.0613	16	C4H8N3O2+
138.0915	999	C8H12NO+
139.0992	31	C8H13NO+
143.0161	29	C6H7O2S+
144.0769	2	C5H10N3O2+
146.0509	11	C5H10N2OS+
156.1024	5	C8H14NO2+
176.0489	38	C13H6N+
188.0744	12	C8H14NO2S+
192.0438	70	C11H4N4+
193.0518	6	C5H11N3O3S+
222.0822	27	C11H14N2OS+
240.0923	9	C11H16N2O2S+
268.0749	4	C11H14N3O3S+
286.0856	8	C11H16N3O4S+
331.1436	41	C13H23N4O4S+
