Mass spectrum: Pyribencarb; LC-ESI-QFT; MS2; CE: 75%; R=17500; [M+H]+
Name: Pyribencarb
Name: methyl {2-chloro-5-[(1E)-1-(6-methyl-2-pyridylmethoxyimino)ethyl]benzyl}carbamate
Name: methyl N-[[2-chloro-5-[C-methyl-N-[(6-methylpyridin-2-yl)methoxy]carbonimidoyl]phenyl]methyl]carbamate
Formula: C18H20ClN3O3
Exact mass: 361.1193
SMILES: CC1=NC(=CC=C1)CON=C(C)C2=CC(=C(C=C2)Cl)CNC(=O)OC
InChI: InChI=1S/C18H20ClN3O3/c1-12-5-4-6-16(21-12)11-25-22-13(2)14-7-8-17(19)15(9-14)10-20-18(23)24-3/h4-9H,10-11H2,1-3H3,(H,20,23)
Instrument: Exploris 240 Orbitrap Thermo Scientific
Instrument type: LC-ESI-QFT
Ms type: MS2
Ion mode: POSITIVE
Ionization: ESI
Fragmentation mode: HCD
Collision energy: 75 % (nominal)
Resolution: 17500
Column name: XBridge C18 3.5um, 2.1x50mm, Waters
Retention time: 5.920 min
Base peak: 362.1261
Precursor m/z: 362.1266
Precursor type: [M+H]+
m/z	relative intensity	assigned
53.0384	14	C4H5+
58.0287	15	C2H4NO+
63.023	6	C5H3+
65.0385	21	C5H5+
77.0386	77	C6H5+
79.0541	14	C6H7+
88.0393	58	C3H6NO2+
89.0386	22	C7H5+
91.0542	121	C7H7+
92.0496	29	C6H6N+
94.0651	39	C6H8N+
95.0491	15	C6H7O+
96.9838	11	C5H2Cl+
102.0465	19	C8H6+
104.0493	16	C7H6N+
105.0446	19	C6H5N2+
106.0647	25	C7H8N+
107.0729	51	C7H9N+
110.0599	21	C6H8NO+
113.0154	45	C6H6Cl+
117.0575	21	C8H7N+
118.065	52	C8H8N+
122.06	170	C7H8NO+
122.9996	999	C7H4Cl+
124.0074	86	C7H5Cl+
124.0757	6	C7H10NO+
125.0153	37	C7H6Cl+
128.0493	36	C9H6N+
129.0448	11	C8H5N2+
129.0567	12	C9H7N+
137.015	31	C8H6Cl+
138.0104	40	C7H5ClN+
139.0053	15	C6H4ClN2+
141.0101	239	C7H6ClO+
146.06	112	C9H8NO+
148.0392	21	C8H6NO2+
148.0763	6	C9H10NO+
150.0101	12	C8H5ClN+
155.0256	22	C8H8ClO+
163.0625	54	C9H9NO2+
164.0261	259	C9H7ClN+
166.0054	69	C8H5ClNO+
166.0416	15	C9H9ClN+
168.0215	16	C8H7ClNO+
169.0164	14	C10H3NO2+
194.0117	24	C8H5ClN3O+
207.032	353	C10H8ClN2O+
