Mass spectrum: Carbophenothion; LC-ESI-QFT; MS2; CE: 150%; R=17500; [M+H]+
Name: Carbophenothion
Name: (4-chlorophenyl)sulfanylmethylsulfanyl-diethoxy-sulfanylidene-lambda5-phosphane
Formula: C11H16ClO2PS3
Exact mass: 341.9739
SMILES: CCOP(=S)(OCC)SCSC1=CC=C(C=C1)Cl
InChI: InChI=1S/C11H16ClO2PS3/c1-3-13-15(16,14-4-2)18-9-17-11-7-5-10(12)6-8-11/h5-8H,3-4,9H2,1-2H3
Instrument: Exploris 240 Orbitrap Thermo Scientific
Instrument type: LC-ESI-QFT
Ms type: MS2
Ion mode: POSITIVE
Ionization: ESI
Fragmentation mode: HCD
Collision energy: 150 % (nominal)
Resolution: 17500
Column name: XBridge C18 3.5um, 2.1x50mm, Waters
Retention time: 14.141 min
Base peak: 360.9651
Precursor m/z: 342.9811
Precursor type: [M+H]+
m/z	relative intensity	assigned
50.0152	145	C4H2+
51.0228	330	C4H3+
63.0228	94	C5H3+
64.9787	245	H2O2P+
74.015	694	C6H2+
75.0229	999	C6H3+
77.0387	203	C6H5+
78.0464	228	C6H6+
78.9402	97	OPS+
84.9843	117	C4H2Cl+
89.0385	216	C7H5+
96.9507	91	H2O2PS+
114.9612	70	CH4ClO2S+
121.0106	629	C7H5S+
