Mass spectrum: Irbesartan; LC-ESI-ITFT; MS2; CE: 45%; R=15000; [M+H]+
Name: Irbesartan
Name: 8-butyl-7-[4-[2-(2H-tetrazol-5-yl)phenyl]benzyl]-7,9-diazaspiro[4.4]non-8-en-6-one
Formula: C25H28N6O
Exact mass: 428.2325
SMILES: C12(C(N(Cc3ccc(c4c(c5[nH]nnn5)cccc4)cc3)C(=N1)CCCC)=O)CCCC2
InChI: InChI=1S/C25H28N6O/c1-2-3-10-22-26-25(15-6-7-16-25)24(32)31(22)17-18-11-13-19(14-12-18)20-8-4-5-9-21(20)23-27-29-30-28-23/h4-5,8-9,11-14H,2-3,6-7,10,15-17H2,1H3,(H,27,28,29,30)
Instrument: LTQ Orbitrap XL Thermo Scientific
Instrument type: LC-ESI-ITFT
Ms type: MS2
Ion mode: POSITIVE
Ionization: ESI
Fragmentation mode: HCD
Collision energy: 45 % (nominal)
Resolution: 15000
Column name: XBridge C18 3.5um, 2.1x50mm, Waters
Retention time: 9.2 min
Base peak: 429.2411
Precursor m/z: 429.2397
Precursor type: [M+H]+
m/z	relative intensity	assigned
79.0542	2	C6H7+
84.0808	24	C5H10N+
112.0756	1	C6H10NO+
153.0696	1	C12H9+
167.1542	21	C10H19N2+
178.0652	5	C13H8N+
180.0807	45	C13H10N+
190.0653	4	C14H8N+
192.0681	6	C13H8N2+
192.0807	47	C14H10N+
195.1492	141	C11H19N2O+
196.0757	4	C13H10NO+
205.076	5	C14H9N2+
206.0839	40	C14H10N2+
207.0918	999	C14H11N2+
235.0973	2	C14H11N4+
386.223	14	C25H28N3O+
