Mass spectrum: Difloxacin; LC-ESI-QFT; MS2; CE: 90; R=35000; [M+H]+
Name: Difloxacin
Name: 6-fluoro-1-(4-fluorophenyl)-7-(4-methylpiperazin-1-yl)-4-oxoquinoline-3-carboxylic acid
Name: 6-fluoro-1-(4-fluorophenyl)-7-(4-methylpiperazin-4-ium-1-yl)-4-oxoquinoline-3-carboxylate
Formula: C21H19F2N3O3
Exact mass: 399.1394479
SMILES: CN1CCN(CC1)C2=C(C=C3C(=C2)N(C=C(C3=O)C(=O)O)C4=CC=C(C=C4)F)F
InChI: InChI=1S/C21H19F2N3O3/c1-24-6-8-25(9-7-24)19-11-18-15(10-17(19)23)20(27)16(21(28)29)12-26(18)14-4-2-13(22)3-5-14/h2-5,10-12H,6-9H2,1H3,(H,28,29)
Instrument: Q Exactive Plus Orbitrap Thermo Scientific
Instrument type: LC-ESI-QFT
Ms type: MS2
Ion mode: POSITIVE
Ionization: ESI
Fragmentation mode: HCD
Collision energy: 90 (nominal)
Resolution: 35000
Column name: XBridge C18 3.5um, 2.1x50mm, Waters
Retention time: 4.5 min
Base peak: 400.1461
Precursor m/z: 400.1467
Precursor type: [M+H]+
m/z	relative intensity	assigned
50.0151	5	C4H2+
51.0229	7	C4H3+
53.0023	21	C3HO+
53.0386	17	C4H5+
54.0339	17	C3H4N+
55.0417	5	C3H5N+
55.0543	4	C4H7+
56.0495	316	C3H6N+
57.0574	52	C3H7N+
58.0652	916	C3H8N+
63.0229	28	C5H3+
65.0386	18	C5H5+
67.0417	46	C4H5N+
68.0131	4	C3H2NO+
68.0495	25	C4H6N+
70.0652	675	C4H8N+
71.0292	9	C4H4F+
71.073	47	C4H9N+
72.0808	113	C4H10N+
74.0152	3	C6H2+
75.0229	56	C6H3+
77.0386	23	C6H5+
78.0465	4	C6H6+
79.0543	4	C6H7+
80.0495	27	C5H6N+
81.0575	5	C5H7N+
82.0652	339	C5H8N+
83.0292	109	C5H4F+
83.0604	82	C4H7N2+
83.073	27	C5H9N+
84.0371	8	C5H5F+
84.0809	7	C5H10N+
85.0761	30	C4H9N2+
87.023	6	C7H3+
89.0386	248	C7H5+
90.0339	13	C6H4N+
90.0466	6	C7H6+
91.0543	38	C7H7+
92.0495	8	C6H6N+
95.0293	19	C6H4F+
95.0492	28	C6H7O+
95.0605	28	C5H7N2+
96.0371	9	C6H5F+
96.0444	7	C5H6NO+
96.0683	5	C5H8N2+
97.045	5	C6H6F+
97.0761	88	C5H9N2+
98.04	6	C5H5FN+
98.084	20	C5H10N2+
99.0917	20	C5H11N2+
101.0387	29	C8H5+
102.0464	32	C8H6+
103.0543	108	C8H7+
104.0496	45	C7H6N+
105.0449	21	C6H5N2+
107.0292	303	C7H4F+
108.0245	21	C6H3FN+
108.0371	87	C7H5F+
109.0449	324	C7H6F+
110.0402	77	C6H5FN+
113.0399	46	CH5F2N3O+
114.0341	8	C8H4N+
115.0419	9	C8H5N+
115.0544	147	C9H7+
116.0496	167	C8H6N+
117.0574	78	C8H7N+
117.07	6	C9H9+
118.0289	4	C7H4NO+
118.0652	14	C8H8N+
119.0492	34	C8H7O+
120.0372	54	C8H5F+
121.045	102	C8H6F+
122.0402	116	C7H5FN+
123.0242	43	C7H4FO+
123.0354	76	C6H4FN2+
123.0607	8	C8H8F+
124.056	25	C7H7FN+
127.0418	5	C9H5N+
127.0545	6	C10H7+
128.0496	431	C9H6N+
129.0448	134	C8H5N2+
129.0574	57	C9H7N+
130.0653	128	C9H8N+
131.0605	40	C8H7N2+
132.0246	19	C8H3FN+
132.0444	4	C8H6NO+
133.0326	7	C8H4FN+
133.045	102	C9H6F+
134.0402	338	C8H5FN+
134.0601	81	C8H8NO+
135.048	201	C8H6FN+
136.0559	97	C8H7FN+
137.0514	6	C7H6FN2+
138.0352	16	C7H5FNO+
140.0271	6	C7H5FO2+
140.0497	44	C10H6N+
141.0451	4	C9H5N2+
141.0574	33	C10H7N+
142.0528	22	C9H6N2+
142.0653	56	C10H8N+
143.0606	7	C9H7N2+
143.0732	50	C10H9N+
144.0446	14	C9H6NO+
144.0558	49	C8H6N3+
144.0809	69	C10H10N+
146.0402	110	C9H5FN+
146.0602	29	C9H8NO+
147.0243	51	C9H4FO+
147.0357	8	C8H4FN2+
147.0482	40	C9H6FN+
148.0558	573	C9H7FN+
149.0394	4	C4H5F2N3O+
149.0514	18	C8H6FN2+
149.0638	20	C9H8FN+
150.0353	15	C8H5FNO+
150.0588	8	C8H7FN2+
150.0716	22	C9H9FN+
151.043	4	C8H6FNO+
151.0544	4	C12H7+
152.0508	79	C8H7FNO+
153.0451	9	C10H5N2+
154.0403	18	C9H4N3+
154.0654	48	C11H8N+
155.0605	299	C10H7N2+
156.0447	31	C10H6NO+
156.0682	66	C10H8N2+
156.0809	56	C11H10N+
157.0447	29	C11H6F+
157.0761	40	C10H9N2+
157.089	16	C11H11N+
158.0403	126	C10H5FN+
159.0354	7	C9H4FN2+
159.0483	7	C10H6FN+
159.0922	7	C10H11N2+
160.0434	51	C9H5FN2+
160.0559	24	C10H7FN+
161.0514	45	C9H6FN2+
161.0635	35	C10H8FN+
162.0354	40	C9H5FNO+
162.0464	24	C13H6+
162.0714	46	C10H9FN+
163.043	4	C9H6FNO+
163.0545	21	C13H7+
164.0507	76	C9H7FNO+
165.045	6	C11H5N2+
165.0827	6	C9H10FN2+
166.053	14	C11H6N2+
166.0662	5	C9H9FNO+
167.0606	23	C11H7N2+
167.0727	7	C12H9N+
167.0979	4	C9H12FN2+
168.0685	14	C11H8N2+
168.0806	6	C12H10N+
169.0452	4	C12H6F+
169.0762	71	C11H9N2+
170.0528	17	C12H7F+
170.084	65	C11H10N2+
171.0611	4	C9H9F2O+
171.0922	4	C11H11N2+
172.0558	24	C11H7FN+
172.0992	3	C11H12N2+
173.0512	74	C10H6FN2+
174.0353	6	C10H5FNO+
174.0591	55	C10H7FN2+
175.0667	102	C10H8FN2+
176.0506	32	C10H7FNO+
176.0624	14	C14H8+
176.0748	14	C10H9FN2+
176.0873	14	C11H11FN+
177.046	5	C9H6FN2O+
177.0578	5	C13H7N+
177.0702	21	C14H9+
177.0822	8	C10H10FN2+
178.0659	16	C10H9FNO+
179.0609	4	C12H7N2+
180.0457	98	C9H7FNO2+
180.0684	15	C12H8N2+
181.0451	84	C13H6F+
181.0763	18	C12H9N2+
182.0402	7	C12H5FN+
182.053	38	C13H7F+
182.0715	5	C11H8N3+
183.0608	214	C13H8F+
183.092	24	C12H11N2+
184.0559	65	C12H7FN+
184.0635	21	C11H8N2O+
185.0511	36	C11H6FN2+
185.0636	39	C12H8FN+
185.1076	117	C12H13N2+
186.048	14	C12H7FO+
186.059	72	C11H7FN2+
186.0718	15	C12H9FN+
187.0557	13	C12H8FO+
187.067	8	C11H8FN2+
188.0429	15	C12H6F2+
188.0502	28	C11H7FNO+
189.0461	18	C10H6FN2O+
189.0578	5	C14H7N+
189.0824	13	C11H10FN2+
190.0653	75	C14H8N+
191.073	8	C14H9N+
191.0979	4	C11H12FN2+
194.0526	19	C14H7F+
194.0611	17	C10H9FNO2+
194.0841	5	C10H11FN2O+
195.048	40	C13H6FN+
195.0614	31	
195.0917	32	C13H11N2+
196.0558	66	C13H7FN+
196.0685	37	C14H9F+
196.0995	29	C13H12N2+
197.0514	17	C12H6FN2+
197.0636	32	C13H8FN+
197.0764	8	C14H10F+
198.0717	55	C13H9FN+
199.0361	5	C13H5F2+
200.0431	98	C13H6F2+
201.0512	520	C13H7F2+
202.0465	82	C12H6F2N+
202.0666	25	C12H9FNO+
203.0543	18	C12H7F2N+
203.0619	171	C11H8FN2O+
203.0722	11	C15H9N+
204.0386	50	C12H6F2O+
204.0811	45	C15H10N+
205.0767	16	C11H10FN2O+
205.1139	4	C12H14FN2+
206.0405	6	C14H5FN+
207.0483	35	C14H6FN+
207.061	37	C15H8F+
208.056	633	C14H7FN+
209.0638	713	C14H8FN+
210.0603	6	C10H8F2N2O+
210.0717	101	C14H9FN+
211.0793	56	C14H10FN+
212.051	19	C13H7FNO+
214.0466	25	C13H6F2N+
214.0591	39	C14H8F2+
214.0675	10	C10H10F2NO2+
215.0535	52	C13H7F2N+
215.0666	5	C14H9F2+
216.0619	94	C13H8F2N+
216.0802	6	C16H10N+
217.0779	4	C12H10FN2O+
219.0483	16	C15H6FN+
219.0575	8	C8H9F2N2O3+
220.0561	53	C15H7FN+
221.0523	12	C11H7F2N2O+
221.0637	109	C15H8FN+
221.0735	8	C8H11F2N2O3+
222.0716	540	C15H9FN+
223.0668	218	C14H8FN2+
223.0794	81	C15H10FN+
224.0749	36	C14H9FN2+
224.0873	87	C15H11FN+
225.0384	4	C14H5F2N+
225.0589	20	C14H8FNO+
225.0827	14	C14H10FN2+
226.0466	279	C14H6F2N+
226.0645	25	
227.0544	999	C14H7F2N+
228.0622	377	C14H8F2N+
229.0697	431	C14H9F2N+
230.0413	19	C13H6F2NO+
230.0651	16	C13H8F2N2+
231.0493	4	C13H7F2NO+
231.0919	5	C16H11N2+
232.0562	32	C16H7FN+
233.0504	5	C15H6FN2+
233.0638	25	C16H8FN+
234.059	50	C15H7FN2+
234.0716	112	C16H9FN+
235.0669	114	C15H8FN2+
235.0795	126	C16H10FN+
236.0515	63	C15H7FNO+
236.0623	24	C19H8+
236.0747	123	C15H9FN2+
236.0873	66	C16H11FN+
237.0587	58	C15H8FNO+
237.0826	108	C15H10FN2+
237.0946	9	C16H12FN+
238.0464	17	C15H6F2N+
238.0668	92	C15H9FNO+
238.09	8	C15H11FN2+
239.0541	131	C15H7F2N+
240.0622	510	C15H8F2N+
241.0574	27	C14H7F2N2+
241.0696	215	C15H9F2N+
242.0654	32	C14H8F2N2+
242.0772	211	C15H10F2N+
243.0499	6	C14H7F2NO+
243.0727	29	C14H9F2N2+
243.0922	20	C17H11N2+
244.0572	22	C14H8F2NO+
244.0804	46	C14H10F2N2+
244.0993	11	C17H12N2+
245.0643	43	C14H9F2NO+
246.0711	13	C17H9FN+
247.0668	75	C16H8FN2+
247.0787	7	C17H10FN+
248.0622	27	C20H8+
248.0747	135	C16H9FN2+
248.0873	13	C17H11FN+
249.0699	27	C20H9+
249.0824	279	C16H10FN2+
250.0671	33	C16H9FNO+
250.078	21	C20H10+
250.0901	148	C16H11FN2+
251.0741	18	C16H10FNO+
251.0855	27	C20H11+
251.0981	29	C16H12FN2+
252.0602	28	
252.0822	23	C16H11FNO+
253.0568	24	C15H7F2N2+
253.0701	57	C16H9F2N+
254.0422	31	C15H6F2NO+
254.0651	87	C15H8F2N2+
254.0779	67	C16H10F2N+
255.0495	190	C15H7F2NO+
255.073	235	C15H9F2N2+
255.0856	18	C16H11F2N+
256.0572	603	C15H8F2NO+
256.0806	52	C15H10F2N2+
257.0649	92	C15H9F2NO+
257.0889	19	C15H11F2N2+
258.0723	37	C15H10F2NO+
259.0438	15	C14H7F2NO2+
259.0664	19	C17H8FN2+
260.0748	101	C17H9FN2+
261.0824	152	C17H10FN2+
262.0777	204	C21H10+
262.0904	60	C17H11FN2+
263.0629	28	C13H9F2N2O2+
263.0854	69	C16H10FN3+
263.0983	149	C17H12FN2+
264.0464	6	C13H8F2NO3+
264.0934	57	C21H12+
264.1062	16	C17H13FN2+
265.0572	5	C16H7F2N2+
265.0772	18	C16H10FN2O+
265.1008	29	C16H12FN3+
265.1139	9	C17H14FN2+
267.0729	60	C16H9F2N2+
268.0574	45	C16H8F2NO+
268.081	54	C16H10F2N2+
269.0656	31	C16H9F2NO+
269.0885	84	C16H11F2N2+
270.06	11	C15H8F2N2O+
270.0727	130	C16H10F2NO+
271.067	39	
271.0807	73	C16H11F2NO+
272.0756	8	C15H10F2N2O+
272.0885	7	C16H12F2NO+
273.0825	36	
274.0774	8	C17H9FN3+
274.0906	16	C18H11FN2+
275.085	32	C17H10FN3+
275.0983	15	C18H12FN2+
276.0695	16	C17H9FN2O+
276.0935	77	C17H11FN3+
276.1069	6	C15H14F2N2O+
277.0777	47	C17H10FN2O+
277.101	31	C17H12FN3+
277.1145	16	C15H15F2N2O+
278.0853	14	C17H11FN2O+
278.1091	16	C17H13FN3+
279.0731	21	C17H9F2N2+
279.0929	62	C17H12FN2O+
280.081	8	C17H10F2N2+
281.0894	47	C17H11F2N2+
282.0356	15	C16H6F2NO2+
282.0563	15	C16H9FNO3+
282.0719	14	C17H10F2NO+
282.0965	7	C17H12F2N2+
283.0682	121	C16H9F2N2O+
283.105	7	C17H13F2N2+
284.0757	26	C16H10F2N2O+
285.0836	40	C16H11F2N2O+
287.0398	8	C15H7F2NO3+
288.0936	21	C18H11FN3+
289.0532	28	
289.0774	12	C18H10FN2O+
289.1013	46	C18H12FN3+
290.0728	98	C17H9FN3O+
290.109	88	C18H13FN3+
291.0802	27	C17H10FN3O+
291.0945	8	C15H13F2N2O2+
291.1158	6	C18H14FN3+
292.088	22	C17H11FN3O+
297.0839	95	C17H11F2N2O+
299.099	36	C17H13F2N2O+
304.0886	13	C18H11FN3O+
304.1245	21	C19H15FN3+
305.0717	17	C18H10FN2O2+
305.1313	4	C19H16FN3+
306.1033	4	C18H13FN3O+
310.0784	5	C17H10F2N3O+
311.063	33	C17H9F2N2O2+
311.0842	4	C20H10FN3+
318.0678	28	C18H9FN3O2+
318.1036	8	C19H13FN3O+
329.0734	9	C17H11F2N2O3+
336.0778	23	C18H11FN3O3+
