Mass spectrum: N,N-Didesmethylvenlafaxine; LC-ESI-ITFT; MS2; CE: 60%; R=15000; [M+H]+
Name: N,N-Didesmethylvenlafaxine
Name: 1-[2-Amino-1-(4-methoxyphenyl)ethyl]cyclohexanol
Formula: C15H23NO2
Exact mass: 249.1729
SMILES: OC2(C(c1ccc(OC)cc1)CN)CCCCC2
InChI: InChI=1S/C15H23NO2/c1-18-13-7-5-12(6-8-13)14(11-16)15(17)9-3-2-4-10-15/h5-8,14,17H,2-4,9-11,16H2,1H3
Instrument: LTQ Orbitrap XL Thermo Scientific
Instrument type: LC-ESI-ITFT
Ms type: MS2
Ion mode: POSITIVE
Ionization: ESI
Fragmentation mode: HCD
Collision energy: 60 % (nominal)
Resolution: 15000
Column name: XBridge C18 3.5um, 2.1x50mm, Waters
Retention time: 6.3 min
Base peak: 250.1814
Precursor m/z: 250.1802
Precursor type: [M+H]+
m/z	relative intensity	assigned
67.0543	11	C5H7+
69.0699	13	C5H9+
77.0387	9	C6H5+
79.0543	53	C6H7+
81.07	80	C6H9+
91.0543	97	C7H7+
93.0699	35	C7H9+
105.0698	8	C8H9+
106.0414	5	C7H6O+
107.0492	5	C7H7O+
107.0856	41	C8H11+
115.0538	5	C9H7+
117.0699	9	C9H9+
119.0856	15	C9H11+
121.0649	999	C8H9O+
124.1121	10	C8H14N+
129.0697	6	C10H9+
132.0571	35	C9H8O+
133.0649	8	C9H9O+
135.0804	56	C9H11O+
141.0695	11	C11H9+
144.0573	5	C10H8O+
145.065	9	C10H9O+
147.0806	595	C10H11O+
150.0915	8	C9H12NO+
158.0726	24	C11H10O+
159.0805	145	C11H11O+
160.0885	5	C11H12O+
161.0962	15	C11H13O+
173.0962	213	C12H13O+
174.1039	5	C12H14O+
183.1168	11	C14H15+
187.1115	10	C13H15O+
215.1433	86	C15H19O+
