Mass spectrum: Fenthion Oxon Sulfone; LC-ESI-QFT; MS2; CE: 180%; R=17500; [M+H]+
Name: Fenthion Oxon Sulfone
Name: dimethyl (3-methyl-4-methylsulfonylphenyl) phosphate
Formula: C10H15O6PS
Exact mass: 294.0327
SMILES: CC1=C(C=CC(=C1)OP(=O)(OC)OC)S(=O)(=O)C
InChI: InChI=1S/C10H15O6PS/c1-8-7-9(16-17(11,14-2)15-3)5-6-10(8)18(4,12)13/h5-7H,1-4H3
Instrument: Exploris 240 Orbitrap Thermo Scientific
Instrument type: LC-ESI-QFT
Ms type: MS2
Ion mode: POSITIVE
Ionization: ESI
Fragmentation mode: HCD
Collision energy: 180 % (nominal)
Resolution: 17500
Column name: XBridge C18 3.5um, 2.1x50mm, Waters
Retention time: 4.335 min
Base peak: 295.0397
Precursor m/z: 295.04
Precursor type: [M+H]+
m/z	relative intensity	assigned
50.015	297	C4H2+
51.0229	738	C4H3+
52.0307	206	C4H4+
53.0385	260	C4H5+
55.018	60	C3H3O+
63.0229	999	C5H3+
64.0308	152	C5H4+
64.9788	36	H2O2P+
65.0386	588	C5H5+
66.0467	35	C5H6+
68.9794	47	C3HS+
77.0385	701	C6H5+
78.0463	396	C6H6+
78.9946	48	CH4O2P+
79.0541	83	C6H7+
89.0385	878	C7H5+
91.0543	186	C7H7+
95.0491	236	C6H7O+
103.0543	88	C8H7+
107.0491	86	C7H7O+
