Mass spectrum: Flumioxazin; LC-ESI-QFT; MS2; CE: 15; R=35000; [M+H]+
Name: Flumioxazin
Name: 2-(7-fluoranyl-3-oxidanylidene-4-prop-2-ynyl-1,4-benzoxazin-6-yl)-4,5,6,7-tetrahydroisoindole-1,3-dione
Formula: C19H15FN2O4
Exact mass: 354.10159
SMILES: O=C3\C4=C(/C(=O)N3c2c(F)cc1OCC(=O)N(c1c2)CC#C)CCCC4
InChI: InChI=1S/C19H15FN2O4/c1-2-7-21-15-9-14(13(20)8-16(15)26-10-17(21)23)22-18(24)11-5-3-4-6-12(11)19(22)25/h1,8-9H,3-7,10H2
Instrument: Q Exactive Orbitrap Thermo Scientific
Instrument type: LC-ESI-QFT
Ms type: MS2
Ion mode: POSITIVE
Ionization: ESI
Fragmentation mode: HCD
Collision energy: 15 (nominal)
Resolution: 35000
Column name: XBridge C18 3.5um, 2.1x50mm, Waters
Retention time: 9.7 min
Base peak: 355.1088
Precursor m/z: 355.1089
Precursor type: [M+H]+
m/z	relative intensity	assigned
176.0507	3	C10H7FNO+
190.0538	1	C10H7FN2O+
204.0456	9	C11H7FNO2+
281.108	1	C17H14FN2O+
297.1026	2	C17H14FN2O2+
299.0825	2	C16H12FN2O3+
299.119	1	C17H16FN2O2+
307.1074	9	C18H15N2O3+
309.1033	1	C18H14FN2O2+
313.0978	1	C17H14FN2O3+
316.0852	1	C16H13FN2O4+
327.1139	117	C18H16FN2O3+
329.0931	3	C17H14FN2O4+
355.1087	999	C19H16FN2O4+
