Mass spectrum: Chloridazon; LC-ESI-ITFT; MS2; CE: 60%; R=15000; [M+H]+
Name: Chloridazon
Name: 5-amino-4-chloro-2-phenyl-3-pyridazinone
Formula: C10H8ClN3O
Exact mass: 221.0350
SMILES: ClC(=C(N)C=N1)C(=O)N1-c(ccc2)cc2
InChI: InChI=1S/C10H8ClN3O/c11-9-8(12)6-13-14(10(9)15)7-4-2-1-3-5-7/h1-6H,12H2
Instrument: LTQ Orbitrap XL Thermo Scientific
Instrument type: LC-ESI-ITFT
Ms type: MS2
Ion mode: POSITIVE
Ionization: ESI
Fragmentation mode: HCD
Collision energy: 60 % (nominal)
Resolution: 15000
Column name: XBridge C18 3.5um, 2.1x50mm, Waters
Retention time: 5.2 min
Base peak: 222.0432
Precursor m/z: 222.0429
Precursor type: [M+H]+
m/z	relative intensity	assigned
53.0385	3	C4H5+
55.0291	9	C2H3N2+
63.9948	6	CH3ClN+
65.0386	26	C5H5+
75.9949	3	C2H3ClN+
77.0386	72	C6H5+
83.0237	4	C3H3N2O+
87.9949	12	C3H3ClN+
92.0495	216	C6H6N+
93.0572	5	C6H7N+
94.0652	74	C6H8N+
95.0492	8	C6H7O+
100.9901	16	C3H2ClN2+
101.974	5	C3HClNO+
104.0495	322	C7H6N+
105.0447	20	C6H5N2+
117.0573	2	C8H7N+
119.0007	3	C3H4ClN2O+
119.0604	9	C7H7N2+
128.985	80	C4H2ClN2O+
130.0651	7	C9H8N+
131.0605	5	C8H7N2+
132.0444	5	C8H6NO+
146.0116	56	C4H5ClN3O+
149.0151	7	C9H6Cl+
150.0108	5	C8H5ClN+
158.0603	3	C10H8NO+
159.0555	14	C9H7N2O+
159.0787	3	C9H9N3+
177.0215	6	C9H6ClN2+
186.0661	29	C10H8N3O+
193.0289	47	C10H8ClNO+
195.0321	5	C9H8ClN2O+
205.0165	10	C10H6ClN2O+
222.043	999	C10H9ClN3O+
