Mass spectrum: Fensulfothion; LC-ESI-QFT; MS2; CE: 60%; R=17500; [M+H]+
Name: Fensulfothion
Name: diethoxy-(4-methylsulfinylphenoxy)-sulfanylidene-lambda5-phosphane
Formula: C11H17O4PS2
Exact mass: 308.0306
SMILES: CCOP(=S)(OCC)OC1=CC=C(C=C1)S(=O)C
InChI: InChI=1S/C11H17O4PS2/c1-4-13-16(17,14-5-2)15-10-6-8-11(9-7-10)18(3)12/h6-9H,4-5H2,1-3H3
Instrument: Exploris 240 Orbitrap Thermo Scientific
Instrument type: LC-ESI-QFT
Ms type: MS2
Ion mode: POSITIVE
Ionization: ESI
Fragmentation mode: HCD
Collision energy: 60 % (nominal)
Resolution: 17500
Column name: XBridge C18 3.5um, 2.1x50mm, Waters
Retention time: 7.188 min
Base peak: 309.0377
Precursor m/z: 309.0379
Precursor type: [M+H]+
m/z	relative intensity	assigned
62.9898	17	CH3OS+
78.9674	9	CH3S2+
80.9736	9	H2O3P+
94.0414	149	C6H6O+
109.0045	59	C2H6O3P+
110.0184	84	C6H6S+
125.0057	56	C6H5OS+
139.9751	20	C6H4S2+
140.029	371	C7H8OS+
142.0084	157	C6H6O2S+
154.9986	36	C7H7S2+
156.0062	323	C7H8S2+
157.0317	999	C7H9O2S+
157.9854	128	C6H6OS2+
170.9934	30	C7H7OS2+
172.0007	32	C7H8OS2+
173.0089	692	C7H9OS2+
201.9852	20	C7H7O3PS+
217.9621	88	C7H7O2PS2+
218.9876	245	C7H8O4PS+
219.941	58	C6H5O3PS2+
219.9958	20	C7H9O4PS+
234.9649	624	C7H8O3PS2+
235.973	38	C7H9O3PS2+
237.952	80	C6H7O4PS2+
252.9756	88	C7H10O4PS2+
