Mass spectrum: Minocycline; LC-ESI-QFT; MS2; CE: 15; R=35000; [M-H]-
Name: Minocycline
Name: Minocin
Name: (4S,4aS,5aR,12aS)-4,7-Bis(dimethylamino)-3,10,12,12a-tetrahydroxy-1,11-dioxo-1,4,4a,5,5a,6,11,12a-octahydro-2-tetracenecarboxamide
Formula: C23H27N3O7
Exact mass: 457.18490
SMILES: [H][C@@]12CC3=C(C(O)=CC=C3N(C)C)C(=O)C1=C(O)[C@]1(O)C(=O)C(C(N)=O)=C(O)[C@@H](N(C)C)[C@]1([H])C2
InChI: InChI=1S/C23H27N3O7/c1-25(2)12-5-6-13(27)15-10(12)7-9-8-11-17(26(3)4)19(29)16(22(24)32)21(31)23(11,33)20(30)14(9)18(15)28/h5-6,9,11,17,27,29-30,33H,7-8H2,1-4H3,(H2,24,32)/t9-,11-,17-,23-/m0/s1
Instrument: Q Exactive Plus Orbitrap Thermo Scientific
Instrument type: LC-ESI-QFT
Ms type: MS2
Ion mode: NEGATIVE
Ionization: ESI
Fragmentation mode: HCD
Collision energy: 15 (nominal)
Resolution: 35000
Column name: XBridge C18 3.5um, 2.1x50mm, Waters
Retention time: 3.6 min
Base peak: 456.1772
Precursor m/z: 456.1776
Precursor type: [M-H]-
m/z	relative intensity	assigned
142.0144	13	C5H4NO4-
169.0617	15	C7H9N2O3-
180.0302	21	C8H6NO4-
209.0932	1	C10H13N2O3-
230.0821	6	C13H12NO3-
286.1082	70	C16H16NO4-
308.0924	1	C18H14NO4-
327.1715	1	C19H23N2O3-
339.1343	2	C19H19N2O4-
350.1031	6	C20H16NO5-
351.1704	1	C21H23N2O3-
365.1132	1	C20H17N2O5-
367.1661	2	C21H23N2O4-
368.1133	5	C20H18NO6-
368.1614	1	C20H22N3O4-
369.1817	4	C21H25N2O4-
371.1611	176	C20H23N2O5-
383.1242	2	C20H19N2O6-
384.1921	3	C21H26N3O4-
393.1089	6	C21H17N2O6-
394.0928	34	C21H16NO7-
394.1768	2	C22H24N3O4-
395.1608	9	C22H23N2O5-
411.1196	30	C21H19N2O7-
412.1876	4	C22H26N3O5-
413.1718	368	C22H25N2O6-
421.1413	1	C23H21N2O6-
428.1827	1	C22H26N3O6-
438.167	17	C23H24N3O6-
439.151	179	C23H23N2O7-
456.1777	999	C23H26N3O7-
457.1614	45	C23H25N2O8-
