Mass spectrum: Amidosulfuron; LC-ESI-QFT; MS2; CE: 45; R=35000; [M-H]-
Name: Amidosulfuron
Name: 1-(4,6-dimethoxy-2-pyrimidinyl)-3-[methyl(methylsulfonyl)sulfamoyl]urea
Formula: C9H15N5O7S2
Exact mass: 369.04129
SMILES: O=C(Nc1nc(OC)cc(OC)n1)NS(=O)(=O)N(C)S(=O)(=O)C
InChI: InChI=1S/C9H15N5O7S2/c1-14(22(4,16)17)23(18,19)13-9(15)12-8-10-6(20-2)5-7(11-8)21-3/h5H,1-4H3,(H2,10,11,12,13,15)
Instrument: Q Exactive Orbitrap Thermo Scientific
Instrument type: LC-ESI-QFT
Ms type: MS2
Ion mode: NEGATIVE
Ionization: ESI
Fragmentation mode: HCD
Collision energy: 45 (nominal)
Resolution: 35000
Column name: XBridge C18 3.5um, 2.1x50mm, Waters
Retention time: 8.3 min
Base peak: 368.034
Precursor m/z: 368.034
Precursor type: [M-H]-
m/z	relative intensity	assigned
61.9704	1	NOS-
63.9623	10	O2S-
65.0144	19	C3HN2-
65.9985	12	C3NO-
77.9655	999	NO2S-
78.9733	18	HNO2S-
79.9811	11	H2NO2S-
90.0098	2	C4N3-
97.0407	2	C4H5N2O-
107.0126	10	C4HN3O-
108.0126	1	C2H6NO2S-
109.0077	338	CH5N2O2S-
122.036	26	C5H4N3O-
124.0516	5	C5H6N3O-
134.987	32	C2H3N2O3S-
139.0385	20	C5H5N3O2-
154.0622	221	C6H8N3O2-
164.0336	1	C6H12OS2-
179.0574	16	C7H7N4O2-
