Mass spectrum: Perfluorooctyl phosphate; LC-ESI-ITFT; MS2; CE: 30%; R=7500; [M+H]+
Name: Perfluorooctyl phosphate
Name: 6:2PAP
Name: 1H,1H,2H,2H-perfluorooctyllphosphate
Formula: C8H6F13O4P
Exact mass: 443.9796
SMILES: O=P(O)(OCCC(F)(F)C(F)(F)C(F)(F)C(F)(F)C(F)(F)C(F)(F)F)O
InChI: InChI=1S/C8H6F13O4P/c9-3(10,1-2-25-26(22,23)24)4(11,12)5(13,14)6(15,16)7(17,18)8(19,20)21/h1-2H2,(H2,22,23,24)
Instrument: LTQ Orbitrap XL Thermo Scientific
Instrument type: LC-ESI-ITFT
Ms type: MS2
Ion mode: POSITIVE
Ionization: ESI
Fragmentation mode: HCD
Collision energy: 30 % (nominal)
Resolution: 7500
Column name: XBridge C18 3.5um, 2.1x50mm, Waters
Retention time: 12.1 min
Base peak: 116.9852
Precursor m/z: 444.9869
Precursor type: [M+H]+
m/z	relative intensity	assigned
98.9838	999	H4O4P+
444.9854	58	C8H7F13O4P+
