Mass spectrum: Ampicillin; LC-ESI-QFT; MS2; CE: 30; R=35000; [M+H]+
Name: Ampicillin
Name: 2-amino-1-methyl-5-propylideneimidazol-4-one
Name: 6-[(2-azaniumyl-2-phenylacetyl)amino]-3,3-dimethyl-7-oxo-4-thia-1-azabicyclo[3.2.0]heptane-2-carboxylate
Formula: C16H19N3O4S
Exact mass: 349.10963
SMILES: CC1(C(N2C(S1)C(C2=O)NC(=O)C(C3=CC=CC=C3)N)C(=O)O)C
InChI: InChI=1S/C16H19N3O4S/c1-16(2)11(15(22)23)19-13(21)10(14(19)24-16)18-12(20)9(17)8-6-4-3-5-7-8/h3-7,9-11,14H,17H2,1-2H3,(H,18,20)(H,22,23)
Instrument: Q Exactive Plus Orbitrap Thermo Scientific
Instrument type: LC-ESI-QFT
Ms type: MS2
Ion mode: POSITIVE
Ionization: ESI
Fragmentation mode: HCD
Collision energy: 30 (nominal)
Resolution: 35000
Column name: XBridge C18 3.5um, 2.1x50mm, Waters
Retention time: 4.7 min
Base peak: 350.1165
Precursor m/z: 350.1169
Precursor type: [M+H]+
m/z	relative intensity	assigned
70.0652	66	C4H8N+
71.0491	1	C4H7O+
72.0808	1	C4H10N+
74.0058	3	C2H4NS+
79.0542	10	C6H7+
84.0808	1	C5H10N+
91.0543	9	C7H7+
96.0444	11	C5H6NO+
98.0601	1	C5H8NO+
99.0441	2	C5H7O2+
106.0652	999	C7H8N+
110.0601	1	C6H8NO+
114.0009	85	C4H4NOS+
114.0373	23	C5H8NS+
114.055	7	C5H8NO2+
116.0707	4	C5H10NO2+
118.0652	17	C8H8N+
119.0492	4	C8H7O+
121.0107	6	C7H5S+
122.0602	1	C7H8NO+
128.0529	1	C6H10NS+
128.0709	2	C6H10NO2+
130.0652	1	C9H8N+
131.0491	1	C9H7O+
132.081	3	C9H10N+
137.071	3	C7H9N2O+
139.0865	1	C7H11N2O+
141.0484	1	C6H9N2S+
142.0324	2	C6H8NOS+
142.05	2	C6H8NO3+
146.0601	18	C9H8NO+
147.0263	5	C9H7S+
160.0428	236	C6H10NO2S+
162.0371	4	C9H8NS+
164.0529	77	C9H10NS+
165.066	25	C8H9N2O2+
167.0813	1	C8H11N2O2+
169.0434	1	C7H9N2OS+
174.0551	237	C10H8NO2+
178.032	1	C9H8NOS+
183.0766	2	C8H11N2O3+
185.0712	1	C11H9N2O+
187.0536	8	C7H11N2O2S+
188.0614	5	C7H12N2O2S+
189.0692	1	C7H13N2O2S+
190.0323	5	C10H8NOS+
192.0479	289	C10H10NOS+
193.0609	16	C9H9N2O3+
197.0382	2	C8H9N2O2S+
200.1072	4	C13H14NO+
205.043	1	C10H9N2OS+
206.0512	3	C10H10N2OS+
211.0715	40	C9H11N2O4+
215.0487	12	C8H11N2O3S+
216.0841	1	C13H14NS+
218.0272	25	C11H8NO2S+
227.1183	1	C14H15N2O+
231.0765	1	C12H11N2O3+
231.0951	1	C13H15N2S+
236.0376	3	C11H10NO3S+
244.0793	1	C14H14NOS+
259.0902	17	C14H15N2OS+
261.1059	3	C14H17N2OS+
277.1006	1	C14H17N2O2S+
287.0853	5	C15H15N2O2S+
288.0687	1	C15H14NO3S+
289.1008	5	C15H17N2O2S+
305.0956	15	C15H17N2O3S+
315.0797	1	C16H15N2O3S+
333.0907	8	C16H17N2O4S+
350.1167	2	C16H20N3O4S+
