Mass spectrum: N4-Acetylsulfadiazine; LC-ESI-ITFT; MS2; CE: 45%; R=7500; [M+H]+
Name: N4-Acetylsulfadiazine
Name: N-[4-(2-pyrimidinylsulfamoyl)phenyl]acetamide
Formula: C12H12N4O3S
Exact mass: 292.0630
SMILES: c1nc(NS(c2ccc(cc2)NC(C)=O)(=O)=O)ncc1
InChI: InChI=1S/C12H12N4O3S/c1-9(17)15-10-3-5-11(6-4-10)20(18,19)16-12-13-7-2-8-14-12/h2-8H,1H3,(H,15,17)(H,13,14,16)
Instrument: LTQ Orbitrap XL Thermo Scientific
Instrument type: LC-ESI-ITFT
Ms type: MS2
Ion mode: POSITIVE
Ionization: ESI
Fragmentation mode: HCD
Collision energy: 45 % (nominal)
Resolution: 7500
Column name: XBridge C18 3.5um, 2.1x50mm, Waters
Retention time: 3.6 min
Base peak: 293.0713
Precursor m/z: 293.0703
Precursor type: [M+H]+
m/z	relative intensity	assigned
65.0386	74	C5H5+
93.0334	66	C6H5O+
96.0556	268	C4H6N3+
108.0444	459	C6H6NO+
134.06	999	C8H8NO+
136.0755	164	C8H10NO+
150.0549	35	C8H8NO2+
156.0113	62	C6H6NO2S+
158.0017	109	C4H4N3O2S+
162.066	142	C8H8N3O+
185.0825	40	C10H9N4+
198.0219	365	C8H8NO3S+
227.0924	170	C12H11N4O+
293.0706	100	C12H13N4O3S+
