Mass spectrum: Imidacloprid; LC-ESI-ITFT; MS2; CE: 30%; R=7500; [M+H]+
Name: Imidacloprid
Name: N-[1-[(6-chloranylpyridin-3-yl)methyl]-4,5-dihydroimidazol-2-yl]nitramide
Formula: C9H10ClN5O2
Exact mass: 255.0523
SMILES: Cl-c(ncc1CN(CC2)C(N2)=NN(=O)=O)cc1
InChI: InChI=1S/C9H10ClN5O2/c10-8-2-1-7(5-12-8)6-14-4-3-11-9(14)13-15(16)17/h1-2,5H,3-4,6H2,(H,11,13)
Instrument: LTQ Orbitrap XL Thermo Scientific
Instrument type: LC-ESI-ITFT
Ms type: MS2
Ion mode: POSITIVE
Ionization: ESI
Fragmentation mode: HCD
Collision energy: 30 % (nominal)
Resolution: 7500
Column name: XBridge C18 3.5um, 2.1x50mm, Waters
Retention time: 4.8 min
Base peak: 256.0596
Precursor m/z: 256.0596
Precursor type: [M+H]+
m/z	relative intensity	assigned
56.0494	8	C3H6N+
71.0603	1	C3H7N2+
72.0682	2	C3H8N2+
84.0556	151	C3H6N3+
97.0634	5	C4H7N3+
98.0713	6	C4H8N3+
99.0553	17	C4H7N2O+
126.0104	15	C6H5ClN+
127.0182	1	C6H6ClN+
128.0261	84	C6H7ClN+
151.0182	14	C8H6ClN+
159.0788	1	C9H9N3+
167.0246	5	C7H6ClN3+
168.0331	2	C7H7ClN3+
173.0823	12	C9H9N4+
174.09	130	C9H10N4+
175.0977	973	C9H11N4+
181.041	1	C8H8ClN3+
193.0402	5	C9H8ClN3+
194.0482	5	C9H9ClN3+
196.0644	1	C9H11ClN3+
209.0588	999	C9H10ClN4+
210.0666	215	C9H11ClN4+
212.0583	306	C9H11ClN3O+
226.0622	1	C9H11ClN4O+
238.0494	1	C9H9ClN5O+
256.0589	170	C9H11ClN5O2+
