Mass spectrum: Aminopyrine; LC-ESI-ITFT; MS2; CE: 30%; R=15000; [M+H]+
Name: Aminopyrine
Name: 4-(dimethylamino)-1,5-dimethyl-2-phenyl-3-pyrazolin-3-one
Formula: C13H17N3O
Exact mass: 231.1372
SMILES: c(ccc1N(N(C=2C)C)C(=O)C2N(C)C)cc1
InChI: InChI=1S/C13H17N3O/c1-10-12(14(2)3)13(17)16(15(10)4)11-8-6-5-7-9-11/h5-9H,1-4H3
Instrument: LTQ Orbitrap XL Thermo Scientific
Instrument type: LC-ESI-ITFT
Ms type: MS2
Ion mode: POSITIVE
Ionization: ESI
Fragmentation mode: HCD
Collision energy: 30 % (nominal)
Resolution: 15000
Column name: XBridge C18 3.5um, 2.1x50mm, Waters
Retention time: 2.6 min
Base peak: 232.1453
Precursor m/z: 232.1444
Precursor type: [M+H]+
m/z	relative intensity	assigned
56.0495	60	C3H6N+
58.0652	61	C3H8N+
70.0652	163	C4H8N+
72.0808	89	C4H10N+
82.0652	14	C5H8N+
84.0808	36	C5H10N+
87.0918	15	C4H11N2+
97.0761	122	C5H9N2+
98.0839	216	C5H10N2+
99.0918	60	C5H11N2+
106.0653	16	C7H8N+
111.0918	356	C6H11N2+
113.1074	999	C6H13N2+
118.0652	29	C8H8N+
139.0869	13	C7H11N2O+
144.0808	2	C10H10N+
146.06	10	C9H8NO+
149.1073	31	C9H13N2+
159.0918	62	C10H11N2+
175.0868	17	C10H11N2O+
177.1023	45	C10H13N2O+
187.0867	80	C11H11N2O+
188.0945	27	C11H12N2O+
201.1026	8	C12H13N2O+
204.15	11	C12H18N3+
214.1343	4	C13H16N3+
217.1209	17	C12H15N3O+
232.1448	851	C13H18N3O+
