Mass spectrum: Codeine; LC-ESI-ITFT; MS2; CE: 35%; R=7500; [M+H]+
Name: Codeine
Name: (5,6)-3-Methoxy-17-methyl-7,8-didehydro-4,5-epoxymorphinan-6-ol
Name: Methylmorphine
Formula: C18H21NO3
Exact mass: 299.1521
SMILES: CN1CC[C@]23[C@@H]4[C@H]1CC5=C2C(=C(C=C5)OC)O[C@H]3[C@H](C=C4)O
InChI: InChI=1S/C18H21NO3/c1-19-8-7-18-11-4-5-13(20)17(18)22-16-14(21-2)6-3-10(15(16)18)9-12(11)19/h3-6,11-13,17,20H,7-9H2,1-2H3/t11-,12+,13-,17-,18-/m0/s1
Instrument: LTQ Orbitrap XL Thermo Scientific
Instrument type: LC-ESI-ITFT
Ms type: MS2
Ion mode: POSITIVE
Ionization: ESI
Fragmentation mode: CID
Collision energy: 35 % (nominal)
Resolution: 7500
Column name: XBridge C18 3.5um, 2.1x50mm, Waters
Retention time: 2.8 min
Base peak: 300.1595
Precursor m/z: 300.1594
Precursor type: [M+H]+
m/z	relative intensity	assigned
103.0544	1	C8H7+
121.0646	4	C8H9O+
132.0809	3	C9H10N+
137.0597	23	C8H9O2+
141.0699	2	C11H9+
144.0803	3	C10H10N+
145.0644	1	C10H9O+
146.06	6	C9H8NO+
151.0753	3	C9H11O2+
153.0701	8	C12H9+
155.0856	30	C12H11+
156.0571	2	C11H8O+
158.0726	2	C11H10O+
158.0963	3	C11H12N+
159.0805	18	C11H11O+
161.0597	82	C10H9O2+
162.0915	11	C10H12NO+
165.0699	44	C13H9+
167.086	5	C13H11+
168.057	2	C12H8O+
171.0805	9	C12H11O+
172.0517	1	C11H8O2+
172.0884	5	C12H12O+
173.0963	2	C12H13O+
174.0676	3	C11H10O2+
175.0755	46	C11H11O2+
177.0541	2	C10H9O3+
178.0857	4	C10H12NO2+
180.102	10	C10H14NO2+
181.0646	21	C13H9O+
182.0734	2	C13H10O+
183.0805	243	C13H11O+
184.0885	2	C13H12O+
185.0603	5	C12H9O2+
186.0681	3	C12H10O2+
187.0754	110	C12H11O2+
187.1118	24	C13H15O+
191.0855	35	C15H11+
192.1021	15	C11H14NO2+
193.0648	88	C14H9O+
193.1012	15	C15H13+
194.0727	13	C14H10O+
195.0804	9	C14H11O+
197.0959	24	C14H13O+
199.0754	135	C13H11O2+
200.0833	22	C13H12O2+
201.0695	3	C16H9+
201.091	16	C13H13O2+
202.0773	1	C16H10+
203.0856	8	C16H11+
205.1013	7	C16H13+
207.0808	16	C15H11O+
208.0891	2	C15H12O+
209.0599	23	C14H9O2+
209.0961	20	C15H13O+
210.0675	3	C14H10O2+
211.0755	32	C14H11O2+
212.0829	3	C14H12O2+
213.0911	28	C14H13O2+
215.1066	999	C14H15O2+
219.0804	36	C16H11O+
220.0882	9	C16H12O+
221.096	50	C16H13O+
222.128	1	C16H16N+
223.0752	22	C15H11O2+
223.1113	3	C16H15O+
224.0831	2	C15H12O2+
225.0909	329	C15H13O2+
227.1072	5	C15H15O2+
236.0836	11	C16H12O2+
237.0912	15	C16H13O2+
238.099	10	C16H14O2+
239.0693	2	C15H11O3+
239.1064	15	C16H15O2+
240.1387	2	C16H18NO+
241.0857	31	C15H13O3+
241.1222	16	C16H17O2+
243.1015	406	C15H15O3+
250.0985	15	C17H14O2+
250.1235	10	C17H16NO+
251.1067	46	C17H15O2+
253.1224	72	C17H17O2+
254.0927	2	C16H14O3+
254.1179	3	C16H16NO2+
256.132	3	C16H18NO2+
257.1181	3	C16H17O3+
257.1414	1	C16H19NO2+
265.1221	11	C18H17O2+
266.1176	25	C17H16NO2+
267.1255	51	C17H17NO2+
269.1173	13	C17H17O3+
272.1294	3	C16H18NO3+
272.1652	2	C17H22NO2+
280.1343	3	C18H18NO2+
282.149	287	C18H20NO2+
285.135	5	C17H19NO3+
