Mass spectrum: Nuarimol; LC-ESI-QFT; MS2; CE: 150%; R=17500; [M+H]+
Name: Nuarimol
Name: (2-chlorophenyl)-(4-fluorophenyl)-pyrimidin-5-ylmethanol
Formula: C17H12ClFN2O
Exact mass: 314.0622
SMILES: C1=CC=C(C(=C1)C(C2=CC=C(C=C2)F)(C3=CN=CN=C3)O)Cl
InChI: InChI=1S/C17H12ClFN2O/c18-16-4-2-1-3-15(16)17(22,13-9-20-11-21-10-13)12-5-7-14(19)8-6-12/h1-11,22H
Instrument: Exploris 240 Orbitrap Thermo Scientific
Instrument type: LC-ESI-QFT
Ms type: MS2
Ion mode: POSITIVE
Ionization: ESI
Fragmentation mode: HCD
Collision energy: 150 % (nominal)
Resolution: 17500
Column name: XBridge C18 3.5um, 2.1x50mm, Waters
Retention time: 8.405 min
Base peak: 315.0692
Precursor m/z: 315.0695
Precursor type: [M+H]+
m/z	relative intensity	assigned
51.0229	86	C4H3+
52.0182	77	C3H2N+
53.0022	48	C3HO+
54.0338	726	C3H4N+
74.0153	58	C6H2+
75.0229	999	C6H3+
77.0388	31	C6H5+
81.0447	291	C4H5N2+
84.984	37	C4H2Cl+
86.9996	31	C4H4Cl+
95.0289	135	C6H4F+
110.9996	152	C6H4Cl+
113.0395	68	C6H6FO+
123.0352	345	C6H4FN2+
129.0102	55	C6H6ClO+
138.9947	19	C7H4ClO+
139.0059	349	C6H4ClN2+
170.0525	63	C12H7F+
175.0543	23	C14H7+
176.0618	46	C14H8+
181.0447	131	C13H6F+
183.0607	52	C13H8F+
187.054	127	C15H7+
196.0684	32	C14H9F+
205.0448	91	C15H6F+
206.053	71	C15H7F+
207.0604	359	C15H8F+
