Mass spectrum: Terbuthylazine-TP CSCD692760 (LM3); LC-ESI-QFT; MS2; CE: 30%; R=17500; [M-H]-
Name: Terbuthylazine-TP CSCD692760 (LM3)
Name: 6-Hydroxy-7,7-dimethyl-7,8-dihydroimidazo[1,2-a][1,3,5]triazine-2,4(3H,6H)-dione
Formula: C7H10N4O3
Exact mass: 198.0753
SMILES: CC1(C)NC2=NC(O)=NC(=O)N2C1O
InChI: InChI=1S/C7H10N4O3/c1-7(2)3(12)11-4(10-7)8-5(13)9-6(11)14/h3,12H,1-2H3,(H2,8,9,10,13,14)
Instrument: Q Exactive Plus Orbitrap Thermo Scientific
Instrument type: LC-ESI-QFT
Ms type: MS2
Ion mode: NEGATIVE
Ionization: ESI
Fragmentation mode: HCD
Collision energy: 30 % (nominal)
Resolution: 17500
Column name: XBridge C18 3.5um, 2.1x50mm, Waters
Retention time: 1.287 min
Base peak: 197.0679
Precursor m/z: 197.068
Precursor type: [M-H]-
m/z	relative intensity	assigned
67.0303	5	C3H3N2-
83.0615	13	C4H7N2-
84.0203	43	C2H2N3O-
85.0044	15	C2HN2O2-
111.0564	584	C5H7N2O-
112.0597	5	H8N4O3-
125.0834	10	C5H9N4-
127.0261	149	C3H3N4O2-
136.0516	10	C6H6N3O-
154.0621	55	C6H8N3O2-
169.0731	263	C6H9N4O2-
179.0573	13	C7H7N4O2-
197.0679	999	C7H9N4O3-
198.0714	21	
