Mass spectrum: Meclozine; LC-ESI-QFT; MS2; CE: 75; R=35000; [M+H]+
Name: Meclozine
Name: Meclizine
Name: 1-[(4-chlorophenyl)-phenyl-methyl]-4-(3-methylbenzyl)piperazine
Formula: C25H27ClN2
Exact mass: 390.18628
SMILES: Clc1ccc(cc1)C(c2ccccc2)N3CCN(CC3)Cc4cccc(c4)C
InChI: InChI=1S/C25H27ClN2/c1-20-6-5-7-21(18-20)19-27-14-16-28(17-15-27)25(22-8-3-2-4-9-22)23-10-12-24(26)13-11-23/h2-13,18,25H,14-17,19H2,1H3
Instrument: Q Exactive Orbitrap Thermo Scientific
Instrument type: LC-ESI-QFT
Ms type: MS2
Ion mode: POSITIVE
Ionization: ESI
Fragmentation mode: HCD
Collision energy: 75 (nominal)
Resolution: 35000
Column name: XBridge C18 3.5um, 2.1x50mm, Waters
Retention time: 11.3 min
Base peak: 391.1956
Precursor m/z: 391.1936
Precursor type: [M+H]+
m/z	relative intensity	assigned
105.0704	12	C8H9+
115.0543	1	C9H7+
163.0546	1	C13H7+
164.0628	2	C13H8+
166.0784	999	C13H10+
183.0813	31	C10H14ClN+
193.0769	17	C13H9N2+
199.0317	16	C13H8Cl+
201.0473	144	C13H10Cl+
