Mass spectrum: Cloethocarb; LC-ESI-QFT; MS2; CE: 90%; R=17500; [M+H]+
Name: Cloethocarb
Name: [2-(2-chloro-1-methoxyethoxy)phenyl] N-methylcarbamate
Formula: C11H14ClNO4
Exact mass: 259.0611
SMILES: CNC(=O)OC1=CC=CC=C1OC(CCl)OC
InChI: InChI=1S/C11H14ClNO4/c1-13-11(14)17-9-6-4-3-5-8(9)16-10(7-12)15-2/h3-6,10H,7H2,1-2H3,(H,13,14)
Instrument: Exploris 240 Orbitrap Thermo Scientific
Instrument type: LC-ESI-QFT
Ms type: MS2
Ion mode: POSITIVE
Ionization: ESI
Fragmentation mode: HCD
Collision energy: 90 % (nominal)
Resolution: 17500
Column name: XBridge C18 3.5um, 2.1x50mm, Waters
Retention time: 4.885 min
Base peak: 116.0528
Precursor m/z: 260.0684
Precursor type: [M+H]+
m/z	relative intensity	assigned
52.0183	82	C3H2N+
53.0386	15	C4H5+
65.0386	92	C5H5+
72.9841	40	C3H2Cl+
76.0186	29	C5H2N+
77.0387	43	C6H5+
80.0495	111	C5H6N+
90.0341	26	C6H4N+
92.0494	15	C6H6N+
93.0576	44	C6H7N+
98.9997	77	C5H4Cl+
101.0029	14	C4H4ClN+
104.0498	22	C7H6N+
108.0445	178	C6H6NO+
111.9949	514	C5H3ClN+
112.9791	48	C5H2ClO+
113.0152	22	C6H6Cl+
114.0108	41	C5H5ClN+
114.9949	14	C5H4ClO+
123.068	21	C7H9NO+
125.987	60	C6H3ClO+
126.0105	40	C6H5ClN+
127.9898	47	C5H3ClNO+
128.998	21	C5H4ClNO+
133.0521	12	C8H7NO+
139.9899	375	C6H3ClNO+
140.9739	999	C6H2ClO2+
142.0058	28	C6H5ClNO+
143.0132	84	C6H6ClNO+
149.0234	85	C8H5O3+
154.9891	93	C7H4ClO2+
155.9843	56	C9O3+
155.9977	220	C7H5ClO2+
170.0004	638	C7H5ClNO2+
202.0037	74	C8H7ClO4+
