Mass spectrum: Eprosartan; LC-ESI-ITFT; MS2; CE: 45%; R=7500; [M-H]-
Name: Eprosartan
Name: 4-[[2-butyl-5-[(E)-3-hydroxy-3-keto-2-(2-thenyl)prop-1-enyl]imidazol-1-yl]methyl]benzoic acid
Formula: C23H24N2O4S
Exact mass: 424.1457
SMILES: CCCCC1=NC=C(N1CC2=CC=C(C=C2)C(=O)O)/C=C(\CC3=CC=CS3)/C(=O)O
InChI: InChI=1S/C23H24N2O4S/c1-2-3-6-21-24-14-19(12-18(23(28)29)13-20-5-4-11-30-20)25(21)15-16-7-9-17(10-8-16)22(26)27/h4-5,7-12,14H,2-3,6,13,15H2,1H3,(H,26,27)(H,28,29)/b18-12+
Instrument: LTQ Orbitrap XL Thermo Scientific
Instrument type: LC-ESI-ITFT
Ms type: MS2
Ion mode: NEGATIVE
Ionization: ESI
Fragmentation mode: HCD
Collision energy: 45 % (nominal)
Resolution: 7500
Column name: XBridge C18 3.5um, 2.1x50mm, Waters
Retention time: 6.2 min
Base peak: 423.1373
Precursor m/z: 423.1384
Precursor type: [M-H]-
m/z	relative intensity	assigned
121.0292	191	C7H5O2-
135.0457	156	C8H7O2-
199.0586	380	C13H11S-
215.065	629	C12H11N2S-
237.1403	244	
244.1041	999	C14H16N2S-
245.1117	450	C14H17N2S-
335.1592	86	C21H23N2S-
