Mass spectrum: Cyanazine; LC-ESI-ITFT; MS2; CE: 45%; R=7500; [M+H]+
Name: Cyanazine
Name: 2-[[4-chloranyl-6-(ethylamino)-1,3,5-triazin-2-yl]amino]-2-methyl-propanenitrile
Formula: C9H13ClN6
Exact mass: 240.0890
SMILES: CCNC1=NC(=NC(=N1)Cl)NC(C)(C)C#N
InChI: InChI=1S/C9H13ClN6/c1-4-12-7-13-6(10)14-8(15-7)16-9(2,3)5-11/h4H2,1-3H3,(H2,12,13,14,15,16)
Instrument: LTQ Orbitrap XL Thermo Scientific
Instrument type: LC-ESI-ITFT
Ms type: MS2
Ion mode: POSITIVE
Ionization: ESI
Fragmentation mode: HCD
Collision energy: 45 % (nominal)
Resolution: 7500
Column name: XBridge C18 3.5um, 2.1x50mm, Waters
Retention time: 6.6 min
Base peak: 241.0971
Precursor m/z: 241.0963
Precursor type: [M+H]+
m/z	relative intensity	assigned
61.979	2	CHClN+
68.0243	37	C2H2N3+
71.0604	8	C3H7N2+
79.0057	8	CH4ClN2+
83.0602	6	C4H7N2+
96.0556	73	C4H6N3+
104.001	52	C2H3ClN3+
110.0712	12	C5H8N3+
119.037	11	C4H8ClN2+
132.0323	35	C4H7ClN3+
136.087	14	C7H10N3+
138.0774	3	C5H8N5+
146.023	13	C3H5ClN5+
163.0978	16	C8H11N4+
171.0431	5	C6H8ClN4+
173.059	12	C6H10ClN4+
174.054	103	C5H9ClN5+
177.0886	9	C7H9N6+
178.1087	11	C8H12N5+
180.1242	2	C8H14N5+
186.054	16	C6H9ClN5+
205.1195	73	C9H13N6+
214.0855	999	C8H13ClN5+
241.0966	397	C9H14ClN6+
