Mass spectrum: Metobromuron; LC-ESI-QFT; MS2; CE: 30%; R=17500; [M+H]+
Name: Metobromuron
Name: 3-(4-bromophenyl)-1-methoxy-1-methylurea
Formula: C9H11BrN2O2
Exact mass: 258.0004
SMILES: CN(C(=O)NC1=CC=C(C=C1)Br)OC
InChI: InChI=1S/C9H11BrN2O2/c1-12(14-2)9(13)11-8-5-3-7(10)4-6-8/h3-6H,1-2H3,(H,11,13)
Instrument: Exploris 240 Orbitrap Thermo Scientific
Instrument type: LC-ESI-QFT
Ms type: MS2
Ion mode: POSITIVE
Ionization: ESI
Fragmentation mode: HCD
Collision energy: 30 % (nominal)
Resolution: 17500
Column name: XBridge C18 3.5um, 2.1x50mm, Waters
Retention time: 6.748 min
Base peak: 259.0077
Precursor m/z: 259.0077
Precursor type: [M+H]+
m/z	relative intensity	assigned
60.0444	101	C2H6NO+
61.0521	8	C2H7NO+
62.06	335	C2H8NO+
88.0394	87	C3H6NO2+
148.0632	795	C8H8N2O+
169.96	999	C6H5BrN+
170.9678	121	C6H6BrN+
197.9551	29	C7H5BrNO+
226.9815	53	C8H8BrN2O+
227.9894	77	C8H9BrN2O+
259.0079	633	C9H12BrN2O2+
