Mass spectrum: Flutriafol; LC-ESI-QFT; MS2; CE: 90; R=35000; [M+H]+
Name: Flutriafol
Name: 1-(2-fluorophenyl)-1-(4-fluorophenyl)-2-(1,2,4-triazol-1-yl)ethanol
Formula: C16H13F2N3O
Exact mass: 301.10267
SMILES: C1=CC=C(C(=C1)C(CN2C=NC=N2)(C3=CC=C(C=C3)F)O)F
InChI: InChI=1S/C16H13F2N3O/c17-13-7-5-12(6-8-13)16(22,9-21-11-19-10-20-21)14-3-1-2-4-15(14)18/h1-8,10-11,22H,9H2
Instrument: Q Exactive Plus Orbitrap Thermo Scientific
Instrument type: LC-ESI-QFT
Ms type: MS2
Ion mode: POSITIVE
Ionization: ESI
Fragmentation mode: HCD
Collision energy: 90 (nominal)
Resolution: 35000
Column name: XBridge C18 3.5um, 2.1x50mm, Waters
Retention time: 8.6 min
Base peak: 302.1094
Precursor m/z: 302.1099
Precursor type: [M+H]+
m/z	relative intensity	assigned
50.0151	3	C4H2+
51.0229	2	C4H3+
57.0135	1	C3H2F+
59.0292	1	C3H4F+
70.04	999	C2H4N3+
71.0291	16	C4H4F+
74.0149	2	CHFN3+
75.0229	24	CH2FN3+
79.0178	5	C5H3O+
83.0291	28	C5H4F+
89.0386	2	C7H5+
91.0542	2	C7H7+
93.0335	3	C6H5O+
95.0291	17	C6H4F+
99.0241	3	C5H4FO+
109.0449	224	C7H6F+
111.0441	2	C6H7O2+
113.0397	89	C6H6FO+
123.0241	265	C2H3F2N3O+
123.0353	251	C6H4FN2+
124.0325	1	C7H5FO+
165.07	9	C13H9+
170.0526	1	C12H7F+
174.0466	2	C14H6+
175.0544	4	C14H7+
183.0606	4	C13H8F+
187.0553	3	C12H8FO+
193.0648	5	C14H9O+
194.0527	15	C14H7F+
195.0609	2	C14H8F+
197.0511	1	C12H6FN2+
203.0603	3	C14H7N2+
214.0589	12	C14H8F2+
