Mass spectrum: Neotame; LC-ESI-ITFT; MS2; CE: 75%; R=7500; [M+H]+
Name: Neotame
Name: (3S)-3-(3,3-dimethylbutylamino)-4-[[(2S)-1-methoxy-1-oxidanylidene-3-phenyl-propan-2-yl]amino]-4-oxidanylidene-butanoic acid
Formula: C20H30N2O5
Exact mass: 378.2155
SMILES: CC(C)(C)CCN[C@@H](CC(=O)O)C(=O)N[C@@H](CC1=CC=CC=C1)C(=O)OC
InChI: InChI=1S/C20H30N2O5/c1-20(2,3)10-11-21-15(13-17(23)24)18(25)22-16(19(26)27-4)12-14-8-6-5-7-9-14/h5-9,15-16,21H,10-13H2,1-4H3,(H,22,25)(H,23,24)/t15-,16-/m0/s1
Instrument: LTQ Orbitrap XL Thermo Scientific
Instrument type: LC-ESI-ITFT
Ms type: MS2
Ion mode: POSITIVE
Ionization: ESI
Fragmentation mode: HCD
Collision energy: 75 % (nominal)
Resolution: 7500
Column name: XBridge C18 3.5um, 2.1x50mm, Waters
Retention time: 9.0 min
Base peak: 379.2243
Precursor m/z: 379.2227
Precursor type: [M+H]+
m/z	relative intensity	assigned
57.0698	297	C4H9+
70.0288	92	C3H4NO+
85.1012	279	C6H13+
88.0393	228	C3H6NO2+
91.0542	440	C7H7+
103.0542	99	C8H7+
120.0808	999	C8H10N+
121.0646	77	C8H9O+
130.0653	26	C9H8N+
130.1223	23	C7H16NO+
154.1229	16	C9H16NO+
172.1332	654	C9H18NO2+
231.1866	28	C15H23N2+
259.1807	25	C16H23N2O+
