Mass spectrum: Anabaenopeptin NZ857; LC-ESI-QFT; MS2; CE: 30%; R=17500; [M-H]-
Name: Anabaenopeptin NZ857
Name: 2-[[12-butan-2-yl-3,9-bis[2-(4-hydroxyphenyl)ethyl]-7-methyl-2,5,8,11,14-pentaoxo-1,4,7,10,13-pentazacyclononadec-15-yl]carbamoylamino]-3-phenylpropanoic acid
Formula: C45H59N7O10
Exact mass: 857.4323
SMILES: CCC(C)C1C(=O)NC(C(=O)N(CC(=O)NC(C(=O)NCCCCC(C(=O)N1)NC(=O)NC(CC2=CC=CC=C2)C(=O)O)CCC3=CC=C(C=C3)O)C)CCC4=CC=C(C=C4)O
InChI: InChI=1S/C45H59N7O10/c1-4-28(2)39-42(58)48-36(24-18-30-15-21-33(54)22-16-30)43(59)52(3)27-38(55)47-35(23-17-29-13-19-32(53)20-14-29)40(56)46-25-9-8-12-34(41(57)51-39)49-45(62)50-37(44(60)61)26-31-10-6-5-7-11-31/h5-7,10-11,13-16,19-22,28,34-37,39,53-54H,4,8-9,12,17-18,23-27H2,1-3H3,(H,46,56)(H,47,55)(H,48,58)(H,51,57)(H,60,61)(H2,49,50,62)
Instrument: Q Exactive Plus Orbitrap Thermo Scientific
Instrument type: LC-ESI-QFT
Ms type: MS2
Ion mode: NEGATIVE
Ionization: ESI
Fragmentation mode: HCD
Collision energy: 30 % (nominal)
Resolution: 17500
Column name: XBridge C18 3.5um, 2.1x50mm, Waters
Retention time: 7.928 min
Base peak: 190.928
Precursor m/z: 856.4251
Precursor type: [M-H]-
m/z	relative intensity	assigned
99.02	24	C3H3N2O2-
119.0503	47	C8H7O-
127.051	27	C5H7N2O2-
160.0771	28	C10H10NO-
163.0397	91	C9H7O3-
180.0662	601	C9H10NO3-
189.0674	25	C10H9N2O2-
204.0667	33	C11H10NO3-
229.1346	39	C14H17N2O-
261.124	70	C14H17N2O3-
278.1519	48	C16H22O4-
300.1373	103	C4H22N5O10-
320.1985	29	C17H26N3O3-
331.2159	253	C6H31N6O9-
346.1791	52	C20H26O5-
370.2153	90	C9H32N5O10-
402.2183	992	C25H28N3O2-
413.2228	59	C27H29N2O2-
416.2313	74	C23H32N2O5-
443.2292	76	C22H35O9-
459.2343	120	C21H35N2O9-
474.2707	73	C23H40NO9-
632.3431	78	C32H48N4O9-
675.351	999	C36H47N6O7-
732.3727	186	C38H50N7O8-
