Mass spectrum: Genistein; LC-ESI-QFT; MS2; CE: 60; R=35000; [M+H]+
Name: Genistein
Name: 5,7-dihydroxy-3-(4-hydroxyphenyl)chromen-4-one
Formula: C15H10O5
Exact mass: 270.05282
SMILES: C1=CC(=CC=C1C2=COC3=CC(=CC(=C3C2=O)O)O)O
InChI: InChI=1S/C15H10O5/c16-9-3-1-8(2-4-9)11-7-20-13-6-10(17)5-12(18)14(13)15(11)19/h1-7,16-18H
Instrument: Q Exactive Plus Orbitrap Thermo Scientific
Instrument type: LC-ESI-QFT
Ms type: MS2
Ion mode: POSITIVE
Ionization: ESI
Fragmentation mode: HCD
Collision energy: 60 (nominal)
Resolution: 35000
Column name: XBridge C18 3.5um, 2.1x50mm, Waters
Retention time: 7.6 min
Base peak: 271.0599
Precursor m/z: 271.0601
Precursor type: [M+H]+
m/z	relative intensity	assigned
51.0228	2	C4H3+
53.002	1	C3HO+
55.0178	11	C3H3O+
63.0229	3	C5H3+
65.0386	23	C5H5+
67.0178	54	C4H3O+
68.9971	108	C3HO2+
69.0335	8	C4H5O+
71.0128	4	C3H3O2+
77.0385	4	C6H5+
79.0542	1	C6H7+
81.0335	10	C5H5O+
83.0127	3	C4H3O2+
85.0284	1	C4H5O2+
89.0385	19	C7H5+
91.0543	426	C7H7+
93.0336	1	C6H5O+
94.0413	1	C6H6O+
95.0128	18	C5H3O2+
95.0491	3	C6H7O+
97.0285	9	C5H5O2+
103.0543	10	C8H7+
105.0335	13	C7H5O+
105.0447	3	C6H5N2+
105.0699	5	C8H9+
107.0492	44	C7H7O+
109.0285	21	C6H5O2+
109.0648	2	C7H9O+
111.0077	41	C5H3O3+
115.0543	17	C9H7+
116.062	1	C9H8+
117.0335	8	C8H5O+
117.0699	20	C9H9+
118.0412	4	C8H6O+
119.0492	179	C8H7O+
121.0285	75	C7H5O2+
123.0078	5	C6H3O3+
123.0441	4	C7H7O2+
125.0234	5	C6H5O3+
127.0391	4	C6H7O3+
128.0621	14	C10H8+
129.0698	19	C10H9+
131.0492	74	C9H7O+
131.0856	27	C10H11+
132.0568	1	C9H8O+
133.0284	18	C8H5O2+
133.0648	13	C9H9O+
134.0364	4	C8H6O2+
135.044	30	C8H7O2+
137.0234	34	C7H5O3+
139.0543	1	C11H7+
141.0699	126	C11H9+
143.0857	1	C11H11+
144.057	11	C10H8O+
145.0285	186	C9H5O2+
145.0649	47	C10H9O+
147.0441	39	C9H7O2+
147.0805	35	C10H11O+
149.0234	318	C8H5O3+
150.0313	16	C8H6O3+
151.039	1	C8H7O3+
152.062	12	C12H8+
153.0183	999	C7H5O4+
155.0492	18	C11H7O+
155.0599	5	C10H7N2+
157.0649	13	C11H9O+
159.0441	147	C10H7O2+
159.0805	47	C11H11O+
160.0516	1	C10H8O2+
161.0599	5	C10H9O2+
163.039	7	C9H7O3+
165.0183	107	C8H5O4+
167.0341	7	C8H7O4+
168.0571	5	C12H8O+
169.0649	235	C12H9O+
170.0729	1	C12H10O+
171.0287	1	C7H7O5+
171.0439	2	C11H7O2+
171.0803	1	C12H11O+
172.0522	3	C11H8O2+
173.0599	49	C11H9O2+
174.0676	5	C11H10O2+
175.0755	35	C11H11O2+
177.0184	4	C9H5O4+
177.0548	4	C10H9O3+
178.0259	9	C9H6O4+
179.0491	6	C13H7O+
179.0605	1	C12H7N2+
181.0648	15	C13H9O+
183.029	27	C8H7O5+
183.0441	32	C12H7O2+
184.052	5	C12H8O2+
185.0599	20	C12H9O2+
187.0391	36	C11H7O3+
187.0754	90	C12H11O2+
191.034	15	C10H7O4+
195.0554	1	C12H7N2O+
197.0598	271	C13H9O2+
198.0674	5	C13H10O2+
199.0755	1	C13H11O2+
200.0469	39	C12H8O3+
201.0547	43	C12H9O3+
203.034	3	C11H7O4+
203.0706	6	C12H11O3+
205.05	2	C11H9O4+
207.0438	1	C14H7O2+
209.045	1	C10H9O5+
211.0391	17	C13H7O3+
213.0547	30	C13H9O3+
214.0625	3	C13H10O3+
215.0704	761	C13H11O3+
216.0423	1	C12H8O4+
219.0656	10	C12H11O4+
224.0465	1	C14H8O3+
225.0548	72	C14H9O3+
226.0625	13	C14H10O3+
227.0705	18	C14H11O3+
228.0418	18	C13H8O4+
229.0497	15	C13H9O4+
235.0393	3	C15H7O3+
241.0498	7	C14H9O4+
242.0575	20	C14H10O4+
243.0654	460	C14H11O4+
247.0602	5	C13H11O5+
252.0414	1	C15H8O4+
253.0497	286	C15H9O4+
271.0602	928	C15H11O5+
