Mass spectrum: 5-Chloro-2-methyl-4-isothiazolin-3-one (CMI); LC-ESI-ITFT; MS2; CE: 35%; R=7500; [M+H]+
Name: 5-Chloro-2-methyl-4-isothiazolin-3-one (CMI)
Name: 3(2H)-Isothiazolone, 5-chloro-2-methyl-
Name: 5-chloranyl-2-methyl-1,2-thiazol-3-one
Formula: C4H4ClNOS
Exact mass: 148.9702
SMILES: c1(n(sc(c1)Cl)C)=O
InChI: InChI=1S/C4H4ClNOS/c1-6-4(7)2-3(5)8-6/h2H,1H3
Instrument: LTQ Orbitrap XL Thermo Scientific
Instrument type: LC-ESI-ITFT
Ms type: MS2
Ion mode: POSITIVE
Ionization: ESI
Fragmentation mode: CID
Collision energy: 35 % (nominal)
Resolution: 7500
Column name: XBridge C18 3.5um, 2.1x50mm, Waters
Retention time: 3.7 min
Base peak: 149.9773
Precursor m/z: 149.9775
Precursor type: [M+H]+
m/z	relative intensity	assigned
70.9952	172	C3H3S+
78.0106	107	C2H5ClN+
94.9716	102	C2H4ClS+
95.9906	118	C4H2NS+
104.9561	491	C3H2ClS+
106.0052	249	C3H5ClNO+
106.9717	779	C3H4ClS+
114.0005	109	C4H4NOS+
115.0087	670	C4H5NOS+
116.9975	158	C4H4ClNO+
118.9355	136	C3ClOS+
120.9511	999	C3H2ClOS+
132.951	661	C4H2ClOS+
149.977	911	C4H5ClNOS+
