Mass spectrum: Metalaxyl-M-TP CGA108906; LC-ESI-QFT; MS2; CE: 120%; R=17500; [M+H]+
Name: Metalaxyl-M-TP CGA108906
Name: 2-[1-carboxyethyl-(2-methoxyacetyl)amino]-3-methylbenzoic acid
Formula: C14H17NO6
Exact mass: 295.1056
SMILES: COCC(=O)N(C(C)C(O)=O)C1=C(C=CC=C1C)C(O)=O
InChI: InChI=1S/C14H17NO6/c1-8-5-4-6-10(14(19)20)12(8)15(9(2)13(17)18)11(16)7-21-3/h4-6,9H,7H2,1-3H3,(H,17,18)(H,19,20)
Instrument: Q Exactive Plus Orbitrap Thermo Scientific
Instrument type: LC-ESI-QFT
Ms type: MS2
Ion mode: POSITIVE
Ionization: ESI
Fragmentation mode: HCD
Collision energy: 120 % (nominal)
Resolution: 17500
Column name: XBridge C18 3.5um, 2.1x50mm, Waters
Retention time: 5.723 min
Base peak: 296.1129
Precursor m/z: 296.1129
Precursor type: [M+H]+
m/z	relative intensity	assigned
51.0229	4	C4H3+
53.0021	5	C3HO+
53.0386	6	C4H5+
55.0179	6	C3H3O+
63.0229	15	C5H3+
65.0386	609	C5H5+
66.0464	6	C5H6+
77.0384	9	C6H5+
79.0542	20	C6H7+
89.0385	55	C7H5+
90.0465	55	C7H6+
91.0543	999	C7H7+
93.0576	4	C6H7N+
95.0492	17	C6H7O+
103.0542	19	C8H7+
104.0496	9	C7H6N+
105.0448	9	
105.0701	18	C8H9+
106.0652	11	C7H8N+
109.0645	4	C7H9O+
115.0543	51	C9H7+
117.0573	220	C8H7N+
118.0651	15	C8H8N+
119.0494	14	C8H7O+
119.0605	3	
129.057	4	C9H7N+
130.0651	50	C9H8N+
131.0728	8	C9H9N+
132.0807	11	C9H10N+
134.0601	13	C8H8NO+
141.0572	7	C10H7N+
142.0656	17	C10H8N+
144.045	6	C9H6NO+
144.0558	5	C10H8O+
144.081	13	C10H10N+
145.0524	9	C9H7NO+
158.0601	16	C10H8NO+
159.0681	14	C10H9NO+
160.0757	34	C10H10NO+
