Mass spectrum: Diphenylamine; LC-ESI-QFT; MS2; CE: 90; R=35000; [M+H]+
Name: Diphenylamine
Name: N-phenylaniline
Formula: C12H11N
Exact mass: 169.08915
SMILES: c1(Nc2ccccc2)ccccc1
InChI: InChI=1S/C12H11N/c1-3-7-11(8-4-1)13-12-9-5-2-6-10-12/h1-10,13H
Instrument: Q Exactive Orbitrap Thermo Scientific
Instrument type: LC-ESI-QFT
Ms type: MS2
Ion mode: POSITIVE
Ionization: ESI
Fragmentation mode: HCD
Collision energy: 90 (nominal)
Resolution: 35000
Column name: XBridge C18 3.5um, 2.1x50mm, Waters
Retention time: 11.3 min
Base peak: 170.0964
Precursor m/z: 170.0964
Precursor type: [M+H]+
m/z	relative intensity	assigned
65.0386	107	C5H5+
66.0464	24	C5H6+
77.0384	2	C6H5+
92.0495	238	C6H6N+
93.0572	999	C6H7N+
95.0491	13	C6H7O+
105.0446	2	C6H5N2+
110.0601	2	C6H8NO+
115.0541	1	C9H7+
128.062	12	C10H8+
129.0698	1	C10H9+
143.0856	3	C11H11+
152.062	49	C12H8+
153.0698	21	C12H9+
154.0651	4	C11H8N+
154.0779	1	C12H10+
155.0604	1	C10H7N2+
155.073	3	C11H9N+
168.0809	7	C12H10N+
169.0649	5	C12H9O+
169.0889	14	C12H11N+
170.0964	53	C12H12N+
