Mass spectrum: Brodifacoum; LC-ESI-QFT; MS2; CE: 60%; R=17500; [M+H]+
Name: Brodifacoum
Name: 3-[3-[4-(4-bromophenyl)phenyl]-1,2,3,4-tetrahydronaphthalen-1-yl]-4-hydroxychromen-2-one
Formula: C31H23BrO3
Exact mass: 522.0831
SMILES: C1C(CC2=CC=CC=C2C1C3=C(C4=CC=CC=C4OC3=O)O)C5=CC=C(C=C5)C6=CC=C(C=C6)Br
InChI: InChI=1S/C31H23BrO3/c32-24-15-13-20(14-16-24)19-9-11-21(12-10-19)23-17-22-5-1-2-6-25(22)27(18-23)29-30(33)26-7-3-4-8-28(26)35-31(29)34/h1-16,23,27,33H,17-18H2
Instrument: Exploris 240 Orbitrap Thermo Scientific
Instrument type: LC-ESI-QFT
Ms type: MS2
Ion mode: POSITIVE
Ionization: ESI
Fragmentation mode: HCD
Collision energy: 60 % (nominal)
Resolution: 17500
Column name: XBridge C18 3.5um, 2.1x50mm, Waters
Retention time: 16.530 min
Base peak: 523.0906
Precursor m/z: 523.0903
Precursor type: [M+H]+
m/z	relative intensity	assigned
69.0334	11	C4H5O+
79.0542	37	C6H7+
91.0542	278	C7H7+
95.0492	22	C6H7O+
103.0541	53	C8H7+
107.0491	145	C7H7O+
115.0541	9	C9H7+
117.0699	22	C9H9+
121.0284	103	C7H5O2+
128.0621	30	C10H8+
129.0696	50	C10H9+
141.0701	30	C11H9+
143.0491	13	C10H7O+
143.0857	8	C11H11+
163.0389	14	C9H7O3+
165.0698	778	C13H9+
168.9645	14	C7H6Br+
171.0807	21	C12H11O+
175.0389	362	C10H7O3+
178.0776	999	C14H10+
179.0855	162	C14H11+
189.0543	85	C11H9O3+
215.0856	24	C17H11+
220.0882	10	C16H12O+
239.0865	22	C19H11+
240.0934	52	C19H12+
241.1011	304	C19H13+
242.9802	198	C13H8Br+
244.9965	47	C13H10Br+
254.1087	19	C20H14+
255.1168	500	C20H15+
256.1245	733	C20H16+
256.9962	30	C14H10Br+
