Mass spectrum: Tolfenpyrad; LC-ESI-QFT; MS2; CE: 45%; R=17500; [M+H]+
Name: Tolfenpyrad
Name: 4-chloro-5-ethyl-2-methyl-N-[[4-(4-methylphenoxy)phenyl]methyl]pyrazole-3-carboxamide
Formula: C21H22ClN3O2
Exact mass: 383.1401
SMILES: CCC1=NN(C(=C1Cl)C(=O)NCC2=CC=C(C=C2)OC3=CC=C(C=C3)C)C
InChI: InChI=1S/C21H22ClN3O2/c1-4-18-19(22)20(25(3)24-18)21(26)23-13-15-7-11-17(12-8-15)27-16-9-5-14(2)6-10-16/h5-12H,4,13H2,1-3H3,(H,23,26)
Instrument: Exploris 240 Orbitrap Thermo Scientific
Instrument type: LC-ESI-QFT
Ms type: MS2
Ion mode: POSITIVE
Ionization: ESI
Fragmentation mode: HCD
Collision energy: 45 % (nominal)
Resolution: 17500
Column name: XBridge C18 3.5um, 2.1x50mm, Waters
Retention time: 13.456 min
Base peak: 308.0038
Precursor m/z: 384.1473
Precursor type: [M+H]+
m/z	relative intensity	assigned
106.0651	17	C7H8N+
117.0214	139	C4H6ClN2+
141.07	8	C11H9+
145.0527	360	C6H10ClN2+
154.0776	26	C12H10+
169.1012	57	C13H13+
171.0319	166	C7H8ClN2O+
197.096	999	C14H13O+
200.0586	39	C8H11ClN3O+
341.1406	5	C20H22ClN2O+
384.1472	98	C21H23ClN3O2+
