Mass spectrum: Phorate Sulfone; LC-ESI-QFT; MS2; CE: 15%; R=17500; [M+H]+
Name: Phorate Sulfone
Name: diethoxy-(ethylsulfonylmethylsulfanyl)-sulfanylidene-lambda5-phosphane
Formula: C7H17O4PS3
Exact mass: 292.0027
SMILES: CCOP(=S)(OCC)SCS(=O)(=O)CC
InChI: InChI=1S/C7H17O4PS3/c1-4-10-12(13,11-5-2)14-7-15(8,9)6-3/h4-7H2,1-3H3
Instrument: Exploris 240 Orbitrap Thermo Scientific
Instrument type: LC-ESI-QFT
Ms type: MS2
Ion mode: POSITIVE
Ionization: ESI
Fragmentation mode: HCD
Collision energy: 15 % (nominal)
Resolution: 17500
Column name: XBridge C18 3.5um, 2.1x50mm, Waters
Retention time: 6.950 min
Base peak: 194.1175
Precursor m/z: 293.0099
Precursor type: [M+H]+
m/z	relative intensity	assigned
96.9506	13	H2O2PS+
114.9614	29	H4O3PS+
124.982	54	C2H6O2PS+
142.9388	7	CH4O2PS2+
142.9926	44	C2H8O3PS+
153.0133	203	C4H10O2PS+
154.9749	4	C3H8OPS2+
171.0238	999	C4H12O3PS+
185.0394	7	C5H14O3PS+
199.001	151	C5H12O2PS2+
