Mass spectrum: Phorate Sulfoxide; LC-ESI-QFT; MS2; CE: 90%; R=17500; [M+H]+
Name: Phorate Sulfoxide
Name: diethoxy-(ethylsulfinylmethylsulfanyl)-sulfanylidene-lambda5-phosphane
Formula: C7H17O3PS3
Exact mass: 276.0077
SMILES: CCOP(=S)(OCC)SCS(=O)CC
InChI: InChI=1S/C7H17O3PS3/c1-4-9-11(12,10-5-2)13-7-14(8)6-3/h4-7H2,1-3H3
Instrument: Exploris 240 Orbitrap Thermo Scientific
Instrument type: LC-ESI-QFT
Ms type: MS2
Ion mode: POSITIVE
Ionization: ESI
Fragmentation mode: HCD
Collision energy: 90 % (nominal)
Resolution: 17500
Column name: XBridge C18 3.5um, 2.1x50mm, Waters
Retention time: 6.677 min
Base peak: 277.0147
Precursor m/z: 277.015
Precursor type: [M+H]+
m/z	relative intensity	assigned
64.9786	21	H2O2P+
78.9403	37	OPS+
96.9507	999	H2O2PS+
110.9664	26	CH4O2PS+
114.9613	330	H4O3PS+
126.9437	9	CH4OPS2+
128.9772	10	CH6O3PS+
142.9385	80	CH4O2PS2+
