Mass spectrum: Ketoprofen; LC-ESI-ITFT; MS2; CE: 90%; R=30000; [M+H]+
Name: Ketoprofen
Name: 2-(3-benzoylphenyl)propanoic acid
Formula: C16H14O3
Exact mass: 254.0943
SMILES: CC(C1=CC=CC(=C1)C(=O)C2=CC=CC=C2)C(=O)O
InChI: InChI=1S/C16H14O3/c1-11(16(18)19)13-8-5-9-14(10-13)15(17)12-6-3-2-4-7-12/h2-11H,1H3,(H,18,19)
Instrument: LTQ Orbitrap XL Thermo Scientific
Instrument type: LC-ESI-ITFT
Ms type: MS2
Ion mode: POSITIVE
Ionization: ESI
Fragmentation mode: HCD
Collision energy: 90 % (nominal)
Resolution: 30000
Column name: XBridge C18 3.5um, 2.1x50mm, Waters
Retention time: 9.6 min
Base peak: 277.0843
Precursor m/z: 255.1016
Precursor type: [M+H]+
m/z	relative intensity	assigned
51.0228	8	C4H3+
53.0386	104	C4H5+
77.0386	824	C6H5+
79.0542	8	C6H7+
81.0335	11	C5H5O+
91.0542	42	C7H7+
93.0699	38	C7H9+
95.0491	106	C6H7O+
103.0542	327	C8H7+
105.0335	999	C7H5O+
105.0447	276	C6H5N2+
131.0491	40	C9H7O+
131.0602	21	C8H7N2+
149.0591	7	C9H9O2+
165.0698	89	C13H9+
166.0775	18	C13H10+
177.055	14	C10H9O3+
194.0725	74	C14H10O+
