Mass spectrum: Propaquizafop; LC-ESI-ITFT; MS2; CE: 30%; R=7500; [M+H]+
Name: Propaquizafop
Name: 2-(propan-2-ylideneamino)oxyethyl 2-[4-(6-chloranylquinoxalin-2-yl)oxyphenoxy]propanoate
Formula: C22H22ClN3O5
Exact mass: 443.1242
SMILES: CC(C(=O)OCCON=C(C)C)OC1=CC=C(C=C1)OC2=CN=C3C=C(C=CC3=N2)Cl
InChI: InChI=1S/C22H22ClN3O5/c1-14(2)26-29-11-10-28-22(27)15(3)30-17-5-7-18(8-6-17)31-21-13-24-20-12-16(23)4-9-19(20)25-21/h4-9,12-13,15H,10-11H2,1-3H3
Instrument: LTQ Orbitrap XL Thermo Scientific
Instrument type: LC-ESI-ITFT
Ms type: MS2
Ion mode: POSITIVE
Ionization: ESI
Fragmentation mode: HCD
Collision energy: 30 % (nominal)
Resolution: 7500
Column name: XBridge C18 3.5um, 2.1x50mm, Waters
Retention time: 15.0 min
Base peak: 466.114
Precursor m/z: 444.1321
Precursor type: [M+H]+
m/z	relative intensity	assigned
56.0494	252	C3H6N+
70.0651	144	C4H8N+
91.0543	14	C7H7+
99.0439	29	C5H7O2+
100.0516	67	C5H8O2+
100.0757	999	C5H10NO+
118.0861	14	C5H12NO2+
119.0496	8	C8H7O+
144.1015	11	C7H14NO2+
191.07	24	C11H11O3+
192.0772	23	C11H12O3+
243.0322	12	C13H8ClN2O+
271.0627	49	C18H9NO2+
283.064	10	C16H12ClN2O+
299.0578	620	C19H9NO3+
327.0527	190	C20H9NO4+
371.0784	187	C22H13NO5+
