Mass spectrum: Molinate; LC-ESI-QFT; MS2; CE: 45; R=35000; [M+H]+
Name: Molinate
Name: S-ethyl azepane-1-carbothioate
Formula: C9H17NOS
Exact mass: 187.10309
SMILES: CCSC(=O)N1CCCCCC1
InChI: InChI=1S/C9H17NOS/c1-2-12-9(11)10-7-5-3-4-6-8-10/h2-8H2,1H3
Instrument: Q Exactive Plus Orbitrap Thermo Scientific
Instrument type: LC-ESI-QFT
Ms type: MS2
Ion mode: POSITIVE
Ionization: ESI
Fragmentation mode: HCD
Collision energy: 45 (nominal)
Resolution: 35000
Column name: XBridge C18 3.5um, 2.1x50mm, Waters
Retention time: 10.5 min
Base peak: 188.11
Precursor m/z: 188.1104
Precursor type: [M+H]+
m/z	relative intensity	assigned
53.0385	4	C4H5+
55.0542	356	C4H7+
56.013	2	C2H2NO+
56.0494	1	C3H6N+
58.0287	1	C2H4NO+
58.0651	1	C3H8N+
69.0698	7	C5H9+
70.0651	55	C4H8N+
81.0699	36	C6H9+
82.0651	1	C5H8N+
83.0855	375	C6H11+
84.0443	1	C4H6NO+
84.0808	14	C5H10N+
89.0055	12	C3H5OS+
97.0648	7	C6H9O+
98.0964	276	C6H12N+
99.1042	2	C6H13N+
100.1121	1	C6H14N+
108.0808	3	C7H10N+
109.0647	2	C7H9O+
126.0913	999	C7H12NO+
128.1434	3	C8H18N+
160.0789	2	C7H14NOS+
160.1154	28	C8H18NS+
188.1104	108	C9H18NOS+
