Mass spectrum: Triallate; LC-ESI-QFT; MS2; CE: 30; R=35000; [M+H]+
Name: Triallate
Name: S-(2,3,3-trichloroprop-2-enyl) N,N-di(propan-2-yl)carbamothioate
Formula: C10H16Cl3NOS
Exact mass: 303.00182
SMILES: CC(C)N(C(C)C)C(=O)SCC(=C(Cl)Cl)Cl
InChI: InChI=1S/C10H16Cl3NOS/c1-6(2)14(7(3)4)10(15)16-5-8(11)9(12)13/h6-7H,5H2,1-4H3
Instrument: Q Exactive Plus Orbitrap Thermo Scientific
Instrument type: LC-ESI-QFT
Ms type: MS2
Ion mode: POSITIVE
Ionization: ESI
Fragmentation mode: HCD
Collision energy: 30 (nominal)
Resolution: 35000
Column name: XBridge C18 3.5um, 2.1x50mm, Waters
Retention time: 15.9 min
Base peak: 279.1584
Precursor m/z: 304.0091
Precursor type: [M+H]+
m/z	relative intensity	assigned
53.0022	7	C3HO+
53.9974	1	C2NO+
58.0651	1	C3H8N+
69.0699	6	C5H9+
71.049	1	C4H7O+
82.9449	4	CHCl2+
86.06	999	C4H8NO+
88.0756	1	C4H10NO+
104.9561	1	C3H2ClS+
111.1168	31	C8H15+
113.0596	1	C6H9O2+
118.0321	4	C4H8NOS+
128.107	205	C7H14NO+
140.9327	114	C3H3Cl2S+
142.9217	396	C3H2Cl3+
159.9482	1	C3H5Cl3N+
160.079	3	C7H14NOS+
161.0868	2	C7H15NOS+
176.9094	21	C3H4Cl3S+
201.9047	10	C4H3Cl3NS+
218.9565	3	C6H10Cl3S+
219.9152	9	C4H5Cl3NOS+
261.9622	175	C7H11Cl3NOS+
304.0091	265	C10H17Cl3NOS+
