Mass spectrum: Noscapine; LC-ESI-QFT; MS2; CE: 45; R=35000; [M+H]+
Name: Noscapine
Name: (-)-Noscapine
Name: 6,7-dimethoxy-3-(4-methoxy-6-methyl-7,8-dihydro-5H-[1,3]dioxol[4,5-g]isoquinolin-5-yl)phthalide
Formula: C22H23NO7
Exact mass: 413.14745
SMILES: CN1CCC2=CC3=C(C(=C2[C@@H]1[C@@H]4C5=C(C(=C(C=C5)OC)OC)C(=O)O4)OC)OCO3
InChI: InChI=1S/C22H23NO7/c1-23-8-7-11-9-14-20(29-10-28-14)21(27-4)15(11)17(23)18-12-5-6-13(25-2)19(26-3)16(12)22(24)30-18/h5-6,9,17-18H,7-8,10H2,1-4H3/t17-,18+/m1/s1
Instrument: Q Exactive Orbitrap Thermo Scientific
Instrument type: LC-ESI-QFT
Ms type: MS2
Ion mode: POSITIVE
Ionization: ESI
Fragmentation mode: HCD
Collision energy: 45 (nominal)
Resolution: 35000
Column name: XBridge C18 3.5um, 2.1x50mm, Waters
Retention time: 5.4 min
Base peak: 414.1545
Precursor m/z: 414.1547
Precursor type: [M+H]+
m/z	relative intensity	assigned
91.0541	4	C7H7+
119.0491	4	C8H7O+
121.0647	14	C8H9O+
133.0644	1	C9H9O+
149.0598	5	C9H9O2+
151.0752	1	C9H11O2+
161.0593	3	C10H9O2+
162.0912	1	C10H12NO+
164.0465	1	C9H8O3+
165.0544	9	C9H9O3+
177.0546	1	C10H9O3+
179.0701	80	C10H11O3+
189.0543	5	C11H9O3+
190.0624	1	C11H10O3+
190.0856	1	C11H12NO2+
191.0572	1	C10H9NO3+
191.0702	5	C11H11O3+
193.0493	10	C10H9O4+
203.0578	2	C11H9NO3+
204.0654	6	C11H10NO3+
205.0732	102	C11H11NO3+
206.081	93	C11H12NO3+
209.0957	1	C15H13O+
217.0496	1	C12H9O4+
218.0717	1	C16H10O+
218.081	19	C12H12NO3+
219.089	20	C12H13NO3+
220.0966	999	C12H14NO3+
221.0962	1	C16H13O+
222.0674	1	C15H10O2+
223.0752	1	C15H11O2+
224.083	1	C15H12O2+
234.0675	4	C16H10O2+
235.075	3	C16H11O2+
237.0543	1	C15H9O3+
237.0911	3	C16H13O2+
239.1061	1	C16H15O2+
246.0673	3	C17H10O2+
247.0753	5	C17H11O2+
249.0544	2	C16H9O3+
249.0908	6	C17H13O2+
250.0625	1	C16H10O3+
251.07	6	C16H11O3+
252.0783	6	C16H12O3+
261.0542	3	C17H9O3+
262.0623	8	C17H10O3+
263.0698	17	C17H11O3+
264.0778	15	C17H12O3+
265.0493	6	C16H9O4+
265.0855	10	C17H13O3+
266.0942	1	C17H14O3+
267.065	1	C16H11O4+
267.1014	6	C17H15O3+
269.1179	1	C17H17O3+
274.0619	6	C18H10O3+
275.0703	6	C18H11O3+
276.0423	1	C17H8O4+
276.0783	14	C18H12O3+
277.05	5	C17H9O4+
277.0857	13	C18H13O3+
278.0576	1	C17H10O4+
278.0934	3	C18H14O3+
279.0653	11	C17H11O4+
279.1017	5	C18H15O3+
280.0729	47	C17H12O4+
281.081	7	C17H13O4+
282.0886	4	C17H14O4+
289.0495	3	C18H9O4+
290.057	4	C18H10O4+
291.0649	17	C18H11O4+
292.0726	22	C18H12O4+
293.0441	3	C17H9O5+
293.0806	17	C18H13O4+
294.0884	11	C18H14O4+
295.0605	10	C17H11O5+
295.0962	68	C18H15O4+
296.104	4	C18H16O4+
297.0753	4	C17H13O5+
297.1117	3	C18H17O4+
302.0572	7	C19H10O4+
303.0653	7	C19H11O4+
304.0729	11	C19H12O4+
305.0449	2	C18H9O5+
305.0803	22	C19H13O4+
306.0519	22	C18H10O5+
306.0886	4	C19H14O4+
307.0597	39	C18H11O5+
307.0962	18	C19H15O4+
308.0675	18	C18H12O5+
308.1041	4	C19H16O4+
309.0755	20	C18H13O5+
310.0832	32	C18H14O5+
311.0913	3	C18H15O5+
312.0987	10	C18H16O5+
313.1068	1	C18H17O5+
317.0446	1	C19H9O5+
319.0599	18	C19H11O5+
320.0675	9	C19H12O5+
321.0756	18	C19H13O5+
322.0835	52	C19H14O5+
323.0569	12	
323.0912	149	C19H15O5+
324.0988	20	C19H16O5+
325.1067	56	C19H17O5+
327.122	5	C19H19O5+
332.0677	10	C20H12O5+
333.0753	1	C20H13O5+
334.0835	35	C20H14O5+
334.1058	2	C17H18O7+
335.0549	16	C19H11O6+
335.0905	8	C20H15O5+
337.0706	17	C19H13O6+
337.1068	3	C20H17O5+
338.0784	34	C19H14O6+
338.1008	3	C19H16NO5+
340.0935	1	C19H16O6+
348.0862	3	C20H14NO5+
349.0712	1	C20H13O6+
349.1075	1	C21H17O5+
350.0784	59	C20H14O6+
350.0997	3	C17H18O8+
352.0936	18	C20H16O6+
352.1178	13	C20H18NO5+
353.1016	172	C20H17O6+
355.1175	3	C20H19O6+
363.1098	1	C21H17NO5+
365.1025	20	C21H17O6+
366.0971	28	C20H16NO6+
378.1327	1	C22H20NO5+
380.113	1	C21H18NO6+
381.1202	14	C21H19NO6+
383.113	1	C21H19O7+
396.1436	3	C22H22NO6+
414.1547	1	C22H24NO7+
