Mass spectrum: Mianserin-N-Oxide; LC-ESI-QFT; MS2; CE: 60; R=35000; [M-H]-
Name: Mianserin-N-Oxide
Name: 1,2,3,4,10,14b-Hexahydro-2-methyldibenzo(c,f)pyrazino(1,2-a)azepine 2-oxide
Formula: C18H20N2O
Exact mass: 280.15756
SMILES: C[N+]1(CCN2c3ccccc3Cc4ccccc4C2C1)[O-]
InChI: InChI=1S/C18H20N2O/c1-20(21)11-10-19-17-9-5-3-7-15(17)12-14-6-2-4-8-16(14)18(19)13-20/h2-9,18H,10-13H2,1H3
Instrument: Q Exactive Plus Orbitrap Thermo Scientific
Instrument type: LC-ESI-QFT
Ms type: MS2
Ion mode: NEGATIVE
Ionization: ESI
Fragmentation mode: HCD
Collision energy: 60 (nominal)
Resolution: 35000
Column name: XBridge C18 3.5um, 2.1x50mm, Waters
Retention time: 14.1 min
Base peak: 277.1441
Precursor m/z: 279.1503
Precursor type: [M-H]-
m/z	relative intensity	assigned
71.0503	18	C4H7O-
75.0241	534	C6H3-
76.0275	267	CH4N2O2-
93.0345	266	C6H5O-
103.0188	82	C7H3O-
107.0502	22	C7H7O-
119.0139	67	C7H3O2-
121.0294	999	C7H5O2-
125.0971	66	C8H13O-
127.1128	951	C8H15O-
134.0373	431	C8H6O2-
