Mass spectrum: Phenmedipham; LC-ESI-ITFT; MS2; CE: 30%; R=15000; [M+H]+
Name: Phenmedipham
Name: 3-[(methoxycarbonyl)amino]phenyl (3-methylphenyl)carbamate
Formula: C16H16N2O4
Exact mass: 300.1116
SMILES: c1c(OC(Nc2cc(ccc2)C)=O)cccc1NC(OC)=O
InChI: InChI=1S/C16H16N2O4/c1-11-5-3-6-12(9-11)18-16(20)22-14-8-4-7-13(10-14)17-15(19)21-2/h3-10H,1-2H3,(H,17,19)(H,18,20)
Instrument: LTQ Orbitrap XL Thermo Scientific
Instrument type: LC-ESI-ITFT
Ms type: MS2
Ion mode: POSITIVE
Ionization: ESI
Fragmentation mode: HCD
Collision energy: 30 % (nominal)
Resolution: 15000
Column name: XBridge C18 3.5um, 2.1x50mm, Waters
Retention time: 9.5 min
Base peak: 323.1005
Precursor m/z: 301.1183
Precursor type: [M+H]+
m/z	relative intensity	assigned
108.0443	34	C6H6NO+
136.0393	999	C7H6NO2+
168.0655	400	C8H10NO3+
