Mass spectrum: Aspartame; LC-ESI-ITFT; MS2; CE: 90%; R=7500; [M+H]+
Name: Aspartame
Name: 3-amino-4-[(1-benzyl-2-keto-2-methoxy-ethyl)amino]-4-keto-butyric acid
Formula: C14H18N2O5
Exact mass: 294.1216
SMILES: COC(=O)C(CC1=CC=CC=C1)NC(=O)C(CC(=O)O)N
InChI: InChI=1S/C14H18N2O5/c1-21-14(20)11(7-9-5-3-2-4-6-9)16-13(19)10(15)8-12(17)18/h2-6,10-11H,7-8,15H2,1H3,(H,16,19)(H,17,18)/t10-,11-/m0/s1
Instrument: LTQ Orbitrap XL Thermo Scientific
Instrument type: LC-ESI-ITFT
Ms type: MS2
Ion mode: POSITIVE
Ionization: ESI
Fragmentation mode: HCD
Collision energy: 90 % (nominal)
Resolution: 7500
Column name: XBridge C18 3.5um, 2.1x50mm, Waters
Retention time: 4.8 min
Base peak: 295.1297
Precursor m/z: 295.1288
Precursor type: [M+H]+
m/z	relative intensity	assigned
70.0288	46	C3H4NO+
77.0386	13	C6H5+
88.0394	58	C3H6NO2+
91.0543	201	C7H7+
93.0699	48	C7H9+
98.0236	5	C4H4NO2+
103.0544	324	C8H7+
104.0496	4	C7H6N+
105.0445	3	C6H5N2+
117.0699	8	C9H9+
118.0657	5	C8H8N+
120.081	999	C8H10N+
121.0649	90	C8H9O+
128.0625	5	C10H8+
129.07	11	C10H9+
130.0652	58	C9H8N+
135.0804	6	C9H11O+
144.0808	26	C10H10N+
146.0597	5	C9H8NO+
154.0652	22	C11H8N+
155.0598	7	C10H7N2+
172.0765	4	C11H10NO+
182.06	9	C12H8NO+
