Mass spectrum: Alanycarb; LC-ESI-QFT; MS2; CE: 30; R=35000; [M+H]+
Name: Alanycarb
Name: 5-Oxa-2,8-dithia-4,7,9-triazadodec-3-en-12-oic acid, 3,7-dimethyl-6-oxo-9-(phenylmethyl)-, ethyl ester, (Z)-
Name: 3-[[[methyl-[[(Z)-1-(methylthio)ethylideneamino]oxy-oxomethyl]amino]thio]-(phenylmethyl)amino]propanoic acid ethyl ester
Formula: C17H25N3O4S2
Exact mass: 399.12865
SMILES: O=C(OCC)CCN(SN(C(=O)O\N=C(/SC)C)C)Cc1ccccc1
InChI: InChI=1S/C17H25N3O4S2/c1-5-23-16(21)11-12-20(13-15-9-7-6-8-10-15)26-19(3)17(22)24-18-14(2)25-4/h6-10H,5,11-13H2,1-4H3/b18-14-
Instrument: Q Exactive Orbitrap Thermo Scientific
Instrument type: LC-ESI-QFT
Ms type: MS2
Ion mode: POSITIVE
Ionization: ESI
Fragmentation mode: HCD
Collision energy: 30 (nominal)
Resolution: 35000
Column name: XBridge C18 3.5um, 2.1x50mm, Waters
Retention time: 12.8 min
Base peak: 238.0897
Precursor m/z: 400.1359
Precursor type: [M+H]+
m/z	relative intensity	assigned
55.0179	1	C3H3O+
59.9902	6	CH2NS+
62.006	1	CH4NS+
65.0057	1	CH5OS+
65.0386	6	C5H5+
73.0284	152	C3H5O2+
74.0601	1	C3H8NO+
78.9671	4	CH3S2+
88.0216	15	C3H6NS+
91.0542	999	C7H7+
94.962	11	CH3OS2+
101.0597	215	C5H9O2+
102.0009	3	C3H4NOS+
104.0495	4	C7H6N+
106.0322	8	C3H8NOS+
106.0652	9	C7H8N+
107.9937	11	C2H6NS2+
109.0105	1	C6H5S+
111.0262	4	C6H7S+
115.0542	4	C9H7+
116.0706	21	C5H10NO2+
117.0698	9	C9H9+
118.0648	3	C8H8N+
120.0809	11	C8H10N+
121.0104	1	C7H5S+
122.0181	1	C7H6S+
123.0262	297	C7H7S+
130.0652	1	C9H8N+
135.0261	3	C8H7S+
135.0805	1	C9H11O+
135.9886	5	C3H6NOS2+
136.0218	3	C7H6NS+
137.029	1	C7H7NS+
137.0421	4	C8H9S+
138.0372	692	C7H8NS+
145.1014	3	C11H13+
147.0264	1	C9H7S+
149.0421	2	C9H9S+
150.0373	609	C8H8NS+
159.0679	7	C10H9NO+
160.0758	3	C10H10NO+
163.0209	1	C9H7OS+
164.0529	44	C9H10NS+
189.0915	1	C12H13O2+
192.0478	122	C10H10NOS+
206.1177	26	C12H16NO2+
208.1333	23	C12H18NO2+
209.0632	5	C11H13O2S+
210.0587	2	C10H12NO2S+
238.0897	161	C12H16NO2S+
