Mass spectrum: Nordiazepam; LC-ESI-QFT; MS2; CE: 45; R=35000; [M+H]+
Name: Nordiazepam
Name: Nordazepam (1-Demethyldiazepam)
Name: 7-chloro-5-phenyl-1,3-dihydro-1,4-benzodiazepin-2-one
Formula: C15H11ClN2O
Exact mass: 270.05599
SMILES: C1C(=O)NC2=C(C=C(C=C2)Cl)C(=N1)C3=CC=CC=C3
InChI: InChI=1S/C15H11ClN2O/c16-11-6-7-13-12(8-11)15(17-9-14(19)18-13)10-4-2-1-3-5-10/h1-8H,9H2,(H,18,19)
Instrument: Q Exactive Plus Orbitrap Thermo Scientific
Instrument type: LC-ESI-QFT
Ms type: MS2
Ion mode: POSITIVE
Ionization: ESI
Fragmentation mode: HCD
Collision energy: 45 (nominal)
Resolution: 35000
Column name: XBridge C18 3.5um, 2.1x50mm, Waters
Retention time: 9.3 min
Base peak: 271.0623
Precursor m/z: 271.0633
Precursor type: [M+H]+
m/z	relative intensity	assigned
91.0541	57	C7H7+
104.0491	5	C7H6N+
105.0334	12	C7H5O+
106.065	5	C7H8N+
116.0493	8	C8H6N+
117.0572	2	C8H7N+
118.0649	6	C8H8N+
133.052	4	C8H7NO+
140.026	269	C7H7ClN+
144.0442	6	C9H6NO+
150.0103	4	C8H5ClN+
158.0473	17	C9H6N2O+
165.0213	152	C8H6ClN2+
166.0052	17	C8H5ClNO+
168.0209	20	C8H7ClNO+
180.0802	1	C13H10N+
181.0886	2	C13H11N+
190.0645	1	C14H8N+
191.0726	3	C14H9N+
193.0161	25	C9H6ClN2O+
193.0884	12	C14H11N+
199.031	1	C13H8Cl+
206.0834	3	C14H10N2+
207.0677	3	C14H9NO+
207.0915	13	C14H11N2+
208.0994	136	C14H12N2+
209.0827	1	C14H11NO+
214.0416	13	C13H9ClN+
216.0573	7	C13H11ClN+
217.0758	2	C15H9N2+
218.0836	7	C15H10N2+
219.0675	4	C15H9NO+
226.0416	59	C14H9ClN+
227.0491	5	C14H10ClN+
228.0571	3	C14H11ClN+
235.0865	3	C15H11N2O+
236.0943	4	C15H12N2O+
241.0526	5	C14H10ClN2+
242.0364	1	C14H9ClNO+
242.0602	22	C14H11ClN2+
243.0682	158	C14H12ClN2+
253.0524	9	C15H10ClN2+
271.0629	999	C15H12ClN2O+
