Mass spectrum: Celiprolol; LC-ESI-QFT; MS2; CE: 30; R=35000; [M-H]-
Name: Celiprolol
Name: 3-[3-acetyl-4-[3-(tert-butylamino)-2-hydroxy-propoxy]phenyl]-1,1-diethyl-urea
Formula: C20H33N3O4
Exact mass: 379.24711
SMILES: CCN(CC)C(=O)NC1=CC(=C(C=C1)OCC(CNC(C)(C)C)O)C(=O)C
InChI: InChI=1S/C20H33N3O4/c1-7-23(8-2)19(26)22-15-9-10-18(17(11-15)14(3)24)27-13-16(25)12-21-20(4,5)6/h9-11,16,21,25H,7-8,12-13H2,1-6H3,(H,22,26)
Instrument: Q Exactive Orbitrap Thermo Scientific
Instrument type: LC-ESI-QFT
Ms type: MS2
Ion mode: NEGATIVE
Ionization: ESI
Fragmentation mode: HCD
Collision energy: 30 (nominal)
Resolution: 35000
Column name: XBridge C18 3.5um, 2.1x50mm, Waters
Retention time: 5.5 min
Base peak: 378.2399
Precursor m/z: 378.2398
Precursor type: [M-H]-
m/z	relative intensity	assigned
118.0296	1	C7H4NO-
134.0248	1	C7H4NO2-
149.048	12	C8H7NO2-
160.0397	4	C9H6NO2-
161.0608	34	C10H9O2-
164.0719	2	C9H10NO2-
176.0352	146	C9H6NO3-
176.0715	212	C10H10NO2-
190.051	9	C10H8NO3-
190.0874	124	C11H12NO2-
204.1029	78	C12H14NO2-
205.1104	4	C12H15NO2-
219.0774	924	C11H11N2O3-
221.093	5	C11H13N2O3-
247.1089	13	C13H15N2O3-
248.1165	999	C13H16N2O3-
263.1037	8	C13H15N2O4-
263.14	25	C14H19N2O3-
279.1707	3	C15H23N2O3-
305.15	1	C16H21N2O4-
378.2396	76	C20H32N3O4-
