Mass spectrum: Pipemidic acid; LC-ESI-QFT; MS2; CE: 30; R=35000; [M+H]+
Name: Pipemidic acid
Name: 5,8-Dihydro-8-ethyl-5-oxo-2-(1-piperazinyl)pyrido(2,3-d)pyrimidine-6-carboxylic acid
Name: 8-ethyl-5-keto-2-piperazin-4-ium-1-yl-pyrido[2,3-d]pyrimidine-6-carboxylate
Formula: C14H17N5O3
Exact mass: 303.13314
SMILES: O=C(O)\C2=C\N(c1nc(ncc1C2=O)N3CCNCC3)CC
InChI: InChI=1S/C14H17N5O3/c1-2-18-8-10(13(21)22)11(20)9-7-16-14(17-12(9)18)19-5-3-15-4-6-19/h7-8,15H,2-6H2,1H3,(H,21,22)
Instrument: Q Exactive Orbitrap Thermo Scientific
Instrument type: LC-ESI-QFT
Ms type: MS2
Ion mode: POSITIVE
Ionization: ESI
Fragmentation mode: HCD
Collision energy: 30 (nominal)
Resolution: 35000
Column name: XBridge C18 3.5um, 2.1x50mm, Waters
Retention time: 3.6 min
Base peak: 304.1405
Precursor m/z: 304.1404
Precursor type: [M+H]+
m/z	relative intensity	assigned
70.0651	11	C4H8N+
176.0818	1	C9H10N3O+
189.0772	11	C9H9N4O+
190.0974	1	C10H12N3O+
191.0927	14	C9H11N4O+
215.0929	1	C11H11N4O+
217.1085	561	C11H13N4O+
233.0672	1	C10H9N4O3+
235.083	1	C10H11N4O3+
243.1241	31	C13H15N4O+
258.1352	1	C13H16N5O+
260.1507	81	C13H18N5O+
261.0983	81	C12H13N4O3+
286.1291	14	C14H16N5O2+
304.1404	999	C14H18N5O3+
306.1442	1	C13H18N6O3+
