Mass spectrum: Norsertraline; LC-ESI-QFT; MS2; CE: 120; R=35000; [M+H]+
Name: Norsertraline
Name: 1-Naphthalenamine, 4-(3,4-dichlorophenyl)-1,2,3,4-tetrahydro-
Name: 4-(3,4-dichlorophenyl)-1,2,3,4-tetrahydronaphthalen-1-amine
Formula: C16H15Cl2N
Exact mass: 291.05815
SMILES: C1CC(C2=CC=CC=C2C1C3=CC(=C(C=C3)Cl)Cl)N
InChI: InChI=1S/C16H15Cl2N/c17-14-7-5-10(9-15(14)18)11-6-8-16(19)13-4-2-1-3-12(11)13/h1-5,7,9,11,16H,6,8,19H2
Instrument: Q Exactive Plus Orbitrap Thermo Scientific
Instrument type: LC-ESI-QFT
Ms type: MS2
Ion mode: POSITIVE
Ionization: ESI
Fragmentation mode: HCD
Collision energy: 120 (nominal)
Resolution: 35000
Column name: XBridge C18 3.5um, 2.1x50mm, Waters
Retention time: 9.6 min
Base peak: 275.0379
Precursor m/z: 292.0654
Precursor type: [M+H]+
m/z	relative intensity	assigned
51.0229	4	C4H3+
53.0385	3	C4H5+
62.015	13	C5H2+
63.0228	75	C5H3+
65.0385	36	C5H5+
72.9838	247	C3H2Cl+
74.9995	14	C3H4Cl+
77.0384	8	C6H5+
78.0463	2	C6H6+
82.9449	15	CHCl2+
87.0228	11	C7H3+
88.0306	46	C7H4+
89.0384	824	C7H5+
91.0542	71	C7H7+
95.049	15	C6H7O+
96.9839	100	C5H2Cl+
98.9995	323	C5H4Cl+
102.0463	16	C8H6+
103.0541	15	C8H7+
105.0445	5	C6H5N2+
106.9448	3	C3HCl2+
108.9606	3	C3H3Cl2+
115.0541	42	C9H7+
122.9994	999	C7H4Cl+
124.0073	269	C7H5Cl+
125.0152	17	C7H6Cl+
126.0462	24	C10H6+
127.054	57	C10H7+
128.0619	436	C10H8+
129.0696	26	C10H9+
132.9605	187	C5H3Cl2+
145.0646	39	C7H12ClN+
155.0602	87	C10H7N2+
158.9761	447	C7H5Cl2+
162.0229	15	C10H7Cl+
176.0618	9	C14H8+
178.0773	10	C14H10+
189.0697	51	C15H9+
190.0778	5	C15H10+
199.0306	4	C13H8Cl+
202.0776	27	C16H10+
203.0855	21	C16H11+
204.0932	10	C16H12+
225.0463	3	C15H10Cl+
