Mass spectrum: Iprodione; LC-ESI-QFT; MS2; CE: 45; R=35000; [M+H]+
Name: Iprodione
Name: 3-(3,5-dichlorophenyl)-2,4-dioxo-N-propan-2-yl-1-imidazolidinecarboxamide
Formula: C13H13Cl2N3O3
Exact mass: 329.03340
SMILES: O=C2N(c1cc(Cl)cc(Cl)c1)C(=O)CN2C(=O)NC(C)C
InChI: InChI=1S/C13H13Cl2N3O3/c1-7(2)16-12(20)17-6-11(19)18(13(17)21)10-4-8(14)3-9(15)5-10/h3-5,7H,6H2,1-2H3,(H,16,20)
Instrument: Q Exactive Orbitrap Thermo Scientific
Instrument type: LC-ESI-QFT
Ms type: MS2
Ion mode: POSITIVE
Ionization: ESI
Fragmentation mode: HCD
Collision energy: 45 (nominal)
Resolution: 35000
Column name: XBridge C18 3.5um, 2.1x50mm, Waters
Retention time: 12.3 min
Base peak: 330.0406
Precursor m/z: 330.0407
Precursor type: [M+H]+
m/z	relative intensity	assigned
56.0131	243	C2H2NO+
58.0287	1	C2H4NO+
74.0236	35	C2H4NO2+
86.06	2	C4H8NO+
98.9842	132	CH4ClO3+
139.0182	2	C7H6ClN+
144.9601	2	C6H3Cl2+
152.9974	5	C7H4ClNO+
159.9714	1	C6H4Cl2N+
160.9793	9	C6H5Cl2N+
161.9872	357	C6H6Cl2N+
166.0292	64	C8H7ClN2+
167.0132	34	C8H6ClNO+
171.9715	141	C10HClO+
173.9872	276	C7H6Cl2N+
187.9664	246	C7H4Cl2NO+
191.9977	6	C7H8Cl2NO+
198.9823	1	C8H5Cl2N2+
199.9663	16	C8H4Cl2NO+
201.982	44	C8H6Cl2NO+
213.9456	1	C8H2Cl2NO2+
216.993	238	C8H7Cl2N2O+
226.9773	34	C9H5Cl2N2O+
244.988	999	C9H7Cl2N2O2+
262.9979	1	C9H9Cl2N2O3+
287.994	4	C10H8Cl2N3O3+
