Mass spectrum: Chloridazone-methyl-desphenyl; LC-ESI-ITFT; MS2; CE: 60%; R=15000; [M+H]+
Name: Chloridazone-methyl-desphenyl
Name: 1-Methyl-4-amino-5-chloro-6-oxo-(1H)-pyridazine
Name: 5-amino-4-chloro-2-methyl-3-pyridazinone
Formula: C5H6ClN3O
Exact mass: 159.0199
SMILES: ClC(=C(C=N1)N)C(=O)N1C
InChI: InChI=1S/C5H6ClN3O/c1-9-5(10)4(6)3(7)2-8-9/h2H,7H2,1H3
Instrument: LTQ Orbitrap XL Thermo Scientific
Instrument type: LC-ESI-ITFT
Ms type: MS2
Ion mode: POSITIVE
Ionization: ESI
Fragmentation mode: HCD
Collision energy: 60 % (nominal)
Resolution: 15000
Column name: XBridge C18 3.5um, 2.1x50mm, Waters
Retention time: 2.2 min
Base peak: 160.0271
Precursor m/z: 160.0272
Precursor type: [M+H]+
m/z	relative intensity	assigned
68.0495	1	C4H6N+
69.0448	1	C3H5N2+
75.9949	2	C2H3ClN+
86.9996	1	C4H4Cl+
87.9949	8	C3H3ClN+
97.0635	1	C4H7N3+
103.9898	1	C3H3ClNO+
115.9898	2	C4H3ClNO+
116.9977	26	C4H4ClNO+
124.0507	4	C5H6N3O+
128.985	1	C4H2ClN2O+
130.0055	16	C5H5ClNO+
131.0008	5	C4H4ClN2O+
131.0133	7	C5H6ClNO+
132.0085	2	C4H5ClN2O+
133.0164	1	C4H6ClN2O+
145.0038	6	C4H4ClN3O+
158.0119	1	C5H5ClN3O+
160.0273	999	C5H7ClN3O+
