Mass spectrum: Nystatin; LC-ESI-QFT; MS2; CE: 15; R=35000; [M+H]+
Name: Nystatin
Name: (1S,3R,4R,7R,9R,11R,15S,16R,17R,18S,19E,21E,25E,27E,29E,31E,33R,35S,36R,37S)-33-[(3-Amino-3,6-dideoxy-?-D-mannopyranosyl)oxy]-1,3,4,7,9,11,17,37-octahydroxy-15,16,18-trimethyl-13-oxo-14,39-dioxabic yclo[33.3.1]nonatriaconta-19,21,25,27,29,31-hexaene-36-carboxylic acid
Formula: C47H75NO17
Exact mass: 925.50350
SMILES: CC1C=CC=CCCC=CC=CC=CC=CC(CC2C(C(CC(O2)(CC(C(CCC(CC(CC(CC(=O)OC(C(C1O)C)C)O)O)O)O)O)O)O)C(=O)O)OC3C(C(C(C(O3)C)O)N)O
InChI: InChI=1S/C47H75NO17/c1-27-17-15-13-11-9-7-5-6-8-10-12-14-16-18-34(64-46-44(58)41(48)43(57)30(4)63-46)24-38-40(45(59)60)37(54)26-47(61,65-38)25-36(53)35(52)20-19-31(49)21-32(50)22-33(51)23-39(55)62-29(3)28(2)42(27)56/h5-6,8,10-18,27-38,40-44,46,49-54,56-58,61H,7,9,19-26,48H2,1-4H3,(H,59,60)/b6-5+,10-8+,13-11+,14-12+,17-15+,18-16+/t27-,28-,29-,30+,31+,32+,33+,34-,35+,36+,37-,38-,40+,41-,42+,43+,44-,46-,47+/m0/s1
Instrument: Q Exactive Orbitrap Thermo Scientific
Instrument type: LC-ESI-QFT
Ms type: MS2
Ion mode: POSITIVE
Ionization: ESI
Fragmentation mode: HCD
Collision energy: 15 (nominal)
Resolution: 35000
Column name: XBridge C18 3.5um, 2.1x50mm, Waters
Retention time: 11.6 min
Base peak: 926.5109
Precursor m/z: 926.5108
Precursor type: [M+H]+
m/z	relative intensity	assigned
67.0542	9	C5H7+
69.0332	2	C4H5O+
69.0698	6	C5H9+
71.0124	1	C3H3O2+
71.049	19	C4H7O+
79.0541	11	C6H7+
81.0334	15	C5H5O+
81.0697	14	C6H9+
83.049	3	C5H7O+
83.0855	2	C6H11+
85.0284	2	C4H5O2+
85.0647	7	C5H9O+
91.054	17	C7H7+
93.0698	29	C7H9+
95.0126	2	C5H3O2+
95.049	15	C6H7O+
95.0855	23	C7H11+
97.0282	3	C5H5O2+
97.0646	9	C6H9O+
97.101	11	C7H13+
99.0439	9	C5H7O2+
105.0699	22	C8H9+
107.049	3	C7H7O+
107.0855	50	C8H11+
109.0647	6	C7H9O+
109.1011	82	C8H13+
110.1046	2	C3H14N2O2+
111.0439	2	C6H7O2+
111.0803	17	C7H11O+
113.023	1	C5H5O3+
113.0595	8	C6H9O2+
113.096	31	C7H13O+
117.0697	23	C9H9+
119.0854	35	C9H11+
121.0647	9	C8H9O+
121.1011	48	C9H13+
123.0439	9	C7H7O2+
123.0802	17	C8H11O+
123.1167	37	C9H15+
125.0594	6	C7H9O2+
125.096	109	C8H13O+
127.0752	2	C7H11O2+
129.0544	7	C6H9O3+
129.0697	13	C10H9+
131.0855	32	C10H11+
133.0645	10	C9H9O+
133.1012	31	C10H13+
135.0803	15	C9H11O+
135.1167	78	C10H15+
136.12	1	C5H16N2O2+
137.0596	3	C8H9O2+
137.0959	10	C9H13O+
137.1324	6	C10H17+
139.0387	8	C7H7O3+
139.0753	14	C8H11O2+
139.1115	12	C9H15O+
141.0545	13	C7H9O3+
141.0696	5	C11H9+
141.0907	2	C8H13O2+
143.0855	14	C11H11+
145.0647	6	C10H9O+
145.1012	32	C11H13+
146.0815	1	C6H12NO3+
147.0441	2	C9H7O2+
147.0805	7	C10H11O+
147.1168	29	C11H15+
148.1199	2	C6H16N2O2+
149.0596	2	C9H9O2+
149.0961	10	C10H13O+
149.1325	11	C11H17+
151.0754	16	C9H11O2+
151.1117	104	C10H15O+
152.1148	2	C5H16N2O3+
153.0908	13	C9H13O2+
153.1272	2	C10H17O+
155.0701	14	C8H11O3+
155.0855	15	C12H11+
157.0648	2	C11H9O+
157.0859	3	C8H13O3+
157.1011	20	C12H13+
159.065	7	C7H11O4+
159.0802	6	C11H11O+
159.1168	34	C12H15+
161.1324	73	C12H17+
162.1358	1	C7H18N2O2+
163.0753	16	C10H11O2+
163.1115	7	C11H15O+
163.1482	5	C12H19+
165.0547	1	C9H9O3+
165.0912	11	C10H13O2+
165.1271	1	C11H17O+
167.0702	32	C9H11O3+
167.0852	7	C13H11+
169.0858	14	C9H13O3+
169.1011	18	C13H13+
171.0797	2	C12H11O+
171.1166	25	C13H15+
173.0959	9	C12H13O+
173.1325	37	C13H17+
175.0754	13	C11H11O2+
175.1115	3	C12H15O+
175.1481	28	C13H19+
177.0907	7	C11H13O2+
177.1273	9	C12H17O+
177.1633	1	C13H21+
179.0705	16	C10H11O3+
179.085	4	C14H11+
179.1431	19	C12H19O+
181.0857	37	C10H13O3+
181.1011	11	C14H13+
183.0799	2	C13H11O+
183.1015	2	C10H15O3+
183.1167	17	C14H15+
184.1212	1	C9H16N2O2+
185.0594	1	C12H9O2+
185.0808	10	C9H13O4+
185.0959	5	C13H13O+
185.1325	33	C14H17+
187.0758	5	C12H11O2+
187.111	2	C13H15O+
187.1481	25	C14H19+
189.0908	13	C12H13O2+
189.1273	2	C13H17O+
189.1635	10	C14H21+
191.0701	6	C11H11O3+
191.1066	14	C12H15O2+
193.0861	20	C11H13O3+
193.1008	2	C15H13+
195.0654	3	C10H11O4+
195.1016	7	C11H15O3+
195.1168	17	C15H15+
197.0807	46	C10H13O4+
197.0954	3	C14H13O+
197.1326	22	C15H17+
199.075	5	C13H11O2+
199.0965	48	C10H15O4+
199.1109	10	C14H15O+
199.148	42	C15H19+
201.0907	13	C13H13O2+
201.1272	6	C14H17O+
201.1637	33	C15H21+
203.1064	3	C13H15O2+
203.1429	8	C14H19O+
203.1795	8	C15H23+
205.0861	7	C12H13O3+
205.1012	1	C16H13+
207.0643	1	C11H11O4+
207.0799	1	C15H11O+
207.1017	24	C12H15O3+
207.1169	11	C16H15+
209.0809	15	C11H13O4+
209.0959	2	C15H13O+
209.117	2	C12H17O3+
209.1325	14	C16H17+
211.0752	1	C14H11O2+
211.0964	20	C11H15O4+
211.112	2	C15H15O+
211.148	21	C16H19+
213.0912	6	C14H13O2+
213.1273	9	C15H17O+
213.1638	43	C16H21+
215.0916	29	C10H15O5+
215.1068	12	C14H15O2+
215.1431	6	C15H19O+
215.1794	22	C16H23+
217.0864	12	C13H13O3+
217.1221	2	C14H17O2+
217.1585	21	C15H21O+
219.1014	11	C13H15O3+
219.1172	7	C17H15+
221.0798	1	C12H13O4+
221.0963	2	C16H13O+
221.1326	13	C17H17+
223.0964	2	C12H15O4+
223.1116	7	C16H15O+
223.1485	13	C17H19+
224.1513	1	C12H20N2O2+
225.0908	3	C15H13O2+
225.1121	58	C12H17O4+
225.1267	6	C16H17O+
225.1638	27	C17H21+
226.1155	3	C7H18N2O6+
227.1065	5	C15H15O2+
227.1279	8	C12H19O4+
227.1794	28	C17H23+
229.1071	38	
229.1227	2	C15H17O2+
229.1584	6	C16H21O+
229.1949	4	C17H25+
231.1012	9	C14H15O3+
231.1743	22	C16H23O+
233.1172	14	C14H17O3+
233.1321	8	C18H17+
235.0965	16	C13H15O4+
235.1334	1	C14H19O3+
235.1476	11	C18H19+
237.1119	10	C13H17O4+
237.1276	7	C17H17O+
237.1637	19	C18H21+
239.1065	1	C16H15O2+
239.1434	2	C17H19O+
239.1794	28	C18H23+
241.0861	1	C15H13O3+
241.1221	7	C16H17O2+
241.1587	7	C17H21O+
241.1952	23	C18H25+
243.1016	12	C15H15O3+
243.1745	13	C17H23O+
245.1175	7	C15H17O3+
245.1325	2	C19H17+
247.0968	2	C14H15O4+
247.1479	7	C19H19+
249.0914	1	C17H13O2+
249.1124	8	C14H17O4+
249.1273	6	C18H17O+
249.1638	12	C19H21+
251.1069	2	C17H15O2+
251.1278	25	C14H19O4+
251.1795	20	C19H23+
253.1069	35	C13H17O5+
253.1219	6	C17H17O2+
253.1587	2	C18H21O+
253.195	16	C19H25+
255.1019	3	C16H15O3+
255.1226	20	C13H19O5+
255.1741	8	C18H23O+
257.117	6	C16H17O3+
257.1539	1	C17H21O2+
257.1899	13	C18H25O+
259.0971	1	C15H15O4+
259.1328	4	C16H19O3+
259.1478	2	C20H19+
261.1121	24	C15H17O4+
261.1636	8	C20H21+
263.1067	1	C18H15O2+
263.1279	7	C15H19O4+
263.1421	3	C19H19O+
263.1789	12	C20H23+
265.1222	6	C18H17O2+
265.1585	6	C19H21O+
265.1954	19	C20H25+
267.1014	7	C17H15O3+
267.1229	16	C14H19O5+
267.1381	9	C18H19O2+
267.1744	9	C19H23O+
267.2107	18	C20H27+
269.1167	7	C17H17O3+
269.1385	94	C14H21O5+
269.1902	20	C19H25O+
271.1331	6	C17H19O3+
271.1478	2	C21H19+
273.1484	4	C17H21O3+
273.1629	4	C21H21+
275.128	12	C16H19O4+
275.1422	3	C20H19O+
275.1793	6	C21H23+
277.1071	7	C15H17O5+
277.1222	5	C19H17O2+
277.1585	2	C20H21O+
277.195	6	C21H25+
279.1228	175	C15H19O5+
279.1381	9	C19H19O2+
280.1257	11	C22H16+
281.117	5	C18H17O3+
281.1539	9	C19H21O2+
281.1904	7	C20H25O+
283.1325	6	C18H19O3+
283.1694	2	C19H23O2+
283.2057	16	C20H27O+
285.112	16	C17H17O4+
285.1485	2	C18H21O3+
285.1634	2	C22H21+
286.1153	2	C12H18N2O6+
287.1282	7	C17H19O4+
289.1072	3	C16H17O5+
289.1438	7	C17H21O4+
289.1585	3	C21H21O+
289.1953	7	C22H25+
291.1383	6	C20H19O2+
291.1745	3	C21H23O+
291.2105	20	C22H27+
293.1176	2	C19H17O3+
293.1379	5	C16H21O5+
293.1538	7	C20H21O2+
293.1897	3	C21H25O+
293.2264	10	C22H29+
295.1174	10	C15H19O6+
295.1332	6	C19H19O3+
295.1695	1	C20H23O2+
295.206	3	C21H27O+
297.1333	773	C15H21O6+
298.1367	44	C10H22N2O8+
299.1285	2	C18H19O4+
299.1791	2	C23H23+
301.1068	5	C17H17O5+
301.1428	5	C18H21O4+
301.1602	6	C22H21O+
303.1226	55	C17H19O5+
303.1374	4	C21H19O2+
303.1745	3	C22H23O+
305.1378	7	C17H21O5+
305.1536	8	C21H21O2+
305.1908	3	C22H25O+
305.2261	2	C23H29+
307.1334	2	C20H19O3+
307.1691	5	C21H23O2+
307.2054	5	C22H27O+
309.1487	9	C20H21O3+
309.1849	6	C21H25O2+
309.2213	17	C22H29O+
311.1269	2	C19H19O4+
311.1646	6	C20H23O3+
311.2002	2	C21H27O2+
311.2372	7	C22H31O+
313.1439	6	C19H21O4+
313.1962	2	C24H25+
315.1438	265	
317.1375	7	C18H21O5+
317.1906	2	C23H25O+
317.2262	14	C24H29+
319.1171	25	C17H19O6+
319.1329	2	C21H19O3+
319.1697	7	C22H23O2+
319.2418	2	C24H31+
321.1332	269	C17H21O6+
323.128	2	C20H19O4+
323.1645	5	C21H23O3+
323.2006	1	C22H27O2+
325.1434	3	C20H21O4+
327.1589	7	C20H23O4+
327.1755	1	C24H23O+
329.1381	8	C19H21O5+
329.227	2	C25H29+
331.1168	28	C18H19O6+
333.1859	4	C23H25O2+
333.2209	7	C24H29O+
335.1644	7	C22H23O3+
335.237	52	C24H31O+
337.1276	43	C17H21O7+
337.144	4	C21H21O4+
337.1792	4	C22H25O3+
337.2523	9	C24H33O+
339.1437	381	C17H23O7+
341.1374	2	C20H21O5+
341.1744	5	C21H25O4+
341.2259	3	C26H29+
343.1691	6	C24H23O2+
343.2062	3	C25H27O+
343.2412	2	C26H31+
345.1513	2	C26H19N+
345.1856	3	C24H25O2+
345.2199	1	C25H29O+
347.1658	2	C23H23O3+
347.2002	5	C24H27O2+
349.1277	41	C18H21O7+
349.18	7	C23H25O3+
349.2154	3	C24H29O2+
350.1325	2	C13H22N2O9+
351.1602	2	C22H23O4+
353.1747	9	C22H25O4+
353.2473	142	C24H33O2+
355.1381	75	
355.2426	4	C27H31+
357.1332	6	C20H21O6+
359.1671	2	C27H21N+
359.2004	7	C25H27O2+
359.2366	17	C26H31O+
361.1809	3	C24H25O3+
361.2169	6	C25H29O2+
361.2526	8	C26H33O+
363.1601	3	C23H23O4+
363.1959	2	C24H27O3+
365.175	7	C23H25O4+
367.138	57	C18H23O8+
369.2222	6	C27H29O+
371.2009	5	C26H27O2+
373.1791	6	C25H25O3+
373.2163	5	C26H29O2+
375.1955	3	C25H27O3+
375.2322	2	C26H31O2+
377.2474	102	C26H33O2+
379.1544	2	C23H23O5+
379.19	6	C24H27O4+
379.2623	11	C26H35O2+
381.1689	7	C23H25O5+
385.2544	2	C28H33O+
387.1959	6	C26H27O3+
387.232	20	C27H31O2+
389.247	2	C27H33O2+
391.154	2	C24H23O5+
391.1919	2	C25H27O4+
393.2074	2	C25H29O4+
393.2414	6	C26H33O3+
395.2578	69	
397.1639	11	C23H25O6+
397.2187	1	C16H33N2O9+
397.2538	2	C29H33O+
399.2317	5	C28H31O2+
399.2678	3	C29H35O+
401.2138	2	C30H27N+
401.2482	12	C28H33O2+
403.2258	2	C27H31O3+
403.2631	9	C28H35O2+
405.1681	5	C25H25O5+
405.2421	43	C27H33O3+
413.2108	1	C28H29O3+
413.2464	5	C29H33O2+
415.2255	3	C28H31O3+
423.1789	6	C25H27O6+
425.2478	7	C30H33O2+
427.2632	9	C30H35O2+
429.1894	29	C24H29O7+
429.2789	1	C30H37O2+
431.2212	2	C28H31O4+
431.258	5	C29H35O3+
433.1859	39	
439.2627	3	C31H35O2+
441.2422	9	C30H33O3+
443.2567	18	C30H35O3+
445.1849	32	C24H29O8+
445.2734	21	C30H37O3+
453.2767	2	C32H37O2+
455.2565	2	C31H35O3+
455.2931	5	C32H39O2+
459.2535	12	C30H35O4+
463.2839	39	
471.2536	2	C31H35O4+
475.2116	7	C29H31O6+
475.2838	17	C31H39O4+
477.2291	2	C32H31NO3+
477.2632	12	C30H37O5+
481.2731	8	C33H37O3+
483.2535	1	C32H35O4+
483.2883	7	C33H39O3+
485.2678	5	C32H37O4+
493.2208	13	C29H33O7+
499.2857	17	C33H39O4+
501.2996	19	C33H41O4+
507.2872	21	C20H45NO13+
509.3039	3	C35H41O3+
515.2437	8	C32H35O6+
517.2938	12	C33H41O5+
525.2994	24	C35H41O4+
527.3166	10	C35H43O4+
535.2812	15	C21H45NO14+
537.2995	2	C21H47NO14+
543.3106	33	C35H43O5+
553.295	36	C36H41O5+
555.3125	2	C39H41NO2+
571.3057	62	C36H43O6+
581.2867	19	C22H47NO16+
589.3154	65	C36H45O7+
593.3232	20	
599.2995	34	
601.3294	23	C26H51NO14+
607.3264	57	
609.358	31	
611.335	55	C24H53NO16+
611.3754	23	
617.3107	47	
619.3415	58	
627.3671	33	C40H51O6+
629.3853	43	C43H51NO3+
637.3522	164	
647.3559	68	
655.3629	438	
673.3732	902	C41H53O8+
674.3764	175	C33H56NO13+
691.3838	999	C41H55O9+
692.3873	184	
709.3944	594	
710.3975	113	
727.4051	566	
728.4087	120	
745.4155	140	
890.4901	35	
908.5004	181	
909.5051	43	
