Mass spectrum: Cyprodinil-TP CGA 249287; LC-ESI-QFT; MS2; CE: 120%; R=17500; [M+H]+
Name: Cyprodinil-TP CGA 249287
Name: 4-Cyclopropyl-6-methyl-2-pyrimidinamine
Name: 4-cyclopropyl-6-methylpyrimidin-2-amine
Formula: C8H11N3
Exact mass: 149.0953
SMILES: CC1=NC(N)=NC(=C1)C1CC1
InChI: InChI=1S/C8H11N3/c1-5-4-7(6-2-3-6)11-8(9)10-5/h4,6H,2-3H2,1H3,(H2,9,10,11)
Instrument: Q Exactive Plus Orbitrap Thermo Scientific
Instrument type: LC-ESI-QFT
Ms type: MS2
Ion mode: POSITIVE
Ionization: ESI
Fragmentation mode: HCD
Collision energy: 120 % (nominal)
Resolution: 17500
Column name: XBridge C18 3.5um, 2.1x50mm, Waters
Retention time: 2.394 min
Base peak: 150.1026
Precursor m/z: 150.1026
Precursor type: [M+H]+
m/z	relative intensity	assigned
51.0229	20	C4H3+
52.0182	17	C3H2N+
53.0022	18	
53.0386	86	C4H5+
54.0338	20	C3H4N+
55.029	29	C2H3N2+
56.0494	8	C3H6N+
63.0229	43	C5H3+
64.0181	10	C4H2N+
64.0307	17	C5H4+
65.0386	809	C5H5+
66.0338	61	C4H4N+
66.0464	98	C5H6+
67.0291	999	C3H3N2+
67.0416	107	C4H5N+
67.0542	34	
67.9891	6	
68.0495	80	C4H6N+
69.0447	17	C3H5N2+
69.4464	12	
77.0386	59	C6H5+
78.0338	45	C5H4N+
79.0542	301	C6H7+
80.0495	129	C5H6N+
81.0574	34	C5H7N+
81.0698	57	C6H9+
82.0527	13	C4H6N2+
82.0652	22	C5H8N+
83.0605	31	C4H7N2+
89.0386	150	C7H5+
90.0339	23	C6H4N+
91.0417	216	C6H5N+
91.0542	162	C7H7+
92.0368	12	C5H4N2+
92.0495	146	C6H6N+
92.062	7	C7H8+
93.0453	38	C5H5N2+
93.0574	727	C6H7N+
94.0652	23	C6H8N+
95.0492	158	
95.0602	68	C5H7N2+
96.0443	63	
96.0684	23	C5H8N2+
104.0494	33	C7H6N+
105.0447	102	C6H5N2+
106.0652	129	C7H8N+
107.0606	20	C6H7N2+
107.0729	24	C7H9N+
108.0556	18	C5H6N3+
108.0808	70	C7H10N+
109.0524	12	
110.0604	14	
116.0496	55	C8H6N+
117.0447	37	C7H5N2+
117.0575	17	C8H7N+
118.0525	744	C7H6N2+
124.0762	11	
131.0604	226	C8H7N2+
132.0681	126	C8H8N2+
133.076	65	C8H9N2+
134.061	12	
134.0713	30	C7H8N3+
148.0873	23	C8H10N3+
150.1021	30	C8H12N3+
