Mass spectrum: Theophyline; LC-ESI-QFT; MS2; CE: 45; R=35000; [M+H]+
Name: Theophyline
Name: Theophylline
Name: 1,3-dimethyl-7H-purine-2,6-dione
Formula: C7H8N4O2
Exact mass: 180.06473
SMILES: CN1C2=C(C(=O)N(C1=O)C)NC=N2
InChI: InChI=1S/C7H8N4O2/c1-10-5-4(8-3-9-5)6(12)11(2)7(10)13/h3H,1-2H3,(H,8,9)
Instrument: Q Exactive Plus Orbitrap Thermo Scientific
Instrument type: LC-ESI-QFT
Ms type: MS2
Ion mode: POSITIVE
Ionization: ESI
Fragmentation mode: HCD
Collision energy: 45 (nominal)
Resolution: 35000
Column name: XBridge C18 3.5um, 2.1x50mm, Waters
Retention time: 3.2 min
Base peak: 181.0717
Precursor m/z: 181.072
Precursor type: [M+H]+
m/z	relative intensity	assigned
69.0447	16	C3H5N2+
83.024	1	C3H3N2O+
96.0557	60	C4H6N3+
97.0397	2	C4H5N2O+
108.0556	2	C5H6N3+
109.0271	1	C4H3N3O+
110.0714	3	C5H8N3+
120.0557	2	C6H6N3+
124.0506	804	C5H6N3O+
137.0823	13	C6H9N4+
142.0613	17	C5H8N3O2+
149.0461	1	C6H5N4O+
181.0721	999	C7H9N4O2+
