Mass spectrum: Famphur; LC-ESI-QFT; MS2; CE: 180%; R=17500; [M+H]+
Name: Famphur
Name: 4-dimethoxyphosphinothioyloxy-N,N-dimethylbenzenesulfonamide
Formula: C10H16NO5PS2
Exact mass: 325.0208
SMILES: CN(C)S(=O)(=O)C1=CC=C(C=C1)OP(=S)(OC)OC
InChI: InChI=1S/C10H16NO5PS2/c1-11(2)19(12,13)10-7-5-9(6-8-10)16-17(18,14-3)15-4/h5-8H,1-4H3
Instrument: Exploris 240 Orbitrap Thermo Scientific
Instrument type: LC-ESI-QFT
Ms type: MS2
Ion mode: POSITIVE
Ionization: ESI
Fragmentation mode: HCD
Collision energy: 180 % (nominal)
Resolution: 17500
Column name: XBridge C18 3.5um, 2.1x50mm, Waters
Retention time: 6.830 min
Base peak: 326.0278
Precursor m/z: 326.028
Precursor type: [M+H]+
m/z	relative intensity	assigned
51.0229	318	C4H3+
53.0387	200	C4H5+
60.9837	112	CH2OP+
62.9452	491	PS+
62.9994	859	CH4OP+
63.023	394	C5H3+
65.0387	189	C5H5+
68.9793	999	C3HS+
69.9872	410	C3H2S+
75.023	208	C6H3+
77.0386	93	C6H5+
78.9942	333	CH4O2P+
81.9872	211	C4H2S+
94.995	626	C5H3S+
96.0025	121	C5H4S+
97.0109	107	CH8NPS+
108.003	277	C6H4S+
