Mass spectrum: 1-(3-(Trifluoromethyl)phenyl)piperazine; LC-ESI-ITFT; MS2; CE: 75%; R=15000; [M+H]+
Name: 1-(3-(Trifluoromethyl)phenyl)piperazine
Formula: C11H13F3N2
Exact mass: 230.1031
SMILES: c1c(C(F)(F)F)cccc1N1CCNCC1
InChI: InChI=1S/C11H13F3N2/c12-11(13,14)9-2-1-3-10(8-9)16-6-4-15-5-7-16/h1-3,8,15H,4-7H2
Instrument: LTQ Orbitrap XL Thermo Scientific
Instrument type: LC-ESI-ITFT
Ms type: MS2
Ion mode: POSITIVE
Ionization: ESI
Fragmentation mode: HCD
Collision energy: 75 % (nominal)
Resolution: 15000
Column name: XBridge C18 3.5um, 2.1x50mm, Waters
Retention time: 5.9 min
Base peak: 231.1108
Precursor m/z: 231.1104
Precursor type: [M+H]+
m/z	relative intensity	assigned
56.0494	4	C3H6N+
58.0651	6	C3H8N+
70.0652	20	C4H8N+
104.0495	5	C7H6N+
117.0573	10	C8H7N+
118.0652	41	C8H8N+
119.073	138	C8H9N+
121.0447	7	C8H6F+
127.0354	27	C7H5F2+
128.0494	8	C9H6N+
140.0307	4	C7H4F2N+
141.0511	24	C8H7F2+
145.026	14	C7H4F3+
148.0557	58	C9H7FN+
151.0353	8	C9H5F2+
160.037	13	C7H5F3N+
161.0449	7	C7H6F3N+
162.0524	7	C7H7F3N+
166.0464	37	C9H6F2N+
168.062	73	C9H8F2N+
171.0414	3	C9H6F3+
172.0369	22	C8H5F3N+
173.0319	6	C7H4F3N2+
174.0525	53	C8H7F3N+
186.0526	40	C9H7F3N+
187.0599	5	C9H8F3N+
188.0684	999	C9H9F3N+
200.0682	23	C10H9F3N+
201.0639	5	C9H8F3N2+
202.0842	4	C10H11F3N+
212.0676	2	C11H9F3N+
214.084	9	C11H11F3N+
229.0947	15	C11H12F3N2+
231.1105	33	C11H14F3N2+
