Mass spectrum: Fenpropidin; LC-ESI-ITFT; MS2; CE: 75%; R=15000; [M+H]+
Name: Fenpropidin
Name: 1-[3-(4-tert-butylphenyl)-2-methyl-propyl]piperidine
Formula: C19H31N
Exact mass: 273.2457
SMILES: c1cc(ccc1CC(CN2CCCCC2)C)C(C)(C)C
InChI: InChI=1S/C19H31N/c1-16(15-20-12-6-5-7-13-20)14-17-8-10-18(11-9-17)19(2,3)4/h8-11,16H,5-7,12-15H2,1-4H3
Instrument: LTQ Orbitrap XL Thermo Scientific
Instrument type: LC-ESI-ITFT
Ms type: MS2
Ion mode: POSITIVE
Ionization: ESI
Fragmentation mode: HCD
Collision energy: 75 % (nominal)
Resolution: 15000
Column name: XBridge C18 3.5um, 2.1x50mm, Waters
Retention time: 9.5 min
Base peak: 274.253
Precursor m/z: 274.2529
Precursor type: [M+H]+
m/z	relative intensity	assigned
55.0542	1	C4H7+
57.0699	39	C4H9+
67.0543	1	C5H7+
69.0699	6	C5H9+
79.0543	1	C6H7+
84.0807	16	C5H10N+
85.0886	3	C5H11N+
86.0965	345	C5H12N+
91.0542	29	C7H7+
93.0699	3	C7H9+
98.0964	5	C6H12N+
104.0626	1	C8H8+
105.0699	159	C8H9+
107.0855	23	C8H11+
117.0698	29	C9H9+
119.0855	213	C9H11+
131.0856	5	C10H11+
132.0933	228	C10H12+
133.101	1	C10H13+
145.1013	8	C11H13+
146.1088	3	C11H14+
147.1168	999	C11H15+
159.117	2	C12H15+
161.1324	21	C12H17+
174.1404	1	C13H18+
189.1638	5	C14H21+
218.1904	2	C15H24N+
258.2226	2	C18H28N+
259.2301	1	C18H29N+
274.2531	73	C19H32N+
