Mass spectrum: EPN; LC-ESI-QFT; MS2; CE: 120%; R=17500; [M+H]+
Name: EPN
Name: O-Ethyl O-(4-nitrophenyl) phenylphosphonothioate
Name: ethoxy-(4-nitrophenoxy)-phenyl-sulfanylidene-lambda5-phosphane
Formula: C14H14NO4PS
Exact mass: 323.0381
SMILES: CCOP(=S)(C1=CC=CC=C1)OC2=CC=C(C=C2)[N+](=O)[O-]
InChI: InChI=1S/C14H14NO4PS/c1-2-18-20(21,14-6-4-3-5-7-14)19-13-10-8-12(9-11-13)15(16)17/h3-11H,2H2,1H3
Instrument: Exploris 240 Orbitrap Thermo Scientific
Instrument type: LC-ESI-QFT
Ms type: MS2
Ion mode: POSITIVE
Ionization: ESI
Fragmentation mode: HCD
Collision energy: 120 % (nominal)
Resolution: 17500
Column name: XBridge C18 3.5um, 2.1x50mm, Waters
Retention time: 12.283 min
Base peak: 334.1681
Precursor m/z: 324.0454
Precursor type: [M+H]+
m/z	relative intensity	assigned
50.0151	85	C4H2+
51.0229	350	C4H3+
53.0386	261	C4H5+
62.9453	951	PS+
63.023	188	C5H3+
64.0309	80	C5H4+
65.0386	360	C5H5+
66.0464	501	CH9NP+
75.0229	470	C6H3+
76.0307	103	C6H4+
77.0386	954	C6H5+
78.0465	725	C6H6+
79.0543	36	C6H7+
92.0261	43	C2H7NOP+
94.0414	690	C6H6O+
95.0492	396	C6H7O+
97.0108	62	CH8NPS+
107.0048	42	C6H4P+
108.0029	35	C6H4S+
109.0107	102	C6H5S+
110.0186	999	C6H6S+
123.0319	35	C6H5NO2+
154.9719	63	C6H4OPS+
156.9876	46	C6H6OPS+
