Mass spectrum: Paclobutrazole; LC-ESI-QFT; MS2; CE: 45; R=35000; [M+H]+
Name: Paclobutrazole
Name: Paclobutrazol
Name: 1-(4-chlorophenyl)-4,4-dimethyl-2-(1,2,4-triazol-1-yl)pentan-3-ol
Formula: C15H20ClN3O
Exact mass: 293.12949
SMILES: CC(C)(C)C(C(CC1=CC=C(C=C1)Cl)N2C=NC=N2)O
InChI: InChI=1S/C15H20ClN3O/c1-15(2,3)14(20)13(19-10-17-9-18-19)8-11-4-6-12(16)7-5-11/h4-7,9-10,13-14,20H,8H2,1-3H3
Instrument: Q Exactive Plus Orbitrap Thermo Scientific
Instrument type: LC-ESI-QFT
Ms type: MS2
Ion mode: POSITIVE
Ionization: ESI
Fragmentation mode: HCD
Collision energy: 45 (nominal)
Resolution: 35000
Column name: XBridge C18 3.5um, 2.1x50mm, Waters
Retention time: 10.6 min
Base peak: 294.1362
Precursor m/z: 294.1368
Precursor type: [M+H]+
m/z	relative intensity	assigned
57.0699	29	C4H9+
59.0492	8	C3H7O+
69.0699	12	C5H9+
70.0399	999	C2H4N3+
71.0855	4	C5H11+
83.0855	2	C6H11+
87.0805	30	C5H11O+
103.0542	1	C8H7+
113.0152	1	C6H6Cl+
113.0961	3	C7H13O+
119.0491	2	C8H7O+
125.0153	68	C7H6Cl+
130.0777	1	C10H10+
139.0309	23	C8H8Cl+
141.0102	4	C7H6ClO+
151.031	5	C9H8Cl+
155.0258	4	C8H8ClO+
165.0467	35	C10H10Cl+
207.0936	2	C13H16Cl+
294.1368	3	C15H21ClN3O+
