Mass spectrum: Lacosamide; LC-ESI-QFT; MS2; CE: 60; R=35000; [M+H]+
Name: Lacosamide
Name: N2-Acetyl-N-benzyl-O-methyl-D-serinamide
Name: 2-acetamido-N-benzyl-3-methoxypropanamide
Formula: C13H18N2O3
Exact mass: 250.13174
SMILES: CC(=O)NC(COC)C(=O)NCC1=CC=CC=C1
InChI: InChI=1S/C13H18N2O3/c1-10(16)15-12(9-18-2)13(17)14-8-11-6-4-3-5-7-11/h3-7,12H,8-9H2,1-2H3,(H,14,17)(H,15,16)
Instrument: Q Exactive Plus Orbitrap Thermo Scientific
Instrument type: LC-ESI-QFT
Ms type: MS2
Ion mode: POSITIVE
Ionization: ESI
Fragmentation mode: HCD
Collision energy: 60 (nominal)
Resolution: 35000
Column name: XBridge C18 3.5um, 2.1x50mm, Waters
Retention time: 5.1 min
Base peak: 251.138
Precursor m/z: 251.139
Precursor type: [M+H]+
m/z	relative intensity	assigned
56.0493	1	C3H6N+
59.0365	4	C2H5NO+
59.049	2	C3H7O+
65.0385	4	C5H5+
74.0599	775	C3H8NO+
84.0443	6	C4H6NO+
91.0541	999	C7H7+
108.0806	22	C7H10N+
112.0392	9	C5H6NO2+
115.054	2	C9H7+
116.0704	96	C5H10NO2+
117.0697	6	C9H9+
120.0807	1	C8H10N+
132.0805	8	C9H10N+
148.0754	3	C9H10NO+
164.1068	4	C10H14NO+
