Mass spectrum: Levamisole; LC-ESI-ITFT; MS2; CE: 75%; R=7500; [M+H]+
Name: Levamisole
Name: (6S)-6-phenyl-2,3,5,6-tetrahydroimidazo[2,1-b][1,3]thiazole
Formula: C11H12N2S
Exact mass: 204.0721
SMILES: c1([C@H]2CN3CCSC3=N2)ccccc1
InChI: InChI=1S/C11H12N2S/c1-2-4-9(5-3-1)10-8-13-6-7-14-11(13)12-10/h1-5,10H,6-8H2/t10-/m1/s1
Instrument: LTQ Orbitrap XL Thermo Scientific
Instrument type: LC-ESI-ITFT
Ms type: MS2
Ion mode: POSITIVE
Ionization: ESI
Fragmentation mode: HCD
Collision energy: 75 % (nominal)
Resolution: 7500
Column name: XBridge C18 3.5um, 2.1x50mm, Waters
Retention time: 2.9 min
Base peak: 205.0801
Precursor m/z: 205.0794
Precursor type: [M+H]+
m/z	relative intensity	assigned
58.9951	4	C2H3S+
61.0106	20	C2H5S+
74.0059	9	C2H4NS+
77.0384	3	C6H5+
79.0543	10	C6H7+
86.0059	14	C3H4NS+
88.0216	39	C3H6NS+
91.0543	224	C7H7+
103.0542	35	C8H7+
104.0498	7	C7H6N+
105.0699	101	C8H9+
106.0652	5	C7H8N+
115.054	16	C9H7+
117.0574	47	C8H7N+
117.0699	130	C9H9+
118.0652	121	C8H8N+
119.073	7	C8H9N+
119.0852	14	C9H11+
120.0806	3	C8H10N+
123.0263	258	C7H7S+
128.0497	10	C9H6N+
128.0622	35	C10H8+
129.07	147	C10H9+
130.065	24	C9H8N+
131.073	47	C9H9N+
132.0808	27	C9H10N+
135.0264	35	C8H7S+
144.0809	43	C10H10N+
145.076	29	C9H9N2+
146.0965	130	C10H12N+
148.0218	8	C8H6NS+
150.0371	55	C8H8NS+
155.0603	10	C10H7N2+
178.0686	999	C10H12NS+
188.0532	19	C11H10NS+
205.0794	549	C11H13N2S+
