Mass spectrum: Codeine; LC-ESI-ITFT; MS2; CE: 30%; R=7500; [M+H]+
Name: Codeine
Name: (5,6)-3-Methoxy-17-methyl-7,8-didehydro-4,5-epoxymorphinan-6-ol
Name: Methylmorphine
Formula: C18H21NO3
Exact mass: 299.1521
SMILES: CN1CC[C@]23[C@@H]4[C@H]1CC5=C2C(=C(C=C5)OC)O[C@H]3[C@H](C=C4)O
InChI: InChI=1S/C18H21NO3/c1-19-8-7-18-11-4-5-13(20)17(18)22-16-14(21-2)6-3-10(15(16)18)9-12(11)19/h3-6,11-13,17,20H,7-9H2,1-2H3/t11-,12+,13-,17-,18-/m0/s1
Instrument: LTQ Orbitrap XL Thermo Scientific
Instrument type: LC-ESI-ITFT
Ms type: MS2
Ion mode: POSITIVE
Ionization: ESI
Fragmentation mode: HCD
Collision energy: 30 % (nominal)
Resolution: 7500
Column name: XBridge C18 3.5um, 2.1x50mm, Waters
Retention time: 2.8 min
Base peak: 300.1595
Precursor m/z: 300.1594
Precursor type: [M+H]+
m/z	relative intensity	assigned
215.1071	3	C14H15O2+
243.1015	6	C15H15O3+
282.1486	3	C18H20NO2+
300.1592	999	C18H22NO3+
