Mass spectrum: Fipronil-sulfide; LC-ESI-ITFT; MS2; CE: 35%; R=7500; [M+H]+
Name: Fipronil-sulfide
Name: 5-Amino-1-[2,6-dichloro-4-(trifluoromethyl)phenyl]-4-[(trifluoromethyl)sulfanyl]-1H-pyrazole-3-carbonitrile
Formula: C12H4Cl2F6N4S
Exact mass: 419.9438
SMILES: FC(F)(F)c2cc(Cl)c(n1nc(C#N)c(SC(F)(F)F)c1N)c(Cl)c2
InChI: InChI=1S/C12H4Cl2F6N4S/c13-5-1-4(11(15,16)17)2-6(14)8(5)24-10(22)9(7(3-21)23-24)25-12(18,19)20/h1-2H,22H2
Instrument: LTQ Orbitrap XL Thermo Scientific
Instrument type: LC-ESI-ITFT
Ms type: MS2
Ion mode: POSITIVE
Ionization: ESI
Fragmentation mode: CID
Collision energy: 35 % (nominal)
Resolution: 7500
Column name: XBridge C18 3.5um, 2.1x50mm, Waters
Retention time: 13.0 min
Base peak: 442.9332
Precursor m/z: 420.9511
Precursor type: [M+H]+
m/z	relative intensity	assigned
154.9889	1	C2H5Cl2N4+
181.999	8	C4H3F3N3S+
227.9586	6	C2H2Cl2F4N4+
239.9586	11	C3H2Cl2F4N4+
246.0038	32	C9H4ClF3N3+
259.0117	33	C10H5ClF3N3+
263.973	1	C9H4ClF3N2S+
264.9806	30	C9H5ClF3N2S+
267.9774	19	C10H2F6S+
273.014	2	C10H5ClF3N4+
284.0069	29	C11H4ClF3N4+
285.0147	61	C11H5ClF3N4+
289.9755	3	C10H4ClF3N3S+
292.9732	12	C10H4Cl2F3N3+
298.9416	5	C9H4Cl2F3N2S+
315.98	27	C11H4ClF3N4S+
316.9867	999	C11H5ClF3N4S+
318.9758	18	C12HF6N2S+
319.9834	414	C12H2F6N2S+
325.9174	1	C9HCl2F3N3OS+
331.9497	4	C11H4Cl2F2N4S+
333.9769	2	C10H5ClF6N2S+
335.9368	216	C11H3Cl2F3N3S+
337.9558	4	C11H2ClF5N3S+
343.9605	19	C11H3ClF6N2S+
345.9706	8	C12H3ClF4N4S+
350.9482	24	C11H4Cl2F3N4S+
351.9556	176	C11H5Cl2F3N4S+
357.9629	11	C11H3ClF6N3S+
364.9682	11	C12H3ClF5N4S+
365.9757	72	C12H4ClF5N4S+
380.9383	9	C12H3Cl2F4N4S+
384.9738	6	C12H4ClF6N4S+
385.9822	92	C12H5ClF6N4S+
400.9449	7	C12H4Cl2F5N4S+
