Mass spectrum: Primaquine; LC-ESI-QFT; MS2; CE: 30; R=35000; [M+H]+
Name: Primaquine
Name: (4-amino-1-methyl-butyl)-(6-methoxy-8-quinolyl)amine
Formula: C15H21N3O
Exact mass: 259.16846
SMILES: O(c1cc(NC(C)CCCN)c2ncccc2c1)C
InChI: InChI=1S/C15H21N3O/c1-11(5-3-7-16)18-14-10-13(19-2)9-12-6-4-8-17-15(12)14/h4,6,8-11,18H,3,5,7,16H2,1-2H3
Instrument: Q Exactive Orbitrap Thermo Scientific
Instrument type: LC-ESI-QFT
Ms type: MS2
Ion mode: POSITIVE
Ionization: ESI
Fragmentation mode: HCD
Collision energy: 30 (nominal)
Resolution: 35000
Column name: XBridge C18 3.5um, 2.1x50mm, Waters
Retention time: 6.4 min
Base peak: 260.1758
Precursor m/z: 260.1757
Precursor type: [M+H]+
m/z	relative intensity	assigned
69.0699	72	C5H9+
86.0964	999	C5H12N+
132.0679	1	C8H8N2+
174.0786	3	C10H10N2O+
175.0866	439	C10H11N2O+
187.0866	22	C11H11N2O+
241.1336	62	C15H17N2O+
243.1492	697	C15H19N2O+
260.1757	39	C15H22N3O+
