Mass spectrum: Ranitidine; LC-ESI-ITFT; MS2; CE: 30%; R=7500; [M+H]+
Name: Ranitidine
Name: 1,1-Ethenediamine, N-(2-(((5-((dimethylamino)methyl)-2-furanyl)methyl)thio)ethyl)-N'-methyl-2-nitro-
Name: 1-N'-[2-[[5-(dimethylaminomethyl)furan-2-yl]methylsulfanyl]ethyl]-1-N-methyl-2-nitroethene-1,1-diamine
Formula: C13H22N4O3S
Exact mass: 314.1413
SMILES: CN\C(NCCSCC1=CC=C(CN(C)C)O1)=C/[N+]([O-])=O
InChI: InChI=1S/C13H22N4O3S/c1-14-13(9-17(18)19)15-6-7-21-10-12-5-4-11(20-12)8-16(2)3/h4-5,9,14-15H,6-8,10H2,1-3H3/b13-9+
Instrument: LTQ Orbitrap XL Thermo Scientific
Instrument type: LC-ESI-ITFT
Ms type: MS2
Ion mode: POSITIVE
Ionization: ESI
Fragmentation mode: HCD
Collision energy: 30 % (nominal)
Resolution: 7500
Column name: XBridge C18 3.5um, 2.1x50mm, Waters
Retention time: 1.9 min
Base peak: 315.1494
Precursor m/z: 315.1485
Precursor type: [M+H]+
m/z	relative intensity	assigned
81.0335	14	C5H5O+
83.0606	4	C4H7N2+
88.0215	36	C3H6NS+
95.049	20	C6H7O+
97.0759	19	C5H9N2+
98.0838	154	C5H10N2+
102.0371	67	C4H8NS+
110.0965	17	C7H12N+
113.0708	3	C5H9N2O+
114.0787	18	C5H10N2O+
118.0321	6	C4H8NOS+
124.0756	213	C7H10NO+
125.0055	119	C6H5OS+
130.0559	271	C5H10N2S+
138.0911	32	C8H12NO+
144.0767	152	C5H10N3O2+
145.0433	9	C5H9N2OS+
147.0221	7	C4H7N2O2S+
153.0369	27	C8H9OS+
164.0941	14	C9H12N2O+
165.102	47	C9H13N2O+
167.0639	17	C8H11N2S+
170.0634	57	C8H12NOS+
176.0488	999	C5H10N3O2S+
177.1024	8	C10H13N2O+
178.1103	9	C10H14N2O+
181.0794	27	C9H13N2S+
191.1178	74	C11H15N2O+
193.0555	27	C10H11NOS+
195.0714	9	C10H13NOS+
215.1215	8	C10H19N2OS+
224.0977	193	C11H16N2OS+
270.0904	104	C11H16N3O3S+
315.1491	186	C13H23N4O3S+
