Mass spectrum: Dapsone; LC-ESI-QFT; MS2; CE: 180; R=35000; [M+H]+
Name: Dapsone
Name: 4-(4-aminophenyl)sulfonylaniline
Formula: C12H12N2O2S
Exact mass: 248.06195
SMILES: C1=CC(=CC=C1N)S(=O)(=O)C2=CC=C(C=C2)N
InChI: InChI=1S/C12H12N2O2S/c13-9-1-5-11(6-2-9)17(15,16)12-7-3-10(14)4-8-12/h1-8H,13-14H2
Instrument: Q Exactive Plus Orbitrap Thermo Scientific
Instrument type: LC-ESI-QFT
Ms type: MS2
Ion mode: POSITIVE
Ionization: ESI
Fragmentation mode: HCD
Collision energy: 180 (nominal)
Resolution: 35000
Column name: XBridge C18 3.5um, 2.1x50mm, Waters
Retention time: 3.8 min
Base peak: 249.0685
Precursor m/z: 249.0692
Precursor type: [M+H]+
m/z	relative intensity	assigned
50.0151	30	C4H2+
51.023	54	C4H3+
52.0182	30	C3H2N+
52.0307	2	C4H4+
53.0022	116	C3HO+
53.0386	303	C4H5+
53.9975	33	C2NO+
54.0338	58	C3H4N+
55.0179	4	C3H3O+
56.0495	6	C3H6N+
62.0151	14	C5H2+
63.0229	37	C5H3+
64.0182	18	C4H2N+
64.0307	6	C5H4+
65.0386	999	C5H5+
66.0338	45	C4H4N+
66.0464	201	C5H6+
67.0417	17	C4H5N+
67.9892	23	C3O2+
74.0151	9	C6H2+
75.0229	5	C6H3+
76.0307	2	C6H4+
77.0385	2	C6H5+
78.0087	5	C3N3+
78.0338	27	C5H4N+
80.0494	430	C5H6N+
89.0385	6	C7H5+
90.0337	1	C6H4N+
91.0417	7	C6H5N+
92.0495	89	C6H6N+
93.0573	63	C6H7N+
95.0491	6	C6H7O+
96.0443	6	C5H6NO+
97.0105	2	C5H5S+
105.0446	2	C6H5N2+
108.0443	13	C6H6NO+
115.0542	5	C9H7+
123.0136	9	C6H5NS+
124.0215	2	C6H6NS+
130.0651	1	C9H8N+
139.0542	9	C11H7+
140.0493	4	C10H6N+
