Mass spectrum: Flocoumafen; LC-ESI-QFT; MS2; CE: 75%; R=17500; [M-H]-
Name: Flocoumafen
Name: 4-hydroxy-3-[3-[4-[[4-(trifluoromethyl)phenyl]methoxy]phenyl]-1,2,3,4-tetrahydronaphthalen-1-yl]chromen-2-one
Formula: C33H25F3O4
Exact mass: 542.1705
SMILES: C1C(CC2=CC=CC=C2C1C3=C(C4=CC=CC=C4OC3=O)O)C5=CC=C(C=C5)OCC6=CC=C(C=C6)C(F)(F)F
InChI: InChI=1S/C33H25F3O4/c34-33(35,36)24-13-9-20(10-14-24)19-39-25-15-11-21(12-16-25)23-17-22-5-1-2-6-26(22)28(18-23)30-31(37)27-7-3-4-8-29(27)40-32(30)38/h1-16,23,28,37H,17-19H2
Instrument: Exploris 240 Orbitrap Thermo Scientific
Instrument type: LC-ESI-QFT
Ms type: MS2
Ion mode: NEGATIVE
Ionization: ESI
Fragmentation mode: HCD
Collision energy: 75 % (nominal)
Resolution: 17500
Column name: XBridge C18 3.5um, 2.1x50mm, Waters
Retention time: 15.818 min
Base peak: 541.1631
Precursor m/z: 541.1632
Precursor type: [M-H]-
m/z	relative intensity	assigned
92.0267	34	C6H4O-
93.0346	244	C6H5O-
115.0555	49	C9H7-
117.0346	897	C8H5O-
119.0502	54	C8H7O-
133.0295	12	C8H5O2-
141.0711	19	C11H9-
143.0503	113	C10H7O-
155.0504	19	C11H7O-
161.0244	999	C9H5O3-
167.0502	43	C12H7O-
169.0653	28	C12H9O-
171.0453	57	C11H7O2-
174.0321	11	C10H6O3-
187.0399	25	C11H7O3-
191.0868	8	C15H11-
206.0742	15	C15H10O-
207.0813	48	C15H11O-
217.0656	30	C16H9O-
219.0816	368	C16H11O-
230.0734	14	C17H10O-
231.0826	64	C14H12FO2-
233.0971	85	C17H13O-
243.0814	91	C18H11O-
245.061	25	C17H9O2-
245.0972	55	C18H13O-
247.0763	85	C17H11O2-
261.092	75	C18H13O2-
275.0713	64	C18H11O3-
291.0668	33	C18H11O4-
335.1092	12	C21H16FO3-
337.1226	11	C24H17O2-
