Mass spectrum: Irgarol; LC-ESI-ITFT; MS2; CE: 60%; R=7500; [M+H]+
Name: Irgarol
Name: 2-N-tert-butyl-4-N-cyclopropyl-6-methylsulfanyl-1,3,5-triazine-2,4-diamine
Formula: C11H19N5S
Exact mass: 253.1356
SMILES: c1(nc(NC(C)(C)C)nc(n1)SC)NC1CC1
InChI: InChI=1S/C11H19N5S/c1-11(2,3)16-9-13-8(12-7-5-6-7)14-10(15-9)17-4/h7H,5-6H2,1-4H3,(H2,12,13,14,15,16)
Instrument: LTQ Orbitrap XL Thermo Scientific
Instrument type: LC-ESI-ITFT
Ms type: MS2
Ion mode: POSITIVE
Ionization: ESI
Fragmentation mode: HCD
Collision energy: 60 % (nominal)
Resolution: 7500
Column name: XBridge C18 3.5um, 2.1x50mm, Waters
Retention time: 9.2 min
Base peak: 254.1437
Precursor m/z: 254.1434
Precursor type: [M+H]+
m/z	relative intensity	assigned
55.0288	2	C2H3N2+
56.0494	41	C3H6N+
57.0699	3	C4H9+
58.065	10	C3H8N+
68.0243	17	C2H2N3+
74.0058	26	C2H4NS+
81.0448	17	C4H5N2+
83.0603	90	C4H7N2+
87.0263	9	C4H7S+
91.0324	175	C2H7N2S+
98.071	2	C4H8N3+
108.0556	93	C5H6N3+
114.0122	3	C3H4N3S+
114.0372	16	C5H8NS+
116.0276	54	C3H6N3S+
125.0821	75	C5H9N4+
150.0774	47	C6H8N5+
152.0928	4	C6H10N5+
156.0337	16	C4H6N5S+
156.0589	79	C6H10N3S+
158.0491	5	C4H8N5S+
168.0331	2	C5H6N5S+
170.0496	16	C5H8N5S+
171.0696	8	C6H11N4S+
198.0808	999	C7H12N5S+
254.1438	10	C11H20N5S+
