Mass spectrum: Thiamphenicol; LC-ESI-QFT; MS2; CE: 150; R=35000; [M+H]+
Name: Thiamphenicol
Name: 2,2-dichloro-N-[1,3-dihydroxy-1-(4-methylsulfonylphenyl)propan-2-yl]acetamide
Formula: C12H15Cl2NO5S
Exact mass: 355.00480
SMILES: CS(=O)(=O)C1=CC=C(C=C1)C(C(CO)NC(=O)C(Cl)Cl)O
InChI: InChI=1S/C12H15Cl2NO5S/c1-21(19,20)8-4-2-7(3-5-8)10(17)9(6-16)15-12(18)11(13)14/h2-5,9-11,16-17H,6H2,1H3,(H,15,18)
Instrument: Q Exactive Plus Orbitrap Thermo Scientific
Instrument type: LC-ESI-QFT
Ms type: MS2
Ion mode: POSITIVE
Ionization: ESI
Fragmentation mode: HCD
Collision energy: 150 (nominal)
Resolution: 35000
Column name: XBridge C18 3.5um, 2.1x50mm, Waters
Retention time: 3.7 min
Base peak: 373.0381
Precursor m/z: 356.0121
Precursor type: [M+H]+
m/z	relative intensity	assigned
50.0151	21	C4H2+
51.0229	17	C4H3+
53.0022	4	C3HO+
53.0386	54	C4H5+
55.0179	7	C3H3O+
62.0152	4	C5H2+
62.9633	1	CClO+
62.99	2	CH3OS+
63.023	26	C5H3+
63.9949	7	CH3ClN+
64.0308	3	C5H4+
65.0386	197	C5H5+
66.0465	9	C5H6+
67.0417	9	C4H5N+
67.0542	1	C5H7+
74.0151	9	C6H2+
75.0229	34	C6H3+
75.971	1	C2HClO+
76.0307	23	C6H4+
77.0386	65	C6H5+
78.0339	2	C5H4N+
78.0464	29	C6H6+
78.9849	1	CH3O2S+
79.0542	14	C6H7+
80.0494	13	C5H6N+
81.0336	11	C5H5O+
82.945	999	CHCl2+
86.015	1	C7H2+
87.0229	2	C7H3+
88.0308	3	C7H4+
89.0386	96	C7H5+
90.0465	38	C7H6+
91.0543	619	C7H7+
92.0495	2	C6H6N+
92.0621	9	C7H8+
93.0573	6	C6H7N+
94.0414	5	C6H6O+
95.0492	197	C6H7O+
96.0444	4	C5H6NO+
101.0386	7	C8H5+
102.0464	69	C8H6+
103.0543	166	C8H7+
104.0495	56	C7H6N+
105.0448	132	C6H5N2+
106.0651	2	C7H8N+
107.0492	7	C7H7O+
113.0386	6	C9H5+
114.0464	2	C9H6+
115.0543	90	C9H7+
116.0495	8	C8H6N+
117.0573	102	C8H7N+
118.0652	170	C8H8N+
119.0493	6	C8H7O+
119.073	2	C8H9N+
125.0388	1	C10H5+
126.0465	7	C10H6+
127.0417	2	C9H5N+
127.0544	4	C10H7+
128.0495	11	C9H6N+
128.0621	19	C10H8+
129.0448	16	C2H11NO3S+
129.0574	2	C9H7N+
130.0403	3	C7H4N3+
130.0652	46	C9H8N+
131.0492	11	C9H7O+
134.06	2	C8H8NO+
140.0496	3	C10H6N+
146.0598	1	C9H8NO+
155.0604	3	C4H13NO3S+
