Mass spectrum: Chlorthalidone; LC-ESI-QFT; MS2; CE: 90; R=35000; [M-H]-
Name: Chlorthalidone
Name: Chlortalidone
Name: 2-chloranyl-5-(1-oxidanyl-3-oxidanylidene-2H-isoindol-1-yl)benzenesulfonamide
Formula: C14H11ClN2O4S
Exact mass: 338.01281
SMILES: O=S(=O)(N)c1c(Cl)ccc(c1)C2(O)c3ccccc3C(=O)N2
InChI: InChI=1S/C14H11ClN2O4S/c15-11-6-5-8(7-12(11)22(16,20)21)14(19)10-4-2-1-3-9(10)13(18)17-14/h1-7,19H,(H,17,18)(H2,16,20,21)
Instrument: Q Exactive Orbitrap Thermo Scientific
Instrument type: LC-ESI-QFT
Ms type: MS2
Ion mode: NEGATIVE
Ionization: ESI
Fragmentation mode: HCD
Collision energy: 90 (nominal)
Resolution: 35000
Column name: XBridge C18 3.5um, 2.1x50mm, Waters
Retention time: 5.4 min
Base peak: 337.0058
Precursor m/z: 337.0055
Precursor type: [M-H]-
m/z	relative intensity	assigned
57.9757	7	CNS-
61.9706	732	NOS-
63.0241	2	C5H3-
63.9624	270	O2S-
75.024	7	C6H3-
77.9656	451	NO2S-
78.9734	11	HNO2S-
79.9812	999	H2NO2S-
89.0272	10	C6H3N-
90.035	81	C6H4N-
91.019	29	C6H3O-
102.0349	2	C7H4N-
105.0221	8	C6H3NO-
106.03	1	C6H4NO-
108.0218	7	C6H4O2-
115.0303	59	C7H3N2-
122.025	2	C6H4NO2-
125.9879	2	C6H3ClO-
126.0118	3	C6H5ClN-
126.9958	3	C6H4ClO-
146.0248	744	C8H4NO2-
153.9969	43	C6H4NO2S-
164.051	2	C12H6N-
166.0659	2	C12H8N-
190.0539	9	C13H6N2-
191.0614	6	C13H7N2-
192.0455	9	C13H6NO-
194.0612	10	C13H8NO-
219.0563	9	C14H7N2O-
220.0404	29	C14H6NO2-
