Mass spectrum: Flubendiamide; LC-ESI-QFT; MS2; CE: 90%; R=17500; [M+H]+
Name: Flubendiamide
Name: 1-N-[4-(1,1,1,2,3,3,3-heptafluoropropan-2-yl)-2-methylphenyl]-3-iodo-2-N-(2-methyl-1-methylsulfonylpropan-2-yl)benzene-1,2-dicarboxamide
Formula: C23H22F7IN2O4S
Exact mass: 682.0233
SMILES: CC1=C(C=CC(=C1)C(C(F)(F)F)(C(F)(F)F)F)NC(=O)C2=C(C(=CC=C2)I)C(=O)NC(C)(C)CS(=O)(=O)C
InChI: InChI=1S/C23H22F7IN2O4S/c1-12-10-13(21(24,22(25,26)27)23(28,29)30)8-9-16(12)32-18(34)14-6-5-7-15(31)17(14)19(35)33-20(2,3)11-38(4,36)37/h5-10H,11H2,1-4H3,(H,32,34)(H,33,35)
Instrument: Exploris 240 Orbitrap Thermo Scientific
Instrument type: LC-ESI-QFT
Ms type: MS2
Ion mode: POSITIVE
Ionization: ESI
Fragmentation mode: HCD
Collision energy: 90 % (nominal)
Resolution: 17500
Column name: XBridge C18 3.5um, 2.1x50mm, Waters
Retention time: 10.934 min
Base peak: 328.0976
Precursor m/z: 683.0306
Precursor type: [M+H]+
m/z	relative intensity	assigned
73.0649	44	C4H9O+
75.0103	51	C5HN+
76.0306	369	C6H4+
77.0257	38	C5H3N+
79.0417	142	C5H5N+
91.0417	490	C6H5N+
92.0257	114	C6H4O+
92.037	79	C5H4N2+
94.0413	34	C6H6O+
101.026	702	C7H3N+
103.0416	999	C7H5N+
104.0255	500	C7H4O+
119.0128	151	C7H3O2+
119.0366	294	C7H5NO+
135.032	41	C7H5NO2+
140.0435	78	C8H6F2+
147.0315	439	C8H5NO2+
245.9412	120	C7H5INO+
