Mass spectrum: Flutolanil; LC-ESI-QFT; MS2; CE: 30%; R=15000; [M+H]+
Name: Flutolanil
Name: N-(3-propan-2-yloxyphenyl)-2-(trifluoromethyl)benzamide
Formula: C17H16F3NO2
Exact mass: 323.1133134
SMILES: CC(C)OC1=CC(NC(=O)C2=C(C=CC=C2)C(F)(F)F)=CC=C1
InChI: InChI=1S/C17H16F3NO2/c1-11(2)23-13-7-5-6-12(10-13)21-16(22)14-8-3-4-9-15(14)17(18,19)20/h3-11H,1-2H3,(H,21,22)
Instrument: Q Exactive Plus
Instrument type: LC-ESI-QFT
Ms type: MS2
Ion mode: POSITIVE
Ionization: ESI
Fragmentation mode: HCD
Collision energy: 30 % (nominal)
Resolution: 15000
Column name: XBridge C18 3.5um, 2.1x50mm, Waters
Retention time: 9.605 min
Base peak: 324.1206
Precursor m/z: 324.1206
Precursor type: [M+H]+
Precursor intensity: 603453975.52
m/z	relative intensity	assigned
173.0206	19	C8H4F3O+
242.061	273	C14H9FNO2+
262.0673	999	C14H10F2NO2+
282.0736	182	C14H11F3NO2+
304.1142	89	C17H16F2NO2+
324.1209	18	C17H17F3NO2+
