Mass spectrum: Atenolol acid; LC-ESI-ITFT; MS2; CE: 45%; R=7500; [M+H]+
Name: Atenolol acid
Name: Metoprolol acid
Name: 4-(2-Hydroxy-3-((1-methylethyl)amino)propoxy)benzeneacetic acid
Formula: C14H21NO4
Exact mass: 267.1471
SMILES: CC(C)NCC(O)COc1ccc(cc1)CC(=O)O
InChI: InChI=1S/C14H21NO4/c1-10(2)15-8-12(16)9-19-13-5-3-11(4-6-13)7-14(17)18/h3-6,10,12,15-16H,7-9H2,1-2H3,(H,17,18)
Instrument: LTQ Orbitrap XL Thermo Scientific
Instrument type: LC-ESI-ITFT
Ms type: MS2
Ion mode: POSITIVE
Ionization: ESI
Fragmentation mode: HCD
Collision energy: 45 % (nominal)
Resolution: 7500
Column name: XBridge C18 3.5um, 2.1x50mm, Waters
Retention time: 3.8 min
Base peak: 268.1553
Precursor m/z: 268.1543
Precursor type: [M+H]+
m/z	relative intensity	assigned
56.0495	164	C3H6N+
58.065	21	C3H8N+
72.0808	198	C4H10N+
74.0601	194	C3H8NO+
86.0966	7	C5H12N+
91.0542	19	C7H7+
95.0494	7	C6H7O+
98.0965	247	C6H12N+
107.0487	9	C7H7O+
109.065	17	C7H9O+
116.107	312	C6H14NO+
119.0488	33	C8H7O+
133.0647	14	C9H9O+
137.0597	37	C8H9O2+
145.0648	600	C10H9O+
162.0914	20	C10H12NO+
163.075	34	C10H11O2+
165.0545	230	C9H9O3+
179.0703	29	C10H11O3+
191.0703	903	C11H11O3+
226.1073	308	C11H16NO4+
250.1435	44	C14H20NO3+
268.1544	999	C14H22NO4+
