Mass spectrum: Nitrazepam; LC-ESI-QFT; MS2; CE: 90; R=35000; [M+H]+
Name: Nitrazepam
Name: 7-nitro-5-phenyl-1,3-dihydro-1,4-benzodiazepin-2-one
Formula: C15H11N3O3
Exact mass: 281.08004
SMILES: C1C(=O)NC2=C(C=C(C=C2)[N+](=O)[O-])C(=N1)C3=CC=CC=C3
InChI: InChI=1S/C15H11N3O3/c19-14-9-16-15(10-4-2-1-3-5-10)12-8-11(18(20)21)6-7-13(12)17-14/h1-8H,9H2,(H,17,19)
Instrument: Q Exactive Plus Orbitrap Thermo Scientific
Instrument type: LC-ESI-QFT
Ms type: MS2
Ion mode: POSITIVE
Ionization: ESI
Fragmentation mode: HCD
Collision energy: 90 (nominal)
Resolution: 35000
Column name: XBridge C18 3.5um, 2.1x50mm, Waters
Retention time: 7.7 min
Base peak: 282.0866
Precursor m/z: 282.0873
Precursor type: [M+H]+
m/z	relative intensity	assigned
51.0229	1	C4H3+
53.0386	6	C4H5+
64.0308	2	C5H4+
65.0386	6	C5H5+
66.0464	3	C5H6+
76.0306	3	C6H4+
77.0384	13	C6H5+
78.0338	2	C5H4N+
78.0464	15	C6H6+
79.0416	14	C5H5N+
80.0256	2	C5H4O+
80.0494	3	C5H6N+
89.0385	5	C7H5+
90.0464	4	C7H6+
91.0542	68	C7H7+
92.0495	1	C6H6N+
93.0573	9	C6H7N+
95.0491	14	C6H7O+
96.0443	2	C5H6NO+
103.0416	51	C7H5N+
104.0494	141	C7H6N+
105.0334	2	C7H5O+
105.0447	14	C6H5N2+
105.0573	23	C7H7N+
106.065	3	C7H8N+
115.0542	4	C9H7+
116.0494	21	C8H6N+
117.0209	3	C7H3NO+
117.0573	7	C8H7N+
118.0526	5	C7H6N2+
118.0652	1	C8H8N+
128.062	5	C10H8+
129.0447	55	C8H5N2+
130.0526	63	C8H6N2+
131.0604	8	C8H7N2+
133.0397	2	C7H5N2O+
133.0523	3	C8H7NO+
134.0473	1	C7H6N2O+
135.0315	1	C7H5NO2+
139.054	2	C11H7+
140.0496	4	C10H6N+
140.062	4	C11H8+
141.0698	5	C11H9+
143.0729	1	C10H9N+
151.0544	4	C12H7+
152.0621	102	C12H8+
153.0699	106	C12H9+
154.0652	10	C11H8N+
155.0601	2	C10H7N2+
155.0729	2	C11H9N+
156.0809	6	C11H10N+
157.0396	5	C9H5N2O+
158.0474	2	C9H6N2O+
159.0553	3	C9H7N2O+
162.0425	6	C8H6N2O2+
163.0542	9	C13H7+
164.062	28	C13H8+
165.0699	60	C13H9+
166.0652	12	C12H8N+
166.0774	3	C13H10+
167.073	40	C12H9N+
167.085	10	C13H11+
168.0572	8	C12H8O+
168.0684	15	C11H8N2+
168.0807	26	C12H10N+
169.0649	7	C12H9O+
170.0599	1	C11H8NO+
176.0459	1	C8H6N3O2+
177.0577	3	C13H7N+
178.0652	33	C13H8N+
179.0729	68	C13H9N+
180.0807	999	C13H10N+
181.076	4	C12H9N2+
181.0887	5	C13H11N+
182.0599	1	C12H8NO+
182.0835	1	C12H10N2+
190.0651	290	C14H8N+
191.0729	78	C14H9N+
192.0681	18	C13H8N2+
192.0807	46	C14H10N+
193.076	15	C13H9N2+
193.0886	21	C14H11N+
194.0599	3	C13H8NO+
194.0839	11	C13H10N2+
194.0964	10	C14H12N+
195.0917	17	C13H11N2+
196.052	1	C13H8O2+
196.0756	13	C13H10NO+
205.0761	37	C14H9N2+
206.084	190	C14H10N2+
207.0917	518	C14H11N2+
208.076	4	C14H10NO+
208.0995	20	C14H12N2+
211.0627	2	C13H9NO2+
216.0683	1	C15H8N2+
217.0761	9	C15H9N2+
218.0839	1	C15H10N2+
221.0709	3	C14H9N2O+
223.0865	8	C14H11N2O+
234.0786	4	C15H10N2O+
235.0866	28	C15H11N2O+
236.0944	24	C15H12N2O+
238.0733	1	C14H10N2O2+
240.0894	2	C14H12N2O2+
268.0843	9	C15H12N2O3+
