Mass spectrum: Cyprodinil; LC-ESI-ITFT; MS2; CE: 35%; R=30000; [M+H]+
Name: Cyprodinil
Name: (4-cyclopropyl-6-methyl-pyrimidin-2-yl)-phenyl-amine
Formula: C14H15N3
Exact mass: 225.1260
SMILES: c1ccccc1Nc1nc(C2CC2)cc(C)n1
InChI: InChI=1S/C14H15N3/c1-10-9-13(11-7-8-11)17-14(15-10)16-12-5-3-2-4-6-12/h2-6,9,11H,7-8H2,1H3,(H,15,16,17)
Instrument: LTQ Orbitrap XL Thermo Scientific
Instrument type: LC-ESI-ITFT
Ms type: MS2
Ion mode: POSITIVE
Ionization: ESI
Fragmentation mode: CID
Collision energy: 35 % (nominal)
Resolution: 30000
Column name: XBridge C18 3.5um, 2.1x50mm, Waters
Retention time: 9.4 min
Base peak: 226.1338
Precursor m/z: 226.1339
Precursor type: [M+H]+
m/z	relative intensity	assigned
77.0386	2	C6H5+
79.0543	2	C6H7+
80.0494	2	C5H6N+
91.0541	5	C7H7+
92.0495	5	C6H6N+
93.0573	17	C6H7N+
94.0651	2	C6H8N+
106.0651	20	C7H8N+
107.0604	2	C6H7N2+
108.0682	5	C6H8N2+
108.0808	63	C7H10N+
109.076	12	C6H9N2+
116.0494	7	C8H6N+
117.0573	3	C8H7N+
118.0525	5	C7H6N2+
118.0651	21	C8H8N+
119.0603	35	C7H7N2+
123.0916	19	C7H11N2+
131.0603	3	C8H7N2+
132.0682	7	C8H8N2+
133.076	80	C8H9N2+
142.0654	2	C10H8N+
143.0603	4	C9H7N2+
144.0808	78	C10H10N+
145.0759	7	C9H9N2+
158.0964	4	C11H12N+
159.0917	32	C10H11N2+
167.0728	1	C12H9N+
168.0807	13	C12H10N+
169.0762	5	C11H9N2+
170.0838	1	C11H10N2+
171.0918	2	C11H11N2+
182.0965	5	C13H12N+
183.0916	8	C12H11N2+
184.0869	26	C11H10N3+
185.1073	86	C12H13N2+
192.0809	2	C14H10N+
194.0837	5	C13H10N2+
196.0867	5	C12H10N3+
197.0948	11	C12H11N3+
198.1025	20	C12H12N3+
199.1232	3	C13H15N2+
208.099	2	C14H12N2+
209.1072	58	C14H13N2+
210.1025	110	C13H12N3+
211.1103	46	C13H13N3+
224.118	7	C14H14N3+
226.1339	999	C14H16N3+
