Mass spectrum: Oxadixyl; LC-ESI-QFT; MS2; CE: 15; R=35000; [M+H]+
Name: Oxadixyl
Name: N-(2,6-dimethylphenyl)-2-methoxy-N-(2-oxidanylidene-1,3-oxazolidin-3-yl)ethanamide
Formula: C14H18N2O4
Exact mass: 278.12666
SMILES: O=C2OCCN2N(C(=O)COC)c1c(cccc1C)C
InChI: InChI=1S/C14H18N2O4/c1-10-5-4-6-11(2)13(10)16(12(17)9-19-3)15-7-8-20-14(15)18/h4-6H,7-9H2,1-3H3
Instrument: Q Exactive Orbitrap Thermo Scientific
Instrument type: LC-ESI-QFT
Ms type: MS2
Ion mode: POSITIVE
Ionization: ESI
Fragmentation mode: HCD
Collision energy: 15 (nominal)
Resolution: 35000
Column name: XBridge C18 3.5um, 2.1x50mm, Waters
Retention time: 6.4 min
Base peak: 279.1343
Precursor m/z: 279.1339
Precursor type: [M+H]+
m/z	relative intensity	assigned
58.0653	1	C3H8N+
88.0393	8	C3H6NO2+
100.0394	1	C4H6NO2+
102.055	167	C4H8NO2+
105.0699	1	C8H9+
117.0573	2	C8H7N+
119.0855	9	C9H11+
120.0808	3	C8H10N+
121.0649	11	C8H9O+
132.0807	39	C9H10N+
133.0887	27	C9H11N+
134.0965	3	C9H12N+
149.0235	4	C8H5O3+
160.0759	11	C10H10NO+
164.1071	9	C10H14NO+
165.1148	1	C10H15NO+
191.0939	4	C11H13NO2+
192.1021	19	C11H14NO2+
219.113	999	C12H15N2O2+
