Mass spectrum: Methacrifos; LC-ESI-QFT; MS2; CE: 120%; R=17500; [M+H]+
Name: Methacrifos
Name: Methyl 3-((dimethoxyphosphinothioyl)oxy)methacrylate
Name: methyl 3-dimethoxyphosphinothioyloxy-2-methylprop-2-enoate
Formula: C7H13O5PS
Exact mass: 240.0221
SMILES: CC(=COP(=S)(OC)OC)C(=O)OC
InChI: InChI=1S/C7H13O5PS/c1-6(7(8)9-2)5-12-13(14,10-3)11-4/h5H,1-4H3
Instrument: Exploris 240 Orbitrap Thermo Scientific
Instrument type: LC-ESI-QFT
Ms type: MS2
Ion mode: POSITIVE
Ionization: ESI
Fragmentation mode: HCD
Collision energy: 120 % (nominal)
Resolution: 17500
Column name: XBridge C18 3.5um, 2.1x50mm, Waters
Retention time: 7.717 min
Base peak: 209.0029
Precursor m/z: 241.0294
Precursor type: [M+H]+
m/z	relative intensity	assigned
53.0385	11	C4H5+
56.0258	17	C3H4O+
59.0491	42	C3H7O+
62.0184	104	C2H6S+
62.9993	81	CH4OP+
64.9786	18	H2O2P+
67.0177	83	C4H3O+
70.995	168	C3H3S+
78.9943	999	CH4O2P+
93.01	95	C2H6O2P+
98.9898	45	C4H3OS+
109.0049	74	C2H6O3P+
110.9662	36	CH4O2PS+
124.9819	123	C2H6O2PS+
127.0155	121	C2H8O4P+
142.9926	40	C2H8O3PS+
