Mass spectrum: Mianserin-N-Oxide; LC-ESI-QFT; MS2; CE: 150; R=35000; [M+H]+
Name: Mianserin-N-Oxide
Name: 1,2,3,4,10,14b-Hexahydro-2-methyldibenzo(c,f)pyrazino(1,2-a)azepine 2-oxide
Formula: C18H20N2O
Exact mass: 280.15756
SMILES: C[N+]1(CCN2c3ccccc3Cc4ccccc4C2C1)[O-]
InChI: InChI=1S/C18H20N2O/c1-20(21)11-10-19-17-9-5-3-7-15(17)12-14-6-2-4-8-16(14)18(19)13-20/h2-9,18H,10-13H2,1H3
Instrument: Q Exactive Plus Orbitrap Thermo Scientific
Instrument type: LC-ESI-QFT
Ms type: MS2
Ion mode: POSITIVE
Ionization: ESI
Fragmentation mode: HCD
Collision energy: 150 (nominal)
Resolution: 35000
Column name: XBridge C18 3.5um, 2.1x50mm, Waters
Retention time: 7.0 min
Base peak: 281.1644
Precursor m/z: 281.1648
Precursor type: [M+H]+
m/z	relative intensity	assigned
50.0151	14	C4H2+
51.0229	15	C4H3+
53.0022	1	C3HO+
53.0386	13	C4H5+
54.0338	1	C3H4N+
56.0495	96	C3H6N+
57.0573	27	C3H7N+
58.0651	38	C3H8N+
61.0073	1	C5H+
62.015	10	C5H2+
63.0229	71	C5H3+
64.0307	29	C5H4+
65.0385	75	C5H5+
66.0464	13	C5H6+
70.0651	59	C4H8N+
71.0603	10	C3H7N2+
71.0729	2	C4H9N+
72.0807	102	C4H10N+
74.0149	1	C6H2+
75.0228	11	C6H3+
76.0305	1	C6H4+
77.0385	20	C6H5+
78.0464	6	C6H6+
79.0542	2	C6H7+
85.0759	2	C4H9N2+
87.0228	1	C7H3+
88.0306	2	C7H4+
89.0385	661	C7H5+
90.0464	133	C7H6+
91.0542	124	C7H7+
95.0491	43	C6H7O+
102.0463	14	C8H6+
103.0541	25	C8H7+
105.0447	19	C6H5N2+
113.0385	5	C9H5+
114.0337	2	C8H4N+
114.0463	1	C9H6+
115.0542	321	C9H7+
116.0494	32	C8H6N+
116.062	5	C9H8+
117.0572	24	C8H7N+
117.0698	5	C9H9+
118.065	2	C8H8N+
119.0491	1	C8H7O+
126.0465	11	C10H6+
127.0541	6	C10H7+
128.0496	14	C9H6N+
128.0619	36	C10H8+
129.0444	9	C8H5N2+
129.0573	6	C9H7N+
130.0652	16	C9H8N+
139.0542	99	C11H7+
140.0494	45	C10H6N+
140.0618	11	C11H8+
141.0573	2	C10H7N+
141.0699	7	C11H9+
142.065	5	C10H8N+
143.0729	7	C10H9N+
144.0808	7	C10H10N+
145.0647	2	C10H9O+
146.0599	7	C9H8NO+
150.0462	17	C12H6+
151.0542	22	C12H7+
152.062	239	C12H8+
153.0572	14	C11H7N+
153.0701	9	C12H9+
154.0652	2	C11H8N+
155.0602	8	C10H7N2+
162.0463	1	C13H6+
163.0541	88	C13H7+
164.0496	11	C12H6N+
164.0619	159	C13H8+
165.0698	999	C13H9+
166.0651	64	C12H8N+
167.0729	32	C12H9N+
168.0569	57	C12H8O+
169.0647	66	C12H9O+
170.06	2	C11H8NO+
175.0543	2	C14H7+
176.062	197	C14H8+
177.0576	59	C13H7N+
177.0697	130	C14H9+
178.0776	343	C14H10+
179.0602	19	C12H7N2+
179.0729	6	C13H9N+
179.0855	6	C14H11+
180.0805	8	C13H10N+
181.0649	6	C13H9O+
181.0882	1	C13H11N+
187.0541	2	C15H7+
188.0493	2	C14H6N+
188.0618	4	C15H8+
189.0577	8	C14H7N+
189.0698	111	C15H9+
190.065	240	C14H8N+
190.0773	16	C15H10+
191.0728	257	C14H9N+
191.0852	24	C15H11+
192.0807	105	C14H10N+
193.0885	38	C14H11N+
194.06	2	C13H8NO+
195.0805	2	C14H11O+
196.052	17	C13H8O2+
200.0621	11	C16H8+
201.0698	7	C16H9+
202.0776	81	C16H10+
203.0729	35	C15H9N+
203.0853	21	C16H11+
204.0808	213	C15H10N+
205.0648	2	C15H9O+
205.076	5	C14H9N2+
205.0886	8	C15H11N+
206.0964	2	C15H12N+
214.0653	2	C16H8N+
215.073	6	C16H9N+
216.0807	76	C16H10N+
217.0885	102	C16H11N+
218.084	22	C15H10N2+
218.0964	76	C16H12N+
219.0803	4	C16H11O+
219.0919	6	C15H11N2+
219.1041	17	C16H13N+
220.1121	4	C16H14N+
228.0807	1	C17H10N+
230.096	1	C17H12N+
231.0915	8	C16H11N2+
