Mass spectrum: Oxytetracycline; LC-ESI-QFT; MS2; CE: 30; R=35000; [M+H]+
Name: Oxytetracycline
Name: (4S,4aR,5S,5aR,6S,12aS)-4-(Dimethylamino)-3,5,6,10,12,12a-hexahydroxy-6-methyl-1,11-dioxo-1,4,4a,5,5a,6,11,12a-octahydro-2-tetracenecarboxamide
Name: 2-carbamoyl-4-(dimethylazaniumyl)-5,6,10,11,12a-pentahydroxy-6-methyl-3,12-dioxo-4,4a,5,5a-tetrahydrotetracen-1-olate
Formula: C22H24N2O9
Exact mass: 460.14818
SMILES: CC1(C2C(C3C(C(=O)C(=C(C3(C(=O)C2=C(C4=C1C=CC=C4O)O)O)O)C(=O)N)N(C)C)O)O
InChI: InChI=1S/C22H24N2O9/c1-21(32)7-5-4-6-8(25)9(7)15(26)10-12(21)17(28)13-14(24(2)3)16(27)11(20(23)31)19(30)22(13,33)18(10)29/h4-6,12-14,17,25-26,28,30,32-33H,1-3H3,(H2,23,31)
Instrument: Q Exactive Plus Orbitrap Thermo Scientific
Instrument type: LC-ESI-QFT
Ms type: MS2
Ion mode: POSITIVE
Ionization: ESI
Fragmentation mode: HCD
Collision energy: 30 (nominal)
Resolution: 35000
Column name: XBridge C18 3.5um, 2.1x50mm, Waters
Retention time: 4.3 min
Base peak: 461.1547
Precursor m/z: 461.1555
Precursor type: [M+H]+
m/z	relative intensity	assigned
58.0651	5	C3H8N+
86.06	8	C4H8NO+
98.0601	12	C5H8NO+
126.055	11	C6H8NO2+
144.0655	1	C6H10NO3+
153.0181	1	C7H5O4+
154.0499	86	C7H8NO3+
170.0448	5	C7H8NO4+
172.0603	4	C7H10NO4+
174.0675	1	C11H10O2+
178.9976	2	C8H3O5+
180.0653	2	C9H10NO3+
181.0134	1	C8H5O5+
187.0752	1	C12H11O2+
196.0605	4	C9H10NO4+
198.0761	8	C9H12NO4+
201.0547	90	C12H9O3+
203.0703	1	C12H11O3+
208.0606	16	C10H10NO4+
213.0544	6	C13H9O3+
224.0553	1	C10H10NO5+
226.0712	120	C10H12NO5+
239.0703	3	C15H11O3+
243.0971	1	C10H15N2O5+
255.0652	1	C15H11O4+
257.0446	4	C14H9O5+
257.0809	1	C15H13O4+
259.0602	1	C14H11O5+
263.0698	2	C17H11O3+
267.0653	12	C16H11O4+
273.0756	7	C15H13O5+
279.0651	2	C17H11O4+
281.0808	1	C17H13O4+
283.06	18	C16H11O5+
285.0754	4	C16H13O5+
291.0652	3	C18H11O4+
293.0811	1	C18H13O4+
295.0605	3	C17H11O5+
297.0754	2	C17H13O5+
307.0601	10	C18H11O5+
309.0759	5	C18H13O5+
312.1232	6	C18H18NO4+
319.06	5	C19H11O5+
322.0472	1	C18H10O6+
325.0707	5	C18H13O6+
335.0551	24	C19H11O6+
337.0708	128	C19H13O6+
348.0878	1	C20H14NO5+
350.042	2	C19H10O7+
352.081	1	C19H14NO6+
353.0659	13	C19H13O7+
362.1025	4	C21H16NO5+
363.0501	22	C20H11O7+
364.1182	4	C21H18NO5+
365.0658	80	C20H13O7+
375.0739	1	C21H13NO6+
380.113	15	C21H18NO6+
381.0607	203	C20H13O8+
390.097	7	C22H16NO6+
391.1054	3	C22H17NO6+
393.0835	2	C21H15NO7+
398.0871	3	C20H16NO8+
408.1079	107	C22H18NO7+
426.1183	999	C22H20NO8+
443.1451	7	C22H23N2O8+
444.1288	37	C22H22NO9+
458.1447	2	C21H22N4O8+
