Mass spectrum: Amisulpride N-Oxide; LC-ESI-QFT; MS2; CE: 150; R=35000; [M-H]-
Name: Amisulpride N-Oxide
Name: 4-amino-N-[(1-ethyl-1-oxidopyrrolidin-1-ium-2-yl)methyl]-5-ethylsulfonyl-2-methoxybenzamide
Formula: C17H27N3O5S
Exact mass: 385.16714
SMILES: CC[N+]1(CCCC1CNC(=O)C2=CC(=C(C=C2OC)N)S(=O)(=O)CC)[O-]
InChI: InChI=1S/C17H27N3O5S/c1-4-20(22)8-6-7-12(20)11-19-17(21)13-9-16(26(23,24)5-2)14(18)10-15(13)25-3/h9-10,12H,4-8,11,18H2,1-3H3,(H,19,21)
Instrument: Q Exactive Plus Orbitrap Thermo Scientific
Instrument type: LC-ESI-QFT
Ms type: MS2
Ion mode: NEGATIVE
Ionization: ESI
Fragmentation mode: HCD
Collision energy: 150 (nominal)
Resolution: 35000
Column name: XBridge C18 3.5um, 2.1x50mm, Waters
Retention time: 4.2 min
Base peak: 430.1652
Precursor m/z: 384.1599
Precursor type: [M-H]-
m/z	relative intensity	assigned
50.0036	63	C3N-
63.9625	999	O2S-
64.9703	15	HO2S-
65.0033	9	C4HO-
65.0397	11	C5H5-
65.9986	73	C3NO-
66.0349	15	C4H4N-
67.019	2	C4H3O-
68.0142	4	C3H2NO-
74.0037	1	C5N-
76.0194	16	C5H2N-
78.0349	8	C5H4N-
80.0268	23	C5H4O-
88.0193	28	C6H2N-
89.0272	1	C6H3N-
90.0349	66	C6H4N-
91.019	3	C6H3O-
91.0428	4	C6H5N-
92.0142	30	C5H2NO-
92.0506	101	C6H6N-
93.0016	4	C2H5O2S-
93.0347	7	C6H5O-
94.0298	16	C5H4NO-
95.0139	1	C5H3O2-
102.0349	1	C7H4N-
104.0142	19	C6H2NO-
104.038	3	C6H4N2-
105.022	19	C6H3NO-
106.0297	6	C6H4NO-
107.0377	67	C6H5NO-
108.0456	1	C6H6NO-
115.0303	6	C7H3N2-
117.0459	1	C7H5N2-
118.0299	51	C7H4NO-
120.0455	102	C7H6NO-
122.0249	8	C6H4NO2-
122.0612	3	C7H8NO-
132.0092	1	C7H2NO2-
133.0168	1	C7H3NO2-
133.041	4	C7H5N2O-
134.0248	1	C7H4NO2-
135.0327	4	C7H5NO2-
136.0405	1	C7H6NO2-
143.025	1	C8H3N2O-
144.0454	4	C9H6NO-
145.0409	8	C8H5N2O-
146.0249	14	C8H4NO2-
148.0407	7	C8H6NO2-
150.0199	1	C7H4NO3-
160.0284	1	C8H4N2O2-
161.0357	10	C8H5N2O2-
