Mass spectrum: Mandestrobin; LC-ESI-QFT; MS2; CE: 180%; R=17500; [M+H]+
Name: Mandestrobin
Name: 2-[2-[(2,5-dimethylphenoxy)methyl]phenyl]-2-methoxy-N-methylacetamide
Formula: C19H23NO3
Exact mass: 313.1678
SMILES: CC1=CC(=C(C=C1)C)OCC2=CC=CC=C2C(C(=O)NC)OC
InChI: InChI=1S/C19H23NO3/c1-13-9-10-14(2)17(11-13)23-12-15-7-5-6-8-16(15)18(22-4)19(21)20-3/h5-11,18H,12H2,1-4H3,(H,20,21)
Instrument: Exploris 240 Orbitrap Thermo Scientific
Instrument type: LC-ESI-QFT
Ms type: MS2
Ion mode: POSITIVE
Ionization: ESI
Fragmentation mode: HCD
Collision energy: 180 % (nominal)
Resolution: 17500
Column name: XBridge C18 3.5um, 2.1x50mm, Waters
Retention time: 11.127 min
Base peak: 314.1748
Precursor m/z: 314.1751
Precursor type: [M+H]+
m/z	relative intensity	assigned
50.0152	22	C4H2+
51.0229	145	C4H3+
53.0387	45	C4H5+
58.0289	52	C2H4NO+
63.0228	106	C5H3+
65.0385	999	C5H5+
77.0386	163	C6H5+
78.0464	47	C6H6+
79.0541	22	C6H7+
89.0385	346	C7H5+
90.0464	233	C7H6+
91.0541	538	C7H7+
95.0494	49	C6H7O+
103.054	66	C8H7+
115.0543	48	C9H7+
116.0494	102	C8H6N+
117.0572	156	C8H7N+
118.0653	32	C8H8N+
130.0651	68	C9H8N+
131.0728	42	C9H9N+
165.0701	39	C13H9+
178.0778	16	C14H10+
