Mass spectrum: Dehydroepiandrosterone (DHEA); LC-ESI-QFT; MS2; CE: 45; R=35000; [M+H]+
Name: Dehydroepiandrosterone (DHEA)
Name: trans-Dehydroandosterone
Name: (3S,8R,9S,10R,13S,14S)-10,13-dimethyl-3-oxidanyl-1,2,3,4,7,8,9,11,12,14,15,16-dodecahydrocyclopenta[a]phenanthren-17-one
Formula: C19H28O2
Exact mass: 288.20893
SMILES: O=C3[C@]2(CC[C@@H]1[C@@]4(C(=C/C[C@H]1[C@@H]2CC3)\C[C@@H](O)CC4)C)C
InChI: InChI=1S/C19H28O2/c1-18-9-7-13(20)11-12(18)3-4-14-15-5-6-17(21)19(15,2)10-8-16(14)18/h3,13-16,20H,4-11H2,1-2H3/t13-,14-,15-,16-,18-,19-/m0/s1
Instrument: Q Exactive Orbitrap Thermo Scientific
Instrument type: LC-ESI-QFT
Ms type: MS2
Ion mode: POSITIVE
Ionization: ESI
Fragmentation mode: HCD
Collision energy: 45 (nominal)
Resolution: 35000
Column name: XBridge C18 3.5um, 2.1x50mm, Waters
Retention time: 11.2 min
Base peak: 271.2057
Precursor m/z: 289.2162
Precursor type: [M+H]+
m/z	relative intensity	assigned
53.0384	1	C4H5+
65.0385	1	C5H5+
67.0542	71	C5H7+
69.0698	37	C5H9+
71.0491	22	C4H7O+
71.0855	1	C5H11+
77.0383	2	C6H5+
79.0542	65	C6H7+
81.0699	290	C6H9+
83.0491	18	C5H7O+
83.0855	37	C6H11+
85.0647	9	C5H9O+
91.0542	96	C7H7+
93.0698	107	C7H9+
95.0491	7	C6H7O+
95.0855	100	C7H11+
97.0648	105	C6H9O+
99.0804	6	C6H11O+
103.0543	1	C8H7+
105.0699	146	C8H9+
107.0855	116	C8H11+
109.0648	11	C7H9O+
109.1012	44	C8H13+
111.0804	8	C7H11O+
115.054	6	C9H7+
117.0698	73	C9H9+
119.0855	114	C9H11+
121.0648	5	C8H9O+
121.1011	83	C9H13+
123.0803	15	C8H11O+
123.1166	9	C9H15+
125.0957	2	C8H13O+
128.062	10	C10H8+
129.0699	48	C10H9+
130.0777	2	C10H10+
131.0855	202	C10H11+
133.1011	363	C10H13+
135.1168	148	C10H15+
137.096	13	C9H13O+
139.1117	1	C9H15O+
141.0699	32	C11H9+
142.0777	12	C11H10+
143.0856	116	C11H11+
144.0937	2	C11H12+
145.1012	353	C11H13+
147.1168	168	C11H15+
149.096	11	C10H13O+
149.1326	15	C11H17+
151.1117	18	C10H15O+
155.0855	77	C12H11+
156.0936	11	C12H12+
157.1012	369	C12H13+
158.109	2	C12H14+
159.1168	311	C12H15+
161.0961	15	C11H13O+
161.1325	26	C12H17+
163.1116	39	C11H15O+
167.0854	2	C13H11+
168.0936	9	C13H12+
169.1011	103	C13H13+
170.1092	2	C13H14+
171.1167	315	C13H15+
172.1241	1	C13H16+
173.1324	144	C13H17+
175.1117	21	C12H15O+
175.1481	19	C13H19+
177.1273	8	C12H17O+
181.1015	3	C14H13+
182.1092	29	C14H14+
183.1169	178	C14H15+
184.1243	12	C14H16+
185.1325	144	C14H17+
186.1401	7	C14H18+
187.1482	28	C14H19+
189.1277	8	C13H17O+
189.1635	12	C14H21+
191.1434	2	C13H19O+
195.1165	6	C15H15+
196.1246	14	C15H16+
197.1324	490	C15H17+
198.1402	30	C15H18+
199.1481	23	C15H19+
201.1272	2	C14H17O+
201.1637	28	C15H21+
203.143	5	C14H19O+
209.1324	8	C16H17+
210.1403	2	C16H18+
211.1481	189	C16H19+
212.1563	8	C16H20+
213.1637	999	C16H21+
215.1431	15	C15H19O+
223.1483	8	C17H19+
224.1561	19	C17H20+
225.1637	128	C17H21+
227.1792	13	C17H23+
229.1587	29	C16H21O+
229.195	1	C17H25+
231.1743	68	C16H23O+
237.1629	1	C18H21+
238.1715	29	C18H22+
251.1789	1	C19H23+
253.195	343	C19H25+
271.2056	59	C19H27O+
