Mass spectrum: Rifaximin; LC-ESI-QFT; MS2; CE: 75; R=35000; [M-H]-
Name: Rifaximin
Name: (7S,9E,11S,12R,13S,14R,15R,16R,17S,18S,19E,21Z)-2,15,17,36-Tetrahydroxy-11-methoxy-3,7,12,14,16,18,22,30-octamethyl-6,23-dioxo-8,37-dioxa-24,27,33-triazahexacyclo[23.10.1.14,7.05,35.026,34.027, 32]heptatriaconta-1(35),2,4,9,19,21,25(36),26(34),28,30,32-undecaen-13-yl acetate
Formula: C43H51N3O11
Exact mass: 785.35236
SMILES: CC1C=CC=C(C(=O)NC2=C(C3=C(C4=C(C(=C3O)C)OC(C4=O)(OC=CC(C(C(C(C(C(C1O)C)O)C)OC(=O)C)C)OC)C)C5=C2N6C=CC(=CC6=N5)C)O)C
InChI: InChI=1S/C43H51N3O11/c1-19-14-16-46-28(18-19)44-32-29-30-37(50)25(7)40-31(29)41(52)43(9,57-40)55-17-15-27(54-10)22(4)39(56-26(8)47)24(6)36(49)23(5)35(48)20(2)12-11-13-21(3)42(53)45-33(34(32)46)38(30)51/h11-18,20,22-24,27,35-36,39,48-51H,1-10H3,(H,45,53)
Instrument: Q Exactive Plus Orbitrap Thermo Scientific
Instrument type: LC-ESI-QFT
Ms type: MS2
Ion mode: NEGATIVE
Ionization: ESI
Fragmentation mode: HCD
Collision energy: 75 (nominal)
Resolution: 35000
Column name: XBridge C18 3.5um, 2.1x50mm, Waters
Retention time: 10.9 min
Base peak: 784.3448
Precursor m/z: 784.3451
Precursor type: [M-H]-
m/z	relative intensity	assigned
55.0189	25	C3H3O-
57.0345	45	C3H5O-
59.0138	715	C2H3O2-
65.0144	5	C3HN2-
65.0396	8	C5H5-
65.9985	34	C3NO-
66.035	7	C4H4N-
68.9983	8	C3HO2-
71.0139	81	C3H3O2-
79.0553	12	C6H7-
81.0345	21	C5H5O-
83.0502	63	C5H7O-
85.0295	11	C4H5O2-
95.0503	5	C6H7O-
97.0658	6	C6H9O-
104.0506	5	C7H6N-
105.071	28	C8H9-
107.0378	10	C6H5NO-
107.0502	42	C7H7O-
108.0455	108	C6H6NO-
121.0534	40	C7H7NO-
121.0659	136	C8H9O-
123.0815	59	C8H11O-
125.0607	10	C7H9O2-
131.0613	5	C8H7N2-
134.0612	7	C8H8NO-
136.0768	90	C8H10NO-
155.0376	12	C10H5NO-
156.0566	66	C9H6N3-
183.0332	5	C11H5NO2-
200.035	9	C11H6NO3-
221.0722	6	C14H9N2O-
222.0668	6	C13H8N3O-
223.0514	7	C13H7N2O2-
224.0356	11	C13H6NO3-
226.0506	9	C13H8NO3-
231.093	9	C16H11N2-
232.0877	5	C15H10N3-
233.072	8	C15H9N2O-
234.0798	6	C15H10N2O-
235.0751	52	C14H9N3O-
235.0875	39	C15H11N2O-
239.0464	7	C13H7N2O3-
241.0618	49	C13H9N2O3-
244.0891	8	C16H10N3-
246.0792	22	C16H10N2O-
247.0876	44	C16H11N2O-
248.0587	6	C15H8N2O2-
248.0832	55	C15H10N3O-
249.067	30	C15H9N2O2-
249.0909	131	C15H11N3O-
249.1029	19	C16H13N2O-
250.0985	75	C15H12N3O-
251.0464	25	C14H7N2O3-
258.1031	12	C17H12N3-
259.0755	8	C16H9N3O-
259.0874	38	C17H11N2O-
260.0824	29	C16H10N3O-
260.0958	27	C17H12N2O-
261.0665	25	C16H9N2O2-
261.0905	38	C16H11N3O-
261.103	17	C17H13N2O-
262.0622	9	C15H8N3O2-
262.0752	102	C16H10N2O2-
262.0984	161	C16H12N3O-
263.0697	127	C15H9N3O2-
263.0825	86	C16H11N2O2-
265.062	47	C15H9N2O3-
267.0416	11	C14H7N2O4-
271.0879	8	C18H11N2O-
272.0833	28	C17H10N3O-
273.0682	7	C17H9N2O2-
273.0899	21	C17H11N3O-
274.0748	19	C17H10N2O2-
274.0982	12	C17H12N3O-
275.0829	78	C17H11N2O2-
276.0774	129	C16H10N3O2-
276.0905	133	C17H12N2O2-
276.1134	53	C17H14N3O-
277.0854	534	C16H11N3O2-
277.0986	86	C17H13N2O2-
278.0703	15	C16H10N2O3-
278.0935	132	C16H12N3O2-
279.0775	207	C16H11N2O3-
280.0477	6	C15H8N2O4-
285.0902	22	C18H11N3O-
286.0745	20	C18H10N2O2-
286.0986	136	C18H12N3O-
287.0709	11	C17H9N3O2-
287.0834	73	C18H11N2O2-
288.0775	85	C17H10N3O2-
288.0912	15	C18H12N2O2-
288.1137	59	C18H14N3O-
289.0616	25	C17H9N2O3-
289.0854	148	C17H11N3O2-
289.0988	39	C18H13N2O2-
290.0937	192	C17H12N3O2-
291.0777	47	C17H11N2O3-
291.1015	18	C17H13N3O2-
292.0722	28	C16H10N3O3-
292.0858	23	C17H12N2O3-
292.109	50	C17H14N3O2-
293.0568	21	C16H9N2O4-
293.0939	11	C17H13N2O3-
294.0889	41	C16H12N3O3-
298.0982	12	C19H12N3O-
299.0839	9	C19H11N2O2-
300.0769	26	C18H10N3O2-
300.0908	20	C19H12N2O2-
301.0849	32	C18H11N3O2-
301.0986	31	C19H13N2O2-
302.0934	61	C18H12N3O2-
303.078	55	C18H11N2O3-
303.1008	33	C18H13N3O2-
304.0711	84	C14H12N2O6-
304.0865	31	C18H12N2O3-
304.1091	361	C18H14N3O2-
305.0796	25	C17H11N3O3-
305.094	151	C18H13N2O3-
306.0885	492	C17H12N3O3-
308.1043	48	C17H14N3O3-
309.0747	5	C16H11N3O4-
313.0854	27	C19H11N3O2-
314.0935	148	C19H12N3O2-
315.078	130	C19H11N2O3-
316.0706	103	C15H12N2O6-
316.0863	41	C19H12N2O3-
316.1093	34	C19H14N3O2-
317.057	8	C18H9N2O4-
317.0936	41	C19H13N2O3-
318.0639	24	C18H10N2O4-
318.087	24	C15H14N2O6-
318.103	15	C22H12N3-
319.0738	41	C18H11N2O4-
320.0674	7	C17H10N3O4-
320.1038	10	C18H14N3O3-
328.1078	8	C20H14N3O2-
329.0941	113	C20H13N2O3-
330.0884	999	C19H12N3O3-
331.0722	174	C19H11N2O4-
331.096	44	C19H13N3O3-
332.0807	48	C19H12N2O4-
332.104	407	C19H14N3O3-
333.0887	176	C19H13N2O4-
333.1117	31	C19H15N3O3-
334.0836	129	C18H12N3O4-
334.1189	60	C19H16N3O3-
340.1091	10	C21H14N3O2-
342.0884	49	C20H12N3O3-
343.0725	56	C20H11N2O4-
343.096	90	C20H13N3O3-
344.066	26	C19H10N3O4-
344.0821	21	C23H10N3O-
344.1041	29	C20H14N3O3-
345.0895	222	C20H13N2O4-
346.0816	52	C16H14N2O7-
347.1042	208	C20H15N2O4-
356.1045	10	C21H14N3O3-
358.0832	166	C20H12N3O4-
358.1188	9	C18H18N2O6-
359.0909	313	C20H13N3O4-
360.0989	657	C20H14N3O4-
361.1069	26	C20H15N3O4-
362.1147	85	C20H16N3O4-
369.0882	7	C22H13N2O4-
370.0839	32	C21H12N3O4-
370.1186	7	C22H16N3O3-
371.1047	46	C22H15N2O4-
372.0989	50	C21H14N3O4-
373.1057	8	C21H15N3O4-
374.1131	24	C21H16N3O4-
382.1199	6	C23H16N3O3-
386.0778	45	C21H12N3O5-
386.1145	10	C22H16N3O4-
388.0924	11	C21H14N3O5-
412.1299	7	C24H18N3O4-
423.137	7	C26H19N2O4-
424.1295	8	C25H18N3O4-
