Mass spectrum: Pyrazophos; LC-ESI-QFT; MS2; CE: 75%; R=17500; [M+H]+
Name: Pyrazophos
Name: ethyl 2-diethoxyphosphinothioyloxy-5-methylpyrazolo[1,5-a]pyrimidine-6-carboxylate
Formula: C14H20N3O5PS
Exact mass: 373.0861
SMILES: CCOC(=O)C1=CN2C(=CC(=N2)OP(=S)(OCC)OCC)N=C1C
InChI: InChI=1S/C14H20N3O5PS/c1-5-19-14(18)11-9-17-12(15-10(11)4)8-13(16-17)22-23(24,20-6-2)21-7-3/h8-9H,5-7H2,1-4H3
Instrument: Exploris 240 Orbitrap Thermo Scientific
Instrument type: LC-ESI-QFT
Ms type: MS2
Ion mode: POSITIVE
Ionization: ESI
Fragmentation mode: HCD
Collision energy: 75 % (nominal)
Resolution: 17500
Column name: XBridge C18 3.5um, 2.1x50mm, Waters
Retention time: 11.575 min
Base peak: 374.0932
Precursor m/z: 374.0934
Precursor type: [M+H]+
m/z	relative intensity	assigned
54.0339	6	C3H4N+
64.9786	84	H2O2P+
80.9736	12	H2O3P+
92.0493	9	C6H6N+
93.0101	33	C2H6O2P+
93.0445	22	C5H5N2+
94.0286	26	C5H4NO+
95.0603	12	C5H7N2+
96.9507	278	H2O2PS+
98.9838	16	H4O4P+
113.9536	126	H3O3PS+
114.9614	200	H4O3PS+
120.0556	41	C6H6N3+
121.0396	26	C6H5N2O+
139.0506	52	C2H10N3O2P+
148.0506	263	C7H6N3O+
159.0428	51	C8H5N3O+
166.0611	118	C7H8N3O2+
176.0454	768	C8H6N3O2+
177.0299	53	C4H8N3O3P+
177.0533	225	C8H7N3O2+
178.0605	11	C8H8N3O2+
181.0067	61	C7H5N2O2S+
183.0222	153	C7H7N2O2S+
192.022	17	C8H6N3OS+
194.056	999	C8H8N3O3+
208.0182	12	C12H5N2P+
210.0331	30	C8H8N3O2S+
211.0534	13	C9H11N2O2S+
222.0873	29	C10H12N3O3+
