Mass spectrum: Microcystin-RR; LC-ESI-QFT; MS2; CE: 75; R=35000; [M+H]+
Name: Microcystin-RR
Name: (5R,8R,11R,12S,15S,18S,19S,22R)-8,15-bis[3-(diaminomethylideneamino)propyl]-18-[(1E,3E,5S,6S)-6-methoxy-3,5-dimethyl-7-phenylhepta-1,3-dienyl]-1,5,12,19-tetramethyl-2-methylidene-3,6,9,13,16,20,25-heptaoxo-1,4,7,10,14,17,21-heptazacyclopentacosane-11,22-dicarboxylic acid
Formula: C49H75N13O12
Exact mass: 1037.56581
SMILES: O=C2N[C@@H](\C=C\C(=C\[C@H](C)[C@@H](OC)Cc1ccccc1)C)[C@@H](C(=O)N[C@@H](C(=O)O)CCC(=O)N(/C(=C)C(=O)N[C@@H](C(=O)N[C@@H](C(=O)N[C@@H](C(=O)O)[C@@H](C(=O)N[C@H]2CCC/N=C(\N)N)C)CCC/N=C(\N)N)C)C)C
InChI: InChI=1S/C49H75N13O12/c1-26(24-27(2)37(74-8)25-32-14-10-9-11-15-32)18-19-33-28(3)40(64)60-36(46(70)71)20-21-38(63)62(7)31(6)43(67)56-30(5)42(66)59-35(17-13-23-55-49(52)53)45(69)61-39(47(72)73)29(4)41(65)58-34(44(68)57-33)16-12-22-54-48(50)51/h9-11,14-15,18-19,24,27-30,33-37,39H,6,12-13,16-17,20-23,25H2,1-5,7-8H3,(H,56,67)(H,57,68)(H,58,65)(H,59,66)(H,60,64)(H,61,69)(H,70,71)(H,72,73)(H4,50,51,54)(H4,52,53,55)/b19-18+,26-24+/t27-,28-,29-,30+,33-,34-,35+,36+,37-,39+/m0/s1
Instrument: Q Exactive Orbitrap Thermo Scientific
Instrument type: LC-ESI-QFT
Ms type: MS2
Ion mode: POSITIVE
Ionization: ESI
Fragmentation mode: HCD
Collision energy: 75 (nominal)
Resolution: 35000
Column name: XBridge C18 3.5um, 2.1x50mm, Waters
Retention time: 9.1 min
Base peak: 519.7909
Precursor m/z: 1038.5731
Precursor type: [M+H]+
m/z	relative intensity	assigned
72.0808	19	C4H10N+
74.0601	4	C3H8NO+
74.0965	3	C4H12N+
77.0386	42	C6H5+
79.0543	133	C6H7+
80.0495	31	C5H6N+
81.0336	12	C5H5O+
81.07	5	C6H9+
82.0288	35	C4H4NO+
82.0652	75	C5H8N+
83.0605	3	C4H7N2+
84.0445	140	C4H6NO+
85.0286	18	C4H5O2+
85.0761	22	C4H9N2+
86.0601	30	C4H8NO+
86.0715	3	C3H8N3+
87.0792	4	C3H9N3+
91.0543	370	C7H7+
92.0622	3	C7H8+
93.07	108	C7H9+
94.0653	34	C6H8N+
95.0492	311	C6H7O+
95.0605	69	C5H7N2+
96.0445	27	C5H6NO+
96.0808	16	C6H10N+
97.0761	92	C5H9N2+
98.0601	84	C5H8NO+
99.019	23	C3H3N2O2+
99.0918	91	C5H11N2+
100.0759	9	C5H10NO+
102.0466	23	C8H6+
102.0552	9	C4H8NO2+
103.0543	999	C8H7+
104.0578	10	C3H8N2O2+
105.0448	55	C6H5N2+
105.07	433	C8H9+
106.0527	3	C6H6N2+
106.0733	2	C3H10N2O2+
107.0856	273	C8H11+
108.0682	4	C6H8N2+
108.0808	15	C7H10N+
109.0649	42	C7H9O+
109.0761	4	C6H9N2+
110.0238	2	C5H4NO2+
110.0601	27	C6H8NO+
110.0715	4	C5H8N3+
110.0966	10	C7H12N+
111.0553	2	C5H7N2O+
111.0918	11	C6H11N2+
112.0394	12	C5H6NO2+
112.0871	170	C5H10N3+
113.0234	29	C5H5O3+
113.071	37	C5H9N2O+
114.0551	13	C5H8NO2+
114.1027	16	C5H12N3+
115.0504	8	C4H7N2O2+
115.0543	134	C9H7+
115.0867	70	C5H11N2O+
116.062	4	C9H8+
116.0707	17	C5H10NO2+
117.07	126	C9H9+
118.0651	4	C8H8N+
119.0604	12	C7H7N2+
119.0856	32	C9H11+
120.0568	18	C8H8O+
120.0809	26	C8H10N+
121.0648	3	C8H9O+
121.0761	36	C7H9N2+
122.0601	14	C7H8NO+
122.0716	5	C6H8N3+
122.0965	12	C8H12N+
123.0554	10	C6H7N2O+
123.0917	25	C7H11N2+
124.0395	2	C6H6NO2+
124.0756	5	C7H10NO+
124.0869	6	C6H10N3+
124.1124	3	C8H14N+
125.0713	20	C6H9N2O+
125.1075	3	C7H13N2+
126.0663	2	C5H8N3O+
127.0867	466	C6H11N2O+
128.0344	10	C5H6NO3+
128.062	17	C10H8+
128.0708	3	C6H10NO2+
128.0901	2	CH12N4O3+
129.0699	11	C10H9+
130.0501	16	C5H8NO3+
130.0652	3	C9H8N+
130.0779	2	C10H10+
130.0977	14	C5H12N3O+
131.0855	23	C10H11+
132.0808	4	C9H10N+
133.1016	4	C10H13+
135.0805	165	C9H11O+
135.1169	33	C10H15+
136.0758	13	C8H10NO+
136.1123	2	C9H14N+
137.0714	3	C7H9N2O+
137.1078	4	C8H13N2+
138.0552	12	C7H8NO2+
138.0662	10	C6H8N3O+
138.0915	6	C8H12NO+
138.1028	5	C7H12N3+
139.0867	23	C7H11N2O+
140.0708	4	C7H10NO2+
140.0819	18	C6H10N3O+
141.0658	54	C6H9N2O2+
141.1025	2	C7H13N2O+
143.0859	4	C11H11+
144.0809	3	C10H10N+
145.1013	9	C11H13+
146.0962	3	C10H12N+
147.0807	2	C10H11O+
149.0712	31	C8H9N2O+
150.103	12	C8H12N3+
151.0866	21	C8H11N2O+
152.0709	12	C8H10NO2+
152.082	4	C7H10N3O+
153.1024	10	C8H13N2O+
155.0816	11	C7H11N2O2+
157.1085	13	C6H13N4O+
158.0919	4	C6H12N3O2+
160.1119	2	C11H14N+
162.1029	4	C9H12N3+
163.0865	17	C9H11N2O+
163.1117	5	C11H15O+
164.0707	16	C9H10NO2+
164.0822	3	C8H10N3O+
165.0703	3	C13H9+
165.1026	10	C9H13N2O+
166.0976	5	C8H12N3O+
167.0814	81	C8H11N2O2+
168.0656	14	C8H10NO3+
169.0973	2	C8H13N2O2+
170.0966	13	C12H12N+
172.1123	16	C12H14N+
177.1026	2	C10H13N2O+
178.0979	10	C9H12N3O+
180.1132	7	C9H14N3O+
181.0975	3	C9H13N2O2+
182.1038	5	C7H12N5O+
182.1287	4	C9H16N3O+
194.0921	3	C9H12N3O2+
195.0765	25	C9H11N2O3+
196.0603	4	C9H10NO4+
199.1084	2	C9H15N2O3+
201.098	6	C7H13N4O3+
209.0925	4	C10H13N2O3+
213.087	12	C9H13N2O4+
239.0666	3	C10H11N2O5+
