Mass spectrum: Isoxaben; LC-ESI-QFT; MS2; CE: 30; R=35000; [M-H]-
Name: Isoxaben
Name: 2,6-dimethoxy-N-[3-(3-methylpentan-3-yl)-1,2-oxazol-5-yl]benzamide
Formula: C18H24N2O4
Exact mass: 332.17361
SMILES: CCC(C)(CC)C1=NOC(=C1)NC(=O)C2=C(C=CC=C2OC)OC
InChI: InChI=1S/C18H24N2O4/c1-6-18(3,7-2)14-11-15(24-20-14)19-17(21)16-12(22-4)9-8-10-13(16)23-5/h8-11H,6-7H2,1-5H3,(H,19,21)
Instrument: Q Exactive Plus Orbitrap Thermo Scientific
Instrument type: LC-ESI-QFT
Ms type: MS2
Ion mode: NEGATIVE
Ionization: ESI
Fragmentation mode: HCD
Collision energy: 30 (nominal)
Resolution: 35000
Column name: XBridge C18 3.5um, 2.1x50mm, Waters
Retention time: 10.6 min
Base peak: 331.1659
Precursor m/z: 331.1663
Precursor type: [M-H]-
m/z	relative intensity	assigned
65.0145	1	C3HN2-
65.9985	3	C3NO-
72.9932	46	C2HO3-
83.0502	1	C5H7O-
93.0345	12	C6H5O-
102.0348	5	C7H4N-
105.0346	4	C7H5O-
107.0502	14	C7H7O-
118.0299	2	C7H4NO-
121.0295	10	C7H5O2-
122.0373	3	C7H6O2-
132.0454	24	C8H6NO-
133.0293	2	C8H5O2-
134.0373	1	C8H6O2-
135.0451	13	C8H7O2-
137.0608	129	C8H9O2-
148.0404	17	C8H6NO2-
151.04	4	C8H7O3-
161.0245	3	C9H5O3-
162.0195	1	C8H4NO3-
162.0323	10	C9H6O3-
162.056	20	C9H8NO2-
164.0715	9	C9H10NO2-
166.1111	1	C9H14N2O-
167.1191	4	C9H15N2O-
176.0354	1	C9H6NO3-
181.0505	5	C9H9O4-
188.0352	6	C10H6NO3-
190.0147	3	C9H4NO4-
202.0507	1	C11H8NO3-
205.038	13	C10H7NO4-
206.0458	5	C10H8NO4-
215.046	1	C11H7N2O3-
220.0615	200	C11H10NO4-
331.1663	999	C18H23N2O4-
