Mass spectrum: Cimetidine; LC-ESI-QFT; MS2; CE: 90; R=35000; [M-H]-
Name: Cimetidine
Name: 1-cyano-2-methyl-3-[2-[(5-methyl-1H-imidazol-4-yl)methylsulfanyl]ethyl]guanidine
Formula: C10H16N6S
Exact mass: 252.11572
SMILES: CC1=C(N=CN1)CSCCNC(=NC)NC#N
InChI: InChI=1S/C10H16N6S/c1-8-9(16-7-15-8)5-17-4-3-13-10(12-2)14-6-11/h7H,3-5H2,1-2H3,(H,15,16)(H2,12,13,14)
Instrument: Q Exactive Plus Orbitrap Thermo Scientific
Instrument type: LC-ESI-QFT
Ms type: MS2
Ion mode: NEGATIVE
Ionization: ESI
Fragmentation mode: HCD
Collision energy: 90 (nominal)
Resolution: 35000
Column name: XBridge C18 3.5um, 2.1x50mm, Waters
Retention time: 2.0 min
Base peak: 251.108
Precursor m/z: 251.1084
Precursor type: [M-H]-
m/z	relative intensity	assigned
55.0301	999	C2H3N2-
66.0098	81	C2N3-
76.0227	7	C2H6NS-
80.0254	8	C3H2N3-
97.0519	626	C3H5N4-
121.0519	3	C5H5N4-
123.0677	45	C5H7N4-
