Mass spectrum: Famoxadone; LC-ESI-QFT; MS2; CE: 75; R=35000; [M+H]+
Name: Famoxadone
Name: 3-anilino-5-methyl-5-(4-phenoxyphenyl)-1,3-oxazolidine-2,4-dione
Formula: C22H18N2O4
Exact mass: 374.12666
SMILES: O=C2OC(C(=O)N2Nc1ccccc1)(c4ccc(Oc3ccccc3)cc4)C
InChI: InChI=1S/C22H18N2O4/c1-22(16-12-14-19(15-13-16)27-18-10-6-3-7-11-18)20(25)24(21(26)28-22)23-17-8-4-2-5-9-17/h2-15,23H,1H3
Instrument: Q Exactive Orbitrap Thermo Scientific
Instrument type: LC-ESI-QFT
Ms type: MS2
Ion mode: POSITIVE
Ionization: ESI
Fragmentation mode: HCD
Collision energy: 75 (nominal)
Resolution: 35000
Column name: XBridge C18 3.5um, 2.1x50mm, Waters
Retention time: 13.5 min
Base peak: 331.144
Precursor m/z: 375.1339
Precursor type: [M+H]+
m/z	relative intensity	assigned
65.0386	884	C5H5+
66.0464	20	C5H6+
72.0444	23	C3H6NO+
77.0385	21	C6H5+
80.0495	29	C5H6N+
89.0386	162	C7H5+
91.0543	33	C7H7+
92.0494	994	C6H6N+
93.0572	999	C6H7N+
95.049	203	C6H7O+
102.0463	120	C8H6+
105.0447	26	C6H5N2+
107.0604	321	C6H7N2+
111.044	89	C6H7O2+
117.0334	31	C8H5O+
117.0572	36	C8H7N+
119.0492	39	C8H7O+
128.0495	57	C9H6N+
141.0699	37	C11H9+
146.0602	215	C9H8NO+
152.0621	138	C12H8+
165.0697	140	C13H9+
166.0779	26	C13H10+
167.0725	29	C12H9N+
167.0852	37	C13H11+
168.0803	31	C12H10N+
192.0806	34	C14H10N+
193.0884	88	C14H11N+
195.0805	339	C14H11O+
210.1151	30	C14H14N2+
224.0705	38	C14H10NO2+
