Mass spectrum: Chlorothalonil-TP R417888; LC-ESI-QFT; MS2; CE: 90%; R=17500; [M-H]-
Name: Chlorothalonil-TP R417888
Name: 2-carbamoyl-3,5,6-trichloro-4-cyanobenzenesulfonic acid
Formula: C8H3Cl3N2O4S
Exact mass: 327.8879
SMILES: NC(=O)C1=C(C(Cl)=C(Cl)C(C#N)=C1Cl)S(O)(=O)=O
InChI: InChI=1S/C8H3Cl3N2O4S/c9-4-2(1-12)5(10)6(11)7(18(15,16)17)3(4)8(13)14/h(H2,13,14)(H,15,16,17)
Instrument: Q Exactive Orbitrap Thermo Scientific
Instrument type: LC-ESI-QFT
Ms type: MS2
Ion mode: NEGATIVE
Ionization: ESI
Fragmentation mode: HCD
Collision energy: 90 % (nominal)
Resolution: 17500
Column name: XBridge C18 3.5um, 2.1x50mm, Waters
Retention time: 3.266 min
Base peak: 326.8806
Precursor m/z: 326.8806
Precursor type: [M-H]-
m/z	relative intensity	assigned
79.9573	250	O3S-
96.96	687	HO4S-
113.9984	199	C7NO-
114.9262	169	ClO3S-
155.9412	999	C6Cl2N-
183.9357	735	C7Cl2NO-
219.9131	179	C7HCl3NO-
