Mass spectrum: Progesterone; LC-ESI-QFT; MS2; CE: 45; R=35000; [M+H]+
Name: Progesterone
Name: (8S,9S,10R,13S,14S,17S)-17-acetyl-10,13-dimethyl-1,2,6,7,8,9,11,12,14,15,16,17-dodecahydrocyclopenta[a]phenanthren-3-one
Formula: C21H30O2
Exact mass: 314.22458
SMILES: O=C4\C=C2/[C@]([C@H]1CC[C@@]3([C@@H](C(=O)C)CC[C@H]3[C@@H]1CC2)C)(C)CC4
InChI: InChI=1S/C21H30O2/c1-13(22)17-6-7-18-16-5-4-14-12-15(23)8-10-20(14,2)19(16)9-11-21(17,18)3/h12,16-19H,4-11H2,1-3H3/t16-,17+,18-,19-,20-,21+/m0/s1
Instrument: Q Exactive Orbitrap Thermo Scientific
Instrument type: LC-ESI-QFT
Ms type: MS2
Ion mode: POSITIVE
Ionization: ESI
Fragmentation mode: HCD
Collision energy: 45 (nominal)
Resolution: 35000
Column name: XBridge C18 3.5um, 2.1x50mm, Waters
Retention time: 13.1 min
Base peak: 315.232
Precursor m/z: 315.2319
Precursor type: [M+H]+
m/z	relative intensity	assigned
67.0543	10	C5H7+
69.0335	1	C4H5O+
69.0699	9	C5H9+
71.0492	6	C4H7O+
79.0543	37	C6H7+
81.0699	46	C6H9+
83.0492	37	C5H7O+
83.0855	3	C6H11+
85.0649	29	C5H9O+
91.0542	11	C7H7+
93.0699	22	C7H9+
95.0492	4	C6H7O+
95.0855	40	C7H11+
97.0649	999	C6H9O+
99.0805	1	C6H11O+
105.0699	18	C8H9+
107.0491	1	C7H7O+
107.0856	25	C8H11+
109.0648	977	C7H9O+
111.0805	4	C7H11O+
117.0699	3	C9H9+
119.0856	26	C9H11+
121.0648	6	C8H9O+
121.1012	31	C9H13+
123.0804	89	C8H11O+
123.1167	4	C9H15+
125.0961	1	C8H13O+
129.0702	1	C10H9+
131.0856	20	C10H11+
133.1013	29	C10H13+
135.0806	4	C9H11O+
135.1168	13	C10H15+
137.0962	16	C9H13O+
137.1325	1	C10H17+
143.0857	8	C11H11+
145.1012	31	C11H13+
147.0805	1	C10H11O+
147.1169	28	C11H15+
149.0962	10	C10H13O+
149.1326	9	C11H17+
151.1118	4	C10H15O+
155.0855	3	C12H11+
157.1012	15	C12H13+
159.1169	34	C12H15+
161.0959	1	C11H13O+
161.1324	18	C12H17+
163.1117	18	C11H15O+
163.1482	4	C12H19+
169.101	4	C13H13+
171.1168	15	C13H15+
173.1325	29	C13H17+
175.1118	4	C12H15O+
175.1482	8	C13H19+
177.1273	19	C12H17O+
181.1017	1	C14H13+
183.1169	9	C14H15+
185.1326	12	C14H17+
187.1119	3	C13H15O+
187.1481	14	C14H19+
189.1273	11	C13H17O+
189.1638	6	C14H21+
191.1432	8	C13H19O+
195.1169	1	C15H15+
197.1325	9	C15H17+
199.1482	12	C15H19+
201.1273	2	C14H17O+
201.1638	14	C15H21+
203.1434	3	C14H19O+
205.1587	2	C14H21O+
209.1327	4	C16H17+
211.1478	6	C16H19+
213.1277	1	C15H17O+
213.1636	12	C16H21+
215.1432	5	C15H19O+
215.1795	11	C16H23+
223.1481	8	C17H19+
227.1431	2	C16H19O+
227.1798	7	C17H23+
229.1589	3	C16H21O+
231.1745	1	C16H23O+
233.1903	1	C16H25O+
237.1642	4	C18H21+
239.1796	16	C18H23+
241.1586	6	C17H21O+
245.1905	3	C17H25O+
251.1787	1	C19H23+
253.1954	6	C19H25+
255.1742	2	C18H23O+
255.2109	21	C19H27+
257.1906	1	C18H25O+
273.2213	5	C19H29O+
279.2108	18	C21H27+
297.2212	28	C21H29O+
315.2319	24	C21H31O2+
