Mass spectrum: Haloperidol; LC-ESI-QFT; MS2; CE: 120; R=35000; [M+H]+
Name: Haloperidol
Name: 4-[4-(4-chlorophenyl)-4-hydroxypiperidin-1-yl]-1-(4-fluorophenyl)butan-1-one
Formula: C21H23ClFNO2
Exact mass: 375.14013
SMILES: C1CN(CCC1(C2=CC=C(C=C2)Cl)O)CCCC(=O)C3=CC=C(C=C3)F
InChI: InChI=1S/C21H23ClFNO2/c22-18-7-5-17(6-8-18)21(26)11-14-24(15-12-21)13-1-2-20(25)16-3-9-19(23)10-4-16/h3-10,26H,1-2,11-15H2
Instrument: Q Exactive Plus Orbitrap Thermo Scientific
Instrument type: LC-ESI-QFT
Ms type: MS2
Ion mode: POSITIVE
Ionization: ESI
Fragmentation mode: HCD
Collision energy: 120 (nominal)
Resolution: 35000
Column name: XBridge C18 3.5um, 2.1x50mm, Waters
Retention time: 6.8 min
Base peak: 376.1475
Precursor m/z: 376.1474
Precursor type: [M+H]+
m/z	relative intensity	assigned
50.0151	12	C4H2+
51.0229	7	C4H3+
53.0022	16	C3HO+
55.0178	2	C3H3O+
57.0135	1	C3H2F+
65.0385	4	C5H5+
69.0134	2	C4H2F+
71.0291	68	C4H4F+
73.0084	4	C3H2FO+
74.0151	49	C6H2+
75.0229	360	C6H3+
79.0178	22	C5H3O+
83.0291	4	C5H4F+
89.0386	2	C7H5+
93.0335	18	C6H5O+
95.0292	141	C6H4F+
97.0448	1	C6H6F+
99.0241	13	C5H4FO+
102.0464	1	C8H6+
109.0449	15	C7H6F+
111.0441	9	C6H7O2+
112.032	2	C6H5FO+
113.0397	482	C6H6FO+
115.0543	6	C9H7+
123.0242	478	C7H4FO+
123.0352	999	C6H4FN2+
124.0324	7	C4H8ClFN+
125.0155	2	C7H6Cl+
128.0619	2	C10H8+
129.0447	1	C8H5N2+
129.0699	1	C10H9+
133.0447	1	C9H6F+
146.0526	5	C10H7F+
