Mass spectrum: Rosuvastatin; LC-ESI-ITFT; MS2; CE: 45%; R=15000; [M+H]+
Name: Rosuvastatin
Name: (E,3R,5S)-7-[4-(4-fluorophenyl)-2-[methyl(methylsulfonyl)amino]-6-propan-2-ylpyrimidin-5-yl]-3,5-dihydroxyhept-6-enoic acid
Formula: C22H28FN3O6S
Exact mass: 481.16828
SMILES: CC(C)C1=NC(=NC(=C1/C=C/[C@H](C[C@H](CC(=O)O)O)O)C2=CC=C(C=C2)F)N(C)S(=O)(=O)C
InChI: InChI=1S/C22H28FN3O6S/c1-13(2)20-18(10-9-16(27)11-17(28)12-19(29)30)21(14-5-7-15(23)8-6-14)25-22(24-20)26(3)33(4,31)32/h5-10,13,16-17,27-28H,11-12H2,1-4H3,(H,29,30)/b10-9+/t16-,17-/m1/s1
Instrument: LTQ Orbitrap XL Thermo Scientific
Instrument type: LC-ESI-ITFT
Ms type: MS2
Ion mode: POSITIVE
Ionization: ESI
Fragmentation mode: HCD
Collision energy: 45 % (nominal)
Resolution: 15000
Column name: XBridge C18 3.5um, 2.1x50mm, Waters
Retention time: 9.2 min
Base peak: 482.1762
Precursor m/z: 482.1756
Precursor type: [M+H]+
m/z	relative intensity	assigned
189.0821	76	C11H10FN2+
201.0823	23	C12H10FN2+
203.0981	31	C12H12FN2+
217.1008	82	C12H12FN3+
230.1086	35	C13H13FN3+
244.1136	15	C12H20O3S+
244.1249	27	C8H21FN2O3S+
256.1242	103	C15H15FN3+
257.1322	52	C15H16FN3+
258.1399	999	C15H17FN3+
268.1232	16	C13H20N2O2S+
270.14	321	C16H17FN3+
271.1482	20	C13H23N2O2S+
272.1556	341	C16H19FN3+
282.1401	91	C14H22N2O2S+
296.1559	13	C18H19FN3+
298.1315	11	C14H19FN2O4+
300.1506	537	C17H19FN3O+
314.1661	73	C15H26N2O3S+
344.1767	17	C13H29FN2O5S+
378.1277	48	C18H21FN3O3S+
402.1823	14	C21H25FN3O4+
404.198	84	C21H27FN3O4+
422.1543	20	C20H25FN3O4S+
482.1756	45	C22H29FN3O6S+
