Mass spectrum: 1-(Methoxymethyl)-1H-benzotriazole; LC-ESI-QFT; MS2; CE: 45; R=35000; [M+H]+
Name: 1-(Methoxymethyl)-1H-benzotriazole
Name: 1-(methoxymethyl)benzotriazole
Formula: C8H9N3O
Exact mass: 163.07456
SMILES: n1nn(c2ccccc12)COC
InChI: InChI=1S/C8H9N3O/c1-12-6-11-8-5-3-2-4-7(8)9-10-11/h2-5H,6H2,1H3
Instrument: Q Exactive Plus Orbitrap Thermo Scientific
Instrument type: LC-ESI-QFT
Ms type: MS2
Ion mode: POSITIVE
Ionization: ESI
Fragmentation mode: HCD
Collision energy: 45 (nominal)
Resolution: 35000
Column name: XBridge C18 3.5um, 2.1x50mm, Waters
Retention time: 5.4 min
Base peak: 164.0818
Precursor m/z: 164.0818
Precursor type: [M+H]+
m/z	relative intensity	assigned
51.0229	1	C4H3+
53.0386	17	C4H5+
65.0385	1	C5H5+
77.0385	33	C6H5+
78.0464	2	C6H6+
79.0542	28	C6H7+
81.0335	1	C5H5O+
91.0416	2	C6H5N+
91.0543	2	C7H7+
93.0573	9	C6H7N+
95.0492	58	C6H7O+
104.0495	131	C7H6N+
105.0448	27	C6H5N2+
106.0652	37	C7H8N+
120.0445	20	C7H6NO+
121.0523	22	C7H7NO+
132.0557	213	C7H6N3+
134.0713	999	C7H8N3+
164.082	77	C8H10N3O+
