Mass spectrum: 1-Benzylpiperazine; LC-ESI-QFT; MS2; CE: 180; R=35000; [M+H]+
Name: 1-Benzylpiperazine
Name: N-Benzylpiperazine
Name: 1-(phenylmethyl)piperazine
Formula: C11H16N2
Exact mass: 176.13135
SMILES: C1CN(CCN1)Cc1ccccc1
InChI: InChI=1S/C11H16N2/c1-2-4-11(5-3-1)10-13-8-6-12-7-9-13/h1-5,12H,6-10H2
Instrument: Q Exactive Plus Orbitrap Thermo Scientific
Instrument type: LC-ESI-QFT
Ms type: MS2
Ion mode: POSITIVE
Ionization: ESI
Fragmentation mode: HCD
Collision energy: 180 (nominal)
Resolution: 35000
Column name: XBridge C18 3.5um, 2.1x50mm, Waters
Retention time: 1.2 min
Base peak: 177.1381
Precursor m/z: 177.1386
Precursor type: [M+H]+
m/z	relative intensity	assigned
50.0151	21	C4H2+
51.0229	28	C4H3+
53.0022	29	C3HO+
53.9974	8	C2NO+
56.0494	11	C3H6N+
61.0073	4	C5H+
62.0151	24	C5H2+
63.0229	107	C5H3+
65.0385	999	C5H5+
67.9892	10	
78.0086	2	C3N3+
85.076	4	C4H9N2+
89.0386	6	C7H5+
91.0542	412	C7H7+
