Mass spectrum: 2-Aminobenzothiazole; LC-ESI-QFT; MS2; CE: 75; R=35000; [M+H]+
Name: 2-Aminobenzothiazole
Name: benzo(d)thiazol-2-amine
Name: 1,3-benzothiazol-2-amine
Formula: C7H6N2S
Exact mass: 150.02517
SMILES: c1ccc2c(c1)nc(s2)N
InChI: InChI=1S/C7H6N2S/c8-7-9-5-3-1-2-4-6(5)10-7/h1-4H,(H2,8,9)
Instrument: Q Exactive Plus Orbitrap Thermo Scientific
Instrument type: LC-ESI-QFT
Ms type: MS2
Ion mode: POSITIVE
Ionization: ESI
Fragmentation mode: HCD
Collision energy: 75 (nominal)
Resolution: 35000
Column name: XBridge C18 3.5um, 2.1x50mm, Waters
Retention time: 3.1 min
Base peak: 151.0325
Precursor m/z: 151.0324
Precursor type: [M+H]+
m/z	relative intensity	assigned
59.9901	1	CH2NS+
65.0386	32	C5H5+
68.9791	1	C3HS+
80.0495	36	C5H6N+
90.0339	1	C6H4N+
91.0417	1	C6H5N+
92.0495	154	C6H6N+
93.0574	8	C6H7N+
97.0107	4	C5H5S+
108.0028	1	C6H4S+
109.0107	420	C6H5S+
118.0526	40	C7H6N2+
119.0605	1	C7H7N2+
124.0217	362	C6H6NS+
134.006	2	C7H4NS+
150.0246	3	C7H6N2S+
151.0325	999	C7H7N2S+
