Mass spectrum: Repaglinide; LC-ESI-QFT; MS2; CE: 75; R=35000; [M+H]+
Name: Repaglinide
Name: 2-ethoxy-4-[2-[[3-methyl-1-(2-piperidin-1-ylphenyl)butyl]amino]-2-oxoethyl]benzoic acid
Formula: C27H36N2O4
Exact mass: 452.26751
SMILES: CCOC1=C(C=CC(=C1)CC(=O)NC(CC(C)C)C2=CC=CC=C2N3CCCCC3)C(=O)O
InChI: InChI=1S/C27H36N2O4/c1-4-33-25-17-20(12-13-22(25)27(31)32)18-26(30)28-23(16-19(2)3)21-10-6-7-11-24(21)29-14-8-5-9-15-29/h6-7,10-13,17,19,23H,4-5,8-9,14-16,18H2,1-3H3,(H,28,30)(H,31,32)
Instrument: Q Exactive Plus Orbitrap Thermo Scientific
Instrument type: LC-ESI-QFT
Ms type: MS2
Ion mode: POSITIVE
Ionization: ESI
Fragmentation mode: HCD
Collision energy: 75 (nominal)
Resolution: 35000
Column name: XBridge C18 3.5um, 2.1x50mm, Waters
Retention time: 9.7 min
Base peak: 453.2744
Precursor m/z: 453.2748
Precursor type: [M+H]+
m/z	relative intensity	assigned
51.0228	2	C4H3+
53.0023	7	C3HO+
53.0386	3	C4H5+
55.0542	28	C4H7+
56.0496	1	C3H6N+
57.0699	15	C4H9+
65.0385	12	C5H5+
67.0542	21	C5H7+
67.9893	1	C3O2+
68.0496	1	C4H6N+
69.0699	56	C5H9+
71.0856	1	C5H11+
77.0384	6	C6H5+
79.0543	17	C6H7+
80.0495	1	C5H6N+
81.0698	2	C6H9+
82.0651	5	C5H8N+
84.0808	3	C5H10N+
86.0964	278	C5H12N+
89.0384	1	C7H5+
90.0464	1	C7H6+
91.0542	166	C7H7+
92.0621	1	C7H8+
93.0573	7	C6H7N+
93.0699	4	C7H9+
94.0652	19	C6H8N+
95.0491	6	C6H7O+
95.0856	6	C7H11+
103.0543	6	C8H7+
104.0494	10	C7H6N+
104.0621	1	C8H8+
105.0335	49	C7H5O+
105.07	31	C8H9+
106.0652	315	C7H8N+
107.0491	10	C7H7O+
107.0729	3	C7H9N+
108.0807	6	C7H10N+
109.065	8	C7H9O+
115.0544	8	C9H7+
117.0573	147	C8H7N+
117.0698	11	C9H9+
118.0651	676	C8H8N+
119.0605	6	C7H7N2+
119.0729	11	C8H9N+
119.0855	3	C9H11+
120.0808	134	C8H10N+
123.044	10	C7H7O2+
128.0622	3	C10H8+
129.0699	18	C10H9+
130.0652	326	C9H8N+
131.073	301	C9H9N+
132.0808	318	C9H10N+
133.0649	5	C9H9O+
133.0886	19	C9H11N+
134.0965	8	C9H12N+
135.0441	3	C8H7O2+
142.0777	5	C11H10+
143.0729	10	C10H9N+
144.0809	340	C10H10N+
145.0887	118	C10H11N+
146.0965	892	C10H12N+
151.039	12	C8H7O3+
156.0809	1	C11H10N+
157.0885	10	C11H11N+
158.0965	267	C11H12N+
159.1043	146	C11H13N+
160.1121	88	C11H14N+
161.0234	14	C9H5O3+
161.0598	7	C10H9O2+
161.1201	6	C11H15N+
162.1277	171	C11H16N+
170.0963	6	C12H12N+
171.1042	5	C12H13N+
172.1121	747	C12H14N+
173.12	59	C12H15N+
174.1278	999	C12H16N+
179.0704	14	C10H11O3+
184.112	14	C13H14N+
186.1278	132	C13H16N+
187.1357	10	C13H17N+
188.1434	25	C13H18N+
189.0552	3	C11H9O3+
200.1434	7	C14H18N+
202.159	28	C14H20N+
214.1588	6	C15H20N+
215.1677	1	C15H21N+
228.1748	11	C16H22N+
230.1904	448	C16H24N+
