Mass spectrum: Pyraclofos; LC-ESI-QFT; MS2; CE: 180%; R=17500; [M+H]+
Name: Pyraclofos
Name: 1-(4-chlorophenyl)-4-[ethoxy(propylsulfanyl)phosphoryl]oxypyrazole
Formula: C14H18ClN2O3PS
Exact mass: 360.0464
SMILES: CCCSP(=O)(OCC)OC1=CN(N=C1)C2=CC=C(C=C2)Cl
InChI: InChI=1S/C14H18ClN2O3PS/c1-3-9-22-21(18,19-4-2)20-14-10-16-17(11-14)13-7-5-12(15)6-8-13/h5-8,10-11H,3-4,9H2,1-2H3
Instrument: Exploris 240 Orbitrap Thermo Scientific
Instrument type: LC-ESI-QFT
Ms type: MS2
Ion mode: POSITIVE
Ionization: ESI
Fragmentation mode: HCD
Collision energy: 180 % (nominal)
Resolution: 17500
Column name: XBridge C18 3.5um, 2.1x50mm, Waters
Retention time: 11.576 min
Base peak: 361.0538
Precursor m/z: 361.0537
Precursor type: [M+H]+
m/z	relative intensity	assigned
50.0151	33	C4H2+
51.023	80	C4H3+
53.0022	30	C3HO+
53.0386	9	C4H5+
62.9453	17	PS+
63.0229	9	C5H3+
64.9786	189	H2O2P+
74.0151	180	C6H2+
75.0229	999	C6H3+
77.0386	40	C6H5+
78.9402	79	OPS+
84.984	106	C4H2Cl+
86.9997	30	C4H4Cl+
88.031	9	C3H7NP+
89.0385	29	C7H5+
95.049	18	C2H10NOP+
96.9508	34	H2O2PS+
104.0498	47	C3H9N2P+
105.0446	12	C6H5N2+
110.9997	99	C6H4Cl+
114.0338	15	C8H4N+
114.9612	13	H4O3PS+
129.0098	35	C5H6O2P+
139.0057	197	C6H4ClN2+
