Mass spectrum: Lumiracoxib; LC-ESI-QFT; MS2; CE: 90%; R=15000; [M+H]+
Name: Lumiracoxib
Name: 2-[2-(2-chloro-6-fluoroanilino)-5-methylphenyl]acetic acid
Formula: C15H13ClFNO2
Exact mass: 293.0618846
SMILES: CC1=CC(=C(C=C1)NC2=C(C=CC=C2Cl)F)CC(=O)O
InChI: InChI=1S/C15H13ClFNO2/c1-9-5-6-13(10(7-9)8-14(19)20)18-15-11(16)3-2-4-12(15)17/h2-7,18H,8H2,1H3,(H,19,20)
Instrument: Exploris 240 Thermo Scientific
Instrument type: LC-ESI-QFT
Ms type: MS2
Ion mode: POSITIVE
Ionization: ESI
Fragmentation mode: HCD
Collision energy: 90 % (nominal)
Resolution: 15000
Column name: XBridge C18 3.5um, 2.1x50mm, Waters
Retention time: 11.419 min
Base peak: 294.0693
Precursor m/z: 294.0692
Precursor type: [M+H]+
m/z	relative intensity	assigned
165.0695	22	C13H9+
177.0571	31	C13H7N+
192.0809	54	C14H10N+
193.0887	38	C14H11N+
198.0714	81	C13H9FN+
211.0791	13	C14H10FN+
212.087	999	C14H11FN+
213.0341	10	C13H8ClN+
228.0575	130	C14H11ClN+
232.0324	28	C13H8ClFN+
