Mass spectrum: Pirimicarb; LC-ESI-ITFT; MS2; CE: 90%; R=7500; [M+H]+
Name: Pirimicarb
Name: N,N-dimethylcarbamic acid [2-(dimethylamino)-5,6-dimethyl-4-pyrimidinyl] ester
Formula: C11H18N4O2
Exact mass: 238.1430
SMILES: n(c(c(C)c1OC(=O)N(C)C)C)c(n1)N(C)C
InChI: InChI=1S/C11H18N4O2/c1-7-8(2)12-10(14(3)4)13-9(7)17-11(16)15(5)6/h1-6H3
Instrument: LTQ Orbitrap XL Thermo Scientific
Instrument type: LC-ESI-ITFT
Ms type: MS2
Ion mode: POSITIVE
Ionization: ESI
Fragmentation mode: HCD
Collision energy: 90 % (nominal)
Resolution: 7500
Column name: XBridge C18 3.5um, 2.1x50mm, Waters
Retention time: 5.0 min
Base peak: 239.1506
Precursor m/z: 239.1503
Precursor type: [M+H]+
m/z	relative intensity	assigned
56.0132	6	C2H2NO+
58.0653	2	C3H8N+
69.0574	6	C4H7N+
71.0602	5	C3H7N2+
72.0445	999	C3H6NO+
83.024	31	C3H3N2O+
85.076	99	C4H9N2+
109.0761	104	C6H9N2+
123.055	2	C6H7N2O+
124.0632	11	C6H8N2O+
137.071	21	C7H9N2O+
138.0787	42	C7H10N2O+
150.1025	7	C8H12N3+
152.0819	38	C7H10N3O+
156.0525	3	C6H8N2O3+
167.1045	3	C8H13N3O+
182.1285	12	C9H16N3O+
