Mass spectrum: Eprosartan; LC-ESI-ITFT; MS2; CE: 45%; R=7500; [M+H]+
Name: Eprosartan
Name: 4-[[2-butyl-5-[(E)-3-hydroxy-3-keto-2-(2-thenyl)prop-1-enyl]imidazol-1-yl]methyl]benzoic acid
Formula: C23H24N2O4S
Exact mass: 424.1457
SMILES: CCCCC1=NC=C(N1CC2=CC=C(C=C2)C(=O)O)/C=C(\CC3=CC=CS3)/C(=O)O
InChI: InChI=1S/C23H24N2O4S/c1-2-3-6-21-24-14-19(12-18(23(28)29)13-20-5-4-11-30-20)25(21)15-16-7-9-17(10-8-16)22(26)27/h4-5,7-12,14H,2-3,6,13,15H2,1H3,(H,26,27)(H,28,29)/b18-12+
Instrument: LTQ Orbitrap XL Thermo Scientific
Instrument type: LC-ESI-ITFT
Ms type: MS2
Ion mode: POSITIVE
Ionization: ESI
Fragmentation mode: HCD
Collision energy: 45 % (nominal)
Resolution: 7500
Column name: XBridge C18 3.5um, 2.1x50mm, Waters
Retention time: 6.3 min
Base peak: 425.154
Precursor m/z: 425.153
Precursor type: [M+H]+
m/z	relative intensity	assigned
78.0338	19	C5H4N+
80.0496	29	C5H6N+
84.0808	11	C5H10N+
97.0106	191	C5H5S+
107.0491	143	C7H7O+
124.0393	50	C6H6NO2+
135.0441	999	C8H7O2+
137.1075	17	C8H13N2+
161.1072	13	C10H13N2+
162.0376	14	C9H8NS+
163.1229	317	C10H15N2+
201.0488	28	C11H9N2S+
202.0564	37	C11H10N2S+
207.1127	774	C11H15N2O2+
244.1028	122	C14H16N2S+
245.1106	87	C14H17N2S+
272.0975	125	C15H16N2OS+
273.1046	61	C15H17N2OS+
291.1165	22	C15H19N2O2S+
297.1594	68	C18H21N2O2+
341.1495	135	C19H21N2O4+
379.1474	46	C22H23N2O2S+
425.1531	15	C23H25N2O4S+
