Mass spectrum: Rimantadine; LC-ESI-QFT; MS2; CE: 75; R=35000; [M+H]+
Name: Rimantadine
Name: 1-(1-adamantyl)ethanamine
Formula: C12H21N
Exact mass: 179.16740
SMILES: NC(C)C13CC2CC(CC(C1)C2)C3
InChI: InChI=1S/C12H21N/c1-8(13)12-5-9-2-10(6-12)4-11(3-9)7-12/h8-11H,2-7,13H2,1H3
Instrument: Q Exactive Orbitrap Thermo Scientific
Instrument type: LC-ESI-QFT
Ms type: MS2
Ion mode: POSITIVE
Ionization: ESI
Fragmentation mode: HCD
Collision energy: 75 (nominal)
Resolution: 35000
Column name: XBridge C18 3.5um, 2.1x50mm, Waters
Retention time: 6.5 min
Base peak: 180.1746
Precursor m/z: 180.1747
Precursor type: [M+H]+
m/z	relative intensity	assigned
57.0699	2	C4H9+
65.0385	1	C5H5+
67.0542	80	C5H7+
69.0698	27	C5H9+
71.0854	1	C5H11+
77.0384	3	C6H5+
79.0542	113	C6H7+
81.0698	478	C6H9+
83.0855	28	C6H11+
91.0541	18	C7H7+
93.0698	181	C7H9+
95.0491	5	C6H7O+
95.0855	113	C7H11+
97.1012	9	C7H13+
105.0447	3	C6H5N2+
105.0699	7	C8H9+
107.0855	252	C8H11+
109.0647	2	C7H9O+
109.1011	7	C8H13+
121.1011	196	C9H13+
135.1167	131	C10H15+
161.1323	1	C12H17+
163.1481	999	C12H19+
180.1746	23	C12H22N+
