Mass spectrum: Chlorthalidone; LC-ESI-QFT; MS2; CE: 90; R=35000; [M+H]+
Name: Chlorthalidone
Name: Chlortalidone
Name: 2-chloranyl-5-(1-oxidanyl-3-oxidanylidene-2H-isoindol-1-yl)benzenesulfonamide
Formula: C14H11ClN2O4S
Exact mass: 338.01281
SMILES: O=S(=O)(N)c1c(Cl)ccc(c1)C2(O)c3ccccc3C(=O)N2
InChI: InChI=1S/C14H11ClN2O4S/c15-11-6-5-8(7-12(11)22(16,20)21)14(19)10-4-2-1-3-9(10)13(18)17-14/h1-7,19H,(H,17,18)(H2,16,20,21)
Instrument: Q Exactive Orbitrap Thermo Scientific
Instrument type: LC-ESI-QFT
Ms type: MS2
Ion mode: POSITIVE
Ionization: ESI
Fragmentation mode: HCD
Collision energy: 90 (nominal)
Resolution: 35000
Column name: XBridge C18 3.5um, 2.1x50mm, Waters
Retention time: 5.6 min
Base peak: 321.9937
Precursor m/z: 339.0201
Precursor type: [M+H]+
m/z	relative intensity	assigned
63.9852	29	H2NOS+
75.0227	2	C6H3+
77.0385	10	C6H5+
79.9801	532	H2NO2S+
95.0491	36	C6H7O+
98.9996	5	C5H4Cl+
99.0226	1	H7N2O2S+
105.0335	91	C7H5O+
105.0448	12	C6H5N2+
115.0543	8	C9H7+
119.0127	10	C7H3O2+
120.0444	4	C7H6NO+
125.0386	5	C10H5+
126.0463	19	C10H6+
127.0543	28	C10H7+
129.0102	4	C6H6ClO+
130.0288	41	C8H4NO+
138.9946	55	C7H4ClO+
139.0058	11	
139.0542	228	C11H7+
140.0496	15	C10H6N+
140.062	31	C11H8+
143.0491	1	C10H7O+
144.0082	16	C8H2NO2+
144.0572	2	C10H8O+
145.0649	24	C10H9O+
148.0394	28	C8H6NO2+
149.0387	34	C12H5+
150.0465	999	C12H6+
151.0543	164	C12H7+
152.0621	807	C12H8+
152.9738	5	C7H2ClO2+
153.0334	22	C11H5O+
154.0054	10	C7H5ClNO+
154.0415	3	C11H6O+
154.0653	2	C11H8N+
154.9894	20	C7H4ClO2+
155.0493	24	C11H7O+
155.0603	33	C10H7N2+
161.0153	59	C10H6Cl+
166.0652	32	C12H8N+
167.0492	54	C12H7O+
167.073	75	C12H9N+
168.057	138	C12H8O+
169.0648	135	C12H9O+
175.0309	17	C11H8Cl+
177.0573	38	C13H7N+
179.0258	18	C10H8ClO+
179.0492	83	C13H7O+
179.0605	31	C12H7N2+
179.9844	1	C11O3+
180.057	24	C13H8O+
181.0284	7	C12H5O2+
182.0361	10	C12H6O2+
185.0154	311	C12H6Cl+
186.0231	413	C12H7Cl+
187.0312	5	C12H8Cl+
189.0103	52	C11H6ClO+
189.0215	51	C10H6ClN2+
194.0602	12	C13H8NO+
195.0442	54	C13H7O2+
195.0679	52	C13H9NO+
196.052	41	C13H8O2+
197.0597	19	C13H9O2+
201.0101	2	C12H6ClO+
202.0182	5	C12H7ClO+
203.0258	376	C12H8ClO+
205.0291	1	C11H8ClNO+
207.0444	53	C11H10ClNO+
207.0554	10	C13H7N2O+
213.0104	31	C13H6ClO+
213.0215	164	
214.018	107	C13H7ClO+
215.0259	5	C13H8ClO+
217.0052	1	C12H6ClO2+
217.9672	1	C7H5ClNO3S+
218.0134	2	C12H7ClO2+
222.0553	21	
223.0396	7	C11H10ClNO2+
223.0628	32	C14H9NO2+
224.047	4	C14H8O3+
231.0208	35	C13H8ClO2+
241.0063	11	
241.016	10	C13H6ClN2O+
242.0131	7	C6H11ClN2O4S+
243.021	83	C14H8ClO2+
259.0159	7	C14H8ClO3+
