Mass spectrum: Methomyl; LC-ESI-ITFT; MS2; CE: 35%; R=30000; [M+H]+
Name: Methomyl
Name: (1E)-N-(methylcarbamoyloxy)ethanimidothioic acid methyl ester
Formula: C5H10N2O2S
Exact mass: 162.0463
SMILES: C/C(=N\OC(=O)NC)SC
InChI: InChI=1S/C5H10N2O2S/c1-4(10-3)7-9-5(8)6-2/h1-3H3,(H,6,8)/b7-4+
Instrument: LTQ Orbitrap XL Thermo Scientific
Instrument type: LC-ESI-ITFT
Ms type: MS2
Ion mode: POSITIVE
Ionization: ESI
Fragmentation mode: CID
Collision energy: 35 % (nominal)
Resolution: 30000
Column name: XBridge C18 3.5um, 2.1x50mm, Waters
Retention time: 3.6 min
Base peak: 163.0536
Precursor m/z: 163.0536
Precursor type: [M+H]+
m/z	relative intensity	assigned
55.0542	3	C4H7+
57.0698	3	C4H9+
65.0055	644	CH5OS+
78.0372	2	C2H8NS+
88.0215	708	C3H6NS+
89.0596	165	C4H9O2+
106.0321	172	C3H8NOS+
107.0702	211	C4H11O3+
118.9789	8	CHN3O2S+
122.027	999	C3H8NO2S+
