Mass spectrum: Norfenfluramine; LC-ESI-QFT; MS2; CE: 15; R=35000; [M+H]+
Name: Norfenfluramine
Name: 1-[3-(trifluoromethyl)phenyl]propan-2-amine
Formula: C10H12F3N
Exact mass: 203.09218
SMILES: CC(CC1=CC(=CC=C1)C(F)(F)F)N
InChI: InChI=1S/C10H12F3N/c1-7(14)5-8-3-2-4-9(6-8)10(11,12)13/h2-4,6-7H,5,14H2,1H3
Instrument: Q Exactive Plus Orbitrap Thermo Scientific
Instrument type: LC-ESI-QFT
Ms type: MS2
Ion mode: POSITIVE
Ionization: ESI
Fragmentation mode: HCD
Collision energy: 15 (nominal)
Resolution: 35000
Column name: XBridge C18 3.5um, 2.1x50mm, Waters
Retention time: 5.8 min
Base peak: 204.0993
Precursor m/z: 204.0995
Precursor type: [M+H]+
m/z	relative intensity	assigned
109.0445	1	C7H6F+
159.0416	711	C8H6F3+
167.0665	1	C10H9F2+
172.0488	1	C9H7F3+
184.0933	1	C10H12F2N+
187.0728	999	C10H10F3+
204.0995	506	C10H13F3N+
