Mass spectrum: Mesosulfuron-methyl; LC-ESI-QFT; MS2; CE: 90; R=35000; [M+H]+
Name: Mesosulfuron-methyl
Name: 2-[(4,6-dimethoxypyrimidin-2-yl)carbamoylsulfamoyl]-4-(methanesulfonamidomethyl)benzoic acid methyl ester
Formula: C17H21N5O9S2
Exact mass: 503.07807
SMILES: O=C(Nc1nc(cc(OC)n1)OC)NS(=O)(=O)c2cc(CNS(C)(=O)=O)ccc2C(=O)OC
InChI: InChI=1S/C17H21N5O9S2/c1-29-13-8-14(30-2)20-16(19-13)21-17(24)22-33(27,28)12-7-10(9-18-32(4,25)26)5-6-11(12)15(23)31-3/h5-8,18H,9H2,1-4H3,(H2,19,20,21,22,24)
Instrument: Q Exactive Orbitrap Thermo Scientific
Instrument type: LC-ESI-QFT
Ms type: MS2
Ion mode: POSITIVE
Ionization: ESI
Fragmentation mode: HCD
Collision energy: 90 (nominal)
Resolution: 35000
Column name: XBridge C18 3.5um, 2.1x50mm, Waters
Retention time: 8.9 min
Base peak: 504.0852
Precursor m/z: 504.0853
Precursor type: [M+H]+
m/z	relative intensity	assigned
53.0023	2	C3HO+
56.0132	11	C2H2NO+
57.0449	31	C2H5N2+
58.0289	7	C2H4NO+
65.0386	7	C5H5+
67.0291	3	C3H3N2+
68.0131	36	C3H2NO+
68.9971	60	C3HO2+
69.0083	9	C2HN2O+
70.0287	5	C3H4NO+
71.0603	77	C3H7N2+
72.0443	8	C3H6NO+
77.0385	27	C6H5+
79.0542	34	C6H7+
80.0368	2	C4H4N2+
81.0447	25	C4H5N2+
82.0287	63	C4H4NO+
83.0239	999	C3H3N2O+
89.0385	4	C7H5+
90.0338	14	C6H4N+
91.0542	3	C7H7+
92.0257	29	C6H4O+
92.0494	6	C6H6N+
93.0083	153	C4HN2O+
94.0161	3	C4H2N2O+
95.0491	45	C6H7O+
96.0443	3	C5H6NO+
100.0393	54	C4H6NO2+
104.0494	111	C7H6N+
105.0335	10	C7H5O+
105.0447	27	C6H5N2+
105.0573	1	C7H7N+
106.0651	15	C7H8N+
107.024	6	C5H3N2O+
107.049	5	C7H7O+
109.0271	5	C4H3N3O+
109.0396	16	C5H5N2O+
110.0236	3	C5H4NO2+
111.0427	5	C4H5N3O+
112.0506	6	C4H6N3O+
113.0582	3	C4H7N3O+
114.0549	1	C5H8NO2+
117.0446	6	C7H5N2+
118.0286	33	C7H4NO+
119.0365	27	C7H5NO+
119.0604	5	C7H7N2+
120.0444	3	C7H6NO+
124.0504	8	C5H6N3O+
125.0345	1	C5H5N2O2+
127.0501	17	C5H7N2O2+
129.0446	2	C8H5N2+
132.0444	6	C8H6NO+
133.0521	3	C8H7NO+
134.06	15	C8H8NO+
135.0439	34	C8H7O2+
137.0221	1	C5H3N3O2+
138.0297	15	C5H4N3O2+
139.0501	252	C6H7N2O2+
140.0454	15	C5H6N3O2+
141.053	6	C5H7N3O2+
145.0398	1	C8H5N2O+
146.0236	3	C8H4NO2+
147.0553	2	C8H7N2O+
150.0296	1	C6H4N3O2+
156.0765	6	C6H10N3O2+
157.0607	151	C6H9N2O3+
162.0548	45	C9H8NO2+
165.0419	4	C8H7NO3+
166.0246	9	C6H4N3O3+
167.0322	3	C6H5N3O3+
182.056	30	C7H8N3O3+
