Mass spectrum: Hydrocortisone; LC-ESI-QFT; MS2; CE: 90; R=35000; [M+H]+
Name: (8S,9S,10R,11S,13S,14S,17R)-11,17-dihydroxy-17-(2-hydroxyacetyl)-10,13-dimethyl-2,6,7,8,9,11,12,14,15,16-decahydro-1H-cyclopenta[a]phenanthren-3-one
Name: Cortisol
Name: Hydrocortisone
Formula: C21H30O5
Exact mass: 362.20932
SMILES: C[C@]12CCC(=O)C=C1CC[C@@H]3[C@@H]2[C@H](C[C@]4([C@H]3CC[C@@]4(C(=O)CO)O)C)O
InChI: InChI=1S/C21H30O5/c1-19-7-5-13(23)9-12(19)3-4-14-15-6-8-21(26,17(25)11-22)20(15,2)10-16(24)18(14)19/h9,14-16,18,22,24,26H,3-8,10-11H2,1-2H3/t14-,15-,16-,18+,19-,20-,21-/m0/s1
Instrument: Q Exactive Plus Orbitrap Thermo Scientific
Instrument type: LC-ESI-QFT
Ms type: MS2
Ion mode: POSITIVE
Ionization: ESI
Fragmentation mode: HCD
Collision energy: 90 (nominal)
Resolution: 35000
Column name: XBridge C18 3.5um, 2.1x50mm, Waters
Retention time: 7.7 min
Base peak: 363.2164
Precursor m/z: 363.2166
Precursor type: [M+H]+
m/z	relative intensity	assigned
50.0151	8	C4H2+
51.0229	6	C4H3+
53.0022	9	C3HO+
53.0386	85	C4H5+
53.9975	1	C2NO+
55.0179	91	C3H3O+
55.0542	138	C4H7+
57.0335	18	C3H5O+
57.0699	1	C4H9+
63.0228	1	C5H3+
65.0386	74	C5H5+
66.0464	2	C5H6+
67.0542	249	C5H7+
67.9893	1	C3O2+
69.0335	38	C4H5O+
69.0699	50	C5H9+
71.0491	16	C4H7O+
77.0385	94	C6H5+
78.0464	10	C6H6+
79.0542	471	C6H7+
80.0622	2	C6H8+
81.0335	29	C5H5O+
81.0699	212	C6H9+
82.0413	1	C5H6O+
83.0491	112	C5H7O+
90.0463	2	C7H6+
91.0542	999	C7H7+
92.0621	6	C7H8+
93.0699	299	C7H9+
94.0414	13	C6H6O+
95.0492	279	C6H7O+
95.0855	90	C7H11+
96.0568	1	C6H8O+
97.0648	277	C6H9O+
99.0441	14	C5H7O2+
102.0465	5	C8H6+
103.0542	124	C8H7+
104.062	23	C8H8+
105.0448	125	C6H5N2+
105.0699	701	C8H9+
106.0777	2	C8H10+
107.0492	76	C7H7O+
107.0855	77	C8H11+
108.057	12	C7H8O+
109.0648	176	C7H9O+
109.101	9	C8H13+
110.0729	1	C7H10O+
111.0441	4	C6H7O2+
111.0805	4	C7H11O+
115.0543	218	C9H7+
116.0621	67	C9H8+
117.0699	278	C9H9+
118.0778	13	C9H10+
119.0856	265	C9H11+
120.057	2	C8H8O+
121.0648	591	C8H9O+
123.0804	127	C8H11O+
125.0598	2	C7H9O2+
127.0542	9	C10H7+
128.0621	362	C10H8+
129.0699	330	C10H9+
130.0778	115	C10H10+
131.0492	17	C9H7O+
131.0856	215	C10H11+
132.057	18	C9H8O+
132.0934	6	C10H12+
133.0649	37	C9H9O+
133.1012	45	C10H13+
134.0728	5	C9H10O+
135.0805	22	C9H11O+
135.1169	2	C10H15+
137.0597	2	C8H9O2+
137.0961	3	C9H13O+
139.0536	1	C11H7+
141.0699	235	C11H9+
142.0778	194	C11H10+
143.0856	168	C11H11+
144.057	21	C10H8O+
144.0934	32	C11H12+
145.0649	62	C10H9O+
145.1012	112	C11H13+
146.0727	23	C10H10O+
146.109	5	C11H14+
147.0804	41	C10H11O+
147.1168	40	C11H15+
148.0883	37	C10H12O+
149.0963	6	C10H13O+
152.062	35	C12H8+
153.0699	133	C12H9+
154.0777	95	C12H10+
155.0605	39	C10H7N2+
155.0855	152	C12H11+
156.0934	50	C12H12+
157.0648	21	C11H9O+
157.1012	70	C12H13+
158.0727	30	C11H10O+
158.1091	6	C12H14+
159.0805	42	C11H11O+
159.1169	22	C12H15+
160.0884	6	C11H12O+
161.0961	19	C11H13O+
163.1118	23	C11H15O+
165.0699	127	C13H9+
166.0778	54	C13H10+
167.0856	104	C13H11+
168.0934	41	C13H12+
169.0648	18	C12H9O+
169.0762	5	C11H9N2+
169.1012	73	C13H13+
170.0727	7	C12H10O+
170.1091	12	C13H14+
171.0804	17	C12H11O+
171.1168	30	C13H15+
172.0884	2	C12H12O+
172.1248	8	C13H16+
173.0962	13	C12H13O+
173.1327	2	C13H17+
174.104	17	C12H14O+
175.1117	5	C12H15O+
178.0778	60	C14H10+
179.0856	82	C14H11+
180.0934	34	C14H12+
181.065	10	C13H9O+
181.1012	68	C14H13+
182.0727	5	C13H10O+
182.1091	19	C14H14+
183.0804	16	C13H11O+
183.117	39	C14H15+
184.0881	7	C13H12O+
184.1246	5	C14H16+
185.0963	13	C13H13O+
185.1325	8	C14H17+
186.1039	2	C13H14O+
186.1403	1	C14H18+
187.1119	2	C13H15O+
189.0699	5	C15H9+
189.1276	2	C13H17O+
190.0777	9	C15H10+
191.0855	40	C15H11+
192.0933	37	C15H12+
193.1013	52	C15H13+
194.0727	2	C14H10O+
194.1091	20	C15H14+
195.0805	14	C14H11O+
195.117	34	C15H15+
196.0882	7	C14H12O+
196.1247	6	C15H16+
197.096	14	C14H13O+
197.1323	13	C15H17+
198.104	5	C14H14O+
199.1118	7	C14H15O+
199.1485	2	C15H19+
200.1194	2	C14H16O+
202.0777	11	C16H10+
203.0855	14	C16H11+
204.0933	11	C16H12+
205.1015	23	C16H13+
206.1092	10	C16H14+
207.0805	6	C15H11O+
207.1167	15	C16H15+
208.0878	1	C15H12O+
208.1248	2	C16H16+
209.0961	9	C15H13O+
209.133	9	C16H17+
210.1042	6	C15H14O+
210.14	2	C16H18+
211.1118	15	C15H15O+
211.148	6	C16H19+
212.1197	2	C15H16O+
213.1272	11	C15H17O+
215.0855	5	C17H11+
216.0933	5	C17H12+
217.1012	7	C17H13+
218.109	5	C17H14+
219.0805	2	C16H11O+
219.1169	11	C17H15+
220.1246	4	C17H16+
221.0959	2	C16H13O+
221.1324	2	C17H17+
222.1039	1	C16H14O+
223.1116	5	C16H15O+
223.1477	1	C17H19+
225.1277	9	C16H17O+
225.1637	1	C17H21+
226.1352	5	C16H18O+
227.143	11	C16H19O+
228.0935	3	C18H12+
228.1508	5	C16H20O+
229.1012	2	C18H13+
231.1168	2	C18H15+
233.097	1	C17H13O+
233.1325	7	C18H17+
235.1482	1	C18H19+
237.1271	5	C17H17O+
239.1431	6	C17H19O+
241.1586	1	C17H21O+
251.1438	1	C18H19O+
253.1589	18	C18H21O+
