Mass spectrum: Octocrylene; LC-ESI-QFT; MS2; CE: 90; R=35000; [M+H]+
Name: Octocrylene
Name: [(2R)-2-ethylhexyl] 2-cyano-3,3-diphenylprop-2-enoate
Formula: C24H27NO2
Exact mass: 361.20418
SMILES: C(\c1ccccc1)(c1ccccc1)=C(/C(OC[C@@H](CCCC)CC)=O)C#N
InChI: InChI=1S/C24H27NO2/c1-3-5-12-19(4-2)18-27-24(26)22(17-25)23(20-13-8-6-9-14-20)21-15-10-7-11-16-21/h6-11,13-16,19H,3-5,12,18H2,1-2H3/t19-/m1/s1
Instrument: Q Exactive Plus Orbitrap Thermo Scientific
Instrument type: LC-ESI-QFT
Ms type: MS2
Ion mode: POSITIVE
Ionization: ESI
Fragmentation mode: HCD
Collision energy: 90 (nominal)
Resolution: 35000
Column name: XBridge C18 3.5um, 2.1x50mm, Waters
Retention time: 17.2 min
Base peak: 250.086
Precursor m/z: 362.2115
Precursor type: [M+H]+
m/z	relative intensity	assigned
50.0151	7	C4H2+
51.023	31	C4H3+
53.0022	7	C3HO+
53.0386	74	C4H5+
55.0179	6	C3H3O+
55.0543	1	C4H7+
57.0699	73	C4H9+
67.9893	1	C3O2+
68.9971	14	C3HO2+
71.0856	9	C5H11+
75.0229	20	C6H3+
77.0385	110	C6H5+
81.0335	6	C5H5O+
91.0543	4	C7H7+
94.0413	4	C6H6O+
95.0492	285	C6H7O+
101.0386	9	C8H5+
102.0464	1	C8H6+
103.0543	6	C8H7+
104.0495	136	C7H6N+
105.0336	302	C7H5O+
105.0448	152	C6H5N2+
116.0497	1	C8H6N+
119.0492	9	C8H7O+
126.0337	4	C9H4N+
128.0495	33	C9H6N+
129.0336	53	C9H5O+
129.0447	34	C8H5N2+
130.0285	1	C8H4NO+
130.0399	5	C7H4N3+
146.0602	1	C9H8NO+
150.0463	5	C12H6+
151.0543	75	C12H7+
152.0621	32	C12H8+
153.0576	1	C11H7N+
153.07	8	C12H9+
154.0289	9	C10H4NO+
154.0399	14	C9H4N3+
155.0603	4	C10H7N2+
157.0288	4	C10H5O2+
163.0538	4	C13H7+
164.062	5	C13H8+
165.0699	23	C13H9+
168.0571	2	C12H8O+
169.0649	202	C12H9O+
175.0544	14	C14H7+
176.0621	951	C14H8+
177.0699	307	C14H9+
178.0777	189	C14H10+
179.0604	65	C12H7N2+
181.0649	5	C13H9O+
182.0965	2	C13H12N+
183.0807	2	C13H11O+
190.0647	2	C14H8N+
193.0648	15	C14H9O+
194.0599	3	C13H8NO+
195.0806	12	C14H11O+
196.0757	5	C13H10NO+
201.0574	34	C15H7N+
202.0652	58	C15H8N+
203.073	999	C15H9N+
204.0809	204	C15H10N+
205.0761	28	C14H9N2+
206.0962	2	C15H12N+
220.0758	56	C15H10NO+
232.0757	14	C16H10NO+
