Mass spectrum: Difloxacin; LC-ESI-QFT; MS2; CE: 120; R=35000; [M+H]+
Name: Difloxacin
Name: 6-fluoro-1-(4-fluorophenyl)-7-(4-methylpiperazin-1-yl)-4-oxoquinoline-3-carboxylic acid
Name: 6-fluoro-1-(4-fluorophenyl)-7-(4-methylpiperazin-4-ium-1-yl)-4-oxoquinoline-3-carboxylate
Formula: C21H19F2N3O3
Exact mass: 399.1394479
SMILES: CN1CCN(CC1)C2=C(C=C3C(=C2)N(C=C(C3=O)C(=O)O)C4=CC=C(C=C4)F)F
InChI: InChI=1S/C21H19F2N3O3/c1-24-6-8-25(9-7-24)19-11-18-15(10-17(19)23)20(27)16(21(28)29)12-26(18)14-4-2-13(22)3-5-14/h2-5,10-12H,6-9H2,1H3,(H,28,29)
Instrument: Q Exactive Plus Orbitrap Thermo Scientific
Instrument type: LC-ESI-QFT
Ms type: MS2
Ion mode: POSITIVE
Ionization: ESI
Fragmentation mode: HCD
Collision energy: 120 (nominal)
Resolution: 35000
Column name: XBridge C18 3.5um, 2.1x50mm, Waters
Retention time: 4.5 min
Base peak: 400.1461
Precursor m/z: 400.1467
Precursor type: [M+H]+
m/z	relative intensity	assigned
50.0151	26	C4H2+
51.023	39	C4H3+
52.0182	4	C3H2N+
53.0023	49	C3HO+
53.0386	57	C4H5+
53.9976	4	C2NO+
54.0339	20	C3H4N+
55.0179	4	C3H3O+
55.0417	5	C3H5N+
55.0543	8	C4H7+
56.0495	279	C3H6N+
57.0135	87	C3H2F+
57.0573	39	C3H7N+
58.0652	439	C3H8N+
59.0292	9	C3H4F+
62.0151	16	C5H2+
63.023	144	C5H3+
65.0387	35	C5H5+
67.0417	67	C4H5N+
68.0495	16	C4H6N+
69.0448	6	C3H5N2+
70.0652	246	C4H8N+
71.0292	17	C4H4F+
71.0728	4	C4H9N+
72.0808	41	C4H10N+
74.0152	53	C6H2+
75.0229	366	C6H3+
76.0181	8	C5H2N+
76.0309	5	C6H4+
77.0386	72	C6H5+
78.0339	24	C5H4N+
78.0464	22	C6H6+
79.0542	5	C6H7+
80.0495	26	C5H6N+
81.0136	46	C5H2F+
82.0652	159	C5H8N+
83.0292	315	C5H4F+
83.0604	44	C4H7N2+
84.037	39	C5H5F+
85.076	8	C4H9N2+
87.023	35	C7H3+
88.0183	5	C6H2N+
88.0308	16	C7H4+
89.0386	472	C7H5+
90.034	31	C6H4N+
90.0465	34	C7H6+
91.0418	4	C6H5N+
91.0543	57	C7H7+
94.0215	18	C6H3F+
95.0293	73	C6H4F+
95.0492	128	C6H7O+
95.0605	20	C5H7N2+
96.0371	33	C6H5F+
96.0445	42	C5H6NO+
97.0761	21	C5H9N2+
98.0403	6	C5H5FN+
99.023	27	C8H3+
99.0919	5	C5H11N2+
100.0183	22	C7H2N+
100.0309	19	C8H4+
101.0387	70	C8H5+
102.0339	27	C7H4N+
102.0465	114	C8H6+
103.0417	8	C7H5N+
103.0543	81	C8H7+
104.0495	44	C7H6N+
105.0136	15	C7H2F+
105.0448	106	C6H5N2+
106.0214	6	C7H3F+
107.0292	859	C7H4F+
108.0246	42	C6H3FN+
108.037	213	C7H5F+
109.0449	222	C7H6F+
110.0401	34	C6H5FN+
112.0319	5	C6H5FO+
113.0395	86	CH5F2N3O+
114.034	45	C8H4N+
114.0465	7	C9H6+
115.0419	41	C8H5N+
115.0543	195	C9H7+
116.0496	77	C8H6N+
117.0575	47	C8H7N+
118.0287	5	C7H4NO+
118.0653	6	C8H8N+
119.0296	5	C8H4F+
119.0493	76	C8H7O+
120.0371	142	C8H5F+
121.0323	16	C7H4FN+
121.0449	58	C8H6F+
122.0401	118	C7H5FN+
123.0354	198	C6H4FN2+
124.0559	7	C7H7FN+
125.0386	9	C10H5+
126.034	37	C9H4N+
127.0419	26	C9H5N+
127.0544	21	C10H7+
128.0496	395	C9H6N+
128.0622	22	C10H8+
129.0448	277	C8H5N2+
129.0574	68	C9H7N+
130.0401	36	C7H4N3+
130.0653	69	C9H8N+
131.0292	40	C9H4F+
131.0606	8	C8H7N2+
132.0244	60	C8H3FN+
132.0369	9	C9H5F+
132.0448	8	C8H6NO+
133.0324	39	C8H4FN+
133.0449	201	C9H6F+
134.0401	212	C8H5FN+
134.0603	29	C8H8NO+
135.0479	163	C8H6FN+
136.0558	34	C8H7FN+
138.0342	5	C10H4N+
139.0417	3	C10H5N+
139.0544	5	C11H7+
140.0272	8	C7H5FO2+
140.0496	62	C10H6N+
141.0448	19	C9H5N2+
141.0574	64	C10H7N+
142.0526	23	C9H6N2+
142.0652	60	C10H8N+
143.0606	5	C9H7N2+
143.0731	25	C10H9N+
144.037	6	C10H5F+
144.0445	19	C9H6NO+
144.0558	22	C8H6N3+
144.0805	5	C10H10N+
145.0325	16	C9H4FN+
145.0452	5	C10H6F+
146.0402	165	C9H5FN+
146.0527	15	C10H7F+
146.0601	32	C9H8NO+
147.0243	44	C9H4FO+
147.0355	30	C8H4FN2+
147.0479	46	C9H6FN+
148.0558	259	C9H7FN+
149.039	19	C4H5F2N3O+
149.0512	30	C8H6FN2+
149.0637	6	C9H8FN+
150.0349	17	C8H5FNO+
150.0467	6	C12H6+
150.0588	6	C8H7FN2+
150.0716	3	C9H9FN+
151.0356	36	C9H5F2+
151.0426	7	C8H6FNO+
151.0544	9	C12H7+
152.0506	50	C8H7FNO+
153.0451	32	C10H5N2+
153.0576	4	C11H7N+
154.0401	62	C9H4N3+
154.0653	52	C11H8N+
155.0296	13	C11H4F+
155.0605	158	C10H7N2+
156.0369	8	C11H5F+
156.0443	7	C10H6NO+
156.0683	40	C10H8N2+
156.0809	19	C11H10N+
157.0451	104	C11H6F+
157.0759	5	C10H9N2+
158.0403	201	C10H5FN+
159.0356	6	C9H4FN2+
159.0481	17	C10H6FN+
159.055	5	C9H7N2O+
160.0431	28	C9H5FN2+
160.056	34	C10H7FN+
161.039	24	C13H5+
161.0517	28	C9H6FN2+
161.0639	8	C10H8FN+
162.035	18	C9H5FNO+
162.0462	32	C8H5FN3+
162.0716	7	C10H9FN+
163.0428	4	C9H6FNO+
163.0543	76	C13H7+
164.05	51	C9H7FNO+
165.045	16	C11H5N2+
166.0526	28	C11H6N2+
166.0659	3	C9H9FNO+
167.0607	13	C11H7N2+
168.0373	33	C12H5F+
168.0684	30	C11H8N2+
168.0813	4	C12H10N+
169.0448	24	C12H6F+
169.0651	24	C12H9O+
169.0762	60	C11H9N2+
170.0404	15	C11H5FN+
170.0527	64	C12H7F+
170.0595	5	C11H8NO+
170.0839	15	C11H10N2+
171.0353	4	C10H4FN2+
171.0482	17	C11H6FN+
172.0558	30	C11H7FN+
173.0512	64	C10H6FN2+
174.0468	21	C14H6+
174.0592	30	C10H7FN2+
175.0356	53	C11H5F2+
175.0421	8	C13H5N+
175.0546	26	C14H7+
175.0663	28	C10H8FN2+
176.0309	30	C10H4F2N+
176.0505	24	C10H7FNO+
176.0623	20	C14H8+
176.0872	5	C11H11FN+
177.0454	4	C9H6FN2O+
177.0575	22	C13H7N+
178.0658	7	C10H9FNO+
179.0295	19	C13H4F+
179.0605	20	C12H7N2+
180.0372	49	C13H5F+
180.0451	12	C9H7FNO2+
180.0684	16	C12H8N2+
181.045	468	C13H6F+
182.0403	141	C12H5FN+
182.0527	96	C13H7F+
183.048	20	C12H6FN+
183.0607	196	C13H8F+
184.0559	68	C12H7FN+
184.0635	6	C11H8N2O+
185.0512	19	C11H6FN2+
185.0638	50	C12H8FN+
186.0474	47	C12H7FO+
186.0591	27	C11H7FN2+
187.0427	7	C11H6FNO+
187.0554	75	C12H8FO+
187.0674	5	C11H8FN2+
188.043	59	C12H6F2+
188.0499	106	C11H7FNO+
189.0579	44	C14H7N+
190.0655	61	C14H8N+
191.0734	7	C14H9N+
192.0369	15	C14H5F+
192.0449	4	C13H6NO+
193.0451	22	C14H6F+
193.0528	4	C13H7NO+
193.0648	39	C14H9O+
194.053	104	C14H7F+
194.0606	19	C10H9FNO2+
195.0481	168	C13H6FN+
195.061	38	C14H8F+
196.0559	112	C13H7FN+
196.0683	43	C14H9F+
197.0512	54	C12H6FN2+
197.0638	31	C13H8FN+
198.0716	22	C13H9FN+
199.0355	263	C13H5F2+
200.031	21	C12H4F2N+
200.0433	181	C13H6F2+
201.051	629	C13H7F2+
202.0462	96	C12H6F2N+
202.0657	59	C12H9FNO+
203.0614	89	C11H8FN2O+
203.073	14	C15H9N+
204.0385	98	C12H6F2O+
204.0558	21	C13H6N3+
204.081	18	C15H10N+
205.0451	17	C15H6F+
205.0763	6	C14H9N2+
206.0404	198	C14H5FN+
207.0481	112	C14H6FN+
207.0606	66	C15H8F+
208.056	999	C14H7FN+
209.0638	366	C14H8FN+
210.0591	8	C10H8F2N2O+
210.0716	42	C14H9FN+
211.0432	29	C10H7F2NO2+
211.055	8	C9H7F2N3O+
211.0796	5	C14H10FN+
212.0419	29	C6H6N5O4+
212.0511	20	C13H7FNO+
213.0381	28	C13H5F2N+
214.0458	58	C13H6F2N+
214.0591	58	C14H8F2+
215.0531	52	C13H7F2N+
216.0614	42	C13H8F2N+
216.0811	3	C16H10N+
217.0763	6	C12H10FN2O+
218.0402	8	C15H5FN+
218.0603	15	C15H8NO+
219.0481	83	C15H6FN+
219.0573	4	C8H9F2N2O3+
220.056	142	C15H7FN+
221.0513	78	C11H7F2N2O+
221.0638	178	C15H8FN+
222.0482	30	
222.0597	21	C11H8F2N2O+
222.0716	337	C15H9FN+
223.067	83	C14H8FN2+
224.0743	17	C14H9FN2+
224.0865	6	C15H11FN+
225.0391	30	C14H5F2N+
225.0588	26	C14H8FNO+
226.0465	975	C14H6F2N+
227.0543	737	C14H7F2N+
228.0625	136	C14H8F2N+
229.069	24	C14H9F2N+
229.077	26	
230.0406	4	C13H6F2NO+
232.0333	51	C13H6F2O2+
232.0434	4	C12H6F2N2O+
232.0454	5	C12H6F2N2O+
232.0559	73	C16H7FN+
233.0512	36	C15H6FN2+
233.0638	53	C16H8FN+
234.059	90	C15H7FN2+
234.0716	102	C16H9FN+
235.0668	83	C15H8FN2+
235.0796	53	C16H10FN+
236.0508	19	C15H7FNO+
236.0621	20	C19H8+
236.0747	59	C15H9FN2+
236.087	17	C16H11FN+
237.0386	5	C15H5F2N+
237.0584	7	C15H8FNO+
237.0826	21	C15H10FN2+
238.0473	34	C15H6F2N+
238.0665	59	C15H9FNO+
239.0384	28	C11H7F2NO3+
239.0539	127	C15H7F2N+
240.0621	335	C15H8F2N+
241.0573	33	C14H7F2N2+
241.0701	20	C15H9F2N+
242.0768	39	C15H10F2N+
243.0493	8	C14H7F2NO+
244.0566	5	C14H8F2NO+
246.072	15	C17H9FN+
247.0668	131	C16H8FN2+
248.0622	18	C20H8+
248.0747	69	C16H9FN2+
248.0867	10	C17H11FN+
249.0703	8	C20H9+
249.0823	65	C16H10FN2+
250.0665	8	C16H9FNO+
250.0904	8	C16H11FN2+
251.0535	5	C16H7F2N+
252.05	8	C15H6F2N2+
252.0616	48	C16H8F2N+
253.0564	25	C15H7F2N2+
253.0701	50	C16H9F2N+
254.0418	6	C15H6F2NO+
254.0651	38	C15H8F2N2+
254.0774	8	C16H10F2N+
255.0495	49	C15H7F2NO+
255.0725	39	C15H9F2N2+
256.0571	117	C15H8F2NO+
259.0668	29	C17H8FN2+
260.0747	68	C17H9FN2+
261.0696	37	
261.0827	54	C17H10FN2+
262.0776	34	
262.0906	23	C17H11FN2+
263.0618	8	C13H9F2N2O2+
263.0851	5	C16H10FN3+
263.0984	15	C17H12FN2+
265.0571	5	C16H7F2N2+
267.0725	17	C16H9F2N2+
268.0572	6	C16H8F2NO+
268.0802	8	C16H10F2N2+
269.0653	7	C16H9F2NO+
270.0729	9	C16H10F2NO+
271.0678	4	C15H9F2N2O+
273.083	7	C15H11F2N2O+
274.0778	7	C17H9FN3+
275.0854	14	C17H10FN3+
276.0937	4	C17H11FN3+
279.0727	7	C17H9F2N2+
288.0928	18	C18H11FN3+
