Mass spectrum: Flunitrazepam; LC-ESI-QFT; MS2; CE: 75; R=35000; [M+H]+
Name: Flunitrazepam
Name: 5-(2-fluorophenyl)-1-methyl-7-nitro-3H-1,4-benzodiazepin-2-one
Formula: C16H12FN3O3
Exact mass: 313.08627
SMILES: CN1C(=O)CN=C(C2=C1C=CC(=C2)[N+](=O)[O-])C3=CC=CC=C3F
InChI: InChI=1S/C16H12FN3O3/c1-19-14-7-6-10(20(22)23)8-12(14)16(18-9-15(19)21)11-4-2-3-5-13(11)17/h2-8H,9H2,1H3
Instrument: Q Exactive Plus Orbitrap Thermo Scientific
Instrument type: LC-ESI-QFT
Ms type: MS2
Ion mode: POSITIVE
Ionization: ESI
Fragmentation mode: HCD
Collision energy: 75 (nominal)
Resolution: 35000
Column name: XBridge C18 3.5um, 2.1x50mm, Waters
Retention time: 7.9 min
Base peak: 314.0927
Precursor m/z: 314.0935
Precursor type: [M+H]+
m/z	relative intensity	assigned
53.0386	2	C4H5+
58.0287	16	C2H4NO+
63.0229	1	C5H3+
65.0386	6	C5H5+
66.0464	4	C5H6+
67.0417	1	C4H5N+
68.0495	1	C4H6N+
77.0386	2	C6H5+
78.0337	2	C5H4N+
78.0464	7	CH5FN3+
80.0494	8	C5H6N+
89.0385	17	C7H5+
90.0464	48	C7H6+
91.0417	2	C6H5N+
91.0542	19	C7H7+
92.0495	5	C6H6N+
92.0621	2	C7H8+
93.0573	4	C6H7N+
94.0652	3	C6H8N+
95.0492	3	C6H7O+
103.0417	3	C7H5N+
104.0494	38	C7H6N+
105.0447	3	C6H5N2+
105.0574	3	C7H7N+
106.0651	9	C7H8N+
107.0729	19	C7H9N+
109.0448	26	C7H6F+
115.0417	2	C8H5N+
116.0495	11	C8H6N+
117.0573	27	C8H7N+
118.0651	150	C8H8N+
119.073	177	C8H9N+
120.0444	3	C7H6NO+
120.0681	3	C7H8N2+
122.0401	10	C7H5FN+
123.024	23	C7H4FO+
129.0446	4	C8H5N2+
130.0401	1	C7H4N3+
131.0603	8	C8H7N2+
132.0444	11	C8H6NO+
133.0524	2	C8H7NO+
134.0401	12	C8H5FN+
134.0601	5	C8H8NO+
136.0556	4	C8H7FN+
143.0605	40	C9H7N2+
144.0682	14	C9H8N2+
145.0523	7	C9H7NO+
145.0762	13	C9H9N2+
146.06	6	C9H8NO+
147.0554	1	C8H7N2O+
147.0679	31	C9H9NO+
148.0392	3	C8H6NO2+
148.0557	1	C9H7FN+
150.0188	1	C7H4NO3+
150.0551	3	C8H8NO2+
151.0541	1	C12H7+
151.0629	15	C8H9NO2+
152.0621	2	C12H8+
154.0654	1	C11H8N+
159.0605	2	C11H8F+
161.0636	1	C10H8FN+
162.0353	1	C9H5FNO+
163.0539	1	C8H6FN3+
164.062	12	C13H8+
165.07	59	C13H9+
166.0654	6	C12H8N+
166.0776	8	C13H10+
167.073	3	C12H9N+
168.0571	5	C12H8O+
169.0648	1	C12H9O+
170.0527	142	C12H7F+
171.0607	12	C12H8F+
172.056	4	C11H7FN+
173.0637	1	C11H8FN+
173.0705	1	C10H9N2O+
174.0588	17	C10H7FN2+
174.0715	3	C11H9FN+
176.0581	2	C9H8N2O2+
177.0572	2	C13H7N+
177.0699	1	C14H9+
178.0652	10	C13H8N+
179.0576	11	C9H9NO3+
179.0729	7	C13H9N+
180.0808	13	C13H10N+
182.0526	13	C13H7F+
183.0605	292	C13H8F+
184.0564	4	C12H7FN+
184.0683	36	C13H9F+
185.0636	17	C12H8FN+
185.0761	15	C13H10F+
186.0475	4	C12H7FO+
186.059	1	C11H7FN2+
186.0713	11	C12H9FN+
190.0652	39	C14H8N+
191.0729	23	C14H9N+
192.0808	56	C14H10N+
193.0762	3	C13H9N2+
193.0888	16	C14H11N+
194.0967	10	C14H12N+
195.0607	7	C14H8F+
196.0558	13	C13H7FN+
196.0682	5	C14H9F+
196.0762	2	C13H10NO+
197.0636	158	C13H8FN+
198.0714	278	C13H9FN+
199.0555	12	C13H8FO+
199.0666	3	C12H8FN2+
199.0793	12	C13H10FN+
200.0632	2	C13H9FO+
200.0744	1	C12H9FN2+
200.0872	10	C13H11FN+
201.0711	2	C13H10FO+
201.0824	4	C12H10FN2+
202.0651	9	C15H8N+
203.0723	2	C15H9N+
204.0809	26	C15H10N+
205.0762	150	C14H9N2+
206.084	17	C14H10N2+
207.0923	5	C11H12FN2O+
208.0558	24	C14H7FN+
208.0757	3	C14H10NO+
209.0635	15	C14H8FN+
209.1073	2	C14H13N2+
210.0715	194	C14H9FN+
211.0793	294	C14H10FN+
212.0751	21	C13H9FN2+
212.087	255	C14H11FN+
213.0824	27	C13H10FN2+
213.0948	13	C14H12FN+
214.043	1	C13H7FO2+
214.0663	9	C13H9FNO+
217.0763	1	C15H9N2+
218.084	8	C15H10N2+
219.0918	152	C15H11N2+
220.0761	8	C15H10NO+
220.0995	24	C15H12N2+
221.1074	121	C15H13N2+
222.0714	233	C15H9FN+
223.0667	57	C14H8FN2+
223.0792	20	C15H10FN+
224.0745	123	C14H9FN2+
224.0864	9	C15H11FN+
225.0823	132	C14H10FN2+
226.0664	4	C14H9FNO+
226.0904	4	C14H11FN2+
227.0744	3	C14H10FNO+
227.0979	66	C14H12FN2+
228.0821	11	C14H11FNO+
235.0868	2	C15H11N2O+
237.0823	45	C15H10FN2+
238.0662	11	C15H9FNO+
238.0901	38	C15H11FN2+
239.0979	999	C15H12FN2+
240.0824	6	C15H11FNO+
240.1057	63	C15H13FN2+
241.0771	4	C14H10FN2O+
243.069	11	C14H10FNO2+
243.093	1	C14H12FN2O+
245.0847	2	C14H12FNO2+
247.0868	2	C16H11N2O+
249.1028	4	C16H13N2O+
252.0691	5	C15H9FN2O+
253.0773	4	C15H10FN2O+
255.0931	7	C15H12FN2O+
256.0643	11	C14H9FN2O2+
267.0928	28	C16H12FN2O+
268.1006	155	C16H13FN2O+
270.067	7	C14H9FN3O2+
270.0803	6	C15H11FN2O2+
271.0878	3	C15H12FN2O2+
272.0955	20	C15H13FN2O2+
283.0875	1	C16H12FN2O2+
300.0905	61	C16H13FN2O3+
