Mass spectrum: Prometryn; LC-ESI-ITFT; MS2; CE: 75%; R=7500; [M+H]+
Name: Prometryn
Name: 6-(methylthio)-N2,N4-di(propan-2-yl)-1,3,5-triazine-2,4-diamine
Formula: C10H19N5S
Exact mass: 241.1356
SMILES: c1(nc(NC(C)C)nc(n1)SC)NC(C)C
InChI: InChI=1S/C10H19N5S/c1-6(2)11-8-13-9(12-7(3)4)15-10(14-8)16-5/h6-7H,1-5H3,(H2,11,12,13,14,15)
Instrument: LTQ Orbitrap XL Thermo Scientific
Instrument type: LC-ESI-ITFT
Ms type: MS2
Ion mode: POSITIVE
Ionization: ESI
Fragmentation mode: HCD
Collision energy: 75 % (nominal)
Resolution: 7500
Column name: XBridge C18 3.5um, 2.1x50mm, Waters
Retention time: 8.5 min
Base peak: 242.1438
Precursor m/z: 242.1434
Precursor type: [M+H]+
m/z	relative intensity	assigned
68.0244	288	C2H2N3+
74.0059	48	C2H4NS+
85.051	153	C2H5N4+
91.0325	60	C2H7N2S+
110.0462	69	C3H4N5+
110.0713	5	C5H8N3+
116.0278	222	C3H6N3S+
127.0979	5	C5H11N4+
128.0565	6	C3H6N5O+
143.0262	3	C3H5N5S+
152.0933	7	C6H10N5+
158.0497	999	C4H8N5S+
200.0968	89	C7H14N5S+
242.1422	4	C10H20N5S+
