Mass spectrum: Bisoprolol; LC-ESI-QFT; MS2; CE: 60; R=35000; [M+H]+
Name: Bisoprolol
Name: 1-(propan-2-ylamino)-3-[4-(2-propan-2-yloxyethoxymethyl)phenoxy]-2-propanol
Formula: C18H31NO4
Exact mass: 325.22531
SMILES: O(c1ccc(cc1)COCCOC(C)C)CC(O)CNC(C)C
InChI: InChI=1S/C18H31NO4/c1-14(2)19-11-17(20)13-23-18-7-5-16(6-8-18)12-21-9-10-22-15(3)4/h5-8,14-15,17,19-20H,9-13H2,1-4H3
Instrument: Q Exactive Orbitrap Thermo Scientific
Instrument type: LC-ESI-QFT
Ms type: MS2
Ion mode: POSITIVE
Ionization: ESI
Fragmentation mode: HCD
Collision energy: 60 (nominal)
Resolution: 35000
Column name: XBridge C18 3.5um, 2.1x50mm, Waters
Retention time: 6.1 min
Base peak: 326.2328
Precursor m/z: 326.2326
Precursor type: [M+H]+
m/z	relative intensity	assigned
56.0496	152	C3H6N+
58.0652	60	C3H8N+
60.0808	6	C3H10N+
63.023	2	C5H3+
65.0385	2	C5H5+
69.0699	6	C5H9+
70.0651	1	C4H8N+
72.0808	349	C4H10N+
73.0284	7	C3H5O2+
74.06	999	C3H8NO+
75.044	21	C3H7O2+
79.0542	23	C6H7+
84.0807	19	C5H10N+
89.0386	58	C7H5+
91.0542	105	C7H7+
93.07	2	C7H9+
95.0491	5	C6H7O+
98.0964	186	C6H12N+
100.1121	17	C6H14N+
103.0542	5	C8H7+
105.0699	47	C8H9+
107.0492	228	C7H7O+
115.0541	1	C9H7+
116.107	532	C6H14NO+
117.0698	11	C9H9+
119.0492	83	C8H7O+
119.0854	16	C9H11+
121.0647	54	C8H9O+
129.07	7	C10H9+
133.0648	170	C9H9O+
134.06	6	C8H8NO+
137.0598	37	C8H9O2+
144.081	2	C10H10N+
145.0648	65	C10H9O+
147.0805	74	C10H11O+
149.0961	3	C10H13O+
162.0914	38	C10H12NO+
163.0754	15	C10H11O2+
204.1386	2	C13H18NO+
