Mass spectrum: Metamitron-desamino; LC-ESI-ITFT; MS2; CE: 35%; R=30000; [M+H]+
Name: Metamitron-desamino
Name: 3-Methyl-6-phenyl-1,2,4-triazin-5-ol
Formula: C10H9N3O
Exact mass: 187.0746
SMILES: c(ccc1C(=NN=C2C)C(=O)N2)cc1
InChI: InChI=1S/C10H9N3O/c1-7-11-10(14)9(13-12-7)8-5-3-2-4-6-8/h2-6H,1H3,(H,11,12,14)
Instrument: LTQ Orbitrap XL Thermo Scientific
Instrument type: LC-ESI-ITFT
Ms type: MS2
Ion mode: POSITIVE
Ionization: ESI
Fragmentation mode: CID
Collision energy: 35 % (nominal)
Resolution: 30000
Column name: XBridge C18 3.5um, 2.1x50mm, Waters
Retention time: 5.1 min
Base peak: 188.0824
Precursor m/z: 188.0818
Precursor type: [M+H]+
m/z	relative intensity	assigned
77.0387	4	C6H5+
85.0397	15	C3H5N2O+
104.0495	70	C7H6N+
119.0605	139	C7H7N2+
142.0651	1	C10H8N+
147.0555	1	C8H7N2O+
160.0871	999	C9H10N3+
188.0818	65	C10H10N3O+
