Mass spectrum: Metribuzin-diketo; LC-ESI-ITFT; MS2; CE: 35%; R=30000; [M+H]+
Name: Metribuzin-diketo
Name: 4-amino-6-tert-butyl-2H-1,2,4-triazine-3,5-dione
Formula: C7H12N4O2
Exact mass: 184.0960
SMILES: O=C(NN=C1C(C)(C)C)N(N)C1=O
InChI: InChI=1S/C7H12N4O2/c1-7(2,3)4-5(12)11(8)6(13)10-9-4/h8H2,1-3H3,(H,10,13)
Instrument: LTQ Orbitrap XL Thermo Scientific
Instrument type: LC-ESI-ITFT
Ms type: MS2
Ion mode: POSITIVE
Ionization: ESI
Fragmentation mode: CID
Collision energy: 35 % (nominal)
Resolution: 30000
Column name: XBridge C18 3.5um, 2.1x50mm, Waters
Retention time: 5.9 min
Base peak: 185.1036
Precursor m/z: 185.1033
Precursor type: [M+H]+
m/z	relative intensity	assigned
57.0698	19	C4H9+
67.0542	12	C5H7+
68.0493	3	C4H6N+
69.0698	83	C5H9+
70.0285	2	C3H4NO+
70.0651	7	C4H8N+
82.065	3	C5H8N+
83.0239	7	C3H3N2O+
84.0807	20	C5H10N+
85.0885	5	C5H11N+
95.0603	4	C5H7N2+
96.0442	5	C5H6NO+
97.076	9	C5H9N2+
99.0915	6	C5H11N2+
100.0505	6	C3H6N3O+
101.0345	363	C3H5N2O2+
110.0599	34	C6H8NO+
111.0678	15	C6H9NO+
112.014	19	C3H2N3O2+
125.0708	96	C6H9N2O+
127.0864	8	C6H11N2O+
140.0817	3	C6H10N3O+
141.0657	303	C6H9N2O2+
142.0735	6	C6H10N2O2+
143.0813	7	C6H11N2O2+
156.0892	142	C7H12N2O2+
157.1083	999	C6H13N4O+
168.0766	3	C7H10N3O2+
169.0718	144	C6H9N4O2+
