Mass spectrum: Dexamethasone acetate; LC-ESI-QFT; MS2; CE: 45; R=35000; [M-H]-
Name: Dexamethasone acetate
Name: Dexamethason-21-acetate
Name: [2-(9-fluoro-11,17-dihydroxy-10,13,16-trimethyl-3-oxo-6,7,8,11,12,14,15,16-octahydrocyclopenta[a]phenanthren-17-yl)-2-oxoethyl] acetate
Formula: C24H31FO6
Exact mass: 434.21047
SMILES: CC1CC2C3CCC4=CC(=O)C=CC4(C3(C(CC2(C1(C(=O)COC(=O)C)O)C)O)F)C
InChI: InChI=1S/C24H31FO6/c1-13-9-18-17-6-5-15-10-16(27)7-8-21(15,3)23(17,25)19(28)11-22(18,4)24(13,30)20(29)12-31-14(2)26/h7-8,10,13,17-19,28,30H,5-6,9,11-12H2,1-4H3
Instrument: Q Exactive Plus Orbitrap Thermo Scientific
Instrument type: LC-ESI-QFT
Ms type: MS2
Ion mode: NEGATIVE
Ionization: ESI
Fragmentation mode: HCD
Collision energy: 45 (nominal)
Resolution: 35000
Column name: XBridge C18 3.5um, 2.1x50mm, Waters
Retention time: 10.3 min
Base peak: 479.2081
Precursor m/z: 433.2032
Precursor type: [M-H]-
m/z	relative intensity	assigned
59.0138	999	C2H3O2-
71.0138	2	C3H3O2-
73.0295	10	C3H5O2-
83.0502	1	C5H7O-
89.0243	1	C3H5O3-
99.0451	6	C5H7O2-
101.0243	7	C4H5O3-
107.0502	2	C7H7O-
121.0658	11	C8H9O-
123.0452	2	C7H7O2-
131.05	1	C9H7O-
133.0658	7	C9H9O-
135.0451	2	C8H7O2-
135.0814	1	C9H11O-
137.0605	1	C8H9O2-
145.0658	1	C10H9O-
147.0815	2	C10H11O-
149.0607	3	C9H9O2-
151.0763	2	C9H11O2-
157.0657	1	C11H9O-
159.0814	3	C11H11O-
161.0606	2	C10H9O2-
165.0555	2	C9H9O3-
171.0815	1	C12H11O-
172.0529	1	C11H8O2-
173.0607	2	C11H9O2-
173.097	1	C12H13O-
175.0763	2	C11H11O2-
176.0477	2	C10H8O3-
177.092	1	C11H13O2-
185.0606	2	C12H9O2-
186.0685	1	C12H10O2-
187.0763	1	C12H11O2-
189.0556	2	C11H9O3-
189.0919	1	C12H13O2-
190.0634	1	C11H10O3-
191.1076	1	C12H15O2-
199.076	1	C13H11O2-
201.092	3	C13H13O2-
203.0713	1	C12H11O3-
204.0789	2	C12H12O3-
208.089	1	C15H12O-
210.0684	1	C14H10O2-
223.0763	2	C15H11O2-
227.1076	1	C15H15O2-
239.1075	1	C16H15O2-
241.1233	7	C16H17O2-
253.1233	1	C17H17O2-
255.139	1	C17H19O2-
263.1074	1	C18H15O2-
265.1232	5	C18H17O2-
277.0865	2	C18H13O3-
277.1233	1	C19H17O2-
279.1027	3	C18H15O3-
279.139	2	C19H19O2-
281.1544	1	C19H21O2-
289.1234	1	C20H17O2-
291.1024	5	C19H15O3-
291.1386	1	C20H19O2-
292.1104	42	C19H16O3-
293.1184	3	C19H17O3-
293.1545	1	C20H21O2-
295.1336	2	C19H19O3-
296.1415	4	C19H20O3-
297.1495	1	C19H21O3-
304.1104	1	C20H16O3-
305.1184	2	C20H17O3-
307.1338	64	C20H19O3-
308.1418	2	C20H20O3-
309.1499	1	C20H21O3-
310.121	18	C19H18O4-
310.1569	1	C20H22O3-
311.1651	26	C20H23O3-
317.1541	1	C22H21O2-
319.1338	2	C21H19O3-
320.1413	1	C21H20O3-
323.1287	6	C20H19O4-
323.1647	2	C21H23O3-
324.1365	1	C20H20O4-
325.1444	54	C20H21O4-
325.181	4	C21H25O3-
327.1402	1	C20H20FO3-
331.1711	1	C20H24FO3-
335.1649	1	C22H23O3-
337.1444	12	C21H21O4-
338.1523	5	C21H22O4-
339.1599	3	C21H23O4-
341.1757	3	C21H25O4-
343.1712	2	C21H24FO3-
345.1506	6	C20H22FO4-
351.1598	1	C22H23O4-
352.1681	2	C22H24O4-
353.1757	108	C22H25O4-
361.1819	11	C21H26FO4-
