Mass spectrum: Ketoconazole; LC-ESI-QFT; MS2; CE: 75; R=35000; [M+H]+
Name: Ketoconazole
Name: 1-[4-[4-[[(2R,4S)-2-(2,4-dichlorophenyl)-2-(imidazol-1-ylmethyl)-1,3-dioxolan-4-yl]methoxy]phenyl]piperazin-1-yl]ethanone
Formula: C26H28Cl2N4O4
Exact mass: 530.14876
SMILES: CC(=O)N1CCN(CC1)C2=CC=C(C=C2)OC[C@H]3CO[C@](O3)(CN4C=CN=C4)C5=C(C=C(C=C5)Cl)Cl
InChI: InChI=1S/C26H28Cl2N4O4/c1-19(33)31-10-12-32(13-11-31)21-3-5-22(6-4-21)34-15-23-16-35-26(36-23,17-30-9-8-29-18-30)24-7-2-20(27)14-25(24)28/h2-9,14,18,23H,10-13,15-17H2,1H3/t23-,26-/m0/s1
Instrument: Q Exactive Plus Orbitrap Thermo Scientific
Instrument type: LC-ESI-QFT
Ms type: MS2
Ion mode: POSITIVE
Ionization: ESI
Fragmentation mode: HCD
Collision energy: 75 (nominal)
Resolution: 35000
Column name: XBridge C18 3.5um, 2.1x50mm, Waters
Retention time: 7.9 min
Base peak: 531.1558
Precursor m/z: 531.156
Precursor type: [M+H]+
m/z	relative intensity	assigned
51.0228	1	C4H3+
53.0386	3	C4H5+
54.0338	62	C3H4N+
55.0178	7	C3H3O+
55.0416	11	C3H5N+
55.0542	4	C4H7+
56.0495	87	C3H6N+
57.0573	1	C3H7N+
58.0651	8	C3H8N+
65.0385	10	C5H5+
68.0369	43	C3H4N2+
68.0494	9	C4H6N+
69.0447	110	C3H5N2+
70.0651	197	C4H8N+
71.0603	84	C3H7N2+
77.0384	4	C6H5+
79.0542	46	C6H7+
80.0131	1	C4H2NO+
80.0494	10	C5H6N+
81.0447	907	C4H5N2+
82.0525	999	C4H6N2+
83.0603	28	C4H7N2+
84.0683	1	C4H8N2+
85.0286	1	C4H5O2+
86.06	40	C4H8NO+
91.0542	34	C7H7+
92.0496	1	C6H6N+
93.0336	3	C6H5O+
93.0572	1	C6H7N+
93.0699	4	C7H9+
94.0413	10	C6H6O+
94.0651	5	C6H8N+
95.0491	13	C6H7O+
95.0604	8	C5H7N2+
96.0444	1	C5H6NO+
98.9996	11	C5H4Cl+
99.0229	1	C8H3+
103.0542	31	C8H7+
104.0495	6	C7H6N+
104.0621	2	C8H8+
105.0447	6	C6H5N2+
105.0573	1	C7H7N+
105.0699	19	C8H9+
106.0651	20	C7H8N+
107.0491	42	C7H7O+
107.0603	12	C6H7N2+
107.0728	3	C7H9N+
108.0442	5	C6H6NO+
108.0569	1	C7H8O+
108.0806	1	C7H10N+
109.0396	28	C5H5N2O+
109.0523	3	C6H7NO+
109.076	7	C6H9N2+
111.0442	7	C6H7O2+
111.0553	7	C5H7N2O+
112.0757	205	C6H10NO+
113.0711	1	C5H9N2O+
114.0423	1	C4H6N2O2+
115.0542	32	C9H7+
116.0498	1	C8H6N+
116.0621	7	C9H8+
117.0573	30	C8H7N+
117.0699	27	C9H9+
118.0651	53	C8H8N+
119.0493	5	C8H7O+
119.0601	1	C7H7N2+
119.0729	11	C8H9N+
119.0855	5	C9H11+
120.0444	304	C7H6NO+
120.0808	58	C8H10N+
121.0396	14	C6H5N2O+
121.0522	6	C7H7NO+
121.0648	7	C8H9O+
121.0761	3	C7H9N2+
122.06	181	C7H8NO+
122.9995	52	C7H4Cl+
124.0074	2	C7H5Cl+
125.0153	17	C7H6Cl+
125.9867	2	C6H3ClO+
127.0502	152	C5H7N2O2+
128.0496	1	C9H6N+
128.0621	12	C10H8+
129.0698	25	C10H9+
130.0651	84	C9H8N+
131.0491	20	C9H7O+
131.0603	4	C8H7N2+
131.073	34	C9H9N+
132.0443	3	C8H6NO+
132.0569	19	C9H8O+
132.0808	32	C9H10N+
132.9604	1	C5H3Cl2+
133.0522	18	C8H7NO+
133.0647	5	C9H9O+
133.0885	1	C9H11N+
134.06	160	C8H8NO+
135.0678	84	C8H9NO+
136.0075	11	C8H5Cl+
136.0757	121	C8H10NO+
137.0153	4	C8H6Cl+
138.0231	1	C8H7Cl+
139.0058	4	C6H4ClN2+
139.0308	13	C8H8Cl+
141.0101	1	C7H6ClO+
142.0646	1	C10H8N+
143.073	18	C10H9N+
144.0565	3	C10H8O+
144.0808	55	C10H10N+
145.0649	15	C10H9O+
145.0887	20	C10H11N+
145.9686	6	C6H4Cl2+
146.06	47	C9H8NO+
146.0964	80	C10H12N+
146.9765	7	C6H5Cl2+
147.0441	1	C9H7O2+
147.0551	1	C8H7N2O+
147.0678	8	C9H9NO+
147.0804	1	C10H11O+
148.0757	150	C9H10NO+
149.0153	37	C9H6Cl+
150.0231	65	C9H7Cl+
151.031	16	C9H8Cl+
152.0021	1	C8H5ClO+
154.0652	6	C11H8N+
154.9895	1	C7H4ClO2+
155.0603	12	C10H7N2+
155.0729	1	C11H9N+
156.0682	4	C10H8N2+
156.0807	17	C11H10N+
157.0884	8	C11H11N+
157.9685	73	C7H4Cl2+
158.0965	23	C11H12N+
158.9763	314	C7H5Cl2+
159.0679	23	C10H9NO+
160.0756	32	C10H10NO+
161.071	2	C9H9N2O+
161.0837	5	C10H11NO+
161.1073	1	C10H13N2+
162.079	5	C9H10N2O+
162.0912	13	C10H12NO+
163.0308	10	C10H8Cl+
163.0863	5	C9H11N2O+
163.1228	5	C10H15N2+
165.0104	3	C9H6ClO+
167.0258	22	C9H8ClO+
167.0815	105	C8H11N2O2+
168.0682	1	C11H8N2+
169.0763	1	C11H9N2+
169.9684	209	C8H4Cl2+
170.9763	31	C8H5Cl2+
171.0678	1	C11H9NO+
171.9842	2	C8H6Cl2+
172.0757	19	C11H10NO+
172.1122	4	C12H14N+
172.9556	163	C7H3Cl2O+
172.9662	10	
174.0914	97	C11H12NO+
174.9713	13	C7H5Cl2O+
175.0867	4	C10H11N2O+
176.0708	3	C10H10NO2+
176.0945	5	C10H12N2O+
176.107	5	C11H14NO+
177.034	3	C10H8ClN+
177.0786	5	C10H11NO2+
177.1022	48	C10H13N2O+
178.0862	3	C10H12NO2+
179.0256	3	C10H8ClO+
182.9765	4	C9H5Cl2+
184.0757	3	C12H10NO+
184.9919	29	C9H7Cl2+
185.9634	121	C8H4Cl2O+
186.9711	19	C8H5Cl2O+
188.1071	1	C12H14NO+
189.139	1	C12H17N2+
189.9583	3	C7H4Cl2O2+
190.0861	4	C11H12NO2+
191.0369	4	C10H8ClN2+
192.102	23	C11H14NO2+
198.971	2	C9H5Cl2O+
200.1069	1	C13H14NO+
202.9662	3	C8H5Cl2O2+
203.037	39	C11H8ClN2+
204.0214	1	C8H10Cl2N2+
204.0448	3	C11H9ClN2+
204.102	1	C12H14NO2+
205.0291	19	C11H8ClNO+
205.053	3	C11H10ClN2+
212.0027	5	C10H8Cl2N+
216.1017	3	C13H14NO2+
229.0534	2	C13H10ClN2+
233.0476	2	C12H10ClN2O+
236.9982	2	C11H7Cl2N2+
239.0136	9	C11H9Cl2N2+
239.9978	4	C11H8Cl2NO+
247.0636	6	C10H15Cl2N3+
252.9931	14	C11H7Cl2N2O+
255.0086	60	C11H9Cl2N2O+
267.0086	47	C12H9Cl2N2O+
281.0242	11	C13H11Cl2N2O+
378.0658	4	C19H18Cl2NO3+
