Mass spectrum: Brodifacoum; LC-ESI-QFT; MS2; CE: 180%; R=17500; [M+H]+
Name: Brodifacoum
Name: 3-[3-[4-(4-bromophenyl)phenyl]-1,2,3,4-tetrahydronaphthalen-1-yl]-4-hydroxychromen-2-one
Formula: C31H23BrO3
Exact mass: 522.0831
SMILES: C1C(CC2=CC=CC=C2C1C3=C(C4=CC=CC=C4OC3=O)O)C5=CC=C(C=C5)C6=CC=C(C=C6)Br
InChI: InChI=1S/C31H23BrO3/c32-24-15-13-20(14-16-24)19-9-11-21(12-10-19)23-17-22-5-1-2-6-25(22)27(18-23)29-30(33)26-7-3-4-8-28(26)35-31(29)34/h1-16,23,27,33H,17-18H2
Instrument: Exploris 240 Orbitrap Thermo Scientific
Instrument type: LC-ESI-QFT
Ms type: MS2
Ion mode: POSITIVE
Ionization: ESI
Fragmentation mode: HCD
Collision energy: 180 % (nominal)
Resolution: 17500
Column name: XBridge C18 3.5um, 2.1x50mm, Waters
Retention time: 16.530 min
Base peak: 523.0906
Precursor m/z: 523.0903
Precursor type: [M+H]+
m/z	relative intensity	assigned
63.0229	196	C5H3+
65.0386	849	C5H5+
75.0229	79	C6H3+
76.0309	89	C6H4+
77.0386	340	C6H5+
78.0463	108	C6H6+
89.0385	313	C7H5+
91.0543	232	C7H7+
94.0413	23	C6H6O+
95.0492	374	C6H7O+
102.0464	230	C8H6+
115.0542	603	C9H7+
126.0465	206	C10H6+
127.0542	107	C10H7+
128.062	267	C10H8+
139.0541	367	C11H7+
150.0465	594	C12H6+
151.0543	244	C12H7+
152.0621	890	C12H8+
153.0697	73	C12H9+
163.0542	655	C13H7+
164.062	180	C13H8+
165.0699	192	C13H9+
168.0573	38	C12H8O+
169.0648	483	C12H9O+
176.062	999	C14H8+
177.0701	200	C14H9+
178.0776	255	C14H10+
200.0621	66	C16H8+
202.0777	66	C16H10+
213.0704	141	C17H9+
226.0773	186	C18H10+
237.0696	463	C19H9+
238.0779	154	C19H10+
239.0856	473	C19H11+
250.0774	318	C20H10+
252.0934	461	C20H12+
