Mass spectrum: Exemestane; LC-ESI-ITFT; MS2; CE: 30%; R=15000; [M+H]+
Name: Exemestane
Name: (8R,9S,10R,13S,14S)-10,13-dimethyl-6-methylene-7,8,9,11,12,14,15,16-octahydrocyclopenta[a]phenanthrene-3,17-dione
Formula: C20H24O2
Exact mass: 296.1776
SMILES: CC12CCC3C(C1CCC2=O)CC(=C)C4=CC(=O)C=CC34C
InChI: InChI=1S/C20H24O2/c1-12-10-14-15-4-5-18(22)20(15,3)9-7-16(14)19(2)8-6-13(21)11-17(12)19/h6,8,11,14-16H,1,4-5,7,9-10H2,2-3H3/t14-,15-,16-,19+,20-/m0/s1
Instrument: LTQ Orbitrap XL Thermo Scientific
Instrument type: LC-ESI-ITFT
Ms type: MS2
Ion mode: POSITIVE
Ionization: ESI
Fragmentation mode: HCD
Collision energy: 30 % (nominal)
Resolution: 15000
Column name: XBridge C18 3.5um, 2.1x50mm, Waters
Retention time: 10.1 min
Base peak: 297.1859
Precursor m/z: 297.1849
Precursor type: [M+H]+
m/z	relative intensity	assigned
79.0543	58	C6H7+
81.07	17	C6H9+
91.0544	20	C7H7+
93.0699	181	C7H9+
97.0649	38	C6H9O+
105.0699	62	C8H9+
107.0854	54	C8H11+
119.0855	21	C9H11+
121.0648	156	C8H9O+
121.1011	311	C9H13+
123.0804	14	C8H11O+
131.0856	56	C10H11+
133.0649	8	C9H9O+
133.1011	39	C10H13+
135.0804	113	C9H11O+
135.1168	11	C10H15+
137.0964	10	C9H13O+
145.0644	19	C10H9O+
145.1011	120	C11H13+
147.0803	93	C10H11O+
147.1167	31	C11H15+
149.0961	568	C10H13O+
159.0806	15	C11H11O+
161.0961	44	C11H13O+
161.1324	11	C12H17+
163.1116	57	C11H15O+
171.1168	66	C13H15+
173.0962	32	C12H13O+
175.1116	8	C12H15O+
177.1275	17	C12H17O+
185.0959	83	C13H13O+
187.1118	28	C13H15O+
189.1274	53	C13H17O+
197.0956	10	C14H13O+
199.1109	14	C14H15O+
201.127	26	C14H17O+
209.0961	9	C15H13O+
211.112	13	C15H15O+
223.112	22	C16H15O+
225.1277	11	C16H17O+
227.1432	9	C16H19O+
237.1267	25	C17H17O+
239.143	51	C17H19O+
251.1429	12	C18H19O+
253.1586	38	C18H21O+
255.1741	28	C18H23O+
279.1743	458	C20H23O+
297.1848	999	C20H25O2+
