Mass spectrum: Sulfentrazon; LC-ESI-QFT; MS2; CE: 45; R=35000; [M-H]-
Name: Sulfentrazon
Name: N-(2,4-dichloro-5-(4-(difluoromethyl)-4,5-dihydro-3-methyl-5-oxo-1H-1,2,4-triazol-1-yl)phenyl)methanesulfonamide
Name: N-[2,4-dichloro-5-[4-(difluoromethyl)-3-methyl-5-oxo-1,2,4-triazol-1-yl]phenyl]methanesulfonamide
Formula: C11H10Cl2F2N4O3S
Exact mass: 385.98187
SMILES: O=S(=O)(Nc2c(Cl)cc(Cl)c(N1/N=C(\N(C1=O)C(F)F)C)c2)C
InChI: InChI=1S/C11H10Cl2F2N4O3S/c1-5-16-19(11(20)18(5)10(14)15)9-4-8(17-23(2,21)22)6(12)3-7(9)13/h3-4,10,17H,1-2H3
Instrument: Q Exactive Plus Orbitrap Thermo Scientific
Instrument type: LC-ESI-QFT
Ms type: MS2
Ion mode: NEGATIVE
Ionization: ESI
Fragmentation mode: HCD
Collision energy: 45 (nominal)
Resolution: 35000
Column name: XBridge C18 3.5um, 2.1x50mm, Waters
Retention time: 7.5 min
Base peak: 384.9745
Precursor m/z: 384.9746
Precursor type: [M-H]-
m/z	relative intensity	assigned
63.9625	26	O2S-
65.0083	1	CHF2N-
71.0052	2	C2FN2-
76.9704	49	CHO2S-
78.9859	1	CH3O2S-
91.0113	7	C2HF2N2-
100.0067	2	C6N2-
106.0349	1	C3H4F2N2-
128.0266	2	C4H3FN3O-
136.9911	1	C6H2ClN2-
140.0253	3	C8H2N3-
146.016	1	C7HFN3-
148.0329	16	C4H4F2N3O-
157.957	1	C6H2Cl2N-
162.9942	2	C7H2ClN3-
164.9861	3	C7H2ClN2O-
166.9817	14	C7HClFN2-
171.9602	36	C6H2Cl2N2-
177.0097	4	C8H4ClN3-
178.0179	2	C8H5ClN3-
178.9892	3	C7H2ClN3O-
179.9972	2	C7H3ClN3O-
182.9522	1	C7HCl2N2-
182.9769	1	CH9Cl2N2O2S-
184.0393	2	C9H4N4O-
189.9815	16	C8HClN3O-
195.0309	1	C10H3N4O-
196.9554	6	C7HCl2N3-
198.9472	237	C7HCl2N2O-
199.955	81	C7H2Cl2N2O-
200.9628	12	C7H3Cl2N2O-
201.9507	9	C7HCl2FN2-
202.9814	2	C7H6ClNO2S-
203.997	7	C9H3ClN3O-
207.0004	1	C9H3ClFN3-
208.9798	13	C2H9Cl2N3O2S-
209.9877	8	C8H2ClFN3O-
211.9675	3	C9H4Cl2NO-
212.963	6	C8H3Cl2N2O-
213.9946	12	C11HFNO3-
215.9738	1	C4H5Cl2FN3O2-
218.9533	2	C7H2Cl2FN2O-
219.9613	12	C7H3Cl2FN2O-
221.0237	22	C9H6ClN4O-
224.9505	4	C8HCl2N3O-
225.9582	113	C8H2Cl2N3O-
228.9925	1	C10H2ClN4O-
230.9996	24	
238.9658	1	C9H3Cl2N3O-
239.9738	167	C9H4Cl2N3O-
240.982	2	C9H3ClFN2O3-
244.9564	37	C8H2Cl2FN3O-
255.995	21	C8H9Cl2FNO3-
257.0003	11	C9H7Cl2N4O-
266.9846	17	C10H5Cl2N4O-
270.0127	16	C10H5ClF2N4O-
271.0204	8	C10H6ClF2N4O-
278.9783	19	C9H5Cl2F2N3O-
286.9909	7	C10H6Cl2FN4O-
299.0013	69	C10H8ClN4O3S-
301.0315	1	C11H8ClF2N4O2-
304.9818	4	C10H5Cl2F2N4O-
305.9894	263	C10H6Cl2F2N4O-
306.9973	999	C10H7Cl2F2N4O-
334.9781	65	C10H9Cl2N4O3S-
364.9688	7	C11H8Cl2FN4O3S-
384.9748	122	C11H9Cl2F2N4O3S-
