Mass spectrum: Imidacloprid-urea; LC-ESI-ITFT; MS2; CE: 75%; R=15000; [M+H]+
Name: Imidacloprid-urea
Name: 1-[(6-Chloropyridin-3-yl)methyl]imidazolidin-2-one
Formula: C9H10ClN3O
Exact mass: 211.0512
SMILES: Clc2ncc(CN1CCNC1=O)cc2
InChI: InChI=1S/C9H10ClN3O/c10-8-2-1-7(5-12-8)6-13-4-3-11-9(13)14/h1-2,5H,3-4,6H2,(H,11,14)
Instrument: LTQ Orbitrap XL Thermo Scientific
Instrument type: LC-ESI-ITFT
Ms type: MS2
Ion mode: POSITIVE
Ionization: ESI
Fragmentation mode: HCD
Collision energy: 75 % (nominal)
Resolution: 15000
Column name: XBridge C18 3.5um, 2.1x50mm, Waters
Retention time: 4.6 min
Base peak: 212.0588
Precursor m/z: 212.0585
Precursor type: [M+H]+
m/z	relative intensity	assigned
56.0495	16	C3H6N+
63.0228	1	C5H3+
65.0386	18	C5H5+
70.0287	14	C3H4NO+
71.0603	5	C3H7N2+
72.9839	1	C3H2Cl+
78.0337	3	C5H4N+
79.0541	2	C6H7+
80.0493	4	C5H6N+
85.0397	8	C3H5N2O+
90.0338	23	C6H4N+
91.0416	4	C6H5N+
92.0494	59	C6H6N+
93.0573	39	C6H7N+
96.0443	14	C5H6NO+
99.0552	274	C4H7N2O+
101.0152	2	C5H6Cl+
105.0446	1	C6H5N2+
106.0651	10	C7H8N+
107.0603	20	C6H7N2+
109.0521	2	C6H7NO+
110.06	20	C6H8NO+
114.0104	117	C5H5ClN+
116.0492	1	C8H6N+
118.0525	3	C7H6N2+
120.0682	6	C7H8N2+
121.076	2	C7H9N2+
123.0552	10	C6H7N2O+
126.0105	618	C6H5ClN+
127.0183	72	C6H6ClN+
128.0261	999	C6H7ClN+
131.0603	2	C8H7N2+
132.0681	3	C8H8N2+
133.076	41	C8H9N2+
134.0843	1	C8H10N2+
135.0551	2	C4H10ClN3+
140.0258	1	C7H7ClN+
141.0214	10	C6H6ClN2+
142.0054	13	C6H5ClNO+
142.0292	6	C6H7ClN2+
144.021	20	C6H7ClNO+
148.0871	1	C8H10N3+
149.0706	2	C8H9N2O+
151.0062	1	C7H4ClN2+
154.0295	2	C7H7ClN2+
156.0448	1	C7H9ClN2+
167.037	3	C8H8ClN2+
168.0205	3	C8H7ClNO+
169.0162	6	C7H6ClN2O+
169.0527	8	C8H10ClN2+
176.0817	25	C9H10N3O+
177.0896	1	C9H11N3O+
194.0479	14	C9H9ClN3+
195.0318	10	C9H8ClN2O+
210.0423	3	C9H9ClN3O+
212.0584	28	C9H11ClN3O+
