Mass spectrum: Linuron; LC-ESI-ITFT; MS2; CE: 45%; R=7500; [M+H]+
Name: Linuron
Name: 3-(3,4-dichlorophenyl)-1-methoxy-1-methyl-urea
Formula: C9H10Cl2N2O2
Exact mass: 248.0114
SMILES: c1(cc(c(Cl)cc1)Cl)NC(N(OC)C)=O
InChI: InChI=1S/C9H10Cl2N2O2/c1-13(15-2)9(14)12-6-3-4-7(10)8(11)5-6/h3-5H,1-2H3,(H,12,14)
Instrument: LTQ Orbitrap XL Thermo Scientific
Instrument type: LC-ESI-ITFT
Ms type: MS2
Ion mode: POSITIVE
Ionization: ESI
Fragmentation mode: HCD
Collision energy: 45 % (nominal)
Resolution: 7500
Column name: XBridge C18 3.5um, 2.1x50mm, Waters
Retention time: 10.0 min
Base peak: 249.0194
Precursor m/z: 249.0192
Precursor type: [M+H]+
m/z	relative intensity	assigned
60.0444	38	C2H6NO+
62.06	43	C2H8NO+
123.9942	5	C9O+
125.0029	11	C6H4ClN+
132.9606	46	C5H3Cl2+
153.0216	17	C7H6ClN2+
159.9716	999	C6H4Cl2N+
160.9793	252	C6H5Cl2N+
174.995	5	C7H7Cl2N+
181.0167	7	C8H6ClN2O+
182.0242	582	C8H7ClN2O+
187.9672	8	C7H4Cl2NO+
216.993	73	C8H7Cl2N2O+
249.0197	26	C9H11Cl2N2O2+
