Mass spectrum: Clopidogrel carboxylic acid; LC-ESI-ITFT; MS2; CE: 60%; R=7500; [M+H]+
Name: Clopidogrel carboxylic acid
Name: 2-(2-chlorophenyl)-2-(6,7-dihydro-4H-thieno[3,2-c]pyridin-5-yl)acetic acid
Formula: C15H14ClNO2S
Exact mass: 307.0434
SMILES: C1CN(CC2=C1SC=C2)C(C3=CC=CC=C3Cl)C(=O)O
InChI: InChI=1S/C15H14ClNO2S/c16-12-4-2-1-3-11(12)14(15(18)19)17-7-5-13-10(9-17)6-8-20-13/h1-4,6,8,14H,5,7,9H2,(H,18,19)
Instrument: LTQ Orbitrap XL Thermo Scientific
Instrument type: LC-ESI-ITFT
Ms type: MS2
Ion mode: POSITIVE
Ionization: ESI
Fragmentation mode: HCD
Collision energy: 60 % (nominal)
Resolution: 7500
Column name: XBridge C18 3.5um, 2.1x50mm, Waters
Retention time: 5.7 min
Base peak: 308.0518
Precursor m/z: 308.0507
Precursor type: [M+H]+
m/z	relative intensity	assigned
77.0386	31	C6H5+
105.0452	6	C6H5N2+
111.0263	18	C6H7S+
113.0154	131	C6H6Cl+
125.0155	506	C7H6Cl+
140.0263	115	C7H7ClN+
141.0104	576	C7H6ClO+
152.0264	534	C8H7ClN+
169.0054	999	C8H6ClO2+
170.0369	200	C8H9ClNO+
198.032	98	C9H9ClNO2+
