Mass spectrum: Maprotiline; LC-ESI-QFT; MS2; CE: 90; R=35000; [M+H]+
Name: Maprotiline
Formula: C20H23N
Exact mass: 277.18305
SMILES: CNCCCC12CCC(C3=CC=CC=C31)C4=CC=CC=C24
InChI: InChI=1S/C20H23N/c1-21-14-6-12-20-13-11-15(16-7-2-4-9-18(16)20)17-8-3-5-10-19(17)20/h2-5,7-10,15,21H,6,11-14H2,1H3
Instrument: Q Exactive Orbitrap Thermo Scientific
Instrument type: LC-ESI-QFT
Ms type: MS2
Ion mode: POSITIVE
Ionization: ESI
Fragmentation mode: HCD
Collision energy: 90 (nominal)
Resolution: 35000
Column name: XBridge C18 3.5um, 2.1x50mm, Waters
Retention time: 8.5 min
Base peak: 278.1906
Precursor m/z: 278.1903
Precursor type: [M+H]+
m/z	relative intensity	assigned
58.0652	1	C3H8N+
65.0386	15	C5H5+
70.0651	26	C4H8N+
72.0807	7	C4H10N+
77.0386	1	C6H5+
79.0543	9	C6H7+
91.0542	459	C7H7+
95.0491	4	C6H7O+
103.0542	14	C8H7+
105.0446	1	C6H5N2+
105.0699	26	C8H9+
115.0542	204	C9H7+
116.062	17	C9H8+
117.0698	267	C9H9+
127.0541	5	C10H7+
128.062	71	C10H8+
129.0699	38	C10H9+
131.0856	56	C10H11+
141.0698	194	C11H9+
143.0857	10	C11H11+
145.0648	12	C10H9O+
152.0622	6	C12H8+
153.0699	12	C12H9+
154.0778	19	C12H10+
155.0605	12	C10H7N2+
155.0853	7	C12H11+
165.0699	52	C13H9+
167.0853	1	C13H11+
169.1012	5	C13H13+
176.0622	1	C14H8+
177.0704	4	C14H9+
178.0777	656	C14H10+
179.0855	47	C14H11+
189.0699	99	C15H9+
190.0778	170	C15H10+
191.0855	999	C15H11+
192.0928	3	C15H12+
193.1012	13	C15H13+
202.0776	51	C16H10+
203.0854	216	C16H11+
204.0934	226	C16H12+
205.1011	11	C16H13+
215.0856	6	C17H11+
216.0937	1	C17H12+
217.1013	30	C17H13+
218.109	18	C17H14+
219.1169	32	C17H15+
