Mass spectrum: Dropropizine; LC-ESI-QFT; MS2; CE: 45; R=35000; [M+H]+
Name: Dropropizine
Name: 3-(4-phenylpiperazin-1-yl)propane-1,2-diol
Formula: C13H20N2O2
Exact mass: 236.15248
SMILES: C1CN(CCN1CC(CO)O)C2=CC=CC=C2
InChI: InChI=1S/C13H20N2O2/c16-11-13(17)10-14-6-8-15(9-7-14)12-4-2-1-3-5-12/h1-5,13,16-17H,6-11H2
Instrument: Q Exactive Orbitrap Thermo Scientific
Instrument type: LC-ESI-QFT
Ms type: MS2
Ion mode: POSITIVE
Ionization: ESI
Fragmentation mode: HCD
Collision energy: 45 (nominal)
Resolution: 35000
Column name: XBridge C18 3.5um, 2.1x50mm, Waters
Retention time: 2.9 min
Base peak: 237.1598
Precursor m/z: 237.1598
Precursor type: [M+H]+
m/z	relative intensity	assigned
56.0495	8	C3H6N+
58.0652	4	C3H8N+
70.0651	107	C4H8N+
72.0808	4	C4H10N+
74.06	8	C3H8NO+
75.0441	1	C3H7O2+
77.0383	1	C6H5+
80.0495	1	C5H6N+
82.065	4	C5H8N+
84.0807	96	C5H10N+
88.0756	1	C4H10NO+
96.0807	3	C6H10N+
100.0757	25	C5H10NO+
103.0542	1	C8H7+
104.0494	17	C7H6N+
106.0651	5	C7H8N+
114.0913	15	C6H12NO+
118.065	18	C8H8N+
118.0862	236	C5H12NO2+
119.073	1	C8H9N+
120.0807	199	C8H10N+
130.0862	3	C6H12NO2+
132.0807	166	C9H10N+
134.0963	3	C9H12N+
144.0809	6	C10H10N+
144.1017	1	C7H14NO2+
146.0964	11	C10H12N+
148.112	1	C10H14N+
159.0916	14	C10H11N2+
160.0995	227	C10H12N2+
161.1074	7	C10H13N2+
162.1149	9	C10H14N2+
163.1229	31	C10H15N2+
173.1072	2	C11H13N2+
174.1151	5	C11H14N2+
175.1229	113	C11H15N2+
186.1148	2	C12H14N2+
188.1306	8	C12H16N2+
189.1386	75	C12H17N2+
190.1098	6	C11H14N2O+
201.1386	16	C13H17N2+
219.1492	60	C13H19N2O+
235.1442	38	C13H19N2O2+
237.1597	999	C13H21N2O2+
