Mass spectrum: Fenoxycarb; LC-ESI-ITFT; MS2; CE: 30%; R=7500; [M+H]+
Name: Fenoxycarb
Name: N-[2-(4-phenoxyphenoxy)ethyl]carbamic acid ethyl ester
Formula: C17H19NO4
Exact mass: 301.1314
SMILES: O=C(OCC)NCCOc2ccc(Oc1ccccc1)cc2
InChI: InChI=1S/C17H19NO4/c1-2-20-17(19)18-12-13-21-14-8-10-16(11-9-14)22-15-6-4-3-5-7-15/h3-11H,2,12-13H2,1H3,(H,18,19)
Instrument: LTQ Orbitrap XL Thermo Scientific
Instrument type: LC-ESI-ITFT
Ms type: MS2
Ion mode: POSITIVE
Ionization: ESI
Fragmentation mode: HCD
Collision energy: 30 % (nominal)
Resolution: 7500
Column name: XBridge C18 3.5um, 2.1x50mm, Waters
Retention time: 12.6 min
Base peak: 302.1394
Precursor m/z: 302.1387
Precursor type: [M+H]+
m/z	relative intensity	assigned
70.0288	3	C3H4NO+
88.0393	999	C3H6NO2+
94.0415	1	C6H6O+
116.0707	486	C5H10NO2+
163.0626	4	C9H9NO2+
183.0796	1	C13H11O+
185.0595	2	C12H9O2+
186.0679	1	C12H10O2+
187.0748	4	C12H11O2+
211.0752	15	C14H11O2+
213.0543	6	C13H9O3+
213.0909	8	C14H13O2+
230.1173	4	C14H16NO2+
238.0853	2	C15H12NO2+
256.0968	312	C15H14NO3+
