Mass spectrum: Oxadixyl; LC-ESI-QFT; MS2; CE: 90; R=35000; [M+H]+
Name: Oxadixyl
Name: N-(2,6-dimethylphenyl)-2-methoxy-N-(2-oxidanylidene-1,3-oxazolidin-3-yl)ethanamide
Formula: C14H18N2O4
Exact mass: 278.12666
SMILES: O=C2OCCN2N(C(=O)COC)c1c(cccc1C)C
InChI: InChI=1S/C14H18N2O4/c1-10-5-4-6-11(2)13(10)16(12(17)9-19-3)15-7-8-20-14(15)18/h4-6H,7-9H2,1-3H3
Instrument: Q Exactive Orbitrap Thermo Scientific
Instrument type: LC-ESI-QFT
Ms type: MS2
Ion mode: POSITIVE
Ionization: ESI
Fragmentation mode: HCD
Collision energy: 90 (nominal)
Resolution: 35000
Column name: XBridge C18 3.5um, 2.1x50mm, Waters
Retention time: 6.4 min
Base peak: 279.1343
Precursor m/z: 279.1339
Precursor type: [M+H]+
m/z	relative intensity	assigned
56.0497	2	C3H6N+
58.0652	13	C3H8N+
65.0386	9	C5H5+
77.0386	8	C6H5+
79.0543	38	C6H7+
88.0394	9	C3H6NO2+
89.0386	2	C7H5+
90.0465	3	C7H6+
91.0543	94	C7H7+
92.0495	3	C6H6N+
93.0699	19	C7H9+
94.0653	1	C6H8N+
95.0492	58	C6H7O+
102.055	17	C4H8NO2+
103.0543	30	C8H7+
104.0621	4	C8H8+
105.0449	11	C6H5N2+
105.07	99	C8H9+
106.0652	4	C7H8N+
106.0779	3	C8H10+
107.0857	4	C8H11+
115.0543	14	C9H7+
116.0494	2	C8H6N+
117.0573	279	C8H7N+
118.0652	163	C8H8N+
119.073	5	C8H9N+
119.0856	66	C9H11+
120.0808	76	C8H10N+
121.0648	12	C8H9O+
123.0805	5	C8H11O+
130.0654	10	C9H8N+
131.0731	9	C9H9N+
132.0809	999	C9H10N+
133.0886	64	C9H11N+
134.0966	17	C9H12N+
145.0761	6	C9H9N2+
146.0968	2	C10H12N+
147.0919	4	C9H11N2+
148.0757	5	C9H10NO+
149.0234	3	C8H5O3+
149.0836	1	C9H11NO+
159.0918	5	C10H11N2+
160.0757	1	C10H10NO+
160.0996	2	C10H12N2+
161.071	1	C9H9N2O+
