Mass spectrum: Clarithromycin N-Oxide; LC-ESI-QFT; MS2; CE: 90; R=35000; [M+H]+
Name: Clarithromycin N-Oxide
Name: (2S,3R,4S,6R)-2-[[(3R,4S,5S,6R,7R,9R,11R,12R,13S,14R)-14-ethyl-12,13-dihydroxy-4-[(2R,4R,5S,6S)-5-hydroxy-4-methoxy-4,6-dimethyloxan-2-yl]oxy-7-methoxy-3,5,7,9,11,13-hexamethyl-2,10-dioxo-oxacyclotetradec-6-yl]oxy]-3-hydroxy-N,N,6-trimethyloxan-4-amine oxide
Formula: C38H69NO14
Exact mass: 763.47181
SMILES: [O-][N+](C)(C)[C@H]3C[C@@H](C)O[C@@H](O[C@@H]2[C@@H](C)[C@H](O[C@H]1C[C@@](C)(OC)[C@@H](O)[C@H](C)O1)[C@@H](C)C(=O)O[C@H](CC)[C@@](C)(O)[C@H](O)[C@@H](C)C(=O)[C@H](C)C[C@@]2(C)OC)[C@@H]3O
InChI: InChI=1S/C38H69NO14/c1-15-26-38(10,45)31(42)21(4)28(40)19(2)17-37(9,48-14)33(53-35-29(41)25(39(11,12)46)16-20(3)49-35)22(5)30(23(6)34(44)51-26)52-27-18-36(8,47-13)32(43)24(7)50-27/h19-27,29-33,35,41-43,45H,15-18H2,1-14H3/t19-,20-,21+,22+,23-,24+,25+,26-,27+,29-,30+,31-,32+,33-,35+,36-,37-,38-/m1/s1
Instrument: Q Exactive Plus Orbitrap Thermo Scientific
Instrument type: LC-ESI-QFT
Ms type: MS2
Ion mode: POSITIVE
Ionization: ESI
Fragmentation mode: HCD
Collision energy: 90 (nominal)
Resolution: 35000
Column name: XBridge C18 3.5um, 2.1x50mm, Waters
Retention time: 9.7 min
Base peak: 764.4783
Precursor m/z: 764.4791
Precursor type: [M+H]+
m/z	relative intensity	assigned
53.9975	7	C2NO+
55.0179	36	C3H3O+
55.0543	522	C4H7+
56.0495	31	C3H6N+
57.0335	120	C3H5O+
57.0573	7	C3H7N+
57.0699	54	C4H9+
58.0651	86	C3H8N+
59.0491	29	C3H7O+
60.0444	13	C2H6NO+
61.0284	3	C2H5O2+
62.06	23	C2H8NO+
65.0386	102	C5H5+
66.0463	2	C5H6+
67.0542	747	C5H7+
67.9892	4	C3O2+
68.0494	7	C4H6N+
69.0335	93	C4H5O+
69.0699	253	C5H9+
70.0651	113	C4H8N+
71.0127	6	C3H3O2+
71.0491	36	C4H7O+
71.0729	28	C4H9N+
72.0444	39	C3H6NO+
72.0808	60	C4H10N+
73.0284	4	C3H5O2+
73.0521	9	C3H7NO+
73.0648	21	C4H9O+
74.0362	1	C3H6O2+
74.06	8	C3H8NO+
75.0439	1	C3H7O2+
77.0385	20	C6H5+
78.0086	1	C3N3+
78.0464	2	C6H6+
79.0542	318	C6H7+
80.062	9	C6H8+
81.0699	285	C6H9+
82.0651	12	C5H8N+
83.0127	43	C4H3O2+
83.0491	747	C5H7O+
84.0808	157	C5H10N+
85.0284	61	C4H5O2+
85.0648	37	C5H9O+
86.06	36	C4H8NO+
87.0441	3	C4H7O2+
87.0678	8	C4H9NO+
87.0803	1	C5H11O+
88.0757	29	C4H10NO+
91.0543	270	C7H7+
92.062	4	C7H8+
93.0699	175	C7H9+
94.0653	2	C6H8N+
94.0778	7	C7H10+
95.0492	162	C6H7O+
95.0855	216	C7H11+
96.057	1	C6H8O+
96.0808	1	C6H10N+
97.0285	5	C5H5O2+
97.0648	73	C6H9O+
98.0601	10	C5H8NO+
98.0964	53	C6H12N+
99.0806	5	C6H11O+
100.0756	6	C5H10NO+
100.112	31	C6H14N+
101.0234	1	C4H5O3+
101.0597	10	C5H9O2+
102.0914	2	C5H12NO+
103.0542	62	C8H7+
104.0621	5	C8H8+
105.0448	33	C6H5N2+
105.0699	362	C8H9+
106.0777	17	C8H10+
107.0492	21	C7H7O+
107.0855	108	C8H11+
108.0569	30	C7H8O+
108.0933	1	C8H12+
109.0648	230	C7H9O+
109.1012	117	C8H13+
110.0725	2	C7H10O+
111.044	9	C6H7O2+
111.0805	20	C7H11O+
113.0597	22	C6H9O2+
113.0961	2	C7H13O+
114.0914	8	C6H12NO+
115.0542	16	C9H7+
116.0621	9	C9H8+
116.0705	1	C5H10NO2+
117.0699	40	C9H9+
118.0777	4	C9H10+
119.0604	12	C7H7N2+
119.0856	215	C9H11+
120.0934	5	C9H12+
121.0648	23	C8H9O+
121.1012	149	C9H13+
122.0727	26	C8H10O+
123.0804	999	C8H11O+
124.0884	4	C8H12O+
125.0597	13	C7H9O2+
125.0962	20	C8H13O+
127.0753	5	C7H11O2+
128.062	16	C10H8+
128.1071	2	C7H14NO+
129.0698	32	C10H9+
130.0778	15	C10H10+
131.0855	30	C10H11+
132.0654	1	C5H10NO3+
132.0934	2	C10H12+
133.0651	7	C9H9O+
133.076	20	C8H9N2+
133.1012	35	C10H13+
134.1091	2	C10H14+
135.0804	30	C9H11O+
135.1167	10	C10H15+
136.0884	17	C9H12O+
137.0961	76	C9H13O+
138.0676	2	C8H10O2+
139.0754	3	C8H11O2+
139.1119	1	C9H15O+
140.1071	6	C8H14NO+
141.0699	11	C11H9+
142.0777	27	C11H10+
143.0856	24	C11H11+
144.0934	17	C11H12+
145.0648	10	C10H9O+
145.1013	27	C11H13+
146.0728	3	C10H10O+
147.0805	13	C10H11O+
147.1168	22	C11H15+
148.0882	1	C10H12O+
149.0962	16	C10H13O+
149.1326	4	C11H17+
150.1041	1	C10H14O+
151.0754	6	C9H11O2+
151.1116	7	C10H15O+
152.0831	3	C9H12O2+
153.0703	1	C12H9+
153.0908	1	C9H13O2+
155.0603	1	C10H7N2+
155.0855	9	C12H11+
156.0934	11	C12H12+
157.1012	27	C12H13+
158.1089	10	C12H14+
159.0803	7	C11H11O+
159.117	10	C12H15+
160.0881	7	C11H12O+
161.0962	15	C11H13O+
162.104	1	C11H14O+
163.0755	2	C10H11O2+
163.1116	21	C11H15O+
164.1196	1	C11H16O+
165.0699	2	C13H9+
165.091	1	C10H13O2+
165.1273	1	C11H17O+
167.0856	2	C13H11+
168.0936	1	C13H12+
169.1012	5	C13H13+
170.109	4	C13H14+
171.0799	1	C12H11O+
171.1166	7	C13H15+
172.0881	2	C12H12O+
172.1249	4	C13H16+
173.0961	5	C12H13O+
173.132	1	C13H17+
175.1119	11	C12H15O+
177.1274	7	C12H17O+
179.1073	1	C11H15O2+
181.1013	3	C14H13+
182.1088	1	C14H14+
183.1164	3	C14H15+
185.0959	1	C13H13O+
185.1321	1	C14H17+
186.1038	1	C13H14O+
187.1116	2	C13H15O+
189.0904	1	C12H13O2+
195.1168	4	C15H15+
197.133	1	C15H17+
200.1194	1	C14H16O+
