Mass spectrum: Trinexapac; LC-ESI-ITFT; MS2; CE: 45%; R=15000; [M-H]-
Name: Trinexapac
Name: 4-[Cyclopropyl(hydroxy)methylene]-3,5-dioxocyclohexanecarboxylic acid
Formula: C11H12O5
Exact mass: 224.0685
SMILES: C(C1)C1C(O)=C(C(=O)CC2C(=O)O)C(=O)C2
InChI: InChI=1S/C11H12O5/c12-7-3-6(11(15)16)4-8(13)9(7)10(14)5-1-2-5/h5-6,14H,1-4H2,(H,15,16)/b10-9-
Instrument: LTQ Orbitrap XL Thermo Scientific
Instrument type: LC-ESI-ITFT
Ms type: MS2
Ion mode: NEGATIVE
Ionization: ESI
Fragmentation mode: HCD
Collision energy: 45 % (nominal)
Resolution: 15000
Column name: XBridge C18 3.5um, 2.1x50mm, Waters
Retention time: 6.9 min
Base peak: 223.0619
Precursor m/z: 223.0612
Precursor type: [M-H]-
m/z	relative intensity	assigned
83.0503	198	C5H7O-
95.0138	56	C5H3O2-
107.0503	76	C7H7O-
109.0299	49	C6H5O2-
111.0453	67	C6H7O2-
125.0608	226	C7H9O2-
133.066	72	C9H9O-
135.0815	912	C9H11O-
137.0244	49	C7H5O3-
161.0609	136	C10H9O2-
179.0714	999	C10H11O3-
205.0506	436	C11H9O4-
223.0616	627	C11H11O5-
