Mass spectrum: Ranitidine N-oxide; LC-ESI-ITFT; MS2; CE: 30%; R=15000; [M+H]+
Name: Ranitidine N-oxide
Name: 1,1-Ethenediamine, N-(2-(((5-((dimethylamino)methyl)-2-furanyl)methyl)thio)ethyl)-N'-methyl-2-nitro-, N-oxide
Formula: C13H22N4O4S
Exact mass: 330.1362
SMILES: c1(oc(CSCCN\C(=C\[N+](=O)[O-])NC)cc1)CN(C)(C)=O
InChI: InChI=1S/C13H22N4O4S/c1-14-13(8-16(18)19)15-6-7-22-10-12-5-4-11(21-12)9-17(2,3)20/h4-5,8,14-15H,6-7,9-10H2,1-3H3/b13-8+
Instrument: LTQ Orbitrap XL Thermo Scientific
Instrument type: LC-ESI-ITFT
Ms type: MS2
Ion mode: POSITIVE
Ionization: ESI
Fragmentation mode: HCD
Collision energy: 30 % (nominal)
Resolution: 15000
Column name: XBridge C18 3.5um, 2.1x50mm, Waters
Retention time: 2.4 min
Base peak: 331.1444
Precursor m/z: 331.1435
Precursor type: [M+H]+
m/z	relative intensity	assigned
81.0334	23	C5H5O+
83.0606	7	C4H7N2+
88.0216	30	C3H6NS+
95.0492	15	C6H7O+
97.076	26	C5H9N2+
98.0838	193	C5H10N2+
102.0372	91	C4H8NS+
114.079	11	C5H10N2O+
117.048	12	C4H9N2S+
118.032	7	C4H8NOS+
124.0756	199	C7H10NO+
125.0055	158	C6H5OS+
130.0559	269	C5H10N2S+
131.0637	21	C5H11N2S+
144.0767	164	C5H10N3O2+
145.043	7	C5H9N2OS+
147.0223	9	C4H7N2O2S+
147.0587	10	C5H11N2OS+
153.0368	30	C8H9OS+
164.0944	23	C9H12N2O+
165.1021	63	C9H13N2O+
167.0636	20	C8H11N2S+
170.0633	58	C8H12NOS+
176.0488	999	C5H10N3O2S+
178.1099	10	C10H14N2O+
181.0795	34	C9H13N2S+
191.1177	94	C11H15N2O+
192.0486	5	C10H10NOS+
193.0555	35	C10H11NOS+
195.071	7	C10H13NOS+
224.0977	206	C11H16N2OS+
225.1058	17	C11H17N2OS+
241.1	9	C11H17N2O2S+
270.0904	115	C11H16N3O3S+
