Mass spectrum: Dioxoaminopyrine; LC-ESI-ITFT; MS2; CE: 30%; R=15000; [M+H]+
Name: Dioxoaminopyrine
Name: AMDOPH
Name: 2-(N-[acetyl(methyl)amino]anilino)-2-keto-N,N-dimethyl-acetamide
Formula: C13H17N3O3
Exact mass: 263.1270
SMILES: c1ccccc1N(C(=O)C(=O)N(C)C)N(C)C(=O)C
InChI: InChI=1S/C13H17N3O3/c1-10(17)15(4)16(11-8-6-5-7-9-11)13(19)12(18)14(2)3/h5-9H,1-4H3
Instrument: LTQ Orbitrap XL Thermo Scientific
Instrument type: LC-ESI-ITFT
Ms type: MS2
Ion mode: POSITIVE
Ionization: ESI
Fragmentation mode: HCD
Collision energy: 30 % (nominal)
Resolution: 15000
Column name: XBridge C18 3.5um, 2.1x50mm, Waters
Retention time: 5.2 min
Base peak: 286.1173
Precursor m/z: 264.1343
Precursor type: [M+H]+
m/z	relative intensity	assigned
56.0495	3	C3H6N+
65.0385	6	C5H5+
72.0444	688	C3H6NO+
92.0495	57	C6H6N+
120.0449	3	C7H6NO+
121.0765	4	C7H9N2+
129.0657	5	C5H9N2O2+
149.0709	61	C8H9N2O+
163.0866	118	C9H11N2O+
165.103	4	C9H13N2O+
191.0816	999	C10H11N2O2+
194.1288	11	C10H16N3O+
204.1128	11	C11H14N3O+
222.1237	418	C11H16N3O2+
