Mass spectrum: N,N-Dimethyl-N'-p-tolylsulphamide; LC-ESI-ITFT; MS2; CE: 15%; R=7500; [M-H]-
Name: N,N-Dimethyl-N'-p-tolylsulphamide
Name: 1-(dimethylsulfamoylamino)-4-methyl-benzene
Formula: C9H14N2O2S
Exact mass: 214.0776
SMILES: O=S(=O)(Nc1ccc(C)cc1)N(C)C
InChI: InChI=1S/C9H14N2O2S/c1-8-4-6-9(7-5-8)10-14(12,13)11(2)3/h4-7,10H,1-3H3
Instrument: LTQ Orbitrap XL Thermo Scientific
Instrument type: LC-ESI-ITFT
Ms type: MS2
Ion mode: NEGATIVE
Ionization: ESI
Fragmentation mode: HCD
Collision energy: 15 % (nominal)
Resolution: 7500
Column name: XBridge C18 3.5um, 2.1x50mm, Waters
Retention time: 7.5 min
Base peak: 174.9565
Precursor m/z: 213.0703
Precursor type: [M-H]-
m/z	relative intensity	assigned
213.0709	999	C9H13N2O2S-
