Mass spectrum: Prosulfocarb; LC-ESI-ITFT; MS2; CE: 35%; R=30000; [M+H]+
Name: Prosulfocarb
Name: N,N-dipropylcarbamothioic acid S-(phenylmethyl) ester
Formula: C14H21NOS
Exact mass: 251.1349
SMILES: C(N(CCC)C(SCc1ccccc1)=O)CC
InChI: InChI=1S/C14H21NOS/c1-3-10-15(11-4-2)14(16)17-12-13-8-6-5-7-9-13/h5-9H,3-4,10-12H2,1-2H3
Instrument: LTQ Orbitrap XL Thermo Scientific
Instrument type: LC-ESI-ITFT
Ms type: MS2
Ion mode: POSITIVE
Ionization: ESI
Fragmentation mode: CID
Collision energy: 35 % (nominal)
Resolution: 30000
Column name: XBridge C18 3.5um, 2.1x50mm, Waters
Retention time: 14.4 min
Base peak: 252.1421
Precursor m/z: 252.1417
Precursor type: [M+H]+
m/z	relative intensity	assigned
86.0601	229	C4H8NO+
90.0465	1	C7H6+
91.0543	273	C7H7+
100.1121	7	C6H14N+
128.1071	999	C7H14NO+
192.1747	45	C13H22N+
