Mass spectrum: Mandestrobin; LC-ESI-QFT; MS2; CE: 60%; R=17500; [M+H]+
Name: Mandestrobin
Name: 2-[2-[(2,5-dimethylphenoxy)methyl]phenyl]-2-methoxy-N-methylacetamide
Formula: C19H23NO3
Exact mass: 313.1678
SMILES: CC1=CC(=C(C=C1)C)OCC2=CC=CC=C2C(C(=O)NC)OC
InChI: InChI=1S/C19H23NO3/c1-13-9-10-14(2)17(11-13)23-12-15-7-5-6-8-16(15)18(22-4)19(21)20-3/h5-11,18H,12H2,1-4H3,(H,20,21)
Instrument: Exploris 240 Orbitrap Thermo Scientific
Instrument type: LC-ESI-QFT
Ms type: MS2
Ion mode: POSITIVE
Ionization: ESI
Fragmentation mode: HCD
Collision energy: 60 % (nominal)
Resolution: 17500
Column name: XBridge C18 3.5um, 2.1x50mm, Waters
Retention time: 11.127 min
Base peak: 314.1748
Precursor m/z: 314.1751
Precursor type: [M+H]+
m/z	relative intensity	assigned
91.0542	214	C7H7+
103.0542	41	C8H7+
105.07	14	C8H9+
117.0574	19	C8H7N+
119.0491	999	C8H7O+
131.0734	13	C9H9N+
132.0807	798	C9H10N+
134.0963	29	C9H12N+
135.0804	16	C9H11O+
147.0683	16	C9H9NO+
160.0757	304	C10H10NO+
161.0836	15	C10H11NO+
180.0942	15	C14H12+
192.1016	23	C11H14NO2+
195.1165	32	C15H15+
208.0878	29	C15H12O+
223.1111	7	C16H15O+
