Mass spectrum: Atraton; LC-ESI-ITFT; MS2; CE: 45%; R=15000; [M+H]+
Name: Atraton
Name: 4-N-ethyl-6-methoxy-2-N-propan-2-yl-1,3,5-triazine-2,4-diamine
Formula: C9H17N5O
Exact mass: 211.1428
SMILES: COc1nc(NCC)nc(NC(C)C)n1
InChI: InChI=1S/C9H17N5O/c1-5-10-7-12-8(11-6(2)3)14-9(13-7)15-4/h6H,5H2,1-4H3,(H2,10,11,12,13,14)
Instrument: LTQ Orbitrap XL Thermo Scientific
Instrument type: LC-ESI-ITFT
Ms type: MS2
Ion mode: POSITIVE
Ionization: ESI
Fragmentation mode: HCD
Collision energy: 45 % (nominal)
Resolution: 15000
Column name: XBridge C18 3.5um, 2.1x50mm, Waters
Retention time: 5.7 min
Base peak: 212.1507
Precursor m/z: 212.1506
Precursor type: [M+H]+
m/z	relative intensity	assigned
57.0446	3	C2H5N2+
68.0243	13	C2H2N3+
75.0552	5	C2H7N2O+
85.076	6	C4H9N2+
86.0349	2	C2H4N3O+
96.0557	30	C4H6N3+
97.0401	1	C4H5N2O+
100.0506	28	C3H6N3O+
114.0662	18	C4H8N3O+
128.0819	14	C5H10N3O+
138.0773	3	C5H8N5+
138.1026	7	C7H12N3+
142.0724	20	C4H8N5O+
142.0971	2	C6H12N3O+
170.1038	741	C6H12N5O+
212.1507	999	C9H18N5O+
