Mass spectrum: Ethiofencarb-Sulfone; LC-ESI-QFT; MS2; CE: 150%; R=17500; [M+H]+
Name: Ethiofencarb-Sulfone
Name: Phenol, 2-((ethylsulfonyl)methyl)-, methylcarbamate
Name: [2-(ethylsulfonylmethyl)phenyl] N-methylcarbamate
Formula: C11H15NO4S
Exact mass: 257.0722
SMILES: CCS(=O)(=O)CC1=CC=CC=C1OC(=O)NC
InChI: InChI=1S/C11H15NO4S/c1-3-17(14,15)8-9-6-4-5-7-10(9)16-11(13)12-2/h4-7H,3,8H2,1-2H3,(H,12,13)
Instrument: Exploris 240 Orbitrap Thermo Scientific
Instrument type: LC-ESI-QFT
Ms type: MS2
Ion mode: POSITIVE
Ionization: ESI
Fragmentation mode: HCD
Collision energy: 150 % (nominal)
Resolution: 17500
Column name: XBridge C18 3.5um, 2.1x50mm, Waters
Retention time: 3.501 min
Base peak: 201.058
Precursor m/z: 258.0795
Precursor type: [M+H]+
m/z	relative intensity	assigned
50.0151	47	C4H2+
51.0229	471	C4H3+
53.0386	274	C4H5+
55.0178	15	C3H3O+
58.0286	27	C2H4NO+
77.0385	999	C6H5+
78.0462	10	C6H6+
79.0542	221	C6H7+
81.0335	20	C5H5O+
94.0414	21	C6H6O+
95.0491	267	C6H7O+
107.0491	98	C7H7O+
