Mass spectrum: Eprosartan; LC-ESI-ITFT; MS2; CE: 35%; R=30000; [M+H]+
Name: Eprosartan
Name: 4-[[2-butyl-5-[(E)-3-hydroxy-3-keto-2-(2-thenyl)prop-1-enyl]imidazol-1-yl]methyl]benzoic acid
Formula: C23H24N2O4S
Exact mass: 424.1457
SMILES: CCCCC1=NC=C(N1CC2=CC=C(C=C2)C(=O)O)/C=C(\CC3=CC=CS3)/C(=O)O
InChI: InChI=1S/C23H24N2O4S/c1-2-3-6-21-24-14-19(12-18(23(28)29)13-20-5-4-11-30-20)25(21)15-16-7-9-17(10-8-16)22(26)27/h4-5,7-12,14H,2-3,6,13,15H2,1H3,(H,26,27)(H,28,29)/b18-12+
Instrument: LTQ Orbitrap XL Thermo Scientific
Instrument type: LC-ESI-ITFT
Ms type: MS2
Ion mode: POSITIVE
Ionization: ESI
Fragmentation mode: CID
Collision energy: 35 % (nominal)
Resolution: 30000
Column name: XBridge C18 3.5um, 2.1x50mm, Waters
Retention time: 6.3 min
Base peak: 425.154
Precursor m/z: 425.153
Precursor type: [M+H]+
m/z	relative intensity	assigned
162.0365	6	C9H8NS+
163.1229	149	C10H15N2+
179.1173	7	C10H15N2O+
205.0972	15	C11H13N2O2+
207.1127	999	C11H15N2O2+
245.1105	89	C14H17N2S+
272.0975	71	C15H16N2OS+
273.1054	227	C15H17N2OS+
290.1079	30	C15H18N2O2S+
291.1159	13	C15H19N2O2S+
297.1589	16	C18H21N2O2+
311.1382	24	C18H19N2O3+
323.1391	13	C19H19N2O3+
341.1492	831	C19H21N2O4+
379.1472	50	C22H23N2O2S+
381.1633	18	C22H25N2O2S+
389.1312	61	C23H21N2O2S+
407.1418	557	C23H23N2O3S+
