Mass spectrum: Azinphos-methyl; LC-ESI-QFT; MS2; CE: 60; R=35000; [M+H]+
Name: Azinphos-methyl
Name: Azinphosmethyl
Name: 3-(dimethoxyphosphinothioylsulfanylmethyl)-1,2,3-benzotriazin-4-one
Formula: C10H12N3O3PS2
Exact mass: 317.00577
SMILES: COP(=S)(OC)SCN1C(=O)C2=CC=CC=C2N=N1
InChI: InChI=1S/C10H12N3O3PS2/c1-15-17(18,16-2)19-7-13-10(14)8-5-3-4-6-9(8)11-12-13/h3-6H,7H2,1-2H3
Instrument: Q Exactive Plus Orbitrap Thermo Scientific
Instrument type: LC-ESI-QFT
Ms type: MS2
Ion mode: POSITIVE
Ionization: ESI
Fragmentation mode: HCD
Collision energy: 60 (nominal)
Resolution: 35000
Column name: XBridge C18 3.5um, 2.1x50mm, Waters
Retention time: 9.2 min
Base peak: 318.0126
Precursor m/z: 318.013
Precursor type: [M+H]+
m/z	relative intensity	assigned
50.0151	13	C4H2+
51.023	56	C4H3+
53.0386	183	C4H5+
55.0179	10	C3H3O+
59.9665	7	COS+
62.0185	58	C2H6S+
62.9995	6	CH4OP+
65.0385	2	C5H5+
67.0542	15	C5H7+
68.9971	2	C3HO2+
75.023	6	C6H3+
77.0386	180	C6H5+
78.0339	7	C5H4N+
78.9944	395	CH4O2P+
81.0336	23	C5H5O+
92.0257	3	C6H4O+
92.0495	1	C6H6N+
93.0101	19	C2H6O2P+
95.0492	695	C6H7O+
96.0444	10	C5H6NO+
97.005	3	CH6O3P+
102.034	19	C7H4N+
104.0496	323	C7H6N+
105.0336	421	C7H5O+
105.0448	409	C6H5N2+
106.0419	1	C3H9NOP+
109.0108	13	C6H5S+
109.0649	2	C7H9O+
120.0445	27	C7H6NO+
122.0599	1	C7H8NO+
124.9822	116	C2H6O2PS+
127.0155	5	C2H8O4P+
130.0401	120	C7H4N3+
132.0445	154	C8H6NO+
137.0057	36	C7H5OS+
142.9928	999	C2H8O3PS+
150.0551	16	C8H8NO2+
151.9928	38	C3H7NO2PS+
152.9829	2	C3H8NPS2+
157.0085	16	C3H10O3PS+
167.0163	76	C8H7O2S+
167.9699	29	C7H4OS2+
