Mass spectrum: 3,4,5-Trimethacarb; LC-ESI-QFT; MS2; CE: 30%; R=17500; [M+H]+
Name: 3,4,5-Trimethacarb
Name: 3,4,5-Trimethylphenyl methylcarbamate
Name: (3,4,5-trimethylphenyl) N-methylcarbamate
Formula: C11H15NO2
Exact mass: 193.1103
SMILES: CC1=CC(=CC(=C1C)C)OC(=O)NC
InChI: InChI=1S/C11H15NO2/c1-7-5-10(14-11(13)12-4)6-8(2)9(7)3/h5-6H,1-4H3,(H,12,13)
Instrument: Exploris 240 Orbitrap Thermo Scientific
Instrument type: LC-ESI-QFT
Ms type: MS2
Ion mode: POSITIVE
Ionization: ESI
Fragmentation mode: HCD
Collision energy: 30 % (nominal)
Resolution: 17500
Column name: XBridge C18 3.5um, 2.1x50mm, Waters
Retention time: 7.147 min
Base peak: 137.096
Precursor m/z: 194.1176
Precursor type: [M+H]+
m/z	relative intensity	assigned
109.1014	4	C8H13+
137.096	999	C9H13O+
194.1173	4	C11H16NO2+
