Mass spectrum: Imiprothrin; LC-ESI-QFT; MS2; CE: 60; R=35000; [M+H]+
Name: Imiprothrin
Name: (2,5-dioxo-3-prop-2-ynylimidazolidin-1-yl)methyl 2,2-dimethyl-3-(2-methylprop-1-enyl)cyclopropane-1-carboxylate
Formula: C17H22N2O4
Exact mass: 318.15796
SMILES: O=C(OCN1C(=O)CN(C1=O)CC#C)C2C(\C=C(/C)C)C2(C)C
InChI: InChI=1S/C17H22N2O4/c1-6-7-18-9-13(20)19(16(18)22)10-23-15(21)14-12(8-11(2)3)17(14,4)5/h1,8,12,14H,7,9-10H2,2-5H3
Instrument: Q Exactive Orbitrap Thermo Scientific
Instrument type: LC-ESI-QFT
Ms type: MS2
Ion mode: POSITIVE
Ionization: ESI
Fragmentation mode: HCD
Collision energy: 60 (nominal)
Resolution: 35000
Column name: XBridge C18 3.5um, 2.1x50mm, Waters
Retention time: 11.7 min
Base peak: 341.1472
Precursor m/z: 319.1652
Precursor type: [M+H]+
m/z	relative intensity	assigned
53.0023	4	C3HO+
53.0388	3	C4H5+
55.0179	20	C3H3O+
55.0544	6	C4H7+
56.0132	27	C2H2NO+
57.07	30	C4H9+
59.0492	19	C3H7O+
65.0387	7	C5H5+
67.0417	9	C4H5N+
67.0543	174	C5H7+
68.0495	38	C4H6N+
69.0335	77	C4H5O+
69.0699	55	C5H9+
77.0383	2	C6H5+
79.0543	135	C6H7+
80.0495	87	C5H6N+
81.0699	999	C6H9+
82.0287	2	C4H4NO+
83.0493	9	C5H7O+
83.0855	8	C6H11+
91.0542	73	C7H7+
93.0699	179	C7H9+
94.0288	8	C5H4NO+
94.0415	2	C6H6O+
94.0778	4	C7H10+
95.0492	50	C6H7O+
95.0856	171	C7H11+
96.0444	18	C5H6NO+
97.0648	2	C6H9O+
98.0601	1	C5H8NO+
103.0545	1	C8H7+
105.0448	7	C6H5N2+
105.0699	102	C8H9+
106.078	1	C8H10+
107.0856	234	C8H11+
108.0569	1	C7H8O+
108.0934	15	C8H12+
109.0648	101	C7H9O+
109.1012	59	C8H13+
110.0601	3	C6H8NO+
110.0724	2	C7H10O+
111.0554	28	C5H7N2O+
113.0597	49	C6H9O2+
114.0631	25	CH10N2O4+
115.0541	2	C9H7+
117.07	8	C9H9+
119.0856	45	C9H11+
120.0934	10	C9H12+
121.0648	41	C8H9O+
121.1012	199	C9H13+
122.0726	6	C8H10O+
123.0553	105	C6H7N2O+
123.0805	45	C8H11O+
123.1168	424	C9H15+
124.0757	1	C7H10NO+
127.0752	6	C7H11O2+
130.0777	13	C10H10+
131.0855	1	C10H11+
133.1012	24	C10H13+
135.0804	56	C9H11O+
135.1168	285	C10H15+
136.0883	9	C9H12O+
137.0962	5	C9H13O+
137.1322	1	C10H17+
139.0503	33	C6H7N2O2+
145.1012	37	C11H13+
147.0805	8	C10H11O+
148.0882	6	C10H12O+
151.1119	21	C10H15O+
161.096	6	C11H13O+
163.1117	146	C11H15O+
