Mass spectrum: Penciclovir; LC-ESI-QFT; MS2; CE: 75; R=35000; [M+H]+
Name: Penciclovir
Name: 2-amino-9-[4-hydroxy-3-(hydroxymethyl)butyl]-3H-purin-6-one
Formula: C10H15N5O3
Exact mass: 253.11749
SMILES: C1=NC2=C(N1CCC(CO)CO)N=C(NC2=O)N
InChI: InChI=1S/C10H15N5O3/c11-10-13-8-7(9(18)14-10)12-5-15(8)2-1-6(3-16)4-17/h5-6,16-17H,1-4H2,(H3,11,13,14,18)
Instrument: Q Exactive Orbitrap Thermo Scientific
Instrument type: LC-ESI-QFT
Ms type: MS2
Ion mode: POSITIVE
Ionization: ESI
Fragmentation mode: HCD
Collision energy: 75 (nominal)
Resolution: 35000
Column name: XBridge C18 3.5um, 2.1x50mm, Waters
Retention time: 1.1 min
Base peak: 254.1247
Precursor m/z: 254.1248
Precursor type: [M+H]+
m/z	relative intensity	assigned
53.0023	4	C3HO+
55.0292	7	C2H3N2+
55.0542	4	C4H7+
57.0335	7	C3H5O+
57.0699	25	C4H9+
65.0385	23	C5H5+
67.0542	167	C5H7+
67.9893	1	C3O2+
80.0242	14	C3H2N3+
82.0399	16	C3H4N3+
83.0239	1	C3H3N2O+
85.0647	9	C5H9O+
93.0082	7	C4HN2O+
107.0352	21	C4H3N4+
109.0508	52	C4H5N4+
110.0348	427	C4H4N3O+
128.0453	123	C4H6N3O2+
134.046	43	C5H4N5+
135.03	778	C5H3N4O+
136.0141	19	C5H2N3O2+
152.0566	999	C5H6N5O+
153.0405	844	C5H5N4O2+
154.0246	15	C5H4N3O3+
155.0445	1	C6H7N2O3+
167.0568	1	C6H7N4O2+
