Mass spectrum: Ibuprofen; LC-ESI-ITFT; MS2; CE: 30%; R=15000; [M+H]+
Name: Ibuprofen
Name: (S)-(+)-Ibuprofen
Name: (2S)-2-(4-isobutylphenyl)propionic acid
Formula: C13H18O2
Exact mass: 206.1307
SMILES: c1([C@@H](C(O)=O)C)ccc(CC(C)C)cc1
InChI: InChI=1S/C13H18O2/c1-9(2)8-11-4-6-12(7-5-11)10(3)13(14)15/h4-7,9-10H,8H2,1-3H3,(H,14,15)/t10-/m0/s1
Instrument: LTQ Orbitrap XL Thermo Scientific
Instrument type: LC-ESI-ITFT
Ms type: MS2
Ion mode: POSITIVE
Ionization: ESI
Fragmentation mode: HCD
Collision energy: 30 % (nominal)
Resolution: 15000
Column name: XBridge C18 3.5um, 2.1x50mm, Waters
Retention time: 13.6 min
Base peak: 229.1196
Precursor m/z: 207.138
Precursor type: [M+H]+
m/z	relative intensity	assigned
147.1166	27	C11H15+
161.1325	999	C12H17+
165.0903	36	C10H13O2+
189.1281	28	C13H17O+
207.1375	160	C13H19O2+
