Mass spectrum: Fenhexamid; LC-ESI-QFT; MS2; CE: 60; R=35000; [M-H]-
Name: Fenhexamid
Name: N-(2,3-dichloro-4-hydroxy-phenyl)-1-methyl-cyclohexanecarboxamide
Formula: C14H17Cl2NO2
Exact mass: 301.06363
SMILES: O=C(Nc1ccc(O)c(Cl)c1Cl)C2(C)CCCCC2
InChI: InChI=1S/C14H17Cl2NO2/c1-14(7-3-2-4-8-14)13(19)17-9-5-6-10(18)12(16)11(9)15/h5-6,18H,2-4,7-8H2,1H3,(H,17,19)
Instrument: Q Exactive Orbitrap Thermo Scientific
Instrument type: LC-ESI-QFT
Ms type: MS2
Ion mode: NEGATIVE
Ionization: ESI
Fragmentation mode: HCD
Collision energy: 60 (nominal)
Resolution: 35000
Column name: XBridge C18 3.5um, 2.1x50mm, Waters
Retention time: 11.6 min
Base peak: 300.0566
Precursor m/z: 300.0564
Precursor type: [M-H]-
m/z	relative intensity	assigned
103.0063	1	C6HNO-
132.009	5	C7H2NO2-
138.9831	28	C6H2ClNO-
155.9859	17	C6H3ClNO2-
157.0533	5	C10H7NO-
159.0324	2	C9H5NO2-
161.0481	2	C9H7NO2-
166.978	52	C7H2ClNO2-
167.9858	60	C7H3ClNO2-
174.9597	35	C6H3Cl2NO-
180.9939	25	C8H4ClNO2-
182.9727	11	C7H2ClNO3-
184.0404	7	C11H6NO2-
184.0769	5	C12H10NO-
185.0479	11	C11H7NO2-
185.0847	36	C12H11NO-
192.9935	12	C9H4ClNO2-
194.0013	17	C9H5ClNO2-
195.0093	54	C9H6ClNO2-
200.0717	4	C12H10NO2-
200.1084	7	C13H14NO-
203.0953	2	C12H13NO2-
207.0092	5	C10H6ClNO2-
208.017	23	C10H7ClNO2-
212.0719	24	C13H10NO2-
213.0796	50	C13H11NO2-
216.0666	4	C12H10NO3-
220.017	37	C11H7ClNO2-
221.0249	246	C11H8ClNO2-
228.1031	15	C14H14NO2-
234.0328	6	C12H9ClNO2-
248.0485	161	C13H11ClNO2-
249.0563	630	C13H12ClNO2-
264.0798	999	C14H15ClNO2-
300.0564	9	C14H16Cl2NO2-
