Mass spectrum: Iopamidol; LC-ESI-ITFT; MS2; CE: 75%; R=15000; [M+H]+
Name: Iopamidol
Name: 1,3-Benzenedicarboxamide, N,N'-bis(2-hydroxy-1-(hydroxymethyl)ethyl)-5-((2-hydroxy-1-oxopropyl)amino)-2,4,6-triiodo-
Name: 1-N,3-N-bis(1,3-dihydroxypropan-2-yl)-5-(2-hydroxypropanoylamino)-2,4,6-triiodobenzene-1,3-dicarboxamide
Formula: C17H22I3N3O8
Exact mass: 776.8541
SMILES: CC(O)C(=O)NC1=C(I)C(C(=O)NC(CO)CO)=C(I)C(C(=O)NC(CO)CO)=C1I
InChI: InChI=1S/C17H22I3N3O8/c1-6(28)15(29)23-14-12(19)9(16(30)21-7(2-24)3-25)11(18)10(13(14)20)17(31)22-8(4-26)5-27/h6-8,24-28H,2-5H2,1H3,(H,21,30)(H,22,31)(H,23,29)
Instrument: LTQ Orbitrap XL Thermo Scientific
Instrument type: LC-ESI-ITFT
Ms type: MS2
Ion mode: POSITIVE
Ionization: ESI
Fragmentation mode: HCD
Collision energy: 75 % (nominal)
Resolution: 15000
Column name: XBridge C18 3.5um, 2.1x50mm, Waters
Retention time: 1.2 min
Base peak: 132.9578
Precursor m/z: 777.8614
Precursor type: [M+H]+
m/z	relative intensity	assigned
103.0417	422	C7H5N+
113.0135	106	C7HN2+
113.9972	165	C7NO+
115.0414	176	C8H5N+
115.9892	214	C7O2+
130.0288	127	C8H4NO+
131.0366	242	C8H5NO+
134.024	117	C7H4NO2+
141.0081	213	C8HN2O+
141.0208	148	C9H3NO+
141.9922	439	C8NO2+
144.008	251	C8H2NO2+
144.0443	82	C9H6NO+
148.0392	122	C8H6NO2+
154.8988	149	CIO+
158.0234	125	C9H4NO2+
159.0313	441	C9H5NO2+
160.0389	83	C9H6NO2+
162.0186	137	C8H4NO3+
185.0342	295	C10H5N2O2+
186.0185	149	C10H4NO3+
200.9069	150	C5IN+
204.9135	251	C5H2IO+
229.9456	138	C7H5IN+
241.9462	90	C8H5IN+
243.9256	69	C7H3INO+
257.9411	518	C8H5INO+
259.071	143	C13H11N2O4+
259.9196	154	C7H3INO2+
269.9407	598	C9H5INO+
285.9357	999	C9H5INO2+
293.9005	65	C5HIN3O4+
295.921	153	C10H3INO2+
313.9309	157	C10H5INO3+
339.8103	101	C6I2N+
341.8263	142	C6H2I2N+
438.8434	93	C10H5I2N2O2+
