Mass spectrum: Doxycycline; LC-ESI-QFT; MS2; CE: 60; R=35000; [M-H]-
Name: Doxycycline
Name: 8-carbamoyl-10-(dimethylazaniumyl)-4,6a,7,11-tetrahydroxy-12-methyl-6,9-dioxo-10a,11,11a,12-tetrahydro-10H-tetracen-5-olate
Formula: C22H24N2O8
Exact mass: 444.15327
SMILES: CC1C2C(C3C(C(=O)C(=C(C3(C(=O)C2=C(C4=C1C=CC=C4O)O)O)O)C(=O)N)N(C)C)O
InChI: InChI=1S/C22H24N2O8/c1-7-8-5-4-6-9(25)11(8)16(26)12-10(7)17(27)14-15(24(2)3)18(28)13(21(23)31)20(30)22(14,32)19(12)29/h4-7,10,14-15,17,25-27,30,32H,1-3H3,(H2,23,31)
Instrument: Q Exactive Plus Orbitrap Thermo Scientific
Instrument type: LC-ESI-QFT
Ms type: MS2
Ion mode: NEGATIVE
Ionization: ESI
Fragmentation mode: HCD
Collision energy: 60 (nominal)
Resolution: 35000
Column name: XBridge C18 3.5um, 2.1x50mm, Waters
Retention time: 6.3 min
Base peak: 443.1457
Precursor m/z: 443.146
Precursor type: [M-H]-
m/z	relative intensity	assigned
57.0346	1	C3H5O-
63.024	16	C5H3-
65.0033	5	C4HO-
65.0397	3	C5H5-
65.9985	15	C3NO-
67.019	3	C4H3O-
68.9982	17	C3HO2-
69.0346	11	C4H5O-
71.0139	5	C3H3O2-
79.0189	5	C5H3O-
80.0268	5	C5H4O-
81.022	2	C4H3NO-
81.0345	6	C5H5O-
83.0139	4	C4H3O2-
84.0091	42	C3H2NO2-
85.0294	5	C4H5O2-
91.019	6	C6H3O-
93.0345	11	C6H5O-
95.0138	61	C5H3O2-
96.0091	7	C4H2NO2-
96.0454	1	C5H6NO-
96.993	26	C4HO3-
97.0295	14	C5H5O2-
99.0088	6	C4H3O3-
100.0768	6	C5H10NO-
107.0138	8	C6H3O2-
107.0504	1	C7H7O-
107.0615	1	C6H7N2-
108.0217	24	C6H4O2-
109.0295	47	C6H5O2-
110.0611	4	C6H8NO-
111.0088	4	C5H3O3-
112.0404	2	C5H6NO2-
112.0769	1	C6H10NO-
117.0345	7	C8H5O-
119.0138	24	C7H3O2-
119.0502	40	C8H7O-
120.0217	1	C7H4O2-
121.0295	6	C7H5O2-
121.0533	3	C7H7NO-
121.0659	16	C8H9O-
122.0248	3	C6H4NO2-
123.0088	33	C6H3O3-
123.0327	4	C6H5NO2-
124.0165	17	C6H4O3-
124.0767	1	C7H10NO-
124.988	9	C5HO4-
125.0244	13	C6H5O3-
125.072	18	C6H9N2O-
126.0196	5	C5H4NO3-
126.056	37	C6H8NO2-
131.0503	1	C9H7O-
134.0247	21	C7H4NO2-
135.0088	56	C7H3O3-
135.0451	4	C8H7O2-
136.0166	3	C7H4O3-
136.0403	2	C7H6NO2-
136.0767	6	C8H10NO-
137.0243	18	C7H5O3-
137.048	4	C7H7NO2-
138.0195	8	C6H4NO3-
138.0322	2	C7H6O3-
138.056	9	C7H8NO2-
139.0149	23	C5H3N2O3-
139.0273	1	C6H5NO3-
140.0354	1	C6H6NO3-
140.0718	3	C7H10NO2-
141.0194	5	C6H5O4-
141.067	2	C6H9N2O2-
142.0146	9	C5H4NO4-
142.9986	30	C5H3O5-
143.0504	4	C10H7O-
143.0826	3	C6H11N2O2-
144.058	1	C10H8O-
145.0295	1	C9H5O2-
145.066	1	C10H9O-
146.0372	4	C9H6O2-
147.0451	10	C9H7O2-
148.0167	2	C8H4O3-
148.0402	1	C8H6NO2-
149.0117	5	C7H3NO3-
149.0482	4	C8H7NO2-
149.0608	8	C9H9O2-
149.9957	5	C7H2O4-
150.0196	35	C7H4NO3-
151.0037	9	C7H3O4-
151.0275	5	C7H5NO3-
152.0114	2	C7H4O4-
152.0353	14	C7H6NO3-
152.0716	7	C8H10NO2-
153.0194	2	C7H5O4-
154.0386	4	C6H6N2O3-
154.0876	3	C8H12NO2-
157.066	10	C11H9O-
158.0373	17	C10H6O2-
159.0452	22	C10H7O2-
159.0815	14	C11H11O-
161.0246	8	C9H5O3-
161.0609	7	C10H9O2-
162.0198	10	C8H4NO3-
162.0561	1	C9H8NO2-
163.0038	18	C8H3O4-
163.0274	4	C8H5NO3-
163.0766	2	C10H11O2-
164.0116	6	C8H4O4-
164.0358	4	C8H6NO3-
164.0597	1	C8H8N2O2-
164.0719	5	C9H10NO2-
165.043	3	C8H7NO3-
166.0509	1	C8H8NO3-
167.0223	4	C7H5NO4-
167.0462	3	C7H7N2O3-
168.0303	7	C7H6NO4-
168.0665	12	C8H10NO3-
169.0141	1	C7H5O5-
169.0254	6	C6H5N2O4-
169.0667	4	C12H9O-
171.045	2	C11H7O2-
171.0818	4	C12H11O-
172.0531	25	C11H8O2-
173.0607	258	C11H9O2-
174.0321	1	C10H6O3-
175.0763	5	C11H11O2-
177.0307	7	C8H5N2O3-
178.0146	13	C8H4NO4-
178.0511	2	C9H8NO3-
178.9984	4	C8H3O5-
179.0825	1	C9H11N2O2-
180.0303	4	C8H6NO4-
180.0581	2	C13H8O-
180.0667	7	C9H10NO3-
181.0661	1	C13H9O-
182.0822	1	C9H12NO3-
183.0449	2	C12H7O2-
183.0816	4	C13H11O-
185.0608	22	C12H9O2-
186.0319	1	C11H6O3-
186.0687	12	C12H10O2-
187.0401	34	C11H7O3-
187.0764	28	C12H11O2-
188.0479	2	C11H8O3-
189.0667	1	C10H9N2O2-
189.0919	1	C12H13O2-
194.0738	2	C14H10O-
195.0818	6	C14H11O-
196.0249	3	C8H6NO5-
196.0529	44	C13H8O2-
197.0608	18	C13H9O2-
198.0321	2	C12H6O3-
198.0689	2	C13H10O2-
199.0395	4	C12H7O3-
199.0764	14	C13H11O2-
200.0483	2	C12H8O3-
201.0193	3	C11H5O4-
201.0557	16	C12H9O3-
201.0921	1	C13H13O2-
203.0715	30	C12H11O3-
204.0428	2	C11H8O4-
206.0737	1	C15H10O-
207.082	4	C15H11O-
208.0529	3	C14H8O2-
209.0607	24	C14H9O2-
210.0686	16	C14H10O2-
211.0401	20	C13H7O3-
211.0765	33	C14H11O2-
212.0481	15	C13H8O3-
213.0557	9	C13H9O3-
213.0921	13	C14H13O2-
214.0273	15	C12H6O4-
215.0714	1	C13H11O3-
217.0506	40	C12H9O4-
218.0579	1	C12H10O4-
219.0812	2	C16H11O-
220.0534	2	C15H8O2-
221.0608	4	C15H9O2-
221.0973	2	C16H13O-
222.0686	12	C15H10O2-
223.0403	2	C14H7O3-
223.0765	20	C15H11O2-
224.0478	31	C14H8O3-
224.0844	3	C15H12O2-
225.0557	24	C14H9O3-
225.0922	16	C15H13O2-
226.0636	9	C14H10O3-
226.0872	4	C14H12NO2-
227.0714	30	C14H11O3-
229.0506	19	C13H9O4-
229.0869	6	C14H13O3-
231.0666	1	C13H11O4-
232.0532	4	C16H8O2-
233.0607	7	C16H9O2-
234.0687	4	C16H10O2-
235.0404	2	C15H7O3-
235.0764	7	C16H11O2-
236.0481	7	C15H8O3-
236.0845	2	C16H12O2-
237.0558	19	C15H9O3-
237.0806	1	C15H11NO2-
237.092	11	C16H13O2-
238.0635	17	C15H10O3-
238.0873	3	C15H12NO2-
239.0352	9	C14H7O4-
239.0714	27	C15H11O3-
240.043	999	C14H8O4-
241.051	9	C14H9O4-
241.0869	35	C15H13O3-
243.1028	2	C15H15O3-
244.0377	2	C13H8O5-
247.0638	1	C16H9NO2-
247.0761	10	C17H11O2-
248.048	5	C16H8O3-
248.0715	3	C16H10NO2-
248.0836	1	C17H12O2-
249.0555	13	C16H9O3-
249.0919	4	C17H13O2-
250.0501	1	C15H8NO3-
250.0633	15	C16H10O3-
251.0714	21	C16H11O3-
252.0428	4	C15H8O4-
252.0667	2	C15H10NO3-
252.0789	2	C16H12O3-
252.1028	2	C16H14NO2-
253.051	9	C15H9O4-
253.0872	5	C16H13O3-
254.0585	20	C15H10O4-
254.0822	2	C15H12NO3-
255.0663	298	C15H11O4-
257.0822	3	C15H13O4-
258.1498	8	C16H20NO2-
260.048	6	C17H8O3-
261.0558	11	C17H9O3-
262.0635	2	C17H10O3-
262.0868	6	C17H12NO2-
263.0713	13	C17H11O3-
264.0431	9	C16H8O4-
264.0664	2	C16H10NO3-
264.079	1	C17H12O3-
264.1036	2	C17H14NO2-
265.0499	2	C16H9O4-
265.0742	1	C16H11NO3-
265.0871	12	C17H13O3-
266.0582	3	C16H10O4-
266.0822	6	C16H12NO3-
266.095	1	C17H14O3-
267.0662	14	C16H11O4-
268.1348	2	C17H18NO2-
269.0818	10	C16H13O4-
273.0767	7	C15H13O5-
275.0714	6	C18H11O3-
276.0432	5	C17H8O4-
277.0506	18	C17H9O4-
278.0582	9	C17H10O4-
278.0818	2	C17H12NO3-
278.1186	1	C18H16NO2-
279.0663	9	C17H11O4-
280.038	3	C16H8O5-
280.0981	10	C17H14NO3-
281.0817	4	C17H13O4-
281.106	2	C17H15NO3-
282.0529	1	C16H10O5-
282.0775	1	C16H12NO4-
282.1132	1	C17H16NO3-
288.0665	1	C18H10NO3-
290.0222	18	C17H6O5-
290.0825	5	C18H12NO3-
291.0533	1	C17H9NO4-
291.0665	9	C18H11O4-
292.0749	1	C18H12O4-
293.0458	3	C17H9O5-
293.0829	4	C18H13O4-
293.1055	1	C18H15NO3-
294.0536	1	C17H10O5-
294.1136	1	C18H16NO3-
295.0615	3	C17H11O5-
296.1293	2	C18H18NO3-
297.076	1	C17H13O5-
304.0376	1	C18H8O5-
304.0622	1	C18H10NO4-
305.0456	4	C18H9O5-
306.0766	4	C18H12NO4-
308.0929	2	C18H14NO4-
309.077	1	C18H13O5-
319.0611	2	C19H11O5-
322.0485	1	C18H10O6-
358.1302	4	C19H20NO6-
