Mass spectrum: Metribuzin-desamino; LC-ESI-QFT; MS2; CE: 60; R=35000; [M+H]+
Name: Metribuzin-desamino
Name: Deaminometribuzin
Name: 6-tert-butyl-3-(methylthio)-2H-1,2,4-triazin-5-one
Formula: C8H13N3OS
Exact mass: 199.27332
SMILES: CC(C)(C)C1=NNC(=NC1=O)SC
InChI: InChI=1S/C8H13N3OS/c1-8(2,3)5-6(12)9-7(13-4)11-10-5/h1-4H3,(H,9,11,12)
Instrument: Q Exactive Plus Orbitrap Thermo Scientific
Instrument type: LC-ESI-QFT
Ms type: MS2
Ion mode: POSITIVE
Ionization: ESI
Fragmentation mode: HCD
Collision energy: 60 (nominal)
Resolution: 35000
Column name: XBridge C18 3.5um, 2.1x50mm, Waters
Retention time: 7.3 min
Base peak: 200.085
Precursor m/z: 200.0852
Precursor type: [M+H]+
m/z	relative intensity	assigned
53.0022	3	C3HO+
57.0699	492	C4H9+
58.0652	2	C3H8N+
61.0106	3	C2H5S+
62.0059	19	CH4NS+
67.9892	1	C3O2+
68.0242	2	C2H2N3+
68.0495	1	C4H6N+
69.0698	7	C5H9+
74.0058	74	C2H4NS+
74.9899	1	C2H3OS+
82.0651	2	C5H8N+
84.0808	66	C5H10N+
89.0168	340	C2H5N2S+
97.0648	8	C6H9O+
101.0042	7	C2H3N3S+
112.0756	4	C6H10NO+
114.9962	5	C3H3N2OS+
116.0277	648	C3H6N3S+
124.087	7	C6H10N3+
126.1026	8	C6H12N3+
127.0866	3	C6H11N2O+
130.0434	25	C4H8N3S+
142.0434	47	C5H8N3S+
144.0226	9	C4H6N3OS+
155.0639	1	C7H11N2S+
156.059	50	C6H10N3S+
157.0668	355	C6H11N3S+
170.0385	3	C6H8N3OS+
172.0902	999	C7H14N3S+
185.0618	12	C7H11N3OS+
200.0852	289	C8H14N3OS+
