Mass spectrum: Iohexol; LC-ESI-ITFT; MS2; CE: 30%; R=15000; [M+H]+
Name: Iohexol
Name: 5-[acetyl(2,3-dihydroxypropyl)amino]-1-N,3-N-bis(2,3-dihydroxypropyl)-2,4,6-triiodobenzene-1,3-dicarboxamide
Formula: C19H26I3N3O9
Exact mass: 820.8803
SMILES: OCC(O)CNC(=O)c1c(I)c(N(CC(O)CO)C(C)=O)c(I)c(c1I)C(=O)NCC(O)CO
InChI: InChI=1S/C19H26I3N3O9/c1-8(29)25(4-11(32)7-28)17-15(21)12(18(33)23-2-9(30)5-26)14(20)13(16(17)22)19(34)24-3-10(31)6-27/h9-11,26-28,30-32H,2-7H2,1H3,(H,23,33)(H,24,34)
Instrument: LTQ Orbitrap XL Thermo Scientific
Instrument type: LC-ESI-ITFT
Ms type: MS2
Ion mode: POSITIVE
Ionization: ESI
Fragmentation mode: HCD
Collision energy: 30 % (nominal)
Resolution: 15000
Column name: XBridge C18 3.5um, 2.1x50mm, Waters
Retention time: 1.6 min
Base peak: 132.9578
Precursor m/z: 821.8876
Precursor type: [M+H]+
m/z	relative intensity	assigned
325.9466	103	C3H9IN3O7+
357.9555	90	C12H9INO4+
362.9833	67	C11H12IN2O4+
374.9833	999	C12H12IN2O4+
431.0103	247	C15H16IN2O5+
435.0038	169	C13H25I2+
449.0199	714	C15H18IN2O6+
451.8273	154	C11H4I2NO3+
466.0441	88	C12H23IN2O9+
500.8799	281	C12H11I2N2O4+
528.8746	256	C13H11I2N2O5+
542.8916	232	C14H13I2N2O5+
591.9459	106	C17H22I2O7+
602.9146	115	C16H17I2N2O7+
626.7765	61	C12H10I3N2O4+
