Mass spectrum: Fluvastatin; LC-ESI-QFT; MS2; CE: 45; R=35000; [M-H]-
Name: Fluvastatin
Name: (3R,5S)-7-[3-(4-fluorophenyl)-1-isopropyl-2-indolyl]-3,5-dihydroxy-6-heptenoic acid
Formula: C24H26FNO4
Exact mass: 411.18459
SMILES: O=C(O)C[C@H](O)C[C@H](O)/C=C/c2c(c1ccccc1n2C(C)C)c3ccc(F)cc3
InChI: InChI=1S/C24H26FNO4/c1-15(2)26-21-6-4-3-5-20(21)24(16-7-9-17(25)10-8-16)22(26)12-11-18(27)13-19(28)14-23(29)30/h3-12,15,18-19,27-28H,13-14H2,1-2H3,(H,29,30)/b12-11+/t18-,19-/m1/s1
Instrument: Q Exactive Orbitrap Thermo Scientific
Instrument type: LC-ESI-QFT
Ms type: MS2
Ion mode: NEGATIVE
Ionization: ESI
Fragmentation mode: HCD
Collision energy: 45 (nominal)
Resolution: 35000
Column name: XBridge C18 3.5um, 2.1x50mm, Waters
Retention time: 13.5 min
Base peak: 410.1777
Precursor m/z: 410.1773
Precursor type: [M-H]-
m/z	relative intensity	assigned
57.0346	3	C3H5O-
59.0139	283	C2H3O2-
69.0346	1	C4H5O-
83.0503	7	C5H7O-
85.0295	165	C4H5O2-
87.0088	94	C3H3O3-
95.0503	1	C6H7O-
109.066	1	C7H9O-
210.0724	999	C14H9FN-
221.0646	1	C15H8FN-
222.0724	16	C15H9FN-
223.0803	10	C15H10FN-
224.0881	35	C15H11FN-
234.0723	12	C16H9FN-
236.0881	76	C16H11FN-
238.104	12	C16H13FN-
248.088	6	C17H11FN-
250.104	3	C17H13FN-
252.1187	1	C17H15FN-
255.0706	1	C15H10FNO2-
260.088	4	C18H11FN-
261.0964	1	C18H12FN-
262.1038	4	C18H13FN-
263.0753	21	C17H10FNO-
264.0831	248	C17H11FNO-
274.1046	1	C19H13FN-
276.0827	6	C18H11FNO-
276.1193	5	C19H15FN-
278.1348	14	C19H17FN-
280.1143	33	C18H15FNO-
284.1092	1	C17H15FNO2-
286.1031	1	C20H13FN-
286.1237	4	C20H16NO-
288.1193	3	C20H15FN-
289.0906	1	C19H12FNO-
290.0982	7	C19H13FNO-
290.1349	5	C20H17FN-
304.1507	4	C21H19FN-
305.1224	1	C20H16FNO-
306.1299	84	C20H17FNO-
330.1657	6	C23H21FN-
348.1766	15	C23H23FNO-
350.1564	4	C22H21FNO2-
