Mass spectrum: Thiacloprid-amide; LC-ESI-ITFT; MS2; CE: 75%; R=7500; [M+H]+
Name: Thiacloprid-amide
Name: [3-(6-Chloro-3-pyridylmethyl)thiazolidin-2-ylidene]urea
Formula: C10H11ClN4OS
Exact mass: 270.0342
SMILES: Clc1ncc(cc1)CN2C(=N/C(=O)N)/SCC2
InChI: InChI=1S/C10H11ClN4OS/c11-8-2-1-7(5-13-8)6-15-3-4-17-10(15)14-9(12)16/h1-2,5H,3-4,6H2,(H2,12,16)/b14-10-
Instrument: LTQ Orbitrap XL Thermo Scientific
Instrument type: LC-ESI-ITFT
Ms type: MS2
Ion mode: POSITIVE
Ionization: ESI
Fragmentation mode: HCD
Collision energy: 75 % (nominal)
Resolution: 7500
Column name: XBridge C18 3.5um, 2.1x50mm, Waters
Retention time: 4.6 min
Base peak: 271.0418
Precursor m/z: 271.0415
Precursor type: [M+H]+
m/z	relative intensity	assigned
63.023	3	C5H3+
72.984	3	C3H2Cl+
81.0337	1	C5H5O+
90.0339	71	C6H4N+
91.0417	10	C6H5N+
98.9997	46	C5H4Cl+
101.0168	7	C3H5N2S+
103.0325	3	C3H7N2S+
108.0445	3	C6H6NO+
126.0105	999	C6H5ClN+
127.0185	6	C6H6ClN+
129.0117	2	C4H5N2OS+
132.0557	8	C7H6N3+
133.076	1	C8H9N2+
144.0211	25	C6H7ClNO+
165.0476	2	C8H9N2S+
168.0327	3	C7H7ClN3+
192.0596	1	C9H10N3S+
228.0417	8	C6H8N6O2S+
254.0254	7	C9H9ClN5S+
