Mass spectrum: Picolinafen; LC-ESI-QFT; MS2; CE: 180; R=35000; [M+H]+
Name: Picolinafen
Name: N-(4-fluorophenyl)-6-[3-(trifluoromethyl)phenoxy]pyridine-2-carboxamide
Formula: C19H12F4N2O2
Exact mass: 376.08349
SMILES: C1=CC(=CC(=C1)OC2=CC=CC(=N2)C(=O)NC3=CC=C(C=C3)F)C(F)(F)F
InChI: InChI=1S/C19H12F4N2O2/c20-13-7-9-14(10-8-13)24-18(26)16-5-2-6-17(25-16)27-15-4-1-3-12(11-15)19(21,22)23/h1-11H,(H,24,26)
Instrument: Q Exactive Plus Orbitrap Thermo Scientific
Instrument type: LC-ESI-QFT
Ms type: MS2
Ion mode: POSITIVE
Ionization: ESI
Fragmentation mode: HCD
Collision energy: 180 (nominal)
Resolution: 35000
Column name: XBridge C18 3.5um, 2.1x50mm, Waters
Retention time: 15.4 min
Base peak: 279.1583
Precursor m/z: 377.0908
Precursor type: [M+H]+
m/z	relative intensity	assigned
50.0151	11	C4H2+
51.0041	34	CHF2+
51.0229	5	C4H3+
53.0022	42	C3HO+
53.9974	6	C2NO+
57.0135	67	C3H2F+
59.0291	1	C3H4F+
61.0073	8	C5H+
62.0151	12	C5H2+
63.0229	24	C5H3+
64.0181	5	C4H2N+
65.0022	3	C4HO+
65.026	2	C4H3N+
65.0385	8	C5H5+
68.9946	136	CF3+
69.0134	40	C4H2F+
71.0291	7	C4H4F+
74.015	499	C6H2+
75.004	248	C3HF2+
75.0228	999	C6H3+
76.0181	1	C5H2N+
76.0306	4	C6H4+
77.0196	1	C3H3F2+
79.0177	2	C5H3O+
81.0135	34	C5H2F+
83.0291	10	C5H4F+
85.0072	3	C7H+
86.015	4	C7H2+
87.0229	11	C7H3+
88.018	2	C6H2N+
88.0307	6	C7H4+
89.0022	4	C6HO+
89.0384	4	C7H5+
92.9946	10	C3F3+
93.0136	3	C6H2F+
94.0213	2	C6H3F+
95.0102	20	C3H2F3+
95.0291	58	C6H4F+
98.0151	6	C8H2+
99.004	67	C5HF2+
99.0228	5	C8H3+
100.0181	2	C7H2N+
101.0021	1	C7HO+
101.0197	3	C5H3F2+
105.0135	9	C7H2F+
107.029	9	C7H4F+
113.0395	53	C6H6FO+
114.0274	2	C6H4F2+
114.0338	4	C8H4N+
117.0134	4	C8H2F+
119.0103	18	C5H2F3+
122.015	22	C10H2+
123.0229	18	C10H3+
123.0352	93	C6H4FN2+
124.018	4	C9H2N+
125.0197	52	C7H3F2+
131.0289	3	C9H4F+
133.0447	7	C9H6F+
138.0274	1	C8H4F2+
140.0494	8	C10H6N+
143.0292	2	C10H4F+
145.0259	16	C7H4F3+
151.0351	1	C9H5F2+
162.0273	5	C10H4F2+
