Mass spectrum: Flutriafol; LC-ESI-QFT; MS2; CE: 60; R=35000; [M+H]+
Name: Flutriafol
Name: 1-(2-fluorophenyl)-1-(4-fluorophenyl)-2-(1,2,4-triazol-1-yl)ethanol
Formula: C16H13F2N3O
Exact mass: 301.10267
SMILES: C1=CC=C(C(=C1)C(CN2C=NC=N2)(C3=CC=C(C=C3)F)O)F
InChI: InChI=1S/C16H13F2N3O/c17-13-7-5-12(6-8-13)16(22,9-21-11-19-10-20-21)14-3-1-2-4-15(14)18/h1-8,10-11,22H,9H2
Instrument: Q Exactive Plus Orbitrap Thermo Scientific
Instrument type: LC-ESI-QFT
Ms type: MS2
Ion mode: POSITIVE
Ionization: ESI
Fragmentation mode: HCD
Collision energy: 60 (nominal)
Resolution: 35000
Column name: XBridge C18 3.5um, 2.1x50mm, Waters
Retention time: 8.6 min
Base peak: 302.1094
Precursor m/z: 302.1099
Precursor type: [M+H]+
m/z	relative intensity	assigned
70.0399	999	C2H4N3+
71.029	1	C4H4F+
75.0228	1	CH2FN3+
83.0291	1	C5H4F+
91.0542	2	C7H7+
95.0289	2	CH3F2N3+
109.0448	181	C7H6F+
113.0397	7	C6H6FO+
123.0241	446	C2H3F2N3O+
123.0352	27	C6H4FN2+
137.0398	6	C8H6FO+
165.07	4	C13H9+
175.0544	1	C14H7+
193.0647	1	C9H8FN3O+
194.0527	2	C14H7F+
195.0605	13	C14H8F+
203.0607	1	C14H7N2+
214.0588	4	C14H8F2+
215.0667	8	C14H9F2+
