Mass spectrum: 2',2'-Difluoro-2'-deoxyuridine; LC-ESI-ITFT; MS2; CE: 30%; R=15000; [M-H]-
Name: 2',2'-Difluoro-2'-deoxyuridine
Formula: C9H10F2N2O5
Exact mass: 264.0558
SMILES: O=C/1NC(=O)N(\C=C\1)[C@@H]2O[C@@H]([C@@H](O)C2(F)F)CO
InChI: InChI=1S/C9H10F2N2O5/c10-9(11)6(16)4(3-14)18-7(9)13-2-1-5(15)12-8(13)17/h1-2,4,6-7,14,16H,3H2,(H,12,15,17)/t4-,6-,7-/m1/s1
Instrument: LTQ Orbitrap XL Thermo Scientific
Instrument type: LC-ESI-ITFT
Ms type: MS2
Ion mode: NEGATIVE
Ionization: ESI
Fragmentation mode: HCD
Collision energy: 30 % (nominal)
Resolution: 15000
Column name: XBridge C18 3.5um, 2.1x50mm, Waters
Retention time: 1.9 min
Base peak: 309.0545
Precursor m/z: 263.0485
Precursor type: [M-H]-
m/z	relative intensity	assigned
111.0201	414	C4H3N2O2-
220.0426	999	C8H8F2NO4-
