Mass spectrum: Dronedarone; LC-ESI-ITFT; MS2; CE: 45%; R=15000; [M+H]+
Name: Dronedarone
Name: N-[2-butyl-3-[4-[3-(dibutylamino)propoxy]benzoyl]-1-benzofuran-5-yl]methanesulfonamide
Formula: C31H44N2O5S
Exact mass: 556.2971
SMILES: CS(=O)(=O)Nc1cc2c(c(oc2cc1)CCCC)C(c1ccc(cc1)OCCCN(CCCC)CCCC)=O
InChI: InChI=1S/C31H44N2O5S/c1-5-8-12-29-30(27-23-25(32-39(4,35)36)15-18-28(27)38-29)31(34)24-13-16-26(17-14-24)37-22-11-21-33(19-9-6-2)20-10-7-3/h13-18,23,32H,5-12,19-22H2,1-4H3
Instrument: LTQ Orbitrap XL Thermo Scientific
Instrument type: LC-ESI-ITFT
Ms type: MS2
Ion mode: POSITIVE
Ionization: ESI
Fragmentation mode: HCD
Collision energy: 45 % (nominal)
Resolution: 15000
Column name: XBridge C18 3.5um, 2.1x50mm, Waters
Retention time: 11.5 min
Base peak: 557.3051
Precursor m/z: 557.3044
Precursor type: [M+H]+
m/z	relative intensity	assigned
57.0699	1	C4H9+
58.0651	317	C3H8N+
70.065	3	C4H8N+
72.0808	6	C4H10N+
86.0964	24	C5H12N+
100.1121	999	C6H14N+
101.1154	20	
112.1121	14	C7H14N+
114.1277	136	C7H16N+
121.0283	4	C7H5O2+
126.1279	3	C8H16N+
128.1434	73	C8H18N+
130.159	7	C8H20N+
142.1591	503	C9H20N+
143.1623	14	
161.0597	17	C10H9O2+
170.1903	136	C11H24N+
186.1852	1	C11H24NO+
214.0864	3	C13H12NO2+
215.0939	13	C13H13NO2+
216.1022	7	C13H14NO2+
252.0324	8	C11H10NO4S+
266.0809	1	C16H12NO3+
278.0808	5	C17H12NO3+
279.0886	3	C17H13NO3+
280.0966	3	C17H14NO3+
294.0792	78	C14H16NO4S+
295.0821	3	C15H11N4O3+
305.1035	2	C19H15NO3+
308.1276	8	C19H18NO3+
309.1355	11	C19H19NO3+
310.1435	11	C19H20NO3+
320.1283	2	C20H18NO3+
321.1353	3	C20H19NO3+
321.1731	1	C21H23NO2+
322.1445	1	C20H20NO3+
324.1591	11	C20H22NO3+
336.1593	27	C21H22NO3+
348.158	2	C22H22NO3+
349.1662	1	C22H23NO3+
350.1753	3	C22H24NO3+
379.2015	15	C23H27N2O3+
388.1205	7	C26H16N2O2+
393.217	8	C24H29N2O3+
421.2497	3	C26H33N2O3+
435.2639	140	C27H35N2O3+
436.267	12	C28H38NOS+
449.282	1	C28H37N2O3+
477.3101	2	C30H41N2O3+
501.2411	17	C27H37N2O5S+
502.2418	1	C31H36NO3S+
557.3023	93	C31H45N2O5S+
