Mass spectrum: Ethofumesate-2-keto; LC-ESI-ITFT; MS2; CE: 75%; R=7500; [M+H]+
Name: Ethofumesate-2-keto
Name: 3,3-Dimethyl-2-oxo-2,3-dihydrobenzofurane-5-yl methane sulfonate
Formula: C11H12O5S
Exact mass: 256.0405
SMILES: CS(=O)(=O)Oc1cc2c(cc1)OC(=O)C2(C)C
InChI: InChI=1S/C11H12O5S/c1-11(2)8-6-7(16-17(3,13)14)4-5-9(8)15-10(11)12/h4-6H,1-3H3
Instrument: LTQ Orbitrap XL Thermo Scientific
Instrument type: LC-ESI-ITFT
Ms type: MS2
Ion mode: POSITIVE
Ionization: ESI
Fragmentation mode: HCD
Collision energy: 75 % (nominal)
Resolution: 7500
Column name: XBridge C18 3.5um, 2.1x50mm, Waters
Retention time: 6.0 min
Base peak: 297.0411
Precursor m/z: 257.0478
Precursor type: [M+H]+
m/z	relative intensity	assigned
77.0387	288	C6H5+
78.9851	80	CH3O2S+
79.0542	610	C6H7+
91.0542	365	C7H7+
93.0699	361	C7H9+
94.0413	413	C6H6O+
103.0542	722	C8H7+
105.045	117	C6H5N2+
105.0699	487	C8H9+
107.0491	431	C7H7O+
115.0542	235	C9H7+
121.0648	764	C8H9O+
122.0726	567	C8H10O+
123.044	907	C7H7O2+
131.049	322	C9H7O+
132.0569	488	C9H8O+
133.0649	169	C9H9O+
135.044	482	C8H7O2+
149.0598	999	C9H9O2+
150.0671	378	C9H10O2+
160.0518	550	C10H8O2+
161.0596	154	C10H9O2+
163.0389	436	C9H7O3+
177.0544	608	C10H9O3+
201.0217	349	C8H9O4S+
