Mass spectrum: Halosulfuron-Methyl; LC-ESI-QFT; MS2; CE: 45%; R=17500; [M-H]-
Name: Halosulfuron-Methyl
Name: methyl 3-chloro-5-[(4,6-dimethoxypyrimidin-2-yl)carbamoylsulfamoyl]-1-methylpyrazole-4-carboxylate
Formula: C13H15ClN6O7S
Exact mass: 434.0411
SMILES: CN1C(=C(C(=N1)Cl)C(=O)OC)S(=O)(=O)NC(=O)NC2=NC(=CC(=N2)OC)OC
InChI: InChI=1S/C13H15ClN6O7S/c1-20-10(8(9(14)18-20)11(21)27-4)28(23,24)19-13(22)17-12-15-6(25-2)5-7(16-12)26-3/h5H,1-4H3,(H2,15,16,17,19,22)
Instrument: Exploris 240 Orbitrap Thermo Scientific
Instrument type: LC-ESI-QFT
Ms type: MS2
Ion mode: NEGATIVE
Ionization: ESI
Fragmentation mode: HCD
Collision energy: 45 % (nominal)
Resolution: 17500
Column name: XBridge C18 3.5um, 2.1x50mm, Waters
Retention time: 10.035 min
Base peak: 433.0339
Precursor m/z: 433.0339
Precursor type: [M-H]-
m/z	relative intensity	assigned
65.0145	34	C3HN2-
65.9986	12	C3NO-
77.9655	999	NO2S-
107.0126	9	C4HN3O-
122.036	49	C5H4N3O-
124.0517	9	C5H6N3O-
139.0387	30	C5H5N3O2-
154.0622	713	C6H8N3O2-
188.023	69	C6H7ClN3O2-
189.0072	6	C9H3NO4-
219.9588	55	C5H3ClN3O3S-
251.9851	407	C6H7ClN3O4S-
