Mass spectrum: Naftifine; LC-ESI-QFT; MS2; CE: 90; R=35000; [M+H]+
Name: Naftifine
Name: Suadian
Name: N-methyl-N-(naphthalen-1-ylmethyl)-3-phenylprop-2-en-1-amine
Formula: C21H21N
Exact mass: 287.16740
SMILES: CN(CC=CC1=CC=CC=C1)CC2=CC=CC3=CC=CC=C32
InChI: InChI=1S/C21H21N/c1-22(16-8-11-18-9-3-2-4-10-18)17-20-14-7-13-19-12-5-6-15-21(19)20/h2-15H,16-17H2,1H3
Instrument: Q Exactive Plus Orbitrap Thermo Scientific
Instrument type: LC-ESI-QFT
Ms type: MS2
Ion mode: POSITIVE
Ionization: ESI
Fragmentation mode: HCD
Collision energy: 90 (nominal)
Resolution: 35000
Column name: XBridge C18 3.5um, 2.1x50mm, Waters
Retention time: 7.5 min
Base peak: 288.1741
Precursor m/z: 288.1747
Precursor type: [M+H]+
m/z	relative intensity	assigned
50.015	1	C4H2+
51.0228	1	C4H3+
62.0149	1	C5H2+
63.0227	3	C5H3+
65.0385	13	C5H5+
78.0464	1	C6H6+
89.0385	4	C7H5+
91.0542	421	C7H7+
114.0461	1	C9H6+
115.0542	999	C9H7+
116.062	28	C9H8+
117.0698	397	C9H9+
133.0647	1	C9H9O+
139.0541	2	C11H7+
140.0617	1	C11H8+
141.0698	585	C11H9+
143.0603	1	C9H7N2+
