Mass spectrum: Chlorothalonil-TP R471811; LC-ESI-QFT; MS2; CE: 90%; R=17500; [M+H]+
Name: Chlorothalonil-TP R471811
Name: 2,4-dicarbamoyl-3,5,6-trichlorobenzenesulfonic acid
Formula: C8H5Cl3N2O5S
Exact mass: 345.8985
SMILES: NC(=O)C1=C(Cl)C(C(N)=O)=C(C(Cl)=C1Cl)S(O)(=O)=O
InChI: InChI=1S/C8H5Cl3N2O5S/c9-3-1(7(12)14)4(10)5(11)6(19(16,17)18)2(3)8(13)15/h(H2,12,14)(H2,13,15)(H,16,17,18)
Instrument: Q Exactive Plus Orbitrap Thermo Scientific
Instrument type: LC-ESI-QFT
Ms type: MS2
Ion mode: POSITIVE
Ionization: ESI
Fragmentation mode: HCD
Collision energy: 90 % (nominal)
Resolution: 17500
Column name: XBridge C18 3.5um, 2.1x50mm, Waters
Retention time: 1.062 min
Base peak: 346.906
Precursor m/z: 346.9058
Precursor type: [M+H]+
m/z	relative intensity	assigned
62.9632	28	CClO+
72.9839	111	C3H2Cl+
82.945	222	CHCl2+
86.9632	29	C3ClO+
92.997	12	C5HO2+
95.976	40	C5HCl+
96.9839	11	C5H2Cl+
101.974	38	C3HClNO+
106.945	999	C3HCl2+
109.9793	53	C5HClN+
110.9873	11	C5H2ClN+
113.0235	8	C5H5O3+
118.945	35	C4HCl2+
122.9871	53	C6H2ClN+
123.0077	14	C6H3O3+
123.9711	66	C6HClO+
128.9738	23	C5H2ClO2+
129.9375	9	C5Cl2+
130.945	585	C5HCl2+
137.9745	9	C3H4Cl2N2+
140.906	29	C3Cl3+
140.9735	14	C6H2ClO2+
141.9371	94	C6Cl2+
145.9561	58	C5H2Cl2N+
146.9403	47	C2H4Cl3N+
151.0141	9	C6H3N2O3+
157.9556	14	C6H2Cl2N+
158.9402	32	C3H4Cl3N+
158.9638	8	C6H3Cl2N+
159.029	24	
159.9478	33	C6H2Cl2O+
164.9058	59	C5Cl3+
166.9218	753	C5H2Cl3+
168.9793	12	C6H2ClN2O2+
176.9949	17	C6H6ClO4+
191.9166	10	C6HCl3N+
192.9004	12	C6Cl3O+
204.8997	96	C2HCl2NO4S+
221.927	9	C7H3Cl3NO+
222.911	27	C7H2Cl3O2+
