Mass spectrum: Thiram; LC-ESI-QFT; MS2; CE: 120; R=35000; [M+H]+
Name: Thiram
Name: Dimethylcarbamothioylsulfanyl N,N-dimethylcarbamodithioate
Formula: C6H12N2S4
Exact mass: 239.98833
SMILES: CN(C)C(=S)SSC(=S)N(C)C
InChI: InChI=1S/C6H12N2S4/c1-7(2)5(9)11-12-6(10)8(3)4/h1-4H3
Instrument: Q Exactive Plus Orbitrap Thermo Scientific
Instrument type: LC-ESI-QFT
Ms type: MS2
Ion mode: POSITIVE
Ionization: ESI
Fragmentation mode: HCD
Collision energy: 120 (nominal)
Resolution: 35000
Column name: XBridge C18 3.5um, 2.1x50mm, Waters
Retention time: 6.5 min
Base peak: 240.995
Precursor m/z: 240.9956
Precursor type: [M+H]+
m/z	relative intensity	assigned
55.0542	3	C4H7+
56.0495	146	C3H6N+
58.0652	6	C3H8N+
58.995	1	C2H3S+
59.9665	5	COS+
59.9903	1	CH2NS+
60.9981	48	CH3NS+
61.0106	34	C2H5S+
63.9436	22	S2+
65.0385	1	C5H5+
67.0541	1	C5H7+
71.9902	177	C2H2NS+
72.998	948	C2H3NS+
76.0215	238	C2H6NS+
76.9514	29	CHS2+
79.0541	3	C6H7+
88.0215	999	C3H6NS+
95.0491	3	C6H7O+
105.0448	2	C6H5N2+
119.9936	17	C3H6NS2+
