Mass spectrum: Pinoxaden-TP NOA 407854; LC-ESI-QFT; MS2; CE: 180%; R=17500; [M+H]+
Name: Pinoxaden-TP NOA 407854
Name: 8-(2,6-Diethyl-4-methylphenyl)tetrahydropyrazolo(1,2-d)(1,4,5)oxadiazepine-7,9-dione
Formula: C18H24N2O3
Exact mass: 316.1787
SMILES: CCC1=CC(C)=CC(CC)=C1C1C(=O)N2CCOCCN2C1=O
InChI: InChI=1S/C18H24N2O3/c1-4-13-10-12(3)11-14(5-2)15(13)16-17(21)19-6-8-23-9-7-20(19)18(16)22/h10-11,16H,4-9H2,1-3H3
Instrument: Q Exactive Plus Orbitrap Thermo Scientific
Instrument type: LC-ESI-QFT
Ms type: MS2
Ion mode: POSITIVE
Ionization: ESI
Fragmentation mode: HCD
Collision energy: 180 % (nominal)
Resolution: 17500
Column name: XBridge C18 3.5um, 2.1x50mm, Waters
Retention time: 7.136 min
Base peak: 317.186
Precursor m/z: 317.186
Precursor type: [M+H]+
m/z	relative intensity	assigned
50.0151	57	C4H2+
51.023	152	C4H3+
52.0309	7	C4H4+
53.0022	20	C3HO+
53.0386	85	C4H5+
62.0151	14	C5H2+
63.0229	102	C5H3+
65.0386	390	C5H5+
74.0151	10	C6H2+
75.0229	40	C6H3+
76.0307	19	C6H4+
77.0385	98	C6H5+
78.0464	160	C6H6+
79.0542	48	C6H7+
81.0336	11	C5H5O+
87.023	9	C7H3+
89.0386	270	C7H5+
90.0466	34	C7H6+
91.0543	544	C7H7+
95.0492	259	C6H7O+
102.0465	112	C8H6+
103.0543	200	C8H7+
104.062	18	C8H8+
105.0447	160	C6H5N2+
113.0384	15	C9H5+
115.0543	999	C9H7+
116.0498	25	C8H6N+
116.0621	76	C9H8+
117.0572	22	C8H7N+
117.0698	25	C9H9+
118.0651	10	C8H8N+
126.0464	28	C10H6+
127.0544	49	C10H7+
128.0621	346	C10H8+
129.0451	16	C8H5N2+
129.0701	30	C10H9+
130.0651	81	C9H8N+
131.0494	12	C9H7O+
139.0539	14	C11H7+
140.0498	27	C10H6N+
141.0698	32	C11H9+
142.0653	20	C10H8N+
143.0733	18	C10H9N+
144.0815	12	C10H10N+
145.0646	24	C10H9O+
152.0625	21	C12H8+
154.0659	12	C11H8N+
155.0605	68	C10H7N2+
