Mass spectrum: Fenamidone; LC-ESI-QFT; MS2; CE: 60; R=35000; [M+H]+
Name: Fenamidone
Name: (5S)-3-anilino-5-methyl-2-(methylthio)-5-phenyl-2-imidazolin-4-one
Formula: C17H17N3OS
Exact mass: 311.10923
SMILES: O=C2N(Nc1ccccc1)C(\SC)=N/[C@]2(c3ccccc3)C
InChI: InChI=1S/C17H17N3OS/c1-17(13-9-5-3-6-10-13)15(21)20(16(18-17)22-2)19-14-11-7-4-8-12-14/h3-12,19H,1-2H3/t17-/m0/s1
Instrument: Q Exactive Orbitrap Thermo Scientific
Instrument type: LC-ESI-QFT
Ms type: MS2
Ion mode: POSITIVE
Ionization: ESI
Fragmentation mode: HCD
Collision energy: 60 (nominal)
Resolution: 35000
Column name: XBridge C18 3.5um, 2.1x50mm, Waters
Retention time: 10.3 min
Base peak: 312.1166
Precursor m/z: 312.1165
Precursor type: [M+H]+
m/z	relative intensity	assigned
65.0386	287	C5H5+
74.0058	12	C2H4NS+
74.99	4	C2H3OS+
79.0542	1	C6H7+
85.9694	2	C2NOS+
92.0494	999	C6H6N+
93.0572	2	C6H7N+
95.049	3	C6H7O+
103.0542	175	C8H7+
104.0494	11	C7H6N+
106.0651	1	C7H8N+
109.076	5	C6H9N2+
110.06	2	C6H8NO+
118.0524	2	C7H6N2+
118.0649	2	C8H8N+
119.0603	2	C7H7N2+
120.0807	82	C8H10N+
123.0135	1	C6H5NS+
130.0651	2	C9H8N+
133.0634	4	C7H7N3+
133.076	32	C8H9N2+
134.0712	139	C7H8N3+
138.0371	6	C7H8NS+
145.076	3	C9H9N2+
146.0598	3	C9H8NO+
147.0677	1	C9H9NO+
148.0758	3	C9H10NO+
150.0246	38	C7H6N2S+
150.0371	2	C8H8NS+
151.0575	2	C9H11S+
158.0713	18	C9H8N3+
161.0709	9	C9H9N2O+
162.0372	4	C9H8NS+
165.0481	42	C8H9N2S+
170.0964	7	C12H12N+
176.0402	1	C9H8N2S+
193.0793	4	C10H13N2S+
193.0879	1	C14H11N+
194.0964	22	C14H12N+
195.0916	4	C13H11N2+
206.0841	4	C14H10N2+
207.0673	3	C14H9NO+
211.1231	13	C14H15N2+
219.0915	9	C15H11N2+
221.0744	4	C11H13N2OS+
221.0947	13	C14H11N3+
221.1072	2	C15H13N2+
222.0913	6	C15H12NO+
236.1181	121	C15H14N3+
237.0481	5	C14H9N2S+
252.0716	2	C15H12N2S+
