Mass spectrum: Pyrimethanil; LC-ESI-ITFT; MS2; CE: 60%; R=15000; [M+H]+
Name: Pyrimethanil
Name: (4,6-dimethylpyrimidin-2-yl)-phenyl-amine
Formula: C12H13N3
Exact mass: 199.1109
SMILES: c(ccc1N-c(nc(c2)C)nc2C)cc1
InChI: InChI=1S/C12H13N3/c1-9-8-10(2)14-12(13-9)15-11-6-4-3-5-7-11/h3-8H,1-2H3,(H,13,14,15)
Instrument: LTQ Orbitrap XL Thermo Scientific
Instrument type: LC-ESI-ITFT
Ms type: MS2
Ion mode: POSITIVE
Ionization: ESI
Fragmentation mode: HCD
Collision energy: 60 % (nominal)
Resolution: 15000
Column name: XBridge C18 3.5um, 2.1x50mm, Waters
Retention time: 7.6 min
Base peak: 200.1185
Precursor m/z: 200.1182
Precursor type: [M+H]+
m/z	relative intensity	assigned
66.0338	2	C4H4N+
80.0494	7	C5H6N+
82.0651	40	C5H8N+
83.0604	3	C4H7N2+
92.0493	1	C6H6N+
93.0571	2	C6H7N+
94.0651	2	C6H8N+
107.0604	68	C6H7N2+
118.0649	5	C8H8N+
119.0603	5	C7H7N2+
125.0709	21	C6H9N2O+
142.0652	6	C10H8N+
143.0604	14	C9H7N2+
143.0729	1	C10H9N+
156.0808	2	C11H10N+
159.0917	8	C10H11N2+
166.0654	1	C12H8N+
167.0736	1	C12H9N+
168.0682	8	C11H8N2+
173.107	1	C11H13N2+
182.0838	9	C12H10N2+
183.0917	73	C12H11N2+
184.0871	1	C11H10N3+
185.0947	2	C11H11N3+
198.1017	1	C12H12N3+
199.1101	1	C12H13N3+
200.1182	999	C12H14N3+
