Mass spectrum: Oxazepam; LC-ESI-ITFT; MS2; CE: 90%; R=30000; [M+H]+
Name: Oxazepam
Name: 7-chloranyl-3-oxidanyl-5-phenyl-1,3-dihydro-1,4-benzodiazepin-2-one
Formula: C15H11ClN2O2
Exact mass: 286.0509
SMILES: C1=CC=C(C=C1)C2=NC(C(=O)NC3=C2C=C(C=C3)Cl)O
InChI: InChI=1S/C15H11ClN2O2/c16-10-6-7-12-11(8-10)13(9-4-2-1-3-5-9)18-15(20)14(19)17-12/h1-8,15,20H,(H,17,19)
Instrument: LTQ Orbitrap XL Thermo Scientific
Instrument type: LC-ESI-ITFT
Ms type: MS2
Ion mode: POSITIVE
Ionization: ESI
Fragmentation mode: HCD
Collision energy: 90 % (nominal)
Resolution: 30000
Column name: XBridge C18 3.5um, 2.1x50mm, Waters
Retention time: 9.0 min
Base peak: 287.059
Precursor m/z: 287.0582
Precursor type: [M+H]+
m/z	relative intensity	assigned
77.0386	69	C6H5+
79.0543	11	C6H7+
86.9996	9	C4H4Cl+
90.0339	21	C6H4N+
93.0573	227	C6H7N+
95.0492	8	C6H7O+
98.9996	27	C5H4Cl+
100.0182	10	C7H2N+
104.0495	999	C7H6N+
105.0448	34	C6H5N2+
117.0451	7	C7H5N2+
118.0526	126	C7H6N2+
126.0106	43	C6H5ClN+
128.0262	88	C6H7ClN+
129.0447	7	C8H5N2+
138.0105	93	C7H5ClN+
139.0058	82	C6H4ClN2+
145.0508	19	C7H5N4+
151.0542	19	C12H7+
152.0135	14	C7H5ClN2+
152.0621	24	C12H8+
153.0214	159	C7H6ClN2+
163.0058	462	C8H4ClN2+
164.0011	114	C10N2O+
166.0055	14	C8H5ClNO+
172.9774	5	C8ClN3+
178.0651	29	C13H8N+
179.0007	9	C8H4ClN2O+
179.0729	29	C13H9N+
180.0809	10	C13H10N+
194.0838	27	C13H10N2+
195.0917	88	C13H11N2+
205.0761	82	C14H9N2+
206.084	24	C14H10N2+
207.0679	11	C14H9NO+
214.0419	49	C13H9ClN+
229.0528	104	C13H10ClN2+
231.0678	10	C13H12ClN2+
239.0361	14	C14H8ClN2+
240.0452	10	C14H9ClN2+
241.0526	476	C14H10ClN2+
245.0807	6	C12H11N3O3+
257.0476	25	C14H10ClN2O+
