Mass spectrum: Cefadroxil; LC-ESI-QFT; MS2; CE: 120; R=35000; [M+H]+
Name: Cefadroxil
Name: 7-[[2-azaniumyl-2-(4-hydroxyphenyl)acetyl]amino]-3-methyl-8-oxo-5-thia-1-azabicyclo[4.2.0]oct-2-ene-2-carboxylate
Formula: C16H17N3O5S
Exact mass: 363.08889
SMILES: CC1=C(N2C(C(C2=O)NC(=O)C(C3=CC=C(C=C3)O)N)SC1)C(=O)O
InChI: InChI=1S/C16H17N3O5S/c1-7-6-25-15-11(14(22)19(15)12(7)16(23)24)18-13(21)10(17)8-2-4-9(20)5-3-8/h2-5,10-11,15,20H,6,17H2,1H3,(H,18,21)(H,23,24)
Instrument: Q Exactive Plus Orbitrap Thermo Scientific
Instrument type: LC-ESI-QFT
Ms type: MS2
Ion mode: POSITIVE
Ionization: ESI
Fragmentation mode: HCD
Collision energy: 120 (nominal)
Resolution: 35000
Column name: XBridge C18 3.5um, 2.1x50mm, Waters
Retention time: 2.4 min
Base peak: 364.0954
Precursor m/z: 364.0962
Precursor type: [M+H]+
m/z	relative intensity	assigned
50.0151	12	C4H2+
51.023	22	C4H3+
52.0308	4	C4H4+
53.0023	17	C3HO+
53.0386	51	C4H5+
53.9975	3	C2NO+
54.0339	6	C3H4N+
55.0179	11	C3H3O+
56.0132	4	C2H2NO+
56.0495	6	C3H6N+
57.9872	48	C2H2S+
58.995	674	C2H3S+
59.9665	7	COS+
59.9903	2	CH2NS+
63.023	8	C5H3+
65.0386	45	C5H5+
66.0338	2	C4H4N+
66.0464	2	C5H6+
67.0417	5	C4H5N+
67.0543	1	C5H7+
68.0495	116	C4H6N+
68.9794	58	C3HS+
69.0447	7	C3H5N2+
69.9923	12	C2NO2+
70.0287	5	C3H4NO+
70.0652	1	C4H8N+
74.006	1	C2H4NS+
77.0386	45	C6H5+
78.0464	279	C6H6+
79.0179	2	C5H3O+
79.0542	50	C6H7+
80.0496	9	C5H6N+
81.0335	9	C5H5O+
82.0414	9	C5H6O+
82.0651	1	C5H8N+
84.0444	2	C4H6NO+
85.0108	1	C4H5S+
86.0059	999	C3H4NS+
86.9899	5	C3H3OS+
89.0386	42	C7H5+
90.0465	1	C7H6+
91.0543	47	C7H7+
92.0495	5	C6H6N+
93.0575	1	C6H7N+
94.0414	5	C6H6O+
94.0652	2	C6H8N+
95.0492	183	C6H7O+
96.0444	5	C5H6NO+
97.0106	1	C5H5S+
102.0463	2	C8H6+
103.0543	4	C8H7+
104.0495	15	C7H6N+
105.0336	210	C7H5O+
105.0448	97	C6H5N2+
105.0573	12	C7H7N+
106.0414	64	C7H6O+
106.0652	23	C7H8N+
107.0492	173	C7H7O+
109.0107	6	C6H5S+
111.0441	1	C6H7O2+
114.0009	115	C4H4NOS+
115.0543	8	C9H7+
116.0497	15	C8H6N+
117.0574	23	C8H7N+
118.0651	5	C8H8N+
119.0494	9	C8H7O+
120.0444	2	C7H6NO+
120.0571	2	C8H8O+
121.0285	2	C7H5O2+
122.06	6	C7H8NO+
128.0494	1	C9H6N+
128.0621	4	C10H8+
129.0698	1	C10H9+
131.0492	2	C9H7O+
132.0444	2	C8H6NO+
133.0523	39	C8H7NO+
134.0363	6	C8H6O2+
134.0602	22	C8H8NO+
137.0057	27	C7H5OS+
138.0312	19	C7H6O3+
139.0213	6	C7H7OS+
144.0557	13	C8H6N3+
146.0602	7	C9H8NO+
173.0298	2	C10H7NS+
178.0323	2	C9H8NOS+
189.0244	1	C10H7NOS+
