Mass spectrum: Ethiprole; LC-ESI-QFT; MS2; CE: 45%; R=17500; [M+H]+
Name: Ethiprole
Name: 5-amino-1-[2,6-dichloro-4-(trifluoromethyl)phenyl]-4-ethylsulfinylpyrazole-3-carbonitrile
Formula: C13H9Cl2F3N4OS
Exact mass: 395.9826
SMILES: CCS(=O)C1=C(N(N=C1C#N)C2=C(C=C(C=C2Cl)C(F)(F)F)Cl)N
InChI: InChI=1S/C13H9Cl2F3N4OS/c1-2-24(23)11-9(5-19)21-22(12(11)20)10-7(14)3-6(4-8(10)15)13(16,17)18/h3-4H,2,20H2,1H3
Instrument: Exploris 240 Orbitrap Thermo Scientific
Instrument type: LC-ESI-QFT
Ms type: MS2
Ion mode: POSITIVE
Ionization: ESI
Fragmentation mode: HCD
Collision energy: 45 % (nominal)
Resolution: 17500
Column name: XBridge C18 3.5um, 2.1x50mm, Waters
Retention time: 8.795 min
Base peak: 396.9896
Precursor m/z: 396.9899
Precursor type: [M+H]+
m/z	relative intensity	assigned
212.9509	7	C4H6Cl2F3S+
227.9593	7	C7H3Cl2F3N+
240.9544	33	C7H2Cl2F3N2+
254.9697	663	C8H4Cl2F3N2+
285.0148	8	C11H5ClF3N4+
296.9272	7	C9H2Cl2F3N2S+
314.9718	10	C11H3ClF3N4S+
315.9789	61	C11H4ClF3N4S+
320.9922	11	C11H6Cl2F3N4+
350.948	999	C11H4Cl2F3N4S+
351.9554	16	C11H5Cl2F3N4S+
