Mass spectrum: Propaquizafop; LC-ESI-ITFT; MS2; CE: 75%; R=15000; [M+H]+
Name: Propaquizafop
Name: 2-(propan-2-ylideneamino)oxyethyl 2-[4-(6-chloranylquinoxalin-2-yl)oxyphenoxy]propanoate
Formula: C22H22ClN3O5
Exact mass: 443.1242
SMILES: CC(C(=O)OCCON=C(C)C)OC1=CC=C(C=C1)OC2=CN=C3C=C(C=CC3=N2)Cl
InChI: InChI=1S/C22H22ClN3O5/c1-14(2)26-29-11-10-28-22(27)15(3)30-17-5-7-18(8-6-17)31-21-13-24-20-12-16(23)4-9-19(20)25-21/h4-9,12-13,15H,10-11H2,1-3H3
Instrument: LTQ Orbitrap XL Thermo Scientific
Instrument type: LC-ESI-ITFT
Ms type: MS2
Ion mode: POSITIVE
Ionization: ESI
Fragmentation mode: HCD
Collision energy: 75 % (nominal)
Resolution: 15000
Column name: XBridge C18 3.5um, 2.1x50mm, Waters
Retention time: 15.0 min
Base peak: 466.114
Precursor m/z: 444.1321
Precursor type: [M+H]+
m/z	relative intensity	assigned
56.0494	652	C3H6N+
65.0385	64	C5H5+
70.0651	999	C4H8N+
91.0542	394	C7H7+
99.044	167	C5H7O2+
100.0518	257	C5H8O2+
100.0756	355	C5H10NO+
119.0493	39	C8H7O+
126.0105	21	C6H5ClN+
133.0648	29	C9H9O+
147.0438	25	C9H7O2+
163.0056	621	C8H4ClN2+
165.0216	36	C8H6ClN2+
165.0574	21	C12H7N+
179.001	32	C8H4ClN2O+
180.0683	22	C12H8N2+
181.0162	211	C8H6ClN2O+
189.0204	19	C13H3NO+
192.0681	436	C13H8N2+
193.0761	38	C13H9N2+
202.0288	20	C14H4NO+
207.0912	64	C14H11N2+
208.0631	65	C13H8N2O+
215.0367	113	C15H5NO+
218.0843	24	C15H10N2+
226.03	27	C13H7ClN2+
227.0372	51	C16H5NO+
228.0445	99	C16H6NO+
229.0524	39	C16H7NO+
243.032	42	C13H8ClN2O+
243.0678	32	C17H9NO+
253.0512	40	C18H7NO+
255.0317	601	C17H5NO2+
256.0394	23	C17H6NO2+
257.0471	196	C17H7NO2+
285.0421	107	C18H7NO3+
