Mass spectrum: Dimethoate; LC-ESI-ITFT; MS2; CE: 75%; R=7500; [M+H]+
Name: Dimethoate
Name: 2-(dimethoxyphosphinothioylthio)-N-methylacetamide
Formula: C5H12NO3PS2
Exact mass: 228.9996
SMILES: P(SCC(NC)=O)(OC)(OC)=S
InChI: InChI=1S/C5H12NO3PS2/c1-6-5(7)4-12-10(11,8-2)9-3/h4H2,1-3H3,(H,6,7)
Instrument: LTQ Orbitrap XL Thermo Scientific
Instrument type: LC-ESI-ITFT
Ms type: MS2
Ion mode: POSITIVE
Ionization: ESI
Fragmentation mode: HCD
Collision energy: 75 % (nominal)
Resolution: 7500
Column name: XBridge C18 3.5um, 2.1x50mm, Waters
Retention time: 5.2 min
Base peak: 230.007
Precursor m/z: 230.0069
Precursor type: [M+H]+
m/z	relative intensity	assigned
58.9951	4	C2H3S+
61.0107	11	C2H5S+
62.0185	18	C2H6S+
62.9994	9	CH4OP+
76.0216	10	C2H6NS+
78.0104	2	CH5NOP+
78.9944	278	CH4O2P+
86.0061	2	C3H4NS+
88.0216	64	C3H6NS+
92.026	6	C2H7NOP+
93.0101	131	C2H6O2P+
94.9718	3	CH4OPS+
97.0049	3	CH6O3P+
104.0166	11	C3H6NOS+
109.0048	5	C2H6O3P+
110.9665	41	CH4O2PS+
111.0204	2	C2H8O3P+
119.9938	5	C3H6NS2+
123.9981	47	C2H7NOPS+
124.982	999	C2H6O2PS+
127.0156	24	C2H8O4P+
128.977	50	CH6O3PS+
142.9926	875	C2H8O3PS+
155.97	12	C2H7NOPS2+
156.9541	87	C2H6O2PS2+
170.9702	15	C3H8O2PS2+
230.007	1	C5H13NO3PS2+
