Mass spectrum: Enoxastrobin; LC-ESI-QFT; MS2; CE: 75%; R=17500; [M+H]+
Name: Enoxastrobin
Name: methyl 2-[2-[[4-(4-chlorophenyl)but-3-en-2-ylideneamino]oxymethyl]phenyl]-3-methoxyprop-2-enoate
Formula: C22H22ClNO4
Exact mass: 399.1237
SMILES: CC(=NOCC1=CC=CC=C1C(=COC)C(=O)OC)C=CC2=CC=C(C=C2)Cl
InChI: InChI=1S/C22H22ClNO4/c1-16(8-9-17-10-12-19(23)13-11-17)24-28-14-18-6-4-5-7-20(18)21(15-26-2)22(25)27-3/h4-13,15H,14H2,1-3H3
Instrument: Exploris 240 Orbitrap Thermo Scientific
Instrument type: LC-ESI-QFT
Ms type: MS2
Ion mode: POSITIVE
Ionization: ESI
Fragmentation mode: HCD
Collision energy: 75 % (nominal)
Resolution: 17500
Column name: XBridge C18 3.5um, 2.1x50mm, Waters
Retention time: 13.142 min
Base peak: 400.1307
Precursor m/z: 400.131
Precursor type: [M+H]+
m/z	relative intensity	assigned
51.0229	18	C4H3+
75.0229	28	C6H3+
77.0386	29	C6H5+
91.0542	120	C7H7+
101.0386	135	C8H5+
102.0464	999	C8H6+
103.0545	44	C8H7+
115.0542	385	C9H7+
117.0698	368	C9H9+
119.0492	34	C8H7O+
130.0413	126	C9H6O+
131.0491	46	C9H7O+
137.0152	889	C8H6Cl+
145.0648	514	C10H9O+
146.0722	45	C10H10O+
178.0419	10	C10H9ClN+
