Mass spectrum: Mirtazapine; LC-ESI-QFT; MS2; CE: 90; R=35000; [M+H]+
Name: Mirtazapine
Name: 2-Methyl-1,2,3,4,10,14b-hexahydropyrazino[2,1-a]pyrido[2,3-c][2]benzazepine
Formula: C17H19N3
Exact mass: 265.15790
SMILES: CN1CCN2C(C1)C3=CC=CC=C3CC4=C2N=CC=C4
InChI: InChI=1S/C17H19N3/c1-19-9-10-20-16(12-19)15-7-3-2-5-13(15)11-14-6-4-8-18-17(14)20/h2-8,16H,9-12H2,1H3
Instrument: Q Exactive Plus Orbitrap Thermo Scientific
Instrument type: LC-ESI-QFT
Ms type: MS2
Ion mode: POSITIVE
Ionization: ESI
Fragmentation mode: HCD
Collision energy: 90 (nominal)
Resolution: 35000
Column name: XBridge C18 3.5um, 2.1x50mm, Waters
Retention time: 4.7 min
Base peak: 266.1642
Precursor m/z: 266.1652
Precursor type: [M+H]+
m/z	relative intensity	assigned
56.0494	12	C3H6N+
57.0572	7	C3H7N+
58.065	36	C3H8N+
65.0385	55	C5H5+
67.0415	2	C4H5N+
70.065	33	C4H8N+
72.0807	277	C4H10N+
78.0337	7	C5H4N+
79.0415	1	C5H5N+
79.0541	2	C6H7+
80.0493	11	C5H6N+
85.0759	3	C4H9N2+
89.0384	2	C7H5+
90.0338	4	C6H4N+
91.0541	37	C7H7+
92.0493	46	C6H6N+
93.0572	2	C6H7N+
95.0603	1	C5H7N2+
96.0442	13	C5H6NO+
103.054	10	C8H7+
104.0493	3	C7H6N+
104.0618	1	C8H8+
105.0444	1	C6H5N2+
105.0697	20	C8H9+
106.065	2	C7H8N+
107.0602	9	C6H7N2+
110.0599	110	C6H8NO+
115.0541	75	C9H7+
116.0493	24	C8H6N+
116.062	3	C9H8+
117.0445	24	C7H5N2+
117.0571	7	C8H7N+
117.0697	9	C9H9+
118.0524	4	C7H6N2+
119.0603	3	C7H7N2+
121.0759	2	C7H9N2+
127.0542	1	C10H7+
128.0492	3	C9H6N+
128.0619	4	C10H8+
129.0697	6	C10H9+
130.065	26	C9H8N+
131.0603	14	C8H7N2+
131.0728	23	C9H9N+
132.0679	3	C8H8N2+
132.0805	3	C9H10N+
133.0759	7	C8H9N2+
133.0885	3	C9H11N+
134.0599	3	C8H8NO+
135.055	16	C7H7N2O+
139.0539	2	C11H7+
140.0491	2	C10H6N+
141.0697	20	C11H9+
142.0648	1	C10H8N+
143.0728	2	C10H9N+
144.0806	23	C10H10N+
145.0643	1	C10H9O+
146.0598	3	C9H8NO+
146.0963	2	C10H12N+
151.054	8	C12H7+
152.062	8	C12H8+
153.057	5	C11H7N+
153.0697	7	C12H9+
154.0649	10	C11H8N+
155.0602	5	C10H7N2+
158.0963	1	C11H12N+
165.0698	15	C13H9+
166.065	9	C12H8N+
167.0728	110	C12H9N+
168.0806	108	C12H10N+
169.0646	16	C12H9O+
177.057	8	C13H7N+
178.0649	82	C13H8N+
179.0609	11	C12H7N2+
179.0727	62	C13H9N+
180.0691	5	C12H8N2+
180.0805	74	C13H10N+
181.0758	7	C12H9N2+
181.0885	8	C13H11N+
182.0961	11	C13H12N+
190.0649	1	C14H8N+
191.0727	14	C14H9N+
192.0677	2	C13H8N2+
192.0806	11	C14H10N+
193.0759	35	C13H9N2+
193.0886	2	C14H11N+
194.0837	799	C13H10N2+
195.0914	999	C13H11N2+
196.0755	11	C13H10NO+
203.0725	1	C15H9N+
204.0804	2	C15H10N+
205.0758	10	C14H9N2+
206.0715	4	C13H8N3+
206.0833	10	C14H10N2+
206.097	1	C15H12N+
207.0914	22	C14H11N2+
208.0992	9	C14H12N2+
209.107	30	C14H13N2+
216.0805	1	C16H10N+
217.0883	7	C16H11N+
218.0834	6	C15H10N2+
219.0915	37	C15H11N2+
220.0992	2	C15H12N2+
221.107	4	C15H13N2+
223.1223	2	C15H15N2+
233.1067	5	C16H13N2+
235.1226	2	C16H15N2+
