Mass spectrum: Linezolid; LC-ESI-QFT; MS2; CE: 45; R=35000; [M+H]+
Name: Linezolid
Name: N-[[(5S)-3-(3-fluoro-4-morpholin-4-ylphenyl)-2-oxo-1,3-oxazolidin-5-yl]methyl]acetamide
Formula: C16H20FN3O4
Exact mass: 337.14378
SMILES: CC(=O)NC[C@H]1CN(C(=O)O1)C2=CC(=C(C=C2)N3CCOCC3)F
InChI: InChI=1S/C16H20FN3O4/c1-11(21)18-9-13-10-20(16(22)24-13)12-2-3-15(14(17)8-12)19-4-6-23-7-5-19/h2-3,8,13H,4-7,9-10H2,1H3,(H,18,21)/t13-/m0/s1
Instrument: Q Exactive Orbitrap Thermo Scientific
Instrument type: LC-ESI-QFT
Ms type: MS2
Ion mode: POSITIVE
Ionization: ESI
Fragmentation mode: HCD
Collision energy: 45 (nominal)
Resolution: 35000
Column name: XBridge C18 3.5um, 2.1x50mm, Waters
Retention time: 5.6 min
Base peak: 338.1509
Precursor m/z: 338.1511
Precursor type: [M+H]+
m/z	relative intensity	assigned
56.0495	348	C3H6N+
60.0444	35	C2H6NO+
70.0651	3	C4H8N+
72.0443	22	C3H6NO+
74.06	5	C3H8NO+
84.0443	34	C4H6NO+
85.0521	16	C4H7NO+
86.0599	31	C4H8NO+
88.0756	10	C4H10NO+
98.06	69	C5H8NO+
116.0705	16	C5H10NO2+
122.0397	4	C7H5FN+
124.0556	60	C7H7FN+
125.0507	14	C6H6FN2+
130.065	10	C9H8N+
131.0604	14	C8H7N2+
133.0759	14	C8H9N2+
134.0397	3	C8H5FN+
135.0478	83	C8H6FN+
136.0556	52	C8H7FN+
137.0509	24	C7H6FN2+
137.0634	47	C8H8FN+
138.059	4	C7H7FN2+
138.0712	13	C8H9FN+
139.0664	15	C7H8FN2+
142.0653	13	C10H8N+
143.0603	4	C9H7N2+
144.0808	14	C10H10N+
145.0757	4	C9H9N2+
147.0916	5	C9H11N2+
148.0556	436	C9H7FN+
149.051	100	C8H6FN2+
149.0635	278	C9H8FN+
150.0588	24	C8H7FN2+
150.0712	66	C9H9FN+
151.0665	206	C8H8FN2+
152.0743	87	C8H9FN2+
153.0821	116	C8H10FN2+
154.065	3	C11H8N+
154.0899	3	C8H11FN2+
156.0684	11	C10H8N2+
157.0758	29	C10H9N2+
158.0837	5	C10H10N2+
159.0916	26	C10H11N2+
161.0508	13	C9H6FN2+
161.064	8	C10H8FN+
162.0713	216	C10H9FN+
163.0665	474	C9H8FN2+
164.0743	31	C9H9FN2+
164.0868	15	C10H11FN+
165.0822	239	C9H10FN2+
166.0899	11	C9H11FN2+
167.0977	33	C9H12FN2+
168.0687	4	C11H8N2+
168.0815	3	C12H10N+
169.0759	324	C11H9N2+
170.0837	40	C11H10N2+
171.0915	106	C11H11N2+
172.0556	53	C11H7FN+
173.0635	9	C11H8FN+
173.1073	4	C11H13N2+
174.0587	211	C10H7FN2+
175.0669	22	C10H8FN2+
175.079	3	C11H10FN+
176.0744	55	C10H9FN2+
176.0868	4	C11H11FN+
177.0459	47	C9H6FN2O+
177.0822	197	C10H10FN2+
178.09	23	C10H11FN2+
179.0614	16	C9H8FN2O+
179.0978	116	C10H12FN2+
180.0815	12	C10H11FNO+
180.093	33	C9H11FN3+
181.0773	36	C9H10FN2O+
181.0895	128	C10H12FNO+
182.0838	5	C12H10N2+
183.0563	2	C8H8FN2O2+
185.1073	75	C12H13N2+
187.0666	69	C11H8FN2+
187.0863	5	C11H11N2O+
187.0993	4	C12H13NO+
187.1227	6	C12H15N2+
188.0745	23	C11H9FN2+
189.0822	532	C11H10FN2+
190.09	170	C11H11FN2+
191.0978	489	C11H12FN2+
192.0822	10	C11H11FNO+
192.1055	42	C11H13FN2+
194.0846	11	C10H11FN2O+
194.0977	4	C11H13FNO+
195.0927	999	C10H12FN2O+
196.1005	241	C10H13FN2O+
197.0719	102	C9H10FN2O2+
197.1081	142	C10H14FN2O+
198.0798	6	C9H11FN2O2+
200.0944	5	C12H12N2O+
201.082	11	C12H10FN2+
202.0898	12	C12H11FN2+
202.1338	3	C12H16N3+
203.0978	4	C12H12FN2+
203.1178	27	C12H15N2O+
204.1055	5	C12H13FN2+
205.077	29	C11H10FN2O+
205.1133	29	C12H14FN2+
206.085	19	C11H11FN2O+
206.1085	6	C11H13FN3+
207.0923	18	C11H12FN2O+
208.1009	3	C11H13FN2O+
208.1141	7	C12H15FNO+
208.1243	16	C11H15FN3+
209.1084	377	C11H14FN2O+
210.112	10	C11H16NO3+
215.1178	258	C13H15N2O+
217.1135	91	C13H14FN2+
221.1084	76	C12H14FN2O+
222.1036	99	C11H13FN3O+
223.0877	37	C11H12FN2O2+
223.124	104	C12H16FN2O+
233.1085	26	C13H14FN2O+
234.1035	10	C12H13FN3O+
235.124	809	C13H16FN2O+
236.1189	18	C12H15FN3O+
238.0985	50	C11H13FN3O2+
239.0832	3	C11H12FN2O3+
239.1185	5	C12H16FN2O2+
241.0981	335	C11H14FN2O3+
244.1441	28	C14H18N3O+
246.123	20	C13H16N3O2+
248.1194	5	C13H15FN3O+
249.127	70	C13H16FN3O+
250.0986	58	C12H13FN3O2+
250.135	11	C13H17FN3O+
251.1062	22	C12H14FN3O2+
251.1427	14	C13H18FN3O+
252.1142	202	C12H15FN3O2+
252.1502	11	C13H19FN3O+
253.0983	9	C12H14FN2O3+
253.1221	9	C12H16FN3O2+
276.151	5	C15H19FN3O+
278.1299	68	C14H17FN3O2+
279.1135	21	C14H16FN2O3+
280.1091	4	C13H15FN3O3+
288.1336	3	C15H18N3O3+
294.1611	86	C15H21FN3O2+
296.1403	681	C14H19FN3O3+
297.1242	15	C14H18FN2O4+
338.1509	210	C16H21FN3O4+
