Mass spectrum: Brodifacoum; LC-ESI-QFT; MS2; CE: 90%; R=17500; [M+H]+
Name: Brodifacoum
Name: 3-[3-[4-(4-bromophenyl)phenyl]-1,2,3,4-tetrahydronaphthalen-1-yl]-4-hydroxychromen-2-one
Formula: C31H23BrO3
Exact mass: 522.0831
SMILES: C1C(CC2=CC=CC=C2C1C3=C(C4=CC=CC=C4OC3=O)O)C5=CC=C(C=C5)C6=CC=C(C=C6)Br
InChI: InChI=1S/C31H23BrO3/c32-24-15-13-20(14-16-24)19-9-11-21(12-10-19)23-17-22-5-1-2-6-25(22)27(18-23)29-30(33)26-7-3-4-8-28(26)35-31(29)34/h1-16,23,27,33H,17-18H2
Instrument: Exploris 240 Orbitrap Thermo Scientific
Instrument type: LC-ESI-QFT
Ms type: MS2
Ion mode: POSITIVE
Ionization: ESI
Fragmentation mode: HCD
Collision energy: 90 % (nominal)
Resolution: 17500
Column name: XBridge C18 3.5um, 2.1x50mm, Waters
Retention time: 16.530 min
Base peak: 523.0906
Precursor m/z: 523.0903
Precursor type: [M+H]+
m/z	relative intensity	assigned
65.0385	56	C5H5+
69.0333	11	C4H5O+
77.0385	62	C6H5+
79.0542	180	C6H7+
91.0542	395	C7H7+
93.0333	20	C6H5O+
95.0491	104	C6H7O+
103.0542	89	C8H7+
107.0491	125	C7H7O+
115.0543	36	C9H7+
117.07	11	C9H9+
121.0285	170	C7H5O2+
128.062	90	C10H8+
129.0698	28	C10H9+
141.0703	34	C11H9+
152.0621	50	C12H8+
153.0696	24	C12H9+
154.0776	51	C12H10+
164.062	56	C13H8+
165.0699	876	C13H9+
168.9643	15	C7H6Br+
175.0389	26	C10H7O3+
176.0625	16	C14H8+
177.0697	82	C14H9+
178.0777	999	C14H10+
179.0855	193	C14H11+
191.0857	25	C15H11+
215.085	45	C17H11+
226.0783	36	C18H10+
228.094	24	C18H12+
239.0856	354	C19H11+
240.0933	329	C19H12+
241.1012	434	C19H13+
242.9803	111	C13H8Br+
244.9954	17	C13H10Br+
252.0933	57	C20H12+
253.1012	167	C20H13+
254.1091	201	C20H14+
255.1168	276	C20H15+
256.124	11	C20H16+
