Mass spectrum: Pyraclostrobin; LC-ESI-ITFT; MS2; CE: 75%; R=7500; [M+H]+
Name: Pyraclostrobin
Name: methyl [2-({[1-(4-chlorophenyl)-1H-pyrazol-3-yl]oxy}methyl)phenyl]methoxycarbamate
Formula: C19H18ClN3O4
Exact mass: 387.0986
SMILES: c1(ccc(n2ccc(OCc3c(cccc3)N(OC)C(OC)=O)n2)cc1)Cl
InChI: InChI=1S/C19H18ClN3O4/c1-25-19(24)23(26-2)17-6-4-3-5-14(17)13-27-18-11-12-22(21-18)16-9-7-15(20)8-10-16/h3-12H,13H2,1-2H3
Instrument: LTQ Orbitrap XL Thermo Scientific
Instrument type: LC-ESI-ITFT
Ms type: MS2
Ion mode: POSITIVE
Ionization: ESI
Fragmentation mode: HCD
Collision energy: 75 % (nominal)
Resolution: 7500
Column name: XBridge C18 3.5um, 2.1x50mm, Waters
Retention time: 13.4 min
Base peak: 388.1064
Precursor m/z: 388.1059
Precursor type: [M+H]+
m/z	relative intensity	assigned
66.0464	19	C5H6+
77.0386	92	C6H5+
78.0464	42	C6H6+
79.0543	16	C6H7+
91.0413	19	C6H5N+
91.0543	135	C7H7+
92.0259	13	C6H4O+
92.0496	26	C6H6N+
94.0411	16	C6H6O+
104.0495	633	C7H6N+
105.0573	999	C7H7N+
106.0286	41	C6H4NO+
106.0652	158	C7H8N+
107.073	39	C7H9N+
108.0443	21	C6H6NO+
116.0499	30	C8H6N+
117.0574	32	C8H7N+
118.0651	108	C8H8N+
119.0366	396	C7H5NO+
120.0444	658	C7H6NO+
121.0647	184	C8H9O+
123.0681	38	C7H9NO+
128.0496	26	C9H6N+
130.0283	74	C8H4NO+
132.0444	685	C8H6NO+
133.0522	840	C8H7NO+
134.0238	95	C7H4NO2+
134.06	111	C8H8NO+
138.011	17	C7H5ClN+
139.0056	59	C6H4ClN2+
146.0599	19	C6H11ClN2+
148.0394	155	C8H6NO2+
149.0471	596	C8H7NO2+
162.0549	436	C9H8NO2+
163.0629	443	C9H9NO2+
218.0843	37	C15H10N2+
243.0771	36	C12H16ClO3+
253.0528	52	C15H10ClN2+
