Mass spectrum: Halosulfuron-Methyl; LC-ESI-QFT; MS2; CE: 120%; R=17500; [M+H]+
Name: Halosulfuron-Methyl
Name: methyl 3-chloro-5-[(4,6-dimethoxypyrimidin-2-yl)carbamoylsulfamoyl]-1-methylpyrazole-4-carboxylate
Formula: C13H15ClN6O7S
Exact mass: 434.0411
SMILES: CN1C(=C(C(=N1)Cl)C(=O)OC)S(=O)(=O)NC(=O)NC2=NC(=CC(=N2)OC)OC
InChI: InChI=1S/C13H15ClN6O7S/c1-20-10(8(9(14)18-20)11(21)27-4)28(23,24)19-13(22)17-12-15-6(25-2)5-7(16-12)26-3/h5H,1-4H3,(H2,15,16,17,19,22)
Instrument: Exploris 240 Orbitrap Thermo Scientific
Instrument type: LC-ESI-QFT
Ms type: MS2
Ion mode: POSITIVE
Ionization: ESI
Fragmentation mode: HCD
Collision energy: 120 % (nominal)
Resolution: 17500
Column name: XBridge C18 3.5um, 2.1x50mm, Waters
Retention time: 10.024 min
Base peak: 435.048
Precursor m/z: 435.0484
Precursor type: [M+H]+
m/z	relative intensity	assigned
53.0021	17	C3HO+
54.0338	23	C3H4N+
55.0176	9	C3H3O+
55.0291	28	C2H3N2+
56.0131	112	C2H2NO+
57.0447	22	C2H5N2+
58.0285	9	C2H4NO+
65.0134	30	C3HN2+
66.0212	8	C3H2N2+
67.0052	7	C3HNO+
68.0131	20	C3H2NO+
68.9971	89	C3HO2+
69.0083	55	C2HN2O+
69.9921	8	C2NO2+
70.0288	11	C3H4NO+
71.0603	68	C3H7N2+
79.0291	18	C4H3N2+
81.0445	38	C4H5N2+
82.0288	51	C4H4NO+
83.0239	999	C3H3N2O+
93.0083	288	C4HN2O+
94.016	14	C4H2N2O+
107.0237	20	C5H3N2O+
109.0398	14	C5H5N2O+
138.0299	15	C5H4N3O2+
139.0502	88	C6H7N2O2+
157.0607	9	C6H9N2O3+
