Mass spectrum: Lauroyl Lysine; LC-ESI-QFT; MS2; CE: 45%; R=17500; [M+H]+
Name: Lauroyl Lysine
Name: N6-Dodecanoyllysine
Name: 2-amino-6-(dodecanoylamino)hexanoic acid
Formula: C18H36N2O3
Exact mass: 328.2726
SMILES: CCCCCCCCCCCC(=O)NCCCCC(C(=O)O)N
InChI: InChI=1S/C18H36N2O3/c1-2-3-4-5-6-7-8-9-10-14-17(21)20-15-12-11-13-16(19)18(22)23/h16H,2-15,19H2,1H3,(H,20,21)(H,22,23)
Instrument: Exploris 240 Orbitrap Thermo Scientific
Instrument type: LC-ESI-QFT
Ms type: MS2
Ion mode: POSITIVE
Ionization: ESI
Fragmentation mode: HCD
Collision energy: 45 % (nominal)
Resolution: 17500
Column name: XBridge C18 3.5um, 2.1x50mm, Waters
Retention time: 12.161 min
Base peak: 329.2798
Precursor m/z: 329.2799
Precursor type: [M+H]+
m/z	relative intensity	assigned
57.0699	26	C4H9+
67.0544	3	C5H7+
71.0856	14	C5H11+
81.07	3	C6H9+
83.0855	3	C6H11+
84.0808	999	C5H10N+
85.1011	13	C6H13+
95.0856	13	C7H11+
101.1074	2	C5H13N2+
109.1011	8	C8H13+
112.0759	6	C6H10NO+
129.1023	23	C6H13N2O+
130.0862	168	C6H12NO2+
147.1128	49	C6H15N2O2+
