Mass spectrum: Oxacillin; LC-ESI-QFT; MS2; CE: 90; R=35000; [M+H]+
Name: Oxacillin
Name: (2S,5R,6R)-3,3-dimethyl-6-[(5-methyl-3-phenyl-1,2-oxazole-4-carbonyl)amino]-7-oxo-4-thia-1-azabicyclo[3.2.0]heptane-2-carboxylic acid
Formula: C19H19N3O5S
Exact mass: 401.10454
SMILES: CC1=C(C(=O)N[C@H]2[C@H]3SC(C)(C)[C@@H](N3C2=O)C(O)=O)C(=NO1)C1=CC=CC=C1
InChI: InChI=1S/C19H19N3O5S/c1-9-11(12(21-27-9)10-7-5-4-6-8-10)15(23)20-13-16(24)22-14(18(25)26)19(2,3)28-17(13)22/h4-8,13-14,17H,1-3H3,(H,20,23)(H,25,26)/t13-,14+,17-/m1/s1
Instrument: Q Exactive Plus Orbitrap Thermo Scientific
Instrument type: LC-ESI-QFT
Ms type: MS2
Ion mode: POSITIVE
Ionization: ESI
Fragmentation mode: HCD
Collision energy: 90 (nominal)
Resolution: 35000
Column name: XBridge C18 3.5um, 2.1x50mm, Waters
Retention time: 8.5 min
Base peak: 402.1116
Precursor m/z: 402.1118
Precursor type: [M+H]+
m/z	relative intensity	assigned
50.0151	33	C4H2+
51.0229	33	C4H3+
52.0182	1	C3H2N+
53.0386	346	C4H5+
54.0339	10	C3H4N+
55.0179	12	C3H3O+
55.0542	18	C4H7+
56.0495	2	C3H6N+
57.9872	2	C2H2S+
58.995	93	C2H3S+
59.0491	4	C3H7O+
59.9664	2	COS+
59.9902	1	CH2NS+
62.0059	11	CH4NS+
65.0387	9	C5H5+
67.0542	1	C5H7+
68.0131	4	C3H2NO+
68.0495	2	C4H6N+
68.9971	1	C3HO2+
69.0447	12	C3H5N2+
70.0651	268	C4H8N+
71.0491	14	C4H7O+
72.0807	2	C4H10N+
73.0106	1	C3H5S+
74.0058	1	C2H4NS+
75.0263	6	C3H7S+
77.0385	318	C6H5+
78.0339	1	C5H4N+
78.0463	9	C6H6+
79.0291	1	C4H3N2+
79.0544	1	C6H7+
80.0369	1	C4H4N2+
80.0494	11	C5H6N+
81.0335	23	C5H5O+
81.0447	48	C4H5N2+
81.0573	7	C5H7N+
82.0651	2	C5H8N+
85.0106	48	C4H5S+
86.0058	1	C3H4NS+
87.0263	795	C4H7S+
89.0386	84	C7H5+
90.0338	1	C6H4N+
91.0542	36	C7H7+
93.0448	2	C5H5N2+
93.0696	1	C7H9+
94.0413	13	C6H6O+
94.0651	5	C6H8N+
95.0492	785	C6H7O+
96.0444	1	C5H6NO+
98.06	15	C5H8NO+
99.0263	2	C5H7S+
99.0441	6	C5H7O2+
102.0464	4	C8H6+
103.0542	257	C8H7+
104.0495	28	C7H6N+
105.0448	451	C6H5N2+
107.0477	1	C5H5N3+
109.0396	1	C5H5N2O+
109.0649	2	C7H9O+
112.0215	5	C5H6NS+
113.0293	6	C5H7NS+
114.0373	999	C5H8NS+
115.0542	8	C9H7+
116.0495	321	C8H6N+
117.0574	13	C8H7N+
118.0651	43	C8H8N+
119.0492	1	C8H7O+
119.0605	2	C7H7N2+
128.0495	102	C9H6N+
129.0448	4	C8H5N2+
129.0573	5	C9H7N+
130.0652	148	C9H8N+
131.073	1	C9H9N+
133.0762	6	C8H9N2+
134.0599	1	C8H8NO+
140.0497	1	C10H6N+
142.0321	10	C6H8NOS+
142.0527	10	C9H6N2+
142.0652	46	C10H8N+
143.0604	5	C9H7N2+
143.0731	1	C10H9N+
144.0444	356	C9H6NO+
145.0759	2	C9H9N2+
146.06	62	C9H8NO+
154.065	1	C11H8N+
155.0603	13	C10H7N2+
156.068	6	C10H8N2+
157.0761	1	C10H9N2+
160.0427	5	C6H10NO2S+
169.0763	8	C11H9N2+
170.0602	5	C11H8NO+
188.0706	2	C11H10NO2+
196.0869	1	C12H10N3+
