Mass spectrum: Azole-TP 1,2,4 triazole acetic acid; LC-ESI-QFT; MS2; CE: 45%; R=17500; [M-H]-
Name: Azole-TP 1,2,4 triazole acetic acid
Name: 1,2,4-Triazole-1-acetic acid
Name: 2-(1,2,4-triazol-1-yl)acetic acid
Formula: C4H5N3O2
Exact mass: 127.0382
SMILES: OC(=O)CN1C=NC=N1
InChI: InChI=1S/C4H5N3O2/c8-4(9)1-7-3-5-2-6-7/h2-3H,1H2,(H,8,9)
Instrument: Q Exactive Orbitrap Thermo Scientific
Instrument type: LC-ESI-QFT
Ms type: MS2
Ion mode: NEGATIVE
Ionization: ESI
Fragmentation mode: HCD
Collision energy: 45 % (nominal)
Resolution: 17500
Column name: XBridge C18 3.5um, 2.1x50mm, Waters
Retention time: 0.929 min
Base peak: 126.0308
Precursor m/z: 126.0309
Precursor type: [M-H]-
m/z	relative intensity	assigned
55.0301	38	C2H3N2-
68.0255	569	C2H2N3-
82.0411	999	C3H4N3-
126.0309	125	C4H4N3O2-
