Mass spectrum: Nateglinide; LC-ESI-QFT; MS2; CE: 60; R=35000; [M+H]+
Name: Nateglinide
Formula: C19H27NO3
Exact mass: 317.19909
SMILES: CC([C@H]1CC[C@@H](CC1)C(=O)N[C@@H](C(=O)O)CC2=CC=CC=C2)C
InChI: InChI=1S/C19H27NO3/c1-13(2)15-8-10-16(11-9-15)18(21)20-17(19(22)23)12-14-6-4-3-5-7-14/h3-7,13,15-17H,8-12H2,1-2H3,(H,20,21)(H,22,23)/t15-,16-,17-/m1/s1
Instrument: Q Exactive Orbitrap Thermo Scientific
Instrument type: LC-ESI-QFT
Ms type: MS2
Ion mode: POSITIVE
Ionization: ESI
Fragmentation mode: HCD
Collision energy: 60 (nominal)
Resolution: 35000
Column name: XBridge C18 3.5um, 2.1x50mm, Waters
Retention time: 13.7 min
Base peak: 318.2065
Precursor m/z: 318.2064
Precursor type: [M+H]+
m/z	relative intensity	assigned
53.0024	1	C3HO+
55.0543	1	C4H7+
57.0699	40	C4H9+
67.0542	16	C5H7+
67.9893	2	C3O2+
69.0699	999	C5H9+
79.0543	2	C6H7+
81.07	2	C6H9+
83.0855	275	C6H11+
91.0542	3	C7H7+
93.0698	10	C7H9+
95.0491	1	C6H7O+
103.0543	39	C8H7+
107.0492	8	C7H7O+
120.0808	588	C8H10N+
125.1325	11	C9H17+
131.0492	11	C9H7O+
149.0598	2	C9H9O2+
166.0863	5	C9H12NO2+
