Mass spectrum: Tembotrione; LC-ESI-QFT; MS2; CE: 60; R=35000; [M-H]-
Name: Tembotrione
Name: 2-{2-Chloro-4-(methylsulfonyl)-3-[(2,2,2-trifluoroethoxy)methyl]benzoyl}-1,3-cyclohexanedione
Formula: C17H16ClF3O6S
Exact mass: 440.03082
SMILES: O=C(c1ccc(c(c1Cl)COCC(F)(F)F)S(=O)(=O)C)C2C(=O)CCCC2=O
InChI: InChI=1S/C17H16ClF3O6S/c1-28(25,26)13-6-5-9(15(18)10(13)7-27-8-17(19,20)21)16(24)14-11(22)3-2-4-12(14)23/h5-6,14H,2-4,7-8H2,1H3
Instrument: Q Exactive Orbitrap Thermo Scientific
Instrument type: LC-ESI-QFT
Ms type: MS2
Ion mode: NEGATIVE
Ionization: ESI
Fragmentation mode: HCD
Collision energy: 60 (nominal)
Resolution: 35000
Column name: XBridge C18 3.5um, 2.1x50mm, Waters
Retention time: 9.9 min
Base peak: 439.0241
Precursor m/z: 439.0235
Precursor type: [M-H]-
m/z	relative intensity	assigned
63.9623	19	O2S-
65.0396	2	C5H5-
67.0189	4	C4H3O-
68.9957	68	CF3-
78.9859	24	CH3O2S-
79.0001	4	C2HF2O-
91.019	2	C6H3O-
92.0267	3	C6H4O-
93.0346	69	C6H5O-
99.0063	29	C2H2F3O-
117.0346	12	C8H5O-
119.0502	14	C8H7O-
130.0423	4	C9H6O-
139.0554	3	C11H7-
141.0711	17	C11H9-
143.0502	28	C10H7O-
145.0293	4	C9H5O2-
153.0706	3	C12H9-
156.0583	10	C11H8O-
157.0658	2	C11H9O-
161.0244	75	C9H5O3-
167.0501	11	C12H7O-
167.0866	2	C13H11-
169.0659	124	C12H9O-
170.0374	12	C11H6O2-
170.0739	3	C12H10O-
171.0453	20	C11H7O2-
172.0533	12	C11H8O2-
181.0661	4	C13H9O-
182.0371	2	C12H6O2-
182.074	19	C13H10O-
183.0451	32	C12H7O2-
183.0815	11	C13H11O-
184.0531	102	C12H8O2-
185.061	23	C12H9O2-
193.0659	14	C14H9O-
195.0453	9	C13H7O2-
195.0815	51	C14H11O-
196.0528	9	C13H8O2-
197.0608	257	C13H9O2-
198.0321	2	C12H6O3-
198.0688	24	C13H10O2-
199.0399	4	C10H9F2S-
209.0609	17	C14H9O2-
211.0403	17	C13H7O3-
211.0766	37	C14H11O2-
213.0558	67	C13H9O3-
215.0345	14	
216.043	8	C12H8O4-
221.061	4	C15H9O2-
222.0682	17	C15H10O2-
223.0402	10	C14H7O3-
223.076	2	C15H11O2-
224.0479	70	C14H8O3-
225.0558	147	C14H9O3-
226.0636	999	C14H10O3-
227.0346	2	C11H9F2OS-
237.0557	22	C15H9O3-
238.0636	149	C15H10O3-
239.035	12	C14H7O4-
239.0713	115	C15H11O3-
240.0792	99	C15H12O3-
241.0503	13	C12H11F2OS-
241.087	11	C15H13O3-
243.0119	18	C13H7O3S-
255.0666	8	C15H11O4-
256.0381	3	C14H8O5-
258.0534	115	C14H10O5-
261.0228	4	C13H9O4S-
263.0384	15	C13H11O4S-
271.0074	37	C14H7O4S-
272.0691	10	C15H12O5-
305.0482	4	C15H13O5S-
