Mass spectrum: Benalaxyl; LC-ESI-QFT; MS2; CE: 60; R=35000; [M+H]+
Name: Benalaxyl
Name: 2-(2,6-dimethyl-N-(1-oxo-2-phenylethyl)anilino)propanoic acid methyl ester
Formula: C20H23NO3
Exact mass: 325.16779
SMILES: O=C(N(c1c(cccc1C)C)C(C(=O)OC)C)Cc2ccccc2
InChI: InChI=1S/C20H23NO3/c1-14-9-8-10-15(2)19(14)21(16(3)20(23)24-4)18(22)13-17-11-6-5-7-12-17/h5-12,16H,13H2,1-4H3
Instrument: Q Exactive Orbitrap Thermo Scientific
Instrument type: LC-ESI-QFT
Ms type: MS2
Ion mode: POSITIVE
Ionization: ESI
Fragmentation mode: HCD
Collision energy: 60 (nominal)
Resolution: 35000
Column name: XBridge C18 3.5um, 2.1x50mm, Waters
Retention time: 13.0 min
Base peak: 326.1754
Precursor m/z: 326.1751
Precursor type: [M+H]+
m/z	relative intensity	assigned
65.0386	13	C5H5+
91.0543	852	C7H7+
103.054	1	C8H7+
105.07	7	C8H9+
106.0652	13	C7H8N+
107.073	3	C7H9N+
118.0653	3	C8H8N+
119.0858	4	C9H11+
120.0808	9	C8H10N+
121.0887	517	C8H11N+
122.0964	29	C8H12N+
131.0856	4	C10H11+
132.0809	1	C9H10N+
133.0887	9	C9H11N+
146.0962	2	C10H12N+
148.1122	999	C10H14N+
196.1117	1	C14H14N+
208.1335	16	C12H18NO2+
