Mass spectrum: Metribuzin; LC-ESI-ITFT; MS2; CE: 30%; R=15000; [M+H]+
Name: Metribuzin
Name: 1,2,4-Triazin-5(4H)-one, 4-amino-6-(1,1-dimethylethyl)-3-(methylthio)-
Name: 4-amino-6-tert-butyl-3-(methylthio)-1,2,4-triazin-5-one
Formula: C8H14N4OS
Exact mass: 214.0883
SMILES: S(C)C(=NN=C1C(C)(C)C)N(N)C1=O
InChI: InChI=1S/C8H14N4OS/c1-8(2,3)5-6(13)12(9)7(14-4)11-10-5/h9H2,1-4H3
Instrument: LTQ Orbitrap XL Thermo Scientific
Instrument type: LC-ESI-ITFT
Ms type: MS2
Ion mode: POSITIVE
Ionization: ESI
Fragmentation mode: HCD
Collision energy: 30 % (nominal)
Resolution: 15000
Column name: XBridge C18 3.5um, 2.1x50mm, Waters
Retention time: 6.9 min
Base peak: 215.0964
Precursor m/z: 215.0961
Precursor type: [M+H]+
m/z	relative intensity	assigned
57.0696	1	C4H9+
74.0058	1	C2H4NS+
84.0808	1	C5H10N+
89.017	1	C2H5N2S+
114.9961	2	C3H3N2OS+
131.0274	3	C4H7N2OS+
171.0589	2	C7H11N2OS+
186.0821	6	C8H14N2OS+
187.1012	50	C7H15N4S+
200.073	1	C7H12N4OS+
215.0962	999	C8H15N4OS+
