Mass spectrum: Dexamethasone; LC-ESI-ITFT; MS2; CE: 15%; R=15000; [M+H]+
Name: Dexamethasone
Name: (8S,9R,10S,11S,13S,14S,16R,17R)-9-fluoranyl-10,13,16-trimethyl-11,17-bis(oxidanyl)-17-(2-oxidanylethanoyl)-6,7,8,11,12,14,15,16-octahydrocyclopenta[a]phenanthren-3-one
Formula: C22H29FO5
Exact mass: 392.1999
SMILES: [H][C@@]12C[C@@H](C)[C@](O)(C(=O)CO)[C@@]1(C)C[C@H](O)[C@@]3(F)[C@@]2([H])CCC4=CC(=O)C=C[C@]34C
InChI: InChI=1S/C22H29FO5/c1-12-8-16-15-5-4-13-9-14(25)6-7-19(13,2)21(15,23)17(26)10-20(16,3)22(12,28)18(27)11-24/h6-7,9,12,15-17,24,26,28H,4-5,8,10-11H2,1-3H3/t12-,15+,16+,17+,19+,20+,21+,22+/m1/s1
Instrument: LTQ Orbitrap XL Thermo Scientific
Instrument type: LC-ESI-ITFT
Ms type: MS2
Ion mode: POSITIVE
Ionization: ESI
Fragmentation mode: HCD
Collision energy: 15 % (nominal)
Resolution: 15000
Column name: XBridge C18 3.5um, 2.1x50mm, Waters
Retention time: 9.5 min
Base peak: 393.2068
Precursor m/z: 393.2072
Precursor type: [M+H]+
m/z	relative intensity	assigned
123.0804	8	C8H11O+
147.0805	38	C10H11O+
149.0959	15	C10H13O+
153.0915	8	C9H13O2+
159.0808	5	C11H11O+
161.096	10	C11H13O+
171.0803	13	C12H11O+
173.0956	7	C12H13O+
177.0914	15	C11H13O2+
185.0957	10	C13H13O+
187.1116	7	C13H15O+
195.1017	10	C11H15O3+
225.1267	10	C16H17O+
237.1275	86	C17H17O+
239.1427	11	C17H19O+
241.1224	7	C16H17O2+
253.1217	15	C17H17O2+
255.1376	9	C17H19O2+
267.1384	15	C18H19O2+
267.1742	22	C19H23O+
275.1436	14	C20H19O+
277.1584	43	C20H21O+
279.1741	74	C20H23O+
281.1901	11	C20H25O+
289.1585	8	C21H21O+
291.1744	82	C21H23O+
295.1688	21	C20H23O2+
297.1856	29	C20H25O2+
301.1588	32	C22H21O+
307.1691	40	C21H23O2+
309.1852	95	C21H25O2+
319.1696	142	C22H23O2+
325.1801	55	C21H25O3+
327.1956	30	C21H27O3+
337.1799	269	C22H25O3+
355.1905	593	C22H27O4+
373.201	999	C22H29O5+
393.2068	207	C22H30FO5+
