Mass spectrum: Simeton; LC-ESI-ITFT; MS2; CE: 75%; R=15000; [M+H]+
Name: Simeton
Name: 2-N,4-N-diethyl-6-methoxy-1,3,5-triazine-2,4-diamine
Formula: C8H15N5O
Exact mass: 197.1271
SMILES: c1(nc(nc(n1)OC)NCC)NCC
InChI: InChI=1S/C8H15N5O/c1-4-9-6-11-7(10-5-2)13-8(12-6)14-3/h4-5H2,1-3H3,(H2,9,10,11,12,13)
Instrument: LTQ Orbitrap XL Thermo Scientific
Instrument type: LC-ESI-ITFT
Ms type: MS2
Ion mode: POSITIVE
Ionization: ESI
Fragmentation mode: HCD
Collision energy: 75 % (nominal)
Resolution: 15000
Column name: XBridge C18 3.5um, 2.1x50mm, Waters
Retention time: 4.9 min
Base peak: 198.1352
Precursor m/z: 198.1349
Precursor type: [M+H]+
m/z	relative intensity	assigned
57.0447	158	C2H5N2+
58.0287	35	C2H4NO+
68.0243	608	C2H2N3+
69.0083	313	C2HN2O+
71.0604	326	C3H7N2+
75.0552	34	C2H7N2O+
82.04	16	C3H4N3+
83.024	34	C3H3N2O+
85.076	116	C4H9N2+
86.0349	30	C2H4N3O+
96.0556	548	C4H6N3+
97.0396	79	C4H5N2O+
100.0506	999	C3H6N3O+
103.0865	8	C4H11N2O+
110.0712	9	C5H8N3+
113.0822	11	C4H9N4+
114.0662	207	C4H8N3O+
124.0869	542	C6H10N3+
128.0819	685	C5H10N3O+
138.0777	8	C5H8N5+
142.0723	50	C4H8N5O+
142.0976	12	C6H12N3O+
153.0769	5	C6H9N4O+
166.1089	32	C7H12N5+
170.1036	182	C6H12N5O+
196.1193	9	C8H14N5O+
198.135	292	C8H16N5O+
