Mass spectrum: Glycyrrhetinic Acid; LC-ESI-QFT; MS2; CE: 60; R=35000; [M+H]+
Name: Glycyrrhetinic Acid
Name: 18-beta-Glycyrrhetin acid
Name: (2S,4aS,6aR,6aS,6bR,8aR,10S,12aS,14bR)-10-hydroxy-2,4a,6a,6b,9,9,12a-heptamethyl-13-oxo-3,4,5,6,6a,7,8,8a,10,11,12,14b-dodecahydro-1H-picene-2-carboxylic acid
Formula: C30H46O4
Exact mass: 470.33961
SMILES: C[C@]1([C@H](CC[C@]2([C@H]1CC[C@@]3([C@@H]2C(=O)C=C4[C@]3(CC[C@@]5([C@H]4C[C@](CC5)(C(=O)O)C)C)C)C)C)O)C
InChI: InChI=1S/C30H46O4/c1-25(2)21-8-11-30(7)23(28(21,5)10-9-22(25)32)20(31)16-18-19-17-27(4,24(33)34)13-12-26(19,3)14-15-29(18,30)6/h16,19,21-23,32H,8-15,17H2,1-7H3,(H,33,34)/t19-,21-,22-,23+,26+,27-,28-,29+,30+/m0/s1
Instrument: Q Exactive Plus Orbitrap Thermo Scientific
Instrument type: LC-ESI-QFT
Ms type: MS2
Ion mode: POSITIVE
Ionization: ESI
Fragmentation mode: HCD
Collision energy: 60 (nominal)
Resolution: 35000
Column name: XBridge C18 3.5um, 2.1x50mm, Waters
Retention time: 16.9 min
Base peak: 471.3465
Precursor m/z: 471.3469
Precursor type: [M+H]+
m/z	relative intensity	assigned
51.0228	3	C4H3+
53.0022	7	C3HO+
53.0385	14	C4H5+
55.0179	9	C3H3O+
55.0542	160	C4H7+
57.0335	25	C3H5O+
57.0699	55	C4H9+
59.0491	19	C3H7O+
65.0385	15	C5H5+
67.0542	238	C5H7+
67.9893	2	C3O2+
69.0335	88	C4H5O+
69.0699	198	C5H9+
71.0491	28	C4H7O+
71.0855	7	C5H11+
73.0648	3	C4H9O+
77.0384	14	C6H5+
79.0542	203	C6H7+
81.0699	613	C6H9+
83.0491	236	C5H7O+
83.0855	100	C6H11+
85.0648	31	C5H9O+
91.0542	181	C7H7+
93.0699	587	C7H9+
95.0492	87	C6H7O+
95.0855	967	C7H11+
97.0648	102	C6H9O+
97.1012	44	C7H13+
99.0804	9	C6H11O+
103.0543	7	C8H7+
105.0699	416	C8H9+
107.0855	999	C8H11+
109.0648	118	C7H9O+
109.1012	467	C8H13+
111.0804	74	C7H11O+
113.0596	1	C6H9O2+
113.0961	3	C7H13O+
115.0541	3	C9H7+
116.0621	6	C9H8+
117.0699	39	C9H9+
118.0778	1	C9H10+
119.0856	792	C9H11+
120.0933	7	C9H12+
121.0648	106	C8H9O+
121.1012	888	C9H13+
123.0804	102	C8H11O+
123.1168	228	C9H15+
125.0598	11	C7H9O2+
125.0961	47	C8H13O+
127.0753	2	C7H11O2+
128.0616	6	C10H8+
129.0699	23	C10H9+
130.0778	7	C10H10+
131.0856	158	C10H11+
132.0933	2	C10H12+
133.1012	519	C10H13+
134.1092	2	C10H14+
135.0804	330	C9H11O+
135.1168	537	C10H15+
137.0961	60	C9H13O+
137.1325	47	C10H17+
139.0754	8	C8H11O2+
139.1118	80	C9H15O+
141.0698	3	C11H9+
141.0909	5	C8H13O2+
142.0778	10	C11H10+
143.0856	70	C11H11+
144.0934	12	C11H12+
145.1012	225	C11H13+
146.0726	2	C10H10O+
146.1091	8	C11H14+
147.0805	36	C10H11O+
147.1168	322	C11H15+
149.0962	946	C10H13O+
149.1325	94	C11H17+
151.0754	3	C9H11O2+
151.1117	42	C10H15O+
153.0908	7	C9H13O2+
153.1276	14	C10H17O+
155.0855	29	C12H11+
156.0934	17	C12H12+
157.1012	170	C12H13+
158.109	12	C12H14+
159.0804	26	C11H11O+
159.1168	229	C12H15+
160.1247	17	C12H16+
161.0961	99	C11H13O+
161.1325	214	C12H17+
163.1117	88	C11H15O+
163.1481	46	C12H19+
165.0694	1	C13H9+
165.0913	6	C10H13O2+
165.1274	13	C11H17O+
167.1066	13	C10H15O2+
169.1012	43	C13H13+
170.1088	7	C13H14+
171.1168	138	C13H15+
172.1246	9	C13H16+
173.096	38	C12H13O+
173.1326	357	C13H17+
174.1042	1	C12H14O+
174.1404	3	C13H18+
175.1118	80	C12H15O+
175.1482	294	C13H19+
177.1275	28	C12H17O+
177.1638	35	C13H21+
179.1066	7	C11H15O2+
179.143	2	C12H19O+
181.1012	2	C14H13+
181.1218	1	C11H17O2+
182.109	15	C14H14+
183.117	47	C14H15+
184.125	11	C14H16+
185.1325	68	C14H17+
186.1036	1	C13H14O+
187.1119	14	C13H15O+
187.1481	115	C14H19+
189.1274	46	C13H17O+
189.1638	342	C14H21+
191.143	25	C13H19O+
191.1792	11	C14H23+
193.1007	2	C15H13+
193.1226	2	C12H17O2+
193.1588	5	C13H21O+
195.1169	9	C15H15+
196.1247	8	C15H16+
197.1325	96	C15H17+
198.1403	7	C15H18+
199.1482	141	C15H19+
201.1276	28	C14H17O+
201.1638	44	C15H21+
203.1065	2	C13H15O2+
203.1432	22	C14H19O+
203.1794	9	C15H23+
205.1223	7	C13H17O2+
205.1588	7	C14H21O+
207.1744	3	C14H23O+
209.1324	14	C16H17+
210.1404	7	C16H18+
211.1482	77	C16H19+
212.1559	3	C16H20+
213.1638	87	C16H21+
215.1431	131	C15H19O+
215.1794	28	C16H23+
217.1588	62	C15H21O+
217.195	3	C16H25+
219.1383	12	C14H19O2+
221.1537	3	C14H21O2+
223.148	13	C17H19+
224.1558	8	C17H20+
225.1639	24	C17H21+
227.143	7	C16H19O+
227.1795	41	C17H23+
228.1875	3	C17H24+
229.1586	24	C16H21O+
229.1951	24	C17H25+
231.1744	13	C16H23O+
233.1536	3	C15H21O2+
235.1489	1	C18H19+
235.1694	29	C15H23O2+
237.1635	7	C18H21+
238.1716	9	C18H22+
239.1795	27	C18H23+
241.1951	24	C18H25+
243.1379	8	C16H19O2+
243.1744	8	C17H23O+
243.211	25	C18H27+
245.1536	17	C16H21O2+
245.1896	12	C17H25O+
247.1683	2	C16H23O2+
251.1791	6	C19H23+
252.187	3	C19H24+
253.1951	74	C19H25+
255.1744	5	C18H23O+
255.2111	11	C19H27+
257.1535	6	C17H21O2+
257.1899	20	C18H25O+
259.1689	5	C17H23O2+
259.2053	1	C18H27O+
261.1485	33	C16H21O3+
263.1636	2	C16H23O3+
265.1952	6	C20H25+
267.2108	24	C20H27+
271.2057	58	C19H27O+
273.1847	3	C18H25O2+
275.1639	8	C17H23O3+
275.2008	6	C18H27O2+
277.1807	1	C17H25O3+
279.2099	2	C21H27+
281.2253	2	C21H29+
283.2055	1	C20H27O+
285.1857	5	C19H25O2+
285.2215	7	C20H29O+
287.1641	2	C18H23O3+
287.2008	3	C19H27O2+
289.2165	2	C19H29O2+
291.1949	2	C18H27O3+
293.227	1	C22H29+
297.2221	1	C21H29O+
299.2009	18	C20H27O2+
301.1803	1	C19H25O3+
303.195	3	C19H27O3+
313.2162	9	C21H29O2+
317.2111	33	C20H29O3+
327.2321	1	C22H31O2+
407.3312	2	C29H43O+
