Mass spectrum: Levamisole; LC-ESI-ITFT; MS2; CE: 45%; R=15000; [M+H]+
Name: Levamisole
Name: (6S)-6-phenyl-2,3,5,6-tetrahydroimidazo[2,1-b][1,3]thiazole
Formula: C11H12N2S
Exact mass: 204.0721
SMILES: c1([C@H]2CN3CCSC3=N2)ccccc1
InChI: InChI=1S/C11H12N2S/c1-2-4-9(5-3-1)10-8-13-6-7-14-11(13)12-10/h1-5,10H,6-8H2/t10-/m1/s1
Instrument: LTQ Orbitrap XL Thermo Scientific
Instrument type: LC-ESI-ITFT
Ms type: MS2
Ion mode: POSITIVE
Ionization: ESI
Fragmentation mode: HCD
Collision energy: 45 % (nominal)
Resolution: 15000
Column name: XBridge C18 3.5um, 2.1x50mm, Waters
Retention time: 2.9 min
Base peak: 205.0801
Precursor m/z: 205.0794
Precursor type: [M+H]+
m/z	relative intensity	assigned
88.0216	9	C3H6NS+
91.0539	2	C7H7+
105.0699	1	C8H9+
117.0698	2	C9H9+
118.0651	2	C8H8N+
123.0263	1	C7H7S+
129.0698	6	C10H9+
145.076	5	C9H9N2+
146.0965	18	C10H12N+
150.037	1	C8H8NS+
178.0685	122	C10H12NS+
188.053	4	C11H10NS+
205.0795	999	C11H13N2S+
