Mass spectrum: 4`-Hydroxy Diclofenac; LC-ESI-QFT; MS2; CE: 75; R=35000; [M-H]-
Name: 4`-Hydroxy Diclofenac
Name: 4`-hydroxydiclofenac
Name: 2-[2-(2,6-dichloro-4-hydroxyanilino)phenyl]acetic acid
Formula: C14H11Cl2NO3
Exact mass: 311.01160
SMILES: C1=CC=C(C(=C1)CC(=O)O)NC2=C(C=C(C=C2Cl)O)Cl
InChI: InChI=1S/C14H11Cl2NO3/c15-10-6-9(18)7-11(16)14(10)17-12-4-2-1-3-8(12)5-13(19)20/h1-4,6-7,17-18H,5H2,(H,19,20)
Instrument: Q Exactive Plus Orbitrap Thermo Scientific
Instrument type: LC-ESI-QFT
Ms type: MS2
Ion mode: NEGATIVE
Ionization: ESI
Fragmentation mode: HCD
Collision energy: 75 (nominal)
Resolution: 35000
Column name: XBridge C18 3.5um, 2.1x50mm, Waters
Retention time: 10.1 min
Base peak: 310.0043
Precursor m/z: 310.0043
Precursor type: [M-H]-
m/z	relative intensity	assigned
50.0035	9	C3N-
115.0554	57	C9H7-
124.9799	8	C6H2ClO-
140.0507	93	C10H6N-
160.9569	29	C6H3Cl2O-
164.0506	62	C12H6N-
165.0585	7	C12H7N-
166.0662	999	C12H8N-
168.0457	21	C11H6NO-
179.0381	46	C12H5NO-
184.0769	17	C12H10NO-
192.0458	9	C13H6NO-
193.0535	87	C13H7NO-
194.0612	123	C13H8NO-
215.0144	7	C12H6ClNO-
228.0224	23	C13H7ClNO-
229.03	86	C13H8ClNO-
230.0384	7	C13H9ClNO-
