Mass spectrum: CGA62826 (2-[2,6-dimethylphenyl)-methoxyacetylamino]propionic acid; LC-ESI-QFT; MS2; CE: 120; R=35000; [M-H]-
Name: CGA62826 (2-[2,6-dimethylphenyl)-methoxyacetylamino]propionic acid
Name: N-(2,6-Dimethylphenyl)-N-(methoxyacetyl)-L-alanine
Name: (2S)-2-(N-(2-methoxyacetyl)-2,6-dimethylanilino)propanoic acid
Formula: C14H19NO4
Exact mass: 265.13141
SMILES: Cc1cccc(c1N([C@@H](C)C(=O)O)C(=O)COC)C
InChI: InChI=1S/C14H19NO4/c1-9-6-5-7-10(2)13(9)15(11(3)14(17)18)12(16)8-19-4/h5-7,11H,8H2,1-4H3,(H,17,18)/t11-/m0/s1
Instrument: Q Exactive Plus Orbitrap Thermo Scientific
Instrument type: LC-ESI-QFT
Ms type: MS2
Ion mode: NEGATIVE
Ionization: ESI
Fragmentation mode: HCD
Collision energy: 120 (nominal)
Resolution: 35000
Column name: XBridge C18 3.5um, 2.1x50mm, Waters
Retention time: 7.8 min
Base peak: 264.1239
Precursor m/z: 264.1241
Precursor type: [M-H]-
m/z	relative intensity	assigned
55.0189	67	C3H3O-
57.0346	54	C3H5O-
71.0139	2	C3H3O2-
85.0295	33	C4H5O2-
88.0405	2	C3H6NO2-
89.0245	21	C3H5O3-
90.0349	3	C6H4N-
106.0426	2	C7H6O-
114.0349	27	C8H4N-
115.0428	17	C8H5N-
116.0507	24	C8H6N-
120.0819	26	C8H10N-
121.0659	46	C8H9O-
128.0504	5	C9H6N-
129.0584	101	C9H7N-
130.0662	999	C9H8N-
131.0376	49	C8H5NO-
143.0741	53	C10H9N-
144.0819	187	C10H10N-
145.0533	31	C9H7NO-
146.0613	71	C9H8NO-
158.0611	80	C10H8NO-
161.0482	8	C9H7NO2-
175.0639	11	C10H9NO2-
