Mass spectrum: Flonicamid; LC-ESI-ITFT; MS2; CE: 60%; R=15000; [M+H]+
Name: Flonicamid
Name: N-(cyanomethyl)-4-(trifluoromethyl)-3-pyridinecarboxamide
Formula: C9H6F3N3O
Exact mass: 229.0463
SMILES: O=C(NCC#N)c1cnccc1C(F)(F)F
InChI: InChI=1S/C9H6F3N3O/c10-9(11,12)7-1-3-14-5-6(7)8(16)15-4-2-13/h1,3,5H,4H2,(H,15,16)
Instrument: LTQ Orbitrap XL Thermo Scientific
Instrument type: LC-ESI-ITFT
Ms type: MS2
Ion mode: POSITIVE
Ionization: ESI
Fragmentation mode: HCD
Collision energy: 60 % (nominal)
Resolution: 15000
Column name: XBridge C18 3.5um, 2.1x50mm, Waters
Retention time: 3.9 min
Base peak: 230.0537
Precursor m/z: 230.0536
Precursor type: [M+H]+
m/z	relative intensity	assigned
79.0416	3	C5H5N+
83.0239	1	C3H3N2O+
98.04	68	C5H5FN+
101.0198	5	C5H3F2+
126.035	18	C6H5FNO+
128.0306	88	C6H4F2N+
129.0384	64	C6H5F2N+
131.0239	17	C7H3N2O+
134.0474	45	C7H6N2O+
135.0353	15	C7H4FN2+
136.043	4	C7H5FN2+
140.0306	4	C7H4F2N+
144.0255	38	C6H4F2NO+
146.0212	126	C6H3F3N+
147.029	31	C6H4F3N+
148.0368	999	C6H5F3N+
151.0305	2	C7H4FN2O+
153.0459	8	C7H6FN2O+
155.0415	86	C7H5F2N2+
156.0256	6	C7H4F2NO+
160.037	2	C7H5F3N+
160.0504	1	C8H6N3O+
161.045	1	C7H6F3N+
162.0461	6	C8H5FN3+
163.0301	9	C8H4FN2O+
164.0317	10	C6H5F3NO+
173.032	6	C7H4F3N2+
174.0162	711	C7H3F3NO+
175.0477	40	C7H6F3N2+
176.0318	661	C7H5F3NO+
179.0188	24	C6H4F3NO2+
181.0405	5	C3H5F2N5O2+
183.0364	364	C8H5F2N2O+
185.0322	7	C8H4F3N2+
190.0409	3	C9H5FN3O+
192.0269	4	C7H5F3NO2+
201.0274	2	C8H4F3N2O+
203.0428	992	C8H6F3N2O+
213.0272	2	C9H4F3N2O+
230.0536	129	C9H7F3N3O+
