Mass spectrum: 1-(3-Chlorophenyl)piperazine; LC-ESI-ITFT; MS2; CE: 45%; R=15000; [M+H]+
Name: 1-(3-Chlorophenyl)piperazine
Formula: C10H13ClN2
Exact mass: 196.0767
SMILES: c1c(Cl)cccc1N1CCNCC1
InChI: InChI=1S/C10H13ClN2/c11-9-2-1-3-10(8-9)13-6-4-12-5-7-13/h1-3,8,12H,4-7H2
Instrument: LTQ Orbitrap XL Thermo Scientific
Instrument type: LC-ESI-ITFT
Ms type: MS2
Ion mode: POSITIVE
Ionization: ESI
Fragmentation mode: HCD
Collision energy: 45 % (nominal)
Resolution: 15000
Column name: XBridge C18 3.5um, 2.1x50mm, Waters
Retention time: 5.2 min
Base peak: 197.0847
Precursor m/z: 197.084
Precursor type: [M+H]+
m/z	relative intensity	assigned
70.0651	5	C4H8N+
118.065	4	C8H8N+
119.073	44	C8H9N+
140.026	2	C7H7ClN+
145.0887	2	C10H11N+
152.0261	5	C8H7ClN+
154.0419	313	C8H9ClN+
168.0579	1	C9H11ClN+
180.0575	11	C10H11ClN+
195.0685	35	C10H12ClN2+
197.0842	999	C10H14ClN2+
