Mass spectrum: Nicosulfuron-TP AUSN; LC-ESI-QFT; MS2; CE: 150%; R=17500; [M+H]+
Name: Nicosulfuron-TP AUSN
Name: 2-(diaminomethylidenecarbamoylsulfamoyl)-N,N-dimethylpyridine-3-carboxamide
Formula: C10H14N6O4S
Exact mass: 314.0797
SMILES: CN(C)C(=O)C1=CC=CN=C1S(=O)(=O)NC(=O)NC(N)=N
InChI: InChI=1S/C10H14N6O4S/c1-16(2)8(17)6-4-3-5-13-7(6)21(19,20)15-10(18)14-9(11)12/h3-5H,1-2H3,(H5,11,12,14,15,18)
Instrument: Q Exactive Plus Orbitrap Thermo Scientific
Instrument type: LC-ESI-QFT
Ms type: MS2
Ion mode: POSITIVE
Ionization: ESI
Fragmentation mode: HCD
Collision energy: 150 % (nominal)
Resolution: 17500
Column name: XBridge C18 3.5um, 2.1x50mm, Waters
Retention time: 1.371 min
Base peak: 315.087
Precursor m/z: 315.087
Precursor type: [M+H]+
m/z	relative intensity	assigned
50.0151	201	C4H2+
51.023	671	C4H3+
52.0182	15	C3H2N+
55.0178	5	C3H3O+
60.0557	20	CH6N3+
64.0182	44	C4H2N+
65.0022	14	C4HO+
65.0386	16	C5H5+
69.0083	999	C2HN2O+
78.0338	688	C5H4N+
81.0448	8	C4H5N2+
82.0285	11	C4H4NO+
86.0348	36	C2H4N3O+
96.0443	47	C5H6NO+
