Mass spectrum: Exemestane; LC-ESI-ITFT; MS2; CE: 75%; R=7500; [M+H]+
Name: Exemestane
Name: (8R,9S,10R,13S,14S)-10,13-dimethyl-6-methylene-7,8,9,11,12,14,15,16-octahydrocyclopenta[a]phenanthrene-3,17-dione
Formula: C20H24O2
Exact mass: 296.1776
SMILES: CC12CCC3C(C1CCC2=O)CC(=C)C4=CC(=O)C=CC34C
InChI: InChI=1S/C20H24O2/c1-12-10-14-15-4-5-18(22)20(15,3)9-7-16(14)19(2)8-6-13(21)11-17(12)19/h6,8,11,14-16H,1,4-5,7,9-10H2,2-3H3/t14-,15-,16-,19+,20-/m0/s1
Instrument: LTQ Orbitrap XL Thermo Scientific
Instrument type: LC-ESI-ITFT
Ms type: MS2
Ion mode: POSITIVE
Ionization: ESI
Fragmentation mode: HCD
Collision energy: 75 % (nominal)
Resolution: 7500
Column name: XBridge C18 3.5um, 2.1x50mm, Waters
Retention time: 10.1 min
Base peak: 297.1859
Precursor m/z: 297.1849
Precursor type: [M+H]+
m/z	relative intensity	assigned
67.0542	73	C5H7+
77.0386	101	C6H5+
79.0542	620	C6H7+
81.0698	101	C6H9+
91.0542	534	C7H7+
93.0698	999	C7H9+
95.0855	64	C7H11+
97.0647	89	C6H9O+
105.0698	664	C8H9+
107.0495	37	C7H7O+
107.0855	438	C8H11+
109.0645	28	C7H9O+
109.1015	25	C8H13+
115.0542	52	C9H7+
117.0698	106	C9H9+
119.0855	215	C9H11+
121.0647	743	C8H9O+
121.1011	281	C9H13+
129.0696	86	C10H9+
130.0778	42	C10H10+
131.0854	121	C10H11+
132.057	92	C9H8O+
133.0646	31	C9H9O+
133.1012	30	C10H13+
135.0804	199	C9H11O+
143.0852	54	C11H11+
145.0645	72	C10H9O+
145.1011	108	C11H13+
147.0805	171	C10H11O+
149.0961	140	C10H13O+
159.0803	93	C11H11O+
161.0955	63	C11H13O+
165.0699	25	C13H9+
171.08	57	C12H11O+
173.0958	35	C12H13O+
185.0963	105	C13H13O+
209.0965	32	C15H13O+
