Mass spectrum: Pyraclofos; LC-ESI-QFT; MS2; CE: 75%; R=17500; [M+H]+
Name: Pyraclofos
Name: 1-(4-chlorophenyl)-4-[ethoxy(propylsulfanyl)phosphoryl]oxypyrazole
Formula: C14H18ClN2O3PS
Exact mass: 360.0464
SMILES: CCCSP(=O)(OCC)OC1=CN(N=C1)C2=CC=C(C=C2)Cl
InChI: InChI=1S/C14H18ClN2O3PS/c1-3-9-22-21(18,19-4-2)20-14-10-16-17(11-14)13-7-5-12(15)6-8-13/h5-8,10-11H,3-4,9H2,1-2H3
Instrument: Exploris 240 Orbitrap Thermo Scientific
Instrument type: LC-ESI-QFT
Ms type: MS2
Ion mode: POSITIVE
Ionization: ESI
Fragmentation mode: HCD
Collision energy: 75 % (nominal)
Resolution: 17500
Column name: XBridge C18 3.5um, 2.1x50mm, Waters
Retention time: 11.576 min
Base peak: 361.0538
Precursor m/z: 361.0537
Precursor type: [M+H]+
m/z	relative intensity	assigned
58.0286	33	C2H4NO+
64.9787	110	H2O2P+
74.0058	19	C2H4NS+
80.956	8	H2OPS+
82.9893	25	H4O3P+
86.9997	9	C4H4Cl+
96.9508	399	H2O2PS+
105.0568	6	C7H7N+
110.9666	17	C2H4ClOS+
114.9614	140	H4O3PS+
132.0683	17	C8H8N2+
138.0105	999	C7H5ClN+
139.0064	123	C6H4ClN2+
140.0262	703	C7H7ClN+
142.0528	67	C9H6N2+
149.0295	37	C8H7NS+
150.0103	112	C7H5NOP+
166.0054	184	C8H5ClNO+
176.0405	48	C9H8N2S+
177.0213	23	C8H6N2OP+
178.0295	19	C9H7ClN2+
201.9822	6	C7H6ClNO2P+
238.9772	20	C9H5ClN2O2P+
