Mass spectrum: Mianserin-N-Oxide; LC-ESI-QFT; MS2; CE: 90; R=35000; [M+H]+
Name: Mianserin-N-Oxide
Name: 1,2,3,4,10,14b-Hexahydro-2-methyldibenzo(c,f)pyrazino(1,2-a)azepine 2-oxide
Formula: C18H20N2O
Exact mass: 280.15756
SMILES: C[N+]1(CCN2c3ccccc3Cc4ccccc4C2C1)[O-]
InChI: InChI=1S/C18H20N2O/c1-20(21)11-10-19-17-9-5-3-7-15(17)12-14-6-2-4-8-16(14)18(19)13-20/h2-9,18H,10-13H2,1H3
Instrument: Q Exactive Plus Orbitrap Thermo Scientific
Instrument type: LC-ESI-QFT
Ms type: MS2
Ion mode: POSITIVE
Ionization: ESI
Fragmentation mode: HCD
Collision energy: 90 (nominal)
Resolution: 35000
Column name: XBridge C18 3.5um, 2.1x50mm, Waters
Retention time: 7.0 min
Base peak: 281.1644
Precursor m/z: 281.1648
Precursor type: [M+H]+
m/z	relative intensity	assigned
53.0385	1	C4H5+
56.0495	73	C3H6N+
57.0573	25	C3H7N+
58.0651	52	C3H8N+
65.0385	8	C5H5+
66.0464	12	C5H6+
68.0255	1	C4H4O+
70.0651	206	C4H8N+
71.0603	34	C3H7N2+
71.0729	60	C4H9N+
72.0807	738	C4H10N+
74.06	19	C3H8NO+
77.0385	3	C6H5+
79.0541	1	C6H7+
83.0601	1	C4H7N2+
85.076	21	C4H9N2+
88.0757	1	C4H10NO+
89.0385	34	C7H5+
90.0464	108	C7H6+
91.0542	77	C7H7+
92.0495	1	C6H6N+
95.0491	5	C6H7O+
103.0542	14	C8H7+
104.0495	5	C7H6N+
105.0446	3	C6H5N2+
105.07	1	C8H9+
106.0652	7	C7H8N+
115.0542	248	C9H7+
116.0494	21	C8H6N+
116.0619	4	C9H8+
117.0572	15	C8H7N+
117.0698	76	C9H9+
118.0651	36	C8H8N+
128.0496	8	C9H6N+
128.062	6	C10H8+
129.0698	7	C10H9+
130.0651	25	C9H8N+
131.073	5	C9H9N+
132.0807	8	C9H10N+
134.06	1	C8H8NO+
142.0653	8	C10H8N+
143.0729	27	C10H9N+
144.0808	50	C10H10N+
145.0649	1	C10H9O+
146.0599	4	C9H8NO+
146.0964	1	C10H12N+
152.062	19	C12H8+
153.0698	3	C12H9+
155.0601	2	C10H7N2+
156.0807	1	C11H10N+
157.0885	3	C11H11N+
158.0963	26	C11H12N+
164.0617	4	C13H8+
165.0699	274	C13H9+
166.0653	4	C12H8N+
166.0777	60	C13H10+
167.0729	42	C12H9N+
167.0854	6	C13H11+
171.0917	7	C11H11N2+
176.0618	3	C14H8+
177.0572	5	C13H7N+
177.0698	11	C14H9+
178.0777	390	C14H10+
179.0855	123	C14H11+
180.0808	5	C13H10N+
185.1076	3	C12H13N2+
189.07	7	C15H9+
190.0651	33	C14H8N+
190.0776	12	C15H10+
191.0729	34	C14H9N+
191.0855	214	C15H11+
192.0807	532	C14H10N+
193.0886	999	C14H11N+
194.0964	12	C14H12N+
196.0756	1	C13H10NO+
202.0775	35	C16H10+
203.0855	42	C16H11+
204.0808	144	C15H10N+
204.093	14	C16H12+
205.0886	57	C15H11N+
206.0964	50	C15H12N+
207.1041	9	C15H13N+
208.1124	11	C15H14N+
210.0919	1	C14H12NO+
215.0855	1	C17H11+
216.0805	8	C16H10N+
217.0886	58	C16H11N+
218.0964	74	C16H12N+
219.0917	37	C15H11N2+
219.1042	53	C16H13N+
220.1121	632	C16H14N+
230.0963	11	C17H12N+
231.0923	2	C16H11N2+
231.1043	8	C17H13N+
232.0993	6	C16H12N2+
232.1119	9	C17H14N+
233.1073	67	C16H13N2+
235.1226	5	C16H15N2+
245.1067	3	C17H13N2+
246.1157	1	C17H14N2+
247.123	50	C17H15N2+
248.1305	12	C17H16N2+
249.1385	40	C17H17N2+
261.1386	5	C18H17N2+
263.154	6	C18H19N2+
