Mass spectrum: Pantoprazole; LC-ESI-ITFT; MS2; CE: 75%; R=15000; [M+H]+
Name: Pantoprazole
Name: 6-(difluoromethoxy)-2-[(3,4-dimethoxy-2-pyridinyl)methylsulfinyl]-1H-benzimidazole
Formula: C16H15F2N3O4S
Exact mass: 383.0751
SMILES: COC1=C(C(=NC=C1)CS(=O)C2=NC3=C(N2)C=C(C=C3)OC(F)F)OC
InChI: InChI=1S/C16H15F2N3O4S/c1-23-13-5-6-19-12(14(13)24-2)8-26(22)16-20-10-4-3-9(25-15(17)18)7-11(10)21-16/h3-7,15H,8H2,1-2H3,(H,20,21)
Instrument: LTQ Orbitrap XL Thermo Scientific
Instrument type: LC-ESI-ITFT
Ms type: MS2
Ion mode: POSITIVE
Ionization: ESI
Fragmentation mode: HCD
Collision energy: 75 % (nominal)
Resolution: 15000
Column name: XBridge C18 3.5um, 2.1x50mm, Waters
Retention time: 6.6 min
Base peak: 384.0836
Precursor m/z: 384.0824
Precursor type: [M+H]+
m/z	relative intensity	assigned
65.0384	5	FH4N3+
80.0494	7	C5H6N+
82.0649	6	C5H8N+
92.0494	35	C6H6N+
93.0572	22	C6H7N+
94.0651	24	C6H8N+
106.0651	18	C7H8N+
107.0729	66	C7H9N+
108.0443	21	C6H6NO+
110.0055	7	C5H4NS+
110.06	70	C6H8NO+
122.06	70	C7H8NO+
123.0678	11	C7H9NO+
124.0757	9	C7H10NO+
125.0476	8	C6H7NO2+
136.0392	219	C7H6NO2+
138.0549	999	C7H8NO2+
139.0083	11	C6H5NOS+
152.0705	94	C8H10NO2+
153.9958	18	C6H4NO2S+
154.0497	66	C5H10F2NS+
156.0111	9	C6H6NO2S+
165.0117	14	C7H5N2OS+
167.0033	25	C7H5NO2S+
168.0655	16	C6H12F2NS+
182.027	18	C8H8NO2S+
185.0518	8	C5H12FNO3S+
189.9535	4	C6F2O3S+
200.0384	23	C11H5FN2O+
