Mass spectrum: Paichongding; LC-ESI-QFT; MS2; CE: 45%; R=17500; [M+H]+
Name: Paichongding
Name: 1-[(6-chloropyridin-3-yl)methyl]-7-methyl-8-nitro-5-propoxy-3,5,6,7-tetrahydro-2H-imidazo[1,2-a]pyridine
Formula: C17H23ClN4O3
Exact mass: 366.1459
SMILES: CCCOC1CC(C(=C2N1CCN2CC3=CN=C(C=C3)Cl)[N+](=O)[O-])C
InChI: InChI=1S/C17H23ClN4O3/c1-3-8-25-15-9-12(2)16(22(23)24)17-20(6-7-21(15)17)11-13-4-5-14(18)19-10-13/h4-5,10,12,15H,3,6-9,11H2,1-2H3
Instrument: Exploris 240 Orbitrap Thermo Scientific
Instrument type: LC-ESI-QFT
Ms type: MS2
Ion mode: POSITIVE
Ionization: ESI
Fragmentation mode: HCD
Collision energy: 45 % (nominal)
Resolution: 17500
Column name: XBridge C18 3.5um, 2.1x50mm, Waters
Retention time: 5.460 min
Base peak: 367.1531
Precursor m/z: 367.1531
Precursor type: [M+H]+
m/z	relative intensity	assigned
71.0491	51	C4H7O+
113.0957	11	C7H13O+
126.0105	26	C6H5ClN+
137.1073	721	C8H13N2+
150.1024	19	C8H12N3+
208.0632	23	C13H8N2O+
209.0721	27	C10H12ClN3+
234.0793	14	C12H13ClN3+
235.0863	22	C12H14ClN3+
246.0798	34	C13H13ClN3+
248.0956	15	C13H15ClN3+
249.0537	7	C11H10ClN4O+
251.1185	10	C13H18ClN3+
263.1185	70	C14H18ClN3+
306.1368	999	C16H21ClN3O+
320.1524	97	C17H23ClN3O+
333.147	19	C17H22ClN4O+
