Mass spectrum: Flonicamid; LC-ESI-ITFT; MS2; CE: 90%; R=30000; [M+H]+
Name: Flonicamid
Name: N-(cyanomethyl)-4-(trifluoromethyl)-3-pyridinecarboxamide
Formula: C9H6F3N3O
Exact mass: 229.0463
SMILES: O=C(NCC#N)c1cnccc1C(F)(F)F
InChI: InChI=1S/C9H6F3N3O/c10-9(11,12)7-1-3-14-5-6(7)8(16)15-4-2-13/h1,3,5H,4H2,(H,15,16)
Instrument: LTQ Orbitrap XL Thermo Scientific
Instrument type: LC-ESI-ITFT
Ms type: MS2
Ion mode: POSITIVE
Ionization: ESI
Fragmentation mode: HCD
Collision energy: 90 % (nominal)
Resolution: 30000
Column name: XBridge C18 3.5um, 2.1x50mm, Waters
Retention time: 3.9 min
Base peak: 230.0537
Precursor m/z: 230.0536
Precursor type: [M+H]+
m/z	relative intensity	assigned
68.9947	2	CF3+
75.0041	14	C3HF2+
77.0198	2	C3H3F2+
78.0338	14	C5H4N+
79.0417	98	C5H5N+
83.024	4	C3H3N2O+
96.0244	6	C5H3FN+
97.032	1	C5H4FN+
98.0401	552	C5H5FN+
101.0197	110	C5H3F2+
103.0291	5	C6H3N2+
104.0131	13	C6H2NO+
105.0447	12	C6H5N2+
106.0526	4	C6H6N2+
108.0244	14	C6H3FN+
110.04	3	C6H5FN+
111.0315	36	C5H5NO2+
115.0228	6	C5H3F2N+
117.0447	4	C7H5N2+
119.0102	21	C5H2F3+
121.0259	15	C5H4F3+
124.0193	6	C6H3FNO+
126.0149	42	C6H2F2N+
126.0349	53	C6H5FNO+
128.0306	264	C6H4F2N+
129.0384	159	C6H5F2N+
131.0238	6	C7H3N2O+
133.0259	4	C6H4F3+
133.0394	3	C7H5N2O+
134.0474	32	C7H6N2O+
135.0352	33	C7H4FN2+
136.0431	19	C7H5FN2+
140.0306	14	C7H4F2N+
142.0401	1	C8H4N3+
144.0255	67	C6H4F2NO+
146.0212	528	C6H3F3N+
147.029	154	C6H4F3N+
148.0368	999	C6H5F3N+
151.0304	1	C7H4FN2O+
153.0457	13	C7H6FN2O+
155.0415	71	C7H5F2N2+
156.0253	10	C7H4F2NO+
158.0209	1	C7H3F3N+
160.0362	2	C7H5F3N+
161.0447	11	C7H6F3N+
162.0464	2	C8H5FN3+
163.0303	7	C8H4FN2O+
164.0317	50	C6H5F3NO+
165.026	6	C8H3F2N2+
173.032	15	C7H4F3N2+
174.0161	86	C7H3F3NO+
175.0476	14	C7H6F3N2+
176.0317	127	C7H5F3NO+
179.0188	101	C6H4F3NO2+
183.0363	59	C8H5F2N2O+
185.0321	9	C8H4F3N2+
203.0423	23	C8H6F3N2O+
