Mass spectrum: Atenolol acid; LC-ESI-ITFT; MS2; CE: 75%; R=15000; [M+H]+
Name: Atenolol acid
Name: Metoprolol acid
Name: 4-(2-Hydroxy-3-((1-methylethyl)amino)propoxy)benzeneacetic acid
Formula: C14H21NO4
Exact mass: 267.1471
SMILES: CC(C)NCC(O)COc1ccc(cc1)CC(=O)O
InChI: InChI=1S/C14H21NO4/c1-10(2)15-8-12(16)9-19-13-5-3-11(4-6-13)7-14(17)18/h3-6,10,12,15-16H,7-9H2,1-2H3,(H,17,18)
Instrument: LTQ Orbitrap XL Thermo Scientific
Instrument type: LC-ESI-ITFT
Ms type: MS2
Ion mode: POSITIVE
Ionization: ESI
Fragmentation mode: HCD
Collision energy: 75 % (nominal)
Resolution: 15000
Column name: XBridge C18 3.5um, 2.1x50mm, Waters
Retention time: 3.8 min
Base peak: 268.1553
Precursor m/z: 268.1543
Precursor type: [M+H]+
m/z	relative intensity	assigned
56.0495	213	C3H6N+
58.0652	24	C3H8N+
67.0545	6	C5H7+
72.0808	117	C4H10N+
74.0601	170	C3H8NO+
77.0387	19	C6H5+
79.0542	204	C6H7+
81.0699	20	C6H9+
84.0807	13	C5H10N+
89.0386	70	C7H5+
91.0542	196	C7H7+
93.0701	12	C7H9+
95.0491	67	C6H7O+
98.0964	65	C6H12N+
100.1122	22	C6H14N+
105.0697	9	C8H9+
107.0492	119	C7H7O+
109.0648	72	C7H9O+
115.0542	36	C9H7+
116.1071	44	C6H14NO+
117.0699	92	C9H9+
119.0492	90	C8H7O+
121.0648	12	C8H9O+
123.0441	39	C7H7O2+
133.0648	29	C9H9O+
135.0441	39	C8H7O2+
137.0597	63	C8H9O2+
145.0648	999	C10H9O+
147.0439	9	C9H7O2+
155.0605	14	C10H7N2+
163.0502	271	C8H7N2O2+
163.0752	22	C10H11O2+
165.0547	97	C9H9O3+
