Mass spectrum: 1-(Methoxymethyl)-1H-benzotriazole; LC-ESI-QFT; MS2; CE: 180; R=35000; [M+H]+
Name: 1-(Methoxymethyl)-1H-benzotriazole
Name: 1-(methoxymethyl)benzotriazole
Formula: C8H9N3O
Exact mass: 163.07456
SMILES: n1nn(c2ccccc12)COC
InChI: InChI=1S/C8H9N3O/c1-12-6-11-8-5-3-2-4-7(8)9-10-11/h2-5H,6H2,1H3
Instrument: Q Exactive Plus Orbitrap Thermo Scientific
Instrument type: LC-ESI-QFT
Ms type: MS2
Ion mode: POSITIVE
Ionization: ESI
Fragmentation mode: HCD
Collision energy: 180 (nominal)
Resolution: 35000
Column name: XBridge C18 3.5um, 2.1x50mm, Waters
Retention time: 5.4 min
Base peak: 164.0818
Precursor m/z: 164.0818
Precursor type: [M+H]+
m/z	relative intensity	assigned
50.0152	298	C4H2+
51.023	999	C4H3+
52.0183	113	C3H2N+
52.0307	24	C4H4+
53.0386	42	C4H5+
54.0464	6	C4H6+
62.0151	33	C5H2+
63.023	386	C5H3+
64.0308	91	C5H4+
65.0261	69	C4H3N+
65.0386	84	C5H5+
76.0182	12	C5H2N+
77.0386	130	C6H5+
78.0339	15	C5H4N+
78.0464	43	C6H6+
91.0417	71	C6H5N+
92.0495	6	C6H6N+
95.0492	103	C6H7O+
105.0448	93	C6H5N2+
