Mass spectrum: Oryzalin; LC-ESI-QFT; MS2; CE: 75; R=35000; [M+H]+
Name: Oryzalin
Name: 4-(dipropylamino)-3,5-dinitro-benzenesulfonamide
Formula: C12H18N4O6S
Exact mass: 346.09471
SMILES: [O-][N+](=O)c1cc(cc([N+]([O-])=O)c1N(CCC)CCC)S(=O)(=O)N
InChI: InChI=1S/C12H18N4O6S/c1-3-5-14(6-4-2)12-10(15(17)18)7-9(23(13,21)22)8-11(12)16(19)20/h7-8H,3-6H2,1-2H3,(H2,13,21,22)
Instrument: Q Exactive Orbitrap Thermo Scientific
Instrument type: LC-ESI-QFT
Ms type: MS2
Ion mode: POSITIVE
Ionization: ESI
Fragmentation mode: HCD
Collision energy: 75 (nominal)
Resolution: 35000
Column name: XBridge C18 3.5um, 2.1x50mm, Waters
Retention time: 12.1 min
Base peak: 347.1021
Precursor m/z: 347.102
Precursor type: [M+H]+
m/z	relative intensity	assigned
52.0182	123	C3H2N+
53.0023	117	C3HO+
53.9975	14	C2NO+
54.0339	49	C3H4N+
55.0179	10	C3H3O+
55.0291	14	C2H3N2+
56.0132	169	C2H2NO+
56.0495	11	C3H6N+
57.0335	45	C3H5O+
59.0492	11	C3H7O+
63.0228	18	C5H3+
63.9852	145	H2NOS+
64.0182	89	C4H2N+
65.026	96	C4H3N+
65.0386	59	C5H5+
66.0213	12	C3H2N2+
66.0338	19	C4H4N+
66.0466	7	C5H6+
67.0052	13	C3HNO+
67.029	35	C3H3N2+
67.0416	57	C4H5N+
68.0131	88	C3H2NO+
68.997	13	C3HO2+
69.0083	9	C2HN2O+
69.0209	9	C3H3NO+
76.0181	46	C5H2N+
77.0134	40	C4HN2+
77.026	84	C5H3N+
77.0385	10	C6H5+
78.0338	999	C5H4N+
79.0291	326	C4H3N2+
79.0416	48	C5H5N+
79.0542	49	C6H7+
79.98	16	H2NO2S+
80.0131	135	C4H2NO+
80.0369	19	C4H4N2+
80.0495	159	C5H6N+
81.0209	9	C4H3NO+
81.0446	16	C4H5N2+
81.0572	10	C5H7N+
82.0287	46	C4H4NO+
89.0384	16	C7H5+
90.0212	18	C5H2N2+
90.0336	60	C6H4N+
91.0292	56	C5H3N2+
91.0416	16	C6H5N+
91.0542	124	C7H7+
92.013	16	C5H2NO+
92.0369	83	C5H4N2+
92.0493	54	C6H6N+
93.0209	65	C5H3NO+
93.0447	77	C5H5N2+
93.0571	12	C6H7N+
93.0699	7	C7H9+
94.0288	66	C5H4NO+
94.0525	34	C5H6N2+
95.0239	29	C4H3N2O+
95.0492	66	C6H7O+
96.0079	49	C4H2NO2+
96.0443	14	C5H6NO+
101.0135	9	C6HN2+
103.029	16	C6H3N2+
103.0542	55	C8H7+
104.0368	12	C6H4N2+
104.0495	167	C7H6N+
105.0083	17	C5HN2O+
105.0447	295	C6H5N2+
105.0572	51	C7H7N+
105.0699	47	C8H9+
106.0161	9	C5H2N2O+
106.0287	43	C6H4NO+
106.0526	34	C6H6N2+
106.0651	15	C7H8N+
107.0239	45	C5H3N2O+
107.0603	16	C6H7N2+
108.0078	14	C5H2NO2+
108.0319	12	C5H4N2O+
108.0445	68	C6H6NO+
109.0158	9	C5H3NO2+
110.0237	10	C5H4NO2+
115.0541	69	C9H7+
116.0367	10	C7H4N2+
116.0495	120	C8H6N+
117.0448	160	C7H5N2+
117.0572	664	C8H7N+
118.0161	11	C6H2N2O+
118.0399	13	C6H4N3+
118.0523	42	C7H6N2+
118.0652	85	C8H8N+
119.024	474	C6H3N2O+
120.0556	73	C6H6N3+
120.0808	79	C8H10N+
121.0396	154	C6H5N2O+
122.0234	11	C6H4NO2+
122.0473	8	C6H6N2O+
123.0187	49	C5H3N2O2+
124.0265	19	C5H4N2O2+
124.0394	15	
130.0653	87	C9H8N+
131.0238	8	C7H3N2O+
131.0605	84	C8H7N2+
131.073	70	C9H9N+
132.0318	83	C7H4N2O+
132.0442	11	
132.0557	13	C7H6N3+
132.0681	18	C8H8N2+
132.0808	164	C9H10N+
133.0397	854	C7H5N2O+
134.0347	13	C6H4N3O+
134.0474	43	C7H6N2O+
134.0599	9	C8H8NO+
135.0186	11	C6H3N2O2+
135.0426	19	C6H5N3O+
135.0551	15	C7H7N2O+
136.0268	136	C6H4N2O2+
137.0345	48	C6H5N2O2+
143.0602	85	C9H7N2+
144.0681	42	C9H8N2+
145.0396	144	C8H5N2O+
145.0761	214	C9H9N2+
146.0473	18	C8H6N2O+
146.0596	13	CH12N3O3S+
148.0143	111	C6H2N3O2+
148.0269	14	C7H4N2O2+
148.0508	72	C7H6N3O+
148.0757	12	C9H10NO+
149.0219	19	C6H3N3O2+
149.0346	320	C7H5N2O2+
150.0425	17	C7H6N2O2+
151.0135	9	C6H3N2O3+
151.0505	23	C7H7N2O2+
152.0216	149	C6H4N2O3+
153.0296	13	C6H5N2O3+
159.055	19	C9H7N2O+
160.0631	33	C9H8N2O+
161.071	122	C9H9N2O+
166.0247	12	C6H4N3O3+
167.0451	36	C7H7N2O3+
170.0145	161	C6H6N2O2S+
171.0221	166	C6H7N2O2S+
177.0659	53	C9H9N2O2+
178.025	57	C7H4N3O3+
179.0324	19	C7H5N3O3+
180.0406	8	C7H6N3O3+
182.0196	11	C6H4N3O4+
185.0257	9	C6H7N3O2S+
190.0165	9	C12H2N2O+
190.0365	10	
190.0607	11	C9H8N3O2+
194.9858	12	C7H3N2O3S+
197.0253	227	C7H7N3O2S+
198.0146	900	C6H4N3O5+
200.0123	40	C6H6N3O3S+
212.0125	217	C7H6N3O3S+
213.0203	167	C7H7N3O3S+
217.0151	31	C6H7N3O4S+
223.0411	75	C9H9N3O2S+
224.0487	48	C9H10N3O2S+
225.0571	87	C9H11N3O2S+
227.9711	10	C6H2N3O5S+
227.9946	60	C6H4N4O4S+
228.0073	154	C7H6N3O4S+
230.0231	12	C7H8N3O4S+
238.0279	14	C9H8N3O3S+
240.0443	73	C9H10N3O3S+
242.0101	34	C7H6N4O4S+
243.0182	50	C7H7N4O4S+
245.9815	14	C6H4N3O6S+
246.0051	18	C6H6N4O5S+
259.0131	36	C7H7N4O5S+
269.0339	38	C9H9N4O4S+
271.0491	8	C9H11N4O4S+
