Mass spectrum: Metribuzin-diketo; LC-ESI-ITFT; MS2; CE: 90%; R=7500; [M+H]+
Name: Metribuzin-diketo
Name: 4-amino-6-tert-butyl-2H-1,2,4-triazine-3,5-dione
Formula: C7H12N4O2
Exact mass: 184.0960
SMILES: O=C(NN=C1C(C)(C)C)N(N)C1=O
InChI: InChI=1S/C7H12N4O2/c1-7(2,3)4-5(12)11(8)6(13)10-9-4/h8H2,1-3H3,(H,10,13)
Instrument: LTQ Orbitrap XL Thermo Scientific
Instrument type: LC-ESI-ITFT
Ms type: MS2
Ion mode: POSITIVE
Ionization: ESI
Fragmentation mode: HCD
Collision energy: 90 % (nominal)
Resolution: 7500
Column name: XBridge C18 3.5um, 2.1x50mm, Waters
Retention time: 5.9 min
Base peak: 185.1036
Precursor m/z: 185.1033
Precursor type: [M+H]+
m/z	relative intensity	assigned
53.0385	50	C4H5+
57.0698	999	C4H9+
59.0241	53	CH3N2O+
65.0387	30	C5H5+
67.0417	31	C4H5N+
67.0542	151	C5H7+
68.0494	224	C4H6N+
69.0083	337	C2HN2O+
69.0697	106	C5H9+
70.0289	72	C3H4NO+
70.0415	42	C4H6O+
70.0652	54	C4H8N+
78.0336	44	C5H4N+
82.065	171	C5H8N+
83.0602	45	C4H7N2+
83.0728	168	C5H9N+
84.0805	70	C5H10N+
96.0443	719	C5H6NO+
97.076	51	C5H9N2+
101.0459	102	C2H5N4O+
110.0597	175	C6H8NO+
111.0678	369	C6H9NO+
112.0137	38	C3H2N3O2+
114.0423	69	C4H6N2O2+
124.0502	37	C5H6N3O+
126.0659	74	C5H8N3O+
141.0658	478	C6H9N2O2+
169.0728	32	C6H9N4O2+
