Mass spectrum: Benzoylecgonine; LC-ESI-ITFT; MS2; CE: 15%; R=15000; [M+H]+
Name: Benzoylecgonine
Name: 3-benzoyloxy-8-methyl-8-azabicyclo[3.2.1]octane-4-carboxylic acid
Formula: C16H19NO4
Exact mass: 289.1314
SMILES: CN1C2CCC1C(C(C2)OC(=O)C3=CC=CC=C3)C(=O)O
InChI: InChI=1S/C16H19NO4/c1-17-11-7-8-12(17)14(15(18)19)13(9-11)21-16(20)10-5-3-2-4-6-10/h2-6,11-14H,7-9H2,1H3,(H,18,19)
Instrument: LTQ Orbitrap XL Thermo Scientific
Instrument type: LC-ESI-ITFT
Ms type: MS2
Ion mode: POSITIVE
Ionization: ESI
Fragmentation mode: HCD
Collision energy: 15 % (nominal)
Resolution: 15000
Column name: XBridge C18 3.5um, 2.1x50mm, Waters
Retention time: 4.6 min
Base peak: 290.1395
Precursor m/z: 290.1387
Precursor type: [M+H]+
m/z	relative intensity	assigned
105.0322	3	C5H3N3+
168.1021	14	C9H14NO2+
290.1388	999	C16H20NO4+
