Mass spectrum: Ditalimfos; LC-ESI-QFT; MS2; CE: 120%; R=17500; [M+H]+
Name: Ditalimfos
Name: 2-diethoxyphosphinothioylisoindole-1,3-dione
Formula: C12H14NO4PS
Exact mass: 299.0381
SMILES: CCOP(=S)(N1C(=O)C2=CC=CC=C2C1=O)OCC
InChI: InChI=1S/C12H14NO4PS/c1-3-16-18(19,17-4-2)13-11(14)9-7-5-6-8-10(9)12(13)15/h5-8H,3-4H2,1-2H3
Instrument: Exploris 240 Orbitrap Thermo Scientific
Instrument type: LC-ESI-QFT
Ms type: MS2
Ion mode: POSITIVE
Ionization: ESI
Fragmentation mode: HCD
Collision energy: 120 % (nominal)
Resolution: 17500
Column name: XBridge C18 3.5um, 2.1x50mm, Waters
Retention time: 9.578 min
Base peak: 170.0964
Precursor m/z: 300.0454
Precursor type: [M+H]+
m/z	relative intensity	assigned
51.0229	148	C4H3+
52.0183	12	C3H2N+
64.9787	96	H2O2P+
75.0229	211	C6H3+
76.0183	34	C5H2N+
78.0338	95	C5H4N+
78.9402	67	OPS+
92.0496	34	C6H6N+
96.9508	246	H2O2PS+
102.0339	758	C7H4N+
106.0287	13	C6H4NO+
114.9616	72	H4O3PS+
120.0445	190	C7H6NO+
130.0288	999	C8H4NO+
