Mass spectrum: Dioxathion; LC-ESI-QFT; MS2; CE: 15%; R=17500; [M+H]+
Name: Dioxathion
Name: (3-diethoxyphosphinothioylsulfanyl-1,4-dioxan-2-yl)sulfanyl-diethoxy-sulfanylidene-lambda5-phosphane
Formula: C12H26O6P2S4
Exact mass: 456.0087
SMILES: CCOP(=S)(OCC)SC1C(OCCO1)SP(=S)(OCC)OCC
InChI: InChI=1S/C12H26O6P2S4/c1-5-15-19(21,16-6-2)23-11-12(14-10-9-13-11)24-20(22,17-7-3)18-8-4/h11-12H,5-10H2,1-4H3
Instrument: Exploris 240 Orbitrap Thermo Scientific
Instrument type: LC-ESI-QFT
Ms type: MS2
Ion mode: POSITIVE
Ionization: ESI
Fragmentation mode: HCD
Collision energy: 15 % (nominal)
Resolution: 17500
Column name: XBridge C18 3.5um, 2.1x50mm, Waters
Retention time: 13.229 min
Base peak: 400.1308
Precursor m/z: 457.016
Precursor type: [M+H]+
m/z	relative intensity	assigned
117.0009	242	C4H5O2S+
184.985	999	C4H10O2PS2+
