Mass spectrum: Fluazifop; LC-ESI-ITFT; MS2; CE: 30%; R=7500; [M+H]+
Name: Fluazifop
Name: 2-[4-[5-(trifluoromethyl)pyridin-2-yl]oxyphenoxy]propanoic acid
Formula: C15H12F3NO4
Exact mass: 327.0724
SMILES: CC(C(=O)O)OC1=CC=C(C=C1)OC2=NC=C(C=C2)C(F)(F)F
InChI: InChI=1S/C15H12F3NO4/c1-9(14(20)21)22-11-3-5-12(6-4-11)23-13-7-2-10(8-19-13)15(16,17)18/h2-9H,1H3,(H,20,21)
Instrument: LTQ Orbitrap XL Thermo Scientific
Instrument type: LC-ESI-ITFT
Ms type: MS2
Ion mode: POSITIVE
Ionization: ESI
Fragmentation mode: HCD
Collision energy: 30 % (nominal)
Resolution: 7500
Column name: XBridge C18 3.5um, 2.1x50mm, Waters
Retention time: 10.9 min
Base peak: 328.0794
Precursor m/z: 328.0791
Precursor type: [M+H]+
m/z	relative intensity	assigned
91.0541	19	C7H7+
119.0492	6	C8H7O+
238.0468	8	C15H6F2N+
254.0428	10	C12H7F3NO2+
254.0783	60	C13H11F3NO+
255.05	96	C12H8F3NO2+
256.0578	66	C12H9F3NO2+
282.0735	785	C14H11F3NO2+
328.0788	999	C15H13F3NO4+
