Mass spectrum: Dronedarone; LC-ESI-ITFT; MS2; CE: 30%; R=15000; [M+H]+
Name: Dronedarone
Name: N-[2-butyl-3-[4-[3-(dibutylamino)propoxy]benzoyl]-1-benzofuran-5-yl]methanesulfonamide
Formula: C31H44N2O5S
Exact mass: 556.2971
SMILES: CS(=O)(=O)Nc1cc2c(c(oc2cc1)CCCC)C(c1ccc(cc1)OCCCN(CCCC)CCCC)=O
InChI: InChI=1S/C31H44N2O5S/c1-5-8-12-29-30(27-23-25(32-39(4,35)36)15-18-28(27)38-29)31(34)24-13-16-26(17-14-24)37-22-11-21-33(19-9-6-2)20-10-7-3/h13-18,23,32H,5-12,19-22H2,1-4H3
Instrument: LTQ Orbitrap XL Thermo Scientific
Instrument type: LC-ESI-ITFT
Ms type: MS2
Ion mode: POSITIVE
Ionization: ESI
Fragmentation mode: HCD
Collision energy: 30 % (nominal)
Resolution: 15000
Column name: XBridge C18 3.5um, 2.1x50mm, Waters
Retention time: 11.5 min
Base peak: 557.3051
Precursor m/z: 557.3044
Precursor type: [M+H]+
m/z	relative intensity	assigned
58.065	4	C3H8N+
100.1121	23	C6H14N+
114.1276	2	C7H16N+
128.1433	2	C8H18N+
130.1588	1	C8H20N+
142.159	39	C9H20N+
170.1902	36	C11H24N+
294.0791	7	C20H10N2O+
379.2017	1	C23H27N2O3+
421.2503	1	C26H33N2O3+
435.2636	67	C27H35N2O3+
436.267	5	C28H38NOS+
501.2409	9	C27H37N2O5S+
502.2417	1	C31H36NO3S+
557.3045	999	C31H45N2O5S+
558.307	109	
