Mass spectrum: Prochloraz; LC-ESI-ITFT; MS2; CE: 60%; R=15000; [M+H]+
Name: Prochloraz
Name: N-propyl-N-[2-(2,4,6-trichlorophenoxy)ethyl]-1-imidazolecarboxamide
Formula: C15H16Cl3N3O2
Exact mass: 375.0303
SMILES: Cl-c(cc(Cl)c1OCCN(C(=O)N(C=N2)C=C2)CCC)cc1Cl
InChI: InChI=1S/C15H16Cl3N3O2/c1-2-4-20(15(22)21-5-3-19-10-21)6-7-23-14-12(17)8-11(16)9-13(14)18/h3,5,8-10H,2,4,6-7H2,1H3
Instrument: LTQ Orbitrap XL Thermo Scientific
Instrument type: LC-ESI-ITFT
Ms type: MS2
Ion mode: POSITIVE
Ionization: ESI
Fragmentation mode: HCD
Collision energy: 60 % (nominal)
Resolution: 15000
Column name: XBridge C18 3.5um, 2.1x50mm, Waters
Retention time: 12.2 min
Base peak: 376.0387
Precursor m/z: 376.0381
Precursor type: [M+H]+
m/z	relative intensity	assigned
56.0494	92	C3H6N+
70.0287	999	C3H4NO+
70.0651	745	C4H8N+
85.0883	30	C5H11N+
98.0599	22	C5H8NO+
158.9763	86	C7H5Cl2+
161.9635	103	C6H4Cl2O+
166.9215	81	C5H2Cl3+
173.9877	37	C7H6Cl2N+
174.9709	59	C7H5Cl2O+
179.9294	45	C6H3Cl3+
194.9164	348	C6H2Cl3O+
196.9321	232	C6H4Cl3O+
206.9278	106	C6H2Cl3N2+
222.9478	107	C8H6Cl3O+
