Mass spectrum: Theophyline; LC-ESI-QFT; MS2; CE: 60; R=35000; [M-H]-
Name: Theophyline
Name: Theophylline
Name: 1,3-dimethyl-7H-purine-2,6-dione
Formula: C7H8N4O2
Exact mass: 180.06473
SMILES: CN1C2=C(C(=O)N(C1=O)C)NC=N2
InChI: InChI=1S/C7H8N4O2/c1-10-5-4(8-3-9-5)6(12)11(2)7(10)13/h3H,1-2H3,(H,8,9)
Instrument: Q Exactive Plus Orbitrap Thermo Scientific
Instrument type: LC-ESI-QFT
Ms type: MS2
Ion mode: NEGATIVE
Ionization: ESI
Fragmentation mode: HCD
Collision energy: 60 (nominal)
Resolution: 35000
Column name: XBridge C18 3.5um, 2.1x50mm, Waters
Retention time: 3.1 min
Base peak: 179.0573
Precursor m/z: 179.0574
Precursor type: [M-H]-
m/z	relative intensity	assigned
65.9986	12	C3NO-
66.0098	1	C2N3-
67.0302	6	C3H3N2-
68.0143	1	C3H2NO-
79.0177	26	C3HN3-
80.0255	2	C3H2N3-
92.0254	2	C4H2N3-
94.0411	87	C4H4N3-
107.0124	4	C4HN3O-
109.0283	3	C4H3N3O-
120.0205	4	C5H2N3O-
121.0283	8	C5H3N3O-
122.0361	557	C5H4N3O-
123.0395	1	H5N5O3-
124.0153	1	C4H2N3O2-
135.0076	53	C5HN3O2-
135.0314	27	C5H3N4O-
136.0391	18	C5H4N4O-
140.0466	17	C5H6N3O2-
164.0342	999	C6H4N4O2-
165.0309	1	C7H5N2O3-
179.0576	686	C7H7N4O2-
