Mass spectrum: Metformin; LC-ESI-ITFT; MS2; CE: 45%; R=7500; [M+H]+
Name: Metformin
Name: 3-(diaminomethylene)-1,1-dimethyl-guanidine
Formula: C4H11N5
Exact mass: 129.1014
SMILES: CN(C)C(=N)NC(N)=N
InChI: InChI=1S/C4H11N5/c1-9(2)4(7)8-3(5)6/h1-2H3,(H5,5,6,7,8)
Instrument: LTQ Orbitrap XL Thermo Scientific
Instrument type: LC-ESI-ITFT
Ms type: MS2
Ion mode: POSITIVE
Ionization: ESI
Fragmentation mode: HCD
Collision energy: 45 % (nominal)
Resolution: 7500
Column name: XBridge C18 3.5um, 2.1x50mm, Waters
Retention time: 0.8 min
Base peak: 130.1087
Precursor m/z: 130.1087
Precursor type: [M+H]+
m/z	relative intensity	assigned
60.0557	408	CH6N3+
68.0244	5	C2H2N3+
71.0604	172	C3H7N2+
85.0509	127	C2H5N4+
88.0869	146	C3H10N3+
113.0821	82	C4H9N4+
130.1088	999	C4H12N5+
