Mass spectrum: Nitrofen; LC-ESI-QFT; MS2; CE: 30; R=35000; [M+H]+
Name: Nitrofen
Name: 2,4-bis(chloranyl)-1-(4-nitrophenoxy)benzene
Formula: C12H7Cl2NO3
Exact mass: 282.98030
SMILES: c1(Oc2ccc([N+](=O)[O-])cc2)c(cc(Cl)cc1)Cl
InChI: InChI=1S/C12H7Cl2NO3/c13-8-1-6-12(11(14)7-8)18-10-4-2-9(3-5-10)15(16)17/h1-7H
Instrument: Q Exactive Orbitrap Thermo Scientific
Instrument type: LC-ESI-QFT
Ms type: MS2
Ion mode: POSITIVE
Ionization: ESI
Fragmentation mode: HCD
Collision energy: 30 (nominal)
Resolution: 35000
Column name: XBridge C18 3.5um, 2.1x50mm, Waters
Retention time: 14.8 min
Base peak: 149.0234
Precursor m/z: 283.9876
Precursor type: [M+H]+
m/z	relative intensity	assigned
73.0283	14	C3H5O2+
98.9842	6	CH4ClO3+
202.0175	13	C12H7ClO+
203.0257	16	C12H8ClO+
208.9922	11	C11H7Cl2+
237.9948	46	C12H8Cl2O+
253.9893	2	C12H8Cl2O2+
264.993	18	C12H7Cl2N2O+
266.9849	999	C12H7Cl2NO2+
283.9876	316	C12H8Cl2NO3+
