Mass spectrum: Dimethenamid-P; LC-ESI-ITFT; MS2; CE: 45%; R=7500; [M+H]+
Name: Dimethenamid-P
Name: 2-chloranyl-N-(2,4-dimethylthiophen-3-yl)-N-[(2S)-1-methoxypropan-2-yl]ethanamide
Formula: C12H18ClNO2S
Exact mass: 275.0741
SMILES: CC1=CSC(=C1N(C(C)COC)C(=O)CCl)C
InChI: InChI=1S/C12H18ClNO2S/c1-8-7-17-10(3)12(8)14(11(15)5-13)9(2)6-16-4/h7,9H,5-6H2,1-4H3
Instrument: LTQ Orbitrap XL Thermo Scientific
Instrument type: LC-ESI-ITFT
Ms type: MS2
Ion mode: POSITIVE
Ionization: ESI
Fragmentation mode: HCD
Collision energy: 45 % (nominal)
Resolution: 7500
Column name: XBridge C18 3.5um, 2.1x50mm, Waters
Retention time: 10.0 min
Base peak: 276.0826
Precursor m/z: 276.082
Precursor type: [M+H]+
m/z	relative intensity	assigned
73.0648	18	C4H9O+
76.979	2	C2H2ClO+
111.0263	25	C6H7S+
116.0261	1	C5H7ClN+
117.0699	1	C9H9+
125.042	3	C7H9S+
126.0373	7	C6H8NS+
128.0529	4	C6H10NS+
138.0372	7	C7H8NS+
150.0368	2	C8H8NS+
151.0575	14	C9H11S+
152.0524	6	C8H10NS+
153.0246	5	C7H7NOS+
154.069	1	C8H12NS+
166.0326	3	C8H8NOS+
166.0686	6	C9H12NS+
167.0763	26	C9H13NS+
168.0842	383	C9H14NS+
186.014	20	C8H9ClNS+
202.0094	8	C8H9ClNOS+
203.0164	12	C8H10ClNOS+
204.0243	11	C8H11ClNOS+
244.0559	999	C11H15ClNOS+
