Mass spectrum: Difenacoum; LC-ESI-QFT; MS2; CE: 150%; R=17500; [M+H]+
Name: Difenacoum
Name: 4-hydroxy-3-[3-(4-phenylphenyl)-1,2,3,4-tetrahydronaphthalen-1-yl]chromen-2-one
Formula: C31H24O3
Exact mass: 444.1725
SMILES: C1C(CC2=CC=CC=C2C1C3=C(C4=CC=CC=C4OC3=O)O)C5=CC=C(C=C5)C6=CC=CC=C6
InChI: InChI=1S/C31H24O3/c32-30-26-12-6-7-13-28(26)34-31(33)29(30)27-19-24(18-23-10-4-5-11-25(23)27)22-16-14-21(15-17-22)20-8-2-1-3-9-20/h1-17,24,27,32H,18-19H2
Instrument: Exploris 240 Orbitrap Thermo Scientific
Instrument type: LC-ESI-QFT
Ms type: MS2
Ion mode: POSITIVE
Ionization: ESI
Fragmentation mode: HCD
Collision energy: 150 % (nominal)
Resolution: 17500
Column name: XBridge C18 3.5um, 2.1x50mm, Waters
Retention time: 15.423 min
Base peak: 445.1795
Precursor m/z: 445.1798
Precursor type: [M+H]+
m/z	relative intensity	assigned
50.0152	23	C4H2+
51.0229	291	C4H3+
53.0386	81	C4H5+
63.0229	47	C5H3+
65.0386	811	C5H5+
75.0229	33	C6H3+
77.0385	607	C6H5+
78.0465	15	C6H6+
79.0544	53	C6H7+
89.0387	52	C7H5+
91.0542	554	C7H7+
93.0334	28	C6H5O+
94.0412	29	C6H6O+
95.0492	365	C6H7O+
102.0465	55	C8H6+
103.0543	67	C8H7+
115.0542	358	C9H7+
121.0288	39	C7H5O2+
126.0469	34	C10H6+
127.0542	48	C10H7+
128.062	281	C10H8+
139.0544	158	C11H7+
141.0697	21	C11H9+
145.0651	23	C10H9O+
150.0464	43	C12H6+
151.0541	132	C12H7+
152.062	839	C12H8+
153.0696	19	C12H9+
163.0542	143	C13H7+
164.0621	227	C13H8+
165.0699	668	C13H9+
168.0569	24	C12H8O+
169.065	118	C12H9O+
176.0621	523	C14H8+
177.0697	384	C14H9+
178.0777	999	C14H10+
189.0699	38	C15H9+
202.0781	34	C16H10+
215.0856	33	C17H11+
239.0859	174	C19H11+
252.0938	42	C20H12+
