Mass spectrum: ortho-Chlorophenylpiperazine; LC-ESI-QFT; MS2; CE: 60; R=35000; [M+H]+
Name: ortho-Chlorophenylpiperazine
Name: 1-(2-Chlorophenyl)piperazine
Name: 1-(2-chlorophenyl)piperazine
Formula: C10H13ClN2
Exact mass: 196.07673
SMILES: c1ccc(c(c1)N2CCNCC2)Cl
InChI: InChI=1S/C10H13ClN2/c11-9-3-1-2-4-10(9)13-7-5-12-6-8-13/h1-4,12H,5-8H2
Instrument: Q Exactive Plus Orbitrap Thermo Scientific
Instrument type: LC-ESI-QFT
Ms type: MS2
Ion mode: POSITIVE
Ionization: ESI
Fragmentation mode: HCD
Collision energy: 60 (nominal)
Resolution: 35000
Column name: XBridge C18 3.5um, 2.1x50mm, Waters
Retention time: 4.9 min
Base peak: 197.0839
Precursor m/z: 197.084
Precursor type: [M+H]+
m/z	relative intensity	assigned
56.0495	8	C3H6N+
58.0651	7	C3H8N+
68.0494	2	C4H6N+
70.0651	60	C4H8N+
71.0729	2	C4H9N+
77.0384	1	C6H5+
91.0542	13	C7H7+
92.062	4	C7H8+
104.0493	1	C7H6N+
106.0651	1	C7H8N+
117.0573	8	C8H7N+
118.0651	140	C8H8N+
119.0729	349	C8H9N+
120.0807	15	C8H10N+
126.0103	4	C6H5ClN+
127.0184	3	C6H6ClN+
128.0262	1	C6H7ClN+
132.0808	1	C9H10N+
138.0104	5	C7H5ClN+
140.0261	34	C7H7ClN+
152.0263	4	C8H7ClN+
154.0417	999	C8H9ClN+
161.1072	2	C10H13N2+
162.115	6	C10H14N2+
166.0418	9	C9H9ClN+
167.0369	2	C8H8ClN2+
168.0448	1	C8H9ClN2+
168.0571	1	C9H11ClN+
180.0577	2	C10H11ClN+
195.0683	35	C10H12ClN2+
197.084	187	C10H14ClN2+
