Mass spectrum: Isofenphos-Methyl; LC-ESI-QFT; MS2; CE: 120%; R=17500; [M+H]+
Name: Isofenphos-Methyl
Name: propan-2-yl 2-[methoxy-(propan-2-ylamino)phosphinothioyl]oxybenzoate
Formula: C14H22NO4PS
Exact mass: 331.1007
SMILES: CC(C)NP(=S)(OC)OC1=CC=CC=C1C(=O)OC(C)C
InChI: InChI=1S/C14H22NO4PS/c1-10(2)15-20(21,17-5)19-13-9-7-6-8-12(13)14(16)18-11(3)4/h6-11H,1-5H3,(H,15,21)
Instrument: Exploris 240 Orbitrap Thermo Scientific
Instrument type: LC-ESI-QFT
Ms type: MS2
Ion mode: POSITIVE
Ionization: ESI
Fragmentation mode: HCD
Collision energy: 120 % (nominal)
Resolution: 17500
Column name: XBridge C18 3.5um, 2.1x50mm, Waters
Retention time: 10.780 min
Base peak: 230.9875
Precursor m/z: 332.108
Precursor type: [M+H]+
m/z	relative intensity	assigned
62.9454	11	PS+
63.9947	136	H3NOP+
65.0386	999	CH8NP+
92.0256	63	C6H4O+
93.0336	83	C6H5O+
108.0031	30	C2H7NPS+
109.0107	69	C6H5S+
109.9827	31	CH5NOPS+
120.0208	11	C3H7NO2P+
121.0287	237	C3H8NO2P+
121.0399	159	H11NO4S+
154.9719	17	C6H4OPS+
