Mass spectrum: Tolfenpyrad; LC-ESI-QFT; MS2; CE: 120%; R=17500; [M+H]+
Name: Tolfenpyrad
Name: 4-chloro-5-ethyl-2-methyl-N-[[4-(4-methylphenoxy)phenyl]methyl]pyrazole-3-carboxamide
Formula: C21H22ClN3O2
Exact mass: 383.1401
SMILES: CCC1=NN(C(=C1Cl)C(=O)NCC2=CC=C(C=C2)OC3=CC=C(C=C3)C)C
InChI: InChI=1S/C21H22ClN3O2/c1-4-18-19(22)20(25(3)24-18)21(26)23-13-15-7-11-17(12-8-15)27-16-9-5-14(2)6-10-16/h5-12H,4,13H2,1-3H3,(H,23,26)
Instrument: Exploris 240 Orbitrap Thermo Scientific
Instrument type: LC-ESI-QFT
Ms type: MS2
Ion mode: POSITIVE
Ionization: ESI
Fragmentation mode: HCD
Collision energy: 120 % (nominal)
Resolution: 17500
Column name: XBridge C18 3.5um, 2.1x50mm, Waters
Retention time: 13.456 min
Base peak: 308.0038
Precursor m/z: 384.1473
Precursor type: [M+H]+
m/z	relative intensity	assigned
51.0231	9	C4H3+
54.0337	39	C3H4N+
56.0132	11	C2H2NO+
56.0495	15	C3H6N+
61.9794	13	CHClN+
62.9997	18	C2H4Cl+
63.023	20	C5H3+
65.0386	914	C5H5+
74.987	16	C2H2ClN+
75.9949	190	C2H3ClN+
77.0388	17	C6H5+
81.0448	33	C4H5N2+
82.0525	11	C4H6N2+
87.9949	10	C3H3ClN+
90.0106	26	C3H5ClN+
91.0542	999	C7H7+
95.0601	13	C5H7N2+
106.0651	9	C7H8N+
107.0491	121	C7H7O+
115.0059	21	C4H4ClN2+
115.0542	77	C9H7+
117.0213	88	C4H6ClN2+
127.054	9	C10H7+
128.0619	101	C10H8+
129.0215	11	C5H6ClN2+
129.0701	23	C10H9+
141.0696	46	C11H9+
152.0621	97	C12H8+
153.0699	406	C12H9+
154.0774	142	C12H10+
155.061	10	C10H7N2+
165.0701	16	C13H9+
167.0857	14	C13H11+
181.0651	36	C10H12ClN+
