Mass spectrum: Nicosulfuron-TP AUSN; LC-ESI-QFT; MS2; CE: 90%; R=17500; [M-H]-
Name: Nicosulfuron-TP AUSN
Name: 2-(diaminomethylidenecarbamoylsulfamoyl)-N,N-dimethylpyridine-3-carboxamide
Formula: C10H14N6O4S
Exact mass: 314.0797
SMILES: CN(C)C(=O)C1=CC=CN=C1S(=O)(=O)NC(=O)NC(N)=N
InChI: InChI=1S/C10H14N6O4S/c1-16(2)8(17)6-4-3-5-13-7(6)21(19,20)15-10(18)14-9(11)12/h3-5H,1-2H3,(H5,11,12,14,15,18)
Instrument: Q Exactive Plus Orbitrap Thermo Scientific
Instrument type: LC-ESI-QFT
Ms type: MS2
Ion mode: NEGATIVE
Ionization: ESI
Fragmentation mode: HCD
Collision energy: 90 % (nominal)
Resolution: 17500
Column name: XBridge C18 3.5um, 2.1x50mm, Waters
Retention time: 1.351 min
Base peak: 313.0724
Precursor m/z: 313.0724
Precursor type: [M-H]-
m/z	relative intensity	assigned
50.0035	20	C3N-
58.0298	86	C2H4NO-
61.9706	434	NOS-
63.9625	336	O2S-
65.9985	18	C3NO-
66.0349	156	C4H4N-
77.9655	348	NO2S-
78.9734	250	HNO2S-
79.9812	84	H2NO2S-
91.0303	76	C5H3N2-
93.022	30	
93.0458	837	C5H5N2-
94.0299	999	C5H4NO-
103.0299	72	C6H3N2-
117.0459	87	C7H5N2-
119.0251	281	C6H3N2O-
121.0407	34	C6H5N2O-
131.049	77	C7H5N3-
132.0331	72	C7H4N2O-
144.0566	15	C8H6N3-
147.0439	286	C7H5N3O-
162.0677	45	C8H8N3O-
181.0079	33	C7H5N2O2S-
182.987	140	C6H3N2O3S-
