Mass spectrum: Benzoximate; LC-ESI-QFT; MS2; CE: 90%; R=17500; [M+H]+
Name: Benzoximate
Name: [C-(3-chloro-2,6-dimethoxyphenyl)-N-ethoxycarbonimidoyl] benzoate
Formula: C18H18ClNO5
Exact mass: 363.0874
SMILES: CCON=C(C1=C(C=CC(=C1OC)Cl)OC)OC(=O)C2=CC=CC=C2
InChI: InChI=1S/C18H18ClNO5/c1-4-24-20-17(25-18(21)12-8-6-5-7-9-12)15-14(22-2)11-10-13(19)16(15)23-3/h5-11H,4H2,1-3H3
Instrument: Exploris 240 Orbitrap Thermo Scientific
Instrument type: LC-ESI-QFT
Ms type: MS2
Ion mode: POSITIVE
Ionization: ESI
Fragmentation mode: HCD
Collision energy: 90 % (nominal)
Resolution: 17500
Column name: XBridge C18 3.5um, 2.1x50mm, Waters
Retention time: 11.695 min
Base peak: 276.2181
Precursor m/z: 364.0946
Precursor type: [M+H]+
m/z	relative intensity	assigned
50.0151	20	C4H2+
51.0229	158	C4H3+
53.0021	24	C3HO+
53.0386	291	C4H5+
55.0178	7	C3H3O+
63.0229	21	C5H3+
65.0386	18	C5H5+
75.023	7	C6H3+
77.0385	999	C6H5+
81.0334	27	C5H5O+
94.0415	51	C6H6O+
95.0491	349	C6H7O+
105.0335	647	C7H5O+
109.0649	9	C7H9O+
112.9788	110	C5H2ClO+
125.987	38	C6H3ClO+
140.9737	630	C6H2ClO2+
149.0232	59	C8H5O3+
154.9897	26	C7H4ClO2+
155.997	83	C7H5ClO2+
183.9921	263	C8H5ClO3+
202.0035	14	C8H7ClO4+
