Mass spectrum: N-Acetylcaprolactam; LC-ESI-QFT; MS2; CE: 150%; R=17500; [M+H]+
Name: N-Acetylcaprolactam
Name: 1-acetylazepan-2-one
Formula: C8H13NO2
Exact mass: 155.0946
SMILES: CC(=O)N1CCCCCC1=O
InChI: InChI=1S/C8H13NO2/c1-7(10)9-6-4-2-3-5-8(9)11/h2-6H2,1H3
Instrument: Exploris 240 Orbitrap Thermo Scientific
Instrument type: LC-ESI-QFT
Ms type: MS2
Ion mode: POSITIVE
Ionization: ESI
Fragmentation mode: HCD
Collision energy: 150 % (nominal)
Resolution: 17500
Column name: XBridge C18 3.5um, 2.1x50mm, Waters
Retention time: 4.594 min
Base peak: 156.1019
Precursor m/z: 156.1019
Precursor type: [M+H]+
m/z	relative intensity	assigned
41.0386	351	C3H5+
42.0338	32	C2H4N+
43.0178	522	C2H3O+
43.0542	116	C3H7+
44.0131	999	CH2NO+
53.0385	71	C4H5+
54.0339	16	C3H4N+
55.0178	254	C3H3O+
55.0542	604	C4H7+
56.0495	17	C3H6N+
67.0541	69	C5H7+
68.0495	56	C4H6N+
69.0699	265	C5H9+
70.0653	22	C4H8N+
77.0386	84	C6H5+
79.0543	232	C6H7+
95.0493	51	C6H7O+
96.0805	63	C6H10N+
114.0912	84	C6H12NO+
