Mass spectrum: Adenosine; LC-ESI-QFT; MS2; CE: 60; R=35000; [M-H]-
Name: Adenosine
Name: (2R,3R,4S,5R)-2-(6-aminopurin-9-yl)-5-(hydroxymethyl)oxolane-3,4-diol
Formula: C10H13N5O4
Exact mass: 267.09675
SMILES: C1=NC(=C2C(=N1)N(C=N2)[C@H]3[C@@H]([C@@H]([C@H](O3)CO)O)O)N
InChI: InChI=1S/C10H13N5O4/c11-8-5-9(13-2-12-8)15(3-14-5)10-7(18)6(17)4(1-16)19-10/h2-4,6-7,10,16-18H,1H2,(H2,11,12,13)/t4-,6-,7-,10-/m1/s1
Instrument: Q Exactive Orbitrap Thermo Scientific
Instrument type: LC-ESI-QFT
Ms type: MS2
Ion mode: NEGATIVE
Ionization: ESI
Fragmentation mode: HCD
Collision energy: 60 (nominal)
Resolution: 35000
Column name: XBridge C18 3.5um, 2.1x50mm, Waters
Retention time: 1.1 min
Base peak: 312.0952
Precursor m/z: 266.0895
Precursor type: [M-H]-
m/z	relative intensity	assigned
65.0145	6	C3HN2-
92.0254	38	C4H2N3-
107.0363	161	C4H3N4-
134.0472	999	C5H4N5-
