Mass spectrum: Codeine; LC-ESI-ITFT; MS2; CE: 45%; R=7500; [M+H]+
Name: Codeine
Name: (5,6)-3-Methoxy-17-methyl-7,8-didehydro-4,5-epoxymorphinan-6-ol
Name: Methylmorphine
Formula: C18H21NO3
Exact mass: 299.1521
SMILES: CN1CC[C@]23[C@@H]4[C@H]1CC5=C2C(=C(C=C5)OC)O[C@H]3[C@H](C=C4)O
InChI: InChI=1S/C18H21NO3/c1-19-8-7-18-11-4-5-13(20)17(18)22-16-14(21-2)6-3-10(15(16)18)9-12(11)19/h3-6,11-13,17,20H,7-9H2,1-2H3/t11-,12+,13-,17-,18-/m0/s1
Instrument: LTQ Orbitrap XL Thermo Scientific
Instrument type: LC-ESI-ITFT
Ms type: MS2
Ion mode: POSITIVE
Ionization: ESI
Fragmentation mode: HCD
Collision energy: 45 % (nominal)
Resolution: 7500
Column name: XBridge C18 3.5um, 2.1x50mm, Waters
Retention time: 2.8 min
Base peak: 300.1595
Precursor m/z: 300.1594
Precursor type: [M+H]+
m/z	relative intensity	assigned
58.0652	10	C3H8N+
121.0643	1	C8H9O+
137.0596	4	C8H9O2+
155.0858	2	C12H11+
159.0804	4	C11H11O+
161.0598	11	C10H9O2+
165.0701	4	C13H9+
171.0805	1	C12H11O+
174.0679	1	C11H10O2+
175.0756	5	C11H11O2+
179.0934	1	C10H13NO2+
181.0648	5	C13H9O+
181.1017	1	C14H13+
183.0805	24	C13H11O+
185.0603	2	C12H9O2+
186.0684	1	C12H10O2+
187.0754	17	C12H11O2+
187.1118	4	C13H15O+
191.0857	3	C15H11+
192.1021	3	C11H14NO2+
193.0648	12	C14H9O+
193.1009	1	C15H13+
194.0729	2	C14H10O+
195.081	1	C14H11O+
197.0961	4	C14H13O+
198.0674	1	C13H10O2+
199.0754	30	C13H11O2+
200.0834	3	C13H12O2+
201.0911	3	C13H13O2+
207.081	1	C15H11O+
209.0595	7	C14H9O2+
209.0958	4	C15H13O+
211.0751	5	C14H11O2+
212.0834	2	C14H12O2+
213.0913	8	C14H13O2+
215.1067	98	C14H15O2+
219.0805	4	C16H11O+
220.0888	1	C16H12O+
221.0966	6	C16H13O+
223.0755	5	C15H11O2+
225.0909	40	C15H13O2+
229.1099	1	C14H15NO2+
230.1174	1	C14H16NO2+
236.0831	2	C16H12O2+
237.0918	2	C16H13O2+
238.0985	2	C16H14O2+
241.0858	17	C15H13O3+
241.1223	3	C16H17O2+
243.1015	80	C15H15O3+
251.1067	7	C17H15O2+
253.1222	7	C17H17O2+
266.1174	2	C17H16NO2+
267.1254	7	C17H17NO2+
269.1168	4	C17H17O3+
272.1273	1	C16H18NO3+
282.1489	31	C18H20NO2+
285.1356	2	C17H19NO3+
300.1595	999	C18H22NO3+
