Mass spectrum: Celiprolol; LC-ESI-QFT; MS2; CE: 60; R=35000; [M-H]-
Name: Celiprolol
Name: 3-[3-acetyl-4-[3-(tert-butylamino)-2-hydroxy-propoxy]phenyl]-1,1-diethyl-urea
Formula: C20H33N3O4
Exact mass: 379.24711
SMILES: CCN(CC)C(=O)NC1=CC(=C(C=C1)OCC(CNC(C)(C)C)O)C(=O)C
InChI: InChI=1S/C20H33N3O4/c1-7-23(8-2)19(26)22-15-9-10-18(17(11-15)14(3)24)27-13-16(25)12-21-20(4,5)6/h9-11,16,21,25H,7-8,12-13H2,1-6H3,(H,22,26)
Instrument: Q Exactive Orbitrap Thermo Scientific
Instrument type: LC-ESI-QFT
Ms type: MS2
Ion mode: NEGATIVE
Ionization: ESI
Fragmentation mode: HCD
Collision energy: 60 (nominal)
Resolution: 35000
Column name: XBridge C18 3.5um, 2.1x50mm, Waters
Retention time: 5.5 min
Base peak: 378.2399
Precursor m/z: 378.2398
Precursor type: [M-H]-
m/z	relative intensity	assigned
59.0138	1	C2H3O2-
78.0348	2	C5H4N-
93.0345	1	C6H5O-
106.0298	6	C6H4NO-
118.0295	3	C7H4NO-
119.0502	1	C8H7O-
120.0456	1	C7H6NO-
134.0248	46	C7H4NO2-
134.0611	23	C8H8NO-
135.0452	5	C8H7O2-
148.0401	4	C8H6NO2-
148.0531	1	C9H8O2-
148.077	2	C9H10NO-
149.0481	41	C8H7NO2-
150.056	5	C8H8NO2-
160.0403	19	C9H6NO2-
161.0608	47	C10H9O2-
163.0764	1	C10H11O2-
175.064	1	C10H9NO2-
176.0711	999	C10H10NO2-
188.0717	1	C11H10NO2-
190.0873	308	C11H12NO2-
204.1029	100	C12H14NO2-
219.0774	149	C11H11N2O3-
247.1088	7	C13H15N2O3-
248.1165	3	C13H16N2O3-
