Mass spectrum: Nadolol; LC-ESI-QFT; MS2; CE: 75; R=35000; [M+H]+
Name: Nadolol
Name: NADOLOL
Name: (2R,3S)-5-[3-(tert-butylamino)-2-hydroxy-propoxy]tetralin-2,3-diol
Formula: C17H27NO4
Exact mass: 309.19401
SMILES: OC(CNC(C)(C)C)COc1cccc2c1C[C@H](O)[C@H](O)C2
InChI: InChI=1S/C17H27NO4/c1-17(2,3)18-9-12(19)10-22-16-6-4-5-11-7-14(20)15(21)8-13(11)16/h4-6,12,14-15,18-21H,7-10H2,1-3H3/t12?,14-,15+/m1/s1
Instrument: Q Exactive Orbitrap Thermo Scientific
Instrument type: LC-ESI-QFT
Ms type: MS2
Ion mode: POSITIVE
Ionization: ESI
Fragmentation mode: HCD
Collision energy: 75 (nominal)
Resolution: 35000
Column name: XBridge C18 3.5um, 2.1x50mm, Waters
Retention time: 4.2 min
Base peak: 310.2016
Precursor m/z: 310.2013
Precursor type: [M+H]+
m/z	relative intensity	assigned
53.0024	4	C3HO+
55.018	5	C3H3O+
56.0496	615	C3H6N+
57.0699	248	C4H9+
58.0652	39	C3H8N+
72.0444	69	C3H6NO+
74.0601	999	C3H8NO+
79.0542	6	C6H7+
91.0543	215	C7H7+
103.0543	18	C8H7+
105.0338	4	C7H5O+
105.0698	26	C8H9+
107.0492	54	C7H7O+
115.0542	90	C9H7+
116.0621	16	C9H8+
117.0699	201	C9H9+
119.0491	8	C8H7O+
119.0856	45	C9H11+
127.054	5	C10H7+
128.0621	184	C10H8+
129.0699	169	C10H9+
130.0777	14	C10H10+
131.0493	109	C9H7O+
131.0856	78	C10H11+
132.057	37	C9H8O+
133.0649	156	C9H9O+
135.0806	36	C9H11O+
141.0699	49	C11H9+
143.0857	253	C11H11+
144.0571	51	C10H8O+
145.0649	821	C10H9O+
147.0805	410	C10H11O+
152.0624	4	C12H8+
153.07	144	C12H9+
154.0776	31	C12H10+
155.0604	41	C10H7N2+
155.0856	292	C12H11+
156.057	6	C11H8O+
157.065	194	C11H9O+
158.0726	24	C11H10O+
159.0806	436	C11H11O+
160.052	23	C10H8O2+
161.0598	27	C10H9O2+
161.0962	8	C11H13O+
163.0755	18	C10H11O2+
165.0699	98	C13H9+
168.0571	35	C12H8O+
169.0645	4	C12H9O+
170.0727	24	C12H10O+
171.0805	503	C12H11O+
172.088	15	C12H12O+
173.0598	6	C11H9O2+
173.0962	89	C12H13O+
174.0915	25	C11H12NO+
175.0755	41	C11H11O2+
182.0728	8	C13H10O+
183.0806	455	C13H11O+
189.0913	7	C12H13O2+
201.0911	230	C13H13O2+
236.1283	5	C13H18NO3+
