Mass spectrum: Cycloxaprid; LC-ESI-QFT; MS2; CE: 150%; R=17500; [M+H]+
Name: Cycloxaprid
Name: 1-((6-chloropyridin-3-yl)methyl)-9-nitro-2,3,5,6,7,8-hexahydro-1H-5,8-epoxyimidazo[1,2-a]azepine
Name: 5-[(6-chloropyridin-3-yl)methyl]-7-nitro-11-oxa-2,5-diazatricyclo[6.2.1.02,6]undec-6-ene
Formula: C14H15ClN4O3
Exact mass: 322.0833
SMILES: C1CC2N3CCN(C3=C(C1O2)[N+](=O)[O-])CC4=CN=C(C=C4)Cl
InChI: InChI=1S/C14H15ClN4O3/c15-11-3-1-9(7-16-11)8-17-5-6-18-12-4-2-10(22-12)13(14(17)18)19(20)21/h1,3,7,10,12H,2,4-6,8H2
Instrument: Exploris 240 Orbitrap Thermo Scientific
Instrument type: LC-ESI-QFT
Ms type: MS2
Ion mode: POSITIVE
Ionization: ESI
Fragmentation mode: HCD
Collision energy: 150 % (nominal)
Resolution: 17500
Column name: XBridge C18 3.5um, 2.1x50mm, Waters
Retention time: 2.935 min
Base peak: 323.0906
Precursor m/z: 323.0905
Precursor type: [M+H]+
m/z	relative intensity	assigned
51.023	28	C4H3+
52.0183	31	C3H2N+
53.0386	132	C4H5+
54.0339	133	C3H4N+
54.0465	42	C4H6+
55.0543	37	C4H7+
56.0496	58	C3H6N+
63.0229	367	C5H3+
64.0182	73	C4H2N+
64.0307	35	C5H4+
65.0384	144	C5H5+
66.0338	29	C4H4N+
66.0463	35	C5H6+
67.0417	108	C4H5N+
67.0544	46	C5H7+
68.0494	135	C4H6N+
72.984	903	C3H2Cl+
76.018	30	C5H2N+
77.0387	63	C6H5+
78.0339	155	C5H4N+
79.054	28	C6H7+
80.0496	219	C5H6N+
81.0448	83	C4H5N2+
81.0573	26	C5H7N+
82.0528	25	C4H6N2+
82.0652	83	C5H8N+
89.0385	37	C7H5+
90.0339	727	C6H4N+
91.0417	274	C6H5N+
93.0451	59	C5H5N2+
94.0649	96	C6H8N+
95.0604	52	C5H7N2+
96.0445	81	C5H6NO+
98.9997	999	C5H4Cl+
102.034	42	C7H4N+
104.0497	49	C7H6N+
105.0449	23	C6H5N2+
107.0605	75	C6H7N2+
108.0683	84	C6H8N2+
115.042	34	C8H5N+
116.0498	51	C8H6N+
117.0576	61	C8H7N+
121.0762	441	C7H9N2+
126.0106	498	C6H5ClN+
129.0449	48	C8H5N2+
139.0055	31	C6H4ClN2+
142.0531	43	C9H6N2+
165.021	33	C11H3NO+
