Mass spectrum: MCLY; LC-ESI-QFT; MS2; CE: 150%; R=17500; [M+H]+
Name: MCLY
Name: Microcystin LY
Name: (5R,8S,11R,12S,15S,18S,19S,22R)-15-[(4-hydroxyphenyl)methyl]-18-[(1E,3E,5S,6S)-6-methoxy-3,5-dimethyl-7-phenylhepta-1,3-dienyl]-1,5,12,19-tetramethyl-2-methylidene-8-(2-methylpropyl)-3,6,9,13,16,20,25-heptaoxo-1,4,7,10,14,17,21-heptazacyclopentacosane-11,22-dicarboxylic acid
Class: NA
Formula: C52H71N7O13
Exact mass: 1001.5110
SMILES: COC(Cc1ccccc1)C(C)\C=C(C)\C=C/C2NC(=O)C(Cc3ccc(O)cc3)NC(=O)C(C)C(NC(=O)C(CC(C)C)NC(=O)C(C)NC(=O)C(=C)N(C)C(=O)CCC(NC(=O)C2C)C(O)=O)C(O)=O
InChI: InChI=1S/C52H71N7O13/c1-28(2)24-40-50(67)58-44(52(70)71)32(6)46(63)56-41(26-36-17-19-37(60)20-18-36)49(66)54-38(21-16-29(3)25-30(4)42(72-10)27-35-14-12-11-13-15-35)31(5)45(62)55-39(51(68)69)22-23-43(61)59(9)34(8)48(65)53-33(7)47(64)57-40/h11-21,25,28,30-33,38-42,44,60H,8,22-24,26-27H2,1-7,9-10H3,(H,53,65)(H,54,66)(H,55,62)(H,56,63)(H,57,64)(H,58,67)(H,68,69)(H,70,71)/b21-16-,29-25+
Instrument: Q Exactive Plus Orbitrap Thermo Scientific
Instrument type: LC-ESI-QFT
Ms type: MS2
Ion mode: POSITIVE
Ionization: ESI
Fragmentation mode: HCD
Collision energy: 150 % (nominal)
Resolution: 17500
Column name: XBridge C18 3.5um, 2.1x50mm, Waters
Retention time: 10.738 min
Base peak: 164.9846
Precursor m/z: 1002.5183
Precursor type: [M+H]+
m/z	relative intensity	assigned
74.0236	10	C2H4NO2+
77.0385	40	C6H5+
78.0465	5	C6H6+
79.0542	200	C6H7+
80.0494	57	C5H6N+
81.0335	5	C5H5O+
81.0447	4	C4H5N2+
81.0572	6	C5H7N+
81.0699	10	C6H9+
82.0287	17	C4H4NO+
82.0651	71	C5H8N+
84.0444	83	C4H6NO+
86.0599	9	C4H8NO+
86.0965	32	C5H12N+
91.0543	999	C7H7+
92.0619	16	C7H8+
93.0575	8	C6H7N+
93.0699	84	C7H9+
94.0652	35	C6H8N+
95.0492	341	C6H7O+
95.0857	7	
96.0445	9	C5H6NO+
96.0684	6	C5H8N2+
96.0808	7	C6H10N+
99.0916	27	C5H11N2+
102.0465	28	C8H6+
103.0542	613	C8H7+
104.0622	3	C8H8+
105.0448	120	C6H5N2+
105.0699	290	C8H9+
106.0524	11	C6H6N2+
106.0651	7	C7H8N+
107.0491	42	C7H7O+
107.0604	4	
107.0855	198	C8H11+
108.0682	9	C6H8N2+
108.0808	6	C7H10N+
109.0647	57	C7H9O+
110.0599	11	C6H8NO+
113.0234	22	C5H5O3+
115.0542	99	C9H7+
116.0619	16	C9H8+
117.0572	7	C8H7N+
117.0698	45	C9H9+
118.0649	15	C8H8N+
119.0491	77	C8H7O+
119.0603	36	C7H7N2+
119.0852	19	C9H11+
120.057	7	C8H8O+
120.0807	14	C8H10N+
120.0938	7	C9H12+
121.076	57	C7H9N2+
122.0837	7	C7H10N2+
127.0866	89	C6H11N2O+
128.0621	45	C10H8+
129.07	27	C10H9+
130.0652	13	C9H8N+
130.0776	8	C10H10+
131.0858	21	C10H11+
133.101	4	C10H13+
135.0806	11	C9H11O+
135.1165	4	C10H15+
136.0757	45	C8H10NO+
144.0445	3	C9H6NO+
144.0809	5	C10H10N+
146.06	16	C9H8NO+
149.0708	12	C8H9N2O+
155.0601	8	C10H7N2+
159.068	4	C10H9NO+
159.0802	4	C11H11O+
165.07	25	C13H9+
166.0778	3	C13H10+
167.0816	11	C8H11N2O2+
178.0779	7	C14H10+
179.0855	12	C14H11+
