Mass spectrum: Gabapentin; LC-ESI-ITFT; MS2; CE: 75%; R=15000; [M+H]+
Name: Gabapentin
Name: 1-(Aminomethyl)cyclohexaneacetic acid
Name: 2-[1-(aminomethyl)cyclohexyl]acetic acid
Formula: C9H17NO2
Exact mass: 171.1259
SMILES: NCC1(CC(O)=O)CCCCC1
InChI: InChI=1S/C9H17NO2/c10-7-9(6-8(11)12)4-2-1-3-5-9/h1-7,10H2,(H,11,12)
Instrument: LTQ Orbitrap XL Thermo Scientific
Instrument type: LC-ESI-ITFT
Ms type: MS2
Ion mode: POSITIVE
Ionization: ESI
Fragmentation mode: HCD
Collision energy: 75 % (nominal)
Resolution: 15000
Column name: XBridge C18 3.5um, 2.1x50mm, Waters
Retention time: 3.6 min
Base peak: 172.1336
Precursor m/z: 172.1332
Precursor type: [M+H]+
m/z	relative intensity	assigned
55.0178	244	C3H3O+
65.0386	10	C5H5+
67.0542	428	C5H7+
69.0699	17	C5H9+
71.0491	6	C4H7O+
72.0442	5	C3H6NO+
77.0385	16	C6H5+
79.0543	22	C6H7+
81.0699	58	C6H9+
83.0855	16	C6H11+
91.0542	354	C7H7+
93.0699	277	C7H9+
95.0856	999	C7H11+
107.0858	9	C8H11+
109.1012	426	C8H13+
110.0964	88	C7H12N+
112.112	36	C7H14N+
117.0696	9	C9H9+
119.0855	486	C9H11+
126.1277	46	C8H16N+
136.1121	115	C9H14N+
137.0961	478	C9H13O+
154.1226	662	C9H16NO+
155.1066	16	C9H15O2+
