Mass spectrum: CGA62826 (2-[2,6-dimethylphenyl)-methoxyacetylamino]propionic acid; LC-ESI-QFT; MS2; CE: 120; R=35000; [M+H]+
Name: CGA62826 (2-[2,6-dimethylphenyl)-methoxyacetylamino]propionic acid
Name: N-(2,6-Dimethylphenyl)-N-(methoxyacetyl)-L-alanine
Name: (2S)-2-(N-(2-methoxyacetyl)-2,6-dimethylanilino)propanoic acid
Formula: C14H19NO4
Exact mass: 265.13141
SMILES: Cc1cccc(c1N([C@@H](C)C(=O)O)C(=O)COC)C
InChI: InChI=1S/C14H19NO4/c1-9-6-5-7-10(2)13(9)15(11(3)14(17)18)12(16)8-19-4/h5-7,11H,8H2,1-4H3,(H,17,18)/t11-/m0/s1
Instrument: Q Exactive Plus Orbitrap Thermo Scientific
Instrument type: LC-ESI-QFT
Ms type: MS2
Ion mode: POSITIVE
Ionization: ESI
Fragmentation mode: HCD
Collision energy: 120 (nominal)
Resolution: 35000
Column name: XBridge C18 3.5um, 2.1x50mm, Waters
Retention time: 7.8 min
Base peak: 266.1385
Precursor m/z: 266.1387
Precursor type: [M+H]+
m/z	relative intensity	assigned
50.0151	9	C4H2+
51.0229	26	C4H3+
53.0386	93	C4H5+
54.0339	4	C3H4N+
55.0179	9	C3H3O+
56.0495	11	C3H6N+
65.0386	98	C5H5+
66.0464	4	C5H6+
67.0542	5	C5H7+
68.0495	2	C4H6N+
77.0385	148	C6H5+
78.0464	40	C6H6+
79.0542	658	C6H7+
80.0495	17	C5H6N+
81.0335	4	C5H5O+
89.0385	13	C7H5+
90.0466	19	C7H6+
91.0543	881	C7H7+
92.0495	10	C6H6N+
92.0621	10	C7H8+
93.0573	19	C6H7N+
93.07	36	C7H9+
94.0652	19	C6H8N+
95.0492	323	C6H7O+
96.0446	3	C5H6NO+
102.0464	14	C8H6+
103.0542	410	C8H7+
104.0494	29	C7H6N+
104.0621	32	C8H8+
105.0448	195	C6H5N2+
105.0699	673	C8H9+
106.0651	237	C7H8N+
106.0776	39	C8H10+
107.0729	38	C7H9N+
107.0855	26	C8H11+
108.0805	3	C7H10N+
109.0649	14	C7H9O+
110.06	3	C6H8NO+
115.0542	226	C9H7+
116.0496	3	C8H6N+
116.0621	36	C9H8+
117.0573	999	C8H7N+
117.0698	111	C9H9+
118.0651	401	C8H8N+
119.0604	16	C7H7N2+
119.073	87	C8H9N+
119.0856	23	C9H11+
120.0808	249	C8H10N+
121.0887	35	C8H11N+
128.0496	5	C9H6N+
128.0621	41	C10H8+
129.0575	3	C9H7N+
129.0699	5	C10H9+
130.0652	811	C9H8N+
131.073	92	C9H9N+
131.0855	4	C10H11+
132.0808	895	C9H10N+
133.0521	13	C8H7NO+
133.0886	92	C9H11N+
134.06	104	C8H8NO+
134.0964	504	C9H12N+
135.0678	33	C8H9NO+
142.0652	5	C10H8N+
143.073	32	C10H9N+
144.0808	837	C10H10N+
145.0886	113	C10H11N+
146.0602	12	C9H8NO+
146.0963	31	C10H12N+
148.0757	89	C9H10NO+
148.1121	49	C10H14N+
149.0834	22	C9H11NO+
150.0916	9	C9H12NO+
155.0606	9	C10H7N2+
158.0966	12	C11H12N+
160.1121	11	C11H14N+
164.107	4	C10H14NO+
