Mass spectrum: Alfuzosin; LC-ESI-QFT; MS2; CE: 45; R=35000; [M-H]-
Name: Alfuzosin
Name: N-{3-[(4-Amino-6,7-dimethoxy-2-quinazolinyl)(methyl)amino]propyl}tetrahydro-2-furancarboxamide
Name: N-[3-[(4-amino-6,7-dimethoxyquinazolin-2-yl)-methylamino]propyl]oxolane-2-carboxamide
Formula: C19H27N5O4
Exact mass: 389.20630
SMILES: CN(CCCNC(=O)C1CCCO1)C2=NC3=CC(=C(C=C3C(=N2)N)OC)OC
InChI: InChI=1S/C19H27N5O4/c1-24(8-5-7-21-18(25)14-6-4-9-28-14)19-22-13-11-16(27-3)15(26-2)10-12(13)17(20)23-19/h10-11,14H,4-9H2,1-3H3,(H,21,25)(H2,20,22,23)
Instrument: Q Exactive Plus Orbitrap Thermo Scientific
Instrument type: LC-ESI-QFT
Ms type: MS2
Ion mode: NEGATIVE
Ionization: ESI
Fragmentation mode: HCD
Collision energy: 45 (nominal)
Resolution: 35000
Column name: XBridge C18 3.5um, 2.1x50mm, Waters
Retention time: 5.3 min
Base peak: 434.2043
Precursor m/z: 388.199
Precursor type: [M-H]-
m/z	relative intensity	assigned
55.0301	16	C2H3N2-
72.0092	9	C2H2NO2-
84.0455	48	C4H6NO-
86.0248	1	C3H4NO2-
96.0455	4	C5H6NO-
114.056	93	C5H8NO2-
115.0401	3	C5H7O3-
119.025	3	C6H3N2O-
136.004	2	C6H2NO3-
144.02	1	C7H2N3O-
147.02	13	C7H3N2O2-
158.0117	1	C8H2N2O2-
160.0517	6	C8H6N3O-
162.0313	23	C7H4N3O2-
162.0435	117	C8H6N2O2-
172.0153	3	C8H2N3O2-
173.023	1	C8H3N3O2-
173.0356	10	C9H5N2O2-
174.0307	3	C8H4N3O2-
174.055	1	C8H6N4O-
175.0623	7	C8H7N4O-
176.0465	7	C8H6N3O2-
177.0669	15	C9H9N2O2-
177.0789	1	C8H9N4O-
185.1298	3	C9H17N2O2-
187.0387	31	C9H5N3O2-
188.0465	29	C9H6N3O2-
189.0542	6	C9H7N3O2-
189.0781	1	C9H9N4O-
190.0625	1	C9H8N3O2-
200.0464	1	C10H6N3O2-
201.0417	1	C9H5N4O2-
202.0497	54	C9H6N4O2-
202.0621	10	C10H8N3O2-
202.086	4	C10H10N4O-
203.0576	223	C9H7N4O2-
203.07	143	C10H9N3O2-
204.0654	1	C9H8N4O2-
204.0778	6	C10H10N3O2-
205.0491	1	C9H7N3O3-
205.073	4	C9H9N4O2-
210.1249	5	C10H16N3O2-
215.0576	1	C10H7N4O2-
215.07	3	C11H9N3O2-
215.0935	4	C11H11N4O-
216.0653	20	C10H8N4O2-
216.0777	11	C11H10N3O2-
217.0731	384	C10H9N4O2-
218.081	328	C10H10N4O2-
219.0886	4	C10H11N4O2-
221.0679	1	C9H9N4O3-
228.0653	5	C11H8N4O2-
229.0728	1	C11H9N4O2-
229.1096	1	C12H13N4O-
230.0809	164	C11H10N4O2-
231.0887	151	C11H11N4O2-
232.0965	1	C11H12N4O2-
233.1044	65	C11H13N4O2-
235.0598	6	C10H9N3O4-
242.1049	1	C12H12N5O-
243.0886	80	C12H11N4O2-
244.0963	34	C12H12N4O2-
245.1044	611	C12H13N4O2-
257.1048	3	C13H13N4O2-
258.1121	42	C13H14N4O2-
259.1198	77	C13H15N4O2-
260.1152	8	C12H14N5O2-
273.1356	7	C14H17N4O2-
274.1311	4	C13H16N5O2-
275.1388	11	C13H17N5O2-
287.1023	20	C13H13N5O3-
290.1621	6	C14H20N5O2-
302.1259	122	C14H16N5O3-
303.1335	1	C14H17N5O3-
329.1252	3	C16H17N4O4-
330.1215	12	C15H16N5O4-
330.1573	57	C16H20N5O3-
331.1413	99	C16H19N4O4-
342.1564	2	C17H20N5O3-
343.1279	3	C16H17N5O4-
344.173	1	C17H22N5O3-
345.144	18	C16H19N5O4-
358.1522	999	C17H20N5O4-
372.1675	6	C18H22N5O4-
373.1755	115	C18H23N5O4-
376.1626	27	C17H22N5O5-
388.1991	8	C19H26N5O4-
