Mass spectrum: Linezolid; LC-ESI-QFT; MS2; CE: 30; R=35000; [M+H]+
Name: Linezolid
Name: N-[[(5S)-3-(3-fluoro-4-morpholin-4-ylphenyl)-2-oxo-1,3-oxazolidin-5-yl]methyl]acetamide
Formula: C16H20FN3O4
Exact mass: 337.14378
SMILES: CC(=O)NC[C@H]1CN(C(=O)O1)C2=CC(=C(C=C2)N3CCOCC3)F
InChI: InChI=1S/C16H20FN3O4/c1-11(21)18-9-13-10-20(16(22)24-13)12-2-3-15(14(17)8-12)19-4-6-23-7-5-19/h2-3,8,13H,4-7,9-10H2,1H3,(H,18,21)/t13-/m0/s1
Instrument: Q Exactive Orbitrap Thermo Scientific
Instrument type: LC-ESI-QFT
Ms type: MS2
Ion mode: POSITIVE
Ionization: ESI
Fragmentation mode: HCD
Collision energy: 30 (nominal)
Resolution: 35000
Column name: XBridge C18 3.5um, 2.1x50mm, Waters
Retention time: 5.6 min
Base peak: 338.1509
Precursor m/z: 338.1511
Precursor type: [M+H]+
m/z	relative intensity	assigned
56.0495	34	C3H6N+
60.0444	4	C2H6NO+
84.0444	2	C4H6NO+
86.06	2	C4H8NO+
98.06	15	C5H8NO+
116.0705	2	C5H10NO2+
124.0556	2	C7H7FN+
148.0556	17	C9H7FN+
149.0508	2	C8H6FN2+
149.0636	11	C9H8FN+
150.0714	1	C9H9FN+
151.0665	9	C8H8FN2+
152.0741	1	C8H9FN2+
162.071	6	C10H9FN+
163.0665	19	C9H8FN2+
165.0823	6	C9H10FN2+
169.0759	11	C11H9N2+
171.0915	5	C11H11N2+
172.0553	1	C11H7FN+
174.0588	5	C10H7FN2+
176.0745	2	C10H9FN2+
177.0459	2	C9H6FN2O+
177.0823	6	C10H10FN2+
179.0975	4	C10H12FN2+
181.0893	6	C10H12FNO+
185.1074	4	C12H13N2+
187.0667	2	C11H8FN2+
189.0822	58	C11H10FN2+
190.0899	6	C11H11FN2+
191.0978	27	C11H12FN2+
192.1056	3	C11H13FN2+
195.0927	197	C10H12FN2O+
196.1005	31	C10H13FN2O+
197.0721	6	C9H10FN2O2+
197.1084	16	C10H14FN2O+
203.1182	5	C12H15N2O+
205.0776	1	C11H10FN2O+
205.1135	1	C12H14FN2+
206.0852	2	C11H11FN2O+
206.1082	1	C11H13FN3+
207.093	1	C11H12FN2O+
208.1247	1	C16H16+
209.1084	49	C11H14FN2O+
210.1124	2	C11H16NO3+
215.1178	42	C13H15N2O+
217.1132	8	C13H14FN2+
218.0974	2	C13H13FNO+
221.1084	8	C12H14FN2O+
222.1036	16	C11H13FN3O+
223.0873	2	C11H12FN2O2+
223.1239	11	C12H16FN2O+
233.1082	3	C13H14FN2O+
235.124	276	C13H16FN2O+
241.0982	89	C11H14FN2O3+
244.1443	3	C14H18N3O+
248.1191	2	C13H15FN3O+
249.1268	7	C13H16FN3O+
250.0986	20	C12H13FN3O2+
250.1347	2	C13H17FN3O+
251.106	1	C12H14FN3O2+
251.1432	4	C13H18FN3O+
252.1142	20	C12H15FN3O2+
252.1507	6	C13H19FN3O+
253.0984	3	C12H14FN2O3+
276.1505	1	C15H19FN3O+
277.1352	2	C15H18FN2O2+
278.1302	9	C14H17FN3O2+
279.1143	9	C14H16FN2O3+
294.161	67	C15H21FN3O2+
296.1404	687	C14H19FN3O3+
297.1241	7	C14H18FN2O4+
338.1508	999	C16H21FN3O4+
