Mass spectrum: Letrozole; LC-ESI-QFT; MS2; CE: 75; R=35000; [M-H]-
Name: Letrozole
Name: 4-[(4-cyanophenyl)-(1,2,4-triazol-1-yl)methyl]benzonitrile
Formula: C17H11N5
Exact mass: 285.10145
SMILES: C1=CC(=CC=C1C#N)C(C2=CC=C(C=C2)C#N)N3C=NC=N3
InChI: InChI=1S/C17H11N5/c18-9-13-1-5-15(6-2-13)17(22-12-20-11-21-22)16-7-3-14(10-19)4-8-16/h1-8,11-12,17H
Instrument: Q Exactive Plus Orbitrap Thermo Scientific
Instrument type: LC-ESI-QFT
Ms type: MS2
Ion mode: NEGATIVE
Ionization: ESI
Fragmentation mode: HCD
Collision energy: 75 (nominal)
Resolution: 35000
Column name: XBridge C18 3.5um, 2.1x50mm, Waters
Retention time: 6.6 min
Base peak: 284.0946
Precursor m/z: 284.0942
Precursor type: [M-H]-
m/z	relative intensity	assigned
66.0098	80	C2N3-
68.0254	6	C2H2N3-
102.0349	420	C7H4N-
115.0302	7	C7H3N2-
118.03	2	C7H4NO-
126.0349	14	C9H4N-
127.0302	334	C8H3N2-
140.0252	1	C8H2N3-
141.0458	245	C9H5N2-
142.041	18	C8H4N3-
153.0331	3	C9H3N3-
153.0459	1	C10H5N2-
155.049	3	C9H5N3-
180.044	7	C10H4N4-
182.0598	4	C10H6N4-
188.0506	4	C14H6N-
191.0612	3	C13H7N2-
213.0461	1	C15H5N2-
214.0538	2	C15H6N2-
215.0616	999	C15H7N2-
217.0769	1	C15H9N2-
228.0694	5	C16H8N2-
229.0773	2	C16H9N2-
240.0568	277	C16H6N3-
242.0724	309	C16H8N3-
253.0645	1	C17H7N3-
256.0761	1	C16H8N4-
257.0837	1	C16H9N4-
