Mass spectrum: Amoxicillin; LC-ESI-QFT; MS2; CE: 60; R=35000; [M+H]+
Name: Amoxicillin
Name: Amoxicillin anhydrous
Name: (2S,5R,6R)-6-[[(2R)-2-amino-2-(4-hydroxyphenyl)-1-oxoethyl]amino]-3,3-dimethyl-7-oxo-4-thia-1-azabicyclo[3.2.0]heptane-2-carboxylic acid
Formula: C16H19N3O5S
Exact mass: 365.10454
SMILES: CC1(C)S[C@@H]2[C@H](NC(=O)[C@H](N)C3=CC=C(O)C=C3)C(=O)N2[C@H]1C(O)=O
InChI: InChI=1S/C16H19N3O5S/c1-16(2)11(15(23)24)19-13(22)10(14(19)25-16)18-12(21)9(17)7-3-5-8(20)6-4-7/h3-6,9-11,14,20H,17H2,1-2H3,(H,18,21)(H,23,24)/t9-,10-,11+,14-/m1/s1
Instrument: Q Exactive Orbitrap Thermo Scientific
Instrument type: LC-ESI-QFT
Ms type: MS2
Ion mode: POSITIVE
Ionization: ESI
Fragmentation mode: HCD
Collision energy: 60 (nominal)
Resolution: 35000
Column name: XBridge C18 3.5um, 2.1x50mm, Waters
Retention time: 2.3 min
Base peak: 366.1119
Precursor m/z: 366.1118
Precursor type: [M+H]+
m/z	relative intensity	assigned
58.995	15	C2H3S+
65.0385	1	C5H5+
68.013	17	C3H2NO+
68.0494	11	C4H6N+
70.0287	10	C3H4NO+
70.0651	125	C4H8N+
71.0491	8	C4H7O+
72.0807	2	C4H10N+
74.0059	4	C2H4NS+
79.0543	6	C6H7+
81.0335	1	C5H5O+
82.0652	9	C5H8N+
84.0808	3	C5H10N+
86.0059	125	C3H4NS+
87.0263	10	C4H7S+
89.0387	1	C7H5+
91.0542	5	C7H7+
94.0651	19	C6H8N+
95.049	6	C6H7O+
96.0444	28	C5H6NO+
97.0397	2	C4H5N2O+
98.06	3	C5H8NO+
98.1293	1	C2H16N3O+
99.0441	6	C5H7O2+
102.0008	1	C3H4NOS+
105.0335	1	C7H5O+
106.0651	43	C7H8N+
107.0491	61	C7H7O+
109.076	7	C6H9N2+
110.06	7	C6H8NO+
111.0918	3	C6H11N2+
113.0346	4	C4H5N2O2+
114.0008	999	C4H4NOS+
114.0371	129	C5H8NS+
116.0494	1	C8H6N+
116.0704	1	C5H10NO2+
117.0572	3	C8H7N+
119.0492	15	C8H7O+
120.0444	3	C7H6NO+
120.0569	1	C8H8O+
121.0647	7	C8H9O+
122.06	45	C7H8NO+
126.0371	4	C6H8NS+
128.0528	1	C6H10NS+
128.0707	4	C6H10NO2+
129.9959	4	C4H4NO2S+
131.0492	4	C9H7O+
132.0443	1	C8H6NO+
132.057	3	C9H8O+
133.0283	10	C8H5O2+
133.0523	10	C8H7NO+
134.0364	25	C8H6O2+
134.06	499	C8H8NO+
135.0262	1	C8H7S+
135.0441	6	C8H7O2+
136.0758	1	C8H10NO+
137.0056	96	C7H5OS+
137.0709	67	C7H9N2O+
138.0135	1	C7H6OS+
139.0212	19	C7H7OS+
139.0866	4	C7H11N2O+
141.0482	2	C6H9N2S+
142.0323	7	C6H8NOS+
144.0557	6	C8H6N3+
145.052	1	C9H7NO+
145.0648	1	C10H9O+
146.06	15	C9H8NO+
147.0262	1	C9H7S+
147.0679	5	C9H9NO+
148.0759	1	C9H10NO+
151.0213	10	C8H7OS+
153.0368	10	C8H9OS+
154.0326	1	C7H8NOS+
160.0427	58	C6H10NO2S+
161.0711	2	C9H9N2O+
162.0549	55	C9H8NO2+
163.0211	35	C9H7OS+
165.0659	56	C8H9N2O2+
166.0319	5	C8H8NOS+
167.0815	1	C8H11N2O2+
169.043	2	C7H9N2OS+
173.0712	1	C10H9N2O+
174.0548	6	C10H8NO2+
174.0914	3	C11H12NO+
178.0321	50	C9H8NOS+
180.0477	28	C9H10NOS+
181.0432	5	C8H9N2OS+
185.0919	1	C8H13N2O3+
188.0165	3	C10H6NOS+
190.0321	2	C10H8NOS+
190.0501	3	C10H8NO3+
191.0162	1	C10H7O2S+
193.0606	4	C9H9N2O3+
201.0421	2	C11H7NO3+
206.0271	12	C10H8NO2S+
208.0429	1	C10H10NO2S+
209.0378	1	C9H9N2O2S+
211.0534	3	C9H11N2O2S+
216.0122	1	C11H6NO2S+
216.1018	3	C13H14NO2+
234.0216	6	C11H8NO3S+
275.0855	1	C14H15N2O2S+
