Mass spectrum: Propyzamide; LC-ESI-QFT; MS2; CE: 75; R=35000; [M+H]+
Name: Propyzamide
Name: 3,5-bis(chloranyl)-N-(2-methylbut-3-yn-2-yl)benzamide
Name: Promamide
Formula: C12H11Cl2NO
Exact mass: 255.02177
SMILES: Clc1cc(C(=O)NC(C#C)(C)C)cc(Cl)c1
InChI: InChI=1S/C12H11Cl2NO/c1-4-12(2,3)15-11(16)8-5-9(13)7-10(14)6-8/h1,5-7H,2-3H3,(H,15,16)
Instrument: Q Exactive Orbitrap Thermo Scientific
Instrument type: LC-ESI-QFT
Ms type: MS2
Ion mode: POSITIVE
Ionization: ESI
Fragmentation mode: HCD
Collision energy: 75 (nominal)
Resolution: 35000
Column name: XBridge C18 3.5um, 2.1x50mm, Waters
Retention time: 11.0 min
Base peak: 256.0295
Precursor m/z: 256.029
Precursor type: [M+H]+
m/z	relative intensity	assigned
53.0025	10	ClH4N+
62.9634	8	CClO+
65.0387	153	C5H5+
67.0543	187	C5H7+
67.9894	2	C3O2+
74.0152	6	C6H2+
75.0228	1	C6H3+
84.984	63	C4H2Cl+
86.9633	27	C3ClO+
86.9996	1	C4H4Cl+
98.9997	1	C5H4Cl+
108.984	77	C6H2Cl+
109.9915	2	C6H3Cl+
110.9997	6	C6H4Cl+
112.9789	14	C5H2ClO+
113.9867	2	C5H3ClO+
120.9607	29	C4H3Cl2+
126.9946	44	C6H4ClO+
128.0024	50	C6H5ClO+
129.0102	19	C6H6ClO+
139.0058	56	C9HNO+
144.9607	76	C6H3Cl2+
145.0052	8	C3H9Cl2NO+
146.9763	48	C6H5Cl2+
148.9556	2	C5H3Cl2O+
162.9712	145	C6H5Cl2O+
171.9717	25	C7H4Cl2N+
172.956	950	C7H3Cl2O+
172.9666	999	C9ClNO+
173.9638	7	C7H4Cl2O+
189.9822	42	C7H6Cl2NO+
