Mass spectrum: Metoxuron; LC-ESI-QFT; MS2; CE: 30; R=35000; [M+H]+
Name: Metoxuron
Name: 3-(3-chloro-4-methoxyphenyl)-1,1-dimethylurea
Formula: C10H13ClN2O2
Exact mass: 228.06656
SMILES: Clc1cc(ccc1OC)NC(=O)N(C)C
InChI: InChI=1S/C10H13ClN2O2/c1-13(2)10(14)12-7-4-5-9(15-3)8(11)6-7/h4-6H,1-3H3,(H,12,14)
Instrument: Q Exactive Plus Orbitrap Thermo Scientific
Instrument type: LC-ESI-QFT
Ms type: MS2
Ion mode: POSITIVE
Ionization: ESI
Fragmentation mode: HCD
Collision energy: 30 (nominal)
Resolution: 35000
Column name: XBridge C18 3.5um, 2.1x50mm, Waters
Retention time: 6.1 min
Base peak: 229.0737
Precursor m/z: 229.0738
Precursor type: [M+H]+
m/z	relative intensity	assigned
56.013	1	C2H2NO+
72.0443	999	C3H6NO+
122.06	1	C7H8NO+
149.0472	1	C8H7NO2+
156.021	17	C7H7ClNO+
184.016	13	C8H7ClNO2+
194.1046	2	C10H14N2O2+
229.0738	719	C10H14ClN2O2+
