Mass spectrum: Emtricitabine; LC-ESI-QFT; MS2; CE: 60; R=35000; [M+H]+
Name: Emtricitabine
Name: 4-amino-5-fluoro-1-[(2R,5S)-2-(hydroxymethyl)-1,3-oxathiolan-5-yl]-2-pyrimidinone
Formula: C8H10FN3O3S
Exact mass: 247.04269
SMILES: FC=1\C(=N/C(=O)N(C=1)[C@H]2O[C@H](SC2)CO)\N
InChI: InChI=1S/C8H10FN3O3S/c9-4-1-12(8(14)11-7(4)10)5-3-16-6(2-13)15-5/h1,5-6,13H,2-3H2,(H2,10,11,14)/t5-,6+/m0/s1
Instrument: Q Exactive Orbitrap Thermo Scientific
Instrument type: LC-ESI-QFT
Ms type: MS2
Ion mode: POSITIVE
Ionization: ESI
Fragmentation mode: HCD
Collision energy: 60 (nominal)
Resolution: 35000
Column name: XBridge C18 3.5um, 2.1x50mm, Waters
Retention time: 2.1 min
Base peak: 130.0412
Precursor m/z: 248.05
Precursor type: [M+H]+
m/z	relative intensity	assigned
61.0107	13	C2H5S+
73.0106	48	C3H5S+
74.9899	4	C2H3OS+
85.0197	1	C3H2FN2+
87.0353	12	C3H4FN2+
91.0212	2	C3H7OS+
101.0056	33	C4H5OS+
112.0305	2	C4H3FN3+
113.0145	29	C4H2FN2O+
130.0412	999	C4H5FN3O+
131.025	2	C4H4FN2O2+
