Mass spectrum: Cyprodinil; LC-ESI-ITFT; MS2; CE: 45%; R=7500; [M+H]+
Name: Cyprodinil
Name: (4-cyclopropyl-6-methyl-pyrimidin-2-yl)-phenyl-amine
Formula: C14H15N3
Exact mass: 225.1260
SMILES: c1ccccc1Nc1nc(C2CC2)cc(C)n1
InChI: InChI=1S/C14H15N3/c1-10-9-13(11-7-8-11)17-14(15-10)16-12-5-3-2-4-6-12/h2-6,9,11H,7-8H2,1H3,(H,15,16,17)
Instrument: LTQ Orbitrap XL Thermo Scientific
Instrument type: LC-ESI-ITFT
Ms type: MS2
Ion mode: POSITIVE
Ionization: ESI
Fragmentation mode: HCD
Collision energy: 45 % (nominal)
Resolution: 7500
Column name: XBridge C18 3.5um, 2.1x50mm, Waters
Retention time: 9.4 min
Base peak: 226.1338
Precursor m/z: 226.1339
Precursor type: [M+H]+
m/z	relative intensity	assigned
93.0573	1	C6H7N+
108.0808	6	C7H10N+
119.0606	1	C7H7N2+
133.0759	5	C8H9N2+
144.0807	2	C10H10N+
185.1073	4	C12H13N2+
209.1066	2	C14H13N2+
210.1028	1	C13H12N3+
211.111	1	C13H13N3+
224.1185	1	C14H14N3+
226.134	999	C14H16N3+
