Mass spectrum: Captan; LC-ESI-QFT; MS2; CE: 75; R=35000; [M+H]+
Name: Captan
Name: 1,2,3,6-tetrahydro-N-(trichloromethylthio)phthalimide
Name: (3aS,7aR)-2-(trichloromethylsulfanyl)-3a,4,7,7a-tetrahydroisoindole-1,3-dione
Formula: C9H8Cl3NO2S
Exact mass: 298.93413
SMILES: N1(C([C@@H]2CC=CC[C@@H]2C1=O)=O)SC(Cl)(Cl)Cl
InChI: InChI=1S/C9H8Cl3NO2S/c10-9(11,12)16-13-7(14)5-3-1-2-4-6(5)8(13)15/h1-2,5-6H,3-4H2/t5-,6+
Instrument: Q Exactive Orbitrap Thermo Scientific
Instrument type: LC-ESI-QFT
Ms type: MS2
Ion mode: POSITIVE
Ionization: ESI
Fragmentation mode: HCD
Collision energy: 75 (nominal)
Resolution: 35000
Column name: XBridge C18 3.5um, 2.1x50mm, Waters
Retention time: 9.4 min
Base peak: 149.0234
Precursor m/z: 299.9414
Precursor type: [M+H]+
m/z	relative intensity	assigned
50.0152	1	C4H2+
53.0387	1	C4H5+
57.07	1	C4H9+
59.0492	1	C3H7O+
59.9903	8	CH2NS+
61.9793	9	CHClN+
62.9632	7	CClO+
63.9949	1	CH3ClN+
65.0386	5	C5H5+
66.0464	3	C5H6+
66.9404	245	ClS+
69.0699	1	C5H9+
70.9949	1	C3H3S+
77.0386	21	C6H5+
78.0338	7	C5H4N+
78.0465	9	C6H6+
79.0542	999	C6H7+
79.9482	2	CHClS+
80.956	2	CH2ClS+
81.0699	5	C6H9+
85.9696	10	C2NOS+
88.9789	6	C3H2ClO+
89.0384	1	C7H5+
89.0595	1	C4H9O2+
91.0542	18	C7H7+
93.9513	46	CHClNS+
94.9353	162	CClOS+
95.0492	188	C6H7O+
95.9669	5	CH3ClNS+
96.0444	101	C5H6NO+
97.9559	49	CH2Cl2N+
98.9665	2	CH4ClOS+
101.0153	2	C5H6Cl+
104.0495	45	C7H6N+
105.0335	3	C7H5O+
105.0448	34	C6H5N2+
105.0573	30	C7H7N+
106.0652	117	C7H8N+
107.0491	17	C7H7O+
109.0106	43	C6H5S+
110.006	1	C5H4NS+
110.0184	2	C6H6S+
111.0263	23	C6H7S+
111.9948	5	C5H3ClN+
113.0027	44	C5H4ClN+
113.0153	12	C6H6Cl+
113.9092	82	CCl2S+
114.0104	6	C5H5ClN+
114.9171	11	CHCl2S+
115.0309	5	C6H8Cl+
116.9061	55	CCl3+
119.9669	8	C3H3ClNS+
120.9384	6	C2ClNOS+
121.0106	6	C7H5S+
122.0186	6	C7H6S+
123.9352	2	C2Cl2NO+
125.0153	111	C7H6Cl+
127.9123	16	CCl2NS+
128.0264	1	C6H7ClN+
129.928	61	CH2Cl2NS+
130.0054	17	C5H5ClNO+
130.9719	10	C5H4ClS+
131.967	18	C4H3ClNS+
136.0217	108	C7H6NS+
137.0295	11	C7H7NS+
138.0372	1	C7H8NS+
140.0263	11	C7H7ClN+
141.0342	1	C7H8ClN+
143.967	5	C5H3ClNS+
144.9749	17	C5H4ClNS+
144.9876	4	C6H6ClS+
145.9826	2	C5H5ClNS+
147.9619	8	C4H3ClNOS+
147.9716	105	C5H4Cl2N+
148.8782	12	CCl3S+
155.9072	293	C2Cl2NOS+
156.9875	3	C7H6ClS+
158.9763	2	C7H5Cl2+
171.9981	16	C7H7ClNS+
179.9436	57	C5H4Cl2NS+
