Mass spectrum: Prednisone; LC-ESI-QFT; MS2; CE: 15; R=35000; [M+H]+
Name: Prednisone
Name: (8S,9S,10R,13S,14S,17R)-17-hydroxy-17-(2-hydroxyacetyl)-10,13-dimethyl-6,7,8,9,12,14,15,16-octahydrocyclopenta[a]phenanthrene-3,11-dione
Formula: C21H26O5
Exact mass: 358.17802
SMILES: O=C(CO)[C@@]3(O)CC[C@H]2[C@@H]4CC\C1=C\C(=O)\C=C/[C@]1(C)[C@H]4C(=O)C[C@@]23C
InChI: InChI=1S/C21H26O5/c1-19-7-5-13(23)9-12(19)3-4-14-15-6-8-21(26,17(25)11-22)20(15,2)10-16(24)18(14)19/h5,7,9,14-15,18,22,26H,3-4,6,8,10-11H2,1-2H3/t14-,15-,18+,19-,20-,21-/m0/s1
Instrument: Q Exactive Orbitrap Thermo Scientific
Instrument type: LC-ESI-QFT
Ms type: MS2
Ion mode: POSITIVE
Ionization: ESI
Fragmentation mode: HCD
Collision energy: 15 (nominal)
Resolution: 35000
Column name: XBridge C18 3.5um, 2.1x50mm, Waters
Retention time: 7.5 min
Base peak: 359.1857
Precursor m/z: 359.1853
Precursor type: [M+H]+
m/z	relative intensity	assigned
93.0699	17	C7H9+
95.0491	5	C6H7O+
95.0856	6	C7H11+
99.0441	1	C5H7O2+
101.0598	13	C5H9O2+
107.0858	6	C8H11+
109.0649	10	C7H9O+
109.1011	1	C8H13+
111.0806	5	C7H11O+
115.0753	1	C6H11O2+
119.0855	3	C9H11+
121.0648	6	C8H9O+
123.0804	6	C8H11O+
135.0805	16	C9H11O+
137.0962	21	C9H13O+
139.0752	6	C8H11O2+
145.0648	1	C10H9O+
147.0805	111	C10H11O+
151.0759	1	C9H11O2+
153.0911	16	C9H13O2+
159.0806	21	C11H11O+
161.0962	22	C11H13O+
163.0755	11	C10H11O2+
165.0911	6	C10H13O2+
171.0805	36	C12H11O+
173.096	20	C12H13O+
175.0753	1	C11H11O2+
177.0909	1	C11H13O2+
181.0859	20	C10H13O3+
183.1017	37	C10H15O3+
185.0594	1	C12H9O2+
185.0964	6	C13H13O+
187.0755	20	C12H11O2+
187.1119	4	C13H15O+
189.091	5	C12H13O2+
195.1016	1	C11H15O3+
197.0961	25	C14H13O+
199.1115	12	C14H15O+
201.1276	1	C14H17O+
203.1066	3	C13H15O2+
209.0964	10	C15H13O+
211.1117	8	C15H15O+
213.0909	4	C14H13O2+
213.1276	49	C15H17O+
215.1067	8	C14H15O2+
221.0963	7	C16H13O+
223.112	18	C16H15O+
225.0909	4	C15H13O2+
225.1273	15	C16H17O+
227.1069	5	C15H15O2+
227.1429	4	C16H19O+
235.1119	11	C17H15O+
237.1275	91	C17H17O+
239.1068	34	C16H15O2+
239.1431	10	C17H19O+
241.1224	5	C16H17O2+
247.1117	3	C18H15O+
249.1274	5	C18H17O+
251.1427	7	C18H19O+
253.1225	53	C17H17O2+
253.1587	10	C18H21O+
255.1381	28	C17H19O2+
255.1749	2	C18H23O+
261.1274	40	C19H17O+
262.1356	1	C19H18O+
263.1431	51	C19H19O+
264.1512	6	C19H20O+
265.1222	6	C18H17O2+
265.1587	102	C19H21O+
267.138	151	C18H19O2+
267.1743	11	C19H23O+
275.1436	8	C20H19O+
277.1589	60	C20H21O+
279.1384	11	C19H19O2+
281.1537	36	C19H21O2+
283.1693	45	C19H23O2+
287.1433	34	C21H19O+
293.1536	36	C20H21O2+
295.1694	220	C20H23O2+
297.1488	14	C19H21O3+
299.1654	1	C19H23O3+
305.1538	145	C21H21O2+
311.1643	41	C20H23O3+
313.18	321	C20H25O3+
323.1644	307	C21H23O3+
329.1748	6	C20H25O4+
331.19	1	C20H27O4+
341.1751	727	C21H25O4+
359.1856	999	C21H27O5+
