Mass spectrum: Zopiclone; LC-ESI-QFT; MS2; CE: 120; R=35000; [M+H]+
Name: Zopiclone
Name: [6-(5-chloropyridin-2-yl)-5-oxo-7H-pyrrolo[3,4-b]pyrazin-7-yl] 4-methylpiperazine-1-carboxylate
Formula: C17H17ClN6O3
Exact mass: 388.10507
SMILES: CN1CCN(CC1)C(=O)OC2C3=NC=CN=C3C(=O)N2C4=NC=C(C=C4)Cl
InChI: InChI=1S/C17H17ClN6O3/c1-22-6-8-23(9-7-22)17(26)27-16-14-13(19-4-5-20-14)15(25)24(16)12-3-2-11(18)10-21-12/h2-5,10,16H,6-9H2,1H3
Instrument: Q Exactive Plus Orbitrap Thermo Scientific
Instrument type: LC-ESI-QFT
Ms type: MS2
Ion mode: POSITIVE
Ionization: ESI
Fragmentation mode: HCD
Collision energy: 120 (nominal)
Resolution: 35000
Column name: XBridge C18 3.5um, 2.1x50mm, Waters
Retention time: 4.6 min
Base peak: 389.1117
Precursor m/z: 389.1123
Precursor type: [M+H]+
m/z	relative intensity	assigned
50.0151	8	C4H2+
51.023	2	C4H3+
52.0182	14	C3H2N+
53.0022	5	C3HO+
56.0495	6	C3H6N+
60.984	3	C2H2Cl+
61.9792	50	CHClN+
65.0022	2	C4HO+
66.0338	31	C4H4N+
70.0651	2	C4H8N+
75.0104	32	C5HN+
76.0181	675	C5H2N+
77.0259	4	C5H3N+
78.0338	2	C5H4N+
79.0291	3	C4H3N2+
80.037	1	C4H4N2+
83.0604	2	C4H7N2+
84.984	79	C4H2Cl+
94.0288	16	C5H4NO+
97.0397	6	C4H5N2O+
97.0761	1	C5H9N2+
100.0182	25	C7H2N+
101.0261	4	C7H3N+
103.0291	14	C6H3N2+
104.0368	3	C6H4N2+
105.0448	1	C6H5N2+
111.9949	470	C5H3ClN+
118.0288	5	C7H4NO+
121.0397	10	C6H5N2O+
126.0107	1	C6H5ClN+
127.0292	25	C8H3N2+
128.0371	9	C8H4N2+
130.0055	999	C5H5ClNO+
131.048	1	C7H5N3+
135.9951	3	C7H3ClN+
136.0268	1	C6H4N2O2+
136.9902	2	C6H2ClN2+
139.0058	43	C6H4ClN2+
144.0212	4	C6H7ClNO+
145.0397	3	C8H5N2O+
148.0506	2	C7H6N3O+
154.0055	1	C7H5ClNO+
154.0401	8	C9H4N3+
155.0351	3	C8H3N4+
155.0478	7	C9H5N3+
156.0556	1	C9H6N3+
157.0164	1	C6H6ClN2O+
163.0058	8	C8H4ClN2+
164.0008	3	C7H3ClN3+
172.0505	3	C9H6N3O+
181.0509	11	C10H5N4+
182.0587	3	C10H6N4+
187.0378	1	C9H5N3O2+
190.0168	6	C9H5ClN3+
217.0276	3	C10H6ClN4+
