Mass spectrum: Candesartan; LC-ESI-ITFT; MS2; CE: 90%; R=30000; [M+H]+
Name: Candesartan
Name: 2-ethoxy-3-[4-[2-(2H-tetrazol-5-yl)phenyl]benzyl]benzimidazole-4-carboxylic acid
Formula: C24H20N6O3
Exact mass: 440.1597
SMILES: c1(ccccc1c1ccc(Cn2c(nc3c2c(C(=O)O)ccc3)OCC)cc1)c1nnn[nH]1
InChI: InChI=1S/C24H20N6O3/c1-2-33-24-25-20-9-5-8-19(23(31)32)21(20)30(24)14-15-10-12-16(13-11-15)17-6-3-4-7-18(17)22-26-28-29-27-22/h3-13H,2,14H2,1H3,(H,31,32)(H,26,27,28,29)
Instrument: LTQ Orbitrap XL Thermo Scientific
Instrument type: LC-ESI-ITFT
Ms type: MS2
Ion mode: POSITIVE
Ionization: ESI
Fragmentation mode: HCD
Collision energy: 90 % (nominal)
Resolution: 30000
Column name: XBridge C18 3.5um, 2.1x50mm, Waters
Retention time: 9.3 min
Base peak: 441.1683
Precursor m/z: 441.167
Precursor type: [M+H]+
m/z	relative intensity	assigned
77.0387	47	C6H5+
80.0495	22	C5H6N+
90.0339	25	C6H4N+
91.0542	34	C7H7+
105.0448	103	C6H5N2+
115.0543	23	C9H7+
117.0448	19	C7H5N2+
129.0447	21	C8H5N2+
139.0544	31	C11H7+
140.0497	63	C10H6N+
145.0397	10	C8H5N2O+
151.0543	118	C12H7+
152.0622	630	C12H8+
153.07	220	C12H9+
154.0653	32	C11H8N+
155.0605	40	C10H7N2+
161.0347	64	C8H5N2O2+
163.0543	135	C13H7+
164.0495	35	C12H6N+
164.0621	93	C13H8+
165.07	999	C13H9+
166.0651	68	C12H8N+
166.0779	29	C13H10+
167.073	33	C12H9N+
167.0858	18	C13H11+
168.0571	42	C12H8O+
168.0683	33	C11H8N2+
169.0649	26	C12H9O+
173.0348	12	C9H5N2O2+
176.0621	71	C14H8+
177.0574	276	C13H7N+
177.07	123	C14H9+
178.0652	127	C13H8N+
178.0778	521	C14H10+
179.045	15	C8H7N2O3+
179.0604	74	C12H7N2+
179.073	205	C13H9N+
180.0808	240	C13H10N+
181.0765	14	C12H9N2+
183.0674	8	C12H9NO+
190.0652	960	C14H8N+
191.073	243	C14H9N+
192.0683	207	C13H8N2+
192.0808	257	C14H10N+
193.0886	103	C14H11N+
194.0965	54	C14H12N+
196.0757	19	C13H10NO+
203.073	16	C15H9N+
204.0557	11	C13H6N3+
205.0761	491	C14H9N2+
206.0839	103	C14H10N2+
207.092	16	C14H11N2+
216.0808	17	C16H10N+
217.0885	27	C16H11N+
218.0836	28	C15H10N2+
219.0917	87	C15H11N2+
233.1076	45	C16H13N2+
234.1154	11	C16H14N2+
254.0961	23	C19H12N+
279.0917	48	C20H11N2+
281.1069	16	C20H13N2+
282.0915	12	C20H12NO+
293.095	20	C20H11N3+
294.0787	39	C20H10N2O+
296.1182	12	C20H14N3+
297.1031	12	C20H13N2O+
307.0869	9	C21H11N2O+
308.0952	11	C21H12N2O+
423.1632	16	C20H21N7O4+
