Mass spectrum: Imidacloprid; LC-ESI-ITFT; MS2; CE: 35%; R=7500; [M+H]+
Name: Imidacloprid
Name: N-[1-[(6-chloranylpyridin-3-yl)methyl]-4,5-dihydroimidazol-2-yl]nitramide
Formula: C9H10ClN5O2
Exact mass: 255.0523
SMILES: Cl-c(ncc1CN(CC2)C(N2)=NN(=O)=O)cc1
InChI: InChI=1S/C9H10ClN5O2/c10-8-2-1-7(5-12-8)6-14-4-3-11-9(14)13-15(16)17/h1-2,5H,3-4,6H2,(H,11,13)
Instrument: LTQ Orbitrap XL Thermo Scientific
Instrument type: LC-ESI-ITFT
Ms type: MS2
Ion mode: POSITIVE
Ionization: ESI
Fragmentation mode: CID
Collision energy: 35 % (nominal)
Resolution: 7500
Column name: XBridge C18 3.5um, 2.1x50mm, Waters
Retention time: 4.8 min
Base peak: 256.0596
Precursor m/z: 256.0596
Precursor type: [M+H]+
m/z	relative intensity	assigned
84.0556	33	C3H6N3+
99.0551	3	C4H7N2O+
128.0262	49	C6H7ClN+
151.0185	1	C8H6ClN+
173.0823	3	C9H9N4+
174.09	139	C9H10N4+
175.0978	699	C9H11N4+
194.0479	4	C9H9ClN3+
208.0503	3	C9H9ClN4+
209.059	999	C9H10ClN4+
210.0667	846	C9H11ClN4+
212.0584	657	C9H11ClN3O+
226.0617	48	C9H11ClN4O+
