Mass spectrum: Flutriafol; LC-ESI-QFT; MS2; CE: 120; R=35000; [M+H]+
Name: Flutriafol
Name: 1-(2-fluorophenyl)-1-(4-fluorophenyl)-2-(1,2,4-triazol-1-yl)ethanol
Formula: C16H13F2N3O
Exact mass: 301.10267
SMILES: C1=CC=C(C(=C1)C(CN2C=NC=N2)(C3=CC=C(C=C3)F)O)F
InChI: InChI=1S/C16H13F2N3O/c17-13-7-5-12(6-8-13)16(22,9-21-11-19-10-20-21)14-3-1-2-4-15(14)18/h1-8,10-11,22H,9H2
Instrument: Q Exactive Plus Orbitrap Thermo Scientific
Instrument type: LC-ESI-QFT
Ms type: MS2
Ion mode: POSITIVE
Ionization: ESI
Fragmentation mode: HCD
Collision energy: 120 (nominal)
Resolution: 35000
Column name: XBridge C18 3.5um, 2.1x50mm, Waters
Retention time: 8.6 min
Base peak: 302.1094
Precursor m/z: 302.1099
Precursor type: [M+H]+
m/z	relative intensity	assigned
50.0151	8	C4H2+
51.023	7	C4H3+
53.0022	11	C3HO+
57.0135	12	C3H2F+
59.0292	9	C3H4F+
63.0229	8	C5H3+
65.0386	4	C5H5+
69.0135	2	C4H2F+
70.04	999	C2H4N3+
71.0291	26	C4H4F+
73.0085	1	C3H2FO+
74.0151	24	C6H2+
75.0229	251	CH2FN3+
79.0178	7	C5H3O+
81.0136	1	C5H2F+
83.0292	136	C5H4F+
89.0386	12	C7H5+
91.0542	2	C7H7+
93.0336	7	C6H5O+
95.0292	78	C6H4F+
99.0241	4	C5H4FO+
109.0449	164	C7H6F+
111.0441	3	C6H7O2+
113.0397	173	C6H6FO+
123.0242	56	C2H3F2N3O+
123.0353	379	C6H4FN2+
124.0325	2	C7H5FO+
125.0387	1	C10H5+
133.0449	2	C9H6F+
139.0542	2	C11H7+
149.0386	4	C12H5+
163.0542	1	C13H7+
164.0621	2	C13H8+
165.0699	8	C13H9+
168.0371	3	C12H5F+
169.0449	2	C12H6F+
170.0528	3	C12H7F+
174.0465	8	C14H6+
175.0543	1	C14H7+
183.0606	12	C13H8F+
187.0553	4	C12H8FO+
188.0431	3	C12H6F2+
193.0646	2	C9H8FN3O+
194.0528	23	C14H7F+
197.0512	3	C12H6FN2+
214.0591	7	C14H8F2+
