Mass spectrum: Kresoxim-methyl acid; LC-ESI-QFT; MS2; CE: 75; R=35000; [M+H]+
Name: Kresoxim-methyl acid
Name: (2E)-2-methoxyimino-2-[2-[(2-methylphenoxy)methyl]phenyl]acetic acid
Formula: C17H17NO4
Exact mass: 299.11576
SMILES: O=C(O)\C(=N\OC)c2ccccc2COc1ccccc1C
InChI: InChI=1S/C17H17NO4/c1-12-7-3-6-10-15(12)22-11-13-8-4-5-9-14(13)16(17(19)20)18-21-2/h3-10H,11H2,1-2H3,(H,19,20)/b18-16+
Instrument: Q Exactive Plus Orbitrap Thermo Scientific
Instrument type: LC-ESI-QFT
Ms type: MS2
Ion mode: POSITIVE
Ionization: ESI
Fragmentation mode: HCD
Collision energy: 75 (nominal)
Resolution: 35000
Column name: XBridge C18 3.5um, 2.1x50mm, Waters
Retention time: 10.9 min
Base peak: 300.1227
Precursor m/z: 300.123
Precursor type: [M+H]+
m/z	relative intensity	assigned
51.0229	3	C4H3+
53.0386	9	C4H5+
55.0178	1	C3H3O+
63.0229	23	C5H3+
65.0386	83	C5H5+
66.0464	1	C5H6+
69.0334	1	C4H5O+
77.0385	13	C6H5+
78.0463	5	C6H6+
79.0542	27	C6H7+
81.0334	1	C5H5O+
89.0385	602	C7H5+
90.0338	18	C6H4N+
90.0464	17	C7H6+
91.0542	264	C7H7+
93.0699	10	C7H9+
94.0412	1	C6H6O+
95.0491	35	C6H7O+
103.0543	3	C8H7+
104.0495	26	C7H6N+
105.0334	2	C7H5O+
105.0447	16	C6H5N2+
106.0412	1	C7H6O+
107.0491	18	C7H7O+
108.0568	1	C7H8O+
109.0647	1	C7H9O+
115.0415	9	C8H5N+
115.0545	5	C9H7+
116.0494	999	C8H6N+
117.0572	79	C8H7N+
118.0415	3	C8H6O+
118.0652	9	C8H8N+
119.0367	1	C7H5NO+
119.0492	6	C8H7O+
119.0603	1	C7H7N2+
121.0648	46	C8H9O+
128.0496	5	C9H6N+
128.062	4	C10H8+
129.0697	1	C10H9+
130.0287	3	C8H4NO+
130.0651	4	C9H8N+
132.0444	44	C8H6NO+
133.0523	2	C8H7NO+
134.06	58	C8H8NO+
135.044	12	C8H7O2+
135.0552	4	C7H7N2O+
139.0539	6	C11H7+
140.0494	7	C10H6N+
140.062	1	C11H8+
141.0699	15	C11H9+
142.0649	1	C10H8N+
145.065	1	C10H9O+
146.0599	14	C9H8NO+
147.0678	1	C9H9NO+
148.0757	3	C9H10NO+
151.054	5	C12H7+
152.062	87	C12H8+
153.0575	1	C11H7N+
153.0699	23	C12H9+
154.0651	9	C11H8N+
154.0775	1	C12H10+
155.0604	4	C10H7N2+
155.0728	1	C11H9N+
155.0854	1	C12H11+
156.0807	1	C11H10N+
161.0472	6	C9H7NO2+
164.0618	5	C13H8+
165.0699	140	C13H9+
166.0653	24	C12H8N+
166.0777	51	C13H10+
167.073	35	C12H9N+
167.0854	36	C13H11+
168.0571	1	C12H8O+
168.0807	11	C12H10N+
169.0648	18	C12H9O+
175.0542	1	C14H7+
176.062	50	C14H8+
177.0572	3	C13H7N+
177.0699	50	C14H9+
178.0658	42	C13H8N+
178.0776	219	C14H10+
179.0611	7	C12H7N2+
179.0731	53	C13H9N+
179.0854	96	C14H11+
180.0807	279	C13H10N+
181.0648	23	C13H9O+
181.0886	26	C13H11N+
181.1011	1	C14H13+
182.0597	1	C12H8NO+
182.0724	7	C13H10O+
183.0808	1	C13H11O+
189.0574	9	C14H7N+
189.0699	20	C15H9+
190.0651	31	C14H8N+
190.0777	12	C15H10+
191.0729	12	C14H9N+
191.0853	7	C15H11+
192.0571	5	C14H8O+
192.0807	28	C14H10N+
193.0886	100	C14H11N+
194.0726	92	C14H10O+
194.0964	117	C14H12N+
195.0804	27	C14H11O+
195.1046	3	C14H13N+
196.0759	5	C13H10NO+
196.112	1	C14H14N+
202.065	3	C15H8N+
203.0729	72	C15H9N+
204.0809	51	C15H10N+
205.0763	4	C14H9N2+
205.0885	7	C15H11N+
206.0601	154	C14H8NO+
206.0964	19	C15H12N+
207.0679	115	C14H9NO+
207.0804	64	C15H11O+
207.1038	8	C15H13N+
208.0757	27	C14H10NO+
208.0882	19	C15H12O+
209.0835	79	C14H11NO+
210.0676	5	C14H10O2+
210.0913	3	C14H12NO+
211.0757	4	C14H11O2+
219.0681	1	C15H9NO+
220.0756	17	C15H10NO+
221.0481	1	C14H7NO2+
221.0834	10	C15H11NO+
222.0913	45	C15H12NO+
223.0991	21	C15H13NO+
224.1071	20	C15H14NO+
235.0636	1	C15H9NO2+
235.0753	12	C16H11O2+
236.0705	3	C15H10NO2+
