Mass spectrum: Fenthion Oxon Sulfone; LC-ESI-QFT; MS2; CE: 150%; R=17500; [M+H]+
Name: Fenthion Oxon Sulfone
Name: dimethyl (3-methyl-4-methylsulfonylphenyl) phosphate
Formula: C10H15O6PS
Exact mass: 294.0327
SMILES: CC1=C(C=CC(=C1)OP(=O)(OC)OC)S(=O)(=O)C
InChI: InChI=1S/C10H15O6PS/c1-8-7-9(16-17(11,14-2)15-3)5-6-10(8)18(4,12)13/h5-7H,1-4H3
Instrument: Exploris 240 Orbitrap Thermo Scientific
Instrument type: LC-ESI-QFT
Ms type: MS2
Ion mode: POSITIVE
Ionization: ESI
Fragmentation mode: HCD
Collision energy: 150 % (nominal)
Resolution: 17500
Column name: XBridge C18 3.5um, 2.1x50mm, Waters
Retention time: 4.335 min
Base peak: 295.0397
Precursor m/z: 295.04
Precursor type: [M+H]+
m/z	relative intensity	assigned
50.0151	138	C4H2+
51.0229	476	C4H3+
52.0307	106	C4H4+
53.0386	221	C4H5+
55.0178	35	C3H3O+
63.0229	430	C5H3+
64.0307	107	C5H4+
64.9789	42	H2O2P+
65.0386	754	C5H5+
66.0466	70	C5H6+
68.9791	37	C3HS+
77.0385	947	C6H5+
78.0464	808	C6H6+
78.9944	105	CH4O2P+
79.0542	136	C6H7+
89.0386	999	C7H5+
90.0463	50	C7H6+
91.0541	447	C7H7+
95.0492	236	C6H7O+
103.0541	430	C8H7+
107.0493	213	C7H7O+
112.9998	60	CH6O4P+
127.0154	82	C2H8O4P+
