Mass spectrum: Lidocaine-N-Oxide; LC-ESI-QFT; MS2; CE: 150; R=35000; [M+H]+
Name: Lidocaine-N-Oxide
Name: Lignocaine N-oxide
Name: 2-(2,6-dimethylanilino)-N,N-diethyl-2-oxoethanamine oxide
Formula: C14H22N2O2
Exact mass: 250.16813
SMILES: CC[N+](CC)(CC(=O)NC1=C(C=CC=C1C)C)[O-]
InChI: InChI=1S/C14H22N2O2/c1-5-16(18,6-2)10-13(17)15-14-11(3)8-7-9-12(14)4/h7-9H,5-6,10H2,1-4H3,(H,15,17)
Instrument: Q Exactive Plus Orbitrap Thermo Scientific
Instrument type: LC-ESI-QFT
Ms type: MS2
Ion mode: POSITIVE
Ionization: ESI
Fragmentation mode: HCD
Collision energy: 150 (nominal)
Resolution: 35000
Column name: XBridge C18 3.5um, 2.1x50mm, Waters
Retention time: 4.8 min
Base peak: 251.1752
Precursor m/z: 251.1754
Precursor type: [M+H]+
m/z	relative intensity	assigned
50.0151	84	C4H2+
51.0229	335	C4H3+
53.0386	312	C4H5+
54.0338	8	C3H4N+
55.0178	5	C3H3O+
56.0495	171	C3H6N+
58.0651	945	C3H8N+
60.0444	272	C2H6NO+
63.023	10	C5H3+
65.0386	482	C5H5+
66.0464	19	C5H6+
67.0417	4	C4H5N+
67.0542	25	C5H7+
72.0807	7	C4H10N+
74.06	122	C3H8NO+
77.0385	517	C6H5+
78.0464	106	C6H6+
79.0542	559	C6H7+
80.0494	141	C5H6N+
81.0334	40	C5H5O+
81.0573	22	C5H7N+
86.0964	517	C5H12N+
88.0755	7	C4H10NO+
89.0386	47	C7H5+
90.0465	47	C7H6+
91.0542	972	C7H7+
92.0495	97	C6H6N+
92.062	10	C7H8+
93.0573	71	C6H7N+
93.0699	139	C7H9+
94.0415	5	C6H6O+
94.0651	25	C6H8N+
95.0492	999	C6H7O+
96.0443	8	C5H6NO+
102.0464	34	C8H6+
103.0542	412	C8H7+
104.0494	233	C7H6N+
105.0447	529	C6H5N2+
105.0573	62	C7H7N+
105.0699	118	C8H9+
106.0651	959	C7H8N+
107.0492	22	C7H7O+
107.0729	297	C7H9N+
110.06	44	C6H8NO+
115.0543	61	C9H7+
116.0492	8	C8H6N+
117.0572	71	C8H7N+
118.0651	214	C8H8N+
119.049	7	C8H7O+
119.0604	23	C7H7N2+
119.073	47	C8H9N+
120.0808	542	C8H10N+
130.0651	94	C9H8N+
131.0731	13	C9H9N+
132.0808	7	C9H10N+
133.0521	98	C8H7NO+
144.0807	7	C10H10N+
146.06	22	C9H8NO+
