Mass spectrum: Trifloxystrobin; LC-ESI-QFT; MS2; CE: 30; R=35000; [M+H]+
Name: Trifloxystrobin
Name: Benzeneacetic acid, alpha-(methoxyimino)-2-((((1-(3-(trifluoromethyl)phenyl)ethylidene)amino)oxy)methyl)-, methyl ester, (E,E)-
Name: (2Z)-2-methoxyimino-2-[2-[[(E)-1-[3-(trifluoromethyl)phenyl]ethylideneamino]oxymethyl]phenyl]acetic acid methyl ester
Formula: C20H19F3N2O4
Exact mass: 408.12969
SMILES: c1(C(F)(F)F)cc(ccc1)\C(=N\OCc1c(cccc1)\C(C(=O)OC)=N\OC)C
InChI: InChI=1S/C20H19F3N2O4/c1-13(14-8-6-9-16(11-14)20(21,22)23)24-29-12-15-7-4-5-10-17(15)18(25-28-3)19(26)27-2/h4-11H,12H2,1-3H3/b24-13+,25-18-
Instrument: Q Exactive Orbitrap Thermo Scientific
Instrument type: LC-ESI-QFT
Ms type: MS2
Ion mode: POSITIVE
Ionization: ESI
Fragmentation mode: HCD
Collision energy: 30 (nominal)
Resolution: 35000
Column name: XBridge C18 3.5um, 2.1x50mm, Waters
Retention time: 14.7 min
Base peak: 409.1362
Precursor m/z: 409.137
Precursor type: [M+H]+
m/z	relative intensity	assigned
89.0382	2	C7H5+
91.054	5	C7H7+
103.0539	1	C8H7+
105.0696	19	C8H9+
116.0492	196	C8H6N+
117.057	8	C8H7N+
118.0648	16	C8H8N+
119.0489	5	C8H7O+
119.0726	5	C8H9N+
130.0649	4	C9H8N+
131.0726	139	C9H9N+
132.044	5	C8H6NO+
132.0804	108	C9H10N+
134.0595	8	C8H8NO+
145.0255	23	C7H4F3+
146.0596	49	C9H8NO+
147.0676	7	C9H9NO+
148.0754	4	C9H10NO+
161.0465	3	C9H7NO2+
162.0909	17	C10H12NO+
173.0317	14	C7H4F3N2+
174.0544	2	C10H8NO2+
175.0623	6	C10H9NO2+
178.0858	4	C10H12NO2+
186.052	999	C9H7F3N+
200.0678	1	C10H9F3N+
206.0807	156	C11H12NO3+
