Mass spectrum: Imazaquin; LC-ESI-QFT; MS2; CE: 60; R=35000; [M+H]+
Name: Imazaquin
Name: 2-(4-methyl-5-oxo-4-propan-2-yl-1H-imidazol-2-yl)quinoline-3-carboxylic acid
Formula: C17H17N3O3
Exact mass: 311.12699
SMILES: CC(C)C1(C(=O)NC(=N1)C2=NC3=CC=CC=C3C=C2C(=O)O)C
InChI: InChI=1S/C17H17N3O3/c1-9(2)17(3)16(23)19-14(20-17)13-11(15(21)22)8-10-6-4-5-7-12(10)18-13/h4-9H,1-3H3,(H,21,22)(H,19,20,23)
Instrument: Q Exactive Plus Orbitrap Thermo Scientific
Instrument type: LC-ESI-QFT
Ms type: MS2
Ion mode: POSITIVE
Ionization: ESI
Fragmentation mode: HCD
Collision energy: 60 (nominal)
Resolution: 35000
Column name: XBridge C18 3.5um, 2.1x50mm, Waters
Retention time: 7.0 min
Base peak: 312.1336
Precursor m/z: 312.1343
Precursor type: [M+H]+
m/z	relative intensity	assigned
53.0022	13	C3HO+
53.9975	3	C2NO+
56.0495	3	C3H6N+
58.0651	16	C3H8N+
67.0543	11	C5H7+
67.9893	4	C3O2+
69.0699	619	C5H9+
70.0651	15	C4H8N+
71.0729	16	C4H9N+
71.0855	11	C5H11+
72.0444	3	C3H6NO+
84.0808	6	C5H10N+
86.0964	598	C5H12N+
94.0652	1	C6H8N+
97.0648	23	C6H9O+
101.0385	2	C8H5+
115.0419	4	C8H5N+
116.0496	2	C8H6N+
128.0493	22	C9H6N+
129.0573	4	C9H7N+
130.0527	8	C8H6N2+
130.0653	2	C9H8N+
142.0653	7	C10H8N+
143.0366	8	C9H5NO+
143.0603	3	C9H7N2+
144.0445	2	C9H6NO+
146.0601	35	C9H8NO+
153.0447	14	C10H5N2+
154.0526	30	C10H6N2+
155.0604	67	C10H7N2+
156.0445	1	C10H6NO+
156.0684	4	C10H8N2+
157.076	7	C10H9N2+
158.0475	6	C9H6N2O+
158.0599	4	C10H8NO+
160.0757	10	C10H10NO+
161.0472	2	C9H7NO2+
161.071	1	C9H9N2O+
167.073	5	C12H9N+
171.0554	27	C10H7N2O+
174.0551	30	C10H8NO2+
180.0807	4	C13H10N+
181.0397	424	C11H5N2O+
182.0713	1	C11H8N3+
182.0965	6	C13H12N+
183.0554	81	C11H7N2O+
183.0918	7	C12H11N2+
184.0393	4	C11H6NO2+
186.0547	7	C11H8NO2+
194.0963	2	C14H12N+
196.0871	2	C12H10N3+
197.0711	393	C12H9N2O+
198.0663	500	C11H8N3O+
199.0503	999	C11H7N2O2+
200.0579	2	C11H8N2O2+
201.0658	3	C11H9N2O2+
206.0841	3	C14H10N2+
206.0965	1	C15H12N+
207.0918	1	C14H11N2+
208.0757	3	C14H10NO+
208.0997	2	C14H12N2+
210.079	13	C13H10N2O+
211.0502	5	C12H7N2O2+
213.0659	2	C12H9N2O2+
220.0992	1	C15H12N2+
221.1075	7	C15H13N2+
222.0661	8	C13H8N3O+
222.091	5	C15H12NO+
223.0742	22	C13H9N3O+
223.0853	1	C12H9N5+
223.1229	16	C15H15N2+
224.082	400	C13H10N3O+
225.1023	77	C14H13N2O+
226.086	3	C14H12NO2+
226.0975	6	C13H12N3O+
227.0814	7	C13H11N2O2+
232.076	2	C16H10NO+
234.0789	18	C15H10N2O+
236.082	1	C14H10N3O+
241.0847	11	C13H11N3O2+
249.1024	105	C16H13N2O+
251.0691	28	C14H9N3O2+
252.0768	345	C14H10N3O2+
264.0762	1	C15H10N3O2+
266.1289	30	C16H16N3O+
267.1129	64	C16H15N2O2+
269.0794	7	C14H11N3O3+
270.0873	17	C14H12N3O3+
312.1345	2	C17H18N3O3+
