Mass spectrum: Mianserin-N-Oxide; LC-ESI-QFT; MS2; CE: 180; R=35000; [M+H]+
Name: Mianserin-N-Oxide
Name: 1,2,3,4,10,14b-Hexahydro-2-methyldibenzo(c,f)pyrazino(1,2-a)azepine 2-oxide
Formula: C18H20N2O
Exact mass: 280.15756
SMILES: C[N+]1(CCN2c3ccccc3Cc4ccccc4C2C1)[O-]
InChI: InChI=1S/C18H20N2O/c1-20(21)11-10-19-17-9-5-3-7-15(17)12-14-6-2-4-8-16(14)18(19)13-20/h2-9,18H,10-13H2,1H3
Instrument: Q Exactive Plus Orbitrap Thermo Scientific
Instrument type: LC-ESI-QFT
Ms type: MS2
Ion mode: POSITIVE
Ionization: ESI
Fragmentation mode: HCD
Collision energy: 180 (nominal)
Resolution: 35000
Column name: XBridge C18 3.5um, 2.1x50mm, Waters
Retention time: 7.0 min
Base peak: 281.1644
Precursor m/z: 281.1648
Precursor type: [M+H]+
m/z	relative intensity	assigned
50.0151	42	C4H2+
51.0229	54	C4H3+
53.0022	10	C3HO+
53.0386	21	C4H5+
54.0339	2	C3H4N+
56.0495	118	C3H6N+
57.0573	22	C3H7N+
58.0651	25	C3H8N+
61.0072	13	C5H+
62.0151	58	C5H2+
63.0229	330	C5H3+
64.0307	64	C5H4+
65.0386	177	C5H5+
66.0464	8	C5H6+
70.065	29	C4H8N+
71.0603	4	C3H7N2+
71.0729	3	C4H9N+
72.0807	38	C4H10N+
74.015	14	C6H2+
75.0228	49	C6H3+
76.0307	10	C6H4+
77.0385	47	C6H5+
78.0463	26	C6H6+
87.023	22	C7H3+
88.0307	11	C7H4+
89.0385	999	C7H5+
90.0464	81	C7H6+
91.0542	130	C7H7+
95.0491	74	C6H7O+
102.0464	59	C8H6+
103.0541	20	C8H7+
105.0447	43	C6H5N2+
113.0385	57	C9H5+
114.0337	13	C8H4N+
114.0464	12	C9H6+
115.0542	575	C9H7+
116.0494	31	C8H6N+
116.0623	1	C9H8+
117.0573	14	C8H7N+
119.0491	4	C8H7O+
126.0464	85	C10H6+
127.0542	17	C10H7+
128.0495	16	C9H6N+
128.062	91	C10H8+
129.0446	17	C8H5N2+
129.0572	3	C9H7N+
130.065	13	C9H8N+
137.0385	13	
138.0463	14	
139.0542	412	C11H7+
140.0494	134	C10H6N+
140.0615	13	C11H8+
141.0574	4	C10H7N+
141.0699	2	C11H9+
142.0653	4	C10H8N+
143.0728	2	C10H9N+
145.0646	13	C10H9O+
146.0601	3	C9H8NO+
150.0464	152	C12H6+
151.0541	55	C12H7+
152.062	357	C12H8+
153.0571	19	C11H7N+
153.0698	7	C12H9+
155.0602	21	C10H7N2+
162.0462	17	C13H6+
163.0542	551	C13H7+
164.0503	49	C12H6N+
164.062	342	C13H8+
165.0699	763	C13H9+
166.0652	51	C12H8N+
167.0728	14	C12H9N+
168.0569	133	C12H8O+
169.0647	219	C12H9O+
170.0602	1	C11H8NO+
174.0463	11	
175.0542	8	C14H7+
176.062	475	C14H8+
177.0575	75	C13H7N+
177.0697	139	C14H9+
178.066	17	
178.0776	165	C14H10+
179.0603	69	C12H7N2+
179.073	11	C13H9N+
180.0809	4	C13H10N+
181.0644	4	C13H9O+
187.0541	21	C15H7+
188.0496	18	C14H6N+
188.0621	18	C15H8+
189.0574	25	C14H7N+
189.0698	174	C15H9+
190.065	385	C14H8N+
191.0729	159	C14H9N+
191.0862	8	C15H11+
192.0806	27	C14H10N+
193.0651	14	
193.089	7	C14H11N+
194.0599	11	C13H8NO+
195.0805	2	C14H11O+
196.0519	58	C13H8O2+
200.0621	42	C16H8+
201.0699	18	C16H9+
202.0653	12	
202.0777	72	C16H10+
203.0729	58	C15H9N+
204.0809	102	C15H10N+
205.0648	3	C15H9O+
205.0755	2	C14H9N2+
214.0647	16	C16H8N+
215.0727	17	C16H9N+
216.0807	132	C16H10N+
217.0886	73	C16H11N+
218.0843	4	C15H10N2+
218.0963	19	C16H12N+
219.0801	8	C16H11O+
219.1041	2	C16H13N+
