Mass spectrum: LSD; LC-ESI-QFT; MS2; CE: 90; R=35000; [M+H]+
Name: LSD
Name: D-Lysergic acid N,N-diethylamide
Name: N,N-diethyl-7-methyl-6,6a,8,9-tetrahydro-4H-indolo[4,3-fg]quinoline-9-carboxamide
Formula: C20H25N3O
Exact mass: 323.19976
SMILES: CCN(CC)C(=O)C1CN(C2CC3=CNC4=CC=CC(=C34)C2=C1)C
InChI: InChI=1S/C20H25N3O/c1-4-23(5-2)20(24)14-9-16-15-7-6-8-17-19(15)13(11-21-17)10-18(16)22(3)12-14/h6-9,11,14,18,21H,4-5,10,12H2,1-3H3
Instrument: Q Exactive Plus Orbitrap Thermo Scientific
Instrument type: LC-ESI-QFT
Ms type: MS2
Ion mode: POSITIVE
Ionization: ESI
Fragmentation mode: HCD
Collision energy: 90 (nominal)
Resolution: 35000
Column name: XBridge C18 3.5um, 2.1x50mm, Waters
Retention time: 5.6 min
Base peak: 324.2062
Precursor m/z: 324.207
Precursor type: [M+H]+
m/z	relative intensity	assigned
54.0339	1	C3H4N+
55.0178	21	C3H3O+
56.0495	17	C3H6N+
58.0651	1	C3H8N+
68.0494	3	C4H6N+
70.0651	6	C4H8N+
72.0443	56	C3H6NO+
72.0807	16	C4H10N+
74.0964	94	C4H12N+
84.0443	1	C4H6NO+
86.0964	6	C5H12N+
94.065	1	C6H8N+
100.0755	6	C5H10NO+
103.0542	1	C8H7+
115.0542	18	C9H7+
116.062	2	C9H8+
117.0573	5	C8H7N+
126.0462	1	C10H6+
127.054	2	C10H7+
128.062	19	C10H8+
128.1069	8	C7H14NO+
129.0698	52	C10H9+
130.0652	12	C9H8N+
139.0541	10	C11H7+
140.0491	1	C10H6N+
140.062	16	C11H8+
141.0698	18	C11H9+
142.0651	2	C10H8N+
144.0808	4	C10H10N+
145.0648	4	C10H9O+
151.0539	8	C12H7+
152.062	274	C12H8+
153.0699	703	C12H9+
154.0651	154	C11H8N+
155.0603	13	C10H7N2+
155.0729	15	C11H9N+
155.0855	13	C12H11+
156.0808	19	C11H10N+
163.0541	13	C13H7+
164.062	55	C13H8+
165.0699	116	C13H9+
166.0652	26	C12H8N+
166.0772	5	C13H10+
167.073	320	C12H9N+
168.057	20	C12H8O+
168.0808	51	C12H10N+
169.0649	15	C12H9O+
169.0762	2	C11H9N2+
169.0884	1	C12H11N+
170.0599	1	C11H8NO+
170.0964	4	C12H12N+
171.0805	12	C12H11O+
177.0701	1	C14H9+
178.0651	89	C13H8N+
179.0614	11	
179.0729	123	C13H9N+
180.0572	63	C13H8O+
180.0807	754	C13H10N+
181.0647	83	C13H9O+
181.0759	65	C12H9N2+
181.0885	112	C13H11N+
182.0838	119	C12H10N2+
182.0964	51	C13H12N+
183.0917	1	C12H11N2+
184.0518	20	C12H8O2+
184.0756	3	C12H10NO+
185.0469	1	C11H7NO2+
190.0651	82	C14H8N+
191.0729	376	C14H9N+
192.0807	204	C14H10N+
193.0761	137	C13H9N2+
193.0885	19	C14H11N+
194.0599	13	C13H8NO+
194.0964	82	C14H12N+
195.0918	8	C13H11N2+
195.1041	25	C14H13N+
196.0519	1	C13H8O2+
196.0996	7	C13H12N2+
196.1119	6	C14H14N+
197.1073	21	C13H13N2+
204.081	5	C15H10N+
205.0762	46	C14H9N2+
206.0602	11	C14H8NO+
206.0839	55	C14H10N2+
206.0961	5	C15H12N+
207.0681	421	C14H9NO+
207.0917	999	C14H11N2+
208.0757	76	C14H10NO+
208.0995	102	C14H12N2+
209.0832	1	C14H11NO+
209.1072	9	C14H13N2+
219.0917	6	C15H11N2+
220.0994	34	C15H12N2+
221.1073	90	C15H13N2+
222.1152	10	C15H14N2+
223.123	35	C15H15N2+
235.0862	4	C15H11N2O+
