Mass spectrum: Metoxuron; LC-ESI-QFT; MS2; CE: 75; R=35000; [M-H]-
Name: Metoxuron
Name: 3-(3-chloro-4-methoxyphenyl)-1,1-dimethylurea
Formula: C10H13ClN2O2
Exact mass: 228.06656
SMILES: Clc1cc(ccc1OC)NC(=O)N(C)C
InChI: InChI=1S/C10H13ClN2O2/c1-13(2)10(14)12-7-4-5-9(15-3)8(11)6-7/h4-6H,1-3H3,(H,12,14)
Instrument: Q Exactive Plus Orbitrap Thermo Scientific
Instrument type: LC-ESI-QFT
Ms type: MS2
Ion mode: NEGATIVE
Ionization: ESI
Fragmentation mode: HCD
Collision energy: 75 (nominal)
Resolution: 35000
Column name: XBridge C18 3.5um, 2.1x50mm, Waters
Retention time: 6.0 min
Base peak: 182.9883
Precursor m/z: 227.0593
Precursor type: [M-H]-
m/z	relative intensity	assigned
65.9986	1	C3NO-
89.0033	14	C6HO-
118.0298	12	C7H4NO-
132.0091	102	C7H2NO2-
132.0454	6	C8H6NO-
139.9908	7	C6H3ClNO-
140.9988	6	C9HO2-
151.9908	35	C10O2-
152.9989	2	C7H4ClNO-
154.0065	999	C7H5ClNO-
155.0098	1	C2H6ClN3O3-
167.9858	839	C7H3ClNO2-
168.0221	391	C8H7ClNO-
197.0123	32	C8H6ClN2O2-
211.028	2	C9H8ClN2O2-
212.0354	1	C9H9ClN2O2-
