Mass spectrum: Formothion; LC-ESI-QFT; MS2; CE: 60%; R=17500; [M+H]+
Name: Formothion
Name: 2-dimethoxyphosphinothioylsulfanyl-N-formyl-N-methylacetamide
Formula: C6H12NO4PS2
Exact mass: 256.9945
SMILES: CN(C=O)C(=O)CSP(=S)(OC)OC
InChI: InChI=1S/C6H12NO4PS2/c1-7(5-8)6(9)4-14-12(13,10-2)11-3/h5H,4H2,1-3H3
Instrument: Exploris 240 Orbitrap Thermo Scientific
Instrument type: LC-ESI-QFT
Ms type: MS2
Ion mode: POSITIVE
Ionization: ESI
Fragmentation mode: HCD
Collision energy: 60 % (nominal)
Resolution: 17500
Column name: XBridge C18 3.5um, 2.1x50mm, Waters
Retention time: 5.214 min
Base peak: 198.9647
Precursor m/z: 258.0018
Precursor type: [M+H]+
m/z	relative intensity	assigned
58.9948	7	C2H3S+
60.0443	8	C2H6NO+
62.0185	15	C2H6S+
78.9943	109	CH4O2P+
88.0215	30	C3H6NS+
93.01	78	C2H6O2P+
100.0393	100	C4H6NO2+
110.9662	13	CH4O2PS+
115.0211	10	C5H7OS+
116.0162	23	C4H6NOS+
124.982	999	C2H6O2PS+
128.9767	12	CH6O3PS+
142.9927	452	C2H8O3PS+
156.9541	127	C2H6O2PS2+
157.0083	61	C3H10O3PS+
170.9699	55	C3H8O2PS2+
183.0239	6	C5H12O3PS+
