Mass spectrum: Pheniramine; LC-ESI-QFT; MS2; CE: 120; R=35000; [M+H]+
Name: Pheniramine
Name: N,N-dimethyl-3-phenyl-3-pyridin-2-ylpropan-1-amine
Formula: C16H20N2
Exact mass: 240.16265
SMILES: CN(C)CCC(C1=CC=CC=C1)C2=CC=CC=N2
InChI: InChI=1S/C16H20N2/c1-18(2)13-11-15(14-8-4-3-5-9-14)16-10-6-7-12-17-16/h3-10,12,15H,11,13H2,1-2H3
Instrument: Q Exactive Plus Orbitrap Thermo Scientific
Instrument type: LC-ESI-QFT
Ms type: MS2
Ion mode: POSITIVE
Ionization: ESI
Fragmentation mode: HCD
Collision energy: 120 (nominal)
Resolution: 35000
Column name: XBridge C18 3.5um, 2.1x50mm, Waters
Retention time: 3.7 min
Base peak: 241.1697
Precursor m/z: 241.1699
Precursor type: [M+H]+
m/z	relative intensity	assigned
50.0151	1	C4H2+
51.0229	1	C4H3+
53.0386	1	C4H5+
63.0227	2	C5H3+
65.0386	50	C5H5+
66.0464	1	C5H6+
77.0384	2	C6H5+
78.0338	6	C5H4N+
79.0416	2	C5H5N+
80.0494	2	C5H6N+
89.0385	4	C7H5+
90.0464	7	C7H6+
91.0542	174	C7H7+
92.0495	7	C6H6N+
93.0573	15	C6H7N+
94.0651	2	C6H8N+
95.0492	3	C6H7O+
96.0444	8	C5H6NO+
103.0542	5	C8H7+
104.0494	5	C7H6N+
105.0448	1	C6H5N2+
110.06	10	C6H8NO+
115.0542	26	C9H7+
116.0495	2	C8H6N+
116.062	1	C9H8+
117.0573	98	C8H7N+
118.0651	234	C8H8N+
119.0729	10	C8H9N+
128.0494	7	C9H6N+
128.0622	3	C10H8+
129.0446	1	C8H5N2+
130.0652	1	C9H8N+
139.0542	21	C11H7+
140.0497	3	C10H6N+
140.062	20	C11H8+
141.0575	1	C10H7N+
141.0699	8	C11H9+
146.0598	2	C9H8NO+
152.062	4	C12H8+
153.0573	1	C11H7N+
153.0698	1	C12H9+
154.0653	1	C11H8N+
165.07	1	C13H9+
166.0652	94	C12H8N+
167.0729	999	C12H9N+
168.0807	111	C12H10N+
178.0776	1	C14H10+
179.0729	2	C13H9N+
180.0807	23	C13H10N+
181.0885	2	C13H11N+
184.0757	1	C12H10NO+
191.073	1	C14H9N+
192.081	3	C14H10N+
193.0886	10	C14H11N+
194.0964	33	C14H12N+
196.1121	4	C14H14N+
