Mass spectrum: 3,4-Methylenedioxyamphetamine (MDA); LC-ESI-QFT; MS2; CE: 15; R=35000; [M+H]+
Name: 3,4-Methylenedioxyamphetamine (MDA)
Name: 1-(3,4-Methylenedioxyphenyl)-2-aminopropane
Name: 1-(1,3-benzodioxol-5-yl)propan-2-amine
Formula: C10H13NO2
Exact mass: 179.09463
SMILES: CC(CC1=CC2=C(C=C1)OCO2)N
InChI: InChI=1S/C10H13NO2/c1-7(11)4-8-2-3-9-10(5-8)13-6-12-9/h2-3,5,7H,4,6,11H2,1H3
Instrument: Q Exactive Plus Orbitrap Thermo Scientific
Instrument type: LC-ESI-QFT
Ms type: MS2
Ion mode: POSITIVE
Ionization: ESI
Fragmentation mode: HCD
Collision energy: 15 (nominal)
Resolution: 35000
Column name: XBridge C18 3.5um, 2.1x50mm, Waters
Retention time: 3.6 min
Base peak: 180.1013
Precursor m/z: 180.1019
Precursor type: [M+H]+
m/z	relative intensity	assigned
105.0698	23	C8H9+
133.0646	70	C9H9O+
135.0439	69	C8H7O2+
151.0754	1	C9H11O2+
163.0751	999	C10H11O2+
180.1017	28	C10H14NO2+
