Mass spectrum: Nicotine; LC-ESI-QFT; MS2; CE: 90; R=35000; [M+H]+
Name: Nicotine
Name: 3-[(2S)-1-methylpyrrolidin-2-yl]pyridine
Name: 3-[(2S)-1-methyl-2-pyrrolidinyl]pyridine
Formula: C10H14N2
Exact mass: 162.11570
SMILES: n1cc(ccc1)[C@H]2N(C)CCC2
InChI: InChI=1S/C10H14N2/c1-12-7-3-5-10(12)9-4-2-6-11-8-9/h2,4,6,8,10H,3,5,7H2,1H3/t10-/m0/s1
Instrument: Q Exactive Orbitrap Thermo Scientific
Instrument type: LC-ESI-QFT
Ms type: MS2
Ion mode: POSITIVE
Ionization: ESI
Fragmentation mode: HCD
Collision energy: 90 (nominal)
Resolution: 35000
Column name: XBridge C18 3.5um, 2.1x50mm, Waters
Retention time: 0.9 min
Base peak: 163.1229
Precursor m/z: 163.123
Precursor type: [M+H]+
m/z	relative intensity	assigned
70.0651	3	C4H8N+
77.0384	4	C6H5+
78.0337	3	C5H4N+
79.0542	13	C6H7+
80.0494	115	C5H6N+
82.065	9	C5H8N+
84.0807	131	C5H10N+
89.0384	4	C7H5+
90.0463	7	C7H6+
91.0541	14	C7H7+
92.0494	44	C6H6N+
93.0572	10	C6H7N+
93.0698	4	C7H9+
94.065	7	C6H8N+
95.049	10	C6H7O+
96.0443	17	C5H6NO+
103.0541	28	C8H7+
104.0494	2	C7H6N+
105.0447	3	C6H5N2+
105.0697	21	C8H9+
106.065	250	C7H8N+
110.06	11	C6H8NO+
115.0541	57	C9H7+
116.0493	1	C8H6N+
117.0572	970	C8H7N+
118.065	13	C8H8N+
119.0726	1	C8H9N+
120.0806	124	C8H10N+
129.0573	1	C9H7N+
130.0651	999	C9H8N+
131.0728	25	C9H9N+
132.0806	253	C9H10N+
134.0964	1	C9H12N+
163.1225	8	C10H15N2+
