Mass spectrum: Ketoconazole; LC-ESI-QFT; MS2; CE: 45; R=35000; [M+H]+
Name: Ketoconazole
Name: 1-[4-[4-[[(2R,4S)-2-(2,4-dichlorophenyl)-2-(imidazol-1-ylmethyl)-1,3-dioxolan-4-yl]methoxy]phenyl]piperazin-1-yl]ethanone
Formula: C26H28Cl2N4O4
Exact mass: 530.14876
SMILES: CC(=O)N1CCN(CC1)C2=CC=C(C=C2)OC[C@H]3CO[C@](O3)(CN4C=CN=C4)C5=C(C=C(C=C5)Cl)Cl
InChI: InChI=1S/C26H28Cl2N4O4/c1-19(33)31-10-12-32(13-11-31)21-3-5-22(6-4-21)34-15-23-16-35-26(36-23,17-30-9-8-29-18-30)24-7-2-20(27)14-25(24)28/h2-9,14,18,23H,10-13,15-17H2,1H3/t23-,26-/m0/s1
Instrument: Q Exactive Plus Orbitrap Thermo Scientific
Instrument type: LC-ESI-QFT
Ms type: MS2
Ion mode: POSITIVE
Ionization: ESI
Fragmentation mode: HCD
Collision energy: 45 (nominal)
Resolution: 35000
Column name: XBridge C18 3.5um, 2.1x50mm, Waters
Retention time: 7.9 min
Base peak: 531.1558
Precursor m/z: 531.156
Precursor type: [M+H]+
m/z	relative intensity	assigned
54.0338	11	C3H4N+
55.0178	1	C3H3O+
55.0416	1	C3H5N+
56.0495	17	C3H6N+
58.0651	6	C3H8N+
68.0368	11	C3H4N2+
68.0494	1	C4H6N+
69.0447	79	C3H5N2+
70.0651	40	C4H8N+
71.0603	53	C3H7N2+
81.0447	196	C4H5N2+
82.0525	999	C4H6N2+
83.0603	23	C4H7N2+
84.0682	1	C4H8N2+
85.076	3	C4H9N2+
86.06	58	C4H8NO+
94.0651	2	C6H8N+
95.0605	4	C5H7N2+
105.0698	3	C8H9+
107.0491	6	C7H7O+
107.0603	5	C6H7N2+
109.0397	4	C5H5N2O+
109.0522	1	C6H7NO+
109.076	4	C6H9N2+
111.0552	4	C5H7N2O+
112.0757	284	C6H10NO+
113.0709	7	C5H9N2O+
114.0424	1	C4H6N2O2+
117.0574	2	C8H7N+
117.0697	3	C9H9+
118.0651	5	C8H8N+
119.073	3	C8H9N+
120.0444	13	C7H6NO+
120.0808	10	C8H10N+
121.076	2	C7H9N2+
122.06	27	C7H8NO+
123.0915	1	C7H11N2+
127.0501	6	C5H7N2O2+
129.0698	5	C10H9+
130.0651	10	C9H8N+
131.0491	2	C9H7O+
131.0729	3	C9H9N+
132.0441	1	C8H6NO+
132.057	3	C9H8O+
132.0807	13	C9H10N+
133.0521	2	C8H7NO+
133.0649	3	C9H9O+
134.06	29	C8H8NO+
135.0678	236	C8H9NO+
136.0757	74	C8H10NO+
138.0228	1	C8H7Cl+
139.0309	4	C8H8Cl+
144.0808	40	C10H10N+
145.0647	4	C10H9O+
145.0886	20	C10H11N+
146.06	21	C9H8NO+
146.0964	48	C10H12N+
147.0679	5	C9H9NO+
147.0805	2	C10H11O+
148.0757	165	C9H10NO+
149.0154	3	C9H6Cl+
150.0231	3	C9H7Cl+
151.031	2	C9H8Cl+
154.0654	2	C11H8N+
156.0809	12	C11H10N+
157.065	1	C11H9O+
157.0886	1	C11H11N+
158.0965	17	C11H12N+
158.9763	65	C7H5Cl2+
159.068	3	C10H9NO+
159.9842	3	C7H6Cl2+
160.0757	20	C10H10NO+
161.0834	6	C10H11NO+
161.1074	2	C10H13N2+
162.0913	16	C10H12NO+
162.1154	2	C10H14N2+
163.0309	19	C10H8Cl+
163.0867	2	C9H11N2O+
163.123	22	C10H15N2+
164.0706	3	C9H10NO2+
167.0258	20	C9H8ClO+
167.0815	131	C8H11N2O2+
169.9684	35	C8H4Cl2+
170.9764	1	C8H5Cl2+
171.068	3	C11H9NO+
172.0757	35	C11H10NO+
172.1122	8	C12H14N+
172.9556	48	C7H3Cl2O+
173.0836	7	C11H11NO+
174.0914	176	C11H12NO+
174.9713	2	C7H5Cl2O+
175.0866	2	C10H11N2O+
175.1228	5	C11H15N2+
176.0945	9	C10H12N2O+
176.107	2	C11H14NO+
177.1022	285	C10H13N2O+
178.1101	76	C10H14N2O+
179.0257	7	C10H8ClO+
179.1177	2	C10H15N2O+
184.992	63	C9H7Cl2+
185.9634	174	C8H4Cl2O+
186.9711	11	C8H5Cl2O+
187.1233	2	C12H15N2+
188.1069	17	C12H14NO+
189.1386	33	C12H17N2+
190.0861	5	C11H12NO2+
191.1177	8	C11H15N2O+
192.1019	33	C11H14NO2+
199.0077	3	C10H9Cl2+
200.107	31	C13H14NO+
201.102	1	C12H13N2O+
201.9947	11	C9H8Cl2O+
202.9661	16	C8H5Cl2O2+
203.0369	33	C11H8ClN2+
204.102	16	C12H14NO2+
205.0972	12	C11H13N2O2+
205.1336	17	
209.0364	38	C11H10ClO2+
213.9946	5	C10H8Cl2O+
215.118	11	C13H15N2O+
216.102	66	C13H14NO2+
216.1253	11	C13H16N2O+
217.1336	184	C13H17N2O+
218.1174	14	C13H16NO2+
219.1129	238	C12H15N2O2+
220.1207	106	C12H16N2O2+
224.9983	3	C10H7Cl2N2+
226.0061	3	C10H8Cl2N2+
230.1412	5	C14H18N2O+
231.1494	1	C14H19N2O+
233.0477	7	C12H10ClN2O+
233.1284	8	C13H17N2O2+
234.1126	26	C13H16NO3+
234.1364	7	C13H18N2O2+
235.1442	64	C13H19N2O2+
238.0059	104	C11H8Cl2N2+
239.0138	11	C11H9Cl2N2+
244.0053	263	C11H10Cl2O2+
247.0633	31	C13H12ClN2O+
247.144	3	C14H19N2O2+
255.0086	286	C11H9Cl2N2O+
259.1441	11	C15H19N2O2+
267.0087	132	C12H9Cl2N2O+
268.0164	13	C12H10Cl2N2O+
271.0036	2	C11H9Cl2N2O2+
276.1469	2	C15H20N2O3+
277.1546	2	C15H21N2O3+
281.0242	27	C13H11Cl2N2O+
282.032	20	C13H12Cl2N2O+
311.0349	28	C14H13Cl2N2O2+
378.066	35	C19H18Cl2NO3+
420.0763	13	C21H20Cl2NO4+
420.1005	1	C21H22Cl2N2O3+
421.108	24	C21H23Cl2N2O3+
446.1035	30	
489.1456	202	C24H27Cl2N4O3+
531.1562	149	C26H29Cl2N4O4+
