Mass spectrum: Triflumuron; LC-ESI-QFT; MS2; CE: 45; R=35000; [M+H]+
Name: Triflumuron
Name: 2-chloranyl-N-[[4-(trifluoromethyloxy)phenyl]carbamoyl]benzamide
Formula: C15H10ClF3N2O3
Exact mass: 358.03320
SMILES: O=C(c1ccccc1Cl)NC(=O)Nc2ccc(OC(F)(F)F)cc2
InChI: InChI=1S/C15H10ClF3N2O3/c16-12-4-2-1-3-11(12)13(22)21-14(23)20-9-5-7-10(8-6-9)24-15(17,18)19/h1-8H,(H2,20,21,22,23)
Instrument: Q Exactive Orbitrap Thermo Scientific
Instrument type: LC-ESI-QFT
Ms type: MS2
Ion mode: POSITIVE
Ionization: ESI
Fragmentation mode: HCD
Collision energy: 45 (nominal)
Resolution: 35000
Column name: XBridge C18 3.5um, 2.1x50mm, Waters
Retention time: 13.8 min
Base peak: 359.0407
Precursor m/z: 359.0405
Precursor type: [M+H]+
m/z	relative intensity	assigned
75.0227	3	C6H3+
93.0335	1	C6H5O+
95.0491	10	C6H7O+
105.0447	2	C6H5N2+
110.9993	4	C6H4Cl+
111.044	3	C6H7O2+
113.0152	105	C6H6Cl+
129.0102	6	C6H6ClO+
138.0107	9	C7H5ClN+
138.9945	999	C7H4ClO+
156.0211	883	C7H7ClNO+
176.0317	2	C7H5F3NO+
178.0473	31	C7H7F3NO+
