Mass spectrum: Flunixine; LC-ESI-QFT; MS2; CE: 150; R=35000; [M-H]-
Name: Flunixine
Name: Banamine
Name: 2-[2-methyl-3-(trifluoromethyl)anilino]pyridine-3-carboxylic acid
Formula: C14H11F3N2O2
Exact mass: 296.07726
SMILES: CC1=C(C=CC=C1NC2=C(C=CC=N2)C(=O)O)C(F)(F)F
InChI: InChI=1S/C14H11F3N2O2/c1-8-10(14(15,16)17)5-2-6-11(8)19-12-9(13(20)21)4-3-7-18-12/h2-7H,1H3,(H,18,19)(H,20,21)
Instrument: Q Exactive Plus Orbitrap Thermo Scientific
Instrument type: LC-ESI-QFT
Ms type: MS2
Ion mode: NEGATIVE
Ionization: ESI
Fragmentation mode: HCD
Collision energy: 150 (nominal)
Resolution: 35000
Column name: XBridge C18 3.5um, 2.1x50mm, Waters
Retention time: 11.0 min
Base peak: 295.0694
Precursor m/z: 295.07
Precursor type: [M-H]-
m/z	relative intensity	assigned
50.0035	363	C3N-
63.0114	15	C4HN-
63.0239	43	C5H3-
64.0193	288	C4H2N-
65.0144	81	C3HN2-
66.0349	66	C4H4N-
68.9958	55	CF3-
73.0085	76	C6H-
74.0037	265	C5N-
86.0162	13	C7H2-
87.0114	59	C6HN-
87.024	69	C7H3-
88.0192	158	C6H2N-
89.0146	24	C5HN2-
90.0349	49	C6H4N-
91.0301	68	C5H3N2-
93.0458	114	C5H5N2-
97.0083	97	C8H-
98.0035	101	C7N-
112.0194	106	C8H2N-
113.0272	24	C8H3N-
114.0349	610	C8H4N-
115.03	54	C7H3N2-
132.0253	72	C8H3FN-
134.0409	14	C8H5FN-
136.0192	44	C10H2N-
137.0271	11	C10H3N-
138.0349	507	C10H4N-
139.0301	328	C9H3N2-
140.0507	12	C10H6N-
141.0456	92	C9H5N2-
161.0273	15	C12H3N-
162.0351	327	C12H4N-
163.0303	283	C11H3N2-
164.0378	21	C11H4N2-
164.0505	48	C12H6N-
165.0458	395	C11H5N2-
174.0345	22	C13H4N-
175.0303	15	C12H3N2-
183.0366	17	C11H4FN2-
187.0301	217	C13H3N2-
188.0379	60	C13H4N2-
189.0458	999	C13H5N2-
190.0528	13	C13H6N2-
191.0612	19	C13H7N2-
209.052	67	C13H6FN2-
