Mass spectrum: N-tert-Butylisopropylamine; LC-ESI-QFT; MS2; CE: 150; R=35000; [M+H]+
Name: N-tert-Butylisopropylamine
Name: 2-methyl-N-propan-2-ylpropan-2-amine
Name: N-Isopropyl-2-methyl-2-propanamine
Formula: C7H17N
Exact mass: 115.13610
SMILES: CC(C)NC(C)(C)C
InChI: InChI=1S/C7H17N/c1-6(2)8-7(3,4)5/h6,8H,1-5H3
Instrument: Q Exactive Plus Orbitrap Thermo Scientific
Instrument type: LC-ESI-QFT
Ms type: MS2
Ion mode: POSITIVE
Ionization: ESI
Fragmentation mode: HCD
Collision energy: 150 (nominal)
Resolution: 35000
Column name: XBridge C18 3.5um, 2.1x50mm, Waters
Retention time: 1.3 min
Base peak: 116.1432
Precursor m/z: 116.1434
Precursor type: [M+H]+
m/z	relative intensity	assigned
53.0022	448	C3HO+
53.9975	72	C2NO+
55.0541	46	C4H7+
57.0699	999	C4H9+
86.9687	34	
