Mass spectrum: Genistein; LC-ESI-QFT; MS2; CE: 150; R=35000; [M+H]+
Name: Genistein
Name: 5,7-dihydroxy-3-(4-hydroxyphenyl)chromen-4-one
Formula: C15H10O5
Exact mass: 270.05282
SMILES: C1=CC(=CC=C1C2=COC3=CC(=CC(=C3C2=O)O)O)O
InChI: InChI=1S/C15H10O5/c16-9-3-1-8(2-4-9)11-7-20-13-6-10(17)5-12(18)14(13)15(11)19/h1-7,16-18H
Instrument: Q Exactive Plus Orbitrap Thermo Scientific
Instrument type: LC-ESI-QFT
Ms type: MS2
Ion mode: POSITIVE
Ionization: ESI
Fragmentation mode: HCD
Collision energy: 150 (nominal)
Resolution: 35000
Column name: XBridge C18 3.5um, 2.1x50mm, Waters
Retention time: 7.6 min
Base peak: 271.0599
Precursor m/z: 271.0601
Precursor type: [M+H]+
m/z	relative intensity	assigned
50.0151	36	C4H2+
51.023	39	C4H3+
52.0307	1	C4H4+
53.0022	49	C3HO+
53.0386	36	C4H5+
53.9975	9	C2NO+
55.0179	32	C3H3O+
61.0073	7	C5H+
62.0151	42	C5H2+
63.023	143	C5H3+
64.0307	3	C5H4+
65.0386	999	C5H5+
66.0464	6	C5H6+
67.0178	43	C4H3O+
67.9893	9	C3O2+
68.0256	1	C4H4O+
68.9971	324	C3HO2+
69.0335	27	C4H5O+
71.0128	1	C3H3O2+
74.0151	15	C6H2+
75.0229	78	C6H3+
76.0307	6	C6H4+
77.0386	55	C6H5+
78.0103	1	C5H2O+
78.0464	19	C6H6+
79.0178	22	C5H3O+
79.0542	10	C6H7+
81.0335	18	C5H5O+
83.0128	1	C4H3O2+
87.0229	6	C7H3+
88.0308	1	C7H4+
89.0386	148	C7H5+
90.0101	8	C6H2O+
90.0465	11	C7H6+
91.0179	14	C6H3O+
91.0543	253	C7H7+
92.0257	1	C6H4O+
92.9971	3	C5HO2+
94.0413	4	C6H6O+
95.0492	94	C6H7O+
96.0207	1	C5H4O2+
97.0285	4	C5H5O2+
99.023	5	C8H3+
101.0386	3	C8H5+
102.0464	26	C8H6+
103.0543	22	C8H7+
105.0335	15	C7H5O+
105.0448	49	C6H5N2+
107.0492	17	C7H7O+
108.0205	2	C6H4O2+
111.0441	3	C6H7O2+
113.0384	9	C9H5+
114.0464	5	C9H6+
115.0543	380	C9H7+
116.0621	8	C9H8+
118.0414	14	C8H6O+
119.049	5	C8H7O+
121.0283	5	C7H5O2+
121.0397	3	C6H5N2O+
125.0387	5	C10H5+
126.0464	31	C10H6+
127.0543	14	C10H7+
128.0621	34	C10H8+
129.0448	9	C8H5N2+
129.0701	1	C10H9+
131.0493	10	C9H7O+
132.0571	1	C9H8O+
138.0464	1	C11H6+
139.0543	129	C11H7+
140.0621	7	C11H8+
141.07	9	C11H9+
142.0415	1	C10H6O+
143.0491	1	C10H7O+
144.0571	4	C10H8O+
145.0286	1	C9H5O2+
145.0649	6	C10H9O+
150.0465	27	C12H6+
151.0543	4	C12H7+
152.0621	22	C12H8+
153.0182	3	C7H5O4+
155.0495	4	C11H7O+
155.0603	10	C10H7N2+
157.0648	2	C11H9O+
168.057	11	C12H8O+
169.0648	11	C12H9O+
171.0439	1	C11H7O2+
179.0608	4	C12H7N2+
