Mass spectrum: 2-(3-Hydroxycyclohexyl)-5-(2-methyl-2-octanyl)phenol; LC-ESI-QFT; MS2; CE: 120; R=35000; [M+H]+
Name: 2-(3-Hydroxycyclohexyl)-5-(2-methyl-2-octanyl)phenol
Name: CP47.497
Name: 2-(3-hydroxycyclohexyl)-5-(2-methyloctan-2-yl)phenol
Formula: C21H34O2
Exact mass: 318.25588
SMILES: CCCCCCC(C)(C)C1=CC(=C(C=C1)C2CCCC(C2)O)O
InChI: InChI=1S/C21H34O2/c1-4-5-6-7-13-21(2,3)17-11-12-19(20(23)15-17)16-9-8-10-18(22)14-16/h11-12,15-16,18,22-23H,4-10,13-14H2,1-3H3
Instrument: Q Exactive Plus Orbitrap Thermo Scientific
Instrument type: LC-ESI-QFT
Ms type: MS2
Ion mode: POSITIVE
Ionization: ESI
Fragmentation mode: HCD
Collision energy: 120 (nominal)
Resolution: 35000
Column name: XBridge C18 3.5um, 2.1x50mm, Waters
Retention time: 17.2 min
Base peak: 391.2833
Precursor m/z: 319.2632
Precursor type: [M+H]+
m/z	relative intensity	assigned
50.0151	31	C4H2+
51.0229	125	C4H3+
53.0022	64	C3HO+
53.0386	344	C4H5+
53.9974	28	C2NO+
55.0178	33	C3H3O+
55.0542	65	C4H7+
57.0699	142	C4H9+
65.0385	80	C5H5+
66.0463	12	C5H6+
67.0542	17	C5H7+
67.9892	4	C3O2+
71.0854	6	C5H11+
77.0385	209	C6H5+
78.0464	39	C6H6+
79.0542	810	C6H7+
81.0335	32	C5H5O+
81.0698	71	C6H9+
91.0542	753	C7H7+
92.062	42	C7H8+
93.0699	88	C7H9+
94.0412	24	C6H6O+
95.0491	755	C6H7O+
103.0542	272	C8H7+
104.062	16	C8H8+
105.0447	581	C6H5N2+
105.0699	694	C8H9+
106.0776	10	C8H10+
107.0491	346	C7H7O+
108.057	4	C7H8O+
109.0647	18	C7H9O+
115.0542	70	C9H7+
116.062	15	C9H8+
117.0698	34	C9H9+
119.0492	5	C8H7O+
119.0603	4	C7H7N2+
119.0855	36	C9H11+
120.057	13	C8H8O+
120.0934	6	C9H12+
121.0648	149	C8H9O+
128.062	19	C10H8+
129.0697	13	C10H9+
130.0776	4	C10H10+
131.0491	12	C9H7O+
131.0853	6	C10H11+
132.0569	19	C9H8O+
133.0648	999	C9H9O+
134.0725	6	C9H10O+
147.0804	58	C10H11O+
148.0884	5	C10H12O+
