Mass spectrum: Cefaclor; LC-ESI-QFT; MS2; CE: 75; R=35000; [M+H]+
Name: Cefaclor
Name: CEFACLOR
Name: (6R,7R)-7-[[(2R)-2-amino-1-oxo-2-phenylethyl]amino]-3-chloro-8-oxo-5-thia-1-azabicyclo[4.2.0]oct-2-ene-2-carboxylic acid
Formula: C15H14ClN3O4S
Exact mass: 367.03935
SMILES: O=C2N1/C(=C(/Cl)CS[C@@H]1[C@@H]2NC(=O)[C@@H](c3ccccc3)N)C(=O)O
InChI: InChI=1S/C15H14ClN3O4S/c16-8-6-24-14-10(13(21)19(14)11(8)15(22)23)18-12(20)9(17)7-4-2-1-3-5-7/h1-5,9-10,14H,6,17H2,(H,18,20)(H,22,23)/t9-,10-,14-/m1/s1
Instrument: Q Exactive Orbitrap Thermo Scientific
Instrument type: LC-ESI-QFT
Ms type: MS2
Ion mode: POSITIVE
Ionization: ESI
Fragmentation mode: HCD
Collision energy: 75 (nominal)
Resolution: 35000
Column name: XBridge C18 3.5um, 2.1x50mm, Waters
Retention time: 4.1 min
Base peak: 368.0469
Precursor m/z: 368.0466
Precursor type: [M+H]+
m/z	relative intensity	assigned
57.9873	4	C2H2S+
58.9951	17	C2H3S+
60.984	11	C2H2Cl+
63.0228	1	C5H3+
65.0386	5	C5H5+
66.0464	41	C5H6+
67.0417	1	C4H5N+
68.0257	2	C4H4O+
70.0287	24	C3H4NO+
72.9981	17	C2H3NS+
74.0059	31	C2H4NS+
79.0543	381	C6H7+
86.0059	97	C3H4NS+
87.9949	58	C3H3ClN+
89.0386	18	C7H5+
90.0105	6	C3H5ClN+
90.0464	89	C7H6+
91.0542	259	C7H7+
93.0447	13	C5H5N2+
94.0413	2	C6H6O+
95.0491	15	C6H7O+
98.006	1	C4H4NS+
99.9853	8	C3H2NOS+
100.0215	2	C4H6NS+
102.0105	3	C4H5ClN+
103.0543	25	C8H7+
104.0495	2	C7H6N+
104.9561	4	C3H2ClS+
105.0449	2	C6H5N2+
106.0652	999	C7H8N+
107.0492	6	C7H7O+
108.0569	9	C7H8O+
110.006	6	C5H4NS+
114.0008	124	C4H4NOS+
115.0542	7	C9H7+
116.0495	2	C8H6N+
117.0573	174	C8H7N+
118.0413	584	C8H6O+
118.0651	385	C8H8N+
119.0491	36	C8H7O+
120.0808	2	C8H10N+
121.0106	44	C7H5S+
122.0364	2	C7H6O2+
123.0263	89	C7H7S+
128.0496	14	C9H6N+
129.0214	11	C5H6ClN2+
130.0652	27	C9H8N+
131.0492	2	C9H7O+
132.0445	1	C8H6NO+
132.0807	1	C9H10N+
134.0601	2	C8H8NO+
135.0263	9	C8H7S+
136.0218	5	C7H6NS+
137.017	2	C6H5N2S+
137.0421	11	C8H9S+
143.9669	1	C5H3ClNS+
146.0601	91	C9H8NO+
147.0264	24	C9H7S+
150.0374	30	C8H8NS+
155.0008	2	C6H4ClN2O+
158.0004	7	C6H5ClNO2+
158.0599	8	C10H8NO+
159.068	5	C10H9NO+
162.0372	52	C9H8NS+
164.0531	9	C9H10NS+
173.0297	6	C10H7NS+
174.0372	34	C10H8NS+
174.0549	12	C10H8NO2+
177.9725	67	C5H5ClNO2S+
181.0761	1	C12H9N2+
182.0841	2	C12H10N2+
190.0322	7	C10H8NOS+
191.0401	5	C10H9NOS+
198.0375	1	C12H8NS+
209.0726	1	C7H15NO4S+
