Mass spectrum: Oxadiazon; LC-ESI-QFT; MS2; CE: 75; R=35000; [M+H]+
Name: Oxadiazon
Name: 5-tert-butyl-3-(2,4-dichloro-5-propan-2-yloxyphenyl)-1,3,4-oxadiazol-2-one
Formula: C15H18Cl2N2O3
Exact mass: 344.06945
SMILES: CC(C)OC1=C(C=C(C(=C1)N2C(=O)OC(=N2)C(C)(C)C)Cl)Cl
InChI: InChI=1S/C15H18Cl2N2O3/c1-8(2)21-12-7-11(9(16)6-10(12)17)19-14(20)22-13(18-19)15(3,4)5/h6-8H,1-5H3
Instrument: Q Exactive Plus Orbitrap Thermo Scientific
Instrument type: LC-ESI-QFT
Ms type: MS2
Ion mode: POSITIVE
Ionization: ESI
Fragmentation mode: HCD
Collision energy: 75 (nominal)
Resolution: 35000
Column name: XBridge C18 3.5um, 2.1x50mm, Waters
Retention time: 15.4 min
Base peak: 273.2055
Precursor m/z: 345.0767
Precursor type: [M+H]+
m/z	relative intensity	assigned
50.0151	3	C4H2+
52.0182	2	C3H2N+
53.0022	56	C3HO+
55.0542	2	C4H7+
57.0699	74	C4H9+
61.9792	2	CHClN+
62.9632	31	CClO+
64.0182	5	C4H2N+
65.026	2	C4H3N+
66.0339	4	C4H4N+
67.0178	2	C4H3O+
67.0542	1	C5H7+
68.0131	3	C3H2NO+
69.9924	20	C2NO2+
72.9839	43	C3H2Cl+
74.0964	1	C4H12N+
76.0181	25	C5H2N+
77.0021	1	C5HO+
78.0338	9	C5H4N+
80.0131	2	C4H2NO+
81.0699	1	C6H9+
82.0288	10	C4H4NO+
84.0807	2	C5H10N+
84.9839	90	C4H2Cl+
85.9918	2	C4H3Cl+
86.9632	4	C3ClO+
87.9947	1	C3H3ClN+
88.9789	10	C3H2ClO+
90.0106	18	C3H5ClN+
91.0543	2	C7H7+
92.0131	4	C5H2NO+
93.021	11	C5H3NO+
94.0288	100	C5H4NO+
95.0128	2	C5H3O2+
98.9996	3	C5H4Cl+
99.9949	23	C4H3ClN+
101.0027	30	C4H4ClN+
101.9867	22	C4H3ClO+
104.0131	7	C6H2NO+
109.9792	32	C5HClN+
111.9949	33	C5H3ClN+
112.0394	6	C5H6NO2+
112.9789	398	C5H2ClO+
113.9741	2	C4HClNO+
118.0053	2	C4H5ClNO+
120.008	20	C6H2NO2+
120.9607	72	C4H3Cl2+
122.0237	94	C6H4NO2+
127.9898	66	C5H3ClNO+
128.9976	520	C5H4ClNO+
129.9817	110	C5H3ClO2+
130.0055	23	C5H5ClNO+
131.0134	2	C5H6ClNO+
135.9717	2	C4H4Cl2N+
138.982	1	C6H2ClNO+
139.0058	2	C6H4ClN2+
139.9899	16	C6H3ClNO+
140.9738	372	C6H2ClO2+
141.9817	2	C6H3ClO2+
144.9923	1	C5H4ClNO2+
145.956	30	C5H2Cl2N+
146.0004	3	C5H5ClNO2+
147.9716	50	C5H4Cl2N+
148.003	34	C7H2NO3+
148.9556	790	C5H3Cl2O+
155.0006	3	C6H4ClN2O+
155.9847	101	C6H3ClNO2+
156.9926	46	C6H4ClNO2+
158.0006	1	C3H8Cl2N2O+
160.9875	2	C5H4ClNO3+
162.9827	1	C5H5Cl2N2+
163.9665	47	C5H4Cl2NO+
166.9665	6	C5H5Cl2O2+
172.9998	1	C7H6ClO3+
173.9509	207	C6H2Cl2NO+
175.9666	9	C6H4Cl2NO+
176.9505	797	C6H3Cl2O2+
180.9818	3	C6H7Cl2O2+
182.9955	2	C7H4ClN2O2+
183.9797	56	C7H3ClNO3+
184.0034	8	C7H5ClN2O2+
184.9875	999	C7H4ClNO3+
190.977	1	C9H2ClNO2+
191.9614	6	C6H4Cl2NO2+
201.9458	19	C7H2Cl2NO2+
202.9535	16	C10ClO3+
208.9766	2	C7H7Cl2O3+
219.9564	10	C7H4Cl2NO3+
