Mass spectrum: Flubendazole; LC-ESI-QFT; MS2; CE: 75; R=35000; [M-H]-
Name: Flubendazole
Name: Methyl N-[6-(4-fluorobenzoyl)-1H-benzimidazol-2-yl]carbamate
Formula: C16H12FN3O3
Exact mass: 313.08627
SMILES: COC(=O)NC1=NC2=C(N1)C=C(C=C2)C(=O)C3=CC=C(C=C3)F
InChI: InChI=1S/C16H12FN3O3/c1-23-16(22)20-15-18-12-7-4-10(8-13(12)19-15)14(21)9-2-5-11(17)6-3-9/h2-8H,1H3,(H2,18,19,20,22)
Instrument: Q Exactive Plus Orbitrap Thermo Scientific
Instrument type: LC-ESI-QFT
Ms type: MS2
Ion mode: NEGATIVE
Ionization: ESI
Fragmentation mode: HCD
Collision energy: 75 (nominal)
Resolution: 35000
Column name: XBridge C18 3.5um, 2.1x50mm, Waters
Retention time: 8.1 min
Base peak: 280.0527
Precursor m/z: 312.079
Precursor type: [M-H]-
m/z	relative intensity	assigned
50.0036	1	C3N-
64.0067	3	C3N2-
65.0146	13	C3HN2-
65.9986	12	C3NO-
68.0017	3	C2N2O-
68.0143	1	C3H2NO-
87.0116	1	C6HN-
89.0147	3	C5HN2-
90.0225	11	C5H2N2-
91.0063	1	C5HNO-
92.0255	12	C4H2N3-
93.0095	3	C4HN2O-
95.0252	16	C4H3N2O-
102.0224	4	C6H2N2-
105.0334	6	C5H3N3-
106.0174	74	C5H2N2O-
114.0225	4	C7H2N2-
115.0303	7	C7H3N2-
116.0258	1	C6H2N3-
117.0096	1	C6HN2O-
118.0176	3	C6H2N2O-
120.0092	4	C6H2NO2-
129.0334	182	C7H3N3-
130.0172	1	C7H2N2O-
132.0205	10	C6H2N3O-
133.0283	216	C6H3N3O-
134.0122	7	C6H2N2O2-
136.0153	4	C5H2N3O2-
145.0284	9	C7H3N3O-
147.0203	11	C7H3N2O2-
148.0151	1	C6H2N3O2-
149.0232	27	C6H3N3O2-
156.0206	45	C8H2N3O-
157.0284	610	C8H3N3O-
158.0362	23	C8H4N3O-
160.0155	111	C7H2N3O2-
161.0233	2	C7H3N3O2-
173.0232	40	C8H3N3O2-
186.0311	3	C9H4N3O2-
188.0103	1	C8H2N3O3-
207.0367	1	C13H4FN2-
209.0524	7	C13H6FN2-
210.0363	17	C13H5FNO-
217.0409	1	C11H6FN2O2-
223.0555	4	C13H6FN3-
224.0392	7	C13H5FN2O-
225.0471	1	C13H6FN2O-
231.0442	1	C14H5N3O-
232.0521	7	C14H6N3O-
233.0358	2	C14H5N2O2-
234.0474	5	C14H5FN3-
235.0317	5	C14H4FN2O-
236.0635	1	C14H7FN3-
237.0473	49	C14H6FN2O-
242.0362	3	C15H4N3O-
251.0504	24	C14H6FN3O-
252.0345	4	C14H5FN2O2-
252.058	7	C16H9FO2-
253.0423	25	C14H6FN2O2-
260.0469	23	C15H6N3O2-
262.0426	10	C15H5FN3O-
263.05	5	C15H6FN3O-
278.0374	48	C15H5FN3O2-
279.0455	3	C15H6FN3O2-
280.0533	999	C15H7FN3O2-
