Mass spectrum: Fluvastatin; LC-ESI-QFT; MS2; CE: 90; R=35000; [M-H]-
Name: Fluvastatin
Name: (3R,5S)-7-[3-(4-fluorophenyl)-1-isopropyl-2-indolyl]-3,5-dihydroxy-6-heptenoic acid
Formula: C24H26FNO4
Exact mass: 411.18459
SMILES: O=C(O)C[C@H](O)C[C@H](O)/C=C/c2c(c1ccccc1n2C(C)C)c3ccc(F)cc3
InChI: InChI=1S/C24H26FNO4/c1-15(2)26-21-6-4-3-5-20(21)24(16-7-9-17(25)10-8-16)22(26)12-11-18(27)13-19(28)14-23(29)30/h3-12,15,18-19,27-28H,13-14H2,1-2H3,(H,29,30)/b12-11+/t18-,19-/m1/s1
Instrument: Q Exactive Orbitrap Thermo Scientific
Instrument type: LC-ESI-QFT
Ms type: MS2
Ion mode: NEGATIVE
Ionization: ESI
Fragmentation mode: HCD
Collision energy: 90 (nominal)
Resolution: 35000
Column name: XBridge C18 3.5um, 2.1x50mm, Waters
Retention time: 13.5 min
Base peak: 410.1777
Precursor m/z: 410.1773
Precursor type: [M-H]-
m/z	relative intensity	assigned
57.0346	3	C3H5O-
59.0139	336	C2H3O2-
67.0189	2	C4H3O-
83.0502	10	C5H7O-
85.0296	24	C4H5O2-
87.0088	17	C3H3O3-
116.0507	44	C8H6N-
140.0506	9	C10H6N-
188.1328	1	C9H17FN2O-
190.0664	4	C14H8N-
208.0571	16	C14H7FN-
210.0725	999	C14H9FN-
214.0665	10	C16H8N-
216.0819	18	C16H10N-
221.0647	40	C15H8FN-
222.0725	154	C15H9FN-
224.0882	41	C15H11FN-
234.0725	263	C16H9FN-
236.0881	265	C16H11FN-
247.0807	2	C17H10FN-
260.0878	9	C18H11FN-
262.1038	2	C18H13FN-
264.0832	6	C17H11FNO-
267.1556	2	C19H20F-
