Mass spectrum: Fipronil-desulfinyl; LC-ESI-ITFT; MS2; CE: 15%; R=7500; [M-H]-
Name: Fipronil-desulfinyl
Name: 5-amino-1-[2,6-dichloro-4-(trifluoromethyl)phenyl]-4-(trifluoromethyl)-3-pyrazolecarbonitrile
Formula: C12H4Cl2F6N4
Exact mass: 387.9717
SMILES: C1=C(C=C(C(=C1Cl)N2C(=C(C(=N2)C#N)C(F)(F)F)N)Cl)C(F)(F)F
InChI: InChI=1S/C12H4Cl2F6N4/c13-5-1-4(11(15,16)17)2-6(14)9(5)24-10(22)8(12(18,19)20)7(3-21)23-24/h1-2H,22H2
Instrument: LTQ Orbitrap XL Thermo Scientific
Instrument type: LC-ESI-ITFT
Ms type: MS2
Ion mode: NEGATIVE
Ionization: ESI
Fragmentation mode: HCD
Collision energy: 15 % (nominal)
Resolution: 7500
Column name: XBridge C18 3.5um, 2.1x50mm, Waters
Retention time: 12.5 min
Base peak: 174.9566
Precursor m/z: 386.9644
Precursor type: [M-H]-
m/z	relative intensity	assigned
350.9871	999	C12H2ClF6N4-
