Mass spectrum: Methyldiphenylphosphine oxide; LC-ESI-QFT; MS2; CE: 150%; R=15000; [M+H]+
Name: Methyldiphenylphosphine oxide
Name: [methyl(phenyl)phosphoryl]benzene
Formula: C13H13OP
Exact mass: 216.0704
SMILES: CP(=O)(C1=CC=CC=C1)C2=CC=CC=C2
InChI: InChI=1S/C13H13OP/c1-15(14,12-8-4-2-5-9-12)13-10-6-3-7-11-13/h2-11H,1H3
Instrument: Orbitrap Exploris 240 Thermo Scientific
Instrument type: LC-ESI-QFT
Ms type: MS2
Ion mode: POSITIVE
Ionization: ESI
Fragmentation mode: HCD
Collision energy: 150 % (nominal)
Resolution: 15000
Column name: Atlantis C18 3um, 3.0x150mm, Waters
Retention time: 16.297 min
Base peak: 217.0773
Precursor m/z: 217.0777
Precursor type: [M+H]+
Precursor intensity: 1198465536
m/z	relative intensity	assigned
50.015	32	C4H2+
51.0229	459	C4H3+
53.0385	81	C4H5+
56.9887	7	C2H2P+
65.0385	96	C5H5+
68.9887	19	C3H2P+
77.0385	999	C6H5+
78.0462	28	C6H6+
83.0044	43	C4H4P+
91.0541	150	C7H7+
94.0412	52	C6H6O+
95.0044	49	C5H4P+
95.0491	252	C6H7O+
101.0151	20	C4H6OP+
105.0446	295	
109.0201	111	C6H6P+
111.0356	16	C6H8P+
121.0202	32	C7H6P+
125.0154	12	C6H6OP+
139.0307	14	C7H8OP+
