Mass spectrum: Ceftazidime; LC-ESI-QFT; MS2; CE: 60; R=35000; [M-H]-
Name: Ceftazidime
Name: (6R,7R)-7-[[(2Z)-2-(2-amino-1,3-thiazol-4-yl)-2-(2-carboxypropan-2-yloxyimino)acetyl]amino]-8-oxo-3-(pyridin-1-ium-1-ylmethyl)-5-thia-1-azabicyclo[4.2.0]oct-2-ene-2-carboxylate
Formula: C22H22N6O7S2
Exact mass: 546.09914
SMILES: O=C2N1/C(=C(\CS[C@@H]1[C@@H]2NC(=O)C(=N\OC(C(=O)O)(C)C)/c3nc(sc3)N)C[n+]4ccccc4)C([O-])=O
InChI: InChI=1S/C22H22N6O7S2/c1-22(2,20(33)34)35-26-13(12-10-37-21(23)24-12)16(29)25-14-17(30)28-15(19(31)32)11(9-36-18(14)28)8-27-6-4-3-5-7-27/h3-7,10,14,18H,8-9H2,1-2H3,(H4-,23,24,25,29,31,32,33,34)/b26-13-/t14-,18-/m1/s1
Instrument: Q Exactive Orbitrap Thermo Scientific
Instrument type: LC-ESI-QFT
Ms type: MS2
Ion mode: NEGATIVE
Ionization: ESI
Fragmentation mode: HCD
Collision energy: 60 (nominal)
Resolution: 35000
Column name: XBridge C18 3.5um, 2.1x50mm, Waters
Retention time: 3.3 min
Base peak: 235.9261
Precursor m/z: 545.0919
Precursor type: [M-H]-
m/z	relative intensity	assigned
57.0345	479	C3H5O-
57.9756	804	CNS-
65.0145	244	C3HN2-
65.9986	37	C3NO-
66.0098	17	C2N3-
67.0302	52	C3H3N2-
70.9835	34	C2HNS-
71.9913	16	C2H2NS-
77.0145	12	C4HN2-
79.0176	42	C3HN3-
81.0095	9	C3HN2O-
81.9757	117	C3NS-
82.0299	11	C4H4NO-
83.0251	11	C3H3N2O-
83.9913	61	C3H2NS-
89.0147	10	C5HN2-
90.0098	71	C4N3-
90.0349	12	C6H4N-
91.0303	11	C5H3N2-
92.0254	144	C4H2N3-
93.0094	39	C4HN2O-
95.0253	10	C4H3N2O-
95.9788	21	C3N2S-
96.0203	15	C3H2N3O-
96.9866	492	C3HN2S-
98.007	81	C4H4NS-
99.0022	15	C3H3N2S-
99.9862	11	C3H2NOS-
100.0227	116	C4H6NS-
103.0401	999	C4H7O3-
104.0128	51	C4N4-
104.0379	38	C6H4N2-
105.0458	18	C6H5N2-
108.0203	50	C4H2N3O-
108.9866	33	C4HN2S-
111.0021	37	C4H3N2S-
117.0205	14	C5HN4-
117.0458	16	C7H5N2-
120.02	36	C5H2N3O-
121.9944	13	C5H2N2S-
122.0359	19	C5H4N3O-
122.9897	74	C4HN3S-
123.9974	172	C4H2N3S-
124.9815	48	C4HN2OS-
126.0131	34	C4H4N3S-
132.044	15	C6H4N4-
134.0233	14	C5H2N4O-
135.0311	25	C5H3N4O-
135.9972	35	C5H2N3S-
136.0278	22	C6H4N2O2-
138.0007	12	C4H2N4S-
138.0128	10	C5H4N3S-
138.9975	13	C5H3N2OS-
151.992	13	C5H2N3OS-
