Mass spectrum: Metolachlor-TP SYN542490; LC-ESI-QFT; MS2; CE: 45%; R=17500; [M+H]+
Name: Metolachlor-TP SYN542490
Formula: C15H21NO6S
Exact mass: 343.1090
SMILES: O=S(=O)(O)CC(=O)N(C(C)COC)c1c(C)cccc1C(C)=O
InChI: InChI=1S/C15H21NO6S/c1-10-6-5-7-13(12(3)17)15(10)16(11(2)8-22-4)14(18)9-23(19,20)21/h5-7,11H,8-9H2,1-4H3,(H,19,20,21)
Instrument: Exploris 240 Orbitrap Thermo Scientific
Instrument type: LC-ESI-QFT
Ms type: MS2
Ion mode: POSITIVE
Ionization: ESI
Fragmentation mode: HCD
Collision energy: 45 % (nominal)
Resolution: 17500
Column name: XBridge C18 3.5um, 2.1x50mm, Waters
Retention time: 4.668 min
Base peak: 344.1159
Precursor m/z: 344.1162
Precursor type: [M+H]+
m/z	relative intensity	assigned
73.0648	85	C4H9O+
132.0806	16	C9H10N+
146.0968	29	C10H12N+
148.1122	42	C10H14N+
156.0805	30	C11H10N+
160.0757	18	C10H10NO+
171.1042	8	C12H13N+
172.1121	188	C12H14N+
173.0833	27	C11H11NO+
174.0914	145	C11H12NO+
175.0994	37	C11H13NO+
178.0678	6	C10H12NS+
188.1071	98	C12H14NO+
190.123	73	C12H16NO+
210.0585	20	C10H12NO2S+
214.1227	999	C14H16NO+
216.102	68	C13H14NO2+
222.1495	11	C13H20NO2+
232.1333	296	C14H18NO2+
246.1122	30	C14H16NO3+
252.0689	530	C12H14NO3S+
254.049	14	C11H12NO4S+
294.0795	77	C14H16NO4S+
312.0903	103	C14H18NO5S+
