Mass spectrum: Cyanofenphos; LC-ESI-QFT; MS2; CE: 15%; R=17500; [M+H]+
Name: Cyanofenphos
Name: 4-[ethoxy(phenyl)phosphinothioyl]oxybenzonitrile
Formula: C15H14NO2PS
Exact mass: 303.0483
SMILES: CCOP(=S)(C1=CC=CC=C1)OC2=CC=C(C=C2)C#N
InChI: InChI=1S/C15H14NO2PS/c1-2-17-19(20,15-6-4-3-5-7-15)18-14-10-8-13(12-16)9-11-14/h3-11H,2H2,1H3
Instrument: Exploris 240 Orbitrap Thermo Scientific
Instrument type: LC-ESI-QFT
Ms type: MS2
Ion mode: POSITIVE
Ionization: ESI
Fragmentation mode: HCD
Collision energy: 15 % (nominal)
Resolution: 17500
Column name: XBridge C18 3.5um, 2.1x50mm, Waters
Retention time: 10.835 min
Base peak: 363.0217
Precursor m/z: 304.0556
Precursor type: [M+H]+
m/z	relative intensity	assigned
120.0449	4	C7H6NO+
156.9874	13	C6H6OPS+
185.0184	31	C8H10OPS+
258.0137	34	C13H9NOPS+
276.0243	446	C13H11NO2PS+
304.0556	999	C15H15NO2PS+
