Mass spectrum: Difethialone; LC-ESI-QFT; MS2; CE: 120%; R=17500; [M+H]+
Name: Difethialone
Name: 3-[3-[4-(4-bromophenyl)phenyl]-1,2,3,4-tetrahydronaphthalen-1-yl]-2-hydroxythiochromen-4-one
Formula: C31H23BrO2S
Exact mass: 538.0602
SMILES: C1C(CC2=CC=CC=C2C1C3=C(SC4=CC=CC=C4C3=O)O)C5=CC=C(C=C5)C6=CC=C(C=C6)Br
InChI: InChI=1S/C31H23BrO2S/c32-24-15-13-20(14-16-24)19-9-11-21(12-10-19)23-17-22-5-1-2-6-25(22)27(18-23)29-30(33)26-7-3-4-8-28(26)35-31(29)34/h1-16,23,27,34H,17-18H2
Instrument: Exploris 240 Orbitrap Thermo Scientific
Instrument type: LC-ESI-QFT
Ms type: MS2
Ion mode: POSITIVE
Ionization: ESI
Fragmentation mode: HCD
Collision energy: 120 % (nominal)
Resolution: 17500
Column name: XBridge C18 3.5um, 2.1x50mm, Waters
Retention time: 17.282 min
Base peak: 541.0654
Precursor m/z: 539.0675
Precursor type: [M+H]+
m/z	relative intensity	assigned
65.0385	324	C5H5+
68.9795	26	C3HS+
77.0386	75	C6H5+
89.0389	32	C7H5+
90.0464	19	C7H6+
91.0542	911	C7H7+
95.0491	78	C6H7O+
102.0466	40	C8H6+
103.0541	83	C8H7+
109.0106	597	C6H5S+
115.0542	177	C9H7+
121.0108	41	C7H5S+
127.0541	21	C10H7+
128.062	189	C10H8+
134.0186	42	C8H6S+
135.0266	39	C8H7S+
137.0054	52	C7H5OS+
139.0541	51	C11H7+
141.0701	34	C11H9+
147.0265	69	C9H7S+
151.0543	33	C12H7+
152.062	373	C12H8+
153.0699	152	C12H9+
154.0781	72	C12H10+
163.0539	105	C13H7+
164.062	169	C13H8+
165.0698	957	C13H9+
169.0643	69	C12H9O+
176.0618	342	C14H8+
177.0699	327	C14H9+
178.0776	999	C14H10+
179.0859	58	C14H11+
189.0703	34	C15H9+
202.0774	48	C16H10+
215.0855	108	C17H11+
226.0773	111	C18H10+
227.0855	16	C18H11+
239.0854	978	C19H11+
240.0937	138	C19H12+
241.1011	205	C19H13+
242.9802	13	C13H8Br+
252.0934	257	C20H12+
253.1011	229	C20H13+
254.1089	247	C20H14+
