Mass spectrum: Dronedarone; LC-ESI-ITFT; MS2; CE: 75%; R=15000; [M+H]+
Name: Dronedarone
Name: N-[2-butyl-3-[4-[3-(dibutylamino)propoxy]benzoyl]-1-benzofuran-5-yl]methanesulfonamide
Formula: C31H44N2O5S
Exact mass: 556.2971
SMILES: CS(=O)(=O)Nc1cc2c(c(oc2cc1)CCCC)C(c1ccc(cc1)OCCCN(CCCC)CCCC)=O
InChI: InChI=1S/C31H44N2O5S/c1-5-8-12-29-30(27-23-25(32-39(4,35)36)15-18-28(27)38-29)31(34)24-13-16-26(17-14-24)37-22-11-21-33(19-9-6-2)20-10-7-3/h13-18,23,32H,5-12,19-22H2,1-4H3
Instrument: LTQ Orbitrap XL Thermo Scientific
Instrument type: LC-ESI-ITFT
Ms type: MS2
Ion mode: POSITIVE
Ionization: ESI
Fragmentation mode: HCD
Collision energy: 75 % (nominal)
Resolution: 15000
Column name: XBridge C18 3.5um, 2.1x50mm, Waters
Retention time: 11.5 min
Base peak: 557.3051
Precursor m/z: 557.3044
Precursor type: [M+H]+
m/z	relative intensity	assigned
57.0698	35	C4H9+
58.0651	996	C3H8N+
70.0651	34	C4H8N+
72.0808	42	C4H10N+
84.0807	21	C5H10N+
86.0964	98	C5H12N+
100.1121	999	C6H14N+
105.0701	4	C8H9+
112.112	18	C7H14N+
114.1276	146	C7H16N+
118.0413	13	C8H6O+
121.0283	79	C7H5O2+
121.0395	5	C6H5N2O+
128.1433	66	C8H18N+
130.0647	3	C9H8N+
133.0284	16	C8H5O2+
142.159	98	C9H20N+
144.0442	5	C9H6NO+
145.0521	32	C9H7NO+
146.06	23	C9H8NO+
147.044	46	C9H7O2+
158.0963	4	C11H12N+
159.0674	9	C10H9NO+
161.0596	57	C10H9O2+
170.1898	7	C11H24N+
172.039	10	C10H6NO2+
172.0754	6	C11H10NO+
173.047	51	C10H7NO2+
174.0549	42	C10H8NO2+
186.0547	17	C11H8NO2+
186.0911	6	C12H12NO+
215.0939	31	C13H13NO2+
216.1016	16	C13H14NO2+
220.0749	6	C15H10NO+
222.0906	5	C15H12NO+
233.0603	3	C16H9O2+
234.0911	3	C10H18O4S+
236.0703	5	C15H10NO2+
238.0861	6	C15H12NO2+
248.071	4	C10H16O5S+
249.0784	20	C16H11NO2+
250.0862	22	C16H12NO2+
251.096	3	C10H19O5S+
252.102	4	C16H14NO2+
262.0852	4	C17H12NO2+
264.0645	5	C16H10NO3+
264.1023	6	C11H20O5S+
265.0733	21	C16H11NO3+
266.0816	6	C16H12NO3+
278.0813	6	C17H12NO3+
280.0971	4	C17H14NO3+
292.097	3	C18H14NO3+
435.2703	8	C29H39OS+
