Mass spectrum: Cimetidine; LC-ESI-QFT; MS2; CE: 150; R=35000; [M+H]+
Name: Cimetidine
Name: 1-cyano-2-methyl-3-[2-[(5-methyl-1H-imidazol-4-yl)methylsulfanyl]ethyl]guanidine
Formula: C10H16N6S
Exact mass: 252.11572
SMILES: CC1=C(N=CN1)CSCCNC(=NC)NC#N
InChI: InChI=1S/C10H16N6S/c1-8-9(16-7-15-8)5-17-4-3-13-10(12-2)14-6-11/h7H,3-5H2,1-2H3,(H,15,16)(H2,12,13,14)
Instrument: Q Exactive Plus Orbitrap Thermo Scientific
Instrument type: LC-ESI-QFT
Ms type: MS2
Ion mode: POSITIVE
Ionization: ESI
Fragmentation mode: HCD
Collision energy: 150 (nominal)
Resolution: 35000
Column name: XBridge C18 3.5um, 2.1x50mm, Waters
Retention time: 2.0 min
Base peak: 253.1222
Precursor m/z: 253.123
Precursor type: [M+H]+
m/z	relative intensity	assigned
50.0151	2	C4H2+
51.023	8	C4H3+
52.0182	13	C3H2N+
53.0022	78	C3HO+
53.0386	11	C4H5+
54.0338	999	C3H4N+
55.0291	130	C2H3N2+
56.0495	3	C3H6N+
57.0447	510	C2H5N2+
58.9823	4	CHNS+
58.995	19	C2H3S+
59.9902	24	CH2NS+
60.0028	8	C2H4S+
61.0106	578	C2H5S+
66.0338	11	C4H4N+
67.0416	3	C4H5N+
68.0243	255	C2H2N3+
68.0494	228	C4H6N+
69.0447	9	C3H5N2+
74.0058	216	C2H4NS+
76.0214	2	C2H6NS+
78.0086	5	C3N3+
81.0447	17	C4H5N2+
82.0399	349	C3H4N3+
83.0604	2	C4H7N2+
84.9855	2	C2HN2S+
86.006	2	C3H4NS+
94.0524	2	C5H6N2+
95.0603	980	C5H7N2+
103.0324	3	C3H7N2S+
117.0481	45	C4H9N2S+
