Mass spectrum: Antipyrine; LC-ESI-ITFT; MS2; CE: 60%; R=15000; [M+H]+
Name: Antipyrine
Name: Phenazone
Name: 1,5-dimethyl-2-phenyl-3-pyrazolone
Formula: C11H12N2O
Exact mass: 188.0950
SMILES: CN1N(C(=O)C=C1C)C2=CC=CC=C2
InChI: InChI=1S/C11H12N2O/c1-9-8-11(14)13(12(9)2)10-6-4-3-5-7-10/h3-8H,1-2H3
Instrument: LTQ Orbitrap XL Thermo Scientific
Instrument type: LC-ESI-ITFT
Ms type: MS2
Ion mode: POSITIVE
Ionization: ESI
Fragmentation mode: HCD
Collision energy: 60 % (nominal)
Resolution: 15000
Column name: XBridge C18 3.5um, 2.1x50mm, Waters
Retention time: 4.6 min
Base peak: 189.1027
Precursor m/z: 189.1022
Precursor type: [M+H]+
m/z	relative intensity	assigned
56.0495	52	C3H6N+
58.0651	46	C3H8N+
65.0386	6	C5H5+
68.0496	2	C4H6N+
69.0575	2	C4H7N+
70.0651	5	C4H8N+
77.0386	9	C6H5+
81.0447	7	C4H5N2+
91.0542	15	C7H7+
92.0494	3	C6H6N+
93.0333	2	C6H5O+
95.0603	8	C5H7N2+
96.0444	7	C5H6NO+
96.0683	29	C5H8N2+
98.0601	13	C5H8NO+
103.0543	3	C8H7+
104.0495	76	C7H6N+
105.0336	4	C7H5O+
105.07	3	C8H9+
106.0651	47	C7H8N+
111.0552	2	C5H7N2O+
115.0545	3	C9H7+
117.0571	6	C8H7N+
117.0699	17	C9H9+
118.0652	38	C8H8N+
120.0807	40	C8H10N+
130.0651	50	C9H8N+
131.0605	4	C8H7N2+
131.073	73	C9H9N+
132.0807	34	C9H10N+
133.0522	7	C8H7NO+
133.076	8	C8H9N2+
134.0963	8	C9H12N+
135.0553	2	C7H7N2O+
144.0808	63	C10H10N+
145.0648	26	C10H9O+
145.076	7	C9H9N2+
145.0889	3	C10H11N+
146.0839	73	C9H10N2+
146.0964	18	C10H12N+
147.0917	114	C9H11N2+
148.0757	8	C9H10NO+
149.0711	10	C8H9N2O+
157.0522	8	C10H7NO+
158.0599	5	C10H8NO+
160.0996	4	C10H12N2+
161.1073	84	C10H13N2+
172.0757	12	C11H10NO+
174.0787	68	C10H10N2O+
189.1023	999	C11H13N2O+
