Mass spectrum: O-Des[2-aminoethyl]-O-carboxymethyl dehydroamlodipine; LC-ESI-QFT; MS2; CE: 180%; R=15000; [M+H]+
Name: O-Des[2-aminoethyl]-O-carboxymethyl dehydroamlodipine
Name: 2-((4-(2-Chlorophenyl)-3-ethoxycarbonyl-5-methoxycarbonyl-6-methyl-2-pyridyl)methoxy)acetic acid
Name: 2-[[4-(2-chlorophenyl)-3-ethoxycarbonyl-5-methoxycarbonyl-6-methylpyridin-2-yl]methoxy]acetic acid
Formula: C20H20ClNO7
Exact mass: 421.0928
SMILES: CCOC(=O)C1=C(C(=C(N=C1COCC(=O)O)C)C(=O)OC)C2=CC=CC=C2Cl
InChI: InChI=1S/C20H20ClNO7/c1-4-29-20(26)18-14(9-28-10-15(23)24)22-11(2)16(19(25)27-3)17(18)12-7-5-6-8-13(12)21/h5-8H,4,9-10H2,1-3H3,(H,23,24)
Instrument: Orbitrap Exploris 240 Thermo Scientific
Instrument type: LC-ESI-QFT
Ms type: MS2
Ion mode: POSITIVE
Ionization: ESI
Fragmentation mode: HCD
Collision energy: 180 % (nominal)
Resolution: 15000
Column name: Atlantis C18 3um, 3.0x150mm, Waters
Retention time: 18.434 min
Base peak: 422.0997
Precursor m/z: 422.1001
Precursor type: [M+H]+
Precursor intensity: 667762176
m/z	relative intensity	assigned
50.0153	24	C4H2+
51.023	22	C4H3+
62.015	13	C5H2+
63.0229	121	C5H3+
65.0386	56	C5H5+
72.9841	16	C3H2Cl+
74.015	76	C6H2+
75.0229	151	C6H3+
76.0308	82	C6H4+
77.0386	44	C6H5+
86.0152	40	C7H2+
87.023	88	C7H3+
88.0306	70	C7H4+
89.0385	186	C7H5+
95.0492	18	C6H7O+
98.0149	76	C8H2+
98.9997	15	C5H4Cl+
99.0229	205	C8H3+
100.0183	11	C7H2N+
100.0307	39	C8H4+
102.0464	22	C8H6+
105.0449	17	
112.031	13	C9H4+
113.0386	251	C9H5+
114.0464	104	C9H6+
115.0542	83	C9H7+
122.0154	18	C10H2+
123.0225	25	C10H3+
124.019	18	C9H2N+
125.0385	53	C10H5+
126.0464	366	C10H6+
127.0541	22	C10H7+
128.0622	10	C10H8+
137.0387	97	C11H5+
138.0463	100	C11H6+
139.0542	999	C11H7+
140.0495	189	C10H6N+
140.0623	30	C11H8+
149.0155	59	C9H6Cl+
149.0386	16	C12H5+
150.0466	139	C12H6+
151.0417	47	C11H5N+
151.0549	26	C12H7+
152.0625	37	C12H8+
164.0493	73	C12H6N+
165.0577	12	C12H7N+
166.0652	56	C12H8N+
169.0648	15	C12H9O+
173.0151	15	C11H6Cl+
