Mass spectrum: N-Desmethylvenlafaxine; LC-ESI-ITFT; MS2; CE: 90%; R=7500; [M+H]+
Name: N-Desmethylvenlafaxine
Name: 1-[1-(4-methoxyphenyl)-2-(methylamino)ethyl]-1-cyclohexanol
Formula: C16H25NO2
Exact mass: 263.1885
SMILES: CNCC(C1=CC=C(C=C1)OC)C2(CCCCC2)O
InChI: InChI=1S/C16H25NO2/c1-17-12-15(16(18)10-4-3-5-11-16)13-6-8-14(19-2)9-7-13/h6-9,15,17-18H,3-5,10-12H2,1-2H3
Instrument: LTQ Orbitrap XL Thermo Scientific
Instrument type: LC-ESI-ITFT
Ms type: MS2
Ion mode: POSITIVE
Ionization: ESI
Fragmentation mode: HCD
Collision energy: 90 % (nominal)
Resolution: 7500
Column name: XBridge C18 3.5um, 2.1x50mm, Waters
Retention time: 6.3 min
Base peak: 264.1967
Precursor m/z: 264.1958
Precursor type: [M+H]+
m/z	relative intensity	assigned
67.0542	16	C5H7+
77.0387	42	C6H5+
78.0465	19	C6H6+
79.0543	78	C6H7+
81.0699	106	C6H9+
91.0542	418	C7H7+
93.0699	26	C7H9+
105.0451	16	C6H5N2+
105.07	28	C8H9+
107.0489	45	C7H7O+
107.0859	16	C8H11+
115.0541	60	C9H7+
117.0699	58	C9H9+
119.0599	15	C7H7N2+
119.0853	26	C9H11+
121.0648	999	C8H9O+
128.0618	21	C10H8+
129.0698	24	C10H9+
130.0779	12	C10H10+
131.0489	23	C9H7O+
132.057	65	C9H8O+
135.0802	39	C9H11O+
141.0696	25	C11H9+
144.0568	43	C10H8O+
145.0647	17	C10H9O+
146.0724	14	C10H10O+
147.0804	172	C10H11O+
148.0752	40	C9H10NO+
149.0831	28	C9H11NO+
158.0728	91	C11H10O+
159.0803	47	C11H11O+
161.0964	12	C11H13O+
173.0954	32	C12H13O+
