Mass spectrum: Venlafaxine; LC-ESI-QFT; MS2; CE: 75; R=35000; [M+H]+
Name: Venlafaxine
Name: 1-[2-(dimethylamino)-1-(4-methoxyphenyl)ethyl]-1-cyclohexanol
Formula: C17H27NO2
Exact mass: 277.20418
SMILES: CN(C)CC(C1=CC=C(C=C1)OC)C2(CCCCC2)O
InChI: InChI=1S/C17H27NO2/c1-18(2)13-16(17(19)11-5-4-6-12-17)14-7-9-15(20-3)10-8-14/h7-10,16,19H,4-6,11-13H2,1-3H3
Instrument: Q Exactive Orbitrap Thermo Scientific
Instrument type: LC-ESI-QFT
Ms type: MS2
Ion mode: POSITIVE
Ionization: ESI
Fragmentation mode: HCD
Collision energy: 75 (nominal)
Resolution: 35000
Column name: XBridge C18 3.5um, 2.1x50mm, Waters
Retention time: 6.2 min
Base peak: 278.2118
Precursor m/z: 278.2115
Precursor type: [M+H]+
m/z	relative intensity	assigned
56.0496	1	C3H6N+
58.0653	999	C3H8N+
65.0387	2	C5H5+
67.0544	4	C5H7+
69.07	7	C5H9+
77.0386	1	C6H5+
78.0465	3	C6H6+
79.0543	24	C6H7+
81.07	25	C6H9+
91.0543	74	C7H7+
93.07	12	C7H9+
95.0493	7	C6H7O+
103.0543	1	C8H7+
105.07	6	C8H9+
107.0493	9	C7H7O+
107.0856	5	C8H11+
109.0649	14	C7H9O+
115.0543	6	C9H7+
117.0701	7	C9H9+
119.0492	2	C8H7O+
119.0605	3	C7H7N2+
119.0857	5	C9H11+
121.0649	343	C8H9O+
128.0622	2	C10H8+
129.0701	3	C10H9+
131.0494	2	C9H7O+
132.0571	14	C9H8O+
133.0649	1	C9H9O+
135.0806	21	C9H11O+
141.0699	5	C11H9+
143.0858	1	C11H11+
144.0574	9	C10H8O+
145.0649	6	C10H9O+
146.0728	2	C10H10O+
147.0806	98	C10H11O+
148.076	1	C9H10NO+
155.0858	2	C12H11+
158.0728	15	C11H10O+
159.0806	26	C11H11O+
161.0963	3	C11H13O+
162.0913	6	C10H12NO+
163.0993	6	C10H13NO+
172.0888	1	C12H12O+
173.0964	34	C12H13O+
174.1041	1	C12H14O+
177.115	4	C11H15NO+
178.1227	2	C11H16NO+
