Mass spectrum: Triflusulfuron-methyl; LC-ESI-QFT; MS2; CE: 45; R=35000; [M-H]-
Name: Triflusulfuron-methyl
Name: 2-[[4-(dimethylamino)-6-(2,2,2-trifluoroethoxy)-s-triazin-2-yl]carbamoylsulfamoyl]-3-methyl-benzoic acid methyl ester
Formula: C17H19F3N6O6S
Exact mass: 492.10389
SMILES: O=C(OC)c1cccc(c1S(=O)(=O)NC(=O)Nc2nc(nc(OCC(F)(F)F)n2)N(C)C)C
InChI: InChI=1S/C17H19F3N6O6S/c1-9-6-5-7-10(12(27)31-4)11(9)33(29,30)25-15(28)22-13-21-14(26(2)3)24-16(23-13)32-8-17(18,19)20/h5-7H,8H2,1-4H3,(H2,21,22,23,24,25,28)
Instrument: Q Exactive Orbitrap Thermo Scientific
Instrument type: LC-ESI-QFT
Ms type: MS2
Ion mode: NEGATIVE
Ionization: ESI
Fragmentation mode: HCD
Collision energy: 45 (nominal)
Resolution: 35000
Column name: XBridge C18 3.5um, 2.1x50mm, Waters
Retention time: 10.8 min
Base peak: 491.0971
Precursor m/z: 491.0966
Precursor type: [M-H]-
m/z	relative intensity	assigned
61.9706	1	NOS-
66.0096	10	C2N3-
68.9957	28	CF3-
78.0097	1	C3N3-
79.0001	2	C2HF2O-
105.9605	1	CNO3S-
106.0049	1	C4N3O-
106.0286	1	C4H2N4-
107.0363	5	C4H3N4-
111.0111	7	C3FN4-
121.0521	7	C5H5N4-
124.0191	4	C4HFN4-
126.011	6	C4HFN3O-
128.0629	10	C5H7FN3-
133.0394	8	C5H3N5-
134.0234	1	C5H2N4O-
135.0313	5	C5H3N4O-
136.0627	5	C5H6N5-
138.0785	52	C5H8N5-
147.0313	1	C6H3N4O-
148.039	8	C6H4N4O-
148.0628	42	C6H6N5-
149.0467	6	C6H5N4O-
151.0061	40	C5FN4O-
152.0139	68	C5HFN4O-
153.0216	1	C5H2FN4O-
160.0265	11	C6H2N5O-
161.0343	274	C6H3N5O-
166.0733	244	C6H8N5O-
167.0611	12	C6H6FN5-
169.0531	17	C6H6FN4O-
176.0576	516	C3H11FNO6-
181.0405	13	C6H4FN5O-
196.0078	166	
196.0641	999	C7H7FN5O-
216.0701	222	C7H8F2N5O-
236.0764	312	C7H9F3N5O-
