Mass spectrum: Naproxen; LC-ESI-ITFT; MS2; CE: 60%; R=15000; [M+H]+
Name: Naproxen
Name: 2-(6-methoxy-2-naphthalenyl)propanoic acid
Formula: C14H14O3
Exact mass: 230.0943
SMILES: CC(C1=CC2=C(C=C1)C=C(C=C2)OC)C(=O)O
InChI: InChI=1S/C14H14O3/c1-9(14(15)16)10-3-4-12-8-13(17-2)6-5-11(12)7-10/h3-9H,1-2H3,(H,15,16)
Instrument: LTQ Orbitrap XL Thermo Scientific
Instrument type: LC-ESI-ITFT
Ms type: MS2
Ion mode: POSITIVE
Ionization: ESI
Fragmentation mode: HCD
Collision energy: 60 % (nominal)
Resolution: 15000
Column name: XBridge C18 3.5um, 2.1x50mm, Waters
Retention time: 10.2 min
Base peak: 253.0841
Precursor m/z: 231.1016
Precursor type: [M+H]+
m/z	relative intensity	assigned
153.0698	116	C12H9+
154.0775	96	C12H10+
155.0853	83	C12H11+
158.0725	79	C11H10O+
170.0724	431	C12H10O+
185.0959	999	C13H13O+
