Mass spectrum: Danofloxacin; LC-ESI-QFT; MS2; CE: 180; R=35000; [M+H]+
Name: Danofloxacin
Name: 1-cyclopropyl-6-fluoro-7-(5-methyl-2-aza-5-azoniabicyclo[2.2.1]heptan-2-yl)-4-oxoquinoline-3-carboxylate
Formula: C19H20FN3O3
Exact mass: 357.14887
SMILES: CN1C[C@@H]2C[C@H]1CN2C3=C(C=C4C(=C3)N(C=C(C4=O)C(=O)O)C5CC5)F
InChI: InChI=1S/C19H20FN3O3/c1-21-7-12-4-11(21)8-22(12)17-6-16-13(5-15(17)20)18(24)14(19(25)26)9-23(16)10-2-3-10/h5-6,9-12H,2-4,7-8H2,1H3,(H,25,26)/t11-,12-/m0/s1
Instrument: Q Exactive Plus Orbitrap Thermo Scientific
Instrument type: LC-ESI-QFT
Ms type: MS2
Ion mode: POSITIVE
Ionization: ESI
Fragmentation mode: HCD
Collision energy: 180 (nominal)
Resolution: 35000
Column name: XBridge C18 3.5um, 2.1x50mm, Waters
Retention time: 4.4 min
Base peak: 164.9843
Precursor m/z: 358.1561
Precursor type: [M+H]+
m/z	relative intensity	assigned
50.0151	58	C4H2+
51.023	93	C4H3+
52.0181	16	C3H2N+
53.0022	420	C3HO+
53.0386	69	C4H5+
53.9975	22	C2NO+
54.0339	75	C3H4N+
55.0179	5	C3H3O+
55.0417	21	C3H5N+
55.0543	60	C4H7+
56.0495	17	C3H6N+
57.0136	148	C3H2F+
58.0653	3	C3H8N+
61.0073	26	C5H+
62.0151	50	C5H2+
63.023	137	C5H3+
64.0182	13	C4H2N+
65.0386	102	C5H5+
66.0464	7	C5H6+
67.0417	999	C4H5N+
68.0495	36	C4H6N+
70.0087	29	C3HFN+
70.0213	24	C4H3F+
70.0652	25	C4H8N+
74.0151	174	C6H2+
75.0229	367	C6H3+
76.0182	34	C5H2N+
76.0308	24	C6H4+
77.0385	27	C6H5+
78.0339	13	C5H4N+
78.0465	6	C6H6+
79.0417	19	C5H5N+
80.0495	262	C5H6N+
81.0135	126	C5H2F+
81.0573	31	C5H7N+
82.0652	513	C5H8N+
83.0292	98	C5H4F+
84.0371	14	C5H5F+
84.0808	4	C5H10N+
85.0073	26	C7H+
86.0151	44	C7H2+
87.0105	22	C6HN+
87.023	87	C7H3+
88.0182	56	C6H2N+
88.0307	27	C7H4+
89.0386	101	C7H5+
90.034	5	C6H4N+
90.0465	14	C7H6+
91.0544	5	C7H7+
92.0257	10	C6H4O+
93.0136	84	C6H2F+
94.0214	36	C6H3F+
94.0653	14	C6H8N+
95.0293	4	C6H4F+
95.0492	63	C6H7O+
96.037	36	C6H5F+
96.0444	30	C5H6NO+
97.0448	3	C6H6F+
98.0152	74	C8H2+
99.023	297	C8H3+
100.0182	124	C7H2N+
100.0308	30	C8H4+
101.0386	22	C8H5+
102.034	14	C7H4N+
102.0465	20	C8H6+
103.0544	4	C8H7+
104.0496	6	C7H6N+
105.0136	100	C7H2F+
105.0448	51	C6H5N2+
106.0088	33	C6HFN+
106.0213	25	C7H3F+
107.0292	279	C7H4F+
108.0245	23	C6H3FN+
108.037	22	C7H5F+
108.0448	3	C6H6NO+
109.0285	19	C6H5O2+
109.045	5	C7H6F+
110.0402	3	C6H5FN+
112.0181	35	C8H2N+
112.0317	6	C6H5FO+
113.0386	144	C9H5+
114.0339	102	C8H4N+
114.0467	16	C9H6+
115.0418	17	C8H5N+
115.0543	58	C9H7+
116.0496	14	C8H6N+
117.0575	4	C8H7N+
118.0215	20	C8H3F+
118.0288	6	C7H4NO+
119.0292	3	C8H4F+
119.0494	14	C8H7O+
120.0207	7	C7H4O2+
120.0248	6	C7H3FN+
120.037	102	C8H5F+
121.0325	5	C7H4FN+
121.0451	4	C8H6F+
122.0401	22	C7H5FN+
123.0355	19	C6H4FN2+
124.0182	32	C9H2N+
125.0387	88	C10H5+
126.034	35	C9H4N+
126.0464	60	C10H6+
127.0417	32	C9H5N+
127.0545	20	C10H7+
128.0497	34	C9H6N+
128.0623	4	C10H8+
129.0448	58	C8H5N2+
130.0403	6	C7H4N3+
131.0292	58	C9H4F+
132.0245	139	C8H3FN+
133.0326	20	C8H4FN+
133.0449	138	C9H6F+
134.0402	29	C8H5FN+
134.0599	3	C8H8NO+
135.0481	16	C8H6FN+
136.0318	4	C8H5FO+
137.039	5	C11H5+
138.0115	6	C7H3FO2+
138.034	21	C10H4N+
139.0294	18	C9H3N2+
139.0417	14	C10H5N+
139.0544	43	C11H7+
140.0496	112	C10H6N+
141.0449	4	C9H5N2+
141.0575	16	C10H7N+
142.0649	3	C10H8N+
143.0495	33	C10H7O+
144.0372	67	C10H5F+
144.0448	4	C9H6NO+
145.0324	15	C9H4FN+
145.0451	18	C10H6F+
145.0651	3	C10H9O+
146.0402	38	C9H5FN+
146.0476	4	C8H6N2O+
146.0526	35	C10H7F+
146.0607	2	C9H8NO+
147.0357	11	C8H4FN2+
147.0481	6	C9H6FN+
148.0559	5	C9H7FN+
150.0349	25	C8H5FNO+
150.047	17	C12H6+
152.0499	37	C11H6N+
152.0626	4	C12H8+
153.0448	41	C10H5N2+
153.0575	6	C11H7N+
154.04	47	C9H4N3+
154.0655	12	C11H8N+
155.0603	21	C10H7N2+
157.0453	47	C11H6F+
157.0522	10	C10H7NO+
158.0403	54	C10H5FN+
158.0602	3	C10H8NO+
159.0483	30	C10H6FN+
163.0547	21	C10H8FO+
164.0499	44	C9H7FNO+
165.045	5	C11H5N2+
165.0703	3	C13H9+
166.0526	28	C11H6N2+
166.0655	5	C12H8N+
167.0606	5	C11H7N2+
168.0444	6	C11H6NO+
168.0686	3	C11H8N2+
170.0404	14	C11H5FN+
170.053	11	C12H7F+
170.0605	17	C11H8NO+
171.0483	20	C11H6FN+
171.0554	4	C10H7N2O+
172.0559	63	C11H7FN+
173.0509	24	C10H6FN2+
174.0354	2	C10H5FNO+
178.0653	3	C13H8N+
179.0381	4	C9H6FNO2+
179.0609	13	C12H7N2+
180.0558	5	C11H6N3+
182.0405	3	C12H5FN+
184.0561	5	C12H7FN+
185.0637	5	C12H8FN+
188.0506	6	C11H7FNO+
190.0656	3	C11H9FNO+
191.0613	4	C10H8FN2O+
192.0455	3	C10H7FNO2+
192.0682	2	C13H8N2+
197.0516	12	C12H6FN2+
209.0645	3	C14H8FN+
216.0692	2	C12H9FN2O+
