Mass spectrum: Benserazide; LC-ESI-QFT; MS2; CE: 15; R=35000; [M+H]+
Name: Benserazide
Name: 2-amino-3-hydroxy-N`-(2,3,4-trihydroxybenzyl)propionohydrazide
Formula: C10H15N3O5
Exact mass: 257.10117
SMILES: O=C(NNCc1c(O)c(O)c(O)cc1)C(N)CO
InChI: InChI=1S/C10H15N3O5/c11-6(4-14)10(18)13-12-3-5-1-2-7(15)9(17)8(5)16/h1-2,6,12,14-17H,3-4,11H2,(H,13,18)
Instrument: Q Exactive Orbitrap Thermo Scientific
Instrument type: LC-ESI-QFT
Ms type: MS2
Ion mode: POSITIVE
Ionization: ESI
Fragmentation mode: HCD
Collision energy: 15 (nominal)
Resolution: 35000
Column name: XBridge C18 3.5um, 2.1x50mm, Waters
Retention time: 0.8 min
Base peak: 182.9024
Precursor m/z: 258.1084
Precursor type: [M+H]+
m/z	relative intensity	assigned
60.0443	5	C2H6NO+
61.0397	3	CH5N2O+
85.0396	151	C3H5N2O+
103.0502	229	C3H7N2O2+
120.0767	999	C3H10N3O2+
132.0768	11	C4H10N3O2+
139.0389	280	C7H7O3+
241.0821	1	C10H13N2O5+
258.1094	3	C10H16N3O5+
