Mass spectrum: Phenobarbital; LC-ESI-QFT; MS2; CE: 30; R=35000; [M-H]-
Name: Phenobarbital
Name: 5-ethyl-5-phenyl-1,3-diazinane-2,4,6-trione
Formula: C12H12N2O3
Exact mass: 232.08479
SMILES: CCC1(C(=O)NC(=O)NC1=O)C2=CC=CC=C2
InChI: InChI=1S/C12H12N2O3/c1-2-12(8-6-4-3-5-7-8)9(15)13-11(17)14-10(12)16/h3-7H,2H2,1H3,(H2,13,14,15,16,17)
Instrument: Q Exactive Plus Orbitrap Thermo Scientific
Instrument type: LC-ESI-QFT
Ms type: MS2
Ion mode: NEGATIVE
Ionization: ESI
Fragmentation mode: HCD
Collision energy: 30 (nominal)
Resolution: 35000
Column name: XBridge C18 3.5um, 2.1x50mm, Waters
Retention time: 6.0 min
Base peak: 231.0771
Precursor m/z: 231.0775
Precursor type: [M-H]-
m/z	relative intensity	assigned
85.0043	115	C2HN2O2-
144.0818	29	C10H10N-
188.0717	208	C11H10NO2-
231.0775	999	C12H11N2O3-
