Mass spectrum: Dioxacarb; LC-ESI-QFT; MS2; CE: 45%; R=17500; [M+H]+
Name: Dioxacarb
Name: [2-(1,3-dioxolan-2-yl)phenyl] N-methylcarbamate
Formula: C11H13NO4
Exact mass: 223.0845
SMILES: CNC(=O)OC1=CC=CC=C1C2OCCO2
InChI: InChI=1S/C11H13NO4/c1-12-11(13)16-9-5-3-2-4-8(9)10-14-6-7-15-10/h2-5,10H,6-7H2,1H3,(H,12,13)
Instrument: Exploris 240 Orbitrap Thermo Scientific
Instrument type: LC-ESI-QFT
Ms type: MS2
Ion mode: POSITIVE
Ionization: ESI
Fragmentation mode: HCD
Collision energy: 45 % (nominal)
Resolution: 17500
Column name: XBridge C18 3.5um, 2.1x50mm, Waters
Retention time: 3.997 min
Base peak: 167.0701
Precursor m/z: 224.0917
Precursor type: [M+H]+
m/z	relative intensity	assigned
73.0282	3	C3H5O2+
91.054	2	C7H7+
95.049	131	C6H7O+
102.0545	3	C4H8NO2+
118.0647	6	C8H8N+
123.0438	999	C7H7O2+
162.0548	46	C9H8NO2+
167.0701	60	C9H11O3+
