Mass spectrum: Thiodicarb; LC-ESI-QFT; MS2; CE: 75%; R=17500; [M+H]+
Name: Thiodicarb
Name: Larvin
Name: methyl N-[methyl-[methyl-(1-methylsulfanylethylideneamino)oxycarbonylamino]sulfanylcarbamoyl]oxyethanimidothioate
Formula: C10H18N4O4S3
Exact mass: 354.0490
SMILES: CC(=NOC(=O)N(C)SN(C)C(=O)ON=C(C)SC)SC
InChI: InChI=1S/C10H18N4O4S3/c1-7(19-5)11-17-9(15)13(3)21-14(4)10(16)18-12-8(2)20-6/h1-6H3
Instrument: Exploris 240 Orbitrap Thermo Scientific
Instrument type: LC-ESI-QFT
Ms type: MS2
Ion mode: POSITIVE
Ionization: ESI
Fragmentation mode: HCD
Collision energy: 75 % (nominal)
Resolution: 17500
Column name: XBridge C18 3.5um, 2.1x50mm, Waters
Retention time: 6.183 min
Base peak: 355.0563
Precursor m/z: 355.0563
Precursor type: [M+H]+
m/z	relative intensity	assigned
56.0495	105	C3H6N+
58.0287	16	C2H4NO+
59.9902	82	CH2NS+
60.9981	52	CH3NS+
61.0106	53	C2H5S+
62.0059	209	CH4NS+
71.9902	10	C2H2NS+
72.9981	208	C2H3NS+
74.0061	12	C2H4NS+
78.0007	6	CH4NOS+
78.967	163	CH3S2+
80.9828	6	CH5S2+
88.0215	999	C3H6NS+
107.9937	31	C2H6NS2+
