Mass spectrum: N-desmethylpheniramine; LC-ESI-QFT; MS2; CE: 180; R=35000; [M+H]+
Name: N-desmethylpheniramine
Name: N-methyl-3-phenyl-3-pyridin-2-ylpropan-1-amine
Formula: C15H18N2
Exact mass: 226.14700
SMILES: CNCCC(C1=CC=CC=C1)C2=CC=CC=N2
InChI: InChI=1S/C15H18N2/c1-16-12-10-14(13-7-3-2-4-8-13)15-9-5-6-11-17-15/h2-9,11,14,16H,10,12H2,1H3
Instrument: Q Exactive Plus Orbitrap Thermo Scientific
Instrument type: LC-ESI-QFT
Ms type: MS2
Ion mode: POSITIVE
Ionization: ESI
Fragmentation mode: HCD
Collision energy: 180 (nominal)
Resolution: 35000
Column name: XBridge C18 3.5um, 2.1x50mm, Waters
Retention time: 3.6 min
Base peak: 227.154
Precursor m/z: 227.1543
Precursor type: [M+H]+
m/z	relative intensity	assigned
50.0151	38	C4H2+
51.0229	42	C4H3+
52.0182	3	C3H2N+
52.0307	5	C4H4+
53.0022	11	C3HO+
53.0386	12	C4H5+
53.9974	1	C2NO+
54.0338	1	C3H4N+
62.015	13	C5H2+
63.0229	66	C5H3+
64.0308	6	C5H4+
65.0386	305	C5H5+
66.0464	25	C5H6+
67.0416	7	C4H5N+
74.015	8	C6H2+
75.0228	27	C6H3+
77.0385	22	C6H5+
78.0338	103	C5H4N+
79.0416	10	C5H5N+
80.0494	6	C5H6N+
87.0229	5	C7H3+
88.0307	18	C7H4+
89.0385	237	C7H5+
90.0464	113	C7H6+
91.0542	335	C7H7+
92.0494	18	C6H6N+
93.0573	39	C6H7N+
95.0365	1	C5H5NO+
95.0491	31	C6H7O+
96.0444	109	C5H6NO+
101.0386	5	C8H5+
102.0464	15	C8H6+
103.0542	3	C8H7+
104.0494	17	C7H6N+
105.0447	17	C6H5N2+
110.06	6	C6H8NO+
113.0385	71	C9H5+
114.0464	35	C9H6+
115.0542	230	C9H7+
116.0494	38	C8H6N+
117.0573	385	C8H7N+
118.0651	354	C8H8N+
119.0491	6	C8H7O+
126.0464	12	C10H6+
127.0416	5	C9H5N+
127.0541	5	C10H7+
128.0494	31	C9H6N+
128.0621	7	C10H8+
129.0446	18	C8H5N2+
130.0652	3	C9H8N+
132.057	13	C9H8O+
134.0601	4	C8H8NO+
138.0463	10	
139.0542	999	C11H7+
140.0494	401	C10H6N+
140.0617	69	C11H8+
141.0572	14	C10H7N+
141.0696	6	C11H9+
145.0647	1	C10H9O+
146.06	5	C9H8NO+
151.0542	3	C12H7+
152.062	38	C12H8+
154.0653	1	C11H8N+
155.0605	6	C10H7N2+
164.0493	23	C12H6N+
165.0574	28	C12H7N+
165.0699	9	C13H9+
166.0651	620	C12H8N+
167.0729	332	C12H9N+
168.0808	1	C12H10N+
169.0645	5	C12H9O+
178.0651	10	C13H8N+
179.0604	1	C12H7N2+
179.0728	3	C13H9N+
180.0807	5	C13H10N+
184.0753	7	C12H10NO+
191.073	13	C14H9N+
192.0808	11	C14H10N+
193.0886	9	C14H11N+
