Mass spectrum: Imazaquin; LC-ESI-QFT; MS2; CE: 30; R=35000; [M+H]+
Name: Imazaquin
Name: 2-(4-methyl-5-oxo-4-propan-2-yl-1H-imidazol-2-yl)quinoline-3-carboxylic acid
Formula: C17H17N3O3
Exact mass: 311.12699
SMILES: CC(C)C1(C(=O)NC(=N1)C2=NC3=CC=CC=C3C=C2C(=O)O)C
InChI: InChI=1S/C17H17N3O3/c1-9(2)17(3)16(23)19-14(20-17)13-11(15(21)22)8-10-6-4-5-7-12(10)18-13/h4-9H,1-3H3,(H,21,22)(H,19,20,23)
Instrument: Q Exactive Plus Orbitrap Thermo Scientific
Instrument type: LC-ESI-QFT
Ms type: MS2
Ion mode: POSITIVE
Ionization: ESI
Fragmentation mode: HCD
Collision energy: 30 (nominal)
Resolution: 35000
Column name: XBridge C18 3.5um, 2.1x50mm, Waters
Retention time: 7.0 min
Base peak: 312.1336
Precursor m/z: 312.1343
Precursor type: [M+H]+
m/z	relative intensity	assigned
58.0651	1	C3H8N+
69.0697	7	C5H9+
86.0964	40	C5H12N+
97.0648	5	C6H9O+
114.0914	3	C6H12NO+
155.0603	1	C10H7N2+
197.0708	4	C12H9N2O+
198.0662	12	C11H8N3O+
199.0502	21	C11H7N2O2+
216.0766	1	C11H10N3O2+
223.123	15	C15H15N2+
224.0816	1	C13H10N3O+
225.1024	3	C14H13N2O+
226.0977	3	C13H12N3O+
240.15	2	C15H18N3+
249.1024	3	C16H13N2O+
252.0768	41	C14H10N3O2+
266.1289	116	C16H16N3O+
267.1128	198	C16H15N2O2+
268.1443	3	C16H18N3O+
269.0792	5	C14H11N3O3+
270.0873	165	C14H12N3O3+
284.1394	107	C16H18N3O2+
294.1237	62	C17H16N3O2+
312.1341	999	C17H18N3O3+
