Mass spectrum: Haloxyfop; LC-ESI-QFT; MS2; CE: 180; R=35000; [M+H]+
Name: Haloxyfop
Name: 2-[4-[3-chloro-5-(trifluoromethyl)pyridin-2-yl]oxyphenoxy]propanoic acid
Formula: C15H11ClF3NO4
Exact mass: 361.03287
SMILES: CC(C(=O)O)OC1=CC=C(C=C1)OC2=C(C=C(C=N2)C(F)(F)F)Cl
InChI: InChI=1S/C15H11ClF3NO4/c1-8(14(21)22)23-10-2-4-11(5-3-10)24-13-12(16)6-9(7-20-13)15(17,18)19/h2-8H,1H3,(H,21,22)
Instrument: Q Exactive Plus Orbitrap Thermo Scientific
Instrument type: LC-ESI-QFT
Ms type: MS2
Ion mode: POSITIVE
Ionization: ESI
Fragmentation mode: HCD
Collision energy: 180 (nominal)
Resolution: 35000
Column name: XBridge C18 3.5um, 2.1x50mm, Waters
Retention time: 13.6 min
Base peak: 391.2839
Precursor m/z: 362.0401
Precursor type: [M+H]+
m/z	relative intensity	assigned
50.0152	115	C4H2+
51.0042	23	CHF2+
51.023	160	C4H3+
52.0183	24	C3H2N+
52.0308	18	C4H4+
53.0023	125	C3HO+
53.0387	59	C4H5+
53.9975	16	C2NO+
54.0465	5	C4H6+
55.0179	25	C3H3O+
57.0136	82	C3H2F+
61.0073	66	C5H+
62.0152	221	C5H2+
63.023	999	C5H3+
64.0183	24	C4H2N+
64.0308	49	C5H4+
65.0387	340	C5H5+
66.0465	28	C5H6+
66.9746	30	CHClF+
68.0057	4	C4HF+
68.9947	206	CF3+
72.984	71	C3H2Cl+
74.0152	461	C6H2+
75.0041	168	C3HF2+
75.0104	117	C5HN+
75.023	255	C6H3+
76.0182	103	C5H2N+
76.0308	22	C6H4+
77.0022	10	C5HO+
77.0386	31	C6H5+
78.034	5	C5H4N+
78.0465	13	C6H6+
79.0179	53	C5H3O+
79.0543	3	C6H7+
81.0135	50	C5H2F+
81.0336	68	C5H5O+
82.0088	4	C4HFN+
83.0292	10	C5H4F+
84.9652	77	CClF2+
84.984	20	C4H2Cl+
86.0152	54	C7H2+
87.023	83	C7H3+
88.0121	5	C4H2F2+
88.0183	30	C6H2N+
88.0308	10	C7H4+
89.0387	28	C7H5+
90.034	5	C6H4N+
90.9746	39	C3HClF+
91.0543	51	C7H7+
92.0257	10	C6H4O+
92.9948	21	C3F3+
93.0136	2	C6H2F+
94.0088	4	C5HFN+
94.0215	3	C6H3F+
94.0413	3	C6H6O+
95.0493	51	C6H7O+
96.0244	4	C5H3FN+
96.0444	10	C5H6NO+
96.9841	9	C5H2Cl+
98.0152	26	C8H2+
98.9841	16	CH4ClO3+
99.0042	57	C5HF2+
99.023	18	C8H3+
99.9994	26	C4F2N+
100.0182	13	C7H2N+
101.0025	3	C4H4ClN+
101.0198	24	C5H3F2+
101.0386	13	C8H5+
102.0465	57	C8H6+
103.0417	2	C7H5N+
104.0131	4	C6H2NO+
105.0137	31	C7H2F+
105.0449	27	C6H5N2+
106.0216	8	C7H3F+
107.0294	20	C7H4F+
108.0369	3	C7H5F+
108.9653	101	C3ClF2+
109.9793	111	C5HClN+
111.004	3	C6HF2+
111.023	43	C9H3+
112.0121	5	C6H2F2+
112.0184	18	C8H2N+
113.0387	64	C9H5+
114.034	20	C8H4N+
117.0136	3	C8H2F+
119.0105	26	C5H2F3+
119.0493	4	C8H7O+
120.0372	10	C8H5F+
120.0444	2	C7H6NO+
122.0153	24	C10H2+
122.9995	4	C7H4Cl+
123.004	9	C7HF2+
123.0104	15	C9HN+
123.0229	12	C10H3+
123.9994	10	C6F2N+
124.0184	5	C9H2N+
125.0199	23	C7H3F2+
126.015	12	C6H2F2N+
127.0419	2	C9H5N+
127.9898	9	C5H3ClNO+
128.0496	22	C9H6N+
129.0448	31	C8H5N2+
130.04	3	C7H4N3+
131.0293	75	C9H4F+
132.0368	3	C9H5F+
132.9652	14	C5ClF2+
133.0449	2	C9H6F+
135.0043	3	C8HF2+
135.0318	3	C7H5NO2+
136.0123	3	C8H2F2+
138.0112	10	C7H3FO2+
138.034	10	C10H4N+
139.0417	5	C10H5N+
140.0497	16	C10H6N+
144.0257	4	C6H4F2NO+
144.0445	3	C9H6NO+
147.0106	21	C11HN+
148.018	8	C11H2N+
149.0198	14	C9H3F2+
149.0401	4	C6H9ClFN+
151.0356	48	C9H5F2+
156.0183	4	C4H9ClO4+
156.0241	2	C10H3FN+
158.0404	20	C10H5FN+
159.9762	3	C6HClF2N+
162.0277	10	C10H4F2+
164.0314	3	C6H5F3NO+
168.0242	2	C11H3FN+
169.0261	16	C5H10ClO4+
176.0306	10	C10H4F2N+
