Mass spectrum: Thiamethoxam; LC-ESI-ITFT; MS2; CE: 30%; R=15000; [M+H]+
Name: Thiamethoxam
Name: 3-((2-Chloro-5-thiazolyl)methyl)tetrahydro-5-methyl-N-nitro-4H-1,3,5-oxadiazin-4-imine
Formula: C8H10ClN5O3S
Exact mass: 291.0193
SMILES: Clc1ncc(s1)CN2\C(=N\[N+]([O-])=O)N(C)COC2
InChI: InChI=1S/C8H10ClN5O3S/c1-12-4-17-5-13(8(12)11-14(15)16)3-6-2-10-7(9)18-6/h2H,3-5H2,1H3/b11-8+
Instrument: LTQ Orbitrap XL Thermo Scientific
Instrument type: LC-ESI-ITFT
Ms type: MS2
Ion mode: POSITIVE
Ionization: ESI
Fragmentation mode: HCD
Collision energy: 30 % (nominal)
Resolution: 15000
Column name: XBridge C18 3.5um, 2.1x50mm, Waters
Retention time: 4.1 min
Base peak: 292.0274
Precursor m/z: 292.0266
Precursor type: [M+H]+
m/z	relative intensity	assigned
69.0447	10	C3H5N2+
99.0012	4	C3H3N2S+
99.0552	1	C4H7N2O+
100.0631	3	C4H8N2O+
108.0566	1	C7H8O+
122.0712	41	C6H8N3+
125.0166	2	C5H5N2S+
131.9669	416	C4H3ClNS+
138.012	6	C5H4N3S+
139.0324	2	C6H7N2S+
147.0666	1	C7H7N4+
151.0198	8	C6H5N3S+
152.0276	6	C6H6N3S+
155.0512	1	C6H9N3S+
160.9934	6	C5H6ClN2S+
172.9809	2	C8HN2OS+
174.9727	22	C5H4ClN2OS+
179.0386	3	C7H7N4S+
180.0464	62	C7H8N4S+
181.0542	165	C7H9N4S+
185.0618	3	C7H11N3OS+
186.9964	5	C6H6ClN3S+
210.057	146	C8H10N4OS+
211.0646	999	C8H11N4OS+
215.0152	5	C7H8ClN4S+
216.0236	3	C7H9ClN4S+
245.0259	9	C8H10ClN4OS+
246.0337	16	C8H11ClN4OS+
248.0254	7	C8H11ClN3O2S+
292.0271	4	C8H11ClN5O3S+
