Mass spectrum: Mianserin; LC-ESI-QFT; MS2; CE: 60; R=35000; [M+H]+
Name: Mianserin
Name: 2-Methyl-1,2,3,4,10,14b-hexahydrodibenzo[c,f]pyrazino[1,2-a]azepine
Formula: C18H20N2
Exact mass: 264.16265
SMILES: CN1CCN2C(C1)C3=CC=CC=C3CC4=CC=CC=C42
InChI: InChI=1S/C18H20N2/c1-19-10-11-20-17-9-5-3-7-15(17)12-14-6-2-4-8-16(14)18(20)13-19/h2-9,18H,10-13H2,1H3
Instrument: Q Exactive Plus Orbitrap Thermo Scientific
Instrument type: LC-ESI-QFT
Ms type: MS2
Ion mode: POSITIVE
Ionization: ESI
Fragmentation mode: HCD
Collision energy: 60 (nominal)
Resolution: 35000
Column name: XBridge C18 3.5um, 2.1x50mm, Waters
Retention time: 6.5 min
Base peak: 265.1696
Precursor m/z: 265.1699
Precursor type: [M+H]+
m/z	relative intensity	assigned
56.0495	37	C3H6N+
57.0572	2	C3H7N+
58.0651	999	C3H8N+
65.0386	3	C5H5+
70.0651	197	C4H8N+
72.0807	19	C4H10N+
77.0384	2	C6H5+
79.0541	4	C6H7+
82.0651	5	C5H8N+
85.076	47	C4H9N2+
89.0383	1	C7H5+
91.0542	165	C7H7+
92.0494	8	C6H6N+
93.0573	1	C6H7N+
93.0699	3	C7H9+
94.0651	2	C6H8N+
95.0492	1	C6H7O+
97.076	1	C5H9N2+
98.0837	4	C5H10N2+
103.0542	14	C8H7+
104.0494	2	C7H6N+
105.0699	49	C8H9+
106.0651	60	C7H8N+
107.0729	3	C7H9N+
109.0648	2	C7H9O+
115.0542	51	C9H7+
116.0495	6	C8H6N+
116.0621	5	C9H8+
117.0572	29	C8H7N+
117.0698	78	C9H9+
118.0651	219	C8H8N+
119.0604	3	C7H7N2+
119.073	8	C8H9N+
119.0856	7	C9H11+
120.0807	124	C8H10N+
128.062	3	C10H8+
129.0698	29	C10H9+
130.0651	54	C9H8N+
131.0729	23	C9H9N+
131.0854	9	C10H11+
132.0807	53	C9H10N+
133.0887	3	C9H11N+
134.0964	5	C9H12N+
141.0698	1	C11H9+
142.0656	1	C10H8N+
143.0729	4	C10H9N+
144.0808	68	C10H10N+
145.0761	1	C9H9N2+
145.0886	14	C10H11N+
146.0964	105	C10H12N+
147.1042	8	C10H13N+
148.1121	9	C10H14N+
156.0808	3	C11H10N+
157.0886	15	C11H11N+
158.0964	83	C11H12N+
159.0916	4	C10H11N2+
159.1042	10	C11H13N+
160.1121	15	C11H14N+
161.1073	86	C10H13N2+
165.0694	1	C13H9+
166.0774	5	C13H10+
167.0857	3	C13H11+
170.0964	3	C12H12N+
172.112	21	C12H14N+
173.1072	8	C11H13N2+
174.1151	20	C11H14N2+
178.0776	14	C14H10+
179.0855	34	C14H11+
180.0811	2	C13H10N+
181.1012	13	C14H13+
191.0856	6	C15H11+
192.0807	16	C14H10N+
192.093	2	C15H12+
193.0886	115	C14H11N+
194.0964	39	C14H12N+
202.0776	1	C16H10+
203.0856	2	C16H11+
204.081	13	C15H10N+
205.0887	12	C15H11N+
206.0964	33	C15H12N+
207.1042	42	C15H13N+
208.1121	576	C15H14N+
217.0887	3	C16H11N+
218.0963	15	C16H12N+
219.1042	17	C16H13N+
220.1121	62	C16H14N+
221.1196	2	C16H15N+
222.1277	101	C16H16N+
232.112	13	C17H14N+
233.1071	2	C16H13N2+
233.1195	1	C17H15N+
234.1276	28	C17H16N+
235.1226	8	C16H15N2+
236.1431	2	C17H18N+
237.1385	1	C16H17N2+
247.1234	5	C17H15N2+
248.1308	45	C17H16N2+
249.1389	3	C17H17N2+
250.1464	49	C17H18N2+
261.1388	3	C18H17N2+
262.1465	1	C18H18N2+
263.1542	120	C18H19N2+
264.162	1	C18H20N2+
265.1698	62	C18H21N2+
