Mass spectrum: Codeine; LC-ESI-ITFT; MS2; CE: 75%; R=15000; [M+H]+
Name: Codeine
Name: (5,6)-3-Methoxy-17-methyl-7,8-didehydro-4,5-epoxymorphinan-6-ol
Name: Methylmorphine
Formula: C18H21NO3
Exact mass: 299.1521
SMILES: CN1CC[C@]23[C@@H]4[C@H]1CC5=C2C(=C(C=C5)OC)O[C@H]3[C@H](C=C4)O
InChI: InChI=1S/C18H21NO3/c1-19-8-7-18-11-4-5-13(20)17(18)22-16-14(21-2)6-3-10(15(16)18)9-12(11)19/h3-6,11-13,17,20H,7-9H2,1-2H3/t11-,12+,13-,17-,18-/m0/s1
Instrument: LTQ Orbitrap XL Thermo Scientific
Instrument type: LC-ESI-ITFT
Ms type: MS2
Ion mode: POSITIVE
Ionization: ESI
Fragmentation mode: HCD
Collision energy: 75 % (nominal)
Resolution: 15000
Column name: XBridge C18 3.5um, 2.1x50mm, Waters
Retention time: 2.8 min
Base peak: 300.1595
Precursor m/z: 300.1594
Precursor type: [M+H]+
m/z	relative intensity	assigned
55.0177	11	C3H3O+
58.0651	127	C3H8N+
67.0542	17	C5H7+
69.0334	26	C4H5O+
71.0493	8	C4H7O+
79.0541	17	C6H7+
81.0335	12	C5H5O+
83.0491	20	C5H7O+
91.0541	53	C7H7+
93.0698	27	C7H9+
94.0653	7	C6H8N+
95.0492	12	C6H7O+
103.0542	32	C8H7+
105.0699	15	C8H9+
107.0489	15	C7H7O+
115.0541	65	C9H7+
117.0698	15	C9H9+
121.0647	67	C8H9O+
128.0619	66	C10H8+
129.07	71	C10H9+
131.0491	25	C9H7O+
131.0853	17	C10H11+
132.0809	8	C9H10N+
137.0597	169	C8H9O2+
141.0699	199	C11H9+
142.0776	22	C11H10+
143.049	37	C10H7O+
143.0857	22	C11H11+
144.0569	208	C10H8O+
144.081	11	C10H10N+
145.0647	64	C10H9O+
146.0599	11	C9H8NO+
146.0723	14	C10H10O+
147.0807	23	C10H11O+
149.0596	17	C9H9O2+
151.0755	10	C9H11O2+
152.0621	75	C12H8+
153.0698	615	C12H9+
154.0776	106	C12H10+
155.0491	47	C11H7O+
155.0605	29	C10H7N2+
155.0854	545	C12H11+
156.0569	150	C11H8O+
157.0646	72	C11H9O+
158.0725	158	C11H10O+
158.0961	10	C11H12N+
159.0438	50	C10H7O2+
159.0804	244	C11H11O+
160.0521	13	C10H8O2+
160.0755	17	C10H10NO+
161.0596	375	C10H9O2+
162.0908	11	C10H12NO+
163.0754	8	C10H11O2+
164.0703	11	C9H10NO2+
165.0698	999	C13H9+
166.0776	133	C13H10+
167.0854	90	C13H11+
168.0568	211	C12H8O+
169.0646	96	C12H9O+
169.0758	20	C11H9N2+
169.1012	13	C13H13+
170.0725	82	C12H10O+
171.0435	42	C11H7O2+
171.0804	640	C12H11O+
172.0518	96	C11H8O2+
172.0882	126	C12H12O+
173.0598	28	C11H9O2+
173.0962	43	C12H13O+
174.0675	68	C11H10O2+
175.0753	100	C11H11O2+
177.0698	37	C14H9+
178.0776	71	C14H10+
179.0854	84	C14H11+
180.0569	32	C13H8O+
180.0933	14	C14H12+
181.0647	775	C13H9O+
181.1015	63	C14H13+
182.0726	241	C13H10O+
183.0439	70	C12H7O2+
183.0804	489	C13H11O+
184.0519	78	C12H8O2+
184.0883	51	C13H12O+
185.0596	234	C12H9O2+
185.096	84	C13H13O+
186.0675	128	C12H10O2+
187.0752	210	C12H11O2+
187.1117	81	C13H15O+
189.0699	23	C15H9+
189.0915	18	C12H13O2+
190.0774	57	C15H10+
191.0855	162	C15H11+
192.0566	7	C14H8O+
192.1019	11	C11H14NO2+
193.0646	216	C14H9O+
193.0761	51	C13H9N2+
193.1014	24	C15H13+
194.0725	306	C14H10O+
195.0803	131	C14H11O+
196.0879	21	C14H12O+
197.0596	152	C13H9O2+
197.096	110	C14H13O+
198.0674	278	C13H10O2+
199.0753	782	C13H11O2+
200.0831	147	C13H12O2+
201.0548	22	C12H9O3+
201.0909	53	C13H13O2+
202.0779	25	C16H10+
203.0853	14	C16H11+
205.0646	30	C15H9O+
206.0734	9	C15H10O+
207.0802	53	C15H11O+
208.052	25	C14H8O2+
208.088	47	C15H12O+
209.0596	170	C14H9O2+
209.096	65	C15H13O+
210.0674	204	C14H10O2+
210.104	15	C15H14O+
211.0752	115	C14H11O2+
212.083	119	C14H12O2+
213.054	16	C13H9O3+
213.0908	220	C14H13O2+
214.0987	12	C14H14O2+
215.1065	346	C14H15O2+
218.0719	17	C16H10O+
219.0804	64	C16H11O+
220.0882	54	C16H12O+
220.1114	35	C16H14N+
221.0597	56	C15H9O2+
221.0962	35	C16H13O+
223.0752	197	C15H11O2+
223.1115	13	C16H15O+
224.0827	27	C15H12O2+
224.1061	7	C15H14NO+
225.0542	22	C14H9O3+
225.0909	381	C15H13O2+
226.0623	33	C14H10O3+
226.0985	20	C15H14O2+
227.0703	23	C14H11O3+
227.1064	8	C15H15O2+
228.0779	26	C14H12O3+
228.1026	8	C14H14NO2+
235.0752	24	C16H11O2+
236.0829	58	C16H12O2+
237.091	24	C16H13O2+
238.0992	8	C16H14O2+
239.0697	9	C15H11O3+
239.1071	12	C16H15O2+
241.0858	294	C15H13O3+
241.1217	18	C16H17O2+
243.1014	93	C15H15O3+
248.1072	20	C17H14NO+
250.1227	33	C17H16NO+
251.1065	19	C17H15O2+
252.1019	23	C16H14NO2+
253.1215	12	C17H17O2+
266.1173	96	C17H16NO2+
267.1252	41	C17H17NO2+
268.1341	11	C17H18NO2+
282.1487	20	C18H20NO2+
285.1353	10	C17H19NO3+
300.1585	170	C18H22NO3+
