Mass spectrum: Bensulfuron-Methyl; LC-ESI-QFT; MS2; CE: 150%; R=17500; [M-H]-
Name: Bensulfuron-Methyl
Name: methyl 2-[(4,6-dimethoxypyrimidin-2-yl)carbamoylsulfamoylmethyl]benzoate
Formula: C16H18N4O7S
Exact mass: 410.0896
SMILES: COC1=CC(=NC(=N1)NC(=O)NS(=O)(=O)CC2=CC=CC=C2C(=O)OC)OC
InChI: InChI=1S/C16H18N4O7S/c1-25-12-8-13(26-2)18-15(17-12)19-16(22)20-28(23,24)9-10-6-4-5-7-11(10)14(21)27-3/h4-8H,9H2,1-3H3,(H2,17,18,19,20,22)
Instrument: Exploris 240 Orbitrap Thermo Scientific
Instrument type: LC-ESI-QFT
Ms type: MS2
Ion mode: NEGATIVE
Ionization: ESI
Fragmentation mode: HCD
Collision energy: 150 % (nominal)
Resolution: 17500
Column name: XBridge C18 3.5um, 2.1x50mm, Waters
Retention time: 7.818 min
Base peak: 409.0823
Precursor m/z: 409.0823
Precursor type: [M-H]-
m/z	relative intensity	assigned
63.9624	38	O2S-
64.0068	39	C3N2-
65.0145	157	C3HN2-
65.9985	999	C3NO-
90.0096	42	C4N3-
107.0127	50	C4HN3O-
