Mass spectrum: Zopiclone; LC-ESI-QFT; MS2; CE: 15; R=35000; [M+H]+
Name: Zopiclone
Name: [6-(5-chloropyridin-2-yl)-5-oxo-7H-pyrrolo[3,4-b]pyrazin-7-yl] 4-methylpiperazine-1-carboxylate
Formula: C17H17ClN6O3
Exact mass: 388.10507
SMILES: CN1CCN(CC1)C(=O)OC2C3=NC=CN=C3C(=O)N2C4=NC=C(C=C4)Cl
InChI: InChI=1S/C17H17ClN6O3/c1-22-6-8-23(9-7-22)17(26)27-16-14-13(19-4-5-20-14)15(25)24(16)12-3-2-11(18)10-21-12/h2-5,10,16H,6-9H2,1H3
Instrument: Q Exactive Plus Orbitrap Thermo Scientific
Instrument type: LC-ESI-QFT
Ms type: MS2
Ion mode: POSITIVE
Ionization: ESI
Fragmentation mode: HCD
Collision energy: 15 (nominal)
Resolution: 35000
Column name: XBridge C18 3.5um, 2.1x50mm, Waters
Retention time: 4.6 min
Base peak: 389.1117
Precursor m/z: 389.1123
Precursor type: [M+H]+
m/z	relative intensity	assigned
98.0835	1	C5H10N2+
99.0917	48	C5H11N2+
111.9949	7	C5H3ClN+
139.0059	5	C6H4ClN2+
143.0816	37	C6H11N2O2+
217.1085	10	C11H13N4O+
245.0226	999	C11H6ClN4O+
247.0381	24	C11H8ClN4O+
263.0332	100	C11H8ClN4O2+
277.0487	11	C12H10ClN4O2+
345.1227	261	C16H18ClN6O+
