Mass spectrum: Diaveridine; LC-ESI-QFT; MS2; CE: 90; R=35000; [M+H]+
Name: Diaveridine
Name: 5-[(3,4-dimethoxyphenyl)methyl]pyrimidine-2,4-diamine
Formula: C13H16N4O2
Exact mass: 260.12733
SMILES: COC1=C(C=C(C=C1)CC2=CN=C(N=C2N)N)OC
InChI: InChI=1S/C13H16N4O2/c1-18-10-4-3-8(6-11(10)19-2)5-9-7-16-13(15)17-12(9)14/h3-4,6-7H,5H2,1-2H3,(H4,14,15,16,17)
Instrument: Q Exactive Plus Orbitrap Thermo Scientific
Instrument type: LC-ESI-QFT
Ms type: MS2
Ion mode: POSITIVE
Ionization: ESI
Fragmentation mode: HCD
Collision energy: 90 (nominal)
Resolution: 35000
Column name: XBridge C18 3.5um, 2.1x50mm, Waters
Retention time: 3.4 min
Base peak: 261.1339
Precursor m/z: 261.1346
Precursor type: [M+H]+
m/z	relative intensity	assigned
52.0181	3	C3H2N+
54.0338	63	C3H4N+
60.0556	10	CH6N3+
65.0386	1	C5H5+
68.0369	25	C3H4N2+
69.0447	2	C3H5N2+
70.04	2	C2H4N3+
72.0318	7	C2H4N2O+
77.0384	2	C6H5+
79.029	8	C4H3N2+
79.0542	12	C6H7+
80.062	2	C6H8+
81.0447	752	C4H5N2+
83.0478	11	C3H5N3+
86.0588	3	C2H6N4+
90.0464	2	C7H6+
91.0543	7	C7H7+
94.0399	1	C4H4N3+
95.0492	13	C6H7O+
96.0556	6	C4H6N3+
97.0635	1	C4H7N3+
102.0464	1	C8H6+
103.0542	17	C8H7+
105.0334	3	C7H5O+
105.0448	4	C6H5N2+
106.04	50	C5H4N3+
107.0491	195	C7H7O+
108.0569	5	C7H8O+
109.0284	1	C6H5O2+
109.0509	12	C4H5N4+
110.0587	100	C4H6N4+
111.0665	44	C4H7N4+
115.0543	3	C9H7+
116.0494	5	C8H6N+
118.0651	3	C8H8N+
120.081	1	C8H10N+
123.0665	999	C5H7N4+
124.0516	3	C7H8O2+
124.0744	17	C5H8N4+
128.0494	14	C9H6N+
129.0572	2	C9H7N+
130.0651	33	C9H8N+
131.0492	49	C9H7O+
131.0601	4	C8H7N2+
132.0443	2	C8H6NO+
132.0569	2	C9H8O+
133.0524	1	C8H7NO+
133.0648	3	C9H9O+
133.0761	4	C8H9N2+
134.0595	1	C8H8NO+
135.044	68	C8H7O2+
136.0518	2	C8H8O2+
140.0494	10	C10H6N+
141.0572	2	C10H7N+
142.0651	2	C10H8N+
143.0604	3	C9H7N2+
144.0443	5	C9H6NO+
144.0684	1	C9H8N2+
145.076	17	C9H9N2+
146.06	10	C9H8NO+
146.0838	1	C9H10N2+
147.0666	2	C7H7N4+
148.0393	3	C8H6NO2+
148.075	6	C7H8N4+
150.0548	4	C8H8NO2+
151.0388	2	C8H7O3+
151.0754	19	C9H11O2+
155.0603	14	C10H7N2+
156.0443	20	C10H6NO+
157.0522	2	C10H7NO+
157.0761	4	C10H9N2+
158.0601	63	C10H8NO+
158.0711	5	C9H8N3+
159.0442	6	C10H7O2+
159.0676	5	C10H9NO+
160.0745	4	C8H8N4+
160.0869	1	C9H10N3+
161.0822	16	C8H9N4+
162.0898	2	C8H10N4+
168.0556	4	C10H6N3+
170.0599	2	C11H8NO+
170.0712	16	C10H8N3+
171.0555	5	C10H7N2O+
171.0678	6	C11H9NO+
171.079	5	C10H9N3+
172.075	9	C9H8N4+
172.0869	29	C10H10N3+
173.071	27	C10H9N2O+
173.0822	18	C9H9N4+
174.0548	3	C10H8NO2+
174.0786	2	C10H10N2O+
174.09	1	C9H10N4+
175.0867	7	C10H11N2O+
175.0979	11	C9H11N4+
176.0699	8	C8H8N4O+
182.0714	19	C11H8N3+
183.0554	9	C11H7N2O+
183.079	3	C11H9N3+
184.0394	6	C11H6NO2+
184.0744	1	C10H8N4+
185.0822	12	C10H9N4+
186.0551	6	C11H8NO2+
186.066	5	C10H8N3O+
186.0903	3	C10H10N4+
187.0978	128	C10H11N4+
188.0817	2	C10H10N3O+
188.1057	7	C10H12N4+
197.082	3	C11H9N4+
198.0663	11	C11H8N3O+
198.09	2	C11H10N4+
199.0502	2	C11H7N2O2+
199.0742	9	C11H9N3O+
199.0978	14	C11H11N4+
200.0818	40	C11H10N3O+
200.1057	6	C11H12N4+
201.0658	16	C11H9N2O2+
201.1136	4	C11H13N4+
203.0819	3	C11H11N2O2+
203.0926	41	C10H11N4O+
213.0772	3	C11H9N4O+
214.0849	8	C11H10N4O+
215.0929	79	C11H11N4O+
216.1005	7	C11H12N4O+
217.1085	55	C11H13N4O+
226.0615	6	C12H8N3O2+
227.0924	2	C12H11N4O+
228.0769	6	C12H10N3O2+
229.1087	6	C12H13N4O+
230.0798	2	C11H10N4O2+
231.0877	2	C11H11N4O2+
232.0956	2	C11H12N4O2+
243.0878	105	C12H11N4O2+
245.1034	427	C12H13N4O2+
