Mass spectrum: Oxytetracycline; LC-ESI-QFT; MS2; CE: 45; R=35000; [M-H]-
Name: Oxytetracycline
Name: (4S,4aR,5S,5aR,6S,12aS)-4-(Dimethylamino)-3,5,6,10,12,12a-hexahydroxy-6-methyl-1,11-dioxo-1,4,4a,5,5a,6,11,12a-octahydro-2-tetracenecarboxamide
Name: 2-carbamoyl-4-(dimethylazaniumyl)-5,6,10,11,12a-pentahydroxy-6-methyl-3,12-dioxo-4,4a,5,5a-tetrahydrotetracen-1-olate
Formula: C22H24N2O9
Exact mass: 460.14818
SMILES: CC1(C2C(C3C(C(=O)C(=C(C3(C(=O)C2=C(C4=C1C=CC=C4O)O)O)O)C(=O)N)N(C)C)O)O
InChI: InChI=1S/C22H24N2O9/c1-21(32)7-5-4-6-8(25)9(7)15(26)10-12(21)17(28)13-14(24(2)3)16(27)11(20(23)31)19(30)22(13,33)18(10)29/h4-6,12-14,17,25-26,28,30,32-33H,1-3H3,(H2,23,31)
Instrument: Q Exactive Plus Orbitrap Thermo Scientific
Instrument type: LC-ESI-QFT
Ms type: MS2
Ion mode: NEGATIVE
Ionization: ESI
Fragmentation mode: HCD
Collision energy: 45 (nominal)
Resolution: 35000
Column name: XBridge C18 3.5um, 2.1x50mm, Waters
Retention time: 4.3 min
Base peak: 459.1405
Precursor m/z: 459.1409
Precursor type: [M-H]-
m/z	relative intensity	assigned
55.0188	6	C3H3O-
57.0345	3	C3H5O-
59.0138	4	C2H3O2-
63.0241	4	C5H3-
65.0397	3	C5H5-
65.9984	22	C3NO-
67.0188	4	C4H3O-
67.0516	4	H7N2O2-
68.0141	3	C3H2NO-
68.9982	40	C3HO2-
69.0346	26	C4H5O-
71.0139	22	C3H3O2-
72.9932	20	C2HO3-
75.0088	6	C2H3O3-
79.0189	14	C5H3O-
80.0268	6	C5H4O-
81.0345	35	C5H5O-
82.0298	3	C4H4NO-
83.0138	61	C4H3O2-
84.009	92	C3H2NO2-
85.0295	15	C4H5O2-
86.0248	7	C3H4NO2-
87.0087	230	C3H3O3-
91.0188	22	C6H3O-
93.0346	24	C6H5O-
95.0138	88	C5H3O2-
96.0092	19	C4H2NO2-
96.993	75	C4HO3-
97.0294	70	C5H5O2-
98.0247	3	C4H4NO2-
99.0087	62	C4H3O3-
100.0768	53	C5H10NO-
106.0297	5	C6H4NO-
107.0138	29	C6H3O2-
107.0504	3	C7H7O-
108.0217	51	C6H4O2-
109.0295	95	C6H5O2-
111.0088	545	C5H3O3-
112.0769	4	C6H10NO-
115.0036	3	C4H3O4-
117.0346	3	C8H5O-
119.0139	30	C7H3O2-
119.0502	13	C8H7O-
121.0296	36	C7H5O2-
122.0248	2	C6H4NO2-
122.0372	6	C7H6O2-
122.0611	7	C7H8NO-
123.0088	109	C6H3O3-
123.0451	7	C7H7O2-
124.0165	117	C6H4O3-
124.0403	12	C6H6NO2-
124.988	112	C5HO4-
125.0243	196	C6H5O3-
125.072	136	C6H9N2O-
126.0196	13	C5H4NO3-
126.0322	18	C6H6O3-
126.056	102	C6H8NO2-
127.0403	4	C6H7O3-
129.0671	3	C5H9N2O2-
133.0294	13	C8H5O2-
134.0248	85	C7H4NO2-
134.0371	13	C8H6O2-
135.0087	106	C7H3O3-
135.0451	559	C8H7O2-
136.0164	17	C7H4O3-
136.0403	4	C7H6NO2-
136.0766	22	C8H10NO-
136.988	23	C6HO4-
137.0244	86	C7H5O3-
137.0482	22	C7H7NO2-
137.0605	6	C8H9O2-
138.0194	6	C6H4NO3-
138.0321	49	C7H6O3-
138.0561	14	C7H8NO2-
139.0035	17	C6H3O4-
139.0149	30	C5H3N2O3-
140.0351	12	C6H6NO3-
140.0718	83	C7H10NO2-
141.0067	3	C5H3NO4-
141.0194	35	C6H5O4-
141.0668	4	C6H9N2O2-
142.0145	393	C5H4NO4-
142.9985	255	C5H3O5-
144.0669	4	C6H10NO3-
145.0293	30	C9H5O2-
146.0373	12	C9H6O2-
147.0451	48	C9H7O2-
148.04	3	C8H6NO2-
149.0118	4	C7H3NO3-
149.0244	31	C8H5O3-
149.0482	20	C8H7NO2-
149.9956	6	C7H2O4-
150.0196	78	C7H4NO3-
151.0038	93	C7H3O4-
151.0275	130	C7H5NO3-
152.0117	15	C7H4O4-
152.0353	24	C7H6NO3-
152.0717	64	C8H10NO2-
153.0194	54	C7H5O4-
154.0148	3	C6H4NO4-
154.0383	29	C6H6N2O3-
154.0869	4	C8H12NO2-
157.0657	27	C11H9O-
158.0368	6	C10H6O2-
159.0451	121	C10H7O2-
161.0244	347	C9H5O3-
162.0199	56	C8H4NO3-
162.0322	62	C9H6O3-
163.0038	98	C8H3O4-
163.0276	192	C8H5NO3-
163.0401	374	C9H7O3-
164.0115	305	C8H4O4-
164.0354	61	C8H6NO3-
164.0714	61	C9H10NO2-
165.0192	13	C8H5O4-
165.0431	23	C8H7NO3-
165.0557	5	C9H9O3-
166.0145	18	C7H4NO4-
166.0871	14	C9H12NO2-
167.0223	55	C7H5NO4-
168.0302	85	C7H6NO4-
168.0665	85	C8H10NO3-
169.0142	6	C7H5O5-
169.0255	46	C6H5N2O4-
169.0616	70	C7H9N2O3-
170.0822	3	C8H12NO3-
171.045	28	C11H7O2-
172.053	66	C11H8O2-
173.0245	53	C10H5O3-
173.0607	527	C11H9O2-
174.0321	172	C10H6O3-
175.0397	28	C10H7O3-
175.0761	3	C11H11O2-
177.0306	31	C8H5N2O3-
177.0556	17	C10H9O3-
178.0146	88	C8H4NO4-
178.0514	21	C9H8NO3-
178.9986	30	C8H3O5-
179.0225	13	C8H5NO4-
180.0302	107	C8H6NO4-
180.0662	31	C9H10NO3-
181.038	363	C8H7NO4-
182.0821	46	C9H12NO3-
183.045	11	C12H7O2-
183.0817	44	C13H11O-
184.0532	4	C12H8O2-
185.0241	4	C11H5O3-
185.0607	79	C12H9O2-
186.0319	17	C11H6O3-
186.0687	28	C12H10O2-
187.04	263	C11H7O3-
187.0763	16	C12H11O2-
188.0479	153	C11H8O3-
189.0194	42	C10H5O4-
189.0557	229	C11H9O3-
190.0273	13	C10H6O4-
190.0511	32	C10H8NO3-
190.0872	7	C11H12NO2-
191.035	57	C10H7O4-
191.0715	29	C11H11O3-
192.0309	3	C9H6NO4-
192.0538	36	C9H8N2O3-
192.0668	4	C10H10NO3-
192.1027	5	C11H14NO2-
193.0622	18	C9H9N2O3-
194.0219	6	C9H6O5-
194.0459	4	C9H8NO4-
195.0409	53	C8H7N2O4-
196.0249	52	C8H6NO5-
196.0528	41	C13H8O2-
196.0609	6	C9H10NO4-
197.0609	62	C13H9O2-
199.0395	28	C12H7O3-
199.0764	175	C13H11O2-
200.0476	28	C12H8O3-
201.0557	660	C12H9O3-
202.0269	7	C11H6O4-
202.0636	14	C12H10O3-
203.0349	63	C11H7O4-
203.0714	242	C12H11O3-
207.0775	62	C10H11N2O3-
208.0532	5	C14H8O2-
208.0613	26	C10H10NO4-
209.0606	132	C14H9O2-
210.0691	68	C14H10O2-
211.0398	41	C13H7O3-
211.0765	190	C14H11O2-
212.0479	49	C13H8O3-
212.0845	4	C14H12O2-
213.0191	3	C12H5O4-
213.0558	53	C13H9O3-
213.092	17	C14H13O2-
214.0267	30	C12H6O4-
214.0633	3	C13H10O3-
214.9989	3	C11H3O5-
215.035	57	C12H7O4-
215.0712	12	C13H11O3-
216.0306	5	C11H6NO4-
216.0426	21	C12H8O4-
217.0144	29	C11H5O5-
217.0505	50	C12H9O4-
217.0869	5	C13H13O3-
218.022	45	C11H6O5-
218.0819	5	C12H12NO3-
219.0658	22	C12H11O4-
219.0813	5	C16H11O-
220.0535	3	C15H8O2-
221.0602	5	C15H9O2-
222.0685	17	C15H10O2-
223.0765	126	C15H11O2-
224.0478	62	C14H8O3-
225.0557	159	C14H9O3-
225.0921	48	C15H13O2-
226.0633	26	C14H10O3-
226.087	4	C14H12NO2-
227.0352	70	C13H7O4-
227.0713	282	C14H11O3-
228.0428	30	C13H8O4-
229.0505	115	C13H9O4-
229.087	30	C14H13O3-
230.0218	17	C12H6O5-
230.0583	17	C13H10O4-
231.0298	24	C12H7O5-
231.0663	4	C13H11O4-
233.0457	19	C12H9O5-
233.0608	13	C16H9O2-
235.0398	69	C15H7O3-
235.0762	45	C16H11O2-
236.0837	6	C16H12O2-
237.0555	59	C15H9O3-
237.092	34	C16H13O2-
238.0636	52	C15H10O3-
238.0876	14	C15H12NO2-
239.0354	16	C14H7O4-
239.0714	238	C15H11O3-
240.0433	30	C14H8O4-
241.0512	27	C14H9O4-
241.0871	61	C15H13O3-
242.0583	13	C14H10O4-
243.0661	225	C14H11O4-
245.0454	239	C13H9O5-
245.0817	20	C14H13O4-
246.0682	4	C17H10O2-
247.0764	47	C17H11O2-
248.0481	26	C16H8O3-
249.0557	109	C16H9O3-
250.0629	24	C16H10O3-
251.0349	13	C15H7O4-
251.0711	65	C16H11O3-
252.0428	130	C15H8O4-
252.1027	13	C16H14NO2-
253.0506	660	C15H9O4-
253.0866	74	C16H13O3-
254.0584	114	C15H10O4-
254.1181	7	C16H16NO2-
255.03	21	C14H7O5-
255.0662	298	C15H11O4-
256.0376	92	C14H8O5-
256.134	32	C16H18NO2-
257.0456	5	C14H9O5-
257.0821	43	C15H13O4-
258.0528	10	C14H10O5-
259.0613	18	C14H11O5-
261.0554	18	C17H9O3-
262.0636	6	C17H10O3-
263.0712	127	C17H11O3-
264.0434	14	C16H8O4-
264.066	10	C16H10NO3-
264.0793	29	C17H12O3-
265.0503	33	C16H9O4-
265.0872	65	C17H13O3-
266.0582	64	C16H10O4-
266.0949	13	C17H14O3-
266.1188	12	C17H16NO2-
267.0662	965	C16H11O4-
268.0376	11	C15H8O5-
268.0614	4	C15H10NO4-
268.0743	18	C16H12O4-
268.0977	5	C16H14NO3-
268.1343	31	C17H18NO2-
269.0459	4	C15H9O5-
269.0821	57	C16H13O4-
270.0535	70	C15H10O5-
271.0611	434	C15H11O5-
271.0974	75	C16H15O4-
272.0689	5	C15H12O5-
273.0403	31	C14H9O6-
273.0557	21	C18H9O3-
273.0767	56	C15H13O5-
274.0484	85	C14H10O6-
274.0632	5	C18H10O3-
275.0721	4	C18H11O3-
276.0426	19	C17H8O4-
277.0505	72	C17H9O4-
278.0581	5	C17H10O4-
278.0823	14	C17H12NO3-
279.0298	5	C16H7O5-
279.0661	81	C17H11O4-
279.0898	14	C17H13NO3-
280.0742	14	C17H12O4-
280.0979	33	C17H14NO3-
281.0456	5	C16H9O5-
281.082	53	C17H13O4-
282.0534	4	C16H10O5-
282.077	4	C16H12NO4-
282.1135	23	C17H16NO3-
283.061	99	C16H11O5-
284.1291	45	C17H18NO3-
285.0765	59	C16H13O5-
289.0509	36	C18H9O4-
289.0717	452	C15H13O6-
290.0579	23	C18H10O4-
290.1187	5	C19H16NO2-
291.0662	158	C18H11O4-
292.0376	28	C17H8O5-
292.0743	45	C18H12O4-
292.1341	6	C19H18NO2-
293.0456	59	C17H9O5-
293.0817	12	C18H13O4-
294.0535	42	C17H10O5-
294.1133	37	C18H16NO3-
295.0611	60	C17H11O5-
296.0928	45	C17H14NO4-
297.0767	80	C17H13O5-
298.1087	29	C17H16NO4-
300.1233	26	C17H18NO4-
301.0711	29	C16H13O6-
303.0294	15	C18H7O5-
305.045	20	C18H9O5-
306.0772	18	C18H12NO4-
306.1131	6	C19H16NO3-
307.061	111	C18H11O5-
308.0693	15	C18H12O5-
308.1293	22	C19H18NO3-
309.0408	11	C17H9O6-
309.0772	67	C18H13O5-
310.0852	40	C18H14O5-
310.1448	20	C19H20NO3-
311.056	178	C17H11O6-
312.1241	473	C18H18NO4-
314.1033	5	C17H16NO5-
316.0609	7	C19H10NO4-
316.1189	17	C17H18NO5-
317.0453	31	C19H9O5-
318.077	24	C19H12NO4-
318.1145	3	C20H16NO3-
319.0611	19	C19H11O5-
320.0328	19	C18H8O6-
321.0408	19	C18H9O6-
321.1006	18	C19H15NO4-
323.0554	7	C18H11O6-
324.0869	15	C18H14NO5-
325.0721	24	C18H13O6-
326.0793	7	C18H14O6-
326.1394	16	C19H20NO4-
327.0881	4	C18H15O6-
330.1351	12	C18H20NO5-
332.0554	4	C19H10NO5-
333.0396	21	C19H9O6-
334.0722	31	C19H12NO5-
334.1081	7	C20H16NO4-
335.0559	59	C19H11O6-
335.0797	33	C19H13NO5-
336.0645	13	C19H12O6-
336.0879	15	C19H14NO5-
336.1243	35	C20H18NO4-
338.0433	6	C18H10O7-
338.0673	14	C18H12NO6-
338.104	6	C19H16NO5-
342.134	12	C19H20NO5-
346.0119	4	C19H6O7-
350.0664	26	C19H12NO6-
351.0511	16	C19H11O7-
352.0827	13	C19H14NO6-
352.1184	18	C20H18NO5-
353.0666	12	C19H13O7-
353.0905	58	C19H15NO6-
354.0746	50	C19H14O7-
354.1346	17	C20H20NO5-
356.1145	36	C19H18NO6-
361.0346	15	C20H9O7-
362.1038	6	C21H16NO5-
368.0777	4	C19H14NO7-
370.1294	12	C20H20NO6-
374.1244	999	C19H20NO7-
379.0474	4	C20H11O8-
398.1249	4	C21H20NO7-
424.1032	4	C22H18NO8-
