Mass spectrum: Norfloxacin; LC-ESI-ITFT; MS2; CE: 75%; R=15000; [M+H]+
Name: Norfloxacin
Name: 1-ethyl-6-fluoro-4-oxo-7-piperazin-1-yl-1,4-dihydroquinoline-3-carboxylic acid
Formula: C16H18FN3O3
Exact mass: 319.1332
SMILES: CCN1C=C(C(O)=O)C(=O)C2=CC(F)=C(C=C12)N3CCNCC3
InChI: InChI=1S/C16H18FN3O3/c1-2-19-9-11(16(22)23)15(21)10-7-12(17)14(8-13(10)19)20-5-3-18-4-6-20/h7-9,18H,2-6H2,1H3,(H,22,23)
Instrument: LTQ Orbitrap XL Thermo Scientific
Instrument type: LC-ESI-ITFT
Ms type: MS2
Ion mode: POSITIVE
Ionization: ESI
Fragmentation mode: HCD
Collision energy: 75 % (nominal)
Resolution: 15000
Column name: XBridge C18 3.5um, 2.1x50mm, Waters
Retention time: 4.4 min
Base peak: 320.1415
Precursor m/z: 320.1405
Precursor type: [M+H]+
m/z	relative intensity	assigned
56.0495	5	C3H6N+
58.0652	2	C3H8N+
70.0652	14	C4H8N+
109.0448	3	C7H6F+
110.0403	1	C6H5FN+
115.0544	1	C9H7+
116.0495	8	C8H6N+
117.0574	2	C8H7N+
122.0403	2	C7H5FN+
128.0496	1	C9H6N+
130.0653	7	C9H8N+
134.0402	3	C8H5FN+
135.048	9	C8H6FN+
136.0557	22	C8H7FN+
137.0267	2	C7H4FNO+
137.064	1	C8H8FN+
140.0493	1	C10H6N+
142.0647	3	C10H8N+
143.0604	5	C9H7N2+
143.0731	3	C10H9N+
144.0445	6	C9H6NO+
144.0556	4	C8H6N3+
144.0808	2	C10H10N+
148.0558	19	C9H7FN+
149.0508	4	C8H6FN2+
149.0636	3	C9H8FN+
150.0589	2	C8H7FN2+
150.0716	5	C9H9FN+
151.043	4	C8H6FNO+
151.0666	6	C8H8FN2+
152.0503	2	C8H7FNO+
152.0745	37	C8H9FN2+
155.0605	7	C10H7N2+
156.0682	14	C10H8N2+
157.0761	11	C10H9N2+
158.0603	4	C10H8NO+
159.0919	7	C10H11N2+
160.0563	3	C10H7FN+
161.0511	5	C9H6FN2+
161.0636	10	C10H8FN+
162.0351	17	C9H5FNO+
162.0593	4	C9H7FN2+
162.0716	5	C10H9FN+
163.0429	14	C9H6FNO+
163.0668	39	C9H8FN2+
163.0787	3	C10H10FN+
164.0507	19	C9H7FNO+
165.046	4	C8H6FN2O+
165.0585	10	C9H8FNO+
165.0823	78	C9H10FN2+
167.0606	3	C11H7N2+
169.0761	8	C11H9N2+
170.0712	5	C10H8N3+
170.0838	2	C11H10N2+
171.0554	3	C10H7N2O+
171.0918	26	C11H11N2+
172.0558	1	C11H7FN+
172.0759	10	C11H10NO+
174.059	5	C10H7FN2+
175.0667	23	C10H8FN2+
176.0509	11	C10H7FNO+
176.0745	113	C10H9FN2+
177.0463	2	C9H6FN2O+
177.0586	12	C10H8FNO+
177.0823	20	C10H10FN2+
178.0291	3	C12H4NO+
178.0538	14	C9H7FN2O+
178.0663	12	C10H9FNO+
178.0898	4	C10H11FN2+
179.0616	39	C9H8FN2O+
179.0745	4	C10H10FNO+
179.098	40	C10H12FN2+
183.079	3	C11H9N3+
183.0915	7	C12H11N2+
184.0633	13	C11H8N2O+
184.0868	2	C11H10N3+
185.071	56	C11H9N2O+
185.1071	5	C12H13N2+
186.0589	5	C11H7FN2+
186.102	1	C11H12N3+
187.0667	27	C11H8FN2+
188.0507	10	C11H7FNO+
188.0746	3	C11H9FN2+
189.0457	14	C10H6FN2O+
189.0824	138	C11H10FN2+
190.0303	3	C10H5FNO2+
190.0537	12	C10H7FN2O+
190.0664	24	C11H9FNO+
190.0901	9	C11H11FN2+
191.0616	63	C10H8FN2O+
191.074	13	C11H10FNO+
191.0982	12	C11H12FN2+
192.0694	8	C10H9FN2O+
192.0821	3	C11H11FNO+
193.0537	4	C10H8FNO2+
193.0774	11	C10H10FN2O+
195.033	5	C9H6FNO3+
196.087	7	C12H10N3+
197.0483	5	C9H8FNO3+
197.0713	5	C12H9N2O+
197.0947	8	C12H11N3+
198.0661	14	C11H8N3O+
198.0788	8	C12H10N2O+
198.1026	26	C12H12N3+
199.0864	4	C12H11N2O+
200.0813	3	C11H10N3O+
201.0826	4	C12H10FN2+
201.1027	2	C12H13N2O+
202.0545	4	C11H7FN2O+
202.0907	4	C12H11FN2+
203.0616	215	C11H8FN2O+
203.0982	24	C12H12FN2+
204.0694	84	C11H9FN2O+
204.1059	95	C12H13FN2+
205.0773	302	C11H10FN2O+
206.0851	19	C11H11FN2O+
207.0564	6	C10H8FN2O2+
207.0929	31	C11H12FN2O+
210.0663	3	C12H8N3O+
210.1024	7	C13H12N3+
211.0871	3	C13H11N2O+
211.1105	45	C13H13N3+
212.0823	7	C12H10N3O+
213.0905	2	C12H11N3O+
213.1024	9	C13H13N2O+
215.0252	3	C11H4FN2O2+
215.0609	1	C12H8FN2O+
215.0981	11	C13H12FN2+
216.0699	3	C12H9FN2O+
217.0408	14	C11H6FN2O2+
217.0772	30	C12H10FN2O+
218.0488	7	C11H7FN2O2+
218.062	3	C12H9FNO2+
218.0851	47	C12H11FN2O+
219.0562	4	C11H8FN2O2+
219.0929	73	C12H12FN2O+
221.0719	6	C11H10FN2O2+
223.0639	16	C11H10FNO3+
224.0451	6	C12H6N3O2+
224.0821	6	C13H10N3O+
224.1189	2	C14H14N3+
225.0528	6	C12H7N3O2+
225.0899	12	C10H12FN3O2+
225.1024	4	C14H13N2O+
225.1263	5	C14H15N3+
226.0614	14	C12H8N3O2+
226.0976	55	C13H12N3O+
226.1338	16	C14H16N3+
227.0814	3	C13H11N2O2+
227.1052	4	C13H13N3O+
227.1175	4	C14H15N2O+
228.1133	6	C13H14N3O+
230.0492	2	C12H7FN2O2+
230.0835	1	C16H10N2+
230.1088	10	C13H13FN3+
231.0567	999	C12H8FN2O2+
232.0648	5	C12H9FN2O2+
233.1084	134	C13H14FN2O+
235.0509	2	C11H8FN2O3+
235.0881	2	C12H12FN2O2+
238.0608	5	C13H8N3O2+
238.1338	2	C15H16N3+
239.0818	2	C14H11N2O2+
243.0566	4	C13H8FN2O2+
245.0721	32	C13H10FN2O2+
245.1084	3	C14H14FN2O+
246.1036	2	C13H13FN3O+
246.1398	3	C14H17FN3+
249.0671	16	C12H10FN2O3+
252.0769	10	C14H10N3O2+
253.0847	16	C14H11N3O2+
254.0925	133	C14H12N3O2+
254.1284	25	C15H16N3O+
256.146	3	C12H19FN3O2+
258.1404	16	C15H17FN3+
259.0877	21	C14H12FN2O2+
263.0826	5	C16H11N2O2+
272.0832	5	C14H11FN3O2+
272.1032	27	C14H14N3O3+
273.0904	2	C14H12FN3O2+
274.0987	55	C14H13FN3O2+
274.1347	11	C15H17FN3O+
277.099	1	C14H14FN2O3+
282.1237	125	C16H16N3O2+
292.1093	16	C14H15FN3O3+
300.1342	28	C16H18N3O3+
302.13	239	C16H17FN3O2+
320.1409	67	C16H19FN3O3+
