Mass spectrum: Acifluorfen; LC-ESI-QFT; MS2; CE: 45; R=35000; [M+H]+
Name: Acifluorfen
Name: 5-[2-chloranyl-4-(trifluoromethyl)phenoxy]-2-nitro-benzoic acid
Formula: C14H7ClF3NO5
Exact mass: 360.99648
SMILES: Clc2cc(ccc2Oc1cc(C(=O)O)c([N+]([O-])=O)cc1)C(F)(F)F
InChI: InChI=1S/C14H7ClF3NO5/c15-10-5-7(14(16,17)18)1-4-12(10)24-8-2-3-11(19(22)23)9(6-8)13(20)21/h1-6H,(H,20,21)
Instrument: Q Exactive Orbitrap Thermo Scientific
Instrument type: LC-ESI-QFT
Ms type: MS2
Ion mode: POSITIVE
Ionization: ESI
Fragmentation mode: HCD
Collision energy: 45 (nominal)
Resolution: 35000
Column name: XBridge C18 3.5um, 2.1x50mm, Waters
Retention time: 12.3 min
Base peak: 379.0305
Precursor m/z: 362.0038
Precursor type: [M+H]+
m/z	relative intensity	assigned
51.0231	3	C4H3+
65.026	4	C4H3N+
67.0179	5	C4H3O+
67.0417	2	C4H5N+
68.9971	16	C3HO2+
76.0182	20	C5H2N+
77.026	6	C5H3N+
78.0338	50	C5H4N+
80.0131	4	C4H2NO+
93.0208	18	C5H3NO+
98.9841	6	CH4ClO3+
104.0132	69	C6H2NO+
122.0234	12	C6H4NO2+
132.0184	42	C6H3F3+
140.0494	13	C10H6N+
142.9897	20	C6H4ClO2+
162.9959	3	C6H5ClFO2+
164.9915	54	C6H4ClF2O+
166.987	78	C6H3ClF3+
174.9754	5	C7H2ClF2O+
174.9868	19	C6F3NO2+
175.0182	4	C10H6ClN+
178.987	326	C7H3ClF3+
182.0345	4	C10H5F3+
189.0384	27	C11H5F2N+
194.9819	25	C7H3ClF3O+
203.0135	22	C11H6ClNO+
206.9932	24	C6H6ClNO5+
208.0371	13	C11H5F3N+
209.0449	15	C11H6F3N+
210.0285	3	C11H5F3O+
217.0026	33	C10H5ClF3+
220.9813	79	C8H4ClF2O3+
222.9769	999	C8H3ClF3O2+
224.0072	7	C11H5ClF2N+
229.9999	4	C12H5ClNO2+
231.9961	4	C12H4ClFNO+
237.0397	44	C12H6F3NO+
252.0024	43	C12H5ClF2NO+
264.0274	3	C13H5F3NO2+
272.008	14	C12H6ClF3NO+
272.9931	16	C12H5ClF3O2+
279.9973	32	C13H5ClF2NO2+
300.0033	92	C13H6ClF3NO2+
