Mass spectrum: Mefenamic acid; LC-ESI-ITFT; MS2; CE: 75%; R=15000; [M+H]+
Name: Mefenamic acid
Name: 2-(2,3-dimethylanilino)benzoic acid
Formula: C15H15NO2
Exact mass: 241.1103
SMILES: c1(c(cccc1)C(O)=O)Nc1c(c(ccc1)C)C
InChI: InChI=1S/C15H15NO2/c1-10-6-5-9-13(11(10)2)16-14-8-4-3-7-12(14)15(17)18/h3-9,16H,1-2H3,(H,17,18)
Instrument: LTQ Orbitrap XL Thermo Scientific
Instrument type: LC-ESI-ITFT
Ms type: MS2
Ion mode: POSITIVE
Ionization: ESI
Fragmentation mode: HCD
Collision energy: 75 % (nominal)
Resolution: 15000
Column name: XBridge C18 3.5um, 2.1x50mm, Waters
Retention time: 14.5 min
Base peak: 242.1182
Precursor m/z: 242.1176
Precursor type: [M+H]+
m/z	relative intensity	assigned
179.0729	4	C13H9N+
180.0807	136	C13H10N+
181.0885	66	C13H11N+
182.0599	2	C12H8NO+
183.0677	14	C12H9NO+
194.0596	1	C13H8NO+
194.0965	14	C14H12N+
195.0678	3	C13H9NO+
196.0755	9	C13H10NO+
196.1114	3	C14H14N+
204.0803	2	C15H10N+
206.0971	2	C15H12N+
207.0681	5	C14H9NO+
208.0756	150	C14H10NO+
209.0835	999	C14H11NO+
222.0912	39	C15H12NO+
223.0994	27	C15H13NO+
224.107	561	C15H14NO+
