Mass spectrum: Metolachlor-TP SYN547977; LC-ESI-QFT; MS2; CE: 60%; R=17500; [M+H]+
Name: Metolachlor-TP SYN547977
Formula: C15H20ClNO3
Exact mass: 297.1132
SMILES: ClCC(=O)N(C(C)COC)c1c(C)cccc1C(C)=O
InChI: InChI=1S/C15H20ClNO3/c1-10-6-5-7-13(12(3)18)15(10)17(14(19)8-16)11(2)9-20-4/h5-7,11H,8-9H2,1-4H3
Instrument: Exploris 240 Orbitrap Thermo Scientific
Instrument type: LC-ESI-QFT
Ms type: MS2
Ion mode: POSITIVE
Ionization: ESI
Fragmentation mode: HCD
Collision energy: 60 % (nominal)
Resolution: 17500
Column name: XBridge C18 3.5um, 2.1x50mm, Waters
Retention time: 6.762 min
Base peak: 298.1202
Precursor m/z: 298.1204
Precursor type: [M+H]+
m/z	relative intensity	assigned
73.0647	51	C4H9O+
76.9788	28	C2H2ClO+
105.0698	65	C8H9+
107.0725	6	C7H9N+
108.0809	12	C7H10N+
130.065	11	C9H8N+
131.0732	43	C9H9N+
132.0805	61	C9H10N+
134.06	63	C8H8NO+
134.0966	33	C9H12N+
144.0804	61	C10H10N+
146.0962	38	C10H12N+
147.1043	28	C10H13N+
148.1121	206	C10H14N+
150.0914	12	C9H12NO+
154.0655	10	C11H8N+
157.0884	71	C11H11N+
158.0969	17	C11H12N+
160.0757	11	C10H10NO+
162.1278	24	C11H16N+
170.0964	13	C12H12N+
171.1046	51	C12H13N+
172.1121	999	C12H14N+
173.0833	13	C11H11NO+
174.0915	25	C11H12NO+
184.0525	24	C9H11ClNO+
186.128	62	C13H16N+
190.1225	81	C12H16NO+
208.0522	203	C11H11ClNO+
248.0835	23	C14H15ClNO+
266.0944	191	C14H17ClNO2+
