Mass spectrum: Acetamiprid; LC-ESI-ITFT; MS2; CE: 90%; R=15000; [M+H]+
Name: Acetamiprid
Name: (1E)-N-[(6-Chloro-3-pyridinyl)methyl]-N'-cyano-N-methylethanimidamide
Formula: C10H11ClN4
Exact mass: 222.0672
SMILES: CN(CC1=CN=C(Cl)C=C1)C(\C)=N\C#N
InChI: InChI=1S/C10H11ClN4/c1-8(14-7-12)15(2)6-9-3-4-10(11)13-5-9/h3-5H,6H2,1-2H3/b14-8+
Instrument: LTQ Orbitrap XL Thermo Scientific
Instrument type: LC-ESI-ITFT
Ms type: MS2
Ion mode: POSITIVE
Ionization: ESI
Fragmentation mode: HCD
Collision energy: 90 % (nominal)
Resolution: 15000
Column name: XBridge C18 3.5um, 2.1x50mm, Waters
Retention time: 5.3 min
Base peak: 223.0746
Precursor m/z: 223.0745
Precursor type: [M+H]+
m/z	relative intensity	assigned
56.0494	43	C3H6N+
63.0228	26	C5H3+
65.0385	6	C5H5+
72.9839	43	C3H2Cl+
74.9994	1	C3H4Cl+
80.0493	2	C5H6N+
81.0334	5	C5H5O+
90.0337	315	C6H4N+
91.0415	58	C6H5N+
98.9995	307	C5H4Cl+
108.0442	14	C6H6NO+
119.06	1	C7H7N2+
126.0104	999	C6H5ClN+
144.0209	52	C6H7ClNO+
