Mass spectrum: Amiodarone; LC-ESI-QFT; MS2; CE: 75; R=35000; [M+H]+
Name: Amiodarone
Name: (2-butyl-1-benzofuran-3-yl)-[4-(2-diethylaminoethyloxy)-3,5-bis(iodanyl)phenyl]methanone
Formula: C25H29I2NO3
Exact mass: 645.02369
SMILES: Ic1cc(cc(I)c1OCCN(CC)CC)C(=O)c2c3ccccc3oc2CCCC
InChI: InChI=1S/C25H29I2NO3/c1-4-7-11-22-23(18-10-8-9-12-21(18)31-22)24(29)17-15-19(26)25(20(27)16-17)30-14-13-28(5-2)6-3/h8-10,12,15-16H,4-7,11,13-14H2,1-3H3
Instrument: Q Exactive Orbitrap Thermo Scientific
Instrument type: LC-ESI-QFT
Ms type: MS2
Ion mode: POSITIVE
Ionization: ESI
Fragmentation mode: HCD
Collision energy: 75 (nominal)
Resolution: 35000
Column name: XBridge C18 3.5um, 2.1x50mm, Waters
Retention time: 14.4 min
Base peak: 646.0309
Precursor m/z: 646.031
Precursor type: [M+H]+
m/z	relative intensity	assigned
89.0385	19	C7H5+
91.0542	44	C7H7+
95.0491	18	C6H7O+
100.1121	388	C6H14N+
103.0545	143	C8H7+
115.0543	45	C9H7+
118.0413	41	
128.0619	26	C10H8+
131.0492	791	C9H7O+
145.0283	29	
159.044	999	C10H7O2+
165.0698	225	C13H9+
168.057	19	C12H8O+
171.044	139	C11H7O2+
176.0619	45	C14H8+
178.0779	45	C14H10+
179.0489	45	C13H7O+
179.0856	40	
183.0804	22	C13H11O+
189.0703	31	C15H9+
191.0851	45	C15H11+
192.0569	442	C14H8O+
193.0647	112	C14H9O+
201.0908	158	C13H13O2+
202.0777	37	C16H10+
205.0647	430	C15H9O+
206.0725	105	C15H10O+
217.9226	158	C6H3IO+
218.0725	118	C16H10O+
219.0804	175	C16H11O+
220.0517	43	C15H8O2+
221.0598	332	C15H9O2+
231.0804	136	C17H11O+
232.0516	24	C16H8O2+
232.0881	22	
233.0597	138	C16H9O2+
234.0678	190	C16H10O2+
235.0753	114	C16H11O2+
243.0806	26	C18H11O+
245.0592	33	C17H9O2+
246.0677	37	
247.0752	339	C17H11O2+
248.0832	112	C17H12O2+
249.0549	45	C16H9O3+
250.0624	24	C16H10O3+
258.068	30	C18H10O2+
259.0749	40	C18H11O2+
261.0548	75	C17H9O3+
263.0707	20	C17H11O3+
272.9404	43	C9H6IO2+
275.0703	237	C18H11O3+
276.0782	39	C18H12O3+
289.0863	37	C19H13O3+
333.948	41	C14H7IO2+
346.9561	137	C15H8IO2+
372.8225	100	C7H3I2O2+
