Mass spectrum: Oxacillin; LC-ESI-QFT; MS2; CE: 150; R=35000; [M+H]+
Name: Oxacillin
Name: (2S,5R,6R)-3,3-dimethyl-6-[(5-methyl-3-phenyl-1,2-oxazole-4-carbonyl)amino]-7-oxo-4-thia-1-azabicyclo[3.2.0]heptane-2-carboxylic acid
Formula: C19H19N3O5S
Exact mass: 401.10454
SMILES: CC1=C(C(=O)N[C@H]2[C@H]3SC(C)(C)[C@@H](N3C2=O)C(O)=O)C(=NO1)C1=CC=CC=C1
InChI: InChI=1S/C19H19N3O5S/c1-9-11(12(21-27-9)10-7-5-4-6-8-10)15(23)20-13-16(24)22-14(18(25)26)19(2,3)28-17(13)22/h4-8,13-14,17H,1-3H3,(H,20,23)(H,25,26)/t13-,14+,17-/m1/s1
Instrument: Q Exactive Plus Orbitrap Thermo Scientific
Instrument type: LC-ESI-QFT
Ms type: MS2
Ion mode: POSITIVE
Ionization: ESI
Fragmentation mode: HCD
Collision energy: 150 (nominal)
Resolution: 35000
Column name: XBridge C18 3.5um, 2.1x50mm, Waters
Retention time: 8.5 min
Base peak: 402.1116
Precursor m/z: 402.1118
Precursor type: [M+H]+
m/z	relative intensity	assigned
50.0151	400	C4H2+
51.023	999	C4H3+
52.0182	23	C3H2N+
52.0308	2	C4H4+
53.0022	24	C3HO+
53.0386	442	C4H5+
53.9975	3	C2NO+
54.0339	26	C3H4N+
55.0179	13	C3H3O+
55.0542	17	C4H7+
56.0495	7	C3H6N+
57.9872	18	C2H2S+
58.995	276	C2H3S+
59.9665	24	COS+
62.0059	13	CH4NS+
62.0151	6	C5H2+
63.0229	51	C5H3+
65.0022	22	C4HO+
65.0386	64	C5H5+
66.0101	7	C4H2O+
66.0339	4	C4H4N+
67.0417	8	C4H5N+
67.0542	10	C5H7+
67.9893	1	C3O2+
68.0131	12	C3H2NO+
68.0495	6	C4H6N+
69.0447	10	C3H5N2+
70.0651	107	C4H8N+
70.995	10	C3H3S+
72.003	1	C3H4S+
73.0106	10	C3H5S+
74.015	2	C6H2+
75.0229	20	C6H3+
75.0263	2	C3H7S+
76.0308	2	C6H4+
77.0385	584	C6H5+
78.0338	3	C5H4N+
78.0464	21	C6H6+
79.029	8	C4H3N2+
80.0368	3	C4H4N2+
80.0494	28	C5H6N+
81.0335	29	C5H5O+
81.0448	22	C4H5N2+
82.0651	2	C5H8N+
85.0106	22	C4H5S+
86.0061	2	C3H4NS+
87.0263	72	C4H7S+
89.0386	177	C7H5+
90.0339	13	C6H4N+
90.0464	6	C7H6+
91.0542	38	C7H7+
92.0495	2	C6H6N+
93.0448	8	C5H5N2+
94.0414	14	C6H6O+
94.0651	7	C6H8N+
95.0492	930	C6H7O+
96.0443	3	C5H6NO+
100.0216	13	C4H6NS+
102.0464	11	C8H6+
103.0543	29	C8H7+
104.0495	12	C7H6N+
105.0448	507	C6H5N2+
106.0401	2	C5H4N3+
112.0215	13	C5H6NS+
113.0294	2	C5H7NS+
114.0372	21	C5H8NS+
115.0416	7	C8H5N+
115.0543	15	C9H7+
116.0495	23	C8H6N+
117.0573	11	C8H7N+
119.0605	2	C7H7N2+
128.0494	9	C9H6N+
129.0448	2	C8H5N2+
130.065	3	C9H8N+
140.0495	2	C10H6N+
142.0523	3	C9H6N2+
