Mass spectrum: Mandestrobin; LC-ESI-QFT; MS2; CE: 120%; R=17500; [M+H]+
Name: Mandestrobin
Name: 2-[2-[(2,5-dimethylphenoxy)methyl]phenyl]-2-methoxy-N-methylacetamide
Formula: C19H23NO3
Exact mass: 313.1678
SMILES: CC1=CC(=C(C=C1)C)OCC2=CC=CC=C2C(C(=O)NC)OC
InChI: InChI=1S/C19H23NO3/c1-13-9-10-14(2)17(11-13)23-12-15-7-5-6-8-16(15)18(22-4)19(21)20-3/h5-11,18H,12H2,1-4H3,(H,20,21)
Instrument: Exploris 240 Orbitrap Thermo Scientific
Instrument type: LC-ESI-QFT
Ms type: MS2
Ion mode: POSITIVE
Ionization: ESI
Fragmentation mode: HCD
Collision energy: 120 % (nominal)
Resolution: 17500
Column name: XBridge C18 3.5um, 2.1x50mm, Waters
Retention time: 11.127 min
Base peak: 314.1748
Precursor m/z: 314.1751
Precursor type: [M+H]+
m/z	relative intensity	assigned
58.0286	18	C2H4NO+
65.0385	213	C5H5+
77.0385	55	C6H5+
78.0463	12	C6H6+
79.0541	33	C6H7+
89.0387	15	C7H5+
90.0463	52	C7H6+
91.0542	999	C7H7+
95.0491	11	C6H7O+
103.0543	85	C8H7+
105.0697	45	C8H9+
115.054	36	C9H7+
116.0496	21	C8H6N+
117.0572	267	C8H7N+
118.0414	8	C8H6O+
118.0649	49	C8H8N+
119.0493	107	C8H7O+
130.0654	34	C9H8N+
131.0729	125	C9H9N+
132.0808	129	C9H10N+
165.07	47	C13H9+
178.0779	10	C14H10+
