Mass spectrum: Oseltamivir; LC-ESI-ITFT; MS2; CE: 30%; R=15000; [M+H]+
Name: Oseltamivir
Name: (3R,4R,5S)-4-acetamido-5-amino-3-(1-ethylpropoxy)cyclohexene-1-carboxylic acid ethyl ester
Formula: C16H28N2O4
Exact mass: 312.2049
SMILES: CCC(CC)OC1C=C(CC(C1NC(=O)C)N)C(=O)OCC
InChI: InChI=1S/C16H28N2O4/c1-5-12(6-2)22-14-9-11(16(20)21-7-3)8-13(17)15(14)18-10(4)19/h9,12-15H,5-8,17H2,1-4H3,(H,18,19)/t13-,14+,15+/m0/s1
Instrument: LTQ Orbitrap XL Thermo Scientific
Instrument type: LC-ESI-ITFT
Ms type: MS2
Ion mode: POSITIVE
Ionization: ESI
Fragmentation mode: HCD
Collision energy: 30 % (nominal)
Resolution: 15000
Column name: XBridge C18 3.5um, 2.1x50mm, Waters
Retention time: 7.0 min
Base peak: 313.2132
Precursor m/z: 313.2122
Precursor type: [M+H]+
m/z	relative intensity	assigned
60.0444	2	C2H6NO+
65.0386	3	C5H5+
67.0544	3	C5H7+
68.0495	3	C4H6N+
92.0494	5	C6H6N+
93.0335	10	C6H5O+
93.057	3	C6H7N+
94.0652	40	C6H8N+
95.0492	3	C6H7O+
109.0761	4	C6H9N2+
111.0441	10	C6H7O2+
112.0393	5	C5H6NO2+
119.0605	4	C7H7N2+
120.0445	152	C7H6NO+
121.0283	1	C7H5O2+
122.0965	14	C8H12N+
123.0806	1	C8H11O+
136.0758	85	C8H10NO+
137.071	60	C7H9N2O+
138.055	30	C7H8NO2+
139.0388	5	C7H7O3+
139.0754	16	C8H11O2+
140.0705	10	C7H10NO2+
151.0867	6	C8H11N2O+
154.0866	2	C8H12NO2+
156.0656	1	C7H10NO3+
161.071	10	C9H9N2O+
162.0551	43	C9H8NO2+
164.1072	6	C10H14NO+
166.0864	999	C9H12NO2+
167.0702	18	C9H11O3+
179.0816	47	C9H11N2O2+
180.0656	35	C9H10NO3+
183.1128	10	C9H15N2O2+
184.0968	7	C9H14NO3+
207.113	7	C11H15N2O2+
208.097	278	C11H14NO3+
225.1234	126	C11H17N2O3+
226.1075	64	C11H16NO4+
243.134	21	C11H19N2O4+
296.1858	11	C16H26NO4+
313.2128	2	C16H29N2O4+
