Mass spectrum: Deprenyl; LC-ESI-QFT; MS2; CE: 180; R=35000; [M+H]+
Name: Deprenyl
Name: Selegiline
Name: (2R)-N-methyl-1-phenyl-N-prop-2-ynylpropan-2-amine
Formula: C13H17N
Exact mass: 187.13610
SMILES: C[C@H](Cc1ccccc1)N(C)CC#C
InChI: InChI=1S/C13H17N/c1-4-10-14(3)12(2)11-13-8-6-5-7-9-13/h1,5-9,12H,10-11H2,2-3H3/t12-/m1/s1
Instrument: Q Exactive Plus Orbitrap Thermo Scientific
Instrument type: LC-ESI-QFT
Ms type: MS2
Ion mode: POSITIVE
Ionization: ESI
Fragmentation mode: HCD
Collision energy: 180 (nominal)
Resolution: 35000
Column name: XBridge C18 3.5um, 2.1x50mm, Waters
Retention time: 4.1 min
Base peak: 188.1433
Precursor m/z: 188.1434
Precursor type: [M+H]+
m/z	relative intensity	assigned
50.0152	26	C4H2+
51.023	41	C4H3+
53.0022	32	C3HO+
53.0386	4	C4H5+
53.9975	7	C2NO+
56.0495	1	C3H6N+
58.0652	11	C3H8N+
61.0073	3	C5H+
62.0151	19	C5H2+
63.023	109	C5H3+
64.0306	1	C5H4+
65.0386	999	C5H5+
77.0385	9	C6H5+
78.0088	1	C3N3+
78.0464	9	C6H6+
89.0387	6	C7H5+
90.0465	1	C7H6+
91.0543	492	C7H7+
95.0492	13	C6H7O+
103.0543	7	C8H7+
105.0448	6	C6H5N2+
115.0542	1	C9H7+
