Mass spectrum: Amitriptyline; LC-ESI-ITFT; MS2; CE: 90%; R=7500; [M+H]+
Name: Amitriptyline
Name: 3-(10,11-Dihydro-5H-dibenzo[a,d][7]annulen-5-ylidene)-N,N-dimethyl-1-propanamine
Formula: C20H23N
Exact mass: 277.1830
SMILES: C1(\c2c(CCc3c1cccc3)cccc2)=C\CCN(C)C
InChI: InChI=1S/C20H23N/c1-21(2)15-7-12-20-18-10-5-3-8-16(18)13-14-17-9-4-6-11-19(17)20/h3-6,8-12H,7,13-15H2,1-2H3
Instrument: LTQ Orbitrap XL Thermo Scientific
Instrument type: LC-ESI-ITFT
Ms type: MS2
Ion mode: POSITIVE
Ionization: ESI
Fragmentation mode: HCD
Collision energy: 90 % (nominal)
Resolution: 7500
Column name: XBridge C18 3.5um, 2.1x50mm, Waters
Retention time: 8.6 min
Base peak: 278.1914
Precursor m/z: 278.1903
Precursor type: [M+H]+
m/z	relative intensity	assigned
58.0651	48	C3H8N+
65.0387	16	C5H5+
70.0651	34	C4H8N+
77.0386	56	C6H5+
79.0543	113	C6H7+
84.0808	131	C5H10N+
91.0542	999	C7H7+
103.0543	123	C8H7+
105.0699	627	C8H9+
115.0542	385	C9H7+
117.0699	608	C9H9+
128.062	143	C10H8+
129.0699	247	C10H9+
141.0699	114	C11H9+
142.0781	12	C11H10+
152.0619	16	C12H8+
153.0699	86	C12H9+
154.0777	53	C12H10+
155.0603	97	C10H7N2+
155.0854	105	C12H11+
165.07	93	C13H9+
178.0777	496	C14H10+
179.0855	186	C14H11+
189.0698	91	C15H9+
190.0776	225	C15H10+
191.0855	685	C15H11+
192.0931	110	C15H12+
193.1007	28	C15H13+
202.0778	186	C16H10+
203.0854	734	C16H11+
204.0932	228	C16H12+
205.1011	117	C16H13+
215.0857	70	C17H11+
216.0933	46	C17H12+
217.1011	371	C17H13+
218.109	148	C17H14+
231.1158	13	C18H15+
