Mass spectrum: Isazofos; LC-ESI-QFT; MS2; CE: 30%; R=17500; [M+H]+
Name: Isazofos
Name: (5-chloro-1-propan-2-yl-1,2,4-triazol-3-yl)oxy-diethoxy-sulfanylidene-lambda5-phosphane
Formula: C9H17ClN3O3PS
Exact mass: 313.0417
SMILES: CCOP(=S)(OCC)OC1=NN(C(=N1)Cl)C(C)C
InChI: InChI=1S/C9H17ClN3O3PS/c1-5-14-17(18,15-6-2)16-9-11-8(10)13(12-9)7(3)4/h7H,5-6H2,1-4H3
Instrument: Exploris 240 Orbitrap Thermo Scientific
Instrument type: LC-ESI-QFT
Ms type: MS2
Ion mode: POSITIVE
Ionization: ESI
Fragmentation mode: HCD
Collision energy: 30 % (nominal)
Resolution: 17500
Column name: XBridge C18 3.5um, 2.1x50mm, Waters
Retention time: 9.421 min
Base peak: 314.0488
Precursor m/z: 314.049
Precursor type: [M+H]+
m/z	relative intensity	assigned
96.9506	57	H2O2PS+
114.9613	54	H4O3PS+
119.9958	290	C2H3ClN3O+
124.9819	110	C2H6O2PS+
148.0273	28	C4H7ClN3O+
153.0133	172	C5H10ClOS+
162.0428	999	C4H9N3O2P+
171.0239	19	C4H12O3PS+
243.9706	153	C4H8ClN3O3PS+
272.0021	183	C6H12ClN3O3PS+
286.0174	80	C7H14ClN3O3PS+
314.0487	158	C9H18ClN3O3PS+
