Mass spectrum: Omethoate; LC-ESI-QFT; MS2; CE: 15%; R=17500; [M+H]+
Name: Omethoate
Name: 2-dimethoxyphosphorylsulfanyl-N-methylacetamide
Formula: C5H12NO4PS
Exact mass: 213.0225
SMILES: CNC(=O)CSP(=O)(OC)OC
InChI: InChI=1S/C5H12NO4PS/c1-6-5(7)4-12-11(8,9-2)10-3/h4H2,1-3H3,(H,6,7)
Instrument: Exploris 240 Orbitrap Thermo Scientific
Instrument type: LC-ESI-QFT
Ms type: MS2
Ion mode: POSITIVE
Ionization: ESI
Fragmentation mode: HCD
Collision energy: 15 % (nominal)
Resolution: 17500
Column name: XBridge C18 3.5um, 2.1x50mm, Waters
Retention time: 1.956 min
Base peak: 214.0296
Precursor m/z: 214.0297
Precursor type: [M+H]+
m/z	relative intensity	assigned
88.0217	12	C3H6NS+
142.9929	4	C2H8O3PS+
154.9926	20	C3H8O3PS+
182.0036	3	C4H9NO3PS+
182.9875	427	C4H8O4PS+
196.0192	76	C5H11NO3PS+
214.0297	999	C5H13NO4PS+
