Mass spectrum: Atazanavir; LC-ESI-QFT; MS2; CE: 30; R=35000; [M+H]+
Name: Atazanavir
Name: N-[(1S)-1-[[(1S,2S)-1-benzyl-3-[[[(2S)-2-(carbomethoxyamino)-3,3-dimethyl-butanoyl]amino]-[4-(2-pyridyl)benzyl]amino]-2-hydroxy-propyl]carbamoyl]-2,2-dimethyl-propyl]carbamic acid methyl ester
Formula: C38H52N6O7
Exact mass: 704.38975
SMILES: CC(C)(C)C(C(=O)NC(CC1=CC=CC=C1)C(CN(CC2=CC=C(C=C2)C3=CC=CC=N3)NC(=O)C(C(C)(C)C)NC(=O)OC)O)NC(=O)OC
InChI: InChI=1S/C38H52N6O7/c1-37(2,3)31(41-35(48)50-7)33(46)40-29(22-25-14-10-9-11-15-25)30(45)24-44(43-34(47)32(38(4,5)6)42-36(49)51-8)23-26-17-19-27(20-18-26)28-16-12-13-21-39-28/h9-21,29-32,45H,22-24H2,1-8H3,(H,40,46)(H,41,48)(H,42,49)(H,43,47)/t29-,30-,31+,32+/m0/s1
Instrument: Q Exactive Orbitrap Thermo Scientific
Instrument type: LC-ESI-QFT
Ms type: MS2
Ion mode: POSITIVE
Ionization: ESI
Fragmentation mode: HCD
Collision energy: 30 (nominal)
Resolution: 35000
Column name: XBridge C18 3.5um, 2.1x50mm, Waters
Retention time: 11.6 min
Base peak: 705.3972
Precursor m/z: 705.397
Precursor type: [M+H]+
m/z	relative intensity	assigned
101.0961	2	C6H13O+
112.0757	3	C6H10NO+
120.0808	41	C8H10N+
129.07	4	C10H9+
131.0857	1	C10H11+
144.102	184	C7H14NO2+
146.0965	19	C10H12N+
147.0804	2	C10H11O+
162.0915	3	C10H12NO+
164.1071	4	C10H14NO+
167.0728	8	C12H9N+
168.0808	999	C12H10N+
169.0886	17	C12H11N+
170.0964	18	C12H12N+
172.0966	4	C8H14NO3+
177.1024	2	C10H13N2O+
183.0921	1	C12H11N2+
185.1074	2	C12H13N2+
192.1018	2	C11H14NO2+
212.1183	5	C13H14N3+
250.1075	3	C13H16NO4+
287.1543	2	C20H19N2+
311.1751	5	C19H23N2O2+
328.1811	20	
335.1966	423	C18H27N2O4+
363.2181	18	
371.2086	6	C22H29NO4+
424.2386	21	C28H30N3O+
499.2708	7	C30H35N4O3+
516.2972	11	
534.3078	102	C30H40N5O4+
612.3554	10	
687.3877	2	C38H51N6O6+
705.3962	4	C38H53N6O7+
