Mass spectrum: Cathine; LC-ESI-QFT; MS2; CE: 15; R=35000; [M+H]+
Name: Cathine
Name: (1S,2S)-2-amino-1-phenylpropan-1-ol
Formula: C9H13NO
Exact mass: 151.09971
SMILES: C[C@@H]([C@H](C1=CC=CC=C1)O)N
InChI: InChI=1S/C9H13NO/c1-7(10)9(11)8-5-3-2-4-6-8/h2-7,9,11H,10H2,1H3/t7-,9+/m0/s1
Instrument: Q Exactive Orbitrap Thermo Scientific
Instrument type: LC-ESI-QFT
Ms type: MS2
Ion mode: POSITIVE
Ionization: ESI
Fragmentation mode: HCD
Collision energy: 15 (nominal)
Resolution: 35000
Column name: XBridge C18 3.5um, 2.1x50mm, Waters
Retention time: 2.7 min
Base peak: 134.0964
Precursor m/z: 152.107
Precursor type: [M+H]+
m/z	relative intensity	assigned
56.0495	1	C3H6N+
91.054	6	C7H7+
93.0699	2	C7H9+
106.0652	1	C7H8N+
115.0541	15	C9H7+
117.0698	170	C9H9+
119.0729	3	C8H9N+
134.0964	999	C9H12N+
152.1069	3	C9H14NO+
