Mass spectrum: Diethyl-phthalate; LC-ESI-QFT; MS2; CE: 120; R=35000; [M+H]+
Name: Diethyl-phthalate
Name: Diethyl phthalate
Name: Diethyl benzene-1,2-dicarboxylate
Formula: C12H14O4
Exact mass: 222.08921
SMILES: CCOC(=O)C1=CC=CC=C1C(=O)OCC
InChI: InChI=1S/C12H14O4/c1-3-15-11(13)9-7-5-6-8-10(9)12(14)16-4-2/h5-8H,3-4H2,1-2H3
Instrument: Q Exactive Plus Orbitrap Thermo Scientific
Instrument type: LC-ESI-QFT
Ms type: MS2
Ion mode: POSITIVE
Ionization: ESI
Fragmentation mode: HCD
Collision energy: 120 (nominal)
Resolution: 35000
Column name: XBridge C18 3.5um, 2.1x50mm, Waters
Retention time: 8.7 min
Base peak: 223.0959
Precursor m/z: 223.0965
Precursor type: [M+H]+
m/z	relative intensity	assigned
53.0022	12	C3HO+
53.9975	3	C2NO+
55.0178	2	C3H3O+
65.0386	999	C5H5+
67.9892	3	C3O2+
80.0255	2	C5H4O+
93.0335	42	C6H5O+
98.0362	1	C5H6O2+
111.044	53	C6H7O2+
121.0284	84	C7H5O2+
121.0396	124	C6H5N2O+
149.0234	31	C8H5O3+
