Mass spectrum: 1-Benzylpiperazine; LC-ESI-QFT; MS2; CE: 150; R=35000; [M+H]+
Name: 1-Benzylpiperazine
Name: N-Benzylpiperazine
Name: 1-(phenylmethyl)piperazine
Formula: C11H16N2
Exact mass: 176.13135
SMILES: C1CN(CCN1)Cc1ccccc1
InChI: InChI=1S/C11H16N2/c1-2-4-11(5-3-1)10-13-8-6-12-7-9-13/h1-5,12H,6-10H2
Instrument: Q Exactive Plus Orbitrap Thermo Scientific
Instrument type: LC-ESI-QFT
Ms type: MS2
Ion mode: POSITIVE
Ionization: ESI
Fragmentation mode: HCD
Collision energy: 150 (nominal)
Resolution: 35000
Column name: XBridge C18 3.5um, 2.1x50mm, Waters
Retention time: 1.2 min
Base peak: 177.1381
Precursor m/z: 177.1386
Precursor type: [M+H]+
m/z	relative intensity	assigned
50.0151	9	C4H2+
51.0229	6	C4H3+
53.0022	12	C3HO+
53.9975	3	C2NO+
56.0495	21	C3H6N+
61.0072	1	C5H+
62.015	7	C5H2+
63.0229	57	C5H3+
64.0306	1	C5H4+
65.0385	957	C5H5+
85.0759	6	C4H9N2+
89.0385	2	C7H5+
90.0463	1	C7H6+
91.0542	999	C7H7+
