Mass spectrum: Metconazole; LC-ESI-QFT; MS2; CE: 45; R=35000; [M+H]+
Name: Metconazole
Name: 5-(4-chlorobenzyl)-2,2-dimethyl-1-(1,2,4-triazol-1-ylmethyl)cyclopentanol
Formula: C17H22ClN3O
Exact mass: 319.14514
SMILES: Clc1ccc(cc1)CC2C(O)(C(CC2)(C)C)Cn3ncnc3
InChI: InChI=1S/C17H22ClN3O/c1-16(2)8-7-14(9-13-3-5-15(18)6-4-13)17(16,22)10-21-12-19-11-20-21/h3-6,11-12,14,22H,7-10H2,1-2H3
Instrument: Q Exactive Orbitrap Thermo Scientific
Instrument type: LC-ESI-QFT
Ms type: MS2
Ion mode: POSITIVE
Ionization: ESI
Fragmentation mode: HCD
Collision energy: 45 (nominal)
Resolution: 35000
Column name: XBridge C18 3.5um, 2.1x50mm, Waters
Retention time: 13.8 min
Base peak: 320.1528
Precursor m/z: 320.1524
Precursor type: [M+H]+
m/z	relative intensity	assigned
59.0493	2	C3H7O+
69.0701	2	C5H9+
70.04	999	C2H4N3+
81.0699	2	C6H9+
95.0856	13	C7H11+
107.0857	4	C8H11+
109.1012	1	C8H13+
125.0153	85	C7H6Cl+
139.0309	7	C8H8Cl+
142.0777	1	C11H10+
151.0309	5	C9H8Cl+
163.0308	5	C10H8Cl+
165.0466	1	C10H10Cl+
177.0466	20	C11H10Cl+
191.0624	4	C12H12Cl+
233.1095	3	C15H18Cl+
320.1525	12	C17H23ClN3O+
