Mass spectrum: 2-Toluenesulfonamide; LC-ESI-QFT; MS2; CE: 120; R=35000; [M+H]+
Name: 2-Toluenesulfonamide
Name: o-Toluenesulfonamide
Name: 2-methylbenzenesulfonamide
Formula: C7H9NO2S
Exact mass: 171.03540
SMILES: CC1=CC=CC=C1S(=O)(=O)N
InChI: InChI=1S/C7H9NO2S/c1-6-4-2-3-5-7(6)11(8,9)10/h2-5H,1H3,(H2,8,9,10)
Instrument: Q Exactive Plus Orbitrap Thermo Scientific
Instrument type: LC-ESI-QFT
Ms type: MS2
Ion mode: POSITIVE
Ionization: ESI
Fragmentation mode: HCD
Collision energy: 120 (nominal)
Resolution: 35000
Column name: XBridge C18 3.5um, 2.1x50mm, Waters
Retention time: 4.6 min
Base peak: 189.0689
Precursor m/z: 172.0427
Precursor type: [M+H]+
m/z	relative intensity	assigned
50.0151	5	C4H2+
51.023	5	C4H3+
53.0022	10	C3HO+
53.9975	3	C2NO+
62.015	4	C5H2+
63.0229	54	C5H3+
65.0386	999	C5H5+
67.9892	2	C3O2+
89.0385	3	C7H5+
91.0542	583	C7H7+
95.0491	1	C6H7O+
