Mass spectrum: Didanosine; LC-ESI-QFT; MS2; CE: 75; R=35000; [M-H]-
Name: Didanosine
Name: 9-[(2R,5S)-5-(hydroxymethyl)-2-oxolanyl]-3H-purin-6-one
Formula: C10H12N4O3
Exact mass: 236.09094
SMILES: O=C3/N=C\Nc1c3ncn1[C@@H]2O[C@@H](CC2)CO
InChI: InChI=1S/C10H12N4O3/c15-3-6-1-2-7(17-6)14-5-13-8-9(14)11-4-12-10(8)16/h4-7,15H,1-3H2,(H,11,12,16)/t6-,7+/m0/s1
Instrument: Q Exactive Orbitrap Thermo Scientific
Instrument type: LC-ESI-QFT
Ms type: MS2
Ion mode: NEGATIVE
Ionization: ESI
Fragmentation mode: HCD
Collision energy: 75 (nominal)
Resolution: 35000
Column name: XBridge C18 3.5um, 2.1x50mm, Waters
Retention time: 2.3 min
Base peak: 235.0838
Precursor m/z: 235.0837
Precursor type: [M-H]-
m/z	relative intensity	assigned
64.0067	2	C3N2-
65.0145	10	C3HN2-
65.9984	8	C3NO-
66.0098	1	C2N3-
79.0176	1	C3HN3-
82.0411	2	C3H4N3-
92.0254	157	C4H2N3-
105.0458	9	C6H5N2-
106.0286	6	C4H2N4-
107.0126	4	C4HN3O-
108.0204	82	C4H2N3O-
118.0412	2	C6H4N3-
126.0309	97	C4H4N3O2-
131.049	4	C7H5N3-
132.0568	48	C7H6N3-
133.0156	1	C5HN4O-
133.0283	3	C6H3N3O-
134.0236	275	C5H2N4O-
135.0312	999	C5H3N4O-
145.052	1	C7H5N4-
148.0515	5	C7H6N3O-
159.0311	2	C7H3N4O-
161.047	1	C7H5N4O-
173.0467	2	C8H5N4O-
175.0624	26	C8H7N4O-
233.0681	2	C10H9N4O3-
235.0837	10	C10H11N4O3-
