Mass spectrum: Climbazol; LC-ESI-ITFT; MS2; CE: 75%; R=15000; [M+H]+
Name: Climbazol
Name: Climbazole
Name: 1-(4-chloranylphenoxy)-1-imidazol-1-yl-3,3-dimethyl-butan-2-one
Formula: C15H17ClN2O2
Exact mass: 292.0979
SMILES: CC(C)(C)C(=O)C(N1C=CN=C1)OC2=CC=C(C=C2)Cl
InChI: InChI=1S/C15H17ClN2O2/c1-15(2,3)13(19)14(18-9-8-17-10-18)20-12-6-4-11(16)5-7-12/h4-10,14H,1-3H3
Instrument: LTQ Orbitrap XL Thermo Scientific
Instrument type: LC-ESI-ITFT
Ms type: MS2
Ion mode: POSITIVE
Ionization: ESI
Fragmentation mode: HCD
Collision energy: 75 % (nominal)
Resolution: 15000
Column name: XBridge C18 3.5um, 2.1x50mm, Waters
Retention time: 8.1 min
Base peak: 293.1064
Precursor m/z: 293.1051
Precursor type: [M+H]+
m/z	relative intensity	assigned
55.0542	111	C4H7+
57.0698	611	C4H9+
67.0542	66	C5H7+
69.0698	999	C5H9+
70.0777	319	C5H10+
77.0386	113	C6H5+
81.0446	64	C4H5N2+
82.0524	108	C4H6N2+
91.0541	62	C7H7+
93.0334	34	C6H5O+
94.0411	53	C6H6O+
98.9995	823	C5H4Cl+
105.0447	35	C6H5N2+
109.0396	297	C5H5N2O+
110.9996	61	C6H4Cl+
113.0152	241	C6H6Cl+
121.0395	49	C6H5N2O+
126.9944	974	C6H4ClO+
129.0101	419	C6H6ClO+
139.0056	714	C6H4ClN2+
141.01	633	C7H6ClO+
155.0258	218	C8H8ClO+
175.0747	21	C11H11O2+
