Mass spectrum: Nicosulfuron-TP UCSN; LC-ESI-QFT; MS2; CE: 60%; R=17500; [M-H]-
Name: Nicosulfuron-TP UCSN
Name: 2-[(Carbamoylcarbamoyl)sulfamoyl]-N,N-dimethylnicotinamide
Formula: C10H13N5O5S
Exact mass: 315.0637
SMILES: CN(C)C(=O)C1=CC=CN=C1S(=O)(=O)NC(=O)NC(N)=O
InChI: InChI=1S/C10H13N5O5S/c1-15(2)8(16)6-4-3-5-12-7(6)21(19,20)14-10(18)13-9(11)17/h3-5H,1-2H3,(H4,11,13,14,17,18)
Instrument: Q Exactive Plus Orbitrap Thermo Scientific
Instrument type: LC-ESI-QFT
Ms type: MS2
Ion mode: NEGATIVE
Ionization: ESI
Fragmentation mode: HCD
Collision energy: 60 % (nominal)
Resolution: 17500
Column name: XBridge C18 3.5um, 2.1x50mm, Waters
Retention time: 1.525 min
Base peak: 314.0565
Precursor m/z: 314.0565
Precursor type: [M-H]-
m/z	relative intensity	assigned
55.03	25	C2H3N2-
58.0298	149	C2H4NO-
59.0248	39	CH3N2O-
61.9706	183	NOS-
63.9624	133	O2S-
70.0298	18	C3H4NO-
77.9656	75	NO2S-
78.9735	65	HNO2S-
79.981	72	H2NO2S-
81.0218	15	C4H3NO-
93.0458	612	C5H5N2-
94.0299	999	C5H4NO-
103.0302	211	C6H3N2-
108.0454	18	C6H6NO-
117.0455	50	C7H5N2-
119.0251	341	C6H3N2O-
119.0614	46	C7H7N2-
121.0408	182	C6H5N2O-
122.025	34	C6H4NO2-
131.0489	131	C7H5N3-
136.0877	34	C7H10N3-
138.0558	51	C7H8NO2-
141.9964	40	C5H4NO2S-
144.0569	25	C8H6N3-
146.0724	66	C8H8N3-
147.0437	143	C7H5N3O-
147.0564	90	C8H7N2O-
149.0595	417	C7H7N3O-
150.0434	220	C7H6N2O2-
162.0673	381	C8H8N3O-
163.0512	19	C8H7N2O2-
164.083	350	C8H10N3O-
165.0669	743	C8H9N2O2-
167.9993	37	C6H4N2O2S-
181.0077	277	C7H5N2O2S-
182.9869	628	C6H3N2O3S-
195.0116	24	C9H7O3S-
210.034	214	C8H8N3O2S-
228.0442	67	C8H10N3O3S-
