Mass spectrum: Metolachlor-TP NOA413173; LC-ESI-QFT; MS2; CE: 120%; R=17500; [M-H]-
Name: Metolachlor-TP NOA413173
Name: 2-(2-ethyl-6-methyl-N-(2-sulfoacetyl)anilino)propanoic acid
Formula: C14H19NO6S
Exact mass: 329.0933
SMILES: CCC1=C(N(C(C)C(O)=O)C(=O)CS(O)(=O)=O)C(C)=CC=C1
InChI: InChI=1S/C14H19NO6S/c1-4-11-7-5-6-9(2)13(11)15(10(3)14(17)18)12(16)8-22(19,20)21/h5-7,10H,4,8H2,1-3H3,(H,17,18)(H,19,20,21)
Instrument: Q Exactive Orbitrap Thermo Scientific
Instrument type: LC-ESI-QFT
Ms type: MS2
Ion mode: NEGATIVE
Ionization: ESI
Fragmentation mode: HCD
Collision energy: 120 % (nominal)
Resolution: 17500
Column name: XBridge C18 3.5um, 2.1x50mm, Waters
Retention time: 5.475 min
Base peak: 328.0861
Precursor m/z: 328.086
Precursor type: [M-H]-
m/z	relative intensity	assigned
63.9625	39	O2S-
76.9703	159	CHO2S-
79.9574	999	O3S-
80.9652	33	HO3S-
93.9733	11	CH2O3S-
144.0821	7	C10H10N-
