Mass spectrum: Isoxathion; LC-ESI-QFT; MS2; CE: 15%; R=17500; [M+H]+
Name: Isoxathion
Name: diethoxy-[(5-phenyl-1,2-oxazol-3-yl)oxy]-sulfanylidene-lambda5-phosphane
Formula: C13H16NO4PS
Exact mass: 313.0538
SMILES: CCOP(=S)(OCC)OC1=NOC(=C1)C2=CC=CC=C2
InChI: InChI=1S/C13H16NO4PS/c1-3-15-19(20,16-4-2)18-13-10-12(17-14-13)11-8-6-5-7-9-11/h5-10H,3-4H2,1-2H3
Instrument: Exploris 240 Orbitrap Thermo Scientific
Instrument type: LC-ESI-QFT
Ms type: MS2
Ion mode: POSITIVE
Ionization: ESI
Fragmentation mode: HCD
Collision energy: 15 % (nominal)
Resolution: 17500
Column name: XBridge C18 3.5um, 2.1x50mm, Waters
Retention time: 11.540 min
Base peak: 398.0878
Precursor m/z: 314.061
Precursor type: [M+H]+
m/z	relative intensity	assigned
105.0335	999	C7H5O+
160.0214	64	C9H6NS+
169.0085	59	C4H10O3PS+
170.0161	387	C4H11O3PS+
178.0321	250	C9H8NOS+
245.0039	69	C9H10O4PS+
257.9986	440	C9H9NO4PS+
286.0299	908	C11H13NO4PS+
