Mass spectrum: D617; LC-ESI-ITFT; MS2; CE: 90%; R=30000; [M+H]+
Name: D617
Name: Verapamil metabolite D617
Name: 2-(3,4-dimethoxyphenyl)-2-isopropyl-5-(methylamino)valeronitrile
Formula: C17H26N2O2
Exact mass: 290.1994
SMILES: CC(C)C(CCCNC)(C#N)C1=CC(=C(C=C1)OC)OC
InChI: InChI=1S/C17H26N2O2/c1-13(2)17(12-18,9-6-10-19-3)14-7-8-15(20-4)16(11-14)21-5/h7-8,11,13,19H,6,9-10H2,1-5H3
Instrument: LTQ Orbitrap XL Thermo Scientific
Instrument type: LC-ESI-ITFT
Ms type: MS2
Ion mode: POSITIVE
Ionization: ESI
Fragmentation mode: HCD
Collision energy: 90 % (nominal)
Resolution: 30000
Column name: XBridge C18 3.5um, 2.1x50mm, Waters
Retention time: 6.3 min
Base peak: 291.2077
Precursor m/z: 291.2067
Precursor type: [M+H]+
m/z	relative intensity	assigned
57.0573	16	C3H7N+
65.0386	35	C5H5+
67.0543	94	C5H7+
69.0699	17	C5H9+
70.0652	248	C4H8N+
72.0809	15	C4H10N+
77.0386	99	C6H5+
78.0465	45	C6H6+
79.0543	155	C6H7+
80.0495	41	C5H6N+
81.0573	25	C5H7N+
91.0543	243	C7H7+
93.0699	41	C7H9+
94.0415	18	C6H6O+
94.0652	57	C6H8N+
95.0492	232	C6H7O+
95.0856	50	C7H11+
96.0809	24	C6H10N+
103.0543	171	C8H7+
105.0336	15	C7H5O+
105.0699	175	C8H9+
106.0651	22	C7H8N+
107.0492	428	C7H7O+
107.0729	54	C7H9N+
108.057	177	C7H8O+
109.0284	28	C6H5O2+
109.0649	20	C7H9O+
115.0543	76	C9H7+
116.0621	31	C9H8+
117.0699	112	C9H9+
118.0412	46	C8H6O+
119.0492	88	C8H7O+
120.0567	21	C8H8O+
121.0648	267	C8H9O+
122.036	22	C7H6O2+
123.044	97	C7H7O2+
124.052	145	C7H8O2+
128.0495	27	C9H6N+
129.07	55	C10H9+
131.0492	165	C9H7O+
132.0572	25	C9H8O+
133.0648	130	C9H9O+
134.0727	146	C9H10O+
135.0441	290	C8H7O2+
135.0806	26	C9H11O+
136.0519	205	C8H8O2+
137.0597	212	C8H9O2+
138.0675	191	C8H10O2+
139.0754	38	C8H11O2+
144.057	66	C10H8O+
144.0808	83	C10H10N+
145.0648	115	C10H9O+
146.0601	231	C9H8NO+
146.0727	337	C10H10O+
146.0966	30	C10H12N+
147.0806	79	C10H11O+
149.0596	66	C9H9O2+
149.0961	21	C10H13O+
150.0676	208	C9H10O2+
151.0754	999	C9H11O2+
155.0604	20	C10H7N2+
156.0809	26	C11H10N+
158.0724	18	C11H10O+
158.0967	15	C11H12N+
159.068	66	C10H9NO+
159.0805	82	C11H11O+
160.0758	130	C10H10NO+
160.0883	119	C11H12O+
161.0598	68	C10H9O2+
161.096	47	C11H13O+
162.0677	40	C10H10O2+
163.0756	34	C10H11O2+
164.0832	30	C10H12O2+
165.091	187	C10H13O2+
172.0757	228	C11H10NO+
173.0837	29	C11H11NO+
173.0957	15	C12H13O+
174.0549	22	C10H8NO2+
174.0914	197	C11H12NO+
175.0625	27	C10H9NO2+
175.0755	22	C11H11O2+
176.0705	19	C10H10NO2+
176.0829	17	C11H12O2+
177.091	131	C11H13O2+
186.0913	49	C12H12NO+
187.0991	34	C12H13NO+
188.0708	79	C11H10NO2+
190.0865	32	C11H12NO2+
199.0994	27	C13H13NO+
202.0863	122	C12H12NO2+
203.094	59	C12H13NO2+
204.1019	46	C12H14NO2+
214.1226	62	C14H16NO+
216.1025	16	C13H14NO2+
233.1286	69	C13H17N2O2+
244.1328	14	C15H18NO2+
247.1441	16	C14H19N2O2+
