Mass spectrum: Chlorthiazide; LC-ESI-QFT; MS2; CE: 45; R=35000; [M-H]-
Name: Chlorthiazide
Name: 6-chloro-1,1-dioxo-4H-1$l^{6},2,4-benzothiadiazine-7-sulfonamide
Formula: C7H6ClN3O4S2
Exact mass: 294.94883
SMILES: C1=C2C(=CC(=C1Cl)S(=O)(=O)N)S(=O)(=O)NC=N2
InChI: InChI=1S/C7H6ClN3O4S2/c8-4-1-5-7(2-6(4)16(9,12)13)17(14,15)11-3-10-5/h1-3H,(H,10,11)(H2,9,12,13)
Instrument: Q Exactive Plus Orbitrap Thermo Scientific
Instrument type: LC-ESI-QFT
Ms type: MS2
Ion mode: NEGATIVE
Ionization: ESI
Fragmentation mode: HCD
Collision energy: 45 (nominal)
Resolution: 35000
Column name: XBridge C18 3.5um, 2.1x50mm, Waters
Retention time: 1.9 min
Base peak: 293.9414
Precursor m/z: 293.9415
Precursor type: [M-H]-
m/z	relative intensity	assigned
65.9986	6	C3NO-
77.9656	3	NO2S-
79.0063	1	C4HNO-
90.0223	6	C5H2N2-
91.0064	1	C5HNO-
106.0171	1	C5H2N2O-
118.0174	19	C6H2N2O-
119.0013	12	C6HNO2-
119.0251	2	C6H3N2O-
120.0091	7	C6H2NO2-
125.999	1	C5H3ClN2-
126.983	6	C5H2ClNO-
134.0121	1	C6H2N2O2-
142.9779	1	C5H2ClNO2-
146.0123	1	C7H2N2O2-
146.036	2	C7H4N3O-
147.0201	1	C7H3N2O2-
149.9983	1	C7H3ClN2-
151.0068	4	C7H4ClN2-
152.9862	5	C6H2ClN2O-
154.978	9	C6H2ClNO2-
166.0182	1	C7H5ClN3-
170.9729	1	C6H2ClNO3-
178.9918	3	C7H3N2O2S-
181.9792	11	C6H2N2O3S-
182.987	18	C6H3N2O3S-
192.9948	2	C7H3N3O2S-
209.9975	2	C7H4N3O3S-
210.9818	3	C7H3N2O4S-
213.9611	392	C7H3ClN2O2S-
214.9689	200	C7H4ClN2O2S-
216.9483	2	C6H2ClN2O3S-
229.9558	18	C7H3ClN2O3S-
229.9795	8	C7H5ClN3O2S-
257.9646	3	C7H4N3O4S2-
293.9416	999	C7H5ClN3O4S2-
