Mass spectrum: Fonofos; LC-ESI-QFT; MS2; CE: 75; R=35000; [M+H]+
Name: Fonofos
Name: ethoxy-ethyl-(phenylthio)-sulfanylidenephosphorane
Formula: C10H15OPS2
Exact mass: 246.03019
SMILES: S=P(Sc1ccccc1)(OCC)CC
InChI: InChI=1S/C10H15OPS2/c1-3-11-12(13,4-2)14-10-8-6-5-7-9-10/h5-9H,3-4H2,1-2H3
Instrument: Q Exactive Orbitrap Thermo Scientific
Instrument type: LC-ESI-QFT
Ms type: MS2
Ion mode: POSITIVE
Ionization: ESI
Fragmentation mode: HCD
Collision energy: 75 (nominal)
Resolution: 35000
Column name: XBridge C18 3.5um, 2.1x50mm, Waters
Retention time: 12.9 min
Base peak: 247.0377
Precursor m/z: 247.0375
Precursor type: [M+H]+
m/z	relative intensity	assigned
62.9453	426	PS+
64.9786	6	H2O2P+
77.0151	4	C2H6OP+
77.0385	1	C6H5+
78.0464	1	C6H6+
80.9558	679	H2OPS+
90.9765	16	C2H4PS+
94.9173	54	PS2+
95.0491	23	C6H7O+
105.0448	6	C6H5N2+
108.9871	694	C2H6OPS+
110.0184	3	C6H6S+
111.0262	47	C6H7S+
126.9977	999	C2H8O2PS+
137.0185	3	C4H10OPS+
138.9764	5	C6H4PS+
140.9591	1	C2H6OPS2+
141.0135	3	C3H10O2PS+
156.9873	1	C6H6OPS+
170.9485	6	C6H4PS2+
172.9643	4	C6H6PS2+
174.998	3	C6H8O2PS+
200.9961	4	C8H10PS2+
