Mass spectrum: Telmisartan; LC-ESI-ITFT; MS2; CE: 75%; R=7500; [M+H]+
Name: Telmisartan
Name: 4'-[(1,7'-dimethyl-2'-propyl-1H,3'H-2,5'-bibenzimidazol-3'-yl)methyl]biphenyl-2-carboxylic acid
Name: 2-[4-[[4-methyl-6-(1-methyl-2-benzimidazolyl)-2-propyl-1-benzimidazolyl]methyl]phenyl]benzoic acid
Formula: C33H30N4O2
Exact mass: 514.2369
SMILES: n1(c(nc2c1cccc2)c1cc(c2c(n(c(CCC)n2)Cc2ccc(cc2)c2c(cccc2)C(O)=O)c1)C)C
InChI: InChI=1S/C33H30N4O2/c1-4-9-30-35-31-21(2)18-24(32-34-27-12-7-8-13-28(27)36(32)3)19-29(31)37(30)20-22-14-16-23(17-15-22)25-10-5-6-11-26(25)33(38)39/h5-8,10-19H,4,9,20H2,1-3H3,(H,38,39)
Instrument: LTQ Orbitrap XL Thermo Scientific
Instrument type: LC-ESI-ITFT
Ms type: MS2
Ion mode: POSITIVE
Ionization: ESI
Fragmentation mode: HCD
Collision energy: 75 % (nominal)
Resolution: 7500
Column name: XBridge C18 3.5um, 2.1x50mm, Waters
Retention time: 9.2 min
Base peak: 515.2452
Precursor m/z: 515.2442
Precursor type: [M+H]+
m/z	relative intensity	assigned
79.0543	4	C6H7+
92.049	1	C6H6N+
105.0336	3	C7H5O+
106.0653	20	C7H8N+
115.0541	3	C9H7+
119.0604	2	C7H7N2+
128.0624	2	C10H8+
129.0704	3	C10H9+
131.0606	5	C8H7N2+
132.0679	2	C8H8N2+
133.0285	12	C8H5O2+
133.0761	6	C8H9N2+
141.0698	5	C11H9+
143.0601	3	C9H7N2+
144.068	2	C9H8N2+
145.0762	4	C9H9N2+
147.0546	1	C8H7N2O+
151.0536	1	C12H7+
152.0622	33	C12H8+
153.0701	11	C12H9+
155.0598	1	C10H7N2+
155.0857	27	C12H11+
157.0759	2	C10H9N2+
158.0836	3	C10H10N2+
165.0701	78	C13H9+
166.0784	11	C13H10+
167.0859	12	C13H11+
168.0573	7	C12H8O+
169.0763	1	C11H9N2+
170.0712	5	C10H8N3+
171.0916	3	C11H11N2+
181.0651	3	C13H9O+
183.0807	19	C13H11O+
184.0865	1	C11H10N3+
185.1072	1	C12H13N2+
193.0651	91	C14H9O+
211.0755	106	C14H11O2+
220.0866	7	C14H10N3+
221.1052	3	C12H15NO3+
222.1147	4	C15H14N2+
233.0942	3	C15H11N3+
234.103	12	C15H12N3+
235.1099	4	C15H13N3+
236.1184	1	C15H14N3+
244.0858	1	C16H10N3+
247.1097	11	C16H13N3+
248.1178	3	C16H14N3+
254.1052	4	C15H14N2O2+
259.0976	3	C16H11N4+
260.1059	29	C16H12N4+
261.1137	391	C18H15NO+
262.1209	33	C16H14N4+
273.1138	13	C17H13N4+
274.1219	43	C17H14N4+
275.1292	231	C17H15N4+
276.1374	999	C17H16N4+
277.1409	38	C12H17N6O2+
279.1013	4	C16H13N3O2+
287.1292	28	C18H15N4+
288.1365	19	C18H16N4+
289.1449	317	C18H17N4+
290.1487	14	C13H18N6O2+
301.1453	12	C19H17N4+
302.1521	11	C19H18N4+
303.1605	146	C19H19N4+
304.164	7	C14H20N6O2+
305.1759	40	C19H21N4+
317.1761	7	C20H21N4+
424.1701	1	C29H20N4+
441.208	3	C30H25N4+
451.1556	2	C30H19N4O+
452.1612	2	C30H20N4O+
453.1706	4	C30H21N4O+
455.1887	2	C32H25NO2+
465.1689	2	C31H21N4O+
467.1867	19	C31H23N4O+
468.1889	1	C26H24N6O3+
471.1819	4	C30H23N4O2+
485.1971	12	C31H25N4O2+
497.2589	6	C33H31N5+
