Mass spectrum: Galaxolidone; LC-ESI-ITFT; MS2; CE: 90%; R=7500; [M+H]+
Name: Galaxolidone
Name: 1,3,4,6,7,8-Hexahydro-4,6,6,7,8,8-hexamethylcyclopenta[g]-2-benzopyran-1-on
Formula: C18H24O2
Exact mass: 272.1776
SMILES: CC2(C)c1cc3C(=O)OCC(C)c3cc1C(C)(C)C2C
InChI: InChI=1S/C18H24O2/c1-10-9-20-16(19)13-8-15-14(7-12(10)13)17(3,4)11(2)18(15,5)6/h7-8,10-11H,9H2,1-6H3
Instrument: LTQ Orbitrap XL Thermo Scientific
Instrument type: LC-ESI-ITFT
Ms type: MS2
Ion mode: POSITIVE
Ionization: ESI
Fragmentation mode: HCD
Collision energy: 90 % (nominal)
Resolution: 7500
Column name: XBridge C18 3.5um, 2.1x50mm, Waters
Retention time: 14.7 min
Base peak: 295.1677
Precursor m/z: 273.1849
Precursor type: [M+H]+
m/z	relative intensity	assigned
91.054	17	C7H7+
115.0543	28	C9H7+
117.0697	19	C9H9+
128.062	57	C10H8+
129.0699	274	C10H9+
131.0859	16	C10H11+
133.1008	10	C10H13+
141.0697	41	C11H9+
142.0777	170	C11H10+
143.0856	32	C11H11+
155.0856	123	C12H11+
156.0934	49	C12H12+
157.0644	42	C11H9O+
157.1012	225	C12H13+
167.0848	31	C13H11+
168.0933	37	C13H12+
169.1011	96	C13H13+
170.109	16	C13H14+
171.1169	26	C13H15+
182.109	166	C14H14+
183.0796	23	C13H11O+
183.117	98	C14H15+
185.0959	45	C13H13O+
195.0801	13	C14H11O+
197.1325	999	C15H17+
198.1405	16	C15H18+
210.1039	131	C15H14O+
211.1118	52	C15H15O+
212.1559	241	C16H20+
215.1068	17	C14H15O2+
225.1274	977	C16H17O+
227.1797	9	C17H23+
239.1421	11	C17H19O+
240.1513	64	C17H20O+
245.1543	8	C16H21O2+
