Mass spectrum: Ethion; LC-ESI-QFT; MS2; CE: 45%; R=17500; [M+H]+
Name: Ethion
Name: diethoxyphosphinothioylsulfanylmethylsulfanyl-diethoxy-sulfanylidene-lambda5-phosphane
Formula: C9H22O4P2S4
Exact mass: 383.9876
SMILES: CCOP(=S)(OCC)SCSP(=S)(OCC)OCC
InChI: InChI=1S/C9H22O4P2S4/c1-5-10-14(16,11-6-2)18-9-19-15(17,12-7-3)13-8-4/h5-9H2,1-4H3
Instrument: Exploris 240 Orbitrap Thermo Scientific
Instrument type: LC-ESI-QFT
Ms type: MS2
Ion mode: POSITIVE
Ionization: ESI
Fragmentation mode: HCD
Collision energy: 45 % (nominal)
Resolution: 17500
Column name: XBridge C18 3.5um, 2.1x50mm, Waters
Retention time: 13.677 min
Base peak: 384.9948
Precursor m/z: 384.9949
Precursor type: [M+H]+
m/z	relative intensity	assigned
75.0262	9	C3H7S+
96.9508	400	H2O2PS+
110.9664	14	CH4O2PS+
114.9613	211	H4O3PS+
124.9821	197	C2H6O2PS+
126.9437	24	CH4OPS2+
128.9232	8	H2O2PS2+
142.9385	999	CH4O2PS2+
153.0132	69	C4H10O2PS+
156.9543	11	C2H6O2PS2+
170.9698	122	C3H8O2PS2+
174.9102	18	CH4O2PS3+
184.9851	13	C4H10O2PS2+
199.0018	9	C5H12O2PS2+
