Mass spectrum: Fenpropimorph; LC-ESI-ITFT; MS2; CE: 75%; R=15000; [M+H]+
Name: Fenpropimorph
Name: (2S,6R)-4-[3-(4-tert-butylphenyl)-2-methyl-propyl]-2,6-dimethyl-morpholine
Formula: C20H33NO
Exact mass: 303.2557
SMILES: CC1CN(CC(O1)C)CC(C)CC2=CC=C(C=C2)C(C)(C)C
InChI: InChI=1S/C20H33NO/c1-15(12-21-13-16(2)22-17(3)14-21)11-18-7-9-19(10-8-18)20(4,5)6/h7-10,15-17H,11-14H2,1-6H3/t15?,16-,17+
Instrument: LTQ Orbitrap XL Thermo Scientific
Instrument type: LC-ESI-ITFT
Ms type: MS2
Ion mode: POSITIVE
Ionization: ESI
Fragmentation mode: HCD
Collision energy: 75 % (nominal)
Resolution: 15000
Column name: XBridge C18 3.5um, 2.1x50mm, Waters
Retention time: 9.4 min
Base peak: 304.2639
Precursor m/z: 304.2635
Precursor type: [M+H]+
m/z	relative intensity	assigned
56.0494	9	C3H6N+
57.0698	60	C4H9+
58.0651	5	C3H8N+
59.0491	9	C3H7O+
70.0651	15	C4H8N+
72.0807	5	C4H10N+
79.054	6	C6H7+
81.0699	14	C6H9+
86.0966	4	C5H12N+
88.0757	6	C4H10NO+
91.0542	52	C7H7+
93.0698	5	C7H9+
98.0964	293	C6H12N+
102.0914	11	C5H12NO+
104.0622	4	C8H8+
105.0699	225	C8H9+
107.0855	41	C8H11+
112.1122	5	C7H14N+
116.107	74	C6H14NO+
117.0698	93	C9H9+
119.0855	298	C9H11+
130.1226	96	C7H16NO+
131.0852	16	C10H11+
132.0933	349	C10H12+
145.1011	16	C11H13+
146.1088	4	C11H14+
147.1168	999	C11H15+
159.1167	6	C12H15+
161.1324	26	C12H17+
