Mass spectrum: Mecarbam; LC-ESI-QFT; MS2; CE: 45%; R=17500; [M+H]+
Name: Mecarbam
Name: ethyl N-(2-diethoxyphosphinothioylsulfanylacetyl)-N-methylcarbamate
Formula: C10H20NO5PS2
Exact mass: 329.0521
SMILES: CCOC(=O)N(C)C(=O)CSP(=S)(OCC)OCC
InChI: InChI=1S/C10H20NO5PS2/c1-5-14-10(13)11(4)9(12)8-19-17(18,15-6-2)16-7-3/h5-8H2,1-4H3
Instrument: Exploris 240 Orbitrap Thermo Scientific
Instrument type: LC-ESI-QFT
Ms type: MS2
Ion mode: POSITIVE
Ionization: ESI
Fragmentation mode: HCD
Collision energy: 45 % (nominal)
Resolution: 17500
Column name: XBridge C18 3.5um, 2.1x50mm, Waters
Retention time: 9.793 min
Base peak: 243.0634
Precursor m/z: 330.0593
Precursor type: [M+H]+
m/z	relative intensity	assigned
58.0289	29	C2H4NO+
75.0263	14	C3H7S+
96.9507	521	H2O2PS+
110.9666	16	CH4O2PS+
114.9613	305	H4O3PS+
116.0341	678	C4H6NO3+
124.9819	323	C2H6O2PS+
126.9437	28	CH4OPS2+
128.9226	138	H2O2PS2+
128.9769	25	CH6O3PS+
132.0112	73	C4H6NO2S+
142.9383	999	CH4O2PS2+
144.0654	15	C6H10NO3+
153.0132	258	C4H10O2PS+
156.954	183	C2H6O2PS2+
170.9333	223	C2H4O3PS2+
170.9697	299	C3H8O2PS2+
171.0237	36	C10H6NP+
184.9854	130	C4H10O2PS2+
198.9649	99	C10H2NPS+
199.001	84	C5H12O2PS2+
226.9966	12	C6H12O3PS2+
