Mass spectrum: Trimethoprim; LC-ESI-ITFT; MS2; CE: 35%; R=7500; [M+H]+
Name: Trimethoprim
Name: 2,4-Diamino-5-(3,4,5-trimethoxybenzyl)pyrimidine
Name: 5-[(3,4,5-trimethoxyphenyl)methyl]pyrimidine-2,4-diamine
Formula: C14H18N4O3
Exact mass: 290.1379
SMILES: c1(Cc2c(nc(N)nc2)N)cc(c(OC)c(c1)OC)OC
InChI: InChI=1S/C14H18N4O3/c1-19-10-5-8(6-11(20-2)12(10)21-3)4-9-7-17-14(16)18-13(9)15/h5-7H,4H2,1-3H3,(H4,15,16,17,18)
Instrument: LTQ Orbitrap XL Thermo Scientific
Instrument type: LC-ESI-ITFT
Ms type: MS2
Ion mode: POSITIVE
Ionization: ESI
Fragmentation mode: CID
Collision energy: 35 % (nominal)
Resolution: 7500
Column name: XBridge C18 3.5um, 2.1x50mm, Waters
Retention time: 3.8 min
Base peak: 291.1463
Precursor m/z: 291.1452
Precursor type: [M+H]+
m/z	relative intensity	assigned
110.0585	3	C4H6N4+
123.0667	637	C5H7N4+
181.0861	104	C10H13O3+
201.077	4	C10H9N4O+
202.1221	5	C11H14N4+
230.1166	999	C12H14N4O+
232.096	13	C11H12N4O2+
245.1034	62	C12H13N4O2+
246.1121	10	C12H14N4O2+
247.119	43	C12H15N4O2+
258.1113	389	C13H14N4O2+
259.1183	11	C13H15N4O2+
260.1266	29	C13H16N4O2+
261.0985	442	C12H13N4O3+
275.1141	245	C13H15N4O3+
276.1218	237	C13H16N4O3+
