Mass spectrum: Dexamethasone acetate; LC-ESI-QFT; MS2; CE: 30; R=35000; [M+H]+
Name: Dexamethasone acetate
Name: Dexamethason-21-acetate
Name: [2-(9-fluoro-11,17-dihydroxy-10,13,16-trimethyl-3-oxo-6,7,8,11,12,14,15,16-octahydrocyclopenta[a]phenanthren-17-yl)-2-oxoethyl] acetate
Formula: C24H31FO6
Exact mass: 434.21047
SMILES: CC1CC2C3CCC4=CC(=O)C=CC4(C3(C(CC2(C1(C(=O)COC(=O)C)O)C)O)F)C
InChI: InChI=1S/C24H31FO6/c1-13-9-18-17-6-5-15-10-16(27)7-8-21(15,3)23(17,25)19(28)11-22(18,4)24(13,30)20(29)12-31-14(2)26/h7-8,10,13,17-19,28,30H,5-6,9,11-12H2,1-4H3
Instrument: Q Exactive Plus Orbitrap Thermo Scientific
Instrument type: LC-ESI-QFT
Ms type: MS2
Ion mode: POSITIVE
Ionization: ESI
Fragmentation mode: HCD
Collision energy: 30 (nominal)
Resolution: 35000
Column name: XBridge C18 3.5um, 2.1x50mm, Waters
Retention time: 10.2 min
Base peak: 435.2176
Precursor m/z: 435.2177
Precursor type: [M+H]+
m/z	relative intensity	assigned
55.0542	4	C4H7+
57.0334	9	C3H5O+
57.07	2	C4H9+
59.0491	4	C3H7O+
61.0284	55	C2H5O2+
67.0542	8	C5H7+
69.0335	28	C4H5O+
69.0698	23	C5H9+
71.0491	4	C4H7O+
75.0441	2	C3H7O2+
79.0541	2	C6H7+
81.0699	25	C6H9+
83.0491	18	C5H7O+
83.0856	4	C6H11+
85.0648	14	C5H9O+
91.0542	13	C7H7+
93.0699	44	C7H9+
95.0491	35	C6H7O+
95.0855	62	C7H11+
97.0649	51	C6H9O+
99.044	7	C5H7O2+
99.0804	4	C6H11O+
101.0234	199	C4H5O3+
101.0597	23	C5H9O2+
103.0389	4	C4H7O3+
105.0699	35	C8H9+
107.0855	195	C8H11+
109.0649	42	C7H9O+
109.1012	54	C8H13+
111.044	2	C6H7O2+
111.0805	26	C7H11O+
113.0597	23	C6H9O2+
115.0539	2	C9H7+
115.0755	42	C6H11O2+
117.0547	17	C5H9O3+
117.0699	2	C9H9+
119.0492	3	C8H7O+
119.0856	76	C9H11+
121.0648	169	C8H9O+
121.1012	98	C9H13+
123.044	4	C7H7O2+
123.0804	66	C8H11O+
123.1168	38	C9H15+
125.0398	2	C7H6FO+
125.0598	30	C7H9O2+
125.0962	42	C8H13O+
127.0753	13	C7H11O2+
129.0701	3	C10H9+
131.0856	59	C10H11+
133.0649	44	C9H9O+
133.1012	90	C10H13+
135.0805	224	C9H11O+
137.0597	11	C8H9O2+
137.0961	68	C9H13O+
139.0754	22	C8H11O2+
139.1118	10	C9H15O+
143.0857	25	C11H11+
145.0649	35	C10H9O+
145.1012	36	C11H13+
147.0805	865	C10H11O+
149.0962	233	C10H13O+
151.0754	30	C9H11O2+
151.1118	50	C10H15O+
153.091	114	C9H13O2+
155.0704	12	C8H11O3+
155.0857	10	C12H11+
157.0863	2	C8H13O3+
157.101	16	C12H13+
159.0805	204	C11H11O+
161.0599	37	C10H9O2+
161.0962	237	C11H13O+
163.0754	29	C10H11O2+
163.1117	48	C11H15O+
165.091	14	C10H13O2+
167.0702	20	C9H11O3+
167.0859	4	C13H11+
167.1068	58	C10H15O2+
169.0649	39	C12H9O+
169.086	11	C9H13O3+
169.1012	8	C13H13+
171.0805	352	C12H11O+
173.0962	289	C12H13O+
175.0756	25	C11H11O2+
175.1119	35	C12H15O+
177.0911	146	C11H13O2+
179.0863	6	C14H11+
179.1066	13	C11H15O2+
181.0647	2	C13H9O+
181.0857	2	C10H13O3+
181.1017	3	C14H13+
183.0804	46	C13H11O+
183.117	15	C14H15+
185.06	15	
185.0962	282	C13H13O+
187.0754	217	C12H11O2+
187.1118	98	C13H15O+
189.091	32	C12H13O2+
191.1068	8	C12H15O2+
193.0861	29	C11H13O3+
193.1011	8	C15H13+
194.1095	2	C15H14+
195.0803	20	C14H11O+
195.1017	49	C11H15O3+
195.1171	8	C15H15+
196.0883	10	C14H12O+
197.0962	121	C14H13O+
197.1326	8	C15H17+
198.1035	3	C14H14O+
199.0756	17	C13H11O2+
199.1118	84	C14H15O+
201.091	18	C13H13O2+
201.1276	29	C14H17O+
203.1067	24	C13H15O2+
204.0935	3	C16H12+
205.1015	2	C16H13+
207.0799	2	C15H11O+
207.1166	6	C16H15+
208.089	5	C15H12O+
209.0963	76	C15H13O+
209.1171	7	C12H17O3+
209.1325	25	C16H17+
210.1039	15	C15H14O+
211.1119	291	C15H15O+
212.1195	30	C15H16O+
213.0913	32	C14H13O2+
213.1276	162	C15H17O+
215.1067	44	C14H15O2+
215.1432	12	C15H19O+
219.1019	4	C13H15O3+
219.1171	28	C17H15+
221.0962	115	C16H13O+
221.1321	19	C17H17+
222.1041	58	C16H14O+
223.1119	210	C16H15O+
224.1195	24	C16H16O+
225.0911	22	C15H13O2+
225.1275	258	C16H17O+
226.1353	3	C16H18O+
227.107	35	C15H15O2+
227.1431	635	C16H19O+
229.1226	10	C15H17O2+
233.0963	13	C17H13O+
233.1326	9	C18H17+
234.1035	3	C17H14O+
235.1119	303	C17H15O+
235.148	15	C18H19+
236.1197	21	C17H16O+
237.1275	999	C17H17O+
238.1353	8	C17H18O+
239.1068	61	C16H15O2+
239.1431	237	C17H19O+
241.1223	105	C16H17O2+
241.1588	9	C17H21O+
243.1026	4	C12H16FO4+
243.117	2	C19H15+
244.1252	4	C19H16+
245.0959	8	C18H13O+
245.133	4	C19H17+
246.1041	8	C18H14O+
247.1115	18	C18H15O+
247.1485	2	C19H19+
248.1197	23	C18H16O+
249.1276	137	C18H17O+
249.1632	20	C19H21+
250.1353	8	C18H18O+
251.1073	20	C17H15O2+
251.1432	202	C18H19O+
252.151	2	C18H20O+
253.1225	172	C17H17O2+
253.1588	325	C18H21O+
255.1381	130	C17H19O2+
257.1336	22	C20H17+
258.1402	8	C20H18+
259.1118	39	C19H15O+
259.1477	20	C20H19+
260.1198	25	C19H16O+
261.1274	106	C19H17O+
261.1642	8	C20H21+
262.1352	49	C19H18O+
263.1068	24	C18H15O2+
263.1432	186	C19H19O+
263.1796	12	C20H23+
264.115	2	C18H16O2+
264.1512	7	C19H20O+
265.1226	13	C18H17O2+
265.1588	90	C19H21O+
267.1381	100	C18H19O2+
267.1745	99	C19H23O+
271.1107	3	C20H15O+
272.1195	29	C20H16O+
273.1275	18	C20H17O+
273.1638	37	C21H21+
274.1351	2	C20H18O+
275.1431	145	C20H19O+
276.151	87	C20H20O+
277.1231	52	C16H18FO3+
277.1588	380	C20H21O+
278.1667	55	C20H22O+
279.1387	44	C16H20FO3+
279.1744	233	C20H23O+
281.1538	30	C16H22FO3+
281.19	113	C20H25O+
283.1347	2	C15H20FO4+
286.1355	62	C21H18O+
289.1589	52	C21H21O+
290.1306	17	C20H18O2+
291.1744	759	C21H23O+
293.1537	35	C20H21O2+
294.1617	11	C20H22O2+
295.1335	25	C16H20FO4+
295.1694	117	C20H23O2+
296.1767	11	C20H24O2+
297.149	4	C19H21O3+
297.1848	25	C20H25O2+
301.1589	375	C22H21O+
304.1461	30	C21H20O2+
306.1615	10	
307.1694	95	C21H23O2+
309.185	411	C21H25O2+
311.164	14	C20H23O3+
311.1807	4	C21H24FO+
315.1738	2	C23H23O+
319.1695	553	C22H23O2+
321.1656	4	C22H22FO+
325.1799	55	C21H25O3+
327.1956	86	C21H27O3+
337.18	363	C22H25O3+
339.1763	12	C22H24FO2+
351.1958	50	C23H27O3+
353.1741	2	C22H25O4+
355.1905	111	C22H27O4+
357.187	9	C22H26FO3+
361.1805	25	
373.2013	4	C22H29O5+
379.1905	77	C24H27O4+
397.201	105	C24H29O5+
435.2178	35	C24H32FO6+
