Mass spectrum: Cetirizine N-Oxide; LC-ESI-QFT; MS2; CE: 90; R=35000; [M+H]+
Name: Cetirizine N-Oxide
Name: (R)-Cetirizine N-Oxide
Name: 2-[2-[4-[(4-chlorophenyl)-phenylmethyl]-1-oxidopiperazin-1-ium-1-yl]ethoxy]acetic acid
Formula: C21H25ClN2O4
Exact mass: 404.15028
SMILES: C1C[N+](CCN1C(C2=CC=CC=C2)C3=CC=C(C=C3)Cl)(CCOCC(=O)O)[O-]
InChI: InChI=1S/C21H25ClN2O4/c22-19-8-6-18(7-9-19)21(17-4-2-1-3-5-17)23-10-12-24(27,13-11-23)14-15-28-16-20(25)26/h1-9,21H,10-16H2,(H,25,26)
Instrument: Q Exactive Plus Orbitrap Thermo Scientific
Instrument type: LC-ESI-QFT
Ms type: MS2
Ion mode: POSITIVE
Ionization: ESI
Fragmentation mode: HCD
Collision energy: 90 (nominal)
Resolution: 35000
Column name: XBridge C18 3.5um, 2.1x50mm, Waters
Retention time: 9.4 min
Base peak: 405.1573
Precursor m/z: 405.1576
Precursor type: [M+H]+
m/z	relative intensity	assigned
56.0495	45	C3H6N+
58.0651	20	C3H8N+
63.0228	1	C5H3+
65.0385	1	C5H5+
68.0494	6	C4H6N+
70.0286	1	C3H4NO+
70.0651	27	C4H8N+
71.0602	1	C3H7N2+
72.0807	3	C4H10N+
75.0228	1	C6H3+
77.0384	1	C6H5+
78.0464	8	C6H6+
79.0541	2	C6H7+
82.0652	3	C5H8N+
83.0603	8	C4H7N2+
84.0443	1	C4H6NO+
84.0682	12	C4H8N2+
84.0808	2	C5H10N+
86.06	20	C4H8NO+
86.0964	2	C5H12N+
89.0384	1	C7H5+
91.0542	8	C7H7+
95.0492	2	C6H7O+
97.076	3	C5H9N2+
98.06	2	C5H8NO+
98.0839	5	C5H10N2+
99.0917	21	C5H11N2+
100.0757	1	C5H10NO+
102.0463	3	C8H6+
103.0389	3	C4H7O3+
103.0542	30	C8H7+
104.0495	4	C7H6N+
104.062	10	C8H8+
105.0447	1	C6H5N2+
105.0698	6	C8H9+
111.0916	1	C6H11N2+
112.0075	1	C6H5Cl+
115.0541	3	C9H7+
116.0495	20	C8H6N+
125.0153	6	C7H6Cl+
128.0494	15	C9H6N+
129.0446	1	C8H5N2+
130.0651	5	C9H8N+
132.0656	1	C5H10NO3+
134.0603	1	C5H11ClN2+
137.0152	7	C8H6Cl+
138.0105	5	C7H5ClN+
138.0231	2	C8H7Cl+
139.0306	2	C8H8Cl+
139.0539	3	C11H7+
146.0599	5	C9H8NO+
150.0105	1	C8H5ClN+
152.0619	5	C12H8+
153.0698	1	C12H9+
162.0109	2	C9H5ClN+
164.026	2	C9H7ClN+
164.0619	9	C13H8+
165.0699	999	C13H9+
166.0776	862	C13H10+
168.0566	3	C12H8O+
178.0777	15	C14H10+
179.0854	11	C14H11+
180.0212	1	C9H7ClNO+
180.0933	1	C14H12+
183.0804	8	C13H11O+
192.0808	2	C14H10N+
193.0761	12	C13H9N2+
193.0886	36	C14H11N+
199.0309	23	C13H8Cl+
201.0465	55	C13H10Cl+
204.0809	1	C15H10N+
205.0887	1	C15H11N+
206.0965	7	C15H12N+
207.1043	1	C15H13N+
216.0576	1	C13H11ClN+
227.0495	4	C14H10ClN+
228.0574	43	C14H11ClN+
240.0574	15	C15H11ClN+
242.0729	2	C15H13ClN+
