Mass spectrum: Chlorthal-dimethyl; LC-ESI-QFT; MS2; CE: 75; R=35000; [M+H]+
Name: Chlorthal-dimethyl
Name: Dimethyl 2,3,5,6-tetrachloroterephthalate
Name: Dimethyl 2,3,5,6-tetrachlorobenzene-1,4-dicarboxylate
Formula: C10H6Cl4O4
Exact mass: 329.90202
SMILES: COC(=O)C1=C(C(=C(C(=C1Cl)Cl)C(=O)OC)Cl)Cl
InChI: InChI=1S/C10H6Cl4O4/c1-17-9(15)3-5(11)7(13)4(10(16)18-2)8(14)6(3)12/h1-2H3
Instrument: Q Exactive Plus Orbitrap Thermo Scientific
Instrument type: LC-ESI-QFT
Ms type: MS2
Ion mode: POSITIVE
Ionization: ESI
Fragmentation mode: HCD
Collision energy: 75 (nominal)
Resolution: 35000
Column name: XBridge C18 3.5um, 2.1x50mm, Waters
Retention time: 13.4 min
Base peak: 245.1745
Precursor m/z: 330.9093
Precursor type: [M+H]+
m/z	relative intensity	assigned
55.0543	7	C4H7+
67.0543	7	C5H7+
77.0153	1	C3H6Cl+
79.0543	6	C6H7+
83.0492	2	C5H7O+
86.9633	2	C3ClO+
91.0544	6	C7H7+
98.9843	999	CH4ClO3+
102.9584	2	C3ClO2+
117.9372	4	C4Cl2+
140.9063	4	C3Cl3+
152.9062	10	C4Cl3+
156.9609	6	C7H3Cl2+
164.9062	24	C5Cl3+
166.9217	4	C5H2Cl3+
172.9558	1	C7H3Cl2O+
177.9143	2	C6HCl3+
178.9215	3	C6H2Cl3+
179.9297	14	C6H3Cl3+
190.9221	2	C7H2Cl3+
191.9299	2	C7H3Cl3+
192.9373	1	C7H4Cl3+
193.9089	1	C6HCl3O+
199.8751	2	C5Cl4+
206.9171	1	C7H2Cl3O+
206.9283	1	C6H2Cl3N2+
212.883	7	C6HCl4+
214.8987	1	C6H3Cl4+
220.8962	156	C7Cl3O2+
227.8702	21	C6Cl4O+
240.8777	15	C7HCl4O+
240.8893	13	C6HCl4N2+
255.8651	23	C7Cl4O2+
270.8885	13	C8H3Cl4O2+
271.8603	4	C7Cl4O3+
298.8835	2	C9H3Cl4O3+
