Mass spectrum: Thiamphenicol; LC-ESI-QFT; MS2; CE: 120; R=35000; [M-H]-
Name: Thiamphenicol
Name: 2,2-dichloro-N-[1,3-dihydroxy-1-(4-methylsulfonylphenyl)propan-2-yl]acetamide
Formula: C12H15Cl2NO5S
Exact mass: 355.00480
SMILES: CS(=O)(=O)C1=CC=C(C=C1)C(C(CO)NC(=O)C(Cl)Cl)O
InChI: InChI=1S/C12H15Cl2NO5S/c1-21(19,20)8-4-2-7(3-5-8)10(17)9(6-16)15-12(18)11(13)14/h2-5,9-11,16-17H,6H2,1H3,(H,15,18)
Instrument: Q Exactive Plus Orbitrap Thermo Scientific
Instrument type: LC-ESI-QFT
Ms type: MS2
Ion mode: NEGATIVE
Ionization: ESI
Fragmentation mode: HCD
Collision energy: 120 (nominal)
Resolution: 35000
Column name: XBridge C18 3.5um, 2.1x50mm, Waters
Retention time: 3.5 min
Base peak: 353.9974
Precursor m/z: 353.9975
Precursor type: [M-H]-
m/z	relative intensity	assigned
56.9804	1	C2HS-
63.9625	999	O2S-
77.0398	3	C6H5-
78.986	191	CH3O2S-
82.9461	15	CHCl2-
84.0092	3	C3H2NO2-
91.019	8	C6H3O-
92.0267	5	C6H4O-
93.0346	10	C6H5O-
95.0139	1	C5H3O2-
105.0346	59	C7H5O-
108.0218	6	C6H4O2-
117.0348	1	C8H5O-
119.0503	15	C8H7O-
121.0296	331	C7H5O2-
123.0453	4	C7H7O2-
131.0376	1	C8H5NO-
139.9937	1	C6H4O2S-
145.0297	4	C9H5O2-
148.0407	1	C8H6NO2-
149.0246	9	C8H5O3-
168.9968	4	C7H5O3S-
