Mass spectrum: Marbofloxacin; LC-ESI-QFT; MS2; CE: 30; R=35000; [M+H]+
Name: Marbofloxacin
Name: 9-Fluoro-3-methyl-10-(4-methyl-1-piperazinyl)-7-oxo-2,3-dihydro-7H-[1,3,4]oxadiazino[6,5,4-ij]quinoline-6-carboxylic acid
Formula: C17H19FN4O4
Exact mass: 362.13903
SMILES: CN1CCN(CC1)C2=C(C=C3C4=C2OCN(N4C=C(C3=O)C(=O)O)C)F
InChI: InChI=1S/C17H19FN4O4/c1-19-3-5-21(6-4-19)14-12(18)7-10-13-16(14)26-9-20(2)22(13)8-11(15(10)23)17(24)25/h7-8H,3-6,9H2,1-2H3,(H,24,25)
Instrument: Q Exactive Plus Orbitrap Thermo Scientific
Instrument type: LC-ESI-QFT
Ms type: MS2
Ion mode: POSITIVE
Ionization: ESI
Fragmentation mode: HCD
Collision energy: 30 (nominal)
Resolution: 35000
Column name: XBridge C18 3.5um, 2.1x50mm, Waters
Retention time: 3.7 min
Base peak: 363.1454
Precursor m/z: 363.1463
Precursor type: [M+H]+
m/z	relative intensity	assigned
56.0495	3	C3H6N+
57.0573	2	C3H7N+
58.0651	1	C3H8N+
70.0651	69	C4H8N+
72.0807	999	C4H10N+
82.0651	1	C5H8N+
85.076	5	C4H9N2+
192.0455	2	C10H7FNO2+
204.0457	1	C11H7FNO2+
205.0409	4	C10H6FN2O2+
213.0659	1	C12H9N2O2+
219.0565	4	C11H8FN2O2+
233.072	20	C12H10FN2O2+
249.0302	1	C11H6FN2O4+
261.0909	2	C13H12FN3O2+
276.1143	29	C14H15FN3O2+
277.0618	50	C13H10FN2O4+
302.0937	2	C15H13FN3O3+
320.104	221	C15H15FN3O4+
345.1356	83	C17H18FN4O3+
363.1461	176	C17H20FN4O4+
