Mass spectrum: Atrazine-desethyl-2-hydroxy; LC-ESI-ITFT; MS2; CE: 45%; R=7500; [M-H]-
Name: Atrazine-desethyl-2-hydroxy
Name: 2-amino-6-(isopropylamino)-1H-s-triazin-4-one
Name: Prometon-Hydroxy-Desisopropyl
Formula: C6H11N5O
Exact mass: 169.0964
SMILES: n(c(nc1NC(C)C)O)c(n1)N
InChI: InChI=1S/C6H11N5O/c1-3(2)8-5-9-4(7)10-6(12)11-5/h3H,1-2H3,(H4,7,8,9,10,11,12)
Instrument: LTQ Orbitrap XL Thermo Scientific
Instrument type: LC-ESI-ITFT
Ms type: MS2
Ion mode: NEGATIVE
Ionization: ESI
Fragmentation mode: HCD
Collision energy: 45 % (nominal)
Resolution: 7500
Column name: XBridge C18 3.5um, 2.1x50mm, Waters
Retention time: 1.5 min
Base peak: 168.0898
Precursor m/z: 168.0891
Precursor type: [M-H]-
m/z	relative intensity	assigned
83.0367	74	C2H3N4-
83.0614	338	C4H7N2-
125.0833	855	C5H9N4-
126.042	139	C3H4N5O-
168.089	999	C6H10N5O-
