Mass spectrum: Fenthion-sulfone; LC-ESI-QFT; MS2; CE: 90; R=35000; [M+H]+
Name: Fenthion-sulfone
Name: Fenthione sulphone
Name: O,O-Dimethyl O-[3-methyl-4-(methylsulfonyl)phenyl] phosphorothioate
Formula: C10H15O5PS2
Exact mass: 310.00985
SMILES: CC1=C(C=CC(=C1)OP(=S)(OC)OC)S(=O)(=O)C
InChI: InChI=1S/C10H15O5PS2/c1-8-7-9(15-16(17,13-2)14-3)5-6-10(8)18(4,11)12/h5-7H,1-4H3
Instrument: Q Exactive Plus Orbitrap Thermo Scientific
Instrument type: LC-ESI-QFT
Ms type: MS2
Ion mode: POSITIVE
Ionization: ESI
Fragmentation mode: HCD
Collision energy: 90 (nominal)
Resolution: 35000
Column name: XBridge C18 3.5um, 2.1x50mm, Waters
Retention time: 7.8 min
Base peak: 311.0163
Precursor m/z: 311.0171
Precursor type: [M+H]+
m/z	relative intensity	assigned
50.015	10	C4H2+
51.0229	10	C4H3+
52.0308	1	C4H4+
53.0022	4	C3HO+
53.0386	39	C4H5+
55.0178	17	C3H3O+
55.0542	3	C4H7+
57.9871	4	C2H2S+
58.995	9	C2H3S+
59.9664	20	COS+
61.0106	1	C2H5S+
62.0185	84	C2H6S+
62.9453	75	PS+
62.9899	32	CH3OS+
62.9994	22	CH4OP+
63.0228	9	C5H3+
63.9435	1	S2+
65.0386	256	C5H5+
66.0464	84	C5H6+
67.0542	124	C5H7+
67.9892	1	C3O2+
68.9793	6	C3HS+
70.995	17	C3H3S+
73.0105	1	C3H5S+
74.9899	1	C2H3OS+
77.0385	105	C6H5+
78.0134	8	C2H6OS+
78.0464	163	C6H6+
78.9943	999	CH4O2P+
79.0542	148	C6H7+
80.0621	3	C6H8+
81.01	5	CH6O2P+
81.0335	6	C5H5O+
81.9871	2	C4H2S+
82.9949	1	C4H3S+
84.0028	13	C4H4S+
84.9742	5	C3HOS+
85.0106	10	C4H5S+
89.0385	47	C7H5+
90.0465	15	C7H6+
91.0542	300	C7H7+
92.062	40	C7H8+
93.01	56	C2H6O2P+
93.0335	25	C6H5O+
93.0698	24	C7H9+
94.0413	119	C6H6O+
95.0491	232	C6H7O+
96.0028	2	C5H4S+
96.0123	1	C5H5P+
97.005	30	CH6O3P+
97.0106	55	C5H5S+
98.0184	10	C5H6S+
98.9841	7	H4O4P+
99.0264	3	C5H7S+
102.0463	1	C8H6+
103.0542	86	C8H7+
104.062	32	C8H8+
105.0335	37	C7H5O+
105.0447	88	C6H5N2+
105.0699	128	C8H9+
106.0413	15	C7H6O+
107.0045	18	C6H4P+
107.0126	5	C6H3O2+
107.0491	64	C7H7O+
108.0028	23	C6H4S+
108.0122	4	C6H5P+
108.0569	12	C7H8O+
109.0047	4	C2H6O3P+
109.0106	56	C6H5S+
109.0648	5	C7H9O+
110.0185	27	C6H6S+
110.9899	5	C5H3OS+
111.0263	102	C6H7S+
112.9997	2	CH6O4P+
113.0152	1	C5H6OP+
119.0493	8	C8H7O+
119.0606	1	C7H7N2+
121.0106	157	C7H5S+
121.0283	13	C7H5O2+
121.0647	21	C8H9O+
122.0185	58	C7H6S+
122.0362	5	C7H6O2+
123.0263	84	C7H7S+
123.0441	8	C7H7O2+
123.9978	1	C6H4OS+
124.0341	18	C7H8S+
124.9821	152	C2H6O2PS+
126.0135	7	C6H6OS+
127.0154	472	C2H8O4P+
128.9769	12	CH6O3PS+
134.0184	4	C8H6S+
135.0262	46	C8H7S+
135.9975	3	C7H4OS+
136.0075	1	C7H5OP+
136.034	4	C8H8S+
137.0056	55	C7H5OS+
137.0145	12	C7H6OP+
137.0419	16	C8H9S+
138.0133	13	C7H6OS+
138.0496	2	C8H10S+
138.9766	18	C6H4PS+
139.0212	188	C7H7OS+
139.9843	59	C6H5PS+
141.0311	1	C3H10O4P+
142.9926	243	C2H8O3PS+
151.9844	25	C7H5PS+
152.0291	1	C8H8OS+
152.9827	1	C7H5S2+
152.9924	5	C7H6PS+
153.0003	2	C7H5O2S+
153.0099	6	C7H6O2P+
154.0083	4	C7H6O2S+
154.9715	39	C6H4OPS+
157.0083	5	C3H10O3PS+
159.0201	1	C6H8O3P+
166.9718	1	C7H4OPS+
167.0255	1	C8H8O2P+
167.9793	105	C7H5OPS+
168.9871	339	C7H6OPS+
169.995	19	C7H7OPS+
170.9484	1	C6H4PS2+
172.9821	1	C6H6O2PS+
182.9665	13	C7H4O2PS+
183.9739	1	C7H5O2PS+
184.9821	7	C7H6O2PS+
185.9898	6	C7H7O2PS+
186.9976	2	C7H8O2PS+
198.9438	1	C7H4OPS2+
200.0056	1	C8H9O2PS+
202.9923	10	C7H8O3PS+
216.0272	1	C9H12O2S2+
