Mass spectrum: Atenolol-desisopropyl; LC-ESI-QFT; MS2; CE: 90; R=35000; [M+H]+
Name: Atenolol-desisopropyl
Name: 4-(3-Amino-2-hydroxypropoxy)phenylacetamide
Formula: C11H16N2O3
Exact mass: 224.11609
SMILES: c1cc(ccc1CC(=O)N)OCC(CN)O
InChI: InChI=1S/C11H16N2O3/c12-6-9(14)7-16-10-3-1-8(2-4-10)5-11(13)15/h1-4,9,14H,5-7,12H2,(H2,13,15)
Instrument: Q Exactive Plus Orbitrap Thermo Scientific
Instrument type: LC-ESI-QFT
Ms type: MS2
Ion mode: POSITIVE
Ionization: ESI
Fragmentation mode: HCD
Collision energy: 90 (nominal)
Resolution: 35000
Column name: XBridge C18 3.5um, 2.1x50mm, Waters
Retention time: 1.0 min
Base peak: 225.1233
Precursor m/z: 225.1234
Precursor type: [M+H]+
m/z	relative intensity	assigned
50.0151	3	C4H2+
51.0228	8	C4H3+
53.0386	36	C4H5+
55.0179	20	C3H3O+
56.0495	995	C3H6N+
57.0335	21	C3H5O+
58.0651	12	C3H8N+
63.0229	16	C5H3+
65.0386	51	C5H5+
67.0417	1	C4H5N+
67.0543	2	C5H7+
74.06	629	C3H8NO+
77.0386	71	C6H5+
79.0542	422	C6H7+
80.0495	13	C5H6N+
81.0336	7	C5H5O+
89.0386	658	C7H5+
90.0463	1	C7H6+
91.0543	931	C7H7+
92.0495	3	C6H6N+
92.0619	1	C7H8+
93.0699	148	C7H9+
94.0652	36	C6H8N+
95.0492	158	C6H7O+
96.0444	8	C5H6NO+
102.0466	2	C8H6+
103.0543	125	C8H7+
104.0495	2	C7H6N+
104.062	13	C8H8+
105.0336	23	C7H5O+
105.0448	81	C6H5N2+
105.0699	416	C8H9+
106.0652	262	C7H8N+
107.0492	999	C7H7O+
108.081	2	C7H10N+
109.0648	2	C7H9O+
115.0543	667	C9H7+
116.0495	115	C8H6N+
116.0621	35	C9H8+
117.0335	85	C8H5O+
117.0573	47	C8H7N+
117.0699	405	C9H9+
118.0412	3	C8H6O+
119.0492	137	C8H7O+
120.057	3	C8H8O+
121.0648	81	C8H9O+
122.06	18	C7H8NO+
127.0542	24	C10H7+
128.0621	3	C10H8+
131.0492	33	C9H7O+
132.057	3	C9H8O+
133.0648	548	C9H9O+
134.06	158	C8H8NO+
135.0441	21	C8H7O2+
135.0552	11	C7H7N2O+
136.0755	3	C8H10NO+
137.0598	10	C8H9O2+
143.0731	2	C10H9N+
144.057	58	C10H8O+
144.0808	8	C10H10N+
145.0649	875	C10H9O+
147.044	22	C9H7O2+
152.0704	4	C8H10NO2+
155.0604	62	C10H7N2+
162.0661	24	C8H8N3O+
162.0918	2	C10H12NO+
