Mass spectrum: Rosuvastatin; LC-ESI-ITFT; MS2; CE: 45%; R=7500; [M+H]+
Name: Rosuvastatin
Name: (E,3R,5S)-7-[4-(4-fluorophenyl)-2-[methyl(methylsulfonyl)amino]-6-propan-2-ylpyrimidin-5-yl]-3,5-dihydroxyhept-6-enoic acid
Formula: C22H28FN3O6S
Exact mass: 481.16828
SMILES: CC(C)C1=NC(=NC(=C1/C=C/[C@H](C[C@H](CC(=O)O)O)O)C2=CC=C(C=C2)F)N(C)S(=O)(=O)C
InChI: InChI=1S/C22H28FN3O6S/c1-13(2)20-18(10-9-16(27)11-17(28)12-19(29)30)21(14-5-7-15(23)8-6-14)25-22(24-20)26(3)33(4,31)32/h5-10,13,16-17,27-28H,11-12H2,1-4H3,(H,29,30)/b10-9+/t16-,17-/m1/s1
Instrument: LTQ Orbitrap XL Thermo Scientific
Instrument type: LC-ESI-ITFT
Ms type: MS2
Ion mode: POSITIVE
Ionization: ESI
Fragmentation mode: HCD
Collision energy: 45 % (nominal)
Resolution: 7500
Column name: XBridge C18 3.5um, 2.1x50mm, Waters
Retention time: 9.2 min
Base peak: 482.1762
Precursor m/z: 482.1756
Precursor type: [M+H]+
m/z	relative intensity	assigned
151.1222	10	C9H15N2+
189.0821	90	C11H10FN2+
201.0817	20	C9H15NO2S+
203.0978	41	C12H12FN2+
216.0923	11	C9H16N2O2S+
217.1008	74	C12H12FN3+
230.1087	47	C13H13FN3+
239.0958	10	C12H14FNO3+
244.1257	16	C8H21FN2O3S+
246.1392	18	C11H22N2O2S+
254.1075	20	C12H18N2O2S+
256.1239	97	C12H20N2O2S+
257.1325	56	C15H16FN3+
258.14	999	C15H17FN3+
268.125	20	C16H15FN3+
270.1398	303	C13H22N2O2S+
271.1481	17	C13H23N2O2S+
272.1556	345	C16H19FN3+
282.1396	110	C14H22N2O2S+
298.1332	8	C14H19FN2O4+
298.1723	8	C12H27FN2O3S+
300.1504	513	C17H19FN3O+
314.1663	56	C18H21FN3O+
344.1771	23	C13H29FN2O5S+
378.1292	48	C18H21FN3O3S+
402.1813	15	C21H25FN3O4+
404.1978	88	C21H27FN3O4+
422.1544	35	C20H25FN3O4S+
482.1759	50	C22H29FN3O6S+
