Mass spectrum: Dimethenamid-P; LC-ESI-ITFT; MS2; CE: 75%; R=7500; [M+H]+
Name: Dimethenamid-P
Name: 2-chloranyl-N-(2,4-dimethylthiophen-3-yl)-N-[(2S)-1-methoxypropan-2-yl]ethanamide
Formula: C12H18ClNO2S
Exact mass: 275.0741
SMILES: CC1=CSC(=C1N(C(C)COC)C(=O)CCl)C
InChI: InChI=1S/C12H18ClNO2S/c1-8-7-17-10(3)12(8)14(11(15)5-13)9(2)6-16-4/h7,9H,5-6H2,1-4H3
Instrument: LTQ Orbitrap XL Thermo Scientific
Instrument type: LC-ESI-ITFT
Ms type: MS2
Ion mode: POSITIVE
Ionization: ESI
Fragmentation mode: HCD
Collision energy: 75 % (nominal)
Resolution: 7500
Column name: XBridge C18 3.5um, 2.1x50mm, Waters
Retention time: 10.0 min
Base peak: 276.0826
Precursor m/z: 276.082
Precursor type: [M+H]+
m/z	relative intensity	assigned
58.9949	23	C2H3S+
65.0387	12	C5H5+
67.0542	24	C5H7+
73.0649	79	C4H9O+
76.979	39	C2H2ClO+
77.0388	22	C6H5+
79.0545	16	C6H7+
85.0107	10	C4H5S+
91.0542	16	C7H7+
93.0699	38	C7H9+
94.0652	41	C6H8N+
95.073	78	C6H9N+
97.0106	19	C5H5S+
99.0264	32	C5H7S+
101.0422	14	C5H9S+
104.0497	8	C7H6N+
105.0443	6	C6H5N2+
105.0573	14	C7H7N+
108.0808	37	C7H10N+
111.0264	755	C6H7S+
112.0341	50	C6H8S+
113.0297	16	C5H7NS+
113.042	61	C6H9S+
117.0576	10	C8H7N+
117.07	24	C9H9+
118.0653	15	C8H8N+
118.0774	6	C9H10+
119.073	8	C8H9N+
120.0808	59	C8H10N+
122.0965	17	C8H12N+
123.0266	13	C7H7S+
124.021	12	C6H6NS+
124.0342	43	C7H8S+
125.0294	23	C6H7NS+
125.0421	88	C7H9S+
126.0373	569	C6H8NS+
127.0211	22	C6H7OS+
127.0452	61	C6H9NS+
127.0576	38	C7H11S+
128.053	189	C6H10NS+
129.0369	23	C6H9OS+
134.0965	63	C9H12N+
135.1043	125	C9H13N+
136.0213	11	C7H6NS+
136.0346	8	C8H8S+
137.0295	95	C7H7NS+
138.0373	265	C7H8NS+
140.053	38	C7H10NS+
149.0413	13	C9H9S+
150.0372	132	C8H8NS+
151.0448	29	C8H9NS+
151.0578	115	C9H11S+
152.0167	101	C7H6NOS+
152.053	346	C8H10NS+
153.0244	200	C7H7NOS+
153.0607	100	C8H11NS+
154.0323	41	C7H8NOS+
154.0686	24	C8H12NS+
159.0037	12	C7H8ClS+
166.0323	51	C8H8NOS+
166.0687	53	C9H12NS+
167.0764	97	C9H13NS+
168.0843	999	C9H14NS+
171.9983	11	C7H7ClNS+
186.0139	102	C8H9ClNS+
202.0096	9	C8H9ClNOS+
203.0168	45	C8H10ClNOS+
204.0243	11	C8H11ClNOS+
244.0564	135	C11H15ClNOS+
276.0831	13	C12H19ClNO2S+
