Mass spectrum: LSD; LC-ESI-QFT; MS2; CE: 180; R=35000; [M+H]+
Name: LSD
Name: D-Lysergic acid N,N-diethylamide
Name: N,N-diethyl-7-methyl-6,6a,8,9-tetrahydro-4H-indolo[4,3-fg]quinoline-9-carboxamide
Formula: C20H25N3O
Exact mass: 323.19976
SMILES: CCN(CC)C(=O)C1CN(C2CC3=CNC4=CC=CC(=C34)C2=C1)C
InChI: InChI=1S/C20H25N3O/c1-4-23(5-2)20(24)14-9-16-15-7-6-8-17-19(15)13(11-21-17)10-18(16)22(3)12-14/h6-9,11,14,18,21H,4-5,10,12H2,1-3H3
Instrument: Q Exactive Plus Orbitrap Thermo Scientific
Instrument type: LC-ESI-QFT
Ms type: MS2
Ion mode: POSITIVE
Ionization: ESI
Fragmentation mode: HCD
Collision energy: 180 (nominal)
Resolution: 35000
Column name: XBridge C18 3.5um, 2.1x50mm, Waters
Retention time: 5.6 min
Base peak: 324.2062
Precursor m/z: 324.207
Precursor type: [M+H]+
m/z	relative intensity	assigned
50.0151	14	C4H2+
51.0229	23	C4H3+
53.0386	34	C4H5+
54.0339	5	C3H4N+
55.0178	10	C3H3O+
56.0494	3	C3H6N+
62.015	7	C5H2+
63.0229	35	C5H3+
65.0386	22	C5H5+
68.0496	1	C4H6N+
74.015	21	C6H2+
75.0229	52	C6H3+
76.0307	23	C6H4+
77.0385	51	C6H5+
78.0464	36	C6H6+
86.015	5	C7H2+
87.0229	19	C7H3+
88.0307	12	C7H4+
89.0386	94	C7H5+
90.0464	9	C7H6+
91.0542	9	C7H7+
95.0491	100	C6H7O+
98.0151	15	
99.0229	22	C8H3+
100.0307	10	
101.0387	12	C8H5+
102.0464	91	C8H6+
103.0542	19	C8H7+
105.0447	67	C6H5N2+
113.0385	64	C9H5+
114.0464	21	C9H6+
115.0542	136	C9H7+
116.0495	3	C8H6N+
117.0573	5	C8H7N+
117.0699	1	C9H9+
119.0492	8	C8H7O+
125.0386	47	C10H5+
126.0464	278	C10H6+
127.0542	114	C10H7+
128.0494	7	C9H6N+
128.062	51	C10H8+
129.0447	28	C8H5N2+
129.0573	1	C9H7N+
130.0654	2	C9H8N+
131.049	1	C9H7O+
132.057	9	C9H8O+
137.0387	19	C11H5+
138.0464	32	C11H6+
139.0542	551	C11H7+
140.0495	81	C10H6N+
140.0619	23	C11H8+
141.0571	4	C10H7N+
141.0698	3	C11H9+
143.0492	6	C10H7O+
144.0571	1	C10H8O+
145.0648	56	C10H9O+
149.0385	8	C12H5+
150.0465	316	C12H6+
151.0542	166	C12H7+
152.062	999	C12H8+
153.0573	36	C11H7N+
153.0699	26	C12H9+
154.0651	55	C11H8N+
155.0603	152	C10H7N2+
156.0573	3	C11H8O+
157.0525	1	C10H7NO+
162.0464	20	C13H6+
163.0542	378	C13H7+
164.0496	58	C12H6N+
164.062	96	C13H8+
165.0576	28	C12H7N+
165.0699	75	C13H9+
166.0652	72	C12H8N+
167.0728	14	C12H9N+
168.057	46	C12H8O+
169.0648	427	C12H9O+
170.0604	7	C11H8NO+
176.0621	1	C14H8+
177.0573	28	C13H7N+
178.0651	128	C13H8N+
179.0604	177	C12H7N2+
179.0723	31	C13H9N+
180.0567	2	C13H8O+
180.0807	25	C13H10N+
181.076	5	C12H9N2+
182.0605	1	C12H8NO+
183.068	3	C12H9NO+
183.0804	4	C13H11O+
185.0469	4	C11H7NO2+
185.0596	1	C12H9O2+
188.0494	7	C14H6N+
189.0575	4	C14H7N+
190.0651	18	C14H8N+
191.0604	7	C13H7N2+
191.073	22	C14H9N+
192.0683	20	C13H8N2+
192.081	7	C14H10N+
193.0883	1	C14H11N+
194.0365	2	C13H6O2+
194.06	1	C13H8NO+
196.052	15	C13H8O2+
205.0761	60	C14H9N2+
206.084	9	C14H10N2+
207.0917	4	C14H11N2+
211.0627	1	C13H9NO2+
219.0922	1	C15H11N2+
