Mass spectrum: Celiprolol; LC-ESI-QFT; MS2; CE: 15; R=35000; [M+H]+
Name: Celiprolol
Name: 3-[3-acetyl-4-[3-(tert-butylamino)-2-hydroxy-propoxy]phenyl]-1,1-diethyl-urea
Formula: C20H33N3O4
Exact mass: 379.24711
SMILES: CCN(CC)C(=O)NC1=CC(=C(C=C1)OCC(CNC(C)(C)C)O)C(=O)C
InChI: InChI=1S/C20H33N3O4/c1-7-23(8-2)19(26)22-15-9-10-18(17(11-15)14(3)24)27-13-16(25)12-21-20(4,5)6/h9-11,16,21,25H,7-8,12-13H2,1-6H3,(H,22,26)
Instrument: Q Exactive Orbitrap Thermo Scientific
Instrument type: LC-ESI-QFT
Ms type: MS2
Ion mode: POSITIVE
Ionization: ESI
Fragmentation mode: HCD
Collision energy: 15 (nominal)
Resolution: 35000
Column name: XBridge C18 3.5um, 2.1x50mm, Waters
Retention time: 5.6 min
Base peak: 380.2546
Precursor m/z: 380.2544
Precursor type: [M+H]+
m/z	relative intensity	assigned
74.0599	2	C3H8NO+
74.0964	1	C4H12N+
130.1226	1	C7H16NO+
233.092	1	C12H13N2O3+
251.1029	6	C12H15N2O4+
251.1391	3	C13H19N2O3+
306.1813	15	C16H24N3O3+
307.1654	51	C16H23N2O4+
324.1919	30	C16H26N3O4+
362.2437	6	C20H32N3O3+
380.2546	999	C20H34N3O4+
