Mass spectrum: Flunitrazepam; LC-ESI-QFT; MS2; CE: 90; R=35000; [M+H]+
Name: Flunitrazepam
Name: 5-(2-fluorophenyl)-1-methyl-7-nitro-3H-1,4-benzodiazepin-2-one
Formula: C16H12FN3O3
Exact mass: 313.08627
SMILES: CN1C(=O)CN=C(C2=C1C=CC(=C2)[N+](=O)[O-])C3=CC=CC=C3F
InChI: InChI=1S/C16H12FN3O3/c1-19-14-7-6-10(20(22)23)8-12(14)16(18-9-15(19)21)11-4-2-3-5-13(11)17/h2-8H,9H2,1H3
Instrument: Q Exactive Plus Orbitrap Thermo Scientific
Instrument type: LC-ESI-QFT
Ms type: MS2
Ion mode: POSITIVE
Ionization: ESI
Fragmentation mode: HCD
Collision energy: 90 (nominal)
Resolution: 35000
Column name: XBridge C18 3.5um, 2.1x50mm, Waters
Retention time: 7.9 min
Base peak: 314.0927
Precursor m/z: 314.0935
Precursor type: [M+H]+
m/z	relative intensity	assigned
50.0151	1	C4H2+
51.0228	4	C4H3+
52.0182	1	C3H2N+
53.0385	7	C4H5+
54.0338	2	C3H4N+
58.0287	35	C2H4NO+
63.0229	6	C5H3+
64.0307	1	C5H4+
65.0385	19	C5H5+
66.0464	14	C5H6+
67.0416	2	C4H5N+
68.0494	1	C4H6N+
77.0385	9	CH4FN3+
78.0337	5	C5H4N+
78.0464	24	CH5FN3+
79.0416	1	C5H5N+
80.0494	18	C5H6N+
83.0291	5	C5H4F+
88.0307	1	C7H4+
89.0385	126	C7H5+
90.0464	164	C7H6+
91.0416	11	C6H5N+
91.0542	109	C7H7+
92.0494	10	C6H6N+
92.062	4	C7H8+
93.0574	8	C6H7N+
94.0413	1	C6H6O+
94.0651	2	C6H8N+
95.0491	11	C6H7O+
96.0443	10	C5H6NO+
102.0338	5	C7H4N+
103.0416	6	C7H5N+
103.0541	1	C8H7+
104.0494	125	C7H6N+
105.0334	2	C7H5O+
105.0447	12	C6H5N2+
105.0573	6	C7H7N+
106.0651	24	C7H8N+
107.0291	7	C7H4F+
107.0728	16	C7H9N+
108.0369	2	C7H5F+
109.0448	56	C7H6F+
110.06	1	C6H8NO+
113.0397	1	C6H6FO+
114.034	1	C8H4N+
115.0416	8	C8H5N+
116.0495	88	C8H6N+
117.0572	71	C8H7N+
118.0651	386	C8H8N+
119.0729	161	C8H9N+
120.0442	2	C7H6NO+
120.0681	2	C7H8N2+
121.0447	1	C8H6F+
122.04	41	C7H5FN+
123.024	24	C7H4FO+
123.0352	5	C6H4FN2+
128.0493	2	C9H6N+
129.0446	28	C8H5N2+
130.04	11	C7H4N3+
130.0649	1	C9H8N+
131.0605	8	C8H7N2+
132.0443	13	C8H6NO+
133.0447	11	C9H6F+
133.0523	4	C8H7NO+
134.04	36	C8H5FN+
134.06	25	C8H8NO+
135.0478	4	C8H6FN+
136.0558	8	C8H7FN+
139.0542	6	C11H7+
140.0496	1	C10H6N+
140.062	2	C11H8+
142.0526	7	C9H6N2+
143.0604	91	C9H7N2+
144.0556	5	C8H6N3+
144.0681	15	C9H8N2+
145.0522	5	C9H7NO+
145.076	16	C9H9N2+
146.0527	7	C10H7F+
146.0598	9	C9H8NO+
147.0551	1	C8H7N2O+
147.0679	15	C9H9NO+
148.0394	1	C8H6NO2+
148.0555	4	C9H7FN+
150.0464	3	C12H6+
150.0543	3	C8H8NO2+
151.0542	24	C12H7+
151.0627	11	C8H9NO2+
152.0621	14	C12H8+
153.0698	5	C12H9+
154.0651	4	C11H8N+
155.0603	1	C10H7N2+
157.0392	1	C9H5N2O+
157.0448	5	C11H6F+
158.0401	5	C10H5FN+
158.0527	5	C11H7F+
159.0603	9	C11H8F+
161.0636	6	C10H8FN+
161.0707	4	C9H9N2O+
163.0541	21	C8H6FN3+
164.0497	5	C12H6N+
164.062	37	C13H8+
165.0699	303	C13H9+
166.0652	22	C12H8N+
166.0774	13	C8H9FN3+
167.0727	10	C12H9N+
168.0569	12	C12H8O+
169.0445	2	C12H6F+
169.0647	29	
170.0526	472	C12H7F+
171.048	5	C11H6FN+
171.0604	62	C12H8F+
172.0558	13	C11H7FN+
173.0512	5	C10H6FN2+
173.0638	3	C11H8FN+
173.0707	1	C10H9N2O+
174.0588	51	C10H7FN2+
174.0713	6	C11H9FN+
175.0541	7	C14H7+
176.0494	1	C13H6N+
176.0626	1	C14H8+
177.0572	30	C13H7N+
177.0693	10	
178.0651	69	C13H8N+
179.0602	30	C12H7N2+
179.0727	20	C13H9N+
180.0807	38	C13H10N+
181.0443	9	C13H6F+
181.0887	2	C13H11N+
182.0526	32	C13H7F+
183.0605	999	C13H8F+
184.056	20	C12H7FN+
184.0683	62	C13H9F+
185.0635	71	C12H8FN+
185.0761	34	C13H10F+
186.0473	11	C12H7FO+
186.0589	6	C11H7FN2+
186.0712	22	C12H9FN+
187.0554	5	C12H8FO+
190.0651	157	C14H8N+
191.0729	93	C14H9N+
192.0807	169	C14H10N+
193.0649	7	C14H9O+
193.076	15	C13H9N2+
193.0886	28	C14H11N+
194.0525	10	C14H7F+
194.0603	7	C13H8NO+
194.0965	18	C14H12N+
195.0477	4	C13H6FN+
195.0606	46	C14H8F+
196.0556	66	C13H7FN+
196.0682	32	C14H9F+
196.0759	13	C13H10NO+
197.0635	210	C13H8FN+
198.0713	639	C13H9FN+
199.0553	16	C13H8FO+
199.0665	10	C12H8FN2+
199.0792	12	C13H10FN+
200.0508	1	C12H7FNO+
200.0634	1	C13H9FO+
200.0746	4	C12H9FN2+
200.0871	12	C13H11FN+
201.0574	13	C15H7N+
201.0714	2	C13H10FO+
201.0821	1	C12H10FN2+
202.0651	74	C15H8N+
203.0605	15	C14H7N2+
203.0729	10	C15H9N+
204.0557	6	C13H6N3+
204.0683	25	C14H8N2+
204.0808	66	C15H10N+
205.0761	312	C14H9N2+
206.0839	55	C14H10N2+
208.0557	83	C14H7FN+
208.0758	7	C14H10NO+
209.0635	62	C14H8FN+
210.0714	300	C14H9FN+
211.0673	22	C13H8FN2+
211.0792	369	C14H10FN+
212.0746	72	C13H9FN2+
212.087	334	C14H11FN+
213.0583	2	C13H8FNO+
213.0822	24	C13H10FN2+
213.0944	4	C14H12FN+
214.0425	4	C13H7FO2+
214.0661	9	C13H9FNO+
216.0684	1	C15H8N2+
217.0761	7	C15H9N2+
218.0839	51	C15H10N2+
219.0917	248	C15H11N2+
220.0554	4	C15H7FN+
220.0758	37	C15H10NO+
220.0994	19	C15H12N2+
221.0632	16	C15H8FN+
221.1073	89	C15H13N2+
222.0713	560	C15H9FN+
223.0667	335	C14H8FN2+
223.0787	28	C15H10FN+
224.0744	272	C14H9FN2+
225.0822	109	C14H10FN2+
226.0665	5	C14H9FNO+
226.09	2	C14H11FN2+
227.0978	45	C14H12FN2+
228.0819	6	C14H11FNO+
229.0532	5	C16H7NO+
233.0714	1	C15H9N2O+
234.0789	2	C15H10N2O+
235.0866	1	C15H11N2O+
236.0746	1	C15H9FN2+
237.0822	109	C15H10FN2+
238.0661	27	C15H9FNO+
238.09	63	C15H11FN2+
239.0979	606	C15H12FN2+
240.0822	4	C15H11FNO+
240.1056	10	C15H13FN2+
243.0688	4	C14H10FNO2+
247.0868	1	C16H11N2O+
252.0696	8	C15H9FN2O+
253.0778	1	C15H10FN2O+
256.0643	22	C14H9FN2O2+
267.0926	8	C16H12FN2O+
268.1006	14	C16H13FN2O+
272.0957	2	C15H13FN2O2+
300.0901	6	C16H13FN2O3+
