Mass spectrum: Benzyl-butyl-phthalate; LC-ESI-QFT; MS2; CE: 120; R=35000; [M+H]+
Name: Benzyl-butyl-phthalate
Name: Butylbenzyl phthalate
Name: 1,2-Benzenedicarboxylic acid, butyl phenylmethyl ester
Formula: C19H20O4
Exact mass: 312.13616
SMILES: CCCCOC(=O)C1=CC=CC=C1C(=O)OCC2=CC=CC=C2
InChI: InChI=1S/C19H20O4/c1-2-3-13-22-18(20)16-11-7-8-12-17(16)19(21)23-14-15-9-5-4-6-10-15/h4-12H,2-3,13-14H2,1H3
Instrument: Q Exactive Plus Orbitrap Thermo Scientific
Instrument type: LC-ESI-QFT
Ms type: MS2
Ion mode: POSITIVE
Ionization: ESI
Fragmentation mode: HCD
Collision energy: 120 (nominal)
Resolution: 35000
Column name: XBridge C18 3.5um, 2.1x50mm, Waters
Retention time: 14.2 min
Base peak: 313.1424
Precursor m/z: 313.1434
Precursor type: [M+H]+
m/z	relative intensity	assigned
50.0151	8	C4H2+
51.0229	9	C4H3+
53.0022	16	C3HO+
53.9974	3	C2NO+
61.0072	2	C5H+
62.0151	7	C5H2+
63.0229	48	C5H3+
65.0385	812	C5H5+
67.9892	3	C3O2+
89.0385	3	C7H5+
90.0464	1	C7H6+
91.0542	999	C7H7+
93.0335	4	C6H5O+
111.044	4	C6H7O2+
121.0285	6	C7H5O2+
121.0396	9	C6H5N2O+
149.0232	2	C8H5O3+
