Mass spectrum: N4-Acetylsulfamethoxazole; LC-ESI-ITFT; MS2; CE: 30%; R=15000; [M+H]+
Name: N4-Acetylsulfamethoxazole
Name: N-[4-[(5-methyl-1,2-oxazol-3-yl)sulfamoyl]phenyl]acetamide
Formula: C12H13N3O4S
Exact mass: 295.0627
SMILES: c1(ccc(cc1)NC(C)=O)S(Nc1cc(C)on1)(=O)=O
InChI: InChI=1S/C12H13N3O4S/c1-8-7-12(14-19-8)15-20(17,18)11-5-3-10(4-6-11)13-9(2)16/h3-7H,1-2H3,(H,13,16)(H,14,15)
Instrument: LTQ Orbitrap XL Thermo Scientific
Instrument type: LC-ESI-ITFT
Ms type: MS2
Ion mode: POSITIVE
Ionization: ESI
Fragmentation mode: HCD
Collision energy: 30 % (nominal)
Resolution: 15000
Column name: XBridge C18 3.5um, 2.1x50mm, Waters
Retention time: 5.5 min
Base peak: 318.0528
Precursor m/z: 296.07
Precursor type: [M+H]+
m/z	relative intensity	assigned
65.0386	6	C5H5+
92.0494	14	C6H6N+
93.0334	13	C6H5O+
93.0573	42	C6H7N+
94.065	6	C6H8N+
99.0552	42	C4H7N2O+
108.0444	100	C6H6NO+
134.06	180	C8H8NO+
136.0757	243	C8H10NO+
146.0711	21	C8H8N3+
147.0793	10	C8H9N3+
149.0712	9	C8H9N2O+
150.0549	37	C8H8NO2+
156.0112	32	C6H6NO2S+
160.0869	55	C9H10N3+
161.0008	7	C4H5N2O3S+
162.0661	60	C8H8N3O+
176.0274	7	C8H6N3S+
188.0818	190	C10H10N3O+
189.0897	29	C10H11N3O+
190.0974	82	C10H12N3O+
193.0432	5	C9H9N2OS+
194.038	87	C8H8N3OS+
198.0219	372	C8H8NO3S+
202.0978	13	C11H12N3O+
214.0978	9	C12H12N3O+
218.038	9	C10H8N3OS+
230.0923	15	C12H12N3O2+
232.108	20	C12H14N3O2+
236.0487	85	C10H10N3O2S+
254.0597	10	C10H12N3O3S+
296.0699	999	C12H14N3O4S+
