Mass spectrum: Methadone; LC-ESI-ITFT; MS2; CE: 90%; R=7500; [M+H]+
Name: Methadone
Name: 6-(dimethylamino)-4,4-diphenyl-3-heptanone
Formula: C21H27NO
Exact mass: 309.2093
SMILES: CCC(=O)C(CC(C)N(C)C)(c1ccccc1)c2ccccc2
InChI: InChI=1S/C21H27NO/c1-5-20(23)21(16-17(2)22(3)4,18-12-8-6-9-13-18)19-14-10-7-11-15-19/h6-15,17H,5,16H2,1-4H3
Instrument: LTQ Orbitrap XL Thermo Scientific
Instrument type: LC-ESI-ITFT
Ms type: MS2
Ion mode: POSITIVE
Ionization: ESI
Fragmentation mode: HCD
Collision energy: 90 % (nominal)
Resolution: 7500
Column name: XBridge C18 3.5um, 2.1x50mm, Waters
Retention time: 8.4 min
Base peak: 310.2177
Precursor m/z: 310.2165
Precursor type: [M+H]+
m/z	relative intensity	assigned
53.0386	19	C4H5+
57.0334	11	C3H5O+
77.0386	430	C6H5+
79.0541	20	C6H7+
91.0542	466	C7H7+
95.0491	52	C6H7O+
103.0543	36	C8H7+
105.0335	999	C7H5O+
105.0447	140	C6H5N2+
105.0699	151	C8H9+
107.0496	11	C7H7O+
115.0542	103	C9H7+
117.0698	226	C9H9+
128.062	58	C10H8+
129.0699	74	C10H9+
131.0861	17	C10H11+
141.0699	33	C11H9+
145.0647	20	C10H9O+
152.0622	30	C12H8+
154.0772	10	C12H10+
155.0603	35	C10H7N2+
165.0695	73	C13H9+
166.0775	30	C13H10+
167.0854	89	C13H11+
178.077	32	C14H10+
179.0864	16	C14H11+
190.077	14	C15H10+
191.0855	32	C15H11+
194.0725	91	C14H10O+
202.0777	42	C16H10+
203.0855	135	C16H11+
204.0933	155	C16H12+
205.1017	15	C16H13+
217.101	101	C17H13+
218.1082	34	C17H14+
219.1173	12	C17H15+
