Mass spectrum: D617; LC-ESI-ITFT; MS2; CE: 45%; R=7500; [M+H]+
Name: D617
Name: Verapamil metabolite D617
Name: 2-(3,4-dimethoxyphenyl)-2-isopropyl-5-(methylamino)valeronitrile
Formula: C17H26N2O2
Exact mass: 290.1994
SMILES: CC(C)C(CCCNC)(C#N)C1=CC(=C(C=C1)OC)OC
InChI: InChI=1S/C17H26N2O2/c1-13(2)17(12-18,9-6-10-19-3)14-7-8-15(20-4)16(11-14)21-5/h7-8,11,13,19H,6,9-10H2,1-5H3
Instrument: LTQ Orbitrap XL Thermo Scientific
Instrument type: LC-ESI-ITFT
Ms type: MS2
Ion mode: POSITIVE
Ionization: ESI
Fragmentation mode: HCD
Collision energy: 45 % (nominal)
Resolution: 7500
Column name: XBridge C18 3.5um, 2.1x50mm, Waters
Retention time: 6.3 min
Base peak: 291.2077
Precursor m/z: 291.2067
Precursor type: [M+H]+
m/z	relative intensity	assigned
70.0652	151	C4H8N+
72.0807	20	C4H10N+
80.0497	13	C5H6N+
81.0572	11	C5H7N+
84.0806	16	C5H10N+
94.0653	33	C6H8N+
95.0856	60	C7H11+
96.0808	122	C6H10N+
105.0697	34	C8H9+
108.0808	18	C7H10N+
110.0967	49	C7H12N+
122.0965	241	C8H12N+
124.052	45	C7H8O2+
126.1278	25	C8H16N+
131.0492	12	C9H7O+
136.052	124	C8H8O2+
137.0597	93	C8H9O2+
138.0677	130	C8H10O2+
139.0755	105	C8H11O2+
146.0728	15	C10H10O+
150.0677	42	C9H10O2+
151.0754	932	C9H11O2+
153.1388	83	C9H17N2+
162.0676	12	C10H10O2+
163.0753	35	C10H11O2+
164.0831	32	C10H12O2+
165.0911	494	C10H13O2+
175.0756	15	C11H11O2+
176.0713	21	C10H10NO2+
176.0838	8	C11H12O2+
177.0911	776	C11H13O2+
179.1072	46	C11H15O2+
186.0915	20	C12H12NO+
187.0994	45	C12H13NO+
189.0901	10	C12H13O2+
190.0869	21	C11H12NO2+
191.1065	72	C12H15O2+
193.1227	33	C12H17O2+
197.0953	15	C14H13O+
202.0863	57	C12H12NO2+
203.0945	51	C12H13NO2+
204.1025	23	C12H14NO2+
212.12	26	C15H16O+
214.1231	28	C14H16NO+
217.1101	149	C13H15NO2+
218.1178	311	C13H16NO2+
228.1152	33	C15H16O2+
229.1465	24	C15H19NO+
233.1288	154	C13H17N2O2+
233.1534	156	C15H21O2+
243.1379	136	C16H19O2+
244.132	13	C15H18NO2+
245.1414	120	C15H19NO2+
247.1443	55	C14H19N2O2+
248.1521	679	C14H20N2O2+
249.1586	14	C14H21N2O2+
260.1647	999	C16H22NO2+
264.1955	86	C16H26NO2+
291.2068	976	C17H27N2O2+
