Mass spectrum: 10phiC10SPC; LC-ESI-QFT; MS2; CE: 75; R=35000; [M+H]+
Name: 10phiC10SPC
Name: Decacarboxy sulfophenyl carboxylic acid
Name: 10-(4-sulfophenyl)octanoic acid
Formula: C16H24O5S
Exact mass: 328.13444
SMILES: OS(=O)(=O)c1ccc(CCCCCCCCCC(=O)O)cc1
InChI: InChI=1S/C16H24O5S/c17-16(18)9-7-5-3-1-2-4-6-8-14-10-12-15(13-11-14)22(19,20)21/h10-13H,1-9H2,(H,17,18)(H,19,20,21)
Instrument: Q Exactive Plus Orbitrap Thermo Scientific
Instrument type: LC-ESI-QFT
Ms type: MS2
Ion mode: POSITIVE
Ionization: ESI
Fragmentation mode: HCD
Collision energy: 75 (nominal)
Resolution: 35000
Column name: XBridge C18 3.5um, 2.1x50mm, Waters
Retention time: 10.8 min
Base peak: 343.1573
Precursor m/z: 329.1417
Precursor type: [M+H]+
m/z	relative intensity	assigned
50.015	3	C4H2+
51.0228	3	C4H3+
53.0022	18	C3HO+
53.0386	50	C4H5+
53.9975	3	C2NO+
55.0179	15	C3H3O+
55.0543	56	C4H7+
57.0699	326	C4H9+
58.995	3	C2H3S+
65.0386	12	C5H5+
67.0542	54	C5H7+
67.9892	1	C3O2+
69.0335	10	C4H5O+
69.0699	20	C5H9+
71.0855	13	C5H11+
77.0385	42	C6H5+
78.0464	50	C6H6+
79.0542	212	C6H7+
81.0335	7	C5H5O+
81.0699	24	C6H9+
83.0492	7	C5H7O+
83.0854	1	C6H11+
89.0385	3	C7H5+
90.0465	7	C7H6+
91.0543	310	C7H7+
93.07	28	C7H9+
95.0492	214	C6H7O+
95.0856	13	C7H11+
97.0108	14	C5H5S+
102.0463	2	C8H6+
103.0543	403	C8H7+
104.0621	999	C8H8+
105.0448	109	C6H5N2+
105.0699	97	C8H9+
107.0492	971	C7H7O+
109.0107	92	C6H5S+
111.0264	47	C6H7S+
115.0543	104	C9H7+
116.0621	113	C9H8+
117.0699	360	C9H9+
118.0777	75	C9H10+
119.0494	4	C8H7O+
119.0854	4	C9H11+
120.0571	9	C8H8O+
121.0108	13	C7H5S+
121.0648	62	C8H9O+
122.0179	1	C7H6S+
123.0262	10	C7H7S+
125.0057	36	C6H5OS+
128.0621	37	C10H8+
129.0699	172	C10H9+
130.0778	82	C10H10+
131.0605	64	C8H7N2+
131.0856	131	C10H11+
132.0571	16	C9H8O+
132.0935	3	C10H12+
133.0648	10	C9H9O+
134.0185	95	C8H6S+
135.0263	53	C8H7S+
135.0802	2	C9H11O+
137.0056	33	C7H5OS+
139.0211	16	C7H7OS+
141.07	20	C11H9+
142.0778	15	C11H10+
143.0601	2	C9H7N2+
143.0857	41	C11H11+
144.0933	14	C11H12+
145.0648	7	C10H9O+
145.0762	7	C9H9N2+
145.1013	49	C11H13+
146.0728	7	C10H10O+
146.1093	2	C11H14+
147.0263	30	C9H7S+
147.0805	12	C10H11O+
148.0342	43	C9H8S+
149.0057	4	C8H5OS+
149.0421	14	C9H9S+
149.0962	8	C10H13O+
150.0134	10	C8H6OS+
151.0214	25	C8H7OS+
153.0006	15	C7H5O2S+
153.0698	4	C12H9+
154.0779	3	C12H10+
155.0861	6	C12H11+
156.0935	3	C12H12+
157.1013	2	C12H13+
159.0918	22	C10H11N2+
161.042	6	C10H9S+
163.0212	3	C9H7OS+
167.0163	50	C8H7O2S+
171.0111	726	C7H7O3S+
172.0341	7	C11H8S+
173.0423	2	C11H9S+
173.1068	2	C11H13N2+
185.0268	72	C8H9O3S+
185.0417	3	C12H9S+
