Mass spectrum: Carbaryl; LC-ESI-QFT; MS2; CE: 15; R=35000; [M+H]+
Name: Carbaryl
Name: Carbaril
Name: N-methylcarbamic acid 1-naphthalenyl ester
Formula: C12H11NO2
Exact mass: 201.07898
SMILES: c12c(OC(NC)=O)cccc1cccc2
InChI: InChI=1S/C12H11NO2/c1-13-12(14)15-11-8-4-6-9-5-2-3-7-10(9)11/h2-8H,1H3,(H,13,14)
Instrument: Q Exactive Orbitrap Thermo Scientific
Instrument type: LC-ESI-QFT
Ms type: MS2
Ion mode: POSITIVE
Ionization: ESI
Fragmentation mode: HCD
Collision energy: 15 (nominal)
Resolution: 35000
Column name: XBridge C18 3.5um, 2.1x50mm, Waters
Retention time: 7.6 min
Base peak: 145.0649
Precursor m/z: 202.0863
Precursor type: [M+H]+
m/z	relative intensity	assigned
58.0288	2	C2H4NO+
91.0539	1	C7H7+
115.0538	2	C9H7+
117.0698	7	C9H9+
127.0541	1	C10H7+
145.0649	999	C10H9O+
155.0605	2	C10H7N2+
