Mass spectrum: 3-Desmethyltrimethoprim; LC-ESI-QFT; MS2; CE: 45%; R=17500; [M+H]+
Name: 3-Desmethyltrimethoprim
Name: 5-[(2,4-diaminopyrimidin-5-yl)methyl]-2,3-dimethoxyphenol
Formula: C13H16N4O3
Exact mass: 276.1222404
SMILES: COC1=CC(=CC(=C1OC)O)CC2=CN=C(N=C2N)N
InChI: InChI=1S/C13H16N4O3/c1-19-10-5-7(4-9(18)11(10)20-2)3-8-6-16-13(15)17-12(8)14/h4-6,18H,3H2,1-2H3,(H4,14,15,16,17)
Instrument: Exploris 240 Orbitrap Thermo Scientific
Instrument type: LC-ESI-QFT
Ms type: MS2
Ion mode: POSITIVE
Ionization: ESI
Fragmentation mode: HCD
Collision energy: 45 % (nominal)
Resolution: 17500
Column name: XBridge C18 3.5um, 2.1x50mm, Waters
Retention time: 2.604 min
Base peak: 277.1292
Precursor m/z: 277.1295
Precursor type: [M+H]+
m/z	relative intensity	assigned
123.0665	208	C5H7N4+
167.07	35	C9H11O3+
216.1005	93	C11H12N4O+
232.0959	33	C11H12N4O2+
233.1034	91	C11H13N4O2+
243.0878	17	C12H11N4O2+
244.0958	116	C12H12N4O2+
245.1029	12	C12H13N4O2+
247.0819	42	C11H11N4O3+
261.0983	760	C12H13N4O3+
262.1062	940	C12H14N4O3+
277.1296	999	C13H17N4O3+
