Mass spectrum: Galaxolidone; LC-ESI-ITFT; MS2; CE: 90%; R=30000; [M+H]+
Name: Galaxolidone
Name: 1,3,4,6,7,8-Hexahydro-4,6,6,7,8,8-hexamethylcyclopenta[g]-2-benzopyran-1-on
Formula: C18H24O2
Exact mass: 272.1776
SMILES: CC2(C)c1cc3C(=O)OCC(C)c3cc1C(C)(C)C2C
InChI: InChI=1S/C18H24O2/c1-10-9-20-16(19)13-8-15-14(7-12(10)13)17(3,4)11(2)18(15,5)6/h7-8,10-11H,9H2,1-6H3
Instrument: LTQ Orbitrap XL Thermo Scientific
Instrument type: LC-ESI-ITFT
Ms type: MS2
Ion mode: POSITIVE
Ionization: ESI
Fragmentation mode: HCD
Collision energy: 90 % (nominal)
Resolution: 30000
Column name: XBridge C18 3.5um, 2.1x50mm, Waters
Retention time: 14.7 min
Base peak: 295.1677
Precursor m/z: 273.1849
Precursor type: [M+H]+
m/z	relative intensity	assigned
91.0542	27	C7H7+
115.0542	28	C9H7+
117.0698	19	C9H9+
128.0621	43	C10H8+
129.0699	260	C10H9+
131.0856	15	C10H11+
133.1011	10	C10H13+
141.07	49	C11H9+
142.0777	130	C11H10+
143.0855	36	C11H11+
147.0802	6	C10H11O+
155.0856	138	C12H11+
156.0934	45	C12H12+
157.0648	30	C11H9O+
157.1012	217	C12H13+
167.0856	28	C13H11+
168.0932	36	C13H12+
169.1012	84	C13H13+
170.109	10	C13H14+
171.1168	16	C13H15+
182.109	121	C14H14+
183.0803	17	C13H11O+
183.1168	161	C14H15+
185.0962	16	C13H13O+
195.0804	10	C14H11O+
197.1326	999	C15H17+
198.1404	23	C15H18+
210.1039	132	C15H14O+
211.1117	104	C15H15O+
212.1559	239	C16H20+
215.1066	12	C14H15O2+
225.1274	909	C16H17O+
226.1355	7	C16H18O+
227.1797	15	C17H23+
239.143	10	C17H19O+
240.1508	62	C17H20O+
255.1746	11	C18H23O+
