Mass spectrum: Pantoprazole; LC-ESI-ITFT; MS2; CE: 60%; R=15000; [M+H]+
Name: Pantoprazole
Name: 6-(difluoromethoxy)-2-[(3,4-dimethoxy-2-pyridinyl)methylsulfinyl]-1H-benzimidazole
Formula: C16H15F2N3O4S
Exact mass: 383.0751
SMILES: COC1=C(C(=NC=C1)CS(=O)C2=NC3=C(N2)C=C(C=C3)OC(F)F)OC
InChI: InChI=1S/C16H15F2N3O4S/c1-23-13-5-6-19-12(14(13)24-2)8-26(22)16-20-10-4-3-9(25-15(17)18)7-11(10)21-16/h3-7,15H,8H2,1-2H3,(H,20,21)
Instrument: LTQ Orbitrap XL Thermo Scientific
Instrument type: LC-ESI-ITFT
Ms type: MS2
Ion mode: POSITIVE
Ionization: ESI
Fragmentation mode: HCD
Collision energy: 60 % (nominal)
Resolution: 15000
Column name: XBridge C18 3.5um, 2.1x50mm, Waters
Retention time: 6.6 min
Base peak: 384.0836
Precursor m/z: 384.0824
Precursor type: [M+H]+
m/z	relative intensity	assigned
92.0494	12	C6H6N+
93.0572	12	C6H7N+
94.065	11	C6H8N+
107.0729	61	C7H9N+
108.0443	9	C6H6NO+
110.06	22	C6H8NO+
122.0599	57	C7H8NO+
123.0679	6	C7H9NO+
136.0392	31	C7H6NO2+
138.0549	999	C7H8NO2+
139.0088	7	C6H5NOS+
152.0705	78	C8H10NO2+
153.0784	4	C8H11NO2+
153.9954	11	C6H4NO2S+
156.0115	3	C6H6NO2S+
165.0117	11	C7H5N2OS+
167.0036	21	C7H5NO2S+
168.0656	12	C6H12F2NS+
182.0265	13	C8H8NO2S+
185.0522	4	C8H7F2N2O+
200.0374	88	C8H10NO3S+
215.0082	4	C8H5F2N2OS+
