Mass spectrum: Propyphenazone; LC-ESI-QFT; MS2; CE: 90%; R=15000; [M+H]+
Name: Propyphenazone
Name: 1,5-dimethyl-2-phenyl-4-propan-2-ylpyrazol-3-one
Formula: C14H18N2O
Exact mass: 230.1419
SMILES: CC1=C(C(=O)N(N1C)C2=CC=CC=C2)C(C)C
InChI: InChI=1S/C14H18N2O/c1-10(2)13-11(3)15(4)16(14(13)17)12-8-6-5-7-9-12/h5-10H,1-4H3
Instrument: Orbitrap Exploris 240 Thermo Scientific
Instrument type: LC-ESI-QFT
Ms type: MS2
Ion mode: POSITIVE
Ionization: ESI
Fragmentation mode: HCD
Collision energy: 90 % (nominal)
Resolution: 15000
Column name: Atlantis C18 3um, 3.0x150mm, Waters
Retention time: 17.440 min
Base peak: 231.149
Precursor m/z: 231.1492
Precursor type: [M+H]+
Precursor intensity: 2162391296
m/z	relative intensity	assigned
53.0387	23	C4H5+
55.0543	35	C4H7+
56.0495	999	C3H6N+
58.0652	38	C3H8N+
65.0387	17	C5H5+
68.0496	10	C4H6N+
77.0385	93	C6H5+
79.0542	31	C6H7+
82.0651	77	C5H8N+
91.0542	21	C7H7+
92.0496	79	C6H6N+
93.0575	16	C6H7N+
94.0649	52	C6H8N+
95.0491	20	C6H7O+
95.0729	37	C6H9N+
96.0808	75	C6H10N+
97.0885	10	C6H11N+
104.0494	83	C7H6N+
105.0447	34	C6H5N2+
112.1119	36	C7H14N+
115.0541	20	C9H7+
117.0575	16	C8H7N+
117.07	19	C9H9+
118.0651	73	C8H8N+
120.0445	17	C7H6NO+
120.0805	55	C8H10N+
124.0759	27	C7H10NO+
130.0649	46	C9H8N+
131.0729	53	C9H9N+
132.0809	27	C9H10N+
133.0523	17	C8H7NO+
144.0808	47	C10H10N+
146.0841	17	C9H10N2+
146.0968	29	C10H12N+
189.1023	53	C11H13N2O+
201.1022	70	C12H13N2O+
