Mass spectrum: Iopamidol; LC-ESI-ITFT; MS2; CE: 90%; R=7500; [M+H]+
Name: Iopamidol
Name: 1,3-Benzenedicarboxamide, N,N'-bis(2-hydroxy-1-(hydroxymethyl)ethyl)-5-((2-hydroxy-1-oxopropyl)amino)-2,4,6-triiodo-
Name: 1-N,3-N-bis(1,3-dihydroxypropan-2-yl)-5-(2-hydroxypropanoylamino)-2,4,6-triiodobenzene-1,3-dicarboxamide
Formula: C17H22I3N3O8
Exact mass: 776.8541
SMILES: CC(O)C(=O)NC1=C(I)C(C(=O)NC(CO)CO)=C(I)C(C(=O)NC(CO)CO)=C1I
InChI: InChI=1S/C17H22I3N3O8/c1-6(28)15(29)23-14-12(19)9(16(30)21-7(2-24)3-25)11(18)10(13(14)20)17(31)22-8(4-26)5-27/h6-8,24-28H,2-5H2,1H3,(H,21,30)(H,22,31)(H,23,29)
Instrument: LTQ Orbitrap XL Thermo Scientific
Instrument type: LC-ESI-ITFT
Ms type: MS2
Ion mode: POSITIVE
Ionization: ESI
Fragmentation mode: HCD
Collision energy: 90 % (nominal)
Resolution: 7500
Column name: XBridge C18 3.5um, 2.1x50mm, Waters
Retention time: 1.2 min
Base peak: 132.9578
Precursor m/z: 777.8614
Precursor type: [M+H]+
m/z	relative intensity	assigned
86.0026	120	C6N+
88.0183	341	C6H2N+
102.034	356	C7H4N+
103.0416	999	C7H5N+
113.0135	523	C7HN2+
113.9975	485	C7NO+
115.0419	294	C8H5N+
115.9894	450	C7O2+
116.0132	243	C7H2NO+
129.045	167	C8H5N2+
131.0366	456	C8H5NO+
134.0239	363	C7H4NO2+
141.9926	358	C8NO2+
143.0372	146	C9H5NO+
148.039	249	C8H6NO2+
154.8984	268	CIO+
159.0317	214	C9H5NO2+
160.0389	178	C9H6NO2+
200.907	433	C5IN+
204.9145	209	C5H2IO+
212.9067	385	C6IN+
257.9414	446	C8H5INO+
269.9418	276	C9H5INO+
285.9349	286	C9H5INO2+
293.9455	403	C4H9INO6+
