Mass spectrum: Spiramycin; LC-ESI-QFT; MS2; CE: 60; R=35000; [M+H]+
Name: Spiramycin
Name: 2-[(4R,5S,6S,7R,9R,10R,16R)-6-[4-(dimethylamino)-5-[4,6-dimethyl-4,5-bis(oxidanyl)oxan-2-yl]oxy-6-methyl-3-oxidanyl-oxan-2-yl]oxy-10-[5-(dimethylamino)-6-methyl-oxan-2-yl]oxy-5-methoxy-9,16-dimethyl-4-oxidanyl-2-oxidanylidene-1-oxacyclohexadeca-11,13-dien-7-yl]ethanal
Formula: C43H74N2O14
Exact mass: 842.51400
SMILES: O=CC[C@@H]4[C@H](OC2OC(C(OC1OC(C)C(O)C(O)(C)C1)C(N(C)C)C2O)C)[C@@H](OC)[C@H](O)CC(=O)O[C@H](C)C\C=C\C=C\[C@H](OC3OC(C)C(N(C)C)CC3)[C@H](C)C4
InChI: InChI=1S/C43H74N2O14/c1-24-21-29(19-20-46)39(59-42-37(49)36(45(9)10)38(27(4)56-42)58-35-23-43(6,51)41(50)28(5)55-35)40(52-11)31(47)22-33(48)53-25(2)15-13-12-14-16-32(24)57-34-18-17-30(44(7)8)26(3)54-34/h12-14,16,20,24-32,34-42,47,49-51H,15,17-19,21-23H2,1-11H3/b13-12+,16-14+/t24-,25-,26?,27?,28?,29+,30?,31-,32+,34?,35?,36?,37?,38?,39+,40+,41?,42?,43?/m1/s1
Instrument: Q Exactive Orbitrap Thermo Scientific
Instrument type: LC-ESI-QFT
Ms type: MS2
Ion mode: POSITIVE
Ionization: ESI
Fragmentation mode: HCD
Collision energy: 60 (nominal)
Resolution: 35000
Column name: XBridge C18 3.5um, 2.1x50mm, Waters
Retention time: 5.7 min
Base peak: 438.2777
Precursor m/z: 843.5213
Precursor type: [M+H]+
m/z	relative intensity	assigned
116.0705	730	C5H10NO2+
116.1071	41	C6H14NO+
117.07	6	C9H9+
119.0852	9	C9H11+
124.112	10	C8H14N+
126.0913	82	C7H12NO+
127.0754	138	C7H11O2+
127.0991	14	C7H13NO+
128.1071	22	C7H14NO+
129.0699	13	C10H9+
130.0862	21	C6H12NO2+
131.0854	13	C10H11+
132.1019	135	C6H14NO2+
133.1014	6	C10H13+
142.1227	683	C8H16NO+
143.0858	21	C11H11+
144.1019	7	C7H14NO2+
145.0859	24	C7H13O3+
145.1011	6	C11H13+
156.102	294	C8H14NO2+
157.1016	9	C12H13+
158.1174	10	C8H16NO2+
159.1163	8	C12H15+
160.133	8	C8H18NO2+
169.1012	22	C13H13+
172.0966	13	C8H14NO3+
174.1125	999	C8H16NO3+
195.1168	11	C15H15+
