Mass spectrum: Dimethenamid-P; LC-ESI-ITFT; MS2; CE: 60%; R=7500; [M+H]+
Name: Dimethenamid-P
Name: 2-chloranyl-N-(2,4-dimethylthiophen-3-yl)-N-[(2S)-1-methoxypropan-2-yl]ethanamide
Formula: C12H18ClNO2S
Exact mass: 275.0741
SMILES: CC1=CSC(=C1N(C(C)COC)C(=O)CCl)C
InChI: InChI=1S/C12H18ClNO2S/c1-8-7-17-10(3)12(8)14(11(15)5-13)9(2)6-16-4/h7,9H,5-6H2,1-4H3
Instrument: LTQ Orbitrap XL Thermo Scientific
Instrument type: LC-ESI-ITFT
Ms type: MS2
Ion mode: POSITIVE
Ionization: ESI
Fragmentation mode: HCD
Collision energy: 60 % (nominal)
Resolution: 7500
Column name: XBridge C18 3.5um, 2.1x50mm, Waters
Retention time: 10.0 min
Base peak: 276.0826
Precursor m/z: 276.082
Precursor type: [M+H]+
m/z	relative intensity	assigned
58.995	5	C2H3S+
73.0648	42	C4H9O+
76.9788	19	C2H2ClO+
91.0542	3	C7H7+
93.0699	8	C7H9+
94.0649	5	C6H8N+
95.073	11	C6H9N+
97.0104	3	C5H5S+
99.0262	6	C5H7S+
108.0804	8	C7H10N+
111.0263	231	C6H7S+
112.0338	3	C6H8S+
113.0419	15	C6H9S+
120.0811	4	C8H10N+
123.0266	3	C7H7S+
124.0342	13	C7H8S+
125.042	28	C7H9S+
126.0372	80	C6H8NS+
127.0451	12	C6H9NS+
127.0575	11	C7H11S+
128.053	52	C6H10NS+
129.0369	16	C6H9OS+
134.0962	11	C9H12N+
135.1043	34	C9H13N+
137.0291	17	C7H7NS+
138.0373	42	C7H8NS+
139.0573	6	C8H11S+
140.0528	16	C7H10NS+
149.0416	3	C9H9S+
150.0373	35	C8H8NS+
151.0443	6	C8H9NS+
151.0577	66	C9H11S+
152.0164	19	C7H6NOS+
152.053	77	C8H10NS+
153.0243	54	C7H7NOS+
153.0608	15	C8H11NS+
154.0323	13	C7H8NOS+
154.0691	6	C8H12NS+
166.0322	26	C8H8NOS+
166.0684	31	C9H12NS+
167.0764	86	C9H13NS+
168.0843	999	C9H14NS+
174.0142	3	C7H9ClNS+
186.0141	69	C8H9ClNS+
202.0088	16	C8H9ClNOS+
203.0165	44	C8H10ClNOS+
204.0241	21	C11H8O2S+
244.0557	520	C11H15ClNOS+
