Mass spectrum: Fluacrypyrim; LC-ESI-QFT; MS2; CE: 120%; R=17500; [M+H]+
Name: Fluacrypyrim
Name: Methyl 3-methoxy-2-[2-(2-isopropoxy-6-trifluoromethylpyrimidin-4-yloxymethyl) phenyl]acrylate
Name: methyl 3-methoxy-2-[2-[[2-propan-2-yloxy-6-(trifluoromethyl)pyrimidin-4-yl]oxymethyl]phenyl]prop-2-enoate
Formula: C20H21F3N2O5
Exact mass: 426.1403
SMILES: CC(C)OC1=NC(=CC(=N1)OCC2=CC=CC=C2C(=COC)C(=O)OC)C(F)(F)F
InChI: InChI=1S/C20H21F3N2O5/c1-12(2)30-19-24-16(20(21,22)23)9-17(25-19)29-10-13-7-5-6-8-14(13)15(11-27-3)18(26)28-4/h5-9,11-12H,10H2,1-4H3
Instrument: Exploris 240 Orbitrap Thermo Scientific
Instrument type: LC-ESI-QFT
Ms type: MS2
Ion mode: POSITIVE
Ionization: ESI
Fragmentation mode: HCD
Collision energy: 120 % (nominal)
Resolution: 17500
Column name: XBridge C18 3.5um, 2.1x50mm, Waters
Retention time: 12.205 min
Base peak: 326.0822
Precursor m/z: 427.1475
Precursor type: [M+H]+
m/z	relative intensity	assigned
51.0229	16	C4H3+
53.0386	13	C4H5+
63.0229	7	C5H3+
65.0384	35	C5H5+
76.0308	42	C6H4+
77.0386	57	C6H5+
89.0385	36	C7H5+
91.0542	212	C7H7+
95.0491	19	C6H7O+
102.0464	999	C8H6+
103.0542	292	C8H7+
105.0449	21	C6H5N2+
115.0542	413	C9H7+
116.0622	14	C9H8+
117.0698	43	C9H9+
128.0619	35	C10H8+
130.0412	80	C9H6O+
131.0493	25	C9H7O+
145.0648	11	C10H9O+
