Mass spectrum: Acifluorfen; LC-ESI-QFT; MS2; CE: 45; R=35000; [M-H]-
Name: Acifluorfen
Name: 5-[2-chloranyl-4-(trifluoromethyl)phenoxy]-2-nitro-benzoic acid
Formula: C14H7ClF3NO5
Exact mass: 360.99648
SMILES: Clc2cc(ccc2Oc1cc(C(=O)O)c([N+]([O-])=O)cc1)C(F)(F)F
InChI: InChI=1S/C14H7ClF3NO5/c15-10-5-7(14(16,17)18)1-4-12(10)24-8-2-3-11(19(22)23)9(6-8)13(20)21/h1-6H,(H,20,21)
Instrument: Q Exactive Orbitrap Thermo Scientific
Instrument type: LC-ESI-QFT
Ms type: MS2
Ion mode: NEGATIVE
Ionization: ESI
Fragmentation mode: HCD
Collision energy: 45 (nominal)
Resolution: 35000
Column name: XBridge C18 3.5um, 2.1x50mm, Waters
Retention time: 12.3 min
Base peak: 315.9994
Precursor m/z: 359.9892
Precursor type: [M-H]-
m/z	relative intensity	assigned
65.9986	3	C3NO-
69.0346	19	C4H5O-
95.0139	1	C5H3O2-
97.0295	11	C5H5O2-
107.0139	10	C6H3O2-
123.0089	4	C6H3O3-
125.0244	21	C6H5O3-
137.0118	82	C6H3NO3-
138.0197	1	C6H4NO3-
159.0063	4	C7H2F3O-
174.9766	24	C7H2ClF2O-
182.0172	1	C12H3FO-
194.9831	999	C7H3ClF3O-
198.0297	40	C10H5F3O-
202.0236	5	C12H4F2O-
209.022	3	C11H4F3O-
222.0298	180	C12H5F3O-
226.0249	3	C11H5F3O2-
238.0248	4	C12H5F3O2-
240.0403	10	C12H6N3O3-
258.0067	4	C12H6ClF3O-
284.9943	5	C13H5ClF3O2-
286.0016	2	C13H6ClF3O2-
