Mass spectrum: DDAO; LC-ESI-ITFT; MS2; CE: 75%; R=15000; [M+H]+
Name: DDAO
Name: N,N-dimethyl-1-decanamine oxide
Name: NN-Dimethyldicylamine N-oxide
Formula: C12H27NO
Exact mass: 201.2093
SMILES: N(C)(CCCCCCCCCC)(C)=O
InChI: InChI=1S/C12H27NO/c1-4-5-6-7-8-9-10-11-12-13(2,3)14/h4-12H2,1-3H3
Instrument: LTQ Orbitrap XL Thermo Scientific
Instrument type: LC-ESI-ITFT
Ms type: MS2
Ion mode: POSITIVE
Ionization: ESI
Fragmentation mode: HCD
Collision energy: 75 % (nominal)
Resolution: 15000
Column name: XBridge C18 3.5um, 2.1x50mm, Waters
Retention time: 10.4 min
Base peak: 202.2163
Precursor m/z: 202.2165
Precursor type: [M+H]+
m/z	relative intensity	assigned
56.0494	2	C3H6N+
57.0698	55	C4H9+
58.0651	999	C3H8N+
62.06	85	C2H8NO+
71.0855	11	C5H11+
114.1279	2	C7H16N+
184.2057	43	C12H26N+
202.2167	8	C12H28NO+
