Mass spectrum: Cefaclor; LC-ESI-QFT; MS2; CE: 45; R=35000; [M+H]+
Name: Cefaclor
Name: CEFACLOR
Name: (6R,7R)-7-[[(2R)-2-amino-1-oxo-2-phenylethyl]amino]-3-chloro-8-oxo-5-thia-1-azabicyclo[4.2.0]oct-2-ene-2-carboxylic acid
Formula: C15H14ClN3O4S
Exact mass: 367.03935
SMILES: O=C2N1/C(=C(/Cl)CS[C@@H]1[C@@H]2NC(=O)[C@@H](c3ccccc3)N)C(=O)O
InChI: InChI=1S/C15H14ClN3O4S/c16-8-6-24-14-10(13(21)19(14)11(8)15(22)23)18-12(20)9(17)7-4-2-1-3-5-7/h1-5,9-10,14H,6,17H2,(H,18,20)(H,22,23)/t9-,10-,14-/m1/s1
Instrument: Q Exactive Orbitrap Thermo Scientific
Instrument type: LC-ESI-QFT
Ms type: MS2
Ion mode: POSITIVE
Ionization: ESI
Fragmentation mode: HCD
Collision energy: 45 (nominal)
Resolution: 35000
Column name: XBridge C18 3.5um, 2.1x50mm, Waters
Retention time: 4.1 min
Base peak: 368.0469
Precursor m/z: 368.0466
Precursor type: [M+H]+
m/z	relative intensity	assigned
58.9951	3	C2H3S+
66.0465	1	C5H6+
70.0287	15	C3H4NO+
72.9981	9	C2H3NS+
74.0059	24	C2H4NS+
77.0385	1	C6H5+
79.0542	71	C6H7+
86.0059	20	C3H4NS+
87.9948	36	C3H3ClN+
89.0383	1	C7H5+
90.0105	1	C3H5ClN+
90.0463	8	C7H6+
91.0542	108	C7H7+
93.0447	1	C5H5N2+
95.0491	3	C6H7O+
100.0216	1	C4H6NS+
102.0105	1	C4H5ClN+
103.0543	6	C8H7+
106.0652	999	C7H8N+
114.0008	155	C4H4NOS+
115.0542	3	C9H7+
117.0573	40	C8H7N+
118.0413	356	C8H6O+
118.065	245	C8H8N+
119.0491	39	C8H7O+
120.0805	1	C8H10N+
121.0105	20	C7H5S+
123.0263	28	C7H7S+
125.0167	1	C5H5N2S+
127.0324	4	C5H7N2S+
128.0493	3	C9H6N+
129.0214	10	C5H6ClN2+
130.0652	12	C9H8N+
131.0493	1	C9H7O+
131.0728	1	C9H9N+
132.0445	1	C8H6NO+
132.0807	4	C9H10N+
133.0759	1	C8H9N2+
134.0004	1	C4H5ClNO2+
134.0601	7	C8H8NO+
135.0264	4	C8H7S+
137.0423	5	C8H9S+
143.967	1	C5H3ClNS+
146.0601	84	C9H8NO+
147.0263	18	C9H7S+
150.0373	75	C8H8NS+
155.0007	1	C6H4ClN2O+
156.0808	1	C11H10N+
157.0166	1	C6H6ClN2O+
158.0003	6	C6H5ClNO2+
158.0602	12	C10H8NO+
159.0678	1	C10H9NO+
159.9619	1	C5H3ClNOS+
159.9797	4	C5H3ClNO3+
160.9933	6	C5H6ClN2S+
162.0372	28	C9H8NS+
163.045	4	C9H9NS+
164.0529	51	C9H10NS+
171.9618	3	C6H3ClNOS+
174.0379	21	C10H8NS+
174.055	228	C10H8NO2+
177.9724	134	C5H5ClNO2S+
178.0322	29	C9H8NOS+
181.0759	1	C12H9N2+
182.0842	2	C12H10N2+
188.0529	1	C11H10NS+
189.9724	4	C6H5ClNO2S+
190.0322	7	C10H8NOS+
191.04	116	C10H9NOS+
192.0478	25	C10H10NOS+
198.037	3	C12H8NS+
204.9835	4	C6H6ClN2O2S+
205.9912	3	C6H7ClN2O2S+
209.0709	1	C7H15NO4S+
213.0483	1	C12H9N2S+
215.0642	7	C12H11N2S+
226.0318	1	C13H8NOS+
249.0249	1	C12H10ClN2S+
307.0298	1	C14H12ClN2O2S+
