Mass spectrum: Aspartame; LC-ESI-ITFT; MS2; CE: 30%; R=7500; [M-H]-
Name: Aspartame
Name: 3-amino-4-[(1-benzyl-2-keto-2-methoxy-ethyl)amino]-4-keto-butyric acid
Formula: C14H18N2O5
Exact mass: 294.1216
SMILES: COC(=O)C(CC1=CC=CC=C1)NC(=O)C(CC(=O)O)N
InChI: InChI=1S/C14H18N2O5/c1-21-14(20)11(7-9-5-3-2-4-6-9)16-13(19)10(15)8-12(17)18/h2-6,10-11H,7-8,15H2,1H3,(H,16,19)(H,17,18)/t10-,11-/m0/s1
Instrument: LTQ Orbitrap XL Thermo Scientific
Instrument type: LC-ESI-ITFT
Ms type: MS2
Ion mode: NEGATIVE
Ionization: ESI
Fragmentation mode: HCD
Collision energy: 30 % (nominal)
Resolution: 7500
Column name: XBridge C18 3.5um, 2.1x50mm, Waters
Retention time: 4.8 min
Base peak: 293.1137
Precursor m/z: 293.1143
Precursor type: [M-H]-
m/z	relative intensity	assigned
70.0298	48	C3H4NO-
97.0404	40	C4H5N2O-
126.0437	52	C5H6N2O2-
146.061	336	C9H8NO-
173.1085	196	C11H13N2-
174.0565	111	C10H8NO2-
189.1037	27	C11H13N2O-
199.0878	110	C12H11N2O-
200.0719	999	C12H10NO2-
201.0676	45	C11H9N2O2-
217.0985	552	C12H13N2O2-
243.0776	89	C13H11N2O3-
261.0881	494	C13H13N2O4-
275.1035	98	C14H15N2O4-
