Mass spectrum: Fluconazole; LC-ESI-ITFT; MS2; CE: 90%; R=30000; [M+H]+
Name: Fluconazole
Name: 2-(2,4-difluorophenyl)-1,3-bis(1,2,4-triazol-1-yl)-2-propanol
Formula: C13H12F2N6O
Exact mass: 306.1041
SMILES: OC(CN1C=NC=N1)(CN2C=NC=N2)C3=C(F)C=C(F)C=C3
InChI: InChI=1S/C13H12F2N6O/c14-10-1-2-11(12(15)3-10)13(22,4-20-8-16-6-18-20)5-21-9-17-7-19-21/h1-3,6-9,22H,4-5H2
Instrument: LTQ Orbitrap XL Thermo Scientific
Instrument type: LC-ESI-ITFT
Ms type: MS2
Ion mode: POSITIVE
Ionization: ESI
Fragmentation mode: HCD
Collision energy: 90 % (nominal)
Resolution: 30000
Column name: XBridge C18 3.5um, 2.1x50mm, Waters
Retention time: 5.3 min
Base peak: 307.1126
Precursor m/z: 307.1113
Precursor type: [M+H]+
m/z	relative intensity	assigned
55.0178	15	C3H3O+
70.04	715	C2H4N3+
75.0229	73	C6H3+
77.0386	75	C6H5+
82.04	45	C3H4N3+
83.048	21	C3H5N3+
91.0543	26	C7H7+
101.0386	99	C8H5+
115.0353	37	C6H5F2+
119.0293	35	C8H4F+
119.0492	36	C8H7O+
121.0448	723	C8H6F+
127.0354	994	C7H5F2+
129.0447	872	C8H5N2+
139.0354	999	C8H5F2+
141.0146	144	C7H3F2O+
141.0259	30	C6H3F2N2+
141.051	288	C8H7F2+
146.04	31	C9H5FN+
147.0353	312	C8H4FN2+
151.0354	941	C9H5F2+
166.0462	40	C9H6F2N+
169.046	91	C9H7F2O+
173.0509	71	C10H6FN2+
238.0806	34	C13H12F2O2+
