Mass spectrum: Diethyl-phthalate; LC-ESI-QFT; MS2; CE: 30; R=35000; [M-H]-
Name: Diethyl-phthalate
Name: Diethyl phthalate
Name: Diethyl benzene-1,2-dicarboxylate
Formula: C12H14O4
Exact mass: 222.08921
SMILES: CCOC(=O)C1=CC=CC=C1C(=O)OCC
InChI: InChI=1S/C12H14O4/c1-3-15-11(13)9-7-5-6-8-10(9)12(14)16-4-2/h5-8H,3-4H2,1-2H3
Instrument: Q Exactive Plus Orbitrap Thermo Scientific
Instrument type: LC-ESI-QFT
Ms type: MS2
Ion mode: NEGATIVE
Ionization: ESI
Fragmentation mode: HCD
Collision energy: 30 (nominal)
Resolution: 35000
Column name: XBridge C18 3.5um, 2.1x50mm, Waters
Retention time: 8.7 min
Base peak: 112.9857
Precursor m/z: 221.0819
Precursor type: [M-H]-
m/z	relative intensity	assigned
60.9931	2	CHO3-
69.0346	428	C4H5O-
71.0503	999	C4H7O-
73.066	3	C4H9O-
77.0396	8	C6H5-
93.0347	8	C6H5O-
99.045	6	C5H7O2-
105.0344	3	C7H5O-
107.0503	45	C7H7O-
108.989	2	HN2O5-
121.0296	475	C7H5O2-
134.0374	235	C8H6O2-
135.0453	12	C8H7O2-
147.0089	95	C8H3O3-
147.0816	21	C10H11O-
149.0972	163	C10H13O-
151.0402	7	C8H7O3-
165.0192	24	C8H5O4-
175.0764	18	C11H11O2-
177.0921	163	C11H13O2-
179.0348	13	C9H7O4-
190.9986	23	C9H3O5-
193.087	16	C11H13O3-
221.082	199	C12H13O4-
