Mass spectrum: Atraton; LC-ESI-ITFT; MS2; CE: 60%; R=7500; [M+H]+
Name: Atraton
Name: 4-N-ethyl-6-methoxy-2-N-propan-2-yl-1,3,5-triazine-2,4-diamine
Formula: C9H17N5O
Exact mass: 211.1428
SMILES: COc1nc(NCC)nc(NC(C)C)n1
InChI: InChI=1S/C9H17N5O/c1-5-10-7-12-8(11-6(2)3)14-9(13-7)15-4/h6H,5H2,1-4H3,(H2,10,11,12,13,14)
Instrument: LTQ Orbitrap XL Thermo Scientific
Instrument type: LC-ESI-ITFT
Ms type: MS2
Ion mode: POSITIVE
Ionization: ESI
Fragmentation mode: HCD
Collision energy: 60 % (nominal)
Resolution: 7500
Column name: XBridge C18 3.5um, 2.1x50mm, Waters
Retention time: 5.7 min
Base peak: 212.1507
Precursor m/z: 212.1506
Precursor type: [M+H]+
m/z	relative intensity	assigned
57.0446	28	C2H5N2+
68.0243	70	C2H2N3+
69.0083	47	C2HN2O+
71.0604	23	C3H7N2+
75.0553	54	C2H7N2O+
82.0402	4	C3H4N3+
83.0239	5	C3H3N2O+
85.076	27	C4H9N2+
86.0348	34	C2H4N3O+
96.0556	96	C4H6N3+
97.0397	22	C4H5N2O+
100.0506	157	C3H6N3O+
114.0662	93	C4H8N3O+
128.0819	78	C5H10N3O+
138.0774	11	C5H8N5+
138.1024	6	C7H12N3+
142.0723	123	C4H8N5O+
168.0874	4	C6H10N5O+
170.1037	999	C6H12N5O+
180.1243	4	C8H14N5+
212.1504	284	C9H18N5O+
