Mass spectrum: Mirtazapine; LC-ESI-QFT; MS2; CE: 120; R=35000; [M+H]+
Name: Mirtazapine
Name: 2-Methyl-1,2,3,4,10,14b-hexahydropyrazino[2,1-a]pyrido[2,3-c][2]benzazepine
Formula: C17H19N3
Exact mass: 265.15790
SMILES: CN1CCN2C(C1)C3=CC=CC=C3CC4=C2N=CC=C4
InChI: InChI=1S/C17H19N3/c1-19-9-10-20-16(12-19)15-7-3-2-5-13(15)11-14-6-4-8-18-17(14)20/h2-8,16H,9-12H2,1H3
Instrument: Q Exactive Plus Orbitrap Thermo Scientific
Instrument type: LC-ESI-QFT
Ms type: MS2
Ion mode: POSITIVE
Ionization: ESI
Fragmentation mode: HCD
Collision energy: 120 (nominal)
Resolution: 35000
Column name: XBridge C18 3.5um, 2.1x50mm, Waters
Retention time: 4.7 min
Base peak: 266.1642
Precursor m/z: 266.1652
Precursor type: [M+H]+
m/z	relative intensity	assigned
50.0151	4	C4H2+
51.0229	4	C4H3+
53.0022	1	C3HO+
53.0385	8	C4H5+
54.0337	1	C3H4N+
56.0494	26	C3H6N+
57.0572	11	C3H7N+
58.0651	43	C3H8N+
62.0149	1	C5H2+
63.0228	16	C5H3+
64.0181	1	C4H2N+
64.0306	1	C5H4+
65.0385	269	C5H5+
66.0338	5	C4H4N+
66.0464	1	C5H6+
67.0415	5	C4H5N+
70.065	33	C4H8N+
72.0807	154	C4H10N+
75.0228	1	C6H3+
77.0384	10	C6H5+
78.0337	31	C5H4N+
78.0463	4	C6H6+
79.0415	10	C5H5N+
79.0541	10	C6H7+
80.0493	27	C5H6N+
81.0335	1	C5H5O+
85.0761	1	C4H9N2+
89.0385	39	C7H5+
90.0338	31	C6H4N+
90.0463	7	C7H6+
91.0415	13	C6H5N+
91.0541	72	C7H7+
92.0494	73	C6H6N+
93.0572	12	C6H7N+
95.049	15	C6H7O+
95.0602	1	C5H7N2+
96.0443	39	C5H6NO+
102.0464	1	C8H6+
103.0541	39	C8H7+
104.0493	12	C7H6N+
104.0619	4	C8H8+
105.0447	13	C6H5N2+
105.0698	14	C8H9+
106.065	4	C7H8N+
107.0603	4	C6H7N2+
108.0443	6	C6H6NO+
110.0599	90	C6H8NO+
115.0541	157	C9H7+
116.0493	52	C8H6N+
116.0619	7	C9H8+
117.0446	39	C7H5N2+
117.0571	31	C8H7N+
117.0696	7	C9H9+
118.0524	16	C7H6N2+
118.0649	4	C8H8N+
119.0602	9	C7H7N2+
125.0383	1	C10H5+
126.0463	5	C10H6+
127.054	14	C10H7+
128.0493	15	C9H6N+
128.0619	32	C10H8+
129.0445	5	C8H5N2+
129.0572	8	C9H7N+
129.0699	5	C10H9+
130.065	79	C9H8N+
131.0602	25	C8H7N2+
131.0728	14	C9H9N+
132.068	5	C8H8N2+
132.0806	3	C9H10N+
133.0759	5	C8H9N2+
134.06	5	C8H8NO+
135.0551	21	C7H7N2O+
139.054	32	C11H7+
140.0494	20	C10H6N+
140.0618	29	C11H8+
141.0572	3	C10H7N+
141.0697	68	C11H9+
142.065	5	C10H8N+
143.0603	1	C9H7N2+
143.0728	11	C10H9N+
144.0807	25	C10H10N+
145.0647	10	C10H9O+
146.0599	8	C9H8NO+
150.0462	11	C12H6+
151.054	41	C12H7+
152.0619	91	C12H8+
153.0571	44	C11H7N+
153.0697	26	C12H9+
154.065	25	C11H8N+
154.0775	1	C12H10+
155.0602	30	C10H7N2+
155.073	1	C11H9N+
156.0808	1	C11H10N+
163.0542	4	C13H7+
164.0491	1	C12H6N+
164.0618	8	C13H8+
165.0569	2	C12H7N+
165.0698	40	C13H9+
166.065	117	C12H8N+
167.0728	428	C12H9N+
168.0685	35	C11H8N2+
168.0806	113	C12H10N+
169.0646	96	C12H9O+
170.0596	9	C11H8NO+
176.0619	1	C14H8+
177.0571	45	C13H7N+
178.065	85	C13H8N+
179.0604	67	C12H7N2+
179.0727	115	C13H9N+
180.0688	12	C12H8N2+
180.0805	94	C13H10N+
181.0757	10	C12H9N2+
181.0887	4	C13H11N+
182.0964	1	C13H12N+
184.0755	3	C12H10NO+
189.0695	3	C15H9+
190.0648	13	C14H8N+
191.0601	1	C13H7N2+
191.0727	23	C14H9N+
192.0679	50	C13H8N2+
192.0804	9	C14H10N+
193.0759	384	C13H9N2+
194.0837	999	C13H10N2+
195.0915	156	C13H11N2+
196.0754	7	C13H10NO+
203.0725	1	C15H9N+
204.0552	1	C13H6N3+
204.0803	7	C15H10N+
205.0759	29	C14H9N2+
206.0706	1	C13H8N3+
206.0837	17	C14H10N2+
207.0914	23	C14H11N2+
208.0993	3	C14H12N2+
209.1074	1	C14H13N2+
216.0803	9	C16H10N+
217.0883	1	C16H11N+
218.0836	43	C15H10N2+
219.0915	29	C15H11N2+
221.1065	1	C15H13N2+
231.0921	1	C16H11N2+
