Mass spectrum: Varenicline; LC-ESI-QFT; MS2; CE: 180; R=35000; [M+H]+
Name: Varenicline
Name: 7,8,9,10-tetrahydro-6h-6,10-methanoazepino[4,5-g]quinoxaline
Name: 7,8,9,10-tetrahydro-6,10-Methano-6H-pyrazino[2,3-h][3]benzazepine
Formula: C13H13N3
Exact mass: 211.11095
SMILES: C1C2CNCC1C3=CC4=NC=CN=C4C=C23
InChI: InChI=1S/C13H13N3/c1-2-16-13-5-11-9-3-8(6-14-7-9)10(11)4-12(13)15-1/h1-2,4-5,8-9,14H,3,6-7H2
Instrument: Q Exactive Plus Orbitrap Thermo Scientific
Instrument type: LC-ESI-QFT
Ms type: MS2
Ion mode: POSITIVE
Ionization: ESI
Fragmentation mode: HCD
Collision energy: 180 (nominal)
Resolution: 35000
Column name: XBridge C18 3.5um, 2.1x50mm, Waters
Retention time: 2.7 min
Base peak: 212.118
Precursor m/z: 212.1182
Precursor type: [M+H]+
m/z	relative intensity	assigned
50.0151	49	C4H2+
51.023	33	C4H3+
52.0182	2	C3H2N+
52.0308	2	C4H4+
53.0022	6	C3HO+
53.0386	28	C4H5+
61.0072	11	C5H+
62.0151	70	C5H2+
63.0229	264	C5H3+
64.0182	7	C4H2N+
64.0307	9	C5H4+
65.0386	226	C5H5+
66.0464	8	C5H6+
74.0151	103	C6H2+
75.0229	116	C6H3+
76.0181	9	C5H2N+
76.0307	124	C6H4+
77.0385	60	C6H5+
78.0338	2	C5H4N+
78.0464	32	C6H6+
86.0151	29	C7H2+
87.0229	57	C7H3+
88.0308	220	C7H4+
89.0386	512	C7H5+
90.0339	22	C6H4N+
90.0464	99	C7H6+
91.0543	99	C7H7+
92.0257	9	C6H4O+
92.0494	1	C6H6N+
95.0492	89	C6H7O+
98.0151	49	C8H2+
99.0229	30	C8H3+
100.0307	43	C8H4+
101.0386	20	C8H5+
102.0338	17	C7H4N+
102.0464	99	C8H6+
103.0417	7	C7H5N+
103.0542	19	C8H7+
104.0493	2	C7H6N+
105.0448	54	C6H5N2+
113.0386	351	C9H5+
114.0339	52	
114.0464	334	C9H6+
115.0543	999	C9H7+
116.0495	46	C8H6N+
117.0333	9	C8H5O+
117.0447	11	C7H5N2+
117.0573	9	C8H7N+
118.0413	62	C8H6O+
118.0524	5	C7H6N2+
119.0492	16	C8H7O+
120.0445	5	C7H6NO+
125.0387	32	C10H5+
126.0464	778	C10H6+
127.0416	16	C9H5N+
127.0542	86	C10H7+
128.0495	41	C9H6N+
128.062	185	C10H8+
129.0447	60	C8H5N2+
130.0401	5	C7H4N3+
131.0489	2	C9H7O+
132.057	141	C9H8O+
133.0521	1	C8H7NO+
134.0603	6	C8H8NO+
135.0555	2	C7H7N2O+
138.0338	6	C10H4N+
139.0543	248	C11H7+
140.0495	243	C10H6N+
141.0573	60	C10H7N+
141.07	7	C11H9+
142.0526	31	C9H6N2+
142.0655	6	C10H8N+
143.0604	22	C9H7N2+
145.0648	45	C10H9O+
146.0601	11	C9H8NO+
151.0418	7	C11H5N+
152.0496	10	C11H6N+
153.0573	23	C11H7N+
154.0651	27	C11H8N+
155.0604	136	C10H7N2+
156.068	1	C10H8N2+
157.0521	5	C10H7NO+
164.0495	16	C12H6N+
165.0574	13	C12H7N+
166.0524	7	C11H6N2+
166.0651	18	C12H8N+
167.0604	50	C11H7N2+
168.0682	92	C11H8N2+
169.0762	18	C11H9N2+
170.0599	13	C11H8NO+
179.0603	7	C12H7N2+
180.0555	7	C11H6N3+
180.0684	6	C12H8N2+
181.076	34	C12H9N2+
185.071	2	C11H9N2O+
192.0682	40	C13H8N2+
193.0761	9	C13H9N2+
