Mass spectrum: Chlorthalidone; LC-ESI-QFT; MS2; CE: 15; R=35000; [M-H]-
Name: Chlorthalidone
Name: Chlortalidone
Name: 2-chloranyl-5-(1-oxidanyl-3-oxidanylidene-2H-isoindol-1-yl)benzenesulfonamide
Formula: C14H11ClN2O4S
Exact mass: 338.01281
SMILES: O=S(=O)(N)c1c(Cl)ccc(c1)C2(O)c3ccccc3C(=O)N2
InChI: InChI=1S/C14H11ClN2O4S/c15-11-6-5-8(7-12(11)22(16,20)21)14(19)10-4-2-1-3-9(10)13(18)17-14/h1-7,19H,(H,17,18)(H2,16,20,21)
Instrument: Q Exactive Orbitrap Thermo Scientific
Instrument type: LC-ESI-QFT
Ms type: MS2
Ion mode: NEGATIVE
Ionization: ESI
Fragmentation mode: HCD
Collision energy: 15 (nominal)
Resolution: 35000
Column name: XBridge C18 3.5um, 2.1x50mm, Waters
Retention time: 5.4 min
Base peak: 337.0058
Precursor m/z: 337.0055
Precursor type: [M-H]-
m/z	relative intensity	assigned
61.9707	2	NOS-
77.9655	4	NO2S-
79.9811	19	H2NO2S-
126.0114	5	C6H5ClN-
146.0248	366	C8H4NO2-
153.9969	3	C6H4NO2S-
189.9736	466	C6H5ClNO2S-
233.9631	2	C7H5ClNO4S-
256.0171	20	C14H7ClNO2-
283.0186	12	C14H7N2O3S-
284.0025	1	C14H6NO4S-
294	5	C13H9ClNO3S-
301.0284	13	C14H9N2O4S-
301.9685	14	C14H5ClNO3S-
318.9947	151	C14H8ClN2O3S-
319.9792	18	C14H7ClNO4S-
337.0055	999	C14H10ClN2O4S-
