Mass spectrum: N-desmethylpheniramine; LC-ESI-QFT; MS2; CE: 60; R=35000; [M+H]+
Name: N-desmethylpheniramine
Name: N-methyl-3-phenyl-3-pyridin-2-ylpropan-1-amine
Formula: C15H18N2
Exact mass: 226.14700
SMILES: CNCCC(C1=CC=CC=C1)C2=CC=CC=N2
InChI: InChI=1S/C15H18N2/c1-16-12-10-14(13-7-3-2-4-8-13)15-9-5-6-11-17-15/h2-9,11,14,16H,10,12H2,1H3
Instrument: Q Exactive Plus Orbitrap Thermo Scientific
Instrument type: LC-ESI-QFT
Ms type: MS2
Ion mode: POSITIVE
Ionization: ESI
Fragmentation mode: HCD
Collision energy: 60 (nominal)
Resolution: 35000
Column name: XBridge C18 3.5um, 2.1x50mm, Waters
Retention time: 3.6 min
Base peak: 227.154
Precursor m/z: 227.1543
Precursor type: [M+H]+
m/z	relative intensity	assigned
91.0542	34	C7H7+
110.0601	2	C6H8NO+
117.0572	4	C8H7N+
118.065	29	C8H8N+
119.0729	6	C8H9N+
167.0729	148	C12H9N+
168.0807	314	C12H10N+
180.0806	3	C13H10N+
181.0885	4	C13H11N+
194.0965	8	C14H12N+
195.1043	5	C14H13N+
196.112	999	C14H14N+
