Mass spectrum: Cefadroxil; LC-ESI-QFT; MS2; CE: 15; R=35000; [M-H]-
Name: Cefadroxil
Name: 7-[[2-azaniumyl-2-(4-hydroxyphenyl)acetyl]amino]-3-methyl-8-oxo-5-thia-1-azabicyclo[4.2.0]oct-2-ene-2-carboxylate
Formula: C16H17N3O5S
Exact mass: 363.08889
SMILES: CC1=C(N2C(C(C2=O)NC(=O)C(C3=CC=C(C=C3)O)N)SC1)C(=O)O
InChI: InChI=1S/C16H17N3O5S/c1-7-6-25-15-11(14(22)19(15)12(7)16(23)24)18-13(21)10(17)8-2-4-9(20)5-3-8/h2-5,10-11,15,20H,6,17H2,1H3,(H,18,21)(H,23,24)
Instrument: Q Exactive Plus Orbitrap Thermo Scientific
Instrument type: LC-ESI-QFT
Ms type: MS2
Ion mode: NEGATIVE
Ionization: ESI
Fragmentation mode: HCD
Collision energy: 15 (nominal)
Resolution: 35000
Column name: XBridge C18 3.5um, 2.1x50mm, Waters
Retention time: 2.3 min
Base peak: 362.0818
Precursor m/z: 362.0816
Precursor type: [M-H]-
m/z	relative intensity	assigned
57.9757	7	CNS-
67.0303	1	C3H3N2-
72.0093	3	C2H2NO2-
84.0091	43	C3H2NO2-
87.9864	3	C2H2NOS-
93.0347	12	C6H5O-
96.9993	6	C4H3NS-
100.0227	8	C4H6NS-
100.0406	1	C4H6NO2-
107.0616	13	C6H7N2-
109.0773	2	C6H9N2-
111.0202	33	C4H3N2O2-
112.0229	215	C5H6NS-
117.046	1	C7H5N2-
118.03	21	C7H4NO-
119.0504	11	C8H7O-
119.0615	32	C7H7N2-
120.0457	232	C7H6NO-
124.0227	3	C6H6NS-
124.0402	1	C6H6NO2-
126.0199	9	C5H4NO3-
129.013	25	C4H5N2OS-
131.0374	1	C8H5NO-
132.0456	4	C8H6NO-
132.0568	2	C7H6N3-
133.0296	3	C8H5O2-
134.0726	1	C7H8N3-
135.0566	237	C7H7N2O-
136.0405	1	C7H6NO2-
137.0068	1	C7H5OS-
138.0311	7	C5H4N3O2-
139.0274	1	C6H5NO3-
140.0354	11	C6H6NO3-
142.0333	4	C6H8NOS-
144.0452	1	C9H6NO-
147.0566	1	C8H7N2O-
148.0407	13	C8H6NO2-
150.0566	1	C8H8NO2-
150.0675	8	C7H8N3O-
151.0514	10	C7H7N2O2-
152.0177	8	C7H6NOS-
154.9924	22	C5H3N2O2S-
156.0128	224	C6H6NO2S-
158.0488	1	C9H6N2O-
162.0679	1	C2H14N2O4S-
163.0516	75	C8H7N2O2-
164.083	1	C8H10N3O-
165.0672	12	C8H9N2O2-
169.0444	17	C7H9N2OS-
170.0284	1	C7H8NO2S-
171.0565	3	C10H7N2O-
173.0721	1	C10H9N2O-
175.0515	18	C9H7N2O2-
178.0624	3	C8H8N3O2-
181.0446	6	C8H9N2OS-
182.0284	24	C8H8NO2S-
185.0597	9	C10H7N3O-
187.0516	1	C10H7N2O2-
188.0355	25	C10H6NO3-
189.0672	61	C10H9N2O2-
190.0624	27	C9H8N3O2-
191.0464	1	C9H7N2O3-
191.0698	1	C9H9N3O2-
196.0076	22	C8H6NO3S-
196.0549	1	C8H10N3OS-
197.0393	22	C8H9N2O2S-
197.0593	1	C11H7N3O-
198.0924	1	C13H12NO-
203.0466	9	C10H7N2O3-
205.0622	999	C10H9N2O3-
206.0283	40	C10H8NO2S-
213.1038	14	C13H13N2O-
215.0466	26	C11H7N2O3-
216.0543	1	C11H8N2O3-
217.062	9	C11H9N2O3-
221.0397	6	C10H9N2O2S-
223.0551	221	C10H11N2O2S-
224.0503	113	C9H10N3O2S-
227.0829	15	C13H11N2O2-
229.0981	1	C13H13N2O2-
232.0077	26	C11H6NO3S-
232.0731	63	C11H10N3O3-
239.0829	3	C14H11N2O2-
240.1146	149	C14H14N3O-
241.0988	35	C14H13N2O2-
242.0829	1	C14H12NO3-
249.0343	236	C11H9N2O3S-
255.078	1	C14H11N2O3-
256.1093	11	C14H14N3O2-
257.093	2	C14H13N2O3-
258.0598	36	C14H12NO2S-
267.078	19	C15H11N2O3-
268.0856	35	C15H12N2O3-
272.1046	25	C14H14N3O3-
274.0548	21	C14H12NO3S-
275.0863	17	C14H15N2O2S-
284.1046	948	C15H14N3O3-
291.0813	121	C14H15N2O3S-
301.0656	102	C15H13N2O3S-
318.0922	152	C15H16N3O3S-
