Mass spectrum: Flurtamone; LC-ESI-QFT; MS2; CE: 30; R=35000; [M-H]-
Name: Flurtamone
Name: 5-(methylamino)-2-phenyl-4-[3-(trifluoromethyl)phenyl]furan-3-one
Formula: C18H14F3NO2
Exact mass: 333.09766
SMILES: CNC1=C(C(=O)C(O1)C2=CC=CC=C2)C3=CC(=CC=C3)C(F)(F)F
InChI: InChI=1S/C18H14F3NO2/c1-22-17-14(12-8-5-9-13(10-12)18(19,20)21)15(23)16(24-17)11-6-3-2-4-7-11/h2-10,16,22H,1H3
Instrument: Q Exactive Plus Orbitrap Thermo Scientific
Instrument type: LC-ESI-QFT
Ms type: MS2
Ion mode: NEGATIVE
Ionization: ESI
Fragmentation mode: HCD
Collision energy: 30 (nominal)
Resolution: 35000
Column name: XBridge C18 3.5um, 2.1x50mm, Waters
Retention time: 10.1 min
Base peak: 332.0898
Precursor m/z: 332.0904
Precursor type: [M-H]-
m/z	relative intensity	assigned
134.0611	2	C8H8NO-
145.027	4	C7H4F3-
183.0294	2	C9H4F3N-
185.0217	2	C9H4F3O-
186.056	2	C11H8NO2-
198.0535	7	C10H7F3N-
247.0739	46	C15H10F3-
255.0511	1	C12H8F3NO2-
275.0688	10	C16H10F3O-
291.0635	1	C16H10F3O2-
304.0955	13	C17H13F3NO-
317.0672	1	C17H10F3NO2-
331.0831	1	C18H12F3NO2-
332.0903	999	C18H13F3NO2-
