Mass spectrum: Ketoconazole; LC-ESI-QFT; MS2; CE: 30; R=35000; [M+H]+
Name: Ketoconazole
Name: 1-[4-[4-[[(2R,4S)-2-(2,4-dichlorophenyl)-2-(imidazol-1-ylmethyl)-1,3-dioxolan-4-yl]methoxy]phenyl]piperazin-1-yl]ethanone
Formula: C26H28Cl2N4O4
Exact mass: 530.14876
SMILES: CC(=O)N1CCN(CC1)C2=CC=C(C=C2)OC[C@H]3CO[C@](O3)(CN4C=CN=C4)C5=C(C=C(C=C5)Cl)Cl
InChI: InChI=1S/C26H28Cl2N4O4/c1-19(33)31-10-12-32(13-11-31)21-3-5-22(6-4-21)34-15-23-16-35-26(36-23,17-30-9-8-29-18-30)24-7-2-20(27)14-25(24)28/h2-9,14,18,23H,10-13,15-17H2,1H3/t23-,26-/m0/s1
Instrument: Q Exactive Plus Orbitrap Thermo Scientific
Instrument type: LC-ESI-QFT
Ms type: MS2
Ion mode: POSITIVE
Ionization: ESI
Fragmentation mode: HCD
Collision energy: 30 (nominal)
Resolution: 35000
Column name: XBridge C18 3.5um, 2.1x50mm, Waters
Retention time: 7.9 min
Base peak: 531.1558
Precursor m/z: 531.156
Precursor type: [M+H]+
m/z	relative intensity	assigned
69.0447	2	C3H5N2+
81.0447	2	C4H5N2+
82.0525	30	C4H6N2+
86.06	1	C4H8NO+
112.0757	10	C6H10NO+
135.0678	5	C8H9NO+
167.0814	2	C8H11N2O2+
172.0754	1	C11H10NO+
174.0915	3	C11H12NO+
177.1023	3	C10H13N2O+
178.1101	1	C10H14N2O+
185.9634	1	C8H4Cl2O+
189.1387	1	C12H17N2+
209.0365	2	C11H10ClO2+
216.1019	6	C13H14NO2+
216.1253	1	C13H16N2O+
217.1336	16	C13H17N2O+
219.1129	22	C12H15N2O2+
220.1207	18	C12H16N2O2+
234.1126	4	C13H16NO3+
235.1442	7	C13H19N2O2+
238.0058	3	C11H8Cl2N2+
244.0053	33	C11H10Cl2O2+
247.1442	1	C14H19N2O2+
255.0086	20	C11H9Cl2N2O+
259.1442	6	C15H19N2O2+
267.0088	3	C12H9Cl2N2O+
268.0166	1	C12H10Cl2N2O+
277.1547	3	C15H21N2O3+
282.0321	6	C13H12Cl2N2O+
421.1079	4	C21H23Cl2N2O3+
463.1195	1	C23H25Cl2N2O4+
489.1458	124	C24H27Cl2N4O3+
529.1423	1	C26H27Cl2N4O4+
531.1561	999	C26H29Cl2N4O4+
