Mass spectrum: Dimethachlor ESA; LC-ESI-ITFT; MS2; CE: 35%; R=7500; [M-H]-
Name: Dimethachlor ESA
Name: 2-[(2,6-dimethylphenyl)(2-methoxyethyl)amino]-2-oxoethanesulfonic acid
Formula: C13H19NO5S
Exact mass: 301.0984
SMILES: CC1=C(N(C(CS(O)(=O)=O)=O)CCOC)C(C)=CC=C1
InChI: InChI=1S/C13H19NO5S/c1-10-5-4-6-11(2)13(10)14(7-8-19-3)12(15)9-20(16,17)18/h4-6H,7-9H2,1-3H3,(H,16,17,18)
Instrument: LTQ Orbitrap XL Thermo Scientific
Instrument type: LC-ESI-ITFT
Ms type: MS2
Ion mode: NEGATIVE
Ionization: ESI
Fragmentation mode: CID
Collision energy: 35 % (nominal)
Resolution: 7500
Column name: XBridge C18 3.5um, 2.1x50mm, Waters
Retention time: 5.9 min
Base peak: 300.0909
Precursor m/z: 300.0911
Precursor type: [M-H]-
m/z	relative intensity	assigned
76.9702	12	CHO2S-
119.9764	6	C2H2NO3S-
120.96	999	C2HO4S-
130.0658	8	C9H8N-
144.0815	10	C10H10N-
146.0974	95	C10H12N-
162.9943	11	C4H5NO4S-
178.018	62	C5H8NO4S-
178.1236	22	C11H16NO-
186.0925	5	C12H12NO-
204.1027	35	C12H14NO2-
236.1287	7	C13H18NO3-
268.0647	65	C12H14NO4S-
