Mass spectrum: Clobazam; LC-ESI-QFT; MS2; CE: 120; R=35000; [M+H]+
Name: Clobazam
Name: 7-chloro-1-methyl-5-phenyl-1,5-benzodiazepine-2,4-dione
Formula: C16H13ClN2O2
Exact mass: 300.06656
SMILES: CN1C(=O)CC(=O)N(C2=C1C=CC(=C2)Cl)C3=CC=CC=C3
InChI: InChI=1S/C16H13ClN2O2/c1-18-13-8-7-11(17)9-14(13)19(16(21)10-15(18)20)12-5-3-2-4-6-12/h2-9H,10H2,1H3
Instrument: Q Exactive Plus Orbitrap Thermo Scientific
Instrument type: LC-ESI-QFT
Ms type: MS2
Ion mode: POSITIVE
Ionization: ESI
Fragmentation mode: HCD
Collision energy: 120 (nominal)
Resolution: 35000
Column name: XBridge C18 3.5um, 2.1x50mm, Waters
Retention time: 8.4 min
Base peak: 301.073
Precursor m/z: 301.0738
Precursor type: [M+H]+
m/z	relative intensity	assigned
50.0151	94	C4H2+
51.0229	73	C4H3+
53.0386	174	C4H5+
55.0178	13	C3H3O+
62.0149	1	C5H2+
63.0229	79	C5H3+
64.0181	6	C4H2N+
64.0307	5	C5H4+
65.0385	175	C5H5+
66.0338	2	C4H4N+
66.0464	53	C5H6+
67.0416	1	C4H5N+
67.0542	2	C5H7+
68.9971	85	C3HO2+
72.9839	19	C3H2Cl+
74.015	2	C6H2+
75.0228	25	C6H3+
76.018	4	C5H2N+
76.0304	1	C6H4+
77.0385	406	C6H5+
78.0338	28	C5H4N+
78.0463	18	C6H6+
79.0541	5	C6H7+
80.0494	4	C5H6N+
81.0335	29	C5H5O+
86.9996	9	C4H4Cl+
89.0385	4	C7H5+
90.0338	420	C6H4N+
91.0416	113	C6H5N+
91.0542	104	C7H7+
92.0494	263	C6H6N+
93.0335	1	C6H5O+
93.0446	1	C5H5N2+
93.0573	25	C6H7N+
94.0413	11	C6H6O+
95.0491	530	C6H7O+
96.0443	6	C5H6NO+
98.9995	112	C5H4Cl+
100.0072	1	C5H5Cl+
100.0181	1	C7H2N+
102.0337	8	C7H4N+
102.0461	1	C8H6+
103.0291	1	C6H3N2+
103.0417	1	C7H5N+
103.0542	1	C8H7+
104.0494	36	C7H6N+
105.0335	124	C7H5O+
105.0447	392	C6H5N2+
106.0286	6	C6H4NO+
107.0602	5	C6H7N2+
108.0444	12	C6H6NO+
109.0648	1	C7H9O+
110.9994	4	C6H4Cl+
111.9948	5	C5H3ClN+
112.0075	9	C6H5Cl+
113.0026	7	C5H4ClN+
114.0105	19	C5H5ClN+
115.0542	11	C9H7+
116.0494	2	C8H6N+
117.0447	276	C7H5N2+
118.0525	596	C7H6N2+
119.0603	130	C7H7N2+
120.0443	5	C7H6NO+
123.995	11	C6H3ClN+
125.0028	7	C6H4ClN+
126.0105	65	C6H5ClN+
127.0182	8	C6H6ClN+
127.054	12	C10H7+
128.026	4	C6H7ClN+
128.0494	18	C9H6N+
128.062	5	C10H8+
129.0102	7	C6H6ClO+
129.0446	58	C8H5N2+
130.04	26	C7H4N3+
130.065	2	C9H8N+
131.0603	4	C8H7N2+
133.0394	1	C7H5N2O+
135.0552	31	C7H7N2O+
137.0027	4	C7H4ClN+
138.0106	12	C7H5ClN+
139.0057	36	C6H4ClN2+
139.0542	54	C11H7+
139.9898	20	C6H3ClNO+
140.026	16	C7H7ClN+
140.0494	48	C10H6N+
140.062	7	C11H8+
141.0213	15	C6H6ClN2+
141.0573	1	C10H7N+
141.0697	6	C11H9+
143.0605	2	C9H7N2+
145.0508	186	C7H5N4+
145.0645	12	C10H9O+
146.0477	2	C8H6N2O+
146.0601	17	C9H8NO+
147.0553	59	C8H7N2O+
148.063	12	C8H8N2O+
150.0422	13	C7H6N2O2+
150.0471	1	C12H6+
151.0543	6	C12H7+
152.0139	12	C7H5ClN2+
152.0494	15	C11H6N+
152.0619	13	C12H8+
153.0214	487	C7H6ClN2+
154.0651	212	C11H8N+
155.0603	44	C10H7N2+
156.0682	6	C10H8N2+
162.0107	1	C9H5ClN+
163.0057	13	C8H4ClN2+
164.0008	9	C10N2O+
164.049	9	C12H6N+
165.0214	25	C8H6ClN2+
165.0572	2	C12H7N+
166.0651	247	C12H8N+
167.0729	409	C12H9N+
168.0084	6	C7H5ClN2O+
168.0682	50	C11H8N2+
168.0805	30	C12H10N+
169.0648	11	C12H9O+
169.0758	10	C11H9N2+
170.0597	13	C11H8NO+
170.0839	1	C11H10N2+
171.0553	10	C10H7N2O+
174.0104	2	C10H5ClN+
177.0572	5	C13H7N+
178.065	26	C13H8N+
179.0603	220	C12H7N2+
179.0722	35	C13H9N+
180.0682	263	C12H8N2+
180.0804	99	C13H10N+
181.0163	60	C8H6ClN2O+
181.0759	332	C12H9N2+
182.0241	13	C8H7ClN2O+
182.0602	16	C12H8NO+
182.0839	40	C12H10N2+
183.0319	6	C8H8ClN2O+
183.0911	1	C12H11N2+
188.0263	5	C11H7ClN+
189.0209	1	C13H3NO+
190.0292	7	C10H7ClN2+
191.0368	5	C10H8ClN2+
191.06	6	C13H7N2+
192.0681	1	C13H8N2+
193.0761	23	C13H9N2+
194.0839	34	C13H10N2+
195.0917	520	C13H11N2+
196.0756	17	C13H10NO+
197.0711	12	C12H9N2O+
200.0262	5	C12H7ClN+
201.0336	3	C15H5O+
202.0294	9	C11H7ClN2+
202.0415	1	C15H6O+
203.0369	23	C11H8ClN2+
205.0761	25	C14H9N2+
206.0837	10	C14H10N2+
207.0916	24	C14H11N2+
208.0631	54	C13H8N2O+
209.071	30	C13H9N2O+
212.0583	1	C12H8N2O2+
214.0296	5	C12H7ClN2+
214.0418	13	C13H9ClN+
215.037	999	C12H8ClN2+
216.0448	96	C15H6NO+
217.0527	19	C12H10ClN2+
221.0705	2	C14H9N2O+
222.0786	4	C14H10N2O+
223.0865	138	C14H11N2O+
224.0944	11	C14H12N2O+
229.0525	13	
243.0317	2	C16H5NO2+
244.0394	1	C16H6NO2+
257.0471	2	C14H10ClN2O+
