Mass spectrum: Meclofenamic Acid; LC-ESI-QFT; MS2; CE: 180; R=35000; [M+H]+
Name: Meclofenamic Acid
Name: 2-(2,6-dichloro-3-methylanilino)benzoic acid
Formula: C14H11Cl2NO2
Exact mass: 295.01668
SMILES: CC1=C(C(=C(C=C1)Cl)NC2=CC=CC=C2C(=O)O)Cl
InChI: InChI=1S/C14H11Cl2NO2/c1-8-6-7-10(15)13(12(8)16)17-11-5-3-2-4-9(11)14(18)19/h2-7,17H,1H3,(H,18,19)
Instrument: Q Exactive Plus Orbitrap Thermo Scientific
Instrument type: LC-ESI-QFT
Ms type: MS2
Ion mode: POSITIVE
Ionization: ESI
Fragmentation mode: HCD
Collision energy: 180 (nominal)
Resolution: 35000
Column name: XBridge C18 3.5um, 2.1x50mm, Waters
Retention time: 14.0 min
Base peak: 296.0233
Precursor m/z: 296.024
Precursor type: [M+H]+
m/z	relative intensity	assigned
50.0151	141	C4H2+
51.0229	80	C4H3+
52.0182	5	C3H2N+
52.0308	2	C4H4+
53.0386	65	C4H5+
55.0179	5	C3H3O+
61.0073	9	C5H+
62.0151	31	C5H2+
63.0229	135	C5H3+
64.0308	10	C5H4+
65.0022	15	C4HO+
65.0386	21	C5H5+
66.0464	15	C5H6+
72.9839	11	C3H2Cl+
74.0151	112	C6H2+
75.0229	308	C6H3+
76.0181	23	C5H2N+
76.0307	103	C6H4+
77.0385	150	C6H5+
78.0338	6	C5H4N+
78.0464	58	C6H6+
79.0179	2	C5H3O+
81.0335	11	C5H5O+
84.9839	2	C4H2Cl+
86.015	18	C7H2+
87.0229	54	C7H3+
88.0182	16	C6H2N+
88.0307	18	C7H4+
89.0386	99	C7H5+
90.0464	17	C7H6+
91.0543	9	C7H7+
92.0256	4	C6H4O+
94.0413	8	C6H6O+
95.0491	178	C6H7O+
98.0151	52	C8H2+
99.0229	134	C8H3+
100.0182	11	C7H2N+
100.0307	37	C8H4+
101.0386	39	C8H5+
102.0338	31	C7H4N+
102.0464	124	C8H6+
103.0416	12	C7H5N+
103.0543	13	C8H7+
104.0495	5	C7H6N+
105.0447	148	C6H5N2+
111.0229	14	C9H3+
113.0385	83	C9H5+
114.0339	21	C8H4N+
114.0465	9	C9H6+
115.0542	50	C9H7+
116.0495	5	C8H6N+
117.0572	7	C8H7N+
117.0704	1	C9H9+
118.0412	4	C8H6O+
119.0492	31	C8H7O+
120.0444	7	C7H6NO+
122.9994	3	C7H4Cl+
123.0229	17	C10H3+
124.0307	16	C10H4+
125.0386	187	C10H5+
126.0464	316	C10H6+
127.0417	62	C9H5N+
127.0542	59	C10H7+
128.0495	102	C9H6N+
128.062	28	C10H8+
129.0447	117	C8H5N2+
129.0573	15	C9H7N+
130.0289	2	C8H4NO+
130.04	28	C7H4N3+
130.0651	5	C9H8N+
132.0441	1	C8H6NO+
137.0386	45	C11H5+
138.0339	9	C10H4N+
138.0463	12	C11H6+
139.0543	32	C11H7+
140.0495	63	C10H6N+
141.0573	8	C10H7N+
143.0492	32	C10H7O+
145.0648	26	C10H9O+
146.06	23	C9H8NO+
147	1	C9H4Cl+
149.0386	51	C12H5+
150.0464	999	C12H6+
151.0417	51	C11H5N+
151.0542	197	C12H7+
152.0495	131	C11H6N+
152.062	500	C12H8+
153.0447	23	C10H5N2+
153.0573	87	C11H7N+
153.07	4	C12H9+
154.0652	13	C11H8N+
155.0494	6	C11H7O+
155.0603	75	C10H7N2+
157.0523	4	C10H7NO+
161.0385	2	C13H5+
163.0542	8	C13H7+
164.0495	51	C12H6N+
165.0573	2	C12H7N+
167.0492	14	C12H7O+
168.0437	1	C11H6NO+
168.0569	7	C12H8O+
169.0648	542	C12H9O+
170.06	69	C11H8NO+
174.011	3	C10H5ClN+
175.0417	30	C13H5N+
176.0495	42	C13H6N+
177.0573	442	C13H7N+
178.0651	478	C13H8N+
179.0604	215	C12H7N2+
179.0724	56	C13H9N+
180.0558	16	C11H6N3+
180.0807	6	C13H10N+
181.052	2	C12H7NO+
183.0806	5	C13H11O+
185.0473	8	C11H7NO2+
185.0595	10	C12H9O2+
186.0227	1	C12H7Cl+
188.0495	5	C14H6N+
194.0601	33	C13H8NO+
196.0756	5	C13H10NO+
204.0557	37	C13H6N3+
209.0471	8	C13H7NO2+
211.0629	1	C13H9NO2+
212.0262	1	C13H7ClN+
213.0341	2	C13H8ClN+
