Mass spectrum: Eprosartan; LC-ESI-ITFT; MS2; CE: 35%; R=7500; [M+H]+
Name: Eprosartan
Name: 4-[[2-butyl-5-[(E)-3-hydroxy-3-keto-2-(2-thenyl)prop-1-enyl]imidazol-1-yl]methyl]benzoic acid
Formula: C23H24N2O4S
Exact mass: 424.1457
SMILES: CCCCC1=NC=C(N1CC2=CC=C(C=C2)C(=O)O)/C=C(\CC3=CC=CS3)/C(=O)O
InChI: InChI=1S/C23H24N2O4S/c1-2-3-6-21-24-14-19(12-18(23(28)29)13-20-5-4-11-30-20)25(21)15-16-7-9-17(10-8-16)22(26)27/h4-5,7-12,14H,2-3,6,13,15H2,1H3,(H,26,27)(H,28,29)/b18-12+
Instrument: LTQ Orbitrap XL Thermo Scientific
Instrument type: LC-ESI-ITFT
Ms type: MS2
Ion mode: POSITIVE
Ionization: ESI
Fragmentation mode: CID
Collision energy: 35 % (nominal)
Resolution: 7500
Column name: XBridge C18 3.5um, 2.1x50mm, Waters
Retention time: 6.3 min
Base peak: 425.154
Precursor m/z: 425.153
Precursor type: [M+H]+
m/z	relative intensity	assigned
135.044	7	C8H7O2+
163.1229	141	C10H15N2+
179.1176	5	C10H15N2O+
189.1025	16	C11H13N2O+
205.0969	16	C11H13N2O2+
207.1129	999	C11H15N2O2+
245.1105	105	C14H17N2S+
272.0978	82	C15H16N2OS+
273.1055	232	C15H17N2OS+
290.1078	33	C15H18N2O2S+
291.1157	17	C15H19N2O2S+
297.1592	16	C18H21N2O2+
311.1401	15	C18H19N2O3+
323.1381	17	C19H19N2O3+
341.1495	842	C19H21N2O4+
379.147	74	C22H23N2O2S+
381.1636	18	C22H25N2O2S+
389.1319	70	C23H21N2O2S+
407.1422	602	C23H23N2O3S+
