Mass spectrum: Fenarimol; LC-ESI-QFT; MS2; CE: 120%; R=17500; [M+H]+
Name: Fenarimol
Name: (2-chlorophenyl)-(4-chlorophenyl)-pyrimidin-5-ylmethanol
Formula: C17H12Cl2N2O
Exact mass: 330.0327
SMILES: C1=CC=C(C(=C1)C(C2=CC=C(C=C2)Cl)(C3=CN=CN=C3)O)Cl
InChI: InChI=1S/C17H12Cl2N2O/c18-14-7-5-12(6-8-14)17(22,13-9-20-11-21-10-13)15-3-1-2-4-16(15)19/h1-11,22H
Instrument: Exploris 240 Orbitrap Thermo Scientific
Instrument type: LC-ESI-QFT
Ms type: MS2
Ion mode: POSITIVE
Ionization: ESI
Fragmentation mode: HCD
Collision energy: 120 % (nominal)
Resolution: 17500
Column name: XBridge C18 3.5um, 2.1x50mm, Waters
Retention time: 9.833 min
Base peak: 328.0614
Precursor m/z: 331.0399
Precursor type: [M+H]+
m/z	relative intensity	assigned
52.0182	50	C3H2N+
53.0021	32	C3HO+
54.0338	987	C3H4N+
81.0447	723	C4H5N2+
86.9996	70	C4H4Cl+
103.0541	26	C8H7+
110.9995	296	C6H4Cl+
128.0494	25	C9H6N+
129.01	166	C6H6ClO+
138.9942	234	C7H4ClO+
139.006	999	C6H4ClN2+
152.062	50	C12H8+
163.0543	71	C13H7+
176.0624	84	C14H8+
177.0702	52	C14H9+
178.0781	98	C14H10+
187.0544	152	C15H7+
188.062	151	C15H8+
189.0699	861	C15H9+
203.0727	50	C15H9N+
204.0812	103	C15H10N+
205.0645	53	C15H9O+
214.0656	58	C16H8N+
216.0801	51	C16H10N+
223.0308	74	C15H8Cl+
