Mass spectrum: Thiamethoxam; LC-ESI-ITFT; MS2; CE: 90%; R=30000; [M+H]+
Name: Thiamethoxam
Name: 3-((2-Chloro-5-thiazolyl)methyl)tetrahydro-5-methyl-N-nitro-4H-1,3,5-oxadiazin-4-imine
Formula: C8H10ClN5O3S
Exact mass: 291.0193
SMILES: Clc1ncc(s1)CN2\C(=N\[N+]([O-])=O)N(C)COC2
InChI: InChI=1S/C8H10ClN5O3S/c1-12-4-17-5-13(8(12)11-14(15)16)3-6-2-10-7(9)18-6/h2H,3-5H2,1H3/b11-8+
Instrument: LTQ Orbitrap XL Thermo Scientific
Instrument type: LC-ESI-ITFT
Ms type: MS2
Ion mode: POSITIVE
Ionization: ESI
Fragmentation mode: HCD
Collision energy: 90 % (nominal)
Resolution: 30000
Column name: XBridge C18 3.5um, 2.1x50mm, Waters
Retention time: 4.1 min
Base peak: 292.0274
Precursor m/z: 292.0266
Precursor type: [M+H]+
m/z	relative intensity	assigned
54.0337	8	C3H4N+
57.0446	10	C2H5N2+
61.9793	4	CHClN+
66.0338	4	C4H4N+
67.029	13	C3H3N2+
67.0416	71	C4H5N+
68.0494	5	C4H6N+
69.0447	95	C3H5N2+
69.9873	2	C3H2S+
70.995	199	C3H3S+
71.9902	10	C2H2NS+
78.9403	14	CClS+
79.029	15	C4H3N2+
80.0495	4	C5H6N+
81.0447	61	C4H5N2+
81.0572	20	C5H7N+
82.0525	10	C4H6N2+
82.9823	23	C3HNS+
83.9902	40	C3H2NS+
86.0061	4	C3H4NS+
87.9948	28	C3H3ClN+
92.0367	5	C5H4N2+
93.0446	20	C5H5N2+
94.0399	3	C4H4N3+
94.0525	24	C5H6N2+
95.0603	26	C5H7N2+
95.9902	10	C4H2NS+
96.0553	4	C4H6N3+
97.0396	13	C4H5N2O+
98.0058	156	C4H4NS+
99.001	34	C3H3N2S+
99.0134	4	C4H5NS+
106.0398	8	C5H4N3+
107.0476	10	C5H5N3+
108.0556	656	C5H6N3+
110.0713	5	C5H8N3+
111.0011	46	C4H3N2S+
112.0088	4	C4H4N2S+
112.0214	24	C5H6NS+
113.0168	25	C4H5N2S+
116.0704	2	C5H10NO2+
118.959	6	C3H2ClNS+
120.0554	5	C6H6N3+
121.0632	3	C6H7N3+
122.0712	169	C6H8N3+
123.001	9	C5H3N2S+
123.079	62	C6H9N3+
124.0088	48	C5H4N2S+
125.0167	161	C5H5N2S+
126.0246	6	C5H6N2S+
131.9669	999	C4H3ClNS+
132.9746	33	C4H4ClNS+
138.0119	71	C5H4N3S+
138.0242	9	C6H6N2S+
139.0195	4	C5H5N3S+
139.0325	3	C6H7N2S+
140.0275	3	C5H6N3S+
145.9698	3	C4H3ClN2S+
147.0663	9	C7H7N4+
148.0737	4	C7H8N4+
151.0197	73	C6H5N3S+
152.0275	347	C6H6N3S+
154.0431	10	C6H8N3S+
165.0228	27	C6H5N4S+
166.0305	11	C6H6N4S+
171.9723	5	C8N2OS+
174.9725	10	C8HNO2S+
179.0383	8	C7H7N4S+
181.054	36	C7H9N4S+
211.0695	8	C7H9N5O3+
215.0148	2	C7H8ClN4S+
