Mass spectrum: Dimoxystrobin; LC-ESI-QFT; MS2; CE: 15; R=35000; [M+H]+
Name: Dimoxystrobin
Name: 2-[2-[(2,5-dimethylphenoxy)methyl]phenyl]-2-methoxyimino-N-methylacetamide
Formula: C19H22N2O3
Exact mass: 326.16304
SMILES: CC1=CC(=C(C=C1)C)OCC2=CC=CC=C2C(=NOC)C(=O)NC
InChI: InChI=1S/C19H22N2O3/c1-13-9-10-14(2)17(11-13)24-12-15-7-5-6-8-16(15)18(21-23-4)19(22)20-3/h5-11H,12H2,1-4H3,(H,20,22)
Instrument: Q Exactive Plus Orbitrap Thermo Scientific
Instrument type: LC-ESI-QFT
Ms type: MS2
Ion mode: POSITIVE
Ionization: ESI
Fragmentation mode: HCD
Collision energy: 15 (nominal)
Resolution: 35000
Column name: XBridge C18 3.5um, 2.1x50mm, Waters
Retention time: 12.4 min
Base peak: 327.1694
Precursor m/z: 327.1703
Precursor type: [M+H]+
m/z	relative intensity	assigned
58.0286	33	C2H4NO+
116.0494	121	C8H6N+
118.065	1	C8H8N+
121.0646	1	C8H9O+
134.06	4	C8H8NO+
148.0758	1	C9H10NO+
182.0964	1	C13H12N+
196.1124	1	C14H14N+
205.0972	999	C11H13N2O2+
207.1126	2	C11H15N2O2+
210.1276	8	C15H16N+
223.0988	4	C15H13NO+
238.1226	165	C16H16NO+
249.0907	1	C17H13O2+
280.1332	43	C18H18NO2+
