Mass spectrum: Bexarotene; LC-ESI-QFT; MS2; CE: 90; R=35000; [M+H]+
Name: Bexarotene
Name: 4-[1-(3,5,5,8,8-pentamethyl-6,7-dihydronaphthalen-2-yl)ethenyl]benzoic acid
Formula: C24H28O2
Exact mass: 348.20893
SMILES: CC1=CC2=C(C=C1C(=C)C3=CC=C(C=C3)C(=O)O)C(CCC2(C)C)(C)C
InChI: InChI=1S/C24H28O2/c1-15-13-20-21(24(5,6)12-11-23(20,3)4)14-19(15)16(2)17-7-9-18(10-8-17)22(25)26/h7-10,13-14H,2,11-12H2,1,3-6H3,(H,25,26)
Instrument: Q Exactive Orbitrap Thermo Scientific
Instrument type: LC-ESI-QFT
Ms type: MS2
Ion mode: POSITIVE
Ionization: ESI
Fragmentation mode: HCD
Collision energy: 90 (nominal)
Resolution: 35000
Column name: XBridge C18 3.5um, 2.1x50mm, Waters
Retention time: 19.0 min
Base peak: 349.2162
Precursor m/z: 349.2162
Precursor type: [M+H]+
m/z	relative intensity	assigned
50.0152	4	C4H2+
53.0023	8	C3HO+
53.0387	4	C4H5+
55.0543	1	C4H7+
57.0699	4	C4H9+
65.0386	34	C5H5+
67.0542	26	C5H7+
69.0699	210	C5H9+
74.0966	2	C4H12N+
75.0229	8	C6H3+
77.0385	96	C6H5+
79.0542	125	C6H7+
81.0334	10	C5H5O+
81.0698	15	C6H9+
83.0855	7	C6H11+
89.0386	4	C7H5+
91.0542	428	C7H7+
93.0698	4	C7H9+
95.0491	413	C6H7O+
101.0383	4	C8H5+
102.0464	89	C8H6+
103.0542	999	C8H7+
105.0447	168	C6H5N2+
105.0699	232	C8H9+
107.0491	208	C7H7O+
115.0542	234	C9H7+
116.0619	23	C9H8+
117.0698	134	C9H9+
119.0491	95	C8H7O+
119.0854	29	C9H11+
121.0647	3	C8H9O+
127.0542	13	C10H7+
128.062	346	C10H8+
129.0334	102	C9H5O+
129.0445	43	C8H5N2+
129.0698	255	C10H9+
130.0777	13	C10H10+
131.0492	22	C9H7O+
131.0855	42	C10H11+
133.0284	7	C8H5O2+
133.1012	12	C10H13+
134.036	5	C8H6O2+
135.044	181	C8H7O2+
141.0698	217	C11H9+
142.0778	135	C11H10+
143.0856	73	C11H11+
144.0933	2	C11H12+
145.0649	33	C10H9O+
145.1011	18	C11H13+
147.044	536	C9H7O2+
149.0597	12	C9H9O2+
152.0619	23	C12H8+
153.0698	71	C12H9+
154.0777	44	C12H10+
155.0604	40	C10H7N2+
155.0855	175	C12H11+
156.0934	67	C12H12+
157.1012	42	C12H13+
158.1091	2	C12H14+
159.0443	4	C10H7O2+
159.1168	9	C12H15+
165.0699	137	C13H9+
166.0777	25	C13H10+
167.0855	67	C13H11+
168.0933	55	C13H12+
169.1012	91	C13H13+
170.109	28	C13H14+
171.1168	20	C13H15+
173.0595	2	C11H9O2+
177.0699	10	C14H9+
178.0777	320	C14H10+
179.0854	96	C14H11+
180.0936	14	C14H12+
181.1011	11	C14H13+
182.1089	28	C14H14+
183.1169	57	C14H15+
184.1248	10	C14H16+
189.0698	71	C15H9+
190.0777	135	C15H10+
191.0855	588	C15H11+
192.0933	225	C15H12+
193.1013	24	C15H13+
194.0727	4	C14H10O+
195.0803	3	C14H11O+
195.1166	2	C15H15+
197.1325	62	C15H17+
202.0776	110	C16H10+
203.0854	204	C16H11+
204.0934	172	C16H12+
205.1012	171	C16H13+
206.1092	40	C16H14+
207.0801	3	C15H11O+
207.117	10	C16H15+
211.1478	8	C16H19+
215.0855	105	C17H11+
216.0933	109	C17H12+
217.1013	129	C17H13+
218.1091	78	C17H14+
219.0812	14	C16H11O+
219.1168	51	C17H15+
220.1241	3	C17H16+
222.0674	5	C15H10O2+
223.0752	3	C15H11O2+
228.093	15	C18H12+
229.1012	64	C18H13+
230.1091	88	C18H14+
231.08	14	C17H11O+
231.1168	121	C18H15+
232.0887	2	C17H12O+
232.1248	19	C18H16+
233.0958	4	C17H13O+
233.1325	11	C18H17+
235.0755	39	C16H11O2+
236.0832	24	C16H12O2+
243.0794	2	C18H11O+
243.1166	24	C19H15+
244.1246	30	C19H16+
245.0959	10	C18H13O+
245.1325	79	C19H17+
246.104	3	C18H14O+
246.1401	3	C19H18+
247.1121	2	C18H15O+
248.083	2	C17H12O2+
249.0912	22	C17H13O2+
250.0989	3	C17H14O2+
251.1066	12	C17H15O2+
257.096	4	C19H13O+
257.1318	3	C20H17+
258.1409	3	C20H18+
259.1118	4	C19H15O+
259.1482	22	C20H19+
261.0911	15	C18H13O2+
262.0987	9	C18H14O2+
263.107	19	C18H15O2+
264.1152	2	C18H16O2+
271.1114	4	C20H15O+
273.127	3	C20H17O+
275.1067	59	C19H15O2+
276.1148	14	C19H16O2+
289.1221	31	C20H17O2+
290.1299	18	C20H18O2+
304.1456	4	C21H20O2+
