Mass spectrum: Mianserin; LC-ESI-QFT; MS2; CE: 120; R=35000; [M+H]+
Name: Mianserin
Name: 2-Methyl-1,2,3,4,10,14b-hexahydrodibenzo[c,f]pyrazino[1,2-a]azepine
Formula: C18H20N2
Exact mass: 264.16265
SMILES: CN1CCN2C(C1)C3=CC=CC=C3CC4=CC=CC=C42
InChI: InChI=1S/C18H20N2/c1-19-10-11-20-17-9-5-3-7-15(17)12-14-6-2-4-8-16(14)18(20)13-19/h2-9,18H,10-13H2,1H3
Instrument: Q Exactive Plus Orbitrap Thermo Scientific
Instrument type: LC-ESI-QFT
Ms type: MS2
Ion mode: POSITIVE
Ionization: ESI
Fragmentation mode: HCD
Collision energy: 120 (nominal)
Resolution: 35000
Column name: XBridge C18 3.5um, 2.1x50mm, Waters
Retention time: 6.5 min
Base peak: 265.1696
Precursor m/z: 265.1699
Precursor type: [M+H]+
m/z	relative intensity	assigned
50.0151	17	C4H2+
51.0229	18	C4H3+
53.0386	43	C4H5+
53.9975	1	C2NO+
54.0338	1	C3H4N+
55.0179	1	C3H3O+
55.0417	1	C3H5N+
56.0495	113	C3H6N+
57.0573	10	C3H7N+
58.0651	566	C3H8N+
62.0149	2	C5H2+
63.0228	15	C5H3+
64.0306	1	C5H4+
65.0386	342	C5H5+
66.0464	7	C5H6+
67.0417	1	C4H5N+
67.0542	1	C5H7+
70.0651	49	C4H8N+
72.0807	5	C4H10N+
77.0385	80	C6H5+
78.0338	4	C5H4N+
78.0464	32	C6H6+
79.0542	83	C6H7+
80.0494	7	C5H6N+
81.0334	6	C5H5O+
82.065	5	C5H8N+
83.0604	1	C4H7N2+
85.076	27	C4H9N2+
89.0385	113	C7H5+
90.0464	78	C7H6+
91.0542	999	C7H7+
92.0495	24	C6H6N+
93.0573	22	C6H7N+
93.0698	5	C7H9+
94.0414	1	C6H6O+
94.0651	6	C6H8N+
95.0491	156	C6H7O+
96.0444	5	C5H6NO+
102.0463	10	C8H6+
103.0542	151	C8H7+
104.0494	13	C7H6N+
104.062	14	C8H8+
105.0447	79	C6H5N2+
105.0699	52	C8H9+
106.0651	90	C7H8N+
107.073	1	C7H9N+
109.0648	2	C7H9O+
115.0542	463	C9H7+
116.0495	51	C8H6N+
116.062	39	C9H8+
117.0573	182	C8H7N+
117.0698	53	C9H9+
118.0651	153	C8H8N+
119.0604	2	C7H7N2+
119.0729	10	C8H9N+
119.0855	4	C9H11+
120.0808	17	C8H10N+
127.0543	6	C10H7+
128.0494	27	C9H6N+
128.062	81	C10H8+
129.0447	6	C8H5N2+
129.0572	7	C9H7N+
129.0698	16	C10H9+
130.0651	225	C9H8N+
131.0603	8	C8H7N2+
131.0729	49	C9H9N+
132.0807	14	C9H10N+
134.0601	2	C8H8NO+
139.0542	2	C11H7+
141.0698	10	C11H9+
142.0652	12	C10H8N+
143.0729	34	C10H9N+
144.0808	105	C10H10N+
145.0648	7	C10H9O+
145.076	4	C9H9N2+
145.0885	7	C10H11N+
146.06	15	C9H8NO+
146.0964	13	C10H12N+
151.0544	4	C12H7+
152.062	47	C12H8+
153.0571	1	C11H7N+
153.0696	10	C12H9+
154.0651	5	C11H8N+
155.0604	17	C10H7N2+
156.0807	19	C11H10N+
157.0886	8	C11H11N+
158.0966	8	C11H12N+
159.0918	1	C10H11N2+
161.1073	5	C10H13N2+
163.0539	2	C13H7+
164.0618	4	C13H8+
165.0699	271	C13H9+
166.0651	6	C12H8N+
166.0777	30	C13H10+
167.0729	19	C12H9N+
167.0855	4	C13H11+
169.0648	7	C12H9O+
173.1074	1	C11H13N2+
176.062	31	C14H8+
177.0573	5	C13H7N+
177.0698	27	C14H9+
178.0777	260	C14H10+
179.0603	2	C12H7N2+
179.0733	10	C13H9N+
179.0854	35	C14H11+
180.0808	15	C13H10N+
189.0697	24	C15H9+
190.065	25	C14H8N+
190.0771	9	C15H10+
191.0728	33	C14H9N+
191.0856	14	C15H11+
192.0807	105	C14H10N+
193.0886	178	C14H11N+
194.0966	8	C14H12N+
201.07	1	C16H9+
202.0776	16	C16H10+
203.073	2	C15H9N+
203.0854	5	C16H11+
204.0808	98	C15H10N+
205.0884	18	C15H11N+
206.0964	101	C15H12N+
207.1044	13	C15H13N+
216.081	17	C16H10N+
217.0886	66	C16H11N+
218.0848	4	C15H10N2+
218.0962	26	C16H12N+
219.0917	13	C15H11N2+
219.1044	5	C16H13N+
220.1119	7	C16H14N+
230.0962	5	C17H12N+
231.1032	1	C17H13N+
232.0995	2	C16H12N2+
233.1071	5	C16H13N2+
247.1228	4	C17H15N2+
