Mass spectrum: Amisulpride N-Oxide; LC-ESI-QFT; MS2; CE: 150; R=35000; [M+H]+
Name: Amisulpride N-Oxide
Name: 4-amino-N-[(1-ethyl-1-oxidopyrrolidin-1-ium-2-yl)methyl]-5-ethylsulfonyl-2-methoxybenzamide
Formula: C17H27N3O5S
Exact mass: 385.16714
SMILES: CC[N+]1(CCCC1CNC(=O)C2=CC(=C(C=C2OC)N)S(=O)(=O)CC)[O-]
InChI: InChI=1S/C17H27N3O5S/c1-4-20(22)8-6-7-12(20)11-19-17(21)13-9-16(26(23,24)5-2)14(18)10-15(13)25-3/h9-10,12H,4-8,11,18H2,1-3H3,(H,19,21)
Instrument: Q Exactive Plus Orbitrap Thermo Scientific
Instrument type: LC-ESI-QFT
Ms type: MS2
Ion mode: POSITIVE
Ionization: ESI
Fragmentation mode: HCD
Collision energy: 150 (nominal)
Resolution: 35000
Column name: XBridge C18 3.5um, 2.1x50mm, Waters
Retention time: 4.2 min
Base peak: 386.1742
Precursor m/z: 386.1744
Precursor type: [M+H]+
m/z	relative intensity	assigned
50.0151	133	C4H2+
51.0103	8	C3HN+
51.0229	103	C4H3+
52.0182	252	C3H2N+
52.0308	22	C4H4+
53.0022	305	C3HO+
53.0386	164	C4H5+
54.0339	161	C3H4N+
54.0465	47	C4H6+
55.0179	98	C3H3O+
56.0495	45	C3H6N+
56.9794	24	C2HS+
57.0335	2	C3H5O+
57.9872	30	C2H2S+
58.0288	25	C2H4NO+
58.0652	8	C3H8N+
58.995	38	C2H3S+
59.9665	4	COS+
59.9903	10	CH2NS+
61.0073	10	C5H+
62.0151	63	C5H2+
63.023	287	C5H3+
64.0182	181	C4H2N+
64.0308	236	C5H4+
65.026	196	C4H3N+
65.0386	859	C5H5+
66.0339	129	C4H4N+
66.0464	999	C5H6+
67.0053	9	C3HNO+
67.0179	15	C4H3O+
67.0417	141	C4H5N+
67.0542	14	C5H7+
68.0131	276	C3H2NO+
68.0495	73	C4H6N+
68.9794	227	C3HS+
68.9972	16	C3HO2+
69.0335	13	C4H5O+
69.9746	12	C2NS+
69.9872	138	C3H2S+
70.0287	17	C3H4NO+
70.0651	134	C4H8N+
70.995	37	C3H3S+
71.9903	2	C2H2NS+
74.0151	12	C6H2+
74.0599	14	C3H8NO+
74.99	2	C2H3OS+
75.0104	14	C5HN+
75.0229	28	C6H3+
76.0182	164	C5H2N+
76.0307	12	C6H4+
77.0022	16	C5HO+
77.026	68	C5H3N+
77.0385	19	C6H5+
78.0339	420	C5H4N+
79.0179	122	C5H3O+
79.0417	123	C5H5N+
80.0131	172	C4H2NO+
80.0495	75	C5H6N+
80.9794	24	C4HS+
81.0335	78	C5H5O+
81.9746	4	C3NS+
81.9871	44	C4H2S+
82.0288	17	C4H4NO+
82.0651	7	C5H8N+
82.995	71	C4H3S+
83.9665	3	C3OS+
83.9903	19	C3H2NS+
84.0028	14	C4H4S+
84.0809	2	C5H10N+
84.9743	37	C3HOS+
85.0106	25	C4H5S+
85.9821	3	C3H2OS+
86.0059	12	C3H4NS+
86.99	2	C3H3OS+
88.0182	2	C6H2N+
89.026	41	C6H3N+
90.0339	61	C6H4N+
91.0417	344	C6H5N+
92.0495	286	C6H6N+
92.9794	24	C5HS+
93.021	14	C5H3NO+
93.0336	13	C6H5O+
93.0573	64	C6H7N+
93.9872	12	C5H2S+
94.0288	143	C5H4NO+
94.0413	30	C6H6O+
94.0652	13	C6H8N+
94.9951	48	C5H3S+
95.0162	4	C2H7O2S+
95.0366	33	C5H5NO+
95.0492	25	C6H7O+
95.9902	13	C4H2NS+
96.0444	28	C5H6NO+
96.0808	12	C6H10N+
96.9981	71	C4H3NS+
97.9822	44	C4H2OS+
98.0059	13	C4H4NS+
98.0965	61	C6H12N+
98.9899	8	C4H3OS+
104.0131	123	C6H2NO+
104.0495	16	C7H6N+
105.021	2	C6H3NO+
105.0335	2	C7H5O+
105.0448	12	C6H5N2+
106.005	23	C6H2O2+
106.0288	428	C6H4NO+
106.9824	43	C5HNS+
107.0128	383	C6H3O2+
107.0366	94	C6H5NO+
107.9902	77	C5H2NS+
108.0445	10	C6H6NO+
108.9744	9	C5HOS+
108.9982	3	C5H3NS+
109.0286	3	C6H5O2+
109.052	2	C6H7NO+
110.0059	36	C5H4NS+
110.0601	20	C6H8NO+
110.9902	1	C5H3OS+
111.0014	2	C4H3N2S+
111.0315	10	C5H5NO2+
111.9852	3	C4H2NOS+
112.0393	53	C5H6NO2+
113.0055	4	C5H5OS+
117.0209	20	C7H3NO+
118.0285	1	C7H4NO+
119.0366	2	C7H5NO+
119.0602	3	C7H7N2+
119.9903	23	C6H2NS+
120.0445	158	C7H6NO+
121.0523	62	C7H7NO+
122.0059	26	C6H4NS+
122.0236	21	C6H4NO2+
122.0363	32	C7H6O2+
124.9931	38	C5H3NOS+
125.0058	2	C6H5OS+
125.0229	2	C6H5O3+
127.0264	9	C5H5NO3+
132.0081	400	C7H2NO2+
133.0158	4	C7H3NO2+
135.9851	3	C6H2NOS+
138.0006	2	C6H4NOS+
138.0185	2	C6H4NO3+
140.0164	7	C6H6NOS+
140.0343	33	C6H6NO3+
143.9875	2	C5H4O3S+
147.0314	4	C8H5NO2+
148.0029	3	C7H2NO3+
148.0393	13	C8H6NO2+
149.0233	8	C8H5O3+
149.0472	4	H11N3O4S+
150.0187	67	C7H4NO3+
151.0263	21	C7H5NO3+
152.9883	1	C6H3NO2S+
166.0136	2	C7H4NO4+
168.0113	2	C7H6NO2S+
