Mass spectrum: Mianserin-N-Oxide; LC-ESI-QFT; MS2; CE: 30; R=35000; [M+H]+
Name: Mianserin-N-Oxide
Name: 1,2,3,4,10,14b-Hexahydro-2-methyldibenzo(c,f)pyrazino(1,2-a)azepine 2-oxide
Formula: C18H20N2O
Exact mass: 280.15756
SMILES: C[N+]1(CCN2c3ccccc3Cc4ccccc4C2C1)[O-]
InChI: InChI=1S/C18H20N2O/c1-20(21)11-10-19-17-9-5-3-7-15(17)12-14-6-2-4-8-16(14)18(19)13-20/h2-9,18H,10-13H2,1H3
Instrument: Q Exactive Plus Orbitrap Thermo Scientific
Instrument type: LC-ESI-QFT
Ms type: MS2
Ion mode: POSITIVE
Ionization: ESI
Fragmentation mode: HCD
Collision energy: 30 (nominal)
Resolution: 35000
Column name: XBridge C18 3.5um, 2.1x50mm, Waters
Retention time: 7.0 min
Base peak: 281.1644
Precursor m/z: 281.1648
Precursor type: [M+H]+
m/z	relative intensity	assigned
57.0573	2	C3H7N+
58.0525	1	C2H6N2+
58.065	7	C3H8N+
69.0572	1	C4H7N+
70.0651	161	C4H8N+
71.0603	14	C3H7N2+
71.0728	17	C4H9N+
72.0807	119	C4H10N+
73.076	12	C3H9N2+
74.06	7	C3H8NO+
85.076	15	C4H9N2+
86.0838	27	C4H10N2+
88.0757	3	C4H10NO+
144.0808	2	C10H10N+
158.0964	19	C11H12N+
160.1121	2	C11H14N+
172.1121	1	C12H14N+
178.0771	6	C14H10+
179.0854	9	C14H11+
191.0854	136	C15H11+
192.0809	3	C14H10N+
192.0929	3	C15H12+
193.0883	26	C14H11N+
194.0967	3	C14H12N+
195.0807	2	C14H11O+
206.0964	9	C15H12N+
207.1043	4	C15H13N+
208.112	53	C15H14N+
218.0967	2	C16H12N+
219.1041	6	C16H13N+
220.1121	223	C16H14N+
221.1199	91	C16H15N+
224.1066	5	C15H14NO+
232.1119	1	C17H14N+
234.1274	5	C17H16N+
235.1227	2	C16H15N2+
236.131	2	C16H16N2+
238.1227	2	C16H16NO+
248.1306	17	C17H16N2+
249.1386	14	C17H17N2+
263.1542	999	C18H19N2+
264.1619	879	C18H20N2+
266.1415	3	C17H18N2O+
281.1647	407	C18H21N2O+
