Mass spectrum: Fluazinam; LC-ESI-ITFT; MS2; CE: 15%; R=15000; [M-H]-
Name: Fluazinam
Name: 3-chloranyl-N-[3-chloranyl-2,6-dinitro-4-(trifluoromethyl)phenyl]-5-(trifluoromethyl)pyridin-2-amine
Formula: C13H4Cl2F6N4O4
Exact mass: 463.9514
SMILES: n1cc(C(F)(F)F)cc(Cl)c1Nc1c([N+]([O-])=O)c(Cl)c(C(F)(F)F)cc1[N+]([O-])=O
InChI: InChI=1S/C13H4Cl2F6N4O4/c14-6-1-4(12(16,17)18)3-22-11(6)23-9-7(24(26)27)2-5(13(19,20)21)8(15)10(9)25(28)29/h1-3H,(H,22,23)
Instrument: LTQ Orbitrap XL Thermo Scientific
Instrument type: LC-ESI-ITFT
Ms type: MS2
Ion mode: NEGATIVE
Ionization: ESI
Fragmentation mode: HCD
Collision energy: 15 % (nominal)
Resolution: 15000
Column name: XBridge C18 3.5um, 2.1x50mm, Waters
Retention time: 15.9 min
Base peak: 462.9443
Precursor m/z: 462.9441
Precursor type: [M-H]-
m/z	relative intensity	assigned
397.9772	178	C13H3ClF6N3O3-
415.9438	152	C13H2Cl2F6N3O2-
462.9443	999	C13H3Cl2F6N4O4-
