Mass spectrum: Ioxitalamic acid; LC-ESI-ITFT; MS2; CE: 60%; R=7500; [M+H]+
Name: Ioxitalamic acid
Name: 3-acetamido-5-(2-hydroxyethylcarbamoyl)-2,4,6-triiodo-benzoic acid
Formula: C12H11I3N2O5
Exact mass: 643.7802
SMILES: CC(=O)NC1=C(I)C(C(O)=O)=C(I)C(C(=O)NCCO)=C1I
InChI: InChI=1S/C12H11I3N2O5/c1-4(19)17-10-8(14)5(11(20)16-2-3-18)7(13)6(9(10)15)12(21)22/h18H,2-3H2,1H3,(H,16,20)(H,17,19)(H,21,22)
Instrument: LTQ Orbitrap XL Thermo Scientific
Instrument type: LC-ESI-ITFT
Ms type: MS2
Ion mode: POSITIVE
Ionization: ESI
Fragmentation mode: HCD
Collision energy: 60 % (nominal)
Resolution: 7500
Column name: XBridge C18 3.5um, 2.1x50mm, Waters
Retention time: 1.3 min
Base peak: 132.958
Precursor m/z: 644.7875
Precursor type: [M+H]+
m/z	relative intensity	assigned
146.0238	21	C8H4NO2+
147.0314	82	C8H5NO2+
158.0237	52	C9H4NO2+
174.0187	73	C9H4NO3+
175.0271	23	C9H5NO3+
176.0338	25	C9H6NO3+
204.9146	36	C5H2IO+
231.9255	112	C6H3INO+
245.9412	80	C7H5INO+
257.9411	168	C8H5INO+
259.9193	20	C7H3INO2+
272.9279	44	C8H4INO2+
273.9363	439	C8H5INO2+
301.9312	999	C9H5INO3+
316.9169	12	C9H4INO4+
319.94	28	C9H7INO4+
