Mass spectrum: Azoxystrobin; LC-ESI-ITFT; MS2; CE: 45%; R=15000; [M+H]+
Name: Azoxystrobin
Name: Methyl (E)-2-[2-[6-(2-cyanophenoxy)pyrimidin-4-YL]oxyphenyl]-3-methoxy-prop-2-enoate
Formula: C22H17N3O5
Exact mass: 403.1168206
SMILES: CO/C=C(\C1=CC=CC=C1OC2=NC=NC(=C2)OC3=CC=CC=C3C#N)/C(=O)OC
InChI: InChI=1S/C22H17N3O5/c1-27-13-17(22(26)28-2)16-8-4-6-10-19(16)30-21-11-20(24-14-25-21)29-18-9-5-3-7-15(18)12-23/h3-11,13-14H,1-2H3/b17-13+
Instrument: LTQ Orbitrap XL Thermo Scientific
Instrument type: LC-ESI-ITFT
Ms type: MS2
Ion mode: POSITIVE
Ionization: ESI
Fragmentation mode: HCD
Collision energy: 45 % (nominal)
Resolution: 15000
Column name: XBridge C18 3.5um, 2.1x50mm, Waters
Retention time: 9.9 min
Base peak: 404.1245
Precursor m/z: 404.1241
Precursor type: [M+H]+
m/z	relative intensity	assigned
106.0655	3	C7H8N+
107.0491	4	C7H7O+
120.0441	3	C7H6NO+
129.0447	12	C8H5N2+
130.0399	4	C7H4N3+
134.0601	55	C8H8NO+
141.0448	7	C9H5N2+
143.0604	42	C9H7N2+
144.0442	3	C9H6NO+
145.0283	24	C9H5O2+
155.0606	4	C10H7N2+
156.0443	17	C10H6NO+
157.0285	2	C10H5O2+
160.0394	4	C9H6NO2+
161.0702	3	C9H9N2O+
162.0548	17	C9H8NO2+
169.0397	23	C10H5N2O+
171.0317	4	C10H5NO2+
171.0553	21	C10H7N2O+
172.0392	39	C10H6NO2+
177.0547	19	C10H9O3+
182.0718	9	C11H8N3+
183.0552	44	C11H7N2O+
186.0553	4	C11H8NO2+
187.0502	8	C10H7N2O2+
199.0502	8	C11H7N2O2+
200.0338	9	C11H6NO3+
201.042	32	C11H7NO3+
201.0659	47	C11H9N2O2+
202.05	4	C11H8NO3+
210.0423	20	C12H6N2O2+
210.0662	34	C12H8N3O+
211.0502	9	C12H7N2O2+
216.0654	106	C12H10NO3+
225.0651	4	C13H9N2O2+
242.0323	8	C12H6N2O4+
261.0787	2	C17H11NO2+
272.0809	10	C17H10N3O+
273.0661	8	C17H9N2O2+
273.0896	13	C17H11N3O+
275.0827	5	C17H11N2O2+
284.0822	2	C20H12O2+
287.0817	28	C18H11N2O2+
288.0648	6	C18H10NO3+
288.1127	10	C18H14N3O+
289.0964	12	C18H13N2O2+
300.0768	12	C18H10N3O2+
301.0846	89	C18H11N3O2+
303.0763	14	C18H11N2O3+
312.0765	9	C19H10N3O2+
315.1	22	C19H13N3O2+
316.1078	61	C19H14N3O2+
317.0918	9	C19H13N2O3+
328.0713	37	C19H10N3O3+
329.0793	999	C19H11N3O3+
340.0711	7	C20H10N3O3+
344.1027	808	C20H14N3O3+
372.0976	170	C21H14N3O4+
