Mass spectrum: Flurtamone; LC-ESI-QFT; MS2; CE: 150; R=35000; [M+H]+
Name: Flurtamone
Name: 5-(methylamino)-2-phenyl-4-[3-(trifluoromethyl)phenyl]furan-3-one
Formula: C18H14F3NO2
Exact mass: 333.09766
SMILES: CNC1=C(C(=O)C(O1)C2=CC=CC=C2)C3=CC(=CC=C3)C(F)(F)F
InChI: InChI=1S/C18H14F3NO2/c1-22-17-14(12-8-5-9-13(10-12)18(19,20)21)15(23)16(24-17)11-6-3-2-4-7-11/h2-10,16,22H,1H3
Instrument: Q Exactive Plus Orbitrap Thermo Scientific
Instrument type: LC-ESI-QFT
Ms type: MS2
Ion mode: POSITIVE
Ionization: ESI
Fragmentation mode: HCD
Collision energy: 150 (nominal)
Resolution: 35000
Column name: XBridge C18 3.5um, 2.1x50mm, Waters
Retention time: 10.1 min
Base peak: 334.1042
Precursor m/z: 334.1049
Precursor type: [M+H]+
m/z	relative intensity	assigned
50.0152	83	C4H2+
51.0041	3	CHF2+
51.023	63	C4H3+
53.0022	3	C3HO+
53.0386	54	C4H5+
55.0179	3	C3H3O+
57.0136	8	C3H2F+
58.0288	60	C2H4NO+
61.0072	1	C5H+
62.0151	3	C5H2+
63.0229	18	C5H3+
65.0022	6	C4HO+
65.0386	20	C5H5+
68.9946	12	CF3+
74.0151	17	C6H2+
75.0041	25	C3HF2+
75.0229	48	C6H3+
76.0307	15	C6H4+
77.0386	134	C6H5+
78.0465	13	C6H6+
79.0543	5	C6H7+
81.0136	5	C5H2F+
81.0335	7	C5H5O+
83.0292	11	C5H4F+
86.0151	4	C7H2+
87.023	10	C7H3+
89.0386	55	C7H5+
90.0465	13	C7H6+
91.0543	17	C7H7+
93.0136	1	C6H2F+
94.0414	2	C6H6O+
95.0492	188	C6H7O+
98.0152	17	C8H2+
99.0041	10	C5HF2+
99.023	29	C8H3+
100.0307	3	C8H4+
101.0198	9	C5H3F2+
101.0386	1	C8H5+
102.0465	60	C8H6+
103.0543	7	C8H7+
104.0496	6	C7H6N+
105.0336	8	C7H5O+
105.0448	121	C6H5N2+
107.0292	11	C7H4F+
108.037	1	C7H5F+
109.0448	13	C7H6F+
110.0147	1	C9H2+
111.023	1	C9H3+
113.0387	12	C9H5+
114.0464	1	C9H6+
115.0543	42	C9H7+
116.0495	1	C8H6N+
119.0105	4	C5H2F3+
119.0292	3	C8H4F+
120.037	1	C8H5F+
120.0809	1	C8H10N+
122.0151	1	C10H2+
123.004	1	C7HF2+
123.0229	1	C10H3+
123.0354	10	C6H4FN2+
125.0198	12	C7H3F2+
125.0387	13	C10H5+
126.0465	106	C10H6+
127.0543	12	C10H7+
128.0621	106	C10H8+
129.0448	6	C8H5N2+
130.0651	5	C9H8N+
131.0293	6	C9H4F+
133.0449	15	C9H6F+
137.0387	11	C11H5+
138.0277	3	C8H4F2+
138.0466	11	C11H6+
139.0543	70	C11H7+
143.0106	3	C7H2F3+
143.0493	1	C10H7O+
144.0372	3	C10H5F+
145.026	12	C7H4F3+
145.0651	7	C10H9O+
146.0525	3	C10H7F+
147.0353	3	C8H4FN2+
149.0198	11	C9H3F2+
149.0386	9	C12H5+
150.0466	181	C12H6+
151.0356	29	C9H5F2+
151.0543	144	C12H7+
152.0622	644	C12H8+
155.0293	2	C11H4F+
155.0494	4	C11H7O+
155.0604	19	C10H7N2+
157.045	13	C11H6F+
161.0387	11	C13H5+
162.0279	1	C10H4F2+
162.0465	7	C13H6+
163.0543	50	C13H7+
164.0434	2	C10H6F2+
164.0622	6	C13H8+
165.0701	22	C13H9+
167.0493	3	C12H7O+
168.0372	5	C12H5F+
168.0571	1	C12H8O+
169.0649	392	C12H9O+
170.0527	30	C12H7F+
174.0464	15	C14H6+
175.0355	10	C11H5F2+
175.0544	23	C14H7+
176.0622	999	C14H8+
177.07	213	C14H9+
178.0778	146	C14H10+
179.0605	133	C12H7N2+
180.0368	5	C13H5F+
181.0448	86	C13H6F+
182.0335	3	C10H5F3+
182.0527	8	C13H7F+
183.0605	8	C13H8F+
183.0806	3	C13H11O+
185.0388	1	C15H5+
185.0599	3	C12H9O2+
186.0274	3	C12H4F2+
186.0468	11	C15H6+
187.0543	71	C15H7+
188.0434	8	C12H6F2+
188.062	4	C15H8+
189.07	11	C15H9+
190.0414	1	C14H6O+
192.037	1	C14H5F+
193.0651	27	C14H9O+
194.0528	20	C14H7F+
195.0607	14	C14H8F+
196.0684	38	C14H9F+
197.0511	1	C12H6FN2+
199.0354	15	C13H5F2+
200.0433	6	C13H6F2+
201.0511	37	C13H7F2+
203.0606	11	C14H7N2+
204.0375	4	C12H6F2O+
205.045	125	C15H6F+
206.0529	44	C15H7F+
207.0607	112	C15H8F+
210.0478	11	C14H7FO+
212.0431	4	C14H6F2+
214.0589	1	C14H8F2+
219.0419	6	C13H6F3+
223.0353	5	C15H5F2+
224.0432	3	C15H6F2+
225.0512	104	C15H7F2+
227.0668	16	C15H9F2+
238.0428	5	C15H7FO2+
243.0416	2	C15H6F3+
245.0577	9	C15H8F3+
