Mass spectrum: Clozapine; LC-ESI-ITFT; MS2; CE: 60%; R=7500; [M+H]+
Name: Clozapine
Name: 8-chloro-11-(4-methylpiperazin-1-yl)-5H-dibenzo[b,e][1,4]diazepine
Formula: C18H19ClN4
Exact mass: 326.1298
SMILES: C1(=Nc2c(Nc3c1cccc3)ccc(c2)Cl)N1CCN(CC1)C
InChI: InChI=1S/C18H19ClN4/c1-22-8-10-23(11-9-22)18-14-4-2-3-5-15(14)20-16-7-6-13(19)12-17(16)21-18/h2-7,12,20H,8-11H2,1H3
Instrument: LTQ Orbitrap XL Thermo Scientific
Instrument type: LC-ESI-ITFT
Ms type: MS2
Ion mode: POSITIVE
Ionization: ESI
Fragmentation mode: HCD
Collision energy: 60 % (nominal)
Resolution: 7500
Column name: XBridge C18 3.5um, 2.1x50mm, Waters
Retention time: 6.4 min
Base peak: 327.1383
Precursor m/z: 327.1371
Precursor type: [M+H]+
m/z	relative intensity	assigned
58.0651	17	C3H8N+
82.0654	2	C5H8N+
84.0808	113	C5H10N+
85.0763	3	C4H9N2+
191.0608	5	C13H7N2+
192.0682	337	C13H8N2+
200.0269	3	C12H7ClN+
206.0831	6	C14H10N2+
226.0297	10	C13H7ClN2+
227.037	274	C13H8ClN2+
229.0528	14	C13H10ClN2+
234.1027	6	C15H12N3+
235.1098	14	C15H13N3+
241.0535	7	C14H10ClN2+
243.0667	3	C15H7N4+
253.0531	15	C15H10ClN2+
255.0545	8	C14H10ClN3+
270.0792	999	C15H13ClN3+
280.0629	2	C16H11ClN3+
281.0706	5	C16H12ClN3+
296.0949	140	C17H15ClN3+
