Mass spectrum: Sulfotep; LC-ESI-QFT; MS2; CE: 30%; R=17500; [M+H]+
Name: Sulfotep
Name: diethoxyphosphinothioyloxy-diethoxy-sulfanylidene-lambda5-phosphane
Formula: C8H20O5P2S2
Exact mass: 322.0227
SMILES: CCOP(=S)(OCC)OP(=S)(OCC)OCC
InChI: InChI=1S/C8H20O5P2S2/c1-5-9-14(16,10-6-2)13-15(17,11-7-3)12-8-4/h5-8H2,1-4H3
Instrument: Exploris 240 Orbitrap Thermo Scientific
Instrument type: LC-ESI-QFT
Ms type: MS2
Ion mode: POSITIVE
Ionization: ESI
Fragmentation mode: HCD
Collision energy: 30 % (nominal)
Resolution: 17500
Column name: XBridge C18 3.5um, 2.1x50mm, Waters
Retention time: 10.996 min
Base peak: 284.0713
Precursor m/z: 323.03
Precursor type: [M+H]+
m/z	relative intensity	assigned
96.9507	277	H2O2PS+
98.984	13	H4O4P+
110.9663	6	CH4O2PS+
114.9613	315	H4O3PS+
124.982	341	C2H6O2PS+
127.0156	33	C2H8O4P+
128.9769	24	CH6O3PS+
142.9926	564	C2H8O3PS+
153.0133	177	C4H10O2PS+
155.047	25	C4H12O4P+
171.0238	999	C4H12O3PS+
192.8943	20	H3O4P2S2+
199.0548	30	C6H16O3PS+
210.9043	26	H5O5P2S2+
220.9258	39	C2H7O4P2S2+
238.9362	69	C2H9O5P2S2+
266.9677	71	C4H13O5P2S2+
276.9873	9	C6H15O4P2S2+
294.9987	35	C6H17O5P2S2+
